# Generated by pormake.
# Topology tzs, (4)-cn, num edge types: 1
# Building blocks:
#     Node 0, Type 0, BuildingBlock: QUQFOY_clean_sbu_3, # of connection points: 4
#     Node 1, Type 0, BuildingBlock: QUQFOY_clean_sbu_3, # of connection points: 4
#     Node 2, Type 0, BuildingBlock: QUQFOY_clean_sbu_3, # of connection points: 4
#     Node 3, Type 0, BuildingBlock: QUQFOY_clean_sbu_3, # of connection points: 4
#     Node 4, Type 0, BuildingBlock: QUQFOY_clean_sbu_3, # of connection points: 4
#     Node 5, Type 0, BuildingBlock: QUQFOY_clean_sbu_3, # of connection points: 4
#     Node 6, Type 0, BuildingBlock: QUQFOY_clean_sbu_3, # of connection points: 4
#     Node 7, Type 0, BuildingBlock: QUQFOY_clean_sbu_3, # of connection points: 4
#     Node 8, Type 0, BuildingBlock: QUQFOY_clean_sbu_3, # of connection points: 4
#     Node 9, Type 0, BuildingBlock: QUQFOY_clean_sbu_3, # of connection points: 4
#     Node 10, Type 0, BuildingBlock: QUQFOY_clean_sbu_3, # of connection points: 4
#     Node 11, Type 0, BuildingBlock: QUQFOY_clean_sbu_3, # of connection points: 4
#     Node 12, Type 0, BuildingBlock: QUQFOY_clean_sbu_3, # of connection points: 4
#     Node 13, Type 0, BuildingBlock: QUQFOY_clean_sbu_3, # of connection points: 4
#     Node 14, Type 0, BuildingBlock: QUQFOY_clean_sbu_3, # of connection points: 4
#     Node 15, Type 0, BuildingBlock: QUQFOY_clean_sbu_3, # of connection points: 4
#     Edge 16, Type (0, 0), BuildingBlock: KIFKEQ_clean_linker_1, # of connection points: 2
#     Edge 17, Type (0, 0), BuildingBlock: KIFKEQ_clean_linker_1, # of connection points: 2
#     Edge 18, Type (0, 0), BuildingBlock: KIFKEQ_clean_linker_1, # of connection points: 2
#     Edge 19, Type (0, 0), BuildingBlock: KIFKEQ_clean_linker_1, # of connection points: 2
#     Edge 20, Type (0, 0), BuildingBlock: KIFKEQ_clean_linker_1, # of connection points: 2
#     Edge 21, Type (0, 0), BuildingBlock: KIFKEQ_clean_linker_1, # of connection points: 2
#     Edge 22, Type (0, 0), BuildingBlock: KIFKEQ_clean_linker_1, # of connection points: 2
#     Edge 23, Type (0, 0), BuildingBlock: KIFKEQ_clean_linker_1, # of connection points: 2
#     Edge 24, Type (0, 0), BuildingBlock: KIFKEQ_clean_linker_1, # of connection points: 2
#     Edge 25, Type (0, 0), BuildingBlock: KIFKEQ_clean_linker_1, # of connection points: 2
#     Edge 26, Type (0, 0), BuildingBlock: KIFKEQ_clean_linker_1, # of connection points: 2
#     Edge 27, Type (0, 0), BuildingBlock: KIFKEQ_clean_linker_1, # of connection points: 2
#     Edge 28, Type (0, 0), BuildingBlock: KIFKEQ_clean_linker_1, # of connection points: 2
#     Edge 29, Type (0, 0), BuildingBlock: KIFKEQ_clean_linker_1, # of connection points: 2
#     Edge 30, Type (0, 0), BuildingBlock: KIFKEQ_clean_linker_1, # of connection points: 2
#     Edge 31, Type (0, 0), BuildingBlock: KIFKEQ_clean_linker_1, # of connection points: 2
#     Edge 32, Type (0, 0), BuildingBlock: KIFKEQ_clean_linker_1, # of connection points: 2
#     Edge 33, Type (0, 0), BuildingBlock: KIFKEQ_clean_linker_1, # of connection points: 2
#     Edge 34, Type (0, 0), BuildingBlock: KIFKEQ_clean_linker_1, # of connection points: 2
#     Edge 35, Type (0, 0), BuildingBlock: KIFKEQ_clean_linker_1, # of connection points: 2
#     Edge 36, Type (0, 0), BuildingBlock: KIFKEQ_clean_linker_1, # of connection points: 2
#     Edge 37, Type (0, 0), BuildingBlock: KIFKEQ_clean_linker_1, # of connection points: 2
#     Edge 38, Type (0, 0), BuildingBlock: KIFKEQ_clean_linker_1, # of connection points: 2
#     Edge 39, Type (0, 0), BuildingBlock: KIFKEQ_clean_linker_1, # of connection points: 2
#     Edge 40, Type (0, 0), BuildingBlock: KIFKEQ_clean_linker_1, # of connection points: 2
#     Edge 41, Type (0, 0), BuildingBlock: KIFKEQ_clean_linker_1, # of connection points: 2
#     Edge 42, Type (0, 0), BuildingBlock: KIFKEQ_clean_linker_1, # of connection points: 2
#     Edge 43, Type (0, 0), BuildingBlock: KIFKEQ_clean_linker_1, # of connection points: 2
#     Edge 44, Type (0, 0), BuildingBlock: KIFKEQ_clean_linker_1, # of connection points: 2
#     Edge 45, Type (0, 0), BuildingBlock: KIFKEQ_clean_linker_1, # of connection points: 2
#     Edge 46, Type (0, 0), BuildingBlock: KIFKEQ_clean_linker_1, # of connection points: 2
#     Edge 47, Type (0, 0), BuildingBlock: KIFKEQ_clean_linker_1, # of connection points: 2
# Relax obj value: 0.118
# Max RMSD: 0.119
# Mean RMSD: 0.119
data_MOF--net-tzs--node1-QUQFOY_clean_sbu_3--edge1-KIFKEQ_clean_linker_1
_symmetry_space_group_name_H-M    P1
_symmetry_Int_Tables_number       1
_symmetry_cell_setting            triclinic
loop_
_symmetry_equiv_pos_as_xyz
'x, y, z'
_cell_length_a     51.368438
_cell_length_b     51.336212
_cell_length_c     41.916804
_cell_angle_alpha  90.01576
_cell_angle_beta   90.148475
_cell_angle_gamma 90.125833
loop_
_atom_site_label
_atom_site_type_symbol
_atom_site_fract_x
_atom_site_fract_y
_atom_site_fract_z
_atom_type_partial_charge
C0 C 0.06763 0.33668 0.16951 0.0
O1 O 0.06501 0.35098 0.14499 0.0
Cd2 Cd 0.09969 0.36673 0.11325 0.0
O3 O 0.09015 0.32968 0.17913 0.0
Cd4 Cd 0.13566 0.33631 0.16061 0.0
C5 C 0.13146 0.40168 0.17091 0.0
O6 O 0.12344 0.32712 0.10642 0.0
O7 O 0.16288 0.34039 0.11213 0.0
O8 O 0.14479 0.29345 0.1838 0.0
C9 C 0.14569 0.33021 0.09434 0.0
O10 O 0.11878 0.40227 0.14478 0.0
C11 C 0.16801 0.29931 0.19148 0.0
O12 O 0.13882 0.38008 0.18265 0.0
O13 O 0.17528 0.32259 0.18655 0.0
C14 C 0.63047 0.06795 0.17505 0.0
O15 O 0.61805 0.06656 0.14888 0.0
Cd16 Cd 0.60294 0.10361 0.12088 0.0
O17 O 0.63634 0.08989 0.18749 0.0
Cd18 Cd 0.63244 0.1366 0.1723 0.0
C19 C 0.56701 0.13361 0.1793 0.0
O20 O 0.64281 0.12749 0.11815 0.0
O21 O 0.62955 0.16669 0.12552 0.0
O22 O 0.67633 0.14279 0.19297 0.0
C23 C 0.64017 0.15019 0.10722 0.0
O24 O 0.56712 0.12132 0.15292 0.0
C25 C 0.67139 0.16421 0.20679 0.0
O26 O 0.58827 0.14072 0.19224 0.0
O27 O 0.64793 0.1719 0.20615 0.0
C28 C 0.90474 0.63079 0.17066 0.0
O29 O 0.90709 0.61859 0.14448 0.0
Cd30 Cd 0.87129 0.60287 0.11433 0.0
O31 O 0.88237 0.63621 0.18205 0.0
Cd32 Cd 0.83622 0.63153 0.16438 0.0
C33 C 0.84014 0.56591 0.17084 0.0
O34 O 0.84681 0.6422 0.1106 0.0
O35 O 0.80746 0.62864 0.11653 0.0
O36 O 0.82788 0.67505 0.18495 0.0
C37 C 0.82435 0.63942 0.09888 0.0
O38 O 0.85328 0.5663 0.14513 0.0
C39 C 0.80657 0.66899 0.19832 0.0
O40 O 0.83232 0.58702 0.18337 0.0
O41 O 0.79994 0.64516 0.19745 0.0
C42 C 0.33705 0.90258 0.17092 0.0
O43 O 0.34878 0.90557 0.14454 0.0
Cd44 Cd 0.36295 0.87142 0.11125 0.0
O45 O 0.33173 0.87983 0.18149 0.0
Cd46 Cd 0.33727 0.8341 0.16206 0.0
C47 C 0.403 0.8403 0.16451 0.0
O48 O 0.32345 0.84655 0.10974 0.0
O49 O 0.33687 0.8071 0.11277 0.0
O50 O 0.29669 0.824 0.18998 0.0
C51 C 0.32557 0.82459 0.09661 0.0
O52 O 0.40108 0.85458 0.13981 0.0
C53 C 0.30377 0.80117 0.19775 0.0
O54 O 0.3828 0.83078 0.17754 0.0
O55 O 0.32677 0.79453 0.19049 0.0
C56 C 0.07051 0.63474 0.29194 0.0
O57 O 0.06683 0.62349 0.3185 0.0
Cd58 Cd 0.10132 0.60775 0.35041 0.0
O59 O 0.09343 0.63915 0.28156 0.0
Cd60 Cd 0.13838 0.6336 0.30318 0.0
C61 C 0.13248 0.56857 0.29641 0.0
O62 O 0.12612 0.64723 0.35568 0.0
O63 O 0.16372 0.62899 0.35346 0.0
O64 O 0.14916 0.67524 0.27799 0.0
C65 C 0.14778 0.64296 0.36883 0.0
O66 O 0.11876 0.56959 0.32163 0.0
C67 C 0.17231 0.66864 0.27124 0.0
O68 O 0.14132 0.58935 0.28405 0.0
O69 O 0.17892 0.64545 0.27771 0.0
C70 C 0.33451 0.06588 0.29803 0.0
O71 O 0.34778 0.0649 0.32361 0.0
Cd72 Cd 0.36048 0.10145 0.35467 0.0
O73 O 0.32716 0.08769 0.2865 0.0
Cd74 Cd 0.33178 0.13422 0.30216 0.0
C75 C 0.39792 0.13207 0.29907 0.0
O76 O 0.32004 0.1246 0.3563 0.0
O77 O 0.33212 0.16418 0.34842 0.0
O78 O 0.29017 0.14303 0.27536 0.0
C79 C 0.32176 0.14758 0.36679 0.0
O80 O 0.3975 0.12043 0.32587 0.0
C81 C 0.29746 0.16515 0.26507 0.0
O82 O 0.37679 0.13796 0.28503 0.0
O83 O 0.3209 0.17168 0.27037 0.0
C84 C 0.90598 0.33473 0.29717 0.0
O85 O 0.90764 0.34868 0.32213 0.0
Cd86 Cd 0.8715 0.36321 0.35241 0.0
O87 O 0.88387 0.3275 0.28636 0.0
Cd88 Cd 0.83762 0.33254 0.30227 0.0
C89 C 0.84043 0.39834 0.29447 0.0
O90 O 0.8475 0.32343 0.35682 0.0
O91 O 0.80798 0.33569 0.34878 0.0
O92 O 0.82943 0.28854 0.28283 0.0
C93 C 0.82469 0.32585 0.3675 0.0
O94 O 0.85264 0.39875 0.32094 0.0
C95 C 0.80836 0.29435 0.26866 0.0
O96 O 0.83377 0.37679 0.28188 0.0
O97 O 0.80189 0.3182 0.26855 0.0
C98 C 0.63652 0.89919 0.28902 0.0
O99 O 0.62609 0.90268 0.31609 0.0
Cd100 Cd 0.60837 0.86835 0.34642 0.0
O101 O 0.63982 0.87636 0.27764 0.0
Cd102 Cd 0.63466 0.83052 0.29688 0.0
C103 C 0.56987 0.83829 0.28944 0.0
O104 O 0.64619 0.84172 0.35011 0.0
O105 O 0.63077 0.80294 0.3458 0.0
O106 O 0.67805 0.82214 0.27643 0.0
C107 C 0.6422 0.81987 0.36289 0.0
O108 O 0.5716 0.85313 0.3137 0.0
C109 C 0.6723 0.80037 0.26387 0.0
O110 O 0.58997 0.82725 0.27816 0.0
O111 O 0.64862 0.79331 0.26517 0.0
C112 C 0.8396 0.57201 0.78853 0.0
O113 O 0.84956 0.56786 0.81579 0.0
Cd114 Cd 0.86614 0.6009 0.84927 0.0
O115 O 0.83665 0.59511 0.77779 0.0
Cd116 Cd 0.84269 0.64027 0.79922 0.0
C117 C 0.90792 0.63197 0.79755 0.0
O118 O 0.82801 0.62747 0.85109 0.0
O119 O 0.84311 0.66644 0.84914 0.0
O120 O 0.80234 0.65148 0.77145 0.0
C121 C 0.83104 0.64912 0.86477 0.0
O122 O 0.90508 0.61661 0.82113 0.0
C123 C 0.80975 0.67435 0.76429 0.0
O124 O 0.88835 0.64306 0.78495 0.0
O125 O 0.83291 0.68056 0.77165 0.0
C126 C 0.40951 0.84896 0.79716 0.0
O127 O 0.4109 0.86147 0.82326 0.0
Cd128 Cd 0.37397 0.87646 0.85169 0.0
O129 O 0.38756 0.84309 0.78471 0.0
Cd130 Cd 0.34082 0.84742 0.7993 0.0
C131 C 0.34398 0.91321 0.79395 0.0
O132 O 0.34973 0.8367 0.85361 0.0
O133 O 0.3103 0.8491 0.84519 0.0
O134 O 0.33355 0.80392 0.77777 0.0
C135 C 0.32674 0.83869 0.86382 0.0
O136 O 0.35633 0.91286 0.82032 0.0
C137 C 0.31255 0.80978 0.76348 0.0
O138 O 0.33691 0.89204 0.78074 0.0
O139 O 0.3057 0.83351 0.76423 0.0
C140 C 0.13688 0.41324 0.78946 0.0
O141 O 0.12241 0.41437 0.81395 0.0
Cd142 Cd 0.10808 0.37772 0.84358 0.0
O143 O 0.14462 0.39136 0.77862 0.0
Cd144 Cd 0.13981 0.3448 0.7937 0.0
C145 C 0.07417 0.34617 0.78467 0.0
O146 O 0.14805 0.35442 0.84855 0.0
O147 O 0.13621 0.31479 0.84003 0.0
O148 O 0.1842 0.3382 0.7751 0.0
C149 C 0.14556 0.33155 0.85911 0.0
O150 O 0.07345 0.35806 0.8113 0.0
C151 C 0.17925 0.31691 0.7609 0.0
O152 O 0.09587 0.34021 0.7721 0.0
O153 O 0.15566 0.30951 0.76044 0.0
C154 C 0.57119 0.13952 0.79392 0.0
O155 O 0.56697 0.12652 0.81916 0.0
Cd156 Cd 0.59949 0.10908 0.85265 0.0
O157 O 0.59438 0.14459 0.78486 0.0
Cd158 Cd 0.63922 0.13681 0.80612 0.0
C159 C 0.63124 0.07167 0.79698 0.0
O160 O 0.62507 0.14768 0.85894 0.0
O161 O 0.66457 0.13411 0.85638 0.0
O162 O 0.65002 0.17874 0.78166 0.0
C163 C 0.64674 0.14468 0.87265 0.0
O164 O 0.61614 0.07264 0.82098 0.0
C165 C 0.67338 0.17243 0.77561 0.0
O166 O 0.64202 0.09224 0.78643 0.0
O167 O 0.6801 0.14924 0.78198 0.0
C168 C 0.83929 0.40508 0.66922 0.0
O169 O 0.85037 0.4068 0.64225 0.0
Cd170 Cd 0.86421 0.37069 0.61154 0.0
O171 O 0.83419 0.38297 0.68172 0.0
Cd172 Cd 0.83834 0.33643 0.66536 0.0
C173 C 0.90424 0.34094 0.66601 0.0
O174 O 0.82449 0.34628 0.61218 0.0
O175 O 0.83785 0.30698 0.61837 0.0
O176 O 0.79762 0.32747 0.69364 0.0
C177 C 0.82645 0.32359 0.60094 0.0
O178 O 0.90257 0.35344 0.63985 0.0
C179 C 0.80496 0.30524 0.70342 0.0
O180 O 0.88381 0.33347 0.6804 0.0
O181 O 0.82816 0.2986 0.69716 0.0
C182 C 0.57503 0.83823 0.67766 0.0
O183 O 0.56988 0.84782 0.65047 0.0
Cd184 Cd 0.60162 0.86525 0.61596 0.0
O185 O 0.59846 0.83572 0.68744 0.0
Cd186 Cd 0.6429 0.84172 0.66408 0.0
C187 C 0.63334 0.90662 0.66834 0.0
O188 O 0.6287 0.82771 0.61229 0.0
O189 O 0.66754 0.84335 0.61337 0.0
O190 O 0.65439 0.80092 0.69043 0.0
C191 C 0.64999 0.83128 0.59802 0.0
O192 O 0.61743 0.90375 0.64525 0.0
C193 C 0.67755 0.80793 0.69676 0.0
O194 O 0.64537 0.88715 0.67985 0.0
O195 O 0.68388 0.83111 0.68962 0.0
C196 C 0.14274 0.57861 0.66865 0.0
O197 O 0.13096 0.57658 0.64212 0.0
Cd198 Cd 0.11345 0.61271 0.615 0.0
O199 O 0.14689 0.60093 0.68116 0.0
Cd200 Cd 0.14004 0.64752 0.6661 0.0
C201 C 0.07579 0.6383 0.67545 0.0
O202 O 0.15078 0.64059 0.61156 0.0
O203 O 0.131 0.67687 0.62012 0.0
O204 O 0.18406 0.65624 0.68455 0.0
C205 C 0.14453 0.66289 0.60159 0.0
O206 O 0.07699 0.6256 0.6494 0.0
C207 C 0.17847 0.67728 0.69879 0.0
O208 O 0.09616 0.64839 0.68758 0.0
O209 O 0.15462 0.68372 0.6994 0.0
C210 C 0.41014 0.14467 0.6651 0.0
O211 O 0.41069 0.13067 0.64013 0.0
Cd212 Cd 0.37304 0.11648 0.61201 0.0
O213 O 0.38852 0.152 0.67703 0.0
Cd214 Cd 0.34157 0.14724 0.6641 0.0
C215 C 0.34388 0.08145 0.67156 0.0
O216 O 0.34882 0.15615 0.60894 0.0
O217 O 0.30982 0.14352 0.61964 0.0
O218 O 0.33472 0.1914 0.6836 0.0
C219 C 0.32557 0.15337 0.59976 0.0
O220 O 0.35501 0.08107 0.64446 0.0
C221 C 0.31431 0.1858 0.69919 0.0
O222 O 0.33803 0.103 0.68467 0.0
O223 O 0.30764 0.16199 0.69997 0.0
H224 H 0.30376 0.21728 0.26005 0.0
H225 H 0.24927 0.1553 0.23944 0.0
H226 H 0.27208 0.24918 0.24319 0.0
H227 H 0.21775 0.18733 0.22031 0.0
H228 H 0.15752 0.25284 0.22082 0.0
H229 H 0.1889 0.21973 0.2373 0.0
H230 H 0.25147 0.26748 0.20026 0.0
H231 H 0.22038 0.30094 0.18608 0.0
C232 C 0.28516 0.21044 0.2511 0.0
C233 C 0.27901 0.18381 0.25093 0.0
C234 C 0.26693 0.22879 0.24125 0.0
C235 C 0.24225 0.22096 0.2302 0.0
C236 C 0.23635 0.19415 0.2292 0.0
C237 C 0.25449 0.17576 0.23978 0.0
C238 C 0.17805 0.25623 0.21665 0.0
C239 C 0.1866 0.27954 0.20266 0.0
C240 C 0.19603 0.23717 0.2257 0.0
C241 C 0.22284 0.24086 0.22024 0.0
C242 C 0.23115 0.26413 0.20571 0.0
C243 C 0.21329 0.28335 0.19744 0.0
H244 H 0.76301 0.30141 0.23603 0.0
H245 H 0.81338 0.24157 0.27402 0.0
H246 H 0.73071 0.26846 0.22238 0.0
H247 H 0.78073 0.20862 0.261 0.0
H248 H 0.72382 0.15595 0.2036 0.0
H249 H 0.75835 0.18675 0.21706 0.0
H250 H 0.70091 0.24089 0.25232 0.0
H251 H 0.66637 0.21041 0.2382 0.0
C252 C 0.76729 0.28118 0.24119 0.0
C253 C 0.79066 0.27408 0.25623 0.0
C254 C 0.74866 0.26234 0.23369 0.0
C255 C 0.75298 0.23601 0.24119 0.0
C256 C 0.77687 0.22875 0.2549 0.0
C257 C 0.79556 0.24762 0.26233 0.0
C258 C 0.7186 0.17428 0.21466 0.0
C259 C 0.69238 0.18086 0.21963 0.0
C260 C 0.73839 0.19191 0.22235 0.0
C261 C 0.73231 0.21641 0.23522 0.0
C262 C 0.70616 0.22241 0.24167 0.0
C263 C 0.68639 0.20484 0.2339 0.0
H264 H 0.76127 0.66144 0.2308 0.0
H265 H 0.81173 0.72178 0.19404 0.0
H266 H 0.72945 0.69427 0.2459 0.0
H267 H 0.77956 0.75458 0.20829 0.0
H268 H 0.66563 0.75371 0.23377 0.0
H269 H 0.69924 0.72264 0.21883 0.0
H270 H 0.75849 0.77601 0.25235 0.0
H271 H 0.72492 0.80738 0.26641 0.0
C272 C 0.76565 0.68174 0.22617 0.0
C273 C 0.78895 0.68903 0.21117 0.0
C274 C 0.7473 0.70053 0.2345 0.0
C275 C 0.75179 0.72699 0.22781 0.0
C276 C 0.77555 0.73437 0.2139 0.0
C277 C 0.79398 0.71558 0.20573 0.0
C278 C 0.68585 0.75893 0.23755 0.0
C279 C 0.69264 0.78293 0.25133 0.0
C280 C 0.7051 0.74103 0.22932 0.0
C281 C 0.73152 0.74669 0.23487 0.0
C282 C 0.73834 0.7711 0.24761 0.0
C283 C 0.71908 0.78907 0.25569 0.0
H284 H 0.25685 0.81083 0.2261 0.0
H285 H 0.30895 0.74867 0.19935 0.0
H286 H 0.2251 0.77878 0.24452 0.0
H287 H 0.27692 0.71674 0.2158 0.0
H288 H 0.22488 0.66481 0.27385 0.0
H289 H 0.25682 0.69742 0.25898 0.0
H290 H 0.19501 0.74782 0.22576 0.0
H291 H 0.16292 0.71555 0.24261 0.0
C292 C 0.2615 0.79032 0.22424 0.0
C293 C 0.28539 0.78223 0.2115 0.0
C294 C 0.24322 0.77192 0.23443 0.0
C295 C 0.24831 0.74508 0.23151 0.0
C296 C 0.27242 0.73716 0.21905 0.0
C297 C 0.29083 0.7555 0.20948 0.0
C298 C 0.21813 0.68278 0.26314 0.0
C299 C 0.19144 0.68762 0.25922 0.0
C300 C 0.23647 0.70151 0.2545 0.0
C301 C 0.22859 0.72534 0.24107 0.0
C302 C 0.20181 0.72994 0.2366 0.0
C303 C 0.18341 0.71135 0.24588 0.0
H304 H 0.66885 0.76091 0.72535 0.0
H305 H 0.73013 0.8126 0.69411 0.0
H306 H 0.70129 0.72867 0.74089 0.0
H307 H 0.76243 0.78002 0.70776 0.0
H308 H 0.81563 0.7269 0.76414 0.0
H309 H 0.78358 0.75942 0.74954 0.0
H310 H 0.73068 0.69833 0.71971 0.0
H311 H 0.76243 0.66571 0.7362 0.0
C312 C 0.68928 0.76535 0.72187 0.0
C313 C 0.697 0.78928 0.70875 0.0
C314 C 0.70788 0.74677 0.73037 0.0
C315 C 0.73455 0.75158 0.72537 0.0
C316 C 0.74216 0.77572 0.71251 0.0
C317 C 0.72362 0.79444 0.7046 0.0
C318 C 0.79726 0.72042 0.75413 0.0
C319 C 0.79151 0.69378 0.7513 0.0
C320 C 0.77884 0.7391 0.74566 0.0
C321 C 0.75439 0.73159 0.73355 0.0
C322 C 0.74904 0.70486 0.72964 0.0
C323 C 0.76733 0.68614 0.7387 0.0
H324 H 0.17231 0.72348 0.73001 0.0
H325 H 0.23105 0.67087 0.69443 0.0
H326 H 0.2061 0.75482 0.7442 0.0
H327 H 0.26479 0.70249 0.7079 0.0
H328 H 0.31855 0.75701 0.76668 0.0
H329 H 0.28658 0.72384 0.75229 0.0
H330 H 0.23552 0.78365 0.7157 0.0
H331 H 0.26718 0.81685 0.73079 0.0
C332 C 0.19245 0.71853 0.72546 0.0
C333 C 0.19902 0.69477 0.71103 0.0
C334 C 0.21178 0.73659 0.73325 0.0
C335 C 0.23808 0.7313 0.72668 0.0
C336 C 0.24473 0.70711 0.71336 0.0
C337 C 0.22539 0.689 0.70564 0.0
C338 C 0.30066 0.76303 0.75513 0.0
C339 C 0.29529 0.78954 0.75005 0.0
C340 C 0.28235 0.74402 0.74689 0.0
C341 C 0.25836 0.75117 0.73334 0.0
C342 C 0.25357 0.77759 0.72684 0.0
C343 C 0.27182 0.79658 0.73516 0.0
H344 H 0.1741 0.27052 0.72999 0.0
H345 H 0.23177 0.32495 0.76508 0.0
H346 H 0.20845 0.23983 0.71669 0.0
H347 H 0.26616 0.29394 0.75225 0.0
H348 H 0.32005 0.23855 0.69385 0.0
H349 H 0.28808 0.27179 0.70761 0.0
H350 H 0.23821 0.21245 0.74776 0.0
H351 H 0.26985 0.17922 0.73352 0.0
C352 C 0.19413 0.27603 0.73458 0.0
C353 C 0.20023 0.30007 0.74873 0.0
C354 C 0.21378 0.25834 0.72727 0.0
C355 C 0.23994 0.2643 0.73401 0.0
C356 C 0.24617 0.28883 0.7468 0.0
C357 C 0.22648 0.30657 0.75411 0.0
C358 C 0.30245 0.23267 0.70609 0.0
C359 C 0.29734 0.20626 0.71237 0.0
C360 C 0.28415 0.25171 0.71394 0.0
C361 C 0.26045 0.24464 0.72821 0.0
C362 C 0.25603 0.21839 0.73605 0.0
C363 C 0.27427 0.19939 0.72819 0.0
H364 H 0.66428 0.21876 0.74545 0.0
H365 H 0.72577 0.16987 0.78204 0.0
H366 H 0.69645 0.25135 0.72971 0.0
H367 H 0.75768 0.20286 0.76842 0.0
H368 H 0.81117 0.25306 0.70919 0.0
H369 H 0.77921 0.22126 0.72597 0.0
H370 H 0.72536 0.28335 0.74822 0.0
H371 H 0.75713 0.31522 0.72934 0.0
C372 C 0.68469 0.21506 0.75017 0.0
C373 C 0.6926 0.19171 0.76457 0.0
C374 C 0.70312 0.23385 0.74154 0.0
C375 C 0.72977 0.22985 0.7478 0.0
C376 C 0.73749 0.20647 0.7625 0.0
C377 C 0.71916 0.18752 0.77043 0.0
C378 C 0.79263 0.25997 0.71802 0.0
C379 C 0.78663 0.28662 0.71798 0.0
C380 C 0.77424 0.24169 0.7278 0.0
C381 C 0.74956 0.24962 0.73847 0.0
C382 C 0.74393 0.27645 0.73953 0.0
C383 C 0.76222 0.29476 0.72909 0.0
H384 H 0.13313 0.28769 0.89336 0.0
H385 H 0.17062 0.3629 0.901 0.0
H386 H 0.13842 0.28148 0.95097 0.0
H387 H 0.17541 0.35699 0.95801 0.0
H388 H 0.11159 0.30826 0.05271 0.0
H389 H 0.1166 0.30296 -0.00443 0.0
H390 H 0.19511 0.33302 0.00188 0.0
H391 H 0.18986 0.33892 0.05941 0.0
C392 C 0.14277 0.30269 0.90725 0.0
C393 C 0.15103 0.32595 0.89289 0.0
C394 C 0.14577 0.29917 0.94014 0.0
C395 C 0.15721 0.31881 0.959 0.0
C396 C 0.16682 0.34135 0.94416 0.0
C397 C 0.16375 0.34487 0.91149 0.0
C398 C 0.13005 0.31349 0.04201 0.0
C399 C 0.15017 0.32452 0.06038 0.0
C400 C 0.13303 0.31012 0.00928 0.0
C401 C 0.15621 0.31768 -0.00578 0.0
C402 C 0.17691 0.32732 0.01287 0.0
C403 C 0.17392 0.33071 0.04572 0.0
H404 H 0.6904 0.13968 0.90977 0.0
H405 H 0.61042 0.16564 0.91185 0.0
H406 H 0.69405 0.14806 0.96704 0.0
H407 H 0.61383 0.17329 0.96878 0.0
H408 H 0.66917 0.1201 0.06832 0.0
H409 H 0.6753 0.12474 0.01142 0.0
H410 H 0.63288 0.19737 0.01313 0.0
H411 H 0.6262 0.19234 0.07067 0.0
C412 C 0.67371 0.14734 0.9224 0.0
C413 C 0.65001 0.15154 0.90653 0.0
C414 C 0.67579 0.15217 0.9551 0.0
C415 C 0.65417 0.16119 0.97243 0.0
C416 C 0.63094 0.16668 0.95611 0.0
C417 C 0.6289 0.16195 0.92351 0.0
C418 C 0.6614 0.13727 0.05669 0.0
C419 C 0.64672 0.15561 0.07374 0.0
C420 C 0.66523 0.14009 0.02407 0.0
C421 C 0.65445 0.16135 0.00773 0.0
C422 C 0.64114 0.18063 0.02511 0.0
C423 C 0.63735 0.17781 0.05798 0.0
H424 H 0.83791 0.6921 0.90264 0.0
H425 H 0.80667 0.61384 0.90252 0.0
H426 H 0.82944 0.69524 0.9599 0.0
H427 H 0.79895 0.61668 0.95942 0.0
H428 H 0.78154 0.62801 0.06191 0.0
H429 H 0.77665 0.63599 0.00457 0.0
H430 H 0.85175 0.67416 0.00347 0.0
H431 H 0.85628 0.66681 0.06019 0.0
C432 C 0.829 0.6757 0.91478 0.0
C433 C 0.82345 0.65254 0.89834 0.0
C434 C 0.82415 0.6775 0.94747 0.0
C435 C 0.81377 0.65611 0.9642 0.0
C436 C 0.8067 0.6336 0.94723 0.0
C437 C 0.81145 0.63185 0.91464 0.0
C438 C 0.79671 0.63847 0.04939 0.0
C439 C 0.81947 0.64634 0.06531 0.0
C440 C 0.79396 0.64303 0.01665 0.0
C441 C 0.81389 0.65559 -0.00051 0.0
C442 C 0.83588 0.66476 0.01597 0.0
C443 C 0.83862 0.6602 0.04847 0.0
H444 H 0.33348 0.78191 0.05862 0.0
H445 H 0.30082 0.85943 0.05869 0.0
H446 H 0.32657 0.77925 0.00095 0.0
H447 H 0.29463 0.85708 0.00145 0.0
H448 H 0.282 0.84788 0.89774 0.0
H449 H 0.27459 0.83811 0.95423 0.0
H450 H 0.35039 0.80191 0.95966 0.0
H451 H 0.35744 0.81107 0.90378 0.0
C452 C 0.32451 0.79818 0.0464 0.0
C453 C 0.31827 0.82109 0.06291 0.0
C454 C 0.32055 0.79669 0.01346 0.0
C455 C 0.31035 0.81809 -0.00338 0.0
C456 C 0.30231 0.84017 0.01367 0.0
C457 C 0.3062 0.84164 0.04647 0.0
C458 C 0.2968 0.83745 0.911 0.0
C459 C 0.32049 0.83071 0.89663 0.0
C460 C 0.29259 0.83186 0.94324 0.0
C461 C 0.31196 0.81934 0.96142 0.0
C462 C 0.33491 0.81123 0.94633 0.0
C463 C 0.33911 0.81685 0.91433 0.0
H464 H 0.10993 0.68316 0.55918 0.0
H465 H 0.18902 0.65629 0.56894 0.0
H466 H 0.11453 0.68323 0.50135 0.0
H467 H 0.19455 0.65805 0.51129 0.0
H468 H 0.17827 0.61984 0.41393 0.0
H469 H 0.1808 0.63105 0.47024 0.0
H470 H 0.13152 0.69799 0.45338 0.0
H471 H 0.12777 0.68558 0.39751 0.0
C472 C 0.12862 0.67832 0.54885 0.0
C473 C 0.14904 0.66947 0.56812 0.0
C474 C 0.13138 0.67839 0.51571 0.0
C475 C 0.15483 0.67014 0.50149 0.0
C476 C 0.17598 0.6637 0.52128 0.0
C477 C 0.17296 0.66297 0.55427 0.0
C478 C 0.1683 0.63709 0.42232 0.0
C479 C 0.15252 0.65161 0.4017 0.0
C480 C 0.16987 0.64373 0.45456 0.0
C481 C 0.15616 0.66539 0.46656 0.0
C482 C 0.14179 0.68085 0.44523 0.0
C483 C 0.13974 0.67383 0.41321 0.0
H484 H 0.28083 0.13974 0.56788 0.0
H485 H 0.35433 0.17976 0.55656 0.0
H486 H 0.27256 0.14434 0.51057 0.0
H487 H 0.34644 0.18385 0.49986 0.0
H488 H 0.32789 0.19371 0.3988 0.0
H489 H 0.32126 0.20121 0.45581 0.0
H490 H 0.29364 0.12208 0.46633 0.0
H491 H 0.29959 0.11486 0.40969 0.0
C492 C 0.29498 0.14984 0.55326 0.0
C493 C 0.31845 0.15889 0.56644 0.0
C494 C 0.29028 0.15247 0.52055 0.0
C495 C 0.30894 0.16429 0.5007 0.0
C496 C 0.33152 0.17492 0.51446 0.0
C497 C 0.33621 0.17224 0.54695 0.0
C498 C 0.31996 0.17813 0.41327 0.0
C499 C 0.31483 0.15354 0.40003 0.0
C500 C 0.31614 0.18241 0.44583 0.0
C501 C 0.30717 0.16215 0.46558 0.0
C502 C 0.30031 0.13818 0.45177 0.0
C503 C 0.30407 0.13393 0.41933 0.0
H504 H 0.85635 0.30063 0.40879 0.0
H505 H 0.78028 0.33599 0.40158 0.0
H506 H 0.85016 0.29419 0.46541 0.0
H507 H 0.77375 0.32896 0.4588 0.0
H508 H 0.83464 0.27914 0.56617 0.0
H509 H 0.82721 0.27342 0.50893 0.0
H510 H 0.79414 0.35068 0.50392 0.0
H511 H 0.80089 0.35607 0.56075 0.0
C512 C 0.83807 0.30665 0.41927 0.0
C513 C 0.81901 0.31934 0.40095 0.0
C514 C 0.83437 0.3026 0.45172 0.0
C515 C 0.8115 0.31114 0.46663 0.0
C516 C 0.7917 0.32242 0.44794 0.0
C517 C 0.79541 0.32645 0.41528 0.0
C518 C 0.82533 0.29463 0.55286 0.0
C519 C 0.81891 0.31826 0.56768 0.0
C520 C 0.82107 0.29138 0.52016 0.0
C521 C 0.81036 0.31173 0.50188 0.0
C522 C 0.80219 0.33454 0.5173 0.0
C523 C 0.8064 0.33776 0.54986 0.0
H524 H 0.61358 0.80855 0.56005 0.0
H525 H 0.6929 0.83686 0.55998 0.0
H526 H 0.61621 0.80015 0.50324 0.0
H527 H 0.69581 0.82767 0.50287 0.0
H528 H 0.67011 0.85208 0.40087 0.0
H529 H 0.67616 0.84936 0.45799 0.0
H530 H 0.63496 0.77583 0.45932 0.0
H531 H 0.62828 0.77894 0.40154 0.0
C532 C 0.63176 0.81259 0.54795 0.0
C533 C 0.65288 0.82387 0.56428 0.0
C534 C 0.63336 0.80744 0.51541 0.0
C535 C 0.65617 0.81336 0.49852 0.0
C536 C 0.67784 0.82325 0.51523 0.0
C537 C 0.67619 0.82853 0.54785 0.0
C538 C 0.66255 0.83515 0.41322 0.0
C539 C 0.64828 0.81594 0.39688 0.0
C540 C 0.66633 0.83344 0.44599 0.0
C541 C 0.65597 0.81243 0.46322 0.0
C542 C 0.64291 0.79242 0.44665 0.0
C543 C 0.63912 0.79414 0.41365 0.0
H544 H 0.11769 0.51968 0.31582 0.0
H545 H 0.15636 0.5605 0.2391 0.0
H546 H 0.12072 0.47911 0.28561 0.0
H547 H 0.15941 0.51998 0.20915 0.0
H548 H 0.12327 0.4517 0.1508 0.0
H549 H 0.12666 0.49154 0.18222 0.0
H550 H 0.15271 0.44692 0.26351 0.0
H551 H 0.14927 0.40696 0.23218 0.0
C552 C 0.12711 0.51997 0.29274 0.0
C553 C 0.13661 0.5434 0.27983 0.0
C554 C 0.12895 0.49671 0.27549 0.0
C555 C 0.14015 0.49643 0.24492 0.0
C556 C 0.15038 0.51967 0.23248 0.0
C557 C 0.14873 0.54286 0.24977 0.0
C558 C 0.12998 0.45037 0.17526 0.0
C559 C 0.13591 0.42611 0.18898 0.0
C560 C 0.13204 0.47323 0.19322 0.0
C561 C 0.13987 0.47232 0.22536 0.0
C562 C 0.14638 0.44817 0.23889 0.0
C563 C 0.14456 0.42532 0.22085 0.0
H564 H 0.55982 0.15373 0.23915 0.0
H565 H 0.51772 0.12319 0.15785 0.0
H566 H 0.51911 0.15721 0.26867 0.0
H567 H 0.47716 0.12646 0.18751 0.0
H568 H 0.40569 0.15358 0.24016 0.0
H569 H 0.44658 0.15781 0.21129 0.0
H570 H 0.48796 0.12575 0.29199 0.0
H571 H 0.44712 0.12174 0.32111 0.0
C572 C 0.54188 0.14799 0.22744 0.0
C573 C 0.54207 0.13805 0.19615 0.0
C574 C 0.51859 0.14986 0.24445 0.0
C575 C 0.49495 0.142 0.23049 0.0
C576 C 0.49501 0.13292 0.19884 0.0
C577 C 0.51831 0.13091 0.18189 0.0
C578 C 0.42352 0.1477 0.25195 0.0
C579 C 0.42307 0.13712 0.28291 0.0
C580 C 0.44693 0.15001 0.2353 0.0
C581 C 0.47046 0.14193 0.24925 0.0
C582 C 0.47018 0.13235 0.28067 0.0
C583 C 0.44674 0.12993 0.29731 0.0
H584 H 0.81758 0.55846 0.2292 0.0
H585 H 0.85257 0.51672 0.15069 0.0
H586 H 0.81389 0.51789 0.25904 0.0
H587 H 0.84904 0.47622 0.18076 0.0
H588 H 0.84931 0.44812 0.31529 0.0
H589 H 0.8457 0.4883 0.28469 0.0
H590 H 0.81738 0.44474 0.20353 0.0
H591 H 0.82116 0.40443 0.23398 0.0
C592 C 0.82426 0.54062 0.21814 0.0
C593 C 0.83553 0.54089 0.18759 0.0
C594 C 0.82225 0.5174 0.23536 0.0
C595 C 0.83131 0.4939 0.22234 0.0
C596 C 0.84167 0.49398 0.19133 0.0
C597 C 0.84382 0.51723 0.17417 0.0
C598 C 0.84204 0.4471 0.29104 0.0
C599 C 0.83568 0.42301 0.27706 0.0
C600 C 0.83984 0.47016 0.27356 0.0
C601 C 0.83136 0.46966 0.24165 0.0
C602 C 0.82426 0.44569 0.22795 0.0
C603 C 0.82629 0.42263 0.24549 0.0
H604 H 0.55409 0.79922 0.24923 0.0
H605 H 0.52909 0.87205 0.29074 0.0
H606 H 0.51376 0.79738 0.21772 0.0
H607 H 0.48936 0.87042 0.2586 0.0
H608 H 0.44565 0.87166 0.15947 0.0
H609 H 0.48601 0.86919 0.19036 0.0
H610 H 0.45887 0.79881 0.23563 0.0
H611 H 0.41799 0.80153 0.20539 0.0
C612 C 0.53995 0.8147 0.25177 0.0
C613 C 0.54472 0.83576 0.27248 0.0
C614 C 0.51697 0.81361 0.23379 0.0
C615 C 0.49875 0.83386 0.23572 0.0
C616 C 0.50328 0.85467 0.2567 0.0
C617 C 0.52592 0.85548 0.27518 0.0
C618 C 0.44839 0.85545 0.17565 0.0
C619 C 0.42863 0.83682 0.18008 0.0
C620 C 0.4714 0.85414 0.19339 0.0
C621 C 0.47531 0.83389 0.21532 0.0
C622 C 0.45618 0.81457 0.21877 0.0
C623 C 0.43287 0.81618 0.20153 0.0
H624 H 0.81554 0.52816 0.80865 0.0
H625 H 0.84771 0.56499 0.72506 0.0
H626 H 0.80886 0.48806 0.77874 0.0
H627 H 0.84298 0.52442 0.69548 0.0
H628 H 0.82509 0.45138 0.64339 0.0
H629 H 0.81833 0.49251 0.67101 0.0
H630 H 0.83453 0.45439 0.76102 0.0
H631 H 0.83941 0.41308 0.73336 0.0
C632 C 0.82104 0.52759 0.78372 0.0
C633 C 0.83227 0.54942 0.76907 0.0
C634 C 0.81747 0.50457 0.76663 0.0
C635 C 0.82586 0.50267 0.7348 0.0
C636 C 0.83596 0.52509 0.71979 0.0
C637 C 0.83883 0.54837 0.7367 0.0
C638 C 0.82679 0.45186 0.66916 0.0
C639 C 0.83294 0.42922 0.68632 0.0
C640 C 0.8231 0.47545 0.685 0.0
C641 C 0.82618 0.47702 0.71829 0.0
C642 C 0.83152 0.45402 0.73547 0.0
C643 C 0.83453 0.4303 0.71965 0.0
H644 H 0.5693 0.85069 0.74013 0.0
H645 H 0.53143 0.81174 0.6615 0.0
H646 H 0.52915 0.84862 0.77074 0.0
H647 H 0.49172 0.80766 0.69272 0.0
H648 H 0.45588 0.83726 0.82491 0.0
H649 H 0.49682 0.8273 0.79849 0.0
H650 H 0.45876 0.83558 0.70676 0.0
H651 H 0.41766 0.84367 0.73344 0.0
C652 C 0.55257 0.8408 0.72996 0.0
C653 C 0.55317 0.83161 0.69853 0.0
C654 C 0.52952 0.83948 0.74748 0.0
C655 C 0.50687 0.82838 0.73404 0.0
C656 C 0.50841 0.81715 0.70348 0.0
C657 C 0.53121 0.81917 0.6857 0.0
C658 C 0.45634 0.83661 0.79908 0.0
C659 C 0.43376 0.84141 0.78112 0.0
C660 C 0.47981 0.83103 0.78391 0.0
C661 C 0.48133 0.83082 0.75041 0.0
C662 C 0.45841 0.835 0.73256 0.0
C663 C 0.43482 0.83991 0.74779 0.0
H664 H 0.1255 0.4628 0.8079 0.0
H665 H 0.16521 0.419 0.73457 0.0
H666 H 0.13409 0.50286 0.77916 0.0
H667 H 0.17428 0.45946 0.70601 0.0
H668 H 0.14068 0.52885 0.64633 0.0
H669 H 0.14576 0.48898 0.67667 0.0
H670 H 0.1668 0.53382 0.76015 0.0
H671 H 0.16114 0.57404 0.72983 0.0
C672 C 0.13639 0.46174 0.78585 0.0
C673 C 0.14431 0.43766 0.77325 0.0
C674 C 0.14159 0.48479 0.76955 0.0
C675 C 0.15483 0.4843 0.74031 0.0
C676 C 0.1638 0.46036 0.72838 0.0
C677 C 0.15861 0.43723 0.74473 0.0
C678 C 0.14676 0.53027 0.67103 0.0
C679 C 0.15001 0.55463 0.68586 0.0
C680 C 0.14994 0.50735 0.68835 0.0
C681 C 0.15645 0.50829 0.72086 0.0
C682 C 0.1614 0.53257 0.7352 0.0
C683 C 0.15825 0.55557 0.71782 0.0
H684 H 0.41696 0.1737 0.71928 0.0
H685 H 0.45929 0.13098 0.64724 0.0
H686 H 0.45731 0.18017 0.74905 0.0
H687 H 0.49931 0.13696 0.6773 0.0
H688 H 0.57088 0.15779 0.73238 0.0
H689 H 0.53259 0.16653 0.69921 0.0
H690 H 0.48267 0.14846 0.77906 0.0
H691 H 0.52051 0.14024 0.81206 0.0
C692 C 0.43488 0.16595 0.70961 0.0
C693 C 0.43484 0.1514 0.68122 0.0
C694 C 0.45796 0.16966 0.72666 0.0
C695 C 0.4814 0.15885 0.71565 0.0
C696 C 0.48162 0.14574 0.68626 0.0
C697 C 0.45859 0.14207 0.6692 0.0
C698 C 0.55171 0.15617 0.74291 0.0
C699 C 0.54867 0.14794 0.77465 0.0
C700 C 0.52984 0.1611 0.72394 0.0
C701 C 0.50466 0.15807 0.73652 0.0
C702 C 0.50178 0.15129 0.76874 0.0
C703 C 0.52352 0.14626 0.78757 0.0
H704 H 0.67041 0.05773 0.75619 0.0
H705 H 0.59852 0.02987 0.79741 0.0
H706 H 0.67297 0.0181 0.72356 0.0
H707 H 0.60087 -0.00919 0.76427 0.0
H708 H 0.59866 0.94671 0.66717 0.0
H709 H 0.6 0.98669 0.69879 0.0
H710 H 0.67483 0.9647 0.73698 0.0
H711 H 0.67335 0.92421 0.70593 0.0
C712 C 0.65529 0.04311 0.75843 0.0
C713 C 0.63428 0.04689 0.77938 0.0
C714 C 0.65679 0.02051 0.73982 0.0
C715 C 0.63699 0.00168 0.74132 0.0
C716 C 0.61624 0.00523 0.76258 0.0
C717 C 0.61503 0.02748 0.78167 0.0
C718 C 0.61559 0.95053 0.68193 0.0
C719 C 0.63587 0.93228 0.68414 0.0
C720 C 0.61624 0.97331 0.70014 0.0
C721 C 0.63743 0.97855 0.72036 0.0
C722 C 0.65831 0.961 0.72149 0.0
C723 C 0.65742 0.9379 0.70379 0.0
H724 H 0.92532 0.67286 0.76164 0.0
H725 H 0.94879 0.59824 0.79963 0.0
H726 H 0.9667 0.67608 0.73284 0.0
H727 H -0.01028 0.60127 0.7701 0.0
H728 H 0.03493 0.60459 0.67144 0.0
H729 H -0.00481 0.60452 0.70339 0.0
H730 H 0.02033 0.67477 0.75088 0.0
H731 H 0.06066 0.67457 0.71954 0.0
C732 C 0.93939 0.65729 0.76405 0.0
C733 C 0.93384 0.63529 0.78286 0.0
C734 C 0.963 0.65918 0.74766 0.0
C735 C 0.98115 0.63884 0.74924 0.0
C736 C 0.9759 0.61713 0.76852 0.0
C737 C 0.95258 0.61549 0.78549 0.0
C738 C 0.03194 0.62015 0.6885 0.0
C739 C 0.05089 0.6396 0.69299 0.0
C740 C 0.00931 0.61997 0.70688 0.0
C741 C 0.00493 0.63955 0.72957 0.0
C742 C 0.02341 0.65948 0.73348 0.0
C743 C 0.04639 0.65933 0.7156 0.0
H744 H 0.35235 0.03178 0.65034 0.0
H745 H 0.32534 0.07508 0.73227 0.0
H746 H 0.34884 -0.00854 0.68063 0.0
H747 H 0.32157 0.03461 0.7624 0.0
H748 H 0.32147 0.92086 0.73547 0.0
H749 H 0.31762 0.9616 0.70602 0.0
H750 H 0.35268 0.003 0.78495 0.0
H751 H 0.35627 0.96236 0.81464 0.0
C752 C 0.34535 0.03269 0.67467 0.0
C753 C 0.3393 0.05671 0.68891 0.0
C754 C 0.3432 0.00953 0.69198 0.0
C755 C 0.33503 0.00986 0.72396 0.0
C756 C 0.32823 0.03377 0.73793 0.0
C757 C 0.33026 0.05694 0.72057 0.0
C758 C 0.3281 0.93868 0.74674 0.0
C759 C 0.33936 0.93829 0.77737 0.0
C760 C 0.32601 0.962 0.72976 0.0
C761 C 0.335 0.98549 0.74306 0.0
C762 C 0.34535 0.98527 0.77414 0.0
C763 C 0.34754 0.96193 0.7911 0.0
H764 H 0.02443 0.35204 0.80642 0.0
H765 H 0.06821 0.32847 0.72337 0.0
H766 H 0.98409 0.34707 0.77646 0.0
H767 H 0.02765 0.32329 0.69346 0.0
H768 H 0.95231 0.35576 0.644 0.0
H769 H -0.0062 0.3533 0.6723 0.0
H770 H 0.95597 0.3142 0.75079 0.0
H771 H 0.91448 0.31684 0.7228 0.0
C772 C 0.02545 0.3455 0.78188 0.0
C773 C 0.04958 0.34078 0.76728 0.0
C774 C 0.00229 0.34251 0.76475 0.0
C775 C 0.00269 0.33483 0.73257 0.0
C776 C 0.02675 0.32947 0.71814 0.0
C777 C 0.04996 0.3323 0.73535 0.0
C778 C 0.95288 0.34634 0.66711 0.0
C779 C 0.92998 0.33675 0.68124 0.0
C780 C 0.9767 0.34482 0.68326 0.0
C781 C 0.9781 0.33376 0.7139 0.0
C782 C 0.95543 0.3232 0.72742 0.0
C783 C 0.93166 0.32462 0.71127 0.0
H784 H 0.30872 0.05974 0.24119 0.0
H785 H 0.34655 0.01648 0.31668 0.0
H786 H 0.3027 0.0194 0.2112 0.0
H787 H 0.34104 0.97652 0.28648 0.0
H788 H 0.3181 0.90511 0.23204 0.0
H789 H 0.31093 0.94439 0.26384 0.0
H790 H 0.33397 -0.0081 0.1836 0.0
H791 H 0.34059 0.95308 0.15185 0.0
C792 C 0.31553 0.04165 0.25152 0.0
C793 C 0.32847 0.04138 0.28108 0.0
C794 C 0.31211 0.01858 0.23434 0.0
C795 C 0.32156 -0.00515 0.24641 0.0
C796 C 0.33328 -0.00557 0.27668 0.0
C797 C 0.33668 0.01743 0.29384 0.0
C798 C 0.32125 0.92397 0.22111 0.0
C799 C 0.33025 0.92597 0.18959 0.0
C800 C 0.31721 0.94642 0.23932 0.0
C801 C 0.32198 0.9712 0.22623 0.0
C802 C 0.32979 0.97314 0.19427 0.0
C803 C 0.33387 0.9508 0.17617 0.0
H804 H 0.95602 0.34402 0.31581 0.0
H805 H 0.91039 0.30966 0.23975 0.0
H806 H -0.00462 0.33754 0.28494 0.0
H807 H 0.95009 0.30277 0.20901 0.0
H808 H 0.01717 0.34205 0.15087 0.0
H809 H 0.9784 0.33474 0.18252 0.0
H810 H 0.02581 0.30636 0.26034 0.0
H811 H 0.06498 0.31409 0.22867 0.0
C812 C 0.95442 0.3347 0.2927 0.0
C813 C 0.93002 0.32779 0.27997 0.0
C814 C 0.97705 0.33072 0.27516 0.0
C815 C 0.97577 0.31977 0.24451 0.0
C816 C 0.95156 0.31152 0.23247 0.0
C817 C 0.92887 0.31545 0.25007 0.0
C818 C 0.01939 0.33395 0.17459 0.0
C819 C 0.04417 0.32906 0.18749 0.0
C820 C -0.0029 0.32949 0.19259 0.0
C821 C -0.0009 0.32007 0.22393 0.0
C822 C 0.02378 0.31387 0.23631 0.0
C823 C 0.04615 0.31824 0.21818 0.0
H824 H 0.66002 0.94311 0.31027 0.0
H825 H 0.62801 0.90704 0.22588 0.0
H826 H 0.66553 0.98389 0.2814 0.0
H827 H 0.63141 0.94819 0.19744 0.0
H828 H 0.64532 0.02266 0.14737 0.0
H829 H 0.65424 0.98129 0.17354 0.0
H830 H 0.6389 0.01715 0.26513 0.0
H831 H 0.63204 0.05876 0.23883 0.0
C832 C 0.65434 0.94399 0.28538 0.0
C833 C 0.64348 0.92219 0.27019 0.0
C834 C 0.6572 0.96739 0.26889 0.0
C835 C 0.6484 0.96967 0.23721 0.0
C836 C 0.63874 0.94727 0.22164 0.0
C837 C 0.63663 0.92365 0.23791 0.0
C838 C 0.64428 0.02162 0.17315 0.0
C839 C 0.63782 0.04369 0.19118 0.0
C840 C 0.6492 -0.00209 0.18818 0.0
C841 C 0.64699 -0.00439 0.2215 0.0
C842 C 0.6413 0.01809 0.23951 0.0
C843 C 0.63711 0.04197 0.22449 0.0
H844 H 0.06407 0.62816 0.22818 0.0
H845 H 0.0257 0.65639 0.31275 0.0
H846 H 0.02363 0.63214 0.19832 0.0
H847 H 0.98563 0.66256 0.28258 0.0
H848 H 0.91202 0.63057 0.23483 0.0
H849 H 0.95282 0.63674 0.26331 0.0
H850 H -0.00887 0.65553 0.17427 0.0
H851 H 0.95058 0.64723 0.14581 0.0
C852 C 0.04709 0.63604 0.24001 0.0
C853 C 0.04772 0.64168 0.27267 0.0
C854 C 0.02387 0.63852 0.22292 0.0
C855 C 0.00105 0.64736 0.23806 0.0
C856 C 0.00246 0.65488 0.2703 0.0
C857 C 0.02546 0.65162 0.28756 0.0
C858 C 0.92917 0.63629 0.22154 0.0
C859 C 0.92839 0.63811 0.18823 0.0
C860 C 0.9526 0.64007 0.23783 0.0
C861 C 0.97555 0.64647 0.22115 0.0
C862 C 0.97416 0.6499 0.18789 0.0
C863 C 0.9509 0.64535 0.17156 0.0
loop_
_geom_bond_atom_site_label_1
_geom_bond_atom_site_label_2
_geom_bond_distance
_geom_bond_site_symmetry_2
_ccdc_geom_bond_type
C0 O1 1.306 . S
C0 O3 1.160 . S
O1 C0 1.306 . S
O1 Cd2 2.228 . S
Cd2 O1 2.228 . S
Cd2 O6 2.273 . S
Cd2 O10 2.277 . S
O3 C0 1.160 . S
O3 Cd4 2.203 . S
Cd4 O3 2.203 . S
Cd4 O6 2.411 . S
Cd4 O7 2.333 . S
Cd4 O8 2.352 . S
Cd4 O12 2.277 . S
Cd4 O13 2.356 . S
C5 O10 1.209 . S
C5 O12 1.226 . S
O6 Cd2 2.273 . S
O6 Cd4 2.411 . S
O6 C9 1.320 . S
O7 Cd4 2.333 . S
O7 C9 1.214 . S
O8 Cd4 2.352 . S
O8 C11 1.258 . S
C9 O6 1.320 . S
C9 O7 1.214 . S
O10 Cd2 2.277 . S
O10 C5 1.209 . S
C11 O8 1.258 . S
C11 O13 1.282 . S
O12 Cd4 2.277 . S
O12 C5 1.226 . S
O13 Cd4 2.356 . S
O13 C11 1.282 . S
C14 O15 1.306 . S
C14 O17 1.160 . S
O15 C14 1.306 . S
O15 Cd16 2.228 . S
Cd16 O15 2.228 . S
Cd16 O20 2.273 . S
Cd16 O24 2.277 . S
O17 C14 1.160 . S
O17 Cd18 2.203 . S
Cd18 O17 2.203 . S
Cd18 O20 2.411 . S
Cd18 O21 2.333 . S
Cd18 O22 2.352 . S
Cd18 O26 2.277 . S
Cd18 O27 2.356 . S
C19 O24 1.209 . S
C19 O26 1.226 . S
O20 Cd16 2.273 . S
O20 Cd18 2.411 . S
O20 C23 1.320 . S
O21 Cd18 2.333 . S
O21 C23 1.214 . S
O22 Cd18 2.352 . S
O22 C25 1.258 . S
C23 O20 1.320 . S
C23 O21 1.214 . S
O24 Cd16 2.277 . S
O24 C19 1.209 . S
C25 O22 1.258 . S
C25 O27 1.282 . S
O26 Cd18 2.277 . S
O26 C19 1.226 . S
O27 Cd18 2.356 . S
O27 C25 1.282 . S
C28 O29 1.306 . S
C28 O31 1.160 . S
O29 C28 1.306 . S
O29 Cd30 2.228 . S
Cd30 O29 2.228 . S
Cd30 O34 2.273 . S
Cd30 O38 2.277 . S
O31 C28 1.160 . S
O31 Cd32 2.203 . S
Cd32 O31 2.203 . S
Cd32 O34 2.411 . S
Cd32 O35 2.333 . S
Cd32 O36 2.352 . S
Cd32 O40 2.277 . S
Cd32 O41 2.356 . S
C33 O38 1.209 . S
C33 O40 1.226 . S
O34 Cd30 2.273 . S
O34 Cd32 2.411 . S
O34 C37 1.320 . S
O35 Cd32 2.333 . S
O35 C37 1.214 . S
O36 Cd32 2.352 . S
O36 C39 1.258 . S
C37 O34 1.320 . S
C37 O35 1.214 . S
O38 Cd30 2.277 . S
O38 C33 1.209 . S
C39 O36 1.258 . S
C39 O41 1.282 . S
O40 Cd32 2.277 . S
O40 C33 1.226 . S
O41 Cd32 2.356 . S
O41 C39 1.282 . S
C42 O43 1.306 . S
C42 O45 1.160 . S
O43 C42 1.306 . S
O43 Cd44 2.228 . S
Cd44 O43 2.228 . S
Cd44 O48 2.273 . S
Cd44 O52 2.277 . S
O45 C42 1.160 . S
O45 Cd46 2.203 . S
Cd46 O45 2.203 . S
Cd46 O48 2.411 . S
Cd46 O49 2.333 . S
Cd46 O50 2.352 . S
Cd46 O54 2.277 . S
Cd46 O55 2.356 . S
C47 O52 1.209 . S
C47 O54 1.226 . S
O48 Cd44 2.273 . S
O48 Cd46 2.411 . S
O48 C51 1.320 . S
O49 Cd46 2.333 . S
O49 C51 1.214 . S
O50 Cd46 2.352 . S
O50 C53 1.258 . S
C51 O48 1.320 . S
C51 O49 1.214 . S
O52 Cd44 2.277 . S
O52 C47 1.209 . S
C53 O50 1.258 . S
C53 O55 1.282 . S
O54 Cd46 2.277 . S
O54 C47 1.226 . S
O55 Cd46 2.356 . S
O55 C53 1.282 . S
C56 O57 1.306 . S
C56 O59 1.160 . S
O57 C56 1.306 . S
O57 Cd58 2.228 . S
Cd58 O57 2.228 . S
Cd58 O62 2.273 . S
Cd58 O66 2.277 . S
O59 C56 1.160 . S
O59 Cd60 2.203 . S
Cd60 O59 2.203 . S
Cd60 O62 2.411 . S
Cd60 O63 2.333 . S
Cd60 O64 2.352 . S
Cd60 O68 2.277 . S
Cd60 O69 2.356 . S
C61 O66 1.209 . S
C61 O68 1.226 . S
O62 Cd58 2.273 . S
O62 Cd60 2.411 . S
O62 C65 1.320 . S
O63 Cd60 2.333 . S
O63 C65 1.214 . S
O64 Cd60 2.352 . S
O64 C67 1.258 . S
C65 O62 1.320 . S
C65 O63 1.214 . S
O66 Cd58 2.277 . S
O66 C61 1.209 . S
C67 O64 1.258 . S
C67 O69 1.282 . S
O68 Cd60 2.277 . S
O68 C61 1.226 . S
O69 Cd60 2.356 . S
O69 C67 1.282 . S
C70 O71 1.306 . S
C70 O73 1.160 . S
O71 C70 1.306 . S
O71 Cd72 2.228 . S
Cd72 O71 2.228 . S
Cd72 O76 2.273 . S
Cd72 O80 2.277 . S
O73 C70 1.160 . S
O73 Cd74 2.203 . S
Cd74 O73 2.203 . S
Cd74 O76 2.411 . S
Cd74 O77 2.333 . S
Cd74 O78 2.352 . S
Cd74 O82 2.277 . S
Cd74 O83 2.356 . S
C75 O80 1.209 . S
C75 O82 1.226 . S
O76 Cd72 2.273 . S
O76 Cd74 2.411 . S
O76 C79 1.320 . S
O77 Cd74 2.333 . S
O77 C79 1.214 . S
O78 Cd74 2.352 . S
O78 C81 1.258 . S
C79 O76 1.320 . S
C79 O77 1.214 . S
O80 Cd72 2.277 . S
O80 C75 1.209 . S
C81 O78 1.258 . S
C81 O83 1.282 . S
O82 Cd74 2.277 . S
O82 C75 1.226 . S
O83 Cd74 2.356 . S
O83 C81 1.282 . S
C84 O85 1.306 . S
C84 O87 1.160 . S
O85 C84 1.306 . S
O85 Cd86 2.228 . S
Cd86 O85 2.228 . S
Cd86 O90 2.273 . S
Cd86 O94 2.277 . S
O87 C84 1.160 . S
O87 Cd88 2.203 . S
Cd88 O87 2.203 . S
Cd88 O90 2.411 . S
Cd88 O91 2.333 . S
Cd88 O92 2.352 . S
Cd88 O96 2.277 . S
Cd88 O97 2.356 . S
C89 O94 1.209 . S
C89 O96 1.226 . S
O90 Cd86 2.273 . S
O90 Cd88 2.411 . S
O90 C93 1.320 . S
O91 Cd88 2.333 . S
O91 C93 1.214 . S
O92 Cd88 2.352 . S
O92 C95 1.258 . S
C93 O90 1.320 . S
C93 O91 1.214 . S
O94 Cd86 2.277 . S
O94 C89 1.209 . S
C95 O92 1.258 . S
C95 O97 1.282 . S
O96 Cd88 2.277 . S
O96 C89 1.226 . S
O97 Cd88 2.356 . S
O97 C95 1.282 . S
C98 O99 1.306 . S
C98 O101 1.160 . S
O99 C98 1.306 . S
O99 Cd100 2.228 . S
Cd100 O99 2.228 . S
Cd100 O104 2.273 . S
Cd100 O108 2.277 . S
O101 C98 1.160 . S
O101 Cd102 2.203 . S
Cd102 O101 2.203 . S
Cd102 O104 2.411 . S
Cd102 O105 2.333 . S
Cd102 O106 2.352 . S
Cd102 O110 2.277 . S
Cd102 O111 2.356 . S
C103 O108 1.209 . S
C103 O110 1.226 . S
O104 Cd100 2.273 . S
O104 Cd102 2.411 . S
O104 C107 1.320 . S
O105 Cd102 2.333 . S
O105 C107 1.214 . S
O106 Cd102 2.352 . S
O106 C109 1.258 . S
C107 O104 1.320 . S
C107 O105 1.214 . S
O108 Cd100 2.277 . S
O108 C103 1.209 . S
C109 O106 1.258 . S
C109 O111 1.282 . S
O110 Cd102 2.277 . S
O110 C103 1.226 . S
O111 Cd102 2.356 . S
O111 C109 1.282 . S
C112 O113 1.306 . S
C112 O115 1.160 . S
O113 C112 1.306 . S
O113 Cd114 2.228 . S
Cd114 O113 2.228 . S
Cd114 O118 2.273 . S
Cd114 O122 2.277 . S
O115 C112 1.160 . S
O115 Cd116 2.203 . S
Cd116 O115 2.203 . S
Cd116 O118 2.411 . S
Cd116 O119 2.333 . S
Cd116 O120 2.352 . S
Cd116 O124 2.277 . S
Cd116 O125 2.356 . S
C117 O122 1.209 . S
C117 O124 1.226 . S
O118 Cd114 2.273 . S
O118 Cd116 2.411 . S
O118 C121 1.320 . S
O119 Cd116 2.333 . S
O119 C121 1.214 . S
O120 Cd116 2.352 . S
O120 C123 1.258 . S
C121 O118 1.320 . S
C121 O119 1.214 . S
O122 Cd114 2.277 . S
O122 C117 1.209 . S
C123 O120 1.258 . S
C123 O125 1.282 . S
O124 Cd116 2.277 . S
O124 C117 1.226 . S
O125 Cd116 2.356 . S
O125 C123 1.282 . S
C126 O127 1.306 . S
C126 O129 1.160 . S
O127 C126 1.306 . S
O127 Cd128 2.228 . S
Cd128 O127 2.228 . S
Cd128 O132 2.273 . S
Cd128 O136 2.277 . S
O129 C126 1.160 . S
O129 Cd130 2.203 . S
Cd130 O129 2.203 . S
Cd130 O132 2.411 . S
Cd130 O133 2.333 . S
Cd130 O134 2.352 . S
Cd130 O138 2.277 . S
Cd130 O139 2.356 . S
C131 O136 1.209 . S
C131 O138 1.226 . S
O132 Cd128 2.273 . S
O132 Cd130 2.411 . S
O132 C135 1.320 . S
O133 Cd130 2.333 . S
O133 C135 1.214 . S
O134 Cd130 2.352 . S
O134 C137 1.258 . S
C135 O132 1.320 . S
C135 O133 1.214 . S
O136 Cd128 2.277 . S
O136 C131 1.209 . S
C137 O134 1.258 . S
C137 O139 1.282 . S
O138 Cd130 2.277 . S
O138 C131 1.226 . S
O139 Cd130 2.356 . S
O139 C137 1.282 . S
C140 O141 1.306 . S
C140 O143 1.160 . S
O141 C140 1.306 . S
O141 Cd142 2.228 . S
Cd142 O141 2.228 . S
Cd142 O146 2.273 . S
Cd142 O150 2.277 . S
O143 C140 1.160 . S
O143 Cd144 2.203 . S
Cd144 O143 2.203 . S
Cd144 O146 2.411 . S
Cd144 O147 2.333 . S
Cd144 O148 2.352 . S
Cd144 O152 2.277 . S
Cd144 O153 2.356 . S
C145 O150 1.209 . S
C145 O152 1.226 . S
O146 Cd142 2.273 . S
O146 Cd144 2.411 . S
O146 C149 1.320 . S
O147 Cd144 2.333 . S
O147 C149 1.214 . S
O148 Cd144 2.352 . S
O148 C151 1.258 . S
C149 O146 1.320 . S
C149 O147 1.214 . S
O150 Cd142 2.277 . S
O150 C145 1.209 . S
C151 O148 1.258 . S
C151 O153 1.282 . S
O152 Cd144 2.277 . S
O152 C145 1.226 . S
O153 Cd144 2.356 . S
O153 C151 1.282 . S
C154 O155 1.306 . S
C154 O157 1.160 . S
O155 C154 1.306 . S
O155 Cd156 2.228 . S
Cd156 O155 2.228 . S
Cd156 O160 2.273 . S
Cd156 O164 2.277 . S
O157 C154 1.160 . S
O157 Cd158 2.203 . S
Cd158 O157 2.203 . S
Cd158 O160 2.411 . S
Cd158 O161 2.333 . S
Cd158 O162 2.352 . S
Cd158 O166 2.277 . S
Cd158 O167 2.356 . S
C159 O164 1.209 . S
C159 O166 1.226 . S
O160 Cd156 2.273 . S
O160 Cd158 2.411 . S
O160 C163 1.320 . S
O161 Cd158 2.333 . S
O161 C163 1.214 . S
O162 Cd158 2.352 . S
O162 C165 1.258 . S
C163 O160 1.320 . S
C163 O161 1.214 . S
O164 Cd156 2.277 . S
O164 C159 1.209 . S
C165 O162 1.258 . S
C165 O167 1.282 . S
O166 Cd158 2.277 . S
O166 C159 1.226 . S
O167 Cd158 2.356 . S
O167 C165 1.282 . S
C168 O169 1.306 . S
C168 O171 1.160 . S
O169 C168 1.306 . S
O169 Cd170 2.228 . S
Cd170 O169 2.228 . S
Cd170 O174 2.273 . S
Cd170 O178 2.277 . S
O171 C168 1.160 . S
O171 Cd172 2.203 . S
Cd172 O171 2.203 . S
Cd172 O174 2.411 . S
Cd172 O175 2.333 . S
Cd172 O176 2.352 . S
Cd172 O180 2.277 . S
Cd172 O181 2.356 . S
C173 O178 1.209 . S
C173 O180 1.226 . S
O174 Cd170 2.273 . S
O174 Cd172 2.411 . S
O174 C177 1.320 . S
O175 Cd172 2.333 . S
O175 C177 1.214 . S
O176 Cd172 2.352 . S
O176 C179 1.258 . S
C177 O174 1.320 . S
C177 O175 1.214 . S
O178 Cd170 2.277 . S
O178 C173 1.209 . S
C179 O176 1.258 . S
C179 O181 1.282 . S
O180 Cd172 2.277 . S
O180 C173 1.226 . S
O181 Cd172 2.356 . S
O181 C179 1.282 . S
C182 O183 1.306 . S
C182 O185 1.160 . S
O183 C182 1.306 . S
O183 Cd184 2.228 . S
Cd184 O183 2.228 . S
Cd184 O188 2.273 . S
Cd184 O192 2.277 . S
O185 C182 1.160 . S
O185 Cd186 2.203 . S
Cd186 O185 2.203 . S
Cd186 O188 2.411 . S
Cd186 O189 2.333 . S
Cd186 O190 2.352 . S
Cd186 O194 2.277 . S
Cd186 O195 2.356 . S
C187 O192 1.209 . S
C187 O194 1.226 . S
O188 Cd184 2.273 . S
O188 Cd186 2.411 . S
O188 C191 1.320 . S
O189 Cd186 2.333 . S
O189 C191 1.214 . S
O190 Cd186 2.352 . S
O190 C193 1.258 . S
C191 O188 1.320 . S
C191 O189 1.214 . S
O192 Cd184 2.277 . S
O192 C187 1.209 . S
C193 O190 1.258 . S
C193 O195 1.282 . S
O194 Cd186 2.277 . S
O194 C187 1.226 . S
O195 Cd186 2.356 . S
O195 C193 1.282 . S
C196 O197 1.306 . S
C196 O199 1.160 . S
O197 C196 1.306 . S
O197 Cd198 2.228 . S
Cd198 O197 2.228 . S
Cd198 O202 2.273 . S
Cd198 O206 2.277 . S
O199 C196 1.160 . S
O199 Cd200 2.203 . S
Cd200 O199 2.203 . S
Cd200 O202 2.411 . S
Cd200 O203 2.333 . S
Cd200 O204 2.352 . S
Cd200 O208 2.277 . S
Cd200 O209 2.356 . S
C201 O206 1.209 . S
C201 O208 1.226 . S
O202 Cd198 2.273 . S
O202 Cd200 2.411 . S
O202 C205 1.320 . S
O203 Cd200 2.333 . S
O203 C205 1.214 . S
O204 Cd200 2.352 . S
O204 C207 1.258 . S
C205 O202 1.320 . S
C205 O203 1.214 . S
O206 Cd198 2.277 . S
O206 C201 1.209 . S
C207 O204 1.258 . S
C207 O209 1.282 . S
O208 Cd200 2.277 . S
O208 C201 1.226 . S
O209 Cd200 2.356 . S
O209 C207 1.282 . S
C210 O211 1.306 . S
C210 O213 1.160 . S
O211 C210 1.306 . S
O211 Cd212 2.228 . S
Cd212 O211 2.228 . S
Cd212 O216 2.273 . S
Cd212 O220 2.277 . S
O213 C210 1.160 . S
O213 Cd214 2.203 . S
Cd214 O213 2.203 . S
Cd214 O216 2.411 . S
Cd214 O217 2.333 . S
Cd214 O218 2.352 . S
Cd214 O222 2.277 . S
Cd214 O223 2.356 . S
C215 O220 1.209 . S
C215 O222 1.226 . S
O216 Cd212 2.273 . S
O216 Cd214 2.411 . S
O216 C219 1.320 . S
O217 Cd214 2.333 . S
O217 C219 1.214 . S
O218 Cd214 2.352 . S
O218 C221 1.258 . S
C219 O216 1.320 . S
C219 O217 1.214 . S
O220 Cd212 2.277 . S
O220 C215 1.209 . S
C221 O218 1.258 . S
C221 O223 1.282 . S
O222 Cd214 2.277 . S
O222 C215 1.226 . S
O223 Cd214 2.356 . S
O223 C221 1.282 . S
H224 C232 0.950 . S
H225 C237 0.950 . S
H226 C234 0.950 . S
H227 C236 0.950 . S
H228 C238 0.950 . S
H229 C240 0.950 . S
H230 C242 0.950 . S
H231 C243 0.950 . S
C232 H224 0.950 . S
C232 C233 1.386 . S
C232 C234 1.391 . S
C233 C232 1.386 . S
C233 C237 1.393 . S
C234 H226 0.950 . S
C234 C232 1.391 . S
C234 C235 1.400 . S
C235 C234 1.400 . S
C235 C236 1.398 . S
C235 C241 1.491 . S
C236 H227 0.950 . S
C236 C235 1.398 . S
C236 C237 1.391 . S
C237 H225 0.950 . S
C237 C233 1.393 . S
C237 C236 1.391 . S
C238 H228 0.950 . S
C238 C239 1.386 . S
C238 C240 1.391 . S
C239 C238 1.386 . S
C239 C243 1.393 . S
C240 H229 0.950 . S
C240 C238 1.391 . S
C240 C241 1.400 . S
C241 C235 1.491 . S
C241 C240 1.400 . S
C241 C242 1.398 . S
C242 H230 0.950 . S
C242 C241 1.398 . S
C242 C243 1.391 . S
C243 H231 0.950 . S
C243 C239 1.393 . S
C243 C242 1.391 . S
H244 C252 0.950 . S
H245 C257 0.950 . S
H246 C254 0.950 . S
H247 C256 0.950 . S
H248 C258 0.950 . S
H249 C260 0.950 . S
H250 C262 0.950 . S
H251 C263 0.950 . S
C252 H244 0.950 . S
C252 C253 1.386 . S
C252 C254 1.391 . S
C253 C252 1.386 . S
C253 C257 1.393 . S
C254 H246 0.950 . S
C254 C252 1.391 . S
C254 C255 1.400 . S
C255 C254 1.400 . S
C255 C256 1.398 . S
C255 C261 1.491 . S
C256 H247 0.950 . S
C256 C255 1.398 . S
C256 C257 1.391 . S
C257 H245 0.950 . S
C257 C253 1.393 . S
C257 C256 1.391 . S
C258 H248 0.950 . S
C258 C259 1.386 . S
C258 C260 1.391 . S
C259 C258 1.386 . S
C259 C263 1.393 . S
C260 H249 0.950 . S
C260 C258 1.391 . S
C260 C261 1.400 . S
C261 C255 1.491 . S
C261 C260 1.400 . S
C261 C262 1.398 . S
C262 H250 0.950 . S
C262 C261 1.398 . S
C262 C263 1.391 . S
C263 H251 0.950 . S
C263 C259 1.393 . S
C263 C262 1.391 . S
H264 C272 0.950 . S
H265 C277 0.950 . S
H266 C274 0.950 . S
H267 C276 0.950 . S
H268 C278 0.950 . S
H269 C280 0.950 . S
H270 C282 0.950 . S
H271 C283 0.950 . S
C272 H264 0.950 . S
C272 C273 1.386 . S
C272 C274 1.391 . S
C273 C272 1.386 . S
C273 C277 1.393 . S
C274 H266 0.950 . S
C274 C272 1.391 . S
C274 C275 1.400 . S
C275 C274 1.400 . S
C275 C276 1.398 . S
C275 C281 1.491 . S
C276 H267 0.950 . S
C276 C275 1.398 . S
C276 C277 1.391 . S
C277 H265 0.950 . S
C277 C273 1.393 . S
C277 C276 1.391 . S
C278 H268 0.950 . S
C278 C279 1.386 . S
C278 C280 1.391 . S
C279 C278 1.386 . S
C279 C283 1.393 . S
C280 H269 0.950 . S
C280 C278 1.391 . S
C280 C281 1.400 . S
C281 C275 1.491 . S
C281 C280 1.400 . S
C281 C282 1.398 . S
C282 H270 0.950 . S
C282 C281 1.398 . S
C282 C283 1.391 . S
C283 H271 0.950 . S
C283 C279 1.393 . S
C283 C282 1.391 . S
H284 C292 0.950 . S
H285 C297 0.950 . S
H286 C294 0.950 . S
H287 C296 0.950 . S
H288 C298 0.950 . S
H289 C300 0.950 . S
H290 C302 0.950 . S
H291 C303 0.950 . S
C292 H284 0.950 . S
C292 C293 1.386 . S
C292 C294 1.391 . S
C293 C292 1.386 . S
C293 C297 1.393 . S
C294 H286 0.950 . S
C294 C292 1.391 . S
C294 C295 1.400 . S
C295 C294 1.400 . S
C295 C296 1.398 . S
C295 C301 1.491 . S
C296 H287 0.950 . S
C296 C295 1.398 . S
C296 C297 1.391 . S
C297 H285 0.950 . S
C297 C293 1.393 . S
C297 C296 1.391 . S
C298 H288 0.950 . S
C298 C299 1.386 . S
C298 C300 1.391 . S
C299 C298 1.386 . S
C299 C303 1.393 . S
C300 H289 0.950 . S
C300 C298 1.391 . S
C300 C301 1.400 . S
C301 C295 1.491 . S
C301 C300 1.400 . S
C301 C302 1.398 . S
C302 H290 0.950 . S
C302 C301 1.398 . S
C302 C303 1.391 . S
C303 H291 0.950 . S
C303 C299 1.393 . S
C303 C302 1.391 . S
H304 C312 0.950 . S
H305 C317 0.950 . S
H306 C314 0.950 . S
H307 C316 0.950 . S
H308 C318 0.950 . S
H309 C320 0.950 . S
H310 C322 0.950 . S
H311 C323 0.950 . S
C312 H304 0.950 . S
C312 C313 1.386 . S
C312 C314 1.391 . S
C313 C312 1.386 . S
C313 C317 1.393 . S
C314 H306 0.950 . S
C314 C312 1.391 . S
C314 C315 1.400 . S
C315 C314 1.400 . S
C315 C316 1.398 . S
C315 C321 1.491 . S
C316 H307 0.950 . S
C316 C315 1.398 . S
C316 C317 1.391 . S
C317 H305 0.950 . S
C317 C313 1.393 . S
C317 C316 1.391 . S
C318 H308 0.950 . S
C318 C319 1.386 . S
C318 C320 1.391 . S
C319 C318 1.386 . S
C319 C323 1.393 . S
C320 H309 0.950 . S
C320 C318 1.391 . S
C320 C321 1.400 . S
C321 C315 1.491 . S
C321 C320 1.400 . S
C321 C322 1.398 . S
C322 H310 0.950 . S
C322 C321 1.398 . S
C322 C323 1.391 . S
C323 H311 0.950 . S
C323 C319 1.393 . S
C323 C322 1.391 . S
H324 C332 0.950 . S
H325 C337 0.950 . S
H326 C334 0.950 . S
H327 C336 0.950 . S
H328 C338 0.950 . S
H329 C340 0.950 . S
H330 C342 0.950 . S
H331 C343 0.950 . S
C332 H324 0.950 . S
C332 C333 1.386 . S
C332 C334 1.391 . S
C333 C332 1.386 . S
C333 C337 1.393 . S
C334 H326 0.950 . S
C334 C332 1.391 . S
C334 C335 1.400 . S
C335 C334 1.400 . S
C335 C336 1.398 . S
C335 C341 1.491 . S
C336 H327 0.950 . S
C336 C335 1.398 . S
C336 C337 1.391 . S
C337 H325 0.950 . S
C337 C333 1.393 . S
C337 C336 1.391 . S
C338 H328 0.950 . S
C338 C339 1.386 . S
C338 C340 1.391 . S
C339 C338 1.386 . S
C339 C343 1.393 . S
C340 H329 0.950 . S
C340 C338 1.391 . S
C340 C341 1.400 . S
C341 C335 1.491 . S
C341 C340 1.400 . S
C341 C342 1.398 . S
C342 H330 0.950 . S
C342 C341 1.398 . S
C342 C343 1.391 . S
C343 H331 0.950 . S
C343 C339 1.393 . S
C343 C342 1.391 . S
H344 C352 0.950 . S
H345 C357 0.950 . S
H346 C354 0.950 . S
H347 C356 0.950 . S
H348 C358 0.950 . S
H349 C360 0.950 . S
H350 C362 0.950 . S
H351 C363 0.950 . S
C352 H344 0.950 . S
C352 C353 1.386 . S
C352 C354 1.391 . S
C353 C352 1.386 . S
C353 C357 1.393 . S
C354 H346 0.950 . S
C354 C352 1.391 . S
C354 C355 1.400 . S
C355 C354 1.400 . S
C355 C356 1.398 . S
C355 C361 1.491 . S
C356 H347 0.950 . S
C356 C355 1.398 . S
C356 C357 1.391 . S
C357 H345 0.950 . S
C357 C353 1.393 . S
C357 C356 1.391 . S
C358 H348 0.950 . S
C358 C359 1.386 . S
C358 C360 1.391 . S
C359 C358 1.386 . S
C359 C363 1.393 . S
C360 H349 0.950 . S
C360 C358 1.391 . S
C360 C361 1.400 . S
C361 C355 1.491 . S
C361 C360 1.400 . S
C361 C362 1.398 . S
C362 H350 0.950 . S
C362 C361 1.398 . S
C362 C363 1.391 . S
C363 H351 0.950 . S
C363 C359 1.393 . S
C363 C362 1.391 . S
H364 C372 0.950 . S
H365 C377 0.950 . S
H366 C374 0.950 . S
H367 C376 0.950 . S
H368 C378 0.950 . S
H369 C380 0.950 . S
H370 C382 0.950 . S
H371 C383 0.950 . S
C372 H364 0.950 . S
C372 C373 1.386 . S
C372 C374 1.391 . S
C373 C372 1.386 . S
C373 C377 1.393 . S
C374 H366 0.950 . S
C374 C372 1.391 . S
C374 C375 1.400 . S
C375 C374 1.400 . S
C375 C376 1.398 . S
C375 C381 1.491 . S
C376 H367 0.950 . S
C376 C375 1.398 . S
C376 C377 1.391 . S
C377 H365 0.950 . S
C377 C373 1.393 . S
C377 C376 1.391 . S
C378 H368 0.950 . S
C378 C379 1.386 . S
C378 C380 1.391 . S
C379 C378 1.386 . S
C379 C383 1.393 . S
C380 H369 0.950 . S
C380 C378 1.391 . S
C380 C381 1.400 . S
C381 C375 1.491 . S
C381 C380 1.400 . S
C381 C382 1.398 . S
C382 H370 0.950 . S
C382 C381 1.398 . S
C382 C383 1.391 . S
C383 H371 0.950 . S
C383 C379 1.393 . S
C383 C382 1.391 . S
H384 C392 0.950 . S
H385 C397 0.950 . S
H386 C394 0.950 . S
H387 C396 0.950 . S
H388 C398 0.950 . S
H389 C400 0.950 . S
H390 C402 0.950 . S
H391 C403 0.950 . S
C392 H384 0.950 . S
C392 C393 1.386 . S
C392 C394 1.391 . S
C393 C392 1.386 . S
C393 C397 1.393 . S
C394 H386 0.950 . S
C394 C392 1.391 . S
C394 C395 1.400 . S
C395 C394 1.400 . S
C395 C396 1.398 . S
C395 C401 1.491 1_556 S
C396 H387 0.950 . S
C396 C395 1.398 . S
C396 C397 1.391 . S
C397 H385 0.950 . S
C397 C393 1.393 . S
C397 C396 1.391 . S
C398 H388 0.950 . S
C398 C399 1.386 . S
C398 C400 1.391 . S
C399 C398 1.386 . S
C399 C403 1.393 . S
C400 H389 0.950 . S
C400 C398 1.391 . S
C400 C401 1.400 . S
C401 C395 1.491 1_554 S
C401 C400 1.400 . S
C401 C402 1.398 . S
C402 H390 0.950 . S
C402 C401 1.398 . S
C402 C403 1.391 . S
C403 H391 0.950 . S
C403 C399 1.393 . S
C403 C402 1.391 . S
H404 C412 0.950 . S
H405 C417 0.950 . S
H406 C414 0.950 . S
H407 C416 0.950 . S
H408 C418 0.950 . S
H409 C420 0.950 . S
H410 C422 0.950 . S
H411 C423 0.950 . S
C412 H404 0.950 . S
C412 C413 1.386 . S
C412 C414 1.391 . S
C413 C412 1.386 . S
C413 C417 1.393 . S
C414 H406 0.950 . S
C414 C412 1.391 . S
C414 C415 1.400 . S
C415 C414 1.400 . S
C415 C416 1.398 . S
C415 C421 1.491 1_556 S
C416 H407 0.950 . S
C416 C415 1.398 . S
C416 C417 1.391 . S
C417 H405 0.950 . S
C417 C413 1.393 . S
C417 C416 1.391 . S
C418 H408 0.950 . S
C418 C419 1.386 . S
C418 C420 1.391 . S
C419 C418 1.386 . S
C419 C423 1.393 . S
C420 H409 0.950 . S
C420 C418 1.391 . S
C420 C421 1.400 . S
C421 C415 1.491 1_554 S
C421 C420 1.400 . S
C421 C422 1.398 . S
C422 H410 0.950 . S
C422 C421 1.398 . S
C422 C423 1.391 . S
C423 H411 0.950 . S
C423 C419 1.393 . S
C423 C422 1.391 . S
H424 C432 0.950 . S
H425 C437 0.950 . S
H426 C434 0.950 . S
H427 C436 0.950 . S
H428 C438 0.950 . S
H429 C440 0.950 . S
H430 C442 0.950 . S
H431 C443 0.950 . S
C432 H424 0.950 . S
C432 C433 1.386 . S
C432 C434 1.391 . S
C433 C432 1.386 . S
C433 C437 1.393 . S
C434 H426 0.950 . S
C434 C432 1.391 . S
C434 C435 1.400 . S
C435 C434 1.400 . S
C435 C436 1.398 . S
C435 C441 1.491 1_556 S
C436 H427 0.950 . S
C436 C435 1.398 . S
C436 C437 1.391 . S
C437 H425 0.950 . S
C437 C433 1.393 . S
C437 C436 1.391 . S
C438 H428 0.950 . S
C438 C439 1.386 . S
C438 C440 1.391 . S
C439 C438 1.386 . S
C439 C443 1.393 . S
C440 H429 0.950 . S
C440 C438 1.391 . S
C440 C441 1.400 . S
C441 C435 1.491 1_554 S
C441 C440 1.400 . S
C441 C442 1.398 . S
C442 H430 0.950 . S
C442 C441 1.398 . S
C442 C443 1.391 . S
C443 H431 0.950 . S
C443 C439 1.393 . S
C443 C442 1.391 . S
H444 C452 0.950 . S
H445 C457 0.950 . S
H446 C454 0.950 . S
H447 C456 0.950 . S
H448 C458 0.950 . S
H449 C460 0.950 . S
H450 C462 0.950 . S
H451 C463 0.950 . S
C452 H444 0.950 . S
C452 C453 1.386 . S
C452 C454 1.391 . S
C453 C452 1.386 . S
C453 C457 1.393 . S
C454 H446 0.950 . S
C454 C452 1.391 . S
C454 C455 1.400 . S
C455 C454 1.400 . S
C455 C456 1.398 . S
C455 C461 1.491 1_554 S
C456 H447 0.950 . S
C456 C455 1.398 . S
C456 C457 1.391 . S
C457 H445 0.950 . S
C457 C453 1.393 . S
C457 C456 1.391 . S
C458 H448 0.950 . S
C458 C459 1.386 . S
C458 C460 1.391 . S
C459 C458 1.386 . S
C459 C463 1.393 . S
C460 H449 0.950 . S
C460 C458 1.391 . S
C460 C461 1.400 . S
C461 C455 1.491 1_556 S
C461 C460 1.400 . S
C461 C462 1.398 . S
C462 H450 0.950 . S
C462 C461 1.398 . S
C462 C463 1.391 . S
C463 H451 0.950 . S
C463 C459 1.393 . S
C463 C462 1.391 . S
H464 C472 0.950 . S
H465 C477 0.950 . S
H466 C474 0.950 . S
H467 C476 0.950 . S
H468 C478 0.950 . S
H469 C480 0.950 . S
H470 C482 0.950 . S
H471 C483 0.950 . S
C472 H464 0.950 . S
C472 C473 1.386 . S
C472 C474 1.391 . S
C473 C472 1.386 . S
C473 C477 1.393 . S
C474 H466 0.950 . S
C474 C472 1.391 . S
C474 C475 1.400 . S
C475 C474 1.400 . S
C475 C476 1.398 . S
C475 C481 1.491 . S
C476 H467 0.950 . S
C476 C475 1.398 . S
C476 C477 1.391 . S
C477 H465 0.950 . S
C477 C473 1.393 . S
C477 C476 1.391 . S
C478 H468 0.950 . S
C478 C479 1.386 . S
C478 C480 1.391 . S
C479 C478 1.386 . S
C479 C483 1.393 . S
C480 H469 0.950 . S
C480 C478 1.391 . S
C480 C481 1.400 . S
C481 C475 1.491 . S
C481 C480 1.400 . S
C481 C482 1.398 . S
C482 H470 0.950 . S
C482 C481 1.398 . S
C482 C483 1.391 . S
C483 H471 0.950 . S
C483 C479 1.393 . S
C483 C482 1.391 . S
H484 C492 0.950 . S
H485 C497 0.950 . S
H486 C494 0.950 . S
H487 C496 0.950 . S
H488 C498 0.950 . S
H489 C500 0.950 . S
H490 C502 0.950 . S
H491 C503 0.950 . S
C492 H484 0.950 . S
C492 C493 1.386 . S
C492 C494 1.391 . S
C493 C492 1.386 . S
C493 C497 1.393 . S
C494 H486 0.950 . S
C494 C492 1.391 . S
C494 C495 1.400 . S
C495 C494 1.400 . S
C495 C496 1.398 . S
C495 C501 1.491 . S
C496 H487 0.950 . S
C496 C495 1.398 . S
C496 C497 1.391 . S
C497 H485 0.950 . S
C497 C493 1.393 . S
C497 C496 1.391 . S
C498 H488 0.950 . S
C498 C499 1.386 . S
C498 C500 1.391 . S
C499 C498 1.386 . S
C499 C503 1.393 . S
C500 H489 0.950 . S
C500 C498 1.391 . S
C500 C501 1.400 . S
C501 C495 1.491 . S
C501 C500 1.400 . S
C501 C502 1.398 . S
C502 H490 0.950 . S
C502 C501 1.398 . S
C502 C503 1.391 . S
C503 H491 0.950 . S
C503 C499 1.393 . S
C503 C502 1.391 . S
H504 C512 0.950 . S
H505 C517 0.950 . S
H506 C514 0.950 . S
H507 C516 0.950 . S
H508 C518 0.950 . S
H509 C520 0.950 . S
H510 C522 0.950 . S
H511 C523 0.950 . S
C512 H504 0.950 . S
C512 C513 1.386 . S
C512 C514 1.391 . S
C513 C512 1.386 . S
C513 C517 1.393 . S
C514 H506 0.950 . S
C514 C512 1.391 . S
C514 C515 1.400 . S
C515 C514 1.400 . S
C515 C516 1.398 . S
C515 C521 1.491 . S
C516 H507 0.950 . S
C516 C515 1.398 . S
C516 C517 1.391 . S
C517 H505 0.950 . S
C517 C513 1.393 . S
C517 C516 1.391 . S
C518 H508 0.950 . S
C518 C519 1.386 . S
C518 C520 1.391 . S
C519 C518 1.386 . S
C519 C523 1.393 . S
C520 H509 0.950 . S
C520 C518 1.391 . S
C520 C521 1.400 . S
C521 C515 1.491 . S
C521 C520 1.400 . S
C521 C522 1.398 . S
C522 H510 0.950 . S
C522 C521 1.398 . S
C522 C523 1.391 . S
C523 H511 0.950 . S
C523 C519 1.393 . S
C523 C522 1.391 . S
H524 C532 0.950 . S
H525 C537 0.950 . S
H526 C534 0.950 . S
H527 C536 0.950 . S
H528 C538 0.950 . S
H529 C540 0.950 . S
H530 C542 0.950 . S
H531 C543 0.950 . S
C532 H524 0.950 . S
C532 C533 1.386 . S
C532 C534 1.391 . S
C533 C532 1.386 . S
C533 C537 1.393 . S
C534 H526 0.950 . S
C534 C532 1.391 . S
C534 C535 1.400 . S
C535 C534 1.400 . S
C535 C536 1.398 . S
C535 C541 1.491 . S
C536 H527 0.950 . S
C536 C535 1.398 . S
C536 C537 1.391 . S
C537 H525 0.950 . S
C537 C533 1.393 . S
C537 C536 1.391 . S
C538 H528 0.950 . S
C538 C539 1.386 . S
C538 C540 1.391 . S
C539 C538 1.386 . S
C539 C543 1.393 . S
C540 H529 0.950 . S
C540 C538 1.391 . S
C540 C541 1.400 . S
C541 C535 1.491 . S
C541 C540 1.400 . S
C541 C542 1.398 . S
C542 H530 0.950 . S
C542 C541 1.398 . S
C542 C543 1.391 . S
C543 H531 0.950 . S
C543 C539 1.393 . S
C543 C542 1.391 . S
H544 C552 0.950 . S
H545 C557 0.950 . S
H546 C554 0.950 . S
H547 C556 0.950 . S
H548 C558 0.950 . S
H549 C560 0.950 . S
H550 C562 0.950 . S
H551 C563 0.950 . S
C552 H544 0.950 . S
C552 C553 1.386 . S
C552 C554 1.391 . S
C553 C552 1.386 . S
C553 C557 1.393 . S
C554 H546 0.950 . S
C554 C552 1.391 . S
C554 C555 1.400 . S
C555 C554 1.400 . S
C555 C556 1.398 . S
C555 C561 1.491 . S
C556 H547 0.950 . S
C556 C555 1.398 . S
C556 C557 1.391 . S
C557 H545 0.950 . S
C557 C553 1.393 . S
C557 C556 1.391 . S
C558 H548 0.950 . S
C558 C559 1.386 . S
C558 C560 1.391 . S
C559 C558 1.386 . S
C559 C563 1.393 . S
C560 H549 0.950 . S
C560 C558 1.391 . S
C560 C561 1.400 . S
C561 C555 1.491 . S
C561 C560 1.400 . S
C561 C562 1.398 . S
C562 H550 0.950 . S
C562 C561 1.398 . S
C562 C563 1.391 . S
C563 H551 0.950 . S
C563 C559 1.393 . S
C563 C562 1.391 . S
H564 C572 0.950 . S
H565 C577 0.950 . S
H566 C574 0.950 . S
H567 C576 0.950 . S
H568 C578 0.950 . S
H569 C580 0.950 . S
H570 C582 0.950 . S
H571 C583 0.950 . S
C572 H564 0.950 . S
C572 C573 1.386 . S
C572 C574 1.391 . S
C573 C572 1.386 . S
C573 C577 1.393 . S
C574 H566 0.950 . S
C574 C572 1.391 . S
C574 C575 1.400 . S
C575 C574 1.400 . S
C575 C576 1.398 . S
C575 C581 1.491 . S
C576 H567 0.950 . S
C576 C575 1.398 . S
C576 C577 1.391 . S
C577 H565 0.950 . S
C577 C573 1.393 . S
C577 C576 1.391 . S
C578 H568 0.950 . S
C578 C579 1.386 . S
C578 C580 1.391 . S
C579 C578 1.386 . S
C579 C583 1.393 . S
C580 H569 0.950 . S
C580 C578 1.391 . S
C580 C581 1.400 . S
C581 C575 1.491 . S
C581 C580 1.400 . S
C581 C582 1.398 . S
C582 H570 0.950 . S
C582 C581 1.398 . S
C582 C583 1.391 . S
C583 H571 0.950 . S
C583 C579 1.393 . S
C583 C582 1.391 . S
H584 C592 0.950 . S
H585 C597 0.950 . S
H586 C594 0.950 . S
H587 C596 0.950 . S
H588 C598 0.950 . S
H589 C600 0.950 . S
H590 C602 0.950 . S
H591 C603 0.950 . S
C592 H584 0.950 . S
C592 C593 1.386 . S
C592 C594 1.391 . S
C593 C592 1.386 . S
C593 C597 1.393 . S
C594 H586 0.950 . S
C594 C592 1.391 . S
C594 C595 1.400 . S
C595 C594 1.400 . S
C595 C596 1.398 . S
C595 C601 1.491 . S
C596 H587 0.950 . S
C596 C595 1.398 . S
C596 C597 1.391 . S
C597 H585 0.950 . S
C597 C593 1.393 . S
C597 C596 1.391 . S
C598 H588 0.950 . S
C598 C599 1.386 . S
C598 C600 1.391 . S
C599 C598 1.386 . S
C599 C603 1.393 . S
C600 H589 0.950 . S
C600 C598 1.391 . S
C600 C601 1.400 . S
C601 C595 1.491 . S
C601 C600 1.400 . S
C601 C602 1.398 . S
C602 H590 0.950 . S
C602 C601 1.398 . S
C602 C603 1.391 . S
C603 H591 0.950 . S
C603 C599 1.393 . S
C603 C602 1.391 . S
H604 C612 0.950 . S
H605 C617 0.950 . S
H606 C614 0.950 . S
H607 C616 0.950 . S
H608 C618 0.950 . S
H609 C620 0.950 . S
H610 C622 0.950 . S
H611 C623 0.950 . S
C612 H604 0.950 . S
C612 C613 1.386 . S
C612 C614 1.391 . S
C613 C612 1.386 . S
C613 C617 1.393 . S
C614 H606 0.950 . S
C614 C612 1.391 . S
C614 C615 1.400 . S
C615 C614 1.400 . S
C615 C616 1.398 . S
C615 C621 1.491 . S
C616 H607 0.950 . S
C616 C615 1.398 . S
C616 C617 1.391 . S
C617 H605 0.950 . S
C617 C613 1.393 . S
C617 C616 1.391 . S
C618 H608 0.950 . S
C618 C619 1.386 . S
C618 C620 1.391 . S
C619 C618 1.386 . S
C619 C623 1.393 . S
C620 H609 0.950 . S
C620 C618 1.391 . S
C620 C621 1.400 . S
C621 C615 1.491 . S
C621 C620 1.400 . S
C621 C622 1.398 . S
C622 H610 0.950 . S
C622 C621 1.398 . S
C622 C623 1.391 . S
C623 H611 0.950 . S
C623 C619 1.393 . S
C623 C622 1.391 . S
H624 C632 0.950 . S
H625 C637 0.950 . S
H626 C634 0.950 . S
H627 C636 0.950 . S
H628 C638 0.950 . S
H629 C640 0.950 . S
H630 C642 0.950 . S
H631 C643 0.950 . S
C632 H624 0.950 . S
C632 C633 1.386 . S
C632 C634 1.391 . S
C633 C632 1.386 . S
C633 C637 1.393 . S
C634 H626 0.950 . S
C634 C632 1.391 . S
C634 C635 1.400 . S
C635 C634 1.400 . S
C635 C636 1.398 . S
C635 C641 1.491 . S
C636 H627 0.950 . S
C636 C635 1.398 . S
C636 C637 1.391 . S
C637 H625 0.950 . S
C637 C633 1.393 . S
C637 C636 1.391 . S
C638 H628 0.950 . S
C638 C639 1.386 . S
C638 C640 1.391 . S
C639 C638 1.386 . S
C639 C643 1.393 . S
C640 H629 0.950 . S
C640 C638 1.391 . S
C640 C641 1.400 . S
C641 C635 1.491 . S
C641 C640 1.400 . S
C641 C642 1.398 . S
C642 H630 0.950 . S
C642 C641 1.398 . S
C642 C643 1.391 . S
C643 H631 0.950 . S
C643 C639 1.393 . S
C643 C642 1.391 . S
H644 C652 0.950 . S
H645 C657 0.950 . S
H646 C654 0.950 . S
H647 C656 0.950 . S
H648 C658 0.950 . S
H649 C660 0.950 . S
H650 C662 0.950 . S
H651 C663 0.950 . S
C652 H644 0.950 . S
C652 C653 1.386 . S
C652 C654 1.391 . S
C653 C652 1.386 . S
C653 C657 1.393 . S
C654 H646 0.950 . S
C654 C652 1.391 . S
C654 C655 1.400 . S
C655 C654 1.400 . S
C655 C656 1.398 . S
C655 C661 1.491 . S
C656 H647 0.950 . S
C656 C655 1.398 . S
C656 C657 1.391 . S
C657 H645 0.950 . S
C657 C653 1.393 . S
C657 C656 1.391 . S
C658 H648 0.950 . S
C658 C659 1.386 . S
C658 C660 1.391 . S
C659 C658 1.386 . S
C659 C663 1.393 . S
C660 H649 0.950 . S
C660 C658 1.391 . S
C660 C661 1.400 . S
C661 C655 1.491 . S
C661 C660 1.400 . S
C661 C662 1.398 . S
C662 H650 0.950 . S
C662 C661 1.398 . S
C662 C663 1.391 . S
C663 H651 0.950 . S
C663 C659 1.393 . S
C663 C662 1.391 . S
H664 C672 0.950 . S
H665 C677 0.950 . S
H666 C674 0.950 . S
H667 C676 0.950 . S
H668 C678 0.950 . S
H669 C680 0.950 . S
H670 C682 0.950 . S
H671 C683 0.950 . S
C672 H664 0.950 . S
C672 C673 1.386 . S
C672 C674 1.391 . S
C673 C672 1.386 . S
C673 C677 1.393 . S
C674 H666 0.950 . S
C674 C672 1.391 . S
C674 C675 1.400 . S
C675 C674 1.400 . S
C675 C676 1.398 . S
C675 C681 1.491 . S
C676 H667 0.950 . S
C676 C675 1.398 . S
C676 C677 1.391 . S
C677 H665 0.950 . S
C677 C673 1.393 . S
C677 C676 1.391 . S
C678 H668 0.950 . S
C678 C679 1.386 . S
C678 C680 1.391 . S
C679 C678 1.386 . S
C679 C683 1.393 . S
C680 H669 0.950 . S
C680 C678 1.391 . S
C680 C681 1.400 . S
C681 C675 1.491 . S
C681 C680 1.400 . S
C681 C682 1.398 . S
C682 H670 0.950 . S
C682 C681 1.398 . S
C682 C683 1.391 . S
C683 H671 0.950 . S
C683 C679 1.393 . S
C683 C682 1.391 . S
H684 C692 0.950 . S
H685 C697 0.950 . S
H686 C694 0.950 . S
H687 C696 0.950 . S
H688 C698 0.950 . S
H689 C700 0.950 . S
H690 C702 0.950 . S
H691 C703 0.950 . S
C692 H684 0.950 . S
C692 C693 1.386 . S
C692 C694 1.391 . S
C693 C692 1.386 . S
C693 C697 1.393 . S
C694 H686 0.950 . S
C694 C692 1.391 . S
C694 C695 1.400 . S
C695 C694 1.400 . S
C695 C696 1.398 . S
C695 C701 1.491 . S
C696 H687 0.950 . S
C696 C695 1.398 . S
C696 C697 1.391 . S
C697 H685 0.950 . S
C697 C693 1.393 . S
C697 C696 1.391 . S
C698 H688 0.950 . S
C698 C699 1.386 . S
C698 C700 1.391 . S
C699 C698 1.386 . S
C699 C703 1.393 . S
C700 H689 0.950 . S
C700 C698 1.391 . S
C700 C701 1.400 . S
C701 C695 1.491 . S
C701 C700 1.400 . S
C701 C702 1.398 . S
C702 H690 0.950 . S
C702 C701 1.398 . S
C702 C703 1.391 . S
C703 H691 0.950 . S
C703 C699 1.393 . S
C703 C702 1.391 . S
H704 C712 0.950 . S
H705 C717 0.950 . S
H706 C714 0.950 . S
H707 C716 0.950 . S
H708 C718 0.950 . S
H709 C720 0.950 . S
H710 C722 0.950 . S
H711 C723 0.950 . S
C712 H704 0.950 . S
C712 C713 1.386 . S
C712 C714 1.391 . S
C713 C712 1.386 . S
C713 C717 1.393 . S
C714 H706 0.950 . S
C714 C712 1.391 . S
C714 C715 1.400 . S
C715 C714 1.400 . S
C715 C716 1.398 . S
C715 C721 1.491 1_545 S
C716 H707 0.950 . S
C716 C715 1.398 . S
C716 C717 1.391 . S
C717 H705 0.950 . S
C717 C713 1.393 . S
C717 C716 1.391 . S
C718 H708 0.950 . S
C718 C719 1.386 . S
C718 C720 1.391 . S
C719 C718 1.386 . S
C719 C723 1.393 . S
C720 H709 0.950 . S
C720 C718 1.391 . S
C720 C721 1.400 . S
C721 C715 1.491 1_565 S
C721 C720 1.400 . S
C721 C722 1.398 . S
C722 H710 0.950 . S
C722 C721 1.398 . S
C722 C723 1.391 . S
C723 H711 0.950 . S
C723 C719 1.393 . S
C723 C722 1.391 . S
H724 C732 0.950 . S
H725 C737 0.950 . S
H726 C734 0.950 . S
H727 C736 0.950 . S
H728 C738 0.950 . S
H729 C740 0.950 . S
H730 C742 0.950 . S
H731 C743 0.950 . S
C732 H724 0.950 . S
C732 C733 1.386 . S
C732 C734 1.391 . S
C733 C732 1.386 . S
C733 C737 1.393 . S
C734 H726 0.950 . S
C734 C732 1.391 . S
C734 C735 1.400 . S
C735 C734 1.400 . S
C735 C736 1.398 . S
C735 C741 1.491 1_655 S
C736 H727 0.950 . S
C736 C735 1.398 . S
C736 C737 1.391 . S
C737 H725 0.950 . S
C737 C733 1.393 . S
C737 C736 1.391 . S
C738 H728 0.950 . S
C738 C739 1.386 . S
C738 C740 1.391 . S
C739 C738 1.386 . S
C739 C743 1.393 . S
C740 H729 0.950 . S
C740 C738 1.391 . S
C740 C741 1.400 . S
C741 C735 1.491 1_455 S
C741 C740 1.400 . S
C741 C742 1.398 . S
C742 H730 0.950 . S
C742 C741 1.398 . S
C742 C743 1.391 . S
C743 H731 0.950 . S
C743 C739 1.393 . S
C743 C742 1.391 . S
H744 C752 0.950 . S
H745 C757 0.950 . S
H746 C754 0.950 . S
H747 C756 0.950 . S
H748 C758 0.950 . S
H749 C760 0.950 . S
H750 C762 0.950 . S
H751 C763 0.950 . S
C752 H744 0.950 . S
C752 C753 1.386 . S
C752 C754 1.391 . S
C753 C752 1.386 . S
C753 C757 1.393 . S
C754 H746 0.950 . S
C754 C752 1.391 . S
C754 C755 1.400 . S
C755 C754 1.400 . S
C755 C756 1.398 . S
C755 C761 1.491 1_545 S
C756 H747 0.950 . S
C756 C755 1.398 . S
C756 C757 1.391 . S
C757 H745 0.950 . S
C757 C753 1.393 . S
C757 C756 1.391 . S
C758 H748 0.950 . S
C758 C759 1.386 . S
C758 C760 1.391 . S
C759 C758 1.386 . S
C759 C763 1.393 . S
C760 H749 0.950 . S
C760 C758 1.391 . S
C760 C761 1.400 . S
C761 C755 1.491 1_565 S
C761 C760 1.400 . S
C761 C762 1.398 . S
C762 H750 0.950 . S
C762 C761 1.398 . S
C762 C763 1.391 . S
C763 H751 0.950 . S
C763 C759 1.393 . S
C763 C762 1.391 . S
H764 C772 0.950 . S
H765 C777 0.950 . S
H766 C774 0.950 . S
H767 C776 0.950 . S
H768 C778 0.950 . S
H769 C780 0.950 . S
H770 C782 0.950 . S
H771 C783 0.950 . S
C772 H764 0.950 . S
C772 C773 1.386 . S
C772 C774 1.391 . S
C773 C772 1.386 . S
C773 C777 1.393 . S
C774 H766 0.950 . S
C774 C772 1.391 . S
C774 C775 1.400 . S
C775 C774 1.400 . S
C775 C776 1.398 . S
C775 C781 1.491 1_455 S
C776 H767 0.950 . S
C776 C775 1.398 . S
C776 C777 1.391 . S
C777 H765 0.950 . S
C777 C773 1.393 . S
C777 C776 1.391 . S
C778 H768 0.950 . S
C778 C779 1.386 . S
C778 C780 1.391 . S
C779 C778 1.386 . S
C779 C783 1.393 . S
C780 H769 0.950 . S
C780 C778 1.391 . S
C780 C781 1.400 . S
C781 C775 1.491 1_655 S
C781 C780 1.400 . S
C781 C782 1.398 . S
C782 H770 0.950 . S
C782 C781 1.398 . S
C782 C783 1.391 . S
C783 H771 0.950 . S
C783 C779 1.393 . S
C783 C782 1.391 . S
H784 C792 0.950 . S
H785 C797 0.950 . S
H786 C794 0.950 . S
H787 C796 0.950 . S
H788 C798 0.950 . S
H789 C800 0.950 . S
H790 C802 0.950 . S
H791 C803 0.950 . S
C792 H784 0.950 . S
C792 C793 1.386 . S
C792 C794 1.391 . S
C793 C792 1.386 . S
C793 C797 1.393 . S
C794 H786 0.950 . S
C794 C792 1.391 . S
C794 C795 1.400 . S
C795 C794 1.400 . S
C795 C796 1.398 . S
C795 C801 1.491 1_545 S
C796 H787 0.950 . S
C796 C795 1.398 . S
C796 C797 1.391 . S
C797 H785 0.950 . S
C797 C793 1.393 . S
C797 C796 1.391 . S
C798 H788 0.950 . S
C798 C799 1.386 . S
C798 C800 1.391 . S
C799 C798 1.386 . S
C799 C803 1.393 . S
C800 H789 0.950 . S
C800 C798 1.391 . S
C800 C801 1.400 . S
C801 C795 1.491 1_565 S
C801 C800 1.400 . S
C801 C802 1.398 . S
C802 H790 0.950 . S
C802 C801 1.398 . S
C802 C803 1.391 . S
C803 H791 0.950 . S
C803 C799 1.393 . S
C803 C802 1.391 . S
H804 C812 0.950 . S
H805 C817 0.950 . S
H806 C814 0.950 . S
H807 C816 0.950 . S
H808 C818 0.950 . S
H809 C820 0.950 . S
H810 C822 0.950 . S
H811 C823 0.950 . S
C812 H804 0.950 . S
C812 C813 1.386 . S
C812 C814 1.391 . S
C813 C812 1.386 . S
C813 C817 1.393 . S
C814 H806 0.950 . S
C814 C812 1.391 . S
C814 C815 1.400 . S
C815 C814 1.400 . S
C815 C816 1.398 . S
C815 C821 1.491 1_655 S
C816 H807 0.950 . S
C816 C815 1.398 . S
C816 C817 1.391 . S
C817 H805 0.950 . S
C817 C813 1.393 . S
C817 C816 1.391 . S
C818 H808 0.950 . S
C818 C819 1.386 . S
C818 C820 1.391 . S
C819 C818 1.386 . S
C819 C823 1.393 . S
C820 H809 0.950 . S
C820 C818 1.391 . S
C820 C821 1.400 . S
C821 C815 1.491 1_455 S
C821 C820 1.400 . S
C821 C822 1.398 . S
C822 H810 0.950 . S
C822 C821 1.398 . S
C822 C823 1.391 . S
C823 H811 0.950 . S
C823 C819 1.393 . S
C823 C822 1.391 . S
H824 C832 0.950 . S
H825 C837 0.950 . S
H826 C834 0.950 . S
H827 C836 0.950 . S
H828 C838 0.950 . S
H829 C840 0.950 . S
H830 C842 0.950 . S
H831 C843 0.950 . S
C832 H824 0.950 . S
C832 C833 1.386 . S
C832 C834 1.391 . S
C833 C832 1.386 . S
C833 C837 1.393 . S
C834 H826 0.950 . S
C834 C832 1.391 . S
C834 C835 1.400 . S
C835 C834 1.400 . S
C835 C836 1.398 . S
C835 C841 1.491 1_565 S
C836 H827 0.950 . S
C836 C835 1.398 . S
C836 C837 1.391 . S
C837 H825 0.950 . S
C837 C833 1.393 . S
C837 C836 1.391 . S
C838 H828 0.950 . S
C838 C839 1.386 . S
C838 C840 1.391 . S
C839 C838 1.386 . S
C839 C843 1.393 . S
C840 H829 0.950 . S
C840 C838 1.391 . S
C840 C841 1.400 . S
C841 C835 1.491 1_545 S
C841 C840 1.400 . S
C841 C842 1.398 . S
C842 H830 0.950 . S
C842 C841 1.398 . S
C842 C843 1.391 . S
C843 H831 0.950 . S
C843 C839 1.393 . S
C843 C842 1.391 . S
H844 C852 0.950 . S
H845 C857 0.950 . S
H846 C854 0.950 . S
H847 C856 0.950 . S
H848 C858 0.950 . S
H849 C860 0.950 . S
H850 C862 0.950 . S
H851 C863 0.950 . S
C852 H844 0.950 . S
C852 C853 1.386 . S
C852 C854 1.391 . S
C853 C852 1.386 . S
C853 C857 1.393 . S
C854 H846 0.950 . S
C854 C852 1.391 . S
C854 C855 1.400 . S
C855 C854 1.400 . S
C855 C856 1.398 . S
C855 C861 1.491 1_455 S
C856 H847 0.950 . S
C856 C855 1.398 . S
C856 C857 1.391 . S
C857 H845 0.950 . S
C857 C853 1.393 . S
C857 C856 1.391 . S
C858 H848 0.950 . S
C858 C859 1.386 . S
C858 C860 1.391 . S
C859 C858 1.386 . S
C859 C863 1.393 . S
C860 H849 0.950 . S
C860 C858 1.391 . S
C860 C861 1.400 . S
C861 C855 1.491 1_655 S
C861 C860 1.400 . S
C861 C862 1.398 . S
C862 H850 0.950 . S
C862 C861 1.398 . S
C862 C863 1.391 . S
C863 H851 0.950 . S
C863 C859 1.393 . S
C863 C862 1.391 . S
C233 C81 1.401 . S
C239 C11 1.402 . S
C253 C95 1.407 . S
C259 C25 1.398 . S
C273 C39 1.410 . S
C279 C109 1.400 . S
C293 C53 1.402 . S
C299 C67 1.409 . S
C313 C193 1.404 . S
C319 C123 1.408 . S
C333 C207 1.409 . S
C339 C137 1.397 . S
C353 C151 1.409 . S
C359 C221 1.397 . S
C373 C165 1.410 . S
C379 C179 1.401 . S
C393 C149 1.540 . S
C399 C9 1.539 . S
C413 C163 1.540 . S
C419 C23 1.539 . S
C433 C121 1.540 . S
C439 C37 1.541 . S
C453 C51 1.539 . S
C459 C135 1.541 . S
C473 C205 1.541 . S
C479 C65 1.542 . S
C493 C219 1.539 . S
C499 C79 1.540 . S
C513 C93 1.541 . S
C519 C177 1.542 . S
C533 C191 1.542 . S
C539 C107 1.540 . S
C553 C61 1.932 . S
C559 C5 1.935 . S
C573 C19 1.934 . S
C579 C75 1.932 . S
C593 C33 1.934 . S
C599 C89 1.937 . S
C613 C103 1.937 . S
C619 C47 1.936 . S
C633 C112 0.928 . S
C639 C168 0.903 . S
C653 C182 0.898 . S
C659 C126 0.900 . S
C673 C140 0.929 . S
C679 C196 0.913 . S
C693 C210 0.895 . S
C699 C154 0.905 . S
C713 C159 1.936 . S
C719 C187 1.937 . S
C733 C117 1.937 . S
C739 C201 1.937 . S
C753 C215 1.931 . S
C759 C131 1.932 . S
C773 C145 1.931 . S
C779 C173 1.933 . S
C793 C70 0.908 . S
C799 C42 0.930 . S
C813 C84 0.930 . S
C819 C0 0.912 . S
C833 C98 0.923 . S
C839 C14 0.896 . S
C853 C56 0.894 . S
C859 C28 0.918 . S
