# Generated by pormake.
# Topology vmc, (5)-cn, num edge types: 1
# Building blocks:
#     Node 0, Type 0, BuildingBlock: XOMCOT_clean_sbu_0, # of connection points: 5
#     Node 1, Type 0, BuildingBlock: XOMCOT_clean_sbu_0, # of connection points: 5
#     Node 2, Type 0, BuildingBlock: XOMCOT_clean_sbu_0, # of connection points: 5
#     Node 3, Type 0, BuildingBlock: XOMCOT_clean_sbu_0, # of connection points: 5
#     Node 4, Type 0, BuildingBlock: XOMCOT_clean_sbu_0, # of connection points: 5
#     Node 5, Type 0, BuildingBlock: XOMCOT_clean_sbu_0, # of connection points: 5
#     Node 6, Type 0, BuildingBlock: XOMCOT_clean_sbu_0, # of connection points: 5
#     Node 7, Type 0, BuildingBlock: XOMCOT_clean_sbu_0, # of connection points: 5
#     Edge 8, Type (0, 0), BuildingBlock: CIFDUS_clean_linker_0, # of connection points: 2
#     Edge 9, Type (0, 0), BuildingBlock: CIFDUS_clean_linker_0, # of connection points: 2
#     Edge 10, Type (0, 0), BuildingBlock: CIFDUS_clean_linker_0, # of connection points: 2
#     Edge 11, Type (0, 0), BuildingBlock: CIFDUS_clean_linker_0, # of connection points: 2
#     Edge 12, Type (0, 0), BuildingBlock: CIFDUS_clean_linker_0, # of connection points: 2
#     Edge 13, Type (0, 0), BuildingBlock: CIFDUS_clean_linker_0, # of connection points: 2
#     Edge 14, Type (0, 0), BuildingBlock: CIFDUS_clean_linker_0, # of connection points: 2
#     Edge 15, Type (0, 0), BuildingBlock: CIFDUS_clean_linker_0, # of connection points: 2
#     Edge 16, Type (0, 0), BuildingBlock: CIFDUS_clean_linker_0, # of connection points: 2
#     Edge 17, Type (0, 0), BuildingBlock: CIFDUS_clean_linker_0, # of connection points: 2
#     Edge 18, Type (0, 0), BuildingBlock: CIFDUS_clean_linker_0, # of connection points: 2
#     Edge 19, Type (0, 0), BuildingBlock: CIFDUS_clean_linker_0, # of connection points: 2
#     Edge 20, Type (0, 0), BuildingBlock: CIFDUS_clean_linker_0, # of connection points: 2
#     Edge 21, Type (0, 0), BuildingBlock: CIFDUS_clean_linker_0, # of connection points: 2
#     Edge 22, Type (0, 0), BuildingBlock: CIFDUS_clean_linker_0, # of connection points: 2
#     Edge 23, Type (0, 0), BuildingBlock: CIFDUS_clean_linker_0, # of connection points: 2
#     Edge 24, Type (0, 0), BuildingBlock: CIFDUS_clean_linker_0, # of connection points: 2
#     Edge 25, Type (0, 0), BuildingBlock: CIFDUS_clean_linker_0, # of connection points: 2
#     Edge 26, Type (0, 0), BuildingBlock: CIFDUS_clean_linker_0, # of connection points: 2
#     Edge 27, Type (0, 0), BuildingBlock: CIFDUS_clean_linker_0, # of connection points: 2
# Relax obj value: 0.325
# Max RMSD: 0.195
# Mean RMSD: 0.195
data_MOF--net-vmc--node1-XOMCOT_clean_sbu_0--edge1-CIFDUS_clean_linker_0
_symmetry_space_group_name_H-M    P1
_symmetry_Int_Tables_number       1
_symmetry_cell_setting            triclinic
loop_
_symmetry_equiv_pos_as_xyz
'x, y, z'
_cell_length_a     25.848637
_cell_length_b     42.813111
_cell_length_c     25.530335
_cell_angle_alpha  90.08087
_cell_angle_beta   88.866237
_cell_angle_gamma 89.915639
loop_
_atom_site_label
_atom_site_type_symbol
_atom_site_fract_x
_atom_site_fract_y
_atom_site_fract_z
_atom_type_partial_charge
Co0 Co 0.26094 0.45558 0.06971 0.0
C1 C 0.21466 0.47768 0.97329 0.0
C2 C 0.1861 0.50448 0.0386 0.0
C3 C 0.17033 0.51857 0.99274 0.0
N4 N 0.21407 0.47885 1.0261 0.0
N5 N 0.18911 0.50185 0.9517 0.0
H6 H 0.23685 0.46075 0.95089 0.0
H7 H 0.18118 0.51376 0.07781 0.0
C8 C 0.21598 0.4498 0.1789 0.0
O9 O 0.23726 0.42202 0.18255 0.0
N10 N 0.31009 0.43242 0.11106 0.0
C11 C 0.32869 0.40345 0.10168 0.0
C12 C 0.36808 0.39751 0.13546 0.0
C13 C 0.33935 0.44389 0.14988 0.0
N14 N 0.37481 0.42292 0.16581 0.0
C15 C 0.24408 0.40141 1.0069 0.0
C16 C 0.17887 0.37068 0.07637 0.0
C17 C 0.20421 0.35341 0.0367 0.0
C18 C 0.23392 0.36977 0.99939 0.0
C19 C 0.18932 0.40262 0.08177 0.0
N20 N 0.22594 0.41672 0.05057 0.0
H21 H 0.27075 0.41254 0.97993 0.0
H22 H 0.16944 0.41523 0.11249 0.0
H23 H 0.3165 0.38784 0.07127 0.0
H24 H 0.33479 0.46718 0.16583 0.0
O25 O 0.3133 0.45688 1.01441 0.0
O26 O 0.30353 0.49229 0.07703 0.0
O27 O 0.21556 0.46396 0.13457 0.0
C28 C 0.32981 0.48223 0.0365 0.0
H29 H 0.15063 0.54082 0.98985 0.0
H30 H 0.39131 0.37648 0.13601 0.0
H31 H 0.15369 0.35943 0.10496 0.0
H32 H 0.252 0.35786 0.96634 0.0
Co33 Co 0.68752 0.45961 0.47754 0.0
C34 C 0.73636 0.49255 0.56634 0.0
C35 C 0.75918 0.5125 0.49262 0.0
C36 C 0.77743 0.53112 0.53213 0.0
N37 N 0.73414 0.48783 0.51379 0.0
N38 N 0.76255 0.51885 0.57871 0.0
H39 H 0.71486 0.47891 0.59487 0.0
H40 H 0.76039 0.51834 0.45149 0.0
C41 C 0.77071 0.46766 0.39057 0.0
O42 O 0.80954 0.46448 0.42259 0.0
N43 N 0.63997 0.43196 0.44349 0.0
C44 C 0.62009 0.40555 0.4642 0.0
C45 C 0.58439 0.39371 0.43051 0.0
C46 C 0.61553 0.43623 0.39794 0.0
N47 N 0.58145 0.41301 0.38897 0.0
C48 C 0.72635 0.4126 0.54618 0.0
C49 C 0.75741 0.37218 0.46709 0.0
C50 C 0.75035 0.36026 0.51785 0.0
C51 C 0.737 0.38134 0.55813 0.0
C52 C 0.74553 0.40334 0.45668 0.0
N53 N 0.72841 0.42298 0.49564 0.0
H54 H 0.71093 0.42737 0.57691 0.0
H55 H 0.74459 0.41029 0.4162 0.0
H56 H 0.62965 0.39606 0.50201 0.0
H57 H 0.62184 0.45616 0.3726 0.0
O58 O 0.63928 0.46109 0.53682 0.0
O59 O 0.63972 0.49334 0.46897 0.0
O60 O 0.72408 0.46579 0.40764 0.0
C61 C 0.6174 0.48414 0.5122 0.0
H62 H 0.79735 0.55311 0.52661 0.0
H63 H 0.5608 0.37317 0.43718 0.0
H64 H 0.76865 0.35709 0.43474 0.0
H65 H 0.7305 0.37337 0.59794 0.0
Co66 Co 0.68707 0.57674 0.98198 0.0
C67 C 0.71448 0.53357 0.06775 0.0
C68 C 0.78035 0.54352 1.01846 0.0
C69 C 0.79645 0.5264 0.06115 0.0
N70 N 0.72879 0.54801 1.02263 0.0
N71 N 0.75481 0.52019 0.09211 0.0
H72 H 0.6759 0.53453 0.08467 0.0
H73 H 0.80503 0.55344 0.98812 0.0
C74 C 0.73258 0.58114 0.87154 0.0
O75 O 0.71214 0.609 0.86609 0.0
N76 N 0.64392 0.60588 0.94447 0.0
C77 C 0.6317 0.63517 0.95993 0.0
C78 C 0.59365 0.64659 0.92853 0.0
C79 C 0.61144 0.59946 0.9051 0.0
N80 N 0.58096 0.62415 0.89406 0.0
C81 C 0.72193 0.6192 0.05855 0.0
C82 C 0.76282 0.66245 0.98929 0.0
C83 C 0.74701 0.67259 0.03958 0.0
C84 C 0.73084 0.64968 0.07569 0.0
C85 C 0.75479 0.63139 0.97436 0.0
N86 N 0.72915 0.61129 1.00713 0.0
H87 H 0.70434 0.60278 0.08558 0.0
H88 H 0.76555 0.62468 0.93527 0.0
H89 H 0.64713 0.64704 0.99349 0.0
H90 H 0.61018 0.57716 0.88517 0.0
O91 O 0.63359 0.57728 0.03623 0.0
O92 O 0.63729 0.54436 0.96912 0.0
O93 O 0.73194 0.56764 0.91656 0.0
C94 C 0.61212 0.55472 1.01018 0.0
H95 H 0.8359 0.51985 0.06943 0.0
H96 H 0.57514 0.66919 0.93239 0.0
H97 H 0.77728 0.67861 0.95999 0.0
H98 H 0.72136 0.65559 0.11598 0.0
Co99 Co 0.26204 0.5765 0.57434 0.0
C100 C 0.22461 0.53122 0.49525 0.0
C101 C 0.16436 0.56285 0.51884 0.0
C102 C 0.14766 0.54571 0.47658 0.0
N103 N 0.21312 0.55412 0.53032 0.0
N104 N 0.18572 0.5259 0.46184 0.0
H105 H 0.26198 0.52006 0.49132 0.0
H106 H 0.14357 0.58209 0.53678 0.0
C107 C 0.17684 0.56908 0.66065 0.0
O108 O 0.14024 0.58372 0.63554 0.0
N109 N 0.31104 0.59876 0.61626 0.0
C110 C 0.33641 0.62481 0.60134 0.0
C111 C 0.37264 0.63167 0.63807 0.0
C112 C 0.33252 0.58977 0.66146 0.0
N113 N 0.3703 0.60964 0.67583 0.0
C114 C 0.22532 0.62691 0.51268 0.0
C115 C 0.206 0.6671 0.59576 0.0
C116 C 0.20772 0.67918 0.54474 0.0
C117 C 0.21543 0.65842 0.50275 0.0
C118 C 0.21547 0.63535 0.60396 0.0
N119 N 0.2266 0.61589 0.56277 0.0
H120 H 0.23558 0.61168 0.48027 0.0
H121 H 0.21881 0.62714 0.64373 0.0
H122 H 0.33026 0.63727 0.56516 0.0
H123 H 0.32167 0.56876 0.68241 0.0
O124 O 0.31228 0.57813 0.51693 0.0
O125 O 0.30653 0.54069 0.57685 0.0
O126 O 0.22196 0.56584 0.64024 0.0
C127 C 0.332 0.55305 0.5377 0.0
H128 H 0.11132 0.54859 0.45678 0.0
H129 H 0.4003 0.65059 0.63568 0.0
H130 H 0.2 0.68233 0.62925 0.0
H131 H 0.21755 0.66682 0.46277 0.0
Co132 Co 0.76973 0.96407 0.07774 0.0
C133 C 0.72496 1.00862 1.00268 0.0
C134 C 0.66755 0.9762 1.03001 0.0
C135 C 0.64709 0.99357 0.98975 0.0
N136 N 0.71688 0.98529 0.03751 0.0
N137 N 0.68339 1.01394 0.97291 0.0
H138 H 0.76164 0.02017 0.99619 0.0
H139 H 0.64871 0.95688 0.04974 0.0
C140 C 0.69227 0.97159 0.17183 0.0
O141 O 0.65557 0.9534 0.15434 0.0
N142 N 0.82281 0.94308 0.11613 0.0
C143 C 0.85084 0.91861 0.09793 0.0
C144 C 0.89388 0.91536 0.12806 0.0
C145 C 0.84882 0.95435 0.15715 0.0
N146 N 0.89241 0.93789 0.16487 0.0
C147 C 0.73292 0.91242 1.02027 0.0
C148 C 0.72622 0.87221 0.10488 0.0
C149 C 0.72914 0.85967 0.05413 0.0
C150 C 0.72983 0.88028 1.01148 0.0
C151 C 0.72979 0.90454 0.11198 0.0
N152 N 0.73549 0.92404 0.06992 0.0
H153 H 0.73844 0.9278 0.98707 0.0
H154 H 0.7344 0.91337 0.15125 0.0
H155 H 0.84238 0.90543 0.06296 0.0
H156 H 0.83833 0.9755 0.17813 0.0
O157 O 0.81596 0.96227 1.01687 0.0
O158 O 0.81279 1.00038 0.07587 0.0
O159 O 0.73422 0.97572 0.14571 0.0
C160 C 0.83656 0.98755 0.03599 0.0
H161 H 0.60938 0.99058 0.97275 0.0
H162 H 0.92476 0.89851 0.12242 0.0
H163 H 0.72621 0.85712 0.13889 0.0
H164 H 0.73144 0.87155 0.97163 0.0
Co165 Co 0.19239 0.96843 0.49594 0.0
C166 C 0.23588 1.00758 0.5797 0.0
C167 C 0.29626 0.98363 0.53753 0.0
C168 C 0.31747 0.99874 0.57995 0.0
N169 N 0.24483 0.98909 0.53752 0.0
N170 N 0.27921 1.01377 0.6064 0.0
H171 H 0.19787 1.01464 0.59328 0.0
H172 H 0.31658 0.96806 0.51096 0.0
C173 C 0.26992 0.97303 0.40023 0.0
O174 O 0.30496 0.953 0.41567 0.0
N175 N 0.13963 0.94782 0.45666 0.0
C176 C 0.11153 0.9234 0.47461 0.0
C177 C 0.06928 0.91978 0.44359 0.0
C178 C 0.11441 0.95874 0.41487 0.0
N179 N 0.07128 0.94202 0.40644 0.0
C180 C 0.2314 0.91764 0.55515 0.0
C181 C 0.24035 0.87635 0.47198 0.0
C182 C 0.2428 0.86465 0.52318 0.0
C183 C 0.24021 0.88597 0.56502 0.0
C184 C 0.23147 0.90814 0.46385 0.0
N185 N 0.22569 0.92819 0.50522 0.0
H186 H 0.22526 0.93338 0.58784 0.0
H187 H 0.22458 0.91608 0.42445 0.0
H188 H 0.11949 0.91044 0.50989 0.0
H189 H 0.12517 0.9797 0.39363 0.0
O190 O 0.14378 0.96778 0.5552 0.0
O191 O 0.15146 1.00568 0.49619 0.0
O192 O 0.22981 0.97899 0.42843 0.0
C193 C 0.12614 0.99386 0.53577 0.0
H194 H 0.35748 0.99763 0.59151 0.0
H195 H 0.03852 0.90286 0.44879 0.0
H196 H 0.24268 0.86085 0.43846 0.0
H197 H 0.24135 0.87803 0.60523 0.0
Co198 Co 0.19834 0.0661 0.98862 0.0
C199 C 0.25716 0.04276 0.07918 0.0
C200 C 0.26697 1.01335 1.01191 0.0
C201 C 0.28868 0.99871 0.05422 0.0
N202 N 0.24786 0.04129 1.02724 0.0
N203 N 0.28206 1.01708 0.09682 0.0
H204 H 0.24277 0.06112 0.10438 0.0
H205 H 0.26189 1.00317 0.97357 0.0
C206 C 0.28512 0.0562 0.90767 0.0
O207 O 0.32121 0.05705 0.94314 0.0
N208 N 0.14756 0.09004 0.95146 0.0
C209 C 0.12063 0.11449 0.97133 0.0
C210 C 0.07848 0.11978 0.94063 0.0
C211 C 0.12165 0.08086 0.90877 0.0
N212 N 0.07923 0.0986 0.90162 0.0
C213 C 0.22416 0.11846 0.0529 0.0
C214 C 0.26426 0.15481 0.97257 0.0
C215 C 0.25156 0.16897 1.02051 0.0
C216 C 0.23269 0.15028 0.06149 0.0
C217 C 0.25403 0.12312 0.96519 0.0
N218 N 0.23336 0.10525 1.00479 0.0
H219 H 0.20496 0.10542 0.08362 0.0
H220 H 0.25814 0.11424 0.92593 0.0
H221 H 0.12847 0.12604 1.00796 0.0
H222 H 0.13094 0.06005 0.88633 0.0
O223 O 0.15007 0.06402 0.0474 0.0
O224 O 0.15498 0.02992 0.98208 0.0
O225 O 0.23756 0.06006 0.92045 0.0
C226 C 0.13086 0.03969 1.02412 0.0
H227 H 0.30415 0.97521 0.05433 0.0
H228 H 0.04814 0.13681 0.94784 0.0
H229 H 0.27787 0.16866 0.9396 0.0
H230 H 0.222 0.16051 0.09901 0.0
Co231 Co 0.76528 0.0713 0.58086 0.0
C232 C 0.71764 0.04342 0.48759 0.0
C233 C 0.67079 0.03498 0.5563 0.0
C234 C 0.64811 0.02063 0.51406 0.0
N235 N 0.71451 0.04924 0.53963 0.0
N236 N 0.67771 0.02587 0.47076 0.0
H237 H 0.74953 0.05106 0.46281 0.0
H238 H 0.65652 0.03447 0.59636 0.0
C239 C 0.72127 0.08368 0.68916 0.0
O240 O 0.74932 0.10916 0.69219 0.0
N241 N 0.81807 0.09319 0.61954 0.0
C242 C 0.84403 0.1188 0.60285 0.0
C243 C 0.88754 0.12245 0.6322 0.0
C244 C 0.84657 0.08155 0.65889 0.0
N245 N 0.88893 0.09905 0.66716 0.0
C246 C 0.75526 0.12194 0.50867 0.0
C247 C 0.70031 0.16163 0.57457 0.0
C248 C 0.72362 0.17382 0.52911 0.0
C249 C 0.74894 0.15324 0.49449 0.0
C250 C 0.70653 0.13 0.58664 0.0
N251 N 0.7376 0.1112 0.55618 0.0
H252 H 0.7778 0.10699 0.48293 0.0
H253 H 0.68715 0.12137 0.62114 0.0
H254 H 0.8345 0.13281 0.56936 0.0
H255 H 0.83824 0.05978 0.67882 0.0
O256 O 0.81852 0.06408 0.52779 0.0
O257 O 0.80044 0.03238 0.59409 0.0
O258 O 0.71802 0.06899 0.64551 0.0
C259 C 0.83017 0.03913 0.55417 0.0
H260 H 0.61264 1.00725 0.51543 0.0
H261 H 0.9169 0.14026 0.62716 0.0
H262 H 0.67831 0.17657 0.6011 0.0
H263 H 0.76654 0.16163 0.45832 0.0
H264 H 0.24222 0.53396 0.71748 0.0
H265 H 0.09251 0.57854 0.7272 0.0
H266 H 0.08249 0.56148 0.81862 0.0
H267 H 0.11795 0.53453 0.8969 0.0
H268 H 0.26865 0.49127 0.88379 0.0
H269 H 0.27632 0.50717 0.79288 0.0
C270 C 0.20719 0.54002 0.73931 0.0
C271 C 0.16827 0.55768 0.71527 0.0
C272 C 0.20184 0.53029 0.79156 0.0
C273 C 0.12313 0.56496 0.74451 0.0
C274 C 0.11747 0.55528 0.7969 0.0
C275 C 0.15234 0.52861 0.874 0.0
C276 C 0.19227 0.51128 0.89731 0.0
C277 C 0.15681 0.53807 0.82105 0.0
C278 C 0.23666 0.50381 0.86696 0.0
C279 C 0.24137 0.51315 0.81485 0.0
H280 H 0.76021 0.49155 0.67513 0.0
H281 H 0.76879 0.58105 0.59762 0.0
H282 H 0.7668 0.60751 0.6816 0.0
H283 H 0.7556 0.60614 0.77657 0.0
H284 H 0.74478 0.51771 0.85663 0.0
H285 H 0.75535 0.49018 0.77273 0.0
C286 C 0.7618 0.51682 0.67666 0.0
C287 C 0.76461 0.53408 0.6295 0.0
C288 C 0.76025 0.53224 0.72576 0.0
C289 C 0.7673 0.56689 0.63264 0.0
C290 C 0.76582 0.5822 0.68093 0.0
C291 C 0.75628 0.5808 0.77596 0.0
C292 C 0.74912 0.5641 0.82303 0.0
C293 C 0.76148 0.5652 0.72763 0.0
C294 C 0.75051 0.53125 0.82119 0.0
C295 C 0.75605 0.51548 0.77305 0.0
H296 H 0.70196 0.46251 0.31226 0.0
H297 H 0.85922 0.48993 0.34176 0.0
H298 H 0.86959 0.50706 0.25051 0.0
H299 H 0.83137 0.51771 0.16379 0.0
H300 H 0.67405 0.48935 0.13623 0.0
H301 H 0.66633 0.4694 0.22526 0.0
C302 C 0.73869 0.4721 0.29885 0.0
C303 C 0.77959 0.4752 0.33416 0.0
C304 C 0.74422 0.48202 0.2466 0.0
C305 C 0.82706 0.48727 0.31559 0.0
C306 C 0.83292 0.4972 0.26339 0.0
C307 C 0.79571 0.50673 0.17696 0.0
C308 C 0.75307 0.50553 0.14324 0.0
C309 C 0.79144 0.49516 0.22869 0.0
C310 C 0.7071 0.49128 0.1614 0.0
C311 C 0.70269 0.47969 0.21236 0.0
H312 H 0.23447 0.43229 0.27877 0.0
H313 H 0.15965 0.50419 0.1892 0.0
H314 H 0.13974 0.5331 0.27009 0.0
H315 H 0.14941 0.53968 0.36597 0.0
H316 H 0.22951 0.46909 0.4532 0.0
H317 H 0.24158 0.43788 0.37355 0.0
C318 C 0.21309 0.45406 0.27677 0.0
C319 C 0.19839 0.46593 0.22777 0.0
C320 C 0.20314 0.47092 0.32315 0.0
C321 C 0.17133 0.49442 0.22625 0.0
C322 C 0.16009 0.51102 0.27254 0.0
C323 C 0.16869 0.51722 0.36754 0.0
C324 C 0.18844 0.5066 0.41546 0.0
C325 C 0.17658 0.49975 0.32117 0.0
C326 C 0.21423 0.47774 0.41678 0.0
C327 C 0.22107 0.45992 0.37128 0.0
H328 H 0.6453 0.99942 0.87829 0.0
H329 H 0.72249 0.07174 0.96416 0.0
H330 H 0.7352 0.10191 0.88369 0.0
H331 H 0.7328 0.10495 0.78837 0.0
H332 H 0.66086 0.03118 0.70044 0.0
H333 H 0.63679 1.00462 0.78214 0.0
C334 C 0.66372 0.02214 0.87936 0.0
C335 C 0.68298 0.03344 0.92698 0.0
C336 C 0.67221 0.03892 0.83252 0.0
C337 C 0.70761 0.06263 0.92786 0.0
C338 C 0.71493 0.0798 0.88189 0.0
C339 C 0.71105 0.08333 0.78686 0.0
C340 C 0.69895 0.07006 0.73811 0.0
C341 C 0.69869 0.06777 0.83383 0.0
C342 C 0.67083 0.04196 0.73729 0.0
C343 C 0.65723 0.02666 0.78406 0.0
H344 H 0.23244 0.07588 0.82377 0.0
H345 H 0.36678 0.0226 0.86649 0.0
H346 H 0.38004 1.00657 0.77486 0.0
H347 H 0.34745 1.0035 0.68431 0.0
H348 H 0.2145 0.0587 0.64293 0.0
H349 H 0.2067 0.0781 0.73233 0.0
C350 C 0.265 0.06101 0.81296 0.0
C351 C 0.29821 0.05009 0.85187 0.0
C352 C 0.27229 0.05198 0.7605 0.0
C353 C 0.34067 0.03129 0.8372 0.0
C354 C 0.34805 0.022 0.78487 0.0
C355 C 0.3175 0.02028 0.69451 0.0
C356 C 0.28086 0.02899 0.65696 0.0
C357 C 0.31333 0.03161 0.74633 0.0
C358 C 0.24234 0.05085 0.67118 0.0
C359 C 0.23794 0.06211 0.72233 0.0
H360 H 0.23219 0.03891 0.18386 0.0
H361 H 0.35204 0.97502 0.13235 0.0
H362 H 0.3617 0.95668 0.22227 0.0
H363 H 0.33228 0.95668 0.31548 0.0
H364 H 0.21253 0.02145 0.36469 0.0
H365 H 0.20769 0.04176 0.27625 0.0
C366 C 0.26122 0.02143 0.19204 0.0
C367 C 0.29106 1.00834 0.15078 0.0
C368 C 0.26658 1.01096 0.24384 0.0
C369 C 0.32785 0.98526 0.1629 0.0
C370 C 0.33358 0.97481 0.2145 0.0
C371 C 0.30568 0.97552 0.30698 0.0
C372 C 0.27262 0.98724 0.34699 0.0
C373 C 0.30256 0.98714 0.25531 0.0
C374 C 0.23825 1.01166 0.33493 0.0
C375 C 0.23533 0.02338 0.28415 0.0
H376 H 0.7181 0.04869 0.38006 0.0
H377 H 0.62027 0.97545 0.44211 0.0
H378 H 0.61174 0.95357 0.35439 0.0
H379 H 0.63696 0.95311 0.25989 0.0
H380 H 0.73875 0.02526 0.20069 0.0
H381 H 0.74101 0.04926 0.287 0.0
C382 C 0.69516 0.02783 0.37477 0.0
C383 C 0.67036 1.01376 0.41829 0.0
C384 C 0.69116 1.01496 0.32428 0.0
C385 C 0.6397 0.98708 0.40974 0.0
C386 C 0.63499 0.97436 0.35939 0.0
C387 C 0.65897 0.97432 0.26584 0.0
C388 C 0.68771 0.98726 0.22374 0.0
C389 C 0.66109 0.98785 0.31633 0.0
C390 C 0.71648 1.01462 0.23233 0.0
C391 C 0.71789 0.02843 0.28179 0.0
H392 H 0.3883 0.52107 0.0943 0.0
H393 H 0.38453 0.47332 0.94546 0.0
H394 H 0.47238 0.49117 0.9247 0.0
H395 H 0.55097 0.5188 0.95018 0.0
H396 H 0.55532 0.56605 0.09944 0.0
H397 H 0.46648 0.54955 0.11912 0.0
C398 C 0.40643 0.51498 0.05698 0.0
C399 C 0.38 0.49608 1.02128 0.0
C400 C 0.45722 0.52475 0.04585 0.0
C401 C 0.40417 0.48793 0.97345 0.0
C402 C 0.45442 0.49799 0.96171 0.0
C403 C 0.53263 0.52528 0.98721 0.0
C404 C 0.55974 0.54334 1.02357 0.0
C405 C 0.48153 0.51601 0.99795 0.0
C406 C 0.53526 0.55199 0.071 0.0
C407 C 0.48446 0.54268 0.08215 0.0
H408 H 0.55927 0.52497 0.458 0.0
H409 H 0.55858 0.46931 0.59891 0.0
H410 H 0.46877 0.48459 0.6174 0.0
H411 H 0.39048 0.51283 0.59249 0.0
H412 H 0.39137 0.56873 0.45191 0.0
H413 H 0.48132 0.55362 0.43358 0.0
C414 C 0.53974 0.51641 0.49312 0.0
C415 C 0.56564 0.49614 0.52724 0.0
C416 C 0.48804 0.52483 0.50291 0.0
C417 C 0.5396 0.48509 0.57226 0.0
C418 C 0.48819 0.49363 0.5826 0.0
C419 C 0.41009 0.52141 0.55743 0.0
C420 C 0.38417 0.54158 0.52318 0.0
C421 C 0.46192 0.51317 0.54785 0.0
C422 C 0.41039 0.55296 0.47853 0.0
C423 C 0.46185 0.5445 0.46828 0.0
H424 H 0.06856 1.00532 0.96259 0.0
H425 H 0.07444 0.05068 0.1135 0.0
H426 H -0.01762 0.04021 0.1283 0.0
H427 H 0.90041 0.02007 0.09713 0.0
H428 H 0.89364 0.97374 0.94723 0.0
H429 H -0.01373 0.98362 0.93234 0.0
C430 C 0.04994 1.0124 0.99916 0.0
C431 C 0.07829 0.02856 0.03716 0.0
C432 C -0.00317 1.00698 1.00678 0.0
C433 C 0.05347 0.03803 0.08391 0.0
C434 C 0.00081 0.03233 0.09212 0.0
C435 C 0.91888 1.01257 0.06071 0.0
C436 C 0.89009 0.99677 1.02273 0.0
C437 C 0.97203 1.01739 0.0534 0.0
C438 C 0.91494 0.98639 0.97655 0.0
C439 C 0.96787 0.99176 0.96836 0.0
H440 H 0.91959 0.0693 0.53947 0.0
H441 H 0.85559 0.97745 0.5631 0.0
H442 H 0.94319 0.95522 0.56631 0.0
H443 H 0.03823 0.96231 0.56027 0.0
H444 H 0.10055 0.0549 0.53924 0.0
H445 H 0.01326 0.07682 0.53943 0.0
C446 C 0.92493 0.04432 0.54431 0.0
C447 C 0.88164 0.02476 0.54923 0.0
C448 C 0.97498 0.03212 0.54836 0.0
C449 C 0.8887 0.9927 0.55787 0.0
C450 C 0.93863 0.98012 0.56034 0.0
C451 C 0.03253 0.98736 0.55745 0.0
C452 C 0.07548 1.00711 0.55044 0.0
C453 C -0.0179 0.99967 0.55592 0.0
C454 C 0.06786 0.03941 0.54528 0.0
C455 C 0.01805 0.05187 0.54466 0.0
H456 H 0.28472 0.31464 1.01352 0.0
H457 H 0.12355 0.31365 0.06129 0.0
H458 H 0.12537 0.25655 0.06439 0.0
H459 H 0.17232 0.20678 0.05103 0.0
H460 H 0.33178 0.20825 0.99839 0.0
H461 H 0.33096 0.26544 0.99911 0.0
C462 C 0.2496 0.30204 1.02373 0.0
C463 C 0.20387 0.31858 0.03662 0.0
C464 C 0.25077 0.26928 1.02481 0.0
C465 C 0.15934 0.30166 0.05138 0.0
C466 C 0.16032 0.26897 0.05303 0.0
C467 C 0.20703 0.21971 0.04047 0.0
C468 C 0.25228 0.20346 1.02524 0.0
C469 C 0.20582 0.25255 0.0398 0.0
C470 C 0.29669 0.22035 1.01047 0.0
C471 C 0.29613 0.25298 1.01075 0.0
H472 H 0.71664 0.31396 0.45322 0.0
H473 H 0.78427 0.32867 0.60463 0.0
H474 H 0.7793 0.27268 0.62227 0.0
H475 H 0.75595 0.21933 0.59458 0.0
H476 H 0.69387 0.20455 0.4411 0.0
H477 H 0.69727 0.26082 0.42399 0.0
C478 C 0.73143 0.30502 0.48971 0.0
C479 C 0.75106 0.32579 0.52741 0.0
C480 C 0.72918 0.27273 0.49931 0.0
C481 C 0.7685 0.31349 0.57502 0.0
C482 C 0.76583 0.28139 0.5851 0.0
C483 C 0.74282 0.22856 0.55758 0.0
C484 C 0.72413 0.20797 0.51931 0.0
C485 C 0.74598 0.26082 0.54766 0.0
C486 C 0.70821 0.22001 0.47112 0.0
C487 C 0.71021 0.25213 0.46138 0.0
H488 H 0.67874 0.81061 0.10052 0.0
H489 H 0.80194 0.83261 0.99039 0.0
H490 H 0.82125 0.77715 0.97922 0.0
H491 H 0.80343 0.72244 1.00072 0.0
H492 H 0.67513 0.70038 0.10546 0.0
H493 H 0.65954 0.75553 0.12038 0.0
C494 C 0.70975 0.8032 0.07406 0.0
C495 C 0.73843 0.82571 0.04594 0.0
C496 C 0.72055 0.77118 0.06754 0.0
C497 C 0.77852 0.81575 1.01173 0.0
C498 C 0.78995 0.78403 1.00568 0.0
C499 C 0.77173 0.72947 1.02652 0.0
C500 C 0.74105 0.70668 0.05205 0.0
C501 C 0.76115 0.7615 0.0333 0.0
C502 C 0.70077 0.71687 0.08614 0.0
C503 C 0.69108 0.74864 0.09422 0.0
H504 H 0.18793 0.81984 0.47287 0.0
H505 H 0.29747 0.83234 0.59656 0.0
H506 H 0.29429 0.77642 0.61556 0.0
H507 H 0.26116 0.72386 0.59636 0.0
H508 H 0.15323 0.71125 0.47141 0.0
H509 H 0.15554 0.76734 0.4531 0.0
C510 C 0.21178 0.81032 0.50347 0.0
C511 C 0.24317 0.83035 0.53303 0.0
C512 C 0.20986 0.77813 0.51409 0.0
C513 C 0.27276 0.81758 0.57339 0.0
C514 C 0.27104 0.78557 0.58421 0.0
C515 C 0.2376 0.73347 0.56559 0.0
C516 C 0.20669 0.71346 0.53556 0.0
C517 C 0.23958 0.76566 0.55495 0.0
C518 C 0.17732 0.72616 0.49502 0.0
C519 C 0.17865 0.7582 0.48457 0.0
H520 H 0.53871 0.45978 0.33352 0.0
H521 H 0.54469 0.35948 0.34874 0.0
H522 H 0.48009 0.35387 0.28124 0.0
H523 H 0.4204 0.37725 0.22019 0.0
H524 H 0.4157 0.47735 0.20127 0.0
H525 H 0.48094 0.4833 0.26854 0.0
C526 C 0.5264 0.43672 0.32148 0.0
C527 C 0.54624 0.41008 0.34634 0.0
C528 C 0.48913 0.43365 0.28251 0.0
C529 C 0.5294 0.38035 0.3308 0.0
C530 C 0.4926 0.37711 0.2921 0.0
C531 C 0.43403 0.40038 0.23009 0.0
C532 C 0.41308 0.42676 0.20557 0.0
C533 C 0.47192 0.40358 0.26808 0.0
C534 C 0.43054 0.45662 0.21997 0.0
C535 C 0.46819 0.46003 0.25816 0.0
H536 H 0.4199 0.65649 0.72303 0.0
H537 H 0.39787 0.55666 0.72701 0.0
H538 H 0.46086 0.55226 0.79681 0.0
H539 H 0.5248 0.57683 0.85423 0.0
H540 H 0.54924 0.67642 0.84544 0.0
H541 H 0.48301 0.6808 0.77945 0.0
C542 C 0.42911 0.63371 0.73877 0.0
C543 C 0.40452 0.60697 0.71941 0.0
C544 C 0.46602 0.6313 0.77786 0.0
C545 C 0.4159 0.5777 0.74139 0.0
C546 C 0.45226 0.57513 0.78101 0.0
C547 C 0.51595 0.59941 0.83751 0.0
C548 C 0.54199 0.62626 0.85478 0.0
C549 C 0.47806 0.60176 0.79905 0.0
C550 C 0.52936 0.65546 0.8334 0.0
C551 C 0.49166 0.65799 0.79545 0.0
H552 H 0.08749 0.94761 0.30371 0.0
H553 H 0.96946 0.94844 0.42487 0.0
H554 H 0.90191 0.9514 0.35898 0.0
H555 H 0.8769 0.94791 0.26673 0.0
H556 H -0.00529 0.94165 0.14575 0.0
H557 H 0.06244 0.94691 0.21107 0.0
C558 C 0.04693 0.94903 0.3152 0.0
C559 C 0.03282 0.94774 0.36833 0.0
C560 C 0.00866 0.94942 0.27717 0.0
C561 C -0.0195 0.9492 0.38373 0.0
C562 C 0.94215 0.95085 0.34625 0.0
C563 C 0.91747 0.94823 0.25503 0.0
C564 C 0.93139 0.9442 0.20223 0.0
C565 C 0.95577 0.95009 0.29286 0.0
C566 C -0.01626 0.94433 0.18667 0.0
C567 C 0.0222 0.94738 0.22384 0.0
H568 H 0.09051 0.09232 0.79789 0.0
H569 H 0.97777 0.0935 0.92413 0.0
H570 H 0.90739 0.0896 0.86156 0.0
H571 H 0.87801 0.09095 0.77027 0.0
H572 H -0.00961 0.09495 0.644 0.0
H573 H 0.06111 0.09134 0.7064 0.0
C574 C 0.05047 0.09129 0.81129 0.0
C575 C 0.03884 0.0934 0.86502 0.0
C576 C 0.0104 0.09014 0.775 0.0
C577 C -0.0129 0.09227 0.88264 0.0
C578 C 0.94706 0.09 0.84698 0.0
C579 C 0.91807 0.09047 0.75682 0.0
C580 C 0.92953 0.0932 0.70318 0.0
C581 C 0.95819 0.08967 0.79303 0.0
C582 C -0.01874 0.09301 0.68545 0.0
C583 C 0.02146 0.091 0.72102 0.0
loop_
_geom_bond_atom_site_label_1
_geom_bond_atom_site_label_2
_geom_bond_distance
_geom_bond_site_symmetry_2
_ccdc_geom_bond_type
Co0 N4 2.148 . S
Co0 N10 2.128 . S
Co0 N20 2.194 . S
Co0 O25 2.351 . S
Co0 O26 2.155 . S
Co0 O27 2.096 . S
C1 N4 1.301 1_556 S
C1 N5 1.328 . S
C1 H6 0.930 . S
C2 C3 1.333 1_554 S
C2 N4 1.317 . S
C2 H7 0.930 . S
C3 C2 1.333 1_556 S
C3 N5 1.350 . S
C3 H29 0.931 . S
N4 Co0 2.148 . S
N4 C1 1.301 1_554 S
N4 C2 1.317 . S
N5 C1 1.328 . S
N5 C3 1.350 . S
H6 C1 0.930 . S
H7 C2 0.930 . S
C8 O9 1.224 . S
C8 O27 1.247 . S
O9 C8 1.224 . S
N10 Co0 2.128 . S
N10 C11 1.355 . S
N10 C13 1.311 . S
C11 N10 1.355 . S
C11 C12 1.363 . S
C11 H23 0.929 . S
C12 C11 1.363 . S
C12 N14 1.375 . S
C12 H30 0.931 . S
C13 N10 1.311 . S
C13 N14 1.347 . S
C13 H24 0.929 . S
N14 C12 1.375 . S
N14 C13 1.347 . S
C15 C18 1.365 1_554 S
C15 N20 1.328 . S
C15 H21 0.929 1_554 S
C16 C17 1.362 . S
C16 C19 1.378 . S
C16 H31 0.929 . S
C17 C16 1.362 . S
C17 C18 1.366 1_554 S
C18 C15 1.365 1_556 S
C18 C17 1.366 1_556 S
C18 H32 0.930 . S
C19 C16 1.378 . S
C19 N20 1.315 . S
C19 H22 0.930 . S
N20 Co0 2.194 . S
N20 C15 1.328 . S
N20 C19 1.315 . S
H21 C15 0.929 1_556 S
H22 C19 0.930 . S
H23 C11 0.929 . S
H24 C13 0.929 . S
O25 Co0 2.351 . S
O25 C28 1.244 . S
O26 Co0 2.155 . S
O26 C28 1.240 . S
O27 Co0 2.096 . S
O27 C8 1.247 . S
C28 O25 1.244 . S
C28 O26 1.240 . S
H29 C3 0.931 . S
H30 C12 0.931 . S
H31 C16 0.929 . S
H32 C18 0.930 . S
Co33 N37 2.148 . S
Co33 N43 2.128 . S
Co33 N53 2.194 . S
Co33 O58 2.351 . S
Co33 O59 2.155 . S
Co33 O60 2.096 . S
C34 N37 1.301 . S
C34 N38 1.328 . S
C34 H39 0.930 . S
C35 C36 1.333 . S
C35 N37 1.317 . S
C35 H40 0.930 . S
C36 C35 1.333 . S
C36 N38 1.350 . S
C36 H62 0.931 . S
N37 Co33 2.148 . S
N37 C34 1.301 . S
N37 C35 1.317 . S
N38 C34 1.328 . S
N38 C36 1.350 . S
H39 C34 0.930 . S
H40 C35 0.930 . S
C41 O42 1.224 . S
C41 O60 1.247 . S
O42 C41 1.224 . S
N43 Co33 2.128 . S
N43 C44 1.355 . S
N43 C46 1.311 . S
C44 N43 1.355 . S
C44 C45 1.363 . S
C44 H56 0.929 . S
C45 C44 1.363 . S
C45 N47 1.375 . S
C45 H63 0.931 . S
C46 N43 1.311 . S
C46 N47 1.347 . S
C46 H57 0.929 . S
N47 C45 1.375 . S
N47 C46 1.347 . S
C48 C51 1.365 . S
C48 N53 1.328 . S
C48 H54 0.929 . S
C49 C50 1.362 . S
C49 C52 1.378 . S
C49 H64 0.929 . S
C50 C49 1.362 . S
C50 C51 1.366 . S
C51 C48 1.365 . S
C51 C50 1.366 . S
C51 H65 0.930 . S
C52 C49 1.378 . S
C52 N53 1.315 . S
C52 H55 0.930 . S
N53 Co33 2.194 . S
N53 C48 1.328 . S
N53 C52 1.315 . S
H54 C48 0.929 . S
H55 C52 0.930 . S
H56 C44 0.929 . S
H57 C46 0.929 . S
O58 Co33 2.351 . S
O58 C61 1.244 . S
O59 Co33 2.155 . S
O59 C61 1.240 . S
O60 Co33 2.096 . S
O60 C41 1.247 . S
C61 O58 1.244 . S
C61 O59 1.240 . S
H62 C36 0.931 . S
H63 C45 0.931 . S
H64 C49 0.929 . S
H65 C51 0.930 . S
Co66 N70 2.148 . S
Co66 N76 2.128 . S
Co66 N86 2.194 . S
Co66 O91 2.351 . S
Co66 O92 2.155 . S
Co66 O93 2.096 . S
C67 N70 1.301 1_554 S
C67 N71 1.328 . S
C67 H72 0.930 . S
C68 C69 1.333 1_556 S
C68 N70 1.317 . S
C68 H73 0.930 . S
C69 C68 1.333 1_554 S
C69 N71 1.350 . S
C69 H95 0.931 . S
N70 Co66 2.148 . S
N70 C67 1.301 1_556 S
N70 C68 1.317 . S
N71 C67 1.328 . S
N71 C69 1.350 . S
H72 C67 0.930 . S
H73 C68 0.930 . S
C74 O75 1.224 . S
C74 O93 1.247 . S
O75 C74 1.224 . S
N76 Co66 2.128 . S
N76 C77 1.355 . S
N76 C79 1.311 . S
C77 N76 1.355 . S
C77 C78 1.363 . S
C77 H89 0.929 . S
C78 C77 1.363 . S
C78 N80 1.375 . S
C78 H96 0.931 . S
C79 N76 1.311 . S
C79 N80 1.347 . S
C79 H90 0.929 . S
N80 C78 1.375 . S
N80 C79 1.347 . S
C81 C84 1.365 1_556 S
C81 N86 1.328 . S
C81 H87 0.929 1_556 S
C82 C83 1.362 . S
C82 C85 1.378 . S
C82 H97 0.929 . S
C83 C82 1.362 . S
C83 C84 1.366 1_556 S
C84 C81 1.365 1_554 S
C84 C83 1.366 1_554 S
C84 H98 0.930 . S
C85 C82 1.378 . S
C85 N86 1.315 . S
C85 H88 0.930 . S
N86 Co66 2.194 . S
N86 C81 1.328 . S
N86 C85 1.315 . S
H87 C81 0.929 1_554 S
H88 C85 0.930 . S
H89 C77 0.929 . S
H90 C79 0.929 . S
O91 Co66 2.351 . S
O91 C94 1.244 . S
O92 Co66 2.155 . S
O92 C94 1.240 . S
O93 Co66 2.096 . S
O93 C74 1.247 . S
C94 O91 1.244 . S
C94 O92 1.240 . S
H95 C69 0.931 . S
H96 C78 0.931 . S
H97 C82 0.929 . S
H98 C84 0.930 . S
Co99 N103 2.148 . S
Co99 N109 2.128 . S
Co99 N119 2.194 . S
Co99 O124 2.351 . S
Co99 O125 2.155 . S
Co99 O126 2.096 . S
C100 N103 1.301 . S
C100 N104 1.328 . S
C100 H105 0.930 . S
C101 C102 1.333 . S
C101 N103 1.317 . S
C101 H106 0.930 . S
C102 C101 1.333 . S
C102 N104 1.350 . S
C102 H128 0.931 . S
N103 Co99 2.148 . S
N103 C100 1.301 . S
N103 C101 1.317 . S
N104 C100 1.328 . S
N104 C102 1.350 . S
H105 C100 0.930 . S
H106 C101 0.930 . S
C107 O108 1.224 . S
C107 O126 1.247 . S
O108 C107 1.224 . S
N109 Co99 2.128 . S
N109 C110 1.355 . S
N109 C112 1.311 . S
C110 N109 1.355 . S
C110 C111 1.363 . S
C110 H122 0.929 . S
C111 C110 1.363 . S
C111 N113 1.375 . S
C111 H129 0.931 . S
C112 N109 1.311 . S
C112 N113 1.347 . S
C112 H123 0.929 . S
N113 C111 1.375 . S
N113 C112 1.347 . S
C114 C117 1.365 . S
C114 N119 1.328 . S
C114 H120 0.929 . S
C115 C116 1.362 . S
C115 C118 1.378 . S
C115 H130 0.929 . S
C116 C115 1.362 . S
C116 C117 1.366 . S
C117 C114 1.365 . S
C117 C116 1.366 . S
C117 H131 0.930 . S
C118 C115 1.378 . S
C118 N119 1.315 . S
C118 H121 0.930 . S
N119 Co99 2.194 . S
N119 C114 1.328 . S
N119 C118 1.315 . S
H120 C114 0.929 . S
H121 C118 0.930 . S
H122 C110 0.929 . S
H123 C112 0.929 . S
O124 Co99 2.351 . S
O124 C127 1.244 . S
O125 Co99 2.155 . S
O125 C127 1.240 . S
O126 Co99 2.096 . S
O126 C107 1.247 . S
C127 O124 1.244 . S
C127 O125 1.240 . S
H128 C102 0.931 . S
H129 C111 0.931 . S
H130 C115 0.929 . S
H131 C117 0.930 . S
Co132 N136 2.148 . S
Co132 N142 2.128 . S
Co132 N152 2.194 . S
Co132 O157 2.351 . S
Co132 O158 2.155 . S
Co132 O159 2.096 . S
C133 N136 1.301 1_556 S
C133 N137 1.328 . S
C133 H138 0.930 . S
C134 C135 1.333 1_554 S
C134 N136 1.317 . S
C134 H139 0.930 . S
C135 C134 1.333 1_556 S
C135 N137 1.350 . S
C135 H161 0.931 1_565 S
N136 Co132 2.148 . S
N136 C133 1.301 1_554 S
N136 C134 1.317 . S
N137 C133 1.328 . S
N137 C135 1.350 . S
H138 C133 0.930 . S
H139 C134 0.930 . S
C140 O141 1.224 . S
C140 O159 1.247 . S
O141 C140 1.224 . S
N142 Co132 2.128 . S
N142 C143 1.355 . S
N142 C145 1.311 . S
C143 N142 1.355 . S
C143 C144 1.363 . S
C143 H155 0.929 . S
C144 C143 1.363 . S
C144 N146 1.375 . S
C144 H162 0.931 . S
C145 N142 1.311 . S
C145 N146 1.347 . S
C145 H156 0.929 . S
N146 C144 1.375 . S
N146 C145 1.347 . S
C147 C150 1.365 1_554 S
C147 N152 1.328 . S
C147 H153 0.929 1_554 S
C148 C149 1.362 . S
C148 C151 1.378 . S
C148 H163 0.929 . S
C149 C148 1.362 . S
C149 C150 1.366 1_554 S
C150 C147 1.365 1_556 S
C150 C149 1.366 1_556 S
C150 H164 0.930 . S
C151 C148 1.378 . S
C151 N152 1.315 . S
C151 H154 0.930 . S
N152 Co132 2.194 . S
N152 C147 1.328 . S
N152 C151 1.315 . S
H153 C147 0.929 1_556 S
H154 C151 0.930 . S
H155 C143 0.929 . S
H156 C145 0.929 . S
O157 Co132 2.351 . S
O157 C160 1.244 . S
O158 Co132 2.155 . S
O158 C160 1.240 . S
O159 Co132 2.096 . S
O159 C140 1.247 . S
C160 O157 1.244 . S
C160 O158 1.240 . S
H161 C135 0.931 1_545 S
H162 C144 0.931 . S
H163 C148 0.929 . S
H164 C150 0.930 . S
Co165 N169 2.148 . S
Co165 N175 2.128 . S
Co165 N185 2.194 . S
Co165 O190 2.351 . S
Co165 O191 2.155 . S
Co165 O192 2.096 . S
C166 N169 1.301 . S
C166 N170 1.328 . S
C166 H171 0.930 . S
C167 C168 1.333 . S
C167 N169 1.317 . S
C167 H172 0.930 . S
C168 C167 1.333 . S
C168 N170 1.350 . S
C168 H194 0.931 1_565 S
N169 Co165 2.148 . S
N169 C166 1.301 . S
N169 C167 1.317 . S
N170 C166 1.328 . S
N170 C168 1.350 . S
H171 C166 0.930 . S
H172 C167 0.930 . S
C173 O174 1.224 . S
C173 O192 1.247 . S
O174 C173 1.224 . S
N175 Co165 2.128 . S
N175 C176 1.355 . S
N175 C178 1.311 . S
C176 N175 1.355 . S
C176 C177 1.363 . S
C176 H188 0.929 . S
C177 C176 1.363 . S
C177 N179 1.375 . S
C177 H195 0.931 . S
C178 N175 1.311 . S
C178 N179 1.347 . S
C178 H189 0.929 . S
N179 C177 1.375 . S
N179 C178 1.347 . S
C180 C183 1.365 . S
C180 N185 1.328 . S
C180 H186 0.929 . S
C181 C182 1.362 . S
C181 C184 1.378 . S
C181 H196 0.929 . S
C182 C181 1.362 . S
C182 C183 1.366 . S
C183 C180 1.365 . S
C183 C182 1.366 . S
C183 H197 0.930 . S
C184 C181 1.378 . S
C184 N185 1.315 . S
C184 H187 0.930 . S
N185 Co165 2.194 . S
N185 C180 1.328 . S
N185 C184 1.315 . S
H186 C180 0.929 . S
H187 C184 0.930 . S
H188 C176 0.929 . S
H189 C178 0.929 . S
O190 Co165 2.351 . S
O190 C193 1.244 . S
O191 Co165 2.155 . S
O191 C193 1.240 . S
O192 Co165 2.096 . S
O192 C173 1.247 . S
C193 O190 1.244 . S
C193 O191 1.240 . S
H194 C168 0.931 1_545 S
H195 C177 0.931 . S
H196 C181 0.929 . S
H197 C183 0.930 . S
Co198 N202 2.148 . S
Co198 N208 2.128 . S
Co198 N218 2.194 . S
Co198 O223 2.351 . S
Co198 O224 2.155 . S
Co198 O225 2.096 . S
C199 N202 1.301 1_554 S
C199 N203 1.328 . S
C199 H204 0.930 . S
C200 C201 1.333 1_556 S
C200 N202 1.317 . S
C200 H205 0.930 . S
C201 C200 1.333 1_554 S
C201 N203 1.350 . S
C201 H227 0.931 1_545 S
N202 Co198 2.148 . S
N202 C199 1.301 1_556 S
N202 C200 1.317 . S
N203 C199 1.328 . S
N203 C201 1.350 . S
H204 C199 0.930 . S
H205 C200 0.930 . S
C206 O207 1.224 . S
C206 O225 1.247 . S
O207 C206 1.224 . S
N208 Co198 2.128 . S
N208 C209 1.355 . S
N208 C211 1.311 . S
C209 N208 1.355 . S
C209 C210 1.363 . S
C209 H221 0.929 . S
C210 C209 1.363 . S
C210 N212 1.375 . S
C210 H228 0.931 . S
C211 N208 1.311 . S
C211 N212 1.347 . S
C211 H222 0.929 . S
N212 C210 1.375 . S
N212 C211 1.347 . S
C213 C216 1.365 1_556 S
C213 N218 1.328 . S
C213 H219 0.929 1_556 S
C214 C215 1.362 . S
C214 C217 1.378 . S
C214 H229 0.929 . S
C215 C214 1.362 . S
C215 C216 1.366 1_556 S
C216 C213 1.365 1_554 S
C216 C215 1.366 1_554 S
C216 H230 0.930 . S
C217 C214 1.378 . S
C217 N218 1.315 . S
C217 H220 0.930 . S
N218 Co198 2.194 . S
N218 C213 1.328 . S
N218 C217 1.315 . S
H219 C213 0.929 1_554 S
H220 C217 0.930 . S
H221 C209 0.929 . S
H222 C211 0.929 . S
O223 Co198 2.351 . S
O223 C226 1.244 . S
O224 Co198 2.155 . S
O224 C226 1.240 . S
O225 Co198 2.096 . S
O225 C206 1.247 . S
C226 O223 1.244 . S
C226 O224 1.240 . S
H227 C201 0.931 1_565 S
H228 C210 0.931 . S
H229 C214 0.929 . S
H230 C216 0.930 . S
Co231 N235 2.148 . S
Co231 N241 2.128 . S
Co231 N251 2.194 . S
Co231 O256 2.351 . S
Co231 O257 2.155 . S
Co231 O258 2.096 . S
C232 N235 1.301 . S
C232 N236 1.328 . S
C232 H237 0.930 . S
C233 C234 1.333 . S
C233 N235 1.317 . S
C233 H238 0.930 . S
C234 C233 1.333 . S
C234 N236 1.350 . S
C234 H260 0.931 1_545 S
N235 Co231 2.148 . S
N235 C232 1.301 . S
N235 C233 1.317 . S
N236 C232 1.328 . S
N236 C234 1.350 . S
H237 C232 0.930 . S
H238 C233 0.930 . S
C239 O240 1.224 . S
C239 O258 1.247 . S
O240 C239 1.224 . S
N241 Co231 2.128 . S
N241 C242 1.355 . S
N241 C244 1.311 . S
C242 N241 1.355 . S
C242 C243 1.363 . S
C242 H254 0.929 . S
C243 C242 1.363 . S
C243 N245 1.375 . S
C243 H261 0.931 . S
C244 N241 1.311 . S
C244 N245 1.347 . S
C244 H255 0.929 . S
N245 C243 1.375 . S
N245 C244 1.347 . S
C246 C249 1.365 . S
C246 N251 1.328 . S
C246 H252 0.929 . S
C247 C248 1.362 . S
C247 C250 1.378 . S
C247 H262 0.929 . S
C248 C247 1.362 . S
C248 C249 1.366 . S
C249 C246 1.365 . S
C249 C248 1.366 . S
C249 H263 0.930 . S
C250 C247 1.378 . S
C250 N251 1.315 . S
C250 H253 0.930 . S
N251 Co231 2.194 . S
N251 C246 1.328 . S
N251 C250 1.315 . S
H252 C246 0.929 . S
H253 C250 0.930 . S
H254 C242 0.929 . S
H255 C244 0.929 . S
O256 Co231 2.351 . S
O256 C259 1.244 . S
O257 Co231 2.155 . S
O257 C259 1.240 . S
O258 Co231 2.096 . S
O258 C239 1.247 . S
C259 O256 1.244 . S
C259 O257 1.240 . S
H260 C234 0.931 1_565 S
H261 C243 0.931 . S
H262 C247 0.929 . S
H263 C249 0.930 . S
H264 C270 0.930 . S
H265 C273 0.930 . S
H266 C274 0.930 . S
H267 C275 0.930 . S
H268 C278 0.930 . S
H269 C279 0.930 . S
C270 H264 0.930 . S
C270 C271 1.355 . S
C270 C272 1.415 . S
C271 C270 1.355 . S
C271 C273 1.419 . S
C272 C270 1.415 . S
C272 C277 1.425 . S
C272 C279 1.409 . S
C273 H265 0.930 . S
C273 C271 1.419 . S
C273 C274 1.362 . S
C274 H266 0.930 . S
C274 C273 1.362 . S
C274 C277 1.409 . S
C275 H267 0.930 . S
C275 C276 1.355 . S
C275 C277 1.415 . S
C276 C275 1.355 . S
C276 C278 1.419 . S
C277 C272 1.425 . S
C277 C274 1.409 . S
C277 C275 1.415 . S
C278 H268 0.930 . S
C278 C276 1.419 . S
C278 C279 1.362 . S
C279 H269 0.930 . S
C279 C272 1.409 . S
C279 C278 1.362 . S
H280 C286 0.930 . S
H281 C289 0.930 . S
H282 C290 0.930 . S
H283 C291 0.930 . S
H284 C294 0.930 . S
H285 C295 0.930 . S
C286 H280 0.930 . S
C286 C287 1.355 . S
C286 C288 1.415 . S
C287 C286 1.355 . S
C287 C289 1.419 . S
C288 C286 1.415 . S
C288 C293 1.425 . S
C288 C295 1.409 . S
C289 H281 0.930 . S
C289 C287 1.419 . S
C289 C290 1.362 . S
C290 H282 0.930 . S
C290 C289 1.362 . S
C290 C293 1.409 . S
C291 H283 0.930 . S
C291 C292 1.355 . S
C291 C293 1.415 . S
C292 C291 1.355 . S
C292 C294 1.419 . S
C293 C288 1.425 . S
C293 C290 1.409 . S
C293 C291 1.415 . S
C294 H284 0.930 . S
C294 C292 1.419 . S
C294 C295 1.362 . S
C295 H285 0.930 . S
C295 C288 1.409 . S
C295 C294 1.362 . S
H296 C302 0.930 . S
H297 C305 0.930 . S
H298 C306 0.930 . S
H299 C307 0.930 . S
H300 C310 0.930 . S
H301 C311 0.930 . S
C302 H296 0.930 . S
C302 C303 1.355 . S
C302 C304 1.415 . S
C303 C302 1.355 . S
C303 C305 1.419 . S
C304 C302 1.415 . S
C304 C309 1.425 . S
C304 C311 1.409 . S
C305 H297 0.930 . S
C305 C303 1.419 . S
C305 C306 1.362 . S
C306 H298 0.930 . S
C306 C305 1.362 . S
C306 C309 1.409 . S
C307 H299 0.930 . S
C307 C308 1.355 . S
C307 C309 1.415 . S
C308 C307 1.355 . S
C308 C310 1.419 . S
C309 C304 1.425 . S
C309 C306 1.409 . S
C309 C307 1.415 . S
C310 H300 0.930 . S
C310 C308 1.419 . S
C310 C311 1.362 . S
C311 H301 0.930 . S
C311 C304 1.409 . S
C311 C310 1.362 . S
H312 C318 0.930 . S
H313 C321 0.930 . S
H314 C322 0.930 . S
H315 C323 0.930 . S
H316 C326 0.930 . S
H317 C327 0.930 . S
C318 H312 0.930 . S
C318 C319 1.355 . S
C318 C320 1.415 . S
C319 C318 1.355 . S
C319 C321 1.419 . S
C320 C318 1.415 . S
C320 C325 1.425 . S
C320 C327 1.409 . S
C321 H313 0.930 . S
C321 C319 1.419 . S
C321 C322 1.362 . S
C322 H314 0.930 . S
C322 C321 1.362 . S
C322 C325 1.409 . S
C323 H315 0.930 . S
C323 C324 1.355 . S
C323 C325 1.415 . S
C324 C323 1.355 . S
C324 C326 1.419 . S
C325 C320 1.425 . S
C325 C322 1.409 . S
C325 C323 1.415 . S
C326 H316 0.930 . S
C326 C324 1.419 . S
C326 C327 1.362 . S
C327 H317 0.930 . S
C327 C320 1.409 . S
C327 C326 1.362 . S
H328 C334 0.930 . S
H329 C337 0.930 . S
H330 C338 0.930 . S
H331 C339 0.930 . S
H332 C342 0.930 . S
H333 C343 0.930 . S
C334 H328 0.930 . S
C334 C335 1.355 . S
C334 C336 1.415 . S
C335 C334 1.355 . S
C335 C337 1.419 1_565 S
C336 C334 1.415 . S
C336 C341 1.425 1_565 S
C336 C343 1.409 . S
C337 H329 0.930 . S
C337 C335 1.419 1_545 S
C337 C338 1.362 . S
C338 H330 0.930 . S
C338 C337 1.362 . S
C338 C341 1.409 . S
C339 H331 0.930 . S
C339 C340 1.355 . S
C339 C341 1.415 . S
C340 C339 1.355 . S
C340 C342 1.419 1_545 S
C341 C336 1.425 1_545 S
C341 C338 1.409 . S
C341 C339 1.415 . S
C342 H332 0.930 . S
C342 C340 1.419 1_565 S
C342 C343 1.362 . S
C343 H333 0.930 . S
C343 C336 1.409 . S
C343 C342 1.362 . S
H344 C350 0.941 . S
H345 C353 0.930 . S
H346 C354 0.930 . S
H347 C355 0.930 . S
H348 C358 0.930 . S
H349 C359 0.930 . S
C350 H344 0.941 . S
C350 C351 1.340 1_565 S
C350 C352 1.418 . S
C351 C350 1.340 1_545 S
C351 C353 1.419 . S
C352 C350 1.418 . S
C352 C357 1.425 1_565 S
C352 C359 1.409 . S
C353 H345 0.930 . S
C353 C351 1.419 . S
C353 C354 1.362 . S
C354 H346 0.930 . S
C354 C353 1.362 . S
C354 C357 1.409 . S
C355 H347 0.930 . S
C355 C356 1.355 1_545 S
C355 C357 1.415 . S
C356 C355 1.355 1_565 S
C356 C358 1.419 . S
C357 C352 1.425 1_545 S
C357 C354 1.409 . S
C357 C355 1.415 . S
C358 H348 0.930 . S
C358 C356 1.419 . S
C358 C359 1.362 . S
C359 H349 0.930 . S
C359 C352 1.409 . S
C359 C358 1.362 . S
H360 C366 0.930 . S
H361 C369 0.930 . S
H362 C370 0.930 . S
H363 C371 0.930 . S
H364 C374 0.930 . S
H365 C375 0.932 . S
C366 H360 0.930 . S
C366 C367 1.355 . S
C366 C368 1.422 . S
C367 C366 1.355 . S
C367 C369 1.419 . S
C368 C366 1.422 . S
C368 C373 1.421 1_545 S
C368 C375 1.406 1_545 S
C369 H361 0.930 . S
C369 C367 1.419 . S
C369 C370 1.362 1_545 S
C370 H362 0.930 . S
C370 C369 1.362 1_565 S
C370 C373 1.409 . S
C371 H363 0.930 . S
C371 C372 1.355 . S
C371 C373 1.415 . S
C372 C371 1.355 . S
C372 C374 1.419 . S
C373 C368 1.421 1_565 S
C373 C370 1.409 . S
C373 C371 1.415 . S
C374 H364 0.930 . S
C374 C372 1.419 . S
C374 C375 1.362 . S
C375 H365 0.932 . S
C375 C368 1.406 1_565 S
C375 C374 1.362 . S
H376 C382 0.930 . S
H377 C385 0.930 1_565 S
H378 C386 0.930 . S
H379 C387 0.930 . S
H380 C390 0.930 . S
H381 C391 0.930 . S
C382 H376 0.930 . S
C382 C383 1.355 . S
C382 C384 1.415 . S
C383 C382 1.355 . S
C383 C385 1.418 . S
C384 C382 1.415 . S
C384 C389 1.425 1_545 S
C384 C391 1.409 . S
C385 H377 0.930 1_545 S
C385 C383 1.418 . S
C385 C386 1.363 1_545 S
C386 H378 0.930 . S
C386 C385 1.363 1_565 S
C386 C389 1.409 . S
C387 H379 0.930 . S
C387 C388 1.355 . S
C387 C389 1.415 . S
C388 C387 1.355 . S
C388 C390 1.419 . S
C389 C384 1.425 1_565 S
C389 C386 1.409 . S
C389 C387 1.415 . S
C390 H380 0.930 . S
C390 C388 1.419 . S
C390 C391 1.362 1_565 S
C391 H381 0.930 . S
C391 C384 1.409 . S
C391 C390 1.362 1_545 S
H392 C398 0.930 . S
H393 C401 0.930 . S
H394 C402 0.930 . S
H395 C403 0.930 . S
H396 C406 0.930 . S
H397 C407 0.930 . S
C398 H392 0.930 . S
C398 C399 1.355 1_554 S
C398 C400 1.415 . S
C399 C398 1.355 1_556 S
C399 C401 1.419 . S
C400 C398 1.415 . S
C400 C405 1.425 1_554 S
C400 C407 1.409 . S
C401 H393 0.930 . S
C401 C399 1.419 . S
C401 C402 1.362 . S
C402 H394 0.930 . S
C402 C401 1.362 . S
C402 C405 1.409 . S
C403 H395 0.930 . S
C403 C404 1.355 1_556 S
C403 C405 1.415 . S
C404 C403 1.355 1_554 S
C404 C406 1.419 . S
C405 C400 1.425 1_556 S
C405 C402 1.409 . S
C405 C403 1.415 . S
C406 H396 0.930 . S
C406 C404 1.419 . S
C406 C407 1.362 . S
C407 H397 0.930 . S
C407 C400 1.409 . S
C407 C406 1.362 . S
H408 C414 0.930 . S
H409 C417 0.930 . S
H410 C418 0.930 . S
H411 C419 0.930 . S
H412 C422 0.930 . S
H413 C423 0.930 . S
C414 H408 0.930 . S
C414 C415 1.355 . S
C414 C416 1.415 . S
C415 C414 1.355 . S
C415 C417 1.419 . S
C416 C414 1.415 . S
C416 C421 1.425 . S
C416 C423 1.409 . S
C417 H409 0.930 . S
C417 C415 1.419 . S
C417 C418 1.362 . S
C418 H410 0.930 . S
C418 C417 1.362 . S
C418 C421 1.409 . S
C419 H411 0.930 . S
C419 C420 1.355 . S
C419 C421 1.415 . S
C420 C419 1.355 . S
C420 C422 1.419 . S
C421 C416 1.425 . S
C421 C418 1.409 . S
C421 C419 1.415 . S
C422 H412 0.930 . S
C422 C420 1.419 . S
C422 C423 1.362 . S
C423 H413 0.930 . S
C423 C416 1.409 . S
C423 C422 1.362 . S
H424 C430 0.930 1_565 S
H425 C433 0.930 . S
H426 C434 0.930 . S
H427 C435 0.930 1_545 S
H428 C438 0.930 . S
H429 C439 0.930 . S
C430 H424 0.930 1_545 S
C430 C431 1.355 1_556 S
C430 C432 1.415 1_545 S
C431 C430 1.355 1_554 S
C431 C433 1.419 . S
C432 C430 1.415 1_565 S
C432 C437 1.425 1_466 S
C432 C439 1.409 . S
C433 H425 0.930 . S
C433 C431 1.419 . S
C433 C434 1.362 1_455 S
C434 H426 0.930 . S
C434 C433 1.362 1_655 S
C434 C437 1.409 . S
C435 H427 0.930 1_565 S
C435 C436 1.355 1_554 S
C435 C437 1.415 1_565 S
C436 C435 1.355 1_556 S
C436 C438 1.419 . S
C437 C432 1.425 1_644 S
C437 C434 1.409 . S
C437 C435 1.415 1_545 S
C438 H428 0.930 . S
C438 C436 1.419 . S
C438 C439 1.362 1_655 S
C439 H429 0.930 . S
C439 C432 1.409 . S
C439 C438 1.362 1_455 S
H440 C446 0.930 . S
H441 C449 0.930 . S
H442 C450 0.930 . S
H443 C451 0.930 . S
H444 C454 0.930 . S
H445 C455 0.930 . S
C446 H440 0.930 . S
C446 C447 1.355 . S
C446 C448 1.415 1_655 S
C447 C446 1.355 . S
C447 C449 1.419 1_545 S
C448 C446 1.415 1_455 S
C448 C453 1.425 1_445 S
C448 C455 1.409 . S
C449 H441 0.930 . S
C449 C447 1.419 1_565 S
C449 C450 1.362 . S
C450 H442 0.930 . S
C450 C449 1.362 . S
C450 C453 1.409 . S
C451 H443 0.930 . S
C451 C452 1.355 . S
C451 C453 1.415 1_455 S
C452 C451 1.355 . S
C452 C454 1.419 1_565 S
C453 C448 1.425 1_665 S
C453 C450 1.409 . S
C453 C451 1.415 1_655 S
C454 H444 0.930 . S
C454 C452 1.419 1_545 S
C454 C455 1.362 . S
C455 H445 0.930 . S
C455 C448 1.409 . S
C455 C454 1.362 . S
H456 C462 0.930 . S
H457 C465 0.930 . S
H458 C466 0.930 . S
H459 C467 0.930 . S
H460 C470 0.930 . S
H461 C471 0.930 . S
C462 H456 0.930 . S
C462 C463 1.355 . S
C462 C464 1.415 . S
C463 C462 1.355 . S
C463 C465 1.419 . S
C464 C462 1.415 . S
C464 C469 1.425 1_554 S
C464 C471 1.409 . S
C465 H457 0.930 . S
C465 C463 1.419 . S
C465 C466 1.362 1_554 S
C466 H458 0.930 . S
C466 C465 1.362 1_556 S
C466 C469 1.409 . S
C467 H459 0.930 . S
C467 C468 1.355 . S
C467 C469 1.415 . S
C468 C467 1.355 . S
C468 C470 1.419 . S
C469 C464 1.425 1_556 S
C469 C466 1.409 . S
C469 C467 1.415 . S
C470 H460 0.930 . S
C470 C468 1.419 . S
C470 C471 1.362 1_556 S
C471 H461 0.930 . S
C471 C464 1.409 . S
C471 C470 1.362 1_554 S
H472 C478 0.930 . S
H473 C481 0.930 . S
H474 C482 0.930 . S
H475 C483 0.930 . S
H476 C486 0.930 . S
H477 C487 0.930 . S
C478 H472 0.930 . S
C478 C479 1.355 . S
C478 C480 1.415 . S
C479 C478 1.355 . S
C479 C481 1.419 . S
C480 C478 1.415 . S
C480 C485 1.425 . S
C480 C487 1.409 . S
C481 H473 0.930 . S
C481 C479 1.419 . S
C481 C482 1.362 . S
C482 H474 0.930 . S
C482 C481 1.362 . S
C482 C485 1.409 . S
C483 H475 0.930 . S
C483 C484 1.355 . S
C483 C485 1.415 . S
C484 C483 1.355 . S
C484 C486 1.419 . S
C485 C480 1.425 . S
C485 C482 1.409 . S
C485 C483 1.415 . S
C486 H476 0.930 . S
C486 C484 1.419 . S
C486 C487 1.362 . S
C487 H477 0.930 . S
C487 C480 1.409 . S
C487 C486 1.362 . S
H488 C494 0.930 . S
H489 C497 0.930 . S
H490 C498 0.930 . S
H491 C499 0.930 . S
H492 C502 0.930 . S
H493 C503 0.930 . S
C494 H488 0.930 . S
C494 C495 1.355 . S
C494 C496 1.415 . S
C495 C494 1.355 . S
C495 C497 1.419 1_554 S
C496 C494 1.415 . S
C496 C501 1.425 1_554 S
C496 C503 1.409 . S
C497 H489 0.930 . S
C497 C495 1.419 1_556 S
C497 C498 1.362 . S
C498 H490 0.930 . S
C498 C497 1.362 . S
C498 C501 1.409 . S
C499 H491 0.930 . S
C499 C500 1.355 . S
C499 C501 1.415 . S
C500 C499 1.355 . S
C500 C502 1.419 1_556 S
C501 C496 1.425 1_556 S
C501 C498 1.409 . S
C501 C499 1.415 . S
C502 H492 0.930 . S
C502 C500 1.419 1_554 S
C502 C503 1.362 . S
C503 H493 0.930 . S
C503 C496 1.409 . S
C503 C502 1.362 . S
H504 C510 0.930 . S
H505 C513 0.930 . S
H506 C514 0.930 . S
H507 C515 0.930 . S
H508 C518 0.930 . S
H509 C519 0.930 . S
C510 H504 0.930 . S
C510 C511 1.355 . S
C510 C512 1.415 . S
C511 C510 1.355 . S
C511 C513 1.419 . S
C512 C510 1.415 . S
C512 C517 1.425 . S
C512 C519 1.409 . S
C513 H505 0.930 . S
C513 C511 1.419 . S
C513 C514 1.362 . S
C514 H506 0.930 . S
C514 C513 1.362 . S
C514 C517 1.409 . S
C515 H507 0.930 . S
C515 C516 1.355 . S
C515 C517 1.415 . S
C516 C515 1.355 . S
C516 C518 1.419 . S
C517 C512 1.425 . S
C517 C514 1.409 . S
C517 C515 1.415 . S
C518 H508 0.930 . S
C518 C516 1.419 . S
C518 C519 1.362 . S
C519 H509 0.930 . S
C519 C512 1.409 . S
C519 C518 1.362 . S
H520 C526 0.930 . S
H521 C529 0.930 . S
H522 C530 0.930 . S
H523 C531 0.930 . S
H524 C534 0.930 . S
H525 C535 0.930 . S
C526 H520 0.930 . S
C526 C527 1.355 . S
C526 C528 1.415 . S
C527 C526 1.355 . S
C527 C529 1.419 . S
C528 C526 1.415 . S
C528 C533 1.425 . S
C528 C535 1.409 . S
C529 H521 0.930 . S
C529 C527 1.419 . S
C529 C530 1.362 . S
C530 H522 0.930 . S
C530 C529 1.362 . S
C530 C533 1.409 . S
C531 H523 0.930 . S
C531 C532 1.355 . S
C531 C533 1.415 . S
C532 C531 1.355 . S
C532 C534 1.419 . S
C533 C528 1.425 . S
C533 C530 1.409 . S
C533 C531 1.415 . S
C534 H524 0.930 . S
C534 C532 1.419 . S
C534 C535 1.362 . S
C535 H525 0.930 . S
C535 C528 1.409 . S
C535 C534 1.362 . S
H536 C542 0.930 . S
H537 C545 0.930 . S
H538 C546 0.930 . S
H539 C547 0.930 . S
H540 C550 0.930 . S
H541 C551 0.930 . S
C542 H536 0.930 . S
C542 C543 1.355 . S
C542 C544 1.415 . S
C543 C542 1.355 . S
C543 C545 1.419 . S
C544 C542 1.415 . S
C544 C549 1.425 . S
C544 C551 1.409 . S
C545 H537 0.930 . S
C545 C543 1.419 . S
C545 C546 1.362 . S
C546 H538 0.930 . S
C546 C545 1.362 . S
C546 C549 1.409 . S
C547 H539 0.930 . S
C547 C548 1.355 . S
C547 C549 1.415 . S
C548 C547 1.355 . S
C548 C550 1.419 . S
C549 C544 1.425 . S
C549 C546 1.409 . S
C549 C547 1.415 . S
C550 H540 0.930 . S
C550 C548 1.419 . S
C550 C551 1.362 . S
C551 H541 0.930 . S
C551 C544 1.409 . S
C551 C550 1.362 . S
H552 C558 0.930 . S
H553 C561 0.930 . S
H554 C562 0.930 1_655 S
H555 C563 0.930 . S
H556 C566 0.930 . S
H557 C567 0.930 1_455 S
C558 H552 0.930 . S
C558 C559 1.355 . S
C558 C560 1.415 . S
C559 C558 1.355 . S
C559 C561 1.419 . S
C560 C558 1.415 . S
C560 C565 1.425 1_455 S
C560 C567 1.409 1_455 S
C561 H553 0.930 . S
C561 C559 1.419 . S
C561 C562 1.362 . S
C562 H554 0.930 1_455 S
C562 C561 1.362 . S
C562 C565 1.409 1_455 S
C563 H555 0.930 . S
C563 C564 1.355 . S
C563 C565 1.415 . S
C564 C563 1.355 . S
C564 C566 1.419 . S
C565 C560 1.425 1_655 S
C565 C562 1.409 1_655 S
C565 C563 1.415 . S
C566 H556 0.930 . S
C566 C564 1.419 . S
C566 C567 1.362 . S
C567 H557 0.930 1_655 S
C567 C560 1.409 1_655 S
C567 C566 1.362 . S
H568 C574 0.930 . S
H569 C577 0.930 . S
H570 C578 0.930 1_655 S
H571 C579 0.930 . S
H572 C582 0.930 . S
H573 C583 0.930 1_455 S
C574 H568 0.930 . S
C574 C575 1.355 . S
C574 C576 1.415 . S
C575 C574 1.355 . S
C575 C577 1.419 . S
C576 C574 1.415 . S
C576 C581 1.425 1_455 S
C576 C583 1.409 1_455 S
C577 H569 0.930 . S
C577 C575 1.419 . S
C577 C578 1.362 . S
C578 H570 0.930 1_455 S
C578 C577 1.362 . S
C578 C581 1.409 1_455 S
C579 H571 0.930 . S
C579 C580 1.355 . S
C579 C581 1.415 . S
C580 C579 1.355 . S
C580 C582 1.419 . S
C581 C576 1.425 1_655 S
C581 C578 1.409 1_655 S
C581 C579 1.415 . S
C582 H572 0.930 . S
C582 C580 1.419 . S
C582 C583 1.362 . S
C583 H573 0.930 1_655 S
C583 C576 1.409 1_655 S
C583 C582 1.362 . S
C271 C107 1.867 . S
C276 N5 1.881 . S
C287 N38 1.872 . S
C292 C74 1.878 . S
C303 C41 1.856 . S
C308 N71 1.890 . S
C319 C8 1.889 . S
C324 N104 1.864 . S
C335 N137 1.863 . S
C340 C239 1.889 . S
C351 C206 1.876 . S
C356 N170 1.874 . S
C367 N203 1.902 . S
C372 C173 1.840 . S
C383 N236 1.900 . S
C388 C140 1.844 . S
C399 C28 1.013 1_556 S
C404 C94 1.013 1_554 S
C415 C61 0.999 . S
C420 C127 0.999 . S
C431 C226 0.950 1_554 S
C436 C160 0.950 1_556 S
C447 C259 0.963 . S
C452 C193 0.963 . S
C463 C17 1.529 . S
C468 C215 1.529 . S
C479 C50 1.508 . S
C484 C248 1.508 . S
C495 C149 1.493 . S
C500 C83 1.493 . S
C511 C182 1.520 . S
C516 C116 1.520 . S
C527 N47 0.825 . S
C532 N14 0.826 . S
C543 N113 0.842 . S
C548 N80 0.836 . S
C559 N179 0.825 . S
C564 N146 0.826 . S
C575 N212 0.827 . S
C580 N245 0.826 . S
