# Generated by pormake.
# Topology ana, (4)-cn, num edge types: 1
# Building blocks:
#     Node 0, Type 0, BuildingBlock: KUFVIS_clean_sbu_0, # of connection points: 4
#     Node 1, Type 0, BuildingBlock: KUFVIS_clean_sbu_0, # of connection points: 4
#     Node 2, Type 0, BuildingBlock: KUFVIS_clean_sbu_0, # of connection points: 4
#     Node 3, Type 0, BuildingBlock: KUFVIS_clean_sbu_0, # of connection points: 4
#     Node 4, Type 0, BuildingBlock: KUFVIS_clean_sbu_0, # of connection points: 4
#     Node 5, Type 0, BuildingBlock: KUFVIS_clean_sbu_0, # of connection points: 4
#     Node 6, Type 0, BuildingBlock: KUFVIS_clean_sbu_0, # of connection points: 4
#     Node 7, Type 0, BuildingBlock: KUFVIS_clean_sbu_0, # of connection points: 4
#     Node 8, Type 0, BuildingBlock: KUFVIS_clean_sbu_0, # of connection points: 4
#     Node 9, Type 0, BuildingBlock: KUFVIS_clean_sbu_0, # of connection points: 4
#     Node 10, Type 0, BuildingBlock: KUFVIS_clean_sbu_0, # of connection points: 4
#     Node 11, Type 0, BuildingBlock: KUFVIS_clean_sbu_0, # of connection points: 4
#     Node 12, Type 0, BuildingBlock: KUFVIS_clean_sbu_0, # of connection points: 4
#     Node 13, Type 0, BuildingBlock: KUFVIS_clean_sbu_0, # of connection points: 4
#     Node 14, Type 0, BuildingBlock: KUFVIS_clean_sbu_0, # of connection points: 4
#     Node 15, Type 0, BuildingBlock: KUFVIS_clean_sbu_0, # of connection points: 4
#     Node 16, Type 0, BuildingBlock: KUFVIS_clean_sbu_0, # of connection points: 4
#     Node 17, Type 0, BuildingBlock: KUFVIS_clean_sbu_0, # of connection points: 4
#     Node 18, Type 0, BuildingBlock: KUFVIS_clean_sbu_0, # of connection points: 4
#     Node 19, Type 0, BuildingBlock: KUFVIS_clean_sbu_0, # of connection points: 4
#     Node 20, Type 0, BuildingBlock: KUFVIS_clean_sbu_0, # of connection points: 4
#     Node 21, Type 0, BuildingBlock: KUFVIS_clean_sbu_0, # of connection points: 4
#     Node 22, Type 0, BuildingBlock: KUFVIS_clean_sbu_0, # of connection points: 4
#     Node 23, Type 0, BuildingBlock: KUFVIS_clean_sbu_0, # of connection points: 4
#     Node 24, Type 0, BuildingBlock: KUFVIS_clean_sbu_0, # of connection points: 4
#     Node 25, Type 0, BuildingBlock: KUFVIS_clean_sbu_0, # of connection points: 4
#     Node 26, Type 0, BuildingBlock: KUFVIS_clean_sbu_0, # of connection points: 4
#     Node 27, Type 0, BuildingBlock: KUFVIS_clean_sbu_0, # of connection points: 4
#     Node 28, Type 0, BuildingBlock: KUFVIS_clean_sbu_0, # of connection points: 4
#     Node 29, Type 0, BuildingBlock: KUFVIS_clean_sbu_0, # of connection points: 4
#     Node 30, Type 0, BuildingBlock: KUFVIS_clean_sbu_0, # of connection points: 4
#     Node 31, Type 0, BuildingBlock: KUFVIS_clean_sbu_0, # of connection points: 4
#     Node 32, Type 0, BuildingBlock: KUFVIS_clean_sbu_0, # of connection points: 4
#     Node 33, Type 0, BuildingBlock: KUFVIS_clean_sbu_0, # of connection points: 4
#     Node 34, Type 0, BuildingBlock: KUFVIS_clean_sbu_0, # of connection points: 4
#     Node 35, Type 0, BuildingBlock: KUFVIS_clean_sbu_0, # of connection points: 4
#     Node 36, Type 0, BuildingBlock: KUFVIS_clean_sbu_0, # of connection points: 4
#     Node 37, Type 0, BuildingBlock: KUFVIS_clean_sbu_0, # of connection points: 4
#     Node 38, Type 0, BuildingBlock: KUFVIS_clean_sbu_0, # of connection points: 4
#     Node 39, Type 0, BuildingBlock: KUFVIS_clean_sbu_0, # of connection points: 4
#     Node 40, Type 0, BuildingBlock: KUFVIS_clean_sbu_0, # of connection points: 4
#     Node 41, Type 0, BuildingBlock: KUFVIS_clean_sbu_0, # of connection points: 4
#     Node 42, Type 0, BuildingBlock: KUFVIS_clean_sbu_0, # of connection points: 4
#     Node 43, Type 0, BuildingBlock: KUFVIS_clean_sbu_0, # of connection points: 4
#     Node 44, Type 0, BuildingBlock: KUFVIS_clean_sbu_0, # of connection points: 4
#     Node 45, Type 0, BuildingBlock: KUFVIS_clean_sbu_0, # of connection points: 4
#     Node 46, Type 0, BuildingBlock: KUFVIS_clean_sbu_0, # of connection points: 4
#     Node 47, Type 0, BuildingBlock: KUFVIS_clean_sbu_0, # of connection points: 4
#     Edge 48, Type (0, 0), BuildingBlock: CIFDUS_clean_linker_0, # of connection points: 2
#     Edge 49, Type (0, 0), BuildingBlock: CIFDUS_clean_linker_0, # of connection points: 2
#     Edge 50, Type (0, 0), BuildingBlock: CIFDUS_clean_linker_0, # of connection points: 2
#     Edge 51, Type (0, 0), BuildingBlock: CIFDUS_clean_linker_0, # of connection points: 2
#     Edge 52, Type (0, 0), BuildingBlock: CIFDUS_clean_linker_0, # of connection points: 2
#     Edge 53, Type (0, 0), BuildingBlock: CIFDUS_clean_linker_0, # of connection points: 2
#     Edge 54, Type (0, 0), BuildingBlock: CIFDUS_clean_linker_0, # of connection points: 2
#     Edge 55, Type (0, 0), BuildingBlock: CIFDUS_clean_linker_0, # of connection points: 2
#     Edge 56, Type (0, 0), BuildingBlock: CIFDUS_clean_linker_0, # of connection points: 2
#     Edge 57, Type (0, 0), BuildingBlock: CIFDUS_clean_linker_0, # of connection points: 2
#     Edge 58, Type (0, 0), BuildingBlock: CIFDUS_clean_linker_0, # of connection points: 2
#     Edge 59, Type (0, 0), BuildingBlock: CIFDUS_clean_linker_0, # of connection points: 2
#     Edge 60, Type (0, 0), BuildingBlock: CIFDUS_clean_linker_0, # of connection points: 2
#     Edge 61, Type (0, 0), BuildingBlock: CIFDUS_clean_linker_0, # of connection points: 2
#     Edge 62, Type (0, 0), BuildingBlock: CIFDUS_clean_linker_0, # of connection points: 2
#     Edge 63, Type (0, 0), BuildingBlock: CIFDUS_clean_linker_0, # of connection points: 2
#     Edge 64, Type (0, 0), BuildingBlock: CIFDUS_clean_linker_0, # of connection points: 2
#     Edge 65, Type (0, 0), BuildingBlock: CIFDUS_clean_linker_0, # of connection points: 2
#     Edge 66, Type (0, 0), BuildingBlock: CIFDUS_clean_linker_0, # of connection points: 2
#     Edge 67, Type (0, 0), BuildingBlock: CIFDUS_clean_linker_0, # of connection points: 2
#     Edge 68, Type (0, 0), BuildingBlock: CIFDUS_clean_linker_0, # of connection points: 2
#     Edge 69, Type (0, 0), BuildingBlock: CIFDUS_clean_linker_0, # of connection points: 2
#     Edge 70, Type (0, 0), BuildingBlock: CIFDUS_clean_linker_0, # of connection points: 2
#     Edge 71, Type (0, 0), BuildingBlock: CIFDUS_clean_linker_0, # of connection points: 2
#     Edge 72, Type (0, 0), BuildingBlock: CIFDUS_clean_linker_0, # of connection points: 2
#     Edge 73, Type (0, 0), BuildingBlock: CIFDUS_clean_linker_0, # of connection points: 2
#     Edge 74, Type (0, 0), BuildingBlock: CIFDUS_clean_linker_0, # of connection points: 2
#     Edge 75, Type (0, 0), BuildingBlock: CIFDUS_clean_linker_0, # of connection points: 2
#     Edge 76, Type (0, 0), BuildingBlock: CIFDUS_clean_linker_0, # of connection points: 2
#     Edge 77, Type (0, 0), BuildingBlock: CIFDUS_clean_linker_0, # of connection points: 2
#     Edge 78, Type (0, 0), BuildingBlock: CIFDUS_clean_linker_0, # of connection points: 2
#     Edge 79, Type (0, 0), BuildingBlock: CIFDUS_clean_linker_0, # of connection points: 2
#     Edge 80, Type (0, 0), BuildingBlock: CIFDUS_clean_linker_0, # of connection points: 2
#     Edge 81, Type (0, 0), BuildingBlock: CIFDUS_clean_linker_0, # of connection points: 2
#     Edge 82, Type (0, 0), BuildingBlock: CIFDUS_clean_linker_0, # of connection points: 2
#     Edge 83, Type (0, 0), BuildingBlock: CIFDUS_clean_linker_0, # of connection points: 2
#     Edge 84, Type (0, 0), BuildingBlock: CIFDUS_clean_linker_0, # of connection points: 2
#     Edge 85, Type (0, 0), BuildingBlock: CIFDUS_clean_linker_0, # of connection points: 2
#     Edge 86, Type (0, 0), BuildingBlock: CIFDUS_clean_linker_0, # of connection points: 2
#     Edge 87, Type (0, 0), BuildingBlock: CIFDUS_clean_linker_0, # of connection points: 2
#     Edge 88, Type (0, 0), BuildingBlock: CIFDUS_clean_linker_0, # of connection points: 2
#     Edge 89, Type (0, 0), BuildingBlock: CIFDUS_clean_linker_0, # of connection points: 2
#     Edge 90, Type (0, 0), BuildingBlock: CIFDUS_clean_linker_0, # of connection points: 2
#     Edge 91, Type (0, 0), BuildingBlock: CIFDUS_clean_linker_0, # of connection points: 2
#     Edge 92, Type (0, 0), BuildingBlock: CIFDUS_clean_linker_0, # of connection points: 2
#     Edge 93, Type (0, 0), BuildingBlock: CIFDUS_clean_linker_0, # of connection points: 2
#     Edge 94, Type (0, 0), BuildingBlock: CIFDUS_clean_linker_0, # of connection points: 2
#     Edge 95, Type (0, 0), BuildingBlock: CIFDUS_clean_linker_0, # of connection points: 2
#     Edge 96, Type (0, 0), BuildingBlock: CIFDUS_clean_linker_0, # of connection points: 2
#     Edge 97, Type (0, 0), BuildingBlock: CIFDUS_clean_linker_0, # of connection points: 2
#     Edge 98, Type (0, 0), BuildingBlock: CIFDUS_clean_linker_0, # of connection points: 2
#     Edge 99, Type (0, 0), BuildingBlock: CIFDUS_clean_linker_0, # of connection points: 2
#     Edge 100, Type (0, 0), BuildingBlock: CIFDUS_clean_linker_0, # of connection points: 2
#     Edge 101, Type (0, 0), BuildingBlock: CIFDUS_clean_linker_0, # of connection points: 2
#     Edge 102, Type (0, 0), BuildingBlock: CIFDUS_clean_linker_0, # of connection points: 2
#     Edge 103, Type (0, 0), BuildingBlock: CIFDUS_clean_linker_0, # of connection points: 2
#     Edge 104, Type (0, 0), BuildingBlock: CIFDUS_clean_linker_0, # of connection points: 2
#     Edge 105, Type (0, 0), BuildingBlock: CIFDUS_clean_linker_0, # of connection points: 2
#     Edge 106, Type (0, 0), BuildingBlock: CIFDUS_clean_linker_0, # of connection points: 2
#     Edge 107, Type (0, 0), BuildingBlock: CIFDUS_clean_linker_0, # of connection points: 2
#     Edge 108, Type (0, 0), BuildingBlock: CIFDUS_clean_linker_0, # of connection points: 2
#     Edge 109, Type (0, 0), BuildingBlock: CIFDUS_clean_linker_0, # of connection points: 2
#     Edge 110, Type (0, 0), BuildingBlock: CIFDUS_clean_linker_0, # of connection points: 2
#     Edge 111, Type (0, 0), BuildingBlock: CIFDUS_clean_linker_0, # of connection points: 2
#     Edge 112, Type (0, 0), BuildingBlock: CIFDUS_clean_linker_0, # of connection points: 2
#     Edge 113, Type (0, 0), BuildingBlock: CIFDUS_clean_linker_0, # of connection points: 2
#     Edge 114, Type (0, 0), BuildingBlock: CIFDUS_clean_linker_0, # of connection points: 2
#     Edge 115, Type (0, 0), BuildingBlock: CIFDUS_clean_linker_0, # of connection points: 2
#     Edge 116, Type (0, 0), BuildingBlock: CIFDUS_clean_linker_0, # of connection points: 2
#     Edge 117, Type (0, 0), BuildingBlock: CIFDUS_clean_linker_0, # of connection points: 2
#     Edge 118, Type (0, 0), BuildingBlock: CIFDUS_clean_linker_0, # of connection points: 2
#     Edge 119, Type (0, 0), BuildingBlock: CIFDUS_clean_linker_0, # of connection points: 2
#     Edge 120, Type (0, 0), BuildingBlock: CIFDUS_clean_linker_0, # of connection points: 2
#     Edge 121, Type (0, 0), BuildingBlock: CIFDUS_clean_linker_0, # of connection points: 2
#     Edge 122, Type (0, 0), BuildingBlock: CIFDUS_clean_linker_0, # of connection points: 2
#     Edge 123, Type (0, 0), BuildingBlock: CIFDUS_clean_linker_0, # of connection points: 2
#     Edge 124, Type (0, 0), BuildingBlock: CIFDUS_clean_linker_0, # of connection points: 2
#     Edge 125, Type (0, 0), BuildingBlock: CIFDUS_clean_linker_0, # of connection points: 2
#     Edge 126, Type (0, 0), BuildingBlock: CIFDUS_clean_linker_0, # of connection points: 2
#     Edge 127, Type (0, 0), BuildingBlock: CIFDUS_clean_linker_0, # of connection points: 2
#     Edge 128, Type (0, 0), BuildingBlock: CIFDUS_clean_linker_0, # of connection points: 2
#     Edge 129, Type (0, 0), BuildingBlock: CIFDUS_clean_linker_0, # of connection points: 2
#     Edge 130, Type (0, 0), BuildingBlock: CIFDUS_clean_linker_0, # of connection points: 2
#     Edge 131, Type (0, 0), BuildingBlock: CIFDUS_clean_linker_0, # of connection points: 2
#     Edge 132, Type (0, 0), BuildingBlock: CIFDUS_clean_linker_0, # of connection points: 2
#     Edge 133, Type (0, 0), BuildingBlock: CIFDUS_clean_linker_0, # of connection points: 2
#     Edge 134, Type (0, 0), BuildingBlock: CIFDUS_clean_linker_0, # of connection points: 2
#     Edge 135, Type (0, 0), BuildingBlock: CIFDUS_clean_linker_0, # of connection points: 2
#     Edge 136, Type (0, 0), BuildingBlock: CIFDUS_clean_linker_0, # of connection points: 2
#     Edge 137, Type (0, 0), BuildingBlock: CIFDUS_clean_linker_0, # of connection points: 2
#     Edge 138, Type (0, 0), BuildingBlock: CIFDUS_clean_linker_0, # of connection points: 2
#     Edge 139, Type (0, 0), BuildingBlock: CIFDUS_clean_linker_0, # of connection points: 2
#     Edge 140, Type (0, 0), BuildingBlock: CIFDUS_clean_linker_0, # of connection points: 2
#     Edge 141, Type (0, 0), BuildingBlock: CIFDUS_clean_linker_0, # of connection points: 2
#     Edge 142, Type (0, 0), BuildingBlock: CIFDUS_clean_linker_0, # of connection points: 2
#     Edge 143, Type (0, 0), BuildingBlock: CIFDUS_clean_linker_0, # of connection points: 2
# Relax obj value: 0.110
# Max RMSD: 0.149
# Mean RMSD: 0.127
data_MOF--net-ana--node1-KUFVIS_clean_sbu_0--edge1-CIFDUS_clean_linker_0
_symmetry_space_group_name_H-M    P1
_symmetry_Int_Tables_number       1
_symmetry_cell_setting            triclinic
loop_
_symmetry_equiv_pos_as_xyz
'x, y, z'
_cell_length_a     55.073149
_cell_length_b     57.143599
_cell_length_c     57.035612
_cell_angle_alpha  90.058259
_cell_angle_beta   90.066638
_cell_angle_gamma 90.457091
loop_
_atom_site_label
_atom_site_type_symbol
_atom_site_fract_x
_atom_site_fract_y
_atom_site_fract_z
_atom_type_partial_charge
Mn0 Mn 0.11445 0.16689 0.41366 0.0
Mn1 Mn 0.11535 0.10821 0.41034 0.0
C2 C 0.07869 0.14602 0.40534 0.0
C3 C 0.118 0.20359 0.39554 0.0
C4 C 0.11398 0.13402 0.45648 0.0
O5 O 0.1508 0.16083 0.41017 0.0
O6 O 0.14862 0.12162 0.4102 0.0
C7 C 0.13463 0.10578 0.36205 0.0
N8 N 0.11765 0.09941 0.37818 0.0
C9 C 0.10069 0.07046 0.35225 0.0
C10 C 0.11813 0.07651 0.33536 0.0
C11 C 0.13496 0.09451 0.34016 0.0
C12 C 0.1006 0.08307 0.3733 0.0
H13 H 0.14792 0.11919 0.36602 0.0
C14 C 0.16073 0.14078 0.40992 0.0
O15 O 0.1207 0.20136 0.41807 0.0
O16 O 0.11397 0.18457 0.38377 0.0
N17 N 0.08508 0.09168 0.41023 0.0
C18 C 0.06974 0.08781 0.42856 0.0
C19 C 0.05145 0.07066 0.42652 0.0
C20 C 0.04992 0.05688 0.40616 0.0
C21 C 0.06639 0.06072 0.38778 0.0
C22 C 0.08351 0.07874 0.39041 0.0
H23 H 0.07163 0.09757 0.4447 0.0
O24 O 0.07825 0.16688 0.41422 0.0
O25 O 0.10031 0.13784 0.40133 0.0
O26 O 0.11534 0.15464 0.4478 0.0
O27 O 0.11282 0.11555 0.44391 0.0
C28 C 0.06689 0.04699 0.36721 0.0
C29 C 0.08377 0.05208 0.3493 0.0
H30 H 0.11881 0.06742 0.3187 0.0
H31 H 0.14845 0.09932 0.32722 0.0
H32 H 0.03899 0.06762 0.44088 0.0
H33 H 0.0362 0.04325 0.40491 0.0
H34 H 0.05412 0.03265 0.36484 0.0
H35 H 0.08364 0.04171 0.3334 0.0
Mn36 Mn 0.09164 0.88508 0.67053 0.0
Mn37 Mn 0.10407 0.89191 0.61314 0.0
C38 C 0.09397 0.92214 0.65463 0.0
C39 C 0.10867 0.8809 0.70798 0.0
C40 C 0.05421 0.87787 0.63148 0.0
O41 O 0.10329 0.85293 0.66077 0.0
O42 O 0.11365 0.85987 0.62323 0.0
C43 C 0.15767 0.89065 0.61638 0.0
N44 N 0.13706 0.90199 0.60992 0.0
C45 C 0.16009 0.93505 0.59582 0.0
C46 C 0.18157 0.92365 0.60216 0.0
C47 C 0.18034 0.90137 0.61251 0.0
C48 C 0.13803 0.92344 0.59997 0.0
H49 H 0.15677 0.87361 0.62451 0.0
C50 C 0.11182 0.84634 0.64109 0.0
O51 O 0.08633 0.87437 0.70401 0.0
O52 O 0.12055 0.88944 0.69045 0.0
N53 N 0.0958 0.92203 0.60099 0.0
C54 C 0.07337 0.93113 0.59705 0.0
C55 C 0.07138 0.9536 0.58733 0.0
C56 C 0.09244 0.96642 0.58167 0.0
C57 C 0.11532 0.95657 0.58563 0.0
C58 C 0.11617 0.934 0.59511 0.0
H59 H 0.05713 0.92139 0.60145 0.0
O60 O 0.08321 0.91881 0.67455 0.0
O61 O 0.10355 0.90374 0.6451 0.0
O62 O 0.05907 0.87864 0.65351 0.0
O63 O 0.06985 0.88222 0.61545 0.0
C64 C 0.13731 0.96844 0.58096 0.0
C65 C 0.15968 0.95769 0.58606 0.0
H66 H 0.19909 0.93194 0.59938 0.0
H67 H 0.19684 0.89253 0.61758 0.0
H68 H 0.05366 0.96108 0.58433 0.0
H69 H 0.09084 0.98386 0.57442 0.0
H70 H 0.13723 0.98597 0.57375 0.0
H71 H 0.17645 0.96714 0.58273 0.0
Mn72 Mn 0.38453 0.8334 0.91684 0.0
Mn73 Mn 0.38181 0.89211 0.91031 0.0
C74 C 0.41997 0.85483 0.91101 0.0
C75 C 0.38214 0.79537 0.90202 0.0
C76 C 0.38 0.86838 0.95752 0.0
O77 O 0.34861 0.83835 0.91023 0.0
O78 O 0.3492 0.87749 0.907 0.0
C79 C 0.36795 0.89249 0.86019 0.0
N80 N 0.38319 0.89949 0.8777 0.0
C81 C 0.40298 0.92732 0.85241 0.0
C82 C 0.38756 0.92037 0.83405 0.0
C83 C 0.37014 0.90268 0.8379 0.0
C84 C 0.40068 0.91574 0.87393 0.0
H85 H 0.35404 0.87943 0.86332 0.0
C86 C 0.33803 0.8578 0.90711 0.0
O87 O 0.37799 0.79988 0.92394 0.0
O88 O 0.38752 0.81301 0.8886 0.0
N89 N 0.41133 0.90977 0.91298 0.0
C90 C 0.4235 0.91576 0.93295 0.0
C91 C 0.44181 0.93297 0.93208 0.0
C92 C 0.44638 0.94494 0.91104 0.0
C93 C 0.43262 0.93951 0.89105 0.0
C94 C 0.41546 0.92135 0.89267 0.0
H95 H 0.41928 0.90743 0.94945 0.0
O96 O 0.4204 0.83411 0.92024 0.0
O97 O 0.39872 0.86235 0.90442 0.0
O98 O 0.38089 0.84745 0.94977 0.0
O99 O 0.38053 0.88638 0.9443 0.0
C100 C 0.43462 0.95204 0.86984 0.0
C101 C 0.41999 0.94576 0.85044 0.0
H102 H 0.38876 0.92865 0.81701 0.0
H103 H 0.35807 0.89731 0.82387 0.0
H104 H 0.45192 0.93746 0.94776 0.0
H105 H 0.46005 0.95866 0.9106 0.0
H106 H 0.44756 0.96631 0.86815 0.0
H107 H 0.42194 0.95527 0.83413 0.0
Mn108 Mn 0.39214 0.12793 0.15786 0.0
Mn109 Mn 0.38074 0.11598 0.10102 0.0
C110 C 0.38569 0.08976 0.14558 0.0
C111 C 0.37629 0.13589 0.19515 0.0
C112 C 0.43114 0.12806 0.1197 0.0
O113 O 0.38311 0.15995 0.14454 0.0
O114 O 0.3734 0.14941 0.10752 0.0
C115 C 0.32737 0.12155 0.1014 0.0
N116 N 0.34718 0.10802 0.09738 0.0
C117 C 0.32202 0.07519 0.08629 0.0
C118 C 0.30135 0.08883 0.09016 0.0
C119 C 0.30405 0.1121 0.09776 0.0
C120 C 0.3448 0.08561 0.09003 0.0
H121 H 0.32935 0.13938 0.10743 0.0
C122 C 0.3754 0.16472 0.1239 0.0
O123 O 0.39887 0.14068 0.1903 0.0
O124 O 0.36311 0.1278 0.17819 0.0
N125 N 0.38692 0.08411 0.09268 0.0
C126 C 0.40864 0.07299 0.09087 0.0
C127 C 0.4091 0.0494 0.08396 0.0
C128 C 0.38727 0.03752 0.07894 0.0
C129 C 0.36517 0.0494 0.08073 0.0
C130 C 0.36586 0.07299 0.08742 0.0
H131 H 0.42546 0.08199 0.09482 0.0
O132 O 0.39705 0.09395 0.16505 0.0
O133 O 0.37863 0.10801 0.13404 0.0
O134 O 0.42544 0.12992 0.14139 0.0
O135 O 0.41569 0.12336 0.10356 0.0
C136 C 0.34246 0.03864 0.07658 0.0
C137 C 0.3209 0.05152 0.07937 0.0
H138 H 0.28333 0.08155 0.08755 0.0
H139 H 0.28818 0.12269 0.10091 0.0
H140 H 0.42623 0.04034 0.08267 0.0
H141 H 0.38768 0.01924 0.07392 0.0
H142 H 0.34135 0.02039 0.07152 0.0
H143 H 0.30354 0.04297 0.07642 0.0
Mn144 Mn 0.12794 0.83695 0.08589 0.0
Mn145 Mn 0.1234 0.84033 0.14473 0.0
C146 C 0.1621 0.84543 0.10856 0.0
C147 C 0.12517 0.85355 0.04856 0.0
C148 C 0.12624 0.79429 0.11868 0.0
O149 O 0.09149 0.84056 0.09045 0.0
O150 O 0.09106 0.84234 0.12976 0.0
C151 C 0.10676 0.8894 0.14705 0.0
N152 N 0.12221 0.87233 0.1541 0.0
C153 C 0.13799 0.89648 0.18513 0.0
C154 C 0.12207 0.9143 0.17844 0.0
C155 C 0.10673 0.91092 0.159 0.0
C156 C 0.13813 0.87596 0.17173 0.0
H157 H 0.09447 0.88647 0.13256 0.0
C158 C 0.08035 0.84256 0.10988 0.0
O159 O 0.12288 0.83117 0.05181 0.0
O160 O 0.1291 0.86636 0.06701 0.0
N161 N 0.1527 0.83894 0.16261 0.0
C162 C 0.16714 0.8201 0.16654 0.0
C163 C 0.18423 0.82088 0.18482 0.0
C164 C 0.18542 0.84053 0.1996 0.0
C165 C 0.16996 0.8595 0.19558 0.0
C166 C 0.15411 0.85815 0.17644 0.0
H167 H 0.16544 0.80448 0.15596 0.0
O168 O 0.16407 0.83682 0.08758 0.0
O169 O 0.14008 0.84932 0.11565 0.0
O170 O 0.12673 0.80307 0.09812 0.0
O171 O 0.12496 0.80672 0.13721 0.0
C172 C 0.16915 0.87943 0.2102 0.0
C173 C 0.1534 0.89803 0.20481 0.0
H174 H 0.12149 0.93064 0.18806 0.0
H175 H 0.09454 0.92466 0.15361 0.0
H176 H 0.19594 0.80609 0.18795 0.0
H177 H 0.19813 0.84077 0.21412 0.0
H178 H 0.18084 0.88078 0.22544 0.0
H179 H 0.15336 0.91347 0.21585 0.0
Mn180 Mn 0.41884 0.88536 0.35038 0.0
Mn181 Mn 0.35833 0.87745 0.3552 0.0
C182 C 0.40248 0.84803 0.35375 0.0
C183 C 0.45799 0.8899 0.36516 0.0
C184 C 0.38292 0.88714 0.30917 0.0
O185 O 0.40791 0.91813 0.35978 0.0
O186 O 0.36765 0.91097 0.36008 0.0
C187 C 0.35509 0.88796 0.40595 0.0
N188 N 0.35111 0.87303 0.38769 0.0
C189 C 0.33371 0.84401 0.41334 0.0
C190 C 0.3375 0.85913 0.4324 0.0
C191 C 0.34827 0.88118 0.42868 0.0
C192 C 0.34082 0.85175 0.39108 0.0
H193 H 0.36344 0.90489 0.4032 0.0
C194 C 0.38596 0.92494 0.36184 0.0
O195 O 0.4524 0.89634 0.34404 0.0
O196 O 0.44037 0.88239 0.37834 0.0
N197 N 0.3466 0.84608 0.35109 0.0
C198 C 0.34442 0.83347 0.33088 0.0
C199 C 0.33417 0.8109 0.3316 0.0
C200 C 0.32602 0.80163 0.35301 0.0
C201 C 0.32796 0.81513 0.37348 0.0
C202 C 0.33818 0.83758 0.37166 0.0
H203 H 0.35071 0.84048 0.31439 0.0
O204 O 0.42344 0.85131 0.34396 0.0
O205 O 0.39149 0.86669 0.3612 0.0
O206 O 0.404 0.89025 0.31787 0.0
O207 O 0.36434 0.88119 0.32121 0.0
C208 C 0.32047 0.80707 0.39568 0.0
C209 C 0.32339 0.82148 0.41561 0.0
H210 H 0.33233 0.85394 0.44998 0.0
H211 H 0.35133 0.89292 0.44332 0.0
H212 H 0.33269 0.80061 0.31571 0.0
H213 H 0.31837 0.78411 0.35354 0.0
H214 H 0.31263 0.78973 0.39766 0.0
H215 H 0.31774 0.81501 0.43261 0.0
Mn216 Mn 0.36819 0.16712 0.58687 0.0
Mn217 Mn 0.36886 0.16675 0.64587 0.0
C218 C 0.33179 0.16753 0.60764 0.0
C219 C 0.36789 0.14788 0.55053 0.0
C220 C 0.3751 0.21073 0.61819 0.0
O221 O 0.40289 0.15693 0.59324 0.0
O222 O 0.40148 0.16207 0.63209 0.0
C223 C 0.38036 0.11628 0.64864 0.0
N224 N 0.36678 0.13484 0.65555 0.0
C225 C 0.34723 0.11203 0.68554 0.0
C226 C 0.36123 0.0927 0.679 0.0
C227 C 0.37764 0.09475 0.66024 0.0
C228 C 0.35007 0.13272 0.67269 0.0
H229 H 0.39333 0.11798 0.63455 0.0
C230 C 0.41308 0.15792 0.6132 0.0
O231 O 0.37549 0.16938 0.55251 0.0
O232 O 0.36099 0.13755 0.56964 0.0
N233 N 0.33971 0.17104 0.66346 0.0
C234 C 0.32796 0.19146 0.66788 0.0
C235 C 0.31078 0.19245 0.68603 0.0
C236 C 0.30686 0.17282 0.70036 0.0
C237 C 0.32 0.15232 0.69625 0.0
C238 C 0.33613 0.15209 0.67728 0.0
H239 H 0.33177 0.20694 0.6577 0.0
O240 O 0.33319 0.17506 0.58627 0.0
O241 O 0.35179 0.15914 0.61645 0.0
O242 O 0.37673 0.20063 0.59821 0.0
O243 O 0.37055 0.19994 0.63727 0.0
C244 C 0.31738 0.13192 0.70997 0.0
C245 C 0.33067 0.11167 0.70436 0.0
H246 H 0.3595 0.07621 0.68823 0.0
H247 H 0.38845 0.0799 0.65502 0.0
H248 H 0.30104 0.20849 0.68933 0.0
H249 H 0.29387 0.17374 0.71457 0.0
H250 H 0.30483 0.1315 0.72457 0.0
H251 H 0.32816 0.09597 0.71473 0.0
Mn252 Mn 0.08457 0.13246 0.8459 0.0
Mn253 Mn 0.14361 0.1402 0.85967 0.0
C254 C 0.1001 0.16978 0.85157 0.0
C255 C 0.0446 0.12746 0.85923 0.0
C256 C 0.1262 0.12922 0.81018 0.0
O257 O 0.09467 0.09957 0.85571 0.0
O258 O 0.13354 0.10724 0.86564 0.0
C259 C 0.13937 0.13381 0.91097 0.0
N260 N 0.14616 0.14721 0.89234 0.0
C261 C 0.16029 0.17809 0.91774 0.0
C262 C 0.15361 0.16455 0.93722 0.0
C263 C 0.14306 0.14233 0.93381 0.0
C264 C 0.15627 0.16863 0.89541 0.0
H265 H 0.13115 0.11677 0.9084 0.0
C266 C 0.11548 0.09315 0.86312 0.0
O267 O 0.05067 0.12183 0.83792 0.0
O268 O 0.06188 0.13475 0.87279 0.0
N269 N 0.15595 0.1712 0.8547 0.0
C270 C 0.1607 0.18229 0.83405 0.0
C271 C 0.17088 0.20491 0.83437 0.0
C272 C 0.17628 0.21577 0.85588 0.0
C273 C 0.17165 0.20383 0.87689 0.0
C274 C 0.16166 0.18125 0.87547 0.0
H275 H 0.15656 0.17402 0.81748 0.0
O276 O 0.08022 0.16662 0.83981 0.0
O277 O 0.11019 0.15103 0.85982 0.0
O278 O 0.10334 0.12851 0.81451 0.0
O279 O 0.14226 0.13359 0.82584 0.0
C280 C 0.17616 0.21358 0.89919 0.0
C281 C 0.17045 0.20074 0.9196 0.0
H282 H 0.15632 0.17111 0.95487 0.0
H283 H 0.13774 0.13183 0.94876 0.0
H284 H 0.17443 0.214 0.81808 0.0
H285 H 0.18387 0.23332 0.85606 0.0
H286 H 0.18376 0.23104 0.90084 0.0
H287 H 0.17376 0.20852 0.93664 0.0
Mn288 Mn 0.15803 0.40276 0.11934 0.0
Mn289 Mn 0.09891 0.39241 0.10771 0.0
C290 C 0.14459 0.40149 0.08085 0.0
C291 C 0.19699 0.38852 0.12596 0.0
C292 C 0.11837 0.43914 0.12563 0.0
O293 O 0.14516 0.3899 0.15042 0.0
O294 O 0.10701 0.38032 0.13944 0.0
C295 C 0.09923 0.34066 0.10567 0.0
N296 N 0.09447 0.3616 0.09532 0.0
C297 C 0.07927 0.34255 0.06057 0.0
C298 C 0.08387 0.32077 0.07091 0.0
C299 C 0.09395 0.31984 0.09353 0.0
C300 C 0.0848 0.36271 0.07355 0.0
H301 H 0.10702 0.33988 0.12303 0.0
C302 C 0.1243 0.38085 0.15455 0.0
O303 O 0.19074 0.40922 0.13308 0.0
O304 O 0.18033 0.37587 0.11592 0.0
N305 N 0.08881 0.40309 0.07747 0.0
C306 C 0.08707 0.42545 0.06941 0.0
C307 C 0.07829 0.42944 0.04664 0.0
C308 C 0.07124 0.41043 0.03249 0.0
C309 C 0.073 0.38758 0.04125 0.0
C310 C 0.08176 0.3847 0.06411 0.0
H311 H 0.09249 0.44013 0.0802 0.0
O312 O 0.16482 0.41199 0.08615 0.0
O313 O 0.13298 0.39185 0.09821 0.0
O314 O 0.14087 0.43399 0.12535 0.0
O315 O 0.10151 0.42468 0.11998 0.0
C316 C 0.06685 0.36755 0.02803 0.0
C317 C 0.06994 0.34505 0.0377 0.0
H318 H 0.07998 0.30467 0.06154 0.0
H319 H 0.09767 0.3031 0.10157 0.0
H320 H 0.07703 0.44712 0.03999 0.0
H321 H 0.06468 0.41356 0.01487 0.0
H322 H 0.06009 0.36923 0.01027 0.0
H323 H 0.06553 0.32977 0.02722 0.0
Mn324 Mn 0.64888 0.0971 0.881 0.0
Mn325 Mn 0.58883 0.10638 0.88516 0.0
C326 C 0.6313 0.10287 0.91741 0.0
C327 C 0.68759 0.11385 0.87719 0.0
C328 C 0.61043 0.05833 0.87598 0.0
O329 O 0.63954 0.10481 0.84727 0.0
O330 O 0.59989 0.11278 0.85248 0.0
C331 C 0.58911 0.15766 0.87816 0.0
N332 N 0.58341 0.13873 0.8916 0.0
C333 C 0.56666 0.16321 0.92178 0.0
C334 C 0.57219 0.18297 0.90818 0.0
C335 C 0.58349 0.18018 0.88629 0.0
C336 C 0.5725 0.14121 0.91267 0.0
H337 H 0.59796 0.15557 0.86141 0.0
C338 C 0.61877 0.11082 0.83943 0.0
O339 O 0.68385 0.09184 0.87233 0.0
O340 O 0.66888 0.1259 0.88325 0.0
N341 N 0.57586 0.10077 0.91578 0.0
C342 C 0.57291 0.08002 0.92721 0.0
C343 C 0.56251 0.07979 0.94968 0.0
C344 C 0.55515 0.10087 0.96009 0.0
C345 C 0.55812 0.12197 0.94786 0.0
C346 C 0.56839 0.12108 0.92543 0.0
H347 H 0.57867 0.0638 0.91932 0.0
O348 O 0.6521 0.09262 0.91564 0.0
O349 O 0.62152 0.10946 0.89777 0.0
O350 O 0.63291 0.06428 0.87709 0.0
O351 O 0.59305 0.07276 0.87896 0.0
C352 C 0.55176 0.1439 0.95724 0.0
C353 C 0.55603 0.16451 0.94421 0.0
H354 H 0.56805 0.20039 0.91447 0.0
H355 H 0.58794 0.19536 0.87576 0.0
H356 H 0.56032 0.06344 0.95903 0.0
H357 H 0.54741 0.10066 0.97754 0.0
H358 H 0.54387 0.14515 0.97458 0.0
H359 H 0.55135 0.18129 0.95173 0.0
Mn360 Mn 0.84873 0.91533 0.38842 0.0
Mn361 Mn 0.90828 0.91745 0.40183 0.0
C362 C 0.8615 0.91126 0.42699 0.0
C363 C 0.81341 0.89463 0.37896 0.0
C364 C 0.87917 0.96064 0.39065 0.0
O365 O 0.86432 0.90968 0.35656 0.0
O366 O 0.90362 0.91217 0.36748 0.0
C367 C 0.91947 0.86794 0.3914 0.0
N368 N 0.91912 0.88615 0.40682 0.0
C369 C 0.93567 0.86221 0.43754 0.0
C370 C 0.93635 0.84324 0.42194 0.0
C371 C 0.92819 0.84613 0.39878 0.0
C372 C 0.92694 0.88357 0.42915 0.0
H373 H 0.91308 0.87004 0.37363 0.0
C374 C 0.887 0.90957 0.35184 0.0
O375 O 0.81555 0.91686 0.37458 0.0
O376 O 0.83221 0.88426 0.38768 0.0
N377 N 0.91526 0.92226 0.43439 0.0
C378 C 0.91248 0.94202 0.44748 0.0
C379 C 0.91933 0.94193 0.47121 0.0
C380 C 0.92904 0.92158 0.4812 0.0
C381 C 0.93198 0.90154 0.46731 0.0
C382 C 0.92505 0.90274 0.4437 0.0
H383 H 0.90484 0.95763 0.43994 0.0
O384 O 0.83978 0.91849 0.42231 0.0
O385 O 0.87522 0.90707 0.40896 0.0
O386 O 0.85923 0.9499 0.38642 0.0
O387 O 0.89849 0.95042 0.39747 0.0
C388 C 0.94109 0.8803 0.47606 0.0
C389 C 0.94291 0.86064 0.46119 0.0
H390 H 0.94292 0.82635 0.4276 0.0
H391 H 0.92855 0.83154 0.38667 0.0
H392 H 0.91694 0.95744 0.48183 0.0
H393 H 0.93401 0.92148 0.49958 0.0
H394 H 0.94648 0.87881 0.49426 0.0
H395 H 0.9497 0.84433 0.46819 0.0
Mn396 Mn 0.83852 0.09275 0.1276 0.0
Mn397 Mn 0.83856 0.1516 0.12938 0.0
C398 C 0.84011 0.11172 0.16341 0.0
C399 C 0.86011 0.05793 0.12507 0.0
C400 C 0.79292 0.1224 0.1214 0.0
O401 O 0.84626 0.10172 0.09389 0.0
O402 O 0.84784 0.14098 0.09708 0.0
C403 C 0.89135 0.15944 0.12311 0.0
N404 N 0.87082 0.16229 0.13606 0.0
C405 C 0.89305 0.18252 0.16637 0.0
C406 C 0.91439 0.17997 0.15327 0.0
C407 C 0.91353 0.16838 0.13155 0.0
C408 C 0.87143 0.17347 0.15696 0.0
H409 H 0.89083 0.15031 0.10653 0.0
C410 C 0.84973 0.12201 0.08512 0.0
O411 O 0.83723 0.0587 0.11949 0.0
O412 O 0.87042 0.07747 0.13115 0.0
N413 N 0.83029 0.16418 0.15942 0.0
C414 C 0.80834 0.16412 0.17043 0.0
C415 C 0.80623 0.17452 0.19265 0.0
C416 C 0.82666 0.18491 0.20328 0.0
C417 C 0.849 0.18498 0.1915 0.0
C418 C 0.84994 0.1746 0.16927 0.0
H419 H 0.79262 0.15599 0.16244 0.0
O420 O 0.83305 0.09008 0.16201 0.0
O421 O 0.84656 0.1215 0.14369 0.0
O422 O 0.80313 0.10245 0.12285 0.0
O423 O 0.80454 0.14182 0.12316 0.0
C424 C 0.87047 0.19448 0.20117 0.0
C425 C 0.89248 0.19324 0.18863 0.0
H426 H 0.93157 0.18664 0.15981 0.0
H427 H 0.92995 0.1662 0.1214 0.0
H428 H 0.78894 0.17438 0.20163 0.0
H429 H 0.82502 0.19265 0.22054 0.0
H430 H 0.87032 0.2025 0.21839 0.0
H431 H 0.90893 0.20032 0.19638 0.0
Mn432 Mn 0.34974 0.59286 0.62541 0.0
Mn433 Mn 0.35059 0.65159 0.62923 0.0
C434 C 0.35631 0.61098 0.66118 0.0
C435 C 0.37032 0.55768 0.6207 0.0
C436 C 0.30413 0.62297 0.62381 0.0
O437 O 0.35424 0.6029 0.59133 0.0
O438 O 0.35698 0.64208 0.59613 0.0
C439 C 0.40256 0.66012 0.6189 0.0
N440 N 0.38331 0.66208 0.63372 0.0
C441 C 0.40819 0.68078 0.66309 0.0
C442 C 0.42824 0.67911 0.64807 0.0
C443 C 0.4254 0.66874 0.62588 0.0
C444 C 0.38581 0.67213 0.65507 0.0
H445 H 0.40053 0.65192 0.60194 0.0
C446 C 0.35745 0.6236 0.58328 0.0
O447 O 0.34706 0.55894 0.61705 0.0
O448 O 0.38161 0.57704 0.62562 0.0
N449 N 0.34504 0.66259 0.66048 0.0
C450 C 0.32426 0.66157 0.67338 0.0
C451 C 0.32421 0.67059 0.6963 0.0
C452 C 0.34551 0.68052 0.7057 0.0
C453 C 0.36665 0.68145 0.69205 0.0
C454 C 0.36553 0.67246 0.66922 0.0
H455 H 0.3079 0.65375 0.66633 0.0
O456 O 0.34819 0.58965 0.6603 0.0
O457 O 0.36 0.62099 0.64106 0.0
O458 O 0.31419 0.60293 0.62423 0.0
O459 O 0.31608 0.64222 0.62521 0.0
C460 C 0.38892 0.6905 0.70038 0.0
C461 C 0.40967 0.69018 0.6859 0.0
H462 H 0.44594 0.68552 0.65347 0.0
H463 H 0.44082 0.66725 0.61425 0.0
H464 H 0.30784 0.66971 0.70676 0.0
H465 H 0.34548 0.68717 0.72349 0.0
H466 H 0.39036 0.69749 0.71799 0.0
H467 H 0.42675 0.69693 0.69261 0.0
Mn468 Mn 0.16537 0.58607 0.38364 0.0
Mn469 Mn 0.10553 0.58949 0.39576 0.0
C470 C 0.15228 0.58714 0.42226 0.0
C471 C 0.20295 0.60364 0.37611 0.0
C472 C 0.12995 0.54506 0.37908 0.0
O473 O 0.15059 0.5961 0.35215 0.0
O474 O 0.11179 0.60118 0.3636 0.0
C475 C 0.10027 0.64099 0.3961 0.0
N476 N 0.09794 0.62001 0.4072 0.0
C477 C 0.08129 0.63837 0.44152 0.0
C478 C 0.0834 0.66018 0.43042 0.0
C479 C 0.09299 0.66149 0.40763 0.0
C480 C 0.08882 0.61855 0.42914 0.0
H481 H 0.10766 0.64204 0.37859 0.0
C482 C 0.12862 0.60209 0.34808 0.0
O483 O 0.19824 0.58225 0.36977 0.0
O484 O 0.18536 0.61526 0.38564 0.0
N485 N 0.09702 0.57876 0.42647 0.0
C486 C 0.09739 0.55655 0.43513 0.0
C487 C 0.08908 0.55231 0.45802 0.0
C488 C 0.0803 0.57088 0.47167 0.0
C489 C 0.07983 0.59354 0.46227 0.0
C490 C 0.08821 0.59668 0.43931 0.0
H491 H 0.1041 0.54222 0.4247 0.0
O492 O 0.17351 0.57897 0.41712 0.0
O493 O 0.13948 0.59467 0.4047 0.0
O494 O 0.15164 0.55298 0.37912 0.0
O495 O 0.11144 0.55731 0.38435 0.0
C496 C 0.07175 0.61318 0.47492 0.0
C497 C 0.07246 0.63559 0.46454 0.0
H498 H 0.07791 0.67604 0.4393 0.0
H499 H 0.09478 0.67827 0.39899 0.0
H500 H 0.0895 0.53477 0.46515 0.0
H501 H 0.0741 0.56757 0.48939 0.0
H502 H 0.06528 0.61131 0.49275 0.0
H503 H 0.06655 0.6506 0.47457 0.0
Mn504 Mn 0.33982 0.41471 0.88026 0.0
Mn505 Mn 0.39813 0.39987 0.88913 0.0
C506 C 0.35347 0.40721 0.91787 0.0
C507 C 0.29994 0.40337 0.87284 0.0
C508 C 0.38211 0.44949 0.87819 0.0
O509 O 0.35115 0.40572 0.84746 0.0
O510 O 0.3892 0.39386 0.85573 0.0
C511 C 0.39368 0.34866 0.8826 0.0
N512 N 0.40002 0.36728 0.89626 0.0
C513 C 0.41249 0.342 0.92768 0.0
C514 C 0.40625 0.32252 0.91389 0.0
C515 C 0.39677 0.32588 0.89126 0.0
C516 C 0.40918 0.36426 0.91804 0.0
H517 H 0.38626 0.3512 0.86526 0.0
C518 C 0.37167 0.39745 0.84132 0.0
O519 O 0.30734 0.42459 0.86847 0.0
O520 O 0.31594 0.38873 0.88048 0.0
N521 N 0.40903 0.4049 0.92062 0.0
C522 C 0.41282 0.42552 0.93211 0.0
C523 C 0.42154 0.42525 0.95526 0.0
C524 C 0.4264 0.40382 0.96628 0.0
C525 C 0.42261 0.38283 0.954 0.0
C526 C 0.41406 0.3842 0.93091 0.0
H527 H 0.409 0.44203 0.92374 0.0
O528 O 0.33417 0.41961 0.9145 0.0
O529 O 0.3642 0.39962 0.89906 0.0
O530 O 0.35926 0.44552 0.87794 0.0
O531 O 0.39788 0.43368 0.8822 0.0
C532 C 0.42645 0.3606 0.96393 0.0
C533 C 0.42139 0.3402 0.95079 0.0
H534 H 0.40845 0.30492 0.92057 0.0
H535 H 0.3918 0.31094 0.88056 0.0
H536 H 0.42437 0.44152 0.96464 0.0
H537 H 0.43285 0.40367 0.98423 0.0
H538 H 0.43296 0.35899 0.98178 0.0
H539 H 0.42411 0.3232 0.95872 0.0
Mn540 Mn 0.8763 0.83571 0.59558 0.0
Mn541 Mn 0.88778 0.89127 0.61311 0.0
C542 C 0.9155 0.84733 0.60444 0.0
C543 C 0.86693 0.79648 0.60407 0.0
C544 C 0.87716 0.87805 0.56247 0.0
O545 O 0.84276 0.84768 0.60485 0.0
O546 O 0.85308 0.88343 0.61867 0.0
C547 C 0.88064 0.88514 0.66415 0.0
N548 N 0.89501 0.89173 0.64587 0.0
C549 C 0.92746 0.90292 0.67196 0.0
C550 C 0.91296 0.89638 0.6911 0.0
C551 C 0.88947 0.8874 0.68716 0.0
C552 C 0.91767 0.9003 0.64944 0.0
H553 H 0.8626 0.8782 0.66118 0.0
C554 C 0.8374 0.86726 0.6144 0.0
O555 O 0.8628 0.8054 0.58352 0.0
O556 O 0.87516 0.81069 0.62 0.0
N557 N 0.92074 0.90123 0.60877 0.0
C558 C 0.9327 0.90591 0.58838 0.0
C559 C 0.9566 0.91465 0.58922 0.0
C560 C 0.96785 0.9187 0.61098 0.0
C561 C 0.95505 0.91408 0.63172 0.0
C562 C 0.93122 0.90554 0.62979 0.0
H563 H 0.92414 0.90289 0.5716 0.0
O564 O 0.91161 0.8293 0.5911 0.0
O565 O 0.8964 0.85807 0.61212 0.0
O566 O 0.87561 0.85595 0.56567 0.0
O567 O 0.88107 0.89262 0.57908 0.0
C568 C 0.96513 0.91724 0.65423 0.0
C569 C 0.95137 0.9116 0.67433 0.0
H570 H 0.91973 0.89802 0.70887 0.0
H571 H 0.87822 0.88221 0.70184 0.0
H572 H 0.96637 0.91816 0.57313 0.0
H573 H 0.98638 0.92519 0.61155 0.0
H574 H 0.98356 0.92368 0.65627 0.0
H575 H 0.95943 0.91381 0.69153 0.0
Mn576 Mn 0.90726 0.13822 0.3373 0.0
Mn577 Mn 0.94748 0.10407 0.3092 0.0
C578 C 0.94489 0.13111 0.35463 0.0
C579 C 0.88951 0.17464 0.34428 0.0
C580 C 0.90288 0.08531 0.33443 0.0
O581 O 0.89409 0.13639 0.30344 0.0
O582 O 0.92585 0.1189 0.28586 0.0
C583 C 0.97596 0.13943 0.28279 0.0
N584 N 0.97505 0.12129 0.29822 0.0
C585 C 0.01859 0.1209 0.30166 0.0
C586 C 0.02003 0.13931 0.28547 0.0
C587 C 0.99861 0.1487 0.2761 0.0
C588 C 0.99552 0.11224 0.30748 0.0
H589 H 0.95953 0.14681 0.27574 0.0
C590 C 0.90548 0.12955 0.28512 0.0
O591 O 0.87805 0.1552 0.34855 0.0
O592 O 0.91096 0.173 0.335 0.0
N593 N 0.96961 0.08895 0.32984 0.0
C594 C 0.9648 0.07328 0.34724 0.0
C595 C 0.98404 0.06383 0.36007 0.0
C596 C 0.00795 0.07043 0.35471 0.0
C597 C 0.01255 0.08631 0.33652 0.0
C598 C 0.99262 0.09519 0.32435 0.0
H599 H 0.94645 0.06824 0.35152 0.0
O600 O 0.92669 0.13838 0.367 0.0
O601 O 0.94076 0.12888 0.33222 0.0
O602 O 0.89657 0.10446 0.34395 0.0
O603 O 0.92031 0.08373 0.31983 0.0
C604 C 0.03599 0.09435 0.33056 0.0
C605 C 0.03904 0.11143 0.31294 0.0
H606 H 0.03745 0.14668 0.28047 0.0
H607 H 0.99955 0.16311 0.26383 0.0
H608 H 0.98046 0.05162 0.37417 0.0
H609 H 0.02249 0.06344 0.36498 0.0
H610 H 0.05172 0.08813 0.33989 0.0
H611 H 0.05712 0.11783 0.30891 0.0
Mn612 Mn 0.60769 0.17443 0.08572 0.0
Mn613 Mn 0.60419 0.11822 0.10358 0.0
C614 C 0.57057 0.15881 0.09618 0.0
C615 C 0.61491 0.21381 0.09444 0.0
C616 C 0.60886 0.13224 0.05241 0.0
O617 O 0.64273 0.16626 0.09251 0.0
O618 O 0.63851 0.12959 0.10641 0.0
C619 C 0.61507 0.12591 0.15383 0.0
N620 N 0.59991 0.11763 0.13681 0.0
C621 C 0.57074 0.1047 0.16548 0.0
C622 C 0.58612 0.11293 0.18333 0.0
C623 C 0.60836 0.12362 0.17747 0.0
C624 C 0.57843 0.1074 0.14225 0.0
H625 H 0.63212 0.13425 0.14939 0.0
C626 C 0.65149 0.14761 0.10124 0.0
O627 O 0.61766 0.20568 0.07333 0.0
O628 O 0.60833 0.19898 0.11046 0.0
N629 N 0.57229 0.10476 0.10196 0.0
C630 C 0.55932 0.09822 0.08263 0.0
C631 C 0.53644 0.08755 0.08544 0.0
C632 C 0.52727 0.0835 0.10806 0.0
C633 C 0.54117 0.08995 0.12767 0.0
C634 C 0.56392 0.10036 0.12379 0.0
H635 H 0.56626 0.1013 0.0652 0.0
O636 O 0.57182 0.17742 0.08323 0.0
O637 O 0.59118 0.15011 0.10308 0.0
O638 O 0.60849 0.15436 0.05574 0.0
O639 O 0.60787 0.11735 0.06912 0.0
C640 C 0.53318 0.0868 0.15093 0.0
C641 C 0.54793 0.09422 0.16981 0.0
H642 H 0.58097 0.11129 0.20158 0.0
H643 H 0.62027 0.13013 0.19115 0.0
H644 H 0.52585 0.08259 0.07022 0.0
H645 H 0.5095 0.07552 0.11015 0.0
H646 H 0.51561 0.07892 0.15447 0.0
H647 H 0.54149 0.09191 0.1876 0.0
Mn648 Mn 0.58961 0.87064 0.84058 0.0
Mn649 Mn 0.54885 0.90081 0.80843 0.0
C650 C 0.54954 0.87306 0.85289 0.0
C651 C 0.60882 0.83554 0.84979 0.0
C652 C 0.58649 0.92421 0.84001 0.0
O653 O 0.60659 0.87342 0.80886 0.0
O654 O 0.57737 0.89247 0.78881 0.0
C655 C 0.53415 0.86391 0.77463 0.0
N656 N 0.52812 0.87982 0.79139 0.0
C657 C 0.48574 0.86989 0.78778 0.0
C658 C 0.49151 0.85354 0.77035 0.0
C659 C 0.51584 0.85054 0.76376 0.0
C660 C 0.50475 0.88305 0.79766 0.0
H661 H 0.55277 0.86144 0.76962 0.0
C662 C 0.59809 0.88251 0.79016 0.0
O663 O 0.61841 0.85557 0.85559 0.0
O664 O 0.5888 0.83602 0.83787 0.0
N665 N 0.5202 0.90941 0.82516 0.0
C666 C 0.51803 0.92379 0.84411 0.0
C667 C 0.49518 0.92666 0.85453 0.0
C668 C 0.47488 0.91496 0.84514 0.0
C669 C 0.4773 0.9012 0.82503 0.0
C670 C 0.50055 0.89869 0.81559 0.0
H671 H 0.53376 0.9322 0.85178 0.0
O672 O 0.56675 0.86862 0.86771 0.0
O673 O 0.55624 0.87613 0.8312 0.0
O674 O 0.59646 0.90552 0.84746 0.0
O675 O 0.56879 0.92414 0.82549 0.0
C676 C 0.45778 0.88859 0.81502 0.0
C677 C 0.46198 0.87307 0.79627 0.0
H678 H 0.47745 0.84297 0.76216 0.0
H679 H 0.52048 0.83786 0.75043 0.0
H680 H 0.49334 0.93722 0.87018 0.0
H681 H 0.45773 0.91554 0.85408 0.0
H682 H 0.4396 0.89023 0.82204 0.0
H683 H 0.44693 0.86311 0.789 0.0
Mn684 Mn 0.8635 0.16458 0.91126 0.0
Mn685 Mn 0.85175 0.15028 0.85475 0.0
C686 C 0.82423 0.15543 0.8991 0.0
C687 C 0.87235 0.1556 0.95054 0.0
C688 C 0.86189 0.20012 0.87081 0.0
O689 O 0.89729 0.15568 0.89877 0.0
O690 O 0.88652 0.14538 0.86195 0.0
C691 C 0.86052 0.09931 0.85763 0.0
N692 N 0.84552 0.11741 0.85238 0.0
C693 C 0.81374 0.09093 0.84018 0.0
C694 C 0.82889 0.072 0.84534 0.0
C695 C 0.85236 0.07622 0.85415 0.0
C696 C 0.82288 0.11355 0.84399 0.0
H697 H 0.87855 0.10248 0.86444 0.0
C698 C 0.90237 0.14788 0.87825 0.0
O699 O 0.87666 0.17614 0.94177 0.0
O700 O 0.86441 0.13971 0.93607 0.0
N701 N 0.81857 0.154 0.84552 0.0
C702 C 0.80593 0.17415 0.84226 0.0
C703 C 0.78197 0.17297 0.83385 0.0
C704 C 0.77134 0.15114 0.82869 0.0
C705 C 0.78481 0.13067 0.83191 0.0
C706 C 0.80867 0.13294 0.84016 0.0
H707 H 0.81402 0.19098 0.84615 0.0
O708 O 0.8278 0.16827 0.91758 0.0
O709 O 0.84356 0.14877 0.88812 0.0
O710 O 0.86445 0.19525 0.89248 0.0
O711 O 0.85735 0.18456 0.85527 0.0
C712 C 0.77537 0.10808 0.82759 0.0
C713 C 0.7898 0.08822 0.83178 0.0
H714 H 0.82263 0.05416 0.84276 0.0
H715 H 0.86411 0.0617 0.85826 0.0
H716 H 0.77169 0.18885 0.83143 0.0
H717 H 0.75277 0.15029 0.82244 0.0
H718 H 0.75693 0.10577 0.82133 0.0
H719 H 0.78223 0.07094 0.8287 0.0
Mn720 Mn 0.58174 0.11542 0.65476 0.0
Mn721 Mn 0.53334 0.0848 0.67434 0.0
C722 C 0.54643 0.11222 0.63228 0.0
C723 C 0.60198 0.15119 0.65086 0.0
C724 C 0.57885 0.06182 0.65509 0.0
O725 O 0.58862 0.11317 0.6902 0.0
O726 O 0.55428 0.09434 0.70101 0.0
C727 C 0.50943 0.12348 0.69986 0.0
N728 N 0.50848 0.10611 0.6835 0.0
C729 C 0.46685 0.11481 0.67448 0.0
C730 C 0.4672 0.13239 0.69164 0.0
C731 C 0.48866 0.13687 0.70424 0.0
C732 C 0.48812 0.10206 0.67085 0.0
H733 H 0.52598 0.12725 0.70931 0.0
C734 C 0.57443 0.10465 0.70586 0.0
O735 O 0.61357 0.1316 0.64855 0.0
O736 O 0.57928 0.14996 0.65653 0.0
N737 N 0.51121 0.07502 0.65025 0.0
C738 C 0.51444 0.05877 0.63306 0.0
C739 C 0.49502 0.05304 0.61809 0.0
C740 C 0.47246 0.06396 0.62102 0.0
C741 C 0.46954 0.0806 0.63886 0.0
C742 C 0.48952 0.08552 0.65331 0.0
H743 H 0.53172 0.05031 0.63073 0.0
O744 O 0.567 0.11704 0.62228 0.0
O745 O 0.54755 0.10891 0.65466 0.0
O746 O 0.59044 0.0807 0.65027 0.0
O747 O 0.55777 0.06158 0.66452 0.0
C748 C 0.44774 0.09278 0.64262 0.0
C749 C 0.44643 0.10992 0.66037 0.0
H750 H 0.45125 0.14286 0.69495 0.0
H751 H 0.48922 0.15068 0.71723 0.0
H752 H 0.49743 0.04024 0.60431 0.0
H753 H 0.45757 0.05961 0.60934 0.0
H754 H 0.43202 0.08943 0.63165 0.0
H755 H 0.42983 0.11961 0.66278 0.0
Mn756 Mn 0.638 0.84286 0.40492 0.0
Mn757 Mn 0.64786 0.85433 0.34772 0.0
C758 C 0.67707 0.85006 0.39139 0.0
C759 C 0.6293 0.85705 0.44251 0.0
C760 C 0.63611 0.80555 0.36641 0.0
O761 O 0.60436 0.85149 0.39282 0.0
O762 O 0.61383 0.86229 0.35587 0.0
C763 C 0.64312 0.90589 0.34797 0.0
N764 N 0.65654 0.88649 0.34346 0.0
C765 C 0.69003 0.90994 0.32956 0.0
C766 C 0.6765 0.93016 0.33392 0.0
C767 C 0.65296 0.92812 0.34319 0.0
C768 C 0.6792 0.88824 0.33449 0.0
H769 H 0.62506 0.90441 0.3552 0.0
C770 C 0.59875 0.86017 0.3729 0.0
O771 O 0.62518 0.83529 0.43699 0.0
O772 O 0.63793 0.87041 0.42615 0.0
N773 N 0.68037 0.8477 0.33802 0.0
C774 C 0.69162 0.82661 0.33639 0.0
C775 C 0.71566 0.82566 0.32828 0.0
C776 C 0.72784 0.84637 0.32186 0.0
C777 C 0.71584 0.86785 0.32357 0.0
C778 C 0.69181 0.8677 0.33159 0.0
H779 H 0.6824 0.81064 0.3414 0.0
O780 O 0.6737 0.83885 0.4109 0.0
O781 O 0.65755 0.85644 0.38052 0.0
O782 O 0.63582 0.81082 0.38821 0.0
O783 O 0.63965 0.82071 0.35026 0.0
C784 C 0.72696 0.88946 0.31811 0.0
C785 C 0.71406 0.91048 0.32109 0.0
H786 H 0.6841 0.94735 0.33044 0.0
H787 H 0.64246 0.94366 0.34672 0.0
H788 H 0.72483 0.80902 0.3271 0.0
H789 H 0.74647 0.84559 0.31587 0.0
H790 H 0.74555 0.89013 0.31195 0.0
H791 H 0.72293 0.92701 0.31718 0.0
Mn792 Mn 0.90959 0.87913 0.16492 0.0
Mn793 Mn 0.95451 0.915 0.1828 0.0
C794 C 0.94717 0.87841 0.1466 0.0
C795 C 0.89054 0.84298 0.16653 0.0
C796 C 0.91014 0.93145 0.15578 0.0
O797 O 0.89869 0.88879 0.1979 0.0
O798 O 0.93211 0.90899 0.20953 0.0
C799 C 0.97949 0.88454 0.21705 0.0
N800 N 0.98007 0.89754 0.19705 0.0
C801 C 0.02202 0.88802 0.19044 0.0
C802 C 0.02193 0.87473 0.21109 0.0
C803 C 0.00056 0.87296 0.22443 0.0
C804 C 0.00056 0.89939 0.1841 0.0
H805 H 0.96304 0.88289 0.22719 0.0
C806 C 0.91123 0.89959 0.21355 0.0
O807 O 0.87926 0.86103 0.15818 0.0
O808 O 0.91212 0.84621 0.17499 0.0
N809 N 0.97724 0.92119 0.15816 0.0
C810 C 0.97375 0.93302 0.1377 0.0
C811 C 0.99307 0.93548 0.12183 0.0
C812 C 0.01572 0.92569 0.1271 0.0
C813 C 0.01886 0.91356 0.14823 0.0
C814 C 0.99904 0.91189 0.1635 0.0
H815 H 0.95632 0.94038 0.13342 0.0
O816 O 0.928 0.87104 0.13553 0.0
O817 O 0.94329 0.88663 0.1674 0.0
O818 O 0.90077 0.91132 0.15208 0.0
O819 O 0.9295 0.93464 0.16778 0.0
C820 C 0.04066 0.90247 0.15437 0.0
C821 C 0.04232 0.88978 0.1755 0.0
H822 H 0.03805 0.86553 0.2167 0.0
H823 H 0.00028 0.86257 0.24027 0.0
H824 H 0.99044 0.94473 0.10549 0.0
H825 H 0.03049 0.92733 0.11467 0.0
H826 H 0.05604 0.90322 0.14265 0.0
H827 H 0.05911 0.88101 0.17982 0.0
Mn828 Mn 0.85436 0.59733 0.89073 0.0
Mn829 Mn 0.81251 0.57009 0.85678 0.0
C830 C 0.81528 0.61203 0.88711 0.0
C831 C 0.87194 0.60432 0.92754 0.0
C832 C 0.85444 0.59881 0.83691 0.0
O833 O 0.8682 0.56423 0.88766 0.0
O834 O 0.83821 0.54758 0.86591 0.0
C835 C 0.79204 0.53687 0.89151 0.0
N836 N 0.78886 0.5547 0.87602 0.0
C837 C 0.74587 0.55535 0.8836 0.0
C838 C 0.7487 0.53692 0.89956 0.0
C839 C 0.7719 0.52768 0.90356 0.0
C840 C 0.76661 0.56373 0.87204 0.0
H841 H 0.80981 0.52971 0.89467 0.0
C842 C 0.8583 0.54669 0.87726 0.0
O843 O 0.88327 0.60978 0.90831 0.0
O844 O 0.85126 0.59361 0.92528 0.0
N845 N 0.78646 0.5901 0.84744 0.0
C846 C 0.78709 0.60907 0.83299 0.0
C847 C 0.76547 0.62087 0.8278 0.0
C848 C 0.74343 0.61307 0.83752 0.0
C849 C 0.74324 0.5936 0.85245 0.0
C850 C 0.76533 0.58244 0.85686 0.0
H851 H 0.80399 0.61531 0.8257 0.0
O852 O 0.83313 0.62585 0.89279 0.0
O853 O 0.82111 0.59053 0.8829 0.0
O854 O 0.86385 0.60486 0.85651 0.0
O855 O 0.83551 0.58584 0.83529 0.0
C856 C 0.72208 0.58516 0.86354 0.0
C857 C 0.72339 0.56606 0.87912 0.0
H858 H 0.73323 0.52987 0.90899 0.0
H859 H 0.77425 0.51352 0.91592 0.0
H860 H 0.76581 0.63603 0.81645 0.0
H861 H 0.72682 0.62236 0.83368 0.0
H862 H 0.70479 0.5935 0.86054 0.0
H863 H 0.70705 0.56 0.88783 0.0
Mn864 Mn 0.33329 0.90757 0.12613 0.0
Mn865 Mn 0.29573 0.93461 0.16366 0.0
C866 C 0.29524 0.89149 0.13294 0.0
C867 C 0.34834 0.90534 0.0882 0.0
C868 C 0.33874 0.90529 0.17886 0.0
O869 O 0.34903 0.93969 0.13094 0.0
O870 O 0.31934 0.95766 0.15102 0.0
C871 C 0.27006 0.96619 0.13102 0.0
N872 N 0.2694 0.94897 0.1475 0.0
C873 C 0.22577 0.94754 0.1464 0.0
C874 C 0.22595 0.96548 0.12964 0.0
C875 C 0.2482 0.9748 0.12187 0.0
C876 C 0.24812 0.93989 0.15511 0.0
H877 H 0.28714 0.97323 0.12484 0.0
C878 C 0.33959 0.95787 0.14003 0.0
O879 O 0.36072 0.89723 0.10578 0.0
O880 O 0.32761 0.91485 0.09272 0.0
N881 N 0.27183 0.91432 0.17692 0.0
C882 C 0.27503 0.89558 0.19131 0.0
C883 C 0.25471 0.88307 0.1993 0.0
C884 C 0.2314 0.89008 0.19252 0.0
C885 C 0.22849 0.9096 0.17795 0.0
C886 C 0.24942 0.92147 0.17066 0.0
H887 H 0.29294 0.89003 0.19641 0.0
O888 O 0.31232 0.87912 0.12359 0.0
O889 O 0.3007 0.91335 0.13715 0.0
O890 O 0.34459 0.89726 0.15879 0.0
O891 O 0.32191 0.92016 0.1822 0.0
C892 C 0.20579 0.91721 0.16965 0.0
C893 C 0.20438 0.93633 0.15412 0.0
H894 H 0.20913 0.97195 0.12233 0.0
H895 H 0.24851 0.98849 0.10877 0.0
H896 H 0.25699 0.86797 0.21049 0.0
H897 H 0.21598 0.88011 0.19842 0.0
H898 H 0.18937 0.90804 0.1744 0.0
H899 H 0.18682 0.94169 0.14755 0.0
Mn900 Mn 0.16206 0.09441 0.62396 0.0
Mn901 Mn 0.20589 0.07153 0.6581 0.0
C902 C 0.20043 0.11185 0.62553 0.0
C903 C 0.14315 0.09618 0.58737 0.0
C904 C 0.16288 0.09878 0.67739 0.0
O905 O 0.14944 0.06109 0.63026 0.0
O906 O 0.18177 0.04714 0.65005 0.0
C907 C 0.22794 0.03878 0.62408 0.0
N908 N 0.23029 0.05685 0.63952 0.0
C909 C 0.27323 0.05968 0.63224 0.0
C910 C 0.27138 0.04066 0.61678 0.0
C911 C 0.2486 0.03024 0.6126 0.0
C912 C 0.25208 0.06707 0.64361 0.0
H913 H 0.2104 0.03113 0.62033 0.0
C914 C 0.16108 0.04445 0.64011 0.0
O915 O 0.13212 0.10344 0.60611 0.0
O916 O 0.16455 0.08738 0.59 0.0
N917 N 0.23059 0.09353 0.66654 0.0
C918 C 0.22849 0.11368 0.67912 0.0
C919 C 0.24893 0.12814 0.68212 0.0
C920 C 0.27117 0.12153 0.67229 0.0
C921 C 0.27322 0.10022 0.66045 0.0
C922 C 0.2522 0.08665 0.65776 0.0
H923 H 0.21118 0.11913 0.68599 0.0
O924 O 0.18177 0.12388 0.61897 0.0
O925 O 0.19595 0.09029 0.63128 0.0
O926 O 0.15322 0.10419 0.65776 0.0
O927 O 0.18205 0.08642 0.67904 0.0
C928 C 0.29487 0.09279 0.64972 0.0
C929 C 0.29495 0.07236 0.63586 0.0
H930 H 0.2872 0.03433 0.60755 0.0
H931 H 0.24692 0.01585 0.60034 0.0
H932 H 0.24735 0.14471 0.69116 0.0
H933 H 0.28616 0.13359 0.67256 0.0
H934 H 0.31131 0.10315 0.6512 0.0
H935 H 0.31156 0.06717 0.6272 0.0
Mn936 Mn 0.16436 0.91399 0.88829 0.0
Mn937 Mn 0.20791 0.93059 0.85021 0.0
C938 C 0.20121 0.89413 0.88615 0.0
C939 C 0.14786 0.91467 0.92594 0.0
C940 C 0.1611 0.90585 0.83547 0.0
O941 O 0.15458 0.94777 0.88033 0.0
O942 O 0.18685 0.95759 0.85776 0.0
C943 C 0.23561 0.9631 0.88089 0.0
N944 N 0.23496 0.94394 0.86669 0.0
C945 C 0.27773 0.93744 0.87228 0.0
C946 C 0.27894 0.95741 0.88655 0.0
C947 C 0.25775 0.9702 0.89099 0.0
C948 C 0.25517 0.93126 0.86263 0.0
H949 H 0.21932 0.97272 0.88469 0.0
C950 C 0.16715 0.9627 0.8686 0.0
O951 O 0.13503 0.90786 0.90802 0.0
O952 O 0.16954 0.92253 0.92173 0.0
N953 N 0.22963 0.90578 0.84224 0.0
C954 C 0.22491 0.88569 0.83012 0.0
C955 C 0.24395 0.87024 0.82519 0.0
C956 C 0.26763 0.8756 0.83276 0.0
C957 C 0.27202 0.8963 0.84534 0.0
C958 C 0.25236 0.91109 0.84961 0.0
H959 H 0.20674 0.88139 0.8244 0.0
O960 O 0.18209 0.88364 0.89438 0.0
O961 O 0.19769 0.91518 0.87878 0.0
O962 O 0.15247 0.90275 0.856 0.0
O963 O 0.18123 0.91645 0.83157 0.0
C964 C 0.29503 0.90251 0.85432 0.0
C965 C 0.29789 0.92305 0.86782 0.0
H966 H 0.29593 0.96284 0.89451 0.0
H967 H 0.25846 0.98542 0.90227 0.0
H968 H 0.24036 0.8542 0.81567 0.0
H969 H 0.28222 0.86353 0.82913 0.0
H970 H 0.31054 0.89136 0.85136 0.0
H971 H 0.31556 0.92736 0.87506 0.0
Mn972 Mn 0.65465 0.41218 0.39135 0.0
Mn973 Mn 0.69709 0.43888 0.3577 0.0
C974 C 0.69257 0.39551 0.38617 0.0
C975 C 0.63685 0.40476 0.42779 0.0
C976 C 0.65391 0.41198 0.33772 0.0
O977 O 0.6418 0.4457 0.38902 0.0
O978 O 0.67245 0.46203 0.3681 0.0
C979 C 0.71961 0.46976 0.39351 0.0
N980 N 0.72177 0.45271 0.37698 0.0
C981 C 0.76506 0.45115 0.38264 0.0
C982 C 0.7633 0.46881 0.39962 0.0
C983 C 0.74045 0.47808 0.40514 0.0
C984 C 0.74364 0.44352 0.37167 0.0
H985 H 0.70212 0.47693 0.39778 0.0
C986 C 0.65226 0.46322 0.37921 0.0
O987 O 0.62527 0.4005 0.40838 0.0
O988 O 0.658 0.41472 0.426 0.0
N989 N 0.72219 0.41857 0.34677 0.0
C990 C 0.72059 0.40051 0.3312 0.0
C991 C 0.74174 0.38872 0.32445 0.0
C992 C 0.76433 0.39567 0.33367 0.0
C993 C 0.76556 0.41434 0.34959 0.0
C994 C 0.74388 0.42551 0.3556 0.0
H995 H 0.70329 0.39498 0.32417 0.0
O996 O 0.67412 0.38266 0.39221 0.0
O997 O 0.68829 0.41763 0.38323 0.0
O998 O 0.64469 0.40576 0.35726 0.0
O999 O 0.67307 0.42464 0.33609 0.0
C1000 C 0.78741 0.42207 0.36003 0.0
C1001 C 0.78716 0.44048 0.37652 0.0
H1002 H 0.77932 0.47522 0.40868 0.0
H1003 H 0.73892 0.49163 0.41831 0.0
H1004 H 0.74062 0.37425 0.31224 0.0
H1005 H 0.78058 0.38641 0.32857 0.0
H1006 H 0.80443 0.41373 0.35577 0.0
H1007 H 0.80402 0.44599 0.38472 0.0
Mn1008 Mn 0.83454 0.41237 0.622 0.0
Mn1009 Mn 0.78864 0.43656 0.65252 0.0
C1010 C 0.79888 0.39146 0.62777 0.0
C1011 C 0.85427 0.4046 0.58682 0.0
C1012 C 0.83168 0.41375 0.67584 0.0
O1013 O 0.8443 0.44697 0.62204 0.0
O1014 O 0.81363 0.46029 0.64415 0.0
C1015 C 0.76999 0.466 0.6138 0.0
N1016 N 0.76605 0.44971 0.63082 0.0
C1017 C 0.7233 0.44837 0.62215 0.0
C1018 C 0.72683 0.46545 0.60483 0.0
C1019 C 0.75031 0.4742 0.60055 0.0
C1020 C 0.7436 0.44098 0.63489 0.0
H1021 H 0.788 0.47265 0.61029 0.0
C1022 C 0.83326 0.46346 0.63259 0.0
O1023 O 0.86581 0.40341 0.60665 0.0
O1024 O 0.83195 0.41152 0.58735 0.0
N1025 N 0.76255 0.4164 0.6617 0.0
C1026 C 0.76267 0.39834 0.67727 0.0
C1027 C 0.74107 0.38586 0.68147 0.0
C1028 C 0.71955 0.39266 0.67023 0.0
C1029 C 0.71956 0.41208 0.65539 0.0
C1030 C 0.74173 0.4234 0.65131 0.0
H1031 H 0.77928 0.39297 0.68569 0.0
O1032 O 0.81901 0.38086 0.62313 0.0
O1033 O 0.79992 0.41429 0.62865 0.0
O1034 O 0.84349 0.4098 0.65698 0.0
O1035 O 0.81068 0.42313 0.67615 0.0
C1036 C 0.69868 0.41979 0.64347 0.0
C1037 C 0.70054 0.43799 0.62688 0.0
H1038 H 0.71172 0.47171 0.59448 0.0
H1039 H 0.75325 0.48719 0.58703 0.0
H1040 H 0.74114 0.37079 0.69293 0.0
H1041 H 0.70326 0.38239 0.6722 0.0
H1042 H 0.68126 0.41133 0.64638 0.0
H1043 H 0.6845 0.4434 0.61738 0.0
Mn1044 Mn 0.66993 0.59023 0.11785 0.0
Mn1045 Mn 0.71177 0.56503 0.15284 0.0
C1046 C 0.70859 0.60637 0.12119 0.0
C1047 C 0.65254 0.59309 0.08055 0.0
C1048 C 0.66996 0.59436 0.17147 0.0
O1049 O 0.6555 0.55754 0.12329 0.0
O1050 O 0.68624 0.54214 0.14423 0.0
C1051 C 0.73177 0.53216 0.11777 0.0
N1052 N 0.7353 0.54914 0.13422 0.0
C1053 C 0.77849 0.54866 0.12803 0.0
C1054 C 0.77539 0.53051 0.11172 0.0
C1055 C 0.75189 0.52237 0.10642 0.0
C1056 C 0.75777 0.55741 0.13914 0.0
H1057 H 0.71372 0.52643 0.11306 0.0
C1058 C 0.66583 0.54044 0.13361 0.0
O1059 O 0.64107 0.60063 0.09896 0.0
O1060 O 0.67342 0.58349 0.08393 0.0
N1061 N 0.73799 0.58505 0.16213 0.0
C1062 C 0.73744 0.6048 0.17553 0.0
C1063 C 0.75912 0.61715 0.17982 0.0
C1064 C 0.78101 0.60881 0.17055 0.0
C1065 C 0.78134 0.58789 0.15788 0.0
C1066 C 0.75918 0.57649 0.15389 0.0
H1067 H 0.72051 0.61149 0.18216 0.0
O1068 O 0.69066 0.61904 0.114 0.0
O1069 O 0.70337 0.58478 0.12622 0.0
O1070 O 0.66068 0.59982 0.15163 0.0
O1071 O 0.68864 0.58135 0.17356 0.0
C1072 C 0.8026 0.57886 0.14769 0.0
C1073 C 0.80119 0.55914 0.13287 0.0
H1074 H 0.79084 0.52319 0.10264 0.0
H1075 H 0.74927 0.50878 0.09341 0.0
H1076 H 0.75887 0.63339 0.18957 0.0
H1077 H 0.79732 0.61911 0.17202 0.0
H1078 H 0.81999 0.58741 0.15049 0.0
H1079 H 0.81753 0.55275 0.12457 0.0
Mn1080 Mn 0.62818 0.6664 0.90655 0.0
Mn1081 Mn 0.63448 0.60818 0.90199 0.0
C1082 C 0.59476 0.64286 0.89779 0.0
C1083 C 0.62848 0.7035 0.88926 0.0
C1084 C 0.63025 0.63269 0.9487 0.0
O1085 O 0.66479 0.66343 0.90282 0.0
O1086 O 0.66657 0.62419 0.90244 0.0
C1087 C 0.6547 0.60828 0.85392 0.0
N1088 N 0.63772 0.60062 0.86954 0.0
C1089 C 0.62153 0.57305 0.84168 0.0
C1090 C 0.63893 0.58049 0.82532 0.0
C1091 C 0.65543 0.59838 0.83139 0.0
C1092 C 0.62115 0.58415 0.86357 0.0
H1093 H 0.66777 0.62164 0.85868 0.0
C1094 C 0.67665 0.64442 0.90223 0.0
O1095 O 0.63139 0.70105 0.91175 0.0
O1096 O 0.62608 0.68453 0.87703 0.0
N1097 N 0.60543 0.5897 0.90102 0.0
C1098 C 0.59008 0.58427 0.91896 0.0
C1099 C 0.57219 0.56692 0.91566 0.0
C1100 C 0.57097 0.55466 0.89433 0.0
C1101 C 0.58739 0.56013 0.87633 0.0
C1102 C 0.6042 0.57818 0.88032 0.0
H1103 H 0.5916 0.59302 0.9357 0.0
O1104 O 0.59217 0.6634 0.90706 0.0
O1105 O 0.61704 0.63667 0.89363 0.0
O1106 O 0.63007 0.65352 0.94041 0.0
O1107 O 0.63096 0.61445 0.93576 0.0
C1108 C 0.58818 0.54796 0.85482 0.0
C1109 C 0.60497 0.55465 0.83737 0.0
H1110 H 0.63987 0.57253 0.80811 0.0
H1111 H 0.66895 0.60422 0.8189 0.0
H1112 H 0.55974 0.56265 0.92971 0.0
H1113 H 0.55751 0.54091 0.89206 0.0
H1114 H 0.57582 0.5335 0.85142 0.0
H1115 H 0.60509 0.54542 0.82078 0.0
Mn1116 Mn 0.59225 0.38533 0.17074 0.0
Mn1117 Mn 0.59748 0.39077 0.11211 0.0
C1118 C 0.59405 0.42191 0.15372 0.0
C1119 C 0.61131 0.38243 0.20722 0.0
C1120 C 0.55002 0.37909 0.13648 0.0
O1121 O 0.60207 0.35257 0.16057 0.0
O1122 O 0.60651 0.3585 0.12173 0.0
C1123 C 0.65091 0.38667 0.10894 0.0
N1124 N 0.63031 0.39903 0.10481 0.0
C1125 C 0.65315 0.43071 0.08762 0.0
C1126 C 0.6746 0.41825 0.09154 0.0
C1127 C 0.67347 0.39615 0.10227 0.0
C1128 C 0.63118 0.42031 0.09449 0.0
H1129 H 0.65013 0.36976 0.11735 0.0
C1130 C 0.60714 0.34535 0.13994 0.0
O1131 O 0.58884 0.37577 0.20447 0.0
O1132 O 0.62268 0.38955 0.18868 0.0
N1133 N 0.5894 0.42112 0.10044 0.0
C1134 C 0.56718 0.43134 0.09899 0.0
C1135 C 0.56521 0.4538 0.08922 0.0
C1136 C 0.58607 0.46545 0.08097 0.0
C1137 C 0.60869 0.45446 0.0824 0.0
C1138 C 0.6095 0.43195 0.09205 0.0
H1139 H 0.55111 0.42251 0.10541 0.0
O1140 O 0.58516 0.41935 0.17458 0.0
O1141 O 0.60199 0.40302 0.14371 0.0
O1142 O 0.55809 0.37953 0.15751 0.0
O1143 O 0.56324 0.38292 0.11845 0.0
C1144 C 0.63054 0.46513 0.07504 0.0
C1145 C 0.65275 0.45327 0.07766 0.0
H1146 H 0.69206 0.42558 0.0866 0.0
H1147 H 0.68996 0.38649 0.10548 0.0
H1148 H 0.54768 0.46216 0.08817 0.0
H1149 H 0.58452 0.48288 0.0737 0.0
H1150 H 0.63051 0.48257 0.06763 0.0
H1151 H 0.66947 0.46179 0.07225 0.0
Mn1152 Mn 0.87387 0.33914 0.40904 0.0
Mn1153 Mn 0.8825 0.39721 0.41675 0.0
C1154 C 0.91213 0.35528 0.40402 0.0
C1155 C 0.86739 0.30552 0.38628 0.0
C1156 C 0.87823 0.36396 0.45694 0.0
O1157 O 0.83947 0.35114 0.4054 0.0
O1158 O 0.84735 0.38869 0.41501 0.0
C1159 C 0.86306 0.4132 0.37108 0.0
N1160 N 0.88122 0.41306 0.3873 0.0
C1161 C 0.90422 0.4417 0.36559 0.0
C1162 C 0.88572 0.44222 0.34869 0.0
C1163 C 0.86508 0.42786 0.35142 0.0
C1164 C 0.90108 0.42692 0.38492 0.0
H1165 H 0.84712 0.40229 0.37317 0.0
C1166 C 0.8326 0.37191 0.41003 0.0
O1167 O 0.86288 0.30567 0.40862 0.0
O1168 O 0.87387 0.32529 0.37697 0.0
N1169 N 0.9152 0.40852 0.41861 0.0
C1170 C 0.93248 0.40386 0.43502 0.0
C1171 C 0.95497 0.41557 0.43394 0.0
C1172 C 0.95932 0.43212 0.41619 0.0
C1173 C 0.94118 0.4367 0.39957 0.0
C1174 C 0.91911 0.42453 0.40157 0.0
H1175 H 0.92915 0.3912 0.44872 0.0
O1176 O 0.9093 0.3337 0.41053 0.0
O1177 O 0.89233 0.36755 0.40168 0.0
O1178 O 0.8723 0.34612 0.44463 0.0
O1179 O 0.88442 0.38352 0.4481 0.0
C1180 C 0.94441 0.45226 0.38065 0.0
C1181 C 0.92589 0.45484 0.36375 0.0
H1182 H 0.88729 0.45337 0.33341 0.0
H1183 H 0.85075 0.42812 0.33842 0.0
H1184 H 0.96892 0.41187 0.44676 0.0
H1185 H 0.97676 0.44097 0.4153 0.0
H1186 H 0.96126 0.46196 0.37867 0.0
H1187 H 0.92872 0.4666 0.34911 0.0
Mn1188 Mn 0.90743 0.62146 0.66541 0.0
Mn1189 Mn 0.89271 0.61793 0.60816 0.0
C1190 C 0.90205 0.58517 0.64792 0.0
C1191 C 0.89269 0.62411 0.70407 0.0
C1192 C 0.94409 0.62815 0.62548 0.0
O1193 O 0.89703 0.65474 0.6576 0.0
O1194 O 0.88538 0.65004 0.62002 0.0
C1195 C 0.83943 0.62215 0.61305 0.0
N1196 N 0.85906 0.60992 0.6055 0.0
C1197 C 0.83355 0.57876 0.59089 0.0
C1198 C 0.81305 0.5911 0.59836 0.0
C1199 C 0.81602 0.61288 0.6095 0.0
C1200 C 0.85642 0.58896 0.59475 0.0
H1201 H 0.84164 0.63879 0.62181 0.0
C1202 C 0.88824 0.66266 0.63847 0.0
O1203 O 0.91499 0.63005 0.69919 0.0
O1204 O 0.87936 0.6175 0.68661 0.0
N1205 N 0.89865 0.58796 0.59439 0.0
C1206 C 0.92031 0.57779 0.58929 0.0
C1207 C 0.92055 0.55565 0.57858 0.0
C1208 C 0.89855 0.54425 0.57315 0.0
C1209 C 0.8765 0.5552 0.57831 0.0
C1210 C 0.87738 0.57739 0.58872 0.0
H1211 H 0.93727 0.58641 0.59353 0.0
O1212 O 0.91396 0.58713 0.66743 0.0
O1213 O 0.89327 0.60451 0.63955 0.0
O1214 O 0.93978 0.6269 0.64758 0.0
O1215 O 0.92765 0.62547 0.60979 0.0
C1216 C 0.85367 0.54476 0.57393 0.0
C1217 C 0.83221 0.55652 0.58024 0.0
H1218 H 0.79498 0.58393 0.59582 0.0
H1219 H 0.80029 0.62244 0.61544 0.0
H1220 H 0.93765 0.54732 0.57466 0.0
H1221 H 0.89882 0.52706 0.56516 0.0
H1222 H 0.85241 0.52755 0.56602 0.0
H1223 H 0.81478 0.54817 0.5771 0.0
Mn1224 Mn 0.63105 0.33005 0.59084 0.0
Mn1225 Mn 0.63477 0.32548 0.64944 0.0
C1226 C 0.66872 0.33281 0.60948 0.0
C1227 C 0.62761 0.35252 0.55667 0.0
C1228 C 0.62895 0.28356 0.61803 0.0
O1229 O 0.59631 0.33667 0.60027 0.0
O1230 O 0.60072 0.33015 0.63887 0.0
C1231 C 0.62036 0.37407 0.66046 0.0
N1232 N 0.63627 0.35611 0.66279 0.0
C1233 C 0.6578 0.37617 0.6936 0.0
C1234 C 0.64155 0.39485 0.69168 0.0
C1235 C 0.62298 0.39395 0.67478 0.0
C1236 C 0.65495 0.35734 0.6781 0.0
H1237 H 0.60565 0.37311 0.64796 0.0
C1238 C 0.58768 0.33476 0.62088 0.0
O1239 O 0.62205 0.33038 0.5567 0.0
O1240 O 0.63435 0.36155 0.57647 0.0
N1241 N 0.66615 0.32113 0.66305 0.0
C1242 C 0.68018 0.3016 0.66272 0.0
C1243 C 0.70035 0.3002 0.67775 0.0
C1244 C 0.7052 0.31838 0.69372 0.0
C1245 C 0.68996 0.3379 0.69438 0.0
C1246 C 0.67077 0.33877 0.67829 0.0
H1247 H 0.67602 0.28723 0.65106 0.0
O1248 O 0.66667 0.32568 0.58797 0.0
O1249 O 0.64828 0.3374 0.61991 0.0
O1250 O 0.62619 0.29514 0.59906 0.0
O1251 O 0.63364 0.29311 0.63773 0.0
C1252 C 0.6926 0.35619 0.71084 0.0
C1253 C 0.67656 0.37535 0.71042 0.0
H1254 H 0.64317 0.40996 0.70309 0.0
H1255 H 0.61038 0.4083 0.67315 0.0
H1256 H 0.71182 0.28492 0.67736 0.0
H1257 H 0.72044 0.31699 0.70565 0.0
H1258 H 0.70706 0.35583 0.72371 0.0
H1259 H 0.67902 0.38949 0.72288 0.0
Mn1260 Mn 0.91187 0.3699 0.83735 0.0
Mn1261 Mn 0.85496 0.37022 0.85868 0.0
C1262 C 0.89334 0.33477 0.84703 0.0
C1263 C 0.95338 0.37352 0.84425 0.0
C1264 C 0.86697 0.37736 0.80706 0.0
O1265 O 0.9064 0.40401 0.84565 0.0
O1266 O 0.86996 0.40195 0.8635 0.0
C1267 C 0.86621 0.3758 0.90912 0.0
N1268 N 0.85558 0.36336 0.89145 0.0
C1269 C 0.84119 0.33403 0.91842 0.0
C1270 C 0.85181 0.34663 0.93694 0.0
C1271 C 0.8644 0.36759 0.93226 0.0
C1272 C 0.84343 0.34317 0.89575 0.0
H1273 H 0.87604 0.39183 0.90556 0.0
C1274 C 0.88886 0.41337 0.8567 0.0
O1275 O 0.94419 0.37773 0.82369 0.0
O1276 O 0.93839 0.36753 0.86074 0.0
N1277 N 0.83834 0.34085 0.85531 0.0
C1278 C 0.83015 0.33026 0.83536 0.0
C1279 C 0.81775 0.30875 0.83691 0.0
C1280 C 0.81376 0.29845 0.85894 0.0
C1281 C 0.82208 0.30983 0.87924 0.0
C1282 C 0.83416 0.33132 0.87662 0.0
H1283 H 0.83325 0.33806 0.81838 0.0
O1284 O 0.91198 0.33525 0.83316 0.0
O1285 O 0.88653 0.35496 0.85534 0.0
O1286 O 0.88975 0.37378 0.80876 0.0
O1287 O 0.85259 0.37693 0.82468 0.0
C1288 C 0.8193 0.30046 0.90193 0.0
C1289 C 0.82886 0.31254 0.9215 0.0
H1290 H 0.8506 0.34027 0.95479 0.0
H1291 H 0.87277 0.37734 0.94644 0.0
H1292 H 0.81141 0.30006 0.82116 0.0
H1293 H 0.80443 0.28172 0.86004 0.0
H1294 H 0.81012 0.28383 0.90449 0.0
H1295 H 0.82686 0.30502 0.93882 0.0
Mn1296 Mn 0.87652 0.66729 0.09608 0.0
Mn1297 Mn 0.87351 0.66569 0.15522 0.0
C1298 C 0.83913 0.6645 0.11448 0.0
C1299 C 0.88039 0.6477 0.06011 0.0
C1300 C 0.87784 0.71072 0.12803 0.0
O1301 O 0.91159 0.66059 0.10484 0.0
O1302 O 0.90718 0.66198 0.14388 0.0
C1303 C 0.88708 0.61592 0.16002 0.0
N1304 N 0.87155 0.63373 0.16477 0.0
C1305 C 0.84941 0.6101 0.1924 0.0
C1306 C 0.86509 0.59143 0.18776 0.0
C1307 C 0.88386 0.59429 0.17131 0.0
C1308 C 0.85286 0.63088 0.17982 0.0
H1309 H 0.90194 0.6183 0.1479 0.0
C1310 C 0.92021 0.66003 0.12551 0.0
O1311 O 0.88561 0.66985 0.06204 0.0
O1312 O 0.87374 0.63703 0.07909 0.0
N1313 N 0.84274 0.66919 0.17025 0.0
C1314 C 0.83033 0.68939 0.17401 0.0
C1315 C 0.81101 0.68961 0.19005 0.0
C1316 C 0.80561 0.66949 0.20319 0.0
C1317 C 0.81956 0.64932 0.20013 0.0
C1318 C 0.83786 0.64981 0.18307 0.0
H1319 H 0.83516 0.70528 0.16484 0.0
O1320 O 0.84109 0.67174 0.09305 0.0
O1321 O 0.85919 0.65782 0.12457 0.0
O1322 O 0.88008 0.7015 0.10765 0.0
O1323 O 0.87494 0.69881 0.14673 0.0
C1324 C 0.81628 0.62885 0.2136 0.0
C1325 C 0.83093 0.60911 0.20945 0.0
H1326 H 0.86303 0.57492 0.19687 0.0
H1327 H 0.89612 0.58003 0.16771 0.0
H1328 H 0.80073 0.70545 0.19272 0.0
H1329 H 0.79105 0.66988 0.21594 0.0
H1330 H 0.80228 0.62797 0.2269 0.0
H1331 H 0.82799 0.59336 0.21964 0.0
Mn1332 Mn 0.58547 0.63496 0.33369 0.0
Mn1333 Mn 0.64298 0.63753 0.35375 0.0
C1334 C 0.60297 0.671 0.34242 0.0
C1335 C 0.54395 0.63137 0.34177 0.0
C1336 C 0.63004 0.62839 0.30249 0.0
O1337 O 0.59233 0.60119 0.34318 0.0
O1338 O 0.62931 0.6056 0.3597 0.0
C1339 C 0.63339 0.63295 0.40458 0.0
N1340 N 0.64303 0.64525 0.38635 0.0
C1341 C 0.65731 0.67567 0.41225 0.0
C1342 C 0.64768 0.66324 0.43133 0.0
C1343 C 0.63564 0.64181 0.42746 0.0
C1344 C 0.65464 0.6659 0.38986 0.0
H1345 H 0.62399 0.61654 0.40165 0.0
C1346 C 0.6107 0.5931 0.35413 0.0
O1347 O 0.55263 0.62628 0.32122 0.0
O1348 O 0.55949 0.63765 0.35769 0.0
N1349 N 0.65833 0.66736 0.34925 0.0
C1350 C 0.66557 0.67767 0.32886 0.0
C1351 C 0.67734 0.69955 0.3296 0.0
C1352 C 0.6817 0.71052 0.35127 0.0
C1353 C 0.67437 0.69942 0.37203 0.0
C1354 C 0.66289 0.67754 0.37022 0.0
H1355 H 0.66221 0.66936 0.31215 0.0
O1356 O 0.58425 0.66959 0.32868 0.0
O1357 O 0.6107 0.65124 0.35084 0.0
O1358 O 0.60707 0.63083 0.30446 0.0
O1359 O 0.64464 0.63003 0.31991 0.0
C1360 C 0.67757 0.70943 0.39442 0.0
C1361 C 0.66903 0.69757 0.41451 0.0
H1362 H 0.64925 0.67008 0.44899 0.0
H1363 H 0.62805 0.63218 0.44209 0.0
H1364 H 0.68292 0.70802 0.31349 0.0
H1365 H 0.69052 0.72752 0.35174 0.0
H1366 H 0.68629 0.72638 0.39636 0.0
H1367 H 0.67133 0.70558 0.4316 0.0
Mn1368 Mn 0.65364 0.89542 0.6148 0.0
Mn1369 Mn 0.59495 0.87969 0.60942 0.0
C1370 C 0.63748 0.88825 0.57793 0.0
C1371 C 0.69375 0.88351 0.62019 0.0
C1372 C 0.61177 0.92951 0.62059 0.0
O1373 O 0.64414 0.88622 0.64803 0.0
O1374 O 0.60636 0.87192 0.64171 0.0
C1375 C 0.59935 0.82825 0.61297 0.0
N1376 N 0.59226 0.84748 0.60073 0.0
C1377 C 0.57757 0.82367 0.56883 0.0
C1378 C 0.58452 0.80359 0.58118 0.0
C1379 C 0.59548 0.80591 0.60333 0.0
C1380 C 0.58163 0.84546 0.57944 0.0
H1381 H 0.60795 0.82998 0.62991 0.0
C1382 C 0.62465 0.87624 0.65507 0.0
O1383 O 0.68713 0.90477 0.62511 0.0
O1384 O 0.67698 0.86929 0.61288 0.0
N1385 N 0.58201 0.88618 0.57897 0.0
C1386 C 0.57799 0.90731 0.56868 0.0
C1387 C 0.56803 0.9081 0.54602 0.0
C1388 C 0.56224 0.88719 0.53422 0.0
C1389 C 0.5664 0.86566 0.54523 0.0
C1390 C 0.57618 0.86597 0.56791 0.0
H1391 H 0.58254 0.92343 0.5776 0.0
O1392 O 0.65718 0.90062 0.58026 0.0
O1393 O 0.62801 0.88044 0.59729 0.0
O1394 O 0.63461 0.92612 0.61861 0.0
O1395 O 0.59593 0.91322 0.61795 0.0
C1396 C 0.56177 0.84392 0.53439 0.0
C1397 C 0.56733 0.82294 0.54618 0.0
H1398 H 0.58178 0.78634 0.57371 0.0
H1399 H 0.60104 0.7905 0.61289 0.0
H1400 H 0.56495 0.92478 0.53761 0.0
H1401 H 0.55482 0.88788 0.51664 0.0
H1402 H 0.55428 0.84314 0.51683 0.0
H1403 H 0.56401 0.80634 0.53752 0.0
Mn1404 Mn 0.37584 0.34039 0.09002 0.0
Mn1405 Mn 0.38907 0.39687 0.10237 0.0
C1406 C 0.41569 0.35244 0.09237 0.0
C1407 C 0.36767 0.30264 0.10401 0.0
C1408 C 0.37296 0.38016 0.05409 0.0
O1409 O 0.34378 0.35299 0.10205 0.0
O1410 O 0.35518 0.38954 0.11226 0.0
C1411 C 0.38805 0.39366 0.15415 0.0
N1412 N 0.4001 0.39924 0.13407 0.0
C1413 C 0.43536 0.41182 0.15579 0.0
C1414 C 0.42327 0.40634 0.17672 0.0
C1415 C 0.39954 0.39716 0.17589 0.0
C1416 C 0.423 0.40793 0.13466 0.0
H1417 H 0.36983 0.38655 0.15357 0.0
C1418 C 0.33933 0.37304 0.11088 0.0
O1419 O 0.36107 0.30892 0.08305 0.0
O1420 O 0.37801 0.3185 0.11689 0.0
N1421 N 0.42122 0.40664 0.09392 0.0
C1422 C 0.43063 0.41033 0.07212 0.0
C1423 C 0.45441 0.41909 0.06986 0.0
C1424 C 0.46817 0.42422 0.09 0.0
C1425 C 0.45794 0.42071 0.11223 0.0
C1426 C 0.4341 0.41207 0.1134 0.0
H1427 H 0.42013 0.4065 0.05657 0.0
O1428 O 0.41002 0.33321 0.08155 0.0
O1429 O 0.39792 0.3638 0.102 0.0
O1430 O 0.37138 0.35829 0.05886 0.0
O1431 O 0.37864 0.39574 0.0693 0.0
C1432 C 0.47058 0.42515 0.13329 0.0
C1433 C 0.45931 0.42067 0.15505 0.0
H1434 H 0.43209 0.40896 0.19352 0.0
H1435 H 0.39013 0.39278 0.19197 0.0
H1436 H 0.46215 0.42181 0.05264 0.0
H1437 H 0.48659 0.43077 0.08819 0.0
H1438 H 0.4891 0.43169 0.13294 0.0
H1439 H 0.46934 0.42383 0.17111 0.0
Mn1440 Mn 0.42182 0.63317 0.83902 0.0
Mn1441 Mn 0.45795 0.5975 0.80787 0.0
C1442 C 0.46047 0.62508 0.85303 0.0
C1443 C 0.40774 0.6711 0.84505 0.0
C1444 C 0.41652 0.58003 0.83884 0.0
O1445 O 0.40467 0.63086 0.80744 0.0
O1446 O 0.43259 0.61081 0.78696 0.0
C1447 C 0.48119 0.63211 0.77628 0.0
N1448 N 0.48312 0.61465 0.79238 0.0
C1449 C 0.5267 0.61508 0.7895 0.0
C1450 C 0.52519 0.63289 0.77267 0.0
C1451 C 0.50234 0.6415 0.76611 0.0
C1452 C 0.505 0.60629 0.79888 0.0
H1453 H 0.46366 0.6388 0.77127 0.0
C1454 C 0.41268 0.62217 0.78839 0.0
O1455 O 0.39527 0.65304 0.85215 0.0
O1456 O 0.42788 0.66703 0.83417 0.0
N1457 N 0.48339 0.58349 0.82555 0.0
C1458 C 0.48172 0.56856 0.84409 0.0
C1459 C 0.50296 0.55951 0.85397 0.0
C1460 C 0.52559 0.56587 0.84462 0.0
C1461 C 0.52692 0.58129 0.82558 0.0
C1462 C 0.50512 0.5897 0.81642 0.0
H1463 H 0.46439 0.56404 0.85165 0.0
O1464 O 0.44388 0.63342 0.86671 0.0
O1465 O 0.45426 0.62255 0.83107 0.0
O1466 O 0.41012 0.59978 0.84732 0.0
O1467 O 0.4332 0.5779 0.82344 0.0
C1468 C 0.54899 0.58936 0.81592 0.0
C1469 C 0.54888 0.60617 0.79782 0.0
H1470 H 0.54146 0.64031 0.76493 0.0
H1471 H 0.50103 0.65538 0.75328 0.0
H1472 H 0.50191 0.54785 0.86888 0.0
H1473 H 0.54176 0.55913 0.85256 0.0
H1474 H 0.56615 0.58329 0.82272 0.0
H1475 H 0.56597 0.61263 0.79091 0.0
Mn1476 Mn 0.11947 0.67629 0.58629 0.0
Mn1477 Mn 0.11633 0.61879 0.59935 0.0
C1478 C 0.08244 0.65961 0.59568 0.0
C1479 C 0.12627 0.71523 0.59676 0.0
C1480 C 0.12241 0.63713 0.54977 0.0
O1481 O 0.15452 0.66779 0.59303 0.0
O1482 O 0.15035 0.6302 0.60444 0.0
C1483 C 0.12533 0.62148 0.65045 0.0
N1484 N 0.11081 0.61495 0.6322 0.0
C1485 C 0.0807 0.59914 0.65844 0.0
C1486 C 0.0954 0.60556 0.67752 0.0
C1487 C 0.11779 0.6168 0.6735 0.0
C1488 C 0.08924 0.60412 0.63586 0.0
H1489 H 0.14249 0.63024 0.64742 0.0
C1490 C 0.16324 0.64868 0.60084 0.0
O1491 O 0.12934 0.70792 0.57544 0.0
O1492 O 0.11965 0.69976 0.61222 0.0
N1493 N 0.0845 0.60565 0.59535 0.0
C1494 C 0.07197 0.60166 0.5751 0.0
C1495 C 0.04889 0.59107 0.57609 0.0
C1496 C 0.03901 0.58459 0.59786 0.0
C1497 C 0.05237 0.58863 0.61843 0.0
C1498 C 0.07536 0.59906 0.61633 0.0
H1499 H 0.07942 0.60668 0.55833 0.0
O1500 O 0.08349 0.67898 0.58384 0.0
O1501 O 0.10317 0.65064 0.60179 0.0
O1502 O 0.12086 0.6587 0.55516 0.0
O1503 O 0.12153 0.62074 0.56498 0.0
C1504 C 0.04358 0.58314 0.64097 0.0
C1505 C 0.05772 0.58841 0.66096 0.0
H1506 H 0.08959 0.60211 0.69533 0.0
H1507 H 0.12918 0.62191 0.68814 0.0
H1508 H 0.03867 0.58805 0.56014 0.0
H1509 H 0.02108 0.57669 0.59857 0.0
H1510 H 0.02582 0.57515 0.64314 0.0
H1511 H 0.05063 0.58438 0.6782 0.0
Mn1512 Mn 0.08575 0.3699 0.34001 0.0
Mn1513 Mn 0.04499 0.39396 0.30348 0.0
C1514 C 0.04625 0.37594 0.35413 0.0
C1515 C 0.10384 0.33522 0.35282 0.0
C1516 C 0.0847 0.42183 0.32883 0.0
O1517 O 0.10245 0.36773 0.30802 0.0
O1518 O 0.071 0.37846 0.28564 0.0
C1519 C 0.02564 0.34961 0.28383 0.0
N1520 N 0.02177 0.37086 0.2939 0.0
C1521 C 0.97848 0.36578 0.29139 0.0
C1522 C 0.98194 0.34391 0.28078 0.0
C1523 C 0.00564 0.33571 0.27715 0.0
C1524 C 0.99911 0.37856 0.29817 0.0
H1525 H 0.04384 0.34333 0.28095 0.0
C1526 C 0.09242 0.37057 0.28812 0.0
O1527 O 0.11454 0.35534 0.35606 0.0
O1528 O 0.08331 0.33537 0.34183 0.0
N1529 N 0.01805 0.41029 0.31644 0.0
C1530 C 0.01787 0.43219 0.32601 0.0
C1531 C 0.99565 0.44353 0.32962 0.0
C1532 C 0.97389 0.43255 0.32277 0.0
C1533 C 0.97446 0.41019 0.31267 0.0
C1534 C 0.99715 0.39981 0.30937 0.0
H1535 H 0.03451 0.441 0.33082 0.0
O1536 O 0.06455 0.37281 0.368 0.0
O1537 O 0.05166 0.37528 0.33182 0.0
O1538 O 0.09315 0.4051 0.34119 0.0
O1539 O 0.06798 0.419 0.3134 0.0
C1540 C 0.95341 0.39783 0.30569 0.0
C1541 C 0.9554 0.37549 0.29535 0.0
H1542 H 0.96656 0.33327 0.27535 0.0
H1543 H 0.00848 0.31881 0.26907 0.0
H1544 H 0.99533 0.46081 0.33738 0.0
H1545 H 0.95681 0.4414 0.32536 0.0
H1546 H 0.9356 0.40529 0.30834 0.0
H1547 H 0.93909 0.36606 0.29024 0.0
Mn1548 Mn 0.36701 0.67655 0.41135 0.0
Mn1549 Mn 0.36011 0.66321 0.35399 0.0
C1550 C 0.32858 0.67029 0.3961 0.0
C1551 C 0.37322 0.66596 0.45054 0.0
C1552 C 0.37128 0.71232 0.37147 0.0
O1553 O 0.40101 0.6666 0.40156 0.0
O1554 O 0.39403 0.65632 0.36396 0.0
C1555 C 0.36571 0.61181 0.35669 0.0
N1556 N 0.35231 0.63075 0.3505 0.0
C1557 C 0.32065 0.60618 0.33457 0.0
C1558 C 0.33417 0.5864 0.34066 0.0
C1559 C 0.35676 0.58923 0.35182 0.0
C1560 C 0.33053 0.62823 0.33979 0.0
H1561 H 0.38307 0.61392 0.36529 0.0
C1562 C 0.40807 0.65855 0.3818 0.0
O1563 O 0.37865 0.6867 0.44282 0.0
O1564 O 0.36497 0.65101 0.43526 0.0
N1565 N 0.32819 0.66881 0.34207 0.0
C1566 C 0.31668 0.68959 0.33893 0.0
C1567 C 0.29337 0.68978 0.32894 0.0
C1568 C 0.28223 0.66864 0.3221 0.0
C1569 C 0.29454 0.64749 0.32529 0.0
C1570 C 0.31778 0.6484 0.33526 0.0
H1571 H 0.32515 0.70588 0.34418 0.0
O1572 O 0.33156 0.6823 0.41523 0.0
O1573 O 0.34822 0.66216 0.38648 0.0
O1574 O 0.37107 0.70732 0.39325 0.0
O1575 O 0.36768 0.69709 0.35541 0.0
C1576 C 0.28446 0.62551 0.31942 0.0
C1577 C 0.29753 0.60487 0.32401 0.0
H1578 H 0.32728 0.56895 0.33706 0.0
H1579 H 0.36725 0.57404 0.35668 0.0
H1580 H 0.28397 0.70616 0.32657 0.0
H1581 H 0.26417 0.66884 0.31457 0.0
H1582 H 0.26651 0.62425 0.31173 0.0
H1583 H 0.28941 0.58806 0.31979 0.0
Mn1584 Mn 0.0954 0.62569 0.16124 0.0
Mn1585 Mn 0.05049 0.59481 0.18697 0.0
C1586 C 0.05733 0.62342 0.14386 0.0
C1587 C 0.11471 0.66198 0.15771 0.0
C1588 C 0.09251 0.57243 0.16052 0.0
O1589 O 0.10826 0.62071 0.19455 0.0
O1590 O 0.07497 0.60426 0.21097 0.0
C1591 C 0.02937 0.63227 0.21631 0.0
N1592 N 0.02663 0.6154 0.19962 0.0
C1593 C 0.98389 0.6233 0.19615 0.0
C1594 C 0.98619 0.64047 0.2136 0.0
C1595 C 0.00906 0.64507 0.22361 0.0
C1596 C 0.00478 0.61109 0.1896 0.0
H1597 H 0.04694 0.63602 0.22386 0.0
C1598 C 0.09652 0.61288 0.21225 0.0
O1599 O 0.12563 0.64296 0.15115 0.0
O1600 O 0.09334 0.65977 0.16675 0.0
N1601 N 0.02545 0.58494 0.1657 0.0
C1602 C 0.0267 0.56921 0.14778 0.0
C1603 C 0.0056 0.56349 0.13509 0.0
C1604 C 0.98342 0.57391 0.14102 0.0
C1605 C 0.98255 0.59 0.15956 0.0
C1606 C 0.00415 0.59492 0.17166 0.0
H1607 H 0.04369 0.56121 0.14307 0.0
O1608 O 0.07611 0.62934 0.13151 0.0
O1609 O 0.06149 0.61928 0.16584 0.0
O1610 O 0.10276 0.59127 0.15328 0.0
O1611 O 0.07376 0.57223 0.17377 0.0
C1612 C 0.96119 0.60165 0.16624 0.0
C1613 C 0.96185 0.61827 0.18453 0.0
H1614 H 0.97061 0.65049 0.21916 0.0
H1615 H 0.01104 0.65851 0.23688 0.0
H1616 H 0.00645 0.55114 0.12073 0.0
H1617 H 0.96723 0.5696 0.13107 0.0
H1618 H 0.94424 0.59824 0.15716 0.0
H1619 H 0.9454 0.62745 0.18919 0.0
Mn1620 Mn 0.13289 0.34065 0.91246 0.0
Mn1621 Mn 0.13848 0.35471 0.85513 0.0
C1622 C 0.1708 0.34697 0.89661 0.0
C1623 C 0.12741 0.3514 0.9516 0.0
C1624 C 0.12888 0.30526 0.87213 0.0
O1625 O 0.09864 0.34997 0.90346 0.0
O1626 O 0.10465 0.3604 0.86583 0.0
C1627 C 0.13166 0.40584 0.85958 0.0
N1628 N 0.14532 0.38742 0.85241 0.0
C1629 C 0.17602 0.41319 0.83676 0.0
C1630 C 0.16221 0.43245 0.84384 0.0
C1631 C 0.13996 0.42876 0.85536 0.0
C1632 C 0.1668 0.39078 0.84142 0.0
H1633 H 0.11457 0.40306 0.86847 0.0
C1634 C 0.09101 0.35773 0.88384 0.0
O1635 O 0.12217 0.33045 0.94423 0.0
O1636 O 0.13501 0.36631 0.93605 0.0
N1637 N 0.17014 0.35022 0.84218 0.0
C1638 C 0.18175 0.32978 0.83746 0.0
C1639 C 0.2046 0.33042 0.82655 0.0
C1640 C 0.2151 0.35202 0.82034 0.0
C1641 C 0.2026 0.37279 0.82498 0.0
C1642 C 0.17984 0.37106 0.83581 0.0
H1643 H 0.17374 0.31313 0.84215 0.0
O1644 O 0.16831 0.33515 0.91587 0.0
O1645 O 0.15104 0.35526 0.88736 0.0
O1646 O 0.12895 0.31001 0.89401 0.0
O1647 O 0.13203 0.3207 0.85621 0.0
C1648 C 0.21202 0.39517 0.8197 0.0
C1649 C 0.19875 0.41536 0.82561 0.0
H1650 H 0.16859 0.45015 0.84069 0.0
H1651 H 0.12926 0.44353 0.86098 0.0
H1652 H 0.21411 0.31431 0.82299 0.0
H1653 H 0.23282 0.35245 0.81212 0.0
H1654 H 0.22962 0.39707 0.81143 0.0
H1655 H 0.20635 0.43247 0.82178 0.0
Mn1656 Mn 0.41786 0.37792 0.66027 0.0
Mn1657 Mn 0.46413 0.41263 0.67782 0.0
C1658 C 0.45355 0.3803 0.63869 0.0
C1659 C 0.39902 0.34154 0.65848 0.0
C1660 C 0.41834 0.43117 0.65496 0.0
O1661 O 0.40979 0.3833 0.69502 0.0
O1662 O 0.44241 0.40548 0.70469 0.0
C1663 C 0.48851 0.37843 0.70877 0.0
N1664 N 0.48941 0.39356 0.69034 0.0
C1665 C 0.53147 0.38485 0.68344 0.0
C1666 C 0.53114 0.36961 0.70268 0.0
C1667 C 0.50951 0.36627 0.71529 0.0
C1668 C 0.51 0.39655 0.67779 0.0
H1669 H 0.47185 0.37548 0.71827 0.0
C1670 C 0.42271 0.39458 0.71 0.0
O1671 O 0.38686 0.36048 0.6544 0.0
O1672 O 0.42141 0.34384 0.66508 0.0
N1673 N 0.48679 0.42024 0.65348 0.0
C1674 C 0.48358 0.43405 0.63428 0.0
C1675 C 0.50319 0.43824 0.6191 0.0
C1676 C 0.5259 0.42826 0.62383 0.0
C1677 C 0.5288 0.41414 0.64371 0.0
C1678 C 0.50864 0.41072 0.6583 0.0
H1679 H 0.46615 0.44169 0.6305 0.0
O1680 O 0.43347 0.37392 0.62856 0.0
O1681 O 0.45174 0.38572 0.66064 0.0
O1682 O 0.40781 0.41137 0.65235 0.0
O1683 O 0.43926 0.43363 0.66445 0.0
C1684 C 0.55076 0.40298 0.64938 0.0
C1685 C 0.55207 0.38832 0.66922 0.0
H1686 H 0.54725 0.36004 0.70763 0.0
H1687 H 0.50899 0.35424 0.72993 0.0
H1688 H 0.50078 0.44907 0.60373 0.0
H1689 H 0.54093 0.43137 0.61197 0.0
H1690 H 0.56663 0.4052 0.63838 0.0
H1691 H 0.56883 0.37941 0.67317 0.0
Mn1692 Mn 0.33612 0.10567 0.38022 0.0
Mn1693 Mn 0.29076 0.08573 0.34562 0.0
C1694 C 0.29942 0.12577 0.37745 0.0
C1695 C 0.35452 0.10847 0.41718 0.0
C1696 C 0.33616 0.10981 0.32666 0.0
O1697 O 0.34568 0.07118 0.37505 0.0
O1698 O 0.31288 0.0598 0.35401 0.0
C1699 C 0.26582 0.05512 0.38009 0.0
N1700 N 0.2651 0.07304 0.36439 0.0
C1701 C 0.22227 0.0782 0.37074 0.0
C1702 C 0.22247 0.0595 0.38663 0.0
C1703 C 0.24439 0.04803 0.39145 0.0
C1704 C 0.24421 0.0845 0.35998 0.0
H1705 H 0.28266 0.04642 0.38403 0.0
C1706 C 0.33291 0.05543 0.36461 0.0
O1707 O 0.36645 0.11342 0.39815 0.0
O1708 O 0.33261 0.10048 0.41455 0.0
N1709 N 0.26783 0.10911 0.3367 0.0
C1710 C 0.27116 0.12816 0.32268 0.0
C1711 C 0.25124 0.14226 0.317 0.0
C1712 C 0.22811 0.13665 0.32579 0.0
C1713 C 0.22516 0.11705 0.34031 0.0
C1714 C 0.24564 0.10356 0.34524 0.0
H1715 H 0.28891 0.13272 0.31611 0.0
O1716 O 0.31901 0.13665 0.38403 0.0
O1717 O 0.30211 0.10388 0.37234 0.0
O1718 O 0.34631 0.11391 0.34642 0.0
O1719 O 0.31582 0.09906 0.32464 0.0
C1720 C 0.20277 0.11065 0.35043 0.0
C1721 C 0.20131 0.09125 0.36565 0.0
H1722 H 0.20601 0.05407 0.39553 0.0
H1723 H 0.24476 0.03379 0.40394 0.0
H1724 H 0.25373 0.15749 0.30597 0.0
H1725 H 0.21282 0.14767 0.32154 0.0
H1726 H 0.18671 0.12085 0.34694 0.0
H1727 H 0.18411 0.0868 0.37374 0.0
H1728 H 0.09794 0.29256 0.33386 0.0
H1729 H 0.12989 0.3279 0.39322 0.0
H1730 H 0.13819 0.28999 0.4118 0.0
H1731 H 0.1328 0.24662 0.4124 0.0
H1732 H 0.10183 0.21237 0.35167 0.0
H1733 H 0.0968 0.24992 0.33245 0.0
C1734 C 0.10708 0.29195 0.35072 0.0
C1735 C 0.11316 0.31292 0.36225 0.0
C1736 C 0.11173 0.27024 0.36116 0.0
C1737 C 0.12517 0.31194 0.38396 0.0
C1738 C 0.12971 0.29028 0.39465 0.0
C1739 C 0.12517 0.24743 0.39489 0.0
C1740 C 0.11746 0.22666 0.38364 0.0
C1741 C 0.1225 0.26928 0.38366 0.0
C1742 C 0.10787 0.22799 0.36082 0.0
C1743 C 0.10491 0.2495 0.34977 0.0
H1744 H 0.01368 0.86771 0.6579 0.0
H1745 H 0.03866 0.87406 0.5863 0.0
H1746 H 0.99851 0.86426 0.57191 0.0
H1747 H 0.95586 0.85461 0.57912 0.0
H1748 H 0.92975 0.84902 0.64997 0.0
H1749 H 0.97067 0.85722 0.66513 0.0
C1750 C 0.01037 0.86687 0.63918 0.0
C1751 C 0.02935 0.87165 0.62335 0.0
C1752 C 0.98699 0.86121 0.63079 0.0
C1753 C 0.02457 0.87051 0.59907 0.0
C1754 C 0.00155 0.86482 0.59069 0.0
C1755 C 0.95927 0.85523 0.59786 0.0
C1756 C 0.93999 0.85207 0.61347 0.0
C1757 C 0.98262 0.86025 0.60633 0.0
C1758 C 0.94443 0.85221 0.63771 0.0
C1759 C 0.96777 0.85676 0.64634 0.0
H1760 H 0.39959 0.77969 0.86042 0.0
H1761 H 0.36398 0.75643 0.92366 0.0
H1762 H 0.36613 0.71584 0.9103 0.0
H1763 H 0.38114 0.68664 0.88202 0.0
H1764 H 0.41935 0.71005 0.82029 0.0
H1765 H 0.4129 0.75079 0.83145 0.0
C1766 C 0.39206 0.76577 0.87116 0.0
C1767 C 0.38174 0.77106 0.89303 0.0
C1768 C 0.39386 0.74243 0.86362 0.0
C1769 C 0.37216 0.7528 0.9068 0.0
C1770 C 0.37336 0.72958 0.89916 0.0
C1771 C 0.38762 0.7007 0.87084 0.0
C1772 C 0.40066 0.6954 0.85037 0.0
C1773 C 0.38457 0.72413 0.87779 0.0
C1774 C 0.4093 0.71374 0.83618 0.0
C1775 C 0.40568 0.73703 0.84257 0.0
H1776 H 0.4715 0.13627 0.1472 0.0
H1777 H 0.44863 0.12842 0.07505 0.0
H1778 H 0.48965 0.13638 0.06177 0.0
H1779 H 0.53183 0.14724 0.07009 0.0
H1780 H 0.55578 0.15479 0.14154 0.0
H1781 H 0.5147 0.14545 0.15563 0.0
C1782 C 0.47549 0.13624 0.12859 0.0
C1783 C 0.45674 0.13195 0.11225 0.0
C1784 C 0.49937 0.14083 0.12088 0.0
C1785 C 0.46246 0.13179 0.08816 0.0
C1786 C 0.486 0.13638 0.08045 0.0
C1787 C 0.52801 0.14652 0.08874 0.0
C1788 C 0.54673 0.15093 0.10482 0.0
C1789 C 0.5045 0.14116 0.09658 0.0
C1790 C 0.54165 0.15066 0.12893 0.0
C1791 C 0.51817 0.14552 0.13693 0.0
H1792 H 0.12204 0.68344 0.11607 0.0
H1793 H 0.12674 0.69371 0.19074 0.0
H1794 H 0.1324 0.73583 0.18507 0.0
H1795 H 0.13135 0.76987 0.15929 0.0
H1796 H 0.12409 0.76033 0.08447 0.0
H1797 H 0.12402 0.71786 0.08973 0.0
C1798 C 0.12517 0.6949 0.13096 0.0
C1799 C 0.12458 0.68561 0.15377 0.0
C1800 C 0.1273 0.71925 0.12756 0.0
C1801 C 0.1277 0.70056 0.17305 0.0
C1802 C 0.13062 0.72463 0.1698 0.0
C1803 C 0.12985 0.75859 0.14404 0.0
C1804 C 0.12738 0.76843 0.12152 0.0
C1805 C 0.12964 0.73423 0.14719 0.0
C1806 C 0.12579 0.75335 0.10204 0.0
C1807 C 0.1258 0.72902 0.10502 0.0
H1808 H 0.49774 0.89848 0.33867 0.0
H1809 H 0.47591 0.87506 0.40744 0.0
H1810 H 0.51789 0.86451 0.4164 0.0
H1811 H 0.56019 0.85897 0.40335 0.0
H1812 H 0.58088 0.88137 0.33374 0.0
H1813 H 0.53994 0.89504 0.32653 0.0
C1814 C 0.50217 0.89143 0.35579 0.0
C1815 C 0.48369 0.88751 0.37232 0.0
C1816 C 0.52613 0.8848 0.36055 0.0
C1817 C 0.4898 0.8783 0.39438 0.0
C1818 C 0.51378 0.87209 0.39946 0.0
C1819 C 0.55578 0.86688 0.38662 0.0
C1820 C 0.57368 0.8688 0.36906 0.0
C1821 C 0.532 0.87471 0.38243 0.0
C1822 C 0.56756 0.87934 0.34756 0.0
C1823 C 0.5441 0.88729 0.34339 0.0
H1824 H 0.35134 0.24206 0.64516 0.0
H1825 H 0.4102 0.23588 0.5958 0.0
H1826 H 0.42262 0.27634 0.60396 0.0
H1827 H 0.41851 0.31226 0.62744 0.0
H1828 H 0.35817 0.31957 0.6748 0.0
H1829 H 0.34441 0.27962 0.66528 0.0
C1830 C 0.3667 0.24969 0.636 0.0
C1831 C 0.38002 0.23605 0.62007 0.0
C1832 C 0.37355 0.27293 0.64066 0.0
C1833 C 0.39966 0.24615 0.60804 0.0
C1834 C 0.40686 0.26917 0.61285 0.0
C1835 C 0.40228 0.30503 0.63555 0.0
C1836 C 0.3895 0.31837 0.65205 0.0
C1837 C 0.39426 0.28249 0.6295 0.0
C1838 C 0.36826 0.30934 0.66218 0.0
C1839 C 0.36047 0.2866 0.65673 0.0
H1840 H 0.00343 0.12117 0.83328 0.0
H1841 H 0.02829 0.1365 0.90341 0.0
H1842 H 0.98666 0.1436 0.91595 0.0
H1843 H 0.94315 0.14799 0.9064 0.0
H1844 H 0.91891 0.1327 0.83588 0.0
H1845 H 0.95998 0.1232 0.82437 0.0
C1846 C 0.99971 0.12571 0.85138 0.0
C1847 C 0.01901 0.12835 0.86729 0.0
C1848 C 0.9757 0.13012 0.85847 0.0
C1849 C 0.01381 0.13436 0.89071 0.0
C1850 C 0.98997 0.13855 0.89792 0.0
C1851 C 0.94683 0.14251 0.88856 0.0
C1852 C 0.92776 0.14137 0.87212 0.0
C1853 C 0.97076 0.13694 0.88184 0.0
C1854 C 0.93303 0.134 0.84906 0.0
C1855 C 0.95663 0.12847 0.84234 0.0
H1856 H 0.40025 0.13548 0.23767 0.0
H1857 H 0.32882 0.13729 0.20647 0.0
H1858 H 0.31033 0.13025 0.24447 0.0
H1859 H 0.31422 0.11957 0.28543 0.0
H1860 H 0.38472 0.11861 0.31835 0.0
H1861 H 0.40377 0.12918 0.28087 0.0
C1862 C 0.38065 0.1349 0.23935 0.0
C1863 C 0.36597 0.13671 0.21915 0.0
C1864 C 0.36995 0.13054 0.26147 0.0
C1865 C 0.34058 0.13577 0.22162 0.0
C1866 C 0.32994 0.13163 0.24337 0.0
C1867 C 0.33375 0.12192 0.28461 0.0
C1868 C 0.348 0.11806 0.30469 0.0
C1869 C 0.34444 0.12828 0.26323 0.0
C1870 C 0.37329 0.1214 0.30316 0.0
C1871 C 0.38419 0.12742 0.28171 0.0
H1872 H 0.12038 0.0933 0.47998 0.0
H1873 H 0.11041 0.16732 0.49136 0.0
H1874 H 0.11527 0.16156 0.53367 0.0
H1875 H 0.1258 0.13574 0.56717 0.0
H1876 H 0.13939 0.0627 0.55428 0.0
H1877 H 0.12924 0.06772 0.51287 0.0
C1878 C 0.11899 0.10825 0.49163 0.0
C1879 C 0.1151 0.13077 0.48236 0.0
C1880 C 0.12239 0.1049 0.51576 0.0
C1881 C 0.1135 0.14981 0.49791 0.0
C1882 C 0.11627 0.14652 0.52214 0.0
C1883 C 0.12591 0.1209 0.5553 0.0
C1884 C 0.13294 0.0988 0.56366 0.0
C1885 C 0.12113 0.12418 0.53124 0.0
C1886 C 0.13377 0.07977 0.54816 0.0
C1887 C 0.12812 0.08268 0.5245 0.0
H1888 H 0.17906 0.89377 0.79316 0.0
H1889 H 0.11178 0.89876 0.83132 0.0
H1890 H 0.08899 0.88888 0.7956 0.0
H1891 H 0.08835 0.88253 0.75224 0.0
H1892 H 0.15663 0.87742 0.71555 0.0
H1893 H 0.17873 0.88316 0.75197 0.0
C1894 C 0.15941 0.89246 0.79381 0.0
C1895 C 0.14716 0.89728 0.81483 0.0
C1896 C 0.14654 0.88673 0.77336 0.0
C1897 C 0.12169 0.89519 0.81534 0.0
C1898 C 0.10864 0.88961 0.79489 0.0
C1899 C 0.10803 0.88215 0.7524 0.0
C1900 C 0.1208 0.87983 0.73114 0.0
C1901 C 0.12086 0.88581 0.7736 0.0
C1902 C 0.14633 0.87947 0.73159 0.0
C1903 C 0.15905 0.8828 0.75242 0.0
H1904 H 0.36454 0.90754 0.97948 0.0
H1905 H 0.39041 0.83774 0.99306 0.0
H1906 H 0.38547 0.84399 0.03523 0.0
H1907 H 0.37149 0.86865 0.06815 0.0
H1908 H 0.34255 0.937 0.05362 0.0
H1909 H 0.35139 0.93215 0.01194 0.0
C1910 C 0.36931 0.89372 0.99164 0.0
C1911 C 0.37779 0.87219 0.98311 0.0
C1912 C 0.36594 0.89724 0.01572 0.0
C1913 C 0.38367 0.85443 0.99914 0.0
C1914 C 0.38092 0.85801 0.02326 0.0
C1915 C 0.36757 0.88257 0.05583 0.0
C1916 C 0.35658 0.9032 0.06379 0.0
C1917 C 0.37181 0.87926 0.03175 0.0
C1918 C 0.35106 0.92099 0.04776 0.0
C1919 C 0.35603 0.9182 0.02397 0.0
H1920 H 0.36017 0.86016 0.27646 0.0
H1921 H 0.3985 0.92555 0.28593 0.0
H1922 H 0.39029 0.93624 0.24517 0.0
H1923 H 0.36896 0.9284 0.20795 0.0
H1924 H 0.33283 0.86213 0.19746 0.0
H1925 H 0.34371 0.85002 0.23734 0.0
C1926 C 0.36684 0.87663 0.26945 0.0
C1927 C 0.37958 0.89224 0.28409 0.0
C1928 C 0.36257 0.88237 0.24585 0.0
C1929 C 0.38857 0.91335 0.27487 0.0
C1930 C 0.38387 0.91947 0.25163 0.0
C1931 C 0.36416 0.91107 0.21427 0.0
C1932 C 0.35038 0.89603 0.19999 0.0
C1933 C 0.37053 0.9043 0.23709 0.0
C1934 C 0.34384 0.87373 0.2082 0.0
C1935 C 0.34981 0.86696 0.23103 0.0
H1936 H 0.39095 0.15868 0.50939 0.0
H1937 H 0.33953 0.11027 0.54001 0.0
H1938 H 0.33245 0.09236 0.50176 0.0
H1939 H 0.33835 0.0924 0.45912 0.0
H1940 H 0.39076 0.13957 0.42825 0.0
H1941 H 0.40031 0.15563 0.467 0.0
C1942 C 0.37836 0.1441 0.50767 0.0
C1943 C 0.36558 0.13602 0.52749 0.0
C1944 C 0.37458 0.13359 0.48556 0.0
C1945 C 0.34957 0.11689 0.52506 0.0
C1946 C 0.34546 0.10663 0.50316 0.0
C1947 C 0.35217 0.10592 0.46092 0.0
C1948 C 0.3637 0.11487 0.4408 0.0
C1949 C 0.35753 0.11509 0.48323 0.0
C1950 C 0.38168 0.13229 0.44345 0.0
C1951 C 0.387 0.14163 0.4656 0.0
H1952 H 0.10196 0.12891 0.76732 0.0
H1953 H 0.17209 0.11688 0.79912 0.0
H1954 H 0.18913 0.10745 0.76133 0.0
H1955 H 0.1848 0.10174 0.71961 0.0
H1956 H 0.116 0.11389 0.68575 0.0
H1957 H 0.09802 0.12431 0.72376 0.0
C1958 C 0.12093 0.12421 0.76593 0.0
C1959 C 0.13558 0.12368 0.78629 0.0
C1960 C 0.13101 0.11886 0.74372 0.0
C1961 C 0.16023 0.11766 0.78398 0.0
C1962 C 0.17013 0.11217 0.76228 0.0
C1963 C 0.16583 0.10669 0.72038 0.0
C1964 C 0.15178 0.10685 0.69978 0.0
C1965 C 0.15574 0.11263 0.7421 0.0
C1966 C 0.12732 0.11364 0.70129 0.0
C1967 C 0.117 0.11949 0.72307 0.0
H1968 H 0.14222 0.89604 0.0343 0.0
H1969 H 0.10536 0.83392 0.00939 0.0
H1970 H 0.10564 0.84936 0.96947 0.0
H1971 H 0.11982 0.87872 0.94108 0.0
H1972 H 0.16032 0.9389 0.96533 0.0
H1973 H 0.15475 0.92638 0.00602 0.0
C1974 C 0.134 0.88603 0.02016 0.0
C1975 C 0.12389 0.86382 0.02478 0.0
C1976 C 0.13483 0.89474 0.99711 0.0
C1977 C 0.11344 0.85098 0.00627 0.0
C1978 C 0.11354 0.85982 0.98343 0.0
C1979 C 0.12684 0.88939 0.95533 0.0
C1980 C 0.14024 0.90981 0.95029 0.0
C1981 C 0.12461 0.88146 0.97856 0.0
C1982 C 0.14979 0.92319 0.96885 0.0
C1983 C 0.14676 0.91594 0.99208 0.0
H1984 H 0.29951 0.34435 0.10856 0.0
H1985 H 0.32254 0.41323 0.13116 0.0
H1986 H 0.28068 0.42324 0.14024 0.0
H1987 H 0.23711 0.41381 0.1383 0.0
H1988 H 0.21409 0.34536 0.11471 0.0
H1989 H 0.25633 0.3338 0.10983 0.0
C1990 C 0.29547 0.36148 0.1157 0.0
C1991 C 0.31423 0.37808 0.11882 0.0
C1992 C 0.27128 0.36728 0.12067 0.0
C1993 C 0.30853 0.40013 0.12829 0.0
C1994 C 0.28454 0.40591 0.13352 0.0
C1995 C 0.24135 0.39624 0.13248 0.0
C1996 C 0.22247 0.38056 0.1267 0.0
C1997 C 0.2657 0.38983 0.12926 0.0
C1998 C 0.22827 0.35784 0.11915 0.0
C1999 C 0.25244 0.35122 0.11628 0.0
H2000 H 0.73156 0.09228 0.88103 0.0
H2001 H 0.69823 0.1602 0.87637 0.0
H2002 H 0.73731 0.17921 0.88355 0.0
H2003 H 0.78093 0.1767 0.89265 0.0
H2004 H 0.81454 0.1091 0.897 0.0
H2005 H 0.77551 0.08981 0.88915 0.0
C2006 C 0.73296 0.11122 0.88126 0.0
C2007 C 0.71202 0.12478 0.87817 0.0
C2008 C 0.75549 0.12212 0.88586 0.0
C2009 C 0.71408 0.14933 0.87874 0.0
C2010 C 0.73639 0.16026 0.883 0.0
C2011 C 0.77956 0.15777 0.89186 0.0
C2012 C 0.80046 0.14428 0.89484 0.0
C2013 C 0.75715 0.14686 0.88695 0.0
C2014 C 0.79862 0.11977 0.89422 0.0
C2015 C 0.77634 0.10875 0.88976 0.0
H2016 H 0.14432 0.48042 0.12374 0.0
H2017 H 0.0754 0.4509 0.14517 0.0
H2018 H 0.06192 0.48919 0.1581 0.0
H2019 H 0.06916 0.53071 0.16318 0.0
H2020 H 0.13672 0.56194 0.14038 0.0
H2021 H 0.15124 0.52332 0.12814 0.0
C2022 C 0.12641 0.48241 0.13132 0.0
C2023 C 0.11091 0.46276 0.13349 0.0
C2024 C 0.11848 0.50475 0.13843 0.0
C2025 C 0.08766 0.46568 0.14314 0.0
C2026 C 0.07992 0.48759 0.15061 0.0
C2027 C 0.08713 0.52924 0.15558 0.0
C2028 C 0.10184 0.54931 0.15282 0.0
C2029 C 0.09512 0.5072 0.14829 0.0
C2030 C 0.12497 0.54684 0.14271 0.0
C2031 C 0.13329 0.52474 0.13574 0.0
H2032 H 0.72104 0.82908 0.38722 0.0
H2033 H 0.68582 0.8961 0.38634 0.0
H2034 H 0.72471 0.91577 0.37962 0.0
H2035 H 0.76889 0.91412 0.37589 0.0
H2036 H 0.80494 0.84747 0.37905 0.0
H2037 H 0.76568 0.82737 0.38227 0.0
C2038 C 0.72203 0.84795 0.38535 0.0
C2039 C 0.7007 0.86116 0.38654 0.0
C2040 C 0.74455 0.85917 0.38171 0.0
C2041 C 0.70204 0.88562 0.38475 0.0
C2042 C 0.72425 0.89686 0.38102 0.0
C2043 C 0.76815 0.89517 0.37688 0.0
C2044 C 0.78977 0.8823 0.37721 0.0
C2045 C 0.74563 0.88383 0.37953 0.0
C2046 C 0.78851 0.85777 0.37877 0.0
C2047 C 0.76609 0.84628 0.38076 0.0
H2048 H 0.92936 0.9749 0.15 0.0
H2049 H 0.86329 0.93502 0.13985 0.0
H2050 H 0.84232 0.9704 0.1272 0.0
H2051 H 0.84201 0.01334 0.1221 0.0
H2052 H 0.90841 0.05266 0.13268 0.0
H2053 H 0.92998 0.01677 0.14178 0.0
C2054 C 0.9104 0.97386 0.14492 0.0
C2055 C 0.89786 0.95237 0.14619 0.0
C2056 C 0.89847 0.99422 0.13772 0.0
C2057 C 0.87338 0.95134 0.13915 0.0
C2058 C 0.86135 0.97159 0.13195 0.0
C2059 C 0.86128 0.01398 0.12602 0.0
C2060 C 0.87351 0.03568 0.12691 0.0
C2061 C 0.8736 0.99322 0.13157 0.0
C2062 C 0.89849 0.03622 0.13202 0.0
C2063 C 0.91086 0.01571 0.13731 0.0
H2064 H 0.19059 0.61036 0.61134 0.0
H2065 H 0.19574 0.68517 0.60139 0.0
H2066 H 0.23937 0.68386 0.60831 0.0
H2067 H 0.27628 0.66154 0.61625 0.0
H2068 H 0.27141 0.58661 0.62531 0.0
H2069 H 0.22753 0.58805 0.61974 0.0
C2070 C 0.20119 0.62642 0.61077 0.0
C2071 C 0.18975 0.64781 0.60577 0.0
C2072 C 0.22641 0.62557 0.61457 0.0
C2073 C 0.20394 0.66841 0.60507 0.0
C2074 C 0.22896 0.6677 0.60906 0.0
C2075 C 0.26567 0.64549 0.61712 0.0
C2076 C 0.27729 0.624 0.62116 0.0
C2077 C 0.24041 0.64638 0.61368 0.0
C2078 C 0.26309 0.60343 0.62215 0.0
C2079 C 0.23793 0.60421 0.61897 0.0
H2080 H 0.1208 0.43669 0.35877 0.0
H2081 H 0.06704 0.46223 0.31001 0.0
H2082 H 0.07594 0.50222 0.32176 0.0
H2083 H 0.09741 0.53013 0.34717 0.0
H2084 H 0.15356 0.5058 0.39353 0.0
H2085 H 0.14533 0.46522 0.38149 0.0
C2086 C 0.11119 0.45098 0.35054 0.0
C2087 C 0.09289 0.44622 0.33385 0.0
C2088 C 0.11666 0.47421 0.3571 0.0
C2089 C 0.08094 0.46513 0.32315 0.0
C2090 C 0.08598 0.48813 0.32987 0.0
C2091 C 0.1078 0.51588 0.35461 0.0
C2092 C 0.12575 0.52073 0.37143 0.0
C2093 C 0.10345 0.49284 0.34711 0.0
C2094 C 0.13954 0.50233 0.38062 0.0
C2095 C 0.13483 0.47919 0.37374 0.0
H2096 H 0.43577 0.53694 0.83597 0.0
H2097 H 0.37312 0.57322 0.86253 0.0
H2098 H 0.35643 0.53593 0.87715 0.0
H2099 H 0.36 0.49256 0.88202 0.0
H2100 H 0.42519 0.45873 0.85763 0.0
H2101 H 0.44066 0.49571 0.84292 0.0
C2102 C 0.41849 0.53694 0.84505 0.0
C2103 C 0.40571 0.55795 0.84804 0.0
C2104 C 0.40952 0.5158 0.85396 0.0
C2105 C 0.38336 0.55732 0.85995 0.0
C2106 C 0.37384 0.536 0.86832 0.0
C2107 C 0.37762 0.4934 0.87359 0.0
C2108 C 0.39139 0.47283 0.87098 0.0
C2109 C 0.3868 0.51506 0.8654 0.0
C2110 C 0.41427 0.47422 0.86013 0.0
C2111 C 0.42312 0.49537 0.85154 0.0
H2112 H 0.86754 0.68607 0.60175 0.0
H2113 H 0.8954 0.69666 0.67183 0.0
H2114 H 0.88921 0.7387 0.66809 0.0
H2115 H 0.8789 0.77285 0.6439 0.0
H2116 H 0.8518 0.76235 0.57362 0.0
H2117 H 0.85446 0.71999 0.57863 0.0
C2118 C 0.87211 0.69749 0.61633 0.0
C2119 C 0.88219 0.68803 0.63698 0.0
C2120 C 0.86869 0.72178 0.61402 0.0
C2121 C 0.88774 0.70328 0.65567 0.0
C2122 C 0.88424 0.72741 0.65354 0.0
C2123 C 0.87323 0.76131 0.62978 0.0
C2124 C 0.86526 0.77085 0.60836 0.0
C2125 C 0.87515 0.73691 0.63265 0.0
C2126 C 0.85803 0.75556 0.59028 0.0
C2127 C 0.85964 0.73129 0.5931 0.0
H2128 H 0.98814 0.14839 0.33909 0.0
H2129 H 0.95536 0.11084 0.39639 0.0
H2130 H 0.9944 0.11029 0.41708 0.0
H2131 H 0.03737 0.12343 0.41993 0.0
H2132 H 0.07118 0.15599 0.36015 0.0
H2133 H 0.03235 0.15593 0.3394 0.0
C2134 C 0.98979 0.13929 0.35567 0.0
C2135 C 0.96912 0.12888 0.36578 0.0
C2136 C 0.01248 0.13836 0.36707 0.0
C2137 C 0.97117 0.11852 0.38802 0.0
C2138 C 0.99348 0.11818 0.39984 0.0
C2139 C 0.03655 0.12916 0.40185 0.0
C2140 C 0.05734 0.1389 0.39126 0.0
C2141 C 0.01428 0.12817 0.38959 0.0
C2142 C 0.0556 0.14769 0.36835 0.0
C2143 C 0.03332 0.14792 0.35658 0.0
H2144 H 0.61065 0.23506 0.13693 0.0
H2145 H 0.62568 0.24927 0.06404 0.0
H2146 H 0.62681 0.29122 0.07222 0.0
H2147 H 0.62048 0.32381 0.09934 0.0
H2148 H 0.60457 0.30976 0.17217 0.0
H2149 H 0.60724 0.26779 0.16474 0.0
C2150 C 0.61438 0.24731 0.12286 0.0
C2151 C 0.61785 0.23903 0.09985 0.0
C2152 C 0.61481 0.27144 0.12765 0.0
C2153 C 0.62283 0.25515 0.08187 0.0
C2154 C 0.62345 0.27916 0.08654 0.0
C2155 C 0.6178 0.31165 0.11371 0.0
C2156 C 0.61204 0.32007 0.13626 0.0
C2157 C 0.619 0.28751 0.10926 0.0
C2158 C 0.60892 0.3039 0.15462 0.0
C2159 C 0.61034 0.27983 0.15036 0.0
H2160 H 0.43907 0.84752 0.86869 0.0
H2161 H 0.45407 0.87939 0.93548 0.0
H2162 H 0.49501 0.89024 0.92245 0.0
H2163 H 0.52765 0.88788 0.89274 0.0
H2164 H 0.51537 0.84723 0.83022 0.0
H2165 H 0.47284 0.84114 0.84122 0.0
C2166 C 0.45117 0.85744 0.88005 0.0
C2167 C 0.443 0.86459 0.90222 0.0
C2168 C 0.47545 0.86119 0.87339 0.0
C2169 C 0.45933 0.87567 0.9176 0.0
C2170 C 0.48294 0.88122 0.91037 0.0
C2171 C 0.51549 0.87796 0.88146 0.0
C2172 C 0.52401 0.86935 0.85992 0.0
C2173 C 0.49132 0.87381 0.88838 0.0
C2174 C 0.50867 0.85526 0.84613 0.0
C2175 C 0.48445 0.85159 0.85253 0.0
H2176 H 0.87106 0.23902 0.89785 0.0
H2177 H 0.85919 0.21732 0.82612 0.0
H2178 H 0.86625 0.25725 0.81277 0.0
H2179 H 0.87824 0.29804 0.82098 0.0
H2180 H 0.89072 0.31993 0.89223 0.0
H2181 H 0.88092 0.28041 0.90624 0.0
C2182 C 0.86989 0.24299 0.8793 0.0
C2183 C 0.86483 0.22492 0.86306 0.0
C2184 C 0.87406 0.26612 0.87162 0.0
C2185 C 0.86322 0.23064 0.8391 0.0
C2186 C 0.86727 0.25355 0.83138 0.0
C2187 C 0.87839 0.29415 0.83959 0.0
C2188 C 0.88437 0.31194 0.85565 0.0
C2189 C 0.87303 0.27135 0.84742 0.0
C2190 C 0.88528 0.30665 0.87966 0.0
C2191 C 0.87994 0.28401 0.88762 0.0
H2192 H 0.44328 0.12941 0.58756 0.0
H2193 H 0.4423 0.17959 0.64422 0.0
H2194 H 0.48451 0.1715 0.65306 0.0
H2195 H 0.51989 0.14709 0.64816 0.0
H2196 H 0.52257 0.09607 0.59273 0.0
H2197 H 0.48168 0.10763 0.57965 0.0
C2198 C 0.45254 0.13884 0.60149 0.0
C2199 C 0.43959 0.15481 0.61546 0.0
C2200 C 0.47697 0.13377 0.60685 0.0
C2201 C 0.45175 0.16693 0.63349 0.0
C2202 C 0.47592 0.1624 0.63853 0.0
C2203 C 0.51158 0.13869 0.63304 0.0
C2204 C 0.52361 0.12036 0.6218 0.0
C2205 C 0.48837 0.14531 0.62591 0.0
C2206 C 0.51323 0.10999 0.60183 0.0
C2207 C 0.48992 0.11659 0.59443 0.0
H2208 H 0.62587 0.76684 0.39367 0.0
H2209 H 0.63724 0.78828 0.32183 0.0
H2210 H 0.62889 0.74873 0.3084 0.0
H2211 H 0.61669 0.70814 0.31645 0.0
H2212 H 0.60518 0.68597 0.38767 0.0
H2213 H 0.61511 0.72546 0.40187 0.0
C2214 C 0.62661 0.76287 0.37509 0.0
C2215 C 0.63198 0.78081 0.35888 0.0
C2216 C 0.62171 0.73985 0.36729 0.0
C2217 C 0.63297 0.7751 0.33484 0.0
C2218 C 0.62819 0.75238 0.32704 0.0
C2219 C 0.61667 0.71199 0.33509 0.0
C2220 C 0.61102 0.69415 0.35107 0.0
C2221 C 0.62229 0.73469 0.34303 0.0
C2222 C 0.61031 0.69934 0.37513 0.0
C2223 C 0.61578 0.72195 0.38321 0.0
H2224 H 0.04909 0.83117 0.14414 0.0
H2225 H 0.05267 0.86475 0.07658 0.0
H2226 H 0.01064 0.87804 0.08108 0.0
H2227 H 0.97399 0.88297 0.10631 0.0
H2228 H 0.97238 0.84975 0.17413 0.0
H2229 H 0.01237 0.83325 0.16739 0.0
C2230 C 0.04058 0.84111 0.13021 0.0
C2231 C 0.05396 0.84709 0.11015 0.0
C2232 C 0.01679 0.84891 0.13309 0.0
C2233 C 0.04265 0.8598 0.09216 0.0
C2234 C 0.0187 0.86756 0.09482 0.0
C2235 C 0.9825 0.87202 0.11943 0.0
C2236 C 0.97082 0.86816 0.14098 0.0
C2237 C 0.00577 0.8627 0.1155 0.0
C2238 C 0.98151 0.8535 0.15772 0.0
C2239 C 0.00426 0.84393 0.15383 0.0
H2240 H 0.64546 0.89917 0.69192 0.0
H2241 H 0.59756 0.84147 0.67487 0.0
H2242 H 0.58856 0.8358 0.71639 0.0
H2243 H 0.59057 0.85008 0.75689 0.0
H2244 H 0.63456 0.91038 0.77371 0.0
H2245 H 0.64958 0.91182 0.73318 0.0
C2246 C 0.63346 0.88505 0.69736 0.0
C2247 C 0.62211 0.87081 0.68033 0.0
C2248 C 0.6277 0.88241 0.72126 0.0
C2249 C 0.60637 0.85277 0.68762 0.0
C2250 C 0.60122 0.84951 0.71136 0.0
C2251 C 0.6037 0.86331 0.75168 0.0
C2252 C 0.61152 0.88011 0.76805 0.0
C2253 C 0.6112 0.86466 0.72822 0.0
C2254 C 0.62861 0.89713 0.76133 0.0
C2255 C 0.63694 0.89807 0.73815 0.0
H2256 H 0.88207 0.85538 0.52035 0.0
H2257 H 0.86522 0.92266 0.55046 0.0
H2258 H 0.85915 0.93891 0.51144 0.0
H2259 H 0.85764 0.93401 0.46851 0.0
H2260 H 0.87585 0.86744 0.43814 0.0
H2261 H 0.88224 0.85093 0.47727 0.0
C2262 C 0.87701 0.87357 0.51838 0.0
C2263 C 0.87393 0.88766 0.53842 0.0
C2264 C 0.8738 0.88298 0.49576 0.0
C2265 C 0.86772 0.91133 0.53543 0.0
C2266 C 0.86417 0.92068 0.51308 0.0
C2267 C 0.8632 0.91596 0.47058 0.0
C2268 C 0.8669 0.90209 0.4506 0.0
C2269 C 0.86703 0.90668 0.49312 0.0
C2270 C 0.87359 0.87859 0.45335 0.0
C2271 C 0.87706 0.86911 0.4757 0.0
H2272 H 0.88361 0.12849 0.17726 0.0
H2273 H 0.81139 0.1136 0.20205 0.0
H2274 H 0.82433 0.1212 0.24254 0.0
H2275 H 0.85777 0.1271 0.27123 0.0
H2276 H 0.93026 0.13995 0.24549 0.0
H2277 H 0.91561 0.13903 0.20526 0.0
C2278 C 0.87055 0.12781 0.19147 0.0
C2279 C 0.84648 0.12118 0.18672 0.0
C2280 C 0.87828 0.13165 0.21465 0.0
C2281 C 0.82993 0.11917 0.20535 0.0
C2282 C 0.83737 0.1234 0.22848 0.0
C2283 C 0.87018 0.13025 0.25681 0.0
C2284 C 0.89512 0.13337 0.26141 0.0
C2285 C 0.86172 0.12896 0.23345 0.0
C2286 C 0.91104 0.13726 0.24249 0.0
C2287 C 0.9027 0.13666 0.21941 0.0
H2288 H 0.62482 0.07782 0.95701 0.0
H2289 H 0.6227 0.14789 0.92953 0.0
H2290 H 0.61439 0.16338 0.96876 0.0
H2291 H 0.60987 0.15703 0.01125 0.0
H2292 H 0.61247 0.08657 0.03857 0.0
H2293 H 0.61819 0.07127 0.99916 0.0
C2294 C 0.62215 0.09642 0.95968 0.0
C2295 C 0.62356 0.11166 0.94047 0.0
C2296 C 0.61764 0.10516 0.98229 0.0
C2297 C 0.62082 0.1358 0.94405 0.0
C2298 C 0.61632 0.14465 0.96648 0.0
C2299 C 0.61159 0.13832 0.00863 0.0
C2300 C 0.611 0.12309 0.02805 0.0
C2301 C 0.61495 0.12951 0.98581 0.0
C2302 C 0.61304 0.09884 0.02411 0.0
C2303 C 0.61633 0.08999 1.00152 0.0
H2304 H 0.57621 0.11173 0.81589 0.0
H2305 H 0.65364 0.11479 0.80475 0.0
H2306 H 0.64711 0.11466 0.76218 0.0
H2307 H 0.61893 0.11125 0.72788 0.0
H2308 H 0.54192 0.105 0.7413 0.0
H2309 H 0.54889 0.10892 0.78291 0.0
C2310 C 0.59177 0.11269 0.80427 0.0
C2311 C 0.61538 0.11335 0.81365 0.0
C2312 C 0.58794 0.11186 0.77999 0.0
C2313 C 0.63521 0.1143 0.79809 0.0
C2314 C 0.63149 0.11414 0.77371 0.0
C2315 C 0.60374 0.11091 0.73994 0.0
C2316 C 0.57993 0.10783 0.73123 0.0
C2317 C 0.60788 0.11253 0.76439 0.0
C2318 C 0.56046 0.10727 0.74723 0.0
C2319 C 0.56437 0.10953 0.7712 0.0
H2320 H 0.62549 0.83233 0.48336 0.0
H2321 H 0.62638 0.90259 0.45574 0.0
H2322 H 0.62663 0.91856 0.49542 0.0
H2323 H 0.63062 0.91266 0.53798 0.0
H2324 H 0.63245 0.84267 0.56566 0.0
H2325 H 0.62698 0.82647 0.52622 0.0
C2326 C 0.62532 0.85112 0.48606 0.0
C2327 C 0.62608 0.86623 0.46661 0.0
C2328 C 0.62609 0.86024 0.50901 0.0
C2329 C 0.626 0.89056 0.4704 0.0
C2330 C 0.62619 0.89973 0.4931 0.0
C2331 C 0.62937 0.89389 0.5353 0.0
C2332 C 0.63109 0.87885 0.55463 0.0
C2333 C 0.62687 0.88476 0.51252 0.0
C2334 C 0.63024 0.85455 0.55104 0.0
C2335 C 0.62738 0.8453 0.52848 0.0
H2336 H 0.85925 0.89911 0.31291 0.0
H2337 H 0.9327 0.91556 0.33456 0.0
H2338 H 0.94607 0.91438 0.29407 0.0
H2339 H 0.93734 0.90936 0.25265 0.0
H2340 H 0.8648 0.89139 0.22988 0.0
H2341 H 0.85073 0.89261 0.27064 0.0
C2342 C 0.87819 0.90237 0.30879 0.0
C2343 C 0.89485 0.90749 0.32696 0.0
C2344 C 0.88597 0.90153 0.28524 0.0
C2345 C 0.91937 0.91153 0.32115 0.0
C2346 C 0.9271 0.91094 0.2979 0.0
C2347 C 0.91839 0.90577 0.25645 0.0
C2348 C 0.90214 0.90047 0.23809 0.0
C2349 C 0.91057 0.90611 0.27984 0.0
C2350 C 0.87773 0.89558 0.2436 0.0
C2351 C 0.86968 0.89627 0.26693 0.0
H2352 H 0.8608 0.11564 0.97468 0.0
H2353 H 0.88546 0.18684 0.98457 0.0
H2354 H 0.88148 0.18258 0.02694 0.0
H2355 H 0.86829 0.15961 0.06119 0.0
H2356 H 0.84404 0.08823 0.05143 0.0
H2357 H 0.85065 0.09163 0.00928 0.0
C2358 C 0.86566 0.13012 0.98611 0.0
C2359 C 0.87332 0.15157 0.97632 0.0
C2360 C 0.86315 0.12762 0.0106 0.0
C2361 C 0.8795 0.17012 0.9915 0.0
C2362 C 0.87712 0.16775 0.0158 0.0
C2363 C 0.86453 0.14474 0.04988 0.0
C2364 C 0.85542 0.12377 0.05961 0.0
C2365 C 0.86847 0.14675 0.02554 0.0
C2366 C 0.851 0.10463 0.04458 0.0
C2367 C 0.85474 0.10655 0.02038 0.0
H2368 H 0.78746 0.64947 0.87398 0.0
H2369 H 0.788 0.58773 0.91735 0.0
H2370 H 0.74567 0.59381 0.92785 0.0
H2371 H 0.70759 0.61408 0.92164 0.0
H2372 H 0.70547 0.67583 0.87843 0.0
H2373 H 0.74924 0.67249 0.87091 0.0
C2374 C 0.77822 0.63757 0.88586 0.0
C2375 C 0.79036 0.61773 0.89426 0.0
C2376 C 0.75364 0.64109 0.89171 0.0
C2377 C 0.77863 0.60269 0.91012 0.0
C2378 C 0.7545 0.60621 0.91623 0.0
C2379 C 0.71677 0.62701 0.91084 0.0
C2380 C 0.7034 0.64504 0.90045 0.0
C2381 C 0.74167 0.62491 0.90659 0.0
C2382 C 0.7155 0.66183 0.88668 0.0
C2383 C 0.74046 0.65984 0.88228 0.0
H2384 H 0.25323 0.91022 0.11721 0.0
H2385 H 0.28285 0.84892 0.14996 0.0
H2386 H 0.24335 0.82909 0.14716 0.0
H2387 H 0.20142 0.82816 0.13149 0.0
H2388 H 0.17041 0.89137 0.10399 0.0
H2389 H 0.20937 0.9117 0.10853 0.0
C2390 C 0.2507 0.89295 0.12471 0.0
C2391 C 0.27059 0.88135 0.13458 0.0
C2392 C 0.22778 0.88199 0.12372 0.0
C2393 C 0.26756 0.85835 0.14279 0.0
C2394 C 0.24503 0.84702 0.14116 0.0
C2395 C 0.20288 0.84671 0.12776 0.0
C2396 C 0.18302 0.85848 0.11802 0.0
C2397 C 0.22508 0.85855 0.13133 0.0
C2398 C 0.18538 0.88221 0.1121 0.0
C2399 C 0.2077 0.89375 0.11446 0.0
H2400 H 0.88759 0.5233 0.84729 0.0
H2401 H 0.84996 0.51709 0.91311 0.0
H2402 H 0.85689 0.47481 0.91342 0.0
H2403 H 0.86968 0.43904 0.89256 0.0
H2404 H 0.90912 0.4456 0.82758 0.0
H2405 H 0.90577 0.48813 0.82941 0.0
C2406 C 0.8817 0.51273 0.86204 0.0
C2407 C 0.86854 0.52317 0.88027 0.0
C2408 C 0.88574 0.48842 0.86205 0.0
C2409 C 0.86047 0.50936 0.89909 0.0
C2410 C 0.86421 0.48517 0.89914 0.0
C2411 C 0.87781 0.44983 0.879 0.0
C2412 C 0.88939 0.43914 0.85984 0.0
C2413 C 0.87616 0.4744 0.88034 0.0
C2414 C 0.90012 0.45337 0.84253 0.0
C2415 C 0.89814 0.47772 0.84351 0.0
H2416 H 0.22198 0.15366 0.63694 0.0
H2417 H 0.23356 0.08908 0.59973 0.0
H2418 H 0.27584 0.10005 0.59253 0.0
H2419 H 0.31028 0.12665 0.59918 0.0
H2420 H 0.29793 0.19401 0.63034 0.0
H2421 H 0.25577 0.1829 0.63914 0.0
C2422 C 0.23387 0.14208 0.62731 0.0
C2423 C 0.22524 0.12003 0.62 0.0
C2424 C 0.25824 0.1486 0.62313 0.0
C2425 C 0.24029 0.10562 0.60652 0.0
C2426 C 0.2644 0.11192 0.60231 0.0
C2427 C 0.29842 0.13865 0.60837 0.0
C2428 C 0.3076 0.16032 0.61598 0.0
C2429 C 0.27379 0.13295 0.61127 0.0
C2430 C 0.29175 0.17647 0.62624 0.0
C2431 C 0.26747 0.17036 0.63059 0.0
H2432 H 0.12183 0.98259 0.8749 0.0
H2433 H 0.19716 0.99962 0.8614 0.0
H2434 H 0.18783 0.04078 0.86047 0.0
H2435 H 0.1589 0.07211 0.86192 0.0
H2436 H 0.08274 0.05716 0.87189 0.0
H2437 H 0.09176 0.01525 0.87572 0.0
C2438 C 0.13614 0.99536 0.87188 0.0
C2439 C 0.16021 0.9878 0.86838 0.0
C2440 C 0.13056 0.01946 0.87065 0.0
C2441 C 0.17849 0.00466 0.86422 0.0
C2442 C 0.17322 0.02837 0.86366 0.0
C2443 C 0.14418 0.05982 0.86523 0.0
C2444 C 0.12021 0.06786 0.86687 0.0
C2445 C 0.14938 0.03594 0.8667 0.0
C2446 C 0.1014 0.05147 0.87064 0.0
C2447 C 0.10657 0.0275 0.8728 0.0
H2448 H 0.79599 0.34871 0.38686 0.0
H2449 H 0.81033 0.40786 0.43216 0.0
H2450 H 0.768 0.41937 0.42974 0.0
H2451 H 0.72749 0.41432 0.41292 0.0
H2452 H 0.71224 0.35601 0.36729 0.0
H2453 H 0.75423 0.34234 0.37171 0.0
C2454 C 0.78977 0.36398 0.39636 0.0
C2455 C 0.80639 0.37749 0.40952 0.0
C2456 C 0.76531 0.37078 0.39464 0.0
C2457 C 0.79803 0.39726 0.4217 0.0
C2458 C 0.77378 0.40385 0.42042 0.0
C2459 C 0.73348 0.39868 0.40389 0.0
C2460 C 0.71735 0.38661 0.38912 0.0
C2461 C 0.75743 0.39106 0.40656 0.0
C2462 C 0.72474 0.36581 0.37829 0.0
C2463 C 0.74866 0.35804 0.38084 0.0
H2464 H 0.88064 0.47828 0.62825 0.0
H2465 H 0.80727 0.50339 0.63535 0.0
H2466 H 0.82212 0.54341 0.6385 0.0
H2467 H 0.85585 0.57105 0.64311 0.0
H2468 H 0.92944 0.54686 0.63823 0.0
H2469 H 0.9148 0.50683 0.63061 0.0
C2470 C 0.86795 0.49257 0.63013 0.0
C2471 C 0.84289 0.48775 0.6317 0.0
C2472 C 0.87667 0.51573 0.6326 0.0
C2473 C 0.82667 0.50649 0.6343 0.0
C2474 C 0.83512 0.52945 0.63617 0.0
C2475 C 0.86861 0.55707 0.63975 0.0
C2476 C 0.89359 0.56184 0.64042 0.0
C2477 C 0.86005 0.53421 0.6359 0.0
C2478 C 0.91008 0.54351 0.63723 0.0
C2479 C 0.9017 0.52068 0.63295 0.0
H2480 H 0.61747 0.52839 0.13469 0.0
H2481 H 0.68961 0.49942 0.13196 0.0
H2482 H 0.67322 0.46022 0.13555 0.0
H2483 H 0.63929 0.4343 0.14364 0.0
H2484 H 0.567 0.46164 0.1493 0.0
H2485 H 0.58238 0.50131 0.14086 0.0
C2486 C 0.62945 0.51342 0.13451 0.0
C2487 C 0.65472 0.51688 0.13305 0.0
C2488 C 0.61992 0.49066 0.13749 0.0
C2489 C 0.67012 0.49735 0.13306 0.0
C2490 C 0.6608 0.47485 0.13527 0.0
C2491 C 0.62687 0.4489 0.14242 0.0
C2492 C 0.6021 0.44522 0.14627 0.0
C2493 C 0.63588 0.47137 0.13808 0.0
C2494 C 0.58616 0.46425 0.14584 0.0
C2495 C 0.59496 0.48683 0.14107 0.0
H2496 H 0.64282 0.7465 0.90597 0.0
H2497 H 0.6086 0.71239 0.84684 0.0
H2498 H 0.60117 0.75014 0.82863 0.0
H2499 H 0.60169 0.79287 0.83058 0.0
H2500 H 0.63712 0.82774 0.88843 0.0
H2501 H 0.64715 0.7898 0.90583 0.0
C2502 C 0.63391 0.74739 0.88904 0.0
C2503 C 0.62607 0.72666 0.87792 0.0
C2504 C 0.62993 0.7693 0.87839 0.0
C2505 C 0.61481 0.72805 0.85583 0.0
C2506 C 0.61048 0.74966 0.84537 0.0
C2507 C 0.61191 0.79216 0.84684 0.0
C2508 C 0.6185 0.81302 0.8583 0.0
C2509 C 0.61761 0.77038 0.85664 0.0
C2510 C 0.63193 0.81188 0.87923 0.0
C2511 C 0.63749 0.79019 0.88927 0.0
H2512 H 0.52742 0.37333 0.09458 0.0
H2513 H 0.51397 0.37302 0.16923 0.0
H2514 H 0.47104 0.36458 0.16203 0.0
H2515 H 0.43724 0.3577 0.13439 0.0
H2516 H 0.45116 0.35743 0.06011 0.0
H2517 H 0.49428 0.36553 0.0673 0.0
C2518 C 0.51519 0.37144 0.10937 0.0
C2519 C 0.52398 0.37386 0.13243 0.0
C2520 C 0.49066 0.36652 0.10514 0.0
C2521 C 0.50776 0.37122 0.15129 0.0
C2522 C 0.48321 0.36635 0.1472 0.0
C2523 C 0.4498 0.35971 0.11987 0.0
C2524 C 0.44124 0.35796 0.09677 0.0
C2525 C 0.47447 0.36411 0.1242 0.0
C2526 C 0.45753 0.3594 0.07799 0.0
C2527 C 0.48207 0.36396 0.08211 0.0
H2528 H 0.90056 0.21811 0.32752 0.0
H2529 H 0.85638 0.18224 0.3787 0.0
H2530 H 0.84393 0.21967 0.39534 0.0
H2531 H 0.8486 0.26261 0.39763 0.0
H2532 H 0.89104 0.29851 0.34506 0.0
H2533 H 0.90079 0.26127 0.32655 0.0
C2534 C 0.88797 0.21853 0.34211 0.0
C2535 C 0.87963 0.19743 0.35201 0.0
C2536 C 0.88059 0.24018 0.35142 0.0
C2537 C 0.86308 0.19824 0.37075 0.0
C2538 C 0.85602 0.21965 0.38036 0.0
C2539 C 0.85962 0.26229 0.38188 0.0
C2540 C 0.86923 0.28332 0.3729 0.0
C2541 C 0.86507 0.24074 0.37117 0.0
C2542 C 0.88335 0.28262 0.35237 0.0
C2543 C 0.8891 0.26128 0.34183 0.0
H2544 H 0.9864 0.63409 0.65102 0.0
H2545 H 0.95857 0.63292 0.58009 0.0
H2546 H 0.99865 0.64166 0.56492 0.0
H2547 H 0.04158 0.651 0.57127 0.0
H2548 H 0.07041 0.65235 0.64139 0.0
H2549 H 0.03025 0.64232 0.6573 0.0
C2550 C 0.98909 0.63573 0.63227 0.0
C2551 C 0.9692 0.633 0.61689 0.0
C2552 C 0.01248 0.64081 0.6234 0.0
C2553 C 0.97328 0.63504 0.59255 0.0
C2554 C 0.9963 0.64006 0.58372 0.0
C2555 C 0.03902 0.64882 0.59001 0.0
C2556 C 0.05889 0.65163 0.60512 0.0
C2557 C 0.01597 0.64316 0.59893 0.0
C2558 C 0.0554 0.64946 0.62941 0.0
C2559 C 0.03243 0.64394 0.6385 0.0
H2560 H 0.65106 0.25079 0.64499 0.0
H2561 H 0.59638 0.25911 0.59149 0.0
H2562 H 0.58391 0.21822 0.59636 0.0
H2563 H 0.58604 0.18131 0.61851 0.0
H2564 H 0.64217 0.17189 0.67019 0.0
H2565 H 0.65679 0.21208 0.6634 0.0
C2566 C 0.63669 0.24352 0.63414 0.0
C2567 C 0.6245 0.25799 0.61803 0.0
C2568 C 0.62978 0.21995 0.6369 0.0
C2569 C 0.60608 0.24831 0.60392 0.0
C2570 C 0.59883 0.22499 0.60683 0.0
C2571 C 0.60168 0.18805 0.62802 0.0
C2572 C 0.61296 0.17398 0.64497 0.0
C2573 C 0.61015 0.21086 0.62367 0.0
C2574 C 0.63332 0.18255 0.65708 0.0
C2575 C 0.64156 0.20549 0.65324 0.0
H2576 H 0.06768 0.37342 0.84483 0.0
H2577 H 0.05506 0.3531 0.91678 0.0
H2578 H 0.01145 0.35762 0.91113 0.0
H2579 H 0.9768 0.36476 0.88514 0.0
H2580 H 0.98936 0.38418 0.81301 0.0
H2581 H 0.03319 0.38264 0.81947 0.0
C2582 C 0.05548 0.37013 0.85938 0.0
C2583 C 0.06475 0.3627 0.88115 0.0
C2584 C 0.03038 0.37247 0.85596 0.0
C2585 C 0.04853 0.35871 0.89979 0.0
C2586 C 0.02354 0.36124 0.89658 0.0
C2587 C 0.98912 0.36883 0.87085 0.0
C2588 C 0.97983 0.37441 0.84857 0.0
C2589 C 0.01426 0.36769 0.87463 0.0
C2590 C 0.99603 0.37974 0.8303 0.0
C2591 C 0.02109 0.37884 0.83397 0.0
H2592 H 0.87536 0.73517 0.16863 0.0
H2593 H 0.88019 0.74451 0.09359 0.0
H2594 H 0.88053 0.78705 0.09899 0.0
H2595 H 0.8825 0.82141 0.12542 0.0
H2596 H 0.88107 0.81104 0.20019 0.0
H2597 H 0.87557 0.76885 0.19452 0.0
C2598 C 0.8764 0.74637 0.15332 0.0
C2599 C 0.87797 0.73654 0.1307 0.0
C2600 C 0.87681 0.77062 0.15656 0.0
C2601 C 0.8792 0.75154 0.11121 0.0
C2602 C 0.87928 0.77586 0.11428 0.0
C2603 C 0.8802 0.80986 0.14036 0.0
C2604 C 0.88154 0.81907 0.16318 0.0
C2605 C 0.87836 0.78557 0.13691 0.0
C2606 C 0.87953 0.80416 0.18254 0.0
C2607 C 0.87669 0.78011 0.17927 0.0
H2608 H 0.42977 0.63939 0.34332 0.0
H2609 H 0.44506 0.66324 0.41376 0.0
H2610 H 0.4881 0.65529 0.40803 0.0
H2611 H 0.52172 0.64388 0.38234 0.0
H2612 H 0.50666 0.62083 0.31168 0.0
H2613 H 0.46317 0.626 0.31832 0.0
C2614 C 0.44244 0.64278 0.35751 0.0
C2615 C 0.43404 0.65214 0.3789 0.0
C2616 C 0.46725 0.63834 0.35406 0.0
C2617 C 0.45087 0.65616 0.39708 0.0
C2618 C 0.47555 0.65164 0.39382 0.0
C2619 C 0.50893 0.63974 0.36844 0.0
C2620 C 0.51749 0.63206 0.34649 0.0
C2621 C 0.48399 0.64306 0.37228 0.0
C2622 C 0.50061 0.62679 0.32872 0.0
C2623 C 0.47573 0.62982 0.33249 0.0
H2624 H 0.83208 0.60418 0.79511 0.0
H2625 H 0.90199 0.61194 0.8284 0.0
H2626 H 0.9203 0.62218 0.79047 0.0
H2627 H 0.91656 0.62628 0.7469 0.0
H2628 H 0.84544 0.61935 0.71548 0.0
H2629 H 0.82761 0.61184 0.75357 0.0
C2630 C 0.8513 0.60829 0.79423 0.0
C2631 C 0.86563 0.60705 0.8146 0.0
C2632 C 0.86156 0.61434 0.77255 0.0
C2633 C 0.89049 0.61272 0.81301 0.0
C2634 C 0.90099 0.61852 0.79128 0.0
C2635 C 0.89714 0.6235 0.74851 0.0
C2636 C 0.88248 0.62313 0.72819 0.0
C2637 C 0.88674 0.61906 0.77079 0.0
C2638 C 0.8573 0.6195 0.73065 0.0
C2639 C 0.84699 0.61515 0.75249 0.0
H2640 H 0.63639 0.63306 0.05994 0.0
H2641 H 0.65014 0.56007 0.04695 0.0
H2642 H 0.6425 0.56563 0.00513 0.0
H2643 H 0.63573 0.59165 0.97206 0.0
H2644 H 0.62514 0.66553 0.98382 0.0
H2645 H 0.62777 0.65928 0.02622 0.0
C2646 C 0.63707 0.61835 0.04794 0.0
C2647 C 0.64345 0.59611 0.05643 0.0
C2648 C 0.63369 0.62193 0.02368 0.0
C2649 C 0.64501 0.57726 0.04074 0.0
C2650 C 0.64081 0.58048 0.01684 0.0
C2651 C 0.63378 0.60647 0.9838 0.0
C2652 C 0.63039 0.62909 0.97459 0.0
C2653 C 0.63577 0.60283 0.00805 0.0
C2654 C 0.62793 0.64794 0.99029 0.0
C2655 C 0.6294 0.64437 0.01458 0.0
H2656 H 0.59043 0.37885 0.25079 0.0
H2657 H 0.65881 0.39144 0.21583 0.0
H2658 H 0.67784 0.40136 0.25303 0.0
H2659 H 0.67468 0.40923 0.29479 0.0
H2660 H 0.6072 0.39597 0.33096 0.0
H2661 H 0.58823 0.38369 0.29401 0.0
C2662 C 0.60958 0.38337 0.25141 0.0
C2663 C 0.62309 0.38455 0.23049 0.0
C2664 C 0.62052 0.38929 0.27301 0.0
C2665 C 0.6479 0.39051 0.2316 0.0
C2666 C 0.65883 0.39629 0.25288 0.0
C2667 C 0.65584 0.40357 0.29472 0.0
C2668 C 0.64235 0.40376 0.31563 0.0
C2669 C 0.64521 0.39626 0.27358 0.0
C2670 C 0.61801 0.39609 0.31511 0.0
C2671 C 0.60715 0.38906 0.29398 0.0
H2672 H 0.83486 0.37269 0.55774 0.0
H2673 H 0.89734 0.41759 0.56687 0.0
H2674 H 0.91221 0.40652 0.52782 0.0
H2675 H 0.90478 0.38723 0.48969 0.0
H2676 H 0.84314 0.34088 0.48154 0.0
H2677 H 0.83087 0.34872 0.52198 0.0
C2678 C 0.85187 0.3798 0.55119 0.0
C2679 C 0.86486 0.39621 0.56474 0.0
C2680 C 0.86044 0.37297 0.52908 0.0
C2681 C 0.88707 0.40505 0.55652 0.0
C2682 C 0.8955 0.39873 0.53426 0.0
C2683 C 0.889 0.37841 0.49699 0.0
C2684 C 0.87475 0.36364 0.48263 0.0
C2685 C 0.88201 0.38312 0.52019 0.0
C2686 C 0.85447 0.35217 0.49229 0.0
C2687 C 0.84729 0.35689 0.51531 0.0
H2688 H 0.89076 0.38068 0.765 0.0
H2689 H 0.81982 0.3876 0.79648 0.0
H2690 H 0.80304 0.39966 0.75896 0.0
H2691 H 0.80837 0.40903 0.71755 0.0
H2692 H 0.87879 0.40147 0.68534 0.0
H2693 H 0.89582 0.38897 0.72289 0.0
C2694 C 0.8716 0.38471 0.76368 0.0
C2695 C 0.85667 0.38329 0.78372 0.0
C2696 C 0.86194 0.39168 0.74194 0.0
C2697 C 0.83185 0.38855 0.7815 0.0
C2698 C 0.82218 0.39552 0.76001 0.0
C2699 C 0.82748 0.40474 0.71866 0.0
C2700 C 0.84228 0.40636 0.6986 0.0
C2701 C 0.83708 0.39733 0.74019 0.0
C2702 C 0.86695 0.40043 0.70046 0.0
C2703 C 0.87671 0.39327 0.72194 0.0
H2704 H 0.85874 0.58719 0.96993 0.0
H2705 H 0.90309 0.64055 0.93753 0.0
H2706 H 0.91058 0.65854 0.9759 0.0
H2707 H 0.90139 0.66098 0.01845 0.0
H2708 H 0.85808 0.60639 0.05035 0.0
H2709 H 0.85339 0.5871 0.01254 0.0
C2710 C 0.87038 0.60254 0.9713 0.0
C2711 C 0.88021 0.61259 0.95089 0.0
C2712 C 0.87457 0.61277 0.99337 0.0
C2713 C 0.89538 0.63239 0.95298 0.0
C2714 C 0.8995 0.64281 0.97492 0.0
C2715 C 0.89113 0.64476 0.01712 0.0
C2716 C 0.87991 0.63531 0.03721 0.0
C2717 C 0.88869 0.63348 0.9952 0.0
C2718 C 0.86689 0.61412 0.03522 0.0
C2719 C 0.86413 0.60305 0.01356 0.0
H2720 H 0.6082 0.62908 0.25882 0.0
H2721 H 0.67628 0.61458 0.2935 0.0
H2722 H 0.69428 0.60356 0.25636 0.0
H2723 H 0.69092 0.59685 0.21441 0.0
H2724 H 0.62392 0.61184 0.17837 0.0
H2725 H 0.60548 0.62396 0.21555 0.0
C2726 C 0.62698 0.62356 0.25825 0.0
C2727 C 0.6407 0.62261 0.27917 0.0
C2728 C 0.63751 0.6173 0.23655 0.0
C2729 C 0.66512 0.61555 0.27789 0.0
C2730 C 0.67552 0.60917 0.25658 0.0
C2731 C 0.67227 0.6028 0.21455 0.0
C2732 C 0.65882 0.60323 0.19354 0.0
C2733 C 0.66188 0.60981 0.23587 0.0
C2734 C 0.63476 0.61131 0.19421 0.0
C2735 C 0.62417 0.61817 0.21552 0.0
H2736 H 0.60526 0.34358 0.5146 0.0
H2737 H 0.65197 0.39334 0.54995 0.0
H2738 H 0.65721 0.41519 0.51365 0.0
H2739 H 0.65142 0.41841 0.47115 0.0
H2740 H 0.60364 0.36987 0.43559 0.0
H2741 H 0.59557 0.34966 0.47261 0.0
C2742 C 0.61638 0.35933 0.51435 0.0
C2743 C 0.62841 0.36664 0.5349 0.0
C2744 C 0.61913 0.37208 0.49336 0.0
C2745 C 0.64253 0.38726 0.5344 0.0
C2746 C 0.6456 0.39978 0.51361 0.0
C2747 C 0.63891 0.40365 0.47158 0.0
C2748 C 0.62831 0.39555 0.45064 0.0
C2749 C 0.63438 0.39212 0.49289 0.0
C2750 C 0.61199 0.37652 0.45149 0.0
C2751 C 0.60752 0.36482 0.47263 0.0
H2752 H 0.73345 0.90899 0.63383 0.0
H2753 H 0.71168 0.84094 0.60808 0.0
H2754 H 0.75403 0.82929 0.6053 0.0
H2755 H 0.79742 0.83925 0.60757 0.0
H2756 H 0.81916 0.90735 0.6335 0.0
H2757 H 0.77687 0.9179 0.63892 0.0
C2758 C 0.73797 0.89154 0.62785 0.0
C2759 C 0.7194 0.87598 0.62101 0.0
C2760 C 0.76245 0.88492 0.62616 0.0
C2761 C 0.72559 0.85336 0.61338 0.0
C2762 C 0.74985 0.84666 0.61172 0.0
C2763 C 0.79296 0.85633 0.6146 0.0
C2764 C 0.8116 0.87249 0.61981 0.0
C2765 C 0.76847 0.86243 0.61766 0.0
C2766 C 0.80532 0.8945 0.6291 0.0
C2767 C 0.78106 0.90064 0.63222 0.0
H2768 H 0.21729 0.64928 0.37966 0.0
H2769 H 0.24489 0.57923 0.37197 0.0
H2770 H 0.28629 0.59375 0.37735 0.0
H2771 H 0.31444 0.62594 0.38702 0.0
H2772 H 0.28761 0.69625 0.39278 0.0
H2773 H 0.24606 0.68213 0.38563 0.0
C2774 C 0.23242 0.63728 0.37876 0.0
C2775 C 0.22799 0.6132 0.37553 0.0
C2776 C 0.25627 0.64579 0.38167 0.0
C2777 C 0.24777 0.59786 0.37435 0.0
C2778 C 0.27146 0.60611 0.37761 0.0
C2779 C 0.29955 0.6382 0.38599 0.0
C2780 C 0.30403 0.66215 0.38958 0.0
C2781 C 0.27589 0.62997 0.38161 0.0
C2782 C 0.28452 0.67778 0.38953 0.0
C2783 C 0.26083 0.66971 0.38546 0.0
H2784 H 0.55584 0.01974 0.65322 0.0
H2785 H 0.62588 0.05211 0.64175 0.0
H2786 H 0.64253 0.01418 0.63011 0.0
H2787 H 0.63691 0.97152 0.62296 0.0
H2788 H 0.56576 0.94076 0.63338 0.0
H2789 H 0.55002 0.97835 0.64544 0.0
C2790 C 0.5748 0.01863 0.64827 0.0
C2791 C 0.58955 0.03887 0.6485 0.0
C2792 C 0.58411 0.99695 0.64124 0.0
C2793 C 0.61404 0.03689 0.64179 0.0
C2794 C 0.62358 0.01517 0.6351 0.0
C2795 C 0.61797 0.97305 0.62784 0.0
C2796 C 0.60266 0.95312 0.6272 0.0
C2797 C 0.60875 0.99503 0.63469 0.0
C2798 C 0.5781 0.95561 0.63354 0.0
C2799 C 0.56899 0.97718 0.64055 0.0
H2800 H 0.18763 0.39052 0.8878 0.0
H2801 H 0.20876 0.31816 0.88989 0.0
H2802 H 0.25064 0.32917 0.88026 0.0
H2803 H 0.28139 0.35954 0.87361 0.0
H2804 H 0.2605 0.43211 0.87129 0.0
H2805 H 0.21807 0.42087 0.87782 0.0
C2806 C 0.20137 0.37722 0.88553 0.0
C2807 C 0.19523 0.35356 0.88875 0.0
C2808 C 0.22529 0.38372 0.87997 0.0
C2809 C 0.2132 0.33643 0.88697 0.0
C2810 C 0.23704 0.34272 0.88147 0.0
C2811 C 0.2675 0.37288 0.87416 0.0
C2812 C 0.27405 0.39661 0.87218 0.0
C2813 C 0.24331 0.36632 0.87817 0.0
C2814 C 0.25588 0.41371 0.87274 0.0
C2815 C 0.23167 0.40731 0.87671 0.0
H2816 H 0.43843 0.47379 0.64585 0.0
H2817 H 0.37016 0.43618 0.64419 0.0
H2818 H 0.34948 0.4715 0.63103 0.0
H2819 H 0.35043 0.51381 0.62241 0.0
H2820 H 0.41897 0.55095 0.62413 0.0
H2821 H 0.43989 0.51496 0.63436 0.0
C2822 C 0.41903 0.47325 0.64258 0.0
C2823 C 0.40586 0.45238 0.64628 0.0
C2824 C 0.40729 0.49354 0.63485 0.0
C2825 C 0.38077 0.452 0.6416 0.0
C2826 C 0.36891 0.47221 0.63405 0.0
C2827 C 0.36999 0.51392 0.62458 0.0
C2828 C 0.38308 0.53507 0.62262 0.0
C2829 C 0.38194 0.49316 0.63087 0.0
C2830 C 0.40842 0.53493 0.62561 0.0
C2831 C 0.42042 0.51438 0.63159 0.0
H2832 H 0.76477 0.16077 0.11393 0.0
H2833 H 0.76064 0.08562 0.12136 0.0
H2834 H 0.71666 0.08685 0.11646 0.0
H2835 H 0.67929 0.10917 0.10983 0.0
H2836 H 0.68374 0.18421 0.10156 0.0
H2837 H 0.7276 0.18299 0.10711 0.0
C2838 C 0.75432 0.14461 0.11447 0.0
C2839 C 0.76616 0.12313 0.118 0.0
C2840 C 0.729 0.14539 0.11154 0.0
C2841 C 0.75215 0.10243 0.1186 0.0
C2842 C 0.72694 0.1031 0.11585 0.0
C2843 C 0.68981 0.12529 0.10935 0.0
C2844 C 0.67812 0.14674 0.10528 0.0
C2845 C 0.71516 0.12448 0.1123 0.0
C2846 C 0.69217 0.16741 0.10456 0.0
C2847 C 0.7173 0.16676 0.10775 0.0
H2848 H 0.63716 0.01737 0.87819 0.0
H2849 H 0.56717 0.04459 0.85798 0.0
H2850 H 0.5541 0.0061 0.8454 0.0
H2851 H 0.562 0.96497 0.83936 0.0
H2852 H 0.63055 0.93566 0.86044 0.0
H2853 H 0.64454 0.97449 0.87341 0.0
C2854 C 0.61907 0.01482 0.87108 0.0
C2855 C 0.60326 0.03406 0.86916 0.0
C2856 C 0.61131 0.99222 0.86395 0.0
C2857 C 0.57979 0.03028 0.85995 0.0
C2858 C 0.57222 0.00819 0.8526 0.0
C2859 C 0.58004 0.96694 0.84679 0.0
C2860 C 0.59521 0.94736 0.84875 0.0
C2861 C 0.58778 0.98909 0.85444 0.0
C2862 C 0.61843 0.95039 0.85871 0.0
C2863 C 0.62647 0.97263 0.86608 0.0
H2864 H 0.90578 0.0674 0.37792 0.0
H2865 H 0.87708 0.05335 0.30905 0.0
H2866 H 0.86414 0.01411 0.32158 0.0
H2867 H 0.86466 0.98254 0.35111 0.0
H2868 H 0.89866 0.99502 0.41808 0.0
H2869 H 0.90582 0.03605 0.40759 0.0
C2870 C 0.89618 0.05585 0.3659 0.0
C2871 C 0.8919 0.06324 0.34278 0.0
C2872 C 0.89003 0.03296 0.3729 0.0
C2873 C 0.8802 0.04802 0.32702 0.0
C2874 C 0.87296 0.02559 0.33416 0.0
C2875 C 0.87318 0.99443 0.36353 0.0
C2876 C 0.88086 0.98594 0.38544 0.0
C2877 C 0.87825 0.01769 0.35691 0.0
C2878 C 0.89249 1.00125 0.40119 0.0
C2879 C 0.89662 0.02467 0.39516 0.0
H2880 H 0.35444 0.26372 0.07911 0.0
H2881 H 0.37766 0.28643 0.1478 0.0
H2882 H 0.38062 0.24588 0.16061 0.0
H2883 H 0.3799 0.20387 0.15144 0.0
H2884 H 0.35712 0.18116 0.08251 0.0
H2885 H 0.35065 0.22157 0.0709 0.0
C2886 C 0.35978 0.25979 0.09698 0.0
C2887 C 0.36596 0.27812 0.11238 0.0
C2888 C 0.3618 0.23633 0.10421 0.0
C2889 C 0.3729 0.27269 0.13549 0.0
C2890 C 0.37468 0.24946 0.14286 0.0
C2891 C 0.3733 0.20769 0.13395 0.0
C2892 C 0.36934 0.18934 0.11787 0.0
C2893 C 0.36971 0.23111 0.12721 0.0
C2894 C 0.36062 0.1948 0.09529 0.0
C2895 C 0.35687 0.21799 0.08856 0.0
H2896 H 0.55499 0.62008 0.91467 0.0
H2897 H 0.5872 0.64745 0.85158 0.0
H2898 H 0.54796 0.64498 0.83156 0.0
H2899 H 0.50345 0.63913 0.83377 0.0
H2900 H 0.47252 0.60622 0.89478 0.0
H2901 H 0.5123 0.60637 0.91393 0.0
C2902 C 0.55369 0.62419 0.89616 0.0
C2903 C 0.57401 0.63339 0.88442 0.0
C2904 C 0.53125 0.62192 0.88451 0.0
C2905 C 0.57189 0.63971 0.86073 0.0
C2906 C 0.5494 0.63857 0.84938 0.0
C2907 C 0.50568 0.63092 0.85073 0.0
C2908 C 0.48526 0.62192 0.86249 0.0
C2909 C 0.52881 0.63021 0.86127 0.0
C2910 C 0.48811 0.61283 0.88521 0.0
C2911 C 0.51083 0.6129 0.89616 0.0
H2912 H 0.11809 0.73621 0.63894 0.0
H2913 H 0.13978 0.75077 0.56769 0.0
H2914 H 0.13956 0.79265 0.57584 0.0
H2915 H 0.12982 0.82513 0.60204 0.0
H2916 H 0.10721 0.81082 0.67314 0.0
H2917 H 0.11157 0.76894 0.66624 0.0
C2918 C 0.12304 0.74854 0.62528 0.0
C2919 C 0.12869 0.74036 0.60268 0.0
C2920 C 0.12263 0.77269 0.63 0.0
C2921 C 0.13518 0.75657 0.5852 0.0
C2922 C 0.13504 0.78056 0.58983 0.0
C2923 C 0.1261 0.81293 0.61617 0.0
C2924 C 0.11789 0.82124 0.63799 0.0
C2925 C 0.12827 0.78882 0.61201 0.0
C2926 C 0.1134 0.80504 0.65609 0.0
C2927 C 0.11581 0.78102 0.65215 0.0
H2928 H 0.00354 0.40084 0.35617 0.0
H2929 H 0.03611 0.33627 0.37754 0.0
H2930 H 0.99874 0.32534 0.39805 0.0
H2931 H 0.95619 0.33424 0.40897 0.0
H2932 H 0.91998 0.38837 0.37082 0.0
H2933 H 0.95866 0.40401 0.35748 0.0
C2934 C 0.00202 0.38351 0.36309 0.0
C2935 C 0.02224 0.36886 0.36361 0.0
C2936 C 0.97981 0.37616 0.3727 0.0
C2937 C 0.02057 0.34771 0.37622 0.0
C2938 C 0.99923 0.34141 0.38799 0.0
C2939 C 0.95682 0.34944 0.39762 0.0
C2940 C 0.93561 0.36248 0.39357 0.0
C2941 C 0.97863 0.35553 0.38625 0.0
C2942 C 0.93646 0.38054 0.37709 0.0
C2943 C 0.95854 0.38862 0.36837 0.0
H2944 H 0.39883 0.80996 0.32571 0.0
H2945 H 0.39095 0.83268 0.39728 0.0
H2946 H 0.38037 0.79272 0.40928 0.0
H2947 H 0.37365 0.75128 0.39934 0.0
H2948 H 0.38059 0.7288 0.32734 0.0
H2949 H 0.39081 0.76866 0.31556 0.0
C2950 C 0.39462 0.80607 0.34388 0.0
C2951 C 0.39496 0.82417 0.36052 0.0
C2952 C 0.38834 0.78313 0.35055 0.0
C2953 C 0.39006 0.81902 0.38411 0.0
C2954 C 0.38418 0.79619 0.39097 0.0
C2955 C 0.37739 0.75505 0.38106 0.0
C2956 C 0.37649 0.73689 0.36433 0.0
C2957 C 0.3832 0.77809 0.37432 0.0
C2958 C 0.38116 0.7423 0.34067 0.0
C2959 C 0.3871 0.76513 0.33388 0.0
H2960 H 0.0269 0.65371 0.16308 0.0
H2961 H 0.03409 0.60636 0.10486 0.0
H2962 H 0.99232 0.61503 0.09231 0.0
H2963 H 0.95267 0.63417 0.10015 0.0
H2964 H 0.94667 0.68077 0.15944 0.0
H2965 H 0.98915 0.67466 0.16917 0.0
C2966 C 0.01922 0.64529 0.14766 0.0
C2967 C 0.03288 0.62883 0.13534 0.0
C2968 C 0.99551 0.65038 0.14072 0.0
C2969 C 0.02342 0.61868 0.11486 0.0
C2970 C 0.99965 0.62367 0.10772 0.0
C2971 C 0.96085 0.64317 0.11496 0.0
C2972 C 0.94657 0.65772 0.12919 0.0
C2973 C 0.98532 0.63918 0.12082 0.0
C2974 C 0.95727 0.66927 0.1484 0.0
C2975 C 0.98155 0.66586 0.15396 0.0
H2976 H 0.12258 0.26664 0.89982 0.0
H2977 H 0.12573 0.2884 0.82733 0.0
H2978 H 0.11743 0.24843 0.81467 0.0
H2979 H 0.10819 0.2073 0.82402 0.0
H2980 H 0.10526 0.18534 0.89614 0.0
H2981 H 0.11429 0.22537 0.90914 0.0
C2982 C 0.12148 0.26269 0.88125 0.0
C2983 C 0.12462 0.28067 0.86462 0.0
C2984 C 0.11667 0.23961 0.874 0.0
C2985 C 0.12329 0.27505 0.8406 0.0
C2986 C 0.1185 0.25216 0.83329 0.0
C2987 C 0.10976 0.21138 0.84255 0.0
C2988 C 0.10691 0.1935 0.85914 0.0
C2989 C 0.11499 0.23435 0.84981 0.0
C2990 C 0.10824 0.19885 0.88312 0.0
C2991 C 0.11321 0.22171 0.89052 0.0
H2992 H 0.55576 0.35963 0.59381 0.0
H2993 H 0.56081 0.31849 0.65714 0.0
H2994 H 0.51901 0.32759 0.66679 0.0
H2995 H 0.48243 0.34981 0.6594 0.0
H2996 H 0.47604 0.39175 0.59711 0.0
H2997 H 0.51691 0.37965 0.58465 0.0
C2998 C 0.54755 0.35241 0.60952 0.0
C2999 C 0.56149 0.33859 0.62485 0.0
C3000 C 0.52342 0.35802 0.61524 0.0
C3001 C 0.55063 0.32939 0.64518 0.0
C3002 C 0.52668 0.33451 0.65071 0.0
C3003 C 0.49 0.35621 0.64303 0.0
C3004 C 0.47687 0.37214 0.62948 0.0
C3005 C 0.5132 0.34927 0.63623 0.0
C3006 C 0.48625 0.37978 0.60795 0.0
C3007 C 0.50953 0.37287 0.60091 0.0
H3008 H 0.07557 0.35021 0.24893 0.0
H3009 H 0.13928 0.38347 0.27798 0.0
H3010 H 0.15667 0.38733 0.23852 0.0
H3011 H 0.15038 0.38682 0.19539 0.0
H3012 H 0.08559 0.35394 0.16739 0.0
H3013 H 0.07215 0.34427 0.20674 0.0
C3014 C 0.09357 0.35771 0.24666 0.0
C3015 C 0.10608 0.36667 0.26621 0.0
C3016 C 0.10306 0.36036 0.22403 0.0
C3017 C 0.12941 0.37627 0.26315 0.0
C3018 C 0.13919 0.37875 0.24057 0.0
C3019 C 0.13356 0.37715 0.19787 0.0
C3020 C 0.11878 0.37166 0.17836 0.0
C3021 C 0.12568 0.37174 0.22077 0.0
C3022 C 0.09714 0.35889 0.18199 0.0
C3023 C 0.0894 0.35327 0.20454 0.0
H3024 H 0.35849 0.43251 0.95743 0.0
H3025 H 0.35775 0.36183 0.93134 0.0
H3026 H 0.36344 0.34678 0.97122 0.0
H3027 H 0.36841 0.35397 0.01376 0.0
H3028 H 0.36859 0.42523 0.03924 0.0
H3029 H 0.36342 0.43968 0.99956 0.0
C3030 C 0.35983 0.41384 0.96056 0.0
C3031 C 0.35866 0.3983 0.94156 0.0
C3032 C 0.36286 0.40539 0.98348 0.0
C3033 C 0.35959 0.37411 0.94573 0.0
C3034 C 0.36258 0.36552 0.96852 0.0
C3035 C 0.36717 0.37264 0.01067 0.0
C3036 C 0.3688 0.38838 0.02966 0.0
C3037 C 0.36425 0.38102 0.98759 0.0
C3038 C 0.36738 0.41258 0.02513 0.0
C3039 C 0.36442 0.42096 1.00237 0.0
H3040 H 0.33765 0.61486 0.7051 0.0
H3041 H 0.40348 0.62292 0.66509 0.0
H3042 H 0.42677 0.62904 0.70109 0.0
H3043 H 0.429 0.6278 0.74401 0.0
H3044 H 0.36326 0.62123 0.78451 0.0
H3045 H 0.33924 0.61912 0.74836 0.0
C3046 C 0.357 0.61847 0.70438 0.0
C3047 C 0.36886 0.61882 0.6826 0.0
C3048 C 0.37028 0.62197 0.72521 0.0
C3049 C 0.39397 0.62311 0.68171 0.0
C3050 C 0.4073 0.62639 0.70227 0.0
C3051 C 0.40939 0.6262 0.74491 0.0
C3052 C 0.39793 0.62431 0.76683 0.0
C3053 C 0.39575 0.62523 0.72413 0.0
C3054 C 0.37248 0.62264 0.7678 0.0
C3055 C 0.35877 0.62132 0.74715 0.0
H3056 H 0.13225 0.59412 0.53092 0.0
H3057 H 0.12119 0.66646 0.51195 0.0
H3058 H 0.12937 0.65724 0.47106 0.0
H3059 H 0.14044 0.62891 0.44055 0.0
H3060 H 0.15223 0.55689 0.45903 0.0
H3061 H 0.14323 0.56569 0.50025 0.0
C3062 C 0.13149 0.60787 0.51786 0.0
C3063 C 0.12616 0.63099 0.52468 0.0
C3064 C 0.13642 0.60251 0.49426 0.0
C3065 C 0.12535 0.64853 0.50738 0.0
C3066 C 0.13009 0.64331 0.48393 0.0
C3067 C 0.1407 0.61514 0.45363 0.0
C3068 C 0.14611 0.59217 0.44686 0.0
C3069 C 0.13572 0.62042 0.47718 0.0
C3070 C 0.14752 0.5746 0.46394 0.0
C3071 C 0.1424 0.57965 0.48743 0.0
H3072 H 0.07418 0.62129 0.25326 0.0
H3073 H 0.1444 0.60611 0.22402 0.0
H3074 H 0.16151 0.60289 0.26371 0.0
H3075 H 0.15524 0.60126 0.30696 0.0
H3076 H 0.08453 0.61849 0.33471 0.0
H3077 H 0.06912 0.6243 0.29543 0.0
C3078 C 0.0933 0.61751 0.25552 0.0
C3079 C 0.10792 0.61367 0.23577 0.0
C3080 C 0.10294 0.61596 0.2782 0.0
C3081 C 0.13275 0.60912 0.23899 0.0
C3082 C 0.14249 0.60718 0.26168 0.0
C3083 C 0.13658 0.60661 0.30443 0.0
C3084 C 0.12106 0.60894 0.32397 0.0
C3085 C 0.1276 0.61012 0.28148 0.0
C3086 C 0.09694 0.61613 0.3202 0.0
C3087 C 0.08799 0.61949 0.29765 0.0
H3088 H 0.13555 0.35924 0.06161 0.0
H3089 H 0.14317 0.43233 0.04472 0.0
H3090 H 0.1372 0.42351 1.003 0.0
H3091 H 0.13144 0.39465 0.97132 0.0
H3092 H 0.12279 0.32155 0.98861 0.0
H3093 H 0.12698 0.33073 0.03025 0.0
C3094 C 0.13528 0.37324 0.04879 0.0
C3095 C 0.13895 0.39645 0.05612 0.0
C3096 C 0.13175 0.368 0.02496 0.0
C3097 C 0.13983 0.41439 0.03937 0.0
C3098 C 0.13644 0.40934 0.01559 0.0
C3099 C 0.13019 0.38077 0.98422 0.0
C3100 C 0.12696 0.35744 0.97685 0.0
C3101 C 0.13255 0.38617 0.00817 0.0
C3102 C 0.12527 0.33965 0.99379 0.0
C3103 C 0.12781 0.34486 0.01761 0.0
H3104 H 0.41531 0.39854 0.82008 0.0
H3105 H 0.33902 0.38921 0.80547 0.0
H3106 H 0.34785 0.38619 0.76337 0.0
H3107 H 0.37765 0.3878 0.73043 0.0
H3108 H 0.45324 0.40074 0.74674 0.0
H3109 H 0.44423 0.4006 0.78821 0.0
C3110 C 0.40057 0.39552 0.80778 0.0
C3111 C 0.37658 0.39387 0.81597 0.0
C3112 C 0.40567 0.39458 0.78374 0.0
C3113 C 0.3577 0.39048 0.79964 0.0
C3114 C 0.36274 0.38879 0.77556 0.0
C3115 C 0.3921 0.39047 0.7431 0.0
C3116 C 0.41611 0.39416 0.73527 0.0
C3117 C 0.38671 0.39108 0.76733 0.0
C3118 C 0.43458 0.39784 0.75202 0.0
C3119 C 0.42949 0.39776 0.77589 0.0
H3120 H 0.3613 0.62479 0.47228 0.0
H3121 H 0.38776 0.69481 0.48598 0.0
H3122 H 0.38613 0.68751 0.52805 0.0
H3123 H 0.37507 0.66222 0.56099 0.0
H3124 H 0.34876 0.59206 0.54783 0.0
H3125 H 0.35262 0.59843 0.5056 0.0
C3126 C 0.36694 0.63837 0.48447 0.0
C3127 C 0.37451 0.66037 0.47592 0.0
C3128 C 0.36585 0.6341 0.50877 0.0
C3129 C 0.3818 0.67773 0.492 0.0
C3130 C 0.38082 0.6736 0.51611 0.0
C3131 C 0.37022 0.64824 0.54894 0.0
C3132 C 0.36139 0.62676 0.55768 0.0
C3133 C 0.37249 0.65201 0.5247 0.0
C3134 C 0.35557 0.60879 0.54169 0.0
C3135 C 0.35771 0.61244 0.51749 0.0
H3136 H 0.19457 0.16875 0.38764 0.0
H3137 H 0.18688 0.10752 0.43136 0.0
H3138 H 0.22975 0.09899 0.42681 0.0
H3139 H 0.26813 0.10598 0.40694 0.0
H3140 H 0.27751 0.16641 0.36287 0.0
H3141 H 0.23547 0.17839 0.37104 0.0
C3142 C 0.20247 0.15386 0.3965 0.0
C3143 C 0.18749 0.13862 0.40958 0.0
C3144 C 0.22732 0.14873 0.39347 0.0
C3145 C 0.19793 0.11934 0.42095 0.0
C3146 C 0.22247 0.11444 0.41841 0.0
C3147 C 0.26097 0.12188 0.39928 0.0
C3148 C 0.27535 0.13491 0.38374 0.0
C3149 C 0.23708 0.1285 0.40408 0.0
C3150 C 0.2664 0.1559 0.37451 0.0
C3151 C 0.24242 0.16269 0.3792 0.0
H3152 H 0.75695 0.40267 0.60618 0.0
H3153 H 0.79062 0.3488 0.64732 0.0
H3154 H 0.75317 0.32527 0.64578 0.0
H3155 H 0.71094 0.31991 0.63144 0.0
H3156 H 0.67601 0.3768 0.59565 0.0
H3157 H 0.71398 0.39896 0.59545 0.0
C3158 C 0.75581 0.38607 0.61532 0.0
C3159 C 0.77601 0.37788 0.62767 0.0
C3160 C 0.73408 0.37309 0.615 0.0
C3161 C 0.77494 0.35569 0.63823 0.0
C3162 C 0.75359 0.34227 0.63736 0.0
C3163 C 0.71128 0.33765 0.62489 0.0
C3164 C 0.69045 0.34709 0.61448 0.0
C3165 C 0.73292 0.3509 0.62596 0.0
C3166 C 0.69168 0.36947 0.60437 0.0
C3167 C 0.71342 0.38208 0.60407 0.0
H3168 H 0.34205 0.94578 0.36059 0.0
H3169 H 0.41817 0.96159 0.37007 0.0
H3170 H 0.40879 0.00342 0.37304 0.0
H3171 H 0.37853 0.03592 0.37134 0.0
H3172 H 0.30308 0.01799 0.35951 0.0
H3173 H 0.31277 0.97688 0.35923 0.0
C3174 C 0.35673 0.95822 0.36348 0.0
C3175 C 0.3808 0.95035 0.36512 0.0
C3176 C 0.3513 0.98212 0.3647 0.0
C3177 C 0.39942 0.96702 0.36873 0.0
C3178 C 0.39407 0.99101 0.37039 0.0
C3179 C 0.36426 0.02298 0.36885 0.0
C3180 C 0.34008 0.03032 0.36544 0.0
C3181 C 0.37002 0.99885 0.36817 0.0
C3182 C 0.32187 0.01317 0.3621 0.0
C3183 C 0.32734 0.98947 0.36193 0.0
H3184 H 0.82012 0.62287 0.10513 0.0
H3185 H 0.80327 0.68976 0.13519 0.0
H3186 H 0.76099 0.67741 0.14114 0.0
H3187 H 0.72831 0.64766 0.13575 0.0
H3188 H 0.74421 0.58442 0.09781 0.0
H3189 H 0.78695 0.59591 0.09494 0.0
C3190 C 0.80723 0.63443 0.11357 0.0
C3191 C 0.81508 0.6563 0.12187 0.0
C3192 C 0.7826 0.62822 0.11434 0.0
C3193 C 0.79802 0.67199 0.13093 0.0
C3194 C 0.77371 0.6652 0.13353 0.0
C3195 C 0.74127 0.63646 0.12697 0.0
C3196 C 0.73371 0.61461 0.11824 0.0
C3197 C 0.76575 0.64337 0.12511 0.0
C3198 C 0.75012 0.60074 0.10574 0.0
C3199 C 0.77445 0.60734 0.104 0.0
H3200 H 0.63705 0.57125 0.38795 0.0
H3201 H 0.58659 0.55751 0.3316 0.0
H3202 H 0.59274 0.51541 0.33614 0.0
H3203 H 0.61621 0.48265 0.35324 0.0
H3204 H 0.6661 0.49677 0.4098 0.0
H3205 H 0.65635 0.5384 0.40825 0.0
C3206 C 0.62715 0.55904 0.37685 0.0
C3207 C 0.61161 0.5676 0.35926 0.0
C3208 C 0.63077 0.53485 0.37956 0.0
C3209 C 0.59868 0.55147 0.34527 0.0
C3210 C 0.60228 0.52735 0.34778 0.0
C3211 C 0.62434 0.49482 0.36562 0.0
C3212 C 0.6418 0.48677 0.38165 0.0
C3213 C 0.61875 0.51885 0.36448 0.0
C3214 C 0.6526 0.50265 0.39736 0.0
C3215 C 0.6471 0.52645 0.3964 0.0
H3216 H 0.22742 0.85434 0.87681 0.0
H3217 H 0.22885 0.9195 0.91499 0.0
H3218 H 0.27076 0.91289 0.92656 0.0
H3219 H 0.30803 0.89097 0.92263 0.0
H3220 H 0.30852 0.82589 0.88443 0.0
H3221 H 0.26496 0.82999 0.87594 0.0
C3222 C 0.23695 0.86681 0.88788 0.0
C3223 C 0.22547 0.88765 0.89457 0.0
C3224 C 0.26139 0.86304 0.89424 0.0
C3225 C 0.23766 0.9036 0.90924 0.0
C3226 C 0.26157 0.89983 0.91591 0.0
C3227 C 0.29856 0.87754 0.91262 0.0
C3228 C 0.31142 0.85833 0.90392 0.0
C3229 C 0.27381 0.88003 0.90791 0.0
C3230 C 0.29891 0.84088 0.89129 0.0
C3231 C 0.27406 0.84325 0.8864 0.0
H3232 H 0.3193 1.00058 0.13973 0.0
H3233 H 0.38858 0.96613 0.13597 0.0
H3234 H 0.40942 0.00423 0.1368 0.0
H3235 H 0.40767 0.04748 0.14119 0.0
H3236 H 0.3379 0.08101 0.14349 0.0
H3237 H 0.31741 0.04308 0.14086 0.0
C3238 C 0.33896 1.00136 0.13899 0.0
C3239 C 0.3524 0.9806 0.13812 0.0
C3240 C 0.35068 0.02316 0.13938 0.0
C3241 C 0.37785 0.98191 0.13671 0.0
C3242 C 0.38975 0.00366 0.13733 0.0
C3243 C 0.38801 0.04631 0.14085 0.0
C3244 C 0.37419 0.06681 0.14206 0.0
C3245 C 0.37634 0.02439 0.13907 0.0
C3246 C 0.34877 0.06535 0.14205 0.0
C3247 C 0.33708 0.04372 0.14066 0.0
H3248 H 0.13939 0.93702 0.64999 0.0
H3249 H 0.06541 0.9604 0.64717 0.0
H3250 H 0.07942 1.00084 0.64032 0.0
H3251 H 0.11341 0.02971 0.63739 0.0
H3252 H 0.18706 0.00462 0.64253 0.0
H3253 H 0.17254 0.96475 0.64553 0.0
C3254 C 0.12638 0.95094 0.64732 0.0
C3255 C 0.10155 0.94591 0.64823 0.0
C3256 C 0.13455 0.97386 0.64387 0.0
C3257 C 0.0847 0.96405 0.64594 0.0
C3258 C 0.0927 0.98707 0.64209 0.0
C3259 C 0.12619 0.01546 0.63888 0.0
C3260 C 0.15127 0.02028 0.63981 0.0
C3261 C 0.11768 0.99225 0.64128 0.0
C3262 C 0.16765 1.00159 0.64188 0.0
C3263 C 0.15941 0.97867 0.6437 0.0
loop_
_geom_bond_atom_site_label_1
_geom_bond_atom_site_label_2
_geom_bond_distance
_geom_bond_site_symmetry_2
_ccdc_geom_bond_type
Mn0 O5 2.095 . S
Mn0 O15 2.162 . S
Mn0 O16 2.297 . S
Mn0 O24 2.385 . S
Mn0 O25 2.209 . S
Mn0 O26 2.094 . S
Mn1 O6 2.121 . S
Mn1 N8 2.257 . S
Mn1 N17 2.282 . S
Mn1 O25 2.215 . S
Mn1 O27 2.117 . S
C2 O24 1.234 . S
C2 O25 1.283 . S
C3 O15 1.281 . S
C3 O16 1.236 . S
C4 O26 1.240 . S
C4 O27 1.264 . S
O5 Mn0 2.095 . S
O5 C14 1.250 . S
O6 Mn1 2.121 . S
O6 C14 1.258 . S
C7 N8 1.326 . S
C7 C11 1.460 . S
C7 H13 0.929 . S
N8 Mn1 2.257 . S
N8 C7 1.326 . S
N8 C12 1.362 . S
C9 C10 1.258 . S
C9 C12 1.431 . S
C9 C29 1.449 . S
C10 C9 1.258 . S
C10 C11 1.477 . S
C10 H30 0.931 . S
C11 C7 1.460 . S
C11 C10 1.477 . S
C11 H31 0.930 . S
C12 N8 1.362 . S
C12 C9 1.431 . S
C12 C22 1.476 . S
H13 C7 0.929 . S
C14 O5 1.250 . S
C14 O6 1.258 . S
O15 Mn0 2.162 . S
O15 C3 1.281 . S
O16 Mn0 2.297 . S
O16 C3 1.236 . S
N17 Mn1 2.282 . S
N17 C18 1.328 . S
N17 C22 1.318 . S
C18 N17 1.328 . S
C18 C19 1.457 . S
C18 H23 0.929 . S
C19 C18 1.457 . S
C19 C20 1.291 . S
C19 H32 0.931 . S
C20 C19 1.291 . S
C20 C21 1.373 . S
C20 H33 0.929 . S
C21 C20 1.373 . S
C21 C22 1.396 . S
C21 C28 1.403 . S
C22 C12 1.476 . S
C22 N17 1.318 . S
C22 C21 1.396 . S
H23 C18 0.929 . S
O24 Mn0 2.385 . S
O24 C2 1.234 . S
O25 Mn0 2.209 . S
O25 Mn1 2.215 . S
O25 C2 1.283 . S
O26 Mn0 2.094 . S
O26 C4 1.240 . S
O27 Mn1 2.117 . S
O27 C4 1.264 . S
C28 C21 1.403 . S
C28 C29 1.399 . S
C28 H34 0.929 . S
C29 C9 1.449 . S
C29 C28 1.399 . S
C29 H35 0.930 . S
H30 C10 0.931 . S
H31 C11 0.930 . S
H32 C19 0.931 . S
H33 C20 0.929 . S
H34 C28 0.929 . S
H35 C29 0.930 . S
Mn36 O41 2.095 . S
Mn36 O51 2.162 . S
Mn36 O52 2.297 . S
Mn36 O60 2.385 . S
Mn36 O61 2.209 . S
Mn36 O62 2.094 . S
Mn37 O42 2.121 . S
Mn37 N44 2.257 . S
Mn37 N53 2.282 . S
Mn37 O61 2.215 . S
Mn37 O63 2.117 . S
C38 O60 1.234 . S
C38 O61 1.283 . S
C39 O51 1.281 . S
C39 O52 1.236 . S
C40 O62 1.240 . S
C40 O63 1.264 . S
O41 Mn36 2.095 . S
O41 C50 1.250 . S
O42 Mn37 2.121 . S
O42 C50 1.258 . S
C43 N44 1.326 . S
C43 C47 1.460 . S
C43 H49 0.929 . S
N44 Mn37 2.257 . S
N44 C43 1.326 . S
N44 C48 1.362 . S
C45 C46 1.258 . S
C45 C48 1.431 . S
C45 C65 1.449 . S
C46 C45 1.258 . S
C46 C47 1.477 . S
C46 H66 0.931 . S
C47 C43 1.460 . S
C47 C46 1.477 . S
C47 H67 0.930 . S
C48 N44 1.362 . S
C48 C45 1.431 . S
C48 C58 1.476 . S
H49 C43 0.929 . S
C50 O41 1.250 . S
C50 O42 1.258 . S
O51 Mn36 2.162 . S
O51 C39 1.281 . S
O52 Mn36 2.297 . S
O52 C39 1.236 . S
N53 Mn37 2.282 . S
N53 C54 1.328 . S
N53 C58 1.318 . S
C54 N53 1.328 . S
C54 C55 1.457 . S
C54 H59 0.929 . S
C55 C54 1.457 . S
C55 C56 1.291 . S
C55 H68 0.931 . S
C56 C55 1.291 . S
C56 C57 1.373 . S
C56 H69 0.929 . S
C57 C56 1.373 . S
C57 C58 1.396 . S
C57 C64 1.403 . S
C58 C48 1.476 . S
C58 N53 1.318 . S
C58 C57 1.396 . S
H59 C54 0.929 . S
O60 Mn36 2.385 . S
O60 C38 1.234 . S
O61 Mn36 2.209 . S
O61 Mn37 2.215 . S
O61 C38 1.283 . S
O62 Mn36 2.094 . S
O62 C40 1.240 . S
O63 Mn37 2.117 . S
O63 C40 1.264 . S
C64 C57 1.403 . S
C64 C65 1.399 . S
C64 H70 0.929 . S
C65 C45 1.449 . S
C65 C64 1.399 . S
C65 H71 0.930 . S
H66 C46 0.931 . S
H67 C47 0.930 . S
H68 C55 0.931 . S
H69 C56 0.929 . S
H70 C64 0.929 . S
H71 C65 0.930 . S
Mn72 O77 2.095 . S
Mn72 O87 2.162 . S
Mn72 O88 2.297 . S
Mn72 O96 2.385 . S
Mn72 O97 2.209 . S
Mn72 O98 2.094 . S
Mn73 O78 2.121 . S
Mn73 N80 2.257 . S
Mn73 N89 2.282 . S
Mn73 O97 2.215 . S
Mn73 O99 2.117 . S
C74 O96 1.234 . S
C74 O97 1.283 . S
C75 O87 1.281 . S
C75 O88 1.236 . S
C76 O98 1.240 . S
C76 O99 1.264 . S
O77 Mn72 2.095 . S
O77 C86 1.250 . S
O78 Mn73 2.121 . S
O78 C86 1.258 . S
C79 N80 1.326 . S
C79 C83 1.460 . S
C79 H85 0.929 . S
N80 Mn73 2.257 . S
N80 C79 1.326 . S
N80 C84 1.362 . S
C81 C82 1.258 . S
C81 C84 1.431 . S
C81 C101 1.449 . S
C82 C81 1.258 . S
C82 C83 1.477 . S
C82 H102 0.931 . S
C83 C79 1.460 . S
C83 C82 1.477 . S
C83 H103 0.930 . S
C84 N80 1.362 . S
C84 C81 1.431 . S
C84 C94 1.476 . S
H85 C79 0.929 . S
C86 O77 1.250 . S
C86 O78 1.258 . S
O87 Mn72 2.162 . S
O87 C75 1.281 . S
O88 Mn72 2.297 . S
O88 C75 1.236 . S
N89 Mn73 2.282 . S
N89 C90 1.328 . S
N89 C94 1.318 . S
C90 N89 1.328 . S
C90 C91 1.457 . S
C90 H95 0.929 . S
C91 C90 1.457 . S
C91 C92 1.291 . S
C91 H104 0.931 . S
C92 C91 1.291 . S
C92 C93 1.373 . S
C92 H105 0.929 . S
C93 C92 1.373 . S
C93 C94 1.396 . S
C93 C100 1.403 . S
C94 C84 1.476 . S
C94 N89 1.318 . S
C94 C93 1.396 . S
H95 C90 0.929 . S
O96 Mn72 2.385 . S
O96 C74 1.234 . S
O97 Mn72 2.209 . S
O97 Mn73 2.215 . S
O97 C74 1.283 . S
O98 Mn72 2.094 . S
O98 C76 1.240 . S
O99 Mn73 2.117 . S
O99 C76 1.264 . S
C100 C93 1.403 . S
C100 C101 1.399 . S
C100 H106 0.929 . S
C101 C81 1.449 . S
C101 C100 1.399 . S
C101 H107 0.930 . S
H102 C82 0.931 . S
H103 C83 0.930 . S
H104 C91 0.931 . S
H105 C92 0.929 . S
H106 C100 0.929 . S
H107 C101 0.930 . S
Mn108 O113 2.095 . S
Mn108 O123 2.162 . S
Mn108 O124 2.297 . S
Mn108 O132 2.385 . S
Mn108 O133 2.209 . S
Mn108 O134 2.094 . S
Mn109 O114 2.121 . S
Mn109 N116 2.257 . S
Mn109 N125 2.282 . S
Mn109 O133 2.215 . S
Mn109 O135 2.117 . S
C110 O132 1.234 . S
C110 O133 1.283 . S
C111 O123 1.281 . S
C111 O124 1.236 . S
C112 O134 1.240 . S
C112 O135 1.264 . S
O113 Mn108 2.095 . S
O113 C122 1.250 . S
O114 Mn109 2.121 . S
O114 C122 1.258 . S
C115 N116 1.326 . S
C115 C119 1.460 . S
C115 H121 0.929 . S
N116 Mn109 2.257 . S
N116 C115 1.326 . S
N116 C120 1.362 . S
C117 C118 1.258 . S
C117 C120 1.431 . S
C117 C137 1.449 . S
C118 C117 1.258 . S
C118 C119 1.477 . S
C118 H138 0.931 . S
C119 C115 1.460 . S
C119 C118 1.477 . S
C119 H139 0.930 . S
C120 N116 1.362 . S
C120 C117 1.431 . S
C120 C130 1.476 . S
H121 C115 0.929 . S
C122 O113 1.250 . S
C122 O114 1.258 . S
O123 Mn108 2.162 . S
O123 C111 1.281 . S
O124 Mn108 2.297 . S
O124 C111 1.236 . S
N125 Mn109 2.282 . S
N125 C126 1.328 . S
N125 C130 1.318 . S
C126 N125 1.328 . S
C126 C127 1.457 . S
C126 H131 0.929 . S
C127 C126 1.457 . S
C127 C128 1.291 . S
C127 H140 0.931 . S
C128 C127 1.291 . S
C128 C129 1.373 . S
C128 H141 0.929 . S
C129 C128 1.373 . S
C129 C130 1.396 . S
C129 C136 1.403 . S
C130 C120 1.476 . S
C130 N125 1.318 . S
C130 C129 1.396 . S
H131 C126 0.929 . S
O132 Mn108 2.385 . S
O132 C110 1.234 . S
O133 Mn108 2.209 . S
O133 Mn109 2.215 . S
O133 C110 1.283 . S
O134 Mn108 2.094 . S
O134 C112 1.240 . S
O135 Mn109 2.117 . S
O135 C112 1.264 . S
C136 C129 1.403 . S
C136 C137 1.399 . S
C136 H142 0.929 . S
C137 C117 1.449 . S
C137 C136 1.399 . S
C137 H143 0.930 . S
H138 C118 0.931 . S
H139 C119 0.930 . S
H140 C127 0.931 . S
H141 C128 0.929 . S
H142 C136 0.929 . S
H143 C137 0.930 . S
Mn144 O149 2.095 . S
Mn144 O159 2.162 . S
Mn144 O160 2.297 . S
Mn144 O168 2.385 . S
Mn144 O169 2.209 . S
Mn144 O170 2.094 . S
Mn145 O150 2.121 . S
Mn145 N152 2.257 . S
Mn145 N161 2.282 . S
Mn145 O169 2.215 . S
Mn145 O171 2.117 . S
C146 O168 1.234 . S
C146 O169 1.283 . S
C147 O159 1.281 . S
C147 O160 1.236 . S
C148 O170 1.240 . S
C148 O171 1.264 . S
O149 Mn144 2.095 . S
O149 C158 1.250 . S
O150 Mn145 2.121 . S
O150 C158 1.258 . S
C151 N152 1.326 . S
C151 C155 1.460 . S
C151 H157 0.929 . S
N152 Mn145 2.257 . S
N152 C151 1.326 . S
N152 C156 1.362 . S
C153 C154 1.258 . S
C153 C156 1.431 . S
C153 C173 1.449 . S
C154 C153 1.258 . S
C154 C155 1.477 . S
C154 H174 0.931 . S
C155 C151 1.460 . S
C155 C154 1.477 . S
C155 H175 0.930 . S
C156 N152 1.362 . S
C156 C153 1.431 . S
C156 C166 1.476 . S
H157 C151 0.929 . S
C158 O149 1.250 . S
C158 O150 1.258 . S
O159 Mn144 2.162 . S
O159 C147 1.281 . S
O160 Mn144 2.297 . S
O160 C147 1.236 . S
N161 Mn145 2.282 . S
N161 C162 1.328 . S
N161 C166 1.318 . S
C162 N161 1.328 . S
C162 C163 1.457 . S
C162 H167 0.929 . S
C163 C162 1.457 . S
C163 C164 1.291 . S
C163 H176 0.931 . S
C164 C163 1.291 . S
C164 C165 1.373 . S
C164 H177 0.929 . S
C165 C164 1.373 . S
C165 C166 1.396 . S
C165 C172 1.403 . S
C166 C156 1.476 . S
C166 N161 1.318 . S
C166 C165 1.396 . S
H167 C162 0.929 . S
O168 Mn144 2.385 . S
O168 C146 1.234 . S
O169 Mn144 2.209 . S
O169 Mn145 2.215 . S
O169 C146 1.283 . S
O170 Mn144 2.094 . S
O170 C148 1.240 . S
O171 Mn145 2.117 . S
O171 C148 1.264 . S
C172 C165 1.403 . S
C172 C173 1.399 . S
C172 H178 0.929 . S
C173 C153 1.449 . S
C173 C172 1.399 . S
C173 H179 0.930 . S
H174 C154 0.931 . S
H175 C155 0.930 . S
H176 C163 0.931 . S
H177 C164 0.929 . S
H178 C172 0.929 . S
H179 C173 0.930 . S
Mn180 O185 2.095 . S
Mn180 O195 2.162 . S
Mn180 O196 2.297 . S
Mn180 O204 2.385 . S
Mn180 O205 2.209 . S
Mn180 O206 2.094 . S
Mn181 O186 2.121 . S
Mn181 N188 2.257 . S
Mn181 N197 2.282 . S
Mn181 O205 2.215 . S
Mn181 O207 2.117 . S
C182 O204 1.234 . S
C182 O205 1.283 . S
C183 O195 1.281 . S
C183 O196 1.236 . S
C184 O206 1.240 . S
C184 O207 1.264 . S
O185 Mn180 2.095 . S
O185 C194 1.250 . S
O186 Mn181 2.121 . S
O186 C194 1.258 . S
C187 N188 1.326 . S
C187 C191 1.460 . S
C187 H193 0.929 . S
N188 Mn181 2.257 . S
N188 C187 1.326 . S
N188 C192 1.362 . S
C189 C190 1.258 . S
C189 C192 1.431 . S
C189 C209 1.449 . S
C190 C189 1.258 . S
C190 C191 1.477 . S
C190 H210 0.931 . S
C191 C187 1.460 . S
C191 C190 1.477 . S
C191 H211 0.930 . S
C192 N188 1.362 . S
C192 C189 1.431 . S
C192 C202 1.476 . S
H193 C187 0.929 . S
C194 O185 1.250 . S
C194 O186 1.258 . S
O195 Mn180 2.162 . S
O195 C183 1.281 . S
O196 Mn180 2.297 . S
O196 C183 1.236 . S
N197 Mn181 2.282 . S
N197 C198 1.328 . S
N197 C202 1.318 . S
C198 N197 1.328 . S
C198 C199 1.457 . S
C198 H203 0.929 . S
C199 C198 1.457 . S
C199 C200 1.291 . S
C199 H212 0.931 . S
C200 C199 1.291 . S
C200 C201 1.373 . S
C200 H213 0.929 . S
C201 C200 1.373 . S
C201 C202 1.396 . S
C201 C208 1.403 . S
C202 C192 1.476 . S
C202 N197 1.318 . S
C202 C201 1.396 . S
H203 C198 0.929 . S
O204 Mn180 2.385 . S
O204 C182 1.234 . S
O205 Mn180 2.209 . S
O205 Mn181 2.215 . S
O205 C182 1.283 . S
O206 Mn180 2.094 . S
O206 C184 1.240 . S
O207 Mn181 2.117 . S
O207 C184 1.264 . S
C208 C201 1.403 . S
C208 C209 1.399 . S
C208 H214 0.929 . S
C209 C189 1.449 . S
C209 C208 1.399 . S
C209 H215 0.930 . S
H210 C190 0.931 . S
H211 C191 0.930 . S
H212 C199 0.931 . S
H213 C200 0.929 . S
H214 C208 0.929 . S
H215 C209 0.930 . S
Mn216 O221 2.095 . S
Mn216 O231 2.162 . S
Mn216 O232 2.297 . S
Mn216 O240 2.385 . S
Mn216 O241 2.209 . S
Mn216 O242 2.094 . S
Mn217 O222 2.121 . S
Mn217 N224 2.257 . S
Mn217 N233 2.282 . S
Mn217 O241 2.215 . S
Mn217 O243 2.117 . S
C218 O240 1.234 . S
C218 O241 1.283 . S
C219 O231 1.281 . S
C219 O232 1.236 . S
C220 O242 1.240 . S
C220 O243 1.264 . S
O221 Mn216 2.095 . S
O221 C230 1.250 . S
O222 Mn217 2.121 . S
O222 C230 1.258 . S
C223 N224 1.326 . S
C223 C227 1.460 . S
C223 H229 0.929 . S
N224 Mn217 2.257 . S
N224 C223 1.326 . S
N224 C228 1.362 . S
C225 C226 1.258 . S
C225 C228 1.431 . S
C225 C245 1.449 . S
C226 C225 1.258 . S
C226 C227 1.477 . S
C226 H246 0.931 . S
C227 C223 1.460 . S
C227 C226 1.477 . S
C227 H247 0.930 . S
C228 N224 1.362 . S
C228 C225 1.431 . S
C228 C238 1.476 . S
H229 C223 0.929 . S
C230 O221 1.250 . S
C230 O222 1.258 . S
O231 Mn216 2.162 . S
O231 C219 1.281 . S
O232 Mn216 2.297 . S
O232 C219 1.236 . S
N233 Mn217 2.282 . S
N233 C234 1.328 . S
N233 C238 1.318 . S
C234 N233 1.328 . S
C234 C235 1.457 . S
C234 H239 0.929 . S
C235 C234 1.457 . S
C235 C236 1.291 . S
C235 H248 0.931 . S
C236 C235 1.291 . S
C236 C237 1.373 . S
C236 H249 0.929 . S
C237 C236 1.373 . S
C237 C238 1.396 . S
C237 C244 1.403 . S
C238 C228 1.476 . S
C238 N233 1.318 . S
C238 C237 1.396 . S
H239 C234 0.929 . S
O240 Mn216 2.385 . S
O240 C218 1.234 . S
O241 Mn216 2.209 . S
O241 Mn217 2.215 . S
O241 C218 1.283 . S
O242 Mn216 2.094 . S
O242 C220 1.240 . S
O243 Mn217 2.117 . S
O243 C220 1.264 . S
C244 C237 1.403 . S
C244 C245 1.399 . S
C244 H250 0.929 . S
C245 C225 1.449 . S
C245 C244 1.399 . S
C245 H251 0.930 . S
H246 C226 0.931 . S
H247 C227 0.930 . S
H248 C235 0.931 . S
H249 C236 0.929 . S
H250 C244 0.929 . S
H251 C245 0.930 . S
Mn252 O257 2.095 . S
Mn252 O267 2.162 . S
Mn252 O268 2.297 . S
Mn252 O276 2.385 . S
Mn252 O277 2.209 . S
Mn252 O278 2.094 . S
Mn253 O258 2.121 . S
Mn253 N260 2.257 . S
Mn253 N269 2.282 . S
Mn253 O277 2.215 . S
Mn253 O279 2.117 . S
C254 O276 1.234 . S
C254 O277 1.283 . S
C255 O267 1.281 . S
C255 O268 1.236 . S
C256 O278 1.240 . S
C256 O279 1.264 . S
O257 Mn252 2.095 . S
O257 C266 1.250 . S
O258 Mn253 2.121 . S
O258 C266 1.258 . S
C259 N260 1.326 . S
C259 C263 1.460 . S
C259 H265 0.929 . S
N260 Mn253 2.257 . S
N260 C259 1.326 . S
N260 C264 1.362 . S
C261 C262 1.258 . S
C261 C264 1.431 . S
C261 C281 1.449 . S
C262 C261 1.258 . S
C262 C263 1.477 . S
C262 H282 0.931 . S
C263 C259 1.460 . S
C263 C262 1.477 . S
C263 H283 0.930 . S
C264 N260 1.362 . S
C264 C261 1.431 . S
C264 C274 1.476 . S
H265 C259 0.929 . S
C266 O257 1.250 . S
C266 O258 1.258 . S
O267 Mn252 2.162 . S
O267 C255 1.281 . S
O268 Mn252 2.297 . S
O268 C255 1.236 . S
N269 Mn253 2.282 . S
N269 C270 1.328 . S
N269 C274 1.318 . S
C270 N269 1.328 . S
C270 C271 1.457 . S
C270 H275 0.929 . S
C271 C270 1.457 . S
C271 C272 1.291 . S
C271 H284 0.931 . S
C272 C271 1.291 . S
C272 C273 1.373 . S
C272 H285 0.929 . S
C273 C272 1.373 . S
C273 C274 1.396 . S
C273 C280 1.403 . S
C274 C264 1.476 . S
C274 N269 1.318 . S
C274 C273 1.396 . S
H275 C270 0.929 . S
O276 Mn252 2.385 . S
O276 C254 1.234 . S
O277 Mn252 2.209 . S
O277 Mn253 2.215 . S
O277 C254 1.283 . S
O278 Mn252 2.094 . S
O278 C256 1.240 . S
O279 Mn253 2.117 . S
O279 C256 1.264 . S
C280 C273 1.403 . S
C280 C281 1.399 . S
C280 H286 0.929 . S
C281 C261 1.449 . S
C281 C280 1.399 . S
C281 H287 0.930 . S
H282 C262 0.931 . S
H283 C263 0.930 . S
H284 C271 0.931 . S
H285 C272 0.929 . S
H286 C280 0.929 . S
H287 C281 0.930 . S
Mn288 O293 2.095 . S
Mn288 O303 2.162 . S
Mn288 O304 2.297 . S
Mn288 O312 2.385 . S
Mn288 O313 2.209 . S
Mn288 O314 2.094 . S
Mn289 O294 2.121 . S
Mn289 N296 2.257 . S
Mn289 N305 2.282 . S
Mn289 O313 2.215 . S
Mn289 O315 2.117 . S
C290 O312 1.234 . S
C290 O313 1.283 . S
C291 O303 1.281 . S
C291 O304 1.236 . S
C292 O314 1.240 . S
C292 O315 1.264 . S
O293 Mn288 2.095 . S
O293 C302 1.250 . S
O294 Mn289 2.121 . S
O294 C302 1.258 . S
C295 N296 1.326 . S
C295 C299 1.460 . S
C295 H301 0.929 . S
N296 Mn289 2.257 . S
N296 C295 1.326 . S
N296 C300 1.362 . S
C297 C298 1.258 . S
C297 C300 1.431 . S
C297 C317 1.449 . S
C298 C297 1.258 . S
C298 C299 1.477 . S
C298 H318 0.931 . S
C299 C295 1.460 . S
C299 C298 1.477 . S
C299 H319 0.930 . S
C300 N296 1.362 . S
C300 C297 1.431 . S
C300 C310 1.476 . S
H301 C295 0.929 . S
C302 O293 1.250 . S
C302 O294 1.258 . S
O303 Mn288 2.162 . S
O303 C291 1.281 . S
O304 Mn288 2.297 . S
O304 C291 1.236 . S
N305 Mn289 2.282 . S
N305 C306 1.328 . S
N305 C310 1.318 . S
C306 N305 1.328 . S
C306 C307 1.457 . S
C306 H311 0.929 . S
C307 C306 1.457 . S
C307 C308 1.291 . S
C307 H320 0.931 . S
C308 C307 1.291 . S
C308 C309 1.373 . S
C308 H321 0.929 . S
C309 C308 1.373 . S
C309 C310 1.396 . S
C309 C316 1.403 . S
C310 C300 1.476 . S
C310 N305 1.318 . S
C310 C309 1.396 . S
H311 C306 0.929 . S
O312 Mn288 2.385 . S
O312 C290 1.234 . S
O313 Mn288 2.209 . S
O313 Mn289 2.215 . S
O313 C290 1.283 . S
O314 Mn288 2.094 . S
O314 C292 1.240 . S
O315 Mn289 2.117 . S
O315 C292 1.264 . S
C316 C309 1.403 . S
C316 C317 1.399 . S
C316 H322 0.929 . S
C317 C297 1.449 . S
C317 C316 1.399 . S
C317 H323 0.930 . S
H318 C298 0.931 . S
H319 C299 0.930 . S
H320 C307 0.931 . S
H321 C308 0.929 . S
H322 C316 0.929 . S
H323 C317 0.930 . S
Mn324 O329 2.095 . S
Mn324 O339 2.162 . S
Mn324 O340 2.297 . S
Mn324 O348 2.385 . S
Mn324 O349 2.209 . S
Mn324 O350 2.094 . S
Mn325 O330 2.121 . S
Mn325 N332 2.257 . S
Mn325 N341 2.282 . S
Mn325 O349 2.215 . S
Mn325 O351 2.117 . S
C326 O348 1.234 . S
C326 O349 1.283 . S
C327 O339 1.281 . S
C327 O340 1.236 . S
C328 O350 1.240 . S
C328 O351 1.264 . S
O329 Mn324 2.095 . S
O329 C338 1.250 . S
O330 Mn325 2.121 . S
O330 C338 1.258 . S
C331 N332 1.326 . S
C331 C335 1.460 . S
C331 H337 0.929 . S
N332 Mn325 2.257 . S
N332 C331 1.326 . S
N332 C336 1.362 . S
C333 C334 1.258 . S
C333 C336 1.431 . S
C333 C353 1.449 . S
C334 C333 1.258 . S
C334 C335 1.477 . S
C334 H354 0.931 . S
C335 C331 1.460 . S
C335 C334 1.477 . S
C335 H355 0.930 . S
C336 N332 1.362 . S
C336 C333 1.431 . S
C336 C346 1.476 . S
H337 C331 0.929 . S
C338 O329 1.250 . S
C338 O330 1.258 . S
O339 Mn324 2.162 . S
O339 C327 1.281 . S
O340 Mn324 2.297 . S
O340 C327 1.236 . S
N341 Mn325 2.282 . S
N341 C342 1.328 . S
N341 C346 1.318 . S
C342 N341 1.328 . S
C342 C343 1.457 . S
C342 H347 0.929 . S
C343 C342 1.457 . S
C343 C344 1.291 . S
C343 H356 0.931 . S
C344 C343 1.291 . S
C344 C345 1.373 . S
C344 H357 0.929 . S
C345 C344 1.373 . S
C345 C346 1.396 . S
C345 C352 1.403 . S
C346 C336 1.476 . S
C346 N341 1.318 . S
C346 C345 1.396 . S
H347 C342 0.929 . S
O348 Mn324 2.385 . S
O348 C326 1.234 . S
O349 Mn324 2.209 . S
O349 Mn325 2.215 . S
O349 C326 1.283 . S
O350 Mn324 2.094 . S
O350 C328 1.240 . S
O351 Mn325 2.117 . S
O351 C328 1.264 . S
C352 C345 1.403 . S
C352 C353 1.399 . S
C352 H358 0.929 . S
C353 C333 1.449 . S
C353 C352 1.399 . S
C353 H359 0.930 . S
H354 C334 0.931 . S
H355 C335 0.930 . S
H356 C343 0.931 . S
H357 C344 0.929 . S
H358 C352 0.929 . S
H359 C353 0.930 . S
Mn360 O365 2.095 . S
Mn360 O375 2.162 . S
Mn360 O376 2.297 . S
Mn360 O384 2.385 . S
Mn360 O385 2.209 . S
Mn360 O386 2.094 . S
Mn361 O366 2.121 . S
Mn361 N368 2.257 . S
Mn361 N377 2.282 . S
Mn361 O385 2.215 . S
Mn361 O387 2.117 . S
C362 O384 1.234 . S
C362 O385 1.283 . S
C363 O375 1.281 . S
C363 O376 1.236 . S
C364 O386 1.240 . S
C364 O387 1.264 . S
O365 Mn360 2.095 . S
O365 C374 1.250 . S
O366 Mn361 2.121 . S
O366 C374 1.258 . S
C367 N368 1.326 . S
C367 C371 1.460 . S
C367 H373 0.929 . S
N368 Mn361 2.257 . S
N368 C367 1.326 . S
N368 C372 1.362 . S
C369 C370 1.258 . S
C369 C372 1.431 . S
C369 C389 1.449 . S
C370 C369 1.258 . S
C370 C371 1.477 . S
C370 H390 0.931 . S
C371 C367 1.460 . S
C371 C370 1.477 . S
C371 H391 0.930 . S
C372 N368 1.362 . S
C372 C369 1.431 . S
C372 C382 1.476 . S
H373 C367 0.929 . S
C374 O365 1.250 . S
C374 O366 1.258 . S
O375 Mn360 2.162 . S
O375 C363 1.281 . S
O376 Mn360 2.297 . S
O376 C363 1.236 . S
N377 Mn361 2.282 . S
N377 C378 1.328 . S
N377 C382 1.318 . S
C378 N377 1.328 . S
C378 C379 1.457 . S
C378 H383 0.929 . S
C379 C378 1.457 . S
C379 C380 1.291 . S
C379 H392 0.931 . S
C380 C379 1.291 . S
C380 C381 1.373 . S
C380 H393 0.929 . S
C381 C380 1.373 . S
C381 C382 1.396 . S
C381 C388 1.403 . S
C382 C372 1.476 . S
C382 N377 1.318 . S
C382 C381 1.396 . S
H383 C378 0.929 . S
O384 Mn360 2.385 . S
O384 C362 1.234 . S
O385 Mn360 2.209 . S
O385 Mn361 2.215 . S
O385 C362 1.283 . S
O386 Mn360 2.094 . S
O386 C364 1.240 . S
O387 Mn361 2.117 . S
O387 C364 1.264 . S
C388 C381 1.403 . S
C388 C389 1.399 . S
C388 H394 0.929 . S
C389 C369 1.449 . S
C389 C388 1.399 . S
C389 H395 0.930 . S
H390 C370 0.931 . S
H391 C371 0.930 . S
H392 C379 0.931 . S
H393 C380 0.929 . S
H394 C388 0.929 . S
H395 C389 0.930 . S
Mn396 O401 2.095 . S
Mn396 O411 2.162 . S
Mn396 O412 2.297 . S
Mn396 O420 2.385 . S
Mn396 O421 2.209 . S
Mn396 O422 2.094 . S
Mn397 O402 2.121 . S
Mn397 N404 2.257 . S
Mn397 N413 2.282 . S
Mn397 O421 2.215 . S
Mn397 O423 2.117 . S
C398 O420 1.234 . S
C398 O421 1.283 . S
C399 O411 1.281 . S
C399 O412 1.236 . S
C400 O422 1.240 . S
C400 O423 1.264 . S
O401 Mn396 2.095 . S
O401 C410 1.250 . S
O402 Mn397 2.121 . S
O402 C410 1.258 . S
C403 N404 1.326 . S
C403 C407 1.460 . S
C403 H409 0.929 . S
N404 Mn397 2.257 . S
N404 C403 1.326 . S
N404 C408 1.362 . S
C405 C406 1.258 . S
C405 C408 1.431 . S
C405 C425 1.449 . S
C406 C405 1.258 . S
C406 C407 1.477 . S
C406 H426 0.931 . S
C407 C403 1.460 . S
C407 C406 1.477 . S
C407 H427 0.930 . S
C408 N404 1.362 . S
C408 C405 1.431 . S
C408 C418 1.476 . S
H409 C403 0.929 . S
C410 O401 1.250 . S
C410 O402 1.258 . S
O411 Mn396 2.162 . S
O411 C399 1.281 . S
O412 Mn396 2.297 . S
O412 C399 1.236 . S
N413 Mn397 2.282 . S
N413 C414 1.328 . S
N413 C418 1.318 . S
C414 N413 1.328 . S
C414 C415 1.457 . S
C414 H419 0.929 . S
C415 C414 1.457 . S
C415 C416 1.291 . S
C415 H428 0.931 . S
C416 C415 1.291 . S
C416 C417 1.373 . S
C416 H429 0.929 . S
C417 C416 1.373 . S
C417 C418 1.396 . S
C417 C424 1.403 . S
C418 C408 1.476 . S
C418 N413 1.318 . S
C418 C417 1.396 . S
H419 C414 0.929 . S
O420 Mn396 2.385 . S
O420 C398 1.234 . S
O421 Mn396 2.209 . S
O421 Mn397 2.215 . S
O421 C398 1.283 . S
O422 Mn396 2.094 . S
O422 C400 1.240 . S
O423 Mn397 2.117 . S
O423 C400 1.264 . S
C424 C417 1.403 . S
C424 C425 1.399 . S
C424 H430 0.929 . S
C425 C405 1.449 . S
C425 C424 1.399 . S
C425 H431 0.930 . S
H426 C406 0.931 . S
H427 C407 0.930 . S
H428 C415 0.931 . S
H429 C416 0.929 . S
H430 C424 0.929 . S
H431 C425 0.930 . S
Mn432 O437 2.095 . S
Mn432 O447 2.162 . S
Mn432 O448 2.297 . S
Mn432 O456 2.385 . S
Mn432 O457 2.209 . S
Mn432 O458 2.094 . S
Mn433 O438 2.121 . S
Mn433 N440 2.257 . S
Mn433 N449 2.282 . S
Mn433 O457 2.215 . S
Mn433 O459 2.117 . S
C434 O456 1.234 . S
C434 O457 1.283 . S
C435 O447 1.281 . S
C435 O448 1.236 . S
C436 O458 1.240 . S
C436 O459 1.264 . S
O437 Mn432 2.095 . S
O437 C446 1.250 . S
O438 Mn433 2.121 . S
O438 C446 1.258 . S
C439 N440 1.326 . S
C439 C443 1.460 . S
C439 H445 0.929 . S
N440 Mn433 2.257 . S
N440 C439 1.326 . S
N440 C444 1.362 . S
C441 C442 1.258 . S
C441 C444 1.431 . S
C441 C461 1.449 . S
C442 C441 1.258 . S
C442 C443 1.477 . S
C442 H462 0.931 . S
C443 C439 1.460 . S
C443 C442 1.477 . S
C443 H463 0.930 . S
C444 N440 1.362 . S
C444 C441 1.431 . S
C444 C454 1.476 . S
H445 C439 0.929 . S
C446 O437 1.250 . S
C446 O438 1.258 . S
O447 Mn432 2.162 . S
O447 C435 1.281 . S
O448 Mn432 2.297 . S
O448 C435 1.236 . S
N449 Mn433 2.282 . S
N449 C450 1.328 . S
N449 C454 1.318 . S
C450 N449 1.328 . S
C450 C451 1.457 . S
C450 H455 0.929 . S
C451 C450 1.457 . S
C451 C452 1.291 . S
C451 H464 0.931 . S
C452 C451 1.291 . S
C452 C453 1.373 . S
C452 H465 0.929 . S
C453 C452 1.373 . S
C453 C454 1.396 . S
C453 C460 1.403 . S
C454 C444 1.476 . S
C454 N449 1.318 . S
C454 C453 1.396 . S
H455 C450 0.929 . S
O456 Mn432 2.385 . S
O456 C434 1.234 . S
O457 Mn432 2.209 . S
O457 Mn433 2.215 . S
O457 C434 1.283 . S
O458 Mn432 2.094 . S
O458 C436 1.240 . S
O459 Mn433 2.117 . S
O459 C436 1.264 . S
C460 C453 1.403 . S
C460 C461 1.399 . S
C460 H466 0.929 . S
C461 C441 1.449 . S
C461 C460 1.399 . S
C461 H467 0.930 . S
H462 C442 0.931 . S
H463 C443 0.930 . S
H464 C451 0.931 . S
H465 C452 0.929 . S
H466 C460 0.929 . S
H467 C461 0.930 . S
Mn468 O473 2.095 . S
Mn468 O483 2.162 . S
Mn468 O484 2.297 . S
Mn468 O492 2.385 . S
Mn468 O493 2.209 . S
Mn468 O494 2.094 . S
Mn469 O474 2.121 . S
Mn469 N476 2.257 . S
Mn469 N485 2.282 . S
Mn469 O493 2.215 . S
Mn469 O495 2.117 . S
C470 O492 1.234 . S
C470 O493 1.283 . S
C471 O483 1.281 . S
C471 O484 1.236 . S
C472 O494 1.240 . S
C472 O495 1.264 . S
O473 Mn468 2.095 . S
O473 C482 1.250 . S
O474 Mn469 2.121 . S
O474 C482 1.258 . S
C475 N476 1.326 . S
C475 C479 1.460 . S
C475 H481 0.929 . S
N476 Mn469 2.257 . S
N476 C475 1.326 . S
N476 C480 1.362 . S
C477 C478 1.258 . S
C477 C480 1.431 . S
C477 C497 1.449 . S
C478 C477 1.258 . S
C478 C479 1.477 . S
C478 H498 0.931 . S
C479 C475 1.460 . S
C479 C478 1.477 . S
C479 H499 0.930 . S
C480 N476 1.362 . S
C480 C477 1.431 . S
C480 C490 1.476 . S
H481 C475 0.929 . S
C482 O473 1.250 . S
C482 O474 1.258 . S
O483 Mn468 2.162 . S
O483 C471 1.281 . S
O484 Mn468 2.297 . S
O484 C471 1.236 . S
N485 Mn469 2.282 . S
N485 C486 1.328 . S
N485 C490 1.318 . S
C486 N485 1.328 . S
C486 C487 1.457 . S
C486 H491 0.929 . S
C487 C486 1.457 . S
C487 C488 1.291 . S
C487 H500 0.931 . S
C488 C487 1.291 . S
C488 C489 1.373 . S
C488 H501 0.929 . S
C489 C488 1.373 . S
C489 C490 1.396 . S
C489 C496 1.403 . S
C490 C480 1.476 . S
C490 N485 1.318 . S
C490 C489 1.396 . S
H491 C486 0.929 . S
O492 Mn468 2.385 . S
O492 C470 1.234 . S
O493 Mn468 2.209 . S
O493 Mn469 2.215 . S
O493 C470 1.283 . S
O494 Mn468 2.094 . S
O494 C472 1.240 . S
O495 Mn469 2.117 . S
O495 C472 1.264 . S
C496 C489 1.403 . S
C496 C497 1.399 . S
C496 H502 0.929 . S
C497 C477 1.449 . S
C497 C496 1.399 . S
C497 H503 0.930 . S
H498 C478 0.931 . S
H499 C479 0.930 . S
H500 C487 0.931 . S
H501 C488 0.929 . S
H502 C496 0.929 . S
H503 C497 0.930 . S
Mn504 O509 2.095 . S
Mn504 O519 2.162 . S
Mn504 O520 2.297 . S
Mn504 O528 2.385 . S
Mn504 O529 2.209 . S
Mn504 O530 2.094 . S
Mn505 O510 2.121 . S
Mn505 N512 2.257 . S
Mn505 N521 2.282 . S
Mn505 O529 2.215 . S
Mn505 O531 2.117 . S
C506 O528 1.234 . S
C506 O529 1.283 . S
C507 O519 1.281 . S
C507 O520 1.236 . S
C508 O530 1.240 . S
C508 O531 1.264 . S
O509 Mn504 2.095 . S
O509 C518 1.250 . S
O510 Mn505 2.121 . S
O510 C518 1.258 . S
C511 N512 1.326 . S
C511 C515 1.460 . S
C511 H517 0.929 . S
N512 Mn505 2.257 . S
N512 C511 1.326 . S
N512 C516 1.362 . S
C513 C514 1.258 . S
C513 C516 1.431 . S
C513 C533 1.449 . S
C514 C513 1.258 . S
C514 C515 1.477 . S
C514 H534 0.931 . S
C515 C511 1.460 . S
C515 C514 1.477 . S
C515 H535 0.930 . S
C516 N512 1.362 . S
C516 C513 1.431 . S
C516 C526 1.476 . S
H517 C511 0.929 . S
C518 O509 1.250 . S
C518 O510 1.258 . S
O519 Mn504 2.162 . S
O519 C507 1.281 . S
O520 Mn504 2.297 . S
O520 C507 1.236 . S
N521 Mn505 2.282 . S
N521 C522 1.328 . S
N521 C526 1.318 . S
C522 N521 1.328 . S
C522 C523 1.457 . S
C522 H527 0.929 . S
C523 C522 1.457 . S
C523 C524 1.291 . S
C523 H536 0.931 . S
C524 C523 1.291 . S
C524 C525 1.373 . S
C524 H537 0.929 . S
C525 C524 1.373 . S
C525 C526 1.396 . S
C525 C532 1.403 . S
C526 C516 1.476 . S
C526 N521 1.318 . S
C526 C525 1.396 . S
H527 C522 0.929 . S
O528 Mn504 2.385 . S
O528 C506 1.234 . S
O529 Mn504 2.209 . S
O529 Mn505 2.215 . S
O529 C506 1.283 . S
O530 Mn504 2.094 . S
O530 C508 1.240 . S
O531 Mn505 2.117 . S
O531 C508 1.264 . S
C532 C525 1.403 . S
C532 C533 1.399 . S
C532 H538 0.929 . S
C533 C513 1.449 . S
C533 C532 1.399 . S
C533 H539 0.930 . S
H534 C514 0.931 . S
H535 C515 0.930 . S
H536 C523 0.931 . S
H537 C524 0.929 . S
H538 C532 0.929 . S
H539 C533 0.930 . S
Mn540 O545 2.095 . S
Mn540 O555 2.162 . S
Mn540 O556 2.297 . S
Mn540 O564 2.385 . S
Mn540 O565 2.209 . S
Mn540 O566 2.094 . S
Mn541 O546 2.121 . S
Mn541 N548 2.257 . S
Mn541 N557 2.282 . S
Mn541 O565 2.215 . S
Mn541 O567 2.117 . S
C542 O564 1.234 . S
C542 O565 1.283 . S
C543 O555 1.281 . S
C543 O556 1.236 . S
C544 O566 1.240 . S
C544 O567 1.264 . S
O545 Mn540 2.095 . S
O545 C554 1.250 . S
O546 Mn541 2.121 . S
O546 C554 1.258 . S
C547 N548 1.326 . S
C547 C551 1.460 . S
C547 H553 0.929 . S
N548 Mn541 2.257 . S
N548 C547 1.326 . S
N548 C552 1.362 . S
C549 C550 1.258 . S
C549 C552 1.431 . S
C549 C569 1.449 . S
C550 C549 1.258 . S
C550 C551 1.477 . S
C550 H570 0.931 . S
C551 C547 1.460 . S
C551 C550 1.477 . S
C551 H571 0.930 . S
C552 N548 1.362 . S
C552 C549 1.431 . S
C552 C562 1.476 . S
H553 C547 0.929 . S
C554 O545 1.250 . S
C554 O546 1.258 . S
O555 Mn540 2.162 . S
O555 C543 1.281 . S
O556 Mn540 2.297 . S
O556 C543 1.236 . S
N557 Mn541 2.282 . S
N557 C558 1.328 . S
N557 C562 1.318 . S
C558 N557 1.328 . S
C558 C559 1.457 . S
C558 H563 0.929 . S
C559 C558 1.457 . S
C559 C560 1.291 . S
C559 H572 0.931 . S
C560 C559 1.291 . S
C560 C561 1.373 . S
C560 H573 0.929 . S
C561 C560 1.373 . S
C561 C562 1.396 . S
C561 C568 1.403 . S
C562 C552 1.476 . S
C562 N557 1.318 . S
C562 C561 1.396 . S
H563 C558 0.929 . S
O564 Mn540 2.385 . S
O564 C542 1.234 . S
O565 Mn540 2.209 . S
O565 Mn541 2.215 . S
O565 C542 1.283 . S
O566 Mn540 2.094 . S
O566 C544 1.240 . S
O567 Mn541 2.117 . S
O567 C544 1.264 . S
C568 C561 1.403 . S
C568 C569 1.399 . S
C568 H574 0.929 . S
C569 C549 1.449 . S
C569 C568 1.399 . S
C569 H575 0.930 . S
H570 C550 0.931 . S
H571 C551 0.930 . S
H572 C559 0.931 . S
H573 C560 0.929 . S
H574 C568 0.929 . S
H575 C569 0.930 . S
Mn576 O581 2.095 . S
Mn576 O591 2.162 . S
Mn576 O592 2.297 . S
Mn576 O600 2.385 . S
Mn576 O601 2.209 . S
Mn576 O602 2.094 . S
Mn577 O582 2.121 . S
Mn577 N584 2.257 . S
Mn577 N593 2.282 . S
Mn577 O601 2.215 . S
Mn577 O603 2.117 . S
C578 O600 1.234 . S
C578 O601 1.283 . S
C579 O591 1.281 . S
C579 O592 1.236 . S
C580 O602 1.240 . S
C580 O603 1.264 . S
O581 Mn576 2.095 . S
O581 C590 1.250 . S
O582 Mn577 2.121 . S
O582 C590 1.258 . S
C583 N584 1.326 . S
C583 C587 1.460 . S
C583 H589 0.929 . S
N584 Mn577 2.257 . S
N584 C583 1.326 . S
N584 C588 1.362 . S
C585 C586 1.258 . S
C585 C588 1.431 1_455 S
C585 C605 1.449 . S
C586 C585 1.258 . S
C586 C587 1.477 1_455 S
C586 H606 0.931 . S
C587 C583 1.460 . S
C587 C586 1.477 1_655 S
C587 H607 0.930 . S
C588 N584 1.362 . S
C588 C585 1.431 1_655 S
C588 C598 1.476 . S
H589 C583 0.929 . S
C590 O581 1.250 . S
C590 O582 1.258 . S
O591 Mn576 2.162 . S
O591 C579 1.281 . S
O592 Mn576 2.297 . S
O592 C579 1.236 . S
N593 Mn577 2.282 . S
N593 C594 1.328 . S
N593 C598 1.318 . S
C594 N593 1.328 . S
C594 C595 1.457 . S
C594 H599 0.929 . S
C595 C594 1.457 . S
C595 C596 1.291 1_655 S
C595 H608 0.931 . S
C596 C595 1.291 1_455 S
C596 C597 1.373 . S
C596 H609 0.929 . S
C597 C596 1.373 . S
C597 C598 1.396 1_455 S
C597 C604 1.403 . S
C598 C588 1.476 . S
C598 N593 1.318 . S
C598 C597 1.396 1_655 S
H599 C594 0.929 . S
O600 Mn576 2.385 . S
O600 C578 1.234 . S
O601 Mn576 2.209 . S
O601 Mn577 2.215 . S
O601 C578 1.283 . S
O602 Mn576 2.094 . S
O602 C580 1.240 . S
O603 Mn577 2.117 . S
O603 C580 1.264 . S
C604 C597 1.403 . S
C604 C605 1.399 . S
C604 H610 0.929 . S
C605 C585 1.449 . S
C605 C604 1.399 . S
C605 H611 0.930 . S
H606 C586 0.931 . S
H607 C587 0.930 . S
H608 C595 0.931 . S
H609 C596 0.929 . S
H610 C604 0.929 . S
H611 C605 0.930 . S
Mn612 O617 2.095 . S
Mn612 O627 2.162 . S
Mn612 O628 2.297 . S
Mn612 O636 2.385 . S
Mn612 O637 2.209 . S
Mn612 O638 2.094 . S
Mn613 O618 2.121 . S
Mn613 N620 2.257 . S
Mn613 N629 2.282 . S
Mn613 O637 2.215 . S
Mn613 O639 2.117 . S
C614 O636 1.234 . S
C614 O637 1.283 . S
C615 O627 1.281 . S
C615 O628 1.236 . S
C616 O638 1.240 . S
C616 O639 1.264 . S
O617 Mn612 2.095 . S
O617 C626 1.250 . S
O618 Mn613 2.121 . S
O618 C626 1.258 . S
C619 N620 1.326 . S
C619 C623 1.460 . S
C619 H625 0.929 . S
N620 Mn613 2.257 . S
N620 C619 1.326 . S
N620 C624 1.362 . S
C621 C622 1.258 . S
C621 C624 1.431 . S
C621 C641 1.449 . S
C622 C621 1.258 . S
C622 C623 1.477 . S
C622 H642 0.931 . S
C623 C619 1.460 . S
C623 C622 1.477 . S
C623 H643 0.930 . S
C624 N620 1.362 . S
C624 C621 1.431 . S
C624 C634 1.476 . S
H625 C619 0.929 . S
C626 O617 1.250 . S
C626 O618 1.258 . S
O627 Mn612 2.162 . S
O627 C615 1.281 . S
O628 Mn612 2.297 . S
O628 C615 1.236 . S
N629 Mn613 2.282 . S
N629 C630 1.328 . S
N629 C634 1.318 . S
C630 N629 1.328 . S
C630 C631 1.457 . S
C630 H635 0.929 . S
C631 C630 1.457 . S
C631 C632 1.291 . S
C631 H644 0.931 . S
C632 C631 1.291 . S
C632 C633 1.373 . S
C632 H645 0.929 . S
C633 C632 1.373 . S
C633 C634 1.396 . S
C633 C640 1.403 . S
C634 C624 1.476 . S
C634 N629 1.318 . S
C634 C633 1.396 . S
H635 C630 0.929 . S
O636 Mn612 2.385 . S
O636 C614 1.234 . S
O637 Mn612 2.209 . S
O637 Mn613 2.215 . S
O637 C614 1.283 . S
O638 Mn612 2.094 . S
O638 C616 1.240 . S
O639 Mn613 2.117 . S
O639 C616 1.264 . S
C640 C633 1.403 . S
C640 C641 1.399 . S
C640 H646 0.929 . S
C641 C621 1.449 . S
C641 C640 1.399 . S
C641 H647 0.930 . S
H642 C622 0.931 . S
H643 C623 0.930 . S
H644 C631 0.931 . S
H645 C632 0.929 . S
H646 C640 0.929 . S
H647 C641 0.930 . S
Mn648 O653 2.095 . S
Mn648 O663 2.162 . S
Mn648 O664 2.297 . S
Mn648 O672 2.385 . S
Mn648 O673 2.209 . S
Mn648 O674 2.094 . S
Mn649 O654 2.121 . S
Mn649 N656 2.257 . S
Mn649 N665 2.282 . S
Mn649 O673 2.215 . S
Mn649 O675 2.117 . S
C650 O672 1.234 . S
C650 O673 1.283 . S
C651 O663 1.281 . S
C651 O664 1.236 . S
C652 O674 1.240 . S
C652 O675 1.264 . S
O653 Mn648 2.095 . S
O653 C662 1.250 . S
O654 Mn649 2.121 . S
O654 C662 1.258 . S
C655 N656 1.326 . S
C655 C659 1.460 . S
C655 H661 0.929 . S
N656 Mn649 2.257 . S
N656 C655 1.326 . S
N656 C660 1.362 . S
C657 C658 1.258 . S
C657 C660 1.431 . S
C657 C677 1.449 . S
C658 C657 1.258 . S
C658 C659 1.477 . S
C658 H678 0.931 . S
C659 C655 1.460 . S
C659 C658 1.477 . S
C659 H679 0.930 . S
C660 N656 1.362 . S
C660 C657 1.431 . S
C660 C670 1.476 . S
H661 C655 0.929 . S
C662 O653 1.250 . S
C662 O654 1.258 . S
O663 Mn648 2.162 . S
O663 C651 1.281 . S
O664 Mn648 2.297 . S
O664 C651 1.236 . S
N665 Mn649 2.282 . S
N665 C666 1.328 . S
N665 C670 1.318 . S
C666 N665 1.328 . S
C666 C667 1.457 . S
C666 H671 0.929 . S
C667 C666 1.457 . S
C667 C668 1.291 . S
C667 H680 0.931 . S
C668 C667 1.291 . S
C668 C669 1.373 . S
C668 H681 0.929 . S
C669 C668 1.373 . S
C669 C670 1.396 . S
C669 C676 1.403 . S
C670 C660 1.476 . S
C670 N665 1.318 . S
C670 C669 1.396 . S
H671 C666 0.929 . S
O672 Mn648 2.385 . S
O672 C650 1.234 . S
O673 Mn648 2.209 . S
O673 Mn649 2.215 . S
O673 C650 1.283 . S
O674 Mn648 2.094 . S
O674 C652 1.240 . S
O675 Mn649 2.117 . S
O675 C652 1.264 . S
C676 C669 1.403 . S
C676 C677 1.399 . S
C676 H682 0.929 . S
C677 C657 1.449 . S
C677 C676 1.399 . S
C677 H683 0.930 . S
H678 C658 0.931 . S
H679 C659 0.930 . S
H680 C667 0.931 . S
H681 C668 0.929 . S
H682 C676 0.929 . S
H683 C677 0.930 . S
Mn684 O689 2.095 . S
Mn684 O699 2.162 . S
Mn684 O700 2.297 . S
Mn684 O708 2.385 . S
Mn684 O709 2.209 . S
Mn684 O710 2.094 . S
Mn685 O690 2.121 . S
Mn685 N692 2.257 . S
Mn685 N701 2.282 . S
Mn685 O709 2.215 . S
Mn685 O711 2.117 . S
C686 O708 1.234 . S
C686 O709 1.283 . S
C687 O699 1.281 . S
C687 O700 1.236 . S
C688 O710 1.240 . S
C688 O711 1.264 . S
O689 Mn684 2.095 . S
O689 C698 1.250 . S
O690 Mn685 2.121 . S
O690 C698 1.258 . S
C691 N692 1.326 . S
C691 C695 1.460 . S
C691 H697 0.929 . S
N692 Mn685 2.257 . S
N692 C691 1.326 . S
N692 C696 1.362 . S
C693 C694 1.258 . S
C693 C696 1.431 . S
C693 C713 1.449 . S
C694 C693 1.258 . S
C694 C695 1.477 . S
C694 H714 0.931 . S
C695 C691 1.460 . S
C695 C694 1.477 . S
C695 H715 0.930 . S
C696 N692 1.362 . S
C696 C693 1.431 . S
C696 C706 1.476 . S
H697 C691 0.929 . S
C698 O689 1.250 . S
C698 O690 1.258 . S
O699 Mn684 2.162 . S
O699 C687 1.281 . S
O700 Mn684 2.297 . S
O700 C687 1.236 . S
N701 Mn685 2.282 . S
N701 C702 1.328 . S
N701 C706 1.318 . S
C702 N701 1.328 . S
C702 C703 1.457 . S
C702 H707 0.929 . S
C703 C702 1.457 . S
C703 C704 1.291 . S
C703 H716 0.931 . S
C704 C703 1.291 . S
C704 C705 1.373 . S
C704 H717 0.929 . S
C705 C704 1.373 . S
C705 C706 1.396 . S
C705 C712 1.403 . S
C706 C696 1.476 . S
C706 N701 1.318 . S
C706 C705 1.396 . S
H707 C702 0.929 . S
O708 Mn684 2.385 . S
O708 C686 1.234 . S
O709 Mn684 2.209 . S
O709 Mn685 2.215 . S
O709 C686 1.283 . S
O710 Mn684 2.094 . S
O710 C688 1.240 . S
O711 Mn685 2.117 . S
O711 C688 1.264 . S
C712 C705 1.403 . S
C712 C713 1.399 . S
C712 H718 0.929 . S
C713 C693 1.449 . S
C713 C712 1.399 . S
C713 H719 0.930 . S
H714 C694 0.931 . S
H715 C695 0.930 . S
H716 C703 0.931 . S
H717 C704 0.929 . S
H718 C712 0.929 . S
H719 C713 0.930 . S
Mn720 O725 2.095 . S
Mn720 O735 2.162 . S
Mn720 O736 2.297 . S
Mn720 O744 2.385 . S
Mn720 O745 2.209 . S
Mn720 O746 2.094 . S
Mn721 O726 2.121 . S
Mn721 N728 2.257 . S
Mn721 N737 2.282 . S
Mn721 O745 2.215 . S
Mn721 O747 2.117 . S
C722 O744 1.234 . S
C722 O745 1.283 . S
C723 O735 1.281 . S
C723 O736 1.236 . S
C724 O746 1.240 . S
C724 O747 1.264 . S
O725 Mn720 2.095 . S
O725 C734 1.250 . S
O726 Mn721 2.121 . S
O726 C734 1.258 . S
C727 N728 1.326 . S
C727 C731 1.460 . S
C727 H733 0.929 . S
N728 Mn721 2.257 . S
N728 C727 1.326 . S
N728 C732 1.362 . S
C729 C730 1.258 . S
C729 C732 1.431 . S
C729 C749 1.449 . S
C730 C729 1.258 . S
C730 C731 1.477 . S
C730 H750 0.931 . S
C731 C727 1.460 . S
C731 C730 1.477 . S
C731 H751 0.930 . S
C732 N728 1.362 . S
C732 C729 1.431 . S
C732 C742 1.476 . S
H733 C727 0.929 . S
C734 O725 1.250 . S
C734 O726 1.258 . S
O735 Mn720 2.162 . S
O735 C723 1.281 . S
O736 Mn720 2.297 . S
O736 C723 1.236 . S
N737 Mn721 2.282 . S
N737 C738 1.328 . S
N737 C742 1.318 . S
C738 N737 1.328 . S
C738 C739 1.457 . S
C738 H743 0.929 . S
C739 C738 1.457 . S
C739 C740 1.291 . S
C739 H752 0.931 . S
C740 C739 1.291 . S
C740 C741 1.373 . S
C740 H753 0.929 . S
C741 C740 1.373 . S
C741 C742 1.396 . S
C741 C748 1.403 . S
C742 C732 1.476 . S
C742 N737 1.318 . S
C742 C741 1.396 . S
H743 C738 0.929 . S
O744 Mn720 2.385 . S
O744 C722 1.234 . S
O745 Mn720 2.209 . S
O745 Mn721 2.215 . S
O745 C722 1.283 . S
O746 Mn720 2.094 . S
O746 C724 1.240 . S
O747 Mn721 2.117 . S
O747 C724 1.264 . S
C748 C741 1.403 . S
C748 C749 1.399 . S
C748 H754 0.929 . S
C749 C729 1.449 . S
C749 C748 1.399 . S
C749 H755 0.930 . S
H750 C730 0.931 . S
H751 C731 0.930 . S
H752 C739 0.931 . S
H753 C740 0.929 . S
H754 C748 0.929 . S
H755 C749 0.930 . S
Mn756 O761 2.095 . S
Mn756 O771 2.162 . S
Mn756 O772 2.297 . S
Mn756 O780 2.385 . S
Mn756 O781 2.209 . S
Mn756 O782 2.094 . S
Mn757 O762 2.121 . S
Mn757 N764 2.257 . S
Mn757 N773 2.282 . S
Mn757 O781 2.215 . S
Mn757 O783 2.117 . S
C758 O780 1.234 . S
C758 O781 1.283 . S
C759 O771 1.281 . S
C759 O772 1.236 . S
C760 O782 1.240 . S
C760 O783 1.264 . S
O761 Mn756 2.095 . S
O761 C770 1.250 . S
O762 Mn757 2.121 . S
O762 C770 1.258 . S
C763 N764 1.326 . S
C763 C767 1.460 . S
C763 H769 0.929 . S
N764 Mn757 2.257 . S
N764 C763 1.326 . S
N764 C768 1.362 . S
C765 C766 1.258 . S
C765 C768 1.431 . S
C765 C785 1.449 . S
C766 C765 1.258 . S
C766 C767 1.477 . S
C766 H786 0.931 . S
C767 C763 1.460 . S
C767 C766 1.477 . S
C767 H787 0.930 . S
C768 N764 1.362 . S
C768 C765 1.431 . S
C768 C778 1.476 . S
H769 C763 0.929 . S
C770 O761 1.250 . S
C770 O762 1.258 . S
O771 Mn756 2.162 . S
O771 C759 1.281 . S
O772 Mn756 2.297 . S
O772 C759 1.236 . S
N773 Mn757 2.282 . S
N773 C774 1.328 . S
N773 C778 1.318 . S
C774 N773 1.328 . S
C774 C775 1.457 . S
C774 H779 0.929 . S
C775 C774 1.457 . S
C775 C776 1.291 . S
C775 H788 0.931 . S
C776 C775 1.291 . S
C776 C777 1.373 . S
C776 H789 0.929 . S
C777 C776 1.373 . S
C777 C778 1.396 . S
C777 C784 1.403 . S
C778 C768 1.476 . S
C778 N773 1.318 . S
C778 C777 1.396 . S
H779 C774 0.929 . S
O780 Mn756 2.385 . S
O780 C758 1.234 . S
O781 Mn756 2.209 . S
O781 Mn757 2.215 . S
O781 C758 1.283 . S
O782 Mn756 2.094 . S
O782 C760 1.240 . S
O783 Mn757 2.117 . S
O783 C760 1.264 . S
C784 C777 1.403 . S
C784 C785 1.399 . S
C784 H790 0.929 . S
C785 C765 1.449 . S
C785 C784 1.399 . S
C785 H791 0.930 . S
H786 C766 0.931 . S
H787 C767 0.930 . S
H788 C775 0.931 . S
H789 C776 0.929 . S
H790 C784 0.929 . S
H791 C785 0.930 . S
Mn792 O797 2.095 . S
Mn792 O807 2.162 . S
Mn792 O808 2.297 . S
Mn792 O816 2.385 . S
Mn792 O817 2.209 . S
Mn792 O818 2.094 . S
Mn793 O798 2.121 . S
Mn793 N800 2.257 . S
Mn793 N809 2.282 . S
Mn793 O817 2.215 . S
Mn793 O819 2.117 . S
C794 O816 1.234 . S
C794 O817 1.283 . S
C795 O807 1.281 . S
C795 O808 1.236 . S
C796 O818 1.240 . S
C796 O819 1.264 . S
O797 Mn792 2.095 . S
O797 C806 1.250 . S
O798 Mn793 2.121 . S
O798 C806 1.258 . S
C799 N800 1.326 . S
C799 C803 1.460 . S
C799 H805 0.929 . S
N800 Mn793 2.257 . S
N800 C799 1.326 . S
N800 C804 1.362 . S
C801 C802 1.258 . S
C801 C804 1.431 1_455 S
C801 C821 1.449 . S
C802 C801 1.258 . S
C802 C803 1.477 1_455 S
C802 H822 0.931 . S
C803 C799 1.460 . S
C803 C802 1.477 1_655 S
C803 H823 0.930 . S
C804 N800 1.362 . S
C804 C801 1.431 1_655 S
C804 C814 1.476 . S
H805 C799 0.929 . S
C806 O797 1.250 . S
C806 O798 1.258 . S
O807 Mn792 2.162 . S
O807 C795 1.281 . S
O808 Mn792 2.297 . S
O808 C795 1.236 . S
N809 Mn793 2.282 . S
N809 C810 1.328 . S
N809 C814 1.318 . S
C810 N809 1.328 . S
C810 C811 1.457 . S
C810 H815 0.929 . S
C811 C810 1.457 . S
C811 C812 1.291 1_655 S
C811 H824 0.931 . S
C812 C811 1.291 1_455 S
C812 C813 1.373 . S
C812 H825 0.929 . S
C813 C812 1.373 . S
C813 C814 1.396 1_455 S
C813 C820 1.403 . S
C814 C804 1.476 . S
C814 N809 1.318 . S
C814 C813 1.396 1_655 S
H815 C810 0.929 . S
O816 Mn792 2.385 . S
O816 C794 1.234 . S
O817 Mn792 2.209 . S
O817 Mn793 2.215 . S
O817 C794 1.283 . S
O818 Mn792 2.094 . S
O818 C796 1.240 . S
O819 Mn793 2.117 . S
O819 C796 1.264 . S
C820 C813 1.403 . S
C820 C821 1.399 . S
C820 H826 0.929 . S
C821 C801 1.449 . S
C821 C820 1.399 . S
C821 H827 0.930 . S
H822 C802 0.931 . S
H823 C803 0.930 . S
H824 C811 0.931 . S
H825 C812 0.929 . S
H826 C820 0.929 . S
H827 C821 0.930 . S
Mn828 O833 2.095 . S
Mn828 O843 2.162 . S
Mn828 O844 2.297 . S
Mn828 O852 2.385 . S
Mn828 O853 2.209 . S
Mn828 O854 2.094 . S
Mn829 O834 2.121 . S
Mn829 N836 2.257 . S
Mn829 N845 2.282 . S
Mn829 O853 2.215 . S
Mn829 O855 2.117 . S
C830 O852 1.234 . S
C830 O853 1.283 . S
C831 O843 1.281 . S
C831 O844 1.236 . S
C832 O854 1.240 . S
C832 O855 1.264 . S
O833 Mn828 2.095 . S
O833 C842 1.250 . S
O834 Mn829 2.121 . S
O834 C842 1.258 . S
C835 N836 1.326 . S
C835 C839 1.460 . S
C835 H841 0.929 . S
N836 Mn829 2.257 . S
N836 C835 1.326 . S
N836 C840 1.362 . S
C837 C838 1.258 . S
C837 C840 1.431 . S
C837 C857 1.449 . S
C838 C837 1.258 . S
C838 C839 1.477 . S
C838 H858 0.931 . S
C839 C835 1.460 . S
C839 C838 1.477 . S
C839 H859 0.930 . S
C840 N836 1.362 . S
C840 C837 1.431 . S
C840 C850 1.476 . S
H841 C835 0.929 . S
C842 O833 1.250 . S
C842 O834 1.258 . S
O843 Mn828 2.162 . S
O843 C831 1.281 . S
O844 Mn828 2.297 . S
O844 C831 1.236 . S
N845 Mn829 2.282 . S
N845 C846 1.328 . S
N845 C850 1.318 . S
C846 N845 1.328 . S
C846 C847 1.457 . S
C846 H851 0.929 . S
C847 C846 1.457 . S
C847 C848 1.291 . S
C847 H860 0.931 . S
C848 C847 1.291 . S
C848 C849 1.373 . S
C848 H861 0.929 . S
C849 C848 1.373 . S
C849 C850 1.396 . S
C849 C856 1.403 . S
C850 C840 1.476 . S
C850 N845 1.318 . S
C850 C849 1.396 . S
H851 C846 0.929 . S
O852 Mn828 2.385 . S
O852 C830 1.234 . S
O853 Mn828 2.209 . S
O853 Mn829 2.215 . S
O853 C830 1.283 . S
O854 Mn828 2.094 . S
O854 C832 1.240 . S
O855 Mn829 2.117 . S
O855 C832 1.264 . S
C856 C849 1.403 . S
C856 C857 1.399 . S
C856 H862 0.929 . S
C857 C837 1.449 . S
C857 C856 1.399 . S
C857 H863 0.930 . S
H858 C838 0.931 . S
H859 C839 0.930 . S
H860 C847 0.931 . S
H861 C848 0.929 . S
H862 C856 0.929 . S
H863 C857 0.930 . S
Mn864 O869 2.095 . S
Mn864 O879 2.162 . S
Mn864 O880 2.297 . S
Mn864 O888 2.385 . S
Mn864 O889 2.209 . S
Mn864 O890 2.094 . S
Mn865 O870 2.121 . S
Mn865 N872 2.257 . S
Mn865 N881 2.282 . S
Mn865 O889 2.215 . S
Mn865 O891 2.117 . S
C866 O888 1.234 . S
C866 O889 1.283 . S
C867 O879 1.281 . S
C867 O880 1.236 . S
C868 O890 1.240 . S
C868 O891 1.264 . S
O869 Mn864 2.095 . S
O869 C878 1.250 . S
O870 Mn865 2.121 . S
O870 C878 1.258 . S
C871 N872 1.326 . S
C871 C875 1.460 . S
C871 H877 0.929 . S
N872 Mn865 2.257 . S
N872 C871 1.326 . S
N872 C876 1.362 . S
C873 C874 1.258 . S
C873 C876 1.431 . S
C873 C893 1.449 . S
C874 C873 1.258 . S
C874 C875 1.477 . S
C874 H894 0.931 . S
C875 C871 1.460 . S
C875 C874 1.477 . S
C875 H895 0.885 1_565 S
C876 N872 1.362 . S
C876 C873 1.431 . S
C876 C886 1.476 . S
H877 C871 0.929 . S
C878 O869 1.250 . S
C878 O870 1.258 . S
O879 Mn864 2.162 . S
O879 C867 1.281 . S
O880 Mn864 2.297 . S
O880 C867 1.236 . S
N881 Mn865 2.282 . S
N881 C882 1.328 . S
N881 C886 1.318 . S
C882 N881 1.328 . S
C882 C883 1.457 . S
C882 H887 0.929 . S
C883 C882 1.457 . S
C883 C884 1.291 . S
C883 H896 0.931 . S
C884 C883 1.291 . S
C884 C885 1.373 . S
C884 H897 0.929 . S
C885 C884 1.373 . S
C885 C886 1.396 . S
C885 C892 1.403 . S
C886 C876 1.476 . S
C886 N881 1.318 . S
C886 C885 1.396 . S
H887 C882 0.929 . S
O888 Mn864 2.385 . S
O888 C866 1.234 . S
O889 Mn864 2.209 . S
O889 Mn865 2.215 . S
O889 C866 1.283 . S
O890 Mn864 2.094 . S
O890 C868 1.240 . S
O891 Mn865 2.117 . S
O891 C868 1.264 . S
C892 C885 1.403 . S
C892 C893 1.399 . S
C892 H898 0.929 . S
C893 C873 1.449 . S
C893 C892 1.399 . S
C893 H899 0.930 . S
H894 C874 0.931 . S
H895 C875 0.885 1_545 S
H896 C883 0.931 . S
H897 C884 0.929 . S
H898 C892 0.929 . S
H899 C893 0.930 . S
Mn900 O905 2.095 . S
Mn900 O915 2.162 . S
Mn900 O916 2.297 . S
Mn900 O924 2.385 . S
Mn900 O925 2.209 . S
Mn900 O926 2.094 . S
Mn901 O906 2.121 . S
Mn901 N908 2.257 . S
Mn901 N917 2.282 . S
Mn901 O925 2.215 . S
Mn901 O927 2.117 . S
C902 O924 1.234 . S
C902 O925 1.283 . S
C903 O915 1.281 . S
C903 O916 1.236 . S
C904 O926 1.240 . S
C904 O927 1.264 . S
O905 Mn900 2.095 . S
O905 C914 1.250 . S
O906 Mn901 2.121 . S
O906 C914 1.258 . S
C907 N908 1.326 . S
C907 C911 1.460 . S
C907 H913 0.929 . S
N908 Mn901 2.257 . S
N908 C907 1.326 . S
N908 C912 1.362 . S
C909 C910 1.258 . S
C909 C912 1.431 . S
C909 C929 1.449 . S
C910 C909 1.258 . S
C910 C911 1.477 . S
C910 H930 0.931 . S
C911 C907 1.460 . S
C911 C910 1.477 . S
C911 H931 0.900 1_545 S
C912 N908 1.362 . S
C912 C909 1.431 . S
C912 C922 1.476 . S
H913 C907 0.929 . S
C914 O905 1.250 . S
C914 O906 1.258 . S
O915 Mn900 2.162 . S
O915 C903 1.281 . S
O916 Mn900 2.297 . S
O916 C903 1.236 . S
N917 Mn901 2.282 . S
N917 C918 1.328 . S
N917 C922 1.318 . S
C918 N917 1.328 . S
C918 C919 1.457 . S
C918 H923 0.929 . S
C919 C918 1.457 . S
C919 C920 1.291 . S
C919 H932 0.931 . S
C920 C919 1.291 . S
C920 C921 1.373 . S
C920 H933 0.929 . S
C921 C920 1.373 . S
C921 C922 1.396 . S
C921 C928 1.403 . S
C922 C912 1.476 . S
C922 N917 1.318 . S
C922 C921 1.396 . S
H923 C918 0.929 . S
O924 Mn900 2.385 . S
O924 C902 1.234 . S
O925 Mn900 2.209 . S
O925 Mn901 2.215 . S
O925 C902 1.283 . S
O926 Mn900 2.094 . S
O926 C904 1.240 . S
O927 Mn901 2.117 . S
O927 C904 1.264 . S
C928 C921 1.403 . S
C928 C929 1.399 . S
C928 H934 0.929 . S
C929 C909 1.449 . S
C929 C928 1.399 . S
C929 H935 0.930 . S
H930 C910 0.931 . S
H931 C911 0.900 1_565 S
H932 C919 0.931 . S
H933 C920 0.929 . S
H934 C928 0.929 . S
H935 C929 0.930 . S
Mn936 O941 2.095 . S
Mn936 O951 2.162 . S
Mn936 O952 2.297 . S
Mn936 O960 2.385 . S
Mn936 O961 2.209 . S
Mn936 O962 2.094 . S
Mn937 O942 2.121 . S
Mn937 N944 2.257 . S
Mn937 N953 2.282 . S
Mn937 O961 2.215 . S
Mn937 O963 2.117 . S
C938 O960 1.234 . S
C938 O961 1.283 . S
C939 O951 1.281 . S
C939 O952 1.236 . S
C940 O962 1.240 . S
C940 O963 1.264 . S
O941 Mn936 2.095 . S
O941 C950 1.250 . S
O942 Mn937 2.121 . S
O942 C950 1.258 . S
C943 N944 1.326 . S
C943 C947 1.460 . S
C943 H949 0.929 . S
N944 Mn937 2.257 . S
N944 C943 1.326 . S
N944 C948 1.362 . S
C945 C946 1.258 . S
C945 C948 1.431 . S
C945 C965 1.449 . S
C946 C945 1.258 . S
C946 C947 1.477 . S
C946 H966 0.931 . S
C947 C943 1.460 . S
C947 C946 1.477 . S
C947 H967 0.930 1_565 S
C948 N944 1.362 . S
C948 C945 1.431 . S
C948 C958 1.476 . S
H949 C943 0.929 . S
C950 O941 1.250 . S
C950 O942 1.258 . S
O951 Mn936 2.162 . S
O951 C939 1.281 . S
O952 Mn936 2.297 . S
O952 C939 1.236 . S
N953 Mn937 2.282 . S
N953 C954 1.328 . S
N953 C958 1.318 . S
C954 N953 1.328 . S
C954 C955 1.457 . S
C954 H959 0.929 . S
C955 C954 1.457 . S
C955 C956 1.291 . S
C955 H968 0.931 . S
C956 C955 1.291 . S
C956 C957 1.373 . S
C956 H969 0.929 . S
C957 C956 1.373 . S
C957 C958 1.396 . S
C957 C964 1.403 . S
C958 C948 1.476 . S
C958 N953 1.318 . S
C958 C957 1.396 . S
H959 C954 0.929 . S
O960 Mn936 2.385 . S
O960 C938 1.234 . S
O961 Mn936 2.209 . S
O961 Mn937 2.215 . S
O961 C938 1.283 . S
O962 Mn936 2.094 . S
O962 C940 1.240 . S
O963 Mn937 2.117 . S
O963 C940 1.264 . S
C964 C957 1.403 . S
C964 C965 1.399 . S
C964 H970 0.929 . S
C965 C945 1.449 . S
C965 C964 1.399 . S
C965 H971 0.930 . S
H966 C946 0.931 . S
H967 C947 0.930 1_545 S
H968 C955 0.931 . S
H969 C956 0.929 . S
H970 C964 0.929 . S
H971 C965 0.930 . S
Mn972 O977 2.095 . S
Mn972 O987 2.162 . S
Mn972 O988 2.297 . S
Mn972 O996 2.385 . S
Mn972 O997 2.209 . S
Mn972 O998 2.094 . S
Mn973 O978 2.121 . S
Mn973 N980 2.257 . S
Mn973 N989 2.282 . S
Mn973 O997 2.215 . S
Mn973 O999 2.117 . S
C974 O996 1.234 . S
C974 O997 1.283 . S
C975 O987 1.281 . S
C975 O988 1.236 . S
C976 O998 1.240 . S
C976 O999 1.264 . S
O977 Mn972 2.095 . S
O977 C986 1.250 . S
O978 Mn973 2.121 . S
O978 C986 1.258 . S
C979 N980 1.326 . S
C979 C983 1.460 . S
C979 H985 0.929 . S
N980 Mn973 2.257 . S
N980 C979 1.326 . S
N980 C984 1.362 . S
C981 C982 1.258 . S
C981 C984 1.431 . S
C981 C1001 1.449 . S
C982 C981 1.258 . S
C982 C983 1.477 . S
C982 H1002 0.931 . S
C983 C979 1.460 . S
C983 C982 1.477 . S
C983 H1003 0.930 . S
C984 N980 1.362 . S
C984 C981 1.431 . S
C984 C994 1.476 . S
H985 C979 0.929 . S
C986 O977 1.250 . S
C986 O978 1.258 . S
O987 Mn972 2.162 . S
O987 C975 1.281 . S
O988 Mn972 2.297 . S
O988 C975 1.236 . S
N989 Mn973 2.282 . S
N989 C990 1.328 . S
N989 C994 1.318 . S
C990 N989 1.328 . S
C990 C991 1.457 . S
C990 H995 0.929 . S
C991 C990 1.457 . S
C991 C992 1.291 . S
C991 H1004 0.931 . S
C992 C991 1.291 . S
C992 C993 1.373 . S
C992 H1005 0.929 . S
C993 C992 1.373 . S
C993 C994 1.396 . S
C993 C1000 1.403 . S
C994 C984 1.476 . S
C994 N989 1.318 . S
C994 C993 1.396 . S
H995 C990 0.929 . S
O996 Mn972 2.385 . S
O996 C974 1.234 . S
O997 Mn972 2.209 . S
O997 Mn973 2.215 . S
O997 C974 1.283 . S
O998 Mn972 2.094 . S
O998 C976 1.240 . S
O999 Mn973 2.117 . S
O999 C976 1.264 . S
C1000 C993 1.403 . S
C1000 C1001 1.399 . S
C1000 H1006 0.929 . S
C1001 C981 1.449 . S
C1001 C1000 1.399 . S
C1001 H1007 0.930 . S
H1002 C982 0.931 . S
H1003 C983 0.930 . S
H1004 C991 0.931 . S
H1005 C992 0.929 . S
H1006 C1000 0.929 . S
H1007 C1001 0.930 . S
Mn1008 O1013 2.095 . S
Mn1008 O1023 2.162 . S
Mn1008 O1024 2.297 . S
Mn1008 O1032 2.385 . S
Mn1008 O1033 2.209 . S
Mn1008 O1034 2.094 . S
Mn1009 O1014 2.121 . S
Mn1009 N1016 2.257 . S
Mn1009 N1025 2.282 . S
Mn1009 O1033 2.215 . S
Mn1009 O1035 2.117 . S
C1010 O1032 1.234 . S
C1010 O1033 1.283 . S
C1011 O1023 1.281 . S
C1011 O1024 1.236 . S
C1012 O1034 1.240 . S
C1012 O1035 1.264 . S
O1013 Mn1008 2.095 . S
O1013 C1022 1.250 . S
O1014 Mn1009 2.121 . S
O1014 C1022 1.258 . S
C1015 N1016 1.326 . S
C1015 C1019 1.460 . S
C1015 H1021 0.929 . S
N1016 Mn1009 2.257 . S
N1016 C1015 1.326 . S
N1016 C1020 1.362 . S
C1017 C1018 1.258 . S
C1017 C1020 1.431 . S
C1017 C1037 1.449 . S
C1018 C1017 1.258 . S
C1018 C1019 1.477 . S
C1018 H1038 0.931 . S
C1019 C1015 1.460 . S
C1019 C1018 1.477 . S
C1019 H1039 0.930 . S
C1020 N1016 1.362 . S
C1020 C1017 1.431 . S
C1020 C1030 1.476 . S
H1021 C1015 0.929 . S
C1022 O1013 1.250 . S
C1022 O1014 1.258 . S
O1023 Mn1008 2.162 . S
O1023 C1011 1.281 . S
O1024 Mn1008 2.297 . S
O1024 C1011 1.236 . S
N1025 Mn1009 2.282 . S
N1025 C1026 1.328 . S
N1025 C1030 1.318 . S
C1026 N1025 1.328 . S
C1026 C1027 1.457 . S
C1026 H1031 0.929 . S
C1027 C1026 1.457 . S
C1027 C1028 1.291 . S
C1027 H1040 0.931 . S
C1028 C1027 1.291 . S
C1028 C1029 1.373 . S
C1028 H1041 0.929 . S
C1029 C1028 1.373 . S
C1029 C1030 1.396 . S
C1029 C1036 1.403 . S
C1030 C1020 1.476 . S
C1030 N1025 1.318 . S
C1030 C1029 1.396 . S
H1031 C1026 0.929 . S
O1032 Mn1008 2.385 . S
O1032 C1010 1.234 . S
O1033 Mn1008 2.209 . S
O1033 Mn1009 2.215 . S
O1033 C1010 1.283 . S
O1034 Mn1008 2.094 . S
O1034 C1012 1.240 . S
O1035 Mn1009 2.117 . S
O1035 C1012 1.264 . S
C1036 C1029 1.403 . S
C1036 C1037 1.399 . S
C1036 H1042 0.929 . S
C1037 C1017 1.449 . S
C1037 C1036 1.399 . S
C1037 H1043 0.930 . S
H1038 C1018 0.931 . S
H1039 C1019 0.930 . S
H1040 C1027 0.931 . S
H1041 C1028 0.929 . S
H1042 C1036 0.929 . S
H1043 C1037 0.930 . S
Mn1044 O1049 2.095 . S
Mn1044 O1059 2.162 . S
Mn1044 O1060 2.297 . S
Mn1044 O1068 2.385 . S
Mn1044 O1069 2.209 . S
Mn1044 O1070 2.094 . S
Mn1045 O1050 2.121 . S
Mn1045 N1052 2.257 . S
Mn1045 N1061 2.282 . S
Mn1045 O1069 2.215 . S
Mn1045 O1071 2.117 . S
C1046 O1068 1.234 . S
C1046 O1069 1.283 . S
C1047 O1059 1.281 . S
C1047 O1060 1.236 . S
C1048 O1070 1.240 . S
C1048 O1071 1.264 . S
O1049 Mn1044 2.095 . S
O1049 C1058 1.250 . S
O1050 Mn1045 2.121 . S
O1050 C1058 1.258 . S
C1051 N1052 1.326 . S
C1051 C1055 1.460 . S
C1051 H1057 0.929 . S
N1052 Mn1045 2.257 . S
N1052 C1051 1.326 . S
N1052 C1056 1.362 . S
C1053 C1054 1.258 . S
C1053 C1056 1.431 . S
C1053 C1073 1.449 . S
C1054 C1053 1.258 . S
C1054 C1055 1.477 . S
C1054 H1074 0.931 . S
C1055 C1051 1.460 . S
C1055 C1054 1.477 . S
C1055 H1075 0.930 . S
C1056 N1052 1.362 . S
C1056 C1053 1.431 . S
C1056 C1066 1.476 . S
H1057 C1051 0.929 . S
C1058 O1049 1.250 . S
C1058 O1050 1.258 . S
O1059 Mn1044 2.162 . S
O1059 C1047 1.281 . S
O1060 Mn1044 2.297 . S
O1060 C1047 1.236 . S
N1061 Mn1045 2.282 . S
N1061 C1062 1.328 . S
N1061 C1066 1.318 . S
C1062 N1061 1.328 . S
C1062 C1063 1.457 . S
C1062 H1067 0.929 . S
C1063 C1062 1.457 . S
C1063 C1064 1.291 . S
C1063 H1076 0.931 . S
C1064 C1063 1.291 . S
C1064 C1065 1.373 . S
C1064 H1077 0.929 . S
C1065 C1064 1.373 . S
C1065 C1066 1.396 . S
C1065 C1072 1.403 . S
C1066 C1056 1.476 . S
C1066 N1061 1.318 . S
C1066 C1065 1.396 . S
H1067 C1062 0.929 . S
O1068 Mn1044 2.385 . S
O1068 C1046 1.234 . S
O1069 Mn1044 2.209 . S
O1069 Mn1045 2.215 . S
O1069 C1046 1.283 . S
O1070 Mn1044 2.094 . S
O1070 C1048 1.240 . S
O1071 Mn1045 2.117 . S
O1071 C1048 1.264 . S
C1072 C1065 1.403 . S
C1072 C1073 1.399 . S
C1072 H1078 0.929 . S
C1073 C1053 1.449 . S
C1073 C1072 1.399 . S
C1073 H1079 0.930 . S
H1074 C1054 0.931 . S
H1075 C1055 0.930 . S
H1076 C1063 0.931 . S
H1077 C1064 0.929 . S
H1078 C1072 0.929 . S
H1079 C1073 0.930 . S
Mn1080 O1085 2.095 . S
Mn1080 O1095 2.162 . S
Mn1080 O1096 2.297 . S
Mn1080 O1104 2.385 . S
Mn1080 O1105 2.209 . S
Mn1080 O1106 2.094 . S
Mn1081 O1086 2.121 . S
Mn1081 N1088 2.257 . S
Mn1081 N1097 2.282 . S
Mn1081 O1105 2.215 . S
Mn1081 O1107 2.117 . S
C1082 O1104 1.234 . S
C1082 O1105 1.283 . S
C1083 O1095 1.281 . S
C1083 O1096 1.236 . S
C1084 O1106 1.240 . S
C1084 O1107 1.264 . S
O1085 Mn1080 2.095 . S
O1085 C1094 1.250 . S
O1086 Mn1081 2.121 . S
O1086 C1094 1.258 . S
C1087 N1088 1.326 . S
C1087 C1091 1.460 . S
C1087 H1093 0.929 . S
N1088 Mn1081 2.257 . S
N1088 C1087 1.326 . S
N1088 C1092 1.362 . S
C1089 C1090 1.258 . S
C1089 C1092 1.431 . S
C1089 C1109 1.449 . S
C1090 C1089 1.258 . S
C1090 C1091 1.477 . S
C1090 H1110 0.931 . S
C1091 C1087 1.460 . S
C1091 C1090 1.477 . S
C1091 H1111 0.930 . S
C1092 N1088 1.362 . S
C1092 C1089 1.431 . S
C1092 C1102 1.476 . S
H1093 C1087 0.929 . S
C1094 O1085 1.250 . S
C1094 O1086 1.258 . S
O1095 Mn1080 2.162 . S
O1095 C1083 1.281 . S
O1096 Mn1080 2.297 . S
O1096 C1083 1.236 . S
N1097 Mn1081 2.282 . S
N1097 C1098 1.328 . S
N1097 C1102 1.318 . S
C1098 N1097 1.328 . S
C1098 C1099 1.457 . S
C1098 H1103 0.929 . S
C1099 C1098 1.457 . S
C1099 C1100 1.291 . S
C1099 H1112 0.931 . S
C1100 C1099 1.291 . S
C1100 C1101 1.373 . S
C1100 H1113 0.929 . S
C1101 C1100 1.373 . S
C1101 C1102 1.396 . S
C1101 C1108 1.403 . S
C1102 C1092 1.476 . S
C1102 N1097 1.318 . S
C1102 C1101 1.396 . S
H1103 C1098 0.929 . S
O1104 Mn1080 2.385 . S
O1104 C1082 1.234 . S
O1105 Mn1080 2.209 . S
O1105 Mn1081 2.215 . S
O1105 C1082 1.283 . S
O1106 Mn1080 2.094 . S
O1106 C1084 1.240 . S
O1107 Mn1081 2.117 . S
O1107 C1084 1.264 . S
C1108 C1101 1.403 . S
C1108 C1109 1.399 . S
C1108 H1114 0.929 . S
C1109 C1089 1.449 . S
C1109 C1108 1.399 . S
C1109 H1115 0.930 . S
H1110 C1090 0.931 . S
H1111 C1091 0.930 . S
H1112 C1099 0.931 . S
H1113 C1100 0.929 . S
H1114 C1108 0.929 . S
H1115 C1109 0.930 . S
Mn1116 O1121 2.095 . S
Mn1116 O1131 2.162 . S
Mn1116 O1132 2.297 . S
Mn1116 O1140 2.385 . S
Mn1116 O1141 2.209 . S
Mn1116 O1142 2.094 . S
Mn1117 O1122 2.121 . S
Mn1117 N1124 2.257 . S
Mn1117 N1133 2.282 . S
Mn1117 O1141 2.215 . S
Mn1117 O1143 2.117 . S
C1118 O1140 1.234 . S
C1118 O1141 1.283 . S
C1119 O1131 1.281 . S
C1119 O1132 1.236 . S
C1120 O1142 1.240 . S
C1120 O1143 1.264 . S
O1121 Mn1116 2.095 . S
O1121 C1130 1.250 . S
O1122 Mn1117 2.121 . S
O1122 C1130 1.258 . S
C1123 N1124 1.326 . S
C1123 C1127 1.460 . S
C1123 H1129 0.929 . S
N1124 Mn1117 2.257 . S
N1124 C1123 1.326 . S
N1124 C1128 1.362 . S
C1125 C1126 1.258 . S
C1125 C1128 1.431 . S
C1125 C1145 1.449 . S
C1126 C1125 1.258 . S
C1126 C1127 1.477 . S
C1126 H1146 0.931 . S
C1127 C1123 1.460 . S
C1127 C1126 1.477 . S
C1127 H1147 0.930 . S
C1128 N1124 1.362 . S
C1128 C1125 1.431 . S
C1128 C1138 1.476 . S
H1129 C1123 0.929 . S
C1130 O1121 1.250 . S
C1130 O1122 1.258 . S
O1131 Mn1116 2.162 . S
O1131 C1119 1.281 . S
O1132 Mn1116 2.297 . S
O1132 C1119 1.236 . S
N1133 Mn1117 2.282 . S
N1133 C1134 1.328 . S
N1133 C1138 1.318 . S
C1134 N1133 1.328 . S
C1134 C1135 1.457 . S
C1134 H1139 0.929 . S
C1135 C1134 1.457 . S
C1135 C1136 1.291 . S
C1135 H1148 0.931 . S
C1136 C1135 1.291 . S
C1136 C1137 1.373 . S
C1136 H1149 0.929 . S
C1137 C1136 1.373 . S
C1137 C1138 1.396 . S
C1137 C1144 1.403 . S
C1138 C1128 1.476 . S
C1138 N1133 1.318 . S
C1138 C1137 1.396 . S
H1139 C1134 0.929 . S
O1140 Mn1116 2.385 . S
O1140 C1118 1.234 . S
O1141 Mn1116 2.209 . S
O1141 Mn1117 2.215 . S
O1141 C1118 1.283 . S
O1142 Mn1116 2.094 . S
O1142 C1120 1.240 . S
O1143 Mn1117 2.117 . S
O1143 C1120 1.264 . S
C1144 C1137 1.403 . S
C1144 C1145 1.399 . S
C1144 H1150 0.929 . S
C1145 C1125 1.449 . S
C1145 C1144 1.399 . S
C1145 H1151 0.930 . S
H1146 C1126 0.931 . S
H1147 C1127 0.930 . S
H1148 C1135 0.931 . S
H1149 C1136 0.929 . S
H1150 C1144 0.929 . S
H1151 C1145 0.930 . S
Mn1152 O1157 2.095 . S
Mn1152 O1167 2.162 . S
Mn1152 O1168 2.297 . S
Mn1152 O1176 2.385 . S
Mn1152 O1177 2.209 . S
Mn1152 O1178 2.094 . S
Mn1153 O1158 2.121 . S
Mn1153 N1160 2.257 . S
Mn1153 N1169 2.282 . S
Mn1153 O1177 2.215 . S
Mn1153 O1179 2.117 . S
C1154 O1176 1.234 . S
C1154 O1177 1.283 . S
C1155 O1167 1.281 . S
C1155 O1168 1.236 . S
C1156 O1178 1.240 . S
C1156 O1179 1.264 . S
O1157 Mn1152 2.095 . S
O1157 C1166 1.250 . S
O1158 Mn1153 2.121 . S
O1158 C1166 1.258 . S
C1159 N1160 1.326 . S
C1159 C1163 1.460 . S
C1159 H1165 0.929 . S
N1160 Mn1153 2.257 . S
N1160 C1159 1.326 . S
N1160 C1164 1.362 . S
C1161 C1162 1.258 . S
C1161 C1164 1.431 . S
C1161 C1181 1.449 . S
C1162 C1161 1.258 . S
C1162 C1163 1.477 . S
C1162 H1182 0.931 . S
C1163 C1159 1.460 . S
C1163 C1162 1.477 . S
C1163 H1183 0.930 . S
C1164 N1160 1.362 . S
C1164 C1161 1.431 . S
C1164 C1174 1.476 . S
H1165 C1159 0.929 . S
C1166 O1157 1.250 . S
C1166 O1158 1.258 . S
O1167 Mn1152 2.162 . S
O1167 C1155 1.281 . S
O1168 Mn1152 2.297 . S
O1168 C1155 1.236 . S
N1169 Mn1153 2.282 . S
N1169 C1170 1.328 . S
N1169 C1174 1.318 . S
C1170 N1169 1.328 . S
C1170 C1171 1.457 . S
C1170 H1175 0.929 . S
C1171 C1170 1.457 . S
C1171 C1172 1.291 . S
C1171 H1184 0.931 . S
C1172 C1171 1.291 . S
C1172 C1173 1.373 . S
C1172 H1185 0.929 . S
C1173 C1172 1.373 . S
C1173 C1174 1.396 . S
C1173 C1180 1.403 . S
C1174 C1164 1.476 . S
C1174 N1169 1.318 . S
C1174 C1173 1.396 . S
H1175 C1170 0.929 . S
O1176 Mn1152 2.385 . S
O1176 C1154 1.234 . S
O1177 Mn1152 2.209 . S
O1177 Mn1153 2.215 . S
O1177 C1154 1.283 . S
O1178 Mn1152 2.094 . S
O1178 C1156 1.240 . S
O1179 Mn1153 2.117 . S
O1179 C1156 1.264 . S
C1180 C1173 1.403 . S
C1180 C1181 1.399 . S
C1180 H1186 0.929 . S
C1181 C1161 1.449 . S
C1181 C1180 1.399 . S
C1181 H1187 0.930 . S
H1182 C1162 0.931 . S
H1183 C1163 0.930 . S
H1184 C1171 0.931 . S
H1185 C1172 0.929 . S
H1186 C1180 0.929 . S
H1187 C1181 0.930 . S
Mn1188 O1193 2.095 . S
Mn1188 O1203 2.162 . S
Mn1188 O1204 2.297 . S
Mn1188 O1212 2.385 . S
Mn1188 O1213 2.209 . S
Mn1188 O1214 2.094 . S
Mn1189 O1194 2.121 . S
Mn1189 N1196 2.257 . S
Mn1189 N1205 2.282 . S
Mn1189 O1213 2.215 . S
Mn1189 O1215 2.117 . S
C1190 O1212 1.234 . S
C1190 O1213 1.283 . S
C1191 O1203 1.281 . S
C1191 O1204 1.236 . S
C1192 O1214 1.240 . S
C1192 O1215 1.264 . S
O1193 Mn1188 2.095 . S
O1193 C1202 1.250 . S
O1194 Mn1189 2.121 . S
O1194 C1202 1.258 . S
C1195 N1196 1.326 . S
C1195 C1199 1.460 . S
C1195 H1201 0.929 . S
N1196 Mn1189 2.257 . S
N1196 C1195 1.326 . S
N1196 C1200 1.362 . S
C1197 C1198 1.258 . S
C1197 C1200 1.431 . S
C1197 C1217 1.449 . S
C1198 C1197 1.258 . S
C1198 C1199 1.477 . S
C1198 H1218 0.931 . S
C1199 C1195 1.460 . S
C1199 C1198 1.477 . S
C1199 H1219 0.930 . S
C1200 N1196 1.362 . S
C1200 C1197 1.431 . S
C1200 C1210 1.476 . S
H1201 C1195 0.929 . S
C1202 O1193 1.250 . S
C1202 O1194 1.258 . S
O1203 Mn1188 2.162 . S
O1203 C1191 1.281 . S
O1204 Mn1188 2.297 . S
O1204 C1191 1.236 . S
N1205 Mn1189 2.282 . S
N1205 C1206 1.328 . S
N1205 C1210 1.318 . S
C1206 N1205 1.328 . S
C1206 C1207 1.457 . S
C1206 H1211 0.929 . S
C1207 C1206 1.457 . S
C1207 C1208 1.291 . S
C1207 H1220 0.931 . S
C1208 C1207 1.291 . S
C1208 C1209 1.373 . S
C1208 H1221 0.929 . S
C1209 C1208 1.373 . S
C1209 C1210 1.396 . S
C1209 C1216 1.403 . S
C1210 C1200 1.476 . S
C1210 N1205 1.318 . S
C1210 C1209 1.396 . S
H1211 C1206 0.929 . S
O1212 Mn1188 2.385 . S
O1212 C1190 1.234 . S
O1213 Mn1188 2.209 . S
O1213 Mn1189 2.215 . S
O1213 C1190 1.283 . S
O1214 Mn1188 2.094 . S
O1214 C1192 1.240 . S
O1215 Mn1189 2.117 . S
O1215 C1192 1.264 . S
C1216 C1209 1.403 . S
C1216 C1217 1.399 . S
C1216 H1222 0.929 . S
C1217 C1197 1.449 . S
C1217 C1216 1.399 . S
C1217 H1223 0.930 . S
H1218 C1198 0.931 . S
H1219 C1199 0.930 . S
H1220 C1207 0.931 . S
H1221 C1208 0.929 . S
H1222 C1216 0.929 . S
H1223 C1217 0.930 . S
Mn1224 O1229 2.095 . S
Mn1224 O1239 2.162 . S
Mn1224 O1240 2.297 . S
Mn1224 O1248 2.385 . S
Mn1224 O1249 2.209 . S
Mn1224 O1250 2.094 . S
Mn1225 O1230 2.121 . S
Mn1225 N1232 2.257 . S
Mn1225 N1241 2.282 . S
Mn1225 O1249 2.215 . S
Mn1225 O1251 2.117 . S
C1226 O1248 1.234 . S
C1226 O1249 1.283 . S
C1227 O1239 1.281 . S
C1227 O1240 1.236 . S
C1228 O1250 1.240 . S
C1228 O1251 1.264 . S
O1229 Mn1224 2.095 . S
O1229 C1238 1.250 . S
O1230 Mn1225 2.121 . S
O1230 C1238 1.258 . S
C1231 N1232 1.326 . S
C1231 C1235 1.460 . S
C1231 H1237 0.929 . S
N1232 Mn1225 2.257 . S
N1232 C1231 1.326 . S
N1232 C1236 1.362 . S
C1233 C1234 1.258 . S
C1233 C1236 1.431 . S
C1233 C1253 1.449 . S
C1234 C1233 1.258 . S
C1234 C1235 1.477 . S
C1234 H1254 0.931 . S
C1235 C1231 1.460 . S
C1235 C1234 1.477 . S
C1235 H1255 0.930 . S
C1236 N1232 1.362 . S
C1236 C1233 1.431 . S
C1236 C1246 1.476 . S
H1237 C1231 0.929 . S
C1238 O1229 1.250 . S
C1238 O1230 1.258 . S
O1239 Mn1224 2.162 . S
O1239 C1227 1.281 . S
O1240 Mn1224 2.297 . S
O1240 C1227 1.236 . S
N1241 Mn1225 2.282 . S
N1241 C1242 1.328 . S
N1241 C1246 1.318 . S
C1242 N1241 1.328 . S
C1242 C1243 1.457 . S
C1242 H1247 0.929 . S
C1243 C1242 1.457 . S
C1243 C1244 1.291 . S
C1243 H1256 0.931 . S
C1244 C1243 1.291 . S
C1244 C1245 1.373 . S
C1244 H1257 0.929 . S
C1245 C1244 1.373 . S
C1245 C1246 1.396 . S
C1245 C1252 1.403 . S
C1246 C1236 1.476 . S
C1246 N1241 1.318 . S
C1246 C1245 1.396 . S
H1247 C1242 0.929 . S
O1248 Mn1224 2.385 . S
O1248 C1226 1.234 . S
O1249 Mn1224 2.209 . S
O1249 Mn1225 2.215 . S
O1249 C1226 1.283 . S
O1250 Mn1224 2.094 . S
O1250 C1228 1.240 . S
O1251 Mn1225 2.117 . S
O1251 C1228 1.264 . S
C1252 C1245 1.403 . S
C1252 C1253 1.399 . S
C1252 H1258 0.929 . S
C1253 C1233 1.449 . S
C1253 C1252 1.399 . S
C1253 H1259 0.930 . S
H1254 C1234 0.931 . S
H1255 C1235 0.930 . S
H1256 C1243 0.931 . S
H1257 C1244 0.929 . S
H1258 C1252 0.929 . S
H1259 C1253 0.930 . S
Mn1260 O1265 2.095 . S
Mn1260 O1275 2.162 . S
Mn1260 O1276 2.297 . S
Mn1260 O1284 2.385 . S
Mn1260 O1285 2.209 . S
Mn1260 O1286 2.094 . S
Mn1261 O1266 2.121 . S
Mn1261 N1268 2.257 . S
Mn1261 N1277 2.282 . S
Mn1261 O1285 2.215 . S
Mn1261 O1287 2.117 . S
C1262 O1284 1.234 . S
C1262 O1285 1.283 . S
C1263 O1275 1.281 . S
C1263 O1276 1.236 . S
C1264 O1286 1.240 . S
C1264 O1287 1.264 . S
O1265 Mn1260 2.095 . S
O1265 C1274 1.250 . S
O1266 Mn1261 2.121 . S
O1266 C1274 1.258 . S
C1267 N1268 1.326 . S
C1267 C1271 1.460 . S
C1267 H1273 0.929 . S
N1268 Mn1261 2.257 . S
N1268 C1267 1.326 . S
N1268 C1272 1.362 . S
C1269 C1270 1.258 . S
C1269 C1272 1.431 . S
C1269 C1289 1.449 . S
C1270 C1269 1.258 . S
C1270 C1271 1.477 . S
C1270 H1290 0.931 . S
C1271 C1267 1.460 . S
C1271 C1270 1.477 . S
C1271 H1291 0.930 . S
C1272 N1268 1.362 . S
C1272 C1269 1.431 . S
C1272 C1282 1.476 . S
H1273 C1267 0.929 . S
C1274 O1265 1.250 . S
C1274 O1266 1.258 . S
O1275 Mn1260 2.162 . S
O1275 C1263 1.281 . S
O1276 Mn1260 2.297 . S
O1276 C1263 1.236 . S
N1277 Mn1261 2.282 . S
N1277 C1278 1.328 . S
N1277 C1282 1.318 . S
C1278 N1277 1.328 . S
C1278 C1279 1.457 . S
C1278 H1283 0.929 . S
C1279 C1278 1.457 . S
C1279 C1280 1.291 . S
C1279 H1292 0.931 . S
C1280 C1279 1.291 . S
C1280 C1281 1.373 . S
C1280 H1293 0.929 . S
C1281 C1280 1.373 . S
C1281 C1282 1.396 . S
C1281 C1288 1.403 . S
C1282 C1272 1.476 . S
C1282 N1277 1.318 . S
C1282 C1281 1.396 . S
H1283 C1278 0.929 . S
O1284 Mn1260 2.385 . S
O1284 C1262 1.234 . S
O1285 Mn1260 2.209 . S
O1285 Mn1261 2.215 . S
O1285 C1262 1.283 . S
O1286 Mn1260 2.094 . S
O1286 C1264 1.240 . S
O1287 Mn1261 2.117 . S
O1287 C1264 1.264 . S
C1288 C1281 1.403 . S
C1288 C1289 1.399 . S
C1288 H1294 0.929 . S
C1289 C1269 1.449 . S
C1289 C1288 1.399 . S
C1289 H1295 0.930 . S
H1290 C1270 0.931 . S
H1291 C1271 0.930 . S
H1292 C1279 0.931 . S
H1293 C1280 0.929 . S
H1294 C1288 0.929 . S
H1295 C1289 0.930 . S
Mn1296 O1301 2.095 . S
Mn1296 O1311 2.162 . S
Mn1296 O1312 2.297 . S
Mn1296 O1320 2.385 . S
Mn1296 O1321 2.209 . S
Mn1296 O1322 2.094 . S
Mn1297 O1302 2.121 . S
Mn1297 N1304 2.257 . S
Mn1297 N1313 2.282 . S
Mn1297 O1321 2.215 . S
Mn1297 O1323 2.117 . S
C1298 O1320 1.234 . S
C1298 O1321 1.283 . S
C1299 O1311 1.281 . S
C1299 O1312 1.236 . S
C1300 O1322 1.240 . S
C1300 O1323 1.264 . S
O1301 Mn1296 2.095 . S
O1301 C1310 1.250 . S
O1302 Mn1297 2.121 . S
O1302 C1310 1.258 . S
C1303 N1304 1.326 . S
C1303 C1307 1.460 . S
C1303 H1309 0.929 . S
N1304 Mn1297 2.257 . S
N1304 C1303 1.326 . S
N1304 C1308 1.362 . S
C1305 C1306 1.258 . S
C1305 C1308 1.431 . S
C1305 C1325 1.449 . S
C1306 C1305 1.258 . S
C1306 C1307 1.477 . S
C1306 H1326 0.931 . S
C1307 C1303 1.460 . S
C1307 C1306 1.477 . S
C1307 H1327 0.930 . S
C1308 N1304 1.362 . S
C1308 C1305 1.431 . S
C1308 C1318 1.476 . S
H1309 C1303 0.929 . S
C1310 O1301 1.250 . S
C1310 O1302 1.258 . S
O1311 Mn1296 2.162 . S
O1311 C1299 1.281 . S
O1312 Mn1296 2.297 . S
O1312 C1299 1.236 . S
N1313 Mn1297 2.282 . S
N1313 C1314 1.328 . S
N1313 C1318 1.318 . S
C1314 N1313 1.328 . S
C1314 C1315 1.457 . S
C1314 H1319 0.929 . S
C1315 C1314 1.457 . S
C1315 C1316 1.291 . S
C1315 H1328 0.931 . S
C1316 C1315 1.291 . S
C1316 C1317 1.373 . S
C1316 H1329 0.929 . S
C1317 C1316 1.373 . S
C1317 C1318 1.396 . S
C1317 C1324 1.403 . S
C1318 C1308 1.476 . S
C1318 N1313 1.318 . S
C1318 C1317 1.396 . S
H1319 C1314 0.929 . S
O1320 Mn1296 2.385 . S
O1320 C1298 1.234 . S
O1321 Mn1296 2.209 . S
O1321 Mn1297 2.215 . S
O1321 C1298 1.283 . S
O1322 Mn1296 2.094 . S
O1322 C1300 1.240 . S
O1323 Mn1297 2.117 . S
O1323 C1300 1.264 . S
C1324 C1317 1.403 . S
C1324 C1325 1.399 . S
C1324 H1330 0.929 . S
C1325 C1305 1.449 . S
C1325 C1324 1.399 . S
C1325 H1331 0.930 . S
H1326 C1306 0.931 . S
H1327 C1307 0.930 . S
H1328 C1315 0.931 . S
H1329 C1316 0.929 . S
H1330 C1324 0.929 . S
H1331 C1325 0.930 . S
Mn1332 O1337 2.095 . S
Mn1332 O1347 2.162 . S
Mn1332 O1348 2.297 . S
Mn1332 O1356 2.385 . S
Mn1332 O1357 2.209 . S
Mn1332 O1358 2.094 . S
Mn1333 O1338 2.121 . S
Mn1333 N1340 2.257 . S
Mn1333 N1349 2.282 . S
Mn1333 O1357 2.215 . S
Mn1333 O1359 2.117 . S
C1334 O1356 1.234 . S
C1334 O1357 1.283 . S
C1335 O1347 1.281 . S
C1335 O1348 1.236 . S
C1336 O1358 1.240 . S
C1336 O1359 1.264 . S
O1337 Mn1332 2.095 . S
O1337 C1346 1.250 . S
O1338 Mn1333 2.121 . S
O1338 C1346 1.258 . S
C1339 N1340 1.326 . S
C1339 C1343 1.460 . S
C1339 H1345 0.929 . S
N1340 Mn1333 2.257 . S
N1340 C1339 1.326 . S
N1340 C1344 1.362 . S
C1341 C1342 1.258 . S
C1341 C1344 1.431 . S
C1341 C1361 1.449 . S
C1342 C1341 1.258 . S
C1342 C1343 1.477 . S
C1342 H1362 0.931 . S
C1343 C1339 1.460 . S
C1343 C1342 1.477 . S
C1343 H1363 0.930 . S
C1344 N1340 1.362 . S
C1344 C1341 1.431 . S
C1344 C1354 1.476 . S
H1345 C1339 0.929 . S
C1346 O1337 1.250 . S
C1346 O1338 1.258 . S
O1347 Mn1332 2.162 . S
O1347 C1335 1.281 . S
O1348 Mn1332 2.297 . S
O1348 C1335 1.236 . S
N1349 Mn1333 2.282 . S
N1349 C1350 1.328 . S
N1349 C1354 1.318 . S
C1350 N1349 1.328 . S
C1350 C1351 1.457 . S
C1350 H1355 0.929 . S
C1351 C1350 1.457 . S
C1351 C1352 1.291 . S
C1351 H1364 0.931 . S
C1352 C1351 1.291 . S
C1352 C1353 1.373 . S
C1352 H1365 0.929 . S
C1353 C1352 1.373 . S
C1353 C1354 1.396 . S
C1353 C1360 1.403 . S
C1354 C1344 1.476 . S
C1354 N1349 1.318 . S
C1354 C1353 1.396 . S
H1355 C1350 0.929 . S
O1356 Mn1332 2.385 . S
O1356 C1334 1.234 . S
O1357 Mn1332 2.209 . S
O1357 Mn1333 2.215 . S
O1357 C1334 1.283 . S
O1358 Mn1332 2.094 . S
O1358 C1336 1.240 . S
O1359 Mn1333 2.117 . S
O1359 C1336 1.264 . S
C1360 C1353 1.403 . S
C1360 C1361 1.399 . S
C1360 H1366 0.929 . S
C1361 C1341 1.449 . S
C1361 C1360 1.399 . S
C1361 H1367 0.930 . S
H1362 C1342 0.931 . S
H1363 C1343 0.930 . S
H1364 C1351 0.931 . S
H1365 C1352 0.929 . S
H1366 C1360 0.929 . S
H1367 C1361 0.930 . S
Mn1368 O1373 2.095 . S
Mn1368 O1383 2.162 . S
Mn1368 O1384 2.297 . S
Mn1368 O1392 2.385 . S
Mn1368 O1393 2.209 . S
Mn1368 O1394 2.094 . S
Mn1369 O1374 2.121 . S
Mn1369 N1376 2.257 . S
Mn1369 N1385 2.282 . S
Mn1369 O1393 2.215 . S
Mn1369 O1395 2.117 . S
C1370 O1392 1.234 . S
C1370 O1393 1.283 . S
C1371 O1383 1.281 . S
C1371 O1384 1.236 . S
C1372 O1394 1.240 . S
C1372 O1395 1.264 . S
O1373 Mn1368 2.095 . S
O1373 C1382 1.250 . S
O1374 Mn1369 2.121 . S
O1374 C1382 1.258 . S
C1375 N1376 1.326 . S
C1375 C1379 1.460 . S
C1375 H1381 0.929 . S
N1376 Mn1369 2.257 . S
N1376 C1375 1.326 . S
N1376 C1380 1.362 . S
C1377 C1378 1.258 . S
C1377 C1380 1.431 . S
C1377 C1397 1.449 . S
C1378 C1377 1.258 . S
C1378 C1379 1.477 . S
C1378 H1398 0.931 . S
C1379 C1375 1.460 . S
C1379 C1378 1.477 . S
C1379 H1399 0.930 . S
C1380 N1376 1.362 . S
C1380 C1377 1.431 . S
C1380 C1390 1.476 . S
H1381 C1375 0.929 . S
C1382 O1373 1.250 . S
C1382 O1374 1.258 . S
O1383 Mn1368 2.162 . S
O1383 C1371 1.281 . S
O1384 Mn1368 2.297 . S
O1384 C1371 1.236 . S
N1385 Mn1369 2.282 . S
N1385 C1386 1.328 . S
N1385 C1390 1.318 . S
C1386 N1385 1.328 . S
C1386 C1387 1.457 . S
C1386 H1391 0.929 . S
C1387 C1386 1.457 . S
C1387 C1388 1.291 . S
C1387 H1400 0.931 . S
C1388 C1387 1.291 . S
C1388 C1389 1.373 . S
C1388 H1401 0.929 . S
C1389 C1388 1.373 . S
C1389 C1390 1.396 . S
C1389 C1396 1.403 . S
C1390 C1380 1.476 . S
C1390 N1385 1.318 . S
C1390 C1389 1.396 . S
H1391 C1386 0.929 . S
O1392 Mn1368 2.385 . S
O1392 C1370 1.234 . S
O1393 Mn1368 2.209 . S
O1393 Mn1369 2.215 . S
O1393 C1370 1.283 . S
O1394 Mn1368 2.094 . S
O1394 C1372 1.240 . S
O1395 Mn1369 2.117 . S
O1395 C1372 1.264 . S
C1396 C1389 1.403 . S
C1396 C1397 1.399 . S
C1396 H1402 0.929 . S
C1397 C1377 1.449 . S
C1397 C1396 1.399 . S
C1397 H1403 0.930 . S
H1398 C1378 0.931 . S
H1399 C1379 0.930 . S
H1400 C1387 0.931 . S
H1401 C1388 0.929 . S
H1402 C1396 0.929 . S
H1403 C1397 0.930 . S
Mn1404 O1409 2.095 . S
Mn1404 O1419 2.162 . S
Mn1404 O1420 2.297 . S
Mn1404 O1428 2.385 . S
Mn1404 O1429 2.209 . S
Mn1404 O1430 2.094 . S
Mn1405 O1410 2.121 . S
Mn1405 N1412 2.257 . S
Mn1405 N1421 2.282 . S
Mn1405 O1429 2.215 . S
Mn1405 O1431 2.117 . S
C1406 O1428 1.234 . S
C1406 O1429 1.283 . S
C1407 O1419 1.281 . S
C1407 O1420 1.236 . S
C1408 O1430 1.240 . S
C1408 O1431 1.264 . S
O1409 Mn1404 2.095 . S
O1409 C1418 1.250 . S
O1410 Mn1405 2.121 . S
O1410 C1418 1.258 . S
C1411 N1412 1.326 . S
C1411 C1415 1.460 . S
C1411 H1417 0.929 . S
N1412 Mn1405 2.257 . S
N1412 C1411 1.326 . S
N1412 C1416 1.362 . S
C1413 C1414 1.258 . S
C1413 C1416 1.431 . S
C1413 C1433 1.449 . S
C1414 C1413 1.258 . S
C1414 C1415 1.477 . S
C1414 H1434 0.931 . S
C1415 C1411 1.460 . S
C1415 C1414 1.477 . S
C1415 H1435 0.930 . S
C1416 N1412 1.362 . S
C1416 C1413 1.431 . S
C1416 C1426 1.476 . S
H1417 C1411 0.929 . S
C1418 O1409 1.250 . S
C1418 O1410 1.258 . S
O1419 Mn1404 2.162 . S
O1419 C1407 1.281 . S
O1420 Mn1404 2.297 . S
O1420 C1407 1.236 . S
N1421 Mn1405 2.282 . S
N1421 C1422 1.328 . S
N1421 C1426 1.318 . S
C1422 N1421 1.328 . S
C1422 C1423 1.457 . S
C1422 H1427 0.929 . S
C1423 C1422 1.457 . S
C1423 C1424 1.291 . S
C1423 H1436 0.931 . S
C1424 C1423 1.291 . S
C1424 C1425 1.373 . S
C1424 H1437 0.929 . S
C1425 C1424 1.373 . S
C1425 C1426 1.396 . S
C1425 C1432 1.403 . S
C1426 C1416 1.476 . S
C1426 N1421 1.318 . S
C1426 C1425 1.396 . S
H1427 C1422 0.929 . S
O1428 Mn1404 2.385 . S
O1428 C1406 1.234 . S
O1429 Mn1404 2.209 . S
O1429 Mn1405 2.215 . S
O1429 C1406 1.283 . S
O1430 Mn1404 2.094 . S
O1430 C1408 1.240 . S
O1431 Mn1405 2.117 . S
O1431 C1408 1.264 . S
C1432 C1425 1.403 . S
C1432 C1433 1.399 . S
C1432 H1438 0.929 . S
C1433 C1413 1.449 . S
C1433 C1432 1.399 . S
C1433 H1439 0.930 . S
H1434 C1414 0.931 . S
H1435 C1415 0.930 . S
H1436 C1423 0.931 . S
H1437 C1424 0.929 . S
H1438 C1432 0.929 . S
H1439 C1433 0.930 . S
Mn1440 O1445 2.095 . S
Mn1440 O1455 2.162 . S
Mn1440 O1456 2.297 . S
Mn1440 O1464 2.385 . S
Mn1440 O1465 2.209 . S
Mn1440 O1466 2.094 . S
Mn1441 O1446 2.121 . S
Mn1441 N1448 2.257 . S
Mn1441 N1457 2.282 . S
Mn1441 O1465 2.215 . S
Mn1441 O1467 2.117 . S
C1442 O1464 1.234 . S
C1442 O1465 1.283 . S
C1443 O1455 1.281 . S
C1443 O1456 1.236 . S
C1444 O1466 1.240 . S
C1444 O1467 1.264 . S
O1445 Mn1440 2.095 . S
O1445 C1454 1.250 . S
O1446 Mn1441 2.121 . S
O1446 C1454 1.258 . S
C1447 N1448 1.326 . S
C1447 C1451 1.460 . S
C1447 H1453 0.929 . S
N1448 Mn1441 2.257 . S
N1448 C1447 1.326 . S
N1448 C1452 1.362 . S
C1449 C1450 1.258 . S
C1449 C1452 1.431 . S
C1449 C1469 1.449 . S
C1450 C1449 1.258 . S
C1450 C1451 1.477 . S
C1450 H1470 0.931 . S
C1451 C1447 1.460 . S
C1451 C1450 1.477 . S
C1451 H1471 0.930 . S
C1452 N1448 1.362 . S
C1452 C1449 1.431 . S
C1452 C1462 1.476 . S
H1453 C1447 0.929 . S
C1454 O1445 1.250 . S
C1454 O1446 1.258 . S
O1455 Mn1440 2.162 . S
O1455 C1443 1.281 . S
O1456 Mn1440 2.297 . S
O1456 C1443 1.236 . S
N1457 Mn1441 2.282 . S
N1457 C1458 1.328 . S
N1457 C1462 1.318 . S
C1458 N1457 1.328 . S
C1458 C1459 1.457 . S
C1458 H1463 0.929 . S
C1459 C1458 1.457 . S
C1459 C1460 1.291 . S
C1459 H1472 0.931 . S
C1460 C1459 1.291 . S
C1460 C1461 1.373 . S
C1460 H1473 0.929 . S
C1461 C1460 1.373 . S
C1461 C1462 1.396 . S
C1461 C1468 1.403 . S
C1462 C1452 1.476 . S
C1462 N1457 1.318 . S
C1462 C1461 1.396 . S
H1463 C1458 0.929 . S
O1464 Mn1440 2.385 . S
O1464 C1442 1.234 . S
O1465 Mn1440 2.209 . S
O1465 Mn1441 2.215 . S
O1465 C1442 1.283 . S
O1466 Mn1440 2.094 . S
O1466 C1444 1.240 . S
O1467 Mn1441 2.117 . S
O1467 C1444 1.264 . S
C1468 C1461 1.403 . S
C1468 C1469 1.399 . S
C1468 H1474 0.929 . S
C1469 C1449 1.449 . S
C1469 C1468 1.399 . S
C1469 H1475 0.930 . S
H1470 C1450 0.931 . S
H1471 C1451 0.930 . S
H1472 C1459 0.931 . S
H1473 C1460 0.929 . S
H1474 C1468 0.929 . S
H1475 C1469 0.930 . S
Mn1476 O1481 2.095 . S
Mn1476 O1491 2.162 . S
Mn1476 O1492 2.297 . S
Mn1476 O1500 2.385 . S
Mn1476 O1501 2.209 . S
Mn1476 O1502 2.094 . S
Mn1477 O1482 2.121 . S
Mn1477 N1484 2.257 . S
Mn1477 N1493 2.282 . S
Mn1477 O1501 2.215 . S
Mn1477 O1503 2.117 . S
C1478 O1500 1.234 . S
C1478 O1501 1.283 . S
C1479 O1491 1.281 . S
C1479 O1492 1.236 . S
C1480 O1502 1.240 . S
C1480 O1503 1.264 . S
O1481 Mn1476 2.095 . S
O1481 C1490 1.250 . S
O1482 Mn1477 2.121 . S
O1482 C1490 1.258 . S
C1483 N1484 1.326 . S
C1483 C1487 1.460 . S
C1483 H1489 0.929 . S
N1484 Mn1477 2.257 . S
N1484 C1483 1.326 . S
N1484 C1488 1.362 . S
C1485 C1486 1.258 . S
C1485 C1488 1.431 . S
C1485 C1505 1.449 . S
C1486 C1485 1.258 . S
C1486 C1487 1.477 . S
C1486 H1506 0.931 . S
C1487 C1483 1.460 . S
C1487 C1486 1.477 . S
C1487 H1507 0.930 . S
C1488 N1484 1.362 . S
C1488 C1485 1.431 . S
C1488 C1498 1.476 . S
H1489 C1483 0.929 . S
C1490 O1481 1.250 . S
C1490 O1482 1.258 . S
O1491 Mn1476 2.162 . S
O1491 C1479 1.281 . S
O1492 Mn1476 2.297 . S
O1492 C1479 1.236 . S
N1493 Mn1477 2.282 . S
N1493 C1494 1.328 . S
N1493 C1498 1.318 . S
C1494 N1493 1.328 . S
C1494 C1495 1.457 . S
C1494 H1499 0.929 . S
C1495 C1494 1.457 . S
C1495 C1496 1.291 . S
C1495 H1508 0.931 . S
C1496 C1495 1.291 . S
C1496 C1497 1.373 . S
C1496 H1509 0.929 . S
C1497 C1496 1.373 . S
C1497 C1498 1.396 . S
C1497 C1504 1.403 . S
C1498 C1488 1.476 . S
C1498 N1493 1.318 . S
C1498 C1497 1.396 . S
H1499 C1494 0.929 . S
O1500 Mn1476 2.385 . S
O1500 C1478 1.234 . S
O1501 Mn1476 2.209 . S
O1501 Mn1477 2.215 . S
O1501 C1478 1.283 . S
O1502 Mn1476 2.094 . S
O1502 C1480 1.240 . S
O1503 Mn1477 2.117 . S
O1503 C1480 1.264 . S
C1504 C1497 1.403 . S
C1504 C1505 1.399 . S
C1504 H1510 0.929 . S
C1505 C1485 1.449 . S
C1505 C1504 1.399 . S
C1505 H1511 0.930 . S
H1506 C1486 0.931 . S
H1507 C1487 0.930 . S
H1508 C1495 0.931 . S
H1509 C1496 0.929 . S
H1510 C1504 0.929 . S
H1511 C1505 0.930 . S
Mn1512 O1517 2.095 . S
Mn1512 O1527 2.162 . S
Mn1512 O1528 2.297 . S
Mn1512 O1536 2.385 . S
Mn1512 O1537 2.209 . S
Mn1512 O1538 2.094 . S
Mn1513 O1518 2.121 . S
Mn1513 N1520 2.257 . S
Mn1513 N1529 2.282 . S
Mn1513 O1537 2.215 . S
Mn1513 O1539 2.117 . S
C1514 O1536 1.234 . S
C1514 O1537 1.283 . S
C1515 O1527 1.281 . S
C1515 O1528 1.236 . S
C1516 O1538 1.240 . S
C1516 O1539 1.264 . S
O1517 Mn1512 2.095 . S
O1517 C1526 1.250 . S
O1518 Mn1513 2.121 . S
O1518 C1526 1.258 . S
C1519 N1520 1.326 . S
C1519 C1523 1.460 . S
C1519 H1525 0.929 . S
N1520 Mn1513 2.257 . S
N1520 C1519 1.326 . S
N1520 C1524 1.362 . S
C1521 C1522 1.258 . S
C1521 C1524 1.431 1_655 S
C1521 C1541 1.449 . S
C1522 C1521 1.258 . S
C1522 C1523 1.477 1_655 S
C1522 H1542 0.931 . S
C1523 C1519 1.460 . S
C1523 C1522 1.477 1_455 S
C1523 H1543 0.930 . S
C1524 N1520 1.362 . S
C1524 C1521 1.431 1_455 S
C1524 C1534 1.476 . S
H1525 C1519 0.929 . S
C1526 O1517 1.250 . S
C1526 O1518 1.258 . S
O1527 Mn1512 2.162 . S
O1527 C1515 1.281 . S
O1528 Mn1512 2.297 . S
O1528 C1515 1.236 . S
N1529 Mn1513 2.282 . S
N1529 C1530 1.328 . S
N1529 C1534 1.318 . S
C1530 N1529 1.328 . S
C1530 C1531 1.457 . S
C1530 H1535 0.929 . S
C1531 C1530 1.457 . S
C1531 C1532 1.291 1_455 S
C1531 H1544 0.931 . S
C1532 C1531 1.291 1_655 S
C1532 C1533 1.373 . S
C1532 H1545 0.929 . S
C1533 C1532 1.373 . S
C1533 C1534 1.396 1_655 S
C1533 C1540 1.403 . S
C1534 C1524 1.476 . S
C1534 N1529 1.318 . S
C1534 C1533 1.396 1_455 S
H1535 C1530 0.929 . S
O1536 Mn1512 2.385 . S
O1536 C1514 1.234 . S
O1537 Mn1512 2.209 . S
O1537 Mn1513 2.215 . S
O1537 C1514 1.283 . S
O1538 Mn1512 2.094 . S
O1538 C1516 1.240 . S
O1539 Mn1513 2.117 . S
O1539 C1516 1.264 . S
C1540 C1533 1.403 . S
C1540 C1541 1.399 . S
C1540 H1546 0.929 . S
C1541 C1521 1.449 . S
C1541 C1540 1.399 . S
C1541 H1547 0.930 . S
H1542 C1522 0.931 . S
H1543 C1523 0.930 . S
H1544 C1531 0.931 . S
H1545 C1532 0.929 . S
H1546 C1540 0.929 . S
H1547 C1541 0.930 . S
Mn1548 O1553 2.095 . S
Mn1548 O1563 2.162 . S
Mn1548 O1564 2.297 . S
Mn1548 O1572 2.385 . S
Mn1548 O1573 2.209 . S
Mn1548 O1574 2.094 . S
Mn1549 O1554 2.121 . S
Mn1549 N1556 2.257 . S
Mn1549 N1565 2.282 . S
Mn1549 O1573 2.215 . S
Mn1549 O1575 2.117 . S
C1550 O1572 1.234 . S
C1550 O1573 1.283 . S
C1551 O1563 1.281 . S
C1551 O1564 1.236 . S
C1552 O1574 1.240 . S
C1552 O1575 1.264 . S
O1553 Mn1548 2.095 . S
O1553 C1562 1.250 . S
O1554 Mn1549 2.121 . S
O1554 C1562 1.258 . S
C1555 N1556 1.326 . S
C1555 C1559 1.460 . S
C1555 H1561 0.929 . S
N1556 Mn1549 2.257 . S
N1556 C1555 1.326 . S
N1556 C1560 1.362 . S
C1557 C1558 1.258 . S
C1557 C1560 1.431 . S
C1557 C1577 1.449 . S
C1558 C1557 1.258 . S
C1558 C1559 1.477 . S
C1558 H1578 0.931 . S
C1559 C1555 1.460 . S
C1559 C1558 1.477 . S
C1559 H1579 0.930 . S
C1560 N1556 1.362 . S
C1560 C1557 1.431 . S
C1560 C1570 1.476 . S
H1561 C1555 0.929 . S
C1562 O1553 1.250 . S
C1562 O1554 1.258 . S
O1563 Mn1548 2.162 . S
O1563 C1551 1.281 . S
O1564 Mn1548 2.297 . S
O1564 C1551 1.236 . S
N1565 Mn1549 2.282 . S
N1565 C1566 1.328 . S
N1565 C1570 1.318 . S
C1566 N1565 1.328 . S
C1566 C1567 1.457 . S
C1566 H1571 0.929 . S
C1567 C1566 1.457 . S
C1567 C1568 1.291 . S
C1567 H1580 0.931 . S
C1568 C1567 1.291 . S
C1568 C1569 1.373 . S
C1568 H1581 0.929 . S
C1569 C1568 1.373 . S
C1569 C1570 1.396 . S
C1569 C1576 1.403 . S
C1570 C1560 1.476 . S
C1570 N1565 1.318 . S
C1570 C1569 1.396 . S
H1571 C1566 0.929 . S
O1572 Mn1548 2.385 . S
O1572 C1550 1.234 . S
O1573 Mn1548 2.209 . S
O1573 Mn1549 2.215 . S
O1573 C1550 1.283 . S
O1574 Mn1548 2.094 . S
O1574 C1552 1.240 . S
O1575 Mn1549 2.117 . S
O1575 C1552 1.264 . S
C1576 C1569 1.403 . S
C1576 C1577 1.399 . S
C1576 H1582 0.929 . S
C1577 C1557 1.449 . S
C1577 C1576 1.399 . S
C1577 H1583 0.930 . S
H1578 C1558 0.931 . S
H1579 C1559 0.930 . S
H1580 C1567 0.931 . S
H1581 C1568 0.929 . S
H1582 C1576 0.929 . S
H1583 C1577 0.930 . S
Mn1584 O1589 2.095 . S
Mn1584 O1599 2.162 . S
Mn1584 O1600 2.297 . S
Mn1584 O1608 2.385 . S
Mn1584 O1609 2.209 . S
Mn1584 O1610 2.094 . S
Mn1585 O1590 2.121 . S
Mn1585 N1592 2.257 . S
Mn1585 N1601 2.282 . S
Mn1585 O1609 2.215 . S
Mn1585 O1611 2.117 . S
C1586 O1608 1.234 . S
C1586 O1609 1.283 . S
C1587 O1599 1.281 . S
C1587 O1600 1.236 . S
C1588 O1610 1.240 . S
C1588 O1611 1.264 . S
O1589 Mn1584 2.095 . S
O1589 C1598 1.250 . S
O1590 Mn1585 2.121 . S
O1590 C1598 1.258 . S
C1591 N1592 1.326 . S
C1591 C1595 1.460 . S
C1591 H1597 0.929 . S
N1592 Mn1585 2.257 . S
N1592 C1591 1.326 . S
N1592 C1596 1.362 . S
C1593 C1594 1.258 . S
C1593 C1596 1.431 1_655 S
C1593 C1613 1.449 . S
C1594 C1593 1.258 . S
C1594 C1595 1.477 1_655 S
C1594 H1614 0.931 . S
C1595 C1591 1.460 . S
C1595 C1594 1.477 1_455 S
C1595 H1615 0.930 . S
C1596 N1592 1.362 . S
C1596 C1593 1.431 1_455 S
C1596 C1606 1.476 . S
H1597 C1591 0.929 . S
C1598 O1589 1.250 . S
C1598 O1590 1.258 . S
O1599 Mn1584 2.162 . S
O1599 C1587 1.281 . S
O1600 Mn1584 2.297 . S
O1600 C1587 1.236 . S
N1601 Mn1585 2.282 . S
N1601 C1602 1.328 . S
N1601 C1606 1.318 . S
C1602 N1601 1.328 . S
C1602 C1603 1.457 . S
C1602 H1607 0.929 . S
C1603 C1602 1.457 . S
C1603 C1604 1.291 1_455 S
C1603 H1616 0.931 . S
C1604 C1603 1.291 1_655 S
C1604 C1605 1.373 . S
C1604 H1617 0.929 . S
C1605 C1604 1.373 . S
C1605 C1606 1.396 1_655 S
C1605 C1612 1.403 . S
C1606 C1596 1.476 . S
C1606 N1601 1.318 . S
C1606 C1605 1.396 1_455 S
H1607 C1602 0.929 . S
O1608 Mn1584 2.385 . S
O1608 C1586 1.234 . S
O1609 Mn1584 2.209 . S
O1609 Mn1585 2.215 . S
O1609 C1586 1.283 . S
O1610 Mn1584 2.094 . S
O1610 C1588 1.240 . S
O1611 Mn1585 2.117 . S
O1611 C1588 1.264 . S
C1612 C1605 1.403 . S
C1612 C1613 1.399 . S
C1612 H1618 0.929 . S
C1613 C1593 1.449 . S
C1613 C1612 1.399 . S
C1613 H1619 0.930 . S
H1614 C1594 0.931 . S
H1615 C1595 0.930 . S
H1616 C1603 0.931 . S
H1617 C1604 0.929 . S
H1618 C1612 0.929 . S
H1619 C1613 0.930 . S
Mn1620 O1625 2.095 . S
Mn1620 O1635 2.162 . S
Mn1620 O1636 2.297 . S
Mn1620 O1644 2.385 . S
Mn1620 O1645 2.209 . S
Mn1620 O1646 2.094 . S
Mn1621 O1626 2.121 . S
Mn1621 N1628 2.257 . S
Mn1621 N1637 2.282 . S
Mn1621 O1645 2.215 . S
Mn1621 O1647 2.117 . S
C1622 O1644 1.234 . S
C1622 O1645 1.283 . S
C1623 O1635 1.281 . S
C1623 O1636 1.236 . S
C1624 O1646 1.240 . S
C1624 O1647 1.264 . S
O1625 Mn1620 2.095 . S
O1625 C1634 1.250 . S
O1626 Mn1621 2.121 . S
O1626 C1634 1.258 . S
C1627 N1628 1.326 . S
C1627 C1631 1.460 . S
C1627 H1633 0.929 . S
N1628 Mn1621 2.257 . S
N1628 C1627 1.326 . S
N1628 C1632 1.362 . S
C1629 C1630 1.258 . S
C1629 C1632 1.431 . S
C1629 C1649 1.449 . S
C1630 C1629 1.258 . S
C1630 C1631 1.477 . S
C1630 H1650 0.931 . S
C1631 C1627 1.460 . S
C1631 C1630 1.477 . S
C1631 H1651 0.930 . S
C1632 N1628 1.362 . S
C1632 C1629 1.431 . S
C1632 C1642 1.476 . S
H1633 C1627 0.929 . S
C1634 O1625 1.250 . S
C1634 O1626 1.258 . S
O1635 Mn1620 2.162 . S
O1635 C1623 1.281 . S
O1636 Mn1620 2.297 . S
O1636 C1623 1.236 . S
N1637 Mn1621 2.282 . S
N1637 C1638 1.328 . S
N1637 C1642 1.318 . S
C1638 N1637 1.328 . S
C1638 C1639 1.457 . S
C1638 H1643 0.929 . S
C1639 C1638 1.457 . S
C1639 C1640 1.291 . S
C1639 H1652 0.931 . S
C1640 C1639 1.291 . S
C1640 C1641 1.373 . S
C1640 H1653 0.929 . S
C1641 C1640 1.373 . S
C1641 C1642 1.396 . S
C1641 C1648 1.403 . S
C1642 C1632 1.476 . S
C1642 N1637 1.318 . S
C1642 C1641 1.396 . S
H1643 C1638 0.929 . S
O1644 Mn1620 2.385 . S
O1644 C1622 1.234 . S
O1645 Mn1620 2.209 . S
O1645 Mn1621 2.215 . S
O1645 C1622 1.283 . S
O1646 Mn1620 2.094 . S
O1646 C1624 1.240 . S
O1647 Mn1621 2.117 . S
O1647 C1624 1.264 . S
C1648 C1641 1.403 . S
C1648 C1649 1.399 . S
C1648 H1654 0.929 . S
C1649 C1629 1.449 . S
C1649 C1648 1.399 . S
C1649 H1655 0.930 . S
H1650 C1630 0.931 . S
H1651 C1631 0.930 . S
H1652 C1639 0.931 . S
H1653 C1640 0.929 . S
H1654 C1648 0.929 . S
H1655 C1649 0.930 . S
Mn1656 O1661 2.095 . S
Mn1656 O1671 2.162 . S
Mn1656 O1672 2.297 . S
Mn1656 O1680 2.385 . S
Mn1656 O1681 2.209 . S
Mn1656 O1682 2.094 . S
Mn1657 O1662 2.121 . S
Mn1657 N1664 2.257 . S
Mn1657 N1673 2.282 . S
Mn1657 O1681 2.215 . S
Mn1657 O1683 2.117 . S
C1658 O1680 1.234 . S
C1658 O1681 1.283 . S
C1659 O1671 1.281 . S
C1659 O1672 1.236 . S
C1660 O1682 1.240 . S
C1660 O1683 1.264 . S
O1661 Mn1656 2.095 . S
O1661 C1670 1.250 . S
O1662 Mn1657 2.121 . S
O1662 C1670 1.258 . S
C1663 N1664 1.326 . S
C1663 C1667 1.460 . S
C1663 H1669 0.929 . S
N1664 Mn1657 2.257 . S
N1664 C1663 1.326 . S
N1664 C1668 1.362 . S
C1665 C1666 1.258 . S
C1665 C1668 1.431 . S
C1665 C1685 1.449 . S
C1666 C1665 1.258 . S
C1666 C1667 1.477 . S
C1666 H1686 0.931 . S
C1667 C1663 1.460 . S
C1667 C1666 1.477 . S
C1667 H1687 0.930 . S
C1668 N1664 1.362 . S
C1668 C1665 1.431 . S
C1668 C1678 1.476 . S
H1669 C1663 0.929 . S
C1670 O1661 1.250 . S
C1670 O1662 1.258 . S
O1671 Mn1656 2.162 . S
O1671 C1659 1.281 . S
O1672 Mn1656 2.297 . S
O1672 C1659 1.236 . S
N1673 Mn1657 2.282 . S
N1673 C1674 1.328 . S
N1673 C1678 1.318 . S
C1674 N1673 1.328 . S
C1674 C1675 1.457 . S
C1674 H1679 0.929 . S
C1675 C1674 1.457 . S
C1675 C1676 1.291 . S
C1675 H1688 0.931 . S
C1676 C1675 1.291 . S
C1676 C1677 1.373 . S
C1676 H1689 0.929 . S
C1677 C1676 1.373 . S
C1677 C1678 1.396 . S
C1677 C1684 1.403 . S
C1678 C1668 1.476 . S
C1678 N1673 1.318 . S
C1678 C1677 1.396 . S
H1679 C1674 0.929 . S
O1680 Mn1656 2.385 . S
O1680 C1658 1.234 . S
O1681 Mn1656 2.209 . S
O1681 Mn1657 2.215 . S
O1681 C1658 1.283 . S
O1682 Mn1656 2.094 . S
O1682 C1660 1.240 . S
O1683 Mn1657 2.117 . S
O1683 C1660 1.264 . S
C1684 C1677 1.403 . S
C1684 C1685 1.399 . S
C1684 H1690 0.929 . S
C1685 C1665 1.449 . S
C1685 C1684 1.399 . S
C1685 H1691 0.930 . S
H1686 C1666 0.931 . S
H1687 C1667 0.930 . S
H1688 C1675 0.931 . S
H1689 C1676 0.929 . S
H1690 C1684 0.929 . S
H1691 C1685 0.930 . S
Mn1692 O1697 2.095 . S
Mn1692 O1707 2.162 . S
Mn1692 O1708 2.297 . S
Mn1692 O1716 2.385 . S
Mn1692 O1717 2.209 . S
Mn1692 O1718 2.094 . S
Mn1693 O1698 2.121 . S
Mn1693 N1700 2.257 . S
Mn1693 N1709 2.282 . S
Mn1693 O1717 2.215 . S
Mn1693 O1719 2.117 . S
C1694 O1716 1.234 . S
C1694 O1717 1.283 . S
C1695 O1707 1.281 . S
C1695 O1708 1.236 . S
C1696 O1718 1.240 . S
C1696 O1719 1.264 . S
O1697 Mn1692 2.095 . S
O1697 C1706 1.250 . S
O1698 Mn1693 2.121 . S
O1698 C1706 1.258 . S
C1699 N1700 1.326 . S
C1699 C1703 1.460 . S
C1699 H1705 0.929 . S
N1700 Mn1693 2.257 . S
N1700 C1699 1.326 . S
N1700 C1704 1.362 . S
C1701 C1702 1.258 . S
C1701 C1704 1.431 . S
C1701 C1721 1.449 . S
C1702 C1701 1.258 . S
C1702 C1703 1.477 . S
C1702 H1722 0.931 . S
C1703 C1699 1.460 . S
C1703 C1702 1.477 . S
C1703 H1723 0.930 1_545 S
C1704 N1700 1.362 . S
C1704 C1701 1.431 . S
C1704 C1714 1.476 . S
H1705 C1699 0.929 . S
C1706 O1697 1.250 . S
C1706 O1698 1.258 . S
O1707 Mn1692 2.162 . S
O1707 C1695 1.281 . S
O1708 Mn1692 2.297 . S
O1708 C1695 1.236 . S
N1709 Mn1693 2.282 . S
N1709 C1710 1.328 . S
N1709 C1714 1.318 . S
C1710 N1709 1.328 . S
C1710 C1711 1.457 . S
C1710 H1715 0.929 . S
C1711 C1710 1.457 . S
C1711 C1712 1.291 . S
C1711 H1724 0.931 . S
C1712 C1711 1.291 . S
C1712 C1713 1.373 . S
C1712 H1725 0.929 . S
C1713 C1712 1.373 . S
C1713 C1714 1.396 . S
C1713 C1720 1.403 . S
C1714 C1704 1.476 . S
C1714 N1709 1.318 . S
C1714 C1713 1.396 . S
H1715 C1710 0.929 . S
O1716 Mn1692 2.385 . S
O1716 C1694 1.234 . S
O1717 Mn1692 2.209 . S
O1717 Mn1693 2.215 . S
O1717 C1694 1.283 . S
O1718 Mn1692 2.094 . S
O1718 C1696 1.240 . S
O1719 Mn1693 2.117 . S
O1719 C1696 1.264 . S
C1720 C1713 1.403 . S
C1720 C1721 1.399 . S
C1720 H1726 0.929 . S
C1721 C1701 1.449 . S
C1721 C1720 1.399 . S
C1721 H1727 0.930 . S
H1722 C1702 0.931 . S
H1723 C1703 0.930 1_565 S
H1724 C1711 0.931 . S
H1725 C1712 0.929 . S
H1726 C1720 0.929 . S
H1727 C1721 0.930 . S
H1728 C1734 0.930 . S
H1729 C1737 0.930 . S
H1730 C1738 0.930 . S
H1731 C1739 0.930 . S
H1732 C1742 0.930 . S
H1733 C1743 0.930 . S
C1734 H1728 0.930 . S
C1734 C1735 1.355 . S
C1734 C1736 1.415 . S
C1735 C1734 1.355 . S
C1735 C1737 1.419 . S
C1736 C1734 1.415 . S
C1736 C1741 1.425 . S
C1736 C1743 1.409 . S
C1737 H1729 0.930 . S
C1737 C1735 1.419 . S
C1737 C1738 1.362 . S
C1738 H1730 0.930 . S
C1738 C1737 1.362 . S
C1738 C1741 1.409 . S
C1739 H1731 0.930 . S
C1739 C1740 1.355 . S
C1739 C1741 1.415 . S
C1740 C1739 1.355 . S
C1740 C1742 1.419 . S
C1741 C1736 1.425 . S
C1741 C1738 1.409 . S
C1741 C1739 1.415 . S
C1742 H1732 0.930 . S
C1742 C1740 1.419 . S
C1742 C1743 1.362 . S
C1743 H1733 0.930 . S
C1743 C1736 1.409 . S
C1743 C1742 1.362 . S
H1744 C1750 0.930 . S
H1745 C1753 0.930 . S
H1746 C1754 0.933 . S
H1747 C1755 0.930 . S
H1748 C1758 0.930 . S
H1749 C1759 0.930 . S
C1750 H1744 0.930 . S
C1750 C1751 1.355 . S
C1750 C1752 1.415 1_455 S
C1751 C1750 1.355 . S
C1751 C1753 1.419 . S
C1752 C1750 1.415 1_655 S
C1752 C1757 1.425 . S
C1752 C1759 1.409 . S
C1753 H1745 0.930 . S
C1753 C1751 1.419 . S
C1753 C1754 1.337 1_455 S
C1754 H1746 0.933 . S
C1754 C1753 1.337 1_655 S
C1754 C1757 1.432 . S
C1755 H1747 0.930 . S
C1755 C1756 1.355 . S
C1755 C1757 1.415 . S
C1756 C1755 1.355 . S
C1756 C1758 1.419 . S
C1757 C1752 1.425 . S
C1757 C1754 1.432 . S
C1757 C1755 1.415 . S
C1758 H1748 0.930 . S
C1758 C1756 1.419 . S
C1758 C1759 1.362 . S
C1759 H1749 0.930 . S
C1759 C1752 1.409 . S
C1759 C1758 1.362 . S
H1760 C1766 0.930 . S
H1761 C1769 0.930 . S
H1762 C1770 0.930 . S
H1763 C1771 0.930 . S
H1764 C1774 0.930 . S
H1765 C1775 0.930 . S
C1766 H1760 0.930 . S
C1766 C1767 1.355 . S
C1766 C1768 1.415 . S
C1767 C1766 1.355 . S
C1767 C1769 1.419 . S
C1768 C1766 1.415 . S
C1768 C1773 1.425 . S
C1768 C1775 1.409 . S
C1769 H1761 0.930 . S
C1769 C1767 1.419 . S
C1769 C1770 1.362 . S
C1770 H1762 0.930 . S
C1770 C1769 1.362 . S
C1770 C1773 1.409 . S
C1771 H1763 0.930 . S
C1771 C1772 1.355 . S
C1771 C1773 1.415 . S
C1772 C1771 1.355 . S
C1772 C1774 1.419 . S
C1773 C1768 1.425 . S
C1773 C1770 1.409 . S
C1773 C1771 1.415 . S
C1774 H1764 0.930 . S
C1774 C1772 1.419 . S
C1774 C1775 1.362 . S
C1775 H1765 0.930 . S
C1775 C1768 1.409 . S
C1775 C1774 1.362 . S
H1776 C1782 0.930 . S
H1777 C1785 0.930 . S
H1778 C1786 0.930 . S
H1779 C1787 0.930 . S
H1780 C1790 0.930 . S
H1781 C1791 0.930 . S
C1782 H1776 0.930 . S
C1782 C1783 1.355 . S
C1782 C1784 1.415 . S
C1783 C1782 1.355 . S
C1783 C1785 1.419 . S
C1784 C1782 1.415 . S
C1784 C1789 1.425 . S
C1784 C1791 1.409 . S
C1785 H1777 0.930 . S
C1785 C1783 1.419 . S
C1785 C1786 1.362 . S
C1786 H1778 0.930 . S
C1786 C1785 1.362 . S
C1786 C1789 1.409 . S
C1787 H1779 0.930 . S
C1787 C1788 1.355 . S
C1787 C1789 1.415 . S
C1788 C1787 1.355 . S
C1788 C1790 1.419 . S
C1789 C1784 1.425 . S
C1789 C1786 1.409 . S
C1789 C1787 1.415 . S
C1790 H1780 0.930 . S
C1790 C1788 1.419 . S
C1790 C1791 1.362 . S
C1791 H1781 0.930 . S
C1791 C1784 1.409 . S
C1791 C1790 1.362 . S
H1792 C1798 0.930 . S
H1793 C1801 0.930 . S
H1794 C1802 0.930 . S
H1795 C1803 0.930 . S
H1796 C1806 0.930 . S
H1797 C1807 0.930 . S
C1798 H1792 0.930 . S
C1798 C1799 1.355 . S
C1798 C1800 1.415 . S
C1799 C1798 1.355 . S
C1799 C1801 1.419 . S
C1800 C1798 1.415 . S
C1800 C1805 1.425 . S
C1800 C1807 1.409 . S
C1801 H1793 0.930 . S
C1801 C1799 1.419 . S
C1801 C1802 1.362 . S
C1802 H1794 0.930 . S
C1802 C1801 1.362 . S
C1802 C1805 1.409 . S
C1803 H1795 0.930 . S
C1803 C1804 1.355 . S
C1803 C1805 1.415 . S
C1804 C1803 1.355 . S
C1804 C1806 1.419 . S
C1805 C1800 1.425 . S
C1805 C1802 1.409 . S
C1805 C1803 1.415 . S
C1806 H1796 0.930 . S
C1806 C1804 1.419 . S
C1806 C1807 1.362 . S
C1807 H1797 0.930 . S
C1807 C1800 1.409 . S
C1807 C1806 1.362 . S
H1808 C1814 0.930 . S
H1809 C1817 0.930 . S
H1810 C1818 0.930 . S
H1811 C1819 0.930 . S
H1812 C1822 0.930 . S
H1813 C1823 0.930 . S
C1814 H1808 0.930 . S
C1814 C1815 1.355 . S
C1814 C1816 1.415 . S
C1815 C1814 1.355 . S
C1815 C1817 1.419 . S
C1816 C1814 1.415 . S
C1816 C1821 1.425 . S
C1816 C1823 1.409 . S
C1817 H1809 0.930 . S
C1817 C1815 1.419 . S
C1817 C1818 1.362 . S
C1818 H1810 0.930 . S
C1818 C1817 1.362 . S
C1818 C1821 1.409 . S
C1819 H1811 0.930 . S
C1819 C1820 1.355 . S
C1819 C1821 1.415 . S
C1820 C1819 1.355 . S
C1820 C1822 1.419 . S
C1821 C1816 1.425 . S
C1821 C1818 1.409 . S
C1821 C1819 1.415 . S
C1822 H1812 0.930 . S
C1822 C1820 1.419 . S
C1822 C1823 1.362 . S
C1823 H1813 0.930 . S
C1823 C1816 1.409 . S
C1823 C1822 1.362 . S
H1824 C1830 0.930 . S
H1825 C1833 0.930 . S
H1826 C1834 0.930 . S
H1827 C1835 0.930 . S
H1828 C1838 0.930 . S
H1829 C1839 0.930 . S
C1830 H1824 0.930 . S
C1830 C1831 1.355 . S
C1830 C1832 1.415 . S
C1831 C1830 1.355 . S
C1831 C1833 1.419 . S
C1832 C1830 1.415 . S
C1832 C1837 1.425 . S
C1832 C1839 1.409 . S
C1833 H1825 0.930 . S
C1833 C1831 1.419 . S
C1833 C1834 1.362 . S
C1834 H1826 0.930 . S
C1834 C1833 1.362 . S
C1834 C1837 1.409 . S
C1835 H1827 0.930 . S
C1835 C1836 1.355 . S
C1835 C1837 1.415 . S
C1836 C1835 1.355 . S
C1836 C1838 1.419 . S
C1837 C1832 1.425 . S
C1837 C1834 1.409 . S
C1837 C1835 1.415 . S
C1838 H1828 0.930 . S
C1838 C1836 1.419 . S
C1838 C1839 1.362 . S
C1839 H1829 0.930 . S
C1839 C1832 1.409 . S
C1839 C1838 1.362 . S
H1840 C1846 0.930 . S
H1841 C1849 0.930 . S
H1842 C1850 0.930 . S
H1843 C1851 0.930 . S
H1844 C1854 0.930 . S
H1845 C1855 0.930 . S
C1846 H1840 0.930 . S
C1846 C1847 1.355 . S
C1846 C1848 1.415 1_455 S
C1847 C1846 1.355 . S
C1847 C1849 1.419 . S
C1848 C1846 1.415 1_655 S
C1848 C1853 1.425 . S
C1848 C1855 1.409 . S
C1849 H1841 0.930 . S
C1849 C1847 1.419 . S
C1849 C1850 1.362 . S
C1850 H1842 0.930 . S
C1850 C1849 1.362 . S
C1850 C1853 1.409 1_455 S
C1851 H1843 0.930 . S
C1851 C1852 1.355 . S
C1851 C1853 1.415 . S
C1852 C1851 1.355 . S
C1852 C1854 1.419 . S
C1853 C1848 1.425 . S
C1853 C1850 1.409 1_655 S
C1853 C1851 1.415 . S
C1854 H1844 0.930 . S
C1854 C1852 1.419 . S
C1854 C1855 1.362 . S
C1855 H1845 0.930 . S
C1855 C1848 1.409 . S
C1855 C1854 1.362 . S
H1856 C1862 0.930 . S
H1857 C1865 0.930 . S
H1858 C1866 0.930 . S
H1859 C1867 0.930 . S
H1860 C1870 0.930 . S
H1861 C1871 0.930 . S
C1862 H1856 0.930 . S
C1862 C1863 1.355 . S
C1862 C1864 1.415 . S
C1863 C1862 1.355 . S
C1863 C1865 1.419 . S
C1864 C1862 1.415 . S
C1864 C1869 1.425 . S
C1864 C1871 1.409 . S
C1865 H1857 0.930 . S
C1865 C1863 1.419 . S
C1865 C1866 1.362 . S
C1866 H1858 0.930 . S
C1866 C1865 1.362 . S
C1866 C1869 1.409 . S
C1867 H1859 0.930 . S
C1867 C1868 1.355 . S
C1867 C1869 1.415 . S
C1868 C1867 1.355 . S
C1868 C1870 1.419 . S
C1869 C1864 1.425 . S
C1869 C1866 1.409 . S
C1869 C1867 1.415 . S
C1870 H1860 0.930 . S
C1870 C1868 1.419 . S
C1870 C1871 1.362 . S
C1871 H1861 0.930 . S
C1871 C1864 1.409 . S
C1871 C1870 1.362 . S
H1872 C1878 0.930 . S
H1873 C1881 0.930 . S
H1874 C1882 0.930 . S
H1875 C1883 0.930 . S
H1876 C1886 0.930 . S
H1877 C1887 0.930 . S
C1878 H1872 0.930 . S
C1878 C1879 1.355 . S
C1878 C1880 1.415 . S
C1879 C1878 1.355 . S
C1879 C1881 1.419 . S
C1880 C1878 1.415 . S
C1880 C1885 1.425 . S
C1880 C1887 1.409 . S
C1881 H1873 0.930 . S
C1881 C1879 1.419 . S
C1881 C1882 1.362 . S
C1882 H1874 0.930 . S
C1882 C1881 1.362 . S
C1882 C1885 1.409 . S
C1883 H1875 0.930 . S
C1883 C1884 1.355 . S
C1883 C1885 1.415 . S
C1884 C1883 1.355 . S
C1884 C1886 1.419 . S
C1885 C1880 1.425 . S
C1885 C1882 1.409 . S
C1885 C1883 1.415 . S
C1886 H1876 0.930 . S
C1886 C1884 1.419 . S
C1886 C1887 1.362 . S
C1887 H1877 0.930 . S
C1887 C1880 1.409 . S
C1887 C1886 1.362 . S
H1888 C1894 0.930 . S
H1889 C1897 0.930 . S
H1890 C1898 0.930 . S
H1891 C1899 0.930 . S
H1892 C1902 0.930 . S
H1893 C1903 0.930 . S
C1894 H1888 0.930 . S
C1894 C1895 1.355 . S
C1894 C1896 1.415 . S
C1895 C1894 1.355 . S
C1895 C1897 1.419 . S
C1896 C1894 1.415 . S
C1896 C1901 1.425 . S
C1896 C1903 1.409 . S
C1897 H1889 0.930 . S
C1897 C1895 1.419 . S
C1897 C1898 1.362 . S
C1898 H1890 0.930 . S
C1898 C1897 1.362 . S
C1898 C1901 1.409 . S
C1899 H1891 0.930 . S
C1899 C1900 1.355 . S
C1899 C1901 1.415 . S
C1900 C1899 1.355 . S
C1900 C1902 1.419 . S
C1901 C1896 1.425 . S
C1901 C1898 1.409 . S
C1901 C1899 1.415 . S
C1902 H1892 0.930 . S
C1902 C1900 1.419 . S
C1902 C1903 1.362 . S
C1903 H1893 0.930 . S
C1903 C1896 1.409 . S
C1903 C1902 1.362 . S
H1904 C1910 0.930 . S
H1905 C1913 0.930 . S
H1906 C1914 0.930 . S
H1907 C1915 0.930 . S
H1908 C1918 0.930 . S
H1909 C1919 0.930 . S
C1910 H1904 0.930 . S
C1910 C1911 1.355 . S
C1910 C1912 1.415 1_556 S
C1911 C1910 1.355 . S
C1911 C1913 1.419 . S
C1912 C1910 1.415 1_554 S
C1912 C1917 1.425 . S
C1912 C1919 1.409 . S
C1913 H1905 0.930 . S
C1913 C1911 1.419 . S
C1913 C1914 1.362 1_556 S
C1914 H1906 0.930 . S
C1914 C1913 1.362 1_554 S
C1914 C1917 1.409 . S
C1915 H1907 0.930 . S
C1915 C1916 1.355 . S
C1915 C1917 1.415 . S
C1916 C1915 1.355 . S
C1916 C1918 1.419 . S
C1917 C1912 1.425 . S
C1917 C1914 1.409 . S
C1917 C1915 1.415 . S
C1918 H1908 0.930 . S
C1918 C1916 1.419 . S
C1918 C1919 1.362 . S
C1919 H1909 0.930 . S
C1919 C1912 1.409 . S
C1919 C1918 1.362 . S
H1920 C1926 0.930 . S
H1921 C1929 0.930 . S
H1922 C1930 0.930 . S
H1923 C1931 0.930 . S
H1924 C1934 0.930 . S
H1925 C1935 0.930 . S
C1926 H1920 0.930 . S
C1926 C1927 1.355 . S
C1926 C1928 1.415 . S
C1927 C1926 1.355 . S
C1927 C1929 1.419 . S
C1928 C1926 1.415 . S
C1928 C1933 1.425 . S
C1928 C1935 1.409 . S
C1929 H1921 0.930 . S
C1929 C1927 1.419 . S
C1929 C1930 1.362 . S
C1930 H1922 0.930 . S
C1930 C1929 1.362 . S
C1930 C1933 1.409 . S
C1931 H1923 0.930 . S
C1931 C1932 1.355 . S
C1931 C1933 1.415 . S
C1932 C1931 1.355 . S
C1932 C1934 1.419 . S
C1933 C1928 1.425 . S
C1933 C1930 1.409 . S
C1933 C1931 1.415 . S
C1934 H1924 0.930 . S
C1934 C1932 1.419 . S
C1934 C1935 1.362 . S
C1935 H1925 0.930 . S
C1935 C1928 1.409 . S
C1935 C1934 1.362 . S
H1936 C1942 0.930 . S
H1937 C1945 0.930 . S
H1938 C1946 0.930 . S
H1939 C1947 0.930 . S
H1940 C1950 0.930 . S
H1941 C1951 0.930 . S
C1942 H1936 0.930 . S
C1942 C1943 1.355 . S
C1942 C1944 1.415 . S
C1943 C1942 1.355 . S
C1943 C1945 1.419 . S
C1944 C1942 1.415 . S
C1944 C1949 1.425 . S
C1944 C1951 1.409 . S
C1945 H1937 0.930 . S
C1945 C1943 1.419 . S
C1945 C1946 1.362 . S
C1946 H1938 0.930 . S
C1946 C1945 1.362 . S
C1946 C1949 1.409 . S
C1947 H1939 0.930 . S
C1947 C1948 1.355 . S
C1947 C1949 1.415 . S
C1948 C1947 1.355 . S
C1948 C1950 1.419 . S
C1949 C1944 1.425 . S
C1949 C1946 1.409 . S
C1949 C1947 1.415 . S
C1950 H1940 0.930 . S
C1950 C1948 1.419 . S
C1950 C1951 1.362 . S
C1951 H1941 0.930 . S
C1951 C1944 1.409 . S
C1951 C1950 1.362 . S
H1952 C1958 0.930 . S
H1953 C1961 0.930 . S
H1954 C1962 0.930 . S
H1955 C1963 0.930 . S
H1956 C1966 0.930 . S
H1957 C1967 0.930 . S
C1958 H1952 0.930 . S
C1958 C1959 1.355 . S
C1958 C1960 1.415 . S
C1959 C1958 1.355 . S
C1959 C1961 1.419 . S
C1960 C1958 1.415 . S
C1960 C1965 1.425 . S
C1960 C1967 1.409 . S
C1961 H1953 0.930 . S
C1961 C1959 1.419 . S
C1961 C1962 1.362 . S
C1962 H1954 0.930 . S
C1962 C1961 1.362 . S
C1962 C1965 1.409 . S
C1963 H1955 0.930 . S
C1963 C1964 1.355 . S
C1963 C1965 1.415 . S
C1964 C1963 1.355 . S
C1964 C1966 1.419 . S
C1965 C1960 1.425 . S
C1965 C1962 1.409 . S
C1965 C1963 1.415 . S
C1966 H1956 0.930 . S
C1966 C1964 1.419 . S
C1966 C1967 1.362 . S
C1967 H1957 0.930 . S
C1967 C1960 1.409 . S
C1967 C1966 1.362 . S
H1968 C1974 0.930 . S
H1969 C1977 0.930 . S
H1970 C1978 0.930 . S
H1971 C1979 0.930 . S
H1972 C1982 0.930 . S
H1973 C1983 0.930 . S
C1974 H1968 0.930 . S
C1974 C1975 1.355 . S
C1974 C1976 1.415 1_554 S
C1975 C1974 1.355 . S
C1975 C1977 1.419 . S
C1976 C1974 1.415 1_556 S
C1976 C1981 1.425 . S
C1976 C1983 1.409 . S
C1977 H1969 0.930 . S
C1977 C1975 1.419 . S
C1977 C1978 1.362 1_554 S
C1978 H1970 0.930 . S
C1978 C1977 1.362 1_556 S
C1978 C1981 1.409 . S
C1979 H1971 0.930 . S
C1979 C1980 1.355 . S
C1979 C1981 1.415 . S
C1980 C1979 1.355 . S
C1980 C1982 1.419 . S
C1981 C1976 1.425 . S
C1981 C1978 1.409 . S
C1981 C1979 1.415 . S
C1982 H1972 0.930 . S
C1982 C1980 1.419 . S
C1982 C1983 1.362 . S
C1983 H1973 0.930 . S
C1983 C1976 1.409 . S
C1983 C1982 1.362 . S
H1984 C1990 0.930 . S
H1985 C1993 0.930 . S
H1986 C1994 0.930 . S
H1987 C1995 0.930 . S
H1988 C1998 0.930 . S
H1989 C1999 0.930 . S
C1990 H1984 0.930 . S
C1990 C1991 1.355 . S
C1990 C1992 1.415 . S
C1991 C1990 1.355 . S
C1991 C1993 1.419 . S
C1992 C1990 1.415 . S
C1992 C1997 1.425 . S
C1992 C1999 1.409 . S
C1993 H1985 0.930 . S
C1993 C1991 1.419 . S
C1993 C1994 1.362 . S
C1994 H1986 0.930 . S
C1994 C1993 1.362 . S
C1994 C1997 1.409 . S
C1995 H1987 0.930 . S
C1995 C1996 1.355 . S
C1995 C1997 1.415 . S
C1996 C1995 1.355 . S
C1996 C1998 1.419 . S
C1997 C1992 1.425 . S
C1997 C1994 1.409 . S
C1997 C1995 1.415 . S
C1998 H1988 0.930 . S
C1998 C1996 1.419 . S
C1998 C1999 1.362 . S
C1999 H1989 0.930 . S
C1999 C1992 1.409 . S
C1999 C1998 1.362 . S
H2000 C2006 0.930 . S
H2001 C2009 0.930 . S
H2002 C2010 0.930 . S
H2003 C2011 0.930 . S
H2004 C2014 0.930 . S
H2005 C2015 0.930 . S
C2006 H2000 0.930 . S
C2006 C2007 1.355 . S
C2006 C2008 1.415 . S
C2007 C2006 1.355 . S
C2007 C2009 1.419 . S
C2008 C2006 1.415 . S
C2008 C2013 1.425 . S
C2008 C2015 1.409 . S
C2009 H2001 0.930 . S
C2009 C2007 1.419 . S
C2009 C2010 1.362 . S
C2010 H2002 0.930 . S
C2010 C2009 1.362 . S
C2010 C2013 1.409 . S
C2011 H2003 0.930 . S
C2011 C2012 1.355 . S
C2011 C2013 1.415 . S
C2012 C2011 1.355 . S
C2012 C2014 1.419 . S
C2013 C2008 1.425 . S
C2013 C2010 1.409 . S
C2013 C2011 1.415 . S
C2014 H2004 0.930 . S
C2014 C2012 1.419 . S
C2014 C2015 1.362 . S
C2015 H2005 0.930 . S
C2015 C2008 1.409 . S
C2015 C2014 1.362 . S
H2016 C2022 0.930 . S
H2017 C2025 0.930 . S
H2018 C2026 0.930 . S
H2019 C2027 0.930 . S
H2020 C2030 0.930 . S
H2021 C2031 0.930 . S
C2022 H2016 0.930 . S
C2022 C2023 1.355 . S
C2022 C2024 1.415 . S
C2023 C2022 1.355 . S
C2023 C2025 1.419 . S
C2024 C2022 1.415 . S
C2024 C2029 1.425 . S
C2024 C2031 1.409 . S
C2025 H2017 0.930 . S
C2025 C2023 1.419 . S
C2025 C2026 1.362 . S
C2026 H2018 0.930 . S
C2026 C2025 1.362 . S
C2026 C2029 1.409 . S
C2027 H2019 0.930 . S
C2027 C2028 1.355 . S
C2027 C2029 1.415 . S
C2028 C2027 1.355 . S
C2028 C2030 1.419 . S
C2029 C2024 1.425 . S
C2029 C2026 1.409 . S
C2029 C2027 1.415 . S
C2030 H2020 0.930 . S
C2030 C2028 1.419 . S
C2030 C2031 1.362 . S
C2031 H2021 0.930 . S
C2031 C2024 1.409 . S
C2031 C2030 1.362 . S
H2032 C2038 0.930 . S
H2033 C2041 0.930 . S
H2034 C2042 0.930 . S
H2035 C2043 0.930 . S
H2036 C2046 0.930 . S
H2037 C2047 0.930 . S
C2038 H2032 0.930 . S
C2038 C2039 1.355 . S
C2038 C2040 1.415 . S
C2039 C2038 1.355 . S
C2039 C2041 1.419 . S
C2040 C2038 1.415 . S
C2040 C2045 1.425 . S
C2040 C2047 1.409 . S
C2041 H2033 0.930 . S
C2041 C2039 1.419 . S
C2041 C2042 1.362 . S
C2042 H2034 0.930 . S
C2042 C2041 1.362 . S
C2042 C2045 1.409 . S
C2043 H2035 0.930 . S
C2043 C2044 1.355 . S
C2043 C2045 1.415 . S
C2044 C2043 1.355 . S
C2044 C2046 1.419 . S
C2045 C2040 1.425 . S
C2045 C2042 1.409 . S
C2045 C2043 1.415 . S
C2046 H2036 0.930 . S
C2046 C2044 1.419 . S
C2046 C2047 1.362 . S
C2047 H2037 0.930 . S
C2047 C2040 1.409 . S
C2047 C2046 1.362 . S
H2048 C2054 0.930 . S
H2049 C2057 0.930 . S
H2050 C2058 0.930 . S
H2051 C2059 0.930 . S
H2052 C2062 0.930 . S
H2053 C2063 0.930 . S
C2054 H2048 0.930 . S
C2054 C2055 1.355 . S
C2054 C2056 1.415 . S
C2055 C2054 1.355 . S
C2055 C2057 1.419 . S
C2056 C2054 1.415 . S
C2056 C2061 1.425 . S
C2056 C2063 1.409 1_565 S
C2057 H2049 0.930 . S
C2057 C2055 1.419 . S
C2057 C2058 1.362 . S
C2058 H2050 0.930 . S
C2058 C2057 1.362 . S
C2058 C2061 1.409 . S
C2059 H2051 0.930 . S
C2059 C2060 1.355 . S
C2059 C2061 1.415 1_545 S
C2060 C2059 1.355 . S
C2060 C2062 1.419 . S
C2061 C2056 1.425 . S
C2061 C2058 1.409 . S
C2061 C2059 1.415 1_565 S
C2062 H2052 0.930 . S
C2062 C2060 1.419 . S
C2062 C2063 1.362 . S
C2063 H2053 0.930 . S
C2063 C2056 1.409 1_545 S
C2063 C2062 1.362 . S
H2064 C2070 0.930 . S
H2065 C2073 0.930 . S
H2066 C2074 0.930 . S
H2067 C2075 0.930 . S
H2068 C2078 0.930 . S
H2069 C2079 0.930 . S
C2070 H2064 0.930 . S
C2070 C2071 1.355 . S
C2070 C2072 1.415 . S
C2071 C2070 1.355 . S
C2071 C2073 1.419 . S
C2072 C2070 1.415 . S
C2072 C2077 1.425 . S
C2072 C2079 1.409 . S
C2073 H2065 0.930 . S
C2073 C2071 1.419 . S
C2073 C2074 1.362 . S
C2074 H2066 0.930 . S
C2074 C2073 1.362 . S
C2074 C2077 1.409 . S
C2075 H2067 0.930 . S
C2075 C2076 1.355 . S
C2075 C2077 1.415 . S
C2076 C2075 1.355 . S
C2076 C2078 1.419 . S
C2077 C2072 1.425 . S
C2077 C2074 1.409 . S
C2077 C2075 1.415 . S
C2078 H2068 0.930 . S
C2078 C2076 1.419 . S
C2078 C2079 1.362 . S
C2079 H2069 0.930 . S
C2079 C2072 1.409 . S
C2079 C2078 1.362 . S
H2080 C2086 0.930 . S
H2081 C2089 0.930 . S
H2082 C2090 0.930 . S
H2083 C2091 0.930 . S
H2084 C2094 0.930 . S
H2085 C2095 0.930 . S
C2086 H2080 0.930 . S
C2086 C2087 1.355 . S
C2086 C2088 1.415 . S
C2087 C2086 1.355 . S
C2087 C2089 1.419 . S
C2088 C2086 1.415 . S
C2088 C2093 1.425 . S
C2088 C2095 1.409 . S
C2089 H2081 0.930 . S
C2089 C2087 1.419 . S
C2089 C2090 1.362 . S
C2090 H2082 0.930 . S
C2090 C2089 1.362 . S
C2090 C2093 1.409 . S
C2091 H2083 0.930 . S
C2091 C2092 1.355 . S
C2091 C2093 1.415 . S
C2092 C2091 1.355 . S
C2092 C2094 1.419 . S
C2093 C2088 1.425 . S
C2093 C2090 1.409 . S
C2093 C2091 1.415 . S
C2094 H2084 0.930 . S
C2094 C2092 1.419 . S
C2094 C2095 1.362 . S
C2095 H2085 0.930 . S
C2095 C2088 1.409 . S
C2095 C2094 1.362 . S
H2096 C2102 0.930 . S
H2097 C2105 0.930 . S
H2098 C2106 0.930 . S
H2099 C2107 0.930 . S
H2100 C2110 0.930 . S
H2101 C2111 0.930 . S
C2102 H2096 0.930 . S
C2102 C2103 1.355 . S
C2102 C2104 1.415 . S
C2103 C2102 1.355 . S
C2103 C2105 1.419 . S
C2104 C2102 1.415 . S
C2104 C2109 1.425 . S
C2104 C2111 1.409 . S
C2105 H2097 0.930 . S
C2105 C2103 1.419 . S
C2105 C2106 1.362 . S
C2106 H2098 0.930 . S
C2106 C2105 1.362 . S
C2106 C2109 1.409 . S
C2107 H2099 0.930 . S
C2107 C2108 1.355 . S
C2107 C2109 1.415 . S
C2108 C2107 1.355 . S
C2108 C2110 1.419 . S
C2109 C2104 1.425 . S
C2109 C2106 1.409 . S
C2109 C2107 1.415 . S
C2110 H2100 0.930 . S
C2110 C2108 1.419 . S
C2110 C2111 1.362 . S
C2111 H2101 0.930 . S
C2111 C2104 1.409 . S
C2111 C2110 1.362 . S
H2112 C2118 0.930 . S
H2113 C2121 0.930 . S
H2114 C2122 0.930 . S
H2115 C2123 0.930 . S
H2116 C2126 0.930 . S
H2117 C2127 0.930 . S
C2118 H2112 0.930 . S
C2118 C2119 1.355 . S
C2118 C2120 1.415 . S
C2119 C2118 1.355 . S
C2119 C2121 1.419 . S
C2120 C2118 1.415 . S
C2120 C2125 1.425 . S
C2120 C2127 1.409 . S
C2121 H2113 0.930 . S
C2121 C2119 1.419 . S
C2121 C2122 1.362 . S
C2122 H2114 0.930 . S
C2122 C2121 1.362 . S
C2122 C2125 1.409 . S
C2123 H2115 0.930 . S
C2123 C2124 1.355 . S
C2123 C2125 1.415 . S
C2124 C2123 1.355 . S
C2124 C2126 1.419 . S
C2125 C2120 1.425 . S
C2125 C2122 1.409 . S
C2125 C2123 1.415 . S
C2126 H2116 0.930 . S
C2126 C2124 1.419 . S
C2126 C2127 1.362 . S
C2127 H2117 0.930 . S
C2127 C2120 1.409 . S
C2127 C2126 1.362 . S
H2128 C2134 0.930 . S
H2129 C2137 0.930 . S
H2130 C2138 0.926 1_455 S
H2131 C2139 0.930 . S
H2132 C2142 0.930 . S
H2133 C2143 0.930 . S
C2134 H2128 0.930 . S
C2134 C2135 1.355 . S
C2134 C2136 1.415 1_655 S
C2135 C2134 1.355 . S
C2135 C2137 1.419 . S
C2136 C2134 1.415 1_455 S
C2136 C2141 1.425 . S
C2136 C2143 1.409 . S
C2137 H2129 0.930 . S
C2137 C2135 1.419 . S
C2137 C2138 1.362 . S
C2138 H2130 0.926 1_655 S
C2138 C2137 1.362 . S
C2138 C2141 1.409 1_655 S
C2139 H2131 0.930 . S
C2139 C2140 1.355 . S
C2139 C2141 1.415 . S
C2140 C2139 1.355 . S
C2140 C2142 1.419 . S
C2141 C2136 1.425 . S
C2141 C2138 1.409 1_455 S
C2141 C2139 1.415 . S
C2142 H2132 0.930 . S
C2142 C2140 1.419 . S
C2142 C2143 1.362 . S
C2143 H2133 0.930 . S
C2143 C2136 1.409 . S
C2143 C2142 1.362 . S
H2144 C2150 0.930 . S
H2145 C2153 0.930 . S
H2146 C2154 0.930 . S
H2147 C2155 0.930 . S
H2148 C2158 0.930 . S
H2149 C2159 0.930 . S
C2150 H2144 0.930 . S
C2150 C2151 1.355 . S
C2150 C2152 1.415 . S
C2151 C2150 1.355 . S
C2151 C2153 1.419 . S
C2152 C2150 1.415 . S
C2152 C2157 1.425 . S
C2152 C2159 1.409 . S
C2153 H2145 0.930 . S
C2153 C2151 1.419 . S
C2153 C2154 1.362 . S
C2154 H2146 0.930 . S
C2154 C2153 1.362 . S
C2154 C2157 1.409 . S
C2155 H2147 0.930 . S
C2155 C2156 1.355 . S
C2155 C2157 1.415 . S
C2156 C2155 1.355 . S
C2156 C2158 1.419 . S
C2157 C2152 1.425 . S
C2157 C2154 1.409 . S
C2157 C2155 1.415 . S
C2158 H2148 0.930 . S
C2158 C2156 1.419 . S
C2158 C2159 1.362 . S
C2159 H2149 0.930 . S
C2159 C2152 1.409 . S
C2159 C2158 1.362 . S
H2160 C2166 0.930 . S
H2161 C2169 0.930 . S
H2162 C2170 0.930 . S
H2163 C2171 0.930 . S
H2164 C2174 0.930 . S
H2165 C2175 0.930 . S
C2166 H2160 0.930 . S
C2166 C2167 1.355 . S
C2166 C2168 1.415 . S
C2167 C2166 1.355 . S
C2167 C2169 1.419 . S
C2168 C2166 1.415 . S
C2168 C2173 1.425 . S
C2168 C2175 1.409 . S
C2169 H2161 0.930 . S
C2169 C2167 1.419 . S
C2169 C2170 1.362 . S
C2170 H2162 0.930 . S
C2170 C2169 1.362 . S
C2170 C2173 1.409 . S
C2171 H2163 0.930 . S
C2171 C2172 1.355 . S
C2171 C2173 1.415 . S
C2172 C2171 1.355 . S
C2172 C2174 1.419 . S
C2173 C2168 1.425 . S
C2173 C2170 1.409 . S
C2173 C2171 1.415 . S
C2174 H2164 0.930 . S
C2174 C2172 1.419 . S
C2174 C2175 1.362 . S
C2175 H2165 0.930 . S
C2175 C2168 1.409 . S
C2175 C2174 1.362 . S
H2176 C2182 0.930 . S
H2177 C2185 0.930 . S
H2178 C2186 0.930 . S
H2179 C2187 0.930 . S
H2180 C2190 0.930 . S
H2181 C2191 0.930 . S
C2182 H2176 0.930 . S
C2182 C2183 1.355 . S
C2182 C2184 1.415 . S
C2183 C2182 1.355 . S
C2183 C2185 1.419 . S
C2184 C2182 1.415 . S
C2184 C2189 1.425 . S
C2184 C2191 1.409 . S
C2185 H2177 0.930 . S
C2185 C2183 1.419 . S
C2185 C2186 1.362 . S
C2186 H2178 0.930 . S
C2186 C2185 1.362 . S
C2186 C2189 1.409 . S
C2187 H2179 0.930 . S
C2187 C2188 1.355 . S
C2187 C2189 1.415 . S
C2188 C2187 1.355 . S
C2188 C2190 1.419 . S
C2189 C2184 1.425 . S
C2189 C2186 1.409 . S
C2189 C2187 1.415 . S
C2190 H2180 0.930 . S
C2190 C2188 1.419 . S
C2190 C2191 1.362 . S
C2191 H2181 0.930 . S
C2191 C2184 1.409 . S
C2191 C2190 1.362 . S
H2192 C2198 0.930 . S
H2193 C2201 0.930 . S
H2194 C2202 0.930 . S
H2195 C2203 0.930 . S
H2196 C2206 0.930 . S
H2197 C2207 0.930 . S
C2198 H2192 0.930 . S
C2198 C2199 1.355 . S
C2198 C2200 1.415 . S
C2199 C2198 1.355 . S
C2199 C2201 1.419 . S
C2200 C2198 1.415 . S
C2200 C2205 1.425 . S
C2200 C2207 1.409 . S
C2201 H2193 0.930 . S
C2201 C2199 1.419 . S
C2201 C2202 1.362 . S
C2202 H2194 0.930 . S
C2202 C2201 1.362 . S
C2202 C2205 1.409 . S
C2203 H2195 0.930 . S
C2203 C2204 1.355 . S
C2203 C2205 1.415 . S
C2204 C2203 1.355 . S
C2204 C2206 1.419 . S
C2205 C2200 1.425 . S
C2205 C2202 1.409 . S
C2205 C2203 1.415 . S
C2206 H2196 0.930 . S
C2206 C2204 1.419 . S
C2206 C2207 1.362 . S
C2207 H2197 0.930 . S
C2207 C2200 1.409 . S
C2207 C2206 1.362 . S
H2208 C2214 0.930 . S
H2209 C2217 0.930 . S
H2210 C2218 0.930 . S
H2211 C2219 0.930 . S
H2212 C2222 0.930 . S
H2213 C2223 0.930 . S
C2214 H2208 0.930 . S
C2214 C2215 1.355 . S
C2214 C2216 1.415 . S
C2215 C2214 1.355 . S
C2215 C2217 1.419 . S
C2216 C2214 1.415 . S
C2216 C2221 1.425 . S
C2216 C2223 1.409 . S
C2217 H2209 0.930 . S
C2217 C2215 1.419 . S
C2217 C2218 1.362 . S
C2218 H2210 0.930 . S
C2218 C2217 1.362 . S
C2218 C2221 1.409 . S
C2219 H2211 0.930 . S
C2219 C2220 1.355 . S
C2219 C2221 1.415 . S
C2220 C2219 1.355 . S
C2220 C2222 1.419 . S
C2221 C2216 1.425 . S
C2221 C2218 1.409 . S
C2221 C2219 1.415 . S
C2222 H2212 0.930 . S
C2222 C2220 1.419 . S
C2222 C2223 1.362 . S
C2223 H2213 0.930 . S
C2223 C2216 1.409 . S
C2223 C2222 1.362 . S
H2224 C2230 0.930 . S
H2225 C2233 0.930 . S
H2226 C2234 0.930 . S
H2227 C2235 0.930 . S
H2228 C2238 0.930 . S
H2229 C2239 0.930 . S
C2230 H2224 0.930 . S
C2230 C2231 1.355 . S
C2230 C2232 1.415 . S
C2231 C2230 1.355 . S
C2231 C2233 1.419 . S
C2232 C2230 1.415 . S
C2232 C2237 1.425 . S
C2232 C2239 1.409 . S
C2233 H2225 0.930 . S
C2233 C2231 1.419 . S
C2233 C2234 1.362 . S
C2234 H2226 0.930 . S
C2234 C2233 1.362 . S
C2234 C2237 1.409 . S
C2235 H2227 0.930 . S
C2235 C2236 1.355 . S
C2235 C2237 1.415 1_655 S
C2236 C2235 1.355 . S
C2236 C2238 1.419 . S
C2237 C2232 1.425 . S
C2237 C2234 1.409 . S
C2237 C2235 1.415 1_455 S
C2238 H2228 0.930 . S
C2238 C2236 1.419 . S
C2238 C2239 1.362 1_655 S
C2239 H2229 0.930 . S
C2239 C2232 1.409 . S
C2239 C2238 1.362 1_455 S
H2240 C2246 0.930 . S
H2241 C2249 0.930 . S
H2242 C2250 0.930 . S
H2243 C2251 0.930 . S
H2244 C2254 0.930 . S
H2245 C2255 0.930 . S
C2246 H2240 0.930 . S
C2246 C2247 1.355 . S
C2246 C2248 1.415 . S
C2247 C2246 1.355 . S
C2247 C2249 1.419 . S
C2248 C2246 1.415 . S
C2248 C2253 1.425 . S
C2248 C2255 1.409 . S
C2249 H2241 0.930 . S
C2249 C2247 1.419 . S
C2249 C2250 1.362 . S
C2250 H2242 0.930 . S
C2250 C2249 1.362 . S
C2250 C2253 1.409 . S
C2251 H2243 0.930 . S
C2251 C2252 1.355 . S
C2251 C2253 1.415 . S
C2252 C2251 1.355 . S
C2252 C2254 1.419 . S
C2253 C2248 1.425 . S
C2253 C2250 1.409 . S
C2253 C2251 1.415 . S
C2254 H2244 0.930 . S
C2254 C2252 1.419 . S
C2254 C2255 1.362 . S
C2255 H2245 0.930 . S
C2255 C2248 1.409 . S
C2255 C2254 1.362 . S
H2256 C2262 0.930 . S
H2257 C2265 0.930 . S
H2258 C2266 0.930 . S
H2259 C2267 0.930 . S
H2260 C2270 0.930 . S
H2261 C2271 0.930 . S
C2262 H2256 0.930 . S
C2262 C2263 1.355 . S
C2262 C2264 1.415 . S
C2263 C2262 1.355 . S
C2263 C2265 1.419 . S
C2264 C2262 1.415 . S
C2264 C2269 1.425 . S
C2264 C2271 1.409 . S
C2265 H2257 0.930 . S
C2265 C2263 1.419 . S
C2265 C2266 1.362 . S
C2266 H2258 0.930 . S
C2266 C2265 1.362 . S
C2266 C2269 1.409 . S
C2267 H2259 0.930 . S
C2267 C2268 1.355 . S
C2267 C2269 1.415 . S
C2268 C2267 1.355 . S
C2268 C2270 1.419 . S
C2269 C2264 1.425 . S
C2269 C2266 1.409 . S
C2269 C2267 1.415 . S
C2270 H2260 0.930 . S
C2270 C2268 1.419 . S
C2270 C2271 1.362 . S
C2271 H2261 0.930 . S
C2271 C2264 1.409 . S
C2271 C2270 1.362 . S
H2272 C2278 0.930 . S
H2273 C2281 0.930 . S
H2274 C2282 0.930 . S
H2275 C2283 0.930 . S
H2276 C2286 0.930 . S
H2277 C2287 0.930 . S
C2278 H2272 0.930 . S
C2278 C2279 1.355 . S
C2278 C2280 1.415 . S
C2279 C2278 1.355 . S
C2279 C2281 1.419 . S
C2280 C2278 1.415 . S
C2280 C2285 1.425 . S
C2280 C2287 1.409 . S
C2281 H2273 0.930 . S
C2281 C2279 1.419 . S
C2281 C2282 1.362 . S
C2282 H2274 0.930 . S
C2282 C2281 1.362 . S
C2282 C2285 1.409 . S
C2283 H2275 0.930 . S
C2283 C2284 1.355 . S
C2283 C2285 1.415 . S
C2284 C2283 1.355 . S
C2284 C2286 1.419 . S
C2285 C2280 1.425 . S
C2285 C2282 1.409 . S
C2285 C2283 1.415 . S
C2286 H2276 0.930 . S
C2286 C2284 1.419 . S
C2286 C2287 1.362 . S
C2287 H2277 0.930 . S
C2287 C2280 1.409 . S
C2287 C2286 1.362 . S
H2288 C2294 0.930 . S
H2289 C2297 0.930 . S
H2290 C2298 0.930 . S
H2291 C2299 0.930 . S
H2292 C2302 0.930 . S
H2293 C2303 0.930 . S
C2294 H2288 0.930 . S
C2294 C2295 1.355 . S
C2294 C2296 1.415 . S
C2295 C2294 1.355 . S
C2295 C2297 1.419 . S
C2296 C2294 1.415 . S
C2296 C2301 1.425 . S
C2296 C2303 1.409 . S
C2297 H2289 0.930 . S
C2297 C2295 1.419 . S
C2297 C2298 1.362 . S
C2298 H2290 0.930 . S
C2298 C2297 1.362 . S
C2298 C2301 1.409 . S
C2299 H2291 0.930 . S
C2299 C2300 1.355 . S
C2299 C2301 1.415 1_554 S
C2300 C2299 1.355 . S
C2300 C2302 1.419 . S
C2301 C2296 1.425 . S
C2301 C2298 1.409 . S
C2301 C2299 1.415 1_556 S
C2302 H2292 0.930 . S
C2302 C2300 1.419 . S
C2302 C2303 1.362 1_554 S
C2303 H2293 0.930 . S
C2303 C2296 1.409 . S
C2303 C2302 1.362 1_556 S
H2304 C2310 0.930 . S
H2305 C2313 0.930 . S
H2306 C2314 0.930 . S
H2307 C2315 0.930 . S
H2308 C2318 0.930 . S
H2309 C2319 0.930 . S
C2310 H2304 0.930 . S
C2310 C2311 1.355 . S
C2310 C2312 1.415 . S
C2311 C2310 1.355 . S
C2311 C2313 1.419 . S
C2312 C2310 1.415 . S
C2312 C2317 1.425 . S
C2312 C2319 1.409 . S
C2313 H2305 0.930 . S
C2313 C2311 1.419 . S
C2313 C2314 1.362 . S
C2314 H2306 0.930 . S
C2314 C2313 1.362 . S
C2314 C2317 1.409 . S
C2315 H2307 0.930 . S
C2315 C2316 1.355 . S
C2315 C2317 1.415 . S
C2316 C2315 1.355 . S
C2316 C2318 1.419 . S
C2317 C2312 1.425 . S
C2317 C2314 1.409 . S
C2317 C2315 1.415 . S
C2318 H2308 0.930 . S
C2318 C2316 1.419 . S
C2318 C2319 1.362 . S
C2319 H2309 0.930 . S
C2319 C2312 1.409 . S
C2319 C2318 1.362 . S
H2320 C2326 0.930 . S
H2321 C2329 0.930 . S
H2322 C2330 0.930 . S
H2323 C2331 0.930 . S
H2324 C2334 0.930 . S
H2325 C2335 0.930 . S
C2326 H2320 0.930 . S
C2326 C2327 1.355 . S
C2326 C2328 1.415 . S
C2327 C2326 1.355 . S
C2327 C2329 1.419 . S
C2328 C2326 1.415 . S
C2328 C2333 1.425 . S
C2328 C2335 1.409 . S
C2329 H2321 0.930 . S
C2329 C2327 1.419 . S
C2329 C2330 1.362 . S
C2330 H2322 0.930 . S
C2330 C2329 1.362 . S
C2330 C2333 1.409 . S
C2331 H2323 0.930 . S
C2331 C2332 1.355 . S
C2331 C2333 1.415 . S
C2332 C2331 1.355 . S
C2332 C2334 1.419 . S
C2333 C2328 1.425 . S
C2333 C2330 1.409 . S
C2333 C2331 1.415 . S
C2334 H2324 0.930 . S
C2334 C2332 1.419 . S
C2334 C2335 1.362 . S
C2335 H2325 0.930 . S
C2335 C2328 1.409 . S
C2335 C2334 1.362 . S
H2336 C2342 0.930 . S
H2337 C2345 0.930 . S
H2338 C2346 0.930 . S
H2339 C2347 0.930 . S
H2340 C2350 0.930 . S
H2341 C2351 0.930 . S
C2342 H2336 0.930 . S
C2342 C2343 1.355 . S
C2342 C2344 1.415 . S
C2343 C2342 1.355 . S
C2343 C2345 1.419 . S
C2344 C2342 1.415 . S
C2344 C2349 1.425 . S
C2344 C2351 1.409 . S
C2345 H2337 0.930 . S
C2345 C2343 1.419 . S
C2345 C2346 1.362 . S
C2346 H2338 0.930 . S
C2346 C2345 1.362 . S
C2346 C2349 1.409 . S
C2347 H2339 0.930 . S
C2347 C2348 1.355 . S
C2347 C2349 1.415 . S
C2348 C2347 1.355 . S
C2348 C2350 1.419 . S
C2349 C2344 1.425 . S
C2349 C2346 1.409 . S
C2349 C2347 1.415 . S
C2350 H2340 0.930 . S
C2350 C2348 1.419 . S
C2350 C2351 1.362 . S
C2351 H2341 0.930 . S
C2351 C2344 1.409 . S
C2351 C2350 1.362 . S
H2352 C2358 0.930 . S
H2353 C2361 0.930 . S
H2354 C2362 0.930 . S
H2355 C2363 0.930 . S
H2356 C2366 0.930 . S
H2357 C2367 0.930 . S
C2358 H2352 0.930 . S
C2358 C2359 1.355 . S
C2358 C2360 1.415 1_556 S
C2359 C2358 1.355 . S
C2359 C2361 1.419 . S
C2360 C2358 1.415 1_554 S
C2360 C2365 1.425 . S
C2360 C2367 1.409 . S
C2361 H2353 0.930 . S
C2361 C2359 1.419 . S
C2361 C2362 1.362 1_556 S
C2362 H2354 0.930 . S
C2362 C2361 1.362 1_554 S
C2362 C2365 1.409 . S
C2363 H2355 0.930 . S
C2363 C2364 1.355 . S
C2363 C2365 1.415 . S
C2364 C2363 1.355 . S
C2364 C2366 1.419 . S
C2365 C2360 1.425 . S
C2365 C2362 1.409 . S
C2365 C2363 1.415 . S
C2366 H2356 0.930 . S
C2366 C2364 1.419 . S
C2366 C2367 1.362 . S
C2367 H2357 0.930 . S
C2367 C2360 1.409 . S
C2367 C2366 1.362 . S
H2368 C2374 0.930 . S
H2369 C2377 0.930 . S
H2370 C2378 0.930 . S
H2371 C2379 0.930 . S
H2372 C2382 0.930 . S
H2373 C2383 0.930 . S
C2374 H2368 0.930 . S
C2374 C2375 1.355 . S
C2374 C2376 1.415 . S
C2375 C2374 1.355 . S
C2375 C2377 1.419 . S
C2376 C2374 1.415 . S
C2376 C2381 1.425 . S
C2376 C2383 1.409 . S
C2377 H2369 0.930 . S
C2377 C2375 1.419 . S
C2377 C2378 1.362 . S
C2378 H2370 0.930 . S
C2378 C2377 1.362 . S
C2378 C2381 1.409 . S
C2379 H2371 0.930 . S
C2379 C2380 1.355 . S
C2379 C2381 1.415 . S
C2380 C2379 1.355 . S
C2380 C2382 1.419 . S
C2381 C2376 1.425 . S
C2381 C2378 1.409 . S
C2381 C2379 1.415 . S
C2382 H2372 0.930 . S
C2382 C2380 1.419 . S
C2382 C2383 1.362 . S
C2383 H2373 0.930 . S
C2383 C2376 1.409 . S
C2383 C2382 1.362 . S
H2384 C2390 0.930 . S
H2385 C2393 0.930 . S
H2386 C2394 0.930 . S
H2387 C2395 0.930 . S
H2388 C2398 0.930 . S
H2389 C2399 0.930 . S
C2390 H2384 0.930 . S
C2390 C2391 1.355 . S
C2390 C2392 1.415 . S
C2391 C2390 1.355 . S
C2391 C2393 1.419 . S
C2392 C2390 1.415 . S
C2392 C2397 1.425 . S
C2392 C2399 1.409 . S
C2393 H2385 0.930 . S
C2393 C2391 1.419 . S
C2393 C2394 1.362 . S
C2394 H2386 0.930 . S
C2394 C2393 1.362 . S
C2394 C2397 1.409 . S
C2395 H2387 0.930 . S
C2395 C2396 1.355 . S
C2395 C2397 1.415 . S
C2396 C2395 1.355 . S
C2396 C2398 1.419 . S
C2397 C2392 1.425 . S
C2397 C2394 1.409 . S
C2397 C2395 1.415 . S
C2398 H2388 0.930 . S
C2398 C2396 1.419 . S
C2398 C2399 1.362 . S
C2399 H2389 0.930 . S
C2399 C2392 1.409 . S
C2399 C2398 1.362 . S
H2400 C2406 0.930 . S
H2401 C2409 0.930 . S
H2402 C2410 0.930 . S
H2403 C2411 0.930 . S
H2404 C2414 0.930 . S
H2405 C2415 0.930 . S
C2406 H2400 0.930 . S
C2406 C2407 1.355 . S
C2406 C2408 1.415 . S
C2407 C2406 1.355 . S
C2407 C2409 1.419 . S
C2408 C2406 1.415 . S
C2408 C2413 1.425 . S
C2408 C2415 1.409 . S
C2409 H2401 0.930 . S
C2409 C2407 1.419 . S
C2409 C2410 1.362 . S
C2410 H2402 0.930 . S
C2410 C2409 1.362 . S
C2410 C2413 1.409 . S
C2411 H2403 0.930 . S
C2411 C2412 1.355 . S
C2411 C2413 1.415 . S
C2412 C2411 1.355 . S
C2412 C2414 1.419 . S
C2413 C2408 1.425 . S
C2413 C2410 1.409 . S
C2413 C2411 1.415 . S
C2414 H2404 0.930 . S
C2414 C2412 1.419 . S
C2414 C2415 1.362 . S
C2415 H2405 0.930 . S
C2415 C2408 1.409 . S
C2415 C2414 1.362 . S
H2416 C2422 0.930 . S
H2417 C2425 0.930 . S
H2418 C2426 0.930 . S
H2419 C2427 0.930 . S
H2420 C2430 0.930 . S
H2421 C2431 0.930 . S
C2422 H2416 0.930 . S
C2422 C2423 1.355 . S
C2422 C2424 1.415 . S
C2423 C2422 1.355 . S
C2423 C2425 1.419 . S
C2424 C2422 1.415 . S
C2424 C2429 1.425 . S
C2424 C2431 1.409 . S
C2425 H2417 0.930 . S
C2425 C2423 1.419 . S
C2425 C2426 1.362 . S
C2426 H2418 0.930 . S
C2426 C2425 1.362 . S
C2426 C2429 1.409 . S
C2427 H2419 0.930 . S
C2427 C2428 1.355 . S
C2427 C2429 1.415 . S
C2428 C2427 1.355 . S
C2428 C2430 1.419 . S
C2429 C2424 1.425 . S
C2429 C2426 1.409 . S
C2429 C2427 1.415 . S
C2430 H2420 0.930 . S
C2430 C2428 1.419 . S
C2430 C2431 1.362 . S
C2431 H2421 0.930 . S
C2431 C2424 1.409 . S
C2431 C2430 1.362 . S
H2432 C2438 0.930 . S
H2433 C2441 0.930 . S
H2434 C2442 0.930 . S
H2435 C2443 0.930 . S
H2436 C2446 0.930 . S
H2437 C2447 0.930 . S
C2438 H2432 0.930 . S
C2438 C2439 1.355 . S
C2438 C2440 1.415 1_565 S
C2439 C2438 1.355 . S
C2439 C2441 1.419 . S
C2440 C2438 1.415 1_545 S
C2440 C2445 1.425 . S
C2440 C2447 1.409 . S
C2441 H2433 0.930 . S
C2441 C2439 1.419 . S
C2441 C2442 1.362 1_565 S
C2442 H2434 0.930 . S
C2442 C2441 1.362 1_545 S
C2442 C2445 1.409 . S
C2443 H2435 0.930 . S
C2443 C2444 1.355 . S
C2443 C2445 1.415 . S
C2444 C2443 1.355 . S
C2444 C2446 1.419 . S
C2445 C2440 1.425 . S
C2445 C2442 1.409 . S
C2445 C2443 1.415 . S
C2446 H2436 0.930 . S
C2446 C2444 1.419 . S
C2446 C2447 1.362 . S
C2447 H2437 0.930 . S
C2447 C2440 1.409 . S
C2447 C2446 1.362 . S
H2448 C2454 0.930 . S
H2449 C2457 0.930 . S
H2450 C2458 0.930 . S
H2451 C2459 0.930 . S
H2452 C2462 0.930 . S
H2453 C2463 0.930 . S
C2454 H2448 0.930 . S
C2454 C2455 1.355 . S
C2454 C2456 1.415 . S
C2455 C2454 1.355 . S
C2455 C2457 1.419 . S
C2456 C2454 1.415 . S
C2456 C2461 1.425 . S
C2456 C2463 1.409 . S
C2457 H2449 0.930 . S
C2457 C2455 1.419 . S
C2457 C2458 1.362 . S
C2458 H2450 0.930 . S
C2458 C2457 1.362 . S
C2458 C2461 1.409 . S
C2459 H2451 0.930 . S
C2459 C2460 1.355 . S
C2459 C2461 1.415 . S
C2460 C2459 1.355 . S
C2460 C2462 1.419 . S
C2461 C2456 1.425 . S
C2461 C2458 1.409 . S
C2461 C2459 1.415 . S
C2462 H2452 0.930 . S
C2462 C2460 1.419 . S
C2462 C2463 1.362 . S
C2463 H2453 0.930 . S
C2463 C2456 1.409 . S
C2463 C2462 1.362 . S
H2464 C2470 0.930 . S
H2465 C2473 0.930 . S
H2466 C2474 0.930 . S
H2467 C2475 0.930 . S
H2468 C2478 0.930 . S
H2469 C2479 0.930 . S
C2470 H2464 0.930 . S
C2470 C2471 1.355 . S
C2470 C2472 1.415 . S
C2471 C2470 1.355 . S
C2471 C2473 1.419 . S
C2472 C2470 1.415 . S
C2472 C2477 1.425 . S
C2472 C2479 1.409 . S
C2473 H2465 0.930 . S
C2473 C2471 1.419 . S
C2473 C2474 1.362 . S
C2474 H2466 0.930 . S
C2474 C2473 1.362 . S
C2474 C2477 1.409 . S
C2475 H2467 0.930 . S
C2475 C2476 1.355 . S
C2475 C2477 1.415 . S
C2476 C2475 1.355 . S
C2476 C2478 1.419 . S
C2477 C2472 1.425 . S
C2477 C2474 1.409 . S
C2477 C2475 1.415 . S
C2478 H2468 0.930 . S
C2478 C2476 1.419 . S
C2478 C2479 1.362 . S
C2479 H2469 0.930 . S
C2479 C2472 1.409 . S
C2479 C2478 1.362 . S
H2480 C2486 0.930 . S
H2481 C2489 0.930 . S
H2482 C2490 0.930 . S
H2483 C2491 0.930 . S
H2484 C2494 0.930 . S
H2485 C2495 0.930 . S
C2486 H2480 0.930 . S
C2486 C2487 1.355 . S
C2486 C2488 1.415 . S
C2487 C2486 1.355 . S
C2487 C2489 1.419 . S
C2488 C2486 1.415 . S
C2488 C2493 1.425 . S
C2488 C2495 1.409 . S
C2489 H2481 0.930 . S
C2489 C2487 1.419 . S
C2489 C2490 1.362 . S
C2490 H2482 0.930 . S
C2490 C2489 1.362 . S
C2490 C2493 1.409 . S
C2491 H2483 0.930 . S
C2491 C2492 1.355 . S
C2491 C2493 1.415 . S
C2492 C2491 1.355 . S
C2492 C2494 1.419 . S
C2493 C2488 1.425 . S
C2493 C2490 1.409 . S
C2493 C2491 1.415 . S
C2494 H2484 0.930 . S
C2494 C2492 1.419 . S
C2494 C2495 1.362 . S
C2495 H2485 0.930 . S
C2495 C2488 1.409 . S
C2495 C2494 1.362 . S
H2496 C2502 0.930 . S
H2497 C2505 0.930 . S
H2498 C2506 0.930 . S
H2499 C2507 0.930 . S
H2500 C2510 0.930 . S
H2501 C2511 0.930 . S
C2502 H2496 0.930 . S
C2502 C2503 1.355 . S
C2502 C2504 1.415 . S
C2503 C2502 1.355 . S
C2503 C2505 1.419 . S
C2504 C2502 1.415 . S
C2504 C2509 1.425 . S
C2504 C2511 1.409 . S
C2505 H2497 0.930 . S
C2505 C2503 1.419 . S
C2505 C2506 1.362 . S
C2506 H2498 0.930 . S
C2506 C2505 1.362 . S
C2506 C2509 1.409 . S
C2507 H2499 0.930 . S
C2507 C2508 1.355 . S
C2507 C2509 1.415 . S
C2508 C2507 1.355 . S
C2508 C2510 1.419 . S
C2509 C2504 1.425 . S
C2509 C2506 1.409 . S
C2509 C2507 1.415 . S
C2510 H2500 0.930 . S
C2510 C2508 1.419 . S
C2510 C2511 1.362 . S
C2511 H2501 0.930 . S
C2511 C2504 1.409 . S
C2511 C2510 1.362 . S
H2512 C2518 0.930 . S
H2513 C2521 0.930 . S
H2514 C2522 0.930 . S
H2515 C2523 0.930 . S
H2516 C2526 0.930 . S
H2517 C2527 0.930 . S
C2518 H2512 0.930 . S
C2518 C2519 1.355 . S
C2518 C2520 1.415 . S
C2519 C2518 1.355 . S
C2519 C2521 1.419 . S
C2520 C2518 1.415 . S
C2520 C2525 1.425 . S
C2520 C2527 1.409 . S
C2521 H2513 0.930 . S
C2521 C2519 1.419 . S
C2521 C2522 1.362 . S
C2522 H2514 0.930 . S
C2522 C2521 1.362 . S
C2522 C2525 1.409 . S
C2523 H2515 0.930 . S
C2523 C2524 1.355 . S
C2523 C2525 1.415 . S
C2524 C2523 1.355 . S
C2524 C2526 1.419 . S
C2525 C2520 1.425 . S
C2525 C2522 1.409 . S
C2525 C2523 1.415 . S
C2526 H2516 0.930 . S
C2526 C2524 1.419 . S
C2526 C2527 1.362 . S
C2527 H2517 0.930 . S
C2527 C2520 1.409 . S
C2527 C2526 1.362 . S
H2528 C2534 0.930 . S
H2529 C2537 0.930 . S
H2530 C2538 0.930 . S
H2531 C2539 0.930 . S
H2532 C2542 0.930 . S
H2533 C2543 0.930 . S
C2534 H2528 0.930 . S
C2534 C2535 1.355 . S
C2534 C2536 1.415 . S
C2535 C2534 1.355 . S
C2535 C2537 1.419 . S
C2536 C2534 1.415 . S
C2536 C2541 1.425 . S
C2536 C2543 1.409 . S
C2537 H2529 0.930 . S
C2537 C2535 1.419 . S
C2537 C2538 1.362 . S
C2538 H2530 0.930 . S
C2538 C2537 1.362 . S
C2538 C2541 1.409 . S
C2539 H2531 0.930 . S
C2539 C2540 1.355 . S
C2539 C2541 1.415 . S
C2540 C2539 1.355 . S
C2540 C2542 1.419 . S
C2541 C2536 1.425 . S
C2541 C2538 1.409 . S
C2541 C2539 1.415 . S
C2542 H2532 0.930 . S
C2542 C2540 1.419 . S
C2542 C2543 1.362 . S
C2543 H2533 0.930 . S
C2543 C2536 1.409 . S
C2543 C2542 1.362 . S
H2544 C2550 0.930 . S
H2545 C2553 0.930 . S
H2546 C2554 0.932 . S
H2547 C2555 0.930 . S
H2548 C2558 0.930 . S
H2549 C2559 0.930 . S
C2550 H2544 0.930 . S
C2550 C2551 1.355 . S
C2550 C2552 1.415 1_655 S
C2551 C2550 1.355 . S
C2551 C2553 1.419 . S
C2552 C2550 1.415 1_455 S
C2552 C2557 1.425 . S
C2552 C2559 1.409 . S
C2553 H2545 0.930 . S
C2553 C2551 1.419 . S
C2553 C2554 1.346 1_655 S
C2554 H2546 0.932 . S
C2554 C2553 1.346 1_455 S
C2554 C2557 1.424 . S
C2555 H2547 0.930 . S
C2555 C2556 1.355 . S
C2555 C2557 1.415 . S
C2556 C2555 1.355 . S
C2556 C2558 1.419 . S
C2557 C2552 1.425 . S
C2557 C2554 1.424 . S
C2557 C2555 1.415 . S
C2558 H2548 0.930 . S
C2558 C2556 1.419 . S
C2558 C2559 1.362 . S
C2559 H2549 0.930 . S
C2559 C2552 1.409 . S
C2559 C2558 1.362 . S
H2560 C2566 0.930 . S
H2561 C2569 0.930 . S
H2562 C2570 0.930 . S
H2563 C2571 0.930 . S
H2564 C2574 0.930 . S
H2565 C2575 0.930 . S
C2566 H2560 0.930 . S
C2566 C2567 1.355 . S
C2566 C2568 1.415 . S
C2567 C2566 1.355 . S
C2567 C2569 1.419 . S
C2568 C2566 1.415 . S
C2568 C2573 1.425 . S
C2568 C2575 1.409 . S
C2569 H2561 0.930 . S
C2569 C2567 1.419 . S
C2569 C2570 1.362 . S
C2570 H2562 0.930 . S
C2570 C2569 1.362 . S
C2570 C2573 1.409 . S
C2571 H2563 0.930 . S
C2571 C2572 1.355 . S
C2571 C2573 1.415 . S
C2572 C2571 1.355 . S
C2572 C2574 1.419 . S
C2573 C2568 1.425 . S
C2573 C2570 1.409 . S
C2573 C2571 1.415 . S
C2574 H2564 0.930 . S
C2574 C2572 1.419 . S
C2574 C2575 1.362 . S
C2575 H2565 0.930 . S
C2575 C2568 1.409 . S
C2575 C2574 1.362 . S
H2576 C2582 0.930 . S
H2577 C2585 0.930 . S
H2578 C2586 0.930 . S
H2579 C2587 0.930 . S
H2580 C2590 0.930 . S
H2581 C2591 0.930 . S
C2582 H2576 0.930 . S
C2582 C2583 1.355 . S
C2582 C2584 1.415 . S
C2583 C2582 1.355 . S
C2583 C2585 1.419 . S
C2584 C2582 1.415 . S
C2584 C2589 1.425 . S
C2584 C2591 1.409 . S
C2585 H2577 0.930 . S
C2585 C2583 1.419 . S
C2585 C2586 1.362 . S
C2586 H2578 0.930 . S
C2586 C2585 1.362 . S
C2586 C2589 1.409 . S
C2587 H2579 0.930 . S
C2587 C2588 1.355 . S
C2587 C2589 1.415 1_655 S
C2588 C2587 1.355 . S
C2588 C2590 1.419 . S
C2589 C2584 1.425 . S
C2589 C2586 1.409 . S
C2589 C2587 1.415 1_455 S
C2590 H2580 0.930 . S
C2590 C2588 1.419 . S
C2590 C2591 1.362 1_655 S
C2591 H2581 0.930 . S
C2591 C2584 1.409 . S
C2591 C2590 1.362 1_455 S
H2592 C2598 0.930 . S
H2593 C2601 0.930 . S
H2594 C2602 0.930 . S
H2595 C2603 0.930 . S
H2596 C2606 0.930 . S
H2597 C2607 0.930 . S
C2598 H2592 0.930 . S
C2598 C2599 1.355 . S
C2598 C2600 1.415 . S
C2599 C2598 1.355 . S
C2599 C2601 1.419 . S
C2600 C2598 1.415 . S
C2600 C2605 1.425 . S
C2600 C2607 1.409 . S
C2601 H2593 0.930 . S
C2601 C2599 1.419 . S
C2601 C2602 1.362 . S
C2602 H2594 0.930 . S
C2602 C2601 1.362 . S
C2602 C2605 1.409 . S
C2603 H2595 0.930 . S
C2603 C2604 1.355 . S
C2603 C2605 1.415 . S
C2604 C2603 1.355 . S
C2604 C2606 1.419 . S
C2605 C2600 1.425 . S
C2605 C2602 1.409 . S
C2605 C2603 1.415 . S
C2606 H2596 0.930 . S
C2606 C2604 1.419 . S
C2606 C2607 1.362 . S
C2607 H2597 0.930 . S
C2607 C2600 1.409 . S
C2607 C2606 1.362 . S
H2608 C2614 0.930 . S
H2609 C2617 0.930 . S
H2610 C2618 0.930 . S
H2611 C2619 0.930 . S
H2612 C2622 0.930 . S
H2613 C2623 0.930 . S
C2614 H2608 0.930 . S
C2614 C2615 1.355 . S
C2614 C2616 1.415 . S
C2615 C2614 1.355 . S
C2615 C2617 1.419 . S
C2616 C2614 1.415 . S
C2616 C2621 1.425 . S
C2616 C2623 1.409 . S
C2617 H2609 0.930 . S
C2617 C2615 1.419 . S
C2617 C2618 1.362 . S
C2618 H2610 0.930 . S
C2618 C2617 1.362 . S
C2618 C2621 1.409 . S
C2619 H2611 0.930 . S
C2619 C2620 1.355 . S
C2619 C2621 1.415 . S
C2620 C2619 1.355 . S
C2620 C2622 1.419 . S
C2621 C2616 1.425 . S
C2621 C2618 1.409 . S
C2621 C2619 1.415 . S
C2622 H2612 0.930 . S
C2622 C2620 1.419 . S
C2622 C2623 1.362 . S
C2623 H2613 0.930 . S
C2623 C2616 1.409 . S
C2623 C2622 1.362 . S
H2624 C2630 0.930 . S
H2625 C2633 0.930 . S
H2626 C2634 0.930 . S
H2627 C2635 0.930 . S
H2628 C2638 0.930 . S
H2629 C2639 0.930 . S
C2630 H2624 0.930 . S
C2630 C2631 1.355 . S
C2630 C2632 1.415 . S
C2631 C2630 1.355 . S
C2631 C2633 1.419 . S
C2632 C2630 1.415 . S
C2632 C2637 1.425 . S
C2632 C2639 1.409 . S
C2633 H2625 0.930 . S
C2633 C2631 1.419 . S
C2633 C2634 1.362 . S
C2634 H2626 0.930 . S
C2634 C2633 1.362 . S
C2634 C2637 1.409 . S
C2635 H2627 0.930 . S
C2635 C2636 1.355 . S
C2635 C2637 1.415 . S
C2636 C2635 1.355 . S
C2636 C2638 1.419 . S
C2637 C2632 1.425 . S
C2637 C2634 1.409 . S
C2637 C2635 1.415 . S
C2638 H2628 0.930 . S
C2638 C2636 1.419 . S
C2638 C2639 1.362 . S
C2639 H2629 0.930 . S
C2639 C2632 1.409 . S
C2639 C2638 1.362 . S
H2640 C2646 0.930 . S
H2641 C2649 0.930 . S
H2642 C2650 0.930 . S
H2643 C2651 0.930 . S
H2644 C2654 0.930 . S
H2645 C2655 0.925 1_554 S
C2646 H2640 0.930 . S
C2646 C2647 1.355 . S
C2646 C2648 1.415 . S
C2647 C2646 1.355 . S
C2647 C2649 1.419 . S
C2648 C2646 1.415 . S
C2648 C2653 1.425 . S
C2648 C2655 1.397 1_554 S
C2649 H2641 0.930 . S
C2649 C2647 1.419 . S
C2649 C2650 1.362 . S
C2650 H2642 0.930 . S
C2650 C2649 1.362 . S
C2650 C2653 1.409 . S
C2651 H2643 0.930 . S
C2651 C2652 1.355 . S
C2651 C2653 1.415 1_556 S
C2652 C2651 1.355 . S
C2652 C2654 1.419 . S
C2653 C2648 1.425 . S
C2653 C2650 1.409 . S
C2653 C2651 1.415 1_554 S
C2654 H2644 0.930 . S
C2654 C2652 1.419 . S
C2654 C2655 1.379 . S
C2655 H2645 0.925 1_556 S
C2655 C2648 1.397 1_556 S
C2655 C2654 1.379 . S
H2656 C2662 0.930 . S
H2657 C2665 0.930 . S
H2658 C2666 0.930 . S
H2659 C2667 0.930 . S
H2660 C2670 0.930 . S
H2661 C2671 0.930 . S
C2662 H2656 0.930 . S
C2662 C2663 1.355 . S
C2662 C2664 1.415 . S
C2663 C2662 1.355 . S
C2663 C2665 1.419 . S
C2664 C2662 1.415 . S
C2664 C2669 1.425 . S
C2664 C2671 1.409 . S
C2665 H2657 0.930 . S
C2665 C2663 1.419 . S
C2665 C2666 1.362 . S
C2666 H2658 0.930 . S
C2666 C2665 1.362 . S
C2666 C2669 1.409 . S
C2667 H2659 0.930 . S
C2667 C2668 1.355 . S
C2667 C2669 1.415 . S
C2668 C2667 1.355 . S
C2668 C2670 1.419 . S
C2669 C2664 1.425 . S
C2669 C2666 1.409 . S
C2669 C2667 1.415 . S
C2670 H2660 0.930 . S
C2670 C2668 1.419 . S
C2670 C2671 1.362 . S
C2671 H2661 0.930 . S
C2671 C2664 1.409 . S
C2671 C2670 1.362 . S
H2672 C2678 0.930 . S
H2673 C2681 0.930 . S
H2674 C2682 0.930 . S
H2675 C2683 0.930 . S
H2676 C2686 0.930 . S
H2677 C2687 0.930 . S
C2678 H2672 0.930 . S
C2678 C2679 1.355 . S
C2678 C2680 1.415 . S
C2679 C2678 1.355 . S
C2679 C2681 1.419 . S
C2680 C2678 1.415 . S
C2680 C2685 1.425 . S
C2680 C2687 1.409 . S
C2681 H2673 0.930 . S
C2681 C2679 1.419 . S
C2681 C2682 1.362 . S
C2682 H2674 0.930 . S
C2682 C2681 1.362 . S
C2682 C2685 1.409 . S
C2683 H2675 0.930 . S
C2683 C2684 1.355 . S
C2683 C2685 1.415 . S
C2684 C2683 1.355 . S
C2684 C2686 1.419 . S
C2685 C2680 1.425 . S
C2685 C2682 1.409 . S
C2685 C2683 1.415 . S
C2686 H2676 0.930 . S
C2686 C2684 1.419 . S
C2686 C2687 1.362 . S
C2687 H2677 0.930 . S
C2687 C2680 1.409 . S
C2687 C2686 1.362 . S
H2688 C2694 0.930 . S
H2689 C2697 0.930 . S
H2690 C2698 0.930 . S
H2691 C2699 0.930 . S
H2692 C2702 0.930 . S
H2693 C2703 0.930 . S
C2694 H2688 0.930 . S
C2694 C2695 1.355 . S
C2694 C2696 1.415 . S
C2695 C2694 1.355 . S
C2695 C2697 1.419 . S
C2696 C2694 1.415 . S
C2696 C2701 1.425 . S
C2696 C2703 1.409 . S
C2697 H2689 0.930 . S
C2697 C2695 1.419 . S
C2697 C2698 1.362 . S
C2698 H2690 0.930 . S
C2698 C2697 1.362 . S
C2698 C2701 1.409 . S
C2699 H2691 0.930 . S
C2699 C2700 1.355 . S
C2699 C2701 1.415 . S
C2700 C2699 1.355 . S
C2700 C2702 1.419 . S
C2701 C2696 1.425 . S
C2701 C2698 1.409 . S
C2701 C2699 1.415 . S
C2702 H2692 0.930 . S
C2702 C2700 1.419 . S
C2702 C2703 1.362 . S
C2703 H2693 0.930 . S
C2703 C2696 1.409 . S
C2703 C2702 1.362 . S
H2704 C2710 0.930 . S
H2705 C2713 0.930 . S
H2706 C2714 0.930 . S
H2707 C2715 0.930 . S
H2708 C2718 0.930 . S
H2709 C2719 0.930 . S
C2710 H2704 0.930 . S
C2710 C2711 1.355 . S
C2710 C2712 1.415 . S
C2711 C2710 1.355 . S
C2711 C2713 1.419 . S
C2712 C2710 1.415 . S
C2712 C2717 1.425 . S
C2712 C2719 1.409 1_556 S
C2713 H2705 0.930 . S
C2713 C2711 1.419 . S
C2713 C2714 1.362 . S
C2714 H2706 0.930 . S
C2714 C2713 1.362 . S
C2714 C2717 1.409 . S
C2715 H2707 0.930 . S
C2715 C2716 1.355 . S
C2715 C2717 1.415 1_554 S
C2716 C2715 1.355 . S
C2716 C2718 1.419 . S
C2717 C2712 1.425 . S
C2717 C2714 1.409 . S
C2717 C2715 1.415 1_556 S
C2718 H2708 0.930 . S
C2718 C2716 1.419 . S
C2718 C2719 1.362 . S
C2719 H2709 0.930 . S
C2719 C2712 1.409 1_554 S
C2719 C2718 1.362 . S
H2720 C2726 0.930 . S
H2721 C2729 0.930 . S
H2722 C2730 0.930 . S
H2723 C2731 0.930 . S
H2724 C2734 0.930 . S
H2725 C2735 0.930 . S
C2726 H2720 0.930 . S
C2726 C2727 1.355 . S
C2726 C2728 1.415 . S
C2727 C2726 1.355 . S
C2727 C2729 1.419 . S
C2728 C2726 1.415 . S
C2728 C2733 1.425 . S
C2728 C2735 1.409 . S
C2729 H2721 0.930 . S
C2729 C2727 1.419 . S
C2729 C2730 1.362 . S
C2730 H2722 0.930 . S
C2730 C2729 1.362 . S
C2730 C2733 1.409 . S
C2731 H2723 0.930 . S
C2731 C2732 1.355 . S
C2731 C2733 1.415 . S
C2732 C2731 1.355 . S
C2732 C2734 1.419 . S
C2733 C2728 1.425 . S
C2733 C2730 1.409 . S
C2733 C2731 1.415 . S
C2734 H2724 0.930 . S
C2734 C2732 1.419 . S
C2734 C2735 1.362 . S
C2735 H2725 0.930 . S
C2735 C2728 1.409 . S
C2735 C2734 1.362 . S
H2736 C2742 0.930 . S
H2737 C2745 0.930 . S
H2738 C2746 0.930 . S
H2739 C2747 0.930 . S
H2740 C2750 0.930 . S
H2741 C2751 0.930 . S
C2742 H2736 0.930 . S
C2742 C2743 1.355 . S
C2742 C2744 1.415 . S
C2743 C2742 1.355 . S
C2743 C2745 1.419 . S
C2744 C2742 1.415 . S
C2744 C2749 1.425 . S
C2744 C2751 1.409 . S
C2745 H2737 0.930 . S
C2745 C2743 1.419 . S
C2745 C2746 1.362 . S
C2746 H2738 0.930 . S
C2746 C2745 1.362 . S
C2746 C2749 1.409 . S
C2747 H2739 0.930 . S
C2747 C2748 1.355 . S
C2747 C2749 1.415 . S
C2748 C2747 1.355 . S
C2748 C2750 1.419 . S
C2749 C2744 1.425 . S
C2749 C2746 1.409 . S
C2749 C2747 1.415 . S
C2750 H2740 0.930 . S
C2750 C2748 1.419 . S
C2750 C2751 1.362 . S
C2751 H2741 0.930 . S
C2751 C2744 1.409 . S
C2751 C2750 1.362 . S
H2752 C2758 0.930 . S
H2753 C2761 0.930 . S
H2754 C2762 0.930 . S
H2755 C2763 0.930 . S
H2756 C2766 0.930 . S
H2757 C2767 0.930 . S
C2758 H2752 0.930 . S
C2758 C2759 1.355 . S
C2758 C2760 1.415 . S
C2759 C2758 1.355 . S
C2759 C2761 1.419 . S
C2760 C2758 1.415 . S
C2760 C2765 1.425 . S
C2760 C2767 1.409 . S
C2761 H2753 0.930 . S
C2761 C2759 1.419 . S
C2761 C2762 1.362 . S
C2762 H2754 0.930 . S
C2762 C2761 1.362 . S
C2762 C2765 1.409 . S
C2763 H2755 0.930 . S
C2763 C2764 1.355 . S
C2763 C2765 1.415 . S
C2764 C2763 1.355 . S
C2764 C2766 1.419 . S
C2765 C2760 1.425 . S
C2765 C2762 1.409 . S
C2765 C2763 1.415 . S
C2766 H2756 0.930 . S
C2766 C2764 1.419 . S
C2766 C2767 1.362 . S
C2767 H2757 0.930 . S
C2767 C2760 1.409 . S
C2767 C2766 1.362 . S
H2768 C2774 0.930 . S
H2769 C2777 0.930 . S
H2770 C2778 0.930 . S
H2771 C2779 0.930 . S
H2772 C2782 0.930 . S
H2773 C2783 0.930 . S
C2774 H2768 0.930 . S
C2774 C2775 1.355 . S
C2774 C2776 1.415 . S
C2775 C2774 1.355 . S
C2775 C2777 1.419 . S
C2776 C2774 1.415 . S
C2776 C2781 1.425 . S
C2776 C2783 1.409 . S
C2777 H2769 0.930 . S
C2777 C2775 1.419 . S
C2777 C2778 1.362 . S
C2778 H2770 0.930 . S
C2778 C2777 1.362 . S
C2778 C2781 1.409 . S
C2779 H2771 0.930 . S
C2779 C2780 1.355 . S
C2779 C2781 1.415 . S
C2780 C2779 1.355 . S
C2780 C2782 1.419 . S
C2781 C2776 1.425 . S
C2781 C2778 1.409 . S
C2781 C2779 1.415 . S
C2782 H2772 0.930 . S
C2782 C2780 1.419 . S
C2782 C2783 1.362 . S
C2783 H2773 0.930 . S
C2783 C2776 1.409 . S
C2783 C2782 1.362 . S
H2784 C2790 0.930 . S
H2785 C2793 0.930 . S
H2786 C2794 0.930 . S
H2787 C2795 0.930 . S
H2788 C2798 0.930 . S
H2789 C2799 0.923 1_545 S
C2790 H2784 0.930 . S
C2790 C2791 1.355 . S
C2790 C2792 1.415 . S
C2791 C2790 1.355 . S
C2791 C2793 1.419 . S
C2792 C2790 1.415 . S
C2792 C2797 1.425 . S
C2792 C2799 1.371 1_545 S
C2793 H2785 0.930 . S
C2793 C2791 1.419 . S
C2793 C2794 1.362 . S
C2794 H2786 0.930 . S
C2794 C2793 1.362 . S
C2794 C2797 1.409 . S
C2795 H2787 0.930 . S
C2795 C2796 1.355 . S
C2795 C2797 1.415 1_565 S
C2796 C2795 1.355 . S
C2796 C2798 1.419 . S
C2797 C2792 1.425 . S
C2797 C2794 1.409 . S
C2797 C2795 1.415 1_545 S
C2798 H2788 0.930 . S
C2798 C2796 1.419 . S
C2798 C2799 1.410 . S
C2799 H2789 0.923 1_565 S
C2799 C2792 1.371 1_565 S
C2799 C2798 1.410 . S
H2800 C2806 0.930 . S
H2801 C2809 0.930 . S
H2802 C2810 0.930 . S
H2803 C2811 0.930 . S
H2804 C2814 0.930 . S
H2805 C2815 0.930 . S
C2806 H2800 0.930 . S
C2806 C2807 1.355 . S
C2806 C2808 1.415 . S
C2807 C2806 1.355 . S
C2807 C2809 1.419 . S
C2808 C2806 1.415 . S
C2808 C2813 1.425 . S
C2808 C2815 1.409 . S
C2809 H2801 0.930 . S
C2809 C2807 1.419 . S
C2809 C2810 1.362 . S
C2810 H2802 0.930 . S
C2810 C2809 1.362 . S
C2810 C2813 1.409 . S
C2811 H2803 0.930 . S
C2811 C2812 1.355 . S
C2811 C2813 1.415 . S
C2812 C2811 1.355 . S
C2812 C2814 1.419 . S
C2813 C2808 1.425 . S
C2813 C2810 1.409 . S
C2813 C2811 1.415 . S
C2814 H2804 0.930 . S
C2814 C2812 1.419 . S
C2814 C2815 1.362 . S
C2815 H2805 0.930 . S
C2815 C2808 1.409 . S
C2815 C2814 1.362 . S
H2816 C2822 0.930 . S
H2817 C2825 0.930 . S
H2818 C2826 0.930 . S
H2819 C2827 0.930 . S
H2820 C2830 0.930 . S
H2821 C2831 0.930 . S
C2822 H2816 0.930 . S
C2822 C2823 1.355 . S
C2822 C2824 1.415 . S
C2823 C2822 1.355 . S
C2823 C2825 1.419 . S
C2824 C2822 1.415 . S
C2824 C2829 1.425 . S
C2824 C2831 1.409 . S
C2825 H2817 0.930 . S
C2825 C2823 1.419 . S
C2825 C2826 1.362 . S
C2826 H2818 0.930 . S
C2826 C2825 1.362 . S
C2826 C2829 1.409 . S
C2827 H2819 0.930 . S
C2827 C2828 1.355 . S
C2827 C2829 1.415 . S
C2828 C2827 1.355 . S
C2828 C2830 1.419 . S
C2829 C2824 1.425 . S
C2829 C2826 1.409 . S
C2829 C2827 1.415 . S
C2830 H2820 0.930 . S
C2830 C2828 1.419 . S
C2830 C2831 1.362 . S
C2831 H2821 0.930 . S
C2831 C2824 1.409 . S
C2831 C2830 1.362 . S
H2832 C2838 0.930 . S
H2833 C2841 0.930 . S
H2834 C2842 0.930 . S
H2835 C2843 0.930 . S
H2836 C2846 0.930 . S
H2837 C2847 0.930 . S
C2838 H2832 0.930 . S
C2838 C2839 1.355 . S
C2838 C2840 1.415 . S
C2839 C2838 1.355 . S
C2839 C2841 1.419 . S
C2840 C2838 1.415 . S
C2840 C2845 1.425 . S
C2840 C2847 1.409 . S
C2841 H2833 0.930 . S
C2841 C2839 1.419 . S
C2841 C2842 1.362 . S
C2842 H2834 0.930 . S
C2842 C2841 1.362 . S
C2842 C2845 1.409 . S
C2843 H2835 0.930 . S
C2843 C2844 1.355 . S
C2843 C2845 1.415 . S
C2844 C2843 1.355 . S
C2844 C2846 1.419 . S
C2845 C2840 1.425 . S
C2845 C2842 1.409 . S
C2845 C2843 1.415 . S
C2846 H2836 0.930 . S
C2846 C2844 1.419 . S
C2846 C2847 1.362 . S
C2847 H2837 0.930 . S
C2847 C2840 1.409 . S
C2847 C2846 1.362 . S
H2848 C2854 0.930 . S
H2849 C2857 0.930 . S
H2850 C2858 0.923 1_565 S
H2851 C2859 0.930 . S
H2852 C2862 0.930 . S
H2853 C2863 0.930 . S
C2854 H2848 0.930 . S
C2854 C2855 1.355 . S
C2854 C2856 1.415 1_545 S
C2855 C2854 1.355 . S
C2855 C2857 1.419 . S
C2856 C2854 1.415 1_565 S
C2856 C2861 1.425 . S
C2856 C2863 1.409 . S
C2857 H2849 0.930 . S
C2857 C2855 1.419 . S
C2857 C2858 1.362 . S
C2858 H2850 0.923 1_545 S
C2858 C2857 1.362 . S
C2858 C2861 1.409 1_545 S
C2859 H2851 0.930 . S
C2859 C2860 1.355 . S
C2859 C2861 1.415 . S
C2860 C2859 1.355 . S
C2860 C2862 1.419 . S
C2861 C2856 1.425 . S
C2861 C2858 1.409 1_565 S
C2861 C2859 1.415 . S
C2862 H2852 0.930 . S
C2862 C2860 1.419 . S
C2862 C2863 1.362 . S
C2863 H2853 0.930 . S
C2863 C2856 1.409 . S
C2863 C2862 1.362 . S
H2864 C2870 0.930 . S
H2865 C2873 0.930 . S
H2866 C2874 0.930 . S
H2867 C2875 0.930 . S
H2868 C2878 0.930 . S
H2869 C2879 0.930 . S
C2870 H2864 0.930 . S
C2870 C2871 1.355 . S
C2870 C2872 1.415 . S
C2871 C2870 1.355 . S
C2871 C2873 1.419 . S
C2872 C2870 1.415 . S
C2872 C2877 1.425 . S
C2872 C2879 1.409 . S
C2873 H2865 0.930 . S
C2873 C2871 1.419 . S
C2873 C2874 1.362 . S
C2874 H2866 0.930 . S
C2874 C2873 1.362 . S
C2874 C2877 1.409 . S
C2875 H2867 0.930 . S
C2875 C2876 1.355 . S
C2875 C2877 1.415 1_565 S
C2876 C2875 1.355 . S
C2876 C2878 1.419 . S
C2877 C2872 1.425 . S
C2877 C2874 1.409 . S
C2877 C2875 1.415 1_545 S
C2878 H2868 0.930 . S
C2878 C2876 1.419 . S
C2878 C2879 1.362 1_565 S
C2879 H2869 0.930 . S
C2879 C2872 1.409 . S
C2879 C2878 1.362 1_545 S
H2880 C2886 0.930 . S
H2881 C2889 0.930 . S
H2882 C2890 0.930 . S
H2883 C2891 0.930 . S
H2884 C2894 0.930 . S
H2885 C2895 0.930 . S
C2886 H2880 0.930 . S
C2886 C2887 1.355 . S
C2886 C2888 1.415 . S
C2887 C2886 1.355 . S
C2887 C2889 1.419 . S
C2888 C2886 1.415 . S
C2888 C2893 1.425 . S
C2888 C2895 1.409 . S
C2889 H2881 0.930 . S
C2889 C2887 1.419 . S
C2889 C2890 1.362 . S
C2890 H2882 0.930 . S
C2890 C2889 1.362 . S
C2890 C2893 1.409 . S
C2891 H2883 0.930 . S
C2891 C2892 1.355 . S
C2891 C2893 1.415 . S
C2892 C2891 1.355 . S
C2892 C2894 1.419 . S
C2893 C2888 1.425 . S
C2893 C2890 1.409 . S
C2893 C2891 1.415 . S
C2894 H2884 0.930 . S
C2894 C2892 1.419 . S
C2894 C2895 1.362 . S
C2895 H2885 0.930 . S
C2895 C2888 1.409 . S
C2895 C2894 1.362 . S
H2896 C2902 0.930 . S
H2897 C2905 0.930 . S
H2898 C2906 0.930 . S
H2899 C2907 0.930 . S
H2900 C2910 0.930 . S
H2901 C2911 0.930 . S
C2902 H2896 0.930 . S
C2902 C2903 1.355 . S
C2902 C2904 1.415 . S
C2903 C2902 1.355 . S
C2903 C2905 1.419 . S
C2904 C2902 1.415 . S
C2904 C2909 1.425 . S
C2904 C2911 1.409 . S
C2905 H2897 0.930 . S
C2905 C2903 1.419 . S
C2905 C2906 1.362 . S
C2906 H2898 0.930 . S
C2906 C2905 1.362 . S
C2906 C2909 1.409 . S
C2907 H2899 0.930 . S
C2907 C2908 1.355 . S
C2907 C2909 1.415 . S
C2908 C2907 1.355 . S
C2908 C2910 1.419 . S
C2909 C2904 1.425 . S
C2909 C2906 1.409 . S
C2909 C2907 1.415 . S
C2910 H2900 0.930 . S
C2910 C2908 1.419 . S
C2910 C2911 1.362 . S
C2911 H2901 0.930 . S
C2911 C2904 1.409 . S
C2911 C2910 1.362 . S
H2912 C2918 0.930 . S
H2913 C2921 0.930 . S
H2914 C2922 0.930 . S
H2915 C2923 0.930 . S
H2916 C2926 0.930 . S
H2917 C2927 0.930 . S
C2918 H2912 0.930 . S
C2918 C2919 1.355 . S
C2918 C2920 1.415 . S
C2919 C2918 1.355 . S
C2919 C2921 1.419 . S
C2920 C2918 1.415 . S
C2920 C2925 1.425 . S
C2920 C2927 1.409 . S
C2921 H2913 0.930 . S
C2921 C2919 1.419 . S
C2921 C2922 1.362 . S
C2922 H2914 0.930 . S
C2922 C2921 1.362 . S
C2922 C2925 1.409 . S
C2923 H2915 0.930 . S
C2923 C2924 1.355 . S
C2923 C2925 1.415 . S
C2924 C2923 1.355 . S
C2924 C2926 1.419 . S
C2925 C2920 1.425 . S
C2925 C2922 1.409 . S
C2925 C2923 1.415 . S
C2926 H2916 0.930 . S
C2926 C2924 1.419 . S
C2926 C2927 1.362 . S
C2927 H2917 0.930 . S
C2927 C2920 1.409 . S
C2927 C2926 1.362 . S
H2928 C2934 0.930 . S
H2929 C2937 0.930 . S
H2930 C2938 0.930 . S
H2931 C2939 0.930 . S
H2932 C2942 0.930 . S
H2933 C2943 0.930 . S
C2934 H2928 0.930 . S
C2934 C2935 1.355 . S
C2934 C2936 1.415 1_455 S
C2935 C2934 1.355 . S
C2935 C2937 1.419 . S
C2936 C2934 1.415 1_655 S
C2936 C2941 1.425 . S
C2936 C2943 1.409 . S
C2937 H2929 0.930 . S
C2937 C2935 1.419 . S
C2937 C2938 1.362 1_455 S
C2938 H2930 0.930 . S
C2938 C2937 1.362 1_655 S
C2938 C2941 1.409 . S
C2939 H2931 0.930 . S
C2939 C2940 1.355 . S
C2939 C2941 1.415 . S
C2940 C2939 1.355 . S
C2940 C2942 1.419 . S
C2941 C2936 1.425 . S
C2941 C2938 1.409 . S
C2941 C2939 1.415 . S
C2942 H2932 0.930 . S
C2942 C2940 1.419 . S
C2942 C2943 1.362 . S
C2943 H2933 0.930 . S
C2943 C2936 1.409 . S
C2943 C2942 1.362 . S
H2944 C2950 0.930 . S
H2945 C2953 0.930 . S
H2946 C2954 0.930 . S
H2947 C2955 0.930 . S
H2948 C2958 0.930 . S
H2949 C2959 0.930 . S
C2950 H2944 0.930 . S
C2950 C2951 1.355 . S
C2950 C2952 1.415 . S
C2951 C2950 1.355 . S
C2951 C2953 1.419 . S
C2952 C2950 1.415 . S
C2952 C2957 1.425 . S
C2952 C2959 1.409 . S
C2953 H2945 0.930 . S
C2953 C2951 1.419 . S
C2953 C2954 1.362 . S
C2954 H2946 0.930 . S
C2954 C2953 1.362 . S
C2954 C2957 1.409 . S
C2955 H2947 0.930 . S
C2955 C2956 1.355 . S
C2955 C2957 1.415 . S
C2956 C2955 1.355 . S
C2956 C2958 1.419 . S
C2957 C2952 1.425 . S
C2957 C2954 1.409 . S
C2957 C2955 1.415 . S
C2958 H2948 0.930 . S
C2958 C2956 1.419 . S
C2958 C2959 1.362 . S
C2959 H2949 0.930 . S
C2959 C2952 1.409 . S
C2959 C2958 1.362 . S
H2960 C2966 0.930 . S
H2961 C2969 0.930 . S
H2962 C2970 0.930 . S
H2963 C2971 0.930 . S
H2964 C2974 0.930 . S
H2965 C2975 0.930 . S
C2966 H2960 0.930 . S
C2966 C2967 1.355 . S
C2966 C2968 1.415 1_455 S
C2967 C2966 1.355 . S
C2967 C2969 1.419 . S
C2968 C2966 1.415 1_655 S
C2968 C2973 1.425 . S
C2968 C2975 1.409 . S
C2969 H2961 0.930 . S
C2969 C2967 1.419 . S
C2969 C2970 1.362 . S
C2970 H2962 0.930 . S
C2970 C2969 1.362 . S
C2970 C2973 1.409 1_455 S
C2971 H2963 0.930 . S
C2971 C2972 1.355 . S
C2971 C2973 1.415 . S
C2972 C2971 1.355 . S
C2972 C2974 1.419 . S
C2973 C2968 1.425 . S
C2973 C2970 1.409 1_655 S
C2973 C2971 1.415 . S
C2974 H2964 0.930 . S
C2974 C2972 1.419 . S
C2974 C2975 1.362 . S
C2975 H2965 0.930 . S
C2975 C2968 1.409 . S
C2975 C2974 1.362 . S
H2976 C2982 0.930 . S
H2977 C2985 0.930 . S
H2978 C2986 0.930 . S
H2979 C2987 0.930 . S
H2980 C2990 0.930 . S
H2981 C2991 0.930 . S
C2982 H2976 0.930 . S
C2982 C2983 1.355 . S
C2982 C2984 1.415 . S
C2983 C2982 1.355 . S
C2983 C2985 1.419 . S
C2984 C2982 1.415 . S
C2984 C2989 1.425 . S
C2984 C2991 1.409 . S
C2985 H2977 0.930 . S
C2985 C2983 1.419 . S
C2985 C2986 1.362 . S
C2986 H2978 0.930 . S
C2986 C2985 1.362 . S
C2986 C2989 1.409 . S
C2987 H2979 0.930 . S
C2987 C2988 1.355 . S
C2987 C2989 1.415 . S
C2988 C2987 1.355 . S
C2988 C2990 1.419 . S
C2989 C2984 1.425 . S
C2989 C2986 1.409 . S
C2989 C2987 1.415 . S
C2990 H2980 0.930 . S
C2990 C2988 1.419 . S
C2990 C2991 1.362 . S
C2991 H2981 0.930 . S
C2991 C2984 1.409 . S
C2991 C2990 1.362 . S
H2992 C2998 0.930 . S
H2993 C3001 0.930 . S
H2994 C3002 0.930 . S
H2995 C3003 0.930 . S
H2996 C3006 0.930 . S
H2997 C3007 0.930 . S
C2998 H2992 0.930 . S
C2998 C2999 1.355 . S
C2998 C3000 1.415 . S
C2999 C2998 1.355 . S
C2999 C3001 1.419 . S
C3000 C2998 1.415 . S
C3000 C3005 1.425 . S
C3000 C3007 1.409 . S
C3001 H2993 0.930 . S
C3001 C2999 1.419 . S
C3001 C3002 1.362 . S
C3002 H2994 0.930 . S
C3002 C3001 1.362 . S
C3002 C3005 1.409 . S
C3003 H2995 0.930 . S
C3003 C3004 1.355 . S
C3003 C3005 1.415 . S
C3004 C3003 1.355 . S
C3004 C3006 1.419 . S
C3005 C3000 1.425 . S
C3005 C3002 1.409 . S
C3005 C3003 1.415 . S
C3006 H2996 0.930 . S
C3006 C3004 1.419 . S
C3006 C3007 1.362 . S
C3007 H2997 0.930 . S
C3007 C3000 1.409 . S
C3007 C3006 1.362 . S
H3008 C3014 0.930 . S
H3009 C3017 0.930 . S
H3010 C3018 0.930 . S
H3011 C3019 0.930 . S
H3012 C3022 0.930 . S
H3013 C3023 0.930 . S
C3014 H3008 0.930 . S
C3014 C3015 1.355 . S
C3014 C3016 1.415 . S
C3015 C3014 1.355 . S
C3015 C3017 1.419 . S
C3016 C3014 1.415 . S
C3016 C3021 1.425 . S
C3016 C3023 1.409 . S
C3017 H3009 0.930 . S
C3017 C3015 1.419 . S
C3017 C3018 1.362 . S
C3018 H3010 0.930 . S
C3018 C3017 1.362 . S
C3018 C3021 1.409 . S
C3019 H3011 0.930 . S
C3019 C3020 1.355 . S
C3019 C3021 1.415 . S
C3020 C3019 1.355 . S
C3020 C3022 1.419 . S
C3021 C3016 1.425 . S
C3021 C3018 1.409 . S
C3021 C3019 1.415 . S
C3022 H3012 0.930 . S
C3022 C3020 1.419 . S
C3022 C3023 1.362 . S
C3023 H3013 0.930 . S
C3023 C3016 1.409 . S
C3023 C3022 1.362 . S
H3024 C3030 0.930 . S
H3025 C3033 0.930 . S
H3026 C3034 0.930 . S
H3027 C3035 0.930 . S
H3028 C3038 0.930 . S
H3029 C3039 0.930 . S
C3030 H3024 0.930 . S
C3030 C3031 1.355 . S
C3030 C3032 1.415 . S
C3031 C3030 1.355 . S
C3031 C3033 1.419 . S
C3032 C3030 1.415 . S
C3032 C3037 1.425 . S
C3032 C3039 1.409 . S
C3033 H3025 0.930 . S
C3033 C3031 1.419 . S
C3033 C3034 1.362 . S
C3034 H3026 0.930 . S
C3034 C3033 1.362 . S
C3034 C3037 1.409 . S
C3035 H3027 0.930 . S
C3035 C3036 1.355 . S
C3035 C3037 1.415 1_554 S
C3036 C3035 1.355 . S
C3036 C3038 1.419 . S
C3037 C3032 1.425 . S
C3037 C3034 1.409 . S
C3037 C3035 1.415 1_556 S
C3038 H3028 0.930 . S
C3038 C3036 1.419 . S
C3038 C3039 1.362 1_554 S
C3039 H3029 0.930 . S
C3039 C3032 1.409 . S
C3039 C3038 1.362 1_556 S
H3040 C3046 0.930 . S
H3041 C3049 0.930 . S
H3042 C3050 0.930 . S
H3043 C3051 0.930 . S
H3044 C3054 0.930 . S
H3045 C3055 0.930 . S
C3046 H3040 0.930 . S
C3046 C3047 1.355 . S
C3046 C3048 1.415 . S
C3047 C3046 1.355 . S
C3047 C3049 1.419 . S
C3048 C3046 1.415 . S
C3048 C3053 1.425 . S
C3048 C3055 1.409 . S
C3049 H3041 0.930 . S
C3049 C3047 1.419 . S
C3049 C3050 1.362 . S
C3050 H3042 0.930 . S
C3050 C3049 1.362 . S
C3050 C3053 1.409 . S
C3051 H3043 0.930 . S
C3051 C3052 1.355 . S
C3051 C3053 1.415 . S
C3052 C3051 1.355 . S
C3052 C3054 1.419 . S
C3053 C3048 1.425 . S
C3053 C3050 1.409 . S
C3053 C3051 1.415 . S
C3054 H3044 0.930 . S
C3054 C3052 1.419 . S
C3054 C3055 1.362 . S
C3055 H3045 0.930 . S
C3055 C3048 1.409 . S
C3055 C3054 1.362 . S
H3056 C3062 0.930 . S
H3057 C3065 0.930 . S
H3058 C3066 0.930 . S
H3059 C3067 0.930 . S
H3060 C3070 0.930 . S
H3061 C3071 0.930 . S
C3062 H3056 0.930 . S
C3062 C3063 1.355 . S
C3062 C3064 1.415 . S
C3063 C3062 1.355 . S
C3063 C3065 1.419 . S
C3064 C3062 1.415 . S
C3064 C3069 1.425 . S
C3064 C3071 1.409 . S
C3065 H3057 0.930 . S
C3065 C3063 1.419 . S
C3065 C3066 1.362 . S
C3066 H3058 0.930 . S
C3066 C3065 1.362 . S
C3066 C3069 1.409 . S
C3067 H3059 0.930 . S
C3067 C3068 1.355 . S
C3067 C3069 1.415 . S
C3068 C3067 1.355 . S
C3068 C3070 1.419 . S
C3069 C3064 1.425 . S
C3069 C3066 1.409 . S
C3069 C3067 1.415 . S
C3070 H3060 0.930 . S
C3070 C3068 1.419 . S
C3070 C3071 1.362 . S
C3071 H3061 0.930 . S
C3071 C3064 1.409 . S
C3071 C3070 1.362 . S
H3072 C3078 0.930 . S
H3073 C3081 0.930 . S
H3074 C3082 0.930 . S
H3075 C3083 0.930 . S
H3076 C3086 0.930 . S
H3077 C3087 0.930 . S
C3078 H3072 0.930 . S
C3078 C3079 1.355 . S
C3078 C3080 1.415 . S
C3079 C3078 1.355 . S
C3079 C3081 1.419 . S
C3080 C3078 1.415 . S
C3080 C3085 1.425 . S
C3080 C3087 1.409 . S
C3081 H3073 0.930 . S
C3081 C3079 1.419 . S
C3081 C3082 1.362 . S
C3082 H3074 0.930 . S
C3082 C3081 1.362 . S
C3082 C3085 1.409 . S
C3083 H3075 0.930 . S
C3083 C3084 1.355 . S
C3083 C3085 1.415 . S
C3084 C3083 1.355 . S
C3084 C3086 1.419 . S
C3085 C3080 1.425 . S
C3085 C3082 1.409 . S
C3085 C3083 1.415 . S
C3086 H3076 0.930 . S
C3086 C3084 1.419 . S
C3086 C3087 1.362 . S
C3087 H3077 0.930 . S
C3087 C3080 1.409 . S
C3087 C3086 1.362 . S
H3088 C3094 0.930 . S
H3089 C3097 0.930 . S
H3090 C3098 0.930 . S
H3091 C3099 0.930 . S
H3092 C3102 0.930 . S
H3093 C3103 0.930 . S
C3094 H3088 0.930 . S
C3094 C3095 1.355 . S
C3094 C3096 1.415 . S
C3095 C3094 1.355 . S
C3095 C3097 1.419 . S
C3096 C3094 1.415 . S
C3096 C3101 1.425 . S
C3096 C3103 1.409 . S
C3097 H3089 0.930 . S
C3097 C3095 1.419 . S
C3097 C3098 1.362 . S
C3098 H3090 0.930 . S
C3098 C3097 1.362 . S
C3098 C3101 1.409 . S
C3099 H3091 0.930 . S
C3099 C3100 1.355 . S
C3099 C3101 1.415 1_556 S
C3100 C3099 1.355 . S
C3100 C3102 1.419 . S
C3101 C3096 1.425 . S
C3101 C3098 1.409 . S
C3101 C3099 1.415 1_554 S
C3102 H3092 0.930 . S
C3102 C3100 1.419 . S
C3102 C3103 1.362 1_556 S
C3103 H3093 0.930 . S
C3103 C3096 1.409 . S
C3103 C3102 1.362 1_554 S
H3104 C3110 0.930 . S
H3105 C3113 0.930 . S
H3106 C3114 0.930 . S
H3107 C3115 0.930 . S
H3108 C3118 0.930 . S
H3109 C3119 0.930 . S
C3110 H3104 0.930 . S
C3110 C3111 1.355 . S
C3110 C3112 1.415 . S
C3111 C3110 1.355 . S
C3111 C3113 1.419 . S
C3112 C3110 1.415 . S
C3112 C3117 1.425 . S
C3112 C3119 1.409 . S
C3113 H3105 0.930 . S
C3113 C3111 1.419 . S
C3113 C3114 1.362 . S
C3114 H3106 0.930 . S
C3114 C3113 1.362 . S
C3114 C3117 1.409 . S
C3115 H3107 0.930 . S
C3115 C3116 1.355 . S
C3115 C3117 1.415 . S
C3116 C3115 1.355 . S
C3116 C3118 1.419 . S
C3117 C3112 1.425 . S
C3117 C3114 1.409 . S
C3117 C3115 1.415 . S
C3118 H3108 0.930 . S
C3118 C3116 1.419 . S
C3118 C3119 1.362 . S
C3119 H3109 0.930 . S
C3119 C3112 1.409 . S
C3119 C3118 1.362 . S
H3120 C3126 0.930 . S
H3121 C3129 0.930 . S
H3122 C3130 0.930 . S
H3123 C3131 0.930 . S
H3124 C3134 0.930 . S
H3125 C3135 0.930 . S
C3126 H3120 0.930 . S
C3126 C3127 1.355 . S
C3126 C3128 1.415 . S
C3127 C3126 1.355 . S
C3127 C3129 1.419 . S
C3128 C3126 1.415 . S
C3128 C3133 1.425 . S
C3128 C3135 1.409 . S
C3129 H3121 0.930 . S
C3129 C3127 1.419 . S
C3129 C3130 1.362 . S
C3130 H3122 0.930 . S
C3130 C3129 1.362 . S
C3130 C3133 1.409 . S
C3131 H3123 0.930 . S
C3131 C3132 1.355 . S
C3131 C3133 1.415 . S
C3132 C3131 1.355 . S
C3132 C3134 1.419 . S
C3133 C3128 1.425 . S
C3133 C3130 1.409 . S
C3133 C3131 1.415 . S
C3134 H3124 0.930 . S
C3134 C3132 1.419 . S
C3134 C3135 1.362 . S
C3135 H3125 0.930 . S
C3135 C3128 1.409 . S
C3135 C3134 1.362 . S
H3136 C3142 0.930 . S
H3137 C3145 0.930 . S
H3138 C3146 0.930 . S
H3139 C3147 0.930 . S
H3140 C3150 0.930 . S
H3141 C3151 0.930 . S
C3142 H3136 0.930 . S
C3142 C3143 1.355 . S
C3142 C3144 1.415 . S
C3143 C3142 1.355 . S
C3143 C3145 1.419 . S
C3144 C3142 1.415 . S
C3144 C3149 1.425 . S
C3144 C3151 1.409 . S
C3145 H3137 0.930 . S
C3145 C3143 1.419 . S
C3145 C3146 1.362 . S
C3146 H3138 0.930 . S
C3146 C3145 1.362 . S
C3146 C3149 1.409 . S
C3147 H3139 0.930 . S
C3147 C3148 1.355 . S
C3147 C3149 1.415 . S
C3148 C3147 1.355 . S
C3148 C3150 1.419 . S
C3149 C3144 1.425 . S
C3149 C3146 1.409 . S
C3149 C3147 1.415 . S
C3150 H3140 0.930 . S
C3150 C3148 1.419 . S
C3150 C3151 1.362 . S
C3151 H3141 0.930 . S
C3151 C3144 1.409 . S
C3151 C3150 1.362 . S
H3152 C3158 0.930 . S
H3153 C3161 0.930 . S
H3154 C3162 0.930 . S
H3155 C3163 0.930 . S
H3156 C3166 0.930 . S
H3157 C3167 0.930 . S
C3158 H3152 0.930 . S
C3158 C3159 1.355 . S
C3158 C3160 1.415 . S
C3159 C3158 1.355 . S
C3159 C3161 1.419 . S
C3160 C3158 1.415 . S
C3160 C3165 1.425 . S
C3160 C3167 1.409 . S
C3161 H3153 0.930 . S
C3161 C3159 1.419 . S
C3161 C3162 1.362 . S
C3162 H3154 0.930 . S
C3162 C3161 1.362 . S
C3162 C3165 1.409 . S
C3163 H3155 0.930 . S
C3163 C3164 1.355 . S
C3163 C3165 1.415 . S
C3164 C3163 1.355 . S
C3164 C3166 1.419 . S
C3165 C3160 1.425 . S
C3165 C3162 1.409 . S
C3165 C3163 1.415 . S
C3166 H3156 0.930 . S
C3166 C3164 1.419 . S
C3166 C3167 1.362 . S
C3167 H3157 0.930 . S
C3167 C3160 1.409 . S
C3167 C3166 1.362 . S
H3168 C3174 0.930 . S
H3169 C3177 0.930 . S
H3170 C3178 0.930 . S
H3171 C3179 0.930 . S
H3172 C3182 0.930 . S
H3173 C3183 0.930 . S
C3174 H3168 0.930 . S
C3174 C3175 1.355 . S
C3174 C3176 1.415 . S
C3175 C3174 1.355 . S
C3175 C3177 1.419 . S
C3176 C3174 1.415 . S
C3176 C3181 1.425 . S
C3176 C3183 1.409 . S
C3177 H3169 0.930 . S
C3177 C3175 1.419 . S
C3177 C3178 1.362 . S
C3178 H3170 0.930 . S
C3178 C3177 1.362 . S
C3178 C3181 1.409 . S
C3179 H3171 0.930 . S
C3179 C3180 1.355 . S
C3179 C3181 1.415 1_545 S
C3180 C3179 1.355 . S
C3180 C3182 1.419 . S
C3181 C3176 1.425 . S
C3181 C3178 1.409 . S
C3181 C3179 1.415 1_565 S
C3182 H3172 0.930 . S
C3182 C3180 1.419 . S
C3182 C3183 1.362 1_545 S
C3183 H3173 0.930 . S
C3183 C3176 1.409 . S
C3183 C3182 1.362 1_565 S
H3184 C3190 0.930 . S
H3185 C3193 0.930 . S
H3186 C3194 0.930 . S
H3187 C3195 0.930 . S
H3188 C3198 0.930 . S
H3189 C3199 0.930 . S
C3190 H3184 0.930 . S
C3190 C3191 1.355 . S
C3190 C3192 1.415 . S
C3191 C3190 1.355 . S
C3191 C3193 1.419 . S
C3192 C3190 1.415 . S
C3192 C3197 1.425 . S
C3192 C3199 1.409 . S
C3193 H3185 0.930 . S
C3193 C3191 1.419 . S
C3193 C3194 1.362 . S
C3194 H3186 0.930 . S
C3194 C3193 1.362 . S
C3194 C3197 1.409 . S
C3195 H3187 0.930 . S
C3195 C3196 1.355 . S
C3195 C3197 1.415 . S
C3196 C3195 1.355 . S
C3196 C3198 1.419 . S
C3197 C3192 1.425 . S
C3197 C3194 1.409 . S
C3197 C3195 1.415 . S
C3198 H3188 0.930 . S
C3198 C3196 1.419 . S
C3198 C3199 1.362 . S
C3199 H3189 0.930 . S
C3199 C3192 1.409 . S
C3199 C3198 1.362 . S
H3200 C3206 0.930 . S
H3201 C3209 0.930 . S
H3202 C3210 0.930 . S
H3203 C3211 0.930 . S
H3204 C3214 0.930 . S
H3205 C3215 0.930 . S
C3206 H3200 0.930 . S
C3206 C3207 1.355 . S
C3206 C3208 1.415 . S
C3207 C3206 1.355 . S
C3207 C3209 1.419 . S
C3208 C3206 1.415 . S
C3208 C3213 1.425 . S
C3208 C3215 1.409 . S
C3209 H3201 0.930 . S
C3209 C3207 1.419 . S
C3209 C3210 1.362 . S
C3210 H3202 0.930 . S
C3210 C3209 1.362 . S
C3210 C3213 1.409 . S
C3211 H3203 0.930 . S
C3211 C3212 1.355 . S
C3211 C3213 1.415 . S
C3212 C3211 1.355 . S
C3212 C3214 1.419 . S
C3213 C3208 1.425 . S
C3213 C3210 1.409 . S
C3213 C3211 1.415 . S
C3214 H3204 0.930 . S
C3214 C3212 1.419 . S
C3214 C3215 1.362 . S
C3215 H3205 0.930 . S
C3215 C3208 1.409 . S
C3215 C3214 1.362 . S
H3216 C3222 0.930 . S
H3217 C3225 0.930 . S
H3218 C3226 0.930 . S
H3219 C3227 0.930 . S
H3220 C3230 0.930 . S
H3221 C3231 0.930 . S
C3222 H3216 0.930 . S
C3222 C3223 1.355 . S
C3222 C3224 1.415 . S
C3223 C3222 1.355 . S
C3223 C3225 1.419 . S
C3224 C3222 1.415 . S
C3224 C3229 1.425 . S
C3224 C3231 1.409 . S
C3225 H3217 0.930 . S
C3225 C3223 1.419 . S
C3225 C3226 1.362 . S
C3226 H3218 0.930 . S
C3226 C3225 1.362 . S
C3226 C3229 1.409 . S
C3227 H3219 0.930 . S
C3227 C3228 1.355 . S
C3227 C3229 1.415 . S
C3228 C3227 1.355 . S
C3228 C3230 1.419 . S
C3229 C3224 1.425 . S
C3229 C3226 1.409 . S
C3229 C3227 1.415 . S
C3230 H3220 0.930 . S
C3230 C3228 1.419 . S
C3230 C3231 1.362 . S
C3231 H3221 0.930 . S
C3231 C3224 1.409 . S
C3231 C3230 1.362 . S
H3232 C3238 0.930 . S
H3233 C3241 0.930 . S
H3234 C3242 0.930 . S
H3235 C3243 0.930 . S
H3236 C3246 0.930 . S
H3237 C3247 0.930 . S
C3238 H3232 0.930 . S
C3238 C3239 1.355 . S
C3238 C3240 1.415 1_565 S
C3239 C3238 1.355 . S
C3239 C3241 1.419 . S
C3240 C3238 1.415 1_545 S
C3240 C3245 1.425 . S
C3240 C3247 1.409 . S
C3241 H3233 0.930 . S
C3241 C3239 1.419 . S
C3241 C3242 1.362 1_565 S
C3242 H3234 0.930 . S
C3242 C3241 1.362 1_545 S
C3242 C3245 1.409 . S
C3243 H3235 0.930 . S
C3243 C3244 1.355 . S
C3243 C3245 1.415 . S
C3244 C3243 1.355 . S
C3244 C3246 1.419 . S
C3245 C3240 1.425 . S
C3245 C3242 1.409 . S
C3245 C3243 1.415 . S
C3246 H3236 0.930 . S
C3246 C3244 1.419 . S
C3246 C3247 1.362 . S
C3247 H3237 0.930 . S
C3247 C3240 1.409 . S
C3247 C3246 1.362 . S
H3248 C3254 0.930 . S
H3249 C3257 0.930 . S
H3250 C3258 0.930 . S
H3251 C3259 0.930 . S
H3252 C3262 0.930 . S
H3253 C3263 0.930 . S
C3254 H3248 0.930 . S
C3254 C3255 1.355 . S
C3254 C3256 1.415 . S
C3255 C3254 1.355 . S
C3255 C3257 1.419 . S
C3256 C3254 1.415 . S
C3256 C3261 1.425 . S
C3256 C3263 1.409 . S
C3257 H3249 0.930 . S
C3257 C3255 1.419 . S
C3257 C3258 1.362 . S
C3258 H3250 0.930 . S
C3258 C3257 1.362 . S
C3258 C3261 1.409 . S
C3259 H3251 0.930 . S
C3259 C3260 1.355 . S
C3259 C3261 1.415 1_545 S
C3260 C3259 1.355 . S
C3260 C3262 1.419 . S
C3261 C3256 1.425 . S
C3261 C3258 1.409 . S
C3261 C3259 1.415 1_565 S
C3262 H3252 0.930 . S
C3262 C3260 1.419 . S
C3262 C3263 1.362 1_545 S
C3263 H3253 0.930 . S
C3263 C3256 1.409 . S
C3263 C3262 1.362 1_565 S
C1735 C1515 1.382 . S
C1740 C3 1.383 . S
C1751 C40 1.318 . S
C1756 C542 1.321 . S
C1767 C75 1.377 . S
C1772 C1443 1.367 . S
C1783 C112 1.320 . S
C1788 C614 1.309 . S
C1799 C1587 1.360 . S
C1804 C148 1.380 . S
C1815 C183 1.321 . S
C1820 C770 1.253 . S
C1831 C220 1.377 . S
C1836 C1659 1.375 . S
C1847 C255 1.311 . S
C1852 C698 1.270 . S
C1863 C111 1.352 . S
C1868 C1696 1.342 . S
C1879 C4 1.377 . S
C1884 C903 1.372 . S
C1895 C940 1.354 . S
C1900 C39 1.357 . S
C1911 C76 1.371 . S
C1916 C867 1.360 . S
C1927 C184 1.343 . S
C1932 C868 1.302 . S
C1943 C219 1.369 . S
C1948 C1695 1.380 . S
C1959 C256 1.349 . S
C1964 C904 1.341 . S
C1975 C147 1.384 . S
C1980 C939 1.374 . S
C1991 C1418 1.213 . S
C1996 C291 1.302 . S
C2007 C327 1.331 . S
C2012 C686 1.326 . S
C2023 C292 1.351 . S
C2028 C1588 1.302 . S
C2039 C758 1.272 . S
C2044 C363 1.328 . S
C2055 C796 1.346 . S
C2060 C399 1.362 . S
C2071 C1490 1.289 . S
C2076 C436 1.289 . S
C2087 C1516 1.298 . S
C2092 C472 1.355 . S
C2103 C1444 1.338 . S
C2108 C508 1.341 . S
C2119 C1202 1.303 . S
C2124 C543 1.378 . S
C2135 C578 1.394 . S
C2140 C2 1.389 . S
C2151 C615 1.373 . S
C2156 C1130 1.316 . S
C2167 C74 1.349 . S
C2172 C650 1.408 . S
C2183 C688 1.371 . S
C2188 C1262 1.310 . S
C2199 C230 1.298 . S
C2204 C722 1.386 . S
C2215 C760 1.381 . S
C2220 C1334 1.364 . S
C2231 C158 1.325 . S
C2236 C794 1.402 . S
C2247 C1382 1.362 . S
C2252 C662 1.288 . S
C2263 C544 1.369 . S
C2268 C362 1.360 . S
C2279 C398 1.324 . S
C2284 C590 1.341 . S
C2295 C326 1.356 . S
C2300 C616 1.392 . S
C2311 C338 1.304 . S
C2316 C734 1.344 . S
C2327 C759 1.393 . S
C2332 C1370 1.323 . S
C2343 C374 1.275 . S
C2348 C806 1.318 . S
C2359 C687 1.365 . S
C2364 C410 1.278 . S
C2375 C830 1.393 . S
C2380 C1094 1.361 . S
C2391 C866 1.410 . S
C2396 C146 1.384 . S
C2407 C842 1.279 . S
C2412 C1274 1.317 . S
C2423 C902 1.425 . S
C2428 C218 1.400 . S
C2439 C950 1.258 . S
C2444 C266 1.338 . S
C2455 C1166 1.318 . S
C2460 C974 1.370 . S
C2471 C1022 1.310 . S
C2476 C1190 1.382 . S
C2487 C1058 1.318 . S
C2492 C1118 1.354 . S
C2503 C1083 1.378 . S
C2508 C651 1.383 . S
C2519 C1120 1.325 . S
C2524 C1406 1.278 . S
C2535 C579 1.388 . S
C2540 C1155 1.381 . S
C2551 C1192 1.319 . S
C2556 C1478 1.324 . S
C2567 C1228 1.378 . S
C2572 C723 1.386 . S
C2583 C1634 1.304 . S
C2588 C1263 1.292 . S
C2599 C1300 1.378 . S
C2604 C795 1.370 . S
C2615 C1562 1.296 . S
C2620 C1335 1.286 . S
C2631 C832 1.359 . S
C2636 C1191 1.362 . S
C2647 C1047 1.365 . S
C2652 C1084 1.379 . S
C2663 C1119 1.366 . S
C2668 C976 1.360 . S
C2679 C1011 1.377 . S
C2684 C1156 1.368 . S
C2695 C1264 1.343 . S
C2700 C1012 1.300 . S
C2711 C831 1.383 . S
C2716 C1299 1.387 . S
C2727 C1336 1.347 . S
C2732 C1048 1.348 . S
C2743 C1227 1.390 . S
C2748 C975 1.382 . S
C2759 C1371 1.294 . S
C2764 C554 1.269 . S
C2775 C471 1.342 . S
C2780 C1550 1.289 . S
C2791 C724 1.329 . S
C2796 C1372 1.347 . S
C2807 C1622 1.287 . S
C2812 C507 1.310 . S
C2823 C1660 1.328 . S
C2828 C435 1.359 . S
C2839 C400 1.295 . S
C2844 C626 1.247 . S
C2855 C328 1.351 . S
C2860 C652 1.348 . S
C2871 C580 1.280 . S
C2876 C364 1.345 . S
C2887 C1407 1.399 . S
C2892 C122 1.316 . S
C2903 C1082 1.351 . S
C2908 C1442 1.397 . S
C2919 C1479 1.380 . S
C2924 C50 1.373 . S
C2935 C1514 1.397 . S
C2940 C1154 1.386 . S
C2951 C182 1.356 . S
C2956 C1552 1.382 . S
C2967 C1586 1.385 . S
C2972 C1310 1.314 . S
C2983 C1624 1.379 . S
C2988 C254 1.328 . S
C2999 C1238 1.295 . S
C3004 C1658 1.387 . S
C3015 C1526 1.363 . S
C3020 C302 1.280 . S
C3031 C506 1.323 . S
C3036 C1408 1.365 . S
C3047 C434 1.372 . S
C3052 C1454 1.374 . S
C3063 C1480 1.399 . S
C3068 C470 1.318 . S
C3079 C1598 1.325 . S
C3084 C482 1.318 . S
C3095 C290 1.304 . S
C3100 C1623 1.381 . S
C3111 C518 1.274 . S
C3116 C1670 1.326 . S
C3127 C1551 1.360 . S
C3132 C446 1.297 . S
C3143 C14 1.306 . S
C3148 C1694 1.370 . S
C3159 C1010 1.412 . S
C3164 C1226 1.372 . S
C3175 C194 1.277 . S
C3180 C1706 1.317 . S
C3191 C1298 1.372 . S
C3196 C1046 1.431 . S
C3207 C1346 1.255 . S
C3212 C986 1.340 . S
C3223 C938 1.392 . S
C3228 C86 1.357 . S
C3239 C878 1.317 . S
C3244 C110 1.391 . S
C3255 C38 1.353 . S
C3260 C914 1.318 . S
