# Generated by pormake.
# Topology wkh, (6)-cn, num edge types: 1
# Building blocks:
#     Node 0, Type 0, BuildingBlock: VOLQOD_clean_sbu_1, # of connection points: 6
#     Node 1, Type 0, BuildingBlock: VOLQOD_clean_sbu_1, # of connection points: 6
#     Node 2, Type 0, BuildingBlock: VOLQOD_clean_sbu_1, # of connection points: 6
#     Node 3, Type 0, BuildingBlock: VOLQOD_clean_sbu_1, # of connection points: 6
#     Node 4, Type 0, BuildingBlock: VOLQOD_clean_sbu_1, # of connection points: 6
#     Node 5, Type 0, BuildingBlock: VOLQOD_clean_sbu_1, # of connection points: 6
#     Node 6, Type 0, BuildingBlock: VOLQOD_clean_sbu_1, # of connection points: 6
#     Node 7, Type 0, BuildingBlock: VOLQOD_clean_sbu_1, # of connection points: 6
#     Node 8, Type 0, BuildingBlock: VOLQOD_clean_sbu_1, # of connection points: 6
#     Node 9, Type 0, BuildingBlock: VOLQOD_clean_sbu_1, # of connection points: 6
#     Node 10, Type 0, BuildingBlock: VOLQOD_clean_sbu_1, # of connection points: 6
#     Node 11, Type 0, BuildingBlock: VOLQOD_clean_sbu_1, # of connection points: 6
#     Edge 12, Type (0, 0), BuildingBlock: CIFDUS_clean_linker_0, # of connection points: 2
#     Edge 13, Type (0, 0), BuildingBlock: CIFDUS_clean_linker_0, # of connection points: 2
#     Edge 14, Type (0, 0), BuildingBlock: CIFDUS_clean_linker_0, # of connection points: 2
#     Edge 15, Type (0, 0), BuildingBlock: CIFDUS_clean_linker_0, # of connection points: 2
#     Edge 16, Type (0, 0), BuildingBlock: CIFDUS_clean_linker_0, # of connection points: 2
#     Edge 17, Type (0, 0), BuildingBlock: CIFDUS_clean_linker_0, # of connection points: 2
#     Edge 18, Type (0, 0), BuildingBlock: CIFDUS_clean_linker_0, # of connection points: 2
#     Edge 19, Type (0, 0), BuildingBlock: CIFDUS_clean_linker_0, # of connection points: 2
#     Edge 20, Type (0, 0), BuildingBlock: CIFDUS_clean_linker_0, # of connection points: 2
#     Edge 21, Type (0, 0), BuildingBlock: CIFDUS_clean_linker_0, # of connection points: 2
#     Edge 22, Type (0, 0), BuildingBlock: CIFDUS_clean_linker_0, # of connection points: 2
#     Edge 23, Type (0, 0), BuildingBlock: CIFDUS_clean_linker_0, # of connection points: 2
#     Edge 24, Type (0, 0), BuildingBlock: CIFDUS_clean_linker_0, # of connection points: 2
#     Edge 25, Type (0, 0), BuildingBlock: CIFDUS_clean_linker_0, # of connection points: 2
#     Edge 26, Type (0, 0), BuildingBlock: CIFDUS_clean_linker_0, # of connection points: 2
#     Edge 27, Type (0, 0), BuildingBlock: CIFDUS_clean_linker_0, # of connection points: 2
#     Edge 28, Type (0, 0), BuildingBlock: CIFDUS_clean_linker_0, # of connection points: 2
#     Edge 29, Type (0, 0), BuildingBlock: CIFDUS_clean_linker_0, # of connection points: 2
#     Edge 30, Type (0, 0), BuildingBlock: CIFDUS_clean_linker_0, # of connection points: 2
#     Edge 31, Type (0, 0), BuildingBlock: CIFDUS_clean_linker_0, # of connection points: 2
#     Edge 32, Type (0, 0), BuildingBlock: CIFDUS_clean_linker_0, # of connection points: 2
#     Edge 33, Type (0, 0), BuildingBlock: CIFDUS_clean_linker_0, # of connection points: 2
#     Edge 34, Type (0, 0), BuildingBlock: CIFDUS_clean_linker_0, # of connection points: 2
#     Edge 35, Type (0, 0), BuildingBlock: CIFDUS_clean_linker_0, # of connection points: 2
#     Edge 36, Type (0, 0), BuildingBlock: CIFDUS_clean_linker_0, # of connection points: 2
#     Edge 37, Type (0, 0), BuildingBlock: CIFDUS_clean_linker_0, # of connection points: 2
#     Edge 38, Type (0, 0), BuildingBlock: CIFDUS_clean_linker_0, # of connection points: 2
#     Edge 39, Type (0, 0), BuildingBlock: CIFDUS_clean_linker_0, # of connection points: 2
#     Edge 40, Type (0, 0), BuildingBlock: CIFDUS_clean_linker_0, # of connection points: 2
#     Edge 41, Type (0, 0), BuildingBlock: CIFDUS_clean_linker_0, # of connection points: 2
#     Edge 42, Type (0, 0), BuildingBlock: CIFDUS_clean_linker_0, # of connection points: 2
#     Edge 43, Type (0, 0), BuildingBlock: CIFDUS_clean_linker_0, # of connection points: 2
#     Edge 44, Type (0, 0), BuildingBlock: CIFDUS_clean_linker_0, # of connection points: 2
#     Edge 45, Type (0, 0), BuildingBlock: CIFDUS_clean_linker_0, # of connection points: 2
#     Edge 46, Type (0, 0), BuildingBlock: CIFDUS_clean_linker_0, # of connection points: 2
#     Edge 47, Type (0, 0), BuildingBlock: CIFDUS_clean_linker_0, # of connection points: 2
# Relax obj value: 0.362
# Max RMSD: 0.263
# Mean RMSD: 0.263
data_MOF--net-wkh--node1-VOLQOD_clean_sbu_1--edge1-CIFDUS_clean_linker_0
_symmetry_space_group_name_H-M    P1
_symmetry_Int_Tables_number       1
_symmetry_cell_setting            triclinic
loop_
_symmetry_equiv_pos_as_xyz
'x, y, z'
_cell_length_a     24.457595
_cell_length_b     24.435536
_cell_length_c     78.563024
_cell_angle_alpha  89.905296
_cell_angle_beta   90.112117
_cell_angle_gamma 120.01896
loop_
_atom_site_label
_atom_site_type_symbol
_atom_site_fract_x
_atom_site_fract_y
_atom_site_fract_z
_atom_type_partial_charge
O0 O 0.11107 0.33328 0.03271 0.0
Zn1 Zn 0.12699 0.31181 0.00936 0.0
O2 O 0.21617 0.34368 0.00619 0.0
Zn3 Zn 0.23454 0.27755 0.0006 0.0
Zn4 Zn 0.25977 0.37921 0.0274 0.0
Zn5 Zn 0.24637 0.4048 0.98778 0.0
O6 O 0.26673 0.28482 0.97676 0.0
O7 O 0.2612 0.36666 0.96653 0.0
O8 O 0.07696 0.21746 0.00699 0.0
O9 O 0.15448 0.19646 0.00245 0.0
O10 O 0.29093 0.26723 0.01732 0.0
O11 O 0.28068 0.31866 0.03908 0.0
O12 O 0.34319 0.45507 0.02172 0.0
O13 O 0.09522 0.35247 0.99319 0.0
O14 O 0.33256 0.47629 0.99465 0.0
O15 O 0.18161 0.43109 0.98147 0.0
C16 C 0.14562 0.36729 0.04491 0.0
C17 C 0.27153 0.32087 0.96444 0.0
C18 C 0.29669 0.28035 0.03311 0.0
C19 C 0.09661 0.17864 0.00486 0.0
C20 C 0.36562 0.4876 0.00818 0.0
C21 C 0.12182 0.40132 0.98376 0.0
O22 O 0.20569 0.39352 0.04432 0.0
O23 O 0.8027 0.14046 0.20465 0.0
Zn24 Zn 0.83704 0.14854 0.18101 0.0
O25 O 0.90155 0.23567 0.17678 0.0
Zn26 Zn 0.98213 0.24136 0.17234 0.0
Zn27 Zn 0.91209 0.28658 0.19694 0.0
Zn28 Zn 0.87788 0.26787 0.15697 0.0
O29 O 0.01976 0.28553 0.15039 0.0
O30 O 0.93902 0.2855 0.13741 0.0
O31 O 0.87055 0.08826 0.17823 0.0
O32 O 0.97006 0.15483 0.17077 0.0
O33 O 0.04459 0.28245 0.19131 0.0
O34 O 0.99053 0.30453 0.20989 0.0
O35 O 0.92589 0.3718 0.18939 0.0
O36 O 0.76443 0.12167 0.16492 0.0
O37 O 0.89199 0.35488 0.16252 0.0
O38 O 0.78743 0.20579 0.14903 0.0
C39 C 0.80524 0.17933 0.21586 0.0
C40 C 0.99573 0.29619 0.13731 0.0
C41 C 0.03981 0.3025 0.20584 0.0
C42 C 0.92502 0.09925 0.17368 0.0
C43 C 0.91544 0.39137 0.17536 0.0
C44 C 0.74978 0.14831 0.15326 0.0
O45 O 0.84096 0.23895 0.21396 0.0
O46 O 0.70175 0.80777 0.36179 0.0
Zn47 Zn 0.70479 0.83982 0.3381 0.0
O48 O 0.66195 0.88772 0.33741 0.0
Zn49 Zn 0.71814 0.9754 0.33199 0.0
Zn50 Zn 0.62707 0.88518 0.35944 0.0
Zn51 Zn 0.59711 0.85395 0.32017 0.0
O52 O 0.68832 0.00447 0.31176 0.0
O53 O 0.62902 0.91106 0.29946 0.0
O54 O 0.79395 0.89068 0.32904 0.0
O55 O 0.79736 0.98181 0.32387 0.0
O56 O 0.74206 0.033 0.35264 0.0
O57 O 0.68538 0.96307 0.37251 0.0
O58 O 0.54834 0.89095 0.35601 0.0
O59 O 0.65775 0.76151 0.32415 0.0
O60 O 0.52446 0.86374 0.32876 0.0
O61 O 0.57445 0.76351 0.31352 0.0
C62 C 0.66182 0.79388 0.37378 0.0
C63 C 0.66003 0.97137 0.29868 0.0
C64 C 0.72679 0.01886 0.36821 0.0
C65 C 0.82233 0.94707 0.32331 0.0
C66 C 0.51412 0.88267 0.34291 0.0
C67 C 0.60639 0.73555 0.31572 0.0
O68 O 0.62178 0.81308 0.37366 0.0
O69 O 0.87539 0.66233 0.53255 0.0
Zn70 Zn 0.8629 0.68091 0.50827 0.0
O71 O 0.77425 0.65133 0.50413 0.0
Zn72 Zn 0.7604 0.72065 0.49928 0.0
Zn73 Zn 0.72682 0.61173 0.5247 0.0
Zn74 Zn 0.74413 0.59428 0.48453 0.0
O75 O 0.7163 0.71055 0.4773 0.0
O76 O 0.72623 0.63561 0.4642 0.0
O77 O 0.91756 0.77455 0.50369 0.0
O78 O 0.84329 0.79888 0.49778 0.0
O79 O 0.71386 0.73731 0.51738 0.0
O80 O 0.70443 0.66957 0.53743 0.0
O81 O 0.64344 0.53754 0.51768 0.0
O82 O 0.89237 0.63588 0.49295 0.0
O83 O 0.65725 0.52083 0.49051 0.0
O84 O 0.8097 0.5693 0.47733 0.0
C85 C 0.83844 0.62481 0.54393 0.0
C86 C 0.71036 0.67807 0.4641 0.0
C87 C 0.69825 0.71563 0.53237 0.0
C88 C 0.90091 0.81462 0.49974 0.0
C89 C 0.6224 0.50749 0.50373 0.0
C90 C 0.86775 0.59307 0.48162 0.0
O91 O 0.77862 0.59446 0.54177 0.0
O92 O 0.18032 0.85724 0.70476 0.0
Zn93 Zn 0.15895 0.8507 0.68013 0.0
O94 O 0.1009 0.76529 0.67342 0.0
Zn95 Zn 0.02499 0.75937 0.66412 0.0
Zn96 Zn 0.08042 0.71424 0.69384 0.0
Zn97 Zn 0.13641 0.73642 0.65583 0.0
O98 O -0.00019 0.71291 0.64183 0.0
O99 O 0.09233 0.72707 0.63311 0.0
O100 O 0.12738 0.90998 0.67445 0.0
O101 O 0.04092 0.84664 0.65956 0.0
O102 O 0.95336 0.72094 0.68095 0.0
O103 O 0.99685 0.69807 0.7026 0.0
O104 O 0.06882 0.62981 0.68757 0.0
O105 O 0.24029 0.8796 0.66851 0.0
O106 O 0.11148 0.64561 0.66171 0.0
O107 O 0.23165 0.79931 0.65298 0.0
C108 C 0.17533 0.81743 0.71598 0.0
C109 C 0.03474 0.71055 0.63019 0.0
C110 C 0.9507 0.70103 0.69609 0.0
C111 C 0.08116 0.90107 0.66511 0.0
C112 C 0.08198 0.60912 0.67422 0.0
C113 C 0.26408 0.85572 0.65872 0.0
O114 O 0.14259 0.75809 0.71323 0.0
O115 O 0.30181 0.18343 0.86814 0.0
Zn116 Zn 0.29489 0.16052 0.84319 0.0
O117 O 0.32638 0.10293 0.83952 0.0
Zn118 Zn 0.26055 0.02251 0.83159 0.0
Zn119 Zn 0.35619 0.08784 0.86073 0.0
Zn120 Zn 0.39076 0.13464 0.82205 0.0
O121 O 0.28696 0.98914 0.81199 0.0
O122 O 0.35712 0.08091 0.80067 0.0
O123 O 0.20623 0.12526 0.83356 0.0
O124 O 0.19328 0.03599 0.82232 0.0
O125 O 0.22249 0.95776 0.85021 0.0
O126 O 0.29001 0.00624 0.87125 0.0
O127 O 0.43193 0.07823 0.85582 0.0
O128 O 0.34906 0.24105 0.83046 0.0
O129 O 0.46129 0.12024 0.8299 0.0
O130 O 0.4191 0.22659 0.81612 0.0
C131 C 0.33714 0.18247 0.88 0.0
C132 C 0.3203 0.02129 0.79942 0.0
C133 C 0.2398 0.95909 0.86556 0.0
C134 C 0.17556 0.07637 0.82428 0.0
C135 C 0.46866 0.0935 0.84299 0.0
C136 C 0.39588 0.26128 0.82035 0.0
O137 O 0.36868 0.15406 0.87813 0.0
O138 O 0.66708 0.87405 0.76876 0.0
Zn139 Zn 0.68618 0.86506 0.79317 0.0
O140 O 0.66564 0.77875 0.79771 0.0
Zn141 Zn 0.742 0.77638 0.80241 0.0
Zn142 Zn 0.62661 0.72718 0.77752 0.0
Zn143 Zn 0.61016 0.74619 0.81762 0.0
O144 O 0.73697 0.73356 0.82433 0.0
O145 O 0.65416 0.72886 0.83726 0.0
O146 O 0.77736 0.92816 0.79812 0.0
O147 O 0.81463 0.86389 0.80409 0.0
O148 O 0.76359 0.73364 0.78426 0.0
O149 O 0.6864 0.70577 0.76553 0.0
O150 O 0.55321 0.6431 0.78494 0.0
O151 O 0.63602 0.88882 0.80816 0.0
O152 O 0.53759 0.65927 0.81198 0.0
O153 O 0.58098 0.80756 0.82551 0.0
C154 C 0.63333 0.83497 0.75723 0.0
C155 C 0.70179 0.72069 0.83733 0.0
C156 C 0.73804 0.70942 0.77008 0.0
C157 C 0.82238 0.91901 0.80227 0.0
C158 C 0.5236 0.62332 0.799 0.0
C159 C 0.59735 0.86338 0.82039 0.0
O160 O 0.60769 0.77535 0.75952 0.0
O161 O 0.78847 0.68469 0.94132 0.0
Zn162 Zn 0.82044 0.69844 0.96511 0.0
O163 O 0.87888 0.66813 0.96839 0.0
Zn164 Zn 0.96016 0.73635 0.97539 0.0
Zn165 Zn 0.88946 0.63619 0.9468 0.0
Zn166 Zn 0.84852 0.60439 0.98633 0.0
O167 O 0.99325 0.71631 0.99636 0.0
O168 O 0.9047 0.63876 0.00736 0.0
O169 O 0.85673 0.78924 0.97158 0.0
O170 O 0.94989 0.80924 0.98163 0.0
O171 O 0.02447 0.76622 0.95663 0.0
O172 O 0.97117 0.69974 0.93576 0.0
O173 O 0.89709 0.55946 0.95171 0.0
O174 O 0.7454 0.65002 0.97956 0.0
O175 O 0.86111 0.5328 0.97827 0.0
O176 O 0.75736 0.57711 0.99323 0.0
C177 C 0.78901 0.65123 0.92902 0.0
C178 C 0.96318 0.68003 0.00873 0.0
C179 C 0.02083 0.74792 0.9413 0.0
C180 C 0.90853 0.82539 0.97909 0.0
C181 C 0.8844 0.52383 0.96473 0.0
C182 C 0.72472 0.60333 0.98968 0.0
O183 O 0.82156 0.62354 0.92965 0.0
O184 O 0.13622 0.81846 0.10311 0.0
Zn185 Zn 0.14602 0.84656 0.12741 0.0
O186 O 0.23308 0.90923 0.13205 0.0
Zn187 Zn 0.23617 0.98543 0.13959 0.0
Zn188 Zn 0.28253 0.92844 0.11124 0.0
Zn189 Zn 0.26769 0.88088 0.1503 0.0
O190 O 0.29242 0.0226 0.15958 0.0
O191 O 0.2921 0.93929 0.17095 0.0
O192 O 0.08531 0.87773 0.13292 0.0
O193 O 0.15028 0.96695 0.14645 0.0
O194 O 0.26559 0.05099 0.12131 0.0
O195 O 0.29786 0.011 0.10101 0.0
O196 O 0.36833 0.94021 0.11732 0.0
O197 O 0.12071 0.77028 0.14189 0.0
O198 O 0.35251 0.89373 0.1427 0.0
O199 O 0.20449 0.78962 0.15746 0.0
C200 C 0.17461 0.82538 0.09124 0.0
C201 C 0.30633 0.99713 0.17167 0.0
C202 C 0.28887 0.05473 0.10662 0.0
C203 C 0.09497 0.92483 0.14201 0.0
C204 C 0.38841 0.9231 0.13013 0.0
C205 C 0.14703 0.7531 0.15301 0.0
O206 O 0.23411 0.86235 0.09294 0.0
O207 O 0.34009 0.11526 0.27435 0.0
Zn208 Zn 0.31782 0.13364 0.29721 0.0
O209 O 0.35053 0.22322 0.2994 0.0
Zn210 Zn 0.28319 0.24153 0.30238 0.0
Zn211 Zn 0.39329 0.2655 0.27859 0.0
Zn212 Zn 0.40639 0.25456 0.31912 0.0
O213 O 0.29347 0.28968 0.32371 0.0
O214 O 0.36311 0.27488 0.33824 0.0
O215 O 0.22382 0.08269 0.30078 0.0
O216 O 0.20276 0.16044 0.30441 0.0
O217 O 0.26982 0.28477 0.28244 0.0
O218 O 0.33728 0.28447 0.26381 0.0
O219 O 0.46625 0.35083 0.28518 0.0
O220 O 0.35858 0.10438 0.31384 0.0
O221 O 0.48028 0.34063 0.31284 0.0
O222 O 0.43065 0.18924 0.32766 0.0
C223 C 0.38069 0.14825 0.26306 0.0
C224 C 0.32306 0.29385 0.33742 0.0
C225 C 0.29205 0.29398 0.26744 0.0
C226 C 0.18499 0.10195 0.30346 0.0
C227 C 0.49469 0.37383 0.29925 0.0
C228 C 0.40329 0.12983 0.32459 0.0
O229 O 0.41208 0.20861 0.26385 0.0
O230 O 0.1916 0.30037 0.43873 0.0
Zn231 Zn 0.1588 0.29351 0.46236 0.0
O232 O 0.10952 0.33481 0.46333 0.0
Zn233 Zn 0.02227 0.27618 0.46821 0.0
Zn234 Zn 0.11187 0.37288 0.44174 0.0
Zn235 Zn 0.14118 0.39656 0.48132 0.0
O236 O 0.99034 0.30299 0.48826 0.0
O237 O 0.08227 0.36044 0.50145 0.0
O238 O 0.10992 0.20342 0.47109 0.0
O239 O 0.01799 0.19779 0.47634 0.0
O240 O 0.96603 0.25277 0.44737 0.0
O241 O 0.03493 0.31535 0.42805 0.0
O242 O 0.10494 0.45083 0.44633 0.0
O243 O 0.2365 0.34011 0.47656 0.0
O244 O 0.13189 0.4703 0.47372 0.0
O245 O 0.23105 0.41969 0.48842 0.0
C246 C 0.20536 0.3418 0.42711 0.0
C247 C 0.02198 0.32893 0.50171 0.0
C248 C 0.97993 0.27119 0.43198 0.0
C249 C 0.05377 0.17403 0.4769 0.0
C250 C 0.11321 0.483 0.45986 0.0
C251 C 0.26059 0.38968 0.4857 0.0
O252 O 0.18513 0.38104 0.42754 0.0
O253 O 0.86034 0.17404 0.59534 0.0
Zn254 Zn 0.85614 0.15127 0.61981 0.0
O255 O 0.7713 0.09284 0.62691 0.0
Zn256 Zn 0.76708 0.01782 0.63639 0.0
Zn257 Zn 0.71888 0.07021 0.60664 0.0
Zn258 Zn 0.74315 0.12924 0.64454 0.0
O259 O 0.72295 0.99366 0.65897 0.0
O260 O 0.73279 0.08493 0.6673 0.0
O261 O 0.91573 0.11914 0.62445 0.0
O262 O 0.85472 0.03396 0.64008 0.0
O263 O 0.72667 0.94469 0.62011 0.0
O264 O 0.70149 0.98542 0.59827 0.0
O265 O 0.63545 0.05985 0.61317 0.0
O266 O 0.88654 0.23227 0.63185 0.0
O267 O 0.6527 0.10548 0.63868 0.0
O268 O 0.807 0.22446 0.64749 0.0
C269 C 0.81954 0.1669 0.58419 0.0
C270 C 0.71845 0.02801 0.67042 0.0
C271 C 0.705 0.94 0.60511 0.0
C272 C 0.90813 0.07349 0.63384 0.0
C273 C 0.61568 0.07495 0.62634 0.0
C274 C 0.86342 0.25644 0.64176 0.0
O275 O 0.76061 0.13142 0.58696 0.0
H276 H 0.64282 0.64376 0.98198 0.0
H277 H 0.66287 0.51055 0.01384 0.0
H278 H 0.55552 0.47049 0.02463 0.0
H279 H 0.45348 0.46719 0.02293 0.0
H280 H 0.43183 0.59426 0.98906 0.0
H281 H 0.54365 0.64443 0.98144 0.0
C282 C 0.6242 0.60621 0.99138 0.0
C283 C 0.66088 0.57981 0.99698 0.0
C284 C 0.56246 0.58289 0.99726 0.0
C285 C 0.6356 0.53133 0.00919 0.0
C286 C 0.57432 0.50861 0.0154 0.0
C287 C 0.47372 0.50715 0.01427 0.0
C288 C 0.43475 0.52763 0.00669 0.0
C289 C 0.53704 0.53337 0.0093 0.0
C290 C 0.46111 0.57822 0.99515 0.0
C291 C 0.52477 0.60638 0.99069 0.0
H292 H 0.0268 0.6638 0.14494 0.0
H293 H 0.18104 0.69812 0.17841 0.0
H294 H 0.1184 0.5914 0.19012 0.0
H295 H 0.02297 0.4858 0.18923 0.0
H296 H 0.87259 0.4505 0.15427 0.0
H297 H 0.9301 0.5609 0.14506 0.0
C298 C 0.0469 0.64835 0.15487 0.0
C299 C 0.109 0.6891 0.16067 0.0
C300 C 0.01097 0.58684 0.16138 0.0
C301 C 0.13372 0.66783 0.17359 0.0
C302 C 0.09779 0.60681 0.18033 0.0
C303 C 0.00202 0.50274 0.17993 0.0
C304 C 0.9432 0.46016 0.17256 0.0
C305 C 0.03667 0.56562 0.17416 0.0
C306 C 0.91746 0.48243 0.16022 0.0
C307 C 0.9506 0.54539 0.15485 0.0
H308 H 0.35522 0.00427 0.3194 0.0
H309 H 0.49917 0.1616 0.34793 0.0
H310 H 0.5387 0.09366 0.35876 0.0
H311 H 0.5397 0.99325 0.35734 0.0
H312 H 0.402 0.84066 0.32636 0.0
H313 H 0.35148 0.9028 0.31957 0.0
C314 C 0.39495 0.02399 0.32812 0.0
C315 C 0.4246 0.0885 0.33268 0.0
C316 C 0.4182 0.9852 0.33392 0.0
C317 C 0.47569 0.11247 0.34409 0.0
C318 C 0.49827 0.07356 0.35029 0.0
C319 C 0.49731 0.97282 0.34956 0.0
C320 C 0.47393 0.91201 0.34253 0.0
C321 C 0.47078 0.01026 0.34496 0.0
C322 C 0.42025 0.88692 0.33207 0.0
C323 C 0.39188 0.92274 0.32805 0.0
H324 H 0.3445 0.35334 0.4763 0.0
H325 H 0.32214 0.47857 0.51064 0.0
H326 H 0.42991 0.51874 0.52111 0.0
H327 H 0.53265 0.524 0.5189 0.0
H328 H 0.55755 0.40582 0.48266 0.0
H329 H 0.44577 0.35583 0.47483 0.0
C330 C 0.36281 0.38905 0.4862 0.0
C331 C 0.32511 0.41302 0.49264 0.0
C332 C 0.42511 0.41275 0.4919 0.0
C333 C 0.35009 0.45957 0.50537 0.0
C334 C 0.41166 0.48238 0.5114 0.0
C335 C 0.51324 0.48605 0.50962 0.0
C336 C 0.55317 0.46793 0.50153 0.0
C337 C 0.44984 0.45991 0.50459 0.0
C338 C 0.52766 0.42004 0.48918 0.0
C339 C 0.46394 0.39193 0.48461 0.0
H340 H 0.88986 0.31535 0.67278 0.0
H341 H 0.93033 0.34821 0.61914 0.0
H342 H 0.0078 0.45863 0.62463 0.0
H343 H 0.06259 0.54622 0.64441 0.0
H344 H 0.02378 0.51578 0.69822 0.0
H345 H 0.94909 0.40395 0.69301 0.0
C346 C 0.9151 0.34716 0.66235 0.0
C347 C 0.90383 0.32422 0.64557 0.0
C348 C 0.96102 0.41061 0.66564 0.0
C349 C 0.9379 0.36523 0.63215 0.0
C350 C 0.98255 0.42818 0.63528 0.0
C351 C 0.03901 0.51503 0.65508 0.0
C352 C 0.0491 0.53963 0.67168 0.0
C353 C 0.99478 0.45133 0.65196 0.0
C354 C 0.01724 0.49822 0.68529 0.0
C355 C 0.97389 0.43431 0.68231 0.0
H356 H 0.63521 0.98684 0.81496 0.0
H357 H 0.50395 0.82518 0.84462 0.0
H358 H 0.45959 0.88704 0.85662 0.0
H359 H 0.45112 0.98344 0.85629 0.0
H360 H 0.57839 0.14169 0.82506 0.0
H361 H 0.63255 0.08509 0.81639 0.0
C362 C 0.59703 0.96489 0.82411 0.0
C363 C 0.57229 0.90094 0.82866 0.0
C364 C 0.57147 0.0004 0.83078 0.0
C365 C 0.52351 0.874 0.84075 0.0
C366 C 0.49822 0.90943 0.84764 0.0
C367 C 0.49195 0.00629 0.848 0.0
C368 C 0.51098 0.06687 0.84137 0.0
C369 C 0.52101 0.97229 0.84247 0.0
C370 C 0.5631 0.0953 0.83037 0.0
C371 C 0.59364 0.0627 0.8253 0.0
H372 H 0.53747 0.52995 0.785 0.0
H373 H 0.42172 0.56324 0.82005 0.0
H374 H 0.36992 0.45266 0.82916 0.0
H375 H 0.36466 0.34993 0.82905 0.0
H376 H 0.48597 0.31851 0.79551 0.0
H377 H 0.52908 0.42538 0.78406 0.0
C378 C 0.49963 0.51253 0.79429 0.0
C379 C 0.48279 0.55451 0.80169 0.0
C380 C 0.47225 0.44973 0.80003 0.0
C381 C 0.43498 0.53168 0.81405 0.0
C382 C 0.40584 0.46866 0.81937 0.0
C383 C 0.40036 0.36615 0.81918 0.0
C384 C 0.42228 0.32609 0.81325 0.0
C385 C 0.42538 0.42781 0.81279 0.0
C386 C 0.46856 0.3483 0.80044 0.0
C387 C 0.49303 0.40936 0.79382 0.0
H388 H 0.99257 0.54292 0.95028 0.0
H389 H 0.83985 0.41398 0.98272 0.0
H390 H 0.89874 0.36063 0.99016 0.0
H391 H 0.99815 0.35963 0.99024 0.0
H392 H 0.15508 0.49517 0.95994 0.0
H393 H 0.08996 0.53736 0.94891 0.0
C394 C 0.97134 0.50189 0.95857 0.0
C395 C 0.91166 0.48196 0.96584 0.0
C396 C 0.00687 0.47377 0.96348 0.0
C397 C 0.88545 0.42978 0.97688 0.0
C398 C 0.91938 0.39975 0.98125 0.0
C399 C 0.01817 0.39801 0.98108 0.0
C400 C 0.08178 0.42457 0.97605 0.0
C401 C 0.98097 0.42284 0.9751 0.0
C402 C 0.10657 0.47423 0.96416 0.0
C403 C 0.06928 0.49824 0.95782 0.0
H404 H 0.48328 0.0329 0.11717 0.0
H405 H 0.44787 0.87428 0.14893 0.0
H406 H 0.55848 0.92884 0.15784 0.0
H407 H 0.66139 0.02546 0.15906 0.0
H408 H 0.69603 0.18726 0.12874 0.0
H409 H 0.58944 0.12752 0.11683 0.0
C410 C 0.50016 0.00951 0.12567 0.0
C411 C 0.45733 0.94934 0.13232 0.0
C412 C 0.56333 0.04229 0.13128 0.0
C413 C 0.47981 0.92035 0.14359 0.0
C414 C 0.54296 0.95178 0.14879 0.0
C415 C 0.64606 0.04781 0.14975 0.0
C416 C 0.68679 0.11126 0.14498 0.0
C417 C 0.58454 0.0135 0.14314 0.0
C418 C 0.66579 0.1388 0.13278 0.0
C419 C 0.60477 0.10458 0.12594 0.0
H420 H 0.47321 0.46057 0.28411 0.0
H421 H 0.59836 0.44209 0.31937 0.0
H422 H 0.64686 0.55436 0.32661 0.0
H423 H 0.6465 0.65426 0.32492 0.0
H424 H 0.51427 0.67032 0.29174 0.0
H425 H 0.47514 0.56204 0.28177 0.0
C426 C 0.51235 0.48158 0.29302 0.0
C427 C 0.53306 0.44337 0.30098 0.0
C428 C 0.53761 0.54524 0.29775 0.0
C429 C 0.58232 0.47073 0.31292 0.0
C430 C 0.60956 0.53472 0.31716 0.0
C431 C 0.60948 0.63448 0.31538 0.0
C432 C 0.58331 0.67059 0.30911 0.0
C433 C 0.5864 0.5719 0.30999 0.0
C434 C 0.53501 0.64365 0.29686 0.0
C435 C 0.5128 0.58178 0.29112 0.0
H436 H 0.00323 0.46123 0.44579 0.0
H437 H 0.15577 0.59177 0.47803 0.0
H438 H 0.09377 0.64056 0.48657 0.0
H439 H 0.99233 0.63707 0.48763 0.0
H440 H 0.83595 0.50102 0.45723 0.0
H441 H 0.90328 0.46299 0.44528 0.0
C442 C 0.0237 0.50182 0.45422 0.0
C443 C 0.08441 0.52354 0.46111 0.0
C444 C 0.98641 0.52732 0.45976 0.0
C445 C 0.10956 0.57486 0.47242 0.0
C446 C 0.0738 0.60217 0.47744 0.0
C447 C 0.97273 0.59929 0.47831 0.0
C448 C 0.90864 0.57144 0.47352 0.0
C449 C 0.0114 0.57721 0.47169 0.0
C450 C 0.88475 0.52297 0.46129 0.0
C451 C 0.92335 0.50133 0.45442 0.0
H452 H 0.55398 0.05288 0.65638 0.0
H453 H 0.52194 0.02081 0.60236 0.0
H454 H 0.41013 0.94614 0.60752 0.0
H455 H 0.32209 0.88501 0.62768 0.0
H456 H 0.35639 0.91844 0.68153 0.0
H457 H 0.46689 0.996 0.67617 0.0
C458 C 0.5224 0.03085 0.64567 0.0
C459 C 0.54645 0.04277 0.62901 0.0
C460 C 0.45878 0.9865 0.64874 0.0
C461 C 0.50468 0.01281 0.61534 0.0
C462 C 0.44084 0.96948 0.61828 0.0
C463 C 0.35427 0.90866 0.63817 0.0
C464 C 0.33181 0.89539 0.65497 0.0
C465 C 0.41764 0.95465 0.63497 0.0
C466 C 0.37317 0.92748 0.6685 0.0
C467 C 0.43611 0.97222 0.66545 0.0
H468 H 0.32831 0.25291 0.9567 0.0
H469 H 0.24913 0.35829 0.93364 0.0
H470 H 0.26579 0.3277 0.90535 0.0
H471 H 0.29649 0.26531 0.88729 0.0
H472 H 0.37783 0.16199 0.91048 0.0
H473 H 0.36721 0.19808 0.93856 0.0
C474 C 0.31498 0.26948 0.94548 0.0
C475 C 0.28683 0.30722 0.94729 0.0
C476 C 0.32499 0.25202 0.92927 0.0
C477 C 0.27078 0.32911 0.93261 0.0
C478 C 0.2801 0.31146 0.91643 0.0
C479 C 0.31239 0.25109 0.89847 0.0
C480 C 0.33738 0.21048 0.89675 0.0
C481 C 0.30621 0.27207 0.91462 0.0
C482 C 0.35842 0.19318 0.91138 0.0
C483 C 0.3521 0.21356 0.92748 0.0
H484 H 0.95845 0.31098 0.10566 0.0
H485 H 0.12131 0.33663 0.13391 0.0
H486 H 0.18465 0.36997 0.10808 0.0
H487 H 0.19159 0.38234 0.07706 0.0
H488 H 0.02764 0.35113 0.0485 0.0
H489 H 0.9676 0.33093 0.07484 0.0
C490 C 0.00792 0.32439 0.10621 0.0
C491 C 0.03468 0.32047 0.1217 0.0
C492 C 0.04412 0.34279 0.09122 0.0
C493 C 0.09906 0.33836 0.12215 0.0
C494 C 0.13554 0.35768 0.10737 0.0
C495 C 0.14321 0.37266 0.07664 0.0
C496 C 0.11411 0.36816 0.06086 0.0
C497 C 0.10829 0.35887 0.09178 0.0
C498 C 0.05107 0.3547 0.0605 0.0
C499 C 0.01659 0.34278 0.07555 0.0
H500 H 0.71182 0.05926 0.22231 0.0
H501 H 0.82399 0.24109 0.2463 0.0
H502 H 0.78321 0.19348 0.27415 0.0
H503 H 0.72608 0.0981 0.29187 0.0
H504 H 0.61582 0.91621 0.26765 0.0
H505 H 0.64517 0.96625 0.23974 0.0
C506 C 0.72672 0.08878 0.23359 0.0
C507 C 0.77165 0.15354 0.2322 0.0
C508 C 0.70391 0.06096 0.24957 0.0
C509 C 0.78963 0.19112 0.24696 0.0
C510 C 0.76662 0.16381 0.26293 0.0
C511 C 0.70765 0.06941 0.28051 0.0
C512 C 0.66955 0.00322 0.28193 0.0
C513 C 0.72534 0.09842 0.26443 0.0
C514 C 0.64567 0.96709 0.26701 0.0
C515 C 0.66256 0.99567 0.25101 0.0
H516 H 0.61671 0.78812 0.40576 0.0
H517 H 0.7165 0.7203 0.37501 0.0
H518 H 0.7349 0.67238 0.40004 0.0
H519 H 0.73137 0.65832 0.43115 0.0
H520 H 0.63659 0.73168 0.46192 0.0
H521 H 0.60714 0.76807 0.43647 0.0
C522 C 0.64157 0.76197 0.40448 0.0
C523 C 0.66553 0.75823 0.38857 0.0
C524 C 0.65341 0.73584 0.419 0.0
C525 C 0.69802 0.72444 0.38716 0.0
C526 C 0.70862 0.697 0.40147 0.0
C527 C 0.70345 0.68138 0.43224 0.0
C528 C 0.68671 0.69273 0.4484 0.0
C529 C 0.68789 0.70371 0.41754 0.0
C530 C 0.65075 0.72299 0.44962 0.0
C531 C 0.6338 0.74383 0.43508 0.0
H532 H 0.96237 0.67255 0.55232 0.0
H533 H 0.77465 0.57544 0.57372 0.0
H534 H 0.81915 0.59041 0.60228 0.0
H535 H 0.9111 0.64008 0.62133 0.0
H536 H 0.09884 0.73619 0.60006 0.0
H537 H 0.05448 0.7124 0.57131 0.0
C538 C 0.93108 0.6538 0.5632 0.0
C539 C 0.86517 0.62353 0.56082 0.0
C540 C 0.95699 0.66306 0.57964 0.0
C541 C 0.82549 0.599 0.5751 0.0
C542 C 0.85092 0.60792 0.59149 0.0
C543 C 0.94235 0.65549 0.61041 0.0
C544 C 0.00818 0.69072 0.61284 0.0
C545 C 0.91655 0.64142 0.59393 0.0
C546 C 0.04801 0.70928 0.59855 0.0
C547 C 0.02267 0.69581 0.5821 0.0
H548 H 0.24791 0.89554 0.79248 0.0
H549 H 0.36945 0.07594 0.76861 0.0
H550 H 0.33974 0.02653 0.74062 0.0
H551 H 0.2709 0.93515 0.72298 0.0
H552 H 0.14752 0.75497 0.74658 0.0
H553 H 0.18708 0.8013 0.77468 0.0
C554 C 0.2686 0.92402 0.78118 0.0
C555 C 0.31018 0.98967 0.78268 0.0
C556 C 0.25066 0.89546 0.76508 0.0
C557 C 0.33704 0.02551 0.76787 0.0
C558 C 0.31989 0.99732 0.75184 0.0
C559 C 0.25304 0.90574 0.73426 0.0
C560 C 0.20559 0.84192 0.73272 0.0
C561 C 0.27537 0.93281 0.7503 0.0
C562 C 0.18386 0.80425 0.74742 0.0
C563 C 0.20623 0.83082 0.76348 0.0
H564 H 0.65166 0.70484 0.86922 0.0
H565 H 0.78869 0.68236 0.84007 0.0
H566 H 0.82193 0.65034 0.8656 0.0
H567 H 0.81922 0.63813 0.89663 0.0
H568 H 0.6863 0.66586 0.92603 0.0
H569 H 0.64369 0.68507 0.90003 0.0
C570 C 0.68835 0.69237 0.86842 0.0
C571 C 0.71805 0.69685 0.85277 0.0
C572 C 0.70806 0.67476 0.88323 0.0
C573 C 0.76544 0.68021 0.85198 0.0
C574 C 0.78448 0.66165 0.86657 0.0
C575 C 0.77997 0.64692 0.89729 0.0
C576 C 0.75609 0.65076 0.9132 0.0
C577 C 0.75705 0.65999 0.88233 0.0
C578 C 0.70571 0.66298 0.9139 0.0
C579 C 0.68148 0.67425 0.89905 0.0
H580 H 0.08915 0.75252 0.01513 0.0
H581 H 0.91071 0.63161 0.03982 0.0
H582 H 0.96235 0.66117 0.0676 0.0
H583 H 0.05554 0.72965 0.08486 0.0
H584 H 0.23376 0.85172 0.06024 0.0
H585 H 0.18481 0.81257 0.03243 0.0
C586 C 0.06155 0.73202 0.02657 0.0
C587 C 0.99585 0.69058 0.02536 0.0
C588 C 0.09144 0.74966 0.04252 0.0
C589 C 0.96119 0.66384 0.04033 0.0
C590 C 0.99067 0.68092 0.05625 0.0
C591 C 0.08398 0.74721 0.07344 0.0
C592 C 0.14811 0.79427 0.07466 0.0
C593 C 0.05538 0.72509 0.05749 0.0
C594 C 0.18433 0.81569 0.05971 0.0
C595 C 0.15625 0.79357 0.04378 0.0
H596 H 0.31565 0.95637 0.20337 0.0
H597 H 0.36629 0.1252 0.17429 0.0
H598 H 0.40475 0.18909 0.19995 0.0
H599 H 0.4107 0.19538 0.23104 0.0
H600 H 0.35395 0.02619 0.26046 0.0
H601 H 0.33282 0.96463 0.23436 0.0
C602 C 0.33605 0.00723 0.20262 0.0
C603 C 0.337 0.03569 0.18698 0.0
C604 C 0.35698 0.04381 0.21753 0.0
C605 C 0.36388 0.1018 0.18622 0.0
C606 C 0.3861 0.13855 0.20089 0.0
C607 C 0.39549 0.14542 0.23173 0.0
C608 C 0.38348 0.11532 0.24763 0.0
C609 C 0.38103 0.10985 0.21669 0.0
C610 C 0.36314 0.05036 0.24833 0.0
C611 C 0.35068 0.01504 0.23341 0.0
H612 H 0.34741 0.27991 0.3705 0.0
H613 H 0.26214 0.36147 0.33883 0.0
H614 H 0.22434 0.39049 0.36402 0.0
H615 H 0.20627 0.38322 0.39489 0.0
H616 H 0.28669 0.2965 0.42639 0.0
H617 H 0.3361 0.27983 0.40152 0.0
C618 C 0.32138 0.30485 0.36912 0.0
C619 C 0.3071 0.31783 0.35281 0.0
C620 C 0.2985 0.32023 0.38366 0.0
C621 C 0.27319 0.35016 0.35125 0.0
C622 C 0.25153 0.36687 0.36565 0.0
C623 C 0.23558 0.36178 0.39633 0.0
C624 C 0.24238 0.34071 0.41241 0.0
C625 C 0.26252 0.35073 0.3819 0.0
C626 C 0.28018 0.31257 0.41409 0.0
C627 C 0.30844 0.30294 0.39988 0.0
H628 H 0.89688 0.24813 0.50803 0.0
H629 H 0.07239 0.37897 0.53274 0.0
H630 H 0.02244 0.34431 0.56049 0.0
H631 H 0.93318 0.26918 0.57768 0.0
H632 H 0.75796 0.13614 0.55341 0.0
H633 H 0.80346 0.1801 0.5255 0.0
C634 C 0.924 0.26989 0.51946 0.0
C635 C 0.98866 0.31553 0.51826 0.0
C636 C 0.89524 0.24897 0.53545 0.0
C637 C 0.02282 0.34334 0.53325 0.0
C638 C 0.99434 0.32345 0.54915 0.0
C639 C 0.90463 0.25009 0.5663 0.0
C640 C 0.84263 0.19878 0.56757 0.0
C641 C 0.93126 0.27498 0.55038 0.0
C642 C 0.8059 0.17546 0.55275 0.0
C643 C 0.83201 0.20039 0.5368 0.0
H644 H 0.67376 0.95723 0.74834 0.0
H645 H 0.59096 0.76903 0.72738 0.0
H646 H 0.60699 0.81231 0.69863 0.0
H647 H 0.65397 0.90402 0.67945 0.0
H648 H 0.73644 0.09218 0.70032 0.0
H649 H 0.71098 0.04832 0.72909 0.0
C650 C 0.6583 0.92548 0.73751 0.0
C651 C 0.63181 0.85992 0.74008 0.0
C652 C 0.66838 0.95073 0.72097 0.0
C653 C 0.61154 0.81962 0.72585 0.0
C654 C 0.62111 0.84439 0.70937 0.0
C655 C 0.6661 0.93548 0.69028 0.0
C656 C 0.69799 0.00138 0.68774 0.0
C657 C 0.65113 0.90994 0.70678 0.0
C658 C 0.71223 0.04134 0.7019 0.0
C659 C 0.69777 0.01628 0.71837 0.0
H660 H 0.32246 0.07156 0.07309 0.0
H661 H 0.2834 0.16002 0.11526 0.0
H662 H 0.29098 0.24281 0.09645 0.0
H663 H 0.29704 0.28345 0.06768 0.0
H664 H 0.33174 0.19305 0.02519 0.0
H665 H 0.33875 0.11861 0.04456 0.0
C666 C 0.31646 0.1094 0.07822 0.0
C667 C 0.30149 0.10892 0.09553 0.0
C668 C 0.31989 0.15653 0.06727 0.0
C669 C 0.29422 0.15863 0.10196 0.0
C670 C 0.29856 0.20613 0.09121 0.0
C671 C 0.30726 0.24823 0.06264 0.0
C672 C 0.31303 0.24347 0.04497 0.0
C673 C 0.30964 0.20456 0.07378 0.0
C674 C 0.32659 0.19761 0.03872 0.0
C675 C 0.33033 0.15476 0.04979 0.0
H676 H 0.1518 0.30542 0.20162 0.0
H677 H 0.03869 0.33128 0.23942 0.0
H678 H 0.11131 0.33793 0.2617 0.0
H679 H 0.19966 0.32432 0.2708 0.0
H680 H 0.31161 0.29631 0.23309 0.0
H681 H 0.24705 0.30345 0.21045 0.0
C682 C 0.14341 0.3134 0.21469 0.0
C683 C 0.08924 0.31688 0.21883 0.0
C684 C 0.18492 0.31636 0.2275 0.0
C685 C 0.07968 0.32796 0.23584 0.0
C686 C 0.1211 0.33156 0.24863 0.0
C687 C 0.21058 0.32064 0.25762 0.0
C688 C 0.2599 0.30886 0.2537 0.0
C689 C 0.17276 0.32392 0.24466 0.0
C690 C 0.27375 0.30502 0.23653 0.0
C691 C 0.23666 0.30882 0.22355 0.0
H692 H 0.83134 0.13603 0.36506 0.0
H693 H 0.69974 0.00697 0.40216 0.0
H694 H 0.76348 0.07661 0.42513 0.0
H695 H 0.86155 0.1688 0.43488 0.0
H696 H 0.9945 0.29691 0.39787 0.0
H697 H 0.92498 0.23342 0.37481 0.0
C698 C 0.81605 0.12356 0.37814 0.0
C699 C 0.76112 0.06589 0.38182 0.0
C700 C 0.85347 0.16347 0.39139 0.0
C701 C 0.74209 0.05071 0.3989 0.0
C702 C 0.77858 0.09051 0.4121 0.0
C703 C 0.87503 0.18339 0.42179 0.0
C704 C 0.93362 0.23725 0.41818 0.0
C705 C 0.83519 0.14618 0.40852 0.0
C706 C 0.94996 0.25545 0.40109 0.0
C707 C 0.91024 0.21906 0.38784 0.0
H708 H 0.701 0.71252 0.56697 0.0
H709 H 0.65567 0.79666 0.52486 0.0
H710 H 0.64518 0.86848 0.54431 0.0
H711 H 0.66302 0.91658 0.57245 0.0
H712 H 0.71409 0.83671 0.61445 0.0
H713 H 0.70718 0.75351 0.59589 0.0
C714 C 0.68745 0.74562 0.5621 0.0
C715 C 0.67998 0.74983 0.54448 0.0
C716 C 0.68324 0.78808 0.5733 0.0
C717 C 0.66247 0.79301 0.53836 0.0
C718 C 0.65658 0.83421 0.54946 0.0
C719 C 0.67172 0.88048 0.57765 0.0
C720 C 0.69012 0.88364 0.59476 0.0
C721 C 0.66917 0.8337 0.56684 0.0
C722 C 0.70047 0.83591 0.60128 0.0
C723 C 0.69671 0.78834 0.59066 0.0
H724 H 0.93644 0.67126 0.72965 0.0
H725 H 0.84296 0.70262 0.6872 0.0
H726 H 0.7628 0.69913 0.70638 0.0
H727 H 0.72766 0.70103 0.7356 0.0
H728 H 0.82648 0.6771 0.77796 0.0
H729 H 0.89578 0.6632 0.75837 0.0
C730 C 0.89804 0.67635 0.7245 0.0
C731 C 0.89632 0.68809 0.70703 0.0
C732 C 0.85331 0.67618 0.73563 0.0
C733 C 0.84584 0.6941 0.70062 0.0
C734 C 0.80004 0.69231 0.71159 0.0
C735 C 0.76354 0.69148 0.74052 0.0
C736 C 0.77241 0.69074 0.75819 0.0
C737 C 0.80454 0.68547 0.72918 0.0
C738 C 0.81923 0.6786 0.7644 0.0
C739 C 0.8589 0.6707 0.75322 0.0
H740 H 0.02101 0.73652 0.90684 0.0
H741 H 0.13793 0.84688 0.94892 0.0
H742 H 0.21887 0.91854 0.92908 0.0
H743 H 0.25208 0.95528 0.8999 0.0
H744 H 0.13318 0.84752 0.8578 0.0
H745 H 0.05775 0.76917 0.8776 0.0
C746 C 0.06454 0.77571 0.91171 0.0
C747 C 0.07303 0.78652 0.92937 0.0
C748 C 0.11042 0.81752 0.90023 0.0
C749 C 0.12984 0.83763 0.93541 0.0
C750 C 0.17618 0.87875 0.92407 0.0
C751 C 0.21012 0.91426 0.895 0.0
C752 C 0.19815 0.9077 0.87737 0.0
C753 C 0.1663 0.86999 0.90646 0.0
C754 C 0.14346 0.8541 0.8713 0.0
C755 C 0.10019 0.80925 0.88262 0.0
H756 H 0.98901 0.11062 0.98675 0.0
H757 H 0.10898 0.09637 0.02467 0.0
H758 H 0.05221 0.98162 0.02191 0.0
H759 H 0.98186 0.8891 0.00542 0.0
H760 H 0.8664 0.90147 0.96576 0.0
H761 H 0.90701 0.01321 0.97259 0.0
C762 C 0.00109 0.08183 0.99469 0.0
C763 C 0.05286 0.11087 0.00577 0.0
C764 C 0.96992 0.01609 0.9925 0.0
C765 C 0.06922 0.07417 0.01599 0.0
C766 C 0.03708 0.00888 0.01437 0.0
C767 C 0.96501 0.9161 0.99841 0.0
C768 C 0.92274 0.88817 0.98486 0.0
C769 C 0.98952 0.97986 0.00211 0.0
C770 C 0.89967 0.92267 0.97614 0.0
C771 C 0.92303 0.98643 0.98 0.0
H772 H 0.07783 0.96135 0.17265 0.0
H773 H 0.99556 0.90959 0.12259 0.0
H774 H 0.92411 0.94984 0.12931 0.0
H775 H 0.90028 0.01763 0.14773 0.0
H776 H 0.9864 0.07148 0.19731 0.0
H777 H 0.04026 0.01127 0.19276 0.0
C778 C 0.04307 0.95752 0.1634 0.0
C779 C 0.04224 0.93375 0.14711 0.0
C780 C 0.00317 0.98132 0.16729 0.0
C781 C 0.9968 0.92798 0.13522 0.0
C782 C 0.95639 0.95137 0.13902 0.0
C783 C 0.92889 0.0138 0.15772 0.0
C784 C 0.9395 0.04815 0.17284 0.0
C785 C 0.96114 0.98063 0.15477 0.0
C786 C 0.97745 0.04453 0.18567 0.0
C787 C 0.00861 0.01073 0.183 0.0
H788 H 0.09093 0.11868 0.29291 0.0
H789 H 0.1284 0.98472 0.31849 0.0
H790 H 0.0159 0.91966 0.32569 0.0
H791 H 0.9095 0.90883 0.32743 0.0
H792 H 0.87677 0.04672 0.3019 0.0
H793 H 0.98493 0.10219 0.29188 0.0
C794 C 0.07431 0.07484 0.29992 0.0
C795 C 0.1174 0.0568 0.30546 0.0
C796 C 0.01064 0.03882 0.30414 0.0
C797 C 0.0956 0.9994 0.31418 0.0
C798 C 0.03155 0.96258 0.31837 0.0
C799 C 0.92599 0.95047 0.31949 0.0
C800 C 0.88566 0.97442 0.31574 0.0
C801 C 0.98895 0.98294 0.31385 0.0
C802 C 0.90729 0.0281 0.3053 0.0
C803 C 0.96909 0.05985 0.29949 0.0
H804 H 0.09059 0.0857 0.47244 0.0
H805 H 0.96077 0.12369 0.50021 0.0
H806 H 0.9083 0.01747 0.51174 0.0
H807 H 0.89043 0.91087 0.51122 0.0
H808 H 0.01507 0.86735 0.48321 0.0
H809 H 0.07956 0.97897 0.47479 0.0
C810 C 0.05142 0.07076 0.48119 0.0
C811 C 0.0286 0.11187 0.48512 0.0
C812 C 0.0205 0.00877 0.48769 0.0
C813 C 0.97822 0.09237 0.49663 0.0
C814 C 0.94827 0.03174 0.50332 0.0
C815 C 0.93241 0.92615 0.5035 0.0
C816 C 0.94785 0.88162 0.4976 0.0
C817 C 0.96767 0.98913 0.49849 0.0
C818 C 0.00262 0.90142 0.48786 0.0
C819 C 0.03897 0.96491 0.48294 0.0
H820 H 0.06825 0.94224 0.63452 0.0
H821 H 0.06642 0.9739 0.68839 0.0
H822 H 0.01954 0.04059 0.6832 0.0
H823 H 0.96198 0.07272 0.66356 0.0
H824 H 0.96709 0.04412 0.60964 0.0
H825 H 0.03123 0.99423 0.61445 0.0
C826 C 0.05926 0.96551 0.64501 0.0
C827 C 0.06967 0.95321 0.66176 0.0
C828 C 0.03262 0.00361 0.6419 0.0
C829 C 0.05857 0.98329 0.67539 0.0
C830 C 0.03142 0.02085 0.67243 0.0
C831 C 0.97915 0.05739 0.6529 0.0
C832 C 0.96008 0.06121 0.63634 0.0
C833 C 0.01574 0.02893 0.6558 0.0
C834 C 0.98195 0.04157 0.62248 0.0
C835 C 0.01799 0.01267 0.62524 0.0
H836 H 0.08183 0.09719 0.83549 0.0
H837 H 0.14057 0.02761 0.79292 0.0
H838 H 0.0361 0.98281 0.78025 0.0
H839 H 0.92419 0.94527 0.7842 0.0
H840 H 0.86138 0.00845 0.82709 0.0
H841 H 0.9711 0.07496 0.83663 0.0
C842 C 0.07196 0.07387 0.82321 0.0
C843 C 0.11792 0.06431 0.81529 0.0
C844 C 0.01095 0.04648 0.81619 0.0
C845 C 0.10516 0.03424 0.79937 0.0
C846 C 0.04555 0.00861 0.79212 0.0
C847 C 0.93505 0.97548 0.79529 0.0
C848 C 0.88584 0.97237 0.80502 0.0
C849 C 0.99742 0.01165 0.80085 0.0
C850 C 0.89932 0.01095 0.81941 0.0
C851 C 0.96181 0.04828 0.82493 0.0
loop_
_geom_bond_atom_site_label_1
_geom_bond_atom_site_label_2
_geom_bond_distance
_geom_bond_site_symmetry_2
_ccdc_geom_bond_type
O0 Zn1 1.953 . S
O0 C16 1.225 . S
Zn1 O0 1.953 . S
Zn1 O2 1.949 . S
Zn1 O8 1.919 . S
Zn1 O13 1.924 1_554 S
O2 Zn1 1.949 . S
O2 Zn3 1.923 1_554 S
O2 Zn4 1.950 . S
O2 Zn5 1.945 1_554 S
Zn3 O2 1.923 1_556 S
Zn3 O6 1.933 . S
Zn3 O9 1.941 . S
Zn3 O10 1.965 1_556 S
Zn4 O2 1.950 . S
Zn4 O11 1.938 . S
Zn4 O12 1.906 . S
Zn4 O22 1.953 . S
Zn5 O2 1.945 1_556 S
Zn5 O7 1.932 . S
Zn5 O14 1.977 . S
Zn5 O15 1.910 . S
O6 Zn3 1.933 . S
O6 C17 1.226 . S
O7 Zn5 1.932 . S
O7 C17 1.307 . S
O8 Zn1 1.919 . S
O8 C19 1.253 1_554 S
O9 Zn3 1.941 . S
O9 C19 1.283 . S
O10 Zn3 1.965 1_554 S
O10 C18 1.303 . S
O11 Zn4 1.938 . S
O11 C18 1.247 . S
O12 Zn4 1.906 . S
O12 C20 1.304 . S
O13 Zn1 1.924 1_556 S
O13 C21 1.311 . S
O14 Zn5 1.977 . S
O14 C20 1.272 1_556 S
O15 Zn5 1.910 . S
O15 C21 1.231 . S
C16 O0 1.225 . S
C16 O22 1.298 . S
C17 O6 1.226 . S
C17 O7 1.307 . S
C18 O10 1.303 . S
C18 O11 1.247 . S
C19 O8 1.253 1_556 S
C19 O9 1.283 . S
C20 O12 1.304 . S
C20 O14 1.272 1_554 S
C21 O13 1.311 . S
C21 O15 1.231 . S
O22 Zn4 1.953 . S
O22 C16 1.298 . S
O23 Zn24 1.953 . S
O23 C39 1.225 . S
Zn24 O23 1.953 . S
Zn24 O25 1.949 . S
Zn24 O31 1.919 . S
Zn24 O36 1.924 . S
O25 Zn24 1.949 . S
O25 Zn26 1.923 1_655 S
O25 Zn27 1.950 . S
O25 Zn28 1.945 . S
Zn26 O25 1.923 1_455 S
Zn26 O29 1.933 . S
Zn26 O32 1.941 1_455 S
Zn26 O33 1.965 . S
Zn27 O25 1.950 . S
Zn27 O34 1.938 1_655 S
Zn27 O35 1.906 . S
Zn27 O45 1.953 . S
Zn28 O25 1.945 . S
Zn28 O30 1.932 . S
Zn28 O37 1.977 . S
Zn28 O38 1.910 . S
O29 Zn26 1.933 . S
O29 C40 1.226 . S
O30 Zn28 1.932 . S
O30 C40 1.307 1_655 S
O31 Zn24 1.919 . S
O31 C42 1.253 . S
O32 Zn26 1.941 1_655 S
O32 C42 1.283 . S
O33 Zn26 1.965 . S
O33 C41 1.303 . S
O34 Zn27 1.938 1_455 S
O34 C41 1.247 . S
O35 Zn27 1.906 . S
O35 C43 1.304 . S
O36 Zn24 1.924 . S
O36 C44 1.311 . S
O37 Zn28 1.977 . S
O37 C43 1.272 . S
O38 Zn28 1.910 . S
O38 C44 1.231 . S
C39 O23 1.225 . S
C39 O45 1.298 . S
C40 O29 1.226 . S
C40 O30 1.307 1_455 S
C41 O33 1.303 . S
C41 O34 1.247 . S
C42 O31 1.253 . S
C42 O32 1.283 . S
C43 O35 1.304 . S
C43 O37 1.272 . S
C44 O36 1.311 . S
C44 O38 1.231 . S
O45 Zn27 1.953 . S
O45 C39 1.298 . S
O46 Zn47 1.953 . S
O46 C62 1.225 . S
Zn47 O46 1.953 . S
Zn47 O48 1.949 . S
Zn47 O54 1.919 . S
Zn47 O59 1.924 . S
O48 Zn47 1.949 . S
O48 Zn49 1.923 1_565 S
O48 Zn50 1.950 . S
O48 Zn51 1.945 . S
Zn49 O48 1.923 1_545 S
Zn49 O52 1.933 . S
Zn49 O55 1.941 1_545 S
Zn49 O56 1.965 . S
Zn50 O48 1.950 . S
Zn50 O57 1.938 1_565 S
Zn50 O58 1.906 . S
Zn50 O68 1.953 . S
Zn51 O48 1.945 . S
Zn51 O53 1.932 . S
Zn51 O60 1.977 . S
Zn51 O61 1.910 . S
O52 Zn49 1.933 . S
O52 C63 1.226 . S
O53 Zn51 1.932 . S
O53 C63 1.307 1_565 S
O54 Zn47 1.919 . S
O54 C65 1.253 . S
O55 Zn49 1.941 1_565 S
O55 C65 1.283 . S
O56 Zn49 1.965 . S
O56 C64 1.303 . S
O57 Zn50 1.938 1_545 S
O57 C64 1.247 . S
O58 Zn50 1.906 . S
O58 C66 1.304 . S
O59 Zn47 1.924 . S
O59 C67 1.311 . S
O60 Zn51 1.977 . S
O60 C66 1.272 . S
O61 Zn51 1.910 . S
O61 C67 1.231 . S
C62 O46 1.225 . S
C62 O68 1.298 . S
C63 O52 1.226 . S
C63 O53 1.307 1_545 S
C64 O56 1.303 . S
C64 O57 1.247 . S
C65 O54 1.253 . S
C65 O55 1.283 . S
C66 O58 1.304 . S
C66 O60 1.272 . S
C67 O59 1.311 . S
C67 O61 1.231 . S
O68 Zn50 1.953 . S
O68 C62 1.298 . S
O69 Zn70 1.953 . S
O69 C85 1.225 . S
Zn70 O69 1.953 . S
Zn70 O71 1.949 . S
Zn70 O77 1.919 . S
Zn70 O82 1.924 . S
O71 Zn70 1.949 . S
O71 Zn72 1.923 . S
O71 Zn73 1.950 . S
O71 Zn74 1.945 . S
Zn72 O71 1.923 . S
Zn72 O75 1.933 . S
Zn72 O78 1.941 . S
Zn72 O79 1.965 . S
Zn73 O71 1.950 . S
Zn73 O80 1.938 . S
Zn73 O81 1.906 . S
Zn73 O91 1.953 . S
Zn74 O71 1.945 . S
Zn74 O76 1.932 . S
Zn74 O83 1.977 . S
Zn74 O84 1.910 . S
O75 Zn72 1.933 . S
O75 C86 1.226 . S
O76 Zn74 1.932 . S
O76 C86 1.307 . S
O77 Zn70 1.919 . S
O77 C88 1.253 . S
O78 Zn72 1.941 . S
O78 C88 1.283 . S
O79 Zn72 1.965 . S
O79 C87 1.303 . S
O80 Zn73 1.938 . S
O80 C87 1.247 . S
O81 Zn73 1.906 . S
O81 C89 1.304 . S
O82 Zn70 1.924 . S
O82 C90 1.311 . S
O83 Zn74 1.977 . S
O83 C89 1.272 . S
O84 Zn74 1.910 . S
O84 C90 1.231 . S
C85 O69 1.225 . S
C85 O91 1.298 . S
C86 O75 1.226 . S
C86 O76 1.307 . S
C87 O79 1.303 . S
C87 O80 1.247 . S
C88 O77 1.253 . S
C88 O78 1.283 . S
C89 O81 1.304 . S
C89 O83 1.272 . S
C90 O82 1.311 . S
C90 O84 1.231 . S
O91 Zn73 1.953 . S
O91 C85 1.298 . S
O92 Zn93 1.953 . S
O92 C108 1.225 . S
Zn93 O92 1.953 . S
Zn93 O94 1.949 . S
Zn93 O100 1.919 . S
Zn93 O105 1.924 . S
O94 Zn93 1.949 . S
O94 Zn95 1.923 1_455 S
O94 Zn96 1.950 . S
O94 Zn97 1.945 . S
Zn95 O94 1.923 1_655 S
Zn95 O98 1.933 . S
Zn95 O101 1.941 1_655 S
Zn95 O102 1.965 . S
Zn96 O94 1.950 . S
Zn96 O103 1.938 1_455 S
Zn96 O104 1.906 . S
Zn96 O114 1.953 . S
Zn97 O94 1.945 . S
Zn97 O99 1.932 . S
Zn97 O106 1.977 . S
Zn97 O107 1.910 . S
O98 Zn95 1.933 . S
O98 C109 1.226 . S
O99 Zn97 1.932 . S
O99 C109 1.307 1_455 S
O100 Zn93 1.919 . S
O100 C111 1.253 . S
O101 Zn95 1.941 1_455 S
O101 C111 1.283 . S
O102 Zn95 1.965 . S
O102 C110 1.303 . S
O103 Zn96 1.938 1_655 S
O103 C110 1.247 . S
O104 Zn96 1.906 . S
O104 C112 1.304 . S
O105 Zn93 1.924 . S
O105 C113 1.311 . S
O106 Zn97 1.977 . S
O106 C112 1.272 . S
O107 Zn97 1.910 . S
O107 C113 1.231 . S
C108 O92 1.225 . S
C108 O114 1.298 . S
C109 O98 1.226 . S
C109 O99 1.307 1_655 S
C110 O102 1.303 . S
C110 O103 1.247 . S
C111 O100 1.253 . S
C111 O101 1.283 . S
C112 O104 1.304 . S
C112 O106 1.272 . S
C113 O105 1.311 . S
C113 O107 1.231 . S
O114 Zn96 1.953 . S
O114 C108 1.298 . S
O115 Zn116 1.953 . S
O115 C131 1.225 . S
Zn116 O115 1.953 . S
Zn116 O117 1.949 . S
Zn116 O123 1.919 . S
Zn116 O128 1.924 . S
O117 Zn116 1.949 . S
O117 Zn118 1.923 1_545 S
O117 Zn119 1.950 . S
O117 Zn120 1.945 . S
Zn118 O117 1.923 1_565 S
Zn118 O121 1.933 . S
Zn118 O124 1.941 1_565 S
Zn118 O125 1.965 . S
Zn119 O117 1.950 . S
Zn119 O126 1.938 1_545 S
Zn119 O127 1.906 . S
Zn119 O137 1.953 . S
Zn120 O117 1.945 . S
Zn120 O122 1.932 . S
Zn120 O129 1.977 . S
Zn120 O130 1.910 . S
O121 Zn118 1.933 . S
O121 C132 1.226 . S
O122 Zn120 1.932 . S
O122 C132 1.307 1_545 S
O123 Zn116 1.919 . S
O123 C134 1.253 . S
O124 Zn118 1.941 1_545 S
O124 C134 1.283 . S
O125 Zn118 1.965 . S
O125 C133 1.303 . S
O126 Zn119 1.938 1_565 S
O126 C133 1.247 . S
O127 Zn119 1.906 . S
O127 C135 1.304 . S
O128 Zn116 1.924 . S
O128 C136 1.311 . S
O129 Zn120 1.977 . S
O129 C135 1.272 . S
O130 Zn120 1.910 . S
O130 C136 1.231 . S
C131 O115 1.225 . S
C131 O137 1.298 . S
C132 O121 1.226 . S
C132 O122 1.307 1_565 S
C133 O125 1.303 . S
C133 O126 1.247 . S
C134 O123 1.253 . S
C134 O124 1.283 . S
C135 O127 1.304 . S
C135 O129 1.272 . S
C136 O128 1.311 . S
C136 O130 1.231 . S
O137 Zn119 1.953 . S
O137 C131 1.298 . S
O138 Zn139 1.953 . S
O138 C154 1.225 . S
Zn139 O138 1.953 . S
Zn139 O140 1.949 . S
Zn139 O146 1.919 . S
Zn139 O151 1.924 . S
O140 Zn139 1.949 . S
O140 Zn141 1.923 . S
O140 Zn142 1.950 . S
O140 Zn143 1.945 . S
Zn141 O140 1.923 . S
Zn141 O144 1.933 . S
Zn141 O147 1.941 . S
Zn141 O148 1.965 . S
Zn142 O140 1.950 . S
Zn142 O149 1.938 . S
Zn142 O150 1.906 . S
Zn142 O160 1.953 . S
Zn143 O140 1.945 . S
Zn143 O145 1.932 . S
Zn143 O152 1.977 . S
Zn143 O153 1.910 . S
O144 Zn141 1.933 . S
O144 C155 1.226 . S
O145 Zn143 1.932 . S
O145 C155 1.307 . S
O146 Zn139 1.919 . S
O146 C157 1.253 . S
O147 Zn141 1.941 . S
O147 C157 1.283 . S
O148 Zn141 1.965 . S
O148 C156 1.303 . S
O149 Zn142 1.938 . S
O149 C156 1.247 . S
O150 Zn142 1.906 . S
O150 C158 1.304 . S
O151 Zn139 1.924 . S
O151 C159 1.311 . S
O152 Zn143 1.977 . S
O152 C158 1.272 . S
O153 Zn143 1.910 . S
O153 C159 1.231 . S
C154 O138 1.225 . S
C154 O160 1.298 . S
C155 O144 1.226 . S
C155 O145 1.307 . S
C156 O148 1.303 . S
C156 O149 1.247 . S
C157 O146 1.253 . S
C157 O147 1.283 . S
C158 O150 1.304 . S
C158 O152 1.272 . S
C159 O151 1.311 . S
C159 O153 1.231 . S
O160 Zn142 1.953 . S
O160 C154 1.298 . S
O161 Zn162 1.953 . S
O161 C177 1.225 . S
Zn162 O161 1.953 . S
Zn162 O163 1.949 . S
Zn162 O169 1.919 . S
Zn162 O174 1.924 . S
O163 Zn162 1.949 . S
O163 Zn164 1.923 1_655 S
O163 Zn165 1.950 . S
O163 Zn166 1.945 . S
Zn164 O163 1.923 1_455 S
Zn164 O167 1.933 . S
Zn164 O170 1.941 1_455 S
Zn164 O171 1.965 . S
Zn165 O163 1.950 . S
Zn165 O172 1.938 1_655 S
Zn165 O173 1.906 . S
Zn165 O183 1.953 . S
Zn166 O163 1.945 . S
Zn166 O168 1.932 1_556 S
Zn166 O175 1.977 . S
Zn166 O176 1.910 . S
O167 Zn164 1.933 . S
O167 C178 1.226 1_556 S
O168 Zn166 1.932 1_554 S
O168 C178 1.307 1_655 S
O169 Zn162 1.919 . S
O169 C180 1.253 . S
O170 Zn164 1.941 1_655 S
O170 C180 1.283 . S
O171 Zn164 1.965 . S
O171 C179 1.303 . S
O172 Zn165 1.938 1_455 S
O172 C179 1.247 . S
O173 Zn165 1.906 . S
O173 C181 1.304 . S
O174 Zn162 1.924 . S
O174 C182 1.311 . S
O175 Zn166 1.977 . S
O175 C181 1.272 . S
O176 Zn166 1.910 . S
O176 C182 1.231 . S
C177 O161 1.225 . S
C177 O183 1.298 . S
C178 O167 1.226 1_554 S
C178 O168 1.307 1_455 S
C179 O171 1.303 . S
C179 O172 1.247 . S
C180 O169 1.253 . S
C180 O170 1.283 . S
C181 O173 1.304 . S
C181 O175 1.272 . S
C182 O174 1.311 . S
C182 O176 1.231 . S
O183 Zn165 1.953 . S
O183 C177 1.298 . S
O184 Zn185 1.953 . S
O184 C200 1.225 . S
Zn185 O184 1.953 . S
Zn185 O186 1.949 . S
Zn185 O192 1.919 . S
Zn185 O197 1.924 . S
O186 Zn185 1.949 . S
O186 Zn187 1.923 1_565 S
O186 Zn188 1.950 . S
O186 Zn189 1.945 . S
Zn187 O186 1.923 1_545 S
Zn187 O190 1.933 . S
Zn187 O193 1.941 1_545 S
Zn187 O194 1.965 . S
Zn188 O186 1.950 . S
Zn188 O195 1.938 1_565 S
Zn188 O196 1.906 . S
Zn188 O206 1.953 . S
Zn189 O186 1.945 . S
Zn189 O191 1.932 . S
Zn189 O198 1.977 . S
Zn189 O199 1.910 . S
O190 Zn187 1.933 . S
O190 C201 1.226 . S
O191 Zn189 1.932 . S
O191 C201 1.307 1_565 S
O192 Zn185 1.919 . S
O192 C203 1.253 . S
O193 Zn187 1.941 1_565 S
O193 C203 1.283 . S
O194 Zn187 1.965 . S
O194 C202 1.303 . S
O195 Zn188 1.938 1_545 S
O195 C202 1.247 . S
O196 Zn188 1.906 . S
O196 C204 1.304 . S
O197 Zn185 1.924 . S
O197 C205 1.311 . S
O198 Zn189 1.977 . S
O198 C204 1.272 . S
O199 Zn189 1.910 . S
O199 C205 1.231 . S
C200 O184 1.225 . S
C200 O206 1.298 . S
C201 O190 1.226 . S
C201 O191 1.307 1_545 S
C202 O194 1.303 . S
C202 O195 1.247 . S
C203 O192 1.253 . S
C203 O193 1.283 . S
C204 O196 1.304 . S
C204 O198 1.272 . S
C205 O197 1.311 . S
C205 O199 1.231 . S
O206 Zn188 1.953 . S
O206 C200 1.298 . S
O207 Zn208 1.953 . S
O207 C223 1.225 . S
Zn208 O207 1.953 . S
Zn208 O209 1.949 . S
Zn208 O215 1.919 . S
Zn208 O220 1.924 . S
O209 Zn208 1.949 . S
O209 Zn210 1.923 . S
O209 Zn211 1.950 . S
O209 Zn212 1.945 . S
Zn210 O209 1.923 . S
Zn210 O213 1.933 . S
Zn210 O216 1.941 . S
Zn210 O217 1.965 . S
Zn211 O209 1.950 . S
Zn211 O218 1.938 . S
Zn211 O219 1.906 . S
Zn211 O229 1.953 . S
Zn212 O209 1.945 . S
Zn212 O214 1.932 . S
Zn212 O221 1.977 . S
Zn212 O222 1.910 . S
O213 Zn210 1.933 . S
O213 C224 1.226 . S
O214 Zn212 1.932 . S
O214 C224 1.307 . S
O215 Zn208 1.919 . S
O215 C226 1.253 . S
O216 Zn210 1.941 . S
O216 C226 1.283 . S
O217 Zn210 1.965 . S
O217 C225 1.303 . S
O218 Zn211 1.938 . S
O218 C225 1.247 . S
O219 Zn211 1.906 . S
O219 C227 1.304 . S
O220 Zn208 1.924 . S
O220 C228 1.311 . S
O221 Zn212 1.977 . S
O221 C227 1.272 . S
O222 Zn212 1.910 . S
O222 C228 1.231 . S
C223 O207 1.225 . S
C223 O229 1.298 . S
C224 O213 1.226 . S
C224 O214 1.307 . S
C225 O217 1.303 . S
C225 O218 1.247 . S
C226 O215 1.253 . S
C226 O216 1.283 . S
C227 O219 1.304 . S
C227 O221 1.272 . S
C228 O220 1.311 . S
C228 O222 1.231 . S
O229 Zn211 1.953 . S
O229 C223 1.298 . S
O230 Zn231 1.953 . S
O230 C246 1.225 . S
Zn231 O230 1.953 . S
Zn231 O232 1.949 . S
Zn231 O238 1.919 . S
Zn231 O243 1.924 . S
O232 Zn231 1.949 . S
O232 Zn233 1.923 1_455 S
O232 Zn234 1.950 . S
O232 Zn235 1.945 . S
Zn233 O232 1.923 1_655 S
Zn233 O236 1.933 . S
Zn233 O239 1.941 1_655 S
Zn233 O240 1.965 . S
Zn234 O232 1.950 . S
Zn234 O241 1.938 1_455 S
Zn234 O242 1.906 . S
Zn234 O252 1.953 . S
Zn235 O232 1.945 . S
Zn235 O237 1.932 . S
Zn235 O244 1.977 . S
Zn235 O245 1.910 . S
O236 Zn233 1.933 . S
O236 C247 1.226 . S
O237 Zn235 1.932 . S
O237 C247 1.307 1_455 S
O238 Zn231 1.919 . S
O238 C249 1.253 . S
O239 Zn233 1.941 1_455 S
O239 C249 1.283 . S
O240 Zn233 1.965 . S
O240 C248 1.303 . S
O241 Zn234 1.938 1_655 S
O241 C248 1.247 . S
O242 Zn234 1.906 . S
O242 C250 1.304 . S
O243 Zn231 1.924 . S
O243 C251 1.311 . S
O244 Zn235 1.977 . S
O244 C250 1.272 . S
O245 Zn235 1.910 . S
O245 C251 1.231 . S
C246 O230 1.225 . S
C246 O252 1.298 . S
C247 O236 1.226 . S
C247 O237 1.307 1_655 S
C248 O240 1.303 . S
C248 O241 1.247 . S
C249 O238 1.253 . S
C249 O239 1.283 . S
C250 O242 1.304 . S
C250 O244 1.272 . S
C251 O243 1.311 . S
C251 O245 1.231 . S
O252 Zn234 1.953 . S
O252 C246 1.298 . S
O253 Zn254 1.953 . S
O253 C269 1.225 . S
Zn254 O253 1.953 . S
Zn254 O255 1.949 . S
Zn254 O261 1.919 . S
Zn254 O266 1.924 . S
O255 Zn254 1.949 . S
O255 Zn256 1.923 1_545 S
O255 Zn257 1.950 . S
O255 Zn258 1.945 . S
Zn256 O255 1.923 1_565 S
Zn256 O259 1.933 . S
Zn256 O262 1.941 1_565 S
Zn256 O263 1.965 . S
Zn257 O255 1.950 . S
Zn257 O264 1.938 1_545 S
Zn257 O265 1.906 . S
Zn257 O275 1.953 . S
Zn258 O255 1.945 . S
Zn258 O260 1.932 . S
Zn258 O267 1.977 . S
Zn258 O268 1.910 . S
O259 Zn256 1.933 . S
O259 C270 1.226 . S
O260 Zn258 1.932 . S
O260 C270 1.307 1_545 S
O261 Zn254 1.919 . S
O261 C272 1.253 . S
O262 Zn256 1.941 1_545 S
O262 C272 1.283 . S
O263 Zn256 1.965 . S
O263 C271 1.303 . S
O264 Zn257 1.938 1_565 S
O264 C271 1.247 . S
O265 Zn257 1.906 . S
O265 C273 1.304 . S
O266 Zn254 1.924 . S
O266 C274 1.311 . S
O267 Zn258 1.977 . S
O267 C273 1.272 . S
O268 Zn258 1.910 . S
O268 C274 1.231 . S
C269 O253 1.225 . S
C269 O275 1.298 . S
C270 O259 1.226 . S
C270 O260 1.307 1_565 S
C271 O263 1.303 . S
C271 O264 1.247 . S
C272 O261 1.253 . S
C272 O262 1.283 . S
C273 O265 1.304 . S
C273 O267 1.272 . S
C274 O266 1.311 . S
C274 O268 1.231 . S
O275 Zn257 1.953 . S
O275 C269 1.298 . S
H276 C282 0.930 . S
H277 C285 0.930 1_554 S
H278 C286 0.930 . S
H279 C287 0.930 . S
H280 C290 0.930 . S
H281 C291 0.930 . S
C282 H276 0.930 . S
C282 C283 1.355 . S
C282 C284 1.415 . S
C283 C282 1.355 . S
C283 C285 1.419 . S
C284 C282 1.415 . S
C284 C289 1.425 . S
C284 C291 1.409 . S
C285 H277 0.930 1_556 S
C285 C283 1.419 . S
C285 C286 1.362 1_556 S
C286 H278 0.930 . S
C286 C285 1.362 1_554 S
C286 C289 1.409 1_554 S
C287 H279 0.930 . S
C287 C288 1.344 1_554 S
C287 C289 1.415 1_554 S
C288 C287 1.344 1_556 S
C288 C290 1.445 . S
C289 C284 1.425 . S
C289 C286 1.409 1_556 S
C289 C287 1.415 1_556 S
C290 H280 0.930 . S
C290 C288 1.445 . S
C290 C291 1.362 . S
C291 H281 0.930 . S
C291 C284 1.409 . S
C291 C290 1.362 . S
H292 C298 0.930 . S
H293 C301 0.930 . S
H294 C302 0.930 . S
H295 C303 0.930 . S
H296 C306 0.930 . S
H297 C307 0.930 . S
C298 H292 0.930 . S
C298 C299 1.355 . S
C298 C300 1.415 . S
C299 C298 1.355 . S
C299 C301 1.419 . S
C300 C298 1.415 . S
C300 C305 1.425 . S
C300 C307 1.409 1_455 S
C301 H293 0.930 . S
C301 C299 1.419 . S
C301 C302 1.362 . S
C302 H294 0.930 . S
C302 C301 1.362 . S
C302 C305 1.409 . S
C303 H295 0.930 . S
C303 C304 1.355 1_455 S
C303 C305 1.415 . S
C304 C303 1.355 1_655 S
C304 C306 1.419 . S
C305 C300 1.425 . S
C305 C302 1.409 . S
C305 C303 1.415 . S
C306 H296 0.930 . S
C306 C304 1.419 . S
C306 C307 1.362 . S
C307 H297 0.930 . S
C307 C300 1.409 1_655 S
C307 C306 1.362 . S
H308 C314 0.930 . S
H309 C317 0.930 . S
H310 C318 0.930 . S
H311 C319 0.930 . S
H312 C322 0.930 . S
H313 C323 0.930 . S
C314 H308 0.930 . S
C314 C315 1.355 . S
C314 C316 1.415 . S
C315 C314 1.355 . S
C315 C317 1.419 . S
C316 C314 1.415 . S
C316 C321 1.425 . S
C316 C323 1.409 . S
C317 H309 0.930 . S
C317 C315 1.419 . S
C317 C318 1.362 . S
C318 H310 0.930 . S
C318 C317 1.362 . S
C318 C321 1.409 . S
C319 H311 0.930 . S
C319 C320 1.355 1_545 S
C319 C321 1.415 . S
C320 C319 1.355 1_565 S
C320 C322 1.419 . S
C321 C316 1.425 . S
C321 C318 1.409 . S
C321 C319 1.415 . S
C322 H312 0.930 . S
C322 C320 1.419 . S
C322 C323 1.362 1_565 S
C323 H313 0.930 . S
C323 C316 1.409 . S
C323 C322 1.362 1_545 S
H324 C330 0.930 . S
H325 C333 0.930 . S
H326 C334 0.930 . S
H327 C335 0.930 . S
H328 C338 0.930 . S
H329 C339 0.930 . S
C330 H324 0.930 . S
C330 C331 1.355 . S
C330 C332 1.415 . S
C331 C330 1.355 . S
C331 C333 1.419 . S
C332 C330 1.415 . S
C332 C337 1.425 . S
C332 C339 1.409 . S
C333 H325 0.930 . S
C333 C331 1.419 . S
C333 C334 1.362 . S
C334 H326 0.930 . S
C334 C333 1.362 . S
C334 C337 1.409 . S
C335 H327 0.930 . S
C335 C336 1.355 . S
C335 C337 1.415 . S
C336 C335 1.355 . S
C336 C338 1.419 . S
C337 C332 1.425 . S
C337 C334 1.409 . S
C337 C335 1.415 . S
C338 H328 0.930 . S
C338 C336 1.419 . S
C338 C339 1.362 . S
C339 H329 0.930 . S
C339 C332 1.409 . S
C339 C338 1.362 . S
H340 C346 0.930 . S
H341 C349 0.930 . S
H342 C350 0.928 1_455 S
H343 C351 0.930 . S
H344 C354 0.930 . S
H345 C355 0.930 . S
C346 H340 0.930 . S
C346 C347 1.355 . S
C346 C348 1.415 . S
C347 C346 1.355 . S
C347 C349 1.419 . S
C348 C346 1.415 . S
C348 C353 1.425 . S
C348 C355 1.409 . S
C349 H341 0.930 . S
C349 C347 1.419 . S
C349 C350 1.362 . S
C350 H342 0.928 1_655 S
C350 C349 1.362 . S
C350 C353 1.409 . S
C351 H343 0.930 . S
C351 C352 1.355 . S
C351 C353 1.415 1_455 S
C352 C351 1.355 . S
C352 C354 1.419 1_455 S
C353 C348 1.425 . S
C353 C350 1.409 . S
C353 C351 1.415 1_655 S
C354 H344 0.930 . S
C354 C352 1.419 1_655 S
C354 C355 1.362 . S
C355 H345 0.930 . S
C355 C348 1.409 . S
C355 C354 1.362 . S
H356 C362 0.930 . S
H357 C365 0.930 . S
H358 C366 0.930 . S
H359 C367 0.930 . S
H360 C370 0.930 . S
H361 C371 0.930 . S
C362 H356 0.930 . S
C362 C363 1.355 . S
C362 C364 1.415 . S
C363 C362 1.355 . S
C363 C365 1.419 . S
C364 C362 1.415 . S
C364 C369 1.425 . S
C364 C371 1.409 . S
C365 H357 0.930 . S
C365 C363 1.419 . S
C365 C366 1.362 . S
C366 H358 0.930 . S
C366 C365 1.362 . S
C366 C369 1.409 . S
C367 H359 0.930 . S
C367 C368 1.355 . S
C367 C369 1.415 1_545 S
C368 C367 1.355 . S
C368 C370 1.419 1_545 S
C369 C364 1.425 . S
C369 C366 1.409 . S
C369 C367 1.415 1_565 S
C370 H360 0.930 . S
C370 C368 1.419 1_565 S
C370 C371 1.362 . S
C371 H361 0.930 . S
C371 C364 1.409 . S
C371 C370 1.362 . S
H372 C378 0.930 . S
H373 C381 0.930 . S
H374 C382 0.930 . S
H375 C383 0.930 . S
H376 C386 0.930 . S
H377 C387 0.930 . S
C378 H372 0.930 . S
C378 C379 1.355 . S
C378 C380 1.415 . S
C379 C378 1.355 . S
C379 C381 1.419 . S
C380 C378 1.415 . S
C380 C385 1.425 . S
C380 C387 1.409 . S
C381 H373 0.930 . S
C381 C379 1.419 . S
C381 C382 1.362 . S
C382 H374 0.930 . S
C382 C381 1.362 . S
C382 C385 1.409 . S
C383 H375 0.930 . S
C383 C384 1.355 . S
C383 C385 1.415 . S
C384 C383 1.355 . S
C384 C386 1.419 . S
C385 C380 1.425 . S
C385 C382 1.409 . S
C385 C383 1.415 . S
C386 H376 0.930 . S
C386 C384 1.419 . S
C386 C387 1.362 . S
C387 H377 0.930 . S
C387 C380 1.409 . S
C387 C386 1.362 . S
H388 C394 0.930 . S
H389 C397 0.930 . S
H390 C398 0.930 . S
H391 C399 0.930 . S
H392 C402 0.930 . S
H393 C403 0.930 . S
C394 H388 0.930 . S
C394 C395 1.355 1_455 S
C394 C396 1.415 . S
C395 C394 1.355 1_655 S
C395 C397 1.419 . S
C396 C394 1.415 . S
C396 C401 1.425 . S
C396 C403 1.409 . S
C397 H389 0.930 . S
C397 C395 1.419 . S
C397 C398 1.362 . S
C398 H390 0.930 . S
C398 C397 1.362 . S
C398 C401 1.409 1_655 S
C399 H391 0.930 . S
C399 C400 1.355 . S
C399 C401 1.415 . S
C400 C399 1.355 . S
C400 C402 1.419 . S
C401 C396 1.425 . S
C401 C398 1.409 1_455 S
C401 C399 1.415 . S
C402 H392 0.930 . S
C402 C400 1.419 . S
C402 C403 1.362 . S
C403 H393 0.930 . S
C403 C396 1.409 . S
C403 C402 1.362 . S
H404 C410 0.930 1_565 S
H405 C413 0.930 . S
H406 C414 0.930 . S
H407 C415 0.930 . S
H408 C418 0.930 . S
H409 C419 0.930 . S
C410 H404 0.930 1_545 S
C410 C411 1.355 1_545 S
C410 C412 1.415 . S
C411 C410 1.355 1_565 S
C411 C413 1.419 . S
C412 C410 1.415 . S
C412 C417 1.425 . S
C412 C419 1.409 . S
C413 H405 0.930 . S
C413 C411 1.419 . S
C413 C414 1.362 1_565 S
C414 H406 0.930 . S
C414 C413 1.362 1_545 S
C414 C417 1.409 . S
C415 H407 0.930 . S
C415 C416 1.355 . S
C415 C417 1.415 . S
C416 C415 1.355 . S
C416 C418 1.419 . S
C417 C412 1.425 . S
C417 C414 1.409 . S
C417 C415 1.415 . S
C418 H408 0.930 . S
C418 C416 1.419 . S
C418 C419 1.362 . S
C419 H409 0.930 . S
C419 C412 1.409 . S
C419 C418 1.362 . S
H420 C426 0.930 . S
H421 C429 0.930 . S
H422 C430 0.930 . S
H423 C431 0.930 . S
H424 C434 0.930 . S
H425 C435 0.930 . S
C426 H420 0.930 . S
C426 C427 1.355 . S
C426 C428 1.415 . S
C427 C426 1.355 . S
C427 C429 1.419 . S
C428 C426 1.415 . S
C428 C433 1.425 . S
C428 C435 1.409 . S
C429 H421 0.930 . S
C429 C427 1.419 . S
C429 C430 1.362 . S
C430 H422 0.930 . S
C430 C429 1.362 . S
C430 C433 1.409 . S
C431 H423 0.930 . S
C431 C432 1.355 . S
C431 C433 1.415 . S
C432 C431 1.355 . S
C432 C434 1.419 . S
C433 C428 1.425 . S
C433 C430 1.409 . S
C433 C431 1.415 . S
C434 H424 0.930 . S
C434 C432 1.419 . S
C434 C435 1.362 . S
C435 H425 0.930 . S
C435 C428 1.409 . S
C435 C434 1.362 . S
H436 C442 0.930 . S
H437 C445 0.930 . S
H438 C446 0.930 . S
H439 C447 0.930 . S
H440 C450 0.930 . S
H441 C451 0.930 . S
C442 H436 0.930 . S
C442 C443 1.355 1_655 S
C442 C444 1.415 . S
C443 C442 1.355 1_455 S
C443 C445 1.419 . S
C444 C442 1.415 . S
C444 C449 1.425 . S
C444 C451 1.409 . S
C445 H437 0.930 . S
C445 C443 1.419 . S
C445 C446 1.362 . S
C446 H438 0.930 . S
C446 C445 1.362 . S
C446 C449 1.409 1_455 S
C447 H439 0.930 . S
C447 C448 1.355 . S
C447 C449 1.415 . S
C448 C447 1.355 . S
C448 C450 1.419 . S
C449 C444 1.425 . S
C449 C446 1.409 1_655 S
C449 C447 1.415 . S
C450 H440 0.930 . S
C450 C448 1.419 . S
C450 C451 1.362 . S
C451 H441 0.930 . S
C451 C444 1.409 . S
C451 C450 1.362 . S
H452 C458 0.930 . S
H453 C461 0.930 . S
H454 C462 0.930 . S
H455 C463 0.930 . S
H456 C466 0.930 . S
H457 C467 0.930 1_545 S
C458 H452 0.930 . S
C458 C459 1.355 . S
C458 C460 1.415 1_545 S
C459 C458 1.355 . S
C459 C461 1.419 1_545 S
C460 C458 1.415 1_565 S
C460 C465 1.425 . S
C460 C467 1.409 . S
C461 H453 0.930 . S
C461 C459 1.419 1_565 S
C461 C462 1.362 . S
C462 H454 0.930 . S
C462 C461 1.362 . S
C462 C465 1.409 . S
C463 H455 0.930 . S
C463 C464 1.355 . S
C463 C465 1.415 . S
C464 C463 1.355 . S
C464 C466 1.419 . S
C465 C460 1.425 . S
C465 C462 1.409 . S
C465 C463 1.415 . S
C466 H456 0.930 . S
C466 C464 1.419 . S
C466 C467 1.362 . S
C467 H457 0.930 1_565 S
C467 C460 1.409 . S
C467 C466 1.362 . S
H468 C474 0.930 . S
H469 C477 0.930 . S
H470 C478 0.930 . S
H471 C479 0.930 . S
H472 C482 0.930 . S
H473 C483 0.930 . S
C474 H468 0.930 . S
C474 C475 1.355 . S
C474 C476 1.415 . S
C475 C474 1.355 . S
C475 C477 1.419 . S
C476 C474 1.415 . S
C476 C481 1.425 . S
C476 C483 1.409 . S
C477 H469 0.930 . S
C477 C475 1.419 . S
C477 C478 1.362 . S
C478 H470 0.930 . S
C478 C477 1.362 . S
C478 C481 1.409 . S
C479 H471 0.930 . S
C479 C480 1.355 . S
C479 C481 1.415 . S
C480 C479 1.355 . S
C480 C482 1.419 . S
C481 C476 1.425 . S
C481 C478 1.409 . S
C481 C479 1.415 . S
C482 H472 0.930 . S
C482 C480 1.419 . S
C482 C483 1.362 . S
C483 H473 0.930 . S
C483 C476 1.409 . S
C483 C482 1.362 . S
H484 C490 0.930 . S
H485 C493 0.930 . S
H486 C494 0.930 . S
H487 C495 0.930 . S
H488 C498 0.930 . S
H489 C499 0.930 . S
C490 H484 0.930 . S
C490 C491 1.355 . S
C490 C492 1.415 . S
C491 C490 1.355 . S
C491 C493 1.419 . S
C492 C490 1.415 . S
C492 C497 1.425 . S
C492 C499 1.409 . S
C493 H485 0.930 . S
C493 C491 1.419 . S
C493 C494 1.362 . S
C494 H486 0.930 . S
C494 C493 1.362 . S
C494 C497 1.409 . S
C495 H487 0.930 . S
C495 C496 1.355 . S
C495 C497 1.415 . S
C496 C495 1.355 . S
C496 C498 1.419 . S
C497 C492 1.425 . S
C497 C494 1.409 . S
C497 C495 1.415 . S
C498 H488 0.930 . S
C498 C496 1.419 . S
C498 C499 1.362 . S
C499 H489 0.930 . S
C499 C492 1.409 . S
C499 C498 1.362 . S
H500 C506 0.930 . S
H501 C509 0.930 . S
H502 C510 0.930 . S
H503 C511 0.930 . S
H504 C514 0.930 . S
H505 C515 0.930 . S
C506 H500 0.930 . S
C506 C507 1.355 . S
C506 C508 1.415 . S
C507 C506 1.355 . S
C507 C509 1.419 . S
C508 C506 1.415 . S
C508 C513 1.425 . S
C508 C515 1.409 . S
C509 H501 0.930 . S
C509 C507 1.419 . S
C509 C510 1.362 . S
C510 H502 0.930 . S
C510 C509 1.362 . S
C510 C513 1.409 . S
C511 H503 0.930 . S
C511 C512 1.355 . S
C511 C513 1.415 . S
C512 C511 1.355 . S
C512 C514 1.419 . S
C513 C508 1.425 . S
C513 C510 1.409 . S
C513 C511 1.415 . S
C514 H504 0.930 . S
C514 C512 1.419 . S
C514 C515 1.362 . S
C515 H505 0.930 . S
C515 C508 1.409 . S
C515 C514 1.362 . S
H516 C522 0.930 . S
H517 C525 0.930 . S
H518 C526 0.930 . S
H519 C527 0.930 . S
H520 C530 0.930 . S
H521 C531 0.930 . S
C522 H516 0.930 . S
C522 C523 1.355 . S
C522 C524 1.415 . S
C523 C522 1.355 . S
C523 C525 1.419 . S
C524 C522 1.415 . S
C524 C529 1.425 . S
C524 C531 1.409 . S
C525 H517 0.930 . S
C525 C523 1.419 . S
C525 C526 1.362 . S
C526 H518 0.930 . S
C526 C525 1.362 . S
C526 C529 1.409 . S
C527 H519 0.930 . S
C527 C528 1.355 . S
C527 C529 1.415 . S
C528 C527 1.355 . S
C528 C530 1.419 . S
C529 C524 1.425 . S
C529 C526 1.409 . S
C529 C527 1.415 . S
C530 H520 0.930 . S
C530 C528 1.419 . S
C530 C531 1.362 . S
C531 H521 0.930 . S
C531 C524 1.409 . S
C531 C530 1.362 . S
H532 C538 0.930 . S
H533 C541 0.930 . S
H534 C542 0.930 . S
H535 C543 0.930 . S
H536 C546 0.930 . S
H537 C547 0.930 1_455 S
C538 H532 0.930 . S
C538 C539 1.355 . S
C538 C540 1.415 . S
C539 C538 1.355 . S
C539 C541 1.419 . S
C540 C538 1.415 . S
C540 C545 1.425 . S
C540 C547 1.409 . S
C541 H533 0.930 . S
C541 C539 1.419 . S
C541 C542 1.362 . S
C542 H534 0.930 . S
C542 C541 1.362 . S
C542 C545 1.409 . S
C543 H535 0.930 . S
C543 C544 1.355 . S
C543 C545 1.415 . S
C544 C543 1.355 . S
C544 C546 1.419 1_655 S
C545 C540 1.425 . S
C545 C542 1.409 . S
C545 C543 1.415 . S
C546 H536 0.930 . S
C546 C544 1.419 1_455 S
C546 C547 1.362 1_455 S
C547 H537 0.930 1_655 S
C547 C540 1.409 . S
C547 C546 1.362 1_655 S
H548 C554 0.930 . S
H549 C557 0.930 . S
H550 C558 0.930 1_545 S
H551 C559 0.930 . S
H552 C562 0.930 . S
H553 C563 0.930 . S
C554 H548 0.930 . S
C554 C555 1.355 . S
C554 C556 1.415 . S
C555 C554 1.355 . S
C555 C557 1.419 1_565 S
C556 C554 1.415 . S
C556 C561 1.425 . S
C556 C563 1.409 . S
C557 H549 0.930 . S
C557 C555 1.419 1_545 S
C557 C558 1.362 1_545 S
C558 H550 0.930 1_565 S
C558 C557 1.362 1_565 S
C558 C561 1.409 . S
C559 H551 0.930 . S
C559 C560 1.355 . S
C559 C561 1.415 . S
C560 C559 1.355 . S
C560 C562 1.419 . S
C561 C556 1.425 . S
C561 C558 1.409 . S
C561 C559 1.415 . S
C562 H552 0.930 . S
C562 C560 1.419 . S
C562 C563 1.362 . S
C563 H553 0.930 . S
C563 C556 1.409 . S
C563 C562 1.362 . S
H564 C570 0.930 . S
H565 C573 0.930 . S
H566 C574 0.930 . S
H567 C575 0.930 . S
H568 C578 0.930 . S
H569 C579 0.930 . S
C570 H564 0.930 . S
C570 C571 1.355 . S
C570 C572 1.415 . S
C571 C570 1.355 . S
C571 C573 1.419 . S
C572 C570 1.415 . S
C572 C577 1.425 . S
C572 C579 1.409 . S
C573 H565 0.930 . S
C573 C571 1.419 . S
C573 C574 1.362 . S
C574 H566 0.930 . S
C574 C573 1.362 . S
C574 C577 1.409 . S
C575 H567 0.930 . S
C575 C576 1.355 . S
C575 C577 1.415 . S
C576 C575 1.355 . S
C576 C578 1.419 . S
C577 C572 1.425 . S
C577 C574 1.409 . S
C577 C575 1.415 . S
C578 H568 0.930 . S
C578 C576 1.419 . S
C578 C579 1.362 . S
C579 H569 0.930 . S
C579 C572 1.409 . S
C579 C578 1.362 . S
H580 C586 0.930 . S
H581 C589 0.930 . S
H582 C590 0.930 . S
H583 C591 0.930 . S
H584 C594 0.930 . S
H585 C595 0.930 . S
C586 H580 0.930 . S
C586 C587 1.355 . S
C586 C588 1.415 . S
C587 C586 1.355 . S
C587 C589 1.419 . S
C588 C586 1.415 . S
C588 C593 1.425 . S
C588 C595 1.409 . S
C589 H581 0.930 . S
C589 C587 1.419 . S
C589 C590 1.362 . S
C590 H582 0.930 . S
C590 C589 1.362 . S
C590 C593 1.409 . S
C591 H583 0.930 . S
C591 C592 1.355 . S
C591 C593 1.415 . S
C592 C591 1.355 . S
C592 C594 1.419 . S
C593 C588 1.425 . S
C593 C590 1.409 . S
C593 C591 1.415 . S
C594 H584 0.930 . S
C594 C592 1.419 . S
C594 C595 1.362 . S
C595 H585 0.930 . S
C595 C588 1.409 . S
C595 C594 1.362 . S
H596 C602 0.930 . S
H597 C605 0.930 . S
H598 C606 0.930 . S
H599 C607 0.930 . S
H600 C610 0.930 . S
H601 C611 0.930 . S
C602 H596 0.930 . S
C602 C603 1.355 . S
C602 C604 1.415 . S
C603 C602 1.355 . S
C603 C605 1.419 . S
C604 C602 1.415 . S
C604 C609 1.425 . S
C604 C611 1.409 . S
C605 H597 0.930 . S
C605 C603 1.419 . S
C605 C606 1.362 . S
C606 H598 0.930 . S
C606 C605 1.362 . S
C606 C609 1.409 . S
C607 H599 0.930 . S
C607 C608 1.355 . S
C607 C609 1.415 . S
C608 C607 1.355 . S
C608 C610 1.419 . S
C609 C604 1.425 . S
C609 C606 1.409 . S
C609 C607 1.415 . S
C610 H600 0.930 . S
C610 C608 1.419 . S
C610 C611 1.362 . S
C611 H601 0.930 . S
C611 C604 1.409 . S
C611 C610 1.362 . S
H612 C618 0.930 . S
H613 C621 0.930 . S
H614 C622 0.930 . S
H615 C623 0.930 . S
H616 C626 0.930 . S
H617 C627 0.930 . S
C618 H612 0.930 . S
C618 C619 1.355 . S
C618 C620 1.415 . S
C619 C618 1.355 . S
C619 C621 1.419 . S
C620 C618 1.415 . S
C620 C625 1.425 . S
C620 C627 1.409 . S
C621 H613 0.930 . S
C621 C619 1.419 . S
C621 C622 1.362 . S
C622 H614 0.930 . S
C622 C621 1.362 . S
C622 C625 1.409 . S
C623 H615 0.930 . S
C623 C624 1.355 . S
C623 C625 1.415 . S
C624 C623 1.355 . S
C624 C626 1.419 . S
C625 C620 1.425 . S
C625 C622 1.409 . S
C625 C623 1.415 . S
C626 H616 0.930 . S
C626 C624 1.419 . S
C626 C627 1.362 . S
C627 H617 0.930 . S
C627 C620 1.409 . S
C627 C626 1.362 . S
H628 C634 0.930 . S
H629 C637 0.930 . S
H630 C638 0.930 1_455 S
H631 C639 0.930 . S
H632 C642 0.930 . S
H633 C643 0.930 . S
C634 H628 0.930 . S
C634 C635 1.355 . S
C634 C636 1.415 . S
C635 C634 1.355 . S
C635 C637 1.419 1_655 S
C636 C634 1.415 . S
C636 C641 1.425 . S
C636 C643 1.409 . S
C637 H629 0.930 . S
C637 C635 1.419 1_455 S
C637 C638 1.362 1_455 S
C638 H630 0.930 1_655 S
C638 C637 1.362 1_655 S
C638 C641 1.409 . S
C639 H631 0.930 . S
C639 C640 1.355 . S
C639 C641 1.415 . S
C640 C639 1.355 . S
C640 C642 1.419 . S
C641 C636 1.425 . S
C641 C638 1.409 . S
C641 C639 1.415 . S
C642 H632 0.930 . S
C642 C640 1.419 . S
C642 C643 1.362 . S
C643 H633 0.930 . S
C643 C636 1.409 . S
C643 C642 1.362 . S
H644 C650 0.930 . S
H645 C653 0.930 . S
H646 C654 0.930 . S
H647 C655 0.930 . S
H648 C658 0.930 . S
H649 C659 0.930 1_545 S
C650 H644 0.930 . S
C650 C651 1.355 . S
C650 C652 1.415 . S
C651 C650 1.355 . S
C651 C653 1.419 . S
C652 C650 1.415 . S
C652 C657 1.425 . S
C652 C659 1.409 . S
C653 H645 0.930 . S
C653 C651 1.419 . S
C653 C654 1.362 . S
C654 H646 0.930 . S
C654 C653 1.362 . S
C654 C657 1.409 . S
C655 H647 0.930 . S
C655 C656 1.355 . S
C655 C657 1.415 . S
C656 C655 1.355 . S
C656 C658 1.419 1_565 S
C657 C652 1.425 . S
C657 C654 1.409 . S
C657 C655 1.415 . S
C658 H648 0.930 . S
C658 C656 1.419 1_545 S
C658 C659 1.362 1_545 S
C659 H649 0.930 1_565 S
C659 C652 1.409 . S
C659 C658 1.362 1_565 S
H660 C666 0.930 . S
H661 C669 0.930 . S
H662 C670 0.930 . S
H663 C671 0.930 . S
H664 C674 0.930 . S
H665 C675 0.930 . S
C666 H660 0.930 . S
C666 C667 1.355 . S
C666 C668 1.415 . S
C667 C666 1.355 . S
C667 C669 1.419 . S
C668 C666 1.415 . S
C668 C673 1.425 . S
C668 C675 1.409 . S
C669 H661 0.930 . S
C669 C667 1.419 . S
C669 C670 1.362 . S
C670 H662 0.930 . S
C670 C669 1.362 . S
C670 C673 1.409 . S
C671 H663 0.930 . S
C671 C672 1.355 . S
C671 C673 1.415 . S
C672 C671 1.355 . S
C672 C674 1.419 . S
C673 C668 1.425 . S
C673 C670 1.409 . S
C673 C671 1.415 . S
C674 H664 0.930 . S
C674 C672 1.419 . S
C674 C675 1.362 . S
C675 H665 0.930 . S
C675 C668 1.409 . S
C675 C674 1.362 . S
H676 C682 0.930 . S
H677 C685 0.927 1_655 S
H678 C686 0.930 . S
H679 C687 0.930 . S
H680 C690 0.930 . S
H681 C691 0.930 . S
C682 H676 0.930 . S
C682 C683 1.355 . S
C682 C684 1.415 . S
C683 C682 1.355 . S
C683 C685 1.419 . S
C684 C682 1.415 . S
C684 C689 1.425 . S
C684 C691 1.409 . S
C685 H677 0.927 1_455 S
C685 C683 1.419 . S
C685 C686 1.362 . S
C686 H678 0.930 . S
C686 C685 1.362 . S
C686 C689 1.409 . S
C687 H679 0.930 . S
C687 C688 1.355 . S
C687 C689 1.415 . S
C688 C687 1.355 . S
C688 C690 1.419 . S
C689 C684 1.425 . S
C689 C686 1.409 . S
C689 C687 1.415 . S
C690 H680 0.930 . S
C690 C688 1.419 . S
C690 C691 1.362 . S
C691 H681 0.930 . S
C691 C684 1.409 . S
C691 C690 1.362 . S
H692 C698 0.930 . S
H693 C701 0.930 . S
H694 C702 0.930 . S
H695 C703 0.930 . S
H696 C706 0.930 . S
H697 C707 0.930 . S
C698 H692 0.930 . S
C698 C699 1.355 . S
C698 C700 1.415 . S
C699 C698 1.355 . S
C699 C701 1.419 . S
C700 C698 1.415 . S
C700 C705 1.425 . S
C700 C707 1.409 . S
C701 H693 0.930 . S
C701 C699 1.419 . S
C701 C702 1.362 . S
C702 H694 0.930 . S
C702 C701 1.362 . S
C702 C705 1.409 . S
C703 H695 0.930 . S
C703 C704 1.355 . S
C703 C705 1.415 . S
C704 C703 1.355 . S
C704 C706 1.419 . S
C705 C700 1.425 . S
C705 C702 1.409 . S
C705 C703 1.415 . S
C706 H696 0.930 . S
C706 C704 1.419 . S
C706 C707 1.362 . S
C707 H697 0.930 . S
C707 C700 1.409 . S
C707 C706 1.362 . S
H708 C714 0.930 . S
H709 C717 0.930 . S
H710 C718 0.930 . S
H711 C719 0.930 . S
H712 C722 0.930 . S
H713 C723 0.930 . S
C714 H708 0.930 . S
C714 C715 1.355 . S
C714 C716 1.415 . S
C715 C714 1.355 . S
C715 C717 1.419 . S
C716 C714 1.415 . S
C716 C721 1.425 . S
C716 C723 1.409 . S
C717 H709 0.930 . S
C717 C715 1.419 . S
C717 C718 1.362 . S
C718 H710 0.930 . S
C718 C717 1.362 . S
C718 C721 1.409 . S
C719 H711 0.930 . S
C719 C720 1.355 . S
C719 C721 1.415 . S
C720 C719 1.355 . S
C720 C722 1.419 . S
C721 C716 1.425 . S
C721 C718 1.409 . S
C721 C719 1.415 . S
C722 H712 0.930 . S
C722 C720 1.419 . S
C722 C723 1.362 . S
C723 H713 0.930 . S
C723 C716 1.409 . S
C723 C722 1.362 . S
H724 C730 0.930 . S
H725 C733 0.930 . S
H726 C734 0.930 . S
H727 C735 0.930 . S
H728 C738 0.930 . S
H729 C739 0.930 . S
C730 H724 0.930 . S
C730 C731 1.355 . S
C730 C732 1.415 . S
C731 C730 1.355 . S
C731 C733 1.419 . S
C732 C730 1.415 . S
C732 C737 1.425 . S
C732 C739 1.409 . S
C733 H725 0.930 . S
C733 C731 1.419 . S
C733 C734 1.362 . S
C734 H726 0.930 . S
C734 C733 1.362 . S
C734 C737 1.409 . S
C735 H727 0.930 . S
C735 C736 1.355 . S
C735 C737 1.415 . S
C736 C735 1.355 . S
C736 C738 1.419 . S
C737 C732 1.425 . S
C737 C734 1.409 . S
C737 C735 1.415 . S
C738 H728 0.930 . S
C738 C736 1.419 . S
C738 C739 1.362 . S
C739 H729 0.930 . S
C739 C732 1.409 . S
C739 C738 1.362 . S
H740 C746 0.930 . S
H741 C749 0.930 . S
H742 C750 0.930 . S
H743 C751 0.930 . S
H744 C754 0.930 . S
H745 C755 0.930 . S
C746 H740 0.930 . S
C746 C747 1.355 . S
C746 C748 1.415 . S
C747 C746 1.355 . S
C747 C749 1.419 . S
C748 C746 1.415 . S
C748 C753 1.425 . S
C748 C755 1.409 . S
C749 H741 0.930 . S
C749 C747 1.419 . S
C749 C750 1.362 . S
C750 H742 0.930 . S
C750 C749 1.362 . S
C750 C753 1.409 . S
C751 H743 0.930 . S
C751 C752 1.355 . S
C751 C753 1.415 . S
C752 C751 1.355 . S
C752 C754 1.419 . S
C753 C748 1.425 . S
C753 C750 1.409 . S
C753 C751 1.415 . S
C754 H744 0.930 . S
C754 C752 1.419 . S
C754 C755 1.362 . S
C755 H745 0.930 . S
C755 C748 1.409 . S
C755 C754 1.362 . S
H756 C762 0.930 1_655 S
H757 C765 0.925 1_554 S
H758 C766 0.930 1_554 S
H759 C767 0.930 1_455 S
H760 C770 0.930 . S
H761 C771 0.930 . S
C762 H756 0.930 1_455 S
C762 C763 1.355 . S
C762 C764 1.415 1_455 S
C763 C762 1.355 . S
C763 C765 1.423 . S
C764 C762 1.415 1_655 S
C764 C769 1.425 1_645 S
C764 C771 1.409 1_545 S
C765 H757 0.925 1_556 S
C765 C763 1.423 . S
C765 C766 1.363 . S
C766 H758 0.930 1_556 S
C766 C765 1.363 . S
C766 C769 1.409 1_545 S
C767 H759 0.930 1_655 S
C767 C768 1.355 . S
C767 C769 1.415 1_655 S
C768 C767 1.355 . S
C768 C770 1.419 . S
C769 C764 1.425 1_465 S
C769 C766 1.409 1_565 S
C769 C767 1.415 1_455 S
C770 H760 0.930 . S
C770 C768 1.419 . S
C770 C771 1.362 . S
C771 H761 0.930 . S
C771 C764 1.409 1_565 S
C771 C770 1.362 . S
H772 C778 0.930 . S
H773 C781 0.930 . S
H774 C782 0.930 . S
H775 C783 0.930 . S
H776 C786 0.930 . S
H777 C787 0.930 . S
C778 H772 0.930 . S
C778 C779 1.355 . S
C778 C780 1.415 . S
C779 C778 1.355 . S
C779 C781 1.419 . S
C780 C778 1.415 . S
C780 C785 1.425 1_565 S
C780 C787 1.409 1_455 S
C781 H773 0.930 . S
C781 C779 1.419 . S
C781 C782 1.362 1_565 S
C782 H774 0.930 . S
C782 C781 1.362 1_545 S
C782 C785 1.409 . S
C783 H775 0.930 . S
C783 C784 1.355 . S
C783 C785 1.415 1_655 S
C784 C783 1.355 . S
C784 C786 1.419 . S
C785 C780 1.425 1_545 S
C785 C782 1.409 . S
C785 C783 1.415 1_455 S
C786 H776 0.930 . S
C786 C784 1.419 . S
C786 C787 1.362 1_545 S
C787 H777 0.930 . S
C787 C780 1.409 1_655 S
C787 C786 1.362 1_565 S
H788 C794 0.930 . S
H789 C797 0.930 . S
H790 C798 0.930 . S
H791 C799 0.930 . S
H792 C802 0.930 . S
H793 C803 0.930 . S
C794 H788 0.930 . S
C794 C795 1.355 . S
C794 C796 1.415 . S
C795 C794 1.355 . S
C795 C797 1.419 1_545 S
C796 C794 1.415 . S
C796 C801 1.425 1_445 S
C796 C803 1.409 1_455 S
C797 H789 0.930 . S
C797 C795 1.419 1_565 S
C797 C798 1.362 . S
C798 H790 0.930 . S
C798 C797 1.362 . S
C798 C801 1.409 1_455 S
C799 H791 0.930 . S
C799 C800 1.355 . S
C799 C801 1.415 . S
C800 C799 1.355 . S
C800 C802 1.419 1_565 S
C801 C796 1.425 1_665 S
C801 C798 1.409 1_655 S
C801 C799 1.415 . S
C802 H792 0.930 . S
C802 C800 1.419 1_545 S
C802 C803 1.362 . S
C803 H793 0.930 . S
C803 C796 1.409 1_655 S
C803 C802 1.362 . S
H804 C810 0.930 . S
H805 C813 0.930 1_655 S
H806 C814 0.930 . S
H807 C815 0.930 . S
H808 C818 0.930 . S
H809 C819 0.930 . S
C810 H804 0.930 . S
C810 C811 1.355 . S
C810 C812 1.415 . S
C811 C810 1.355 . S
C811 C813 1.419 . S
C812 C810 1.415 . S
C812 C817 1.425 1_445 S
C812 C819 1.409 1_545 S
C813 H805 0.930 1_455 S
C813 C811 1.419 . S
C813 C814 1.362 1_455 S
C814 H806 0.930 . S
C814 C813 1.362 1_655 S
C814 C817 1.409 1_545 S
C815 H807 0.930 . S
C815 C816 1.355 . S
C815 C817 1.415 . S
C816 C815 1.355 . S
C816 C818 1.419 . S
C817 C812 1.425 1_665 S
C817 C814 1.409 1_565 S
C817 C815 1.415 . S
C818 H808 0.930 . S
C818 C816 1.419 . S
C818 C819 1.362 1_655 S
C819 H809 0.930 . S
C819 C812 1.409 1_565 S
C819 C818 1.362 1_455 S
H820 C826 0.930 1_655 S
H821 C829 0.930 . S
H822 C830 0.930 . S
H823 C831 0.930 1_455 S
H824 C834 0.930 . S
H825 C835 0.930 . S
C826 H820 0.930 1_455 S
C826 C827 1.355 . S
C826 C828 1.415 1_455 S
C827 C826 1.355 . S
C827 C829 1.419 1_565 S
C828 C826 1.415 1_655 S
C828 C833 1.425 1_665 S
C828 C835 1.409 . S
C829 H821 0.930 . S
C829 C827 1.419 1_545 S
C829 C830 1.362 . S
C830 H822 0.930 . S
C830 C829 1.362 . S
C830 C833 1.409 . S
C831 H823 0.930 1_655 S
C831 C832 1.355 . S
C831 C833 1.415 1_655 S
C832 C831 1.355 . S
C832 C834 1.419 1_545 S
C833 C828 1.425 1_445 S
C833 C830 1.409 . S
C833 C831 1.415 1_455 S
C834 H824 0.930 . S
C834 C832 1.419 1_565 S
C834 C835 1.362 . S
C835 H825 0.930 . S
C835 C828 1.409 . S
C835 C834 1.362 . S
H836 C842 0.930 . S
H837 C845 0.930 . S
H838 C846 0.930 . S
H839 C847 0.930 . S
H840 C850 0.930 1_545 S
H841 C851 0.930 . S
C842 H836 0.930 . S
C842 C843 1.355 . S
C842 C844 1.415 . S
C843 C842 1.355 . S
C843 C845 1.419 1_545 S
C844 C842 1.415 . S
C844 C849 1.425 1_445 S
C844 C851 1.409 1_455 S
C845 H837 0.930 . S
C845 C843 1.419 1_565 S
C845 C846 1.362 . S
C846 H838 0.930 . S
C846 C845 1.362 . S
C846 C849 1.409 1_455 S
C847 H839 0.930 . S
C847 C848 1.355 . S
C847 C849 1.415 . S
C848 C847 1.355 . S
C848 C850 1.419 . S
C849 C844 1.425 1_665 S
C849 C846 1.409 1_655 S
C849 C847 1.415 . S
C850 H840 0.930 1_565 S
C850 C848 1.419 . S
C850 C851 1.362 1_565 S
C851 H841 0.930 . S
C851 C844 1.409 1_655 S
C851 C850 1.362 1_545 S
C283 C182 1.789 . S
C288 C20 1.787 1_556 S
C299 C205 1.778 . S
C304 C43 1.788 . S
C315 C228 1.773 . S
C320 C66 1.785 . S
C331 C251 1.773 . S
C336 C89 1.785 . S
C347 C274 1.788 . S
C352 C112 1.794 . S
C363 C159 1.766 . S
C368 C135 1.778 . S
C379 C158 1.780 . S
C384 C136 1.768 . S
C395 C181 1.804 . S
C400 C21 1.800 . S
C411 C204 1.790 . S
C416 C44 1.779 . S
C427 C227 1.794 . S
C432 C67 1.788 . S
C443 C250 1.804 . S
C448 C90 1.800 . S
C459 C273 1.781 . S
C464 C113 1.771 . S
C475 C17 1.349 . S
C480 C131 1.329 . S
C491 C40 1.335 . S
C496 C16 1.349 . S
C507 C39 1.350 . S
C512 C63 1.335 . S
C523 C62 1.314 . S
C528 C86 1.343 . S
C539 C85 1.349 . S
C544 C109 1.341 . S
C555 C132 1.349 . S
C560 C108 1.331 . S
C571 C155 1.347 . S
C576 C177 1.307 . S
C587 C178 1.337 . S
C592 C200 1.353 . S
C603 C201 1.335 . S
C608 C223 1.351 . S
C619 C224 1.343 . S
C624 C246 1.316 . S
C635 C247 1.349 . S
C640 C269 1.331 . S
C651 C154 1.353 . S
C656 C270 1.338 . S
C667 C202 1.100 . S
C672 C18 1.090 . S
C683 C41 1.079 . S
C688 C225 1.065 . S
C699 C64 1.056 . S
C704 C248 1.052 . S
C715 C87 1.070 . S
C720 C271 1.085 . S
C731 C110 1.098 . S
C736 C156 1.087 . S
C747 C179 1.101 . S
C752 C133 1.094 . S
C763 C19 0.791 . S
C768 C180 0.851 . S
C779 C203 0.812 . S
C784 C42 0.804 . S
C795 C226 0.922 . S
C800 C65 0.858 . S
C811 C249 0.840 . S
C816 C88 0.917 . S
C827 C111 0.884 . S
C832 C272 0.801 . S
C843 C134 0.828 . S
C848 C157 0.911 . S
