# Generated by pormake.
# Topology neb, (4)-cn, num edge types: 1
# Building blocks:
#     Node 0, Type 0, BuildingBlock: KUFVIS_clean_sbu_0, # of connection points: 4
#     Node 1, Type 0, BuildingBlock: KUFVIS_clean_sbu_0, # of connection points: 4
#     Node 2, Type 0, BuildingBlock: KUFVIS_clean_sbu_0, # of connection points: 4
#     Node 3, Type 0, BuildingBlock: KUFVIS_clean_sbu_0, # of connection points: 4
#     Node 4, Type 0, BuildingBlock: KUFVIS_clean_sbu_0, # of connection points: 4
#     Node 5, Type 0, BuildingBlock: KUFVIS_clean_sbu_0, # of connection points: 4
#     Node 6, Type 0, BuildingBlock: KUFVIS_clean_sbu_0, # of connection points: 4
#     Node 7, Type 0, BuildingBlock: KUFVIS_clean_sbu_0, # of connection points: 4
#     Node 8, Type 0, BuildingBlock: KUFVIS_clean_sbu_0, # of connection points: 4
#     Node 9, Type 0, BuildingBlock: KUFVIS_clean_sbu_0, # of connection points: 4
#     Node 10, Type 0, BuildingBlock: KUFVIS_clean_sbu_0, # of connection points: 4
#     Node 11, Type 0, BuildingBlock: KUFVIS_clean_sbu_0, # of connection points: 4
#     Node 12, Type 0, BuildingBlock: KUFVIS_clean_sbu_0, # of connection points: 4
#     Node 13, Type 0, BuildingBlock: KUFVIS_clean_sbu_0, # of connection points: 4
#     Node 14, Type 0, BuildingBlock: KUFVIS_clean_sbu_0, # of connection points: 4
#     Node 15, Type 0, BuildingBlock: KUFVIS_clean_sbu_0, # of connection points: 4
#     Edge 16, Type (0, 0), BuildingBlock: AJUNOK_clean_linker_0, # of connection points: 2
#     Edge 17, Type (0, 0), BuildingBlock: AJUNOK_clean_linker_0, # of connection points: 2
#     Edge 18, Type (0, 0), BuildingBlock: AJUNOK_clean_linker_0, # of connection points: 2
#     Edge 19, Type (0, 0), BuildingBlock: AJUNOK_clean_linker_0, # of connection points: 2
#     Edge 20, Type (0, 0), BuildingBlock: AJUNOK_clean_linker_0, # of connection points: 2
#     Edge 21, Type (0, 0), BuildingBlock: AJUNOK_clean_linker_0, # of connection points: 2
#     Edge 22, Type (0, 0), BuildingBlock: AJUNOK_clean_linker_0, # of connection points: 2
#     Edge 23, Type (0, 0), BuildingBlock: AJUNOK_clean_linker_0, # of connection points: 2
#     Edge 24, Type (0, 0), BuildingBlock: AJUNOK_clean_linker_0, # of connection points: 2
#     Edge 25, Type (0, 0), BuildingBlock: AJUNOK_clean_linker_0, # of connection points: 2
#     Edge 26, Type (0, 0), BuildingBlock: AJUNOK_clean_linker_0, # of connection points: 2
#     Edge 27, Type (0, 0), BuildingBlock: AJUNOK_clean_linker_0, # of connection points: 2
#     Edge 28, Type (0, 0), BuildingBlock: AJUNOK_clean_linker_0, # of connection points: 2
#     Edge 29, Type (0, 0), BuildingBlock: AJUNOK_clean_linker_0, # of connection points: 2
#     Edge 30, Type (0, 0), BuildingBlock: AJUNOK_clean_linker_0, # of connection points: 2
#     Edge 31, Type (0, 0), BuildingBlock: AJUNOK_clean_linker_0, # of connection points: 2
#     Edge 32, Type (0, 0), BuildingBlock: AJUNOK_clean_linker_0, # of connection points: 2
#     Edge 33, Type (0, 0), BuildingBlock: AJUNOK_clean_linker_0, # of connection points: 2
#     Edge 34, Type (0, 0), BuildingBlock: AJUNOK_clean_linker_0, # of connection points: 2
#     Edge 35, Type (0, 0), BuildingBlock: AJUNOK_clean_linker_0, # of connection points: 2
#     Edge 36, Type (0, 0), BuildingBlock: AJUNOK_clean_linker_0, # of connection points: 2
#     Edge 37, Type (0, 0), BuildingBlock: AJUNOK_clean_linker_0, # of connection points: 2
#     Edge 38, Type (0, 0), BuildingBlock: AJUNOK_clean_linker_0, # of connection points: 2
#     Edge 39, Type (0, 0), BuildingBlock: AJUNOK_clean_linker_0, # of connection points: 2
#     Edge 40, Type (0, 0), BuildingBlock: AJUNOK_clean_linker_0, # of connection points: 2
#     Edge 41, Type (0, 0), BuildingBlock: AJUNOK_clean_linker_0, # of connection points: 2
#     Edge 42, Type (0, 0), BuildingBlock: AJUNOK_clean_linker_0, # of connection points: 2
#     Edge 43, Type (0, 0), BuildingBlock: AJUNOK_clean_linker_0, # of connection points: 2
#     Edge 44, Type (0, 0), BuildingBlock: AJUNOK_clean_linker_0, # of connection points: 2
#     Edge 45, Type (0, 0), BuildingBlock: AJUNOK_clean_linker_0, # of connection points: 2
#     Edge 46, Type (0, 0), BuildingBlock: AJUNOK_clean_linker_0, # of connection points: 2
#     Edge 47, Type (0, 0), BuildingBlock: AJUNOK_clean_linker_0, # of connection points: 2
# Relax obj value: 0.012
# Max RMSD: 0.058
# Mean RMSD: 0.058
data_MOF--net-neb--node1-KUFVIS_clean_sbu_0--edge1-AJUNOK_clean_linker_0
_symmetry_space_group_name_H-M    P1
_symmetry_Int_Tables_number       1
_symmetry_cell_setting            triclinic
loop_
_symmetry_equiv_pos_as_xyz
'x, y, z'
_cell_length_a     30.414209
_cell_length_b     16.921668
_cell_length_c     54.725834
_cell_angle_alpha  93.737778
_cell_angle_beta   90.064951
_cell_angle_gamma 89.995441
loop_
_atom_site_label
_atom_site_type_symbol
_atom_site_fract_x
_atom_site_fract_y
_atom_site_fract_z
_atom_type_partial_charge
Mn0 Mn 0.13173 0.11432 0.45535 0.0
Mn1 Mn 0.21859 0.1313 0.41821 0.0
C2 C 0.1371 0.03005 0.42017 0.0
C3 C 0.0893 0.06225 0.48635 0.0
C4 C 0.14146 0.24045 0.41817 0.0
O5 O 0.17598 0.16618 0.47897 0.0
O6 O 0.22798 0.18796 0.45117 0.0
C7 C 0.28881 0.05329 0.44524 0.0
N8 N 0.26555 0.0605 0.42423 0.0
C9 C 0.32365 -0.00013 0.39984 0.0
C10 C 0.34874 0.99381 0.42117 0.0
C11 C 0.3308 0.01886 0.44402 0.0
C12 C 0.28179 0.03334 0.40227 0.0
H13 H 0.27607 0.07595 0.46271 0.0
C14 C 0.21333 0.1935 0.4732 0.0
O15 O 0.08244 0.13238 0.47897 0.0
O16 O 0.12274 0.02389 0.47676 0.0
N17 N 0.21703 0.08057 0.38606 0.0
C18 C 0.18765 0.08851 0.36761 0.0
C19 C 0.19788 0.05705 0.3439 0.0
C20 C 0.23881 0.02033 0.33934 0.0
C21 C 0.2686 0.01349 0.35868 0.0
C22 C 0.25572 0.04288 0.38204 0.0
H23 H 0.15686 0.11876 0.37103 0.0
O24 O 0.09979 0.05476 0.42921 0.0
O25 O 0.17238 0.06081 0.4309 0.0
O26 O 0.12422 0.21759 0.43761 0.0
O27 O 0.17544 0.2087 0.40861 0.0
C28 C 0.31082 0.98006 0.35572 0.0
C29 C 0.33877 0.97531 0.37621 0.0
H30 H 0.38163 0.96935 0.42027 0.0
H31 H 0.34983 0.0138 0.46057 0.0
H32 H 0.17472 0.06268 0.32909 0.0
H33 H 0.24705 0.99781 0.32093 0.0
H34 H 0.3223 0.9585 0.33778 0.0
H35 H 0.37153 0.95118 0.37367 0.0
Mn36 Mn 0.13513 0.11651 0.8289 0.0
Mn37 Mn 0.23474 0.10532 0.85586 0.0
C38 C 0.1527 0.19818 0.86397 0.0
C39 C 0.08492 0.16625 0.8008 0.0
C40 C 0.16341 0.98283 0.86015 0.0
O41 O 0.17343 0.06123 0.80147 0.0
O42 O 0.23839 0.06728 0.82123 0.0
C43 C 0.28933 0.21432 0.82918 0.0
N44 N 0.27196 0.19289 0.8507 0.0
C45 C 0.32991 0.25825 0.87384 0.0
C46 C 0.34868 0.28085 0.85195 0.0
C47 C 0.32759 0.26073 0.82957 0.0
C48 C 0.29008 0.21713 0.87245 0.0
H49 H 0.2751 0.19343 0.81185 0.0
C50 C 0.21525 0.05072 0.80209 0.0
O51 O 0.07982 0.09792 0.80975 0.0
O52 O 0.12023 0.2052 0.80756 0.0
N53 N 0.23658 0.14008 0.88971 0.0
C54 C 0.21718 0.10631 0.9089 0.0
C55 C 0.23191 0.12638 0.93282 0.0
C56 C 0.26834 0.17662 0.9366 0.0
C57 C 0.28913 0.20731 0.91643 0.0
C58 C 0.27078 0.19034 0.8932 0.0
H59 H 0.19087 0.0639 0.90595 0.0
O60 O 0.11211 0.18196 0.85818 0.0
O61 O 0.18187 0.16666 0.84911 0.0
O62 O 0.13357 0.01595 0.84819 0.0
O63 O 0.20186 0.0107 0.86303 0.0
C64 C 0.32953 0.24771 0.91818 0.0
C65 C 0.35073 0.26968 0.89677 0.0
H66 H 0.37958 0.31265 0.85206 0.0
H67 H 0.34199 0.27752 0.81259 0.0
H68 H 0.21631 0.10074 0.94821 0.0
H69 H 0.28106 0.18878 0.95496 0.0
H70 H 0.34577 0.25822 0.93572 0.0
H71 H 0.38381 0.29282 0.89801 0.0
Mn72 Mn 0.91238 0.883 0.58067 0.0
Mn73 Mn 0.81692 0.8795 0.61203 0.0
C74 C 0.90114 0.97268 0.61419 0.0
C75 C 0.95924 0.92587 0.55011 0.0
C76 C 0.89097 0.76414 0.61895 0.0
O77 O 0.87179 0.82396 0.55609 0.0
O78 O 0.81059 0.82276 0.57897 0.0
C79 C 0.75647 0.96762 0.58134 0.0
N80 N 0.77565 0.95781 0.60344 0.0
C81 C 0.71871 0.03297 0.62467 0.0
C82 C 0.69815 0.04362 0.60217 0.0
C83 C 0.71763 0.01223 0.58036 0.0
C84 C 0.75819 0.99082 0.6244 0.0
H85 H 0.76999 0.93973 0.56469 0.0
C86 C 0.83129 0.80686 0.55883 0.0
O87 O 0.96517 0.85906 0.55993 0.0
O88 O 0.92466 0.96621 0.55718 0.0
N89 N 0.81649 0.93252 0.64388 0.0
C90 C 0.84246 0.92146 0.66365 0.0
C91 C 0.83065 0.95691 0.68663 0.0
C92 C 0.79149 0.00088 0.68911 0.0
C93 C 0.76549 0.0115 0.66839 0.0
C94 C 0.78025 0.97834 0.64582 0.0
H95 H 0.87209 0.8866 0.66174 0.0
O96 O 0.94019 0.95112 0.6069 0.0
O97 O 0.86835 0.94076 0.60156 0.0
O98 O 0.91598 0.78701 0.60216 0.0
O99 O 0.85393 0.79561 0.62384 0.0
C100 C 0.72495 0.05162 0.66925 0.0
C101 C 0.701 0.06028 0.64746 0.0
H102 H 0.66744 0.07572 0.60139 0.0
H103 H 0.70193 0.0201 0.56293 0.0
H104 H 0.85112 0.94892 0.70247 0.0
H105 H 0.78174 0.02623 0.70698 0.0
H106 H 0.71159 0.07503 0.68658 0.0
H107 H 0.66911 0.08857 0.64841 0.0
Mn108 Mn 0.90925 0.86673 0.20175 0.0
Mn109 Mn 0.81916 0.88358 0.16668 0.0
C110 C 0.90128 0.78278 0.16645 0.0
C111 C 0.95353 0.81452 0.23205 0.0
C112 C 0.89589 0.99409 0.16517 0.0
O113 O 0.86678 0.91995 0.22627 0.0
O114 O 0.81144 0.93789 0.20009 0.0
C115 C 0.7514 0.80208 0.19437 0.0
N116 N 0.77342 0.81079 0.17306 0.0
C117 C 0.71446 0.75008 0.1493 0.0
C118 C 0.69065 0.7423 0.17096 0.0
C119 C 0.70966 0.76663 0.19363 0.0
C120 C 0.75617 0.78436 0.15125 0.0
H121 H 0.76489 0.82447 0.21171 0.0
C122 C 0.82837 0.94522 0.22161 0.0
O123 O 0.9602 0.88432 0.2244 0.0
O124 O 0.91936 0.77658 0.22315 0.0
N125 N 0.81937 0.83472 0.13427 0.0
C126 C 0.8475 0.84492 0.11542 0.0
C127 C 0.83622 0.81446 0.09174 0.0
C128 C 0.79547 0.77655 0.08765 0.0
C129 C 0.76696 0.76753 0.10741 0.0
C130 C 0.78095 0.79581 0.13069 0.0
H131 H 0.87806 0.87629 0.11849 0.0
O132 O 0.9392 0.80603 0.17504 0.0
O133 O 0.8669 0.81366 0.17805 0.0
O134 O 0.91585 0.96942 0.18359 0.0
O135 O 0.8606 0.96349 0.15685 0.0
C136 C 0.72486 0.73326 0.10494 0.0
C137 C 0.69814 0.72673 0.1258 0.0
H138 H 0.6579 0.71717 0.17045 0.0
H139 H 0.69159 0.76034 0.21042 0.0
H140 H 0.85838 0.82187 0.0766 0.0
H141 H 0.78635 0.75494 0.06927 0.0
H142 H 0.71248 0.71262 0.08708 0.0
H143 H 0.66538 0.70229 0.12363 0.0
Mn144 Mn 0.14205 0.58908 0.95206 0.0
Mn145 Mn 0.24502 0.59367 0.92988 0.0
C146 C 0.1633 0.4976 0.92029 0.0
C147 C 0.08768 0.54485 0.9786 0.0
C148 C 0.17387 0.70276 0.91395 0.0
O149 O 0.17406 0.65195 0.98004 0.0
O150 O 0.2383 0.65978 0.96069 0.0
C151 C 0.28911 0.51736 0.97039 0.0
N152 N 0.28197 0.52246 0.94597 0.0
C153 C 0.35061 0.45886 0.93591 0.0
C154 C 0.35878 0.45215 0.96093 0.0
C155 C 0.32735 0.4799 0.97823 0.0
C156 C 0.31023 0.49038 0.92917 0.0
H157 H 0.26644 0.54361 0.98376 0.0
C158 C 0.21365 0.67629 0.97912 0.0
O159 O 0.08338 0.61067 0.96792 0.0
O160 O 0.12421 0.5067 0.97458 0.0
N161 N 0.26108 0.53428 0.9004 0.0
C162 C 0.24883 0.54714 0.87709 0.0
C163 C 0.27546 0.51959 0.8574 0.0
C164 C 0.31621 0.48453 0.86201 0.0
C165 C 0.32903 0.47473 0.88624 0.0
C166 C 0.29933 0.49717 0.90494 0.0
H167 H 0.21873 0.57796 0.87366 0.0
O168 O 0.12266 0.51848 0.92373 0.0
O169 O 0.19167 0.53066 0.93573 0.0
O170 O 0.14551 0.68371 0.92976 0.0
O171 O 0.21131 0.66958 0.91182 0.0
C172 C 0.37115 0.44841 0.89269 0.0
C173 C 0.38183 0.43991 0.91751 0.0
H174 H 0.38931 0.42703 0.96705 0.0
H175 H 0.33353 0.47571 0.99759 0.0
H176 H 0.2655 0.52856 0.8388 0.0
H177 H 0.33778 0.46702 0.84687 0.0
H178 H 0.39553 0.43376 0.87871 0.0
H179 H 0.4141 0.41836 0.9222 0.0
Mn180 Mn 0.1294 0.63658 0.32722 0.0
Mn181 Mn 0.21966 0.63325 0.36303 0.0
C182 C 0.136 0.72786 0.36079 0.0
C183 C 0.08484 0.67842 0.29539 0.0
C184 C 0.14455 0.5198 0.367 0.0
O185 O 0.17305 0.57918 0.30419 0.0
O186 O 0.22881 0.57263 0.33086 0.0
C187 C 0.2855 0.71343 0.33361 0.0
N188 N 0.26371 0.70745 0.35514 0.0
C189 C 0.32062 0.77881 0.37767 0.0
C190 C 0.34408 0.7846 0.3558 0.0
C191 C 0.32595 0.75337 0.3336 0.0
C192 C 0.27999 0.74039 0.37643 0.0
H193 H 0.27282 0.6858 0.31671 0.0
C194 C 0.2121 0.55857 0.30951 0.0
O195 O 0.07907 0.61095 0.30479 0.0
O196 O 0.11846 0.71986 0.30343 0.0
N197 N 0.21796 0.68916 0.39443 0.0
C198 C 0.18996 0.68113 0.4135 0.0
C199 C 0.20032 0.71773 0.43657 0.0
C200 C 0.24012 0.75938 0.43992 0.0
C201 C 0.26852 0.76608 0.41998 0.0
C202 C 0.25533 0.73176 0.39723 0.0
H203 H 0.1601 0.64704 0.41104 0.0
O204 O 0.09827 0.70308 0.35229 0.0
O205 O 0.1707 0.6961 0.34986 0.0
O206 O 0.1238 0.53974 0.34817 0.0
O207 O 0.17971 0.55342 0.37438 0.0
C208 C 0.30982 0.80361 0.4218 0.0
C209 C 0.33637 0.80782 0.40076 0.0
H210 H 0.37596 0.81305 0.3558 0.0
H211 H 0.3438 0.7578 0.31665 0.0
H212 H 0.17823 0.71223 0.45186 0.0
H213 H 0.24861 0.7857 0.45789 0.0
H214 H 0.32172 0.82853 0.43931 0.0
H215 H 0.36865 0.8345 0.40246 0.0
Mn216 Mn 0.90373 0.38791 0.07282 0.0
Mn217 Mn 0.81415 0.38715 0.10909 0.0
C218 C 0.89835 0.48122 0.10613 0.0
C219 C 0.9488 0.42578 0.04059 0.0
C220 C 0.88861 0.27205 0.11289 0.0
O221 O 0.85933 0.33072 0.05006 0.0
O222 O 0.80386 0.32696 0.07691 0.0
C223 C 0.74787 0.46872 0.08029 0.0
N224 N 0.77014 0.46198 0.10165 0.0
C225 C 0.71318 0.53074 0.12483 0.0
C226 C 0.68931 0.53765 0.10312 0.0
C227 C 0.70721 0.50808 0.08068 0.0
C228 C 0.75406 0.49335 0.12317 0.0
H229 H 0.76033 0.44199 0.06322 0.0
C230 C 0.82013 0.31157 0.05554 0.0
O231 O 0.9534 0.35896 0.05049 0.0
O232 O 0.91593 0.46959 0.04842 0.0
N233 N 0.81679 0.44232 0.14055 0.0
C234 C 0.84533 0.43385 0.15938 0.0
C235 C 0.83519 0.46873 0.1827 0.0
C236 C 0.79507 0.50902 0.18652 0.0
C237 C 0.76617 0.51627 0.16678 0.0
C238 C 0.77917 0.48387 0.14379 0.0
H239 H 0.87537 0.40053 0.15656 0.0
O240 O 0.93563 0.45443 0.0976 0.0
O241 O 0.86315 0.44968 0.09556 0.0
O242 O 0.90924 0.29163 0.09405 0.0
O243 O 0.85369 0.30631 0.12026 0.0
C244 C 0.72456 0.55245 0.16904 0.0
C245 C 0.69759 0.55761 0.14816 0.0
H246 H 0.6573 0.56566 0.10342 0.0
H247 H 0.689 0.51321 0.06386 0.0
H248 H 0.85766 0.4628 0.19782 0.0
H249 H 0.78674 0.53389 0.20467 0.0
H250 H 0.71277 0.57572 0.18674 0.0
H251 H 0.66518 0.5836 0.15017 0.0
Mn252 Mn 0.90792 0.35878 0.70824 0.0
Mn253 Mn 0.8168 0.38056 0.67414 0.0
C254 C 0.89795 0.27371 0.6733 0.0
C255 C 0.95247 0.30502 0.73837 0.0
C256 C 0.89462 0.48992 0.67322 0.0
O257 O 0.86642 0.41337 0.73324 0.0
O258 O 0.80885 0.42797 0.70826 0.0
C259 C 0.74828 0.29374 0.69958 0.0
N260 N 0.77072 0.30681 0.67871 0.0
C261 C 0.71172 0.25277 0.6535 0.0
C262 C 0.68765 0.23986 0.67474 0.0
C263 C 0.70642 0.25883 0.69787 0.0
C264 C 0.75352 0.28622 0.65638 0.0
H265 H 0.76157 0.31241 0.71733 0.0
C266 C 0.82709 0.43596 0.7294 0.0
O267 O 0.95962 0.37436 0.73053 0.0
O268 O 0.91783 0.26807 0.72964 0.0
N269 N 0.81735 0.33911 0.64095 0.0
C270 C 0.84603 0.35272 0.62262 0.0
C271 C 0.83487 0.32833 0.59837 0.0
C272 C 0.7938 0.29271 0.59324 0.0
C273 C 0.76478 0.27994 0.61251 0.0
C274 C 0.77848 0.30271 0.63632 0.0
H275 H 0.87683 0.38251 0.62653 0.0
O276 O 0.93632 0.29762 0.68106 0.0
O277 O 0.86415 0.30715 0.68484 0.0
O278 O 0.91628 0.46088 0.69026 0.0
O279 O 0.85782 0.46313 0.666 0.0
C280 C 0.72265 0.24649 0.60911 0.0
C281 C 0.69567 0.23501 0.62956 0.0
H282 H 0.6549 0.21481 0.67353 0.0
H283 H 0.68808 0.24879 0.71432 0.0
H284 H 0.85741 0.33858 0.58362 0.0
H285 H 0.78489 0.27549 0.57448 0.0
H286 H 0.71054 0.22991 0.59087 0.0
H287 H 0.66297 0.21085 0.62669 0.0
Mn288 Mn 0.62286 0.10987 0.95621 0.0
Mn289 Mn 0.71382 0.12068 0.92147 0.0
C290 C 0.63109 0.02182 0.92196 0.0
C291 C 0.57684 0.0652 0.98699 0.0
C292 C 0.63756 0.2315 0.91797 0.0
O293 O 0.66534 0.16487 0.98031 0.0
O294 O 0.72142 0.17915 0.95434 0.0
C295 C 0.78033 0.04108 0.95072 0.0
N296 N 0.75901 0.04816 0.92908 0.0
C297 C 0.81809 0.98353 0.90647 0.0
C298 C 0.84103 0.9767 0.92849 0.0
C299 C 0.82161 0.00392 0.95075 0.0
C300 C 0.77663 0.01898 0.90767 0.0
H301 H 0.7666 0.06577 0.96773 0.0
C302 C 0.70399 0.18892 0.97569 0.0
O303 O 0.57177 0.1335 0.97807 0.0
O304 O 0.61051 0.02378 0.979 0.0
N305 N 0.714 0.06772 0.88962 0.0
C306 C 0.68613 0.07522 0.87044 0.0
C307 C 0.69783 0.04209 0.84715 0.0
C308 C 0.73871 0.00413 0.84374 0.0
C309 C 0.76684 0.99747 0.86385 0.0
C310 C 0.7524 0.02837 0.88675 0.0
H311 H 0.65536 0.1061 0.87303 0.0
O312 O 0.59305 0.04639 0.93003 0.0
O313 O 0.66542 0.05328 0.93348 0.0
O314 O 0.61748 0.20965 0.93668 0.0
O315 O 0.67291 0.19969 0.91022 0.0
C316 C 0.80893 0.96296 0.86208 0.0
C317 C 0.83502 0.95809 0.8833 0.0
H318 H 0.87345 0.95026 0.92854 0.0
H319 H 0.83905 -0.00143 0.96781 0.0
H320 H 0.67587 0.04738 0.83176 0.0
H321 H 0.74818 0.9804 0.82565 0.0
H322 H 0.82172 0.94062 0.8445 0.0
H323 H 0.86775 0.93324 0.88166 0.0
Mn324 Mn 0.63953 0.1364 0.32765 0.0
Mn325 Mn 0.73388 0.12754 0.35946 0.0
C326 C 0.64999 0.22614 0.36129 0.0
C327 C 0.59173 0.18436 0.2983 0.0
C328 C 0.65895 0.0138 0.3647 0.0
O329 O 0.6798 0.0818 0.30228 0.0
O330 O 0.73966 0.07325 0.32592 0.0
C331 C 0.79729 0.21334 0.33001 0.0
N332 N 0.77768 0.20257 0.35189 0.0
C333 C 0.83799 0.26503 0.37412 0.0
C334 C 0.85907 0.27624 0.35181 0.0
C335 C 0.83819 0.2518 0.32965 0.0
C336 C 0.7968 0.22858 0.37326 0.0
H337 H 0.78251 0.1905 0.31303 0.0
C338 C 0.71969 0.06158 0.30533 0.0
O339 O 0.5863 0.11538 0.30682 0.0
O340 O 0.62655 0.22337 0.30568 0.0
N341 N 0.73569 0.17647 0.39179 0.0
C342 C 0.70861 0.16758 0.41119 0.0
C343 C 0.72169 0.19784 0.4346 0.0
C344 C 0.76292 0.23482 0.43779 0.0
C345 C 0.78994 0.24372 0.41738 0.0
C346 C 0.77427 0.21535 0.39446 0.0
H347 H 0.67739 0.13787 0.4087 0.0
O348 O 0.61174 0.19862 0.35465 0.0
O349 O 0.68372 0.19467 0.34916 0.0
O350 O 0.63555 0.03666 0.3473 0.0
O351 O 0.69525 0.04571 0.37068 0.0
C352 C 0.83193 0.27874 0.41879 0.0
C353 C 0.85643 0.28736 0.39721 0.0
H354 H 0.89113 0.30394 0.35146 0.0
H355 H 0.85425 0.26032 0.31239 0.0
H356 H 0.70047 0.19131 0.4502 0.0
H357 H 0.77336 0.25658 0.45593 0.0
H358 H 0.84573 0.29905 0.43635 0.0
H359 H 0.889 0.31309 0.39855 0.0
Mn360 Mn 0.39903 0.88665 0.08103 0.0
Mn361 Mn 0.30916 0.87775 0.1166 0.0
C362 C 0.3926 0.9763 0.11486 0.0
C363 C 0.4434 0.93368 0.04992 0.0
C364 C 0.38505 0.7653 0.11921 0.0
O365 O 0.35559 0.83207 0.05749 0.0
O366 O 0.2997 0.82059 0.08377 0.0
C367 C 0.24163 0.95949 0.0887 0.0
N368 N 0.26394 0.95125 0.10997 0.0
C369 C 0.20592 0.01475 0.13374 0.0
C370 C 0.18205 0.02315 0.11211 0.0
C371 C 0.20041 0.99696 0.08945 0.0
C372 C 0.24725 0.97904 0.13176 0.0
H373 H 0.25452 0.93535 0.07141 0.0
C374 C 0.31671 0.80974 0.06239 0.0
O375 O 0.44958 0.86474 0.05833 0.0
O376 O 0.40955 0.97325 0.05845 0.0
N377 N 0.31071 0.9291 0.14862 0.0
C378 C 0.33968 0.92096 0.16726 0.0
C379 C 0.32907 0.95292 0.19087 0.0
C380 C 0.28824 0.99044 0.19509 0.0
C381 C 0.25906 0.99792 0.1755 0.0
C382 C 0.27233 0.96803 0.15228 0.0
H383 H 0.37045 0.89029 0.16406 0.0
O384 O 0.43007 0.949 0.1068 0.0
O385 O 0.35748 0.94479 0.10407 0.0
O386 O 0.40535 0.78704 0.10055 0.0
O387 O 0.34991 0.7978 0.12694 0.0
C388 C 0.21711 0.03268 0.17805 0.0
C389 C 0.1901 0.03909 0.15726 0.0
H390 H 0.14971 0.04998 0.11265 0.0
H391 H 0.1822 0.00334 0.07269 0.0
H392 H 0.35183 0.94711 0.20585 0.0
H393 H 0.27969 0.01338 0.21342 0.0
H394 H 0.20521 0.05431 0.1959 0.0
H395 H 0.15758 0.06451 0.15948 0.0
Mn396 Mn 0.40796 0.8584 0.70176 0.0
Mn397 Mn 0.31972 0.8688 0.66475 0.0
C398 C 0.40236 0.77125 0.66733 0.0
C399 C 0.45229 0.81336 0.73334 0.0
C400 C 0.3961 0.97976 0.66326 0.0
O401 O 0.36341 0.91227 0.72467 0.0
O402 O 0.30958 0.92793 0.69726 0.0
C403 C 0.25092 0.7898 0.69249 0.0
N404 N 0.27394 0.79634 0.67139 0.0
C405 C 0.21651 0.73149 0.64743 0.0
C406 C 0.19182 0.72529 0.66886 0.0
C407 C 0.20956 0.75291 0.69155 0.0
C408 C 0.25797 0.76669 0.64961 0.0
H409 H 0.26336 0.81478 0.70979 0.0
C410 C 0.32525 0.93681 0.71904 0.0
O411 O 0.45747 0.88223 0.72482 0.0
O412 O 0.41914 0.77185 0.72462 0.0
N413 N 0.32198 0.81518 0.63302 0.0
C414 C 0.3512 0.82268 0.61451 0.0
C415 C 0.3412 0.7892 0.59099 0.0
C416 C 0.30059 0.75105 0.58666 0.0
C417 C 0.27102 0.74456 0.60608 0.0
C418 C 0.28381 0.77563 0.62929 0.0
H419 H 0.38172 0.85389 0.61777 0.0
O420 O 0.43982 0.796 0.67626 0.0
O421 O 0.36716 0.80201 0.67806 0.0
O422 O 0.41438 0.95855 0.68261 0.0
O423 O 0.36161 0.94746 0.65445 0.0
C424 C 0.22898 0.71026 0.60332 0.0
C425 C 0.20129 0.70583 0.62389 0.0
H426 H 0.15933 0.69912 0.66814 0.0
H427 H 0.19076 0.7481 0.70817 0.0
H428 H 0.36425 0.79444 0.57613 0.0
H429 H 0.29242 0.72717 0.56837 0.0
H430 H 0.21744 0.68788 0.58546 0.0
H431 H 0.1686 0.68126 0.62148 0.0
Mn432 Mn 0.64045 0.61352 0.45522 0.0
Mn433 Mn 0.73141 0.62536 0.42036 0.0
C434 C 0.64849 0.52868 0.42021 0.0
C435 C 0.59462 0.56705 0.48566 0.0
C436 C 0.65557 0.73816 0.4181 0.0
O437 O 0.68341 0.66781 0.47948 0.0
O438 O 0.74014 0.67929 0.45371 0.0
C439 C 0.79781 0.53957 0.44789 0.0
N440 N 0.77567 0.54955 0.42668 0.0
C441 C 0.83267 0.48357 0.40273 0.0
C442 C 0.85644 0.47363 0.4243 0.0
C443 C 0.83845 0.50011 0.44702 0.0
C444 C 0.79182 0.52102 0.40483 0.0
H445 H 0.78526 0.56377 0.46525 0.0
C446 C 0.72265 0.68956 0.47501 0.0
O447 O 0.58965 0.63607 0.47722 0.0
O448 O 0.62838 0.52607 0.47752 0.0
N449 N 0.72965 0.57587 0.38804 0.0
C450 C 0.70161 0.58812 0.36926 0.0
C451 C 0.71186 0.55662 0.34557 0.0
C452 C 0.75166 0.51575 0.34135 0.0
C453 C 0.78013 0.50468 0.36103 0.0
C454 C 0.76695 0.53373 0.38437 0.0
H455 H 0.67188 0.62181 0.37242 0.0
O456 O 0.61034 0.55084 0.42876 0.0
O457 O 0.68265 0.559 0.43204 0.0
O458 O 0.6346 0.71386 0.43616 0.0
O459 O 0.69144 0.7079 0.41054 0.0
C460 C 0.82159 0.46821 0.35838 0.0
C461 C 0.84838 0.45992 0.37914 0.0
H462 H 0.88844 0.44554 0.42366 0.0
H463 H 0.85656 0.4925 0.46373 0.0
H464 H 0.68972 0.56563 0.3305 0.0
H465 H 0.76016 0.49359 0.32294 0.0
H466 H 0.8335 0.44748 0.34044 0.0
H467 H 0.88083 0.43439 0.37678 0.0
Mn468 Mn 0.62898 0.63134 0.82761 0.0
Mn469 Mn 0.71772 0.62353 0.86431 0.0
C470 C 0.63437 0.72002 0.86197 0.0
C471 C 0.58538 0.67868 0.79612 0.0
C472 C 0.64207 0.51046 0.8663 0.0
O473 O 0.67326 0.57626 0.80446 0.0
O474 O 0.72774 0.5655 0.83171 0.0
C475 C 0.78553 0.70487 0.83656 0.0
N476 N 0.76279 0.69735 0.8577 0.0
C477 C 0.81986 0.76341 0.88163 0.0
C478 C 0.84425 0.77078 0.86014 0.0
C479 C 0.82655 0.743 0.83746 0.0
C480 C 0.77875 0.72693 0.87949 0.0
H481 H 0.77314 0.6797 0.81926 0.0
C482 C 0.71186 0.55389 0.81006 0.0
O483 O 0.57902 0.60956 0.80437 0.0
O484 O 0.61916 0.71798 0.80493 0.0
N485 N 0.71533 0.67626 0.89614 0.0
C486 C 0.68632 0.66761 0.9147 0.0
C487 C 0.69626 0.701 0.93824 0.0
C488 C 0.73657 0.74026 0.94254 0.0
C489 C 0.76592 0.7479 0.92307 0.0
C490 C 0.75322 0.71674 0.89986 0.0
H491 H 0.65601 0.63545 0.91148 0.0
O492 O 0.59713 0.69455 0.85302 0.0
O493 O 0.66962 0.68916 0.85129 0.0
O494 O 0.62239 0.53165 0.84729 0.0
O495 O 0.67678 0.54364 0.8745 0.0
C496 C 0.80761 0.78358 0.92578 0.0
C497 C 0.83505 0.78922 0.90516 0.0
H498 H 0.87648 0.79801 0.86082 0.0
H499 H 0.84513 0.74867 0.82081 0.0
H500 H 0.67341 0.69487 0.95314 0.0
H501 H 0.74467 0.76414 0.96084 0.0
H502 H 0.81908 0.80616 0.94364 0.0
H503 H 0.86748 0.81493 0.90753 0.0
Mn504 Mn 0.41111 0.38088 0.5743 0.0
Mn505 Mn 0.31924 0.37167 0.60821 0.0
C506 C 0.40303 0.46792 0.60864 0.0
C507 C 0.45729 0.42957 0.54443 0.0
C508 C 0.39449 0.25857 0.6119 0.0
O509 O 0.36896 0.32796 0.5497 0.0
O510 O 0.31193 0.31502 0.5751 0.0
C511 C 0.25392 0.45411 0.57897 0.0
N512 N 0.27487 0.44582 0.60066 0.0
C513 C 0.21607 0.51151 0.62322 0.0
C514 C 0.19346 0.51946 0.60115 0.0
C515 C 0.21295 0.49232 0.5789 0.0
C516 C 0.25718 0.47475 0.62208 0.0
H517 H 0.26766 0.4295 0.56196 0.0
C518 C 0.32988 0.30541 0.5539 0.0
O519 O 0.46287 0.3599 0.55245 0.0
O520 O 0.42297 0.46871 0.55251 0.0
N521 N 0.31899 0.42325 0.64025 0.0
C522 C 0.34655 0.41438 0.65949 0.0
C523 C 0.33485 0.44739 0.6828 0.0
C524 C 0.29433 0.48668 0.68614 0.0
C525 C 0.26656 0.49475 0.66597 0.0
C526 C 0.28095 0.46381 0.64307 0.0
H527 H 0.37709 0.38244 0.65697 0.0
O528 O 0.44092 0.44189 0.60086 0.0
O529 O 0.36858 0.43789 0.59687 0.0
O530 O 0.41567 0.28019 0.59349 0.0
O531 O 0.35917 0.29143 0.61925 0.0
C532 C 0.22487 0.53089 0.66766 0.0
C533 C 0.19913 0.53713 0.64637 0.0
H534 H 0.16127 0.54674 0.60104 0.0
H535 H 0.19578 0.49858 0.5618 0.0
H536 H 0.35653 0.44106 0.69825 0.0
H537 H 0.28489 0.51038 0.70425 0.0
H538 H 0.21211 0.55343 0.68523 0.0
H539 H 0.16668 0.56319 0.64794 0.0
Mn540 Mn 0.40761 0.36373 0.2083 0.0
Mn541 Mn 0.31546 0.37587 0.17431 0.0
C542 C 0.3981 0.27841 0.17366 0.0
C543 C 0.4542 0.31805 0.2386 0.0
C544 C 0.39158 0.48712 0.17084 0.0
O545 O 0.3657 0.41839 0.23276 0.0
O546 O 0.30843 0.43229 0.20744 0.0
C547 C 0.24995 0.29364 0.20341 0.0
N548 N 0.27106 0.30169 0.18178 0.0
C549 C 0.21273 0.2346 0.15913 0.0
C550 C 0.18999 0.22682 0.18114 0.0
C551 C 0.20917 0.25477 0.20341 0.0
C552 C 0.25374 0.27175 0.16036 0.0
H553 H 0.26342 0.31886 0.22043 0.0
C554 C 0.32667 0.44167 0.2286 0.0
O555 O 0.45911 0.3866 0.22983 0.0
O556 O 0.42029 0.27685 0.23074 0.0
N557 N 0.31528 0.32414 0.14226 0.0
C558 C 0.34249 0.33418 0.12298 0.0
C559 C 0.33099 0.30091 0.09966 0.0
C560 C 0.29085 0.26039 0.09632 0.0
C561 C 0.26329 0.25149 0.11649 0.0
C562 C 0.27762 0.28246 0.13943 0.0
H563 H 0.37259 0.3672 0.12549 0.0
O564 O 0.43666 0.30043 0.18171 0.0
O565 O 0.36441 0.30926 0.18575 0.0
O566 O 0.41265 0.46376 0.18902 0.0
O567 O 0.35566 0.45646 0.16343 0.0
C568 C 0.22169 0.21509 0.11473 0.0
C569 C 0.1959 0.20888 0.13595 0.0
H570 H 0.15788 0.19922 0.18117 0.0
H571 H 0.19188 0.2487 0.22046 0.0
H572 H 0.35248 0.30813 0.08421 0.0
H573 H 0.28145 0.23671 0.07819 0.0
H574 H 0.20894 0.19271 0.09712 0.0
H575 H 0.16336 0.18322 0.13429 0.0
C576 C 0.25775 0.25241 0.53713 0.0
C577 C 0.30179 0.274 0.53295 0.0
C578 C 0.2293 0.22878 0.51778 0.0
C579 C 0.24331 0.22573 0.4932 0.0
H580 H 0.24475 0.25421 0.55557 0.0
H581 H 0.19602 0.2122 0.52227 0.0
S582 S 0.35548 0.2764 0.47199 0.0
N583 N 0.358 0.29054 0.50206 0.0
N584 N 0.30474 0.247 0.46581 0.0
C585 C 0.28728 0.24748 0.48868 0.0
C586 C 0.31638 0.27112 0.50845 0.0
C587 C 0.98888 0.03637 0.52655 0.0
C588 C 0.99232 0.95773 0.53325 0.0
C589 C 1.02087 0.06977 0.51189 0.0
C590 C 0.05774 0.02605 0.5032 0.0
H591 H 0.96143 0.07302 0.53285 0.0
H592 H 1.01636 0.13048 0.50724 0.0
S593 S 0.08205 0.81689 0.51502 0.0
N594 N 0.03558 0.83646 0.52977 0.0
N595 N 0.09545 0.89913 0.50218 0.0
C596 C 0.06159 0.94717 0.50966 0.0
C597 C 0.02897 0.91309 0.52465 0.0
C598 C 0.31201 0.97475 0.76336 0.0
C599 C 0.29607 0.97002 0.73921 0.0
C600 C 0.28514 -0.00116 0.78314 0.0
C601 C 0.24066 0.02023 0.78003 0.0
H602 H 0.34566 0.95873 0.76727 0.0
H603 H 0.2999 0.00058 0.80119 0.0
S604 S 0.182 0.01911 0.72055 0.0
N605 N 0.23222 0.98906 0.71319 0.0
N606 N 0.18184 0.03535 0.75063 0.0
C607 C 0.22395 0.01607 0.75601 0.0
C608 C 0.25155 0.9911 0.73561 0.0
C609 C 0.05407 0.27836 0.77804 0.0
C610 C 0.05083 0.19961 0.78467 0.0
C611 C 0.02172 0.31201 0.76356 0.0
C612 C 0.9846 0.26851 0.75498 0.0
H613 H 0.08177 0.31473 0.78417 0.0
H614 H 0.02614 0.37277 0.75893 0.0
S615 S 0.96048 0.05934 0.76677 0.0
N616 N 1.00726 0.07861 0.78129 0.0
N617 N 0.94684 0.14178 0.7541 0.0
C618 C 0.98087 0.18966 0.76146 0.0
C619 C 1.01383 0.15531 0.77625 0.0
C620 C 0.76012 0.75642 0.53988 0.0
C621 C 0.80521 0.77376 0.53721 0.0
C622 C 0.73373 0.73107 0.51976 0.0
C623 C 0.75093 0.72197 0.49584 0.0
H624 H 0.74467 0.76295 0.55772 0.0
H625 H 0.69946 0.71818 0.52312 0.0
S626 S 0.86711 0.75953 0.47853 0.0
N627 N 0.86588 0.7796 0.50843 0.0
N628 N 0.8166 0.73276 0.47075 0.0
C629 C 0.79604 0.73921 0.49284 0.0
C630 C 0.823 0.76466 0.5134 0.0
C631 C 0.79066 0.00989 0.28654 0.0
C632 C 0.74591 0.02945 0.28368 0.0
C633 C 0.81708 0.9847 0.26645 0.0
C634 C 0.80025 0.97805 0.2424 0.0
H635 H 0.80579 0.01441 0.3045 0.0
H636 H 0.85106 0.9699 0.26994 0.0
S637 S 0.68508 0.02226 0.22459 0.0
N638 N 0.68596 0.04015 0.25458 0.0
N639 N 0.73536 0.99377 0.21697 0.0
C640 C 0.75552 0.99776 0.2392 0.0
C641 C 0.72851 0.02297 0.25973 0.0
C642 C 0.02289 0.82198 0.25701 0.0
C643 C 0.98581 0.77825 0.24854 0.0
C644 C 0.05521 0.78865 0.27154 0.0
C645 C 0.05195 0.71002 0.27829 0.0
H646 H 0.02719 0.88273 0.25236 0.0
H647 H 0.08269 0.82537 0.27778 0.0
S648 S 0.96192 0.56907 0.26048 0.0
N649 N 0.94822 0.65129 0.24771 0.0
N650 N 1.00869 0.58868 0.27496 0.0
C651 C 1.0152 0.66529 0.2698 0.0
C652 C 0.98223 0.69935 0.255 0.0
C653 C 0.30346 0.77883 0.0176 0.0
C654 C 0.28854 0.77594 0.04184 0.0
C655 C 0.27775 0.75068 0.99769 0.0
C656 C 0.23575 0.71728 1.00083 0.0
H657 H 0.33545 0.80328 1.01379 0.0
H658 H 0.29167 0.75383 0.97957 0.0
S659 S 0.17997 0.69816 0.06043 0.0
N660 N 0.22772 0.73961 0.06786 0.0
N661 N 0.17978 0.68524 0.03026 0.0
C662 C 0.21971 0.71559 0.0249 0.0
C663 C 0.24598 0.74493 0.04537 0.0
C664 C 1.01549 0.5604 1.00111 0.0
C665 C 0.05191 0.513 0.99382 0.0
C666 C 0.98157 0.5313 1.01558 0.0
C667 C 0.98247 0.45336 0.0232 0.0
H668 H 1.01341 0.62095 0.99591 0.0
H669 H 0.95489 0.57077 0.02119 0.0
S670 S 0.06895 0.30305 1.00755 0.0
N671 N 0.08562 0.38284 0.99446 0.0
N672 N 0.02218 0.32809 0.02119 0.0
C673 C 1.01816 0.40472 1.01542 0.0
C674 C 0.05275 0.43451 1.0009 0.0
C675 C 0.25433 0.49254 0.24568 0.0
C676 C 0.29895 0.47399 0.24957 0.0
C677 C 0.22637 0.51727 0.26512 0.0
C678 C 0.24151 0.52473 0.2895 0.0
H679 H 0.24047 0.48743 0.2274 0.0
H680 H 0.19261 0.53147 0.26085 0.0
S681 S 0.35556 0.48314 0.30994 0.0
N682 N 0.35688 0.46488 0.27997 0.0
N683 N 0.30464 0.51066 0.31639 0.0
C684 C 0.28608 0.50599 0.29372 0.0
C685 C 0.31463 0.48105 0.27387 0.0
C686 C 0.77685 0.24036 0.99219 0.0
C687 C 0.73217 0.2229 0.99633 0.0
C688 C 0.80511 0.26673 1.01138 0.0
C689 C 0.79024 0.27703 0.03576 0.0
H690 H 0.79051 0.23297 0.97391 0.0
H691 H 0.83892 0.27978 1.00693 0.0
S692 S 0.67609 0.23989 0.05679 0.0
N693 N 0.67446 0.21831 0.02697 0.0
N694 N 0.7272 0.26714 0.0629 0.0
C695 C 0.74558 0.25961 0.04022 0.0
C696 C 0.71675 0.23297 0.02063 0.0
C697 C 0.72674 0.51265 0.76573 0.0
C698 C 0.74156 0.51984 0.79016 0.0
C699 C 0.75478 0.48709 0.74642 0.0
C700 C 0.79921 0.46735 0.75046 0.0
H701 H 0.69318 0.52767 0.76131 0.0
H702 H 0.74113 0.48257 0.72809 0.0
S703 S 0.85491 0.4749 0.81104 0.0
N704 N 0.80416 0.50403 0.8173 0.0
N705 N 0.85654 0.45642 0.78108 0.0
C706 C 0.81455 0.47387 0.77482 0.0
C707 C 0.7859 0.49978 0.79457 0.0
C708 C 0.54527 0.95469 1.01017 0.0
C709 C 0.54331 0.03381 1.00375 0.0
C710 C 0.51241 0.92253 0.02463 0.0
C711 C 0.47607 0.96799 0.03326 0.0
H712 H 0.57219 0.91685 1.00381 0.0
H713 H 0.51571 0.86143 0.02913 0.0
S714 S 0.45565 0.17902 0.02212 0.0
N715 N 0.50204 0.15737 1.00757 0.0
N716 N 0.44061 0.09696 0.03454 0.0
C717 C 0.47376 0.04727 0.02704 0.0
C718 C 0.50726 0.08012 1.01239 0.0
C719 C 0.48746 0.20615 0.26048 0.0
C720 C 0.48834 0.28611 0.25485 0.0
C721 C 0.52133 0.17351 0.27416 0.0
C722 C 0.5576 0.21934 0.28271 0.0
H723 H 0.46071 0.16802 0.25401 0.0
H724 H 0.51901 0.11168 0.27802 0.0
S725 S 0.57493 0.43282 0.27386 0.0
N726 N 0.52819 0.41106 0.25963 0.0
N727 N 0.59154 0.34972 0.28508 0.0
C728 C 0.55868 0.29956 0.2774 0.0
C729 C 0.52416 0.33289 0.26359 0.0
C730 C 0.4838 0.70145 0.75605 0.0
C731 C 0.48552 0.78119 0.75021 0.0
C732 C 0.51665 0.66853 0.77041 0.0
C733 C 0.55278 0.71377 0.77951 0.0
H734 H 0.45711 0.6637 0.74927 0.0
H735 H 0.51353 0.60698 0.77446 0.0
S736 S 0.57246 0.92622 0.77005 0.0
N737 N 0.5263 0.9051 0.75515 0.0
N738 N 0.58771 0.84328 0.78189 0.0
C739 C 0.55483 0.79367 0.77388 0.0
C740 C 0.52132 0.82731 0.75936 0.0
C741 C 0.52758 0.42027 0.52028 0.0
C742 C 0.49113 0.46542 0.5289 0.0
C743 C 0.56148 0.45387 0.50692 0.0
C744 C 0.56047 0.53416 0.50167 0.0
H745 H 0.53009 0.35826 0.52391 0.0
H746 H 0.58839 0.41623 0.50041 0.0
S747 S 0.47316 0.67921 0.52078 0.0
N748 N 0.45671 0.59541 0.53159 0.0
N749 N 0.52015 0.65855 0.50673 0.0
C750 C 0.5244 0.58022 0.5104 0.0
C751 C 0.48983 0.5459 0.5239 0.0
C752 C 0.17575 0.84618 0.38129 0.0
C753 C 0.13699 0.80218 0.37715 0.0
C754 C 0.17621 0.91641 0.39651 0.0
C755 C 0.13711 0.95328 0.4048 0.0
H756 H 0.20596 0.82684 0.37263 0.0
H757 H 0.20745 0.94116 0.40188 0.0
S758 S 0.02518 0.86446 0.39817 0.0
N759 N 0.058 0.79855 0.38423 0.0
N760 N 0.05749 0.93811 0.40787 0.0
C761 C 0.09751 0.91119 0.39996 0.0
C762 C 0.09771 0.83515 0.38695 0.0
C763 C 0.13493 0.38618 0.41932 0.0
C764 C 0.1259 0.31253 0.40716 0.0
C765 C 0.13702 0.45483 0.40635 0.0
C766 C 0.12972 0.45231 0.38084 0.0
H767 H 0.14462 0.38967 0.43842 0.0
H768 H 0.14744 0.50928 0.41613 0.0
S769 S 0.09749 0.27533 0.34153 0.0
N770 N 0.104 0.24209 0.36903 0.0
N771 N 0.10744 0.37147 0.34464 0.0
C772 C 0.11612 0.38037 0.36902 0.0
C773 C 0.11446 0.31026 0.38221 0.0
C774 C 0.17352 0.33987 0.86816 0.0
C775 C 0.1627 0.27049 0.87958 0.0
C776 C 0.17531 0.41347 0.88151 0.0
C777 C 0.17092 0.41959 0.90711 0.0
H778 H 0.17694 0.33828 0.84842 0.0
H779 H 0.17693 0.4659 0.87139 0.0
S780 S 0.13748 0.25702 0.94536 0.0
N781 N 0.14096 0.2144 0.9174 0.0
N782 N 0.15207 0.35031 0.94313 0.0
C783 C 0.16088 0.35013 0.91879 0.0
C784 C 0.15522 0.2762 0.90491 0.0
C785 C 0.13372 0.82809 0.90417 0.0
C786 C 0.16451 0.76801 0.89756 0.0
C787 C 0.12995 0.896 0.89063 0.0
C788 C 0.15619 0.90482 0.86984 0.0
H789 H 0.11442 0.82507 0.9207 0.0
H790 H 0.10865 0.94388 0.89736 0.0
S791 S 0.2374 0.76206 0.84276 0.0
N792 N 0.2189 0.72098 0.86724 0.0
N793 N 0.21037 0.84625 0.84188 0.0
C794 C 0.18438 0.84309 0.86203 0.0
C795 C 0.18892 0.77527 0.87586 0.0
C796 C 0.85924 0.16428 0.64695 0.0
C797 C 0.89622 0.19272 0.66016 0.0
C798 C 0.86046 0.09339 0.63202 0.0
C799 C 0.89701 0.04267 0.63203 0.0
H800 H 0.82928 0.19654 0.6478 0.0
H801 H 0.83297 0.07945 0.62001 0.0
S802 S 0.99816 0.07561 0.66935 0.0
N803 N 0.96872 0.15643 0.67515 0.0
N804 N 0.96853 0.01918 0.64995 0.0
C805 C 0.93244 0.06547 0.64743 0.0
C806 C 0.93248 0.1404 0.66109 0.0
C807 C 0.89373 0.63499 0.67273 0.0
C808 C 0.9092 0.56256 0.66229 0.0
C809 C 0.89108 0.70151 0.6589 0.0
C810 C 0.90412 0.69847 0.63412 0.0
H811 H 0.8799 0.63846 0.69102 0.0
H812 H 0.87603 0.75425 0.66737 0.0
S813 S 0.95189 0.52429 0.59922 0.0
N814 N 0.94143 0.49255 0.62654 0.0
N815 N 0.93719 0.61852 0.60054 0.0
C816 C 0.92325 0.62812 0.62411 0.0
C817 C 0.92548 0.55982 0.6382 0.0
C818 C 0.85985 0.59946 0.12794 0.0
C819 C 0.89857 0.55719 0.12195 0.0
C820 C 0.86046 0.66937 0.14339 0.0
C821 C 0.90002 0.70791 0.15009 0.0
H822 H 0.82883 0.57894 0.12062 0.0
H823 H 0.8297 0.69241 0.15027 0.0
S824 S 1.01219 0.62776 0.13658 0.0
N825 N 0.97859 0.55967 0.12444 0.0
N826 N 0.98004 0.69866 0.14837 0.0
C827 C 0.93944 0.66882 0.14278 0.0
C828 C 0.93867 0.59302 0.12959 0.0
C829 C 0.89917 0.13994 0.1657 0.0
C830 C 0.91013 0.06659 0.15393 0.0
C831 C 0.89582 0.20786 0.15246 0.0
C832 C 0.90364 0.20505 0.127 0.0
H833 H 0.88914 0.14347 0.18474 0.0
H834 H 0.8842 0.26187 0.16201 0.0
S835 S 0.93987 0.02885 0.08854 0.0
N836 N 0.93374 0.99625 0.11614 0.0
N837 N 0.92796 0.12431 0.09123 0.0
C838 C 0.91879 0.13358 0.11553 0.0
C839 C 0.92177 0.06414 0.12902 0.0
C840 C 0.67284 0.83654 0.88475 0.0
C841 C 0.63406 0.79565 0.87793 0.0
C842 C 0.67201 0.9065 0.90014 0.0
C843 C 0.63248 0.94649 0.9059 0.0
H844 H 0.70408 0.81508 0.87807 0.0
H845 H 0.70256 0.92867 0.90766 0.0
S846 S 0.52036 0.87011 0.89023 0.0
N847 N 0.55391 0.80077 0.87886 0.0
N848 N 0.55257 0.94002 0.90259 0.0
C849 C 0.59313 0.90869 0.89787 0.0
C850 C 0.59388 0.83278 0.88478 0.0
C851 C 0.62849 0.37686 0.91824 0.0
C852 C 0.62318 0.30239 0.90584 0.0
C853 C 0.63037 0.44555 0.90529 0.0
C854 C 0.62656 0.44222 0.87954 0.0
H855 H 0.63526 0.38142 0.93773 0.0
H856 H 0.63794 0.50097 0.91539 0.0
S857 S 0.60436 0.26243 0.83922 0.0
N858 N 0.6081 0.22992 0.86697 0.0
N859 N 0.61144 0.35935 0.84261 0.0
C860 C 0.61666 0.36906 0.86728 0.0
C861 C 0.61518 0.29892 0.88046 0.0
C862 C 0.6897 0.34185 0.38403 0.0
C863 C 0.65078 0.3063 0.37492 0.0
C864 C 0.68912 0.41242 0.39912 0.0
C865 C 0.6505 0.45732 0.40265 0.0
H866 H 0.72081 0.3155 0.37964 0.0
H867 H 0.719 0.43074 0.40842 0.0
S868 S 0.54048 0.40323 0.37701 0.0
N869 N 0.57226 0.32767 0.36839 0.0
N870 N 0.57285 0.46646 0.39251 0.0
C871 C 0.61192 0.42721 0.39123 0.0
C872 C 0.61171 0.35146 0.37805 0.0
C873 C 0.65248 0.8835 0.41789 0.0
C874 C 0.64133 0.80979 0.40649 0.0
C875 C 0.65447 0.9509 0.40442 0.0
C876 C 0.64506 0.94716 0.37913 0.0
H877 H 0.66348 0.88785 0.43678 0.0
H878 H 0.66627 0.00523 0.41365 0.0
S879 S 0.60761 0.76952 0.34177 0.0
N880 N 0.6157 0.73782 0.36935 0.0
N881 N 0.61914 0.86518 0.34396 0.0
C882 C 0.62979 0.8752 0.36808 0.0
C883 C 0.62816 0.80619 0.3818 0.0
C884 C 0.35627 0.16248 0.15336 0.0
C885 C 0.39521 0.20676 0.15632 0.0
C886 C 0.35469 0.09212 0.13824 0.0
C887 C 0.39307 0.05584 0.12873 0.0
H888 H 0.3269 0.1813 0.16304 0.0
H889 H 0.32323 0.06657 0.13407 0.0
S890 S 0.50395 0.1504 0.12956 0.0
N891 N 0.47249 0.21444 0.14532 0.0
N892 N 0.47148 0.07532 0.1214 0.0
C893 C 0.43252 0.10005 0.13144 0.0
C894 C 0.4332 0.17589 0.14452 0.0
C895 C 0.39808 0.63246 0.17131 0.0
C896 C 0.40558 0.55851 0.15903 0.0
C897 C 0.3955 0.7009 0.15833 0.0
C898 C 0.4007 0.69778 0.13268 0.0
H899 H 0.39016 0.63648 0.19065 0.0
H900 H 0.38633 0.75573 0.16829 0.0
S901 S 0.42864 0.5197 0.09283 0.0
N902 N 0.42412 0.48695 0.12051 0.0
N903 N 0.41945 0.61608 0.09605 0.0
C904 C 0.41275 0.62541 0.1206 0.0
C905 C 0.41498 0.55546 0.13383 0.0
C906 C 0.363 0.65513 0.64526 0.0
C907 C 0.40208 0.69621 0.65128 0.0
C908 C 0.36316 0.58455 0.63021 0.0
C909 C 0.40243 0.54445 0.62405 0.0
H910 H 0.33203 0.67693 0.65231 0.0
H911 H 0.33231 0.56204 0.62329 0.0
S912 S 0.51521 0.62331 0.63675 0.0
N913 N 0.48207 0.69259 0.64857 0.0
N914 N 0.48257 0.55232 0.62548 0.0
C915 C 0.44217 0.58314 0.63099 0.0
C916 C 0.44194 0.65957 0.64372 0.0
C917 C 0.40361 0.19367 0.65104 0.0
C918 C 0.40915 0.19051 0.6254 0.0
C919 C 0.40492 0.12497 0.66396 0.0
C920 C 0.41132 0.05075 0.65162 0.0
H921 H 0.39516 0.24889 0.661 0.0
H922 H 0.39677 0.12923 0.68328 0.0
S923 S 0.43494 0.01156 0.58549 0.0
N924 N 0.42724 0.10834 0.58878 0.0
N925 N 0.4294 0.97874 0.6131 0.0
C926 C 0.42113 0.04755 0.62646 0.0
C927 C 0.42026 0.11771 0.61331 0.0
loop_
_geom_bond_atom_site_label_1
_geom_bond_atom_site_label_2
_geom_bond_distance
_geom_bond_site_symmetry_2
_ccdc_geom_bond_type
Mn0 O5 2.095 . S
Mn0 O15 2.162 . S
Mn0 O16 2.297 . S
Mn0 O24 2.385 . S
Mn0 O25 2.209 . S
Mn0 O26 2.094 . S
Mn1 O6 2.121 . S
Mn1 N8 2.257 . S
Mn1 N17 2.282 . S
Mn1 O25 2.215 . S
Mn1 O27 2.117 . S
C2 O24 1.234 . S
C2 O25 1.283 . S
C3 O15 1.281 . S
C3 O16 1.236 . S
C4 O26 1.240 . S
C4 O27 1.264 . S
O5 Mn0 2.095 . S
O5 C14 1.250 . S
O6 Mn1 2.121 . S
O6 C14 1.258 . S
C7 N8 1.326 . S
C7 C11 1.460 1_545 S
C7 H13 0.929 . S
N8 Mn1 2.257 . S
N8 C7 1.326 . S
N8 C12 1.362 1_545 S
C9 C10 1.258 . S
C9 C12 1.431 . S
C9 C29 1.449 . S
C10 C9 1.258 . S
C10 C11 1.477 . S
C10 H30 0.931 . S
C11 C7 1.460 1_565 S
C11 C10 1.477 . S
C11 H31 0.930 . S
C12 N8 1.362 1_565 S
C12 C9 1.431 . S
C12 C22 1.476 1_565 S
H13 C7 0.929 . S
C14 O5 1.250 . S
C14 O6 1.258 . S
O15 Mn0 2.162 . S
O15 C3 1.281 . S
O16 Mn0 2.297 . S
O16 C3 1.236 . S
N17 Mn1 2.282 . S
N17 C18 1.328 . S
N17 C22 1.318 . S
C18 N17 1.328 . S
C18 C19 1.457 . S
C18 H23 0.929 . S
C19 C18 1.457 . S
C19 C20 1.291 1_545 S
C19 H32 0.931 . S
C20 C19 1.291 1_565 S
C20 C21 1.373 . S
C20 H33 0.929 . S
C21 C20 1.373 . S
C21 C22 1.396 1_565 S
C21 C28 1.403 . S
C22 C12 1.476 1_545 S
C22 N17 1.318 . S
C22 C21 1.396 1_545 S
H23 C18 0.929 . S
O24 Mn0 2.385 . S
O24 C2 1.234 . S
O25 Mn0 2.209 . S
O25 Mn1 2.215 . S
O25 C2 1.283 . S
O26 Mn0 2.094 . S
O26 C4 1.240 . S
O27 Mn1 2.117 . S
O27 C4 1.264 . S
C28 C21 1.403 . S
C28 C29 1.399 . S
C28 H34 0.929 . S
C29 C9 1.449 . S
C29 C28 1.399 . S
C29 H35 0.930 . S
H30 C10 0.931 . S
H31 C11 0.930 . S
H32 C19 0.931 . S
H33 C20 0.929 . S
H34 C28 0.929 . S
H35 C29 0.930 . S
Mn36 O41 2.095 . S
Mn36 O51 2.162 . S
Mn36 O52 2.297 . S
Mn36 O60 2.385 . S
Mn36 O61 2.209 . S
Mn36 O62 2.094 . S
Mn37 O42 2.121 . S
Mn37 N44 2.257 . S
Mn37 N53 2.282 . S
Mn37 O61 2.215 . S
Mn37 O63 2.117 . S
C38 O60 1.234 . S
C38 O61 1.283 . S
C39 O51 1.281 . S
C39 O52 1.236 . S
C40 O62 1.240 1_565 S
C40 O63 1.264 1_565 S
O41 Mn36 2.095 . S
O41 C50 1.250 . S
O42 Mn37 2.121 . S
O42 C50 1.258 . S
C43 N44 1.326 . S
C43 C47 1.460 . S
C43 H49 0.929 . S
N44 Mn37 2.257 . S
N44 C43 1.326 . S
N44 C48 1.362 . S
C45 C46 1.258 . S
C45 C48 1.431 . S
C45 C65 1.449 . S
C46 C45 1.258 . S
C46 C47 1.477 . S
C46 H66 0.931 . S
C47 C43 1.460 . S
C47 C46 1.477 . S
C47 H67 0.930 . S
C48 N44 1.362 . S
C48 C45 1.431 . S
C48 C58 1.476 . S
H49 C43 0.929 . S
C50 O41 1.250 . S
C50 O42 1.258 . S
O51 Mn36 2.162 . S
O51 C39 1.281 . S
O52 Mn36 2.297 . S
O52 C39 1.236 . S
N53 Mn37 2.282 . S
N53 C54 1.328 . S
N53 C58 1.318 . S
C54 N53 1.328 . S
C54 C55 1.457 . S
C54 H59 0.929 . S
C55 C54 1.457 . S
C55 C56 1.291 . S
C55 H68 0.931 . S
C56 C55 1.291 . S
C56 C57 1.373 . S
C56 H69 0.929 . S
C57 C56 1.373 . S
C57 C58 1.396 . S
C57 C64 1.403 . S
C58 C48 1.476 . S
C58 N53 1.318 . S
C58 C57 1.396 . S
H59 C54 0.929 . S
O60 Mn36 2.385 . S
O60 C38 1.234 . S
O61 Mn36 2.209 . S
O61 Mn37 2.215 . S
O61 C38 1.283 . S
O62 Mn36 2.094 . S
O62 C40 1.240 1_545 S
O63 Mn37 2.117 . S
O63 C40 1.264 1_545 S
C64 C57 1.403 . S
C64 C65 1.399 . S
C64 H70 0.929 . S
C65 C45 1.449 . S
C65 C64 1.399 . S
C65 H71 0.930 . S
H66 C46 0.931 . S
H67 C47 0.930 . S
H68 C55 0.931 . S
H69 C56 0.929 . S
H70 C64 0.929 . S
H71 C65 0.930 . S
Mn72 O77 2.095 . S
Mn72 O87 2.162 . S
Mn72 O88 2.297 . S
Mn72 O96 2.385 . S
Mn72 O97 2.209 . S
Mn72 O98 2.094 . S
Mn73 O78 2.121 . S
Mn73 N80 2.257 . S
Mn73 N89 2.282 . S
Mn73 O97 2.215 . S
Mn73 O99 2.117 . S
C74 O96 1.234 . S
C74 O97 1.283 . S
C75 O87 1.281 . S
C75 O88 1.236 . S
C76 O98 1.240 . S
C76 O99 1.264 . S
O77 Mn72 2.095 . S
O77 C86 1.250 . S
O78 Mn73 2.121 . S
O78 C86 1.258 . S
C79 N80 1.326 . S
C79 C83 1.460 1_565 S
C79 H85 0.929 . S
N80 Mn73 2.257 . S
N80 C79 1.326 . S
N80 C84 1.362 1_565 S
C81 C82 1.258 . S
C81 C84 1.431 . S
C81 C101 1.449 . S
C82 C81 1.258 . S
C82 C83 1.477 . S
C82 H102 0.931 . S
C83 C79 1.460 1_545 S
C83 C82 1.477 . S
C83 H103 0.930 . S
C84 N80 1.362 1_545 S
C84 C81 1.431 . S
C84 C94 1.476 1_545 S
H85 C79 0.929 . S
C86 O77 1.250 . S
C86 O78 1.258 . S
O87 Mn72 2.162 . S
O87 C75 1.281 . S
O88 Mn72 2.297 . S
O88 C75 1.236 . S
N89 Mn73 2.282 . S
N89 C90 1.328 . S
N89 C94 1.318 . S
C90 N89 1.328 . S
C90 C91 1.457 . S
C90 H95 0.929 . S
C91 C90 1.457 . S
C91 C92 1.291 1_565 S
C91 H104 0.931 . S
C92 C91 1.291 1_545 S
C92 C93 1.373 . S
C92 H105 0.929 . S
C93 C92 1.373 . S
C93 C94 1.396 1_545 S
C93 C100 1.403 . S
C94 C84 1.476 1_565 S
C94 N89 1.318 . S
C94 C93 1.396 1_565 S
H95 C90 0.929 . S
O96 Mn72 2.385 . S
O96 C74 1.234 . S
O97 Mn72 2.209 . S
O97 Mn73 2.215 . S
O97 C74 1.283 . S
O98 Mn72 2.094 . S
O98 C76 1.240 . S
O99 Mn73 2.117 . S
O99 C76 1.264 . S
C100 C93 1.403 . S
C100 C101 1.399 . S
C100 H106 0.929 . S
C101 C81 1.449 . S
C101 C100 1.399 . S
C101 H107 0.930 . S
H102 C82 0.931 . S
H103 C83 0.930 . S
H104 C91 0.931 . S
H105 C92 0.929 . S
H106 C100 0.929 . S
H107 C101 0.930 . S
Mn108 O113 2.095 . S
Mn108 O123 2.162 . S
Mn108 O124 2.297 . S
Mn108 O132 2.385 . S
Mn108 O133 2.209 . S
Mn108 O134 2.094 . S
Mn109 O114 2.121 . S
Mn109 N116 2.257 . S
Mn109 N125 2.282 . S
Mn109 O133 2.215 . S
Mn109 O135 2.117 . S
C110 O132 1.234 . S
C110 O133 1.283 . S
C111 O123 1.281 . S
C111 O124 1.236 . S
C112 O134 1.240 1_545 S
C112 O135 1.264 1_545 S
O113 Mn108 2.095 . S
O113 C122 1.250 . S
O114 Mn109 2.121 . S
O114 C122 1.258 . S
C115 N116 1.326 . S
C115 C119 1.460 . S
C115 H121 0.929 . S
N116 Mn109 2.257 . S
N116 C115 1.326 . S
N116 C120 1.362 . S
C117 C118 1.258 . S
C117 C120 1.431 . S
C117 C137 1.449 . S
C118 C117 1.258 . S
C118 C119 1.477 . S
C118 H138 0.931 . S
C119 C115 1.460 . S
C119 C118 1.477 . S
C119 H139 0.930 . S
C120 N116 1.362 . S
C120 C117 1.431 . S
C120 C130 1.476 . S
H121 C115 0.929 . S
C122 O113 1.250 . S
C122 O114 1.258 . S
O123 Mn108 2.162 . S
O123 C111 1.281 . S
O124 Mn108 2.297 . S
O124 C111 1.236 . S
N125 Mn109 2.282 . S
N125 C126 1.328 . S
N125 C130 1.318 . S
C126 N125 1.328 . S
C126 C127 1.457 . S
C126 H131 0.929 . S
C127 C126 1.457 . S
C127 C128 1.291 . S
C127 H140 0.931 . S
C128 C127 1.291 . S
C128 C129 1.373 . S
C128 H141 0.929 . S
C129 C128 1.373 . S
C129 C130 1.396 . S
C129 C136 1.403 . S
C130 C120 1.476 . S
C130 N125 1.318 . S
C130 C129 1.396 . S
H131 C126 0.929 . S
O132 Mn108 2.385 . S
O132 C110 1.234 . S
O133 Mn108 2.209 . S
O133 Mn109 2.215 . S
O133 C110 1.283 . S
O134 Mn108 2.094 . S
O134 C112 1.240 1_565 S
O135 Mn109 2.117 . S
O135 C112 1.264 1_565 S
C136 C129 1.403 . S
C136 C137 1.399 . S
C136 H142 0.929 . S
C137 C117 1.449 . S
C137 C136 1.399 . S
C137 H143 0.930 . S
H138 C118 0.931 . S
H139 C119 0.930 . S
H140 C127 0.931 . S
H141 C128 0.929 . S
H142 C136 0.929 . S
H143 C137 0.930 . S
Mn144 O149 2.095 . S
Mn144 O159 2.162 . S
Mn144 O160 2.297 . S
Mn144 O168 2.385 . S
Mn144 O169 2.209 . S
Mn144 O170 2.094 . S
Mn145 O150 2.121 . S
Mn145 N152 2.257 . S
Mn145 N161 2.282 . S
Mn145 O169 2.215 . S
Mn145 O171 2.117 . S
C146 O168 1.234 . S
C146 O169 1.283 . S
C147 O159 1.281 . S
C147 O160 1.236 . S
C148 O170 1.240 . S
C148 O171 1.264 . S
O149 Mn144 2.095 . S
O149 C158 1.250 . S
O150 Mn145 2.121 . S
O150 C158 1.258 . S
C151 N152 1.326 . S
C151 C155 1.460 . S
C151 H157 0.929 . S
N152 Mn145 2.257 . S
N152 C151 1.326 . S
N152 C156 1.362 . S
C153 C154 1.258 . S
C153 C156 1.431 . S
C153 C173 1.449 . S
C154 C153 1.258 . S
C154 C155 1.477 . S
C154 H174 0.931 . S
C155 C151 1.460 . S
C155 C154 1.477 . S
C155 H175 0.930 . S
C156 N152 1.362 . S
C156 C153 1.431 . S
C156 C166 1.476 . S
H157 C151 0.929 . S
C158 O149 1.250 . S
C158 O150 1.258 . S
O159 Mn144 2.162 . S
O159 C147 1.281 . S
O160 Mn144 2.297 . S
O160 C147 1.236 . S
N161 Mn145 2.282 . S
N161 C162 1.328 . S
N161 C166 1.318 . S
C162 N161 1.328 . S
C162 C163 1.457 . S
C162 H167 0.929 . S
C163 C162 1.457 . S
C163 C164 1.291 . S
C163 H176 0.931 . S
C164 C163 1.291 . S
C164 C165 1.373 . S
C164 H177 0.929 . S
C165 C164 1.373 . S
C165 C166 1.396 . S
C165 C172 1.403 . S
C166 C156 1.476 . S
C166 N161 1.318 . S
C166 C165 1.396 . S
H167 C162 0.929 . S
O168 Mn144 2.385 . S
O168 C146 1.234 . S
O169 Mn144 2.209 . S
O169 Mn145 2.215 . S
O169 C146 1.283 . S
O170 Mn144 2.094 . S
O170 C148 1.240 . S
O171 Mn145 2.117 . S
O171 C148 1.264 . S
C172 C165 1.403 . S
C172 C173 1.399 . S
C172 H178 0.929 . S
C173 C153 1.449 . S
C173 C172 1.399 . S
C173 H179 0.930 . S
H174 C154 0.931 . S
H175 C155 0.930 . S
H176 C163 0.931 . S
H177 C164 0.929 . S
H178 C172 0.929 . S
H179 C173 0.930 . S
Mn180 O185 2.095 . S
Mn180 O195 2.162 . S
Mn180 O196 2.297 . S
Mn180 O204 2.385 . S
Mn180 O205 2.209 . S
Mn180 O206 2.094 . S
Mn181 O186 2.121 . S
Mn181 N188 2.257 . S
Mn181 N197 2.282 . S
Mn181 O205 2.215 . S
Mn181 O207 2.117 . S
C182 O204 1.234 . S
C182 O205 1.283 . S
C183 O195 1.281 . S
C183 O196 1.236 . S
C184 O206 1.240 . S
C184 O207 1.264 . S
O185 Mn180 2.095 . S
O185 C194 1.250 . S
O186 Mn181 2.121 . S
O186 C194 1.258 . S
C187 N188 1.326 . S
C187 C191 1.460 . S
C187 H193 0.929 . S
N188 Mn181 2.257 . S
N188 C187 1.326 . S
N188 C192 1.362 . S
C189 C190 1.258 . S
C189 C192 1.431 . S
C189 C209 1.449 . S
C190 C189 1.258 . S
C190 C191 1.477 . S
C190 H210 0.931 . S
C191 C187 1.460 . S
C191 C190 1.477 . S
C191 H211 0.930 . S
C192 N188 1.362 . S
C192 C189 1.431 . S
C192 C202 1.476 . S
H193 C187 0.929 . S
C194 O185 1.250 . S
C194 O186 1.258 . S
O195 Mn180 2.162 . S
O195 C183 1.281 . S
O196 Mn180 2.297 . S
O196 C183 1.236 . S
N197 Mn181 2.282 . S
N197 C198 1.328 . S
N197 C202 1.318 . S
C198 N197 1.328 . S
C198 C199 1.457 . S
C198 H203 0.929 . S
C199 C198 1.457 . S
C199 C200 1.291 . S
C199 H212 0.931 . S
C200 C199 1.291 . S
C200 C201 1.373 . S
C200 H213 0.929 . S
C201 C200 1.373 . S
C201 C202 1.396 . S
C201 C208 1.403 . S
C202 C192 1.476 . S
C202 N197 1.318 . S
C202 C201 1.396 . S
H203 C198 0.929 . S
O204 Mn180 2.385 . S
O204 C182 1.234 . S
O205 Mn180 2.209 . S
O205 Mn181 2.215 . S
O205 C182 1.283 . S
O206 Mn180 2.094 . S
O206 C184 1.240 . S
O207 Mn181 2.117 . S
O207 C184 1.264 . S
C208 C201 1.403 . S
C208 C209 1.399 . S
C208 H214 0.929 . S
C209 C189 1.449 . S
C209 C208 1.399 . S
C209 H215 0.930 . S
H210 C190 0.931 . S
H211 C191 0.930 . S
H212 C199 0.931 . S
H213 C200 0.929 . S
H214 C208 0.929 . S
H215 C209 0.930 . S
Mn216 O221 2.095 . S
Mn216 O231 2.162 . S
Mn216 O232 2.297 . S
Mn216 O240 2.385 . S
Mn216 O241 2.209 . S
Mn216 O242 2.094 . S
Mn217 O222 2.121 . S
Mn217 N224 2.257 . S
Mn217 N233 2.282 . S
Mn217 O241 2.215 . S
Mn217 O243 2.117 . S
C218 O240 1.234 . S
C218 O241 1.283 . S
C219 O231 1.281 . S
C219 O232 1.236 . S
C220 O242 1.240 . S
C220 O243 1.264 . S
O221 Mn216 2.095 . S
O221 C230 1.250 . S
O222 Mn217 2.121 . S
O222 C230 1.258 . S
C223 N224 1.326 . S
C223 C227 1.460 . S
C223 H229 0.929 . S
N224 Mn217 2.257 . S
N224 C223 1.326 . S
N224 C228 1.362 . S
C225 C226 1.258 . S
C225 C228 1.431 . S
C225 C245 1.449 . S
C226 C225 1.258 . S
C226 C227 1.477 . S
C226 H246 0.931 . S
C227 C223 1.460 . S
C227 C226 1.477 . S
C227 H247 0.930 . S
C228 N224 1.362 . S
C228 C225 1.431 . S
C228 C238 1.476 . S
H229 C223 0.929 . S
C230 O221 1.250 . S
C230 O222 1.258 . S
O231 Mn216 2.162 . S
O231 C219 1.281 . S
O232 Mn216 2.297 . S
O232 C219 1.236 . S
N233 Mn217 2.282 . S
N233 C234 1.328 . S
N233 C238 1.318 . S
C234 N233 1.328 . S
C234 C235 1.457 . S
C234 H239 0.929 . S
C235 C234 1.457 . S
C235 C236 1.291 . S
C235 H248 0.931 . S
C236 C235 1.291 . S
C236 C237 1.373 . S
C236 H249 0.929 . S
C237 C236 1.373 . S
C237 C238 1.396 . S
C237 C244 1.403 . S
C238 C228 1.476 . S
C238 N233 1.318 . S
C238 C237 1.396 . S
H239 C234 0.929 . S
O240 Mn216 2.385 . S
O240 C218 1.234 . S
O241 Mn216 2.209 . S
O241 Mn217 2.215 . S
O241 C218 1.283 . S
O242 Mn216 2.094 . S
O242 C220 1.240 . S
O243 Mn217 2.117 . S
O243 C220 1.264 . S
C244 C237 1.403 . S
C244 C245 1.399 . S
C244 H250 0.929 . S
C245 C225 1.449 . S
C245 C244 1.399 . S
C245 H251 0.930 . S
H246 C226 0.931 . S
H247 C227 0.930 . S
H248 C235 0.931 . S
H249 C236 0.929 . S
H250 C244 0.929 . S
H251 C245 0.930 . S
Mn252 O257 2.095 . S
Mn252 O267 2.162 . S
Mn252 O268 2.297 . S
Mn252 O276 2.385 . S
Mn252 O277 2.209 . S
Mn252 O278 2.094 . S
Mn253 O258 2.121 . S
Mn253 N260 2.257 . S
Mn253 N269 2.282 . S
Mn253 O277 2.215 . S
Mn253 O279 2.117 . S
C254 O276 1.234 . S
C254 O277 1.283 . S
C255 O267 1.281 . S
C255 O268 1.236 . S
C256 O278 1.240 . S
C256 O279 1.264 . S
O257 Mn252 2.095 . S
O257 C266 1.250 . S
O258 Mn253 2.121 . S
O258 C266 1.258 . S
C259 N260 1.326 . S
C259 C263 1.460 . S
C259 H265 0.929 . S
N260 Mn253 2.257 . S
N260 C259 1.326 . S
N260 C264 1.362 . S
C261 C262 1.258 . S
C261 C264 1.431 . S
C261 C281 1.449 . S
C262 C261 1.258 . S
C262 C263 1.477 . S
C262 H282 0.931 . S
C263 C259 1.460 . S
C263 C262 1.477 . S
C263 H283 0.930 . S
C264 N260 1.362 . S
C264 C261 1.431 . S
C264 C274 1.476 . S
H265 C259 0.929 . S
C266 O257 1.250 . S
C266 O258 1.258 . S
O267 Mn252 2.162 . S
O267 C255 1.281 . S
O268 Mn252 2.297 . S
O268 C255 1.236 . S
N269 Mn253 2.282 . S
N269 C270 1.328 . S
N269 C274 1.318 . S
C270 N269 1.328 . S
C270 C271 1.457 . S
C270 H275 0.929 . S
C271 C270 1.457 . S
C271 C272 1.291 . S
C271 H284 0.931 . S
C272 C271 1.291 . S
C272 C273 1.373 . S
C272 H285 0.929 . S
C273 C272 1.373 . S
C273 C274 1.396 . S
C273 C280 1.403 . S
C274 C264 1.476 . S
C274 N269 1.318 . S
C274 C273 1.396 . S
H275 C270 0.929 . S
O276 Mn252 2.385 . S
O276 C254 1.234 . S
O277 Mn252 2.209 . S
O277 Mn253 2.215 . S
O277 C254 1.283 . S
O278 Mn252 2.094 . S
O278 C256 1.240 . S
O279 Mn253 2.117 . S
O279 C256 1.264 . S
C280 C273 1.403 . S
C280 C281 1.399 . S
C280 H286 0.929 . S
C281 C261 1.449 . S
C281 C280 1.399 . S
C281 H287 0.930 . S
H282 C262 0.931 . S
H283 C263 0.930 . S
H284 C271 0.931 . S
H285 C272 0.929 . S
H286 C280 0.929 . S
H287 C281 0.930 . S
Mn288 O293 2.095 . S
Mn288 O303 2.162 . S
Mn288 O304 2.297 . S
Mn288 O312 2.385 . S
Mn288 O313 2.209 . S
Mn288 O314 2.094 . S
Mn289 O294 2.121 . S
Mn289 N296 2.257 . S
Mn289 N305 2.282 . S
Mn289 O313 2.215 . S
Mn289 O315 2.117 . S
C290 O312 1.234 . S
C290 O313 1.283 . S
C291 O303 1.281 . S
C291 O304 1.236 . S
C292 O314 1.240 . S
C292 O315 1.264 . S
O293 Mn288 2.095 . S
O293 C302 1.250 . S
O294 Mn289 2.121 . S
O294 C302 1.258 . S
C295 N296 1.326 . S
C295 C299 1.460 1_545 S
C295 H301 0.929 . S
N296 Mn289 2.257 . S
N296 C295 1.326 . S
N296 C300 1.362 1_545 S
C297 C298 1.258 . S
C297 C300 1.431 . S
C297 C317 1.449 . S
C298 C297 1.258 . S
C298 C299 1.477 . S
C298 H318 0.931 . S
C299 C295 1.460 1_565 S
C299 C298 1.477 . S
C299 H319 0.930 . S
C300 N296 1.362 1_565 S
C300 C297 1.431 . S
C300 C310 1.476 1_565 S
H301 C295 0.929 . S
C302 O293 1.250 . S
C302 O294 1.258 . S
O303 Mn288 2.162 . S
O303 C291 1.281 . S
O304 Mn288 2.297 . S
O304 C291 1.236 . S
N305 Mn289 2.282 . S
N305 C306 1.328 . S
N305 C310 1.318 . S
C306 N305 1.328 . S
C306 C307 1.457 . S
C306 H311 0.929 . S
C307 C306 1.457 . S
C307 C308 1.291 1_545 S
C307 H320 0.931 . S
C308 C307 1.291 1_565 S
C308 C309 1.373 . S
C308 H321 0.929 . S
C309 C308 1.373 . S
C309 C310 1.396 1_565 S
C309 C316 1.403 . S
C310 C300 1.476 1_545 S
C310 N305 1.318 . S
C310 C309 1.396 1_545 S
H311 C306 0.929 . S
O312 Mn288 2.385 . S
O312 C290 1.234 . S
O313 Mn288 2.209 . S
O313 Mn289 2.215 . S
O313 C290 1.283 . S
O314 Mn288 2.094 . S
O314 C292 1.240 . S
O315 Mn289 2.117 . S
O315 C292 1.264 . S
C316 C309 1.403 . S
C316 C317 1.399 . S
C316 H322 0.929 . S
C317 C297 1.449 . S
C317 C316 1.399 . S
C317 H323 0.930 . S
H318 C298 0.931 . S
H319 C299 0.930 . S
H320 C307 0.931 . S
H321 C308 0.929 . S
H322 C316 0.929 . S
H323 C317 0.930 . S
Mn324 O329 2.095 . S
Mn324 O339 2.162 . S
Mn324 O340 2.297 . S
Mn324 O348 2.385 . S
Mn324 O349 2.209 . S
Mn324 O350 2.094 . S
Mn325 O330 2.121 . S
Mn325 N332 2.257 . S
Mn325 N341 2.282 . S
Mn325 O349 2.215 . S
Mn325 O351 2.117 . S
C326 O348 1.234 . S
C326 O349 1.283 . S
C327 O339 1.281 . S
C327 O340 1.236 . S
C328 O350 1.240 1_565 S
C328 O351 1.264 1_565 S
O329 Mn324 2.095 . S
O329 C338 1.250 . S
O330 Mn325 2.121 . S
O330 C338 1.258 . S
C331 N332 1.326 . S
C331 C335 1.460 . S
C331 H337 0.929 . S
N332 Mn325 2.257 . S
N332 C331 1.326 . S
N332 C336 1.362 . S
C333 C334 1.258 . S
C333 C336 1.431 . S
C333 C353 1.449 . S
C334 C333 1.258 . S
C334 C335 1.477 . S
C334 H354 0.931 . S
C335 C331 1.460 . S
C335 C334 1.477 . S
C335 H355 0.930 . S
C336 N332 1.362 . S
C336 C333 1.431 . S
C336 C346 1.476 . S
H337 C331 0.929 . S
C338 O329 1.250 . S
C338 O330 1.258 . S
O339 Mn324 2.162 . S
O339 C327 1.281 . S
O340 Mn324 2.297 . S
O340 C327 1.236 . S
N341 Mn325 2.282 . S
N341 C342 1.328 . S
N341 C346 1.318 . S
C342 N341 1.328 . S
C342 C343 1.457 . S
C342 H347 0.929 . S
C343 C342 1.457 . S
C343 C344 1.291 . S
C343 H356 0.931 . S
C344 C343 1.291 . S
C344 C345 1.373 . S
C344 H357 0.929 . S
C345 C344 1.373 . S
C345 C346 1.396 . S
C345 C352 1.403 . S
C346 C336 1.476 . S
C346 N341 1.318 . S
C346 C345 1.396 . S
H347 C342 0.929 . S
O348 Mn324 2.385 . S
O348 C326 1.234 . S
O349 Mn324 2.209 . S
O349 Mn325 2.215 . S
O349 C326 1.283 . S
O350 Mn324 2.094 . S
O350 C328 1.240 1_545 S
O351 Mn325 2.117 . S
O351 C328 1.264 1_545 S
C352 C345 1.403 . S
C352 C353 1.399 . S
C352 H358 0.929 . S
C353 C333 1.449 . S
C353 C352 1.399 . S
C353 H359 0.930 . S
H354 C334 0.931 . S
H355 C335 0.930 . S
H356 C343 0.931 . S
H357 C344 0.929 . S
H358 C352 0.929 . S
H359 C353 0.930 . S
Mn360 O365 2.095 . S
Mn360 O375 2.162 . S
Mn360 O376 2.297 . S
Mn360 O384 2.385 . S
Mn360 O385 2.209 . S
Mn360 O386 2.094 . S
Mn361 O366 2.121 . S
Mn361 N368 2.257 . S
Mn361 N377 2.282 . S
Mn361 O385 2.215 . S
Mn361 O387 2.117 . S
C362 O384 1.234 . S
C362 O385 1.283 . S
C363 O375 1.281 . S
C363 O376 1.236 . S
C364 O386 1.240 . S
C364 O387 1.264 . S
O365 Mn360 2.095 . S
O365 C374 1.250 . S
O366 Mn361 2.121 . S
O366 C374 1.258 . S
C367 N368 1.326 . S
C367 C371 1.460 1_565 S
C367 H373 0.929 . S
N368 Mn361 2.257 . S
N368 C367 1.326 . S
N368 C372 1.362 1_565 S
C369 C370 1.258 . S
C369 C372 1.431 . S
C369 C389 1.449 . S
C370 C369 1.258 . S
C370 C371 1.477 . S
C370 H390 0.931 . S
C371 C367 1.460 1_545 S
C371 C370 1.477 . S
C371 H391 0.930 . S
C372 N368 1.362 1_545 S
C372 C369 1.431 . S
C372 C382 1.476 1_545 S
H373 C367 0.929 . S
C374 O365 1.250 . S
C374 O366 1.258 . S
O375 Mn360 2.162 . S
O375 C363 1.281 . S
O376 Mn360 2.297 . S
O376 C363 1.236 . S
N377 Mn361 2.282 . S
N377 C378 1.328 . S
N377 C382 1.318 . S
C378 N377 1.328 . S
C378 C379 1.457 . S
C378 H383 0.929 . S
C379 C378 1.457 . S
C379 C380 1.291 1_565 S
C379 H392 0.931 . S
C380 C379 1.291 1_545 S
C380 C381 1.373 . S
C380 H393 0.929 . S
C381 C380 1.373 . S
C381 C382 1.396 1_545 S
C381 C388 1.403 . S
C382 C372 1.476 1_565 S
C382 N377 1.318 . S
C382 C381 1.396 1_565 S
H383 C378 0.929 . S
O384 Mn360 2.385 . S
O384 C362 1.234 . S
O385 Mn360 2.209 . S
O385 Mn361 2.215 . S
O385 C362 1.283 . S
O386 Mn360 2.094 . S
O386 C364 1.240 . S
O387 Mn361 2.117 . S
O387 C364 1.264 . S
C388 C381 1.403 . S
C388 C389 1.399 . S
C388 H394 0.929 . S
C389 C369 1.449 . S
C389 C388 1.399 . S
C389 H395 0.930 . S
H390 C370 0.931 . S
H391 C371 0.930 . S
H392 C379 0.931 . S
H393 C380 0.929 . S
H394 C388 0.929 . S
H395 C389 0.930 . S
Mn396 O401 2.095 . S
Mn396 O411 2.162 . S
Mn396 O412 2.297 . S
Mn396 O420 2.385 . S
Mn396 O421 2.209 . S
Mn396 O422 2.094 . S
Mn397 O402 2.121 . S
Mn397 N404 2.257 . S
Mn397 N413 2.282 . S
Mn397 O421 2.215 . S
Mn397 O423 2.117 . S
C398 O420 1.234 . S
C398 O421 1.283 . S
C399 O411 1.281 . S
C399 O412 1.236 . S
C400 O422 1.240 1_545 S
C400 O423 1.264 1_545 S
O401 Mn396 2.095 . S
O401 C410 1.250 . S
O402 Mn397 2.121 . S
O402 C410 1.258 . S
C403 N404 1.326 . S
C403 C407 1.460 . S
C403 H409 0.929 . S
N404 Mn397 2.257 . S
N404 C403 1.326 . S
N404 C408 1.362 . S
C405 C406 1.258 . S
C405 C408 1.431 . S
C405 C425 1.449 . S
C406 C405 1.258 . S
C406 C407 1.477 . S
C406 H426 0.931 . S
C407 C403 1.460 . S
C407 C406 1.477 . S
C407 H427 0.930 . S
C408 N404 1.362 . S
C408 C405 1.431 . S
C408 C418 1.476 . S
H409 C403 0.929 . S
C410 O401 1.250 . S
C410 O402 1.258 . S
O411 Mn396 2.162 . S
O411 C399 1.281 . S
O412 Mn396 2.297 . S
O412 C399 1.236 . S
N413 Mn397 2.282 . S
N413 C414 1.328 . S
N413 C418 1.318 . S
C414 N413 1.328 . S
C414 C415 1.457 . S
C414 H419 0.929 . S
C415 C414 1.457 . S
C415 C416 1.291 . S
C415 H428 0.931 . S
C416 C415 1.291 . S
C416 C417 1.373 . S
C416 H429 0.929 . S
C417 C416 1.373 . S
C417 C418 1.396 . S
C417 C424 1.403 . S
C418 C408 1.476 . S
C418 N413 1.318 . S
C418 C417 1.396 . S
H419 C414 0.929 . S
O420 Mn396 2.385 . S
O420 C398 1.234 . S
O421 Mn396 2.209 . S
O421 Mn397 2.215 . S
O421 C398 1.283 . S
O422 Mn396 2.094 . S
O422 C400 1.240 1_565 S
O423 Mn397 2.117 . S
O423 C400 1.264 1_565 S
C424 C417 1.403 . S
C424 C425 1.399 . S
C424 H430 0.929 . S
C425 C405 1.449 . S
C425 C424 1.399 . S
C425 H431 0.930 . S
H426 C406 0.931 . S
H427 C407 0.930 . S
H428 C415 0.931 . S
H429 C416 0.929 . S
H430 C424 0.929 . S
H431 C425 0.930 . S
Mn432 O437 2.095 . S
Mn432 O447 2.162 . S
Mn432 O448 2.297 . S
Mn432 O456 2.385 . S
Mn432 O457 2.209 . S
Mn432 O458 2.094 . S
Mn433 O438 2.121 . S
Mn433 N440 2.257 . S
Mn433 N449 2.282 . S
Mn433 O457 2.215 . S
Mn433 O459 2.117 . S
C434 O456 1.234 . S
C434 O457 1.283 . S
C435 O447 1.281 . S
C435 O448 1.236 . S
C436 O458 1.240 . S
C436 O459 1.264 . S
O437 Mn432 2.095 . S
O437 C446 1.250 . S
O438 Mn433 2.121 . S
O438 C446 1.258 . S
C439 N440 1.326 . S
C439 C443 1.460 . S
C439 H445 0.929 . S
N440 Mn433 2.257 . S
N440 C439 1.326 . S
N440 C444 1.362 . S
C441 C442 1.258 . S
C441 C444 1.431 . S
C441 C461 1.449 . S
C442 C441 1.258 . S
C442 C443 1.477 . S
C442 H462 0.931 . S
C443 C439 1.460 . S
C443 C442 1.477 . S
C443 H463 0.930 . S
C444 N440 1.362 . S
C444 C441 1.431 . S
C444 C454 1.476 . S
H445 C439 0.929 . S
C446 O437 1.250 . S
C446 O438 1.258 . S
O447 Mn432 2.162 . S
O447 C435 1.281 . S
O448 Mn432 2.297 . S
O448 C435 1.236 . S
N449 Mn433 2.282 . S
N449 C450 1.328 . S
N449 C454 1.318 . S
C450 N449 1.328 . S
C450 C451 1.457 . S
C450 H455 0.929 . S
C451 C450 1.457 . S
C451 C452 1.291 . S
C451 H464 0.931 . S
C452 C451 1.291 . S
C452 C453 1.373 . S
C452 H465 0.929 . S
C453 C452 1.373 . S
C453 C454 1.396 . S
C453 C460 1.403 . S
C454 C444 1.476 . S
C454 N449 1.318 . S
C454 C453 1.396 . S
H455 C450 0.929 . S
O456 Mn432 2.385 . S
O456 C434 1.234 . S
O457 Mn432 2.209 . S
O457 Mn433 2.215 . S
O457 C434 1.283 . S
O458 Mn432 2.094 . S
O458 C436 1.240 . S
O459 Mn433 2.117 . S
O459 C436 1.264 . S
C460 C453 1.403 . S
C460 C461 1.399 . S
C460 H466 0.929 . S
C461 C441 1.449 . S
C461 C460 1.399 . S
C461 H467 0.930 . S
H462 C442 0.931 . S
H463 C443 0.930 . S
H464 C451 0.931 . S
H465 C452 0.929 . S
H466 C460 0.929 . S
H467 C461 0.930 . S
Mn468 O473 2.095 . S
Mn468 O483 2.162 . S
Mn468 O484 2.297 . S
Mn468 O492 2.385 . S
Mn468 O493 2.209 . S
Mn468 O494 2.094 . S
Mn469 O474 2.121 . S
Mn469 N476 2.257 . S
Mn469 N485 2.282 . S
Mn469 O493 2.215 . S
Mn469 O495 2.117 . S
C470 O492 1.234 . S
C470 O493 1.283 . S
C471 O483 1.281 . S
C471 O484 1.236 . S
C472 O494 1.240 . S
C472 O495 1.264 . S
O473 Mn468 2.095 . S
O473 C482 1.250 . S
O474 Mn469 2.121 . S
O474 C482 1.258 . S
C475 N476 1.326 . S
C475 C479 1.460 . S
C475 H481 0.929 . S
N476 Mn469 2.257 . S
N476 C475 1.326 . S
N476 C480 1.362 . S
C477 C478 1.258 . S
C477 C480 1.431 . S
C477 C497 1.449 . S
C478 C477 1.258 . S
C478 C479 1.477 . S
C478 H498 0.931 . S
C479 C475 1.460 . S
C479 C478 1.477 . S
C479 H499 0.930 . S
C480 N476 1.362 . S
C480 C477 1.431 . S
C480 C490 1.476 . S
H481 C475 0.929 . S
C482 O473 1.250 . S
C482 O474 1.258 . S
O483 Mn468 2.162 . S
O483 C471 1.281 . S
O484 Mn468 2.297 . S
O484 C471 1.236 . S
N485 Mn469 2.282 . S
N485 C486 1.328 . S
N485 C490 1.318 . S
C486 N485 1.328 . S
C486 C487 1.457 . S
C486 H491 0.929 . S
C487 C486 1.457 . S
C487 C488 1.291 . S
C487 H500 0.931 . S
C488 C487 1.291 . S
C488 C489 1.373 . S
C488 H501 0.929 . S
C489 C488 1.373 . S
C489 C490 1.396 . S
C489 C496 1.403 . S
C490 C480 1.476 . S
C490 N485 1.318 . S
C490 C489 1.396 . S
H491 C486 0.929 . S
O492 Mn468 2.385 . S
O492 C470 1.234 . S
O493 Mn468 2.209 . S
O493 Mn469 2.215 . S
O493 C470 1.283 . S
O494 Mn468 2.094 . S
O494 C472 1.240 . S
O495 Mn469 2.117 . S
O495 C472 1.264 . S
C496 C489 1.403 . S
C496 C497 1.399 . S
C496 H502 0.929 . S
C497 C477 1.449 . S
C497 C496 1.399 . S
C497 H503 0.930 . S
H498 C478 0.931 . S
H499 C479 0.930 . S
H500 C487 0.931 . S
H501 C488 0.929 . S
H502 C496 0.929 . S
H503 C497 0.930 . S
Mn504 O509 2.095 . S
Mn504 O519 2.162 . S
Mn504 O520 2.297 . S
Mn504 O528 2.385 . S
Mn504 O529 2.209 . S
Mn504 O530 2.094 . S
Mn505 O510 2.121 . S
Mn505 N512 2.257 . S
Mn505 N521 2.282 . S
Mn505 O529 2.215 . S
Mn505 O531 2.117 . S
C506 O528 1.234 . S
C506 O529 1.283 . S
C507 O519 1.281 . S
C507 O520 1.236 . S
C508 O530 1.240 . S
C508 O531 1.264 . S
O509 Mn504 2.095 . S
O509 C518 1.250 . S
O510 Mn505 2.121 . S
O510 C518 1.258 . S
C511 N512 1.326 . S
C511 C515 1.460 . S
C511 H517 0.929 . S
N512 Mn505 2.257 . S
N512 C511 1.326 . S
N512 C516 1.362 . S
C513 C514 1.258 . S
C513 C516 1.431 . S
C513 C533 1.449 . S
C514 C513 1.258 . S
C514 C515 1.477 . S
C514 H534 0.931 . S
C515 C511 1.460 . S
C515 C514 1.477 . S
C515 H535 0.930 . S
C516 N512 1.362 . S
C516 C513 1.431 . S
C516 C526 1.476 . S
H517 C511 0.929 . S
C518 O509 1.250 . S
C518 O510 1.258 . S
O519 Mn504 2.162 . S
O519 C507 1.281 . S
O520 Mn504 2.297 . S
O520 C507 1.236 . S
N521 Mn505 2.282 . S
N521 C522 1.328 . S
N521 C526 1.318 . S
C522 N521 1.328 . S
C522 C523 1.457 . S
C522 H527 0.929 . S
C523 C522 1.457 . S
C523 C524 1.291 . S
C523 H536 0.931 . S
C524 C523 1.291 . S
C524 C525 1.373 . S
C524 H537 0.929 . S
C525 C524 1.373 . S
C525 C526 1.396 . S
C525 C532 1.403 . S
C526 C516 1.476 . S
C526 N521 1.318 . S
C526 C525 1.396 . S
H527 C522 0.929 . S
O528 Mn504 2.385 . S
O528 C506 1.234 . S
O529 Mn504 2.209 . S
O529 Mn505 2.215 . S
O529 C506 1.283 . S
O530 Mn504 2.094 . S
O530 C508 1.240 . S
O531 Mn505 2.117 . S
O531 C508 1.264 . S
C532 C525 1.403 . S
C532 C533 1.399 . S
C532 H538 0.929 . S
C533 C513 1.449 . S
C533 C532 1.399 . S
C533 H539 0.930 . S
H534 C514 0.931 . S
H535 C515 0.930 . S
H536 C523 0.931 . S
H537 C524 0.929 . S
H538 C532 0.929 . S
H539 C533 0.930 . S
Mn540 O545 2.095 . S
Mn540 O555 2.162 . S
Mn540 O556 2.297 . S
Mn540 O564 2.385 . S
Mn540 O565 2.209 . S
Mn540 O566 2.094 . S
Mn541 O546 2.121 . S
Mn541 N548 2.257 . S
Mn541 N557 2.282 . S
Mn541 O565 2.215 . S
Mn541 O567 2.117 . S
C542 O564 1.234 . S
C542 O565 1.283 . S
C543 O555 1.281 . S
C543 O556 1.236 . S
C544 O566 1.240 . S
C544 O567 1.264 . S
O545 Mn540 2.095 . S
O545 C554 1.250 . S
O546 Mn541 2.121 . S
O546 C554 1.258 . S
C547 N548 1.326 . S
C547 C551 1.460 . S
C547 H553 0.929 . S
N548 Mn541 2.257 . S
N548 C547 1.326 . S
N548 C552 1.362 . S
C549 C550 1.258 . S
C549 C552 1.431 . S
C549 C569 1.449 . S
C550 C549 1.258 . S
C550 C551 1.477 . S
C550 H570 0.931 . S
C551 C547 1.460 . S
C551 C550 1.477 . S
C551 H571 0.930 . S
C552 N548 1.362 . S
C552 C549 1.431 . S
C552 C562 1.476 . S
H553 C547 0.929 . S
C554 O545 1.250 . S
C554 O546 1.258 . S
O555 Mn540 2.162 . S
O555 C543 1.281 . S
O556 Mn540 2.297 . S
O556 C543 1.236 . S
N557 Mn541 2.282 . S
N557 C558 1.328 . S
N557 C562 1.318 . S
C558 N557 1.328 . S
C558 C559 1.457 . S
C558 H563 0.929 . S
C559 C558 1.457 . S
C559 C560 1.291 . S
C559 H572 0.931 . S
C560 C559 1.291 . S
C560 C561 1.373 . S
C560 H573 0.929 . S
C561 C560 1.373 . S
C561 C562 1.396 . S
C561 C568 1.403 . S
C562 C552 1.476 . S
C562 N557 1.318 . S
C562 C561 1.396 . S
H563 C558 0.929 . S
O564 Mn540 2.385 . S
O564 C542 1.234 . S
O565 Mn540 2.209 . S
O565 Mn541 2.215 . S
O565 C542 1.283 . S
O566 Mn540 2.094 . S
O566 C544 1.240 . S
O567 Mn541 2.117 . S
O567 C544 1.264 . S
C568 C561 1.403 . S
C568 C569 1.399 . S
C568 H574 0.929 . S
C569 C549 1.449 . S
C569 C568 1.399 . S
C569 H575 0.930 . S
H570 C550 0.931 . S
H571 C551 0.930 . S
H572 C559 0.931 . S
H573 C560 0.929 . S
H574 C568 0.929 . S
H575 C569 0.930 . S
C576 C577 1.369 . S
C576 C578 1.419 . S
C576 H580 0.930 . S
C577 C576 1.369 . S
C577 C586 1.429 . S
C578 C576 1.419 . S
C578 C579 1.363 . S
C578 H581 0.929 . S
C579 C578 1.363 . S
C579 C585 1.428 . S
H580 C576 0.930 . S
H581 C578 0.929 . S
S582 N583 1.613 . S
S582 N584 1.610 . S
N583 S582 1.613 . S
N583 C586 1.350 . S
N584 S582 1.610 . S
N584 C585 1.351 . S
C585 C579 1.428 . S
C585 N584 1.351 . S
C585 C586 1.434 . S
C586 C577 1.429 . S
C586 N583 1.350 . S
C586 C585 1.434 . S
C587 C588 1.369 1_545 S
C587 C589 1.419 1_655 S
C587 H591 0.930 . S
C588 C587 1.369 1_565 S
C588 C597 1.429 . S
C589 C587 1.419 1_455 S
C589 C590 1.363 . S
C589 H592 0.929 . S
C590 C589 1.363 . S
C590 C596 1.428 1_545 S
H591 C587 0.930 . S
H592 C589 0.929 . S
S593 N594 1.613 1_455 S
S593 N595 1.610 . S
N594 S593 1.613 1_655 S
N594 C597 1.350 . S
N595 S593 1.610 . S
N595 C596 1.351 . S
C596 C590 1.428 1_565 S
C596 N595 1.351 . S
C596 C597 1.434 1_455 S
C597 C588 1.429 . S
C597 N594 1.350 . S
C597 C596 1.434 1_655 S
C598 C599 1.369 . S
C598 C600 1.419 . S
C598 H602 0.930 . S
C599 C598 1.369 . S
C599 C608 1.429 1_565 S
C600 C598 1.419 . S
C600 C601 1.363 1_565 S
C600 H603 0.929 . S
C601 C600 1.363 1_545 S
C601 C607 1.428 . S
H602 C598 0.930 . S
H603 C600 0.929 . S
S604 N605 1.613 . S
S604 N606 1.610 . S
N605 S604 1.613 . S
N605 C608 1.350 . S
N606 S604 1.610 . S
N606 C607 1.351 . S
C607 C601 1.428 . S
C607 N606 1.351 . S
C607 C608 1.434 . S
C608 C599 1.429 1_545 S
C608 N605 1.350 . S
C608 C607 1.434 . S
C609 C610 1.369 . S
C609 C611 1.419 . S
C609 H613 0.930 . S
C610 C609 1.369 . S
C610 C619 1.429 1_455 S
C611 C609 1.419 . S
C611 C612 1.363 1_455 S
C611 H614 0.929 . S
C612 C611 1.363 1_655 S
C612 C618 1.428 . S
H613 C609 0.930 . S
H614 C611 0.929 . S
S615 N616 1.613 . S
S615 N617 1.610 . S
N616 S615 1.613 . S
N616 C619 1.350 . S
N617 S615 1.610 . S
N617 C618 1.351 . S
C618 C612 1.428 . S
C618 N617 1.351 . S
C618 C619 1.434 . S
C619 C610 1.429 1_655 S
C619 N616 1.350 . S
C619 C618 1.434 . S
C620 C621 1.369 . S
C620 C622 1.419 . S
C620 H624 0.930 . S
C621 C620 1.369 . S
C621 C630 1.429 . S
C622 C620 1.419 . S
C622 C623 1.363 . S
C622 H625 0.929 . S
C623 C622 1.363 . S
C623 C629 1.428 . S
H624 C620 0.930 . S
H625 C622 0.929 . S
S626 N627 1.613 . S
S626 N628 1.610 . S
N627 S626 1.613 . S
N627 C630 1.350 . S
N628 S626 1.610 . S
N628 C629 1.351 . S
C629 C623 1.428 . S
C629 N628 1.351 . S
C629 C630 1.434 . S
C630 C621 1.429 . S
C630 N627 1.350 . S
C630 C629 1.434 . S
C631 C632 1.369 1_565 S
C631 C633 1.419 . S
C631 H635 0.930 . S
C632 C631 1.369 1_545 S
C632 C641 1.429 . S
C633 C631 1.419 . S
C633 C634 1.363 . S
C633 H636 0.929 . S
C634 C633 1.363 . S
C634 C640 1.428 1_565 S
H635 C631 0.930 . S
H636 C633 0.929 . S
S637 N638 1.613 . S
S637 N639 1.610 . S
N638 S637 1.613 . S
N638 C641 1.350 . S
N639 S637 1.610 . S
N639 C640 1.351 . S
C640 C634 1.428 1_545 S
C640 N639 1.351 . S
C640 C641 1.434 . S
C641 C632 1.429 . S
C641 N638 1.350 . S
C641 C640 1.434 . S
C642 C643 1.369 . S
C642 C644 1.419 1_655 S
C642 H646 0.930 . S
C643 C642 1.369 . S
C643 C652 1.429 . S
C644 C642 1.419 1_455 S
C644 C645 1.363 . S
C644 H647 0.929 . S
C645 C644 1.363 . S
C645 C651 1.428 . S
H646 C642 0.930 . S
H647 C644 0.929 . S
S648 N649 1.613 1_455 S
S648 N650 1.610 . S
N649 S648 1.613 1_655 S
N649 C652 1.350 . S
N650 S648 1.610 . S
N650 C651 1.351 . S
C651 C645 1.428 . S
C651 N650 1.351 . S
C651 C652 1.434 1_455 S
C652 C643 1.429 . S
C652 N649 1.350 . S
C652 C651 1.434 1_655 S
C653 C654 1.383 . S
C653 C655 1.405 1_554 S
C653 H657 0.930 1_554 S
C654 C653 1.383 . S
C654 C663 1.429 . S
C655 C653 1.405 1_556 S
C655 C656 1.363 . S
C655 H658 0.929 . S
C656 C655 1.363 . S
C656 C662 1.420 1_556 S
H657 C653 0.930 1_556 S
H658 C655 0.929 . S
S659 N660 1.613 . S
S659 N661 1.610 . S
N660 S659 1.613 . S
N660 C663 1.350 . S
N661 S659 1.610 . S
N661 C662 1.352 . S
C662 C656 1.420 1_554 S
C662 N661 1.352 . S
C662 C663 1.442 . S
C663 C654 1.429 . S
C663 N660 1.350 . S
C663 C662 1.442 . S
C664 C665 1.369 1_554 S
C664 C666 1.419 1_455 S
C664 H668 0.930 . S
C665 C664 1.369 1_556 S
C665 C674 1.429 . S
C666 C664 1.419 1_655 S
C666 C667 1.363 . S
C666 H669 0.929 . S
C667 C666 1.363 . S
C667 C673 1.428 1_554 S
H668 C664 0.930 . S
H669 C666 0.929 . S
S670 N671 1.613 . S
S670 N672 1.610 . S
N671 S670 1.613 . S
N671 C674 1.350 1_655 S
N672 S670 1.610 . S
N672 C673 1.351 . S
C673 C667 1.428 1_556 S
C673 N672 1.351 . S
C673 C674 1.434 1_655 S
C674 C665 1.429 . S
C674 N671 1.350 1_455 S
C674 C673 1.434 1_455 S
C675 C676 1.369 . S
C675 C677 1.419 . S
C675 H679 0.930 . S
C676 C675 1.369 . S
C676 C685 1.429 . S
C677 C675 1.419 . S
C677 C678 1.363 . S
C677 H680 0.929 . S
C678 C677 1.363 . S
C678 C684 1.428 . S
H679 C675 0.930 . S
H680 C677 0.929 . S
S681 N682 1.613 . S
S681 N683 1.610 . S
N682 S681 1.613 . S
N682 C685 1.350 . S
N683 S681 1.610 . S
N683 C684 1.351 . S
C684 C678 1.428 . S
C684 N683 1.351 . S
C684 C685 1.434 . S
C685 C676 1.429 . S
C685 N682 1.350 . S
C685 C684 1.434 . S
C686 C687 1.369 . S
C686 C688 1.419 1_556 S
C686 H690 0.930 . S
C687 C686 1.369 . S
C687 C696 1.429 . S
C688 C686 1.419 1_554 S
C688 C689 1.363 . S
C688 H691 0.929 . S
C689 C688 1.363 . S
C689 C695 1.428 . S
H690 C686 0.930 . S
H691 C688 0.929 . S
S692 N693 1.613 1_554 S
S692 N694 1.610 . S
N693 S692 1.613 1_556 S
N693 C696 1.350 . S
N694 S692 1.610 . S
N694 C695 1.351 . S
C695 C689 1.428 . S
C695 N694 1.351 . S
C695 C696 1.434 1_554 S
C696 C687 1.429 . S
C696 N693 1.350 . S
C696 C695 1.434 1_556 S
C697 C698 1.369 . S
C697 C699 1.419 . S
C697 H701 0.930 . S
C698 C697 1.369 . S
C698 C707 1.429 . S
C699 C697 1.419 . S
C699 C700 1.363 . S
C699 H702 0.929 . S
C700 C699 1.363 . S
C700 C706 1.428 . S
H701 C697 0.930 . S
H702 C699 0.929 . S
S703 N704 1.613 . S
S703 N705 1.610 . S
N704 S703 1.613 . S
N704 C707 1.350 . S
N705 S703 1.610 . S
N705 C706 1.351 . S
C706 C700 1.428 . S
C706 N705 1.351 . S
C706 C707 1.434 . S
C707 C698 1.429 . S
C707 N704 1.350 . S
C707 C706 1.434 . S
C708 C709 1.369 1_565 S
C708 C710 1.419 1_556 S
C708 H712 0.930 . S
C709 C708 1.369 1_545 S
C709 C718 1.429 . S
C710 C708 1.419 1_554 S
C710 C711 1.363 . S
C710 H713 0.929 . S
C711 C710 1.363 . S
C711 C717 1.428 1_565 S
H712 C708 0.930 . S
H713 C710 0.929 . S
S714 N715 1.613 1_554 S
S714 N716 1.610 . S
N715 S714 1.613 1_556 S
N715 C718 1.350 . S
N716 S714 1.610 . S
N716 C717 1.351 . S
C717 C711 1.428 1_545 S
C717 N716 1.351 . S
C717 C718 1.434 1_554 S
C718 C709 1.429 . S
C718 N715 1.350 . S
C718 C717 1.434 1_556 S
C719 C720 1.369 . S
C719 C721 1.419 . S
C719 H723 0.930 . S
C720 C719 1.369 . S
C720 C729 1.429 . S
C721 C719 1.419 . S
C721 C722 1.363 . S
C721 H724 0.929 . S
C722 C721 1.363 . S
C722 C728 1.428 . S
H723 C719 0.930 . S
H724 C721 0.929 . S
S725 N726 1.613 . S
S725 N727 1.610 . S
N726 S725 1.613 . S
N726 C729 1.350 . S
N727 S725 1.610 . S
N727 C728 1.351 . S
C728 C722 1.428 . S
C728 N727 1.351 . S
C728 C729 1.434 . S
C729 C720 1.429 . S
C729 N726 1.350 . S
C729 C728 1.434 . S
C730 C731 1.369 . S
C730 C732 1.419 . S
C730 H734 0.930 . S
C731 C730 1.369 . S
C731 C740 1.429 . S
C732 C730 1.419 . S
C732 C733 1.363 . S
C732 H735 0.929 . S
C733 C732 1.363 . S
C733 C739 1.428 . S
H734 C730 0.930 . S
H735 C732 0.929 . S
S736 N737 1.613 . S
S736 N738 1.610 . S
N737 S736 1.613 . S
N737 C740 1.350 . S
N738 S736 1.610 . S
N738 C739 1.351 . S
C739 C733 1.428 . S
C739 N738 1.351 . S
C739 C740 1.434 . S
C740 C731 1.429 . S
C740 N737 1.350 . S
C740 C739 1.434 . S
C741 C742 1.369 . S
C741 C743 1.419 . S
C741 H745 0.930 . S
C742 C741 1.369 . S
C742 C751 1.429 . S
C743 C741 1.419 . S
C743 C744 1.363 . S
C743 H746 0.929 . S
C744 C743 1.363 . S
C744 C750 1.428 . S
H745 C741 0.930 . S
H746 C743 0.929 . S
S747 N748 1.613 . S
S747 N749 1.610 . S
N748 S747 1.613 . S
N748 C751 1.350 . S
N749 S747 1.610 . S
N749 C750 1.351 . S
C750 C744 1.428 . S
C750 N749 1.351 . S
C750 C751 1.434 . S
C751 C742 1.429 . S
C751 N748 1.350 . S
C751 C750 1.434 . S
C752 C753 1.369 . S
C752 C754 1.419 . S
C752 H756 0.930 . S
C753 C752 1.369 . S
C753 C762 1.429 . S
C754 C752 1.419 . S
C754 C755 1.363 . S
C754 H757 0.929 . S
C755 C754 1.363 . S
C755 C761 1.428 . S
H756 C752 0.930 . S
H757 C754 0.929 . S
S758 N759 1.613 . S
S758 N760 1.610 . S
N759 S758 1.613 . S
N759 C762 1.350 . S
N760 S758 1.610 . S
N760 C761 1.351 . S
C761 C755 1.428 . S
C761 N760 1.351 . S
C761 C762 1.434 . S
C762 C753 1.429 . S
C762 N759 1.350 . S
C762 C761 1.434 . S
C763 C764 1.369 . S
C763 C765 1.419 . S
C763 H767 0.930 . S
C764 C763 1.369 . S
C764 C773 1.429 . S
C765 C763 1.419 . S
C765 C766 1.363 . S
C765 H768 0.929 . S
C766 C765 1.363 . S
C766 C772 1.428 . S
H767 C763 0.930 . S
H768 C765 0.929 . S
S769 N770 1.613 . S
S769 N771 1.610 . S
N770 S769 1.613 . S
N770 C773 1.350 . S
N771 S769 1.610 . S
N771 C772 1.351 . S
C772 C766 1.428 . S
C772 N771 1.351 . S
C772 C773 1.434 . S
C773 C764 1.429 . S
C773 N770 1.350 . S
C773 C772 1.434 . S
C774 C775 1.369 . S
C774 C776 1.419 . S
C774 H778 0.930 . S
C775 C774 1.369 . S
C775 C784 1.429 . S
C776 C774 1.419 . S
C776 C777 1.363 . S
C776 H779 0.929 . S
C777 C776 1.363 . S
C777 C783 1.428 . S
H778 C774 0.930 . S
H779 C776 0.929 . S
S780 N781 1.613 . S
S780 N782 1.610 . S
N781 S780 1.613 . S
N781 C784 1.350 . S
N782 S780 1.610 . S
N782 C783 1.351 . S
C783 C777 1.428 . S
C783 N782 1.351 . S
C783 C784 1.434 . S
C784 C775 1.429 . S
C784 N781 1.350 . S
C784 C783 1.434 . S
C785 C786 1.369 . S
C785 C787 1.419 . S
C785 H789 0.930 . S
C786 C785 1.369 . S
C786 C795 1.429 . S
C787 C785 1.419 . S
C787 C788 1.363 . S
C787 H790 0.929 . S
C788 C787 1.363 . S
C788 C794 1.428 . S
H789 C785 0.930 . S
H790 C787 0.929 . S
S791 N792 1.613 . S
S791 N793 1.610 . S
N792 S791 1.613 . S
N792 C795 1.350 . S
N793 S791 1.610 . S
N793 C794 1.351 . S
C794 C788 1.428 . S
C794 N793 1.351 . S
C794 C795 1.434 . S
C795 C786 1.429 . S
C795 N792 1.350 . S
C795 C794 1.434 . S
C796 C797 1.369 . S
C796 C798 1.419 . S
C796 H800 0.930 . S
C797 C796 1.369 . S
C797 C806 1.429 . S
C798 C796 1.419 . S
C798 C799 1.363 . S
C798 H801 0.929 . S
C799 C798 1.363 . S
C799 C805 1.428 . S
H800 C796 0.930 . S
H801 C798 0.929 . S
S802 N803 1.613 . S
S802 N804 1.610 . S
N803 S802 1.613 . S
N803 C806 1.350 . S
N804 S802 1.610 . S
N804 C805 1.351 . S
C805 C799 1.428 . S
C805 N804 1.351 . S
C805 C806 1.434 . S
C806 C797 1.429 . S
C806 N803 1.350 . S
C806 C805 1.434 . S
C807 C808 1.369 . S
C807 C809 1.419 . S
C807 H811 0.930 . S
C808 C807 1.369 . S
C808 C817 1.429 . S
C809 C807 1.419 . S
C809 C810 1.363 . S
C809 H812 0.929 . S
C810 C809 1.363 . S
C810 C816 1.428 . S
H811 C807 0.930 . S
H812 C809 0.929 . S
S813 N814 1.613 . S
S813 N815 1.610 . S
N814 S813 1.613 . S
N814 C817 1.350 . S
N815 S813 1.610 . S
N815 C816 1.351 . S
C816 C810 1.428 . S
C816 N815 1.351 . S
C816 C817 1.434 . S
C817 C808 1.429 . S
C817 N814 1.350 . S
C817 C816 1.434 . S
C818 C819 1.369 . S
C818 C820 1.419 . S
C818 H822 0.930 . S
C819 C818 1.369 . S
C819 C828 1.429 . S
C820 C818 1.419 . S
C820 C821 1.363 . S
C820 H823 0.929 . S
C821 C820 1.363 . S
C821 C827 1.428 . S
H822 C818 0.930 . S
H823 C820 0.929 . S
S824 N825 1.613 . S
S824 N826 1.610 . S
N825 S824 1.613 . S
N825 C828 1.350 . S
N826 S824 1.610 . S
N826 C827 1.351 . S
C827 C821 1.428 . S
C827 N826 1.351 . S
C827 C828 1.434 . S
C828 C819 1.429 . S
C828 N825 1.350 . S
C828 C827 1.434 . S
C829 C830 1.369 . S
C829 C831 1.419 . S
C829 H833 0.930 . S
C830 C829 1.369 . S
C830 C839 1.429 . S
C831 C829 1.419 . S
C831 C832 1.363 . S
C831 H834 0.929 . S
C832 C831 1.363 . S
C832 C838 1.428 . S
H833 C829 0.930 . S
H834 C831 0.929 . S
S835 N836 1.613 . S
S835 N837 1.610 1_565 S
N836 S835 1.613 . S
N836 C839 1.350 1_565 S
N837 S835 1.610 1_545 S
N837 C838 1.351 . S
C838 C832 1.428 . S
C838 N837 1.351 . S
C838 C839 1.434 . S
C839 C830 1.429 . S
C839 N836 1.350 1_545 S
C839 C838 1.434 . S
C840 C841 1.369 . S
C840 C842 1.419 . S
C840 H844 0.930 . S
C841 C840 1.369 . S
C841 C850 1.429 . S
C842 C840 1.419 . S
C842 C843 1.363 . S
C842 H845 0.929 . S
C843 C842 1.363 . S
C843 C849 1.428 . S
H844 C840 0.930 . S
H845 C842 0.929 . S
S846 N847 1.613 . S
S846 N848 1.610 . S
N847 S846 1.613 . S
N847 C850 1.350 . S
N848 S846 1.610 . S
N848 C849 1.351 . S
C849 C843 1.428 . S
C849 N848 1.351 . S
C849 C850 1.434 . S
C850 C841 1.429 . S
C850 N847 1.350 . S
C850 C849 1.434 . S
C851 C852 1.369 . S
C851 C853 1.419 . S
C851 H855 0.930 . S
C852 C851 1.369 . S
C852 C861 1.429 . S
C853 C851 1.419 . S
C853 C854 1.363 . S
C853 H856 0.929 . S
C854 C853 1.363 . S
C854 C860 1.428 . S
H855 C851 0.930 . S
H856 C853 0.929 . S
S857 N858 1.613 . S
S857 N859 1.610 . S
N858 S857 1.613 . S
N858 C861 1.350 . S
N859 S857 1.610 . S
N859 C860 1.351 . S
C860 C854 1.428 . S
C860 N859 1.351 . S
C860 C861 1.434 . S
C861 C852 1.429 . S
C861 N858 1.350 . S
C861 C860 1.434 . S
C862 C863 1.369 . S
C862 C864 1.419 . S
C862 H866 0.930 . S
C863 C862 1.369 . S
C863 C872 1.429 . S
C864 C862 1.419 . S
C864 C865 1.363 . S
C864 H867 0.929 . S
C865 C864 1.363 . S
C865 C871 1.428 . S
H866 C862 0.930 . S
H867 C864 0.929 . S
S868 N869 1.613 . S
S868 N870 1.610 . S
N869 S868 1.613 . S
N869 C872 1.350 . S
N870 S868 1.610 . S
N870 C871 1.351 . S
C871 C865 1.428 . S
C871 N870 1.351 . S
C871 C872 1.434 . S
C872 C863 1.429 . S
C872 N869 1.350 . S
C872 C871 1.434 . S
C873 C874 1.369 . S
C873 C875 1.419 . S
C873 H877 0.930 . S
C874 C873 1.369 . S
C874 C883 1.429 . S
C875 C873 1.419 . S
C875 C876 1.363 . S
C875 H878 0.929 1_565 S
C876 C875 1.363 . S
C876 C882 1.428 . S
H877 C873 0.930 . S
H878 C875 0.929 1_545 S
S879 N880 1.613 . S
S879 N881 1.610 . S
N880 S879 1.613 . S
N880 C883 1.350 . S
N881 S879 1.610 . S
N881 C882 1.351 . S
C882 C876 1.428 . S
C882 N881 1.351 . S
C882 C883 1.434 . S
C883 C874 1.429 . S
C883 N880 1.350 . S
C883 C882 1.434 . S
C884 C885 1.369 . S
C884 C886 1.419 . S
C884 H888 0.930 . S
C885 C884 1.369 . S
C885 C894 1.429 . S
C886 C884 1.419 . S
C886 C887 1.363 . S
C886 H889 0.929 . S
C887 C886 1.363 . S
C887 C893 1.428 . S
H888 C884 0.930 . S
H889 C886 0.929 . S
S890 N891 1.613 . S
S890 N892 1.610 . S
N891 S890 1.613 . S
N891 C894 1.350 . S
N892 S890 1.610 . S
N892 C893 1.351 . S
C893 C887 1.428 . S
C893 N892 1.351 . S
C893 C894 1.434 . S
C894 C885 1.429 . S
C894 N891 1.350 . S
C894 C893 1.434 . S
C895 C896 1.369 . S
C895 C897 1.419 . S
C895 H899 0.930 . S
C896 C895 1.369 . S
C896 C905 1.429 . S
C897 C895 1.419 . S
C897 C898 1.363 . S
C897 H900 0.929 . S
C898 C897 1.363 . S
C898 C904 1.428 . S
H899 C895 0.930 . S
H900 C897 0.929 . S
S901 N902 1.613 . S
S901 N903 1.610 . S
N902 S901 1.613 . S
N902 C905 1.350 . S
N903 S901 1.610 . S
N903 C904 1.351 . S
C904 C898 1.428 . S
C904 N903 1.351 . S
C904 C905 1.434 . S
C905 C896 1.429 . S
C905 N902 1.350 . S
C905 C904 1.434 . S
C906 C907 1.369 . S
C906 C908 1.419 . S
C906 H910 0.930 . S
C907 C906 1.369 . S
C907 C916 1.429 . S
C908 C906 1.419 . S
C908 C909 1.363 . S
C908 H911 0.929 . S
C909 C908 1.363 . S
C909 C915 1.428 . S
H910 C906 0.930 . S
H911 C908 0.929 . S
S912 N913 1.613 . S
S912 N914 1.610 . S
N913 S912 1.613 . S
N913 C916 1.350 . S
N914 S912 1.610 . S
N914 C915 1.351 . S
C915 C909 1.428 . S
C915 N914 1.351 . S
C915 C916 1.434 . S
C916 C907 1.429 . S
C916 N913 1.350 . S
C916 C915 1.434 . S
C917 C918 1.369 . S
C917 C919 1.419 . S
C917 H921 0.930 . S
C918 C917 1.369 . S
C918 C927 1.429 . S
C919 C917 1.419 . S
C919 C920 1.363 . S
C919 H922 0.929 . S
C920 C919 1.363 . S
C920 C926 1.428 . S
H921 C917 0.930 . S
H922 C919 0.929 . S
S923 N924 1.613 . S
S923 N925 1.610 . S
N924 S923 1.613 . S
N924 C927 1.350 . S
N925 S923 1.610 . S
N925 C926 1.351 . S
C926 C920 1.428 . S
C926 N925 1.351 . S
C926 C927 1.434 . S
C927 C918 1.429 . S
C927 N924 1.350 . S
C927 C926 1.434 . S
C577 C518 1.462 . S
C579 C14 1.456 . S
C588 C75 1.505 . S
C590 C3 1.504 . S
C599 C410 1.455 . S
C601 C50 1.462 . S
C610 C39 1.505 . S
C612 C255 1.504 . S
C621 C86 1.463 . S
C623 C446 1.456 . S
C632 C338 1.463 . S
C634 C122 1.456 . S
C643 C111 1.504 . S
C645 C183 1.505 . S
C654 C374 1.456 . S
C656 C158 1.461 . S
C665 C147 1.505 . S
C667 C219 1.505 . S
C676 C554 1.461 . S
C678 C194 1.458 . S
C687 C302 1.462 . S
C689 C230 1.457 . S
C698 C482 1.459 . S
C700 C266 1.459 . S
C709 C291 1.505 . S
C711 C363 1.504 . S
C720 C543 1.505 . S
C722 C327 1.504 . S
C731 C399 1.505 . S
C733 C471 1.504 . S
C742 C507 1.504 . S
C744 C435 1.505 . S
C753 C182 1.369 . S
C755 C2 1.372 1_565 S
C764 C4 1.414 . S
C766 C184 1.416 . S
C775 C38 1.369 . S
C777 C146 1.372 . S
C786 C148 1.412 . S
C788 C40 1.413 . S
C797 C254 1.367 . S
C799 C74 1.368 1_545 S
C808 C256 1.412 . S
C810 C76 1.414 . S
C819 C218 1.367 . S
C821 C110 1.368 . S
C830 C112 1.412 . S
C832 C220 1.415 . S
C841 C470 1.368 . S
C843 C290 1.371 1_565 S
C852 C292 1.413 . S
C854 C472 1.413 . S
C863 C326 1.367 . S
C865 C434 1.369 . S
C874 C436 1.412 . S
C876 C328 1.416 . S
C885 C542 1.370 . S
C887 C362 1.372 1_545 S
C896 C544 1.412 . S
C898 C364 1.415 . S
C907 C398 1.368 . S
C909 C506 1.367 . S
C918 C508 1.417 . S
C920 C400 1.414 . S
