# Generated by pormake.
# Topology vbn, (6)-cn, num edge types: 1
# Building blocks:
#     Node 0, Type 0, BuildingBlock: MIDCAF_clean_sbu_0, # of connection points: 6
#     Node 1, Type 0, BuildingBlock: MIDCAF_clean_sbu_0, # of connection points: 6
#     Node 2, Type 0, BuildingBlock: MIDCAF_clean_sbu_0, # of connection points: 6
#     Node 3, Type 0, BuildingBlock: MIDCAF_clean_sbu_0, # of connection points: 6
#     Node 4, Type 0, BuildingBlock: MIDCAF_clean_sbu_0, # of connection points: 6
#     Node 5, Type 0, BuildingBlock: MIDCAF_clean_sbu_0, # of connection points: 6
#     Node 6, Type 0, BuildingBlock: MIDCAF_clean_sbu_0, # of connection points: 6
#     Node 7, Type 0, BuildingBlock: MIDCAF_clean_sbu_0, # of connection points: 6
#     Edge 8, Type (0, 0), BuildingBlock: KIFKEQ_clean_linker_1, # of connection points: 2
#     Edge 9, Type (0, 0), BuildingBlock: KIFKEQ_clean_linker_1, # of connection points: 2
#     Edge 10, Type (0, 0), BuildingBlock: KIFKEQ_clean_linker_1, # of connection points: 2
#     Edge 11, Type (0, 0), BuildingBlock: KIFKEQ_clean_linker_1, # of connection points: 2
#     Edge 12, Type (0, 0), BuildingBlock: KIFKEQ_clean_linker_1, # of connection points: 2
#     Edge 13, Type (0, 0), BuildingBlock: KIFKEQ_clean_linker_1, # of connection points: 2
#     Edge 14, Type (0, 0), BuildingBlock: KIFKEQ_clean_linker_1, # of connection points: 2
#     Edge 15, Type (0, 0), BuildingBlock: KIFKEQ_clean_linker_1, # of connection points: 2
#     Edge 16, Type (0, 0), BuildingBlock: KIFKEQ_clean_linker_1, # of connection points: 2
#     Edge 17, Type (0, 0), BuildingBlock: KIFKEQ_clean_linker_1, # of connection points: 2
#     Edge 18, Type (0, 0), BuildingBlock: KIFKEQ_clean_linker_1, # of connection points: 2
#     Edge 19, Type (0, 0), BuildingBlock: KIFKEQ_clean_linker_1, # of connection points: 2
#     Edge 20, Type (0, 0), BuildingBlock: KIFKEQ_clean_linker_1, # of connection points: 2
#     Edge 21, Type (0, 0), BuildingBlock: KIFKEQ_clean_linker_1, # of connection points: 2
#     Edge 22, Type (0, 0), BuildingBlock: KIFKEQ_clean_linker_1, # of connection points: 2
#     Edge 23, Type (0, 0), BuildingBlock: KIFKEQ_clean_linker_1, # of connection points: 2
#     Edge 24, Type (0, 0), BuildingBlock: KIFKEQ_clean_linker_1, # of connection points: 2
#     Edge 25, Type (0, 0), BuildingBlock: KIFKEQ_clean_linker_1, # of connection points: 2
#     Edge 26, Type (0, 0), BuildingBlock: KIFKEQ_clean_linker_1, # of connection points: 2
#     Edge 27, Type (0, 0), BuildingBlock: KIFKEQ_clean_linker_1, # of connection points: 2
#     Edge 28, Type (0, 0), BuildingBlock: KIFKEQ_clean_linker_1, # of connection points: 2
#     Edge 29, Type (0, 0), BuildingBlock: KIFKEQ_clean_linker_1, # of connection points: 2
#     Edge 30, Type (0, 0), BuildingBlock: KIFKEQ_clean_linker_1, # of connection points: 2
#     Edge 31, Type (0, 0), BuildingBlock: KIFKEQ_clean_linker_1, # of connection points: 2
# Relax obj value: 0.265
# Max RMSD: 0.222
# Mean RMSD: 0.222
data_MOF--net-vbn--node1-MIDCAF_clean_sbu_0--edge1-KIFKEQ_clean_linker_1
_symmetry_space_group_name_H-M    P1
_symmetry_Int_Tables_number       1
_symmetry_cell_setting            triclinic
loop_
_symmetry_equiv_pos_as_xyz
'x, y, z'
_cell_length_a     25.283844
_cell_length_b     27.006882
_cell_length_c     45.785813
_cell_angle_alpha  89.957437
_cell_angle_beta   89.458536
_cell_angle_gamma 89.62969
loop_
_atom_site_label
_atom_site_type_symbol
_atom_site_fract_x
_atom_site_fract_y
_atom_site_fract_z
_atom_type_partial_charge
Zn0 Zn 0.36665 0.32205 0.44073 0.0
Zn1 Zn 0.44745 0.23601 0.36937 0.0
Zn2 Zn 0.39815 0.29143 0.3996 0.0
C3 C 0.34121 0.20592 0.36624 0.0
C4 C 0.45546 0.33561 0.34606 0.0
O5 O 0.4309 0.36654 0.40151 0.0
O6 O 0.43408 0.35889 0.44949 0.0
C7 C 0.30374 0.25208 0.4398 0.0
O8 O 0.33615 0.24282 0.38375 0.0
O9 O 0.38669 0.19419 0.35669 0.0
O10 O 0.47174 0.2914 0.34341 0.0
O11 O 0.42265 0.347 0.36675 0.0
O12 O 0.33468 0.26248 0.46054 0.0
O13 O 0.31776 0.26352 0.41346 0.0
O14 O 0.37721 0.36686 0.38513 0.0
O15 O 0.31275 0.36376 0.41755 0.0
C16 C 0.3317 0.38253 0.39441 0.0
O17 O 0.46207 0.26721 0.4277 0.0
O18 O 0.49948 0.21178 0.3991 0.0
C19 C 0.44935 0.38047 0.42628 0.0
C20 C 0.49868 0.23535 0.42296 0.0
Zn21 Zn 0.06528 0.24369 0.87815 0.0
Zn22 Zn 0.18609 0.12003 0.93212 0.0
Zn23 Zn 0.12815 0.18091 0.90348 0.0
C24 C 0.17256 0.07946 0.87689 0.0
C25 C 0.24357 0.20443 0.93273 0.0
O26 O 0.0538 0.19073 0.92988 0.0
O27 O 0.01144 0.25352 0.90953 0.0
C28 C 0.0772 0.16552 0.83966 0.0
O29 O 0.14576 0.11944 0.8727 0.0
O30 O 0.19393 0.07102 0.90115 0.0
O31 O 0.24804 0.15987 0.94045 0.0
O32 O 0.20175 0.21949 0.91922 0.0
O33 O 0.04559 0.20075 0.84504 0.0
O34 O 0.11376 0.15416 0.85801 0.0
O35 O 0.17275 0.25029 0.90008 0.0
O36 O 0.12187 0.29368 0.87028 0.0
C37 C 0.16487 0.28856 0.88382 0.0
O38 O 0.08173 0.14939 0.94048 0.0
O39 O 0.13837 0.10233 0.96465 0.0
C40 C 0.01475 0.22175 0.92969 0.0
C41 C 0.09223 0.11945 0.96167 0.0
Zn42 Zn 0.92145 0.26191 0.60226 0.0
Zn43 Zn 0.88809 0.11318 0.55541 0.0
Zn44 Zn 0.88511 0.1774 0.58924 0.0
C45 C 0.80701 0.0975 0.59776 0.0
C46 C 0.84289 0.18301 0.52291 0.0
O47 O 0.92715 0.20654 0.54989 0.0
O48 O 0.96678 0.27311 0.5663 0.0
C49 C 0.96687 0.19337 0.64087 0.0
O50 O 0.80978 0.14463 0.6006 0.0
O51 O 0.8414 0.07465 0.58264 0.0
O52 O 0.84946 0.13688 0.52039 0.0
O53 O 0.8647 0.20554 0.54453 0.0
O54 O 0.96069 0.23966 0.63818 0.0
O55 O 0.94438 0.1641 0.62285 0.0
O56 O 0.81474 0.20672 0.61075 0.0
O57 O 0.8447 0.2833 0.60656 0.0
C58 C 0.8074 0.25369 0.6126 0.0
O59 O 0.94389 0.12109 0.60238 0.0
O60 O 0.96543 0.09965 0.55737 0.0
C61 C 0.96152 0.24109 0.54643 0.0
C62 C 0.97473 0.09793 0.58443 0.0
Zn63 Zn 0.56322 0.25881 0.12732 0.0
Zn64 Zn 0.6527 0.34624 0.06161 0.0
Zn65 Zn 0.62498 0.30989 0.10221 0.0
C66 C 0.70122 0.39488 0.10816 0.0
C67 C 0.70231 0.26289 0.05916 0.0
O68 O 0.56513 0.29638 0.06969 0.0
O69 O 0.50945 0.25224 0.09557 0.0
C70 C 0.57339 0.35073 0.15895 0.0
O71 O 0.65662 0.38044 0.11913 0.0
O72 O 0.71474 0.37838 0.08327 0.0
O73 O 0.66918 0.28129 0.04151 0.0
O74 O 0.69851 0.27457 0.08634 0.0
O75 O 0.54944 0.30974 0.15824 0.0
O76 O 0.60743 0.36148 0.13877 0.0
O77 O 0.6786 0.25148 0.11655 0.0
O78 O 0.61617 0.20478 0.13557 0.0
C79 C 0.6646 0.21157 0.12959 0.0
O80 O 0.60105 0.38784 0.10737 0.0
O81 O 0.58639 0.39003 0.06 0.0
C82 C 0.52121 0.27372 0.07186 0.0
C83 C 0.57856 0.4082 0.08524 0.0
Zn84 Zn 0.71403 0.61435 0.594 0.0
Zn85 Zn 0.54548 0.71337 0.61856 0.0
Zn86 Zn 0.62659 0.66045 0.60273 0.0
C87 C 0.62894 0.77735 0.62235 0.0
C88 C 0.55022 0.63459 0.65781 0.0
O89 O 0.61591 0.63004 0.55929 0.0
O90 O 0.69206 0.59004 0.55426 0.0
C91 C 0.74654 0.70806 0.59635 0.0
O92 O 0.65144 0.73877 0.61093 0.0
O93 O 0.58109 0.77567 0.63031 0.0
O94 O 0.5198 0.66912 0.64974 0.0
O95 O 0.59377 0.62628 0.64363 0.0
O96 O 0.76769 0.66576 0.59571 0.0
O97 O 0.69575 0.71245 0.59894 0.0
O98 O 0.6335 0.59231 0.6317 0.0
O99 O 0.71503 0.5646 0.62478 0.0
C100 C 0.67039 0.56013 0.63688 0.0
O101 O 0.57032 0.6587 0.56587 0.0
O102 O 0.50883 0.71219 0.58043 0.0
C103 C 0.64749 0.60247 0.54416 0.0
C104 C 0.52723 0.68306 0.56129 0.0
Zn105 Zn 0.77225 0.8896 0.12612 0.0
Zn106 Zn 0.98694 0.76927 0.11506 0.0
Zn107 Zn 0.90492 0.82644 0.10584 0.0
C108 C 0.89101 0.71445 0.12411 0.0
C109 C 0.98906 0.83652 0.15885 0.0
O110 O 0.85551 0.88651 0.09712 0.0
O111 O 0.79498 0.94338 0.09597 0.0
C112 C 0.77962 0.79012 0.09372 0.0
O113 O 0.86901 0.75431 0.11466 0.0
O114 O 0.94072 0.71265 0.12698 0.0
O115 O 0.02213 0.80809 0.14646 0.0
O116 O 0.94369 0.8437 0.14732 0.0
O117 O 0.75436 0.82674 0.10455 0.0
O118 O 0.83072 0.78593 0.09487 0.0
O119 O 0.9 0.89043 0.13637 0.0
O120 O 0.82521 0.87555 0.15877 0.0
C121 C 0.86478 0.9035 0.15541 0.0
O122 O 0.95654 0.82993 0.06702 0.0
O123 O 0.0158 0.77135 0.07469 0.0
C124 C 0.83926 0.92743 0.08662 0.0
C125 C 0.99622 0.80411 0.05829 0.0
Zn126 Zn 0.20029 0.85535 0.44727 0.0
Zn127 Zn 0.04688 0.76233 0.40467 0.0
Zn128 Zn 0.12872 0.81068 0.4267 0.0
C129 C 0.13804 0.69936 0.40371 0.0
C130 C 0.06762 0.83914 0.3661 0.0
O131 O 0.1065 0.83599 0.47145 0.0
O132 O 0.18555 0.84861 0.4897 0.0
C133 C 0.25121 0.77548 0.43186 0.0
O134 O 0.1594 0.7365 0.41659 0.0
O135 O 0.08997 0.70119 0.39634 0.0
O136 O 0.03297 0.80681 0.37125 0.0
O137 O 0.10644 0.84535 0.38387 0.0
O138 O 0.2636 0.8206 0.43187 0.0
O139 O 0.20182 0.76343 0.43159 0.0
O140 O 0.13878 0.87807 0.39945 0.0
O141 O 0.18278 0.92128 0.43179 0.0
C142 C 0.15732 0.91963 0.40832 0.0
O143 O 0.06332 0.80949 0.45934 0.0
O144 O 0.99864 0.767 0.43903 0.0
C145 C 0.1361 0.84672 0.49337 0.0
C146 C 0.01645 0.79107 0.46035 0.0
Zn147 Zn 0.33304 0.64397 0.94429 0.0
Zn148 Zn 0.4718 0.74719 0.89077 0.0
Zn149 Zn 0.3995 0.69235 0.91589 0.0
C150 C 0.37438 0.79679 0.8854 0.0
C151 C 0.46578 0.65883 0.85857 0.0
O152 O 0.43121 0.67438 0.95978 0.0
O153 O 0.36159 0.64714 0.9842 0.0
C154 C 0.27592 0.72389 0.92971 0.0
O155 O 0.35959 0.76125 0.90238 0.0
O156 O 0.42175 0.79915 0.87651 0.0
O157 O 0.49416 0.69657 0.86217 0.0
O158 O 0.42546 0.65138 0.87551 0.0
O159 O 0.26692 0.68002 0.93752 0.0
O160 O 0.32329 0.7366 0.92192 0.0
O161 O 0.38848 0.62245 0.89119 0.0
O162 O 0.34228 0.58059 0.92404 0.0
C163 C 0.36637 0.58214 0.89986 0.0
O164 O 0.46869 0.70413 0.94518 0.0
O165 O 0.52171 0.75794 0.92335 0.0
C166 C 0.40982 0.65863 0.98372 0.0
C167 C 0.51106 0.73056 0.94493 0.0
H168 H 0.13309 0.00925 0.42995 0.0
H169 H 0.17295 0.93429 0.34954 0.0
H170 H 0.15929 0.0874 0.40899 0.0
H171 H 0.19796 0.01366 0.32758 0.0
H172 H 0.34456 0.11735 0.338 0.0
H173 H 0.27737 0.05451 0.33775 0.0
H174 H 0.1669 0.15653 0.37869 0.0
H175 H 0.23574 0.21952 0.37966 0.0
C176 C 0.14521 0.01007 0.40718 0.0
C177 C 0.15243 0.96586 0.39155 0.0
C178 C 0.16001 0.05514 0.39497 0.0
C179 C 0.18259 0.05689 0.36681 0.0
C180 C 0.18227 0.01341 0.34967 0.0
C181 C 0.1674 0.96799 0.36204 0.0
C182 C 0.30566 0.12694 0.34643 0.0
C183 C 0.29615 0.17284 0.36002 0.0
C184 C 0.26656 0.09082 0.34593 0.0
C185 C 0.2167 0.09976 0.35881 0.0
C186 C 0.20531 0.14777 0.36932 0.0
C187 C 0.24478 0.1839 0.37002 0.0
H188 H 0.19089 0.33761 0.83385 0.0
H189 H 0.23024 0.32579 0.92484 0.0
H190 H 0.25694 0.40272 0.82753 0.0
H191 H 0.29658 0.38998 0.91889 0.0
H192 H 0.30323 0.56766 0.85359 0.0
H193 H 0.26315 0.48789 0.84329 0.0
H194 H 0.37968 0.4156 0.89736 0.0
H195 H 0.4183 0.49596 0.9083 0.0
C196 C 0.2143 0.34855 0.85243 0.0
C197 C 0.2064 0.32613 0.87983 0.0
C198 C 0.25219 0.38564 0.84879 0.0
C199 C 0.2827 0.40121 0.87255 0.0
C200 C 0.27518 0.37792 0.89982 0.0
C201 C 0.23732 0.34095 0.90337 0.0
C202 C 0.32215 0.53435 0.86175 0.0
C203 C 0.36365 0.53769 0.88171 0.0
C204 C 0.2989 0.48853 0.85611 0.0
C205 C 0.31718 0.44553 0.87033 0.0
C206 C 0.36379 0.44825 0.88674 0.0
C207 C 0.38663 0.49409 0.89255 0.0
H208 H 0.59202 0.4962 0.62302 0.0
H209 H 0.72849 0.51235 0.6777 0.0
H210 H 0.60364 0.40622 0.62385 0.0
H211 H 0.74043 0.42314 0.67867 0.0
H212 H 0.77764 0.26844 0.66897 0.0
H213 H 0.72069 0.3365 0.68577 0.0
H214 H 0.67374 0.36373 0.59669 0.0
H215 H 0.73002 0.2957 0.58036 0.0
C216 C 0.62248 0.48041 0.63675 0.0
C217 C 0.65955 0.5113 0.65018 0.0
C218 C 0.62979 0.42879 0.63679 0.0
C219 C 0.67387 0.40723 0.65064 0.0
C220 C 0.70602 0.43799 0.66773 0.0
C221 C 0.69902 0.48943 0.66739 0.0
C222 C 0.75262 0.28715 0.65329 0.0
C223 C 0.75765 0.27631 0.6234 0.0
C224 C 0.72057 0.32671 0.66283 0.0
C225 C 0.69314 0.35638 0.64259 0.0
C226 C 0.69369 0.3417 0.61306 0.0
C227 C 0.7259 0.30236 0.60358 0.0
H228 H 0.77392 0.21274 0.12502 0.0
H229 H 0.64261 0.12057 0.15115 0.0
H230 H 0.83552 0.14587 0.13829 0.0
H231 H 0.70268 0.05448 0.16317 0.0
H232 H 0.80331 0.9448 0.19786 0.0
H233 H 0.76501 0.02752 0.19697 0.0
H234 H 0.86545 0.06509 0.12342 0.0
H235 H 0.90753 0.98383 0.12646 0.0
C236 C 0.75822 0.1784 0.13359 0.0
C237 C 0.70332 0.1722 0.13718 0.0
C238 C 0.79346 0.14008 0.14117 0.0
C239 C 0.77434 0.09493 0.15244 0.0
C240 C 0.71937 0.0891 0.15566 0.0
C241 C 0.68458 0.12709 0.14834 0.0
C242 C 0.81864 0.97138 0.18225 0.0
C243 C 0.85645 0.957 0.16125 0.0
C244 C 0.79619 0.01866 0.18142 0.0
C245 C 0.80992 0.05211 0.15903 0.0
C246 C 0.85303 0.04012 0.14064 0.0
C247 C 0.87692 0.9932 0.14221 0.0
H248 H 0.71882 0.07035 0.56982 0.0
H249 H 0.80347 0.05132 0.65028 0.0
H250 H 0.67226 0.99265 0.57861 0.0
H251 H 0.75661 0.97355 0.65938 0.0
H252 H 0.63252 0.84317 0.66753 0.0
H253 H 0.66628 0.92834 0.66614 0.0
H254 H 0.71518 0.90681 0.57643 0.0
H255 H 0.68091 0.82243 0.57792 0.0
C256 C 0.72514 0.05095 0.59023 0.0
C257 C 0.76375 0.06738 0.60972 0.0
C258 C 0.69937 0.00594 0.59499 0.0
C259 C 0.71163 0.97652 0.61939 0.0
C260 C 0.74631 0.99542 0.64041 0.0
C261 C 0.77254 0.04032 0.63545 0.0
C262 C 0.65148 0.85656 0.64775 0.0
C263 C 0.65584 0.82578 0.62306 0.0
C264 C 0.6705 0.90524 0.64692 0.0
C265 C 0.69285 0.92444 0.6211 0.0
C266 C 0.69766 0.89329 0.59657 0.0
C267 C 0.67935 0.84456 0.59757 0.0
H268 H 0.78284 0.69962 0.12167 0.0
H269 H 0.92967 0.62504 0.14161 0.0
H270 H 0.73649 0.6206 0.12445 0.0
H271 H 0.88329 0.54719 0.14595 0.0
H272 H 0.80346 0.41804 0.09796 0.0
H273 H 0.84709 0.49568 0.10818 0.0
H274 H 0.70774 0.54791 0.15438 0.0
H275 H 0.66352 0.46928 0.14383 0.0
C276 C 0.80519 0.66666 0.1267 0.0
C277 C 0.86033 0.66865 0.13009 0.0
C278 C 0.77848 0.62141 0.12887 0.0
C279 C 0.80643 0.57738 0.13488 0.0
C280 C 0.86079 0.58017 0.14056 0.0
C281 C 0.88736 0.62505 0.13811 0.0
C282 C 0.78246 0.44561 0.11086 0.0
C283 C 0.73006 0.43771 0.11997 0.0
C284 C 0.80755 0.49016 0.11684 0.0
C285 C 0.78085 0.52818 0.13202 0.0
C286 C 0.72916 0.51947 0.14242 0.0
C287 C 0.7041 0.47433 0.13667 0.0
H288 H 0.37962 0.46981 0.38124 0.0
H289 H 0.2279 0.39778 0.38489 0.0
H290 H 0.33496 0.55056 0.37735 0.0
H291 H 0.1834 0.47786 0.38025 0.0
H292 H 0.22372 0.66258 0.43181 0.0
H293 H 0.27655 0.58942 0.41982 0.0
H294 H 0.1714 0.55764 0.34863 0.0
H295 H 0.12073 0.63303 0.35981 0.0
C296 C 0.33687 0.47118 0.37989 0.0
C297 C 0.30696 0.42796 0.38329 0.0
C298 C 0.31137 0.51722 0.37793 0.0
C299 C 0.2558 0.52028 0.37868 0.0
C300 C 0.22622 0.47651 0.3794 0.0
C301 C 0.25161 0.43076 0.38203 0.0
C302 C 0.21368 0.64143 0.41287 0.0
C303 C 0.16944 0.65455 0.39639 0.0
C304 C 0.24342 0.59923 0.40608 0.0
C305 C 0.22855 0.5684 0.38294 0.0
C306 C 0.18399 0.58113 0.3664 0.0
C307 C 0.15485 0.62399 0.37296 0.0
H308 H 0.11313 -0.00174 0.86934 0.0
H309 H 0.25257 0.07257 0.83781 0.0
H310 H 0.1566 0.91837 0.86188 0.0
H311 H 0.2965 0.99312 0.83052 0.0
H312 H 0.29141 0.83738 0.91506 0.0
H313 H 0.228 0.89872 0.89791 0.0
H314 H 0.31055 0.90518 0.81496 0.0
H315 H 0.37273 0.84177 0.83212 0.0
C316 C 0.15163 0.99737 0.85873 0.0
C317 C 0.17995 0.04134 0.85457 0.0
C318 C 0.17697 0.95165 0.85502 0.0
C319 C 0.23064 0.94968 0.84677 0.0
C320 C 0.25528 0.99338 0.83719 0.0
C321 C 0.22985 0.03907 0.84098 0.0
C322 C 0.29435 0.85014 0.89282 0.0
C323 C 0.33588 0.83386 0.87482 0.0
C324 C 0.2583 0.88553 0.88289 0.0
C325 C 0.26358 0.90613 0.85476 0.0
C326 C 0.30515 0.88965 0.83659 0.0
C327 C 0.34091 0.85375 0.84652 0.0
H328 H 0.55362 0.39069 0.41304 0.0
H329 H 0.41735 0.4682 0.44761 0.0
H330 H 0.6113 0.45579 0.43188 0.0
H331 H 0.47411 0.53267 0.46682 0.0
H332 H 0.58219 0.6428 0.50305 0.0
H333 H 0.53874 0.59868 0.4633 0.0
H334 H 0.63227 0.4684 0.48284 0.0
H335 H 0.67428 0.51227 0.52253 0.0
C336 C 0.53606 0.42276 0.42365 0.0
C337 C 0.48151 0.42493 0.42904 0.0
C338 C 0.5689 0.45972 0.43465 0.0
C339 C 0.54738 0.49904 0.45123 0.0
C340 C 0.49209 0.50328 0.45398 0.0
C341 C 0.45949 0.46631 0.44311 0.0
C342 C 0.59304 0.60475 0.49876 0.0
C343 C 0.62966 0.58025 0.51657 0.0
C344 C 0.5689 0.57969 0.47578 0.0
C345 C 0.5815 0.52977 0.47012 0.0
C346 C 0.62186 0.50692 0.48633 0.0
C347 C 0.64577 0.53197 0.50928 0.0
H348 H 0.94557 0.91964 0.07897 0.0
H349 H 0.81032 0.00718 0.0534 0.0
H350 H 1.00282 0.97111 0.04908 0.0
H351 H 0.86832 0.06089 0.02442 0.0
H352 H 0.98896 0.1012 0.94877 0.0
H353 H 0.9242 0.0585 0.97971 0.0
H354 H 0.03723 0.05427 0.04991 0.0
H355 H 0.10184 0.09594 0.01886 0.0
C356 C 0.92795 0.94928 0.06646 0.0
C357 C 0.87333 0.95837 0.0678 0.0
C358 C 0.96091 0.97963 0.04987 0.0
C359 C 0.94013 0.02031 0.03451 0.0
C360 C 0.88539 0.02957 0.03582 0.0
C361 C 0.85229 -0.00106 0.05244 0.0
C362 C 0.99937 0.09193 0.97102 0.0
C363 C 0.05032 0.10155 0.98147 0.0
C364 C 0.96238 0.06756 0.98872 0.0
C365 C 0.976 0.05223 0.01706 0.0
C366 C 0.02601 0.06453 0.02793 0.0
C367 C 0.06289 0.08862 0.01026 0.0
H368 H 0.95002 0.01601 0.61482 0.0
H369 H 0.07976 0.09193 0.57312 0.0
H370 H 0.99467 0.93671 0.60625 0.0
H371 H 0.12568 0.01318 0.56597 0.0
H372 H 0.0348 0.8771 0.504 0.0
H373 H 1.00283 0.92582 0.54485 0.0
H374 H 0.15657 0.91693 0.58454 0.0
H375 H 0.18749 0.8634 0.54473 0.0
C376 C 0.98991 0.01602 0.60593 0.0
C377 C 0.01155 0.05966 0.59438 0.0
C378 C 0.01529 0.97064 0.60094 0.0
C379 C 0.0632 0.96902 0.58522 0.0
C380 C 0.08892 0.01355 0.57834 0.0
C381 C 0.06279 0.0587 0.58248 0.0
C382 C 0.06061 0.8818 0.52239 0.0
C383 C 0.11328 0.8653 0.5212 0.0
C384 C 0.04246 0.91039 0.54579 0.0
C385 C 0.07727 0.9248 0.56789 0.0
C386 C 0.1289 0.90566 0.56793 0.0
C387 C 0.14653 0.87541 0.54498 0.0
H388 H 0.5137 0.63185 0.9839 0.0
H389 H 0.3777 0.65174 0.04052 0.0
H390 H 0.55878 0.58688 0.02226 0.0
H391 H 0.42221 0.60442 0.0787 0.0
H392 H 0.62992 0.49499 0.08833 0.0
H393 H 0.59339 0.57576 0.07441 0.0
H394 H 0.43765 0.51134 0.0703 0.0
H395 H 0.47457 0.43092 0.08384 0.0
C396 C 0.49453 0.62902 1.00506 0.0
C397 C 0.44227 0.64548 0.0092 0.0
C398 C 0.52029 0.60291 0.02709 0.0
C399 C 0.49367 0.59171 0.05334 0.0
C400 C 0.44343 0.61241 0.0586 0.0
C401 C 0.418 0.63931 0.03672 0.0
C402 C 0.58753 0.49899 0.08591 0.0
C403 C 0.55468 0.4574 0.08728 0.0
C404 C 0.56673 0.54498 0.07781 0.0
C405 C 0.51282 0.54971 0.07117 0.0
C406 C 0.47923 0.50898 0.07566 0.0
C407 C 0.5002 0.46293 0.08333 0.0
H408 H 0.63812 0.40158 0.19633 0.0
H409 H 0.47476 0.37452 0.17613 0.0
H410 H 0.61171 0.42933 0.24535 0.0
H411 H 0.4483 0.39963 0.22467 0.0
H412 H 0.4018 0.40597 0.31411 0.0
H413 H 0.43388 0.44171 0.26802 0.0
H414 H 0.58866 0.37846 0.28397 0.0
H415 H 0.55702 0.34536 0.32978 0.0
C416 C 0.59645 0.40354 0.20198 0.0
C417 C 0.55854 0.385 0.1828 0.0
C418 C 0.58117 0.41875 0.23021 0.0
C419 C 0.52788 0.41502 0.23965 0.0
C420 C 0.48963 0.40308 0.21873 0.0
C421 C 0.50484 0.38827 0.19071 0.0
C422 C 0.44322 0.402 0.30824 0.0
C423 C 0.47671 0.3721 0.32506 0.0
C424 C 0.46164 0.42186 0.28165 0.0
C425 C 0.51358 0.41161 0.27146 0.0
C426 C 0.54851 0.38739 0.29057 0.0
C427 C 0.53024 0.36791 0.31696 0.0
H428 H 0.15463 0.15847 0.79822 0.0
H429 H 0.99084 0.12487 0.81538 0.0
H430 H 0.13914 0.1507 0.74557 0.0
H431 H 0.97551 0.11587 0.76316 0.0
H432 H 0.04244 0.24058 0.67215 0.0
H433 H 0.08107 0.21436 0.71822 0.0
H434 H 0.99726 0.07595 0.71314 0.0
H435 H 0.95909 0.10189 0.66649 0.0
C436 C 0.11611 0.1468 0.79079 0.0
C437 C 0.07388 0.14221 0.81069 0.0
C438 C 0.1071 0.14281 0.76071 0.0
C439 C 0.05598 0.13317 0.75026 0.0
C440 C 0.01537 0.12296 0.77049 0.0
C441 C 0.02411 0.12802 0.80041 0.0
C442 C 0.03323 0.20405 0.68046 0.0
C443 C 0.99717 0.1736 0.6659 0.0
C444 C 0.05578 0.18881 0.70674 0.0
C445 C 0.04214 0.1431 0.71932 0.0
C446 C 1.00846 0.11135 0.70393 0.0
C447 C 0.98665 0.12623 0.67725 0.0
H448 H 0.39956 0.60102 0.82534 0.0
H449 H 0.56245 0.64451 0.83445 0.0
H450 H 0.42001 0.56812 0.77665 0.0
H451 H 0.58239 0.61478 0.78601 0.0
H452 H 0.61565 0.58428 0.69587 0.0
H453 H 0.59453 0.56314 0.74654 0.0
H454 H 0.43238 0.60905 0.73287 0.0
H455 H 0.45282 0.62677 0.68246 0.0
C456 C 0.43995 0.60228 0.8173 0.0
C457 C 0.47906 0.62645 0.83338 0.0
C458 C 0.45172 0.58401 0.78922 0.0
C459 C 0.50265 0.59001 0.7767 0.0
C460 C 0.54275 0.60914 0.79443 0.0
C461 C 0.53112 0.62689 0.82234 0.0
C462 C 0.57512 0.58783 0.70345 0.0
C463 C 0.53628 0.60844 0.68533 0.0
C464 C 0.56298 0.57634 0.73268 0.0
C465 C 0.512 0.58595 0.7444 0.0
C466 C 0.47208 0.60106 0.72511 0.0
C467 C 0.48403 0.61188 0.69601 0.0
H468 H 0.92182 0.85169 0.20481 0.0
H469 H 0.0851 0.86646 0.17848 0.0
H470 H 0.94529 0.86894 0.25497 0.0
H471 H 0.10876 0.88773 0.22833 0.0
H472 H 0.14063 0.83507 0.32271 0.0
H473 H 0.12336 0.8487 0.27128 0.0
H474 H 0.97152 0.91417 0.29372 0.0
H475 H 0.9878 0.89607 0.34502 0.0
C476 C 0.96255 0.86049 0.20965 0.0
C477 C 1.00169 0.8572 0.18784 0.0
C478 C 0.97626 0.87076 0.23856 0.0
C479 C 0.02941 0.87923 0.24628 0.0
C480 C 0.06776 0.87989 0.22374 0.0
C481 C 0.05419 0.8682 0.195 0.0
C482 C 0.10445 0.85397 0.31658 0.0
C483 C 0.06552 0.86447 0.33767 0.0
C484 C 0.09423 0.86185 0.28693 0.0
C485 C 0.04514 0.88145 0.2778 0.0
C486 C 1.00886 0.8972 0.29951 0.0
C487 C 0.01851 0.88784 0.32905 0.0
H488 H 0.5608 0.1544 0.43115 0.0
H489 H 0.54345 0.30734 0.45688 0.0
H490 H 0.64705 0.15086 0.45397 0.0
H491 H 0.63134 0.30457 0.47902 0.0
H492 H 0.7738 0.25591 0.53919 0.0
H493 H 0.68797 0.27239 0.51685 0.0
H494 H 0.73302 0.17995 0.4436 0.0
H495 H 0.81723 0.16185 0.46673 0.0
C496 C 0.57525 0.18715 0.44207 0.0
C497 C 0.54522 0.23103 0.44228 0.0
C498 C 0.62522 0.18546 0.45475 0.0
C499 C 0.64721 0.22789 0.4676 0.0
C500 C 0.61592 0.27121 0.46925 0.0
C501 C 0.56533 0.27272 0.45677 0.0
C502 C 0.76593 0.24062 0.51784 0.0
C503 C 0.80202 0.2073 0.50482 0.0
C504 C 0.71649 0.24972 0.50509 0.0
C505 C 0.70259 0.22607 0.47887 0.0
C506 C 0.74134 0.19723 0.46438 0.0
C507 C 0.79016 0.18756 0.47733 0.0
H508 H 0.02068 0.20226 0.98864 0.0
H509 H 0.91075 0.23632 0.91995 0.0
H510 H 0.94687 0.19682 0.02374 0.0
H511 H 0.83791 0.23367 0.95471 0.0
H512 H 0.70683 0.20161 0.01227 0.0
H513 H 0.78543 0.18023 0.98369 0.0
H514 H 0.88333 0.25015 0.0484 0.0
H515 H 0.80444 0.26924 0.07767 0.0
C516 C 0.9807 0.20796 0.98103 0.0
C517 C 0.97128 0.21866 0.95149 0.0
C518 C 0.93848 0.20541 1.00115 0.0
C519 C 0.88612 0.21403 0.99208 0.0
C520 C 0.87728 0.22529 0.96249 0.0
C521 C 0.9192 0.22757 0.94254 0.0
C522 C 0.74533 0.2108 0.02086 0.0
C523 C 0.74955 0.23751 0.04699 0.0
C524 C 0.7904 0.19912 1.00433 0.0
C525 C 0.84069 0.215 0.01318 0.0
C526 C 0.84534 0.23745 0.0408 0.0
C527 C 0.8001 0.24833 0.05766 0.0
H528 H 0.99732 0.16058 0.5155 0.0
H529 H 0.01577 0.31882 0.52261 0.0
H530 H 0.07659 0.15618 0.4843 0.0
H531 H 0.09348 0.31457 0.49044 0.0
H532 H 0.21401 0.29 0.41598 0.0
H533 H 0.12379 0.2843 0.43575 0.0
H534 H 0.17782 0.18083 0.50091 0.0
H535 H 0.26842 0.18774 0.48172 0.0
C536 C 0.01714 0.1946 0.50965 0.0
C537 C 1.00021 0.24005 0.52169 0.0
C538 C 0.06273 0.19199 0.49191 0.0
C539 C 0.09133 0.23499 0.48503 0.0
C540 C 0.07211 0.28084 0.49524 0.0
C541 C 0.02751 0.28327 0.51363 0.0
C542 C 0.20631 0.26474 0.43389 0.0
C543 C 0.24823 0.2388 0.44707 0.0
C544 C 0.15474 0.26186 0.44536 0.0
C545 C 0.14374 0.23211 0.46985 0.0
C546 C 0.18501 0.20368 0.48185 0.0
C547 C 0.23683 0.20756 0.47085 0.0
H548 H 0.41765 0.24853 0.07522 0.0
H549 H 0.53604 0.30183 0.01441 0.0
H550 H 0.3524 0.24927 0.03684 0.0
H551 H 0.46975 0.30218 0.97542 0.0
H552 H 0.34754 0.20375 0.91825 0.0
H553 H 0.41832 0.23373 0.94951 0.0
H554 H 0.30232 0.30702 1.00445 0.0
H555 H 0.23172 0.27627 0.97332 0.0
C556 C 0.42981 0.26056 0.05361 0.0
C557 C 0.48226 0.2747 0.04785 0.0
C558 C 0.39207 0.26164 0.03165 0.0
C559 C 0.40568 0.27647 1.00317 0.0
C560 C 0.4581 0.29085 0.99724 0.0
C561 C 0.49599 0.29048 0.01949 0.0
C562 C 0.33759 0.22847 0.93613 0.0
C563 C 0.28439 0.23839 0.9432 0.0
C564 C 0.37806 0.24549 0.95411 0.0
C565 C 0.36577 0.272 0.9797 0.0
C566 C 0.31288 0.28616 0.98503 0.0
C567 C 0.2725 0.26919 0.96702 0.0
H568 H 0.52352 0.75364 0.52006 0.0
H569 H 0.46654 0.60767 0.5409 0.0
H570 H 0.46135 0.75947 0.47986 0.0
H571 H 0.40324 0.61334 0.50053 0.0
H572 H 0.24776 0.70905 0.47602 0.0
H573 H 0.32345 0.67059 0.49969 0.0
H574 H 0.42655 0.72851 0.43234 0.0
H575 H 0.35014 0.76654 0.40842 0.0
C576 C 0.49875 0.72212 0.51526 0.0
C577 C 0.49954 0.68027 0.53333 0.0
C578 C 0.46331 0.72525 0.49217 0.0
C579 C 0.42717 0.68692 0.48707 0.0
C580 C 0.43051 0.64349 0.50402 0.0
C581 C 0.46668 0.64012 0.52698 0.0
C582 C 0.28616 0.71121 0.4654 0.0
C583 C 0.29294 0.73981 0.44003 0.0
C584 C 0.32966 0.68928 0.479 0.0
C585 C 0.38106 0.69669 0.46796 0.0
C586 C 0.3874 0.72224 0.44138 0.0
C587 C 0.34373 0.74376 0.4276 0.0
H588 H 0.0513 0.88379 0.03755 0.0
H589 H 1.00035 0.73685 0.01519 0.0
H590 H 0.1152 0.88188 0.99675 0.0
H591 H 0.06331 0.73441 0.97487 0.0
H592 H 0.27615 0.79911 0.96871 0.0
H593 H 0.19767 0.83434 0.99231 0.0
H594 H 0.09915 0.76187 0.92893 0.0
H595 H 0.178 0.72568 0.90597 0.0
C596 C 0.05216 0.85207 0.02308 0.0
C597 C 0.02071 0.81063 0.02921 0.0
C598 C 0.08912 0.85065 0.99995 0.0
C599 C 0.09485 0.80785 0.98253 0.0
C600 C 0.05981 0.76831 0.98737 0.0
C601 C 0.02356 0.76958 0.01054 0.0
C602 C 0.23787 0.79289 0.95896 0.0
C603 C 0.23313 0.76012 0.93535 0.0
C604 C 0.19269 0.81296 0.97253 0.0
C605 C 0.14181 0.80023 0.9629 0.0
C606 C 0.1376 0.77177 0.93726 0.0
C607 C 0.18277 0.7515 0.92384 0.0
H608 H 0.02567 0.74815 0.51365 0.0
H609 H 0.9299 0.84992 0.46424 0.0
H610 H 0.95986 0.74853 0.55287 0.0
H611 H 0.86531 0.85368 0.50418 0.0
H612 H 0.83921 0.74025 0.61924 0.0
H613 H 0.90927 0.78033 0.59095 0.0
H614 H 0.80021 0.80069 0.51959 0.0
H615 H 0.73081 0.76312 0.54844 0.0
C616 C 0.99107 0.77175 0.51172 0.0
C617 C 0.98207 0.79835 0.486 0.0
C618 C 0.95344 0.77259 0.53432 0.0
C619 C 0.90639 0.80067 0.53173 0.0
C620 C 0.90007 0.83053 0.50675 0.0
C621 C 0.9371 0.82868 0.48391 0.0
C622 C 0.82981 0.75605 0.59815 0.0
C623 C 0.77952 0.74931 0.58615 0.0
C624 C 0.87016 0.77814 0.58164 0.0
C625 C 0.86124 0.79249 0.55249 0.0
C626 C 0.80912 0.79063 0.54189 0.0
C627 C 0.76875 0.76934 0.55859 0.0
H628 H 0.80055 0.76339 0.03775 0.0
H629 H 0.68628 0.74592 0.10733 0.0
H630 H 0.73485 0.73843 1.00241 0.0
H631 H 0.62102 0.71727 0.07242 0.0
H632 H 0.49963 0.75836 1.00188 0.0
H633 H 0.56737 0.75729 0.03951 0.0
H634 H 0.67692 0.68802 0.97857 0.0
H635 H 0.60975 0.69256 0.94074 0.0
C636 C 0.76212 0.75151 0.04563 0.0
C637 C 0.74839 0.75677 0.07519 0.0
C638 C 0.72401 0.73732 0.02531 0.0
C639 C 0.67161 0.72709 0.03427 0.0
C640 C 0.66011 0.7267 0.06442 0.0
C641 C 0.69781 0.74215 0.08458 0.0
C642 C 0.53825 0.74287 0.99678 0.0
C643 C 0.54997 0.72612 0.96852 0.0
C644 C 0.5771 0.74156 0.01839 0.0
C645 C 0.62831 0.72272 0.01228 0.0
C646 C 0.63872 0.70389 0.98412 0.0
C647 C 0.60021 0.70621 0.96242 0.0
loop_
_geom_bond_atom_site_label_1
_geom_bond_atom_site_label_2
_geom_bond_distance
_geom_bond_site_symmetry_2
_ccdc_geom_bond_type
Zn0 O6 1.920 . S
Zn0 O12 1.898 . S
Zn0 O15 1.905 . S
Zn1 O9 1.905 . S
Zn1 O10 1.898 . S
Zn1 O18 1.920 . S
Zn2 O5 2.080 . S
Zn2 O8 2.114 . S
Zn2 O11 2.120 . S
Zn2 O13 2.120 . S
Zn2 O14 2.114 . S
Zn2 O17 2.080 . S
C3 O8 1.166 . S
C3 O9 1.182 . S
C4 O10 1.167 . S
C4 O11 1.299 . S
O5 Zn2 2.080 . S
O5 C19 1.305 . S
O6 Zn0 1.920 . S
O6 C19 1.234 . S
C7 O12 1.167 . S
C7 O13 1.299 . S
O8 Zn2 2.114 . S
O8 C3 1.166 . S
O9 Zn1 1.905 . S
O9 C3 1.182 . S
O10 Zn1 1.898 . S
O10 C4 1.167 . S
O11 Zn2 2.120 . S
O11 C4 1.299 . S
O12 Zn0 1.898 . S
O12 C7 1.167 . S
O13 Zn2 2.120 . S
O13 C7 1.299 . S
O14 Zn2 2.114 . S
O14 C16 1.166 . S
O15 Zn0 1.905 . S
O15 C16 1.182 . S
C16 O14 1.166 . S
C16 O15 1.182 . S
O17 Zn2 2.080 . S
O17 C20 1.305 . S
O18 Zn1 1.920 . S
O18 C20 1.234 . S
C19 O5 1.305 . S
C19 O6 1.234 . S
C20 O17 1.305 . S
C20 O18 1.234 . S
Zn21 O27 1.920 . S
Zn21 O33 1.898 . S
Zn21 O36 1.905 . S
Zn22 O30 1.905 . S
Zn22 O31 1.898 . S
Zn22 O39 1.920 . S
Zn23 O26 2.080 . S
Zn23 O29 2.114 . S
Zn23 O32 2.120 . S
Zn23 O34 2.120 . S
Zn23 O35 2.114 . S
Zn23 O38 2.080 . S
C24 O29 1.166 . S
C24 O30 1.182 . S
C25 O31 1.167 . S
C25 O32 1.299 . S
O26 Zn23 2.080 . S
O26 C40 1.305 . S
O27 Zn21 1.920 . S
O27 C40 1.234 . S
C28 O33 1.167 . S
C28 O34 1.299 . S
O29 Zn23 2.114 . S
O29 C24 1.166 . S
O30 Zn22 1.905 . S
O30 C24 1.182 . S
O31 Zn22 1.898 . S
O31 C25 1.167 . S
O32 Zn23 2.120 . S
O32 C25 1.299 . S
O33 Zn21 1.898 . S
O33 C28 1.167 . S
O34 Zn23 2.120 . S
O34 C28 1.299 . S
O35 Zn23 2.114 . S
O35 C37 1.166 . S
O36 Zn21 1.905 . S
O36 C37 1.182 . S
C37 O35 1.166 . S
C37 O36 1.182 . S
O38 Zn23 2.080 . S
O38 C41 1.305 . S
O39 Zn22 1.920 . S
O39 C41 1.234 . S
C40 O26 1.305 . S
C40 O27 1.234 . S
C41 O38 1.305 . S
C41 O39 1.234 . S
Zn42 O48 1.920 . S
Zn42 O54 1.898 . S
Zn42 O57 1.905 . S
Zn43 O51 1.905 . S
Zn43 O52 1.898 . S
Zn43 O60 1.920 . S
Zn44 O47 2.080 . S
Zn44 O50 2.114 . S
Zn44 O53 2.120 . S
Zn44 O55 2.120 . S
Zn44 O56 2.114 . S
Zn44 O59 2.080 . S
C45 O50 1.166 . S
C45 O51 1.182 . S
C46 O52 1.167 . S
C46 O53 1.299 . S
O47 Zn44 2.080 . S
O47 C61 1.305 . S
O48 Zn42 1.920 . S
O48 C61 1.234 . S
C49 O54 1.167 . S
C49 O55 1.299 . S
O50 Zn44 2.114 . S
O50 C45 1.166 . S
O51 Zn43 1.905 . S
O51 C45 1.182 . S
O52 Zn43 1.898 . S
O52 C46 1.167 . S
O53 Zn44 2.120 . S
O53 C46 1.299 . S
O54 Zn42 1.898 . S
O54 C49 1.167 . S
O55 Zn44 2.120 . S
O55 C49 1.299 . S
O56 Zn44 2.114 . S
O56 C58 1.166 . S
O57 Zn42 1.905 . S
O57 C58 1.182 . S
C58 O56 1.166 . S
C58 O57 1.182 . S
O59 Zn44 2.080 . S
O59 C62 1.305 . S
O60 Zn43 1.920 . S
O60 C62 1.234 . S
C61 O47 1.305 . S
C61 O48 1.234 . S
C62 O59 1.305 . S
C62 O60 1.234 . S
Zn63 O69 1.920 . S
Zn63 O75 1.898 . S
Zn63 O78 1.905 . S
Zn64 O72 1.905 . S
Zn64 O73 1.898 . S
Zn64 O81 1.920 . S
Zn65 O68 2.080 . S
Zn65 O71 2.114 . S
Zn65 O74 2.120 . S
Zn65 O76 2.120 . S
Zn65 O77 2.114 . S
Zn65 O80 2.080 . S
C66 O71 1.166 . S
C66 O72 1.182 . S
C67 O73 1.167 . S
C67 O74 1.299 . S
O68 Zn65 2.080 . S
O68 C82 1.305 . S
O69 Zn63 1.920 . S
O69 C82 1.234 . S
C70 O75 1.167 . S
C70 O76 1.299 . S
O71 Zn65 2.114 . S
O71 C66 1.166 . S
O72 Zn64 1.905 . S
O72 C66 1.182 . S
O73 Zn64 1.898 . S
O73 C67 1.167 . S
O74 Zn65 2.120 . S
O74 C67 1.299 . S
O75 Zn63 1.898 . S
O75 C70 1.167 . S
O76 Zn65 2.120 . S
O76 C70 1.299 . S
O77 Zn65 2.114 . S
O77 C79 1.166 . S
O78 Zn63 1.905 . S
O78 C79 1.182 . S
C79 O77 1.166 . S
C79 O78 1.182 . S
O80 Zn65 2.080 . S
O80 C83 1.305 . S
O81 Zn64 1.920 . S
O81 C83 1.234 . S
C82 O68 1.305 . S
C82 O69 1.234 . S
C83 O80 1.305 . S
C83 O81 1.234 . S
Zn84 O90 1.920 . S
Zn84 O96 1.898 . S
Zn84 O99 1.905 . S
Zn85 O93 1.905 . S
Zn85 O94 1.898 . S
Zn85 O102 1.920 . S
Zn86 O89 2.080 . S
Zn86 O92 2.114 . S
Zn86 O95 2.120 . S
Zn86 O97 2.120 . S
Zn86 O98 2.114 . S
Zn86 O101 2.080 . S
C87 O92 1.166 . S
C87 O93 1.182 . S
C88 O94 1.167 . S
C88 O95 1.299 . S
O89 Zn86 2.080 . S
O89 C103 1.305 . S
O90 Zn84 1.920 . S
O90 C103 1.234 . S
C91 O96 1.167 . S
C91 O97 1.299 . S
O92 Zn86 2.114 . S
O92 C87 1.166 . S
O93 Zn85 1.905 . S
O93 C87 1.182 . S
O94 Zn85 1.898 . S
O94 C88 1.167 . S
O95 Zn86 2.120 . S
O95 C88 1.299 . S
O96 Zn84 1.898 . S
O96 C91 1.167 . S
O97 Zn86 2.120 . S
O97 C91 1.299 . S
O98 Zn86 2.114 . S
O98 C100 1.166 . S
O99 Zn84 1.905 . S
O99 C100 1.182 . S
C100 O98 1.166 . S
C100 O99 1.182 . S
O101 Zn86 2.080 . S
O101 C104 1.305 . S
O102 Zn85 1.920 . S
O102 C104 1.234 . S
C103 O89 1.305 . S
C103 O90 1.234 . S
C104 O101 1.305 . S
C104 O102 1.234 . S
Zn105 O111 1.920 . S
Zn105 O117 1.898 . S
Zn105 O120 1.905 . S
Zn106 O114 1.905 . S
Zn106 O115 1.898 . S
Zn106 O123 1.920 . S
Zn107 O110 2.080 . S
Zn107 O113 2.114 . S
Zn107 O116 2.120 . S
Zn107 O118 2.120 . S
Zn107 O119 2.114 . S
Zn107 O122 2.080 . S
C108 O113 1.166 . S
C108 O114 1.182 . S
C109 O115 1.167 . S
C109 O116 1.299 . S
O110 Zn107 2.080 . S
O110 C124 1.305 . S
O111 Zn105 1.920 . S
O111 C124 1.234 . S
C112 O117 1.167 . S
C112 O118 1.299 . S
O113 Zn107 2.114 . S
O113 C108 1.166 . S
O114 Zn106 1.905 . S
O114 C108 1.182 . S
O115 Zn106 1.898 . S
O115 C109 1.167 . S
O116 Zn107 2.120 . S
O116 C109 1.299 . S
O117 Zn105 1.898 . S
O117 C112 1.167 . S
O118 Zn107 2.120 . S
O118 C112 1.299 . S
O119 Zn107 2.114 . S
O119 C121 1.166 . S
O120 Zn105 1.905 . S
O120 C121 1.182 . S
C121 O119 1.166 . S
C121 O120 1.182 . S
O122 Zn107 2.080 . S
O122 C125 1.305 . S
O123 Zn106 1.920 . S
O123 C125 1.234 . S
C124 O110 1.305 . S
C124 O111 1.234 . S
C125 O122 1.305 . S
C125 O123 1.234 . S
Zn126 O132 1.920 . S
Zn126 O138 1.898 . S
Zn126 O141 1.905 . S
Zn127 O135 1.905 . S
Zn127 O136 1.898 . S
Zn127 O144 1.920 . S
Zn128 O131 2.080 . S
Zn128 O134 2.114 . S
Zn128 O137 2.120 . S
Zn128 O139 2.120 . S
Zn128 O140 2.114 . S
Zn128 O143 2.080 . S
C129 O134 1.166 . S
C129 O135 1.182 . S
C130 O136 1.167 . S
C130 O137 1.299 . S
O131 Zn128 2.080 . S
O131 C145 1.305 . S
O132 Zn126 1.920 . S
O132 C145 1.234 . S
C133 O138 1.167 . S
C133 O139 1.299 . S
O134 Zn128 2.114 . S
O134 C129 1.166 . S
O135 Zn127 1.905 . S
O135 C129 1.182 . S
O136 Zn127 1.898 . S
O136 C130 1.167 . S
O137 Zn128 2.120 . S
O137 C130 1.299 . S
O138 Zn126 1.898 . S
O138 C133 1.167 . S
O139 Zn128 2.120 . S
O139 C133 1.299 . S
O140 Zn128 2.114 . S
O140 C142 1.166 . S
O141 Zn126 1.905 . S
O141 C142 1.182 . S
C142 O140 1.166 . S
C142 O141 1.182 . S
O143 Zn128 2.080 . S
O143 C146 1.305 . S
O144 Zn127 1.920 . S
O144 C146 1.234 . S
C145 O131 1.305 . S
C145 O132 1.234 . S
C146 O143 1.305 . S
C146 O144 1.234 . S
Zn147 O153 1.920 . S
Zn147 O159 1.898 . S
Zn147 O162 1.905 . S
Zn148 O156 1.905 . S
Zn148 O157 1.898 . S
Zn148 O165 1.920 . S
Zn149 O152 2.080 . S
Zn149 O155 2.114 . S
Zn149 O158 2.120 . S
Zn149 O160 2.120 . S
Zn149 O161 2.114 . S
Zn149 O164 2.080 . S
C150 O155 1.166 . S
C150 O156 1.182 . S
C151 O157 1.167 . S
C151 O158 1.299 . S
O152 Zn149 2.080 . S
O152 C166 1.305 . S
O153 Zn147 1.920 . S
O153 C166 1.234 . S
C154 O159 1.167 . S
C154 O160 1.299 . S
O155 Zn149 2.114 . S
O155 C150 1.166 . S
O156 Zn148 1.905 . S
O156 C150 1.182 . S
O157 Zn148 1.898 . S
O157 C151 1.167 . S
O158 Zn149 2.120 . S
O158 C151 1.299 . S
O159 Zn147 1.898 . S
O159 C154 1.167 . S
O160 Zn149 2.120 . S
O160 C154 1.299 . S
O161 Zn149 2.114 . S
O161 C163 1.166 . S
O162 Zn147 1.905 . S
O162 C163 1.182 . S
C163 O161 1.166 . S
C163 O162 1.182 . S
O164 Zn149 2.080 . S
O164 C167 1.305 . S
O165 Zn148 1.920 . S
O165 C167 1.234 . S
C166 O152 1.305 . S
C166 O153 1.234 . S
C167 O164 1.305 . S
C167 O165 1.234 . S
H168 C176 0.950 . S
H169 C181 0.950 . S
H170 C178 0.950 . S
H171 C180 0.950 . S
H172 C182 0.950 . S
H173 C184 0.950 . S
H174 C186 0.950 . S
H175 C187 0.950 . S
C176 H168 0.950 . S
C176 C177 1.386 . S
C176 C178 1.391 1_565 S
C177 C176 1.386 . S
C177 C181 1.393 . S
C178 H170 0.950 . S
C178 C176 1.391 1_545 S
C178 C179 1.400 . S
C179 C178 1.400 . S
C179 C180 1.398 . S
C179 C185 1.491 . S
C180 H171 0.950 . S
C180 C179 1.398 . S
C180 C181 1.391 1_545 S
C181 H169 0.950 . S
C181 C177 1.393 . S
C181 C180 1.391 1_565 S
C182 H172 0.950 . S
C182 C183 1.386 . S
C182 C184 1.391 . S
C183 C182 1.386 . S
C183 C187 1.393 . S
C184 H173 0.950 . S
C184 C182 1.391 . S
C184 C185 1.400 . S
C185 C179 1.491 . S
C185 C184 1.400 . S
C185 C186 1.398 . S
C186 H174 0.950 . S
C186 C185 1.398 . S
C186 C187 1.391 . S
C187 H175 0.950 . S
C187 C183 1.393 . S
C187 C186 1.391 . S
H188 C196 0.950 . S
H189 C201 0.950 . S
H190 C198 0.950 . S
H191 C200 0.950 . S
H192 C202 0.950 . S
H193 C204 0.950 . S
H194 C206 0.950 . S
H195 C207 0.950 . S
C196 H188 0.950 . S
C196 C197 1.386 . S
C196 C198 1.391 . S
C197 C196 1.386 . S
C197 C201 1.393 . S
C198 H190 0.950 . S
C198 C196 1.391 . S
C198 C199 1.400 . S
C199 C198 1.400 . S
C199 C200 1.398 . S
C199 C205 1.491 . S
C200 H191 0.950 . S
C200 C199 1.398 . S
C200 C201 1.391 . S
C201 H189 0.950 . S
C201 C197 1.393 . S
C201 C200 1.391 . S
C202 H192 0.950 . S
C202 C203 1.386 . S
C202 C204 1.391 . S
C203 C202 1.386 . S
C203 C207 1.393 . S
C204 H193 0.950 . S
C204 C202 1.391 . S
C204 C205 1.400 . S
C205 C199 1.491 . S
C205 C204 1.400 . S
C205 C206 1.398 . S
C206 H194 0.950 . S
C206 C205 1.398 . S
C206 C207 1.391 . S
C207 H195 0.950 . S
C207 C203 1.393 . S
C207 C206 1.391 . S
H208 C216 0.950 . S
H209 C221 0.950 . S
H210 C218 0.950 . S
H211 C220 0.950 . S
H212 C222 0.950 . S
H213 C224 0.950 . S
H214 C226 0.950 . S
H215 C227 0.950 . S
C216 H208 0.950 . S
C216 C217 1.386 . S
C216 C218 1.391 . S
C217 C216 1.386 . S
C217 C221 1.393 . S
C218 H210 0.950 . S
C218 C216 1.391 . S
C218 C219 1.400 . S
C219 C218 1.400 . S
C219 C220 1.398 . S
C219 C225 1.491 . S
C220 H211 0.950 . S
C220 C219 1.398 . S
C220 C221 1.391 . S
C221 H209 0.950 . S
C221 C217 1.393 . S
C221 C220 1.391 . S
C222 H212 0.950 . S
C222 C223 1.386 . S
C222 C224 1.391 . S
C223 C222 1.386 . S
C223 C227 1.393 . S
C224 H213 0.950 . S
C224 C222 1.391 . S
C224 C225 1.400 . S
C225 C219 1.491 . S
C225 C224 1.400 . S
C225 C226 1.398 . S
C226 H214 0.950 . S
C226 C225 1.398 . S
C226 C227 1.391 . S
C227 H215 0.950 . S
C227 C223 1.393 . S
C227 C226 1.391 . S
H228 C236 0.950 . S
H229 C241 0.950 . S
H230 C238 0.950 . S
H231 C240 0.950 . S
H232 C242 0.950 . S
H233 C244 0.950 . S
H234 C246 0.950 . S
H235 C247 0.950 . S
C236 H228 0.950 . S
C236 C237 1.386 . S
C236 C238 1.391 . S
C237 C236 1.386 . S
C237 C241 1.393 . S
C238 H230 0.950 . S
C238 C236 1.391 . S
C238 C239 1.400 . S
C239 C238 1.400 . S
C239 C240 1.398 . S
C239 C245 1.491 . S
C240 H231 0.950 . S
C240 C239 1.398 . S
C240 C241 1.391 . S
C241 H229 0.950 . S
C241 C237 1.393 . S
C241 C240 1.391 . S
C242 H232 0.950 . S
C242 C243 1.386 . S
C242 C244 1.391 1_565 S
C243 C242 1.386 . S
C243 C247 1.393 . S
C244 H233 0.950 . S
C244 C242 1.391 1_545 S
C244 C245 1.400 . S
C245 C239 1.491 . S
C245 C244 1.400 . S
C245 C246 1.398 . S
C246 H234 0.950 . S
C246 C245 1.398 . S
C246 C247 1.391 1_545 S
C247 H235 0.950 . S
C247 C243 1.393 . S
C247 C246 1.391 1_565 S
H248 C256 0.950 . S
H249 C261 0.950 . S
H250 C258 0.950 . S
H251 C260 0.950 . S
H252 C262 0.950 . S
H253 C264 0.950 . S
H254 C266 0.950 . S
H255 C267 0.950 . S
C256 H248 0.950 . S
C256 C257 1.386 . S
C256 C258 1.391 1_545 S
C257 C256 1.386 . S
C257 C261 1.393 . S
C258 H250 0.950 . S
C258 C256 1.391 1_565 S
C258 C259 1.400 . S
C259 C258 1.400 . S
C259 C260 1.398 . S
C259 C265 1.491 . S
C260 H251 0.950 . S
C260 C259 1.398 . S
C260 C261 1.391 1_565 S
C261 H249 0.950 . S
C261 C257 1.393 . S
C261 C260 1.391 1_545 S
C262 H252 0.950 . S
C262 C263 1.386 . S
C262 C264 1.391 . S
C263 C262 1.386 . S
C263 C267 1.393 . S
C264 H253 0.950 . S
C264 C262 1.391 . S
C264 C265 1.400 . S
C265 C259 1.491 . S
C265 C264 1.400 . S
C265 C266 1.398 . S
C266 H254 0.950 . S
C266 C265 1.398 . S
C266 C267 1.391 . S
C267 H255 0.950 . S
C267 C263 1.393 . S
C267 C266 1.391 . S
H268 C276 0.950 . S
H269 C281 0.950 . S
H270 C278 0.950 . S
H271 C280 0.950 . S
H272 C282 0.950 . S
H273 C284 0.950 . S
H274 C286 0.950 . S
H275 C287 0.950 . S
C276 H268 0.950 . S
C276 C277 1.386 . S
C276 C278 1.391 . S
C277 C276 1.386 . S
C277 C281 1.393 . S
C278 H270 0.950 . S
C278 C276 1.391 . S
C278 C279 1.400 . S
C279 C278 1.400 . S
C279 C280 1.398 . S
C279 C285 1.491 . S
C280 H271 0.950 . S
C280 C279 1.398 . S
C280 C281 1.391 . S
C281 H269 0.950 . S
C281 C277 1.393 . S
C281 C280 1.391 . S
C282 H272 0.950 . S
C282 C283 1.386 . S
C282 C284 1.391 . S
C283 C282 1.386 . S
C283 C287 1.393 . S
C284 H273 0.950 . S
C284 C282 1.391 . S
C284 C285 1.400 . S
C285 C279 1.491 . S
C285 C284 1.400 . S
C285 C286 1.398 . S
C286 H274 0.950 . S
C286 C285 1.398 . S
C286 C287 1.391 . S
C287 H275 0.950 . S
C287 C283 1.393 . S
C287 C286 1.391 . S
H288 C296 0.950 . S
H289 C301 0.950 . S
H290 C298 0.950 . S
H291 C300 0.950 . S
H292 C302 0.950 . S
H293 C304 0.950 . S
H294 C306 0.950 . S
H295 C307 0.950 . S
C296 H288 0.950 . S
C296 C297 1.386 . S
C296 C298 1.391 . S
C297 C296 1.386 . S
C297 C301 1.393 . S
C298 H290 0.950 . S
C298 C296 1.391 . S
C298 C299 1.400 . S
C299 C298 1.400 . S
C299 C300 1.398 . S
C299 C305 1.491 . S
C300 H291 0.950 . S
C300 C299 1.398 . S
C300 C301 1.391 . S
C301 H289 0.950 . S
C301 C297 1.393 . S
C301 C300 1.391 . S
C302 H292 0.950 . S
C302 C303 1.386 . S
C302 C304 1.391 . S
C303 C302 1.386 . S
C303 C307 1.393 . S
C304 H293 0.950 . S
C304 C302 1.391 . S
C304 C305 1.400 . S
C305 C299 1.491 . S
C305 C304 1.400 . S
C305 C306 1.398 . S
C306 H294 0.950 . S
C306 C305 1.398 . S
C306 C307 1.391 . S
C307 H295 0.950 . S
C307 C303 1.393 . S
C307 C306 1.391 . S
H308 C316 0.950 . S
H309 C321 0.950 . S
H310 C318 0.950 . S
H311 C320 0.950 . S
H312 C322 0.950 . S
H313 C324 0.950 . S
H314 C326 0.950 . S
H315 C327 0.950 . S
C316 H308 0.950 . S
C316 C317 1.386 . S
C316 C318 1.391 1_545 S
C317 C316 1.386 . S
C317 C321 1.393 . S
C318 H310 0.950 . S
C318 C316 1.391 1_565 S
C318 C319 1.400 . S
C319 C318 1.400 . S
C319 C320 1.398 . S
C319 C325 1.491 . S
C320 H311 0.950 . S
C320 C319 1.398 . S
C320 C321 1.391 1_565 S
C321 H309 0.950 . S
C321 C317 1.393 . S
C321 C320 1.391 1_545 S
C322 H312 0.950 . S
C322 C323 1.386 . S
C322 C324 1.391 . S
C323 C322 1.386 . S
C323 C327 1.393 . S
C324 H313 0.950 . S
C324 C322 1.391 . S
C324 C325 1.400 . S
C325 C319 1.491 . S
C325 C324 1.400 . S
C325 C326 1.398 . S
C326 H314 0.950 . S
C326 C325 1.398 . S
C326 C327 1.391 . S
C327 H315 0.950 . S
C327 C323 1.393 . S
C327 C326 1.391 . S
H328 C336 0.950 . S
H329 C341 0.950 . S
H330 C338 0.950 . S
H331 C340 0.950 . S
H332 C342 0.950 . S
H333 C344 0.950 . S
H334 C346 0.950 . S
H335 C347 0.950 . S
C336 H328 0.950 . S
C336 C337 1.386 . S
C336 C338 1.391 . S
C337 C336 1.386 . S
C337 C341 1.393 . S
C338 H330 0.950 . S
C338 C336 1.391 . S
C338 C339 1.400 . S
C339 C338 1.400 . S
C339 C340 1.398 . S
C339 C345 1.491 . S
C340 H331 0.950 . S
C340 C339 1.398 . S
C340 C341 1.391 . S
C341 H329 0.950 . S
C341 C337 1.393 . S
C341 C340 1.391 . S
C342 H332 0.950 . S
C342 C343 1.386 . S
C342 C344 1.391 . S
C343 C342 1.386 . S
C343 C347 1.393 . S
C344 H333 0.950 . S
C344 C342 1.391 . S
C344 C345 1.400 . S
C345 C339 1.491 . S
C345 C344 1.400 . S
C345 C346 1.398 . S
C346 H334 0.950 . S
C346 C345 1.398 . S
C346 C347 1.391 . S
C347 H335 0.950 . S
C347 C343 1.393 . S
C347 C346 1.391 . S
H348 C356 0.950 . S
H349 C361 0.950 . S
H350 C358 0.950 1_545 S
H351 C360 0.950 1_556 S
H352 C362 0.950 . S
H353 C364 0.950 1_565 S
H354 C366 0.950 1_554 S
H355 C367 0.950 . S
C356 H348 0.950 . S
C356 C357 1.386 . S
C356 C358 1.391 . S
C357 C356 1.386 . S
C357 C361 1.393 . S
C358 H350 0.950 1_565 S
C358 C356 1.391 . S
C358 C359 1.400 . S
C359 C358 1.400 . S
C359 C360 1.398 . S
C359 C365 1.491 1_664 S
C360 H351 0.950 1_554 S
C360 C359 1.398 . S
C360 C361 1.391 . S
C361 H349 0.950 . S
C361 C357 1.393 . S
C361 C360 1.391 . S
C362 H352 0.950 . S
C362 C363 1.386 . S
C362 C364 1.391 . S
C363 C362 1.386 . S
C363 C367 1.393 . S
C364 H353 0.950 1_545 S
C364 C362 1.391 . S
C364 C365 1.400 . S
C365 C359 1.491 1_446 S
C365 C364 1.400 . S
C365 C366 1.398 . S
C366 H354 0.950 1_556 S
C366 C365 1.398 . S
C366 C367 1.391 . S
C367 H355 0.950 . S
C367 C363 1.393 . S
C367 C366 1.391 . S
H368 C376 0.950 . S
H369 C381 0.950 . S
H370 C378 0.950 1_565 S
H371 C380 0.950 . S
H372 C382 0.950 . S
H373 C384 0.950 1_545 S
H374 C386 0.950 . S
H375 C387 0.950 . S
C376 H368 0.950 . S
C376 C377 1.386 . S
C376 C378 1.391 . S
C377 C376 1.386 . S
C377 C381 1.393 . S
C378 H370 0.950 1_545 S
C378 C376 1.391 . S
C378 C379 1.400 . S
C379 C378 1.400 . S
C379 C380 1.398 . S
C379 C385 1.491 1_645 S
C380 H371 0.950 . S
C380 C379 1.398 . S
C380 C381 1.391 . S
C381 H369 0.950 . S
C381 C377 1.393 . S
C381 C380 1.391 . S
C382 H372 0.950 . S
C382 C383 1.386 . S
C382 C384 1.391 . S
C383 C382 1.386 . S
C383 C387 1.393 . S
C384 H373 0.950 1_565 S
C384 C382 1.391 . S
C384 C385 1.400 . S
C385 C379 1.491 1_465 S
C385 C384 1.400 . S
C385 C386 1.398 . S
C386 H374 0.950 . S
C386 C385 1.398 . S
C386 C387 1.391 . S
C387 H375 0.950 . S
C387 C383 1.393 . S
C387 C386 1.391 . S
H388 C396 0.950 . S
H389 C401 0.950 . S
H390 C398 0.950 . S
H391 C400 0.950 . S
H392 C402 0.950 . S
H393 C404 0.950 . S
H394 C406 0.950 . S
H395 C407 0.950 . S
C396 H388 0.950 . S
C396 C397 1.386 . S
C396 C398 1.391 . S
C397 C396 1.386 . S
C397 C401 1.393 . S
C398 H390 0.950 . S
C398 C396 1.391 . S
C398 C399 1.400 . S
C399 C398 1.400 . S
C399 C400 1.398 . S
C399 C405 1.491 1_556 S
C400 H391 0.950 . S
C400 C399 1.398 . S
C400 C401 1.391 . S
C401 H389 0.950 . S
C401 C397 1.393 . S
C401 C400 1.391 . S
C402 H392 0.950 . S
C402 C403 1.386 . S
C402 C404 1.391 . S
C403 C402 1.386 . S
C403 C407 1.393 . S
C404 H393 0.950 . S
C404 C402 1.391 . S
C404 C405 1.400 . S
C405 C399 1.491 1_554 S
C405 C404 1.400 . S
C405 C406 1.398 . S
C406 H394 0.950 . S
C406 C405 1.398 . S
C406 C407 1.391 . S
C407 H395 0.950 . S
C407 C403 1.393 . S
C407 C406 1.391 . S
H408 C416 0.950 . S
H409 C421 0.950 . S
H410 C418 0.950 . S
H411 C420 0.950 . S
H412 C422 0.950 . S
H413 C424 0.950 . S
H414 C426 0.950 . S
H415 C427 0.950 . S
C416 H408 0.950 . S
C416 C417 1.386 . S
C416 C418 1.391 . S
C417 C416 1.386 . S
C417 C421 1.393 . S
C418 H410 0.950 . S
C418 C416 1.391 . S
C418 C419 1.400 . S
C419 C418 1.400 . S
C419 C420 1.398 . S
C419 C425 1.491 . S
C420 H411 0.950 . S
C420 C419 1.398 . S
C420 C421 1.391 . S
C421 H409 0.950 . S
C421 C417 1.393 . S
C421 C420 1.391 . S
C422 H412 0.950 . S
C422 C423 1.386 . S
C422 C424 1.391 . S
C423 C422 1.386 . S
C423 C427 1.393 . S
C424 H413 0.950 . S
C424 C422 1.391 . S
C424 C425 1.400 . S
C425 C419 1.491 . S
C425 C424 1.400 . S
C425 C426 1.398 . S
C426 H414 0.950 . S
C426 C425 1.398 . S
C426 C427 1.391 . S
C427 H415 0.950 . S
C427 C423 1.393 . S
C427 C426 1.391 . S
H428 C436 0.950 . S
H429 C441 0.950 1_655 S
H430 C438 0.950 . S
H431 C440 0.950 . S
H432 C442 0.950 . S
H433 C444 0.950 . S
H434 C446 0.950 . S
H435 C447 0.950 1_455 S
C436 H428 0.950 . S
C436 C437 1.386 . S
C436 C438 1.391 . S
C437 C436 1.386 . S
C437 C441 1.393 . S
C438 H430 0.950 . S
C438 C436 1.391 . S
C438 C439 1.400 . S
C439 C438 1.400 . S
C439 C440 1.398 1_455 S
C439 C445 1.491 1_455 S
C440 H431 0.950 . S
C440 C439 1.398 1_655 S
C440 C441 1.391 1_655 S
C441 H429 0.950 1_455 S
C441 C437 1.393 . S
C441 C440 1.391 1_455 S
C442 H432 0.950 . S
C442 C443 1.386 . S
C442 C444 1.391 . S
C443 C442 1.386 . S
C443 C447 1.393 . S
C444 H433 0.950 . S
C444 C442 1.391 . S
C444 C445 1.400 . S
C445 C439 1.491 1_655 S
C445 C444 1.400 . S
C445 C446 1.398 1_655 S
C446 H434 0.950 . S
C446 C445 1.398 1_455 S
C446 C447 1.391 1_455 S
C447 H435 0.950 1_655 S
C447 C443 1.393 . S
C447 C446 1.391 1_655 S
H448 C456 0.950 . S
H449 C461 0.950 . S
H450 C458 0.950 . S
H451 C460 0.950 . S
H452 C462 0.950 . S
H453 C464 0.950 . S
H454 C466 0.950 . S
H455 C467 0.950 . S
C456 H448 0.950 . S
C456 C457 1.386 . S
C456 C458 1.391 . S
C457 C456 1.386 . S
C457 C461 1.393 . S
C458 H450 0.950 . S
C458 C456 1.391 . S
C458 C459 1.400 . S
C459 C458 1.400 . S
C459 C460 1.398 . S
C459 C465 1.491 . S
C460 H451 0.950 . S
C460 C459 1.398 . S
C460 C461 1.391 . S
C461 H449 0.950 . S
C461 C457 1.393 . S
C461 C460 1.391 . S
C462 H452 0.950 . S
C462 C463 1.386 . S
C462 C464 1.391 . S
C463 C462 1.386 . S
C463 C467 1.393 . S
C464 H453 0.950 . S
C464 C462 1.391 . S
C464 C465 1.400 . S
C465 C459 1.491 . S
C465 C464 1.400 . S
C465 C466 1.398 . S
C466 H454 0.950 . S
C466 C465 1.398 . S
C466 C467 1.391 . S
C467 H455 0.950 . S
C467 C463 1.393 . S
C467 C466 1.391 . S
H468 C476 0.950 . S
H469 C481 0.964 . S
H470 C478 0.950 . S
H471 C480 0.950 . S
H472 C482 0.950 . S
H473 C484 0.950 . S
H474 C486 0.950 . S
H475 C487 0.964 . S
C476 H468 0.950 . S
C476 C477 1.386 . S
C476 C478 1.391 . S
C477 C476 1.386 . S
C477 C481 1.370 1_655 S
C478 H470 0.950 . S
C478 C476 1.391 . S
C478 C479 1.400 . S
C479 C478 1.400 . S
C479 C480 1.398 1_655 S
C479 C485 1.491 1_655 S
C480 H471 0.950 . S
C480 C479 1.398 1_455 S
C480 C481 1.399 . S
C481 H469 0.964 . S
C481 C477 1.370 1_455 S
C481 C480 1.399 . S
C482 H472 0.950 . S
C482 C483 1.386 . S
C482 C484 1.391 . S
C483 C482 1.386 . S
C483 C487 1.370 1_455 S
C484 H473 0.950 . S
C484 C482 1.391 . S
C484 C485 1.400 . S
C485 C479 1.491 1_455 S
C485 C484 1.400 . S
C485 C486 1.398 1_455 S
C486 H474 0.950 . S
C486 C485 1.398 1_655 S
C486 C487 1.399 . S
C487 H475 0.964 . S
C487 C483 1.370 1_655 S
C487 C486 1.399 . S
H488 C496 0.950 . S
H489 C501 0.950 . S
H490 C498 0.950 . S
H491 C500 0.950 . S
H492 C502 0.950 . S
H493 C504 0.950 . S
H494 C506 0.950 . S
H495 C507 0.950 . S
C496 H488 0.950 . S
C496 C497 1.386 . S
C496 C498 1.391 . S
C497 C496 1.386 . S
C497 C501 1.393 . S
C498 H490 0.950 . S
C498 C496 1.391 . S
C498 C499 1.400 . S
C499 C498 1.400 . S
C499 C500 1.398 . S
C499 C505 1.491 . S
C500 H491 0.950 . S
C500 C499 1.398 . S
C500 C501 1.391 . S
C501 H489 0.950 . S
C501 C497 1.393 . S
C501 C500 1.391 . S
C502 H492 0.950 . S
C502 C503 1.386 . S
C502 C504 1.391 . S
C503 C502 1.386 . S
C503 C507 1.393 . S
C504 H493 0.950 . S
C504 C502 1.391 . S
C504 C505 1.400 . S
C505 C499 1.491 . S
C505 C504 1.400 . S
C505 C506 1.398 . S
C506 H494 0.950 . S
C506 C505 1.398 . S
C506 C507 1.391 . S
C507 H495 0.950 . S
C507 C503 1.393 . S
C507 C506 1.391 . S
H508 C516 0.950 1_455 S
H509 C521 0.950 . S
H510 C518 0.950 1_554 S
H511 C520 0.950 . S
H512 C522 0.950 1_556 S
H513 C524 0.950 . S
H514 C526 0.950 . S
H515 C527 0.950 . S
C516 H508 0.950 1_655 S
C516 C517 1.386 . S
C516 C518 1.391 . S
C517 C516 1.386 . S
C517 C521 1.393 . S
C518 H510 0.950 1_556 S
C518 C516 1.391 . S
C518 C519 1.400 . S
C519 C518 1.400 . S
C519 C520 1.398 . S
C519 C525 1.491 . S
C520 H511 0.950 . S
C520 C519 1.398 . S
C520 C521 1.391 . S
C521 H509 0.950 . S
C521 C517 1.393 . S
C521 C520 1.391 . S
C522 H512 0.950 1_554 S
C522 C523 1.386 . S
C522 C524 1.391 1_554 S
C523 C522 1.386 . S
C523 C527 1.393 . S
C524 H513 0.950 . S
C524 C522 1.391 1_556 S
C524 C525 1.400 . S
C525 C519 1.491 . S
C525 C524 1.400 . S
C525 C526 1.398 1_556 S
C526 H514 0.950 . S
C526 C525 1.398 1_554 S
C526 C527 1.391 . S
C527 H515 0.950 . S
C527 C523 1.393 . S
C527 C526 1.391 . S
H528 C536 0.950 . S
H529 C541 0.950 1_655 S
H530 C538 0.950 . S
H531 C540 0.950 . S
H532 C542 0.950 . S
H533 C544 0.950 . S
H534 C546 0.950 . S
H535 C547 0.950 . S
C536 H528 0.950 . S
C536 C537 1.386 . S
C536 C538 1.391 . S
C537 C536 1.386 . S
C537 C541 1.393 . S
C538 H530 0.950 . S
C538 C536 1.391 . S
C538 C539 1.400 . S
C539 C538 1.400 . S
C539 C540 1.398 . S
C539 C545 1.491 . S
C540 H531 0.950 . S
C540 C539 1.398 . S
C540 C541 1.391 . S
C541 H529 0.950 1_455 S
C541 C537 1.393 . S
C541 C540 1.391 . S
C542 H532 0.950 . S
C542 C543 1.386 . S
C542 C544 1.391 . S
C543 C542 1.386 . S
C543 C547 1.393 . S
C544 H533 0.950 . S
C544 C542 1.391 . S
C544 C545 1.400 . S
C545 C539 1.491 . S
C545 C544 1.400 . S
C545 C546 1.398 . S
C546 H534 0.950 . S
C546 C545 1.398 . S
C546 C547 1.391 . S
C547 H535 0.950 . S
C547 C543 1.393 . S
C547 C546 1.391 . S
H548 C556 0.950 . S
H549 C561 0.950 . S
H550 C558 0.950 . S
H551 C560 0.950 . S
H552 C562 0.950 . S
H553 C564 0.950 . S
H554 C566 0.950 . S
H555 C567 0.950 . S
C556 H548 0.950 . S
C556 C557 1.386 . S
C556 C558 1.391 . S
C557 C556 1.386 . S
C557 C561 1.393 . S
C558 H550 0.950 . S
C558 C556 1.391 . S
C558 C559 1.400 . S
C559 C558 1.400 . S
C559 C560 1.398 . S
C559 C565 1.491 . S
C560 H551 0.950 . S
C560 C559 1.398 . S
C560 C561 1.391 . S
C561 H549 0.950 . S
C561 C557 1.393 . S
C561 C560 1.391 . S
C562 H552 0.950 . S
C562 C563 1.386 . S
C562 C564 1.391 . S
C563 C562 1.386 . S
C563 C567 1.393 . S
C564 H553 0.950 . S
C564 C562 1.391 . S
C564 C565 1.400 1_556 S
C565 C559 1.491 . S
C565 C564 1.400 1_554 S
C565 C566 1.398 . S
C566 H554 0.950 . S
C566 C565 1.398 . S
C566 C567 1.391 1_554 S
C567 H555 0.950 . S
C567 C563 1.393 . S
C567 C566 1.391 1_556 S
H568 C576 0.950 . S
H569 C581 0.950 . S
H570 C578 0.950 . S
H571 C580 0.950 . S
H572 C582 0.950 . S
H573 C584 0.950 . S
H574 C586 0.950 . S
H575 C587 0.950 . S
C576 H568 0.950 . S
C576 C577 1.386 . S
C576 C578 1.391 . S
C577 C576 1.386 . S
C577 C581 1.393 . S
C578 H570 0.950 . S
C578 C576 1.391 . S
C578 C579 1.400 . S
C579 C578 1.400 . S
C579 C580 1.398 . S
C579 C585 1.491 . S
C580 H571 0.950 . S
C580 C579 1.398 . S
C580 C581 1.391 . S
C581 H569 0.950 . S
C581 C577 1.393 . S
C581 C580 1.391 . S
C582 H572 0.950 . S
C582 C583 1.386 . S
C582 C584 1.391 . S
C583 C582 1.386 . S
C583 C587 1.393 . S
C584 H573 0.950 . S
C584 C582 1.391 . S
C584 C585 1.400 . S
C585 C579 1.491 . S
C585 C584 1.400 . S
C585 C586 1.398 . S
C586 H574 0.950 . S
C586 C585 1.398 . S
C586 C587 1.391 . S
C587 H575 0.950 . S
C587 C583 1.393 . S
C587 C586 1.391 . S
H588 C596 0.950 . S
H589 C601 0.950 . S
H590 C598 0.950 . S
H591 C600 0.950 . S
H592 C602 0.950 . S
H593 C604 0.950 . S
H594 C606 0.950 . S
H595 C607 0.950 . S
C596 H588 0.950 . S
C596 C597 1.386 . S
C596 C598 1.391 . S
C597 C596 1.386 . S
C597 C601 1.393 . S
C598 H590 0.950 . S
C598 C596 1.391 . S
C598 C599 1.400 . S
C599 C598 1.400 . S
C599 C600 1.398 . S
C599 C605 1.491 . S
C600 H591 0.950 . S
C600 C599 1.398 . S
C600 C601 1.391 . S
C601 H589 0.950 . S
C601 C597 1.393 . S
C601 C600 1.391 . S
C602 H592 0.950 . S
C602 C603 1.386 . S
C602 C604 1.391 1_556 S
C603 C602 1.386 . S
C603 C607 1.393 . S
C604 H593 0.950 . S
C604 C602 1.391 1_554 S
C604 C605 1.400 . S
C605 C599 1.491 . S
C605 C604 1.400 . S
C605 C606 1.398 1_554 S
C606 H594 0.950 . S
C606 C605 1.398 1_556 S
C606 C607 1.391 . S
C607 H595 0.950 . S
C607 C603 1.393 . S
C607 C606 1.391 . S
H608 C616 0.950 . S
H609 C621 0.950 . S
H610 C618 0.950 . S
H611 C620 0.950 . S
H612 C622 0.950 . S
H613 C624 0.950 . S
H614 C626 0.950 . S
H615 C627 0.950 . S
C616 H608 0.950 . S
C616 C617 1.386 . S
C616 C618 1.391 . S
C617 C616 1.386 . S
C617 C621 1.393 . S
C618 H610 0.950 . S
C618 C616 1.391 . S
C618 C619 1.400 . S
C619 C618 1.400 . S
C619 C620 1.398 . S
C619 C625 1.491 . S
C620 H611 0.950 . S
C620 C619 1.398 . S
C620 C621 1.391 . S
C621 H609 0.950 . S
C621 C617 1.393 . S
C621 C620 1.391 . S
C622 H612 0.950 . S
C622 C623 1.386 . S
C622 C624 1.391 . S
C623 C622 1.386 . S
C623 C627 1.393 . S
C624 H613 0.950 . S
C624 C622 1.391 . S
C624 C625 1.400 . S
C625 C619 1.491 . S
C625 C624 1.400 . S
C625 C626 1.398 . S
C626 H614 0.950 . S
C626 C625 1.398 . S
C626 C627 1.391 . S
C627 H615 0.950 . S
C627 C623 1.393 . S
C627 C626 1.391 . S
H628 C636 0.947 1_556 S
H629 C641 0.950 . S
H630 C638 0.950 . S
H631 C640 0.950 . S
H632 C642 0.950 . S
H633 C644 0.950 1_554 S
H634 C646 0.950 . S
H635 C647 0.950 . S
C636 H628 0.947 1_554 S
C636 C637 1.386 . S
C636 C638 1.391 1_554 S
C637 C636 1.386 . S
C637 C641 1.393 . S
C638 H630 0.950 . S
C638 C636 1.391 1_556 S
C638 C639 1.400 . S
C639 C638 1.400 . S
C639 C640 1.398 1_556 S
C639 C645 1.491 . S
C640 H631 0.950 . S
C640 C639 1.398 1_554 S
C640 C641 1.391 . S
C641 H629 0.950 . S
C641 C637 1.393 . S
C641 C640 1.391 . S
C642 H632 0.950 . S
C642 C643 1.386 . S
C642 C644 1.391 . S
C643 C642 1.386 . S
C643 C647 1.393 . S
C644 H633 0.950 1_556 S
C644 C642 1.391 . S
C644 C645 1.400 . S
C645 C639 1.491 . S
C645 C644 1.400 . S
C645 C646 1.398 . S
C646 H634 0.950 . S
C646 C645 1.398 . S
C646 C647 1.391 . S
C647 H635 0.950 . S
C647 C643 1.393 . S
C647 C646 1.391 . S
C177 C142 1.132 . S
C183 C3 1.356 . S
C197 C37 1.356 . S
C203 C163 1.151 . S
C217 C100 1.136 . S
C223 C58 1.385 . S
C237 C79 1.369 . S
C243 C121 1.122 . S
C257 C45 1.146 . S
C263 C87 1.355 . S
C277 C108 1.363 . S
C283 C66 1.169 . S
C297 C16 1.181 . S
C303 C129 1.387 . S
C317 C24 1.165 . S
C323 C150 1.393 . S
C337 C19 0.676 . S
C343 C103 0.676 . S
C357 C124 0.684 . S
C363 C41 0.684 . S
C377 C62 0.597 . S
C383 C145 0.597 . S
C397 C166 0.653 . S
C403 C83 0.653 . S
C417 C70 1.264 . S
C423 C4 1.240 . S
C437 C28 1.270 . S
C443 C49 1.226 . S
C457 C151 1.229 . S
C463 C88 1.249 . S
C477 C109 1.222 . S
C483 C130 1.267 . S
C497 C20 1.704 . S
C503 C46 1.607 . S
C517 C40 1.684 1_655 S
C523 C67 1.637 . S
C537 C61 1.705 1_455 S
C543 C7 1.612 . S
C557 C82 1.690 . S
C563 C25 1.614 . S
C577 C104 1.699 . S
C583 C133 1.606 . S
C597 C125 1.689 1_455 S
C603 C154 1.616 . S
C617 C146 1.697 1_655 S
C623 C91 1.629 . S
C637 C112 1.635 . S
C643 C167 1.683 . S
