# Generated by pormake.
# Topology uoy, (4)-cn, num edge types: 1
# Building blocks:
#     Node 0, Type 0, BuildingBlock: GALJAG_clean_sbu_0, # of connection points: 4
#     Node 1, Type 0, BuildingBlock: GALJAG_clean_sbu_0, # of connection points: 4
#     Node 2, Type 0, BuildingBlock: GALJAG_clean_sbu_0, # of connection points: 4
#     Node 3, Type 0, BuildingBlock: GALJAG_clean_sbu_0, # of connection points: 4
#     Node 4, Type 0, BuildingBlock: GALJAG_clean_sbu_0, # of connection points: 4
#     Node 5, Type 0, BuildingBlock: GALJAG_clean_sbu_0, # of connection points: 4
#     Node 6, Type 0, BuildingBlock: GALJAG_clean_sbu_0, # of connection points: 4
#     Node 7, Type 0, BuildingBlock: GALJAG_clean_sbu_0, # of connection points: 4
#     Node 8, Type 0, BuildingBlock: GALJAG_clean_sbu_0, # of connection points: 4
#     Node 9, Type 0, BuildingBlock: GALJAG_clean_sbu_0, # of connection points: 4
#     Node 10, Type 0, BuildingBlock: GALJAG_clean_sbu_0, # of connection points: 4
#     Node 11, Type 0, BuildingBlock: GALJAG_clean_sbu_0, # of connection points: 4
#     Node 12, Type 0, BuildingBlock: GALJAG_clean_sbu_0, # of connection points: 4
#     Node 13, Type 0, BuildingBlock: GALJAG_clean_sbu_0, # of connection points: 4
#     Node 14, Type 0, BuildingBlock: GALJAG_clean_sbu_0, # of connection points: 4
#     Node 15, Type 0, BuildingBlock: GALJAG_clean_sbu_0, # of connection points: 4
#     Edge 16, Type (0, 0), BuildingBlock: CIFDUS_clean_linker_0, # of connection points: 2
#     Edge 17, Type (0, 0), BuildingBlock: CIFDUS_clean_linker_0, # of connection points: 2
#     Edge 18, Type (0, 0), BuildingBlock: CIFDUS_clean_linker_0, # of connection points: 2
#     Edge 19, Type (0, 0), BuildingBlock: CIFDUS_clean_linker_0, # of connection points: 2
#     Edge 20, Type (0, 0), BuildingBlock: CIFDUS_clean_linker_0, # of connection points: 2
#     Edge 21, Type (0, 0), BuildingBlock: CIFDUS_clean_linker_0, # of connection points: 2
#     Edge 22, Type (0, 0), BuildingBlock: CIFDUS_clean_linker_0, # of connection points: 2
#     Edge 23, Type (0, 0), BuildingBlock: CIFDUS_clean_linker_0, # of connection points: 2
#     Edge 24, Type (0, 0), BuildingBlock: CIFDUS_clean_linker_0, # of connection points: 2
#     Edge 25, Type (0, 0), BuildingBlock: CIFDUS_clean_linker_0, # of connection points: 2
#     Edge 26, Type (0, 0), BuildingBlock: CIFDUS_clean_linker_0, # of connection points: 2
#     Edge 27, Type (0, 0), BuildingBlock: CIFDUS_clean_linker_0, # of connection points: 2
#     Edge 28, Type (0, 0), BuildingBlock: CIFDUS_clean_linker_0, # of connection points: 2
#     Edge 29, Type (0, 0), BuildingBlock: CIFDUS_clean_linker_0, # of connection points: 2
#     Edge 30, Type (0, 0), BuildingBlock: CIFDUS_clean_linker_0, # of connection points: 2
#     Edge 31, Type (0, 0), BuildingBlock: CIFDUS_clean_linker_0, # of connection points: 2
#     Edge 32, Type (0, 0), BuildingBlock: CIFDUS_clean_linker_0, # of connection points: 2
#     Edge 33, Type (0, 0), BuildingBlock: CIFDUS_clean_linker_0, # of connection points: 2
#     Edge 34, Type (0, 0), BuildingBlock: CIFDUS_clean_linker_0, # of connection points: 2
#     Edge 35, Type (0, 0), BuildingBlock: CIFDUS_clean_linker_0, # of connection points: 2
#     Edge 36, Type (0, 0), BuildingBlock: CIFDUS_clean_linker_0, # of connection points: 2
#     Edge 37, Type (0, 0), BuildingBlock: CIFDUS_clean_linker_0, # of connection points: 2
#     Edge 38, Type (0, 0), BuildingBlock: CIFDUS_clean_linker_0, # of connection points: 2
#     Edge 39, Type (0, 0), BuildingBlock: CIFDUS_clean_linker_0, # of connection points: 2
#     Edge 40, Type (0, 0), BuildingBlock: CIFDUS_clean_linker_0, # of connection points: 2
#     Edge 41, Type (0, 0), BuildingBlock: CIFDUS_clean_linker_0, # of connection points: 2
#     Edge 42, Type (0, 0), BuildingBlock: CIFDUS_clean_linker_0, # of connection points: 2
#     Edge 43, Type (0, 0), BuildingBlock: CIFDUS_clean_linker_0, # of connection points: 2
#     Edge 44, Type (0, 0), BuildingBlock: CIFDUS_clean_linker_0, # of connection points: 2
#     Edge 45, Type (0, 0), BuildingBlock: CIFDUS_clean_linker_0, # of connection points: 2
#     Edge 46, Type (0, 0), BuildingBlock: CIFDUS_clean_linker_0, # of connection points: 2
#     Edge 47, Type (0, 0), BuildingBlock: CIFDUS_clean_linker_0, # of connection points: 2
# Relax obj value: 0.037
# Max RMSD: 0.056
# Mean RMSD: 0.056
data_MOF--net-uoy--node1-GALJAG_clean_sbu_0--edge1-CIFDUS_clean_linker_0
_symmetry_space_group_name_H-M    P1
_symmetry_Int_Tables_number       1
_symmetry_cell_setting            triclinic
loop_
_symmetry_equiv_pos_as_xyz
'x, y, z'
_cell_length_a     24.187752
_cell_length_b     24.074735
_cell_length_c     96.46823
_cell_angle_alpha  89.924276
_cell_angle_beta   90.018134
_cell_angle_gamma 90.068255
loop_
_atom_site_label
_atom_site_type_symbol
_atom_site_fract_x
_atom_site_fract_y
_atom_site_fract_z
_atom_type_partial_charge
In0 In 0.25467 0.12244 0.18639 0.0
O1 O 0.24384 0.20582 0.17531 0.0
O2 O 0.2464 0.13233 0.1631 0.0
C3 C 0.27453 0.15183 0.21288 0.0
C4 C 0.15843 0.0653 0.18768 0.0
C5 C 0.35774 0.0854 0.18154 0.0
O6 O 0.25292 0.18542 0.20438 0.0
O7 O 0.2836 0.10399 0.20815 0.0
O8 O 0.31673 0.05291 0.1825 0.0
O9 O 0.34627 0.13635 0.18266 0.0
C10 C 0.24251 0.18456 0.16334 0.0
O11 O 0.20381 0.0426 0.1846 0.0
O12 O 0.16174 0.11657 0.19022 0.0
In13 In 0.87688 0.75538 0.43761 0.0
O14 O 0.94738 0.69248 0.43566 0.0
O15 O 0.86666 0.66176 0.43988 0.0
C16 C 0.93693 0.85008 0.43538 0.0
C17 C 0.81636 0.74905 0.41419 0.0
C18 C 0.83418 0.77268 0.46311 0.0
O19 O 0.95901 0.80349 0.43773 0.0
O20 O 0.88521 0.84848 0.43394 0.0
O21 O 0.80927 0.78638 0.45216 0.0
O22 O 0.88019 0.74933 0.46122 0.0
C23 C 0.91693 0.65062 0.43778 0.0
O24 O 0.79492 0.74783 0.42611 0.0
O25 O 0.86837 0.75334 0.41409 0.0
In26 In 0.25522 0.38247 0.68656 0.0
O27 O 0.247 0.29862 0.67557 0.0
O28 O 0.2695 0.36879 0.66348 0.0
C29 C 0.2409 0.34675 0.71297 0.0
C30 C 0.35269 0.4371 0.68807 0.0
C31 C 0.16021 0.43682 0.6814 0.0
O32 O 0.27015 0.32031 0.70441 0.0
O33 O 0.21958 0.39045 0.70823 0.0
O34 O 0.206 0.46152 0.68278 0.0
O35 O 0.16251 0.38455 0.68247 0.0
C36 C 0.25882 0.31756 0.66373 0.0
O37 O 0.30723 0.4616 0.68629 0.0
O38 O 0.34907 0.38501 0.68908 0.0
In39 In 0.61658 0.74752 0.93907 0.0
O40 O 0.53682 0.79702 0.941 0.0
O41 O 0.61278 0.84168 0.93971 0.0
C42 C 0.57664 0.64318 0.93771 0.0
C43 C 0.65931 0.75904 0.91346 0.0
C44 C 0.66716 0.74121 0.96393 0.0
O45 O 0.54524 0.68504 0.93822 0.0
O46 O 0.62756 0.6542 0.93797 0.0
O47 O 0.69306 0.7349 0.95267 0.0
O48 O 0.61645 0.75205 0.96259 0.0
C49 C 0.56075 0.84372 0.9407 0.0
O50 O 0.68827 0.76531 0.92426 0.0
O51 O 0.60925 0.7474 0.91565 0.0
In52 In 0.24909 0.38489 0.06497 0.0
O53 O 0.2529 0.3009 0.07606 0.0
O54 O 0.24048 0.37354 0.08821 0.0
C55 C 0.2675 0.35965 0.03817 0.0
C56 C 0.14463 0.42408 0.06382 0.0
C57 C 0.34545 0.43811 0.06958 0.0
O58 O 0.25538 0.32257 0.04696 0.0
O59 O 0.26887 0.40844 0.04288 0.0
O60 O 0.29933 0.46285 0.06987 0.0
O61 O 0.34259 0.38657 0.06727 0.0
C62 C 0.24581 0.32144 0.08799 0.0
O63 O 0.18561 0.45514 0.06627 0.0
O64 O 0.15653 0.37371 0.06187 0.0
In65 In 0.62257 0.76242 0.31527 0.0
O66 O 0.54952 0.70073 0.31678 0.0
O67 O 0.62971 0.66883 0.31266 0.0
C68 C 0.57512 0.86419 0.31842 0.0
C69 C 0.68129 0.75061 0.3388 0.0
C70 C 0.66819 0.77853 0.29003 0.0
O71 O 0.54684 0.82184 0.31519 0.0
O72 O 0.62572 0.8545 0.3202 0.0
O73 O 0.69405 0.78679 0.30118 0.0
O74 O 0.6193 0.76119 0.29153 0.0
C75 C 0.57923 0.6583 0.31463 0.0
O76 O 0.70329 0.75036 0.32694 0.0
O77 O 0.62935 0.75624 0.3388 0.0
In78 In 0.25692 0.11339 0.56582 0.0
O79 O 0.26282 0.19697 0.5769 0.0
O80 O 0.25291 0.12437 0.58923 0.0
C81 C 0.24855 0.14781 0.53922 0.0
C82 C 0.36135 0.07395 0.56704 0.0
C83 C 0.16077 0.0565 0.56831 0.0
O84 O 0.23343 0.17752 0.54929 0.0
O85 O 0.26835 0.10129 0.54257 0.0
O86 O 0.20737 0.03299 0.56908 0.0
O87 O 0.16295 0.1082 0.56632 0.0
C88 C 0.25836 0.17648 0.58891 0.0
O89 O 0.3196 0.04226 0.56712 0.0
O90 O 0.35021 0.12508 0.56633 0.0
In91 In 0.87396 0.76335 0.81736 0.0
O92 O 0.79915 0.7656 0.83175 0.0
O93 O 0.87975 0.77298 0.84058 0.0
C94 C 0.8358 0.74869 0.79148 0.0
C95 C 0.91475 0.86718 0.81518 0.0
C96 C 0.9153 0.66029 0.82051 0.0
O97 O 0.80351 0.75999 0.80141 0.0
O98 O 0.88636 0.7463 0.79465 0.0
O99 O 0.9465 0.70249 0.81949 0.0
O100 O 0.86419 0.67069 0.82009 0.0
C101 C 0.8282 0.77112 0.84259 0.0
O102 O 0.94607 0.82527 0.81634 0.0
O103 O 0.86374 0.8562 0.81497 0.0
In104 In 0.75924 0.60662 0.68851 0.0
O105 O 0.70723 0.52764 0.68985 0.0
O106 O 0.66517 0.60485 0.69049 0.0
C107 C 0.85306 0.55362 0.68156 0.0
C108 C 0.75221 0.6739 0.66618 0.0
C109 C 0.78146 0.63904 0.71479 0.0
O110 O 0.80727 0.52867 0.68274 0.0
O111 O 0.85108 0.60541 0.6836 0.0
O112 O 0.74955 0.66656 0.70705 0.0
O113 O 0.80059 0.59566 0.70938 0.0
C114 C 0.66158 0.55261 0.69061 0.0
O115 O 0.76373 0.69211 0.67811 0.0
O116 O 0.7437 0.62228 0.66563 0.0
In117 In 0.3831 0.24716 0.93621 0.0
O118 O 0.30741 0.2421 0.92201 0.0
O119 O 0.38732 0.23898 0.91284 0.0
C120 C 0.3404 0.2577 0.96186 0.0
C121 C 0.44035 0.15166 0.93848 0.0
C122 C 0.42143 0.35142 0.93377 0.0
O123 O 0.31277 0.23599 0.95213 0.0
O124 O 0.38868 0.27245 0.95864 0.0
O125 O 0.45326 0.31003 0.93501 0.0
O126 O 0.37048 0.33989 0.93352 0.0
C127 C 0.33572 0.23893 0.91101 0.0
O128 O 0.46372 0.19808 0.93675 0.0
O129 O 0.3883 0.15361 0.93914 0.0
In130 In 0.75309 0.89145 0.18637 0.0
O131 O 0.76952 0.81686 0.17235 0.0
O132 O 0.75584 0.89556 0.1629 0.0
C133 C 0.74273 0.84238 0.2114 0.0
C134 C 0.84993 0.94649 0.1883 0.0
C135 C 0.64947 0.93199 0.184 0.0
O136 O 0.73759 0.81576 0.20021 0.0
O137 O 0.75482 0.89301 0.20995 0.0
O138 O 0.69122 0.96354 0.18459 0.0
O139 O 0.66033 0.88093 0.18464 0.0
C140 C 0.76522 0.84448 0.16125 0.0
O141 O 0.80373 0.97103 0.18847 0.0
O142 O 0.84712 0.89426 0.18726 0.0
In143 In 0.1158 0.25496 0.43786 0.0
O144 O 0.04457 0.31737 0.43695 0.0
O145 O 0.12679 0.34885 0.43725 0.0
C146 C 0.05867 0.15861 0.43552 0.0
C147 C 0.17836 0.25593 0.41468 0.0
C148 C 0.15039 0.24702 0.46444 0.0
O149 O 0.03579 0.20553 0.43435 0.0
O150 O 0.10991 0.16055 0.43782 0.0
O151 O 0.17992 0.23181 0.45435 0.0
O152 O 0.10402 0.26677 0.4611 0.0
C153 C 0.07573 0.35958 0.43687 0.0
O154 O 0.19907 0.2592 0.42667 0.0
O155 O 0.12635 0.25208 0.41443 0.0
In156 In 0.75749 0.87808 0.56817 0.0
O157 O 0.69443 0.9489 0.5698 0.0
O158 O 0.66449 0.86734 0.56592 0.0
C159 C 0.85239 0.93741 0.57014 0.0
C160 C 0.75095 0.81752 0.59165 0.0
C161 C 0.77451 0.83494 0.5427 0.0
O162 O 0.8059 0.96032 0.56842 0.0
O163 O 0.85055 0.88526 0.57112 0.0
O164 O 0.78778 0.80979 0.55367 0.0
O165 O 0.75184 0.88148 0.54455 0.0
C166 C 0.653 0.91787 0.56778 0.0
O167 O 0.7473 0.79637 0.57973 0.0
O168 O 0.758 0.86948 0.59176 0.0
In169 In 0.11005 0.26452 0.81644 0.0
O170 O 0.03834 0.20225 0.81636 0.0
O171 O 0.12012 0.17209 0.81306 0.0
C172 C 0.07033 0.36746 0.82049 0.0
C173 C 0.15895 0.25383 0.84126 0.0
C174 C 0.13927 0.28349 0.79002 0.0
O175 O 0.03867 0.32554 0.81961 0.0
O176 O 0.12134 0.35681 0.81959 0.0
O177 O 0.17514 0.27127 0.79912 0.0
O178 O 0.08995 0.28433 0.79427 0.0
C179 C 0.06938 0.16074 0.81425 0.0
O180 O 0.18694 0.25825 0.83019 0.0
O181 O 0.10717 0.25478 0.83964 0.0
In182 In 0.74826 0.61662 0.06694 0.0
O183 O 0.7559 0.69181 0.08117 0.0
O184 O 0.75269 0.61168 0.09046 0.0
C185 C 0.73205 0.66874 0.04246 0.0
C186 C 0.85273 0.57851 0.06531 0.0
C187 C 0.65355 0.557 0.06847 0.0
O188 O 0.71781 0.6898 0.05387 0.0
O189 O 0.75507 0.62195 0.0434 0.0
O190 O 0.6998 0.53451 0.06615 0.0
O191 O 0.65546 0.6089 0.07004 0.0
C192 C 0.7565 0.66346 0.0922 0.0
O193 O 0.81136 0.5463 0.06547 0.0
O194 O 0.84114 0.62958 0.06584 0.0
In195 In 0.37584 0.26162 0.31593 0.0
O196 O 0.29371 0.2594 0.32746 0.0
O197 O 0.3675 0.26239 0.33947 0.0
C198 C 0.3413 0.25593 0.28942 0.0
C199 C 0.42024 0.36547 0.31633 0.0
C200 C 0.41722 0.15718 0.31784 0.0
O201 O 0.30879 0.26797 0.2992 0.0
O202 O 0.3909 0.24834 0.29299 0.0
O203 O 0.4477 0.19972 0.31922 0.0
O204 O 0.36685 0.1678 0.31576 0.0
C205 C 0.31531 0.26052 0.33938 0.0
O206 O 0.45019 0.32238 0.3167 0.0
O207 O 0.36911 0.35573 0.31578 0.0
H208 H 0.23465 0.35832 0.11438 0.0
H209 H 0.25367 0.20866 0.09028 0.0
H210 H 0.2525 0.15301 0.1115 0.0
H211 H 0.24788 0.14717 0.13689 0.0
H212 H 0.23046 0.29695 0.16101 0.0
H213 H 0.22894 0.35238 0.13975 0.0
C214 C 0.23842 0.3135 0.11376 0.0
C215 C 0.24432 0.28762 0.10078 0.0
C216 C 0.23797 0.28187 0.126 0.0
C217 C 0.24917 0.22955 0.10015 0.0
C218 C 0.24849 0.19773 0.11228 0.0
C219 C 0.24347 0.19193 0.13749 0.0
C220 C 0.23925 0.21796 0.1505 0.0
C221 C 0.24313 0.22349 0.12525 0.0
C222 C 0.23375 0.27597 0.15112 0.0
C223 C 0.23296 0.30766 0.13898 0.0
H224 H 0.85398 0.74488 0.38774 0.0
H225 H 0.70401 0.74803 0.41194 0.0
H226 H 0.64877 0.7473 0.39072 0.0
H227 H 0.64319 0.74828 0.36528 0.0
H228 H 0.79331 0.74468 0.34113 0.0
H229 H 0.84836 0.74283 0.36234 0.0
C230 C 0.8092 0.74527 0.38836 0.0
C231 C 0.78311 0.74675 0.40137 0.0
C232 C 0.77774 0.74479 0.37614 0.0
C233 C 0.72507 0.74697 0.40203 0.0
C234 C 0.69346 0.7466 0.38991 0.0
C235 C 0.68794 0.74685 0.36467 0.0
C236 C 0.71414 0.74681 0.35167 0.0
C237 C 0.71936 0.74587 0.37691 0.0
C238 C 0.77215 0.7448 0.35103 0.0
C239 C 0.80368 0.74382 0.36315 0.0
H240 H 0.24585 0.14128 0.61547 0.0
H241 H 0.27488 0.28828 0.59087 0.0
H242 H 0.27865 0.34468 0.61189 0.0
H243 H 0.27333 0.35226 0.63723 0.0
H244 H 0.24292 0.20557 0.66184 0.0
H245 H 0.24023 0.14892 0.64083 0.0
C246 C 0.253 0.18566 0.61471 0.0
C247 C 0.26008 0.21058 0.60163 0.0
C248 C 0.25497 0.21783 0.62683 0.0
C249 C 0.26924 0.26812 0.60081 0.0
C250 C 0.27146 0.30038 0.61283 0.0
C251 C 0.2663 0.30785 0.638 0.0
C252 C 0.25847 0.2831 0.65107 0.0
C253 C 0.26439 0.27567 0.62589 0.0
C254 C 0.24913 0.22559 0.6519 0.0
C255 C 0.24754 0.1932 0.63989 0.0
H256 H 0.72012 0.76106 0.8499 0.0
H257 H 0.88329 0.78639 0.86688 0.0
H258 H 0.84533 0.78673 0.8903 0.0
H259 H 0.76617 0.77703 0.90605 0.0
H260 H 0.60317 0.75027 0.88911 0.0
H261 H 0.64061 0.75348 0.86563 0.0
C262 C 0.74727 0.76693 0.85873 0.0
C263 C 0.80436 0.77357 0.85666 0.0
C264 C 0.72524 0.76671 0.87219 0.0
C265 C 0.83912 0.78108 0.86819 0.0
C266 C 0.8175 0.78126 0.8816 0.0
C267 C 0.73886 0.77218 0.89721 0.0
C268 C 0.68209 0.76331 0.89931 0.0
C269 C 0.76069 0.77368 0.88373 0.0
C270 C 0.64713 0.75704 0.88776 0.0
C271 C 0.66847 0.75884 0.87433 0.0
H272 H 0.76221 0.85277 0.6183 0.0
H273 H 0.73227 0.7064 0.5936 0.0
H274 H 0.72832 0.64958 0.61453 0.0
H275 H 0.73524 0.64097 0.63973 0.0
H276 H 0.76666 0.78641 0.66462 0.0
H277 H 0.76792 0.8442 0.64372 0.0
C278 C 0.75469 0.80846 0.61752 0.0
C279 C 0.74765 0.78381 0.60442 0.0
C280 C 0.75273 0.77592 0.62961 0.0
C281 C 0.73794 0.72637 0.60356 0.0
C282 C 0.73565 0.69383 0.61552 0.0
C283 C 0.74213 0.68537 0.6406 0.0
C284 C 0.75087 0.70941 0.65369 0.0
C285 C 0.74324 0.71811 0.62858 0.0
C286 C 0.75985 0.76694 0.65465 0.0
C287 C 0.76063 0.79997 0.64271 0.0
H288 H 0.2266 0.23995 0.90432 0.0
H289 H 0.38973 0.23636 0.88626 0.0
H290 H 0.34977 0.23986 0.86304 0.0
H291 H 0.26835 0.24652 0.84781 0.0
H292 H 0.10536 0.24983 0.86598 0.0
H293 H 0.14534 0.24383 0.88912 0.0
C294 C 0.25335 0.23963 0.8953 0.0
C295 C 0.31096 0.23802 0.89701 0.0
C296 C 0.23014 0.24182 0.88196 0.0
C297 C 0.34516 0.2376 0.88522 0.0
C298 C 0.32238 0.2397 0.87193 0.0
C299 C 0.24167 0.2458 0.85684 0.0
C300 C 0.18406 0.24883 0.85517 0.0
C301 C 0.26492 0.24227 0.87017 0.0
C302 C 0.14992 0.24765 0.86697 0.0
C303 C 0.1727 0.24423 0.88023 0.0
H304 H 0.76109 0.7732 0.09844 0.0
H305 H 0.76207 0.61021 0.1171 0.0
H306 H 0.76763 0.65177 0.14015 0.0
H307 H 0.76939 0.73454 0.15504 0.0
H308 H 0.76625 0.89743 0.13633 0.0
H309 H 0.76476 0.8558 0.11328 0.0
C310 C 0.76268 0.7468 0.10755 0.0
C311 C 0.761 0.68879 0.10608 0.0
C312 C 0.76555 0.77095 0.12076 0.0
C313 C 0.76314 0.65505 0.11797 0.0
C314 C 0.76636 0.67875 0.13115 0.0
C315 C 0.76882 0.76086 0.14591 0.0
C316 C 0.76791 0.81891 0.14738 0.0
C317 C 0.76724 0.73666 0.13268 0.0
C318 C 0.76689 0.85257 0.13547 0.0
C319 C 0.76595 0.82884 0.12228 0.0
H320 H 0.14164 0.25284 0.38814 0.0
H321 H 0.29082 0.26151 0.41258 0.0
H322 H 0.34647 0.26369 0.39142 0.0
H323 H 0.35263 0.26327 0.36596 0.0
H324 H 0.20315 0.25502 0.34161 0.0
H325 H 0.14773 0.25259 0.36276 0.0
C326 C 0.18634 0.25517 0.38884 0.0
C327 C 0.21208 0.25698 0.4019 0.0
C328 C 0.218 0.25654 0.37665 0.0
C329 C 0.27002 0.26007 0.40264 0.0
C330 C 0.30186 0.26132 0.39055 0.0
C331 C 0.30792 0.26097 0.36529 0.0
C332 C 0.28204 0.25935 0.35224 0.0
C333 C 0.27628 0.25962 0.3775 0.0
C334 C 0.22409 0.25635 0.35153 0.0
C335 C 0.19236 0.25494 0.36362 0.0
H336 H 0.22968 0.22889 0.23043 0.0
H337 H 0.36198 0.1099 0.22654 0.0
H338 H 0.39627 0.13456 0.24946 0.0
H339 H 0.38795 0.188 0.27078 0.0
H340 H 0.25137 0.30062 0.27622 0.0
H341 H 0.21935 0.28073 0.25257 0.0
C342 C 0.266 0.20862 0.23466 0.0
C343 C 0.29334 0.16773 0.22686 0.0
C344 C 0.28468 0.22189 0.24809 0.0
C345 C 0.34005 0.14123 0.23242 0.0
C346 C 0.35983 0.15542 0.2455 0.0
C347 C 0.35143 0.20856 0.26674 0.0
C348 C 0.32236 0.24612 0.2751 0.0
C349 C 0.3324 0.19545 0.25343 0.0
C350 C 0.27447 0.27165 0.26989 0.0
C351 C 0.25619 0.26025 0.2564 0.0
H352 H 0.86841 0.73032 0.48771 0.0
H353 H 0.75235 0.84552 0.46966 0.0
H354 H 0.72224 0.87395 0.49276 0.0
H355 H 0.73237 0.86942 0.5181 0.0
H356 H 0.84597 0.75178 0.53617 0.0
H357 H 0.87337 0.72066 0.51306 0.0
C358 C 0.83627 0.76137 0.48886 0.0
C359 C 0.81292 0.78613 0.47704 0.0
C360 C 0.81887 0.77716 0.50216 0.0
C361 C 0.77094 0.82588 0.47863 0.0
C362 C 0.75384 0.84229 0.49183 0.0
C363 C 0.76286 0.83674 0.51696 0.0
C364 C 0.78746 0.81322 0.52878 0.0
C365 C 0.77804 0.81874 0.50366 0.0
C366 C 0.82647 0.77052 0.5272 0.0
C367 C 0.84228 0.75283 0.514 0.0
H368 H 0.15809 0.37924 0.7296 0.0
H369 H 0.30091 0.27246 0.72847 0.0
H370 H 0.28383 0.24441 0.75258 0.0
H371 H 0.22725 0.25075 0.77408 0.0
H372 H 0.08116 0.35347 0.77391 0.0
H373 H 0.10064 0.38284 0.75027 0.0
C374 C 0.18559 0.34989 0.73463 0.0
C375 C 0.23085 0.32822 0.72735 0.0
C376 C 0.17488 0.33332 0.74829 0.0
C377 C 0.26574 0.28968 0.73392 0.0
C378 C 0.25604 0.27377 0.74769 0.0
C379 C 0.19996 0.27961 0.76882 0.0
C380 C 0.15295 0.30004 0.77571 0.0
C381 C 0.21067 0.2954 0.755 0.0
C382 C 0.11744 0.33696 0.76879 0.0
C383 C 0.12857 0.3539 0.75528 0.0
H384 H 0.7815 0.64891 0.01775 0.0
H385 H 0.653 0.74599 0.03699 0.0
H386 H 0.62363 0.78028 0.01429 0.0
H387 H 0.62973 0.77633 0.98886 0.0
H388 H 0.76051 0.68232 0.96963 0.0
H389 H 0.79431 0.65366 0.99245 0.0
C390 C 0.74746 0.67804 0.01695 0.0
C391 C 0.71899 0.69446 0.02896 0.0
C392 C 0.73119 0.69795 0.00389 0.0
C393 C 0.67546 0.73275 0.02787 0.0
C394 C 0.65853 0.75217 0.01489 0.0
C395 C 0.66607 0.75017 0.98969 0.0
C396 C 0.69231 0.73096 0.97762 0.0
C397 C 0.68537 0.73414 0.00282 0.0
C398 C 0.73968 0.69762 0.9788 0.0
C399 C 0.75881 0.68097 0.99183 0.0
H400 H 0.23559 0.2722 0.02186 0.0
H401 H 0.33593 0.42056 0.02225 0.0
H402 H 0.36724 0.40151 0.99876 0.0
H403 H 0.36779 0.34251 0.97831 0.0
H404 H 0.26295 0.19793 0.97645 0.0
H405 H 0.23122 0.21564 1.00027 0.0
C406 C 0.26421 0.3002 0.01674 0.0
C407 C 0.28373 0.34751 0.02377 0.0
C408 C 0.28112 0.28971 0.00301 0.0
C409 C 0.32024 0.38398 0.01702 0.0
C410 C 0.3383 0.37308 0.00361 0.0
C411 C 0.33795 0.31486 0.98313 0.0
C412 C 0.31812 0.2687 0.97579 0.0
C413 C 0.31924 0.32605 0.99655 0.0
C414 C 0.27873 0.23372 0.98198 0.0
C415 C 0.26081 0.24378 0.99558 0.0
H416 H 0.64148 0.73351 0.2651 0.0
H417 H 0.74866 0.85375 0.2845 0.0
H418 H 0.78348 0.88256 0.26182 0.0
H419 H 0.7791 0.87755 0.23641 0.0
H420 H 0.67656 0.75354 0.21694 0.0
H421 H 0.64479 0.72157 0.23968 0.0
C422 C 0.67274 0.76571 0.26432 0.0
C423 C 0.69211 0.79194 0.27638 0.0
C424 C 0.69338 0.78129 0.25126 0.0
C425 C 0.73316 0.83303 0.27532 0.0
C426 C 0.75296 0.84962 0.26237 0.0
C427 C 0.75032 0.84308 0.23718 0.0
C428 C 0.72981 0.81817 0.22507 0.0
C429 C 0.73278 0.8246 0.25027 0.0
C430 C 0.69299 0.77322 0.22616 0.0
C431 C 0.67456 0.75518 0.23914 0.0
H432 H 0.23015 0.17876 0.47446 0.0
H433 H 0.10693 0.29762 0.48714 0.0
H434 H 0.1295 0.28057 0.51148 0.0
H435 H 0.18061 0.22795 0.52919 0.0
H436 H 0.29901 0.10424 0.51651 0.0
H437 H 0.28231 0.12719 0.49217 0.0
C438 C 0.20873 0.20133 0.48256 0.0
C439 C 0.16705 0.23943 0.47904 0.0
C440 C 0.2209 0.19022 0.49654 0.0
C441 C 0.13912 0.26798 0.48962 0.0
C442 C 0.15198 0.25824 0.50353 0.0
C443 C 0.20314 0.20649 0.52109 0.0
C444 C 0.24101 0.16457 0.52461 0.0
C445 C 0.19225 0.21889 0.50712 0.0
C446 C 0.26953 0.13661 0.51403 0.0
C447 C 0.25999 0.14969 0.50012 0.0
H448 H 0.72539 0.7059 0.73291 0.0
H449 H 0.87564 0.61144 0.72797 0.0
H450 H 0.90621 0.63912 0.75099 0.0
H451 H 0.89034 0.68862 0.77256 0.0
H452 H 0.73803 0.77776 0.77891 0.0
H453 H 0.70794 0.75378 0.75533 0.0
C454 C 0.76481 0.69166 0.73691 0.0
C455 C 0.79833 0.65686 0.72878 0.0
C456 C 0.78166 0.70668 0.75038 0.0
C457 C 0.84905 0.63807 0.73408 0.0
C458 C 0.86665 0.65396 0.74722 0.0
C459 C 0.85065 0.70311 0.76876 0.0
C460 C 0.81662 0.73529 0.77736 0.0
C461 C 0.8333 0.68804 0.75546 0.0
C462 C 0.76491 0.75297 0.77242 0.0
C463 C 0.7478 0.7393 0.75896 0.0
H464 H 0.05561 0.10783 0.19149 0.0
H465 H 0.14227 0.95392 0.1844 0.0
H466 H 0.05455 0.9034 0.1843 0.0
H467 H 0.9531 0.9032 0.1858 0.0
H468 H 0.8663 0.05743 0.19236 0.0
H469 H 0.95419 0.10756 0.19311 0.0
C470 C 0.0553 0.0632 0.18997 0.0
C471 C 0.10538 0.03466 0.18797 0.0
C472 C 0.00469 0.03451 0.18981 0.0
C473 C 0.10429 0.97687 0.18596 0.0
C474 C 0.05415 0.94796 0.1859 0.0
C475 C 0.95343 0.94776 0.18744 0.0
C476 C 0.90325 0.97655 0.18903 0.0
C477 C 0.00408 0.97638 0.18775 0.0
C478 C 0.90435 0.0343 0.19109 0.0
C479 C 0.95459 0.063 0.19152 0.0
H480 H 0.96872 0.39342 0.43881 0.0
H481 H 0.13528 0.45514 0.43427 0.0
H482 H 0.10103 0.55052 0.43402 0.0
H483 H 0.02376 0.61668 0.43526 0.0
H484 H 0.85737 0.55501 0.44025 0.0
H485 H 0.8915 0.45959 0.44017 0.0
C486 C 0.99747 0.42776 0.43774 0.0
C487 C 0.05443 0.41718 0.43655 0.0
C488 C 0.97753 0.4826 0.43771 0.0
C489 C 0.09121 0.46213 0.43522 0.0
C490 C 0.07167 0.51673 0.43507 0.0
C491 C 0.995 0.58233 0.43632 0.0
C492 C 0.93813 0.59295 0.43775 0.0
C493 C 0.01493 0.52749 0.43634 0.0
C494 C 0.90138 0.548 0.43915 0.0
C495 C 0.92084 0.49338 0.43909 0.0
H496 H 0.45502 0.39255 0.69101 0.0
H497 H 0.36958 0.54891 0.68676 0.0
H498 H 0.45761 0.59865 0.68763 0.0
H499 H 0.55896 0.59757 0.68914 0.0
H500 H 0.64451 0.4411 0.69293 0.0
H501 H 0.5563 0.39154 0.69277 0.0
C502 C 0.45569 0.43752 0.6903 0.0
C503 C 0.40593 0.46701 0.68881 0.0
C504 C 0.50643 0.4658 0.69074 0.0
C505 C 0.40738 0.52525 0.6879 0.0
C506 C 0.45768 0.55373 0.6884 0.0
C507 C 0.55825 0.55265 0.69001 0.0
C508 C 0.60811 0.52303 0.69105 0.0
C509 C 0.50745 0.52441 0.68976 0.0
C510 C 0.60663 0.46483 0.6921 0.0
C511 C 0.55624 0.43646 0.692 0.0
H512 H 0.39795 0.04802 0.94135 0.0
H513 H 0.5521 0.13713 0.93746 0.0
H514 H 0.60308 0.04957 0.93816 0.0
H515 H 0.60363 0.9477 0.93934 0.0
H516 H 0.44937 0.85858 0.94297 0.0
H517 H 0.3986 0.94627 0.94294 0.0
C518 C 0.44272 0.04828 0.9407 0.0
C519 C 0.47123 0.09891 0.93933 0.0
C520 C 0.47169 0.99785 0.94104 0.0
C521 C 0.52921 0.09865 0.9385 0.0
C522 C 0.55838 0.04863 0.9389 0.0
C523 C 0.55891 0.94749 0.94018 0.0
C524 C 0.53027 0.89678 0.94114 0.0
C525 C 0.53001 0.99799 0.94008 0.0
C526 C 0.47235 0.89711 0.94221 0.0
C527 C 0.4433 0.94721 0.94218 0.0
H528 H 0.10936 0.531 0.06567 0.0
H529 H 0.05061 0.36265 0.06125 0.0
H530 H 0.95511 0.39542 0.0612 0.0
H531 H 0.88807 0.47183 0.06273 0.0
H532 H 0.94688 0.64029 0.06684 0.0
H533 H 0.04238 0.6076 0.06666 0.0
C534 C 0.07563 0.50154 0.06468 0.0
C535 C 0.08704 0.44452 0.06349 0.0
C536 C 0.02078 0.52067 0.0646 0.0
C537 C 0.04293 0.40681 0.06216 0.0
C538 C 0.98828 0.42548 0.06215 0.0
C539 C 0.92181 0.50135 0.06356 0.0
C540 C 0.9104 0.55834 0.06483 0.0
C541 C 0.97669 0.4823 0.06341 0.0
C542 C 0.95455 0.59615 0.06585 0.0
C543 C 0.0092 0.57752 0.06577 0.0
H544 H 0.4721 0.62344 0.31743 0.0
H545 H 0.63837 0.56275 0.31193 0.0
H546 H 0.60475 0.46715 0.31222 0.0
H547 H 0.52784 0.39999 0.31397 0.0
H548 H 0.36143 0.461 0.31899 0.0
H549 H 0.39524 0.55646 0.31898 0.0
C550 C 0.50093 0.58929 0.31628 0.0
C551 C 0.55767 0.60043 0.31466 0.0
C552 C 0.48127 0.53412 0.31639 0.0
C553 C 0.59444 0.55554 0.31317 0.0
C554 C 0.57527 0.5007 0.31335 0.0
C555 C 0.49906 0.43419 0.3151 0.0
C556 C 0.44219 0.42317 0.3165 0.0
C557 C 0.51875 0.48938 0.31496 0.0
C558 C 0.40543 0.46812 0.31787 0.0
C559 C 0.42471 0.52288 0.31788 0.0
H560 H 0.61787 0.02512 0.5695 0.0
H561 H 0.55864 0.85672 0.56563 0.0
H562 H 0.46329 0.88979 0.56527 0.0
H563 H 0.39642 0.96664 0.56592 0.0
H564 H 0.45564 0.13518 0.56933 0.0
H565 H 0.55097 0.10204 0.57002 0.0
C566 C 0.58407 0.9957 0.56859 0.0
C567 C 0.59538 0.93858 0.5676 0.0
C568 C 0.52922 0.01503 0.56831 0.0
C569 C 0.55112 0.90096 0.56639 0.0
C570 C 0.49652 0.91981 0.5662 0.0
C571 C 0.4302 0.99606 0.56684 0.0
C572 C 0.41892 0.05325 0.56758 0.0
C573 C 0.48504 0.97675 0.56713 0.0
C574 C 0.46317 0.09091 0.56872 0.0
C575 C 0.51775 0.07201 0.56913 0.0
H576 H 0.96247 0.12517 0.8149 0.0
H577 H 0.13055 0.06624 0.81236 0.0
H578 H 0.09796 0.97027 0.81228 0.0
H579 H 0.02166 0.90262 0.81342 0.0
H580 H 0.85356 0.96179 0.81558 0.0
H581 H 0.88614 0.05769 0.8153 0.0
C582 C 0.9919 0.09131 0.81429 0.0
C583 C 0.04879 0.10287 0.81368 0.0
C584 C 0.97289 0.03609 0.8142 0.0
C585 C 0.08646 0.05852 0.81284 0.0
C586 C 0.0679 0.00355 0.81281 0.0
C587 C 0.99223 0.93654 0.8138 0.0
C588 C 0.93534 0.92504 0.81456 0.0
C589 C 0.01122 0.99179 0.81357 0.0
C590 C 0.89764 0.96945 0.81498 0.0
C591 C 0.9162 0.02439 0.81484 0.0
H592 H 0.6145 0.03917 0.18153 0.0
H593 H 0.55556 0.87009 0.1837 0.0
H594 H 0.46024 0.90234 0.18234 0.0
H595 H 0.39328 0.97856 0.18141 0.0
H596 H 0.45146 0.14786 0.17945 0.0
H597 H 0.54717 0.11557 0.17971 0.0
C598 C 0.58075 0.00946 0.18167 0.0
C599 C 0.59209 0.95241 0.18279 0.0
C600 C 0.52584 0.02829 0.18089 0.0
C601 C 0.54797 0.91431 0.18289 0.0
C602 C 0.49339 0.93267 0.1821 0.0
C603 C 0.4269 0.00834 0.1809 0.0
C604 C 0.41531 0.06545 0.18044 0.0
C605 C 0.4818 0.98955 0.1812 0.0
C606 C 0.45931 0.1036 0.17982 0.0
C607 C 0.51408 0.0852 0.18001 0.0
H608 H 0.89616 0.95383 0.43142 0.0
H609 H 0.04827 0.86472 0.4385 0.0
H610 H 0.09946 0.9524 0.43888 0.0
H611 H 0.10054 0.05443 0.43782 0.0
H612 H 0.94824 0.14351 0.43095 0.0
H613 H 0.89753 0.05569 0.42986 0.0
C614 C 0.94057 0.95355 0.43298 0.0
C615 C 0.96838 0.90283 0.43495 0.0
C616 C 0.96962 0.0041 0.43327 0.0
C617 C 0.0259 0.90319 0.43696 0.0
C618 C 0.05517 0.95331 0.4372 0.0
C619 C 0.05626 0.05463 0.43604 0.0
C620 C 0.02815 0.10545 0.43451 0.0
C621 C 0.02739 0.00402 0.43547 0.0
C622 C 0.97082 0.10499 0.43219 0.0
C623 C 0.94181 0.05479 0.43157 0.0
H624 H 0.0576 0.39264 0.67832 0.0
H625 H 0.14479 0.54886 0.68065 0.0
H626 H 0.05719 0.59906 0.67985 0.0
H627 H 0.95579 0.59834 0.68011 0.0
H628 H 0.86834 0.4422 0.67818 0.0
H629 H 0.9561 0.39222 0.67705 0.0
C630 C 0.05742 0.43768 0.67852 0.0
C631 C 0.10754 0.46698 0.67964 0.0
C632 C 0.00688 0.46628 0.67817 0.0
C633 C 0.10673 0.52533 0.67983 0.0
C634 C 0.05666 0.55408 0.6794 0.0
C635 C 0.95593 0.5534 0.67928 0.0
C636 C 0.9057 0.52397 0.67931 0.0
C637 C 0.00648 0.52495 0.6788 0.0
C638 C 0.9065 0.46579 0.67821 0.0
C639 C 0.95665 0.43718 0.67761 0.0
H640 H 0.52793 0.38621 0.93517 0.0
H641 H 0.36039 0.44623 0.93192 0.0
H642 H 0.39349 0.54206 0.93279 0.0
H643 H 0.47002 0.60885 0.93504 0.0
H644 H 0.63743 0.54833 0.93827 0.0
H645 H 0.60438 0.45275 0.93687 0.0
C646 C 0.49871 0.42027 0.93457 0.0
C647 C 0.44187 0.40919 0.93349 0.0
C648 C 0.51796 0.4752 0.93515 0.0
C649 C 0.40444 0.45372 0.93274 0.0
C650 C 0.42329 0.50852 0.93327 0.0
C651 C 0.49919 0.5747 0.93544 0.0
C652 C 0.55599 0.5856 0.9368 0.0
C653 C 0.47993 0.51976 0.93459 0.0
C654 C 0.59342 0.54101 0.93724 0.0
C655 C 0.5746 0.48632 0.93644 0.0
H656 H 0.55131 0.5984 0.0734 0.0
H657 H 0.63761 0.4455 0.06483 0.0
H658 H 0.54988 0.39477 0.06503 0.0
H659 H 0.44843 0.39455 0.0669 0.0
H660 H 0.36235 0.54793 0.07511 0.0
H661 H 0.45037 0.59779 0.07589 0.0
C662 C 0.55098 0.55392 0.07163 0.0
C663 C 0.60089 0.52576 0.06906 0.0
C664 C 0.50046 0.52516 0.0717 0.0
C665 C 0.59976 0.46814 0.0668 0.0
C666 C 0.54962 0.43914 0.06692 0.0
C667 C 0.44896 0.43883 0.06896 0.0
C668 C 0.39891 0.46753 0.07093 0.0
C669 C 0.49969 0.4673 0.06925 0.0
C670 C 0.40027 0.52489 0.07355 0.0
C671 C 0.45058 0.55343 0.07397 0.0
H672 H 0.52218 0.12099 0.32336 0.0
H673 H 0.3589 0.0626 0.31277 0.0
H674 H 0.39222 0.96703 0.31227 0.0
H675 H 0.4685 0.89939 0.31431 0.0
H676 H 0.63154 0.95808 0.32508 0.0
H677 H 0.59766 0.05324 0.3261 0.0
C678 C 0.4939 0.08733 0.32099 0.0
C679 C 0.43817 0.09915 0.31808 0.0
C680 C 0.51332 0.03213 0.32074 0.0
C681 C 0.40205 0.05487 0.31506 0.0
C682 C 0.42106 1.00004 0.31476 0.0
C683 C 0.49648 0.93299 0.31694 0.0
C684 C 0.5525 0.92141 0.31958 0.0
C685 C 0.47671 0.98808 0.31751 0.0
C686 C 0.58819 0.9656 0.32298 0.0
C687 C 0.56889 0.02023 0.32355 0.0
H688 H 0.95568 0.8949 0.57282 0.0
H689 H 0.86784 0.04952 0.56779 0.0
H690 H 0.95561 0.10004 0.56703 0.0
H691 H 0.05729 0.09991 0.5672 0.0
H692 H 0.14502 0.94512 0.57205 0.0
H693 H 0.05721 0.89498 0.57348 0.0
C694 C 0.9557 0.93971 0.57163 0.0
C695 C 0.90528 0.96843 0.57036 0.0
C696 C 0.00628 0.96838 0.57112 0.0
C697 C 0.90605 0.02645 0.5688 0.0
C698 C 0.95623 0.05533 0.56834 0.0
C699 C 0.05721 0.0552 0.5686 0.0
C700 C 0.10764 0.02625 0.56948 0.0
C701 C 0.00658 0.02667 0.56939 0.0
C702 C 0.10681 0.96837 0.57133 0.0
C703 C 0.05661 0.93968 0.57214 0.0
H704 H 0.02253 0.62536 0.82165 0.0
H705 H 0.8543 0.56549 0.82162 0.0
H706 H 0.88702 0.46978 0.82216 0.0
H707 H 0.9634 0.40256 0.82175 0.0
H708 H 0.1317 0.46217 0.82176 0.0
H709 H 0.09905 0.558 0.8222 0.0
C710 C 0.9931 0.59135 0.82184 0.0
C711 C 0.93612 0.60262 0.82154 0.0
C712 C 0.01219 0.53617 0.82212 0.0
C713 C 0.89845 0.55805 0.82182 0.0
C714 C 0.91709 0.50319 0.82211 0.0
C715 C 0.99289 0.43653 0.82195 0.0
C716 C 0.04983 0.42518 0.82168 0.0
C717 C 0.97385 0.4917 0.82214 0.0
C718 C 0.08756 0.4697 0.82195 0.0
C719 C 0.06896 0.5246 0.82217 0.0
loop_
_geom_bond_atom_site_label_1
_geom_bond_atom_site_label_2
_geom_bond_distance
_geom_bond_site_symmetry_2
_ccdc_geom_bond_type
In0 O1 2.294 . S
In0 O2 2.326 . S
In0 O6 2.266 . S
In0 O7 2.326 . S
In0 O8 2.266 . S
In0 O9 2.326 . S
In0 O11 2.294 . S
In0 O12 2.326 . S
O1 In0 2.294 . S
O1 C10 1.240 . S
O2 In0 2.326 . S
O2 C10 1.252 . S
C3 O6 1.252 . S
C3 O7 1.260 . S
C4 O11 1.240 . S
C4 O12 1.252 . S
C5 O8 1.252 . S
C5 O9 1.260 . S
O6 In0 2.266 . S
O6 C3 1.252 . S
O7 In0 2.326 . S
O7 C3 1.260 . S
O8 In0 2.266 . S
O8 C5 1.252 . S
O9 In0 2.326 . S
O9 C5 1.260 . S
C10 O1 1.240 . S
C10 O2 1.252 . S
O11 In0 2.294 . S
O11 C4 1.240 . S
O12 In0 2.326 . S
O12 C4 1.252 . S
In13 O14 2.294 . S
In13 O15 2.326 . S
In13 O19 2.266 . S
In13 O20 2.326 . S
In13 O21 2.266 . S
In13 O22 2.326 . S
In13 O24 2.294 . S
In13 O25 2.326 . S
O14 In13 2.294 . S
O14 C23 1.240 . S
O15 In13 2.326 . S
O15 C23 1.252 . S
C16 O19 1.252 . S
C16 O20 1.260 . S
C17 O24 1.240 . S
C17 O25 1.252 . S
C18 O21 1.252 . S
C18 O22 1.260 . S
O19 In13 2.266 . S
O19 C16 1.252 . S
O20 In13 2.326 . S
O20 C16 1.260 . S
O21 In13 2.266 . S
O21 C18 1.252 . S
O22 In13 2.326 . S
O22 C18 1.260 . S
C23 O14 1.240 . S
C23 O15 1.252 . S
O24 In13 2.294 . S
O24 C17 1.240 . S
O25 In13 2.326 . S
O25 C17 1.252 . S
In26 O27 2.294 . S
In26 O28 2.326 . S
In26 O32 2.266 . S
In26 O33 2.326 . S
In26 O34 2.266 . S
In26 O35 2.326 . S
In26 O37 2.294 . S
In26 O38 2.326 . S
O27 In26 2.294 . S
O27 C36 1.240 . S
O28 In26 2.326 . S
O28 C36 1.252 . S
C29 O32 1.252 . S
C29 O33 1.260 . S
C30 O37 1.240 . S
C30 O38 1.252 . S
C31 O34 1.252 . S
C31 O35 1.260 . S
O32 In26 2.266 . S
O32 C29 1.252 . S
O33 In26 2.326 . S
O33 C29 1.260 . S
O34 In26 2.266 . S
O34 C31 1.252 . S
O35 In26 2.326 . S
O35 C31 1.260 . S
C36 O27 1.240 . S
C36 O28 1.252 . S
O37 In26 2.294 . S
O37 C30 1.240 . S
O38 In26 2.326 . S
O38 C30 1.252 . S
In39 O40 2.294 . S
In39 O41 2.326 . S
In39 O45 2.266 . S
In39 O46 2.326 . S
In39 O47 2.266 . S
In39 O48 2.326 . S
In39 O50 2.294 . S
In39 O51 2.326 . S
O40 In39 2.294 . S
O40 C49 1.240 . S
O41 In39 2.326 . S
O41 C49 1.252 . S
C42 O45 1.252 . S
C42 O46 1.260 . S
C43 O50 1.240 . S
C43 O51 1.252 . S
C44 O47 1.252 . S
C44 O48 1.260 . S
O45 In39 2.266 . S
O45 C42 1.252 . S
O46 In39 2.326 . S
O46 C42 1.260 . S
O47 In39 2.266 . S
O47 C44 1.252 . S
O48 In39 2.326 . S
O48 C44 1.260 . S
C49 O40 1.240 . S
C49 O41 1.252 . S
O50 In39 2.294 . S
O50 C43 1.240 . S
O51 In39 2.326 . S
O51 C43 1.252 . S
In52 O53 2.294 . S
In52 O54 2.326 . S
In52 O58 2.266 . S
In52 O59 2.326 . S
In52 O60 2.266 . S
In52 O61 2.326 . S
In52 O63 2.294 . S
In52 O64 2.326 . S
O53 In52 2.294 . S
O53 C62 1.240 . S
O54 In52 2.326 . S
O54 C62 1.252 . S
C55 O58 1.252 . S
C55 O59 1.260 . S
C56 O63 1.240 . S
C56 O64 1.252 . S
C57 O60 1.252 . S
C57 O61 1.260 . S
O58 In52 2.266 . S
O58 C55 1.252 . S
O59 In52 2.326 . S
O59 C55 1.260 . S
O60 In52 2.266 . S
O60 C57 1.252 . S
O61 In52 2.326 . S
O61 C57 1.260 . S
C62 O53 1.240 . S
C62 O54 1.252 . S
O63 In52 2.294 . S
O63 C56 1.240 . S
O64 In52 2.326 . S
O64 C56 1.252 . S
In65 O66 2.294 . S
In65 O67 2.326 . S
In65 O71 2.266 . S
In65 O72 2.326 . S
In65 O73 2.266 . S
In65 O74 2.326 . S
In65 O76 2.294 . S
In65 O77 2.326 . S
O66 In65 2.294 . S
O66 C75 1.240 . S
O67 In65 2.326 . S
O67 C75 1.252 . S
C68 O71 1.252 . S
C68 O72 1.260 . S
C69 O76 1.240 . S
C69 O77 1.252 . S
C70 O73 1.252 . S
C70 O74 1.260 . S
O71 In65 2.266 . S
O71 C68 1.252 . S
O72 In65 2.326 . S
O72 C68 1.260 . S
O73 In65 2.266 . S
O73 C70 1.252 . S
O74 In65 2.326 . S
O74 C70 1.260 . S
C75 O66 1.240 . S
C75 O67 1.252 . S
O76 In65 2.294 . S
O76 C69 1.240 . S
O77 In65 2.326 . S
O77 C69 1.252 . S
In78 O79 2.294 . S
In78 O80 2.326 . S
In78 O84 2.266 . S
In78 O85 2.326 . S
In78 O86 2.266 . S
In78 O87 2.326 . S
In78 O89 2.294 . S
In78 O90 2.326 . S
O79 In78 2.294 . S
O79 C88 1.240 . S
O80 In78 2.326 . S
O80 C88 1.252 . S
C81 O84 1.252 . S
C81 O85 1.260 . S
C82 O89 1.240 . S
C82 O90 1.252 . S
C83 O86 1.252 . S
C83 O87 1.260 . S
O84 In78 2.266 . S
O84 C81 1.252 . S
O85 In78 2.326 . S
O85 C81 1.260 . S
O86 In78 2.266 . S
O86 C83 1.252 . S
O87 In78 2.326 . S
O87 C83 1.260 . S
C88 O79 1.240 . S
C88 O80 1.252 . S
O89 In78 2.294 . S
O89 C82 1.240 . S
O90 In78 2.326 . S
O90 C82 1.252 . S
In91 O92 2.294 . S
In91 O93 2.326 . S
In91 O97 2.266 . S
In91 O98 2.326 . S
In91 O99 2.266 . S
In91 O100 2.326 . S
In91 O102 2.294 . S
In91 O103 2.326 . S
O92 In91 2.294 . S
O92 C101 1.240 . S
O93 In91 2.326 . S
O93 C101 1.252 . S
C94 O97 1.252 . S
C94 O98 1.260 . S
C95 O102 1.240 . S
C95 O103 1.252 . S
C96 O99 1.252 . S
C96 O100 1.260 . S
O97 In91 2.266 . S
O97 C94 1.252 . S
O98 In91 2.326 . S
O98 C94 1.260 . S
O99 In91 2.266 . S
O99 C96 1.252 . S
O100 In91 2.326 . S
O100 C96 1.260 . S
C101 O92 1.240 . S
C101 O93 1.252 . S
O102 In91 2.294 . S
O102 C95 1.240 . S
O103 In91 2.326 . S
O103 C95 1.252 . S
In104 O105 2.294 . S
In104 O106 2.326 . S
In104 O110 2.266 . S
In104 O111 2.326 . S
In104 O112 2.266 . S
In104 O113 2.326 . S
In104 O115 2.294 . S
In104 O116 2.326 . S
O105 In104 2.294 . S
O105 C114 1.240 . S
O106 In104 2.326 . S
O106 C114 1.252 . S
C107 O110 1.252 . S
C107 O111 1.260 . S
C108 O115 1.240 . S
C108 O116 1.252 . S
C109 O112 1.252 . S
C109 O113 1.260 . S
O110 In104 2.266 . S
O110 C107 1.252 . S
O111 In104 2.326 . S
O111 C107 1.260 . S
O112 In104 2.266 . S
O112 C109 1.252 . S
O113 In104 2.326 . S
O113 C109 1.260 . S
C114 O105 1.240 . S
C114 O106 1.252 . S
O115 In104 2.294 . S
O115 C108 1.240 . S
O116 In104 2.326 . S
O116 C108 1.252 . S
In117 O118 2.294 . S
In117 O119 2.326 . S
In117 O123 2.266 . S
In117 O124 2.326 . S
In117 O125 2.266 . S
In117 O126 2.326 . S
In117 O128 2.294 . S
In117 O129 2.326 . S
O118 In117 2.294 . S
O118 C127 1.240 . S
O119 In117 2.326 . S
O119 C127 1.252 . S
C120 O123 1.252 . S
C120 O124 1.260 . S
C121 O128 1.240 . S
C121 O129 1.252 . S
C122 O125 1.252 . S
C122 O126 1.260 . S
O123 In117 2.266 . S
O123 C120 1.252 . S
O124 In117 2.326 . S
O124 C120 1.260 . S
O125 In117 2.266 . S
O125 C122 1.252 . S
O126 In117 2.326 . S
O126 C122 1.260 . S
C127 O118 1.240 . S
C127 O119 1.252 . S
O128 In117 2.294 . S
O128 C121 1.240 . S
O129 In117 2.326 . S
O129 C121 1.252 . S
In130 O131 2.294 . S
In130 O132 2.326 . S
In130 O136 2.266 . S
In130 O137 2.326 . S
In130 O138 2.266 . S
In130 O139 2.326 . S
In130 O141 2.294 . S
In130 O142 2.326 . S
O131 In130 2.294 . S
O131 C140 1.240 . S
O132 In130 2.326 . S
O132 C140 1.252 . S
C133 O136 1.252 . S
C133 O137 1.260 . S
C134 O141 1.240 . S
C134 O142 1.252 . S
C135 O138 1.252 . S
C135 O139 1.260 . S
O136 In130 2.266 . S
O136 C133 1.252 . S
O137 In130 2.326 . S
O137 C133 1.260 . S
O138 In130 2.266 . S
O138 C135 1.252 . S
O139 In130 2.326 . S
O139 C135 1.260 . S
C140 O131 1.240 . S
C140 O132 1.252 . S
O141 In130 2.294 . S
O141 C134 1.240 . S
O142 In130 2.326 . S
O142 C134 1.252 . S
In143 O144 2.294 . S
In143 O145 2.326 . S
In143 O149 2.266 . S
In143 O150 2.326 . S
In143 O151 2.266 . S
In143 O152 2.326 . S
In143 O154 2.294 . S
In143 O155 2.326 . S
O144 In143 2.294 . S
O144 C153 1.240 . S
O145 In143 2.326 . S
O145 C153 1.252 . S
C146 O149 1.252 . S
C146 O150 1.260 . S
C147 O154 1.240 . S
C147 O155 1.252 . S
C148 O151 1.252 . S
C148 O152 1.260 . S
O149 In143 2.266 . S
O149 C146 1.252 . S
O150 In143 2.326 . S
O150 C146 1.260 . S
O151 In143 2.266 . S
O151 C148 1.252 . S
O152 In143 2.326 . S
O152 C148 1.260 . S
C153 O144 1.240 . S
C153 O145 1.252 . S
O154 In143 2.294 . S
O154 C147 1.240 . S
O155 In143 2.326 . S
O155 C147 1.252 . S
In156 O157 2.294 . S
In156 O158 2.326 . S
In156 O162 2.266 . S
In156 O163 2.326 . S
In156 O164 2.266 . S
In156 O165 2.326 . S
In156 O167 2.294 . S
In156 O168 2.326 . S
O157 In156 2.294 . S
O157 C166 1.240 . S
O158 In156 2.326 . S
O158 C166 1.252 . S
C159 O162 1.252 . S
C159 O163 1.260 . S
C160 O167 1.240 . S
C160 O168 1.252 . S
C161 O164 1.252 . S
C161 O165 1.260 . S
O162 In156 2.266 . S
O162 C159 1.252 . S
O163 In156 2.326 . S
O163 C159 1.260 . S
O164 In156 2.266 . S
O164 C161 1.252 . S
O165 In156 2.326 . S
O165 C161 1.260 . S
C166 O157 1.240 . S
C166 O158 1.252 . S
O167 In156 2.294 . S
O167 C160 1.240 . S
O168 In156 2.326 . S
O168 C160 1.252 . S
In169 O170 2.294 . S
In169 O171 2.326 . S
In169 O175 2.266 . S
In169 O176 2.326 . S
In169 O177 2.266 . S
In169 O178 2.326 . S
In169 O180 2.294 . S
In169 O181 2.326 . S
O170 In169 2.294 . S
O170 C179 1.240 . S
O171 In169 2.326 . S
O171 C179 1.252 . S
C172 O175 1.252 . S
C172 O176 1.260 . S
C173 O180 1.240 . S
C173 O181 1.252 . S
C174 O177 1.252 . S
C174 O178 1.260 . S
O175 In169 2.266 . S
O175 C172 1.252 . S
O176 In169 2.326 . S
O176 C172 1.260 . S
O177 In169 2.266 . S
O177 C174 1.252 . S
O178 In169 2.326 . S
O178 C174 1.260 . S
C179 O170 1.240 . S
C179 O171 1.252 . S
O180 In169 2.294 . S
O180 C173 1.240 . S
O181 In169 2.326 . S
O181 C173 1.252 . S
In182 O183 2.294 . S
In182 O184 2.326 . S
In182 O188 2.266 . S
In182 O189 2.326 . S
In182 O190 2.266 . S
In182 O191 2.326 . S
In182 O193 2.294 . S
In182 O194 2.326 . S
O183 In182 2.294 . S
O183 C192 1.240 . S
O184 In182 2.326 . S
O184 C192 1.252 . S
C185 O188 1.252 . S
C185 O189 1.260 . S
C186 O193 1.240 . S
C186 O194 1.252 . S
C187 O190 1.252 . S
C187 O191 1.260 . S
O188 In182 2.266 . S
O188 C185 1.252 . S
O189 In182 2.326 . S
O189 C185 1.260 . S
O190 In182 2.266 . S
O190 C187 1.252 . S
O191 In182 2.326 . S
O191 C187 1.260 . S
C192 O183 1.240 . S
C192 O184 1.252 . S
O193 In182 2.294 . S
O193 C186 1.240 . S
O194 In182 2.326 . S
O194 C186 1.252 . S
In195 O196 2.294 . S
In195 O197 2.326 . S
In195 O201 2.266 . S
In195 O202 2.326 . S
In195 O203 2.266 . S
In195 O204 2.326 . S
In195 O206 2.294 . S
In195 O207 2.326 . S
O196 In195 2.294 . S
O196 C205 1.240 . S
O197 In195 2.326 . S
O197 C205 1.252 . S
C198 O201 1.252 . S
C198 O202 1.260 . S
C199 O206 1.240 . S
C199 O207 1.252 . S
C200 O203 1.252 . S
C200 O204 1.260 . S
O201 In195 2.266 . S
O201 C198 1.252 . S
O202 In195 2.326 . S
O202 C198 1.260 . S
O203 In195 2.266 . S
O203 C200 1.252 . S
O204 In195 2.326 . S
O204 C200 1.260 . S
C205 O196 1.240 . S
C205 O197 1.252 . S
O206 In195 2.294 . S
O206 C199 1.240 . S
O207 In195 2.326 . S
O207 C199 1.252 . S
H208 C214 0.930 . S
H209 C217 0.930 . S
H210 C218 0.930 . S
H211 C219 0.930 . S
H212 C222 0.930 . S
H213 C223 0.930 . S
C214 H208 0.930 . S
C214 C215 1.355 . S
C214 C216 1.415 . S
C215 C214 1.355 . S
C215 C217 1.419 . S
C216 C214 1.415 . S
C216 C221 1.425 . S
C216 C223 1.409 . S
C217 H209 0.930 . S
C217 C215 1.419 . S
C217 C218 1.362 . S
C218 H210 0.930 . S
C218 C217 1.362 . S
C218 C221 1.409 . S
C219 H211 0.930 . S
C219 C220 1.355 . S
C219 C221 1.415 . S
C220 C219 1.355 . S
C220 C222 1.419 . S
C221 C216 1.425 . S
C221 C218 1.409 . S
C221 C219 1.415 . S
C222 H212 0.930 . S
C222 C220 1.419 . S
C222 C223 1.362 . S
C223 H213 0.930 . S
C223 C216 1.409 . S
C223 C222 1.362 . S
H224 C230 0.930 . S
H225 C233 0.930 . S
H226 C234 0.930 . S
H227 C235 0.930 . S
H228 C238 0.930 . S
H229 C239 0.930 . S
C230 H224 0.930 . S
C230 C231 1.355 . S
C230 C232 1.415 . S
C231 C230 1.355 . S
C231 C233 1.419 . S
C232 C230 1.415 . S
C232 C237 1.425 . S
C232 C239 1.409 . S
C233 H225 0.930 . S
C233 C231 1.419 . S
C233 C234 1.362 . S
C234 H226 0.930 . S
C234 C233 1.362 . S
C234 C237 1.409 . S
C235 H227 0.930 . S
C235 C236 1.355 . S
C235 C237 1.415 . S
C236 C235 1.355 . S
C236 C238 1.419 . S
C237 C232 1.425 . S
C237 C234 1.409 . S
C237 C235 1.415 . S
C238 H228 0.930 . S
C238 C236 1.419 . S
C238 C239 1.362 . S
C239 H229 0.930 . S
C239 C232 1.409 . S
C239 C238 1.362 . S
H240 C246 0.930 . S
H241 C249 0.930 . S
H242 C250 0.930 . S
H243 C251 0.930 . S
H244 C254 0.930 . S
H245 C255 0.930 . S
C246 H240 0.930 . S
C246 C247 1.355 . S
C246 C248 1.415 . S
C247 C246 1.355 . S
C247 C249 1.419 . S
C248 C246 1.415 . S
C248 C253 1.425 . S
C248 C255 1.409 . S
C249 H241 0.930 . S
C249 C247 1.419 . S
C249 C250 1.362 . S
C250 H242 0.930 . S
C250 C249 1.362 . S
C250 C253 1.409 . S
C251 H243 0.930 . S
C251 C252 1.355 . S
C251 C253 1.415 . S
C252 C251 1.355 . S
C252 C254 1.419 . S
C253 C248 1.425 . S
C253 C250 1.409 . S
C253 C251 1.415 . S
C254 H244 0.930 . S
C254 C252 1.419 . S
C254 C255 1.362 . S
C255 H245 0.930 . S
C255 C248 1.409 . S
C255 C254 1.362 . S
H256 C262 0.930 . S
H257 C265 0.930 . S
H258 C266 0.930 . S
H259 C267 0.930 . S
H260 C270 0.930 . S
H261 C271 0.930 . S
C262 H256 0.930 . S
C262 C263 1.355 . S
C262 C264 1.415 . S
C263 C262 1.355 . S
C263 C265 1.419 . S
C264 C262 1.415 . S
C264 C269 1.425 . S
C264 C271 1.409 . S
C265 H257 0.930 . S
C265 C263 1.419 . S
C265 C266 1.362 . S
C266 H258 0.930 . S
C266 C265 1.362 . S
C266 C269 1.409 . S
C267 H259 0.930 . S
C267 C268 1.355 . S
C267 C269 1.415 . S
C268 C267 1.355 . S
C268 C270 1.419 . S
C269 C264 1.425 . S
C269 C266 1.409 . S
C269 C267 1.415 . S
C270 H260 0.930 . S
C270 C268 1.419 . S
C270 C271 1.362 . S
C271 H261 0.930 . S
C271 C264 1.409 . S
C271 C270 1.362 . S
H272 C278 0.930 . S
H273 C281 0.930 . S
H274 C282 0.930 . S
H275 C283 0.930 . S
H276 C286 0.930 . S
H277 C287 0.930 . S
C278 H272 0.930 . S
C278 C279 1.355 . S
C278 C280 1.415 . S
C279 C278 1.355 . S
C279 C281 1.419 . S
C280 C278 1.415 . S
C280 C285 1.425 . S
C280 C287 1.409 . S
C281 H273 0.930 . S
C281 C279 1.419 . S
C281 C282 1.362 . S
C282 H274 0.930 . S
C282 C281 1.362 . S
C282 C285 1.409 . S
C283 H275 0.930 . S
C283 C284 1.355 . S
C283 C285 1.415 . S
C284 C283 1.355 . S
C284 C286 1.419 . S
C285 C280 1.425 . S
C285 C282 1.409 . S
C285 C283 1.415 . S
C286 H276 0.930 . S
C286 C284 1.419 . S
C286 C287 1.362 . S
C287 H277 0.930 . S
C287 C280 1.409 . S
C287 C286 1.362 . S
H288 C294 0.930 . S
H289 C297 0.930 . S
H290 C298 0.930 . S
H291 C299 0.930 . S
H292 C302 0.930 . S
H293 C303 0.930 . S
C294 H288 0.930 . S
C294 C295 1.355 . S
C294 C296 1.415 . S
C295 C294 1.355 . S
C295 C297 1.419 . S
C296 C294 1.415 . S
C296 C301 1.425 . S
C296 C303 1.409 . S
C297 H289 0.930 . S
C297 C295 1.419 . S
C297 C298 1.362 . S
C298 H290 0.930 . S
C298 C297 1.362 . S
C298 C301 1.409 . S
C299 H291 0.930 . S
C299 C300 1.355 . S
C299 C301 1.415 . S
C300 C299 1.355 . S
C300 C302 1.419 . S
C301 C296 1.425 . S
C301 C298 1.409 . S
C301 C299 1.415 . S
C302 H292 0.930 . S
C302 C300 1.419 . S
C302 C303 1.362 . S
C303 H293 0.930 . S
C303 C296 1.409 . S
C303 C302 1.362 . S
H304 C310 0.930 . S
H305 C313 0.930 . S
H306 C314 0.930 . S
H307 C315 0.930 . S
H308 C318 0.930 . S
H309 C319 0.930 . S
C310 H304 0.930 . S
C310 C311 1.355 . S
C310 C312 1.415 . S
C311 C310 1.355 . S
C311 C313 1.419 . S
C312 C310 1.415 . S
C312 C317 1.425 . S
C312 C319 1.409 . S
C313 H305 0.930 . S
C313 C311 1.419 . S
C313 C314 1.362 . S
C314 H306 0.930 . S
C314 C313 1.362 . S
C314 C317 1.409 . S
C315 H307 0.930 . S
C315 C316 1.355 . S
C315 C317 1.415 . S
C316 C315 1.355 . S
C316 C318 1.419 . S
C317 C312 1.425 . S
C317 C314 1.409 . S
C317 C315 1.415 . S
C318 H308 0.930 . S
C318 C316 1.419 . S
C318 C319 1.362 . S
C319 H309 0.930 . S
C319 C312 1.409 . S
C319 C318 1.362 . S
H320 C326 0.930 . S
H321 C329 0.930 . S
H322 C330 0.930 . S
H323 C331 0.930 . S
H324 C334 0.930 . S
H325 C335 0.930 . S
C326 H320 0.930 . S
C326 C327 1.355 . S
C326 C328 1.415 . S
C327 C326 1.355 . S
C327 C329 1.419 . S
C328 C326 1.415 . S
C328 C333 1.425 . S
C328 C335 1.409 . S
C329 H321 0.930 . S
C329 C327 1.419 . S
C329 C330 1.362 . S
C330 H322 0.930 . S
C330 C329 1.362 . S
C330 C333 1.409 . S
C331 H323 0.930 . S
C331 C332 1.355 . S
C331 C333 1.415 . S
C332 C331 1.355 . S
C332 C334 1.419 . S
C333 C328 1.425 . S
C333 C330 1.409 . S
C333 C331 1.415 . S
C334 H324 0.930 . S
C334 C332 1.419 . S
C334 C335 1.362 . S
C335 H325 0.930 . S
C335 C328 1.409 . S
C335 C334 1.362 . S
H336 C342 0.930 . S
H337 C345 0.930 . S
H338 C346 0.930 . S
H339 C347 0.930 . S
H340 C350 0.930 . S
H341 C351 0.930 . S
C342 H336 0.930 . S
C342 C343 1.355 . S
C342 C344 1.415 . S
C343 C342 1.355 . S
C343 C345 1.419 . S
C344 C342 1.415 . S
C344 C349 1.425 . S
C344 C351 1.409 . S
C345 H337 0.930 . S
C345 C343 1.419 . S
C345 C346 1.362 . S
C346 H338 0.930 . S
C346 C345 1.362 . S
C346 C349 1.409 . S
C347 H339 0.930 . S
C347 C348 1.355 . S
C347 C349 1.415 . S
C348 C347 1.355 . S
C348 C350 1.419 . S
C349 C344 1.425 . S
C349 C346 1.409 . S
C349 C347 1.415 . S
C350 H340 0.930 . S
C350 C348 1.419 . S
C350 C351 1.362 . S
C351 H341 0.930 . S
C351 C344 1.409 . S
C351 C350 1.362 . S
H352 C358 0.930 . S
H353 C361 0.930 . S
H354 C362 0.930 . S
H355 C363 0.930 . S
H356 C366 0.930 . S
H357 C367 0.930 . S
C358 H352 0.930 . S
C358 C359 1.355 . S
C358 C360 1.415 . S
C359 C358 1.355 . S
C359 C361 1.419 . S
C360 C358 1.415 . S
C360 C365 1.425 . S
C360 C367 1.409 . S
C361 H353 0.930 . S
C361 C359 1.419 . S
C361 C362 1.362 . S
C362 H354 0.930 . S
C362 C361 1.362 . S
C362 C365 1.409 . S
C363 H355 0.930 . S
C363 C364 1.355 . S
C363 C365 1.415 . S
C364 C363 1.355 . S
C364 C366 1.419 . S
C365 C360 1.425 . S
C365 C362 1.409 . S
C365 C363 1.415 . S
C366 H356 0.930 . S
C366 C364 1.419 . S
C366 C367 1.362 . S
C367 H357 0.930 . S
C367 C360 1.409 . S
C367 C366 1.362 . S
H368 C374 0.930 . S
H369 C377 0.930 . S
H370 C378 0.930 . S
H371 C379 0.930 . S
H372 C382 0.930 . S
H373 C383 0.930 . S
C374 H368 0.930 . S
C374 C375 1.355 . S
C374 C376 1.415 . S
C375 C374 1.355 . S
C375 C377 1.419 . S
C376 C374 1.415 . S
C376 C381 1.425 . S
C376 C383 1.409 . S
C377 H369 0.930 . S
C377 C375 1.419 . S
C377 C378 1.362 . S
C378 H370 0.930 . S
C378 C377 1.362 . S
C378 C381 1.409 . S
C379 H371 0.930 . S
C379 C380 1.355 . S
C379 C381 1.415 . S
C380 C379 1.355 . S
C380 C382 1.419 . S
C381 C376 1.425 . S
C381 C378 1.409 . S
C381 C379 1.415 . S
C382 H372 0.930 . S
C382 C380 1.419 . S
C382 C383 1.362 . S
C383 H373 0.930 . S
C383 C376 1.409 . S
C383 C382 1.362 . S
H384 C390 0.930 . S
H385 C393 0.930 . S
H386 C394 0.930 . S
H387 C395 0.930 . S
H388 C398 0.930 . S
H389 C399 0.930 . S
C390 H384 0.930 . S
C390 C391 1.355 . S
C390 C392 1.409 . S
C391 C390 1.355 . S
C391 C393 1.419 . S
C392 C390 1.409 . S
C392 C397 1.425 1_554 S
C392 C399 1.415 1_554 S
C393 H385 0.930 . S
C393 C391 1.419 . S
C393 C394 1.362 . S
C394 H386 0.930 . S
C394 C393 1.362 . S
C394 C397 1.415 1_554 S
C395 H387 0.930 . S
C395 C396 1.355 . S
C395 C397 1.409 . S
C396 C395 1.355 . S
C396 C398 1.419 . S
C397 C392 1.425 1_556 S
C397 C394 1.415 1_556 S
C397 C395 1.409 . S
C398 H388 0.930 . S
C398 C396 1.419 . S
C398 C399 1.362 . S
C399 H389 0.930 . S
C399 C392 1.415 1_556 S
C399 C398 1.362 . S
H400 C406 0.930 . S
H401 C409 0.930 . S
H402 C410 0.919 1_556 S
H403 C411 0.930 . S
H404 C414 0.930 . S
H405 C415 0.919 1_554 S
C406 H400 0.930 . S
C406 C407 1.355 . S
C406 C408 1.415 . S
C407 C406 1.355 . S
C407 C409 1.419 . S
C408 C406 1.415 . S
C408 C413 1.425 1_554 S
C408 C415 1.409 1_554 S
C409 H401 0.930 . S
C409 C407 1.419 . S
C409 C410 1.362 . S
C410 H402 0.919 1_554 S
C410 C409 1.362 . S
C410 C413 1.409 1_554 S
C411 H403 0.930 . S
C411 C412 1.355 . S
C411 C413 1.415 . S
C412 C411 1.355 . S
C412 C414 1.419 . S
C413 C408 1.425 1_556 S
C413 C410 1.409 1_556 S
C413 C411 1.415 . S
C414 H404 0.930 . S
C414 C412 1.419 . S
C414 C415 1.362 . S
C415 H405 0.919 1_556 S
C415 C408 1.409 1_556 S
C415 C414 1.362 . S
H416 C422 0.930 . S
H417 C425 0.930 . S
H418 C426 0.930 . S
H419 C427 0.930 . S
H420 C430 0.930 . S
H421 C431 0.930 . S
C422 H416 0.930 . S
C422 C423 1.355 . S
C422 C424 1.415 . S
C423 C422 1.355 . S
C423 C425 1.419 . S
C424 C422 1.415 . S
C424 C429 1.425 . S
C424 C431 1.409 . S
C425 H417 0.930 . S
C425 C423 1.419 . S
C425 C426 1.362 . S
C426 H418 0.930 . S
C426 C425 1.362 . S
C426 C429 1.409 . S
C427 H419 0.930 . S
C427 C428 1.355 . S
C427 C429 1.415 . S
C428 C427 1.355 . S
C428 C430 1.419 . S
C429 C424 1.425 . S
C429 C426 1.409 . S
C429 C427 1.415 . S
C430 H420 0.930 . S
C430 C428 1.419 . S
C430 C431 1.362 . S
C431 H421 0.930 . S
C431 C424 1.409 . S
C431 C430 1.362 . S
H432 C438 0.930 . S
H433 C441 0.930 . S
H434 C442 0.930 . S
H435 C443 0.930 . S
H436 C446 0.930 . S
H437 C447 0.930 . S
C438 H432 0.930 . S
C438 C439 1.355 . S
C438 C440 1.415 . S
C439 C438 1.355 . S
C439 C441 1.419 . S
C440 C438 1.415 . S
C440 C445 1.425 . S
C440 C447 1.409 . S
C441 H433 0.930 . S
C441 C439 1.419 . S
C441 C442 1.362 . S
C442 H434 0.930 . S
C442 C441 1.362 . S
C442 C445 1.409 . S
C443 H435 0.930 . S
C443 C444 1.355 . S
C443 C445 1.415 . S
C444 C443 1.355 . S
C444 C446 1.419 . S
C445 C440 1.425 . S
C445 C442 1.409 . S
C445 C443 1.415 . S
C446 H436 0.930 . S
C446 C444 1.419 . S
C446 C447 1.362 . S
C447 H437 0.930 . S
C447 C440 1.409 . S
C447 C446 1.362 . S
H448 C454 0.930 . S
H449 C457 0.930 . S
H450 C458 0.930 . S
H451 C459 0.930 . S
H452 C462 0.930 . S
H453 C463 0.930 . S
C454 H448 0.930 . S
C454 C455 1.355 . S
C454 C456 1.415 . S
C455 C454 1.355 . S
C455 C457 1.419 . S
C456 C454 1.415 . S
C456 C461 1.425 . S
C456 C463 1.409 . S
C457 H449 0.930 . S
C457 C455 1.419 . S
C457 C458 1.362 . S
C458 H450 0.930 . S
C458 C457 1.362 . S
C458 C461 1.409 . S
C459 H451 0.930 . S
C459 C460 1.355 . S
C459 C461 1.415 . S
C460 C459 1.355 . S
C460 C462 1.419 . S
C461 C456 1.425 . S
C461 C458 1.409 . S
C461 C459 1.415 . S
C462 H452 0.930 . S
C462 C460 1.419 . S
C462 C463 1.362 . S
C463 H453 0.930 . S
C463 C456 1.409 . S
C463 C462 1.362 . S
H464 C470 0.930 . S
H465 C473 0.930 . S
H466 C474 0.930 . S
H467 C475 0.930 . S
H468 C478 0.930 . S
H469 C479 0.930 . S
C470 H464 0.930 . S
C470 C471 1.355 . S
C470 C472 1.411 1_455 S
C471 C470 1.355 . S
C471 C473 1.419 . S
C472 C470 1.411 1_655 S
C472 C477 1.425 1_645 S
C472 C479 1.413 . S
C473 H465 0.930 . S
C473 C471 1.419 . S
C473 C474 1.362 1_545 S
C474 H466 0.930 . S
C474 C473 1.362 1_565 S
C474 C477 1.415 . S
C475 H467 0.930 . S
C475 C476 1.355 . S
C475 C477 1.409 1_655 S
C476 C475 1.355 . S
C476 C478 1.419 . S
C477 C472 1.425 1_465 S
C477 C474 1.415 . S
C477 C475 1.409 1_455 S
C478 H468 0.930 . S
C478 C476 1.419 . S
C478 C479 1.362 1_565 S
C479 H469 0.930 . S
C479 C472 1.413 . S
C479 C478 1.362 1_545 S
H480 C486 0.930 1_655 S
H481 C489 0.930 . S
H482 C490 0.930 . S
H483 C491 0.930 1_455 S
H484 C494 0.930 . S
H485 C495 0.930 . S
C486 H480 0.930 1_455 S
C486 C487 1.355 . S
C486 C488 1.415 1_455 S
C487 C486 1.355 . S
C487 C489 1.419 . S
C488 C486 1.415 1_655 S
C488 C493 1.425 1_655 S
C488 C495 1.409 . S
C489 H481 0.930 . S
C489 C487 1.419 . S
C489 C490 1.362 . S
C490 H482 0.930 . S
C490 C489 1.362 . S
C490 C493 1.409 . S
C491 H483 0.930 1_655 S
C491 C492 1.355 . S
C491 C493 1.415 1_655 S
C492 C491 1.355 . S
C492 C494 1.419 . S
C493 C488 1.425 1_455 S
C493 C490 1.409 . S
C493 C491 1.415 1_455 S
C494 H484 0.930 . S
C494 C492 1.419 . S
C494 C495 1.362 . S
C495 H485 0.930 . S
C495 C488 1.409 . S
C495 C494 1.362 . S
H496 C502 0.930 . S
H497 C505 0.930 . S
H498 C506 0.930 . S
H499 C507 0.930 . S
H500 C510 0.930 . S
H501 C511 0.930 . S
C502 H496 0.930 . S
C502 C503 1.355 . S
C502 C504 1.415 . S
C503 C502 1.355 . S
C503 C505 1.419 . S
C504 C502 1.415 . S
C504 C509 1.425 . S
C504 C511 1.409 . S
C505 H497 0.930 . S
C505 C503 1.419 . S
C505 C506 1.362 . S
C506 H498 0.930 . S
C506 C505 1.362 . S
C506 C509 1.409 . S
C507 H499 0.930 . S
C507 C508 1.355 . S
C507 C509 1.415 . S
C508 C507 1.355 . S
C508 C510 1.419 . S
C509 C504 1.425 . S
C509 C506 1.409 . S
C509 C507 1.415 . S
C510 H500 0.930 . S
C510 C508 1.419 . S
C510 C511 1.362 . S
C511 H501 0.930 . S
C511 C504 1.409 . S
C511 C510 1.362 . S
H512 C518 0.930 . S
H513 C521 0.930 . S
H514 C522 0.930 . S
H515 C523 0.930 . S
H516 C526 0.930 . S
H517 C527 0.930 . S
C518 H512 0.930 . S
C518 C519 1.355 . S
C518 C520 1.415 1_545 S
C519 C518 1.355 . S
C519 C521 1.419 . S
C520 C518 1.415 1_565 S
C520 C525 1.425 1_565 S
C520 C527 1.409 . S
C521 H513 0.930 . S
C521 C519 1.419 . S
C521 C522 1.362 . S
C522 H514 0.930 . S
C522 C521 1.362 . S
C522 C525 1.409 . S
C523 H515 0.930 . S
C523 C524 1.355 . S
C523 C525 1.415 1_565 S
C524 C523 1.355 . S
C524 C526 1.419 . S
C525 C520 1.425 1_545 S
C525 C522 1.409 . S
C525 C523 1.415 1_545 S
C526 H516 0.930 . S
C526 C524 1.419 . S
C526 C527 1.362 . S
C527 H517 0.930 . S
C527 C520 1.409 . S
C527 C526 1.362 . S
H528 C534 0.930 . S
H529 C537 0.930 . S
H530 C538 0.930 . S
H531 C539 0.930 . S
H532 C542 0.930 . S
H533 C543 0.930 . S
C534 H528 0.930 . S
C534 C535 1.355 . S
C534 C536 1.415 . S
C535 C534 1.355 . S
C535 C537 1.419 . S
C536 C534 1.415 . S
C536 C541 1.425 1_455 S
C536 C543 1.409 1_455 S
C537 H529 0.930 . S
C537 C535 1.419 . S
C537 C538 1.362 . S
C538 H530 0.930 . S
C538 C537 1.362 . S
C538 C541 1.409 1_455 S
C539 H531 0.930 . S
C539 C540 1.355 . S
C539 C541 1.415 . S
C540 C539 1.355 . S
C540 C542 1.419 . S
C541 C536 1.425 1_655 S
C541 C538 1.409 1_655 S
C541 C539 1.415 . S
C542 H532 0.930 . S
C542 C540 1.419 . S
C542 C543 1.362 . S
C543 H533 0.930 . S
C543 C536 1.409 1_655 S
C543 C542 1.362 . S
H544 C550 0.930 . S
H545 C553 0.930 . S
H546 C554 0.930 . S
H547 C555 0.930 . S
H548 C558 0.930 . S
H549 C559 0.930 . S
C550 H544 0.930 . S
C550 C551 1.355 . S
C550 C552 1.415 . S
C551 C550 1.355 . S
C551 C553 1.419 . S
C552 C550 1.415 . S
C552 C557 1.425 . S
C552 C559 1.409 . S
C553 H545 0.930 . S
C553 C551 1.419 . S
C553 C554 1.362 . S
C554 H546 0.930 . S
C554 C553 1.362 . S
C554 C557 1.409 . S
C555 H547 0.930 . S
C555 C556 1.355 . S
C555 C557 1.415 . S
C556 C555 1.355 . S
C556 C558 1.419 . S
C557 C552 1.425 . S
C557 C554 1.409 . S
C557 C555 1.415 . S
C558 H548 0.930 . S
C558 C556 1.419 . S
C558 C559 1.362 . S
C559 H549 0.930 . S
C559 C552 1.409 . S
C559 C558 1.362 . S
H560 C566 0.930 1_545 S
H561 C569 0.930 . S
H562 C570 0.930 . S
H563 C571 0.930 1_565 S
H564 C574 0.930 . S
H565 C575 0.930 . S
C566 H560 0.930 1_565 S
C566 C567 1.355 . S
C566 C568 1.415 1_565 S
C567 C566 1.355 . S
C567 C569 1.419 . S
C568 C566 1.415 1_545 S
C568 C573 1.425 1_545 S
C568 C575 1.409 . S
C569 H561 0.930 . S
C569 C567 1.419 . S
C569 C570 1.362 . S
C570 H562 0.930 . S
C570 C569 1.362 . S
C570 C573 1.409 . S
C571 H563 0.930 1_545 S
C571 C572 1.355 . S
C571 C573 1.415 1_545 S
C572 C571 1.355 . S
C572 C574 1.419 . S
C573 C568 1.425 1_565 S
C573 C570 1.409 . S
C573 C571 1.415 1_565 S
C574 H564 0.930 . S
C574 C572 1.419 . S
C574 C575 1.362 . S
C575 H565 0.930 . S
C575 C568 1.409 . S
C575 C574 1.362 . S
H576 C582 0.930 1_655 S
H577 C585 0.930 . S
H578 C586 0.930 . S
H579 C587 0.930 1_455 S
H580 C590 0.930 . S
H581 C591 0.930 . S
C582 H576 0.930 1_455 S
C582 C583 1.355 . S
C582 C584 1.415 1_455 S
C583 C582 1.355 . S
C583 C585 1.419 . S
C584 C582 1.415 1_655 S
C584 C589 1.425 1_645 S
C584 C591 1.409 . S
C585 H577 0.930 . S
C585 C583 1.419 . S
C585 C586 1.362 1_545 S
C586 H578 0.930 . S
C586 C585 1.362 1_565 S
C586 C589 1.409 . S
C587 H579 0.930 1_655 S
C587 C588 1.355 . S
C587 C589 1.415 1_655 S
C588 C587 1.355 . S
C588 C590 1.419 . S
C589 C584 1.425 1_465 S
C589 C586 1.409 . S
C589 C587 1.415 1_455 S
C590 H580 0.930 . S
C590 C588 1.419 . S
C590 C591 1.362 1_565 S
C591 H581 0.930 . S
C591 C584 1.409 . S
C591 C590 1.362 1_545 S
H592 C598 0.930 . S
H593 C601 0.930 . S
H594 C602 0.930 . S
H595 C603 0.930 . S
H596 C606 0.930 . S
H597 C607 0.930 . S
C598 H592 0.930 . S
C598 C599 1.355 1_545 S
C598 C600 1.415 . S
C599 C598 1.355 1_565 S
C599 C601 1.419 . S
C600 C598 1.415 . S
C600 C605 1.425 1_545 S
C600 C607 1.409 . S
C601 H593 0.930 . S
C601 C599 1.419 . S
C601 C602 1.362 . S
C602 H594 0.930 . S
C602 C601 1.362 . S
C602 C605 1.409 . S
C603 H595 0.930 . S
C603 C604 1.355 1_565 S
C603 C605 1.415 . S
C604 C603 1.355 1_545 S
C604 C606 1.419 . S
C605 C600 1.425 1_565 S
C605 C602 1.409 . S
C605 C603 1.415 . S
C606 H596 0.930 . S
C606 C604 1.419 . S
C606 C607 1.362 . S
C607 H597 0.930 . S
C607 C600 1.409 . S
C607 C606 1.362 . S
H608 C614 0.930 . S
H609 C617 0.930 . S
H610 C618 0.930 . S
H611 C619 0.930 . S
H612 C622 0.930 . S
H613 C623 0.930 . S
C614 H608 0.930 . S
C614 C615 1.355 . S
C614 C616 1.411 1_565 S
C615 C614 1.355 . S
C615 C617 1.419 1_655 S
C616 C614 1.411 1_545 S
C616 C621 1.425 1_645 S
C616 C623 1.412 . S
C617 H609 0.930 . S
C617 C615 1.419 1_455 S
C617 C618 1.362 . S
C618 H610 0.930 . S
C618 C617 1.362 . S
C618 C621 1.412 . S
C619 H611 0.930 . S
C619 C620 1.355 . S
C619 C621 1.411 1_545 S
C620 C619 1.355 . S
C620 C622 1.419 1_455 S
C621 C616 1.425 1_465 S
C621 C618 1.412 . S
C621 C619 1.411 1_565 S
C622 H612 0.930 . S
C622 C620 1.419 1_655 S
C622 C623 1.362 . S
C623 H613 0.930 . S
C623 C616 1.412 . S
C623 C622 1.362 . S
H624 C630 0.930 . S
H625 C633 0.930 . S
H626 C634 0.930 . S
H627 C635 0.930 . S
H628 C638 0.930 . S
H629 C639 0.930 . S
C630 H624 0.930 . S
C630 C631 1.355 . S
C630 C632 1.415 . S
C631 C630 1.355 . S
C631 C633 1.419 . S
C632 C630 1.415 . S
C632 C637 1.425 1_455 S
C632 C639 1.409 1_455 S
C633 H625 0.930 . S
C633 C631 1.419 . S
C633 C634 1.362 . S
C634 H626 0.930 . S
C634 C633 1.362 . S
C634 C637 1.409 1_455 S
C635 H627 0.930 . S
C635 C636 1.355 . S
C635 C637 1.415 . S
C636 C635 1.355 . S
C636 C638 1.419 . S
C637 C632 1.425 1_655 S
C637 C634 1.409 1_655 S
C637 C635 1.415 . S
C638 H628 0.930 . S
C638 C636 1.419 . S
C638 C639 1.362 . S
C639 H629 0.930 . S
C639 C632 1.409 1_655 S
C639 C638 1.362 . S
H640 C646 0.930 . S
H641 C649 0.930 . S
H642 C650 0.930 . S
H643 C651 0.930 . S
H644 C654 0.930 . S
H645 C655 0.930 . S
C646 H640 0.930 . S
C646 C647 1.355 . S
C646 C648 1.415 . S
C647 C646 1.355 . S
C647 C649 1.419 . S
C648 C646 1.415 . S
C648 C653 1.425 . S
C648 C655 1.409 . S
C649 H641 0.930 . S
C649 C647 1.419 . S
C649 C650 1.362 . S
C650 H642 0.930 . S
C650 C649 1.362 . S
C650 C653 1.409 . S
C651 H643 0.930 . S
C651 C652 1.355 . S
C651 C653 1.415 . S
C652 C651 1.355 . S
C652 C654 1.419 . S
C653 C648 1.425 . S
C653 C650 1.409 . S
C653 C651 1.415 . S
C654 H644 0.930 . S
C654 C652 1.419 . S
C654 C655 1.362 . S
C655 H645 0.930 . S
C655 C648 1.409 . S
C655 C654 1.362 . S
H656 C662 0.930 . S
H657 C665 0.930 . S
H658 C666 0.930 . S
H659 C667 0.930 . S
H660 C670 0.930 . S
H661 C671 0.930 . S
C662 H656 0.930 . S
C662 C663 1.355 . S
C662 C664 1.415 . S
C663 C662 1.355 . S
C663 C665 1.419 . S
C664 C662 1.415 . S
C664 C669 1.425 . S
C664 C671 1.409 . S
C665 H657 0.930 . S
C665 C663 1.419 . S
C665 C666 1.362 . S
C666 H658 0.930 . S
C666 C665 1.362 . S
C666 C669 1.409 . S
C667 H659 0.930 . S
C667 C668 1.355 . S
C667 C669 1.415 . S
C668 C667 1.355 . S
C668 C670 1.419 . S
C669 C664 1.425 . S
C669 C666 1.409 . S
C669 C667 1.415 . S
C670 H660 0.930 . S
C670 C668 1.419 . S
C670 C671 1.362 . S
C671 H661 0.930 . S
C671 C664 1.409 . S
C671 C670 1.362 . S
H672 C678 0.930 . S
H673 C681 0.930 . S
H674 C682 0.930 . S
H675 C683 0.930 . S
H676 C686 0.930 . S
H677 C687 0.930 . S
C678 H672 0.930 . S
C678 C679 1.355 . S
C678 C680 1.415 . S
C679 C678 1.355 . S
C679 C681 1.419 . S
C680 C678 1.415 . S
C680 C685 1.425 1_545 S
C680 C687 1.409 1_545 S
C681 H673 0.930 . S
C681 C679 1.419 . S
C681 C682 1.362 . S
C682 H674 0.930 . S
C682 C681 1.362 . S
C682 C685 1.409 1_545 S
C683 H675 0.930 . S
C683 C684 1.355 . S
C683 C685 1.415 . S
C684 C683 1.355 . S
C684 C686 1.419 . S
C685 C680 1.425 1_565 S
C685 C682 1.409 1_565 S
C685 C683 1.415 . S
C686 H676 0.930 . S
C686 C684 1.419 . S
C686 C687 1.362 . S
C687 H677 0.930 . S
C687 C680 1.409 1_565 S
C687 C686 1.362 . S
H688 C694 0.930 . S
H689 C697 0.930 . S
H690 C698 0.930 . S
H691 C699 0.930 . S
H692 C702 0.930 . S
H693 C703 0.930 . S
C694 H688 0.930 . S
C694 C695 1.355 . S
C694 C696 1.415 1_655 S
C695 C694 1.355 . S
C695 C697 1.419 1_565 S
C696 C694 1.415 1_455 S
C696 C701 1.425 1_465 S
C696 C703 1.409 . S
C697 H689 0.930 . S
C697 C695 1.419 1_545 S
C697 C698 1.362 . S
C698 H690 0.930 . S
C698 C697 1.362 . S
C698 C701 1.409 . S
C699 H691 0.930 . S
C699 C700 1.355 . S
C699 C701 1.415 1_455 S
C700 C699 1.355 . S
C700 C702 1.419 1_545 S
C701 C696 1.425 1_645 S
C701 C698 1.409 . S
C701 C699 1.415 1_655 S
C702 H692 0.930 . S
C702 C700 1.419 1_565 S
C702 C703 1.362 . S
C703 H693 0.930 . S
C703 C696 1.409 . S
C703 C702 1.362 . S
H704 C710 0.930 1_455 S
H705 C713 0.930 . S
H706 C714 0.930 . S
H707 C715 0.930 1_655 S
H708 C718 0.930 . S
H709 C719 0.930 . S
C710 H704 0.930 1_655 S
C710 C711 1.355 . S
C710 C712 1.415 1_655 S
C711 C710 1.355 . S
C711 C713 1.419 . S
C712 C710 1.415 1_455 S
C712 C717 1.425 1_455 S
C712 C719 1.409 . S
C713 H705 0.930 . S
C713 C711 1.419 . S
C713 C714 1.362 . S
C714 H706 0.930 . S
C714 C713 1.362 . S
C714 C717 1.409 . S
C715 H707 0.930 1_455 S
C715 C716 1.355 . S
C715 C717 1.415 1_455 S
C716 C715 1.355 . S
C716 C718 1.419 . S
C717 C712 1.425 1_655 S
C717 C714 1.409 . S
C717 C715 1.415 1_655 S
C718 H708 0.930 . S
C718 C716 1.419 . S
C718 C719 1.362 . S
C719 H709 0.930 . S
C719 C712 1.409 . S
C719 C718 1.362 . S
C215 C62 1.557 . S
C220 C10 1.553 . S
C231 C17 1.551 . S
C236 C69 1.558 . S
C247 C88 1.558 . S
C252 C36 1.551 . S
C263 C101 1.560 . S
C268 C43 1.553 . S
C279 C160 1.552 . S
C284 C108 1.558 . S
C295 C127 1.555 . S
C300 C173 1.556 . S
C311 C192 1.557 . S
C316 C140 1.555 . S
C327 C147 1.551 . S
C332 C205 1.561 . S
C343 C3 1.520 . S
C348 C198 1.533 . S
C359 C18 1.526 . S
C364 C161 1.524 . S
C375 C29 1.534 . S
C380 C174 1.521 . S
C391 C185 1.524 . S
C396 C44 1.526 . S
C407 C55 1.522 . S
C412 C120 1.535 . S
C423 C70 1.523 . S
C428 C133 1.528 . S
C439 C148 1.533 . S
C444 C81 1.529 . S
C455 C109 1.521 . S
C460 C94 1.534 . S
C471 C4 1.562 . S
C476 C134 1.563 . S
C487 C153 1.576 . S
C492 C23 1.576 . S
C503 C30 1.560 . S
C508 C114 1.559 . S
C519 C121 1.557 . S
C524 C49 1.556 . S
C535 C56 1.566 . S
C540 C186 1.564 . S
C551 C75 1.574 . S
C556 C199 1.575 . S
C567 C166 1.576 . S
C572 C82 1.576 . S
C583 C179 1.575 . S
C588 C95 1.576 . S
C599 C135 1.444 . S
C604 C5 1.447 . S
C615 C16 1.449 . S
C620 C146 1.451 . S
C631 C31 1.449 . S
C636 C107 1.451 . S
C647 C122 1.444 . S
C652 C42 1.446 . S
C663 C187 1.450 . S
C668 C57 1.450 . S
C679 C200 1.446 . S
C684 C68 1.450 . S
C695 C159 1.451 . S
C700 C83 1.449 . S
C711 C96 1.446 . S
C716 C172 1.444 . S
