# Generated by pormake.
# Topology wji, (4)-cn, num edge types: 1
# Building blocks:
#     Node 0, Type 0, BuildingBlock: ICAMEG_clean_sbu_1, # of connection points: 4
#     Node 1, Type 0, BuildingBlock: ICAMEG_clean_sbu_1, # of connection points: 4
#     Node 2, Type 0, BuildingBlock: ICAMEG_clean_sbu_1, # of connection points: 4
#     Node 3, Type 0, BuildingBlock: ICAMEG_clean_sbu_1, # of connection points: 4
#     Node 4, Type 0, BuildingBlock: ICAMEG_clean_sbu_1, # of connection points: 4
#     Node 5, Type 0, BuildingBlock: ICAMEG_clean_sbu_1, # of connection points: 4
#     Node 6, Type 0, BuildingBlock: ICAMEG_clean_sbu_1, # of connection points: 4
#     Node 7, Type 0, BuildingBlock: ICAMEG_clean_sbu_1, # of connection points: 4
#     Node 8, Type 0, BuildingBlock: ICAMEG_clean_sbu_1, # of connection points: 4
#     Node 9, Type 0, BuildingBlock: ICAMEG_clean_sbu_1, # of connection points: 4
#     Node 10, Type 0, BuildingBlock: ICAMEG_clean_sbu_1, # of connection points: 4
#     Node 11, Type 0, BuildingBlock: ICAMEG_clean_sbu_1, # of connection points: 4
#     Edge 12, Type (0, 0), BuildingBlock: OJICUG_clean_linker_0, # of connection points: 2
#     Edge 13, Type (0, 0), BuildingBlock: OJICUG_clean_linker_0, # of connection points: 2
#     Edge 14, Type (0, 0), BuildingBlock: OJICUG_clean_linker_0, # of connection points: 2
#     Edge 15, Type (0, 0), BuildingBlock: OJICUG_clean_linker_0, # of connection points: 2
#     Edge 16, Type (0, 0), BuildingBlock: OJICUG_clean_linker_0, # of connection points: 2
#     Edge 17, Type (0, 0), BuildingBlock: OJICUG_clean_linker_0, # of connection points: 2
#     Edge 18, Type (0, 0), BuildingBlock: OJICUG_clean_linker_0, # of connection points: 2
#     Edge 19, Type (0, 0), BuildingBlock: OJICUG_clean_linker_0, # of connection points: 2
#     Edge 20, Type (0, 0), BuildingBlock: OJICUG_clean_linker_0, # of connection points: 2
#     Edge 21, Type (0, 0), BuildingBlock: OJICUG_clean_linker_0, # of connection points: 2
#     Edge 22, Type (0, 0), BuildingBlock: OJICUG_clean_linker_0, # of connection points: 2
#     Edge 23, Type (0, 0), BuildingBlock: OJICUG_clean_linker_0, # of connection points: 2
#     Edge 24, Type (0, 0), BuildingBlock: OJICUG_clean_linker_0, # of connection points: 2
#     Edge 25, Type (0, 0), BuildingBlock: OJICUG_clean_linker_0, # of connection points: 2
#     Edge 26, Type (0, 0), BuildingBlock: OJICUG_clean_linker_0, # of connection points: 2
#     Edge 27, Type (0, 0), BuildingBlock: OJICUG_clean_linker_0, # of connection points: 2
#     Edge 28, Type (0, 0), BuildingBlock: OJICUG_clean_linker_0, # of connection points: 2
#     Edge 29, Type (0, 0), BuildingBlock: OJICUG_clean_linker_0, # of connection points: 2
#     Edge 30, Type (0, 0), BuildingBlock: OJICUG_clean_linker_0, # of connection points: 2
#     Edge 31, Type (0, 0), BuildingBlock: OJICUG_clean_linker_0, # of connection points: 2
#     Edge 32, Type (0, 0), BuildingBlock: OJICUG_clean_linker_0, # of connection points: 2
#     Edge 33, Type (0, 0), BuildingBlock: OJICUG_clean_linker_0, # of connection points: 2
#     Edge 34, Type (0, 0), BuildingBlock: OJICUG_clean_linker_0, # of connection points: 2
#     Edge 35, Type (0, 0), BuildingBlock: OJICUG_clean_linker_0, # of connection points: 2
# Relax obj value: 0.328
# Max RMSD: 0.211
# Mean RMSD: 0.211
data_MOF--net-wji--node1-ICAMEG_clean_sbu_1--edge1-OJICUG_clean_linker_0
_symmetry_space_group_name_H-M    P1
_symmetry_Int_Tables_number       1
_symmetry_cell_setting            triclinic
loop_
_symmetry_equiv_pos_as_xyz
'x, y, z'
_cell_length_a     44.666273
_cell_length_b     44.859371
_cell_length_c     17.15634
_cell_angle_alpha  90.026458
_cell_angle_beta   90.040978
_cell_angle_gamma 120.23123
loop_
_atom_site_label
_atom_site_type_symbol
_atom_site_fract_x
_atom_site_fract_y
_atom_site_fract_z
_atom_type_partial_charge
Co0 Co 0.43985 0.37741 0.47416 0.0
Co1 Co 0.46086 0.32771 0.35845 0.0
O2 O 0.43652 0.33366 0.44691 0.0
C3 C 0.36658 0.32369 0.52092 0.0
O4 O 0.36981 0.29724 0.50069 0.0
C5 C 0.48188 0.30205 0.49888 0.0
O6 O 0.49029 0.33165 0.53183 0.0
O7 O 0.50653 0.36935 0.38915 0.0
O8 O 0.49041 0.40311 0.45021 0.0
H9 H 0.53875 0.36523 0.12421 0.0
H10 H 0.4184 0.31759 0.58492 0.0
O11 O 0.38946 0.35431 0.50201 0.0
H12 H 0.51099 0.4181 0.72037 0.0
H13 H 0.41216 0.45713 0.62279 0.0
H14 H 0.47418 0.44574 0.39865 0.0
H15 H 0.48887 0.42528 0.59421 0.0
H16 H 0.41148 0.40273 0.5997 0.0
O17 O 0.47169 0.29691 0.42758 0.0
H18 H 0.5082 0.37307 0.2352 0.0
H19 H 0.46473 0.2676 0.29679 0.0
H20 H 0.4758 0.50076 0.42085 0.0
H21 H 0.4355 0.31037 0.71525 0.0
H22 H 0.44486 0.50693 0.53428 0.0
H23 H 0.48297 0.36076 0.78381 0.0
O24 O 0.42724 0.38246 0.36556 0.0
H25 H 0.35137 0.21476 0.40511 0.0
H26 H 0.42162 0.30283 0.20904 0.0
H27 H 0.36623 0.25213 0.16985 0.0
H28 H 0.33073 0.20759 0.26818 0.0
H29 H 0.40674 0.26604 0.44201 0.0
H30 H 0.49495 0.25862 0.18681 0.0
H31 H 0.53217 0.30764 0.09949 0.0
O32 O 0.44858 0.35728 0.28786 0.0
C33 C 0.51368 0.39756 0.423 0.0
C34 C 0.52253 0.34365 0.16172 0.0
C35 C 0.49799 0.28382 0.19695 0.0
N36 N 0.48457 0.32078 0.27195 0.0
C37 C 0.50512 0.34792 0.22448 0.0
C38 C 0.48103 0.28908 0.25923 0.0
C39 C 0.51885 0.31134 0.14793 0.0
C40 C 0.43705 0.34025 0.61536 0.0
N41 N 0.45179 0.37212 0.58123 0.0
C42 C 0.44737 0.33577 0.68919 0.0
C43 C 0.47405 0.36396 0.72746 0.0
C44 C 0.48957 0.39619 0.69206 0.0
C45 C 0.4774 0.39997 0.61975 0.0
C46 C 0.42611 0.45503 0.57412 0.0
C47 C 0.46101 0.44832 0.44878 0.0
C48 C 0.42569 0.42417 0.56042 0.0
N49 N 0.44303 0.42113 0.49827 0.0
C50 C 0.46198 0.47956 0.4609 0.0
C51 C 0.44445 0.48291 0.52424 0.0
C52 C 0.43321 0.37484 0.2979 0.0
C53 C 0.36662 0.23398 0.36171 0.0
C54 C 0.40621 0.28374 0.25237 0.0
C55 C 0.37492 0.25499 0.22973 0.0
C56 C 0.35503 0.22999 0.2849 0.0
N57 N 0.41742 0.28747 0.32784 0.0
C58 C 0.39806 0.26305 0.38222 0.0
Co59 Co 0.07768 0.44729 0.65282 0.0
Co60 Co 0.14169 0.44854 0.54727 0.0
O61 O 0.11314 0.43515 0.63868 0.0
C62 C 0.04445 0.37487 0.71027 0.0
O63 O 0.04781 0.36444 0.64104 0.0
C64 C 0.21165 0.48191 0.62932 0.0
O65 O 0.22114 0.5095 0.58642 0.0
O66 O 0.15475 0.4981 0.5647 0.0
O67 O 0.1017 0.48923 0.58577 0.0
H68 H 0.18779 0.51031 0.29335 0.0
H69 H 0.11814 0.43966 0.78114 0.0
O70 O 0.05342 0.40629 0.72288 0.0
H71 H 0.13064 0.55426 0.82051 0.0
H72 H 0.99537 0.46805 0.81201 0.0
H73 H 0.03828 0.46761 0.54768 0.0
H74 H 0.09425 0.51655 0.71412 0.0
H75 H 0.03751 0.4487 0.79014 0.0
O76 O 0.18147 0.45546 0.6193 0.0
H77 H 0.15014 0.4916 0.40974 0.0
H78 H 0.1973 0.43559 0.49074 0.0
H79 H 0.99366 0.48384 0.56555 0.0
H80 H 0.15588 0.47719 0.88621 0.0
H81 H 0.97257 0.48513 0.69894 0.0
H82 H 0.16213 0.53485 0.90695 0.0
O83 O 0.05348 0.41962 0.55822 0.0
H84 H 0.12061 0.33243 0.63354 0.0
H85 H 0.11831 0.40074 0.4109 0.0
H86 H 0.10109 0.33971 0.39122 0.0
H87 H 0.10227 0.30514 0.50301 0.0
H88 H 0.13736 0.39346 0.6508 0.0
H89 H 0.23568 0.45383 0.37559 0.0
H90 H 0.23097 0.49141 0.27593 0.0
O91 O 0.0996 0.43913 0.47779 0.0
C92 C 0.1338 0.50931 0.57325 0.0
C93 C 0.19007 0.4939 0.33634 0.0
C94 C 0.21697 0.46222 0.38255 0.0
N95 N 0.17154 0.46251 0.45658 0.0
C96 C 0.1688 0.48321 0.40218 0.0
C97 C 0.19525 0.45204 0.44762 0.0
C98 C 0.2143 0.4833 0.32661 0.0
C99 C 0.12079 0.46476 0.78926 0.0
N100 N 0.1034 0.47552 0.74201 0.0
C101 C 0.14223 0.48591 0.84905 0.0
C102 C 0.14571 0.51824 0.86069 0.0
C103 C 0.12792 0.52908 0.81247 0.0
C104 C 0.10706 0.50742 0.7527 0.0
C105 C 1.00424 0.46751 0.75361 0.0
C106 C 0.02851 0.46707 0.60556 0.0
C107 C 0.02818 0.45669 0.74105 0.0
N108 N 0.04086 0.45768 0.6681 0.0
C109 C 1.00344 0.47661 0.61544 0.0
C110 C 0.99157 0.47722 0.69019 0.0
C111 C 0.06635 0.42353 0.48959 0.0
C112 C 0.12012 0.34726 0.58431 0.0
C113 C 0.11884 0.38587 0.45988 0.0
C114 C 0.10911 0.35133 0.44834 0.0
C115 C 0.10978 0.33195 0.51108 0.0
N116 N 0.12911 0.40075 0.53181 0.0
C117 C 0.12971 0.38188 0.59366 0.0
Co118 Co 0.63627 0.06146 0.82956 0.0
Co119 Co 0.69773 0.12875 0.72566 0.0
O120 O 0.68285 0.10154 0.8206 0.0
C121 C 0.68111 0.0359 0.89207 0.0
O122 O 0.69635 0.04104 0.82405 0.0
C123 C 0.72596 0.18099 0.85919 0.0
O124 O 0.69642 0.16247 0.89543 0.0
O125 O 0.6576 0.13697 0.73663 0.0
O126 O 0.61603 0.08211 0.75804 0.0
H127 H 0.67887 0.16545 0.46242 0.0
H128 H 0.67565 0.09909 0.97083 0.0
O129 O 0.65593 0.04116 0.90239 0.0
H130 H 0.56581 0.09978 0.9845 0.0
H131 H 0.53866 0.96392 0.97669 0.0
H132 H 0.57859 0.01934 0.71987 0.0
H133 H 0.57709 0.0708 0.87596 0.0
H134 H 0.5964 1.0157 0.96206 0.0
O135 O 0.72953 0.17235 0.78995 0.0
H136 H 0.66156 0.13071 0.58294 0.0
H137 H 0.76496 0.18671 0.66719 0.0
H138 H 0.52054 0.96773 0.73198 0.0
H139 H 0.66584 0.129 0.07954 0.0
H140 H 0.50021 0.93969 0.86114 0.0
H141 H 0.61036 0.12913 0.08756 0.0
O142 O 0.64516 0.03972 0.7382 0.0
H143 H 0.79754 0.11839 0.82782 0.0
H144 H 0.72731 0.10716 0.59587 0.0
H145 H 0.77483 0.09449 0.58495 0.0
H146 H 0.8104 0.10017 0.70145 0.0
H147 H 0.7496 0.13055 0.83628 0.0
H148 H 0.78332 0.22231 0.54806 0.0
H149 H 0.74016 0.21165 0.44448 0.0
O150 O 0.66831 0.08547 0.65828 0.0
C151 C 0.62567 0.11333 0.74073 0.0
C152 C 0.69793 0.1703 0.50707 0.0
C153 C 0.75655 0.20224 0.55519 0.0
N154 N 0.71223 0.15657 0.63178 0.0
C155 C 0.68829 0.15067 0.57532 0.0
C156 C 0.74597 0.18209 0.62265 0.0
C157 C 0.73232 0.19623 0.49707 0.0
C158 C 0.65133 0.09864 0.97439 0.0
N159 N 0.62699 0.08301 0.91735 0.0
C160 C 0.64593 0.11576 0.03593 0.0
C161 C 0.61493 0.11606 0.04 0.0
C162 C 0.58996 0.09964 0.9822 0.0
C163 C 0.59652 0.08327 0.92082 0.0
C164 C 0.54718 0.97595 0.92012 0.0
C165 C 0.56989 1.00737 0.77631 0.0
C166 C 0.57991 1.00521 0.91141 0.0
N167 N 0.59077 0.02068 0.84024 0.0
C168 C 0.53701 0.9781 0.78279 0.0
C169 C 0.52563 0.96236 0.85527 0.0
C170 C 0.65371 0.05264 0.67003 0.0
C171 C 0.78233 0.11597 0.77655 0.0
C172 C 0.74264 0.10968 0.64686 0.0
C173 C 0.76955 0.1025 0.64029 0.0
C174 C 0.7895 0.1057 0.70567 0.0
N175 N 0.73588 0.11991 0.71651 0.0
C176 C 0.75524 0.12296 0.78092 0.0
Co177 Co 0.61158 0.65511 0.9684 0.0
Co178 Co 0.58877 0.7038 0.85882 0.0
O179 O 0.61384 0.6988 0.94696 0.0
C180 C 0.68234 0.70941 0.03018 0.0
O181 O 0.67872 0.73562 1.00975 0.0
C182 C 0.56876 0.73094 0.99778 0.0
O183 O 0.55969 0.70124 0.03088 0.0
O184 O 0.54345 0.66292 0.89434 0.0
O185 O 0.56357 0.6284 0.92738 0.0
H186 H 0.50809 0.66318 0.62903 0.0
H187 H 0.62795 0.7079 0.09384 0.0
O188 O 0.65972 0.67866 1.01156 0.0
H189 H 0.52467 0.60326 0.18705 0.0
H190 H 0.62899 0.56973 0.12236 0.0
H191 H 0.58603 0.59086 0.87698 0.0
H192 H 0.55371 0.6019 0.06643 0.0
H193 H 0.63277 0.62561 0.09939 0.0
O194 O 0.57912 0.73581 0.92665 0.0
H195 H 0.53981 0.65678 0.73967 0.0
H196 H 0.5844 0.76314 0.79403 0.0
H197 H 0.58164 0.53455 0.89855 0.0
H198 H 0.60322 0.70896 0.21999 0.0
H199 H 0.60317 0.52357 0.02254 0.0
H200 H 0.55036 0.65657 0.26689 0.0
O201 O 0.63051 0.65619 0.86337 0.0
H202 H 0.69946 0.81673 0.89538 0.0
H203 H 0.62587 0.72623 0.70658 0.0
H204 H 0.68091 0.77603 0.66263 0.0
H205 H 0.71809 0.82179 0.75729 0.0
H206 H 0.64437 0.76634 0.93703 0.0
H207 H 0.55302 0.7707 0.68435 0.0
H208 H 0.51467 0.72051 0.6008 0.0
O209 O 0.59998 0.67273 0.7891 0.0
C210 C 0.53847 0.63341 0.91452 0.0
C211 C 0.5248 0.68527 0.66489 0.0
C212 C 0.54997 0.74561 0.69603 0.0
N213 N 0.56405 0.70959 0.77276 0.0
C214 C 0.54286 0.68181 0.72743 0.0
C215 C 0.56759 0.74116 0.75815 0.0
C216 C 0.52847 0.71743 0.64913 0.0
C217 C 0.60664 0.68429 0.11525 0.0
N218 N 0.59288 0.65467 0.07189 0.0
C219 C 0.5921 0.68529 0.18652 0.0
C220 C 0.5624 0.656 0.21262 0.0
C221 C 0.54807 0.62607 0.16792 0.0
C222 C 0.56428 0.6256 0.09866 0.0
C223 C 0.61956 0.57414 0.06857 0.0
C224 C 0.59543 0.58634 0.93119 0.0
C225 C 0.62166 0.60579 0.05507 0.0
N226 N 0.60931 0.61142 0.98728 0.0
C227 C 0.5929 0.55436 0.94293 0.0
C228 C 0.60501 0.54825 1.01237 0.0
C229 C 0.61996 0.65972 0.79679 0.0
C230 C 0.68348 0.79697 0.85357 0.0
C231 C 0.64201 0.74588 0.74831 0.0
C232 C 0.6731 0.7741 0.72298 0.0
C233 C 0.69393 0.79978 0.7761 0.0
N234 N 0.63192 0.74331 0.8244 0.0
C235 C 0.65221 0.76839 0.87679 0.0
Co236 Co 0.97355 0.5854 0.1501 0.0
Co237 Co 0.90914 0.58344 0.0443 0.0
O238 O 0.9378 0.59721 0.1358 0.0
C239 C 1.00655 0.65782 0.20816 0.0
O240 O 1.00344 0.66839 0.13891 0.0
C241 C 0.84099 0.54887 0.13467 0.0
O242 O 0.83344 0.5195 0.10157 0.0
O243 O 0.89669 0.53408 0.06177 0.0
O244 O 0.94991 0.54351 0.08273 0.0
H245 H 0.86399 0.522 0.78934 0.0
H246 H 0.93305 0.59276 0.27856 0.0
O247 O 0.99752 0.62638 0.22048 0.0
H248 H 0.92098 0.4783 0.31691 0.0
H249 H 0.05575 0.56476 0.30997 0.0
H250 H 1.01327 0.5654 0.04515 0.0
H251 H 0.95727 0.51617 0.21083 0.0
H252 H 1.01382 0.58432 0.28758 0.0
O253 O 0.86912 0.57641 0.11588 0.0
H254 H 0.90161 0.54099 0.90598 0.0
H255 H 0.85227 0.59462 0.98894 0.0
H256 H 0.05769 0.5489 0.06359 0.0
H257 H 0.89546 0.55509 0.38344 0.0
H258 H 0.0786 0.54758 0.19721 0.0
H259 H 0.88942 0.4975 0.40364 0.0
O260 O 0.99759 0.61316 0.05572 0.0
H261 H 0.92925 0.69935 0.12962 0.0
H262 H 0.93172 0.63081 0.9075 0.0
H263 H 0.94824 0.69162 0.88722 0.0
H264 H 0.94697 0.72629 0.99876 0.0
H265 H 0.91319 0.63854 0.14746 0.0
H266 H 0.81387 0.57601 0.87365 0.0
H267 H 0.81977 0.53958 0.77272 0.0
O268 O 0.9514 0.59319 0.97508 0.0
C269 C 0.91787 0.52316 0.07027 0.0
C270 C 0.86124 0.53794 0.83282 0.0
C271 C 0.83307 0.56822 0.8802 0.0
N272 N 0.87918 0.56898 0.95371 0.0
C273 C 0.88249 0.54881 0.89878 0.0
C274 C 0.85479 0.5786 0.9454 0.0
C275 C 0.8364 0.54778 0.82357 0.0
C276 C 0.93051 0.5677 0.28651 0.0
N277 N 0.94792 0.55705 0.23907 0.0
C278 C 0.90915 0.54646 0.34616 0.0
C279 C 0.90578 0.51417 0.35749 0.0
C280 C 0.92361 0.50345 0.3091 0.0
C281 C 0.9444 0.52519 0.24948 0.0
C282 C 0.04704 0.56541 0.25145 0.0
C283 C 1.02299 0.56592 0.10313 0.0
C284 C 1.0232 0.57633 0.2386 0.0
N285 N 1.01059 0.57534 0.16554 0.0
C286 C 0.04795 0.55625 0.11332 0.0
C287 C 0.05971 0.55561 0.18821 0.0
C288 C 0.98468 0.60904 0.98702 0.0
C289 C 0.92978 0.68447 0.08051 0.0
C290 C 0.93114 0.64574 0.95636 0.0
C291 C 0.94048 0.68015 0.94449 0.0
C292 C 0.93976 0.69958 1.00709 0.0
N293 N 0.92122 0.63104 0.02846 0.0
C294 C 0.92058 0.64998 0.09018 0.0
Co295 Co 0.41462 0.97168 0.33036 0.0
Co296 Co 0.35317 0.9044 0.22593 0.0
O297 O 0.36806 0.93157 0.32105 0.0
C298 C 0.36979 0.99727 0.39284 0.0
O299 O 0.35459 0.99222 0.32472 0.0
C300 C 0.32503 0.85208 0.35915 0.0
O301 O 0.35454 0.87064 0.39561 0.0
O302 O 0.39336 0.89626 0.23675 0.0
O303 O 0.4349 0.9511 0.25881 0.0
H304 H 0.37199 0.86787 0.96243 0.0
H305 H 0.37525 0.93406 0.47141 0.0
O306 O 0.39491 0.99193 0.40322 0.0
H307 H 0.48508 0.93335 0.48541 0.0
H308 H 0.51213 0.06918 0.47837 0.0
H309 H 0.47231 1.01389 0.2211 0.0
H310 H 0.47378 0.96231 0.37686 0.0
H311 H 0.45442 0.01739 0.46325 0.0
O312 O 0.32144 0.86074 0.28994 0.0
H313 H 0.38931 0.90257 0.08315 0.0
H314 H 0.28596 0.8464 0.16713 0.0
H315 H 0.53034 0.06554 0.2337 0.0
H316 H 0.38508 0.90417 0.58012 0.0
H317 H 0.55061 0.09352 0.36308 0.0
H318 H 0.44055 0.90404 0.5883 0.0
O319 O 0.40573 0.99345 0.23903 0.0
H320 H 0.2533 0.91451 0.32828 0.0
H321 H 0.32348 0.926 0.09636 0.0
H322 H 0.27589 0.93857 0.08558 0.0
H323 H 0.24034 0.93276 0.20207 0.0
H324 H 0.30131 0.90245 0.3366 0.0
H325 H 0.26759 0.81084 0.04778 0.0
H326 H 0.31072 0.8216 0.94425 0.0
O327 O 0.38253 0.94773 0.15884 0.0
C328 C 0.42528 0.91992 0.24102 0.0
C329 C 0.35294 0.86297 1.00706 0.0
C330 C 0.29435 0.83093 0.05502 0.0
N331 N 0.33866 0.87662 0.13187 0.0
C332 C 0.36259 0.88258 0.07543 0.0
C333 C 0.30494 0.85107 0.1226 0.0
C334 C 0.31856 0.837 0.99692 0.0
C335 C 0.39956 0.9345 0.47503 0.0
N336 N 0.42389 0.95011 0.41809 0.0
C337 C 0.40497 0.91739 0.53657 0.0
C338 C 0.43597 0.91709 0.54074 0.0
C339 C 0.46093 0.93349 0.48302 0.0
C340 C 0.45435 0.94984 0.42164 0.0
C341 C 0.50364 0.05718 0.4217 0.0
C342 C 0.48099 0.02584 0.27763 0.0
C343 C 0.47093 0.02791 0.41271 0.0
N344 N 0.46009 1.01248 0.34142 0.0
C345 C 0.51385 0.05512 0.28439 0.0
C346 C 0.5252 0.07082 0.357 0.0
C347 C 0.39717 0.98056 0.17078 0.0
C348 C 0.2685 0.91698 0.27702 0.0
C349 C 0.30816 0.92342 0.14734 0.0
C350 C 0.28121 0.93054 0.14085 0.0
C351 C 0.26128 0.92727 0.20622 0.0
N352 N 0.31497 0.91317 0.2169 0.0
C353 C 0.29563 0.91005 0.28131 0.0
Co354 Co 0.65237 0.58732 0.36468 0.0
Co355 Co 0.71377 0.58265 0.46841 0.0
O356 O 0.69967 0.59767 0.37785 0.0
C357 C 0.69476 0.65974 0.30914 0.0
O358 O 0.71018 0.66912 0.37722 0.0
C359 C 0.74548 0.54773 0.37317 0.0
O360 O 0.72201 0.51788 0.40195 0.0
O361 O 0.67535 0.53368 0.44943 0.0
O362 O 0.63279 0.54492 0.43017 0.0
H363 H 0.69537 0.51926 0.72083 0.0
H364 H 0.69909 0.59529 0.23334 0.0
O365 O 0.67051 0.62891 0.29654 0.0
H366 H 0.59538 0.48072 0.19594 0.0
H367 H 0.54936 0.5675 0.20729 0.0
H368 H 0.59307 0.5684 0.47123 0.0
H369 H 0.59783 0.51858 0.30278 0.0
H370 H 0.61122 0.588 0.22916 0.0
O371 O 0.74623 0.57536 0.39586 0.0
H372 H 0.6777 0.53965 0.60545 0.0
H373 H 0.78129 0.59173 0.52264 0.0
H374 H 0.53214 0.55275 0.45396 0.0
H375 H 0.69806 0.55781 0.12714 0.0
H376 H 0.50953 0.55137 0.3206 0.0
H377 H 0.64594 0.50002 0.10788 0.0
O378 O 0.65732 0.61469 0.46011 0.0
H379 H 0.81272 0.69814 0.38704 0.0
H380 H 0.73999 0.62895 0.60713 0.0
H381 H 0.78596 0.68921 0.62961 0.0
H382 H 0.82278 0.72421 0.51911 0.0
H383 H 0.76628 0.63789 0.36699 0.0
H384 H 0.80012 0.57171 0.63667 0.0
H385 H 0.75701 0.53536 0.73691 0.0
O386 O 0.68209 0.59288 0.53894 0.0
C387 C 0.6433 0.52373 0.44116 0.0
C388 C 0.71441 0.53515 0.67765 0.0
C389 C 0.77321 0.56456 0.63034 0.0
N390 N 0.72849 0.56695 0.55787 0.0
C391 C 0.70456 0.54681 0.61239 0.0
C392 C 0.7624 0.57572 0.56584 0.0
C393 C 0.749 0.54417 0.68659 0.0
C394 C 0.67623 0.57029 0.22528 0.0
N395 N 0.64844 0.5594 0.27403 0.0
C396 C 0.67587 0.54909 0.16512 0.0
C397 C 0.64663 0.51667 0.15438 0.0
C398 C 0.61821 0.50588 0.20357 0.0
C399 C 0.61966 0.52759 0.26367 0.0
C400 C 0.55895 0.56897 0.2658 0.0
C401 C 0.58383 0.56925 0.41353 0.0
C402 C 0.59383 0.57989 0.27817 0.0
N403 N 0.60553 0.57852 0.35078 0.0
C404 C 0.54916 0.56002 0.40399 0.0
C405 C 0.53656 0.55939 0.32931 0.0
C406 C 0.66565 0.6096 0.52828 0.0
C407 C 0.79694 0.68311 0.43572 0.0
C408 C 0.75586 0.64402 0.5587 0.0
C409 C 0.78189 0.67812 0.57182 0.0
C410 C 0.80254 0.69774 0.50981 0.0
N411 N 0.75061 0.62981 0.48593 0.0
C412 C 0.77068 0.64893 0.42479 0.0
Co413 Co 0.08709 0.66096 0.54524 0.0
Co414 Co 0.15852 0.70799 0.66283 0.0
O415 O 0.1286 0.70405 0.57456 0.0
C416 C 0.06931 0.71425 0.48994 0.0
O417 O 0.09974 0.74137 0.50427 0.0
C418 C 0.20793 0.73783 0.5256 0.0
O419 O 0.18702 0.7095 0.48739 0.0
O420 O 0.16184 0.6669 0.62615 0.0
O421 O 0.1107 0.63426 0.56696 0.0
H422 H 0.19698 0.66474 0.88973 0.0
H423 H 0.13207 0.72159 0.43945 0.0
O424 O 0.06063 0.68518 0.52083 0.0
H425 H 0.10988 0.61938 0.29015 0.0
H426 H 0.97839 0.58456 0.39487 0.0
H427 H 0.05069 0.59207 0.61861 0.0
H428 H 0.08388 0.61273 0.41996 0.0
H429 H 0.0338 0.63739 0.41872 0.0
O430 O 0.20135 0.74064 0.59726 0.0
H431 H 0.15935 0.65962 0.77896 0.0
H432 H 0.22262 0.76658 0.73119 0.0
H433 H 0.99547 0.53832 0.59579 0.0
H434 H 0.1542 0.72865 0.30732 0.0
H435 H 0.9588 0.53401 0.48268 0.0
H436 H 0.14362 0.67725 0.23114 0.0
O437 O 0.06928 0.6551 0.65386 0.0
H438 H 0.16221 0.82114 0.63047 0.0
H439 H 0.14412 0.72969 0.81621 0.0
H440 H 0.13942 0.77927 0.86202 0.0
H441 H 0.1486 0.82551 0.76891 0.0
H442 H 0.16636 0.77096 0.58695 0.0
H443 H 0.26106 0.77286 0.84111 0.0
H444 H 0.24822 0.72173 0.92144 0.0
O445 O 0.11606 0.67681 0.73134 0.0
C446 C 0.13961 0.63906 0.59211 0.0
C447 C 0.20279 0.68724 0.85529 0.0
C448 C 0.23879 0.74791 0.82791 0.0
N449 N 0.18869 0.71279 0.74908 0.0
C450 C 0.18155 0.68449 0.79265 0.0
C451 C 0.217 0.74417 0.76562 0.0
C452 C 0.23156 0.71921 0.873 0.0
C453 C 0.12465 0.69871 0.40623 0.0
N454 N 0.10439 0.66657 0.43767 0.0
C455 C 0.13834 0.70303 0.33123 0.0
C456 C 0.13255 0.67427 0.28869 0.0
C457 C 0.11324 0.6417 0.32161 0.0
C458 C 0.09895 0.63826 0.39585 0.0
C459 C 0.99402 0.58573 0.44369 0.0
C460 C 0.03508 0.59033 0.56872 0.0
C461 C 0.02538 0.61584 0.45792 0.0
N462 N 0.04545 0.61791 0.51999 0.0
C463 C 1.00381 0.55978 0.55617 0.0
C464 C 0.98317 0.55749 0.49303 0.0
C465 C 0.08292 0.66041 0.7214 0.0
C466 C 0.15822 0.8012 0.67164 0.0
C467 C 0.14795 0.74959 0.77519 0.0
C468 C 0.14537 0.77767 0.80155 0.0
C469 C 0.15054 0.80361 0.7493 0.0
N470 N 0.15558 0.74744 0.69896 0.0
C471 C 0.16062 0.77275 0.64737 0.0
Co472 Co 0.42119 0.07311 0.72694 0.0
Co473 Co 0.46111 0.14843 0.83537 0.0
O474 O 0.42855 0.11812 0.75706 0.0
C475 C 0.34341 0.04137 0.68252 0.0
O476 O 0.3132 0.03625 0.70577 0.0
C477 C 0.47829 0.19109 0.68884 0.0
O478 O 0.47988 0.16589 0.65392 0.0
O479 O 0.49911 0.14301 0.78886 0.0
O480 O 0.47287 0.09167 0.72663 0.0
H481 H 0.55445 0.18489 0.03786 0.0
H482 H 0.39677 0.11418 0.64311 0.0
O483 O 0.36932 0.05636 0.72958 0.0
H484 H 0.45836 0.08827 0.44095 0.0
H485 H 0.35624 0.94535 0.76683 0.0
H486 H 0.46308 0.04093 0.66024 0.0
H487 H 0.45251 0.06513 0.57079 0.0
H488 H 0.36648 1.00416 0.77229 0.0
O489 O 0.47302 0.18937 0.76275 0.0
H490 H 0.51278 0.1459 0.93938 0.0
H491 H 0.48 0.21819 0.89459 0.0
H492 H 0.45312 0.98284 0.64931 0.0
H493 H 0.40471 0.14008 0.51388 0.0
H494 H 0.39952 0.934 0.70449 0.0
H495 H 0.43515 0.12679 0.41078 0.0
O496 O 0.41865 0.0597 0.838 0.0
H497 H 0.36032 0.16886 0.82851 0.0
H498 H 0.43495 0.14453 0.99708 0.0
H499 H 0.38777 0.15033 0.05589 0.0
H500 H 0.35016 0.16273 0.97143 0.0
H501 H 0.4076 0.16255 0.77203 0.0
H502 H 0.52138 0.25804 0.99238 0.0
H503 H 0.55884 0.24137 0.06503 0.0
O504 O 0.44862 0.10775 0.90934 0.0
C505 C 0.50011 0.11908 0.75042 0.0
C506 C 0.53818 0.19239 1.00678 0.0
C507 C 0.51967 0.23348 0.98114 0.0
N508 N 0.49384 0.17967 0.91184 0.0
C509 C 0.5145 0.17039 0.95112 0.0
C510 C 0.49636 0.21086 0.92573 0.0
C511 C 0.54067 0.2241 0.02192 0.0
C512 C 0.41085 0.10856 0.60003 0.0
N513 N 0.42363 0.08718 0.61725 0.0
C514 C 0.41498 0.12328 0.52619 0.0
C515 C 0.43196 0.11578 0.4684 0.0
C516 C 0.44483 0.09405 0.48533 0.0
C517 C 0.44082 0.08032 0.56028 0.0
C518 C 0.37896 0.96611 0.73917 0.0
C519 C 0.438 0.02038 0.67628 0.0
C520 C 0.38465 0.99972 0.74034 0.0
N521 N 0.41285 0.02645 0.70474 0.0
C522 C 0.4331 0.98708 0.67295 0.0
C523 C 0.40321 0.95974 0.70426 0.0
C524 C 0.4309 0.07466 0.90291 0.0
C525 C 0.3766 0.16355 0.86595 0.0
C526 C 0.41859 0.14974 0.95987 0.0
C527 C 0.39197 0.1531 0.99355 0.0
C528 C 0.37089 0.16007 0.94613 0.0
N529 N 0.42417 0.15341 0.88123 0.0
C530 C 0.40349 0.16006 0.83432 0.0
Co531 Co 0.39164 0.44158 0.87072 0.0
Co532 Co 0.33528 0.45192 0.97994 0.0
O533 O 0.34582 0.43492 0.88656 0.0
C534 C 0.35301 0.36873 0.80821 0.0
O535 O 0.34749 0.35523 0.87825 0.0
C536 C 0.31211 0.48184 0.85155 0.0
O537 O 0.34487 0.50006 0.83177 0.0
O538 O 0.37618 0.5 0.96118 0.0
O539 O 0.41365 0.48231 0.9402 0.0
H540 H 0.3618 0.51444 0.23602 0.0
H541 H 0.34666 0.43778 0.7392 0.0
O542 O 0.37063 0.40125 0.79809 0.0
H543 H 0.45386 0.55019 0.70948 0.0
H544 H 0.49277 0.46164 0.70704 0.0
H545 H 0.45062 0.45546 0.97484 0.0
H546 H 0.44872 0.51025 0.81388 0.0
H547 H 0.43088 0.4402 0.7322 0.0
O548 O 0.30377 0.46292 0.91292 0.0
H549 H 0.37537 0.49264 0.11683 0.0
H550 H 0.27107 0.44824 0.04074 0.0
H551 H 0.51178 0.47277 0.95347 0.0
H552 H 0.35065 0.47713 0.63434 0.0
H553 H 0.53354 0.47699 0.81836 0.0
H554 H 0.40449 0.53388 0.61913 0.0
O555 O 0.38517 0.41252 0.96424 0.0
H556 H 0.22937 0.34084 0.90122 0.0
H557 H 0.3084 0.40528 0.11781 0.0
H558 H 0.25952 0.3465 0.14089 0.0
H559 H 0.21954 0.3139 0.03217 0.0
H560 H 0.27871 0.39957 0.88051 0.0
H561 H 0.25637 0.46975 0.15866 0.0
H562 H 0.30188 0.50294 0.25749 0.0
O563 O 0.3657 0.43839 0.04613 0.0
C564 C 0.40721 0.5064 0.9521 0.0
C565 C 0.34173 0.49995 0.19347 0.0
C566 C 0.28256 0.47492 0.14998 0.0
N567 N 0.324 0.46911 0.07228 0.0
C568 C 0.34925 0.48751 0.12602 0.0
C569 C 0.29105 0.46292 0.08321 0.0
C570 C 0.30811 0.49353 0.20544 0.0
C571 C 0.37034 0.46224 0.73257 0.0
N572 N 0.39745 0.47153 0.78276 0.0
C573 C 0.37236 0.48453 0.67327 0.0
C574 C 0.40254 0.51639 0.66487 0.0
C575 C 0.43026 0.52553 0.71547 0.0
C576 C 0.4272 0.50273 0.77446 0.0
C577 C 0.48351 0.45915 0.76621 0.0
C578 C 0.45945 0.45559 0.91618 0.0
C579 C 0.44857 0.44737 0.78055 0.0
N580 N 0.43732 0.44749 0.85435 0.0
C581 C 0.49425 0.4658 0.90441 0.0
C582 C 0.50643 0.46815 0.82867 0.0
C583 C 0.3797 0.4195 0.03352 0.0
C584 C 0.24655 0.35482 0.94912 0.0
C585 C 0.29116 0.39124 0.07014 0.0
C586 C 0.2635 0.35798 0.08361 0.0
C587 C 0.24107 0.33971 0.02259 0.0
N588 N 0.29627 0.40596 0.99801 0.0
C589 C 0.27447 0.38814 0.93782 0.0
Co590 Co 0.9642 0.37088 0.04705 0.0
Co591 Co 0.89259 0.32456 0.16424 0.0
O592 O 0.92255 0.32801 0.0766 0.0
C593 C 0.98175 0.31752 0.99159 0.0
O594 O 0.9513 0.29034 1.00527 0.0
C595 C 0.84325 0.29484 0.02667 0.0
O596 O 0.86422 0.32317 0.98869 0.0
O597 O 0.88964 0.36574 0.12666 0.0
O598 O 0.94079 0.39781 0.06748 0.0
H599 H 0.85431 0.36886 0.38939 0.0
H600 H 0.91837 0.30992 0.94245 0.0
O601 O 0.99052 0.34634 0.02406 0.0
H602 H 0.94261 0.41175 0.7894 0.0
H603 H 0.07293 0.44667 0.89689 0.0
H604 H 1.00066 0.44002 0.11957 0.0
H605 H 0.96811 0.41878 0.91996 0.0
H606 H 1.01752 0.39399 0.92105 0.0
O607 O 0.84978 0.29197 0.09833 0.0
H608 H 0.89199 0.37343 0.27936 0.0
H609 H 0.82818 0.26643 0.23232 0.0
H610 H 0.05575 0.4938 0.0961 0.0
H611 H 0.89649 0.30242 0.80996 0.0
H612 H 0.09247 0.49763 0.98366 0.0
H613 H 0.90817 0.35364 0.7318 0.0
O614 O 0.98187 0.37707 0.15593 0.0
H615 H 0.88813 0.21094 0.13403 0.0
H616 H 0.90653 0.30305 0.31838 0.0
H617 H 0.91077 0.25336 0.36527 0.0
H618 H 0.90143 0.20679 0.27286 0.0
H619 H 0.88443 0.26123 0.08942 0.0
H620 H 0.7897 0.2607 0.34151 0.0
H621 H 0.80279 0.31214 0.42111 0.0
O622 O 0.93505 0.35571 0.23301 0.0
C623 C 0.91199 0.39337 0.09226 0.0
C624 C 0.84839 0.34624 0.35528 0.0
C625 C 0.81209 0.28554 0.3283 0.0
N626 N 0.86238 0.3202 0.24989 0.0
C627 C 0.86966 0.34867 0.29306 0.0
C628 C 0.83391 0.28896 0.26643 0.0
C629 C 0.81946 0.31441 0.37298 0.0
C630 C 0.92623 0.33268 0.90851 0.0
N631 N 0.94697 0.36493 0.9392 0.0
C632 C 0.91268 0.32812 0.83326 0.0
C633 C 0.91908 0.35679 0.78962 0.0
C634 C 0.93879 0.38949 0.82178 0.0
C635 C 0.95285 0.39314 0.89641 0.0
C636 C 0.05735 0.4457 0.94553 0.0
C637 C 1.01628 0.44157 0.06995 0.0
C638 C 0.02601 0.41564 0.96 0.0
N639 N 1.00595 0.41378 0.02176 0.0
C640 C 0.04749 0.47212 0.05707 0.0
C641 C 0.06815 0.47416 0.99426 0.0
C642 C 0.96819 0.37199 0.22334 0.0
C643 C 0.89218 0.23103 0.17489 0.0
C644 C 0.90262 0.283 0.27766 0.0
C645 C 0.90495 0.25487 0.30464 0.0
C646 C 0.89968 0.22874 0.25277 0.0
N647 N 0.89516 0.28502 0.20122 0.0
C648 C 0.89003 0.25953 0.15001 0.0
Co649 Co 0.62983 0.96023 0.22582 0.0
Co650 Co 0.58997 0.88491 0.33387 0.0
O651 O 0.62249 0.91523 0.25573 0.0
C652 C 0.70761 0.99195 0.18175 0.0
O653 O 0.73782 0.99705 0.20513 0.0
C654 C 0.5728 0.8423 0.18711 0.0
O655 O 0.57122 0.8675 0.15222 0.0
O656 O 0.55196 0.89033 0.2874 0.0
O657 O 0.57814 0.94167 0.22538 0.0
H658 H 0.49668 0.84836 0.53606 0.0
H659 H 0.65428 0.9192 0.14187 0.0
O660 O 0.6817 0.97698 0.22867 0.0
H661 H 0.59258 0.94506 0.9397 0.0
H662 H 0.6948 0.08798 0.26638 0.0
H663 H 0.58796 0.99243 0.15908 0.0
H664 H 0.59842 0.96816 0.06965 0.0
H665 H 0.68456 0.02917 0.27158 0.0
O666 O 0.57804 0.844 0.26105 0.0
H667 H 0.53833 0.88739 0.43785 0.0
H668 H 0.57114 0.81515 0.39275 0.0
H669 H 0.59791 0.05052 0.14842 0.0
H670 H 0.64634 0.89334 1.01252 0.0
H671 H 0.65152 0.09935 0.20397 0.0
H672 H 0.61584 0.9066 0.90941 0.0
O673 O 0.63238 0.97362 0.33692 0.0
H674 H 0.69078 0.86451 0.32682 0.0
H675 H 0.61623 0.88879 0.49559 0.0
H676 H 0.66345 0.88299 0.55432 0.0
H677 H 0.70102 0.87062 0.46976 0.0
H678 H 0.64346 0.87081 0.27041 0.0
H679 H 0.5298 0.77526 0.49032 0.0
H680 H 0.49232 0.79188 0.56296 0.0
O681 O 0.60248 0.92556 0.40803 0.0
C682 C 0.55092 0.91426 0.2491 0.0
C683 C 0.51295 0.84088 0.50499 0.0
C684 C 0.53149 0.79981 0.47918 0.0
N685 N 0.55729 0.85364 0.41018 0.0
C686 C 0.53662 0.8629 0.44947 0.0
C687 C 0.55478 0.82245 0.42391 0.0
C688 C 0.51049 0.80917 0.51997 0.0
C689 C 0.64018 0.92482 0.09879 0.0
N690 N 0.62737 0.94617 0.11606 0.0
C691 C 0.63604 0.91012 0.02488 0.0
C692 C 0.61904 0.91759 0.96709 0.0
C693 C 0.60613 0.93929 0.98408 0.0
C694 C 0.61014 0.953 0.05909 0.0
C695 C 0.67208 0.06723 0.23856 0.0
C696 C 0.61303 1.01298 0.17528 0.0
C697 C 0.66639 0.03362 0.23959 0.0
N698 N 0.63818 1.0069 0.20382 0.0
C699 C 0.61793 0.04627 0.1721 0.0
C700 C 0.64783 0.0736 0.20362 0.0
C701 C 0.62016 0.95865 0.40175 0.0
C702 C 0.67451 0.8698 0.3643 0.0
C703 C 0.63257 0.88358 0.45834 0.0
C704 C 0.65922 0.88023 0.49197 0.0
C705 C 0.68028 0.87327 0.4445 0.0
N706 N 0.62695 0.87993 0.37968 0.0
C707 C 0.64761 0.8733 0.33272 0.0
C708 C 0.39027 0.41621 0.1787 0.0
C709 C 0.39299 0.40758 0.10116 0.0
H710 H 0.40072 0.41332 0.29953 0.0
C711 C 0.40979 0.3883 0.08876 0.0
H712 H 0.37785 0.43108 0.19145 0.0
C713 C 0.42317 0.37799 0.15141 0.0
C714 C 0.42036 0.38659 0.22901 0.0
H715 H 0.41275 0.38115 0.0302 0.0
H716 H 0.43561 0.36312 0.13889 0.0
C717 C 0.40366 0.40597 0.24114 0.0
C718 C 0.05285 0.41513 0.34364 0.0
C719 C 0.04123 0.41047 0.42132 0.0
H720 H 0.03974 0.40731 0.22221 0.0
C721 C 1.00489 0.39324 0.43323 0.0
H722 H 0.08035 0.42821 0.33119 0.0
C723 C 0.98121 0.381 0.37013 0.0
C724 C 0.99289 0.38558 0.29241 0.0
H725 H 0.99452 0.38904 0.4918 0.0
H726 H 0.9537 0.36782 0.38242 0.0
C727 C 0.02924 0.40302 0.28067 0.0
C728 C 0.64514 0.01818 0.46176 0.0
C729 C 0.62773 0.98194 0.47174 0.0
H730 H 0.66684 0.06832 0.51415 0.0
C731 C 0.61871 0.96924 0.54831 0.0
H732 H 0.65254 0.02943 0.40429 0.0
C733 C 0.6271 0.99202 0.61227 0.0
C734 C 0.64476 0.02827 0.60185 0.0
H735 H 0.60536 0.94171 0.55901 0.0
H736 H 0.61971 0.98109 0.67014 0.0
C737 C 0.65346 0.04082 0.52531 0.0
C738 C 0.63413 0.63877 0.58623 0.0
C739 C 0.65404 0.62249 0.59713 0.0
H740 H 0.6078 0.66301 0.63848 0.0
C741 C 0.66221 0.61864 0.67428 0.0
H742 H 0.62701 0.64228 0.52805 0.0
C743 C 0.6511 0.63064 0.73777 0.0
C744 C 0.63126 0.64698 0.72704 0.0
H745 H 0.67729 0.60632 0.68589 0.0
H746 H 0.65817 0.62694 0.79584 0.0
C747 C 0.62293 0.65073 0.64989 0.0
C748 C 0.06984 0.65171 0.8681 0.0
C749 C 0.05819 0.6469 0.7903 0.0
H750 H 0.0565 0.64389 0.98969 0.0
C751 C 1.02184 0.62928 0.77829 0.0
H752 H 0.09735 0.66503 0.8806 0.0
C753 C 0.9982 0.61722 0.84111 0.0
C754 C 1.0098 0.6221 0.91889 0.0
H755 H 1.01136 0.62481 0.71975 0.0
H756 H 0.9707 0.60399 0.82847 0.0
C757 C 0.04614 0.63952 0.93105 0.0
C758 C 0.43232 0.06402 0.04947 0.0
C759 C 0.42329 0.05135 0.97281 0.0
H760 H 0.43127 0.05212 0.17126 0.0
C761 C 0.40584 1.0151 0.96265 0.0
H762 H 0.4457 0.09154 0.06032 0.0
C763 C 0.39746 0.99244 0.02609 0.0
C764 C 0.40616 1.00496 0.10272 0.0
H765 H 0.39843 1.00387 0.90511 0.0
H766 H 0.38404 0.96494 0.01478 0.0
C767 C 0.42387 0.04122 0.11333 0.0
C768 C 0.60961 0.4633 0.38748 0.0
C769 C 0.61602 0.48701 0.44816 0.0
H770 H 0.57192 0.41606 0.3309 0.0
C771 C 0.5905 0.47846 0.50479 0.0
H772 H 0.62869 0.46966 0.34198 0.0
C773 C 0.55844 0.44831 0.4983 0.0
C774 C 0.55044 0.42576 0.43453 0.0
H775 H 0.59448 0.49637 0.55152 0.0
H776 H 0.53938 0.44369 0.54198 0.0
C777 C 0.57701 0.43279 0.38072 0.0
C778 C 0.1643 0.56987 0.6262 0.0
C779 C 0.14535 0.54642 0.56608 0.0
H780 H 0.1775 0.61805 0.68249 0.0
C781 C 0.12943 0.55625 0.50962 0.0
H782 H 0.17623 0.56253 0.6715 0.0
C783 C 0.13019 0.5876 0.51577 0.0
C784 C 0.14636 0.60999 0.57927 0.0
H785 H 0.11432 0.53856 0.46332 0.0
H786 H 0.11636 0.59333 0.47248 0.0
C787 C 0.16483 0.60153 0.63279 0.0
C788 C 0.56395 0.14577 0.78105 0.0
C789 C 0.53473 0.12236 0.73704 0.0
H790 H 0.61632 0.16184 0.81522 0.0
C791 C 0.5385 0.10044 0.68436 0.0
H792 H 0.56227 0.16326 0.82194 0.0
C793 C 0.56931 0.09948 0.6813 0.0
C794 C 0.5976 0.12124 0.72888 0.0
H795 H 0.51738 0.08319 0.647 0.0
H796 H 0.57054 0.08063 0.64399 0.0
C797 C 0.59512 0.14527 0.77678 0.0
C798 C 0.50112 0.57253 0.95623 0.0
C799 C 0.50304 0.60275 0.92709 0.0
H800 H 0.47047 0.52126 0.99575 0.0
C801 C 0.47157 0.60226 0.91355 0.0
H802 H 0.52399 0.57053 0.96512 0.0
C803 C 0.4393 0.57163 0.92632 0.0
C804 C 0.4383 0.54168 0.95536 0.0
H805 H 0.47189 0.62494 0.89091 0.0
H806 H 0.4155 0.57093 0.91041 0.0
C807 C 0.46979 0.54348 0.9732 0.0
C808 C 0.88631 0.43086 0.13006 0.0
C809 C 0.90555 0.42258 0.07844 0.0
H810 H 0.87429 0.4697 0.16661 0.0
C811 C 0.92263 0.44517 0.01589 0.0
H812 H 0.87293 0.41418 0.17898 0.0
C813 C 0.92339 0.47649 1.00889 0.0
C814 C 0.90662 0.48611 0.06353 0.0
H815 H 0.93716 0.43965 0.97409 0.0
H816 H 0.93913 0.4943 0.96347 0.0
C817 C 0.88688 0.4625 0.12261 0.0
C818 C 0.48162 0.93401 0.18132 0.0
C819 C 0.45337 0.91209 0.22868 0.0
H820 H 0.53353 0.95044 0.14681 0.0
C821 C 0.45591 0.88792 0.27589 0.0
H822 H 0.48034 0.95297 0.14453 0.0
C823 C 0.48709 0.88743 0.27974 0.0
C824 C 0.51627 0.91098 0.23599 0.0
H825 H 0.43474 0.87121 0.31414 0.0
H826 H 0.48881 0.86981 0.32013 0.0
C827 C 0.51244 0.93306 0.18396 0.0
C828 C 0.34755 0.31858 0.73197 0.0
C829 C 0.34246 0.34693 0.73773 0.0
H830 H 0.35774 0.28715 0.6548 0.0
C831 C 0.33396 0.35888 0.67037 0.0
H832 H 0.35404 0.30886 0.78318 0.0
C833 C 0.33558 0.34621 0.5973 0.0
C834 C 0.3463 0.32181 0.5904 0.0
H835 H 0.32938 0.38038 0.67346 0.0
H836 H 0.33304 0.35883 0.54592 0.0
C837 C 0.34933 0.30593 0.65834 0.0
C838 C 0.03617 0.34439 0.91576 0.0
C839 C 1.00062 0.31998 0.91902 0.0
H840 H 0.07784 0.38155 0.84549 0.0
C841 C 0.98214 0.30731 0.8488 0.0
H842 H 0.05103 0.35452 0.96895 0.0
C843 C 0.99759 0.32292 0.77772 0.0
C844 C 0.03162 0.35097 0.77671 0.0
H845 H 0.95472 0.28845 0.84954 0.0
H846 H 0.98193 0.31547 0.7253 0.0
C847 C 0.05142 0.36013 0.84523 0.0
C848 C 0.70964 0.03799 0.09771 0.0
C849 C 0.70572 1.00518 0.10451 0.0
H850 H 0.70368 0.07307 0.02448 0.0
C851 C 0.70379 0.98709 0.03605 0.0
H852 H 0.71765 0.05535 0.14687 0.0
C853 C 0.69761 0.99788 0.96421 0.0
C854 C 0.69502 0.02771 0.96078 0.0
H855 H 0.70538 0.96381 0.0387 0.0
H856 H 0.69298 0.98209 0.91284 0.0
C857 C 0.703 0.04866 0.02702 0.0
C858 C 0.69744 0.72477 0.16896 0.0
C859 C 0.70284 0.71155 0.09933 0.0
H860 H 0.69047 0.71799 0.29298 0.0
C861 C 0.7155 0.6886 0.10348 0.0
H862 H 0.68728 0.74218 0.16739 0.0
C863 C 0.71685 0.67454 0.17489 0.0
C864 C 0.70629 0.68379 0.24316 0.0
H865 H 0.71962 0.67788 0.05067 0.0
H866 H 0.72272 0.65387 0.17559 0.0
C867 C 0.69893 0.7107 0.24086 0.0
C868 C 1.01485 0.6877 0.4142 0.0
C869 C 0.05038 0.7122 0.4177 0.0
H870 H 0.9732 0.65069 0.34348 0.0
C871 C 0.06881 0.7251 0.3476 0.0
H872 H 1.00005 0.67735 0.4673 0.0
C873 C 0.05333 0.70971 0.27629 0.0
C874 C 1.01933 0.6816 0.27493 0.0
H875 H 0.09624 0.74395 0.34853 0.0
H876 H 0.06897 0.71733 0.2239 0.0
C877 C 0.99959 0.67217 0.34345 0.0
C878 C 0.34795 0.98458 0.52773 0.0
C879 C 0.35593 1.00551 0.46154 0.0
H880 H 0.33331 0.97794 0.64752 0.0
C881 C 0.35341 0.03537 0.46501 0.0
H882 H 0.34723 0.96015 0.52516 0.0
C883 C 0.34727 0.04621 0.53684 0.0
C884 C 0.34531 0.02812 0.60528 0.0
H885 H 0.35804 0.05116 0.41367 0.0
H886 H 0.34571 0.0695 0.53951 0.0
C887 C 0.34134 0.99529 0.59841 0.0
C888 C 0.47877 0.24405 0.51245 0.0
C889 C 0.48215 0.27407 0.54695 0.0
H890 H 0.47568 0.19518 0.52916 0.0
C891 C 0.4849 0.27676 0.62905 0.0
H892 H 0.47655 0.24086 0.44974 0.0
C893 C 0.48373 0.25015 0.67509 0.0
C894 C 0.48043 0.22017 0.64056 0.0
H895 H 0.48745 0.29933 0.65821 0.0
H896 H 0.48544 0.25312 0.73787 0.0
C897 C 0.47827 0.21775 0.55838 0.0
C898 C 0.25 0.45641 0.80112 0.0
C899 C 0.28532 0.48219 0.79856 0.0
H900 H 0.1992 0.43562 0.74983 0.0
C901 C 0.29567 0.50771 0.74044 0.0
H902 H 0.24097 0.43611 0.84436 0.0
C903 C 0.2718 0.50758 0.68681 0.0
C904 C 0.23662 0.48161 0.68818 0.0
H905 H 0.32253 0.52797 0.73589 0.0
H906 H 0.28119 0.52778 0.64329 0.0
C907 C 0.22604 0.456 0.7464 0.0
C908 C 0.78451 0.23927 0.02451 0.0
C909 C 0.81291 0.26578 0.98425 0.0
H910 H 0.73499 0.19261 0.01734 0.0
C911 C 0.81226 0.26413 0.90193 0.0
H912 H 0.7839 0.23944 0.08762 0.0
C913 C 0.78445 0.23679 0.86138 0.0
C914 C 0.75583 0.21055 0.90159 0.0
H915 H 0.8336 0.28383 0.86847 0.0
H916 H 0.78527 0.2364 0.7983 0.0
C917 C 0.7563 0.21238 0.98389 0.0
C918 C 0.57285 0.81556 0.05668 0.0
C919 C 0.57066 0.8132 0.13886 0.0
H920 H 0.57448 0.79226 0.94816 0.0
C921 C 0.56732 0.78325 0.17352 0.0
H922 H 0.57547 0.83812 0.0274 0.0
C923 C 0.56611 0.75659 0.12763 0.0
C924 C 0.56882 0.75917 0.04554 0.0
H925 H 0.56561 0.78035 0.23631 0.0
H926 H 0.56354 0.73404 0.15692 0.0
C927 C 0.57229 0.78917 1.01087 0.0
C928 C 0.76618 0.51798 0.28049 0.0
C929 C 0.77051 0.54885 0.31252 0.0
H930 H 0.7842 0.49377 0.2005 0.0
C931 C 0.79851 0.58017 0.28492 0.0
H932 H 0.74503 0.49328 0.29946 0.0
C933 C 0.82144 0.58045 0.22761 0.0
C934 C 0.81685 0.54943 0.19549 0.0
H935 H 0.80283 0.60453 0.30781 0.0
H936 H 0.84269 0.60501 0.20827 0.0
C937 C 0.78876 0.51827 0.22304 0.0
C938 C 0.23886 0.76872 0.40113 0.0
C939 C 0.23822 0.76699 0.48343 0.0
H940 H 0.2658 0.79661 0.29776 0.0
C941 C 0.26658 0.79351 0.52393 0.0
H942 H 0.21755 0.74902 0.36749 0.0
C943 C 0.29474 0.82049 0.48356 0.0
C944 C 0.29521 0.82242 0.40127 0.0
H945 H 0.2672 0.79328 0.58704 0.0
H946 H 0.31602 0.84027 0.51719 0.0
C947 C 0.26662 0.79615 0.36082 0.0
loop_
_geom_bond_atom_site_label_1
_geom_bond_atom_site_label_2
_geom_bond_distance
_geom_bond_site_symmetry_2
_ccdc_geom_bond_type
Co0 O2 2.143 . S
Co0 O8 2.074 . S
Co0 O11 2.093 . S
Co0 O24 2.097 . S
Co0 N41 2.151 . S
Co0 N49 2.214 . S
Co1 O2 2.160 . S
Co1 O7 2.058 . S
Co1 O17 2.057 . S
Co1 O32 2.037 . S
Co1 N36 2.145 . S
Co1 N57 2.257 . S
O2 Co0 2.143 . S
O2 Co1 2.160 . S
C3 O4 1.278 . S
C3 O11 1.224 . S
O4 C3 1.278 . S
C5 O6 1.245 . S
C5 O17 1.232 . S
O6 C5 1.245 . S
O7 Co1 2.058 . S
O7 C33 1.269 . S
O8 Co0 2.074 . S
O8 C33 1.257 . S
H9 C34 0.930 . S
H10 C40 0.930 . S
O11 Co0 2.093 . S
O11 C3 1.224 . S
H12 C44 0.929 . S
H13 C46 0.930 . S
H14 C47 0.930 . S
H15 C45 0.929 . S
H16 C48 0.928 . S
O17 Co1 2.057 . S
O17 C5 1.232 . S
H18 C37 0.929 . S
H19 C38 0.929 . S
H20 C50 0.931 . S
H21 C42 0.929 . S
H22 C51 0.930 . S
H23 C43 0.931 . S
O24 Co0 2.097 . S
O24 C52 1.214 . S
H25 C53 0.929 . S
H26 C54 0.929 . S
H27 C55 0.930 . S
H28 C56 0.929 . S
H29 C58 0.930 . S
H30 C35 0.930 . S
H31 C39 0.930 . S
O32 Co1 2.037 . S
O32 C52 1.234 . S
C33 O7 1.269 . S
C33 O8 1.257 . S
C34 H9 0.930 . S
C34 C37 1.388 . S
C34 C39 1.418 . S
C35 H30 0.930 . S
C35 C38 1.404 . S
C35 C39 1.353 . S
N36 Co1 2.145 . S
N36 C37 1.397 . S
N36 C38 1.334 . S
C37 H18 0.929 . S
C37 C34 1.388 . S
C37 N36 1.397 . S
C38 H19 0.929 . S
C38 C35 1.404 . S
C38 N36 1.334 . S
C39 H31 0.930 . S
C39 C34 1.418 . S
C39 C35 1.353 . S
C40 H10 0.930 . S
C40 N41 1.330 . S
C40 C42 1.446 . S
N41 Co0 2.151 . S
N41 C40 1.330 . S
N41 C45 1.418 . S
C42 H21 0.929 . S
C42 C40 1.446 . S
C42 C43 1.332 . S
C43 H23 0.931 . S
C43 C42 1.332 . S
C43 C44 1.267 . S
C44 H12 0.929 . S
C44 C43 1.267 . S
C44 C45 1.251 . S
C45 H15 0.929 . S
C45 N41 1.418 . S
C45 C44 1.251 . S
C46 H13 0.930 . S
C46 C48 1.406 . S
C46 C51 1.261 . S
C47 H14 0.930 . S
C47 N49 1.325 . S
C47 C50 1.357 . S
C48 H16 0.928 . S
C48 C46 1.406 . S
C48 N49 1.261 . S
N49 Co0 2.214 . S
N49 C47 1.325 . S
N49 C48 1.261 . S
C50 H20 0.931 . S
C50 C47 1.357 . S
C50 C51 1.312 . S
C51 H22 0.930 . S
C51 C46 1.261 . S
C51 C50 1.312 . S
C52 O24 1.214 . S
C52 O32 1.234 . S
C53 H25 0.929 . S
C53 C56 1.391 . S
C53 C58 1.391 . S
C54 H26 0.929 . S
C54 C55 1.390 . S
C54 N57 1.391 . S
C55 H27 0.930 . S
C55 C54 1.390 . S
C55 C56 1.392 . S
C56 H28 0.929 . S
C56 C53 1.391 . S
C56 C55 1.392 . S
N57 Co1 2.257 . S
N57 C54 1.391 . S
N57 C58 1.388 . S
C58 H29 0.930 . S
C58 C53 1.391 . S
C58 N57 1.388 . S
Co59 O61 2.143 . S
Co59 O67 2.074 . S
Co59 O70 2.093 . S
Co59 O83 2.097 . S
Co59 N100 2.151 . S
Co59 N108 2.214 . S
Co60 O61 2.160 . S
Co60 O66 2.058 . S
Co60 O76 2.057 . S
Co60 O91 2.037 . S
Co60 N95 2.145 . S
Co60 N116 2.257 . S
O61 Co59 2.143 . S
O61 Co60 2.160 . S
C62 O63 1.278 . S
C62 O70 1.224 . S
O63 C62 1.278 . S
C64 O65 1.245 . S
C64 O76 1.232 . S
O65 C64 1.245 . S
O66 Co60 2.058 . S
O66 C92 1.269 . S
O67 Co59 2.074 . S
O67 C92 1.257 . S
H68 C93 0.930 . S
H69 C99 0.930 . S
O70 Co59 2.093 . S
O70 C62 1.224 . S
H71 C103 0.929 . S
H72 C105 0.930 . S
H73 C106 0.930 . S
H74 C104 0.929 . S
H75 C107 0.928 . S
O76 Co60 2.057 . S
O76 C64 1.232 . S
H77 C96 0.929 . S
H78 C97 0.929 . S
H79 C109 0.931 . S
H80 C101 0.929 . S
H81 C110 0.930 . S
H82 C102 0.931 . S
O83 Co59 2.097 . S
O83 C111 1.214 . S
H84 C112 0.929 . S
H85 C113 0.929 . S
H86 C114 0.930 . S
H87 C115 0.929 . S
H88 C117 0.930 . S
H89 C94 0.930 . S
H90 C98 0.930 . S
O91 Co60 2.037 . S
O91 C111 1.234 . S
C92 O66 1.269 . S
C92 O67 1.257 . S
C93 H68 0.930 . S
C93 C96 1.388 . S
C93 C98 1.418 . S
C94 H89 0.930 . S
C94 C97 1.404 . S
C94 C98 1.353 . S
N95 Co60 2.145 . S
N95 C96 1.397 . S
N95 C97 1.334 . S
C96 H77 0.929 . S
C96 C93 1.388 . S
C96 N95 1.397 . S
C97 H78 0.929 . S
C97 C94 1.404 . S
C97 N95 1.334 . S
C98 H90 0.930 . S
C98 C93 1.418 . S
C98 C94 1.353 . S
C99 H69 0.930 . S
C99 N100 1.330 . S
C99 C101 1.446 . S
N100 Co59 2.151 . S
N100 C99 1.330 . S
N100 C104 1.418 . S
C101 H80 0.929 . S
C101 C99 1.446 . S
C101 C102 1.332 . S
C102 H82 0.931 . S
C102 C101 1.332 . S
C102 C103 1.267 . S
C103 H71 0.929 . S
C103 C102 1.267 . S
C103 C104 1.251 . S
C104 H74 0.929 . S
C104 N100 1.418 . S
C104 C103 1.251 . S
C105 H72 0.930 . S
C105 C107 1.406 1_655 S
C105 C110 1.261 . S
C106 H73 0.930 . S
C106 N108 1.325 . S
C106 C109 1.357 1_455 S
C107 H75 0.928 . S
C107 C105 1.406 1_455 S
C107 N108 1.261 . S
N108 Co59 2.214 . S
N108 C106 1.325 . S
N108 C107 1.261 . S
C109 H79 0.931 . S
C109 C106 1.357 1_655 S
C109 C110 1.312 . S
C110 H81 0.930 . S
C110 C105 1.261 . S
C110 C109 1.312 . S
C111 O83 1.214 . S
C111 O91 1.234 . S
C112 H84 0.929 . S
C112 C115 1.391 . S
C112 C117 1.391 . S
C113 H85 0.929 . S
C113 C114 1.390 . S
C113 N116 1.391 . S
C114 H86 0.930 . S
C114 C113 1.390 . S
C114 C115 1.392 . S
C115 H87 0.929 . S
C115 C112 1.391 . S
C115 C114 1.392 . S
N116 Co60 2.257 . S
N116 C113 1.391 . S
N116 C117 1.388 . S
C117 H88 0.930 . S
C117 C112 1.391 . S
C117 N116 1.388 . S
Co118 O120 2.143 . S
Co118 O126 2.074 . S
Co118 O129 2.093 . S
Co118 O142 2.097 . S
Co118 N159 2.151 . S
Co118 N167 2.214 . S
Co119 O120 2.160 . S
Co119 O125 2.058 . S
Co119 O135 2.057 . S
Co119 O150 2.037 . S
Co119 N154 2.145 . S
Co119 N175 2.257 . S
O120 Co118 2.143 . S
O120 Co119 2.160 . S
C121 O122 1.278 . S
C121 O129 1.224 . S
O122 C121 1.278 . S
C123 O124 1.245 . S
C123 O135 1.232 . S
O124 C123 1.245 . S
O125 Co119 2.058 . S
O125 C151 1.269 . S
O126 Co118 2.074 . S
O126 C151 1.257 . S
H127 C152 0.930 . S
H128 C158 0.930 . S
O129 Co118 2.093 . S
O129 C121 1.224 . S
H130 C162 0.929 . S
H131 C164 0.930 . S
H132 C165 0.930 . S
H133 C163 0.929 . S
H134 C166 0.928 . S
O135 Co119 2.057 . S
O135 C123 1.232 . S
H136 C155 0.929 . S
H137 C156 0.929 . S
H138 C168 0.931 . S
H139 C160 0.929 . S
H140 C169 0.930 . S
H141 C161 0.931 . S
O142 Co118 2.097 . S
O142 C170 1.214 . S
H143 C171 0.929 . S
H144 C172 0.929 . S
H145 C173 0.930 . S
H146 C174 0.929 . S
H147 C176 0.930 . S
H148 C153 0.930 . S
H149 C157 0.930 . S
O150 Co119 2.037 . S
O150 C170 1.234 . S
C151 O125 1.269 . S
C151 O126 1.257 . S
C152 H127 0.930 . S
C152 C155 1.388 . S
C152 C157 1.418 . S
C153 H148 0.930 . S
C153 C156 1.404 . S
C153 C157 1.353 . S
N154 Co119 2.145 . S
N154 C155 1.397 . S
N154 C156 1.334 . S
C155 H136 0.929 . S
C155 C152 1.388 . S
C155 N154 1.397 . S
C156 H137 0.929 . S
C156 C153 1.404 . S
C156 N154 1.334 . S
C157 H149 0.930 . S
C157 C152 1.418 . S
C157 C153 1.353 . S
C158 H128 0.930 . S
C158 N159 1.330 . S
C158 C160 1.446 1_556 S
N159 Co118 2.151 . S
N159 C158 1.330 . S
N159 C163 1.418 . S
C160 H139 0.929 . S
C160 C158 1.446 1_554 S
C160 C161 1.332 . S
C161 H141 0.931 . S
C161 C160 1.332 . S
C161 C162 1.267 1_554 S
C162 H130 0.929 . S
C162 C161 1.267 1_556 S
C162 C163 1.251 . S
C163 H133 0.929 . S
C163 N159 1.418 . S
C163 C162 1.251 . S
C164 H131 0.930 . S
C164 C166 1.406 1_565 S
C164 C169 1.261 . S
C165 H132 0.930 . S
C165 N167 1.325 . S
C165 C168 1.357 1_545 S
C166 H134 0.928 . S
C166 C164 1.406 1_545 S
C166 N167 1.261 . S
N167 Co118 2.214 . S
N167 C165 1.325 . S
N167 C166 1.261 . S
C168 H138 0.931 . S
C168 C165 1.357 1_565 S
C168 C169 1.312 . S
C169 H140 0.930 . S
C169 C164 1.261 . S
C169 C168 1.312 . S
C170 O142 1.214 . S
C170 O150 1.234 . S
C171 H143 0.929 . S
C171 C174 1.391 . S
C171 C176 1.391 . S
C172 H144 0.929 . S
C172 C173 1.390 . S
C172 N175 1.391 . S
C173 H145 0.930 . S
C173 C172 1.390 . S
C173 C174 1.392 . S
C174 H146 0.929 . S
C174 C171 1.391 . S
C174 C173 1.392 . S
N175 Co119 2.257 . S
N175 C172 1.391 . S
N175 C176 1.388 . S
C176 H147 0.930 . S
C176 C171 1.391 . S
C176 N175 1.388 . S
Co177 O179 2.143 . S
Co177 O185 2.074 . S
Co177 O188 2.093 1_556 S
Co177 O201 2.097 . S
Co177 N218 2.151 1_556 S
Co177 N226 2.214 . S
Co178 O179 2.160 . S
Co178 O184 2.058 . S
Co178 O194 2.057 . S
Co178 O209 2.037 . S
Co178 N213 2.145 . S
Co178 N234 2.257 . S
O179 Co177 2.143 . S
O179 Co178 2.160 . S
C180 O181 1.278 . S
C180 O188 1.224 . S
O181 C180 1.278 . S
C182 O183 1.245 1_556 S
C182 O194 1.232 . S
O183 C182 1.245 1_554 S
O184 Co178 2.058 . S
O184 C210 1.269 . S
O185 Co177 2.074 . S
O185 C210 1.257 . S
H186 C211 0.930 . S
H187 C217 0.930 . S
O188 Co177 2.093 1_554 S
O188 C180 1.224 . S
H189 C221 0.929 . S
H190 C223 0.930 1_554 S
H191 C224 0.930 . S
H192 C222 0.929 . S
H193 C225 0.928 1_554 S
O194 Co178 2.057 . S
O194 C182 1.232 . S
H195 C214 0.929 . S
H196 C215 0.929 . S
H197 C227 0.931 . S
H198 C219 0.929 . S
H199 C228 0.930 . S
H200 C220 0.931 . S
O201 Co177 2.097 . S
O201 C229 1.214 . S
H202 C230 0.929 . S
H203 C231 0.929 . S
H204 C232 0.930 . S
H205 C233 0.929 . S
H206 C235 0.930 . S
H207 C212 0.930 . S
H208 C216 0.930 . S
O209 Co178 2.037 . S
O209 C229 1.234 . S
C210 O184 1.269 . S
C210 O185 1.257 . S
C211 H186 0.930 . S
C211 C214 1.388 . S
C211 C216 1.418 . S
C212 H207 0.930 . S
C212 C215 1.404 . S
C212 C216 1.353 . S
N213 Co178 2.145 . S
N213 C214 1.397 . S
N213 C215 1.334 . S
C214 H195 0.929 . S
C214 C211 1.388 . S
C214 N213 1.397 . S
C215 H196 0.929 . S
C215 C212 1.404 . S
C215 N213 1.334 . S
C216 H208 0.930 . S
C216 C211 1.418 . S
C216 C212 1.353 . S
C217 H187 0.930 . S
C217 N218 1.330 . S
C217 C219 1.446 . S
N218 Co177 2.151 1_554 S
N218 C217 1.330 . S
N218 C222 1.418 . S
C219 H198 0.929 . S
C219 C217 1.446 . S
C219 C220 1.332 . S
C220 H200 0.931 . S
C220 C219 1.332 . S
C220 C221 1.267 . S
C221 H189 0.929 . S
C221 C220 1.267 . S
C221 C222 1.251 . S
C222 H192 0.929 . S
C222 N218 1.418 . S
C222 C221 1.251 . S
C223 H190 0.930 1_556 S
C223 C225 1.406 . S
C223 C228 1.261 . S
C224 H191 0.930 . S
C224 N226 1.325 . S
C224 C227 1.357 . S
C225 H193 0.928 1_556 S
C225 C223 1.406 . S
C225 N226 1.261 . S
N226 Co177 2.214 . S
N226 C224 1.325 . S
N226 C225 1.261 . S
C227 H197 0.931 . S
C227 C224 1.357 . S
C227 C228 1.312 . S
C228 H199 0.930 . S
C228 C223 1.261 . S
C228 C227 1.312 . S
C229 O201 1.214 . S
C229 O209 1.234 . S
C230 H202 0.929 . S
C230 C233 1.391 . S
C230 C235 1.391 . S
C231 H203 0.929 . S
C231 C232 1.390 . S
C231 N234 1.391 . S
C232 H204 0.930 . S
C232 C231 1.390 . S
C232 C233 1.392 . S
C233 H205 0.929 . S
C233 C230 1.391 . S
C233 C232 1.392 . S
N234 Co178 2.257 . S
N234 C231 1.391 . S
N234 C235 1.388 . S
C235 H206 0.930 . S
C235 C230 1.391 . S
C235 N234 1.388 . S
Co236 O238 2.143 . S
Co236 O244 2.074 . S
Co236 O247 2.093 . S
Co236 O260 2.097 . S
Co236 N277 2.151 . S
Co236 N285 2.214 . S
Co237 O238 2.160 . S
Co237 O243 2.058 . S
Co237 O253 2.057 . S
Co237 O268 2.037 1_554 S
Co237 N272 2.145 1_554 S
Co237 N293 2.257 . S
O238 Co236 2.143 . S
O238 Co237 2.160 . S
C239 O240 1.278 . S
C239 O247 1.224 . S
O240 C239 1.278 . S
C241 O242 1.245 . S
C241 O253 1.232 . S
O242 C241 1.245 . S
O243 Co237 2.058 . S
O243 C269 1.269 . S
O244 Co236 2.074 . S
O244 C269 1.257 . S
H245 C270 0.930 . S
H246 C276 0.930 . S
O247 Co236 2.093 . S
O247 C239 1.224 . S
H248 C280 0.929 . S
H249 C282 0.930 . S
H250 C283 0.930 . S
H251 C281 0.929 . S
H252 C284 0.928 . S
O253 Co237 2.057 . S
O253 C241 1.232 . S
H254 C273 0.929 . S
H255 C274 0.929 . S
H256 C286 0.931 1_556 S
H257 C278 0.929 . S
H258 C287 0.930 . S
H259 C279 0.931 . S
O260 Co236 2.097 . S
O260 C288 1.214 1_554 S
H261 C289 0.929 . S
H262 C290 0.929 . S
H263 C291 0.930 . S
H264 C292 0.929 . S
H265 C294 0.930 . S
H266 C271 0.930 . S
H267 C275 0.930 . S
O268 Co237 2.037 1_556 S
O268 C288 1.234 . S
C269 O243 1.269 . S
C269 O244 1.257 . S
C270 H245 0.930 . S
C270 C273 1.388 . S
C270 C275 1.418 . S
C271 H266 0.930 . S
C271 C274 1.404 . S
C271 C275 1.353 . S
N272 Co237 2.145 1_556 S
N272 C273 1.397 . S
N272 C274 1.334 . S
C273 H254 0.929 . S
C273 C270 1.388 . S
C273 N272 1.397 . S
C274 H255 0.929 . S
C274 C271 1.404 . S
C274 N272 1.334 . S
C275 H267 0.930 . S
C275 C270 1.418 . S
C275 C271 1.353 . S
C276 H246 0.930 . S
C276 N277 1.330 . S
C276 C278 1.446 . S
N277 Co236 2.151 . S
N277 C276 1.330 . S
N277 C281 1.418 . S
C278 H257 0.929 . S
C278 C276 1.446 . S
C278 C279 1.332 . S
C279 H259 0.931 . S
C279 C278 1.332 . S
C279 C280 1.267 . S
C280 H248 0.929 . S
C280 C279 1.267 . S
C280 C281 1.251 . S
C281 H251 0.929 . S
C281 N277 1.418 . S
C281 C280 1.251 . S
C282 H249 0.930 . S
C282 C284 1.406 1_455 S
C282 C287 1.261 . S
C283 H250 0.930 . S
C283 N285 1.325 . S
C283 C286 1.357 1_655 S
C284 H252 0.928 . S
C284 C282 1.406 1_655 S
C284 N285 1.261 . S
N285 Co236 2.214 . S
N285 C283 1.325 . S
N285 C284 1.261 . S
C286 H256 0.931 1_554 S
C286 C283 1.357 1_455 S
C286 C287 1.312 . S
C287 H258 0.930 . S
C287 C282 1.261 . S
C287 C286 1.312 . S
C288 O260 1.214 1_556 S
C288 O268 1.234 . S
C289 H261 0.929 . S
C289 C292 1.391 . S
C289 C294 1.391 . S
C290 H262 0.929 . S
C290 C291 1.390 . S
C290 N293 1.391 1_556 S
C291 H263 0.930 . S
C291 C290 1.390 . S
C291 C292 1.392 1_556 S
C292 H264 0.929 . S
C292 C289 1.391 . S
C292 C291 1.392 1_554 S
N293 Co237 2.257 . S
N293 C290 1.391 1_554 S
N293 C294 1.388 . S
C294 H265 0.930 . S
C294 C289 1.391 . S
C294 N293 1.388 . S
Co295 O297 2.143 . S
Co295 O303 2.074 . S
Co295 O306 2.093 . S
Co295 O319 2.097 . S
Co295 N336 2.151 . S
Co295 N344 2.214 . S
Co296 O297 2.160 . S
Co296 O302 2.058 . S
Co296 O312 2.057 . S
Co296 O327 2.037 . S
Co296 N331 2.145 . S
Co296 N352 2.257 . S
O297 Co295 2.143 . S
O297 Co296 2.160 . S
C298 O299 1.278 . S
C298 O306 1.224 . S
O299 C298 1.278 . S
C300 O301 1.245 . S
C300 O312 1.232 . S
O301 C300 1.245 . S
O302 Co296 2.058 . S
O302 C328 1.269 . S
O303 Co295 2.074 . S
O303 C328 1.257 . S
H304 C329 0.930 . S
H305 C335 0.930 . S
O306 Co295 2.093 . S
O306 C298 1.224 . S
H307 C339 0.929 . S
H308 C341 0.930 . S
H309 C342 0.930 . S
H310 C340 0.929 . S
H311 C343 0.928 . S
O312 Co296 2.057 . S
O312 C300 1.232 . S
H313 C332 0.929 . S
H314 C333 0.929 . S
H315 C345 0.931 . S
H316 C337 0.929 . S
H317 C346 0.930 . S
H318 C338 0.931 . S
O319 Co295 2.097 . S
O319 C347 1.214 . S
H320 C348 0.929 . S
H321 C349 0.929 . S
H322 C350 0.930 . S
H323 C351 0.929 . S
H324 C353 0.930 . S
H325 C330 0.930 . S
H326 C334 0.930 . S
O327 Co296 2.037 . S
O327 C347 1.234 . S
C328 O302 1.269 . S
C328 O303 1.257 . S
C329 H304 0.930 . S
C329 C332 1.388 1_556 S
C329 C334 1.418 . S
C330 H325 0.930 . S
C330 C333 1.404 . S
C330 C334 1.353 1_554 S
N331 Co296 2.145 . S
N331 C332 1.397 . S
N331 C333 1.334 . S
C332 H313 0.929 . S
C332 C329 1.388 1_554 S
C332 N331 1.397 . S
C333 H314 0.929 . S
C333 C330 1.404 . S
C333 N331 1.334 . S
C334 H326 0.930 . S
C334 C329 1.418 . S
C334 C330 1.353 1_556 S
C335 H305 0.930 . S
C335 N336 1.330 . S
C335 C337 1.446 . S
N336 Co295 2.151 . S
N336 C335 1.330 . S
N336 C340 1.418 . S
C337 H316 0.929 . S
C337 C335 1.446 . S
C337 C338 1.332 . S
C338 H318 0.931 . S
C338 C337 1.332 . S
C338 C339 1.267 . S
C339 H307 0.929 . S
C339 C338 1.267 . S
C339 C340 1.251 . S
C340 H310 0.929 . S
C340 N336 1.418 . S
C340 C339 1.251 . S
C341 H308 0.930 . S
C341 C343 1.406 1_545 S
C341 C346 1.261 . S
C342 H309 0.930 . S
C342 N344 1.325 . S
C342 C345 1.357 1_565 S
C343 H311 0.928 . S
C343 C341 1.406 1_565 S
C343 N344 1.261 . S
N344 Co295 2.214 . S
N344 C342 1.325 . S
N344 C343 1.261 . S
C345 H315 0.931 . S
C345 C342 1.357 1_545 S
C345 C346 1.312 . S
C346 H317 0.930 . S
C346 C341 1.261 . S
C346 C345 1.312 . S
C347 O319 1.214 . S
C347 O327 1.234 . S
C348 H320 0.929 . S
C348 C351 1.391 . S
C348 C353 1.391 . S
C349 H321 0.929 . S
C349 C350 1.390 . S
C349 N352 1.391 . S
C350 H322 0.930 . S
C350 C349 1.390 . S
C350 C351 1.392 . S
C351 H323 0.929 . S
C351 C348 1.391 . S
C351 C350 1.392 . S
N352 Co296 2.257 . S
N352 C349 1.391 . S
N352 C353 1.388 . S
C353 H324 0.930 . S
C353 C348 1.391 . S
C353 N352 1.388 . S
Co354 O356 2.143 . S
Co354 O362 2.074 . S
Co354 O365 2.093 . S
Co354 O378 2.097 . S
Co354 N395 2.151 . S
Co354 N403 2.214 . S
Co355 O356 2.160 . S
Co355 O361 2.058 . S
Co355 O371 2.057 . S
Co355 O386 2.037 . S
Co355 N390 2.145 . S
Co355 N411 2.257 . S
O356 Co354 2.143 . S
O356 Co355 2.160 . S
C357 O358 1.278 . S
C357 O365 1.224 . S
O358 C357 1.278 . S
C359 O360 1.245 . S
C359 O371 1.232 . S
O360 C359 1.245 . S
O361 Co355 2.058 . S
O361 C387 1.269 . S
O362 Co354 2.074 . S
O362 C387 1.257 . S
H363 C388 0.930 . S
H364 C394 0.930 . S
O365 Co354 2.093 . S
O365 C357 1.224 . S
H366 C398 0.929 . S
H367 C400 0.930 . S
H368 C401 0.930 . S
H369 C399 0.929 . S
H370 C402 0.928 . S
O371 Co355 2.057 . S
O371 C359 1.232 . S
H372 C391 0.929 . S
H373 C392 0.929 . S
H374 C404 0.931 . S
H375 C396 0.929 . S
H376 C405 0.930 . S
H377 C397 0.931 . S
O378 Co354 2.097 . S
O378 C406 1.214 . S
H379 C407 0.929 . S
H380 C408 0.929 . S
H381 C409 0.930 . S
H382 C410 0.929 . S
H383 C412 0.930 . S
H384 C389 0.930 . S
H385 C393 0.930 . S
O386 Co355 2.037 . S
O386 C406 1.234 . S
C387 O361 1.269 . S
C387 O362 1.257 . S
C388 H363 0.930 . S
C388 C391 1.388 . S
C388 C393 1.418 . S
C389 H384 0.930 . S
C389 C392 1.404 . S
C389 C393 1.353 . S
N390 Co355 2.145 . S
N390 C391 1.397 . S
N390 C392 1.334 . S
C391 H372 0.929 . S
C391 C388 1.388 . S
C391 N390 1.397 . S
C392 H373 0.929 . S
C392 C389 1.404 . S
C392 N390 1.334 . S
C393 H385 0.930 . S
C393 C388 1.418 . S
C393 C389 1.353 . S
C394 H364 0.930 . S
C394 N395 1.330 . S
C394 C396 1.446 . S
N395 Co354 2.151 . S
N395 C394 1.330 . S
N395 C399 1.418 . S
C396 H375 0.929 . S
C396 C394 1.446 . S
C396 C397 1.332 . S
C397 H377 0.931 . S
C397 C396 1.332 . S
C397 C398 1.267 . S
C398 H366 0.929 . S
C398 C397 1.267 . S
C398 C399 1.251 . S
C399 H369 0.929 . S
C399 N395 1.418 . S
C399 C398 1.251 . S
C400 H367 0.930 . S
C400 C402 1.406 . S
C400 C405 1.261 . S
C401 H368 0.930 . S
C401 N403 1.325 . S
C401 C404 1.357 . S
C402 H370 0.928 . S
C402 C400 1.406 . S
C402 N403 1.261 . S
N403 Co354 2.214 . S
N403 C401 1.325 . S
N403 C402 1.261 . S
C404 H374 0.931 . S
C404 C401 1.357 . S
C404 C405 1.312 . S
C405 H376 0.930 . S
C405 C400 1.261 . S
C405 C404 1.312 . S
C406 O378 1.214 . S
C406 O386 1.234 . S
C407 H379 0.929 . S
C407 C410 1.391 . S
C407 C412 1.391 . S
C408 H380 0.929 . S
C408 C409 1.390 . S
C408 N411 1.391 . S
C409 H381 0.930 . S
C409 C408 1.390 . S
C409 C410 1.392 . S
C410 H382 0.929 . S
C410 C407 1.391 . S
C410 C409 1.392 . S
N411 Co355 2.257 . S
N411 C408 1.391 . S
N411 C412 1.388 . S
C412 H383 0.930 . S
C412 C407 1.391 . S
C412 N411 1.388 . S
Co413 O415 2.143 . S
Co413 O421 2.074 . S
Co413 O424 2.093 . S
Co413 O437 2.097 . S
Co413 N454 2.151 . S
Co413 N462 2.214 . S
Co414 O415 2.160 . S
Co414 O420 2.058 . S
Co414 O430 2.057 . S
Co414 O445 2.037 . S
Co414 N449 2.145 . S
Co414 N470 2.257 . S
O415 Co413 2.143 . S
O415 Co414 2.160 . S
C416 O417 1.278 . S
C416 O424 1.224 . S
O417 C416 1.278 . S
C418 O419 1.245 . S
C418 O430 1.232 . S
O419 C418 1.245 . S
O420 Co414 2.058 . S
O420 C446 1.269 . S
O421 Co413 2.074 . S
O421 C446 1.257 . S
H422 C447 0.930 . S
H423 C453 0.930 . S
O424 Co413 2.093 . S
O424 C416 1.224 . S
H425 C457 0.929 . S
H426 C459 0.930 . S
H427 C460 0.930 . S
H428 C458 0.929 . S
H429 C461 0.928 . S
O430 Co414 2.057 . S
O430 C418 1.232 . S
H431 C450 0.929 . S
H432 C451 0.929 . S
H433 C463 0.931 . S
H434 C455 0.929 . S
H435 C464 0.930 . S
H436 C456 0.931 . S
O437 Co413 2.097 . S
O437 C465 1.214 . S
H438 C466 0.929 . S
H439 C467 0.929 . S
H440 C468 0.930 . S
H441 C469 0.929 . S
H442 C471 0.930 . S
H443 C448 0.930 . S
H444 C452 0.930 . S
O445 Co414 2.037 . S
O445 C465 1.234 . S
C446 O420 1.269 . S
C446 O421 1.257 . S
C447 H422 0.930 . S
C447 C450 1.388 . S
C447 C452 1.418 . S
C448 H443 0.930 . S
C448 C451 1.404 . S
C448 C452 1.353 . S
N449 Co414 2.145 . S
N449 C450 1.397 . S
N449 C451 1.334 . S
C450 H431 0.929 . S
C450 C447 1.388 . S
C450 N449 1.397 . S
C451 H432 0.929 . S
C451 C448 1.404 . S
C451 N449 1.334 . S
C452 H444 0.930 . S
C452 C447 1.418 . S
C452 C448 1.353 . S
C453 H423 0.930 . S
C453 N454 1.330 . S
C453 C455 1.446 . S
N454 Co413 2.151 . S
N454 C453 1.330 . S
N454 C458 1.418 . S
C455 H434 0.929 . S
C455 C453 1.446 . S
C455 C456 1.332 . S
C456 H436 0.931 . S
C456 C455 1.332 . S
C456 C457 1.267 . S
C457 H425 0.929 . S
C457 C456 1.267 . S
C457 C458 1.251 . S
C458 H428 0.929 . S
C458 N454 1.418 . S
C458 C457 1.251 . S
C459 H426 0.930 . S
C459 C461 1.406 1_655 S
C459 C464 1.261 . S
C460 H427 0.930 . S
C460 N462 1.325 . S
C460 C463 1.357 1_455 S
C461 H429 0.928 . S
C461 C459 1.406 1_455 S
C461 N462 1.261 . S
N462 Co413 2.214 . S
N462 C460 1.325 . S
N462 C461 1.261 . S
C463 H433 0.931 . S
C463 C460 1.357 1_655 S
C463 C464 1.312 . S
C464 H435 0.930 . S
C464 C459 1.261 . S
C464 C463 1.312 . S
C465 O437 1.214 . S
C465 O445 1.234 . S
C466 H438 0.929 . S
C466 C469 1.391 . S
C466 C471 1.391 . S
C467 H439 0.929 . S
C467 C468 1.390 . S
C467 N470 1.391 . S
C468 H440 0.930 . S
C468 C467 1.390 . S
C468 C469 1.392 . S
C469 H441 0.929 . S
C469 C466 1.391 . S
C469 C468 1.392 . S
N470 Co414 2.257 . S
N470 C467 1.391 . S
N470 C471 1.388 . S
C471 H442 0.930 . S
C471 C466 1.391 . S
C471 N470 1.388 . S
Co472 O474 2.143 . S
Co472 O480 2.074 . S
Co472 O483 2.093 . S
Co472 O496 2.097 . S
Co472 N513 2.151 . S
Co472 N521 2.214 . S
Co473 O474 2.160 . S
Co473 O479 2.058 . S
Co473 O489 2.057 . S
Co473 O504 2.037 . S
Co473 N508 2.145 . S
Co473 N529 2.257 . S
O474 Co472 2.143 . S
O474 Co473 2.160 . S
C475 O476 1.278 . S
C475 O483 1.224 . S
O476 C475 1.278 . S
C477 O478 1.245 . S
C477 O489 1.232 . S
O478 C477 1.245 . S
O479 Co473 2.058 . S
O479 C505 1.269 . S
O480 Co472 2.074 . S
O480 C505 1.257 . S
H481 C506 0.930 . S
H482 C512 0.930 . S
O483 Co472 2.093 . S
O483 C475 1.224 . S
H484 C516 0.929 . S
H485 C518 0.930 . S
H486 C519 0.930 . S
H487 C517 0.929 . S
H488 C520 0.928 . S
O489 Co473 2.057 . S
O489 C477 1.232 . S
H490 C509 0.929 . S
H491 C510 0.929 . S
H492 C522 0.931 . S
H493 C514 0.929 . S
H494 C523 0.930 . S
H495 C515 0.931 . S
O496 Co472 2.097 . S
O496 C524 1.214 . S
H497 C525 0.929 . S
H498 C526 0.929 . S
H499 C527 0.930 . S
H500 C528 0.929 . S
H501 C530 0.930 . S
H502 C507 0.930 . S
H503 C511 0.930 . S
O504 Co473 2.037 . S
O504 C524 1.234 . S
C505 O479 1.269 . S
C505 O480 1.257 . S
C506 H481 0.930 . S
C506 C509 1.388 1_554 S
C506 C511 1.418 . S
C507 H502 0.930 . S
C507 C510 1.404 . S
C507 C511 1.353 1_556 S
N508 Co473 2.145 . S
N508 C509 1.397 . S
N508 C510 1.334 . S
C509 H490 0.929 . S
C509 C506 1.388 1_556 S
C509 N508 1.397 . S
C510 H491 0.929 . S
C510 C507 1.404 . S
C510 N508 1.334 . S
C511 H503 0.930 . S
C511 C506 1.418 . S
C511 C507 1.353 1_554 S
C512 H482 0.930 . S
C512 N513 1.330 . S
C512 C514 1.446 . S
N513 Co472 2.151 . S
N513 C512 1.330 . S
N513 C517 1.418 . S
C514 H493 0.929 . S
C514 C512 1.446 . S
C514 C515 1.332 . S
C515 H495 0.931 . S
C515 C514 1.332 . S
C515 C516 1.267 . S
C516 H484 0.929 . S
C516 C515 1.267 . S
C516 C517 1.251 . S
C517 H487 0.929 . S
C517 N513 1.418 . S
C517 C516 1.251 . S
C518 H485 0.930 . S
C518 C520 1.406 1_565 S
C518 C523 1.261 . S
C519 H486 0.930 . S
C519 N521 1.325 . S
C519 C522 1.357 1_545 S
C520 H488 0.928 . S
C520 C518 1.406 1_545 S
C520 N521 1.261 . S
N521 Co472 2.214 . S
N521 C519 1.325 . S
N521 C520 1.261 . S
C522 H492 0.931 . S
C522 C519 1.357 1_565 S
C522 C523 1.312 . S
C523 H494 0.930 . S
C523 C518 1.261 . S
C523 C522 1.312 . S
C524 O496 1.214 . S
C524 O504 1.234 . S
C525 H497 0.929 . S
C525 C528 1.391 . S
C525 C530 1.391 . S
C526 H498 0.929 . S
C526 C527 1.390 . S
C526 N529 1.391 . S
C527 H499 0.930 . S
C527 C526 1.390 . S
C527 C528 1.392 . S
C528 H500 0.929 . S
C528 C525 1.391 . S
C528 C527 1.392 . S
N529 Co473 2.257 . S
N529 C526 1.391 . S
N529 C530 1.388 . S
C530 H501 0.930 . S
C530 C525 1.391 . S
C530 N529 1.388 . S
Co531 O533 2.143 . S
Co531 O539 2.074 . S
Co531 O542 2.093 . S
Co531 O555 2.097 . S
Co531 N572 2.151 . S
Co531 N580 2.214 . S
Co532 O533 2.160 . S
Co532 O538 2.058 . S
Co532 O548 2.057 . S
Co532 O563 2.037 1_556 S
Co532 N567 2.145 1_556 S
Co532 N588 2.257 . S
O533 Co531 2.143 . S
O533 Co532 2.160 . S
C534 O535 1.278 . S
C534 O542 1.224 . S
O535 C534 1.278 . S
C536 O537 1.245 . S
C536 O548 1.232 . S
O537 C536 1.245 . S
O538 Co532 2.058 . S
O538 C564 1.269 . S
O539 Co531 2.074 . S
O539 C564 1.257 . S
H540 C565 0.930 . S
H541 C571 0.930 . S
O542 Co531 2.093 . S
O542 C534 1.224 . S
H543 C575 0.929 . S
H544 C577 0.930 . S
H545 C578 0.930 . S
H546 C576 0.929 . S
H547 C579 0.928 . S
O548 Co532 2.057 . S
O548 C536 1.232 . S
H549 C568 0.929 . S
H550 C569 0.929 . S
H551 C581 0.931 1_554 S
H552 C573 0.929 . S
H553 C582 0.930 . S
H554 C574 0.931 . S
O555 Co531 2.097 . S
O555 C583 1.214 1_556 S
H556 C584 0.929 . S
H557 C585 0.929 . S
H558 C586 0.930 . S
H559 C587 0.929 . S
H560 C589 0.930 . S
H561 C566 0.930 . S
H562 C570 0.930 . S
O563 Co532 2.037 1_554 S
O563 C583 1.234 . S
C564 O538 1.269 . S
C564 O539 1.257 . S
C565 H540 0.930 . S
C565 C568 1.388 . S
C565 C570 1.418 . S
C566 H561 0.930 . S
C566 C569 1.404 . S
C566 C570 1.353 . S
N567 Co532 2.145 1_554 S
N567 C568 1.397 . S
N567 C569 1.334 . S
C568 H549 0.929 . S
C568 C565 1.388 . S
C568 N567 1.397 . S
C569 H550 0.929 . S
C569 C566 1.404 . S
C569 N567 1.334 . S
C570 H562 0.930 . S
C570 C565 1.418 . S
C570 C566 1.353 . S
C571 H541 0.930 . S
C571 N572 1.330 . S
C571 C573 1.446 . S
N572 Co531 2.151 . S
N572 C571 1.330 . S
N572 C576 1.418 . S
C573 H552 0.929 . S
C573 C571 1.446 . S
C573 C574 1.332 . S
C574 H554 0.931 . S
C574 C573 1.332 . S
C574 C575 1.267 . S
C575 H543 0.929 . S
C575 C574 1.267 . S
C575 C576 1.251 . S
C576 H546 0.929 . S
C576 N572 1.418 . S
C576 C575 1.251 . S
C577 H544 0.930 . S
C577 C579 1.406 . S
C577 C582 1.261 . S
C578 H545 0.930 . S
C578 N580 1.325 . S
C578 C581 1.357 . S
C579 H547 0.928 . S
C579 C577 1.406 . S
C579 N580 1.261 . S
N580 Co531 2.214 . S
N580 C578 1.325 . S
N580 C579 1.261 . S
C581 H551 0.931 1_556 S
C581 C578 1.357 . S
C581 C582 1.312 . S
C582 H553 0.930 . S
C582 C577 1.261 . S
C582 C581 1.312 . S
C583 O555 1.214 1_554 S
C583 O563 1.234 . S
C584 H556 0.929 . S
C584 C587 1.391 . S
C584 C589 1.391 . S
C585 H557 0.929 . S
C585 C586 1.390 . S
C585 N588 1.391 1_554 S
C586 H558 0.930 . S
C586 C585 1.390 . S
C586 C587 1.392 1_554 S
C587 H559 0.929 . S
C587 C584 1.391 . S
C587 C586 1.392 1_556 S
N588 Co532 2.257 . S
N588 C585 1.391 1_556 S
N588 C589 1.388 . S
C589 H560 0.930 . S
C589 C584 1.391 . S
C589 N588 1.388 . S
Co590 O592 2.143 . S
Co590 O598 2.074 . S
Co590 O601 2.093 1_554 S
Co590 O614 2.097 . S
Co590 N631 2.151 1_554 S
Co590 N639 2.214 . S
Co591 O592 2.160 . S
Co591 O597 2.058 . S
Co591 O607 2.057 . S
Co591 O622 2.037 . S
Co591 N626 2.145 . S
Co591 N647 2.257 . S
O592 Co590 2.143 . S
O592 Co591 2.160 . S
C593 O594 1.278 . S
C593 O601 1.224 . S
O594 C593 1.278 . S
C595 O596 1.245 1_554 S
C595 O607 1.232 . S
O596 C595 1.245 1_556 S
O597 Co591 2.058 . S
O597 C623 1.269 . S
O598 Co590 2.074 . S
O598 C623 1.257 . S
H599 C624 0.930 . S
H600 C630 0.930 . S
O601 Co590 2.093 1_556 S
O601 C593 1.224 . S
H602 C634 0.929 . S
H603 C636 0.930 1_556 S
H604 C637 0.930 . S
H605 C635 0.929 . S
H606 C638 0.928 1_556 S
O607 Co591 2.057 . S
O607 C595 1.232 . S
H608 C627 0.929 . S
H609 C628 0.929 . S
H610 C640 0.931 . S
H611 C632 0.929 . S
H612 C641 0.930 . S
H613 C633 0.931 . S
O614 Co590 2.097 . S
O614 C642 1.214 . S
H615 C643 0.929 . S
H616 C644 0.929 . S
H617 C645 0.930 . S
H618 C646 0.929 . S
H619 C648 0.930 . S
H620 C625 0.930 . S
H621 C629 0.930 . S
O622 Co591 2.037 . S
O622 C642 1.234 . S
C623 O597 1.269 . S
C623 O598 1.257 . S
C624 H599 0.930 . S
C624 C627 1.388 . S
C624 C629 1.418 . S
C625 H620 0.930 . S
C625 C628 1.404 . S
C625 C629 1.353 . S
N626 Co591 2.145 . S
N626 C627 1.397 . S
N626 C628 1.334 . S
C627 H608 0.929 . S
C627 C624 1.388 . S
C627 N626 1.397 . S
C628 H609 0.929 . S
C628 C625 1.404 . S
C628 N626 1.334 . S
C629 H621 0.930 . S
C629 C624 1.418 . S
C629 C625 1.353 . S
C630 H600 0.930 . S
C630 N631 1.330 . S
C630 C632 1.446 . S
N631 Co590 2.151 1_556 S
N631 C630 1.330 . S
N631 C635 1.418 . S
C632 H611 0.929 . S
C632 C630 1.446 . S
C632 C633 1.332 . S
C633 H613 0.931 . S
C633 C632 1.332 . S
C633 C634 1.267 . S
C634 H602 0.929 . S
C634 C633 1.267 . S
C634 C635 1.251 . S
C635 H605 0.929 . S
C635 N631 1.418 . S
C635 C634 1.251 . S
C636 H603 0.930 1_554 S
C636 C638 1.406 1_455 S
C636 C641 1.261 . S
C637 H604 0.930 . S
C637 N639 1.325 . S
C637 C640 1.357 1_655 S
C638 H606 0.928 1_554 S
C638 C636 1.406 1_655 S
C638 N639 1.261 . S
N639 Co590 2.214 . S
N639 C637 1.325 . S
N639 C638 1.261 . S
C640 H610 0.931 . S
C640 C637 1.357 1_455 S
C640 C641 1.312 . S
C641 H612 0.930 . S
C641 C636 1.261 . S
C641 C640 1.312 . S
C642 O614 1.214 . S
C642 O622 1.234 . S
C643 H615 0.929 . S
C643 C646 1.391 . S
C643 C648 1.391 . S
C644 H616 0.929 . S
C644 C645 1.390 . S
C644 N647 1.391 . S
C645 H617 0.930 . S
C645 C644 1.390 . S
C645 C646 1.392 . S
C646 H618 0.929 . S
C646 C643 1.391 . S
C646 C645 1.392 . S
N647 Co591 2.257 . S
N647 C644 1.391 . S
N647 C648 1.388 . S
C648 H619 0.930 . S
C648 C643 1.391 . S
C648 N647 1.388 . S
Co649 O651 2.143 . S
Co649 O657 2.074 . S
Co649 O660 2.093 . S
Co649 O673 2.097 . S
Co649 N690 2.151 . S
Co649 N698 2.214 . S
Co650 O651 2.160 . S
Co650 O656 2.058 . S
Co650 O666 2.057 . S
Co650 O681 2.037 . S
Co650 N685 2.145 . S
Co650 N706 2.257 . S
O651 Co649 2.143 . S
O651 Co650 2.160 . S
C652 O653 1.278 . S
C652 O660 1.224 . S
O653 C652 1.278 . S
C654 O655 1.245 . S
C654 O666 1.232 . S
O655 C654 1.245 . S
O656 Co650 2.058 . S
O656 C682 1.269 . S
O657 Co649 2.074 . S
O657 C682 1.257 . S
H658 C683 0.930 . S
H659 C689 0.930 . S
O660 Co649 2.093 . S
O660 C652 1.224 . S
H661 C693 0.929 . S
H662 C695 0.930 . S
H663 C696 0.930 . S
H664 C694 0.929 . S
H665 C697 0.928 . S
O666 Co650 2.057 . S
O666 C654 1.232 . S
H667 C686 0.929 . S
H668 C687 0.929 . S
H669 C699 0.931 . S
H670 C691 0.929 . S
H671 C700 0.930 . S
H672 C692 0.931 . S
O673 Co649 2.097 . S
O673 C701 1.214 . S
H674 C702 0.929 . S
H675 C703 0.929 . S
H676 C704 0.930 . S
H677 C705 0.929 . S
H678 C707 0.930 . S
H679 C684 0.930 . S
H680 C688 0.930 . S
O681 Co650 2.037 . S
O681 C701 1.234 . S
C682 O656 1.269 . S
C682 O657 1.257 . S
C683 H658 0.930 . S
C683 C686 1.388 . S
C683 C688 1.418 . S
C684 H679 0.930 . S
C684 C687 1.404 . S
C684 C688 1.353 . S
N685 Co650 2.145 . S
N685 C686 1.397 . S
N685 C687 1.334 . S
C686 H667 0.929 . S
C686 C683 1.388 . S
C686 N685 1.397 . S
C687 H668 0.929 . S
C687 C684 1.404 . S
C687 N685 1.334 . S
C688 H680 0.930 . S
C688 C683 1.418 . S
C688 C684 1.353 . S
C689 H659 0.930 . S
C689 N690 1.330 . S
C689 C691 1.446 1_554 S
N690 Co649 2.151 . S
N690 C689 1.330 . S
N690 C694 1.418 . S
C691 H670 0.929 . S
C691 C689 1.446 1_556 S
C691 C692 1.332 . S
C692 H672 0.931 . S
C692 C691 1.332 . S
C692 C693 1.267 1_556 S
C693 H661 0.929 . S
C693 C692 1.267 1_554 S
C693 C694 1.251 . S
C694 H664 0.929 . S
C694 N690 1.418 . S
C694 C693 1.251 . S
C695 H662 0.930 . S
C695 C697 1.406 1_545 S
C695 C700 1.261 . S
C696 H663 0.930 . S
C696 N698 1.325 . S
C696 C699 1.357 1_565 S
C697 H665 0.928 . S
C697 C695 1.406 1_565 S
C697 N698 1.261 . S
N698 Co649 2.214 . S
N698 C696 1.325 . S
N698 C697 1.261 . S
C699 H669 0.931 . S
C699 C696 1.357 1_545 S
C699 C700 1.312 . S
C700 H671 0.930 . S
C700 C695 1.261 . S
C700 C699 1.312 . S
C701 O673 1.214 . S
C701 O681 1.234 . S
C702 H674 0.929 . S
C702 C705 1.391 . S
C702 C707 1.391 . S
C703 H675 0.929 . S
C703 C704 1.390 . S
C703 N706 1.391 . S
C704 H676 0.930 . S
C704 C703 1.390 . S
C704 C705 1.392 . S
C705 H677 0.929 . S
C705 C702 1.391 . S
C705 C704 1.392 . S
N706 Co650 2.257 . S
N706 C703 1.391 . S
N706 C707 1.388 . S
C707 H678 0.930 . S
C707 C702 1.391 . S
C707 N706 1.388 . S
C708 C709 1.387 . S
C708 H712 0.950 . S
C708 C717 1.390 . S
C709 C708 1.387 . S
C709 C711 1.387 . S
H710 C717 0.950 . S
C711 C709 1.387 . S
C711 C713 1.390 . S
C711 H715 0.950 . S
H712 C708 0.950 . S
C713 C711 1.390 . S
C713 C714 1.387 . S
C713 H716 0.950 . S
C714 C713 1.387 . S
C714 C717 1.387 . S
H715 C711 0.950 . S
H716 C713 0.950 . S
C717 C708 1.390 . S
C717 H710 0.950 . S
C717 C714 1.387 . S
C718 C719 1.387 . S
C718 H722 0.950 . S
C718 C727 1.390 . S
C719 C718 1.387 . S
C719 C721 1.387 1_455 S
H720 C727 0.950 . S
C721 C719 1.387 1_655 S
C721 C723 1.390 . S
C721 H725 0.950 . S
H722 C718 0.950 . S
C723 C721 1.390 . S
C723 C724 1.387 . S
C723 H726 0.950 . S
C724 C723 1.387 . S
C724 C727 1.387 1_655 S
H725 C721 0.950 . S
H726 C723 0.950 . S
C727 C718 1.390 . S
C727 H720 0.950 . S
C727 C724 1.387 1_455 S
C728 C729 1.387 . S
C728 H732 0.950 . S
C728 C737 1.390 1_565 S
C729 C728 1.387 . S
C729 C731 1.387 . S
H730 C737 0.950 . S
C731 C729 1.387 . S
C731 C733 1.390 1_565 S
C731 H735 0.950 . S
H732 C728 0.950 . S
C733 C731 1.390 1_545 S
C733 C734 1.387 . S
C733 H736 0.950 . S
C734 C733 1.387 . S
C734 C737 1.387 . S
H735 C731 0.950 . S
H736 C733 0.950 . S
C737 C728 1.390 1_545 S
C737 H730 0.950 . S
C737 C734 1.387 . S
C738 C739 1.387 . S
C738 H742 0.950 . S
C738 C747 1.390 . S
C739 C738 1.387 . S
C739 C741 1.387 . S
H740 C747 0.950 . S
C741 C739 1.387 . S
C741 C743 1.390 . S
C741 H745 0.950 . S
H742 C738 0.950 . S
C743 C741 1.390 . S
C743 C744 1.387 . S
C743 H746 0.950 . S
C744 C743 1.387 . S
C744 C747 1.387 . S
H745 C741 0.950 . S
H746 C743 0.950 . S
C747 C738 1.390 . S
C747 H740 0.950 . S
C747 C744 1.387 . S
C748 C749 1.387 . S
C748 H752 0.950 . S
C748 C757 1.390 1_455 S
C749 C748 1.387 . S
C749 C751 1.387 . S
H750 C757 0.950 . S
C751 C749 1.387 . S
C751 C753 1.390 1_455 S
C751 H755 0.950 . S
H752 C748 0.950 . S
C753 C751 1.390 1_655 S
C753 C754 1.387 . S
C753 H756 0.950 . S
C754 C753 1.387 . S
C754 C757 1.387 . S
H755 C751 0.950 . S
H756 C753 0.950 . S
C757 C748 1.390 1_655 S
C757 H750 0.950 . S
C757 C754 1.387 . S
C758 C759 1.387 . S
C758 H762 0.950 . S
C758 C767 1.390 1_546 S
C759 C758 1.387 . S
C759 C761 1.387 . S
H760 C767 0.950 . S
C761 C759 1.387 . S
C761 C763 1.390 1_546 S
C761 H765 0.950 . S
H762 C758 0.950 . S
C763 C761 1.390 1_564 S
C763 C764 1.387 . S
C763 H766 0.950 . S
C764 C763 1.387 . S
C764 C767 1.387 . S
H765 C761 0.950 . S
H766 C763 0.950 . S
C767 C758 1.390 1_564 S
C767 H760 0.950 . S
C767 C764 1.387 . S
C768 C769 1.387 . S
C768 H772 0.950 . S
C768 C777 1.390 . S
C769 C768 1.387 . S
C769 C771 1.387 . S
H770 C777 0.950 . S
C771 C769 1.387 . S
C771 C773 1.390 . S
C771 H775 0.950 . S
H772 C768 0.950 . S
C773 C771 1.390 . S
C773 C774 1.387 . S
C773 H776 0.950 . S
C774 C773 1.387 . S
C774 C777 1.387 . S
H775 C771 0.950 . S
H776 C773 0.950 . S
C777 C768 1.390 . S
C777 H770 0.950 . S
C777 C774 1.387 . S
C778 C779 1.387 . S
C778 H782 0.950 . S
C778 C787 1.390 . S
C779 C778 1.387 . S
C779 C781 1.387 . S
H780 C787 0.950 . S
C781 C779 1.387 . S
C781 C783 1.390 . S
C781 H785 0.950 . S
H782 C778 0.950 . S
C783 C781 1.390 . S
C783 C784 1.387 . S
C783 H786 0.950 . S
C784 C783 1.387 . S
C784 C787 1.387 . S
H785 C781 0.950 . S
H786 C783 0.950 . S
C787 C778 1.390 . S
C787 H780 0.950 . S
C787 C784 1.387 . S
C788 C789 1.387 . S
C788 H792 0.950 . S
C788 C797 1.390 . S
C789 C788 1.387 . S
C789 C791 1.387 . S
H790 C797 0.950 . S
C791 C789 1.387 . S
C791 C793 1.390 . S
C791 H795 0.950 . S
H792 C788 0.950 . S
C793 C791 1.390 . S
C793 C794 1.387 . S
C793 H796 0.950 . S
C794 C793 1.387 . S
C794 C797 1.387 . S
H795 C791 0.950 . S
H796 C793 0.950 . S
C797 C788 1.390 . S
C797 H790 0.950 . S
C797 C794 1.387 . S
C798 C799 1.387 . S
C798 H802 0.950 . S
C798 C807 1.390 . S
C799 C798 1.387 . S
C799 C801 1.387 . S
H800 C807 0.950 1_554 S
C801 C799 1.387 . S
C801 C803 1.390 . S
C801 H805 0.950 . S
H802 C798 0.950 . S
C803 C801 1.390 . S
C803 C804 1.387 . S
C803 H806 0.950 . S
C804 C803 1.387 . S
C804 C807 1.387 . S
H805 C801 0.950 . S
H806 C803 0.950 . S
C807 C798 1.390 . S
C807 H800 0.950 1_556 S
C807 C804 1.387 . S
C808 C809 1.387 . S
C808 H812 0.950 . S
C808 C817 1.390 . S
C809 C808 1.387 . S
C809 C811 1.387 . S
H810 C817 0.950 . S
C811 C809 1.387 . S
C811 C813 1.390 . S
C811 H815 0.950 . S
H812 C808 0.950 . S
C813 C811 1.390 . S
C813 C814 1.387 . S
C813 H816 0.950 1_554 S
C814 C813 1.387 . S
C814 C817 1.387 . S
H815 C811 0.950 . S
H816 C813 0.950 1_556 S
C817 C808 1.390 . S
C817 H810 0.950 . S
C817 C814 1.387 . S
C818 C819 1.387 . S
C818 H822 0.950 . S
C818 C827 1.390 . S
C819 C818 1.387 . S
C819 C821 1.387 . S
H820 C827 0.950 . S
C821 C819 1.387 . S
C821 C823 1.390 . S
C821 H825 0.950 . S
H822 C818 0.950 . S
C823 C821 1.390 . S
C823 C824 1.387 . S
C823 H826 0.950 . S
C824 C823 1.387 . S
C824 C827 1.387 . S
H825 C821 0.950 . S
H826 C823 0.950 . S
C827 C818 1.390 . S
C827 H820 0.950 . S
C827 C824 1.387 . S
C828 C829 1.387 . S
C828 H832 0.950 . S
C828 C837 1.390 . S
C829 C828 1.387 . S
C829 C831 1.387 . S
H830 C837 0.950 . S
C831 C829 1.387 . S
C831 C833 1.390 . S
C831 H835 0.950 . S
H832 C828 0.950 . S
C833 C831 1.390 . S
C833 C834 1.387 . S
C833 H836 0.950 . S
C834 C833 1.387 . S
C834 C837 1.387 . S
H835 C831 0.950 . S
H836 C833 0.950 . S
C837 C828 1.390 . S
C837 H830 0.950 . S
C837 C834 1.387 . S
C838 C839 1.387 . S
C838 H842 0.950 . S
C838 C847 1.390 1_655 S
C839 C838 1.387 . S
C839 C841 1.387 . S
H840 C847 0.950 . S
C841 C839 1.387 . S
C841 C843 1.390 1_655 S
C841 H845 0.950 . S
H842 C838 0.950 . S
C843 C841 1.390 1_455 S
C843 C844 1.387 . S
C843 H846 0.950 . S
C844 C843 1.387 . S
C844 C847 1.387 . S
H845 C841 0.950 . S
H846 C843 0.950 . S
C847 C838 1.390 1_455 S
C847 H840 0.950 . S
C847 C844 1.387 . S
C848 C849 1.387 . S
C848 H852 0.950 . S
C848 C857 1.390 1_564 S
C849 C848 1.387 . S
C849 C851 1.387 . S
H850 C857 0.950 . S
C851 C849 1.387 . S
C851 C853 1.390 1_564 S
C851 H855 0.950 . S
H852 C848 0.950 . S
C853 C851 1.390 1_546 S
C853 C854 1.387 . S
C853 H856 0.950 . S
C854 C853 1.387 . S
C854 C857 1.387 . S
H855 C851 0.950 . S
H856 C853 0.950 . S
C857 C848 1.390 1_546 S
C857 H850 0.950 . S
C857 C854 1.387 . S
C858 C859 1.387 . S
C858 H862 0.950 . S
C858 C867 1.390 . S
C859 C858 1.387 . S
C859 C861 1.387 . S
H860 C867 0.950 . S
C861 C859 1.387 . S
C861 C863 1.390 . S
C861 H865 0.950 . S
H862 C858 0.950 . S
C863 C861 1.390 . S
C863 C864 1.387 . S
C863 H866 0.950 . S
C864 C863 1.387 . S
C864 C867 1.387 . S
H865 C861 0.950 . S
H866 C863 0.950 . S
C867 C858 1.390 . S
C867 H860 0.950 . S
C867 C864 1.387 . S
C868 C869 1.387 . S
C868 H872 0.950 . S
C868 C877 1.390 1_455 S
C869 C868 1.387 . S
C869 C871 1.387 . S
H870 C877 0.950 . S
C871 C869 1.387 . S
C871 C873 1.390 1_455 S
C871 H875 0.950 . S
H872 C868 0.950 . S
C873 C871 1.390 1_655 S
C873 C874 1.387 . S
C873 H876 0.950 . S
C874 C873 1.387 . S
C874 C877 1.387 . S
H875 C871 0.950 . S
H876 C873 0.950 . S
C877 C868 1.390 1_655 S
C877 H870 0.950 . S
C877 C874 1.387 . S
C878 C879 1.387 . S
C878 H882 0.950 . S
C878 C887 1.390 1_565 S
C879 C878 1.387 . S
C879 C881 1.387 . S
H880 C887 0.950 . S
C881 C879 1.387 . S
C881 C883 1.390 1_565 S
C881 H885 0.950 . S
H882 C878 0.950 . S
C883 C881 1.390 1_545 S
C883 C884 1.387 . S
C883 H886 0.950 . S
C884 C883 1.387 . S
C884 C887 1.387 . S
H885 C881 0.950 . S
H886 C883 0.950 . S
C887 C878 1.390 1_545 S
C887 H880 0.950 . S
C887 C884 1.387 . S
C888 C889 1.387 . S
C888 H892 0.950 . S
C888 C897 1.390 . S
C889 C888 1.387 . S
C889 C891 1.387 . S
H890 C897 0.950 . S
C891 C889 1.387 . S
C891 C893 1.390 . S
C891 H895 0.950 . S
H892 C888 0.950 . S
C893 C891 1.390 . S
C893 C894 1.387 . S
C893 H896 0.950 . S
C894 C893 1.387 . S
C894 C897 1.387 . S
H895 C891 0.950 . S
H896 C893 0.950 . S
C897 C888 1.390 . S
C897 H890 0.950 . S
C897 C894 1.387 . S
C898 C899 1.387 . S
C898 H902 0.950 . S
C898 C907 1.390 . S
C899 C898 1.387 . S
C899 C901 1.387 . S
H900 C907 0.950 . S
C901 C899 1.387 . S
C901 C903 1.390 . S
C901 H905 0.950 . S
H902 C898 0.950 . S
C903 C901 1.390 . S
C903 C904 1.387 . S
C903 H906 0.950 . S
C904 C903 1.387 . S
C904 C907 1.387 . S
H905 C901 0.950 . S
H906 C903 0.950 . S
C907 C898 1.390 . S
C907 H900 0.950 . S
C907 C904 1.387 . S
C908 C909 1.387 . S
C908 H912 0.950 1_556 S
C908 C917 1.390 . S
C909 C908 1.387 . S
C909 C911 1.387 . S
H910 C917 0.950 . S
C911 C909 1.387 . S
C911 C913 1.390 . S
C911 H915 0.950 . S
H912 C908 0.950 1_554 S
C913 C911 1.390 . S
C913 C914 1.387 . S
C913 H916 0.950 . S
C914 C913 1.387 . S
C914 C917 1.387 . S
H915 C911 0.950 . S
H916 C913 0.950 . S
C917 C908 1.390 . S
C917 H910 0.950 . S
C917 C914 1.387 . S
C918 C919 1.387 . S
C918 H922 0.950 . S
C918 C927 1.390 . S
C919 C918 1.387 . S
C919 C921 1.387 . S
H920 C927 0.950 1_556 S
C921 C919 1.387 . S
C921 C923 1.390 . S
C921 H925 0.950 . S
H922 C918 0.950 . S
C923 C921 1.390 . S
C923 C924 1.387 . S
C923 H926 0.950 . S
C924 C923 1.387 . S
C924 C927 1.387 . S
H925 C921 0.950 . S
H926 C923 0.950 . S
C927 C918 1.390 . S
C927 H920 0.950 1_554 S
C927 C924 1.387 . S
C928 C929 1.387 . S
C928 H932 0.950 . S
C928 C937 1.390 . S
C929 C928 1.387 . S
C929 C931 1.387 . S
H930 C937 0.950 . S
C931 C929 1.387 . S
C931 C933 1.390 . S
C931 H935 0.950 . S
H932 C928 0.950 . S
C933 C931 1.390 . S
C933 C934 1.387 . S
C933 H936 0.950 . S
C934 C933 1.387 . S
C934 C937 1.387 . S
H935 C931 0.950 . S
H936 C933 0.950 . S
C937 C928 1.390 . S
C937 H930 0.950 . S
C937 C934 1.387 . S
C938 C939 1.387 . S
C938 H942 0.950 . S
C938 C947 1.390 . S
C939 C938 1.387 . S
C939 C941 1.387 . S
H940 C947 0.950 . S
C941 C939 1.387 . S
C941 C943 1.390 . S
C941 H945 0.950 . S
H942 C938 0.950 . S
C943 C941 1.390 . S
C943 C944 1.387 . S
C943 H946 0.950 . S
C944 C943 1.387 . S
C944 C947 1.387 . S
H945 C941 0.950 . S
H946 C943 0.950 . S
C947 C938 1.390 . S
C947 H940 0.950 . S
C947 C944 1.387 . S
C709 C583 1.925 . S
C714 C52 1.925 . S
C719 C111 1.926 . S
C724 C642 1.926 . S
C729 C701 1.925 . S
C734 C170 1.925 . S
C739 C406 1.926 . S
C744 C229 1.926 . S
C749 C465 1.927 . S
C754 C288 1.926 . S
C759 C524 1.927 . S
C764 C347 1.927 . S
C769 C387 1.810 . S
C774 C33 1.812 . S
C779 C92 1.810 . S
C784 C446 1.811 . S
C789 C505 1.809 . S
C794 C151 1.809 . S
C799 C210 1.812 . S
C804 C564 1.813 . S
C809 C623 1.811 . S
C814 C269 1.810 . S
C819 C328 1.812 . S
C824 C682 1.812 . S
C829 C534 1.213 . S
C834 C3 1.214 . S
C839 C593 1.214 . S
C844 C62 1.214 . S
C849 C652 1.214 . S
C854 C121 1.214 . S
C859 C180 1.214 . S
C864 C357 1.213 . S
C869 C416 1.214 . S
C874 C239 1.215 . S
C879 C298 1.214 . S
C884 C475 1.214 . S
C889 C5 1.372 . S
C894 C477 1.372 . S
C899 C536 1.371 . S
C904 C64 1.371 . S
C909 C595 1.372 1_556 S
C914 C123 1.372 . S
C919 C654 1.373 . S
C924 C182 1.373 1_554 S
C929 C359 1.374 . S
C934 C241 1.374 . S
C939 C418 1.374 . S
C944 C300 1.374 . S
