# Generated by pormake.
# Topology qtz-a, (4)-cn, num edge types: 1
# Building blocks:
#     Node 0, Type 0, BuildingBlock: UXUYUI_clean_sbu_0, # of connection points: 4
#     Node 1, Type 0, BuildingBlock: UXUYUI_clean_sbu_0, # of connection points: 4
#     Node 2, Type 0, BuildingBlock: UXUYUI_clean_sbu_0, # of connection points: 4
#     Node 3, Type 0, BuildingBlock: UXUYUI_clean_sbu_0, # of connection points: 4
#     Node 4, Type 0, BuildingBlock: UXUYUI_clean_sbu_0, # of connection points: 4
#     Node 5, Type 0, BuildingBlock: UXUYUI_clean_sbu_0, # of connection points: 4
#     Node 6, Type 0, BuildingBlock: UXUYUI_clean_sbu_0, # of connection points: 4
#     Node 7, Type 0, BuildingBlock: UXUYUI_clean_sbu_0, # of connection points: 4
#     Node 8, Type 0, BuildingBlock: UXUYUI_clean_sbu_0, # of connection points: 4
#     Node 9, Type 0, BuildingBlock: UXUYUI_clean_sbu_0, # of connection points: 4
#     Node 10, Type 0, BuildingBlock: UXUYUI_clean_sbu_0, # of connection points: 4
#     Node 11, Type 0, BuildingBlock: UXUYUI_clean_sbu_0, # of connection points: 4
#     Edge 12, Type (0, 0), None
#     Edge 13, Type (0, 0), None
#     Edge 14, Type (0, 0), None
#     Edge 15, Type (0, 0), None
#     Edge 16, Type (0, 0), None
#     Edge 17, Type (0, 0), None
#     Edge 18, Type (0, 0), None
#     Edge 19, Type (0, 0), None
#     Edge 20, Type (0, 0), None
#     Edge 21, Type (0, 0), None
#     Edge 22, Type (0, 0), None
#     Edge 23, Type (0, 0), None
#     Edge 24, Type (0, 0), None
#     Edge 25, Type (0, 0), None
#     Edge 26, Type (0, 0), None
#     Edge 27, Type (0, 0), None
#     Edge 28, Type (0, 0), None
#     Edge 29, Type (0, 0), None
#     Edge 30, Type (0, 0), None
#     Edge 31, Type (0, 0), None
#     Edge 32, Type (0, 0), None
#     Edge 33, Type (0, 0), None
#     Edge 34, Type (0, 0), None
#     Edge 35, Type (0, 0), None
# Relax obj value: 0.910
# Max RMSD: 0.301
# Mean RMSD: 0.301
data_MOF--net-qtz-a--node1-UXUYUI_clean_sbu_0--edge1-none
_symmetry_space_group_name_H-M    P1
_symmetry_Int_Tables_number       1
_symmetry_cell_setting            triclinic
loop_
_symmetry_equiv_pos_as_xyz
'x, y, z'
_cell_length_a     47.020497
_cell_length_b     46.989956
_cell_length_c     26.796741
_cell_angle_alpha  89.996208
_cell_angle_beta   90.027618
_cell_angle_gamma 119.80166
loop_
_atom_site_label
_atom_site_type_symbol
_atom_site_fract_x
_atom_site_fract_y
_atom_site_fract_z
_atom_type_partial_charge
Li0 Li 0.41231 0.06271 0.15629 0.0
Li1 Li 0.44787 0.1179 0.19327 0.0
Li2 Li 0.471 0.09434 0.13942 0.0
Li3 Li 0.45543 0.07283 0.22191 0.0
C4 C 0.44412 0.11731 0.07651 0.0
N5 N 0.4602 0.14189 0.98061 0.0
C6 C 0.46276 0.15112 0.06858 0.0
C7 C 0.43375 0.09599 0.03558 0.0
C8 C 0.47063 0.16306 0.01984 0.0
C9 C 0.44207 0.1089 0.98743 0.0
C10 C 0.3927 0.07973 0.25711 0.0
C11 C 0.37534 0.08883 0.33736 0.0
N12 N 0.34823 0.08681 0.31569 0.0
C13 C 0.36433 0.07707 0.23586 0.0
C14 C 0.39798 0.08507 0.30845 0.0
C15 C 0.34229 0.081 0.266 0.0
C16 C 0.36429 0.00536 0.1091 0.0
N17 N 0.37304 0.03682 0.12038 0.0
C18 C 0.34528 0.0409 0.04838 0.0
C19 C 0.36221 0.05394 0.09294 0.0
C20 C 0.33878 0.00971 0.03321 0.0
C21 C 0.34658 0.99103 0.06558 0.0
H22 H 0.37401 0.99273 0.13079 0.0
H23 H 0.37039 0.07927 0.10209 0.0
C24 C 0.4764 0.1869 0.20142 0.0
N25 N 0.44767 0.15795 0.19998 0.0
C26 C 0.47713 0.21612 0.18904 0.0
C27 C 0.4186 0.18536 0.17561 0.0
C28 C 0.41905 0.15677 0.18783 0.0
C29 C 0.44806 0.21546 0.17458 0.0
H30 H 0.49918 0.18715 0.20799 0.0
H31 H 0.39696 0.13341 0.18379 0.0
C32 C 0.46256 0.03163 0.15493 0.0
N33 N 0.49717 -0.00169 0.15582 0.0
C34 C 0.49619 0.04836 0.16508 0.0
C35 C 0.44665 -0.00195 0.14466 0.0
C36 C 0.51324 0.03108 0.16534 0.0
C37 C 0.46453 0.98162 0.14555 0.0
C38 C 0.50749 0.13654 0.24197 0.0
C39 C 0.54173 0.15286 0.2415 0.0
C40 C 0.49108 0.13921 0.28354 0.0
C41 C 0.559 0.17133 0.28307 0.0
C42 C 0.50921 0.15794 0.32435 0.0
N43 N 0.54252 0.17346 0.32329 0.0
C44 C 0.52715 0.13299 0.08029 0.0
C45 C 0.49136 0.07853 0.05285 0.0
C46 C 0.54711 0.13899 0.03855 0.0
N47 N 0.5 0.10311 0.08637 0.0
C48 C 0.51056 0.08335 0.01107 0.0
C49 C 0.5386 0.11393 0.00332 0.0
H50 H 0.53303 0.15211 0.10756 0.0
H51 H 0.46931 0.05524 0.05841 0.0
C52 C 0.44843 0.0169 0.27 0.0
N53 N 0.46747 0.05011 0.2707 0.0
C54 C 0.46169 0.99706 0.2831 0.0
C55 C 0.51213 0.04571 0.30525 0.0
C56 C 0.49812 0.06463 0.29079 0.0
C57 C 0.49475 0.01154 0.29803 0.0
H58 H 0.42439 0.00585 0.25301 0.0
H59 H 0.51314 0.09091 0.29118 0.0
O60 O 0.43662 0.10513 0.12409 0.0
O61 O 0.41431 0.07542 0.22832 0.0
O62 O 0.44498 0.0477 0.15682 0.0
O63 O 0.49036 0.11846 0.20146 0.0
H64 H 0.47128 0.16799 0.09967 0.0
H65 H 0.42 0.06971 0.04089 0.0
H66 H 0.48508 0.18917 0.01321 0.0
H67 H 0.43426 0.0927 0.95548 0.0
H68 H 0.37923 0.09318 0.37707 0.0
H69 H 0.35947 0.07222 0.19644 0.0
H70 H 0.41917 0.086 0.32595 0.0
H71 H 0.32041 0.07934 0.24989 0.0
H72 H 0.33988 0.05603 0.02406 0.0
H73 H 0.34234 0.96703 0.05464 0.0
H74 H 0.5005 0.23863 0.18801 0.0
H75 H 0.39552 0.18368 0.16545 0.0
H76 H 0.50892 0.0743 0.17351 0.0
H77 H 0.42064 0.98466 0.13695 0.0
H78 H 0.53918 0.04366 0.17365 0.0
H79 H 0.45235 0.95553 0.13856 0.0
H80 H 0.55478 0.15111 0.20942 0.0
H81 H 0.46471 0.12732 0.28393 0.0
H82 H 0.58551 0.18399 0.28333 0.0
H83 H 0.4968 0.16024 0.35678 0.0
H84 H 0.56879 0.16279 0.0338 0.0
H85 H 0.50393 0.06311 0.9856 0.0
H86 H 0.44709 0.97097 0.27635 0.0
H87 H 0.5373 0.05805 0.31805 0.0
Li88 Li 0.37501 0.44514 0.546 0.0
Li89 Li 0.36596 0.46433 0.4634 0.0
Li90 Li 0.32291 0.44088 0.52214 0.0
Li91 Li 0.33587 0.40395 0.47884 0.0
C92 C 0.35898 0.50083 0.55785 0.0
N93 N 0.34201 0.53989 0.61269 0.0
C94 C 0.36165 0.52924 0.53673 0.0
C95 C 0.34791 0.49236 0.60692 0.0
C96 C 0.35289 0.54865 0.56507 0.0
C97 C 0.33938 0.5124 0.63401 0.0
C98 C 0.40358 0.43895 0.43657 0.0
C99 C 0.40972 0.43554 0.34777 0.0
N100 N 0.44271 0.44986 0.35375 0.0
C101 C 0.43754 0.45353 0.44193 0.0
C102 C 0.38959 0.42985 0.38912 0.0
C103 C 0.45689 0.45881 0.39957 0.0
C104 C 0.43039 0.4426 0.58005 0.0
N105 N 0.41262 0.45779 0.58799 0.0
C106 C 0.4587 0.50296 0.62761 0.0
C107 C 0.42575 0.48689 0.61277 0.0
C108 C 0.47856 0.48926 0.61614 0.0
C109 C 0.46346 0.45791 0.59386 0.0
H110 H 0.41985 0.42013 0.5586 0.0
H111 H 0.41157 0.49906 0.61741 0.0
C112 C 0.37847 0.49943 0.37174 0.0
N113 N 0.39001 0.49697 0.41706 0.0
C114 C 0.40039 0.5189 0.33479 0.0
C115 C 0.44466 0.53546 0.39428 0.0
C116 C 0.42203 0.51563 0.42976 0.0
C117 C 0.43399 0.53584 0.34564 0.0
H118 H 0.35267 0.48517 0.36354 0.0
H119 H 0.43018 0.51329 0.46653 0.0
C120 C 0.30274 0.38696 0.58199 0.0
N121 N 0.24832 0.3495 0.64039 0.0
C122 C 0.27385 0.36256 0.56019 0.0
C123 C 0.30412 0.39217 0.63348 0.0
C124 C 0.24654 0.34394 0.59036 0.0
C125 C 0.27629 0.37298 0.66238 0.0
C126 C 0.29459 0.41816 0.41747 0.0
C127 C 0.26238 0.40191 0.43556 0.0
C128 C 0.29989 0.41909 0.36596 0.0
C129 C 0.23623 0.38782 0.40196 0.0
C130 C 0.27309 0.40449 0.33358 0.0
N131 N 0.24207 0.38939 0.35208 0.0
C132 C 0.28676 0.46835 0.50068 0.0
C133 C 0.26077 0.43017 0.56621 0.0
C134 C 0.25829 0.46936 0.4907 0.0
N135 N 0.28703 0.44775 0.53607 0.0
C136 C 0.2316 0.43055 0.55761 0.0
C137 C 0.22975 0.44911 0.5177 0.0
H138 H 0.30779 0.48156 0.47662 0.0
H139 H 0.26146 0.41411 0.59427 0.0
C140 C 0.34738 0.35682 0.43347 0.0
N141 N 0.32307 0.36376 0.44282 0.0
C142 C 0.34674 0.34041 0.38967 0.0
C143 C 0.29428 0.335 0.36936 0.0
C144 C 0.29529 0.35019 0.41467 0.0
C145 C 0.3213 0.33198 0.3551 0.0
H146 H 0.36916 0.36757 0.4565 0.0
H147 H 0.27528 0.35404 0.42435 0.0
O148 O 0.36692 0.48124 0.53043 0.0
O149 O 0.38412 0.43468 0.47712 0.0
O150 O 0.32985 0.40499 0.55323 0.0
O151 O 0.32069 0.43272 0.44979 0.0
H152 H 0.37019 0.53606 0.49875 0.0
H153 H 0.34568 0.47039 0.62368 0.0
H154 H 0.35469 0.57065 0.54918 0.0
H155 H 0.33062 0.50608 0.67194 0.0
H156 H 0.39906 0.42848 0.31104 0.0
H157 H 0.4489 0.46107 0.47824 0.0
H158 H 0.36341 0.41869 0.38423 0.0
H159 H 0.48317 0.47016 0.40309 0.0
H160 H 0.46893 0.52681 0.64515 0.0
H161 H 0.47756 0.44642 0.58305 0.0
H162 H 0.39148 0.51914 0.29759 0.0
H163 H 0.47036 0.54918 0.40402 0.0
H164 H 0.27253 0.35813 0.52041 0.0
H165 H 0.32645 0.41077 0.6509 0.0
H166 H 0.22395 0.32507 0.574 0.0
H167 H 0.27693 0.37676 0.70228 0.0
H168 H 0.25744 0.39929 0.47506 0.0
H169 H 0.32439 0.43042 0.35087 0.0
H170 H 0.21128 0.37532 0.41561 0.0
H171 H 0.27696 0.40505 0.29372 0.0
H172 H 0.25812 0.4839 0.45949 0.0
H173 H 0.21036 0.41527 0.58034 0.0
H174 H 0.36777 0.33795 0.38033 0.0
H175 H 0.27388 0.32812 0.34412 0.0
Li176 Li 0.90172 0.37228 0.80822 0.0
Li177 Li 0.93157 0.37805 0.89005 0.0
Li178 Li 0.93728 0.34641 0.81544 0.0
Li179 Li 0.88639 0.32473 0.8614 0.0
C180 C 0.97598 0.4157 0.79361 0.0
N181 N 0.02964 0.4608 0.73954 0.0
C182 C 0.00741 0.43012 0.8143 0.0
C183 C 0.97196 0.42432 0.74523 0.0
C184 C 0.03422 0.45272 0.78635 0.0
C185 C -0.00066 0.44727 0.71868 0.0
C186 C 0.8605 0.36277 0.90651 0.0
C187 C 0.83102 0.34733 0.98443 0.0
N188 N 0.81004 0.35689 0.96633 0.0
C189 C 0.83876 0.3726 0.88871 0.0
C190 C 0.85673 0.35016 0.95478 0.0
C191 C 0.81336 0.36937 0.91952 0.0
C192 C 0.86978 0.38344 0.72562 0.0
N193 N 0.8888 0.39593 0.76697 0.0
C194 C 0.90475 0.45042 0.74258 0.0
C195 C 0.9045 0.42846 0.77746 0.0
C196 C 0.88879 0.43852 0.69669 0.0
C197 C 0.86957 0.4046 0.68933 0.0
H198 H 0.85666 0.35734 0.71901 0.0
H199 H 0.91915 0.43747 0.811 0.0
C200 C 0.9864 0.42865 0.94279 0.0
N201 N 0.95334 0.41346 0.93731 0.0
C202 C 0.00404 0.4619 0.95595 0.0
C203 C 0.95288 0.46131 0.96693 0.0
C204 C 0.93638 0.42856 0.95171 0.0
C205 C 0.98731 0.47936 0.96524 0.0
H206 H -0.00063 0.41599 0.93222 0.0
H207 H 0.91019 0.41641 0.94704 0.0
C208 C 0.88349 0.31941 0.74096 0.0
N209 N 0.86484 0.30092 0.6431 0.0
C210 C 0.853 0.29213 0.73024 0.0
C211 C 0.90457 0.33718 0.70184 0.0
C212 C 0.844 0.28321 0.68055 0.0
C213 C 0.89466 0.32747 0.65264 0.0
C214 C 0.92614 0.30757 0.9141 0.0
C215 C 0.93548 0.28617 0.89329 0.0
C216 C 0.9123 0.30137 0.96176 0.0
C217 C 0.93011 0.25845 0.92016 0.0
C218 C 0.90728 0.27335 0.9874 0.0
N219 N 0.91619 0.25264 0.96622 0.0
C220 C 0.99342 0.35475 0.76068 0.0
C221 C 0.94391 0.30494 0.74774 0.0
C222 C 0.00634 0.35007 0.7166 0.0
N223 N 0.96189 0.33345 0.7734 0.0
C224 C 0.95548 0.29974 0.70258 0.0
C225 C 0.98641 0.3235 0.68523 0.0
H226 H 0.00767 0.37668 0.78228 0.0
H227 H 0.91912 0.28792 0.75937 0.0
C228 C 0.81964 0.28523 0.8618 0.0
N229 N 0.84755 0.28404 0.86995 0.0
C230 C 0.79086 0.25716 0.8483 0.0
C231 C 0.81957 0.22653 0.85249 0.0
C232 C 0.84797 0.25539 0.86597 0.0
C233 C 0.79077 0.22748 0.84223 0.0
H234 H 0.82024 0.30839 0.86063 0.0
H235 H 0.87073 0.25524 0.8691 0.0
O236 O 0.94933 0.39375 0.82083 0.0
O237 O 0.8854 0.36567 0.87668 0.0
O238 O 0.89264 0.3284 0.78953 0.0
O239 O 0.93153 0.33498 0.88851 0.0
H240 H 0.01132 0.42323 0.85088 0.0
H241 H 0.94802 0.41365 0.72824 0.0
H242 H 0.05869 0.46378 0.8018 0.0
H243 H 0.99648 0.45462 0.6817 0.0
H244 H 0.82776 0.33755 0.02185 0.0
H245 H 0.84143 0.38247 0.85142 0.0
H246 H 0.87349 0.34271 0.96917 0.0
H247 H 0.79628 0.37677 0.90621 0.0
H248 H 0.91933 0.47651 0.74975 0.0
H249 H 0.85682 0.39467 0.65443 0.0
H250 H 0.0305 0.47416 0.95423 0.0
H251 H 0.9386 0.47293 0.97586 0.0
H252 H 0.83645 0.27795 0.75992 0.0
H253 H 0.92843 0.358 0.70941 0.0
H254 H 0.82046 0.26217 0.67176 0.0
H255 H 0.91071 0.34095 0.62202 0.0
H256 H 0.94663 0.29084 0.85671 0.0
H257 H 0.90561 0.31804 0.97885 0.0
H258 H 0.93702 0.24156 0.90439 0.0
H259 H 0.89642 0.26815 0.02422 0.0
H260 H 0.03043 0.3689 0.70482 0.0
H261 H 0.9395 0.2788 0.67972 0.0
H262 H 0.76948 0.25924 0.83949 0.0
H263 H 0.82045 0.20406 0.84844 0.0
Li264 Li 0.52314 0.89828 0.14221 0.0
Li265 Li 0.54785 0.92698 0.22433 0.0
Li266 Li 0.58472 0.92755 0.15291 0.0
Li267 Li 0.5491 0.87822 0.19809 0.0
C268 C 0.55915 0.9668 0.11638 0.0
N269 N 0.57006 0.00945 0.03827 0.0
C270 C 0.56549 -0.00131 0.12582 0.0
C271 C 0.5584 0.95665 0.06712 0.0
C272 C 0.5711 0.01993 0.08585 0.0
C273 C 0.56369 0.97847 0.02817 0.0
C274 C 0.49128 0.8557 0.23933 0.0
C275 C 0.48271 0.82496 0.31526 0.0
N276 N 0.45485 0.79985 0.29552 0.0
C277 C 0.4625 0.82971 0.21985 0.0
C278 C 0.50144 0.85346 0.28747 0.0
C279 C 0.44444 0.80163 0.24884 0.0
C280 C 0.477 0.86427 0.0649 0.0
N281 N 0.48955 0.88997 0.09724 0.0
C282 C 0.4615 0.91381 0.05674 0.0
C283 C 0.48095 0.91355 0.09544 0.0
C284 C 0.45024 0.88907 0.02054 0.0
C285 C 0.45693 0.86328 0.02571 0.0
H286 H 0.48384 0.84552 0.06814 0.0
H287 H 0.49079 0.93317 0.12255 0.0
C288 C 0.55736 0.98626 0.26469 0.0
N289 N 0.53892 0.95319 0.26921 0.0
C290 C 0.5444 0.00628 0.27821 0.0
C291 C 0.4953 0.95816 0.30641 0.0
C292 C 0.50901 0.93902 0.29158 0.0
C293 C 0.51217 0.99212 0.29697 0.0
H294 H 0.58071 0.99681 0.24568 0.0
H295 H 0.49441 0.91261 0.29366 0.0
C296 C 0.56187 0.86762 0.09085 0.0
N297 N 0.57706 0.83396 0.02078 0.0
C298 C 0.58 0.85255 0.10454 0.0
C299 C 0.55205 0.866 0.04117 0.0
C300 C 0.5872 0.83547 0.06872 0.0
C301 C 0.55989 0.84883 0.00638 0.0
C302 C 0.60753 0.91267 0.25095 0.0
C303 C 0.63022 0.90761 0.22444 0.0
C304 C 0.60642 0.91043 0.30298 0.0
C305 C 0.65125 0.89992 0.25055 0.0
C306 C 0.62791 0.90275 0.32771 0.0
N307 N 0.64966 0.89766 0.3012 0.0
C308 C 0.63363 0.9856 0.10687 0.0
C309 C 0.63156 0.93687 0.07898 0.0
C310 C 0.64746 0.00102 0.06158 0.0
N311 N 0.62325 0.95315 0.11268 0.0
C312 C 0.64449 0.95094 0.03273 0.0
C313 C 0.65047 0.98263 0.02275 0.0
H314 H 0.62737 -0.00167 0.13452 0.0
H315 H 0.6252 0.91189 0.08553 0.0
C316 C 0.5213 0.81343 0.17853 0.0
N317 N 0.54318 0.83559 0.21133 0.0
C318 C 0.5214 0.78446 0.16829 0.0
C319 C 0.56363 0.79948 0.23065 0.0
C320 C 0.56292 0.82846 0.23938 0.0
C321 C 0.54395 0.77793 0.19266 0.0
H322 H 0.50624 0.81993 0.15615 0.0
H323 H 0.57972 0.84599 0.26586 0.0
O324 O 0.55401 0.94574 0.15516 0.0
O325 O 0.50959 0.88313 0.21125 0.0
O326 O 0.55403 0.88411 0.12556 0.0
O327 O 0.58706 0.92064 0.2262 0.0
H328 H 0.56628 0.00708 0.16357 0.0
H329 H 0.55379 0.93219 0.05907 0.0
H330 H 0.57619 0.04472 0.09264 0.0
H331 H 0.56263 0.97076 0.9899 0.0
H332 H 0.49034 0.82278 0.35247 0.0
H333 H 0.45438 0.83115 0.18259 0.0
H334 H 0.52373 0.87341 0.30294 0.0
H335 H 0.42219 0.78124 0.2342 0.0
H336 H 0.45623 0.93374 0.05404 0.0
H337 H 0.44826 0.84372 0.99842 0.0
H338 H 0.55845 0.03213 0.26936 0.0
H339 H 0.47074 0.94607 0.32165 0.0
H340 H 0.58905 0.85455 0.14217 0.0
H341 H 0.53874 0.87807 0.02934 0.0
H342 H 0.60105 0.82362 0.07898 0.0
H343 H 0.55235 0.84737 0.96788 0.0
H344 H 0.63148 0.90948 0.18418 0.0
H345 H 0.58909 0.91451 0.32396 0.0
H346 H 0.66883 0.89575 0.23055 0.0
H347 H 0.62729 0.90081 0.36797 0.0
H348 H 0.65195 0.02563 0.05502 0.0
H349 H 0.64702 0.93628 0.00375 0.0
H350 H 0.50582 0.76884 0.13866 0.0
H351 H 0.58054 0.79484 0.25176 0.0
Li352 Li 0.655 0.59372 0.48326 0.0
Li353 Li 0.66999 0.55814 0.52686 0.0
Li354 Li 0.62478 0.53263 0.47066 0.0
Li355 Li 0.61835 0.55379 0.55388 0.0
C356 C 0.6842 0.57246 0.40897 0.0
N357 N 0.7131 0.58795 0.31568 0.0
C358 C 0.71754 0.58277 0.40361 0.0
C359 C 0.66578 0.57057 0.36692 0.0
C360 C 0.73169 0.59053 0.35617 0.0
C361 C 0.6807 0.57812 0.32004 0.0
C362 C 0.69002 0.61235 0.5868 0.0
C363 C 0.7157 0.62523 0.66783 0.0
N364 N 0.74348 0.64981 0.64705 0.0
C365 C 0.71872 0.63784 0.56624 0.0
C366 C 0.68835 0.60605 0.63799 0.0
C367 C 0.74553 0.65647 0.59735 0.0
C368 C 0.64728 0.64308 0.4349 0.0
N369 N 0.66947 0.63353 0.44595 0.0
C370 C 0.70155 0.66154 0.3744 0.0
C371 C 0.69782 0.64516 0.41957 0.0
C372 C 0.67644 0.66714 0.35792 0.0
C373 C 0.65034 0.66011 0.39067 0.0
H374 H 0.62509 0.63384 0.45676 0.0
H375 H 0.71583 0.63847 0.43039 0.0
C376 C 0.70789 0.53287 0.50237 0.0
N377 N 0.70758 0.55359 0.53749 0.0
C378 C 0.73635 0.5318 0.49259 0.0
C379 C 0.76329 0.57142 0.55844 0.0
C380 C 0.73413 0.57184 0.56682 0.0
C381 C 0.76496 0.55218 0.51944 0.0
H382 H 0.68662 0.51904 0.47897 0.0
H383 H 0.73342 0.5879 0.59485 0.0
C384 C 0.58025 0.55646 0.4568 0.0
N385 N 0.52645 0.54771 0.40257 0.0
C386 C 0.54862 0.53745 0.47599 0.0
C387 C 0.58431 0.57028 0.40931 0.0
C388 C 0.52181 0.53361 0.44832 0.0
C389 C 0.55685 0.5657 0.38258 0.0
C390 C 0.63623 0.49848 0.56338 0.0
C391 C 0.63464 0.47107 0.54027 0.0
C392 C 0.64804 0.50656 0.61218 0.0
C393 C 0.6453 0.45233 0.56632 0.0
C394 C 0.65848 0.48721 0.63695 0.0
N395 N 0.65693 0.46074 0.61369 0.0
C396 C 0.61346 0.49321 0.38358 0.0
C397 C 0.568 0.48133 0.43536 0.0
C398 C 0.5927 0.47279 0.34623 0.0
N399 N 0.60055 0.4987 0.42542 0.0
C400 C 0.54641 0.4606 0.3994 0.0
C401 C 0.55874 0.45766 0.35327 0.0
H402 H 0.63966 0.50581 0.37807 0.0
H403 H 0.55876 0.48482 0.47035 0.0
C404 C 0.56566 0.55873 0.59747 0.0
N405 N 0.58205 0.54168 0.59845 0.0
C406 C 0.532 0.5428 0.60812 0.0
C407 C 0.53395 0.49358 0.62705 0.0
C408 C 0.56737 0.5103 0.61556 0.0
C409 C 0.51521 0.50907 0.61996 0.0
H410 H 0.57749 0.58325 0.58206 0.0
H411 H 0.58063 0.497 0.61523 0.0
O412 O 0.66987 0.56463 0.45521 0.0
O413 O 0.6633 0.59439 0.55721 0.0
O414 O 0.60701 0.56252 0.48514 0.0
O415 O 0.62645 0.51744 0.53821 0.0
H416 H 0.7325 0.58532 0.43579 0.0
H417 H 0.64006 0.56262 0.37038 0.0
H418 H 0.75745 0.59862 0.35155 0.0
H419 H 0.66651 0.57613 0.28712 0.0
H420 H 0.71483 0.62061 0.7075 0.0
H421 H 0.72027 0.64311 0.52672 0.0
H422 H 0.66614 0.58662 0.65447 0.0
H423 H 0.76797 0.67619 0.58197 0.0
H424 H 0.72231 0.66707 0.35067 0.0
H425 H 0.63042 0.66403 0.37956 0.0
H426 H 0.73638 0.51678 0.46197 0.0
H427 H 0.78455 0.58683 0.58109 0.0
H428 H 0.54465 0.52536 0.51157 0.0
H429 H 0.60836 0.58472 0.39329 0.0
H430 H 0.4973 0.51945 0.46325 0.0
H431 H 0.55972 0.57673 0.34619 0.0
H432 H 0.62551 0.46453 0.50249 0.0
H433 H 0.64936 0.5277 0.6305 0.0
H434 H 0.64438 0.43114 0.54885 0.0
H435 H 0.66786 0.49326 0.67464 0.0
H436 H 0.60296 0.47047 0.3113 0.0
H437 H 0.52031 0.44811 0.40665 0.0
H438 H 0.51886 0.55592 0.60163 0.0
H439 H 0.52245 0.46796 0.63739 0.0
Li440 Li 0.06263 0.65064 0.81647 0.0
Li441 Li 0.11302 0.6692 0.86362 0.0
Li442 Li 0.0959 0.62254 0.80879 0.0
Li443 Li 0.0666 0.61654 0.88963 0.0
C444 C 0.11377 0.6796 0.74404 0.0
N445 N 0.12641 0.70493 0.64837 0.0
C446 C 0.1398 0.7112 0.73516 0.0
C447 C 0.09405 0.66098 0.70424 0.0
C448 C 0.14577 0.72358 0.68656 0.0
C449 C 0.10094 0.67413 0.65613 0.0
C450 C 0.07318 0.68677 0.91807 0.0
C451 C 0.08671 0.71603 0.99625 0.0
N452 N 0.08114 0.73917 0.97524 0.0
C453 C 0.06712 0.71057 0.89743 0.0
C454 C 0.08261 0.68924 0.96805 0.0
C455 C 0.07145 0.73697 0.92688 0.0
C456 C 0.00647 0.6411 0.76426 0.0
N457 N 0.03759 0.66391 0.77657 0.0
C458 C 0.0408 0.69761 0.7075 0.0
C459 C 0.0538 0.69294 0.75165 0.0
C460 C 0.01031 0.67268 0.69058 0.0
C461 C 0.99214 0.64515 0.72124 0.0
H462 H 0.99411 0.61829 0.78479 0.0
H463 H 0.07833 0.71099 0.7629 0.0
C464 C 0.17934 0.70595 0.85868 0.0
N465 N 0.15297 0.70836 0.87357 0.0
C466 C 0.20806 0.73371 0.84384 0.0
C467 C 0.1824 0.76628 0.86088 0.0
C468 C 0.15418 0.73785 0.87596 0.0
C469 C 0.20929 0.76409 0.84301 0.0
H470 H 0.17711 0.68218 0.8533 0.0
H471 H 0.13258 0.73914 0.88515 0.0
C472 C 0.03022 0.57378 0.79539 0.0
N473 N 0.99359 0.51479 0.74599 0.0
C474 C 0.02382 0.5443 0.81789 0.0
C475 C 0.01796 0.5731 0.74762 0.0
C476 C 0.00517 0.51478 0.79246 0.0
C477 C -0.00038 0.54311 0.72325 0.0
C478 C 0.13617 0.62975 0.90861 0.0
C479 C 0.15755 0.6188 0.89356 0.0
C480 C 0.13981 0.64391 0.95569 0.0
C481 C 0.18234 0.62226 0.92601 0.0
C482 C 0.1649 0.64694 0.98706 0.0
N483 N 0.18548 0.63615 0.97169 0.0
C484 C 0.12487 0.61293 0.72128 0.0
C485 C 0.09788 0.56795 0.77661 0.0
C486 C 0.12484 0.59242 0.68369 0.0
N487 N 0.10901 0.59985 0.76498 0.0
C488 C 0.09746 0.5466 0.74043 0.0
C489 C 0.10903 0.5586 0.69241 0.0
H490 H 0.13581 0.63884 0.71424 0.0
H491 H 0.08731 0.55872 0.81289 0.0
C492 C 0.00883 0.56588 0.92963 0.0
N493 N 0.04185 0.58179 0.93581 0.0
C494 C 0.98993 0.53294 0.9433 0.0
C495 C 0.03867 0.53474 0.97587 0.0
C496 C 0.05676 0.56751 0.96061 0.0
C497 C 0.00508 0.5162 0.96418 0.0
H498 H -0.00225 0.57741 0.90835 0.0
H499 H 0.0831 0.58034 0.96435 0.0
O500 O 0.10736 0.66725 0.79157 0.0
O501 O 0.06861 0.66054 0.88997 0.0
O502 O 0.04763 0.60294 0.82043 0.0
O503 O 0.11198 0.62678 0.87706 0.0
H504 H 0.15518 0.72607 0.76547 0.0
H505 H 0.07395 0.63651 0.71042 0.0
H506 H 0.16583 0.74802 0.6792 0.0
H507 H 0.08608 0.65983 0.62497 0.0
H508 H 0.09417 0.71836 0.03492 0.0
H509 H 0.05935 0.70879 0.85902 0.0
H510 H 0.08646 0.67056 0.98502 0.0
H511 H 0.06711 0.75571 0.91129 0.0
H512 H 0.05545 0.71919 0.68497 0.0
H513 H 0.9686 0.62527 0.70938 0.0
H514 H 0.22824 0.73108 0.8298 0.0
H515 H 0.18269 0.78948 0.86118 0.0
H516 H 0.03361 0.54415 0.85426 0.0
H517 H 0.02228 0.59538 0.72945 0.0
H518 H -6e-05 0.49187 0.80969 0.0
H519 H 0.99003 0.54241 0.68638 0.0
H520 H 0.15505 0.60783 0.85713 0.0
H521 H 0.12348 0.65251 0.96777 0.0
H522 H 0.1991 0.61393 0.91486 0.0
H523 H 0.16804 0.6579 0.02361 0.0
H524 H 0.13463 0.60251 0.64725 0.0
H525 H 0.0862 0.52071 0.74875 0.0
H526 H 0.96438 0.52019 0.93255 0.0
H527 H 0.05148 0.52353 0.99317 0.0
Li528 Li 0.89674 0.56138 0.48102 0.0
Li529 Li 0.95147 0.59911 0.51401 0.0
Li530 Li 0.94208 0.55701 0.44465 0.0
Li531 Li 0.92389 0.53898 0.52838 0.0
C532 C 0.91898 0.60514 0.41051 0.0
N533 N 0.88301 0.6211 0.34652 0.0
C534 C 0.92038 0.63545 0.41478 0.0
C535 C 0.89952 0.58303 0.37354 0.0
C536 C 0.90195 0.64304 0.3821 0.0
C537 C 0.88144 0.59154 0.3416 0.0
C538 C 0.89983 0.5615 0.59732 0.0
C539 C 0.91014 0.55791 0.68469 0.0
N540 N 0.87731 0.54005 0.69294 0.0
C541 C 0.86618 0.54325 0.60676 0.0
C542 C 0.92199 0.56913 0.6367 0.0
C543 C 0.85529 0.53264 0.65534 0.0
C544 C 0.828 0.53 0.47478 0.0
N545 N 0.85587 0.55951 0.47838 0.0
C546 C 0.82578 0.58507 0.5063 0.0
C547 C 0.85533 0.58681 0.49358 0.0
C548 C 0.79658 0.55473 0.50455 0.0
C549 C 0.79788 0.52704 0.48766 0.0
H550 H 0.8294 0.50841 0.46539 0.0
H551 H 0.87809 0.60955 0.49866 0.0
C552 C 0.00788 0.65575 0.55468 0.0
N553 N 0.97485 0.6399 0.54837 0.0
C554 C 0.02134 0.67188 0.5998 0.0
C555 C 0.96736 0.65993 0.62613 0.0
C556 C 0.95509 0.64451 0.58044 0.0
C557 C 0.00031 0.67118 0.63777 0.0
H558 H 0.023 0.65148 0.52875 0.0
H559 H 0.92894 0.63205 0.574 0.0
C560 C 0.89192 0.49048 0.45376 0.0
N561 N 0.87981 0.42857 0.42739 0.0
C562 C 0.91461 0.48055 0.46538 0.0
C563 C 0.86303 0.46891 0.42867 0.0
C564 C 0.90805 0.44915 0.45178 0.0
C565 C 0.85736 0.43773 0.41566 0.0
C566 C 0.99367 0.56666 0.53331 0.0
C567 C 0.0047 0.54535 0.5179 0.0
C568 C 0.00673 0.58515 0.57683 0.0
C569 C 0.02823 0.54278 0.54643 0.0
C570 C 0.0308 0.58249 0.60356 0.0
N571 N 0.04084 0.56137 0.5881 0.0
C572 C 0.99482 0.5589 0.39404 0.0
C573 C 0.94334 0.519 0.36201 0.0
C574 C 0.00961 0.54177 0.37487 0.0
N575 N 0.96184 0.54593 0.39065 0.0
C576 C 0.95699 0.50066 0.34312 0.0
C577 C 0.99009 0.51082 0.35278 0.0
H578 H 0.009 0.58026 0.41715 0.0
H579 H 0.91722 0.50944 0.35899 0.0
C580 C 0.88215 0.48318 0.58402 0.0
N581 N 0.9143 0.50601 0.57745 0.0
C582 C 0.87274 0.46038 0.6228 0.0
C583 C 0.9298 0.48401 0.64535 0.0
C584 C 0.93797 0.50641 0.6069 0.0
C585 C 0.89686 0.46133 0.65458 0.0
H586 H 0.86374 0.48337 0.56002 0.0
H587 H 0.96319 0.52417 0.6016 0.0
O588 O 0.93633 0.59697 0.44263 0.0
O589 O 0.91103 0.57104 0.54962 0.0
O590 O 0.89783 0.52113 0.4667 0.0
O591 O 0.97004 0.56911 0.50656 0.0
H592 H 0.93534 0.65277 0.44332 0.0
H593 H 0.89819 0.55945 0.36992 0.0
H594 H 0.90264 0.66633 0.38507 0.0
H595 H 0.86613 0.57462 0.31296 0.0
H596 H 0.92706 0.56328 0.71534 0.0
H597 H 0.84861 0.53695 0.57689 0.0
H598 H 0.94806 0.58315 0.63021 0.0
H599 H 0.82932 0.51834 0.66308 0.0
H600 H 0.82595 0.60715 0.5183 0.0
H601 H 0.77613 0.50305 0.48649 0.0
H602 H 0.04696 0.68048 0.60734 0.0
H603 H 0.95053 0.65936 0.65422 0.0
H604 H 0.93711 0.49712 0.48428 0.0
H605 H 0.84531 0.47626 0.41881 0.0
H606 H 0.92543 0.44115 0.46033 0.0
H607 H 0.83516 0.42084 0.39612 0.0
H608 H 0.99481 0.53038 0.48492 0.0
H609 H -0.0023 0.60056 0.59096 0.0
H610 H 0.03636 0.52588 0.53565 0.0
H611 H 0.04102 0.59671 0.63715 0.0
H612 H 0.03521 0.55076 0.38304 0.0
H613 H 0.94114 0.47725 0.32551 0.0
H614 H 0.84706 0.44282 0.62855 0.0
H615 H 0.94914 0.48434 0.6677 0.0
Li616 Li 0.3782 0.94252 0.77788 0.0
Li617 Li 0.37547 0.9145 0.85953 0.0
Li618 Li 0.32865 0.8948 0.80601 0.0
Li619 Li 0.34371 0.94505 0.84985 0.0
C620 C 0.36446 0.87136 0.76339 0.0
N621 N 0.34851 0.81579 0.70813 0.0
C622 C 0.37304 0.84856 0.78061 0.0
C623 C 0.34798 0.86604 0.71793 0.0
C624 C 0.3647 0.82058 0.75215 0.0
C625 C 0.34007 0.83775 0.69059 0.0
C626 C 0.40654 0.98168 0.88831 0.0
C627 C 0.40903 0.98923 0.97768 0.0
N628 N 0.43236 0.02117 0.9715 0.0
C629 C 0.43069 0.01457 0.88299 0.0
C630 C 0.39553 0.96894 0.93611 0.0
C631 C 0.44332 0.03414 0.92544 0.0
C632 C 0.4315 -0.00108 0.73734 0.0
N633 N 0.41204 0.96619 0.72985 0.0
C634 C 0.45434 0.96419 0.68294 0.0
C635 C 0.42224 0.94906 0.70119 0.0
C636 C 0.47622 0.99715 0.69479 0.0
C637 C 0.46382 0.01501 0.71997 0.0
H638 H 0.42308 0.0118 0.76116 0.0
H639 H 0.40671 0.92295 0.69655 0.0
C640 C 0.38507 0.87341 0.92591 0.0
N641 N 0.39945 0.90299 0.90251 0.0
C642 C 0.4019 0.8673 0.96349 0.0
C643 C 0.44866 0.92113 0.94853 0.0
C644 C 0.43109 0.92602 0.91118 0.0
C645 C 0.43357 0.89198 0.9762 0.0
H646 H 0.36009 0.85523 0.91697 0.0
H647 H 0.44212 0.94873 0.89047 0.0
C648 C 0.30424 0.92825 0.7526 0.0
N649 N 0.24669 0.912 0.70285 0.0
C650 C 0.27767 0.9266 0.77852 0.0
C651 C 0.30172 0.92198 0.70134 0.0
C652 C 0.24874 0.91825 0.7527 0.0
C653 C 0.27235 0.9137 0.67688 0.0
C654 C 0.30684 0.88261 0.91133 0.0
C655 C 0.2738 0.86956 0.89857 0.0
C656 C 0.31492 0.8758 0.95836 0.0
C657 C 0.24953 0.84914 0.93224 0.0
C658 C 0.28994 0.85533 0.99108 0.0
N659 N 0.25803 0.84244 0.9774 0.0
C660 C 0.29636 0.83045 0.82482 0.0
C661 C 0.26267 0.84394 0.77586 0.0
C662 C 0.26959 0.80068 0.8385 0.0
N663 N 0.29232 0.85196 0.79584 0.0
C664 C 0.23498 0.81441 0.78923 0.0
C665 C 0.23829 0.79316 0.82263 0.0
H666 H 0.31986 0.83792 0.84185 0.0
H667 H 0.25981 0.86131 0.75331 0.0
C668 C 0.35237 0.00315 0.89745 0.0
N669 N 0.33085 0.97069 0.89059 0.0
C670 C 0.35281 0.01808 0.94283 0.0
C671 C 0.30571 0.9675 0.9694 0.0
C672 C 0.30591 0.95385 0.92333 0.0
C673 C 0.33075 -0.00077 0.98067 0.0
H674 H 0.37165 0.01632 0.87054 0.0
H675 H 0.28801 0.92878 0.91614 0.0
O676 O 0.37202 0.89866 0.79113 0.0
O677 O 0.3928 0.96256 0.84687 0.0
O678 O 0.33295 0.93704 0.77697 0.0
O679 O 0.33119 0.90212 0.87837 0.0
H680 H 0.38584 0.85238 0.81573 0.0
H681 H 0.34117 0.88348 0.70418 0.0
H682 H 0.37107 0.80265 0.76509 0.0
H683 H 0.32718 0.83323 0.65546 0.0
H684 H 0.40077 0.97967 0.01482 0.0
H685 H 0.43922 0.02508 0.84643 0.0
H686 H 0.37655 0.94375 0.94113 0.0
H687 H 0.46169 0.0597 0.92172 0.0
H688 H 0.46267 0.94953 0.66333 0.0
H689 H 0.47972 0.0403 0.73081 0.0
H690 H 0.3898 0.84444 0.98403 0.0
H691 H 0.4734 0.94027 0.95692 0.0
H692 H 0.27936 0.93162 0.81812 0.0
H693 H 0.32224 0.92357 0.6807 0.0
H694 H 0.22791 0.91671 0.77228 0.0
H695 H 0.26997 0.90867 0.63724 0.0
H696 H 0.26694 0.87571 0.86343 0.0
H697 H 0.3402 0.88646 0.96985 0.0
H698 H 0.22393 0.8388 0.9226 0.0
H699 H 0.29594 0.84978 0.02746 0.0
H700 H 0.27306 0.78496 0.86439 0.0
H701 H 0.21112 0.80892 0.77547 0.0
H702 H 0.37255 0.04272 0.95026 0.0
H703 H 0.28799 0.95246 0.99744 0.0
Li704 Li 0.45965 0.38649 0.18664 0.0
Li705 Li 0.43864 0.38602 0.10154 0.0
Li706 Li 0.3992 0.35249 0.17452 0.0
Li707 Li 0.43775 0.33804 0.1381 0.0
C708 C 0.43683 0.43248 0.17668 0.0
N709 N 0.45599 0.49694 0.19845 0.0
C710 C 0.46666 0.45768 0.15885 0.0
C711 C 0.41695 0.44006 0.20611 0.0
C712 C 0.47566 0.49007 0.16978 0.0
C713 C 0.42711 0.4728 0.21689 0.0
C714 C 0.49472 0.37104 0.09583 0.0
C715 C 0.49956 0.3403 0.02746 0.0
N716 N 0.53028 0.34872 0.04308 0.0
C717 C 0.52649 0.37972 0.11083 0.0
C718 C 0.48128 0.35149 0.05346 0.0
C719 C 0.54402 0.36807 0.08379 0.0
C720 C 0.51495 0.40276 0.24404 0.0
N721 N 0.49178 0.4114 0.23504 0.0
C722 C 0.51216 0.45036 0.30115 0.0
C723 C 0.48991 0.43455 0.26295 0.0
C724 C 0.53608 0.44172 0.31151 0.0
C725 C 0.53779 0.41797 0.28217 0.0
H726 H 0.51493 0.38326 0.22271 0.0
H727 H 0.47047 0.43997 0.25731 0.0
C728 C 0.4371 0.43861 0.05039 0.0
N729 N 0.45005 0.41838 0.04917 0.0
C730 C 0.45564 0.4711 0.0337 0.0
C731 C 0.49806 0.45969 0.00783 0.0
C732 C 0.47887 0.42758 0.02526 0.0
C733 C 0.4877 0.48272 0.01556 0.0
H734 H 0.41452 0.43115 0.07048 0.0
H735 H 0.48894 0.4114 0.02471 0.0
C736 C 0.43213 0.34264 0.25948 0.0
N737 N 0.44005 0.34679 0.36198 0.0
C738 C 0.4421 0.32292 0.28435 0.0
C739 C 0.42565 0.36409 0.287 0.0
C740 C 0.44594 0.32536 0.33614 0.0
C741 C 0.43015 0.36607 0.33867 0.0
C742 C 0.38097 0.31119 0.07789 0.0
C743 C 0.35716 0.2838 0.1036 0.0
C744 C 0.38436 0.30945 0.02634 0.0
C745 C 0.33742 0.25484 0.07733 0.0
C746 C 0.36416 0.28004 0.00143 0.0
N747 N 0.34132 0.25358 0.02723 0.0
C748 C 0.34515 0.35388 0.22152 0.0
C749 C 0.35432 0.31025 0.24337 0.0
C750 C 0.3284 0.35012 0.26637 0.0
N751 N 0.3597 0.33561 0.21285 0.0
C752 C 0.33831 0.306 0.28891 0.0
C753 C 0.32695 0.32746 0.30205 0.0
H754 H 0.34941 0.37355 0.19631 0.0
H755 H 0.36616 0.29603 0.23559 0.0
C756 C 0.4663 0.30325 0.16832 0.0
N757 N 0.44392 0.30091 0.13407 0.0
C758 C 0.46886 0.27589 0.18101 0.0
C759 C 0.42742 0.24472 0.11929 0.0
C760 C 0.42548 0.27275 0.10809 0.0
C761 C 0.44839 0.24576 0.15768 0.0
H762 H 0.48074 0.32603 0.18822 0.0
H763 H 0.40839 0.27147 0.08019 0.0
O764 O 0.42758 0.40052 0.16667 0.0
O765 O 0.47692 0.3818 0.12216 0.0
O766 O 0.42974 0.34182 0.2084 0.0
O767 O 0.40016 0.33989 0.10274 0.0
H768 H 0.48272 0.45229 0.13686 0.0
H769 H 0.39417 0.42095 0.22118 0.0
H770 H 0.49813 0.50973 0.15514 0.0
H771 H 0.41209 0.47903 0.2399 0.0
H772 H 0.48931 0.32491 0.9949 0.0
H773 H 0.53766 0.39549 0.14271 0.0
H774 H 0.45685 0.3448 0.04113 0.0
H775 H 0.56858 0.3745 0.09509 0.0
H776 H 0.51053 0.46898 0.32272 0.0
H777 H 0.55586 0.4106 0.28961 0.0
H778 H 0.44638 0.48771 0.04049 0.0
H779 H 0.52214 0.46713 0.99283 0.0
H780 H 0.44677 0.30579 0.26411 0.0
H781 H 0.41788 0.37958 0.26853 0.0
H782 H 0.4537 0.31027 0.35579 0.0
H783 H 0.42568 0.38285 0.36032 0.0
H784 H 0.3541 0.28481 0.14341 0.0
H785 H 0.40235 0.33062 0.0058 0.0
H786 H 0.31902 0.23338 0.09677 0.0
H787 H 0.36658 0.27828 0.96157 0.0
H788 H 0.32004 0.36725 0.27533 0.0
H789 H 0.33764 0.28829 0.31547 0.0
H790 H 0.48541 0.278 0.21073 0.0
H791 H 0.41201 0.22228 0.09901 0.0
Li792 Li 0.05148 0.44043 0.44011 0.0
Li793 Li 0.0702 0.45803 0.52375 0.0
Li794 Li 0.09707 0.43612 0.47524 0.0
Li795 Li 0.0426 0.39792 0.50855 0.0
C796 C 0.10148 0.50684 0.44856 0.0
N797 N 0.11329 0.56858 0.42171 0.0
C798 C 0.07952 0.51731 0.46225 0.0
C799 C 0.12949 0.52779 0.42115 0.0
C800 C 0.08592 0.54861 0.4484 0.0
C801 C 0.13501 0.55889 0.40791 0.0
C802 C 0.00107 0.43103 0.5302 0.0
C803 C 0.96377 0.41478 0.60015 0.0
N804 N 0.95455 0.43674 0.58591 0.0
C805 C 0.9909 0.45324 0.51603 0.0
C806 C 0.98756 0.41193 0.57301 0.0
C807 C 0.96771 0.45602 0.54505 0.0
C808 C -0.00189 0.4387 0.39195 0.0
N809 N 0.03103 0.45166 0.38727 0.0
C810 C 0.03515 0.49709 0.34103 0.0
C811 C 0.04907 0.47866 0.35855 0.0
C812 C 0.00222 0.48691 0.35209 0.0
C813 C 0.98304 0.4559 0.37413 0.0
H814 H 0.9843 0.41728 0.41509 0.0
H815 H 0.07511 0.48818 0.35439 0.0
C816 C 0.11232 0.51463 0.57676 0.0
N817 N 0.08031 0.49069 0.57344 0.0
C818 C 0.1227 0.5376 0.61535 0.0
C819 C 0.06682 0.51154 0.645 0.0
C820 C 0.05765 0.48901 0.60646 0.0
C821 C 0.09975 0.53555 0.65051 0.0
H822 H 0.12995 0.51522 0.55026 0.0
H823 H 0.03261 0.47001 0.60401 0.0
C824 C 0.07511 0.39196 0.40623 0.0
N825 N 0.11202 0.37528 0.34559 0.0
C826 C 0.07356 0.36168 0.41209 0.0
C827 C 0.09517 0.41367 0.36934 0.0
C828 C 0.09248 0.35372 0.38109 0.0
C829 C 0.11372 0.40481 0.33911 0.0
C830 C 0.09449 0.43519 0.59159 0.0
C831 C 0.12808 0.4548 0.60057 0.0
C832 C 0.07249 0.42594 0.63148 0.0
C833 C 0.13907 0.46506 0.64923 0.0
C834 C 0.08445 0.43677 0.67958 0.0
N835 N 0.11721 0.45595 0.68739 0.0
C836 C 0.16569 0.46862 0.46893 0.0
C837 C 0.13946 0.41202 0.48892 0.0
C838 C 0.19599 0.47258 0.48318 0.0
N839 N 0.13826 0.43876 0.47256 0.0
C840 C 0.16924 0.41477 0.50304 0.0
C841 C 0.19794 0.44554 0.5015 0.0
H842 H 0.1637 0.48978 0.4587 0.0
H843 H 0.117 0.38901 0.49411 0.0
C844 C 0.98658 0.34133 0.54992 0.0
N845 N 0.01948 0.35686 0.54226 0.0
C846 C 0.9738 0.32511 0.59519 0.0
C847 C 0.02793 0.3359 0.61842 0.0
C848 C 0.03956 0.35165 0.57277 0.0
C849 C 0.99533 0.32517 0.6318 0.0
H850 H 0.9712 0.34603 0.52516 0.0
H851 H 0.06559 0.36393 0.5653 0.0
O852 O 0.09574 0.47629 0.46179 0.0
O853 O 0.02398 0.42797 0.50256 0.0
O854 O 0.05734 0.40051 0.43681 0.0
O855 O 0.08314 0.42588 0.54388 0.0
H856 H 0.05776 0.50127 0.48309 0.0
H857 H 0.1466 0.52001 0.40963 0.0
H858 H 0.06912 0.55703 0.45864 0.0
H859 H 0.15652 0.5753 0.38656 0.0
H860 H 0.95328 0.40015 0.6333 0.0
H861 H 0.00099 0.46853 0.48343 0.0
H862 H 0.99613 0.39598 0.58641 0.0
H863 H 0.9602 0.47353 0.53516 0.0
H864 H 0.05072 0.52054 0.32337 0.0
H865 H 0.95758 0.44689 0.38332 0.0
H866 H 0.1483 0.55617 0.61834 0.0
H867 H 0.04832 0.51027 0.6704 0.0
H868 H 0.05815 0.34467 0.44061 0.0
H869 H 0.09662 0.43724 0.3645 0.0
H870 H 0.0917 0.33045 0.38534 0.0
H871 H 0.12952 0.42143 0.31057 0.0
H872 H 0.1455 0.46245 0.57029 0.0
H873 H 0.04643 0.41092 0.62534 0.0
H874 H 0.16499 0.48041 0.65661 0.0
H875 H 0.0677 0.42998 0.7107 0.0
H876 H 0.21736 0.49685 0.482 0.0
H877 H 0.16962 0.39314 0.51603 0.0
H878 H 0.94843 0.31698 0.60401 0.0
H879 H 0.04514 0.3359 0.64533 0.0
Li880 Li 0.66316 0.10309 0.80012 0.0
Li881 Li 0.63829 0.05181 0.84436 0.0
Li882 Li 0.61089 0.06121 0.76725 0.0
Li883 Li 0.61575 0.08995 0.84831 0.0
C884 C 0.67933 0.06452 0.745 0.0
N885 N 0.73298 0.07489 0.68908 0.0
C886 C 0.70489 0.06202 0.76725 0.0
C887 C 0.68081 0.07184 0.69421 0.0
C888 C 0.73185 0.06742 0.73835 0.0
C889 C 0.70824 0.07718 0.66662 0.0
C890 C 0.66887 0.0989 0.9193 0.0
C891 C 0.65953 0.08569 0.00695 0.0
N892 N 0.69227 0.1043 0.01554 0.0
C893 C 0.70245 0.1179 0.92904 0.0
C894 C 0.64728 0.08251 0.95857 0.0
C895 C 0.71379 0.12027 0.97791 0.0
C896 C 0.70218 0.16361 0.82738 0.0
N897 N 0.70399 0.14207 0.79555 0.0
C898 C 0.76204 0.1762 0.78974 0.0
C899 C 0.73304 0.14794 0.77577 0.0
C900 C 0.76076 0.19809 0.82438 0.0
C901 C 0.73023 0.19176 0.84235 0.0
H902 H 0.67898 0.15768 0.84412 0.0
H903 H 0.73405 0.13033 0.75115 0.0
C904 C 0.62038 0.99411 0.89968 0.0
N905 N 0.64615 0.02332 0.88552 0.0
C906 C 0.62286 0.9783 0.94217 0.0
C907 C 0.6788 0.02195 0.95291 0.0
C908 C 0.67572 0.03609 0.90888 0.0
C909 C 0.65166 0.99345 0.97084 0.0
H910 H 0.59715 0.98451 0.88053 0.0
H911 H 0.69601 0.05906 0.89628 0.0
C912 C 0.63744 0.13632 0.75506 0.0
N913 N 0.66483 0.1953 0.70454 0.0
C914 C 0.63649 0.16313 0.77579 0.0
C915 C 0.65193 0.13935 0.70842 0.0
C916 C 0.65059 0.19279 0.74972 0.0
C917 C 0.66576 0.16942 0.68352 0.0
C918 C 0.56183 0.02877 0.85724 0.0
C919 C 0.53516 0.02623 0.83041 0.0
C920 C 0.55747 0.01861 0.90705 0.0
C921 C 0.50482 0.01404 0.85381 0.0
C922 C 0.5268 0.007 0.92943 0.0
N923 N 0.50134 0.00498 0.90256 0.0
C924 C 0.55954 0.0073 0.71908 0.0
C925 C 0.56635 0.05908 0.69644 0.0
C926 C 0.52643 0.99185 0.70562 0.0
N927 N 0.57806 0.04051 0.71718 0.0
C928 C 0.53338 0.04464 0.68256 0.0
C929 C 0.5124 0.01093 0.69063 0.0
H930 H 0.56906 0.9933 0.73753 0.0
H931 H 0.58126 0.0855 0.69665 0.0
C932 C 0.61113 0.12451 0.9312 0.0
N933 N 0.59571 0.10743 0.88937 0.0
C934 C 0.5934 0.12974 0.96806 0.0
C935 C 0.54601 0.10505 0.91382 0.0
C936 C 0.5647 0.10027 0.87821 0.0
C937 C 0.55989 0.11792 0.96059 0.0
H938 H 0.63665 0.13244 0.93736 0.0
H939 H 0.55395 0.08918 0.84282 0.0
O940 O 0.65236 0.05845 0.77233 0.0
O941 O 0.65735 0.09603 0.87148 0.0
O942 O 0.62408 0.1072 0.7803 0.0
O943 O 0.59195 0.04125 0.8349 0.0
H944 H 0.70391 0.05596 0.80636 0.0
H945 H 0.66086 0.0731 0.67621 0.0
H946 H 0.75188 0.06571 0.7551 0.0
H947 H 0.70979 0.08298 0.6273 0.0
H948 H 0.643 0.0734 0.03768 0.0
H949 H 0.71967 0.13029 0.89912 0.0
H950 H 0.62129 0.06792 0.95187 0.0
H951 H 0.73971 0.13478 0.9859 0.0
H952 H 0.78517 0.18057 0.77437 0.0
H953 H 0.72806 0.20757 0.86964 0.0
H954 H 0.60152 0.95613 0.95509 0.0
H955 H 0.70133 0.03418 0.97423 0.0
H956 H 0.62521 0.16109 0.81181 0.0
H957 H 0.6526 0.11875 0.69176 0.0
H958 H 0.65023 0.21381 0.76543 0.0
H959 H 0.67722 0.17219 0.6475 0.0
H960 H 0.538 0.03467 0.79243 0.0
H961 H 0.57748 0.01968 0.92829 0.0
H962 H 0.48415 0.0121 0.83324 0.0
H963 H 0.52312 -0.00057 0.96807 0.0
H964 H 0.51131 0.96588 0.71305 0.0
H965 H 0.52376 0.06021 0.67051 0.0
H966 H 0.6051 0.14043 0.00334 0.0
H967 H 0.52048 0.09686 0.90614 0.0
Li968 Li 0.60035 0.64415 0.17818 0.0
Li969 Li 0.56156 0.66051 0.14664 0.0
Li970 Li 0.54053 0.60907 0.19013 0.0
Li971 Li 0.56027 0.61256 0.10581 0.0
C972 C 0.559 0.65473 0.26195 0.0
N973 N 0.53477 0.65535 0.35586 0.0
C974 C 0.5354 0.6643 0.26803 0.0
C975 C 0.57058 0.64597 0.304 0.0
C976 C 0.52341 0.66437 0.31569 0.0
C977 C 0.55793 0.64626 0.35103 0.0
C978 C 0.60627 0.6854 0.07751 0.0
C979 C 0.59194 0.71052 0.01104 0.0
N980 N 0.6209 0.73877 0.01765 0.0
C981 C 0.63595 0.71458 0.08353 0.0
C982 C 0.58411 0.68321 0.04087 0.0
C983 C 0.64288 0.74133 0.05292 0.0
C984 C 0.65737 0.64652 0.22305 0.0
N985 N 0.64077 0.66281 0.21419 0.0
C986 C 0.66043 0.69303 0.29007 0.0
C987 C 0.64455 0.68781 0.2442 0.0
C988 C 0.67297 0.67269 0.30423 0.0
C989 C 0.67398 0.6513 0.26836 0.0
H990 H 0.65383 0.62663 0.19875 0.0
H991 H 0.6313 0.70059 0.23596 0.0
C992 C 0.52666 0.69493 0.14445 0.0
N993 N 0.55706 0.69833 0.14658 0.0
C994 C 0.52178 0.7207 0.15903 0.0
C995 C 0.57982 0.75338 0.17583 0.0
C996 C 0.58347 0.72681 0.16168 0.0
C997 C 0.5485 0.75027 0.1759 0.0
H998 H 0.50579 0.6714 0.13562 0.0
H999 H 0.60704 0.72829 0.16552 0.0
C1000 C 0.57494 0.57221 0.19518 0.0
N1001 N 0.58105 0.52592 0.25136 0.0
C1002 C 0.56372 0.54054 0.17664 0.0
C1003 C 0.58944 0.58015 0.24242 0.0
C1004 C 0.56672 0.51745 0.20565 0.0
C1005 C 0.59251 0.55659 0.27003 0.0
C1006 C 0.49297 0.59724 0.11121 0.0
C1007 C 0.47883 0.56389 0.12194 0.0
C1008 C 0.47589 0.6083 0.08164 0.0
C1009 C 0.44757 0.54209 0.10366 0.0
C1010 C 0.44475 0.58574 0.06383 0.0
N1011 N 0.43133 0.55338 0.0752 0.0
C1012 C 0.48217 0.59021 0.23888 0.0
C1013 C 0.50717 0.55947 0.2645 0.0
C1014 C 0.4574 0.57457 0.27411 0.0
N1015 N 0.50674 0.58294 0.23548 0.0
C1016 C 0.48298 0.54328 0.30015 0.0
C1017 C 0.45828 0.55143 0.30588 0.0
H1018 H 0.48234 0.60885 0.21504 0.0
H1019 H 0.52617 0.55329 0.26058 0.0
C1020 C 0.56197 0.56251 0.05226 0.0
N1021 N 0.54934 0.58289 0.04957 0.0
C1022 C 0.54357 0.53009 0.03562 0.0
C1023 C 0.50237 0.54212 0.0055 0.0
C1024 C 0.52187 0.57448 0.02222 0.0
C1025 C 0.51198 0.51874 0.01571 0.0
H1026 H 0.58409 0.56985 0.07359 0.0
H1027 H 0.5129 0.59153 0.01854 0.0
O1028 O 0.57031 0.65356 0.21517 0.0
O1029 O 0.59869 0.65916 0.1077 0.0
O1030 O 0.57229 0.59527 0.16698 0.0
O1031 O 0.52349 0.61895 0.12911 0.0
H1032 H 0.52585 0.67094 0.23629 0.0
H1033 H 0.58917 0.63906 0.30071 0.0
H1034 H 0.50491 0.67141 0.32069 0.0
H1035 H 0.56654 0.63927 0.3837 0.0
H1036 H 0.57497 0.70928 0.9827 0.0
H1037 H 0.65329 0.71659 0.11186 0.0
H1038 H 0.56099 0.66075 0.03592 0.0
H1039 H 0.66568 0.76415 0.05729 0.0
H1040 H 0.65955 0.71009 0.31636 0.0
H1041 H 0.68364 0.63535 0.27765 0.0
H1042 H 0.4971 0.71686 0.15928 0.0
H1043 H 0.60128 0.77584 0.18756 0.0
H1044 H 0.55251 0.53355 0.14043 0.0
H1045 H 0.59781 0.60406 0.25803 0.0
H1046 H 0.55772 0.49282 0.19174 0.0
H1047 H 0.60382 0.56265 0.30642 0.0
H1048 H 0.49213 0.55516 0.14392 0.0
H1049 H 0.48678 0.63389 0.07162 0.0
H1050 H 0.43626 0.5162 0.11186 0.0
H1051 H 0.43132 0.59394 0.04078 0.0
H1052 H 0.43844 0.58115 0.2775 0.0
H1053 H 0.48354 0.52458 0.32309 0.0
H1054 H 0.55245 0.51335 0.04418 0.0
H1055 H 0.47878 0.53492 0.98875 0.0
loop_
_geom_bond_atom_site_label_1
_geom_bond_atom_site_label_2
_geom_bond_distance
_geom_bond_site_symmetry_2
_ccdc_geom_bond_type
Li0 N17 1.990 . S
Li0 O60 1.956 . S
Li0 O61 1.970 . S
Li0 O62 1.961 . S
Li1 N25 1.990 . S
Li1 O60 1.970 . S
Li1 O61 1.956 . S
Li1 O63 1.961 . S
Li2 N47 1.990 . S
Li2 O60 1.961 . S
Li2 O62 1.956 . S
Li2 O63 1.970 . S
Li3 N53 1.990 . S
Li3 O61 1.961 . S
Li3 O62 1.970 . S
Li3 O63 1.956 . S
C4 C6 1.348 . S
C4 C7 1.356 . S
C4 O60 1.325 . S
N5 C8 1.314 1_556 S
N5 C9 1.279 . S
C6 C4 1.348 . S
C6 C8 1.353 . S
C6 H64 0.929 . S
C7 C4 1.356 . S
C7 C9 1.358 1_554 S
C7 H65 0.930 . S
C8 N5 1.314 1_554 S
C8 C6 1.353 . S
C8 H66 0.930 . S
C9 N5 1.279 . S
C9 C7 1.358 1_556 S
C9 H67 0.930 . S
C10 C13 1.348 . S
C10 C14 1.356 . S
C10 O61 1.325 . S
C11 N12 1.279 . S
C11 C14 1.358 . S
C11 H68 0.930 . S
N12 C11 1.279 . S
N12 C15 1.314 . S
C13 C10 1.348 . S
C13 C15 1.353 . S
C13 H69 0.929 . S
C14 C10 1.356 . S
C14 C11 1.358 . S
C14 H70 0.930 . S
C15 N12 1.314 . S
C15 C13 1.353 . S
C15 H71 0.930 . S
C16 N17 1.314 1_565 S
C16 C21 1.353 . S
C16 H22 0.930 . S
N17 Li0 1.990 . S
N17 C16 1.314 1_545 S
N17 C19 1.279 . S
C18 C19 1.358 . S
C18 C20 1.356 1_545 S
C18 H72 0.930 . S
C19 N17 1.279 . S
C19 C18 1.358 . S
C19 H23 0.930 . S
C20 C18 1.356 1_565 S
C20 C21 1.348 . S
C21 C16 1.353 . S
C21 C20 1.348 . S
C21 H73 0.929 . S
H22 C16 0.930 . S
H23 C19 0.930 . S
C24 N25 1.314 . S
C24 C26 1.353 . S
C24 H30 0.930 . S
N25 Li1 1.990 . S
N25 C24 1.314 . S
N25 C28 1.279 . S
C26 C24 1.353 . S
C26 C29 1.348 . S
C26 H74 0.929 . S
C27 C28 1.358 . S
C27 C29 1.356 . S
C27 H75 0.930 . S
C28 N25 1.279 . S
C28 C27 1.358 . S
C28 H31 0.930 . S
C29 C26 1.348 . S
C29 C27 1.356 . S
H30 C24 0.930 . S
H31 C28 0.930 . S
C32 C34 1.348 . S
C32 C35 1.356 . S
C32 O62 1.325 . S
N33 C36 1.314 . S
N33 C37 1.279 . S
C34 C32 1.348 . S
C34 C36 1.353 1_545 S
C34 H76 0.929 . S
C35 C32 1.356 . S
C35 C37 1.358 1_545 S
C35 H77 0.930 . S
C36 N33 1.314 . S
C36 C34 1.353 1_565 S
C36 H78 0.930 . S
C37 N33 1.279 . S
C37 C35 1.358 1_565 S
C37 H79 0.930 . S
C38 C39 1.348 . S
C38 C40 1.356 . S
C38 O63 1.325 . S
C39 C38 1.348 . S
C39 C41 1.353 . S
C39 H80 0.929 . S
C40 C38 1.356 . S
C40 C42 1.358 . S
C40 H81 0.930 . S
C41 C39 1.353 . S
C41 N43 1.314 . S
C41 H82 0.930 . S
C42 C40 1.358 . S
C42 N43 1.279 . S
C42 H83 0.930 . S
N43 C41 1.314 . S
N43 C42 1.279 . S
C44 C46 1.353 . S
C44 N47 1.314 . S
C44 H50 0.930 . S
C45 N47 1.279 . S
C45 C48 1.358 . S
C45 H51 0.930 . S
C46 C44 1.353 . S
C46 C49 1.348 . S
C46 H84 0.929 . S
N47 Li2 1.990 . S
N47 C44 1.314 . S
N47 C45 1.279 . S
C48 C45 1.358 . S
C48 C49 1.356 . S
C48 H85 0.930 . S
C49 C46 1.348 . S
C49 C48 1.356 . S
H50 C44 0.930 . S
H51 C45 0.930 . S
C52 N53 1.314 . S
C52 C54 1.353 1_545 S
C52 H58 0.930 . S
N53 Li3 1.990 . S
N53 C52 1.314 . S
N53 C56 1.279 . S
C54 C52 1.353 1_565 S
C54 C57 1.348 1_565 S
C54 H86 0.929 . S
C55 C56 1.358 . S
C55 C57 1.356 . S
C55 H87 0.930 . S
C56 N53 1.279 . S
C56 C55 1.358 . S
C56 H59 0.930 . S
C57 C54 1.348 1_545 S
C57 C55 1.356 . S
H58 C52 0.930 . S
H59 C56 0.930 . S
O60 Li0 1.956 . S
O60 Li1 1.970 . S
O60 Li2 1.961 . S
O60 C4 1.325 . S
O61 Li0 1.970 . S
O61 Li1 1.956 . S
O61 Li3 1.961 . S
O61 C10 1.325 . S
O62 Li0 1.961 . S
O62 Li2 1.956 . S
O62 Li3 1.970 . S
O62 C32 1.325 . S
O63 Li1 1.961 . S
O63 Li2 1.970 . S
O63 Li3 1.956 . S
O63 C38 1.325 . S
H64 C6 0.929 . S
H65 C7 0.930 . S
H66 C8 0.930 . S
H67 C9 0.930 . S
H68 C11 0.930 . S
H69 C13 0.929 . S
H70 C14 0.930 . S
H71 C15 0.930 . S
H72 C18 0.930 . S
H73 C21 0.929 . S
H74 C26 0.929 . S
H75 C27 0.930 . S
H76 C34 0.929 . S
H77 C35 0.930 . S
H78 C36 0.930 . S
H79 C37 0.930 . S
H80 C39 0.929 . S
H81 C40 0.930 . S
H82 C41 0.930 . S
H83 C42 0.930 . S
H84 C46 0.929 . S
H85 C48 0.930 . S
H86 C54 0.929 . S
H87 C55 0.930 . S
Li88 N105 1.990 . S
Li88 O148 1.956 . S
Li88 O149 1.970 . S
Li88 O150 1.961 . S
Li89 N113 1.990 . S
Li89 O148 1.970 . S
Li89 O149 1.956 . S
Li89 O151 1.961 . S
Li90 N135 1.990 . S
Li90 O148 1.961 . S
Li90 O150 1.956 . S
Li90 O151 1.970 . S
Li91 N141 1.990 . S
Li91 O149 1.961 . S
Li91 O150 1.970 . S
Li91 O151 1.956 . S
C92 C94 1.348 . S
C92 C95 1.356 . S
C92 O148 1.325 . S
N93 C96 1.314 . S
N93 C97 1.279 . S
C94 C92 1.348 . S
C94 C96 1.353 . S
C94 H152 0.929 . S
C95 C92 1.356 . S
C95 C97 1.358 . S
C95 H153 0.930 . S
C96 N93 1.314 . S
C96 C94 1.353 . S
C96 H154 0.930 . S
C97 N93 1.279 . S
C97 C95 1.358 . S
C97 H155 0.930 . S
C98 C101 1.348 . S
C98 C102 1.356 . S
C98 O149 1.325 . S
C99 N100 1.279 . S
C99 C102 1.358 . S
C99 H156 0.930 . S
N100 C99 1.279 . S
N100 C103 1.314 . S
C101 C98 1.348 . S
C101 C103 1.353 . S
C101 H157 0.929 . S
C102 C98 1.356 . S
C102 C99 1.358 . S
C102 H158 0.930 . S
C103 N100 1.314 . S
C103 C101 1.353 . S
C103 H159 0.930 . S
C104 N105 1.314 . S
C104 C109 1.353 . S
C104 H110 0.930 . S
N105 Li88 1.990 . S
N105 C104 1.314 . S
N105 C107 1.279 . S
C106 C107 1.358 . S
C106 C108 1.356 . S
C106 H160 0.930 . S
C107 N105 1.279 . S
C107 C106 1.358 . S
C107 H111 0.930 . S
C108 C106 1.356 . S
C108 C109 1.348 . S
C109 C104 1.353 . S
C109 C108 1.348 . S
C109 H161 0.929 . S
H110 C104 0.930 . S
H111 C107 0.930 . S
C112 N113 1.314 . S
C112 C114 1.353 . S
C112 H118 0.930 . S
N113 Li89 1.990 . S
N113 C112 1.314 . S
N113 C116 1.279 . S
C114 C112 1.353 . S
C114 C117 1.348 . S
C114 H162 0.929 . S
C115 C116 1.358 . S
C115 C117 1.356 . S
C115 H163 0.930 . S
C116 N113 1.279 . S
C116 C115 1.358 . S
C116 H119 0.930 . S
C117 C114 1.348 . S
C117 C115 1.356 . S
H118 C112 0.930 . S
H119 C116 0.930 . S
C120 C122 1.348 . S
C120 C123 1.356 . S
C120 O150 1.325 . S
N121 C124 1.314 . S
N121 C125 1.279 . S
C122 C120 1.348 . S
C122 C124 1.353 . S
C122 H164 0.929 . S
C123 C120 1.356 . S
C123 C125 1.358 . S
C123 H165 0.930 . S
C124 N121 1.314 . S
C124 C122 1.353 . S
C124 H166 0.930 . S
C125 N121 1.279 . S
C125 C123 1.358 . S
C125 H167 0.930 . S
C126 C127 1.348 . S
C126 C128 1.356 . S
C126 O151 1.325 . S
C127 C126 1.348 . S
C127 C129 1.353 . S
C127 H168 0.929 . S
C128 C126 1.356 . S
C128 C130 1.358 . S
C128 H169 0.930 . S
C129 C127 1.353 . S
C129 N131 1.314 . S
C129 H170 0.930 . S
C130 C128 1.358 . S
C130 N131 1.279 . S
C130 H171 0.930 . S
N131 C129 1.314 . S
N131 C130 1.279 . S
C132 C134 1.353 . S
C132 N135 1.314 . S
C132 H138 0.930 . S
C133 N135 1.279 . S
C133 C136 1.358 . S
C133 H139 0.930 . S
C134 C132 1.353 . S
C134 C137 1.348 . S
C134 H172 0.929 . S
N135 Li90 1.990 . S
N135 C132 1.314 . S
N135 C133 1.279 . S
C136 C133 1.358 . S
C136 C137 1.356 . S
C136 H173 0.930 . S
C137 C134 1.348 . S
C137 C136 1.356 . S
H138 C132 0.930 . S
H139 C133 0.930 . S
C140 N141 1.314 . S
C140 C142 1.353 . S
C140 H146 0.930 . S
N141 Li91 1.990 . S
N141 C140 1.314 . S
N141 C144 1.279 . S
C142 C140 1.353 . S
C142 C145 1.348 . S
C142 H174 0.929 . S
C143 C144 1.358 . S
C143 C145 1.356 . S
C143 H175 0.930 . S
C144 N141 1.279 . S
C144 C143 1.358 . S
C144 H147 0.930 . S
C145 C142 1.348 . S
C145 C143 1.356 . S
H146 C140 0.930 . S
H147 C144 0.930 . S
O148 Li88 1.956 . S
O148 Li89 1.970 . S
O148 Li90 1.961 . S
O148 C92 1.325 . S
O149 Li88 1.970 . S
O149 Li89 1.956 . S
O149 Li91 1.961 . S
O149 C98 1.325 . S
O150 Li88 1.961 . S
O150 Li90 1.956 . S
O150 Li91 1.970 . S
O150 C120 1.325 . S
O151 Li89 1.961 . S
O151 Li90 1.970 . S
O151 Li91 1.956 . S
O151 C126 1.325 . S
H152 C94 0.929 . S
H153 C95 0.930 . S
H154 C96 0.930 . S
H155 C97 0.930 . S
H156 C99 0.930 . S
H157 C101 0.929 . S
H158 C102 0.930 . S
H159 C103 0.930 . S
H160 C106 0.930 . S
H161 C109 0.929 . S
H162 C114 0.929 . S
H163 C115 0.930 . S
H164 C122 0.929 . S
H165 C123 0.930 . S
H166 C124 0.930 . S
H167 C125 0.930 . S
H168 C127 0.929 . S
H169 C128 0.930 . S
H170 C129 0.930 . S
H171 C130 0.930 . S
H172 C134 0.929 . S
H173 C136 0.930 . S
H174 C142 0.929 . S
H175 C143 0.930 . S
Li176 N193 1.990 . S
Li176 O236 1.956 . S
Li176 O237 1.970 . S
Li176 O238 1.961 . S
Li177 N201 1.990 . S
Li177 O236 1.970 . S
Li177 O237 1.956 . S
Li177 O239 1.961 . S
Li178 N223 1.990 . S
Li178 O236 1.961 . S
Li178 O238 1.956 . S
Li178 O239 1.970 . S
Li179 N229 1.990 . S
Li179 O237 1.961 . S
Li179 O238 1.970 . S
Li179 O239 1.956 . S
C180 C182 1.348 . S
C180 C183 1.356 . S
C180 O236 1.325 . S
N181 C184 1.314 . S
N181 C185 1.279 . S
C182 C180 1.348 . S
C182 C184 1.353 1_655 S
C182 H240 0.929 . S
C183 C180 1.356 . S
C183 C185 1.358 1_655 S
C183 H241 0.930 . S
C184 N181 1.314 . S
C184 C182 1.353 1_455 S
C184 H242 0.930 . S
C185 N181 1.279 . S
C185 C183 1.358 1_455 S
C185 H243 0.930 . S
C186 C189 1.348 . S
C186 C190 1.356 . S
C186 O237 1.325 . S
C187 N188 1.279 . S
C187 C190 1.358 . S
C187 H244 0.930 . S
N188 C187 1.279 . S
N188 C191 1.314 . S
C189 C186 1.348 . S
C189 C191 1.353 . S
C189 H245 0.929 . S
C190 C186 1.356 . S
C190 C187 1.358 . S
C190 H246 0.930 . S
C191 N188 1.314 . S
C191 C189 1.353 . S
C191 H247 0.930 . S
C192 N193 1.314 . S
C192 C197 1.353 . S
C192 H198 0.930 . S
N193 Li176 1.990 . S
N193 C192 1.314 . S
N193 C195 1.279 . S
C194 C195 1.358 . S
C194 C196 1.356 . S
C194 H248 0.930 . S
C195 N193 1.279 . S
C195 C194 1.358 . S
C195 H199 0.930 . S
C196 C194 1.356 . S
C196 C197 1.348 . S
C197 C192 1.353 . S
C197 C196 1.348 . S
C197 H249 0.929 . S
H198 C192 0.930 . S
H199 C195 0.930 . S
C200 N201 1.314 . S
C200 C202 1.353 1_655 S
C200 H206 0.930 . S
N201 Li177 1.990 . S
N201 C200 1.314 . S
N201 C204 1.279 . S
C202 C200 1.353 1_455 S
C202 C205 1.348 1_456 S
C202 H250 0.929 . S
C203 C204 1.364 . S
C203 C205 1.354 1_556 S
C203 H251 0.926 1_556 S
C204 N201 1.279 . S
C204 C203 1.364 . S
C204 H207 0.930 . S
C205 C202 1.348 1_654 S
C205 C203 1.354 1_554 S
H206 C200 0.930 . S
H207 C204 0.930 . S
C208 C210 1.348 . S
C208 C211 1.356 . S
C208 O238 1.325 . S
N209 C212 1.314 . S
N209 C213 1.279 . S
C210 C208 1.348 . S
C210 C212 1.353 . S
C210 H252 0.929 . S
C211 C208 1.356 . S
C211 C213 1.358 . S
C211 H253 0.930 . S
C212 N209 1.314 . S
C212 C210 1.353 . S
C212 H254 0.930 . S
C213 N209 1.279 . S
C213 C211 1.358 . S
C213 H255 0.930 . S
C214 C215 1.348 . S
C214 C216 1.356 . S
C214 O239 1.325 . S
C215 C214 1.348 . S
C215 C217 1.353 . S
C215 H256 0.929 . S
C216 C214 1.356 . S
C216 C218 1.358 . S
C216 H257 0.930 . S
C217 C215 1.353 . S
C217 N219 1.314 . S
C217 H258 0.930 . S
C218 C216 1.358 . S
C218 N219 1.279 . S
C218 H259 0.930 1_556 S
N219 C217 1.314 . S
N219 C218 1.279 . S
C220 C222 1.353 . S
C220 N223 1.314 1_455 S
C220 H226 0.930 . S
C221 N223 1.279 . S
C221 C224 1.358 . S
C221 H227 0.930 . S
C222 C220 1.353 . S
C222 C225 1.348 . S
C222 H260 0.929 . S
N223 Li178 1.990 . S
N223 C220 1.314 1_655 S
N223 C221 1.279 . S
C224 C221 1.358 . S
C224 C225 1.356 1_655 S
C224 H261 0.930 . S
C225 C222 1.348 . S
C225 C224 1.356 1_455 S
H226 C220 0.930 . S
H227 C221 0.930 . S
C228 N229 1.314 . S
C228 C230 1.353 . S
C228 H234 0.930 . S
N229 Li179 1.990 . S
N229 C228 1.314 . S
N229 C232 1.279 . S
C230 C228 1.353 . S
C230 C233 1.348 . S
C230 H262 0.929 . S
C231 C232 1.358 . S
C231 C233 1.356 . S
C231 H263 0.930 . S
C232 N229 1.279 . S
C232 C231 1.358 . S
C232 H235 0.930 . S
C233 C230 1.348 . S
C233 C231 1.356 . S
H234 C228 0.930 . S
H235 C232 0.930 . S
O236 Li176 1.956 . S
O236 Li177 1.970 . S
O236 Li178 1.961 . S
O236 C180 1.325 . S
O237 Li176 1.970 . S
O237 Li177 1.956 . S
O237 Li179 1.961 . S
O237 C186 1.325 . S
O238 Li176 1.961 . S
O238 Li178 1.956 . S
O238 Li179 1.970 . S
O238 C208 1.325 . S
O239 Li177 1.961 . S
O239 Li178 1.970 . S
O239 Li179 1.956 . S
O239 C214 1.325 . S
H240 C182 0.929 . S
H241 C183 0.930 . S
H242 C184 0.930 . S
H243 C185 0.930 . S
H244 C187 0.930 . S
H245 C189 0.929 . S
H246 C190 0.930 . S
H247 C191 0.930 . S
H248 C194 0.930 . S
H249 C197 0.929 . S
H250 C202 0.929 . S
H251 C203 0.926 1_554 S
H252 C210 0.929 . S
H253 C211 0.930 . S
H254 C212 0.930 . S
H255 C213 0.930 . S
H256 C215 0.929 . S
H257 C216 0.930 . S
H258 C217 0.930 . S
H259 C218 0.930 1_554 S
H260 C222 0.929 . S
H261 C224 0.930 . S
H262 C230 0.929 . S
H263 C231 0.930 . S
Li264 N281 1.990 . S
Li264 O324 1.956 . S
Li264 O325 1.970 . S
Li264 O326 1.961 . S
Li265 N289 1.990 . S
Li265 O324 1.970 . S
Li265 O325 1.956 . S
Li265 O327 1.961 . S
Li266 N311 1.990 . S
Li266 O324 1.961 . S
Li266 O326 1.956 . S
Li266 O327 1.970 . S
Li267 N317 1.990 . S
Li267 O325 1.961 . S
Li267 O326 1.970 . S
Li267 O327 1.956 . S
C268 C270 1.348 . S
C268 C271 1.356 . S
C268 O324 1.325 . S
N269 C272 1.314 . S
N269 C273 1.279 . S
C270 C268 1.348 . S
C270 C272 1.353 1_565 S
C270 H328 0.929 . S
C271 C268 1.356 . S
C271 C273 1.358 1_565 S
C271 H329 0.930 . S
C272 N269 1.314 . S
C272 C270 1.353 1_545 S
C272 H330 0.930 . S
C273 N269 1.279 . S
C273 C271 1.358 1_545 S
C273 H331 0.930 . S
C274 C277 1.348 . S
C274 C278 1.356 . S
C274 O325 1.325 . S
C275 N276 1.279 . S
C275 C278 1.358 . S
C275 H332 0.930 . S
N276 C275 1.279 . S
N276 C279 1.314 . S
C277 C274 1.348 . S
C277 C279 1.353 . S
C277 H333 0.929 . S
C278 C274 1.356 . S
C278 C275 1.358 . S
C278 H334 0.930 . S
C279 N276 1.314 . S
C279 C277 1.353 . S
C279 H335 0.930 . S
C280 N281 1.314 . S
C280 C285 1.353 . S
C280 H286 0.930 . S
N281 Li264 1.990 . S
N281 C280 1.314 . S
N281 C283 1.279 . S
C282 C283 1.358 . S
C282 C284 1.356 . S
C282 H336 0.930 . S
C283 N281 1.279 . S
C283 C282 1.358 . S
C283 H287 0.930 . S
C284 C282 1.356 . S
C284 C285 1.348 . S
C285 C280 1.353 . S
C285 C284 1.348 . S
C285 H337 0.929 . S
H286 C280 0.930 . S
H287 C283 0.930 . S
C288 N289 1.314 . S
C288 C290 1.353 1_565 S
C288 H294 0.930 . S
N289 Li265 1.990 . S
N289 C288 1.314 . S
N289 C292 1.279 . S
C290 C288 1.353 1_545 S
C290 C293 1.348 1_545 S
C290 H338 0.929 . S
C291 C292 1.358 . S
C291 C293 1.356 . S
C291 H339 0.930 . S
C292 N289 1.279 . S
C292 C291 1.358 . S
C292 H295 0.930 . S
C293 C290 1.348 1_565 S
C293 C291 1.356 . S
H294 C288 0.930 . S
H295 C292 0.930 . S
C296 C298 1.348 . S
C296 C299 1.356 . S
C296 O326 1.325 . S
N297 C300 1.314 1_556 S
N297 C301 1.279 . S
C298 C296 1.348 . S
C298 C300 1.353 . S
C298 H340 0.929 . S
C299 C296 1.356 . S
C299 C301 1.358 1_554 S
C299 H341 0.930 . S
C300 N297 1.314 1_554 S
C300 C298 1.353 . S
C300 H342 0.930 . S
C301 N297 1.279 . S
C301 C299 1.358 1_556 S
C301 H343 0.930 . S
C302 C303 1.348 . S
C302 C304 1.356 . S
C302 O327 1.325 . S
C303 C302 1.348 . S
C303 C305 1.353 . S
C303 H344 0.929 . S
C304 C302 1.356 . S
C304 C306 1.358 . S
C304 H345 0.930 . S
C305 C303 1.353 . S
C305 N307 1.314 . S
C305 H346 0.930 . S
C306 C304 1.358 . S
C306 N307 1.279 . S
C306 H347 0.930 . S
N307 C305 1.314 . S
N307 C306 1.279 . S
C308 C310 1.353 . S
C308 N311 1.314 1_545 S
C308 H314 0.930 . S
C309 N311 1.279 . S
C309 C312 1.358 . S
C309 H315 0.930 . S
C310 C308 1.353 . S
C310 C313 1.348 . S
C310 H348 0.929 . S
N311 Li266 1.990 . S
N311 C308 1.314 1_565 S
N311 C309 1.279 . S
C312 C309 1.358 . S
C312 C313 1.356 1_565 S
C312 H349 0.930 . S
C313 C310 1.348 . S
C313 C312 1.356 1_545 S
H314 C308 0.930 . S
H315 C309 0.930 . S
C316 N317 1.314 . S
C316 C318 1.353 . S
C316 H322 0.930 . S
N317 Li267 1.990 . S
N317 C316 1.314 . S
N317 C320 1.279 . S
C318 C316 1.353 . S
C318 C321 1.348 . S
C318 H350 0.929 . S
C319 C320 1.358 . S
C319 C321 1.356 . S
C319 H351 0.930 . S
C320 N317 1.279 . S
C320 C319 1.358 . S
C320 H323 0.930 . S
C321 C318 1.348 . S
C321 C319 1.356 . S
H322 C316 0.930 . S
H323 C320 0.930 . S
O324 Li264 1.956 . S
O324 Li265 1.970 . S
O324 Li266 1.961 . S
O324 C268 1.325 . S
O325 Li264 1.970 . S
O325 Li265 1.956 . S
O325 Li267 1.961 . S
O325 C274 1.325 . S
O326 Li264 1.961 . S
O326 Li266 1.956 . S
O326 Li267 1.970 . S
O326 C296 1.325 . S
O327 Li265 1.961 . S
O327 Li266 1.970 . S
O327 Li267 1.956 . S
O327 C302 1.325 . S
H328 C270 0.929 . S
H329 C271 0.930 . S
H330 C272 0.930 . S
H331 C273 0.930 . S
H332 C275 0.930 . S
H333 C277 0.929 . S
H334 C278 0.930 . S
H335 C279 0.930 . S
H336 C282 0.930 . S
H337 C285 0.929 . S
H338 C290 0.929 . S
H339 C291 0.930 . S
H340 C298 0.929 . S
H341 C299 0.930 . S
H342 C300 0.930 . S
H343 C301 0.930 . S
H344 C303 0.929 . S
H345 C304 0.930 . S
H346 C305 0.930 . S
H347 C306 0.930 . S
H348 C310 0.929 . S
H349 C312 0.930 . S
H350 C318 0.929 . S
H351 C319 0.930 . S
Li352 N369 1.990 . S
Li352 O412 1.956 . S
Li352 O413 1.970 . S
Li352 O414 1.961 . S
Li353 N377 1.990 . S
Li353 O412 1.970 . S
Li353 O413 1.956 . S
Li353 O415 1.961 . S
Li354 N399 1.990 . S
Li354 O412 1.961 . S
Li354 O414 1.956 . S
Li354 O415 1.970 . S
Li355 N405 1.990 . S
Li355 O413 1.961 . S
Li355 O414 1.970 . S
Li355 O415 1.956 . S
C356 C358 1.348 . S
C356 C359 1.356 . S
C356 O412 1.325 . S
N357 C360 1.314 . S
N357 C361 1.279 . S
C358 C356 1.348 . S
C358 C360 1.353 . S
C358 H416 0.929 . S
C359 C356 1.356 . S
C359 C361 1.358 . S
C359 H417 0.930 . S
C360 N357 1.314 . S
C360 C358 1.353 . S
C360 H418 0.930 . S
C361 N357 1.279 . S
C361 C359 1.358 . S
C361 H419 0.930 . S
C362 C365 1.348 . S
C362 C366 1.356 . S
C362 O413 1.325 . S
C363 N364 1.279 . S
C363 C366 1.358 . S
C363 H420 0.930 . S
N364 C363 1.279 . S
N364 C367 1.314 . S
C365 C362 1.348 . S
C365 C367 1.353 . S
C365 H421 0.929 . S
C366 C362 1.356 . S
C366 C363 1.358 . S
C366 H422 0.930 . S
C367 N364 1.314 . S
C367 C365 1.353 . S
C367 H423 0.930 . S
C368 N369 1.314 . S
C368 C373 1.353 . S
C368 H374 0.930 . S
N369 Li352 1.990 . S
N369 C368 1.314 . S
N369 C371 1.279 . S
C370 C371 1.358 . S
C370 C372 1.356 . S
C370 H424 0.930 . S
C371 N369 1.279 . S
C371 C370 1.358 . S
C371 H375 0.930 . S
C372 C370 1.356 . S
C372 C373 1.348 . S
C373 C368 1.353 . S
C373 C372 1.348 . S
C373 H425 0.929 . S
H374 C368 0.930 . S
H375 C371 0.930 . S
C376 N377 1.314 . S
C376 C378 1.353 . S
C376 H382 0.930 . S
N377 Li353 1.990 . S
N377 C376 1.314 . S
N377 C380 1.279 . S
C378 C376 1.353 . S
C378 C381 1.348 . S
C378 H426 0.929 . S
C379 C380 1.358 . S
C379 C381 1.356 . S
C379 H427 0.930 . S
C380 N377 1.279 . S
C380 C379 1.358 . S
C380 H383 0.930 . S
C381 C378 1.348 . S
C381 C379 1.356 . S
H382 C376 0.930 . S
H383 C380 0.930 . S
C384 C386 1.348 . S
C384 C387 1.356 . S
C384 O414 1.325 . S
N385 C388 1.314 . S
N385 C389 1.279 . S
C386 C384 1.348 . S
C386 C388 1.353 . S
C386 H428 0.929 . S
C387 C384 1.356 . S
C387 C389 1.358 . S
C387 H429 0.930 . S
C388 N385 1.314 . S
C388 C386 1.353 . S
C388 H430 0.930 . S
C389 N385 1.279 . S
C389 C387 1.358 . S
C389 H431 0.930 . S
C390 C391 1.348 . S
C390 C392 1.356 . S
C390 O415 1.325 . S
C391 C390 1.348 . S
C391 C393 1.353 . S
C391 H432 0.929 . S
C392 C390 1.356 . S
C392 C394 1.358 . S
C392 H433 0.930 . S
C393 C391 1.353 . S
C393 N395 1.314 . S
C393 H434 0.930 . S
C394 C392 1.358 . S
C394 N395 1.279 . S
C394 H435 0.930 . S
N395 C393 1.314 . S
N395 C394 1.279 . S
C396 C398 1.353 . S
C396 N399 1.314 . S
C396 H402 0.930 . S
C397 N399 1.279 . S
C397 C400 1.358 . S
C397 H403 0.930 . S
C398 C396 1.353 . S
C398 C401 1.348 . S
C398 H436 0.929 . S
N399 Li354 1.990 . S
N399 C396 1.314 . S
N399 C397 1.279 . S
C400 C397 1.358 . S
C400 C401 1.356 . S
C400 H437 0.930 . S
C401 C398 1.348 . S
C401 C400 1.356 . S
H402 C396 0.930 . S
H403 C397 0.930 . S
C404 N405 1.314 . S
C404 C406 1.353 . S
C404 H410 0.930 . S
N405 Li355 1.990 . S
N405 C404 1.314 . S
N405 C408 1.279 . S
C406 C404 1.353 . S
C406 C409 1.348 . S
C406 H438 0.929 . S
C407 C408 1.358 . S
C407 C409 1.356 . S
C407 H439 0.930 . S
C408 N405 1.279 . S
C408 C407 1.358 . S
C408 H411 0.930 . S
C409 C406 1.348 . S
C409 C407 1.356 . S
H410 C404 0.930 . S
H411 C408 0.930 . S
O412 Li352 1.956 . S
O412 Li353 1.970 . S
O412 Li354 1.961 . S
O412 C356 1.325 . S
O413 Li352 1.970 . S
O413 Li353 1.956 . S
O413 Li355 1.961 . S
O413 C362 1.325 . S
O414 Li352 1.961 . S
O414 Li354 1.956 . S
O414 Li355 1.970 . S
O414 C384 1.325 . S
O415 Li353 1.961 . S
O415 Li354 1.970 . S
O415 Li355 1.956 . S
O415 C390 1.325 . S
H416 C358 0.929 . S
H417 C359 0.930 . S
H418 C360 0.930 . S
H419 C361 0.930 . S
H420 C363 0.930 . S
H421 C365 0.929 . S
H422 C366 0.930 . S
H423 C367 0.930 . S
H424 C370 0.930 . S
H425 C373 0.929 . S
H426 C378 0.929 . S
H427 C379 0.930 . S
H428 C386 0.929 . S
H429 C387 0.930 . S
H430 C388 0.930 . S
H431 C389 0.930 . S
H432 C391 0.929 . S
H433 C392 0.930 . S
H434 C393 0.930 . S
H435 C394 0.930 . S
H436 C398 0.929 . S
H437 C400 0.930 . S
H438 C406 0.929 . S
H439 C407 0.930 . S
Li440 N457 1.990 . S
Li440 O500 1.956 . S
Li440 O501 1.970 . S
Li440 O502 1.961 . S
Li441 N465 1.990 . S
Li441 O500 1.970 . S
Li441 O501 1.956 . S
Li441 O503 1.961 . S
Li442 N487 1.990 . S
Li442 O500 1.961 . S
Li442 O502 1.956 . S
Li442 O503 1.970 . S
Li443 N493 1.990 . S
Li443 O501 1.961 . S
Li443 O502 1.970 . S
Li443 O503 1.956 . S
C444 C446 1.348 . S
C444 C447 1.356 . S
C444 O500 1.325 . S
N445 C448 1.314 . S
N445 C449 1.279 . S
C446 C444 1.348 . S
C446 C448 1.353 . S
C446 H504 0.929 . S
C447 C444 1.356 . S
C447 C449 1.358 . S
C447 H505 0.930 . S
C448 N445 1.314 . S
C448 C446 1.353 . S
C448 H506 0.930 . S
C449 N445 1.279 . S
C449 C447 1.358 . S
C449 H507 0.930 . S
C450 C453 1.348 . S
C450 C454 1.356 . S
C450 O501 1.325 . S
C451 N452 1.279 . S
C451 C454 1.358 . S
C451 H508 0.930 1_556 S
N452 C451 1.279 . S
N452 C455 1.314 . S
C453 C450 1.348 . S
C453 C455 1.353 . S
C453 H509 0.929 . S
C454 C450 1.356 . S
C454 C451 1.358 . S
C454 H510 0.930 . S
C455 N452 1.314 . S
C455 C453 1.353 . S
C455 H511 0.930 . S
C456 N457 1.314 1_655 S
C456 C461 1.353 . S
C456 H462 0.930 . S
N457 Li440 1.990 . S
N457 C456 1.314 1_455 S
N457 C459 1.279 . S
C458 C459 1.358 . S
C458 C460 1.356 1_455 S
C458 H512 0.930 . S
C459 N457 1.279 . S
C459 C458 1.358 . S
C459 H463 0.930 . S
C460 C458 1.356 1_655 S
C460 C461 1.348 . S
C461 C456 1.353 . S
C461 C460 1.348 . S
C461 H513 0.929 . S
H462 C456 0.930 . S
H463 C459 0.930 . S
C464 N465 1.314 . S
C464 C466 1.353 . S
C464 H470 0.930 . S
N465 Li441 1.990 . S
N465 C464 1.314 . S
N465 C468 1.279 . S
C466 C464 1.353 . S
C466 C469 1.348 . S
C466 H514 0.929 . S
C467 C468 1.358 . S
C467 C469 1.356 . S
C467 H515 0.930 . S
C468 N465 1.279 . S
C468 C467 1.358 . S
C468 H471 0.930 . S
C469 C466 1.348 . S
C469 C467 1.356 . S
H470 C464 0.930 . S
H471 C468 0.930 . S
C472 C474 1.348 . S
C472 C475 1.356 . S
C472 O502 1.325 . S
N473 C476 1.314 . S
N473 C477 1.279 . S
C474 C472 1.348 . S
C474 C476 1.353 1_455 S
C474 H516 0.929 . S
C475 C472 1.356 . S
C475 C477 1.358 1_455 S
C475 H517 0.930 . S
C476 N473 1.314 . S
C476 C474 1.353 1_655 S
C476 H518 0.930 . S
C477 N473 1.279 . S
C477 C475 1.358 1_655 S
C477 H519 0.930 . S
C478 C479 1.348 . S
C478 C480 1.356 . S
C478 O503 1.325 . S
C479 C478 1.348 . S
C479 C481 1.353 . S
C479 H520 0.929 . S
C480 C478 1.356 . S
C480 C482 1.358 . S
C480 H521 0.930 . S
C481 C479 1.353 . S
C481 N483 1.314 . S
C481 H522 0.930 . S
C482 C480 1.358 . S
C482 N483 1.279 . S
C482 H523 0.930 . S
N483 C481 1.314 . S
N483 C482 1.279 . S
C484 C486 1.353 . S
C484 N487 1.314 . S
C484 H490 0.930 . S
C485 N487 1.279 . S
C485 C488 1.358 . S
C485 H491 0.930 . S
C486 C484 1.353 . S
C486 C489 1.348 . S
C486 H524 0.929 . S
N487 Li442 1.990 . S
N487 C484 1.314 . S
N487 C485 1.279 . S
C488 C485 1.358 . S
C488 C489 1.356 . S
C488 H525 0.930 . S
C489 C486 1.348 . S
C489 C488 1.356 . S
H490 C484 0.930 . S
H491 C485 0.930 . S
C492 N493 1.314 . S
C492 C494 1.353 1_455 S
C492 H498 0.930 . S
N493 Li443 1.990 . S
N493 C492 1.314 . S
N493 C496 1.279 . S
C494 C492 1.353 1_655 S
C494 C497 1.348 1_656 S
C494 H526 0.929 . S
C495 C496 1.365 . S
C495 C497 1.354 1_556 S
C495 H527 0.926 1_556 S
C496 N493 1.279 . S
C496 C495 1.365 . S
C496 H499 0.930 . S
C497 C494 1.348 1_454 S
C497 C495 1.354 1_554 S
H498 C492 0.930 . S
H499 C496 0.930 . S
O500 Li440 1.956 . S
O500 Li441 1.970 . S
O500 Li442 1.961 . S
O500 C444 1.325 . S
O501 Li440 1.970 . S
O501 Li441 1.956 . S
O501 Li443 1.961 . S
O501 C450 1.325 . S
O502 Li440 1.961 . S
O502 Li442 1.956 . S
O502 Li443 1.970 . S
O502 C472 1.325 . S
O503 Li441 1.961 . S
O503 Li442 1.970 . S
O503 Li443 1.956 . S
O503 C478 1.325 . S
H504 C446 0.929 . S
H505 C447 0.930 . S
H506 C448 0.930 . S
H507 C449 0.930 . S
H508 C451 0.930 1_554 S
H509 C453 0.929 . S
H510 C454 0.930 . S
H511 C455 0.930 . S
H512 C458 0.930 . S
H513 C461 0.929 . S
H514 C466 0.929 . S
H515 C467 0.930 . S
H516 C474 0.929 . S
H517 C475 0.930 . S
H518 C476 0.930 . S
H519 C477 0.930 . S
H520 C479 0.929 . S
H521 C480 0.930 . S
H522 C481 0.930 . S
H523 C482 0.930 . S
H524 C486 0.929 . S
H525 C488 0.930 . S
H526 C494 0.929 . S
H527 C495 0.926 1_554 S
Li528 N545 1.990 . S
Li528 O588 1.956 . S
Li528 O589 1.970 . S
Li528 O590 1.961 . S
Li529 N553 1.990 . S
Li529 O588 1.970 . S
Li529 O589 1.956 . S
Li529 O591 1.961 . S
Li530 N575 1.990 . S
Li530 O588 1.961 . S
Li530 O590 1.956 . S
Li530 O591 1.970 . S
Li531 N581 1.990 . S
Li531 O589 1.961 . S
Li531 O590 1.970 . S
Li531 O591 1.956 . S
C532 C534 1.348 . S
C532 C535 1.356 . S
C532 O588 1.325 . S
N533 C536 1.314 . S
N533 C537 1.279 . S
C534 C532 1.348 . S
C534 C536 1.353 . S
C534 H592 0.929 . S
C535 C532 1.356 . S
C535 C537 1.358 . S
C535 H593 0.930 . S
C536 N533 1.314 . S
C536 C534 1.353 . S
C536 H594 0.930 . S
C537 N533 1.279 . S
C537 C535 1.358 . S
C537 H595 0.930 . S
C538 C541 1.348 . S
C538 C542 1.356 . S
C538 O589 1.325 . S
C539 N540 1.279 . S
C539 C542 1.358 . S
C539 H596 0.930 . S
N540 C539 1.279 . S
N540 C543 1.314 . S
C541 C538 1.348 . S
C541 C543 1.353 . S
C541 H597 0.929 . S
C542 C538 1.356 . S
C542 C539 1.358 . S
C542 H598 0.930 . S
C543 N540 1.314 . S
C543 C541 1.353 . S
C543 H599 0.930 . S
C544 N545 1.314 . S
C544 C549 1.353 . S
C544 H550 0.930 . S
N545 Li528 1.990 . S
N545 C544 1.314 . S
N545 C547 1.279 . S
C546 C547 1.358 . S
C546 C548 1.356 . S
C546 H600 0.930 . S
C547 N545 1.279 . S
C547 C546 1.358 . S
C547 H551 0.930 . S
C548 C546 1.356 . S
C548 C549 1.348 . S
C549 C544 1.353 . S
C549 C548 1.348 . S
C549 H601 0.929 . S
H550 C544 0.930 . S
H551 C547 0.930 . S
C552 N553 1.314 1_455 S
C552 C554 1.353 . S
C552 H558 0.930 . S
N553 Li529 1.990 . S
N553 C552 1.314 1_655 S
N553 C556 1.279 . S
C554 C552 1.353 . S
C554 C557 1.348 . S
C554 H602 0.929 . S
C555 C556 1.358 . S
C555 C557 1.356 1_655 S
C555 H603 0.930 . S
C556 N553 1.279 . S
C556 C555 1.358 . S
C556 H559 0.930 . S
C557 C554 1.348 . S
C557 C555 1.356 1_455 S
H558 C552 0.930 . S
H559 C556 0.930 . S
C560 C562 1.348 . S
C560 C563 1.356 . S
C560 O590 1.325 . S
N561 C564 1.314 . S
N561 C565 1.279 . S
C562 C560 1.348 . S
C562 C564 1.353 . S
C562 H604 0.929 . S
C563 C560 1.356 . S
C563 C565 1.358 . S
C563 H605 0.930 . S
C564 N561 1.314 . S
C564 C562 1.353 . S
C564 H606 0.930 . S
C565 N561 1.279 . S
C565 C563 1.358 . S
C565 H607 0.930 . S
C566 C567 1.348 . S
C566 C568 1.356 . S
C566 O591 1.325 . S
C567 C566 1.348 . S
C567 C569 1.353 1_655 S
C567 H608 0.929 . S
C568 C566 1.356 . S
C568 C570 1.358 1_655 S
C568 H609 0.930 . S
C569 C567 1.353 1_455 S
C569 N571 1.314 . S
C569 H610 0.930 . S
C570 C568 1.358 1_455 S
C570 N571 1.279 . S
C570 H611 0.930 . S
N571 C569 1.314 . S
N571 C570 1.279 . S
C572 C574 1.353 1_655 S
C572 N575 1.314 . S
C572 H578 0.930 . S
C573 N575 1.279 . S
C573 C576 1.358 . S
C573 H579 0.930 . S
C574 C572 1.353 1_455 S
C574 C577 1.348 1_455 S
C574 H612 0.929 . S
N575 Li530 1.990 . S
N575 C572 1.314 . S
N575 C573 1.279 . S
C576 C573 1.358 . S
C576 C577 1.356 . S
C576 H613 0.930 . S
C577 C574 1.348 1_655 S
C577 C576 1.356 . S
H578 C572 0.930 . S
H579 C573 0.930 . S
C580 N581 1.314 . S
C580 C582 1.353 . S
C580 H586 0.930 . S
N581 Li531 1.990 . S
N581 C580 1.314 . S
N581 C584 1.279 . S
C582 C580 1.353 . S
C582 C585 1.348 . S
C582 H614 0.929 . S
C583 C584 1.358 . S
C583 C585 1.356 . S
C583 H615 0.930 . S
C584 N581 1.279 . S
C584 C583 1.358 . S
C584 H587 0.930 . S
C585 C582 1.348 . S
C585 C583 1.356 . S
H586 C580 0.930 . S
H587 C584 0.930 . S
O588 Li528 1.956 . S
O588 Li529 1.970 . S
O588 Li530 1.961 . S
O588 C532 1.325 . S
O589 Li528 1.970 . S
O589 Li529 1.956 . S
O589 Li531 1.961 . S
O589 C538 1.325 . S
O590 Li528 1.961 . S
O590 Li530 1.956 . S
O590 Li531 1.970 . S
O590 C560 1.325 . S
O591 Li529 1.961 . S
O591 Li530 1.970 . S
O591 Li531 1.956 . S
O591 C566 1.325 . S
H592 C534 0.929 . S
H593 C535 0.930 . S
H594 C536 0.930 . S
H595 C537 0.930 . S
H596 C539 0.930 . S
H597 C541 0.929 . S
H598 C542 0.930 . S
H599 C543 0.930 . S
H600 C546 0.930 . S
H601 C549 0.929 . S
H602 C554 0.929 . S
H603 C555 0.930 . S
H604 C562 0.929 . S
H605 C563 0.930 . S
H606 C564 0.930 . S
H607 C565 0.930 . S
H608 C567 0.929 . S
H609 C568 0.930 . S
H610 C569 0.930 . S
H611 C570 0.930 . S
H612 C574 0.929 . S
H613 C576 0.930 . S
H614 C582 0.929 . S
H615 C583 0.930 . S
Li616 N633 1.990 . S
Li616 O676 1.956 . S
Li616 O677 1.970 . S
Li616 O678 1.961 . S
Li617 N641 1.990 . S
Li617 O676 1.970 . S
Li617 O677 1.956 . S
Li617 O679 1.961 . S
Li618 N663 1.990 . S
Li618 O676 1.961 . S
Li618 O678 1.956 . S
Li618 O679 1.970 . S
Li619 N669 1.990 . S
Li619 O677 1.961 . S
Li619 O678 1.970 . S
Li619 O679 1.956 . S
C620 C622 1.348 . S
C620 C623 1.356 . S
C620 O676 1.325 . S
N621 C624 1.314 . S
N621 C625 1.279 . S
C622 C620 1.348 . S
C622 C624 1.353 . S
C622 H680 0.929 . S
C623 C620 1.356 . S
C623 C625 1.358 . S
C623 H681 0.930 . S
C624 N621 1.314 . S
C624 C622 1.353 . S
C624 H682 0.930 . S
C625 N621 1.279 . S
C625 C623 1.358 . S
C625 H683 0.930 . S
C626 C629 1.348 . S
C626 C630 1.356 . S
C626 O677 1.325 . S
C627 N628 1.279 . S
C627 C630 1.358 1_545 S
C627 H684 0.930 . S
N628 C627 1.279 . S
N628 C631 1.314 . S
C629 C626 1.348 . S
C629 C631 1.353 1_565 S
C629 H685 0.929 . S
C630 C626 1.356 . S
C630 C627 1.358 1_565 S
C630 H686 0.930 . S
C631 N628 1.314 . S
C631 C629 1.353 1_545 S
C631 H687 0.930 . S
C632 N633 1.314 . S
C632 C637 1.353 1_565 S
C632 H638 0.930 . S
N633 Li616 1.990 . S
N633 C632 1.314 . S
N633 C635 1.279 . S
C634 C635 1.358 . S
C634 C636 1.356 . S
C634 H688 0.930 . S
C635 N633 1.279 . S
C635 C634 1.358 . S
C635 H639 0.930 . S
C636 C634 1.356 . S
C636 C637 1.348 1_565 S
C637 C632 1.353 1_545 S
C637 C636 1.348 1_545 S
C637 H689 0.929 . S
H638 C632 0.930 . S
H639 C635 0.930 . S
C640 N641 1.314 . S
C640 C642 1.353 . S
C640 H646 0.930 . S
N641 Li617 1.990 . S
N641 C640 1.314 . S
N641 C644 1.279 . S
C642 C640 1.353 . S
C642 C645 1.348 . S
C642 H690 0.929 . S
C643 C644 1.358 . S
C643 C645 1.356 . S
C643 H691 0.930 . S
C644 N641 1.279 . S
C644 C643 1.358 . S
C644 H647 0.930 . S
C645 C642 1.348 . S
C645 C643 1.356 . S
H646 C640 0.930 . S
H647 C644 0.930 . S
C648 C650 1.348 . S
C648 C651 1.356 . S
C648 O678 1.325 . S
N649 C652 1.314 . S
N649 C653 1.279 . S
C650 C648 1.348 . S
C650 C652 1.353 . S
C650 H692 0.929 . S
C651 C648 1.356 . S
C651 C653 1.358 . S
C651 H693 0.930 . S
C652 N649 1.314 . S
C652 C650 1.353 . S
C652 H694 0.930 . S
C653 N649 1.279 . S
C653 C651 1.358 . S
C653 H695 0.930 . S
C654 C655 1.348 . S
C654 C656 1.356 . S
C654 O679 1.325 . S
C655 C654 1.348 . S
C655 C657 1.353 . S
C655 H696 0.929 . S
C656 C654 1.356 . S
C656 C658 1.358 1_556 S
C656 H697 0.930 . S
C657 C655 1.353 . S
C657 N659 1.314 1_556 S
C657 H698 0.930 . S
C658 C656 1.358 1_554 S
C658 N659 1.279 . S
C658 H699 0.930 . S
N659 C657 1.314 1_554 S
N659 C658 1.279 . S
C660 C662 1.353 . S
C660 N663 1.314 . S
C660 H666 0.930 . S
C661 N663 1.279 . S
C661 C664 1.358 . S
C661 H667 0.930 . S
C662 C660 1.353 . S
C662 C665 1.348 . S
C662 H700 0.929 . S
N663 Li618 1.990 . S
N663 C660 1.314 . S
N663 C661 1.279 . S
C664 C661 1.358 . S
C664 C665 1.356 . S
C664 H701 0.930 . S
C665 C662 1.348 . S
C665 C664 1.356 . S
H666 C660 0.930 . S
H667 C661 0.930 . S
C668 N669 1.314 1_545 S
C668 C670 1.353 . S
C668 H674 0.930 . S
N669 Li619 1.990 . S
N669 C668 1.314 1_565 S
N669 C672 1.279 . S
C670 C668 1.353 . S
C670 C673 1.348 . S
C670 H702 0.929 . S
C671 C672 1.358 . S
C671 C673 1.356 1_565 S
C671 H703 0.930 . S
C672 N669 1.279 . S
C672 C671 1.358 . S
C672 H675 0.930 . S
C673 C670 1.348 . S
C673 C671 1.356 1_545 S
H674 C668 0.930 . S
H675 C672 0.930 . S
O676 Li616 1.956 . S
O676 Li617 1.970 . S
O676 Li618 1.961 . S
O676 C620 1.325 . S
O677 Li616 1.970 . S
O677 Li617 1.956 . S
O677 Li619 1.961 . S
O677 C626 1.325 . S
O678 Li616 1.961 . S
O678 Li618 1.956 . S
O678 Li619 1.970 . S
O678 C648 1.325 . S
O679 Li617 1.961 . S
O679 Li618 1.970 . S
O679 Li619 1.956 . S
O679 C654 1.325 . S
H680 C622 0.929 . S
H681 C623 0.930 . S
H682 C624 0.930 . S
H683 C625 0.930 . S
H684 C627 0.930 . S
H685 C629 0.929 . S
H686 C630 0.930 . S
H687 C631 0.930 . S
H688 C634 0.930 . S
H689 C637 0.929 . S
H690 C642 0.929 . S
H691 C643 0.930 . S
H692 C650 0.929 . S
H693 C651 0.930 . S
H694 C652 0.930 . S
H695 C653 0.930 . S
H696 C655 0.929 . S
H697 C656 0.930 . S
H698 C657 0.930 . S
H699 C658 0.930 . S
H700 C662 0.929 . S
H701 C664 0.930 . S
H702 C670 0.929 . S
H703 C671 0.930 . S
Li704 N721 1.990 . S
Li704 O764 1.956 . S
Li704 O765 1.970 . S
Li704 O766 1.961 . S
Li705 N729 1.990 . S
Li705 O764 1.970 . S
Li705 O765 1.956 . S
Li705 O767 1.961 . S
Li706 N751 1.990 . S
Li706 O764 1.961 . S
Li706 O766 1.956 . S
Li706 O767 1.970 . S
Li707 N757 1.990 . S
Li707 O765 1.961 . S
Li707 O766 1.970 . S
Li707 O767 1.956 . S
C708 C710 1.348 . S
C708 C711 1.356 . S
C708 O764 1.325 . S
N709 C712 1.314 . S
N709 C713 1.279 . S
C710 C708 1.348 . S
C710 C712 1.353 . S
C710 H768 0.929 . S
C711 C708 1.356 . S
C711 C713 1.358 . S
C711 H769 0.930 . S
C712 N709 1.314 . S
C712 C710 1.353 . S
C712 H770 0.930 . S
C713 N709 1.279 . S
C713 C711 1.358 . S
C713 H771 0.930 . S
C714 C717 1.348 . S
C714 C718 1.356 . S
C714 O765 1.325 . S
C715 N716 1.279 . S
C715 C718 1.358 . S
C715 H772 0.930 . S
N716 C715 1.279 . S
N716 C719 1.314 . S
C717 C714 1.348 . S
C717 C719 1.353 . S
C717 H773 0.929 . S
C718 C714 1.356 . S
C718 C715 1.358 . S
C718 H774 0.930 . S
C719 N716 1.314 . S
C719 C717 1.353 . S
C719 H775 0.930 . S
C720 N721 1.314 . S
C720 C725 1.353 . S
C720 H726 0.930 . S
N721 Li704 1.990 . S
N721 C720 1.314 . S
N721 C723 1.279 . S
C722 C723 1.358 . S
C722 C724 1.356 . S
C722 H776 0.930 . S
C723 N721 1.279 . S
C723 C722 1.358 . S
C723 H727 0.930 . S
C724 C722 1.356 . S
C724 C725 1.348 . S
C725 C720 1.353 . S
C725 C724 1.348 . S
C725 H777 0.929 . S
H726 C720 0.930 . S
H727 C723 0.930 . S
C728 N729 1.314 . S
C728 C730 1.353 . S
C728 H734 0.930 . S
N729 Li705 1.990 . S
N729 C728 1.314 . S
N729 C732 1.279 . S
C730 C728 1.353 . S
C730 C733 1.348 1_554 S
C730 H778 0.929 . S
C731 C732 1.366 . S
C731 C733 1.353 1_554 S
C731 H779 0.925 1_554 S
C732 N729 1.279 . S
C732 C731 1.366 . S
C732 H735 0.930 . S
C733 C730 1.348 1_556 S
C733 C731 1.353 1_556 S
H734 C728 0.930 . S
H735 C732 0.930 . S
C736 C738 1.348 . S
C736 C739 1.356 . S
C736 O766 1.325 . S
N737 C740 1.314 . S
N737 C741 1.279 . S
C738 C736 1.348 . S
C738 C740 1.353 . S
C738 H780 0.929 . S
C739 C736 1.356 . S
C739 C741 1.358 . S
C739 H781 0.930 . S
C740 N737 1.314 . S
C740 C738 1.353 . S
C740 H782 0.930 . S
C741 N737 1.279 . S
C741 C739 1.358 . S
C741 H783 0.930 . S
C742 C743 1.348 . S
C742 C744 1.356 . S
C742 O767 1.325 . S
C743 C742 1.348 . S
C743 C745 1.353 . S
C743 H784 0.929 . S
C744 C742 1.356 . S
C744 C746 1.358 . S
C744 H785 0.930 . S
C745 C743 1.353 . S
C745 N747 1.314 . S
C745 H786 0.930 . S
C746 C744 1.358 . S
C746 N747 1.279 . S
C746 H787 0.930 1_554 S
N747 C745 1.314 . S
N747 C746 1.279 . S
C748 C750 1.353 . S
C748 N751 1.314 . S
C748 H754 0.930 . S
C749 N751 1.279 . S
C749 C752 1.358 . S
C749 H755 0.930 . S
C750 C748 1.353 . S
C750 C753 1.348 . S
C750 H788 0.929 . S
N751 Li706 1.990 . S
N751 C748 1.314 . S
N751 C749 1.279 . S
C752 C749 1.358 . S
C752 C753 1.356 . S
C752 H789 0.930 . S
C753 C750 1.348 . S
C753 C752 1.356 . S
H754 C748 0.930 . S
H755 C749 0.930 . S
C756 N757 1.314 . S
C756 C758 1.353 . S
C756 H762 0.930 . S
N757 Li707 1.990 . S
N757 C756 1.314 . S
N757 C760 1.279 . S
C758 C756 1.353 . S
C758 C761 1.348 . S
C758 H790 0.929 . S
C759 C760 1.358 . S
C759 C761 1.356 . S
C759 H791 0.930 . S
C760 N757 1.279 . S
C760 C759 1.358 . S
C760 H763 0.930 . S
C761 C758 1.348 . S
C761 C759 1.356 . S
H762 C756 0.930 . S
H763 C760 0.930 . S
O764 Li704 1.956 . S
O764 Li705 1.970 . S
O764 Li706 1.961 . S
O764 C708 1.325 . S
O765 Li704 1.970 . S
O765 Li705 1.956 . S
O765 Li707 1.961 . S
O765 C714 1.325 . S
O766 Li704 1.961 . S
O766 Li706 1.956 . S
O766 Li707 1.970 . S
O766 C736 1.325 . S
O767 Li705 1.961 . S
O767 Li706 1.970 . S
O767 Li707 1.956 . S
O767 C742 1.325 . S
H768 C710 0.929 . S
H769 C711 0.930 . S
H770 C712 0.930 . S
H771 C713 0.930 . S
H772 C715 0.930 . S
H773 C717 0.929 . S
H774 C718 0.930 . S
H775 C719 0.930 . S
H776 C722 0.930 . S
H777 C725 0.929 . S
H778 C730 0.929 . S
H779 C731 0.925 1_556 S
H780 C738 0.929 . S
H781 C739 0.930 . S
H782 C740 0.930 . S
H783 C741 0.930 . S
H784 C743 0.929 . S
H785 C744 0.930 . S
H786 C745 0.930 . S
H787 C746 0.930 1_556 S
H788 C750 0.929 . S
H789 C752 0.930 . S
H790 C758 0.929 . S
H791 C759 0.930 . S
Li792 N809 1.990 . S
Li792 O852 1.956 . S
Li792 O853 1.970 . S
Li792 O854 1.961 . S
Li793 N817 1.990 . S
Li793 O852 1.970 . S
Li793 O853 1.956 . S
Li793 O855 1.961 . S
Li794 N839 1.990 . S
Li794 O852 1.961 . S
Li794 O854 1.956 . S
Li794 O855 1.970 . S
Li795 N845 1.990 . S
Li795 O853 1.961 . S
Li795 O854 1.970 . S
Li795 O855 1.956 . S
C796 C798 1.348 . S
C796 C799 1.356 . S
C796 O852 1.325 . S
N797 C800 1.314 . S
N797 C801 1.279 . S
C798 C796 1.348 . S
C798 C800 1.353 . S
C798 H856 0.929 . S
C799 C796 1.356 . S
C799 C801 1.358 . S
C799 H857 0.930 . S
C800 N797 1.314 . S
C800 C798 1.353 . S
C800 H858 0.930 . S
C801 N797 1.279 . S
C801 C799 1.358 . S
C801 H859 0.930 . S
C802 C805 1.348 . S
C802 C806 1.356 . S
C802 O853 1.325 . S
C803 N804 1.279 . S
C803 C806 1.358 1_655 S
C803 H860 0.930 . S
N804 C803 1.279 . S
N804 C807 1.314 . S
C805 C802 1.348 . S
C805 C807 1.353 1_455 S
C805 H861 0.929 . S
C806 C802 1.356 . S
C806 C803 1.358 1_455 S
C806 H862 0.930 . S
C807 N804 1.314 . S
C807 C805 1.353 1_655 S
C807 H863 0.930 . S
C808 N809 1.314 . S
C808 C813 1.353 1_455 S
C808 H814 0.930 . S
N809 Li792 1.990 . S
N809 C808 1.314 . S
N809 C811 1.279 . S
C810 C811 1.358 . S
C810 C812 1.356 . S
C810 H864 0.930 . S
C811 N809 1.279 . S
C811 C810 1.358 . S
C811 H815 0.930 . S
C812 C810 1.356 . S
C812 C813 1.348 1_455 S
C813 C808 1.353 1_655 S
C813 C812 1.348 1_655 S
C813 H865 0.929 . S
H814 C808 0.930 . S
H815 C811 0.930 . S
C816 N817 1.314 . S
C816 C818 1.353 . S
C816 H822 0.930 . S
N817 Li793 1.990 . S
N817 C816 1.314 . S
N817 C820 1.279 . S
C818 C816 1.353 . S
C818 C821 1.348 . S
C818 H866 0.929 . S
C819 C820 1.358 . S
C819 C821 1.356 . S
C819 H867 0.930 . S
C820 N817 1.279 . S
C820 C819 1.358 . S
C820 H823 0.930 . S
C821 C818 1.348 . S
C821 C819 1.356 . S
H822 C816 0.930 . S
H823 C820 0.930 . S
C824 C826 1.348 . S
C824 C827 1.356 . S
C824 O854 1.325 . S
N825 C828 1.314 . S
N825 C829 1.279 . S
C826 C824 1.348 . S
C826 C828 1.353 . S
C826 H868 0.929 . S
C827 C824 1.356 . S
C827 C829 1.358 . S
C827 H869 0.930 . S
C828 N825 1.314 . S
C828 C826 1.353 . S
C828 H870 0.930 . S
C829 N825 1.279 . S
C829 C827 1.358 . S
C829 H871 0.930 . S
C830 C831 1.348 . S
C830 C832 1.356 . S
C830 O855 1.325 . S
C831 C830 1.348 . S
C831 C833 1.353 . S
C831 H872 0.929 . S
C832 C830 1.356 . S
C832 C834 1.358 . S
C832 H873 0.930 . S
C833 C831 1.353 . S
C833 N835 1.314 . S
C833 H874 0.930 . S
C834 C832 1.358 . S
C834 N835 1.279 . S
C834 H875 0.930 . S
N835 C833 1.314 . S
N835 C834 1.279 . S
C836 C838 1.353 . S
C836 N839 1.314 . S
C836 H842 0.930 . S
C837 N839 1.279 . S
C837 C840 1.358 . S
C837 H843 0.930 . S
C838 C836 1.353 . S
C838 C841 1.348 . S
C838 H876 0.929 . S
N839 Li794 1.990 . S
N839 C836 1.314 . S
N839 C837 1.279 . S
C840 C837 1.358 . S
C840 C841 1.356 . S
C840 H877 0.930 . S
C841 C838 1.348 . S
C841 C840 1.356 . S
H842 C836 0.930 . S
H843 C837 0.930 . S
C844 N845 1.314 1_655 S
C844 C846 1.353 . S
C844 H850 0.930 . S
N845 Li795 1.990 . S
N845 C844 1.314 1_455 S
N845 C848 1.279 . S
C846 C844 1.353 . S
C846 C849 1.348 . S
C846 H878 0.929 . S
C847 C848 1.358 . S
C847 C849 1.356 1_455 S
C847 H879 0.930 . S
C848 N845 1.279 . S
C848 C847 1.358 . S
C848 H851 0.930 . S
C849 C846 1.348 . S
C849 C847 1.356 1_655 S
H850 C844 0.930 . S
H851 C848 0.930 . S
O852 Li792 1.956 . S
O852 Li793 1.970 . S
O852 Li794 1.961 . S
O852 C796 1.325 . S
O853 Li792 1.970 . S
O853 Li793 1.956 . S
O853 Li795 1.961 . S
O853 C802 1.325 . S
O854 Li792 1.961 . S
O854 Li794 1.956 . S
O854 Li795 1.970 . S
O854 C824 1.325 . S
O855 Li793 1.961 . S
O855 Li794 1.970 . S
O855 Li795 1.956 . S
O855 C830 1.325 . S
H856 C798 0.929 . S
H857 C799 0.930 . S
H858 C800 0.930 . S
H859 C801 0.930 . S
H860 C803 0.930 . S
H861 C805 0.929 . S
H862 C806 0.930 . S
H863 C807 0.930 . S
H864 C810 0.930 . S
H865 C813 0.929 . S
H866 C818 0.929 . S
H867 C819 0.930 . S
H868 C826 0.929 . S
H869 C827 0.930 . S
H870 C828 0.930 . S
H871 C829 0.930 . S
H872 C831 0.929 . S
H873 C832 0.930 . S
H874 C833 0.930 . S
H875 C834 0.930 . S
H876 C838 0.929 . S
H877 C840 0.930 . S
H878 C846 0.929 . S
H879 C847 0.930 . S
Li880 N897 1.990 . S
Li880 O940 1.956 . S
Li880 O941 1.970 . S
Li880 O942 1.961 . S
Li881 N905 1.990 . S
Li881 O940 1.970 . S
Li881 O941 1.956 . S
Li881 O943 1.961 . S
Li882 N927 1.990 . S
Li882 O940 1.961 . S
Li882 O942 1.956 . S
Li882 O943 1.970 . S
Li883 N933 1.990 . S
Li883 O941 1.961 . S
Li883 O942 1.970 . S
Li883 O943 1.956 . S
C884 C886 1.348 . S
C884 C887 1.356 . S
C884 O940 1.325 . S
N885 C888 1.314 . S
N885 C889 1.279 . S
C886 C884 1.348 . S
C886 C888 1.353 . S
C886 H944 0.929 . S
C887 C884 1.356 . S
C887 C889 1.358 . S
C887 H945 0.930 . S
C888 N885 1.314 . S
C888 C886 1.353 . S
C888 H946 0.930 . S
C889 N885 1.279 . S
C889 C887 1.358 . S
C889 H947 0.930 . S
C890 C893 1.348 . S
C890 C894 1.356 . S
C890 O941 1.325 . S
C891 N892 1.279 . S
C891 C894 1.358 1_554 S
C891 H948 0.930 . S
N892 C891 1.279 . S
N892 C895 1.314 1_554 S
C893 C890 1.348 . S
C893 C895 1.353 . S
C893 H949 0.929 . S
C894 C890 1.356 . S
C894 C891 1.358 1_556 S
C894 H950 0.930 . S
C895 N892 1.314 1_556 S
C895 C893 1.353 . S
C895 H951 0.930 . S
C896 N897 1.314 . S
C896 C901 1.353 . S
C896 H902 0.930 . S
N897 Li880 1.990 . S
N897 C896 1.314 . S
N897 C899 1.279 . S
C898 C899 1.358 . S
C898 C900 1.356 . S
C898 H952 0.930 . S
C899 N897 1.279 . S
C899 C898 1.358 . S
C899 H903 0.930 . S
C900 C898 1.356 . S
C900 C901 1.348 . S
C901 C896 1.353 . S
C901 C900 1.348 . S
C901 H953 0.929 . S
H902 C896 0.930 . S
H903 C899 0.930 . S
C904 N905 1.314 1_565 S
C904 C906 1.353 . S
C904 H910 0.930 . S
N905 Li881 1.990 . S
N905 C904 1.314 1_545 S
N905 C908 1.279 . S
C906 C904 1.353 . S
C906 C909 1.348 . S
C906 H954 0.929 . S
C907 C908 1.358 . S
C907 C909 1.356 1_545 S
C907 H955 0.930 . S
C908 N905 1.279 . S
C908 C907 1.358 . S
C908 H911 0.930 . S
C909 C906 1.348 . S
C909 C907 1.356 1_565 S
H910 C904 0.930 . S
H911 C908 0.930 . S
C912 C914 1.348 . S
C912 C915 1.356 . S
C912 O942 1.325 . S
N913 C916 1.314 . S
N913 C917 1.279 . S
C914 C912 1.348 . S
C914 C916 1.353 . S
C914 H956 0.929 . S
C915 C912 1.356 . S
C915 C917 1.358 . S
C915 H957 0.930 . S
C916 N913 1.314 . S
C916 C914 1.353 . S
C916 H958 0.930 . S
C917 N913 1.279 . S
C917 C915 1.358 . S
C917 H959 0.930 . S
C918 C919 1.348 . S
C918 C920 1.356 . S
C918 O943 1.325 . S
C919 C918 1.348 . S
C919 C921 1.353 1_545 S
C919 H960 0.929 . S
C920 C918 1.356 . S
C920 C922 1.358 1_545 S
C920 H961 0.930 . S
C921 C919 1.353 1_565 S
C921 N923 1.314 . S
C921 H962 0.930 . S
C922 C920 1.358 1_565 S
C922 N923 1.279 . S
C922 H963 0.930 . S
N923 C921 1.314 . S
N923 C922 1.279 . S
C924 C926 1.353 1_545 S
C924 N927 1.314 . S
C924 H930 0.930 . S
C925 N927 1.279 . S
C925 C928 1.358 . S
C925 H931 0.930 . S
C926 C924 1.353 1_565 S
C926 C929 1.348 1_565 S
C926 H964 0.929 . S
N927 Li882 1.990 . S
N927 C924 1.314 . S
N927 C925 1.279 . S
C928 C925 1.358 . S
C928 C929 1.356 . S
C928 H965 0.930 . S
C929 C926 1.348 1_545 S
C929 C928 1.356 . S
H930 C924 0.930 . S
H931 C925 0.930 . S
C932 N933 1.314 . S
C932 C934 1.353 . S
C932 H938 0.930 . S
N933 Li883 1.990 . S
N933 C932 1.314 . S
N933 C936 1.279 . S
C934 C932 1.353 . S
C934 C937 1.348 . S
C934 H966 0.929 . S
C935 C936 1.358 . S
C935 C937 1.356 . S
C935 H967 0.930 . S
C936 N933 1.279 . S
C936 C935 1.358 . S
C936 H939 0.930 . S
C937 C934 1.348 . S
C937 C935 1.356 . S
H938 C932 0.930 . S
H939 C936 0.930 . S
O940 Li880 1.956 . S
O940 Li881 1.970 . S
O940 Li882 1.961 . S
O940 C884 1.325 . S
O941 Li880 1.970 . S
O941 Li881 1.956 . S
O941 Li883 1.961 . S
O941 C890 1.325 . S
O942 Li880 1.961 . S
O942 Li882 1.956 . S
O942 Li883 1.970 . S
O942 C912 1.325 . S
O943 Li881 1.961 . S
O943 Li882 1.970 . S
O943 Li883 1.956 . S
O943 C918 1.325 . S
H944 C886 0.929 . S
H945 C887 0.930 . S
H946 C888 0.930 . S
H947 C889 0.930 . S
H948 C891 0.930 . S
H949 C893 0.929 . S
H950 C894 0.930 . S
H951 C895 0.930 . S
H952 C898 0.930 . S
H953 C901 0.929 . S
H954 C906 0.929 . S
H955 C907 0.930 . S
H956 C914 0.929 . S
H957 C915 0.930 . S
H958 C916 0.930 . S
H959 C917 0.930 . S
H960 C919 0.929 . S
H961 C920 0.930 . S
H962 C921 0.930 . S
H963 C922 0.930 . S
H964 C926 0.929 . S
H965 C928 0.930 . S
H966 C934 0.929 . S
H967 C935 0.930 . S
Li968 N985 1.990 . S
Li968 O1028 1.956 . S
Li968 O1029 1.970 . S
Li968 O1030 1.961 . S
Li969 N993 1.990 . S
Li969 O1028 1.970 . S
Li969 O1029 1.956 . S
Li969 O1031 1.961 . S
Li970 N1015 1.990 . S
Li970 O1028 1.961 . S
Li970 O1030 1.956 . S
Li970 O1031 1.970 . S
Li971 N1021 1.990 . S
Li971 O1029 1.961 . S
Li971 O1030 1.970 . S
Li971 O1031 1.956 . S
C972 C974 1.348 . S
C972 C975 1.356 . S
C972 O1028 1.325 . S
N973 C976 1.314 . S
N973 C977 1.279 . S
C974 C972 1.348 . S
C974 C976 1.353 . S
C974 H1032 0.929 . S
C975 C972 1.356 . S
C975 C977 1.358 . S
C975 H1033 0.930 . S
C976 N973 1.314 . S
C976 C974 1.353 . S
C976 H1034 0.930 . S
C977 N973 1.279 . S
C977 C975 1.358 . S
C977 H1035 0.930 . S
C978 C981 1.348 . S
C978 C982 1.356 . S
C978 O1029 1.325 . S
C979 N980 1.279 . S
C979 C982 1.358 . S
C979 H1036 0.930 1_554 S
N980 C979 1.279 . S
N980 C983 1.314 . S
C981 C978 1.348 . S
C981 C983 1.353 . S
C981 H1037 0.929 . S
C982 C978 1.356 . S
C982 C979 1.358 . S
C982 H1038 0.930 . S
C983 N980 1.314 . S
C983 C981 1.353 . S
C983 H1039 0.930 . S
C984 N985 1.314 . S
C984 C989 1.353 . S
C984 H990 0.930 . S
N985 Li968 1.990 . S
N985 C984 1.314 . S
N985 C987 1.279 . S
C986 C987 1.358 . S
C986 C988 1.356 . S
C986 H1040 0.930 . S
C987 N985 1.279 . S
C987 C986 1.358 . S
C987 H991 0.930 . S
C988 C986 1.356 . S
C988 C989 1.348 . S
C989 C984 1.353 . S
C989 C988 1.348 . S
C989 H1041 0.929 . S
H990 C984 0.930 . S
H991 C987 0.930 . S
C992 N993 1.314 . S
C992 C994 1.353 . S
C992 H998 0.930 . S
N993 Li969 1.990 . S
N993 C992 1.314 . S
N993 C996 1.279 . S
C994 C992 1.353 . S
C994 C997 1.348 . S
C994 H1042 0.929 . S
C995 C996 1.358 . S
C995 C997 1.356 . S
C995 H1043 0.930 . S
C996 N993 1.279 . S
C996 C995 1.358 . S
C996 H999 0.930 . S
C997 C994 1.348 . S
C997 C995 1.356 . S
H998 C992 0.930 . S
H999 C996 0.930 . S
C1000 C1002 1.348 . S
C1000 C1003 1.356 . S
C1000 O1030 1.325 . S
N1001 C1004 1.314 . S
N1001 C1005 1.279 . S
C1002 C1000 1.348 . S
C1002 C1004 1.353 . S
C1002 H1044 0.929 . S
C1003 C1000 1.356 . S
C1003 C1005 1.358 . S
C1003 H1045 0.930 . S
C1004 N1001 1.314 . S
C1004 C1002 1.353 . S
C1004 H1046 0.930 . S
C1005 N1001 1.279 . S
C1005 C1003 1.358 . S
C1005 H1047 0.930 . S
C1006 C1007 1.348 . S
C1006 C1008 1.356 . S
C1006 O1031 1.325 . S
C1007 C1006 1.348 . S
C1007 C1009 1.353 . S
C1007 H1048 0.929 . S
C1008 C1006 1.356 . S
C1008 C1010 1.358 . S
C1008 H1049 0.930 . S
C1009 C1007 1.353 . S
C1009 N1011 1.314 . S
C1009 H1050 0.930 . S
C1010 C1008 1.358 . S
C1010 N1011 1.279 . S
C1010 H1051 0.930 . S
N1011 C1009 1.314 . S
N1011 C1010 1.279 . S
C1012 C1014 1.353 . S
C1012 N1015 1.314 . S
C1012 H1018 0.930 . S
C1013 N1015 1.279 . S
C1013 C1016 1.358 . S
C1013 H1019 0.930 . S
C1014 C1012 1.353 . S
C1014 C1017 1.348 . S
C1014 H1052 0.929 . S
N1015 Li970 1.990 . S
N1015 C1012 1.314 . S
N1015 C1013 1.279 . S
C1016 C1013 1.358 . S
C1016 C1017 1.356 . S
C1016 H1053 0.930 . S
C1017 C1014 1.348 . S
C1017 C1016 1.356 . S
H1018 C1012 0.930 . S
H1019 C1013 0.930 . S
C1020 N1021 1.314 . S
C1020 C1022 1.353 . S
C1020 H1026 0.930 . S
N1021 Li971 1.990 . S
N1021 C1020 1.314 . S
N1021 C1024 1.279 . S
C1022 C1020 1.353 . S
C1022 C1025 1.348 1_554 S
C1022 H1054 0.930 . S
C1023 C1024 1.366 . S
C1023 C1025 1.353 1_554 S
C1023 H1055 0.925 1_554 S
C1024 N1021 1.279 . S
C1024 C1023 1.366 . S
C1024 H1027 0.930 . S
C1025 C1022 1.348 1_556 S
C1025 C1023 1.353 1_556 S
H1026 C1020 0.930 . S
H1027 C1024 0.930 . S
O1028 Li968 1.956 . S
O1028 Li969 1.970 . S
O1028 Li970 1.961 . S
O1028 C972 1.325 . S
O1029 Li968 1.970 . S
O1029 Li969 1.956 . S
O1029 Li971 1.961 . S
O1029 C978 1.325 . S
O1030 Li968 1.961 . S
O1030 Li970 1.956 . S
O1030 Li971 1.970 . S
O1030 C1000 1.325 . S
O1031 Li969 1.961 . S
O1031 Li970 1.970 . S
O1031 Li971 1.956 . S
O1031 C1006 1.325 . S
H1032 C974 0.929 . S
H1033 C975 0.930 . S
H1034 C976 0.930 . S
H1035 C977 0.930 . S
H1036 C979 0.930 1_556 S
H1037 C981 0.929 . S
H1038 C982 0.930 . S
H1039 C983 0.930 . S
H1040 C986 0.930 . S
H1041 C989 0.929 . S
H1042 C994 0.929 . S
H1043 C995 0.930 . S
H1044 C1002 0.929 . S
H1045 C1003 0.930 . S
H1046 C1004 0.930 . S
H1047 C1005 0.930 . S
H1048 C1007 0.929 . S
H1049 C1008 0.930 . S
H1050 C1009 0.930 . S
H1051 C1010 0.930 . S
H1052 C1014 0.929 . S
H1053 C1016 0.930 . S
H1054 C1022 0.930 . S
H1055 C1023 0.925 1_556 S
C49 C937 1.261 1_554 S
C1017 C117 1.262 . S
C585 C196 1.261 . S
C284 C645 1.261 1_554 S
C401 C724 1.261 . S
C821 C489 1.261 . S
C20 C673 2.714 1_564 S
C753 C145 2.714 . S
C849 C225 2.714 1_655 S
C313 C909 2.714 1_544 S
C988 C372 2.714 . S
C460 C557 2.714 1_655 S
C293 C57 2.611 1_565 S
C409 C108 2.608 . S
C497 C205 2.611 1_455 S
C577 C812 2.610 1_655 S
C636 C929 2.610 1_565 S
C733 C1025 2.610 . S
C761 C29 4.625 . S
C841 C137 4.623 . S
C900 C233 4.626 . S
C997 C321 4.625 . S
C548 C381 4.623 . S
C469 C665 4.626 . S
