# Generated by pormake.
# Topology uon, (4)-cn, num edge types: 1
# Building blocks:
#     Node 0, Type 0, BuildingBlock: NAWXER_clean_sbu_0, # of connection points: 4
#     Node 1, Type 0, BuildingBlock: NAWXER_clean_sbu_0, # of connection points: 4
#     Node 2, Type 0, BuildingBlock: NAWXER_clean_sbu_0, # of connection points: 4
#     Node 3, Type 0, BuildingBlock: NAWXER_clean_sbu_0, # of connection points: 4
#     Node 4, Type 0, BuildingBlock: NAWXER_clean_sbu_0, # of connection points: 4
#     Node 5, Type 0, BuildingBlock: NAWXER_clean_sbu_0, # of connection points: 4
#     Edge 6, Type (0, 0), BuildingBlock: FUNLAD_clean_linker_1, # of connection points: 2
#     Edge 7, Type (0, 0), BuildingBlock: FUNLAD_clean_linker_1, # of connection points: 2
#     Edge 8, Type (0, 0), BuildingBlock: FUNLAD_clean_linker_1, # of connection points: 2
#     Edge 9, Type (0, 0), BuildingBlock: FUNLAD_clean_linker_1, # of connection points: 2
#     Edge 10, Type (0, 0), BuildingBlock: FUNLAD_clean_linker_1, # of connection points: 2
#     Edge 11, Type (0, 0), BuildingBlock: FUNLAD_clean_linker_1, # of connection points: 2
#     Edge 12, Type (0, 0), BuildingBlock: FUNLAD_clean_linker_1, # of connection points: 2
#     Edge 13, Type (0, 0), BuildingBlock: FUNLAD_clean_linker_1, # of connection points: 2
#     Edge 14, Type (0, 0), BuildingBlock: FUNLAD_clean_linker_1, # of connection points: 2
#     Edge 15, Type (0, 0), BuildingBlock: FUNLAD_clean_linker_1, # of connection points: 2
#     Edge 16, Type (0, 0), BuildingBlock: FUNLAD_clean_linker_1, # of connection points: 2
#     Edge 17, Type (0, 0), BuildingBlock: FUNLAD_clean_linker_1, # of connection points: 2
# Relax obj value: 0.135
# Max RMSD: 0.134
# Mean RMSD: 0.134
data_MOF--net-uon--node1-NAWXER_clean_sbu_0--edge1-FUNLAD_clean_linker_1
_symmetry_space_group_name_H-M    P1
_symmetry_Int_Tables_number       1
_symmetry_cell_setting            triclinic
loop_
_symmetry_equiv_pos_as_xyz
'x, y, z'
_cell_length_a     35.908381
_cell_length_b     35.931661
_cell_length_c     22.680559
_cell_angle_alpha  89.951227
_cell_angle_beta   90.083014
_cell_angle_gamma 120.12673
loop_
_atom_site_label
_atom_site_type_symbol
_atom_site_fract_x
_atom_site_fract_y
_atom_site_fract_z
_atom_type_partial_charge
C0 C 0.1342 0.38416 0.0359 0.0
C1 C 0.25338 0.50387 0.93276 0.0
O2 O 0.17092 0.39247 0.05603 0.0
Zn3 Zn 0.2373 0.43846 0.03997 0.0
O4 O 0.13204 0.40598 0.99331 0.0
Zn5 Zn 0.19326 0.4437 0.98232 0.0
O6 O 0.21702 0.40289 0.95112 0.0
O7 O 0.2617 0.40316 0.01847 0.0
O8 O 0.21351 0.48716 0.92115 0.0
O9 O 0.26561 0.48868 0.97497 0.0
O10 O 0.25503 0.47125 0.11297 0.0
O11 O 0.2102 0.48267 0.0598 0.0
C12 C 0.24319 0.39072 0.96868 0.0
C13 C 0.23373 0.49043 0.1058 0.0
C14 C 0.76048 0.13296 0.36691 0.0
C15 C 0.78102 0.25631 0.25156 0.0
O16 O 0.78682 0.16855 0.3922 0.0
Zn17 Zn 0.8133 0.23585 0.37407 0.0
O18 O 0.7443 0.13351 0.31743 0.0
Zn19 Zn 0.77091 0.19501 0.30837 0.0
O20 O 0.83858 0.21866 0.29177 0.0
O21 O 0.87426 0.25851 0.36853 0.0
O22 O 0.75606 0.21676 0.23983 0.0
O23 O 0.80315 0.26729 0.2994 0.0
O24 O 0.79229 0.25475 0.43916 0.0
O25 O 0.74114 0.21254 0.37688 0.0
C26 C 0.87439 0.2433 0.3181 0.0
C27 C 0.75298 0.2355 0.42387 0.0
C28 C 0.65226 0.86505 0.63491 0.0
C29 C 0.53806 0.75135 0.75159 0.0
O30 O 0.63807 0.82807 0.61088 0.0
Zn31 Zn 0.58972 0.76273 0.63048 0.0
O32 O 0.63788 0.86802 0.68471 0.0
Zn33 Zn 0.59757 0.80771 0.69631 0.0
O34 O 0.63589 0.77754 0.70964 0.0
O35 O 0.62014 0.73146 0.63659 0.0
O36 O 0.56211 0.79044 0.76642 0.0
O37 O 0.54525 0.73745 0.70332 0.0
O38 O 0.54998 0.7494 0.56568 0.0
O39 O 0.54998 0.79582 0.62954 0.0
C40 C 0.64072 0.74851 0.68371 0.0
C41 C 0.53498 0.77295 0.58278 0.0
C42 C 0.80767 0.63807 0.93533 0.0
C43 C 0.83433 0.53064 0.02595 0.0
O44 O 0.83184 0.62429 0.91674 0.0
Zn45 Zn 0.82522 0.58726 0.98256 0.0
O46 O 0.79049 0.62693 0.98661 0.0
Zn47 Zn 0.79018 0.58725 0.05788 0.0
O48 O 0.82146 0.62503 0.12338 0.0
O49 O 0.86444 0.63014 0.05068 0.0
O50 O 0.81294 0.54219 0.05895 0.0
O51 O 0.84931 0.54954 0.97699 0.0
O52 O 0.75694 0.53985 0.9834 0.0
O53 O 0.72946 0.54734 0.06684 0.0
C54 C 0.85918 0.64094 0.1024 0.0
C55 C 0.7247 0.52775 0.01829 0.0
C56 C 0.25582 0.7753 0.4646 0.0
C57 C 0.12042 0.75319 0.38317 0.0
O58 O 0.2609 0.79518 0.41554 0.0
Zn59 Zn 0.22101 0.80505 0.35266 0.0
O60 O 0.21873 0.75492 0.48812 0.0
Zn61 Zn 0.18913 0.76704 0.42691 0.0
O62 O 0.19834 0.73352 0.35391 0.0
O63 O 0.23133 0.7811 0.28284 0.0
O64 O 0.12722 0.74135 0.43274 0.0
O65 O 0.15239 0.77694 0.34961 0.0
O66 O 0.24391 0.86655 0.35564 0.0
O67 O 0.21538 0.83488 0.44022 0.0
C68 C 0.21526 0.74292 0.30229 0.0
C69 C 0.23578 0.86925 0.40935 0.0
C70 C 0.49396 0.26545 0.79006 0.0
C71 C 0.38832 0.13309 0.69195 0.0
O72 O 0.47913 0.27225 0.74238 0.0
Zn73 Zn 0.43221 0.23534 0.67566 0.0
O74 O 0.4803 0.22713 0.80776 0.0
Zn75 Zn 0.4401 0.19915 0.74355 0.0
O76 O 0.48297 0.21516 0.6691 0.0
O77 O 0.46761 0.2524 0.60582 0.0
O78 O 0.40698 0.137 0.74102 0.0
O79 O 0.39471 0.16683 0.66397 0.0
O80 O 0.39078 0.25443 0.68565 0.0
O81 O 0.39373 0.21827 0.76246 0.0
C82 C 0.49007 0.23547 0.62003 0.0
C83 C 0.37852 0.23973 0.73735 0.0
H84 H 0.23754 0.3567 0.88551 0.0
C85 C 0.25353 0.36505 0.92819 0.0
H86 H 0.30156 0.36456 0.98126 0.0
H87 H 0.26409 0.22274 0.7642 0.0
H88 H 0.19238 0.18042 0.80544 0.0
H89 H 0.16912 0.20797 0.88876 0.0
H90 H 0.21712 0.27823 0.9307 0.0
C91 C 0.28394 0.35475 0.93986 0.0
C92 C 0.29879 0.33581 0.89336 0.0
C93 C 0.27078 0.294 0.8707 0.0
C94 C 0.28482 0.27729 0.82431 0.0
C95 C 0.25558 0.2363 0.80077 0.0
C96 C 0.21425 0.21178 0.82381 0.0
C97 C 0.20111 0.22736 0.87058 0.0
C98 C 0.2289 0.26791 0.89398 0.0
H99 H 0.34077 0.23606 0.8156 0.0
C100 C 0.35102 0.25098 0.77243 0.0
H101 H 0.35636 0.30018 0.7162 0.0
H102 H 0.3607 0.41715 0.92641 0.0
H103 H 0.43332 0.45789 0.88822 0.0
H104 H 0.45839 0.42797 0.8102 0.0
H105 H 0.4112 0.35694 0.77034 0.0
C106 C 0.34395 0.2831 0.75756 0.0
C107 C 0.3274 0.30167 0.80225 0.0
C108 C 0.35552 0.34332 0.82525 0.0
C109 C 0.34119 0.3604 0.87074 0.0
C110 C 0.36994 0.40224 0.89247 0.0
C111 C 0.41175 0.4261 0.87082 0.0
C112 C 0.42584 0.40928 0.82683 0.0
C113 C 0.3983 0.3684 0.80428 0.0
H114 H 0.9435 0.28804 0.30467 0.0
C115 C 0.91549 0.26014 0.28608 0.0
H116 H 0.88949 0.21903 0.21285 0.0
H117 H 1.00322 0.34926 0.01696 0.0
H118 H 0.93062 0.32821 0.98649 0.0
H119 H 0.86866 0.28259 0.05022 0.0
H120 H 0.87872 0.25755 0.1445 0.0
C121 C 0.91779 0.24642 0.23173 0.0
C122 C 0.95553 0.27253 0.19243 0.0
C123 C 0.94905 0.288 0.13789 0.0
C124 C 0.98494 0.3155 0.10186 0.0
C125 C 0.97733 0.32923 0.04681 0.0
C126 C 0.93576 0.3173 0.02861 0.0
C127 C 0.90088 0.29161 0.06448 0.0
C128 C 0.9072 0.27719 0.11853 0.0
H129 H 0.09378 0.32138 0.0788 0.0
C130 C 0.09506 0.35105 0.06543 0.0
H131 H 0.06694 0.39002 0.07202 0.0
H132 H 0.97917 0.24166 0.28715 0.0
H133 H 0.05196 0.26759 0.32231 0.0
H134 H 0.11424 0.3249 0.26896 0.0
H135 H 0.10424 0.35511 0.17908 0.0
C136 C 0.06472 0.35968 0.08415 0.0
C137 C 0.02744 0.32898 0.12124 0.0
C138 C 0.03393 0.31434 0.17655 0.0
C139 C 0.99791 0.28427 0.21038 0.0
C140 C 1.00532 0.26672 0.262 0.0
C141 C 0.04693 0.28103 0.28239 0.0
C142 C 0.08199 0.31307 0.25215 0.0
C143 C 0.07577 0.32974 0.19999 0.0
H144 H 0.71461 0.06451 0.38405 0.0
C145 C 0.74518 0.09168 0.39795 0.0
H146 H 0.79648 0.11511 0.45844 0.0
H147 H 0.6997 0.99551 0.67266 0.0
H148 H 0.72798 0.06706 0.71301 0.0
H149 H 0.76338 0.13101 0.64891 0.0
H150 H 0.7715 0.12392 0.54451 0.0
C151 C 0.766 0.08772 0.44479 0.0
C152 C 0.74579 0.0487 0.48351 0.0
C153 C 0.74035 0.05344 0.54456 0.0
C154 C 0.71843 0.01644 0.58124 0.0
C155 C 0.71491 0.02232 0.64237 0.0
C156 C 0.73116 0.06327 0.66626 0.0
C157 C 0.75118 0.09926 0.63021 0.0
C158 C 0.75576 0.09464 0.57014 0.0
H159 H 0.70779 0.90377 0.57658 0.0
C160 C 0.6821 0.90392 0.60163 0.0
H161 H 0.64737 0.93545 0.61927 0.0
H162 H 0.76002 0.02788 0.37284 0.0
H163 H 0.72669 0.95637 0.3302 0.0
H164 H 0.6774 0.89265 0.38898 0.0
H165 H 0.66286 0.89984 0.49109 0.0
C166 C 0.67398 0.93638 0.59513 0.0
C167 C 0.70023 0.97459 0.55663 0.0
C168 C 0.70523 0.96985 0.49535 0.0
C169 C 0.73016 0.00689 0.45973 0.0
C170 C 0.73874 1.00106 0.40057 0.0
C171 C 0.72016 0.96017 0.37571 0.0
C172 C 0.69267 0.92429 0.40891 0.0
C173 C 0.68507 0.92887 0.46793 0.0
H174 H 0.82203 0.68673 0.86584 0.0
C175 C 0.79774 0.66511 0.89688 0.0
H176 H 0.73426 0.63858 0.92774 0.0
H177 H 0.67983 0.77011 0.85613 0.0
H178 H 0.67674 0.77112 0.96243 0.0
H179 H 0.70691 0.7356 0.0231 0.0
H180 H 0.73956 0.69806 0.97759 0.0
C181 C 0.75834 0.66092 0.89697 0.0
C182 C 0.74614 0.68728 0.85914 0.0
C183 C 0.72895 0.71097 0.88637 0.0
C184 C 0.71313 0.733 0.85133 0.0
C185 C 0.69369 0.75398 0.8801 0.0
C186 C 0.69149 0.7547 0.94134 0.0
C187 C 0.70835 0.73461 0.97549 0.0
C188 C 0.72685 0.71297 0.94865 0.0
H189 H 0.65862 0.69909 0.69999 0.0
C190 C 0.66638 0.73155 0.71154 0.0
H191 H 0.70418 0.78614 0.76372 0.0
H192 H 0.77028 0.63973 0.79045 0.0
H193 H 0.78089 0.6453 0.68485 0.0
H194 H 0.766 0.6942 0.62609 0.0
H195 H 0.73845 0.73625 0.67263 0.0
C196 C 0.69664 0.75368 0.75262 0.0
C197 C 0.71633 0.7331 0.7889 0.0
C198 C 0.7365 0.71211 0.7619 0.0
C199 C 0.74911 0.68718 0.79662 0.0
C200 C 0.76356 0.66196 0.76727 0.0
C201 C 0.7693 0.66442 0.70637 0.0
C202 C 0.76064 0.69171 0.67325 0.0
C203 C 0.74441 0.71533 0.70044 0.0
H204 H 0.92836 0.68614 0.11516 0.0
C205 C 0.89774 0.66855 0.13812 0.0
H206 H 0.86781 0.64732 0.22112 0.0
H207 H 0.04412 0.6619 0.30984 0.0
H208 H 0.99982 0.58498 0.29665 0.0
H209 H 0.92697 0.55334 0.25413 0.0
H210 H 0.89802 0.59862 0.22426 0.0
C211 C 0.89758 0.66739 0.19734 0.0
C212 C 0.93905 0.68651 0.23044 0.0
C213 C 0.95467 0.65946 0.25051 0.0
C214 C 0.99637 0.6777 0.27639 0.0
C215 C 0.01218 0.64996 0.29207 0.0
C216 C 0.98717 0.60562 0.28427 0.0
C217 C 0.94616 0.5878 0.26028 0.0
C218 C 0.92997 0.61421 0.24333 0.0
H219 H 0.04951 0.71756 0.39289 0.0
C220 C 0.07574 0.73705 0.36282 0.0
H221 H 0.09273 0.76279 0.27688 0.0
H222 H 0.91748 0.74687 0.20032 0.0
H223 H 0.96147 0.82418 0.21393 0.0
H224 H 0.03321 0.8559 0.2603 0.0
H225 H 0.06147 0.81062 0.29332 0.0
C226 C 0.06678 0.74285 0.30705 0.0
C227 C 0.02183 0.723 0.28402 0.0
C228 C 1.00562 0.74986 0.26529 0.0
C229 C 0.96423 0.73161 0.2385 0.0
C230 C 0.94888 0.75919 0.22033 0.0
C231 C 0.97371 0.80355 0.22809 0.0
C232 C 0.01411 0.82142 0.25421 0.0
C233 C 0.03 0.79506 0.27279 0.0
H234 H 0.35449 0.06193 0.69214 0.0
C235 C 0.36163 0.08996 0.66564 0.0
H236 H 0.3556 0.11258 0.5822 0.0
H237 H 0.32391 0.91753 0.52007 0.0
H238 H 0.39706 0.94445 0.55416 0.0
H239 H 0.43889 0.01692 0.5976 0.0
H240 H 0.40754 0.06248 0.60857 0.0
C241 C 0.34892 0.08477 0.60888 0.0
C242 C 0.32473 0.04152 0.5805 0.0
C243 C 0.34423 0.01586 0.57276 0.0
C244 C 0.32068 0.97465 0.54569 0.0
C245 C 0.34046 0.94923 0.53979 0.0
C246 C 0.38251 0.96434 0.55896 0.0
C247 C 0.40599 1.00509 0.58359 0.0
C248 C 0.38737 0.03077 0.59021 0.0
H249 H 0.26834 0.94035 0.40915 0.0
C250 C 0.25307 0.91199 0.43714 0.0
H251 H 0.24104 0.88876 0.52479 0.0
H252 H 0.27812 0.08273 0.58679 0.0
H253 H 0.20591 0.05661 0.5492 0.0
H254 H 0.16607 0.98602 0.49994 0.0
H255 H 0.19823 0.94103 0.48802 0.0
C256 C 0.25418 0.91673 0.49606 0.0
C257 C 0.27846 0.95991 0.52416 0.0
C258 C 0.25941 0.98593 0.53042 0.0
C259 C 0.2825 0.02673 0.5587 0.0
C260 C 0.26231 0.05171 0.56515 0.0
C261 C 0.2208 0.03704 0.54393 0.0
C262 C 0.19836 0.99729 0.5162 0.0
C263 C 0.21722 0.97183 0.50955 0.0
H264 H 0.22657 0.71678 0.22034 0.0
C265 C 0.21772 0.70995 0.26655 0.0
H266 H 0.20244 0.66587 0.33664 0.0
H267 H 0.13966 0.50005 0.1812 0.0
H268 H 0.07365 0.48525 0.23035 0.0
H269 H 0.07079 0.54088 0.29064 0.0
H270 H 0.13392 0.61146 0.30254 0.0
C271 C 0.21138 0.67292 0.2905 0.0
C272 C 0.2138 0.6394 0.25484 0.0
C273 C 0.17647 0.59833 0.24817 0.0
C274 C 0.17788 0.56652 0.21254 0.0
C275 C 0.1402 0.52565 0.20698 0.0
C276 C 0.10211 0.51666 0.2351 0.0
C277 C 0.10053 0.54795 0.26912 0.0
C278 C 0.1371 0.58835 0.27568 0.0
H279 H 0.25561 0.52796 0.18896 0.0
C280 C 0.23633 0.52218 0.14942 0.0
H281 H 0.1955 0.53779 0.10146 0.0
H282 H 0.29328 0.71167 0.26734 0.0
H283 H 0.35879 0.72698 0.21649 0.0
H284 H 0.35963 0.67412 0.14798 0.0
H285 H 0.29527 0.60525 0.13111 0.0
C286 C 0.2157 0.54428 0.1402 0.0
C287 C 0.21644 0.57591 0.18312 0.0
C288 C 0.25408 0.61662 0.19082 0.0
C289 C 0.25304 0.64801 0.22795 0.0
C290 C 0.29167 0.68746 0.23749 0.0
C291 C 0.32964 0.69654 0.20894 0.0
C292 C 0.33015 0.66672 0.17054 0.0
C293 C 0.29295 0.62718 0.16143 0.0
H294 H 0.52712 0.25309 0.5367 0.0
C295 C 0.52404 0.23887 0.58002 0.0
H296 H 0.54733 0.20959 0.63878 0.0
H297 H 0.63013 0.14276 0.45634 0.0
H298 H 0.56808 0.0761 0.48827 0.0
H299 H 0.51192 0.0767 0.55005 0.0
H300 H 0.51772 0.14397 0.58084 0.0
C301 C 0.5509 0.22473 0.59604 0.0
C302 C 0.58344 0.22515 0.55499 0.0
C303 C 0.57922 0.18551 0.53652 0.0
C304 C 0.61111 0.18517 0.49977 0.0
C305 C 0.60653 0.14502 0.48331 0.0
C306 C 0.57109 0.10644 0.50146 0.0
C307 C 0.53952 0.10677 0.53634 0.0
C308 C 0.54335 0.14569 0.55383 0.0
H309 H 0.73117 0.25511 0.50299 0.0
C310 C 0.72102 0.23922 0.46043 0.0
H311 H 0.66957 0.20691 0.40039 0.0
H312 H 0.60375 0.30692 0.5866 0.0
H313 H 0.66341 0.37356 0.54988 0.0
H314 H 0.71496 0.3729 0.47871 0.0
H315 H 0.70772 0.30559 0.44504 0.0
C316 C 0.68009 0.22351 0.44243 0.0
C317 C 0.64692 0.22451 0.48076 0.0
C318 C 0.65043 0.26419 0.49764 0.0
C319 C 0.61931 0.26453 0.53613 0.0
C320 C 0.62525 0.30465 0.55543 0.0
C321 C 0.65956 0.34321 0.53497 0.0
C322 C 0.68868 0.34284 0.4951 0.0
C323 C 0.68432 0.30392 0.47647 0.0
H324 H 0.50062 0.73039 0.83462 0.0
C325 C 0.50113 0.72205 0.7887 0.0
H326 H 0.46861 0.67799 0.71991 0.0
H327 H 0.35559 0.51197 0.86659 0.0
H328 H 0.40298 0.49368 0.81422 0.0
H329 H 0.46504 0.54863 0.75801 0.0
H330 H 0.47939 0.62198 0.75241 0.0
C331 C 0.46799 0.686 0.76598 0.0
C332 C 0.43154 0.65387 0.80254 0.0
C333 C 0.42431 0.61133 0.80657 0.0
C334 C 0.38933 0.57992 0.84044 0.0
C335 C 0.3822 0.53738 0.84245 0.0
C336 C 0.40915 0.52638 0.8126 0.0
C337 C 0.44396 0.55728 0.78072 0.0
C338 C 0.4517 0.5993 0.7777 0.0
H339 H 0.27545 0.55022 0.85844 0.0
C340 C 0.28589 0.53987 0.89697 0.0
H341 H 0.33873 0.54773 0.9478 0.0
H342 H 0.4315 0.73017 0.79621 0.0
H343 H 0.38459 0.7486 0.84963 0.0
H344 H 0.32793 0.69588 0.91536 0.0
H345 H 0.31719 0.62403 0.92687 0.0
C346 C 0.32805 0.55882 0.91028 0.0
C347 C 0.3621 0.59122 0.87118 0.0
C348 C 0.36901 0.63359 0.86688 0.0
C349 C 0.40313 0.66469 0.83129 0.0
C350 C 0.40754 0.70592 0.8248 0.0
C351 C 0.38056 0.71683 0.85486 0.0
C352 C 0.34855 0.6871 0.89169 0.0
C353 C 0.34266 0.6459 0.89776 0.0
H354 H 0.86709 0.49209 0.02787 0.0
C355 C 0.84046 0.4949 0.04538 0.0
H356 H 0.78686 0.46969 0.10222 0.0
H357 H 0.81982 0.30436 0.10231 0.0
H358 H 0.80952 0.3006 0.99626 0.0
H359 H 0.80216 0.35663 0.94343 0.0
H360 H 0.80629 0.41728 0.996 0.0
C361 C 0.8134 0.46644 0.08523 0.0
C362 C 0.82074 0.43367 0.11452 0.0
C363 C 0.81658 0.39765 0.08314 0.0
C364 C 0.81849 0.36413 0.11402 0.0
C365 C 0.81666 0.32968 0.08139 0.0
C366 C 0.81105 0.32729 0.02046 0.0
C367 C 0.8071 0.35894 0.99069 0.0
C368 C 0.80973 0.39373 0.02143 0.0
H369 H 0.75795 0.28247 0.18118 0.0
C370 C 0.78465 0.28983 0.21069 0.0
H371 H 0.8468 0.33601 0.23951 0.0
H372 H 0.83539 0.50086 0.1867 0.0
H373 H 0.84422 0.50393 0.29281 0.0
H374 H 0.84246 0.44362 0.34725 0.0
H375 H 0.83221 0.38014 0.29596 0.0
C376 C 0.82008 0.32915 0.21027 0.0
C377 C 0.82222 0.36568 0.17641 0.0
C378 C 0.82783 0.40242 0.20744 0.0
C379 C 0.82764 0.43664 0.17633 0.0
C380 C 0.83409 0.47335 0.20826 0.0
C381 C 0.83943 0.47567 0.26921 0.0
C382 C 0.83855 0.44178 0.29981 0.0
C383 C 0.83278 0.40552 0.26962 0.0
H384 H 0.28871 0.76154 0.53666 0.0
C385 C 0.29271 0.77494 0.4926 0.0
H386 H 0.33458 0.80295 0.42006 0.0
H387 H 0.50948 0.87022 0.55445 0.0
H388 H 0.51288 0.937 0.52649 0.0
H389 H 0.44984 0.93687 0.48298 0.0
H390 H 0.38301 0.86998 0.46706 0.0
C391 C 0.33021 0.78909 0.46388 0.0
C392 C 0.36767 0.78869 0.49134 0.0
C393 C 0.40627 0.82819 0.50125 0.0
C394 C 0.44238 0.82833 0.52733 0.0
C395 C 0.4808 0.86823 0.5357 0.0
C396 C 0.48327 0.90684 0.51971 0.0
C397 C 0.44779 0.90676 0.49515 0.0
C398 C 0.40964 0.86805 0.48606 0.0
H399 H 0.48893 0.75579 0.50876 0.0
C400 C 0.49891 0.77241 0.55084 0.0
H401 H 0.48707 0.80703 0.61625 0.0
H402 H 0.30124 0.70685 0.46951 0.0
H403 H 0.29658 0.64032 0.50155 0.0
H404 H 0.35622 0.64103 0.55666 0.0
H405 H 0.42129 0.70815 0.57838 0.0
C406 C 0.47694 0.79001 0.57446 0.0
C407 C 0.43964 0.78903 0.54428 0.0
C408 C 0.40087 0.7495 0.5349 0.0
C409 C 0.36537 0.74925 0.50656 0.0
C410 C 0.32829 0.70915 0.49368 0.0
C411 C 0.32531 0.67063 0.51141 0.0
C412 C 0.35895 0.67102 0.54217 0.0
C413 C 0.39633 0.70986 0.55395 0.0
H414 H 0.54055 0.33409 0.80119 0.0
C415 C 0.52658 0.30299 0.82308 0.0
H416 H 0.52524 0.27041 0.90138 0.0
H417 H 0.71324 0.41995 0.97264 0.0
H418 H 0.72311 0.35814 0.96488 0.0
H419 H 0.66405 0.28801 0.93086 0.0
H420 H 0.59444 0.27906 0.90497 0.0
C421 C 0.53837 0.30109 0.8787 0.0
C422 C 0.57153 0.3411 0.9086 0.0
C423 C 0.6119 0.34569 0.92363 0.0
C424 C 0.64623 0.38637 0.94212 0.0
C425 C 0.68626 0.39003 0.95717 0.0
C426 C 0.69236 0.35477 0.95317 0.0
C427 C 0.65907 0.31526 0.93408 0.0
C428 C 0.61927 0.31058 0.91931 0.0
H429 H 0.65744 0.47712 0.03666 0.0
C430 C 0.68328 0.48877 1.00445 0.0
H431 H 0.70484 0.47659 0.92422 0.0
H432 H 0.49508 0.34007 0.89919 0.0
H433 H 0.48441 0.4014 0.9083 0.0
H434 H 0.54544 0.47366 0.93054 0.0
H435 H 0.61707 0.48469 0.94628 0.0
C436 C 0.67834 0.46588 0.95522 0.0
C437 C 0.64025 0.42251 0.94481 0.0
C438 C 0.59902 0.41725 0.93345 0.0
C439 C 0.56432 0.37614 0.91708 0.0
C440 C 0.52291 0.37106 0.90903 0.0
C441 C 0.51631 0.40592 0.9144 0.0
C442 C 0.55063 0.44654 0.9273 0.0
C443 C 0.5916 0.45237 0.93658 0.0
loop_
_geom_bond_atom_site_label_1
_geom_bond_atom_site_label_2
_geom_bond_distance
_geom_bond_site_symmetry_2
_ccdc_geom_bond_type
C0 O2 1.247 . S
C0 O4 1.258 . S
C1 O8 1.247 . S
C1 O9 1.258 1_556 S
O2 C0 1.247 . S
O2 Zn3 2.028 . S
Zn3 O2 2.028 . S
Zn3 O7 2.035 . S
Zn3 O9 2.035 . S
Zn3 O10 2.028 . S
O4 C0 1.258 . S
O4 Zn5 2.035 1_554 S
Zn5 O4 2.035 1_556 S
Zn5 O6 2.028 . S
Zn5 O8 2.028 . S
Zn5 O11 2.035 1_556 S
O6 Zn5 2.028 . S
O6 C12 1.247 . S
O7 Zn3 2.035 . S
O7 C12 1.258 1_554 S
O8 C1 1.247 . S
O8 Zn5 2.028 . S
O9 C1 1.258 1_554 S
O9 Zn3 2.035 . S
O10 Zn3 2.028 . S
O10 C13 1.247 . S
O11 Zn5 2.035 1_554 S
O11 C13 1.258 . S
C12 O6 1.247 . S
C12 O7 1.258 1_556 S
C13 O10 1.247 . S
C13 O11 1.258 . S
C14 O16 1.247 . S
C14 O18 1.258 . S
C15 O22 1.247 . S
C15 O23 1.258 . S
O16 C14 1.247 . S
O16 Zn17 2.028 . S
Zn17 O16 2.028 . S
Zn17 O21 2.035 . S
Zn17 O23 2.035 . S
Zn17 O24 2.028 . S
O18 C14 1.258 . S
O18 Zn19 2.035 . S
Zn19 O18 2.035 . S
Zn19 O20 2.028 . S
Zn19 O22 2.028 . S
Zn19 O25 2.035 . S
O20 Zn19 2.028 . S
O20 C26 1.247 . S
O21 Zn17 2.035 . S
O21 C26 1.258 . S
O22 C15 1.247 . S
O22 Zn19 2.028 . S
O23 C15 1.258 . S
O23 Zn17 2.035 . S
O24 Zn17 2.028 . S
O24 C27 1.247 . S
O25 Zn19 2.035 . S
O25 C27 1.258 . S
C26 O20 1.247 . S
C26 O21 1.258 . S
C27 O24 1.247 . S
C27 O25 1.258 . S
C28 O30 1.247 . S
C28 O32 1.258 . S
C29 O36 1.247 . S
C29 O37 1.258 . S
O30 C28 1.247 . S
O30 Zn31 2.028 . S
Zn31 O30 2.028 . S
Zn31 O35 2.035 . S
Zn31 O37 2.035 . S
Zn31 O38 2.028 . S
O32 C28 1.258 . S
O32 Zn33 2.035 . S
Zn33 O32 2.035 . S
Zn33 O34 2.028 . S
Zn33 O36 2.028 . S
Zn33 O39 2.035 . S
O34 Zn33 2.028 . S
O34 C40 1.247 . S
O35 Zn31 2.035 . S
O35 C40 1.258 . S
O36 C29 1.247 . S
O36 Zn33 2.028 . S
O37 C29 1.258 . S
O37 Zn31 2.035 . S
O38 Zn31 2.028 . S
O38 C41 1.247 . S
O39 Zn33 2.035 . S
O39 C41 1.258 . S
C40 O34 1.247 . S
C40 O35 1.258 . S
C41 O38 1.247 . S
C41 O39 1.258 . S
C42 O44 1.247 . S
C42 O46 1.258 1_556 S
C43 O50 1.247 . S
C43 O51 1.258 . S
O44 C42 1.247 . S
O44 Zn45 2.028 . S
Zn45 O44 2.028 . S
Zn45 O49 2.035 1_556 S
Zn45 O51 2.035 1_556 S
Zn45 O52 2.028 . S
O46 C42 1.258 1_554 S
O46 Zn47 2.035 . S
Zn47 O46 2.035 . S
Zn47 O48 2.028 . S
Zn47 O50 2.028 . S
Zn47 O53 2.035 . S
O48 Zn47 2.028 . S
O48 C54 1.247 . S
O49 Zn45 2.035 1_554 S
O49 C54 1.258 . S
O50 C43 1.247 . S
O50 Zn47 2.028 . S
O51 C43 1.258 . S
O51 Zn45 2.035 1_554 S
O52 Zn45 2.028 . S
O52 C55 1.247 . S
O53 Zn47 2.035 . S
O53 C55 1.258 1_554 S
C54 O48 1.247 . S
C54 O49 1.258 . S
C55 O52 1.247 . S
C55 O53 1.258 1_556 S
C56 O58 1.247 . S
C56 O60 1.258 . S
C57 O64 1.247 . S
C57 O65 1.258 . S
O58 C56 1.247 . S
O58 Zn59 2.028 . S
Zn59 O58 2.028 . S
Zn59 O63 2.035 . S
Zn59 O65 2.035 . S
Zn59 O66 2.028 . S
O60 C56 1.258 . S
O60 Zn61 2.035 . S
Zn61 O60 2.035 . S
Zn61 O62 2.028 . S
Zn61 O64 2.028 . S
Zn61 O67 2.035 . S
O62 Zn61 2.028 . S
O62 C68 1.247 . S
O63 Zn59 2.035 . S
O63 C68 1.258 . S
O64 C57 1.247 . S
O64 Zn61 2.028 . S
O65 C57 1.258 . S
O65 Zn59 2.035 . S
O66 Zn59 2.028 . S
O66 C69 1.247 . S
O67 Zn61 2.035 . S
O67 C69 1.258 . S
C68 O62 1.247 . S
C68 O63 1.258 . S
C69 O66 1.247 . S
C69 O67 1.258 . S
C70 O72 1.247 . S
C70 O74 1.258 . S
C71 O78 1.247 . S
C71 O79 1.258 . S
O72 C70 1.247 . S
O72 Zn73 2.028 . S
Zn73 O72 2.028 . S
Zn73 O77 2.035 . S
Zn73 O79 2.035 . S
Zn73 O80 2.028 . S
O74 C70 1.258 . S
O74 Zn75 2.035 . S
Zn75 O74 2.035 . S
Zn75 O76 2.028 . S
Zn75 O78 2.028 . S
Zn75 O81 2.035 . S
O76 Zn75 2.028 . S
O76 C82 1.247 . S
O77 Zn73 2.035 . S
O77 C82 1.258 . S
O78 C71 1.247 . S
O78 Zn75 2.028 . S
O79 C71 1.258 . S
O79 Zn73 2.035 . S
O80 Zn73 2.028 . S
O80 C83 1.247 . S
O81 Zn75 2.035 . S
O81 C83 1.258 . S
C82 O76 1.247 . S
C82 O77 1.258 . S
C83 O80 1.247 . S
C83 O81 1.258 . S
H84 C85 0.951 . S
C85 H84 0.951 . S
C85 C91 1.265 . S
H86 C91 0.950 . S
H87 C95 0.949 . S
H88 C96 0.950 . S
H89 C97 0.951 1_554 S
H90 C98 0.951 . S
C91 C85 1.265 . S
C91 H86 0.950 . S
C91 C92 1.478 . S
C92 C91 1.478 . S
C92 C93 1.397 . S
C92 C109 1.394 . S
C93 C92 1.397 . S
C93 C94 1.438 . S
C93 C98 1.429 . S
C94 C93 1.438 . S
C94 C95 1.428 . S
C94 C107 1.394 . S
C95 H87 0.949 . S
C95 C94 1.428 . S
C95 C96 1.345 . S
C96 H88 0.950 . S
C96 C95 1.345 . S
C96 C97 1.424 . S
C97 H89 0.951 1_556 S
C97 C96 1.424 . S
C97 C98 1.347 . S
C98 H90 0.951 . S
C98 C93 1.429 . S
C98 C97 1.347 . S
H99 C100 0.951 . S
C100 H99 0.951 . S
C100 C106 1.265 . S
H101 C106 0.950 . S
H102 C110 0.949 . S
H103 C111 0.950 . S
H104 C112 0.951 . S
H105 C113 0.951 . S
C106 C100 1.265 . S
C106 H101 0.950 . S
C106 C107 1.478 . S
C107 C94 1.394 . S
C107 C106 1.478 . S
C107 C108 1.397 . S
C108 C107 1.397 . S
C108 C109 1.438 . S
C108 C113 1.429 . S
C109 C92 1.394 . S
C109 C108 1.438 . S
C109 C110 1.428 . S
C110 H102 0.949 . S
C110 C109 1.428 . S
C110 C111 1.345 . S
C111 H103 0.950 . S
C111 C110 1.345 . S
C111 C112 1.424 . S
C112 H104 0.951 . S
C112 C111 1.424 . S
C112 C113 1.347 . S
C113 H105 0.951 . S
C113 C108 1.429 . S
C113 C112 1.347 . S
H114 C115 0.951 . S
C115 H114 0.951 . S
C115 C121 1.265 . S
H116 C121 0.950 . S
H117 C125 0.949 . S
H118 C126 0.950 . S
H119 C127 0.951 . S
H120 C128 0.951 . S
C121 C115 1.265 . S
C121 H116 0.950 . S
C121 C122 1.478 . S
C122 C121 1.478 . S
C122 C123 1.397 . S
C122 C139 1.394 . S
C123 C122 1.397 . S
C123 C124 1.438 1_655 S
C123 C128 1.429 . S
C124 C123 1.438 1_455 S
C124 C125 1.428 . S
C124 C137 1.394 . S
C125 H117 0.949 . S
C125 C124 1.428 . S
C125 C126 1.345 1_455 S
C126 H118 0.950 . S
C126 C125 1.345 1_655 S
C126 C127 1.424 . S
C127 H119 0.951 . S
C127 C126 1.424 . S
C127 C128 1.347 . S
C128 H120 0.951 . S
C128 C123 1.429 . S
C128 C127 1.347 . S
H129 C130 0.951 . S
C130 H129 0.951 . S
C130 C136 1.265 . S
H131 C136 0.950 . S
H132 C140 0.949 . S
H133 C141 0.950 . S
H134 C142 0.951 . S
H135 C143 0.951 . S
C136 C130 1.265 . S
C136 H131 0.950 . S
C136 C137 1.478 . S
C137 C124 1.394 . S
C137 C136 1.478 . S
C137 C138 1.397 . S
C138 C137 1.397 . S
C138 C139 1.438 1_455 S
C138 C143 1.429 . S
C139 C122 1.394 . S
C139 C138 1.438 1_655 S
C139 C140 1.428 . S
C140 H132 0.949 . S
C140 C139 1.428 . S
C140 C141 1.345 1_655 S
C141 H133 0.950 . S
C141 C140 1.345 1_455 S
C141 C142 1.424 . S
C142 H134 0.951 . S
C142 C141 1.424 . S
C142 C143 1.347 . S
C143 H135 0.951 . S
C143 C138 1.429 . S
C143 C142 1.347 . S
H144 C145 0.951 . S
C145 H144 0.951 . S
C145 C151 1.265 . S
H146 C151 0.950 . S
H147 C155 0.949 . S
H148 C156 0.950 . S
H149 C157 0.951 . S
H150 C158 0.951 . S
C151 C145 1.265 . S
C151 H146 0.950 . S
C151 C152 1.478 . S
C152 C151 1.478 . S
C152 C153 1.397 . S
C152 C169 1.394 . S
C153 C152 1.397 . S
C153 C154 1.438 1_545 S
C153 C158 1.429 . S
C154 C153 1.438 1_565 S
C154 C155 1.428 . S
C154 C167 1.394 . S
C155 H147 0.949 . S
C155 C154 1.428 . S
C155 C156 1.345 1_565 S
C156 H148 0.950 . S
C156 C155 1.345 1_545 S
C156 C157 1.424 . S
C157 H149 0.951 . S
C157 C156 1.424 . S
C157 C158 1.347 . S
C158 H150 0.951 . S
C158 C153 1.429 . S
C158 C157 1.347 . S
H159 C160 0.951 . S
C160 H159 0.951 . S
C160 C166 1.265 . S
H161 C166 0.950 . S
H162 C170 0.949 . S
H163 C171 0.950 . S
H164 C172 0.951 . S
H165 C173 0.951 . S
C166 C160 1.265 . S
C166 H161 0.950 . S
C166 C167 1.478 . S
C167 C154 1.394 . S
C167 C166 1.478 . S
C167 C168 1.397 . S
C168 C167 1.397 . S
C168 C169 1.438 1_565 S
C168 C173 1.429 . S
C169 C152 1.394 . S
C169 C168 1.438 1_545 S
C169 C170 1.428 . S
C170 H162 0.949 . S
C170 C169 1.428 . S
C170 C171 1.345 1_545 S
C171 H163 0.950 . S
C171 C170 1.345 1_565 S
C171 C172 1.424 . S
C172 H164 0.951 . S
C172 C171 1.424 . S
C172 C173 1.347 . S
C173 H165 0.951 . S
C173 C168 1.429 . S
C173 C172 1.347 . S
H174 C175 0.951 . S
C175 H174 0.951 . S
C175 C181 1.265 . S
H176 C181 0.950 . S
H177 C185 0.949 . S
H178 C186 0.950 . S
H179 C187 0.951 1_554 S
H180 C188 0.951 . S
C181 C175 1.265 . S
C181 H176 0.950 . S
C181 C182 1.478 . S
C182 C181 1.478 . S
C182 C183 1.397 . S
C182 C199 1.394 . S
C183 C182 1.397 . S
C183 C184 1.438 . S
C183 C188 1.429 . S
C184 C183 1.438 . S
C184 C185 1.428 . S
C184 C197 1.394 . S
C185 H177 0.949 . S
C185 C184 1.428 . S
C185 C186 1.345 . S
C186 H178 0.950 . S
C186 C185 1.345 . S
C186 C187 1.424 . S
C187 H179 0.951 1_556 S
C187 C186 1.424 . S
C187 C188 1.347 . S
C188 H180 0.951 . S
C188 C183 1.429 . S
C188 C187 1.347 . S
H189 C190 0.951 . S
C190 H189 0.951 . S
C190 C196 1.265 . S
H191 C196 0.950 . S
H192 C200 0.949 . S
H193 C201 0.950 . S
H194 C202 0.951 . S
H195 C203 0.951 . S
C196 C190 1.265 . S
C196 H191 0.950 . S
C196 C197 1.478 . S
C197 C184 1.394 . S
C197 C196 1.478 . S
C197 C198 1.397 . S
C198 C197 1.397 . S
C198 C199 1.438 . S
C198 C203 1.429 . S
C199 C182 1.394 . S
C199 C198 1.438 . S
C199 C200 1.428 . S
C200 H192 0.949 . S
C200 C199 1.428 . S
C200 C201 1.345 . S
C201 H193 0.950 . S
C201 C200 1.345 . S
C201 C202 1.424 . S
C202 H194 0.951 . S
C202 C201 1.424 . S
C202 C203 1.347 . S
C203 H195 0.951 . S
C203 C198 1.429 . S
C203 C202 1.347 . S
H204 C205 0.951 . S
C205 H204 0.951 . S
C205 C211 1.265 . S
H206 C211 0.950 . S
H207 C215 0.949 . S
H208 C216 0.950 . S
H209 C217 0.951 . S
H210 C218 0.951 . S
C211 C205 1.265 . S
C211 H206 0.950 . S
C211 C212 1.478 . S
C212 C211 1.478 . S
C212 C213 1.397 . S
C212 C229 1.394 . S
C213 C212 1.397 . S
C213 C214 1.438 1_655 S
C213 C218 1.429 . S
C214 C213 1.438 1_455 S
C214 C215 1.428 . S
C214 C227 1.394 . S
C215 H207 0.949 . S
C215 C214 1.428 . S
C215 C216 1.345 1_455 S
C216 H208 0.950 . S
C216 C215 1.345 1_655 S
C216 C217 1.424 . S
C217 H209 0.951 . S
C217 C216 1.424 . S
C217 C218 1.347 . S
C218 H210 0.951 . S
C218 C213 1.429 . S
C218 C217 1.347 . S
H219 C220 0.951 . S
C220 H219 0.951 . S
C220 C226 1.265 . S
H221 C226 0.950 . S
H222 C230 0.949 . S
H223 C231 0.950 . S
H224 C232 0.951 . S
H225 C233 0.951 . S
C226 C220 1.265 . S
C226 H221 0.950 . S
C226 C227 1.478 . S
C227 C214 1.394 . S
C227 C226 1.478 . S
C227 C228 1.397 . S
C228 C227 1.397 . S
C228 C229 1.438 1_455 S
C228 C233 1.429 . S
C229 C212 1.394 . S
C229 C228 1.438 1_655 S
C229 C230 1.428 . S
C230 H222 0.949 . S
C230 C229 1.428 . S
C230 C231 1.345 1_655 S
C231 H223 0.950 . S
C231 C230 1.345 1_455 S
C231 C232 1.424 . S
C232 H224 0.951 . S
C232 C231 1.424 . S
C232 C233 1.347 . S
C233 H225 0.951 . S
C233 C228 1.429 . S
C233 C232 1.347 . S
H234 C235 0.951 . S
C235 H234 0.951 . S
C235 C241 1.265 . S
H236 C241 0.950 . S
H237 C245 0.949 . S
H238 C246 0.950 . S
H239 C247 0.951 . S
H240 C248 0.951 1_545 S
C241 C235 1.265 . S
C241 H236 0.950 . S
C241 C242 1.478 . S
C242 C241 1.478 . S
C242 C243 1.381 1_545 S
C242 C259 1.394 . S
C243 C242 1.381 1_565 S
C243 C244 1.449 . S
C243 C248 1.434 . S
C244 C243 1.449 . S
C244 C245 1.428 . S
C244 C257 1.394 . S
C245 H237 0.949 . S
C245 C244 1.428 . S
C245 C246 1.345 . S
C246 H238 0.950 . S
C246 C245 1.345 . S
C246 C247 1.424 . S
C247 H239 0.951 . S
C247 C246 1.424 . S
C247 C248 1.347 . S
C248 H240 0.951 1_565 S
C248 C243 1.434 . S
C248 C247 1.347 . S
H249 C250 0.951 . S
C250 H249 0.951 . S
C250 C256 1.265 . S
H251 C256 0.950 . S
H252 C260 0.949 . S
H253 C261 0.950 . S
H254 C262 0.951 . S
H255 C263 0.951 1_565 S
C256 C250 1.265 . S
C256 H251 0.950 . S
C256 C257 1.478 . S
C257 C244 1.394 . S
C257 C256 1.478 . S
C257 C258 1.381 1_565 S
C258 C257 1.381 1_545 S
C258 C259 1.449 . S
C258 C263 1.434 . S
C259 C242 1.394 . S
C259 C258 1.449 . S
C259 C260 1.428 . S
C260 H252 0.949 . S
C260 C259 1.428 . S
C260 C261 1.345 . S
C261 H253 0.950 . S
C261 C260 1.345 . S
C261 C262 1.424 . S
C262 H254 0.951 . S
C262 C261 1.424 . S
C262 C263 1.347 . S
C263 H255 0.951 1_545 S
C263 C258 1.434 . S
C263 C262 1.347 . S
H264 C265 0.951 . S
C265 H264 0.951 . S
C265 C271 1.265 . S
H266 C271 0.950 . S
H267 C275 0.949 . S
H268 C276 0.950 . S
H269 C277 0.951 . S
H270 C278 0.951 . S
C271 C265 1.265 . S
C271 H266 0.950 . S
C271 C272 1.478 . S
C272 C271 1.478 . S
C272 C273 1.397 . S
C272 C289 1.394 . S
C273 C272 1.397 . S
C273 C274 1.438 . S
C273 C278 1.429 . S
C274 C273 1.438 . S
C274 C275 1.428 . S
C274 C287 1.394 . S
C275 H267 0.949 . S
C275 C274 1.428 . S
C275 C276 1.345 . S
C276 H268 0.950 . S
C276 C275 1.345 . S
C276 C277 1.424 . S
C277 H269 0.951 . S
C277 C276 1.424 . S
C277 C278 1.347 . S
C278 H270 0.951 . S
C278 C273 1.429 . S
C278 C277 1.347 . S
H279 C280 0.951 . S
C280 H279 0.951 . S
C280 C286 1.265 . S
H281 C286 0.950 . S
H282 C290 0.949 . S
H283 C291 0.950 . S
H284 C292 0.951 1_556 S
H285 C293 0.951 . S
C286 C280 1.265 . S
C286 H281 0.950 . S
C286 C287 1.478 . S
C287 C274 1.394 . S
C287 C286 1.478 . S
C287 C288 1.397 . S
C288 C287 1.397 . S
C288 C289 1.438 . S
C288 C293 1.429 . S
C289 C272 1.394 . S
C289 C288 1.438 . S
C289 C290 1.428 . S
C290 H282 0.949 . S
C290 C289 1.428 . S
C290 C291 1.345 . S
C291 H283 0.950 . S
C291 C290 1.345 . S
C291 C292 1.424 . S
C292 H284 0.951 1_554 S
C292 C291 1.424 . S
C292 C293 1.347 . S
C293 H285 0.951 . S
C293 C288 1.429 . S
C293 C292 1.347 . S
H294 C295 0.951 . S
C295 H294 0.951 . S
C295 C301 1.265 . S
H296 C301 0.950 . S
H297 C305 0.949 . S
H298 C306 0.950 . S
H299 C307 0.951 . S
H300 C308 0.951 . S
C301 C295 1.265 . S
C301 H296 0.950 . S
C301 C302 1.478 . S
C302 C301 1.478 . S
C302 C303 1.397 . S
C302 C319 1.394 . S
C303 C302 1.397 . S
C303 C304 1.438 . S
C303 C308 1.429 . S
C304 C303 1.438 . S
C304 C305 1.428 . S
C304 C317 1.394 . S
C305 H297 0.949 . S
C305 C304 1.428 . S
C305 C306 1.345 . S
C306 H298 0.950 . S
C306 C305 1.345 . S
C306 C307 1.424 . S
C307 H299 0.951 . S
C307 C306 1.424 . S
C307 C308 1.347 . S
C308 H300 0.951 . S
C308 C303 1.429 . S
C308 C307 1.347 . S
H309 C310 0.951 . S
C310 H309 0.951 . S
C310 C316 1.265 . S
H311 C316 0.950 . S
H312 C320 0.949 . S
H313 C321 0.950 . S
H314 C322 0.951 . S
H315 C323 0.951 . S
C316 C310 1.265 . S
C316 H311 0.950 . S
C316 C317 1.478 . S
C317 C304 1.394 . S
C317 C316 1.478 . S
C317 C318 1.397 . S
C318 C317 1.397 . S
C318 C319 1.438 . S
C318 C323 1.429 . S
C319 C302 1.394 . S
C319 C318 1.438 . S
C319 C320 1.428 . S
C320 H312 0.949 . S
C320 C319 1.428 . S
C320 C321 1.345 . S
C321 H313 0.950 . S
C321 C320 1.345 . S
C321 C322 1.424 . S
C322 H314 0.951 . S
C322 C321 1.424 . S
C322 C323 1.347 . S
C323 H315 0.951 . S
C323 C318 1.429 . S
C323 C322 1.347 . S
H324 C325 0.951 . S
C325 H324 0.951 . S
C325 C331 1.265 . S
H326 C331 0.950 . S
H327 C335 0.949 . S
H328 C336 0.950 . S
H329 C337 0.951 . S
H330 C338 0.951 . S
C331 C325 1.265 . S
C331 H326 0.950 . S
C331 C332 1.478 . S
C332 C331 1.478 . S
C332 C333 1.397 . S
C332 C349 1.394 . S
C333 C332 1.397 . S
C333 C334 1.438 . S
C333 C338 1.429 . S
C334 C333 1.438 . S
C334 C335 1.428 . S
C334 C347 1.394 . S
C335 H327 0.949 . S
C335 C334 1.428 . S
C335 C336 1.345 . S
C336 H328 0.950 . S
C336 C335 1.345 . S
C336 C337 1.424 . S
C337 H329 0.951 . S
C337 C336 1.424 . S
C337 C338 1.347 . S
C338 H330 0.951 . S
C338 C333 1.429 . S
C338 C337 1.347 . S
H339 C340 0.951 . S
C340 H339 0.951 . S
C340 C346 1.265 . S
H341 C346 0.950 . S
H342 C350 0.949 . S
H343 C351 0.950 . S
H344 C352 0.963 . S
H345 C353 0.951 1_554 S
C346 C340 1.265 . S
C346 H341 0.950 . S
C346 C347 1.478 . S
C347 C334 1.394 . S
C347 C346 1.478 . S
C347 C348 1.397 . S
C348 C347 1.397 . S
C348 C349 1.438 . S
C348 C353 1.429 . S
C349 C332 1.394 . S
C349 C348 1.438 . S
C349 C350 1.428 . S
C350 H342 0.949 . S
C350 C349 1.428 . S
C350 C351 1.345 . S
C351 H343 0.950 . S
C351 C350 1.345 . S
C351 C352 1.417 1_556 S
C352 H344 0.963 . S
C352 C351 1.417 1_554 S
C352 C353 1.342 1_554 S
C353 H345 0.951 1_556 S
C353 C348 1.429 . S
C353 C352 1.342 1_556 S
H354 C355 0.951 . S
C355 H354 0.951 . S
C355 C361 1.265 . S
H356 C361 0.950 . S
H357 C365 0.949 . S
H358 C366 0.950 . S
H359 C367 0.951 . S
H360 C368 0.951 . S
C361 C355 1.265 . S
C361 H356 0.950 . S
C361 C362 1.478 . S
C362 C361 1.478 . S
C362 C363 1.397 . S
C362 C379 1.394 . S
C363 C362 1.397 . S
C363 C364 1.438 . S
C363 C368 1.429 . S
C364 C363 1.438 . S
C364 C365 1.428 . S
C364 C377 1.394 . S
C365 H357 0.949 . S
C365 C364 1.428 . S
C365 C366 1.345 . S
C366 H358 0.950 . S
C366 C365 1.345 . S
C366 C367 1.424 . S
C367 H359 0.951 . S
C367 C366 1.424 . S
C367 C368 1.347 . S
C368 H360 0.951 . S
C368 C363 1.429 . S
C368 C367 1.347 . S
H369 C370 0.951 . S
C370 H369 0.951 . S
C370 C376 1.265 . S
H371 C376 0.950 . S
H372 C380 0.949 . S
H373 C381 0.950 . S
H374 C382 0.951 . S
H375 C383 0.951 . S
C376 C370 1.265 . S
C376 H371 0.950 . S
C376 C377 1.478 . S
C377 C364 1.394 . S
C377 C376 1.478 . S
C377 C378 1.397 . S
C378 C377 1.397 . S
C378 C379 1.438 . S
C378 C383 1.429 . S
C379 C362 1.394 . S
C379 C378 1.438 . S
C379 C380 1.428 . S
C380 H372 0.949 . S
C380 C379 1.428 . S
C380 C381 1.345 . S
C381 H373 0.950 . S
C381 C380 1.345 . S
C381 C382 1.424 . S
C382 H374 0.951 . S
C382 C381 1.424 . S
C382 C383 1.347 . S
C383 H375 0.951 . S
C383 C378 1.429 . S
C383 C382 1.347 . S
H384 C385 0.951 . S
C385 H384 0.951 . S
C385 C391 1.265 . S
H386 C391 0.950 . S
H387 C395 0.949 . S
H388 C396 0.950 . S
H389 C397 0.951 . S
H390 C398 0.951 . S
C391 C385 1.265 . S
C391 H386 0.950 . S
C391 C392 1.478 . S
C392 C391 1.478 . S
C392 C393 1.397 . S
C392 C409 1.394 . S
C393 C392 1.397 . S
C393 C394 1.438 . S
C393 C398 1.429 . S
C394 C393 1.438 . S
C394 C395 1.428 . S
C394 C407 1.394 . S
C395 H387 0.949 . S
C395 C394 1.428 . S
C395 C396 1.345 . S
C396 H388 0.950 . S
C396 C395 1.345 . S
C396 C397 1.424 . S
C397 H389 0.951 . S
C397 C396 1.424 . S
C397 C398 1.347 . S
C398 H390 0.951 . S
C398 C393 1.429 . S
C398 C397 1.347 . S
H399 C400 0.951 . S
C400 H399 0.951 . S
C400 C406 1.265 . S
H401 C406 0.950 . S
H402 C410 0.949 . S
H403 C411 0.950 . S
H404 C412 0.951 . S
H405 C413 0.951 . S
C406 C400 1.265 . S
C406 H401 0.950 . S
C406 C407 1.478 . S
C407 C394 1.394 . S
C407 C406 1.478 . S
C407 C408 1.397 . S
C408 C407 1.397 . S
C408 C409 1.438 . S
C408 C413 1.429 . S
C409 C392 1.394 . S
C409 C408 1.438 . S
C409 C410 1.428 . S
C410 H402 0.949 . S
C410 C409 1.428 . S
C410 C411 1.345 . S
C411 H403 0.950 . S
C411 C410 1.345 . S
C411 C412 1.424 . S
C412 H404 0.951 . S
C412 C411 1.424 . S
C412 C413 1.347 . S
C413 H405 0.951 . S
C413 C408 1.429 . S
C413 C412 1.347 . S
H414 C415 0.951 . S
C415 H414 0.951 . S
C415 C421 1.265 . S
H416 C421 0.950 . S
H417 C425 0.949 . S
H418 C426 0.950 . S
H419 C427 0.951 . S
H420 C428 0.951 . S
C421 C415 1.265 . S
C421 H416 0.950 . S
C421 C422 1.478 . S
C422 C421 1.478 . S
C422 C423 1.397 . S
C422 C439 1.394 . S
C423 C422 1.397 . S
C423 C424 1.438 . S
C423 C428 1.429 . S
C424 C423 1.438 . S
C424 C425 1.428 . S
C424 C437 1.394 . S
C425 H417 0.949 . S
C425 C424 1.428 . S
C425 C426 1.345 . S
C426 H418 0.950 . S
C426 C425 1.345 . S
C426 C427 1.424 . S
C427 H419 0.951 . S
C427 C426 1.424 . S
C427 C428 1.347 . S
C428 H420 0.951 . S
C428 C423 1.429 . S
C428 C427 1.347 . S
H429 C430 0.951 . S
C430 H429 0.951 . S
C430 C436 1.265 . S
H431 C436 0.950 . S
H432 C440 0.949 . S
H433 C441 0.950 . S
H434 C442 0.951 . S
H435 C443 0.951 . S
C436 C430 1.265 . S
C436 H431 0.950 . S
C436 C437 1.478 . S
C437 C424 1.394 . S
C437 C436 1.478 . S
C437 C438 1.397 . S
C438 C437 1.397 . S
C438 C439 1.438 . S
C438 C443 1.429 . S
C439 C422 1.394 . S
C439 C438 1.438 . S
C439 C440 1.428 . S
C440 H432 0.949 . S
C440 C439 1.428 . S
C440 C441 1.345 . S
C441 H433 0.950 . S
C441 C440 1.345 . S
C441 C442 1.424 . S
C442 H434 0.951 . S
C442 C441 1.424 . S
C442 C443 1.347 . S
C443 H435 0.951 . S
C443 C438 1.429 . S
C443 C442 1.347 . S
C85 C12 1.412 . S
C100 C83 1.394 . S
C115 C26 1.381 . S
C130 C0 1.418 . S
C145 C14 1.380 . S
C160 C28 1.418 . S
C175 C42 1.418 . S
C190 C40 1.381 . S
C205 C54 1.388 . S
C220 C57 1.402 . S
C235 C71 1.417 . S
C250 C69 1.379 . S
C265 C68 1.498 . S
C280 C13 1.460 . S
C295 C82 1.483 . S
C310 C27 1.481 . S
C325 C29 1.497 . S
C340 C1 1.461 . S
C355 C43 1.496 . S
C370 C15 1.454 . S
C385 C56 1.481 . S
C400 C41 1.483 . S
C415 C70 1.467 . S
C430 C55 1.474 . S
