# Generated by pormake.
# Topology wgu, (5)-cn, num edge types: 1
# Building blocks:
#     Node 0, Type 0, BuildingBlock: XOMCOT_clean_sbu_0, # of connection points: 5
#     Node 1, Type 0, BuildingBlock: XOMCOT_clean_sbu_0, # of connection points: 5
#     Node 2, Type 0, BuildingBlock: XOMCOT_clean_sbu_0, # of connection points: 5
#     Node 3, Type 0, BuildingBlock: XOMCOT_clean_sbu_0, # of connection points: 5
#     Node 4, Type 0, BuildingBlock: XOMCOT_clean_sbu_0, # of connection points: 5
#     Node 5, Type 0, BuildingBlock: XOMCOT_clean_sbu_0, # of connection points: 5
#     Node 6, Type 0, BuildingBlock: XOMCOT_clean_sbu_0, # of connection points: 5
#     Node 7, Type 0, BuildingBlock: XOMCOT_clean_sbu_0, # of connection points: 5
#     Edge 8, Type (0, 0), BuildingBlock: UVAHIK_clean_linker_0, # of connection points: 2
#     Edge 9, Type (0, 0), BuildingBlock: UVAHIK_clean_linker_0, # of connection points: 2
#     Edge 10, Type (0, 0), BuildingBlock: UVAHIK_clean_linker_0, # of connection points: 2
#     Edge 11, Type (0, 0), BuildingBlock: UVAHIK_clean_linker_0, # of connection points: 2
#     Edge 12, Type (0, 0), BuildingBlock: UVAHIK_clean_linker_0, # of connection points: 2
#     Edge 13, Type (0, 0), BuildingBlock: UVAHIK_clean_linker_0, # of connection points: 2
#     Edge 14, Type (0, 0), BuildingBlock: UVAHIK_clean_linker_0, # of connection points: 2
#     Edge 15, Type (0, 0), BuildingBlock: UVAHIK_clean_linker_0, # of connection points: 2
#     Edge 16, Type (0, 0), BuildingBlock: UVAHIK_clean_linker_0, # of connection points: 2
#     Edge 17, Type (0, 0), BuildingBlock: UVAHIK_clean_linker_0, # of connection points: 2
#     Edge 18, Type (0, 0), BuildingBlock: UVAHIK_clean_linker_0, # of connection points: 2
#     Edge 19, Type (0, 0), BuildingBlock: UVAHIK_clean_linker_0, # of connection points: 2
#     Edge 20, Type (0, 0), BuildingBlock: UVAHIK_clean_linker_0, # of connection points: 2
#     Edge 21, Type (0, 0), BuildingBlock: UVAHIK_clean_linker_0, # of connection points: 2
#     Edge 22, Type (0, 0), BuildingBlock: UVAHIK_clean_linker_0, # of connection points: 2
#     Edge 23, Type (0, 0), BuildingBlock: UVAHIK_clean_linker_0, # of connection points: 2
#     Edge 24, Type (0, 0), BuildingBlock: UVAHIK_clean_linker_0, # of connection points: 2
#     Edge 25, Type (0, 0), BuildingBlock: UVAHIK_clean_linker_0, # of connection points: 2
#     Edge 26, Type (0, 0), BuildingBlock: UVAHIK_clean_linker_0, # of connection points: 2
#     Edge 27, Type (0, 0), BuildingBlock: UVAHIK_clean_linker_0, # of connection points: 2
# Relax obj value: 0.140
# Max RMSD: 0.148
# Mean RMSD: 0.148
data_MOF--net-wgu--node1-XOMCOT_clean_sbu_0--edge1-UVAHIK_clean_linker_0
_symmetry_space_group_name_H-M    P1
_symmetry_Int_Tables_number       1
_symmetry_cell_setting            triclinic
loop_
_symmetry_equiv_pos_as_xyz
'x, y, z'
_cell_length_a     41.26621
_cell_length_b     41.355382
_cell_length_c     37.77627
_cell_angle_alpha  89.978488
_cell_angle_beta   90.002557
_cell_angle_gamma 90.040238
loop_
_atom_site_label
_atom_site_type_symbol
_atom_site_fract_x
_atom_site_fract_y
_atom_site_fract_z
_atom_type_partial_charge
Co0 Co 0.30118 0.37584 0.03472 0.0
C1 C 0.32796 0.31061 0.02307 0.0
C2 C 0.35823 0.33821 0.05771 0.0
C3 C 0.36993 0.30692 0.05634 0.0
N4 N 0.33186 0.34041 0.0367 0.0
N5 N 0.35079 0.28981 0.03432 0.0
H6 H 0.30747 0.30314 0.00759 0.0
H7 H 0.3673 0.35755 0.07426 0.0
C8 C 0.36303 0.40051 1.00358 0.0
O9 O 0.36487 0.373 0.98631 0.0
N10 N 0.26974 0.41029 0.03306 0.0
C11 C 0.23768 0.40535 0.02858 0.0
C12 C 0.22285 0.43447 0.02278 0.0
C13 C 0.27405 0.44255 0.03006 0.0
N14 N 0.24566 0.45773 0.0236 0.0
C15 C 0.26828 0.34248 0.97908 0.0
C16 C 0.28665 0.38175 0.92355 0.0
C17 C 0.26527 0.35605 0.91704 0.0
C18 C 0.25615 0.3364 0.9454 0.0
C19 C 0.29809 0.38722 0.95805 0.0
N20 N 0.29006 0.36678 0.98521 0.0
H21 H 0.25949 0.32754 1.00037 0.0
H22 H 0.31221 0.4087 0.96281 0.0
H23 H 0.22598 0.38197 0.02784 0.0
H24 H 0.29739 0.45447 0.03069 0.0
O25 O 0.26954 0.3483 0.05736 0.0
O26 O 0.3039 0.37969 0.08609 0.0
O27 O 0.33782 0.40677 0.02221 0.0
C28 C 0.28051 0.35857 0.08746 0.0
H29 H 0.39 0.29724 0.07143 0.0
H30 H 0.19735 0.43827 0.01748 0.0
H31 H 0.29343 0.3982 0.90249 0.0
H32 H 0.23947 0.31643 0.94171 0.0
Co33 Co 0.63014 0.29871 0.55892 0.0
C34 C 0.69838 0.3189 0.56566 0.0
C35 C 0.66761 0.36028 0.5694 0.0
C36 C 0.69945 0.37038 0.57238 0.0
N37 N 0.66703 0.32799 0.56363 0.0
N38 N 0.71849 0.34407 0.57031 0.0
H39 H 0.70676 0.29423 0.56466 0.0
H40 H 0.64659 0.37558 0.57226 0.0
C41 C 0.60406 0.3587 0.52345 0.0
O42 O 0.62941 0.35871 0.5024 0.0
N43 N 0.59455 0.26864 0.5547 0.0
C44 C 0.59853 0.23691 0.54781 0.0
C45 C 0.56885 0.22322 0.54176 0.0
C46 C 0.56228 0.27391 0.55281 0.0
N47 N 0.54613 0.24643 0.54466 0.0
C48 C 0.66858 0.27312 0.5025 0.0
C49 C 0.62433 0.28255 0.44862 0.0
C50 C 0.65345 0.26655 0.44129 0.0
C51 C 0.67564 0.26185 0.46869 0.0
C52 C 0.61794 0.29299 0.48321 0.0
N53 N 0.64053 0.2894 0.5095 0.0
H54 H 0.68503 0.26679 0.52333 0.0
H55 H 0.59437 0.30297 0.489 0.0
H56 H 0.62164 0.22475 0.54575 0.0
H57 H 0.55104 0.29741 0.55553 0.0
O58 O 0.65542 0.26496 0.58078 0.0
O59 O 0.62476 0.29985 0.60994 0.0
O60 O 0.60052 0.33632 0.54658 0.0
C61 C 0.64467 0.27542 0.61096 0.0
H62 H 0.70791 0.39486 0.5766 0.0
H63 H 0.56435 0.19818 0.53497 0.0
H64 H 0.60616 0.28571 0.42822 0.0
H65 H 0.69809 0.24891 0.46418 0.0
Co66 Co 0.70879 0.63246 0.03062 0.0
C67 C 0.68167 0.69794 0.02129 0.0
C68 C 0.65215 0.66956 0.05594 0.0
C69 C 0.6404 0.70087 0.05564 0.0
N70 N 0.67808 0.66783 0.03424 0.0
N71 N 0.65906 0.71847 0.03357 0.0
H72 H 0.70183 0.70584 0.00557 0.0
H73 H 0.64343 0.64987 0.07222 0.0
C74 C 0.64635 0.60817 1.00064 0.0
O75 O 0.64409 0.63594 0.98391 0.0
N76 N 0.74025 0.59813 0.02733 0.0
C77 C 0.77204 0.60323 0.02122 0.0
C78 C 0.7868 0.57416 0.01488 0.0
C79 C 0.73601 0.56582 0.02481 0.0
N80 N 0.7642 0.55076 0.01704 0.0
C81 C 0.73961 0.66726 0.9745 0.0
C82 C 0.72005 0.62872 0.91889 0.0
C83 C 0.73968 0.6557 0.91183 0.0
C84 C 0.74977 0.67472 0.94037 0.0
C85 C 0.71021 0.6222 0.95376 0.0
N86 N 0.71858 0.64241 0.98098 0.0
H87 H 0.74923 0.68163 0.99584 0.0
H88 H 0.69683 0.60026 0.95869 0.0
H89 H 0.78355 0.62668 0.01984 0.0
H90 H 0.71281 0.55376 0.02682 0.0
O91 O 0.74093 0.65966 0.05302 0.0
O92 O 0.70723 0.62762 0.08189 0.0
O93 O 0.67194 0.60168 0.01851 0.0
C94 C 0.73054 0.64881 0.08317 0.0
H95 H 0.62063 0.71022 0.07144 0.0
H96 H 0.81209 0.57048 0.00843 0.0
H97 H 0.71255 0.61268 0.89777 0.0
H98 H 0.76628 0.6948 0.93658 0.0
Co99 Co 0.37514 0.70423 0.55758 0.0
C100 C 0.3072 0.68431 0.56892 0.0
C101 C 0.33751 0.64248 0.56775 0.0
C102 C 0.30572 0.63257 0.57172 0.0
N103 N 0.3383 0.67505 0.56431 0.0
N104 N 0.28694 0.6591 0.57268 0.0
H105 H 0.29904 0.7091 0.5695 0.0
H106 H 0.3583 0.6267 0.56807 0.0
C107 C 0.40197 0.64429 0.52245 0.0
O108 O 0.37698 0.64415 0.5009 0.0
N109 N 0.41071 0.734 0.5517 0.0
C110 C 0.40723 0.765 0.54151 0.0
C111 C 0.4372 0.77919 0.54002 0.0
C112 C 0.44285 0.72957 0.55624 0.0
N113 N 0.4596 0.75701 0.54931 0.0
C114 C 0.33418 0.72483 0.50074 0.0
C115 C 0.37854 0.71762 0.44662 0.0
C116 C 0.34757 0.72968 0.43863 0.0
C117 C 0.3255 0.73352 0.46646 0.0
C118 C 0.38633 0.70939 0.48161 0.0
N119 N 0.36375 0.71174 0.50803 0.0
H120 H 0.31747 0.73043 0.52156 0.0
H121 H 0.41071 0.70155 0.48753 0.0
H122 H 0.38438 0.77638 0.53508 0.0
H123 H 0.45366 0.70695 0.56448 0.0
O124 O 0.35036 0.73888 0.57836 0.0
O125 O 0.3813 0.70487 0.6085 0.0
O126 O 0.40475 0.66637 0.54603 0.0
C127 C 0.36148 0.7294 0.6088 0.0
H128 H 0.2971 0.60793 0.57401 0.0
H129 H 0.44219 0.80376 0.53175 0.0
H130 H 0.3967 0.71478 0.42618 0.0
H131 H 0.30197 0.74442 0.46217 0.0
Co132 Co 0.80109 0.13206 0.98603 0.0
C133 C 0.82687 0.19834 0.99221 0.0
C134 C 0.85623 0.16984 0.95758 0.0
C135 C 0.86737 0.20141 0.95681 0.0
N136 N 0.83084 0.16802 0.98003 0.0
N137 N 0.84882 0.21908 0.97889 0.0
H138 H 0.80689 0.2061 0.00826 0.0
H139 H 0.86508 0.14996 0.9417 0.0
C140 C 0.86492 0.1097 0.01421 0.0
O141 O 0.86762 0.13811 0.02951 0.0
N142 N 0.77046 0.09724 0.99176 0.0
C143 C 0.73904 0.10191 1.00009 0.0
C144 C 0.72487 0.0726 0.00669 0.0
C145 C 0.77505 0.06493 0.99312 0.0
N146 N 0.74745 0.04947 1.00242 0.0
C147 C 0.77115 0.16755 0.04198 0.0
C148 C 0.79461 0.13211 0.09824 0.0
C149 C 0.77429 0.15861 0.10503 0.0
C150 C 0.76212 0.17593 0.07617 0.0
C151 C 0.80301 0.12443 0.06325 0.0
N152 N 0.79278 0.14325 0.0356 0.0
H153 H 0.76021 0.18081 0.02055 0.0
H154 H 0.81683 0.10274 0.0587 0.0
H155 H 0.72739 0.12522 1.00242 0.0
H156 H 0.79813 0.05313 0.98887 0.0
O157 O 0.76764 0.1578 0.96414 0.0
O158 O 0.80111 0.12575 0.93498 0.0
O159 O 0.83879 0.10235 0.99773 0.0
C160 C 0.77721 0.14628 0.93401 0.0
H161 H 0.88674 0.21079 0.94044 0.0
H162 H 0.69994 0.06854 0.01446 0.0
H163 H 0.80377 0.11729 0.11966 0.0
H164 H 0.74493 0.19544 0.07978 0.0
Co165 Co 0.8849 0.79458 0.45992 0.0
C166 C 0.81834 0.806 0.48412 0.0
C167 C 0.836 0.84647 0.45438 0.0
C168 C 0.8037 0.85156 0.46204 0.0
N169 N 0.84522 0.81809 0.46879 0.0
N170 N 0.79269 0.82586 0.48047 0.0
H171 H 0.81699 0.78241 0.49615 0.0
H172 H 0.85129 0.86165 0.43808 0.0
C173 C 0.90582 0.85827 0.4922 0.0
O174 O 0.88027 0.85773 0.51294 0.0
N175 N 0.92423 0.7702 0.45079 0.0
C176 C 0.92813 0.74552 0.42784 0.0
C177 C 0.95792 0.73175 0.43324 0.0
C178 C 0.95196 0.77102 0.46979 0.0
N179 N 0.973 0.74761 0.45976 0.0
C180 C 0.86806 0.74879 0.51361 0.0
C181 C 0.89533 0.77956 0.57109 0.0
C182 C 0.8758 0.75231 0.57689 0.0
C183 C 0.86304 0.73631 0.54742 0.0
C184 C 0.90005 0.7911 0.53656 0.0
N185 N 0.88458 0.77709 0.50839 0.0
H186 H 0.85717 0.73605 0.49181 0.0
H187 H 0.9164 0.81103 0.53308 0.0
H188 H 0.91025 0.73672 0.40936 0.0
H189 H 0.95616 0.78784 0.49117 0.0
O190 O 0.85899 0.7616 0.43707 0.0
O191 O 0.8801 0.80372 0.40955 0.0
O192 O 0.91212 0.83418 0.47199 0.0
C193 C 0.86229 0.77778 0.40786 0.0
H194 H 0.78902 0.87158 0.45293 0.0
H195 H 0.96684 0.71052 0.4197 0.0
H196 H 0.90687 0.79187 0.59304 0.0
H197 H 0.84805 0.71498 0.55044 0.0
Co198 Co 0.20904 0.87655 0.98434 0.0
C199 C 0.18394 0.81045 0.99352 0.0
C200 C 0.15342 0.8378 0.95891 0.0
C201 C 0.14248 0.80618 0.95959 0.0
N202 N 0.17939 0.84036 0.98044 0.0
N203 N 0.16177 0.78922 0.9816 0.0
H204 H 0.20445 0.80335 0.00917 0.0
H205 H 0.144 0.85718 0.94267 0.0
C206 C 0.14558 0.89933 0.01338 0.0
O207 O 0.14314 0.87123 0.02941 0.0
N208 N 0.23966 0.9116 0.98801 0.0
C209 C 0.27154 0.90717 0.99417 0.0
C210 C 0.2857 0.93652 1.00057 0.0
C211 C 0.23477 0.9438 0.99054 0.0
N212 N 0.26264 0.95942 0.99839 0.0
C213 C 0.24139 0.84318 0.04042 0.0
C214 C 0.21782 0.87905 0.09635 0.0
C215 C 0.23982 0.85403 0.10307 0.0
C216 C 0.25187 0.83627 0.07459 0.0
C217 C 0.2084 0.88563 0.06141 0.0
N218 N 0.2188 0.86664 0.03397 0.0
H219 H 0.25192 0.82948 0.01908 0.0
H220 H 0.19377 0.90674 0.05675 0.0
H221 H 0.28356 0.88399 0.99545 0.0
H222 H 0.21134 0.95539 0.98837 0.0
O223 O 0.24196 0.85036 0.96196 0.0
O224 O 0.20754 0.88168 0.93317 0.0
O225 O 0.17148 0.9064 0.99629 0.0
C226 C 0.23151 0.86127 0.93187 0.0
H227 H 0.12271 0.79627 0.9442 0.0
H228 H 0.31092 0.94074 0.00699 0.0
H229 H 0.2089 0.89406 0.11772 0.0
H230 H 0.26932 0.81706 0.07867 0.0
Co231 Co 0.12328 0.21235 0.46256 0.0
C232 C 0.1892 0.19513 0.48498 0.0
C233 C 0.16809 0.1573 0.45385 0.0
C234 C 0.19993 0.14936 0.46093 0.0
N235 N 0.16136 0.18586 0.4694 0.0
N236 N 0.21306 0.17329 0.48054 0.0
H237 H 0.19286 0.2185 0.49692 0.0
H238 H 0.1514 0.14383 0.43742 0.0
C239 C 0.09943 0.15001 0.49504 0.0
O240 O 0.12521 0.14948 0.51545 0.0
N241 N 0.08558 0.23961 0.45547 0.0
C242 C 0.0839 0.26684 0.43587 0.0
C243 C 0.05446 0.28129 0.44141 0.0
C244 C 0.05699 0.23807 0.47281 0.0
N245 N 0.03744 0.26332 0.46471 0.0
C246 C 0.14555 0.25526 0.51648 0.0
C247 C 0.11714 0.2262 0.57437 0.0
C248 C 0.14026 0.2506 0.5799 0.0
C249 C 0.15322 0.26613 0.55026 0.0
C250 C 0.10997 0.21608 0.53973 0.0
N251 N 0.12622 0.22879 0.51133 0.0
H252 H 0.15676 0.26757 0.4946 0.0
H253 H 0.09145 0.19808 0.53632 0.0
H254 H 0.10304 0.27669 0.41964 0.0
H255 H 0.05104 0.21928 0.49161 0.0
O256 O 0.15076 0.24393 0.43973 0.0
O257 O 0.12598 0.2042 0.4117 0.0
O258 O 0.09399 0.17429 0.47478 0.0
C259 C 0.14543 0.22896 0.41017 0.0
H260 H 0.21262 0.12819 0.45143 0.0
H261 H 0.04701 0.3042 0.43028 0.0
H262 H 0.10541 0.2144 0.59653 0.0
H263 H 0.16984 0.28626 0.55308 0.0
C264 C 0.25562 0.01662 0.98196 0.0
C265 C 0.26755 0.99313 0.00528 0.0
C266 C 0.26487 0.04899 0.98587 0.0
C267 C 0.33033 0.09811 0.02675 0.0
H268 H 0.27411 0.16983 1.00269 0.0
C269 C 0.35743 0.23376 0.05597 0.0
C270 C 0.34978 0.25545 0.02859 0.0
C271 C 0.34989 0.20089 0.05259 0.0
C272 C 0.29013 0.14996 0.00924 0.0
H273 H 0.29629 0.98482 0.05227 0.0
H274 H 0.31134 0.04131 0.06019 0.0
H275 H 0.25317 0.11476 0.99975 0.0
H276 H 0.33117 0.25944 0.97512 0.0
H277 H 0.31773 0.20227 0.96941 0.0
H278 H 0.36701 0.13366 0.03701 0.0
C279 C 0.29604 0.03489 0.038 0.0
C280 C 0.27817 0.11842 0.00748 0.0
C281 C 0.28722 1.00262 0.03371 0.0
C282 C 0.3367 0.24333 0.9969 0.0
C283 C 0.32894 0.2107 0.99365 0.0
C284 C 0.34213 0.1297 0.02894 0.0
C285 C 0.28582 0.05836 0.01352 0.0
C286 C 0.29816 0.09207 0.0161 0.0
C287 C 0.33448 0.1894 0.02187 0.0
C288 C 0.3222 0.15586 0.01995 0.0
H289 H 0.2406 0.00964 0.95973 0.0
H290 H 0.25669 0.06635 0.96636 0.0
H291 H 0.34666 0.07841 0.03287 0.0
H292 H 0.36731 0.24245 0.08074 0.0
H293 H 0.35443 0.18485 0.07471 0.0
C294 C 0.98619 0.29437 0.46285 0.0
C295 C 0.00615 0.27135 0.47956 0.0
C296 C 0.95686 0.30377 0.47798 0.0
C297 C 0.89207 0.2769 0.53561 0.0
H298 H 0.87153 0.36821 0.54277 0.0
C299 C 0.76863 0.31713 0.58896 0.0
C300 C 0.7532 0.34215 0.5704 0.0
C301 C 0.80153 0.31094 0.58383 0.0
C302 C 0.87672 0.34262 0.54071 0.0
H303 H 0.01002 0.23974 0.52534 0.0
H304 H 0.95809 0.25548 0.55104 0.0
H305 H 0.92471 0.35147 0.52123 0.0
H306 H 0.75996 0.38122 0.53319 0.0
H307 H 0.81738 0.37005 0.52317 0.0
H308 H 0.84383 0.26775 0.55329 0.0
C309 C 0.96568 0.26643 0.52633 0.0
C310 C 0.90723 0.33307 0.52852 0.0
C311 C 0.99537 0.2573 0.51143 0.0
C312 C 0.77156 0.36207 0.54807 0.0
C313 C 0.80444 0.35557 0.54241 0.0
C314 C 0.86142 0.28641 0.54734 0.0
C315 C 0.94639 0.29005 0.50993 0.0
C316 C 0.91503 0.30013 0.52547 0.0
C317 C 0.81961 0.32927 0.55943 0.0
C318 C 0.85319 0.31941 0.5497 0.0
H319 H 0.99303 0.30521 0.4379 0.0
H320 H 0.94211 0.32154 0.4644 0.0
H321 H 0.89737 0.25135 0.53313 0.0
H322 H 0.75486 0.30164 0.60654 0.0
H323 H 0.81251 0.29111 0.59818 0.0
C324 C 0.72352 0.00548 0.03722 0.0
C325 C 0.74233 0.0156 0.00834 0.0
C326 C 0.71452 0.97318 0.04081 0.0
C327 C 0.73087 0.89035 0.00723 0.0
H328 H 0.64316 0.87464 0.0403 0.0
C329 C 0.67199 0.76558 0.99658 0.0
C330 C 0.65986 0.75293 0.02848 0.0
C331 C 0.67965 0.79827 0.99367 0.0
C332 C 0.66773 0.87872 0.03122 0.0
H333 H 0.76753 1.00009 0.9612 0.0
H334 H 0.75114 0.94336 0.9667 0.0
H335 H 0.66351 0.92993 0.03662 0.0
H336 H 0.64391 0.76503 0.08146 0.0
H337 H 0.65664 0.82275 0.07609 0.0
H338 H 0.73463 0.83904 1.00105 0.0
C339 C 0.74378 0.96025 0.98705 0.0
C340 C 0.67954 0.91034 0.02928 0.0
C341 C 0.75321 0.99265 0.9838 0.0
C342 C 0.65304 0.77416 0.05653 0.0
C343 C 0.6605 0.80709 0.05351 0.0
C344 C 0.71891 0.85879 0.00876 0.0
C345 C 0.7237 0.95029 0.01523 0.0
C346 C 0.71131 0.91655 0.01738 0.0
C347 C 0.67499 0.81912 0.02248 0.0
C348 C 0.68725 0.8527 0.02075 0.0
H349 H 0.71528 0.02281 0.05672 0.0
H350 H 0.69993 0.96628 0.06341 0.0
H351 H 0.75558 0.89412 0.99851 0.0
H352 H 0.67688 0.74983 0.97432 0.0
H353 H 0.69013 0.8071 0.96921 0.0
C354 C 0.02479 0.71733 0.45857 0.0
C355 C 1.00359 0.73884 0.47587 0.0
C356 C 0.05325 0.70693 0.47487 0.0
C357 C 0.11475 0.72947 0.53815 0.0
H358 H 0.13428 0.63774 0.54051 0.0
C359 C 0.23676 0.68553 0.59222 0.0
C360 C 0.25223 0.66124 0.5726 0.0
C361 C 0.20397 0.69224 0.5869 0.0
C362 C 0.12939 0.66344 0.53983 0.0
H363 H 0.99682 0.76683 0.52403 0.0
H364 H 0.04733 0.74951 0.55174 0.0
H365 H 0.0822 0.65613 0.51746 0.0
H366 H 0.24561 0.62399 0.53319 0.0
H367 H 0.18856 0.63614 0.52282 0.0
H368 H 0.16234 0.73722 0.5585 0.0
C369 C 0.04127 0.74044 0.52567 0.0
C370 C 0.09949 0.67392 0.5268 0.0
C371 C 0.01239 0.75048 0.5096 0.0
C372 C 0.23399 0.64253 0.54895 0.0
C373 C 0.20128 0.64959 0.54309 0.0
C374 C 0.14486 0.71906 0.55066 0.0
C375 C 0.06168 0.71821 0.50862 0.0
C376 C 0.0921 0.70704 0.52538 0.0
C377 C 0.18608 0.67523 0.56122 0.0
C378 C 0.1528 0.68591 0.55122 0.0
H379 H 0.01958 0.70835 0.43232 0.0
H380 H 0.06895 0.6903 0.46085 0.0
H381 H 0.10972 0.75516 0.53702 0.0
H382 H 0.25045 0.70011 0.61077 0.0
H383 H 0.19297 0.71151 0.6021 0.0
C384 C 0.75726 0.49326 0.03248 0.0
C385 C 0.76963 0.51714 0.0099 0.0
C386 C 0.76628 0.4609 0.02794 0.0
C387 C 0.83094 0.41134 0.98564 0.0
H388 H 0.77337 0.34041 0.00894 0.0
C389 C 0.85489 0.27478 0.95566 0.0
C390 C 0.84784 0.25359 0.98372 0.0
C391 C 0.84776 0.30779 0.95864 0.0
C392 C 0.78973 0.36005 1.00251 0.0
H393 H 0.79913 0.52613 0.96361 0.0
H394 H 0.81376 0.46972 0.95453 0.0
H395 H 0.7536 0.3958 0.01286 0.0
H396 H 0.83072 0.25072 0.03789 0.0
H397 H 0.81781 0.30801 0.0428 0.0
H398 H 0.86677 0.37516 0.97445 0.0
C399 C 0.79829 0.47579 0.9767 0.0
C400 C 0.77847 0.3918 0.0049 0.0
C401 C 0.78973 0.50807 0.98165 0.0
C402 C 0.8357 0.26636 0.01555 0.0
C403 C 0.82828 0.29909 0.01838 0.0
C404 C 0.84202 0.37953 0.98274 0.0
C405 C 0.78741 0.45185 1.00032 0.0
C406 C 0.79899 0.41791 0.99675 0.0
C407 C 0.8333 0.31991 0.98962 0.0
C408 C 0.82161 0.35365 0.99151 0.0
H409 H 0.74191 0.49988 0.05457 0.0
H410 H 0.75763 0.44324 0.04688 0.0
H411 H 0.8477 0.43078 0.97982 0.0
H412 H 0.8641 0.2656 0.93079 0.0
H413 H 0.85192 0.32348 0.93613 0.0
C414 C 0.51561 0.7369 0.54095 0.0
C415 C 0.49413 0.76206 0.54953 0.0
C416 C 0.54879 0.74315 0.537 0.0
C417 C 0.6033 0.81004 0.51413 0.0
H418 H 0.67158 0.75386 0.54841 0.0
C419 C 0.7383 0.84389 0.49943 0.0
C420 C 0.75972 0.81888 0.49036 0.0
C421 C 0.70629 0.83693 0.50896 0.0
C422 C 0.65277 0.76964 0.53834 0.0
H423 H 0.49089 0.81284 0.56333 0.0
H424 H 0.54847 0.82371 0.55636 0.0
H425 H 0.61507 0.74083 0.56148 0.0
H426 H 0.76409 0.76701 0.48324 0.0
H427 H 0.70841 0.75493 0.49936 0.0
H428 H 0.64067 0.83851 0.49038 0.0
C429 C 0.53968 0.79937 0.55186 0.0
C430 C 0.62044 0.76216 0.5459 0.0
C431 C 0.50669 0.79313 0.55584 0.0
C432 C 0.74842 0.7868 0.49084 0.0
C433 C 0.71645 0.77985 0.50013 0.0
C434 C 0.63554 0.8174 0.5064 0.0
C435 C 0.56097 0.77466 0.54156 0.0
C436 C 0.59539 0.78234 0.53392 0.0
C437 C 0.69496 0.8048 0.50932 0.0
C438 C 0.6607 0.7973 0.51839 0.0
H439 H 0.50661 0.71278 0.53575 0.0
H440 H 0.56465 0.72365 0.52894 0.0
H441 H 0.58447 0.82575 0.50398 0.0
H442 H 0.74645 0.86878 0.49959 0.0
H443 H 0.6905 0.85672 0.51634 0.0
C444 C 0.21917 0.50016 0.9887 0.0
C445 C 0.24022 0.49129 0.01619 0.0
C446 C 0.21071 0.53243 0.98359 0.0
C447 C 0.23227 0.61657 0.00928 0.0
H448 H 0.14296 0.63344 0.98274 0.0
C449 C 0.17658 0.74284 0.01896 0.0
C450 C 0.16307 0.75484 0.98741 0.0
C451 C 0.18396 0.71015 0.02245 0.0
C452 C 0.16798 0.62901 0.98994 0.0
H453 H 0.26975 0.50886 0.05929 0.0
H454 H 0.25423 0.56555 0.05135 0.0
H455 H 0.16176 0.57778 0.98848 0.0
H456 H 0.14445 0.74154 0.9358 0.0
H457 H 0.15658 0.68379 0.94235 0.0
H458 H 0.23798 0.66798 0.01182 0.0
C459 C 0.24473 0.54771 0.03312 0.0
C460 C 0.1789 0.59717 0.99304 0.0
C461 C 0.25364 0.51533 0.0378 0.0
C462 C 0.15472 0.73298 0.96043 0.0
C463 C 0.16182 0.70004 0.9641 0.0
C464 C 0.2212 0.64837 0.00668 0.0
C465 C 0.22266 0.55656 0.00631 0.0
C466 C 0.21122 0.59052 1.0027 0.0
C467 C 0.17753 0.68863 0.99467 0.0
C468 C 0.18897 0.65485 0.99705 0.0
H469 H 0.20896 0.48194 0.97139 0.0
H470 H 0.19448 0.53836 0.96203 0.0
H471 H 0.25741 0.61248 0.01612 0.0
H472 H 0.18257 0.75901 0.04053 0.0
H473 H 0.19542 0.70179 0.04658 0.0
C474 C 0.25439 0.19757 0.51959 0.0
C475 C 0.24643 0.17759 0.49073 0.0
C476 C 0.28665 0.20477 0.52735 0.0
C477 C 0.37046 0.17776 0.5127 0.0
H478 H 0.39233 0.26779 0.52918 0.0
C479 C 0.50215 0.22037 0.51138 0.0
C480 C 0.51216 0.24227 0.53759 0.0
C481 C 0.46942 0.21362 0.5064 0.0
C482 C 0.38657 0.24251 0.5251 0.0
H483 H 0.26634 0.14864 0.44813 0.0
H484 H 0.32277 0.16087 0.46195 0.0
H485 H 0.33579 0.25224 0.52038 0.0
H486 H 0.49585 0.2753 0.57822 0.0
H487 H 0.4381 0.26322 0.56987 0.0
H488 H 0.42106 0.16788 0.5175 0.0
C489 C 0.30393 0.17093 0.47858 0.0
C490 C 0.35421 0.2336 0.52004 0.0
C491 C 0.27159 0.16384 0.47071 0.0
C492 C 0.48866 0.25837 0.55781 0.0
C493 C 0.4557 0.25142 0.553 0.0
C494 C 0.40273 0.18661 0.51792 0.0
C495 C 0.31174 0.19193 0.50659 0.0
C496 C 0.34588 0.20117 0.51346 0.0
C497 C 0.44582 0.22844 0.52768 0.0
C498 C 0.41124 0.21914 0.52375 0.0
H499 H 0.23561 0.208 0.53601 0.0
H500 H 0.29197 0.22051 0.54951 0.0
H501 H 0.36471 0.15252 0.50825 0.0
H502 H 0.51976 0.20821 0.49483 0.0
H503 H 0.46263 0.19656 0.48595 0.0
C504 C 0.59043 0.59309 0.9803 0.0
C505 C 0.61837 0.58538 0.99993 0.0
C506 C 0.56306 0.57312 0.98124 0.0
C507 C 0.50188 0.53801 1.00417 0.0
H508 H 0.51035 0.44472 1.00387 0.0
C509 C 0.39143 0.45175 0.02284 0.0
C510 C 0.39096 0.42334 1.00238 0.0
C511 C 0.4189 0.47183 0.0232 0.0
C512 C 0.50748 0.47074 1.00374 0.0
H513 H 0.63939 0.55009 0.03562 0.0
H514 H 0.59151 0.51522 0.03738 0.0
H515 H 0.55884 0.47841 1.0026 0.0
H516 H 0.41899 0.39429 0.96563 0.0
H517 H 0.4663 0.42929 0.96588 0.0
H518 H 0.4505 0.53035 0.0045 0.0
C519 C 0.5909 0.53669 0.02099 0.0
C520 C 0.53538 0.4901 1.00344 0.0
C521 C 0.61838 0.55675 0.02005 0.0
C522 C 0.41841 0.41587 0.98185 0.0
C523 C 0.44578 0.43586 0.98222 0.0
C524 C 0.47397 0.51865 0.00451 0.0
C525 C 0.56272 0.5448 1.00187 0.0
C526 C 0.533 0.52403 1.00336 0.0
C527 C 0.44661 0.46396 1.00316 0.0
C528 C 0.47635 0.48473 1.004 0.0
H529 H 0.58948 0.61485 0.96438 0.0
H530 H 0.54214 0.57988 0.9656 0.0
H531 H 0.49901 0.56403 0.00466 0.0
H532 H 0.3708 0.45822 0.03909 0.0
H533 H 0.41869 0.49313 0.03985 0.0
C534 C 0.5646 0.39601 0.55331 0.0
C535 C 0.58135 0.3865 0.5226 0.0
C536 C 0.5453 0.42389 0.55324 0.0
C537 C 0.49637 0.47627 0.49815 0.0
H538 H 0.51721 0.54506 0.56399 0.0
C539 C 0.42984 0.59904 0.49058 0.0
C540 C 0.42483 0.61663 0.52188 0.0
C541 C 0.44978 0.57165 0.49037 0.0
C542 C 0.51048 0.526 0.54581 0.0
H543 H 0.59016 0.39818 0.46751 0.0
H544 H 0.55531 0.44616 0.46707 0.0
H545 H 0.54841 0.49504 0.56496 0.0
H546 H 0.43673 0.61924 0.57762 0.0
H547 H 0.47003 0.5707 0.57791 0.0
H548 H 0.45759 0.50605 0.4799 0.0
C549 C 0.55763 0.43231 0.49128 0.0
C550 C 0.52861 0.49736 0.54629 0.0
C551 C 0.57759 0.40491 0.49157 0.0
C552 C 0.44042 0.60638 0.55296 0.0
C553 C 0.45972 0.5785 0.553 0.0
C554 C 0.4777 0.50455 0.4982 0.0
C555 C 0.54169 0.44234 0.52224 0.0
C556 C 0.52187 0.47232 0.52232 0.0
C557 C 0.46462 0.5605 0.52172 0.0
C558 C 0.48455 0.53007 0.52187 0.0
H559 H 0.56719 0.38246 0.57769 0.0
H560 H 0.53314 0.43105 0.57741 0.0
H561 H 0.49052 0.45719 0.47957 0.0
H562 H 0.41836 0.60652 0.46612 0.0
H563 H 0.45348 0.55931 0.46545 0.0
C564 C 0.11786 0.95098 0.99473 0.0
C565 C 0.11784 0.92227 0.01471 0.0
C566 C 0.09065 0.97132 0.99449 0.0
C567 C 0.03617 0.01848 0.01296 0.0
H568 H 0.9508 0.97923 0.01457 0.0
C569 C 0.92066 0.09464 0.03497 0.0
C570 C 0.89271 0.08681 0.01544 0.0
C571 C 0.94777 0.07435 0.03464 0.0
C572 C 0.9744 0.99065 0.0138 0.0
H573 H 0.08931 0.89297 0.0508 0.0
H574 H 0.04245 0.92852 0.0509 0.0
H575 H 0.99878 0.94498 0.01354 0.0
H576 H 0.87136 0.05109 0.9805 0.0
H577 H 0.91881 0.01579 0.9796 0.0
H578 H 0.01179 0.06414 0.01239 0.0
C579 C 0.06312 0.93508 0.03476 0.0
C580 C 1.00202 0.97097 0.01367 0.0
C581 C 0.09021 0.91477 0.03493 0.0
C582 C 0.8924 0.05782 0.99598 0.0
C583 C 0.91963 0.03751 0.99557 0.0
C584 C 0.00855 0.03816 0.01303 0.0
C585 C 0.06276 0.96348 0.01426 0.0
C586 C 0.03333 0.98458 0.01349 0.0
C587 C 0.94782 0.04565 0.01465 0.0
C588 C 0.97725 0.02455 0.01369 0.0
H589 H 0.13866 0.95747 0.97873 0.0
H590 H 0.09122 0.99282 0.97813 0.0
H591 H 0.05979 0.02991 0.01308 0.0
H592 H 0.92179 0.11666 0.05043 0.0
H593 H 0.96869 0.08115 0.05026 0.0
C594 C 0.92989 0.90614 0.52338 0.0
C595 C 0.92757 0.88688 0.49281 0.0
C596 C 0.94902 0.93415 0.52352 0.0
C597 C 0.97622 0.99993 0.46994 0.0
H598 H 0.04924 0.00888 0.53365 0.0
C599 C 0.06037 0.11259 0.46464 0.0
C600 C 0.07702 0.12193 0.49539 0.0
C601 C 0.04189 0.0841 0.46408 0.0
C602 C 0.02856 0.00733 0.51614 0.0
H603 H 0.94331 0.882 0.43836 0.0
H604 H 0.97586 0.93179 0.43828 0.0
H605 H 0.0178 0.95903 0.53355 0.0
H606 H 0.08616 0.10961 0.55017 0.0
H607 H 0.05242 0.06142 0.55015 0.0
H608 H 0.98548 0.04854 0.45363 0.0
C609 C 0.96327 0.92474 0.46224 0.0
C610 C 0.01078 0.97846 0.5159 0.0
C611 C 0.94483 0.89622 0.46238 0.0
C612 C 0.07383 0.10287 0.52595 0.0
C613 C 0.05469 0.07489 0.52572 0.0
C614 C 0.99347 0.02916 0.47077 0.0
C615 C 0.9655 0.94395 0.49282 0.0
C616 C 0.98456 0.97443 0.4927 0.0
C617 C 0.03891 0.06456 0.49457 0.0
C618 C 0.02005 0.03339 0.49384 0.0
H619 H 0.91691 0.89956 0.54725 0.0
H620 H 0.95034 0.94859 0.5474 0.0
H621 H 0.95586 0.99748 0.45203 0.0
H622 H 0.06269 0.12662 0.44054 0.0
H623 H 0.03078 0.07706 0.43932 0.0
C624 C 0.27828 0.35719 0.15406 0.0
C625 C 0.26727 0.34584 0.12114 0.0
C626 C 0.26569 0.34439 0.18557 0.0
C627 C 0.22323 0.27244 0.22113 0.0
H628 H 0.20008 0.32934 0.29855 0.0
C629 C 0.15128 0.22777 0.34384 0.0
C630 C 0.16011 0.24073 0.37681 0.0
C631 C 0.16475 0.24016 0.31255 0.0
C632 C 0.20678 0.31302 0.27738 0.0
H633 H 0.23438 0.31223 0.09548 0.0
H634 H 0.21251 0.29016 0.15013 0.0
H635 H 0.2236 0.35198 0.24479 0.0
H636 H 0.19053 0.2763 0.40291 0.0
H637 H 0.2143 0.29732 0.3488 0.0
H638 H 0.20658 0.23345 0.25372 0.0
C639 C 0.23105 0.30866 0.15175 0.0
C640 C 0.22028 0.32604 0.24654 0.0
C641 C 0.24346 0.32152 0.12039 0.0
C642 C 0.18298 0.26592 0.37791 0.0
C643 C 0.19649 0.27816 0.3468 0.0
C644 C 0.20985 0.25939 0.25202 0.0
C645 C 0.24202 0.31984 0.18474 0.0
C646 C 0.22857 0.30593 0.21799 0.0
C647 C 0.18739 0.26569 0.31366 0.0
C648 C 0.20141 0.27951 0.28056 0.0
H649 H 0.29666 0.37586 0.15549 0.0
H650 H 0.27483 0.35336 0.21059 0.0
H651 H 0.22976 0.25621 0.19979 0.0
H652 H 0.13366 0.20841 0.34216 0.0
H653 H 0.15694 0.23016 0.28748 0.0
C654 C 0.77301 0.14586 0.86762 0.0
C655 C 0.76215 0.15722 0.90058 0.0
C656 C 0.75921 0.15754 0.83623 0.0
C657 C 0.71394 0.22753 0.80111 0.0
H658 H 0.69348 0.17021 0.72309 0.0
C659 C 0.64458 0.27196 0.67734 0.0
C660 C 0.65583 0.26075 0.64449 0.0
C661 C 0.65634 0.25851 0.70884 0.0
C662 C 0.69933 0.1866 0.74451 0.0
H663 H 0.72798 0.1893 0.92653 0.0
H664 H 0.70394 0.20937 0.87205 0.0
H665 H 0.71708 0.14811 0.77717 0.0
H666 H 0.6881 0.22658 0.61886 0.0
H667 H 0.7088 0.20355 0.67354 0.0
H668 H 0.69654 0.26606 0.76846 0.0
C669 C 0.72334 0.19181 0.87031 0.0
C670 C 0.71288 0.17391 0.77548 0.0
C671 C 0.73701 0.18012 0.90155 0.0
C672 C 0.67879 0.23567 0.64375 0.0
C673 C 0.69055 0.2223 0.67514 0.0
C674 C 0.70049 0.24022 0.77015 0.0
C675 C 0.73442 0.18088 0.83726 0.0
C676 C 0.72031 0.19424 0.80414 0.0
C677 C 0.6796 0.23362 0.7081 0.0
C678 C 0.69304 0.21993 0.74144 0.0
H679 H 0.79239 0.12826 0.86605 0.0
H680 H 0.76844 0.14882 0.81115 0.0
H681 H 0.71986 0.24392 0.82252 0.0
H682 H 0.62685 0.29122 0.67873 0.0
H683 H 0.6471 0.26753 0.73379 0.0
C684 C 0.82633 0.73952 0.37504 0.0
C685 C 0.8477 0.76601 0.37445 0.0
C686 C 0.81313 0.7274 0.34368 0.0
C687 C 0.82772 0.72333 0.24777 0.0
H688 H 0.73724 0.69822 0.24322 0.0
C689 C 0.76706 0.68622 0.1164 0.0
C690 C 0.74405 0.66115 0.1169 0.0
C691 C 0.77948 0.6988 0.14792 0.0
C692 C 0.76266 0.70466 0.24415 0.0
H693 H 0.87175 0.80077 0.34049 0.0
H694 H 0.84868 0.7795 0.28548 0.0
H695 H 0.75894 0.72141 0.29766 0.0
H696 H 0.71616 0.62945 0.15093 0.0
H697 H 0.73836 0.65097 0.20616 0.0
H698 H 0.83167 0.70625 0.19452 0.0
C699 C 0.84231 0.76802 0.3103 0.0
C700 C 0.77507 0.71809 0.27535 0.0
C701 C 0.85537 0.78032 0.34179 0.0
C702 C 0.73384 0.64878 0.14969 0.0
C703 C 0.74642 0.6613 0.18133 0.0
C704 C 0.81538 0.70974 0.21665 0.0
C705 C 0.8211 0.74134 0.3109 0.0
C706 C 0.80774 0.72763 0.27751 0.0
C707 C 0.76938 0.68654 0.18084 0.0
C708 C 0.78265 0.70031 0.21436 0.0
H709 H 0.81991 0.72793 0.39979 0.0
H710 H 0.79717 0.70663 0.34507 0.0
H711 H 0.85312 0.7299 0.24875 0.0
H712 H 0.77529 0.69648 0.0916 0.0
H713 H 0.79664 0.71857 0.14641 0.0
C714 C 0.23462 0.86164 0.86544 0.0
C715 C 0.24593 0.85014 0.89817 0.0
C716 C 0.24808 0.85023 0.83377 0.0
C717 C 0.32042 0.808 0.79774 0.0
H718 H 0.26339 0.78819 0.71914 0.0
C719 C 0.36179 0.73446 0.67509 0.0
C720 C 0.35055 0.745 0.64194 0.0
C721 C 0.34999 0.74852 0.70626 0.0
C722 C 0.27971 0.79393 0.74069 0.0
H723 H 0.28024 0.81775 0.92339 0.0
H724 H 0.30327 0.79763 0.86845 0.0
H725 H 0.24092 0.81099 0.77329 0.0
H726 H 0.31852 0.77886 0.61545 0.0
H727 H 0.29823 0.8034 0.6696 0.0
H728 H 0.35916 0.79056 0.76518 0.0
C729 C 0.28443 0.81581 0.86706 0.0
C730 C 0.26682 0.80708 0.77173 0.0
C731 C 0.27105 0.82722 0.89861 0.0
C732 C 0.32765 0.77011 0.64057 0.0
C733 C 0.31582 0.78406 0.67163 0.0
C734 C 0.3333 0.79476 0.76671 0.0
C735 C 0.2731 0.82708 0.83422 0.0
C736 C 0.28699 0.81417 0.80071 0.0
C737 C 0.32663 0.77328 0.70487 0.0
C738 C 0.31308 0.78752 0.73785 0.0
H739 H 0.21533 0.87935 0.86426 0.0
H740 H 0.23902 0.8597 0.80895 0.0
H741 H 0.33674 0.81363 0.81932 0.0
H742 H 0.37936 0.7151 0.67698 0.0
H743 H 0.35861 0.73948 0.73147 0.0
C744 C 0.76272 0.63952 0.85258 0.0
C745 C 0.75119 0.66368 0.87552 0.0
C746 C 0.77686 0.64783 0.82007 0.0
C747 C 0.81818 0.71621 0.7763 0.0
H748 H 0.80118 0.66921 0.68954 0.0
C749 C 0.85765 0.76383 0.63904 0.0
C750 C 0.86716 0.74133 0.6132 0.0
C751 C 0.84554 0.7534 0.67171 0.0
C752 C 0.80662 0.68231 0.71363 0.0
H753 H 0.74364 0.71532 0.88131 0.0
H754 H 0.76819 0.72971 0.82488 0.0
H755 H 0.77476 0.65244 0.74436 0.0
H756 H 0.87314 0.69023 0.60219 0.0
H757 H 0.85249 0.67202 0.65933 0.0
H758 H 0.85004 0.74606 0.74578 0.0
C759 C 0.76704 0.70443 0.83228 0.0
C760 C 0.79137 0.67271 0.74504 0.0
C761 C 0.75289 0.69615 0.86458 0.0
C762 C 0.86555 0.70818 0.62134 0.0
C763 C 0.85357 0.69774 0.65404 0.0
C764 C 0.83351 0.72572 0.74498 0.0
C765 C 0.77978 0.68046 0.80993 0.0
C766 C 0.79672 0.68977 0.77666 0.0
C767 C 0.84281 0.72019 0.6794 0.0
C768 C 0.82772 0.70909 0.71315 0.0
H769 H 0.76202 0.61432 0.86034 0.0
H770 H 0.78654 0.6288 0.80348 0.0
H771 H 0.82333 0.72949 0.80037 0.0
H772 H 0.85817 0.78952 0.63343 0.0
H773 H 0.83716 0.7714 0.69039 0.0
C774 C 0.36063 0.75585 0.37998 0.0
C775 C 0.33837 0.73996 0.40218 0.0
C776 C 0.3508 0.76813 0.34714 0.0
C777 C 0.28307 0.76476 0.28141 0.0
H778 H 0.31853 0.84706 0.25095 0.0
C779 C 0.22846 0.83799 0.16572 0.0
C780 C 0.25088 0.84635 0.13933 0.0
C781 C 0.23923 0.82647 0.19851 0.0
C782 C 0.30849 0.82404 0.25917 0.0
H783 H 0.28868 0.72309 0.40621 0.0
H784 H 0.27129 0.74565 0.35021 0.0
H785 H 0.33785 0.82246 0.30576 0.0
H786 H 0.3019 0.85083 0.12678 0.0
H787 H 0.32075 0.83147 0.18443 0.0
H788 H 0.2531 0.76696 0.23516 0.0
C789 C 0.29648 0.74831 0.35766 0.0
C790 C 0.31974 0.80974 0.2904 0.0
C791 C 0.30638 0.73573 0.39017 0.0
C792 C 0.28418 0.84446 0.14677 0.0
C793 C 0.29493 0.83351 0.17971 0.0
C794 C 0.2715 0.77931 0.25053 0.0
C795 C 0.31842 0.76503 0.33582 0.0
C796 C 0.30719 0.77987 0.30197 0.0
C797 C 0.27257 0.82371 0.20559 0.0
C798 C 0.28411 0.80906 0.23909 0.0
H799 H 0.3854 0.75977 0.38838 0.0
H800 H 0.36857 0.78029 0.33079 0.0
H801 H 0.27326 0.74146 0.28893 0.0
H802 H 0.20268 0.83907 0.16045 0.0
H803 H 0.22152 0.81926 0.21816 0.0
C804 C 0.13056 0.26341 0.64446 0.0
C805 C 0.15196 0.25963 0.61582 0.0
C806 C 0.14208 0.27382 0.67749 0.0
C807 C 0.21792 0.28221 0.73016 0.0
H808 H 0.16892 0.34634 0.78241 0.0
C809 C 0.27178 0.3481 0.85146 0.0
C810 C 0.25161 0.34975 0.88134 0.0
C811 C 0.2592 0.33844 0.81867 0.0
C812 C 0.18279 0.32828 0.76823 0.0
H813 H 0.20243 0.26231 0.59994 0.0
H814 H 0.22224 0.28101 0.6568 0.0
H815 H 0.14724 0.32481 0.72708 0.0
H816 H 0.20219 0.34438 0.89994 0.0
H817 H 0.18031 0.32758 0.84291 0.0
H818 H 0.25355 0.28585 0.77116 0.0
C819 C 0.19663 0.27587 0.65407 0.0
C820 C 0.17029 0.31581 0.73661 0.0
C821 C 0.18517 0.26553 0.62125 0.0
C822 C 0.2184 0.34297 0.87743 0.0
C823 C 0.20581 0.33359 0.8447 0.0
C824 C 0.23046 0.29478 0.76165 0.0
C825 C 0.17526 0.28043 0.68258 0.0
C826 C 0.18775 0.29269 0.71709 0.0
C827 C 0.22615 0.3306 0.81507 0.0
C828 C 0.2131 0.31802 0.78103 0.0
H829 H 0.10485 0.25909 0.64112 0.0
H830 H 0.12501 0.27668 0.69903 0.0
H831 H 0.23179 0.26403 0.7162 0.0
H832 H 0.29747 0.35309 0.85373 0.0
H833 H 0.27542 0.33677 0.79621 0.0
C834 C 0.76037 0.2006 0.1503 0.0
C835 C 0.76427 0.16777 0.14149 0.0
C836 C 0.74738 0.20959 0.1829 0.0
C837 C 0.73442 0.18387 0.27387 0.0
H838 H 0.66324 0.2451 0.27203 0.0
C839 C 0.66918 0.22069 0.4021 0.0
C840 C 0.66056 0.25333 0.4058 0.0
C841 C 0.67928 0.20866 0.36941 0.0
C842 C 0.68333 0.22831 0.27313 0.0
H843 H 0.75881 0.11868 0.1609 0.0
H844 H 0.73697 0.1346 0.21859 0.0
H845 H 0.68774 0.22731 0.21664 0.0
H846 H 0.65486 0.29889 0.37841 0.0
H847 H 0.67353 0.2783 0.32131 0.0
H848 H 0.73102 0.18563 0.33024 0.0
C849 C 0.74371 0.15324 0.19982 0.0
C850 C 0.69726 0.21803 0.24136 0.0
C851 C 0.75638 0.14417 0.1669 0.0
C852 C 0.6612 0.27357 0.37604 0.0
C853 C 0.67181 0.26166 0.34336 0.0
C854 C 0.72081 0.19448 0.30569 0.0
C855 C 0.73843 0.18602 0.20774 0.0
C856 C 0.72304 0.19587 0.24146 0.0
C857 C 0.68151 0.22914 0.33977 0.0
C858 C 0.69515 0.21696 0.30577 0.0
H859 H 0.76694 0.21947 0.13173 0.0
H860 H 0.74419 0.23506 0.18865 0.0
H861 H 0.75447 0.16698 0.27465 0.0
H862 H 0.66851 0.20456 0.42469 0.0
H863 H 0.68569 0.18333 0.36752 0.0
loop_
_geom_bond_atom_site_label_1
_geom_bond_atom_site_label_2
_geom_bond_distance
_geom_bond_site_symmetry_2
_ccdc_geom_bond_type
Co0 N4 2.148 . S
Co0 N10 2.128 . S
Co0 N20 2.194 1_554 S
Co0 O25 2.351 . S
Co0 O26 2.155 . S
Co0 O27 2.096 . S
C1 N4 1.301 . S
C1 N5 1.328 . S
C1 H6 0.930 . S
C2 C3 1.333 . S
C2 N4 1.317 . S
C2 H7 0.930 . S
C3 C2 1.333 . S
C3 N5 1.350 . S
C3 H29 0.931 . S
N4 Co0 2.148 . S
N4 C1 1.301 . S
N4 C2 1.317 . S
N5 C1 1.328 . S
N5 C3 1.350 . S
H6 C1 0.930 . S
H7 C2 0.930 . S
C8 O9 1.224 1_554 S
C8 O27 1.247 . S
O9 C8 1.224 1_556 S
N10 Co0 2.128 . S
N10 C11 1.355 . S
N10 C13 1.311 . S
C11 N10 1.355 . S
C11 C12 1.363 . S
C11 H23 0.929 . S
C12 C11 1.363 . S
C12 N14 1.375 . S
C12 H30 0.934 . S
C13 N10 1.311 . S
C13 N14 1.347 . S
C13 H24 0.929 . S
N14 C12 1.375 . S
N14 C13 1.347 . S
C15 C18 1.365 . S
C15 N20 1.328 . S
C15 H21 0.929 . S
C16 C17 1.362 . S
C16 C19 1.378 . S
C16 H31 0.929 . S
C17 C16 1.362 . S
C17 C18 1.366 . S
C18 C15 1.365 . S
C18 C17 1.366 . S
C18 H32 0.930 . S
C19 C16 1.378 . S
C19 N20 1.315 . S
C19 H22 0.930 . S
N20 Co0 2.194 1_556 S
N20 C15 1.328 . S
N20 C19 1.315 . S
H21 C15 0.929 . S
H22 C19 0.930 . S
H23 C11 0.929 . S
H24 C13 0.929 . S
O25 Co0 2.351 . S
O25 C28 1.244 . S
O26 Co0 2.155 . S
O26 C28 1.240 . S
O27 Co0 2.096 . S
O27 C8 1.247 . S
C28 O25 1.244 . S
C28 O26 1.240 . S
H29 C3 0.931 . S
H30 C12 0.934 . S
H31 C16 0.929 . S
H32 C18 0.930 . S
Co33 N37 2.148 . S
Co33 N43 2.128 . S
Co33 N53 2.194 . S
Co33 O58 2.351 . S
Co33 O59 2.155 . S
Co33 O60 2.096 . S
C34 N37 1.301 . S
C34 N38 1.328 . S
C34 H39 0.930 . S
C35 C36 1.333 . S
C35 N37 1.317 . S
C35 H40 0.930 . S
C36 C35 1.333 . S
C36 N38 1.350 . S
C36 H62 0.931 . S
N37 Co33 2.148 . S
N37 C34 1.301 . S
N37 C35 1.317 . S
N38 C34 1.328 . S
N38 C36 1.350 . S
H39 C34 0.930 . S
H40 C35 0.930 . S
C41 O42 1.224 . S
C41 O60 1.247 . S
O42 C41 1.224 . S
N43 Co33 2.128 . S
N43 C44 1.355 . S
N43 C46 1.311 . S
C44 N43 1.355 . S
C44 C45 1.363 . S
C44 H56 0.929 . S
C45 C44 1.363 . S
C45 N47 1.375 . S
C45 H63 0.931 . S
C46 N43 1.311 . S
C46 N47 1.347 . S
C46 H57 0.929 . S
N47 C45 1.375 . S
N47 C46 1.347 . S
C48 C51 1.365 . S
C48 N53 1.328 . S
C48 H54 0.929 . S
C49 C50 1.362 . S
C49 C52 1.378 . S
C49 H64 0.929 . S
C50 C49 1.362 . S
C50 C51 1.366 . S
C51 C48 1.365 . S
C51 C50 1.366 . S
C51 H65 0.930 . S
C52 C49 1.378 . S
C52 N53 1.315 . S
C52 H55 0.930 . S
N53 Co33 2.194 . S
N53 C48 1.328 . S
N53 C52 1.315 . S
H54 C48 0.929 . S
H55 C52 0.930 . S
H56 C44 0.929 . S
H57 C46 0.929 . S
O58 Co33 2.351 . S
O58 C61 1.244 . S
O59 Co33 2.155 . S
O59 C61 1.240 . S
O60 Co33 2.096 . S
O60 C41 1.247 . S
C61 O58 1.244 . S
C61 O59 1.240 . S
H62 C36 0.931 . S
H63 C45 0.931 . S
H64 C49 0.929 . S
H65 C51 0.930 . S
Co66 N70 2.148 . S
Co66 N76 2.128 . S
Co66 N86 2.194 1_554 S
Co66 O91 2.351 . S
Co66 O92 2.155 . S
Co66 O93 2.096 . S
C67 N70 1.301 . S
C67 N71 1.328 . S
C67 H72 0.930 . S
C68 C69 1.333 . S
C68 N70 1.317 . S
C68 H73 0.930 . S
C69 C68 1.333 . S
C69 N71 1.350 . S
C69 H95 0.931 . S
N70 Co66 2.148 . S
N70 C67 1.301 . S
N70 C68 1.317 . S
N71 C67 1.328 . S
N71 C69 1.350 . S
H72 C67 0.930 . S
H73 C68 0.930 . S
C74 O75 1.224 1_554 S
C74 O93 1.247 . S
O75 C74 1.224 1_556 S
N76 Co66 2.128 . S
N76 C77 1.355 . S
N76 C79 1.311 . S
C77 N76 1.355 . S
C77 C78 1.363 . S
C77 H89 0.929 . S
C78 C77 1.363 . S
C78 N80 1.375 . S
C78 H96 0.934 . S
C79 N76 1.311 . S
C79 N80 1.347 . S
C79 H90 0.929 . S
N80 C78 1.375 . S
N80 C79 1.347 . S
C81 C84 1.365 . S
C81 N86 1.328 . S
C81 H87 0.929 . S
C82 C83 1.362 . S
C82 C85 1.378 . S
C82 H97 0.929 . S
C83 C82 1.362 . S
C83 C84 1.366 . S
C84 C81 1.365 . S
C84 C83 1.366 . S
C84 H98 0.930 . S
C85 C82 1.378 . S
C85 N86 1.315 . S
C85 H88 0.930 . S
N86 Co66 2.194 1_556 S
N86 C81 1.328 . S
N86 C85 1.315 . S
H87 C81 0.929 . S
H88 C85 0.930 . S
H89 C77 0.929 . S
H90 C79 0.929 . S
O91 Co66 2.351 . S
O91 C94 1.244 . S
O92 Co66 2.155 . S
O92 C94 1.240 . S
O93 Co66 2.096 . S
O93 C74 1.247 . S
C94 O91 1.244 . S
C94 O92 1.240 . S
H95 C69 0.931 . S
H96 C78 0.934 . S
H97 C82 0.929 . S
H98 C84 0.930 . S
Co99 N103 2.148 . S
Co99 N109 2.128 . S
Co99 N119 2.194 . S
Co99 O124 2.351 . S
Co99 O125 2.155 . S
Co99 O126 2.096 . S
C100 N103 1.301 . S
C100 N104 1.328 . S
C100 H105 0.930 . S
C101 C102 1.333 . S
C101 N103 1.317 . S
C101 H106 0.930 . S
C102 C101 1.333 . S
C102 N104 1.350 . S
C102 H128 0.931 . S
N103 Co99 2.148 . S
N103 C100 1.301 . S
N103 C101 1.317 . S
N104 C100 1.328 . S
N104 C102 1.350 . S
H105 C100 0.930 . S
H106 C101 0.930 . S
C107 O108 1.224 . S
C107 O126 1.247 . S
O108 C107 1.224 . S
N109 Co99 2.128 . S
N109 C110 1.355 . S
N109 C112 1.311 . S
C110 N109 1.355 . S
C110 C111 1.363 . S
C110 H122 0.929 . S
C111 C110 1.363 . S
C111 N113 1.375 . S
C111 H129 0.931 . S
C112 N109 1.311 . S
C112 N113 1.347 . S
C112 H123 0.929 . S
N113 C111 1.375 . S
N113 C112 1.347 . S
C114 C117 1.365 . S
C114 N119 1.328 . S
C114 H120 0.929 . S
C115 C116 1.362 . S
C115 C118 1.378 . S
C115 H130 0.929 . S
C116 C115 1.362 . S
C116 C117 1.366 . S
C117 C114 1.365 . S
C117 C116 1.366 . S
C117 H131 0.930 . S
C118 C115 1.378 . S
C118 N119 1.315 . S
C118 H121 0.930 . S
N119 Co99 2.194 . S
N119 C114 1.328 . S
N119 C118 1.315 . S
H120 C114 0.929 . S
H121 C118 0.930 . S
H122 C110 0.929 . S
H123 C112 0.929 . S
O124 Co99 2.351 . S
O124 C127 1.244 . S
O125 Co99 2.155 . S
O125 C127 1.240 . S
O126 Co99 2.096 . S
O126 C107 1.247 . S
C127 O124 1.244 . S
C127 O125 1.240 . S
H128 C102 0.931 . S
H129 C111 0.931 . S
H130 C115 0.929 . S
H131 C117 0.930 . S
Co132 N136 2.148 . S
Co132 N142 2.128 . S
Co132 N152 2.194 1_556 S
Co132 O157 2.351 . S
Co132 O158 2.155 . S
Co132 O159 2.096 . S
C133 N136 1.301 . S
C133 N137 1.328 . S
C133 H138 0.930 . S
C134 C135 1.333 . S
C134 N136 1.317 . S
C134 H139 0.930 . S
C135 C134 1.333 . S
C135 N137 1.350 . S
C135 H161 0.931 . S
N136 Co132 2.148 . S
N136 C133 1.301 . S
N136 C134 1.317 . S
N137 C133 1.328 . S
N137 C135 1.350 . S
H138 C133 0.930 . S
H139 C134 0.930 . S
C140 O141 1.251 . S
C140 O159 1.222 1_554 S
O141 C140 1.251 . S
N142 Co132 2.128 . S
N142 C143 1.355 1_556 S
N142 C145 1.311 . S
C143 N142 1.355 1_554 S
C143 C144 1.363 1_545 S
C143 H155 0.929 . S
C144 C143 1.363 1_565 S
C144 N146 1.375 1_554 S
C144 H162 0.931 . S
C145 N142 1.311 . S
C145 N146 1.347 1_545 S
C145 H156 0.929 . S
N146 C144 1.375 1_556 S
N146 C145 1.347 1_565 S
C147 C150 1.365 . S
C147 N152 1.328 . S
C147 H153 0.929 . S
C148 C149 1.362 . S
C148 C151 1.378 . S
C148 H163 0.929 . S
C149 C148 1.362 . S
C149 C150 1.366 . S
C150 C147 1.365 . S
C150 C149 1.366 . S
C150 H164 0.930 . S
C151 C148 1.378 . S
C151 N152 1.315 . S
C151 H154 0.930 . S
N152 Co132 2.194 1_554 S
N152 C147 1.328 . S
N152 C151 1.315 . S
H153 C147 0.929 . S
H154 C151 0.930 . S
H155 C143 0.929 . S
H156 C145 0.929 . S
O157 Co132 2.351 . S
O157 C160 1.244 . S
O158 Co132 2.155 . S
O158 C160 1.240 . S
O159 Co132 2.096 . S
O159 C140 1.222 1_556 S
C160 O157 1.244 . S
C160 O158 1.240 . S
H161 C135 0.931 . S
H162 C144 0.931 . S
H163 C148 0.929 . S
H164 C150 0.930 . S
Co165 N169 2.148 . S
Co165 N175 2.128 . S
Co165 N185 2.194 . S
Co165 O190 2.351 . S
Co165 O191 2.155 . S
Co165 O192 2.096 . S
C166 N169 1.301 . S
C166 N170 1.328 . S
C166 H171 0.930 . S
C167 C168 1.333 . S
C167 N169 1.317 . S
C167 H172 0.930 . S
C168 C167 1.333 . S
C168 N170 1.350 . S
C168 H194 0.931 . S
N169 Co165 2.148 . S
N169 C166 1.301 . S
N169 C167 1.317 . S
N170 C166 1.328 . S
N170 C168 1.350 . S
H171 C166 0.930 . S
H172 C167 0.930 . S
C173 O174 1.224 . S
C173 O192 1.247 . S
O174 C173 1.224 . S
N175 Co165 2.128 . S
N175 C176 1.355 . S
N175 C178 1.311 . S
C176 N175 1.355 . S
C176 C177 1.363 1_655 S
C176 H188 0.929 . S
C177 C176 1.363 1_455 S
C177 N179 1.375 . S
C177 H195 0.931 . S
C178 N175 1.311 . S
C178 N179 1.347 1_655 S
C178 H189 0.929 . S
N179 C177 1.375 . S
N179 C178 1.347 1_455 S
C180 C183 1.365 . S
C180 N185 1.328 . S
C180 H186 0.929 . S
C181 C182 1.362 . S
C181 C184 1.378 . S
C181 H196 0.929 . S
C182 C181 1.362 . S
C182 C183 1.366 . S
C183 C180 1.365 . S
C183 C182 1.366 . S
C183 H197 0.930 . S
C184 C181 1.378 . S
C184 N185 1.315 . S
C184 H187 0.930 . S
N185 Co165 2.194 . S
N185 C180 1.328 . S
N185 C184 1.315 . S
H186 C180 0.929 . S
H187 C184 0.930 . S
H188 C176 0.929 . S
H189 C178 0.929 . S
O190 Co165 2.351 . S
O190 C193 1.244 . S
O191 Co165 2.155 . S
O191 C193 1.240 . S
O192 Co165 2.096 . S
O192 C173 1.247 . S
C193 O190 1.244 . S
C193 O191 1.240 . S
H194 C168 0.931 . S
H195 C177 0.931 . S
H196 C181 0.929 . S
H197 C183 0.930 . S
Co198 N202 2.148 . S
Co198 N208 2.128 . S
Co198 N218 2.194 1_556 S
Co198 O223 2.351 . S
Co198 O224 2.155 . S
Co198 O225 2.096 . S
C199 N202 1.301 . S
C199 N203 1.328 . S
C199 H204 0.930 . S
C200 C201 1.333 . S
C200 N202 1.317 . S
C200 H205 0.930 . S
C201 C200 1.333 . S
C201 N203 1.350 . S
C201 H227 0.931 . S
N202 Co198 2.148 . S
N202 C199 1.301 . S
N202 C200 1.317 . S
N203 C199 1.328 . S
N203 C201 1.350 . S
H204 C199 0.930 . S
H205 C200 0.930 . S
C206 O207 1.251 . S
C206 O225 1.222 1_554 S
O207 C206 1.251 . S
N208 Co198 2.128 . S
N208 C209 1.355 1_556 S
N208 C211 1.311 . S
C209 N208 1.355 1_554 S
C209 C210 1.363 1_565 S
C209 H221 0.929 . S
C210 C209 1.363 1_545 S
C210 N212 1.375 1_554 S
C210 H228 0.931 . S
C211 N208 1.311 . S
C211 N212 1.347 1_565 S
C211 H222 0.929 . S
N212 C210 1.375 1_556 S
N212 C211 1.347 1_545 S
C213 C216 1.365 . S
C213 N218 1.328 . S
C213 H219 0.929 . S
C214 C215 1.362 . S
C214 C217 1.378 . S
C214 H229 0.929 . S
C215 C214 1.362 . S
C215 C216 1.366 . S
C216 C213 1.365 . S
C216 C215 1.366 . S
C216 H230 0.930 . S
C217 C214 1.378 . S
C217 N218 1.315 . S
C217 H220 0.930 . S
N218 Co198 2.194 1_554 S
N218 C213 1.328 . S
N218 C217 1.315 . S
H219 C213 0.929 . S
H220 C217 0.930 . S
H221 C209 0.929 . S
H222 C211 0.929 . S
O223 Co198 2.351 . S
O223 C226 1.244 . S
O224 Co198 2.155 . S
O224 C226 1.240 . S
O225 Co198 2.096 . S
O225 C206 1.222 1_556 S
C226 O223 1.244 . S
C226 O224 1.240 . S
H227 C201 0.931 . S
H228 C210 0.931 . S
H229 C214 0.929 . S
H230 C216 0.930 . S
Co231 N235 2.148 . S
Co231 N241 2.128 . S
Co231 N251 2.194 . S
Co231 O256 2.351 . S
Co231 O257 2.155 . S
Co231 O258 2.096 . S
C232 N235 1.301 . S
C232 N236 1.328 . S
C232 H237 0.930 . S
C233 C234 1.333 . S
C233 N235 1.317 . S
C233 H238 0.930 . S
C234 C233 1.333 . S
C234 N236 1.350 . S
C234 H260 0.931 . S
N235 Co231 2.148 . S
N235 C232 1.301 . S
N235 C233 1.317 . S
N236 C232 1.328 . S
N236 C234 1.350 . S
H237 C232 0.930 . S
H238 C233 0.930 . S
C239 O240 1.224 . S
C239 O258 1.247 . S
O240 C239 1.224 . S
N241 Co231 2.128 . S
N241 C242 1.355 . S
N241 C244 1.311 . S
C242 N241 1.355 . S
C242 C243 1.363 1_455 S
C242 H254 0.929 . S
C243 C242 1.363 1_655 S
C243 N245 1.375 . S
C243 H261 0.931 . S
C244 N241 1.311 . S
C244 N245 1.347 1_455 S
C244 H255 0.929 . S
N245 C243 1.375 . S
N245 C244 1.347 1_655 S
C246 C249 1.365 . S
C246 N251 1.328 . S
C246 H252 0.929 . S
C247 C248 1.362 . S
C247 C250 1.378 . S
C247 H262 0.929 . S
C248 C247 1.362 . S
C248 C249 1.366 . S
C249 C246 1.365 . S
C249 C248 1.366 . S
C249 H263 0.930 . S
C250 C247 1.378 . S
C250 N251 1.315 . S
C250 H253 0.930 . S
N251 Co231 2.194 . S
N251 C246 1.328 . S
N251 C250 1.315 . S
H252 C246 0.929 . S
H253 C250 0.930 . S
H254 C242 0.929 . S
H255 C244 0.929 . S
O256 Co231 2.351 . S
O256 C259 1.244 . S
O257 Co231 2.155 . S
O257 C259 1.240 . S
O258 Co231 2.096 . S
O258 C239 1.247 . S
C259 O256 1.244 . S
C259 O257 1.240 . S
H260 C234 0.931 . S
H261 C243 0.931 . S
H262 C247 0.929 . S
H263 C249 0.930 . S
C264 C265 1.349 . S
C264 C266 1.327 . S
C264 H289 0.950 . S
C265 C264 1.349 . S
C265 C281 1.349 1_556 S
C266 C264 1.327 . S
C266 C285 1.429 1_556 S
C266 H290 0.950 . S
C267 C284 1.574 . S
C267 C286 1.368 . S
C267 H291 0.949 . S
H268 C272 0.949 . S
C269 C270 1.349 . S
C269 C271 1.327 . S
C269 H292 0.950 . S
C270 C269 1.349 . S
C270 C282 1.349 . S
C271 C269 1.327 . S
C271 C287 1.429 . S
C271 H293 0.950 . S
C272 H268 0.949 . S
C272 C280 1.574 . S
C272 C288 1.368 1_556 S
H273 C281 0.950 . S
H274 C279 0.950 . S
H275 C280 0.949 . S
H276 C282 0.950 1_556 S
H277 C283 0.950 . S
H278 C284 0.949 . S
C279 H274 0.950 . S
C279 C281 1.327 . S
C279 C285 1.429 . S
C280 C272 1.574 . S
C280 H275 0.949 . S
C280 C286 1.368 1_556 S
C281 C265 1.349 1_554 S
C281 H273 0.950 . S
C281 C279 1.327 . S
C282 C270 1.349 . S
C282 H276 0.950 1_554 S
C282 C283 1.327 1_554 S
C283 H277 0.950 . S
C283 C282 1.327 1_556 S
C283 C287 1.429 1_556 S
C284 C267 1.574 . S
C284 H278 0.949 . S
C284 C288 1.368 . S
C285 C266 1.429 1_554 S
C285 C279 1.429 . S
C285 C286 1.523 . S
C286 C267 1.368 . S
C286 C280 1.368 1_554 S
C286 C285 1.523 . S
C287 C271 1.429 . S
C287 C283 1.429 1_554 S
C287 C288 1.523 . S
C288 C272 1.368 1_554 S
C288 C284 1.368 . S
C288 C287 1.523 . S
H289 C264 0.950 . S
H290 C266 0.950 . S
H291 C267 0.949 . S
H292 C269 0.950 . S
H293 C271 0.950 . S
C294 C295 1.349 . S
C294 C296 1.327 . S
C294 H319 0.950 . S
C295 C294 1.349 . S
C295 C311 1.349 . S
C296 C294 1.327 . S
C296 C315 1.429 . S
C296 H320 0.950 . S
C297 C314 1.574 . S
C297 C316 1.368 . S
C297 H321 0.949 . S
H298 C302 0.949 . S
C299 C300 1.349 . S
C299 C301 1.327 . S
C299 H322 0.950 . S
C300 C299 1.349 . S
C300 C312 1.349 . S
C301 C299 1.327 . S
C301 C317 1.429 . S
C301 H323 0.950 . S
C302 H298 0.949 . S
C302 C310 1.574 . S
C302 C318 1.368 . S
H303 C311 0.950 . S
H304 C309 0.950 . S
H305 C310 0.949 . S
H306 C312 0.950 . S
H307 C313 0.950 . S
H308 C314 0.949 . S
C309 H304 0.950 . S
C309 C311 1.327 . S
C309 C315 1.429 . S
C310 C302 1.574 . S
C310 H305 0.949 . S
C310 C316 1.368 . S
C311 C295 1.349 . S
C311 H303 0.950 . S
C311 C309 1.327 . S
C312 C300 1.349 . S
C312 H306 0.950 . S
C312 C313 1.327 . S
C313 H307 0.950 . S
C313 C312 1.327 . S
C313 C317 1.429 . S
C314 C297 1.574 . S
C314 H308 0.949 . S
C314 C318 1.368 . S
C315 C296 1.429 . S
C315 C309 1.429 . S
C315 C316 1.523 . S
C316 C297 1.368 . S
C316 C310 1.368 . S
C316 C315 1.523 . S
C317 C301 1.429 . S
C317 C313 1.429 . S
C317 C318 1.523 . S
C318 C302 1.368 . S
C318 C314 1.368 . S
C318 C317 1.523 . S
H319 C294 0.950 . S
H320 C296 0.950 . S
H321 C297 0.949 . S
H322 C299 0.950 . S
H323 C301 0.950 . S
C324 C325 1.349 1_554 S
C324 C326 1.327 . S
C324 H349 0.950 . S
C325 C324 1.349 1_556 S
C325 C341 1.349 . S
C326 C324 1.327 . S
C326 C345 1.429 . S
C326 H350 0.950 . S
C327 C344 1.574 . S
C327 C346 1.368 1_556 S
C327 H351 0.949 . S
H328 C332 0.949 . S
C329 C330 1.349 . S
C329 C331 1.327 1_554 S
C329 H352 0.950 1_554 S
C330 C329 1.349 . S
C330 C342 1.349 . S
C331 C329 1.327 1_556 S
C331 C347 1.429 1_556 S
C331 H353 0.950 . S
C332 H328 0.949 . S
C332 C340 1.574 . S
C332 C348 1.368 . S
H333 C341 0.950 . S
H334 C339 0.950 . S
H335 C340 0.949 . S
H336 C342 0.950 . S
H337 C343 0.950 . S
H338 C344 0.949 . S
C339 H334 0.950 . S
C339 C341 1.327 . S
C339 C345 1.429 1_556 S
C340 C332 1.574 . S
C340 H335 0.949 . S
C340 C346 1.368 . S
C341 C325 1.349 . S
C341 H333 0.950 . S
C341 C339 1.327 . S
C342 C330 1.349 . S
C342 H336 0.950 . S
C342 C343 1.327 . S
C343 H337 0.950 . S
C343 C342 1.327 . S
C343 C347 1.429 . S
C344 C327 1.574 . S
C344 H338 0.949 . S
C344 C348 1.368 1_556 S
C345 C326 1.429 . S
C345 C339 1.429 1_554 S
C345 C346 1.523 . S
C346 C327 1.368 1_554 S
C346 C340 1.368 . S
C346 C345 1.523 . S
C347 C331 1.429 1_554 S
C347 C343 1.429 . S
C347 C348 1.523 . S
C348 C332 1.368 . S
C348 C344 1.368 1_554 S
C348 C347 1.523 . S
H349 C324 0.950 . S
H350 C326 0.950 . S
H351 C327 0.949 . S
H352 C329 0.950 1_556 S
H353 C331 0.950 . S
C354 C355 1.349 . S
C354 C356 1.327 . S
C354 H379 0.950 . S
C355 C354 1.349 . S
C355 C371 1.349 . S
C356 C354 1.327 . S
C356 C375 1.429 . S
C356 H380 0.950 . S
C357 C374 1.574 . S
C357 C376 1.368 . S
C357 H381 0.949 . S
H358 C362 0.949 . S
C359 C360 1.349 . S
C359 C361 1.327 . S
C359 H382 0.950 . S
C360 C359 1.349 . S
C360 C372 1.349 . S
C361 C359 1.327 . S
C361 C377 1.429 . S
C361 H383 0.950 . S
C362 H358 0.949 . S
C362 C370 1.574 . S
C362 C378 1.368 . S
H363 C371 0.950 . S
H364 C369 0.950 . S
H365 C370 0.949 . S
H366 C372 0.950 . S
H367 C373 0.950 . S
H368 C374 0.949 . S
C369 H364 0.950 . S
C369 C371 1.327 . S
C369 C375 1.429 . S
C370 C362 1.574 . S
C370 H365 0.949 . S
C370 C376 1.368 . S
C371 C355 1.349 . S
C371 H363 0.950 . S
C371 C369 1.327 . S
C372 C360 1.349 . S
C372 H366 0.950 . S
C372 C373 1.327 . S
C373 H367 0.950 . S
C373 C372 1.327 . S
C373 C377 1.429 . S
C374 C357 1.574 . S
C374 H368 0.949 . S
C374 C378 1.368 . S
C375 C356 1.429 . S
C375 C369 1.429 . S
C375 C376 1.523 . S
C376 C357 1.368 . S
C376 C370 1.368 . S
C376 C375 1.523 . S
C377 C361 1.429 . S
C377 C373 1.429 . S
C377 C378 1.523 . S
C378 C362 1.368 . S
C378 C374 1.368 . S
C378 C377 1.523 . S
H379 C354 0.950 . S
H380 C356 0.950 . S
H381 C357 0.949 . S
H382 C359 0.950 . S
H383 C361 0.950 . S
C384 C385 1.349 . S
C384 C386 1.327 . S
C384 H409 0.950 . S
C385 C384 1.349 . S
C385 C401 1.349 1_554 S
C386 C384 1.327 . S
C386 C405 1.429 . S
C386 H410 0.950 . S
C387 C404 1.574 . S
C387 C406 1.368 1_556 S
C387 H411 0.949 . S
H388 C392 0.949 . S
C389 C390 1.349 . S
C389 C391 1.327 . S
C389 H412 0.950 . S
C390 C389 1.349 . S
C390 C402 1.349 1_556 S
C391 C389 1.327 . S
C391 C407 1.429 . S
C391 H413 0.950 . S
C392 H388 0.949 . S
C392 C400 1.574 . S
C392 C408 1.368 1_554 S
H393 C401 0.950 . S
H394 C399 0.950 . S
H395 C400 0.949 . S
H396 C402 0.950 . S
H397 C403 0.950 . S
H398 C404 0.949 . S
C399 H394 0.950 . S
C399 C401 1.327 . S
C399 C405 1.429 1_556 S
C400 C392 1.574 . S
C400 H395 0.949 . S
C400 C406 1.368 . S
C401 C385 1.349 1_556 S
C401 H393 0.950 . S
C401 C399 1.327 . S
C402 C390 1.349 1_554 S
C402 H396 0.950 . S
C402 C403 1.327 . S
C403 H397 0.950 . S
C403 C402 1.327 . S
C403 C407 1.429 1_554 S
C404 C387 1.574 . S
C404 H398 0.949 . S
C404 C408 1.368 . S
C405 C386 1.429 . S
C405 C399 1.429 1_554 S
C405 C406 1.523 . S
C406 C387 1.368 1_554 S
C406 C400 1.368 . S
C406 C405 1.523 . S
C407 C391 1.429 . S
C407 C403 1.429 1_556 S
C407 C408 1.523 . S
C408 C392 1.368 1_556 S
C408 C404 1.368 . S
C408 C407 1.523 . S
H409 C384 0.950 . S
H410 C386 0.950 . S
H411 C387 0.949 . S
H412 C389 0.950 . S
H413 C391 0.950 . S
C414 C415 1.349 . S
C414 C416 1.327 . S
C414 H439 0.950 . S
C415 C414 1.349 . S
C415 C431 1.349 . S
C416 C414 1.327 . S
C416 C435 1.429 . S
C416 H440 0.950 . S
C417 C434 1.574 . S
C417 C436 1.368 . S
C417 H441 0.949 . S
H418 C422 0.949 . S
C419 C420 1.349 . S
C419 C421 1.327 . S
C419 H442 0.950 . S
C420 C419 1.349 . S
C420 C432 1.349 . S
C421 C419 1.327 . S
C421 C437 1.429 . S
C421 H443 0.950 . S
C422 H418 0.949 . S
C422 C430 1.574 . S
C422 C438 1.368 . S
H423 C431 0.950 . S
H424 C429 0.950 . S
H425 C430 0.949 . S
H426 C432 0.950 . S
H427 C433 0.950 . S
H428 C434 0.949 . S
C429 H424 0.950 . S
C429 C431 1.327 . S
C429 C435 1.429 . S
C430 C422 1.574 . S
C430 H425 0.949 . S
C430 C436 1.368 . S
C431 C415 1.349 . S
C431 H423 0.950 . S
C431 C429 1.327 . S
C432 C420 1.349 . S
C432 H426 0.950 . S
C432 C433 1.327 . S
C433 H427 0.950 . S
C433 C432 1.327 . S
C433 C437 1.429 . S
C434 C417 1.574 . S
C434 H428 0.949 . S
C434 C438 1.368 . S
C435 C416 1.429 . S
C435 C429 1.429 . S
C435 C436 1.523 . S
C436 C417 1.368 . S
C436 C430 1.368 . S
C436 C435 1.523 . S
C437 C421 1.429 . S
C437 C433 1.429 . S
C437 C438 1.523 . S
C438 C422 1.368 . S
C438 C434 1.368 . S
C438 C437 1.523 . S
H439 C414 0.950 . S
H440 C416 0.950 . S
H441 C417 0.949 . S
H442 C419 0.950 . S
H443 C421 0.950 . S
C444 C445 1.349 1_556 S
C444 C446 1.327 . S
C444 H469 0.950 . S
C445 C444 1.349 1_554 S
C445 C461 1.349 . S
C446 C444 1.327 . S
C446 C465 1.429 1_556 S
C446 H470 0.950 . S
C447 C464 1.574 . S
C447 C466 1.368 . S
C447 H471 0.949 . S
H448 C452 0.949 . S
C449 C450 1.349 1_554 S
C449 C451 1.327 . S
C449 H472 0.950 . S
C450 C449 1.349 1_556 S
C450 C462 1.349 . S
C451 C449 1.327 . S
C451 C467 1.429 1_554 S
C451 H473 0.950 . S
C452 H448 0.949 . S
C452 C460 1.574 . S
C452 C468 1.368 . S
H453 C461 0.950 . S
H454 C459 0.950 . S
H455 C460 0.949 . S
H456 C462 0.950 . S
H457 C463 0.950 . S
H458 C464 0.949 . S
C459 H454 0.950 . S
C459 C461 1.327 . S
C459 C465 1.429 . S
C460 C452 1.574 . S
C460 H455 0.949 . S
C460 C466 1.368 1_556 S
C461 C445 1.349 . S
C461 H453 0.950 . S
C461 C459 1.327 . S
C462 C450 1.349 . S
C462 H456 0.950 . S
C462 C463 1.327 . S
C463 H457 0.950 . S
C463 C462 1.327 . S
C463 C467 1.429 . S
C464 C447 1.574 . S
C464 H458 0.949 . S
C464 C468 1.368 1_554 S
C465 C446 1.429 1_554 S
C465 C459 1.429 . S
C465 C466 1.523 . S
C466 C447 1.368 . S
C466 C460 1.368 1_554 S
C466 C465 1.523 . S
C467 C451 1.429 1_556 S
C467 C463 1.429 . S
C467 C468 1.523 . S
C468 C452 1.368 . S
C468 C464 1.368 1_556 S
C468 C467 1.523 . S
H469 C444 0.950 . S
H470 C446 0.950 . S
H471 C447 0.949 . S
H472 C449 0.950 . S
H473 C451 0.950 . S
C474 C475 1.349 . S
C474 C476 1.327 . S
C474 H499 0.950 . S
C475 C474 1.349 . S
C475 C491 1.349 . S
C476 C474 1.327 . S
C476 C495 1.429 . S
C476 H500 0.950 . S
C477 C494 1.574 . S
C477 C496 1.368 . S
C477 H501 0.949 . S
H478 C482 0.949 . S
C479 C480 1.349 . S
C479 C481 1.327 . S
C479 H502 0.950 . S
C480 C479 1.349 . S
C480 C492 1.349 . S
C481 C479 1.327 . S
C481 C497 1.429 . S
C481 H503 0.950 . S
C482 H478 0.949 . S
C482 C490 1.574 . S
C482 C498 1.368 . S
H483 C491 0.950 . S
H484 C489 0.950 . S
H485 C490 0.949 . S
H486 C492 0.950 . S
H487 C493 0.950 . S
H488 C494 0.949 . S
C489 H484 0.950 . S
C489 C491 1.327 . S
C489 C495 1.429 . S
C490 C482 1.574 . S
C490 H485 0.949 . S
C490 C496 1.368 . S
C491 C475 1.349 . S
C491 H483 0.950 . S
C491 C489 1.327 . S
C492 C480 1.349 . S
C492 H486 0.950 . S
C492 C493 1.327 . S
C493 H487 0.950 . S
C493 C492 1.327 . S
C493 C497 1.429 . S
C494 C477 1.574 . S
C494 H488 0.949 . S
C494 C498 1.368 . S
C495 C476 1.429 . S
C495 C489 1.429 . S
C495 C496 1.523 . S
C496 C477 1.368 . S
C496 C490 1.368 . S
C496 C495 1.523 . S
C497 C481 1.429 . S
C497 C493 1.429 . S
C497 C498 1.523 . S
C498 C482 1.368 . S
C498 C494 1.368 . S
C498 C497 1.523 . S
H499 C474 0.950 . S
H500 C476 0.950 . S
H501 C477 0.949 . S
H502 C479 0.950 . S
H503 C481 0.950 . S
C504 C505 1.349 1_556 S
C504 C506 1.327 . S
C504 H529 0.950 . S
C505 C504 1.349 1_554 S
C505 C521 1.349 . S
C506 C504 1.327 . S
C506 C525 1.429 1_556 S
C506 H530 0.950 . S
C507 C524 1.574 . S
C507 C526 1.368 . S
C507 H531 0.949 . S
H508 C512 0.949 . S
C509 C510 1.349 . S
C509 C511 1.327 . S
C509 H532 0.950 . S
C510 C509 1.349 . S
C510 C522 1.349 1_554 S
C511 C509 1.327 . S
C511 C527 1.429 . S
C511 H533 0.950 . S
C512 H508 0.949 . S
C512 C520 1.574 . S
C512 C528 1.368 1_556 S
H513 C521 0.950 . S
H514 C519 0.950 . S
H515 C520 0.949 . S
H516 C522 0.950 . S
H517 C523 0.950 . S
H518 C524 0.949 . S
C519 H514 0.950 . S
C519 C521 1.327 . S
C519 C525 1.429 . S
C520 C512 1.574 . S
C520 H515 0.949 . S
C520 C526 1.368 1_556 S
C521 C505 1.349 . S
C521 H513 0.950 . S
C521 C519 1.327 . S
C522 C510 1.349 1_556 S
C522 H516 0.950 . S
C522 C523 1.327 . S
C523 H517 0.950 . S
C523 C522 1.327 . S
C523 C527 1.429 1_556 S
C524 C507 1.574 . S
C524 H518 0.949 . S
C524 C528 1.368 . S
C525 C506 1.429 1_554 S
C525 C519 1.429 . S
C525 C526 1.523 . S
C526 C507 1.368 . S
C526 C520 1.368 1_554 S
C526 C525 1.523 . S
C527 C511 1.429 . S
C527 C523 1.429 1_554 S
C527 C528 1.523 . S
C528 C512 1.368 1_554 S
C528 C524 1.368 . S
C528 C527 1.523 . S
H529 C504 0.950 . S
H530 C506 0.950 . S
H531 C507 0.949 . S
H532 C509 0.950 . S
H533 C511 0.950 . S
C534 C535 1.349 . S
C534 C536 1.327 . S
C534 H559 0.950 . S
C535 C534 1.349 . S
C535 C551 1.349 . S
C536 C534 1.327 . S
C536 C555 1.429 . S
C536 H560 0.950 . S
C537 C554 1.574 . S
C537 C556 1.368 . S
C537 H561 0.949 . S
H538 C542 0.949 . S
C539 C540 1.349 . S
C539 C541 1.327 . S
C539 H562 0.950 . S
C540 C539 1.349 . S
C540 C552 1.349 . S
C541 C539 1.327 . S
C541 C557 1.429 . S
C541 H563 0.950 . S
C542 H538 0.949 . S
C542 C550 1.574 . S
C542 C558 1.368 . S
H543 C551 0.950 . S
H544 C549 0.950 . S
H545 C550 0.949 . S
H546 C552 0.950 . S
H547 C553 0.950 . S
H548 C554 0.949 . S
C549 H544 0.950 . S
C549 C551 1.327 . S
C549 C555 1.429 . S
C550 C542 1.574 . S
C550 H545 0.949 . S
C550 C556 1.368 . S
C551 C535 1.349 . S
C551 H543 0.950 . S
C551 C549 1.327 . S
C552 C540 1.349 . S
C552 H546 0.950 . S
C552 C553 1.327 . S
C553 H547 0.950 . S
C553 C552 1.327 . S
C553 C557 1.429 . S
C554 C537 1.574 . S
C554 H548 0.949 . S
C554 C558 1.368 . S
C555 C536 1.429 . S
C555 C549 1.429 . S
C555 C556 1.523 . S
C556 C537 1.368 . S
C556 C550 1.368 . S
C556 C555 1.523 . S
C557 C541 1.429 . S
C557 C553 1.429 . S
C557 C558 1.523 . S
C558 C542 1.368 . S
C558 C554 1.368 . S
C558 C557 1.523 . S
H559 C534 0.950 . S
H560 C536 0.950 . S
H561 C537 0.949 . S
H562 C539 0.950 . S
H563 C541 0.950 . S
C564 C565 1.351 . S
C564 C566 1.327 . S
C564 H589 0.950 . S
C565 C564 1.351 . S
C565 C581 1.346 1_556 S
C566 C564 1.327 . S
C566 C585 1.431 . S
C566 H590 0.950 . S
C567 C584 1.574 1_455 S
C567 C586 1.366 1_544 S
C567 H591 0.949 . S
H568 C572 0.949 . S
C569 C570 1.346 1_554 S
C569 C571 1.327 . S
C569 H592 0.950 . S
C570 C569 1.346 1_556 S
C570 C582 1.351 . S
C571 C569 1.327 . S
C571 C587 1.426 1_554 S
C571 H593 0.950 . S
C572 H568 0.949 . S
C572 C580 1.574 1_655 S
C572 C588 1.371 1_565 S
H573 C581 0.950 . S
H574 C579 0.950 1_545 S
H575 C580 0.949 . S
H576 C582 0.950 . S
H577 C583 0.950 1_565 S
H578 C584 0.949 . S
C579 H574 0.950 1_565 S
C579 C581 1.327 . S
C579 C585 1.426 1_554 S
C580 C572 1.574 1_455 S
C580 H575 0.949 . S
C580 C586 1.371 . S
C581 C565 1.346 1_554 S
C581 H573 0.950 . S
C581 C579 1.327 . S
C582 C570 1.351 . S
C582 H576 0.950 . S
C582 C583 1.327 . S
C583 H577 0.950 1_545 S
C583 C582 1.327 . S
C583 C587 1.431 . S
C584 C567 1.574 1_655 S
C584 H578 0.949 . S
C584 C588 1.366 1_554 S
C585 C566 1.431 . S
C585 C579 1.426 1_556 S
C585 C586 1.523 . S
C586 C567 1.366 1_566 S
C586 C580 1.371 . S
C586 C585 1.523 . S
C587 C571 1.426 1_556 S
C587 C583 1.431 . S
C587 C588 1.523 . S
C588 C572 1.371 1_545 S
C588 C584 1.366 1_556 S
C588 C587 1.523 . S
H589 C564 0.950 . S
H590 C566 0.950 . S
H591 C567 0.949 . S
H592 C569 0.950 . S
H593 C571 0.950 . S
C594 C595 1.349 . S
C594 C596 1.327 . S
C594 H619 0.950 . S
C595 C594 1.349 . S
C595 C611 1.349 . S
C596 C594 1.327 . S
C596 C615 1.429 . S
C596 H620 0.950 1_655 S
C597 C614 1.574 1_565 S
C597 C616 1.368 . S
C597 H621 0.949 . S
H598 C602 0.949 . S
C599 C600 1.349 . S
C599 C601 1.327 . S
C599 H622 0.950 . S
C600 C599 1.349 . S
C600 C612 1.349 . S
C601 C599 1.327 . S
C601 C617 1.429 . S
C601 H623 0.950 1_455 S
C602 H598 0.949 . S
C602 C610 1.574 1_545 S
C602 C618 1.368 . S
H603 C611 0.950 . S
H604 C609 0.950 . S
H605 C610 0.949 . S
H606 C612 0.950 . S
H607 C613 0.950 . S
H608 C614 0.949 . S
C609 H604 0.950 . S
C609 C611 1.327 . S
C609 C615 1.429 . S
C610 C602 1.574 1_565 S
C610 H605 0.949 . S
C610 C616 1.368 1_455 S
C611 C595 1.349 . S
C611 H603 0.950 . S
C611 C609 1.327 . S
C612 C600 1.349 . S
C612 H606 0.950 . S
C612 C613 1.327 . S
C613 H607 0.950 . S
C613 C612 1.327 . S
C613 C617 1.429 . S
C614 C597 1.574 1_545 S
C614 H608 0.949 . S
C614 C618 1.368 1_655 S
C615 C596 1.429 . S
C615 C609 1.429 . S
C615 C616 1.523 . S
C616 C597 1.368 . S
C616 C610 1.368 1_655 S
C616 C615 1.523 . S
C617 C601 1.429 . S
C617 C613 1.429 . S
C617 C618 1.523 . S
C618 C602 1.368 . S
C618 C614 1.368 1_455 S
C618 C617 1.523 . S
H619 C594 0.950 . S
H620 C596 0.950 1_455 S
H621 C597 0.949 . S
H622 C599 0.950 . S
H623 C601 0.950 1_655 S
C624 C625 1.349 . S
C624 C626 1.327 . S
C624 H649 0.950 . S
C625 C624 1.349 . S
C625 C641 1.349 . S
C626 C624 1.327 . S
C626 C645 1.429 . S
C626 H650 0.950 . S
C627 C644 1.574 . S
C627 C646 1.368 . S
C627 H651 0.949 . S
H628 C632 0.949 . S
C629 C630 1.349 . S
C629 C631 1.327 . S
C629 H652 0.950 . S
C630 C629 1.349 . S
C630 C642 1.349 . S
C631 C629 1.327 . S
C631 C647 1.429 . S
C631 H653 0.950 . S
C632 H628 0.949 . S
C632 C640 1.574 . S
C632 C648 1.368 . S
H633 C641 0.950 . S
H634 C639 0.950 . S
H635 C640 0.949 . S
H636 C642 0.950 . S
H637 C643 0.950 . S
H638 C644 0.949 . S
C639 H634 0.950 . S
C639 C641 1.327 . S
C639 C645 1.429 . S
C640 C632 1.574 . S
C640 H635 0.949 . S
C640 C646 1.368 . S
C641 C625 1.349 . S
C641 H633 0.950 . S
C641 C639 1.327 . S
C642 C630 1.349 . S
C642 H636 0.950 . S
C642 C643 1.327 . S
C643 H637 0.950 . S
C643 C642 1.327 . S
C643 C647 1.429 . S
C644 C627 1.574 . S
C644 H638 0.949 . S
C644 C648 1.368 . S
C645 C626 1.429 . S
C645 C639 1.429 . S
C645 C646 1.523 . S
C646 C627 1.368 . S
C646 C640 1.368 . S
C646 C645 1.523 . S
C647 C631 1.429 . S
C647 C643 1.429 . S
C647 C648 1.523 . S
C648 C632 1.368 . S
C648 C644 1.368 . S
C648 C647 1.523 . S
H649 C624 0.950 . S
H650 C626 0.950 . S
H651 C627 0.949 . S
H652 C629 0.950 . S
H653 C631 0.950 . S
C654 C655 1.349 . S
C654 C656 1.327 . S
C654 H679 0.950 . S
C655 C654 1.349 . S
C655 C671 1.349 . S
C656 C654 1.327 . S
C656 C675 1.429 . S
C656 H680 0.950 . S
C657 C674 1.574 . S
C657 C676 1.368 . S
C657 H681 0.949 . S
H658 C662 0.949 . S
C659 C660 1.349 . S
C659 C661 1.327 . S
C659 H682 0.950 . S
C660 C659 1.349 . S
C660 C672 1.349 . S
C661 C659 1.327 . S
C661 C677 1.429 . S
C661 H683 0.950 . S
C662 H658 0.949 . S
C662 C670 1.574 . S
C662 C678 1.368 . S
H663 C671 0.950 . S
H664 C669 0.950 . S
H665 C670 0.949 . S
H666 C672 0.950 . S
H667 C673 0.950 . S
H668 C674 0.949 . S
C669 H664 0.950 . S
C669 C671 1.327 . S
C669 C675 1.429 . S
C670 C662 1.574 . S
C670 H665 0.949 . S
C670 C676 1.368 . S
C671 C655 1.349 . S
C671 H663 0.950 . S
C671 C669 1.327 . S
C672 C660 1.349 . S
C672 H666 0.950 . S
C672 C673 1.327 . S
C673 H667 0.950 . S
C673 C672 1.327 . S
C673 C677 1.429 . S
C674 C657 1.574 . S
C674 H668 0.949 . S
C674 C678 1.368 . S
C675 C656 1.429 . S
C675 C669 1.429 . S
C675 C676 1.523 . S
C676 C657 1.368 . S
C676 C670 1.368 . S
C676 C675 1.523 . S
C677 C661 1.429 . S
C677 C673 1.429 . S
C677 C678 1.523 . S
C678 C662 1.368 . S
C678 C674 1.368 . S
C678 C677 1.523 . S
H679 C654 0.950 . S
H680 C656 0.950 . S
H681 C657 0.949 . S
H682 C659 0.950 . S
H683 C661 0.950 . S
C684 C685 1.349 . S
C684 C686 1.327 . S
C684 H709 0.950 . S
C685 C684 1.349 . S
C685 C701 1.349 . S
C686 C684 1.327 . S
C686 C705 1.429 . S
C686 H710 0.950 . S
C687 C704 1.574 . S
C687 C706 1.368 . S
C687 H711 0.949 . S
H688 C692 0.949 . S
C689 C690 1.349 . S
C689 C691 1.327 . S
C689 H712 0.950 . S
C690 C689 1.349 . S
C690 C702 1.349 . S
C691 C689 1.327 . S
C691 C707 1.429 . S
C691 H713 0.950 . S
C692 H688 0.949 . S
C692 C700 1.574 . S
C692 C708 1.368 . S
H693 C701 0.950 . S
H694 C699 0.950 . S
H695 C700 0.949 . S
H696 C702 0.950 . S
H697 C703 0.950 . S
H698 C704 0.949 . S
C699 H694 0.950 . S
C699 C701 1.327 . S
C699 C705 1.429 . S
C700 C692 1.574 . S
C700 H695 0.949 . S
C700 C706 1.368 . S
C701 C685 1.349 . S
C701 H693 0.950 . S
C701 C699 1.327 . S
C702 C690 1.349 . S
C702 H696 0.950 . S
C702 C703 1.327 . S
C703 H697 0.950 . S
C703 C702 1.327 . S
C703 C707 1.429 . S
C704 C687 1.574 . S
C704 H698 0.949 . S
C704 C708 1.368 . S
C705 C686 1.429 . S
C705 C699 1.429 . S
C705 C706 1.523 . S
C706 C687 1.368 . S
C706 C700 1.368 . S
C706 C705 1.523 . S
C707 C691 1.429 . S
C707 C703 1.429 . S
C707 C708 1.523 . S
C708 C692 1.368 . S
C708 C704 1.368 . S
C708 C707 1.523 . S
H709 C684 0.950 . S
H710 C686 0.950 . S
H711 C687 0.949 . S
H712 C689 0.950 . S
H713 C691 0.950 . S
C714 C715 1.349 . S
C714 C716 1.327 . S
C714 H739 0.950 . S
C715 C714 1.349 . S
C715 C731 1.349 . S
C716 C714 1.327 . S
C716 C735 1.429 . S
C716 H740 0.950 . S
C717 C734 1.574 . S
C717 C736 1.368 . S
C717 H741 0.949 . S
H718 C722 0.949 . S
C719 C720 1.349 . S
C719 C721 1.327 . S
C719 H742 0.950 . S
C720 C719 1.349 . S
C720 C732 1.349 . S
C721 C719 1.327 . S
C721 C737 1.429 . S
C721 H743 0.950 . S
C722 H718 0.949 . S
C722 C730 1.574 . S
C722 C738 1.368 . S
H723 C731 0.950 . S
H724 C729 0.950 . S
H725 C730 0.949 . S
H726 C732 0.950 . S
H727 C733 0.950 . S
H728 C734 0.949 . S
C729 H724 0.950 . S
C729 C731 1.327 . S
C729 C735 1.429 . S
C730 C722 1.574 . S
C730 H725 0.949 . S
C730 C736 1.368 . S
C731 C715 1.349 . S
C731 H723 0.950 . S
C731 C729 1.327 . S
C732 C720 1.349 . S
C732 H726 0.950 . S
C732 C733 1.327 . S
C733 H727 0.950 . S
C733 C732 1.327 . S
C733 C737 1.429 . S
C734 C717 1.574 . S
C734 H728 0.949 . S
C734 C738 1.368 . S
C735 C716 1.429 . S
C735 C729 1.429 . S
C735 C736 1.523 . S
C736 C717 1.368 . S
C736 C730 1.368 . S
C736 C735 1.523 . S
C737 C721 1.429 . S
C737 C733 1.429 . S
C737 C738 1.523 . S
C738 C722 1.368 . S
C738 C734 1.368 . S
C738 C737 1.523 . S
H739 C714 0.950 . S
H740 C716 0.950 . S
H741 C717 0.949 . S
H742 C719 0.950 . S
H743 C721 0.950 . S
C744 C745 1.349 . S
C744 C746 1.327 . S
C744 H769 0.950 . S
C745 C744 1.349 . S
C745 C761 1.349 . S
C746 C744 1.327 . S
C746 C765 1.429 . S
C746 H770 0.950 . S
C747 C764 1.574 . S
C747 C766 1.368 . S
C747 H771 0.949 . S
H748 C752 0.949 . S
C749 C750 1.349 . S
C749 C751 1.327 . S
C749 H772 0.950 . S
C750 C749 1.349 . S
C750 C762 1.349 . S
C751 C749 1.327 . S
C751 C767 1.429 . S
C751 H773 0.950 . S
C752 H748 0.949 . S
C752 C760 1.574 . S
C752 C768 1.368 . S
H753 C761 0.950 . S
H754 C759 0.950 . S
H755 C760 0.949 . S
H756 C762 0.950 . S
H757 C763 0.950 . S
H758 C764 0.949 . S
C759 H754 0.950 . S
C759 C761 1.327 . S
C759 C765 1.429 . S
C760 C752 1.574 . S
C760 H755 0.949 . S
C760 C766 1.368 . S
C761 C745 1.349 . S
C761 H753 0.950 . S
C761 C759 1.327 . S
C762 C750 1.349 . S
C762 H756 0.950 . S
C762 C763 1.327 . S
C763 H757 0.950 . S
C763 C762 1.327 . S
C763 C767 1.429 . S
C764 C747 1.574 . S
C764 H758 0.949 . S
C764 C768 1.368 . S
C765 C746 1.429 . S
C765 C759 1.429 . S
C765 C766 1.523 . S
C766 C747 1.368 . S
C766 C760 1.368 . S
C766 C765 1.523 . S
C767 C751 1.429 . S
C767 C763 1.429 . S
C767 C768 1.523 . S
C768 C752 1.368 . S
C768 C764 1.368 . S
C768 C767 1.523 . S
H769 C744 0.950 . S
H770 C746 0.950 . S
H771 C747 0.949 . S
H772 C749 0.950 . S
H773 C751 0.950 . S
C774 C775 1.349 . S
C774 C776 1.327 . S
C774 H799 0.950 . S
C775 C774 1.349 . S
C775 C791 1.349 . S
C776 C774 1.327 . S
C776 C795 1.429 . S
C776 H800 0.950 . S
C777 C794 1.574 . S
C777 C796 1.368 . S
C777 H801 0.949 . S
H778 C782 0.949 . S
C779 C780 1.349 . S
C779 C781 1.327 . S
C779 H802 0.950 . S
C780 C779 1.349 . S
C780 C792 1.349 . S
C781 C779 1.327 . S
C781 C797 1.429 . S
C781 H803 0.950 . S
C782 H778 0.949 . S
C782 C790 1.574 . S
C782 C798 1.368 . S
H783 C791 0.950 . S
H784 C789 0.950 . S
H785 C790 0.949 . S
H786 C792 0.950 . S
H787 C793 0.950 . S
H788 C794 0.949 . S
C789 H784 0.950 . S
C789 C791 1.327 . S
C789 C795 1.429 . S
C790 C782 1.574 . S
C790 H785 0.949 . S
C790 C796 1.368 . S
C791 C775 1.349 . S
C791 H783 0.950 . S
C791 C789 1.327 . S
C792 C780 1.349 . S
C792 H786 0.950 . S
C792 C793 1.327 . S
C793 H787 0.950 . S
C793 C792 1.327 . S
C793 C797 1.429 . S
C794 C777 1.574 . S
C794 H788 0.949 . S
C794 C798 1.368 . S
C795 C776 1.429 . S
C795 C789 1.429 . S
C795 C796 1.523 . S
C796 C777 1.368 . S
C796 C790 1.368 . S
C796 C795 1.523 . S
C797 C781 1.429 . S
C797 C793 1.429 . S
C797 C798 1.523 . S
C798 C782 1.368 . S
C798 C794 1.368 . S
C798 C797 1.523 . S
H799 C774 0.950 . S
H800 C776 0.950 . S
H801 C777 0.949 . S
H802 C779 0.950 . S
H803 C781 0.950 . S
C804 C805 1.349 . S
C804 C806 1.327 . S
C804 H829 0.950 . S
C805 C804 1.349 . S
C805 C821 1.349 . S
C806 C804 1.327 . S
C806 C825 1.429 . S
C806 H830 0.950 . S
C807 C824 1.574 . S
C807 C826 1.368 . S
C807 H831 0.949 . S
H808 C812 0.949 . S
C809 C810 1.349 . S
C809 C811 1.327 . S
C809 H832 0.950 . S
C810 C809 1.349 . S
C810 C822 1.349 . S
C811 C809 1.327 . S
C811 C827 1.429 . S
C811 H833 0.950 . S
C812 H808 0.949 . S
C812 C820 1.574 . S
C812 C828 1.368 . S
H813 C821 0.950 . S
H814 C819 0.950 . S
H815 C820 0.949 . S
H816 C822 0.950 . S
H817 C823 0.950 . S
H818 C824 0.949 . S
C819 H814 0.950 . S
C819 C821 1.327 . S
C819 C825 1.429 . S
C820 C812 1.574 . S
C820 H815 0.949 . S
C820 C826 1.368 . S
C821 C805 1.349 . S
C821 H813 0.950 . S
C821 C819 1.327 . S
C822 C810 1.349 . S
C822 H816 0.950 . S
C822 C823 1.327 . S
C823 H817 0.950 . S
C823 C822 1.327 . S
C823 C827 1.429 . S
C824 C807 1.574 . S
C824 H818 0.949 . S
C824 C828 1.368 . S
C825 C806 1.429 . S
C825 C819 1.429 . S
C825 C826 1.523 . S
C826 C807 1.368 . S
C826 C820 1.368 . S
C826 C825 1.523 . S
C827 C811 1.429 . S
C827 C823 1.429 . S
C827 C828 1.523 . S
C828 C812 1.368 . S
C828 C824 1.368 . S
C828 C827 1.523 . S
H829 C804 0.950 . S
H830 C806 0.950 . S
H831 C807 0.949 . S
H832 C809 0.950 . S
H833 C811 0.950 . S
C834 C835 1.349 . S
C834 C836 1.327 . S
C834 H859 0.950 . S
C835 C834 1.349 . S
C835 C851 1.349 . S
C836 C834 1.327 . S
C836 C855 1.429 . S
C836 H860 0.950 . S
C837 C854 1.574 . S
C837 C856 1.368 . S
C837 H861 0.949 . S
H838 C842 0.949 . S
C839 C840 1.349 . S
C839 C841 1.327 . S
C839 H862 0.950 . S
C840 C839 1.349 . S
C840 C852 1.349 . S
C841 C839 1.327 . S
C841 C857 1.429 . S
C841 H863 0.950 . S
C842 H838 0.949 . S
C842 C850 1.574 . S
C842 C858 1.368 . S
H843 C851 0.950 . S
H844 C849 0.950 . S
H845 C850 0.949 . S
H846 C852 0.950 . S
H847 C853 0.950 . S
H848 C854 0.949 . S
C849 H844 0.950 . S
C849 C851 1.327 . S
C849 C855 1.429 . S
C850 C842 1.574 . S
C850 H845 0.949 . S
C850 C856 1.368 . S
C851 C835 1.349 . S
C851 H843 0.950 . S
C851 C849 1.327 . S
C852 C840 1.349 . S
C852 H846 0.950 . S
C852 C853 1.327 . S
C853 H847 0.950 . S
C853 C852 1.327 . S
C853 C857 1.429 . S
C854 C837 1.574 . S
C854 H848 0.949 . S
C854 C858 1.368 . S
C855 C836 1.429 . S
C855 C849 1.429 . S
C855 C856 1.523 . S
C856 C837 1.368 . S
C856 C850 1.368 . S
C856 C855 1.523 . S
C857 C841 1.429 . S
C857 C853 1.429 . S
C857 C858 1.523 . S
C858 C842 1.368 . S
C858 C854 1.368 . S
C858 C857 1.523 . S
H859 C834 0.950 . S
H860 C836 0.950 . S
H861 C837 0.949 . S
H862 C839 0.950 . S
H863 C841 0.950 . S
C265 N212 0.646 . S
C270 N5 0.645 . S
C295 N245 0.646 . S
C300 N38 0.645 . S
C325 N146 0.646 . S
C330 N71 0.645 . S
C355 N179 0.646 . S
C360 N104 0.645 . S
C385 N80 0.646 . S
C390 N137 0.645 . S
C415 N113 0.646 . S
C420 N170 0.645 . S
C445 N14 0.646 . S
C450 N203 0.645 . S
C475 N236 0.645 . S
C480 N47 0.646 . S
C505 C74 2.642 . S
C510 C8 2.642 . S
C535 C41 2.642 . S
C540 C107 2.642 . S
C565 C206 2.641 1_556 S
C570 C140 2.641 1_556 S
C595 C173 2.642 . S
C600 C239 2.642 . S
C625 C28 1.980 . S
C630 C259 1.980 . S
C655 C160 1.981 . S
C660 C61 1.981 . S
C685 C193 1.980 . S
C690 C94 1.980 . S
C715 C226 1.981 . S
C720 C127 1.981 . S
C745 C83 1.007 . S
C750 C182 1.007 . S
C775 C116 1.007 . S
C780 C215 1.007 . S
C805 C248 1.007 . S
C810 C17 1.007 . S
C835 C149 1.007 . S
C840 C50 1.007 . S
