# Generated by pormake.
# Topology und, (4)-cn, num edge types: 1
# Building blocks:
#     Node 0, Type 0, BuildingBlock: AZAVOO_clean_sbu_0, # of connection points: 4
#     Node 1, Type 0, BuildingBlock: AZAVOO_clean_sbu_0, # of connection points: 4
#     Node 2, Type 0, BuildingBlock: AZAVOO_clean_sbu_0, # of connection points: 4
#     Node 3, Type 0, BuildingBlock: AZAVOO_clean_sbu_0, # of connection points: 4
#     Node 4, Type 0, BuildingBlock: AZAVOO_clean_sbu_0, # of connection points: 4
#     Node 5, Type 0, BuildingBlock: AZAVOO_clean_sbu_0, # of connection points: 4
#     Node 6, Type 0, BuildingBlock: AZAVOO_clean_sbu_0, # of connection points: 4
#     Node 7, Type 0, BuildingBlock: AZAVOO_clean_sbu_0, # of connection points: 4
#     Node 8, Type 0, BuildingBlock: AZAVOO_clean_sbu_0, # of connection points: 4
#     Node 9, Type 0, BuildingBlock: AZAVOO_clean_sbu_0, # of connection points: 4
#     Node 10, Type 0, BuildingBlock: AZAVOO_clean_sbu_0, # of connection points: 4
#     Node 11, Type 0, BuildingBlock: AZAVOO_clean_sbu_0, # of connection points: 4
#     Node 12, Type 0, BuildingBlock: AZAVOO_clean_sbu_0, # of connection points: 4
#     Node 13, Type 0, BuildingBlock: AZAVOO_clean_sbu_0, # of connection points: 4
#     Node 14, Type 0, BuildingBlock: AZAVOO_clean_sbu_0, # of connection points: 4
#     Node 15, Type 0, BuildingBlock: AZAVOO_clean_sbu_0, # of connection points: 4
#     Edge 16, Type (0, 0), BuildingBlock: UVAHIK_clean_linker_0, # of connection points: 2
#     Edge 17, Type (0, 0), BuildingBlock: UVAHIK_clean_linker_0, # of connection points: 2
#     Edge 18, Type (0, 0), BuildingBlock: UVAHIK_clean_linker_0, # of connection points: 2
#     Edge 19, Type (0, 0), BuildingBlock: UVAHIK_clean_linker_0, # of connection points: 2
#     Edge 20, Type (0, 0), BuildingBlock: UVAHIK_clean_linker_0, # of connection points: 2
#     Edge 21, Type (0, 0), BuildingBlock: UVAHIK_clean_linker_0, # of connection points: 2
#     Edge 22, Type (0, 0), BuildingBlock: UVAHIK_clean_linker_0, # of connection points: 2
#     Edge 23, Type (0, 0), BuildingBlock: UVAHIK_clean_linker_0, # of connection points: 2
#     Edge 24, Type (0, 0), BuildingBlock: UVAHIK_clean_linker_0, # of connection points: 2
#     Edge 25, Type (0, 0), BuildingBlock: UVAHIK_clean_linker_0, # of connection points: 2
#     Edge 26, Type (0, 0), BuildingBlock: UVAHIK_clean_linker_0, # of connection points: 2
#     Edge 27, Type (0, 0), BuildingBlock: UVAHIK_clean_linker_0, # of connection points: 2
#     Edge 28, Type (0, 0), BuildingBlock: UVAHIK_clean_linker_0, # of connection points: 2
#     Edge 29, Type (0, 0), BuildingBlock: UVAHIK_clean_linker_0, # of connection points: 2
#     Edge 30, Type (0, 0), BuildingBlock: UVAHIK_clean_linker_0, # of connection points: 2
#     Edge 31, Type (0, 0), BuildingBlock: UVAHIK_clean_linker_0, # of connection points: 2
#     Edge 32, Type (0, 0), BuildingBlock: UVAHIK_clean_linker_0, # of connection points: 2
#     Edge 33, Type (0, 0), BuildingBlock: UVAHIK_clean_linker_0, # of connection points: 2
#     Edge 34, Type (0, 0), BuildingBlock: UVAHIK_clean_linker_0, # of connection points: 2
#     Edge 35, Type (0, 0), BuildingBlock: UVAHIK_clean_linker_0, # of connection points: 2
#     Edge 36, Type (0, 0), BuildingBlock: UVAHIK_clean_linker_0, # of connection points: 2
#     Edge 37, Type (0, 0), BuildingBlock: UVAHIK_clean_linker_0, # of connection points: 2
#     Edge 38, Type (0, 0), BuildingBlock: UVAHIK_clean_linker_0, # of connection points: 2
#     Edge 39, Type (0, 0), BuildingBlock: UVAHIK_clean_linker_0, # of connection points: 2
#     Edge 40, Type (0, 0), BuildingBlock: UVAHIK_clean_linker_0, # of connection points: 2
#     Edge 41, Type (0, 0), BuildingBlock: UVAHIK_clean_linker_0, # of connection points: 2
#     Edge 42, Type (0, 0), BuildingBlock: UVAHIK_clean_linker_0, # of connection points: 2
#     Edge 43, Type (0, 0), BuildingBlock: UVAHIK_clean_linker_0, # of connection points: 2
#     Edge 44, Type (0, 0), BuildingBlock: UVAHIK_clean_linker_0, # of connection points: 2
#     Edge 45, Type (0, 0), BuildingBlock: UVAHIK_clean_linker_0, # of connection points: 2
#     Edge 46, Type (0, 0), BuildingBlock: UVAHIK_clean_linker_0, # of connection points: 2
#     Edge 47, Type (0, 0), BuildingBlock: UVAHIK_clean_linker_0, # of connection points: 2
# Relax obj value: 0.169
# Max RMSD: 0.210
# Mean RMSD: 0.204
data_MOF--net-und--node1-AZAVOO_clean_sbu_0--edge1-UVAHIK_clean_linker_0
_symmetry_space_group_name_H-M    P1
_symmetry_Int_Tables_number       1
_symmetry_cell_setting            triclinic
loop_
_symmetry_equiv_pos_as_xyz
'x, y, z'
_cell_length_a     75.234204
_cell_length_b     75.225015
_cell_length_c     27.980786
_cell_angle_alpha  91.666015
_cell_angle_beta   91.647533
_cell_angle_gamma 95.429974
loop_
_atom_site_label
_atom_site_type_symbol
_atom_site_fract_x
_atom_site_fract_y
_atom_site_fract_z
_atom_type_partial_charge
Mg0 Mg 0.23633 0.36707 0.11237 0.0
O1 O 0.23167 0.34474 0.05466 0.0
O2 O 0.20895 0.32557 0.07595 0.0
Mg3 Mg 0.19764 0.33688 0.14367 0.0
C4 C 0.22143 0.33031 0.04774 0.0
C5 C 0.27148 0.38564 0.073 0.0
O6 O 0.27782 0.37907 0.11228 0.0
O7 O 0.2126 0.38056 0.08444 0.0
O8 O 0.18958 0.36168 0.1051 0.0
O9 O 0.25363 0.34978 0.15203 0.0
O10 O 0.22457 0.34993 0.1621 0.0
C11 C 0.19585 0.37607 0.08597 0.0
C12 C 0.23918 0.34277 0.17086 0.0
O13 O 0.25484 0.38302 0.06301 0.0
Mg14 Mg 0.90757 0.03893 0.2238 0.0
O15 O 0.92918 0.04335 0.28343 0.0
O16 O 0.94828 0.06656 0.26507 0.0
Mg17 Mg 0.93775 0.07822 0.19685 0.0
C18 C 0.94338 0.05376 0.29215 0.0
C19 C 0.89746 0.00548 0.28405 0.0
O20 O 0.9135 0.00213 0.27116 0.0
O21 O 0.89342 0.06227 0.25198 0.0
O22 O 0.91224 0.08557 0.23299 0.0
O23 O 0.92554 0.02222 0.18431 0.0
O24 O 0.92514 0.05135 0.17622 0.0
C25 C 0.89769 0.07907 0.2509 0.0
C26 C 0.93257 0.03695 0.16696 0.0
O27 O 0.89123 0.01968 0.2704 0.0
Mg28 Mg 0.28184 0.71922 0.4858 0.0
O29 O 0.26507 0.73122 0.54308 0.0
O30 O 0.24686 0.74936 0.50928 0.0
Mg31 Mg 0.25069 0.74707 0.42847 0.0
C32 C 0.25322 0.74224 0.54613 0.0
C33 C 0.29334 0.68412 0.52564 0.0
O34 O 0.29097 0.67984 0.47988 0.0
O35 O 0.2582 0.69954 0.46167 0.0
O36 O 0.23976 0.71746 0.42773 0.0
O37 O 0.30097 0.74393 0.49443 0.0
O38 O 0.27817 0.74025 0.44196 0.0
C39 C 0.24349 0.70199 0.4401 0.0
C40 C 0.29103 0.75049 0.46212 0.0
O41 O 0.29083 0.69982 0.54013 0.0
Mg42 Mg 0.58475 0.02448 0.84815 0.0
O43 O 0.56654 0.03092 0.78526 0.0
O44 O 0.54823 0.05064 0.81074 0.0
Mg45 Mg 0.55537 0.05733 0.88944 0.0
C46 C 0.55367 0.04052 0.77793 0.0
C47 C 0.59651 -0.00092 0.76783 0.0
O48 O 0.57948 0.99341 0.76912 0.0
O49 O 0.60142 0.05103 0.84426 0.0
O50 O 0.58327 0.07048 0.87199 0.0
O51 O 0.56443 0.00266 0.86608 0.0
O52 O 0.56491 0.03044 0.89492 0.0
C53 C 0.59833 0.0669 0.85617 0.0
C54 C 0.55672 0.01457 0.89011 0.0
O55 O 0.60282 0.01175 0.79623 0.0
Mg56 Mg 0.76428 0.70019 0.05326 0.0
O57 O 0.73868 0.68447 0.07685 0.0
O58 O 0.71716 0.70297 0.0804 0.0
Mg59 Mg 0.72941 0.7308 0.06234 0.0
C60 C 0.72261 0.68752 0.08466 0.0
C61 C 0.78491 0.66489 0.05872 0.0
O62 O 0.78936 0.6704 0.10281 0.0
O63 O 0.75311 0.70146 0.97731 0.0
O64 O 0.73295 0.72124 0.9849 0.0
O65 O 0.77186 0.70711 0.13012 0.0
O66 O 0.75619 0.72343 0.0835 0.0
C67 C 0.74145 0.71076 0.95928 0.0
C68 C 0.7629 0.72087 0.12521 0.0
O69 O 0.77535 0.67408 0.03288 0.0
Mg70 Mg 0.0787 0.00598 0.74344 0.0
O71 O 0.09256 0.03294 0.72323 0.0
O72 O 0.07206 0.05148 0.70533 0.0
Mg73 Mg 0.04479 0.03639 0.71686 0.0
C74 C 0.08831 0.04809 0.7099 0.0
C75 C 0.11727 0.99257 0.74625 0.0
O76 O 0.11461 0.99114 0.69963 0.0
O77 O 0.07249 0.01733 0.81687 0.0
O78 O 0.05197 0.03574 0.79681 0.0
O79 O 0.07632 0.99766 0.66542 0.0
O80 O 0.05582 0.01063 0.70534 0.0
C81 C 0.06171 0.0288 0.82796 0.0
C82 C 0.06105 0.0043 0.66565 0.0
O83 O 0.10525 0.99819 0.77211 0.0
Mg84 Mg 0.71634 0.35327 0.57852 0.0
O85 O 0.74639 0.35918 0.59626 0.0
O86 O 0.75534 0.33581 0.63495 0.0
Mg87 Mg 0.73211 0.314 0.63298 0.0
C88 C 0.75833 0.35154 0.61919 0.0
C89 C 0.71795 0.3929 0.5442 0.0
O90 O 0.71886 0.39653 0.59046 0.0
O91 O 0.72187 0.33528 0.51582 0.0
O92 O 0.73208 0.31172 0.55024 0.0
O93 O 0.71219 0.36448 0.65084 0.0
O94 O 0.71434 0.33572 0.63456 0.0
C95 C 0.72801 0.32009 0.51296 0.0
C96 C 0.71435 0.34867 0.66585 0.0
O97 O 0.71722 0.37674 0.52924 0.0
Mg98 Mg 0.41375 0.01459 0.28493 0.0
O99 O 0.39605 0.98802 0.27985 0.0
O100 O 0.41367 0.96657 0.26195 0.0
Mg101 Mg 0.44205 0.9794 0.25189 0.0
C102 C 0.39836 0.97163 0.27109 0.0
C103 C 0.39814 0.03972 0.35733 0.0
O104 O 0.41543 0.04291 0.36597 0.0
O105 O 0.42682 0.00726 0.355 0.0
O106 O 0.44564 0.98772 0.33158 0.0
O107 O 0.40824 0.01877 0.2073 0.0
O108 O 0.43032 0.00431 0.23599 0.0
C109 C 0.43932 0.9974 0.36405 0.0
C110 C 0.42139 0.00924 0.19963 0.0
O111 O 0.39258 0.02823 0.32477 0.0
Mg112 Mg 0.75259 0.86591 0.60726 0.0
O113 O 0.74488 0.84929 0.53862 0.0
O114 O 0.72058 0.83092 0.55253 0.0
Mg115 Mg 0.71224 0.83646 0.62874 0.0
C116 C 0.73293 0.83681 0.52513 0.0
C117 C 0.78519 0.87974 0.5468 0.0
O118 O 0.78893 0.86317 0.55163 0.0
O119 O 0.72991 0.88329 0.59483 0.0
O120 O 0.7059 0.8648 0.61012 0.0
O121 O 0.76877 0.84419 0.62983 0.0
O122 O 0.7404 0.84555 0.64706 0.0
C123 C 0.71307 0.8801 0.59862 0.0
C124 C 0.75421 0.83665 0.6469 0.0
O125 O 0.77124 0.88479 0.56548 0.0
Mg126 Mg 0.41139 0.52625 0.73915 0.0
O127 O 0.42755 0.53451 0.80801 0.0
O128 O 0.44621 0.55861 0.79414 0.0
Mg129 Mg 0.44192 0.56575 0.7163 0.0
C130 C 0.43985 0.54658 0.82182 0.0
C131 C 0.3903 0.49166 0.77552 0.0
O132 O 0.39984 0.48435 0.74306 0.0
O133 O 0.39428 0.54951 0.74802 0.0
O134 O 0.41356 0.5727 0.73106 0.0
O135 O 0.43307 0.5094 0.71933 0.0
O136 O 0.4323 0.53758 0.69959 0.0
C137 C 0.39798 0.5662 0.74214 0.0
C138 C 0.44092 0.52359 0.7011 0.0
O139 O 0.39202 0.50853 0.78203 0.0
Mg140 Mg 0.78221 0.21912 0.98475 0.0
O141 O 0.76753 0.23405 0.04105 0.0
O142 O 0.75087 0.25337 0.00649 0.0
Mg143 Mg 0.75341 0.24889 0.92566 0.0
C144 C 0.75696 0.2463 0.04373 0.0
C145 C 0.80003 0.20607 0.07773 0.0
O146 O 0.80644 0.22294 0.08011 0.0
O147 O 0.75675 0.20115 0.96539 0.0
O148 O 0.73988 0.22031 0.93043 0.0
O149 O 0.80345 0.2422 0.98794 0.0
O150 O 0.78001 0.23952 0.93757 0.0
C151 C 0.7422 0.20469 0.94473 0.0
C152 C 0.79391 0.24897 0.95515 0.0
O153 O 0.78984 0.20036 0.04249 0.0
Mg154 Mg 0.0888 0.51784 0.36311 0.0
O155 O 0.06793 0.52733 0.31138 0.0
O156 O 0.05224 0.54716 0.34794 0.0
Mg157 Mg 0.06495 0.55196 0.42283 0.0
C158 C 0.05532 0.53754 0.31135 0.0
C159 C 0.09148 0.4942 0.27183 0.0
O160 O 0.07439 0.49124 0.28038 0.0
O161 O 0.10691 0.54338 0.35578 0.0
O162 O 0.09164 0.56354 0.39268 0.0
O163 O 0.06791 0.49738 0.38585 0.0
O164 O 0.07306 0.52444 0.41975 0.0
C165 C 0.10526 0.55937 0.37013 0.0
C166 C 0.06304 0.50956 0.415 0.0
O167 O 0.10142 0.50461 0.3001 0.0
Mg168 Mg 0.27149 0.19633 0.59582 0.0
O169 O 0.24421 0.18197 0.61269 0.0
O170 O 0.22543 0.20249 0.62875 0.0
Mg171 Mg 0.24034 0.22992 0.61935 0.0
C172 C 0.22885 0.18624 0.62437 0.0
C173 C 0.29614 0.16645 0.58453 0.0
O174 O 0.30521 0.17765 0.61519 0.0
O175 O 0.26118 0.20248 0.52112 0.0
O176 O 0.24235 0.22278 0.53983 0.0
O177 O 0.27858 0.19849 0.67444 0.0
O178 O 0.26583 0.21894 0.63388 0.0
C179 C 0.24975 0.2132 0.50921 0.0
C180 C 0.27159 0.21357 0.67407 0.0
O181 O 0.28089 0.1701 0.56927 0.0
Mg182 Mg 0.57749 0.51609 0.28903 0.0
O183 O 0.59418 0.54163 0.269 0.0
O184 O 0.57653 0.56394 0.26854 0.0
Mg185 Mg 0.54817 0.55221 0.28352 0.0
C186 C 0.59175 0.55803 0.26366 0.0
C187 C 0.61374 0.49798 0.27851 0.0
O188 O 0.6101 0.49847 0.23239 0.0
O189 O 0.5761 0.52605 0.36607 0.0
O190 O 0.55677 0.54672 0.36067 0.0
O191 O 0.57098 0.5094 0.21181 0.0
O192 O 0.55511 0.52575 0.25825 0.0
C193 C 0.56684 0.53748 0.38539 0.0
C194 C 0.55787 0.51924 0.21637 0.0
O195 O 0.60296 0.5037 0.30812 0.0
Mg196 Mg 0.20663 0.84563 0.08044 0.0
O197 O 0.23624 0.85419 0.09671 0.0
O198 O 0.24848 0.83206 0.13315 0.0
Mg199 Mg 0.22678 0.80869 0.1353 0.0
C200 C 0.24952 0.84786 0.11734 0.0
C201 C 0.20664 0.88501 0.04489 0.0
O202 O 0.20817 0.88898 0.09095 0.0
O203 O 0.21334 0.82798 0.01796 0.0
O204 O 0.22573 0.80565 0.05268 0.0
O205 O 0.20182 0.85654 0.15273 0.0
O206 O 0.20667 0.82835 0.13701 0.0
C207 C 0.22061 0.81337 0.01531 0.0
C208 C 0.20537 0.84115 0.16808 0.0
O209 O 0.20563 0.86876 0.03058 0.0
Mg210 Mg 0.91726 0.51727 0.81839 0.0
O211 O 0.90125 0.48979 0.80817 0.0
O212 O 0.92089 0.46993 0.79369 0.0
Mg213 Mg 0.94897 0.48426 0.79582 0.0
C214 C 0.90488 0.47384 0.79858 0.0
C215 C 0.87969 0.53273 0.82888 0.0
O216 O 0.878 0.52905 0.7827 0.0
O217 O 0.92738 0.51062 0.89227 0.0
O218 O 0.9476 0.49166 0.87564 0.0
O219 O 0.91499 0.5211 0.73945 0.0
O220 O 0.93699 0.50869 0.77554 0.0
C221 C 0.93947 0.50087 0.90555 0.0
C222 C 0.92935 0.51295 0.73631 0.0
O223 O 0.89366 0.52907 0.85162 0.0
C224 C 0.25447 0.317 0.20168 0.0
C225 C 0.23903 0.32607 0.19737 0.0
C226 C 0.25417 0.30116 0.22675 0.0
C227 C 0.22907 0.27774 0.32074 0.0
H228 H 0.25587 0.23806 0.28506 0.0
C229 C 0.22901 0.22013 0.44364 0.0
C230 C 0.24624 0.21662 0.45855 0.0
C231 C 0.22637 0.22893 0.40126 0.0
C232 C 0.24828 0.24902 0.29527 0.0
H233 H 0.21118 0.32557 0.21589 0.0
H234 H 0.21049 0.29782 0.25793 0.0
H235 H 0.25491 0.26336 0.23203 0.0
H236 H 0.27395 0.21771 0.439 0.0
H237 H 0.26947 0.23362 0.36531 0.0
H238 H 0.22277 0.26388 0.38422 0.0
C239 C 0.22292 0.30302 0.24267 0.0
C240 C 0.2478 0.26353 0.26512 0.0
C241 C 0.22327 0.31889 0.21811 0.0
C242 C 0.26052 0.22025 0.42801 0.0
C243 C 0.25793 0.22936 0.38584 0.0
C244 C 0.22948 0.26331 0.35055 0.0
C245 C 0.23841 0.29408 0.24786 0.0
C246 C 0.23831 0.27812 0.27784 0.0
C247 C 0.24101 0.23472 0.37369 0.0
C248 C 0.23918 0.24884 0.33846 0.0
H249 H 0.26682 0.32219 0.18602 0.0
H250 H 0.2664 0.29474 0.23064 0.0
H251 H 0.222 0.28891 0.3323 0.0
H252 H 0.21778 0.21727 0.46652 0.0
H253 H 0.21309 0.23245 0.39209 0.0
C254 C 0.94929 0.03839 0.36837 0.0
C255 C 0.95545 0.04977 0.33218 0.0
C256 C 0.96113 0.03337 0.40375 0.0
C257 C 0.00769 0.02628 0.42565 0.0
H258 H 0.99676 0.03055 0.55972 0.0
C259 C 0.05749 0.01255 0.58013 0.0
C260 C 0.05006 0.00591 0.62215 0.0
C261 C 0.04631 0.01709 0.54237 0.0
C262 C -0.0001 0.02893 0.52242 0.0
H263 H 0.97882 0.0649 0.30495 0.0
H264 H -0.00052 0.05589 0.36655 0.0
H265 H 0.9763 0.0405 0.49951 0.0
H266 H 0.02549 0.9975 0.65696 0.0
H267 H 0.00606 0.00432 0.59054 0.0
H268 H 0.03107 0.01426 0.44834 0.0
C269 C 0.9855 0.05095 0.36745 0.0
C270 C 0.98821 0.03477 0.48804 0.0
C271 C 0.97363 0.05622 0.33252 0.0
C272 C 0.03147 0.00277 0.62488 0.0
C273 C 0.02036 0.00689 0.58704 0.0
C274 C 0.0193 0.02016 0.46008 0.0
C275 C 0.97936 0.0394 0.40312 0.0
C276 C 0.99197 0.03346 0.4394 0.0
C277 C 0.02758 0.01476 0.54605 0.0
C278 C 0.01549 0.02132 0.50891 0.0
H279 H 0.93538 0.03317 0.36901 0.0
H280 H 0.95611 0.02439 0.43091 0.0
H281 H 0.01079 0.02504 0.3882 0.0
H282 H 0.07183 0.01523 0.57763 0.0
H283 H 0.05233 0.02318 0.51142 0.0
C284 C 0.25338 0.73913 0.63508 0.0
C285 C 0.24762 0.74775 0.59428 0.0
C286 C 0.24936 0.74519 0.68081 0.0
C287 C 0.21984 0.77346 0.74661 0.0
H288 H 0.25797 0.77607 0.84359 0.0
C289 C 0.21691 0.81297 0.92584 0.0
C290 C 0.22311 0.80514 0.96744 0.0
C291 C 0.21926 0.80528 0.8807 0.0
C292 C 0.24711 0.77523 0.81711 0.0
H293 H 0.23274 0.76927 0.5697 0.0
H294 H 0.22591 0.77994 0.64953 0.0
H295 H 0.26287 0.76372 0.76416 0.0
H296 H 0.23663 0.78297 0.99392 0.0
H297 H 0.24066 0.76954 0.91509 0.0
H298 H 0.20418 0.78521 0.79956 0.0
C299 C 0.23336 0.76836 0.64611 0.0
C300 C 0.2499 0.76812 0.77156 0.0
C301 C 0.23733 0.76227 0.6003 0.0
C302 C 0.23171 0.7894 0.96271 0.0
C303 C 0.23411 0.78174 0.91751 0.0
C304 C 0.21706 0.78062 0.79217 0.0
C305 C 0.23954 0.76004 0.68693 0.0
C306 C 0.23632 0.76719 0.73571 0.0
C307 C 0.22792 0.7896 0.87599 0.0
C308 C 0.23069 0.78163 0.82789 0.0
H309 H 0.26122 0.72783 0.63182 0.0
H310 H 0.25404 0.73826 0.71144 0.0
H311 H 0.20902 0.77272 0.72003 0.0
H312 H 0.21026 0.82511 0.92803 0.0
H313 H 0.21455 0.81179 0.84939 0.0
C314 C 0.42904 0.01793 0.11742 0.0
C315 C 0.4266 0.0046 0.15112 0.0
C316 C 0.43813 0.01474 0.07568 0.0
C317 C 0.47243 0.98587 0.03766 0.0
H318 H 0.47245 0.01587 0.92736 0.0
C319 C 0.53083 0.99258 0.90782 0.0
C320 C 0.5386 0.01035 0.9082 0.0
C321 C 0.51389 0.98852 0.92617 0.0
C322 C 0.47242 0.00722 0.95764 0.0
H323 H 0.42947 0.97691 0.16565 0.0
H324 H 0.44439 0.97091 0.09152 0.0
H325 H 0.44659 0.01357 0.97842 0.0
H326 H 0.53443 0.03775 0.92753 0.0
H327 H 0.50481 0.03072 0.95815 0.0
H328 H 0.49839 0.97978 0.01702 0.0
C329 C 0.44025 0.98414 0.09811 0.0
C330 C 0.45771 0.00599 0.98714 0.0
C331 C 0.43162 0.9875 0.14044 0.0
C332 C 0.52888 0.02398 0.92616 0.0
C333 C 0.51183 0.01998 0.9435 0.0
C334 C 0.48693 0.98681 0.00763 0.0
C335 C 0.44457 0.99801 0.06651 0.0
C336 C 0.4579 0.99598 0.02886 0.0
C337 C 0.5043 0.00221 0.9442 0.0
C338 C 0.48736 0.99809 0.96865 0.0
H339 H 0.42528 0.03124 0.12517 0.0
H340 H 0.44125 0.02586 0.05268 0.0
H341 H 0.47333 0.9782 0.06963 0.0
H342 H 0.53799 0.98175 0.89428 0.0
H343 H 0.50836 0.9747 0.9268 0.0
C344 C 0.21059 0.82259 0.23825 0.0
C345 C 0.21203 0.83938 0.21752 0.0
C346 C 0.21975 0.82002 0.28116 0.0
C347 C 0.26163 0.83419 0.3391 0.0
H348 H 0.24337 0.80276 0.43741 0.0
C349 C 0.28346 0.78052 0.48714 0.0
C350 C 0.29161 0.76967 0.45437 0.0
C351 C 0.27706 0.7964 0.47235 0.0
C352 C 0.24874 0.81197 0.41124 0.0
H353 H 0.22364 0.86684 0.22585 0.0
H354 H 0.24015 0.86217 0.30055 0.0
H355 H 0.22258 0.81654 0.38501 0.0
H356 H 0.30103 0.76737 0.38246 0.0
H357 H 0.29044 0.79527 0.35686 0.0
H358 H 0.28776 0.82839 0.36272 0.0
C359 C 0.23164 0.85114 0.28399 0.0
C360 C 0.2368 0.81973 0.381 0.0
C361 C 0.22212 0.8538 0.24152 0.0
C362 C 0.29509 0.77577 0.40847 0.0
C363 C 0.28897 0.79175 0.39391 0.0
C364 C 0.27359 0.82627 0.36905 0.0
C365 C 0.23082 0.83412 0.3036 0.0
C366 C 0.24312 0.83019 0.34326 0.0
C367 C 0.27889 0.80162 0.42474 0.0
C368 C 0.26721 0.81438 0.40387 0.0
H369 H 0.20298 0.81126 0.22023 0.0
H370 H 0.21909 0.8067 0.29514 0.0
H371 H 0.26685 0.84216 0.31011 0.0
H372 H 0.28035 0.77582 0.52246 0.0
H373 H 0.26937 0.80378 0.49684 0.0
C374 C 0.44426 0.01216 0.44556 0.0
C375 C 0.44851 -0.00087 0.41176 0.0
C376 C 0.45507 0.01607 0.48671 0.0
C377 C 0.50157 0.01419 0.52804 0.0
H378 H 0.48387 0.02568 0.65284 0.0
C379 C 0.54725 0.02513 0.69778 0.0
C380 C 0.5433 0.03814 0.73197 0.0
C381 C 0.5359 0.02096 0.65782 0.0
C382 C 0.48902 0.02275 0.61802 0.0
H383 H 0.46671 0.97907 0.39669 0.0
H384 H 0.48535 0.98575 0.46868 0.0
H385 H 0.46276 0.0159 0.58734 0.0
H386 H 0.52482 0.05768 0.7494 0.0
H387 H 0.50524 0.05061 0.67924 0.0
H388 H 0.5278 0.02112 0.55851 0.0
C389 C 0.47391 0.99323 0.46274 0.0
C390 C 0.47692 0.01708 0.58059 0.0
C391 C 0.46312 0.98931 0.42165 0.0
C392 C 0.52823 0.0475 0.72398 0.0
C393 C 0.5169 0.04334 0.68398 0.0
C394 C 0.51365 0.0199 0.5654 0.0
C395 C 0.47033 0.00703 0.49494 0.0
C396 C 0.48307 0.01267 0.53523 0.0
C397 C 0.52038 0.02975 0.65104 0.0
C398 C 0.50753 0.02422 0.61085 0.0
H399 H 0.4331 0.01997 0.43919 0.0
H400 H 0.45196 0.0268 0.5108 0.0
H401 H 0.50672 0.01126 0.49323 0.0
H402 H 0.55872 0.01762 0.70275 0.0
H403 H 0.53893 0.01034 0.63329 0.0
C404 C 0.26931 0.24273 0.71537 0.0
C405 C 0.26907 0.22411 0.71798 0.0
C406 C 0.26557 0.25303 0.75526 0.0
C407 C 0.23872 0.25243 0.85768 0.0
H408 H 0.2695 0.29444 0.9008 0.0
C409 C 0.21995 0.29943 0.0116 0.0
C410 C 0.22544 0.31775 0.00887 0.0
C411 C 0.22558 0.28717 0.97823 0.0
C412 C 0.26062 0.28291 0.88879 0.0
H413 H 0.26493 0.20155 0.7641 0.0
H414 H 0.25771 0.21974 0.83431 0.0
H415 H 0.27982 0.27407 0.84058 0.0
H416 H 0.2404 0.33769 0.96774 0.0
H417 H 0.24954 0.31644 0.90816 0.0
H418 H 0.2191 0.26165 0.90367 0.0
C419 C 0.26111 0.22625 0.80133 0.0
C420 C 0.26665 0.27116 0.85479 0.0
C421 C 0.26531 0.21592 0.76147 0.0
C422 C 0.23606 0.32364 0.97096 0.0
C423 C 0.24146 0.31141 0.93713 0.0
C424 C 0.23255 0.26434 0.89117 0.0
C425 C 0.26115 0.24488 0.79829 0.0
C426 C 0.25568 0.25595 0.83861 0.0
C427 C 0.23662 0.29297 0.94093 0.0
C428 C 0.24334 0.27988 0.90666 0.0
H429 H 0.2722 0.24934 0.68219 0.0
H430 H 0.26552 0.26735 0.75203 0.0
H431 H 0.22995 0.24088 0.84511 0.0
H432 H 0.21191 0.29444 0.0407 0.0
H433 H 0.22174 0.27309 0.9827 0.0
C434 C 0.05424 0.04984 0.8924 0.0
C435 C 0.05832 0.03268 0.87847 0.0
C436 C 0.04567 0.05256 0.93511 0.0
C437 C 0.02692 0.03069 0.04315 0.0
H438 H 0.9861 0.05578 0.00712 0.0
C439 C 0.95893 0.02245 0.13671 0.0
C440 C 0.94948 0.03763 0.14127 0.0
C441 C 0.97488 0.02325 0.112 0.0
C442 C 0.99753 0.04903 0.01838 0.0
H443 H 0.05846 0.00528 0.90001 0.0
H444 H 0.04287 0.00985 0.97408 0.0
H445 H 0.01092 0.05559 0.9544 0.0
H446 H 0.94945 0.06555 0.12386 0.0
H447 H 0.97735 0.06708 0.08239 0.0
H448 H 0.01297 0.0237 0.10678 0.0
C449 C 0.04654 0.0213 0.95262 0.0
C450 C 0.01186 0.04897 0.98813 0.0
C451 C 0.05547 0.01866 0.91018 0.0
C452 C 0.95642 0.05364 0.12139 0.0
C453 C 0.97238 0.05448 0.09719 0.0
C454 C 0.0125 0.03078 0.07369 0.0
C455 C 0.04062 0.03806 0.96395 0.0
C456 C 0.02667 0.03968 -0.00019 0.0
C457 C 0.98166 0.03925 0.09152 0.0
C458 C 0.99757 0.03983 0.0613 0.0
H459 H 0.05653 0.0609 0.86865 0.0
H460 H 0.04175 0.06574 0.94364 0.0
H461 H 0.03815 0.02342 0.05311 0.0
H462 H 0.95394 0.00992 0.15177 0.0
H463 H 0.9816 0.01122 0.10775 0.0
C464 C 0.72555 0.72024 0.88631 0.0
C465 C 0.73966 0.71178 0.90671 0.0
C466 C 0.72638 0.72597 0.83944 0.0
C467 C 0.7617 0.74446 0.76692 0.0
H468 H 0.72167 0.75626 0.68763 0.0
C469 C 0.76681 0.80706 0.65293 0.0
C470 C 0.75287 0.81785 0.66126 0.0
C471 C 0.76541 0.7893 0.66697 0.0
C472 C 0.73303 0.75296 0.70911 0.0
H473 H 0.76452 0.7005 0.89201 0.0
H474 H 0.76597 0.7106 0.80999 0.0
H475 H 0.71797 0.73079 0.73981 0.0
H476 H 0.72655 0.81845 0.6906 0.0
H477 H 0.72418 0.78772 0.71527 0.0
H478 H 0.77641 0.76731 0.73895 0.0
C479 C 0.75442 0.71303 0.83055 0.0
C480 C 0.73093 0.73836 0.73881 0.0
C481 C 0.75354 0.7072 0.87749 0.0
C482 C 0.73743 0.81046 0.68311 0.0
C483 C 0.73601 0.79276 0.69692 0.0
C484 C 0.7638 0.75904 0.73725 0.0
C485 C 0.74137 0.72339 0.81209 0.0
C486 C 0.74496 0.73459 0.77002 0.0
C487 C 0.75003 0.78201 0.68944 0.0
C488 C 0.7492 0.76403 0.7101 0.0
H489 H 0.71453 0.7237 0.90768 0.0
H490 H 0.71609 0.73392 0.82648 0.0
H491 H 0.77276 0.74204 0.79072 0.0
H492 H 0.77883 0.81235 0.63584 0.0
H493 H 0.77643 0.78133 0.66075 0.0
C494 C 0.7381 0.2957 0.45987 0.0
C495 C 0.73042 0.31196 0.46492 0.0
C496 C 0.74041 0.28817 0.41446 0.0
C497 C 0.72418 0.28863 0.28881 0.0
H498 H 0.76884 0.26919 0.26148 0.0
C499 C 0.74324 0.2683 0.09724 0.0
C500 C 0.75237 0.25294 0.09177 0.0
C501 C 0.73991 0.27508 0.14286 0.0
C502 C 0.75619 0.27434 0.26867 0.0
H503 H 0.71913 0.33301 0.42593 0.0
H504 H 0.72324 0.31988 0.34698 0.0
H505 H 0.76435 0.28169 0.34103 0.0
H506 H 0.76473 0.23239 0.13013 0.0
H507 H 0.75867 0.24402 0.20933 0.0
H508 H 0.71601 0.28126 0.21645 0.0
C509 C 0.72731 0.31288 0.37815 0.0
C510 C 0.75363 0.28152 0.31428 0.0
C511 C 0.72506 0.32046 0.42348 0.0
C512 C 0.75776 0.24432 0.13294 0.0
C513 C 0.75439 0.25105 0.17844 0.0
C514 C 0.72672 0.2814 0.2432 0.0
C515 C 0.73503 0.29667 0.37311 0.0
C516 C 0.73761 0.28878 0.32483 0.0
C517 C 0.74561 0.26662 0.18401 0.0
C518 C 0.74277 0.27418 0.23257 0.0
H519 H 0.74236 0.28878 0.49096 0.0
H520 H 0.74624 0.27557 0.41174 0.0
H521 H 0.71159 0.29392 0.29603 0.0
H522 H 0.73897 0.27533 0.06632 0.0
H523 H 0.73328 0.28721 0.14587 0.0
C524 C 0.79055 0.28051 0.97706 0.0
C525 C 0.7962 0.26793 0.94427 0.0
C526 C 0.78584 0.29696 0.96126 0.0
C527 C 0.75865 0.31545 0.90318 0.0
H528 H 0.77777 0.34171 0.79591 0.0
C529 C 0.71841 0.32991 0.73625 0.0
C530 C 0.72158 0.3464 0.71445 0.0
C531 C 0.72811 0.32633 0.77752 0.0
C532 C 0.77236 0.33485 0.82658 0.0
H533 H 0.80294 0.26293 0.87087 0.0
H534 H 0.79534 0.29176 0.84341 0.0
H535 H 0.79757 0.32554 0.84599 0.0
H536 H 0.73701 0.37228 0.719 0.0
H537 H 0.75443 0.36576 0.79065 0.0
H538 H 0.73317 0.32349 0.88129 0.0
C539 C 0.79455 0.28915 0.8812 0.0
C540 C 0.78367 0.32556 0.85508 0.0
C541 C 0.79893 0.27263 0.89682 0.0
C542 C 0.73408 0.35957 0.73572 0.0
C543 C 0.74413 0.35582 0.77641 0.0
C544 C 0.74732 0.32454 0.87437 0.0
C545 C 0.78693 0.30102 0.91261 0.0
C546 C 0.77674 0.3151 0.89227 0.0
C547 C 0.74146 0.33903 0.79704 0.0
C548 C 0.75393 0.33364 0.83456 0.0
H549 H 0.78801 0.27693 0.01365 0.0
H550 H 0.78002 0.30587 0.98619 0.0
H551 H 0.75286 0.30737 0.93125 0.0
H552 H 0.70899 0.3195 0.72015 0.0
H553 H 0.72599 0.31318 0.79232 0.0
C554 C 0.75106 0.74842 0.15798 0.0
C555 C 0.75969 0.73296 0.16599 0.0
C556 C 0.74789 0.76001 0.19587 0.0
C557 C 0.76334 0.77426 0.31749 0.0
H558 H 0.71723 0.79325 0.32347 0.0
C559 C 0.75028 0.83043 0.45249 0.0
C560 C 0.73461 0.82742 0.4785 0.0
C561 C 0.753 0.81968 0.41229 0.0
C562 C 0.73015 0.78803 0.32233 0.0
H563 H 0.77202 0.71764 0.22006 0.0
H564 H 0.76647 0.73802 0.28669 0.0
H565 H 0.72269 0.77199 0.25926 0.0
H566 H 0.70911 0.81138 0.48106 0.0
H567 H 0.71387 0.79275 0.4109 0.0
H568 H 0.77072 0.79014 0.38095 0.0
C569 C 0.76219 0.74111 0.25085 0.0
C570 C 0.73332 0.77596 0.28543 0.0
C571 C 0.7653 0.72942 0.2128 0.0
C572 C 0.72136 0.81404 0.46197 0.0
C573 C 0.72405 0.80338 0.42165 0.0
C574 C 0.7602 0.78642 0.35428 0.0
C575 C 0.75338 0.75648 0.2427 0.0
C576 C 0.74994 0.76895 0.28262 0.0
C577 C 0.74007 0.80582 0.39708 0.0
C578 C 0.74357 0.79341 0.35708 0.0
H579 H 0.74686 0.75175 0.12229 0.0
H580 H 0.74137 0.7719 0.18835 0.0
H581 H 0.77633 0.7692 0.31598 0.0
H582 H 0.76077 0.84062 0.46416 0.0
H583 H 0.76536 0.82204 0.39355 0.0
C584 C 0.54072 0.50952 0.14123 0.0
C585 C 0.54651 0.5231 0.17511 0.0
C586 C 0.52845 0.5127 0.10473 0.0
C587 C 0.51241 0.54646 0.03103 0.0
H588 H 0.46685 0.51756 0.02464 0.0
C589 C 0.45841 0.56019 0.89146 0.0
C590 C 0.44864 0.54524 0.86921 0.0
C591 C 0.46894 0.55832 0.93262 0.0
C592 C 0.47957 0.52561 0.02538 0.0
H593 H 0.54501 0.55085 0.19608 0.0
H594 H 0.52397 0.55657 0.13128 0.0
H595 H 0.48925 0.5121 0.08591 0.0
H596 H 0.44174 0.51669 0.87339 0.0
H597 H 0.46059 0.51325 0.9436 0.0
H598 H 0.50336 0.55944 0.9694 0.0
C599 C 0.52858 0.5434 0.13371 0.0
C600 C 0.49233 0.52249 0.0606 0.0
C601 C 0.5405 0.5401 0.17083 0.0
C602 C 0.449 0.52851 0.89 0.0
C603 C 0.45981 0.52656 0.93051 0.0
C604 C 0.49983 0.54934 0.99514 0.0
C605 C 0.52223 0.52963 0.10097 0.0
C606 C 0.50883 0.53287 0.06357 0.0
C607 C 0.47024 0.54137 0.95179 0.0
C608 C 0.48323 0.53893 0.99172 0.0
H609 H 0.54516 0.49629 0.14401 0.0
H610 H 0.52377 0.50195 0.07954 0.0
H611 H 0.52512 0.55457 0.0327 0.0
H612 H 0.45825 0.57329 0.87641 0.0
H613 H 0.47635 0.57013 0.94873 0.0
C614 C 0.03265 0.49329 0.42256 0.0
C615 C 0.04533 0.50757 0.43661 0.0
C616 C 0.01559 0.49201 0.44151 0.0
C617 C 0.98678 0.48704 0.5164 0.0
H618 H 0.96417 0.53015 0.54576 0.0
C619 C 0.95163 0.49853 0.68793 0.0
C620 C 0.93679 0.50849 0.68962 0.0
C621 C 0.95983 0.4955 0.64496 0.0
C622 C 0.96997 0.51789 0.53681 0.0
H623 H 0.0502 0.53144 0.48227 0.0
H624 H 0.02061 0.52919 0.51523 0.0
H625 H 0.98887 0.53125 0.49104 0.0
H626 H 0.91855 0.5227 0.64698 0.0
H627 H 0.93339 0.51783 0.57137 0.0
H628 H 0.96847 0.4739 0.5641 0.0
C629 C 0.02365 0.51922 0.48876 0.0
C630 C 0.98426 0.51857 0.50597 0.0
C631 C 0.04067 0.52044 0.47011 0.0
C632 C 0.92997 0.51494 0.64683 0.0
C633 C 0.93841 0.51215 0.60362 0.0
C634 C 0.97251 0.48637 0.54729 0.0
C635 C 0.01091 0.50504 0.4746 0.0
C636 C 0.99336 0.50336 0.49746 0.0
C637 C 0.95359 0.5026 0.60254 0.0
C638 C 0.96461 0.502 0.55969 0.0
H639 H 0.03583 0.4832 0.39661 0.0
H640 H 0.00604 0.48091 0.43013 0.0
H641 H 0.9935 0.4751 0.51039 0.0
H642 H 0.95746 0.49356 0.71997 0.0
H643 H 0.97174 0.48846 0.64557 0.0
C644 C 0.0272 0.54565 0.27021 0.0
C645 C 0.04249 0.53621 0.26997 0.0
C646 C 0.01376 0.54217 0.23466 0.0
C647 C 0.99496 0.50602 0.15326 0.0
H648 H 0.97471 0.54268 0.08043 0.0
C649 C 0.95957 0.49162 0.97103 0.0
C650 C 0.94604 0.50207 0.95604 0.0
C651 C 0.96829 0.495 0.01543 0.0
C652 C 0.9799 0.53228 0.10118 0.0
H653 H 0.05606 0.51649 0.23041 0.0
H654 H 0.03263 0.51046 0.16892 0.0
H655 H 0.99671 0.55127 0.14487 0.0
H656 H 0.9301 0.52334 0.9777 0.0
H657 H 0.94522 0.52904 0.05574 0.0
H658 H 0.97837 0.48699 0.10965 0.0
C659 C 0.03095 0.52033 0.197 0.0
C660 C 0.99258 0.53723 0.13785 0.0
C661 C 0.04443 0.5239 0.23211 0.0
C662 C 0.94055 0.51512 0.98798 0.0
C663 C 0.9493 0.51849 0.03255 0.0
C664 C 0.9822 0.50107 0.117 0.0
C665 C 0.01532 0.5291 0.19858 0.0
C666 C 0.00058 0.52412 0.16322 0.0
C667 C 0.96365 0.50884 0.04609 0.0
C668 C 0.9749 0.51412 0.08958 0.0
H669 H 0.02529 0.55524 0.29878 0.0
H670 H 0.00184 0.54917 0.23647 0.0
H671 H 0.00067 0.49566 0.17307 0.0
H672 H 0.96408 0.48139 0.94751 0.0
H673 H 0.97937 0.48739 0.02443 0.0
C674 C 0.46999 0.50998 0.69357 0.0
C675 C 0.45966 0.52435 0.68624 0.0
C676 C 0.48765 0.51084 0.67865 0.0
C677 C 0.52473 0.54245 0.63754 0.0
H678 H 0.53373 0.50357 0.55043 0.0
C679 C 0.55715 0.55204 0.46021 0.0
C680 C 0.56537 0.53813 0.43798 0.0
C681 C 0.55122 0.55043 0.50675 0.0
C682 C 0.53183 0.51436 0.57571 0.0
H683 H 0.45978 0.55084 0.65747 0.0
H684 H 0.49033 0.55236 0.63189 0.0
H685 H 0.50874 0.4999 0.60341 0.0
H686 H 0.57579 0.51258 0.44912 0.0
H687 H 0.5653 0.50974 0.53055 0.0
H688 H 0.54712 0.55734 0.60736 0.0
C689 C 0.48501 0.54057 0.65 0.0
C690 C 0.51743 0.51224 0.60607 0.0
C691 C 0.4674 0.53965 0.66446 0.0
C692 C 0.56933 0.52347 0.46509 0.0
C693 C 0.56327 0.52179 0.51167 0.0
C694 C 0.53914 0.54456 0.60722 0.0
C695 C 0.4953 0.52615 0.65653 0.0
C696 C 0.51315 0.52662 0.63525 0.0
C697 C 0.55331 0.53482 0.53197 0.0
C698 C 0.54221 0.53089 0.57405 0.0
H699 H 0.4644 0.49801 0.71041 0.0
H700 H 0.49527 0.4995 0.68394 0.0
H701 H 0.52194 0.55363 0.66052 0.0
H702 H 0.55413 0.56362 0.44048 0.0
H703 H 0.54355 0.56071 0.52114 0.0
C704 C 0.08858 0.47156 0.20404 0.0
C705 C 0.09918 0.4847 0.23155 0.0
C706 C 0.09622 0.46134 0.16908 0.0
C707 C 0.1369 0.45736 0.09918 0.0
H708 H 0.12749 0.40691 0.12283 0.0
C709 C 0.18875 0.40749 0.0758 0.0
C710 C 0.18324 0.38912 0.07251 0.0
C711 C 0.17612 0.41995 0.07615 0.0
C712 C 0.12999 0.42085 0.11428 0.0
H713 H 0.12585 0.49822 0.24182 0.0
H714 H 0.13919 0.48027 0.18105 0.0
H715 H 0.10932 0.42795 0.15978 0.0
H716 H 0.16046 0.36947 0.06037 0.0
H717 H 0.13846 0.39123 0.0587 0.0
H718 H 0.15797 0.45025 0.05472 0.0
C719 C 0.12497 0.47794 0.18635 0.0
C720 C 0.11955 0.43296 0.13581 0.0
C721 C 0.11736 0.48809 0.22151 0.0
C722 C 0.16506 0.38355 0.06393 0.0
C723 C 0.15245 0.39603 0.06331 0.0
C724 C 0.14725 0.44519 0.07709 0.0
C725 C 0.11457 0.46414 0.16069 0.0
C726 C 0.12333 0.45139 0.13 0.0
C727 C 0.15774 0.4143 0.07242 0.0
C728 C 0.1444 0.42683 0.08599 0.0
H729 H 0.07448 0.46874 0.21055 0.0
H730 H 0.08787 0.45088 0.14955 0.0
H731 H 0.13992 0.4715 0.09356 0.0
H732 H 0.20268 0.41222 0.08233 0.0
H733 H 0.18079 0.43385 0.0834 0.0
C734 C 0.79244 0.90982 0.51239 0.0
C735 C 0.79714 0.89249 0.5204 0.0
C736 C 0.80375 0.92193 0.48781 0.0
C737 C 0.84116 0.92441 0.40464 0.0
H738 H 0.84693 0.97423 0.44702 0.0
C739 C 0.89272 0.97615 0.32425 0.0
C740 C 0.88662 0.99268 0.31313 0.0
C741 C 0.88226 0.96388 0.3507 0.0
C742 C 0.84534 0.96038 0.43456 0.0
H743 H 0.81743 0.87428 0.50892 0.0
H744 H 0.83729 0.89552 0.46665 0.0
H745 H 0.82787 0.9528 0.49095 0.0
H746 H 0.86486 0.00939 0.32159 0.0
H747 H 0.84665 0.98798 0.36772 0.0
H748 H 0.85871 0.93203 0.34833 0.0
C749 C 0.82473 0.89967 0.47875 0.0
C750 C 0.8344 0.94811 0.45965 0.0
C751 C 0.81338 0.88752 0.5032 0.0
C752 C 0.86995 0.99677 0.32953 0.0
C753 C 0.85955 0.98455 0.35619 0.0
C754 C 0.85217 0.93668 0.37967 0.0
C755 C 0.82006 0.91703 0.47082 0.0
C756 C 0.83208 0.92999 0.44481 0.0
C757 C 0.86555 0.96794 0.36685 0.0
C758 C 0.85429 0.95482 0.3942 0.0
H759 H 0.77998 0.91405 0.52494 0.0
H760 H 0.79958 0.93509 0.48164 0.0
H761 H 0.83947 0.91061 0.39182 0.0
H762 H 0.90551 0.9726 0.31224 0.0
H763 H 0.88732 0.95127 0.35881 0.0
C764 C 0.30016 0.6748 0.609 0.0
C765 C 0.29934 0.67101 0.55945 0.0
C766 C 0.30661 0.66268 0.64062 0.0
C767 C 0.31892 0.61584 0.64755 0.0
H768 H 0.35304 0.63631 0.74515 0.0
C769 C 0.38764 0.59669 0.73731 0.0
C770 C 0.38351 0.57826 0.74277 0.0
C771 C 0.37416 0.60778 0.72873 0.0
C772 C 0.34349 0.63036 0.71822 0.0
H773 H 0.3042 0.65135 0.50431 0.0
H774 H 0.31592 0.63054 0.55898 0.0
H775 H 0.33517 0.65576 0.70029 0.0
H776 H 0.36181 0.55732 0.74786 0.0
H777 H 0.33815 0.57681 0.73357 0.0
H778 H 0.32825 0.59062 0.66279 0.0
C779 C 0.31122 0.64264 0.57378 0.0
C780 C 0.33307 0.6415 0.69281 0.0
C781 C 0.30466 0.65468 0.54228 0.0
C782 C 0.36547 0.57143 0.74333 0.0
C783 C 0.35191 0.58258 0.73483 0.0
C784 C 0.32947 0.60472 0.67261 0.0
C785 C 0.31247 0.64656 0.62332 0.0
C786 C 0.32114 0.63445 0.65591 0.0
C787 C 0.35615 0.60076 0.72566 0.0
C788 C 0.34238 0.61193 0.70697 0.0
H789 H 0.29599 0.68721 0.62339 0.0
H790 H 0.30717 0.66602 0.67857 0.0
H791 H 0.30955 0.60991 0.62018 0.0
H792 H 0.40139 0.60247 0.73713 0.0
H793 H 0.37801 0.62164 0.72141 0.0
C794 C 0.71015 0.19462 0.9249 0.0
C795 C 0.72755 0.1903 0.93594 0.0
C796 C 0.69634 0.18119 0.91499 0.0
C797 C 0.68727 0.13512 0.87064 0.0
H798 H 0.64195 0.13709 0.93217 0.0
C799 C 0.63096 0.07716 0.85528 0.0
C800 C 0.61315 0.08133 0.8563 0.0
C801 C 0.64504 0.09059 0.8619 0.0
C802 C 0.65438 0.13648 0.91394 0.0
H803 H 0.74408 0.16846 0.9453 0.0
H804 H 0.71985 0.14492 0.9273 0.0
H805 H 0.66633 0.16004 0.95141 0.0
H806 H 0.59616 0.10298 0.86209 0.0
H807 H 0.62069 0.12646 0.87184 0.0
H808 H 0.67529 0.11179 0.83236 0.0
C809 C 0.717 0.15875 0.92646 0.0
C810 C 0.66839 0.14958 0.92528 0.0
C811 C 0.73081 0.17221 0.93706 0.0
C812 C 0.60974 0.09931 0.86163 0.0
C813 C 0.62382 0.11275 0.86764 0.0
C814 C 0.67319 0.12211 0.85881 0.0
C815 C 0.69965 0.16314 0.91533 0.0
C816 C 0.68496 0.14901 0.90381 0.0
C817 C 0.64165 0.10852 0.86911 0.0
C818 C 0.65655 0.12261 0.88037 0.0
H819 H 0.70717 0.20841 0.92386 0.0
H820 H 0.68311 0.18493 0.9062 0.0
H821 H 0.69987 0.13452 0.85315 0.0
H822 H 0.63407 0.06343 0.8515 0.0
H823 H 0.65856 0.08677 0.86329 0.0
C824 C 0.11733 0.59146 0.36847 0.0
C825 C 0.1202 0.5733 0.36438 0.0
C826 C 0.13171 0.60463 0.36871 0.0
C827 C 0.17831 0.61181 0.40527 0.0
H828 H 0.17803 0.65544 0.33497 0.0
C829 C 0.23535 0.66896 0.42855 0.0
C830 C 0.23034 0.68649 0.42827 0.0
C831 C 0.22291 0.65445 0.41586 0.0
C832 C 0.17824 0.64342 0.35528 0.0
H833 H 0.14034 0.55471 0.35578 0.0
H834 H 0.16553 0.57782 0.35711 0.0
H835 H 0.1543 0.63136 0.31969 0.0
H836 H 0.20825 0.7025 0.41553 0.0
H837 H 0.18652 0.67731 0.39521 0.0
H838 H 0.2017 0.62405 0.44258 0.0
C839 C 0.15211 0.58178 0.35989 0.0
C840 C 0.16471 0.62961 0.34622 0.0
C841 C 0.13769 0.5686 0.35885 0.0
C842 C 0.2126 0.68918 0.41566 0.0
C843 C 0.20015 0.67471 0.40358 0.0
C844 C 0.19172 0.62571 0.41483 0.0
C845 C 0.14926 0.59989 0.36556 0.0
C846 C 0.1645 0.61378 0.37157 0.0
C847 C 0.20515 0.65716 0.40316 0.0
C848 C 0.1917 0.64182 0.39048 0.0
H849 H 0.104 0.5955 0.37262 0.0
H850 H 0.12917 0.6185 0.37343 0.0
H851 H 0.17832 0.59979 0.4257 0.0
H852 H 0.24894 0.66645 0.43781 0.0
H853 H 0.22729 0.64115 0.41543 0.0
C854 C 0.62601 0.99766 0.72949 0.0
C855 C 0.60842 0.99021 0.73565 0.0
C856 C 0.63767 0.98864 0.70183 0.0
C857 C 0.66242 0.96089 0.67554 0.0
H858 H 0.64677 0.92954 0.56691 0.0
C859 C 0.68287 0.89146 0.59434 0.0
C860 C 0.70157 0.89494 0.59463 0.0
C861 C 0.67202 0.90543 0.59882 0.0
C862 C 0.65134 0.93832 0.59704 0.0
H863 H 0.58905 0.96778 0.71624 0.0
H864 H 0.6095 0.95177 0.66933 0.0
H865 H 0.62662 0.95021 0.59909 0.0
H866 H 0.72346 0.91597 0.59618 0.0
H867 H 0.70445 0.94037 0.60428 0.0
H868 H 0.68694 0.94873 0.67429 0.0
C869 C 0.61425 0.96475 0.68494 0.0
C870 C 0.6398 0.9501 0.61563 0.0
C871 C 0.60254 0.97386 0.71221 0.0
C872 C 0.70911 0.9128 0.59615 0.0
C873 C 0.69825 0.92678 0.60099 0.0
C874 C 0.67399 0.94924 0.65675 0.0
C875 C 0.63206 0.97187 0.68012 0.0
C876 C 0.64503 0.96117 0.65596 0.0
C877 C 0.67964 0.92319 0.60392 0.0
C878 C 0.66841 0.9375 0.61813 0.0
H879 H 0.63088 0.01037 0.7466 0.0
H880 H 0.65119 0.99468 0.69813 0.0
H881 H 0.66685 0.96899 0.70704 0.0
H882 H 0.67661 0.87787 0.59279 0.0
H883 H 0.65774 0.90223 0.60127 0.0
C884 C 0.36762 0.4883 0.83925 0.0
C885 C 0.37779 0.48043 0.80452 0.0
C886 C 0.35591 0.47773 0.86692 0.0
C887 C 0.34695 0.43192 0.90927 0.0
H888 H 0.30049 0.44729 0.93739 0.0
C889 C 0.30195 0.39886 0.05188 0.0
C890 C 0.28353 0.39603 0.04096 0.0
C891 C 0.31332 0.40878 0.02185 0.0
C892 C 0.31336 0.44273 0.92955 0.0
H893 H 0.38357 0.45525 0.77148 0.0
H894 H 0.36302 0.43681 0.8196 0.0
H895 H 0.32037 0.46517 0.88628 0.0
H896 H 0.26262 0.40129 0.98968 0.0
H897 H 0.2825 0.41851 0.93716 0.0
H898 H 0.33984 0.40937 0.95208 0.0
C899 C 0.36426 0.45116 0.82575 0.0
C900 C 0.32482 0.45308 0.9007 0.0
C901 C 0.37596 0.46174 0.79801 0.0
C902 C 0.27674 0.40328 -0.00077 0.0
C903 C 0.28811 0.41322 0.96924 0.0
C904 C 0.33549 0.42159 0.9382 0.0
C905 C 0.35411 0.45904 0.86054 0.0
C906 C 0.34178 0.44783 0.89037 0.0
C907 C 0.30653 0.41612 0.98026 0.0
C908 C 0.31859 0.42691 0.94879 0.0
H909 H 0.36874 0.50266 0.8453 0.0
H910 H 0.34847 0.4842 0.89386 0.0
H911 H 0.35998 0.42759 0.90234 0.0
H912 H 0.30761 0.39349 0.08377 0.0
H913 H 0.32741 0.41096 0.03165 0.0
C914 C 0.79548 0.177 0.11886 0.0
C915 C 0.80536 0.19361 0.11414 0.0
C916 C 0.80133 0.16461 0.15053 0.0
C917 C 0.82384 0.13657 0.18644 0.0
H918 H 0.85413 0.14949 0.29895 0.0
C919 C 0.88929 0.11 0.26691 0.0
C920 C 0.88432 0.09151 0.26352 0.0
C921 C 0.87631 0.12209 0.26631 0.0
C922 C 0.84552 0.14566 0.26793 0.0
H923 H 0.82869 0.21061 0.14026 0.0
H924 H 0.83936 0.18878 0.19379 0.0
H925 H 0.83673 0.17181 0.26312 0.0
H926 H 0.8618 0.07119 0.26241 0.0
H927 H 0.83914 0.09235 0.261 0.0
H928 H 0.833 0.11064 0.1903 0.0
C929 C 0.82683 0.18539 0.1742 0.0
C930 C 0.83566 0.15846 0.24715 0.0
C931 C 0.8208 0.19789 0.14311 0.0
C932 C 0.8661 0.08535 0.2646 0.0
C933 C 0.8531 0.09746 0.26361 0.0
C934 C 0.83351 0.12378 0.20749 0.0
C935 C 0.81738 0.16842 0.17755 0.0
C936 C 0.82523 0.15424 0.20504 0.0
C937 C 0.85811 0.1159 0.26205 0.0
C938 C 0.84496 0.12835 0.24739 0.0
H939 H 0.78335 0.17345 0.09754 0.0
H940 H 0.79347 0.15186 0.15295 0.0
H941 H 0.81621 0.13281 0.15372 0.0
H942 H 0.90323 0.11519 0.26675 0.0
H943 H 0.88061 0.13622 0.26504 0.0
C944 C 0.80415 0.63939 0.0628 0.0
C945 C 0.79161 0.6486 0.03778 0.0
C946 C 0.81127 0.62475 0.04117 0.0
C947 C 0.81955 0.60623 0.92168 0.0
H948 H 0.83002 0.56423 0.99031 0.0
C949 C 0.85197 0.54886 0.82836 0.0
C950 C 0.86641 0.54267 0.85375 0.0
C951 C 0.84055 0.55978 0.85124 0.0
C952 C 0.82723 0.57591 0.97073 0.0
H953 H 0.77611 0.64914 0.97123 0.0
H954 H 0.78837 0.6236 0.93395 0.0
H955 H 0.81448 0.58728 0.03029 0.0
H956 H 0.8797 0.5424 0.92362 0.0
H957 H 0.86 0.56154 0.96315 0.0
H958 H 0.83261 0.59516 0.86254 0.0
C959 C 0.79298 0.62788 0.96987 0.0
C960 C 0.81836 0.58911 0.99365 0.0
C961 C 0.7859 0.64249 0.99138 0.0
C962 C 0.86874 0.54699 0.90291 0.0
C963 C 0.85735 0.55788 0.92573 0.0
C964 C 0.82842 0.59307 0.89882 0.0
C965 C 0.80597 0.61902 0.99415 0.0
C966 C 0.81457 0.6045 0.96949 0.0
C967 C 0.84334 0.56469 0.89998 0.0
C968 C 0.83254 0.57784 0.92321 0.0
H969 H 0.8088 0.64376 0.09861 0.0
H970 H 0.82137 0.61829 0.06069 0.0
H971 H 0.8171 0.61806 0.90228 0.0
H972 H 0.84974 0.54568 0.79053 0.0
H973 H 0.82971 0.5646 0.83058 0.0
C974 C 0.19683 0.17604 0.63877 0.0
C975 C 0.21449 0.17191 0.63288 0.0
C976 C 0.18323 0.16258 0.6466 0.0
C977 C 0.15897 0.13339 0.68983 0.0
H978 H 0.15819 0.08753 0.6224 0.0
C979 C 0.09879 0.0798 0.6922 0.0
C980 C 0.10271 0.06218 0.69987 0.0
C981 C 0.11245 0.09314 0.68369 0.0
C982 C 0.15832 0.10023 0.64176 0.0
H983 H 0.23171 0.15034 0.63096 0.0
H984 H 0.20805 0.12691 0.64562 0.0
H985 H 0.18199 0.11093 0.60812 0.0
H986 H 0.12409 0.04475 0.70407 0.0
H987 H 0.14786 0.06805 0.68902 0.0
H988 H 0.13515 0.12271 0.72298 0.0
C989 C 0.20465 0.14053 0.64325 0.0
C990 C 0.17198 0.11362 0.63371 0.0
C991 C 0.21824 0.15399 0.63511 0.0
C992 C 0.12058 0.05818 0.69836 0.0
C993 C 0.13421 0.0715 0.68948 0.0
C994 C 0.14525 0.12004 0.69762 0.0
C995 C 0.18697 0.14466 0.64906 0.0
C996 C 0.17248 0.13037 0.65767 0.0
C997 C 0.13029 0.08913 0.68228 0.0
C998 C 0.1448 0.10332 0.67371 0.0
H999 H 0.19342 0.18968 0.63694 0.0
H1000 H 0.16973 0.16621 0.6501 0.0
H1001 H 0.1591 0.14601 0.70955 0.0
H1002 H 0.08519 0.08336 0.69312 0.0
H1003 H 0.10902 0.10659 0.67778 0.0
C1004 C 0.71583 0.4034 0.46044 0.0
C1005 C 0.71519 0.40702 0.50989 0.0
C1006 C 0.71048 0.41567 0.42773 0.0
C1007 C 0.69667 0.46186 0.41691 0.0
H1008 H 0.66334 0.43899 0.32052 0.0
C1009 C 0.63551 0.49337 0.34484 0.0
C1010 C 0.63002 0.49051 0.29658 0.0
C1011 C 0.65014 0.48545 0.3633 0.0
C1012 C 0.6729 0.44564 0.34644 0.0
H1013 H 0.70962 0.42685 0.56381 0.0
H1014 H 0.69983 0.44802 0.50698 0.0
H1015 H 0.68203 0.42093 0.36725 0.0
H1016 H 0.63598 0.47766 0.22932 0.0
H1017 H 0.66151 0.46349 0.262 0.0
H1018 H 0.68662 0.48648 0.39768 0.0
C1019 C 0.70471 0.43585 0.49323 0.0
C1020 C 0.68367 0.43528 0.37329 0.0
C1021 C 0.71022 0.42365 0.52593 0.0
C1022 C 0.63986 0.48004 0.2667 0.0
C1023 C 0.65443 0.47193 0.28537 0.0
C1024 C 0.68579 0.47221 0.39023 0.0
C1025 C 0.70422 0.43175 0.44377 0.0
C1026 C 0.69528 0.44319 0.4099 0.0
C1027 C 0.65954 0.47437 0.33404 0.0
C1028 C 0.67339 0.46411 0.3558 0.0
H1029 H 0.71986 0.39079 0.44695 0.0
H1030 H 0.71065 0.41226 0.38988 0.0
H1031 H 0.70572 0.46842 0.44415 0.0
H1032 H 0.6283 0.50149 0.36873 0.0
H1033 H 0.65359 0.48739 0.40107 0.0
C1034 C 0.38461 0.93998 0.26253 0.0
C1035 C 0.38255 0.95837 0.2653 0.0
C1036 C 0.3701 0.92762 0.2496 0.0
C1037 C 0.32913 0.92453 0.17715 0.0
H1038 H 0.31679 0.88011 0.24051 0.0
C1039 C 0.28144 0.85331 0.147 0.0
C1040 C 0.26593 0.85995 0.12826 0.0
C1041 C 0.29616 0.865 0.16258 0.0
C1042 C 0.32024 0.8923 0.22186 0.0
H1043 H 0.3634 0.9781 0.25886 0.0
H1044 H 0.33815 0.95648 0.2358 0.0
H1045 H 0.34112 0.9011 0.27343 0.0
H1046 H 0.25389 0.88412 0.11034 0.0
H1047 H 0.27924 0.9044 0.13845 0.0
H1048 H 0.30873 0.9157 0.12483 0.0
C1049 C 0.35103 0.9517 0.24354 0.0
C1050 C 0.33409 0.90436 0.241 0.0
C1051 C 0.36547 0.96404 0.25711 0.0
C1052 C 0.26567 0.87851 0.12418 0.0
C1053 C 0.28028 0.89018 0.14024 0.0
C1054 C 0.31547 0.9124 0.15765 0.0
C1055 C 0.35332 0.93343 0.2386 0.0
C1056 C 0.33855 0.92065 0.21901 0.0
C1057 C 0.29563 0.88361 0.16025 0.0
C1058 C 0.31074 0.89617 0.17991 0.0
H1059 H 0.39758 0.93517 0.2688 0.0
H1060 H 0.37221 0.9136 0.24598 0.0
H1061 H 0.33254 0.93686 0.15898 0.0
H1062 H 0.28211 0.83909 0.15046 0.0
H1063 H 0.30788 0.85944 0.17685 0.0
C1064 C 0.78069 0.37809 0.61106 0.0
C1065 C 0.77527 0.36215 0.63375 0.0
C1066 C 0.79539 0.38928 0.62907 0.0
C1067 C 0.83463 0.39119 0.71416 0.0
H1068 H 0.83062 0.44215 0.71156 0.0
C1069 C 0.89362 0.44336 0.76633 0.0
C1070 C 0.89007 0.45975 0.7877 0.0
C1071 C 0.87967 0.43087 0.75032 0.0
C1072 C 0.83187 0.42796 0.71326 0.0
H1073 H 0.7812 0.34535 0.6928 0.0
H1074 H 0.80647 0.36498 0.72475 0.0
H1075 H 0.80669 0.42148 0.67662 0.0
H1076 H 0.86902 0.47545 0.81125 0.0
H1077 H 0.84465 0.45337 0.78473 0.0
H1078 H 0.8595 0.39766 0.75247 0.0
C1079 C 0.79971 0.36869 0.69235 0.0
C1080 C 0.81827 0.41609 0.69234 0.0
C1081 C 0.78517 0.3574 0.674 0.0
C1082 C 0.87223 0.46301 0.79465 0.0
C1083 C 0.85825 0.45041 0.77904 0.0
C1084 C 0.84816 0.40307 0.73552 0.0
C1085 C 0.80485 0.38492 0.6706 0.0
C1086 C 0.81951 0.39754 0.69229 0.0
C1087 C 0.86179 0.43434 0.75573 0.0
C1088 C 0.847 0.42162 0.73513 0.0
H1089 H 0.77336 0.38209 0.57991 0.0
H1090 H 0.7992 0.40147 0.61075 0.0
H1091 H 0.83615 0.37702 0.71446 0.0
H1092 H 0.90719 0.4404 0.76014 0.0
H1093 H 0.88295 0.41879 0.73202 0.0
C1094 C 0.32142 0.1472 0.58108 0.0
C1095 C 0.30411 0.15051 0.56591 0.0
C1096 C 0.32949 0.13284 0.56146 0.0
C1097 C 0.32804 0.10377 0.45332 0.0
H1098 H 0.35979 0.07736 0.52946 0.0
C1099 C 0.36726 0.04845 0.37099 0.0
C1100 C 0.38552 0.04978 0.38424 0.0
C1101 C 0.35559 0.05868 0.39529 0.0
C1102 C 0.35099 0.08465 0.50774 0.0
H1103 H 0.28146 0.14097 0.51925 0.0
H1104 H 0.29553 0.11573 0.48527 0.0
H1105 H 0.34221 0.09885 0.56867 0.0
H1106 H 0.40575 0.06254 0.43411 0.0
H1107 H 0.38545 0.08035 0.47626 0.0
H1108 H 0.33708 0.08977 0.3923 0.0
C1109 C 0.30294 0.12443 0.5119 0.0
C1110 C 0.34094 0.09697 0.53016 0.0
C1111 C 0.29486 0.13884 0.53154 0.0
C1112 C 0.39177 0.06122 0.42292 0.0
C1113 C 0.38011 0.07134 0.44734 0.0
C1114 C 0.33806 0.0914 0.43091 0.0
C1115 C 0.32043 0.12139 0.52625 0.0
C1116 C 0.32963 0.10694 0.50311 0.0
C1117 C 0.36193 0.07031 0.43354 0.0
C1118 C 0.34991 0.08198 0.45779 0.0
H1119 H 0.32893 0.15594 0.60745 0.0
H1120 H 0.34307 0.13105 0.57284 0.0
H1121 H 0.31963 0.11138 0.43135 0.0
H1122 H 0.36202 0.03972 0.34138 0.0
H1123 H 0.34161 0.05751 0.38411 0.0
C1124 C 0.60731 0.58881 0.25989 0.0
C1125 C 0.60683 0.57042 0.24891 0.0
C1126 C 0.62109 0.60065 0.24362 0.0
C1127 C 0.64941 0.60822 0.14543 0.0
H1128 H 0.68101 0.63932 0.2303 0.0
C1129 C 0.69159 0.67291 0.09196 0.0
C1130 C 0.71005 0.67286 0.10106 0.0
C1131 C 0.67967 0.65938 0.10908 0.0
C1132 C 0.67228 0.63064 0.20637 0.0
H1133 H 0.62038 0.54996 0.21256 0.0
H1134 H 0.64418 0.57086 0.1827 0.0
H1135 H 0.65879 0.61751 0.26405 0.0
H1136 H 0.73053 0.65871 0.13526 0.0
H1137 H 0.70949 0.63535 0.16665 0.0
H1138 H 0.66239 0.62185 0.08777 0.0
C1139 C 0.63401 0.57596 0.20454 0.0
C1140 C 0.65961 0.61828 0.22556 0.0
C1141 C 0.62048 0.56406 0.22177 0.0
C1142 C 0.71637 0.65901 0.12748 0.0
C1143 C 0.7044 0.64573 0.14558 0.0
C1144 C 0.66178 0.62087 0.12626 0.0
C1145 C 0.63436 0.59432 0.21522 0.0
C1146 C 0.64812 0.60699 0.19519 0.0
C1147 C 0.68598 0.64585 0.1365 0.0
C1148 C 0.67329 0.63214 0.15661 0.0
H1149 H 0.59699 0.59405 0.28087 0.0
H1150 H 0.62112 0.6148 0.25205 0.0
H1151 H 0.64056 0.59967 0.12148 0.0
H1152 H 0.68638 0.6834 0.07157 0.0
H1153 H 0.66547 0.6597 0.10187 0.0
C1154 C 0.20666 0.89537 0.96092 0.0
C1155 C 0.20469 0.89906 0.00988 0.0
C1156 C 0.20294 0.9079 0.92713 0.0
C1157 C 0.19218 0.955 0.91276 0.0
H1158 H 0.16259 0.93388 0.80625 0.0
C1159 C 0.13686 0.98947 0.81846 0.0
C1160 C 0.1332 0.98601 0.76936 0.0
C1161 C 0.1504 0.98139 0.84208 0.0
C1162 C 0.17117 0.94004 0.83508 0.0
H1163 H 0.19819 0.9191 0.0621 0.0
H1164 H 0.19107 0.94074 0.00314 0.0
H1165 H 0.17762 0.91473 0.85906 0.0
H1166 H 0.14164 0.97234 0.70582 0.0
H1167 H 0.16527 0.95806 0.74736 0.0
H1168 H 0.18474 0.98029 0.88991 0.0
C1169 C 0.19584 0.92833 0.99072 0.0
C1170 C 0.17983 0.92904 0.86548 0.0
C1171 C 0.1998 0.91587 0.02458 0.0
C1172 C 0.14406 0.97516 0.74375 0.0
C1173 C 0.15755 0.96696 0.76751 0.0
C1174 C 0.18339 0.96601 0.88247 0.0
C1175 C 0.19692 0.92431 0.94149 0.0
C1176 C 0.19005 0.93632 0.90547 0.0
C1177 C 0.16051 0.96962 0.81715 0.0
C1178 C 0.17241 0.95858 0.84409 0.0
H1179 H 0.21071 0.88263 0.94856 0.0
H1180 H 0.20432 0.90452 0.88961 0.0
H1181 H 0.20024 0.96108 0.94267 0.0
H1182 H 0.12883 0.99791 0.83913 0.0
H1183 H 0.15224 0.98359 0.88041 0.0
loop_
_geom_bond_atom_site_label_1
_geom_bond_atom_site_label_2
_geom_bond_distance
_geom_bond_site_symmetry_2
_ccdc_geom_bond_type
Mg0 O1 2.028 . S
Mg0 O7 1.986 . S
Mg0 O9 2.114 . S
Mg0 O10 2.251 . S
Mg0 O13 2.010 . S
O1 Mg0 2.028 . S
O1 C4 1.250 1_554 S
O2 Mg3 2.028 . S
O2 C4 1.248 1_554 S
Mg3 O2 2.028 . S
Mg3 O8 2.032 . S
Mg3 O10 2.079 . S
C4 O1 1.250 1_556 S
C4 O2 1.248 1_556 S
C5 O6 1.264 . S
C5 O13 1.249 . S
O6 C5 1.264 . S
O7 Mg0 1.986 . S
O7 C11 1.246 . S
O8 Mg3 2.032 . S
O8 C11 1.259 . S
O9 Mg0 2.114 . S
O9 C12 1.252 . S
O10 Mg0 2.251 . S
O10 Mg3 2.079 . S
O10 C12 1.273 . S
C11 O7 1.246 . S
C11 O8 1.259 . S
C12 O9 1.252 . S
C12 O10 1.273 . S
O13 Mg0 2.010 . S
O13 C5 1.249 . S
Mg14 O15 2.028 . S
Mg14 O21 1.986 . S
Mg14 O23 2.114 . S
Mg14 O24 2.251 . S
Mg14 O27 2.010 . S
O15 Mg14 2.028 . S
O15 C18 1.250 . S
O16 Mg17 2.028 . S
O16 C18 1.248 . S
Mg17 O16 2.028 . S
Mg17 O22 2.032 . S
Mg17 O24 2.079 . S
C18 O15 1.250 . S
C18 O16 1.248 . S
C19 O20 1.264 1_545 S
C19 O27 1.249 . S
O20 C19 1.264 1_565 S
O21 Mg14 1.986 . S
O21 C25 1.246 . S
O22 Mg17 2.032 . S
O22 C25 1.259 . S
O23 Mg14 2.114 . S
O23 C26 1.252 . S
O24 Mg14 2.251 . S
O24 Mg17 2.079 . S
O24 C26 1.273 . S
C25 O21 1.246 . S
C25 O22 1.259 . S
C26 O23 1.252 . S
C26 O24 1.273 . S
O27 Mg14 2.010 . S
O27 C19 1.249 . S
Mg28 O29 2.028 . S
Mg28 O35 1.986 . S
Mg28 O37 2.114 . S
Mg28 O38 2.251 . S
Mg28 O41 2.010 . S
O29 Mg28 2.028 . S
O29 C32 1.250 . S
O30 Mg31 2.028 . S
O30 C32 1.248 . S
Mg31 O30 2.028 . S
Mg31 O36 2.032 . S
Mg31 O38 2.079 . S
C32 O29 1.250 . S
C32 O30 1.248 . S
C33 O34 1.264 . S
C33 O41 1.249 . S
O34 C33 1.264 . S
O35 Mg28 1.986 . S
O35 C39 1.246 . S
O36 Mg31 2.032 . S
O36 C39 1.259 . S
O37 Mg28 2.114 . S
O37 C40 1.252 . S
O38 Mg28 2.251 . S
O38 Mg31 2.079 . S
O38 C40 1.273 . S
C39 O35 1.246 . S
C39 O36 1.259 . S
C40 O37 1.252 . S
C40 O38 1.273 . S
O41 Mg28 2.010 . S
O41 C33 1.249 . S
Mg42 O43 2.028 . S
Mg42 O49 1.986 . S
Mg42 O51 2.114 1_545 S
Mg42 O52 2.251 . S
Mg42 O55 2.010 1_545 S
O43 Mg42 2.028 . S
O43 C46 1.250 . S
O44 Mg45 2.028 . S
O44 C46 1.248 . S
Mg45 O44 2.028 . S
Mg45 O50 2.032 . S
Mg45 O52 2.079 . S
C46 O43 1.250 . S
C46 O44 1.248 . S
C47 O48 1.264 . S
C47 O55 1.249 . S
O48 C47 1.264 . S
O49 Mg42 1.986 . S
O49 C53 1.246 . S
O50 Mg45 2.032 . S
O50 C53 1.259 . S
O51 Mg42 2.114 1_565 S
O51 C54 1.252 1_565 S
O52 Mg42 2.251 . S
O52 Mg45 2.079 . S
O52 C54 1.273 . S
C53 O49 1.246 . S
C53 O50 1.259 . S
C54 O51 1.252 1_545 S
C54 O52 1.273 . S
O55 Mg42 2.010 1_565 S
O55 C47 1.249 . S
Mg56 O57 2.028 . S
Mg56 O63 1.986 1_554 S
Mg56 O65 2.114 . S
Mg56 O66 2.251 . S
Mg56 O69 2.010 . S
O57 Mg56 2.028 . S
O57 C60 1.250 . S
O58 Mg59 2.028 . S
O58 C60 1.248 . S
Mg59 O58 2.028 . S
Mg59 O64 2.032 . S
Mg59 O66 2.079 . S
C60 O57 1.250 . S
C60 O58 1.248 . S
C61 O62 1.264 . S
C61 O69 1.249 . S
O62 C61 1.264 . S
O63 Mg56 1.986 1_556 S
O63 C67 1.246 . S
O64 Mg59 2.032 . S
O64 C67 1.259 1_554 S
O65 Mg56 2.114 . S
O65 C68 1.252 . S
O66 Mg56 2.251 . S
O66 Mg59 2.079 . S
O66 C68 1.273 . S
C67 O63 1.246 . S
C67 O64 1.259 1_556 S
C68 O65 1.252 . S
C68 O66 1.273 . S
O69 Mg56 2.010 . S
O69 C61 1.249 . S
Mg70 O71 2.028 . S
Mg70 O77 1.986 . S
Mg70 O79 2.114 . S
Mg70 O80 2.251 . S
Mg70 O83 2.010 . S
O71 Mg70 2.028 . S
O71 C74 1.250 . S
O72 Mg73 2.028 . S
O72 C74 1.248 . S
Mg73 O72 2.028 . S
Mg73 O78 2.032 . S
Mg73 O80 2.079 . S
C74 O71 1.250 . S
C74 O72 1.248 . S
C75 O76 1.264 . S
C75 O83 1.249 1_565 S
O76 C75 1.264 . S
O77 Mg70 1.986 . S
O77 C81 1.246 . S
O78 Mg73 2.032 . S
O78 C81 1.259 . S
O79 Mg70 2.114 . S
O79 C82 1.252 . S
O80 Mg70 2.251 . S
O80 Mg73 2.079 . S
O80 C82 1.273 . S
C81 O77 1.246 . S
C81 O78 1.259 . S
C82 O79 1.252 . S
C82 O80 1.273 . S
O83 Mg70 2.010 . S
O83 C75 1.249 1_545 S
Mg84 O85 2.028 . S
Mg84 O91 1.986 . S
Mg84 O93 2.114 . S
Mg84 O94 2.251 . S
Mg84 O97 2.010 . S
O85 Mg84 2.028 . S
O85 C88 1.250 . S
O86 Mg87 2.028 . S
O86 C88 1.248 . S
Mg87 O86 2.028 . S
Mg87 O92 2.032 . S
Mg87 O94 2.079 . S
C88 O85 1.250 . S
C88 O86 1.248 . S
C89 O90 1.264 . S
C89 O97 1.249 . S
O90 C89 1.264 . S
O91 Mg84 1.986 . S
O91 C95 1.246 . S
O92 Mg87 2.032 . S
O92 C95 1.259 . S
O93 Mg84 2.114 . S
O93 C96 1.252 . S
O94 Mg84 2.251 . S
O94 Mg87 2.079 . S
O94 C96 1.273 . S
C95 O91 1.246 . S
C95 O92 1.259 . S
C96 O93 1.252 . S
C96 O94 1.273 . S
O97 Mg84 2.010 . S
O97 C89 1.249 . S
Mg98 O99 2.028 . S
Mg98 O105 1.986 . S
Mg98 O107 2.114 . S
Mg98 O108 2.251 . S
Mg98 O111 2.010 . S
O99 Mg98 2.028 . S
O99 C102 1.238 1_545 S
O100 Mg101 2.028 . S
O100 C102 1.255 . S
Mg101 O100 2.028 . S
Mg101 O106 2.032 1_565 S
Mg101 O108 2.079 1_565 S
C102 O99 1.238 1_565 S
C102 O100 1.255 . S
C103 O104 1.264 . S
C103 O111 1.249 . S
O104 C103 1.264 . S
O105 Mg98 1.986 . S
O105 C109 1.246 . S
O106 Mg101 2.032 1_545 S
O106 C109 1.259 . S
O107 Mg98 2.114 . S
O107 C110 1.252 . S
O108 Mg98 2.251 . S
O108 Mg101 2.079 1_545 S
O108 C110 1.273 . S
C109 O105 1.246 . S
C109 O106 1.259 . S
C110 O107 1.252 . S
C110 O108 1.273 . S
O111 Mg98 2.010 . S
O111 C103 1.249 . S
Mg112 O113 2.028 . S
Mg112 O119 1.986 . S
Mg112 O121 2.114 . S
Mg112 O122 2.251 . S
Mg112 O125 2.010 . S
O113 Mg112 2.028 . S
O113 C116 1.250 . S
O114 Mg115 2.028 . S
O114 C116 1.248 . S
Mg115 O114 2.028 . S
Mg115 O120 2.032 . S
Mg115 O122 2.079 . S
C116 O113 1.250 . S
C116 O114 1.248 . S
C117 O118 1.264 . S
C117 O125 1.249 . S
O118 C117 1.264 . S
O119 Mg112 1.986 . S
O119 C123 1.246 . S
O120 Mg115 2.032 . S
O120 C123 1.259 . S
O121 Mg112 2.114 . S
O121 C124 1.252 . S
O122 Mg112 2.251 . S
O122 Mg115 2.079 . S
O122 C124 1.273 . S
C123 O119 1.246 . S
C123 O120 1.259 . S
C124 O121 1.252 . S
C124 O122 1.273 . S
O125 Mg112 2.010 . S
O125 C117 1.249 . S
Mg126 O127 2.028 . S
Mg126 O133 1.986 . S
Mg126 O135 2.114 . S
Mg126 O136 2.251 . S
Mg126 O139 2.010 . S
O127 Mg126 2.028 . S
O127 C130 1.250 . S
O128 Mg129 2.028 . S
O128 C130 1.248 . S
Mg129 O128 2.028 . S
Mg129 O134 2.032 . S
Mg129 O136 2.079 . S
C130 O127 1.250 . S
C130 O128 1.248 . S
C131 O132 1.264 . S
C131 O139 1.249 . S
O132 C131 1.264 . S
O133 Mg126 1.986 . S
O133 C137 1.246 . S
O134 Mg129 2.032 . S
O134 C137 1.259 . S
O135 Mg126 2.114 . S
O135 C138 1.252 . S
O136 Mg126 2.251 . S
O136 Mg129 2.079 . S
O136 C138 1.273 . S
C137 O133 1.246 . S
C137 O134 1.259 . S
C138 O135 1.252 . S
C138 O136 1.273 . S
O139 Mg126 2.010 . S
O139 C131 1.249 . S
Mg140 O141 2.028 . S
Mg140 O147 1.986 . S
Mg140 O149 2.114 1_554 S
Mg140 O150 2.251 1_554 S
Mg140 O153 2.010 . S
O141 Mg140 2.028 . S
O141 C144 1.250 . S
O142 Mg143 2.028 . S
O142 C144 1.248 . S
Mg143 O142 2.028 . S
Mg143 O148 2.032 . S
Mg143 O150 2.079 1_554 S
C144 O141 1.250 . S
C144 O142 1.248 . S
C145 O146 1.264 . S
C145 O153 1.249 . S
O146 C145 1.264 . S
O147 Mg140 1.986 . S
O147 C151 1.246 . S
O148 Mg143 2.032 . S
O148 C151 1.259 . S
O149 Mg140 2.114 1_556 S
O149 C152 1.252 . S
O150 Mg140 2.251 1_556 S
O150 Mg143 2.079 1_556 S
O150 C152 1.273 . S
C151 O147 1.246 . S
C151 O148 1.259 . S
C152 O149 1.252 . S
C152 O150 1.273 . S
O153 Mg140 2.010 . S
O153 C145 1.249 . S
Mg154 O155 2.028 . S
Mg154 O161 1.986 . S
Mg154 O163 2.114 . S
Mg154 O164 2.251 . S
Mg154 O167 2.010 . S
O155 Mg154 2.028 . S
O155 C158 1.250 . S
O156 Mg157 2.028 . S
O156 C158 1.248 . S
Mg157 O156 2.028 . S
Mg157 O162 2.032 . S
Mg157 O164 2.079 . S
C158 O155 1.250 . S
C158 O156 1.248 . S
C159 O160 1.264 . S
C159 O167 1.249 . S
O160 C159 1.264 . S
O161 Mg154 1.986 . S
O161 C165 1.246 . S
O162 Mg157 2.032 . S
O162 C165 1.259 . S
O163 Mg154 2.114 . S
O163 C166 1.252 . S
O164 Mg154 2.251 . S
O164 Mg157 2.079 . S
O164 C166 1.273 . S
C165 O161 1.246 . S
C165 O162 1.259 . S
C166 O163 1.252 . S
C166 O164 1.273 . S
O167 Mg154 2.010 . S
O167 C159 1.249 . S
Mg168 O169 2.028 . S
Mg168 O175 1.986 . S
Mg168 O177 2.114 . S
Mg168 O178 2.251 . S
Mg168 O181 2.010 . S
O169 Mg168 2.028 . S
O169 C172 1.250 . S
O170 Mg171 2.028 . S
O170 C172 1.248 . S
Mg171 O170 2.028 . S
Mg171 O176 2.032 . S
Mg171 O178 2.079 . S
C172 O169 1.250 . S
C172 O170 1.248 . S
C173 O174 1.264 . S
C173 O181 1.249 . S
O174 C173 1.264 . S
O175 Mg168 1.986 . S
O175 C179 1.246 . S
O176 Mg171 2.032 . S
O176 C179 1.259 . S
O177 Mg168 2.114 . S
O177 C180 1.252 . S
O178 Mg168 2.251 . S
O178 Mg171 2.079 . S
O178 C180 1.273 . S
C179 O175 1.246 . S
C179 O176 1.259 . S
C180 O177 1.252 . S
C180 O178 1.273 . S
O181 Mg168 2.010 . S
O181 C173 1.249 . S
Mg182 O183 2.028 . S
Mg182 O189 1.986 . S
Mg182 O191 2.114 . S
Mg182 O192 2.251 . S
Mg182 O195 2.010 . S
O183 Mg182 2.028 . S
O183 C186 1.250 . S
O184 Mg185 2.028 . S
O184 C186 1.248 . S
Mg185 O184 2.028 . S
Mg185 O190 2.032 . S
Mg185 O192 2.079 . S
C186 O183 1.250 . S
C186 O184 1.248 . S
C187 O188 1.264 . S
C187 O195 1.249 . S
O188 C187 1.264 . S
O189 Mg182 1.986 . S
O189 C193 1.246 . S
O190 Mg185 2.032 . S
O190 C193 1.259 . S
O191 Mg182 2.114 . S
O191 C194 1.252 . S
O192 Mg182 2.251 . S
O192 Mg185 2.079 . S
O192 C194 1.273 . S
C193 O189 1.246 . S
C193 O190 1.259 . S
C194 O191 1.252 . S
C194 O192 1.273 . S
O195 Mg182 2.010 . S
O195 C187 1.249 . S
Mg196 O197 2.028 . S
Mg196 O203 1.986 1_554 S
Mg196 O205 2.114 . S
Mg196 O206 2.251 . S
Mg196 O209 2.010 . S
O197 Mg196 2.028 . S
O197 C200 1.250 . S
O198 Mg199 2.028 . S
O198 C200 1.248 . S
Mg199 O198 2.028 . S
Mg199 O204 2.032 1_554 S
Mg199 O206 2.079 . S
C200 O197 1.250 . S
C200 O198 1.248 . S
C201 O202 1.264 . S
C201 O209 1.249 . S
O202 C201 1.264 . S
O203 Mg196 1.986 1_556 S
O203 C207 1.246 . S
O204 Mg199 2.032 1_556 S
O204 C207 1.259 . S
O205 Mg196 2.114 . S
O205 C208 1.252 . S
O206 Mg196 2.251 . S
O206 Mg199 2.079 . S
O206 C208 1.273 . S
C207 O203 1.246 . S
C207 O204 1.259 . S
C208 O205 1.252 . S
C208 O206 1.273 . S
O209 Mg196 2.010 . S
O209 C201 1.249 . S
Mg210 O211 2.028 . S
Mg210 O217 1.986 . S
Mg210 O219 2.114 . S
Mg210 O220 2.251 . S
Mg210 O223 2.010 . S
O211 Mg210 2.028 . S
O211 C214 1.250 . S
O212 Mg213 2.028 . S
O212 C214 1.248 . S
Mg213 O212 2.028 . S
Mg213 O218 2.032 . S
Mg213 O220 2.079 . S
C214 O211 1.250 . S
C214 O212 1.248 . S
C215 O216 1.264 . S
C215 O223 1.249 . S
O216 C215 1.264 . S
O217 Mg210 1.986 . S
O217 C221 1.246 . S
O218 Mg213 2.032 . S
O218 C221 1.259 . S
O219 Mg210 2.114 . S
O219 C222 1.252 . S
O220 Mg210 2.251 . S
O220 Mg213 2.079 . S
O220 C222 1.273 . S
C221 O217 1.246 . S
C221 O218 1.259 . S
C222 O219 1.252 . S
C222 O220 1.273 . S
O223 Mg210 2.010 . S
O223 C215 1.249 . S
C224 C225 1.349 . S
C224 C226 1.327 . S
C224 H249 0.950 . S
C225 C224 1.349 . S
C225 C241 1.349 . S
C226 C224 1.327 . S
C226 C245 1.429 . S
C226 H250 0.950 . S
C227 C244 1.574 . S
C227 C246 1.368 . S
C227 H251 0.949 . S
H228 C232 0.949 . S
C229 C230 1.349 . S
C229 C231 1.327 . S
C229 H252 0.950 . S
C230 C229 1.349 . S
C230 C242 1.349 . S
C231 C229 1.327 . S
C231 C247 1.429 . S
C231 H253 0.950 . S
C232 H228 0.949 . S
C232 C240 1.574 . S
C232 C248 1.368 . S
H233 C241 0.950 . S
H234 C239 0.950 . S
H235 C240 0.949 . S
H236 C242 0.950 . S
H237 C243 0.950 . S
H238 C244 0.949 . S
C239 H234 0.950 . S
C239 C241 1.327 . S
C239 C245 1.429 . S
C240 C232 1.574 . S
C240 H235 0.949 . S
C240 C246 1.368 . S
C241 C225 1.349 . S
C241 H233 0.950 . S
C241 C239 1.327 . S
C242 C230 1.349 . S
C242 H236 0.950 . S
C242 C243 1.327 . S
C243 H237 0.950 . S
C243 C242 1.327 . S
C243 C247 1.429 . S
C244 C227 1.574 . S
C244 H238 0.949 . S
C244 C248 1.368 . S
C245 C226 1.429 . S
C245 C239 1.429 . S
C245 C246 1.523 . S
C246 C227 1.368 . S
C246 C240 1.368 . S
C246 C245 1.523 . S
C247 C231 1.429 . S
C247 C243 1.429 . S
C247 C248 1.523 . S
C248 C232 1.368 . S
C248 C244 1.368 . S
C248 C247 1.523 . S
H249 C224 0.950 . S
H250 C226 0.950 . S
H251 C227 0.949 . S
H252 C229 0.950 . S
H253 C231 0.950 . S
C254 C255 1.349 . S
C254 C256 1.327 . S
C254 H279 0.950 . S
C255 C254 1.349 . S
C255 C271 1.349 . S
C256 C254 1.327 . S
C256 C275 1.429 . S
C256 H280 0.950 . S
C257 C274 1.574 . S
C257 C276 1.368 1_455 S
C257 H281 0.949 . S
H258 C262 0.946 . S
C259 C260 1.349 . S
C259 C261 1.327 . S
C259 H282 0.950 . S
C260 C259 1.349 . S
C260 C272 1.349 . S
C261 C259 1.327 . S
C261 C277 1.429 . S
C261 H283 0.950 . S
C262 H258 0.946 . S
C262 C270 1.570 . S
C262 C278 1.373 1_655 S
H263 C271 0.950 . S
H264 C269 0.950 . S
H265 C270 0.949 . S
H266 C272 0.950 . S
H267 C273 0.950 . S
H268 C274 0.949 . S
C269 H264 0.950 . S
C269 C271 1.327 . S
C269 C275 1.429 . S
C270 C262 1.570 . S
C270 H265 0.949 . S
C270 C276 1.368 . S
C271 C255 1.349 . S
C271 H263 0.950 . S
C271 C269 1.327 . S
C272 C260 1.349 . S
C272 H266 0.950 . S
C272 C273 1.327 . S
C273 H267 0.950 . S
C273 C272 1.327 . S
C273 C277 1.429 . S
C274 C257 1.574 . S
C274 H268 0.949 . S
C274 C278 1.368 . S
C275 C256 1.429 . S
C275 C269 1.429 . S
C275 C276 1.523 . S
C276 C257 1.368 1_655 S
C276 C270 1.368 . S
C276 C275 1.523 . S
C277 C261 1.429 . S
C277 C273 1.429 . S
C277 C278 1.523 . S
C278 C262 1.373 1_455 S
C278 C274 1.368 . S
C278 C277 1.523 . S
H279 C254 0.950 . S
H280 C256 0.950 . S
H281 C257 0.949 . S
H282 C259 0.950 . S
H283 C261 0.950 . S
C284 C285 1.349 . S
C284 C286 1.327 . S
C284 H309 0.950 . S
C285 C284 1.349 . S
C285 C301 1.349 . S
C286 C284 1.327 . S
C286 C305 1.429 . S
C286 H310 0.950 . S
C287 C304 1.574 . S
C287 C306 1.368 . S
C287 H311 0.949 . S
H288 C292 0.949 . S
C289 C290 1.349 . S
C289 C291 1.327 . S
C289 H312 0.950 . S
C290 C289 1.349 . S
C290 C302 1.349 . S
C291 C289 1.327 . S
C291 C307 1.429 . S
C291 H313 0.950 . S
C292 H288 0.949 . S
C292 C300 1.574 . S
C292 C308 1.368 . S
H293 C301 0.950 . S
H294 C299 0.950 . S
H295 C300 0.949 . S
H296 C302 0.950 . S
H297 C303 0.950 . S
H298 C304 0.949 . S
C299 H294 0.950 . S
C299 C301 1.327 . S
C299 C305 1.429 . S
C300 C292 1.574 . S
C300 H295 0.949 . S
C300 C306 1.368 . S
C301 C285 1.349 . S
C301 H293 0.950 . S
C301 C299 1.327 . S
C302 C290 1.349 . S
C302 H296 0.950 . S
C302 C303 1.327 . S
C303 H297 0.950 . S
C303 C302 1.327 . S
C303 C307 1.429 . S
C304 C287 1.574 . S
C304 H298 0.949 . S
C304 C308 1.368 . S
C305 C286 1.429 . S
C305 C299 1.429 . S
C305 C306 1.523 . S
C306 C287 1.368 . S
C306 C300 1.368 . S
C306 C305 1.523 . S
C307 C291 1.429 . S
C307 C303 1.429 . S
C307 C308 1.523 . S
C308 C292 1.368 . S
C308 C304 1.368 . S
C308 C307 1.523 . S
H309 C284 0.950 . S
H310 C286 0.950 . S
H311 C287 0.949 . S
H312 C289 0.950 . S
H313 C291 0.950 . S
C314 C315 1.349 . S
C314 C316 1.327 . S
C314 H339 0.950 . S
C315 C314 1.349 . S
C315 C331 1.349 . S
C316 C314 1.327 . S
C316 C335 1.429 . S
C316 H340 0.950 . S
C317 C334 1.574 . S
C317 C336 1.368 . S
C317 H341 0.969 . S
H318 C322 0.949 . S
C319 C320 1.349 1_565 S
C319 C321 1.320 1_565 S
C319 H342 0.950 . S
C320 C319 1.349 1_545 S
C320 C332 1.349 . S
C321 C319 1.320 1_545 S
C321 C337 1.467 . S
C321 H343 0.919 1_545 S
C322 H318 0.949 . S
C322 C330 1.574 . S
C322 C338 1.368 . S
H323 C331 0.950 . S
H324 C329 0.950 . S
H325 C330 0.949 . S
H326 C332 0.950 . S
H327 C333 0.950 1_554 S
H328 C334 0.949 1_565 S
C329 H324 0.950 . S
C329 C331 1.327 . S
C329 C335 1.429 . S
C330 C322 1.574 . S
C330 H325 0.949 . S
C330 C336 1.368 . S
C331 C315 1.349 . S
C331 H323 0.950 . S
C331 C329 1.327 . S
C332 C320 1.349 . S
C332 H326 0.950 . S
C332 C333 1.327 . S
C333 H327 0.950 1_556 S
C333 C332 1.327 . S
C333 C337 1.429 . S
C334 C317 1.574 . S
C334 H328 0.949 1_545 S
C334 C338 1.368 . S
C335 C316 1.429 . S
C335 C329 1.429 . S
C335 C336 1.523 . S
C336 C317 1.368 . S
C336 C330 1.368 . S
C336 C335 1.523 . S
C337 C321 1.467 . S
C337 C333 1.429 . S
C337 C338 1.523 1_556 S
C338 C322 1.368 . S
C338 C334 1.368 . S
C338 C337 1.523 1_554 S
H339 C314 0.950 . S
H340 C316 0.950 . S
H341 C317 0.969 . S
H342 C319 0.950 . S
H343 C321 0.919 1_565 S
C344 C345 1.349 . S
C344 C346 1.327 . S
C344 H369 0.950 . S
C345 C344 1.349 . S
C345 C361 1.349 . S
C346 C344 1.327 . S
C346 C365 1.429 . S
C346 H370 0.950 . S
C347 C364 1.574 . S
C347 C366 1.368 . S
C347 H371 0.949 . S
H348 C352 0.949 . S
C349 C350 1.349 . S
C349 C351 1.327 . S
C349 H372 0.950 . S
C350 C349 1.349 . S
C350 C362 1.349 . S
C351 C349 1.327 . S
C351 C367 1.429 . S
C351 H373 0.950 . S
C352 H348 0.949 . S
C352 C360 1.574 . S
C352 C368 1.368 . S
H353 C361 0.950 . S
H354 C359 0.950 . S
H355 C360 0.949 . S
H356 C362 0.950 . S
H357 C363 0.950 . S
H358 C364 0.949 . S
C359 H354 0.950 . S
C359 C361 1.327 . S
C359 C365 1.429 . S
C360 C352 1.574 . S
C360 H355 0.949 . S
C360 C366 1.368 . S
C361 C345 1.349 . S
C361 H353 0.950 . S
C361 C359 1.327 . S
C362 C350 1.349 . S
C362 H356 0.950 . S
C362 C363 1.327 . S
C363 H357 0.950 . S
C363 C362 1.327 . S
C363 C367 1.429 . S
C364 C347 1.574 . S
C364 H358 0.949 . S
C364 C368 1.368 . S
C365 C346 1.429 . S
C365 C359 1.429 . S
C365 C366 1.523 . S
C366 C347 1.368 . S
C366 C360 1.368 . S
C366 C365 1.523 . S
C367 C351 1.429 . S
C367 C363 1.429 . S
C367 C368 1.523 . S
C368 C352 1.368 . S
C368 C364 1.368 . S
C368 C367 1.523 . S
H369 C344 0.950 . S
H370 C346 0.950 . S
H371 C347 0.949 . S
H372 C349 0.950 . S
H373 C351 0.950 . S
C374 C375 1.349 . S
C374 C376 1.327 . S
C374 H399 0.950 . S
C375 C374 1.349 . S
C375 C391 1.349 . S
C376 C374 1.327 . S
C376 C395 1.429 . S
C376 H400 0.950 . S
C377 C394 1.574 . S
C377 C396 1.368 . S
C377 H401 0.949 1_545 S
H378 C382 0.949 . S
C379 C380 1.349 . S
C379 C381 1.327 . S
C379 H402 0.950 . S
C380 C379 1.349 . S
C380 C392 1.349 . S
C381 C379 1.327 . S
C381 C397 1.429 . S
C381 H403 0.957 . S
C382 H378 0.949 . S
C382 C390 1.574 . S
C382 C398 1.368 . S
H383 C391 0.950 1_565 S
H384 C389 0.950 1_565 S
H385 C390 0.949 . S
H386 C392 0.950 . S
H387 C393 0.950 . S
H388 C394 0.949 1_565 S
C389 H384 0.950 1_545 S
C389 C391 1.327 . S
C389 C395 1.429 . S
C390 C382 1.574 . S
C390 H385 0.949 . S
C390 C396 1.368 . S
C391 C375 1.349 . S
C391 H383 0.950 1_545 S
C391 C389 1.327 . S
C392 C380 1.349 . S
C392 H386 0.950 . S
C392 C393 1.327 . S
C393 H387 0.950 . S
C393 C392 1.327 . S
C393 C397 1.429 . S
C394 C377 1.574 . S
C394 H388 0.949 1_545 S
C394 C398 1.368 . S
C395 C376 1.429 . S
C395 C389 1.429 . S
C395 C396 1.523 . S
C396 C377 1.368 . S
C396 C390 1.368 . S
C396 C395 1.523 . S
C397 C381 1.429 . S
C397 C393 1.429 . S
C397 C398 1.523 . S
C398 C382 1.368 . S
C398 C394 1.368 . S
C398 C397 1.523 . S
H399 C374 0.950 . S
H400 C376 0.950 . S
H401 C377 0.949 1_565 S
H402 C379 0.950 . S
H403 C381 0.957 . S
C404 C405 1.349 . S
C404 C406 1.327 . S
C404 H429 0.950 . S
C405 C404 1.349 . S
C405 C421 1.349 . S
C406 C404 1.327 . S
C406 C425 1.429 . S
C406 H430 0.950 . S
C407 C424 1.574 . S
C407 C426 1.368 . S
C407 H431 0.949 . S
H408 C412 0.949 . S
C409 C410 1.349 . S
C409 C411 1.327 . S
C409 H432 0.950 1_556 S
C410 C409 1.349 . S
C410 C422 1.349 . S
C411 C409 1.327 . S
C411 C427 1.429 . S
C411 H433 0.950 . S
C412 H408 0.949 . S
C412 C420 1.574 . S
C412 C428 1.368 . S
H413 C421 0.950 . S
H414 C419 0.950 . S
H415 C420 0.949 . S
H416 C422 0.950 . S
H417 C423 0.950 . S
H418 C424 0.949 . S
C419 H414 0.950 . S
C419 C421 1.327 . S
C419 C425 1.429 . S
C420 C412 1.574 . S
C420 H415 0.949 . S
C420 C426 1.368 . S
C421 C405 1.349 . S
C421 H413 0.950 . S
C421 C419 1.327 . S
C422 C410 1.349 . S
C422 H416 0.950 . S
C422 C423 1.327 . S
C423 H417 0.950 . S
C423 C422 1.327 . S
C423 C427 1.429 . S
C424 C407 1.574 . S
C424 H418 0.949 . S
C424 C428 1.368 . S
C425 C406 1.429 . S
C425 C419 1.429 . S
C425 C426 1.523 . S
C426 C407 1.368 . S
C426 C420 1.368 . S
C426 C425 1.523 . S
C427 C411 1.429 . S
C427 C423 1.429 . S
C427 C428 1.523 . S
C428 C412 1.368 . S
C428 C424 1.368 . S
C428 C427 1.523 . S
H429 C404 0.950 . S
H430 C406 0.950 . S
H431 C407 0.949 . S
H432 C409 0.950 1_554 S
H433 C411 0.950 . S
C434 C435 1.349 . S
C434 C436 1.327 . S
C434 H459 0.950 . S
C435 C434 1.349 . S
C435 C451 1.349 . S
C436 C434 1.327 . S
C436 C455 1.429 . S
C436 H460 0.950 . S
C437 C454 1.574 . S
C437 C456 1.368 . S
C437 H461 0.949 . S
H438 C442 0.949 . S
C439 C440 1.349 . S
C439 C441 1.327 . S
C439 H462 0.950 . S
C440 C439 1.349 . S
C440 C452 1.349 . S
C441 C439 1.327 . S
C441 C457 1.429 . S
C441 H463 0.950 . S
C442 H438 0.949 . S
C442 C450 1.574 1_655 S
C442 C458 1.368 . S
H443 C451 0.950 . S
H444 C449 0.950 . S
H445 C450 0.949 1_556 S
H446 C452 0.950 . S
H447 C453 0.950 . S
H448 C454 0.949 . S
C449 H444 0.950 . S
C449 C451 1.327 . S
C449 C455 1.429 . S
C450 C442 1.574 1_455 S
C450 H445 0.949 1_554 S
C450 C456 1.368 . S
C451 C435 1.349 . S
C451 H443 0.950 . S
C451 C449 1.327 . S
C452 C440 1.349 . S
C452 H446 0.950 . S
C452 C453 1.327 . S
C453 H447 0.950 . S
C453 C452 1.327 . S
C453 C457 1.429 . S
C454 C437 1.574 . S
C454 H448 0.949 . S
C454 C458 1.368 1_455 S
C455 C436 1.429 . S
C455 C449 1.429 . S
C455 C456 1.523 1_556 S
C456 C437 1.368 . S
C456 C450 1.368 . S
C456 C455 1.523 1_554 S
C457 C441 1.429 . S
C457 C453 1.429 . S
C457 C458 1.523 . S
C458 C442 1.368 . S
C458 C454 1.368 1_655 S
C458 C457 1.523 . S
H459 C434 0.950 . S
H460 C436 0.950 . S
H461 C437 0.949 . S
H462 C439 0.950 . S
H463 C441 0.950 . S
C464 C465 1.349 . S
C464 C466 1.327 . S
C464 H489 0.950 . S
C465 C464 1.349 . S
C465 C481 1.349 . S
C466 C464 1.327 . S
C466 C485 1.429 . S
C466 H490 0.950 . S
C467 C484 1.574 . S
C467 C486 1.368 . S
C467 H491 0.949 . S
H468 C472 0.949 . S
C469 C470 1.349 . S
C469 C471 1.327 . S
C469 H492 0.950 . S
C470 C469 1.349 . S
C470 C482 1.349 . S
C471 C469 1.327 . S
C471 C487 1.429 . S
C471 H493 0.950 . S
C472 H468 0.949 . S
C472 C480 1.574 . S
C472 C488 1.368 . S
H473 C481 0.950 . S
H474 C479 0.950 . S
H475 C480 0.949 . S
H476 C482 0.950 . S
H477 C483 0.950 . S
H478 C484 0.949 . S
C479 H474 0.950 . S
C479 C481 1.327 . S
C479 C485 1.429 . S
C480 C472 1.574 . S
C480 H475 0.949 . S
C480 C486 1.368 . S
C481 C465 1.349 . S
C481 H473 0.950 . S
C481 C479 1.327 . S
C482 C470 1.349 . S
C482 H476 0.950 . S
C482 C483 1.327 . S
C483 H477 0.950 . S
C483 C482 1.327 . S
C483 C487 1.429 . S
C484 C467 1.574 . S
C484 H478 0.949 . S
C484 C488 1.368 . S
C485 C466 1.429 . S
C485 C479 1.429 . S
C485 C486 1.523 . S
C486 C467 1.368 . S
C486 C480 1.368 . S
C486 C485 1.523 . S
C487 C471 1.429 . S
C487 C483 1.429 . S
C487 C488 1.523 . S
C488 C472 1.368 . S
C488 C484 1.368 . S
C488 C487 1.523 . S
H489 C464 0.950 . S
H490 C466 0.950 . S
H491 C467 0.949 . S
H492 C469 0.950 . S
H493 C471 0.950 . S
C494 C495 1.349 . S
C494 C496 1.327 . S
C494 H519 0.950 . S
C495 C494 1.349 . S
C495 C511 1.349 . S
C496 C494 1.327 . S
C496 C515 1.429 . S
C496 H520 0.950 . S
C497 C514 1.574 . S
C497 C516 1.368 . S
C497 H521 0.949 . S
H498 C502 0.949 . S
C499 C500 1.349 . S
C499 C501 1.327 . S
C499 H522 0.950 . S
C500 C499 1.349 . S
C500 C512 1.349 . S
C501 C499 1.327 . S
C501 C517 1.429 . S
C501 H523 0.950 . S
C502 H498 0.949 . S
C502 C510 1.574 . S
C502 C518 1.368 . S
H503 C511 0.950 . S
H504 C509 0.950 . S
H505 C510 0.949 . S
H506 C512 0.950 . S
H507 C513 0.950 . S
H508 C514 0.949 . S
C509 H504 0.950 . S
C509 C511 1.327 . S
C509 C515 1.429 . S
C510 C502 1.574 . S
C510 H505 0.949 . S
C510 C516 1.368 . S
C511 C495 1.349 . S
C511 H503 0.950 . S
C511 C509 1.327 . S
C512 C500 1.349 . S
C512 H506 0.950 . S
C512 C513 1.327 . S
C513 H507 0.950 . S
C513 C512 1.327 . S
C513 C517 1.429 . S
C514 C497 1.574 . S
C514 H508 0.949 . S
C514 C518 1.368 . S
C515 C496 1.429 . S
C515 C509 1.429 . S
C515 C516 1.523 . S
C516 C497 1.368 . S
C516 C510 1.368 . S
C516 C515 1.523 . S
C517 C501 1.429 . S
C517 C513 1.429 . S
C517 C518 1.523 . S
C518 C502 1.368 . S
C518 C514 1.368 . S
C518 C517 1.523 . S
H519 C494 0.950 . S
H520 C496 0.950 . S
H521 C497 0.949 . S
H522 C499 0.950 . S
H523 C501 0.950 . S
C524 C525 1.349 . S
C524 C526 1.327 . S
C524 H549 0.950 . S
C525 C524 1.349 . S
C525 C541 1.349 . S
C526 C524 1.327 . S
C526 C545 1.429 . S
C526 H550 0.950 . S
C527 C544 1.574 . S
C527 C546 1.368 . S
C527 H551 0.949 . S
H528 C532 0.949 . S
C529 C530 1.349 . S
C529 C531 1.327 . S
C529 H552 0.950 . S
C530 C529 1.349 . S
C530 C542 1.349 . S
C531 C529 1.327 . S
C531 C547 1.429 . S
C531 H553 0.950 . S
C532 H528 0.949 . S
C532 C540 1.574 . S
C532 C548 1.368 . S
H533 C541 0.950 . S
H534 C539 0.950 . S
H535 C540 0.949 . S
H536 C542 0.950 . S
H537 C543 0.950 . S
H538 C544 0.949 . S
C539 H534 0.950 . S
C539 C541 1.327 . S
C539 C545 1.429 . S
C540 C532 1.574 . S
C540 H535 0.949 . S
C540 C546 1.368 . S
C541 C525 1.349 . S
C541 H533 0.950 . S
C541 C539 1.327 . S
C542 C530 1.349 . S
C542 H536 0.950 . S
C542 C543 1.327 . S
C543 H537 0.950 . S
C543 C542 1.327 . S
C543 C547 1.429 . S
C544 C527 1.574 . S
C544 H538 0.949 . S
C544 C548 1.368 . S
C545 C526 1.429 . S
C545 C539 1.429 . S
C545 C546 1.523 . S
C546 C527 1.368 . S
C546 C540 1.368 . S
C546 C545 1.523 . S
C547 C531 1.429 . S
C547 C543 1.429 . S
C547 C548 1.523 . S
C548 C532 1.368 . S
C548 C544 1.368 . S
C548 C547 1.523 . S
H549 C524 0.950 . S
H550 C526 0.950 . S
H551 C527 0.949 . S
H552 C529 0.950 . S
H553 C531 0.950 . S
C554 C555 1.349 . S
C554 C556 1.327 . S
C554 H579 0.950 . S
C555 C554 1.349 . S
C555 C571 1.349 . S
C556 C554 1.327 . S
C556 C575 1.429 . S
C556 H580 0.950 . S
C557 C574 1.574 . S
C557 C576 1.368 . S
C557 H581 0.949 . S
H558 C562 0.949 . S
C559 C560 1.349 . S
C559 C561 1.327 . S
C559 H582 0.950 . S
C560 C559 1.349 . S
C560 C572 1.349 . S
C561 C559 1.327 . S
C561 C577 1.429 . S
C561 H583 0.950 . S
C562 H558 0.949 . S
C562 C570 1.574 . S
C562 C578 1.368 . S
H563 C571 0.950 . S
H564 C569 0.950 . S
H565 C570 0.949 . S
H566 C572 0.950 . S
H567 C573 0.950 . S
H568 C574 0.949 . S
C569 H564 0.950 . S
C569 C571 1.327 . S
C569 C575 1.429 . S
C570 C562 1.574 . S
C570 H565 0.949 . S
C570 C576 1.368 . S
C571 C555 1.349 . S
C571 H563 0.950 . S
C571 C569 1.327 . S
C572 C560 1.349 . S
C572 H566 0.950 . S
C572 C573 1.327 . S
C573 H567 0.950 . S
C573 C572 1.327 . S
C573 C577 1.429 . S
C574 C557 1.574 . S
C574 H568 0.949 . S
C574 C578 1.368 . S
C575 C556 1.429 . S
C575 C569 1.429 . S
C575 C576 1.523 . S
C576 C557 1.368 . S
C576 C570 1.368 . S
C576 C575 1.523 . S
C577 C561 1.429 . S
C577 C573 1.429 . S
C577 C578 1.523 . S
C578 C562 1.368 . S
C578 C574 1.368 . S
C578 C577 1.523 . S
H579 C554 0.950 . S
H580 C556 0.950 . S
H581 C557 0.949 . S
H582 C559 0.950 . S
H583 C561 0.950 . S
C584 C585 1.349 . S
C584 C586 1.327 . S
C584 H609 0.950 . S
C585 C584 1.349 . S
C585 C601 1.349 . S
C586 C584 1.327 . S
C586 C605 1.429 . S
C586 H610 0.950 . S
C587 C604 1.574 . S
C587 C606 1.368 . S
C587 H611 0.949 . S
H588 C592 0.949 . S
C589 C590 1.349 . S
C589 C591 1.327 . S
C589 H612 0.950 . S
C590 C589 1.349 . S
C590 C602 1.349 . S
C591 C589 1.327 . S
C591 C607 1.429 . S
C591 H613 0.950 . S
C592 H588 0.949 . S
C592 C600 1.574 . S
C592 C608 1.368 . S
H593 C601 0.950 . S
H594 C599 0.950 . S
H595 C600 0.949 . S
H596 C602 0.950 . S
H597 C603 0.950 . S
H598 C604 0.949 . S
C599 H594 0.950 . S
C599 C601 1.327 . S
C599 C605 1.429 . S
C600 C592 1.574 . S
C600 H595 0.949 . S
C600 C606 1.368 . S
C601 C585 1.349 . S
C601 H593 0.950 . S
C601 C599 1.327 . S
C602 C590 1.349 . S
C602 H596 0.950 . S
C602 C603 1.327 . S
C603 H597 0.950 . S
C603 C602 1.327 . S
C603 C607 1.429 . S
C604 C587 1.574 . S
C604 H598 0.949 . S
C604 C608 1.368 . S
C605 C586 1.429 . S
C605 C599 1.429 . S
C605 C606 1.523 . S
C606 C587 1.368 . S
C606 C600 1.368 . S
C606 C605 1.523 . S
C607 C591 1.429 . S
C607 C603 1.429 . S
C607 C608 1.523 1_556 S
C608 C592 1.368 . S
C608 C604 1.368 . S
C608 C607 1.523 1_554 S
H609 C584 0.950 . S
H610 C586 0.950 . S
H611 C587 0.949 . S
H612 C589 0.950 . S
H613 C591 0.950 . S
C614 C615 1.349 . S
C614 C616 1.327 . S
C614 H639 0.950 . S
C615 C614 1.349 . S
C615 C631 1.349 . S
C616 C614 1.327 . S
C616 C635 1.429 . S
C616 H640 0.950 . S
C617 C634 1.574 1_455 S
C617 C636 1.368 . S
C617 H641 0.949 . S
H618 C622 0.949 . S
C619 C620 1.349 . S
C619 C621 1.327 . S
C619 H642 0.950 . S
C620 C619 1.349 . S
C620 C632 1.349 . S
C621 C619 1.327 . S
C621 C637 1.429 . S
C621 H643 0.950 . S
C622 H618 0.949 . S
C622 C630 1.574 . S
C622 C638 1.368 . S
H623 C631 0.950 . S
H624 C629 0.950 . S
H625 C630 0.949 . S
H626 C632 0.950 . S
H627 C633 0.950 . S
H628 C634 0.949 . S
C629 H624 0.950 . S
C629 C631 1.327 . S
C629 C635 1.429 . S
C630 C622 1.574 . S
C630 H625 0.949 . S
C630 C636 1.368 1_655 S
C631 C615 1.349 . S
C631 H623 0.950 . S
C631 C629 1.327 . S
C632 C620 1.349 . S
C632 H626 0.950 . S
C632 C633 1.327 . S
C633 H627 0.950 . S
C633 C632 1.327 . S
C633 C637 1.429 . S
C634 C617 1.574 1_655 S
C634 H628 0.949 . S
C634 C638 1.368 . S
C635 C616 1.429 . S
C635 C629 1.429 . S
C635 C636 1.523 . S
C636 C617 1.368 . S
C636 C630 1.368 1_455 S
C636 C635 1.523 . S
C637 C621 1.429 . S
C637 C633 1.429 . S
C637 C638 1.523 . S
C638 C622 1.368 . S
C638 C634 1.368 . S
C638 C637 1.523 . S
H639 C614 0.950 . S
H640 C616 0.950 . S
H641 C617 0.949 . S
H642 C619 0.950 . S
H643 C621 0.950 . S
C644 C645 1.349 . S
C644 C646 1.327 . S
C644 H669 0.950 . S
C645 C644 1.349 . S
C645 C661 1.349 . S
C646 C644 1.327 . S
C646 C665 1.429 . S
C646 H670 0.950 . S
C647 C664 1.574 . S
C647 C666 1.368 1_655 S
C647 H671 0.949 . S
H648 C652 0.949 . S
C649 C650 1.349 . S
C649 C651 1.327 . S
C649 H672 0.950 . S
C650 C649 1.349 . S
C650 C662 1.349 . S
C651 C649 1.327 . S
C651 C667 1.428 1_556 S
C651 H673 0.950 1_556 S
C652 H648 0.949 . S
C652 C660 1.534 1_655 S
C652 C668 1.407 . S
H653 C661 0.950 . S
H654 C659 0.950 . S
H655 C660 0.949 . S
H656 C662 0.950 . S
H657 C663 0.950 . S
H658 C664 0.949 . S
C659 H654 0.950 . S
C659 C661 1.327 . S
C659 C665 1.429 . S
C660 C652 1.534 1_455 S
C660 H655 0.949 . S
C660 C666 1.368 . S
C661 C645 1.349 . S
C661 H653 0.950 . S
C661 C659 1.327 . S
C662 C650 1.349 . S
C662 H656 0.950 . S
C662 C663 1.327 . S
C663 H657 0.950 . S
C663 C662 1.327 . S
C663 C667 1.420 1_556 S
C664 C647 1.574 . S
C664 H658 0.949 . S
C664 C668 1.368 . S
C665 C646 1.429 . S
C665 C659 1.429 . S
C665 C666 1.523 . S
C666 C647 1.368 1_455 S
C666 C660 1.368 . S
C666 C665 1.523 . S
C667 C651 1.428 1_554 S
C667 C663 1.420 1_554 S
C667 C668 1.532 . S
C668 C652 1.407 . S
C668 C664 1.368 . S
C668 C667 1.532 . S
H669 C644 0.950 . S
H670 C646 0.950 . S
H671 C647 0.949 . S
H672 C649 0.950 . S
H673 C651 0.950 1_554 S
C674 C675 1.349 . S
C674 C676 1.327 . S
C674 H699 0.950 . S
C675 C674 1.349 . S
C675 C691 1.349 . S
C676 C674 1.327 . S
C676 C695 1.429 . S
C676 H700 0.950 . S
C677 C694 1.574 . S
C677 C696 1.368 . S
C677 H701 0.949 . S
H678 C682 0.949 . S
C679 C680 1.349 . S
C679 C681 1.327 . S
C679 H702 0.950 . S
C680 C679 1.349 . S
C680 C692 1.349 . S
C681 C679 1.327 . S
C681 C697 1.429 . S
C681 H703 0.950 . S
C682 H678 0.949 . S
C682 C690 1.574 . S
C682 C698 1.368 . S
H683 C691 0.950 . S
H684 C689 0.950 . S
H685 C690 0.949 . S
H686 C692 0.950 . S
H687 C693 0.950 . S
H688 C694 0.949 . S
C689 H684 0.950 . S
C689 C691 1.327 . S
C689 C695 1.429 . S
C690 C682 1.574 . S
C690 H685 0.949 . S
C690 C696 1.368 . S
C691 C675 1.349 . S
C691 H683 0.950 . S
C691 C689 1.327 . S
C692 C680 1.349 . S
C692 H686 0.950 . S
C692 C693 1.327 . S
C693 H687 0.950 . S
C693 C692 1.327 . S
C693 C697 1.429 . S
C694 C677 1.574 . S
C694 H688 0.949 . S
C694 C698 1.368 . S
C695 C676 1.429 . S
C695 C689 1.429 . S
C695 C696 1.523 . S
C696 C677 1.368 . S
C696 C690 1.368 . S
C696 C695 1.523 . S
C697 C681 1.429 . S
C697 C693 1.429 . S
C697 C698 1.523 . S
C698 C682 1.368 . S
C698 C694 1.368 . S
C698 C697 1.523 . S
H699 C674 0.950 . S
H700 C676 0.950 . S
H701 C677 0.949 . S
H702 C679 0.950 . S
H703 C681 0.950 . S
C704 C705 1.349 . S
C704 C706 1.327 . S
C704 H729 0.950 . S
C705 C704 1.349 . S
C705 C721 1.349 . S
C706 C704 1.327 . S
C706 C725 1.429 . S
C706 H730 0.950 . S
C707 C724 1.574 . S
C707 C726 1.368 . S
C707 H731 0.949 . S
H708 C712 0.949 . S
C709 C710 1.349 . S
C709 C711 1.327 . S
C709 H732 0.950 . S
C710 C709 1.349 . S
C710 C722 1.349 . S
C711 C709 1.327 . S
C711 C727 1.429 . S
C711 H733 0.950 . S
C712 H708 0.949 . S
C712 C720 1.574 . S
C712 C728 1.368 . S
H713 C721 0.950 . S
H714 C719 0.950 . S
H715 C720 0.949 . S
H716 C722 0.950 . S
H717 C723 0.950 . S
H718 C724 0.949 . S
C719 H714 0.950 . S
C719 C721 1.327 . S
C719 C725 1.429 . S
C720 C712 1.574 . S
C720 H715 0.949 . S
C720 C726 1.368 . S
C721 C705 1.349 . S
C721 H713 0.950 . S
C721 C719 1.327 . S
C722 C710 1.349 . S
C722 H716 0.950 . S
C722 C723 1.327 . S
C723 H717 0.950 . S
C723 C722 1.327 . S
C723 C727 1.429 . S
C724 C707 1.574 . S
C724 H718 0.949 . S
C724 C728 1.368 . S
C725 C706 1.429 . S
C725 C719 1.429 . S
C725 C726 1.523 . S
C726 C707 1.368 . S
C726 C720 1.368 . S
C726 C725 1.523 . S
C727 C711 1.429 . S
C727 C723 1.429 . S
C727 C728 1.523 . S
C728 C712 1.368 . S
C728 C724 1.368 . S
C728 C727 1.523 . S
H729 C704 0.950 . S
H730 C706 0.950 . S
H731 C707 0.949 . S
H732 C709 0.950 . S
H733 C711 0.950 . S
C734 C735 1.349 . S
C734 C736 1.327 . S
C734 H759 0.950 . S
C735 C734 1.349 . S
C735 C751 1.349 . S
C736 C734 1.327 . S
C736 C755 1.429 . S
C736 H760 0.950 . S
C737 C754 1.574 . S
C737 C756 1.368 . S
C737 H761 0.949 . S
H738 C742 0.949 . S
C739 C740 1.349 . S
C739 C741 1.327 . S
C739 H762 0.950 . S
C740 C739 1.349 . S
C740 C752 1.349 . S
C741 C739 1.327 . S
C741 C757 1.429 . S
C741 H763 0.950 . S
C742 H738 0.949 . S
C742 C750 1.574 . S
C742 C758 1.368 . S
H743 C751 0.950 . S
H744 C749 0.950 . S
H745 C750 0.949 . S
H746 C752 0.950 1_545 S
H747 C753 0.950 . S
H748 C754 0.949 . S
C749 H744 0.950 . S
C749 C751 1.327 . S
C749 C755 1.429 . S
C750 C742 1.574 . S
C750 H745 0.949 . S
C750 C756 1.368 . S
C751 C735 1.349 . S
C751 H743 0.950 . S
C751 C749 1.327 . S
C752 C740 1.349 . S
C752 H746 0.950 1_565 S
C752 C753 1.327 . S
C753 H747 0.950 . S
C753 C752 1.327 . S
C753 C757 1.429 . S
C754 C737 1.574 . S
C754 H748 0.949 . S
C754 C758 1.368 . S
C755 C736 1.429 . S
C755 C749 1.429 . S
C755 C756 1.523 . S
C756 C737 1.368 . S
C756 C750 1.368 . S
C756 C755 1.523 . S
C757 C741 1.429 . S
C757 C753 1.429 . S
C757 C758 1.523 . S
C758 C742 1.368 . S
C758 C754 1.368 . S
C758 C757 1.523 . S
H759 C734 0.950 . S
H760 C736 0.950 . S
H761 C737 0.949 . S
H762 C739 0.950 . S
H763 C741 0.950 . S
C764 C765 1.349 . S
C764 C766 1.327 . S
C764 H789 0.950 . S
C765 C764 1.349 . S
C765 C781 1.349 . S
C766 C764 1.327 . S
C766 C785 1.429 . S
C766 H790 0.950 . S
C767 C784 1.574 . S
C767 C786 1.368 . S
C767 H791 0.949 . S
H768 C772 0.949 . S
C769 C770 1.349 . S
C769 C771 1.327 . S
C769 H792 0.950 . S
C770 C769 1.349 . S
C770 C782 1.349 . S
C771 C769 1.327 . S
C771 C787 1.429 . S
C771 H793 0.950 . S
C772 H768 0.949 . S
C772 C780 1.574 . S
C772 C788 1.368 . S
H773 C781 0.950 . S
H774 C779 0.950 . S
H775 C780 0.949 . S
H776 C782 0.950 . S
H777 C783 0.950 . S
H778 C784 0.949 . S
C779 H774 0.950 . S
C779 C781 1.327 . S
C779 C785 1.429 . S
C780 C772 1.574 . S
C780 H775 0.949 . S
C780 C786 1.368 . S
C781 C765 1.349 . S
C781 H773 0.950 . S
C781 C779 1.327 . S
C782 C770 1.349 . S
C782 H776 0.950 . S
C782 C783 1.327 . S
C783 H777 0.950 . S
C783 C782 1.327 . S
C783 C787 1.429 . S
C784 C767 1.574 . S
C784 H778 0.949 . S
C784 C788 1.368 . S
C785 C766 1.429 . S
C785 C779 1.429 . S
C785 C786 1.523 . S
C786 C767 1.368 . S
C786 C780 1.368 . S
C786 C785 1.523 . S
C787 C771 1.429 . S
C787 C783 1.429 . S
C787 C788 1.523 . S
C788 C772 1.368 . S
C788 C784 1.368 . S
C788 C787 1.523 . S
H789 C764 0.950 . S
H790 C766 0.950 . S
H791 C767 0.949 . S
H792 C769 0.950 . S
H793 C771 0.950 . S
C794 C795 1.349 . S
C794 C796 1.327 . S
C794 H819 0.950 . S
C795 C794 1.349 . S
C795 C811 1.349 1_554 S
C796 C794 1.327 . S
C796 C815 1.429 1_554 S
C796 H820 0.950 . S
C797 C814 1.574 . S
C797 C816 1.368 . S
C797 H821 0.949 . S
H798 C802 0.949 . S
C799 C800 1.349 . S
C799 C801 1.327 . S
C799 H822 0.950 . S
C800 C799 1.349 . S
C800 C812 1.349 . S
C801 C799 1.327 . S
C801 C817 1.429 . S
C801 H823 0.950 . S
C802 H798 0.949 . S
C802 C810 1.574 . S
C802 C818 1.368 . S
H803 C811 0.950 . S
H804 C809 0.950 . S
H805 C810 0.954 . S
H806 C812 0.950 . S
H807 C813 0.950 . S
H808 C814 0.949 . S
C809 H804 0.950 . S
C809 C811 1.327 . S
C809 C815 1.429 . S
C810 C802 1.574 . S
C810 H805 0.954 . S
C810 C816 1.368 . S
C811 C795 1.349 1_556 S
C811 H803 0.950 . S
C811 C809 1.327 . S
C812 C800 1.349 . S
C812 H806 0.950 . S
C812 C813 1.327 . S
C813 H807 0.950 . S
C813 C812 1.327 . S
C813 C817 1.429 . S
C814 C797 1.574 . S
C814 H808 0.949 . S
C814 C818 1.368 . S
C815 C796 1.429 1_556 S
C815 C809 1.429 . S
C815 C816 1.523 . S
C816 C797 1.368 . S
C816 C810 1.368 . S
C816 C815 1.523 . S
C817 C801 1.429 . S
C817 C813 1.429 . S
C817 C818 1.523 . S
C818 C802 1.368 . S
C818 C814 1.368 . S
C818 C817 1.523 . S
H819 C794 0.950 . S
H820 C796 0.950 . S
H821 C797 0.949 . S
H822 C799 0.950 . S
H823 C801 0.950 . S
C824 C825 1.349 . S
C824 C826 1.327 . S
C824 H849 0.950 . S
C825 C824 1.349 . S
C825 C841 1.349 . S
C826 C824 1.327 . S
C826 C845 1.429 . S
C826 H850 0.950 . S
C827 C844 1.574 . S
C827 C846 1.368 . S
C827 H851 0.949 . S
H828 C832 0.949 . S
C829 C830 1.349 . S
C829 C831 1.327 . S
C829 H852 0.950 . S
C830 C829 1.349 . S
C830 C842 1.349 . S
C831 C829 1.327 . S
C831 C847 1.429 . S
C831 H853 0.950 . S
C832 H828 0.949 . S
C832 C840 1.574 . S
C832 C848 1.368 . S
H833 C841 0.950 . S
H834 C839 0.950 . S
H835 C840 0.949 . S
H836 C842 0.950 . S
H837 C843 0.950 . S
H838 C844 0.949 . S
C839 H834 0.950 . S
C839 C841 1.327 . S
C839 C845 1.429 . S
C840 C832 1.574 . S
C840 H835 0.949 . S
C840 C846 1.368 . S
C841 C825 1.349 . S
C841 H833 0.950 . S
C841 C839 1.327 . S
C842 C830 1.349 . S
C842 H836 0.950 . S
C842 C843 1.327 . S
C843 H837 0.950 . S
C843 C842 1.327 . S
C843 C847 1.429 . S
C844 C827 1.574 . S
C844 H838 0.949 . S
C844 C848 1.368 . S
C845 C826 1.429 . S
C845 C839 1.429 . S
C845 C846 1.523 . S
C846 C827 1.368 . S
C846 C840 1.368 . S
C846 C845 1.523 . S
C847 C831 1.429 . S
C847 C843 1.429 . S
C847 C848 1.523 . S
C848 C832 1.368 . S
C848 C844 1.368 . S
C848 C847 1.523 . S
H849 C824 0.950 . S
H850 C826 0.950 . S
H851 C827 0.949 . S
H852 C829 0.950 . S
H853 C831 0.950 . S
C854 C855 1.349 . S
C854 C856 1.327 . S
C854 H879 0.950 . S
C855 C854 1.349 . S
C855 C871 1.349 . S
C856 C854 1.327 . S
C856 C875 1.429 . S
C856 H880 0.950 . S
C857 C874 1.574 . S
C857 C876 1.368 . S
C857 H881 0.949 . S
H858 C862 0.949 . S
C859 C860 1.349 . S
C859 C861 1.327 . S
C859 H882 0.950 . S
C860 C859 1.349 . S
C860 C872 1.349 . S
C861 C859 1.327 . S
C861 C877 1.429 . S
C861 H883 0.950 . S
C862 H858 0.949 . S
C862 C870 1.574 . S
C862 C878 1.368 . S
H863 C871 0.950 . S
H864 C869 0.950 . S
H865 C870 0.949 . S
H866 C872 0.950 . S
H867 C873 0.950 . S
H868 C874 0.949 . S
C869 H864 0.950 . S
C869 C871 1.327 . S
C869 C875 1.429 . S
C870 C862 1.574 . S
C870 H865 0.949 . S
C870 C876 1.368 . S
C871 C855 1.349 . S
C871 H863 0.950 . S
C871 C869 1.327 . S
C872 C860 1.349 . S
C872 H866 0.950 . S
C872 C873 1.327 . S
C873 H867 0.950 . S
C873 C872 1.327 . S
C873 C877 1.429 . S
C874 C857 1.574 . S
C874 H868 0.949 . S
C874 C878 1.368 . S
C875 C856 1.429 . S
C875 C869 1.429 . S
C875 C876 1.523 . S
C876 C857 1.368 . S
C876 C870 1.368 . S
C876 C875 1.523 . S
C877 C861 1.429 . S
C877 C873 1.429 . S
C877 C878 1.523 . S
C878 C862 1.368 . S
C878 C874 1.368 . S
C878 C877 1.523 . S
H879 C854 0.950 . S
H880 C856 0.950 . S
H881 C857 0.949 . S
H882 C859 0.950 . S
H883 C861 0.950 . S
C884 C885 1.349 . S
C884 C886 1.327 . S
C884 H909 0.950 . S
C885 C884 1.349 . S
C885 C901 1.349 . S
C886 C884 1.327 . S
C886 C905 1.429 . S
C886 H910 0.950 . S
C887 C904 1.574 . S
C887 C906 1.368 . S
C887 H911 0.949 . S
H888 C892 0.949 . S
C889 C890 1.349 . S
C889 C891 1.327 1_554 S
C889 H912 0.950 . S
C890 C889 1.349 . S
C890 C902 1.349 1_554 S
C891 C889 1.327 1_556 S
C891 C907 1.429 . S
C891 H913 0.950 . S
C892 H888 0.949 . S
C892 C900 1.574 . S
C892 C908 1.368 . S
H893 C901 0.950 . S
H894 C899 0.950 . S
H895 C900 0.949 . S
H896 C902 0.950 . S
H897 C903 0.950 . S
H898 C904 0.949 . S
C899 H894 0.950 . S
C899 C901 1.327 . S
C899 C905 1.429 . S
C900 C892 1.574 . S
C900 H895 0.949 . S
C900 C906 1.368 . S
C901 C885 1.349 . S
C901 H893 0.950 . S
C901 C899 1.327 . S
C902 C890 1.349 1_556 S
C902 H896 0.950 . S
C902 C903 1.327 . S
C903 H897 0.950 . S
C903 C902 1.327 . S
C903 C907 1.429 . S
C904 C887 1.574 . S
C904 H898 0.949 . S
C904 C908 1.368 . S
C905 C886 1.429 . S
C905 C899 1.429 . S
C905 C906 1.523 . S
C906 C887 1.368 . S
C906 C900 1.368 . S
C906 C905 1.523 . S
C907 C891 1.429 . S
C907 C903 1.429 . S
C907 C908 1.523 . S
C908 C892 1.368 . S
C908 C904 1.368 . S
C908 C907 1.523 . S
H909 C884 0.950 . S
H910 C886 0.950 . S
H911 C887 0.949 . S
H912 C889 0.950 . S
H913 C891 0.950 . S
C914 C915 1.349 . S
C914 C916 1.327 . S
C914 H939 0.950 . S
C915 C914 1.349 . S
C915 C931 1.349 . S
C916 C914 1.327 . S
C916 C935 1.429 . S
C916 H940 0.950 . S
C917 C934 1.574 . S
C917 C936 1.368 . S
C917 H941 0.949 . S
H918 C922 0.949 . S
C919 C920 1.349 . S
C919 C921 1.327 . S
C919 H942 0.950 . S
C920 C919 1.349 . S
C920 C932 1.349 . S
C921 C919 1.327 . S
C921 C937 1.429 . S
C921 H943 0.950 . S
C922 H918 0.949 . S
C922 C930 1.574 . S
C922 C938 1.368 . S
H923 C931 0.950 . S
H924 C929 0.950 . S
H925 C930 0.949 . S
H926 C932 0.950 . S
H927 C933 0.950 . S
H928 C934 0.949 . S
C929 H924 0.950 . S
C929 C931 1.327 . S
C929 C935 1.429 . S
C930 C922 1.574 . S
C930 H925 0.949 . S
C930 C936 1.368 . S
C931 C915 1.349 . S
C931 H923 0.950 . S
C931 C929 1.327 . S
C932 C920 1.349 . S
C932 H926 0.950 . S
C932 C933 1.327 . S
C933 H927 0.950 . S
C933 C932 1.327 . S
C933 C937 1.429 . S
C934 C917 1.574 . S
C934 H928 0.949 . S
C934 C938 1.368 . S
C935 C916 1.429 . S
C935 C929 1.429 . S
C935 C936 1.523 . S
C936 C917 1.368 . S
C936 C930 1.368 . S
C936 C935 1.523 . S
C937 C921 1.429 . S
C937 C933 1.429 . S
C937 C938 1.523 . S
C938 C922 1.368 . S
C938 C934 1.368 . S
C938 C937 1.523 . S
H939 C914 0.950 . S
H940 C916 0.950 . S
H941 C917 0.949 . S
H942 C919 0.950 . S
H943 C921 0.950 . S
C944 C945 1.349 . S
C944 C946 1.327 . S
C944 H969 0.950 . S
C945 C944 1.349 . S
C945 C961 1.349 1_554 S
C946 C944 1.327 . S
C946 C965 1.429 1_554 S
C946 H970 0.950 . S
C947 C964 1.574 . S
C947 C966 1.368 . S
C947 H971 0.949 . S
H948 C952 0.949 . S
C949 C950 1.349 . S
C949 C951 1.327 . S
C949 H972 0.950 . S
C950 C949 1.349 . S
C950 C962 1.349 . S
C951 C949 1.327 . S
C951 C967 1.429 . S
C951 H973 0.950 . S
C952 H948 0.949 . S
C952 C960 1.574 . S
C952 C968 1.368 . S
H953 C961 0.950 . S
H954 C959 0.950 . S
H955 C960 0.949 1_554 S
H956 C962 0.950 . S
H957 C963 0.950 . S
H958 C964 0.949 . S
C959 H954 0.950 . S
C959 C961 1.327 . S
C959 C965 1.429 . S
C960 C952 1.574 . S
C960 H955 0.949 1_556 S
C960 C966 1.368 . S
C961 C945 1.349 1_556 S
C961 H953 0.950 . S
C961 C959 1.327 . S
C962 C950 1.349 . S
C962 H956 0.950 . S
C962 C963 1.327 . S
C963 H957 0.950 . S
C963 C962 1.327 . S
C963 C967 1.429 . S
C964 C947 1.574 . S
C964 H958 0.949 . S
C964 C968 1.368 . S
C965 C946 1.429 1_556 S
C965 C959 1.429 . S
C965 C966 1.523 . S
C966 C947 1.368 . S
C966 C960 1.368 . S
C966 C965 1.523 . S
C967 C951 1.429 . S
C967 C963 1.429 . S
C967 C968 1.523 . S
C968 C952 1.368 . S
C968 C964 1.368 . S
C968 C967 1.523 . S
H969 C944 0.950 . S
H970 C946 0.950 . S
H971 C947 0.949 . S
H972 C949 0.950 . S
H973 C951 0.950 . S
C974 C975 1.349 . S
C974 C976 1.327 . S
C974 H999 0.950 . S
C975 C974 1.349 . S
C975 C991 1.349 . S
C976 C974 1.327 . S
C976 C995 1.429 . S
C976 H1000 0.950 . S
C977 C994 1.574 . S
C977 C996 1.368 . S
C977 H1001 0.949 . S
H978 C982 0.949 . S
C979 C980 1.349 . S
C979 C981 1.327 . S
C979 H1002 0.950 . S
C980 C979 1.349 . S
C980 C992 1.349 . S
C981 C979 1.327 . S
C981 C997 1.429 . S
C981 H1003 0.950 . S
C982 H978 0.949 . S
C982 C990 1.574 . S
C982 C998 1.368 . S
H983 C991 0.950 . S
H984 C989 0.950 . S
H985 C990 0.949 . S
H986 C992 0.950 . S
H987 C993 0.950 . S
H988 C994 0.949 . S
C989 H984 0.950 . S
C989 C991 1.327 . S
C989 C995 1.429 . S
C990 C982 1.574 . S
C990 H985 0.949 . S
C990 C996 1.368 . S
C991 C975 1.349 . S
C991 H983 0.950 . S
C991 C989 1.327 . S
C992 C980 1.349 . S
C992 H986 0.950 . S
C992 C993 1.327 . S
C993 H987 0.950 . S
C993 C992 1.327 . S
C993 C997 1.429 . S
C994 C977 1.574 . S
C994 H988 0.949 . S
C994 C998 1.368 . S
C995 C976 1.429 . S
C995 C989 1.429 . S
C995 C996 1.523 . S
C996 C977 1.368 . S
C996 C990 1.368 . S
C996 C995 1.523 . S
C997 C981 1.429 . S
C997 C993 1.429 . S
C997 C998 1.523 . S
C998 C982 1.368 . S
C998 C994 1.368 . S
C998 C997 1.523 . S
H999 C974 0.950 . S
H1000 C976 0.950 . S
H1001 C977 0.949 . S
H1002 C979 0.950 . S
H1003 C981 0.950 . S
C1004 C1005 1.349 . S
C1004 C1006 1.327 . S
C1004 H1029 0.950 . S
C1005 C1004 1.349 . S
C1005 C1021 1.349 . S
C1006 C1004 1.327 . S
C1006 C1025 1.429 . S
C1006 H1030 0.950 . S
C1007 C1024 1.574 . S
C1007 C1026 1.368 . S
C1007 H1031 0.949 . S
H1008 C1012 0.949 . S
C1009 C1010 1.349 . S
C1009 C1011 1.327 . S
C1009 H1032 0.950 . S
C1010 C1009 1.349 . S
C1010 C1022 1.349 . S
C1011 C1009 1.327 . S
C1011 C1027 1.429 . S
C1011 H1033 0.950 . S
C1012 H1008 0.949 . S
C1012 C1020 1.574 . S
C1012 C1028 1.368 . S
H1013 C1021 0.950 . S
H1014 C1019 0.950 . S
H1015 C1020 0.949 . S
H1016 C1022 0.950 . S
H1017 C1023 0.950 . S
H1018 C1024 0.949 . S
C1019 H1014 0.950 . S
C1019 C1021 1.327 . S
C1019 C1025 1.429 . S
C1020 C1012 1.574 . S
C1020 H1015 0.949 . S
C1020 C1026 1.368 . S
C1021 C1005 1.349 . S
C1021 H1013 0.950 . S
C1021 C1019 1.327 . S
C1022 C1010 1.349 . S
C1022 H1016 0.950 . S
C1022 C1023 1.327 . S
C1023 H1017 0.950 . S
C1023 C1022 1.327 . S
C1023 C1027 1.429 . S
C1024 C1007 1.574 . S
C1024 H1018 0.949 . S
C1024 C1028 1.368 . S
C1025 C1006 1.429 . S
C1025 C1019 1.429 . S
C1025 C1026 1.523 . S
C1026 C1007 1.368 . S
C1026 C1020 1.368 . S
C1026 C1025 1.523 . S
C1027 C1011 1.429 . S
C1027 C1023 1.429 . S
C1027 C1028 1.523 . S
C1028 C1012 1.368 . S
C1028 C1024 1.368 . S
C1028 C1027 1.523 . S
H1029 C1004 0.950 . S
H1030 C1006 0.950 . S
H1031 C1007 0.949 . S
H1032 C1009 0.950 . S
H1033 C1011 0.950 . S
C1034 C1035 1.349 . S
C1034 C1036 1.327 . S
C1034 H1059 0.950 . S
C1035 C1034 1.349 . S
C1035 C1051 1.349 . S
C1036 C1034 1.327 . S
C1036 C1055 1.429 . S
C1036 H1060 0.950 . S
C1037 C1054 1.574 . S
C1037 C1056 1.368 . S
C1037 H1061 0.949 . S
H1038 C1042 0.949 . S
C1039 C1040 1.349 . S
C1039 C1041 1.327 . S
C1039 H1062 0.950 . S
C1040 C1039 1.349 . S
C1040 C1052 1.349 . S
C1041 C1039 1.327 . S
C1041 C1057 1.429 . S
C1041 H1063 0.950 . S
C1042 H1038 0.949 . S
C1042 C1050 1.574 . S
C1042 C1058 1.368 . S
H1043 C1051 0.950 . S
H1044 C1049 0.950 . S
H1045 C1050 0.949 . S
H1046 C1052 0.950 . S
H1047 C1053 0.950 . S
H1048 C1054 0.949 . S
C1049 H1044 0.950 . S
C1049 C1051 1.327 . S
C1049 C1055 1.429 . S
C1050 C1042 1.574 . S
C1050 H1045 0.949 . S
C1050 C1056 1.368 . S
C1051 C1035 1.349 . S
C1051 H1043 0.950 . S
C1051 C1049 1.327 . S
C1052 C1040 1.349 . S
C1052 H1046 0.950 . S
C1052 C1053 1.327 . S
C1053 H1047 0.950 . S
C1053 C1052 1.327 . S
C1053 C1057 1.429 . S
C1054 C1037 1.574 . S
C1054 H1048 0.949 . S
C1054 C1058 1.368 . S
C1055 C1036 1.429 . S
C1055 C1049 1.429 . S
C1055 C1056 1.523 . S
C1056 C1037 1.368 . S
C1056 C1050 1.368 . S
C1056 C1055 1.523 . S
C1057 C1041 1.429 . S
C1057 C1053 1.429 . S
C1057 C1058 1.523 . S
C1058 C1042 1.368 . S
C1058 C1054 1.368 . S
C1058 C1057 1.523 . S
H1059 C1034 0.950 . S
H1060 C1036 0.950 . S
H1061 C1037 0.949 . S
H1062 C1039 0.950 . S
H1063 C1041 0.950 . S
C1064 C1065 1.349 . S
C1064 C1066 1.327 . S
C1064 H1089 0.950 . S
C1065 C1064 1.349 . S
C1065 C1081 1.349 . S
C1066 C1064 1.327 . S
C1066 C1085 1.429 . S
C1066 H1090 0.950 . S
C1067 C1084 1.574 . S
C1067 C1086 1.368 . S
C1067 H1091 0.949 . S
H1068 C1072 0.949 . S
C1069 C1070 1.349 . S
C1069 C1071 1.327 . S
C1069 H1092 0.950 . S
C1070 C1069 1.349 . S
C1070 C1082 1.349 . S
C1071 C1069 1.327 . S
C1071 C1087 1.429 . S
C1071 H1093 0.950 . S
C1072 H1068 0.949 . S
C1072 C1080 1.574 . S
C1072 C1088 1.368 . S
H1073 C1081 0.950 . S
H1074 C1079 0.950 . S
H1075 C1080 0.949 . S
H1076 C1082 0.950 . S
H1077 C1083 0.950 . S
H1078 C1084 0.949 . S
C1079 H1074 0.950 . S
C1079 C1081 1.327 . S
C1079 C1085 1.429 . S
C1080 C1072 1.574 . S
C1080 H1075 0.949 . S
C1080 C1086 1.368 . S
C1081 C1065 1.349 . S
C1081 H1073 0.950 . S
C1081 C1079 1.327 . S
C1082 C1070 1.349 . S
C1082 H1076 0.950 . S
C1082 C1083 1.327 . S
C1083 H1077 0.950 . S
C1083 C1082 1.327 . S
C1083 C1087 1.429 . S
C1084 C1067 1.574 . S
C1084 H1078 0.949 . S
C1084 C1088 1.368 . S
C1085 C1066 1.429 . S
C1085 C1079 1.429 . S
C1085 C1086 1.523 . S
C1086 C1067 1.368 . S
C1086 C1080 1.368 . S
C1086 C1085 1.523 . S
C1087 C1071 1.429 . S
C1087 C1083 1.429 . S
C1087 C1088 1.523 . S
C1088 C1072 1.368 . S
C1088 C1084 1.368 . S
C1088 C1087 1.523 . S
H1089 C1064 0.950 . S
H1090 C1066 0.950 . S
H1091 C1067 0.949 . S
H1092 C1069 0.950 . S
H1093 C1071 0.950 . S
C1094 C1095 1.349 . S
C1094 C1096 1.327 . S
C1094 H1119 0.950 . S
C1095 C1094 1.349 . S
C1095 C1111 1.349 . S
C1096 C1094 1.327 . S
C1096 C1115 1.429 . S
C1096 H1120 0.950 . S
C1097 C1114 1.574 . S
C1097 C1116 1.368 . S
C1097 H1121 0.949 . S
H1098 C1102 0.949 . S
C1099 C1100 1.349 . S
C1099 C1101 1.327 . S
C1099 H1122 0.950 . S
C1100 C1099 1.349 . S
C1100 C1112 1.349 . S
C1101 C1099 1.327 . S
C1101 C1117 1.429 . S
C1101 H1123 0.950 . S
C1102 H1098 0.949 . S
C1102 C1110 1.574 . S
C1102 C1118 1.368 . S
H1103 C1111 0.950 . S
H1104 C1109 0.950 . S
H1105 C1110 0.949 . S
H1106 C1112 0.950 . S
H1107 C1113 0.950 . S
H1108 C1114 0.949 . S
C1109 H1104 0.950 . S
C1109 C1111 1.327 . S
C1109 C1115 1.429 . S
C1110 C1102 1.574 . S
C1110 H1105 0.949 . S
C1110 C1116 1.368 . S
C1111 C1095 1.349 . S
C1111 H1103 0.950 . S
C1111 C1109 1.327 . S
C1112 C1100 1.349 . S
C1112 H1106 0.950 . S
C1112 C1113 1.327 . S
C1113 H1107 0.950 . S
C1113 C1112 1.327 . S
C1113 C1117 1.429 . S
C1114 C1097 1.574 . S
C1114 H1108 0.949 . S
C1114 C1118 1.368 . S
C1115 C1096 1.429 . S
C1115 C1109 1.429 . S
C1115 C1116 1.523 . S
C1116 C1097 1.368 . S
C1116 C1110 1.368 . S
C1116 C1115 1.523 . S
C1117 C1101 1.429 . S
C1117 C1113 1.429 . S
C1117 C1118 1.523 . S
C1118 C1102 1.368 . S
C1118 C1114 1.368 . S
C1118 C1117 1.523 . S
H1119 C1094 0.950 . S
H1120 C1096 0.950 . S
H1121 C1097 0.949 . S
H1122 C1099 0.950 . S
H1123 C1101 0.950 . S
C1124 C1125 1.349 . S
C1124 C1126 1.327 . S
C1124 H1149 0.950 . S
C1125 C1124 1.349 . S
C1125 C1141 1.349 . S
C1126 C1124 1.327 . S
C1126 C1145 1.429 . S
C1126 H1150 0.950 . S
C1127 C1144 1.574 . S
C1127 C1146 1.368 . S
C1127 H1151 0.949 . S
H1128 C1132 0.949 . S
C1129 C1130 1.349 . S
C1129 C1131 1.327 . S
C1129 H1152 0.950 . S
C1130 C1129 1.349 . S
C1130 C1142 1.349 . S
C1131 C1129 1.327 . S
C1131 C1147 1.429 . S
C1131 H1153 0.950 . S
C1132 H1128 0.949 . S
C1132 C1140 1.574 . S
C1132 C1148 1.368 . S
H1133 C1141 0.950 . S
H1134 C1139 0.950 . S
H1135 C1140 0.949 . S
H1136 C1142 0.950 . S
H1137 C1143 0.950 . S
H1138 C1144 0.949 . S
C1139 H1134 0.950 . S
C1139 C1141 1.327 . S
C1139 C1145 1.429 . S
C1140 C1132 1.574 . S
C1140 H1135 0.949 . S
C1140 C1146 1.368 . S
C1141 C1125 1.349 . S
C1141 H1133 0.950 . S
C1141 C1139 1.327 . S
C1142 C1130 1.349 . S
C1142 H1136 0.950 . S
C1142 C1143 1.327 . S
C1143 H1137 0.950 . S
C1143 C1142 1.327 . S
C1143 C1147 1.429 . S
C1144 C1127 1.574 . S
C1144 H1138 0.949 . S
C1144 C1148 1.368 . S
C1145 C1126 1.429 . S
C1145 C1139 1.429 . S
C1145 C1146 1.523 . S
C1146 C1127 1.368 . S
C1146 C1140 1.368 . S
C1146 C1145 1.523 . S
C1147 C1131 1.429 . S
C1147 C1143 1.429 . S
C1147 C1148 1.523 . S
C1148 C1132 1.368 . S
C1148 C1144 1.368 . S
C1148 C1147 1.523 . S
H1149 C1124 0.950 . S
H1150 C1126 0.950 . S
H1151 C1127 0.949 . S
H1152 C1129 0.950 . S
H1153 C1131 0.950 . S
C1154 C1155 1.349 1_556 S
C1154 C1156 1.327 . S
C1154 H1179 0.950 . S
C1155 C1154 1.349 1_554 S
C1155 C1171 1.349 . S
C1156 C1154 1.327 . S
C1156 C1175 1.429 . S
C1156 H1180 0.950 . S
C1157 C1174 1.574 . S
C1157 C1176 1.368 . S
C1157 H1181 0.949 . S
H1158 C1162 0.949 . S
C1159 C1160 1.349 . S
C1159 C1161 1.327 . S
C1159 H1182 0.950 1_565 S
C1160 C1159 1.349 . S
C1160 C1172 1.349 . S
C1161 C1159 1.327 . S
C1161 C1177 1.429 . S
C1161 H1183 0.950 . S
C1162 H1158 0.949 . S
C1162 C1170 1.574 . S
C1162 C1178 1.368 . S
H1163 C1171 0.950 . S
H1164 C1169 0.950 . S
H1165 C1170 0.949 . S
H1166 C1172 0.950 . S
H1167 C1173 0.950 . S
H1168 C1174 0.949 . S
C1169 H1164 0.950 . S
C1169 C1171 1.327 . S
C1169 C1175 1.429 1_554 S
C1170 C1162 1.574 . S
C1170 H1165 0.949 . S
C1170 C1176 1.368 . S
C1171 C1155 1.349 . S
C1171 H1163 0.950 . S
C1171 C1169 1.327 . S
C1172 C1160 1.349 . S
C1172 H1166 0.950 . S
C1172 C1173 1.327 . S
C1173 H1167 0.950 . S
C1173 C1172 1.327 . S
C1173 C1177 1.429 . S
C1174 C1157 1.574 . S
C1174 H1168 0.949 . S
C1174 C1178 1.368 . S
C1175 C1156 1.429 . S
C1175 C1169 1.429 1_556 S
C1175 C1176 1.523 . S
C1176 C1157 1.368 . S
C1176 C1170 1.368 . S
C1176 C1175 1.523 . S
C1177 C1161 1.429 . S
C1177 C1173 1.429 . S
C1177 C1178 1.523 . S
C1178 C1162 1.368 . S
C1178 C1174 1.368 . S
C1178 C1177 1.523 . S
H1179 C1154 0.950 . S
H1180 C1156 0.950 . S
H1181 C1157 0.949 . S
H1182 C1159 0.950 1_545 S
H1183 C1161 0.950 . S
C225 C12 0.942 . S
C230 C179 0.939 . S
C255 C18 0.992 . S
C260 C82 0.998 . S
C285 C32 0.893 . S
C290 C207 0.895 . S
C315 C110 0.998 . S
C320 C54 0.998 . S
C345 C208 0.998 . S
C350 C40 0.998 . S
C375 C109 0.895 . S
C380 C46 0.893 . S
C405 C180 0.998 . S
C410 C4 0.992 . S
C435 C81 0.938 . S
C440 C26 0.942 . S
C465 C67 0.939 . S
C470 C124 0.942 . S
C495 C95 0.896 . S
C500 C144 0.893 . S
C525 C152 0.997 . S
C530 C96 0.998 . S
C555 C68 0.998 . S
C560 C116 0.992 . S
C585 C194 0.997 . S
C590 C130 0.992 . S
C615 C166 0.997 . S
C620 C222 0.998 . S
C645 C158 0.893 . S
C650 C221 0.896 . S
C675 C138 0.942 . S
C680 C193 0.939 . S
C705 C159 1.225 . S
C710 C11 1.395 . S
C735 C117 1.343 . S
C740 C19 1.343 1_565 S
C765 C33 1.225 . S
C770 C137 1.395 . S
C795 C151 1.466 . S
C800 C53 1.466 . S
C825 C165 1.466 . S
C830 C39 1.466 . S
C855 C47 1.225 . S
C860 C123 1.394 . S
C885 C131 1.343 . S
C890 C5 1.343 . S
C915 C145 1.225 . S
C920 C25 1.395 . S
C945 C61 1.322 . S
C950 C215 1.327 . S
C975 C172 1.392 . S
C980 C74 1.392 . S
C1005 C89 1.327 . S
C1010 C187 1.322 . S
C1035 C102 1.410 . S
C1040 C200 1.403 . S
C1065 C88 1.403 . S
C1070 C214 1.403 . S
C1095 C173 1.322 . S
C1100 C103 1.327 . S
C1125 C186 1.392 . S
C1130 C60 1.392 . S
C1155 C201 1.327 . S
C1160 C75 1.322 . S
