# Generated by pormake.
# Topology umx, (4)-cn, num edge types: 1
# Building blocks:
#     Node 0, Type 0, BuildingBlock: NAWXER_clean_sbu_0, # of connection points: 4
#     Node 1, Type 0, BuildingBlock: NAWXER_clean_sbu_0, # of connection points: 4
#     Node 2, Type 0, BuildingBlock: NAWXER_clean_sbu_0, # of connection points: 4
#     Node 3, Type 0, BuildingBlock: NAWXER_clean_sbu_0, # of connection points: 4
#     Node 4, Type 0, BuildingBlock: NAWXER_clean_sbu_0, # of connection points: 4
#     Node 5, Type 0, BuildingBlock: NAWXER_clean_sbu_0, # of connection points: 4
#     Node 6, Type 0, BuildingBlock: NAWXER_clean_sbu_0, # of connection points: 4
#     Node 7, Type 0, BuildingBlock: NAWXER_clean_sbu_0, # of connection points: 4
#     Edge 8, Type (0, 0), BuildingBlock: MIFKUJ_clean_linker_0, # of connection points: 2
#     Edge 9, Type (0, 0), BuildingBlock: MIFKUJ_clean_linker_0, # of connection points: 2
#     Edge 10, Type (0, 0), BuildingBlock: MIFKUJ_clean_linker_0, # of connection points: 2
#     Edge 11, Type (0, 0), BuildingBlock: MIFKUJ_clean_linker_0, # of connection points: 2
#     Edge 12, Type (0, 0), BuildingBlock: MIFKUJ_clean_linker_0, # of connection points: 2
#     Edge 13, Type (0, 0), BuildingBlock: MIFKUJ_clean_linker_0, # of connection points: 2
#     Edge 14, Type (0, 0), BuildingBlock: MIFKUJ_clean_linker_0, # of connection points: 2
#     Edge 15, Type (0, 0), BuildingBlock: MIFKUJ_clean_linker_0, # of connection points: 2
#     Edge 16, Type (0, 0), BuildingBlock: MIFKUJ_clean_linker_0, # of connection points: 2
#     Edge 17, Type (0, 0), BuildingBlock: MIFKUJ_clean_linker_0, # of connection points: 2
#     Edge 18, Type (0, 0), BuildingBlock: MIFKUJ_clean_linker_0, # of connection points: 2
#     Edge 19, Type (0, 0), BuildingBlock: MIFKUJ_clean_linker_0, # of connection points: 2
#     Edge 20, Type (0, 0), BuildingBlock: MIFKUJ_clean_linker_0, # of connection points: 2
#     Edge 21, Type (0, 0), BuildingBlock: MIFKUJ_clean_linker_0, # of connection points: 2
#     Edge 22, Type (0, 0), BuildingBlock: MIFKUJ_clean_linker_0, # of connection points: 2
#     Edge 23, Type (0, 0), BuildingBlock: MIFKUJ_clean_linker_0, # of connection points: 2
# Relax obj value: 0.027
# Max RMSD: 0.221
# Mean RMSD: 0.220
data_MOF--net-umx--node1-NAWXER_clean_sbu_0--edge1-MIFKUJ_clean_linker_0
_symmetry_space_group_name_H-M    P1
_symmetry_Int_Tables_number       1
_symmetry_cell_setting            triclinic
loop_
_symmetry_equiv_pos_as_xyz
'x, y, z'
_cell_length_a     50.461915
_cell_length_b     50.346167
_cell_length_c     38.257381
_cell_angle_alpha  95.830894
_cell_angle_beta   95.646687
_cell_angle_gamma 89.902429
loop_
_atom_site_label
_atom_site_type_symbol
_atom_site_fract_x
_atom_site_fract_y
_atom_site_fract_z
_atom_type_partial_charge
C0 C 0.22177 0.4226 0.01899 0.0
C1 C 0.13564 0.46528 0.01786 0.0
O2 O 0.19859 0.41232 0.01461 0.0
Zn3 Zn 0.1792 0.44459 0.01787 0.0
O4 O 0.22448 0.44815 0.02354 0.0
Zn5 Zn 0.19757 0.48217 0.02615 0.0
O6 O 0.20688 0.49957 0.07287 0.0
O7 O 0.18875 0.45969 0.07259 0.0
O8 O 0.1545 0.48274 0.02247 0.0
O9 O 0.14133 0.44069 0.01375 0.0
O10 O 0.18719 0.46156 0.97035 0.0
O11 O 0.20556 0.50108 0.98719 0.0
C12 C 0.19913 0.48101 0.08968 0.0
C13 C 0.19731 0.48333 0.9626 0.0
C14 C 0.51624 0.19531 0.46231 0.0
C15 C 0.51963 0.2041 0.59072 0.0
O16 O 0.49895 0.20524 0.48173 0.0
Zn17 Zn 0.51817 0.19987 0.52649 0.0
O18 O 0.53785 0.18597 0.47672 0.0
Zn19 Zn 0.55562 0.18182 0.52953 0.0
O20 O 0.55992 0.14425 0.52925 0.0
O21 O 0.51785 0.15659 0.52616 0.0
O22 O 0.54045 0.19273 0.57969 0.0
O23 O 0.50166 0.2119 0.56854 0.0
O24 O 0.55166 0.22706 0.52847 0.0
O25 O 0.58764 0.20222 0.5322 0.0
C26 C 0.53541 0.1381 0.52736 0.0
C27 C 0.57711 0.225 0.53048 0.0
C28 C 0.8612 0.53837 0.03211 0.0
C29 C 0.77288 0.57637 0.03146 0.0
O30 O 0.84319 0.52002 0.02771 0.0
Zn31 Zn 0.80015 0.51831 0.02398 0.0
O32 O 0.85436 0.56266 0.03583 0.0
Zn33 Zn 0.81669 0.55681 0.03166 0.0
O34 O 0.80996 0.53952 0.07944 0.0
O35 O 0.79349 0.49911 0.06327 0.0
O36 O 0.79545 0.58793 0.03485 0.0
O37 O 0.77158 0.55073 0.02709 0.0
O38 O 0.7914 0.5005 0.97733 0.0
O39 O 0.80799 0.54098 0.97718 0.0
C40 C 0.801 0.51736 0.08759 0.0
C41 C 0.79854 0.51919 0.96028 0.0
C42 C 0.47864 0.79786 0.46319 0.0
C43 C 0.48302 0.80455 0.59159 0.0
O44 O 0.45732 0.80785 0.47461 0.0
Zn45 Zn 0.44258 0.81796 0.5253 0.0
O46 O 0.49734 0.79103 0.48507 0.0
Zn47 Zn 0.48058 0.80127 0.52742 0.0
O48 O 0.44783 0.77281 0.52511 0.0
O49 O 0.41122 0.79683 0.52256 0.0
O50 O 0.50055 0.79603 0.57167 0.0
O51 O 0.46085 0.81318 0.57779 0.0
O52 O 0.43718 0.85557 0.52639 0.0
O53 O 0.47954 0.84443 0.52871 0.0
C54 C 0.42231 0.77425 0.52354 0.0
C55 C 0.46148 0.86243 0.52805 0.0
C56 C 0.19571 0.51524 0.46716 0.0
C57 C 0.20241 0.51839 0.59532 0.0
O58 O 0.18717 0.53741 0.48134 0.0
Zn59 Zn 0.18207 0.5551 0.53405 0.0
O60 O 0.20388 0.49739 0.4867 0.0
Zn61 Zn 0.19855 0.51696 0.53129 0.0
O62 O 0.1555 0.51804 0.53057 0.0
O63 O 0.14454 0.56053 0.53294 0.0
O64 O 0.20889 0.49968 0.57304 0.0
O65 O 0.19238 0.53987 0.58441 0.0
O66 O 0.20316 0.58659 0.53783 0.0
O67 O 0.22707 0.54985 0.53484 0.0
C68 C 0.13761 0.53622 0.53133 0.0
C69 C 0.2257 0.57546 0.53717 0.0
C70 C 0.42346 0.22316 0.01521 0.0
C71 C 0.46915 0.13841 0.01121 0.0
O72 O 0.44878 0.22673 0.02015 0.0
Zn73 Zn 0.48352 0.20144 0.02189 0.0
O74 O 0.41406 0.1996 0.00959 0.0
Zn75 Zn 0.44704 0.18104 0.0123 0.0
O76 O 0.46201 0.18898 0.06732 0.0
O77 O 0.5 0.2109 0.06899 0.0
O78 O 0.44443 0.14318 1.00638 0.0
O79 O 0.48588 0.15797 0.01706 0.0
O80 O 0.50189 0.2118 0.9835 0.0
O81 O 0.46446 0.18979 0.96557 0.0
C82 C 0.48244 0.20053 0.08513 0.0
C83 C 0.48538 0.20181 0.95848 0.0
C84 C 0.80281 0.48407 0.58293 0.0
C85 C 0.79579 0.48216 0.45488 0.0
O86 O 0.79459 0.50214 0.56377 0.0
Zn87 Zn 0.79987 0.483 0.51887 0.0
O88 O 0.81143 0.46207 0.56837 0.0
Zn89 Zn 0.81667 0.44501 0.5154 0.0
O90 O 0.85422 0.43995 0.51636 0.0
O91 O 0.84292 0.48236 0.51942 0.0
O92 O 0.80604 0.46065 0.4654 0.0
O93 O 0.78922 0.50061 0.47746 0.0
O94 O 0.77166 0.44974 0.51509 0.0
O95 O 0.79598 0.41329 0.51119 0.0
C96 C 0.86095 0.46434 0.51834 0.0
C97 C 0.77334 0.42413 0.51232 0.0
C98 C 0.57518 0.77548 0.04119 0.0
C99 C 0.53838 0.86434 0.04025 0.0
O100 O 0.58685 0.79803 0.04513 0.0
Zn101 Zn 0.55605 0.81952 0.04112 0.0
O102 O 0.54961 0.77434 0.03617 0.0
Zn103 Zn 0.51758 0.80339 0.03256 0.0
O104 O 0.50024 0.79443 0.98587 0.0
O105 O 0.54093 0.81051 0.98619 0.0
O106 O 0.51985 0.84652 0.03521 0.0
O107 O 0.56244 0.85719 0.04541 0.0
O108 O 0.53797 0.81339 0.08849 0.0
O109 O 0.49762 0.7974 0.07149 0.0
C110 C 0.51921 0.80117 0.96907 0.0
C111 C 0.51553 0.80485 0.09617 0.0
H112 H 0.20266 0.44156 0.13361 0.0
H113 H 0.20444 0.44644 0.19801 0.0
H114 H 0.20088 0.53213 0.19795 0.0
H115 H 0.2006 0.52732 0.13364 0.0
H116 H 0.23317 0.52151 0.25026 0.0
H117 H 0.14534 0.49016 0.20588 0.0
H118 H 0.11225 0.45965 0.17113 0.0
H119 H 0.13971 0.39568 0.23108 0.0
H120 H 0.17358 0.42557 0.26553 0.0
H121 H 0.18716 0.55188 0.41935 0.0
H122 H 0.18943 0.545 0.35556 0.0
H123 H 0.20824 0.46209 0.36328 0.0
H124 H 0.2061 0.46877 0.42726 0.0
H125 H 0.16908 0.47027 0.30815 0.0
H126 H 0.25661 0.50326 0.35301 0.0
H127 H 0.28868 0.53491 0.38777 0.0
H128 H 0.25886 0.59784 0.32731 0.0
H129 H 0.22634 0.56664 0.29252 0.0
C130 C 0.2024 0.46144 0.1474 0.0
C131 C 0.20131 0.48407 0.12866 0.0
C132 C 0.20326 0.46421 0.18421 0.0
C133 C 0.20213 0.48964 0.20292 0.0
C134 C 0.20168 0.51229 0.1842 0.0
C135 C 0.20147 0.50954 0.14744 0.0
C136 C 0.20104 0.49268 0.24187 0.0
C137 C 0.21891 0.51052 0.26278 0.0
C138 C 0.18278 0.47799 0.25849 0.0
C139 C 0.16219 0.46007 0.23807 0.0
C140 C 0.14446 0.46954 0.21151 0.0
C141 C 0.12554 0.45236 0.19187 0.0
C142 C 0.12383 0.42577 0.19892 0.0
C143 C 0.14107 0.41628 0.22562 0.0
C144 C 0.16017 0.43332 0.24518 0.0
C145 C 0.19173 0.53215 0.40752 0.0
C146 C 0.19651 0.51087 0.42841 0.0
C147 C 0.19312 0.52829 0.37108 0.0
C148 C 0.19923 0.5031 0.35479 0.0
C149 C 0.20356 0.4817 0.37541 0.0
C150 C 0.20239 0.48558 0.41195 0.0
C151 C 0.20104 0.49913 0.31618 0.0
C152 C 0.18332 0.48116 0.29545 0.0
C153 C 0.21916 0.51392 0.29968 0.0
C154 C 0.23888 0.53266 0.32037 0.0
C155 C 0.25676 0.52389 0.3473 0.0
C156 C 0.27504 0.54175 0.36698 0.0
C157 C 0.27577 0.56839 0.35981 0.0
C158 C 0.25826 0.57721 0.33287 0.0
C159 C 0.23992 0.55944 0.31313 0.0
H160 H 0.28993 0.58218 0.37509 0.0
H161 H 0.10912 0.41253 0.1837 0.0
H162 H 0.48401 0.2356 0.62513 0.0
H163 H 0.47881 0.24046 0.6884 0.0
H164 H 0.54191 0.18384 0.70549 0.0
H165 H 0.54786 0.17973 0.64274 0.0
H166 H 0.4642 0.20864 0.73049 0.0
H167 H 0.57538 0.19524 0.78481 0.0
H168 H 0.62008 0.20701 0.76998 0.0
H169 H 0.58694 0.27104 0.7141 0.0
H170 H 0.54212 0.25992 0.72902 0.0
H171 H 0.46709 0.1687 0.90051 0.0
H172 H 0.47347 0.17309 0.83895 0.0
H173 H 0.51874 0.24571 0.87083 0.0
H174 H 0.51366 0.24045 0.93275 0.0
H175 H 0.54113 0.22067 0.82207 0.0
H176 H 0.45127 0.24484 0.83212 0.0
H177 H 0.40535 0.24071 0.8479 0.0
H178 H 0.39368 0.16924 0.77657 0.0
H179 H 0.43966 0.17274 0.76069 0.0
C180 C 0.49689 0.22436 0.64245 0.0
C181 C 0.51646 0.20741 0.62896 0.0
C182 C 0.49387 0.2271 0.67861 0.0
C183 C 0.51021 0.21282 0.70191 0.0
C184 C 0.52951 0.19563 0.68831 0.0
C185 C 0.5328 0.19318 0.65233 0.0
C186 C 0.5066 0.2151 0.74024 0.0
C187 C 0.48102 0.2114 0.75051 0.0
C188 C 0.52835 0.21958 0.76656 0.0
C189 C 0.55534 0.22657 0.7578 0.0
C190 C 0.57764 0.21191 0.76951 0.0
C191 C 0.603 0.21846 0.76105 0.0
C192 C 0.60633 0.23971 0.74103 0.0
C193 C 0.58432 0.25453 0.72951 0.0
C194 C 0.55893 0.24808 0.73792 0.0
C195 C 0.47846 0.18556 0.89436 0.0
C196 C 0.48979 0.2043 0.92136 0.0
C197 C 0.48193 0.18819 0.85911 0.0
C198 C 0.49604 0.21011 0.84999 0.0
C199 C 0.5077 0.22866 0.87706 0.0
C200 C 0.50477 0.22567 0.91245 0.0
C201 C 0.49884 0.2134 0.81227 0.0
C202 C 0.52427 0.21814 0.8021 0.0
C203 C 0.47676 0.21106 0.78617 0.0
C204 C 0.44899 0.20896 0.79541 0.0
C205 C 0.43896 0.22815 0.81995 0.0
C206 C 0.41291 0.22594 0.8289 0.0
C207 C 0.39662 0.2047 0.8133 0.0
C208 C 0.40633 0.18567 0.78864 0.0
C209 C 0.43237 0.18778 0.77962 0.0
H210 H 0.37646 0.20301 0.82027 0.0
H211 H 0.62598 0.24473 0.73449 0.0
H212 H 0.79613 0.44349 0.39959 0.0
H213 H 0.79387 0.44939 0.33681 0.0
H214 H 0.78695 0.53456 0.36115 0.0
H215 H 0.7882 0.52866 0.42402 0.0
H216 H 0.75636 0.51928 0.30314 0.0
H217 H 0.84635 0.50479 0.34563 0.0
H218 H 0.88311 0.48146 0.37638 0.0
H219 H 0.8701 0.41291 0.3001 0.0
H220 H 0.83248 0.43552 0.26956 0.0
H221 H 0.80352 0.55549 0.14389 0.0
H222 H 0.80001 0.54915 0.20583 0.0
H223 H 0.7909 0.46425 0.17822 0.0
H224 H 0.79407 0.47041 0.11602 0.0
H225 H 0.82935 0.47983 0.23728 0.0
H226 H 0.73797 0.49688 0.19557 0.0
H227 H 0.7021 0.52259 0.16645 0.0
H228 H 0.72158 0.59055 0.24182 0.0
H229 H 0.75778 0.5653 0.27121 0.0
C230 C 0.79393 0.46346 0.39157 0.0
C231 C 0.79262 0.48564 0.41677 0.0
C232 C 0.7927 0.46682 0.35566 0.0
C233 C 0.79082 0.49248 0.34427 0.0
C234 C 0.7885 0.51458 0.36929 0.0
C235 C 0.7893 0.51119 0.40522 0.0
C236 C 0.79245 0.4963 0.30651 0.0
C237 C 0.77248 0.51088 0.28889 0.0
C238 C 0.81341 0.48524 0.28774 0.0
C239 C 0.8364 0.47176 0.30551 0.0
C240 C 0.85119 0.48467 0.33553 0.0
C241 C 0.8722 0.47156 0.35293 0.0
C242 C 0.87902 0.44572 0.34017 0.0
C243 C 0.86479 0.43293 0.30997 0.0
C244 C 0.84356 0.44586 0.29265 0.0
C245 C 0.80078 0.53545 0.15096 0.0
C246 C 0.79908 0.51343 0.12506 0.0
C247 C 0.79867 0.5319 0.18633 0.0
C248 C 0.79506 0.50627 0.19648 0.0
C249 C 0.79364 0.4842 0.17082 0.0
C250 C 0.79539 0.48776 0.13533 0.0
C251 C 0.79315 0.50248 0.23403 0.0
C252 C 0.81319 0.48806 0.2516 0.0
C253 C 0.77258 0.51412 0.25287 0.0
C254 C 0.75071 0.52927 0.23542 0.0
C255 C 0.73473 0.51737 0.20579 0.0
C256 C 0.7143 0.53184 0.18928 0.0
C257 C 0.70957 0.55818 0.20227 0.0
C258 C 0.72525 0.57012 0.23182 0.0
C259 C 0.7457 0.55573 0.24845 0.0
H260 H 0.69371 0.56933 0.18949 0.0
H261 H 0.89533 0.43562 0.35367 0.0
H262 H 0.5584 0.79799 0.92452 0.0
H263 H 0.55321 0.79662 0.86017 0.0
H264 H 0.46781 0.80011 0.86136 0.0
H265 H 0.47291 0.80007 0.92556 0.0
H266 H 0.47794 0.76784 0.80877 0.0
H267 H 0.50864 0.85636 0.85151 0.0
H268 H 0.53849 0.89051 0.88546 0.0
H269 H 0.60332 0.86165 0.82776 0.0
H270 H 0.57392 0.82709 0.79376 0.0
H271 H 0.44705 0.81404 0.64018 0.0
H272 H 0.45435 0.81203 0.70394 0.0
H273 H 0.53663 0.79189 0.69473 0.0
H274 H 0.52952 0.79377 0.63074 0.0
H275 H 0.52906 0.8317 0.75029 0.0
H276 H 0.49503 0.744 0.70552 0.0
H277 H 0.46274 0.71245 0.67099 0.0
H278 H 0.40088 0.74348 0.73268 0.0
H279 H 0.43273 0.77549 0.76726 0.0
C280 C 0.53852 0.79834 0.911 0.0
C281 C 0.51606 0.79928 0.93006 0.0
C282 C 0.53557 0.79773 0.87422 0.0
C283 C 0.51013 0.79888 0.85582 0.0
C284 C 0.48766 0.79926 0.87485 0.0
C285 C 0.49058 0.79928 0.91157 0.0
C286 C 0.50688 0.7999 0.81687 0.0
C287 C 0.48892 0.78205 0.79613 0.0
C288 C 0.52146 0.81813 0.80006 0.0
C289 C 0.53915 0.83897 0.82034 0.0
C290 C 0.52931 0.85718 0.84623 0.0
C291 C 0.54614 0.87663 0.86546 0.0
C292 C 0.5728 0.8782 0.85884 0.0
C293 C 0.58267 0.86038 0.8329 0.0
C294 C 0.56593 0.84088 0.81362 0.0
C295 C 0.46674 0.80924 0.65166 0.0
C296 C 0.4877 0.80399 0.63034 0.0
C297 C 0.47083 0.80801 0.6881 0.0
C298 C 0.49596 0.80157 0.70397 0.0
C299 C 0.51707 0.79682 0.68293 0.0
C300 C 0.51295 0.79783 0.64639 0.0
C301 C 0.50011 0.79979 0.74256 0.0
C302 C 0.51821 0.81749 0.76311 0.0
C303 C 0.48531 0.78179 0.75925 0.0
C304 C 0.46623 0.76229 0.73878 0.0
C305 C 0.4745 0.74422 0.71156 0.0
C306 C 0.45629 0.72624 0.69201 0.0
C307 C 0.42976 0.726 0.69958 0.0
C308 C 0.42143 0.7437 0.72682 0.0
C309 C 0.43956 0.76174 0.74643 0.0
H310 H 0.41568 0.71207 0.6844 0.0
H311 H 0.5858 0.89327 0.87376 0.0
H312 H 0.79595 0.5308 0.62418 0.0
H313 H 0.79444 0.53694 0.68831 0.0
H314 H 0.80583 0.45245 0.69324 0.0
H315 H 0.80767 0.44614 0.62927 0.0
H316 H 0.76404 0.47457 0.73174 0.0
H317 H 0.85643 0.49113 0.7181 0.0
H318 H 0.89347 0.51313 0.6945 0.0
H319 H 0.86869 0.58937 0.74048 0.0
H320 H 0.83123 0.56785 0.76394 0.0
H321 H 0.79313 0.4726 0.91664 0.0
H322 H 0.79281 0.46697 0.8524 0.0
H323 H 0.79895 0.5524 0.85146 0.0
H324 H 0.80039 0.55803 0.91578 0.0
H325 H 0.83117 0.53019 0.80999 0.0
H326 H 0.73938 0.51548 0.82406 0.0
H327 H 0.70103 0.4951 0.84687 0.0
H328 H 0.72227 0.418 0.79948 0.0
H329 H 0.76097 0.43788 0.77678 0.0
C330 C 0.79816 0.51354 0.63891 0.0
C331 C 0.80202 0.488 0.62167 0.0
C332 C 0.79734 0.51709 0.67552 0.0
C333 C 0.80011 0.49515 0.69544 0.0
C334 C 0.80365 0.46961 0.67829 0.0
C335 C 0.80482 0.46609 0.64177 0.0
C336 C 0.79939 0.49881 0.73424 0.0
C337 C 0.77885 0.48648 0.74899 0.0
C338 C 0.81831 0.51495 0.75645 0.0
C339 C 0.84086 0.52791 0.74244 0.0
C340 C 0.85873 0.51261 0.7229 0.0
C341 C 0.87983 0.52499 0.70961 0.0
C342 C 0.88339 0.55264 0.7159 0.0
C343 C 0.86588 0.56796 0.73558 0.0
C344 C 0.84473 0.55568 0.7489 0.0
C345 C 0.79422 0.49018 0.9027 0.0
C346 C 0.79675 0.51576 0.92126 0.0
C347 C 0.79391 0.48696 0.86593 0.0
C348 C 0.79548 0.50929 0.84691 0.0
C349 C 0.79774 0.53485 0.86546 0.0
C350 C 0.79849 0.53805 0.90225 0.0
C351 C 0.7957 0.50599 0.80785 0.0
C352 C 0.81621 0.51836 0.79292 0.0
C353 C 0.77651 0.49015 0.78544 0.0
C354 C 0.75322 0.47814 0.79901 0.0
C355 C 0.73599 0.49415 0.81873 0.0
C356 C 0.71416 0.48269 0.8316 0.0
C357 C 0.70925 0.45526 0.82471 0.0
C358 C 0.72612 0.43924 0.80484 0.0
C359 C 0.74798 0.4506 0.79194 0.0
H360 H 0.69235 0.44643 0.83469 0.0
H361 H 0.89974 0.56219 0.70559 0.0
H362 H 0.55257 0.80807 0.15349 0.0
H363 H 0.54512 0.80485 0.21513 0.0
H364 H 0.46079 0.79518 0.18528 0.0
H365 H 0.46806 0.79808 0.12335 0.0
H366 H 0.47499 0.83352 0.24508 0.0
H367 H 0.49339 0.74249 0.20289 0.0
H368 H 0.51963 0.70683 0.17394 0.0
H369 H 0.58622 0.72611 0.25116 0.0
H370 H 0.56049 0.76216 0.28029 0.0
H371 H 0.43965 0.79976 0.40875 0.0
H372 H 0.44501 0.79876 0.34588 0.0
H373 H 0.53002 0.79103 0.36835 0.0
H374 H 0.52464 0.79096 0.43117 0.0
H375 H 0.51469 0.76087 0.31112 0.0
H376 H 0.49951 0.85199 0.35232 0.0
H377 H 0.47604 0.8897 0.38159 0.0
H378 H 0.40714 0.87332 0.30727 0.0
H379 H 0.43009 0.83527 0.27785 0.0
C380 C 0.53242 0.80529 0.15999 0.0
C381 C 0.51089 0.8033 0.13352 0.0
C382 C 0.52823 0.80336 0.19521 0.0
C383 C 0.50244 0.79962 0.20466 0.0
C384 C 0.48085 0.79802 0.17844 0.0
C385 C 0.48505 0.7996 0.14311 0.0
C386 C 0.49807 0.79754 0.24201 0.0
C387 C 0.48328 0.81743 0.25945 0.0
C388 C 0.50967 0.777 0.26089 0.0
C389 C 0.52509 0.75519 0.24358 0.0
C390 C 0.5137 0.73927 0.21353 0.0
C391 C 0.52847 0.71896 0.19712 0.0
C392 C 0.5546 0.71425 0.21065 0.0
C393 C 0.56599 0.7298 0.24069 0.0
C394 C 0.55131 0.75016 0.25718 0.0
C395 C 0.45947 0.79767 0.40027 0.0
C396 C 0.48175 0.79561 0.42495 0.0
C397 C 0.46254 0.79726 0.36432 0.0
C398 C 0.48799 0.79542 0.35237 0.0
C399 C 0.51018 0.79257 0.37688 0.0
C400 C 0.50709 0.79256 0.41281 0.0
C401 C 0.49154 0.79691 0.31447 0.0
C402 C 0.50624 0.77695 0.29686 0.0
C403 C 0.48025 0.81768 0.29556 0.0
C404 C 0.46642 0.84061 0.31311 0.0
C405 C 0.47929 0.85631 0.34238 0.0
C406 C 0.46609 0.87776 0.35897 0.0
C407 C 0.44009 0.88386 0.34636 0.0
C408 C 0.42726 0.86855 0.31705 0.0
C409 C 0.44036 0.84705 0.30039 0.0
H410 H 0.4299 0.90047 0.35924 0.0
H411 H 0.566 0.69852 0.1979 0.0
H412 H 0.19455 0.4456 0.90583 0.0
H413 H 0.19828 0.45241 0.84404 0.0
H414 H 0.2083 0.53708 0.87295 0.0
H415 H 0.20503 0.53043 0.93499 0.0
H416 H 0.16915 0.52154 0.81346 0.0
H417 H 0.26048 0.50532 0.8555 0.0
H418 H 0.29665 0.47995 0.88454 0.0
H419 H 0.27865 0.41238 0.80799 0.0
H420 H 0.24209 0.43723 0.77878 0.0
H421 H 0.20153 0.55747 0.65009 0.0
H422 H 0.20389 0.55211 0.71304 0.0
H423 H 0.21172 0.46692 0.68997 0.0
H424 H 0.21034 0.47228 0.62697 0.0
H425 H 0.24246 0.48302 0.74746 0.0
H426 H 0.15206 0.49645 0.70528 0.0
H427 H 0.11499 0.51942 0.67465 0.0
H428 H 0.12768 0.58816 0.75065 0.0
H429 H 0.16561 0.56593 0.78106 0.0
C430 C 0.19756 0.46568 0.89906 0.0
C431 C 0.1995 0.48749 0.92526 0.0
C432 C 0.19979 0.4695 0.8638 0.0
C433 C 0.20368 0.49522 0.85406 0.0
C434 C 0.20534 0.51708 0.88004 0.0
C435 C 0.20354 0.51323 0.91542 0.0
C436 C 0.20559 0.49929 0.81662 0.0
C437 C 0.18538 0.51352 0.7991 0.0
C438 C 0.2263 0.48797 0.79777 0.0
C439 C 0.24837 0.47305 0.81517 0.0
C440 C 0.26407 0.48497 0.84504 0.0
C441 C 0.28468 0.4707 0.8615 0.0
C442 C 0.2899 0.44454 0.84818 0.0
C443 C 0.27456 0.43263 0.81831 0.0
C444 C 0.25391 0.44681 0.80178 0.0
C445 C 0.20394 0.5376 0.65843 0.0
C446 C 0.20548 0.51526 0.63354 0.0
C447 C 0.20522 0.53456 0.69443 0.0
C448 C 0.20743 0.50904 0.70623 0.0
C449 C 0.20993 0.48679 0.68152 0.0
C450 C 0.20905 0.48987 0.6455 0.0
C451 C 0.20605 0.50549 0.74411 0.0
C452 C 0.22627 0.49122 0.76174 0.0
C453 C 0.18504 0.51636 0.76295 0.0
C454 C 0.16188 0.52961 0.74524 0.0
C455 C 0.14709 0.51654 0.71534 0.0
C456 C 0.1259 0.52944 0.69801 0.0
C457 C 0.11889 0.55523 0.71073 0.0
C458 C 0.13313 0.56819 0.74081 0.0
C459 C 0.15454 0.55547 0.75806 0.0
H460 H 0.10245 0.56518 0.69728 0.0
H461 H 0.30586 0.43352 0.86095 0.0
H462 H 0.54803 0.17297 0.41368 0.0
H463 H 0.54235 0.17425 0.34976 0.0
H464 H 0.46946 0.21819 0.3587 0.0
H465 H 0.47508 0.21721 0.42285 0.0
H466 H 0.50399 0.1552 0.29961 0.0
H467 H 0.46551 0.26334 0.29671 0.0
H468 H 0.4691 0.30635 0.33411 0.0
H469 H 0.54492 0.28344 0.38264 0.0
H470 H 0.54195 0.24048 0.3452 0.0
H471 H 0.45051 0.17686 0.12686 0.0
H472 H 0.45659 0.1764 0.1909 0.0
H473 H 0.52767 0.22462 0.19583 0.0
H474 H 0.52169 0.22534 0.13165 0.0
H475 H 0.4964 0.24172 0.24787 0.0
H476 H 0.53332 0.15939 0.20147 0.0
H477 H 0.53353 0.11661 0.16388 0.0
H478 H 0.46814 0.08809 0.21395 0.0
H479 H 0.46728 0.13088 0.25149 0.0
C480 C 0.53072 0.18287 0.4021 0.0
C481 C 0.51205 0.19511 0.42342 0.0
C482 C 0.52748 0.18349 0.36552 0.0
C483 C 0.50563 0.19651 0.34951 0.0
C484 C 0.48666 0.20831 0.37059 0.0
C485 C 0.48984 0.20764 0.40723 0.0
C486 C 0.50296 0.19798 0.31079 0.0
C487 C 0.50224 0.17411 0.2883 0.0
C488 C 0.50119 0.22267 0.29605 0.0
C489 C 0.50334 0.24858 0.31841 0.0
C490 C 0.48298 0.26753 0.31528 0.0
C491 C 0.48491 0.29189 0.3365 0.0
C492 C 0.50718 0.29758 0.36082 0.0
C493 C 0.52763 0.27896 0.36389 0.0
C494 C 0.52582 0.25459 0.34271 0.0
C495 C 0.46741 0.18748 0.14152 0.0
C496 C 0.48569 0.20106 0.12409 0.0
C497 C 0.47088 0.18711 0.17813 0.0
C498 C 0.49272 0.20025 0.19806 0.0
C499 C 0.51069 0.21433 0.1809 0.0
C500 C 0.50729 0.21464 0.14422 0.0
C501 C 0.49698 0.19893 0.23674 0.0
C502 C 0.49801 0.22281 0.2592 0.0
C503 C 0.49952 0.17426 0.25147 0.0
C504 C 0.50007 0.14844 0.22906 0.0
C505 C 0.51884 0.14408 0.20427 0.0
C506 C 0.51911 0.11981 0.183 0.0
C507 C 0.50082 0.09967 0.18646 0.0
C508 C 0.48227 0.10373 0.21126 0.0
C509 C 0.4819 0.12798 0.23257 0.0
H510 H 0.50106 0.0809 0.16997 0.0
H511 H 0.50862 0.31644 0.37724 0.0
H512 H 0.90368 0.57215 0.03304 0.0
H513 H 0.95049 0.56027 0.03062 0.0
H514 H 0.93 0.47691 0.028 0.0
H515 H 0.88309 0.48857 0.03049 0.0
H516 H 0.97422 0.49159 0.07458 0.0
H517 H 0.94245 0.50111 0.95385 0.0
H518 H 0.92061 0.52429 0.90515 0.0
H519 H 0.97865 0.58757 0.92714 0.0
H520 H 0.00061 0.56495 0.97633 0.0
H521 H 0.09191 0.43337 0.01758 0.0
H522 H 0.04572 0.44712 0.02063 0.0
H523 H 0.06934 0.52958 0.02262 0.0
H524 H 0.11577 0.51602 0.01957 0.0
H525 H 0.02398 0.51657 0.97697 0.0
H526 H 0.05489 0.50909 0.09769 0.0
H527 H 0.07675 0.48785 0.148 0.0
H528 H 0.0211 0.42237 0.12701 0.0
H529 H 0.99883 0.44335 0.07649 0.0
C530 C 0.90911 0.55128 0.03207 0.0
C531 C 0.88964 0.53128 0.03185 0.0
C532 C 0.93585 0.54454 0.03053 0.0
C533 C 0.94363 0.51771 0.02877 0.0
C534 C 0.92436 0.49774 0.02927 0.0
C535 C 0.89757 0.50444 0.0306 0.0
C536 C 0.97189 0.51048 0.02633 0.0
C537 C 0.98499 0.49672 0.05299 0.0
C538 C 0.98611 0.51789 0.99868 0.0
C539 C 0.97301 0.53147 0.96901 0.0
C540 C 0.95042 0.52008 0.94849 0.0
C541 C 0.93805 0.5331 0.92076 0.0
C542 C 0.94819 0.55742 0.91311 0.0
C543 C 0.97079 0.56875 0.93313 0.0
C544 C 0.98322 0.55583 0.96092 0.0
C545 C 0.08733 0.45444 0.01854 0.0
C546 C 0.10755 0.47362 0.01844 0.0
C547 C 0.06092 0.46226 0.02044 0.0
C548 C 0.05419 0.48937 0.02221 0.0
C549 C 0.07418 0.50856 0.02135 0.0
C550 C 0.10068 0.50077 0.0197 0.0
C551 C 0.02622 0.49755 0.0251 0.0
C552 C 0.01318 0.51147 0.99855 0.0
C553 C 0.01207 0.49045 0.05295 0.0
C554 C 0.02539 0.47765 0.08313 0.0
C555 C 0.04745 0.49006 0.10364 0.0
C556 C 0.05988 0.47808 0.13224 0.0
C557 C 0.05044 0.45366 0.1406 0.0
C558 C 0.02843 0.44125 0.12046 0.0
C559 C 0.01584 0.45322 0.09191 0.0
H560 H 0.06012 0.4444 0.16274 0.0
H561 H 0.93859 0.56747 0.89163 0.0
H562 H 0.5115 0.88423 0.53249 0.0
H563 H 0.52342 0.93128 0.53265 0.0
H564 H 0.44025 0.95211 0.52522 0.0
H565 H 0.4281 0.90511 0.52467 0.0
H566 H 0.46691 0.97715 0.4798 0.0
H567 H 0.47835 0.96371 0.60275 0.0
H568 H 0.49563 0.94159 0.65485 0.0
H569 H 0.57576 0.9596 0.63572 0.0
H570 H 0.55896 0.98151 0.58317 0.0
H571 H 0.48483 0.11746 0.52269 0.0
H572 H 0.47184 0.07066 0.52277 0.0
H573 H 0.55455 0.04808 0.53098 0.0
H574 H 0.56773 0.09472 0.5313 0.0
H575 H 0.52746 0.0241 0.57644 0.0
H576 H 0.51625 0.03702 0.45326 0.0
H577 H 0.49918 0.05893 0.40089 0.0
H578 H 0.41889 0.04179 0.4202 0.0
H579 H 0.43548 0.02009 0.47302 0.0
C580 C 0.49573 0.89881 0.53097 0.0
C581 C 0.46885 0.89092 0.52869 0.0
C582 C 0.50259 0.9257 0.53117 0.0
C583 C 0.48271 0.9452 0.52927 0.0
C584 C 0.45588 0.93737 0.52673 0.0
C585 C 0.449 0.9105 0.52655 0.0
C586 C 0.48989 0.97376 0.52964 0.0
C587 C 0.47985 0.98754 0.50116 0.0
C588 C 0.50724 0.98709 0.55715 0.0
C589 C 0.51739 0.97402 0.58882 0.0
C590 C 0.49966 0.96277 0.60948 0.0
C591 C 0.50937 0.9503 0.63912 0.0
C592 C 0.53678 0.94913 0.64854 0.0
C593 C 0.55454 0.96049 0.62837 0.0
C594 C 0.54493 0.97296 0.59867 0.0
C595 C 0.50025 0.10253 0.52445 0.0
C596 C 0.52731 0.10982 0.52692 0.0
C597 C 0.49279 0.07579 0.52437 0.0
C598 C 0.51224 0.05589 0.5266 0.0
C599 C 0.53923 0.06314 0.52925 0.0
C600 C 0.54671 0.08981 0.52931 0.0
C601 C 0.50453 0.02749 0.52655 0.0
C602 C 0.51448 0.01373 0.5551 0.0
C603 C 0.48713 0.01418 0.49908 0.0
C604 C 0.4771 0.02718 0.46731 0.0
C605 C 0.49494 0.03812 0.44652 0.0
C606 C 0.48536 0.05047 0.41672 0.0
C607 C 0.45797 0.05182 0.40728 0.0
C608 C 0.4401 0.04076 0.42758 0.0
C609 C 0.44959 0.02842 0.45743 0.0
H610 H 0.45058 0.06138 0.3842 0.0
H611 H 0.54426 0.93948 0.6715 0.0
H612 H 0.09461 0.56871 0.52226 0.0
H613 H 0.04754 0.55684 0.52094 0.0
H614 H 0.06899 0.47575 0.53732 0.0
H615 H 0.11617 0.48741 0.5386 0.0
H616 H 0.01782 0.51989 0.47535 0.0
H617 H 0.02549 0.45228 0.58913 0.0
H618 H 0.05167 0.44867 0.64645 0.0
H619 H 0.06741 0.53307 0.65743 0.0
H620 H 0.0415 0.53711 0.60021 0.0
H621 H 0.90417 0.43215 0.52728 0.0
H622 H 0.95114 0.44437 0.52876 0.0
H623 H 0.92915 0.5254 0.51283 0.0
H624 H 0.88203 0.51338 0.51142 0.0
H625 H 0.98053 0.48151 0.57468 0.0
H626 H 0.97265 0.54913 0.46099 0.0
H627 H 0.94635 0.5527 0.40374 0.0
H628 H 0.931 0.46824 0.3926 0.0
H629 H 0.95702 0.46423 0.44976 0.0
C630 C 0.08934 0.54835 0.52566 0.0
C631 C 0.10913 0.52898 0.53053 0.0
C632 C 0.06244 0.54161 0.52481 0.0
C633 C 0.05482 0.51549 0.52928 0.0
C634 C 0.07449 0.4961 0.5342 0.0
C635 C 0.10142 0.50277 0.53474 0.0
C636 C 0.02624 0.50839 0.528 0.0
C637 C 0.00957 0.51186 0.49726 0.0
C638 C 0.01566 0.49733 0.55624 0.0
C639 C 0.0318 0.49492 0.59026 0.0
C640 C 0.03463 0.47003 0.60377 0.0
C641 C 0.04946 0.46791 0.63621 0.0
C642 C 0.06133 0.4906 0.6555 0.0
C643 C 0.05843 0.51546 0.64236 0.0
C644 C 0.04377 0.51766 0.60986 0.0
C645 C 0.90929 0.45257 0.52402 0.0
C646 C 0.88937 0.47181 0.51924 0.0
C647 C 0.93614 0.45951 0.52496 0.0
C648 C 0.94358 0.48571 0.52067 0.0
C649 C 0.92378 0.50498 0.51583 0.0
C650 C 0.8969 0.49812 0.51521 0.0
C651 C 0.97211 0.49299 0.52203 0.0
C652 C 0.98878 0.48956 0.55278 0.0
C653 C 0.98268 0.50408 0.4938 0.0
C654 C 0.96653 0.50645 0.45978 0.0
C655 C 0.96357 0.53136 0.44633 0.0
C656 C 0.94868 0.53346 0.41393 0.0
C657 C 0.93688 0.51074 0.39462 0.0
C658 C 0.93993 0.48587 0.40769 0.0
C659 C 0.95465 0.48369 0.44015 0.0
H660 H 0.92545 0.51239 0.36947 0.0
H661 H 0.07269 0.48894 0.68069 0.0
H662 H 0.57199 0.90734 0.05636 0.0
H663 H 0.56162 0.95432 0.05135 0.0
H664 H 0.48 0.93301 0.01551 0.0
H665 H 0.49016 0.88593 0.02036 0.0
H666 H 0.50138 0.96713 0.97386 0.0
H667 H 0.49519 0.96141 0.09731 0.0
H668 H 0.51068 0.95102 0.15751 0.0
H669 H 0.57628 0.00575 0.16099 0.0
H670 H 0.5614 0.01617 0.10056 0.0
H671 H 0.43949 0.09296 0.99332 0.0
H672 H 0.45369 0.04696 0.9972 0.0
H673 H 0.53348 0.07438 0.03404 0.0
H674 H 0.51935 0.1207 0.03046 0.0
H675 H 0.51556 0.03769 0.07443 0.0
H676 H 0.5208 0.04478 0.9518 0.0
H677 H 0.50506 0.05544 0.89181 0.0
H678 H 0.44135 0.99833 0.88671 0.0
H679 H 0.45647 0.98759 0.94692 0.0
C680 C 0.55179 0.91263 0.04759 0.0
C681 C 0.53188 0.89289 0.03878 0.0
C682 C 0.5459 0.93951 0.04484 0.0
C683 C 0.52002 0.94713 0.03322 0.0
C684 C 0.5001 0.92751 0.02452 0.0
C685 C 0.50592 0.90064 0.02746 0.0
C686 C 0.51387 0.97551 0.02935 0.0
C687 C 0.50417 0.98253 0.99592 0.0
C688 C 0.5183 0.99565 0.05795 0.0
C689 C 0.52735 0.98933 0.09424 0.0
C690 C 0.51307 0.97103 0.11077 0.0
C691 C 0.52171 0.96518 0.14497 0.0
C692 C 0.5445 0.97765 0.16302 0.0
C693 C 0.55866 0.99606 0.14694 0.0
C694 C 0.55012 0.00196 0.11273 0.0
C695 C 0.46012 0.08926 1.00202 0.0
C696 C 0.47831 0.11051 0.01154 0.0
C697 C 0.46822 0.06292 1.00409 0.0
C698 C 0.49468 0.05726 0.01563 0.0
C699 C 0.51297 0.07836 0.02499 0.0
C700 C 0.5049 0.10478 0.02278 0.0
C701 C 0.50285 0.02928 0.01899 0.0
C702 C 0.51293 0.02232 0.05231 0.0
C703 C 0.49879 0.00919 0.99028 0.0
C704 C 0.48964 0.01555 0.95402 0.0
C705 C 0.5033 0.03465 0.93802 0.0
C706 C 0.49451 0.04068 0.90394 0.0
C707 C 0.47218 0.02762 0.88549 0.0
C708 C 0.45863 0.00845 0.90105 0.0
C709 C 0.46732 0.00237 0.93514 0.0
H710 H 0.46542 0.03231 0.85911 0.0
H711 H 0.55114 0.97311 0.18951 0.0
H712 H 0.22206 0.36826 0.01321 0.0
H713 H 0.26043 0.33894 0.01541 0.0
H714 H 0.31325 0.40723 0.02787 0.0
H715 H 0.27467 0.43703 0.02551 0.0
H716 H 0.32865 0.3658 0.97945 0.0
H717 H 0.30612 0.37694 0.09799 0.0
H718 H 0.2764 0.37878 0.14559 0.0
H719 H 0.25532 0.29627 0.11725 0.0
H720 H 0.2846 0.29403 0.06909 0.0
H721 H 0.43646 0.27643 0.02199 0.0
H722 H 0.40593 0.31433 0.02504 0.0
H723 H 0.33905 0.25989 0.01454 0.0
H724 H 0.36924 0.22205 0.01161 0.0
H725 H 0.33594 0.29991 0.06795 0.0
H726 H 0.35437 0.29063 0.94545 0.0
H727 H 0.3836 0.28872 0.89725 0.0
H728 H 0.41253 0.3679 0.93343 0.0
H729 H 0.38374 0.37011 0.98219 0.0
C730 C 0.24179 0.37716 0.01637 0.0
C731 C 0.2453 0.40503 0.01941 0.0
C732 C 0.26371 0.36033 0.01772 0.0
C733 C 0.28964 0.37095 0.02229 0.0
C734 C 0.29335 0.3987 0.02449 0.0
C735 C 0.27132 0.41566 0.02324 0.0
C736 C 0.3126 0.35268 0.02499 0.0
C737 C 0.33064 0.35175 0.99924 0.0
C738 C 0.31494 0.33421 0.05061 0.0
C739 C 0.29746 0.33538 0.07976 0.0
C740 C 0.29502 0.35923 0.10174 0.0
C741 C 0.27826 0.36034 0.12885 0.0
C742 C 0.26395 0.33767 0.13441 0.0
C743 C 0.26642 0.31382 0.11291 0.0
C744 C 0.28312 0.31261 0.08573 0.0
C745 C 0.41524 0.27255 0.02029 0.0
C746 C 0.40527 0.24622 0.01654 0.0
C747 C 0.39786 0.29421 0.02194 0.0
C748 C 0.37026 0.28987 0.0199 0.0
C749 C 0.3603 0.26365 0.01626 0.0
C750 C 0.3776 0.24204 0.01445 0.0
C751 C 0.35149 0.31248 0.02178 0.0
C752 C 0.33426 0.31425 0.04852 0.0
C753 C 0.34996 0.33168 0.99711 0.0
C754 C 0.36716 0.33041 0.96772 0.0
C755 C 0.36714 0.30754 0.94332 0.0
C756 C 0.38359 0.30642 0.91586 0.0
C757 C 0.39997 0.32814 0.91235 0.0
C758 C 0.39987 0.35107 0.93623 0.0
C759 C 0.38349 0.35227 0.96377 0.0
H760 H 0.41269 0.32724 0.89108 0.0
H761 H 0.25099 0.33856 0.15541 0.0
H762 H 0.77071 0.36987 0.5036 0.0
H763 H 0.73185 0.34141 0.5035 0.0
H764 H 0.68248 0.41089 0.51836 0.0
H765 H 0.72169 0.43983 0.51892 0.0
H766 H 0.67215 0.37311 0.56212 0.0
H767 H 0.67724 0.37526 0.43947 0.0
H768 H 0.69851 0.37334 0.38397 0.0
H769 H 0.72058 0.2919 0.39427 0.0
H770 H 0.6998 0.29343 0.45012 0.0
H771 H 0.56221 0.27757 0.5329 0.0
H772 H 0.59046 0.31628 0.52752 0.0
H773 H 0.65824 0.26459 0.51885 0.0
H774 H 0.63041 0.226 0.52435 0.0
H775 H 0.65165 0.29975 0.46647 0.0
H776 H 0.65201 0.3011 0.59389 0.0
H777 H 0.63056 0.30348 0.64932 0.0
H778 H 0.59689 0.37934 0.62846 0.0
H779 H 0.61785 0.37721 0.57262 0.0
C780 C 0.75162 0.37922 0.50669 0.0
C781 C 0.7493 0.40716 0.51116 0.0
C782 C 0.72937 0.36288 0.50646 0.0
C783 C 0.70422 0.37404 0.51041 0.0
C784 C 0.70172 0.40191 0.51508 0.0
C785 C 0.7241 0.41838 0.51527 0.0
C786 C 0.68095 0.35615 0.51056 0.0
C787 C 0.6672 0.35745 0.54084 0.0
C788 C 0.67462 0.33564 0.48287 0.0
C789 C 0.68704 0.33452 0.44912 0.0
C790 C 0.68678 0.35699 0.43004 0.0
C791 C 0.69873 0.35596 0.39848 0.0
C792 C 0.71092 0.33253 0.38562 0.0
C793 C 0.71113 0.31004 0.40426 0.0
C794 C 0.69922 0.31096 0.43584 0.0
C795 C 0.58317 0.27449 0.53005 0.0
C796 C 0.59408 0.24871 0.52905 0.0
C797 C 0.59924 0.29661 0.52701 0.0
C798 C 0.62638 0.29322 0.52274 0.0
C799 C 0.6373 0.26757 0.52198 0.0
C800 C 0.62137 0.24556 0.5253 0.0
C801 C 0.64367 0.31613 0.51853 0.0
C802 C 0.65621 0.31578 0.48737 0.0
C803 C 0.6487 0.33754 0.54528 0.0
C804 C 0.6362 0.33884 0.57888 0.0
C805 C 0.63982 0.31817 0.60096 0.0
C806 C 0.6278 0.31949 0.63249 0.0
C807 C 0.61229 0.3415 0.64235 0.0
C808 C 0.60885 0.36227 0.62075 0.0
C809 C 0.6208 0.36102 0.58917 0.0
H810 H 0.603 0.34249 0.66677 0.0
H811 H 0.72017 0.33178 0.36119 0.0
H812 H 0.76974 0.63018 0.04696 0.0
H813 H 0.7299 0.65701 0.05205 0.0
H814 H 0.6807 0.58644 0.02607 0.0
H815 H 0.72079 0.55914 0.02084 0.0
H816 H 0.66272 0.62991 0.98974 0.0
H817 H 0.6863 0.61181 0.10775 0.0
H818 H 0.71624 0.60726 0.16168 0.0
H819 H 0.73411 0.69117 0.17147 0.0
H820 H 0.70476 0.69617 0.11713 0.0
H821 H 0.55787 0.72329 0.02891 0.0
H822 H 0.58521 0.68297 0.03078 0.0
H823 H 0.65565 0.73198 0.05859 0.0
H824 H 0.62874 0.77204 0.05702 0.0
H825 H 0.65474 0.69039 0.09894 0.0
H826 H 0.63896 0.70519 0.9743 0.0
H827 H 0.61019 0.70973 0.91928 0.0
H828 H 0.57753 0.63144 0.92274 0.0
H829 H 0.6059 0.62659 0.97807 0.0
C830 C 0.7505 0.62025 0.04227 0.0
C831 C 0.74845 0.59248 0.0336 0.0
C832 C 0.72774 0.63563 0.04537 0.0
C833 C 0.70241 0.62363 0.03993 0.0
C834 C 0.70013 0.596 0.03057 0.0
C835 C 0.72302 0.58048 0.02765 0.0
C836 C 0.67859 0.64047 0.04371 0.0
C837 C 0.66051 0.64267 0.01388 0.0
C838 C 0.67586 0.65714 0.0752 0.0
C839 C 0.69336 0.65434 0.1082 0.0
C840 C 0.69674 0.62927 0.12125 0.0
C841 C 0.71359 0.62661 0.15192 0.0
C842 C 0.72704 0.6489 0.17001 0.0
C843 C 0.72366 0.67392 0.15745 0.0
C844 C 0.70689 0.67668 0.12671 0.0
C845 C 0.57918 0.72542 0.03553 0.0
C846 C 0.59115 0.75088 0.04266 0.0
C847 C 0.59474 0.70239 0.03655 0.0
C848 C 0.62245 0.70453 0.04474 0.0
C849 C 0.63429 0.72989 0.05237 0.0
C850 C 0.61886 0.7528 0.05125 0.0
C851 C 0.63967 0.68067 0.04451 0.0
C852 C 0.65648 0.67712 0.07511 0.0
C853 C 0.64119 0.66277 0.01378 0.0
C854 C 0.62426 0.66567 0.98051 0.0
C855 C 0.62548 0.68904 0.96346 0.0
C856 C 0.60928 0.69165 0.93221 0.0
C857 C 0.59197 0.67093 0.91759 0.0
C858 C 0.5909 0.6475 0.93414 0.0
C859 C 0.60703 0.64481 0.96544 0.0
H860 H 0.57945 0.67298 0.89339 0.0
H861 H 0.74008 0.64679 0.19376 0.0
H862 H 0.4382 0.72187 0.52081 0.0
H863 H 0.41053 0.68257 0.52571 0.0
H864 H 0.34189 0.73309 0.53434 0.0
H865 H 0.36907 0.77215 0.52932 0.0
H866 H 0.34888 0.69791 0.58649 0.0
H867 H 0.34922 0.69718 0.45899 0.0
H868 H 0.37095 0.69491 0.40379 0.0
H869 H 0.40459 0.61906 0.42473 0.0
H870 H 0.38332 0.62106 0.48035 0.0
H871 H 0.22912 0.6297 0.54599 0.0
H872 H 0.26856 0.65756 0.54717 0.0
H873 H 0.31695 0.58732 0.53286 0.0
H874 H 0.27719 0.55899 0.53127 0.0
H875 H 0.32856 0.62531 0.48975 0.0
H876 H 0.3219 0.62231 0.6119 0.0
H877 H 0.29996 0.6241 0.66687 0.0
H878 H 0.2793 0.70601 0.65745 0.0
H879 H 0.30076 0.70462 0.60212 0.0
C880 C 0.41718 0.72454 0.52355 0.0
C881 C 0.40584 0.75014 0.52469 0.0
C882 C 0.40144 0.7021 0.52633 0.0
C883 C 0.37423 0.70501 0.53048 0.0
C884 C 0.3629 0.73047 0.53133 0.0
C885 C 0.37847 0.75277 0.52829 0.0
C886 C 0.35718 0.68184 0.53443 0.0
C887 C 0.3444 0.68202 0.56537 0.0
C888 C 0.35223 0.6606 0.50741 0.0
C889 C 0.365 0.65944 0.47404 0.0
C890 C 0.36147 0.68015 0.452 0.0
C891 C 0.37365 0.67888 0.4206 0.0
C892 C 0.38923 0.6569 0.41082 0.0
C893 C 0.39258 0.6361 0.43238 0.0
C894 C 0.38047 0.63729 0.46383 0.0
C895 C 0.24811 0.62006 0.54322 0.0
C896 C 0.25001 0.59209 0.53866 0.0
C897 C 0.2707 0.63605 0.54408 0.0
C898 C 0.29574 0.62451 0.54064 0.0
C899 C 0.2978 0.5966 0.53578 0.0
C900 C 0.2751 0.58048 0.53498 0.0
C901 C 0.31937 0.64203 0.54125 0.0
C902 C 0.33348 0.64079 0.51128 0.0
C903 C 0.3257 0.66227 0.56928 0.0
C904 C 0.31286 0.66331 0.60272 0.0
C905 C 0.31253 0.64066 0.62141 0.0
C906 C 0.30019 0.64161 0.65266 0.0
C907 C 0.28822 0.66514 0.66563 0.0
C908 C 0.28859 0.68779 0.64739 0.0
C909 C 0.30088 0.68695 0.6161 0.0
H910 H 0.27867 0.66583 0.68983 0.0
H911 H 0.39863 0.65595 0.38649 0.0
loop_
_geom_bond_atom_site_label_1
_geom_bond_atom_site_label_2
_geom_bond_distance
_geom_bond_site_symmetry_2
_ccdc_geom_bond_type
C0 O2 1.247 . S
C0 O4 1.258 . S
C1 O8 1.247 . S
C1 O9 1.258 . S
O2 C0 1.247 . S
O2 Zn3 2.028 . S
Zn3 O2 2.028 . S
Zn3 O7 2.035 . S
Zn3 O9 2.035 . S
Zn3 O10 2.028 1_554 S
O4 C0 1.258 . S
O4 Zn5 2.035 . S
Zn5 O4 2.035 . S
Zn5 O6 2.028 . S
Zn5 O8 2.028 . S
Zn5 O11 2.035 1_554 S
O6 Zn5 2.028 . S
O6 C12 1.247 . S
O7 Zn3 2.035 . S
O7 C12 1.258 . S
O8 C1 1.247 . S
O8 Zn5 2.028 . S
O9 C1 1.258 . S
O9 Zn3 2.035 . S
O10 Zn3 2.028 1_556 S
O10 C13 1.247 . S
O11 Zn5 2.035 1_556 S
O11 C13 1.258 . S
C12 O6 1.247 . S
C12 O7 1.258 . S
C13 O10 1.247 . S
C13 O11 1.258 . S
C14 O16 1.247 . S
C14 O18 1.258 . S
C15 O22 1.247 . S
C15 O23 1.258 . S
O16 C14 1.247 . S
O16 Zn17 2.028 . S
Zn17 O16 2.028 . S
Zn17 O21 2.035 . S
Zn17 O23 2.035 . S
Zn17 O24 2.028 . S
O18 C14 1.258 . S
O18 Zn19 2.035 . S
Zn19 O18 2.035 . S
Zn19 O20 2.028 . S
Zn19 O22 2.028 . S
Zn19 O25 2.035 . S
O20 Zn19 2.028 . S
O20 C26 1.247 . S
O21 Zn17 2.035 . S
O21 C26 1.258 . S
O22 C15 1.247 . S
O22 Zn19 2.028 . S
O23 C15 1.258 . S
O23 Zn17 2.035 . S
O24 Zn17 2.028 . S
O24 C27 1.247 . S
O25 Zn19 2.035 . S
O25 C27 1.258 . S
C26 O20 1.247 . S
C26 O21 1.258 . S
C27 O24 1.247 . S
C27 O25 1.258 . S
C28 O30 1.247 . S
C28 O32 1.258 . S
C29 O36 1.247 . S
C29 O37 1.258 . S
O30 C28 1.247 . S
O30 Zn31 2.028 . S
Zn31 O30 2.028 . S
Zn31 O35 2.035 . S
Zn31 O37 2.035 . S
Zn31 O38 2.028 1_554 S
O32 C28 1.258 . S
O32 Zn33 2.035 . S
Zn33 O32 2.035 . S
Zn33 O34 2.028 . S
Zn33 O36 2.028 . S
Zn33 O39 2.035 1_554 S
O34 Zn33 2.028 . S
O34 C40 1.247 . S
O35 Zn31 2.035 . S
O35 C40 1.258 . S
O36 C29 1.247 . S
O36 Zn33 2.028 . S
O37 C29 1.258 . S
O37 Zn31 2.035 . S
O38 Zn31 2.028 1_556 S
O38 C41 1.247 . S
O39 Zn33 2.035 1_556 S
O39 C41 1.258 . S
C40 O34 1.247 . S
C40 O35 1.258 . S
C41 O38 1.247 . S
C41 O39 1.258 . S
C42 O44 1.247 . S
C42 O46 1.258 . S
C43 O50 1.247 . S
C43 O51 1.258 . S
O44 C42 1.247 . S
O44 Zn45 2.028 . S
Zn45 O44 2.028 . S
Zn45 O49 2.035 . S
Zn45 O51 2.035 . S
Zn45 O52 2.028 . S
O46 C42 1.258 . S
O46 Zn47 2.035 . S
Zn47 O46 2.035 . S
Zn47 O48 2.028 . S
Zn47 O50 2.028 . S
Zn47 O53 2.035 . S
O48 Zn47 2.028 . S
O48 C54 1.247 . S
O49 Zn45 2.035 . S
O49 C54 1.258 . S
O50 C43 1.247 . S
O50 Zn47 2.028 . S
O51 C43 1.258 . S
O51 Zn45 2.035 . S
O52 Zn45 2.028 . S
O52 C55 1.247 . S
O53 Zn47 2.035 . S
O53 C55 1.258 . S
C54 O48 1.247 . S
C54 O49 1.258 . S
C55 O52 1.247 . S
C55 O53 1.258 . S
C56 O58 1.247 . S
C56 O60 1.258 . S
C57 O64 1.247 . S
C57 O65 1.258 . S
O58 C56 1.247 . S
O58 Zn59 2.028 . S
Zn59 O58 2.028 . S
Zn59 O63 2.035 . S
Zn59 O65 2.035 . S
Zn59 O66 2.028 . S
O60 C56 1.258 . S
O60 Zn61 2.035 . S
Zn61 O60 2.035 . S
Zn61 O62 2.028 . S
Zn61 O64 2.028 . S
Zn61 O67 2.035 . S
O62 Zn61 2.028 . S
O62 C68 1.247 . S
O63 Zn59 2.035 . S
O63 C68 1.258 . S
O64 C57 1.247 . S
O64 Zn61 2.028 . S
O65 C57 1.258 . S
O65 Zn59 2.035 . S
O66 Zn59 2.028 . S
O66 C69 1.247 . S
O67 Zn61 2.035 . S
O67 C69 1.258 . S
C68 O62 1.247 . S
C68 O63 1.258 . S
C69 O66 1.247 . S
C69 O67 1.258 . S
C70 O72 1.247 . S
C70 O74 1.258 . S
C71 O78 1.247 . S
C71 O79 1.258 . S
O72 C70 1.247 . S
O72 Zn73 2.028 . S
Zn73 O72 2.028 . S
Zn73 O77 2.035 . S
Zn73 O79 2.035 . S
Zn73 O80 2.028 1_554 S
O74 C70 1.258 . S
O74 Zn75 2.035 . S
Zn75 O74 2.035 . S
Zn75 O76 2.028 . S
Zn75 O78 2.028 . S
Zn75 O81 2.035 1_554 S
O76 Zn75 2.028 . S
O76 C82 1.247 . S
O77 Zn73 2.035 . S
O77 C82 1.258 . S
O78 C71 1.247 . S
O78 Zn75 2.028 . S
O79 C71 1.258 . S
O79 Zn73 2.035 . S
O80 Zn73 2.028 1_556 S
O80 C83 1.247 . S
O81 Zn75 2.035 1_556 S
O81 C83 1.258 . S
C82 O76 1.247 . S
C82 O77 1.258 . S
C83 O80 1.247 . S
C83 O81 1.258 . S
C84 O86 1.247 . S
C84 O88 1.258 . S
C85 O92 1.247 . S
C85 O93 1.258 . S
O86 C84 1.247 . S
O86 Zn87 2.028 . S
Zn87 O86 2.028 . S
Zn87 O91 2.035 . S
Zn87 O93 2.035 . S
Zn87 O94 2.028 . S
O88 C84 1.258 . S
O88 Zn89 2.035 . S
Zn89 O88 2.035 . S
Zn89 O90 2.028 . S
Zn89 O92 2.028 . S
Zn89 O95 2.035 . S
O90 Zn89 2.028 . S
O90 C96 1.247 . S
O91 Zn87 2.035 . S
O91 C96 1.258 . S
O92 C85 1.247 . S
O92 Zn89 2.028 . S
O93 C85 1.258 . S
O93 Zn87 2.035 . S
O94 Zn87 2.028 . S
O94 C97 1.247 . S
O95 Zn89 2.035 . S
O95 C97 1.258 . S
C96 O90 1.247 . S
C96 O91 1.258 . S
C97 O94 1.247 . S
C97 O95 1.258 . S
C98 O100 1.247 . S
C98 O102 1.258 . S
C99 O106 1.247 . S
C99 O107 1.258 . S
O100 C98 1.247 . S
O100 Zn101 2.028 . S
Zn101 O100 2.028 . S
Zn101 O105 2.035 1_554 S
Zn101 O107 2.035 . S
Zn101 O108 2.028 . S
O102 C98 1.258 . S
O102 Zn103 2.035 . S
Zn103 O102 2.035 . S
Zn103 O104 2.028 1_554 S
Zn103 O106 2.028 . S
Zn103 O109 2.035 . S
O104 Zn103 2.028 1_556 S
O104 C110 1.247 . S
O105 Zn101 2.035 1_556 S
O105 C110 1.258 . S
O106 C99 1.247 . S
O106 Zn103 2.028 . S
O107 C99 1.258 . S
O107 Zn101 2.035 . S
O108 Zn101 2.028 . S
O108 C111 1.247 . S
O109 Zn103 2.035 . S
O109 C111 1.258 . S
C110 O104 1.247 . S
C110 O105 1.258 . S
C111 O108 1.247 . S
C111 O109 1.258 . S
H112 C130 0.951 . S
H113 C132 0.951 . S
H114 C134 0.950 . S
H115 C135 0.950 . S
H116 C137 0.950 . S
H117 C140 0.950 . S
H118 C141 0.950 . S
H119 C143 0.950 . S
H120 C144 0.950 . S
H121 C145 0.951 . S
H122 C147 0.951 . S
H123 C149 0.950 . S
H124 C150 0.950 . S
H125 C152 0.950 . S
H126 C155 0.950 . S
H127 C156 0.950 . S
H128 C158 0.950 . S
H129 C159 0.950 . S
C130 H112 0.951 . S
C130 C131 1.366 . S
C130 C132 1.388 . S
C131 C130 1.366 . S
C131 C135 1.385 . S
C132 H113 0.951 . S
C132 C130 1.388 . S
C132 C133 1.366 . S
C133 C132 1.366 . S
C133 C134 1.414 . S
C133 C136 1.499 . S
C134 H114 0.950 . S
C134 C133 1.414 . S
C134 C135 1.374 . S
C135 H115 0.950 . S
C135 C131 1.385 . S
C135 C134 1.374 . S
C136 C133 1.499 . S
C136 C137 1.373 . S
C136 C138 1.389 . S
C137 H116 0.950 . S
C137 C136 1.373 . S
C137 C153 1.377 . S
C138 C136 1.389 . S
C138 C139 1.524 . S
C138 C152 1.377 . S
C139 C138 1.524 . S
C139 C140 1.397 . S
C139 C144 1.363 . S
C140 H117 0.950 . S
C140 C139 1.397 . S
C140 C141 1.334 . S
C141 H118 0.950 . S
C141 C140 1.334 . S
C141 C142 1.287 . S
C142 C141 1.287 . S
C142 C143 1.524 . S
C142 H161 0.913 . S
C143 H119 0.950 . S
C143 C142 1.524 . S
C143 C144 1.415 . S
C144 H120 0.950 . S
C144 C139 1.363 . S
C144 C143 1.415 . S
C145 H121 0.951 . S
C145 C146 1.366 . S
C145 C147 1.388 . S
C146 C145 1.366 . S
C146 C150 1.385 . S
C147 H122 0.951 . S
C147 C145 1.388 . S
C147 C148 1.366 . S
C148 C147 1.366 . S
C148 C149 1.414 . S
C148 C151 1.499 . S
C149 H123 0.950 . S
C149 C148 1.414 . S
C149 C150 1.374 . S
C150 H124 0.950 . S
C150 C146 1.385 . S
C150 C149 1.374 . S
C151 C148 1.499 . S
C151 C152 1.373 . S
C151 C153 1.389 . S
C152 H125 0.950 . S
C152 C138 1.377 . S
C152 C151 1.373 . S
C153 C137 1.377 . S
C153 C151 1.389 . S
C153 C154 1.524 . S
C154 C153 1.524 . S
C154 C155 1.397 . S
C154 C159 1.363 . S
C155 H126 0.950 . S
C155 C154 1.397 . S
C155 C156 1.334 . S
C156 H127 0.950 . S
C156 C155 1.334 . S
C156 C157 1.287 . S
C157 C156 1.287 . S
C157 C158 1.524 . S
C157 H160 0.999 . S
C158 H128 0.950 . S
C158 C157 1.524 . S
C158 C159 1.415 . S
C159 H129 0.950 . S
C159 C154 1.363 . S
C159 C158 1.415 . S
H160 C157 0.999 . S
H161 C142 0.913 . S
H162 C180 0.951 . S
H163 C182 0.951 . S
H164 C184 0.950 . S
H165 C185 0.950 . S
H166 C187 0.950 . S
H167 C190 0.950 . S
H168 C191 0.950 . S
H169 C193 0.950 . S
H170 C194 0.950 . S
H171 C195 0.951 . S
H172 C197 0.951 . S
H173 C199 0.950 . S
H174 C200 0.950 . S
H175 C202 0.950 . S
H176 C205 0.950 . S
H177 C206 0.950 . S
H178 C208 0.950 . S
H179 C209 0.950 . S
C180 H162 0.951 . S
C180 C181 1.366 . S
C180 C182 1.388 . S
C181 C180 1.366 . S
C181 C185 1.385 . S
C182 H163 0.951 . S
C182 C180 1.388 . S
C182 C183 1.366 . S
C183 C182 1.366 . S
C183 C184 1.414 . S
C183 C186 1.499 . S
C184 H164 0.950 . S
C184 C183 1.414 . S
C184 C185 1.374 . S
C185 H165 0.950 . S
C185 C181 1.385 . S
C185 C184 1.374 . S
C186 C183 1.499 . S
C186 C187 1.373 . S
C186 C188 1.389 . S
C187 H166 0.950 . S
C187 C186 1.373 . S
C187 C203 1.377 . S
C188 C186 1.389 . S
C188 C189 1.524 . S
C188 C202 1.377 . S
C189 C188 1.524 . S
C189 C190 1.397 . S
C189 C194 1.363 . S
C190 H167 0.950 . S
C190 C189 1.397 . S
C190 C191 1.334 . S
C191 H168 0.950 . S
C191 C190 1.334 . S
C191 C192 1.287 . S
C192 C191 1.287 . S
C192 C193 1.524 . S
C192 H211 0.913 . S
C193 H169 0.950 . S
C193 C192 1.524 . S
C193 C194 1.415 . S
C194 H170 0.950 . S
C194 C189 1.363 . S
C194 C193 1.415 . S
C195 H171 0.951 . S
C195 C196 1.366 . S
C195 C197 1.388 . S
C196 C195 1.366 . S
C196 C200 1.385 . S
C197 H172 0.951 . S
C197 C195 1.388 . S
C197 C198 1.366 . S
C198 C197 1.366 . S
C198 C199 1.414 . S
C198 C201 1.499 . S
C199 H173 0.950 . S
C199 C198 1.414 . S
C199 C200 1.374 . S
C200 H174 0.950 . S
C200 C196 1.385 . S
C200 C199 1.374 . S
C201 C198 1.499 . S
C201 C202 1.373 . S
C201 C203 1.389 . S
C202 H175 0.950 . S
C202 C188 1.377 . S
C202 C201 1.373 . S
C203 C187 1.377 . S
C203 C201 1.389 . S
C203 C204 1.524 . S
C204 C203 1.524 . S
C204 C205 1.397 . S
C204 C209 1.363 . S
C205 H176 0.950 . S
C205 C204 1.397 . S
C205 C206 1.334 . S
C206 H177 0.950 . S
C206 C205 1.334 . S
C206 C207 1.287 . S
C207 C206 1.287 . S
C207 C208 1.524 . S
C207 H210 0.999 . S
C208 H178 0.950 . S
C208 C207 1.524 . S
C208 C209 1.415 . S
C209 H179 0.950 . S
C209 C204 1.363 . S
C209 C208 1.415 . S
H210 C207 0.999 . S
H211 C192 0.913 . S
H212 C230 0.951 . S
H213 C232 0.951 . S
H214 C234 0.950 . S
H215 C235 0.950 . S
H216 C237 0.950 . S
H217 C240 0.950 . S
H218 C241 0.950 . S
H219 C243 0.950 . S
H220 C244 0.950 . S
H221 C245 0.951 . S
H222 C247 0.951 . S
H223 C249 0.950 . S
H224 C250 0.950 . S
H225 C252 0.950 . S
H226 C255 0.950 . S
H227 C256 0.950 . S
H228 C258 0.950 . S
H229 C259 0.950 . S
C230 H212 0.951 . S
C230 C231 1.366 . S
C230 C232 1.388 . S
C231 C230 1.366 . S
C231 C235 1.385 . S
C232 H213 0.951 . S
C232 C230 1.388 . S
C232 C233 1.366 . S
C233 C232 1.366 . S
C233 C234 1.414 . S
C233 C236 1.499 . S
C234 H214 0.950 . S
C234 C233 1.414 . S
C234 C235 1.374 . S
C235 H215 0.950 . S
C235 C231 1.385 . S
C235 C234 1.374 . S
C236 C233 1.499 . S
C236 C237 1.373 . S
C236 C238 1.389 . S
C237 H216 0.950 . S
C237 C236 1.373 . S
C237 C253 1.377 . S
C238 C236 1.389 . S
C238 C239 1.524 . S
C238 C252 1.377 . S
C239 C238 1.524 . S
C239 C240 1.397 . S
C239 C244 1.363 . S
C240 H217 0.950 . S
C240 C239 1.397 . S
C240 C241 1.334 . S
C241 H218 0.950 . S
C241 C240 1.334 . S
C241 C242 1.287 . S
C242 C241 1.287 . S
C242 C243 1.524 . S
C242 H261 0.913 . S
C243 H219 0.950 . S
C243 C242 1.524 . S
C243 C244 1.415 . S
C244 H220 0.950 . S
C244 C239 1.363 . S
C244 C243 1.415 . S
C245 H221 0.951 . S
C245 C246 1.366 . S
C245 C247 1.388 . S
C246 C245 1.366 . S
C246 C250 1.385 . S
C247 H222 0.951 . S
C247 C245 1.388 . S
C247 C248 1.366 . S
C248 C247 1.366 . S
C248 C249 1.414 . S
C248 C251 1.499 . S
C249 H223 0.950 . S
C249 C248 1.414 . S
C249 C250 1.374 . S
C250 H224 0.950 . S
C250 C246 1.385 . S
C250 C249 1.374 . S
C251 C248 1.499 . S
C251 C252 1.373 . S
C251 C253 1.389 . S
C252 H225 0.950 . S
C252 C238 1.377 . S
C252 C251 1.373 . S
C253 C237 1.377 . S
C253 C251 1.389 . S
C253 C254 1.524 . S
C254 C253 1.524 . S
C254 C255 1.397 . S
C254 C259 1.363 . S
C255 H226 0.950 . S
C255 C254 1.397 . S
C255 C256 1.334 . S
C256 H227 0.950 . S
C256 C255 1.334 . S
C256 C257 1.287 . S
C257 C256 1.287 . S
C257 C258 1.524 . S
C257 H260 0.999 . S
C258 H228 0.950 . S
C258 C257 1.524 . S
C258 C259 1.415 . S
C259 H229 0.950 . S
C259 C254 1.363 . S
C259 C258 1.415 . S
H260 C257 0.999 . S
H261 C242 0.913 . S
H262 C280 0.951 . S
H263 C282 0.951 . S
H264 C284 0.950 . S
H265 C285 0.950 . S
H266 C287 0.950 . S
H267 C290 0.950 . S
H268 C291 0.950 . S
H269 C293 0.950 . S
H270 C294 0.950 . S
H271 C295 0.951 . S
H272 C297 0.951 . S
H273 C299 0.950 . S
H274 C300 0.950 . S
H275 C302 0.950 . S
H276 C305 0.950 . S
H277 C306 0.950 . S
H278 C308 0.950 . S
H279 C309 0.950 . S
C280 H262 0.951 . S
C280 C281 1.366 . S
C280 C282 1.388 . S
C281 C280 1.366 . S
C281 C285 1.385 . S
C282 H263 0.951 . S
C282 C280 1.388 . S
C282 C283 1.366 . S
C283 C282 1.366 . S
C283 C284 1.414 . S
C283 C286 1.499 . S
C284 H264 0.950 . S
C284 C283 1.414 . S
C284 C285 1.374 . S
C285 H265 0.950 . S
C285 C281 1.385 . S
C285 C284 1.374 . S
C286 C283 1.499 . S
C286 C287 1.373 . S
C286 C288 1.389 . S
C287 H266 0.950 . S
C287 C286 1.373 . S
C287 C303 1.377 . S
C288 C286 1.389 . S
C288 C289 1.524 . S
C288 C302 1.377 . S
C289 C288 1.524 . S
C289 C290 1.397 . S
C289 C294 1.363 . S
C290 H267 0.950 . S
C290 C289 1.397 . S
C290 C291 1.334 . S
C291 H268 0.950 . S
C291 C290 1.334 . S
C291 C292 1.287 . S
C292 C291 1.287 . S
C292 C293 1.524 . S
C292 H311 0.913 . S
C293 H269 0.950 . S
C293 C292 1.524 . S
C293 C294 1.415 . S
C294 H270 0.950 . S
C294 C289 1.363 . S
C294 C293 1.415 . S
C295 H271 0.951 . S
C295 C296 1.366 . S
C295 C297 1.388 . S
C296 C295 1.366 . S
C296 C300 1.385 . S
C297 H272 0.951 . S
C297 C295 1.388 . S
C297 C298 1.366 . S
C298 C297 1.366 . S
C298 C299 1.414 . S
C298 C301 1.499 . S
C299 H273 0.950 . S
C299 C298 1.414 . S
C299 C300 1.374 . S
C300 H274 0.950 . S
C300 C296 1.385 . S
C300 C299 1.374 . S
C301 C298 1.499 . S
C301 C302 1.373 . S
C301 C303 1.389 . S
C302 H275 0.950 . S
C302 C288 1.377 . S
C302 C301 1.373 . S
C303 C287 1.377 . S
C303 C301 1.389 . S
C303 C304 1.524 . S
C304 C303 1.524 . S
C304 C305 1.397 . S
C304 C309 1.363 . S
C305 H276 0.950 . S
C305 C304 1.397 . S
C305 C306 1.334 . S
C306 H277 0.950 . S
C306 C305 1.334 . S
C306 C307 1.287 . S
C307 C306 1.287 . S
C307 C308 1.524 . S
C307 H310 0.999 . S
C308 H278 0.950 . S
C308 C307 1.524 . S
C308 C309 1.415 . S
C309 H279 0.950 . S
C309 C304 1.363 . S
C309 C308 1.415 . S
H310 C307 0.999 . S
H311 C292 0.913 . S
H312 C330 0.951 . S
H313 C332 0.951 . S
H314 C334 0.950 . S
H315 C335 0.950 . S
H316 C337 0.950 . S
H317 C340 0.950 . S
H318 C341 0.950 . S
H319 C343 0.950 . S
H320 C344 0.950 . S
H321 C345 0.951 . S
H322 C347 0.951 . S
H323 C349 0.950 . S
H324 C350 0.950 . S
H325 C352 0.950 . S
H326 C355 0.950 . S
H327 C356 0.950 . S
H328 C358 0.950 . S
H329 C359 0.950 . S
C330 H312 0.951 . S
C330 C331 1.366 . S
C330 C332 1.388 . S
C331 C330 1.366 . S
C331 C335 1.385 . S
C332 H313 0.951 . S
C332 C330 1.388 . S
C332 C333 1.366 . S
C333 C332 1.366 . S
C333 C334 1.414 . S
C333 C336 1.499 . S
C334 H314 0.950 . S
C334 C333 1.414 . S
C334 C335 1.374 . S
C335 H315 0.950 . S
C335 C331 1.385 . S
C335 C334 1.374 . S
C336 C333 1.499 . S
C336 C337 1.373 . S
C336 C338 1.389 . S
C337 H316 0.950 . S
C337 C336 1.373 . S
C337 C353 1.377 . S
C338 C336 1.389 . S
C338 C339 1.524 . S
C338 C352 1.377 . S
C339 C338 1.524 . S
C339 C340 1.397 . S
C339 C344 1.363 . S
C340 H317 0.950 . S
C340 C339 1.397 . S
C340 C341 1.334 . S
C341 H318 0.950 . S
C341 C340 1.334 . S
C341 C342 1.287 . S
C342 C341 1.287 . S
C342 C343 1.524 . S
C342 H361 0.913 . S
C343 H319 0.950 . S
C343 C342 1.524 . S
C343 C344 1.415 . S
C344 H320 0.950 . S
C344 C339 1.363 . S
C344 C343 1.415 . S
C345 H321 0.951 . S
C345 C346 1.366 . S
C345 C347 1.388 . S
C346 C345 1.366 . S
C346 C350 1.385 . S
C347 H322 0.951 . S
C347 C345 1.388 . S
C347 C348 1.366 . S
C348 C347 1.366 . S
C348 C349 1.414 . S
C348 C351 1.499 . S
C349 H323 0.950 . S
C349 C348 1.414 . S
C349 C350 1.374 . S
C350 H324 0.950 . S
C350 C346 1.385 . S
C350 C349 1.374 . S
C351 C348 1.499 . S
C351 C352 1.373 . S
C351 C353 1.389 . S
C352 H325 0.950 . S
C352 C338 1.377 . S
C352 C351 1.373 . S
C353 C337 1.377 . S
C353 C351 1.389 . S
C353 C354 1.524 . S
C354 C353 1.524 . S
C354 C355 1.397 . S
C354 C359 1.363 . S
C355 H326 0.950 . S
C355 C354 1.397 . S
C355 C356 1.334 . S
C356 H327 0.950 . S
C356 C355 1.334 . S
C356 C357 1.287 . S
C357 C356 1.287 . S
C357 C358 1.524 . S
C357 H360 0.999 . S
C358 H328 0.950 . S
C358 C357 1.524 . S
C358 C359 1.415 . S
C359 H329 0.950 . S
C359 C354 1.363 . S
C359 C358 1.415 . S
H360 C357 0.999 . S
H361 C342 0.913 . S
H362 C380 0.951 . S
H363 C382 0.951 . S
H364 C384 0.950 . S
H365 C385 0.950 . S
H366 C387 0.950 . S
H367 C390 0.950 . S
H368 C391 0.950 . S
H369 C393 0.950 . S
H370 C394 0.950 . S
H371 C395 0.951 . S
H372 C397 0.951 . S
H373 C399 0.950 . S
H374 C400 0.950 . S
H375 C402 0.950 . S
H376 C405 0.950 . S
H377 C406 0.950 . S
H378 C408 0.950 . S
H379 C409 0.950 . S
C380 H362 0.951 . S
C380 C381 1.366 . S
C380 C382 1.388 . S
C381 C380 1.366 . S
C381 C385 1.385 . S
C382 H363 0.951 . S
C382 C380 1.388 . S
C382 C383 1.366 . S
C383 C382 1.366 . S
C383 C384 1.414 . S
C383 C386 1.499 . S
C384 H364 0.950 . S
C384 C383 1.414 . S
C384 C385 1.374 . S
C385 H365 0.950 . S
C385 C381 1.385 . S
C385 C384 1.374 . S
C386 C383 1.499 . S
C386 C387 1.373 . S
C386 C388 1.389 . S
C387 H366 0.950 . S
C387 C386 1.373 . S
C387 C403 1.377 . S
C388 C386 1.389 . S
C388 C389 1.524 . S
C388 C402 1.377 . S
C389 C388 1.524 . S
C389 C390 1.397 . S
C389 C394 1.363 . S
C390 H367 0.950 . S
C390 C389 1.397 . S
C390 C391 1.334 . S
C391 H368 0.950 . S
C391 C390 1.334 . S
C391 C392 1.287 . S
C392 C391 1.287 . S
C392 C393 1.524 . S
C392 H411 0.913 . S
C393 H369 0.950 . S
C393 C392 1.524 . S
C393 C394 1.415 . S
C394 H370 0.950 . S
C394 C389 1.363 . S
C394 C393 1.415 . S
C395 H371 0.951 . S
C395 C396 1.366 . S
C395 C397 1.388 . S
C396 C395 1.366 . S
C396 C400 1.385 . S
C397 H372 0.951 . S
C397 C395 1.388 . S
C397 C398 1.366 . S
C398 C397 1.366 . S
C398 C399 1.414 . S
C398 C401 1.499 . S
C399 H373 0.950 . S
C399 C398 1.414 . S
C399 C400 1.374 . S
C400 H374 0.950 . S
C400 C396 1.385 . S
C400 C399 1.374 . S
C401 C398 1.499 . S
C401 C402 1.373 . S
C401 C403 1.389 . S
C402 H375 0.950 . S
C402 C388 1.377 . S
C402 C401 1.373 . S
C403 C387 1.377 . S
C403 C401 1.389 . S
C403 C404 1.524 . S
C404 C403 1.524 . S
C404 C405 1.397 . S
C404 C409 1.363 . S
C405 H376 0.950 . S
C405 C404 1.397 . S
C405 C406 1.334 . S
C406 H377 0.950 . S
C406 C405 1.334 . S
C406 C407 1.287 . S
C407 C406 1.287 . S
C407 C408 1.524 . S
C407 H410 0.999 . S
C408 H378 0.950 . S
C408 C407 1.524 . S
C408 C409 1.415 . S
C409 H379 0.950 . S
C409 C404 1.363 . S
C409 C408 1.415 . S
H410 C407 0.999 . S
H411 C392 0.913 . S
H412 C430 0.951 . S
H413 C432 0.951 . S
H414 C434 0.950 . S
H415 C435 0.950 . S
H416 C437 0.950 . S
H417 C440 0.950 . S
H418 C441 0.950 . S
H419 C443 0.950 . S
H420 C444 0.950 . S
H421 C445 0.951 . S
H422 C447 0.951 . S
H423 C449 0.950 . S
H424 C450 0.950 . S
H425 C452 0.950 . S
H426 C455 0.950 . S
H427 C456 0.950 . S
H428 C458 0.950 . S
H429 C459 0.950 . S
C430 H412 0.951 . S
C430 C431 1.366 . S
C430 C432 1.388 . S
C431 C430 1.366 . S
C431 C435 1.385 . S
C432 H413 0.951 . S
C432 C430 1.388 . S
C432 C433 1.366 . S
C433 C432 1.366 . S
C433 C434 1.414 . S
C433 C436 1.499 . S
C434 H414 0.950 . S
C434 C433 1.414 . S
C434 C435 1.374 . S
C435 H415 0.950 . S
C435 C431 1.385 . S
C435 C434 1.374 . S
C436 C433 1.499 . S
C436 C437 1.373 . S
C436 C438 1.389 . S
C437 H416 0.950 . S
C437 C436 1.373 . S
C437 C453 1.377 . S
C438 C436 1.389 . S
C438 C439 1.524 . S
C438 C452 1.377 . S
C439 C438 1.524 . S
C439 C440 1.397 . S
C439 C444 1.363 . S
C440 H417 0.950 . S
C440 C439 1.397 . S
C440 C441 1.334 . S
C441 H418 0.950 . S
C441 C440 1.334 . S
C441 C442 1.287 . S
C442 C441 1.287 . S
C442 C443 1.524 . S
C442 H461 0.913 . S
C443 H419 0.950 . S
C443 C442 1.524 . S
C443 C444 1.415 . S
C444 H420 0.950 . S
C444 C439 1.363 . S
C444 C443 1.415 . S
C445 H421 0.951 . S
C445 C446 1.366 . S
C445 C447 1.388 . S
C446 C445 1.366 . S
C446 C450 1.385 . S
C447 H422 0.951 . S
C447 C445 1.388 . S
C447 C448 1.366 . S
C448 C447 1.366 . S
C448 C449 1.414 . S
C448 C451 1.499 . S
C449 H423 0.950 . S
C449 C448 1.414 . S
C449 C450 1.374 . S
C450 H424 0.950 . S
C450 C446 1.385 . S
C450 C449 1.374 . S
C451 C448 1.499 . S
C451 C452 1.373 . S
C451 C453 1.389 . S
C452 H425 0.950 . S
C452 C438 1.377 . S
C452 C451 1.373 . S
C453 C437 1.377 . S
C453 C451 1.389 . S
C453 C454 1.524 . S
C454 C453 1.524 . S
C454 C455 1.397 . S
C454 C459 1.363 . S
C455 H426 0.950 . S
C455 C454 1.397 . S
C455 C456 1.334 . S
C456 H427 0.950 . S
C456 C455 1.334 . S
C456 C457 1.287 . S
C457 C456 1.287 . S
C457 C458 1.524 . S
C457 H460 0.999 . S
C458 H428 0.950 . S
C458 C457 1.524 . S
C458 C459 1.415 . S
C459 H429 0.950 . S
C459 C454 1.363 . S
C459 C458 1.415 . S
H460 C457 0.999 . S
H461 C442 0.913 . S
H462 C480 0.951 . S
H463 C482 0.951 . S
H464 C484 0.950 . S
H465 C485 0.950 . S
H466 C487 0.950 . S
H467 C490 0.950 . S
H468 C491 0.950 . S
H469 C493 0.950 . S
H470 C494 0.950 . S
H471 C495 0.951 . S
H472 C497 0.951 . S
H473 C499 0.950 . S
H474 C500 0.950 . S
H475 C502 0.950 . S
H476 C505 0.950 . S
H477 C506 0.950 . S
H478 C508 0.950 . S
H479 C509 0.950 . S
C480 H462 0.951 . S
C480 C481 1.366 . S
C480 C482 1.388 . S
C481 C480 1.366 . S
C481 C485 1.385 . S
C482 H463 0.951 . S
C482 C480 1.388 . S
C482 C483 1.366 . S
C483 C482 1.366 . S
C483 C484 1.414 . S
C483 C486 1.499 . S
C484 H464 0.950 . S
C484 C483 1.414 . S
C484 C485 1.374 . S
C485 H465 0.950 . S
C485 C481 1.385 . S
C485 C484 1.374 . S
C486 C483 1.499 . S
C486 C487 1.373 . S
C486 C488 1.389 . S
C487 H466 0.950 . S
C487 C486 1.373 . S
C487 C503 1.377 . S
C488 C486 1.389 . S
C488 C489 1.524 . S
C488 C502 1.377 . S
C489 C488 1.524 . S
C489 C490 1.397 . S
C489 C494 1.363 . S
C490 H467 0.950 . S
C490 C489 1.397 . S
C490 C491 1.334 . S
C491 H468 0.950 . S
C491 C490 1.334 . S
C491 C492 1.287 . S
C492 C491 1.287 . S
C492 C493 1.524 . S
C492 H511 0.913 . S
C493 H469 0.950 . S
C493 C492 1.524 . S
C493 C494 1.415 . S
C494 H470 0.950 . S
C494 C489 1.363 . S
C494 C493 1.415 . S
C495 H471 0.951 . S
C495 C496 1.366 . S
C495 C497 1.388 . S
C496 C495 1.366 . S
C496 C500 1.385 . S
C497 H472 0.951 . S
C497 C495 1.388 . S
C497 C498 1.366 . S
C498 C497 1.366 . S
C498 C499 1.414 . S
C498 C501 1.499 . S
C499 H473 0.950 . S
C499 C498 1.414 . S
C499 C500 1.374 . S
C500 H474 0.950 . S
C500 C496 1.385 . S
C500 C499 1.374 . S
C501 C498 1.499 . S
C501 C502 1.373 . S
C501 C503 1.389 . S
C502 H475 0.950 . S
C502 C488 1.377 . S
C502 C501 1.373 . S
C503 C487 1.377 . S
C503 C501 1.389 . S
C503 C504 1.524 . S
C504 C503 1.524 . S
C504 C505 1.397 . S
C504 C509 1.363 . S
C505 H476 0.950 . S
C505 C504 1.397 . S
C505 C506 1.334 . S
C506 H477 0.950 . S
C506 C505 1.334 . S
C506 C507 1.287 . S
C507 C506 1.287 . S
C507 C508 1.524 . S
C507 H510 0.999 . S
C508 H478 0.950 . S
C508 C507 1.524 . S
C508 C509 1.415 . S
C509 H479 0.950 . S
C509 C504 1.363 . S
C509 C508 1.415 . S
H510 C507 0.999 . S
H511 C492 0.913 . S
H512 C530 0.951 . S
H513 C532 0.951 . S
H514 C534 0.950 . S
H515 C535 0.950 . S
H516 C537 0.950 . S
H517 C540 0.950 . S
H518 C541 0.950 . S
H519 C543 0.950 . S
H520 C544 0.950 . S
H521 C545 0.951 . S
H522 C547 0.951 . S
H523 C549 0.950 . S
H524 C550 0.950 . S
H525 C552 0.950 . S
H526 C555 0.950 . S
H527 C556 0.950 . S
H528 C558 0.950 . S
H529 C559 0.950 . S
C530 H512 0.951 . S
C530 C531 1.366 . S
C530 C532 1.388 . S
C531 C530 1.366 . S
C531 C535 1.385 . S
C532 H513 0.951 . S
C532 C530 1.388 . S
C532 C533 1.366 . S
C533 C532 1.366 . S
C533 C534 1.414 . S
C533 C536 1.499 . S
C534 H514 0.950 . S
C534 C533 1.414 . S
C534 C535 1.374 . S
C535 H515 0.950 . S
C535 C531 1.385 . S
C535 C534 1.374 . S
C536 C533 1.499 . S
C536 C537 1.373 . S
C536 C538 1.389 1_554 S
C537 H516 0.950 . S
C537 C536 1.373 . S
C537 C553 1.377 1_655 S
C538 C536 1.389 1_556 S
C538 C539 1.524 . S
C538 C552 1.377 1_655 S
C539 C538 1.524 . S
C539 C540 1.397 . S
C539 C544 1.363 . S
C540 H517 0.950 . S
C540 C539 1.397 . S
C540 C541 1.334 . S
C541 H518 0.950 . S
C541 C540 1.334 . S
C541 C542 1.287 . S
C542 C541 1.287 . S
C542 C543 1.524 . S
C542 H561 0.913 . S
C543 H519 0.950 . S
C543 C542 1.524 . S
C543 C544 1.415 . S
C544 H520 0.950 . S
C544 C539 1.363 . S
C544 C543 1.415 . S
C545 H521 0.951 . S
C545 C546 1.366 . S
C545 C547 1.388 . S
C546 C545 1.366 . S
C546 C550 1.385 . S
C547 H522 0.951 . S
C547 C545 1.388 . S
C547 C548 1.366 . S
C548 C547 1.366 . S
C548 C549 1.414 . S
C548 C551 1.499 . S
C549 H523 0.950 . S
C549 C548 1.414 . S
C549 C550 1.374 . S
C550 H524 0.950 . S
C550 C546 1.385 . S
C550 C549 1.374 . S
C551 C548 1.499 . S
C551 C552 1.373 1_554 S
C551 C553 1.389 . S
C552 H525 0.950 . S
C552 C538 1.377 1_455 S
C552 C551 1.373 1_556 S
C553 C537 1.377 1_455 S
C553 C551 1.389 . S
C553 C554 1.524 . S
C554 C553 1.524 . S
C554 C555 1.397 . S
C554 C559 1.363 . S
C555 H526 0.950 . S
C555 C554 1.397 . S
C555 C556 1.334 . S
C556 H527 0.950 . S
C556 C555 1.334 . S
C556 C557 1.287 . S
C557 C556 1.287 . S
C557 C558 1.524 . S
C557 H560 0.999 . S
C558 H528 0.950 . S
C558 C557 1.524 . S
C558 C559 1.415 . S
C559 H529 0.950 . S
C559 C554 1.363 . S
C559 C558 1.415 . S
H560 C557 0.999 . S
H561 C542 0.913 . S
H562 C580 0.951 . S
H563 C582 0.951 . S
H564 C584 0.950 . S
H565 C585 0.950 . S
H566 C587 0.950 . S
H567 C590 0.950 . S
H568 C591 0.950 . S
H569 C593 0.950 . S
H570 C594 0.950 1_545 S
H571 C595 0.951 . S
H572 C597 0.951 . S
H573 C599 0.950 . S
H574 C600 0.950 . S
H575 C602 0.950 . S
H576 C605 0.950 . S
H577 C606 0.950 . S
H578 C608 0.950 . S
H579 C609 0.950 1_565 S
C580 H562 0.951 . S
C580 C581 1.366 . S
C580 C582 1.388 . S
C581 C580 1.366 . S
C581 C585 1.385 . S
C582 H563 0.951 . S
C582 C580 1.388 . S
C582 C583 1.366 . S
C583 C582 1.366 . S
C583 C584 1.414 . S
C583 C586 1.499 . S
C584 H564 0.950 . S
C584 C583 1.414 . S
C584 C585 1.374 . S
C585 H565 0.950 . S
C585 C581 1.385 . S
C585 C584 1.374 . S
C586 C583 1.499 . S
C586 C587 1.373 . S
C586 C588 1.389 . S
C587 H566 0.950 . S
C587 C586 1.373 . S
C587 C603 1.377 1_565 S
C588 C586 1.389 . S
C588 C589 1.524 . S
C588 C602 1.377 1_565 S
C589 C588 1.524 . S
C589 C590 1.397 . S
C589 C594 1.363 . S
C590 H567 0.950 . S
C590 C589 1.397 . S
C590 C591 1.334 . S
C591 H568 0.950 . S
C591 C590 1.334 . S
C591 C592 1.287 . S
C592 C591 1.287 . S
C592 C593 1.524 . S
C592 H611 0.913 . S
C593 H569 0.950 . S
C593 C592 1.524 . S
C593 C594 1.415 . S
C594 H570 0.950 1_565 S
C594 C589 1.363 . S
C594 C593 1.415 . S
C595 H571 0.951 . S
C595 C596 1.366 . S
C595 C597 1.388 . S
C596 C595 1.366 . S
C596 C600 1.385 . S
C597 H572 0.951 . S
C597 C595 1.388 . S
C597 C598 1.366 . S
C598 C597 1.366 . S
C598 C599 1.414 . S
C598 C601 1.499 . S
C599 H573 0.950 . S
C599 C598 1.414 . S
C599 C600 1.374 . S
C600 H574 0.950 . S
C600 C596 1.385 . S
C600 C599 1.374 . S
C601 C598 1.499 . S
C601 C602 1.373 . S
C601 C603 1.389 . S
C602 H575 0.950 . S
C602 C588 1.377 1_545 S
C602 C601 1.373 . S
C603 C587 1.377 1_545 S
C603 C601 1.389 . S
C603 C604 1.524 . S
C604 C603 1.524 . S
C604 C605 1.397 . S
C604 C609 1.363 . S
C605 H576 0.950 . S
C605 C604 1.397 . S
C605 C606 1.334 . S
C606 H577 0.950 . S
C606 C605 1.334 . S
C606 C607 1.287 . S
C607 C606 1.287 . S
C607 C608 1.524 . S
C607 H610 0.999 . S
C608 H578 0.950 . S
C608 C607 1.524 . S
C608 C609 1.415 . S
C609 H579 0.950 1_545 S
C609 C604 1.363 . S
C609 C608 1.415 . S
H610 C607 0.999 . S
H611 C592 0.913 . S
H612 C630 0.951 . S
H613 C632 0.951 . S
H614 C634 0.950 . S
H615 C635 0.950 . S
H616 C637 0.950 . S
H617 C640 0.950 . S
H618 C641 0.950 . S
H619 C643 0.950 . S
H620 C644 0.950 . S
H621 C645 0.951 . S
H622 C647 0.951 . S
H623 C649 0.950 . S
H624 C650 0.950 . S
H625 C652 0.950 . S
H626 C655 0.950 . S
H627 C656 0.950 . S
H628 C658 0.950 . S
H629 C659 0.950 . S
C630 H612 0.951 . S
C630 C631 1.366 . S
C630 C632 1.388 . S
C631 C630 1.366 . S
C631 C635 1.385 . S
C632 H613 0.951 . S
C632 C630 1.388 . S
C632 C633 1.366 . S
C633 C632 1.366 . S
C633 C634 1.414 . S
C633 C636 1.499 . S
C634 H614 0.950 . S
C634 C633 1.414 . S
C634 C635 1.374 . S
C635 H615 0.950 . S
C635 C631 1.385 . S
C635 C634 1.374 . S
C636 C633 1.499 . S
C636 C637 1.373 . S
C636 C638 1.389 . S
C637 H616 0.950 . S
C637 C636 1.373 . S
C637 C653 1.377 1_455 S
C638 C636 1.389 . S
C638 C639 1.524 . S
C638 C652 1.377 1_455 S
C639 C638 1.524 . S
C639 C640 1.397 . S
C639 C644 1.363 . S
C640 H617 0.950 . S
C640 C639 1.397 . S
C640 C641 1.334 . S
C641 H618 0.950 . S
C641 C640 1.334 . S
C641 C642 1.287 . S
C642 C641 1.287 . S
C642 C643 1.524 . S
C642 H661 0.913 . S
C643 H619 0.950 . S
C643 C642 1.524 . S
C643 C644 1.415 . S
C644 H620 0.950 . S
C644 C639 1.363 . S
C644 C643 1.415 . S
C645 H621 0.951 . S
C645 C646 1.366 . S
C645 C647 1.388 . S
C646 C645 1.366 . S
C646 C650 1.385 . S
C647 H622 0.951 . S
C647 C645 1.388 . S
C647 C648 1.366 . S
C648 C647 1.366 . S
C648 C649 1.414 . S
C648 C651 1.499 . S
C649 H623 0.950 . S
C649 C648 1.414 . S
C649 C650 1.374 . S
C650 H624 0.950 . S
C650 C646 1.385 . S
C650 C649 1.374 . S
C651 C648 1.499 . S
C651 C652 1.373 . S
C651 C653 1.389 . S
C652 H625 0.950 . S
C652 C638 1.377 1_655 S
C652 C651 1.373 . S
C653 C637 1.377 1_655 S
C653 C651 1.389 . S
C653 C654 1.524 . S
C654 C653 1.524 . S
C654 C655 1.397 . S
C654 C659 1.363 . S
C655 H626 0.950 . S
C655 C654 1.397 . S
C655 C656 1.334 . S
C656 H627 0.950 . S
C656 C655 1.334 . S
C656 C657 1.287 . S
C657 C656 1.287 . S
C657 C658 1.524 . S
C657 H660 0.999 . S
C658 H628 0.950 . S
C658 C657 1.524 . S
C658 C659 1.415 . S
C659 H629 0.950 . S
C659 C654 1.363 . S
C659 C658 1.415 . S
H660 C657 0.999 . S
H661 C642 0.913 . S
H662 C680 0.951 . S
H663 C682 0.951 . S
H664 C684 0.950 . S
H665 C685 0.950 . S
H666 C687 0.950 . S
H667 C690 0.950 . S
H668 C691 0.950 . S
H669 C693 0.950 . S
H670 C694 0.950 1_545 S
H671 C695 0.951 . S
H672 C697 0.951 . S
H673 C699 0.950 . S
H674 C700 0.950 . S
H675 C702 0.950 . S
H676 C705 0.950 . S
H677 C706 0.950 . S
H678 C708 0.950 . S
H679 C709 0.950 1_565 S
C680 H662 0.951 . S
C680 C681 1.366 . S
C680 C682 1.388 . S
C681 C680 1.366 . S
C681 C685 1.385 1_554 S
C682 H663 0.951 . S
C682 C680 1.388 . S
C682 C683 1.366 . S
C683 C682 1.366 . S
C683 C684 1.414 1_554 S
C683 C686 1.499 . S
C684 H664 0.950 . S
C684 C683 1.414 1_556 S
C684 C685 1.374 . S
C685 H665 0.950 . S
C685 C681 1.385 1_556 S
C685 C684 1.374 . S
C686 C683 1.499 . S
C686 C687 1.373 1_554 S
C686 C688 1.389 . S
C687 H666 0.950 . S
C687 C686 1.373 1_556 S
C687 C703 1.377 1_565 S
C688 C686 1.389 . S
C688 C689 1.524 . S
C688 C702 1.377 1_565 S
C689 C688 1.524 . S
C689 C690 1.397 . S
C689 C694 1.363 . S
C690 H667 0.950 . S
C690 C689 1.397 . S
C690 C691 1.334 . S
C691 H668 0.950 . S
C691 C690 1.334 . S
C691 C692 1.287 . S
C692 C691 1.287 . S
C692 C693 1.524 . S
C692 H711 0.913 . S
C693 H669 0.950 . S
C693 C692 1.524 . S
C693 C694 1.415 . S
C694 H670 0.950 1_565 S
C694 C689 1.363 . S
C694 C693 1.415 . S
C695 H671 0.951 . S
C695 C696 1.366 1_556 S
C695 C697 1.388 . S
C696 C695 1.366 1_554 S
C696 C700 1.385 . S
C697 H672 0.951 . S
C697 C695 1.388 . S
C697 C698 1.366 1_556 S
C698 C697 1.366 1_554 S
C698 C699 1.414 . S
C698 C701 1.499 . S
C699 H673 0.950 . S
C699 C698 1.414 . S
C699 C700 1.374 . S
C700 H674 0.950 . S
C700 C696 1.385 . S
C700 C699 1.374 . S
C701 C698 1.499 . S
C701 C702 1.373 . S
C701 C703 1.389 1_554 S
C702 H675 0.950 . S
C702 C688 1.377 1_545 S
C702 C701 1.373 . S
C703 C687 1.377 1_545 S
C703 C701 1.389 1_556 S
C703 C704 1.524 . S
C704 C703 1.524 . S
C704 C705 1.397 . S
C704 C709 1.363 . S
C705 H676 0.950 . S
C705 C704 1.397 . S
C705 C706 1.334 . S
C706 H677 0.950 . S
C706 C705 1.334 . S
C706 C707 1.287 . S
C707 C706 1.287 . S
C707 C708 1.524 . S
C707 H710 0.999 . S
C708 H678 0.950 . S
C708 C707 1.524 . S
C708 C709 1.415 . S
C709 H679 0.950 1_545 S
C709 C704 1.363 . S
C709 C708 1.415 . S
H710 C707 0.999 . S
H711 C692 0.913 . S
H712 C730 0.952 1_556 S
H713 C732 0.950 . S
H714 C734 0.950 . S
H715 C735 0.950 . S
H716 C737 0.950 . S
H717 C740 0.950 . S
H718 C741 0.950 . S
H719 C743 0.950 . S
H720 C744 0.950 . S
H721 C745 0.951 . S
H722 C747 0.951 . S
H723 C749 0.952 1_556 S
H724 C750 0.950 1_556 S
H725 C752 0.950 . S
H726 C755 0.950 . S
H727 C756 0.950 . S
H728 C758 0.950 . S
H729 C759 0.950 . S
C730 H712 0.952 1_554 S
C730 C731 1.366 . S
C730 C732 1.388 . S
C731 C730 1.366 . S
C731 C735 1.385 . S
C732 H713 0.950 . S
C732 C730 1.388 . S
C732 C733 1.366 . S
C733 C732 1.366 . S
C733 C734 1.414 . S
C733 C736 1.499 . S
C734 H714 0.950 . S
C734 C733 1.414 . S
C734 C735 1.374 . S
C735 H715 0.950 . S
C735 C731 1.385 . S
C735 C734 1.374 . S
C736 C733 1.499 . S
C736 C737 1.373 1_554 S
C736 C738 1.389 . S
C737 H716 0.950 . S
C737 C736 1.373 1_556 S
C737 C753 1.377 . S
C738 C736 1.389 . S
C738 C739 1.524 . S
C738 C752 1.377 . S
C739 C738 1.524 . S
C739 C740 1.397 . S
C739 C744 1.363 . S
C740 H717 0.950 . S
C740 C739 1.397 . S
C740 C741 1.334 . S
C741 H718 0.950 . S
C741 C740 1.334 . S
C741 C742 1.287 . S
C742 C741 1.287 . S
C742 C743 1.524 . S
C742 H761 0.913 . S
C743 H719 0.950 . S
C743 C742 1.524 . S
C743 C744 1.415 . S
C744 H720 0.950 . S
C744 C739 1.363 . S
C744 C743 1.415 . S
C745 H721 0.951 . S
C745 C746 1.366 . S
C745 C747 1.388 . S
C746 C745 1.366 . S
C746 C750 1.385 . S
C747 H722 0.951 . S
C747 C745 1.388 . S
C747 C748 1.366 . S
C748 C747 1.366 . S
C748 C749 1.413 . S
C748 C751 1.499 . S
C749 H723 0.952 1_554 S
C749 C748 1.413 . S
C749 C750 1.374 . S
C750 H724 0.950 1_554 S
C750 C746 1.385 . S
C750 C749 1.374 . S
C751 C748 1.499 . S
C751 C752 1.373 . S
C751 C753 1.389 1_554 S
C752 H725 0.950 . S
C752 C738 1.377 . S
C752 C751 1.373 . S
C753 C737 1.377 . S
C753 C751 1.389 1_556 S
C753 C754 1.524 . S
C754 C753 1.524 . S
C754 C755 1.397 . S
C754 C759 1.363 . S
C755 H726 0.950 . S
C755 C754 1.397 . S
C755 C756 1.334 . S
C756 H727 0.950 . S
C756 C755 1.334 . S
C756 C757 1.287 . S
C757 C756 1.287 . S
C757 C758 1.524 . S
C757 H760 0.999 . S
C758 H728 0.950 . S
C758 C757 1.524 . S
C758 C759 1.415 . S
C759 H729 0.950 . S
C759 C754 1.363 . S
C759 C758 1.415 . S
H760 C757 0.999 . S
H761 C742 0.913 . S
H762 C780 0.951 . S
H763 C782 0.951 . S
H764 C784 0.950 . S
H765 C785 0.950 . S
H766 C787 0.950 . S
H767 C790 0.950 . S
H768 C791 0.950 . S
H769 C793 0.950 . S
H770 C794 0.950 . S
H771 C795 0.951 . S
H772 C797 0.951 . S
H773 C799 0.950 . S
H774 C800 0.950 . S
H775 C802 0.950 . S
H776 C805 0.950 . S
H777 C806 0.950 . S
H778 C808 0.950 . S
H779 C809 0.950 . S
C780 H762 0.951 . S
C780 C781 1.366 . S
C780 C782 1.388 . S
C781 C780 1.366 . S
C781 C785 1.385 . S
C782 H763 0.951 . S
C782 C780 1.388 . S
C782 C783 1.366 . S
C783 C782 1.366 . S
C783 C784 1.414 . S
C783 C786 1.499 . S
C784 H764 0.950 . S
C784 C783 1.414 . S
C784 C785 1.374 . S
C785 H765 0.950 . S
C785 C781 1.385 . S
C785 C784 1.374 . S
C786 C783 1.499 . S
C786 C787 1.373 . S
C786 C788 1.389 . S
C787 H766 0.950 . S
C787 C786 1.373 . S
C787 C803 1.377 . S
C788 C786 1.389 . S
C788 C789 1.524 . S
C788 C802 1.377 . S
C789 C788 1.524 . S
C789 C790 1.397 . S
C789 C794 1.363 . S
C790 H767 0.950 . S
C790 C789 1.397 . S
C790 C791 1.334 . S
C791 H768 0.950 . S
C791 C790 1.334 . S
C791 C792 1.287 . S
C792 C791 1.287 . S
C792 C793 1.524 . S
C792 H811 0.913 . S
C793 H769 0.950 . S
C793 C792 1.524 . S
C793 C794 1.415 . S
C794 H770 0.950 . S
C794 C789 1.363 . S
C794 C793 1.415 . S
C795 H771 0.951 . S
C795 C796 1.366 . S
C795 C797 1.388 . S
C796 C795 1.366 . S
C796 C800 1.385 . S
C797 H772 0.951 . S
C797 C795 1.388 . S
C797 C798 1.366 . S
C798 C797 1.366 . S
C798 C799 1.414 . S
C798 C801 1.499 . S
C799 H773 0.950 . S
C799 C798 1.414 . S
C799 C800 1.374 . S
C800 H774 0.950 . S
C800 C796 1.385 . S
C800 C799 1.374 . S
C801 C798 1.499 . S
C801 C802 1.373 . S
C801 C803 1.389 . S
C802 H775 0.950 . S
C802 C788 1.377 . S
C802 C801 1.373 . S
C803 C787 1.377 . S
C803 C801 1.389 . S
C803 C804 1.524 . S
C804 C803 1.524 . S
C804 C805 1.397 . S
C804 C809 1.363 . S
C805 H776 0.950 . S
C805 C804 1.397 . S
C805 C806 1.334 . S
C806 H777 0.950 . S
C806 C805 1.334 . S
C806 C807 1.287 . S
C807 C806 1.287 . S
C807 C808 1.524 . S
C807 H810 0.999 . S
C808 H778 0.950 . S
C808 C807 1.524 . S
C808 C809 1.415 . S
C809 H779 0.950 . S
C809 C804 1.363 . S
C809 C808 1.415 . S
H810 C807 0.999 . S
H811 C792 0.913 . S
H812 C830 0.951 . S
H813 C832 0.951 . S
H814 C834 0.950 . S
H815 C835 0.950 . S
H816 C837 0.950 . S
H817 C840 0.950 . S
H818 C841 0.950 . S
H819 C843 0.950 . S
H820 C844 0.950 . S
H821 C845 0.951 . S
H822 C847 0.951 . S
H823 C849 0.950 . S
H824 C850 0.950 . S
H825 C852 0.950 . S
H826 C855 0.950 . S
H827 C856 0.950 . S
H828 C858 0.952 . S
H829 C859 0.950 . S
C830 H812 0.951 . S
C830 C831 1.366 . S
C830 C832 1.388 . S
C831 C830 1.366 . S
C831 C835 1.385 . S
C832 H813 0.951 . S
C832 C830 1.388 . S
C832 C833 1.366 . S
C833 C832 1.366 . S
C833 C834 1.414 . S
C833 C836 1.499 . S
C834 H814 0.950 . S
C834 C833 1.414 . S
C834 C835 1.374 . S
C835 H815 0.950 . S
C835 C831 1.385 . S
C835 C834 1.374 . S
C836 C833 1.499 . S
C836 C837 1.373 . S
C836 C838 1.389 . S
C837 H816 0.950 . S
C837 C836 1.373 . S
C837 C853 1.377 . S
C838 C836 1.389 . S
C838 C839 1.524 . S
C838 C852 1.377 . S
C839 C838 1.524 . S
C839 C840 1.397 . S
C839 C844 1.363 . S
C840 H817 0.950 . S
C840 C839 1.397 . S
C840 C841 1.334 . S
C841 H818 0.950 . S
C841 C840 1.334 . S
C841 C842 1.287 . S
C842 C841 1.287 . S
C842 C843 1.524 . S
C842 H861 0.913 . S
C843 H819 0.950 . S
C843 C842 1.524 . S
C843 C844 1.415 . S
C844 H820 0.950 . S
C844 C839 1.363 . S
C844 C843 1.415 . S
C845 H821 0.951 . S
C845 C846 1.366 . S
C845 C847 1.388 . S
C846 C845 1.366 . S
C846 C850 1.385 . S
C847 H822 0.951 . S
C847 C845 1.388 . S
C847 C848 1.366 . S
C848 C847 1.366 . S
C848 C849 1.414 . S
C848 C851 1.499 . S
C849 H823 0.950 . S
C849 C848 1.414 . S
C849 C850 1.374 . S
C850 H824 0.950 . S
C850 C846 1.385 . S
C850 C849 1.374 . S
C851 C848 1.499 . S
C851 C852 1.373 . S
C851 C853 1.389 . S
C852 H825 0.950 . S
C852 C838 1.377 . S
C852 C851 1.373 . S
C853 C837 1.377 . S
C853 C851 1.389 . S
C853 C854 1.535 . S
C854 C853 1.535 . S
C854 C855 1.371 1_554 S
C854 C859 1.376 . S
C855 H826 0.950 . S
C855 C854 1.371 1_556 S
C855 C856 1.334 . S
C856 H827 0.950 . S
C856 C855 1.334 . S
C856 C857 1.287 . S
C857 C856 1.287 . S
C857 C858 1.524 . S
C857 H860 0.999 . S
C858 H828 0.952 . S
C858 C857 1.524 . S
C858 C859 1.415 1_556 S
C859 H829 0.950 . S
C859 C854 1.376 . S
C859 C858 1.415 1_554 S
H860 C857 0.999 . S
H861 C842 0.913 . S
H862 C880 0.951 . S
H863 C882 0.951 . S
H864 C884 0.950 . S
H865 C885 0.950 . S
H866 C887 0.950 . S
H867 C890 0.950 . S
H868 C891 0.950 . S
H869 C893 0.950 . S
H870 C894 0.950 . S
H871 C895 0.951 . S
H872 C897 0.951 . S
H873 C899 0.950 . S
H874 C900 0.950 . S
H875 C902 0.950 . S
H876 C905 0.950 . S
H877 C906 0.950 . S
H878 C908 0.950 . S
H879 C909 0.950 . S
C880 H862 0.951 . S
C880 C881 1.366 . S
C880 C882 1.388 . S
C881 C880 1.366 . S
C881 C885 1.385 . S
C882 H863 0.951 . S
C882 C880 1.388 . S
C882 C883 1.366 . S
C883 C882 1.366 . S
C883 C884 1.414 . S
C883 C886 1.499 . S
C884 H864 0.950 . S
C884 C883 1.414 . S
C884 C885 1.374 . S
C885 H865 0.950 . S
C885 C881 1.385 . S
C885 C884 1.374 . S
C886 C883 1.499 . S
C886 C887 1.373 . S
C886 C888 1.389 . S
C887 H866 0.950 . S
C887 C886 1.373 . S
C887 C903 1.377 . S
C888 C886 1.389 . S
C888 C889 1.524 . S
C888 C902 1.377 . S
C889 C888 1.524 . S
C889 C890 1.397 . S
C889 C894 1.363 . S
C890 H867 0.950 . S
C890 C889 1.397 . S
C890 C891 1.334 . S
C891 H868 0.950 . S
C891 C890 1.334 . S
C891 C892 1.287 . S
C892 C891 1.287 . S
C892 C893 1.524 . S
C892 H911 0.913 . S
C893 H869 0.950 . S
C893 C892 1.524 . S
C893 C894 1.415 . S
C894 H870 0.950 . S
C894 C889 1.363 . S
C894 C893 1.415 . S
C895 H871 0.951 . S
C895 C896 1.366 . S
C895 C897 1.388 . S
C896 C895 1.366 . S
C896 C900 1.385 . S
C897 H872 0.951 . S
C897 C895 1.388 . S
C897 C898 1.366 . S
C898 C897 1.366 . S
C898 C899 1.414 . S
C898 C901 1.499 . S
C899 H873 0.950 . S
C899 C898 1.414 . S
C899 C900 1.374 . S
C900 H874 0.950 . S
C900 C896 1.385 . S
C900 C899 1.374 . S
C901 C898 1.499 . S
C901 C902 1.373 . S
C901 C903 1.389 . S
C902 H875 0.950 . S
C902 C888 1.377 . S
C902 C901 1.373 . S
C903 C887 1.377 . S
C903 C901 1.389 . S
C903 C904 1.524 . S
C904 C903 1.524 . S
C904 C905 1.397 . S
C904 C909 1.363 . S
C905 H876 0.950 . S
C905 C904 1.397 . S
C905 C906 1.334 . S
C906 H877 0.950 . S
C906 C905 1.334 . S
C906 C907 1.287 . S
C907 C906 1.287 . S
C907 C908 1.524 . S
C907 H910 0.999 . S
C908 H878 0.950 . S
C908 C907 1.524 . S
C908 C909 1.415 . S
C909 H879 0.950 . S
C909 C904 1.363 . S
C909 C908 1.415 . S
H910 C907 0.999 . S
H911 C892 0.913 . S
C131 C12 1.548 . S
C146 C56 1.545 . S
C181 C15 1.564 . S
C196 C83 1.555 . S
C231 C85 1.564 . S
C246 C40 1.556 . S
C281 C110 1.548 . S
C296 C43 1.544 . S
C331 C84 1.545 . S
C346 C41 1.548 . S
C381 C111 1.556 . S
C396 C42 1.563 . S
C431 C13 1.556 . S
C446 C57 1.563 . S
C481 C14 1.544 . S
C496 C82 1.549 . S
C531 C28 2.020 . S
C546 C1 2.020 . S
C581 C55 2.017 . S
C596 C26 2.017 . S
C631 C68 2.020 . S
C646 C96 2.017 . S
C681 C99 2.020 . S
C696 C71 2.017 . S
C731 C0 1.978 . S
C746 C70 1.980 . S
C781 C97 1.973 . S
C796 C27 1.973 . S
C831 C29 1.978 . S
C846 C98 1.978 . S
C881 C54 1.973 . S
C896 C69 1.971 . S
