# Generated by pormake.
# Topology fnu, (5)-cn, num edge types: 1
# Building blocks:
#     Node 0, Type 0, BuildingBlock: BEQFEK_clean_sbu_0, # of connection points: 5
#     Node 1, Type 0, BuildingBlock: BEQFEK_clean_sbu_0, # of connection points: 5
#     Node 2, Type 0, BuildingBlock: BEQFEK_clean_sbu_0, # of connection points: 5
#     Node 3, Type 0, BuildingBlock: BEQFEK_clean_sbu_0, # of connection points: 5
#     Node 4, Type 0, BuildingBlock: BEQFEK_clean_sbu_0, # of connection points: 5
#     Node 5, Type 0, BuildingBlock: BEQFEK_clean_sbu_0, # of connection points: 5
#     Edge 6, Type (0, 0), BuildingBlock: MIFKUJ_clean_linker_0, # of connection points: 2
#     Edge 7, Type (0, 0), BuildingBlock: MIFKUJ_clean_linker_0, # of connection points: 2
#     Edge 8, Type (0, 0), BuildingBlock: MIFKUJ_clean_linker_0, # of connection points: 2
#     Edge 9, Type (0, 0), BuildingBlock: MIFKUJ_clean_linker_0, # of connection points: 2
#     Edge 10, Type (0, 0), BuildingBlock: MIFKUJ_clean_linker_0, # of connection points: 2
#     Edge 11, Type (0, 0), BuildingBlock: MIFKUJ_clean_linker_0, # of connection points: 2
#     Edge 12, Type (0, 0), BuildingBlock: MIFKUJ_clean_linker_0, # of connection points: 2
#     Edge 13, Type (0, 0), BuildingBlock: MIFKUJ_clean_linker_0, # of connection points: 2
#     Edge 14, Type (0, 0), BuildingBlock: MIFKUJ_clean_linker_0, # of connection points: 2
#     Edge 15, Type (0, 0), BuildingBlock: MIFKUJ_clean_linker_0, # of connection points: 2
#     Edge 16, Type (0, 0), BuildingBlock: MIFKUJ_clean_linker_0, # of connection points: 2
#     Edge 17, Type (0, 0), BuildingBlock: MIFKUJ_clean_linker_0, # of connection points: 2
#     Edge 18, Type (0, 0), BuildingBlock: MIFKUJ_clean_linker_0, # of connection points: 2
#     Edge 19, Type (0, 0), BuildingBlock: MIFKUJ_clean_linker_0, # of connection points: 2
#     Edge 20, Type (0, 0), BuildingBlock: MIFKUJ_clean_linker_0, # of connection points: 2
# Relax obj value: 0.175
# Max RMSD: 0.163
# Mean RMSD: 0.163
data_MOF--net-fnu--node1-BEQFEK_clean_sbu_0--edge1-MIFKUJ_clean_linker_0
_symmetry_space_group_name_H-M    P1
_symmetry_Int_Tables_number       1
_symmetry_cell_setting            triclinic
loop_
_symmetry_equiv_pos_as_xyz
'x, y, z'
_cell_length_a     31.579649
_cell_length_b     37.355606
_cell_length_c     45.377531
_cell_angle_alpha  90.113706
_cell_angle_beta   96.683315
_cell_angle_gamma 125.8962
loop_
_atom_site_label
_atom_site_type_symbol
_atom_site_fract_x
_atom_site_fract_y
_atom_site_fract_z
_atom_type_partial_charge
Co0 Co 1.00665 0.99369 0.18822 0.0
Co1 Co 0.03897 0.01377 0.25707 0.0
C2 C 0.97929 0.9209 0.22723 0.0
O3 O 0.97815 0.93601 0.20243 0.0
O4 O 1.00247 0.94656 0.25134 0.0
C5 C 0.93565 0.94711 0.13355 0.0
O6 O 0.90763 0.91325 0.14918 0.0
C7 C 0.03288 1.01125 0.32225 0.0
C8 C 0.09642 0.08118 0.33813 0.0
C9 C 0.05812 0.04075 0.34777 0.0
N10 N 0.05551 0.03336 0.29876 0.0
N11 N 0.09362 0.07506 0.30854 0.0
C12 C 0.98569 0.96384 0.31974 0.0
H13 H 0.96124 0.95503 0.29763 0.0
H14 H 0.96152 0.95767 0.33761 0.0
H15 H 0.99921 0.94232 0.32187 0.0
C16 C 0.96104 0.04095 0.1966 0.0
N17 N 0.9856 0.02334 0.20787 0.0
N18 N 0.99694 0.03162 0.23699 0.0
C19 C 0.97908 0.05498 0.24518 0.0
C20 C 0.95518 0.06116 0.21975 0.0
C21 C 0.9491 0.04279 0.16391 0.0
H22 H 0.98324 0.05183 0.15283 0.0
H23 H 0.91418 1.00962 0.15411 0.0
H24 H 0.94097 0.06753 0.15939 0.0
O25 O 0.08434 0.02886 0.19247 0.0
O26 O 0.10924 0.04581 0.24128 0.0
H27 H 0.02767 0.10003 0.28347 0.0
H28 H 0.96059 0.08331 0.27848 0.0
C29 C 0.98569 0.07187 0.27649 0.0
H30 H 0.97536 0.04536 0.29155 0.0
H31 H 0.11728 0.09958 0.29488 0.0
O32 O 0.97815 0.98273 0.14595 0.0
C33 C 0.12055 0.04796 0.21489 0.0
Co34 Co 0.05498 0.03512 0.81884 0.0
Co35 Co 0.02489 0.02103 0.75022 0.0
C36 C 0.06972 0.97744 0.782 0.0
O37 O 0.06919 0.99426 0.80604 0.0
O38 O 0.05636 0.98603 0.7568 0.0
C39 C 0.12249 0.0512 0.87219 0.0
O40 O 0.14672 0.04238 0.85515 0.0
C41 C 0.02986 0.02061 0.68495 0.0
C42 C 0.96898 0.0304 0.6685 0.0
C43 C 1.00538 0.02514 0.65915 0.0
N44 N 1.00865 0.02301 0.70834 0.0
N45 N 0.97211 0.02861 0.69821 0.0
C46 C 0.07489 0.01706 0.68774 0.0
H47 H 0.05896 0.98149 0.68631 0.0
H48 H 0.1 0.03279 0.70967 0.0
H49 H 0.09906 0.03295 0.66956 0.0
C50 C 0.11243 0.12813 0.80886 0.0
N51 N 0.08508 0.08552 0.79814 0.0
N52 N 0.07133 0.08147 0.76919 0.0
C53 C 0.08943 0.12238 0.76063 0.0
C54 C 0.11652 0.15331 0.78556 0.0
C55 C 0.12694 0.14305 0.84145 0.0
H56 H 0.09129 0.12306 0.85262 0.0
H57 H 0.15622 0.13751 0.85142 0.0
H58 H 0.14387 0.17855 0.84571 0.0
O59 O 0.97854 1.00367 0.8153 0.0
O60 O 0.95444 0.98758 0.76642 0.0
H61 H 0.03518 0.11746 0.72516 0.0
H62 H 0.10175 0.16747 0.72725 0.0
C63 C 0.07765 0.13132 0.72982 0.0
H64 H 0.08558 0.11458 0.71345 0.0
H65 H 0.9497 0.03179 0.71172 0.0
O66 O 0.08377 0.05112 0.86076 0.0
C67 C 0.94267 0.98495 0.79276 0.0
Co68 Co 0.67968 0.34173 0.52379 0.0
Co69 Co 0.70329 0.35912 0.59311 0.0
C70 C 0.65803 0.26963 0.56294 0.0
O71 O 0.66128 0.28587 0.53815 0.0
O72 O 0.67102 0.2929 0.58747 0.0
C73 C 0.62474 0.29109 0.46763 0.0
O74 O 0.60353 0.25658 0.48336 0.0
C75 C 0.69609 0.35441 0.65851 0.0
C76 C 0.7522 0.42538 0.67438 0.0
C77 C 0.71867 0.38372 0.68415 0.0
N78 N 0.7158 0.37785 0.6349 0.0
N79 N 0.7494 0.42021 0.6447 0.0
C80 C 0.65435 0.30542 0.65611 0.0
H81 H 0.62828 0.29464 0.6344 0.0
H82 H 0.63034 0.29586 0.67453 0.0
H83 H 0.67352 0.28822 0.65728 0.0
C84 C 0.62211 0.37927 0.52927 0.0
N85 N 0.64862 0.36399 0.54191 0.0
N86 N 0.65866 0.37326 0.57097 0.0
C87 C 0.63817 0.39511 0.57767 0.0
C88 C 0.614 0.39936 0.5514 0.0
C89 C 0.61206 0.38023 0.49627 0.0
H90 H 0.64919 0.39424 0.48682 0.0
H91 H 0.58252 0.34581 0.48597 0.0
H92 H 0.59767 0.40048 0.49031 0.0
O93 O 0.75649 0.38564 0.53014 0.0
O94 O 0.77613 0.39487 0.57945 0.0
H95 H 0.68435 0.44367 0.61463 0.0
H96 H 0.61539 0.42179 0.60942 0.0
C97 C 0.64349 0.41327 0.60834 0.0
H98 H 0.63634 0.38867 0.62449 0.0
H99 H 0.77044 0.44571 0.63104 0.0
O100 O 0.65649 0.32991 0.48071 0.0
C101 C 0.79036 0.40317 0.55359 0.0
Co102 Co 0.76344 0.3733 0.15887 0.0
Co103 Co 0.72463 0.3581 0.09051 0.0
C104 C 0.78393 0.32352 0.11827 0.0
O105 O 0.78705 0.34057 0.14329 0.0
O106 O 0.76016 0.32637 0.09459 0.0
C107 C 0.83655 0.39417 0.21174 0.0
O108 O 0.86022 0.3842 0.19511 0.0
C109 C 0.723 0.35788 0.02436 0.0
C110 C 0.6596 0.3658 0.01108 0.0
C111 C 0.69555 0.3617 0.9997 0.0
N112 N 0.70385 0.35951 0.04902 0.0
N113 N 0.66578 0.36402 0.04076 0.0
C114 C 0.76909 0.35601 0.02489 0.0
H115 H 0.7545 0.32077 0.02298 0.0
H116 H 0.79597 0.37212 0.04628 0.0
H117 H 0.79104 0.37246 0.00602 0.0
C118 C 0.81034 0.46527 0.14925 0.0
N119 N 0.78439 0.42288 0.13847 0.0
N120 N 0.76983 0.41857 0.10957 0.0
C121 C 0.78707 0.4593 0.101 0.0
C122 C 0.81386 0.49028 0.12593 0.0
C123 C 0.82484 0.48001 0.1819 0.0
H124 H 0.79148 0.45606 0.19378 0.0
H125 H 0.85962 0.48081 0.19088 0.0
H126 H 0.83414 0.51322 0.18653 0.0
O127 O 0.68651 0.33529 0.15774 0.0
O128 O 0.65691 0.32237 0.10928 0.0
H129 H 0.73469 0.45544 0.06477 0.0
H130 H 0.80211 0.50425 0.06704 0.0
C131 C 0.77675 0.46819 0.06987 0.0
H132 H 0.78405 0.45042 0.05398 0.0
H133 H 0.64446 0.36652 0.05552 0.0
O134 O 0.79589 0.39142 0.20044 0.0
C135 C 0.64838 0.31704 0.13638 0.0
Co136 Co 0.3064 0.64931 0.853 0.0
Co137 Co 0.34385 0.67755 0.9213 0.0
C138 C 0.28077 0.58098 0.89388 0.0
O139 O 0.27465 0.59209 0.86831 0.0
O140 O 0.30817 0.60989 0.91629 0.0
C141 C 0.30444 0.61887 0.79901 0.0
O142 O 0.31648 0.59788 0.81729 0.0
C143 C 0.33981 0.67939 0.98788 0.0
C144 C 0.41225 0.74665 1.0019 0.0
C145 C 0.37154 0.70902 0.01306 0.0
N146 N 0.36127 0.69887 0.9633 0.0
N147 N 0.40432 0.73919 0.97208 0.0
C148 C 0.29181 0.63263 0.98735 0.0
H149 H 0.28291 0.61369 0.96595 0.0
H150 H 0.25745 0.63286 0.9899 0.0
H151 H 0.29738 0.61602 0.00606 0.0
C152 C 0.26403 0.69967 0.85772 0.0
N153 N 0.28629 0.68111 0.87066 0.0
N154 N 0.30229 0.6949 0.89917 0.0
C155 C 0.29104 0.7239 0.90504 0.0
C156 C 0.2668 0.72815 0.87876 0.0
C157 C 0.24284 0.69162 0.82525 0.0
H158 H 0.22127 0.65598 0.81787 0.0
H159 H 0.21579 0.70139 0.82053 0.0
H160 H 0.27628 0.71109 0.81236 0.0
O161 O 0.38368 0.68423 0.85835 0.0
O162 O 0.4141 0.70939 0.90572 0.0
H163 H 0.29357 0.77093 0.93454 0.0
H164 H 0.29593 0.7286 0.95244 0.0
C165 C 0.30905 0.7509 0.93416 0.0
H166 H 0.35287 0.7734 0.93805 0.0
H167 H 0.4291 0.76144 0.95768 0.0
O168 O 0.2902 0.64116 0.80958 0.0
C169 C 0.42219 0.70724 0.87908 0.0
Co170 Co 0.43289 0.72311 0.49124 0.0
Co171 Co 0.38619 0.70088 0.42316 0.0
C172 C 0.44988 0.66969 0.45227 0.0
O173 O 0.45709 0.69018 0.47673 0.0
O174 O 0.42238 0.6695 0.42911 0.0
C175 C 0.51184 0.75218 0.54232 0.0
O176 O 0.53634 0.74515 0.52426 0.0
C177 C 0.38509 0.70166 0.35661 0.0
C178 C 0.30561 0.68437 0.34209 0.0
C179 C 0.35006 0.69378 0.33114 0.0
N180 N 0.36202 0.697 0.38103 0.0
N181 N 0.3146 0.68685 0.372 0.0
C182 C 0.43857 0.71158 0.35792 0.0
H183 H 0.45115 0.70538 0.37995 0.0
H184 H 0.46763 0.74711 0.35461 0.0
H185 H 0.43844 0.69115 0.34007 0.0
C186 C 0.47387 0.81297 0.47731 0.0
N187 N 0.44984 0.77014 0.46829 0.0
N188 N 0.4303 0.76239 0.43986 0.0
C189 C 0.44083 0.80077 0.43008 0.0
C190 C 0.46925 0.83411 0.45356 0.0
C191 C 0.4956 0.83209 0.50903 0.0
H192 H 0.52855 0.82981 0.51666 0.0
H193 H 0.51041 0.8673 0.51179 0.0
H194 H 0.46433 0.8126 0.52327 0.0
O195 O 0.3556 0.6823 0.49177 0.0
O196 O 0.32121 0.66754 0.44388 0.0
H197 H 0.37618 0.78119 0.39638 0.0
H198 H 0.43254 0.83875 0.39711 0.0
C199 C 0.41996 0.80442 0.39984 0.0
H200 H 0.43438 0.79444 0.38272 0.0
H201 H 0.28805 0.68117 0.38628 0.0
O202 O 0.46811 0.74546 0.53257 0.0
C203 C 0.31566 0.66294 0.4714 0.0
H204 H 0.15756 0.03697 0.16702 0.0
H205 H 0.24667 0.0827 0.15461 0.0
H206 H 0.30165 0.16033 0.23909 0.0
H207 H 0.21071 0.11598 0.2507 0.0
H208 H 0.34544 0.21382 0.19801 0.0
H209 H 0.32757 0.08218 0.22308 0.0
H210 H 0.28576 1.00189 0.22177 0.0
H211 H 0.29654 0.99793 0.12851 0.0
H212 H 0.33781 0.07813 0.12917 0.0
H213 H 0.61747 0.31477 0.19045 0.0
H214 H 0.52855 0.26908 0.20378 0.0
H215 H 0.46548 0.21026 0.11331 0.0
H216 H 0.55495 0.25662 0.09951 0.0
H217 H 0.42759 0.14789 0.15821 0.0
H218 H 0.44644 0.28167 0.13481 0.0
H219 H 0.49074 0.36242 0.13828 0.0
H220 H 0.48146 0.36229 0.23195 0.0
H221 H 0.43776 0.28159 0.22912 0.0
C222 C 0.1883 0.06412 0.18282 0.0
C223 C 0.17654 0.07335 0.20952 0.0
C224 C 0.23973 0.08989 0.17592 0.0
C225 C 0.28149 0.12488 0.19599 0.0
C226 C 0.27026 0.13358 0.22315 0.0
C227 C 0.21831 0.10799 0.2299 0.0
C228 C 0.3362 0.15298 0.18796 0.0
C229 C 0.36363 0.1993 0.18981 0.0
C230 C 0.35995 0.13433 0.17659 0.0
C231 C 0.3354 0.08612 0.17613 0.0
C232 C 0.32071 0.06414 0.20225 0.0
C233 C 0.29715 0.01865 0.20163 0.0
C234 C 0.28839 0.99481 0.17506 0.0
C235 C 0.30331 0.01644 0.14907 0.0
C236 C 0.32686 0.06192 0.14956 0.0
C237 C 0.58482 0.29228 0.17324 0.0
C238 C 0.59353 0.28949 0.14382 0.0
C239 C 0.53388 0.26622 0.18095 0.0
C240 C 0.49028 0.23638 0.15955 0.0
C241 C 0.4986 0.23313 0.13018 0.0
C242 C 0.5497 0.25976 0.1223 0.0
C243 C 0.43628 0.20836 0.16819 0.0
C244 C 0.40919 0.16218 0.16649 0.0
C245 C 0.41319 0.22715 0.18006 0.0
C246 C 0.4393 0.27565 0.1818 0.0
C247 C 0.45426 0.29892 0.1562 0.0
C248 C 0.47918 0.34467 0.15804 0.0
C249 C 0.48904 0.36749 0.18533 0.0
C250 C 0.47386 0.34458 0.21083 0.0
C251 C 0.44897 0.29882 0.20911 0.0
H252 H 0.50832 0.40291 0.18671 0.0
H253 H 0.27014 0.95959 0.17462 0.0
H254 H 1.00215 0.14868 0.23667 0.0
H255 H 0.971 0.19279 0.21893 0.0
H256 H 0.82643 0.07415 0.1748 0.0
H257 H 0.85733 0.03027 0.19268 0.0
H258 H 0.87397 0.13851 0.13674 0.0
H259 H 0.82423 0.12652 0.23381 0.0
H260 H 0.83648 0.13226 0.2887 0.0
H261 H 0.95467 0.27282 0.291 0.0
H262 H 0.94373 0.26783 0.23608 0.0
H263 H 0.73741 0.23788 0.09587 0.0
H264 H 0.76652 0.19168 0.11186 0.0
H265 H 0.91006 0.30673 0.16004 0.0
H266 H 0.88099 0.3524 0.14433 0.0
H267 H 0.8605 0.24227 0.19589 0.0
H268 H 0.91195 0.25439 0.09903 0.0
H269 H 0.89979 0.24905 0.04414 0.0
H270 H 0.77884 0.10896 0.04141 0.0
H271 H 0.78978 0.11357 0.09633 0.0
C272 C 0.963 0.13197 0.2241 0.0
C273 C 0.93202 0.08613 0.21611 0.0
C274 C 0.94535 0.15717 0.21374 0.0
C275 C 0.89648 0.13686 0.19524 0.0
C276 C 0.86437 0.09066 0.18878 0.0
C277 C 0.88181 0.06556 0.19926 0.0
C278 C 0.88027 0.16384 0.18099 0.0
C279 C 0.87031 0.16076 0.1497 0.0
C280 C 0.87659 0.19363 0.19778 0.0
C281 C 0.88359 0.19671 0.23081 0.0
C282 C 0.85324 0.15859 0.24601 0.0
C283 C 0.85986 0.16172 0.27714 0.0
C284 C 0.89645 0.20286 0.29333 0.0
C285 C 0.92642 0.24096 0.27843 0.0
C286 C 0.92001 0.238 0.2473 0.0
C287 C 0.77612 0.25348 0.10877 0.0
C288 C 0.80715 0.29875 0.11867 0.0
C289 C 0.79256 0.22704 0.11819 0.0
C290 C 0.84034 0.24562 0.1375 0.0
C291 C 0.87289 0.29146 0.14546 0.0
C292 C 0.85649 0.31765 0.13617 0.0
C293 C 0.85466 0.21729 0.15161 0.0
C294 C 0.86416 0.22004 0.1829 0.0
C295 C 0.85801 0.1873 0.13481 0.0
C296 C 0.85126 0.18442 0.1018 0.0
C297 C 0.88241 0.22251 0.08673 0.0
C298 C 0.87581 0.21961 0.05561 0.0
C299 C 0.83845 0.17872 0.03929 0.0
C300 C 0.8077 0.14063 0.05408 0.0
C301 C 0.81411 0.14336 0.0852 0.0
H302 H 0.83342 0.17653 0.0152 0.0
H303 H 0.90148 0.20522 0.31743 0.0
H304 H 0.91202 0.55761 0.15197 0.0
H305 H 0.94115 0.63144 0.17057 0.0
H306 H 0.79541 0.60477 0.12703 0.0
H307 H 0.76523 0.52992 0.10918 0.0
H308 H 0.90154 0.69788 0.12519 0.0
H309 H 0.79063 0.58852 0.19163 0.0
H310 H 0.76647 0.5262 0.22205 0.0
H311 H 0.92013 0.60588 0.27462 0.0
H312 H 0.94545 0.66851 0.24419 0.0
H313 H 0.88781 0.85507 0.19455 0.0
H314 H 0.86226 0.78172 0.17878 0.0
H315 H 0.99332 0.80465 0.23926 0.0
H316 H 1.01961 0.87911 0.25505 0.0
H317 H 0.90067 0.71439 0.23372 0.0
H318 H 1.01206 0.82436 0.17305 0.0
H319 H 0.04754 0.88635 0.1411 0.0
H320 H 0.90745 0.80791 0.07682 0.0
H321 H 0.8702 0.74592 0.10886 0.0
C322 C 0.88681 0.56798 0.1457 0.0
C323 C 0.83631 0.53808 0.12926 0.0
C324 C 0.90334 0.60999 0.1565 0.0
C325 C 0.87011 0.62325 0.15056 0.0
C326 C 0.82152 0.59499 0.13194 0.0
C327 C 0.80452 0.55248 0.12151 0.0
C328 C 0.88469 0.6652 0.16557 0.0
C329 C 0.90049 0.70137 0.14878 0.0
C330 C 0.88576 0.6702 0.19666 0.0
C331 C 0.87009 0.63303 0.21547 0.0
C332 C 0.81937 0.59266 0.20956 0.0
C333 C 0.80543 0.55731 0.22684 0.0
C334 C 0.84178 0.56203 0.25021 0.0
C335 C 0.89204 0.60224 0.25647 0.0
C336 C 0.90618 0.63769 0.23925 0.0
C337 C 0.91034 0.84405 0.20521 0.0
C338 C 0.95583 0.87292 0.22598 0.0
C339 C 0.89586 0.80217 0.19601 0.0
C340 C 0.92652 0.78803 0.2073 0.0
C341 C 0.96924 0.81502 0.23012 0.0
C342 C 0.98397 0.85737 0.23936 0.0
C343 C 0.91608 0.74703 0.19312 0.0
C344 C 0.90143 0.71104 0.21008 0.0
C345 C 0.91711 0.74246 0.16219 0.0
C346 C 0.93801 0.78057 0.14359 0.0
C347 C 0.98829 0.82056 0.15239 0.0
C348 C 1.00883 0.85569 0.13422 0.0
C349 C 0.97979 0.85102 0.10696 0.0
C350 C 0.9299 0.81144 0.09796 0.0
C351 C 0.90895 0.77636 0.11618 0.0
H352 H 0.99603 0.878 0.09274 0.0
H353 H 0.83099 0.53457 0.26348 0.0
H354 H 0.21665 0.22594 0.80326 0.0
H355 H 0.24357 0.29851 0.82331 0.0
H356 H 0.08372 0.25718 0.79959 0.0
H357 H 0.05712 0.18472 0.77909 0.0
H358 H 0.15224 0.34282 0.79136 0.0
H359 H 0.12923 0.25216 0.87131 0.0
H360 H 0.14284 0.20408 0.90166 0.0
H361 H 0.30896 0.30883 0.92056 0.0
H362 H 0.29636 0.35752 0.89022 0.0
H363 H 0.179 0.50956 0.88039 0.0
H364 H 0.14874 0.43474 0.86389 0.0
H365 H 0.3068 0.47244 0.88871 0.0
H366 H 0.33657 0.54703 0.9063 0.0
H367 H 0.23746 0.38749 0.89684 0.0
H368 H 0.25893 0.47664 0.81409 0.0
H369 H 0.243 0.52244 0.78245 0.0
H370 H 0.07647 0.41861 0.76928 0.0
H371 H 0.09133 0.37187 0.80051 0.0
C372 C 0.1878 0.23306 0.80138 0.0
C373 C 0.13501 0.20005 0.78935 0.0
C374 C 0.20294 0.27423 0.8133 0.0
C375 C 0.16542 0.28306 0.81373 0.0
C376 C 0.11338 0.25116 0.79975 0.0
C377 C 0.09826 0.20993 0.78773 0.0
C378 C 0.17995 0.3246 0.82985 0.0
C379 C 0.17024 0.35223 0.81453 0.0
C380 C 0.20418 0.33748 0.86003 0.0
C381 C 0.21192 0.30833 0.87828 0.0
C382 C 0.16871 0.26486 0.88181 0.0
C383 C 0.17622 0.23754 0.89907 0.0
C384 C 0.22676 0.25334 0.91294 0.0
C385 C 0.26985 0.2966 0.90974 0.0
C386 C 0.26253 0.32412 0.89259 0.0
C387 C 0.20668 0.50119 0.88363 0.0
C388 C 0.25992 0.53387 0.89513 0.0
C389 C 0.18963 0.45865 0.87361 0.0
C390 C 0.22579 0.44818 0.87403 0.0
C391 C 0.27811 0.47965 0.88786 0.0
C392 C 0.29503 0.52217 0.89832 0.0
C393 C 0.20998 0.40588 0.85829 0.0
C394 C 0.21944 0.37808 0.87368 0.0
C395 C 0.18518 0.39265 0.82819 0.0
C396 C 0.17619 0.42099 0.80986 0.0
C397 C 0.2189 0.46373 0.80461 0.0
C398 C 0.21008 0.48981 0.78673 0.0
C399 C 0.15881 0.47366 0.7741 0.0
C400 C 0.11617 0.43117 0.77915 0.0
C401 C 0.12476 0.40478 0.79682 0.0
H402 H 0.15215 0.49398 0.7603 0.0
H403 H 0.2325 0.23208 0.92622 0.0
H404 H 0.45042 0.70228 0.8255 0.0
H405 H 0.53677 0.74905 0.80941 0.0
H406 H 0.60428 0.81937 0.89681 0.0
H407 H 0.51689 0.77275 0.91317 0.0
H408 H 0.63637 0.87605 0.85275 0.0
H409 H 0.62704 0.74489 0.87296 0.0
H410 H 0.58581 0.66463 0.86862 0.0
H411 H 0.5854 0.66594 0.77396 0.0
H412 H 0.62609 0.74614 0.7777 0.0
H413 H 0.90615 0.98775 0.84349 0.0
H414 H 0.81635 0.9406 0.855 0.0
H415 H 0.7612 0.875 0.76618 0.0
H416 H 0.85219 0.92198 0.75457 0.0
H417 H 0.72024 0.81539 0.80762 0.0
H418 H 0.73079 0.94415 0.78577 0.0
H419 H 0.76975 0.02394 0.78763 0.0
H420 H 0.76437 0.02683 0.88167 0.0
H421 H 0.72602 0.94715 0.88046 0.0
C422 C 0.48354 0.72739 0.84155 0.0
C423 C 0.47648 0.7336 0.87078 0.0
C424 C 0.53314 0.75409 0.83225 0.0
C425 C 0.57733 0.78755 0.85191 0.0
C426 C 0.57077 0.79368 0.88122 0.0
C427 C 0.52088 0.76683 0.89063 0.0
C428 C 0.6298 0.81683 0.84142 0.0
C429 C 0.6551 0.86282 0.84334 0.0
C430 C 0.65326 0.79954 0.82785 0.0
C431 C 0.62924 0.75143 0.8256 0.0
C432 C 0.61786 0.728 0.85121 0.0
C433 C 0.59464 0.68253 0.84885 0.0
C434 C 0.5829 0.66018 0.82103 0.0
C435 C 0.5945 0.68329 0.7955 0.0
C436 C 0.61771 0.72876 0.79773 0.0
C437 C 0.87506 0.96346 0.82625 0.0
C438 C 0.88662 0.95857 0.79812 0.0
C439 C 0.82347 0.93664 0.83285 0.0
C440 C 0.78173 0.90436 0.81145 0.0
C441 C 0.79275 0.89969 0.78309 0.0
C442 C 0.84471 0.92675 0.77641 0.0
C443 C 0.72731 0.8747 0.81947 0.0
C444 C 0.70152 0.82864 0.817 0.0
C445 C 0.70304 0.89185 0.83219 0.0
C446 C 0.72595 0.93975 0.83307 0.0
C447 C 0.7383 0.96188 0.8069 0.0
C448 C 0.7602 1.00707 0.80782 0.0
C449 C 0.76965 0.03046 0.83476 0.0
C450 C 0.75707 1.00867 0.86082 0.0
C451 C 0.73519 0.96348 0.86003 0.0
H452 H 0.78661 0.06545 0.83543 0.0
H453 H 0.5649 0.62498 0.81925 0.0
H454 H 0.13383 0.96863 0.75039 0.0
H455 H 0.17113 0.92769 0.76496 0.0
H456 H 0.07704 0.87691 0.83646 0.0
H457 H 0.04075 0.91757 0.82237 0.0
H458 H 0.17615 0.91184 0.85744 0.0
H459 H 0.05107 0.81059 0.77396 0.0
H460 H 1.00943 0.78866 0.72143 0.0
H461 H 0.15697 0.83039 0.69455 0.0
H462 H 0.19968 0.85314 0.74693 0.0
H463 H 0.19966 0.73954 0.90345 0.0
H464 H 0.16989 0.78466 0.88571 0.0
H465 H 0.27615 0.83343 0.82015 0.0
H466 H 0.30616 0.78898 0.83805 0.0
H467 H 0.17761 0.80377 0.79486 0.0
H468 H 0.30102 0.90075 0.87911 0.0
H469 H 0.34179 0.92184 0.93178 0.0
H470 H 0.19643 0.88773 0.95742 0.0
H471 H 0.1545 0.86575 0.90492 0.0
C472 C 0.12022 0.94773 0.76865 0.0
C473 C 0.08445 0.94636 0.78523 0.0
C474 C 0.14173 0.92455 0.77712 0.0
C475 C 0.12735 0.89945 0.8021 0.0
C476 C 0.08943 0.89636 0.81744 0.0
C477 C 0.06839 0.91945 0.80916 0.0
C478 C 0.15308 0.87806 0.81365 0.0
C479 C 0.17594 0.88787 0.84377 0.0
C480 C 0.15426 0.84765 0.79578 0.0
C481 C 0.12871 0.83407 0.76431 0.0
C482 C 0.07475 0.81547 0.75682 0.0
C483 C 0.05093 0.80281 0.72708 0.0
C484 C 0.08057 0.80827 0.70466 0.0
C485 C 0.13408 0.82628 0.71194 0.0
C486 C 0.15811 0.83904 0.74164 0.0
C487 C 0.21749 0.76078 0.88578 0.0
C488 C 0.25511 0.76075 0.8721 0.0
C489 C 0.20031 0.78636 0.87551 0.0
C490 C 0.22053 0.81234 0.8514 0.0
C491 C 0.25957 0.81346 0.83854 0.0
C492 C 0.27688 0.78821 0.8489 0.0
C493 C 0.1997 0.83697 0.83876 0.0
C494 C 0.17798 0.82789 0.80846 0.0
C495 C 0.19937 0.86798 0.85648 0.0
C496 C 0.22445 0.88115 0.88809 0.0
C497 C 0.27758 0.89735 0.896 0.0
C498 C 0.30094 0.90954 0.92583 0.0
C499 C 0.27168 0.90601 0.94795 0.0
C500 C 0.21903 0.89038 0.94027 0.0
C501 C 0.19545 0.87807 0.91048 0.0
H502 H 0.28984 0.91549 0.97102 0.0
H503 H 0.06206 0.79843 0.68165 0.0
H504 H 0.83165 0.46026 0.51131 0.0
H505 H 0.92138 0.50246 0.49912 0.0
H506 H 0.96797 0.45778 0.57527 0.0
H507 H 0.87703 0.41477 0.58726 0.0
H508 H 0.04375 0.54473 0.56914 0.0
H509 H 0.94512 0.41037 0.50502 0.0
H510 H 0.87422 0.35103 0.46765 0.0
H511 H 0.91061 0.44666 0.40399 0.0
H512 H 0.98144 0.5067 0.44107 0.0
H513 H 0.28765 0.61961 0.52182 0.0
H514 H 0.20043 0.57446 0.53748 0.0
H515 H 0.13517 0.59886 0.4578 0.0
H516 H 0.22219 0.64203 0.44122 0.0
H517 H 0.06901 0.51859 0.4675 0.0
H518 H 0.16553 0.65387 0.53272 0.0
H519 H 0.23999 0.71216 0.56921 0.0
H520 H 0.20824 0.61469 0.63062 0.0
H521 H 0.1339 0.55573 0.59436 0.0
C522 C 0.86092 0.4592 0.5253 0.0
C523 C 0.84697 0.43341 0.54974 0.0
C524 C 0.91231 0.48341 0.51838 0.0
C525 C 0.95135 0.48246 0.53577 0.0
C526 C 0.93843 0.45868 0.56129 0.0
C527 C 0.88658 0.4343 0.56824 0.0
C528 C 1.00517 0.50609 0.52686 0.0
C529 C 0.04937 0.53857 0.54705 0.0
C530 C 1.01264 0.49882 0.49783 0.0
C531 C 0.9685 0.46307 0.47589 0.0
C532 C 0.93768 0.41883 0.48316 0.0
C533 C 0.89766 0.38504 0.46198 0.0
C534 C 0.88828 0.39505 0.4334 0.0
C535 C 0.91825 0.43894 0.42607 0.0
C536 C 0.95834 0.47285 0.44715 0.0
C537 C 0.2547 0.61533 0.50759 0.0
C538 C 0.26199 0.63469 0.48033 0.0
C539 C 0.20473 0.58972 0.51672 0.0
C540 C 0.16097 0.58401 0.49933 0.0
C541 C 0.16809 0.60279 0.47181 0.0
C542 C 0.21792 0.62755 0.46231 0.0
C543 C 0.10777 0.55805 0.50953 0.0
C544 C 0.06356 0.52495 0.48958 0.0
C545 C 0.10033 0.56488 0.53874 0.0
C546 C 0.14444 0.60037 0.56074 0.0
C547 C 0.17458 0.64486 0.55396 0.0
C548 C 0.21674 0.67801 0.5746 0.0
C549 C 0.22891 0.66711 0.60218 0.0
C550 C 0.1988 0.62306 0.60923 0.0
C551 C 0.1566 0.58978 0.58867 0.0
H552 H 0.26162 0.6928 0.61811 0.0
H553 H 0.85771 0.36878 0.41694 0.0
H554 H 0.66184 0.48723 0.56729 0.0
H555 H 0.63186 0.53197 0.54933 0.0
H556 H 0.48724 0.41412 0.50442 0.0
H557 H 0.51738 0.36961 0.52229 0.0
H558 H 0.53064 0.47775 0.46717 0.0
H559 H 0.48869 0.46835 0.56616 0.0
H560 H 0.5052 0.4748 0.62103 0.0
H561 H 0.6256 0.61469 0.62173 0.0
H562 H 0.61036 0.60897 0.56681 0.0
H563 H 0.40062 0.58342 0.42983 0.0
H564 H 0.4274 0.5354 0.44498 0.0
H565 H 0.57283 0.64825 0.49346 0.0
H566 H 0.54587 0.69567 0.47882 0.0
H567 H 0.52528 0.58444 0.5287 0.0
H568 H 0.56908 0.59375 0.4298 0.0
H569 H 0.55282 0.58752 0.37492 0.0
H570 H 0.4292 0.44833 0.37405 0.0
H571 H 0.44425 0.45385 0.42898 0.0
C572 C 0.62302 0.47082 0.55435 0.0
C573 C 0.59178 0.42498 0.54628 0.0
C574 C 0.60597 0.4964 0.5439 0.0
C575 C 0.55722 0.47653 0.52535 0.0
C576 C 0.52507 0.43036 0.51848 0.0
C577 C 0.54207 0.40489 0.52894 0.0
C578 C 0.54091 0.50398 0.51187 0.0
C579 C 0.52873 0.50063 0.48069 0.0
C580 C 0.53941 0.53459 0.5293 0.0
C581 C 0.54874 0.53813 0.56234 0.0
C582 C 0.51902 0.50042 0.57799 0.0
C583 C 0.52809 0.50396 0.60911 0.0
C584 C 0.56653 0.54511 0.62486 0.0
C585 C 0.59589 0.58282 0.60951 0.0
C586 C 0.58703 0.57946 0.57838 0.0
C587 C 0.43913 0.59813 0.44273 0.0
C588 C 0.47126 0.64334 0.453 0.0
C589 C 0.45431 0.57063 0.45163 0.0
C590 C 0.50207 0.58803 0.47068 0.0
C591 C 0.53561 0.63378 0.47909 0.0
C592 C 0.52038 0.661 0.47043 0.0
C593 C 0.51562 0.55867 0.48396 0.0
C594 C 0.52714 0.56156 0.51515 0.0
C595 C 0.51655 0.52772 0.46653 0.0
C596 C 0.5074 0.52432 0.43351 0.0
C597 C 0.53811 0.56189 0.41792 0.0
C598 C 0.52918 0.55847 0.3868 0.0
C599 C 0.48989 0.51758 0.37101 0.0
C600 C 0.45955 0.48 0.38631 0.0
C601 C 0.46829 0.48325 0.41744 0.0
H602 H 0.48305 0.515 0.34691 0.0
H603 H 0.57347 0.54778 0.64895 0.0
H604 H 0.56357 0.9121 0.44921 0.0
H605 H 0.59324 0.98586 0.46865 0.0
H606 H 0.43615 0.93055 0.48776 0.0
H607 H 0.40641 0.8571 0.46748 0.0
H608 H 0.47903 1.01152 0.47113 0.0
H609 H 0.5352 0.94729 0.54251 0.0
H610 H 0.5788 0.91253 0.56053 0.0
H611 H 0.72739 0.02624 0.54118 0.0
H612 H 0.68464 0.06164 0.52296 0.0
H613 H 0.56194 0.19516 0.57156 0.0
H614 H 0.52561 0.11861 0.55399 0.0
H615 H 0.67687 0.1641 0.52985 0.0
H616 H 0.71288 0.24002 0.54758 0.0
H617 H 0.63294 0.08562 0.55141 0.0
H618 H 0.57426 0.14528 0.47485 0.0
H619 H 0.5294 0.17803 0.45434 0.0
H620 H 0.3858 0.07285 0.48436 0.0
H621 H 0.42944 0.03887 0.50439 0.0
C622 C 0.53502 0.91621 0.45641 0.0
C623 C 0.48251 0.87926 0.45627 0.0
C624 C 0.55213 0.95817 0.46806 0.0
C625 C 0.51731 0.96377 0.48045 0.0
C626 C 0.46393 0.92726 0.47849 0.0
C627 C 0.44675 0.88536 0.46662 0.0
C628 C 0.53708 1.00682 0.49688 0.0
C629 C 0.51223 0.02733 0.48896 0.0
C630 C 0.58078 0.02803 0.52004 0.0
C631 C 0.60664 1.00694 0.53115 0.0
C632 C 0.57713 0.96479 0.54198 0.0
C633 C 0.60169 0.945 0.55226 0.0
C634 C 0.65577 0.96709 0.55189 0.0
C635 C 0.68548 1.00914 0.5414 0.0
C636 C 0.66114 0.02913 0.53117 0.0
C637 C 0.58781 0.18833 0.56365 0.0
C638 C 0.64057 0.22324 0.56166 0.0
C639 C 0.56684 0.14476 0.55305 0.0
C640 C 0.59819 0.13549 0.54004 0.0
C641 C 0.65174 0.17013 0.53973 0.0
C642 C 0.67251 0.2135 0.55017 0.0
C643 C 0.5753 0.09057 0.5254 0.0
C644 C 0.59953 0.06964 0.53371 0.0
C645 C 0.53099 0.06892 0.50266 0.0
C646 C 0.50521 0.08988 0.4914 0.0
C647 C 0.53323 0.12937 0.47726 0.0
C648 C 0.50802 0.14807 0.46566 0.0
C649 C 0.45502 0.12784 0.46836 0.0
C650 C 0.42692 0.08858 0.4824 0.0
C651 C 0.45176 0.06945 0.49372 0.0
H652 H 0.43563 0.14244 0.45941 0.0
H653 H 0.67469 0.95167 0.5598 0.0
H654 H 1.00857 0.07906 0.61823 0.0
H655 H 1.01616 0.07645 0.56549 0.0
H656 H 0.02714 0.96719 0.57582 0.0
H657 H 1.02128 0.9708 0.62909 0.0
H658 H 0.09111 0.01906 0.53922 0.0
H659 H 0.9099 0.95179 0.54456 0.0
H660 H 0.8329 0.94452 0.55976 0.0
H661 H 0.87255 0.05972 0.51544 0.0
H662 H 0.95026 0.06808 0.50031 0.0
H663 H 0.03625 0.97019 0.37922 0.0
H664 H 0.02492 0.96161 0.43205 0.0
H665 H 0.04633 0.08653 0.43965 0.0
H666 H 0.05803 0.09537 0.38714 0.0
H667 H 0.95978 0.01704 0.46618 0.0
H668 H 0.14562 0.08461 0.46417 0.0
H669 H 0.21992 0.08787 0.44848 0.0
H670 H 0.16553 0.9646 0.4857 0.0
H671 H 0.09042 0.96031 0.50124 0.0
C672 C 1.01307 0.05472 0.60931 0.0
C673 C 1.01457 0.02528 0.62781 0.0
C674 C 1.01702 0.05301 0.57907 0.0
C675 C 1.02092 0.02089 0.56635 0.0
C676 C 1.02396 0.99219 0.585 0.0
C677 C 1.02087 0.99439 0.61548 0.0
C678 C 1.02111 0.01722 0.53359 0.0
C679 C 0.06178 0.01781 0.52328 0.0
C680 C 0.98303 0.01573 0.51256 0.0
C681 C 0.93616 1.01074 0.52148 0.0
C682 C 0.90241 0.97575 0.53821 0.0
C683 C 0.85861 0.97142 0.5468 0.0
C684 C 0.84789 1.00169 0.53862 0.0
C685 C 0.88092 0.03631 0.52177 0.0
C686 C 0.92482 0.04084 0.51315 0.0
C687 C 0.03765 0.9954 0.39206 0.0
C688 C 0.04743 0.03323 0.37899 0.0
C689 C 0.03166 0.99067 0.42228 0.0
C690 C 0.0349 0.0235 0.43979 0.0
C691 C 0.04357 0.06077 0.42656 0.0
C692 C 0.05037 0.06582 0.39658 0.0
C693 C 0.03025 0.01984 0.47206 0.0
C694 C 0.98865 0.01778 0.48221 0.0
C695 C 0.06689 0.01923 0.49282 0.0
C696 C 0.11206 0.02187 0.48354 0.0
C697 C 0.14922 0.05799 0.46875 0.0
C698 C 0.19154 0.06007 0.45994 0.0
C699 C 0.19735 0.02639 0.46601 0.0
C700 C 0.16092 0.99062 0.48097 0.0
C701 C 0.11849 0.98836 0.48979 0.0
H702 H 0.23016 0.02808 0.45919 0.0
H703 H 0.81395 0.99827 0.54528 0.0
H704 H 0.7124 0.31025 0.96666 0.0
H705 H 0.71463 0.30819 0.91288 0.0
H706 H 0.69434 0.41271 0.90671 0.0
H707 H 0.69043 0.41373 0.96008 0.0
H708 H 0.63232 0.35352 0.86414 0.0
H709 H 0.81651 0.42683 0.90208 0.0
H710 H 0.89258 0.43484 0.93183 0.0
H711 H 0.85271 0.31638 0.88527 0.0
H712 H 0.77597 0.30736 0.8555 0.0
H713 H 0.71544 0.43395 0.72582 0.0
H714 H 0.70907 0.42377 0.77872 0.0
H715 H 0.70065 0.305 0.76757 0.0
H716 H 0.70737 0.31522 0.71441 0.0
H717 H 0.77232 0.36239 0.81752 0.0
H718 H 0.59184 0.29401 0.77672 0.0
H719 H 0.51811 0.28899 0.74653 0.0
H720 H 0.55398 0.40207 0.79861 0.0
H721 H 0.62845 0.40818 0.82886 0.0
C722 C 0.70943 0.33332 0.95389 0.0
C723 C 0.70191 0.36256 0.96769 0.0
C724 C 0.71061 0.3321 0.92307 0.0
C725 C 0.7052 0.36063 0.90551 0.0
C726 C 0.69842 0.3902 0.91952 0.0
C727 C 0.69642 0.39091 0.95012 0.0
C728 C 0.70462 0.35901 0.87248 0.0
C729 C 0.66338 0.35598 0.8541 0.0
C730 C 0.74403 0.36072 0.85896 0.0
C731 C 0.79017 0.36615 0.87681 0.0
C732 C 0.82373 0.4023 0.89835 0.0
C733 C 0.86701 0.40706 0.91519 0.0
C734 C 0.87738 0.37607 0.91051 0.0
C735 C 0.84457 0.34032 0.88892 0.0
C736 C 0.80121 0.33538 0.87204 0.0
C737 C 0.71174 0.4054 0.73454 0.0
C738 C 0.7109 0.37495 0.71575 0.0
C739 C 0.70802 0.39958 0.7648 0.0
C740 C 0.70388 0.36338 0.77714 0.0
C741 C 0.70347 0.33302 0.75853 0.0
C742 C 0.70663 0.33859 0.72806 0.0
C743 C 0.70089 0.3581 0.80956 0.0
C744 C 0.74123 0.35967 0.82771 0.0
C745 C 0.66097 0.35548 0.82296 0.0
C746 C 0.61599 0.35174 0.80492 0.0
C747 C 0.58426 0.31802 0.7816 0.0
C748 C 0.54229 0.31494 0.7645 0.0
C749 C 0.53143 0.34524 0.77061 0.0
C750 C 0.56245 0.37863 0.79389 0.0
C751 C 0.60452 0.38188 0.81104 0.0
H752 H 0.49891 0.34281 0.75734 0.0
H753 H 0.91091 0.37981 0.92356 0.0
H754 H 0.44004 0.74063 0.30297 0.0
H755 H 0.44433 0.7397 0.2497 0.0
H756 H 0.27451 0.64796 0.23165 0.0
H757 H 0.27008 0.64681 0.28493 0.0
H758 H 0.31427 0.6246 0.19548 0.0
H759 H 0.34462 0.76282 0.22405 0.0
H760 H 0.38924 0.83493 0.25311 0.0
H761 H 0.53562 0.87972 0.22303 0.0
H762 H 0.49198 0.80764 0.19407 0.0
H763 H 0.28243 0.65979 0.04148 0.0
H764 H 0.27948 0.65447 0.09502 0.0
H765 H 0.44964 0.74226 0.11216 0.0
H766 H 0.45289 0.74744 0.05881 0.0
H767 H 0.41035 0.76686 0.14871 0.0
H768 H 0.37878 0.62873 0.11901 0.0
H769 H 0.33338 0.55673 0.08967 0.0
H770 H 0.18826 0.51185 0.1215 0.0
H771 H 0.23265 0.58384 0.15072 0.0
C772 C 0.40362 0.71924 0.28792 0.0
C773 C 0.35474 0.69317 0.29867 0.0
C774 C 0.40607 0.71937 0.25719 0.0
C775 C 0.35967 0.69415 0.23634 0.0
C776 C 0.31098 0.66772 0.24705 0.0
C777 C 0.30854 0.66734 0.27769 0.0
C778 C 0.36141 0.69575 0.20344 0.0
C779 C 0.33481 0.65575 0.18527 0.0
C780 C 0.38893 0.73627 0.18987 0.0
C781 C 0.41516 0.77969 0.20714 0.0
C782 C 0.3864 0.78795 0.2238 0.0
C783 C 0.41151 0.82883 0.24023 0.0
C784 C 0.46527 0.86184 0.23998 0.0
C785 C 0.494 0.85409 0.22323 0.0
C786 C 0.4691 0.81325 0.20679 0.0
C787 C 0.31929 0.67709 0.05647 0.0
C788 C 0.36795 0.70336 0.04553 0.0
C789 C 0.31755 0.67427 0.08726 0.0
C790 C 0.36439 0.69759 0.10785 0.0
C791 C 0.41288 0.72391 0.09692 0.0
C792 C 0.41463 0.72677 0.06627 0.0
C793 C 0.36324 0.69574 0.14076 0.0
C794 C 0.38989 0.73571 0.15893 0.0
C795 C 0.33564 0.6552 0.15427 0.0
C796 C 0.30893 0.61184 0.13682 0.0
C797 C 0.33709 0.60363 0.11957 0.0
C798 C 0.31156 0.5628 0.10299 0.0
C799 C 0.25794 0.52978 0.10365 0.0
C800 C 0.22978 0.53748 0.12097 0.0
C801 C 0.25511 0.57828 0.13756 0.0
H802 H 0.23824 0.49819 0.09081 0.0
H803 H 0.48463 0.89347 0.25272 0.0
H804 H 0.90618 0.8755 0.09785 0.0
H805 H 0.93384 0.88148 0.04868 0.0
H806 H 0.97085 1.01234 0.04682 0.0
H807 H 0.94623 1.00741 0.09642 0.0
H808 H 0.93165 0.91558 0.98782 0.0
H809 H 0.09931 0.08033 0.04842 0.0
H810 H 0.12895 0.11686 0.09944 0.0
H811 H 0.07382 0.9924 0.13512 0.0
H812 H 0.04562 0.95571 0.08437 0.0
H813 H 0.10859 0.09326 0.91404 0.0
H814 H 0.07977 0.06461 0.96153 0.0
H815 H 0.11778 0.97229 0.95003 0.0
H816 H 0.14606 1.00042 0.90201 0.0
H817 H 0.12356 0.03435 0.01683 0.0
H818 H 1.02232 0.90826 0.93498 0.0
H819 H 0.98655 0.8856 0.88157 0.0
H820 H 0.90366 0.94385 0.88631 0.0
H821 H 0.94039 0.96808 0.93939 0.0
C822 C 0.91789 0.90458 0.08623 0.0
C823 C 0.92624 0.94168 0.10101 0.0
C824 C 0.93344 0.90789 0.05818 0.0
C825 C 0.95607 0.94797 0.04491 0.0
C826 C 0.95437 0.98151 0.05719 0.0
C827 C 0.9403 0.97869 0.08545 0.0
C828 C 0.99321 0.95958 0.02364 0.0
C829 C 0.97375 0.94054 0.99427 0.0
C830 C 0.0481 0.99266 0.03217 0.0
C831 C 0.07007 0.01523 0.06268 0.0
C832 C 0.09442 0.06099 0.06719 0.0
C833 C 0.1109 0.08174 0.09605 0.0
C834 C 0.1032 0.05704 0.12053 0.0
C835 C 0.07997 1.01167 0.1162 0.0
C836 C 0.06384 0.99087 0.0874 0.0
C837 C 0.11306 0.06827 0.92229 0.0
C838 C 0.12826 0.04824 0.90431 0.0
C839 C 0.09651 0.0519 0.94929 0.0
C840 C 0.09536 0.01563 0.95847 0.0
C841 C 0.11781 0.99991 0.94276 0.0
C842 C 0.13441 0.0163 0.91558 0.0
C843 C 0.06214 0.99026 0.98109 0.0
C844 C 0.082 1.00736 0.01076 0.0
C845 C 1.00766 0.95606 0.97268 0.0
C846 C 0.98447 0.9403 0.94101 0.0
C847 C 0.99686 0.91655 0.9245 0.0
C848 C 0.97648 0.9035 0.89428 0.0
C849 C 0.94308 0.9135 0.88046 0.0
C850 C 0.92982 0.9364 0.8969 0.0
C851 C 0.95045 0.94983 0.92704 0.0
H852 H 0.92732 0.90339 0.85707 0.0
H853 H 0.11518 0.07315 0.14281 0.0
H854 H 0.86276 0.34808 0.24562 0.0
H855 H 0.84066 0.3295 0.29593 0.0
H856 H 0.8089 0.42698 0.30041 0.0
H857 H 0.83116 0.44568 0.25049 0.0
H858 H 0.83499 0.41203 0.3553 0.0
H859 H 0.71412 0.32782 0.26418 0.0
H860 H 0.68979 0.28511 0.21592 0.0
H861 H 0.70502 0.19068 0.2599 0.0
H862 H 0.72995 0.23321 0.30842 0.0
H863 H 0.62282 0.34034 0.42459 0.0
H864 H 0.6623 0.35219 0.37907 0.0
H865 H 0.67583 0.24532 0.39551 0.0
H866 H 0.63388 0.2319 0.44023 0.0
H867 H 0.66825 0.25957 0.33476 0.0
H868 H 0.76501 0.34594 0.43026 0.0
H869 H 0.77944 0.39412 0.47311 0.0
H870 H 0.80199 0.4928 0.41501 0.0
H871 H 0.78661 0.44475 0.37166 0.0
C872 C 0.85403 0.36725 0.25807 0.0
C873 C 0.84718 0.39741 0.2442 0.0
C874 C 0.84113 0.35643 0.28669 0.0
C875 C 0.82151 0.37587 0.30129 0.0
C876 C 0.8234 0.41127 0.28932 0.0
C877 C 0.836 0.42189 0.26078 0.0
C878 C 0.78795 0.35354 0.32462 0.0
C879 C 0.79885 0.37855 0.35106 0.0
C880 C 0.74048 0.31001 0.31871 0.0
C881 C 0.72434 0.28382 0.28979 0.0
C882 C 0.71239 0.298 0.2635 0.0
C883 C 0.69853 0.27386 0.23613 0.0
C884 C 0.696 0.23526 0.23484 0.0
C885 C 0.7071 0.22063 0.26094 0.0
C886 C 0.72106 0.24471 0.28838 0.0
C887 C 0.63155 0.31786 0.41752 0.0
C888 C 0.62645 0.28585 0.43596 0.0
C889 C 0.65438 0.3248 0.39171 0.0
C890 C 0.67386 0.3008 0.38485 0.0
C891 C 0.66171 0.26456 0.40082 0.0
C892 C 0.63759 0.25685 0.42628 0.0
C893 C 0.7147 0.31858 0.36513 0.0
C894 C 0.70511 0.29254 0.33951 0.0
C895 C 0.76254 0.36192 0.37128 0.0
C896 C 0.77431 0.39156 0.39766 0.0
C897 C 0.77287 0.37784 0.42659 0.0
C898 C 0.78123 0.40518 0.451 0.0
C899 C 0.79145 0.44649 0.44679 0.0
C900 C 0.79399 0.46077 0.41822 0.0
C901 C 0.78552 0.43351 0.39374 0.0
H902 H 0.79721 0.46751 0.46556 0.0
H903 H 0.68535 0.21663 0.21362 0.0
H904 H 0.50285 0.79924 0.58338 0.0
H905 H 0.49643 0.7851 0.63574 0.0
H906 H 0.54441 0.69932 0.62606 0.0
H907 H 0.55249 0.71448 0.57381 0.0
H908 H 0.43614 0.65754 0.63156 0.0
H909 H 0.60473 0.76708 0.68282 0.0
H910 H 0.68872 0.83988 0.69954 0.0
H911 H 0.60434 0.88622 0.73101 0.0
H912 H 0.5197 0.81395 0.7141 0.0
H913 H 0.33544 0.57617 0.76962 0.0
H914 H 0.38764 0.60276 0.72866 0.0
H915 H 0.37175 0.70969 0.72279 0.0
H916 H 0.31913 0.68325 0.76362 0.0
H917 H 0.47785 0.73694 0.73022 0.0
H918 H 0.30984 0.63218 0.66872 0.0
H919 H 0.22601 0.5586 0.65323 0.0
H920 H 0.31155 0.50445 0.64112 0.0
H921 H 0.39593 0.57765 0.65689 0.0
C922 C 0.51472 0.77926 0.59289 0.0
C923 C 0.52709 0.75719 0.57466 0.0
C924 C 0.51147 0.77147 0.62283 0.0
C925 C 0.51947 0.74084 0.63456 0.0
C926 C 0.53841 0.72325 0.61734 0.0
C927 C 0.54284 0.73184 0.5875 0.0
C928 C 0.49261 0.71782 0.65999 0.0
C929 C 0.44616 0.67446 0.65348 0.0
C930 C 0.50503 0.74053 0.68812 0.0
C931 C 0.55566 0.78501 0.69692 0.0
C932 C 0.60393 0.79296 0.69288 0.0
C933 C 0.65173 0.83411 0.70253 0.0
C934 C 0.65187 0.86767 0.7163 0.0
C935 C 0.60418 0.8602 0.72034 0.0
C936 C 0.55626 0.8191 0.71074 0.0
C937 C 0.34176 0.60461 0.75908 0.0
C938 C 0.32349 0.62781 0.76994 0.0
C939 C 0.37181 0.61985 0.73582 0.0
C940 C 0.38401 0.65846 0.72318 0.0
C941 C 0.36306 0.68006 0.73264 0.0
C942 C 0.33256 0.66462 0.75571 0.0
C943 C 0.42094 0.67771 0.70118 0.0
C944 C 0.46878 0.72001 0.70845 0.0
C945 C 0.40982 0.6543 0.67361 0.0
C946 C 0.35913 0.61021 0.66438 0.0
C947 C 0.31075 0.60447 0.66307 0.0
C948 C 0.26315 0.56288 0.65415 0.0
C949 C 0.26345 0.52685 0.6463 0.0
C950 C 0.31137 0.53237 0.64728 0.0
C951 C 0.35909 0.5739 0.65618 0.0
H952 H 0.22656 0.49468 0.63939 0.0
H953 H 0.68893 0.89942 0.7239 0.0
loop_
_geom_bond_atom_site_label_1
_geom_bond_atom_site_label_2
_geom_bond_distance
_geom_bond_site_symmetry_2
_ccdc_geom_bond_type
Co0 O3 1.996 1_455 S
Co0 N17 1.965 1_465 S
Co0 O25 1.971 1_565 S
Co0 O32 1.917 1_565 S
Co1 O4 1.966 1_445 S
Co1 N10 2.022 . S
Co1 N18 1.993 1_455 S
Co1 O26 1.941 . S
C2 O3 1.258 . S
C2 O4 1.264 . S
O3 Co0 1.996 1_655 S
O3 C2 1.258 . S
O4 Co1 1.966 1_665 S
O4 C2 1.264 . S
C5 O6 1.235 . S
C5 O32 1.289 1_665 S
O6 C5 1.235 . S
C7 C9 1.400 1_565 S
C7 N10 1.351 1_665 S
C7 C12 1.501 . S
C8 C9 1.387 1_455 S
C8 N11 1.341 . S
C9 C7 1.400 1_545 S
C9 C8 1.387 1_655 S
N10 Co1 2.022 . S
N10 C7 1.351 1_445 S
N10 N11 1.365 . S
N11 C8 1.341 . S
N11 N10 1.365 . S
N11 H31 0.862 . S
C12 C7 1.501 . S
C12 H13 0.961 . S
C12 H14 0.961 . S
C12 H15 0.960 . S
H13 C12 0.961 . S
H14 C12 0.961 . S
H15 C12 0.960 . S
C16 N17 1.342 . S
C16 C20 1.401 . S
C16 C21 1.499 . S
N17 Co0 1.965 1_645 S
N17 C16 1.342 . S
N17 N18 1.388 . S
N18 Co1 1.993 1_655 S
N18 N17 1.388 . S
N18 C19 1.346 . S
C19 N18 1.346 . S
C19 C20 1.396 . S
C19 C29 1.510 . S
C20 C16 1.401 . S
C20 C19 1.396 . S
C21 C16 1.499 . S
C21 H22 0.959 . S
C21 H23 0.960 . S
C21 H24 0.961 . S
H22 C21 0.959 . S
H23 C21 0.960 . S
H24 C21 0.961 . S
O25 Co0 1.971 1_545 S
O25 C33 1.258 . S
O26 Co1 1.941 . S
O26 C33 1.266 . S
H27 C29 0.959 . S
H28 C29 0.961 . S
C29 C19 1.510 . S
C29 H27 0.959 . S
C29 H28 0.961 . S
C29 H30 0.960 . S
H30 C29 0.960 . S
H31 N11 0.862 . S
O32 Co0 1.917 1_545 S
O32 C5 1.289 1_445 S
C33 O25 1.258 . S
C33 O26 1.266 . S
Co34 O37 1.970 1_545 S
Co34 N51 1.989 . S
Co34 O59 1.967 1_445 S
Co34 O66 1.920 . S
Co35 O38 1.940 1_545 S
Co35 N44 2.024 . S
Co35 N52 2.015 . S
Co35 O60 1.940 1_445 S
C36 O37 1.258 . S
C36 O38 1.263 . S
O37 Co34 1.970 1_565 S
O37 C36 1.258 . S
O38 Co35 1.940 1_565 S
O38 C36 1.263 . S
C39 O40 1.235 . S
C39 O66 1.289 . S
O40 C39 1.235 . S
C41 C43 1.400 . S
C41 N44 1.351 . S
C41 C46 1.501 1_545 S
C42 C43 1.387 . S
C42 N45 1.341 1_455 S
C43 C41 1.400 . S
C43 C42 1.387 . S
N44 Co35 2.024 . S
N44 C41 1.351 . S
N44 N45 1.365 1_455 S
N45 C42 1.341 1_655 S
N45 N44 1.365 1_655 S
N45 H65 0.862 . S
C46 C41 1.501 1_565 S
C46 H47 0.961 . S
C46 H48 0.961 1_565 S
C46 H49 0.960 . S
H47 C46 0.961 . S
H48 C46 0.961 1_545 S
H49 C46 0.960 . S
C50 N51 1.342 . S
C50 C54 1.401 . S
C50 C55 1.499 . S
N51 Co34 1.989 . S
N51 C50 1.342 . S
N51 N52 1.388 . S
N52 Co35 2.015 . S
N52 N51 1.388 . S
N52 C53 1.346 . S
C53 N52 1.346 . S
C53 C54 1.396 . S
C53 C63 1.510 . S
C54 C50 1.401 . S
C54 C53 1.396 . S
C55 C50 1.499 . S
C55 H56 0.959 . S
C55 H57 0.960 . S
C55 H58 0.961 . S
H56 C55 0.959 . S
H57 C55 0.960 . S
H58 C55 0.961 . S
O59 Co34 1.967 1_665 S
O59 C67 1.258 . S
O60 Co35 1.940 1_665 S
O60 C67 1.266 . S
H61 C63 0.959 . S
H62 C63 0.961 . S
C63 C53 1.510 . S
C63 H61 0.959 . S
C63 H62 0.961 . S
C63 H64 0.960 . S
H64 C63 0.960 . S
H65 N45 0.862 . S
O66 Co34 1.920 . S
O66 C39 1.289 . S
C67 O59 1.258 . S
C67 O60 1.266 . S
Co68 O71 1.970 . S
Co68 N85 1.989 . S
Co68 O93 1.967 . S
Co68 O100 1.920 . S
Co69 O72 1.966 . S
Co69 N78 2.022 . S
Co69 N86 1.993 . S
Co69 O94 1.941 . S
C70 O71 1.258 . S
C70 O72 1.263 . S
O71 Co68 1.970 . S
O71 C70 1.258 . S
O72 Co69 1.966 . S
O72 C70 1.263 . S
C73 O74 1.235 . S
C73 O100 1.289 . S
O74 C73 1.235 . S
C75 C77 1.400 . S
C75 N78 1.351 . S
C75 C80 1.501 . S
C76 C77 1.387 . S
C76 N79 1.341 . S
C77 C75 1.400 . S
C77 C76 1.387 . S
N78 Co69 2.022 . S
N78 C75 1.351 . S
N78 N79 1.365 . S
N79 C76 1.341 . S
N79 N78 1.365 . S
N79 H99 0.862 . S
C80 C75 1.501 . S
C80 H81 0.961 . S
C80 H82 0.961 . S
C80 H83 0.960 . S
H81 C80 0.961 . S
H82 C80 0.961 . S
H83 C80 0.960 . S
C84 N85 1.342 . S
C84 C88 1.401 . S
C84 C89 1.499 . S
N85 Co68 1.989 . S
N85 C84 1.342 . S
N85 N86 1.388 . S
N86 Co69 1.993 . S
N86 N85 1.388 . S
N86 C87 1.346 . S
C87 N86 1.346 . S
C87 C88 1.396 . S
C87 C97 1.510 . S
C88 C84 1.401 . S
C88 C87 1.396 . S
C89 C84 1.499 . S
C89 H90 0.959 . S
C89 H91 0.960 . S
C89 H92 0.961 . S
H90 C89 0.959 . S
H91 C89 0.960 . S
H92 C89 0.961 . S
O93 Co68 1.967 . S
O93 C101 1.258 . S
O94 Co69 1.941 . S
O94 C101 1.266 . S
H95 C97 0.959 . S
H96 C97 0.961 . S
C97 C87 1.510 . S
C97 H95 0.959 . S
C97 H96 0.961 . S
C97 H98 0.960 . S
H98 C97 0.960 . S
H99 N79 0.862 . S
O100 Co68 1.920 . S
O100 C73 1.289 . S
C101 O93 1.258 . S
C101 O94 1.266 . S
Co102 O105 1.970 . S
Co102 N119 1.989 . S
Co102 O127 1.967 . S
Co102 O134 1.920 . S
Co103 O106 1.966 . S
Co103 N112 2.022 . S
Co103 N120 1.993 . S
Co103 O128 1.941 . S
C104 O105 1.258 . S
C104 O106 1.263 . S
O105 Co102 1.970 . S
O105 C104 1.258 . S
O106 Co103 1.966 . S
O106 C104 1.263 . S
C107 O108 1.235 . S
C107 O134 1.289 . S
O108 C107 1.235 . S
C109 C111 1.400 . S
C109 N112 1.351 . S
C109 C114 1.501 . S
C110 C111 1.387 . S
C110 N113 1.341 . S
C111 C109 1.400 . S
C111 C110 1.387 . S
N112 Co103 2.022 . S
N112 C109 1.351 . S
N112 N113 1.365 . S
N113 C110 1.341 . S
N113 N112 1.365 . S
N113 H133 0.862 . S
C114 C109 1.501 . S
C114 H115 0.961 . S
C114 H116 0.961 . S
C114 H117 0.960 . S
H115 C114 0.961 . S
H116 C114 0.961 . S
H117 C114 0.960 . S
C118 N119 1.342 . S
C118 C122 1.401 . S
C118 C123 1.499 . S
N119 Co102 1.989 . S
N119 C118 1.342 . S
N119 N120 1.388 . S
N120 Co103 1.993 . S
N120 N119 1.388 . S
N120 C121 1.346 . S
C121 N120 1.346 . S
C121 C122 1.396 . S
C121 C131 1.510 . S
C122 C118 1.401 . S
C122 C121 1.396 . S
C123 C118 1.499 . S
C123 H124 0.959 . S
C123 H125 0.960 . S
C123 H126 0.961 . S
H124 C123 0.959 . S
H125 C123 0.960 . S
H126 C123 0.961 . S
O127 Co102 1.967 . S
O127 C135 1.258 . S
O128 Co103 1.941 . S
O128 C135 1.266 . S
H129 C131 0.959 . S
H130 C131 0.961 . S
C131 C121 1.510 . S
C131 H129 0.959 . S
C131 H130 0.961 . S
C131 H132 0.960 . S
H132 C131 0.960 . S
H133 N113 0.862 . S
O134 Co102 1.920 . S
O134 C107 1.289 . S
C135 O127 1.258 . S
C135 O128 1.266 . S
Co136 O139 1.970 . S
Co136 N153 1.989 . S
Co136 O161 1.967 . S
Co136 O168 1.920 . S
Co137 O140 1.966 . S
Co137 N146 2.022 . S
Co137 N154 1.993 . S
Co137 O162 1.941 . S
C138 O139 1.258 . S
C138 O140 1.263 . S
O139 Co136 1.970 . S
O139 C138 1.258 . S
O140 Co137 1.966 . S
O140 C138 1.263 . S
C141 O142 1.235 . S
C141 O168 1.289 . S
O142 C141 1.235 . S
C143 C145 1.400 . S
C143 N146 1.351 . S
C143 C148 1.501 . S
C144 C145 1.387 . S
C144 N147 1.341 . S
C145 C143 1.400 . S
C145 C144 1.387 . S
N146 Co137 2.022 . S
N146 C143 1.351 . S
N146 N147 1.365 . S
N147 C144 1.341 . S
N147 N146 1.365 . S
N147 H167 0.862 . S
C148 C143 1.501 . S
C148 H149 0.961 . S
C148 H150 0.961 . S
C148 H151 0.960 . S
H149 C148 0.961 . S
H150 C148 0.961 . S
H151 C148 0.960 . S
C152 N153 1.342 . S
C152 C156 1.401 . S
C152 C157 1.499 . S
N153 Co136 1.989 . S
N153 C152 1.342 . S
N153 N154 1.388 . S
N154 Co137 1.993 . S
N154 N153 1.388 . S
N154 C155 1.346 . S
C155 N154 1.346 . S
C155 C156 1.396 . S
C155 C165 1.510 . S
C156 C152 1.401 . S
C156 C155 1.396 . S
C157 C152 1.499 . S
C157 H158 0.959 . S
C157 H159 0.960 . S
C157 H160 0.961 . S
H158 C157 0.959 . S
H159 C157 0.960 . S
H160 C157 0.961 . S
O161 Co136 1.967 . S
O161 C169 1.258 . S
O162 Co137 1.941 . S
O162 C169 1.266 . S
H163 C165 0.959 . S
H164 C165 0.961 . S
C165 C155 1.510 . S
C165 H163 0.959 . S
C165 H164 0.961 . S
C165 H166 0.960 . S
H166 C165 0.960 . S
H167 N147 0.862 . S
O168 Co136 1.920 . S
O168 C141 1.289 . S
C169 O161 1.258 . S
C169 O162 1.266 . S
Co170 O173 1.970 . S
Co170 N187 1.989 . S
Co170 O195 1.967 . S
Co170 O202 1.920 . S
Co171 O174 1.966 . S
Co171 N180 2.022 . S
Co171 N188 1.993 . S
Co171 O196 1.941 . S
C172 O173 1.258 . S
C172 O174 1.263 . S
O173 Co170 1.970 . S
O173 C172 1.258 . S
O174 Co171 1.966 . S
O174 C172 1.263 . S
C175 O176 1.235 . S
C175 O202 1.289 . S
O176 C175 1.235 . S
C177 C179 1.400 . S
C177 N180 1.351 . S
C177 C182 1.501 . S
C178 C179 1.387 . S
C178 N181 1.341 . S
C179 C177 1.400 . S
C179 C178 1.387 . S
N180 Co171 2.022 . S
N180 C177 1.351 . S
N180 N181 1.365 . S
N181 C178 1.341 . S
N181 N180 1.365 . S
N181 H201 0.862 . S
C182 C177 1.501 . S
C182 H183 0.961 . S
C182 H184 0.961 . S
C182 H185 0.960 . S
H183 C182 0.961 . S
H184 C182 0.961 . S
H185 C182 0.960 . S
C186 N187 1.342 . S
C186 C190 1.401 . S
C186 C191 1.499 . S
N187 Co170 1.989 . S
N187 C186 1.342 . S
N187 N188 1.388 . S
N188 Co171 1.993 . S
N188 N187 1.388 . S
N188 C189 1.346 . S
C189 N188 1.346 . S
C189 C190 1.396 . S
C189 C199 1.510 . S
C190 C186 1.401 . S
C190 C189 1.396 . S
C191 C186 1.499 . S
C191 H192 0.959 . S
C191 H193 0.960 . S
C191 H194 0.961 . S
H192 C191 0.959 . S
H193 C191 0.960 . S
H194 C191 0.961 . S
O195 Co170 1.967 . S
O195 C203 1.258 . S
O196 Co171 1.941 . S
O196 C203 1.266 . S
H197 C199 0.959 . S
H198 C199 0.961 . S
C199 C189 1.510 . S
C199 H197 0.959 . S
C199 H198 0.961 . S
C199 H200 0.960 . S
H200 C199 0.960 . S
H201 N181 0.862 . S
O202 Co170 1.920 . S
O202 C175 1.289 . S
C203 O195 1.258 . S
C203 O196 1.266 . S
H204 C222 0.951 . S
H205 C224 0.951 . S
H206 C226 0.950 . S
H207 C227 0.950 . S
H208 C229 0.950 . S
H209 C232 0.950 . S
H210 C233 0.950 1_565 S
H211 C235 0.950 . S
H212 C236 0.950 . S
H213 C237 0.951 . S
H214 C239 0.951 . S
H215 C241 0.950 . S
H216 C242 0.950 . S
H217 C244 0.950 . S
H218 C247 0.950 . S
H219 C248 0.950 . S
H220 C250 0.950 . S
H221 C251 0.950 . S
C222 H204 0.951 . S
C222 C223 1.366 . S
C222 C224 1.388 . S
C223 C222 1.366 . S
C223 C227 1.385 . S
C224 H205 0.951 . S
C224 C222 1.388 . S
C224 C225 1.366 . S
C225 C224 1.366 . S
C225 C226 1.414 . S
C225 C228 1.499 . S
C226 H206 0.950 . S
C226 C225 1.414 . S
C226 C227 1.374 . S
C227 H207 0.950 . S
C227 C223 1.385 . S
C227 C226 1.374 . S
C228 C225 1.499 . S
C228 C229 1.373 . S
C228 C230 1.389 . S
C229 H208 0.950 . S
C229 C228 1.373 . S
C229 C245 1.377 . S
C230 C228 1.389 . S
C230 C231 1.524 . S
C230 C244 1.377 . S
C231 C230 1.524 . S
C231 C232 1.397 . S
C231 C236 1.363 . S
C232 H209 0.950 . S
C232 C231 1.397 . S
C232 C233 1.334 . S
C233 H210 0.950 1_545 S
C233 C232 1.334 . S
C233 C234 1.287 1_545 S
C234 C233 1.287 1_565 S
C234 C235 1.524 1_565 S
C234 H253 0.913 . S
C235 H211 0.950 . S
C235 C234 1.524 1_545 S
C235 C236 1.415 . S
C236 H212 0.950 . S
C236 C231 1.363 . S
C236 C235 1.415 . S
C237 H213 0.951 . S
C237 C238 1.366 . S
C237 C239 1.388 . S
C238 C237 1.366 . S
C238 C242 1.385 . S
C239 H214 0.951 . S
C239 C237 1.388 . S
C239 C240 1.366 . S
C240 C239 1.366 . S
C240 C241 1.414 . S
C240 C243 1.499 . S
C241 H215 0.950 . S
C241 C240 1.414 . S
C241 C242 1.374 . S
C242 H216 0.950 . S
C242 C238 1.385 . S
C242 C241 1.374 . S
C243 C240 1.499 . S
C243 C244 1.373 . S
C243 C245 1.389 . S
C244 H217 0.950 . S
C244 C230 1.377 . S
C244 C243 1.373 . S
C245 C229 1.377 . S
C245 C243 1.389 . S
C245 C246 1.524 . S
C246 C245 1.524 . S
C246 C247 1.397 . S
C246 C251 1.363 . S
C247 H218 0.950 . S
C247 C246 1.397 . S
C247 C248 1.334 . S
C248 H219 0.950 . S
C248 C247 1.334 . S
C248 C249 1.287 . S
C249 C248 1.287 . S
C249 C250 1.524 . S
C249 H252 0.999 . S
C250 H220 0.950 . S
C250 C249 1.524 . S
C250 C251 1.415 . S
C251 H221 0.950 . S
C251 C246 1.363 . S
C251 C250 1.415 . S
H252 C249 0.999 . S
H253 C234 0.913 . S
H254 C272 0.951 . S
H255 C274 0.951 . S
H256 C276 0.950 . S
H257 C277 0.950 . S
H258 C279 0.950 . S
H259 C282 0.950 . S
H260 C283 0.950 . S
H261 C285 0.950 . S
H262 C286 0.950 . S
H263 C287 0.951 . S
H264 C289 0.951 . S
H265 C291 0.950 . S
H266 C292 0.950 . S
H267 C294 0.950 . S
H268 C297 0.950 . S
H269 C298 0.950 . S
H270 C300 0.950 . S
H271 C301 0.950 . S
C272 H254 0.951 . S
C272 C273 1.366 . S
C272 C274 1.388 . S
C273 C272 1.366 . S
C273 C277 1.385 . S
C274 H255 0.951 . S
C274 C272 1.388 . S
C274 C275 1.366 . S
C275 C274 1.366 . S
C275 C276 1.414 . S
C275 C278 1.499 . S
C276 H256 0.950 . S
C276 C275 1.414 . S
C276 C277 1.374 . S
C277 H257 0.950 . S
C277 C273 1.385 . S
C277 C276 1.374 . S
C278 C275 1.499 . S
C278 C279 1.373 . S
C278 C280 1.389 . S
C279 H258 0.950 . S
C279 C278 1.373 . S
C279 C295 1.377 . S
C280 C278 1.389 . S
C280 C281 1.524 . S
C280 C294 1.377 . S
C281 C280 1.524 . S
C281 C282 1.397 . S
C281 C286 1.363 . S
C282 H259 0.950 . S
C282 C281 1.397 . S
C282 C283 1.334 . S
C283 H260 0.950 . S
C283 C282 1.334 . S
C283 C284 1.287 . S
C284 C283 1.287 . S
C284 C285 1.524 . S
C284 H303 0.913 . S
C285 H261 0.950 . S
C285 C284 1.524 . S
C285 C286 1.415 . S
C286 H262 0.950 . S
C286 C281 1.363 . S
C286 C285 1.415 . S
C287 H263 0.951 . S
C287 C288 1.366 . S
C287 C289 1.388 . S
C288 C287 1.366 . S
C288 C292 1.385 . S
C289 H264 0.951 . S
C289 C287 1.388 . S
C289 C290 1.366 . S
C290 C289 1.366 . S
C290 C291 1.414 . S
C290 C293 1.499 . S
C291 H265 0.950 . S
C291 C290 1.414 . S
C291 C292 1.374 . S
C292 H266 0.950 . S
C292 C288 1.385 . S
C292 C291 1.374 . S
C293 C290 1.499 . S
C293 C294 1.373 . S
C293 C295 1.389 . S
C294 H267 0.950 . S
C294 C280 1.377 . S
C294 C293 1.373 . S
C295 C279 1.377 . S
C295 C293 1.389 . S
C295 C296 1.524 . S
C296 C295 1.524 . S
C296 C297 1.397 . S
C296 C301 1.363 . S
C297 H268 0.950 . S
C297 C296 1.397 . S
C297 C298 1.334 . S
C298 H269 0.950 . S
C298 C297 1.334 . S
C298 C299 1.287 . S
C299 C298 1.287 . S
C299 C300 1.524 . S
C299 H302 0.999 . S
C300 H270 0.950 . S
C300 C299 1.524 . S
C300 C301 1.415 . S
C301 H271 0.950 . S
C301 C296 1.363 . S
C301 C300 1.415 . S
H302 C299 0.999 . S
H303 C284 0.913 . S
H304 C322 0.951 . S
H305 C324 0.951 . S
H306 C326 0.950 . S
H307 C327 0.950 . S
H308 C329 0.950 . S
H309 C332 0.950 . S
H310 C333 0.950 . S
H311 C335 0.950 . S
H312 C336 0.950 . S
H313 C337 0.951 . S
H314 C339 0.951 . S
H315 C341 0.950 . S
H316 C342 0.950 1_455 S
H317 C344 0.950 . S
H318 C347 0.950 . S
H319 C348 0.950 1_455 S
H320 C350 0.950 . S
H321 C351 0.950 . S
C322 H304 0.951 . S
C322 C323 1.366 . S
C322 C324 1.388 . S
C323 C322 1.366 . S
C323 C327 1.385 . S
C324 H305 0.951 . S
C324 C322 1.388 . S
C324 C325 1.366 . S
C325 C324 1.366 . S
C325 C326 1.414 . S
C325 C328 1.499 . S
C326 H306 0.950 . S
C326 C325 1.414 . S
C326 C327 1.374 . S
C327 H307 0.950 . S
C327 C323 1.385 . S
C327 C326 1.374 . S
C328 C325 1.499 . S
C328 C329 1.373 . S
C328 C330 1.389 . S
C329 H308 0.950 . S
C329 C328 1.373 . S
C329 C345 1.377 . S
C330 C328 1.389 . S
C330 C331 1.524 . S
C330 C344 1.377 . S
C331 C330 1.524 . S
C331 C332 1.397 . S
C331 C336 1.363 . S
C332 H309 0.950 . S
C332 C331 1.397 . S
C332 C333 1.334 . S
C333 H310 0.950 . S
C333 C332 1.334 . S
C333 C334 1.287 . S
C334 C333 1.287 . S
C334 C335 1.524 . S
C334 H353 0.913 . S
C335 H311 0.950 . S
C335 C334 1.524 . S
C335 C336 1.415 . S
C336 H312 0.950 . S
C336 C331 1.363 . S
C336 C335 1.415 . S
C337 H313 0.951 . S
C337 C338 1.366 . S
C337 C339 1.388 . S
C338 C337 1.366 . S
C338 C342 1.385 . S
C339 H314 0.951 . S
C339 C337 1.388 . S
C339 C340 1.366 . S
C340 C339 1.366 . S
C340 C341 1.414 . S
C340 C343 1.499 . S
C341 H315 0.950 . S
C341 C340 1.414 . S
C341 C342 1.374 . S
C342 H316 0.950 1_655 S
C342 C338 1.385 . S
C342 C341 1.374 . S
C343 C340 1.499 . S
C343 C344 1.373 . S
C343 C345 1.389 . S
C344 H317 0.950 . S
C344 C330 1.377 . S
C344 C343 1.373 . S
C345 C329 1.377 . S
C345 C343 1.389 . S
C345 C346 1.524 . S
C346 C345 1.524 . S
C346 C347 1.397 . S
C346 C351 1.363 . S
C347 H318 0.950 . S
C347 C346 1.397 . S
C347 C348 1.334 . S
C348 H319 0.950 1_655 S
C348 C347 1.334 . S
C348 C349 1.287 . S
C349 C348 1.287 . S
C349 C350 1.524 . S
C349 H352 0.999 . S
C350 H320 0.950 . S
C350 C349 1.524 . S
C350 C351 1.415 . S
C351 H321 0.950 . S
C351 C346 1.363 . S
C351 C350 1.415 . S
H352 C349 0.999 . S
H353 C334 0.913 . S
H354 C372 0.951 . S
H355 C374 0.951 . S
H356 C376 0.950 . S
H357 C377 0.950 . S
H358 C379 0.950 . S
H359 C382 0.950 . S
H360 C383 0.950 . S
H361 C385 0.950 . S
H362 C386 0.950 . S
H363 C387 0.951 . S
H364 C389 0.951 . S
H365 C391 0.950 . S
H366 C392 0.950 . S
H367 C394 0.950 . S
H368 C397 0.950 . S
H369 C398 0.950 . S
H370 C400 0.950 . S
H371 C401 0.950 . S
C372 H354 0.951 . S
C372 C373 1.366 . S
C372 C374 1.388 . S
C373 C372 1.366 . S
C373 C377 1.385 . S
C374 H355 0.951 . S
C374 C372 1.388 . S
C374 C375 1.366 . S
C375 C374 1.366 . S
C375 C376 1.414 . S
C375 C378 1.499 . S
C376 H356 0.950 . S
C376 C375 1.414 . S
C376 C377 1.374 . S
C377 H357 0.950 . S
C377 C373 1.385 . S
C377 C376 1.374 . S
C378 C375 1.499 . S
C378 C379 1.373 . S
C378 C380 1.389 . S
C379 H358 0.950 . S
C379 C378 1.373 . S
C379 C395 1.377 . S
C380 C378 1.389 . S
C380 C381 1.524 . S
C380 C394 1.377 . S
C381 C380 1.524 . S
C381 C382 1.397 . S
C381 C386 1.363 . S
C382 H359 0.950 . S
C382 C381 1.397 . S
C382 C383 1.334 . S
C383 H360 0.950 . S
C383 C382 1.334 . S
C383 C384 1.287 . S
C384 C383 1.287 . S
C384 C385 1.524 . S
C384 H403 0.913 . S
C385 H361 0.950 . S
C385 C384 1.524 . S
C385 C386 1.415 . S
C386 H362 0.950 . S
C386 C381 1.363 . S
C386 C385 1.415 . S
C387 H363 0.951 . S
C387 C388 1.366 . S
C387 C389 1.388 . S
C388 C387 1.366 . S
C388 C392 1.385 . S
C389 H364 0.951 . S
C389 C387 1.388 . S
C389 C390 1.366 . S
C390 C389 1.366 . S
C390 C391 1.414 . S
C390 C393 1.499 . S
C391 H365 0.950 . S
C391 C390 1.414 . S
C391 C392 1.374 . S
C392 H366 0.950 . S
C392 C388 1.385 . S
C392 C391 1.374 . S
C393 C390 1.499 . S
C393 C394 1.373 . S
C393 C395 1.389 . S
C394 H367 0.950 . S
C394 C380 1.377 . S
C394 C393 1.373 . S
C395 C379 1.377 . S
C395 C393 1.389 . S
C395 C396 1.524 . S
C396 C395 1.524 . S
C396 C397 1.397 . S
C396 C401 1.363 . S
C397 H368 0.950 . S
C397 C396 1.397 . S
C397 C398 1.334 . S
C398 H369 0.950 . S
C398 C397 1.334 . S
C398 C399 1.287 . S
C399 C398 1.287 . S
C399 C400 1.524 . S
C399 H402 0.999 . S
C400 H370 0.950 . S
C400 C399 1.524 . S
C400 C401 1.415 . S
C401 H371 0.950 . S
C401 C396 1.363 . S
C401 C400 1.415 . S
H402 C399 0.999 . S
H403 C384 0.913 . S
H404 C422 0.951 . S
H405 C424 0.951 . S
H406 C426 0.950 . S
H407 C427 0.950 . S
H408 C429 0.950 . S
H409 C432 0.950 . S
H410 C433 0.950 . S
H411 C435 0.950 . S
H412 C436 0.950 . S
H413 C437 0.951 . S
H414 C439 0.951 . S
H415 C441 0.950 . S
H416 C442 0.950 . S
H417 C444 0.950 . S
H418 C447 0.950 . S
H419 C448 0.950 . S
H420 C450 0.950 1_545 S
H421 C451 0.950 . S
C422 H404 0.951 . S
C422 C423 1.366 . S
C422 C424 1.388 . S
C423 C422 1.366 . S
C423 C427 1.385 . S
C424 H405 0.951 . S
C424 C422 1.388 . S
C424 C425 1.366 . S
C425 C424 1.366 . S
C425 C426 1.414 . S
C425 C428 1.499 . S
C426 H406 0.950 . S
C426 C425 1.414 . S
C426 C427 1.374 . S
C427 H407 0.950 . S
C427 C423 1.385 . S
C427 C426 1.374 . S
C428 C425 1.499 . S
C428 C429 1.373 . S
C428 C430 1.389 . S
C429 H408 0.950 . S
C429 C428 1.373 . S
C429 C445 1.377 . S
C430 C428 1.389 . S
C430 C431 1.524 . S
C430 C444 1.377 . S
C431 C430 1.524 . S
C431 C432 1.397 . S
C431 C436 1.363 . S
C432 H409 0.950 . S
C432 C431 1.397 . S
C432 C433 1.334 . S
C433 H410 0.950 . S
C433 C432 1.334 . S
C433 C434 1.287 . S
C434 C433 1.287 . S
C434 C435 1.524 . S
C434 H453 0.913 . S
C435 H411 0.950 . S
C435 C434 1.524 . S
C435 C436 1.415 . S
C436 H412 0.950 . S
C436 C431 1.363 . S
C436 C435 1.415 . S
C437 H413 0.951 . S
C437 C438 1.366 . S
C437 C439 1.388 . S
C438 C437 1.366 . S
C438 C442 1.385 . S
C439 H414 0.951 . S
C439 C437 1.388 . S
C439 C440 1.366 . S
C440 C439 1.366 . S
C440 C441 1.414 . S
C440 C443 1.499 . S
C441 H415 0.950 . S
C441 C440 1.414 . S
C441 C442 1.374 . S
C442 H416 0.950 . S
C442 C438 1.385 . S
C442 C441 1.374 . S
C443 C440 1.499 . S
C443 C444 1.373 . S
C443 C445 1.389 . S
C444 H417 0.950 . S
C444 C430 1.377 . S
C444 C443 1.373 . S
C445 C429 1.377 . S
C445 C443 1.389 . S
C445 C446 1.524 . S
C446 C445 1.524 . S
C446 C447 1.397 . S
C446 C451 1.363 . S
C447 H418 0.950 . S
C447 C446 1.397 . S
C447 C448 1.334 . S
C448 H419 0.950 . S
C448 C447 1.334 . S
C448 C449 1.287 . S
C449 C448 1.287 . S
C449 C450 1.524 . S
C449 H452 0.999 1_565 S
C450 H420 0.950 1_565 S
C450 C449 1.524 . S
C450 C451 1.415 . S
C451 H421 0.950 . S
C451 C446 1.363 . S
C451 C450 1.415 . S
H452 C449 0.999 1_545 S
H453 C434 0.913 . S
H454 C472 0.951 . S
H455 C474 0.951 . S
H456 C476 0.950 . S
H457 C477 0.950 . S
H458 C479 0.950 . S
H459 C482 0.950 . S
H460 C483 0.960 . S
H461 C485 0.950 . S
H462 C486 0.950 . S
H463 C487 0.951 . S
H464 C489 0.951 . S
H465 C491 0.950 . S
H466 C492 0.950 . S
H467 C494 0.950 . S
H468 C497 0.950 . S
H469 C498 0.950 . S
H470 C500 0.950 . S
H471 C501 0.950 . S
C472 H454 0.951 . S
C472 C473 1.366 . S
C472 C474 1.388 . S
C473 C472 1.366 . S
C473 C477 1.385 . S
C474 H455 0.951 . S
C474 C472 1.388 . S
C474 C475 1.366 . S
C475 C474 1.366 . S
C475 C476 1.414 . S
C475 C478 1.499 . S
C476 H456 0.950 . S
C476 C475 1.414 . S
C476 C477 1.374 . S
C477 H457 0.950 . S
C477 C473 1.385 . S
C477 C476 1.374 . S
C478 C475 1.499 . S
C478 C479 1.373 . S
C478 C480 1.389 . S
C479 H458 0.950 . S
C479 C478 1.373 . S
C479 C495 1.377 . S
C480 C478 1.389 . S
C480 C481 1.524 . S
C480 C494 1.377 . S
C481 C480 1.524 . S
C481 C482 1.397 . S
C481 C486 1.363 . S
C482 H459 0.950 . S
C482 C481 1.397 . S
C482 C483 1.329 1_455 S
C483 H460 0.960 . S
C483 C482 1.329 1_655 S
C483 C484 1.282 1_655 S
C484 C483 1.282 1_455 S
C484 C485 1.524 . S
C484 H503 0.913 1_455 S
C485 H461 0.950 . S
C485 C484 1.524 . S
C485 C486 1.415 . S
C486 H462 0.950 . S
C486 C481 1.363 . S
C486 C485 1.415 . S
C487 H463 0.951 . S
C487 C488 1.366 . S
C487 C489 1.388 . S
C488 C487 1.366 . S
C488 C492 1.385 . S
C489 H464 0.951 . S
C489 C487 1.388 . S
C489 C490 1.366 . S
C490 C489 1.366 . S
C490 C491 1.414 . S
C490 C493 1.499 . S
C491 H465 0.950 . S
C491 C490 1.414 . S
C491 C492 1.374 . S
C492 H466 0.950 . S
C492 C488 1.385 . S
C492 C491 1.374 . S
C493 C490 1.499 . S
C493 C494 1.373 . S
C493 C495 1.389 . S
C494 H467 0.950 . S
C494 C480 1.377 . S
C494 C493 1.373 . S
C495 C479 1.377 . S
C495 C493 1.389 . S
C495 C496 1.524 . S
C496 C495 1.524 . S
C496 C497 1.397 . S
C496 C501 1.363 . S
C497 H468 0.950 . S
C497 C496 1.397 . S
C497 C498 1.334 . S
C498 H469 0.950 . S
C498 C497 1.334 . S
C498 C499 1.287 . S
C499 C498 1.287 . S
C499 C500 1.524 . S
C499 H502 0.999 . S
C500 H470 0.950 . S
C500 C499 1.524 . S
C500 C501 1.415 . S
C501 H471 0.950 . S
C501 C496 1.363 . S
C501 C500 1.415 . S
H502 C499 0.999 . S
H503 C484 0.913 1_655 S
H504 C522 0.951 . S
H505 C524 0.951 . S
H506 C526 0.950 . S
H507 C527 0.950 . S
H508 C529 0.950 . S
H509 C532 0.950 . S
H510 C533 0.950 . S
H511 C535 0.950 . S
H512 C536 0.950 . S
H513 C537 0.951 . S
H514 C539 0.951 . S
H515 C541 0.950 . S
H516 C542 0.950 . S
H517 C544 0.950 . S
H518 C547 0.950 . S
H519 C548 0.950 . S
H520 C550 0.950 . S
H521 C551 0.950 . S
C522 H504 0.951 . S
C522 C523 1.366 . S
C522 C524 1.388 . S
C523 C522 1.366 . S
C523 C527 1.385 . S
C524 H505 0.951 . S
C524 C522 1.388 . S
C524 C525 1.366 . S
C525 C524 1.366 . S
C525 C526 1.414 . S
C525 C528 1.499 . S
C526 H506 0.950 . S
C526 C525 1.414 . S
C526 C527 1.374 . S
C527 H507 0.950 . S
C527 C523 1.385 . S
C527 C526 1.374 . S
C528 C525 1.499 . S
C528 C529 1.373 1_655 S
C528 C530 1.389 . S
C529 H508 0.950 . S
C529 C528 1.373 1_455 S
C529 C545 1.377 . S
C530 C528 1.389 . S
C530 C531 1.524 . S
C530 C544 1.377 1_655 S
C531 C530 1.524 . S
C531 C532 1.397 . S
C531 C536 1.363 . S
C532 H509 0.950 . S
C532 C531 1.397 . S
C532 C533 1.334 . S
C533 H510 0.950 . S
C533 C532 1.334 . S
C533 C534 1.287 . S
C534 C533 1.287 . S
C534 C535 1.524 . S
C534 H553 0.913 . S
C535 H511 0.950 . S
C535 C534 1.524 . S
C535 C536 1.415 . S
C536 H512 0.950 . S
C536 C531 1.363 . S
C536 C535 1.415 . S
C537 H513 0.951 . S
C537 C538 1.366 . S
C537 C539 1.388 . S
C538 C537 1.366 . S
C538 C542 1.385 . S
C539 H514 0.951 . S
C539 C537 1.388 . S
C539 C540 1.366 . S
C540 C539 1.366 . S
C540 C541 1.414 . S
C540 C543 1.499 . S
C541 H515 0.950 . S
C541 C540 1.414 . S
C541 C542 1.374 . S
C542 H516 0.950 . S
C542 C538 1.385 . S
C542 C541 1.374 . S
C543 C540 1.499 . S
C543 C544 1.373 . S
C543 C545 1.389 . S
C544 H517 0.950 . S
C544 C530 1.377 1_455 S
C544 C543 1.373 . S
C545 C529 1.377 . S
C545 C543 1.389 . S
C545 C546 1.524 . S
C546 C545 1.524 . S
C546 C547 1.397 . S
C546 C551 1.363 . S
C547 H518 0.950 . S
C547 C546 1.397 . S
C547 C548 1.334 . S
C548 H519 0.950 . S
C548 C547 1.334 . S
C548 C549 1.287 . S
C549 C548 1.287 . S
C549 C550 1.524 . S
C549 H552 0.999 . S
C550 H520 0.950 . S
C550 C549 1.524 . S
C550 C551 1.415 . S
C551 H521 0.950 . S
C551 C546 1.363 . S
C551 C550 1.415 . S
H552 C549 0.999 . S
H553 C534 0.913 . S
H554 C572 0.951 . S
H555 C574 0.951 . S
H556 C576 0.950 . S
H557 C577 0.950 . S
H558 C579 0.950 . S
H559 C582 0.950 . S
H560 C583 0.950 . S
H561 C585 0.950 . S
H562 C586 0.950 . S
H563 C587 0.951 . S
H564 C589 0.951 . S
H565 C591 0.950 . S
H566 C592 0.950 . S
H567 C594 0.950 . S
H568 C597 0.950 . S
H569 C598 0.950 . S
H570 C600 0.950 . S
H571 C601 0.950 . S
C572 H554 0.951 . S
C572 C573 1.366 . S
C572 C574 1.388 . S
C573 C572 1.366 . S
C573 C577 1.385 . S
C574 H555 0.951 . S
C574 C572 1.388 . S
C574 C575 1.366 . S
C575 C574 1.366 . S
C575 C576 1.414 . S
C575 C578 1.499 . S
C576 H556 0.950 . S
C576 C575 1.414 . S
C576 C577 1.374 . S
C577 H557 0.950 . S
C577 C573 1.385 . S
C577 C576 1.374 . S
C578 C575 1.499 . S
C578 C579 1.373 . S
C578 C580 1.389 . S
C579 H558 0.950 . S
C579 C578 1.373 . S
C579 C595 1.377 . S
C580 C578 1.389 . S
C580 C581 1.524 . S
C580 C594 1.377 . S
C581 C580 1.524 . S
C581 C582 1.397 . S
C581 C586 1.363 . S
C582 H559 0.950 . S
C582 C581 1.397 . S
C582 C583 1.334 . S
C583 H560 0.950 . S
C583 C582 1.334 . S
C583 C584 1.287 . S
C584 C583 1.287 . S
C584 C585 1.524 . S
C584 H603 0.913 . S
C585 H561 0.950 . S
C585 C584 1.524 . S
C585 C586 1.415 . S
C586 H562 0.950 . S
C586 C581 1.363 . S
C586 C585 1.415 . S
C587 H563 0.951 . S
C587 C588 1.366 . S
C587 C589 1.388 . S
C588 C587 1.366 . S
C588 C592 1.385 . S
C589 H564 0.951 . S
C589 C587 1.388 . S
C589 C590 1.366 . S
C590 C589 1.366 . S
C590 C591 1.414 . S
C590 C593 1.499 . S
C591 H565 0.950 . S
C591 C590 1.414 . S
C591 C592 1.374 . S
C592 H566 0.950 . S
C592 C588 1.385 . S
C592 C591 1.374 . S
C593 C590 1.499 . S
C593 C594 1.373 . S
C593 C595 1.389 . S
C594 H567 0.950 . S
C594 C580 1.377 . S
C594 C593 1.373 . S
C595 C579 1.377 . S
C595 C593 1.389 . S
C595 C596 1.524 . S
C596 C595 1.524 . S
C596 C597 1.397 . S
C596 C601 1.363 . S
C597 H568 0.950 . S
C597 C596 1.397 . S
C597 C598 1.334 . S
C598 H569 0.950 . S
C598 C597 1.334 . S
C598 C599 1.287 . S
C599 C598 1.287 . S
C599 C600 1.524 . S
C599 H602 0.999 . S
C600 H570 0.950 . S
C600 C599 1.524 . S
C600 C601 1.415 . S
C601 H571 0.950 . S
C601 C596 1.363 . S
C601 C600 1.415 . S
H602 C599 0.999 . S
H603 C584 0.913 . S
H604 C622 0.951 . S
H605 C624 0.951 . S
H606 C626 0.950 . S
H607 C627 0.950 . S
H608 C629 0.950 . S
H609 C632 0.950 . S
H610 C633 0.950 . S
H611 C635 0.950 . S
H612 C636 0.950 . S
H613 C637 0.951 . S
H614 C639 0.951 . S
H615 C641 0.950 . S
H616 C642 0.950 . S
H617 C644 0.950 . S
H618 C647 0.950 . S
H619 C648 0.950 . S
H620 C650 0.950 . S
H621 C651 0.950 . S
C622 H604 0.951 . S
C622 C623 1.366 . S
C622 C624 1.388 . S
C623 C622 1.366 . S
C623 C627 1.385 . S
C624 H605 0.951 . S
C624 C622 1.388 . S
C624 C625 1.366 . S
C625 C624 1.366 . S
C625 C626 1.414 . S
C625 C628 1.499 . S
C626 H606 0.950 . S
C626 C625 1.414 . S
C626 C627 1.374 . S
C627 H607 0.950 . S
C627 C623 1.385 . S
C627 C626 1.374 . S
C628 C625 1.499 . S
C628 C629 1.373 . S
C628 C630 1.389 1_565 S
C629 H608 0.950 . S
C629 C628 1.373 . S
C629 C645 1.377 1_565 S
C630 C628 1.389 1_545 S
C630 C631 1.524 . S
C630 C644 1.377 . S
C631 C630 1.524 . S
C631 C632 1.397 1_545 S
C631 C636 1.363 . S
C632 H609 0.950 . S
C632 C631 1.397 1_565 S
C632 C633 1.334 . S
C633 H610 0.950 . S
C633 C632 1.334 . S
C633 C634 1.287 . S
C634 C633 1.287 . S
C634 C635 1.524 1_565 S
C634 H653 0.913 . S
C635 H611 0.950 . S
C635 C634 1.524 1_545 S
C635 C636 1.415 . S
C636 H612 0.950 . S
C636 C631 1.363 . S
C636 C635 1.415 . S
C637 H613 0.951 . S
C637 C638 1.366 . S
C637 C639 1.388 . S
C638 C637 1.366 . S
C638 C642 1.385 . S
C639 H614 0.951 . S
C639 C637 1.388 . S
C639 C640 1.366 . S
C640 C639 1.366 . S
C640 C641 1.414 . S
C640 C643 1.499 . S
C641 H615 0.950 . S
C641 C640 1.414 . S
C641 C642 1.374 . S
C642 H616 0.950 . S
C642 C638 1.385 . S
C642 C641 1.374 . S
C643 C640 1.499 . S
C643 C644 1.373 . S
C643 C645 1.389 . S
C644 H617 0.950 . S
C644 C630 1.377 . S
C644 C643 1.373 . S
C645 C629 1.377 1_545 S
C645 C643 1.389 . S
C645 C646 1.524 . S
C646 C645 1.524 . S
C646 C647 1.397 . S
C646 C651 1.363 . S
C647 H618 0.950 . S
C647 C646 1.397 . S
C647 C648 1.334 . S
C648 H619 0.950 . S
C648 C647 1.334 . S
C648 C649 1.287 . S
C649 C648 1.287 . S
C649 C650 1.524 . S
C649 H652 0.999 . S
C650 H620 0.950 . S
C650 C649 1.524 . S
C650 C651 1.415 . S
C651 H621 0.950 . S
C651 C646 1.363 . S
C651 C650 1.415 . S
H652 C649 0.999 . S
H653 C634 0.913 . S
H654 C672 0.951 . S
H655 C674 0.951 . S
H656 C676 0.950 1_655 S
H657 C677 0.950 . S
H658 C679 0.950 . S
H659 C682 0.950 . S
H660 C683 0.950 . S
H661 C685 0.950 1_455 S
H662 C686 0.950 . S
H663 C687 0.951 . S
H664 C689 0.951 . S
H665 C691 0.950 . S
H666 C692 0.950 . S
H667 C694 0.950 1_655 S
H668 C697 0.950 1_545 S
H669 C698 0.950 . S
H670 C700 0.950 . S
H671 C701 0.950 . S
C672 H654 0.951 . S
C672 C673 1.366 . S
C672 C674 1.388 . S
C673 C672 1.366 . S
C673 C677 1.385 1_545 S
C674 H655 0.951 . S
C674 C672 1.388 . S
C674 C675 1.366 . S
C675 C674 1.366 . S
C675 C676 1.414 1_545 S
C675 C678 1.499 . S
C676 H656 0.950 1_455 S
C676 C675 1.414 1_565 S
C676 C677 1.374 . S
C677 H657 0.950 . S
C677 C673 1.385 1_565 S
C677 C676 1.374 . S
C678 C675 1.499 . S
C678 C679 1.373 1_545 S
C678 C680 1.389 . S
C679 H658 0.950 . S
C679 C678 1.373 1_565 S
C679 C695 1.377 . S
C680 C678 1.389 . S
C680 C681 1.524 1_455 S
C680 C694 1.377 . S
C681 C680 1.524 1_655 S
C681 C682 1.397 . S
C681 C686 1.363 1_655 S
C682 H659 0.950 . S
C682 C681 1.397 . S
C682 C683 1.334 . S
C683 H660 0.950 . S
C683 C682 1.334 . S
C683 C684 1.287 . S
C684 C683 1.287 . S
C684 C685 1.524 . S
C684 H703 0.913 . S
C685 H661 0.950 1_655 S
C685 C684 1.524 . S
C685 C686 1.415 1_655 S
C686 H662 0.950 . S
C686 C681 1.363 1_455 S
C686 C685 1.415 1_455 S
C687 H663 0.951 . S
C687 C688 1.366 . S
C687 C689 1.388 . S
C688 C687 1.366 . S
C688 C692 1.385 1_665 S
C689 H664 0.951 . S
C689 C687 1.388 . S
C689 C690 1.366 1_665 S
C690 C689 1.366 1_445 S
C690 C691 1.414 . S
C690 C693 1.499 . S
C691 H665 0.950 . S
C691 C690 1.414 . S
C691 C692 1.374 . S
C692 H666 0.950 . S
C692 C688 1.385 1_445 S
C692 C691 1.374 . S
C693 C690 1.499 . S
C693 C694 1.373 . S
C693 C695 1.389 1_545 S
C694 H667 0.950 1_455 S
C694 C680 1.377 . S
C694 C693 1.373 . S
C695 C679 1.377 . S
C695 C693 1.389 1_565 S
C695 C696 1.524 . S
C696 C695 1.524 . S
C696 C697 1.397 . S
C696 C701 1.363 . S
C697 H668 0.950 1_565 S
C697 C696 1.397 . S
C697 C698 1.334 . S
C698 H669 0.950 . S
C698 C697 1.334 . S
C698 C699 1.287 . S
C699 C698 1.287 . S
C699 C700 1.524 . S
C699 H702 0.999 . S
C700 H670 0.950 . S
C700 C699 1.524 . S
C700 C701 1.415 . S
C701 H671 0.950 . S
C701 C696 1.363 . S
C701 C700 1.415 . S
H702 C699 0.999 . S
H703 C684 0.913 . S
H704 C722 0.951 . S
H705 C724 0.951 . S
H706 C726 0.950 . S
H707 C727 0.950 . S
H708 C729 0.950 . S
H709 C732 0.950 . S
H710 C733 0.950 . S
H711 C735 0.950 . S
H712 C736 0.950 . S
H713 C737 0.951 . S
H714 C739 0.951 . S
H715 C741 0.950 . S
H716 C742 0.950 . S
H717 C744 0.950 . S
H718 C747 0.950 . S
H719 C748 0.950 . S
H720 C750 0.950 . S
H721 C751 0.950 . S
C722 H704 0.951 . S
C722 C723 1.366 . S
C722 C724 1.388 . S
C723 C722 1.366 . S
C723 C727 1.385 . S
C724 H705 0.951 . S
C724 C722 1.388 . S
C724 C725 1.366 . S
C725 C724 1.366 . S
C725 C726 1.414 . S
C725 C728 1.499 . S
C726 H706 0.950 . S
C726 C725 1.414 . S
C726 C727 1.374 . S
C727 H707 0.950 . S
C727 C723 1.385 . S
C727 C726 1.374 . S
C728 C725 1.499 . S
C728 C729 1.373 . S
C728 C730 1.389 . S
C729 H708 0.950 . S
C729 C728 1.373 . S
C729 C745 1.377 . S
C730 C728 1.389 . S
C730 C731 1.524 . S
C730 C744 1.377 . S
C731 C730 1.524 . S
C731 C732 1.397 . S
C731 C736 1.363 . S
C732 H709 0.950 . S
C732 C731 1.397 . S
C732 C733 1.334 . S
C733 H710 0.950 . S
C733 C732 1.334 . S
C733 C734 1.287 . S
C734 C733 1.287 . S
C734 C735 1.524 . S
C734 H753 0.913 . S
C735 H711 0.950 . S
C735 C734 1.524 . S
C735 C736 1.415 . S
C736 H712 0.950 . S
C736 C731 1.363 . S
C736 C735 1.415 . S
C737 H713 0.951 . S
C737 C738 1.366 . S
C737 C739 1.388 . S
C738 C737 1.366 . S
C738 C742 1.385 . S
C739 H714 0.951 . S
C739 C737 1.388 . S
C739 C740 1.366 . S
C740 C739 1.366 . S
C740 C741 1.414 . S
C740 C743 1.499 . S
C741 H715 0.950 . S
C741 C740 1.414 . S
C741 C742 1.374 . S
C742 H716 0.950 . S
C742 C738 1.385 . S
C742 C741 1.374 . S
C743 C740 1.499 . S
C743 C744 1.373 . S
C743 C745 1.389 . S
C744 H717 0.950 . S
C744 C730 1.377 . S
C744 C743 1.373 . S
C745 C729 1.377 . S
C745 C743 1.389 . S
C745 C746 1.524 . S
C746 C745 1.524 . S
C746 C747 1.397 . S
C746 C751 1.363 . S
C747 H718 0.950 . S
C747 C746 1.397 . S
C747 C748 1.334 . S
C748 H719 0.950 . S
C748 C747 1.334 . S
C748 C749 1.287 . S
C749 C748 1.287 . S
C749 C750 1.524 . S
C749 H752 0.999 . S
C750 H720 0.950 . S
C750 C749 1.524 . S
C750 C751 1.415 . S
C751 H721 0.950 . S
C751 C746 1.363 . S
C751 C750 1.415 . S
H752 C749 0.999 . S
H753 C734 0.913 . S
H754 C772 0.951 . S
H755 C774 0.951 . S
H756 C776 0.950 . S
H757 C777 0.950 . S
H758 C779 0.950 . S
H759 C782 0.950 . S
H760 C783 0.950 . S
H761 C785 0.950 . S
H762 C786 0.950 . S
H763 C787 0.951 . S
H764 C789 0.951 . S
H765 C791 0.950 . S
H766 C792 0.950 . S
H767 C794 0.950 . S
H768 C797 0.950 . S
H769 C798 0.950 . S
H770 C800 0.950 . S
H771 C801 0.950 . S
C772 H754 0.951 . S
C772 C773 1.366 . S
C772 C774 1.388 . S
C773 C772 1.366 . S
C773 C777 1.385 . S
C774 H755 0.951 . S
C774 C772 1.388 . S
C774 C775 1.366 . S
C775 C774 1.366 . S
C775 C776 1.414 . S
C775 C778 1.499 . S
C776 H756 0.950 . S
C776 C775 1.414 . S
C776 C777 1.374 . S
C777 H757 0.950 . S
C777 C773 1.385 . S
C777 C776 1.374 . S
C778 C775 1.499 . S
C778 C779 1.373 . S
C778 C780 1.389 . S
C779 H758 0.950 . S
C779 C778 1.373 . S
C779 C795 1.377 . S
C780 C778 1.389 . S
C780 C781 1.524 . S
C780 C794 1.377 . S
C781 C780 1.524 . S
C781 C782 1.397 . S
C781 C786 1.363 . S
C782 H759 0.950 . S
C782 C781 1.397 . S
C782 C783 1.334 . S
C783 H760 0.950 . S
C783 C782 1.334 . S
C783 C784 1.287 . S
C784 C783 1.287 . S
C784 C785 1.524 . S
C784 H803 0.913 . S
C785 H761 0.950 . S
C785 C784 1.524 . S
C785 C786 1.415 . S
C786 H762 0.950 . S
C786 C781 1.363 . S
C786 C785 1.415 . S
C787 H763 0.951 . S
C787 C788 1.366 . S
C787 C789 1.388 . S
C788 C787 1.366 . S
C788 C792 1.385 . S
C789 H764 0.951 . S
C789 C787 1.388 . S
C789 C790 1.366 . S
C790 C789 1.366 . S
C790 C791 1.414 . S
C790 C793 1.499 . S
C791 H765 0.950 . S
C791 C790 1.414 . S
C791 C792 1.374 . S
C792 H766 0.950 . S
C792 C788 1.385 . S
C792 C791 1.374 . S
C793 C790 1.499 . S
C793 C794 1.373 . S
C793 C795 1.389 . S
C794 H767 0.950 . S
C794 C780 1.377 . S
C794 C793 1.373 . S
C795 C779 1.377 . S
C795 C793 1.389 . S
C795 C796 1.524 . S
C796 C795 1.524 . S
C796 C797 1.397 . S
C796 C801 1.363 . S
C797 H768 0.950 . S
C797 C796 1.397 . S
C797 C798 1.334 . S
C798 H769 0.950 . S
C798 C797 1.334 . S
C798 C799 1.287 . S
C799 C798 1.287 . S
C799 C800 1.524 . S
C799 H802 0.999 . S
C800 H770 0.950 . S
C800 C799 1.524 . S
C800 C801 1.415 . S
C801 H771 0.950 . S
C801 C796 1.363 . S
C801 C800 1.415 . S
H802 C799 0.999 . S
H803 C784 0.913 . S
H804 C822 0.951 . S
H805 C824 0.951 . S
H806 C826 0.950 . S
H807 C827 0.950 . S
H808 C829 0.950 . S
H809 C832 0.950 . S
H810 C833 0.950 . S
H811 C835 0.950 . S
H812 C836 0.950 . S
H813 C837 0.951 . S
H814 C839 0.951 1_655 S
H815 C841 0.950 . S
H816 C842 0.950 . S
H817 C844 0.950 . S
H818 C847 0.950 . S
H819 C848 0.950 . S
H820 C850 0.950 . S
H821 C851 0.950 . S
C822 H804 0.951 . S
C822 C823 1.366 1_455 S
C822 C824 1.388 . S
C823 C822 1.366 1_655 S
C823 C827 1.385 . S
C824 H805 0.951 . S
C824 C822 1.388 . S
C824 C825 1.366 1_455 S
C825 C824 1.366 1_655 S
C825 C826 1.414 . S
C825 C828 1.499 1_665 S
C826 H806 0.950 . S
C826 C825 1.414 . S
C826 C827 1.374 . S
C827 H807 0.950 . S
C827 C823 1.385 . S
C827 C826 1.374 . S
C828 C825 1.499 1_445 S
C828 C829 1.373 1_445 S
C828 C830 1.389 . S
C829 H808 0.950 . S
C829 C828 1.373 1_665 S
C829 C845 1.377 1_554 S
C830 C828 1.389 . S
C830 C831 1.524 . S
C830 C844 1.377 1_554 S
C831 C830 1.524 . S
C831 C832 1.397 . S
C831 C836 1.363 . S
C832 H809 0.950 . S
C832 C831 1.397 . S
C832 C833 1.334 . S
C833 H810 0.950 . S
C833 C832 1.334 . S
C833 C834 1.287 . S
C834 C833 1.287 . S
C834 C835 1.524 . S
C834 H853 0.913 . S
C835 H811 0.950 . S
C835 C834 1.524 . S
C835 C836 1.415 . S
C836 H812 0.950 . S
C836 C831 1.363 . S
C836 C835 1.415 . S
C837 H813 0.951 . S
C837 C838 1.366 . S
C837 C839 1.388 . S
C838 C837 1.366 . S
C838 C842 1.385 . S
C839 H814 0.951 1_455 S
C839 C837 1.388 . S
C839 C840 1.366 . S
C840 C839 1.366 . S
C840 C841 1.414 . S
C840 C843 1.499 . S
C841 H815 0.950 . S
C841 C840 1.414 . S
C841 C842 1.374 . S
C842 H816 0.950 . S
C842 C838 1.385 . S
C842 C841 1.374 . S
C843 C840 1.499 . S
C843 C844 1.373 . S
C843 C845 1.389 1_445 S
C844 H817 0.950 . S
C844 C830 1.377 1_556 S
C844 C843 1.373 . S
C845 C829 1.377 1_556 S
C845 C843 1.389 1_665 S
C845 C846 1.524 . S
C846 C845 1.524 . S
C846 C847 1.397 . S
C846 C851 1.363 . S
C847 H818 0.950 . S
C847 C846 1.397 . S
C847 C848 1.334 . S
C848 H819 0.950 . S
C848 C847 1.334 . S
C848 C849 1.287 . S
C849 C848 1.287 . S
C849 C850 1.524 . S
C849 H852 0.999 . S
C850 H820 0.950 . S
C850 C849 1.524 . S
C850 C851 1.415 . S
C851 H821 0.950 . S
C851 C846 1.363 . S
C851 C850 1.415 . S
H852 C849 0.999 . S
H853 C834 0.913 . S
H854 C872 0.951 . S
H855 C874 0.951 . S
H856 C876 0.950 . S
H857 C877 0.950 . S
H858 C879 0.950 . S
H859 C882 0.950 . S
H860 C883 0.950 . S
H861 C885 0.950 . S
H862 C886 0.950 . S
H863 C887 0.951 . S
H864 C889 0.951 . S
H865 C891 0.950 . S
H866 C892 0.950 . S
H867 C894 0.950 . S
H868 C897 0.950 . S
H869 C898 0.950 . S
H870 C900 0.950 . S
H871 C901 0.950 . S
C872 H854 0.951 . S
C872 C873 1.366 . S
C872 C874 1.388 . S
C873 C872 1.366 . S
C873 C877 1.385 . S
C874 H855 0.951 . S
C874 C872 1.388 . S
C874 C875 1.366 . S
C875 C874 1.366 . S
C875 C876 1.414 . S
C875 C878 1.499 . S
C876 H856 0.950 . S
C876 C875 1.414 . S
C876 C877 1.374 . S
C877 H857 0.950 . S
C877 C873 1.385 . S
C877 C876 1.374 . S
C878 C875 1.499 . S
C878 C879 1.373 . S
C878 C880 1.389 . S
C879 H858 0.950 . S
C879 C878 1.373 . S
C879 C895 1.377 . S
C880 C878 1.389 . S
C880 C881 1.524 . S
C880 C894 1.377 . S
C881 C880 1.524 . S
C881 C882 1.397 . S
C881 C886 1.363 . S
C882 H859 0.950 . S
C882 C881 1.397 . S
C882 C883 1.334 . S
C883 H860 0.950 . S
C883 C882 1.334 . S
C883 C884 1.287 . S
C884 C883 1.287 . S
C884 C885 1.524 . S
C884 H903 0.913 . S
C885 H861 0.950 . S
C885 C884 1.524 . S
C885 C886 1.415 . S
C886 H862 0.950 . S
C886 C881 1.363 . S
C886 C885 1.415 . S
C887 H863 0.951 . S
C887 C888 1.366 . S
C887 C889 1.388 . S
C888 C887 1.366 . S
C888 C892 1.385 . S
C889 H864 0.951 . S
C889 C887 1.388 . S
C889 C890 1.366 . S
C890 C889 1.366 . S
C890 C891 1.414 . S
C890 C893 1.499 . S
C891 H865 0.950 . S
C891 C890 1.414 . S
C891 C892 1.374 . S
C892 H866 0.950 . S
C892 C888 1.385 . S
C892 C891 1.374 . S
C893 C890 1.499 . S
C893 C894 1.373 . S
C893 C895 1.389 . S
C894 H867 0.950 . S
C894 C880 1.377 . S
C894 C893 1.373 . S
C895 C879 1.377 . S
C895 C893 1.389 . S
C895 C896 1.524 . S
C896 C895 1.524 . S
C896 C897 1.397 . S
C896 C901 1.363 . S
C897 H868 0.950 . S
C897 C896 1.397 . S
C897 C898 1.334 . S
C898 H869 0.950 . S
C898 C897 1.334 . S
C898 C899 1.287 . S
C899 C898 1.287 . S
C899 C900 1.524 . S
C899 H902 0.999 . S
C900 H870 0.950 . S
C900 C899 1.524 . S
C900 C901 1.415 . S
C901 H871 0.950 . S
C901 C896 1.363 . S
C901 C900 1.415 . S
H902 C899 0.999 . S
H903 C884 0.913 . S
H904 C922 0.951 . S
H905 C924 0.951 . S
H906 C926 0.950 . S
H907 C927 0.950 . S
H908 C929 0.950 . S
H909 C932 0.950 . S
H910 C933 0.950 . S
H911 C935 0.950 . S
H912 C936 0.950 . S
H913 C937 0.951 . S
H914 C939 0.951 . S
H915 C941 0.950 . S
H916 C942 0.950 . S
H917 C944 0.950 . S
H918 C947 0.950 . S
H919 C948 0.950 . S
H920 C950 0.950 . S
H921 C951 0.950 . S
C922 H904 0.951 . S
C922 C923 1.366 . S
C922 C924 1.388 . S
C923 C922 1.366 . S
C923 C927 1.385 . S
C924 H905 0.951 . S
C924 C922 1.388 . S
C924 C925 1.366 . S
C925 C924 1.366 . S
C925 C926 1.414 . S
C925 C928 1.499 . S
C926 H906 0.950 . S
C926 C925 1.414 . S
C926 C927 1.374 . S
C927 H907 0.950 . S
C927 C923 1.385 . S
C927 C926 1.374 . S
C928 C925 1.499 . S
C928 C929 1.373 . S
C928 C930 1.389 . S
C929 H908 0.950 . S
C929 C928 1.373 . S
C929 C945 1.377 . S
C930 C928 1.389 . S
C930 C931 1.524 . S
C930 C944 1.377 . S
C931 C930 1.524 . S
C931 C932 1.397 . S
C931 C936 1.363 . S
C932 H909 0.950 . S
C932 C931 1.397 . S
C932 C933 1.334 . S
C933 H910 0.950 . S
C933 C932 1.334 . S
C933 C934 1.287 . S
C934 C933 1.287 . S
C934 C935 1.524 . S
C934 H953 0.913 . S
C935 H911 0.950 . S
C935 C934 1.524 . S
C935 C936 1.415 . S
C936 H912 0.950 . S
C936 C931 1.363 . S
C936 C935 1.415 . S
C937 H913 0.951 . S
C937 C938 1.366 . S
C937 C939 1.388 . S
C938 C937 1.366 . S
C938 C942 1.385 . S
C939 H914 0.951 . S
C939 C937 1.388 . S
C939 C940 1.366 . S
C940 C939 1.366 . S
C940 C941 1.414 . S
C940 C943 1.499 . S
C941 H915 0.950 . S
C941 C940 1.414 . S
C941 C942 1.374 . S
C942 H916 0.950 . S
C942 C938 1.385 . S
C942 C941 1.374 . S
C943 C940 1.499 . S
C943 C944 1.373 . S
C943 C945 1.389 . S
C944 H917 0.950 . S
C944 C930 1.377 . S
C944 C943 1.373 . S
C945 C929 1.377 . S
C945 C943 1.389 . S
C945 C946 1.524 . S
C946 C945 1.524 . S
C946 C947 1.397 . S
C946 C951 1.363 . S
C947 H918 0.950 . S
C947 C946 1.397 . S
C947 C948 1.334 . S
C948 H919 0.950 . S
C948 C947 1.334 . S
C948 C949 1.287 . S
C949 C948 1.287 . S
C949 C950 1.524 . S
C949 H952 0.999 . S
C950 H920 0.950 . S
C950 C949 1.524 . S
C950 C951 1.415 . S
C951 H921 0.950 . S
C951 C946 1.363 . S
C951 C950 1.415 . S
H952 C949 0.999 . S
H953 C934 0.913 . S
C223 C33 1.190 . S
C238 C135 1.190 . S
C273 C20 1.866 . S
C288 C104 1.864 . S
C323 C122 1.866 . S
C338 C2 1.864 . S
C373 C54 1.866 . S
C388 C138 1.864 . S
C423 C169 1.190 . S
C438 C67 1.190 . S
C473 C36 1.864 . S
C488 C156 1.866 . S
C523 C101 1.191 . S
C538 C203 1.191 . S
C573 C88 1.866 . S
C588 C172 1.864 . S
C623 C190 1.866 . S
C638 C70 1.864 . S
C673 C43 2.048 . S
C688 C9 2.048 1_565 S
C723 C111 2.047 1_556 S
C738 C77 2.048 . S
C773 C179 2.048 . S
C788 C145 2.047 1_554 S
C823 C5 0.162 . S
C838 C39 0.163 . S
C873 C107 0.163 . S
C888 C73 0.162 . S
C923 C175 0.159 . S
C938 C141 0.160 . S
