# Generated by pormake.
# Topology atn, (4)-cn, num edge types: 1
# Building blocks:
#     Node 0, Type 0, BuildingBlock: GALJAG_clean_sbu_0, # of connection points: 4
#     Node 1, Type 0, BuildingBlock: GALJAG_clean_sbu_0, # of connection points: 4
#     Node 2, Type 0, BuildingBlock: GALJAG_clean_sbu_0, # of connection points: 4
#     Node 3, Type 0, BuildingBlock: GALJAG_clean_sbu_0, # of connection points: 4
#     Node 4, Type 0, BuildingBlock: GALJAG_clean_sbu_0, # of connection points: 4
#     Node 5, Type 0, BuildingBlock: GALJAG_clean_sbu_0, # of connection points: 4
#     Node 6, Type 0, BuildingBlock: GALJAG_clean_sbu_0, # of connection points: 4
#     Node 7, Type 0, BuildingBlock: GALJAG_clean_sbu_0, # of connection points: 4
#     Node 8, Type 0, BuildingBlock: GALJAG_clean_sbu_0, # of connection points: 4
#     Node 9, Type 0, BuildingBlock: GALJAG_clean_sbu_0, # of connection points: 4
#     Node 10, Type 0, BuildingBlock: GALJAG_clean_sbu_0, # of connection points: 4
#     Node 11, Type 0, BuildingBlock: GALJAG_clean_sbu_0, # of connection points: 4
#     Node 12, Type 0, BuildingBlock: GALJAG_clean_sbu_0, # of connection points: 4
#     Node 13, Type 0, BuildingBlock: GALJAG_clean_sbu_0, # of connection points: 4
#     Node 14, Type 0, BuildingBlock: GALJAG_clean_sbu_0, # of connection points: 4
#     Node 15, Type 0, BuildingBlock: GALJAG_clean_sbu_0, # of connection points: 4
#     Edge 16, Type (0, 0), BuildingBlock: MIFKUJ_clean_linker_0, # of connection points: 2
#     Edge 17, Type (0, 0), BuildingBlock: MIFKUJ_clean_linker_0, # of connection points: 2
#     Edge 18, Type (0, 0), BuildingBlock: MIFKUJ_clean_linker_0, # of connection points: 2
#     Edge 19, Type (0, 0), BuildingBlock: MIFKUJ_clean_linker_0, # of connection points: 2
#     Edge 20, Type (0, 0), BuildingBlock: MIFKUJ_clean_linker_0, # of connection points: 2
#     Edge 21, Type (0, 0), BuildingBlock: MIFKUJ_clean_linker_0, # of connection points: 2
#     Edge 22, Type (0, 0), BuildingBlock: MIFKUJ_clean_linker_0, # of connection points: 2
#     Edge 23, Type (0, 0), BuildingBlock: MIFKUJ_clean_linker_0, # of connection points: 2
#     Edge 24, Type (0, 0), BuildingBlock: MIFKUJ_clean_linker_0, # of connection points: 2
#     Edge 25, Type (0, 0), BuildingBlock: MIFKUJ_clean_linker_0, # of connection points: 2
#     Edge 26, Type (0, 0), BuildingBlock: MIFKUJ_clean_linker_0, # of connection points: 2
#     Edge 27, Type (0, 0), BuildingBlock: MIFKUJ_clean_linker_0, # of connection points: 2
#     Edge 28, Type (0, 0), BuildingBlock: MIFKUJ_clean_linker_0, # of connection points: 2
#     Edge 29, Type (0, 0), BuildingBlock: MIFKUJ_clean_linker_0, # of connection points: 2
#     Edge 30, Type (0, 0), BuildingBlock: MIFKUJ_clean_linker_0, # of connection points: 2
#     Edge 31, Type (0, 0), BuildingBlock: MIFKUJ_clean_linker_0, # of connection points: 2
#     Edge 32, Type (0, 0), BuildingBlock: MIFKUJ_clean_linker_0, # of connection points: 2
#     Edge 33, Type (0, 0), BuildingBlock: MIFKUJ_clean_linker_0, # of connection points: 2
#     Edge 34, Type (0, 0), BuildingBlock: MIFKUJ_clean_linker_0, # of connection points: 2
#     Edge 35, Type (0, 0), BuildingBlock: MIFKUJ_clean_linker_0, # of connection points: 2
#     Edge 36, Type (0, 0), BuildingBlock: MIFKUJ_clean_linker_0, # of connection points: 2
#     Edge 37, Type (0, 0), BuildingBlock: MIFKUJ_clean_linker_0, # of connection points: 2
#     Edge 38, Type (0, 0), BuildingBlock: MIFKUJ_clean_linker_0, # of connection points: 2
#     Edge 39, Type (0, 0), BuildingBlock: MIFKUJ_clean_linker_0, # of connection points: 2
#     Edge 40, Type (0, 0), BuildingBlock: MIFKUJ_clean_linker_0, # of connection points: 2
#     Edge 41, Type (0, 0), BuildingBlock: MIFKUJ_clean_linker_0, # of connection points: 2
#     Edge 42, Type (0, 0), BuildingBlock: MIFKUJ_clean_linker_0, # of connection points: 2
#     Edge 43, Type (0, 0), BuildingBlock: MIFKUJ_clean_linker_0, # of connection points: 2
#     Edge 44, Type (0, 0), BuildingBlock: MIFKUJ_clean_linker_0, # of connection points: 2
#     Edge 45, Type (0, 0), BuildingBlock: MIFKUJ_clean_linker_0, # of connection points: 2
#     Edge 46, Type (0, 0), BuildingBlock: MIFKUJ_clean_linker_0, # of connection points: 2
#     Edge 47, Type (0, 0), BuildingBlock: MIFKUJ_clean_linker_0, # of connection points: 2
# Relax obj value: 0.083
# Max RMSD: 0.111
# Mean RMSD: 0.111
data_MOF--net-atn--node1-GALJAG_clean_sbu_0--edge1-MIFKUJ_clean_linker_0
_symmetry_space_group_name_H-M    P1
_symmetry_Int_Tables_number       1
_symmetry_cell_setting            triclinic
loop_
_symmetry_equiv_pos_as_xyz
'x, y, z'
_cell_length_a     75.432621
_cell_length_b     75.397592
_cell_length_c     36.93065
_cell_angle_alpha  90.024662
_cell_angle_beta   89.996492
_cell_angle_gamma 89.954228
loop_
_atom_site_label
_atom_site_type_symbol
_atom_site_fract_x
_atom_site_fract_y
_atom_site_fract_z
_atom_type_partial_charge
In0 In 0.17982 0.3668 0.99835 0.0
O1 O 0.15764 0.36899 0.0405 0.0
O2 O 0.17756 0.34946 0.04844 0.0
C3 C 0.16006 0.3682 0.93714 0.0
C4 C 0.19154 0.39984 0.01114 0.0
C5 C 0.20742 0.34473 0.98766 0.0
O6 O 0.15837 0.3559 0.95999 0.0
O7 O 0.17122 0.37983 0.94573 0.0
O8 O 0.20876 0.35899 0.00532 0.0
O9 O 0.19214 0.34161 0.9753 0.0
C10 C 0.16383 0.35692 0.06053 0.0
O11 O 0.19805 0.39013 0.98666 0.0
O12 O 0.17934 0.39276 0.02946 0.0
In13 In 0.62871 0.18384 0.98673 0.0
O14 O 0.64364 0.16393 0.02278 0.0
O15 O 0.61932 0.17432 0.04195 0.0
C16 C 0.63317 0.17159 0.91868 0.0
C17 C 0.59408 0.19163 0.98642 0.0
C18 C 0.65247 0.21022 0.99507 0.0
O19 O 0.63288 0.16135 0.94576 0.0
O20 O 0.63141 0.18781 0.92613 0.0
O21 O 0.63607 0.2131 0.99221 0.0
O22 O 0.65685 0.19412 0.99347 0.0
C23 C 0.6325 0.1646 0.04821 0.0
O24 O 0.60544 0.20155 0.00134 0.0
O25 O 0.60023 0.17783 0.97155 0.0
In26 In 0.81183 0.63017 0.99616 0.0
O27 O 0.79373 0.60626 0.00446 0.0
O28 O 0.82167 0.60235 0.00686 0.0
C29 C 0.78701 0.65493 0.98394 0.0
C30 C 0.82396 0.6392 0.06221 0.0
C31 C 0.82717 0.63038 0.93036 0.0
O32 O 0.78319 0.63874 0.98826 0.0
O33 O 0.80334 0.65853 0.98559 0.0
O34 O 0.83401 0.63839 0.95702 0.0
O35 O 0.81295 0.6223 0.93729 0.0
C36 C 0.80643 0.59555 0.00889 0.0
O37 O 0.83438 0.63483 0.03692 0.0
O38 O 0.80778 0.63933 0.05377 0.0
In39 In 0.37132 0.80459 0.00608 0.0
O40 O 0.36497 0.82838 0.04309 0.0
O41 O 0.36981 0.80321 0.06703 0.0
C42 C 0.36831 0.81864 0.93938 0.0
C43 C 0.40635 0.79972 0.01261 0.0
C44 C 0.34662 0.77904 5e-05 0.0
O45 O 0.36113 0.8258 0.96671 0.0
O46 O 0.37693 0.80467 0.94598 0.0
O47 O 0.363 0.77586 0.99743 0.0
O48 O 0.34275 0.79508 0.00575 0.0
C49 C 0.36631 0.81936 0.07184 0.0
O50 O 0.39533 0.78761 0.01971 0.0
O51 O 0.39969 0.81418 0.00199 0.0
In52 In 0.18349 0.62329 0.99916 0.0
O53 O 0.16127 0.63429 0.9629 0.0
O54 O 0.1818 0.6191 0.93851 0.0
C55 C 0.17112 0.62731 0.06722 0.0
C56 C 0.18731 0.58801 0.00045 0.0
C57 C 0.20998 0.64719 0.99548 0.0
O58 O 0.16227 0.63227 0.03998 0.0
O59 O 0.18596 0.62053 0.05995 0.0
O60 O 0.21259 0.63073 0.99273 0.0
O61 O 0.19402 0.65158 0.0001 0.0
C62 C 0.16772 0.62784 0.93418 0.0
O63 O 0.20037 0.59848 -0.00019 0.0
O64 O 0.17224 0.59538 0.00018 0.0
In65 In 0.37062 0.19043 0.01276 0.0
O66 O 0.39536 0.20684 0.00226 0.0
O67 O 0.39823 0.18217 0.02995 0.0
C68 C 0.34641 0.21592 -0.00046 0.0
C69 C 0.36895 0.17074 0.95188 0.0
C70 C 0.36361 0.18033 0.08125 0.0
O71 O 0.36206 0.21946 0.00916 0.0
O72 O 0.34303 0.19962 0.99678 0.0
O73 O 0.36353 0.16942 0.05523 0.0
O74 O 0.36686 0.19615 0.07244 0.0
C75 C 0.40564 0.19584 0.0173 0.0
O76 O 0.35942 0.16741 0.97917 0.0
O77 O 0.37946 0.18357 0.95583 0.0
In78 In 0.80917 0.37178 0.01671 0.0
O79 O 0.83094 0.36571 0.97501 0.0
O80 O 0.80519 0.37248 0.95607 0.0
C81 C 0.82566 0.36729 0.08078 0.0
C82 C 0.80484 0.407 0.01745 0.0
C83 C 0.78355 0.34703 0.02145 0.0
O84 O 0.83076 0.35931 0.05253 0.0
O85 O 0.81254 0.37739 0.07645 0.0
O86 O 0.78018 0.36343 0.02197 0.0
O87 O 0.79976 0.34321 0.01877 0.0
C88 C 0.82089 0.36828 0.94812 0.0
O89 O 0.79191 0.39641 0.02005 0.0
O90 O 0.81988 0.39977 0.01423 0.0
In91 In 0.62786 0.81235 0.02678 0.0
O92 O 0.63682 0.83501 0.98936 0.0
O93 O 0.61728 0.81706 0.97032 0.0
C94 C 0.63592 0.82435 0.09331 0.0
C95 C 0.59386 0.80395 0.03927 0.0
C96 C 0.65314 0.78811 0.01313 0.0
O97 O 0.63166 0.83476 0.06789 0.0
O98 O 0.63653 0.80817 0.08467 0.0
O99 O 0.63722 0.78389 0.01917 0.0
O100 O 0.65629 0.80453 0.01424 0.0
C101 C 0.62689 0.83028 0.96358 0.0
O102 O 0.60435 0.7935 0.02327 0.0
O103 O 0.60051 0.81857 0.04882 0.0
In104 In 0.68076 0.86708 0.52629 0.0
O105 O 0.6595 0.85823 0.56679 0.0
O106 O 0.68226 0.87167 0.58677 0.0
C107 C 0.66088 0.85878 0.46744 0.0
C108 C 0.68832 0.90163 0.51845 0.0
C109 C 0.70952 0.84596 0.52645 0.0
O110 O 0.67107 0.84784 0.48252 0.0
O111 O 0.6601 0.87361 0.48292 0.0
O112 O 0.70931 0.86073 0.51032 0.0
O113 O 0.69531 0.84199 0.54253 0.0
C114 C 0.66767 0.86435 0.59393 0.0
O115 O 0.69892 0.88964 0.50824 0.0
O116 O 0.67418 0.8961 0.53277 0.0
In117 In 0.127 0.68859 0.50009 0.0
O118 O 0.10179 0.7051 0.5021 0.0
O119 O 0.09945 0.6773 0.49249 0.0
C120 C 0.15169 0.7143 0.49946 0.0
C121 C 0.12972 0.67539 0.56778 0.0
C122 C 0.13279 0.67438 0.43426 0.0
O123 O 0.13533 0.71756 0.49679 0.0
O124 O 0.15556 0.6981 0.5026 0.0
O125 O 0.13667 0.66612 0.46303 0.0
O126 O 0.12623 0.68959 0.43902 0.0
C127 C 0.09171 0.69205 0.49611 0.0
O128 O 0.13459 0.66659 0.54037 0.0
O129 O 0.12362 0.69056 0.56078 0.0
In130 In 0.31292 0.13004 0.51578 0.0
O131 O 0.2974 0.10423 0.51459 0.0
O132 O 0.32557 0.10291 0.51917 0.0
C133 C 0.28649 0.15385 0.51132 0.0
C134 C 0.3243 0.13496 0.58414 0.0
C135 C 0.32803 0.13497 0.45052 0.0
O136 O 0.28365 0.13735 0.51182 0.0
O137 O 0.3026 0.15824 0.51285 0.0
O138 O 0.33414 0.1422 0.47881 0.0
O139 O 0.3146 0.12534 0.45547 0.0
C140 C 0.31106 0.0946 0.51727 0.0
O141 O 0.33451 0.13699 0.55727 0.0
O142 O 0.30863 0.1307 0.57621 0.0
In143 In 0.86717 0.3093 0.51673 0.0
O144 O 0.85452 0.33045 0.55316 0.0
O145 O 0.87377 0.31319 0.57607 0.0
C146 C 0.86013 0.3205 0.44897 0.0
C147 C 0.90248 0.30753 0.51009 0.0
C148 C 0.84502 0.28171 0.52546 0.0
O149 O 0.85921 0.33079 0.47594 0.0
O150 O 0.86418 0.30471 0.45647 0.0
O151 O 0.86161 0.27979 0.52337 0.0
O152 O 0.83966 0.29752 0.52321 0.0
C153 C 0.86313 0.32585 0.58096 0.0
O154 O 0.89312 0.294 0.5165 0.0
O155 O 0.894 0.32192 0.50744 0.0
In156 In 0.6872 0.12387 0.4868 0.0
O157 O 0.70437 0.0993 0.48026 0.0
O158 O 0.6763 0.09601 0.48151 0.0
C159 C 0.71365 0.14669 0.50117 0.0
C160 C 0.67623 0.1315 0.41899 0.0
C161 C 0.67016 0.12654 0.5508 0.0
O162 O 0.71614 0.13018 0.4987 0.0
O163 O 0.69786 0.15165 0.49615 0.0
O164 O 0.66587 0.13592 0.52381 0.0
O165 O 0.68264 0.11579 0.54509 0.0
C166 C 0.69137 0.08877 0.47907 0.0
O167 O 0.66548 0.1304 0.44515 0.0
O168 O 0.69223 0.12906 0.42736 0.0
In169 In 0.86806 0.68656 0.49835 0.0
O170 O 0.8664 0.66305 0.45914 0.0
O171 O 0.85308 0.68687 0.44495 0.0
C172 C 0.86691 0.66942 0.56253 0.0
C173 C 0.90254 0.69328 0.48596 0.0
C174 C 0.84625 0.71442 0.50726 0.0
O175 O 0.85682 0.66538 0.53654 0.0
O176 O 0.87761 0.6818 0.55584 0.0
O177 O 0.86072 0.71561 0.49019 0.0
O178 O 0.84288 0.69922 0.51984 0.0
C179 C 0.85718 0.67126 0.4361 0.0
O180 O 0.89257 0.70427 0.50181 0.0
O181 O 0.89504 0.67915 0.47613 0.0
In182 In 0.31535 0.86943 0.50466 0.0
O183 O 0.33633 0.85839 0.46548 0.0
O184 O 0.3168 0.87608 0.44498 0.0
C185 C 0.32793 0.86299 0.57169 0.0
C186 C 0.31297 0.90474 0.51026 0.0
C187 C 0.28858 0.84602 0.49897 0.0
O188 O 0.33725 0.86034 0.54373 0.0
O189 O 0.3125 0.86867 0.56554 0.0
O190 O 0.28602 0.86255 0.49981 0.0
O191 O 0.30461 0.84136 0.50085 0.0
C192 C 0.33015 0.86658 0.4384 0.0
O193 O 0.29945 0.89494 0.5074 0.0
O194 O 0.32766 0.89667 0.51032 0.0
In195 In 0.12678 0.31307 0.50323 0.0
O196 O 0.10176 0.2962 0.50048 0.0
O197 O 0.09946 0.32395 0.49107 0.0
C198 C 0.15121 0.28756 0.5117 0.0
C199 C 0.13567 0.32469 0.43684 0.0
C200 C 0.1278 0.32815 0.56936 0.0
O201 O 0.13494 0.28418 0.50738 0.0
O202 O 0.15511 0.30386 0.5121 0.0
O203 O 0.13424 0.3358 0.54186 0.0
O204 O 0.12106 0.31318 0.5632 0.0
C205 C 0.09175 0.30916 0.49335 0.0
O206 O 0.13356 0.33529 0.46304 0.0
O207 O 0.13351 0.30855 0.44446 0.0
H208 H 0.16138 0.56287 0.00052 0.0
H209 H 0.16514 0.53071 0.00453 0.0
H210 H 0.22194 0.53726 0.0077 0.0
H211 H 0.21829 0.56946 0.00399 0.0
H212 H 0.18193 0.50774 0.95956 0.0
H213 H 0.23865 0.50473 0.06424 0.0
H214 H 0.25064 0.52248 0.11478 0.0
H215 H 0.19918 0.5451 0.13343 0.0
H216 H 0.18685 0.52732 0.08336 0.0
H217 H 0.21227 0.41978 0.96651 0.0
H218 H 0.21554 0.45207 0.96753 0.0
H219 H 0.1846 0.45462 0.06563 0.0
H220 H 0.18122 0.42237 0.06477 0.0
H221 H 0.21282 0.4795 0.06337 0.0
H222 H 0.16342 0.45879 0.99118 0.0
H223 H 0.14983 0.44059 0.94312 0.0
H224 H 0.18308 0.46555 0.86371 0.0
H225 H 0.19708 0.48368 0.91147 0.0
C226 C 0.17466 0.55745 0.00204 0.0
C227 C 0.18954 0.56863 0.00204 0.0
C228 C 0.17679 0.53911 0.00423 0.0
C229 C 0.1938 0.53167 0.00667 0.0
C230 C 0.20869 0.54279 0.00626 0.0
C231 C 0.20658 0.56114 0.00401 0.0
C232 C 0.19589 0.51225 0.00964 0.0
C233 C 0.18876 0.50159 0.98216 0.0
C234 C 0.2047 0.50426 0.03929 0.0
C235 C 0.21189 0.51484 0.06978 0.0
C236 C 0.22989 0.51345 0.07921 0.0
C237 C 0.23674 0.52352 0.10776 0.0
C238 C 0.22569 0.53495 0.12722 0.0
C239 C 0.20774 0.53629 0.11825 0.0
C240 C 0.20082 0.52624 0.08975 0.0
C241 C 0.20652 0.42718 0.98875 0.0
C242 C 0.19628 0.41865 0.01529 0.0
C243 C 0.20841 0.44559 0.98928 0.0
C244 C 0.20013 0.45564 0.01643 0.0
C245 C 0.19107 0.44703 0.04449 0.0
C246 C 0.18908 0.42865 0.04384 0.0
C247 C 0.19898 0.4751 0.01319 0.0
C248 C 0.20622 0.48573 0.04057 0.0
C249 C 0.19004 0.48309 0.98374 0.0
C250 C 0.18143 0.47244 0.95493 0.0
C251 C 0.16792 0.4603 0.96351 0.0
C252 C 0.16014 0.45001 0.93633 0.0
C253 C 0.16563 0.45188 0.9004 0.0
C254 C 0.17887 0.46409 0.89156 0.0
C255 C 0.18673 0.47438 0.91867 0.0
H256 H 0.15959 0.44389 0.87939 0.0
H257 H 0.23102 0.54275 0.14929 0.0
H258 H 0.42899 0.17962 0.06239 0.0
H259 H 0.46128 0.18206 0.06187 0.0
H260 H 0.4581 0.21906 0.97284 0.0
H261 H 0.42575 0.2173 0.97458 0.0
H262 H 0.48289 0.17224 0.01415 0.0
H263 H 0.49387 0.24551 0.96897 0.0
H264 H 0.48015 0.27487 0.97825 0.0
H265 H 0.45771 0.25713 0.07875 0.0
H266 H 0.47149 0.22775 0.07034 0.0
H267 H 0.56818 0.17786 0.9437 0.0
H268 H 0.53617 0.18158 0.95065 0.0
H269 H 0.54485 0.21629 0.04195 0.0
H270 H 0.57691 0.21327 0.03394 0.0
H271 H 0.51785 0.22779 0.00576 0.0
H272 H 0.53505 0.17163 0.05336 0.0
H273 H 0.54939 0.14223 0.05321 0.0
H274 H 0.5161 0.12576 0.96511 0.0
H275 H 0.50172 0.15516 0.96441 0.0
C276 C 0.43521 0.18846 0.04309 0.0
C277 C 0.42496 0.19827 0.01851 0.0
C278 C 0.45364 0.18983 0.04275 0.0
C279 C 0.46216 0.20082 0.01745 0.0
C280 C 0.45186 0.2108 0.99315 0.0
C281 C 0.43339 0.20971 0.994 0.0
C282 C 0.48177 0.20082 0.01486 0.0
C283 C 0.4905 0.18442 0.01251 0.0
C284 C 0.4918 0.21668 0.01337 0.0
C285 C 0.48359 0.23437 0.01882 0.0
C286 C 0.48607 0.2479 0.99312 0.0
C287 C 0.47827 0.26454 0.99821 0.0
C288 C 0.46802 0.26785 0.02901 0.0
C289 C 0.46559 0.25453 0.05484 0.0
C290 C 0.47338 0.23787 0.04989 0.0
C291 C 0.56323 0.18645 0.96495 0.0
C292 C 0.57494 0.19515 0.98851 0.0
C293 C 0.54497 0.18851 0.96902 0.0
C294 C 0.53812 0.19886 0.99739 0.0
C295 C 0.54983 0.20818 0.01997 0.0
C296 C 0.56813 0.20641 0.01543 0.0
C297 C 0.5188 0.19924 0.00455 0.0
C298 C 0.51017 0.21567 0.00764 0.0
C299 C 0.50889 0.1834 0.00816 0.0
C300 C 0.51741 0.16565 0.00864 0.0
C301 C 0.53086 0.16178 0.03381 0.0
C302 C 0.53899 0.14511 0.03389 0.0
C303 C 0.53369 0.13215 0.00911 0.0
C304 C 0.52021 0.13582 0.98426 0.0
C305 C 0.51205 0.15247 0.98403 0.0
H306 H 0.54 0.11925 0.00921 0.0
H307 H 0.46198 0.28074 0.03289 0.0
H308 H 0.83083 0.43196 0.0161 0.0
H309 H 0.8274 0.46408 0.02042 0.0
H310 H 0.77062 0.45806 0.02726 0.0
H311 H 0.77394 0.42577 0.02272 0.0
H312 H 0.78078 0.48442 0.97976 0.0
H313 H 0.79267 0.46786 0.10199 0.0
H314 H 0.80861 0.45266 0.15131 0.0
H315 H 0.85586 0.48184 0.12599 0.0
H316 H 0.84029 0.49703 0.07613 0.0
H317 H 0.77512 0.57752 0.01549 0.0
H318 H 0.77125 0.54545 0.02316 0.0
H319 H 0.82806 0.53855 0.02289 0.0
H320 H 0.832 0.57045 0.016 0.0
H321 H 0.81309 0.51852 0.07387 0.0
H322 H 0.80288 0.53129 0.94677 0.0
H323 H 0.7878 0.54601 0.89569 0.0
H324 H 0.7381 0.52365 0.92924 0.0
H325 H 0.75288 0.50897 0.98081 0.0
C326 C 0.81761 0.43745 0.0185 0.0
C327 C 0.80265 0.42639 0.01919 0.0
C328 C 0.81568 0.45579 0.02115 0.0
C329 C 0.79878 0.46337 0.02469 0.0
C330 C 0.78377 0.4524 0.02474 0.0
C331 C 0.7857 0.43401 0.02218 0.0
C332 C 0.79694 0.48282 0.02773 0.0
C333 C 0.78751 0.4919 0.00077 0.0
C334 C 0.80593 0.49249 0.05491 0.0
C335 C 0.81532 0.48352 0.08516 0.0
C336 C 0.80649 0.47096 0.10678 0.0
C337 C 0.81546 0.46235 0.13486 0.0
C338 C 0.83324 0.46626 0.14175 0.0
C339 C 0.84208 0.47882 0.12062 0.0
C340 C 0.83318 0.48746 0.09247 0.0
C341 C 0.78675 0.56914 0.01731 0.0
C342 C 0.80385 0.57642 0.01495 0.0
C343 C 0.78453 0.55085 0.0216 0.0
C344 C 0.79937 0.53963 0.02324 0.0
C345 C 0.81643 0.54698 0.02176 0.0
C346 C 0.81865 0.5652 0.01765 0.0
C347 C 0.79738 0.52014 0.02526 0.0
C348 C 0.80607 0.51105 0.05325 0.0
C349 C 0.78779 0.51046 0.99891 0.0
C350 C 0.77893 0.51922 0.96787 0.0
C351 C 0.78871 0.52963 0.9434 0.0
C352 C 0.78023 0.53794 0.91434 0.0
C353 C 0.76199 0.53582 0.90929 0.0
C354 C 0.75222 0.52532 0.93323 0.0
C355 C 0.76064 0.517 0.96237 0.0
H356 H 0.75545 0.54226 0.88677 0.0
H357 H 0.84017 0.45958 0.16349 0.0
H358 H 0.57183 0.81783 0.09004 0.0
H359 H 0.53982 0.81349 0.09512 0.0
H360 H 0.54127 0.7779 0.00345 0.0
H361 H 0.5734 0.78143 -0.0002 0.0
H362 H 0.5164 0.82323 0.05248 0.0
H363 H 0.50681 0.75048 0.00042 0.0
H364 H 0.52147 0.72139 0.00659 0.0
H365 H 0.54517 0.7381 0.10664 0.0
H366 H 0.53046 0.76719 0.10137 0.0
H367 H 0.43259 0.81708 0.97727 0.0
H368 H 0.46446 0.81476 0.98788 0.0
H369 H 0.45505 0.77582 0.07144 0.0
H370 H 0.42316 0.77735 0.05918 0.0
H371 H 0.48313 0.76695 0.03807 0.0
H372 H 0.46371 0.82078 0.09129 0.0
H373 H 0.44843 0.84965 0.09482 0.0
H374 H 0.48209 0.87025 0.01107 0.0
H375 H 0.49742 0.84142 0.00668 0.0
C376 C 0.56531 0.80881 0.07148 0.0
C377 C 0.57497 0.79998 0.04449 0.0
C378 C 0.54704 0.80636 0.07434 0.0
C379 C 0.53808 0.79531 0.04979 0.0
C380 C 0.54787 0.78615 0.0233 0.0
C381 C 0.56621 0.78827 0.02103 0.0
C382 C 0.51841 0.79472 0.04957 0.0
C383 C 0.50916 0.81088 0.04969 0.0
C384 C 0.50883 0.77863 0.04682 0.0
C385 C 0.51762 0.76108 0.05032 0.0
C386 C 0.51507 0.74792 0.02383 0.0
C387 C 0.52341 0.73144 0.02715 0.0
C388 C 0.53428 0.72792 0.05694 0.0
C389 C 0.5368 0.74086 0.08352 0.0
C390 C 0.52848 0.75736 0.08035 0.0
C391 C 0.43738 0.80793 0.99767 0.0
C392 C 0.42552 0.79749 0.01764 0.0
C393 C 0.45555 0.80669 0.00391 0.0
C394 C 0.46213 0.79549 0.0312 0.0
C395 C 0.45029 0.78463 0.0504 0.0
C396 C 0.4321 0.78552 0.04345 0.0
C397 C 0.4813 0.79546 0.04 0.0
C398 C 0.49042 0.77924 0.04142 0.0
C399 C 0.49072 0.81145 0.04577 0.0
C400 C 0.48164 0.82889 0.04851 0.0
C401 C 0.46779 0.83144 0.07349 0.0
C402 C 0.45913 0.8478 0.07566 0.0
C403 C 0.46427 0.86177 0.05315 0.0
C404 C 0.47812 0.85942 0.02849 0.0
C405 C 0.48682 0.84308 0.02618 0.0
H406 H 0.45754 0.87442 0.05485 0.0
H407 H 0.54073 0.71515 0.05944 0.0
H408 H 0.66613 0.06376 0.49068 0.0
H409 H 0.67028 0.03166 0.49404 0.0
H410 H 0.72555 0.0378 0.46709 0.0
H411 H 0.72161 0.07012 0.46429 0.0
H412 H 0.70378 0.00787 0.43008 0.0
H413 H 0.72194 0.03176 0.54541 0.0
H414 H 0.71858 0.05108 0.59887 0.0
H415 H 0.66963 0.0252 0.62578 0.0
H416 H 0.67256 0.00592 0.5721 0.0
H417 H 0.71715 0.91728 0.48661 0.0
H418 H 0.72205 0.94914 0.47718 0.0
H419 H 0.67193 0.96049 0.52864 0.0
H420 H 0.66712 0.92894 0.53857 0.0
H421 H 0.69711 0.98205 0.55294 0.0
H422 H 0.67666 0.96052 0.43683 0.0
H423 H 0.67775 0.94199 0.3818 0.0
H424 H 0.72877 0.96353 0.35506 0.0
H425 H 0.72811 0.98198 0.41027 0.0
C426 C 0.67913 0.05829 0.48504 0.0
C427 C 0.69359 0.06939 0.47747 0.0
C428 C 0.68146 0.03999 0.48695 0.0
C429 C 0.69822 0.03251 0.48095 0.0
C430 C 0.71253 0.04344 0.47173 0.0
C431 C 0.71027 0.06183 0.47031 0.0
C432 C 0.70077 0.01337 0.48693 0.0
C433 C 0.70275 0.00215 0.45695 0.0
C434 C 0.69909 0.00609 0.52198 0.0
C435 C 0.6974 0.0175 0.55456 0.0
C436 C 0.71038 0.03029 0.56255 0.0
C437 C 0.70857 0.04121 0.59292 0.0
C438 C 0.69388 0.03939 0.61566 0.0
C439 C 0.681 0.0266 0.60812 0.0
C440 C 0.68274 0.01566 0.57775 0.0
C441 C 0.70725 0.92662 0.49601 0.0
C442 C 0.69176 0.92068 0.51331 0.0
C443 C 0.71003 0.94476 0.49048 0.0
C444 C 0.69729 0.95713 0.50204 0.0
C445 C 0.68194 0.95116 0.51963 0.0
C446 C 0.67919 0.93312 0.52519 0.0
C447 C 0.69967 0.97635 0.49597 0.0
C448 C 0.69859 0.98766 0.52606 0.0
C449 C 0.70199 0.98365 0.46095 0.0
C450 C 0.70244 0.97245 0.42793 0.0
C451 C 0.68819 0.96117 0.41942 0.0
C452 C 0.68872 0.9507 0.38816 0.0
C453 C 0.70334 0.95155 0.36501 0.0
C454 C 0.71747 0.96286 0.37306 0.0
C455 C 0.71703 0.97332 0.40433 0.0
H456 H 0.7037 0.94351 0.34075 0.0
H457 H 0.6925 0.04787 0.63916 0.0
H458 H 0.92269 0.72051 0.51235 0.0
H459 H 0.9551 0.72272 0.5113 0.0
H460 H 0.95799 0.6743 0.44924 0.0
H461 H 0.92574 0.67191 0.45049 0.0
H462 H 0.97864 0.67337 0.50936 0.0
H463 H 0.96735 0.71397 0.4107 0.0
H464 H 0.95386 0.74031 0.38227 0.0
H465 H 0.97908 0.77393 0.46071 0.0
H466 H 0.99254 0.74776 0.48991 0.0
H467 H 0.06867 0.66846 0.46676 0.0
H468 H 0.03649 0.67105 0.46272 0.0
H469 H 0.03881 0.72198 0.516 0.0
H470 H 0.07121 0.71975 0.5187 0.0
H471 H 0.01538 0.72307 0.46353 0.0
H472 H 0.02682 0.6837 0.56222 0.0
H473 H 0.04008 0.65793 0.59318 0.0
H474 H 0.01408 0.62273 0.51882 0.0
H475 H 0.00085 0.6483 0.48709 0.0
C476 C 0.93025 0.7105 0.49802 0.0
C477 C 0.92175 0.69597 0.48173 0.0
C478 C 0.94873 0.71181 0.49736 0.0
C479 C 0.95889 0.69867 0.48019 0.0
C480 C 0.95035 0.68454 0.46273 0.0
C481 C 0.93195 0.68321 0.46343 0.0
C482 C 0.97844 0.69877 0.48269 0.0
C483 C 0.9867 0.68413 0.4989 0.0
C484 C 0.98882 0.71315 0.47038 0.0
C485 C 0.98081 0.72889 0.4527 0.0
C486 C 0.9699 0.72697 0.42206 0.0
C487 C 0.96228 0.74187 0.40577 0.0
C488 C 0.96557 0.75878 0.41973 0.0
C489 C 0.97653 0.76083 0.44995 0.0
C490 C 0.98417 0.74596 0.46636 0.0
C491 C 0.06231 0.68021 0.47757 0.0
C492 C 0.07235 0.69383 0.49335 0.0
C493 C 0.04393 0.68166 0.47536 0.0
C494 C 0.03522 0.69654 0.48977 0.0
C495 C 0.04527 0.71035 0.50485 0.0
C496 C 0.06373 0.70904 0.50649 0.0
C497 C 0.01562 0.69746 0.48949 0.0
C498 C 0.00733 0.71232 0.47401 0.0
C499 C 0.00513 0.68337 0.5029 0.0
C500 C 0.01296 0.66794 0.52211 0.0
C501 C 0.02402 0.67047 0.55233 0.0
C502 C 0.03151 0.6559 0.57003 0.0
C503 C 0.02795 0.63871 0.55793 0.0
C504 C 0.01684 0.63605 0.52815 0.0
C505 C 0.00932 0.65058 0.51032 0.0
H506 H 0.03377 0.62744 0.57166 0.0
H507 H 0.95966 0.7703 0.40708 0.0
H508 H 0.28157 0.07363 0.51482 0.0
H509 H 0.28054 0.04116 0.51428 0.0
H510 H 0.33764 0.03921 0.52005 0.0
H511 H 0.33879 0.07158 0.52032 0.0
H512 H 0.32454 0.01716 0.46836 0.0
H513 H 0.31308 0.0306 0.5938 0.0
H514 H 0.2973 0.04492 0.64448 0.0
H515 H 0.24897 0.01918 0.61279 0.0
H516 H 0.26442 0.0049 0.56158 0.0
H517 H 0.34017 0.92828 0.51562 0.0
H518 H 0.33824 0.96061 0.51722 0.0
H519 H 0.2812 0.9575 0.51125 0.0
H520 H 0.28301 0.92506 0.51002 0.0
H521 H 0.29237 0.98202 0.56101 0.0
H522 H 0.30394 0.96766 0.4371 0.0
H523 H 0.31963 0.95319 0.3865 0.0
H524 H 0.36748 0.98072 0.4148 0.0
H525 H 0.35214 0.99515 0.46595 0.0
C526 C 0.29389 0.06626 0.51607 0.0
C527 C 0.31026 0.07509 0.51762 0.0
C528 C 0.29327 0.04774 0.51587 0.0
C529 C 0.30901 0.03784 0.51735 0.0
C530 C 0.32536 0.04665 0.51886 0.0
C531 C 0.32598 0.06512 0.51912 0.0
C532 C 0.30857 0.01825 0.51667 0.0
C533 C 0.31767 0.00947 0.48883 0.0
C534 C 0.29915 0.0083 0.54281 0.0
C535 C 0.28986 0.01684 0.57362 0.0
C536 C 0.29905 0.02812 0.59745 0.0
C537 C 0.29018 0.0362 0.62631 0.0
C538 C 0.27213 0.033 0.63179 0.0
C539 C 0.26294 0.02167 0.60847 0.0
C540 C 0.27175 0.01357 0.57954 0.0
C541 C 0.32721 0.93447 0.51476 0.0
C542 C 0.31174 0.92419 0.51247 0.0
C543 C 0.32614 0.95293 0.51557 0.0
C544 C 0.30959 0.9614 0.51386 0.0
C545 C 0.29409 0.95117 0.51248 0.0
C546 C 0.29515 0.93268 0.51167 0.0
C547 C 0.30858 0.98096 0.51302 0.0
C548 C 0.29916 0.98973 0.54046 0.0
C549 C 0.31767 0.99093 0.48646 0.0
C550 C 0.32692 0.98237 0.45556 0.0
C551 C 0.31784 0.97053 0.43271 0.0
C552 C 0.32667 0.96235 0.4039 0.0
C553 C 0.34455 0.966 0.39749 0.0
C554 C 0.35363 0.97788 0.41982 0.0
C555 C 0.34487 0.98608 0.44871 0.0
H556 H 0.35136 0.95966 0.37517 0.0
H557 H 0.26529 0.03927 0.65415 0.0
H558 H 0.06833 0.33486 0.47405 0.0
H559 H 0.03604 0.33292 0.47357 0.0
H560 H 0.0391 0.27788 0.50494 0.0
H561 H 0.07155 0.27965 0.50494 0.0
H562 H 0.01305 0.28404 0.45386 0.0
H563 H 0.0315 0.30824 0.56813 0.0
H564 H 0.04768 0.32885 0.60807 0.0
H565 H 0.01948 0.37289 0.56202 0.0
H566 H 0.00331 0.35256 0.52141 0.0
H567 H 0.92391 0.27863 0.51847 0.0
H568 H 0.95621 0.27753 0.51257 0.0
H569 H 0.95693 0.33325 0.48587 0.0
H570 H 0.92474 0.33451 0.49236 0.0
H571 H 0.98125 0.32549 0.5357 0.0
H572 H 0.96299 0.3015 0.42091 0.0
H573 H 0.94694 0.28102 0.38047 0.0
H574 H 0.97455 0.23676 0.42715 0.0
H575 H 0.99061 0.25696 0.46821 0.0
C576 C 0.06214 0.32229 0.48051 0.0
C577 C 0.0724 0.30745 0.48992 0.0
C578 C 0.04371 0.32122 0.48028 0.0
C579 C 0.03524 0.30534 0.48983 0.0
C580 C 0.04544 0.29026 0.49763 0.0
C581 C 0.06393 0.29131 0.49772 0.0
C582 C 0.01575 0.30484 0.49345 0.0
C583 C 0.00607 0.29292 0.47207 0.0
C584 C 0.00673 0.31664 0.51685 0.0
C585 C 0.01631 0.32889 0.54151 0.0
C586 C 0.02884 0.32233 0.56634 0.0
C587 C 0.03799 0.33396 0.58913 0.0
C588 C 0.03464 0.35217 0.58753 0.0
C589 C 0.02208 0.35878 0.56321 0.0
C590 C 0.0129 0.34721 0.54032 0.0
C591 C 0.93097 0.29062 0.51125 0.0
C592 C 0.92186 0.30667 0.50594 0.0
C593 C 0.94939 0.28995 0.50771 0.0
C594 C 0.95891 0.30528 0.49847 0.0
C595 C 0.9498 0.32128 0.49303 0.0
C596 C 0.93143 0.32198 0.49671 0.0
C597 C 0.97845 0.30487 0.49569 0.0
C598 C 0.98819 0.31659 0.51745 0.0
C599 C 0.98747 0.29289 0.47264 0.0
C600 C 0.97787 0.28073 0.44789 0.0
C601 C 0.96554 0.28738 0.42275 0.0
C602 C 0.95646 0.27583 0.39968 0.0
C603 C 0.95968 0.2576 0.40131 0.0
C604 C 0.97204 0.25088 0.42595 0.0
C605 C 0.98115 0.26238 0.44911 0.0
H606 H 0.95264 0.24867 0.38343 0.0
H607 H 0.04174 0.36115 0.60518 0.0
H608 H 0.2069 0.31207 0.95595 0.0
H609 H 0.23124 0.29066 0.95248 0.0
H610 H 0.26588 0.32783 0.0061 0.0
H611 H 0.24162 0.34934 0.00957 0.0
H612 H 0.28221 0.31023 0.94851 0.0
H613 H 0.24757 0.29628 0.05444 0.0
H614 H 0.22005 0.28933 0.08756 0.0
H615 H 0.21267 0.24278 0.02226 0.0
H616 H 0.24003 0.24961 0.98838 0.0
H617 H 0.34885 0.25141 0.01324 0.0
H618 H 0.32565 0.2738 0.00548 0.0
H619 H 0.29049 0.23384 0.96255 0.0
H620 H 0.31346 0.21136 0.97107 0.0
H621 H 0.27418 0.25283 0.01209 0.0
H622 H 0.30954 0.26572 0.90783 0.0
H623 H 0.33694 0.27262 0.87427 0.0
H624 H 0.34298 0.32079 0.93506 0.0
H625 H 0.31574 0.31406 0.96936 0.0
C626 C 0.21974 0.31573 0.96672 0.0
C627 C 0.22235 0.3323 0.98328 0.0
C628 C 0.2336 0.3035 0.96476 0.0
C629 C 0.25027 0.30764 0.97936 0.0
C630 C 0.25309 0.32442 0.9947 0.0
C631 C 0.23922 0.33664 0.9968 0.0
C632 C 0.2645 0.29416 0.98028 0.0
C633 C 0.28057 0.29773 0.96265 0.0
C634 C 0.26213 0.27774 0.99813 0.0
C635 C 0.24574 0.27356 0.01863 0.0
C636 C 0.24 0.28464 0.04695 0.0
C637 C 0.22444 0.28071 0.06589 0.0
C638 C 0.21459 0.26565 0.05695 0.0
C639 C 0.2203 0.25446 0.02912 0.0
C640 C 0.23583 0.25834 0.01005 0.0
C641 C 0.33621 0.24746 0.00189 0.0
C642 C 0.3329 0.22967 0.9929 0.0
C643 C 0.32301 0.26026 0.99729 0.0
C644 C 0.30639 0.25551 0.98314 0.0
C645 C 0.30321 0.23779 0.97355 0.0
C646 C 0.31634 0.22497 0.97841 0.0
C647 C 0.29199 0.26881 0.98018 0.0
C648 C 0.27585 0.26524 0.99762 0.0
C649 C 0.29432 0.28518 0.96205 0.0
C650 C 0.31068 0.2893 0.94139 0.0
C651 C 0.31678 0.27772 0.91424 0.0
C652 C 0.33227 0.28161 0.89505 0.0
C653 C 0.34172 0.29711 0.90259 0.0
C654 C 0.33566 0.30878 0.92928 0.0
C655 C 0.32019 0.30494 0.94857 0.0
H656 H 0.35371 0.3001 0.8877 0.0
H657 H 0.20255 0.26263 0.07165 0.0
H658 H 0.78807 0.31125 0.01933 0.0
H659 H 0.76509 0.28848 0.01741 0.0
H660 H 0.7247 0.32892 0.0235 0.0
H661 H 0.7477 0.35185 0.02577 0.0
H662 H 0.71727 0.29999 0.06694 0.0
H663 H 0.73447 0.31118 0.94392 0.0
H664 H 0.75528 0.31441 0.89291 0.0
H665 H 0.77184 0.26028 0.90587 0.0
H666 H 0.75134 0.25682 0.95743 0.0
H667 H 0.64611 0.24563 0.00358 0.0
H668 H 0.66806 0.26929 0.0109 0.0
H669 H 0.71021 0.2307 0.00477 0.0
H670 H 0.68839 0.20702 0.99735 0.0
H671 H 0.7161 0.25936 0.9612 0.0
H672 H 0.69942 0.24806 0.08433 0.0
H673 H 0.67859 0.24448 0.13526 0.0
H674 H 0.66112 0.2983 0.12216 0.0
H675 H 0.68164 0.30213 0.07074 0.0
C676 C 0.7743 0.3153 0.02049 0.0
C677 C 0.76965 0.33332 0.02243 0.0
C678 C 0.7612 0.30229 0.0193 0.0
C679 C 0.74322 0.30706 0.01982 0.0
C680 C 0.73852 0.325 0.02297 0.0
C681 C 0.75164 0.33806 0.02415 0.0
C682 C 0.7294 0.2933 0.01591 0.0
C683 C 0.71683 0.29125 0.04361 0.0
C684 C 0.72911 0.28172 0.98576 0.0
C685 C 0.74147 0.28379 0.95477 0.0
C686 C 0.74266 0.30001 0.93612 0.0
C687 C 0.75439 0.30188 0.90705 0.0
C688 C 0.76489 0.28756 0.89617 0.0
C689 C 0.7637 0.27136 0.91435 0.0
C690 C 0.75203 0.26944 0.94349 0.0
C691 C 0.66006 0.24221 0.00387 0.0
C692 C 0.66557 0.22451 -0.00014 0.0
C693 C 0.67255 0.25571 0.0082 0.0
C694 C 0.69072 0.25169 0.0086 0.0
C695 C 0.69624 0.23404 0.00453 0.0
C696 C 0.68377 0.22054 0.00036 0.0
C697 C 0.70405 0.26593 0.01234 0.0
C698 C 0.71651 0.26811 0.98452 0.0
C699 C 0.70424 0.27757 0.04239 0.0
C700 C 0.69194 0.27533 0.07341 0.0
C701 C 0.69102 0.25909 0.09209 0.0
C702 C 0.67929 0.25702 0.12109 0.0
C703 C 0.66851 0.27114 0.13187 0.0
C704 C 0.66946 0.28737 0.11374 0.0
C705 C 0.68115 0.2895 0.08467 0.0
H706 H 0.65944 0.26951 0.15434 0.0
H707 H 0.77391 0.28899 0.87358 0.0
H708 H 0.79209 0.69063 0.98007 0.0
H709 H 0.76938 0.71376 0.97891 0.0
H710 H 0.72851 0.6738 0.97715 0.0
H711 H 0.75118 0.65052 0.97826 0.0
H712 H 0.72145 0.70294 0.93111 0.0
H713 H 0.73843 0.69128 0.05458 0.0
H714 H 0.75963 0.68768 0.10486 0.0
H715 H 0.77702 0.74147 0.09107 0.0
H716 H 0.75611 0.7453 0.04028 0.0
H717 H 0.64896 0.75259 0.00217 0.0
H718 H 0.67222 0.73058 0.99111 0.0
H719 H 0.71186 0.77171 0.99645 0.0
H720 H 0.68868 0.7938 0.00743 0.0
H721 H 0.72003 0.74259 0.03843 0.0
H722 H 0.70196 0.75497 0.91717 0.0
H723 H 0.68063 0.75878 0.86722 0.0
H724 H 0.66517 0.70418 0.8766 0.0
H725 H 0.68623 0.7001 0.92706 0.0
C726 C 0.77828 0.68676 0.979 0.0
C727 C 0.77338 0.66879 0.97962 0.0
C728 C 0.76534 0.69998 0.97835 0.0
C729 C 0.74731 0.69544 0.97833 0.0
C730 C 0.74237 0.67752 0.97717 0.0
C731 C 0.75532 0.66427 0.97798 0.0
C732 C 0.73365 0.70938 0.98216 0.0
C733 C 0.72099 0.71151 0.95469 0.0
C734 C 0.73335 0.72074 0.01265 0.0
C735 C 0.74584 0.71851 0.04337 0.0
C736 C 0.74688 0.70229 0.06207 0.0
C737 C 0.75883 0.70022 0.09069 0.0
C738 C 0.7697 0.71432 0.10109 0.0
C739 C 0.76861 0.73055 0.08294 0.0
C740 C 0.75671 0.73268 0.05424 0.0
C741 C 0.66263 0.75694 0.00084 0.0
C742 C 0.66705 0.77488 0.0057 0.0
C743 C 0.67587 0.74439 0.99436 0.0
C744 C 0.69371 0.74958 0.99274 0.0
C745 C 0.69815 0.76748 0.99756 0.0
C746 C 0.68491 0.78006 0.00376 0.0
C747 C 0.70779 0.7362 0.98738 0.0
C748 C 0.72052 0.73412 0.01469 0.0
C749 C 0.70812 0.72494 0.95674 0.0
C750 C 0.69555 0.72727 0.92616 0.0
C751 C 0.69391 0.7438 0.90881 0.0
C752 C 0.68188 0.74601 0.88036 0.0
C753 C 0.67151 0.73174 0.86881 0.0
C754 C 0.6732 0.71522 0.88562 0.0
C755 C 0.68519 0.71295 0.91413 0.0
H756 H 0.6622 0.73348 0.84679 0.0
H757 H 0.77894 0.71269 0.12326 0.0
H758 H 0.20737 0.68308 0.00188 0.0
H759 H 0.23139 0.70477 0.9994 0.0
H760 H 0.26917 0.66261 0.98205 0.0
H761 H 0.2452 0.64078 0.98503 0.0
H762 H 0.28065 0.68575 0.03237 0.0
H763 H 0.25677 0.6891 0.91254 0.0
H764 H 0.23333 0.69232 0.86649 0.0
H765 H 0.22116 0.74439 0.90655 0.0
H766 H 0.24437 0.74139 0.95321 0.0
H767 H 0.35171 0.74371 0.98772 0.0
H768 H 0.32903 0.72059 0.98387 0.0
H769 H 0.28827 0.75978 0.00211 0.0
H770 H 0.31084 0.78297 0.0055 0.0
H771 H 0.27926 0.73711 0.94843 0.0
H772 H 0.30193 0.73305 0.07014 0.0
H773 H 0.32517 0.72981 0.11665 0.0
H774 H 0.33948 0.67899 0.07297 0.0
H775 H 0.31647 0.68204 0.02587 0.0
C776 C 0.22079 0.67844 0.99744 0.0
C777 C 0.22444 0.66027 0.99357 0.0
C778 C 0.23448 0.69084 0.99587 0.0
C779 C 0.25202 0.68529 0.9901 0.0
C780 C 0.25571 0.66714 0.98643 0.0
C781 C 0.24202 0.65472 0.98806 0.0
C782 C 0.26654 0.69845 0.98877 0.0
C783 C 0.28052 0.69682 0.0136 0.0
C784 C 0.26613 0.71306 0.96475 0.0
C785 C 0.25222 0.71495 0.93658 0.0
C786 C 0.24901 0.70119 0.91172 0.0
C787 C 0.23578 0.70298 0.88547 0.0
C788 C 0.22574 0.71853 0.88365 0.0
C789 C 0.22894 0.73234 0.90801 0.0
C790 C 0.24215 0.73061 0.93434 0.0
C791 C 0.33791 0.74738 0.99083 0.0
C792 C 0.33302 0.7651 0.99708 0.0
C793 C 0.32499 0.73417 0.98872 0.0
C794 C 0.30701 0.73847 0.99308 0.0
C795 C 0.30209 0.7562 0.99869 0.0
C796 C 0.31499 0.76941 0.00075 0.0
C797 C 0.29327 0.72449 0.99223 0.0
C798 C 0.27945 0.72597 0.967 0.0
C799 C 0.29382 0.70974 0.01588 0.0
C800 C 0.30761 0.70786 0.04425 0.0
C801 C 0.31013 0.72125 0.07027 0.0
C802 C 0.32324 0.71943 0.09677 0.0
C803 C 0.33383 0.70422 0.0977 0.0
C804 C 0.33129 0.69077 0.07218 0.0
C805 C 0.31821 0.69253 0.04559 0.0
H806 H 0.34397 0.70284 0.11824 0.0
H807 H 0.21549 0.71989 0.86331 0.0
H808 H 0.81565 0.71526 0.54616 0.0
H809 H 0.79395 0.73925 0.54915 0.0
H810 H 0.82666 0.77119 0.47898 0.0
H811 H 0.84868 0.74728 0.47642 0.0
H812 H 0.81239 0.79084 0.53337 0.0
H813 H 0.79149 0.74974 0.44461 0.0
H814 H 0.7833 0.72039 0.42037 0.0
H815 H 0.74297 0.71526 0.50175 0.0
H816 H 0.7511 0.74447 0.52682 0.0
H817 H 0.74095 0.8505 0.49068 0.0
H818 H 0.76575 0.82954 0.48725 0.0
H819 H 0.73755 0.79339 0.55709 0.0
H820 H 0.71271 0.8141 0.56023 0.0
H821 H 0.75046 0.77684 0.49831 0.0
H822 H 0.77246 0.81787 0.58818 0.0
H823 H 0.78087 0.84733 0.61154 0.0
H824 H 0.81914 0.85291 0.52621 0.0
H825 H 0.81077 0.82356 0.50205 0.0
C826 C 0.81829 0.72743 0.53155 0.0
C827 C 0.83377 0.72937 0.51081 0.0
C828 C 0.80586 0.7411 0.53319 0.0
C829 C 0.80857 0.75686 0.51377 0.0
C830 C 0.82431 0.75909 0.49404 0.0
C831 C 0.83682 0.74543 0.49254 0.0
C832 C 0.79466 0.77072 0.51331 0.0
C833 C 0.7989 0.78788 0.52521 0.0
C834 C 0.77704 0.76676 0.50297 0.0
C835 C 0.77201 0.74924 0.48777 0.0
C836 C 0.78096 0.7423 0.45749 0.0
C837 C 0.77631 0.72569 0.44358 0.0
C838 C 0.76265 0.71595 0.45956 0.0
C839 C 0.75356 0.72281 0.48942 0.0
C840 C 0.75817 0.7394 0.50347 0.0
C841 C 0.74012 0.83813 0.50547 0.0
C842 C 0.72491 0.8339 0.52567 0.0
C843 C 0.7543 0.82621 0.50359 0.0
C844 C 0.75351 0.80996 0.52208 0.0
C845 C 0.73841 0.80585 0.54257 0.0
C846 C 0.72425 0.81771 0.54441 0.0
C847 C 0.76806 0.79686 0.51918 0.0
C848 C 0.76396 0.77984 0.50637 0.0
C849 C 0.78578 0.801 0.5285 0.0
C850 C 0.79086 0.81861 0.54309 0.0
C851 C 0.78256 0.82544 0.57422 0.0
C852 C 0.78734 0.84211 0.58764 0.0
C853 C 0.80049 0.85201 0.57031 0.0
C854 C 0.80893 0.84524 0.53958 0.0
C855 C 0.80419 0.82858 0.52603 0.0
H856 H 0.80418 0.8649 0.58074 0.0
H857 H 0.75907 0.70309 0.44875 0.0
H858 H 0.29115 0.81002 0.49977 0.0
H859 H 0.26701 0.7885 0.49745 0.0
H860 H 0.22899 0.83115 0.4903 0.0
H861 H 0.25313 0.85282 0.49326 0.0
H862 H 0.21881 0.80664 0.53872 0.0
H863 H 0.23923 0.80645 0.41604 0.0
H864 H 0.26127 0.80446 0.3669 0.0
H865 H 0.27449 0.75144 0.39963 0.0
H866 H 0.2527 0.7532 0.44931 0.0
H867 H 0.14653 0.75 0.49343 0.0
H868 H 0.16921 0.77317 0.49147 0.0
H869 H 0.2101 0.73343 0.50165 0.0
H870 H 0.18752 0.71019 0.50327 0.0
H871 H 0.21778 0.75752 0.44926 0.0
H872 H 0.19849 0.75828 0.57352 0.0
H873 H 0.17657 0.76021 0.6229 0.0
H874 H 0.16125 0.81217 0.58697 0.0
H875 H 0.18293 0.81044 0.53704 0.0
C876 C 0.27765 0.81482 0.49755 0.0
C877 C 0.274 0.83308 0.49661 0.0
C878 C 0.26388 0.80251 0.49607 0.0
C879 C 0.24623 0.80824 0.49324 0.0
C880 C 0.24253 0.82647 0.49238 0.0
C881 C 0.25632 0.83881 0.49398 0.0
C882 C 0.23164 0.79514 0.49216 0.0
C883 C 0.2184 0.79607 0.51878 0.0
C884 C 0.23136 0.78116 0.46658 0.0
C885 C 0.24443 0.78002 0.4366 0.0
C886 C 0.24693 0.79441 0.41294 0.0
C887 C 0.25936 0.79332 0.38495 0.0
C888 C 0.2693 0.77785 0.38019 0.0
C889 C 0.26679 0.76342 0.40336 0.0
C890 C 0.25439 0.76445 0.43142 0.0
C891 C 0.16035 0.74622 0.4953 0.0
C892 C 0.16528 0.72832 0.4986 0.0
C893 C 0.17328 0.75946 0.49427 0.0
C894 C 0.1913 0.755 0.4967 0.0
C895 C 0.19625 0.73712 0.49972 0.0
C896 C 0.18334 0.72389 0.50077 0.0
C897 C 0.20507 0.76895 0.496 0.0
C898 C 0.21814 0.76816 0.46903 0.0
C899 C 0.20519 0.78306 0.52124 0.0
C900 C 0.1922 0.78415 0.55132 0.0
C901 C 0.19035 0.77006 0.57597 0.0
C902 C 0.17798 0.77113 0.60409 0.0
C903 C 0.16749 0.78628 0.608 0.0
C904 C 0.16937 0.80043 0.58386 0.0
C905 C 0.1817 0.79942 0.55567 0.0
H906 H 0.15792 0.78709 0.62979 0.0
H907 H 0.27892 0.77702 0.35851 0.0
H908 H 0.28983 0.18976 0.50917 0.0
H909 H 0.26613 0.21185 0.51001 0.0
H910 H 0.22707 0.17009 0.51236 0.0
H911 H 0.25077 0.14785 0.51106 0.0
H912 H 0.21811 0.19657 0.46533 0.0
H913 H 0.2373 0.19186 0.58891 0.0
H914 H 0.25918 0.19164 0.63852 0.0
H915 H 0.27376 0.24529 0.61346 0.0
H916 H 0.25214 0.24574 0.56333 0.0
H917 H 0.14586 0.25181 0.51352 0.0
H918 H 0.16841 0.2285 0.5148 0.0
H919 H 0.20955 0.26823 0.51627 0.0
H920 H 0.18706 0.29161 0.51571 0.0
H921 H 0.21682 0.24197 0.56266 0.0
H922 H 0.1987 0.24662 0.43828 0.0
H923 H 0.17731 0.24709 0.38779 0.0
H924 H 0.16121 0.19394 0.41342 0.0
H925 H 0.18234 0.19324 0.46441 0.0
C926 C 0.27619 0.18527 0.50974 0.0
C927 C 0.27212 0.1671 0.51027 0.0
C928 C 0.26269 0.1979 0.51036 0.0
C929 C 0.24488 0.19258 0.51181 0.0
C930 C 0.24075 0.17444 0.5114 0.0
C931 C 0.25428 0.16177 0.51072 0.0
C932 C 0.23062 0.206 0.51407 0.0
C933 C 0.21765 0.20633 0.48689 0.0
C934 C 0.23031 0.21895 0.54181 0.0
C935 C 0.2432 0.21877 0.57217 0.0
C936 C 0.24526 0.20356 0.59381 0.0
C937 C 0.2576 0.20341 0.62205 0.0
C938 C 0.26788 0.21843 0.62909 0.0
C939 C 0.2658 0.23366 0.60795 0.0
C940 C 0.25349 0.23388 0.57965 0.0
C941 C 0.15971 0.25557 0.51432 0.0
C942 C 0.16473 0.27351 0.51433 0.0
C943 C 0.17257 0.24225 0.51489 0.0
C944 C 0.19064 0.24665 0.51508 0.0
C945 C 0.19567 0.26456 0.51604 0.0
C946 C 0.18282 0.27789 0.51564 0.0
C947 C 0.20435 0.23261 0.5138 0.0
C948 C 0.21723 0.23216 0.54117 0.0
C949 C 0.20461 0.21959 0.48615 0.0
C950 C 0.19197 0.21995 0.45539 0.0
C951 C 0.1905 0.23508 0.43332 0.0
C952 C 0.17844 0.23538 0.40458 0.0
C953 C 0.16787 0.22057 0.39746 0.0
C954 C 0.16938 0.20541 0.419 0.0
C955 C 0.1814 0.20505 0.44781 0.0
H956 H 0.15854 0.22083 0.3752 0.0
H957 H 0.27743 0.21828 0.65095 0.0
H958 H 0.80907 0.28297 0.53105 0.0
H959 H 0.78854 0.25801 0.53398 0.0
H960 H 0.83258 0.22146 0.53117 0.0
H961 H 0.85325 0.24645 0.52779 0.0
H962 H 0.80725 0.21245 0.4833 0.0
H963 H 0.80939 0.22713 0.60864 0.0
H964 H 0.8083 0.24662 0.66221 0.0
H965 H 0.75431 0.26021 0.63788 0.0
H966 H 0.75515 0.24101 0.58383 0.0
H967 H 0.74885 0.13939 0.50969 0.0
H968 H 0.77285 0.16061 0.52048 0.0
H969 H 0.73498 0.20353 0.52067 0.0
H970 H 0.71095 0.18242 0.5102 0.0
H971 H 0.75951 0.20684 0.57503 0.0
H972 H 0.7588 0.19508 0.44631 0.0
H973 H 0.75983 0.17598 0.39212 0.0
H974 H 0.81136 0.15711 0.42315 0.0
H975 H 0.81052 0.17593 0.47782 0.0
C976 C 0.8144 0.26962 0.53135 0.0
C977 C 0.83274 0.26663 0.52916 0.0
C978 C 0.80266 0.25538 0.53323 0.0
C979 C 0.80907 0.2379 0.5332 0.0
C980 C 0.8274 0.23487 0.53136 0.0
C981 C 0.83917 0.24913 0.52948 0.0
C982 C 0.79648 0.22286 0.533 0.0
C983 C 0.79705 0.21098 0.50379 0.0
C984 C 0.78299 0.22119 0.5594 0.0
C985 C 0.78238 0.23271 0.592 0.0
C986 C 0.79732 0.23438 0.61454 0.0
C987 C 0.79674 0.24536 0.64503 0.0
C988 C 0.78126 0.25468 0.65341 0.0
C989 C 0.7663 0.253 0.63135 0.0
C990 C 0.76682 0.24204 0.60081 0.0
C991 C 0.74566 0.15334 0.51221 0.0
C992 C 0.72808 0.15929 0.50887 0.0
C993 C 0.75936 0.16542 0.51833 0.0
C994 C 0.75567 0.18362 0.52107 0.0
C995 C 0.73807 0.18952 0.51867 0.0
C996 C 0.72439 0.17747 0.5125 0.0
C997 C 0.77016 0.19667 0.52506 0.0
C998 C 0.76991 0.20816 0.55492 0.0
C999 C 0.78395 0.19801 0.49927 0.0
C1000 C 0.7845 0.18675 0.46635 0.0
C1001 C 0.77028 0.18675 0.44172 0.0
C1002 C 0.77084 0.17599 0.4109 0.0
C1003 C 0.78563 0.16529 0.40425 0.0
C1004 C 0.7999 0.16537 0.42837 0.0
C1005 C 0.79939 0.17609 0.45927 0.0
H1006 H 0.78604 0.15698 0.38037 0.0
H1007 H 0.78083 0.26317 0.67702 0.0
H1008 H 0.13063 0.35752 0.40667 0.0
H1009 H 0.13459 0.36567 0.34267 0.0
H1010 H 0.15337 0.31283 0.31946 0.0
H1011 H 0.14923 0.30458 0.3828 0.0
H1012 H 0.17392 0.34041 0.28787 0.0
H1013 H 0.11246 0.32186 0.30144 0.0
H1014 H 0.08259 0.32387 0.32827 0.0
H1015 H 0.07803 0.37778 0.29199 0.0
H1016 H 0.10801 0.37616 0.26539 0.0
H1017 H 0.17035 0.32801 0.10233 0.0
H1018 H 0.16402 0.3246 0.16679 0.0
H1019 H 0.1373 0.37523 0.16735 0.0
H1020 H 0.14303 0.37838 0.10234 0.0
H1021 H 0.12106 0.35309 0.21207 0.0
H1022 H 0.18072 0.37174 0.19416 0.0
H1023 H 0.21075 0.37099 0.16783 0.0
H1024 H 0.21941 0.31933 0.21343 0.0
H1025 H 0.18932 0.31966 0.2396 0.0
C1026 C 0.13579 0.34776 0.38791 0.0
C1027 C 0.13958 0.33042 0.39954 0.0
C1028 C 0.13797 0.35239 0.35146 0.0
C1029 C 0.14417 0.33979 0.32644 0.0
C1030 C 0.14857 0.32271 0.33839 0.0
C1031 C 0.14615 0.31802 0.37453 0.0
C1032 C 0.14563 0.34399 0.28746 0.0
C1033 C 0.16239 0.34311 0.27121 0.0
C1034 C 0.1306 0.34805 0.2661 0.0
C1035 C 0.11255 0.34896 0.28183 0.0
C1036 C 0.10515 0.33419 0.29947 0.0
C1037 C 0.08819 0.33525 0.31458 0.0
C1038 C 0.07844 0.35096 0.31194 0.0
C1039 C 0.08561 0.36563 0.29408 0.0
C1040 C 0.10258 0.36465 0.27898 0.0
C1041 C 0.16281 0.33824 0.11604 0.0
C1042 C 0.15731 0.35352 0.09749 0.0
C1043 C 0.15932 0.33635 0.15292 0.0
C1044 C 0.15066 0.34991 0.17211 0.0
C1045 C 0.14414 0.36468 0.15315 0.0
C1046 C 0.14739 0.36644 0.11602 0.0
C1047 C 0.14936 0.34903 0.21217 0.0
C1048 C 0.13267 0.3506 0.22868 0.0
C1049 C 0.1645 0.34585 0.23394 0.0
C1050 C 0.18271 0.34568 0.21863 0.0
C1051 C 0.18899 0.36018 0.1984 0.0
C1052 C 0.20602 0.35983 0.18352 0.0
C1053 C 0.21697 0.3451 0.1889 0.0
C1054 C 0.21091 0.33072 0.20927 0.0
C1055 C 0.19387 0.33099 0.22417 0.0
H1056 H 0.23015 0.34485 0.17734 0.0
H1057 H 0.06531 0.35175 0.32365 0.0
H1058 H 0.64264 0.13685 0.39258 0.0
H1059 H 0.63399 0.14108 0.3291 0.0
H1060 H 0.68882 0.137 0.29677 0.0
H1061 H 0.69752 0.13315 0.35982 0.0
H1062 H 0.67332 0.16346 0.26239 0.0
H1063 H 0.65961 0.10224 0.28634 0.0
H1064 H 0.64544 0.07747 0.31889 0.0
H1065 H 0.59402 0.09862 0.29374 0.0
H1066 H 0.60791 0.12366 0.26144 0.0
H1067 H 0.66333 0.15073 0.07481 0.0
H1068 H 0.66964 0.14301 0.13796 0.0
H1069 H 0.61519 0.15364 0.16634 0.0
H1070 H 0.6088 0.16142 0.10337 0.0
H1071 H 0.62952 0.12401 0.20265 0.0
H1072 H 0.64349 0.1852 0.17871 0.0
H1073 H 0.65781 0.20969 0.1455 0.0
H1074 H 0.70908 0.18816 0.17053 0.0
H1075 H 0.69504 0.1634 0.20346 0.0
C1076 C 0.65282 0.13694 0.37189 0.0
C1077 C 0.67074 0.13465 0.38113 0.0
C1078 C 0.64786 0.13925 0.33565 0.0
C1079 C 0.66075 0.13915 0.30813 0.0
C1080 C 0.67865 0.13713 0.3175 0.0
C1081 C 0.6836 0.13489 0.35359 0.0
C1082 C 0.65575 0.14119 0.26949 0.0
C1083 C 0.6639 0.15468 0.24928 0.0
C1084 C 0.64318 0.12999 0.25251 0.0
C1085 C 0.6348 0.11492 0.27181 0.0
C1086 C 0.64529 0.10168 0.28799 0.0
C1087 C 0.6373 0.08758 0.30636 0.0
C1088 C 0.61884 0.0865 0.30847 0.0
C1089 C 0.60832 0.09949 0.29213 0.0
C1090 C 0.61624 0.11363 0.27377 0.0
C1091 C 0.65262 0.15102 0.09434 0.0
C1092 C 0.63562 0.1568 0.08429 0.0
C1093 C 0.65626 0.1467 0.13039 0.0
C1094 C 0.64292 0.14801 0.15681 0.0
C1095 C 0.62566 0.1526 0.14635 0.0
C1096 C 0.62205 0.15706 0.11041 0.0
C1097 C 0.64728 0.14608 0.19569 0.0
C1098 C 0.63896 0.13272 0.21588 0.0
C1099 C 0.65973 0.15736 0.21271 0.0
C1100 C 0.66821 0.17234 0.19322 0.0
C1101 C 0.65781 0.18561 0.17689 0.0
C1102 C 0.66588 0.19955 0.15815 0.0
C1103 C 0.68434 0.20045 0.15581 0.0
C1104 C 0.69478 0.18744 0.17231 0.0
C1105 C 0.68677 0.17345 0.19104 0.0
H1106 H 0.69056 0.21124 0.14127 0.0
H1107 H 0.61269 0.07557 0.3227 0.0
H1108 H 0.87389 0.64429 0.40044 0.0
H1109 H 0.86953 0.63542 0.33707 0.0
H1110 H 0.82687 0.67322 0.32726 0.0
H1111 H 0.83138 0.68239 0.39015 0.0
H1112 H 0.82054 0.63842 0.29478 0.0
H1113 H 0.86448 0.68593 0.29984 0.0
H1114 H 0.89263 0.69894 0.32099 0.0
H1115 H 0.9214 0.65512 0.27545 0.0
H1116 H 0.89337 0.64171 0.25451 0.0
H1117 H 0.80594 0.65715 0.11397 0.0
H1118 H 0.81334 0.65976 0.17798 0.0
H1119 H 0.86187 0.63072 0.15985 0.0
H1120 H 0.85477 0.62865 0.09506 0.0
H1121 H 0.86738 0.65617 0.20758 0.0
H1122 H 0.8251 0.61007 0.19566 0.0
H1123 H 0.79761 0.59552 0.17522 0.0
H1124 H 0.76659 0.6335 0.2344 0.0
H1125 H 0.7939 0.64846 0.25477 0.0
C1126 C 0.86339 0.65046 0.38491 0.0
C1127 C 0.85299 0.66405 0.40004 0.0
C1128 C 0.86097 0.64544 0.34877 0.0
C1129 C 0.84796 0.65377 0.3276 0.0
C1130 C 0.83697 0.66666 0.34326 0.0
C1131 C 0.83958 0.6719 0.3791 0.0
C1132 C 0.8464 0.64999 0.28848 0.0
C1133 C 0.83072 0.64233 0.27562 0.0
C1134 C 0.85999 0.65455 0.26381 0.0
C1135 C 0.87683 0.66272 0.27601 0.0
C1136 C 0.8768 0.679 0.29461 0.0
C1137 C 0.89273 0.68645 0.30651 0.0
C1138 C 0.90879 0.67783 0.29967 0.0
C1139 C 0.90895 0.66176 0.2808 0.0
C1140 C 0.89305 0.65423 0.2689 0.0
C1141 C 0.8183 0.6515 0.12353 0.0
C1142 C 0.82973 0.64257 0.0997 0.0
C1143 C 0.82245 0.65289 0.16017 0.0
C1144 C 0.83789 0.64497 0.17393 0.0
C1145 C 0.84979 0.63677 0.14987 0.0
C1146 C 0.84576 0.63563 0.11292 0.0
C1147 C 0.84123 0.64503 0.21354 0.0
C1148 C 0.85727 0.65196 0.22659 0.0
C1149 C 0.82806 0.6395 0.23849 0.0
C1150 C 0.81156 0.63046 0.22656 0.0
C1151 C 0.81242 0.61539 0.20414 0.0
C1152 C 0.79687 0.60706 0.19258 0.0
C1153 C 0.78037 0.6136 0.20345 0.0
C1154 C 0.77939 0.62846 0.22599 0.0
C1155 C 0.7949 0.63686 0.23759 0.0
H1156 H 0.76834 0.60713 0.19447 0.0
H1157 H 0.92111 0.68362 0.30891 0.0
H1158 H 0.35131 0.84018 0.41167 0.0
H1159 H 0.35997 0.83557 0.34847 0.0
H1160 H 0.33384 0.88441 0.31869 0.0
H1161 H 0.32456 0.88862 0.38144 0.0
H1162 H 0.32439 0.86035 0.27428 0.0
H1163 H 0.3806 0.8792 0.31892 0.0
H1164 H 0.40655 0.87959 0.3595 0.0
H1165 H 0.41852 0.82569 0.33083 0.0
H1166 H 0.39249 0.82489 0.29044 0.0
H1167 H 0.35552 0.85288 0.09118 0.0
H1168 H 0.3518 0.86451 0.15291 0.0
H1169 H 0.36897 0.81432 0.19666 0.0
H1170 H 0.3727 0.80269 0.13555 0.0
H1171 H 0.38424 0.84271 0.23188 0.0
H1172 H 0.3258 0.82378 0.1923 0.0
H1173 H 0.29995 0.82399 0.15141 0.0
H1174 H 0.29282 0.87974 0.17043 0.0
H1175 H 0.31879 0.87988 0.21109 0.0
C1176 C 0.34765 0.85003 0.39167 0.0
C1177 C 0.33723 0.86471 0.40136 0.0
C1178 C 0.35267 0.84745 0.35557 0.0
C1179 C 0.3477 0.85973 0.32873 0.0
C1180 C 0.3378 0.87471 0.33878 0.0
C1181 C 0.33254 0.87713 0.37467 0.0
C1182 C 0.35166 0.85633 0.28989 0.0
C1183 C 0.33758 0.85687 0.26498 0.0
C1184 C 0.3688 0.85152 0.27764 0.0
C1185 C 0.3845 0.85195 0.30185 0.0
C1186 C 0.38869 0.86739 0.32146 0.0
C1187 C 0.40343 0.86769 0.3444 0.0
C1188 C 0.41415 0.85266 0.3478 0.0
C1189 C 0.41019 0.83732 0.32819 0.0
C1190 C 0.39546 0.83694 0.30523 0.0
C1191 C 0.35854 0.84439 0.11401 0.0
C1192 C 0.36429 0.82686 0.10858 0.0
C1193 C 0.35641 0.85103 0.14919 0.0
C1194 C 0.36006 0.84023 0.17932 0.0
C1195 C 0.36615 0.82288 0.17381 0.0
C1196 C 0.36816 0.81623 0.13884 0.0
C1197 C 0.35695 0.84659 0.21676 0.0
C1198 C 0.37116 0.84653 0.24131 0.0
C1199 C 0.33999 0.852 0.22868 0.0
C1200 C 0.32435 0.85188 0.20437 0.0
C1201 C 0.31881 0.83611 0.18752 0.0
C1202 C 0.30412 0.83616 0.16444 0.0
C1203 C 0.29478 0.85188 0.15823 0.0
C1204 C 0.30009 0.86758 0.1752 0.0
C1205 C 0.31478 0.8676 0.19827 0.0
H1206 H 0.28341 0.8519 0.14036 0.0
H1207 H 0.42556 0.85292 0.36558 0.0
H1208 H 0.11765 0.69154 0.62872 0.0
H1209 H 0.12143 0.68202 0.69131 0.0
H1210 H 0.1493 0.6353 0.65501 0.0
H1211 H 0.14528 0.64466 0.59184 0.0
H1212 H 0.12672 0.62775 0.71055 0.0
H1213 H 0.1721 0.67044 0.68624 0.0
H1214 H 0.18432 0.699 0.66546 0.0
H1215 H 0.15371 0.72651 0.74588 0.0
H1216 H 0.1411 0.69811 0.7668 0.0
H1217 H 0.17509 0.60971 0.87243 0.0
H1218 H 0.16511 0.61649 0.81104 0.0
H1219 H 0.13384 0.66001 0.85202 0.0
H1220 H 0.14366 0.65314 0.91387 0.0
H1221 H 0.15685 0.66917 0.79495 0.0
H1222 H 0.11282 0.62542 0.82124 0.0
H1223 H 0.10161 0.59643 0.8418 0.0
H1224 H 0.13108 0.57034 0.75773 0.0
H1225 H 0.14269 0.59918 0.73697 0.0
C1226 C 0.12452 0.67918 0.63397 0.0
C1227 C 0.13132 0.66891 0.60539 0.0
C1228 C 0.12669 0.67379 0.6698 0.0
C1229 C 0.13589 0.6581 0.67786 0.0
C1230 C 0.14221 0.64748 0.64936 0.0
C1231 C 0.13996 0.65286 0.61334 0.0
C1232 C 0.13938 0.6532 0.7161 0.0
C1233 C 0.13349 0.63671 0.72892 0.0
C1234 C 0.1479 0.66506 0.74023 0.0
C1235 C 0.15551 0.68216 0.72783 0.0
C1236 C 0.16787 0.68259 0.6993 0.0
C1237 C 0.17488 0.69875 0.68753 0.0
C1238 C 0.16975 0.71456 0.70426 0.0
C1239 C 0.15764 0.71425 0.73289 0.0
C1240 C 0.15057 0.69812 0.74474 0.0
C1241 C 0.16589 0.62058 0.86845 0.0
C1242 C 0.16017 0.63094 0.89787 0.0
C1243 C 0.16015 0.62438 0.83339 0.0
C1244 C 0.1487 0.6387 0.82705 0.0
C1245 C 0.14265 0.64887 0.85645 0.0
C1246 C 0.14821 0.6449 0.89169 0.0
C1247 C 0.14415 0.64375 0.78943 0.0
C1248 C 0.14995 0.66027 0.77667 0.0
C1249 C 0.13571 0.63184 0.76536 0.0
C1250 C 0.12876 0.61446 0.77776 0.0
C1251 C 0.11705 0.61349 0.80733 0.0
C1252 C 0.11059 0.59709 0.81898 0.0
C1253 C 0.11566 0.58155 0.80114 0.0
C1254 C 0.12718 0.58239 0.77155 0.0
C1255 C 0.13369 0.59877 0.75981 0.0
H1256 H 0.11064 0.56886 0.81019 0.0
H1257 H 0.1752 0.72706 0.6951 0.0
H1258 H 0.35721 0.14406 0.60976 0.0
H1259 H 0.36615 0.1474 0.6733 0.0
H1260 H 0.31322 0.13358 0.70744 0.0
H1261 H 0.30419 0.13051 0.6444 0.0
H1262 H 0.32465 0.16172 0.74326 0.0
H1263 H 0.34744 0.10405 0.71431 0.0
H1264 H 0.36468 0.08212 0.67943 0.0
H1265 H 0.4127 0.11038 0.70319 0.0
H1266 H 0.3957 0.13264 0.73782 0.0
H1267 H 0.34108 0.15046 0.92926 0.0
H1268 H 0.33491 0.14094 0.86704 0.0
H1269 H 0.38526 0.16206 0.83245 0.0
H1270 H 0.39144 0.17173 0.8944 0.0
H1271 H 0.37551 0.12945 0.79751 0.0
H1272 H 0.35212 0.18765 0.82432 0.0
H1273 H 0.33476 0.20909 0.86024 0.0
H1274 H 0.2874 0.17904 0.84053 0.0
H1275 H 0.30456 0.15724 0.805 0.0
C1276 C 0.34752 0.14174 0.63087 0.0
C1277 C 0.33002 0.13705 0.62214 0.0
C1278 C 0.35265 0.14355 0.66712 0.0
C1279 C 0.34037 0.14058 0.69512 0.0
C1280 C 0.3229 0.13594 0.68632 0.0
C1281 C 0.31778 0.13417 0.65024 0.0
C1282 C 0.34549 0.14269 0.73365 0.0
C1283 C 0.33562 0.15445 0.75518 0.0
C1284 C 0.36001 0.13348 0.74908 0.0
C1285 C 0.37027 0.12011 0.72834 0.0
C1286 C 0.36166 0.10568 0.71184 0.0
C1287 C 0.37139 0.09317 0.69217 0.0
C1288 C 0.38977 0.09489 0.68901 0.0
C1289 C 0.39846 0.10909 0.70561 0.0
C1290 C 0.38878 0.12164 0.72529 0.0
C1291 C 0.35101 0.15267 0.90856 0.0
C1292 C 0.36665 0.16198 0.9165 0.0
C1293 C 0.34746 0.14728 0.87307 0.0
C1294 C 0.35957 0.151 0.8452 0.0
C1295 C 0.37577 0.15909 0.85362 0.0
C1296 C 0.37923 0.16466 0.88896 0.0
C1297 C 0.35456 0.1483 0.80689 0.0
C1298 C 0.36449 0.13657 0.78547 0.0
C1299 C 0.34005 0.15748 0.79148 0.0
C1300 C 0.32966 0.17071 0.81236 0.0
C1301 C 0.33803 0.18554 0.82789 0.0
C1302 C 0.32823 0.19776 0.84815 0.0
C1303 C 0.31 0.1954 0.85276 0.0
C1304 C 0.30153 0.18083 0.837 0.0
C1305 C 0.31128 0.16854 0.8168 0.0
H1306 H 0.30243 0.20487 0.86847 0.0
H1307 H 0.39728 0.08519 0.67377 0.0
H1308 H 0.80254 0.37757 0.88782 0.0
H1309 H 0.81106 0.37313 0.82478 0.0
H1310 H 0.86055 0.34986 0.85915 0.0
H1311 H 0.85224 0.3547 0.92267 0.0
H1312 H 0.86539 0.37104 0.80125 0.0
H1313 H 0.82595 0.32398 0.8335 0.0
H1314 H 0.79861 0.3106 0.85764 0.0
H1315 H 0.76794 0.33724 0.77616 0.0
H1316 H 0.79509 0.35108 0.75194 0.0
H1317 H 0.88339 0.32121 0.64109 0.0
H1318 H 0.87734 0.3318 0.70239 0.0
H1319 H 0.83038 0.35856 0.6641 0.0
H1320 H 0.83641 0.34803 0.60244 0.0
H1321 H 0.82432 0.33665 0.72321 0.0
H1322 H 0.86489 0.38263 0.68951 0.0
H1323 H 0.8928 0.3949 0.66553 0.0
H1324 H 0.92204 0.3686 0.74961 0.0
H1325 H 0.89431 0.35595 0.77381 0.0
C1326 C 0.81529 0.37158 0.88201 0.0
C1327 C 0.82667 0.36631 0.91015 0.0
C1328 C 0.82012 0.36902 0.84595 0.0
C1329 C 0.83629 0.36087 0.83727 0.0
C1330 C 0.84797 0.35612 0.86528 0.0
C1331 C 0.8432 0.35883 0.9015 0.0
C1332 C 0.84066 0.35682 0.79899 0.0
C1333 C 0.85651 0.36335 0.78428 0.0
C1334 C 0.82891 0.34705 0.77668 0.0
C1335 C 0.81254 0.33871 0.79113 0.0
C1336 C 0.81336 0.32711 0.82091 0.0
C1337 C 0.79789 0.31942 0.83459 0.0
C1338 C 0.78154 0.32308 0.81847 0.0
C1339 C 0.78062 0.33443 0.78864 0.0
C1340 C 0.79604 0.34221 0.77493 0.0
C1341 C 0.8719 0.32955 0.64562 0.0
C1342 C 0.86033 0.33377 0.61705 0.0
C1343 C 0.86851 0.33564 0.68062 0.0
C1344 C 0.85347 0.34602 0.68771 0.0
C1345 C 0.84209 0.35059 0.6591 0.0
C1346 C 0.84557 0.34463 0.62394 0.0
C1347 C 0.84899 0.35095 0.72543 0.0
C1348 C 0.83313 0.34447 0.7401 0.0
C1349 C 0.86082 0.36059 0.7477 0.0
C1350 C 0.87752 0.36821 0.73328 0.0
C1351 C 0.87728 0.37934 0.70272 0.0
C1352 C 0.89307 0.38638 0.68912 0.0
C1353 C 0.90919 0.3825 0.70599 0.0
C1354 C 0.90954 0.37158 0.73655 0.0
C1355 C 0.89379 0.36449 0.75024 0.0
H1356 H 0.9214 0.38797 0.69542 0.0
H1357 H 0.76957 0.31708 0.82901 0.0
H1358 H 0.60586 0.82235 0.90619 0.0
H1359 H 0.61028 0.83097 0.84318 0.0
H1360 H 0.65454 0.86375 0.87448 0.0
H1361 H 0.65015 0.85521 0.93798 0.0
H1362 H 0.6335 0.87886 0.81939 0.0
H1363 H 0.66316 0.82407 0.84577 0.0
H1364 H 0.66569 0.79345 0.86866 0.0
H1365 H 0.6264 0.77621 0.79229 0.0
H1366 H 0.62343 0.8068 0.7693 0.0
H1367 H 0.68162 0.87956 0.65423 0.0
H1368 H 0.67161 0.87629 0.71671 0.0
H1369 H 0.62885 0.84258 0.68104 0.0
H1370 H 0.63885 0.84578 0.61815 0.0
H1371 H 0.64774 0.82843 0.73792 0.0
H1372 H 0.61979 0.88365 0.70896 0.0
H1373 H 0.61836 0.91433 0.68607 0.0
H1374 H 0.65569 0.93088 0.76706 0.0
H1375 H 0.65755 0.90023 0.79012 0.0
C1376 C 0.61635 0.83165 0.89981 0.0
C1377 C 0.62781 0.83797 0.92692 0.0
C1378 C 0.61886 0.83653 0.86379 0.0
C1379 C 0.63291 0.84774 0.8542 0.0
C1380 C 0.64366 0.85503 0.88143 0.0
C1381 C 0.64115 0.85013 0.91762 0.0
C1382 C 0.63717 0.85061 0.81556 0.0
C1383 C 0.63678 0.86789 0.80159 0.0
C1384 C 0.64115 0.8362 0.79236 0.0
C1385 C 0.64292 0.81777 0.80609 0.0
C1386 C 0.65494 0.81378 0.83408 0.0
C1387 C 0.65648 0.79642 0.84703 0.0
C1388 C 0.64618 0.7829 0.83201 0.0
C1389 C 0.63435 0.7867 0.80394 0.0
C1390 C 0.63273 0.80405 0.79093 0.0
C1391 C 0.67001 0.87154 0.65962 0.0
C1392 C 0.66101 0.86289 0.63136 0.0
C1393 C 0.66425 0.86977 0.69532 0.0
C1394 C 0.6494 0.85933 0.70342 0.0
C1395 C 0.64031 0.85075 0.67525 0.0
C1396 C 0.646 0.85261 0.63942 0.0
C1397 C 0.64401 0.85669 0.74157 0.0
C1398 C 0.64429 0.83941 0.75556 0.0
C1399 C 0.64007 0.87113 0.76476 0.0
C1400 C 0.63892 0.8896 0.75107 0.0
C1401 C 0.6278 0.8938 0.72171 0.0
C1402 C 0.6269 0.91119 0.70874 0.0
C1403 C 0.63696 0.92453 0.72505 0.0
C1404 C 0.64792 0.92052 0.75443 0.0
C1405 C 0.64888 0.90314 0.76749 0.0
H1406 H 0.63624 0.93799 0.71497 0.0
H1407 H 0.6474 0.76947 0.84205 0.0
H1408 H 0.88802 0.67564 0.62092 0.0
H1409 H 0.88365 0.66529 0.6829 0.0
H1410 H 0.83813 0.63502 0.6486 0.0
H1411 H 0.84234 0.6455 0.5864 0.0
H1412 H 0.83058 0.65584 0.70549 0.0
H1413 H 0.87604 0.61429 0.67506 0.0
H1414 H 0.90506 0.6044 0.65189 0.0
H1415 H 0.93147 0.63518 0.73349 0.0
H1416 H 0.9026 0.64547 0.75685 0.0
H1417 H 0.81417 0.61384 0.87076 0.0
H1418 H 0.82366 0.6175 0.80812 0.0
H1419 H 0.86565 0.6524 0.84272 0.0
H1420 H 0.85619 0.64878 0.90598 0.0
H1421 H 0.87551 0.62823 0.78593 0.0
H1422 H 0.83015 0.67087 0.81396 0.0
H1423 H 0.80115 0.68064 0.83747 0.0
H1424 H 0.77465 0.64767 0.75964 0.0
H1425 H 0.80353 0.63748 0.73604 0.0
C1426 C 0.87723 0.66656 0.62645 0.0
C1427 C 0.86545 0.66143 0.59888 0.0
C1428 C 0.87481 0.66059 0.66187 0.0
C1429 C 0.86062 0.64931 0.67033 0.0
C1430 C 0.84918 0.6437 0.6426 0.0
C1431 C 0.85161 0.64965 0.6071 0.0
C1432 C 0.85685 0.64468 0.70855 0.0
C1433 C 0.8403 0.6495 0.72285 0.0
C1434 C 0.86975 0.63693 0.73149 0.0
C1435 C 0.88714 0.63079 0.71749 0.0
C1436 C 0.88804 0.61908 0.68787 0.0
C1437 C 0.90446 0.61338 0.67474 0.0
C1438 C 0.9201 0.61919 0.69115 0.0
C1439 C 0.91935 0.6307 0.72078 0.0
C1440 C 0.90295 0.63646 0.734 0.0
C1441 C 0.82556 0.62214 0.86519 0.0
C1442 C 0.83434 0.63119 0.89322 0.0
C1443 C 0.83096 0.6242 0.82937 0.0
C1444 C 0.8452 0.63537 0.82085 0.0
C1445 C 0.85461 0.64373 0.84886 0.0
C1446 C 0.84917 0.6417 0.88488 0.0
C1447 C 0.84925 0.63929 0.78251 0.0
C1448 C 0.86581 0.63445 0.76834 0.0
C1449 C 0.8364 0.64706 0.75957 0.0
C1450 C 0.81901 0.65328 0.77349 0.0
C1451 C 0.81815 0.66559 0.80206 0.0
C1452 C 0.80173 0.67122 0.81537 0.0
C1453 C 0.78607 0.66474 0.80012 0.0
C1454 C 0.7868 0.65265 0.77146 0.0
C1455 C 0.80318 0.64695 0.75809 0.0
H1456 H 0.77337 0.66911 0.81046 0.0
H1457 H 0.9328 0.61475 0.68095 0.0
H1458 H 0.3117 0.87261 0.6343 0.0
H1459 H 0.32139 0.86678 0.69618 0.0
H1460 H 0.36802 0.84023 0.65561 0.0
H1461 H 0.35838 0.84612 0.5932 0.0
H1462 H 0.34959 0.82102 0.70868 0.0
H1463 H 0.37272 0.87971 0.69251 0.0
H1464 H 0.37135 0.91135 0.67594 0.0
H1465 H 0.33181 0.92026 0.75759 0.0
H1466 H 0.33275 0.8886 0.77432 0.0
H1467 H 0.38779 0.80946 0.88045 0.0
H1468 H 0.3834 0.81882 0.81786 0.0
H1469 H 0.33974 0.85207 0.85115 0.0
H1470 H 0.34451 0.84316 0.91429 0.0
H1471 H 0.35849 0.86827 0.80051 0.0
H1472 H 0.33303 0.81043 0.81402 0.0
H1473 H 0.33252 0.77875 0.83053 0.0
H1474 H 0.37402 0.76814 0.75393 0.0
H1475 H 0.37496 0.79983 0.73731 0.0
C1476 C 0.32407 0.86561 0.63848 0.0
C1477 C 0.33429 0.8598 0.60892 0.0
C1478 C 0.32963 0.86237 0.67387 0.0
C1479 C 0.34549 0.85322 0.68044 0.0
C1480 C 0.35576 0.84738 0.65103 0.0
C1481 C 0.35027 0.85077 0.61548 0.0
C1482 C 0.35083 0.84916 0.71812 0.0
C1483 C 0.3519 0.83133 0.72863 0.0
C1484 C 0.35322 0.86266 0.7443 0.0
C1485 C 0.35271 0.88174 0.73447 0.0
C1486 C 0.36364 0.88838 0.70675 0.0
C1487 C 0.36295 0.90633 0.69736 0.0
C1488 C 0.35148 0.9178 0.71565 0.0
C1489 C 0.34069 0.91135 0.74343 0.0
C1490 C 0.34131 0.89341 0.75291 0.0
C1491 C 0.37734 0.81888 0.87449 0.0
C1492 C 0.36637 0.82547 0.90215 0.0
C1493 C 0.3748 0.82416 0.83867 0.0
C1494 C 0.36099 0.83584 0.82966 0.0
C1495 C 0.35043 0.84298 0.85745 0.0
C1496 C 0.35313 0.83787 0.89347 0.0
C1497 C 0.35723 0.84009 0.79117 0.0
C1498 C 0.35637 0.85794 0.78051 0.0
C1499 C 0.35478 0.82661 0.76488 0.0
C1500 C 0.35419 0.80753 0.7747 0.0
C1501 C 0.34214 0.80137 0.80089 0.0
C1502 C 0.34176 0.78341 0.81024 0.0
C1503 C 0.35326 0.77145 0.79336 0.0
C1504 C 0.36514 0.77743 0.76702 0.0
C1505 C 0.36559 0.79538 0.75761 0.0
H1506 H 0.35295 0.75755 0.80064 0.0
H1507 H 0.35097 0.93169 0.70834 0.0
H1508 H 0.13924 0.36112 0.59054 0.0
H1509 H 0.14077 0.37272 0.65257 0.0
H1510 H 0.11947 0.32347 0.69311 0.0
H1511 H 0.11743 0.3121 0.63155 0.0
H1512 H 0.1053 0.35012 0.7287 0.0
H1513 H 0.16473 0.33282 0.69323 0.0
H1514 H 0.19151 0.33361 0.65494 0.0
H1515 H 0.19738 0.38931 0.67603 0.0
H1516 H 0.17049 0.38888 0.71411 0.0
H1517 H 0.14008 0.34184 0.90684 0.0
H1518 H 0.13038 0.33983 0.84375 0.0
H1519 H 0.15117 0.39217 0.82323 0.0
H1520 H 0.16109 0.39416 0.88606 0.0
H1521 H 0.1639 0.36877 0.7761 0.0
H1522 H 0.10653 0.38429 0.82028 0.0
H1523 H 0.08032 0.38236 0.85995 0.0
H1524 H 0.07092 0.32901 0.82411 0.0
H1525 H 0.09722 0.33052 0.78458 0.0
C1526 C 0.13479 0.35286 0.61273 0.0
C1527 C 0.12834 0.33567 0.60626 0.0
C1528 C 0.1357 0.35947 0.64812 0.0
C1529 C 0.13041 0.34888 0.67755 0.0
C1530 C 0.12357 0.3319 0.6709 0.0
C1531 C 0.12252 0.32538 0.63566 0.0
C1532 C 0.13271 0.35494 0.71551 0.0
C1533 C 0.11812 0.35414 0.73914 0.0
C1534 C 0.14933 0.3606 0.72895 0.0
C1535 C 0.16549 0.36086 0.70612 0.0
C1536 C 0.17166 0.34526 0.68947 0.0
C1537 C 0.18687 0.34564 0.66785 0.0
C1538 C 0.19611 0.36151 0.66295 0.0
C1539 C 0.19019 0.37703 0.67977 0.0
C1540 C 0.17497 0.37673 0.70138 0.0
C1541 C 0.14221 0.35307 0.88908 0.0
C1542 C 0.15145 0.36809 0.90126 0.0
C1543 C 0.13662 0.35194 0.85306 0.0
C1544 C 0.14003 0.36588 0.82878 0.0
C1545 C 0.14844 0.38126 0.84147 0.0
C1546 C 0.15407 0.38238 0.87739 0.0
C1547 C 0.13658 0.36362 0.78952 0.0
C1548 C 0.15098 0.36509 0.76562 0.0
C1549 C 0.11983 0.35843 0.77598 0.0
C1550 C 0.10394 0.35749 0.79963 0.0
C1551 C 0.09895 0.3721 0.82104 0.0
C1552 C 0.08406 0.37108 0.84348 0.0
C1553 C 0.07397 0.35556 0.8446 0.0
C1554 C 0.07874 0.34102 0.82322 0.0
C1555 C 0.09363 0.34196 0.80075 0.0
H1556 H 0.06245 0.3548 0.86199 0.0
H1557 H 0.20788 0.36178 0.64621 0.0
H1558 H 0.64137 0.13809 0.89534 0.0
H1559 H 0.64502 0.12811 0.83251 0.0
H1560 H 0.6327 0.18078 0.79453 0.0
H1561 H 0.62913 0.19085 0.85701 0.0
H1562 H 0.61545 0.15402 0.75524 0.0
H1563 H 0.67431 0.16861 0.79795 0.0
H1564 H 0.69974 0.16644 0.83968 0.0
H1565 H 0.70407 0.11068 0.81762 0.0
H1566 H 0.67848 0.11249 0.77611 0.0
H1567 H 0.65051 0.15438 0.57626 0.0
H1568 H 0.64133 0.15963 0.63893 0.0
H1569 H 0.66294 0.10882 0.66989 0.0
H1570 H 0.67266 0.10384 0.60765 0.0
H1571 H 0.67426 0.1325 0.71412 0.0
H1572 H 0.61708 0.1177 0.66799 0.0
H1573 H 0.59139 0.1192 0.62683 0.0
H1574 H 0.58318 0.1738 0.65543 0.0
H1575 H 0.60898 0.1727 0.69641 0.0
C1576 C 0.6394 0.14751 0.87356 0.0
C1577 C 0.63508 0.16526 0.88104 0.0
C1578 C 0.64148 0.1418 0.83775 0.0
C1579 C 0.63918 0.15374 0.80895 0.0
C1580 C 0.63448 0.17136 0.81638 0.0
C1581 C 0.63256 0.1771 0.85209 0.0
C1582 C 0.64228 0.14814 0.77103 0.0
C1583 C 0.62832 0.14941 0.74606 0.0
C1584 C 0.65895 0.14172 0.75945 0.0
C1585 C 0.67437 0.14065 0.78427 0.0
C1586 C 0.68059 0.15586 0.80224 0.0
C1587 C 0.69505 0.15471 0.82581 0.0
C1588 C 0.70348 0.13843 0.83139 0.0
C1589 C 0.6975 0.12328 0.81333 0.0
C1590 C 0.68303 0.12436 0.78977 0.0
C1591 C 0.65301 0.14422 0.59635 0.0
C1592 C 0.66235 0.12875 0.58717 0.0
C1593 C 0.64771 0.14719 0.63216 0.0
C1594 C 0.65135 0.13457 0.65921 0.0
C1595 C 0.66004 0.11879 0.64961 0.0
C1596 C 0.66554 0.11593 0.614 0.0
C1597 C 0.64741 0.13838 0.69788 0.0
C1598 C 0.66127 0.13686 0.72312 0.0
C1599 C 0.63059 0.14443 0.70969 0.0
C1600 C 0.61507 0.14515 0.68504 0.0
C1601 C 0.60988 0.13007 0.66529 0.0
C1602 C 0.59528 0.13084 0.64203 0.0
C1603 C 0.58568 0.14659 0.63846 0.0
C1604 C 0.59064 0.1616 0.6582 0.0
C1605 C 0.60524 0.16091 0.68148 0.0
H1606 H 0.57438 0.14716 0.62044 0.0
H1607 H 0.71467 0.13756 0.84963 0.0
H1608 H 0.86332 0.30068 0.38778 0.0
H1609 H 0.85989 0.31041 0.32516 0.0
H1610 H 0.84774 0.36336 0.36194 0.0
H1611 H 0.85107 0.35366 0.42499 0.0
H1612 H 0.82474 0.35147 0.30952 0.0
H1613 H 0.88779 0.35454 0.3267 0.0
H1614 H 0.91711 0.34295 0.34436 0.0
H1615 H 0.9129 0.30198 0.26404 0.0
H1616 H 0.88342 0.31317 0.24625 0.0
H1617 H 0.82504 0.38986 0.13782 0.0
H1618 H 0.83401 0.3837 0.20008 0.0
H1619 H 0.85171 0.33155 0.16802 0.0
H1620 H 0.84347 0.33804 0.10512 0.0
H1621 H 0.8728 0.34417 0.2189 0.0
H1622 H 0.80976 0.33878 0.20443 0.0
H1623 H 0.77983 0.34874 0.18685 0.0
H1624 H 0.78326 0.39201 0.26215 0.0
H1625 H 0.81333 0.38244 0.27983 0.0
C1626 C 0.85989 0.3144 0.3826 0.0
C1627 C 0.85747 0.32643 0.41127 0.0
C1628 C 0.85805 0.31996 0.34678 0.0
C1629 C 0.85382 0.33766 0.33892 0.0
C1630 C 0.85111 0.34966 0.36749 0.0
C1631 C 0.85301 0.34411 0.40342 0.0
C1632 C 0.85179 0.34345 0.30084 0.0
C1633 C 0.83534 0.35018 0.28983 0.0
C1634 C 0.86549 0.34123 0.275 0.0
C1635 C 0.88332 0.33462 0.28534 0.0
C1636 C 0.89306 0.34299 0.31296 0.0
C1637 C 0.90972 0.3365 0.32297 0.0
C1638 C 0.91685 0.32171 0.30539 0.0
C1639 C 0.90735 0.31342 0.27766 0.0
C1640 C 0.89068 0.31985 0.26757 0.0
C1641 C 0.83112 0.37719 0.14398 0.0
C1642 C 0.8334 0.36433 0.11688 0.0
C1643 C 0.83616 0.37365 0.17956 0.0
C1644 C 0.84305 0.35697 0.18892 0.0
C1645 C 0.8463 0.34447 0.16146 0.0
C1646 C 0.84159 0.34816 0.12559 0.0
C1647 C 0.84572 0.35222 0.22754 0.0
C1648 C 0.86225 0.34561 0.23864 0.0
C1649 C 0.83202 0.35433 0.25347 0.0
C1650 C 0.81386 0.35998 0.2432 0.0
C1651 C 0.80417 0.35047 0.21709 0.0
C1652 C 0.78718 0.35605 0.20711 0.0
C1653 C 0.77967 0.37103 0.22331 0.0
C1654 C 0.78911 0.38043 0.24959 0.0
C1655 C 0.80612 0.37493 0.25963 0.0
H1656 H 0.76651 0.37533 0.21554 0.0
H1657 H 0.92974 0.3167 0.31321 0.0
H1658 H 0.64692 0.80434 0.15007 0.0
H1659 H 0.64774 0.81269 0.2138 0.0
H1660 H 0.63076 0.86565 0.18631 0.0
H1661 H 0.63011 0.85739 0.12197 0.0
H1662 H 0.65661 0.86555 0.23881 0.0
H1663 H 0.60103 0.83753 0.21896 0.0
H1664 H 0.58069 0.81442 0.19654 0.0
H1665 H 0.60557 0.77599 0.26567 0.0
H1666 H 0.62627 0.7988 0.28809 0.0
H1667 H 0.64262 0.88225 0.42537 0.0
H1668 H 0.63413 0.87837 0.3619 0.0
H1669 H 0.65277 0.82429 0.36514 0.0
H1670 H 0.66123 0.82804 0.42859 0.0
H1671 H 0.62196 0.82834 0.3242 0.0
H1672 H 0.67997 0.85581 0.33653 0.0
H1673 H 0.70019 0.87897 0.35928 0.0
H1674 H 0.66979 0.91891 0.30434 0.0
H1675 H 0.64924 0.89597 0.28161 0.0
C1676 C 0.64353 0.81782 0.15748 0.0
C1677 C 0.63832 0.83019 0.1311 0.0
C1678 C 0.64391 0.82255 0.19393 0.0
C1679 C 0.63893 0.83967 0.2048 0.0
C1680 C 0.63451 0.85233 0.17843 0.0
C1681 C 0.63417 0.8476 0.14177 0.0
C1682 C 0.63803 0.84401 0.24386 0.0
C1683 C 0.64875 0.85767 0.25741 0.0
C1684 C 0.62785 0.83362 0.26811 0.0
C1685 C 0.61529 0.81987 0.25504 0.0
C1686 C 0.60225 0.82412 0.22922 0.0
C1687 C 0.59064 0.81108 0.21652 0.0
C1688 C 0.59186 0.79375 0.22963 0.0
C1689 C 0.60465 0.78943 0.25553 0.0
C1690 C 0.61631 0.80242 0.26828 0.0
C1691 C 0.64453 0.86941 0.41279 0.0
C1692 C 0.65274 0.85548 0.43177 0.0
C1693 C 0.63974 0.86724 0.37653 0.0
C1694 C 0.64309 0.85113 0.35877 0.0
C1695 C 0.65012 0.83684 0.37839 0.0
C1696 C 0.65497 0.839 0.4146 0.0
C1697 C 0.64085 0.84956 0.31911 0.0
C1698 C 0.62954 0.83642 0.30549 0.0
C1699 C 0.65041 0.86048 0.29479 0.0
C1700 C 0.66297 0.87422 0.3077 0.0
C1701 C 0.67755 0.86955 0.32946 0.0
C1702 C 0.68907 0.88262 0.34233 0.0
C1703 C 0.68624 0.9004 0.33335 0.0
C1704 C 0.67194 0.90513 0.31132 0.0
C1705 C 0.66036 0.8921 0.29841 0.0
H1706 H 0.69516 0.91049 0.34341 0.0
H1707 H 0.58286 0.78366 0.21976 0.0
H1708 H 0.12072 0.68796 0.37083 0.0
H1709 H 0.12574 0.67669 0.30977 0.0
H1710 H 0.15613 0.63314 0.35323 0.0
H1711 H 0.15107 0.64437 0.41487 0.0
H1712 H 0.17287 0.65094 0.29615 0.0
H1713 H 0.11629 0.62483 0.32082 0.0
H1714 H 0.08506 0.62471 0.3405 0.0
H1715 H 0.07174 0.66122 0.25553 0.0
H1716 H 0.10295 0.66176 0.23565 0.0
H1717 H 0.18332 0.61002 0.12661 0.0
H1718 H 0.17512 0.61498 0.18971 0.0
H1719 H 0.13767 0.6551 0.15646 0.0
H1720 H 0.14535 0.6496 0.09288 0.0
H1721 H 0.1243 0.63677 0.21025 0.0
H1722 H 0.18013 0.66547 0.18867 0.0
H1723 H 0.21132 0.66742 0.16907 0.0
H1724 H 0.22602 0.62833 0.2481 0.0
H1725 H 0.19486 0.62597 0.26786 0.0
C1726 C 0.1284 0.67593 0.36748 0.0
C1727 C 0.13553 0.66704 0.39761 0.0
C1728 C 0.13117 0.66946 0.33256 0.0
C1729 C 0.14115 0.65401 0.32703 0.0
C1730 C 0.14831 0.64506 0.35702 0.0
C1731 C 0.1454 0.65146 0.39213 0.0
C1732 C 0.1447 0.64777 0.28969 0.0
C1733 C 0.1623 0.64748 0.27752 0.0
C1734 C 0.13082 0.64384 0.2652 0.0
C1735 C 0.112 0.64343 0.27692 0.0
C1736 C 0.10673 0.63293 0.30649 0.0
C1737 C 0.08902 0.63278 0.31766 0.0
C1738 C 0.07643 0.64298 0.29933 0.0
C1739 C 0.08151 0.65333 0.26972 0.0
C1740 C 0.0992 0.65355 0.25846 0.0
C1741 C 0.17323 0.61981 0.13273 0.0
C1742 C 0.16509 0.62957 0.10494 0.0
C1743 C 0.16861 0.62268 0.16883 0.0
C1744 C 0.15609 0.63572 0.17796 0.0
C1745 C 0.14744 0.64503 0.1501 0.0
C1746 C 0.15184 0.64192 0.11382 0.0
C1747 C 0.15251 0.64004 0.21653 0.0
C1748 C 0.13491 0.64004 0.22892 0.0
C1749 C 0.16638 0.64395 0.24118 0.0
C1750 C 0.18514 0.64542 0.22948 0.0
C1751 C 0.19 0.6572 0.2017 0.0
C1752 C 0.20767 0.65839 0.19058 0.0
C1753 C 0.22064 0.64797 0.20726 0.0
C1754 C 0.21596 0.63637 0.23517 0.0
C1755 C 0.19829 0.63511 0.24636 0.0
H1756 H 0.23431 0.64891 0.19861 0.0
H1757 H 0.06272 0.64284 0.30802 0.0
H1758 H 0.34996 0.16176 0.42841 0.0
H1759 H 0.35862 0.16876 0.36592 0.0
H1760 H 0.33074 0.12243 0.32793 0.0
H1761 H 0.3219 0.11549 0.39001 0.0
H1762 H 0.36419 0.12813 0.29358 0.0
H1763 H 0.31006 0.15946 0.32359 0.0
H1764 H 0.29172 0.17955 0.36072 0.0
H1765 H 0.3284 0.22205 0.34153 0.0
H1766 H 0.34711 0.20211 0.30472 0.0
H1767 H 0.35187 0.14845 0.10742 0.0
H1768 H 0.34782 0.14006 0.17098 0.0
H1769 H 0.36608 0.1918 0.20436 0.0
H1770 H 0.36947 0.20041 0.14111 0.0
H1771 H 0.33884 0.18346 0.24241 0.0
H1772 H 0.3925 0.15337 0.21023 0.0
H1773 H 0.4117 0.13362 0.17418 0.0
H1774 H 0.37768 0.08952 0.19809 0.0
H1775 H 0.35813 0.10906 0.23391 0.0
C1776 C 0.34593 0.15294 0.40676 0.0
C1777 C 0.33516 0.13817 0.41393 0.0
C1778 C 0.35084 0.15696 0.37116 0.0
C1779 C 0.34519 0.14615 0.3424 0.0
C1780 C 0.33523 0.13091 0.34978 0.0
C1781 C 0.33013 0.12702 0.38521 0.0
C1782 C 0.34847 0.15137 0.30439 0.0
C1783 C 0.35859 0.14016 0.2822 0.0
C1784 C 0.3414 0.16722 0.28993 0.0
C1785 C 0.33008 0.17925 0.31176 0.0
C1786 C 0.31429 0.17305 0.32755 0.0
C1787 C 0.30382 0.18441 0.34848 0.0
C1788 C 0.30892 0.20205 0.35357 0.0
C1789 C 0.32448 0.20837 0.33762 0.0
C1790 C 0.33502 0.19705 0.31671 0.0
C1791 C 0.35497 0.15801 0.12838 0.0
C1792 C 0.36096 0.17508 0.11936 0.0
C1793 C 0.35279 0.15318 0.16468 0.0
C1794 C 0.3569 0.16522 0.19254 0.0
C1795 C 0.36281 0.18228 0.18342 0.0
C1796 C 0.36476 0.18718 0.14723 0.0
C1797 C 0.35469 0.16027 0.23122 0.0
C1798 C 0.34466 0.1715 0.25362 0.0
C1799 C 0.36201 0.14452 0.24589 0.0
C1800 C 0.37376 0.13272 0.22447 0.0
C1801 C 0.38904 0.13949 0.20759 0.0
C1802 C 0.4 0.12833 0.18723 0.0
C1803 C 0.39589 0.11034 0.18377 0.0
C1804 C 0.38084 0.10346 0.20075 0.0
C1805 C 0.36982 0.11457 0.22112 0.0
H1806 H 0.40439 0.10172 0.168 0.0
H1807 H 0.30079 0.21083 0.36978 0.0
loop_
_geom_bond_atom_site_label_1
_geom_bond_atom_site_label_2
_geom_bond_distance
_geom_bond_site_symmetry_2
_ccdc_geom_bond_type
In0 O1 2.294 . S
In0 O2 2.326 . S
In0 O6 2.266 1_554 S
In0 O7 2.326 1_554 S
In0 O8 2.266 1_554 S
In0 O9 2.326 . S
In0 O11 2.294 . S
In0 O12 2.326 . S
O1 In0 2.294 . S
O1 C10 1.240 . S
O2 In0 2.326 . S
O2 C10 1.252 . S
C3 O6 1.252 . S
C3 O7 1.260 . S
C4 O11 1.240 . S
C4 O12 1.252 . S
C5 O8 1.252 . S
C5 O9 1.259 1_556 S
O6 In0 2.266 1_556 S
O6 C3 1.252 . S
O7 In0 2.326 1_556 S
O7 C3 1.260 . S
O8 In0 2.266 1_556 S
O8 C5 1.252 . S
O9 In0 2.326 . S
O9 C5 1.259 1_554 S
C10 O1 1.240 . S
C10 O2 1.252 . S
O11 In0 2.294 . S
O11 C4 1.240 . S
O12 In0 2.326 . S
O12 C4 1.252 . S
In13 O14 2.294 . S
In13 O15 2.326 . S
In13 O19 2.266 1_554 S
In13 O20 2.326 1_554 S
In13 O21 2.266 1_554 S
In13 O22 2.326 . S
In13 O24 2.294 . S
In13 O25 2.326 . S
O14 In13 2.294 . S
O14 C23 1.240 . S
O15 In13 2.326 . S
O15 C23 1.252 . S
C16 O19 1.252 . S
C16 O20 1.260 . S
C17 O24 1.240 . S
C17 O25 1.252 . S
C18 O21 1.252 . S
C18 O22 1.259 1_556 S
O19 In13 2.266 1_556 S
O19 C16 1.252 . S
O20 In13 2.326 1_556 S
O20 C16 1.260 . S
O21 In13 2.266 1_556 S
O21 C18 1.252 . S
O22 In13 2.326 . S
O22 C18 1.259 1_554 S
C23 O14 1.240 . S
C23 O15 1.252 . S
O24 In13 2.294 . S
O24 C17 1.240 . S
O25 In13 2.326 . S
O25 C17 1.252 . S
In26 O27 2.294 . S
In26 O28 2.326 . S
In26 O32 2.266 1_554 S
In26 O33 2.326 . S
In26 O34 2.266 1_554 S
In26 O35 2.326 1_554 S
In26 O37 2.294 . S
In26 O38 2.326 . S
O27 In26 2.294 . S
O27 C36 1.240 . S
O28 In26 2.326 . S
O28 C36 1.252 . S
C29 O32 1.252 . S
C29 O33 1.259 1_556 S
C30 O37 1.240 . S
C30 O38 1.252 . S
C31 O34 1.252 . S
C31 O35 1.260 . S
O32 In26 2.266 1_556 S
O32 C29 1.252 . S
O33 In26 2.326 . S
O33 C29 1.259 1_554 S
O34 In26 2.266 1_556 S
O34 C31 1.252 . S
O35 In26 2.326 1_556 S
O35 C31 1.260 . S
C36 O27 1.240 . S
C36 O28 1.252 . S
O37 In26 2.294 . S
O37 C30 1.240 . S
O38 In26 2.326 . S
O38 C30 1.252 . S
In39 O40 2.294 . S
In39 O41 2.326 . S
In39 O45 2.266 1_554 S
In39 O46 2.326 1_554 S
In39 O47 2.266 1_554 S
In39 O48 2.326 . S
In39 O50 2.294 . S
In39 O51 2.326 . S
O40 In39 2.294 . S
O40 C49 1.240 . S
O41 In39 2.326 . S
O41 C49 1.252 . S
C42 O45 1.252 . S
C42 O46 1.260 . S
C43 O50 1.240 . S
C43 O51 1.252 . S
C44 O47 1.252 . S
C44 O48 1.259 1_556 S
O45 In39 2.266 1_556 S
O45 C42 1.252 . S
O46 In39 2.326 1_556 S
O46 C42 1.260 . S
O47 In39 2.266 1_556 S
O47 C44 1.252 . S
O48 In39 2.326 . S
O48 C44 1.259 1_554 S
C49 O40 1.240 . S
C49 O41 1.252 . S
O50 In39 2.294 . S
O50 C43 1.240 . S
O51 In39 2.326 . S
O51 C43 1.252 . S
In52 O53 2.294 1_554 S
In52 O54 2.326 1_554 S
In52 O58 2.266 . S
In52 O59 2.326 . S
In52 O60 2.266 . S
In52 O61 2.326 . S
In52 O63 2.292 1_554 S
In52 O64 2.326 . S
O53 In52 2.294 1_556 S
O53 C62 1.240 . S
O54 In52 2.326 1_556 S
O54 C62 1.252 . S
C55 O58 1.252 . S
C55 O59 1.260 . S
C56 O63 1.240 . S
C56 O64 1.251 1_556 S
C57 O60 1.252 . S
C57 O61 1.260 . S
O58 In52 2.266 . S
O58 C55 1.252 . S
O59 In52 2.326 . S
O59 C55 1.260 . S
O60 In52 2.266 . S
O60 C57 1.252 . S
O61 In52 2.326 . S
O61 C57 1.260 . S
C62 O53 1.240 . S
C62 O54 1.252 . S
O63 In52 2.292 1_556 S
O63 C56 1.240 . S
O64 In52 2.326 . S
O64 C56 1.251 1_554 S
In65 O66 2.292 1_554 S
In65 O67 2.326 . S
In65 O71 2.266 . S
In65 O72 2.326 . S
In65 O73 2.266 . S
In65 O74 2.326 . S
In65 O76 2.294 1_554 S
In65 O77 2.326 1_554 S
O66 In65 2.292 1_556 S
O66 C75 1.240 . S
O67 In65 2.326 . S
O67 C75 1.251 1_554 S
C68 O71 1.252 . S
C68 O72 1.260 . S
C69 O76 1.240 . S
C69 O77 1.252 . S
C70 O73 1.252 . S
C70 O74 1.260 . S
O71 In65 2.266 . S
O71 C68 1.252 . S
O72 In65 2.326 . S
O72 C68 1.260 . S
O73 In65 2.266 . S
O73 C70 1.252 . S
O74 In65 2.326 . S
O74 C70 1.260 . S
C75 O66 1.240 . S
C75 O67 1.251 1_556 S
O76 In65 2.294 1_556 S
O76 C69 1.240 . S
O77 In65 2.326 1_556 S
O77 C69 1.252 . S
In78 O79 2.294 1_554 S
In78 O80 2.326 1_554 S
In78 O84 2.266 . S
In78 O85 2.326 . S
In78 O86 2.266 . S
In78 O87 2.326 . S
In78 O89 2.292 1_554 S
In78 O90 2.326 . S
O79 In78 2.294 1_556 S
O79 C88 1.240 . S
O80 In78 2.326 1_556 S
O80 C88 1.252 . S
C81 O84 1.252 . S
C81 O85 1.260 . S
C82 O89 1.240 . S
C82 O90 1.251 1_556 S
C83 O86 1.252 . S
C83 O87 1.260 . S
O84 In78 2.266 . S
O84 C81 1.252 . S
O85 In78 2.326 . S
O85 C81 1.260 . S
O86 In78 2.266 . S
O86 C83 1.252 . S
O87 In78 2.326 . S
O87 C83 1.260 . S
C88 O79 1.240 . S
C88 O80 1.252 . S
O89 In78 2.292 1_556 S
O89 C82 1.240 . S
O90 In78 2.326 . S
O90 C82 1.251 1_554 S
In91 O92 2.294 1_554 S
In91 O93 2.326 1_554 S
In91 O97 2.266 . S
In91 O98 2.326 . S
In91 O99 2.266 . S
In91 O100 2.326 . S
In91 O102 2.292 1_554 S
In91 O103 2.326 . S
O92 In91 2.294 1_556 S
O92 C101 1.240 . S
O93 In91 2.326 1_556 S
O93 C101 1.252 . S
C94 O97 1.252 . S
C94 O98 1.260 . S
C95 O102 1.240 . S
C95 O103 1.251 1_556 S
C96 O99 1.252 . S
C96 O100 1.260 . S
O97 In91 2.266 . S
O97 C94 1.252 . S
O98 In91 2.326 . S
O98 C94 1.260 . S
O99 In91 2.266 . S
O99 C96 1.252 . S
O100 In91 2.326 . S
O100 C96 1.260 . S
C101 O92 1.240 . S
C101 O93 1.252 . S
O102 In91 2.292 1_556 S
O102 C95 1.240 . S
O103 In91 2.326 . S
O103 C95 1.251 1_554 S
In104 O105 2.294 . S
In104 O106 2.326 . S
In104 O110 2.266 . S
In104 O111 2.326 . S
In104 O112 2.266 . S
In104 O113 2.326 . S
In104 O115 2.294 . S
In104 O116 2.326 . S
O105 In104 2.294 . S
O105 C114 1.240 . S
O106 In104 2.326 . S
O106 C114 1.252 . S
C107 O110 1.252 . S
C107 O111 1.260 . S
C108 O115 1.240 . S
C108 O116 1.252 . S
C109 O112 1.252 . S
C109 O113 1.260 . S
O110 In104 2.266 . S
O110 C107 1.252 . S
O111 In104 2.326 . S
O111 C107 1.260 . S
O112 In104 2.266 . S
O112 C109 1.252 . S
O113 In104 2.326 . S
O113 C109 1.260 . S
C114 O105 1.240 . S
C114 O106 1.252 . S
O115 In104 2.294 . S
O115 C108 1.240 . S
O116 In104 2.326 . S
O116 C108 1.252 . S
In117 O118 2.294 . S
In117 O119 2.326 . S
In117 O123 2.266 . S
In117 O124 2.326 . S
In117 O125 2.266 . S
In117 O126 2.326 . S
In117 O128 2.294 . S
In117 O129 2.326 . S
O118 In117 2.294 . S
O118 C127 1.240 . S
O119 In117 2.326 . S
O119 C127 1.252 . S
C120 O123 1.252 . S
C120 O124 1.260 . S
C121 O128 1.240 . S
C121 O129 1.252 . S
C122 O125 1.252 . S
C122 O126 1.260 . S
O123 In117 2.266 . S
O123 C120 1.252 . S
O124 In117 2.326 . S
O124 C120 1.260 . S
O125 In117 2.266 . S
O125 C122 1.252 . S
O126 In117 2.326 . S
O126 C122 1.260 . S
C127 O118 1.240 . S
C127 O119 1.252 . S
O128 In117 2.294 . S
O128 C121 1.240 . S
O129 In117 2.326 . S
O129 C121 1.252 . S
In130 O131 2.294 . S
In130 O132 2.326 . S
In130 O136 2.266 . S
In130 O137 2.326 . S
In130 O138 2.266 . S
In130 O139 2.326 . S
In130 O141 2.294 . S
In130 O142 2.326 . S
O131 In130 2.294 . S
O131 C140 1.240 . S
O132 In130 2.326 . S
O132 C140 1.252 . S
C133 O136 1.252 . S
C133 O137 1.260 . S
C134 O141 1.240 . S
C134 O142 1.252 . S
C135 O138 1.252 . S
C135 O139 1.260 . S
O136 In130 2.266 . S
O136 C133 1.252 . S
O137 In130 2.326 . S
O137 C133 1.260 . S
O138 In130 2.266 . S
O138 C135 1.252 . S
O139 In130 2.326 . S
O139 C135 1.260 . S
C140 O131 1.240 . S
C140 O132 1.252 . S
O141 In130 2.294 . S
O141 C134 1.240 . S
O142 In130 2.326 . S
O142 C134 1.252 . S
In143 O144 2.294 . S
In143 O145 2.326 . S
In143 O149 2.266 . S
In143 O150 2.326 . S
In143 O151 2.266 . S
In143 O152 2.326 . S
In143 O154 2.294 . S
In143 O155 2.326 . S
O144 In143 2.294 . S
O144 C153 1.240 . S
O145 In143 2.326 . S
O145 C153 1.252 . S
C146 O149 1.252 . S
C146 O150 1.260 . S
C147 O154 1.240 . S
C147 O155 1.252 . S
C148 O151 1.252 . S
C148 O152 1.260 . S
O149 In143 2.266 . S
O149 C146 1.252 . S
O150 In143 2.326 . S
O150 C146 1.260 . S
O151 In143 2.266 . S
O151 C148 1.252 . S
O152 In143 2.326 . S
O152 C148 1.260 . S
C153 O144 1.240 . S
C153 O145 1.252 . S
O154 In143 2.294 . S
O154 C147 1.240 . S
O155 In143 2.326 . S
O155 C147 1.252 . S
In156 O157 2.294 . S
In156 O158 2.326 . S
In156 O162 2.266 . S
In156 O163 2.326 . S
In156 O164 2.266 . S
In156 O165 2.326 . S
In156 O167 2.294 . S
In156 O168 2.326 . S
O157 In156 2.294 . S
O157 C166 1.240 . S
O158 In156 2.326 . S
O158 C166 1.252 . S
C159 O162 1.252 . S
C159 O163 1.260 . S
C160 O167 1.240 . S
C160 O168 1.252 . S
C161 O164 1.252 . S
C161 O165 1.260 . S
O162 In156 2.266 . S
O162 C159 1.252 . S
O163 In156 2.326 . S
O163 C159 1.260 . S
O164 In156 2.266 . S
O164 C161 1.252 . S
O165 In156 2.326 . S
O165 C161 1.260 . S
C166 O157 1.240 . S
C166 O158 1.252 . S
O167 In156 2.294 . S
O167 C160 1.240 . S
O168 In156 2.326 . S
O168 C160 1.252 . S
In169 O170 2.294 . S
In169 O171 2.326 . S
In169 O175 2.266 . S
In169 O176 2.326 . S
In169 O177 2.266 . S
In169 O178 2.326 . S
In169 O180 2.294 . S
In169 O181 2.326 . S
O170 In169 2.294 . S
O170 C179 1.240 . S
O171 In169 2.326 . S
O171 C179 1.252 . S
C172 O175 1.252 . S
C172 O176 1.260 . S
C173 O180 1.240 . S
C173 O181 1.252 . S
C174 O177 1.252 . S
C174 O178 1.260 . S
O175 In169 2.266 . S
O175 C172 1.252 . S
O176 In169 2.326 . S
O176 C172 1.260 . S
O177 In169 2.266 . S
O177 C174 1.252 . S
O178 In169 2.326 . S
O178 C174 1.260 . S
C179 O170 1.240 . S
C179 O171 1.252 . S
O180 In169 2.294 . S
O180 C173 1.240 . S
O181 In169 2.326 . S
O181 C173 1.252 . S
In182 O183 2.294 . S
In182 O184 2.326 . S
In182 O188 2.266 . S
In182 O189 2.326 . S
In182 O190 2.266 . S
In182 O191 2.326 . S
In182 O193 2.294 . S
In182 O194 2.326 . S
O183 In182 2.294 . S
O183 C192 1.240 . S
O184 In182 2.326 . S
O184 C192 1.252 . S
C185 O188 1.252 . S
C185 O189 1.260 . S
C186 O193 1.240 . S
C186 O194 1.252 . S
C187 O190 1.252 . S
C187 O191 1.260 . S
O188 In182 2.266 . S
O188 C185 1.252 . S
O189 In182 2.326 . S
O189 C185 1.260 . S
O190 In182 2.266 . S
O190 C187 1.252 . S
O191 In182 2.326 . S
O191 C187 1.260 . S
C192 O183 1.240 . S
C192 O184 1.252 . S
O193 In182 2.294 . S
O193 C186 1.240 . S
O194 In182 2.326 . S
O194 C186 1.252 . S
In195 O196 2.294 . S
In195 O197 2.326 . S
In195 O201 2.266 . S
In195 O202 2.326 . S
In195 O203 2.266 . S
In195 O204 2.326 . S
In195 O206 2.294 . S
In195 O207 2.326 . S
O196 In195 2.294 . S
O196 C205 1.240 . S
O197 In195 2.326 . S
O197 C205 1.252 . S
C198 O201 1.252 . S
C198 O202 1.260 . S
C199 O206 1.240 . S
C199 O207 1.252 . S
C200 O203 1.252 . S
C200 O204 1.260 . S
O201 In195 2.266 . S
O201 C198 1.252 . S
O202 In195 2.326 . S
O202 C198 1.260 . S
O203 In195 2.266 . S
O203 C200 1.252 . S
O204 In195 2.326 . S
O204 C200 1.260 . S
C205 O196 1.240 . S
C205 O197 1.252 . S
O206 In195 2.294 . S
O206 C199 1.240 . S
O207 In195 2.326 . S
O207 C199 1.252 . S
H208 C226 0.951 . S
H209 C228 0.951 . S
H210 C230 0.950 . S
H211 C231 0.950 . S
H212 C233 0.950 . S
H213 C236 0.950 . S
H214 C237 0.950 . S
H215 C239 0.950 . S
H216 C240 0.950 . S
H217 C241 0.951 . S
H218 C243 0.951 . S
H219 C245 0.950 . S
H220 C246 0.950 . S
H221 C248 0.950 . S
H222 C251 0.950 1_554 S
H223 C252 0.950 . S
H224 C254 0.950 . S
H225 C255 0.950 . S
C226 H208 0.951 . S
C226 C227 1.348 1_554 S
C226 C228 1.388 . S
C227 C226 1.348 1_556 S
C227 C231 1.402 . S
C228 H209 0.951 . S
C228 C226 1.388 . S
C228 C229 1.366 . S
C229 C228 1.366 . S
C229 C230 1.414 1_554 S
C229 C232 1.499 . S
C230 H210 0.950 . S
C230 C229 1.414 1_556 S
C230 C231 1.374 . S
C231 H211 0.950 . S
C231 C227 1.402 . S
C231 C230 1.374 . S
C232 C229 1.499 . S
C232 C233 1.373 1_554 S
C232 C234 1.389 . S
C233 H212 0.950 . S
C233 C232 1.373 1_556 S
C233 C249 1.377 . S
C234 C232 1.389 . S
C234 C235 1.524 . S
C234 C248 1.377 . S
C235 C234 1.524 . S
C235 C236 1.397 . S
C235 C240 1.363 . S
C236 H213 0.950 . S
C236 C235 1.397 . S
C236 C237 1.334 . S
C237 H214 0.950 . S
C237 C236 1.334 . S
C237 C238 1.287 . S
C238 C237 1.287 . S
C238 C239 1.524 . S
C238 H257 0.913 . S
C239 H215 0.950 . S
C239 C238 1.524 . S
C239 C240 1.415 . S
C240 H216 0.950 . S
C240 C235 1.363 . S
C240 C239 1.415 . S
C241 H217 0.951 . S
C241 C242 1.366 1_556 S
C241 C243 1.388 . S
C242 C241 1.366 1_554 S
C242 C246 1.385 . S
C243 H218 0.951 . S
C243 C241 1.388 . S
C243 C244 1.366 1_556 S
C244 C243 1.366 1_554 S
C244 C245 1.414 . S
C244 C247 1.499 . S
C245 H219 0.950 . S
C245 C244 1.414 . S
C245 C246 1.374 . S
C246 H220 0.950 . S
C246 C242 1.385 . S
C246 C245 1.374 . S
C247 C244 1.499 . S
C247 C248 1.373 . S
C247 C249 1.389 1_554 S
C248 H221 0.950 . S
C248 C234 1.377 . S
C248 C247 1.373 . S
C249 C233 1.377 . S
C249 C247 1.389 1_556 S
C249 C250 1.524 . S
C250 C249 1.524 . S
C250 C251 1.397 . S
C250 C255 1.363 . S
C251 H222 0.950 1_556 S
C251 C250 1.397 . S
C251 C252 1.334 . S
C252 H223 0.950 . S
C252 C251 1.334 . S
C252 C253 1.287 . S
C253 C252 1.287 . S
C253 C254 1.524 . S
C253 H256 0.999 . S
C254 H224 0.950 . S
C254 C253 1.524 . S
C254 C255 1.415 . S
C255 H225 0.950 . S
C255 C250 1.363 . S
C255 C254 1.415 . S
H256 C253 0.999 . S
H257 C238 0.913 . S
H258 C276 0.951 . S
H259 C278 0.951 . S
H260 C280 0.950 . S
H261 C281 0.950 . S
H262 C283 0.950 . S
H263 C286 0.950 1_556 S
H264 C287 0.950 . S
H265 C289 0.950 . S
H266 C290 0.950 . S
H267 C291 0.951 . S
H268 C293 0.951 . S
H269 C295 0.950 . S
H270 C296 0.950 . S
H271 C298 0.950 . S
H272 C301 0.933 1_554 S
H273 C302 0.950 1_554 S
H274 C304 0.950 . S
H275 C305 0.950 . S
C276 H258 0.951 . S
C276 C277 1.349 1_554 S
C276 C278 1.388 . S
C277 C276 1.349 1_556 S
C277 C281 1.401 . S
C278 H259 0.951 . S
C278 C276 1.388 . S
C278 C279 1.366 . S
C279 C278 1.366 . S
C279 C280 1.414 1_554 S
C279 C282 1.499 . S
C280 H260 0.950 . S
C280 C279 1.414 1_556 S
C280 C281 1.374 . S
C281 H261 0.950 . S
C281 C277 1.401 . S
C281 C280 1.374 . S
C282 C279 1.499 . S
C282 C283 1.373 1_554 S
C282 C284 1.389 . S
C283 H262 0.950 . S
C283 C282 1.373 1_556 S
C283 C299 1.377 . S
C284 C282 1.389 . S
C284 C285 1.524 . S
C284 C298 1.377 . S
C285 C284 1.524 . S
C285 C286 1.397 . S
C285 C290 1.363 . S
C286 H263 0.950 1_554 S
C286 C285 1.397 . S
C286 C287 1.334 . S
C287 H264 0.950 . S
C287 C286 1.334 . S
C287 C288 1.287 . S
C288 C287 1.287 . S
C288 C289 1.524 . S
C288 H307 0.913 . S
C289 H265 0.950 . S
C289 C288 1.524 . S
C289 C290 1.415 . S
C290 H266 0.950 . S
C290 C285 1.363 . S
C290 C289 1.415 . S
C291 H267 0.951 . S
C291 C292 1.366 1_556 S
C291 C293 1.388 . S
C292 C291 1.366 1_554 S
C292 C296 1.385 . S
C293 H268 0.951 . S
C293 C291 1.388 . S
C293 C294 1.366 1_556 S
C294 C293 1.366 1_554 S
C294 C295 1.414 . S
C294 C297 1.499 . S
C295 H269 0.950 . S
C295 C294 1.414 . S
C295 C296 1.374 . S
C296 H270 0.950 . S
C296 C292 1.385 . S
C296 C295 1.374 . S
C297 C294 1.499 . S
C297 C298 1.373 . S
C297 C299 1.389 1_554 S
C298 H271 0.950 . S
C298 C284 1.377 . S
C298 C297 1.373 . S
C299 C283 1.377 . S
C299 C297 1.389 1_556 S
C299 C300 1.524 . S
C300 C299 1.524 . S
C300 C301 1.408 . S
C300 C305 1.363 . S
C301 H272 0.933 1_556 S
C301 C300 1.408 . S
C301 C302 1.339 . S
C302 H273 0.950 1_556 S
C302 C301 1.339 . S
C302 C303 1.287 . S
C303 C302 1.287 . S
C303 C304 1.524 . S
C303 H306 0.999 . S
C304 H274 0.950 . S
C304 C303 1.524 . S
C304 C305 1.415 . S
C305 H275 0.950 . S
C305 C300 1.363 . S
C305 C304 1.415 . S
H306 C303 0.999 . S
H307 C288 0.913 . S
H308 C326 0.951 . S
H309 C328 0.951 . S
H310 C330 0.950 . S
H311 C331 0.950 . S
H312 C333 0.950 . S
H313 C336 0.950 . S
H314 C337 0.950 . S
H315 C339 0.950 . S
H316 C340 0.950 . S
H317 C341 0.951 . S
H318 C343 0.951 . S
H319 C345 0.950 1_556 S
H320 C346 0.950 . S
H321 C348 0.950 . S
H322 C351 0.950 . S
H323 C352 0.950 . S
H324 C354 0.950 . S
H325 C355 0.950 . S
C326 H308 0.951 . S
C326 C327 1.369 . S
C326 C328 1.388 . S
C327 C326 1.369 . S
C327 C331 1.380 1_556 S
C328 H309 0.951 . S
C328 C326 1.388 . S
C328 C329 1.366 1_556 S
C329 C328 1.366 1_554 S
C329 C330 1.414 . S
C329 C332 1.499 . S
C330 H310 0.950 . S
C330 C329 1.414 . S
C330 C331 1.374 . S
C331 H311 0.950 . S
C331 C327 1.380 1_554 S
C331 C330 1.374 . S
C332 C329 1.499 . S
C332 C333 1.373 1_554 S
C332 C334 1.389 . S
C333 H312 0.950 . S
C333 C332 1.373 1_556 S
C333 C349 1.377 . S
C334 C332 1.389 . S
C334 C335 1.524 . S
C334 C348 1.377 . S
C335 C334 1.524 . S
C335 C336 1.397 . S
C335 C340 1.363 . S
C336 H313 0.950 . S
C336 C335 1.397 . S
C336 C337 1.334 . S
C337 H314 0.950 . S
C337 C336 1.334 . S
C337 C338 1.287 . S
C338 C337 1.287 . S
C338 C339 1.524 . S
C338 H357 0.913 . S
C339 H315 0.950 . S
C339 C338 1.524 . S
C339 C340 1.415 . S
C340 H316 0.950 . S
C340 C335 1.363 . S
C340 C339 1.415 . S
C341 H317 0.951 . S
C341 C342 1.366 . S
C341 C343 1.388 . S
C342 C341 1.366 . S
C342 C346 1.385 . S
C343 H318 0.951 . S
C343 C341 1.388 . S
C343 C344 1.366 . S
C344 C343 1.366 . S
C344 C345 1.414 . S
C344 C347 1.499 . S
C345 H319 0.950 1_554 S
C345 C344 1.414 . S
C345 C346 1.374 . S
C346 H320 0.950 . S
C346 C342 1.385 . S
C346 C345 1.374 . S
C347 C344 1.499 . S
C347 C348 1.373 . S
C347 C349 1.389 1_554 S
C348 H321 0.950 . S
C348 C334 1.377 . S
C348 C347 1.373 . S
C349 C333 1.377 . S
C349 C347 1.389 1_556 S
C349 C350 1.524 . S
C350 C349 1.524 . S
C350 C351 1.397 . S
C350 C355 1.363 . S
C351 H322 0.950 . S
C351 C350 1.397 . S
C351 C352 1.334 . S
C352 H323 0.950 . S
C352 C351 1.334 . S
C352 C353 1.287 . S
C353 C352 1.287 . S
C353 C354 1.524 . S
C353 H356 0.999 . S
C354 H324 0.950 . S
C354 C353 1.524 . S
C354 C355 1.415 . S
C355 H325 0.950 . S
C355 C350 1.363 . S
C355 C354 1.415 . S
H356 C353 0.999 . S
H357 C338 0.913 . S
H358 C376 0.951 . S
H359 C378 0.951 . S
H360 C380 0.950 . S
H361 C381 0.950 . S
H362 C383 0.950 . S
H363 C386 0.931 1_556 S
H364 C387 0.950 . S
H365 C389 0.950 . S
H366 C390 0.950 . S
H367 C391 0.951 . S
H368 C393 0.951 . S
H369 C395 0.950 . S
H370 C396 0.950 . S
H371 C398 0.950 . S
H372 C401 0.950 1_554 S
H373 C402 0.950 . S
H374 C404 0.950 . S
H375 C405 0.950 . S
C376 H358 0.951 . S
C376 C377 1.348 1_554 S
C376 C378 1.388 . S
C377 C376 1.348 1_556 S
C377 C381 1.401 . S
C378 H359 0.951 . S
C378 C376 1.388 . S
C378 C379 1.366 . S
C379 C378 1.366 . S
C379 C380 1.414 1_554 S
C379 C382 1.499 . S
C380 H360 0.950 . S
C380 C379 1.414 1_556 S
C380 C381 1.374 . S
C381 H361 0.950 . S
C381 C377 1.401 . S
C381 C380 1.374 . S
C382 C379 1.499 . S
C382 C383 1.373 1_554 S
C382 C384 1.389 . S
C383 H362 0.950 . S
C383 C382 1.373 1_556 S
C383 C399 1.377 . S
C384 C382 1.389 . S
C384 C385 1.524 . S
C384 C398 1.377 . S
C385 C384 1.524 . S
C385 C386 1.397 . S
C385 C390 1.363 . S
C386 H363 0.931 1_554 S
C386 C385 1.397 . S
C386 C387 1.334 . S
C387 H364 0.950 . S
C387 C386 1.334 . S
C387 C388 1.287 . S
C388 C387 1.287 . S
C388 C389 1.524 . S
C388 H407 0.913 . S
C389 H365 0.950 . S
C389 C388 1.524 . S
C389 C390 1.415 . S
C390 H366 0.950 . S
C390 C385 1.363 . S
C390 C389 1.415 . S
C391 H367 0.951 . S
C391 C392 1.366 1_556 S
C391 C393 1.388 . S
C392 C391 1.366 1_554 S
C392 C396 1.385 . S
C393 H368 0.951 . S
C393 C391 1.388 . S
C393 C394 1.366 1_556 S
C394 C393 1.366 1_554 S
C394 C395 1.414 . S
C394 C397 1.499 . S
C395 H369 0.950 . S
C395 C394 1.414 . S
C395 C396 1.374 . S
C396 H370 0.950 . S
C396 C392 1.385 . S
C396 C395 1.374 . S
C397 C394 1.499 . S
C397 C398 1.373 . S
C397 C399 1.389 1_554 S
C398 H371 0.950 . S
C398 C384 1.377 . S
C398 C397 1.373 . S
C399 C383 1.377 . S
C399 C397 1.389 1_556 S
C399 C400 1.524 . S
C400 C399 1.524 . S
C400 C401 1.397 . S
C400 C405 1.363 . S
C401 H372 0.950 1_556 S
C401 C400 1.397 . S
C401 C402 1.334 . S
C402 H373 0.950 . S
C402 C401 1.334 . S
C402 C403 1.287 . S
C403 C402 1.287 . S
C403 C404 1.524 . S
C403 H406 0.999 . S
C404 H374 0.950 . S
C404 C403 1.524 . S
C404 C405 1.415 . S
C405 H375 0.950 . S
C405 C400 1.363 . S
C405 C404 1.415 . S
H406 C403 0.999 . S
H407 C388 0.913 . S
H408 C426 0.951 . S
H409 C428 0.951 . S
H410 C430 0.950 . S
H411 C431 0.950 . S
H412 C433 0.950 . S
H413 C436 0.950 . S
H414 C437 0.950 . S
H415 C439 0.950 . S
H416 C440 0.950 . S
H417 C441 0.951 . S
H418 C443 0.951 . S
H419 C445 0.950 . S
H420 C446 0.950 . S
H421 C448 0.950 . S
H422 C451 0.950 . S
H423 C452 0.950 . S
H424 C454 0.950 . S
H425 C455 0.950 . S
C426 H408 0.951 . S
C426 C427 1.366 . S
C426 C428 1.388 . S
C427 C426 1.366 . S
C427 C431 1.385 . S
C428 H409 0.951 . S
C428 C426 1.388 . S
C428 C429 1.366 . S
C429 C428 1.366 . S
C429 C430 1.414 . S
C429 C432 1.499 . S
C430 H410 0.950 . S
C430 C429 1.414 . S
C430 C431 1.374 . S
C431 H411 0.950 . S
C431 C427 1.385 . S
C431 C430 1.374 . S
C432 C429 1.499 . S
C432 C433 1.373 . S
C432 C434 1.389 . S
C433 H412 0.950 . S
C433 C432 1.373 . S
C433 C449 1.377 1_545 S
C434 C432 1.389 . S
C434 C435 1.524 . S
C434 C448 1.377 1_545 S
C435 C434 1.524 . S
C435 C436 1.397 . S
C435 C440 1.363 . S
C436 H413 0.950 . S
C436 C435 1.397 . S
C436 C437 1.334 . S
C437 H414 0.950 . S
C437 C436 1.334 . S
C437 C438 1.287 . S
C438 C437 1.287 . S
C438 C439 1.524 . S
C438 H457 0.913 . S
C439 H415 0.950 . S
C439 C438 1.524 . S
C439 C440 1.415 . S
C440 H416 0.950 . S
C440 C435 1.363 . S
C440 C439 1.415 . S
C441 H417 0.951 . S
C441 C442 1.366 . S
C441 C443 1.388 . S
C442 C441 1.366 . S
C442 C446 1.385 . S
C443 H418 0.951 . S
C443 C441 1.388 . S
C443 C444 1.366 . S
C444 C443 1.366 . S
C444 C445 1.414 . S
C444 C447 1.499 . S
C445 H419 0.950 . S
C445 C444 1.414 . S
C445 C446 1.374 . S
C446 H420 0.950 . S
C446 C442 1.385 . S
C446 C445 1.374 . S
C447 C444 1.499 . S
C447 C448 1.373 . S
C447 C449 1.389 . S
C448 H421 0.950 . S
C448 C434 1.377 1_565 S
C448 C447 1.373 . S
C449 C433 1.377 1_565 S
C449 C447 1.389 . S
C449 C450 1.524 . S
C450 C449 1.524 . S
C450 C451 1.397 . S
C450 C455 1.363 . S
C451 H422 0.950 . S
C451 C450 1.397 . S
C451 C452 1.334 . S
C452 H423 0.950 . S
C452 C451 1.334 . S
C452 C453 1.287 . S
C453 C452 1.287 . S
C453 C454 1.524 . S
C453 H456 0.999 . S
C454 H424 0.950 . S
C454 C453 1.524 . S
C454 C455 1.415 . S
C455 H425 0.950 . S
C455 C450 1.363 . S
C455 C454 1.415 . S
H456 C453 0.999 . S
H457 C438 0.913 . S
H458 C476 0.951 . S
H459 C478 0.951 . S
H460 C480 0.950 . S
H461 C481 0.950 . S
H462 C483 0.950 . S
H463 C486 0.950 . S
H464 C487 0.950 . S
H465 C489 0.950 . S
H466 C490 0.950 . S
H467 C491 0.951 . S
H468 C493 0.951 . S
H469 C495 0.950 . S
H470 C496 0.950 . S
H471 C498 0.950 . S
H472 C501 0.950 . S
H473 C502 0.950 . S
H474 C504 0.950 . S
H475 C505 0.950 . S
C476 H458 0.951 . S
C476 C477 1.366 . S
C476 C478 1.388 . S
C477 C476 1.366 . S
C477 C481 1.385 . S
C478 H459 0.951 . S
C478 C476 1.388 . S
C478 C479 1.366 . S
C479 C478 1.366 . S
C479 C480 1.414 . S
C479 C482 1.499 . S
C480 H460 0.950 . S
C480 C479 1.414 . S
C480 C481 1.374 . S
C481 H461 0.950 . S
C481 C477 1.385 . S
C481 C480 1.374 . S
C482 C479 1.499 . S
C482 C483 1.373 . S
C482 C484 1.389 . S
C483 H462 0.950 . S
C483 C482 1.373 . S
C483 C499 1.377 1_655 S
C484 C482 1.389 . S
C484 C485 1.524 . S
C484 C498 1.377 1_655 S
C485 C484 1.524 . S
C485 C486 1.397 . S
C485 C490 1.363 . S
C486 H463 0.950 . S
C486 C485 1.397 . S
C486 C487 1.334 . S
C487 H464 0.950 . S
C487 C486 1.334 . S
C487 C488 1.287 . S
C488 C487 1.287 . S
C488 C489 1.524 . S
C488 H507 0.913 . S
C489 H465 0.950 . S
C489 C488 1.524 . S
C489 C490 1.415 . S
C490 H466 0.950 . S
C490 C485 1.363 . S
C490 C489 1.415 . S
C491 H467 0.951 . S
C491 C492 1.366 . S
C491 C493 1.388 . S
C492 C491 1.366 . S
C492 C496 1.385 . S
C493 H468 0.951 . S
C493 C491 1.388 . S
C493 C494 1.366 . S
C494 C493 1.366 . S
C494 C495 1.414 . S
C494 C497 1.499 . S
C495 H469 0.950 . S
C495 C494 1.414 . S
C495 C496 1.374 . S
C496 H470 0.950 . S
C496 C492 1.385 . S
C496 C495 1.374 . S
C497 C494 1.499 . S
C497 C498 1.373 . S
C497 C499 1.389 . S
C498 H471 0.950 . S
C498 C484 1.377 1_455 S
C498 C497 1.373 . S
C499 C483 1.377 1_455 S
C499 C497 1.389 . S
C499 C500 1.524 . S
C500 C499 1.524 . S
C500 C501 1.397 . S
C500 C505 1.363 . S
C501 H472 0.950 . S
C501 C500 1.397 . S
C501 C502 1.334 . S
C502 H473 0.950 . S
C502 C501 1.334 . S
C502 C503 1.287 . S
C503 C502 1.287 . S
C503 C504 1.524 . S
C503 H506 0.999 . S
C504 H474 0.950 . S
C504 C503 1.524 . S
C504 C505 1.415 . S
C505 H475 0.950 . S
C505 C500 1.363 . S
C505 C504 1.415 . S
H506 C503 0.999 . S
H507 C488 0.913 . S
H508 C526 0.951 . S
H509 C528 0.951 . S
H510 C530 0.950 . S
H511 C531 0.950 . S
H512 C533 0.950 . S
H513 C536 0.950 . S
H514 C537 0.950 . S
H515 C539 0.950 . S
H516 C540 0.950 . S
H517 C541 0.951 . S
H518 C543 0.951 . S
H519 C545 0.950 . S
H520 C546 0.950 . S
H521 C548 0.950 . S
H522 C551 0.950 . S
H523 C552 0.950 . S
H524 C554 0.950 . S
H525 C555 0.950 . S
C526 H508 0.951 . S
C526 C527 1.366 . S
C526 C528 1.388 . S
C527 C526 1.366 . S
C527 C531 1.385 . S
C528 H509 0.951 . S
C528 C526 1.388 . S
C528 C529 1.366 . S
C529 C528 1.366 . S
C529 C530 1.414 . S
C529 C532 1.499 . S
C530 H510 0.950 . S
C530 C529 1.414 . S
C530 C531 1.374 . S
C531 H511 0.950 . S
C531 C527 1.385 . S
C531 C530 1.374 . S
C532 C529 1.499 . S
C532 C533 1.373 . S
C532 C534 1.389 . S
C533 H512 0.950 . S
C533 C532 1.373 . S
C533 C549 1.377 1_545 S
C534 C532 1.389 . S
C534 C535 1.524 . S
C534 C548 1.377 1_545 S
C535 C534 1.524 . S
C535 C536 1.397 . S
C535 C540 1.363 . S
C536 H513 0.950 . S
C536 C535 1.397 . S
C536 C537 1.334 . S
C537 H514 0.950 . S
C537 C536 1.334 . S
C537 C538 1.287 . S
C538 C537 1.287 . S
C538 C539 1.524 . S
C538 H557 0.913 . S
C539 H515 0.950 . S
C539 C538 1.524 . S
C539 C540 1.415 . S
C540 H516 0.950 . S
C540 C535 1.363 . S
C540 C539 1.415 . S
C541 H517 0.951 . S
C541 C542 1.366 . S
C541 C543 1.388 . S
C542 C541 1.366 . S
C542 C546 1.385 . S
C543 H518 0.951 . S
C543 C541 1.388 . S
C543 C544 1.366 . S
C544 C543 1.366 . S
C544 C545 1.414 . S
C544 C547 1.499 . S
C545 H519 0.950 . S
C545 C544 1.414 . S
C545 C546 1.374 . S
C546 H520 0.950 . S
C546 C542 1.385 . S
C546 C545 1.374 . S
C547 C544 1.499 . S
C547 C548 1.373 . S
C547 C549 1.389 . S
C548 H521 0.950 . S
C548 C534 1.377 1_565 S
C548 C547 1.373 . S
C549 C533 1.377 1_565 S
C549 C547 1.389 . S
C549 C550 1.524 . S
C550 C549 1.524 . S
C550 C551 1.397 . S
C550 C555 1.363 . S
C551 H522 0.950 . S
C551 C550 1.397 . S
C551 C552 1.334 . S
C552 H523 0.950 . S
C552 C551 1.334 . S
C552 C553 1.287 . S
C553 C552 1.287 . S
C553 C554 1.524 . S
C553 H556 0.999 . S
C554 H524 0.950 . S
C554 C553 1.524 . S
C554 C555 1.415 . S
C555 H525 0.950 . S
C555 C550 1.363 . S
C555 C554 1.415 . S
H556 C553 0.999 . S
H557 C538 0.913 . S
H558 C576 0.951 . S
H559 C578 0.951 . S
H560 C580 0.950 . S
H561 C581 0.950 . S
H562 C583 0.950 . S
H563 C586 0.950 . S
H564 C587 0.950 . S
H565 C589 0.950 . S
H566 C590 0.950 . S
H567 C591 0.951 . S
H568 C593 0.951 . S
H569 C595 0.950 . S
H570 C596 0.950 . S
H571 C598 0.950 . S
H572 C601 0.950 . S
H573 C602 0.950 . S
H574 C604 0.950 . S
H575 C605 0.950 . S
C576 H558 0.951 . S
C576 C577 1.366 . S
C576 C578 1.388 . S
C577 C576 1.366 . S
C577 C581 1.385 . S
C578 H559 0.951 . S
C578 C576 1.388 . S
C578 C579 1.366 . S
C579 C578 1.366 . S
C579 C580 1.414 . S
C579 C582 1.499 . S
C580 H560 0.950 . S
C580 C579 1.414 . S
C580 C581 1.374 . S
C581 H561 0.950 . S
C581 C577 1.385 . S
C581 C580 1.374 . S
C582 C579 1.499 . S
C582 C583 1.373 . S
C582 C584 1.389 . S
C583 H562 0.950 . S
C583 C582 1.373 . S
C583 C599 1.377 1_455 S
C584 C582 1.389 . S
C584 C585 1.524 . S
C584 C598 1.377 1_455 S
C585 C584 1.524 . S
C585 C586 1.397 . S
C585 C590 1.363 . S
C586 H563 0.950 . S
C586 C585 1.397 . S
C586 C587 1.334 . S
C587 H564 0.950 . S
C587 C586 1.334 . S
C587 C588 1.287 . S
C588 C587 1.287 . S
C588 C589 1.524 . S
C588 H607 0.913 . S
C589 H565 0.950 . S
C589 C588 1.524 . S
C589 C590 1.415 . S
C590 H566 0.950 . S
C590 C585 1.363 . S
C590 C589 1.415 . S
C591 H567 0.951 . S
C591 C592 1.366 . S
C591 C593 1.388 . S
C592 C591 1.366 . S
C592 C596 1.385 . S
C593 H568 0.951 . S
C593 C591 1.388 . S
C593 C594 1.366 . S
C594 C593 1.366 . S
C594 C595 1.414 . S
C594 C597 1.499 . S
C595 H569 0.950 . S
C595 C594 1.414 . S
C595 C596 1.374 . S
C596 H570 0.950 . S
C596 C592 1.385 . S
C596 C595 1.374 . S
C597 C594 1.499 . S
C597 C598 1.373 . S
C597 C599 1.389 . S
C598 H571 0.950 . S
C598 C584 1.377 1_655 S
C598 C597 1.373 . S
C599 C583 1.377 1_655 S
C599 C597 1.389 . S
C599 C600 1.524 . S
C600 C599 1.524 . S
C600 C601 1.397 . S
C600 C605 1.363 . S
C601 H572 0.950 . S
C601 C600 1.397 . S
C601 C602 1.334 . S
C602 H573 0.950 . S
C602 C601 1.334 . S
C602 C603 1.287 . S
C603 C602 1.287 . S
C603 C604 1.524 . S
C603 H606 0.999 . S
C604 H574 0.950 . S
C604 C603 1.524 . S
C604 C605 1.415 . S
C605 H575 0.950 . S
C605 C600 1.363 . S
C605 C604 1.415 . S
H606 C603 0.999 . S
H607 C588 0.913 . S
H608 C626 0.951 . S
H609 C628 0.951 . S
H610 C630 0.950 . S
H611 C631 0.950 . S
H612 C633 0.950 . S
H613 C636 0.950 . S
H614 C637 0.950 . S
H615 C639 0.950 . S
H616 C640 0.950 1_556 S
H617 C641 0.951 . S
H618 C643 0.951 . S
H619 C645 0.950 . S
H620 C646 0.950 . S
H621 C648 0.950 . S
H622 C651 0.950 . S
H623 C652 0.950 . S
H624 C654 0.950 . S
H625 C655 0.950 1_554 S
C626 H608 0.951 . S
C626 C627 1.379 . S
C626 C628 1.388 . S
C627 C626 1.379 . S
C627 C631 1.370 1_556 S
C628 H609 0.951 . S
C628 C626 1.388 . S
C628 C629 1.366 1_556 S
C629 C628 1.366 1_554 S
C629 C630 1.414 . S
C629 C632 1.499 . S
C630 H610 0.950 . S
C630 C629 1.414 . S
C630 C631 1.374 . S
C631 H611 0.950 . S
C631 C627 1.370 1_554 S
C631 C630 1.374 . S
C632 C629 1.499 . S
C632 C633 1.373 1_554 S
C632 C634 1.389 . S
C633 H612 0.950 . S
C633 C632 1.373 1_556 S
C633 C649 1.377 . S
C634 C632 1.389 . S
C634 C635 1.524 . S
C634 C648 1.377 . S
C635 C634 1.524 . S
C635 C636 1.397 . S
C635 C640 1.363 . S
C636 H613 0.950 . S
C636 C635 1.397 . S
C636 C637 1.334 . S
C637 H614 0.950 . S
C637 C636 1.334 . S
C637 C638 1.287 . S
C638 C637 1.287 . S
C638 C639 1.524 . S
C638 H657 0.913 . S
C639 H615 0.950 . S
C639 C638 1.524 . S
C639 C640 1.415 . S
C640 H616 0.950 1_554 S
C640 C635 1.363 . S
C640 C639 1.415 . S
C641 H617 0.951 . S
C641 C642 1.366 . S
C641 C643 1.388 . S
C642 C641 1.366 . S
C642 C646 1.385 1_554 S
C643 H618 0.951 . S
C643 C641 1.388 . S
C643 C644 1.366 . S
C644 C643 1.366 . S
C644 C645 1.414 1_554 S
C644 C647 1.499 . S
C645 H619 0.950 . S
C645 C644 1.414 1_556 S
C645 C646 1.374 . S
C646 H620 0.950 . S
C646 C642 1.385 1_556 S
C646 C645 1.374 . S
C647 C644 1.499 . S
C647 C648 1.373 . S
C647 C649 1.389 1_554 S
C648 H621 0.950 . S
C648 C634 1.377 . S
C648 C647 1.373 . S
C649 C633 1.377 . S
C649 C647 1.389 1_556 S
C649 C650 1.524 . S
C650 C649 1.524 . S
C650 C651 1.397 . S
C650 C655 1.363 . S
C651 H622 0.950 . S
C651 C650 1.397 . S
C651 C652 1.334 . S
C652 H623 0.950 . S
C652 C651 1.334 . S
C652 C653 1.287 . S
C653 C652 1.287 . S
C653 C654 1.524 . S
C653 H656 0.999 . S
C654 H624 0.950 . S
C654 C653 1.524 . S
C654 C655 1.415 . S
C655 H625 0.950 1_556 S
C655 C650 1.363 . S
C655 C654 1.415 . S
H656 C653 0.999 . S
H657 C638 0.913 . S
H658 C676 0.951 . S
H659 C678 0.951 . S
H660 C680 0.950 . S
H661 C681 0.950 . S
H662 C683 0.950 . S
H663 C686 0.950 . S
H664 C687 0.950 . S
H665 C689 0.950 . S
H666 C690 0.950 . S
H667 C691 0.951 . S
H668 C693 0.951 . S
H669 C695 0.950 1_556 S
H670 C696 0.950 . S
H671 C698 0.950 . S
H672 C701 0.950 . S
H673 C702 0.950 . S
H674 C704 0.950 . S
H675 C705 0.950 . S
C676 H658 0.951 . S
C676 C677 1.366 . S
C676 C678 1.388 . S
C677 C676 1.366 . S
C677 C681 1.385 . S
C678 H659 0.951 . S
C678 C676 1.388 . S
C678 C679 1.366 . S
C679 C678 1.366 . S
C679 C680 1.414 . S
C679 C682 1.499 . S
C680 H660 0.950 . S
C680 C679 1.414 . S
C680 C681 1.374 . S
C681 H661 0.950 . S
C681 C677 1.385 . S
C681 C680 1.374 . S
C682 C679 1.499 . S
C682 C683 1.373 . S
C682 C684 1.389 1_554 S
C683 H662 0.950 . S
C683 C682 1.373 . S
C683 C699 1.377 . S
C684 C682 1.389 1_556 S
C684 C685 1.524 . S
C684 C698 1.377 . S
C685 C684 1.524 . S
C685 C686 1.397 . S
C685 C690 1.363 . S
C686 H663 0.950 . S
C686 C685 1.397 . S
C686 C687 1.334 . S
C687 H664 0.950 . S
C687 C686 1.334 . S
C687 C688 1.287 . S
C688 C687 1.287 . S
C688 C689 1.524 . S
C688 H707 0.913 . S
C689 H665 0.950 . S
C689 C688 1.524 . S
C689 C690 1.415 . S
C690 H666 0.950 . S
C690 C685 1.363 . S
C690 C689 1.415 . S
C691 H667 0.951 . S
C691 C692 1.363 1_554 S
C691 C693 1.388 . S
C692 C691 1.363 1_556 S
C692 C696 1.385 . S
C693 H668 0.951 . S
C693 C691 1.388 . S
C693 C694 1.366 . S
C694 C693 1.366 . S
C694 C695 1.417 . S
C694 C697 1.499 . S
C695 H669 0.950 1_554 S
C695 C694 1.417 . S
C695 C696 1.372 1_554 S
C696 H670 0.950 . S
C696 C692 1.385 . S
C696 C695 1.372 1_556 S
C697 C694 1.499 . S
C697 C698 1.373 1_554 S
C697 C699 1.389 . S
C698 H671 0.950 . S
C698 C684 1.377 . S
C698 C697 1.373 1_556 S
C699 C683 1.377 . S
C699 C697 1.389 . S
C699 C700 1.524 . S
C700 C699 1.524 . S
C700 C701 1.397 . S
C700 C705 1.363 . S
C701 H672 0.950 . S
C701 C700 1.397 . S
C701 C702 1.334 . S
C702 H673 0.950 . S
C702 C701 1.334 . S
C702 C703 1.287 . S
C703 C702 1.287 . S
C703 C704 1.524 . S
C703 H706 0.999 . S
C704 H674 0.950 . S
C704 C703 1.524 . S
C704 C705 1.415 . S
C705 H675 0.950 . S
C705 C700 1.363 . S
C705 C704 1.415 . S
H706 C703 0.999 . S
H707 C688 0.913 . S
H708 C726 0.951 . S
H709 C728 0.951 . S
H710 C730 0.950 . S
H711 C731 0.950 . S
H712 C733 0.950 . S
H713 C736 0.950 . S
H714 C737 0.950 . S
H715 C739 0.950 . S
H716 C740 0.950 . S
H717 C741 0.951 . S
H718 C743 0.951 . S
H719 C745 0.950 . S
H720 C746 0.950 . S
H721 C748 0.950 . S
H722 C751 0.950 . S
H723 C752 0.950 . S
H724 C754 0.950 . S
H725 C755 0.950 . S
C726 H708 0.951 . S
C726 C727 1.346 1_554 S
C726 C728 1.388 . S
C727 C726 1.346 1_556 S
C727 C731 1.403 . S
C728 H709 0.951 . S
C728 C726 1.388 . S
C728 C729 1.366 . S
C729 C728 1.366 . S
C729 C730 1.414 1_554 S
C729 C732 1.499 . S
C730 H710 0.950 . S
C730 C729 1.414 1_556 S
C730 C731 1.374 . S
C731 H711 0.950 . S
C731 C727 1.403 . S
C731 C730 1.374 . S
C732 C729 1.499 . S
C732 C733 1.373 1_554 S
C732 C734 1.389 . S
C733 H712 0.950 . S
C733 C732 1.373 1_556 S
C733 C749 1.377 . S
C734 C732 1.389 . S
C734 C735 1.524 . S
C734 C748 1.377 . S
C735 C734 1.524 . S
C735 C736 1.397 . S
C735 C740 1.363 . S
C736 H713 0.950 . S
C736 C735 1.397 . S
C736 C737 1.334 . S
C737 H714 0.950 . S
C737 C736 1.334 . S
C737 C738 1.287 . S
C738 C737 1.287 . S
C738 C739 1.524 . S
C738 H757 0.913 . S
C739 H715 0.950 . S
C739 C738 1.524 . S
C739 C740 1.415 . S
C740 H716 0.950 . S
C740 C735 1.363 . S
C740 C739 1.415 . S
C741 H717 0.951 . S
C741 C742 1.366 1_556 S
C741 C743 1.388 . S
C742 C741 1.366 1_554 S
C742 C746 1.385 . S
C743 H718 0.951 . S
C743 C741 1.388 . S
C743 C744 1.366 1_556 S
C744 C743 1.366 1_554 S
C744 C745 1.414 . S
C744 C747 1.499 . S
C745 H719 0.950 . S
C745 C744 1.414 . S
C745 C746 1.374 . S
C746 H720 0.950 . S
C746 C742 1.385 . S
C746 C745 1.374 . S
C747 C744 1.499 . S
C747 C748 1.373 . S
C747 C749 1.389 1_554 S
C748 H721 0.950 . S
C748 C734 1.377 . S
C748 C747 1.373 . S
C749 C733 1.377 . S
C749 C747 1.389 1_556 S
C749 C750 1.524 . S
C750 C749 1.524 . S
C750 C751 1.397 . S
C750 C755 1.363 . S
C751 H722 0.950 . S
C751 C750 1.397 . S
C751 C752 1.334 . S
C752 H723 0.950 . S
C752 C751 1.334 . S
C752 C753 1.287 . S
C753 C752 1.287 . S
C753 C754 1.524 . S
C753 H756 0.999 . S
C754 H724 0.950 . S
C754 C753 1.524 . S
C754 C755 1.415 . S
C755 H725 0.950 . S
C755 C750 1.363 . S
C755 C754 1.415 . S
H756 C753 0.999 . S
H757 C738 0.913 . S
H758 C776 0.951 . S
H759 C778 0.951 . S
H760 C780 0.950 . S
H761 C781 0.950 1_556 S
H762 C783 0.950 . S
H763 C786 0.950 . S
H764 C787 0.950 . S
H765 C789 0.950 . S
H766 C790 0.950 . S
H767 C791 0.951 . S
H768 C793 0.951 . S
H769 C795 0.950 . S
H770 C796 0.950 . S
H771 C798 0.950 . S
H772 C801 0.950 . S
H773 C802 0.950 . S
H774 C804 0.950 . S
H775 C805 0.950 . S
C776 H758 0.951 . S
C776 C777 1.366 . S
C776 C778 1.388 . S
C777 C776 1.366 . S
C777 C781 1.385 . S
C778 H759 0.951 . S
C778 C776 1.388 . S
C778 C779 1.366 . S
C779 C778 1.366 . S
C779 C780 1.414 1_554 S
C779 C782 1.499 . S
C780 H760 0.950 . S
C780 C779 1.414 1_556 S
C780 C781 1.374 1_556 S
C781 H761 0.950 1_554 S
C781 C777 1.385 . S
C781 C780 1.374 1_554 S
C782 C779 1.499 . S
C782 C783 1.373 . S
C782 C784 1.389 1_554 S
C783 H762 0.950 . S
C783 C782 1.373 . S
C783 C799 1.377 . S
C784 C782 1.389 1_556 S
C784 C785 1.524 . S
C784 C798 1.377 . S
C785 C784 1.524 . S
C785 C786 1.397 . S
C785 C790 1.363 . S
C786 H763 0.950 . S
C786 C785 1.397 . S
C786 C787 1.334 . S
C787 H764 0.950 . S
C787 C786 1.334 . S
C787 C788 1.287 . S
C788 C787 1.287 . S
C788 C789 1.524 . S
C788 H807 0.913 . S
C789 H765 0.950 . S
C789 C788 1.524 . S
C789 C790 1.415 . S
C790 H766 0.950 . S
C790 C785 1.363 . S
C790 C789 1.415 . S
C791 H767 0.951 . S
C791 C792 1.375 . S
C791 C793 1.388 . S
C792 C791 1.375 . S
C792 C796 1.374 1_556 S
C793 H768 0.951 . S
C793 C791 1.388 . S
C793 C794 1.366 1_556 S
C794 C793 1.366 1_554 S
C794 C795 1.414 . S
C794 C797 1.499 . S
C795 H769 0.950 . S
C795 C794 1.414 . S
C795 C796 1.374 . S
C796 H770 0.950 . S
C796 C792 1.374 1_554 S
C796 C795 1.374 . S
C797 C794 1.499 . S
C797 C798 1.373 1_554 S
C797 C799 1.389 . S
C798 H771 0.950 . S
C798 C784 1.377 . S
C798 C797 1.373 1_556 S
C799 C783 1.377 . S
C799 C797 1.389 . S
C799 C800 1.524 . S
C800 C799 1.524 . S
C800 C801 1.397 . S
C800 C805 1.363 . S
C801 H772 0.950 . S
C801 C800 1.397 . S
C801 C802 1.334 . S
C802 H773 0.950 . S
C802 C801 1.334 . S
C802 C803 1.287 . S
C803 C802 1.287 . S
C803 C804 1.524 . S
C803 H806 0.999 . S
C804 H774 0.950 . S
C804 C803 1.524 . S
C804 C805 1.415 . S
C805 H775 0.950 . S
C805 C800 1.363 . S
C805 C804 1.415 . S
H806 C803 0.999 . S
H807 C788 0.913 . S
H808 C826 0.951 . S
H809 C828 0.951 . S
H810 C830 0.950 . S
H811 C831 0.950 . S
H812 C833 0.950 . S
H813 C836 0.950 . S
H814 C837 0.950 . S
H815 C839 0.950 . S
H816 C840 0.950 . S
H817 C841 0.951 . S
H818 C843 0.951 . S
H819 C845 0.950 . S
H820 C846 0.950 . S
H821 C848 0.950 . S
H822 C851 0.950 . S
H823 C852 0.950 . S
H824 C854 0.950 . S
H825 C855 0.950 . S
C826 H808 0.951 . S
C826 C827 1.366 . S
C826 C828 1.388 . S
C827 C826 1.366 . S
C827 C831 1.385 . S
C828 H809 0.951 . S
C828 C826 1.388 . S
C828 C829 1.366 . S
C829 C828 1.366 . S
C829 C830 1.414 . S
C829 C832 1.499 . S
C830 H810 0.950 . S
C830 C829 1.414 . S
C830 C831 1.374 . S
C831 H811 0.950 . S
C831 C827 1.385 . S
C831 C830 1.374 . S
C832 C829 1.499 . S
C832 C833 1.373 . S
C832 C834 1.389 . S
C833 H812 0.950 . S
C833 C832 1.373 . S
C833 C849 1.377 . S
C834 C832 1.389 . S
C834 C835 1.524 . S
C834 C848 1.377 . S
C835 C834 1.524 . S
C835 C836 1.397 . S
C835 C840 1.363 . S
C836 H813 0.950 . S
C836 C835 1.397 . S
C836 C837 1.334 . S
C837 H814 0.950 . S
C837 C836 1.334 . S
C837 C838 1.287 . S
C838 C837 1.287 . S
C838 C839 1.524 . S
C838 H857 0.913 . S
C839 H815 0.950 . S
C839 C838 1.524 . S
C839 C840 1.415 . S
C840 H816 0.950 . S
C840 C835 1.363 . S
C840 C839 1.415 . S
C841 H817 0.951 . S
C841 C842 1.366 . S
C841 C843 1.388 . S
C842 C841 1.366 . S
C842 C846 1.385 . S
C843 H818 0.951 . S
C843 C841 1.388 . S
C843 C844 1.366 . S
C844 C843 1.366 . S
C844 C845 1.414 . S
C844 C847 1.499 . S
C845 H819 0.950 . S
C845 C844 1.414 . S
C845 C846 1.374 . S
C846 H820 0.950 . S
C846 C842 1.385 . S
C846 C845 1.374 . S
C847 C844 1.499 . S
C847 C848 1.373 . S
C847 C849 1.389 . S
C848 H821 0.950 . S
C848 C834 1.377 . S
C848 C847 1.373 . S
C849 C833 1.377 . S
C849 C847 1.389 . S
C849 C850 1.524 . S
C850 C849 1.524 . S
C850 C851 1.397 . S
C850 C855 1.363 . S
C851 H822 0.950 . S
C851 C850 1.397 . S
C851 C852 1.334 . S
C852 H823 0.950 . S
C852 C851 1.334 . S
C852 C853 1.287 . S
C853 C852 1.287 . S
C853 C854 1.524 . S
C853 H856 0.999 . S
C854 H824 0.950 . S
C854 C853 1.524 . S
C854 C855 1.415 . S
C855 H825 0.950 . S
C855 C850 1.363 . S
C855 C854 1.415 . S
H856 C853 0.999 . S
H857 C838 0.913 . S
H858 C876 0.951 . S
H859 C878 0.951 . S
H860 C880 0.950 . S
H861 C881 0.950 . S
H862 C883 0.950 . S
H863 C886 0.950 . S
H864 C887 0.950 . S
H865 C889 0.950 . S
H866 C890 0.950 . S
H867 C891 0.951 . S
H868 C893 0.951 . S
H869 C895 0.950 . S
H870 C896 0.950 . S
H871 C898 0.950 . S
H872 C901 0.950 . S
H873 C902 0.950 . S
H874 C904 0.950 . S
H875 C905 0.950 . S
C876 H858 0.951 . S
C876 C877 1.366 . S
C876 C878 1.388 . S
C877 C876 1.366 . S
C877 C881 1.385 . S
C878 H859 0.951 . S
C878 C876 1.388 . S
C878 C879 1.366 . S
C879 C878 1.366 . S
C879 C880 1.414 . S
C879 C882 1.499 . S
C880 H860 0.950 . S
C880 C879 1.414 . S
C880 C881 1.374 . S
C881 H861 0.950 . S
C881 C877 1.385 . S
C881 C880 1.374 . S
C882 C879 1.499 . S
C882 C883 1.373 . S
C882 C884 1.389 . S
C883 H862 0.950 . S
C883 C882 1.373 . S
C883 C899 1.377 . S
C884 C882 1.389 . S
C884 C885 1.524 . S
C884 C898 1.377 . S
C885 C884 1.524 . S
C885 C886 1.397 . S
C885 C890 1.363 . S
C886 H863 0.950 . S
C886 C885 1.397 . S
C886 C887 1.334 . S
C887 H864 0.950 . S
C887 C886 1.334 . S
C887 C888 1.287 . S
C888 C887 1.287 . S
C888 C889 1.524 . S
C888 H907 0.913 . S
C889 H865 0.950 . S
C889 C888 1.524 . S
C889 C890 1.415 . S
C890 H866 0.950 . S
C890 C885 1.363 . S
C890 C889 1.415 . S
C891 H867 0.951 . S
C891 C892 1.366 . S
C891 C893 1.388 . S
C892 C891 1.366 . S
C892 C896 1.385 . S
C893 H868 0.951 . S
C893 C891 1.388 . S
C893 C894 1.366 . S
C894 C893 1.366 . S
C894 C895 1.414 . S
C894 C897 1.499 . S
C895 H869 0.950 . S
C895 C894 1.414 . S
C895 C896 1.374 . S
C896 H870 0.950 . S
C896 C892 1.385 . S
C896 C895 1.374 . S
C897 C894 1.499 . S
C897 C898 1.373 . S
C897 C899 1.389 . S
C898 H871 0.950 . S
C898 C884 1.377 . S
C898 C897 1.373 . S
C899 C883 1.377 . S
C899 C897 1.389 . S
C899 C900 1.524 . S
C900 C899 1.524 . S
C900 C901 1.397 . S
C900 C905 1.363 . S
C901 H872 0.950 . S
C901 C900 1.397 . S
C901 C902 1.334 . S
C902 H873 0.950 . S
C902 C901 1.334 . S
C902 C903 1.287 . S
C903 C902 1.287 . S
C903 C904 1.524 . S
C903 H906 0.999 . S
C904 H874 0.950 . S
C904 C903 1.524 . S
C904 C905 1.415 . S
C905 H875 0.950 . S
C905 C900 1.363 . S
C905 C904 1.415 . S
H906 C903 0.999 . S
H907 C888 0.913 . S
H908 C926 0.951 . S
H909 C928 0.951 . S
H910 C930 0.950 . S
H911 C931 0.950 . S
H912 C933 0.950 . S
H913 C936 0.950 . S
H914 C937 0.950 . S
H915 C939 0.950 . S
H916 C940 0.950 . S
H917 C941 0.951 . S
H918 C943 0.951 . S
H919 C945 0.950 . S
H920 C946 0.950 . S
H921 C948 0.950 . S
H922 C951 0.950 . S
H923 C952 0.950 . S
H924 C954 0.950 . S
H925 C955 0.950 . S
C926 H908 0.951 . S
C926 C927 1.366 . S
C926 C928 1.388 . S
C927 C926 1.366 . S
C927 C931 1.385 . S
C928 H909 0.951 . S
C928 C926 1.388 . S
C928 C929 1.366 . S
C929 C928 1.366 . S
C929 C930 1.414 . S
C929 C932 1.499 . S
C930 H910 0.950 . S
C930 C929 1.414 . S
C930 C931 1.374 . S
C931 H911 0.950 . S
C931 C927 1.385 . S
C931 C930 1.374 . S
C932 C929 1.499 . S
C932 C933 1.373 . S
C932 C934 1.389 . S
C933 H912 0.950 . S
C933 C932 1.373 . S
C933 C949 1.377 . S
C934 C932 1.389 . S
C934 C935 1.524 . S
C934 C948 1.377 . S
C935 C934 1.524 . S
C935 C936 1.397 . S
C935 C940 1.363 . S
C936 H913 0.950 . S
C936 C935 1.397 . S
C936 C937 1.334 . S
C937 H914 0.950 . S
C937 C936 1.334 . S
C937 C938 1.287 . S
C938 C937 1.287 . S
C938 C939 1.524 . S
C938 H957 0.913 . S
C939 H915 0.950 . S
C939 C938 1.524 . S
C939 C940 1.415 . S
C940 H916 0.950 . S
C940 C935 1.363 . S
C940 C939 1.415 . S
C941 H917 0.951 . S
C941 C942 1.366 . S
C941 C943 1.388 . S
C942 C941 1.366 . S
C942 C946 1.385 . S
C943 H918 0.951 . S
C943 C941 1.388 . S
C943 C944 1.366 . S
C944 C943 1.366 . S
C944 C945 1.414 . S
C944 C947 1.499 . S
C945 H919 0.950 . S
C945 C944 1.414 . S
C945 C946 1.374 . S
C946 H920 0.950 . S
C946 C942 1.385 . S
C946 C945 1.374 . S
C947 C944 1.499 . S
C947 C948 1.373 . S
C947 C949 1.389 . S
C948 H921 0.950 . S
C948 C934 1.377 . S
C948 C947 1.373 . S
C949 C933 1.377 . S
C949 C947 1.389 . S
C949 C950 1.524 . S
C950 C949 1.524 . S
C950 C951 1.397 . S
C950 C955 1.363 . S
C951 H922 0.950 . S
C951 C950 1.397 . S
C951 C952 1.334 . S
C952 H923 0.950 . S
C952 C951 1.334 . S
C952 C953 1.287 . S
C953 C952 1.287 . S
C953 C954 1.524 . S
C953 H956 0.999 . S
C954 H924 0.950 . S
C954 C953 1.524 . S
C954 C955 1.415 . S
C955 H925 0.950 . S
C955 C950 1.363 . S
C955 C954 1.415 . S
H956 C953 0.999 . S
H957 C938 0.913 . S
H958 C976 0.951 . S
H959 C978 0.951 . S
H960 C980 0.950 . S
H961 C981 0.950 . S
H962 C983 0.950 . S
H963 C986 0.950 . S
H964 C987 0.950 . S
H965 C989 0.950 . S
H966 C990 0.950 . S
H967 C991 0.951 . S
H968 C993 0.951 . S
H969 C995 0.950 . S
H970 C996 0.950 . S
H971 C998 0.950 . S
H972 C1001 0.950 . S
H973 C1002 0.950 . S
H974 C1004 0.950 . S
H975 C1005 0.950 . S
C976 H958 0.951 . S
C976 C977 1.366 . S
C976 C978 1.388 . S
C977 C976 1.366 . S
C977 C981 1.385 . S
C978 H959 0.951 . S
C978 C976 1.388 . S
C978 C979 1.366 . S
C979 C978 1.366 . S
C979 C980 1.414 . S
C979 C982 1.499 . S
C980 H960 0.950 . S
C980 C979 1.414 . S
C980 C981 1.374 . S
C981 H961 0.950 . S
C981 C977 1.385 . S
C981 C980 1.374 . S
C982 C979 1.499 . S
C982 C983 1.373 . S
C982 C984 1.389 . S
C983 H962 0.950 . S
C983 C982 1.373 . S
C983 C999 1.377 . S
C984 C982 1.389 . S
C984 C985 1.524 . S
C984 C998 1.377 . S
C985 C984 1.524 . S
C985 C986 1.397 . S
C985 C990 1.363 . S
C986 H963 0.950 . S
C986 C985 1.397 . S
C986 C987 1.334 . S
C987 H964 0.950 . S
C987 C986 1.334 . S
C987 C988 1.287 . S
C988 C987 1.287 . S
C988 C989 1.524 . S
C988 H1007 0.913 . S
C989 H965 0.950 . S
C989 C988 1.524 . S
C989 C990 1.415 . S
C990 H966 0.950 . S
C990 C985 1.363 . S
C990 C989 1.415 . S
C991 H967 0.951 . S
C991 C992 1.366 . S
C991 C993 1.388 . S
C992 C991 1.366 . S
C992 C996 1.385 . S
C993 H968 0.951 . S
C993 C991 1.388 . S
C993 C994 1.366 . S
C994 C993 1.366 . S
C994 C995 1.414 . S
C994 C997 1.499 . S
C995 H969 0.950 . S
C995 C994 1.414 . S
C995 C996 1.374 . S
C996 H970 0.950 . S
C996 C992 1.385 . S
C996 C995 1.374 . S
C997 C994 1.499 . S
C997 C998 1.373 . S
C997 C999 1.389 . S
C998 H971 0.950 . S
C998 C984 1.377 . S
C998 C997 1.373 . S
C999 C983 1.377 . S
C999 C997 1.389 . S
C999 C1000 1.524 . S
C1000 C999 1.524 . S
C1000 C1001 1.397 . S
C1000 C1005 1.363 . S
C1001 H972 0.950 . S
C1001 C1000 1.397 . S
C1001 C1002 1.334 . S
C1002 H973 0.950 . S
C1002 C1001 1.334 . S
C1002 C1003 1.287 . S
C1003 C1002 1.287 . S
C1003 C1004 1.524 . S
C1003 H1006 0.999 . S
C1004 H974 0.950 . S
C1004 C1003 1.524 . S
C1004 C1005 1.415 . S
C1005 H975 0.950 . S
C1005 C1000 1.363 . S
C1005 C1004 1.415 . S
H1006 C1003 0.999 . S
H1007 C988 0.913 . S
H1008 C1026 0.951 . S
H1009 C1028 0.951 . S
H1010 C1030 0.950 . S
H1011 C1031 0.950 . S
H1012 C1033 0.950 . S
H1013 C1036 0.950 . S
H1014 C1037 0.950 . S
H1015 C1039 0.950 . S
H1016 C1040 0.950 . S
H1017 C1041 0.951 . S
H1018 C1043 0.951 . S
H1019 C1045 0.950 . S
H1020 C1046 0.950 . S
H1021 C1048 0.950 . S
H1022 C1051 0.950 . S
H1023 C1052 0.950 . S
H1024 C1054 0.950 . S
H1025 C1055 0.950 . S
C1026 H1008 0.951 . S
C1026 C1027 1.366 . S
C1026 C1028 1.388 . S
C1027 C1026 1.366 . S
C1027 C1031 1.385 . S
C1028 H1009 0.951 . S
C1028 C1026 1.388 . S
C1028 C1029 1.366 . S
C1029 C1028 1.366 . S
C1029 C1030 1.414 . S
C1029 C1032 1.499 . S
C1030 H1010 0.950 . S
C1030 C1029 1.414 . S
C1030 C1031 1.374 . S
C1031 H1011 0.950 . S
C1031 C1027 1.385 . S
C1031 C1030 1.374 . S
C1032 C1029 1.499 . S
C1032 C1033 1.373 . S
C1032 C1034 1.389 . S
C1033 H1012 0.950 . S
C1033 C1032 1.373 . S
C1033 C1049 1.377 . S
C1034 C1032 1.389 . S
C1034 C1035 1.524 . S
C1034 C1048 1.377 . S
C1035 C1034 1.524 . S
C1035 C1036 1.397 . S
C1035 C1040 1.363 . S
C1036 H1013 0.950 . S
C1036 C1035 1.397 . S
C1036 C1037 1.334 . S
C1037 H1014 0.950 . S
C1037 C1036 1.334 . S
C1037 C1038 1.287 . S
C1038 C1037 1.287 . S
C1038 C1039 1.524 . S
C1038 H1057 0.913 . S
C1039 H1015 0.950 . S
C1039 C1038 1.524 . S
C1039 C1040 1.415 . S
C1040 H1016 0.950 . S
C1040 C1035 1.363 . S
C1040 C1039 1.415 . S
C1041 H1017 0.951 . S
C1041 C1042 1.366 . S
C1041 C1043 1.388 . S
C1042 C1041 1.366 . S
C1042 C1046 1.385 . S
C1043 H1018 0.951 . S
C1043 C1041 1.388 . S
C1043 C1044 1.366 . S
C1044 C1043 1.366 . S
C1044 C1045 1.414 . S
C1044 C1047 1.499 . S
C1045 H1019 0.950 . S
C1045 C1044 1.414 . S
C1045 C1046 1.374 . S
C1046 H1020 0.950 . S
C1046 C1042 1.385 . S
C1046 C1045 1.374 . S
C1047 C1044 1.499 . S
C1047 C1048 1.373 . S
C1047 C1049 1.389 . S
C1048 H1021 0.950 . S
C1048 C1034 1.377 . S
C1048 C1047 1.373 . S
C1049 C1033 1.377 . S
C1049 C1047 1.389 . S
C1049 C1050 1.524 . S
C1050 C1049 1.524 . S
C1050 C1051 1.397 . S
C1050 C1055 1.363 . S
C1051 H1022 0.950 . S
C1051 C1050 1.397 . S
C1051 C1052 1.334 . S
C1052 H1023 0.950 . S
C1052 C1051 1.334 . S
C1052 C1053 1.287 . S
C1053 C1052 1.287 . S
C1053 C1054 1.524 . S
C1053 H1056 0.999 . S
C1054 H1024 0.950 . S
C1054 C1053 1.524 . S
C1054 C1055 1.415 . S
C1055 H1025 0.950 . S
C1055 C1050 1.363 . S
C1055 C1054 1.415 . S
H1056 C1053 0.999 . S
H1057 C1038 0.913 . S
H1058 C1076 0.951 . S
H1059 C1078 0.951 . S
H1060 C1080 0.950 . S
H1061 C1081 0.950 . S
H1062 C1083 0.950 . S
H1063 C1086 0.950 . S
H1064 C1087 0.950 . S
H1065 C1089 0.950 . S
H1066 C1090 0.950 . S
H1067 C1091 0.951 . S
H1068 C1093 0.951 . S
H1069 C1095 0.950 . S
H1070 C1096 0.950 . S
H1071 C1098 0.950 . S
H1072 C1101 0.950 . S
H1073 C1102 0.950 . S
H1074 C1104 0.950 . S
H1075 C1105 0.950 . S
C1076 H1058 0.951 . S
C1076 C1077 1.366 . S
C1076 C1078 1.388 . S
C1077 C1076 1.366 . S
C1077 C1081 1.385 . S
C1078 H1059 0.951 . S
C1078 C1076 1.388 . S
C1078 C1079 1.366 . S
C1079 C1078 1.366 . S
C1079 C1080 1.414 . S
C1079 C1082 1.499 . S
C1080 H1060 0.950 . S
C1080 C1079 1.414 . S
C1080 C1081 1.374 . S
C1081 H1061 0.950 . S
C1081 C1077 1.385 . S
C1081 C1080 1.374 . S
C1082 C1079 1.499 . S
C1082 C1083 1.373 . S
C1082 C1084 1.389 . S
C1083 H1062 0.950 . S
C1083 C1082 1.373 . S
C1083 C1099 1.377 . S
C1084 C1082 1.389 . S
C1084 C1085 1.524 . S
C1084 C1098 1.377 . S
C1085 C1084 1.524 . S
C1085 C1086 1.397 . S
C1085 C1090 1.363 . S
C1086 H1063 0.950 . S
C1086 C1085 1.397 . S
C1086 C1087 1.334 . S
C1087 H1064 0.950 . S
C1087 C1086 1.334 . S
C1087 C1088 1.287 . S
C1088 C1087 1.287 . S
C1088 C1089 1.524 . S
C1088 H1107 0.913 . S
C1089 H1065 0.950 . S
C1089 C1088 1.524 . S
C1089 C1090 1.415 . S
C1090 H1066 0.950 . S
C1090 C1085 1.363 . S
C1090 C1089 1.415 . S
C1091 H1067 0.951 . S
C1091 C1092 1.366 . S
C1091 C1093 1.388 . S
C1092 C1091 1.366 . S
C1092 C1096 1.385 . S
C1093 H1068 0.951 . S
C1093 C1091 1.388 . S
C1093 C1094 1.366 . S
C1094 C1093 1.366 . S
C1094 C1095 1.414 . S
C1094 C1097 1.499 . S
C1095 H1069 0.950 . S
C1095 C1094 1.414 . S
C1095 C1096 1.374 . S
C1096 H1070 0.950 . S
C1096 C1092 1.385 . S
C1096 C1095 1.374 . S
C1097 C1094 1.499 . S
C1097 C1098 1.373 . S
C1097 C1099 1.389 . S
C1098 H1071 0.950 . S
C1098 C1084 1.377 . S
C1098 C1097 1.373 . S
C1099 C1083 1.377 . S
C1099 C1097 1.389 . S
C1099 C1100 1.524 . S
C1100 C1099 1.524 . S
C1100 C1101 1.397 . S
C1100 C1105 1.363 . S
C1101 H1072 0.950 . S
C1101 C1100 1.397 . S
C1101 C1102 1.334 . S
C1102 H1073 0.950 . S
C1102 C1101 1.334 . S
C1102 C1103 1.287 . S
C1103 C1102 1.287 . S
C1103 C1104 1.524 . S
C1103 H1106 0.999 . S
C1104 H1074 0.950 . S
C1104 C1103 1.524 . S
C1104 C1105 1.415 . S
C1105 H1075 0.950 . S
C1105 C1100 1.363 . S
C1105 C1104 1.415 . S
H1106 C1103 0.999 . S
H1107 C1088 0.913 . S
H1108 C1126 0.951 . S
H1109 C1128 0.951 . S
H1110 C1130 0.950 . S
H1111 C1131 0.950 . S
H1112 C1133 0.950 . S
H1113 C1136 0.950 . S
H1114 C1137 0.950 . S
H1115 C1139 0.950 . S
H1116 C1140 0.950 . S
H1117 C1141 0.951 . S
H1118 C1143 0.951 . S
H1119 C1145 0.950 . S
H1120 C1146 0.950 . S
H1121 C1148 0.950 . S
H1122 C1151 0.950 . S
H1123 C1152 0.950 . S
H1124 C1154 0.950 . S
H1125 C1155 0.950 . S
C1126 H1108 0.951 . S
C1126 C1127 1.366 . S
C1126 C1128 1.388 . S
C1127 C1126 1.366 . S
C1127 C1131 1.385 . S
C1128 H1109 0.951 . S
C1128 C1126 1.388 . S
C1128 C1129 1.366 . S
C1129 C1128 1.366 . S
C1129 C1130 1.414 . S
C1129 C1132 1.499 . S
C1130 H1110 0.950 . S
C1130 C1129 1.414 . S
C1130 C1131 1.374 . S
C1131 H1111 0.950 . S
C1131 C1127 1.385 . S
C1131 C1130 1.374 . S
C1132 C1129 1.499 . S
C1132 C1133 1.373 . S
C1132 C1134 1.389 . S
C1133 H1112 0.950 . S
C1133 C1132 1.373 . S
C1133 C1149 1.377 . S
C1134 C1132 1.389 . S
C1134 C1135 1.524 . S
C1134 C1148 1.377 . S
C1135 C1134 1.524 . S
C1135 C1136 1.397 . S
C1135 C1140 1.363 . S
C1136 H1113 0.950 . S
C1136 C1135 1.397 . S
C1136 C1137 1.334 . S
C1137 H1114 0.950 . S
C1137 C1136 1.334 . S
C1137 C1138 1.287 . S
C1138 C1137 1.287 . S
C1138 C1139 1.524 . S
C1138 H1157 0.913 . S
C1139 H1115 0.950 . S
C1139 C1138 1.524 . S
C1139 C1140 1.415 . S
C1140 H1116 0.950 . S
C1140 C1135 1.363 . S
C1140 C1139 1.415 . S
C1141 H1117 0.951 . S
C1141 C1142 1.366 . S
C1141 C1143 1.388 . S
C1142 C1141 1.366 . S
C1142 C1146 1.385 . S
C1143 H1118 0.951 . S
C1143 C1141 1.388 . S
C1143 C1144 1.366 . S
C1144 C1143 1.366 . S
C1144 C1145 1.414 . S
C1144 C1147 1.499 . S
C1145 H1119 0.950 . S
C1145 C1144 1.414 . S
C1145 C1146 1.374 . S
C1146 H1120 0.950 . S
C1146 C1142 1.385 . S
C1146 C1145 1.374 . S
C1147 C1144 1.499 . S
C1147 C1148 1.373 . S
C1147 C1149 1.389 . S
C1148 H1121 0.950 . S
C1148 C1134 1.377 . S
C1148 C1147 1.373 . S
C1149 C1133 1.377 . S
C1149 C1147 1.389 . S
C1149 C1150 1.524 . S
C1150 C1149 1.524 . S
C1150 C1151 1.397 . S
C1150 C1155 1.363 . S
C1151 H1122 0.950 . S
C1151 C1150 1.397 . S
C1151 C1152 1.334 . S
C1152 H1123 0.950 . S
C1152 C1151 1.334 . S
C1152 C1153 1.287 . S
C1153 C1152 1.287 . S
C1153 C1154 1.524 . S
C1153 H1156 0.999 . S
C1154 H1124 0.950 . S
C1154 C1153 1.524 . S
C1154 C1155 1.415 . S
C1155 H1125 0.950 . S
C1155 C1150 1.363 . S
C1155 C1154 1.415 . S
H1156 C1153 0.999 . S
H1157 C1138 0.913 . S
H1158 C1176 0.951 . S
H1159 C1178 0.951 . S
H1160 C1180 0.950 . S
H1161 C1181 0.950 . S
H1162 C1183 0.950 . S
H1163 C1186 0.950 . S
H1164 C1187 0.950 . S
H1165 C1189 0.950 . S
H1166 C1190 0.950 . S
H1167 C1191 0.951 . S
H1168 C1193 0.951 . S
H1169 C1195 0.950 . S
H1170 C1196 0.950 . S
H1171 C1198 0.950 . S
H1172 C1201 0.950 . S
H1173 C1202 0.950 . S
H1174 C1204 0.950 . S
H1175 C1205 0.950 . S
C1176 H1158 0.951 . S
C1176 C1177 1.366 . S
C1176 C1178 1.388 . S
C1177 C1176 1.366 . S
C1177 C1181 1.385 . S
C1178 H1159 0.951 . S
C1178 C1176 1.388 . S
C1178 C1179 1.366 . S
C1179 C1178 1.366 . S
C1179 C1180 1.414 . S
C1179 C1182 1.499 . S
C1180 H1160 0.950 . S
C1180 C1179 1.414 . S
C1180 C1181 1.374 . S
C1181 H1161 0.950 . S
C1181 C1177 1.385 . S
C1181 C1180 1.374 . S
C1182 C1179 1.499 . S
C1182 C1183 1.373 . S
C1182 C1184 1.389 . S
C1183 H1162 0.950 . S
C1183 C1182 1.373 . S
C1183 C1199 1.377 . S
C1184 C1182 1.389 . S
C1184 C1185 1.524 . S
C1184 C1198 1.377 . S
C1185 C1184 1.524 . S
C1185 C1186 1.397 . S
C1185 C1190 1.363 . S
C1186 H1163 0.950 . S
C1186 C1185 1.397 . S
C1186 C1187 1.334 . S
C1187 H1164 0.950 . S
C1187 C1186 1.334 . S
C1187 C1188 1.287 . S
C1188 C1187 1.287 . S
C1188 C1189 1.524 . S
C1188 H1207 0.913 . S
C1189 H1165 0.950 . S
C1189 C1188 1.524 . S
C1189 C1190 1.415 . S
C1190 H1166 0.950 . S
C1190 C1185 1.363 . S
C1190 C1189 1.415 . S
C1191 H1167 0.951 . S
C1191 C1192 1.366 . S
C1191 C1193 1.388 . S
C1192 C1191 1.366 . S
C1192 C1196 1.385 . S
C1193 H1168 0.951 . S
C1193 C1191 1.388 . S
C1193 C1194 1.366 . S
C1194 C1193 1.366 . S
C1194 C1195 1.414 . S
C1194 C1197 1.499 . S
C1195 H1169 0.950 . S
C1195 C1194 1.414 . S
C1195 C1196 1.374 . S
C1196 H1170 0.950 . S
C1196 C1192 1.385 . S
C1196 C1195 1.374 . S
C1197 C1194 1.499 . S
C1197 C1198 1.373 . S
C1197 C1199 1.389 . S
C1198 H1171 0.950 . S
C1198 C1184 1.377 . S
C1198 C1197 1.373 . S
C1199 C1183 1.377 . S
C1199 C1197 1.389 . S
C1199 C1200 1.524 . S
C1200 C1199 1.524 . S
C1200 C1201 1.397 . S
C1200 C1205 1.363 . S
C1201 H1172 0.950 . S
C1201 C1200 1.397 . S
C1201 C1202 1.334 . S
C1202 H1173 0.950 . S
C1202 C1201 1.334 . S
C1202 C1203 1.287 . S
C1203 C1202 1.287 . S
C1203 C1204 1.524 . S
C1203 H1206 0.999 . S
C1204 H1174 0.950 . S
C1204 C1203 1.524 . S
C1204 C1205 1.415 . S
C1205 H1175 0.950 . S
C1205 C1200 1.363 . S
C1205 C1204 1.415 . S
H1206 C1203 0.999 . S
H1207 C1188 0.913 . S
H1208 C1226 0.951 . S
H1209 C1228 0.951 . S
H1210 C1230 0.950 . S
H1211 C1231 0.950 . S
H1212 C1233 0.950 . S
H1213 C1236 0.950 . S
H1214 C1237 0.950 . S
H1215 C1239 0.950 . S
H1216 C1240 0.950 . S
H1217 C1241 0.951 . S
H1218 C1243 0.951 . S
H1219 C1245 0.950 . S
H1220 C1246 0.950 . S
H1221 C1248 0.950 . S
H1222 C1251 0.950 . S
H1223 C1252 0.950 . S
H1224 C1254 0.950 . S
H1225 C1255 0.950 . S
C1226 H1208 0.951 . S
C1226 C1227 1.366 . S
C1226 C1228 1.388 . S
C1227 C1226 1.366 . S
C1227 C1231 1.385 . S
C1228 H1209 0.951 . S
C1228 C1226 1.388 . S
C1228 C1229 1.366 . S
C1229 C1228 1.366 . S
C1229 C1230 1.414 . S
C1229 C1232 1.499 . S
C1230 H1210 0.950 . S
C1230 C1229 1.414 . S
C1230 C1231 1.374 . S
C1231 H1211 0.950 . S
C1231 C1227 1.385 . S
C1231 C1230 1.374 . S
C1232 C1229 1.499 . S
C1232 C1233 1.373 . S
C1232 C1234 1.389 . S
C1233 H1212 0.950 . S
C1233 C1232 1.373 . S
C1233 C1249 1.377 . S
C1234 C1232 1.389 . S
C1234 C1235 1.524 . S
C1234 C1248 1.377 . S
C1235 C1234 1.524 . S
C1235 C1236 1.397 . S
C1235 C1240 1.363 . S
C1236 H1213 0.950 . S
C1236 C1235 1.397 . S
C1236 C1237 1.334 . S
C1237 H1214 0.950 . S
C1237 C1236 1.334 . S
C1237 C1238 1.287 . S
C1238 C1237 1.287 . S
C1238 C1239 1.524 . S
C1238 H1257 0.913 . S
C1239 H1215 0.950 . S
C1239 C1238 1.524 . S
C1239 C1240 1.415 . S
C1240 H1216 0.950 . S
C1240 C1235 1.363 . S
C1240 C1239 1.415 . S
C1241 H1217 0.951 . S
C1241 C1242 1.366 . S
C1241 C1243 1.388 . S
C1242 C1241 1.366 . S
C1242 C1246 1.385 . S
C1243 H1218 0.951 . S
C1243 C1241 1.388 . S
C1243 C1244 1.366 . S
C1244 C1243 1.366 . S
C1244 C1245 1.414 . S
C1244 C1247 1.499 . S
C1245 H1219 0.950 . S
C1245 C1244 1.414 . S
C1245 C1246 1.374 . S
C1246 H1220 0.950 . S
C1246 C1242 1.385 . S
C1246 C1245 1.374 . S
C1247 C1244 1.499 . S
C1247 C1248 1.373 . S
C1247 C1249 1.389 . S
C1248 H1221 0.950 . S
C1248 C1234 1.377 . S
C1248 C1247 1.373 . S
C1249 C1233 1.377 . S
C1249 C1247 1.389 . S
C1249 C1250 1.524 . S
C1250 C1249 1.524 . S
C1250 C1251 1.397 . S
C1250 C1255 1.363 . S
C1251 H1222 0.950 . S
C1251 C1250 1.397 . S
C1251 C1252 1.334 . S
C1252 H1223 0.950 . S
C1252 C1251 1.334 . S
C1252 C1253 1.287 . S
C1253 C1252 1.287 . S
C1253 C1254 1.524 . S
C1253 H1256 0.999 . S
C1254 H1224 0.950 . S
C1254 C1253 1.524 . S
C1254 C1255 1.415 . S
C1255 H1225 0.950 . S
C1255 C1250 1.363 . S
C1255 C1254 1.415 . S
H1256 C1253 0.999 . S
H1257 C1238 0.913 . S
H1258 C1276 0.951 . S
H1259 C1278 0.951 . S
H1260 C1280 0.950 . S
H1261 C1281 0.950 . S
H1262 C1283 0.950 . S
H1263 C1286 0.950 . S
H1264 C1287 0.950 . S
H1265 C1289 0.950 . S
H1266 C1290 0.950 . S
H1267 C1291 0.951 . S
H1268 C1293 0.951 . S
H1269 C1295 0.950 . S
H1270 C1296 0.950 . S
H1271 C1298 0.950 . S
H1272 C1301 0.950 . S
H1273 C1302 0.950 . S
H1274 C1304 0.950 . S
H1275 C1305 0.950 . S
C1276 H1258 0.951 . S
C1276 C1277 1.366 . S
C1276 C1278 1.388 . S
C1277 C1276 1.366 . S
C1277 C1281 1.385 . S
C1278 H1259 0.951 . S
C1278 C1276 1.388 . S
C1278 C1279 1.366 . S
C1279 C1278 1.366 . S
C1279 C1280 1.414 . S
C1279 C1282 1.499 . S
C1280 H1260 0.950 . S
C1280 C1279 1.414 . S
C1280 C1281 1.374 . S
C1281 H1261 0.950 . S
C1281 C1277 1.385 . S
C1281 C1280 1.374 . S
C1282 C1279 1.499 . S
C1282 C1283 1.373 . S
C1282 C1284 1.389 . S
C1283 H1262 0.950 . S
C1283 C1282 1.373 . S
C1283 C1299 1.377 . S
C1284 C1282 1.389 . S
C1284 C1285 1.524 . S
C1284 C1298 1.377 . S
C1285 C1284 1.524 . S
C1285 C1286 1.397 . S
C1285 C1290 1.363 . S
C1286 H1263 0.950 . S
C1286 C1285 1.397 . S
C1286 C1287 1.334 . S
C1287 H1264 0.950 . S
C1287 C1286 1.334 . S
C1287 C1288 1.287 . S
C1288 C1287 1.287 . S
C1288 C1289 1.524 . S
C1288 H1307 0.913 . S
C1289 H1265 0.950 . S
C1289 C1288 1.524 . S
C1289 C1290 1.415 . S
C1290 H1266 0.950 . S
C1290 C1285 1.363 . S
C1290 C1289 1.415 . S
C1291 H1267 0.951 . S
C1291 C1292 1.366 . S
C1291 C1293 1.388 . S
C1292 C1291 1.366 . S
C1292 C1296 1.385 . S
C1293 H1268 0.951 . S
C1293 C1291 1.388 . S
C1293 C1294 1.366 . S
C1294 C1293 1.366 . S
C1294 C1295 1.414 . S
C1294 C1297 1.499 . S
C1295 H1269 0.950 . S
C1295 C1294 1.414 . S
C1295 C1296 1.374 . S
C1296 H1270 0.950 . S
C1296 C1292 1.385 . S
C1296 C1295 1.374 . S
C1297 C1294 1.499 . S
C1297 C1298 1.373 . S
C1297 C1299 1.389 . S
C1298 H1271 0.950 . S
C1298 C1284 1.377 . S
C1298 C1297 1.373 . S
C1299 C1283 1.377 . S
C1299 C1297 1.389 . S
C1299 C1300 1.524 . S
C1300 C1299 1.524 . S
C1300 C1301 1.397 . S
C1300 C1305 1.363 . S
C1301 H1272 0.950 . S
C1301 C1300 1.397 . S
C1301 C1302 1.334 . S
C1302 H1273 0.950 . S
C1302 C1301 1.334 . S
C1302 C1303 1.287 . S
C1303 C1302 1.287 . S
C1303 C1304 1.524 . S
C1303 H1306 0.999 . S
C1304 H1274 0.950 . S
C1304 C1303 1.524 . S
C1304 C1305 1.415 . S
C1305 H1275 0.950 . S
C1305 C1300 1.363 . S
C1305 C1304 1.415 . S
H1306 C1303 0.999 . S
H1307 C1288 0.913 . S
H1308 C1326 0.951 . S
H1309 C1328 0.951 . S
H1310 C1330 0.950 . S
H1311 C1331 0.950 . S
H1312 C1333 0.950 . S
H1313 C1336 0.950 . S
H1314 C1337 0.950 . S
H1315 C1339 0.950 . S
H1316 C1340 0.950 . S
H1317 C1341 0.951 . S
H1318 C1343 0.951 . S
H1319 C1345 0.950 . S
H1320 C1346 0.950 . S
H1321 C1348 0.950 . S
H1322 C1351 0.950 . S
H1323 C1352 0.950 . S
H1324 C1354 0.950 . S
H1325 C1355 0.950 . S
C1326 H1308 0.951 . S
C1326 C1327 1.366 . S
C1326 C1328 1.388 . S
C1327 C1326 1.366 . S
C1327 C1331 1.385 . S
C1328 H1309 0.951 . S
C1328 C1326 1.388 . S
C1328 C1329 1.366 . S
C1329 C1328 1.366 . S
C1329 C1330 1.414 . S
C1329 C1332 1.499 . S
C1330 H1310 0.950 . S
C1330 C1329 1.414 . S
C1330 C1331 1.374 . S
C1331 H1311 0.950 . S
C1331 C1327 1.385 . S
C1331 C1330 1.374 . S
C1332 C1329 1.499 . S
C1332 C1333 1.373 . S
C1332 C1334 1.389 . S
C1333 H1312 0.950 . S
C1333 C1332 1.373 . S
C1333 C1349 1.377 . S
C1334 C1332 1.389 . S
C1334 C1335 1.524 . S
C1334 C1348 1.377 . S
C1335 C1334 1.524 . S
C1335 C1336 1.397 . S
C1335 C1340 1.363 . S
C1336 H1313 0.950 . S
C1336 C1335 1.397 . S
C1336 C1337 1.334 . S
C1337 H1314 0.950 . S
C1337 C1336 1.334 . S
C1337 C1338 1.287 . S
C1338 C1337 1.287 . S
C1338 C1339 1.524 . S
C1338 H1357 0.913 . S
C1339 H1315 0.950 . S
C1339 C1338 1.524 . S
C1339 C1340 1.415 . S
C1340 H1316 0.950 . S
C1340 C1335 1.363 . S
C1340 C1339 1.415 . S
C1341 H1317 0.951 . S
C1341 C1342 1.366 . S
C1341 C1343 1.388 . S
C1342 C1341 1.366 . S
C1342 C1346 1.385 . S
C1343 H1318 0.951 . S
C1343 C1341 1.388 . S
C1343 C1344 1.366 . S
C1344 C1343 1.366 . S
C1344 C1345 1.414 . S
C1344 C1347 1.499 . S
C1345 H1319 0.950 . S
C1345 C1344 1.414 . S
C1345 C1346 1.374 . S
C1346 H1320 0.950 . S
C1346 C1342 1.385 . S
C1346 C1345 1.374 . S
C1347 C1344 1.499 . S
C1347 C1348 1.373 . S
C1347 C1349 1.389 . S
C1348 H1321 0.950 . S
C1348 C1334 1.377 . S
C1348 C1347 1.373 . S
C1349 C1333 1.377 . S
C1349 C1347 1.389 . S
C1349 C1350 1.524 . S
C1350 C1349 1.524 . S
C1350 C1351 1.397 . S
C1350 C1355 1.363 . S
C1351 H1322 0.950 . S
C1351 C1350 1.397 . S
C1351 C1352 1.334 . S
C1352 H1323 0.950 . S
C1352 C1351 1.334 . S
C1352 C1353 1.287 . S
C1353 C1352 1.287 . S
C1353 C1354 1.524 . S
C1353 H1356 0.999 . S
C1354 H1324 0.950 . S
C1354 C1353 1.524 . S
C1354 C1355 1.415 . S
C1355 H1325 0.950 . S
C1355 C1350 1.363 . S
C1355 C1354 1.415 . S
H1356 C1353 0.999 . S
H1357 C1338 0.913 . S
H1358 C1376 0.951 . S
H1359 C1378 0.951 . S
H1360 C1380 0.950 . S
H1361 C1381 0.950 . S
H1362 C1383 0.950 . S
H1363 C1386 0.950 . S
H1364 C1387 0.950 . S
H1365 C1389 0.950 . S
H1366 C1390 0.950 . S
H1367 C1391 0.951 . S
H1368 C1393 0.951 . S
H1369 C1395 0.950 . S
H1370 C1396 0.950 . S
H1371 C1398 0.950 . S
H1372 C1401 0.950 . S
H1373 C1402 0.950 . S
H1374 C1404 0.950 . S
H1375 C1405 0.950 . S
C1376 H1358 0.951 . S
C1376 C1377 1.366 . S
C1376 C1378 1.388 . S
C1377 C1376 1.366 . S
C1377 C1381 1.385 . S
C1378 H1359 0.951 . S
C1378 C1376 1.388 . S
C1378 C1379 1.366 . S
C1379 C1378 1.366 . S
C1379 C1380 1.414 . S
C1379 C1382 1.499 . S
C1380 H1360 0.950 . S
C1380 C1379 1.414 . S
C1380 C1381 1.374 . S
C1381 H1361 0.950 . S
C1381 C1377 1.385 . S
C1381 C1380 1.374 . S
C1382 C1379 1.499 . S
C1382 C1383 1.373 . S
C1382 C1384 1.389 . S
C1383 H1362 0.950 . S
C1383 C1382 1.373 . S
C1383 C1399 1.377 . S
C1384 C1382 1.389 . S
C1384 C1385 1.524 . S
C1384 C1398 1.377 . S
C1385 C1384 1.524 . S
C1385 C1386 1.397 . S
C1385 C1390 1.363 . S
C1386 H1363 0.950 . S
C1386 C1385 1.397 . S
C1386 C1387 1.334 . S
C1387 H1364 0.950 . S
C1387 C1386 1.334 . S
C1387 C1388 1.287 . S
C1388 C1387 1.287 . S
C1388 C1389 1.524 . S
C1388 H1407 0.913 . S
C1389 H1365 0.950 . S
C1389 C1388 1.524 . S
C1389 C1390 1.415 . S
C1390 H1366 0.950 . S
C1390 C1385 1.363 . S
C1390 C1389 1.415 . S
C1391 H1367 0.951 . S
C1391 C1392 1.366 . S
C1391 C1393 1.388 . S
C1392 C1391 1.366 . S
C1392 C1396 1.385 . S
C1393 H1368 0.951 . S
C1393 C1391 1.388 . S
C1393 C1394 1.366 . S
C1394 C1393 1.366 . S
C1394 C1395 1.414 . S
C1394 C1397 1.499 . S
C1395 H1369 0.950 . S
C1395 C1394 1.414 . S
C1395 C1396 1.374 . S
C1396 H1370 0.950 . S
C1396 C1392 1.385 . S
C1396 C1395 1.374 . S
C1397 C1394 1.499 . S
C1397 C1398 1.373 . S
C1397 C1399 1.389 . S
C1398 H1371 0.950 . S
C1398 C1384 1.377 . S
C1398 C1397 1.373 . S
C1399 C1383 1.377 . S
C1399 C1397 1.389 . S
C1399 C1400 1.524 . S
C1400 C1399 1.524 . S
C1400 C1401 1.397 . S
C1400 C1405 1.363 . S
C1401 H1372 0.950 . S
C1401 C1400 1.397 . S
C1401 C1402 1.334 . S
C1402 H1373 0.950 . S
C1402 C1401 1.334 . S
C1402 C1403 1.287 . S
C1403 C1402 1.287 . S
C1403 C1404 1.524 . S
C1403 H1406 0.999 . S
C1404 H1374 0.950 . S
C1404 C1403 1.524 . S
C1404 C1405 1.415 . S
C1405 H1375 0.950 . S
C1405 C1400 1.363 . S
C1405 C1404 1.415 . S
H1406 C1403 0.999 . S
H1407 C1388 0.913 . S
H1408 C1426 0.951 . S
H1409 C1428 0.951 . S
H1410 C1430 0.950 . S
H1411 C1431 0.950 . S
H1412 C1433 0.950 . S
H1413 C1436 0.950 . S
H1414 C1437 0.950 . S
H1415 C1439 0.950 . S
H1416 C1440 0.950 . S
H1417 C1441 0.951 . S
H1418 C1443 0.951 . S
H1419 C1445 0.950 . S
H1420 C1446 0.950 . S
H1421 C1448 0.950 . S
H1422 C1451 0.950 . S
H1423 C1452 0.950 . S
H1424 C1454 0.950 . S
H1425 C1455 0.950 . S
C1426 H1408 0.951 . S
C1426 C1427 1.366 . S
C1426 C1428 1.388 . S
C1427 C1426 1.366 . S
C1427 C1431 1.385 . S
C1428 H1409 0.951 . S
C1428 C1426 1.388 . S
C1428 C1429 1.366 . S
C1429 C1428 1.366 . S
C1429 C1430 1.414 . S
C1429 C1432 1.499 . S
C1430 H1410 0.950 . S
C1430 C1429 1.414 . S
C1430 C1431 1.374 . S
C1431 H1411 0.950 . S
C1431 C1427 1.385 . S
C1431 C1430 1.374 . S
C1432 C1429 1.499 . S
C1432 C1433 1.373 . S
C1432 C1434 1.389 . S
C1433 H1412 0.950 . S
C1433 C1432 1.373 . S
C1433 C1449 1.377 . S
C1434 C1432 1.389 . S
C1434 C1435 1.524 . S
C1434 C1448 1.377 . S
C1435 C1434 1.524 . S
C1435 C1436 1.397 . S
C1435 C1440 1.363 . S
C1436 H1413 0.950 . S
C1436 C1435 1.397 . S
C1436 C1437 1.334 . S
C1437 H1414 0.950 . S
C1437 C1436 1.334 . S
C1437 C1438 1.287 . S
C1438 C1437 1.287 . S
C1438 C1439 1.524 . S
C1438 H1457 0.913 . S
C1439 H1415 0.950 . S
C1439 C1438 1.524 . S
C1439 C1440 1.415 . S
C1440 H1416 0.950 . S
C1440 C1435 1.363 . S
C1440 C1439 1.415 . S
C1441 H1417 0.951 . S
C1441 C1442 1.366 . S
C1441 C1443 1.388 . S
C1442 C1441 1.366 . S
C1442 C1446 1.385 . S
C1443 H1418 0.951 . S
C1443 C1441 1.388 . S
C1443 C1444 1.366 . S
C1444 C1443 1.366 . S
C1444 C1445 1.414 . S
C1444 C1447 1.499 . S
C1445 H1419 0.950 . S
C1445 C1444 1.414 . S
C1445 C1446 1.374 . S
C1446 H1420 0.950 . S
C1446 C1442 1.385 . S
C1446 C1445 1.374 . S
C1447 C1444 1.499 . S
C1447 C1448 1.373 . S
C1447 C1449 1.389 . S
C1448 H1421 0.950 . S
C1448 C1434 1.377 . S
C1448 C1447 1.373 . S
C1449 C1433 1.377 . S
C1449 C1447 1.389 . S
C1449 C1450 1.524 . S
C1450 C1449 1.524 . S
C1450 C1451 1.397 . S
C1450 C1455 1.363 . S
C1451 H1422 0.950 . S
C1451 C1450 1.397 . S
C1451 C1452 1.334 . S
C1452 H1423 0.950 . S
C1452 C1451 1.334 . S
C1452 C1453 1.287 . S
C1453 C1452 1.287 . S
C1453 C1454 1.524 . S
C1453 H1456 0.999 . S
C1454 H1424 0.950 . S
C1454 C1453 1.524 . S
C1454 C1455 1.415 . S
C1455 H1425 0.950 . S
C1455 C1450 1.363 . S
C1455 C1454 1.415 . S
H1456 C1453 0.999 . S
H1457 C1438 0.913 . S
H1458 C1476 0.951 . S
H1459 C1478 0.951 . S
H1460 C1480 0.950 . S
H1461 C1481 0.950 . S
H1462 C1483 0.950 . S
H1463 C1486 0.950 . S
H1464 C1487 0.950 . S
H1465 C1489 0.950 . S
H1466 C1490 0.950 . S
H1467 C1491 0.951 . S
H1468 C1493 0.951 . S
H1469 C1495 0.950 . S
H1470 C1496 0.950 . S
H1471 C1498 0.950 . S
H1472 C1501 0.950 . S
H1473 C1502 0.950 . S
H1474 C1504 0.950 . S
H1475 C1505 0.950 . S
C1476 H1458 0.951 . S
C1476 C1477 1.366 . S
C1476 C1478 1.388 . S
C1477 C1476 1.366 . S
C1477 C1481 1.385 . S
C1478 H1459 0.951 . S
C1478 C1476 1.388 . S
C1478 C1479 1.366 . S
C1479 C1478 1.366 . S
C1479 C1480 1.414 . S
C1479 C1482 1.499 . S
C1480 H1460 0.950 . S
C1480 C1479 1.414 . S
C1480 C1481 1.374 . S
C1481 H1461 0.950 . S
C1481 C1477 1.385 . S
C1481 C1480 1.374 . S
C1482 C1479 1.499 . S
C1482 C1483 1.373 . S
C1482 C1484 1.389 . S
C1483 H1462 0.950 . S
C1483 C1482 1.373 . S
C1483 C1499 1.377 . S
C1484 C1482 1.389 . S
C1484 C1485 1.524 . S
C1484 C1498 1.377 . S
C1485 C1484 1.524 . S
C1485 C1486 1.397 . S
C1485 C1490 1.363 . S
C1486 H1463 0.950 . S
C1486 C1485 1.397 . S
C1486 C1487 1.334 . S
C1487 H1464 0.950 . S
C1487 C1486 1.334 . S
C1487 C1488 1.287 . S
C1488 C1487 1.287 . S
C1488 C1489 1.524 . S
C1488 H1507 0.913 . S
C1489 H1465 0.950 . S
C1489 C1488 1.524 . S
C1489 C1490 1.415 . S
C1490 H1466 0.950 . S
C1490 C1485 1.363 . S
C1490 C1489 1.415 . S
C1491 H1467 0.951 . S
C1491 C1492 1.366 . S
C1491 C1493 1.388 . S
C1492 C1491 1.366 . S
C1492 C1496 1.385 . S
C1493 H1468 0.951 . S
C1493 C1491 1.388 . S
C1493 C1494 1.366 . S
C1494 C1493 1.366 . S
C1494 C1495 1.414 . S
C1494 C1497 1.499 . S
C1495 H1469 0.950 . S
C1495 C1494 1.414 . S
C1495 C1496 1.374 . S
C1496 H1470 0.950 . S
C1496 C1492 1.385 . S
C1496 C1495 1.374 . S
C1497 C1494 1.499 . S
C1497 C1498 1.373 . S
C1497 C1499 1.389 . S
C1498 H1471 0.950 . S
C1498 C1484 1.377 . S
C1498 C1497 1.373 . S
C1499 C1483 1.377 . S
C1499 C1497 1.389 . S
C1499 C1500 1.524 . S
C1500 C1499 1.524 . S
C1500 C1501 1.397 . S
C1500 C1505 1.363 . S
C1501 H1472 0.950 . S
C1501 C1500 1.397 . S
C1501 C1502 1.334 . S
C1502 H1473 0.950 . S
C1502 C1501 1.334 . S
C1502 C1503 1.287 . S
C1503 C1502 1.287 . S
C1503 C1504 1.524 . S
C1503 H1506 0.999 . S
C1504 H1474 0.950 . S
C1504 C1503 1.524 . S
C1504 C1505 1.415 . S
C1505 H1475 0.950 . S
C1505 C1500 1.363 . S
C1505 C1504 1.415 . S
H1506 C1503 0.999 . S
H1507 C1488 0.913 . S
H1508 C1526 0.951 . S
H1509 C1528 0.951 . S
H1510 C1530 0.950 . S
H1511 C1531 0.950 . S
H1512 C1533 0.950 . S
H1513 C1536 0.950 . S
H1514 C1537 0.950 . S
H1515 C1539 0.950 . S
H1516 C1540 0.950 . S
H1517 C1541 0.951 . S
H1518 C1543 0.951 . S
H1519 C1545 0.950 . S
H1520 C1546 0.950 . S
H1521 C1548 0.950 . S
H1522 C1551 0.950 . S
H1523 C1552 0.950 . S
H1524 C1554 0.950 . S
H1525 C1555 0.950 . S
C1526 H1508 0.951 . S
C1526 C1527 1.366 . S
C1526 C1528 1.388 . S
C1527 C1526 1.366 . S
C1527 C1531 1.385 . S
C1528 H1509 0.951 . S
C1528 C1526 1.388 . S
C1528 C1529 1.366 . S
C1529 C1528 1.366 . S
C1529 C1530 1.414 . S
C1529 C1532 1.499 . S
C1530 H1510 0.950 . S
C1530 C1529 1.414 . S
C1530 C1531 1.374 . S
C1531 H1511 0.950 . S
C1531 C1527 1.385 . S
C1531 C1530 1.374 . S
C1532 C1529 1.499 . S
C1532 C1533 1.373 . S
C1532 C1534 1.389 . S
C1533 H1512 0.950 . S
C1533 C1532 1.373 . S
C1533 C1549 1.377 . S
C1534 C1532 1.389 . S
C1534 C1535 1.524 . S
C1534 C1548 1.377 . S
C1535 C1534 1.524 . S
C1535 C1536 1.397 . S
C1535 C1540 1.363 . S
C1536 H1513 0.950 . S
C1536 C1535 1.397 . S
C1536 C1537 1.334 . S
C1537 H1514 0.950 . S
C1537 C1536 1.334 . S
C1537 C1538 1.287 . S
C1538 C1537 1.287 . S
C1538 C1539 1.524 . S
C1538 H1557 0.913 . S
C1539 H1515 0.950 . S
C1539 C1538 1.524 . S
C1539 C1540 1.415 . S
C1540 H1516 0.950 . S
C1540 C1535 1.363 . S
C1540 C1539 1.415 . S
C1541 H1517 0.951 . S
C1541 C1542 1.366 . S
C1541 C1543 1.388 . S
C1542 C1541 1.366 . S
C1542 C1546 1.385 . S
C1543 H1518 0.951 . S
C1543 C1541 1.388 . S
C1543 C1544 1.366 . S
C1544 C1543 1.366 . S
C1544 C1545 1.414 . S
C1544 C1547 1.499 . S
C1545 H1519 0.950 . S
C1545 C1544 1.414 . S
C1545 C1546 1.374 . S
C1546 H1520 0.950 . S
C1546 C1542 1.385 . S
C1546 C1545 1.374 . S
C1547 C1544 1.499 . S
C1547 C1548 1.373 . S
C1547 C1549 1.389 . S
C1548 H1521 0.950 . S
C1548 C1534 1.377 . S
C1548 C1547 1.373 . S
C1549 C1533 1.377 . S
C1549 C1547 1.389 . S
C1549 C1550 1.524 . S
C1550 C1549 1.524 . S
C1550 C1551 1.397 . S
C1550 C1555 1.363 . S
C1551 H1522 0.950 . S
C1551 C1550 1.397 . S
C1551 C1552 1.334 . S
C1552 H1523 0.950 . S
C1552 C1551 1.334 . S
C1552 C1553 1.287 . S
C1553 C1552 1.287 . S
C1553 C1554 1.524 . S
C1553 H1556 0.999 . S
C1554 H1524 0.950 . S
C1554 C1553 1.524 . S
C1554 C1555 1.415 . S
C1555 H1525 0.950 . S
C1555 C1550 1.363 . S
C1555 C1554 1.415 . S
H1556 C1553 0.999 . S
H1557 C1538 0.913 . S
H1558 C1576 0.951 . S
H1559 C1578 0.951 . S
H1560 C1580 0.950 . S
H1561 C1581 0.950 . S
H1562 C1583 0.950 . S
H1563 C1586 0.950 . S
H1564 C1587 0.950 . S
H1565 C1589 0.950 . S
H1566 C1590 0.950 . S
H1567 C1591 0.951 . S
H1568 C1593 0.951 . S
H1569 C1595 0.950 . S
H1570 C1596 0.950 . S
H1571 C1598 0.950 . S
H1572 C1601 0.950 . S
H1573 C1602 0.950 . S
H1574 C1604 0.950 . S
H1575 C1605 0.950 . S
C1576 H1558 0.951 . S
C1576 C1577 1.366 . S
C1576 C1578 1.388 . S
C1577 C1576 1.366 . S
C1577 C1581 1.385 . S
C1578 H1559 0.951 . S
C1578 C1576 1.388 . S
C1578 C1579 1.366 . S
C1579 C1578 1.366 . S
C1579 C1580 1.414 . S
C1579 C1582 1.499 . S
C1580 H1560 0.950 . S
C1580 C1579 1.414 . S
C1580 C1581 1.374 . S
C1581 H1561 0.950 . S
C1581 C1577 1.385 . S
C1581 C1580 1.374 . S
C1582 C1579 1.499 . S
C1582 C1583 1.373 . S
C1582 C1584 1.389 . S
C1583 H1562 0.950 . S
C1583 C1582 1.373 . S
C1583 C1599 1.377 . S
C1584 C1582 1.389 . S
C1584 C1585 1.524 . S
C1584 C1598 1.377 . S
C1585 C1584 1.524 . S
C1585 C1586 1.397 . S
C1585 C1590 1.363 . S
C1586 H1563 0.950 . S
C1586 C1585 1.397 . S
C1586 C1587 1.334 . S
C1587 H1564 0.950 . S
C1587 C1586 1.334 . S
C1587 C1588 1.287 . S
C1588 C1587 1.287 . S
C1588 C1589 1.524 . S
C1588 H1607 0.913 . S
C1589 H1565 0.950 . S
C1589 C1588 1.524 . S
C1589 C1590 1.415 . S
C1590 H1566 0.950 . S
C1590 C1585 1.363 . S
C1590 C1589 1.415 . S
C1591 H1567 0.951 . S
C1591 C1592 1.366 . S
C1591 C1593 1.388 . S
C1592 C1591 1.366 . S
C1592 C1596 1.385 . S
C1593 H1568 0.951 . S
C1593 C1591 1.388 . S
C1593 C1594 1.366 . S
C1594 C1593 1.366 . S
C1594 C1595 1.414 . S
C1594 C1597 1.499 . S
C1595 H1569 0.950 . S
C1595 C1594 1.414 . S
C1595 C1596 1.374 . S
C1596 H1570 0.950 . S
C1596 C1592 1.385 . S
C1596 C1595 1.374 . S
C1597 C1594 1.499 . S
C1597 C1598 1.373 . S
C1597 C1599 1.389 . S
C1598 H1571 0.950 . S
C1598 C1584 1.377 . S
C1598 C1597 1.373 . S
C1599 C1583 1.377 . S
C1599 C1597 1.389 . S
C1599 C1600 1.524 . S
C1600 C1599 1.524 . S
C1600 C1601 1.397 . S
C1600 C1605 1.363 . S
C1601 H1572 0.950 . S
C1601 C1600 1.397 . S
C1601 C1602 1.334 . S
C1602 H1573 0.950 . S
C1602 C1601 1.334 . S
C1602 C1603 1.287 . S
C1603 C1602 1.287 . S
C1603 C1604 1.524 . S
C1603 H1606 0.999 . S
C1604 H1574 0.950 . S
C1604 C1603 1.524 . S
C1604 C1605 1.415 . S
C1605 H1575 0.950 . S
C1605 C1600 1.363 . S
C1605 C1604 1.415 . S
H1606 C1603 0.999 . S
H1607 C1588 0.913 . S
H1608 C1626 0.951 . S
H1609 C1628 0.951 . S
H1610 C1630 0.950 . S
H1611 C1631 0.950 . S
H1612 C1633 0.950 . S
H1613 C1636 0.950 . S
H1614 C1637 0.950 . S
H1615 C1639 0.950 . S
H1616 C1640 0.950 . S
H1617 C1641 0.951 . S
H1618 C1643 0.951 . S
H1619 C1645 0.950 . S
H1620 C1646 0.950 . S
H1621 C1648 0.950 . S
H1622 C1651 0.950 . S
H1623 C1652 0.950 . S
H1624 C1654 0.950 . S
H1625 C1655 0.950 . S
C1626 H1608 0.951 . S
C1626 C1627 1.366 . S
C1626 C1628 1.388 . S
C1627 C1626 1.366 . S
C1627 C1631 1.385 . S
C1628 H1609 0.951 . S
C1628 C1626 1.388 . S
C1628 C1629 1.366 . S
C1629 C1628 1.366 . S
C1629 C1630 1.414 . S
C1629 C1632 1.499 . S
C1630 H1610 0.950 . S
C1630 C1629 1.414 . S
C1630 C1631 1.374 . S
C1631 H1611 0.950 . S
C1631 C1627 1.385 . S
C1631 C1630 1.374 . S
C1632 C1629 1.499 . S
C1632 C1633 1.373 . S
C1632 C1634 1.389 . S
C1633 H1612 0.950 . S
C1633 C1632 1.373 . S
C1633 C1649 1.377 . S
C1634 C1632 1.389 . S
C1634 C1635 1.524 . S
C1634 C1648 1.377 . S
C1635 C1634 1.524 . S
C1635 C1636 1.397 . S
C1635 C1640 1.363 . S
C1636 H1613 0.950 . S
C1636 C1635 1.397 . S
C1636 C1637 1.334 . S
C1637 H1614 0.950 . S
C1637 C1636 1.334 . S
C1637 C1638 1.287 . S
C1638 C1637 1.287 . S
C1638 C1639 1.524 . S
C1638 H1657 0.913 . S
C1639 H1615 0.950 . S
C1639 C1638 1.524 . S
C1639 C1640 1.415 . S
C1640 H1616 0.950 . S
C1640 C1635 1.363 . S
C1640 C1639 1.415 . S
C1641 H1617 0.951 . S
C1641 C1642 1.366 . S
C1641 C1643 1.388 . S
C1642 C1641 1.366 . S
C1642 C1646 1.385 . S
C1643 H1618 0.951 . S
C1643 C1641 1.388 . S
C1643 C1644 1.366 . S
C1644 C1643 1.366 . S
C1644 C1645 1.414 . S
C1644 C1647 1.499 . S
C1645 H1619 0.950 . S
C1645 C1644 1.414 . S
C1645 C1646 1.374 . S
C1646 H1620 0.950 . S
C1646 C1642 1.385 . S
C1646 C1645 1.374 . S
C1647 C1644 1.499 . S
C1647 C1648 1.373 . S
C1647 C1649 1.389 . S
C1648 H1621 0.950 . S
C1648 C1634 1.377 . S
C1648 C1647 1.373 . S
C1649 C1633 1.377 . S
C1649 C1647 1.389 . S
C1649 C1650 1.524 . S
C1650 C1649 1.524 . S
C1650 C1651 1.397 . S
C1650 C1655 1.363 . S
C1651 H1622 0.950 . S
C1651 C1650 1.397 . S
C1651 C1652 1.334 . S
C1652 H1623 0.950 . S
C1652 C1651 1.334 . S
C1652 C1653 1.287 . S
C1653 C1652 1.287 . S
C1653 C1654 1.524 . S
C1653 H1656 0.999 . S
C1654 H1624 0.950 . S
C1654 C1653 1.524 . S
C1654 C1655 1.415 . S
C1655 H1625 0.950 . S
C1655 C1650 1.363 . S
C1655 C1654 1.415 . S
H1656 C1653 0.999 . S
H1657 C1638 0.913 . S
H1658 C1676 0.951 . S
H1659 C1678 0.951 . S
H1660 C1680 0.950 . S
H1661 C1681 0.950 . S
H1662 C1683 0.950 . S
H1663 C1686 0.950 . S
H1664 C1687 0.950 . S
H1665 C1689 0.950 . S
H1666 C1690 0.950 . S
H1667 C1691 0.951 . S
H1668 C1693 0.951 . S
H1669 C1695 0.950 . S
H1670 C1696 0.950 . S
H1671 C1698 0.950 . S
H1672 C1701 0.950 . S
H1673 C1702 0.950 . S
H1674 C1704 0.950 . S
H1675 C1705 0.950 . S
C1676 H1658 0.951 . S
C1676 C1677 1.366 . S
C1676 C1678 1.388 . S
C1677 C1676 1.366 . S
C1677 C1681 1.385 . S
C1678 H1659 0.951 . S
C1678 C1676 1.388 . S
C1678 C1679 1.366 . S
C1679 C1678 1.366 . S
C1679 C1680 1.414 . S
C1679 C1682 1.499 . S
C1680 H1660 0.950 . S
C1680 C1679 1.414 . S
C1680 C1681 1.374 . S
C1681 H1661 0.950 . S
C1681 C1677 1.385 . S
C1681 C1680 1.374 . S
C1682 C1679 1.499 . S
C1682 C1683 1.373 . S
C1682 C1684 1.389 . S
C1683 H1662 0.950 . S
C1683 C1682 1.373 . S
C1683 C1699 1.377 . S
C1684 C1682 1.389 . S
C1684 C1685 1.524 . S
C1684 C1698 1.377 . S
C1685 C1684 1.524 . S
C1685 C1686 1.397 . S
C1685 C1690 1.363 . S
C1686 H1663 0.950 . S
C1686 C1685 1.397 . S
C1686 C1687 1.334 . S
C1687 H1664 0.950 . S
C1687 C1686 1.334 . S
C1687 C1688 1.287 . S
C1688 C1687 1.287 . S
C1688 C1689 1.524 . S
C1688 H1707 0.913 . S
C1689 H1665 0.950 . S
C1689 C1688 1.524 . S
C1689 C1690 1.415 . S
C1690 H1666 0.950 . S
C1690 C1685 1.363 . S
C1690 C1689 1.415 . S
C1691 H1667 0.951 . S
C1691 C1692 1.366 . S
C1691 C1693 1.388 . S
C1692 C1691 1.366 . S
C1692 C1696 1.385 . S
C1693 H1668 0.951 . S
C1693 C1691 1.388 . S
C1693 C1694 1.366 . S
C1694 C1693 1.366 . S
C1694 C1695 1.414 . S
C1694 C1697 1.499 . S
C1695 H1669 0.950 . S
C1695 C1694 1.414 . S
C1695 C1696 1.374 . S
C1696 H1670 0.950 . S
C1696 C1692 1.385 . S
C1696 C1695 1.374 . S
C1697 C1694 1.499 . S
C1697 C1698 1.373 . S
C1697 C1699 1.389 . S
C1698 H1671 0.950 . S
C1698 C1684 1.377 . S
C1698 C1697 1.373 . S
C1699 C1683 1.377 . S
C1699 C1697 1.389 . S
C1699 C1700 1.524 . S
C1700 C1699 1.524 . S
C1700 C1701 1.397 . S
C1700 C1705 1.363 . S
C1701 H1672 0.950 . S
C1701 C1700 1.397 . S
C1701 C1702 1.334 . S
C1702 H1673 0.950 . S
C1702 C1701 1.334 . S
C1702 C1703 1.287 . S
C1703 C1702 1.287 . S
C1703 C1704 1.524 . S
C1703 H1706 0.999 . S
C1704 H1674 0.950 . S
C1704 C1703 1.524 . S
C1704 C1705 1.415 . S
C1705 H1675 0.950 . S
C1705 C1700 1.363 . S
C1705 C1704 1.415 . S
H1706 C1703 0.999 . S
H1707 C1688 0.913 . S
H1708 C1726 0.951 . S
H1709 C1728 0.951 . S
H1710 C1730 0.950 . S
H1711 C1731 0.950 . S
H1712 C1733 0.950 . S
H1713 C1736 0.950 . S
H1714 C1737 0.950 . S
H1715 C1739 0.950 . S
H1716 C1740 0.950 . S
H1717 C1741 0.951 . S
H1718 C1743 0.951 . S
H1719 C1745 0.950 . S
H1720 C1746 0.950 . S
H1721 C1748 0.950 . S
H1722 C1751 0.950 . S
H1723 C1752 0.950 . S
H1724 C1754 0.950 . S
H1725 C1755 0.950 . S
C1726 H1708 0.951 . S
C1726 C1727 1.366 . S
C1726 C1728 1.388 . S
C1727 C1726 1.366 . S
C1727 C1731 1.385 . S
C1728 H1709 0.951 . S
C1728 C1726 1.388 . S
C1728 C1729 1.366 . S
C1729 C1728 1.366 . S
C1729 C1730 1.414 . S
C1729 C1732 1.499 . S
C1730 H1710 0.950 . S
C1730 C1729 1.414 . S
C1730 C1731 1.374 . S
C1731 H1711 0.950 . S
C1731 C1727 1.385 . S
C1731 C1730 1.374 . S
C1732 C1729 1.499 . S
C1732 C1733 1.373 . S
C1732 C1734 1.389 . S
C1733 H1712 0.950 . S
C1733 C1732 1.373 . S
C1733 C1749 1.377 . S
C1734 C1732 1.389 . S
C1734 C1735 1.524 . S
C1734 C1748 1.377 . S
C1735 C1734 1.524 . S
C1735 C1736 1.397 . S
C1735 C1740 1.363 . S
C1736 H1713 0.950 . S
C1736 C1735 1.397 . S
C1736 C1737 1.334 . S
C1737 H1714 0.950 . S
C1737 C1736 1.334 . S
C1737 C1738 1.287 . S
C1738 C1737 1.287 . S
C1738 C1739 1.524 . S
C1738 H1757 0.913 . S
C1739 H1715 0.950 . S
C1739 C1738 1.524 . S
C1739 C1740 1.415 . S
C1740 H1716 0.950 . S
C1740 C1735 1.363 . S
C1740 C1739 1.415 . S
C1741 H1717 0.951 . S
C1741 C1742 1.366 . S
C1741 C1743 1.388 . S
C1742 C1741 1.366 . S
C1742 C1746 1.385 . S
C1743 H1718 0.951 . S
C1743 C1741 1.388 . S
C1743 C1744 1.366 . S
C1744 C1743 1.366 . S
C1744 C1745 1.414 . S
C1744 C1747 1.499 . S
C1745 H1719 0.950 . S
C1745 C1744 1.414 . S
C1745 C1746 1.374 . S
C1746 H1720 0.950 . S
C1746 C1742 1.385 . S
C1746 C1745 1.374 . S
C1747 C1744 1.499 . S
C1747 C1748 1.373 . S
C1747 C1749 1.389 . S
C1748 H1721 0.950 . S
C1748 C1734 1.377 . S
C1748 C1747 1.373 . S
C1749 C1733 1.377 . S
C1749 C1747 1.389 . S
C1749 C1750 1.524 . S
C1750 C1749 1.524 . S
C1750 C1751 1.397 . S
C1750 C1755 1.363 . S
C1751 H1722 0.950 . S
C1751 C1750 1.397 . S
C1751 C1752 1.334 . S
C1752 H1723 0.950 . S
C1752 C1751 1.334 . S
C1752 C1753 1.287 . S
C1753 C1752 1.287 . S
C1753 C1754 1.524 . S
C1753 H1756 0.999 . S
C1754 H1724 0.950 . S
C1754 C1753 1.524 . S
C1754 C1755 1.415 . S
C1755 H1725 0.950 . S
C1755 C1750 1.363 . S
C1755 C1754 1.415 . S
H1756 C1753 0.999 . S
H1757 C1738 0.913 . S
H1758 C1776 0.951 . S
H1759 C1778 0.951 . S
H1760 C1780 0.950 . S
H1761 C1781 0.950 . S
H1762 C1783 0.950 . S
H1763 C1786 0.950 . S
H1764 C1787 0.950 . S
H1765 C1789 0.950 . S
H1766 C1790 0.950 . S
H1767 C1791 0.951 . S
H1768 C1793 0.951 . S
H1769 C1795 0.950 . S
H1770 C1796 0.950 . S
H1771 C1798 0.950 . S
H1772 C1801 0.950 . S
H1773 C1802 0.950 . S
H1774 C1804 0.950 . S
H1775 C1805 0.950 . S
C1776 H1758 0.951 . S
C1776 C1777 1.366 . S
C1776 C1778 1.388 . S
C1777 C1776 1.366 . S
C1777 C1781 1.385 . S
C1778 H1759 0.951 . S
C1778 C1776 1.388 . S
C1778 C1779 1.366 . S
C1779 C1778 1.366 . S
C1779 C1780 1.414 . S
C1779 C1782 1.499 . S
C1780 H1760 0.950 . S
C1780 C1779 1.414 . S
C1780 C1781 1.374 . S
C1781 H1761 0.950 . S
C1781 C1777 1.385 . S
C1781 C1780 1.374 . S
C1782 C1779 1.499 . S
C1782 C1783 1.373 . S
C1782 C1784 1.389 . S
C1783 H1762 0.950 . S
C1783 C1782 1.373 . S
C1783 C1799 1.377 . S
C1784 C1782 1.389 . S
C1784 C1785 1.524 . S
C1784 C1798 1.377 . S
C1785 C1784 1.524 . S
C1785 C1786 1.397 . S
C1785 C1790 1.363 . S
C1786 H1763 0.950 . S
C1786 C1785 1.397 . S
C1786 C1787 1.334 . S
C1787 H1764 0.950 . S
C1787 C1786 1.334 . S
C1787 C1788 1.287 . S
C1788 C1787 1.287 . S
C1788 C1789 1.524 . S
C1788 H1807 0.913 . S
C1789 H1765 0.950 . S
C1789 C1788 1.524 . S
C1789 C1790 1.415 . S
C1790 H1766 0.950 . S
C1790 C1785 1.363 . S
C1790 C1789 1.415 . S
C1791 H1767 0.951 . S
C1791 C1792 1.366 . S
C1791 C1793 1.388 . S
C1792 C1791 1.366 . S
C1792 C1796 1.385 . S
C1793 H1768 0.951 . S
C1793 C1791 1.388 . S
C1793 C1794 1.366 . S
C1794 C1793 1.366 . S
C1794 C1795 1.414 . S
C1794 C1797 1.499 . S
C1795 H1769 0.950 . S
C1795 C1794 1.414 . S
C1795 C1796 1.374 . S
C1796 H1770 0.950 . S
C1796 C1792 1.385 . S
C1796 C1795 1.374 . S
C1797 C1794 1.499 . S
C1797 C1798 1.373 . S
C1797 C1799 1.389 . S
C1798 H1771 0.950 . S
C1798 C1784 1.377 . S
C1798 C1797 1.373 . S
C1799 C1783 1.377 . S
C1799 C1797 1.389 . S
C1799 C1800 1.524 . S
C1800 C1799 1.524 . S
C1800 C1801 1.397 . S
C1800 C1805 1.363 . S
C1801 H1772 0.950 . S
C1801 C1800 1.397 . S
C1801 C1802 1.334 . S
C1802 H1773 0.950 . S
C1802 C1801 1.334 . S
C1802 C1803 1.287 . S
C1803 C1802 1.287 . S
C1803 C1804 1.524 . S
C1803 H1806 0.999 . S
C1804 H1774 0.950 . S
C1804 C1803 1.524 . S
C1804 C1805 1.415 . S
C1805 H1775 0.950 . S
C1805 C1800 1.363 . S
C1805 C1804 1.415 . S
H1806 C1803 0.999 . S
H1807 C1788 0.913 . S
C227 C56 1.487 . S
C242 C4 1.487 . S
C277 C75 1.487 . S
C292 C17 1.487 . S
C327 C82 1.487 . S
C342 C36 1.487 . S
C377 C95 1.487 . S
C392 C43 1.487 . S
C427 C166 1.488 . S
C442 C108 1.487 . S
C477 C173 1.487 . S
C492 C127 1.487 . S
C527 C140 1.487 . S
C542 C186 1.487 . S
C577 C205 1.487 . S
C592 C147 1.487 . S
C627 C5 1.547 . S
C642 C68 1.547 . S
C677 C83 1.547 . S
C692 C18 1.547 . S
C727 C29 1.547 . S
C742 C96 1.547 . S
C777 C57 1.547 . S
C792 C44 1.547 . S
C827 C174 1.547 . S
C842 C109 1.547 . S
C877 C187 1.547 . S
C892 C120 1.547 . S
C927 C133 1.547 . S
C942 C198 1.547 . S
C977 C148 1.547 . S
C992 C159 1.547 . S
C1027 C199 1.379 . S
C1042 C10 1.379 . S
C1077 C160 1.379 . S
C1092 C23 1.380 . S
C1127 C179 1.379 . S
C1142 C30 1.379 . S
C1177 C192 1.379 . S
C1192 C49 1.379 . S
C1227 C121 1.379 . S
C1242 C62 1.379 . S
C1277 C134 1.379 . S
C1292 C69 1.380 . S
C1327 C88 1.379 . S
C1342 C153 1.379 . S
C1377 C101 1.379 . S
C1392 C114 1.379 . S
C1427 C172 1.348 . S
C1442 C31 1.348 . S
C1477 C185 1.348 . S
C1492 C42 1.349 . S
C1527 C200 1.348 . S
C1542 C3 1.348 . S
C1577 C16 1.348 . S
C1592 C161 1.348 . S
C1627 C146 1.349 . S
C1642 C81 1.349 . S
C1677 C94 1.349 . S
C1692 C107 1.349 . S
C1727 C122 1.349 . S
C1742 C55 1.349 . S
C1777 C135 1.348 . S
C1792 C70 1.348 . S
