# Generated by pormake.
# Topology tfs, (6)-cn, num edge types: 1
# Building blocks:
#     Node 0, Type 0, BuildingBlock: BETDEL_clean_sbu_0, # of connection points: 6
#     Node 1, Type 0, BuildingBlock: BETDEL_clean_sbu_0, # of connection points: 6
#     Node 2, Type 0, BuildingBlock: BETDEL_clean_sbu_0, # of connection points: 6
#     Node 3, Type 0, BuildingBlock: BETDEL_clean_sbu_0, # of connection points: 6
#     Node 4, Type 0, BuildingBlock: BETDEL_clean_sbu_0, # of connection points: 6
#     Node 5, Type 0, BuildingBlock: BETDEL_clean_sbu_0, # of connection points: 6
#     Edge 6, Type (0, 0), BuildingBlock: XUDNAN_clean_linker_2, # of connection points: 2
#     Edge 7, Type (0, 0), BuildingBlock: XUDNAN_clean_linker_2, # of connection points: 2
#     Edge 8, Type (0, 0), BuildingBlock: XUDNAN_clean_linker_2, # of connection points: 2
#     Edge 9, Type (0, 0), BuildingBlock: XUDNAN_clean_linker_2, # of connection points: 2
#     Edge 10, Type (0, 0), BuildingBlock: XUDNAN_clean_linker_2, # of connection points: 2
#     Edge 11, Type (0, 0), BuildingBlock: XUDNAN_clean_linker_2, # of connection points: 2
#     Edge 12, Type (0, 0), BuildingBlock: XUDNAN_clean_linker_2, # of connection points: 2
#     Edge 13, Type (0, 0), BuildingBlock: XUDNAN_clean_linker_2, # of connection points: 2
#     Edge 14, Type (0, 0), BuildingBlock: XUDNAN_clean_linker_2, # of connection points: 2
#     Edge 15, Type (0, 0), BuildingBlock: XUDNAN_clean_linker_2, # of connection points: 2
#     Edge 16, Type (0, 0), BuildingBlock: XUDNAN_clean_linker_2, # of connection points: 2
#     Edge 17, Type (0, 0), BuildingBlock: XUDNAN_clean_linker_2, # of connection points: 2
#     Edge 18, Type (0, 0), BuildingBlock: XUDNAN_clean_linker_2, # of connection points: 2
#     Edge 19, Type (0, 0), BuildingBlock: XUDNAN_clean_linker_2, # of connection points: 2
#     Edge 20, Type (0, 0), BuildingBlock: XUDNAN_clean_linker_2, # of connection points: 2
#     Edge 21, Type (0, 0), BuildingBlock: XUDNAN_clean_linker_2, # of connection points: 2
#     Edge 22, Type (0, 0), BuildingBlock: XUDNAN_clean_linker_2, # of connection points: 2
#     Edge 23, Type (0, 0), BuildingBlock: XUDNAN_clean_linker_2, # of connection points: 2
# Relax obj value: 0.431
# Max RMSD: 0.279
# Mean RMSD: 0.254
data_MOF--net-tfs--node1-BETDEL_clean_sbu_0--edge1-XUDNAN_clean_linker_2
_symmetry_space_group_name_H-M    P1
_symmetry_Int_Tables_number       1
_symmetry_cell_setting            triclinic
loop_
_symmetry_equiv_pos_as_xyz
'x, y, z'
_cell_length_a     44.628709
_cell_length_b     44.278339
_cell_length_c     14.512923
_cell_angle_alpha  90.244241
_cell_angle_beta   91.578115
_cell_angle_gamma 121.65085
loop_
_atom_site_label
_atom_site_type_symbol
_atom_site_fract_x
_atom_site_fract_y
_atom_site_fract_z
_atom_type_partial_charge
Dy0 Dy 0.18323 0.46483 0.28132 0.0
C1 C 0.20449 0.34893 0.19985 0.0
C2 C 0.18145 0.52408 0.31779 0.0
Dy3 Dy 0.19178 0.39911 0.26059 0.0
O4 O 0.20582 0.52321 0.27325 0.0
O5 O 0.1584 0.4925 0.34562 0.0
O6 O 0.16788 0.46031 0.13304 0.0
O7 O 0.20292 0.44457 0.17327 0.0
C8 C 0.18461 0.44546 0.10597 0.0
C9 C 0.17834 0.40748 0.4376 0.0
O10 O 0.2478 0.44476 0.26834 0.0
O11 O 0.23796 0.48631 0.3363 0.0
O12 O 0.21765 0.36764 0.27547 0.0
O13 O 0.18426 0.35761 0.15661 0.0
O14 O 0.18196 0.38161 0.41071 0.0
O15 O 0.18016 0.42458 0.36737 0.0
O16 O 0.12747 0.42002 0.27523 0.0
O17 O 0.13643 0.37764 0.20801 0.0
C18 C 0.25936 0.47585 0.31021 0.0
C19 C 0.11603 0.39024 0.2269 0.0
Dy20 Dy 0.74496 0.16869 0.93446 0.0
C21 C 0.89489 0.25929 0.88073 0.0
C22 C 0.67486 0.13583 0.96117 0.0
Dy23 Dy 0.8259 0.21807 0.92509 0.0
O24 O 0.69034 0.15196 0.88679 0.0
O25 O 0.69778 0.1375 0.02157 0.0
O26 O 0.74447 0.14115 0.80675 0.0
O27 O 0.7818 0.19582 0.82073 0.0
C28 C 0.77045 0.16849 0.76872 0.0
C29 C 0.80681 0.20876 0.10323 0.0
O30 O 0.81089 0.25924 0.91997 0.0
O31 O 0.75158 0.22188 0.95027 0.0
O32 O 0.87138 0.26796 0.87028 0.0
O33 O 0.87996 0.22712 0.9105 0.0
O34 O 0.83924 0.22859 0.07972 0.0
O35 O 0.78825 0.19684 0.03057 0.0
O36 O 0.76196 0.13294 0.98379 0.0
O37 O 0.81603 0.16248 0.91321 0.0
C38 C 0.77944 0.25381 0.9375 0.0
C39 C 0.79029 0.13428 0.95405 0.0
Dy40 Dy 0.53648 0.74585 0.12462 0.0
C41 C 0.65121 0.8923 0.07928 0.0
C42 C 0.48659 0.68279 0.19345 0.0
Dy43 Dy 0.59906 0.82424 0.11184 0.0
O44 O 0.52026 0.69535 0.20015 0.0
O45 O 0.48039 0.70432 0.14849 0.0
O46 O 0.52364 0.73323 0.9703 0.0
O47 O 0.5634 0.78253 0.01771 0.0
C48 C 0.54842 0.76453 0.94546 0.0
C49 C 0.59242 0.79426 0.27805 0.0
O50 O 0.55378 0.83317 0.12023 0.0
O51 O 0.50909 0.77519 0.15051 0.0
O52 O 0.64231 0.87843 0.15989 0.0
O53 O 0.63071 0.86937 0.01566 0.0
O54 O 0.62198 0.81557 0.23952 0.0
O55 O 0.56725 0.78993 0.22531 0.0
O56 O 0.58335 0.7395 0.11876 0.0
O57 O 0.6234 0.79474 0.0599 0.0
C58 C 0.52054 0.80924 0.13915 0.0
C59 C 0.61387 0.76184 0.08088 0.0
Dy60 Dy 0.77953 0.53636 0.99734 0.0
C61 C 0.74157 0.6406 0.96644 0.0
C62 C 0.77789 0.47393 1.00429 0.0
Dy63 Dy 0.75829 0.58954 0.99043 0.0
O64 O 0.75719 0.48003 0.95476 0.0
O65 O 0.80052 0.50245 0.05171 0.0
O66 O 0.80642 0.55385 0.86566 0.0
O67 O 0.76071 0.55597 0.88276 0.0
C68 C 0.78604 0.56376 0.83072 0.0
C69 C 0.75906 0.56643 0.16243 0.0
O70 O 0.70603 0.53989 0.96085 0.0
O71 O 0.72257 0.5047 0.03303 0.0
O72 O 0.77069 0.64595 1.0043 0.0
O73 O 0.72237 0.60781 0.93851 0.0
O74 O 0.73705 0.57516 0.13325 0.0
O75 O 0.7805 0.57263 0.10055 0.0
O76 O 0.83248 0.58463 0.03015 0.0
O77 O 0.81693 0.62253 0.96491 0.0
C78 C 0.69783 0.50928 0.99696 0.0
C79 C 0.84126 0.61614 0.99759 0.0
Dy80 Dy 0.24649 0.82185 0.12434 0.0
C81 C 0.09984 0.77277 0.05282 0.0
C82 C 0.3115 0.8301 0.15702 0.0
Dy83 Dy 0.16905 0.79667 0.10137 0.0
O84 O 0.28522 0.8042 0.11102 0.0
O85 O 0.30236 0.85185 0.18651 0.0
O86 O 0.25438 0.84102 0.97888 0.0
O87 O 0.20685 0.79559 0.01172 0.0
C88 C 0.22318 0.81694 0.94846 0.0
C89 C 0.18898 0.7961 0.27632 0.0
O90 O 0.167 0.74507 0.09126 0.0
O91 O 0.22016 0.76604 0.17045 0.0
O92 O 0.11253 0.77529 0.13569 0.0
O93 O 0.12534 0.78462 0.9953 0.0
O94 O 0.15793 0.77438 0.24049 0.0
O95 O 0.20788 0.82002 0.21968 0.0
O96 O 0.25132 0.87416 0.13903 0.0
O97 O 0.19444 0.85604 0.08626 0.0
C98 C 0.18961 0.73955 0.13771 0.0
C99 C 0.22739 0.88135 0.10979 0.0
Dy100 Dy 0.44065 0.19782 0.02668 0.0
C101 C 0.34101 0.2441 0.05802 0.0
C102 C 0.48841 0.17788 0.01968 0.0
Dy103 Dy 0.38689 0.22303 0.0243 0.0
O104 O 0.48333 0.19223 0.09076 0.0
O105 O 0.46844 0.17578 0.94974 0.0
O106 O 0.42083 0.17598 0.16501 0.0
O107 O 0.42387 0.22305 0.1265 0.0
C108 C 0.41526 0.20072 0.1896 0.0
C109 C 0.39848 0.21082 0.85086 0.0
O110 O 0.43868 0.27537 0.03585 0.0
O111 O 0.47694 0.25593 1.00301 0.0
O112 O 0.36146 0.25353 0.98864 0.0
O113 O 0.3462 0.22375 0.11212 0.0
O114 O 0.37777 0.22199 0.87053 0.0
O115 O 0.41036 0.20625 0.92523 0.0
O116 O 0.39047 0.14696 0.99523 0.0
O117 O 0.35195 0.16385 0.04385 0.0
C118 C 0.47052 0.28169 0.01691 0.0
C119 C 0.3589 0.1391 0.02049 0.0
H120 H 0.31692 0.25796 0.2146 0.0
H121 H 0.30368 0.24927 0.91682 0.0
H122 H 0.25941 0.26648 0.92379 0.0
H123 H 0.22461 0.23065 0.26876 0.0
H124 H 0.2392 0.2635 0.36036 0.0
H125 H 0.26475 0.24395 0.33416 0.0
H126 H 0.31971 0.30662 0.3125 0.0
H127 H 0.2944 0.32627 0.33875 0.0
H128 H 0.31711 0.33612 0.23193 0.0
H129 H 0.22104 0.28963 0.96053 0.0
H130 H 0.19579 0.32318 0.02377 0.0
H131 H 0.23701 0.32107 0.29623 0.0
C132 C 0.30388 0.25881 0.15147 0.0
C133 C 0.3131 0.25194 0.06536 0.0
C134 C 0.29663 0.25435 0.98346 0.0
C135 C 0.27131 0.2638 0.98675 0.0
C136 C 0.26312 0.27114 0.07251 0.0
C137 C 0.27912 0.26912 0.15344 0.0
C138 C 0.26922 0.28312 0.23497 0.0
C139 C 0.24819 0.25353 0.30361 0.0
C140 C 0.30206 0.31492 0.28225 0.0
C141 C 0.24622 0.29436 0.18668 0.0
C142 C 0.24221 0.28629 0.0934 0.0
C143 C 0.22358 0.29573 0.03366 0.0
C144 C 0.20933 0.3147 0.07001 0.0
C145 C 0.21453 0.32451 0.16453 0.0
C146 C 0.23254 0.31361 0.2237 0.0
H147 H 0.0736 0.32252 0.15494 0.0
H148 H 0.08326 0.42517 0.17671 0.0
H149 H 0.03319 0.4047 0.06636 0.0
H150 H 0.04697 0.30468 0.91297 0.0
H151 H 0.01521 0.25821 0.92794 0.0
H152 H 0.05344 0.28113 1.00468 0.0
H153 H 0.01375 0.26252 0.14641 0.0
H154 H 0.97559 0.23861 0.07033 0.0
H155 H 0.97907 0.27194 0.14926 0.0
H156 H 0.98323 0.37423 0.9526 0.0
H157 H 0.92695 0.331 0.87358 0.0
H158 H 0.94679 0.24683 0.93136 0.0
C159 C 0.06491 0.34052 0.13703 0.0
C160 C 0.08228 0.37538 0.17452 0.0
C161 C 0.07012 0.39817 0.1498 0.0
C162 C 0.04207 0.38703 0.08586 0.0
C163 C 0.02622 0.35292 0.04797 0.0
C164 C 0.03644 0.32961 0.07451 0.0
C165 C 0.01267 0.29331 0.02981 0.0
C166 C 0.03331 0.28379 0.965 0.0
C167 C 0.99416 0.26493 0.10332 0.0
C168 C 0.98699 0.29972 0.97595 0.0
C169 C 0.9961 0.33464 0.98497 0.0
C170 C 0.97577 0.3468 0.94483 0.0
C171 C 0.94398 0.32209 0.89939 0.0
C172 C 0.93259 0.28565 0.89671 0.0
C173 C 0.95515 0.27464 0.9315 0.0
H174 H 0.75405 0.07743 0.84185 0.0
H175 H 0.82083 0.11637 0.08883 0.0
H176 H 0.7984 0.05474 0.1359 0.0
H177 H 0.6834 0.0181 0.93962 0.0
H178 H 0.66542 0.9832 0.85271 0.0
H179 H 0.69455 0.02835 0.82062 0.0
H180 H 0.73677 0.01232 0.74743 0.0
H181 H 0.70711 0.96656 0.77605 0.0
H182 H 0.75277 0.989 0.81384 0.0
H183 H 0.75735 0.99238 0.17672 0.0
H184 H 0.70613 0.93222 0.19922 0.0
H185 H 0.66538 0.93227 0.9247 0.0
C186 C 0.76573 0.0727 0.90221 0.0
C187 C 0.79 0.10124 0.9603 0.0
C188 C 0.80331 0.09466 0.04199 0.0
C189 C 0.7904 0.05972 0.06947 0.0
C190 C 0.76445 0.03194 0.01391 0.0
C191 C 0.75291 0.03797 0.93046 0.0
C192 C 0.72098 0.00427 0.89097 0.0
C193 C 0.68925 0.00879 0.87515 0.0
C194 C 0.72995 0.99233 0.80179 0.0
C195 C 0.71477 0.979 0.96822 0.0
C196 C 0.74044 0.99535 0.03781 0.0
C197 C 0.73783 0.97892 0.12141 0.0
C198 C 0.70845 0.94494 0.13397 0.0
C199 C 0.68211 0.9277 0.0633 0.0
C200 C 0.68559 0.94473 0.97898 0.0
H201 H 0.67346 0.62405 0.96768 0.0
H202 H 0.78145 0.71288 0.98406 0.0
H203 H 0.76027 0.75392 0.00922 0.0
H204 H 0.63338 0.6692 0.85697 0.0
H205 H 0.59454 0.6469 0.92462 0.0
H206 H 0.61812 0.62527 0.89836 0.0
H207 H 0.62432 0.61647 0.07269 0.0
H208 H 0.60104 0.63832 0.09953 0.0
H209 H 0.64428 0.65447 0.15036 0.0
H210 H 0.72716 0.78489 0.03539 0.0
H211 H 0.68518 0.80352 0.06868 0.0
H212 H 0.59877 0.69378 0.04797 0.0
C213 C 0.69258 0.65225 0.97447 0.0
C214 C 0.72908 0.66553 0.97216 0.0
C215 C 0.75339 0.70237 0.98442 0.0
C216 C 0.74158 0.72579 0.99882 0.0
C217 C 0.7054 0.7118 1.0023 0.0
C218 C 0.68125 0.67585 0.99105 0.0
C219 C 0.64401 0.66731 1.00462 0.0
C220 C 0.62117 0.65123 0.91585 0.0
C221 C 0.62745 0.64269 0.08668 0.0
C222 C 0.65093 0.70407 0.02538 0.0
C223 C 0.68647 0.72938 0.0225 0.0
C224 C 0.6993 0.76528 0.03799 0.0
C225 C 0.67522 0.7756 0.05677 0.0
C226 C 0.63871 0.7501 0.06144 0.0
C227 C 0.62654 0.71384 0.04581 0.0
H228 H 0.04599 0.72131 0.14972 0.0
H229 H 0.06749 0.78187 0.90047 0.0
H230 H 1.00328 0.75012 0.86182 0.0
H231 H 0.97765 0.639 0.04609 0.0
H232 H 0.95195 0.62444 0.1481 0.0
H233 H 0.99905 0.65369 0.1585 0.0
H234 H 0.99124 0.69863 0.25348 0.0
H235 H 0.9441 0.66954 0.24324 0.0
H236 H 0.96457 0.71473 0.206 0.0
H237 H 0.93575 0.71217 0.85414 0.0
H238 H 0.87228 0.66742 0.86808 0.0
H239 H 0.896 0.62793 0.11487 0.0
C240 C 0.03714 0.72816 0.08744 0.0
C241 C 0.06161 0.75447 0.02866 0.0
C242 C 0.04913 0.76202 0.94665 0.0
C243 C 0.01273 0.74415 0.92442 0.0
C244 C 0.98925 0.71826 0.98396 0.0
C245 C 1.00109 0.70993 0.0631 0.0
C246 C 0.97086 0.67952 0.11256 0.0
C247 C 0.97514 0.64726 0.1165 0.0
C248 C 0.9675 0.69132 0.20956 0.0
C249 C 0.93996 0.67212 0.04953 0.0
C250 C 0.951 0.69509 0.97645 0.0
C251 C 0.92697 0.69395 0.91076 0.0
C252 C 0.89093 0.66854 0.91946 0.0
C253 C 0.87919 0.64409 0.99228 0.0
C254 C 0.90419 0.64605 0.05799 0.0
H255 H 0.29476 0.93692 0.097 0.0
H256 H 0.1867 0.91153 0.09374 0.0
H257 H 0.20782 0.97512 0.07033 0.0
H258 H 0.33469 0.02115 0.2154 0.0
H259 H 0.37348 0.04068 0.1474 0.0
H260 H 0.34937 0.9937 0.16711 0.0
H261 H 0.34279 0.9813 0.9906 0.0
H262 H 0.3667 0.02825 0.97036 0.0
H263 H 0.32333 1.00002 0.91843 0.0
H264 H 0.24263 0.0434 0.05047 0.0
H265 H 0.28658 0.10735 0.02892 0.0
H266 H 0.37003 0.08456 0.03722 0.0
C267 C 0.27539 0.9446 0.09242 0.0
C268 C 0.23905 0.91925 0.09838 0.0
C269 C 0.2147 0.93052 0.08988 0.0
C270 C 0.22647 0.96657 0.07663 0.0
C271 C 0.26262 0.99086 0.07082 0.0
C272 C 0.28658 0.98009 0.0779 0.0
C273 C 0.32386 0.01067 0.06649 0.0
C274 C 0.34668 0.01691 0.15433 0.0
C275 C 0.34011 0.00469 0.9814 0.0
C276 C 0.31739 0.04057 0.05223 0.0
C277 C 0.28204 0.02897 0.05561 0.0
C278 C 0.27032 0.05259 0.04699 0.0
C279 C 0.29543 0.08885 0.03478 0.0
C280 C 0.3317 0.10096 0.03006 0.0
C281 C 0.34249 0.07625 0.03871 0.0
H282 H 0.23422 0.71595 0.16124 0.0
H283 H 0.124 0.68249 0.17117 0.0
H284 H 0.1103 0.62453 0.23277 0.0
H285 H 0.21926 0.63118 0.08685 0.0
H286 H 0.25671 0.63679 0.15299 0.0
H287 H 0.25689 0.67503 0.11076 0.0
H288 H 0.26948 0.70111 0.27722 0.0
H289 H 0.26848 0.66254 0.32046 0.0
H290 H 0.23982 0.67567 0.36675 0.0
H291 H 0.10971 0.57114 0.29917 0.0
H292 H 0.12038 0.52322 0.34032 0.0
H293 H 0.23076 0.5922 0.28119 0.0
C294 C 0.20713 0.69629 0.17571 0.0
C295 C 0.18009 0.70345 0.16171 0.0
C296 C 0.14496 0.67717 0.18069 0.0
C297 C 0.13706 0.64446 0.21661 0.0
C298 C 0.16461 0.63859 0.23197 0.0
C299 C 0.19881 0.66357 0.21023 0.0
C300 C 0.2235 0.65046 0.22909 0.0
C301 C 0.24004 0.64821 0.1396 0.0
C302 C 0.25199 0.67384 0.30278 0.0
C303 C 0.19789 0.61409 0.26505 0.0
C304 C 0.16414 0.60785 0.26765 0.0
C305 C 0.13601 0.57573 0.29735 0.0
C306 C 0.14235 0.54883 0.3214 0.0
C307 C 0.17638 0.55426 0.31419 0.0
C308 C 0.20455 0.58755 0.28797 0.0
H309 H 0.51785 0.16341 0.87655 0.0
H310 H 0.50741 0.15675 0.17301 0.0
H311 H 0.54474 0.13108 0.18394 0.0
H312 H 0.52553 0.08319 0.8409 0.0
H313 H 0.5587 0.10548 0.75634 0.0
H314 H 0.52486 0.11575 0.7682 0.0
H315 H 0.57258 0.18242 0.79369 0.0
H316 H 0.6063 0.17233 0.78059 0.0
H317 H 0.60613 0.19524 0.88337 0.0
H318 H 0.58901 0.11456 0.16719 0.0
H319 H 0.64298 0.11586 0.12622 0.0
H320 H 0.62666 0.13467 0.84151 0.0
C321 C 0.52283 0.15566 0.94318 0.0
C322 C 0.5098 0.16173 0.0238 0.0
C323 C 0.51735 0.15226 0.11045 0.0
C324 C 0.5381 0.13724 0.11723 0.0
C325 C 0.55113 0.132 0.03669 0.0
C326 C 0.54409 0.14121 0.95129 0.0
C327 C 0.56589 0.13831 0.87788 0.0
C328 C 0.54233 0.10892 0.80662 0.0
C329 C 0.5891 0.1742 0.83125 0.0
C330 C 0.58764 0.12803 0.93635 0.0
C331 C 0.57783 0.12328 0.02717 0.0
C332 C 0.59653 0.11744 0.09602 0.0
C333 C 0.62709 0.11818 0.07223 0.0
C334 C 0.63867 0.12528 0.98088 0.0
C335 C 0.61791 0.12865 0.9116 0.0
H336 H 0.42274 0.66778 0.24526 0.0
H337 H 0.488 0.62249 0.2244 0.0
H338 H 0.43781 0.56411 0.27069 0.0
H339 H 0.37317 0.61541 0.44731 0.0
H340 H 0.33325 0.61215 0.40458 0.0
H341 H 0.37542 0.6506 0.37987 0.0
H342 H 0.35913 0.64009 0.20496 0.0
H343 H 0.31708 0.60172 0.22907 0.0
H344 H 0.34604 0.59771 0.15263 0.0
H345 H 0.37735 0.5091 0.29427 0.0
H346 H 0.31384 0.46373 0.30525 0.0
H347 H 0.29091 0.54738 0.32303 0.0
C348 C 0.42661 0.64568 0.25219 0.0
C349 C 0.45887 0.64923 0.23106 0.0
C350 C 0.46329 0.62003 0.24085 0.0
C351 C 0.435 0.58692 0.26705 0.0
C352 C 0.40306 0.58404 0.28549 0.0
C353 C 0.39907 0.61293 0.28022 0.0
C354 C 0.3619 0.6029 0.29925 0.0
C355 C 0.36089 0.62136 0.38806 0.0
C356 C 0.34507 0.61107 0.21655 0.0
C357 C 0.34502 0.56346 0.31172 0.0
C358 C 0.36906 0.55293 0.30395 0.0
C359 C 0.35849 0.51715 0.30302 0.0
C360 C 0.32242 0.49158 0.309 0.0
C361 C 0.29757 0.50207 0.31656 0.0
C362 C 0.30932 0.53849 0.32001 0.0
H363 H 0.82846 0.45534 0.02133 0.0
H364 H 0.71608 0.41256 0.99045 0.0
H365 H 0.70517 0.35236 0.97331 0.0
H366 H 0.83119 0.39911 0.85178 0.0
H367 H 0.86313 0.39252 0.91194 0.0
H368 H 0.86293 0.43259 0.93202 0.0
H369 H 0.85692 0.42065 0.10706 0.0
H370 H 0.85759 0.38077 0.08764 0.0
H371 H 0.82153 0.37871 0.14647 0.0
H372 H 0.70565 0.29827 0.94878 0.0
H373 H 0.71703 0.25043 0.9255 0.0
H374 H 0.82943 0.32557 0.96805 0.0
C375 C 0.80161 0.43307 0.01339 0.0
C376 C 0.77301 0.4384 0.00801 0.0
C377 C 0.73827 0.40892 0.99504 0.0
C378 C 0.73179 0.37463 0.98517 0.0
C379 C 0.76038 0.37017 0.98782 0.0
C380 C 0.79461 0.3983 1.00218 0.0
C381 C 0.82031 0.3856 0.99717 0.0
C382 C 0.8459 0.40353 0.91854 0.0
C383 C 0.84027 0.3918 0.09013 0.0
C384 C 0.79506 0.34621 0.97656 0.0
C385 C 0.76068 0.33818 0.97205 0.0
C386 C 0.73242 0.30404 0.95296 0.0
C387 C 0.73925 0.27702 0.93971 0.0
C388 C 0.77414 0.28409 0.94529 0.0
C389 C 0.80251 0.31933 0.96299 0.0
H390 H 0.32761 0.77922 0.13327 0.0
H391 H 0.37482 0.89071 0.20381 0.0
H392 H 0.43403 0.89816 0.20837 0.0
H393 H 0.38659 0.76522 0.28091 0.0
H394 H 0.38703 0.73439 0.2003 0.0
H395 H 0.3489 0.73829 0.20486 0.0
H396 H 0.35309 0.75135 0.03036 0.0
H397 H 0.39137 0.74777 0.02534 0.0
H398 H 0.39351 0.78751 0.98709 0.0
H399 H 0.48889 0.89354 0.19344 0.0
H400 H 0.53312 0.87631 0.17535 0.0
H401 H 0.44869 0.76719 0.12308 0.0
C402 C 0.3504 0.80516 0.15043 0.0
C403 C 0.34673 0.83446 0.16793 0.0
C404 C 0.3771 0.86792 0.19054 0.0
C405 C 0.41081 0.87237 0.19291 0.0
C406 C 0.41358 0.84297 0.1739 0.0
C407 C 0.38403 0.80989 0.15456 0.0
C408 C 0.39381 0.78239 0.13737 0.0
C409 C 0.37816 0.75337 0.21021 0.0
C410 C 0.38226 0.76633 0.03921 0.0
C411 C 0.43356 0.80518 0.14854 0.0
C412 C 0.44462 0.8401 0.16897 0.0
C413 C 0.4804 0.86616 0.17851 0.0
C414 C 0.50538 0.85618 0.16771 0.0
C415 C 0.4945 0.82036 0.14857 0.0
C416 C 0.45802 0.79473 0.13895 0.0
H417 H 0.67317 0.43866 0.02047 0.0
H418 H 0.63806 0.51218 0.9735 0.0
H419 H 0.57605 0.46222 0.97526 0.0
H420 H 0.60653 0.3682 0.87451 0.0
H421 H 0.60206 0.33346 0.94806 0.0
H422 H 0.64346 0.3751 0.94567 0.0
H423 H 0.6427 0.38244 0.12237 0.0
H424 H 0.60129 0.34084 0.12561 0.0
H425 H 0.60527 0.38061 0.17251 0.0
H426 H 0.51747 0.40376 0.9862 0.0
H427 H 0.46761 0.34175 0.99587 0.0
H428 H 0.54144 0.30647 0.02846 0.0
C429 C 0.65247 0.44435 0.01099 0.0
C430 C 0.66052 0.47945 0.99749 0.0
C431 C 0.63258 0.48557 0.98401 0.0
C432 C 0.59727 0.45734 0.98512 0.0
C433 C 0.59028 0.42307 0.99873 0.0
C434 C 0.61715 0.41647 0.01061 0.0
C435 C 0.60271 0.37716 0.02138 0.0
C436 C 0.61438 0.36263 0.9427 0.0
C437 C 0.61364 0.36985 0.11611 0.0
C438 C 0.56345 0.3626 0.01422 0.0
C439 C 0.55678 0.3895 1.00187 0.0
C440 C 0.52245 0.38251 0.99539 0.0
C441 C 0.49426 0.34717 1.00124 0.0
C442 C 0.50047 0.3191 0.01251 0.0
C443 C 0.53566 0.32717 0.01901 0.0
H444 H 0.17745 0.39214 0.98962 0.0
H445 H 0.20841 0.50273 1.00033 0.0
H446 H 0.21035 0.50486 0.8309 0.0
H447 H 0.23134 0.39988 0.7876 0.0
H448 H 0.19802 0.35705 0.74049 0.0
H449 H 0.20247 0.36511 0.86338 0.0
H450 H 0.13675 0.3456 0.86628 0.0
H451 H 0.13221 0.33818 0.74324 0.0
H452 H 0.12083 0.3678 0.79474 0.0
H453 H 0.2022 0.49374 0.66153 0.0
H454 H 0.19263 0.47198 0.4999 0.0
H455 H 0.16913 0.36915 0.59408 0.0
C456 C 0.18589 0.41703 0.9561 0.0
C457 C 0.19335 0.44747 0.00789 0.0
C458 C 0.20306 0.47929 0.96176 0.0
C459 C 0.20404 0.48072 0.86553 0.0
C460 C 0.19531 0.45007 0.8159 0.0
C461 C 0.1871 0.41896 0.85921 0.0
C462 C 0.17765 0.38963 0.78836 0.0
C463 C 0.20395 0.37719 0.79537 0.0
C464 C 0.1396 0.35847 0.79881 0.0
C465 C 0.18139 0.40908 0.69914 0.0
C466 C 0.19131 0.44383 0.71699 0.0
C467 C 0.19493 0.46672 0.64646 0.0
C468 C 0.18917 0.45408 0.55492 0.0
C469 C 0.18025 0.419 0.53458 0.0
C470 C 0.17606 0.39616 0.60779 0.0
H471 H 0.81953 0.22198 0.65744 0.0
H472 H 0.72632 0.1157 0.64892 0.0
H473 H 0.72465 0.11608 0.48022 0.0
H474 H 0.79636 0.25582 0.46139 0.0
H475 H 0.84002 0.27997 0.41671 0.0
H476 H 0.83435 0.27242 0.53863 0.0
H477 H 0.87128 0.24281 0.53723 0.0
H478 H 0.87737 0.2506 0.41551 0.0
H479 H 0.85888 0.2063 0.45804 0.0
H480 H 0.72965 0.12848 0.31375 0.0
H481 H 0.74722 0.14907 0.15544 0.0
H482 H 0.84016 0.24474 0.26483 0.0
C483 C 0.79898 0.1988 0.61979 0.0
C484 C 0.77284 0.16902 0.66687 0.0
C485 C 0.74657 0.139 0.61504 0.0
C486 C 0.74522 0.13891 0.51879 0.0
C487 C 0.77076 0.16875 0.47441 0.0
C488 C 0.79767 0.19786 0.52257 0.0
C489 C 0.8226 0.22564 0.45622 0.0
C490 C 0.82336 0.26053 0.46903 0.0
C491 C 0.85974 0.23169 0.46742 0.0
C492 C 0.80513 0.20759 0.36404 0.0
C493 C 0.77493 0.17504 0.37664 0.0
C494 C 0.75345 0.15378 0.30271 0.0
C495 C 0.76347 0.16575 0.21307 0.0
C496 C 0.79498 0.19833 0.19811 0.0
C497 C 0.81598 0.2196 0.27461 0.0
H498 H 0.51028 0.73533 0.78234 0.0
H499 H 0.61329 0.81639 0.89259 0.0
H500 H 0.63507 0.83087 0.73478 0.0
H501 H 0.53899 0.70539 0.59312 0.0
H502 H 0.50502 0.69989 0.5122 0.0
H503 H 0.49696 0.69529 0.63381 0.0
H504 H 0.48064 0.7434 0.62814 0.0
H505 H 0.48835 0.74789 0.50634 0.0
H506 H 0.5113 0.78626 0.58238 0.0
H507 H 0.64705 0.83373 0.56834 0.0
H508 H 0.64728 0.83163 0.39963 0.0
H509 H 0.53522 0.7525 0.38912 0.0
C510 C 0.53734 0.75628 0.77287 0.0
C511 C 0.5602 0.77478 0.84987 0.0
C512 C 0.59532 0.8021 0.83493 0.0
C513 C 0.60797 0.81033 0.74544 0.0
C514 C 0.585 0.79141 0.67115 0.0
C515 C 0.55023 0.76543 0.68335 0.0
C516 C 0.531 0.75019 0.59058 0.0
C517 C 0.51718 0.71032 0.58195 0.0
C518 C 0.50105 0.75738 0.57601 0.0
C519 C 0.56056 0.77142 0.52458 0.0
C520 C 0.59151 0.79459 0.57332 0.0
C521 C 0.6229 0.81608 0.52937 0.0
C522 C 0.62271 0.81451 0.43305 0.0
C523 C 0.59119 0.79212 0.38045 0.0
C524 C 0.55965 0.77007 0.4272 0.0
H525 H 0.73291 0.55411 0.70773 0.0
H526 H 0.84489 0.59439 0.73496 0.0
H527 H 0.84982 0.60054 0.56703 0.0
H528 H 0.71601 0.50247 0.50989 0.0
H529 H 0.68535 0.5119 0.45388 0.0
H530 H 0.69038 0.51444 0.57769 0.0
H531 H 0.70512 0.57934 0.57835 0.0
H532 H 0.69937 0.57679 0.45454 0.0
H533 H 0.73999 0.6115 0.50851 0.0
H534 H 0.84184 0.5939 0.39947 0.0
H535 H 0.82313 0.58479 0.23559 0.0
H536 H 0.71683 0.55199 0.31061 0.0
C537 C 0.75855 0.56527 0.67815 0.0
C538 C 0.78853 0.57366 0.73364 0.0
C539 C 0.82162 0.58764 0.6931 0.0
C540 C 0.82471 0.59121 0.59791 0.0
C541 C 0.79451 0.58108 0.54431 0.0
C542 C 0.76219 0.56922 0.58241 0.0
C543 C 0.73388 0.55901 0.50745 0.0
C544 C 0.70469 0.51962 0.51258 0.0
C545 C 0.7187 0.58311 0.51251 0.0
C546 C 0.7553 0.56604 0.42201 0.0
C547 C 0.79015 0.57854 0.44546 0.0
C548 C 0.81481 0.58487 0.37978 0.0
C549 C 0.80383 0.57929 0.28697 0.0
C550 C 0.76864 0.56797 0.26078 0.0
C551 C 0.74397 0.56097 0.32914 0.0
H552 H 0.23513 0.84952 0.40249 0.0
H553 H 0.15955 0.73636 0.37126 0.0
H554 H 0.16103 0.72978 0.53872 0.0
H555 H 0.28616 0.8411 0.60155 0.0
H556 H 0.294 0.88112 0.65779 0.0
H557 H 0.28987 0.87688 0.53379 0.0
H558 H 0.24018 0.89058 0.5359 0.0
H559 H 0.24367 0.89419 0.65987 0.0
H560 H 0.20193 0.86348 0.60294 0.0
H561 H 0.16333 0.73574 0.70715 0.0
H562 H 0.17477 0.75264 0.87222 0.0
H563 H 0.25182 0.8611 0.80155 0.0
C564 C 0.21983 0.82333 0.43111 0.0
C565 C 0.19706 0.79346 0.37414 0.0
C566 C 0.17696 0.75963 0.41386 0.0
C567 C 0.17755 0.75556 0.50896 0.0
C568 C 0.19879 0.78552 0.56395 0.0
C569 C 0.22031 0.81865 0.52709 0.0
C570 C 0.23996 0.84632 0.60366 0.0
C571 C 0.27987 0.86229 0.59891 0.0
C572 C 0.23088 0.87535 0.60035 0.0
C573 C 0.22521 0.82359 0.68833 0.0
C574 C 0.20133 0.78867 0.66325 0.0
C575 C 0.18253 0.76285 0.72806 0.0
C576 C 0.18897 0.77275 0.82158 0.0
C577 C 0.21435 0.80802 0.84944 0.0
C578 C 0.23252 0.83384 0.78188 0.0
H579 H 0.38939 0.16036 0.72521 0.0
H580 H 0.43854 0.27355 0.77228 0.0
H581 H 0.44948 0.28367 0.60619 0.0
H582 H 0.44771 0.16688 0.53157 0.0
H583 H 0.41138 0.12925 0.47109 0.0
H584 H 0.41279 0.13174 0.59526 0.0
H585 H 0.35095 0.12375 0.58956 0.0
H586 H 0.34979 0.12241 0.46552 0.0
H587 H 0.34404 0.15459 0.52585 0.0
H588 H 0.44584 0.28068 0.43501 0.0
H589 H 0.43799 0.2657 0.26827 0.0
H590 H 0.39286 0.15459 0.33103 0.0
C591 C 0.404 0.18727 0.70064 0.0
C592 C 0.41394 0.21633 0.76061 0.0
C593 C 0.43155 0.25118 0.72668 0.0
C594 C 0.43759 0.25712 0.63265 0.0
C595 C 0.42594 0.22784 0.57401 0.0
C596 C 0.41037 0.19366 0.60661 0.0
C597 C 0.3985 0.16681 0.52786 0.0
C598 C 0.41882 0.14754 0.53167 0.0
C599 C 0.35845 0.14034 0.52723 0.0
C600 C 0.40882 0.19117 0.44639 0.0
C601 C 0.42443 0.22623 0.47455 0.0
C602 C 0.43433 0.25341 0.41188 0.0
C603 C 0.42939 0.24464 0.31754 0.0
C604 C 0.415 0.20908 0.28743 0.0
C605 C 0.40413 0.18203 0.35264 0.0
loop_
_geom_bond_atom_site_label_1
_geom_bond_atom_site_label_2
_geom_bond_distance
_geom_bond_site_symmetry_2
_ccdc_geom_bond_type
Dy0 O4 2.398 . S
Dy0 O5 2.491 . S
Dy0 O6 2.403 1_554 S
Dy0 O7 2.664 . S
Dy0 O11 2.326 . S
Dy0 O15 2.310 . S
Dy0 O16 2.351 . S
C1 O12 1.185 . S
C1 O13 1.355 . S
C2 O4 1.185 . S
C2 O5 1.355 . S
Dy3 O7 2.310 . S
Dy3 O10 2.351 . S
Dy3 O12 2.398 . S
Dy3 O13 2.491 . S
Dy3 O14 2.403 . S
Dy3 O15 2.664 . S
Dy3 O17 2.326 . S
O4 Dy0 2.398 . S
O4 C2 1.185 . S
O5 Dy0 2.491 . S
O5 C2 1.355 . S
O6 Dy0 2.403 1_556 S
O6 C8 1.254 . S
O7 Dy0 2.664 . S
O7 Dy3 2.310 . S
O7 C8 1.268 1_554 S
C8 O6 1.254 . S
C8 O7 1.268 1_556 S
C9 O14 1.254 . S
C9 O15 1.268 . S
O10 Dy3 2.351 . S
O10 C18 1.249 . S
O11 Dy0 2.326 . S
O11 C18 1.267 . S
O12 C1 1.185 . S
O12 Dy3 2.398 . S
O13 C1 1.355 . S
O13 Dy3 2.491 . S
O14 Dy3 2.403 . S
O14 C9 1.254 . S
O15 Dy0 2.310 . S
O15 Dy3 2.664 . S
O15 C9 1.268 . S
O16 Dy0 2.351 . S
O16 C19 1.249 . S
O17 Dy3 2.326 . S
O17 C19 1.267 . S
C18 O10 1.249 . S
C18 O11 1.267 . S
C19 O16 1.249 . S
C19 O17 1.267 . S
Dy20 O24 2.398 . S
Dy20 O25 2.491 1_556 S
Dy20 O26 2.403 . S
Dy20 O27 2.664 . S
Dy20 O31 2.326 . S
Dy20 O35 2.310 1_556 S
Dy20 O36 2.351 . S
C21 O32 1.185 . S
C21 O33 1.355 1_554 S
C22 O24 1.185 . S
C22 O25 1.355 1_556 S
Dy23 O27 2.310 1_554 S
Dy23 O30 2.351 . S
Dy23 O32 2.398 . S
Dy23 O33 2.491 1_554 S
Dy23 O34 2.403 . S
Dy23 O35 2.664 . S
Dy23 O37 2.326 . S
O24 Dy20 2.398 . S
O24 C22 1.185 . S
O25 Dy20 2.491 1_554 S
O25 C22 1.355 1_554 S
O26 Dy20 2.403 . S
O26 C28 1.254 . S
O27 Dy20 2.664 . S
O27 Dy23 2.310 1_556 S
O27 C28 1.268 . S
C28 O26 1.254 . S
C28 O27 1.268 . S
C29 O34 1.254 . S
C29 O35 1.268 . S
O30 Dy23 2.351 . S
O30 C38 1.249 1_554 S
O31 Dy20 2.326 . S
O31 C38 1.267 . S
O32 C21 1.185 . S
O32 Dy23 2.398 . S
O33 C21 1.355 1_556 S
O33 Dy23 2.491 1_556 S
O34 Dy23 2.403 . S
O34 C29 1.254 . S
O35 Dy20 2.310 1_554 S
O35 Dy23 2.664 . S
O35 C29 1.268 . S
O36 Dy20 2.351 . S
O36 C39 1.249 1_556 S
O37 Dy23 2.326 . S
O37 C39 1.267 . S
C38 O30 1.249 1_556 S
C38 O31 1.267 . S
C39 O36 1.249 1_554 S
C39 O37 1.267 . S
Dy40 O44 2.398 . S
Dy40 O45 2.491 . S
Dy40 O46 2.403 1_554 S
Dy40 O47 2.664 . S
Dy40 O51 2.326 . S
Dy40 O55 2.310 . S
Dy40 O56 2.351 . S
C41 O52 1.185 . S
C41 O53 1.355 . S
C42 O44 1.185 . S
C42 O45 1.355 . S
Dy43 O47 2.310 . S
Dy43 O50 2.351 . S
Dy43 O52 2.398 . S
Dy43 O53 2.491 . S
Dy43 O54 2.403 . S
Dy43 O55 2.664 . S
Dy43 O57 2.326 . S
O44 Dy40 2.398 . S
O44 C42 1.185 . S
O45 Dy40 2.491 . S
O45 C42 1.355 . S
O46 Dy40 2.403 1_556 S
O46 C48 1.254 . S
O47 Dy40 2.664 . S
O47 Dy43 2.310 . S
O47 C48 1.268 1_554 S
C48 O46 1.254 . S
C48 O47 1.268 1_556 S
C49 O54 1.254 . S
C49 O55 1.268 . S
O50 Dy43 2.351 . S
O50 C58 1.249 . S
O51 Dy40 2.326 . S
O51 C58 1.267 . S
O52 C41 1.185 . S
O52 Dy43 2.398 . S
O53 C41 1.355 . S
O53 Dy43 2.491 . S
O54 Dy43 2.403 . S
O54 C49 1.254 . S
O55 Dy40 2.310 . S
O55 Dy43 2.664 . S
O55 C49 1.268 . S
O56 Dy40 2.351 . S
O56 C59 1.249 . S
O57 Dy43 2.326 . S
O57 C59 1.267 . S
C58 O50 1.249 . S
C58 O51 1.267 . S
C59 O56 1.249 . S
C59 O57 1.267 . S
Dy60 O64 2.398 . S
Dy60 O65 2.491 1_556 S
Dy60 O66 2.403 . S
Dy60 O67 2.664 . S
Dy60 O71 2.326 . S
Dy60 O75 2.310 1_556 S
Dy60 O76 2.351 1_556 S
C61 O72 1.185 . S
C61 O73 1.355 1_554 S
C62 O64 1.185 1_554 S
C62 O65 1.355 . S
Dy63 O67 2.310 1_554 S
Dy63 O70 2.351 . S
Dy63 O72 2.398 . S
Dy63 O73 2.491 1_554 S
Dy63 O74 2.403 . S
Dy63 O75 2.664 . S
Dy63 O77 2.326 . S
O64 Dy60 2.398 . S
O64 C62 1.185 1_556 S
O65 Dy60 2.491 1_554 S
O65 C62 1.355 . S
O66 Dy60 2.403 . S
O66 C68 1.254 . S
O67 Dy60 2.664 . S
O67 Dy63 2.310 1_556 S
O67 C68 1.268 . S
C68 O66 1.254 . S
C68 O67 1.268 . S
C69 O74 1.254 . S
C69 O75 1.268 . S
O70 Dy63 2.351 . S
O70 C78 1.249 1_554 S
O71 Dy60 2.326 . S
O71 C78 1.267 . S
O72 C61 1.185 . S
O72 Dy63 2.398 . S
O73 C61 1.355 1_556 S
O73 Dy63 2.491 1_556 S
O74 Dy63 2.403 . S
O74 C69 1.254 . S
O75 Dy60 2.310 1_554 S
O75 Dy63 2.664 . S
O75 C69 1.268 . S
O76 Dy60 2.351 1_554 S
O76 C79 1.249 . S
O77 Dy63 2.326 . S
O77 C79 1.267 . S
C78 O70 1.249 1_556 S
C78 O71 1.267 . S
C79 O76 1.249 . S
C79 O77 1.267 . S
Dy80 O84 2.398 . S
Dy80 O85 2.491 . S
Dy80 O86 2.403 1_554 S
Dy80 O87 2.664 . S
Dy80 O91 2.326 . S
Dy80 O95 2.310 . S
Dy80 O96 2.351 . S
C81 O92 1.185 . S
C81 O93 1.355 . S
C82 O84 1.185 . S
C82 O85 1.355 . S
Dy83 O87 2.310 . S
Dy83 O90 2.351 . S
Dy83 O92 2.398 . S
Dy83 O93 2.491 . S
Dy83 O94 2.403 . S
Dy83 O95 2.664 . S
Dy83 O97 2.326 . S
O84 Dy80 2.398 . S
O84 C82 1.185 . S
O85 Dy80 2.491 . S
O85 C82 1.355 . S
O86 Dy80 2.403 1_556 S
O86 C88 1.254 . S
O87 Dy80 2.664 . S
O87 Dy83 2.310 . S
O87 C88 1.268 1_554 S
C88 O86 1.254 . S
C88 O87 1.268 1_556 S
C89 O94 1.254 . S
C89 O95 1.268 . S
O90 Dy83 2.351 . S
O90 C98 1.249 . S
O91 Dy80 2.326 . S
O91 C98 1.267 . S
O92 C81 1.185 . S
O92 Dy83 2.398 . S
O93 C81 1.355 . S
O93 Dy83 2.491 . S
O94 Dy83 2.403 . S
O94 C89 1.254 . S
O95 Dy80 2.310 . S
O95 Dy83 2.664 . S
O95 C89 1.268 . S
O96 Dy80 2.351 . S
O96 C99 1.249 . S
O97 Dy83 2.326 . S
O97 C99 1.267 . S
C98 O90 1.249 . S
C98 O91 1.267 . S
C99 O96 1.249 . S
C99 O97 1.267 . S
Dy100 O104 2.398 . S
Dy100 O105 2.491 1_554 S
Dy100 O106 2.403 . S
Dy100 O107 2.664 . S
Dy100 O111 2.326 . S
Dy100 O115 2.310 1_554 S
Dy100 O116 2.351 . S
C101 O112 1.185 1_554 S
C101 O113 1.355 . S
C102 O104 1.185 1_556 S
C102 O105 1.355 . S
Dy103 O107 2.310 1_556 S
Dy103 O110 2.351 . S
Dy103 O112 2.398 . S
Dy103 O113 2.491 1_556 S
Dy103 O114 2.403 . S
Dy103 O115 2.664 . S
Dy103 O117 2.326 . S
O104 Dy100 2.398 . S
O104 C102 1.185 1_554 S
O105 Dy100 2.491 1_556 S
O105 C102 1.355 . S
O106 Dy100 2.403 . S
O106 C108 1.254 . S
O107 Dy100 2.664 . S
O107 Dy103 2.310 1_554 S
O107 C108 1.268 . S
C108 O106 1.254 . S
C108 O107 1.268 . S
C109 O114 1.254 . S
C109 O115 1.268 . S
O110 Dy103 2.351 . S
O110 C118 1.248 1_556 S
O111 Dy100 2.326 . S
O111 C118 1.267 . S
O112 C101 1.185 1_556 S
O112 Dy103 2.398 . S
O113 C101 1.355 . S
O113 Dy103 2.491 1_554 S
O114 Dy103 2.403 . S
O114 C109 1.254 . S
O115 Dy100 2.310 1_556 S
O115 Dy103 2.664 . S
O115 C109 1.268 . S
O116 Dy100 2.351 . S
O116 C119 1.249 . S
O117 Dy103 2.326 . S
O117 C119 1.267 1_556 S
C118 O110 1.248 1_554 S
C118 O111 1.267 . S
C119 O116 1.249 . S
C119 O117 1.267 1_554 S
H120 C132 0.930 . S
H121 C134 0.930 . S
H122 C135 0.930 . S
H123 C139 0.959 . S
H124 C139 0.959 . S
H125 C139 0.961 . S
H126 C140 0.960 . S
H127 C140 0.961 . S
H128 C140 0.959 . S
H129 C143 0.929 . S
H130 C144 0.931 1_556 S
H131 C146 0.930 . S
C132 H120 0.930 . S
C132 C133 1.399 . S
C132 C137 1.399 . S
C133 C132 1.399 . S
C133 C134 1.376 1_554 S
C134 H121 0.930 . S
C134 C133 1.376 1_556 S
C134 C135 1.388 . S
C135 H122 0.930 . S
C135 C134 1.388 . S
C135 C136 1.390 1_556 S
C136 C135 1.390 1_554 S
C136 C137 1.394 . S
C136 C142 1.465 . S
C137 C132 1.399 . S
C137 C136 1.394 . S
C137 C138 1.516 . S
C138 C137 1.516 . S
C138 C139 1.502 . S
C138 C140 1.561 . S
C138 C141 1.526 . S
C139 H123 0.959 . S
C139 H124 0.959 . S
C139 H125 0.961 . S
C139 C138 1.502 . S
C140 H126 0.960 . S
C140 H127 0.961 . S
C140 H128 0.959 . S
C140 C138 1.561 . S
C141 C138 1.526 . S
C141 C142 1.396 . S
C141 C146 1.390 . S
C142 C136 1.465 . S
C142 C141 1.396 . S
C142 C143 1.399 1_554 S
C143 H129 0.929 . S
C143 C142 1.399 1_556 S
C143 C144 1.385 1_556 S
C144 H130 0.931 1_554 S
C144 C143 1.385 1_554 S
C144 C145 1.389 . S
C145 C144 1.389 . S
C145 C146 1.387 . S
C146 H131 0.930 . S
C146 C141 1.390 . S
C146 C145 1.387 . S
H147 C159 0.930 . S
H148 C161 0.930 1_556 S
H149 C162 0.930 . S
H150 C166 0.959 . S
H151 C166 0.959 1_655 S
H152 C166 0.961 . S
H153 C167 0.960 1_455 S
H154 C167 0.961 . S
H155 C167 0.959 . S
H156 C170 0.929 . S
H157 C171 0.931 . S
H158 C173 0.930 . S
C159 H147 0.930 . S
C159 C160 1.399 . S
C159 C164 1.399 . S
C160 C159 1.399 . S
C160 C161 1.376 . S
C161 H148 0.930 1_554 S
C161 C160 1.376 . S
C161 C162 1.388 1_554 S
C162 H149 0.930 . S
C162 C161 1.388 1_556 S
C162 C163 1.390 1_556 S
C163 C162 1.390 1_554 S
C163 C164 1.394 . S
C163 C169 1.465 1_455 S
C164 C159 1.399 . S
C164 C163 1.394 . S
C164 C165 1.520 . S
C165 C164 1.520 . S
C165 C166 1.505 . S
C165 C167 1.557 1_455 S
C165 C168 1.522 1_455 S
C166 H150 0.959 . S
C166 H151 0.959 1_455 S
C166 H152 0.961 . S
C166 C165 1.505 . S
C167 H153 0.960 1_655 S
C167 H154 0.961 . S
C167 H155 0.959 . S
C167 C165 1.557 1_655 S
C168 C165 1.522 1_655 S
C168 C169 1.396 . S
C168 C173 1.390 . S
C169 C163 1.465 1_655 S
C169 C168 1.396 . S
C169 C170 1.399 1_554 S
C170 H156 0.929 . S
C170 C169 1.399 1_556 S
C170 C171 1.385 . S
C171 H157 0.931 . S
C171 C170 1.385 . S
C171 C172 1.389 1_556 S
C172 C171 1.389 1_554 S
C172 C173 1.387 . S
C173 H158 0.930 . S
C173 C168 1.390 . S
C173 C172 1.387 . S
H174 C186 0.930 . S
H175 C188 0.930 . S
H176 C189 0.930 . S
H177 C193 0.969 . S
H178 C193 0.941 1_565 S
H179 C193 0.981 . S
H180 C194 0.963 1_545 S
H181 C194 0.958 . S
H182 C194 0.972 1_545 S
H183 C197 0.929 . S
H184 C198 0.931 . S
H185 C200 0.930 1_556 S
C186 H174 0.930 . S
C186 C187 1.399 1_556 S
C186 C191 1.399 . S
C187 C186 1.399 1_554 S
C187 C188 1.376 . S
C188 H175 0.930 . S
C188 C187 1.376 . S
C188 C189 1.388 . S
C189 H176 0.930 . S
C189 C188 1.388 . S
C189 C190 1.390 . S
C190 C189 1.390 . S
C190 C191 1.394 1_554 S
C190 C196 1.487 . S
C191 C186 1.399 . S
C191 C190 1.394 1_556 S
C191 C192 1.516 . S
C192 C191 1.516 . S
C192 C193 1.492 . S
C192 C194 1.563 1_545 S
C192 C195 1.526 1_546 S
C193 H177 0.969 . S
C193 H178 0.941 1_545 S
C193 H179 0.981 . S
C193 C192 1.492 . S
C194 H180 0.963 1_565 S
C194 H181 0.958 . S
C194 H182 0.972 1_565 S
C194 C192 1.563 1_565 S
C195 C192 1.526 1_564 S
C195 C196 1.391 1_565 S
C195 C200 1.390 . S
C196 C190 1.487 . S
C196 C195 1.391 1_545 S
C196 C197 1.383 1_545 S
C197 H183 0.929 . S
C197 C196 1.383 1_565 S
C197 C198 1.385 . S
C198 H184 0.931 . S
C198 C197 1.385 . S
C198 C199 1.389 . S
C199 C198 1.389 . S
C199 C200 1.387 . S
C200 H185 0.930 1_554 S
C200 C195 1.390 . S
C200 C199 1.387 . S
H201 C213 0.930 . S
H202 C215 0.930 . S
H203 C216 0.930 . S
H204 C220 0.959 . S
H205 C220 0.959 . S
H206 C220 0.961 . S
H207 C221 0.960 . S
H208 C221 0.961 . S
H209 C221 0.959 . S
H210 C224 0.929 . S
H211 C225 0.931 . S
H212 C227 0.930 1_556 S
C213 H201 0.930 . S
C213 C214 1.399 1_556 S
C213 C218 1.399 1_556 S
C214 C213 1.399 1_554 S
C214 C215 1.376 . S
C215 H202 0.930 . S
C215 C214 1.376 . S
C215 C216 1.388 . S
C216 H203 0.930 . S
C216 C215 1.388 . S
C216 C217 1.390 . S
C217 C216 1.390 . S
C217 C218 1.394 . S
C217 C223 1.465 . S
C218 C213 1.399 1_554 S
C218 C217 1.394 . S
C218 C219 1.516 1_554 S
C219 C218 1.516 1_556 S
C219 C220 1.502 . S
C219 C221 1.561 . S
C219 C222 1.526 1_556 S
C220 H204 0.959 . S
C220 H205 0.959 . S
C220 H206 0.961 . S
C220 C219 1.502 . S
C221 H207 0.960 . S
C221 H208 0.961 . S
C221 H209 0.959 . S
C221 C219 1.561 . S
C222 C219 1.526 1_554 S
C222 C223 1.396 . S
C222 C227 1.390 . S
C223 C217 1.465 . S
C223 C222 1.396 . S
C223 C224 1.399 . S
C224 H210 0.929 . S
C224 C223 1.399 . S
C224 C225 1.385 . S
C225 H211 0.931 . S
C225 C224 1.385 . S
C225 C226 1.389 . S
C226 C225 1.389 . S
C226 C227 1.387 . S
C227 H212 0.930 1_554 S
C227 C222 1.390 . S
C227 C226 1.387 . S
H228 C240 0.930 . S
H229 C242 0.930 . S
H230 C243 0.936 . S
H231 C247 0.959 . S
H232 C247 0.959 . S
H233 C247 0.961 . S
H234 C248 0.960 . S
H235 C248 0.961 . S
H236 C248 0.959 . S
H237 C251 0.929 . S
H238 C252 0.931 . S
H239 C254 0.930 . S
C240 H228 0.930 . S
C240 C241 1.399 . S
C240 C245 1.399 1_455 S
C241 C240 1.399 . S
C241 C242 1.376 1_554 S
C242 H229 0.930 . S
C242 C241 1.376 1_556 S
C242 C243 1.373 1_455 S
C243 H230 0.936 . S
C243 C242 1.373 1_655 S
C243 C244 1.399 1_556 S
C244 C243 1.399 1_554 S
C244 C245 1.394 . S
C244 C250 1.465 . S
C245 C240 1.399 1_655 S
C245 C244 1.394 . S
C245 C246 1.516 . S
C246 C245 1.516 . S
C246 C247 1.502 . S
C246 C248 1.561 . S
C246 C249 1.526 . S
C247 H231 0.959 . S
C247 H232 0.959 . S
C247 H233 0.961 . S
C247 C246 1.502 . S
C248 H234 0.960 . S
C248 H235 0.961 . S
C248 H236 0.959 . S
C248 C246 1.561 . S
C249 C246 1.526 . S
C249 C250 1.396 . S
C249 C254 1.390 . S
C250 C244 1.465 . S
C250 C249 1.396 . S
C250 C251 1.399 1_554 S
C251 H237 0.929 . S
C251 C250 1.399 1_556 S
C251 C252 1.385 . S
C252 H238 0.931 . S
C252 C251 1.385 . S
C252 C253 1.389 1_556 S
C253 C252 1.389 1_554 S
C253 C254 1.387 . S
C254 H239 0.930 . S
C254 C249 1.390 . S
C254 C253 1.387 . S
H255 C267 0.930 . S
H256 C269 0.930 1_556 S
H257 C270 0.930 . S
H258 C274 0.959 . S
H259 C274 0.959 . S
H260 C274 0.961 1_565 S
H261 C275 0.960 1_565 S
H262 C275 0.961 . S
H263 C275 0.959 . S
H264 C278 0.929 . S
H265 C279 0.931 . S
H266 C281 0.930 . S
C267 H255 0.930 . S
C267 C268 1.399 . S
C267 C272 1.399 . S
C268 C267 1.399 . S
C268 C269 1.376 . S
C269 H256 0.930 1_554 S
C269 C268 1.376 . S
C269 C270 1.388 1_554 S
C270 H257 0.930 . S
C270 C269 1.388 1_556 S
C270 C271 1.390 1_556 S
C271 C270 1.390 1_554 S
C271 C272 1.394 . S
C271 C277 1.465 1_565 S
C272 C267 1.399 . S
C272 C271 1.394 . S
C272 C273 1.516 1_565 S
C273 C272 1.516 1_545 S
C273 C274 1.502 . S
C273 C275 1.561 . S
C273 C276 1.526 . S
C274 H258 0.959 . S
C274 H259 0.959 . S
C274 H260 0.961 1_545 S
C274 C273 1.502 . S
C275 H261 0.960 1_545 S
C275 H262 0.961 . S
C275 H263 0.959 . S
C275 C273 1.561 . S
C276 C273 1.526 . S
C276 C277 1.396 . S
C276 C281 1.390 . S
C277 C271 1.465 1_545 S
C277 C276 1.396 . S
C277 C278 1.399 1_554 S
C278 H264 0.929 . S
C278 C277 1.399 1_556 S
C278 C279 1.385 . S
C279 H265 0.931 . S
C279 C278 1.385 . S
C279 C280 1.389 1_556 S
C280 C279 1.389 1_554 S
C280 C281 1.387 . S
C281 H266 0.930 . S
C281 C276 1.390 . S
C281 C280 1.387 . S
H282 C294 0.930 . S
H283 C296 0.930 . S
H284 C297 0.930 . S
H285 C301 0.959 1_554 S
H286 C301 0.959 . S
H287 C301 0.961 . S
H288 C302 0.960 . S
H289 C302 0.961 . S
H290 C302 0.959 . S
H291 C305 0.929 . S
H292 C306 0.931 . S
H293 C308 0.930 . S
C294 H282 0.930 . S
C294 C295 1.399 . S
C294 C299 1.399 . S
C295 C294 1.399 . S
C295 C296 1.376 . S
C296 H283 0.930 . S
C296 C295 1.376 . S
C296 C297 1.388 . S
C297 H284 0.930 . S
C297 C296 1.388 . S
C297 C298 1.390 . S
C298 C297 1.390 . S
C298 C299 1.394 . S
C298 C304 1.465 . S
C299 C294 1.399 . S
C299 C298 1.394 . S
C299 C300 1.516 . S
C300 C299 1.516 . S
C300 C301 1.502 1_554 S
C300 C302 1.561 1_554 S
C300 C303 1.526 . S
C301 H285 0.959 1_556 S
C301 H286 0.959 . S
C301 H287 0.961 . S
C301 C300 1.502 1_556 S
C302 H288 0.960 . S
C302 H289 0.961 . S
C302 H290 0.959 . S
C302 C300 1.561 1_556 S
C303 C300 1.526 . S
C303 C304 1.396 . S
C303 C308 1.390 . S
C304 C298 1.465 . S
C304 C303 1.396 . S
C304 C305 1.399 . S
C305 H291 0.929 . S
C305 C304 1.399 . S
C305 C306 1.385 . S
C306 H292 0.931 . S
C306 C305 1.385 . S
C306 C307 1.389 . S
C307 C306 1.389 . S
C307 C308 1.387 . S
C308 H293 0.930 . S
C308 C303 1.390 . S
C308 C307 1.387 . S
H309 C321 0.930 . S
H310 C323 0.930 . S
H311 C324 0.930 . S
H312 C328 0.959 . S
H313 C328 0.959 . S
H314 C328 0.961 . S
H315 C329 0.960 . S
H316 C329 0.961 . S
H317 C329 0.959 . S
H318 C332 0.929 . S
H319 C333 0.931 . S
H320 C335 0.930 . S
C321 H309 0.930 . S
C321 C322 1.399 . S
C321 C326 1.399 . S
C322 C321 1.399 . S
C322 C323 1.376 1_556 S
C323 H310 0.930 . S
C323 C322 1.376 1_554 S
C323 C324 1.388 . S
C324 H311 0.930 . S
C324 C323 1.388 . S
C324 C325 1.390 . S
C325 C324 1.390 . S
C325 C326 1.394 1_554 S
C325 C331 1.465 . S
C326 C321 1.399 . S
C326 C325 1.394 1_556 S
C326 C327 1.516 . S
C327 C326 1.516 . S
C327 C328 1.502 . S
C327 C329 1.561 . S
C327 C330 1.526 . S
C328 H312 0.959 . S
C328 H313 0.959 . S
C328 H314 0.961 . S
C328 C327 1.502 . S
C329 H315 0.960 . S
C329 H316 0.961 . S
C329 H317 0.959 . S
C329 C327 1.561 . S
C330 C327 1.526 . S
C330 C331 1.396 1_556 S
C330 C335 1.390 . S
C331 C325 1.465 . S
C331 C330 1.396 1_554 S
C331 C332 1.399 . S
C332 H318 0.929 . S
C332 C331 1.399 . S
C332 C333 1.385 . S
C333 H319 0.931 . S
C333 C332 1.385 . S
C333 C334 1.389 . S
C334 C333 1.389 . S
C334 C335 1.387 1_554 S
C335 H320 0.930 . S
C335 C330 1.390 . S
C335 C334 1.387 1_556 S
H336 C348 0.930 . S
H337 C350 0.930 . S
H338 C351 0.930 1_556 S
H339 C355 0.959 . S
H340 C355 0.959 . S
H341 C355 0.961 . S
H342 C356 0.960 . S
H343 C356 0.961 . S
H344 C356 0.959 . S
H345 C359 0.929 1_556 S
H346 C360 0.931 . S
H347 C362 0.930 . S
C348 H336 0.930 . S
C348 C349 1.399 . S
C348 C353 1.399 . S
C349 C348 1.399 . S
C349 C350 1.376 . S
C350 H337 0.930 . S
C350 C349 1.376 . S
C350 C351 1.388 . S
C351 H338 0.930 1_554 S
C351 C350 1.388 . S
C351 C352 1.390 . S
C352 C351 1.390 . S
C352 C353 1.394 . S
C352 C358 1.465 . S
C353 C348 1.399 . S
C353 C352 1.394 . S
C353 C354 1.516 . S
C354 C353 1.516 . S
C354 C355 1.502 . S
C354 C356 1.561 . S
C354 C357 1.526 . S
C355 H339 0.959 . S
C355 H340 0.959 . S
C355 H341 0.961 . S
C355 C354 1.502 . S
C356 H342 0.960 . S
C356 H343 0.961 . S
C356 H344 0.959 . S
C356 C354 1.561 . S
C357 C354 1.526 . S
C357 C358 1.396 . S
C357 C362 1.390 . S
C358 C352 1.465 . S
C358 C357 1.396 . S
C358 C359 1.399 . S
C359 H345 0.929 1_554 S
C359 C358 1.399 . S
C359 C360 1.385 . S
C360 H346 0.931 . S
C360 C359 1.385 . S
C360 C361 1.389 . S
C361 C360 1.389 . S
C361 C362 1.387 . S
C362 H347 0.930 . S
C362 C357 1.390 . S
C362 C361 1.387 . S
H363 C375 0.930 . S
H364 C377 0.930 . S
H365 C378 0.930 . S
H366 C382 0.959 . S
H367 C382 0.959 . S
H368 C382 0.961 . S
H369 C383 0.960 . S
H370 C383 0.961 . S
H371 C383 0.959 . S
H372 C386 0.929 . S
H373 C387 0.931 . S
H374 C389 0.930 . S
C375 H363 0.930 . S
C375 C376 1.399 1_554 S
C375 C380 1.399 . S
C376 C375 1.399 1_556 S
C376 C377 1.377 . S
C377 H364 0.930 . S
C377 C376 1.377 . S
C377 C378 1.388 . S
C378 H365 0.930 . S
C378 C377 1.388 . S
C378 C379 1.390 . S
C379 C378 1.390 . S
C379 C380 1.394 1_556 S
C379 C385 1.465 . S
C380 C375 1.399 . S
C380 C379 1.394 1_554 S
C380 C381 1.516 . S
C381 C380 1.516 . S
C381 C382 1.502 . S
C381 C383 1.561 . S
C381 C384 1.526 . S
C382 H366 0.959 . S
C382 H367 0.959 . S
C382 H368 0.961 . S
C382 C381 1.502 . S
C383 H369 0.960 . S
C383 H370 0.961 . S
C383 H371 0.959 . S
C383 C381 1.561 . S
C384 C381 1.526 . S
C384 C385 1.396 1_554 S
C384 C389 1.390 . S
C385 C379 1.465 . S
C385 C384 1.396 1_556 S
C385 C386 1.399 . S
C386 H372 0.929 . S
C386 C385 1.399 . S
C386 C387 1.385 . S
C387 H373 0.931 . S
C387 C386 1.385 . S
C387 C388 1.389 . S
C388 C387 1.389 . S
C388 C389 1.387 1_556 S
C389 H374 0.930 . S
C389 C384 1.390 . S
C389 C388 1.387 1_554 S
H390 C402 0.930 . S
H391 C404 0.930 . S
H392 C405 0.930 . S
H393 C409 0.959 1_554 S
H394 C409 0.959 . S
H395 C409 0.961 . S
H396 C410 0.960 . S
H397 C410 0.961 . S
H398 C410 0.959 1_554 S
H399 C413 0.929 . S
H400 C414 0.931 . S
H401 C416 0.930 . S
C402 H390 0.930 . S
C402 C403 1.399 . S
C402 C407 1.399 . S
C403 C402 1.399 . S
C403 C404 1.376 . S
C404 H391 0.930 . S
C404 C403 1.376 . S
C404 C405 1.388 . S
C405 H392 0.930 . S
C405 C404 1.388 . S
C405 C406 1.390 . S
C406 C405 1.390 . S
C406 C407 1.394 . S
C406 C412 1.465 . S
C407 C402 1.399 . S
C407 C406 1.394 . S
C407 C408 1.516 . S
C408 C407 1.516 . S
C408 C409 1.502 1_554 S
C408 C410 1.561 1_554 S
C408 C411 1.526 . S
C409 H393 0.959 1_556 S
C409 H394 0.959 . S
C409 H395 0.961 . S
C409 C408 1.502 1_556 S
C410 H396 0.960 . S
C410 H397 0.961 . S
C410 H398 0.959 1_556 S
C410 C408 1.561 1_556 S
C411 C408 1.526 . S
C411 C412 1.396 . S
C411 C416 1.390 . S
C412 C406 1.465 . S
C412 C411 1.396 . S
C412 C413 1.399 . S
C413 H399 0.929 . S
C413 C412 1.399 . S
C413 C414 1.385 . S
C414 H400 0.931 . S
C414 C413 1.385 . S
C414 C415 1.389 . S
C415 C414 1.389 . S
C415 C416 1.387 . S
C416 H401 0.930 . S
C416 C411 1.390 . S
C416 C415 1.387 . S
H417 C429 0.930 . S
H418 C431 0.930 . S
H419 C432 0.930 . S
H420 C436 0.959 . S
H421 C436 0.959 . S
H422 C436 0.961 . S
H423 C437 0.960 . S
H424 C437 0.961 . S
H425 C437 0.959 . S
H426 C440 0.929 . S
H427 C441 0.931 . S
H428 C443 0.930 . S
C429 H417 0.930 . S
C429 C430 1.399 1_554 S
C429 C434 1.399 . S
C430 C429 1.399 1_556 S
C430 C431 1.376 . S
C431 H418 0.930 . S
C431 C430 1.376 . S
C431 C432 1.388 . S
C432 H419 0.930 . S
C432 C431 1.388 . S
C432 C433 1.390 . S
C433 C432 1.390 . S
C433 C434 1.394 1_556 S
C433 C439 1.465 . S
C434 C429 1.399 . S
C434 C433 1.394 1_554 S
C434 C435 1.516 . S
C435 C434 1.516 . S
C435 C436 1.502 . S
C435 C437 1.561 . S
C435 C438 1.526 . S
C436 H420 0.959 . S
C436 H421 0.959 . S
C436 H422 0.961 . S
C436 C435 1.502 . S
C437 H423 0.960 . S
C437 H424 0.961 . S
C437 H425 0.959 . S
C437 C435 1.561 . S
C438 C435 1.526 . S
C438 C439 1.396 1_554 S
C438 C443 1.390 . S
C439 C433 1.465 . S
C439 C438 1.396 1_556 S
C439 C440 1.399 . S
C440 H426 0.929 . S
C440 C439 1.399 . S
C440 C441 1.385 . S
C441 H427 0.931 . S
C441 C440 1.385 . S
C441 C442 1.389 . S
C442 C441 1.389 . S
C442 C443 1.387 1_556 S
C443 H428 0.930 . S
C443 C438 1.390 . S
C443 C442 1.387 1_554 S
H444 C456 0.930 . S
H445 C458 0.930 . S
H446 C459 0.930 . S
H447 C463 0.959 . S
H448 C463 0.959 . S
H449 C463 0.961 . S
H450 C464 0.960 . S
H451 C464 0.961 . S
H452 C464 0.959 . S
H453 C467 0.929 . S
H454 C468 0.931 . S
H455 C470 0.930 . S
C456 H444 0.930 . S
C456 C457 1.399 . S
C456 C461 1.399 . S
C457 C456 1.399 . S
C457 C458 1.376 . S
C458 H445 0.930 . S
C458 C457 1.376 . S
C458 C459 1.388 . S
C459 H446 0.930 . S
C459 C458 1.388 . S
C459 C460 1.390 . S
C460 C459 1.390 . S
C460 C461 1.394 . S
C460 C466 1.465 . S
C461 C456 1.399 . S
C461 C460 1.394 . S
C461 C462 1.516 . S
C462 C461 1.516 . S
C462 C463 1.502 . S
C462 C464 1.561 . S
C462 C465 1.526 . S
C463 H447 0.959 . S
C463 H448 0.959 . S
C463 H449 0.961 . S
C463 C462 1.502 . S
C464 H450 0.960 . S
C464 H451 0.961 . S
C464 H452 0.959 . S
C464 C462 1.561 . S
C465 C462 1.526 . S
C465 C466 1.396 . S
C465 C470 1.390 . S
C466 C460 1.465 . S
C466 C465 1.396 . S
C466 C467 1.399 . S
C467 H453 0.929 . S
C467 C466 1.399 . S
C467 C468 1.385 . S
C468 H454 0.931 . S
C468 C467 1.385 . S
C468 C469 1.389 . S
C469 C468 1.389 . S
C469 C470 1.387 . S
C470 H455 0.930 . S
C470 C465 1.390 . S
C470 C469 1.387 . S
H471 C483 0.930 . S
H472 C485 0.930 . S
H473 C486 0.930 . S
H474 C490 0.959 . S
H475 C490 0.959 . S
H476 C490 0.961 . S
H477 C491 0.960 . S
H478 C491 0.961 . S
H479 C491 0.959 . S
H480 C494 0.929 . S
H481 C495 0.931 . S
H482 C497 0.930 . S
C483 H471 0.930 . S
C483 C484 1.399 . S
C483 C488 1.399 . S
C484 C483 1.399 . S
C484 C485 1.376 . S
C485 H472 0.930 . S
C485 C484 1.376 . S
C485 C486 1.388 . S
C486 H473 0.930 . S
C486 C485 1.388 . S
C486 C487 1.390 . S
C487 C486 1.390 . S
C487 C488 1.394 . S
C487 C493 1.465 . S
C488 C483 1.399 . S
C488 C487 1.394 . S
C488 C489 1.516 . S
C489 C488 1.516 . S
C489 C490 1.502 . S
C489 C491 1.561 . S
C489 C492 1.526 . S
C490 H474 0.959 . S
C490 H475 0.959 . S
C490 H476 0.961 . S
C490 C489 1.502 . S
C491 H477 0.960 . S
C491 H478 0.961 . S
C491 H479 0.959 . S
C491 C489 1.561 . S
C492 C489 1.526 . S
C492 C493 1.396 . S
C492 C497 1.390 . S
C493 C487 1.465 . S
C493 C492 1.396 . S
C493 C494 1.399 . S
C494 H480 0.929 . S
C494 C493 1.399 . S
C494 C495 1.385 . S
C495 H481 0.931 . S
C495 C494 1.385 . S
C495 C496 1.389 . S
C496 C495 1.389 . S
C496 C497 1.387 . S
C497 H482 0.930 . S
C497 C492 1.390 . S
C497 C496 1.387 . S
H498 C510 0.930 . S
H499 C512 0.930 . S
H500 C513 0.930 . S
H501 C517 0.959 . S
H502 C517 0.959 . S
H503 C517 0.961 . S
H504 C518 0.960 . S
H505 C518 0.961 . S
H506 C518 0.959 . S
H507 C521 0.929 . S
H508 C522 0.931 . S
H509 C524 0.930 . S
C510 H498 0.930 . S
C510 C511 1.399 . S
C510 C515 1.399 . S
C511 C510 1.399 . S
C511 C512 1.376 . S
C512 H499 0.930 . S
C512 C511 1.376 . S
C512 C513 1.388 . S
C513 H500 0.930 . S
C513 C512 1.388 . S
C513 C514 1.390 . S
C514 C513 1.390 . S
C514 C515 1.394 . S
C514 C520 1.465 . S
C515 C510 1.399 . S
C515 C514 1.394 . S
C515 C516 1.516 . S
C516 C515 1.516 . S
C516 C517 1.502 . S
C516 C518 1.561 . S
C516 C519 1.526 . S
C517 H501 0.959 . S
C517 H502 0.959 . S
C517 H503 0.961 . S
C517 C516 1.502 . S
C518 H504 0.960 . S
C518 H505 0.961 . S
C518 H506 0.959 . S
C518 C516 1.561 . S
C519 C516 1.526 . S
C519 C520 1.396 . S
C519 C524 1.390 . S
C520 C514 1.465 . S
C520 C519 1.396 . S
C520 C521 1.399 . S
C521 H507 0.929 . S
C521 C520 1.399 . S
C521 C522 1.385 . S
C522 H508 0.931 . S
C522 C521 1.385 . S
C522 C523 1.389 . S
C523 C522 1.389 . S
C523 C524 1.387 . S
C524 H509 0.930 . S
C524 C519 1.390 . S
C524 C523 1.387 . S
H525 C537 0.930 . S
H526 C539 0.930 . S
H527 C540 0.930 . S
H528 C544 0.959 . S
H529 C544 0.959 . S
H530 C544 0.961 . S
H531 C545 0.960 . S
H532 C545 0.961 . S
H533 C545 0.959 . S
H534 C548 0.929 . S
H535 C549 0.931 . S
H536 C551 0.930 . S
C537 H525 0.930 . S
C537 C538 1.399 . S
C537 C542 1.399 . S
C538 C537 1.399 . S
C538 C539 1.376 . S
C539 H526 0.930 . S
C539 C538 1.376 . S
C539 C540 1.388 . S
C540 H527 0.930 . S
C540 C539 1.388 . S
C540 C541 1.390 . S
C541 C540 1.390 . S
C541 C542 1.394 . S
C541 C547 1.465 . S
C542 C537 1.399 . S
C542 C541 1.394 . S
C542 C543 1.516 . S
C543 C542 1.516 . S
C543 C544 1.502 . S
C543 C545 1.561 . S
C543 C546 1.526 . S
C544 H528 0.959 . S
C544 H529 0.959 . S
C544 H530 0.961 . S
C544 C543 1.502 . S
C545 H531 0.960 . S
C545 H532 0.961 . S
C545 H533 0.959 . S
C545 C543 1.561 . S
C546 C543 1.526 . S
C546 C547 1.396 . S
C546 C551 1.390 . S
C547 C541 1.465 . S
C547 C546 1.396 . S
C547 C548 1.399 . S
C548 H534 0.929 . S
C548 C547 1.399 . S
C548 C549 1.385 . S
C549 H535 0.931 . S
C549 C548 1.385 . S
C549 C550 1.389 . S
C550 C549 1.389 . S
C550 C551 1.387 . S
C551 H536 0.930 . S
C551 C546 1.390 . S
C551 C550 1.387 . S
H552 C564 0.930 . S
H553 C566 0.930 . S
H554 C567 0.930 . S
H555 C571 0.959 . S
H556 C571 0.959 . S
H557 C571 0.961 . S
H558 C572 0.960 . S
H559 C572 0.961 . S
H560 C572 0.959 . S
H561 C575 0.929 . S
H562 C576 0.931 . S
H563 C578 0.930 . S
C564 H552 0.930 . S
C564 C565 1.399 . S
C564 C569 1.399 . S
C565 C564 1.399 . S
C565 C566 1.376 . S
C566 H553 0.930 . S
C566 C565 1.376 . S
C566 C567 1.388 . S
C567 H554 0.930 . S
C567 C566 1.388 . S
C567 C568 1.390 . S
C568 C567 1.390 . S
C568 C569 1.394 . S
C568 C574 1.465 . S
C569 C564 1.399 . S
C569 C568 1.394 . S
C569 C570 1.516 . S
C570 C569 1.516 . S
C570 C571 1.502 . S
C570 C572 1.561 . S
C570 C573 1.526 . S
C571 H555 0.959 . S
C571 H556 0.959 . S
C571 H557 0.961 . S
C571 C570 1.502 . S
C572 H558 0.960 . S
C572 H559 0.961 . S
C572 H560 0.959 . S
C572 C570 1.561 . S
C573 C570 1.526 . S
C573 C574 1.396 . S
C573 C578 1.390 . S
C574 C568 1.465 . S
C574 C573 1.396 . S
C574 C575 1.399 . S
C575 H561 0.929 . S
C575 C574 1.399 . S
C575 C576 1.385 . S
C576 H562 0.931 . S
C576 C575 1.385 . S
C576 C577 1.389 . S
C577 C576 1.389 . S
C577 C578 1.387 . S
C578 H563 0.930 . S
C578 C573 1.390 . S
C578 C577 1.387 . S
H579 C591 0.930 . S
H580 C593 0.930 . S
H581 C594 0.930 . S
H582 C598 0.959 . S
H583 C598 0.959 . S
H584 C598 0.961 . S
H585 C599 0.960 . S
H586 C599 0.961 . S
H587 C599 0.959 . S
H588 C602 0.929 . S
H589 C603 0.931 . S
H590 C605 0.930 . S
C591 H579 0.930 . S
C591 C592 1.399 . S
C591 C596 1.399 . S
C592 C591 1.399 . S
C592 C593 1.376 . S
C593 H580 0.930 . S
C593 C592 1.376 . S
C593 C594 1.388 . S
C594 H581 0.930 . S
C594 C593 1.388 . S
C594 C595 1.390 . S
C595 C594 1.390 . S
C595 C596 1.394 . S
C595 C601 1.465 . S
C596 C591 1.399 . S
C596 C595 1.394 . S
C596 C597 1.516 . S
C597 C596 1.516 . S
C597 C598 1.502 . S
C597 C599 1.561 . S
C597 C600 1.526 . S
C598 H582 0.959 . S
C598 H583 0.959 . S
C598 H584 0.961 . S
C598 C597 1.502 . S
C599 H585 0.960 . S
C599 H586 0.961 . S
C599 H587 0.959 . S
C599 C597 1.561 . S
C600 C597 1.526 . S
C600 C601 1.396 . S
C600 C605 1.390 . S
C601 C595 1.465 . S
C601 C600 1.396 . S
C601 C602 1.399 . S
C602 H588 0.929 . S
C602 C601 1.399 . S
C602 C603 1.385 . S
C603 H589 0.931 . S
C603 C602 1.385 . S
C603 C604 1.389 . S
C604 C603 1.389 . S
C604 C605 1.387 . S
C605 H590 0.930 . S
C605 C600 1.390 . S
C605 C604 1.387 . S
C133 C101 1.292 . S
C145 C1 1.354 . S
C160 C19 1.274 . S
C172 C21 1.109 . S
C187 C39 1.017 . S
C199 C41 1.010 . S
C214 C61 1.682 . S
C226 C59 1.795 . S
C241 C81 1.675 . S
C253 C79 1.831 . S
C268 C99 1.301 . S
C280 C119 1.314 . S
C295 C98 1.716 . S
C307 C2 1.706 . S
C322 C102 1.310 . S
C334 C22 1.322 1_554 S
C349 C42 1.468 . S
C361 C18 1.446 . S
C376 C62 1.770 1_556 S
C388 C38 1.774 . S
C403 C82 2.040 . S
C415 C58 2.054 . S
C430 C78 2.217 . S
C442 C118 2.229 1_556 S
C457 C8 1.387 . S
C469 C9 1.448 . S
C484 C28 1.443 . S
C496 C29 1.420 . S
C511 C48 1.451 . S
C523 C49 1.393 . S
C538 C68 1.459 . S
C550 C69 1.385 . S
C565 C89 1.412 . S
C577 C88 1.433 . S
C592 C109 1.386 . S
C604 C108 1.456 . S
