# Generated by pormake.
# Topology sml, (6)-cn, num edge types: 1
# Building blocks:
#     Node 0, Type 0, BuildingBlock: CIFDUS_clean_sbu_1, # of connection points: 6
#     Node 1, Type 0, BuildingBlock: CIFDUS_clean_sbu_1, # of connection points: 6
#     Node 2, Type 0, BuildingBlock: CIFDUS_clean_sbu_1, # of connection points: 6
#     Node 3, Type 0, BuildingBlock: CIFDUS_clean_sbu_1, # of connection points: 6
#     Node 4, Type 0, BuildingBlock: CIFDUS_clean_sbu_1, # of connection points: 6
#     Node 5, Type 0, BuildingBlock: CIFDUS_clean_sbu_1, # of connection points: 6
#     Edge 6, Type (0, 0), BuildingBlock: UVAHIK_clean_linker_0, # of connection points: 2
#     Edge 7, Type (0, 0), BuildingBlock: UVAHIK_clean_linker_0, # of connection points: 2
#     Edge 8, Type (0, 0), BuildingBlock: UVAHIK_clean_linker_0, # of connection points: 2
#     Edge 9, Type (0, 0), BuildingBlock: UVAHIK_clean_linker_0, # of connection points: 2
#     Edge 10, Type (0, 0), BuildingBlock: UVAHIK_clean_linker_0, # of connection points: 2
#     Edge 11, Type (0, 0), BuildingBlock: UVAHIK_clean_linker_0, # of connection points: 2
#     Edge 12, Type (0, 0), BuildingBlock: UVAHIK_clean_linker_0, # of connection points: 2
#     Edge 13, Type (0, 0), BuildingBlock: UVAHIK_clean_linker_0, # of connection points: 2
#     Edge 14, Type (0, 0), BuildingBlock: UVAHIK_clean_linker_0, # of connection points: 2
#     Edge 15, Type (0, 0), BuildingBlock: UVAHIK_clean_linker_0, # of connection points: 2
#     Edge 16, Type (0, 0), BuildingBlock: UVAHIK_clean_linker_0, # of connection points: 2
#     Edge 17, Type (0, 0), BuildingBlock: UVAHIK_clean_linker_0, # of connection points: 2
#     Edge 18, Type (0, 0), BuildingBlock: UVAHIK_clean_linker_0, # of connection points: 2
#     Edge 19, Type (0, 0), BuildingBlock: UVAHIK_clean_linker_0, # of connection points: 2
#     Edge 20, Type (0, 0), BuildingBlock: UVAHIK_clean_linker_0, # of connection points: 2
#     Edge 21, Type (0, 0), BuildingBlock: UVAHIK_clean_linker_0, # of connection points: 2
#     Edge 22, Type (0, 0), BuildingBlock: UVAHIK_clean_linker_0, # of connection points: 2
#     Edge 23, Type (0, 0), BuildingBlock: UVAHIK_clean_linker_0, # of connection points: 2
# Relax obj value: 0.147
# Max RMSD: 0.167
# Mean RMSD: 0.167
data_MOF--net-sml--node1-CIFDUS_clean_sbu_1--edge1-UVAHIK_clean_linker_0
_symmetry_space_group_name_H-M    P1
_symmetry_Int_Tables_number       1
_symmetry_cell_setting            triclinic
loop_
_symmetry_equiv_pos_as_xyz
'x, y, z'
_cell_length_a     50.484308
_cell_length_b     50.483224
_cell_length_c     20.024654
_cell_angle_alpha  89.886505
_cell_angle_beta   89.984881
_cell_angle_gamma 119.91345
loop_
_atom_site_label
_atom_site_type_symbol
_atom_site_fract_x
_atom_site_fract_y
_atom_site_fract_z
_atom_type_partial_charge
O0 O 0.22355 0.46874 0.00816 0.0
Mn1 Mn 0.24202 0.43936 -0.0026 0.0
O2 O 0.26317 0.51426 0.03887 0.0
Mn3 Mn 0.29101 0.5011 0.05137 0.0
O4 O 0.26174 0.41118 -0.01465 0.0
O5 O 0.19907 0.40292 0.01018 0.0
Mn6 Mn 0.19495 0.37502 0.95113 0.0
O7 O 0.2362 0.43917 0.89385 0.0
O8 O 0.22376 0.36328 0.96862 0.0
O9 O 0.24695 0.43837 0.10125 0.0
O10 O 0.28857 0.48189 0.13124 0.0
O11 O 0.15864 0.35779 -0.00338 0.0
O12 O 0.19798 0.39215 0.8677 0.0
C13 C 0.31249 0.49586 0.96608 0.0
C14 C 0.23531 0.49741 0.02199 0.0
C15 C 0.25199 0.38249 0.97684 0.0
C16 C 0.17123 0.38345 0.02864 0.0
C17 C 0.21776 0.41943 0.8515 0.0
C18 C 0.2665 0.4555 0.14522 0.0
O19 O 0.28505 0.47562 -0.0148 0.0
O20 O 0.32667 0.51948 0.00444 0.0
O21 O 0.76295 0.21361 0.34236 0.0
Mn22 Mn 0.81063 0.23418 0.32866 0.0
O23 O 0.75536 0.25072 0.38471 0.0
Mn24 Mn 0.79599 0.28127 0.38749 0.0
O25 O 0.85862 0.256 0.31438 0.0
O26 O 0.80659 0.19223 0.34 0.0
Mn27 Mn 0.83057 0.18915 0.27991 0.0
O28 O 0.80437 0.22835 0.22528 0.0
O29 O 0.87053 0.21928 0.29709 0.0
O30 O 0.81741 0.23922 0.43255 0.0
O31 O 0.81691 0.28154 0.46294 0.0
O32 O 0.81292 0.15285 0.3261 0.0
O33 O 0.81554 0.19182 0.19728 0.0
C34 C 0.81888 0.30235 0.29731 0.0
C35 C 0.74542 0.22342 0.36463 0.0
C36 C 0.8784 0.24726 0.30551 0.0
C37 C 0.79931 0.16474 0.35882 0.0
C38 C 0.80665 0.2107 0.18216 0.0
C39 C 0.82121 0.25938 0.47638 0.0
O40 O 0.8141 0.27583 0.31749 0.0
O41 O 0.80919 0.31584 0.33721 0.0
O42 O 0.55107 0.75693 0.6681 0.0
Mn43 Mn 0.5807 0.80452 0.65662 0.0
O44 O 0.50605 0.75178 0.7014 0.0
Mn45 Mn 0.51935 0.79291 0.71181 0.0
O46 O 0.60921 0.85227 0.64406 0.0
O47 O 0.6169 0.79758 0.66897 0.0
Mn48 Mn 0.64475 0.82082 0.60912 0.0
O49 O 0.58062 0.79876 0.55314 0.0
O50 O 0.65687 0.86144 0.62623 0.0
O51 O 0.58187 0.81061 0.7605 0.0
O52 O 0.53909 0.81041 0.79057 0.0
O53 O 0.66169 0.80144 0.65487 0.0
O54 O 0.62732 0.80675 0.52606 0.0
C55 C 0.52433 0.81847 0.62424 0.0
C56 C 0.52253 0.7404 0.68354 0.0
C57 C 0.63795 0.87084 0.63505 0.0
C58 C 0.63617 0.78894 0.6876 0.0
C59 C 0.60011 0.79971 0.51036 0.0
C60 C 0.56521 0.81395 0.80442 0.0
O61 O 0.54456 0.81146 0.64451 0.0
O62 O 0.50099 0.80988 0.66326 0.0
O63 O 0.80599 0.55282 0.01427 0.0
Mn64 Mn 0.78498 0.57966 0.00146 0.0
O65 O 0.76905 0.50733 0.05343 0.0
Mn66 Mn 0.73864 0.51755 0.05904 0.0
O67 O 0.76293 0.60569 -0.01233 0.0
O68 O 0.8268 0.61758 0.01336 0.0
Mn69 Mn 0.82986 0.6448 0.95356 0.0
O70 O 0.7911 0.57977 0.89803 0.0
O71 O 0.79944 0.65434 0.97036 0.0
O72 O 0.7798 0.58095 0.10533 0.0
O73 O 0.73858 0.53725 0.13618 0.0
O74 O 0.86589 0.66348 0.00033 0.0
O75 O 0.82776 0.62751 0.87081 0.0
C76 C 0.71636 0.51967 0.97161 0.0
C77 C 0.7964 0.52521 0.03434 0.0
C78 C 0.7715 0.63415 0.97868 0.0
C79 C 0.85414 0.63785 0.03262 0.0
C80 C 0.80895 0.59984 0.85526 0.0
C81 C 0.76014 0.56396 0.14948 0.0
O82 O 0.7432 0.54146 -0.00998 0.0
O83 O 0.70355 0.49627 0.0112 0.0
O84 O 0.26048 0.8021 0.3435 0.0
Mn85 Mn 0.21263 0.78096 0.3313 0.0
O86 O 0.26946 0.76525 0.38159 0.0
Mn87 Mn 0.22896 0.73487 0.38833 0.0
O88 O 0.16459 0.75889 0.31814 0.0
O89 O 0.21639 0.8228 0.34308 0.0
Mn90 Mn 0.19235 0.82579 0.28293 0.0
O91 O 0.21855 0.78694 0.22779 0.0
O92 O 0.15242 0.79533 0.2993 0.0
O93 O 0.2063 0.77582 0.43522 0.0
O94 O 0.20954 0.73495 0.46602 0.0
O95 O 0.2095 0.8619 0.32926 0.0
O96 O 0.20774 0.8238 0.20034 0.0
C97 C 0.20414 0.71226 0.3018 0.0
C98 C 0.27869 0.79259 0.36272 0.0
C99 C 0.14468 0.7674 0.30839 0.0
C100 C 0.22334 0.8502 0.36189 0.0
C101 C 0.21651 0.80487 0.18492 0.0
C102 C 0.20404 0.75631 0.47939 0.0
O103 O 0.20917 0.73916 0.31992 0.0
O104 O 0.21507 0.69965 0.34106 0.0
O105 O 0.47295 0.2578 0.6729 0.0
Mn106 Mn 0.44283 0.21031 0.66066 0.0
O107 O 0.51745 0.26198 0.70717 0.0
Mn108 Mn 0.50359 0.22067 0.71672 0.0
O109 O 0.41397 0.16264 0.64743 0.0
O110 O 0.40683 0.2177 0.67284 0.0
Mn111 Mn 0.37932 0.1949 0.61215 0.0
O112 O 0.44347 0.21659 0.55714 0.0
O113 O 0.36662 0.15406 0.62845 0.0
O114 O 0.44114 0.20373 0.76452 0.0
O115 O 0.4833 0.20281 0.79495 0.0
O116 O 0.36216 0.21407 0.65745 0.0
O117 O 0.39713 0.20935 0.52945 0.0
C118 C 0.49873 0.19566 0.62859 0.0
C119 C 0.50143 0.27386 0.6891 0.0
C120 C 0.38525 0.14433 0.63761 0.0
C121 C 0.38744 0.22628 0.69093 0.0
C122 C 0.42431 0.21613 0.51411 0.0
C123 C 0.45735 0.19976 0.80857 0.0
O124 O 0.47866 0.20288 0.64883 0.0
O125 O 0.5218 0.20364 0.66802 0.0
C126 C 0.37373 0.23555 0.80342 0.0
C127 C 0.39145 0.24768 0.74549 0.0
C128 C 0.36505 0.25313 0.84199 0.0
C129 C 0.37465 0.33058 0.87062 0.0
H130 H 0.28684 0.28459 0.89483 0.0
C131 C 0.30216 0.38857 0.93623 0.0
C132 C 0.274 0.37108 0.96916 0.0
C133 C 0.32003 0.37545 0.91786 0.0
C134 C 0.31145 0.29787 0.89029 0.0
H135 H 0.41544 0.28836 0.68475 0.0
H136 H 0.40105 0.31948 0.75304 0.0
H137 H 0.31321 0.25931 0.85162 0.0
H138 H 0.24373 0.32678 0.0128 0.0
H139 H 0.27536 0.30459 -0.01504 0.0
H140 H 0.37283 0.36922 0.90968 0.0
C141 C 0.39398 0.29639 0.7691 0.0
C142 C 0.32666 0.28321 0.86503 0.0
C143 C 0.40257 0.27867 0.73029 0.0
C144 C 0.26515 0.34084 -0.01307 0.0
C145 C 0.28323 0.32796 0.96996 0.0
C146 C 0.35943 0.34526 0.89698 0.0
C147 C 0.37372 0.28331 0.82335 0.0
C148 C 0.35845 0.29927 0.85454 0.0
C149 C 0.31045 0.3446 0.93288 0.0
C150 C 0.32746 0.32915 0.90708 0.0
H151 H 0.36416 0.21155 0.81542 0.0
H152 H 0.34987 0.24242 0.88403 0.0
H153 H 0.39914 0.3437 0.8632 0.0
H154 H 0.30952 0.41186 0.92116 0.0
H155 H 0.34062 0.38918 0.88914 0.0
C156 C 0.14767 0.37099 0.14078 0.0
C157 C 0.15339 0.38792 0.08153 0.0
C158 C 0.12116 0.36257 0.17828 0.0
C159 C 0.05236 0.37138 0.20016 0.0
H160 H 1.01192 0.28406 0.23145 0.0
C161 C 0.92166 0.29746 0.26285 0.0
C162 C 0.91156 0.27006 0.29861 0.0
C163 C 0.95268 0.31571 0.24511 0.0
C164 C 0.02286 0.30856 0.22487 0.0
H165 H 0.13667 0.41082 0.01727 0.0
H166 H 0.09067 0.39681 0.08351 0.0
H167 H 0.06375 0.3105 0.18949 0.0
H168 H 0.92647 0.2416 0.348 0.0
H169 H 0.98025 0.27394 0.32119 0.0
H170 H 1.01122 0.36932 0.23577 0.0
C171 C 0.10678 0.39019 0.10148 0.0
C172 C 0.05283 0.32381 0.20036 0.0
C173 C 0.13337 0.39856 0.06381 0.0
C174 C 0.93343 0.26242 0.31991 0.0
C175 C 0.96436 0.28089 0.30356 0.0
C176 C 0.02231 0.35611 0.2257 0.0
C177 C 0.0995 0.37065 0.15716 0.0
C178 C 0.06809 0.35541 0.18743 0.0
C179 C 0.97446 0.30724 0.26359 0.0
C180 C 1.00698 0.32435 0.23838 0.0
H181 H 0.16224 0.3618 0.15476 0.0
H182 H 0.11663 0.34797 0.22149 0.0
H183 H 0.06335 0.39572 0.19076 0.0
H184 H 0.90534 0.30384 0.24506 0.0
H185 H 0.95921 0.33564 0.21416 0.0
C186 C 0.78922 0.13978 0.46937 0.0
C187 C 0.77754 0.14658 0.41233 0.0
C188 C 0.77106 0.11325 0.50672 0.0
C189 C 0.69285 0.0466 0.53376 0.0
H190 H 0.73719 1.00277 0.55423 0.0
C191 C 0.63271 0.91561 0.59565 0.0
C192 C 0.64982 0.90433 0.62802 0.0
C193 C 0.64628 0.94672 0.57799 0.0
C194 C 0.72438 0.01466 0.55069 0.0
H195 H 0.73712 0.13178 0.35187 0.0
H196 H 0.705 0.08567 0.41797 0.0
H197 H 0.76342 0.05467 0.51252 0.0
H198 H 0.69387 0.91734 0.67154 0.0
H199 H 0.71684 0.97132 0.64485 0.0
H200 H 0.65371 1.00638 0.5723 0.0
C201 C 0.72818 0.10099 0.4343 0.0
C202 C 0.73958 0.04466 0.52631 0.0
C203 C 0.74648 0.12763 0.39677 0.0
C204 C 0.68012 0.92519 0.64603 0.0
C205 C 0.69343 0.95624 0.62977 0.0
C206 C 0.67762 0.01653 0.55921 0.0
C207 C 0.74076 0.09264 0.48762 0.0
C208 C 0.72413 0.06113 0.51732 0.0
C209 C 0.67719 0.96745 0.59319 0.0
C210 C 0.69315 0.99999 0.56803 0.0
H211 H 0.81324 0.15355 0.48164 0.0
H212 H 0.78139 0.10788 0.54811 0.0
H213 H 0.68021 0.05856 0.52744 0.0
H214 H 0.60938 0.9001 0.58046 0.0
H215 H 0.63286 0.95411 0.54968 0.0
C216 C 0.6483 0.77868 0.8009 0.0
C217 C 0.63166 0.76706 0.74163 0.0
C218 C 0.65657 0.76088 0.84 0.0
C219 C 0.64766 0.68342 0.86626 0.0
H220 H 0.73474 0.73033 0.89971 0.0
C221 C 0.72139 0.62695 0.93481 0.0
C222 C 0.74855 0.64434 0.97103 0.0
C223 C 0.70316 0.63963 0.91586 0.0
C224 C 0.71028 0.71676 0.89254 0.0
H225 H 0.60918 0.72706 0.67883 0.0
H226 H 0.62292 0.69558 0.74781 0.0
H227 H 0.70855 0.75554 0.85493 0.0
H228 H 0.77656 0.68775 0.02 0.0
H229 H 0.74423 0.70904 -0.00893 0.0
H230 H 0.64953 0.64452 0.90402 0.0
C231 C 0.62941 0.7184 0.76461 0.0
C232 C 0.69518 0.73138 0.86641 0.0
C233 C 0.6212 0.73633 0.72535 0.0
C234 C 0.75592 0.67382 -0.00837 0.0
C235 C 0.73748 0.6862 0.97404 0.0
C236 C 0.66278 0.66874 0.89338 0.0
C237 C 0.64863 0.73102 0.82047 0.0
C238 C 0.66368 0.71501 0.85263 0.0
C239 C 0.71142 0.66987 0.93354 0.0
C240 C 0.69444 0.68519 0.90683 0.0
H241 H 0.65737 0.8025 0.81377 0.0
H242 H 0.67091 0.77122 0.88328 0.0
H243 H 0.62339 0.67005 0.85627 0.0
H244 H 0.71524 0.60427 0.91752 0.0
H245 H 0.68347 0.62618 0.88455 0.0
C246 C 0.0894 0.75294 0.31326 0.0
C247 C 0.11154 0.74434 0.3012 0.0
C248 C 0.05863 0.73343 0.2972 0.0
C249 C 1.00992 0.67221 0.18052 0.0
H250 H 0.94423 0.66767 0.28921 0.0
C251 C 0.88646 0.61678 0.07604 0.0
C252 C 0.87221 0.63426 0.08647 0.0
C253 C 0.91254 0.62263 0.11319 0.0
C254 C 0.96221 0.66872 0.25788 0.0
H255 H 0.11825 0.70783 0.26404 0.0
H256 H 0.06432 0.67371 0.23516 0.0
H257 H 0.9962 0.69274 0.33286 0.0
H258 H 0.87305 0.67033 0.14593 0.0
H259 H 0.91758 0.68017 0.21101 0.0
H260 H 0.97628 0.6495 0.10429 0.0
C261 C 0.07093 0.69568 0.25741 0.0
C262 C 0.99211 0.6831 0.28312 0.0
C263 C 0.10181 0.7151 0.27459 0.0
C264 C 0.88309 0.65597 0.13795 0.0
C265 C 0.90889 0.66172 0.17514 0.0
C266 C 0.98001 0.65802 0.15498 0.0
C267 C 0.04898 0.70479 0.26765 0.0
C268 C 0.01656 0.68574 0.24424 0.0
C269 C 0.9249 0.6461 0.16151 0.0
C270 C 0.95576 0.65675 0.19259 0.0
H271 H 0.09601 0.77527 0.33352 0.0
H272 H 0.04259 0.74145 0.30528 0.0
H273 H 0.02813 0.67398 0.14885 0.0
H274 H 0.87907 0.60043 0.03554 0.0
H275 H 0.92384 0.60973 0.10179 0.0
C276 C 0.3903 0.09941 0.59852 0.0
C277 C 0.37312 0.1108 0.63011 0.0
C278 C 0.37662 0.06836 0.58053 0.0
C279 C 0.29844 1.00087 0.55096 0.0
H280 H 0.34213 0.95637 0.53049 0.0
C281 C 0.23318 0.87562 0.47161 0.0
C282 C 0.24499 0.86848 0.41532 0.0
C283 C 0.25132 0.90223 0.50844 0.0
C284 C 0.32962 0.96851 0.536 0.0
H285 H 0.32875 0.09798 0.67178 0.0
H286 H 0.30556 0.0441 0.64453 0.0
H287 H 0.36869 0.00849 0.57512 0.0
H288 H 0.28564 0.88282 0.35572 0.0
H289 H 0.31772 0.92909 0.42098 0.0
H290 H 0.25946 0.96107 0.51229 0.0
C291 C 0.32914 0.05908 0.63031 0.0
C292 C 0.34489 0.99855 0.56132 0.0
C293 C 0.34258 0.09007 0.64692 0.0
C294 C 0.27615 0.88722 0.40007 0.0
C295 C 0.29443 0.91396 0.4371 0.0
C296 C 0.2832 0.9709 0.52671 0.0
C297 C 0.34551 0.04778 0.59458 0.0
C298 C 0.32953 0.0153 0.56923 0.0
C299 C 0.28174 0.92263 0.48959 0.0
C300 C 0.29846 0.95419 0.51876 0.0
H301 H 0.41381 0.11482 0.58424 0.0
H302 H 0.39015 0.06092 0.5529 0.0
H303 H 0.28577 0.01292 0.55375 0.0
H304 H 0.2091 0.86202 0.48364 0.0
H305 H 0.24088 0.90783 0.54922 0.0
C306 C 0.19627 0.41003 0.73624 0.0
C307 C 0.22085 0.42716 0.77966 0.0
C308 C 0.20026 0.4135 0.66723 0.0
C309 C 0.25237 0.4632 0.53414 0.0
H310 H 0.21614 0.38777 0.43254 0.0
C311 C 0.2858 0.46196 0.26199 0.0
C312 C 0.26178 0.44637 0.21636 0.0
C313 C 0.28046 0.45792 0.3305 0.0
C314 C 0.22616 0.40902 0.46013 0.0
H315 H 0.26852 0.46212 0.78484 0.0
H316 H 0.27566 0.46822 0.66409 0.0
H317 H 0.20696 0.3861 0.55249 0.0
H318 H 0.21366 0.41284 0.20683 0.0
H319 H 0.20429 0.40574 0.32716 0.0
H320 H 0.27177 0.48608 0.44187 0.0
C321 C 0.25317 0.45232 0.68344 0.0
C322 C 0.22084 0.40812 0.52881 0.0
C323 C 0.24911 0.44895 0.75267 0.0
C324 C 0.23265 0.4251 0.24072 0.0
C325 C 0.22728 0.42109 0.30961 0.0
C326 C 0.25775 0.46408 0.46556 0.0
C327 C 0.22897 0.43404 0.63996 0.0
C328 C 0.23395 0.4352 0.56664 0.0
C329 C 0.25097 0.43823 0.35513 0.0
C330 C 0.24486 0.437 0.42787 0.0
H331 H 0.1741 0.39323 0.75558 0.0
H332 H 0.18096 0.39961 0.63519 0.0
H333 H 0.26243 0.48449 0.56158 0.0
H334 H 0.30861 0.47822 0.24483 0.0
H335 H 0.29934 0.47083 0.36431 0.0
C336 C 0.80739 0.24216 0.08435 0.0
C337 C 0.80179 0.21398 0.11051 0.0
C338 C 0.80864 0.24674 0.01517 0.0
C339 C 0.78879 0.20701 0.85205 0.0
H340 H 0.8604 0.28047 0.78875 0.0
C341 C 0.81889 0.22588 0.57176 0.0
C342 C 0.82642 0.25492 0.54725 0.0
C343 C 0.81794 0.22065 0.64068 0.0
C344 C 0.84016 0.25995 0.80553 0.0
H345 H 0.79095 0.16791 0.08499 0.0
H346 H 0.79279 0.17579 0.96483 0.0
H347 H 0.85083 0.27208 0.90838 0.0
H348 H 0.84105 0.3017 0.57561 0.0
H349 H 0.83923 0.29259 0.69483 0.0
H350 H 0.77792 0.19499 0.74928 0.0
C351 C 0.79641 0.19441 -0.00259 0.0
C352 C 0.8346 0.25523 0.87409 0.0
C353 C 0.79547 0.18994 0.06632 0.0
C354 C 0.83497 0.279 0.5928 0.0
C355 C 0.83407 0.2738 0.66137 0.0
C356 C 0.79426 0.2118 0.78344 0.0
C357 C 0.80393 0.22311 0.97105 0.0
C358 C 0.80884 0.22874 0.89811 0.0
C359 C 0.82467 0.24439 0.68628 0.0
C360 C 0.81999 0.23837 0.75931 0.0
H361 H 0.8125 0.26116 0.11714 0.0
H362 H 0.81408 0.269 -0.00382 0.0
H363 H 0.76866 0.18645 0.86907 0.0
H364 H 0.81215 0.20683 0.53801 0.0
H365 H 0.81114 0.19783 0.65828 0.0
C366 C 0.57015 0.80173 0.41255 0.0
C367 C 0.59222 0.79537 0.4386 0.0
C368 C 0.5668 0.80296 0.34342 0.0
C369 C 0.58551 0.78166 0.18051 0.0
H370 H 0.58425 0.85349 0.11593 0.0
C371 C 0.59595 0.81085 0.89965 0.0
C372 C 0.5745 0.81852 0.87546 0.0
C373 C 0.60035 0.80994 0.96848 0.0
C374 C 0.58438 0.8332 0.13311 0.0
H375 H 0.62663 0.78331 0.41285 0.0
H376 H 0.62063 0.78523 0.29276 0.0
H377 H 0.58368 0.84459 0.23575 0.0
H378 H 0.54242 0.83326 0.9043 0.0
H379 H 0.54994 0.83153 0.02342 0.0
H380 H 0.58594 0.77011 0.07792 0.0
C381 C 0.606 0.7894 0.32544 0.0
C382 C 0.58388 0.82802 0.20176 0.0
C383 C 0.60951 0.78843 0.39431 0.0
C384 C 0.559 0.82708 0.92123 0.0
C385 C 0.56344 0.82625 -0.01029 0.0
C386 C 0.58588 0.78677 0.11181 0.0
C387 C 0.58524 0.79752 0.29921 0.0
C388 C 0.58437 0.80217 0.22622 0.0
C389 C 0.58352 0.81688 0.01429 0.0
C390 C 0.58523 0.81256 0.08728 0.0
H391 H 0.55663 0.80733 0.44538 0.0
H392 H 0.5503 0.80887 0.32456 0.0
H393 H 0.58571 0.76143 0.19788 0.0
H394 H 0.60822 0.8041 0.86569 0.0
H395 H 0.61637 0.8031 -0.01413 0.0
C396 C 0.77805 0.56955 0.75696 0.0
C397 C 0.80605 0.59201 0.78355 0.0
C398 C 0.77387 0.56625 0.68775 0.0
C399 C 0.80511 0.61139 0.53285 0.0
H400 H 0.75502 0.5335 0.44578 0.0
C401 C 0.79352 0.59496 0.24468 0.0
C402 C 0.76454 0.57339 0.22038 0.0
C403 C 0.79879 0.59898 0.31358 0.0
C404 C 0.7688 0.55548 0.46952 0.0
H405 H 0.8523 0.62708 0.75879 0.0
H406 H 0.84533 0.62074 0.63852 0.0
H407 H 0.76465 0.53485 0.56528 0.0
H408 H 0.71781 0.54107 0.24899 0.0
H409 H 0.72691 0.54846 0.36848 0.0
H410 H 0.80936 0.63193 0.43676 0.0
C411 C 0.82625 0.60634 0.67079 0.0
C412 C 0.77434 0.55623 0.53801 0.0
C413 C 0.83033 0.60978 0.73976 0.0
C414 C 0.74051 0.55758 0.26609 0.0
C415 C 0.74575 0.56162 0.33461 0.0
C416 C 0.79966 0.61061 0.46425 0.0
C417 C 0.79771 0.58523 0.64387 0.0
C418 C 0.79249 0.5842 0.57059 0.0
C419 C 0.77515 0.58154 0.35918 0.0
C420 C 0.78128 0.58266 0.43193 0.0
H421 H 0.75885 0.55578 0.78944 0.0
H422 H 0.75152 0.54986 0.66876 0.0
H423 H 0.81874 0.6334 0.55653 0.0
H424 H 0.81254 0.6074 0.21076 0.0
H425 H 0.82171 0.61453 0.33106 0.0
C426 C 0.20609 0.78952 0.5747 0.0
C427 C 0.19896 0.76061 0.55033 0.0
C428 C 0.20731 0.79473 0.6436 0.0
C429 C 0.22115 0.76481 0.79927 0.0
H430 H 0.19272 0.81444 0.88668 0.0
C431 C 0.21606 0.77393 0.08676 0.0
C432 C 0.22155 0.80195 0.11326 0.0
C433 C 0.21525 0.76975 0.01756 0.0
C434 C 0.20121 0.8009 0.86288 0.0
H435 H 0.18498 0.71393 0.57879 0.0
H436 H 0.18659 0.72292 0.6983 0.0
H437 H 0.18481 0.80507 0.76695 0.0
H438 H 0.23275 0.84824 0.08838 0.0
H439 H 0.23219 0.84124 0.96814 0.0
H440 H 0.23769 0.76071 0.89492 0.0
C441 C 0.19211 0.74176 0.66449 0.0
C442 C 0.19655 0.79546 0.79431 0.0
C443 C 0.19096 0.73658 0.59596 0.0
C444 C 0.22811 0.82625 0.06942 0.0
C445 C 0.22752 0.82217 0.00047 0.0
C446 C 0.22591 0.77033 0.86774 0.0
C447 C 0.20133 0.77111 0.68913 0.0
C448 C 0.20629 0.77719 0.76185 0.0
C449 C 0.22012 0.7936 0.97365 0.0
C450 C 0.21593 0.78837 0.90044 0.0
H451 H 0.21249 0.80853 0.54081 0.0
H452 H 0.21446 0.81761 0.66114 0.0
H453 H 0.22947 0.75112 0.77541 0.0
H454 H 0.2106 0.75472 0.11928 0.0
H455 H 0.20932 0.74739 -0.0014 0.0
C456 C 0.45382 0.21324 0.41639 0.0
C457 C 0.43242 0.22055 0.44242 0.0
C458 C 0.45703 0.21184 0.34725 0.0
C459 C 0.43915 0.23385 0.18396 0.0
H460 H 0.43744 0.16045 0.12088 0.0
C461 C 0.42717 0.20386 0.90374 0.0
C462 C 0.44791 0.19524 0.87957 0.0
C463 C 0.42296 0.20503 0.97259 0.0
C464 C 0.43814 0.18117 0.13763 0.0
H465 H 0.39916 0.23416 0.41665 0.0
H466 H 0.40492 0.23196 0.29656 0.0
H467 H 0.43871 0.16987 0.24049 0.0
H468 H 0.47881 0.17901 0.90847 0.0
H469 H 0.47162 0.18116 0.02761 0.0
H470 H 0.43884 0.24531 0.08113 0.0
C471 C 0.41914 0.22718 0.32922 0.0
C472 C 0.43904 0.18665 0.20617 0.0
C473 C 0.41575 0.22832 0.3981 0.0
C474 C 0.46279 0.18593 0.9254 0.0
C475 C 0.45854 0.18701 -0.00611 0.0
C476 C 0.43837 0.22844 0.11537 0.0
C477 C 0.43912 0.21804 0.30301 0.0
C478 C 0.43962 0.21308 0.2301 0.0
C479 C 0.43927 0.1974 0.01843 0.0
C480 C 0.43794 0.20207 0.09137 0.0
H481 H 0.46682 0.20696 0.44924 0.0
H482 H 0.47294 0.20514 0.32841 0.0
H483 H 0.43976 0.25452 0.2009 0.0
H484 H 0.41539 0.21121 0.86975 0.0
H485 H 0.40755 0.21264 -0.01005 0.0
C486 C 0.18815 0.50047 0.0503 0.0
C487 C 0.21689 0.51285 0.01938 0.0
C488 C 0.17494 0.51892 0.06169 0.0
C489 C 0.18466 0.59668 0.02443 0.0
H490 H 0.15908 0.59229 0.20836 0.0
C491 C 0.20769 0.70053 0.18405 0.0
C492 C 0.18913 0.69617 0.23988 0.0
C493 C 0.20055 0.67642 0.13973 0.0
C494 C 0.16542 0.59359 0.15628 0.0
H495 H 0.25306 0.5532 0.97135 0.0
H496 H 0.23041 0.58495 -0.00936 0.0
H497 H 0.16544 0.55132 0.16276 0.0
H498 H 0.14701 0.66435 0.28935 0.0
H499 H 0.13388 0.62259 0.21104 0.0
H500 H 0.18642 0.64001 0.01959 0.0
C501 C 0.21771 0.56126 0.00621 0.0
C502 C 0.16906 0.56992 0.12998 0.0
C503 C 0.23088 0.54304 -0.00458 0.0
C504 C 0.16142 0.66854 0.24594 0.0
C505 C 0.15424 0.64439 0.20178 0.0
C506 C 0.1812 0.62048 0.05091 0.0
C507 C 0.19012 0.54992 0.04173 0.0
C508 C 0.17983 0.57163 0.06444 0.0
C509 C 0.17477 0.64739 0.15083 0.0
C510 C 0.1725 0.61974 0.11791 0.0
H511 H 0.17694 0.47733 0.06965 0.0
H512 H 0.15346 0.50926 0.08846 0.0
H513 H 0.19235 0.59854 0.97327 0.0
H514 H 0.22963 0.72127 0.17931 0.0
H515 H 0.21699 0.67967 0.10126 0.0
C516 C 0.69274 0.19559 0.31621 0.0
C517 C 0.71221 0.20269 0.37149 0.0
C518 C 0.66121 0.18377 0.32554 0.0
C519 C 0.59962 0.15306 0.45667 0.0
H520 H 0.56686 0.19548 0.35459 0.0
C521 C 0.49559 0.15414 0.55873 0.0
C522 C 0.49985 0.18376 0.56236 0.0
C523 C 0.51257 0.1474 0.51341 0.0
C524 C 0.57551 0.18331 0.3836 0.0
H525 H 0.71421 0.20216 0.47923 0.0
H526 H 0.6597 0.18144 0.49588 0.0
H527 H 0.6154 0.19992 0.32199 0.0
H528 H 0.52243 0.2285 0.51665 0.0
H529 H 0.55211 0.21723 0.43845 0.0
H530 H 0.56137 0.13851 0.52157 0.0
C531 C 0.66818 0.18432 0.44518 0.0
C532 C 0.60329 0.18555 0.36428 0.0
C533 C 0.69953 0.1962 0.4358 0.0
C534 C 0.51822 0.20527 0.51401 0.0
C535 C 0.53558 0.19877 0.46938 0.0
C536 C 0.57208 0.15107 0.47633 0.0
C537 C 0.64864 0.17888 0.39036 0.0
C538 C 0.61634 0.17142 0.40217 0.0
C539 C 0.53468 0.17041 0.47187 0.0
C540 C 0.56011 0.1671 0.44164 0.0
H541 H 0.70214 0.20106 0.26616 0.0
H542 H 0.64688 0.17962 0.28213 0.0
H543 H 0.60853 0.14129 0.48629 0.0
H544 H 0.4819 0.13724 0.59609 0.0
H545 H 0.5103 0.12492 0.51529 0.0
C546 C 0.35454 0.49502 0.90626 0.0
C547 C 0.32717 0.49581 0.90276 0.0
C548 C 0.37811 0.51147 0.86034 0.0
C549 C 0.40068 0.56297 0.71017 0.0
H550 H 0.47103 0.61536 0.8193 0.0
C551 C 0.47619 0.69057 0.66034 0.0
C552 C 0.50684 0.70657 0.68113 0.0
C553 C 0.45837 0.6591 0.66999 0.0
C554 C 0.45208 0.60066 0.78723 0.0
H555 H 0.3018 0.51181 0.8449 0.0
H556 H 0.34231 0.53982 0.76387 0.0
H557 H 0.43068 0.56767 0.86503 0.0
H558 H 0.54349 0.70181 0.7246 0.0
H559 H 0.51215 0.64626 0.74182 0.0
H560 H 0.4216 0.59685 0.63339 0.0
C561 C 0.34582 0.52647 0.80157 0.0
C562 C 0.42877 0.57312 0.81357 0.0
C563 C 0.32228 0.51 0.84759 0.0
C564 C 0.51995 0.69003 0.70787 0.0
C565 C 0.50189 0.65829 0.71824 0.0
C566 C 0.42409 0.59048 0.68369 0.0
C567 C 0.37477 0.52919 0.81026 0.0
C568 C 0.40218 0.55447 0.77637 0.0
C569 C 0.47057 0.64259 0.70121 0.0
C570 C 0.4495 0.61034 0.72289 0.0
H571 H 0.35912 0.48477 0.94909 0.0
H572 H 0.39985 0.51249 0.86771 0.0
H573 H 0.38081 0.54898 0.6797 0.0
H574 H 0.46548 0.70271 0.63932 0.0
H575 H 0.4344 0.64814 0.65688 0.0
C576 C 0.80951 0.31411 0.18402 0.0
C577 C 0.83086 0.31631 0.23169 0.0
C578 C 0.8166 0.33826 0.13978 0.0
C579 C 0.86644 0.42219 0.14534 0.0
H580 H 0.81764 0.41777 -0.00795 0.0
C581 C 0.825 0.50765 0.10413 0.0
C582 C 0.81742 0.51299 0.04012 0.0
C583 C 0.83646 0.48778 0.11349 0.0
C584 C 0.83204 0.41976 0.03399 0.0
H585 H 0.87752 0.34366 0.26512 0.0
H586 H 0.89081 0.38496 0.18504 0.0
H587 H 0.82072 0.373 0.02506 0.0
H588 H 0.81684 0.50277 0.9352 0.0
H589 H 0.83782 0.46856 0.9509 0.0
H590 H 0.87778 0.46889 0.15426 0.0
C591 C 0.86807 0.36521 0.18326 0.0
C592 C 0.83346 0.39379 0.05361 0.0
C593 C 0.86075 0.34116 0.22817 0.0
C594 C 0.82319 0.49952 -0.01507 0.0
C595 C 0.83471 0.47953 -0.0058 0.0
C596 C 0.86532 0.44819 0.12525 0.0
C597 C 0.84538 0.36515 0.14203 0.0
C598 C 0.84959 0.39419 0.11139 0.0
C599 C 0.84044 0.4725 0.05894 0.0
C600 C 0.847 0.44701 0.07115 0.0
H601 H 0.78609 0.29549 0.18665 0.0
H602 H 0.79833 0.33699 0.10921 0.0
H603 H 0.87902 0.42375 0.19031 0.0
H604 H 0.82001 0.5172 0.14757 0.0
H605 H 0.84002 0.48277 0.16419 0.0
C606 C 0.33105 0.81962 0.31269 0.0
C607 C 0.31186 0.81376 0.3681 0.0
C608 C 0.3626 0.8315 0.32158 0.0
C609 C 0.42465 0.86315 0.4519 0.0
H610 H 0.45653 0.81968 0.35122 0.0
C611 C 0.52777 0.86046 0.55508 0.0
C612 C 0.52339 0.83077 0.55827 0.0
C613 C 0.51098 0.86753 0.50984 0.0
C614 C 0.44811 0.8321 0.37994 0.0
H615 H 0.31036 0.81646 0.47556 0.0
H616 H 0.36484 0.83705 0.49152 0.0
H617 H 0.40821 0.81557 0.31881 0.0
H618 H 0.50077 0.78627 0.51197 0.0
H619 H 0.47137 0.79804 0.43413 0.0
H620 H 0.46287 0.87751 0.51659 0.0
C621 C 0.3562 0.83333 0.44092 0.0
C622 C 0.42044 0.83009 0.36065 0.0
C623 C 0.32484 0.82153 0.43194 0.0
C624 C 0.50507 0.80955 0.50966 0.0
C625 C 0.48788 0.81635 0.46521 0.0
C626 C 0.45203 0.86483 0.4717 0.0
C627 C 0.37546 0.83749 0.38615 0.0
C628 C 0.40769 0.84462 0.39799 0.0
C629 C 0.4889 0.84476 0.46803 0.0
C630 C 0.46367 0.84839 0.4376 0.0
H631 H 0.32141 0.81313 0.26308 0.0
H632 H 0.37666 0.83472 0.27811 0.0
H633 H 0.41606 0.87533 0.481 0.0
H634 H 0.54143 0.87715 0.59264 0.0
H635 H 0.51342 0.89006 0.51195 0.0
C636 C 0.70531 0.50409 0.85396 0.0
C637 C 0.70064 0.51847 0.90894 0.0
C638 C 0.68146 0.4871 0.80908 0.0
C639 C 0.59837 0.4401 0.82283 0.0
H640 H 0.60477 0.41698 0.64181 0.0
C641 C 0.5053 0.3246 0.71565 0.0
C642 C 0.5177 0.30773 0.68728 0.0
C643 C 0.52402 0.35617 0.72699 0.0
C644 C 0.6025 0.42316 0.69239 0.0
H645 H 0.6686 0.5291 0.95626 0.0
H646 H 0.62735 0.50054 0.87682 0.0
H647 H 0.64604 0.46438 0.68818 0.0
H648 H 0.55848 0.31092 0.64375 0.0
H649 H 0.59068 0.3652 0.6629 0.0
H650 H 0.55579 0.39817 0.82865 0.0
C651 C 0.64916 0.50179 0.86873 0.0
C652 C 0.62619 0.45041 0.71891 0.0
C653 C 0.67302 0.51873 0.91352 0.0
C654 C 0.5483 0.32333 0.66591 0.0
C655 C 0.56678 0.35464 0.67655 0.0
C656 C 0.57477 0.41283 0.79644 0.0
C657 C 0.65241 0.48406 0.81871 0.0
C658 C 0.62493 0.45875 0.7853 0.0
C659 C 0.5553 0.3714 0.70936 0.0
C660 C 0.577 0.40337 0.7317 0.0
H661 H 0.72604 0.50276 0.85036 0.0
H662 H 0.68492 0.47378 0.77138 0.0
H663 H 0.59663 0.44542 0.87444 0.0
H664 H 0.48183 0.31313 0.73293 0.0
H665 H 0.51429 0.36841 0.75174 0.0
loop_
_geom_bond_atom_site_label_1
_geom_bond_atom_site_label_2
_geom_bond_distance
_geom_bond_site_symmetry_2
_ccdc_geom_bond_type
O0 Mn1 2.163 . S
O0 C14 1.244 . S
Mn1 O0 2.163 . S
Mn1 O4 2.160 1_554 S
Mn1 O5 2.221 . S
Mn1 O7 2.163 1_554 S
Mn1 O9 2.160 . S
Mn1 O19 2.221 . S
O2 Mn3 2.087 . S
O2 C14 1.256 . S
Mn3 O2 2.087 . S
Mn3 O10 2.089 . S
Mn3 O19 2.290 . S
Mn3 O20 2.251 1_554 S
O4 Mn1 2.160 1_556 S
O4 C15 1.239 . S
O5 Mn1 2.221 . S
O5 Mn6 2.290 1_554 S
O5 C16 1.278 . S
Mn6 O5 2.290 1_556 S
Mn6 O8 2.089 . S
Mn6 O11 2.251 . S
Mn6 O12 2.087 . S
O7 Mn1 2.163 1_556 S
O7 C17 1.244 . S
O8 Mn6 2.089 . S
O8 C15 1.256 . S
O9 Mn1 2.160 . S
O9 C18 1.239 . S
O10 Mn3 2.089 . S
O10 C18 1.256 . S
O11 Mn6 2.251 . S
O11 C16 1.241 1_556 S
O12 Mn6 2.087 . S
O12 C17 1.256 . S
C13 O19 1.278 1_556 S
C13 O20 1.241 . S
C14 O0 1.244 . S
C14 O2 1.256 . S
C15 O4 1.239 . S
C15 O8 1.256 . S
C16 O5 1.278 . S
C16 O11 1.241 1_554 S
C17 O7 1.244 . S
C17 O12 1.256 . S
C18 O9 1.239 . S
C18 O10 1.256 . S
O19 Mn1 2.221 . S
O19 Mn3 2.290 . S
O19 C13 1.278 1_554 S
O20 Mn3 2.251 1_556 S
O20 C13 1.241 . S
O21 Mn22 2.163 . S
O21 C35 1.244 . S
Mn22 O21 2.163 . S
Mn22 O25 2.160 . S
Mn22 O26 2.221 . S
Mn22 O28 2.163 . S
Mn22 O30 2.160 . S
Mn22 O40 2.221 . S
O23 Mn24 2.087 . S
O23 C35 1.256 . S
Mn24 O23 2.087 . S
Mn24 O31 2.089 . S
Mn24 O40 2.290 . S
Mn24 O41 2.251 . S
O25 Mn22 2.160 . S
O25 C36 1.239 . S
O26 Mn22 2.221 . S
O26 Mn27 2.290 . S
O26 C37 1.278 . S
Mn27 O26 2.290 . S
Mn27 O29 2.089 . S
Mn27 O32 2.251 . S
Mn27 O33 2.087 . S
O28 Mn22 2.163 . S
O28 C38 1.244 . S
O29 Mn27 2.089 . S
O29 C36 1.256 . S
O30 Mn22 2.160 . S
O30 C39 1.239 . S
O31 Mn24 2.089 . S
O31 C39 1.256 . S
O32 Mn27 2.251 . S
O32 C37 1.241 . S
O33 Mn27 2.087 . S
O33 C38 1.256 . S
C34 O40 1.278 . S
C34 O41 1.241 . S
C35 O21 1.244 . S
C35 O23 1.256 . S
C36 O25 1.239 . S
C36 O29 1.256 . S
C37 O26 1.278 . S
C37 O32 1.241 . S
C38 O28 1.244 . S
C38 O33 1.256 . S
C39 O30 1.239 . S
C39 O31 1.256 . S
O40 Mn22 2.221 . S
O40 Mn24 2.290 . S
O40 C34 1.278 . S
O41 Mn24 2.251 . S
O41 C34 1.241 . S
O42 Mn43 2.163 . S
O42 C56 1.244 . S
Mn43 O42 2.163 . S
Mn43 O46 2.160 . S
Mn43 O47 2.221 . S
Mn43 O49 2.163 . S
Mn43 O51 2.160 . S
Mn43 O61 2.221 . S
O44 Mn45 2.087 . S
O44 C56 1.256 . S
Mn45 O44 2.087 . S
Mn45 O52 2.089 . S
Mn45 O61 2.290 . S
Mn45 O62 2.251 . S
O46 Mn43 2.160 . S
O46 C57 1.239 . S
O47 Mn43 2.221 . S
O47 Mn48 2.290 . S
O47 C58 1.278 . S
Mn48 O47 2.290 . S
Mn48 O50 2.089 . S
Mn48 O53 2.251 . S
Mn48 O54 2.087 . S
O49 Mn43 2.163 . S
O49 C59 1.244 . S
O50 Mn48 2.089 . S
O50 C57 1.256 . S
O51 Mn43 2.160 . S
O51 C60 1.239 . S
O52 Mn45 2.089 . S
O52 C60 1.256 . S
O53 Mn48 2.251 . S
O53 C58 1.241 . S
O54 Mn48 2.087 . S
O54 C59 1.256 . S
C55 O61 1.278 . S
C55 O62 1.241 . S
C56 O42 1.244 . S
C56 O44 1.256 . S
C57 O46 1.239 . S
C57 O50 1.256 . S
C58 O47 1.278 . S
C58 O53 1.241 . S
C59 O49 1.244 . S
C59 O54 1.256 . S
C60 O51 1.239 . S
C60 O52 1.256 . S
O61 Mn43 2.221 . S
O61 Mn45 2.290 . S
O61 C55 1.278 . S
O62 Mn45 2.251 . S
O62 C55 1.241 . S
O63 Mn64 2.163 . S
O63 C77 1.244 . S
Mn64 O63 2.163 . S
Mn64 O67 2.160 1_554 S
Mn64 O68 2.221 . S
Mn64 O70 2.163 1_554 S
Mn64 O72 2.160 . S
Mn64 O82 2.221 . S
O65 Mn66 2.087 . S
O65 C77 1.256 . S
Mn66 O65 2.087 . S
Mn66 O73 2.089 . S
Mn66 O82 2.290 . S
Mn66 O83 2.251 1_554 S
O67 Mn64 2.160 1_556 S
O67 C78 1.239 . S
O68 Mn64 2.221 . S
O68 Mn69 2.290 1_554 S
O68 C79 1.278 . S
Mn69 O68 2.290 1_556 S
Mn69 O71 2.089 . S
Mn69 O74 2.251 . S
Mn69 O75 2.087 . S
O70 Mn64 2.163 1_556 S
O70 C80 1.244 . S
O71 Mn69 2.089 . S
O71 C78 1.256 . S
O72 Mn64 2.160 . S
O72 C81 1.239 . S
O73 Mn66 2.089 . S
O73 C81 1.256 . S
O74 Mn69 2.251 . S
O74 C79 1.241 1_556 S
O75 Mn69 2.087 . S
O75 C80 1.256 . S
C76 O82 1.278 1_556 S
C76 O83 1.241 . S
C77 O63 1.244 . S
C77 O65 1.256 . S
C78 O67 1.239 . S
C78 O71 1.256 . S
C79 O68 1.278 . S
C79 O74 1.241 1_554 S
C80 O70 1.244 . S
C80 O75 1.256 . S
C81 O72 1.239 . S
C81 O73 1.256 . S
O82 Mn64 2.221 . S
O82 Mn66 2.290 . S
O82 C76 1.278 1_554 S
O83 Mn66 2.251 1_556 S
O83 C76 1.241 . S
O84 Mn85 2.163 . S
O84 C98 1.244 . S
Mn85 O84 2.163 . S
Mn85 O88 2.160 . S
Mn85 O89 2.221 . S
Mn85 O91 2.163 . S
Mn85 O93 2.160 . S
Mn85 O103 2.221 . S
O86 Mn87 2.087 . S
O86 C98 1.256 . S
Mn87 O86 2.087 . S
Mn87 O94 2.089 . S
Mn87 O103 2.290 . S
Mn87 O104 2.251 . S
O88 Mn85 2.160 . S
O88 C99 1.239 . S
O89 Mn85 2.221 . S
O89 Mn90 2.290 . S
O89 C100 1.278 . S
Mn90 O89 2.290 . S
Mn90 O92 2.089 . S
Mn90 O95 2.251 . S
Mn90 O96 2.087 . S
O91 Mn85 2.163 . S
O91 C101 1.244 . S
O92 Mn90 2.089 . S
O92 C99 1.256 . S
O93 Mn85 2.160 . S
O93 C102 1.239 . S
O94 Mn87 2.089 . S
O94 C102 1.256 . S
O95 Mn90 2.251 . S
O95 C100 1.241 . S
O96 Mn90 2.087 . S
O96 C101 1.256 . S
C97 O103 1.278 . S
C97 O104 1.241 . S
C98 O84 1.244 . S
C98 O86 1.256 . S
C99 O88 1.239 . S
C99 O92 1.256 . S
C100 O89 1.278 . S
C100 O95 1.241 . S
C101 O91 1.244 . S
C101 O96 1.256 . S
C102 O93 1.239 . S
C102 O94 1.256 . S
O103 Mn85 2.221 . S
O103 Mn87 2.290 . S
O103 C97 1.278 . S
O104 Mn87 2.251 . S
O104 C97 1.241 . S
O105 Mn106 2.163 . S
O105 C119 1.244 . S
Mn106 O105 2.163 . S
Mn106 O109 2.160 . S
Mn106 O110 2.221 . S
Mn106 O112 2.163 . S
Mn106 O114 2.160 . S
Mn106 O124 2.221 . S
O107 Mn108 2.087 . S
O107 C119 1.256 . S
Mn108 O107 2.087 . S
Mn108 O115 2.089 . S
Mn108 O124 2.290 . S
Mn108 O125 2.251 . S
O109 Mn106 2.160 . S
O109 C120 1.239 . S
O110 Mn106 2.221 . S
O110 Mn111 2.290 . S
O110 C121 1.278 . S
Mn111 O110 2.290 . S
Mn111 O113 2.089 . S
Mn111 O116 2.251 . S
Mn111 O117 2.087 . S
O112 Mn106 2.163 . S
O112 C122 1.244 . S
O113 Mn111 2.089 . S
O113 C120 1.256 . S
O114 Mn106 2.160 . S
O114 C123 1.239 . S
O115 Mn108 2.089 . S
O115 C123 1.256 . S
O116 Mn111 2.251 . S
O116 C121 1.241 . S
O117 Mn111 2.087 . S
O117 C122 1.256 . S
C118 O124 1.278 . S
C118 O125 1.241 . S
C119 O105 1.244 . S
C119 O107 1.256 . S
C120 O109 1.239 . S
C120 O113 1.256 . S
C121 O110 1.278 . S
C121 O116 1.241 . S
C122 O112 1.244 . S
C122 O117 1.256 . S
C123 O114 1.239 . S
C123 O115 1.256 . S
O124 Mn106 2.221 . S
O124 Mn108 2.290 . S
O124 C118 1.278 . S
O125 Mn108 2.251 . S
O125 C118 1.241 . S
C126 C127 1.349 . S
C126 C128 1.327 . S
C126 H151 0.950 . S
C127 C126 1.349 . S
C127 C143 1.349 . S
C128 C126 1.327 . S
C128 C147 1.429 . S
C128 H152 0.950 . S
C129 C146 1.574 . S
C129 C148 1.368 . S
C129 H153 0.949 . S
H130 C134 0.949 . S
C131 C132 1.349 . S
C131 C133 1.327 . S
C131 H154 0.950 . S
C132 C131 1.349 . S
C132 C144 1.349 . S
C133 C131 1.327 . S
C133 C149 1.429 . S
C133 H155 0.950 . S
C134 H130 0.949 . S
C134 C142 1.574 . S
C134 C150 1.368 . S
H135 C143 0.950 . S
H136 C141 0.950 . S
H137 C142 0.949 . S
H138 C144 0.950 . S
H139 C145 0.950 . S
H140 C146 0.949 . S
C141 H136 0.950 . S
C141 C143 1.327 . S
C141 C147 1.429 . S
C142 C134 1.574 . S
C142 H137 0.949 . S
C142 C148 1.368 . S
C143 C127 1.349 . S
C143 H135 0.950 . S
C143 C141 1.327 . S
C144 C132 1.349 . S
C144 H138 0.950 . S
C144 C145 1.327 . S
C145 H139 0.950 . S
C145 C144 1.327 . S
C145 C149 1.429 . S
C146 C129 1.574 . S
C146 H140 0.949 . S
C146 C150 1.368 . S
C147 C128 1.429 . S
C147 C141 1.429 . S
C147 C148 1.523 . S
C148 C129 1.368 . S
C148 C142 1.368 . S
C148 C147 1.523 . S
C149 C133 1.429 . S
C149 C145 1.429 . S
C149 C150 1.523 . S
C150 C134 1.368 . S
C150 C146 1.368 . S
C150 C149 1.523 . S
H151 C126 0.950 . S
H152 C128 0.950 . S
H153 C129 0.949 . S
H154 C131 0.950 . S
H155 C133 0.950 . S
C156 C157 1.349 . S
C156 C158 1.327 . S
C156 H181 0.950 . S
C157 C156 1.349 . S
C157 C173 1.349 . S
C158 C156 1.327 . S
C158 C177 1.429 . S
C158 H182 0.950 . S
C159 C176 1.574 1_455 S
C159 C178 1.368 . S
C159 H183 0.949 . S
H160 C164 0.949 . S
C161 C162 1.349 . S
C161 C163 1.327 . S
C161 H184 0.950 . S
C162 C161 1.349 . S
C162 C174 1.349 . S
C163 C161 1.327 . S
C163 C179 1.429 . S
C163 H185 0.950 . S
C164 H160 0.949 . S
C164 C172 1.574 1_655 S
C164 C180 1.368 . S
H165 C173 0.950 . S
H166 C171 0.950 . S
H167 C172 0.949 . S
H168 C174 0.950 . S
H169 C175 0.950 . S
H170 C176 0.949 . S
C171 H166 0.950 . S
C171 C173 1.327 . S
C171 C177 1.429 . S
C172 C164 1.574 1_455 S
C172 H167 0.949 . S
C172 C178 1.368 . S
C173 C157 1.349 . S
C173 H165 0.950 . S
C173 C171 1.327 . S
C174 C162 1.349 . S
C174 H168 0.950 . S
C174 C175 1.327 . S
C175 H169 0.950 . S
C175 C174 1.327 . S
C175 C179 1.429 . S
C176 C159 1.574 1_655 S
C176 H170 0.949 . S
C176 C180 1.368 . S
C177 C158 1.429 . S
C177 C171 1.429 . S
C177 C178 1.523 . S
C178 C159 1.368 . S
C178 C172 1.368 . S
C178 C177 1.523 . S
C179 C163 1.429 . S
C179 C175 1.429 . S
C179 C180 1.523 . S
C180 C164 1.368 . S
C180 C176 1.368 . S
C180 C179 1.523 . S
H181 C156 0.950 . S
H182 C158 0.950 . S
H183 C159 0.949 . S
H184 C161 0.950 . S
H185 C163 0.950 . S
C186 C187 1.349 . S
C186 C188 1.327 . S
C186 H211 0.950 . S
C187 C186 1.349 . S
C187 C203 1.349 . S
C188 C186 1.327 . S
C188 C207 1.429 . S
C188 H212 0.950 . S
C189 C206 1.574 1_545 S
C189 C208 1.368 . S
C189 H213 0.949 . S
H190 C194 0.949 . S
C191 C192 1.349 . S
C191 C193 1.327 . S
C191 H214 0.950 . S
C192 C191 1.349 . S
C192 C204 1.349 . S
C193 C191 1.327 . S
C193 C209 1.429 . S
C193 H215 0.950 . S
C194 H190 0.949 . S
C194 C202 1.574 1_565 S
C194 C210 1.368 . S
H195 C203 0.950 . S
H196 C201 0.950 . S
H197 C202 0.949 . S
H198 C204 0.950 . S
H199 C205 0.950 . S
H200 C206 0.949 . S
C201 H196 0.950 . S
C201 C203 1.327 . S
C201 C207 1.429 . S
C202 C194 1.574 1_545 S
C202 H197 0.949 . S
C202 C208 1.368 . S
C203 C187 1.349 . S
C203 H195 0.950 . S
C203 C201 1.327 . S
C204 C192 1.349 . S
C204 H198 0.950 . S
C204 C205 1.327 . S
C205 H199 0.950 . S
C205 C204 1.327 . S
C205 C209 1.429 . S
C206 C189 1.574 1_565 S
C206 H200 0.949 . S
C206 C210 1.368 . S
C207 C188 1.429 . S
C207 C201 1.429 . S
C207 C208 1.523 . S
C208 C189 1.368 . S
C208 C202 1.368 . S
C208 C207 1.523 . S
C209 C193 1.429 . S
C209 C205 1.429 . S
C209 C210 1.523 . S
C210 C194 1.368 . S
C210 C206 1.368 . S
C210 C209 1.523 . S
H211 C186 0.950 . S
H212 C188 0.950 . S
H213 C189 0.949 . S
H214 C191 0.950 . S
H215 C193 0.950 . S
C216 C217 1.349 . S
C216 C218 1.327 . S
C216 H241 0.950 . S
C217 C216 1.349 . S
C217 C233 1.349 . S
C218 C216 1.327 . S
C218 C237 1.429 . S
C218 H242 0.950 . S
C219 C236 1.574 . S
C219 C238 1.368 . S
C219 H243 0.949 . S
H220 C224 0.949 . S
C221 C222 1.349 . S
C221 C223 1.327 . S
C221 H244 0.950 1_556 S
C222 C221 1.349 . S
C222 C234 1.349 . S
C223 C221 1.327 . S
C223 C239 1.429 . S
C223 H245 0.950 . S
C224 H220 0.949 . S
C224 C232 1.574 . S
C224 C240 1.368 . S
H225 C233 0.950 . S
H226 C231 0.950 . S
H227 C232 0.949 . S
H228 C234 0.950 . S
H229 C235 0.950 . S
H230 C236 0.949 . S
C231 H226 0.950 . S
C231 C233 1.327 . S
C231 C237 1.429 . S
C232 C224 1.574 . S
C232 H227 0.949 . S
C232 C238 1.368 . S
C233 C217 1.349 . S
C233 H225 0.950 . S
C233 C231 1.327 . S
C234 C222 1.349 . S
C234 H228 0.950 . S
C234 C235 1.327 . S
C235 H229 0.950 . S
C235 C234 1.327 . S
C235 C239 1.429 . S
C236 C219 1.574 . S
C236 H230 0.949 . S
C236 C240 1.368 . S
C237 C218 1.429 . S
C237 C231 1.429 . S
C237 C238 1.523 . S
C238 C219 1.368 . S
C238 C232 1.368 . S
C238 C237 1.523 . S
C239 C223 1.429 . S
C239 C235 1.429 . S
C239 C240 1.523 . S
C240 C224 1.368 . S
C240 C236 1.368 . S
C240 C239 1.523 . S
H241 C216 0.950 . S
H242 C218 0.950 . S
H243 C219 0.949 . S
H244 C221 0.950 1_554 S
H245 C223 0.950 . S
C246 C247 1.349 . S
C246 C248 1.327 . S
C246 H271 0.950 . S
C247 C246 1.349 . S
C247 C263 1.349 . S
C248 C246 1.327 . S
C248 C267 1.429 . S
C248 H272 0.950 . S
C249 C266 1.574 1_455 S
C249 C268 1.368 . S
C249 H273 0.949 . S
H250 C254 0.949 . S
C251 C252 1.349 . S
C251 C253 1.327 . S
C251 H274 0.950 1_554 S
C252 C251 1.349 . S
C252 C264 1.349 . S
C253 C251 1.327 . S
C253 C269 1.429 . S
C253 H275 0.950 . S
C254 H250 0.949 . S
C254 C262 1.574 . S
C254 C270 1.368 . S
H255 C263 0.950 . S
H256 C261 0.950 . S
H257 C262 0.949 1_455 S
H258 C264 0.950 . S
H259 C265 0.950 . S
H260 C266 0.949 . S
C261 H256 0.950 . S
C261 C263 1.327 . S
C261 C267 1.429 . S
C262 C254 1.574 . S
C262 H257 0.949 1_655 S
C262 C268 1.368 1_655 S
C263 C247 1.349 . S
C263 H255 0.950 . S
C263 C261 1.327 . S
C264 C252 1.349 . S
C264 H258 0.950 . S
C264 C265 1.327 . S
C265 H259 0.950 . S
C265 C264 1.327 . S
C265 C269 1.429 . S
C266 C249 1.574 1_655 S
C266 H260 0.949 . S
C266 C270 1.368 . S
C267 C248 1.429 . S
C267 C261 1.429 . S
C267 C268 1.523 . S
C268 C249 1.368 . S
C268 C262 1.368 1_455 S
C268 C267 1.523 . S
C269 C253 1.429 . S
C269 C265 1.429 . S
C269 C270 1.523 . S
C270 C254 1.368 . S
C270 C266 1.368 . S
C270 C269 1.523 . S
H271 C246 0.950 . S
H272 C248 0.950 . S
H273 C249 0.949 . S
H274 C251 0.950 1_556 S
H275 C253 0.950 . S
C276 C277 1.349 . S
C276 C278 1.327 . S
C276 H301 0.950 . S
C277 C276 1.349 . S
C277 C293 1.349 . S
C278 C276 1.327 . S
C278 C297 1.429 . S
C278 H302 0.950 . S
C279 C296 1.574 . S
C279 C298 1.368 1_565 S
C279 H303 0.949 1_565 S
H280 C284 0.949 . S
C281 C282 1.349 . S
C281 C283 1.327 . S
C281 H304 0.950 . S
C282 C281 1.349 . S
C282 C294 1.349 . S
C283 C281 1.327 . S
C283 C299 1.429 . S
C283 H305 0.950 . S
C284 H280 0.949 . S
C284 C292 1.574 1_565 S
C284 C300 1.368 . S
H285 C293 0.950 . S
H286 C291 0.950 . S
H287 C292 0.949 . S
H288 C294 0.950 . S
H289 C295 0.950 . S
H290 C296 0.949 . S
C291 H286 0.950 . S
C291 C293 1.327 . S
C291 C297 1.429 . S
C292 C284 1.574 1_545 S
C292 H287 0.949 . S
C292 C298 1.368 . S
C293 C277 1.349 . S
C293 H285 0.950 . S
C293 C291 1.327 . S
C294 C282 1.349 . S
C294 H288 0.950 . S
C294 C295 1.327 . S
C295 H289 0.950 . S
C295 C294 1.327 . S
C295 C299 1.429 . S
C296 C279 1.574 . S
C296 H290 0.949 . S
C296 C300 1.368 . S
C297 C278 1.429 . S
C297 C291 1.429 . S
C297 C298 1.523 . S
C298 C279 1.368 1_545 S
C298 C292 1.368 . S
C298 C297 1.523 . S
C299 C283 1.429 . S
C299 C295 1.429 . S
C299 C300 1.523 . S
C300 C284 1.368 . S
C300 C296 1.368 . S
C300 C299 1.523 . S
H301 C276 0.950 . S
H302 C278 0.950 . S
H303 C279 0.949 1_545 S
H304 C281 0.950 . S
H305 C283 0.950 . S
C306 C307 1.349 . S
C306 C308 1.327 . S
C306 H331 0.950 . S
C307 C306 1.349 . S
C307 C323 1.349 . S
C308 C306 1.327 . S
C308 C327 1.429 . S
C308 H332 0.950 . S
C309 C326 1.574 . S
C309 C328 1.368 . S
C309 H333 0.949 . S
H310 C314 0.949 . S
C311 C312 1.349 . S
C311 C313 1.327 . S
C311 H334 0.950 . S
C312 C311 1.349 . S
C312 C324 1.349 . S
C313 C311 1.327 . S
C313 C329 1.429 . S
C313 H335 0.950 . S
C314 H310 0.949 . S
C314 C322 1.574 . S
C314 C330 1.368 . S
H315 C323 0.950 . S
H316 C321 0.950 . S
H317 C322 0.949 . S
H318 C324 0.950 . S
H319 C325 0.950 . S
H320 C326 0.949 . S
C321 H316 0.950 . S
C321 C323 1.327 . S
C321 C327 1.429 . S
C322 C314 1.574 . S
C322 H317 0.949 . S
C322 C328 1.368 . S
C323 C307 1.349 . S
C323 H315 0.950 . S
C323 C321 1.327 . S
C324 C312 1.349 . S
C324 H318 0.950 . S
C324 C325 1.327 . S
C325 H319 0.950 . S
C325 C324 1.327 . S
C325 C329 1.429 . S
C326 C309 1.574 . S
C326 H320 0.949 . S
C326 C330 1.368 . S
C327 C308 1.429 . S
C327 C321 1.429 . S
C327 C328 1.523 . S
C328 C309 1.368 . S
C328 C322 1.368 . S
C328 C327 1.523 . S
C329 C313 1.429 . S
C329 C325 1.429 . S
C329 C330 1.523 . S
C330 C314 1.368 . S
C330 C326 1.368 . S
C330 C329 1.523 . S
H331 C306 0.950 . S
H332 C308 0.950 . S
H333 C309 0.949 . S
H334 C311 0.950 . S
H335 C313 0.950 . S
C336 C337 1.349 . S
C336 C338 1.327 . S
C336 H361 0.950 . S
C337 C336 1.349 . S
C337 C353 1.349 . S
C338 C336 1.327 . S
C338 C357 1.429 1_554 S
C338 H362 0.950 . S
C339 C356 1.574 . S
C339 C358 1.368 . S
C339 H363 0.949 . S
H340 C344 0.949 . S
C341 C342 1.349 . S
C341 C343 1.327 . S
C341 H364 0.950 . S
C342 C341 1.349 . S
C342 C354 1.349 . S
C343 C341 1.327 . S
C343 C359 1.429 . S
C343 H365 0.950 . S
C344 H340 0.949 . S
C344 C352 1.574 . S
C344 C360 1.368 . S
H345 C353 0.950 . S
H346 C351 0.950 . S
H347 C352 0.949 . S
H348 C354 0.950 . S
H349 C355 0.950 . S
H350 C356 0.949 . S
C351 H346 0.950 . S
C351 C353 1.327 . S
C351 C357 1.429 1_554 S
C352 C344 1.574 . S
C352 H347 0.949 . S
C352 C358 1.368 . S
C353 C337 1.349 . S
C353 H345 0.950 . S
C353 C351 1.327 . S
C354 C342 1.349 . S
C354 H348 0.950 . S
C354 C355 1.327 . S
C355 H349 0.950 . S
C355 C354 1.327 . S
C355 C359 1.429 . S
C356 C339 1.574 . S
C356 H350 0.949 . S
C356 C360 1.368 . S
C357 C338 1.429 1_556 S
C357 C351 1.429 1_556 S
C357 C358 1.523 . S
C358 C339 1.368 . S
C358 C352 1.368 . S
C358 C357 1.523 . S
C359 C343 1.429 . S
C359 C355 1.429 . S
C359 C360 1.523 . S
C360 C344 1.368 . S
C360 C356 1.368 . S
C360 C359 1.523 . S
H361 C336 0.950 . S
H362 C338 0.950 . S
H363 C339 0.949 . S
H364 C341 0.950 . S
H365 C343 0.950 . S
C366 C367 1.349 . S
C366 C368 1.327 . S
C366 H391 0.950 . S
C367 C366 1.349 . S
C367 C383 1.349 . S
C368 C366 1.327 . S
C368 C387 1.429 . S
C368 H392 0.950 . S
C369 C386 1.574 . S
C369 C388 1.368 . S
C369 H393 0.949 . S
H370 C374 0.949 . S
C371 C372 1.349 . S
C371 C373 1.327 . S
C371 H394 0.950 . S
C372 C371 1.349 . S
C372 C384 1.349 . S
C373 C371 1.327 . S
C373 C389 1.429 1_556 S
C373 H395 0.950 1_556 S
C374 H370 0.949 . S
C374 C382 1.574 . S
C374 C390 1.368 . S
H375 C383 0.950 . S
H376 C381 0.950 . S
H377 C382 0.949 . S
H378 C384 0.950 . S
H379 C385 0.950 1_554 S
H380 C386 0.949 . S
C381 H376 0.950 . S
C381 C383 1.327 . S
C381 C387 1.429 . S
C382 C374 1.574 . S
C382 H377 0.949 . S
C382 C388 1.368 . S
C383 C367 1.349 . S
C383 H375 0.950 . S
C383 C381 1.327 . S
C384 C372 1.349 . S
C384 H378 0.950 . S
C384 C385 1.327 . S
C385 H379 0.950 1_556 S
C385 C384 1.327 . S
C385 C389 1.429 1_556 S
C386 C369 1.574 . S
C386 H380 0.949 . S
C386 C390 1.368 . S
C387 C368 1.429 . S
C387 C381 1.429 . S
C387 C388 1.523 . S
C388 C369 1.368 . S
C388 C382 1.368 . S
C388 C387 1.523 . S
C389 C373 1.429 1_554 S
C389 C385 1.429 1_554 S
C389 C390 1.523 . S
C390 C374 1.368 . S
C390 C386 1.368 . S
C390 C389 1.523 . S
H391 C366 0.950 . S
H392 C368 0.950 . S
H393 C369 0.949 . S
H394 C371 0.950 . S
H395 C373 0.950 1_554 S
C396 C397 1.349 . S
C396 C398 1.327 . S
C396 H421 0.950 . S
C397 C396 1.349 . S
C397 C413 1.349 . S
C398 C396 1.327 . S
C398 C417 1.429 . S
C398 H422 0.950 . S
C399 C416 1.574 . S
C399 C418 1.368 . S
C399 H423 0.949 . S
H400 C404 0.949 . S
C401 C402 1.349 . S
C401 C403 1.327 . S
C401 H424 0.950 . S
C402 C401 1.349 . S
C402 C414 1.349 . S
C403 C401 1.327 . S
C403 C419 1.429 . S
C403 H425 0.950 . S
C404 H400 0.949 . S
C404 C412 1.574 . S
C404 C420 1.368 . S
H405 C413 0.950 . S
H406 C411 0.950 . S
H407 C412 0.949 . S
H408 C414 0.950 . S
H409 C415 0.950 . S
H410 C416 0.949 . S
C411 H406 0.950 . S
C411 C413 1.327 . S
C411 C417 1.429 . S
C412 C404 1.574 . S
C412 H407 0.949 . S
C412 C418 1.368 . S
C413 C397 1.349 . S
C413 H405 0.950 . S
C413 C411 1.327 . S
C414 C402 1.349 . S
C414 H408 0.950 . S
C414 C415 1.327 . S
C415 H409 0.950 . S
C415 C414 1.327 . S
C415 C419 1.429 . S
C416 C399 1.574 . S
C416 H410 0.949 . S
C416 C420 1.368 . S
C417 C398 1.429 . S
C417 C411 1.429 . S
C417 C418 1.523 . S
C418 C399 1.368 . S
C418 C412 1.368 . S
C418 C417 1.523 . S
C419 C403 1.429 . S
C419 C415 1.429 . S
C419 C420 1.523 . S
C420 C404 1.368 . S
C420 C416 1.368 . S
C420 C419 1.523 . S
H421 C396 0.950 . S
H422 C398 0.950 . S
H423 C399 0.949 . S
H424 C401 0.950 . S
H425 C403 0.950 . S
C426 C427 1.349 . S
C426 C428 1.327 . S
C426 H451 0.950 . S
C427 C426 1.349 . S
C427 C443 1.349 . S
C428 C426 1.327 . S
C428 C447 1.429 . S
C428 H452 0.950 . S
C429 C446 1.574 . S
C429 C448 1.368 . S
C429 H453 0.949 . S
H430 C434 0.949 . S
C431 C432 1.349 . S
C431 C433 1.327 . S
C431 H454 0.950 . S
C432 C431 1.349 . S
C432 C444 1.349 . S
C433 C431 1.327 . S
C433 C449 1.429 1_554 S
C433 H455 0.950 . S
C434 H430 0.949 . S
C434 C442 1.574 . S
C434 C450 1.368 . S
H435 C443 0.950 . S
H436 C441 0.950 . S
H437 C442 0.949 . S
H438 C444 0.950 . S
H439 C445 0.950 . S
H440 C446 0.949 . S
C441 H436 0.950 . S
C441 C443 1.327 . S
C441 C447 1.429 . S
C442 C434 1.574 . S
C442 H437 0.949 . S
C442 C448 1.368 . S
C443 C427 1.349 . S
C443 H435 0.950 . S
C443 C441 1.327 . S
C444 C432 1.349 . S
C444 H438 0.950 . S
C444 C445 1.327 . S
C445 H439 0.950 . S
C445 C444 1.327 . S
C445 C449 1.429 1_554 S
C446 C429 1.574 . S
C446 H440 0.949 . S
C446 C450 1.368 . S
C447 C428 1.429 . S
C447 C441 1.429 . S
C447 C448 1.523 . S
C448 C429 1.368 . S
C448 C442 1.368 . S
C448 C447 1.523 . S
C449 C433 1.429 1_556 S
C449 C445 1.429 1_556 S
C449 C450 1.523 . S
C450 C434 1.368 . S
C450 C446 1.368 . S
C450 C449 1.523 . S
H451 C426 0.950 . S
H452 C428 0.950 . S
H453 C429 0.949 . S
H454 C431 0.950 . S
H455 C433 0.950 . S
C456 C457 1.349 . S
C456 C458 1.327 . S
C456 H481 0.950 . S
C457 C456 1.349 . S
C457 C473 1.349 . S
C458 C456 1.327 . S
C458 C477 1.429 . S
C458 H482 0.950 . S
C459 C476 1.574 . S
C459 C478 1.368 . S
C459 H483 0.949 . S
H460 C464 0.949 . S
C461 C462 1.349 . S
C461 C463 1.327 . S
C461 H484 0.950 . S
C462 C461 1.349 . S
C462 C474 1.349 . S
C463 C461 1.327 . S
C463 C479 1.429 1_556 S
C463 H485 0.950 1_556 S
C464 H460 0.949 . S
C464 C472 1.574 . S
C464 C480 1.368 . S
H465 C473 0.950 . S
H466 C471 0.950 . S
H467 C472 0.949 . S
H468 C474 0.950 . S
H469 C475 0.950 1_554 S
H470 C476 0.949 . S
C471 H466 0.950 . S
C471 C473 1.327 . S
C471 C477 1.429 . S
C472 C464 1.574 . S
C472 H467 0.949 . S
C472 C478 1.368 . S
C473 C457 1.349 . S
C473 H465 0.950 . S
C473 C471 1.327 . S
C474 C462 1.349 . S
C474 H468 0.950 . S
C474 C475 1.327 . S
C475 H469 0.950 1_556 S
C475 C474 1.327 . S
C475 C479 1.429 1_556 S
C476 C459 1.574 . S
C476 H470 0.949 . S
C476 C480 1.368 . S
C477 C458 1.429 . S
C477 C471 1.429 . S
C477 C478 1.523 . S
C478 C459 1.368 . S
C478 C472 1.368 . S
C478 C477 1.523 . S
C479 C463 1.429 1_554 S
C479 C475 1.429 1_554 S
C479 C480 1.523 . S
C480 C464 1.368 . S
C480 C476 1.368 . S
C480 C479 1.523 . S
H481 C456 0.950 . S
H482 C458 0.950 . S
H483 C459 0.949 . S
H484 C461 0.950 . S
H485 C463 0.950 1_554 S
C486 C487 1.349 . S
C486 C488 1.327 . S
C486 H511 0.950 . S
C487 C486 1.349 . S
C487 C503 1.349 . S
C488 C486 1.327 . S
C488 C507 1.429 . S
C488 H512 0.950 . S
C489 C506 1.574 . S
C489 C508 1.368 . S
C489 H513 0.949 . S
H490 C494 0.949 . S
C491 C492 1.349 . S
C491 C493 1.327 . S
C491 H514 0.950 . S
C492 C491 1.349 . S
C492 C504 1.349 . S
C493 C491 1.327 . S
C493 C509 1.429 . S
C493 H515 0.950 . S
C494 H490 0.949 . S
C494 C502 1.574 . S
C494 C510 1.368 . S
H495 C503 0.950 1_556 S
H496 C501 0.950 . S
H497 C502 0.949 . S
H498 C504 0.950 . S
H499 C505 0.950 . S
H500 C506 0.949 . S
C501 H496 0.950 . S
C501 C503 1.327 . S
C501 C507 1.429 . S
C502 C494 1.574 . S
C502 H497 0.949 . S
C502 C508 1.368 . S
C503 C487 1.349 . S
C503 H495 0.950 1_554 S
C503 C501 1.327 . S
C504 C492 1.349 . S
C504 H498 0.950 . S
C504 C505 1.327 . S
C505 H499 0.950 . S
C505 C504 1.327 . S
C505 C509 1.429 . S
C506 C489 1.574 . S
C506 H500 0.949 . S
C506 C510 1.368 . S
C507 C488 1.429 . S
C507 C501 1.429 . S
C507 C508 1.523 . S
C508 C489 1.368 . S
C508 C502 1.368 . S
C508 C507 1.523 . S
C509 C493 1.429 . S
C509 C505 1.429 . S
C509 C510 1.523 . S
C510 C494 1.368 . S
C510 C506 1.368 . S
C510 C509 1.523 . S
H511 C486 0.950 . S
H512 C488 0.950 . S
H513 C489 0.949 . S
H514 C491 0.950 . S
H515 C493 0.950 . S
C516 C517 1.349 . S
C516 C518 1.327 . S
C516 H541 0.950 . S
C517 C516 1.349 . S
C517 C533 1.349 . S
C518 C516 1.327 . S
C518 C537 1.429 . S
C518 H542 0.950 . S
C519 C536 1.574 . S
C519 C538 1.368 . S
C519 H543 0.949 . S
H520 C524 0.949 . S
C521 C522 1.349 . S
C521 C523 1.327 . S
C521 H544 0.950 . S
C522 C521 1.349 . S
C522 C534 1.349 . S
C523 C521 1.327 . S
C523 C539 1.429 . S
C523 H545 0.950 . S
C524 H520 0.949 . S
C524 C532 1.574 . S
C524 C540 1.368 . S
H525 C533 0.950 . S
H526 C531 0.950 . S
H527 C532 0.949 . S
H528 C534 0.950 . S
H529 C535 0.950 . S
H530 C536 0.949 . S
C531 H526 0.950 . S
C531 C533 1.327 . S
C531 C537 1.429 . S
C532 C524 1.574 . S
C532 H527 0.949 . S
C532 C538 1.368 . S
C533 C517 1.349 . S
C533 H525 0.950 . S
C533 C531 1.327 . S
C534 C522 1.349 . S
C534 H528 0.950 . S
C534 C535 1.327 . S
C535 H529 0.950 . S
C535 C534 1.327 . S
C535 C539 1.429 . S
C536 C519 1.574 . S
C536 H530 0.949 . S
C536 C540 1.368 . S
C537 C518 1.429 . S
C537 C531 1.429 . S
C537 C538 1.523 . S
C538 C519 1.368 . S
C538 C532 1.368 . S
C538 C537 1.523 . S
C539 C523 1.429 . S
C539 C535 1.429 . S
C539 C540 1.523 . S
C540 C524 1.368 . S
C540 C536 1.368 . S
C540 C539 1.523 . S
H541 C516 0.950 . S
H542 C518 0.950 . S
H543 C519 0.949 . S
H544 C521 0.950 . S
H545 C523 0.950 . S
C546 C547 1.349 . S
C546 C548 1.327 . S
C546 H571 0.950 1_556 S
C547 C546 1.349 . S
C547 C563 1.349 . S
C548 C546 1.327 . S
C548 C567 1.429 . S
C548 H572 0.950 . S
C549 C566 1.574 . S
C549 C568 1.368 . S
C549 H573 0.949 . S
H550 C554 0.949 . S
C551 C552 1.349 . S
C551 C553 1.327 . S
C551 H574 0.950 . S
C552 C551 1.349 . S
C552 C564 1.349 . S
C553 C551 1.327 . S
C553 C569 1.429 . S
C553 H575 0.950 . S
C554 H550 0.949 . S
C554 C562 1.574 . S
C554 C570 1.368 . S
H555 C563 0.950 . S
H556 C561 0.950 . S
H557 C562 0.949 . S
H558 C564 0.950 . S
H559 C565 0.950 . S
H560 C566 0.949 . S
C561 H556 0.950 . S
C561 C563 1.327 . S
C561 C567 1.429 . S
C562 C554 1.574 . S
C562 H557 0.949 . S
C562 C568 1.368 . S
C563 C547 1.349 . S
C563 H555 0.950 . S
C563 C561 1.327 . S
C564 C552 1.349 . S
C564 H558 0.950 . S
C564 C565 1.327 . S
C565 H559 0.950 . S
C565 C564 1.327 . S
C565 C569 1.429 . S
C566 C549 1.574 . S
C566 H560 0.949 . S
C566 C570 1.368 . S
C567 C548 1.429 . S
C567 C561 1.429 . S
C567 C568 1.523 . S
C568 C549 1.368 . S
C568 C562 1.368 . S
C568 C567 1.523 . S
C569 C553 1.429 . S
C569 C565 1.429 . S
C569 C570 1.523 . S
C570 C554 1.368 . S
C570 C566 1.368 . S
C570 C569 1.523 . S
H571 C546 0.950 1_554 S
H572 C548 0.950 . S
H573 C549 0.949 . S
H574 C551 0.950 . S
H575 C553 0.950 . S
C576 C577 1.349 . S
C576 C578 1.327 . S
C576 H601 0.950 . S
C577 C576 1.349 . S
C577 C593 1.349 . S
C578 C576 1.327 . S
C578 C597 1.429 . S
C578 H602 0.950 . S
C579 C596 1.574 . S
C579 C598 1.368 . S
C579 H603 0.949 . S
H580 C584 0.949 . S
C581 C582 1.349 . S
C581 C583 1.327 . S
C581 H604 0.950 . S
C582 C581 1.349 . S
C582 C594 1.349 . S
C583 C581 1.327 . S
C583 C599 1.429 . S
C583 H605 0.950 . S
C584 H580 0.949 . S
C584 C592 1.574 . S
C584 C600 1.368 . S
H585 C593 0.950 . S
H586 C591 0.950 . S
H587 C592 0.949 . S
H588 C594 0.950 . S
H589 C595 0.950 . S
H590 C596 0.949 . S
C591 H586 0.950 . S
C591 C593 1.327 . S
C591 C597 1.429 . S
C592 C584 1.574 . S
C592 H587 0.949 . S
C592 C598 1.368 . S
C593 C577 1.349 . S
C593 H585 0.950 . S
C593 C591 1.327 . S
C594 C582 1.349 . S
C594 H588 0.950 . S
C594 C595 1.327 . S
C595 H589 0.950 . S
C595 C594 1.327 . S
C595 C599 1.429 . S
C596 C579 1.574 . S
C596 H590 0.949 . S
C596 C600 1.368 . S
C597 C578 1.429 . S
C597 C591 1.429 . S
C597 C598 1.523 . S
C598 C579 1.368 . S
C598 C592 1.368 . S
C598 C597 1.523 . S
C599 C583 1.429 . S
C599 C595 1.429 . S
C599 C600 1.523 . S
C600 C584 1.368 . S
C600 C596 1.368 . S
C600 C599 1.523 . S
H601 C576 0.950 . S
H602 C578 0.950 . S
H603 C579 0.949 . S
H604 C581 0.950 . S
H605 C583 0.950 . S
C606 C607 1.349 . S
C606 C608 1.327 . S
C606 H631 0.950 . S
C607 C606 1.349 . S
C607 C623 1.349 . S
C608 C606 1.327 . S
C608 C627 1.429 . S
C608 H632 0.950 . S
C609 C626 1.574 . S
C609 C628 1.368 . S
C609 H633 0.949 . S
H610 C614 0.949 . S
C611 C612 1.349 . S
C611 C613 1.327 . S
C611 H634 0.950 . S
C612 C611 1.349 . S
C612 C624 1.349 . S
C613 C611 1.327 . S
C613 C629 1.429 . S
C613 H635 0.950 . S
C614 H610 0.949 . S
C614 C622 1.574 . S
C614 C630 1.368 . S
H615 C623 0.950 . S
H616 C621 0.950 . S
H617 C622 0.949 . S
H618 C624 0.950 . S
H619 C625 0.950 . S
H620 C626 0.949 . S
C621 H616 0.950 . S
C621 C623 1.327 . S
C621 C627 1.429 . S
C622 C614 1.574 . S
C622 H617 0.949 . S
C622 C628 1.368 . S
C623 C607 1.349 . S
C623 H615 0.950 . S
C623 C621 1.327 . S
C624 C612 1.349 . S
C624 H618 0.950 . S
C624 C625 1.327 . S
C625 H619 0.950 . S
C625 C624 1.327 . S
C625 C629 1.429 . S
C626 C609 1.574 . S
C626 H620 0.949 . S
C626 C630 1.368 . S
C627 C608 1.429 . S
C627 C621 1.429 . S
C627 C628 1.523 . S
C628 C609 1.368 . S
C628 C622 1.368 . S
C628 C627 1.523 . S
C629 C613 1.429 . S
C629 C625 1.429 . S
C629 C630 1.523 . S
C630 C614 1.368 . S
C630 C626 1.368 . S
C630 C629 1.523 . S
H631 C606 0.950 . S
H632 C608 0.950 . S
H633 C609 0.949 . S
H634 C611 0.950 . S
H635 C613 0.950 . S
C636 C637 1.349 . S
C636 C638 1.327 . S
C636 H661 0.950 . S
C637 C636 1.349 . S
C637 C653 1.349 . S
C638 C636 1.327 . S
C638 C657 1.429 . S
C638 H662 0.950 . S
C639 C656 1.574 . S
C639 C658 1.368 . S
C639 H663 0.949 . S
H640 C644 0.949 . S
C641 C642 1.349 . S
C641 C643 1.327 . S
C641 H664 0.950 . S
C642 C641 1.349 . S
C642 C654 1.349 . S
C643 C641 1.327 . S
C643 C659 1.429 . S
C643 H665 0.950 . S
C644 H640 0.949 . S
C644 C652 1.574 . S
C644 C660 1.368 . S
H645 C653 0.950 1_554 S
H646 C651 0.950 . S
H647 C652 0.949 . S
H648 C654 0.950 . S
H649 C655 0.950 . S
H650 C656 0.949 . S
C651 H646 0.950 . S
C651 C653 1.327 . S
C651 C657 1.429 . S
C652 C644 1.574 . S
C652 H647 0.949 . S
C652 C658 1.368 . S
C653 C637 1.349 . S
C653 H645 0.950 1_556 S
C653 C651 1.327 . S
C654 C642 1.349 . S
C654 H648 0.950 . S
C654 C655 1.327 . S
C655 H649 0.950 . S
C655 C654 1.327 . S
C655 C659 1.429 . S
C656 C639 1.574 . S
C656 H650 0.949 . S
C656 C660 1.368 . S
C657 C638 1.429 . S
C657 C651 1.429 . S
C657 C658 1.523 . S
C658 C639 1.368 . S
C658 C652 1.368 . S
C658 C657 1.523 . S
C659 C643 1.429 . S
C659 C655 1.429 . S
C659 C660 1.523 . S
C660 C644 1.368 . S
C660 C656 1.368 . S
C660 C659 1.523 . S
H661 C636 0.950 . S
H662 C638 0.950 . S
H663 C639 0.949 . S
H664 C641 0.950 . S
H665 C643 0.950 . S
C127 C121 1.345 . S
C132 C15 1.431 . S
C157 C16 1.345 . S
C162 C36 1.431 . S
C187 C37 1.345 . S
C192 C57 1.431 . S
C217 C58 1.345 . S
C222 C78 1.431 . S
C247 C99 1.431 . S
C252 C79 1.345 . S
C277 C120 1.431 . S
C282 C100 1.345 . S
C307 C17 1.065 . S
C312 C18 1.057 . S
C337 C38 1.065 . S
C342 C39 1.057 . S
C367 C59 1.065 . S
C372 C60 1.057 . S
C397 C80 1.065 . S
C402 C81 1.057 . S
C427 C102 1.057 . S
C432 C101 1.065 . S
C457 C122 1.065 . S
C462 C123 1.057 . S
C487 C14 1.289 . S
C492 C97 1.167 . S
C517 C35 1.289 . S
C522 C118 1.167 . S
C547 C13 1.167 . S
C552 C56 1.289 . S
C577 C34 1.167 . S
C582 C77 1.289 . S
C607 C98 1.289 . S
C612 C55 1.167 . S
C637 C76 1.167 . S
C642 C119 1.289 . S
