# Generated by pormake.
# Topology umb, (4)-cn, num edge types: 1
# Building blocks:
#     Node 0, Type 0, BuildingBlock: QUQFOY_clean_sbu_1, # of connection points: 4
#     Node 1, Type 0, BuildingBlock: QUQFOY_clean_sbu_1, # of connection points: 4
#     Node 2, Type 0, BuildingBlock: QUQFOY_clean_sbu_1, # of connection points: 4
#     Node 3, Type 0, BuildingBlock: QUQFOY_clean_sbu_1, # of connection points: 4
#     Node 4, Type 0, BuildingBlock: QUQFOY_clean_sbu_1, # of connection points: 4
#     Node 5, Type 0, BuildingBlock: QUQFOY_clean_sbu_1, # of connection points: 4
#     Node 6, Type 0, BuildingBlock: QUQFOY_clean_sbu_1, # of connection points: 4
#     Node 7, Type 0, BuildingBlock: QUQFOY_clean_sbu_1, # of connection points: 4
#     Node 8, Type 0, BuildingBlock: QUQFOY_clean_sbu_1, # of connection points: 4
#     Node 9, Type 0, BuildingBlock: QUQFOY_clean_sbu_1, # of connection points: 4
#     Node 10, Type 0, BuildingBlock: QUQFOY_clean_sbu_1, # of connection points: 4
#     Node 11, Type 0, BuildingBlock: QUQFOY_clean_sbu_1, # of connection points: 4
#     Edge 12, Type (0, 0), BuildingBlock: AJUNOK_clean_linker_0, # of connection points: 2
#     Edge 13, Type (0, 0), BuildingBlock: AJUNOK_clean_linker_0, # of connection points: 2
#     Edge 14, Type (0, 0), BuildingBlock: AJUNOK_clean_linker_0, # of connection points: 2
#     Edge 15, Type (0, 0), BuildingBlock: AJUNOK_clean_linker_0, # of connection points: 2
#     Edge 16, Type (0, 0), BuildingBlock: AJUNOK_clean_linker_0, # of connection points: 2
#     Edge 17, Type (0, 0), BuildingBlock: AJUNOK_clean_linker_0, # of connection points: 2
#     Edge 18, Type (0, 0), BuildingBlock: AJUNOK_clean_linker_0, # of connection points: 2
#     Edge 19, Type (0, 0), BuildingBlock: AJUNOK_clean_linker_0, # of connection points: 2
#     Edge 20, Type (0, 0), BuildingBlock: AJUNOK_clean_linker_0, # of connection points: 2
#     Edge 21, Type (0, 0), BuildingBlock: AJUNOK_clean_linker_0, # of connection points: 2
#     Edge 22, Type (0, 0), BuildingBlock: AJUNOK_clean_linker_0, # of connection points: 2
#     Edge 23, Type (0, 0), BuildingBlock: AJUNOK_clean_linker_0, # of connection points: 2
#     Edge 24, Type (0, 0), BuildingBlock: AJUNOK_clean_linker_0, # of connection points: 2
#     Edge 25, Type (0, 0), BuildingBlock: AJUNOK_clean_linker_0, # of connection points: 2
#     Edge 26, Type (0, 0), BuildingBlock: AJUNOK_clean_linker_0, # of connection points: 2
#     Edge 27, Type (0, 0), BuildingBlock: AJUNOK_clean_linker_0, # of connection points: 2
#     Edge 28, Type (0, 0), BuildingBlock: AJUNOK_clean_linker_0, # of connection points: 2
#     Edge 29, Type (0, 0), BuildingBlock: AJUNOK_clean_linker_0, # of connection points: 2
#     Edge 30, Type (0, 0), BuildingBlock: AJUNOK_clean_linker_0, # of connection points: 2
#     Edge 31, Type (0, 0), BuildingBlock: AJUNOK_clean_linker_0, # of connection points: 2
#     Edge 32, Type (0, 0), BuildingBlock: AJUNOK_clean_linker_0, # of connection points: 2
#     Edge 33, Type (0, 0), BuildingBlock: AJUNOK_clean_linker_0, # of connection points: 2
#     Edge 34, Type (0, 0), BuildingBlock: AJUNOK_clean_linker_0, # of connection points: 2
#     Edge 35, Type (0, 0), BuildingBlock: AJUNOK_clean_linker_0, # of connection points: 2
# Relax obj value: 0.090
# Max RMSD: 0.163
# Mean RMSD: 0.163
data_MOF--net-umb--node1-QUQFOY_clean_sbu_1--edge1-AJUNOK_clean_linker_0
_symmetry_space_group_name_H-M    P1
_symmetry_Int_Tables_number       1
_symmetry_cell_setting            triclinic
loop_
_symmetry_equiv_pos_as_xyz
'x, y, z'
_cell_length_a     39.804084
_cell_length_b     39.568182
_cell_length_c     28.29804
_cell_angle_alpha  89.874848
_cell_angle_beta   90.480633
_cell_angle_gamma 120.09005
loop_
_atom_site_label
_atom_site_type_symbol
_atom_site_fract_x
_atom_site_fract_y
_atom_site_fract_z
_atom_type_partial_charge
O0 O 0.57386 0.15649 0.44848 0.0
Cd1 Cd 0.58745 0.15618 0.37857 0.0
Cd2 Cd 0.57277 0.21365 0.37955 0.0
O3 O 0.54232 0.18888 0.44174 0.0
O4 O 0.58197 0.10383 0.36857 0.0
O5 O 0.54483 0.12302 0.3326 0.0
C6 C 0.5528 0.0957 0.34122 0.0
C7 C 0.55487 0.23648 0.31208 0.0
C8 C 0.55372 0.16965 0.46695 0.0
C9 C 0.65554 0.23002 0.38376 0.0
O10 O 0.63127 0.24079 0.39385 0.0
O11 O 0.64416 0.19669 0.36559 0.0
O12 O 0.56192 0.25439 0.35222 0.0
O13 O 0.5553 0.204 0.31113 0.0
O14 O 0.41869 0.58141 0.73734 0.0
Cd15 Cd 0.43953 0.58966 0.6697 0.0
Cd16 Cd 0.38447 0.61243 0.65779 0.0
O17 O 0.37186 0.59546 0.72862 0.0
O18 O 0.47502 0.56803 0.67371 0.0
O19 O 0.42405 0.54355 0.626 0.0
C20 C 0.45351 0.54217 0.643 0.0
C21 C 0.33645 0.60071 0.5996 0.0
C22 C 0.39207 0.5861 0.75501 0.0
C23 C 0.47068 0.6735 0.65627 0.0
O24 O 0.43538 0.66509 0.65346 0.0
O25 O 0.47941 0.64686 0.65838 0.0
O26 O 0.34271 0.6235 0.63511 0.0
O27 O 0.35657 0.58334 0.59763 0.0
O28 O 0.81574 0.39362 0.11331 0.0
Cd29 Cd 0.82397 0.41591 0.04605 0.0
Cd30 Cd 0.7458 0.35464 1.03787 0.0
O31 O 0.75515 0.34476 0.10833 0.0
O32 O 0.87996 0.45657 0.0458 0.0
O33 O 0.85509 0.4061 0.99711 0.0
C34 C 0.88482 0.43802 1.01184 0.0
C35 C 0.70838 0.30484 0.98197 0.0
C36 C 0.78578 0.36601 0.13272 0.0
C37 C 0.76484 0.43938 1.03319 0.0
O38 O 0.73987 0.40314 1.0318 0.0
O39 O 0.80072 0.45124 1.03738 0.0
O40 O 0.69305 0.30989 1.01925 0.0
O41 O 0.74549 0.32671 0.97735 0.0
O42 O 0.41301 0.8477 0.41307 0.0
Cd43 Cd 0.40606 0.86468 0.34676 0.0
Cd44 Cd 0.38662 0.78447 0.32869 0.0
O45 O 0.40018 0.7871 0.40085 0.0
O46 O 0.42035 0.92004 0.35799 0.0
O47 O 0.4523 0.90392 0.3082 0.0
C48 C 0.44784 0.93072 0.328 0.0
C49 C 0.39898 0.74762 0.27242 0.0
C50 C 0.40826 0.81548 0.42886 0.0
C51 C 0.32428 0.80787 0.32097 0.0
O52 O 0.33442 0.78216 0.31808 0.0
O53 O 0.34879 0.84318 0.33022 0.0
O54 O 0.37584 0.73123 0.30731 0.0
O55 O 0.41684 0.78528 0.27043 0.0
O56 O 0.52497 0.39092 0.76331 0.0
Cd57 Cd 0.50035 0.37488 0.69739 0.0
Cd58 Cd 0.55572 0.35437 0.68731 0.0
O59 O 0.5689 0.37261 0.75808 0.0
O60 O 0.4646 0.39616 0.69446 0.0
O61 O 0.51352 0.41454 0.64523 0.0
C62 C 0.48436 0.41744 0.65951 0.0
C63 C 0.6026 0.36532 0.62905 0.0
C64 C 0.55101 0.38571 0.78245 0.0
C65 C 0.47104 0.29079 0.69106 0.0
O66 O 0.50612 0.3005 0.68312 0.0
O67 O 0.46136 0.31654 0.69569 0.0
O68 O 0.59558 0.34156 0.66366 0.0
O69 O 0.58472 0.38499 0.62856 0.0
O70 O 0.12674 0.54645 0.06913 0.0
Cd71 Cd 0.11246 0.52143 1.00332 0.0
Cd72 Cd 0.19001 0.58678 0.98884 0.0
O73 O 0.18346 0.60009 0.05844 0.0
O74 O 0.05813 0.47865 1.01412 0.0
O75 O 0.07247 0.52624 0.96339 0.0
C76 C 0.04652 0.49509 0.9842 0.0
C77 C 0.22624 0.63434 0.93062 0.0
C78 C 0.1557 0.57728 0.08542 0.0
C79 C 0.17383 0.50223 0.98895 0.0
O80 O 0.19705 0.5389 0.98732 0.0
O81 O 0.13745 0.48822 0.9909 0.0
O82 O 0.24231 0.63105 0.96866 0.0
O83 O 0.1891 0.61207 0.92641 0.0
O84 O 0.8262 0.38354 0.35706 0.0
Cd85 Cd 0.8575 0.38872 0.41911 0.0
Cd86 Cd 0.75976 0.37414 0.43806 0.0
O87 O 0.76552 0.37343 0.3642 0.0
O88 O 0.91326 0.40843 0.40757 0.0
O89 O 0.89091 0.44136 0.44751 0.0
C90 C 0.92004 0.43945 0.43061 0.0
C91 C 0.70926 0.37314 0.48237 0.0
C92 C 0.79396 0.37737 0.33891 0.0
C93 C 0.80154 0.33545 0.46898 0.0
O94 O 0.80068 0.36695 0.4733 0.0
O95 O 0.83417 0.3392 0.45982 0.0
O96 O 0.70621 0.34188 0.46403 0.0
O97 O 0.74023 0.40589 0.47265 0.0
O98 O 0.42738 0.83473 0.65657 0.0
Cd99 Cd 0.44336 0.8417 0.72652 0.0
Cd100 Cd 0.38491 0.7657 0.73015 0.0
O101 O 0.37799 0.77432 0.65833 0.0
O102 O 0.47872 0.89887 0.73313 0.0
O103 O 0.4237 0.86674 0.77234 0.0
C104 C 0.45452 0.8994 0.76252 0.0
C105 C 0.33291 0.7314 0.7832 0.0
C106 C 0.40086 0.80496 0.63514 0.0
C107 C 0.46864 0.78486 0.74357 0.0
O108 O 0.43267 0.75945 0.74154 0.0
O109 O 0.47998 0.82094 0.74091 0.0
O110 O 0.33876 0.71404 0.74844 0.0
O111 O 0.35563 0.76872 0.78698 0.0
O112 O 0.56163 0.4221 1.00833 0.0
Cd113 Cd 0.57139 0.44124 0.07704 0.0
Cd114 Cd 0.57462 0.37261 0.08506 0.0
O115 O 0.55585 0.36374 1.01419 0.0
O116 O 0.56061 0.48511 0.07476 0.0
O117 O 0.52619 0.43222 0.11775 0.0
C118 C 0.53204 0.46557 0.10279 0.0
C119 C 0.55596 0.3241 0.14453 0.0
C120 C 0.55578 0.3906 0.98911 0.0
C121 C 0.64832 0.45295 0.094 0.0
O122 O 0.63161 0.41599 0.09039 0.0
O123 O 0.62898 0.47037 0.09402 0.0
O124 O 0.57536 0.32463 0.10801 0.0
O125 O 0.5448 0.34964 0.14592 0.0
O126 O 0.1407 0.59579 0.31054 0.0
Cd127 Cd 0.13592 0.60935 0.37888 0.0
Cd128 Cd 0.20815 0.61707 0.38318 0.0
O129 O 0.19505 0.59368 0.31468 0.0
O130 O 0.07995 0.59238 0.38398 0.0
O131 O 0.10794 0.56575 0.42568 0.0
C132 C 0.07687 0.56643 0.41384 0.0
C133 C 0.2394 0.60153 0.4439 0.0
C134 C 0.16614 0.59033 0.29088 0.0
C135 C 0.19904 0.68932 0.3859 0.0
O136 O 0.22047 0.67404 0.38304 0.0
O137 O 0.16252 0.6683 0.38932 0.0
O138 O 0.25724 0.61868 0.40565 0.0
O139 O 0.20303 0.59098 0.44665 0.0
O140 O 0.50357 0.12861 0.68701 0.0
Cd141 Cd 0.48785 0.11385 0.75608 0.0
Cd142 Cd 0.55335 0.18317 0.77073 0.0
O143 O 0.56392 0.17581 0.7 0.0
O144 O 0.4515 0.05667 0.75544 0.0
O145 O 0.50804 0.08446 0.79329 0.0
C146 C 0.47679 0.05306 0.78031 0.0
C147 C 0.60276 0.21203 0.82952 0.0
C148 C 0.53654 0.15395 0.67148 0.0
C149 C 0.47247 0.17464 0.78056 0.0
O150 O 0.50912 0.19605 0.77633 0.0
O151 O 0.4566 0.13779 0.78028 0.0
O152 O 0.60148 0.23171 0.79391 0.0
O153 O 0.57701 0.17533 0.83093 0.0
O154 O 0.39214 0.55632 0.98025 0.0
Cd155 Cd 0.38042 0.53552 0.0482 0.0
Cd156 Cd 0.36627 0.5961 0.05874 0.0
O157 O 0.38231 0.60624 0.98741 0.0
O158 O 0.39716 0.49598 0.04977 0.0
O159 O 0.42294 0.5479 0.09628 0.0
C160 C 0.42167 0.51622 0.08243 0.0
C161 C 0.387 0.64508 0.11765 0.0
C162 C 0.38988 0.58443 0.96176 0.0
C163 C 0.29891 0.51291 0.06461 0.0
O164 O 0.3109 0.54934 0.06677 0.0
O165 O 0.32239 0.50054 0.05894 0.0
O166 O 0.36487 0.64328 0.08307 0.0
O167 O 0.39909 0.62025 0.11776 0.0
C168 C 0.57665 0.1643 0.5477 0.0
C169 C 0.54836 0.16619 0.51903 0.0
C170 C 0.57345 0.16157 0.59712 0.0
C171 C 0.54131 0.15956 0.61971 0.0
H172 H 0.60188 0.16543 0.53187 0.0
H173 H 0.59577 0.16007 0.61764 0.0
S174 S 0.46014 0.16513 0.56189 0.0
N175 N 0.48815 0.16774 0.51763 0.0
N176 N 0.48134 0.16116 0.61034 0.0
C177 C 0.51302 0.16181 0.59173 0.0
C178 C 0.51675 0.16554 0.54148 0.0
C179 C 0.4052 0.56659 0.83397 0.0
C180 C 0.38854 0.58475 0.80753 0.0
C181 C 0.40667 0.56807 0.8834 0.0
C182 C 0.39177 0.58799 0.90917 0.0
H183 H 0.41752 0.55107 0.81631 0.0
H184 H 0.41949 0.5531 0.90158 0.0
S185 S 0.34547 0.64121 0.85725 0.0
N186 N 0.3572 0.624 0.81098 0.0
N187 N 0.35968 0.62656 0.90416 0.0
C188 C 0.37517 0.60662 0.88333 0.0
C189 C 0.37348 0.60491 0.8326 0.0
C190 C 0.8236 0.38695 0.2589 0.0
C191 C 0.78986 0.37262 0.28646 0.0
C192 C 0.82167 0.38251 0.20973 0.0
C193 C 0.78589 0.36332 0.18536 0.0
H194 H 0.8521 0.40244 0.27531 0.0
H195 H 0.84873 0.39519 0.19053 0.0
S196 S 0.68852 0.31735 0.24087 0.0
N197 N 0.71922 0.33606 0.28581 0.0
N198 N 0.71552 0.32796 0.19307 0.0
C199 C 0.75171 0.3475 0.21246 0.0
C200 C 0.75371 0.35223 0.26292 0.0
C201 C 0.42522 0.84426 0.50995 0.0
C202 C 0.40782 0.81066 0.4812 0.0
C203 C 0.4216 0.84188 0.55917 0.0
C204 C 0.40021 0.80576 0.58239 0.0
H205 H 0.44165 0.873 0.49428 0.0
H206 H 0.43593 0.86888 0.57918 0.0
S207 S 0.34864 0.70853 0.52382 0.0
N208 N 0.36806 0.73974 0.47974 0.0
N209 N 0.36147 0.73521 0.57255 0.0
C210 C 0.38258 0.7717 0.55424 0.0
C211 C 0.38647 0.77414 0.50374 0.0
C212 C 0.56457 0.36505 0.91107 0.0
C213 C 0.55291 0.388 0.93645 0.0
C214 C 0.56604 0.36598 0.86124 0.0
C215 C 0.55564 0.38969 0.83485 0.0
H216 H 0.57323 0.34669 0.92979 0.0
H217 H 0.5743 0.34713 0.84327 0.0
S218 S 0.52315 0.45541 0.88416 0.0
N219 N 0.53074 0.43513 0.93095 0.0
N220 N 0.53376 0.43701 0.83821 0.0
C221 C 0.54416 0.41287 0.85992 0.0
C222 C 0.54268 0.41195 0.91035 0.0
C223 C 0.197 0.60033 0.21086 0.0
C224 C 0.16335 0.58452 0.23879 0.0
C225 C 0.19458 0.59977 0.16111 0.0
C226 C 0.15841 0.58306 0.13752 0.0
H227 H 0.22543 0.61407 0.2275 0.0
H228 H 0.22116 0.61165 0.14104 0.0
S229 S 0.06167 0.53743 0.19435 0.0
N230 N 0.0928 0.55149 0.23894 0.0
N231 N 0.08829 0.55036 0.14615 0.0
C232 C 0.12464 0.56708 0.16516 0.0
C233 C 0.1271 0.5678 0.21552 0.0
C234 C 0.7322 0.28631 0.47542 0.0
C235 C 0.76667 0.3013 0.44986 0.0
C236 C 0.69648 0.26178 0.45368 0.0
C237 C 0.69414 0.25158 0.40571 0.0
H238 H 0.73265 0.29567 0.51151 0.0
H239 H 0.67029 0.25199 0.47412 0.0
S240 S 0.77646 0.27708 0.32586 0.0
N241 N 0.79696 0.29957 0.37605 0.0
N242 N 0.72914 0.25355 0.33508 0.0
C243 C 0.72847 0.26322 0.38093 0.0
C244 C 0.76505 0.28814 0.40316 0.0
C245 C 0.505 0.7759 0.68143 0.0
C246 C 0.49525 0.77135 0.72969 0.0
C247 C 0.50457 0.74532 0.6561 0.0
C248 C 0.49674 0.71083 0.67926 0.0
H249 H 0.50553 0.79958 0.66146 0.0
H250 H 0.50458 0.74636 0.61783 0.0
S251 S 0.48403 0.69157 0.80786 0.0
N252 N 0.48712 0.73454 0.80129 0.0
N253 N 0.49041 0.6787 0.75468 0.0
C254 C 0.49636 0.71032 0.72902 0.0
C255 C 0.49458 0.74039 0.7543 0.0
C256 C 0.71662 0.47446 0.1115 0.0
C257 C 0.689 0.47412 0.08023 0.0
C258 C 0.7476 0.47101 0.09423 0.0
C259 C 0.75046 0.46557 0.04561 0.0
H260 H 0.71135 0.47191 0.1492 0.0
H261 H 0.76548 0.46625 0.11943 0.0
S262 S 0.69051 0.4719 0.94955 0.0
N263 N 0.67137 0.47717 0.99861 0.0
N264 N 0.728 0.46753 0.9664 0.0
C265 C 0.72657 0.47115 1.01398 0.0
C266 C 0.69613 0.47641 1.03143 0.0
C267 C 0.27418 0.79241 0.37924 0.0
C268 C 0.28333 0.79326 0.33109 0.0
C269 C 0.24128 0.76007 0.39797 0.0
C270 C 0.21602 0.72924 0.36839 0.0
H271 H 0.29576 0.81303 0.40378 0.0
H272 H 0.23859 0.75681 0.43601 0.0
S273 S 0.22084 0.7244 0.23824 0.0
N274 N 0.26059 0.76535 0.25326 0.0
N275 N 0.19689 0.70611 0.28784 0.0
C276 C 0.22075 0.73403 0.31923 0.0
C277 C 0.25505 0.76593 0.3005 0.0
C278 C 0.43952 0.21891 0.69237 0.0
C279 C 0.44834 0.25362 0.71569 0.0
C280 C 0.43911 0.18812 0.71737 0.0
C281 C 0.44956 0.19236 0.76561 0.0
H282 H 0.43791 0.21746 0.65412 0.0
H283 H 0.43699 0.16382 0.69728 0.0
S284 S 0.46683 0.27418 0.8439 0.0
N285 N 0.45921 0.28707 0.7911 0.0
N286 N 0.46197 0.23049 0.83706 0.0
C287 C 0.4529 0.22444 0.79028 0.0
C288 C 0.45137 0.2549 0.76536 0.0
C289 C 0.21717 0.47513 0.98186 0.0
C290 C 0.19045 0.47976 1.00891 0.0
C291 C 0.25039 0.47807 1.00321 0.0
C292 C 0.25819 0.48746 0.05153 0.0
H293 H 0.21527 0.4748 0.94362 0.0
H294 H 0.27283 0.47945 0.98048 0.0
S295 S 0.1924 0.49277 0.13863 0.0
N296 N 0.1691 0.48448 0.08758 0.0
N297 N 0.23337 0.49352 0.12696 0.0
C298 C 0.22891 0.48603 0.07978 0.0
C299 C 0.19425 0.48106 0.05845 0.0
C300 C 0.54046 0.0283 0.32484 0.0
C301 C 0.52659 0.05481 0.32604 0.0
C302 C 0.51484 -0.01212 0.3212 0.0
C303 C 0.47451 0.97269 0.31976 0.0
H304 H 0.5712 0.03871 0.32909 0.0
H305 H 0.52652 0.96838 0.32304 0.0
S306 S 0.42354 0.02946 0.31594 0.0
N307 N 0.46999 0.06289 0.32017 0.0
N308 N 0.42195 -0.01304 0.31488 0.0
C309 C 0.46042 -0.00113 0.31774 0.0
C310 C 0.48646 0.03999 0.32038 0.0
C311 C 0.49892 0.51684 0.63324 0.0
C312 C 0.46056 0.50979 0.63272 0.0
C313 C 0.5066 0.48601 0.63668 0.0
C314 C 0.47611 0.44733 0.64102 0.0
H315 H 0.52316 0.54653 0.63394 0.0
H316 H 0.53648 0.49282 0.64025 0.0
S317 S 0.37077 0.413 0.635 0.0
N318 N 0.39192 0.46101 0.63084 0.0
N319 N 0.40637 0.40309 0.63911 0.0
C320 C 0.43773 0.43967 0.63674 0.0
C321 C 0.42992 0.47096 0.63204 0.0
C322 C 0.93834 0.42616 0.98914 0.0
C323 C 0.92411 0.45207 0.99335 0.0
C324 C -0.0219 0.44028 0.98273 0.0
C325 C 0.00458 0.4806 0.97891 0.0
H326 H 0.9192 0.39512 0.99443 0.0
H327 H -0.01154 0.41965 0.98309 0.0
S328 S -0.01935 0.5598 0.98108 0.0
N329 N 0.93861 0.51939 0.98901 0.0
N330 N 0.01313 0.5458 0.97512 0.0
C331 C -0.0099 0.50644 0.97894 0.0
C332 C 0.94984 0.49218 0.98672 0.0
C333 C 0.02992 0.49663 0.43068 0.0
C334 C 0.03805 0.53549 0.42853 0.0
C335 C -0.00844 0.46565 0.43332 0.0
C336 C 0.96017 0.47254 0.43505 0.0
H337 H 0.05306 0.48995 0.42706 0.0
H338 H -0.0136 0.43604 0.43244 0.0
S339 S 0.96675 0.56942 0.43669 0.0
N340 N 0.0122 0.57949 0.43238 0.0
N341 N 0.94014 0.52131 0.43888 0.0
C342 C 0.96821 0.5114 0.43654 0.0
C343 C 0.00718 0.54289 0.43284 0.0
C344 C 0.43397 0.98086 0.78589 0.0
C345 C 0.47154 0.01379 0.78832 0.0
C346 C 0.42841 0.94307 0.78207 0.0
C347 C 0.46029 0.93714 0.77955 0.0
H348 H 0.40872 0.98443 0.78436 0.0
H349 H 0.39914 0.9188 0.77731 0.0
S350 S 0.56419 0.01277 0.79165 0.0
N351 N 0.54084 0.03739 0.79409 0.0
N352 N 0.53036 0.96641 0.78565 0.0
C353 C 0.4978 0.9694 0.78574 0.0
C354 C 0.50344 0.00779 0.79054 0.0
C355 C 0.43709 0.46422 0.10206 0.0
C356 C 0.44905 0.50423 0.10009 0.0
C357 C 0.4641 0.45169 0.10814 0.0
C358 C 0.504 0.47883 0.11116 0.0
H359 H 0.40686 0.44243 0.0964 0.0
H360 H 0.45393 0.42067 0.10642 0.0
S361 S 0.54968 0.58669 0.11423 0.0
N362 N 0.50283 0.5708 0.10734 0.0
N363 N 0.55386 0.54725 0.11711 0.0
C364 C 0.51603 0.51882 0.1128 0.0
C365 C 0.48843 0.53156 0.10773 0.0
C366 C 0.54226 0.28574 0.27105 0.0
C367 C 0.5499 0.25466 0.26804 0.0
C368 C 0.54214 0.30659 0.23067 0.0
C369 C 0.55029 0.29774 0.18547 0.0
H370 H 0.53723 0.29476 0.30512 0.0
H371 H 0.53726 0.33095 0.23534 0.0
S372 S 0.56993 0.21757 0.15751 0.0
N373 N 0.56374 0.21477 0.2153 0.0
N374 N 0.56413 0.25414 0.13992 0.0
C375 C 0.55662 0.26583 0.18169 0.0
C376 C 0.55624 0.24427 0.22274 0.0
C377 C 0.29317 0.592 0.47632 0.0
C378 C 0.26103 0.59698 0.48442 0.0
C379 C 0.31627 0.5913 0.51391 0.0
C380 C 0.30891 0.59681 0.56104 0.0
H381 H 0.30083 0.58904 0.44053 0.0
H382 H 0.34103 0.58804 0.50574 0.0
S383 S 0.22824 0.61082 0.6015 0.0
N384 N 0.22256 0.60647 0.54352 0.0
N385 N 0.26664 0.60666 0.6137 0.0
C386 C 0.27662 0.60138 0.56967 0.0
C387 C 0.25252 0.60105 0.53154 0.0
C388 C 0.6934 0.28721 0.89607 0.0
C389 C 0.68348 0.27758 0.94383 0.0
C390 C 0.66762 0.26521 0.8593 0.0
C391 C 0.63133 0.23197 0.86868 0.0
H392 H 0.7205 0.31309 0.88701 0.0
H393 H 0.6759 0.27475 0.82321 0.0
S394 S 0.59265 0.1926 0.98757 0.0
N395 N 0.63539 0.23158 0.99837 0.0
N396 N 0.58775 0.1895 0.92946 0.0
C397 C 0.6219 0.22091 0.9162 0.0
C398 C 0.64771 0.24389 0.95367 0.0
C399 C 0.3995 0.70987 0.14891 0.0
C400 C 0.39555 0.67295 0.15744 0.0
C401 C 0.40314 0.73494 0.18633 0.0
C402 C 0.40167 0.72355 0.2338 0.0
H403 H 0.39908 0.71919 0.11299 0.0
H404 H 0.40511 0.76261 0.17798 0.0
S405 S 0.39279 0.63042 0.27531 0.0
N406 N 0.39218 0.62712 0.21709 0.0
N407 N 0.39725 0.67335 0.28718 0.0
C408 C 0.39855 0.68709 0.24279 0.0
C409 C 0.39599 0.66206 0.20471 0.0
C410 C 0.65606 0.40329 0.57025 0.0
C411 C 0.62815 0.36737 0.58971 0.0
C412 C 0.68168 0.40503 0.53483 0.0
C413 C 0.67968 0.37084 0.51665 0.0
H414 H 0.65894 0.43028 0.58352 0.0
H415 H 0.70353 0.43343 0.5221 0.0
S416 S 0.60832 0.26919 0.55239 0.0
N417 N 0.59823 0.29682 0.5862 0.0
N418 N 0.64494 0.2997 0.51911 0.0
C419 C 0.65051 0.33467 0.53454 0.0
C420 C 0.62518 0.33305 0.57116 0.0
C421 C 0.28454 0.69622 0.90292 0.0
C422 C 0.25042 0.66089 0.89203 0.0
C423 C 0.30999 0.71991 0.86727 0.0
C424 C 0.303 0.70858 0.81942 0.0
H425 H 0.29193 0.7054 0.9394 0.0
H426 H 0.33623 0.74642 0.87753 0.0
S427 S 0.21767 0.61899 0.772 0.0
N428 N 0.21048 0.61643 0.82963 0.0
N429 N 0.25895 0.65998 0.76302 0.0
C430 C 0.26874 0.67359 0.80801 0.0
C431 C 0.24229 0.65004 0.84416 0.0
loop_
_geom_bond_atom_site_label_1
_geom_bond_atom_site_label_2
_geom_bond_distance
_geom_bond_site_symmetry_2
_ccdc_geom_bond_type
O0 Cd1 2.223 . S
O0 C8 1.315 . S
Cd1 O0 2.223 . S
Cd1 O4 2.297 . S
Cd1 O5 2.439 . S
Cd1 O11 2.240 . S
Cd2 O3 2.240 . S
Cd2 O10 2.223 . S
Cd2 O12 2.297 . S
Cd2 O13 2.439 . S
O3 Cd2 2.240 . S
O3 C8 1.279 . S
O4 Cd1 2.297 . S
O4 C6 1.247 . S
O5 Cd1 2.439 . S
O5 C6 1.208 . S
C6 O4 1.247 . S
C6 O5 1.208 . S
C7 O12 1.247 . S
C7 O13 1.208 . S
C8 O0 1.315 . S
C8 O3 1.279 . S
C9 O10 1.315 . S
C9 O11 1.279 . S
O10 Cd2 2.223 . S
O10 C9 1.315 . S
O11 Cd1 2.240 . S
O11 C9 1.279 . S
O12 Cd2 2.297 . S
O12 C7 1.247 . S
O13 Cd2 2.439 . S
O13 C7 1.208 . S
O14 Cd15 2.223 . S
O14 C22 1.315 . S
Cd15 O14 2.223 . S
Cd15 O18 2.297 . S
Cd15 O19 2.439 . S
Cd15 O25 2.240 . S
Cd16 O17 2.240 . S
Cd16 O24 2.223 . S
Cd16 O26 2.297 . S
Cd16 O27 2.439 . S
O17 Cd16 2.240 . S
O17 C22 1.279 . S
O18 Cd15 2.297 . S
O18 C20 1.247 . S
O19 Cd15 2.439 . S
O19 C20 1.208 . S
C20 O18 1.247 . S
C20 O19 1.208 . S
C21 O26 1.247 . S
C21 O27 1.208 . S
C22 O14 1.315 . S
C22 O17 1.279 . S
C23 O24 1.315 . S
C23 O25 1.279 . S
O24 Cd16 2.223 . S
O24 C23 1.315 . S
O25 Cd15 2.240 . S
O25 C23 1.279 . S
O26 Cd16 2.297 . S
O26 C21 1.247 . S
O27 Cd16 2.439 . S
O27 C21 1.208 . S
O28 Cd29 2.223 . S
O28 C36 1.315 . S
Cd29 O28 2.223 . S
Cd29 O32 2.297 . S
Cd29 O33 2.439 1_554 S
Cd29 O39 2.240 1_554 S
Cd30 O31 2.240 . S
Cd30 O38 2.223 . S
Cd30 O40 2.297 1_554 S
Cd30 O41 2.439 1_554 S
O31 Cd30 2.240 . S
O31 C36 1.279 . S
O32 Cd29 2.297 . S
O32 C34 1.247 1_554 S
O33 Cd29 2.439 1_556 S
O33 C34 1.208 . S
C34 O32 1.247 1_556 S
C34 O33 1.208 . S
C35 O40 1.247 . S
C35 O41 1.208 . S
C36 O28 1.315 . S
C36 O31 1.279 . S
C37 O38 1.315 . S
C37 O39 1.279 1_554 S
O38 Cd30 2.223 . S
O38 C37 1.315 . S
O39 Cd29 2.240 1_556 S
O39 C37 1.279 1_556 S
O40 Cd30 2.297 1_556 S
O40 C35 1.247 . S
O41 Cd30 2.439 1_556 S
O41 C35 1.208 . S
O42 Cd43 2.223 . S
O42 C50 1.315 . S
Cd43 O42 2.223 . S
Cd43 O46 2.297 . S
Cd43 O47 2.439 . S
Cd43 O53 2.240 . S
Cd44 O45 2.240 . S
Cd44 O52 2.223 . S
Cd44 O54 2.297 . S
Cd44 O55 2.439 . S
O45 Cd44 2.240 . S
O45 C50 1.279 . S
O46 Cd43 2.297 . S
O46 C48 1.247 . S
O47 Cd43 2.439 . S
O47 C48 1.208 . S
C48 O46 1.247 . S
C48 O47 1.208 . S
C49 O54 1.247 . S
C49 O55 1.208 . S
C50 O42 1.315 . S
C50 O45 1.279 . S
C51 O52 1.315 . S
C51 O53 1.279 . S
O52 Cd44 2.223 . S
O52 C51 1.315 . S
O53 Cd43 2.240 . S
O53 C51 1.279 . S
O54 Cd44 2.297 . S
O54 C49 1.247 . S
O55 Cd44 2.439 . S
O55 C49 1.208 . S
O56 Cd57 2.223 . S
O56 C64 1.315 . S
Cd57 O56 2.223 . S
Cd57 O60 2.297 . S
Cd57 O61 2.439 . S
Cd57 O67 2.240 . S
Cd58 O59 2.240 . S
Cd58 O66 2.223 . S
Cd58 O68 2.297 . S
Cd58 O69 2.439 . S
O59 Cd58 2.240 . S
O59 C64 1.279 . S
O60 Cd57 2.297 . S
O60 C62 1.247 . S
O61 Cd57 2.439 . S
O61 C62 1.208 . S
C62 O60 1.247 . S
C62 O61 1.208 . S
C63 O68 1.247 . S
C63 O69 1.208 . S
C64 O56 1.315 . S
C64 O59 1.279 . S
C65 O66 1.315 . S
C65 O67 1.279 . S
O66 Cd58 2.223 . S
O66 C65 1.315 . S
O67 Cd57 2.240 . S
O67 C65 1.279 . S
O68 Cd58 2.297 . S
O68 C63 1.247 . S
O69 Cd58 2.439 . S
O69 C63 1.208 . S
O70 Cd71 2.223 . S
O70 C78 1.315 . S
Cd71 O70 2.223 . S
Cd71 O74 2.297 . S
Cd71 O75 2.439 1_554 S
Cd71 O81 2.240 1_554 S
Cd72 O73 2.240 . S
Cd72 O80 2.223 . S
Cd72 O82 2.297 1_554 S
Cd72 O83 2.439 1_554 S
O73 Cd72 2.240 . S
O73 C78 1.279 . S
O74 Cd71 2.297 . S
O74 C76 1.247 1_554 S
O75 Cd71 2.439 1_556 S
O75 C76 1.208 . S
C76 O74 1.247 1_556 S
C76 O75 1.208 . S
C77 O82 1.247 . S
C77 O83 1.208 . S
C78 O70 1.315 . S
C78 O73 1.279 . S
C79 O80 1.315 . S
C79 O81 1.279 1_554 S
O80 Cd72 2.223 . S
O80 C79 1.315 . S
O81 Cd71 2.240 1_556 S
O81 C79 1.279 1_556 S
O82 Cd72 2.297 1_556 S
O82 C77 1.247 . S
O83 Cd72 2.439 1_556 S
O83 C77 1.208 . S
O84 Cd85 2.223 . S
O84 C92 1.315 . S
Cd85 O84 2.223 . S
Cd85 O88 2.297 . S
Cd85 O89 2.439 . S
Cd85 O95 2.240 . S
Cd86 O87 2.240 . S
Cd86 O94 2.223 . S
Cd86 O96 2.297 . S
Cd86 O97 2.439 . S
O87 Cd86 2.240 . S
O87 C92 1.279 . S
O88 Cd85 2.297 . S
O88 C90 1.247 . S
O89 Cd85 2.439 . S
O89 C90 1.208 . S
C90 O88 1.247 . S
C90 O89 1.208 . S
C91 O96 1.247 . S
C91 O97 1.208 . S
C92 O84 1.315 . S
C92 O87 1.279 . S
C93 O94 1.315 . S
C93 O95 1.279 . S
O94 Cd86 2.223 . S
O94 C93 1.315 . S
O95 Cd85 2.240 . S
O95 C93 1.279 . S
O96 Cd86 2.297 . S
O96 C91 1.247 . S
O97 Cd86 2.439 . S
O97 C91 1.208 . S
O98 Cd99 2.223 . S
O98 C106 1.315 . S
Cd99 O98 2.223 . S
Cd99 O102 2.297 . S
Cd99 O103 2.439 . S
Cd99 O109 2.240 . S
Cd100 O101 2.240 . S
Cd100 O108 2.223 . S
Cd100 O110 2.297 . S
Cd100 O111 2.439 . S
O101 Cd100 2.240 . S
O101 C106 1.279 . S
O102 Cd99 2.297 . S
O102 C104 1.247 . S
O103 Cd99 2.439 . S
O103 C104 1.208 . S
C104 O102 1.247 . S
C104 O103 1.208 . S
C105 O110 1.247 . S
C105 O111 1.208 . S
C106 O98 1.315 . S
C106 O101 1.279 . S
C107 O108 1.315 . S
C107 O109 1.279 . S
O108 Cd100 2.223 . S
O108 C107 1.315 . S
O109 Cd99 2.240 . S
O109 C107 1.279 . S
O110 Cd100 2.297 . S
O110 C105 1.247 . S
O111 Cd100 2.439 . S
O111 C105 1.208 . S
O112 Cd113 2.223 1_556 S
O112 C120 1.315 . S
Cd113 O112 2.223 1_554 S
Cd113 O116 2.297 1_554 S
Cd113 O117 2.439 . S
Cd113 O123 2.240 . S
Cd114 O115 2.240 1_554 S
Cd114 O122 2.223 1_554 S
Cd114 O124 2.297 . S
Cd114 O125 2.439 . S
O115 Cd114 2.240 1_556 S
O115 C120 1.279 . S
O116 Cd113 2.297 1_556 S
O116 C118 1.247 1_556 S
O117 Cd113 2.439 . S
O117 C118 1.208 . S
C118 O116 1.247 1_554 S
C118 O117 1.208 . S
C119 O124 1.247 . S
C119 O125 1.208 . S
C120 O112 1.315 . S
C120 O115 1.279 . S
C121 O122 1.315 1_554 S
C121 O123 1.279 . S
O122 Cd114 2.223 1_556 S
O122 C121 1.315 1_556 S
O123 Cd113 2.240 . S
O123 C121 1.279 . S
O124 Cd114 2.297 . S
O124 C119 1.247 . S
O125 Cd114 2.439 . S
O125 C119 1.208 . S
O126 Cd127 2.223 . S
O126 C134 1.315 . S
Cd127 O126 2.223 . S
Cd127 O130 2.297 . S
Cd127 O131 2.439 . S
Cd127 O137 2.240 . S
Cd128 O129 2.240 . S
Cd128 O136 2.223 . S
Cd128 O138 2.297 . S
Cd128 O139 2.439 . S
O129 Cd128 2.240 . S
O129 C134 1.279 . S
O130 Cd127 2.297 . S
O130 C132 1.247 . S
O131 Cd127 2.439 . S
O131 C132 1.208 . S
C132 O130 1.247 . S
C132 O131 1.208 . S
C133 O138 1.247 . S
C133 O139 1.208 . S
C134 O126 1.315 . S
C134 O129 1.279 . S
C135 O136 1.315 . S
C135 O137 1.279 . S
O136 Cd128 2.223 . S
O136 C135 1.315 . S
O137 Cd127 2.240 . S
O137 C135 1.279 . S
O138 Cd128 2.297 . S
O138 C133 1.247 . S
O139 Cd128 2.439 . S
O139 C133 1.208 . S
O140 Cd141 2.223 . S
O140 C148 1.315 . S
Cd141 O140 2.223 . S
Cd141 O144 2.297 . S
Cd141 O145 2.439 . S
Cd141 O151 2.240 . S
Cd142 O143 2.240 . S
Cd142 O150 2.223 . S
Cd142 O152 2.297 . S
Cd142 O153 2.439 . S
O143 Cd142 2.240 . S
O143 C148 1.279 . S
O144 Cd141 2.297 . S
O144 C146 1.247 . S
O145 Cd141 2.439 . S
O145 C146 1.208 . S
C146 O144 1.247 . S
C146 O145 1.208 . S
C147 O152 1.247 . S
C147 O153 1.208 . S
C148 O140 1.315 . S
C148 O143 1.279 . S
C149 O150 1.315 . S
C149 O151 1.279 . S
O150 Cd142 2.223 . S
O150 C149 1.315 . S
O151 Cd141 2.240 . S
O151 C149 1.279 . S
O152 Cd142 2.297 . S
O152 C147 1.247 . S
O153 Cd142 2.439 . S
O153 C147 1.208 . S
O154 Cd155 2.223 1_556 S
O154 C162 1.315 . S
Cd155 O154 2.223 1_554 S
Cd155 O158 2.297 1_554 S
Cd155 O159 2.439 . S
Cd155 O165 2.240 . S
Cd156 O157 2.240 1_554 S
Cd156 O164 2.223 1_554 S
Cd156 O166 2.297 . S
Cd156 O167 2.439 . S
O157 Cd156 2.240 1_556 S
O157 C162 1.279 . S
O158 Cd155 2.297 1_556 S
O158 C160 1.247 1_556 S
O159 Cd155 2.439 . S
O159 C160 1.208 . S
C160 O158 1.247 1_554 S
C160 O159 1.208 . S
C161 O166 1.247 . S
C161 O167 1.208 . S
C162 O154 1.315 . S
C162 O157 1.279 . S
C163 O164 1.315 1_554 S
C163 O165 1.279 . S
O164 Cd156 2.223 1_556 S
O164 C163 1.315 1_556 S
O165 Cd155 2.240 . S
O165 C163 1.279 . S
O166 Cd156 2.297 . S
O166 C161 1.247 . S
O167 Cd156 2.439 . S
O167 C161 1.208 . S
C168 C169 1.369 . S
C168 C170 1.419 . S
C168 H172 0.930 . S
C169 C168 1.369 . S
C169 C178 1.429 . S
C170 C168 1.419 . S
C170 C171 1.363 . S
C170 H173 0.929 . S
C171 C170 1.363 . S
C171 C177 1.428 . S
H172 C168 0.930 . S
H173 C170 0.929 . S
S174 N175 1.613 . S
S174 N176 1.610 . S
N175 S174 1.613 . S
N175 C178 1.350 . S
N176 S174 1.610 . S
N176 C177 1.351 . S
C177 C171 1.428 . S
C177 N176 1.351 . S
C177 C178 1.434 . S
C178 C169 1.429 . S
C178 N175 1.350 . S
C178 C177 1.434 . S
C179 C180 1.369 . S
C179 C181 1.419 . S
C179 H183 0.930 . S
C180 C179 1.369 . S
C180 C189 1.429 . S
C181 C179 1.419 . S
C181 C182 1.363 . S
C181 H184 0.929 . S
C182 C181 1.363 . S
C182 C188 1.428 . S
H183 C179 0.930 . S
H184 C181 0.929 . S
S185 N186 1.613 . S
S185 N187 1.610 . S
N186 S185 1.613 . S
N186 C189 1.350 . S
N187 S185 1.610 . S
N187 C188 1.351 . S
C188 C182 1.428 . S
C188 N187 1.351 . S
C188 C189 1.434 . S
C189 C180 1.429 . S
C189 N186 1.350 . S
C189 C188 1.434 . S
C190 C191 1.369 . S
C190 C192 1.419 . S
C190 H194 0.930 . S
C191 C190 1.369 . S
C191 C200 1.429 . S
C192 C190 1.419 . S
C192 C193 1.363 . S
C192 H195 0.929 . S
C193 C192 1.363 . S
C193 C199 1.428 . S
H194 C190 0.930 . S
H195 C192 0.929 . S
S196 N197 1.613 . S
S196 N198 1.610 . S
N197 S196 1.613 . S
N197 C200 1.350 . S
N198 S196 1.610 . S
N198 C199 1.351 . S
C199 C193 1.428 . S
C199 N198 1.351 . S
C199 C200 1.434 . S
C200 C191 1.429 . S
C200 N197 1.350 . S
C200 C199 1.434 . S
C201 C202 1.369 . S
C201 C203 1.419 . S
C201 H205 0.930 . S
C202 C201 1.369 . S
C202 C211 1.429 . S
C203 C201 1.419 . S
C203 C204 1.363 . S
C203 H206 0.929 . S
C204 C203 1.363 . S
C204 C210 1.428 . S
H205 C201 0.930 . S
H206 C203 0.929 . S
S207 N208 1.613 . S
S207 N209 1.610 . S
N208 S207 1.613 . S
N208 C211 1.350 . S
N209 S207 1.610 . S
N209 C210 1.351 . S
C210 C204 1.428 . S
C210 N209 1.351 . S
C210 C211 1.434 . S
C211 C202 1.429 . S
C211 N208 1.350 . S
C211 C210 1.434 . S
C212 C213 1.369 . S
C212 C214 1.419 . S
C212 H216 0.930 . S
C213 C212 1.369 . S
C213 C222 1.429 . S
C214 C212 1.419 . S
C214 C215 1.363 . S
C214 H217 0.929 . S
C215 C214 1.363 . S
C215 C221 1.428 . S
H216 C212 0.930 . S
H217 C214 0.929 . S
S218 N219 1.613 . S
S218 N220 1.610 . S
N219 S218 1.613 . S
N219 C222 1.350 . S
N220 S218 1.610 . S
N220 C221 1.351 . S
C221 C215 1.428 . S
C221 N220 1.351 . S
C221 C222 1.434 . S
C222 C213 1.429 . S
C222 N219 1.350 . S
C222 C221 1.434 . S
C223 C224 1.369 . S
C223 C225 1.419 . S
C223 H227 0.930 . S
C224 C223 1.369 . S
C224 C233 1.429 . S
C225 C223 1.419 . S
C225 C226 1.363 . S
C225 H228 0.929 . S
C226 C225 1.363 . S
C226 C232 1.428 . S
H227 C223 0.930 . S
H228 C225 0.929 . S
S229 N230 1.613 . S
S229 N231 1.610 . S
N230 S229 1.613 . S
N230 C233 1.350 . S
N231 S229 1.610 . S
N231 C232 1.351 . S
C232 C226 1.428 . S
C232 N231 1.351 . S
C232 C233 1.434 . S
C233 C224 1.429 . S
C233 N230 1.350 . S
C233 C232 1.434 . S
C234 C235 1.369 . S
C234 C236 1.419 . S
C234 H238 0.930 . S
C235 C234 1.369 . S
C235 C244 1.429 . S
C236 C234 1.419 . S
C236 C237 1.363 . S
C236 H239 0.929 . S
C237 C236 1.363 . S
C237 C243 1.428 . S
H238 C234 0.930 . S
H239 C236 0.929 . S
S240 N241 1.613 . S
S240 N242 1.610 . S
N241 S240 1.613 . S
N241 C244 1.350 . S
N242 S240 1.610 . S
N242 C243 1.351 . S
C243 C237 1.428 . S
C243 N242 1.351 . S
C243 C244 1.434 . S
C244 C235 1.429 . S
C244 N241 1.350 . S
C244 C243 1.434 . S
C245 C246 1.369 . S
C245 C247 1.419 . S
C245 H249 0.930 . S
C246 C245 1.369 . S
C246 C255 1.429 . S
C247 C245 1.419 . S
C247 C248 1.363 . S
C247 H250 0.929 . S
C248 C247 1.363 . S
C248 C254 1.428 . S
H249 C245 0.930 . S
H250 C247 0.929 . S
S251 N252 1.613 . S
S251 N253 1.610 . S
N252 S251 1.613 . S
N252 C255 1.350 . S
N253 S251 1.610 . S
N253 C254 1.351 . S
C254 C248 1.428 . S
C254 N253 1.351 . S
C254 C255 1.434 . S
C255 C246 1.429 . S
C255 N252 1.350 . S
C255 C254 1.434 . S
C256 C257 1.369 . S
C256 C258 1.419 . S
C256 H260 0.930 . S
C257 C256 1.369 . S
C257 C266 1.429 1_554 S
C258 C256 1.419 . S
C258 C259 1.363 . S
C258 H261 0.929 . S
C259 C258 1.363 . S
C259 C265 1.428 1_554 S
H260 C256 0.930 . S
H261 C258 0.929 . S
S262 N263 1.613 . S
S262 N264 1.610 . S
N263 S262 1.613 . S
N263 C266 1.350 . S
N264 S262 1.610 . S
N264 C265 1.351 . S
C265 C259 1.428 1_556 S
C265 N264 1.351 . S
C265 C266 1.434 . S
C266 C257 1.429 1_556 S
C266 N263 1.350 . S
C266 C265 1.434 . S
C267 C268 1.369 . S
C267 C269 1.419 . S
C267 H271 0.930 . S
C268 C267 1.369 . S
C268 C277 1.429 . S
C269 C267 1.419 . S
C269 C270 1.363 . S
C269 H272 0.929 . S
C270 C269 1.363 . S
C270 C276 1.428 . S
H271 C267 0.930 . S
H272 C269 0.929 . S
S273 N274 1.613 . S
S273 N275 1.610 . S
N274 S273 1.613 . S
N274 C277 1.350 . S
N275 S273 1.610 . S
N275 C276 1.351 . S
C276 C270 1.428 . S
C276 N275 1.351 . S
C276 C277 1.434 . S
C277 C268 1.429 . S
C277 N274 1.350 . S
C277 C276 1.434 . S
C278 C279 1.369 . S
C278 C280 1.419 . S
C278 H282 0.930 . S
C279 C278 1.369 . S
C279 C288 1.429 . S
C280 C278 1.419 . S
C280 C281 1.363 . S
C280 H283 0.929 . S
C281 C280 1.363 . S
C281 C287 1.428 . S
H282 C278 0.930 . S
H283 C280 0.929 . S
S284 N285 1.613 . S
S284 N286 1.610 . S
N285 S284 1.613 . S
N285 C288 1.350 . S
N286 S284 1.610 . S
N286 C287 1.351 . S
C287 C281 1.428 . S
C287 N286 1.351 . S
C287 C288 1.434 . S
C288 C279 1.429 . S
C288 N285 1.350 . S
C288 C287 1.434 . S
C289 C290 1.369 1_556 S
C289 C291 1.419 . S
C289 H293 0.930 . S
C290 C289 1.369 1_554 S
C290 C299 1.429 . S
C291 C289 1.419 . S
C291 C292 1.363 1_556 S
C291 H294 0.929 . S
C292 C291 1.363 1_554 S
C292 C298 1.428 . S
H293 C289 0.930 . S
H294 C291 0.929 . S
S295 N296 1.613 . S
S295 N297 1.610 . S
N296 S295 1.613 . S
N296 C299 1.350 . S
N297 S295 1.610 . S
N297 C298 1.351 . S
C298 C292 1.428 . S
C298 N297 1.351 . S
C298 C299 1.434 . S
C299 C290 1.429 . S
C299 N296 1.350 . S
C299 C298 1.434 . S
C300 C301 1.369 . S
C300 C302 1.419 1_545 S
C300 H304 0.930 . S
C301 C300 1.369 . S
C301 C310 1.429 . S
C302 C300 1.419 1_565 S
C302 C303 1.363 . S
C302 H305 0.929 . S
C303 C302 1.363 . S
C303 C309 1.428 . S
H304 C300 0.930 . S
H305 C302 0.929 . S
S306 N307 1.613 1_565 S
S306 N308 1.610 . S
N307 S306 1.613 1_545 S
N307 C310 1.350 . S
N308 S306 1.610 . S
N308 C309 1.351 . S
C309 C303 1.428 . S
C309 N308 1.351 . S
C309 C310 1.434 1_565 S
C310 C301 1.429 . S
C310 N307 1.350 . S
C310 C309 1.434 1_545 S
C311 C312 1.369 . S
C311 C313 1.419 . S
C311 H315 0.930 . S
C312 C311 1.369 . S
C312 C321 1.429 . S
C313 C311 1.419 . S
C313 C314 1.363 . S
C313 H316 0.929 . S
C314 C313 1.363 . S
C314 C320 1.428 . S
H315 C311 0.930 . S
H316 C313 0.929 . S
S317 N318 1.613 . S
S317 N319 1.610 . S
N318 S317 1.613 . S
N318 C321 1.350 . S
N319 S317 1.610 . S
N319 C320 1.351 . S
C320 C314 1.428 . S
C320 N319 1.351 . S
C320 C321 1.434 . S
C321 C312 1.429 . S
C321 N318 1.350 . S
C321 C320 1.434 . S
C322 C323 1.369 . S
C322 C324 1.419 1_655 S
C322 H326 0.930 . S
C323 C322 1.369 . S
C323 C332 1.429 . S
C324 C322 1.419 1_455 S
C324 C325 1.363 . S
C324 H327 0.929 . S
C325 C324 1.363 . S
C325 C331 1.428 . S
H326 C322 0.930 . S
H327 C324 0.929 . S
S328 N329 1.613 . S
S328 N330 1.610 1_655 S
N329 S328 1.613 . S
N329 C332 1.350 . S
N330 S328 1.610 1_455 S
N330 C331 1.351 . S
C331 C325 1.428 . S
C331 N330 1.351 . S
C331 C332 1.434 1_455 S
C332 C323 1.429 . S
C332 N329 1.350 . S
C332 C331 1.434 1_655 S
C333 C334 1.369 . S
C333 C335 1.419 1_455 S
C333 H337 0.930 . S
C334 C333 1.369 . S
C334 C343 1.429 . S
C335 C333 1.419 1_655 S
C335 C336 1.363 . S
C335 H338 0.929 . S
C336 C335 1.363 . S
C336 C342 1.428 . S
H337 C333 0.930 . S
H338 C335 0.929 . S
S339 N340 1.613 . S
S339 N341 1.610 1_455 S
N340 S339 1.613 . S
N340 C343 1.350 . S
N341 S339 1.610 1_655 S
N341 C342 1.351 . S
C342 C336 1.428 . S
C342 N341 1.351 . S
C342 C343 1.434 1_655 S
C343 C334 1.429 . S
C343 N340 1.350 . S
C343 C342 1.434 1_455 S
C344 C345 1.369 . S
C344 C346 1.419 1_545 S
C344 H348 0.930 . S
C345 C344 1.369 . S
C345 C354 1.429 . S
C346 C344 1.419 1_565 S
C346 C347 1.363 . S
C346 H349 0.929 . S
C347 C346 1.363 . S
C347 C353 1.428 . S
H348 C344 0.930 . S
H349 C346 0.929 . S
S350 N351 1.613 1_565 S
S350 N352 1.610 . S
N351 S350 1.613 1_545 S
N351 C354 1.350 . S
N352 S350 1.610 . S
N352 C353 1.351 . S
C353 C347 1.428 . S
C353 N352 1.351 . S
C353 C354 1.434 1_565 S
C354 C345 1.429 . S
C354 N351 1.350 . S
C354 C353 1.434 1_545 S
C355 C356 1.369 . S
C355 C357 1.419 . S
C355 H359 0.930 . S
C356 C355 1.369 . S
C356 C365 1.429 1_554 S
C357 C355 1.419 . S
C357 C358 1.363 . S
C357 H360 0.929 . S
C358 C357 1.363 . S
C358 C364 1.428 1_554 S
H359 C355 0.930 . S
H360 C357 0.929 . S
S361 N362 1.613 . S
S361 N363 1.610 . S
N362 S361 1.613 . S
N362 C365 1.350 . S
N363 S361 1.610 . S
N363 C364 1.351 . S
C364 C358 1.428 1_556 S
C364 N363 1.351 . S
C364 C365 1.434 . S
C365 C356 1.429 1_556 S
C365 N362 1.350 . S
C365 C364 1.434 . S
C366 C367 1.369 . S
C366 C368 1.419 . S
C366 H370 0.930 . S
C367 C366 1.369 . S
C367 C376 1.429 . S
C368 C366 1.419 . S
C368 C369 1.363 . S
C368 H371 0.929 . S
C369 C368 1.363 . S
C369 C375 1.428 . S
H370 C366 0.930 . S
H371 C368 0.929 . S
S372 N373 1.613 . S
S372 N374 1.610 . S
N373 S372 1.613 . S
N373 C376 1.350 . S
N374 S372 1.610 . S
N374 C375 1.351 . S
C375 C369 1.428 . S
C375 N374 1.351 . S
C375 C376 1.434 . S
C376 C367 1.429 . S
C376 N373 1.350 . S
C376 C375 1.434 . S
C377 C378 1.369 . S
C377 C379 1.419 . S
C377 H381 0.930 . S
C378 C377 1.369 . S
C378 C387 1.429 . S
C379 C377 1.419 . S
C379 C380 1.363 . S
C379 H382 0.929 . S
C380 C379 1.363 . S
C380 C386 1.428 . S
H381 C377 0.930 . S
H382 C379 0.929 . S
S383 N384 1.613 . S
S383 N385 1.610 . S
N384 S383 1.613 . S
N384 C387 1.350 . S
N385 S383 1.610 . S
N385 C386 1.351 . S
C386 C380 1.428 . S
C386 N385 1.351 . S
C386 C387 1.434 . S
C387 C378 1.429 . S
C387 N384 1.350 . S
C387 C386 1.434 . S
C388 C389 1.369 . S
C388 C390 1.419 . S
C388 H392 0.930 . S
C389 C388 1.369 . S
C389 C398 1.429 . S
C390 C388 1.419 . S
C390 C391 1.363 . S
C390 H393 0.929 . S
C391 C390 1.363 . S
C391 C397 1.428 . S
H392 C388 0.930 . S
H393 C390 0.929 . S
S394 N395 1.613 . S
S394 N396 1.610 . S
N395 S394 1.613 . S
N395 C398 1.350 . S
N396 S394 1.610 . S
N396 C397 1.351 . S
C397 C391 1.428 . S
C397 N396 1.351 . S
C397 C398 1.434 . S
C398 C389 1.429 . S
C398 N395 1.350 . S
C398 C397 1.434 . S
C399 C400 1.369 . S
C399 C401 1.419 . S
C399 H403 0.930 . S
C400 C399 1.369 . S
C400 C409 1.429 . S
C401 C399 1.419 . S
C401 C402 1.363 . S
C401 H404 0.929 . S
C402 C401 1.363 . S
C402 C408 1.428 . S
H403 C399 0.930 . S
H404 C401 0.929 . S
S405 N406 1.613 . S
S405 N407 1.610 . S
N406 S405 1.613 . S
N406 C409 1.350 . S
N407 S405 1.610 . S
N407 C408 1.351 . S
C408 C402 1.428 . S
C408 N407 1.351 . S
C408 C409 1.434 . S
C409 C400 1.429 . S
C409 N406 1.350 . S
C409 C408 1.434 . S
C410 C411 1.369 . S
C410 C412 1.419 . S
C410 H414 0.930 . S
C411 C410 1.369 . S
C411 C420 1.429 . S
C412 C410 1.419 . S
C412 C413 1.363 . S
C412 H415 0.929 . S
C413 C412 1.363 . S
C413 C419 1.428 . S
H414 C410 0.930 . S
H415 C412 0.929 . S
S416 N417 1.613 . S
S416 N418 1.610 . S
N417 S416 1.613 . S
N417 C420 1.350 . S
N418 S416 1.610 . S
N418 C419 1.351 . S
C419 C413 1.428 . S
C419 N418 1.351 . S
C419 C420 1.434 . S
C420 C411 1.429 . S
C420 N417 1.350 . S
C420 C419 1.434 . S
C421 C422 1.369 . S
C421 C423 1.419 . S
C421 H425 0.930 . S
C422 C421 1.369 . S
C422 C431 1.429 . S
C423 C421 1.419 . S
C423 C424 1.363 . S
C423 H426 0.929 . S
C424 C423 1.363 . S
C424 C430 1.428 . S
H425 C421 0.930 . S
H426 C423 0.929 . S
S427 N428 1.613 . S
S427 N429 1.610 . S
N428 S427 1.613 . S
N428 C431 1.350 . S
N429 S427 1.610 . S
N429 C430 1.351 . S
C430 C424 1.428 . S
C430 N429 1.351 . S
C430 C431 1.434 . S
C431 C422 1.429 . S
C431 N428 1.350 . S
C431 C430 1.434 . S
C169 C8 1.627 . S
C171 C148 1.616 . S
C180 C22 1.627 . S
C182 C162 1.616 . S
C191 C92 1.618 . S
C193 C36 1.625 . S
C202 C50 1.622 . S
C204 C106 1.622 . S
C213 C120 1.622 . S
C215 C64 1.618 . S
C224 C134 1.614 . S
C226 C78 1.625 . S
C235 C93 1.001 . S
C237 C9 1.002 . S
C246 C107 1.012 . S
C248 C23 1.010 . S
C257 C121 1.005 . S
C259 C37 1.003 . S
C268 C51 1.002 . S
C270 C135 1.005 . S
C279 C65 1.012 . S
C281 C149 1.010 . S
C290 C79 1.002 . S
C292 C163 1.002 . S
C301 C6 1.415 . S
C303 C48 1.408 . S
C312 C20 1.415 . S
C314 C62 1.407 . S
C323 C34 1.407 . S
C325 C76 1.414 . S
C334 C132 1.407 . S
C336 C90 1.411 . S
C345 C146 1.414 . S
C347 C104 1.410 . S
C356 C160 1.411 . S
C358 C118 1.407 . S
C367 C7 1.406 . S
C369 C119 1.402 . S
C378 C133 1.405 . S
C380 C21 1.400 . S
C389 C35 1.399 . S
C391 C147 1.404 . S
C400 C161 1.400 . S
C402 C49 1.400 . S
C411 C63 1.403 . S
C413 C91 1.400 . S
C422 C77 1.405 . S
C424 C105 1.401 . S
