# Generated by pormake.
# Topology ske, (6)-cn, num edge types: 1
# Building blocks:
#     Node 0, Type 0, BuildingBlock: KUMBUR_clean_sbu_1, # of connection points: 6
#     Node 1, Type 0, BuildingBlock: KUMBUR_clean_sbu_1, # of connection points: 6
#     Node 2, Type 0, BuildingBlock: KUMBUR_clean_sbu_1, # of connection points: 6
#     Node 3, Type 0, BuildingBlock: KUMBUR_clean_sbu_1, # of connection points: 6
#     Node 4, Type 0, BuildingBlock: KUMBUR_clean_sbu_1, # of connection points: 6
#     Node 5, Type 0, BuildingBlock: KUMBUR_clean_sbu_1, # of connection points: 6
#     Node 6, Type 0, BuildingBlock: KUMBUR_clean_sbu_1, # of connection points: 6
#     Node 7, Type 0, BuildingBlock: KUMBUR_clean_sbu_1, # of connection points: 6
#     Edge 8, Type (0, 0), BuildingBlock: XIVTED_clean_linker_0, # of connection points: 2
#     Edge 9, Type (0, 0), BuildingBlock: XIVTED_clean_linker_0, # of connection points: 2
#     Edge 10, Type (0, 0), BuildingBlock: XIVTED_clean_linker_0, # of connection points: 2
#     Edge 11, Type (0, 0), BuildingBlock: XIVTED_clean_linker_0, # of connection points: 2
#     Edge 12, Type (0, 0), BuildingBlock: XIVTED_clean_linker_0, # of connection points: 2
#     Edge 13, Type (0, 0), BuildingBlock: XIVTED_clean_linker_0, # of connection points: 2
#     Edge 14, Type (0, 0), BuildingBlock: XIVTED_clean_linker_0, # of connection points: 2
#     Edge 15, Type (0, 0), BuildingBlock: XIVTED_clean_linker_0, # of connection points: 2
#     Edge 16, Type (0, 0), BuildingBlock: XIVTED_clean_linker_0, # of connection points: 2
#     Edge 17, Type (0, 0), BuildingBlock: XIVTED_clean_linker_0, # of connection points: 2
#     Edge 18, Type (0, 0), BuildingBlock: XIVTED_clean_linker_0, # of connection points: 2
#     Edge 19, Type (0, 0), BuildingBlock: XIVTED_clean_linker_0, # of connection points: 2
#     Edge 20, Type (0, 0), BuildingBlock: XIVTED_clean_linker_0, # of connection points: 2
#     Edge 21, Type (0, 0), BuildingBlock: XIVTED_clean_linker_0, # of connection points: 2
#     Edge 22, Type (0, 0), BuildingBlock: XIVTED_clean_linker_0, # of connection points: 2
#     Edge 23, Type (0, 0), BuildingBlock: XIVTED_clean_linker_0, # of connection points: 2
#     Edge 24, Type (0, 0), BuildingBlock: XIVTED_clean_linker_0, # of connection points: 2
#     Edge 25, Type (0, 0), BuildingBlock: XIVTED_clean_linker_0, # of connection points: 2
#     Edge 26, Type (0, 0), BuildingBlock: XIVTED_clean_linker_0, # of connection points: 2
#     Edge 27, Type (0, 0), BuildingBlock: XIVTED_clean_linker_0, # of connection points: 2
#     Edge 28, Type (0, 0), BuildingBlock: XIVTED_clean_linker_0, # of connection points: 2
#     Edge 29, Type (0, 0), BuildingBlock: XIVTED_clean_linker_0, # of connection points: 2
#     Edge 30, Type (0, 0), BuildingBlock: XIVTED_clean_linker_0, # of connection points: 2
#     Edge 31, Type (0, 0), BuildingBlock: XIVTED_clean_linker_0, # of connection points: 2
# Relax obj value: 0.217
# Max RMSD: 0.232
# Mean RMSD: 0.230
data_MOF--net-ske--node1-KUMBUR_clean_sbu_1--edge1-XIVTED_clean_linker_0
_symmetry_space_group_name_H-M    P1
_symmetry_Int_Tables_number       1
_symmetry_cell_setting            triclinic
loop_
_symmetry_equiv_pos_as_xyz
'x, y, z'
_cell_length_a     98.691223
_cell_length_b     29.863747
_cell_length_c     15.114728
_cell_angle_alpha  97.9387
_cell_angle_beta   89.986143
_cell_angle_gamma 90.01824
loop_
_atom_site_label
_atom_site_type_symbol
_atom_site_fract_x
_atom_site_fract_y
_atom_site_fract_z
_atom_type_partial_charge
Tb0 Tb 0.15437 0.26294 0.56685 0.0
C1 C 0.10351 0.22705 0.75176 0.0
N2 N 0.10732 0.20962 0.66743 0.0
C3 C 0.10206 0.13491 0.6993 0.0
C4 C 0.0996 0.19879 0.81473 0.0
C5 C 0.10565 0.16444 0.63898 0.0
C6 C 0.09931 0.15205 0.78812 0.0
C7 C 0.09848 0.29327 0.85896 0.0
C8 C 0.10288 0.2736 0.77375 0.0
C9 C 0.09513 0.26526 0.92311 0.0
C10 C 0.09572 0.21812 0.90111 0.0
Tb11 Tb 0.11373 0.26208 0.57755 0.0
N12 N 0.10679 0.29968 0.71138 0.0
C13 C 0.09761 0.34046 0.87687 0.0
C14 C 0.10529 0.34558 0.72656 0.0
C15 C 0.10086 0.36669 0.80998 0.0
H16 H 0.10677 0.15087 0.56944 0.0
H17 H 0.09997 0.40313 0.82269 0.0
H18 H 0.15992 0.35784 0.4821 0.0
H19 H 0.17134 0.09164 0.4568 0.0
H20 H 0.10776 0.36582 0.67476 0.0
H21 H 0.09428 0.35692 0.94159 0.0
H22 H 0.16345 0.1547 0.56696 0.0
H23 H 0.10115 0.09902 0.67677 0.0
H24 H 0.0919 0.27969 0.98948 0.0
H25 H 0.09284 0.19693 0.95071 0.0
H26 H 0.16848 0.3802 0.34072 0.0
H27 H 0.09638 0.12914 0.83446 0.0
H28 H 0.17696 0.10478 0.30292 0.0
N29 N 0.1623 0.2874 0.43941 0.0
C30 C 0.1669 0.25497 0.37455 0.0
C31 C 0.16803 0.34483 0.34922 0.0
C32 C 0.17168 0.26601 0.29245 0.0
C33 C 0.16326 0.33214 0.4293 0.0
C34 C 0.17209 0.31159 0.27998 0.0
N35 N 0.16296 0.20226 0.47386 0.0
C36 C 0.16521 0.16059 0.49897 0.0
C37 C 0.17204 0.17607 0.32752 0.0
C38 C 0.16699 0.21075 0.39183 0.0
C39 C 0.17314 0.1324 0.35041 0.0
C40 C 0.16996 0.12484 0.43712 0.0
H41 H 0.17571 0.3215 0.21785 0.0
H42 H 0.17969 0.23903 0.16243 0.0
H43 H 0.18006 0.16018 0.19326 0.0
O44 O 0.17469 0.24839 0.59629 0.0
O45 O 0.14229 0.27871 0.45087 0.0
O46 O 0.12261 0.23711 0.44504 0.0
O47 O 0.16542 0.30995 0.65579 0.0
O48 O 0.14383 0.20198 0.59835 0.0
O49 O 0.12372 0.19864 0.52012 0.0
O50 O 0.10025 0.30202 0.51371 0.0
O51 O 0.12674 0.28766 0.69407 0.0
O52 O 0.14502 0.24107 0.68646 0.0
O53 O 0.09347 0.24079 0.55779 0.0
O54 O 0.12282 0.32453 0.5426 0.0
O55 O 0.14438 0.32898 0.607 0.0
C56 C 0.13262 0.2557 0.40478 0.0
C57 C 0.1893 0.31094 0.63266 0.0
C58 C 0.21391 0.31877 0.6529 0.0
C59 C 0.21366 0.35592 0.60506 0.0
C60 C 0.18932 0.34906 0.5878 0.0
C61 C 0.20144 0.37098 0.5732 0.0
C62 C 0.20163 0.29618 0.66588 0.0
C63 C 0.13421 0.17882 0.5522 0.0
C64 C 0.17658 0.28659 0.64684 0.0
C65 C 0.17611 0.23135 0.22642 0.0
C66 C 0.17628 0.18644 0.2439 0.0
C67 C 0.13533 0.2632 0.73362 0.0
C68 C 0.08202 0.26327 0.43496 0.0
C69 C 0.05973 0.25398 0.36333 0.0
C70 C 0.06627 0.24118 0.28081 0.0
C71 C 0.08828 0.25045 0.35209 0.0
C72 C 0.06778 0.26492 0.4404 0.0
C73 C 0.08041 0.23952 0.27545 0.0
C74 C 0.13372 0.34745 0.57295 0.0
C75 C 0.09012 0.27447 0.51681 0.0
H76 H 0.22286 0.37426 0.59468 0.0
H77 H 0.17999 0.36235 0.56504 0.0
H78 H 0.20134 0.40024 0.53817 0.0
H79 H 0.20167 0.26719 0.70185 0.0
H80 H 0.06046 0.23172 0.22033 0.0
H81 H 0.09921 0.2488 0.3467 0.0
H82 H 0.06301 0.27522 0.50459 0.0
H83 H 0.08528 0.22948 0.21161 0.0
Tb84 Tb 0.90191 0.25398 0.51661 0.0
C85 C 0.85004 0.30282 0.35042 0.0
N86 N 0.8545 0.3184 0.43418 0.0
C87 C 0.84953 0.39445 0.40979 0.0
C88 C 0.84594 0.33272 0.29111 0.0
C89 C 0.85329 0.36329 0.46644 0.0
C90 C 0.84613 0.37919 0.32105 0.0
C91 C 0.84349 0.2388 0.24203 0.0
C92 C 0.84874 0.25659 0.3262 0.0
C93 C 0.84004 0.26835 0.18091 0.0
C94 C 0.84128 0.31522 0.20535 0.0
Tb95 Tb 0.86136 0.26379 0.5174 0.0
N96 N 0.85261 0.22898 0.38594 0.0
C97 C 0.84177 0.19192 0.22244 0.0
C98 C 0.85022 0.18351 0.36953 0.0
C99 C 0.84496 0.16424 0.28699 0.0
H100 H 0.85506 0.37528 0.53616 0.0
H101 H 0.84339 0.12808 0.27314 0.0
H102 H 0.90727 0.15571 0.58541 0.0
H103 H 0.92075 0.4214 0.64367 0.0
H104 H 0.85263 0.16213 0.41946 0.0
H105 H 0.83776 0.17687 0.15845 0.0
H106 H 0.91219 0.36236 0.52775 0.0
H107 H 0.84904 0.43014 0.43505 0.0
H108 H 0.83616 0.25536 0.11531 0.0
H109 H 0.83824 0.33767 0.15841 0.0
H110 H 0.91557 0.12769 0.7226 0.0
H111 H 0.84308 0.40334 0.27759 0.0
H112 H 0.92634 0.40286 0.79397 0.0
N113 N 0.90985 0.2249 0.63827 0.0
C114 C 0.91482 0.25504 0.7059 0.0
C115 C 0.91531 0.16363 0.719 0.0
C116 C 0.91958 0.24084 0.78529 0.0
C117 C 0.91062 0.17947 0.64163 0.0
C118 C 0.91961 0.19448 0.79173 0.0
N119 N 0.91124 0.3116 0.6142 0.0
C120 C 0.91388 0.35405 0.59416 0.0
C121 C 0.92071 0.33243 0.76149 0.0
C122 C 0.91528 0.30009 0.69407 0.0
C123 C 0.92221 0.37695 0.74399 0.0
C124 C 0.91903 0.38756 0.6593 0.0
H125 H 0.92319 0.18214 0.85165 0.0
H126 H 0.92793 0.26311 0.91663 0.0
H127 H 0.92897 0.3434 0.89569 0.0
O128 O 0.92279 0.2641 0.48662 0.0
O129 O 0.88983 0.23833 0.63274 0.0
O130 O 0.87218 0.28823 0.64287 0.0
O131 O 0.91161 0.205 0.42593 0.0
O132 O 0.89279 0.31711 0.48522 0.0
O133 O 0.87305 0.32496 0.56793 0.0
O134 O 0.84872 0.22864 0.59733 0.0
O135 O 0.87286 0.23669 0.39429 0.0
O136 O 0.89253 0.27723 0.39827 0.0
O137 O 0.84135 0.28622 0.54308 0.0
O138 O 0.86938 0.19794 0.54233 0.0
O139 O 0.89056 0.19143 0.47281 0.0
C140 C 0.88112 0.26449 0.6814 0.0
C141 C 0.93505 0.20872 0.37916 0.0
C142 C 0.95925 0.20964 0.34254 0.0
C143 C 0.95695 0.17514 0.27098 0.0
C144 C 0.93314 0.174 0.30738 0.0
C145 C 0.94402 0.15739 0.25394 0.0
C146 C 0.94823 0.22628 0.39725 0.0
C147 C 0.8833 0.34233 0.52826 0.0
C148 C 0.92308 0.22651 0.43202 0.0
C149 C 0.92436 0.2732 0.85454 0.0
C150 C 0.92492 0.31894 0.84268 0.0
C151 C 0.88212 0.25812 0.35328 0.0
C152 C 0.83259 0.27499 0.68221 0.0
C153 C 0.81281 0.28645 0.78113 0.0
C154 C 0.82085 0.3143 0.84331 0.0
C155 C 0.84031 0.30264 0.74571 0.0
C156 C 0.81884 0.26693 0.69999 0.0
C157 C 0.83447 0.32203 0.8258 0.0
C158 C 0.87974 0.17387 0.50634 0.0
C159 C 0.83866 0.25662 0.59561 0.0
H160 H 0.96524 0.16153 0.22849 0.0
H161 H 0.92318 0.15987 0.29172 0.0
H162 H 0.9424 0.13073 0.19874 0.0
H163 H 0.94988 0.25305 0.4523 0.0
H164 H 0.81659 0.33084 0.90534 0.0
H165 H 0.8508 0.30983 0.73289 0.0
H166 H 0.81292 0.24537 0.65092 0.0
H167 H 0.84049 0.34358 0.87419 0.0
Tb168 Tb 0.15485 0.75828 0.4692 0.0
C169 C 0.10361 0.77895 0.27812 0.0
N170 N 0.10841 0.80118 0.35685 0.0
C171 C 0.10417 0.87232 0.30475 0.0
C172 C 0.09956 0.80271 0.20813 0.0
C173 C 0.10784 0.84733 0.3727 0.0
C174 C 0.10023 0.84993 0.22159 0.0
C175 C 0.09753 0.70791 0.18787 0.0
C176 C 0.10258 0.73203 0.26779 0.0
C177 C 0.09366 0.73152 0.1178 0.0
C178 C 0.09474 0.77875 0.12773 0.0
Tb179 Tb 0.11377 0.7549 0.46084 0.0
N180 N 0.10713 0.70992 0.33486 0.0
C181 C 0.09683 0.66067 0.18015 0.0
C182 C 0.1062 0.66398 0.32878 0.0
C183 C 0.10114 0.63866 0.25104 0.0
H184 H 0.10958 0.86535 0.43831 0.0
H185 H 0.10053 0.60221 0.24588 0.0
H186 H 0.16043 0.66628 0.56312 0.0
H187 H 0.1744 0.92858 0.54227 0.0
H188 H 0.10934 0.64696 0.38395 0.0
H189 H 0.09302 0.6409 0.11977 0.0
H190 H 0.16313 0.86478 0.44992 0.0
H191 H 0.10404 0.90889 0.31738 0.0
H192 H 0.08988 0.71357 0.05548 0.0
H193 H 0.09166 0.79648 0.07313 0.0
H194 H 0.17168 0.64672 0.69877 0.0
H195 H 0.09725 0.86943 0.16945 0.0
H196 H 0.18459 0.91779 0.68742 0.0
N197 N 0.16481 0.73645 0.59267 0.0
C198 C 0.17157 0.76918 0.64658 0.0
C199 C 0.17162 0.68138 0.68528 0.0
C200 C 0.17817 0.75966 0.72446 0.0
C201 C 0.16519 0.69255 0.60879 0.0
C202 C 0.178 0.71517 0.74395 0.0
N203 N 0.1657 0.81941 0.54566 0.0
C204 C 0.167 0.86013 0.51486 0.0
C205 C 0.17875 0.84734 0.67665 0.0
C206 C 0.17181 0.81231 0.62302 0.0
C207 C 0.17937 0.88992 0.6481 0.0
C208 C 0.17361 0.89618 0.56631 0.0
H209 H 0.18296 0.70642 0.80317 0.0
H210 H 0.18986 0.78818 0.84006 0.0
H211 H 0.19039 0.865 0.79814 0.0
O212 O 0.17433 0.7713 0.42115 0.0
O213 O 0.14507 0.75478 0.59934 0.0
O214 O 0.1216 0.76765 0.59851 0.0
O215 O 0.16442 0.70798 0.37927 0.0
O216 O 0.14297 0.81711 0.44305 0.0
O217 O 0.12299 0.81932 0.52116 0.0
O218 O 0.09798 0.7164 0.50649 0.0
O219 O 0.1271 0.72981 0.34536 0.0
O220 O 0.14433 0.78054 0.35587 0.0
O221 O 0.09459 0.78494 0.48627 0.0
O222 O 0.12316 0.69648 0.50902 0.0
O223 O 0.14447 0.69217 0.4419 0.0
C224 C 0.13324 0.76237 0.63946 0.0
C225 C 0.18851 0.70735 0.39121 0.0
C226 C 0.21327 0.7027 0.37586 0.0
C227 C 0.21304 0.66317 0.41692 0.0
C228 C 0.18864 0.66767 0.43142 0.0
C229 C 0.20083 0.64594 0.44438 0.0
C230 C 0.20087 0.72463 0.36326 0.0
C231 C 0.13404 0.83924 0.49688 0.0
C232 C 0.17563 0.73095 0.37763 0.0
C233 C 0.18479 0.79469 0.77955 0.0
C234 C 0.18507 0.83845 0.75574 0.0
C235 C 0.13567 0.75482 0.30667 0.0
C236 C 0.08082 0.75655 0.59319 0.0
C237 C 0.05828 0.76019 0.6623 0.0
C238 C 0.06451 0.77027 0.74656 0.0
C239 C 0.08674 0.76678 0.67777 0.0
C240 C 0.0666 0.75343 0.58562 0.0
C241 C 0.07861 0.7735 0.754 0.0
C242 C 0.13451 0.67485 0.48491 0.0
C243 C 0.08925 0.74921 0.51206 0.0
H244 H 0.2223 0.64495 0.42641 0.0
H245 H 0.17932 0.65321 0.45239 0.0
H246 H 0.20081 0.61533 0.4753 0.0
H247 H 0.20081 0.75535 0.33257 0.0
H248 H 0.05848 0.77639 0.80689 0.0
H249 H 0.09763 0.76967 0.6848 0.0
H250 H 0.06207 0.74519 0.52007 0.0
H251 H 0.08325 0.78146 0.81918 0.0
Tb252 Tb 0.90112 0.75554 0.45343 0.0
C253 C 0.84401 0.76239 0.64004 0.0
N254 N 0.85063 0.73019 0.58406 0.0
C255 C 0.84419 0.67393 0.67499 0.0
C256 C 0.83771 0.75199 0.71829 0.0
C257 C 0.85031 0.68595 0.59816 0.0
C258 C 0.83801 0.70718 0.73593 0.0
C259 C 0.83649 0.84009 0.67302 0.0
C260 C 0.84345 0.80575 0.61767 0.0
C261 C 0.83057 0.83041 0.75281 0.0
C262 C 0.83116 0.78643 0.77535 0.0
Tb263 Tb 0.86009 0.75341 0.46034 0.0
N264 N 0.84914 0.8136 0.5394 0.0
C265 C 0.83538 0.88274 0.64522 0.0
C266 C 0.84723 0.8542 0.50908 0.0
C267 C 0.84062 0.88962 0.56229 0.0
H268 H 0.855 0.66019 0.55093 0.0
H269 H 0.83939 0.92199 0.53872 0.0
H270 H 0.90518 0.86686 0.43913 0.0
H271 H 0.9159 0.60673 0.23239 0.0
H272 H 0.85065 0.8593 0.44332 0.0
H273 H 0.83014 0.91009 0.68586 0.0
H274 H 0.90662 0.649 0.37172 0.0
H275 H 0.84422 0.63904 0.68702 0.0
H276 H 0.82526 0.85643 0.79656 0.0
H277 H 0.82633 0.77925 0.83624 0.0
H278 H 0.91074 0.91298 0.32213 0.0
H279 H 0.83327 0.69777 0.79536 0.0
H280 H 0.92311 0.6479 0.10899 0.0
N281 N 0.90658 0.80394 0.35347 0.0
C282 C 0.91145 0.78322 0.27371 0.0
C283 C 0.9107 0.87648 0.30694 0.0
C284 C 0.91549 0.80847 0.20596 0.0
C285 C 0.90705 0.85002 0.37262 0.0
C286 C 0.91471 0.85563 0.22272 0.0
N287 N 0.90825 0.71293 0.32582 0.0
C288 C 0.90963 0.66706 0.31769 0.0
C289 C 0.918 0.71376 0.17998 0.0
C290 C 0.9127 0.7364 0.26052 0.0
C291 C 0.91909 0.66656 0.1699 0.0
C292 C 0.91496 0.64315 0.23926 0.0
H293 H 0.9177 0.87625 0.17237 0.0
H294 H 0.92355 0.80485 0.07168 0.0
H295 H 0.92576 0.722 0.04903 0.0
O296 O 0.91641 0.71724 0.50499 0.0
O297 O 0.88815 0.72957 0.3365 0.0
O298 O 0.87009 0.77715 0.34606 0.0
O299 O 0.92046 0.78449 0.47869 0.0
O300 O 0.89222 0.69587 0.49937 0.0
O301 O 0.87112 0.68892 0.42983 0.0
O302 O 0.84003 0.76324 0.41828 0.0
O303 O 0.8704 0.74656 0.58776 0.0
O304 O 0.89271 0.77335 0.58912 0.0
O305 O 0.85105 0.70339 0.3673 0.0
O306 O 0.87113 0.81386 0.43399 0.0
O307 O 0.89115 0.8187 0.5124 0.0
C308 C 0.87935 0.75366 0.29757 0.0
C309 C 0.93362 0.75778 0.59054 0.0
C310 C 0.95595 0.7615 0.66233 0.0
C311 C 0.94952 0.77304 0.74557 0.0
C312 C 0.92749 0.76954 0.67411 0.0
C313 C 0.93542 0.77703 0.75117 0.0
C314 C 0.94784 0.754 0.58478 0.0
C315 C 0.88128 0.67257 0.47235 0.0
C316 C 0.92539 0.74925 0.50864 0.0
C317 C 0.92048 0.78599 0.12464 0.0
C318 C 0.9218 0.7388 0.11186 0.0
C319 C 0.88164 0.76137 0.62946 0.0
C320 C 0.82725 0.69594 0.3871 0.0
C321 C 0.80254 0.68606 0.38759 0.0
C322 C 0.8044 0.64429 0.41907 0.0
C323 C 0.82873 0.6539 0.41783 0.0
C324 C 0.81409 0.71172 0.37134 0.0
C325 C 0.81738 0.62844 0.43385 0.0
C326 C 0.87996 0.83719 0.4867 0.0
C327 C 0.8393 0.72349 0.37151 0.0
H328 H 0.9554 0.77969 0.80645 0.0
H329 H 0.9166 0.77295 0.67968 0.0
H330 H 0.93063 0.78612 0.81558 0.0
H331 H 0.95254 0.7446 0.52005 0.0
H332 H 0.7958 0.6234 0.43102 0.0
H333 H 0.83867 0.6405 0.42936 0.0
H334 H 0.81285 0.74414 0.34774 0.0
H335 H 0.81865 0.5961 0.45754 0.0
Tb336 Tb 0.65605 0.75539 1.01186 0.0
C337 C 0.60339 0.74062 0.20244 0.0
N338 N 0.60832 0.71121 0.1335 0.0
C339 C 0.60365 0.64898 0.21341 0.0
C340 C 0.59905 0.72558 0.28204 0.0
C341 C 0.60793 0.66566 0.13592 0.0
C342 C 0.59939 0.67912 0.28733 0.0
C343 C 0.59731 0.81745 0.26117 0.0
C344 C 0.60264 0.78582 0.19204 0.0
C345 C 0.59351 0.80312 0.34243 0.0
C346 C 0.59437 0.75724 0.35284 0.0
Tb347 Tb 0.61563 0.74165 1.01174 0.0
N348 N 0.60634 0.79819 0.11218 0.0
C349 C 0.59553 0.86212 0.24536 0.0
C350 C 0.60338 0.84073 0.0939 0.0
C351 C 0.59831 0.87355 0.16072 0.0
H352 H 0.61125 0.64244 0.0788 0.0
H353 H 0.59635 0.90749 0.14642 0.0
H354 H 0.6619 0.86723 0.04135 0.0
H355 H 0.67536 0.62629 0.7588 0.0
H356 H 0.60472 0.84965 0.02763 0.0
H357 H 0.59147 0.88749 0.29668 0.0
H358 H 0.66576 0.65652 0.90663 0.0
H359 H 0.60368 0.61297 0.21619 0.0
H360 H 0.58955 0.82703 0.39672 0.0
H361 H 0.59114 0.7465 0.41511 0.0
H362 H 0.6677 0.92528 0.94656 0.0
H363 H 0.59614 0.66614 0.34737 0.0
H364 H 0.68047 0.67824 0.64882 0.0
N365 N 0.66278 0.81261 0.93462 0.0
C366 C 0.66721 0.79936 0.84991 0.0
C367 C 0.66738 0.89 0.91798 0.0
C368 C 0.67118 0.83113 0.79407 0.0
C369 C 0.66379 0.85701 0.97107 0.0
C370 C 0.6708 0.87709 0.82843 0.0
N371 N 0.66513 0.7243 0.8785 0.0
C372 C 0.668 0.67924 0.85876 0.0
C373 C 0.67415 0.73809 0.73666 0.0
C374 C 0.66874 0.75363 0.82155 0.0
C375 C 0.67632 0.69159 0.71345 0.0
C376 C 0.67343 0.66214 0.77536 0.0
H377 H 0.67374 0.90264 0.78773 0.0
H378 H 0.67884 0.83982 0.66302 0.0
H379 H 0.68141 0.75823 0.61262 0.0
O380 O 0.66871 0.71758 0.08611 0.0
O381 O 0.64484 0.7276 0.88815 0.0
O382 O 0.62461 0.76519 0.89226 0.0
O383 O 0.67585 0.77874 0.04407 0.0
O384 O 0.64845 0.68848 0.03456 0.0
O385 O 0.62729 0.67995 0.96543 0.0
O386 O 0.59466 0.75128 0.98448 0.0
O387 O 0.62819 0.72686 0.12644 0.0
O388 O 0.64525 0.77893 0.13771 0.0
O389 O 0.60575 0.69217 0.92296 0.0
O390 O 0.62405 0.80556 0.97891 0.0
O391 O 0.64372 0.81541 0.06183 0.0
C392 C 0.63525 0.74767 0.84736 0.0
C393 C 0.68496 0.75957 0.17775 0.0
C394 C 0.70488 0.76216 0.27543 0.0
C395 C 0.69698 0.78479 0.34543 0.0
C396 C 0.67737 0.78217 0.2486 0.0
C397 C 0.68336 0.79464 0.33193 0.0
C398 C 0.69873 0.74979 0.19121 0.0
C399 C 0.63834 0.66331 0.99803 0.0
C400 C 0.67867 0.74622 0.08956 0.0
C401 C 0.67591 0.81592 0.70737 0.0
C402 C 0.67742 0.76946 0.67875 0.0
C403 C 0.63648 0.75436 0.17576 0.0
C404 C 0.5821 0.69542 0.87996 0.0
C405 C 0.55785 0.697 0.84553 0.0
C406 C 0.55984 0.66139 0.77575 0.0
C407 C 0.58371 0.6595 0.81012 0.0
C408 C 0.56903 0.71391 0.89825 0.0
C409 C 0.57265 0.64267 0.75863 0.0
C410 C 0.63347 0.83178 0.02043 0.0
C411 C 0.59425 0.71351 0.93046 0.0
H412 H 0.70138 0.79543 0.4106 0.0
H413 H 0.66683 0.79027 0.23946 0.0
H414 H 0.67744 0.81213 0.38631 0.0
H415 H 0.70455 0.73196 0.13653 0.0
H416 H 0.5514 0.64777 0.73469 0.0
H417 H 0.59357 0.64461 0.79438 0.0
H418 H 0.5676 0.7416 0.95182 0.0
H419 H 0.57404 0.61513 0.70482 0.0
Tb420 Tb 0.40276 0.74895 0.07314 0.0
C421 C 0.3489 0.74803 0.87476 0.0
N422 N 0.35383 0.77927 0.94065 0.0
C423 C 0.34791 0.83876 0.85615 0.0
C424 C 0.34383 0.76076 0.79479 0.0
C425 C 0.35294 0.82438 0.93407 0.0
C426 C 0.34352 0.80678 0.78565 0.0
C427 C 0.34335 0.66985 0.82365 0.0
C428 C 0.34876 0.70334 0.88897 0.0
C429 C 0.33881 0.68189 0.74199 0.0
C430 C 0.33904 0.72729 0.72761 0.0
Tb431 Tb 0.36217 0.75234 0.06414 0.0
N432 N 0.35309 0.69325 0.96924 0.0
C433 C 0.34221 0.62565 0.84371 0.0
C434 C 0.3508 0.65109 0.99189 0.0
C435 C 0.34571 0.61645 0.92888 0.0
H436 H 0.35643 0.84914 0.98807 0.0
H437 H 0.34429 0.58285 0.94654 0.0
H438 H 0.40877 0.63718 0.06715 0.0
H439 H 0.41707 0.8898 0.31721 0.0
H440 H 0.35276 0.64398 0.05884 0.0
H441 H 0.33812 0.59889 0.79538 0.0
H442 H 0.40918 0.85256 0.1695 0.0
H443 H 0.3475 0.87445 0.85035 0.0
H444 H 0.33475 0.65656 0.69058 0.0
H445 H 0.33523 0.73627 0.66518 0.0
H446 H 0.4139 0.58548 0.17553 0.0
H447 H 0.33968 0.81799 0.72524 0.0
H448 H 0.42244 0.84364 0.43672 0.0
N449 N 0.40864 0.69638 0.16411 0.0
C450 C 0.41256 0.71386 0.2482 0.0
C451 C 0.41328 0.62149 0.19742 0.0
C452 C 0.41621 0.68561 0.31176 0.0
C453 C 0.40994 0.65099 0.1365 0.0
C454 C 0.41614 0.6388 0.28598 0.0
N455 N 0.40977 0.78652 0.20683 0.0
C456 C 0.41151 0.83234 0.22156 0.0
C457 C 0.41794 0.78005 0.35467 0.0
C458 C 0.4135 0.76041 0.26955 0.0
C459 C 0.41907 0.82721 0.37209 0.0
C460 C 0.416 0.85341 0.30485 0.0
H461 H 0.41886 0.61589 0.33278 0.0
H462 H 0.42285 0.68378 0.44797 0.0
H463 H 0.42433 0.76651 0.48558 0.0
O464 O 0.41675 0.7884 1.01215 0.0
O465 O 0.38983 0.77539 0.18947 0.0
O466 O 0.37157 0.729 0.18188 0.0
O467 O 0.42281 0.72557 0.05264 0.0
O468 O 0.3941 0.81151 0.03674 0.0
O469 O 0.3726 0.81803 0.10201 0.0
O470 O 0.34189 0.73824 0.09513 0.0
O471 O 0.37397 0.76737 0.94647 0.0
O472 O 0.39373 0.72579 0.94016 0.0
O473 O 0.35158 0.79875 0.15684 0.0
O474 O 0.3725 0.69051 0.09272 0.0
O475 O 0.39257 0.68614 1.01407 0.0
C476 C 0.3812 0.75118 0.22921 0.0
C477 C 0.43496 0.74944 0.9337 0.0
C478 C 0.45751 0.741 0.86543 0.0
C479 C 0.45126 0.72944 0.78152 0.0
C480 C 0.42899 0.73782 0.84954 0.0
C481 C 0.43714 0.72794 0.77387 0.0
C482 C 0.44917 0.75094 0.94143 0.0
C483 C 0.38338 0.83542 0.06685 0.0
C484 C 0.42661 0.75979 1.01459 0.0
C485 C 0.42018 0.70497 0.39795 0.0
C486 C 0.42107 0.75208 0.41929 0.0
C487 C 0.38371 0.74464 0.90039 0.0
C488 C 0.32763 0.80115 0.13691 0.0
C489 C 0.30292 0.80743 0.1543 0.0
C490 C 0.30341 0.84851 0.11861 0.0
C491 C 0.32779 0.84255 0.10285 0.0
C492 C 0.31516 0.78385 0.16294 0.0
C493 C 0.31574 0.86582 0.09326 0.0
C494 C 0.38183 0.66691 0.04457 0.0
C495 C 0.3403 0.77596 0.14778 0.0
H496 H 0.45729 0.72079 0.72171 0.0
H497 H 0.41807 0.73635 0.84244 0.0
H498 H 0.4325 0.71885 0.70898 0.0
H499 H 0.45371 0.76035 1.00667 0.0
H500 H 0.29428 0.8679 0.11214 0.0
H501 H 0.33721 0.85724 0.08454 0.0
H502 H 0.315 0.75196 0.18954 0.0
H503 H 0.31598 0.89774 0.06696 0.0
Tb504 Tb 0.65469 0.23331 0.97751 0.0
C505 C 0.60118 0.29602 0.81252 0.0
N506 N 0.60656 0.31104 0.89414 0.0
C507 C 0.60165 0.38765 0.87422 0.0
C508 C 0.59607 0.32657 0.7576 0.0
C509 C 0.60667 0.35608 0.92619 0.0
C510 C 0.59636 0.37287 0.78949 0.0
C511 C 0.59657 0.23329 0.69637 0.0
C512 C 0.60152 0.24988 0.78217 0.0
C513 C 0.59135 0.26358 0.64172 0.0
C514 C 0.5911 0.31008 0.67222 0.0
Tb515 Tb 0.6143 0.25633 0.97264 0.0
N516 N 0.60722 0.22166 0.83545 0.0
C517 C 0.5971 0.18675 0.66784 0.0
C518 C 0.60701 0.17598 0.80963 0.0
C519 C 0.60219 0.15798 0.72514 0.0
H520 H 0.61034 0.36766 0.99268 0.0
H521 H 0.60223 0.12178 0.70473 0.0
H522 H 0.65675 0.12588 1.00686 0.0
H523 H 0.67212 0.38707 0.18029 0.0
H524 H 0.61011 0.15282 0.85398 0.0
H525 H 0.5934 0.17264 0.60239 0.0
H526 H 0.66395 0.34205 0.04332 0.0
H527 H 0.60181 0.42334 0.89974 0.0
H528 H 0.58755 0.25142 0.57548 0.0
H529 H 0.58715 0.33303 0.62895 0.0
H530 H 0.66374 0.08212 0.12642 0.0
H531 H 0.59254 0.39744 0.74925 0.0
H532 H 0.67784 0.35001 0.31186 0.0
N533 N 0.66074 0.18963 0.08338 0.0
C534 C 0.6662 0.21201 0.15962 0.0
C535 C 0.66434 0.11866 0.13699 0.0
C536 C 0.67056 0.18844 0.22902 0.0
C537 C 0.66011 0.1435 0.07007 0.0
C538 C 0.66952 0.14122 0.21702 0.0
N539 N 0.66269 0.28036 0.09967 0.0
C540 C 0.66527 0.32552 0.10165 0.0
C541 C 0.67234 0.28321 0.24741 0.0
C542 C 0.66694 0.25887 0.16869 0.0
C543 C 0.67372 0.33009 0.2526 0.0
C544 C 0.67041 0.35117 0.17874 0.0
H545 H 0.67277 0.12188 0.26881 0.0
H546 H 0.67896 0.19526 0.36264 0.0
H547 H 0.68061 0.27819 0.37857 0.0
O548 O 0.67327 0.26024 0.93749 0.0
O549 O 0.64181 0.21905 0.09056 0.0
O550 O 0.6242 0.27028 0.10416 0.0
O551 O 0.66972 0.18914 0.91788 0.0
O552 O 0.64729 0.30046 0.95345 0.0
O553 O 0.62743 0.31083 0.03564 0.0
O554 O 0.5977 0.21822 1.00831 0.0
O555 O 0.62643 0.26909 0.8559 0.0
O556 O 0.64523 0.22235 0.84406 0.0
O557 O 0.59695 0.2906 0.02797 0.0
O558 O 0.62122 0.18802 0.99132 0.0
O559 O 0.64173 0.17785 0.91646 0.0
C560 C 0.63309 0.24501 0.13961 0.0
C561 C 0.69237 0.21262 0.95019 0.0
C562 C 0.71704 0.22386 0.95233 0.0
C563 C 0.71804 0.1955 0.01899 0.0
C564 C 0.6939 0.18375 1.01551 0.0
C565 C 0.70657 0.17563 0.05002 0.0
C566 C 0.7041 0.23232 0.91769 0.0
C567 C 0.63794 0.32685 0.99632 0.0
C568 C 0.67867 0.2207 0.91427 0.0
C569 C 0.67565 0.21271 0.30822 0.0
C570 C 0.67652 0.25997 0.31743 0.0
C571 C 0.63579 0.24541 0.8083 0.0
C572 C 0.58273 0.25295 0.11942 0.0
C573 C 0.5607 0.25133 0.19418 0.0
C574 C 0.56757 0.25142 0.27593 0.0
C575 C 0.58932 0.25293 0.20145 0.0
C576 C 0.56847 0.25218 0.116 0.0
C577 C 0.58174 0.25221 0.27931 0.0
C578 C 0.63106 0.1619 0.95411 0.0
C579 C 0.59043 0.25371 0.0363 0.0
H580 H 0.7278 0.18778 0.04597 0.0
H581 H 0.68538 0.16655 0.03933 0.0
H582 H 0.70753 0.15331 0.10035 0.0
H583 H 0.70316 0.25409 0.8663 0.0
H584 H 0.562 0.2515 0.33767 0.0
H585 H 0.60028 0.2535 0.20518 0.0
H586 H 0.56345 0.2516 0.05206 0.0
H587 H 0.58687 0.25239 0.34267 0.0
Tb588 Tb 0.40425 0.25358 0.98303 0.0
C589 C 0.35116 0.21366 0.16934 0.0
N590 N 0.35631 0.19189 0.09154 0.0
C591 C 0.35126 0.1202 0.13832 0.0
C592 C 0.34626 0.18934 0.23618 0.0
C593 C 0.35603 0.14582 0.07404 0.0
C594 C 0.34644 0.14203 0.22002 0.0
C595 C 0.34601 0.28436 0.26212 0.0
C596 C 0.35117 0.26057 0.1821 0.0
C597 C 0.34133 0.26034 0.32978 0.0
C598 C 0.34144 0.21295 0.31681 0.0
Tb599 Tb 0.36363 0.23677 0.99073 0.0
N600 N 0.35592 0.28271 0.11533 0.0
C601 C 0.3454 0.33152 0.27092 0.0
C602 C 0.35411 0.32842 0.12078 0.0
C603 C 0.34923 0.35355 0.19925 0.0
H604 H 0.35916 0.12888 1.00967 0.0
H605 H 0.34812 0.38985 0.20357 0.0
H606 H 0.40892 0.36355 0.98402 0.0
H607 H 0.41449 0.10867 0.73267 0.0
H608 H 0.35587 0.3459 0.0642 0.0
H609 H 0.3415 0.35107 0.33127 0.0
H610 H 0.40775 0.1459 0.88008 0.0
H611 H 0.35118 0.08366 0.12446 0.0
H612 H 0.33742 0.2781 0.39191 0.0
H613 H 0.33772 0.1949 0.36932 0.0
H614 H 0.41765 0.41375 0.88027 0.0
H615 H 0.34277 0.12208 0.26971 0.0
H616 H 0.42286 0.15389 0.61887 0.0
N617 N 0.41199 0.30338 0.89332 0.0
C618 C 0.41694 0.28468 0.81258 0.0
C619 C 0.41743 0.37753 0.86024 0.0
C620 C 0.42209 0.31204 0.75146 0.0
C621 C 0.41232 0.34907 0.91841 0.0
C622 C 0.42231 0.35897 0.77635 0.0
N623 N 0.41043 0.21289 0.84885 0.0
C624 C 0.41046 0.16677 0.83048 0.0
C625 C 0.42047 0.21775 0.70443 0.0
C626 C 0.41602 0.23805 0.78928 0.0
C627 C 0.41955 0.17078 0.68332 0.0
C628 C 0.41471 0.14519 0.74709 0.0
H629 H 0.42617 0.38116 0.73122 0.0
H630 H 0.43045 0.31231 0.61895 0.0
H631 H 0.4291 0.22982 0.57793 0.0
O632 O 0.42116 0.21645 0.01712 0.0
O633 O 0.39182 0.26967 0.86989 0.0
O634 O 0.37347 0.22168 0.85915 0.0
O635 O 0.42165 0.28877 0.03496 0.0
O636 O 0.39648 0.18727 1.0085 0.0
O637 O 0.37606 0.17911 0.93275 0.0
O638 O 0.34611 0.26846 0.94667 0.0
O639 O 0.37585 0.22234 0.10645 0.0
O640 O 0.39482 0.26835 0.11626 0.0
O641 O 0.34783 0.19657 0.9296 0.0
O642 O 0.37194 0.30349 0.9698 0.0
O643 O 0.39226 0.31056 0.04802 0.0
C644 C 0.38258 0.24545 0.82232 0.0
C645 C 0.43614 0.2523 0.12665 0.0
C646 C 0.45821 0.25078 0.20078 0.0
C647 C 0.4514 0.25187 0.28301 0.0
C648 C 0.42961 0.25326 0.20917 0.0
C649 C 0.43724 0.25311 0.28695 0.0
C650 C 0.4504 0.25114 0.12267 0.0
C651 C 0.38629 0.16222 0.9733 0.0
C652 C 0.42834 0.25228 0.04367 0.0
C653 C 0.4265 0.29185 0.66696 0.0
C654 C 0.42569 0.24486 0.64351 0.0
C655 C 0.38531 0.24602 0.15338 0.0
C656 C 0.32569 0.22633 0.95398 0.0
C657 C 0.30124 0.23928 0.93871 0.0
C658 C 0.29891 0.21454 1.01009 0.0
C659 C 0.32286 0.20148 0.02421 0.0
C660 C 0.31477 0.2451 0.91087 0.0
C661 C 0.30963 0.19602 0.0524 0.0
C662 C 0.38162 0.32829 1.01318 0.0
C663 C 0.33986 0.23043 0.92258 0.0
H664 H 0.45702 0.25233 0.34466 0.0
H665 H 0.41866 0.25411 0.21335 0.0
H666 H 0.43216 0.25403 0.35066 0.0
H667 H 0.45538 0.24981 0.05842 0.0
H668 H 0.28872 0.20833 0.03203 0.0
H669 H 0.33079 0.18515 0.05639 0.0
H670 H 0.3168 0.26389 0.85591 0.0
H671 H 0.30766 0.17653 0.10633 0.0
H672 H 0.21831 0.29925 0.82223 0.0
H673 H 0.29706 0.24079 0.75812 0.0
H674 H 0.23909 0.30885 0.5745 0.0
H675 H 0.27804 0.27754 1.01505 0.0
H676 H 0.27599 0.26046 0.68583 0.0
H677 H 0.23995 0.28293 0.88997 0.0
C678 C 0.22741 0.29741 0.78177 0.0
C679 C 0.22687 0.30542 0.69256 0.0
C680 C 0.2765 0.26441 0.75806 0.0
C681 C 0.25177 0.28714 0.76998 0.0
C682 C 0.28856 0.25355 0.79942 0.0
C683 C 0.28933 0.25686 0.89299 0.0
C684 C 0.26509 0.2783 0.81058 0.0
C685 C 0.27788 0.27329 0.94277 0.0
C686 C 0.23979 0.28856 0.82072 0.0
C687 C 0.23906 0.30322 0.64373 0.0
N688 N 0.26626 0.28286 0.9011 0.0
N689 N 0.251 0.29414 0.68291 0.0
H690 H 0.72597 0.22331 0.77885 0.0
H691 H 0.80173 0.27599 0.94342 0.0
H692 H 0.73738 0.26618 0.05276 0.0
H693 H 0.79053 0.27764 0.66772 0.0
H694 H 0.77804 0.26762 0.98059 0.0
H695 H 0.7491 0.24091 0.73214 0.0
C696 C 0.73323 0.23736 0.82885 0.0
C697 C 0.72979 0.24284 0.91994 0.0
C698 C 0.7807 0.27003 0.9119 0.0
C699 C 0.75624 0.26188 0.86746 0.0
C700 C 0.7943 0.27499 0.89049 0.0
C701 C 0.79825 0.27828 0.80229 0.0
C702 C 0.77079 0.26763 0.84478 0.0
C703 C 0.78804 0.27506 0.73655 0.0
C704 C 0.74645 0.247 0.80228 0.0
C705 C 0.73964 0.26076 0.98198 0.0
N706 N 0.77478 0.26986 0.75906 0.0
N707 N 0.75239 0.26905 0.95477 0.0
H708 H 0.27809 0.80768 0.07189 0.0
H709 H 0.23796 0.70613 0.4608 0.0
H710 H 0.29746 0.76835 0.30516 0.0
H711 H 0.21877 0.73891 0.2214 0.0
H712 H 0.2597 0.73013 0.40613 0.0
H713 H 0.25628 0.78376 0.12622 0.0
C714 C 0.27777 0.79406 0.13465 0.0
C715 C 0.28969 0.79024 0.18408 0.0
C716 C 0.25074 0.73214 0.36549 0.0
C717 C 0.26463 0.7625 0.24676 0.0
C718 C 0.2383 0.71827 0.39655 0.0
C719 C 0.22645 0.72014 0.34549 0.0
C720 C 0.25146 0.74818 0.28253 0.0
C721 C 0.22756 0.73716 0.26358 0.0
C722 C 0.2653 0.78024 0.1655 0.0
C723 C 0.28862 0.77157 0.26422 0.0
N724 N 0.23982 0.75034 0.2346 0.0
N725 N 0.27633 0.75862 0.29314 0.0
H726 H 0.71596 0.73206 0.42278 0.0
H727 H 0.79275 0.72501 0.24504 0.0
H728 H 0.72699 0.76757 0.16507 0.0
H729 H 0.78024 0.683 0.49438 0.0
H730 H 0.76912 0.7448 0.21663 0.0
H731 H 0.73971 0.71705 0.45128 0.0
C732 C 0.72338 0.73694 0.37218 0.0
C733 C 0.7194 0.75137 0.29147 0.0
C734 C 0.77157 0.73137 0.27764 0.0
C735 C 0.74683 0.73373 0.32362 0.0
C736 C 0.78508 0.72038 0.29422 0.0
C737 C 0.7885 0.70196 0.37194 0.0
C738 C 0.76142 0.72415 0.33949 0.0
C739 C 0.77808 0.69638 0.43288 0.0
C740 C 0.73699 0.72813 0.3884 0.0
C741 C 0.72953 0.75616 0.22792 0.0
N742 N 0.76508 0.70728 0.41528 0.0
N743 N 0.74276 0.74749 0.24542 0.0
H744 H 0.13975 0.89178 0.36804 0.0
H745 H 0.14119 0.12739 0.68126 0.0
H746 H 0.12857 0.90042 0.64551 0.0
H747 H 0.12735 0.11682 0.40879 0.0
H748 H 0.14091 0.04439 0.66999 0.0
H749 H 0.13962 0.9746 0.38181 0.0
C750 C 0.13737 0.91121 0.4321 0.0
C751 C 0.1342 0.88934 0.50594 0.0
C752 C 0.13794 0.06032 0.61281 0.0
C753 C 0.1342 0.984 0.52225 0.0
C754 C 0.13818 0.10752 0.61894 0.0
C755 C 0.1343 0.12883 0.54573 0.0
C756 C 0.13417 0.03424 0.5321 0.0
C757 C 0.13037 0.10162 0.46676 0.0
C758 C 0.13722 0.95837 0.43967 0.0
C759 C 0.13103 0.91608 0.58707 0.0
N760 N 0.13055 0.05571 0.46164 0.0
N761 N 0.13126 0.96211 0.59344 0.0
H762 H 0.88944 0.38331 0.38385 0.0
H763 H 0.88974 0.635 0.61698 0.0
H764 H 0.87715 0.41238 0.65932 0.0
H765 H 0.87236 0.60086 0.35466 0.0
H766 H 0.88988 0.55423 0.63429 0.0
H767 H 0.88819 0.46419 0.37114 0.0
C768 C 0.8866 0.40683 0.44179 0.0
C769 C 0.88334 0.39132 0.52257 0.0
C770 C 0.88601 0.5646 0.57322 0.0
C771 C 0.88216 0.48361 0.50906 0.0
C772 C 0.88599 0.61042 0.56307 0.0
C773 C 0.88106 0.62435 0.48418 0.0
C774 C 0.88147 0.53256 0.50283 0.0
C775 C 0.8762 0.59139 0.41655 0.0
C776 C 0.8858 0.45279 0.43433 0.0
C777 C 0.87968 0.42315 0.5958 0.0
N778 N 0.87672 0.54685 0.42682 0.0
N779 N 0.87931 0.46801 0.58765 0.0
H780 H 0.8845 0.8997 0.63412 0.0
H781 H 0.8883 0.11007 0.37184 0.0
H782 H 0.87441 0.88734 0.35435 0.0
H783 H 0.87041 0.12531 0.63455 0.0
H784 H 0.88795 0.02764 0.36882 0.0
H785 H 0.88388 0.9828 0.64131 0.0
C786 C 0.88216 0.91456 0.57447 0.0
C787 C 0.87943 0.88696 0.49373 0.0
C788 C 0.88408 0.04911 0.42696 0.0
C789 C 0.87904 0.98097 0.50082 0.0
C790 C 0.88431 0.09597 0.42883 0.0
C791 C 0.87927 0.12428 0.50324 0.0
C792 C 0.87917 0.03055 0.50111 0.0
C793 C 0.87423 0.10444 0.57553 0.0
C794 C 0.88176 0.9617 0.57865 0.0
C795 C 0.87645 0.9076 0.41807 0.0
N796 N 0.87444 0.05868 0.57319 0.0
N797 N 0.8765 0.95337 0.42314 0.0
H798 H 0.14255 0.6027 0.36457 0.0
H799 H 0.14303 0.41821 0.69261 0.0
H800 H 0.12815 0.63765 0.63445 0.0
H801 H 0.12602 0.38679 0.42874 0.0
H802 H 0.14368 0.49882 0.67247 0.0
H803 H 0.14269 0.52239 0.38642 0.0
C804 C 0.13954 0.59344 0.42857 0.0
C805 C 0.13525 0.62662 0.4977 0.0
C806 C 0.13984 0.47411 0.61916 0.0
C807 C 0.13572 0.5355 0.52364 0.0
C808 C 0.1395 0.4283 0.63044 0.0
C809 C 0.13435 0.39602 0.56252 0.0
C810 C 0.13546 0.48734 0.5382 0.0
C811 C 0.12992 0.41076 0.48308 0.0
C812 C 0.13957 0.54779 0.44079 0.0
C813 C 0.13141 0.61292 0.57933 0.0
N814 N 0.13071 0.45526 0.47265 0.0
N815 N 0.13186 0.56843 0.59045 0.0
H816 H 0.64854 0.61728 0.1273 0.0
H817 H 0.643 0.3715 0.85411 0.0
H818 H 0.6297 0.59672 0.86756 0.0
H819 H 0.63467 0.39412 0.13658 0.0
H820 H 0.64335 0.45391 0.853 0.0
H821 H 0.64876 0.5349 0.12758 0.0
C822 C 0.64459 0.59537 0.06997 0.0
C823 C 0.63911 0.61371 0.99719 0.0
C824 C 0.64151 0.44073 0.91518 0.0
C825 C 0.63954 0.51982 0.99659 0.0
C826 C 0.64141 0.39391 0.91598 0.0
C827 C 0.63883 0.37626 0.99561 0.0
C828 C 0.63945 0.46998 0.9951 0.0
C829 C 0.63666 0.40657 0.07387 0.0
C830 C 0.64464 0.54854 0.07048 0.0
C831 C 0.63398 0.58387 0.92503 0.0
N832 N 0.63716 0.45202 0.07193 0.0
N833 N 0.63444 0.53835 0.92607 0.0
H834 H 0.37438 0.90835 0.18298 0.0
H835 H 0.37983 0.08976 0.8488 0.0
H836 H 0.3919 0.87226 0.92165 0.0
H837 H 0.39176 0.12477 0.12388 0.0
H838 H 0.37876 0.00963 0.87154 0.0
H839 H 0.37509 0.98865 0.16034 0.0
C840 C 0.37828 0.91734 0.12078 0.0
C841 C 0.3832 0.88381 0.05438 0.0
C842 C 0.38162 0.03496 0.92671 0.0
C843 C 0.38372 0.97486 0.02736 0.0
C844 C 0.38224 0.08049 0.91381 0.0
C845 C 0.38605 0.11366 0.98431 0.0
C846 C 0.38438 0.02283 1.01145 0.0
C847 C 0.38899 0.10003 0.06752 0.0
C848 C 0.37874 0.96298 0.10812 0.0
C849 C 0.38816 0.89718 0.97489 0.0
N850 N 0.38794 0.05571 0.07918 0.0
N851 N 0.38817 0.94158 0.96318 0.0
H852 H 0.38783 0.39112 0.15596 0.0
H853 H 0.3878 0.60475 0.8991 0.0
H854 H 0.37429 0.37871 0.88265 0.0
H855 H 0.37502 0.6156 0.17383 0.0
H856 H 0.38713 0.52166 0.88986 0.0
H857 H 0.38745 0.47389 0.16306 0.0
C858 C 0.38477 0.40591 0.09753 0.0
C859 C 0.38099 0.37821 0.01883 0.0
C860 C 0.38445 0.54235 0.95196 0.0
C861 C 0.38087 0.47252 0.02574 0.0
C862 C 0.38489 0.58957 0.95736 0.0
C863 C 0.3814 0.61689 0.03719 0.0
C864 C 0.38092 0.52246 0.02777 0.0
C865 C 0.37766 0.59567 0.11084 0.0
C866 C 0.38452 0.453 0.10169 0.0
C867 C 0.37712 0.39899 0.94488 0.0
N868 N 0.37768 0.54975 0.10474 0.0
N869 N 0.37732 0.44494 0.94971 0.0
H870 H 0.63814 0.09109 0.82793 0.0
H871 H 0.63943 0.9034 0.14939 0.0
H872 H 0.62343 0.12189 0.09799 0.0
H873 H 0.62618 0.87158 0.87644 0.0
H874 H 0.63837 0.98457 0.13395 0.0
H875 H 0.63857 0.01034 0.84541 0.0
C876 C 0.63494 0.08075 0.89061 0.0
C877 C 0.63057 0.11295 0.9612 0.0
C878 C 0.6357 0.95964 0.07764 0.0
C879 C 0.63148 0.0213 0.98258 0.0
C880 C 0.63635 0.91352 0.08628 0.0
C881 C 0.63289 0.88085 1.01395 0.0
C882 C 0.63194 0.97291 0.99541 0.0
C883 C 0.6289 0.89567 0.93371 0.0
C884 C 0.63519 0.03486 0.90055 0.0
C885 C 0.62664 0.09793 0.04147 0.0
N886 N 0.6287 0.94053 0.92616 0.0
N887 N 0.62734 0.05321 0.05046 0.0
H888 H 0.12563 0.18656 0.27152 0.0
H889 H 0.13054 0.3339 0.867 0.0
H890 H 0.13857 0.32558 0.3109 0.0
H891 H 0.13837 0.19073 0.82649 0.0
H892 H 0.12938 0.3319 0.02917 0.0
H893 H 0.12615 0.18761 0.10837 0.0
C894 C 0.12849 0.21738 0.24601 0.0
C895 C 0.13215 0.25595 0.30543 0.0
C896 C 0.13137 0.3009 0.9849 0.0
C897 C 0.13257 0.25764 0.1183 0.0
C898 C 0.13201 0.30201 0.8922 0.0
C899 C 0.13465 0.26249 0.83275 0.0
C900 C 0.1331 0.25974 0.01916 0.0
C901 C 0.13645 0.22211 0.8697 0.0
C902 C 0.12886 0.21788 0.15282 0.0
C903 C 0.13582 0.29487 0.268 0.0
N904 N 0.13552 0.22168 0.96 0.0
N905 N 0.13584 0.29483 0.17753 0.0
H906 H 0.87413 0.18976 0.22166 0.0
H907 H 0.87541 0.33474 0.81471 0.0
H908 H 0.88862 0.32703 0.25746 0.0
H909 H 0.88583 0.19336 0.77531 0.0
H910 H 0.87543 0.33346 0.97758 0.0
H911 H 0.87354 0.19103 0.05884 0.0
C912 C 0.87711 0.22028 0.19549 0.0
C913 C 0.88144 0.25837 0.25391 0.0
C914 C 0.87768 0.30271 0.93321 0.0
C915 C 0.88058 0.26031 0.06696 0.0
C916 C 0.87762 0.30336 0.84015 0.0
C917 C 0.88068 0.26415 0.78076 0.0
C918 C 0.88044 0.26223 0.96777 0.0
C919 C 0.88351 0.22451 0.81822 0.0
C920 C 0.87682 0.22091 0.10243 0.0
C921 C 0.88525 0.29685 0.21548 0.0
N922 N 0.8832 0.22444 0.90874 0.0
N923 N 0.8846 0.29701 0.12508 0.0
H924 H 0.14489 0.82168 0.21502 0.0
H925 H 0.11566 0.71785 0.73774 0.0
H926 H 0.12625 0.68998 0.17245 0.0
H927 H 0.15025 0.80666 0.76576 0.0
H928 H 0.11617 0.71533 0.89998 0.0
H929 H 0.14412 0.82412 0.05363 0.0
C930 C 0.14059 0.79326 0.17187 0.0
C931 C 0.13537 0.75588 0.208 0.0
C932 C 0.12364 0.73535 0.87051 0.0
C933 C 0.13428 0.75887 0.02242 0.0
C934 C 0.12328 0.73714 0.77815 0.0
C935 C 0.13295 0.76246 0.73809 0.0
C936 C 0.13358 0.7598 0.92371 0.0
C937 C 0.14272 0.7863 0.79358 0.0
C938 C 0.14013 0.79477 0.07963 0.0
C939 C 0.12998 0.72009 0.14816 0.0
N940 N 0.14272 0.78467 0.88336 0.0
N941 N 0.12944 0.72263 0.05865 0.0
H942 H 0.8992 0.71668 0.72724 0.0
H943 H 0.86948 0.81955 0.20555 0.0
H944 H 0.86487 0.8064 0.75631 0.0
H945 H 0.88954 0.69027 0.16332 0.0
H946 H 0.87029 0.82227 0.04417 0.0
H947 H 0.89881 0.71431 0.88967 0.0
C948 C 0.89166 0.73619 0.76797 0.0
C949 C 0.88204 0.76173 0.72818 0.0
C950 C 0.87459 0.7934 0.07021 0.0
C951 C 0.88151 0.75922 0.91407 0.0
C952 C 0.87412 0.79174 0.16249 0.0
C953 C 0.87971 0.75498 0.19881 0.0
C954 C 0.88082 0.75824 1.01302 0.0
C955 C 0.88551 0.71994 0.139 0.0
C956 C 0.89136 0.73451 0.86047 0.0
C957 C 0.87237 0.78589 0.78399 0.0
N958 N 0.88603 0.72259 0.04948 0.0
N959 N 0.87241 0.7843 0.87384 0.0
H960 H 0.64064 0.82571 0.30942 0.0
H961 H 0.64425 0.68082 0.7161 0.0
H962 H 0.63316 0.68227 0.26909 0.0
H963 H 0.62758 0.81525 0.75119 0.0
H964 H 0.64491 0.6823 0.55343 0.0
H965 H 0.64049 0.82441 0.47231 0.0
C966 C 0.63906 0.7939 0.33471 0.0
C967 C 0.63686 0.75408 0.27509 0.0
C968 C 0.64113 0.71151 0.59682 0.0
C969 C 0.63695 0.75218 0.46203 0.0
C970 C 0.64082 0.71079 0.68982 0.0
C971 C 0.63587 0.74802 0.74801 0.0
C972 C 0.63677 0.75019 0.56117 0.0
C973 C 0.63145 0.78576 0.70939 0.0
C974 C 0.63891 0.79322 0.42774 0.0
C975 C 0.63481 0.71386 0.31223 0.0
N976 N 0.63213 0.78608 0.61905 0.0
N977 N 0.63502 0.71386 0.40276 0.0
H978 H 0.39151 0.67643 0.76759 0.0
H979 H 0.3858 0.8222 0.36217 0.0
H980 H 0.37681 0.81349 0.806 0.0
H981 H 0.37821 0.67887 0.32244 0.0
H982 H 0.38684 0.82053 0.52454 0.0
H983 H 0.39103 0.67732 0.60442 0.0
C984 C 0.38827 0.70679 0.74188 0.0
C985 C 0.38411 0.74484 0.80103 0.0
C986 C 0.38492 0.78943 0.48036 0.0
C987 C 0.38374 0.74636 0.61393 0.0
C988 C 0.38435 0.79036 0.38759 0.0
C989 C 0.3818 0.75069 0.32835 0.0
C990 C 0.38325 0.74831 0.51481 0.0
C991 C 0.38004 0.71036 0.36552 0.0
C992 C 0.38792 0.70719 0.64869 0.0
C993 C 0.37995 0.78318 0.76333 0.0
N994 N 0.38093 0.71011 0.45587 0.0
N995 N 0.37998 0.78309 0.67284 0.0
H996 H 0.64063 0.17568 0.23023 0.0
H997 H 0.62583 0.31137 0.71697 0.0
H998 H 0.62478 0.31135 0.27318 0.0
H999 H 0.64575 0.18171 0.6748 0.0
H1000 H 0.62452 0.31066 0.55534 0.0
H1001 H 0.64183 0.17602 0.392 0.0
C1002 C 0.6375 0.20574 0.27377 0.0
C1003 C 0.6329 0.24392 0.23787 0.0
C1004 C 0.62921 0.28236 0.58116 0.0
C1005 C 0.63386 0.24415 0.42414 0.0
C1006 C 0.62989 0.28259 0.6737 0.0
C1007 C 0.63578 0.24629 0.70988 0.0
C1008 C 0.6345 0.24558 0.5235 0.0
C1009 C 0.64115 0.21048 0.65013 0.0
C1010 C 0.6381 0.20579 0.36632 0.0
C1011 C 0.62848 0.28124 0.29774 0.0
N1012 N 0.64034 0.21095 0.5601 0.0
N1013 N 0.6291 0.28047 0.38771 0.0
H1014 H 0.39564 0.31038 0.28358 0.0
H1015 H 0.37268 0.18035 0.69175 0.0
H1016 H 0.37578 0.18061 0.2482 0.0
H1017 H 0.39223 0.31068 0.72739 0.0
H1018 H 0.37364 0.17988 0.52938 0.0
H1019 H 0.39494 0.31049 0.44596 0.0
C1020 C 0.39114 0.28189 0.30991 0.0
C1021 C 0.38555 0.2458 0.25199 0.0
C1022 C 0.37775 0.20857 0.57266 0.0
C1023 C 0.38463 0.24571 0.43834 0.0
C1024 C 0.37714 0.20894 0.66551 0.0
C1025 C 0.38251 0.24538 0.72356 0.0
C1026 C 0.38373 0.24502 0.53713 0.0
C1027 C 0.38821 0.28142 0.68539 0.0
C1028 C 0.39068 0.28204 0.40274 0.0
C1029 C 0.37988 0.20974 0.29018 0.0
N1030 N 0.3887 0.28029 0.59498 0.0
N1031 N 0.37952 0.21067 0.38055 0.0
H1032 H 0.04184 0.28292 0.24404 0.0
H1033 H 0.97474 0.2148 0.49495 0.0
H1034 H 0.04293 0.22849 0.49406 0.0
H1035 H 0.97576 0.2429 0.22298 0.0
H1036 H 0.99914 0.23191 0.50795 0.0
H1037 H 0.01716 0.2798 0.24685 0.0
C1038 C 0.03692 0.27022 0.29959 0.0
C1039 C 0.04458 0.25535 0.36827 0.0
C1040 C 0.99397 0.23487 0.44584 0.0
C1041 C 0.01611 0.25228 0.3725 0.0
C1042 C 0.98004 0.22551 0.43874 0.0
C1043 C 0.97327 0.22731 0.35769 0.0
C1044 C 1.00109 0.24646 0.37155 0.0
C1045 C 0.98063 0.24086 0.28648 0.0
C1046 C 0.02278 0.2687 0.30139 0.0
C1047 C 0.03751 0.24047 0.43971 0.0
N1048 N 0.99411 0.24967 0.29493 0.0
N1049 N 0.0237 0.23902 0.43967 0.0
H1050 H 0.97307 0.72368 0.77456 0.0
H1051 H 0.0415 0.79074 0.53737 0.0
H1052 H 0.97336 0.7902 0.53867 0.0
H1053 H 0.04049 0.7227 0.77128 0.0
H1054 H 0.01669 0.78818 0.53203 0.0
H1055 H 0.99778 0.72097 0.77055 0.0
C1056 C 0.97832 0.73785 0.72192 0.0
C1057 C 0.97105 0.75753 0.65726 0.0
C1058 C 0.02191 0.77369 0.58435 0.0
C1059 C 0.99953 0.75422 0.65184 0.0
C1060 C 0.0361 0.77489 0.58716 0.0
C1061 C 0.04317 0.75715 0.65523 0.0
C1062 C 0.01467 0.75453 0.64997 0.0
C1063 C 0.03553 0.73755 0.71846 0.0
C1064 C 0.99247 0.73607 0.71941 0.0
C1065 C 0.97848 0.77444 0.58963 0.0
N1066 N 0.02176 0.7369 0.71439 0.0
N1067 N 0.99229 0.77263 0.58899 0.0
H1068 H 0.5424 0.73627 0.72917 0.0
H1069 H 0.47361 0.71338 0.99724 0.0
H1070 H 0.54162 0.69772 0.99336 0.0
H1071 H 0.47604 0.77114 0.75122 0.0
H1072 H 0.4984 0.71138 1.00269 0.0
H1073 H 0.51823 0.75387 0.74159 0.0
C1074 C 0.53714 0.73237 0.79058 0.0
C1075 C 0.54398 0.7157 0.86045 0.0
C1076 C 0.4935 0.7248 0.9479 0.0
C1077 C 0.51617 0.73454 0.87452 0.0
C1078 C 0.47931 0.72613 0.94485 0.0
C1079 C 0.47263 0.74204 0.8731 0.0
C1080 C 0.50111 0.73931 0.87857 0.0
C1081 C 0.48066 0.75762 0.80682 0.0
C1082 C 0.52332 0.74221 0.79759 0.0
C1083 C 0.5367 0.71089 0.93835 0.0
N1084 N 0.49441 0.75556 0.81089 0.0
N1085 N 0.52313 0.71968 0.9429 0.0
H1086 H 0.47558 0.20295 0.29479 0.0
H1087 H 0.54354 0.29654 0.09274 0.0
H1088 H 0.47552 0.29479 0.09801 0.0
H1089 H 0.54313 0.20387 0.288 0.0
H1090 H 0.51874 0.29517 0.0907 0.0
H1091 H 0.50031 0.20235 0.29126 0.0
C1092 C 0.48075 0.2232 0.25105 0.0
C1093 C 0.47336 0.24916 0.19697 0.0
C1094 C 0.52408 0.2751 0.13392 0.0
C1095 C 0.50187 0.24825 0.19194 0.0
C1096 C 0.53828 0.27564 0.13477 0.0
C1097 C 0.54554 0.25037 0.19084 0.0
C1098 C 0.51701 0.24906 0.18946 0.0
C1099 C 0.53805 0.22449 0.2447 0.0
C1100 C 0.49491 0.22262 0.2487 0.0
C1101 C 0.48071 0.27393 0.14035 0.0
N1102 N 0.52426 0.22455 0.24268 0.0
N1103 N 0.49452 0.27298 0.13956 0.0
loop_
_geom_bond_atom_site_label_1
_geom_bond_atom_site_label_2
_geom_bond_distance
_geom_bond_site_symmetry_2
_ccdc_geom_bond_type
Tb0 N29 2.617 . S
Tb0 N35 2.572 . S
Tb0 O44 2.465 . S
Tb0 O45 2.387 . S
Tb0 O47 2.428 . S
Tb0 O48 2.308 . S
Tb0 O52 2.349 . S
Tb0 O55 2.393 . S
Tb0 C64 2.802 . S
C1 N2 1.379 . S
C1 C4 1.416 . S
C1 C8 1.424 . S
N2 C1 1.379 . S
N2 C5 1.334 . S
N2 Tb11 2.617 . S
C3 C5 1.390 . S
C3 C6 1.339 . S
C3 H23 0.930 . S
C4 C1 1.416 . S
C4 C6 1.416 . S
C4 C10 1.448 . S
C5 N2 1.334 . S
C5 C3 1.390 . S
C5 H16 0.930 . S
C6 C3 1.339 . S
C6 C4 1.416 . S
C6 H27 0.930 . S
C7 C8 1.413 . S
C7 C9 1.427 . S
C7 C13 1.416 . S
C8 C1 1.424 . S
C8 C7 1.413 . S
C8 N12 1.361 . S
C9 C7 1.427 . S
C9 C10 1.328 . S
C9 H24 0.929 . S
C10 C4 1.448 . S
C10 C9 1.328 . S
C10 H25 0.930 . S
Tb11 N2 2.617 . S
Tb11 N12 2.572 . S
Tb11 O46 2.349 . S
Tb11 O49 2.393 . S
Tb11 O50 2.465 . S
Tb11 O51 2.387 . S
Tb11 O53 2.428 . S
Tb11 O54 2.308 . S
Tb11 C75 2.802 . S
N12 C8 1.361 . S
N12 Tb11 2.572 . S
N12 C14 1.340 . S
C13 C7 1.416 . S
C13 C15 1.332 . S
C13 H21 0.931 . S
C14 N12 1.340 . S
C14 C15 1.407 . S
C14 H20 0.930 . S
C15 C13 1.332 . S
C15 C14 1.407 . S
C15 H17 0.929 . S
H16 C5 0.930 . S
H17 C15 0.929 . S
H18 C33 0.930 . S
H19 C40 0.929 . S
H20 C14 0.930 . S
H21 C13 0.931 . S
H22 C36 0.930 . S
H23 C3 0.930 . S
H24 C9 0.929 . S
H25 C10 0.930 . S
H26 C31 0.930 . S
H27 C6 0.930 . S
H28 C39 0.931 . S
N29 Tb0 2.617 . S
N29 C30 1.379 . S
N29 C33 1.334 . S
C30 N29 1.379 . S
C30 C32 1.416 . S
C30 C38 1.424 . S
C31 H26 0.930 . S
C31 C33 1.390 . S
C31 C34 1.339 . S
C32 C30 1.416 . S
C32 C34 1.416 . S
C32 C65 1.448 . S
C33 H18 0.930 . S
C33 N29 1.334 . S
C33 C31 1.390 . S
C34 C31 1.339 . S
C34 C32 1.416 . S
C34 H41 0.930 . S
N35 Tb0 2.572 . S
N35 C36 1.340 . S
N35 C38 1.361 . S
C36 H22 0.930 . S
C36 N35 1.340 . S
C36 C40 1.407 . S
C37 C38 1.413 . S
C37 C39 1.416 . S
C37 C66 1.427 . S
C38 C30 1.424 . S
C38 N35 1.361 . S
C38 C37 1.413 . S
C39 H28 0.931 . S
C39 C37 1.416 . S
C39 C40 1.332 . S
C40 H19 0.929 . S
C40 C36 1.407 . S
C40 C39 1.332 . S
H41 C34 0.930 . S
H42 C65 0.930 . S
H43 C66 0.929 . S
O44 Tb0 2.465 . S
O44 C64 1.264 . S
O45 Tb0 2.387 . S
O45 C56 1.264 . S
O46 Tb11 2.349 . S
O46 C56 1.243 . S
O47 Tb0 2.428 . S
O47 C64 1.256 . S
O48 Tb0 2.308 . S
O48 C63 1.266 . S
O49 Tb11 2.393 . S
O49 C63 1.248 . S
O50 Tb11 2.465 . S
O50 C75 1.264 . S
O51 Tb11 2.387 . S
O51 C67 1.264 . S
O52 Tb0 2.349 . S
O52 C67 1.243 . S
O53 Tb11 2.428 . S
O53 C75 1.256 . S
O54 Tb11 2.308 . S
O54 C74 1.266 . S
O55 Tb0 2.393 . S
O55 C74 1.248 . S
C56 O45 1.264 . S
C56 O46 1.243 . S
C57 C60 1.399 . S
C57 C62 1.383 . S
C57 C64 1.496 . S
C58 C59 1.399 . S
C58 C62 1.389 . S
C59 C58 1.399 . S
C59 C61 1.380 . S
C59 H76 0.929 . S
C60 C57 1.399 . S
C60 C61 1.392 . S
C60 H77 0.929 . S
C61 C59 1.380 . S
C61 C60 1.392 . S
C61 H78 0.929 . S
C62 C57 1.383 . S
C62 C58 1.389 . S
C62 H79 0.931 . S
C63 O48 1.266 . S
C63 O49 1.248 . S
C64 Tb0 2.802 . S
C64 O44 1.264 . S
C64 O47 1.256 . S
C64 C57 1.496 . S
C65 C32 1.448 . S
C65 H42 0.930 . S
C65 C66 1.328 . S
C66 C37 1.427 . S
C66 H43 0.929 . S
C66 C65 1.328 . S
C67 O51 1.264 . S
C67 O52 1.243 . S
C68 C71 1.399 . S
C68 C72 1.383 . S
C68 C75 1.496 . S
C69 C70 1.399 . S
C69 C72 1.389 . S
C70 C69 1.399 . S
C70 C73 1.380 . S
C70 H80 0.929 . S
C71 C68 1.399 . S
C71 C73 1.392 . S
C71 H81 0.929 . S
C72 C68 1.383 . S
C72 C69 1.389 . S
C72 H82 0.931 . S
C73 C70 1.380 . S
C73 C71 1.392 . S
C73 H83 0.929 . S
C74 O54 1.266 . S
C74 O55 1.248 . S
C75 Tb11 2.802 . S
C75 O50 1.264 . S
C75 O53 1.256 . S
C75 C68 1.496 . S
H76 C59 0.929 . S
H77 C60 0.929 . S
H78 C61 0.929 . S
H79 C62 0.931 . S
H80 C70 0.929 . S
H81 C71 0.929 . S
H82 C72 0.931 . S
H83 C73 0.929 . S
Tb84 N113 2.617 . S
Tb84 N119 2.572 . S
Tb84 O128 2.465 . S
Tb84 O129 2.387 . S
Tb84 O131 2.428 . S
Tb84 O132 2.308 . S
Tb84 O136 2.349 . S
Tb84 O139 2.393 . S
Tb84 C148 2.802 . S
C85 N86 1.379 . S
C85 C88 1.416 . S
C85 C92 1.424 . S
N86 C85 1.379 . S
N86 C89 1.334 . S
N86 Tb95 2.617 . S
C87 C89 1.390 . S
C87 C90 1.339 . S
C87 H107 0.930 . S
C88 C85 1.416 . S
C88 C90 1.416 . S
C88 C94 1.448 . S
C89 N86 1.334 . S
C89 C87 1.390 . S
C89 H100 0.930 . S
C90 C87 1.339 . S
C90 C88 1.416 . S
C90 H111 0.930 . S
C91 C92 1.413 . S
C91 C93 1.427 . S
C91 C97 1.416 . S
C92 C85 1.424 . S
C92 C91 1.413 . S
C92 N96 1.361 . S
C93 C91 1.427 . S
C93 C94 1.328 . S
C93 H108 0.929 . S
C94 C88 1.448 . S
C94 C93 1.328 . S
C94 H109 0.930 . S
Tb95 N86 2.617 . S
Tb95 N96 2.572 . S
Tb95 O130 2.349 . S
Tb95 O133 2.393 . S
Tb95 O134 2.465 . S
Tb95 O135 2.387 . S
Tb95 O137 2.428 . S
Tb95 O138 2.308 . S
Tb95 C159 2.802 . S
N96 C92 1.361 . S
N96 Tb95 2.572 . S
N96 C98 1.340 . S
C97 C91 1.416 . S
C97 C99 1.332 . S
C97 H105 0.931 . S
C98 N96 1.340 . S
C98 C99 1.407 . S
C98 H104 0.930 . S
C99 C97 1.332 . S
C99 C98 1.407 . S
C99 H101 0.929 . S
H100 C89 0.930 . S
H101 C99 0.929 . S
H102 C117 0.930 . S
H103 C124 0.929 . S
H104 C98 0.930 . S
H105 C97 0.931 . S
H106 C120 0.930 . S
H107 C87 0.930 . S
H108 C93 0.929 . S
H109 C94 0.930 . S
H110 C115 0.930 . S
H111 C90 0.930 . S
H112 C123 0.931 . S
N113 Tb84 2.617 . S
N113 C114 1.379 . S
N113 C117 1.334 . S
C114 N113 1.379 . S
C114 C116 1.416 . S
C114 C122 1.424 . S
C115 H110 0.930 . S
C115 C117 1.390 . S
C115 C118 1.339 . S
C116 C114 1.416 . S
C116 C118 1.416 . S
C116 C149 1.448 . S
C117 H102 0.930 . S
C117 N113 1.334 . S
C117 C115 1.390 . S
C118 C115 1.339 . S
C118 C116 1.416 . S
C118 H125 0.930 . S
N119 Tb84 2.572 . S
N119 C120 1.340 . S
N119 C122 1.361 . S
C120 H106 0.930 . S
C120 N119 1.340 . S
C120 C124 1.407 . S
C121 C122 1.413 . S
C121 C123 1.416 . S
C121 C150 1.427 . S
C122 C114 1.424 . S
C122 N119 1.361 . S
C122 C121 1.413 . S
C123 H112 0.931 . S
C123 C121 1.416 . S
C123 C124 1.332 . S
C124 H103 0.929 . S
C124 C120 1.407 . S
C124 C123 1.332 . S
H125 C118 0.930 . S
H126 C149 0.930 . S
H127 C150 0.929 . S
O128 Tb84 2.465 . S
O128 C148 1.264 . S
O129 Tb84 2.387 . S
O129 C140 1.264 . S
O130 Tb95 2.349 . S
O130 C140 1.243 . S
O131 Tb84 2.428 . S
O131 C148 1.256 . S
O132 Tb84 2.308 . S
O132 C147 1.266 . S
O133 Tb95 2.393 . S
O133 C147 1.248 . S
O134 Tb95 2.465 . S
O134 C159 1.264 . S
O135 Tb95 2.387 . S
O135 C151 1.264 . S
O136 Tb84 2.349 . S
O136 C151 1.243 . S
O137 Tb95 2.428 . S
O137 C159 1.256 . S
O138 Tb95 2.308 . S
O138 C158 1.266 . S
O139 Tb84 2.393 . S
O139 C158 1.248 . S
C140 O129 1.264 . S
C140 O130 1.243 . S
C141 C144 1.399 . S
C141 C146 1.383 . S
C141 C148 1.496 . S
C142 C143 1.399 . S
C142 C146 1.389 . S
C143 C142 1.399 . S
C143 C145 1.380 . S
C143 H160 0.929 . S
C144 C141 1.399 . S
C144 C145 1.392 . S
C144 H161 0.929 . S
C145 C143 1.380 . S
C145 C144 1.392 . S
C145 H162 0.929 . S
C146 C141 1.383 . S
C146 C142 1.389 . S
C146 H163 0.931 . S
C147 O132 1.266 . S
C147 O133 1.248 . S
C148 Tb84 2.802 . S
C148 O128 1.264 . S
C148 O131 1.256 . S
C148 C141 1.496 . S
C149 C116 1.448 . S
C149 H126 0.930 . S
C149 C150 1.328 . S
C150 C121 1.427 . S
C150 H127 0.929 . S
C150 C149 1.328 . S
C151 O135 1.264 . S
C151 O136 1.243 . S
C152 C155 1.399 . S
C152 C156 1.383 . S
C152 C159 1.496 . S
C153 C154 1.399 . S
C153 C156 1.389 . S
C154 C153 1.399 . S
C154 C157 1.380 . S
C154 H164 0.929 . S
C155 C152 1.399 . S
C155 C157 1.392 . S
C155 H165 0.929 . S
C156 C152 1.383 . S
C156 C153 1.389 . S
C156 H166 0.931 . S
C157 C154 1.380 . S
C157 C155 1.392 . S
C157 H167 0.929 . S
C158 O138 1.266 . S
C158 O139 1.248 . S
C159 Tb95 2.802 . S
C159 O134 1.264 . S
C159 O137 1.256 . S
C159 C152 1.496 . S
H160 C143 0.929 . S
H161 C144 0.929 . S
H162 C145 0.929 . S
H163 C146 0.931 . S
H164 C154 0.929 . S
H165 C155 0.929 . S
H166 C156 0.931 . S
H167 C157 0.929 . S
Tb168 N197 2.617 . S
Tb168 N203 2.572 . S
Tb168 O212 2.465 . S
Tb168 O213 2.387 . S
Tb168 O215 2.428 . S
Tb168 O216 2.308 . S
Tb168 O220 2.349 . S
Tb168 O223 2.393 . S
Tb168 C232 2.802 . S
C169 N170 1.379 . S
C169 C172 1.416 . S
C169 C176 1.424 . S
N170 C169 1.379 . S
N170 C173 1.334 . S
N170 Tb179 2.617 . S
C171 C173 1.390 . S
C171 C174 1.339 . S
C171 H191 0.930 . S
C172 C169 1.416 . S
C172 C174 1.416 . S
C172 C178 1.448 . S
C173 N170 1.334 . S
C173 C171 1.390 . S
C173 H184 0.930 . S
C174 C171 1.339 . S
C174 C172 1.416 . S
C174 H195 0.930 . S
C175 C176 1.413 . S
C175 C177 1.427 . S
C175 C181 1.416 . S
C176 C169 1.424 . S
C176 C175 1.413 . S
C176 N180 1.361 . S
C177 C175 1.427 . S
C177 C178 1.328 . S
C177 H192 0.929 . S
C178 C172 1.448 . S
C178 C177 1.328 . S
C178 H193 0.930 . S
Tb179 N170 2.617 . S
Tb179 N180 2.572 . S
Tb179 O214 2.349 . S
Tb179 O217 2.393 . S
Tb179 O218 2.465 . S
Tb179 O219 2.387 . S
Tb179 O221 2.428 . S
Tb179 O222 2.308 . S
Tb179 C243 2.802 . S
N180 C176 1.361 . S
N180 Tb179 2.572 . S
N180 C182 1.340 . S
C181 C175 1.416 . S
C181 C183 1.332 . S
C181 H189 0.931 . S
C182 N180 1.340 . S
C182 C183 1.407 . S
C182 H188 0.930 . S
C183 C181 1.332 . S
C183 C182 1.407 . S
C183 H185 0.929 . S
H184 C173 0.930 . S
H185 C183 0.929 . S
H186 C201 0.930 . S
H187 C208 0.929 . S
H188 C182 0.930 . S
H189 C181 0.931 . S
H190 C204 0.930 . S
H191 C171 0.930 . S
H192 C177 0.929 . S
H193 C178 0.930 . S
H194 C199 0.930 . S
H195 C174 0.930 . S
H196 C207 0.931 . S
N197 Tb168 2.617 . S
N197 C198 1.379 . S
N197 C201 1.334 . S
C198 N197 1.379 . S
C198 C200 1.416 . S
C198 C206 1.424 . S
C199 H194 0.930 . S
C199 C201 1.390 . S
C199 C202 1.339 . S
C200 C198 1.416 . S
C200 C202 1.416 . S
C200 C233 1.448 . S
C201 H186 0.930 . S
C201 N197 1.334 . S
C201 C199 1.390 . S
C202 C199 1.339 . S
C202 C200 1.416 . S
C202 H209 0.930 . S
N203 Tb168 2.572 . S
N203 C204 1.340 . S
N203 C206 1.361 . S
C204 H190 0.930 . S
C204 N203 1.340 . S
C204 C208 1.407 . S
C205 C206 1.413 . S
C205 C207 1.416 . S
C205 C234 1.427 . S
C206 C198 1.424 . S
C206 N203 1.361 . S
C206 C205 1.413 . S
C207 H196 0.931 . S
C207 C205 1.416 . S
C207 C208 1.332 . S
C208 H187 0.929 . S
C208 C204 1.407 . S
C208 C207 1.332 . S
H209 C202 0.930 . S
H210 C233 0.930 . S
H211 C234 0.929 . S
O212 Tb168 2.465 . S
O212 C232 1.264 . S
O213 Tb168 2.387 . S
O213 C224 1.264 . S
O214 Tb179 2.349 . S
O214 C224 1.243 . S
O215 Tb168 2.428 . S
O215 C232 1.256 . S
O216 Tb168 2.308 . S
O216 C231 1.266 . S
O217 Tb179 2.393 . S
O217 C231 1.248 . S
O218 Tb179 2.465 . S
O218 C243 1.264 . S
O219 Tb179 2.387 . S
O219 C235 1.264 . S
O220 Tb168 2.349 . S
O220 C235 1.243 . S
O221 Tb179 2.428 . S
O221 C243 1.256 . S
O222 Tb179 2.308 . S
O222 C242 1.266 . S
O223 Tb168 2.393 . S
O223 C242 1.248 . S
C224 O213 1.264 . S
C224 O214 1.243 . S
C225 C228 1.399 . S
C225 C230 1.383 . S
C225 C232 1.496 . S
C226 C227 1.399 . S
C226 C230 1.389 . S
C227 C226 1.399 . S
C227 C229 1.380 . S
C227 H244 0.929 . S
C228 C225 1.399 . S
C228 C229 1.392 . S
C228 H245 0.929 . S
C229 C227 1.380 . S
C229 C228 1.392 . S
C229 H246 0.929 . S
C230 C225 1.383 . S
C230 C226 1.389 . S
C230 H247 0.931 . S
C231 O216 1.266 . S
C231 O217 1.248 . S
C232 Tb168 2.802 . S
C232 O212 1.264 . S
C232 O215 1.256 . S
C232 C225 1.496 . S
C233 C200 1.448 . S
C233 H210 0.930 . S
C233 C234 1.328 . S
C234 C205 1.427 . S
C234 H211 0.929 . S
C234 C233 1.328 . S
C235 O219 1.264 . S
C235 O220 1.243 . S
C236 C239 1.399 . S
C236 C240 1.383 . S
C236 C243 1.496 . S
C237 C238 1.399 . S
C237 C240 1.389 . S
C238 C237 1.399 . S
C238 C241 1.380 . S
C238 H248 0.929 . S
C239 C236 1.399 . S
C239 C241 1.392 . S
C239 H249 0.929 . S
C240 C236 1.383 . S
C240 C237 1.389 . S
C240 H250 0.931 . S
C241 C238 1.380 . S
C241 C239 1.392 . S
C241 H251 0.929 . S
C242 O222 1.266 . S
C242 O223 1.248 . S
C243 Tb179 2.802 . S
C243 O218 1.264 . S
C243 O221 1.256 . S
C243 C236 1.496 . S
H244 C227 0.929 . S
H245 C228 0.929 . S
H246 C229 0.929 . S
H247 C230 0.931 . S
H248 C238 0.929 . S
H249 C239 0.929 . S
H250 C240 0.931 . S
H251 C241 0.929 . S
Tb252 N281 2.617 . S
Tb252 N287 2.572 . S
Tb252 O296 2.465 . S
Tb252 O297 2.387 . S
Tb252 O299 2.428 . S
Tb252 O300 2.308 . S
Tb252 O304 2.349 . S
Tb252 O307 2.393 . S
Tb252 C316 2.802 . S
C253 N254 1.379 . S
C253 C256 1.416 . S
C253 C260 1.424 . S
N254 C253 1.379 . S
N254 C257 1.334 . S
N254 Tb263 2.617 . S
C255 C257 1.390 . S
C255 C258 1.339 . S
C255 H275 0.930 . S
C256 C253 1.416 . S
C256 C258 1.416 . S
C256 C262 1.448 . S
C257 N254 1.334 . S
C257 C255 1.390 . S
C257 H268 0.930 . S
C258 C255 1.339 . S
C258 C256 1.416 . S
C258 H279 0.930 . S
C259 C260 1.413 . S
C259 C261 1.427 . S
C259 C265 1.416 . S
C260 C253 1.424 . S
C260 C259 1.413 . S
C260 N264 1.361 . S
C261 C259 1.427 . S
C261 C262 1.328 . S
C261 H276 0.929 . S
C262 C256 1.448 . S
C262 C261 1.328 . S
C262 H277 0.930 . S
Tb263 N254 2.617 . S
Tb263 N264 2.572 . S
Tb263 O298 2.349 . S
Tb263 O301 2.393 . S
Tb263 O302 2.465 . S
Tb263 O303 2.387 . S
Tb263 O305 2.428 . S
Tb263 O306 2.308 . S
Tb263 C327 2.802 . S
N264 C260 1.361 . S
N264 Tb263 2.572 . S
N264 C266 1.340 . S
C265 C259 1.416 . S
C265 C267 1.332 . S
C265 H273 0.931 . S
C266 N264 1.340 . S
C266 C267 1.407 . S
C266 H272 0.930 . S
C267 C265 1.332 . S
C267 C266 1.407 . S
C267 H269 0.929 . S
H268 C257 0.930 . S
H269 C267 0.929 . S
H270 C285 0.930 . S
H271 C292 0.929 . S
H272 C266 0.930 . S
H273 C265 0.931 . S
H274 C288 0.930 . S
H275 C255 0.930 . S
H276 C261 0.929 . S
H277 C262 0.930 . S
H278 C283 0.930 . S
H279 C258 0.930 . S
H280 C291 0.931 . S
N281 Tb252 2.617 . S
N281 C282 1.379 . S
N281 C285 1.334 . S
C282 N281 1.379 . S
C282 C284 1.416 . S
C282 C290 1.424 . S
C283 H278 0.930 . S
C283 C285 1.390 . S
C283 C286 1.339 . S
C284 C282 1.416 . S
C284 C286 1.416 . S
C284 C317 1.448 . S
C285 H270 0.930 . S
C285 N281 1.334 . S
C285 C283 1.390 . S
C286 C283 1.339 . S
C286 C284 1.416 . S
C286 H293 0.930 . S
N287 Tb252 2.572 . S
N287 C288 1.340 . S
N287 C290 1.361 . S
C288 H274 0.930 . S
C288 N287 1.340 . S
C288 C292 1.407 . S
C289 C290 1.413 . S
C289 C291 1.416 . S
C289 C318 1.427 . S
C290 C282 1.424 . S
C290 N287 1.361 . S
C290 C289 1.413 . S
C291 H280 0.931 . S
C291 C289 1.416 . S
C291 C292 1.332 . S
C292 H271 0.929 . S
C292 C288 1.407 . S
C292 C291 1.332 . S
H293 C286 0.930 . S
H294 C317 0.930 . S
H295 C318 0.929 . S
O296 Tb252 2.465 . S
O296 C316 1.264 . S
O297 Tb252 2.387 . S
O297 C308 1.264 . S
O298 Tb263 2.349 . S
O298 C308 1.243 . S
O299 Tb252 2.428 . S
O299 C316 1.256 . S
O300 Tb252 2.308 . S
O300 C315 1.266 . S
O301 Tb263 2.393 . S
O301 C315 1.248 . S
O302 Tb263 2.465 . S
O302 C327 1.264 . S
O303 Tb263 2.387 . S
O303 C319 1.264 . S
O304 Tb252 2.349 . S
O304 C319 1.243 . S
O305 Tb263 2.428 . S
O305 C327 1.256 . S
O306 Tb263 2.308 . S
O306 C326 1.266 . S
O307 Tb252 2.393 . S
O307 C326 1.248 . S
C308 O297 1.264 . S
C308 O298 1.243 . S
C309 C312 1.399 . S
C309 C314 1.383 . S
C309 C316 1.496 . S
C310 C311 1.399 . S
C310 C314 1.389 . S
C311 C310 1.399 . S
C311 C313 1.380 . S
C311 H328 0.929 . S
C312 C309 1.399 . S
C312 C313 1.392 . S
C312 H329 0.929 . S
C313 C311 1.380 . S
C313 C312 1.392 . S
C313 H330 0.929 . S
C314 C309 1.383 . S
C314 C310 1.389 . S
C314 H331 0.931 . S
C315 O300 1.266 . S
C315 O301 1.248 . S
C316 Tb252 2.802 . S
C316 O296 1.264 . S
C316 O299 1.256 . S
C316 C309 1.496 . S
C317 C284 1.448 . S
C317 H294 0.930 . S
C317 C318 1.328 . S
C318 C289 1.427 . S
C318 H295 0.929 . S
C318 C317 1.328 . S
C319 O303 1.264 . S
C319 O304 1.243 . S
C320 C323 1.399 . S
C320 C324 1.383 . S
C320 C327 1.496 . S
C321 C322 1.399 . S
C321 C324 1.389 . S
C322 C321 1.399 . S
C322 C325 1.380 . S
C322 H332 0.929 . S
C323 C320 1.399 . S
C323 C325 1.392 . S
C323 H333 0.929 . S
C324 C320 1.383 . S
C324 C321 1.389 . S
C324 H334 0.931 . S
C325 C322 1.380 . S
C325 C323 1.392 . S
C325 H335 0.929 . S
C326 O306 1.266 . S
C326 O307 1.248 . S
C327 Tb263 2.802 . S
C327 O302 1.264 . S
C327 O305 1.256 . S
C327 C320 1.496 . S
H328 C311 0.929 . S
H329 C312 0.929 . S
H330 C313 0.929 . S
H331 C314 0.931 . S
H332 C322 0.929 . S
H333 C323 0.929 . S
H334 C324 0.931 . S
H335 C325 0.929 . S
Tb336 N365 2.617 . S
Tb336 N371 2.572 . S
Tb336 O380 2.465 1_556 S
Tb336 O381 2.387 . S
Tb336 O383 2.428 1_556 S
Tb336 O384 2.308 . S
Tb336 O388 2.349 1_556 S
Tb336 O391 2.393 1_556 S
Tb336 C400 2.802 1_556 S
C337 N338 1.379 . S
C337 C340 1.416 . S
C337 C344 1.424 . S
N338 C337 1.379 . S
N338 C341 1.334 . S
N338 Tb347 2.617 . S
C339 C341 1.390 . S
C339 C342 1.339 . S
C339 H359 0.930 . S
C340 C337 1.416 . S
C340 C342 1.416 . S
C340 C346 1.448 . S
C341 N338 1.334 . S
C341 C339 1.390 . S
C341 H352 0.930 . S
C342 C339 1.339 . S
C342 C340 1.416 . S
C342 H363 0.930 . S
C343 C344 1.413 . S
C343 C345 1.427 . S
C343 C349 1.416 . S
C344 C337 1.424 . S
C344 C343 1.413 . S
C344 N348 1.361 . S
C345 C343 1.427 . S
C345 C346 1.328 . S
C345 H360 0.929 . S
C346 C340 1.448 . S
C346 C345 1.328 . S
C346 H361 0.930 . S
Tb347 N338 2.617 . S
Tb347 N348 2.572 . S
Tb347 O382 2.349 1_554 S
Tb347 O385 2.393 1_554 S
Tb347 O386 2.465 1_554 S
Tb347 O387 2.387 . S
Tb347 O389 2.428 1_554 S
Tb347 O390 2.308 . S
Tb347 C411 2.802 1_554 S
N348 C344 1.361 . S
N348 Tb347 2.572 . S
N348 C350 1.340 . S
C349 C343 1.416 . S
C349 C351 1.332 . S
C349 H357 0.931 . S
C350 N348 1.340 . S
C350 C351 1.407 . S
C350 H356 0.930 . S
C351 C349 1.332 . S
C351 C350 1.407 . S
C351 H353 0.929 . S
H352 C341 0.930 . S
H353 C351 0.929 . S
H354 C369 0.930 . S
H355 C376 0.929 . S
H356 C350 0.930 . S
H357 C349 0.931 . S
H358 C372 0.930 . S
H359 C339 0.930 . S
H360 C345 0.929 . S
H361 C346 0.930 . S
H362 C367 0.930 . S
H363 C342 0.930 . S
H364 C375 0.931 . S
N365 Tb336 2.617 . S
N365 C366 1.379 . S
N365 C369 1.334 . S
C366 N365 1.379 . S
C366 C368 1.416 . S
C366 C374 1.424 . S
C367 H362 0.930 . S
C367 C369 1.390 . S
C367 C370 1.339 . S
C368 C366 1.416 . S
C368 C370 1.416 . S
C368 C401 1.448 . S
C369 H354 0.930 . S
C369 N365 1.334 . S
C369 C367 1.390 . S
C370 C367 1.339 . S
C370 C368 1.416 . S
C370 H377 0.930 . S
N371 Tb336 2.572 . S
N371 C372 1.340 . S
N371 C374 1.361 . S
C372 H358 0.930 . S
C372 N371 1.340 . S
C372 C376 1.407 . S
C373 C374 1.413 . S
C373 C375 1.416 . S
C373 C402 1.427 . S
C374 C366 1.424 . S
C374 N371 1.361 . S
C374 C373 1.413 . S
C375 H364 0.931 . S
C375 C373 1.416 . S
C375 C376 1.332 . S
C376 H355 0.929 . S
C376 C372 1.407 . S
C376 C375 1.332 . S
H377 C370 0.930 . S
H378 C401 0.930 . S
H379 C402 0.929 . S
O380 Tb336 2.465 1_554 S
O380 C400 1.264 . S
O381 Tb336 2.387 . S
O381 C392 1.264 . S
O382 Tb347 2.349 1_556 S
O382 C392 1.243 . S
O383 Tb336 2.428 1_554 S
O383 C400 1.256 . S
O384 Tb336 2.308 . S
O384 C399 1.266 . S
O385 Tb347 2.393 1_556 S
O385 C399 1.248 . S
O386 Tb347 2.465 1_556 S
O386 C411 1.264 . S
O387 Tb347 2.387 . S
O387 C403 1.264 . S
O388 Tb336 2.349 1_554 S
O388 C403 1.243 . S
O389 Tb347 2.428 1_556 S
O389 C411 1.256 . S
O390 Tb347 2.308 . S
O390 C410 1.266 . S
O391 Tb336 2.393 1_554 S
O391 C410 1.248 . S
C392 O381 1.264 . S
C392 O382 1.243 . S
C393 C396 1.399 . S
C393 C398 1.383 . S
C393 C400 1.496 . S
C394 C395 1.399 . S
C394 C398 1.389 . S
C395 C394 1.399 . S
C395 C397 1.380 . S
C395 H412 0.929 . S
C396 C393 1.399 . S
C396 C397 1.392 . S
C396 H413 0.929 . S
C397 C395 1.380 . S
C397 C396 1.392 . S
C397 H414 0.929 . S
C398 C393 1.383 . S
C398 C394 1.389 . S
C398 H415 0.931 . S
C399 O384 1.266 . S
C399 O385 1.248 . S
C400 Tb336 2.802 1_554 S
C400 O380 1.264 . S
C400 O383 1.256 . S
C400 C393 1.496 . S
C401 C368 1.448 . S
C401 H378 0.930 . S
C401 C402 1.328 . S
C402 C373 1.427 . S
C402 H379 0.929 . S
C402 C401 1.328 . S
C403 O387 1.264 . S
C403 O388 1.243 . S
C404 C407 1.399 . S
C404 C408 1.383 . S
C404 C411 1.496 . S
C405 C406 1.399 . S
C405 C408 1.389 . S
C406 C405 1.399 . S
C406 C409 1.380 . S
C406 H416 0.929 . S
C407 C404 1.399 . S
C407 C409 1.392 . S
C407 H417 0.929 . S
C408 C404 1.383 . S
C408 C405 1.389 . S
C408 H418 0.931 . S
C409 C406 1.380 . S
C409 C407 1.392 . S
C409 H419 0.929 . S
C410 O390 1.266 . S
C410 O391 1.248 . S
C411 Tb347 2.802 1_556 S
C411 O386 1.264 . S
C411 O389 1.256 . S
C411 C404 1.496 . S
H412 C395 0.929 . S
H413 C396 0.929 . S
H414 C397 0.929 . S
H415 C398 0.931 . S
H416 C406 0.929 . S
H417 C407 0.929 . S
H418 C408 0.931 . S
H419 C409 0.929 . S
Tb420 N449 2.617 . S
Tb420 N455 2.572 . S
Tb420 O464 2.465 1_554 S
Tb420 O465 2.387 . S
Tb420 O467 2.428 1_554 S
Tb420 O468 2.308 . S
Tb420 O472 2.349 1_554 S
Tb420 O475 2.393 1_554 S
Tb420 C484 2.802 1_554 S
C421 N422 1.379 . S
C421 C424 1.416 . S
C421 C428 1.424 . S
N422 C421 1.379 . S
N422 C425 1.334 . S
N422 Tb431 2.617 . S
C423 C425 1.390 . S
C423 C426 1.339 . S
C423 H443 0.930 . S
C424 C421 1.416 . S
C424 C426 1.416 . S
C424 C430 1.448 . S
C425 N422 1.334 . S
C425 C423 1.390 . S
C425 H436 0.930 . S
C426 C423 1.339 . S
C426 C424 1.416 . S
C426 H447 0.930 . S
C427 C428 1.413 . S
C427 C429 1.427 . S
C427 C433 1.416 . S
C428 C421 1.424 . S
C428 C427 1.413 . S
C428 N432 1.361 . S
C429 C427 1.427 . S
C429 C430 1.328 . S
C429 H444 0.929 . S
C430 C424 1.448 . S
C430 C429 1.328 . S
C430 H445 0.930 . S
Tb431 N422 2.617 . S
Tb431 N432 2.572 . S
Tb431 O466 2.349 1_556 S
Tb431 O469 2.393 1_556 S
Tb431 O470 2.465 1_556 S
Tb431 O471 2.387 . S
Tb431 O473 2.428 1_556 S
Tb431 O474 2.308 . S
Tb431 C495 2.802 1_556 S
N432 C428 1.361 . S
N432 Tb431 2.572 . S
N432 C434 1.340 . S
C433 C427 1.416 . S
C433 C435 1.332 . S
C433 H441 0.931 . S
C434 N432 1.340 . S
C434 C435 1.407 . S
C434 H440 0.930 . S
C435 C433 1.332 . S
C435 C434 1.407 . S
C435 H437 0.929 . S
H436 C425 0.930 . S
H437 C435 0.929 . S
H438 C453 0.930 . S
H439 C460 0.929 . S
H440 C434 0.930 . S
H441 C433 0.931 . S
H442 C456 0.930 . S
H443 C423 0.930 . S
H444 C429 0.929 . S
H445 C430 0.930 . S
H446 C451 0.930 . S
H447 C426 0.930 . S
H448 C459 0.931 . S
N449 Tb420 2.617 . S
N449 C450 1.379 . S
N449 C453 1.334 . S
C450 N449 1.379 . S
C450 C452 1.416 . S
C450 C458 1.424 . S
C451 H446 0.930 . S
C451 C453 1.390 . S
C451 C454 1.339 . S
C452 C450 1.416 . S
C452 C454 1.416 . S
C452 C485 1.448 . S
C453 H438 0.930 . S
C453 N449 1.334 . S
C453 C451 1.390 . S
C454 C451 1.339 . S
C454 C452 1.416 . S
C454 H461 0.930 . S
N455 Tb420 2.572 . S
N455 C456 1.340 . S
N455 C458 1.361 . S
C456 H442 0.930 . S
C456 N455 1.340 . S
C456 C460 1.407 . S
C457 C458 1.413 . S
C457 C459 1.416 . S
C457 C486 1.427 . S
C458 C450 1.424 . S
C458 N455 1.361 . S
C458 C457 1.413 . S
C459 H448 0.931 . S
C459 C457 1.416 . S
C459 C460 1.332 . S
C460 H439 0.929 . S
C460 C456 1.407 . S
C460 C459 1.332 . S
H461 C454 0.930 . S
H462 C485 0.930 . S
H463 C486 0.929 . S
O464 Tb420 2.465 1_556 S
O464 C484 1.264 . S
O465 Tb420 2.387 . S
O465 C476 1.264 . S
O466 Tb431 2.349 1_554 S
O466 C476 1.243 . S
O467 Tb420 2.428 1_556 S
O467 C484 1.256 . S
O468 Tb420 2.308 . S
O468 C483 1.266 . S
O469 Tb431 2.393 1_554 S
O469 C483 1.248 . S
O470 Tb431 2.465 1_554 S
O470 C495 1.264 . S
O471 Tb431 2.387 . S
O471 C487 1.264 . S
O472 Tb420 2.349 1_556 S
O472 C487 1.243 . S
O473 Tb431 2.428 1_554 S
O473 C495 1.256 . S
O474 Tb431 2.308 . S
O474 C494 1.266 . S
O475 Tb420 2.393 1_556 S
O475 C494 1.248 . S
C476 O465 1.264 . S
C476 O466 1.243 . S
C477 C480 1.399 . S
C477 C482 1.383 . S
C477 C484 1.496 . S
C478 C479 1.399 . S
C478 C482 1.389 . S
C479 C478 1.399 . S
C479 C481 1.380 . S
C479 H496 0.929 . S
C480 C477 1.399 . S
C480 C481 1.392 . S
C480 H497 0.929 . S
C481 C479 1.380 . S
C481 C480 1.392 . S
C481 H498 0.929 . S
C482 C477 1.383 . S
C482 C478 1.389 . S
C482 H499 0.931 . S
C483 O468 1.266 . S
C483 O469 1.248 . S
C484 Tb420 2.802 1_556 S
C484 O464 1.264 . S
C484 O467 1.256 . S
C484 C477 1.496 . S
C485 C452 1.448 . S
C485 H462 0.930 . S
C485 C486 1.328 . S
C486 C457 1.427 . S
C486 H463 0.929 . S
C486 C485 1.328 . S
C487 O471 1.264 . S
C487 O472 1.243 . S
C488 C491 1.399 . S
C488 C492 1.383 . S
C488 C495 1.496 . S
C489 C490 1.399 . S
C489 C492 1.389 . S
C490 C489 1.399 . S
C490 C493 1.380 . S
C490 H500 0.929 . S
C491 C488 1.399 . S
C491 C493 1.392 . S
C491 H501 0.929 . S
C492 C488 1.383 . S
C492 C489 1.389 . S
C492 H502 0.931 . S
C493 C490 1.380 . S
C493 C491 1.392 . S
C493 H503 0.929 . S
C494 O474 1.266 . S
C494 O475 1.248 . S
C495 Tb431 2.802 1_554 S
C495 O470 1.264 . S
C495 O473 1.256 . S
C495 C488 1.496 . S
H496 C479 0.929 . S
H497 C480 0.929 . S
H498 C481 0.929 . S
H499 C482 0.931 . S
H500 C490 0.929 . S
H501 C491 0.929 . S
H502 C492 0.931 . S
H503 C493 0.929 . S
Tb504 N533 2.617 . S
Tb504 N539 2.572 . S
Tb504 O548 2.465 1_554 S
Tb504 O549 2.387 . S
Tb504 O551 2.428 1_554 S
Tb504 O552 2.308 . S
Tb504 O556 2.349 1_554 S
Tb504 O559 2.393 1_554 S
Tb504 C568 2.802 1_554 S
C505 N506 1.379 . S
C505 C508 1.416 . S
C505 C512 1.424 . S
N506 C505 1.379 . S
N506 C509 1.334 . S
N506 Tb515 2.617 . S
C507 C509 1.390 . S
C507 C510 1.339 . S
C507 H527 0.930 . S
C508 C505 1.416 . S
C508 C510 1.416 . S
C508 C514 1.448 . S
C509 N506 1.334 . S
C509 C507 1.390 . S
C509 H520 0.930 . S
C510 C507 1.339 . S
C510 C508 1.416 . S
C510 H531 0.930 . S
C511 C512 1.413 . S
C511 C513 1.427 . S
C511 C517 1.416 . S
C512 C505 1.424 . S
C512 C511 1.413 . S
C512 N516 1.361 . S
C513 C511 1.427 . S
C513 C514 1.328 . S
C513 H528 0.929 . S
C514 C508 1.448 . S
C514 C513 1.328 . S
C514 H529 0.930 . S
Tb515 N506 2.617 . S
Tb515 N516 2.572 . S
Tb515 O550 2.349 1_556 S
Tb515 O553 2.393 1_556 S
Tb515 O554 2.465 1_556 S
Tb515 O555 2.387 . S
Tb515 O557 2.428 1_556 S
Tb515 O558 2.308 . S
Tb515 C579 2.802 1_556 S
N516 C512 1.361 . S
N516 Tb515 2.572 . S
N516 C518 1.340 . S
C517 C511 1.416 . S
C517 C519 1.332 . S
C517 H525 0.931 . S
C518 N516 1.340 . S
C518 C519 1.407 . S
C518 H524 0.930 . S
C519 C517 1.332 . S
C519 C518 1.407 . S
C519 H521 0.929 . S
H520 C509 0.930 . S
H521 C519 0.929 . S
H522 C537 0.930 . S
H523 C544 0.929 . S
H524 C518 0.930 . S
H525 C517 0.931 . S
H526 C540 0.930 . S
H527 C507 0.930 . S
H528 C513 0.929 . S
H529 C514 0.930 . S
H530 C535 0.930 . S
H531 C510 0.930 . S
H532 C543 0.931 . S
N533 Tb504 2.617 . S
N533 C534 1.379 . S
N533 C537 1.334 . S
C534 N533 1.379 . S
C534 C536 1.416 . S
C534 C542 1.424 . S
C535 H530 0.930 . S
C535 C537 1.390 . S
C535 C538 1.339 . S
C536 C534 1.416 . S
C536 C538 1.416 . S
C536 C569 1.448 . S
C537 H522 0.930 . S
C537 N533 1.334 . S
C537 C535 1.390 . S
C538 C535 1.339 . S
C538 C536 1.416 . S
C538 H545 0.930 . S
N539 Tb504 2.572 . S
N539 C540 1.340 . S
N539 C542 1.361 . S
C540 H526 0.930 . S
C540 N539 1.340 . S
C540 C544 1.407 . S
C541 C542 1.413 . S
C541 C543 1.416 . S
C541 C570 1.427 . S
C542 C534 1.424 . S
C542 N539 1.361 . S
C542 C541 1.413 . S
C543 H532 0.931 . S
C543 C541 1.416 . S
C543 C544 1.332 . S
C544 H523 0.929 . S
C544 C540 1.407 . S
C544 C543 1.332 . S
H545 C538 0.930 . S
H546 C569 0.930 . S
H547 C570 0.929 . S
O548 Tb504 2.465 1_556 S
O548 C568 1.264 . S
O549 Tb504 2.387 . S
O549 C560 1.264 . S
O550 Tb515 2.349 1_554 S
O550 C560 1.243 . S
O551 Tb504 2.428 1_556 S
O551 C568 1.256 . S
O552 Tb504 2.308 . S
O552 C567 1.266 . S
O553 Tb515 2.393 1_554 S
O553 C567 1.248 . S
O554 Tb515 2.465 1_554 S
O554 C579 1.264 . S
O555 Tb515 2.387 . S
O555 C571 1.264 . S
O556 Tb504 2.349 1_556 S
O556 C571 1.243 . S
O557 Tb515 2.428 1_554 S
O557 C579 1.256 . S
O558 Tb515 2.308 . S
O558 C578 1.266 . S
O559 Tb504 2.393 1_556 S
O559 C578 1.248 . S
C560 O549 1.264 . S
C560 O550 1.243 . S
C561 C564 1.399 . S
C561 C566 1.383 . S
C561 C568 1.496 . S
C562 C563 1.399 . S
C562 C566 1.389 . S
C563 C562 1.399 . S
C563 C565 1.380 . S
C563 H580 0.929 . S
C564 C561 1.399 . S
C564 C565 1.392 . S
C564 H581 0.929 . S
C565 C563 1.380 . S
C565 C564 1.392 . S
C565 H582 0.929 . S
C566 C561 1.383 . S
C566 C562 1.389 . S
C566 H583 0.931 . S
C567 O552 1.266 . S
C567 O553 1.248 . S
C568 Tb504 2.802 1_556 S
C568 O548 1.264 . S
C568 O551 1.256 . S
C568 C561 1.496 . S
C569 C536 1.448 . S
C569 H546 0.930 . S
C569 C570 1.328 . S
C570 C541 1.427 . S
C570 H547 0.929 . S
C570 C569 1.328 . S
C571 O555 1.264 . S
C571 O556 1.243 . S
C572 C575 1.399 . S
C572 C576 1.383 . S
C572 C579 1.496 . S
C573 C574 1.399 . S
C573 C576 1.389 . S
C574 C573 1.399 . S
C574 C577 1.380 . S
C574 H584 0.929 . S
C575 C572 1.399 . S
C575 C577 1.392 . S
C575 H585 0.929 . S
C576 C572 1.383 . S
C576 C573 1.389 . S
C576 H586 0.931 . S
C577 C574 1.380 . S
C577 C575 1.392 . S
C577 H587 0.929 . S
C578 O558 1.266 . S
C578 O559 1.248 . S
C579 Tb515 2.802 1_554 S
C579 O554 1.264 . S
C579 O557 1.256 . S
C579 C572 1.496 . S
H580 C563 0.929 . S
H581 C564 0.929 . S
H582 C565 0.929 . S
H583 C566 0.931 . S
H584 C574 0.929 . S
H585 C575 0.929 . S
H586 C576 0.931 . S
H587 C577 0.929 . S
Tb588 N617 2.617 . S
Tb588 N623 2.572 . S
Tb588 O632 2.465 1_556 S
Tb588 O633 2.387 . S
Tb588 O635 2.428 1_556 S
Tb588 O636 2.308 . S
Tb588 O640 2.349 1_556 S
Tb588 O643 2.393 1_556 S
Tb588 C652 2.802 1_556 S
C589 N590 1.379 . S
C589 C592 1.416 . S
C589 C596 1.424 . S
N590 C589 1.379 . S
N590 C593 1.334 . S
N590 Tb599 2.617 . S
C591 C593 1.390 . S
C591 C594 1.339 . S
C591 H611 0.930 . S
C592 C589 1.416 . S
C592 C594 1.416 . S
C592 C598 1.448 . S
C593 N590 1.334 . S
C593 C591 1.390 . S
C593 H604 0.930 . S
C594 C591 1.339 . S
C594 C592 1.416 . S
C594 H615 0.930 . S
C595 C596 1.413 . S
C595 C597 1.427 . S
C595 C601 1.416 . S
C596 C589 1.424 . S
C596 C595 1.413 . S
C596 N600 1.361 . S
C597 C595 1.427 . S
C597 C598 1.328 . S
C597 H612 0.929 . S
C598 C592 1.448 . S
C598 C597 1.328 . S
C598 H613 0.930 . S
Tb599 N590 2.617 . S
Tb599 N600 2.572 . S
Tb599 O634 2.349 1_554 S
Tb599 O637 2.393 1_554 S
Tb599 O638 2.465 1_554 S
Tb599 O639 2.387 . S
Tb599 O641 2.428 1_554 S
Tb599 O642 2.308 . S
Tb599 C663 2.802 1_554 S
N600 C596 1.361 . S
N600 Tb599 2.572 . S
N600 C602 1.340 . S
C601 C595 1.416 . S
C601 C603 1.332 . S
C601 H609 0.931 . S
C602 N600 1.340 . S
C602 C603 1.407 . S
C602 H608 0.930 . S
C603 C601 1.332 . S
C603 C602 1.407 . S
C603 H605 0.929 . S
H604 C593 0.930 . S
H605 C603 0.929 . S
H606 C621 0.930 . S
H607 C628 0.929 . S
H608 C602 0.930 . S
H609 C601 0.931 . S
H610 C624 0.930 . S
H611 C591 0.930 . S
H612 C597 0.929 . S
H613 C598 0.930 . S
H614 C619 0.930 . S
H615 C594 0.930 . S
H616 C627 0.931 . S
N617 Tb588 2.617 . S
N617 C618 1.379 . S
N617 C621 1.334 . S
C618 N617 1.379 . S
C618 C620 1.416 . S
C618 C626 1.424 . S
C619 H614 0.930 . S
C619 C621 1.390 . S
C619 C622 1.339 . S
C620 C618 1.416 . S
C620 C622 1.416 . S
C620 C653 1.448 . S
C621 H606 0.930 . S
C621 N617 1.334 . S
C621 C619 1.390 . S
C622 C619 1.339 . S
C622 C620 1.416 . S
C622 H629 0.930 . S
N623 Tb588 2.572 . S
N623 C624 1.340 . S
N623 C626 1.361 . S
C624 H610 0.930 . S
C624 N623 1.340 . S
C624 C628 1.407 . S
C625 C626 1.413 . S
C625 C627 1.416 . S
C625 C654 1.427 . S
C626 C618 1.424 . S
C626 N623 1.361 . S
C626 C625 1.413 . S
C627 H616 0.931 . S
C627 C625 1.416 . S
C627 C628 1.332 . S
C628 H607 0.929 . S
C628 C624 1.407 . S
C628 C627 1.332 . S
H629 C622 0.930 . S
H630 C653 0.930 . S
H631 C654 0.929 . S
O632 Tb588 2.465 1_554 S
O632 C652 1.264 . S
O633 Tb588 2.387 . S
O633 C644 1.264 . S
O634 Tb599 2.349 1_556 S
O634 C644 1.243 . S
O635 Tb588 2.428 1_554 S
O635 C652 1.256 . S
O636 Tb588 2.308 . S
O636 C651 1.266 . S
O637 Tb599 2.393 1_556 S
O637 C651 1.248 . S
O638 Tb599 2.465 1_556 S
O638 C663 1.264 . S
O639 Tb599 2.387 . S
O639 C655 1.264 . S
O640 Tb588 2.349 1_554 S
O640 C655 1.243 . S
O641 Tb599 2.428 1_556 S
O641 C663 1.256 . S
O642 Tb599 2.308 . S
O642 C662 1.266 . S
O643 Tb588 2.393 1_554 S
O643 C662 1.248 . S
C644 O633 1.264 . S
C644 O634 1.243 . S
C645 C648 1.399 . S
C645 C650 1.383 . S
C645 C652 1.496 . S
C646 C647 1.399 . S
C646 C650 1.389 . S
C647 C646 1.399 . S
C647 C649 1.380 . S
C647 H664 0.929 . S
C648 C645 1.399 . S
C648 C649 1.392 . S
C648 H665 0.929 . S
C649 C647 1.380 . S
C649 C648 1.392 . S
C649 H666 0.929 . S
C650 C645 1.383 . S
C650 C646 1.389 . S
C650 H667 0.931 . S
C651 O636 1.266 . S
C651 O637 1.248 . S
C652 Tb588 2.802 1_554 S
C652 O632 1.264 . S
C652 O635 1.256 . S
C652 C645 1.496 . S
C653 C620 1.448 . S
C653 H630 0.930 . S
C653 C654 1.328 . S
C654 C625 1.427 . S
C654 H631 0.929 . S
C654 C653 1.328 . S
C655 O639 1.264 . S
C655 O640 1.243 . S
C656 C659 1.399 . S
C656 C660 1.383 . S
C656 C663 1.496 . S
C657 C658 1.399 . S
C657 C660 1.389 . S
C658 C657 1.399 . S
C658 C661 1.380 . S
C658 H668 0.929 . S
C659 C656 1.399 . S
C659 C661 1.392 . S
C659 H669 0.929 . S
C660 C656 1.383 . S
C660 C657 1.389 . S
C660 H670 0.931 . S
C661 C658 1.380 . S
C661 C659 1.392 . S
C661 H671 0.929 . S
C662 O642 1.266 . S
C662 O643 1.248 . S
C663 Tb599 2.802 1_556 S
C663 O638 1.264 . S
C663 O641 1.256 . S
C663 C656 1.496 . S
H664 C647 0.929 . S
H665 C648 0.929 . S
H666 C649 0.929 . S
H667 C650 0.931 . S
H668 C658 0.929 . S
H669 C659 0.929 . S
H670 C660 0.931 . S
H671 C661 0.929 . S
H672 C678 0.930 . S
H673 C682 0.930 . S
H674 C687 0.929 . S
H675 C685 0.929 . S
H676 C680 0.929 . S
H677 C686 0.929 . S
C678 H672 0.930 . S
C678 C679 1.367 . S
C678 C686 1.378 . S
C679 C678 1.367 . S
C679 C687 1.433 . S
C680 H676 0.929 . S
C680 C682 1.378 . S
C680 C684 1.350 . S
C681 C684 1.463 . S
C681 C686 1.350 . S
C681 N689 1.427 . S
C682 H673 0.930 . S
C682 C680 1.378 . S
C682 C683 1.367 . S
C683 C682 1.367 . S
C683 C685 1.433 . S
C684 C680 1.350 . S
C684 C681 1.463 . S
C684 N688 1.427 . S
C685 H675 0.929 . S
C685 C683 1.433 . S
C685 N688 1.384 . S
C686 H677 0.929 . S
C686 C678 1.378 . S
C686 C681 1.350 . S
C687 H674 0.929 . S
C687 C679 1.433 . S
C687 N689 1.384 . S
N688 C684 1.427 . S
N688 C685 1.384 . S
N689 C681 1.427 . S
N689 C687 1.384 . S
H690 C696 0.930 . S
H691 C700 0.930 . S
H692 C705 0.929 . S
H693 C703 0.929 . S
H694 C698 0.929 . S
H695 C704 0.929 . S
C696 H690 0.930 . S
C696 C697 1.367 . S
C696 C704 1.378 . S
C697 C696 1.367 . S
C697 C705 1.433 . S
C698 H694 0.929 . S
C698 C700 1.378 . S
C698 C702 1.350 . S
C699 C702 1.463 . S
C699 C704 1.350 . S
C699 N707 1.427 . S
C700 H691 0.930 . S
C700 C698 1.378 . S
C700 C701 1.367 . S
C701 C700 1.367 . S
C701 C703 1.433 . S
C702 C698 1.350 . S
C702 C699 1.463 . S
C702 N706 1.427 . S
C703 H693 0.929 . S
C703 C701 1.433 . S
C703 N706 1.384 . S
C704 H695 0.929 . S
C704 C696 1.378 . S
C704 C699 1.350 . S
C705 H692 0.929 . S
C705 C697 1.433 . S
C705 N707 1.384 . S
N706 C702 1.427 . S
N706 C703 1.384 . S
N707 C699 1.427 . S
N707 C705 1.384 . S
H708 C714 0.930 . S
H709 C718 0.930 . S
H710 C723 0.929 . S
H711 C721 0.929 . S
H712 C716 0.929 . S
H713 C722 0.929 . S
C714 H708 0.930 . S
C714 C715 1.367 . S
C714 C722 1.378 . S
C715 C714 1.367 . S
C715 C723 1.433 . S
C716 H712 0.929 . S
C716 C718 1.378 . S
C716 C720 1.350 . S
C717 C720 1.463 . S
C717 C722 1.350 . S
C717 N725 1.427 . S
C718 H709 0.930 . S
C718 C716 1.378 . S
C718 C719 1.367 . S
C719 C718 1.367 . S
C719 C721 1.433 . S
C720 C716 1.350 . S
C720 C717 1.463 . S
C720 N724 1.427 . S
C721 H711 0.929 . S
C721 C719 1.433 . S
C721 N724 1.384 . S
C722 H713 0.929 . S
C722 C714 1.378 . S
C722 C717 1.350 . S
C723 H710 0.929 . S
C723 C715 1.433 . S
C723 N725 1.384 . S
N724 C720 1.427 . S
N724 C721 1.384 . S
N725 C717 1.427 . S
N725 C723 1.384 . S
H726 C732 0.930 . S
H727 C736 0.930 . S
H728 C741 0.929 . S
H729 C739 0.929 . S
H730 C734 0.929 . S
H731 C740 0.929 . S
C732 H726 0.930 . S
C732 C733 1.367 . S
C732 C740 1.378 . S
C733 C732 1.367 . S
C733 C741 1.433 . S
C734 H730 0.929 . S
C734 C736 1.378 . S
C734 C738 1.350 . S
C735 C738 1.463 . S
C735 C740 1.350 . S
C735 N743 1.427 . S
C736 H727 0.930 . S
C736 C734 1.378 . S
C736 C737 1.367 . S
C737 C736 1.367 . S
C737 C739 1.433 . S
C738 C734 1.350 . S
C738 C735 1.463 . S
C738 N742 1.427 . S
C739 H729 0.929 . S
C739 C737 1.433 . S
C739 N742 1.384 . S
C740 H731 0.929 . S
C740 C732 1.378 . S
C740 C735 1.350 . S
C741 H728 0.929 . S
C741 C733 1.433 . S
C741 N743 1.384 . S
N742 C738 1.427 . S
N742 C739 1.384 . S
N743 C735 1.427 . S
N743 C741 1.384 . S
H744 C750 0.930 . S
H745 C754 0.930 . S
H746 C759 0.929 . S
H747 C757 0.929 . S
H748 C752 0.929 . S
H749 C758 0.929 . S
C750 H744 0.930 . S
C750 C751 1.367 . S
C750 C758 1.378 . S
C751 C750 1.367 . S
C751 C759 1.433 . S
C752 H748 0.929 . S
C752 C754 1.378 . S
C752 C756 1.350 . S
C753 C756 1.463 1_565 S
C753 C758 1.350 . S
C753 N761 1.427 . S
C754 H745 0.930 . S
C754 C752 1.378 . S
C754 C755 1.367 . S
C755 C754 1.367 . S
C755 C757 1.433 . S
C756 C752 1.350 . S
C756 C753 1.463 1_545 S
C756 N760 1.427 . S
C757 H747 0.929 . S
C757 C755 1.433 . S
C757 N760 1.384 . S
C758 H749 0.929 . S
C758 C750 1.378 . S
C758 C753 1.350 . S
C759 H746 0.929 . S
C759 C751 1.433 . S
C759 N761 1.384 . S
N760 C756 1.427 . S
N760 C757 1.384 . S
N761 C753 1.427 . S
N761 C759 1.384 . S
H762 C768 0.930 . S
H763 C772 0.930 . S
H764 C777 0.929 . S
H765 C775 0.929 . S
H766 C770 0.929 . S
H767 C776 0.929 . S
C768 H762 0.930 . S
C768 C769 1.367 . S
C768 C776 1.378 . S
C769 C768 1.367 . S
C769 C777 1.433 . S
C770 H766 0.929 . S
C770 C772 1.378 . S
C770 C774 1.350 . S
C771 C774 1.463 . S
C771 C776 1.350 . S
C771 N779 1.427 . S
C772 H763 0.930 . S
C772 C770 1.378 . S
C772 C773 1.367 . S
C773 C772 1.367 . S
C773 C775 1.433 . S
C774 C770 1.350 . S
C774 C771 1.463 . S
C774 N778 1.427 . S
C775 H765 0.929 . S
C775 C773 1.433 . S
C775 N778 1.384 . S
C776 H767 0.929 . S
C776 C768 1.378 . S
C776 C771 1.350 . S
C777 H764 0.929 . S
C777 C769 1.433 . S
C777 N779 1.384 . S
N778 C774 1.427 . S
N778 C775 1.384 . S
N779 C771 1.427 . S
N779 C777 1.384 . S
H780 C786 0.930 . S
H781 C790 0.930 . S
H782 C795 0.929 . S
H783 C793 0.929 . S
H784 C788 0.929 . S
H785 C794 0.929 . S
C786 H780 0.930 . S
C786 C787 1.367 . S
C786 C794 1.378 . S
C787 C786 1.367 . S
C787 C795 1.433 . S
C788 H784 0.929 . S
C788 C790 1.378 . S
C788 C792 1.350 . S
C789 C792 1.463 1_565 S
C789 C794 1.350 . S
C789 N797 1.427 . S
C790 H781 0.930 . S
C790 C788 1.378 . S
C790 C791 1.367 . S
C791 C790 1.367 . S
C791 C793 1.433 . S
C792 C788 1.350 . S
C792 C789 1.463 1_545 S
C792 N796 1.427 . S
C793 H783 0.929 . S
C793 C791 1.433 . S
C793 N796 1.384 . S
C794 H785 0.929 . S
C794 C786 1.378 . S
C794 C789 1.350 . S
C795 H782 0.929 . S
C795 C787 1.433 . S
C795 N797 1.384 . S
N796 C792 1.427 . S
N796 C793 1.384 . S
N797 C789 1.427 . S
N797 C795 1.384 . S
H798 C804 0.930 . S
H799 C808 0.930 . S
H800 C813 0.929 . S
H801 C811 0.929 . S
H802 C806 0.929 . S
H803 C812 0.929 . S
C804 H798 0.930 . S
C804 C805 1.367 . S
C804 C812 1.378 . S
C805 C804 1.367 . S
C805 C813 1.433 . S
C806 H802 0.929 . S
C806 C808 1.378 . S
C806 C810 1.350 . S
C807 C810 1.463 . S
C807 C812 1.350 . S
C807 N815 1.427 . S
C808 H799 0.930 . S
C808 C806 1.378 . S
C808 C809 1.367 . S
C809 C808 1.367 . S
C809 C811 1.433 . S
C810 C806 1.350 . S
C810 C807 1.463 . S
C810 N814 1.427 . S
C811 H801 0.929 . S
C811 C809 1.433 . S
C811 N814 1.384 . S
C812 H803 0.929 . S
C812 C804 1.378 . S
C812 C807 1.350 . S
C813 H800 0.929 . S
C813 C805 1.433 . S
C813 N815 1.384 . S
N814 C810 1.427 . S
N814 C811 1.384 . S
N815 C807 1.427 . S
N815 C813 1.384 . S
H816 C822 0.930 . S
H817 C826 0.930 . S
H818 C831 0.929 . S
H819 C829 0.929 . S
H820 C824 0.929 . S
H821 C830 0.929 . S
C822 H816 0.930 . S
C822 C823 1.367 1_554 S
C822 C830 1.378 . S
C823 C822 1.367 1_556 S
C823 C831 1.433 . S
C824 H820 0.929 . S
C824 C826 1.378 . S
C824 C828 1.353 . S
C825 C828 1.464 1_554 S
C825 C830 1.355 . S
C825 N833 1.421 1_554 S
C826 H817 0.930 . S
C826 C824 1.378 . S
C826 C827 1.367 1_556 S
C827 C826 1.367 1_554 S
C827 C829 1.433 . S
C828 C824 1.353 . S
C828 C825 1.464 1_556 S
C828 N832 1.423 1_556 S
C829 H819 0.929 . S
C829 C827 1.433 . S
C829 N832 1.384 . S
C830 H821 0.929 . S
C830 C822 1.378 . S
C830 C825 1.355 . S
C831 H818 0.929 . S
C831 C823 1.433 . S
C831 N833 1.384 . S
N832 C828 1.423 1_554 S
N832 C829 1.384 . S
N833 C825 1.421 1_556 S
N833 C831 1.384 . S
H834 C840 0.930 . S
H835 C844 0.930 . S
H836 C849 0.929 . S
H837 C847 0.929 . S
H838 C842 0.929 . S
H839 C848 0.929 . S
C840 H834 0.930 . S
C840 C841 1.367 . S
C840 C848 1.378 . S
C841 C840 1.367 . S
C841 C849 1.433 1_554 S
C842 H838 0.929 . S
C842 C844 1.378 . S
C842 C846 1.350 . S
C843 C846 1.463 1_564 S
C843 C848 1.350 . S
C843 N851 1.427 1_554 S
C844 H835 0.930 . S
C844 C842 1.378 . S
C844 C845 1.367 . S
C845 C844 1.367 . S
C845 C847 1.433 1_556 S
C846 C842 1.350 . S
C846 C843 1.463 1_546 S
C846 N850 1.427 1_556 S
C847 H837 0.929 . S
C847 C845 1.433 1_554 S
C847 N850 1.384 . S
C848 H839 0.929 . S
C848 C840 1.378 . S
C848 C843 1.350 . S
C849 H836 0.929 . S
C849 C841 1.433 1_556 S
C849 N851 1.384 . S
N850 C846 1.427 1_554 S
N850 C847 1.384 . S
N851 C843 1.427 1_556 S
N851 C849 1.384 . S
H852 C858 0.930 . S
H853 C862 0.930 . S
H854 C867 0.929 . S
H855 C865 0.929 . S
H856 C860 0.929 . S
H857 C866 0.929 . S
C858 H852 0.930 . S
C858 C859 1.367 . S
C858 C866 1.378 . S
C859 C858 1.367 . S
C859 C867 1.433 1_554 S
C860 H856 0.929 . S
C860 C862 1.378 . S
C860 C864 1.350 . S
C861 C864 1.463 1_554 S
C861 C866 1.350 . S
C861 N869 1.427 1_554 S
C862 H853 0.930 . S
C862 C860 1.378 . S
C862 C863 1.367 . S
C863 C862 1.367 . S
C863 C865 1.433 1_556 S
C864 C860 1.350 . S
C864 C861 1.463 1_556 S
C864 N868 1.427 1_556 S
C865 H855 0.929 . S
C865 C863 1.433 1_554 S
C865 N868 1.384 . S
C866 H857 0.929 . S
C866 C858 1.378 . S
C866 C861 1.350 . S
C867 H854 0.929 . S
C867 C859 1.433 1_556 S
C867 N869 1.384 . S
N868 C864 1.427 1_554 S
N868 C865 1.384 . S
N869 C861 1.427 1_556 S
N869 C867 1.384 . S
H870 C876 0.930 . S
H871 C880 0.930 . S
H872 C885 0.929 . S
H873 C883 0.929 . S
H874 C878 0.929 . S
H875 C884 0.929 . S
C876 H870 0.930 . S
C876 C877 1.367 . S
C876 C884 1.378 . S
C877 C876 1.367 . S
C877 C885 1.433 1_556 S
C878 H874 0.929 . S
C878 C880 1.378 . S
C878 C882 1.350 . S
C879 C882 1.463 1_546 S
C879 C884 1.350 . S
C879 N887 1.427 1_556 S
C880 H871 0.930 . S
C880 C878 1.378 . S
C880 C881 1.367 . S
C881 C880 1.367 . S
C881 C883 1.433 1_554 S
C882 C878 1.350 . S
C882 C879 1.463 1_564 S
C882 N886 1.427 1_554 S
C883 H873 0.929 . S
C883 C881 1.433 1_556 S
C883 N886 1.384 . S
C884 H875 0.929 . S
C884 C876 1.378 . S
C884 C879 1.350 . S
C885 H872 0.929 . S
C885 C877 1.433 1_554 S
C885 N887 1.384 . S
N886 C882 1.427 1_556 S
N886 C883 1.384 . S
N887 C879 1.427 1_554 S
N887 C885 1.384 . S
H888 C894 0.930 . S
H889 C898 0.930 . S
H890 C903 0.929 . S
H891 C901 0.929 . S
H892 C896 0.929 . S
H893 C902 0.929 . S
C894 H888 0.930 . S
C894 C895 1.367 . S
C894 C902 1.378 . S
C895 C894 1.367 . S
C895 C903 1.433 . S
C896 H892 0.929 . S
C896 C898 1.378 . S
C896 C900 1.350 . S
C897 C900 1.463 1_554 S
C897 C902 1.350 . S
C897 N905 1.427 . S
C898 H889 0.930 . S
C898 C896 1.378 . S
C898 C899 1.367 . S
C899 C898 1.367 . S
C899 C901 1.433 . S
C900 C896 1.350 . S
C900 C897 1.463 1_556 S
C900 N904 1.427 . S
C901 H891 0.929 . S
C901 C899 1.433 . S
C901 N904 1.384 . S
C902 H893 0.929 . S
C902 C894 1.378 . S
C902 C897 1.350 . S
C903 H890 0.929 . S
C903 C895 1.433 . S
C903 N905 1.384 . S
N904 C900 1.427 . S
N904 C901 1.384 . S
N905 C897 1.427 . S
N905 C903 1.384 . S
H906 C912 0.930 . S
H907 C916 0.930 . S
H908 C921 0.929 . S
H909 C919 0.929 . S
H910 C914 0.929 . S
H911 C920 0.929 . S
C912 H906 0.930 . S
C912 C913 1.367 . S
C912 C920 1.378 . S
C913 C912 1.367 . S
C913 C921 1.433 . S
C914 H910 0.929 . S
C914 C916 1.378 . S
C914 C918 1.350 . S
C915 C918 1.463 1_554 S
C915 C920 1.350 . S
C915 N923 1.427 . S
C916 H907 0.930 . S
C916 C914 1.378 . S
C916 C917 1.367 . S
C917 C916 1.367 . S
C917 C919 1.433 . S
C918 C914 1.350 . S
C918 C915 1.463 1_556 S
C918 N922 1.427 . S
C919 H909 0.929 . S
C919 C917 1.433 . S
C919 N922 1.384 . S
C920 H911 0.929 . S
C920 C912 1.378 . S
C920 C915 1.350 . S
C921 H908 0.929 . S
C921 C913 1.433 . S
C921 N923 1.384 . S
N922 C918 1.427 . S
N922 C919 1.384 . S
N923 C915 1.427 . S
N923 C921 1.384 . S
H924 C930 0.930 . S
H925 C934 0.930 . S
H926 C939 0.929 . S
H927 C937 0.929 . S
H928 C932 0.929 . S
H929 C938 0.929 . S
C930 H924 0.930 . S
C930 C931 1.367 . S
C930 C938 1.378 . S
C931 C930 1.367 . S
C931 C939 1.433 . S
C932 H928 0.929 . S
C932 C934 1.378 . S
C932 C936 1.350 . S
C933 C936 1.463 1_554 S
C933 C938 1.350 . S
C933 N941 1.427 . S
C934 H925 0.930 . S
C934 C932 1.378 . S
C934 C935 1.367 . S
C935 C934 1.367 . S
C935 C937 1.433 . S
C936 C932 1.350 . S
C936 C933 1.463 1_556 S
C936 N940 1.427 . S
C937 H927 0.929 . S
C937 C935 1.433 . S
C937 N940 1.384 . S
C938 H929 0.929 . S
C938 C930 1.378 . S
C938 C933 1.350 . S
C939 H926 0.929 . S
C939 C931 1.433 . S
C939 N941 1.384 . S
N940 C936 1.427 . S
N940 C937 1.384 . S
N941 C933 1.427 . S
N941 C939 1.384 . S
H942 C948 0.930 . S
H943 C952 0.930 . S
H944 C957 0.929 . S
H945 C955 0.929 . S
H946 C950 0.929 . S
H947 C956 0.929 . S
C948 H942 0.930 . S
C948 C949 1.367 . S
C948 C956 1.378 . S
C949 C948 1.367 . S
C949 C957 1.433 . S
C950 H946 0.929 . S
C950 C952 1.378 . S
C950 C954 1.350 . S
C951 C954 1.463 1_556 S
C951 C956 1.350 . S
C951 N959 1.427 . S
C952 H943 0.930 . S
C952 C950 1.378 . S
C952 C953 1.367 . S
C953 C952 1.367 . S
C953 C955 1.433 . S
C954 C950 1.350 . S
C954 C951 1.463 1_554 S
C954 N958 1.427 . S
C955 H945 0.929 . S
C955 C953 1.433 . S
C955 N958 1.384 . S
C956 H947 0.929 . S
C956 C948 1.378 . S
C956 C951 1.350 . S
C957 H944 0.929 . S
C957 C949 1.433 . S
C957 N959 1.384 . S
N958 C954 1.427 . S
N958 C955 1.384 . S
N959 C951 1.427 . S
N959 C957 1.384 . S
H960 C966 0.930 . S
H961 C970 0.930 . S
H962 C975 0.929 . S
H963 C973 0.929 . S
H964 C968 0.929 . S
H965 C974 0.929 . S
C966 H960 0.930 . S
C966 C967 1.367 . S
C966 C974 1.378 . S
C967 C966 1.367 . S
C967 C975 1.433 . S
C968 H964 0.929 . S
C968 C970 1.378 . S
C968 C972 1.350 . S
C969 C972 1.463 . S
C969 C974 1.350 . S
C969 N977 1.427 . S
C970 H961 0.930 . S
C970 C968 1.378 . S
C970 C971 1.367 . S
C971 C970 1.367 . S
C971 C973 1.433 . S
C972 C968 1.350 . S
C972 C969 1.463 . S
C972 N976 1.427 . S
C973 H963 0.929 . S
C973 C971 1.433 . S
C973 N976 1.384 . S
C974 H965 0.929 . S
C974 C966 1.378 . S
C974 C969 1.350 . S
C975 H962 0.929 . S
C975 C967 1.433 . S
C975 N977 1.384 . S
N976 C972 1.427 . S
N976 C973 1.384 . S
N977 C969 1.427 . S
N977 C975 1.384 . S
H978 C984 0.930 . S
H979 C988 0.930 . S
H980 C993 0.929 . S
H981 C991 0.929 . S
H982 C986 0.929 . S
H983 C992 0.929 . S
C984 H978 0.930 . S
C984 C985 1.367 . S
C984 C992 1.378 . S
C985 C984 1.367 . S
C985 C993 1.433 . S
C986 H982 0.929 . S
C986 C988 1.378 . S
C986 C990 1.350 . S
C987 C990 1.463 . S
C987 C992 1.350 . S
C987 N995 1.427 . S
C988 H979 0.930 . S
C988 C986 1.378 . S
C988 C989 1.367 . S
C989 C988 1.367 . S
C989 C991 1.433 . S
C990 C986 1.350 . S
C990 C987 1.463 . S
C990 N994 1.427 . S
C991 H981 0.929 . S
C991 C989 1.433 . S
C991 N994 1.384 . S
C992 H983 0.929 . S
C992 C984 1.378 . S
C992 C987 1.350 . S
C993 H980 0.929 . S
C993 C985 1.433 . S
C993 N995 1.384 . S
N994 C990 1.427 . S
N994 C991 1.384 . S
N995 C987 1.427 . S
N995 C993 1.384 . S
H996 C1002 0.930 . S
H997 C1006 0.930 . S
H998 C1011 0.929 . S
H999 C1009 0.929 . S
H1000 C1004 0.929 . S
H1001 C1010 0.929 . S
C1002 H996 0.930 . S
C1002 C1003 1.367 . S
C1002 C1010 1.378 . S
C1003 C1002 1.367 . S
C1003 C1011 1.433 . S
C1004 H1000 0.929 . S
C1004 C1006 1.378 . S
C1004 C1008 1.350 . S
C1005 C1008 1.463 . S
C1005 C1010 1.350 . S
C1005 N1013 1.427 . S
C1006 H997 0.930 . S
C1006 C1004 1.378 . S
C1006 C1007 1.367 . S
C1007 C1006 1.367 . S
C1007 C1009 1.433 . S
C1008 C1004 1.350 . S
C1008 C1005 1.463 . S
C1008 N1012 1.427 . S
C1009 H999 0.929 . S
C1009 C1007 1.433 . S
C1009 N1012 1.384 . S
C1010 H1001 0.929 . S
C1010 C1002 1.378 . S
C1010 C1005 1.350 . S
C1011 H998 0.929 . S
C1011 C1003 1.433 . S
C1011 N1013 1.384 . S
N1012 C1008 1.427 . S
N1012 C1009 1.384 . S
N1013 C1005 1.427 . S
N1013 C1011 1.384 . S
H1014 C1020 0.930 . S
H1015 C1024 0.930 . S
H1016 C1029 0.929 . S
H1017 C1027 0.929 . S
H1018 C1022 0.929 . S
H1019 C1028 0.929 . S
C1020 H1014 0.930 . S
C1020 C1021 1.367 . S
C1020 C1028 1.378 . S
C1021 C1020 1.367 . S
C1021 C1029 1.433 . S
C1022 H1018 0.929 . S
C1022 C1024 1.378 . S
C1022 C1026 1.350 . S
C1023 C1026 1.463 . S
C1023 C1028 1.350 . S
C1023 N1031 1.427 . S
C1024 H1015 0.930 . S
C1024 C1022 1.378 . S
C1024 C1025 1.367 . S
C1025 C1024 1.367 . S
C1025 C1027 1.433 . S
C1026 C1022 1.350 . S
C1026 C1023 1.463 . S
C1026 N1030 1.427 . S
C1027 H1017 0.929 . S
C1027 C1025 1.433 . S
C1027 N1030 1.384 . S
C1028 H1019 0.929 . S
C1028 C1020 1.378 . S
C1028 C1023 1.350 . S
C1029 H1016 0.929 . S
C1029 C1021 1.433 . S
C1029 N1031 1.384 . S
N1030 C1026 1.427 . S
N1030 C1027 1.384 . S
N1031 C1023 1.427 . S
N1031 C1029 1.384 . S
H1032 C1038 0.930 . S
H1033 C1042 0.930 . S
H1034 C1047 0.929 . S
H1035 C1045 0.929 . S
H1036 C1040 0.929 . S
H1037 C1046 0.929 . S
C1038 H1032 0.930 . S
C1038 C1039 1.367 . S
C1038 C1046 1.378 . S
C1039 C1038 1.367 . S
C1039 C1047 1.433 . S
C1040 H1036 0.929 . S
C1040 C1042 1.378 . S
C1040 C1044 1.350 . S
C1041 C1044 1.463 1_455 S
C1041 C1046 1.350 . S
C1041 N1049 1.427 . S
C1042 H1033 0.930 . S
C1042 C1040 1.378 . S
C1042 C1043 1.367 . S
C1043 C1042 1.367 . S
C1043 C1045 1.433 . S
C1044 C1040 1.350 . S
C1044 C1041 1.463 1_655 S
C1044 N1048 1.427 . S
C1045 H1035 0.929 . S
C1045 C1043 1.433 . S
C1045 N1048 1.384 . S
C1046 H1037 0.929 . S
C1046 C1038 1.378 . S
C1046 C1041 1.350 . S
C1047 H1034 0.929 . S
C1047 C1039 1.433 . S
C1047 N1049 1.384 . S
N1048 C1044 1.427 . S
N1048 C1045 1.384 . S
N1049 C1041 1.427 . S
N1049 C1047 1.384 . S
H1050 C1056 0.930 . S
H1051 C1060 0.930 . S
H1052 C1065 0.929 . S
H1053 C1063 0.929 . S
H1054 C1058 0.929 . S
H1055 C1064 0.929 . S
C1056 H1050 0.930 . S
C1056 C1057 1.367 . S
C1056 C1064 1.378 . S
C1057 C1056 1.367 . S
C1057 C1065 1.433 . S
C1058 H1054 0.929 . S
C1058 C1060 1.378 . S
C1058 C1062 1.350 . S
C1059 C1062 1.463 1_655 S
C1059 C1064 1.350 . S
C1059 N1067 1.427 . S
C1060 H1051 0.930 . S
C1060 C1058 1.378 . S
C1060 C1061 1.367 . S
C1061 C1060 1.367 . S
C1061 C1063 1.433 . S
C1062 C1058 1.350 . S
C1062 C1059 1.463 1_455 S
C1062 N1066 1.427 . S
C1063 H1053 0.929 . S
C1063 C1061 1.433 . S
C1063 N1066 1.384 . S
C1064 H1055 0.929 . S
C1064 C1056 1.378 . S
C1064 C1059 1.350 . S
C1065 H1052 0.929 . S
C1065 C1057 1.433 . S
C1065 N1067 1.384 . S
N1066 C1062 1.427 . S
N1066 C1063 1.384 . S
N1067 C1059 1.427 . S
N1067 C1065 1.384 . S
H1068 C1074 0.930 . S
H1069 C1078 0.930 . S
H1070 C1083 0.929 . S
H1071 C1081 0.929 . S
H1072 C1076 0.929 . S
H1073 C1082 0.929 . S
C1074 H1068 0.930 . S
C1074 C1075 1.367 . S
C1074 C1082 1.378 . S
C1075 C1074 1.367 . S
C1075 C1083 1.433 . S
C1076 H1072 0.929 . S
C1076 C1078 1.378 . S
C1076 C1080 1.350 . S
C1077 C1080 1.463 . S
C1077 C1082 1.350 . S
C1077 N1085 1.427 . S
C1078 H1069 0.930 . S
C1078 C1076 1.378 . S
C1078 C1079 1.367 . S
C1079 C1078 1.367 . S
C1079 C1081 1.433 . S
C1080 C1076 1.350 . S
C1080 C1077 1.463 . S
C1080 N1084 1.427 . S
C1081 H1071 0.929 . S
C1081 C1079 1.433 . S
C1081 N1084 1.384 . S
C1082 H1073 0.929 . S
C1082 C1074 1.378 . S
C1082 C1077 1.350 . S
C1083 H1070 0.929 . S
C1083 C1075 1.433 . S
C1083 N1085 1.384 . S
N1084 C1080 1.427 . S
N1084 C1081 1.384 . S
N1085 C1077 1.427 . S
N1085 C1083 1.384 . S
H1086 C1092 0.930 . S
H1087 C1096 0.930 . S
H1088 C1101 0.929 . S
H1089 C1099 0.929 . S
H1090 C1094 0.929 . S
H1091 C1100 0.929 . S
C1092 H1086 0.930 . S
C1092 C1093 1.367 . S
C1092 C1100 1.378 . S
C1093 C1092 1.367 . S
C1093 C1101 1.433 . S
C1094 H1090 0.929 . S
C1094 C1096 1.378 . S
C1094 C1098 1.350 . S
C1095 C1098 1.463 . S
C1095 C1100 1.350 . S
C1095 N1103 1.427 . S
C1096 H1087 0.930 . S
C1096 C1094 1.378 . S
C1096 C1097 1.367 . S
C1097 C1096 1.367 . S
C1097 C1099 1.433 . S
C1098 C1094 1.350 . S
C1098 C1095 1.463 . S
C1098 N1102 1.427 . S
C1099 H1089 0.929 . S
C1099 C1097 1.433 . S
C1099 N1102 1.384 . S
C1100 H1091 0.929 . S
C1100 C1092 1.378 . S
C1100 C1095 1.350 . S
C1101 H1088 0.929 . S
C1101 C1093 1.433 . S
C1101 N1103 1.384 . S
N1102 C1098 1.427 . S
N1102 C1099 1.384 . S
N1103 C1095 1.427 . S
N1103 C1101 1.384 . S
C679 C58 1.553 . S
C683 C657 1.552 . S
C697 C562 1.554 . S
C701 C153 1.553 . S
C715 C489 1.540 . S
C719 C226 1.540 . S
C733 C394 1.557 . S
C737 C321 1.556 . S
C751 C231 2.441 . S
C755 C63 2.439 . S
C769 C147 0.645 . S
C773 C315 0.655 . S
C787 C326 2.438 . S
C791 C158 2.441 . S
C805 C242 0.632 . S
C809 C74 0.647 . S
C823 C399 2.447 . S
C827 C567 2.450 . S
C841 C483 0.602 . S
C845 C651 0.630 . S
C859 C662 2.445 . S
C863 C494 2.450 . S
C877 C578 0.608 . S
C881 C410 0.621 . S
C895 C56 1.775 . S
C899 C67 1.775 . S
C913 C151 1.770 . S
C917 C140 1.770 . S
C931 C235 1.772 . S
C935 C224 1.772 . S
C949 C319 1.767 . S
C953 C308 1.767 . S
C967 C403 1.770 . S
C971 C392 1.770 . S
C985 C487 1.774 . S
C989 C476 1.774 . S
C1003 C560 1.766 . S
C1007 C571 1.766 . S
C1021 C655 1.775 . S
C1025 C644 1.775 . S
C1039 C69 1.995 . S
C1043 C142 2.002 . S
C1057 C310 2.008 . S
C1061 C237 1.989 . S
C1075 C405 2.001 . S
C1079 C478 1.997 . S
C1093 C646 1.994 . S
C1097 C573 2.005 . S
