# Generated by pormake.
# Topology ukp, (4)-cn, num edge types: 1
# Building blocks:
#     Node 0, Type 0, BuildingBlock: CEKHIL_clean_sbu_0, # of connection points: 4
#     Node 1, Type 0, BuildingBlock: CEKHIL_clean_sbu_0, # of connection points: 4
#     Node 2, Type 0, BuildingBlock: CEKHIL_clean_sbu_0, # of connection points: 4
#     Node 3, Type 0, BuildingBlock: CEKHIL_clean_sbu_0, # of connection points: 4
#     Node 4, Type 0, BuildingBlock: CEKHIL_clean_sbu_0, # of connection points: 4
#     Node 5, Type 0, BuildingBlock: CEKHIL_clean_sbu_0, # of connection points: 4
#     Node 6, Type 0, BuildingBlock: CEKHIL_clean_sbu_0, # of connection points: 4
#     Node 7, Type 0, BuildingBlock: CEKHIL_clean_sbu_0, # of connection points: 4
#     Node 8, Type 0, BuildingBlock: CEKHIL_clean_sbu_0, # of connection points: 4
#     Node 9, Type 0, BuildingBlock: CEKHIL_clean_sbu_0, # of connection points: 4
#     Node 10, Type 0, BuildingBlock: CEKHIL_clean_sbu_0, # of connection points: 4
#     Node 11, Type 0, BuildingBlock: CEKHIL_clean_sbu_0, # of connection points: 4
#     Node 12, Type 0, BuildingBlock: CEKHIL_clean_sbu_0, # of connection points: 4
#     Node 13, Type 0, BuildingBlock: CEKHIL_clean_sbu_0, # of connection points: 4
#     Node 14, Type 0, BuildingBlock: CEKHIL_clean_sbu_0, # of connection points: 4
#     Node 15, Type 0, BuildingBlock: CEKHIL_clean_sbu_0, # of connection points: 4
#     Node 16, Type 0, BuildingBlock: CEKHIL_clean_sbu_0, # of connection points: 4
#     Node 17, Type 0, BuildingBlock: CEKHIL_clean_sbu_0, # of connection points: 4
#     Node 18, Type 0, BuildingBlock: CEKHIL_clean_sbu_0, # of connection points: 4
#     Node 19, Type 0, BuildingBlock: CEKHIL_clean_sbu_0, # of connection points: 4
#     Node 20, Type 0, BuildingBlock: CEKHIL_clean_sbu_0, # of connection points: 4
#     Node 21, Type 0, BuildingBlock: CEKHIL_clean_sbu_0, # of connection points: 4
#     Node 22, Type 0, BuildingBlock: CEKHIL_clean_sbu_0, # of connection points: 4
#     Node 23, Type 0, BuildingBlock: CEKHIL_clean_sbu_0, # of connection points: 4
#     Node 24, Type 0, BuildingBlock: CEKHIL_clean_sbu_0, # of connection points: 4
#     Node 25, Type 0, BuildingBlock: CEKHIL_clean_sbu_0, # of connection points: 4
#     Node 26, Type 0, BuildingBlock: CEKHIL_clean_sbu_0, # of connection points: 4
#     Node 27, Type 0, BuildingBlock: CEKHIL_clean_sbu_0, # of connection points: 4
#     Node 28, Type 0, BuildingBlock: CEKHIL_clean_sbu_0, # of connection points: 4
#     Node 29, Type 0, BuildingBlock: CEKHIL_clean_sbu_0, # of connection points: 4
#     Node 30, Type 0, BuildingBlock: CEKHIL_clean_sbu_0, # of connection points: 4
#     Node 31, Type 0, BuildingBlock: CEKHIL_clean_sbu_0, # of connection points: 4
#     Node 32, Type 0, BuildingBlock: CEKHIL_clean_sbu_0, # of connection points: 4
#     Node 33, Type 0, BuildingBlock: CEKHIL_clean_sbu_0, # of connection points: 4
#     Node 34, Type 0, BuildingBlock: CEKHIL_clean_sbu_0, # of connection points: 4
#     Node 35, Type 0, BuildingBlock: CEKHIL_clean_sbu_0, # of connection points: 4
#     Node 36, Type 0, BuildingBlock: CEKHIL_clean_sbu_0, # of connection points: 4
#     Node 37, Type 0, BuildingBlock: CEKHIL_clean_sbu_0, # of connection points: 4
#     Node 38, Type 0, BuildingBlock: CEKHIL_clean_sbu_0, # of connection points: 4
#     Node 39, Type 0, BuildingBlock: CEKHIL_clean_sbu_0, # of connection points: 4
#     Node 40, Type 0, BuildingBlock: CEKHIL_clean_sbu_0, # of connection points: 4
#     Node 41, Type 0, BuildingBlock: CEKHIL_clean_sbu_0, # of connection points: 4
#     Node 42, Type 0, BuildingBlock: CEKHIL_clean_sbu_0, # of connection points: 4
#     Node 43, Type 0, BuildingBlock: CEKHIL_clean_sbu_0, # of connection points: 4
#     Node 44, Type 0, BuildingBlock: CEKHIL_clean_sbu_0, # of connection points: 4
#     Node 45, Type 0, BuildingBlock: CEKHIL_clean_sbu_0, # of connection points: 4
#     Node 46, Type 0, BuildingBlock: CEKHIL_clean_sbu_0, # of connection points: 4
#     Node 47, Type 0, BuildingBlock: CEKHIL_clean_sbu_0, # of connection points: 4
#     Edge 48, Type (0, 0), BuildingBlock: UVAHIK_clean_linker_0, # of connection points: 2
#     Edge 49, Type (0, 0), BuildingBlock: UVAHIK_clean_linker_0, # of connection points: 2
#     Edge 50, Type (0, 0), BuildingBlock: UVAHIK_clean_linker_0, # of connection points: 2
#     Edge 51, Type (0, 0), BuildingBlock: UVAHIK_clean_linker_0, # of connection points: 2
#     Edge 52, Type (0, 0), BuildingBlock: UVAHIK_clean_linker_0, # of connection points: 2
#     Edge 53, Type (0, 0), BuildingBlock: UVAHIK_clean_linker_0, # of connection points: 2
#     Edge 54, Type (0, 0), BuildingBlock: UVAHIK_clean_linker_0, # of connection points: 2
#     Edge 55, Type (0, 0), BuildingBlock: UVAHIK_clean_linker_0, # of connection points: 2
#     Edge 56, Type (0, 0), BuildingBlock: UVAHIK_clean_linker_0, # of connection points: 2
#     Edge 57, Type (0, 0), BuildingBlock: UVAHIK_clean_linker_0, # of connection points: 2
#     Edge 58, Type (0, 0), BuildingBlock: UVAHIK_clean_linker_0, # of connection points: 2
#     Edge 59, Type (0, 0), BuildingBlock: UVAHIK_clean_linker_0, # of connection points: 2
#     Edge 60, Type (0, 0), BuildingBlock: UVAHIK_clean_linker_0, # of connection points: 2
#     Edge 61, Type (0, 0), BuildingBlock: UVAHIK_clean_linker_0, # of connection points: 2
#     Edge 62, Type (0, 0), BuildingBlock: UVAHIK_clean_linker_0, # of connection points: 2
#     Edge 63, Type (0, 0), BuildingBlock: UVAHIK_clean_linker_0, # of connection points: 2
#     Edge 64, Type (0, 0), BuildingBlock: UVAHIK_clean_linker_0, # of connection points: 2
#     Edge 65, Type (0, 0), BuildingBlock: UVAHIK_clean_linker_0, # of connection points: 2
#     Edge 66, Type (0, 0), BuildingBlock: UVAHIK_clean_linker_0, # of connection points: 2
#     Edge 67, Type (0, 0), BuildingBlock: UVAHIK_clean_linker_0, # of connection points: 2
#     Edge 68, Type (0, 0), BuildingBlock: UVAHIK_clean_linker_0, # of connection points: 2
#     Edge 69, Type (0, 0), BuildingBlock: UVAHIK_clean_linker_0, # of connection points: 2
#     Edge 70, Type (0, 0), BuildingBlock: UVAHIK_clean_linker_0, # of connection points: 2
#     Edge 71, Type (0, 0), BuildingBlock: UVAHIK_clean_linker_0, # of connection points: 2
#     Edge 72, Type (0, 0), BuildingBlock: UVAHIK_clean_linker_0, # of connection points: 2
#     Edge 73, Type (0, 0), BuildingBlock: UVAHIK_clean_linker_0, # of connection points: 2
#     Edge 74, Type (0, 0), BuildingBlock: UVAHIK_clean_linker_0, # of connection points: 2
#     Edge 75, Type (0, 0), BuildingBlock: UVAHIK_clean_linker_0, # of connection points: 2
#     Edge 76, Type (0, 0), BuildingBlock: UVAHIK_clean_linker_0, # of connection points: 2
#     Edge 77, Type (0, 0), BuildingBlock: UVAHIK_clean_linker_0, # of connection points: 2
#     Edge 78, Type (0, 0), BuildingBlock: UVAHIK_clean_linker_0, # of connection points: 2
#     Edge 79, Type (0, 0), BuildingBlock: UVAHIK_clean_linker_0, # of connection points: 2
#     Edge 80, Type (0, 0), BuildingBlock: UVAHIK_clean_linker_0, # of connection points: 2
#     Edge 81, Type (0, 0), BuildingBlock: UVAHIK_clean_linker_0, # of connection points: 2
#     Edge 82, Type (0, 0), BuildingBlock: UVAHIK_clean_linker_0, # of connection points: 2
#     Edge 83, Type (0, 0), BuildingBlock: UVAHIK_clean_linker_0, # of connection points: 2
#     Edge 84, Type (0, 0), BuildingBlock: UVAHIK_clean_linker_0, # of connection points: 2
#     Edge 85, Type (0, 0), BuildingBlock: UVAHIK_clean_linker_0, # of connection points: 2
#     Edge 86, Type (0, 0), BuildingBlock: UVAHIK_clean_linker_0, # of connection points: 2
#     Edge 87, Type (0, 0), BuildingBlock: UVAHIK_clean_linker_0, # of connection points: 2
#     Edge 88, Type (0, 0), BuildingBlock: UVAHIK_clean_linker_0, # of connection points: 2
#     Edge 89, Type (0, 0), BuildingBlock: UVAHIK_clean_linker_0, # of connection points: 2
#     Edge 90, Type (0, 0), BuildingBlock: UVAHIK_clean_linker_0, # of connection points: 2
#     Edge 91, Type (0, 0), BuildingBlock: UVAHIK_clean_linker_0, # of connection points: 2
#     Edge 92, Type (0, 0), BuildingBlock: UVAHIK_clean_linker_0, # of connection points: 2
#     Edge 93, Type (0, 0), BuildingBlock: UVAHIK_clean_linker_0, # of connection points: 2
#     Edge 94, Type (0, 0), BuildingBlock: UVAHIK_clean_linker_0, # of connection points: 2
#     Edge 95, Type (0, 0), BuildingBlock: UVAHIK_clean_linker_0, # of connection points: 2
#     Edge 96, Type (0, 0), BuildingBlock: UVAHIK_clean_linker_0, # of connection points: 2
#     Edge 97, Type (0, 0), BuildingBlock: UVAHIK_clean_linker_0, # of connection points: 2
#     Edge 98, Type (0, 0), BuildingBlock: UVAHIK_clean_linker_0, # of connection points: 2
#     Edge 99, Type (0, 0), BuildingBlock: UVAHIK_clean_linker_0, # of connection points: 2
#     Edge 100, Type (0, 0), BuildingBlock: UVAHIK_clean_linker_0, # of connection points: 2
#     Edge 101, Type (0, 0), BuildingBlock: UVAHIK_clean_linker_0, # of connection points: 2
#     Edge 102, Type (0, 0), BuildingBlock: UVAHIK_clean_linker_0, # of connection points: 2
#     Edge 103, Type (0, 0), BuildingBlock: UVAHIK_clean_linker_0, # of connection points: 2
#     Edge 104, Type (0, 0), BuildingBlock: UVAHIK_clean_linker_0, # of connection points: 2
#     Edge 105, Type (0, 0), BuildingBlock: UVAHIK_clean_linker_0, # of connection points: 2
#     Edge 106, Type (0, 0), BuildingBlock: UVAHIK_clean_linker_0, # of connection points: 2
#     Edge 107, Type (0, 0), BuildingBlock: UVAHIK_clean_linker_0, # of connection points: 2
#     Edge 108, Type (0, 0), BuildingBlock: UVAHIK_clean_linker_0, # of connection points: 2
#     Edge 109, Type (0, 0), BuildingBlock: UVAHIK_clean_linker_0, # of connection points: 2
#     Edge 110, Type (0, 0), BuildingBlock: UVAHIK_clean_linker_0, # of connection points: 2
#     Edge 111, Type (0, 0), BuildingBlock: UVAHIK_clean_linker_0, # of connection points: 2
#     Edge 112, Type (0, 0), BuildingBlock: UVAHIK_clean_linker_0, # of connection points: 2
#     Edge 113, Type (0, 0), BuildingBlock: UVAHIK_clean_linker_0, # of connection points: 2
#     Edge 114, Type (0, 0), BuildingBlock: UVAHIK_clean_linker_0, # of connection points: 2
#     Edge 115, Type (0, 0), BuildingBlock: UVAHIK_clean_linker_0, # of connection points: 2
#     Edge 116, Type (0, 0), BuildingBlock: UVAHIK_clean_linker_0, # of connection points: 2
#     Edge 117, Type (0, 0), BuildingBlock: UVAHIK_clean_linker_0, # of connection points: 2
#     Edge 118, Type (0, 0), BuildingBlock: UVAHIK_clean_linker_0, # of connection points: 2
#     Edge 119, Type (0, 0), BuildingBlock: UVAHIK_clean_linker_0, # of connection points: 2
#     Edge 120, Type (0, 0), BuildingBlock: UVAHIK_clean_linker_0, # of connection points: 2
#     Edge 121, Type (0, 0), BuildingBlock: UVAHIK_clean_linker_0, # of connection points: 2
#     Edge 122, Type (0, 0), BuildingBlock: UVAHIK_clean_linker_0, # of connection points: 2
#     Edge 123, Type (0, 0), BuildingBlock: UVAHIK_clean_linker_0, # of connection points: 2
#     Edge 124, Type (0, 0), BuildingBlock: UVAHIK_clean_linker_0, # of connection points: 2
#     Edge 125, Type (0, 0), BuildingBlock: UVAHIK_clean_linker_0, # of connection points: 2
#     Edge 126, Type (0, 0), BuildingBlock: UVAHIK_clean_linker_0, # of connection points: 2
#     Edge 127, Type (0, 0), BuildingBlock: UVAHIK_clean_linker_0, # of connection points: 2
#     Edge 128, Type (0, 0), BuildingBlock: UVAHIK_clean_linker_0, # of connection points: 2
#     Edge 129, Type (0, 0), BuildingBlock: UVAHIK_clean_linker_0, # of connection points: 2
#     Edge 130, Type (0, 0), BuildingBlock: UVAHIK_clean_linker_0, # of connection points: 2
#     Edge 131, Type (0, 0), BuildingBlock: UVAHIK_clean_linker_0, # of connection points: 2
#     Edge 132, Type (0, 0), BuildingBlock: UVAHIK_clean_linker_0, # of connection points: 2
#     Edge 133, Type (0, 0), BuildingBlock: UVAHIK_clean_linker_0, # of connection points: 2
#     Edge 134, Type (0, 0), BuildingBlock: UVAHIK_clean_linker_0, # of connection points: 2
#     Edge 135, Type (0, 0), BuildingBlock: UVAHIK_clean_linker_0, # of connection points: 2
#     Edge 136, Type (0, 0), BuildingBlock: UVAHIK_clean_linker_0, # of connection points: 2
#     Edge 137, Type (0, 0), BuildingBlock: UVAHIK_clean_linker_0, # of connection points: 2
#     Edge 138, Type (0, 0), BuildingBlock: UVAHIK_clean_linker_0, # of connection points: 2
#     Edge 139, Type (0, 0), BuildingBlock: UVAHIK_clean_linker_0, # of connection points: 2
#     Edge 140, Type (0, 0), BuildingBlock: UVAHIK_clean_linker_0, # of connection points: 2
#     Edge 141, Type (0, 0), BuildingBlock: UVAHIK_clean_linker_0, # of connection points: 2
#     Edge 142, Type (0, 0), BuildingBlock: UVAHIK_clean_linker_0, # of connection points: 2
#     Edge 143, Type (0, 0), BuildingBlock: UVAHIK_clean_linker_0, # of connection points: 2
# Relax obj value: 0.217
# Max RMSD: 0.304
# Mean RMSD: 0.304
data_MOF--net-ukp--node1-CEKHIL_clean_sbu_0--edge1-UVAHIK_clean_linker_0
_symmetry_space_group_name_H-M    P1
_symmetry_Int_Tables_number       1
_symmetry_cell_setting            triclinic
loop_
_symmetry_equiv_pos_as_xyz
'x, y, z'
_cell_length_a     78.692052
_cell_length_b     78.688027
_cell_length_c     78.673506
_cell_angle_alpha  89.992064
_cell_angle_beta   89.998967
_cell_angle_gamma 90.067774
loop_
_atom_site_label
_atom_site_type_symbol
_atom_site_fract_x
_atom_site_fract_y
_atom_site_fract_z
_atom_type_partial_charge
Co0 Co 0.20115 0.25291 0.38142 0.0
O1 O 0.20275 0.24283 0.4035 0.0
O2 O 0.17866 0.24985 0.39067 0.0
C3 C 0.21941 0.23532 0.36831 0.0
O4 O 0.19484 0.26292 0.35833 0.0
Co5 Co 0.23287 0.27006 0.36556 0.0
O6 O 0.21948 0.26693 0.34442 0.0
C7 C 0.21286 0.28885 0.39096 0.0
C8 C 0.18628 0.24327 0.4038 0.0
C9 C 0.20332 0.26585 0.34465 0.0
O10 O 0.2024 0.27631 0.39171 0.0
O11 O 0.22631 0.28869 0.38178 0.0
O12 O 0.20376 0.23072 0.3708 0.0
O13 O 0.22392 0.2494 0.37555 0.0
Co14 Co 0.98294 0.93343 0.6294 0.0
O15 O 0.99089 0.92545 0.65081 0.0
O16 O 0.98121 0.90887 0.63005 0.0
C17 C 0.00456 0.95136 0.62421 0.0
O18 O 0.974 0.9378 0.60551 0.0
Co19 Co 0.97311 0.97147 0.6265 0.0
O20 O 0.97457 0.96617 0.60185 0.0
C21 C 0.95001 0.94794 0.64408 0.0
C22 C 0.98731 0.91033 0.64538 0.0
C23 C 0.97311 0.95111 0.59604 0.0
O24 O 0.95943 0.93554 0.63919 0.0
O25 O 0.95381 0.96353 0.64135 0.0
O26 O 0.00608 0.93529 0.62077 0.0
O27 O 0.99093 0.95559 0.63237 0.0
Co28 Co 0.30282 0.74011 0.87714 0.0
O29 O 0.30668 0.74961 0.89913 0.0
O30 O 0.32691 0.74009 0.88186 0.0
C31 C 0.28478 0.76014 0.86781 0.0
O32 O 0.30328 0.72975 0.85345 0.0
Co33 Co 0.26677 0.7272 0.86823 0.0
O34 O 0.27616 0.72719 0.84479 0.0
C35 C 0.28847 0.70642 0.89038 0.0
C36 C 0.32268 0.74681 0.89638 0.0
C37 C 0.2921 0.72676 0.8419 0.0
O38 O 0.30063 0.71697 0.88764 0.0
O39 O 0.2734 0.70866 0.88466 0.0
O40 O 0.30109 0.76262 0.86709 0.0
O41 O 0.27997 0.7466 0.87584 0.0
Co42 Co 0.51436 0.05408 0.12792 0.0
O43 O 0.50529 0.06058 0.14939 0.0
O44 O 0.51779 0.07822 0.13116 0.0
C45 C 0.49218 0.03847 0.1192 0.0
O46 O 0.52487 0.05141 0.10441 0.0
Co47 Co 0.52216 0.01604 0.12199 0.0
O48 O 0.52257 0.02365 0.09791 0.0
C49 C 0.54531 0.03611 0.14323 0.0
C50 C 0.51046 0.0758 0.1458 0.0
C51 C 0.52544 0.03904 0.09372 0.0
O52 O 0.53675 0.04937 0.13913 0.0
O53 O 0.5411 0.0211 0.13854 0.0
O54 O 0.49202 0.05488 0.11744 0.0
O55 O 0.50468 0.03236 0.12798 0.0
Co56 Co 0.18397 0.73609 0.11383 0.0
O57 O 0.17599 0.7438 0.09227 0.0
O58 O 0.1595 0.73415 0.11314 0.0
C59 C 0.20187 0.75765 0.11936 0.0
O60 O 0.18805 0.72742 0.13783 0.0
Co61 Co 0.22192 0.72619 0.11744 0.0
O62 O 0.21634 0.72823 0.142 0.0
C63 C 0.19863 0.70287 0.09987 0.0
C64 C 0.1609 0.74007 0.09776 0.0
C65 C 0.20117 0.72686 0.14756 0.0
O66 O 0.18621 0.71249 0.10432 0.0
O67 O 0.21418 0.70659 0.10287 0.0
O68 O 0.1857 0.75929 0.12229 0.0
O69 O 0.2062 0.74407 0.11117 0.0
Co70 Co 0.49421 0.94553 0.37261 0.0
O71 O 0.48494 0.94675 0.35015 0.0
O72 O 0.49292 0.92299 0.36308 0.0
C73 C 0.47493 0.96265 0.38482 0.0
O74 O 0.50396 0.93945 0.39578 0.0
Co75 Co 0.50848 0.97771 0.39006 0.0
O76 O 0.50621 0.96358 0.41084 0.0
C77 C 0.52955 0.9597 0.36479 0.0
C78 C 0.48657 0.93036 0.3497 0.0
C79 C 0.50641 0.94742 0.40984 0.0
O80 O 0.51779 0.94846 0.36321 0.0
O81 O 0.52812 0.9728 0.37436 0.0
O82 O 0.47155 0.94666 0.3825 0.0
O83 O 0.48908 0.96802 0.37839 0.0
Co84 Co 0.3095 0.26366 0.61767 0.0
O85 O 0.31596 0.25488 0.59606 0.0
O86 O 0.3338 0.26625 0.61483 0.0
C87 C 0.29295 0.24181 0.62541 0.0
O88 O 0.30696 0.27367 0.64142 0.0
Co89 Co 0.27181 0.27263 0.62383 0.0
O90 O 0.27922 0.27151 0.64794 0.0
C91 C 0.29288 0.2959 0.60361 0.0
C92 C 0.33131 0.25941 0.59997 0.0
C93 C 0.29465 0.27396 0.65219 0.0
O94 O 0.30577 0.28649 0.60691 0.0
O95 O 0.27779 0.29235 0.60859 0.0
O96 O 0.30928 0.24106 0.62764 0.0
O97 O 0.28741 0.2548 0.61698 0.0
Co98 Co 0.99469 0.05391 0.86771 0.0
O99 O 0.00389 0.05566 0.84524 0.0
O100 O 0.99469 0.07739 0.86074 0.0
C101 C 0.01472 0.03669 0.87853 0.0
O102 O 0.98477 0.05687 0.89145 0.0
Co103 Co 0.98201 0.01907 0.88114 0.0
O104 O 0.98314 0.03095 0.90336 0.0
C105 C 0.96038 0.03854 0.85763 0.0
C106 C 0.0013 0.07189 0.84662 0.0
C107 C 0.98248 0.0471 0.90437 0.0
O108 O 0.97128 0.05071 0.85791 0.0
O109 O 0.96257 0.02442 0.86543 0.0
O110 O 0.01744 0.05294 0.87748 0.0
O111 O 0.00098 0.03129 0.87128 0.0
Co112 Co 0.38334 0.19281 0.25154 0.0
O113 O 0.40639 0.1925 0.24402 0.0
O114 O 0.39104 0.16956 0.25 0.0
C115 C 0.37367 0.21145 0.23224 0.0
O116 O 0.35897 0.18873 0.25924 0.0
Co117 Co 0.36906 0.22634 0.26632 0.0
O118 O 0.34717 0.21468 0.26146 0.0
C119 C 0.39121 0.20517 0.28766 0.0
C120 C 0.40542 0.17609 0.24502 0.0
C121 C 0.34598 0.19854 0.26064 0.0
O122 O 0.39122 0.19394 0.27582 0.0
O123 O 0.38397 0.21966 0.28607 0.0
O124 O 0.37527 0.19551 0.22833 0.0
O125 O 0.37987 0.21585 0.24685 0.0
Co126 Co 0.05939 0.12389 0.51669 0.0
O127 O 0.06413 0.14283 0.50238 0.0
O128 O 0.08377 0.12698 0.51489 0.0
C129 C 0.03969 0.11213 0.49963 0.0
O130 O 0.05872 0.10299 0.53192 0.0
Co131 Co 0.02304 0.12133 0.53194 0.0
O132 O 0.03175 0.09956 0.54108 0.0
C133 C 0.04718 0.14575 0.54644 0.0
C134 C 0.08007 0.13985 0.50514 0.0
C135 C 0.04723 0.09483 0.54025 0.0
O136 O 0.05894 0.13931 0.53711 0.0
O137 O 0.03155 0.1414 0.54522 0.0
O138 O 0.05573 0.10934 0.49691 0.0
O139 O 0.03632 0.12313 0.51133 0.0
Co140 Co 0.116 0.79964 0.75907 0.0
O141 O 0.09366 0.79843 0.74972 0.0
O142 O 0.10698 0.82235 0.75654 0.0
C143 C 0.12803 0.78151 0.74066 0.0
O144 O 0.13946 0.80529 0.76857 0.0
Co145 Co 0.13148 0.76722 0.77503 0.0
O146 O 0.15282 0.78022 0.77153 0.0
C147 C 0.10694 0.78728 0.79488 0.0
C148 C 0.09354 0.81488 0.75037 0.0
C149 C 0.15299 0.7964 0.77092 0.0
O150 O 0.10633 0.79812 0.78268 0.0
O151 O 0.11569 0.77357 0.79414 0.0
O152 O 0.12597 0.79735 0.73658 0.0
O153 O 0.12115 0.7768 0.75486 0.0
Co154 Co 0.44485 0.86777 0.00957 0.0
O155 O 0.44334 0.84596 -0.00102 0.0
O156 O 0.42135 0.86087 0.00849 0.0
C157 C 0.46262 0.87951 0.99058 0.0
O158 O 0.44175 0.89082 0.02079 0.0
Co159 Co 0.47947 0.8797 0.02398 0.0
O160 O 0.46776 0.90201 0.02501 0.0
C161 C 0.45929 0.85485 0.04332 0.0
C162 C 0.42706 0.84717 0.00119 0.0
C163 C 0.45163 0.90323 0.02469 0.0
O164 O 0.44728 0.85656 0.03238 0.0
O165 O 0.47374 0.86219 0.04179 0.0
O166 O 0.44641 0.87893 0.98756 0.0
O167 O 0.46769 0.87142 0.00397 0.0
Co168 Co 0.37567 0.80695 0.23122 0.0
O169 O 0.39695 0.81329 0.24104 0.0
O170 O 0.37812 0.83138 0.2303 0.0
C171 C 0.36751 0.7889 0.2518 0.0
O172 O 0.35229 0.80471 0.22037 0.0
Co173 Co 0.37046 0.76963 0.21981 0.0
O174 O 0.34629 0.7768 0.21863 0.0
C175 C 0.39159 0.79229 0.19894 0.0
C176 C 0.39276 0.82884 0.23755 0.0
C177 C 0.34191 0.79236 0.21757 0.0
O178 O 0.38703 0.80475 0.20846 0.0
O179 O 0.38735 0.77687 0.20194 0.0
O180 O 0.36522 0.80514 0.25357 0.0
O181 O 0.37632 0.78436 0.23867 0.0
Co182 Co 0.44188 0.1346 0.48441 0.0
O183 O 0.44276 0.15757 0.49221 0.0
O184 O 0.41905 0.14304 0.48736 0.0
C185 C 0.46118 0.12406 0.50257 0.0
O186 O 0.43648 0.11044 0.47685 0.0
Co187 Co 0.47401 0.11914 0.46779 0.0
O188 O 0.46171 0.09764 0.47281 0.0
C189 C 0.45284 0.14265 0.44793 0.0
C190 C 0.4263 0.1571 0.49227 0.0
C191 C 0.44561 0.09706 0.47467 0.0
O192 O 0.44201 0.14273 0.46016 0.0
O193 O 0.46714 0.13493 0.44884 0.0
O194 O 0.44554 0.12618 0.50736 0.0
O195 O 0.465 0.13025 0.48781 0.0
Co196 Co 0.12276 0.19439 0.73564 0.0
O197 O 0.10044 0.19232 0.74511 0.0
O198 O 0.11609 0.17081 0.73569 0.0
C199 C 0.13354 0.21177 0.75556 0.0
O200 O 0.14637 0.1918 0.72541 0.0
Co201 Co 0.13557 0.22948 0.72295 0.0
O202 O 0.15797 0.21788 0.72383 0.0
C203 C 0.11168 0.20991 0.70177 0.0
C204 C 0.10199 0.17611 0.7425 0.0
C205 C 0.15914 0.20175 0.72309 0.0
O206 O 0.11268 0.19751 0.71237 0.0
O207 O 0.11904 0.22424 0.70414 0.0
O208 O 0.13281 0.19551 0.75829 0.0
O209 O 0.12605 0.21702 0.74191 0.0
Co210 Co 0.05088 0.86834 0.98534 0.0
O211 O 0.04771 0.84602 0.99448 0.0
O212 O 0.07271 0.8583 0.9899 0.0
C213 C 0.03166 0.8816 0.00172 0.0
O214 O 0.05883 0.89145 0.9767 0.0
Co215 Co 0.02118 0.88561 0.96606 0.0
O216 O 0.03511 0.90617 0.97047 0.0
C217 C 0.04133 0.85943 0.94862 0.0
C218 C 0.06416 0.84518 0.99527 0.0
C219 C 0.05103 0.90539 0.97327 0.0
O220 O 0.0512 0.8587 0.96162 0.0
O221 O 0.02802 0.86876 0.94809 0.0
O222 O 0.04676 0.87844 0.00755 0.0
O223 O 0.02813 0.87489 0.98712 0.0
Co224 Co 0.25478 0.37584 0.19772 0.0
O225 O 0.24625 0.39854 0.19618 0.0
O226 O 0.25432 0.38274 0.17421 0.0
C227 C 0.23488 0.36588 0.2156 0.0
O228 O 0.26385 0.35182 0.19459 0.0
Co229 Co 0.26823 0.36237 0.23207 0.0
O230 O 0.26588 0.34007 0.22053 0.0
C231 C 0.2899 0.38509 0.21171 0.0
C232 C 0.2484 0.3971 0.17989 0.0
C233 C 0.266 0.3389 0.20438 0.0
O234 O 0.27851 0.385 0.20003 0.0
O235 O 0.28809 0.3774 0.22595 0.0
O236 O 0.23185 0.36675 0.1994 0.0
O237 O 0.24901 0.37269 0.2206 0.0
Co238 Co 0.77089 0.11667 0.80064 0.0
O239 O 0.7593 0.09528 0.8 0.0
O240 O 0.76686 0.10892 0.82353 0.0
C241 C 0.75469 0.13015 0.78139 0.0
O242 O 0.78249 0.13916 0.80601 0.0
Co243 Co 0.78961 0.1289 0.76798 0.0
O244 O 0.79324 0.14974 0.78159 0.0
C245 C 0.80551 0.1028 0.7894 0.0
C246 C 0.75966 0.09579 0.81647 0.0
C247 C 0.79007 0.15084 0.79744 0.0
O248 O 0.79346 0.10455 0.8003 0.0
O249 O 0.80577 0.11053 0.77509 0.0
O250 O 0.74963 0.12884 0.79705 0.0
O251 O 0.76815 0.12156 0.77755 0.0
Co252 Co 0.1325 0.5056 0.05346 0.0
O253 O 0.15536 0.4983 0.05721 0.0
O254 O 0.13727 0.50595 0.07749 0.0
C255 C 0.12476 0.48498 0.03534 0.0
O256 O 0.10785 0.51334 0.05419 0.0
Co257 Co 0.12185 0.51777 0.0176 0.0
O258 O 0.0987 0.51451 0.02714 0.0
C259 C 0.14203 0.54058 0.03923 0.0
C260 C 0.15233 0.50061 0.07325 0.0
C261 C 0.09589 0.51456 0.04311 0.0
O262 O 0.14061 0.52973 0.05136 0.0
O263 O 0.13632 0.53786 0.02423 0.0
O264 O 0.1247 0.48222 0.05162 0.0
O265 O 0.13155 0.4992 0.03057 0.0
Co266 Co 0.72127 0.88446 0.30258 0.0
O267 O 0.73049 0.90688 0.3 0.0
O268 O 0.72744 0.89328 0.32453 0.0
C269 C 0.73645 0.87206 0.28182 0.0
O270 O 0.71316 0.86098 0.30994 0.0
Co271 Co 0.70015 0.86876 0.27313 0.0
O272 O 0.70382 0.84766 0.28634 0.0
C273 C 0.68424 0.89415 0.29547 0.0
C274 C 0.73279 0.90662 0.31633 0.0
C275 C 0.70816 0.84764 0.30193 0.0
O276 O 0.69764 0.89414 0.30484 0.0
O277 O 0.68309 0.8857 0.28161 0.0
O278 O 0.74314 0.87458 0.29667 0.0
O279 O 0.72169 0.87891 0.27941 0.0
Co280 Co 0.86275 0.99301 0.04553 0.0
O281 O 0.83962 0.00029 0.04671 0.0
O282 O 0.85555 0.99343 0.06898 0.0
C283 C 0.87186 0.01326 0.0276 0.0
O284 O 0.88728 0.98543 0.04881 0.0
Co285 Co 0.87681 0.97997 0.01121 0.0
O286 O 0.8988 0.98478 0.02265 0.0
C287 C 0.85534 0.95729 0.0318 0.0
C288 C 0.84101 -0.00137 0.06305 0.0
C289 C 0.90018 0.9848 0.03879 0.0
O290 O 0.85505 0.96875 0.04343 0.0
O291 O 0.86264 0.95951 0.0174 0.0
O292 O 0.87051 0.0164 0.04374 0.0
O293 O 0.86577 -0.00121 0.02264 0.0
Co294 Co 0.23657 0.6118 0.69458 0.0
O295 O 0.24386 0.58902 0.69031 0.0
O296 O 0.23597 0.60754 0.67048 0.0
C297 C 0.25733 0.61924 0.71267 0.0
O298 O 0.22874 0.63639 0.69436 0.0
Co299 Co 0.2246 0.62174 0.73068 0.0
O300 O 0.22741 0.64512 0.72153 0.0
C301 C 0.2017 0.60192 0.70885 0.0
C302 C 0.24129 0.59238 0.67436 0.0
C303 C 0.2273 0.64816 0.70561 0.0
O304 O 0.2125 0.60361 0.69673 0.0
O305 O 0.20446 0.60734 0.72395 0.0
O306 O 0.25994 0.61961 0.69637 0.0
O307 O 0.24315 0.61234 0.71744 0.0
Co308 Co 0.13223 0.479 0.44108 0.0
O309 O 0.15416 0.48848 0.437 0.0
O310 O 0.13663 0.47925 0.41687 0.0
C311 C 0.12363 0.49916 0.45922 0.0
O312 O 0.10838 0.46887 0.44095 0.0
Co313 Co 0.12331 0.46637 0.4771 0.0
O314 O 0.09979 0.46795 0.46817 0.0
C315 C 0.14464 0.44493 0.45511 0.0
C316 C 0.15114 0.48609 0.42099 0.0
C317 C 0.09672 0.46708 0.45229 0.0
O318 O 0.14269 0.45579 0.44307 0.0
O319 O 0.13852 0.44703 0.47005 0.0
O320 O 0.12229 0.50147 0.44295 0.0
O321 O 0.13156 0.48557 0.46401 0.0
Co322 Co 0.36578 0.51561 0.94329 0.0
O323 O 0.34342 0.50637 0.94134 0.0
O324 O 0.35969 0.51412 0.91958 0.0
C325 C 0.3759 0.49675 0.96217 0.0
O326 O 0.38965 0.52529 0.94084 0.0
Co327 Co 0.37686 0.53071 0.97797 0.0
O328 O 0.3997 0.52891 0.96738 0.0
C329 C 0.35383 0.55035 0.95615 0.0
C330 C 0.34531 0.50799 0.92504 0.0
C331 C 0.40185 0.52824 0.95133 0.0
O332 O 0.35589 0.53913 0.94447 0.0
O333 O 0.36019 0.54886 0.97106 0.0
O334 O 0.37545 0.493 0.94609 0.0
O335 O 0.36834 0.51072 0.96639 0.0
Co336 Co 0.69453 0.74863 0.87662 0.0
O337 O 0.69359 0.74133 0.89975 0.0
O338 O 0.67122 0.74885 0.88427 0.0
C339 C 0.71182 0.7279 0.86747 0.0
O340 O 0.69094 0.7565 0.85222 0.0
Co341 Co 0.72875 0.76056 0.86143 0.0
O342 O 0.71662 0.75603 0.83976 0.0
C343 C 0.70934 0.78399 0.8832 0.0
C344 C 0.67731 0.74357 0.89873 0.0
C345 C 0.70047 0.75688 0.83894 0.0
O346 O 0.69753 0.77277 0.88437 0.0
O347 O 0.72324 0.7815 0.8751 0.0
O348 O 0.69559 0.72519 0.86876 0.0
O349 O 0.71718 0.74233 0.87329 0.0
Co350 Co 0.48162 0.4403 0.13401 0.0
O351 O 0.49055 0.43822 0.15649 0.0
O352 O 0.48393 0.41652 0.13967 0.0
C353 C 0.50007 0.46002 0.12473 0.0
O354 O 0.47259 0.43801 0.10981 0.0
Co355 Co 0.46563 0.47452 0.12304 0.0
O356 O 0.46966 0.46476 0.10013 0.0
C357 C 0.44592 0.45144 0.14486 0.0
C358 C 0.48968 0.42192 0.15422 0.0
C359 C 0.47061 0.44879 0.09768 0.0
O360 O 0.45791 0.44044 0.14356 0.0
O361 O 0.44673 0.46629 0.13822 0.0
O362 O 0.50425 0.44406 0.1248 0.0
O363 O 0.48581 0.46366 0.13208 0.0
Co364 Co 0.802 0.23409 0.37934 0.0
O365 O 0.80468 0.24263 0.40191 0.0
O366 O 0.82555 0.2321 0.38611 0.0
C367 C 0.78655 0.25593 0.36965 0.0
O368 O 0.80372 0.22445 0.35539 0.0
Co369 Co 0.76611 0.22495 0.36623 0.0
O370 O 0.77764 0.22592 0.3438 0.0
C371 C 0.78398 0.20092 0.38873 0.0
C372 C 0.82064 0.2389 0.40038 0.0
C373 C 0.79362 0.22372 0.34256 0.0
O374 O 0.79697 0.21084 0.38864 0.0
O375 O 0.76999 0.20456 0.38125 0.0
O376 O 0.803 0.25695 0.36996 0.0
O377 O 0.77992 0.24256 0.37655 0.0
Co378 Co 0.0111 0.55711 0.6249 0.0
O379 O -0.0013 0.55863 0.64569 0.0
O380 O 0.00892 0.58069 0.63138 0.0
C381 C 0.99363 0.5385 0.61199 0.0
O382 O 0.02407 0.56008 0.60272 0.0
Co383 Co 0.0272 0.52258 0.61474 0.0
O384 O 0.02815 0.53383 0.59214 0.0
C385 C 0.044 0.54367 0.64072 0.0
C386 C 0.00059 0.57495 0.64448 0.0
C387 C 0.02817 0.54995 0.59058 0.0
O388 O 0.03307 0.55548 0.63791 0.0
O389 O 0.04325 0.52904 0.63361 0.0
O390 O 0.98999 0.5546 0.61208 0.0
O391 O 0.0065 0.53413 0.6212 0.0
Co392 Co 0.69435 0.22311 0.6023 0.0
O393 O 0.68947 0.23098 0.57989 0.0
O394 O 0.67007 0.22412 0.59922 0.0
C395 C 0.71383 0.2429 0.60896 0.0
O396 O 0.69509 0.21521 0.62696 0.0
Co397 Co 0.73039 0.20927 0.60996 0.0
O398 O 0.72286 0.21357 0.63368 0.0
C399 C 0.70645 0.1881 0.59066 0.0
C400 C 0.67358 0.22985 0.58409 0.0
C401 C 0.70723 0.21422 0.63786 0.0
O402 O 0.69477 0.19907 0.59377 0.0
O403 O 0.72199 0.19028 0.59499 0.0
O404 O 0.69773 0.24629 0.61011 0.0
O405 O 0.7175 0.22857 0.60172 0.0
Co406 Co 0.00055 0.44209 0.87251 0.0
O407 O 0.99073 0.43874 0.85071 0.0
O408 O 2e-05 0.41797 0.86746 0.0
C409 C 0.98069 0.46013 0.88192 0.0
O410 O 0.01119 0.44138 0.89606 0.0
Co411 Co 0.01363 0.47795 0.88151 0.0
O412 O 0.01362 0.46845 0.90489 0.0
C413 C 0.0343 0.45619 0.85927 0.0
C414 C 0.99313 0.42266 0.85315 0.0
C415 C 0.01416 0.4525 0.90769 0.0
O416 O 0.02358 0.44412 0.86174 0.0
O417 O 0.03221 0.4712 0.8652 0.0
O418 O 0.97827 0.44386 0.88295 0.0
O419 O 0.99414 0.465 0.87379 0.0
Co420 Co 0.80778 0.76408 0.11157 0.0
O421 O 0.81867 0.75582 0.09158 0.0
O422 O 0.83215 0.76611 0.11422 0.0
C423 C 0.78942 0.74247 0.11523 0.0
O424 O 0.80017 0.77331 0.13455 0.0
Co425 Co 0.76968 0.77378 0.10879 0.0
O426 O 0.77157 0.77411 0.13393 0.0
C427 C 0.79526 0.79647 0.09398 0.0
C428 C 0.83287 0.75968 0.099 0.0
C429 C 0.78565 0.77515 0.1419 0.0
O430 O 0.80684 0.78741 0.1011 0.0
O431 O 0.77949 0.79249 0.09438 0.0
O432 O 0.80505 0.7411 0.12033 0.0
O433 O 0.7862 0.75575 0.10607 0.0
Co434 Co 0.49016 0.55612 0.36653 0.0
O435 O 0.49872 0.55878 0.34401 0.0
O436 O 0.48941 0.57988 0.36029 0.0
C437 C 0.51096 0.53922 0.37611 0.0
O438 O 0.48077 0.5577 0.39061 0.0
Co439 Co 0.47873 0.52024 0.37805 0.0
O440 O 0.48011 0.531 0.40085 0.0
C441 C 0.45642 0.54007 0.35564 0.0
C442 C 0.49576 0.57487 0.34585 0.0
C443 C 0.47912 0.54704 0.40293 0.0
O444 O 0.46671 0.55266 0.35713 0.0
O445 O 0.45931 0.52545 0.36219 0.0
O446 O 0.51307 0.55558 0.37577 0.0
O447 O 0.49728 0.53361 0.36888 0.0
Co448 Co 0.88245 0.69627 0.76469 0.0
O449 O 0.90487 0.69609 0.75515 0.0
O450 O 0.88985 0.67316 0.76191 0.0
C451 C 0.87122 0.7155 0.74681 0.0
O452 O 0.85874 0.69155 0.7739 0.0
Co453 Co 0.8682 0.72882 0.7815 0.0
O454 O 0.84626 0.7169 0.77786 0.0
C455 C 0.89206 0.70739 0.80077 0.0
C456 C 0.90369 0.67964 0.75557 0.0
C457 C 0.84551 0.70078 0.77649 0.0
O458 O 0.89217 0.69674 0.78838 0.0
O459 O 0.88391 0.72147 0.80028 0.0
O460 O 0.87268 0.69972 0.74222 0.0
O461 O 0.87836 0.71944 0.76112 0.0
Co462 Co 0.55233 0.63226 0.01239 0.0
O463 O 0.5578 0.65413 0.00345 0.0
O464 O 0.57661 0.63573 0.01374 0.0
C465 C 0.53492 0.62408 0.99134 0.0
O466 O 0.55092 0.60842 0.02236 0.0
Co467 Co 0.51522 0.62533 0.02335 0.0
O468 O 0.52321 0.60139 0.02319 0.0
C469 C 0.53699 0.64617 0.04534 0.0
C470 C 0.57347 0.65053 0.00705 0.0
C471 C 0.53889 0.5975 0.02437 0.0
O472 O 0.5495 0.64262 0.03549 0.0
O473 O 0.52173 0.64138 0.04229 0.0
O474 O 0.55127 0.6226 0.9897 0.0
O475 O 0.52982 0.63224 0.0047 0.0
Co476 Co 0.61429 0.30511 0.26965 0.0
O477 O 0.59157 0.30693 0.26124 0.0
O478 O 0.60819 0.32879 0.26784 0.0
C479 C 0.62335 0.28587 0.2506 0.0
O480 O 0.63853 0.30787 0.2782 0.0
Co481 Co 0.62678 0.27093 0.28457 0.0
O482 O 0.6494 0.2816 0.2809 0.0
C483 C 0.60467 0.2929 0.30531 0.0
C484 C 0.59365 0.32326 0.26218 0.0
C485 C 0.65115 0.29769 0.28022 0.0
O486 O 0.60547 0.30432 0.29364 0.0
O487 O 0.61144 0.27818 0.30376 0.0
O488 O 0.623 0.3019 0.24672 0.0
O489 O 0.61656 0.28187 0.26504 0.0
Co490 Co 0.94135 0.36148 0.51165 0.0
O491 O 0.93828 0.33859 0.50415 0.0
O492 O 0.91734 0.35629 0.51074 0.0
C493 C 0.96032 0.36919 0.49174 0.0
O494 O 0.94017 0.3862 0.51935 0.0
Co495 Co 0.97673 0.37224 0.52523 0.0
O496 O 0.96731 0.3952 0.52066 0.0
C497 C 0.95423 0.35199 0.54717 0.0
C498 C 0.9221 0.34133 0.50552 0.0
C499 C 0.95138 0.39809 0.52028 0.0
O500 O 0.94248 0.35338 0.53589 0.0
O501 O 0.9693 0.35774 0.54498 0.0
O502 O 0.94418 0.36928 0.48834 0.0
O503 O 0.96448 0.36254 0.5062 0.0
Co504 Co 0.87027 0.31229 0.73817 0.0
O505 O 0.89055 0.3204 0.74837 0.0
O506 O 0.87142 0.33679 0.73554 0.0
C507 C 0.86243 0.29541 0.7598 0.0
O508 O 0.84768 0.30759 0.72651 0.0
Co509 Co 0.86836 0.27395 0.72962 0.0
O510 O 0.84375 0.27929 0.72795 0.0
C511 C 0.8882 0.29653 0.70741 0.0
C512 C 0.88585 0.33539 0.74354 0.0
C513 C 0.83831 0.29426 0.72501 0.0
O514 O 0.88278 0.30922 0.71612 0.0
O515 O 0.88477 0.28108 0.71125 0.0
O516 O 0.85885 0.31151 0.7601 0.0
O517 O 0.87212 0.2905 0.74745 0.0
Co518 Co 0.94344 0.62608 0.99152 0.0
O519 O 0.9467 0.64765 0.0022 0.0
O520 O 0.92166 0.63675 0.99517 0.0
C521 C 0.96105 0.61163 0.00869 0.0
O522 O 0.93542 0.60393 0.98078 0.0
Co523 Co 0.97362 0.60829 0.97383 0.0
O524 O 0.95879 0.58808 0.97678 0.0
C525 C 0.95548 0.63568 0.95579 0.0
C526 C 0.93031 0.64913 0.00196 0.0
C527 C 0.94271 0.58966 0.97763 0.0
O528 O 0.94522 0.63698 0.96844 0.0
O529 O 0.96813 0.62545 0.95564 0.0
O530 O 0.9455 0.61458 0.01332 0.0
O531 O 0.96586 0.6188 0.99468 0.0
Co532 Co 0.62 0.69214 0.23338 0.0
O533 O 0.5982 0.68929 0.24354 0.0
O534 O 0.61404 0.66827 0.23331 0.0
C535 C 0.63088 0.70949 0.25325 0.0
O536 O 0.64338 0.69095 0.22225 0.0
Co537 Co 0.62941 0.72826 0.22065 0.0
O538 O 0.65248 0.71806 0.22052 0.0
C539 C 0.60571 0.70759 0.20061 0.0
C540 C 0.59998 0.6732 0.24053 0.0
C541 C 0.65511 0.70209 0.21966 0.0
O542 O 0.60882 0.69508 0.21062 0.0
O543 O 0.61177 0.72252 0.20298 0.0
O544 O 0.63082 0.69316 0.25562 0.0
O545 O 0.62256 0.71476 0.24006 0.0
Co546 Co 0.55863 0.3756 0.49629 0.0
O547 O 0.56373 0.35549 0.50864 0.0
O548 O 0.58299 0.37217 0.49633 0.0
C549 C 0.54046 0.38592 0.51556 0.0
O550 O 0.55772 0.39788 0.48333 0.0
Co551 Co 0.52216 0.38146 0.48332 0.0
O552 O 0.53023 0.40534 0.48179 0.0
C553 C 0.54465 0.35851 0.46421 0.0
C554 C 0.57953 0.35883 0.50549 0.0
C555 C 0.54598 0.40885 0.48043 0.0
O556 O 0.55673 0.36226 0.47456 0.0
O557 O 0.52947 0.3641 0.46598 0.0
O558 O 0.55668 0.38831 0.51736 0.0
O559 O 0.53583 0.37618 0.50314 0.0
Co560 Co 0.75467 0.88202 0.6985 0.0
O561 O 0.74618 0.90468 0.69652 0.0
O562 O 0.75359 0.88822 0.67483 0.0
C563 C 0.73527 0.87233 0.71709 0.0
O564 O 0.76348 0.85779 0.69603 0.0
Co565 Co 0.76903 0.87019 0.73321 0.0
O566 O 0.76582 0.8475 0.72263 0.0
C567 C 0.79009 0.89201 0.71141 0.0
C568 C 0.74772 0.90271 0.68023 0.0
C569 C 0.76536 0.84543 0.70657 0.0
O570 O 0.77855 0.89103 0.69989 0.0
O571 O 0.78841 0.88538 0.72619 0.0
O572 O 0.73173 0.87312 0.70099 0.0
O573 O 0.74943 0.87947 0.72155 0.0
Co574 Co 0.26412 0.61393 0.3029 0.0
O575 O 0.25405 0.59202 0.30523 0.0
O576 O 0.26179 0.60852 0.32679 0.0
C577 C 0.24595 0.62406 0.2834 0.0
O578 O 0.27452 0.63763 0.30469 0.0
Co579 Co 0.28001 0.6232 0.26795 0.0
O580 O 0.27857 0.64643 0.27772 0.0
C581 C 0.29842 0.6002 0.29086 0.0
C582 C 0.25518 0.59428 0.3215 0.0
C583 C 0.27778 0.64929 0.29366 0.0
O584 O 0.28731 0.60322 0.30245 0.0
O585 O 0.2972 0.60594 0.27568 0.0
O586 O 0.24192 0.62428 0.2994 0.0
O587 O 0.25969 0.61585 0.2797 0.0
Co588 Co 0.62377 -0.00129 0.55057 0.0
O589 O 0.64535 0.98915 0.55605 0.0
O590 O 0.62794 0.00144 0.57462 0.0
C591 C 0.61421 0.97716 0.53465 0.0
O592 O 0.60045 0.00971 0.54927 0.0
Co593 Co 0.61602 0.00782 0.5132 0.0
O594 O 0.59236 0.0095 0.52187 0.0
C595 C 0.63826 0.0303 0.53301 0.0
C596 C 0.6424 0.99406 0.5715 0.0
C597 C 0.58918 0.01174 0.5376 0.0
O598 O 0.63509 0.0211 0.54609 0.0
O599 O 0.63263 0.02675 0.51815 0.0
O600 O 0.6129 0.97655 0.5511 0.0
O601 O 0.62289 0.98974 0.52853 0.0
Co602 Co 0.22991 0.38653 0.80639 0.0
O603 O 0.2374 0.40959 0.80832 0.0
O604 O 0.23225 0.39232 0.83007 0.0
C605 C 0.24848 0.37827 0.78633 0.0
O606 O 0.22264 0.36184 0.80905 0.0
Co607 Co 0.21415 0.37411 0.77243 0.0
O608 O 0.21935 0.35156 0.78254 0.0
C609 C 0.19374 0.39547 0.7953 0.0
C610 C 0.23708 0.40718 0.82463 0.0
C611 C 0.22103 0.34945 0.79852 0.0
O612 O 0.20555 0.39436 0.80656 0.0
O613 O 0.19516 0.38927 0.78032 0.0
O614 O 0.25308 0.37887 0.80218 0.0
O615 O 0.2337 0.38466 0.78303 0.0
Co616 Co 0.36437 0.48785 0.55058 0.0
O617 O 0.34186 0.49706 0.55103 0.0
O618 O 0.35655 0.48888 0.57372 0.0
C619 C 0.37568 0.50711 0.53282 0.0
O620 O 0.38792 0.47824 0.55505 0.0
Co621 Co 0.37934 0.47337 0.51735 0.0
O622 O 0.40111 0.47619 0.52983 0.0
C623 C 0.35501 0.45268 0.53687 0.0
C624 C 0.34262 0.49513 0.5674 0.0
C625 C 0.40137 0.4762 0.54602 0.0
O626 O 0.35465 0.46437 0.54825 0.0
O627 O 0.36365 0.45392 0.52312 0.0
O628 O 0.37417 0.51048 0.54892 0.0
O629 O 0.36874 0.49306 0.52775 0.0
Co630 Co 0.73275 0.1141 0.19052 0.0
O631 O 0.74286 0.09295 0.1844 0.0
O632 O 0.73052 0.11077 0.16626 0.0
C633 C 0.75384 0.12372 0.20709 0.0
O634 O 0.72135 0.13722 0.19268 0.0
Co635 Co 0.72298 0.11971 0.22817 0.0
O636 O 0.7216 0.14374 0.22053 0.0
C637 C 0.70155 0.09767 0.20709 0.0
C638 C 0.73824 0.09639 0.16897 0.0
C639 C 0.71949 0.14784 0.20498 0.0
O640 O 0.71054 0.10211 0.19422 0.0
O641 O 0.70496 0.10243 0.22229 0.0
O642 O 0.75471 0.12538 0.19069 0.0
O643 O 0.74144 0.11442 0.21267 0.0
Co644 Co 0.63688 0.97944 0.93578 0.0
O645 O 0.65931 0.98789 0.93176 0.0
O646 O 0.64041 0.98189 0.91163 0.0
C647 C 0.62968 -0.00221 0.95645 0.0
O648 O 0.61238 0.97099 0.93543 0.0
Co649 Co 0.62815 0.96342 0.97074 0.0
O650 O 0.60459 0.96746 0.96271 0.0
C651 C 0.64782 0.94353 0.94592 0.0
C652 C 0.65551 0.9873 0.91572 0.0
C653 C 0.601 0.96874 0.94697 0.0
O654 O 0.64581 0.95548 0.93496 0.0
O655 O 0.64249 0.94453 0.96127 0.0
O656 O 0.62861 0.00227 0.9406 0.0
O657 O 0.63697 0.98332 0.95922 0.0
Co658 Co 0.86332 0.01073 0.43439 0.0
O659 O 0.84551 0.99607 0.42701 0.0
O660 O 0.86262 0.01055 0.40979 0.0
C661 C 0.87432 0.99301 0.4539 0.0
O662 O 0.88363 0.02631 0.43789 0.0
Co663 Co 0.86231 0.02374 0.47171 0.0
O664 O 0.88508 0.03277 0.46579 0.0
C665 C 0.83996 0.03953 0.4464 0.0
C666 C 0.85015 -0.00018 0.41165 0.0
C667 C 0.89101 0.03328 0.45071 0.0
O668 O 0.84727 0.03072 0.43474 0.0
O669 O 0.84311 0.03759 0.46225 0.0
O670 O 0.87818 0.99125 0.43794 0.0
O671 O 0.86248 0.00392 0.45714 0.0
C672 C 0.08784 0.16412 0.48663 0.0
C673 C 0.09305 0.15111 0.49767 0.0
C674 C 0.0996 0.17532 0.47971 0.0
C675 C 0.14425 0.17967 0.46843 0.0
H676 H 0.13122 0.22686 0.46234 0.0
C677 C 0.159 0.23594 0.41837 0.0
C678 C 0.17682 0.23562 0.41803 0.0
C679 C 0.15015 0.22727 0.43109 0.0
C680 C 0.13503 0.21373 0.464 0.0
H681 H 0.11473 0.13953 0.51008 0.0
H682 H 0.13556 0.15934 0.49784 0.0
H683 H 0.11358 0.20815 0.47969 0.0
H684 H 0.1994 0.2266 0.43109 0.0
H685 H 0.18389 0.21141 0.45319 0.0
H686 H 0.16552 0.18522 0.45239 0.0
C687 C 0.12226 0.16075 0.49459 0.0
C688 C 0.12497 0.20303 0.4739 0.0
C689 C 0.11039 0.14944 0.50158 0.0
C690 C 0.18564 0.22701 0.43096 0.0
C691 C 0.1768 0.21826 0.44359 0.0
C692 C 0.1544 0.19043 0.4586 0.0
C693 C 0.11692 0.17387 0.48368 0.0
C694 C 0.12916 0.18575 0.47573 0.0
C695 C 0.15898 0.21808 0.44361 0.0
C696 C 0.14958 0.20742 0.45589 0.0
H697 H 0.07459 0.1657 0.48324 0.0
H698 H 0.09512 0.18499 0.471 0.0
H699 H 0.14774 0.1664 0.46952 0.0
H700 H 0.15188 0.24248 0.40857 0.0
H701 H 0.13639 0.2272 0.43072 0.0
C702 C 0.08057 0.84152 0.73887 0.0
C703 C 0.07905 0.82432 0.74328 0.0
C704 C 0.06751 0.84958 0.72994 0.0
C705 C 0.03221 0.83934 0.70104 0.0
H706 H 0.02062 0.88666 0.70793 0.0
C707 C 0.98704 0.89717 0.67375 0.0
C708 C 0.99074 0.89575 0.65639 0.0
C709 C 0.99418 0.8859 0.68535 0.0
C710 C 0.02344 0.87333 0.706 0.0
H711 H 0.06236 0.80234 0.74288 0.0
H712 H 0.03951 0.81649 0.72767 0.0
H713 H 0.04027 0.87289 0.72732 0.0
H714 H 0.00357 0.88089 0.63717 0.0
H715 H 0.01659 0.86132 0.65753 0.0
H716 H 0.01537 0.83983 0.67966 0.0
C717 C 0.0509 0.82364 0.73064 0.0
C718 C 0.03492 0.86553 0.71698 0.0
C719 C 0.06395 0.81558 0.73945 0.0
C720 C 0.00048 0.88207 0.65054 0.0
C721 C 0.00792 0.87091 0.66221 0.0
C722 C 0.02068 0.84714 0.69005 0.0
C723 C 0.05271 0.84058 0.7254 0.0
C724 C 0.03961 0.84853 0.71449 0.0
C725 C 0.00548 0.87327 0.6798 0.0
C726 C 0.01632 0.86428 0.6923 0.0
H727 H 0.09211 0.84851 0.74162 0.0
H728 H 0.06932 0.86264 0.72597 0.0
H729 H 0.03573 0.82625 0.69867 0.0
H730 H 0.97941 0.90762 0.67846 0.0
H731 H 0.99166 0.88773 0.69876 0.0
C732 C 0.42218 0.81731 0.99228 0.0
C733 C 0.41573 0.83371 0.99496 0.0
C734 C 0.4122 0.80491 0.98451 0.0
C735 C 0.39421 0.78616 0.95652 0.0
H736 H 0.34515 0.78508 0.96016 0.0
C737 C 0.35127 0.75776 0.90457 0.0
C738 C 0.33527 0.75152 0.90928 0.0
C739 C 0.362 0.76482 0.91685 0.0
C740 C 0.35887 0.7849 0.95918 0.0
H741 H 0.39371 0.84995 0.9923 0.0
H742 H 0.37641 0.82854 0.97806 0.0
H743 H 0.3614 0.80272 0.97949 0.0
H744 H 0.31842 0.74621 0.9304 0.0
H745 H 0.33744 0.75767 0.95192 0.0
H746 H 0.3917 0.76802 0.93646 0.0
C747 C 0.38901 0.82503 0.98234 0.0
C748 C 0.36818 0.79527 0.97011 0.0
C749 C 0.39891 0.83735 0.99041 0.0
C750 C 0.33064 0.75124 0.92648 0.0
C751 C 0.34148 0.75792 0.93877 0.0
C752 C 0.38492 0.77558 0.94574 0.0
C753 C 0.39568 0.80877 0.97896 0.0
C754 C 0.38592 0.79634 0.96866 0.0
C755 C 0.35699 0.76541 0.93404 0.0
C756 C 0.36711 0.7751 0.94669 0.0
H757 H 0.43507 0.81414 0.99592 0.0
H758 H 0.41759 0.79241 0.98252 0.0
H759 H 0.40786 0.78679 0.95487 0.0
H760 H 0.35504 0.75812 0.89133 0.0
H761 H 0.37377 0.7706 0.91269 0.0
C762 C 0.41772 0.14863 0.23495 0.0
C763 C 0.41997 0.1656 0.23986 0.0
C764 C 0.43121 0.13961 0.22777 0.0
C765 C 0.47065 0.14763 0.20405 0.0
H766 H 0.47574 0.09891 0.20865 0.0
C767 C 0.5095 0.08592 0.17542 0.0
C768 C 0.50764 0.08947 0.15806 0.0
C769 C 0.50318 0.09713 0.18754 0.0
C770 C 0.47481 0.11258 0.20744 0.0
H771 H 0.43825 0.18611 0.24241 0.0
H772 H 0.46186 0.17025 0.23035 0.0
H773 H 0.45614 0.11388 0.22712 0.0
H774 H 0.49902 0.10784 0.13955 0.0
H775 H 0.48726 0.12728 0.16073 0.0
H776 H 0.48935 0.14631 0.18435 0.0
C777 C 0.44962 0.16404 0.2315 0.0
C778 C 0.46335 0.12111 0.21787 0.0
C779 C 0.43612 0.17308 0.23848 0.0
C780 C 0.50061 0.10497 0.15292 0.0
C781 C 0.49393 0.11607 0.16508 0.0
C782 C 0.48224 0.13911 0.19368 0.0
C783 C 0.44719 0.14739 0.22559 0.0
C784 C 0.46083 0.13866 0.21601 0.0
C785 C 0.49449 0.11186 0.18248 0.0
C786 C 0.48415 0.12143 0.19499 0.0
H787 H 0.40537 0.14261 0.23587 0.0
H788 H 0.42886 0.12684 0.2232 0.0
H789 H 0.4689 0.16115 0.20217 0.0
H790 H 0.51511 0.07406 0.17959 0.0
H791 H 0.50428 0.09377 0.20085 0.0
C792 C 0.13217 0.75212 0.09265 0.0
C793 C 0.1462 0.74291 0.08677 0.0
C794 C 0.12031 0.75848 0.08106 0.0
C795 C 0.12062 0.77197 0.03644 0.0
H796 H 0.07437 0.78545 0.04653 0.0
C797 C 0.06292 0.81581 0.00705 0.0
C798 C 0.07255 0.83021 0.00266 0.0
C799 C 0.07053 0.8021 0.0153 0.0
C800 C 0.08717 0.78154 0.04335 0.0
H801 H 0.15804 0.73131 0.06484 0.0
H802 H 0.13686 0.7415 0.0447 0.0
H803 H 0.08863 0.765 0.0649 0.0
H804 H 0.09771 0.84143 0.00302 0.0
H805 H 0.11096 0.81766 0.01772 0.0
H806 H 0.1192 0.78845 0.01494 0.0
C807 C 0.13532 0.74457 0.05803 0.0
C808 C 0.0954 0.76997 0.05399 0.0
C809 C 0.14736 0.73862 0.06953 0.0
C810 C 0.09001 0.83047 0.00621 0.0
C811 C 0.09759 0.8168 0.01454 0.0
C812 C 0.11236 0.78339 0.02577 0.0
C813 C 0.12223 0.75541 0.06351 0.0
C814 C 0.11238 0.7654 0.05091 0.0
C815 C 0.08789 0.80256 0.01937 0.0
C816 C 0.09575 0.7887 0.02938 0.0
H817 H 0.13115 0.75558 0.10593 0.0
H818 H 0.11045 0.76684 0.08574 0.0
H819 H 0.13377 0.769 0.03376 0.0
H820 H 0.04944 0.81522 0.00435 0.0
H821 H 0.06278 0.79121 0.01863 0.0
C822 C 0.47744 0.90321 0.33605 0.0
C823 C 0.48076 0.92067 0.33481 0.0
C824 C 0.47025 0.8945 0.32237 0.0
C825 C 0.44465 0.90236 0.28379 0.0
H826 H 0.45379 0.85461 0.27621 0.0
C827 C 0.42177 0.84032 0.24133 0.0
C828 C 0.40416 0.84276 0.24234 0.0
C829 C 0.43286 0.85193 0.24878 0.0
C830 C 0.45127 0.86804 0.27781 0.0
H831 H 0.48011 0.94257 0.31807 0.0
H832 H 0.46811 0.92727 0.29401 0.0
H833 H 0.47094 0.87029 0.29637 0.0
H834 H 0.38419 0.85957 0.25091 0.0
H835 H 0.40348 0.87953 0.26478 0.0
H836 H 0.42516 0.90015 0.26497 0.0
C837 C 0.47052 0.92038 0.30568 0.0
C838 C 0.46096 0.87696 0.28965 0.0
C839 C 0.47749 0.92912 0.31943 0.0
C840 C 0.39777 0.85752 0.24995 0.0
C841 C 0.40887 0.86896 0.25782 0.0
C842 C 0.43509 0.89347 0.27175 0.0
C843 C 0.46647 0.90305 0.3071 0.0
C844 C 0.45748 0.89411 0.29311 0.0
C845 C 0.42652 0.86594 0.25787 0.0
C846 C 0.43802 0.87609 0.2689 0.0
H847 H 0.47978 0.89642 0.3478 0.0
H848 H 0.46708 0.88121 0.32402 0.0
H849 H 0.44151 0.91553 0.28622 0.0
H850 H 0.42694 0.82908 0.23528 0.0
H851 H 0.44638 0.84949 0.24806 0.0
C852 C 0.34176 0.26002 0.57049 0.0
C853 C 0.34496 0.25666 0.58768 0.0
C854 C 0.35268 0.2539 0.55802 0.0
C855 C 0.36649 0.22609 0.53621 0.0
H856 H 0.41466 0.21719 0.54087 0.0
C857 C 0.3996 0.16973 0.50387 0.0
C858 C 0.41657 0.17165 0.4988 0.0
C859 C 0.39131 0.18293 0.51234 0.0
C860 C 0.40125 0.2198 0.53919 0.0
H861 H 0.36248 0.24548 0.60564 0.0
H862 H 0.38141 0.23408 0.58378 0.0
H863 H 0.40086 0.23688 0.56036 0.0
H864 H 0.43784 0.18918 0.49743 0.0
H865 H 0.42325 0.21232 0.51183 0.0
H866 H 0.36684 0.20901 0.5151 0.0
C867 C 0.37071 0.24178 0.57987 0.0
C868 C 0.39333 0.23094 0.55049 0.0
C869 C 0.3599 0.24825 0.5924 0.0
C870 C 0.42479 0.18729 0.50141 0.0
C871 C 0.41649 0.20051 0.50974 0.0
C872 C 0.37442 0.21505 0.52488 0.0
C873 C 0.36675 0.2439 0.56252 0.0
C874 C 0.37578 0.23394 0.54933 0.0
C875 C 0.39983 0.19831 0.51572 0.0
C876 C 0.3918 0.21149 0.52648 0.0
H877 H 0.33034 0.26669 0.56666 0.0
H878 H 0.34957 0.25619 0.5448 0.0
H879 H 0.35289 0.22787 0.53509 0.0
H880 H 0.393 0.15778 0.50205 0.0
H881 H 0.37851 0.18078 0.51693 0.0
C882 C 0.09249 0.14771 0.75279 0.0
C883 C 0.08852 0.16434 0.74786 0.0
C884 C 0.08007 0.13739 0.76018 0.0
C885 C 0.03936 0.14149 0.7834 0.0
H886 H 0.04174 0.09235 0.78239 0.0
C887 C 0.00765 0.07743 0.81618 0.0
C888 C 0.00641 0.08347 0.8329 0.0
C889 C 0.01431 0.08774 0.80339 0.0
C890 C 0.04057 0.10606 0.78261 0.0
H891 H 0.06836 0.18291 0.74544 0.0
H892 H 0.04645 0.16466 0.75749 0.0
H893 H 0.0592 0.10877 0.76306 0.0
H894 H 0.01051 0.10511 0.8494 0.0
H895 H 0.02296 0.12289 0.82735 0.0
H896 H 0.02035 0.13877 0.80257 0.0
C897 C 0.05925 0.15974 0.75641 0.0
C898 C 0.05086 0.1155 0.77168 0.0
C899 C 0.07175 0.17016 0.74939 0.0
C900 C 0.01129 0.10021 0.83655 0.0
C901 C 0.01832 0.11041 0.82384 0.0
C902 C 0.02883 0.13204 0.79409 0.0
C903 C 0.06337 0.14343 0.76244 0.0
C904 C 0.05077 0.13335 0.77229 0.0
C905 C 0.02026 0.10417 0.80717 0.0
C906 C 0.02966 0.11421 0.7942 0.0
H907 H 0.10537 0.14298 0.75179 0.0
H908 H 0.08383 0.12502 0.76486 0.0
H909 H 0.03901 0.15521 0.78441 0.0
H910 H 0.00372 0.0646 0.81303 0.0
H911 H 0.01514 0.08265 0.79063 0.0
C912 C 0.23947 0.40801 0.15152 0.0
C913 C 0.24381 0.41114 0.1685 0.0
C914 C 0.2331 0.42111 0.1414 0.0
C915 C 0.21107 0.4622 0.14604 0.0
H916 H 0.21536 0.46226 0.09701 0.0
C917 C 0.1825 0.49626 0.08131 0.0
C918 C 0.1653 0.49638 0.08596 0.0
C919 C 0.19471 0.48986 0.09242 0.0
C920 C 0.21426 0.46276 0.11071 0.0
H921 H 0.24621 0.4305 0.18796 0.0
H922 H 0.23578 0.45352 0.17014 0.0
H923 H 0.23323 0.44361 0.11376 0.0
H924 H 0.14733 0.49086 0.10606 0.0
H925 H 0.16848 0.47893 0.12523 0.0
H926 H 0.19229 0.48155 0.14301 0.0
C927 C 0.23662 0.44089 0.16476 0.0
C928 C 0.22434 0.45181 0.12031 0.0
C929 C 0.24268 0.42773 0.17494 0.0
C930 C 0.16056 0.49091 0.10223 0.0
C931 C 0.17273 0.48417 0.11323 0.0
C932 C 0.20117 0.47334 0.13646 0.0
C933 C 0.23126 0.43764 0.14803 0.0
C934 C 0.22247 0.451 0.13804 0.0
C935 C 0.18989 0.48309 0.10823 0.0
C936 C 0.20225 0.47336 0.11864 0.0
H937 H 0.24021 0.39529 0.1463 0.0
H938 H 0.2289 0.41807 0.12866 0.0
H939 H 0.20915 0.46186 0.15967 0.0
H940 H 0.18648 0.50068 0.06889 0.0
H941 H 0.20786 0.48967 0.08835 0.0
C942 C 0.74716 0.08489 0.84353 0.0
C943 C 0.75177 0.08216 0.82654 0.0
C944 C 0.73836 0.07236 0.85251 0.0
C945 C 0.71143 0.03444 0.84531 0.0
H946 H 0.71734 0.02906 0.89389 0.0
C947 C 0.68512 0.99306 0.90665 0.0
C948 C 0.66768 0.99344 0.903 0.0
C949 C 0.69668 0.00109 0.89591 0.0
C950 C 0.7157 0.03011 0.88026 0.0
H951 H 0.75162 0.064 0.8058 0.0
H952 H 0.73685 0.04191 0.82163 0.0
H953 H 0.73587 0.04818 0.8784 0.0
H954 H 0.6486 0.00168 0.88499 0.0
H955 H 0.6687 0.01642 0.86652 0.0
H956 H 0.69154 0.016 0.84713 0.0
C957 C 0.73947 0.05388 0.8279 0.0
C958 C 0.72617 0.04134 0.87142 0.0
C959 C 0.74803 0.0665 0.81886 0.0
C960 C 0.66203 0.00119 0.888 0.0
C961 C 0.67358 0.00957 0.87741 0.0
C962 C 0.7011 0.02301 0.85412 0.0
C963 C 0.73425 0.05677 0.84472 0.0
C964 C 0.72397 0.04387 0.85389 0.0
C965 C 0.69099 0.01002 0.88153 0.0
C966 C 0.70293 0.02091 0.87176 0.0
H967 H 0.74983 0.09691 0.8497 0.0
H968 H 0.73433 0.07513 0.86537 0.0
H969 H 0.70924 0.0362 0.83183 0.0
H970 H 0.68978 0.98691 0.91805 0.0
H971 H 0.71004 0.00073 0.8992 0.0
C972 C 0.74808 0.93443 0.31569 0.0
C973 C 0.74323 0.91973 0.32465 0.0
C974 C 0.76061 0.9452 0.32222 0.0
C975 C 0.79835 0.94233 0.34789 0.0
H976 H 0.79446 0.99066 0.35675 0.0
C977 C 0.83513 0.97517 0.39957 0.0
C978 C 0.84168 0.99157 0.39724 0.0
C979 C 0.8256 0.96747 0.38689 0.0
C980 C 0.79589 0.97727 0.35388 0.0
H981 H 0.74681 0.90535 0.34789 0.0
H982 H 0.76877 0.92409 0.35919 0.0
H983 H 0.77111 0.97558 0.34255 0.0
H984 H 0.84394 0.01273 0.37978 0.0
H985 H 0.82662 -0.00076 0.35739 0.0
H986 H 0.82279 0.94376 0.35963 0.0
C987 C 0.76296 0.92718 0.34709 0.0
C988 C 0.78252 0.96867 0.34592 0.0
C989 C 0.75031 0.91655 0.3407 0.0
C990 C 0.83902 2e-05 0.38175 0.0
C991 C 0.82911 0.99237 0.36906 0.0
C992 C 0.81171 0.95091 0.35567 0.0
C993 C 0.76856 0.94126 0.33766 0.0
C994 C 0.78341 0.95101 0.34357 0.0
C995 C 0.82222 0.97608 0.37164 0.0
C996 C 0.81029 0.96828 0.35944 0.0
H997 H 0.74276 0.9372 0.3033 0.0
H998 H 0.7647 0.95607 0.31481 0.0
H999 H 0.79943 0.92876 0.34581 0.0
H1000 H 0.83711 0.96837 0.41138 0.0
H1001 H 0.82025 0.95502 0.38934 0.0
C1002 C 0.82975 0.00784 0.09123 0.0
C1003 C 0.82685 0.00355 0.07418 0.0
C1004 C 0.81672 0.01496 0.10094 0.0
C1005 C 0.77733 0.03947 0.09514 0.0
H1006 H 0.77438 0.03383 0.14395 0.0
C1007 C 0.74079 0.0668 0.15894 0.0
C1008 C 0.74187 0.08421 0.15539 0.0
C1009 C 0.74713 0.05494 0.14747 0.0
C1010 C 0.77471 0.03536 0.13027 0.0
H1011 H 0.80787 0.00203 0.05424 0.0
H1012 H 0.78502 0.01392 0.07134 0.0
H1013 H 0.79301 0.0155 0.12768 0.0
H1014 H 0.74933 0.10307 0.13682 0.0
H1015 H 0.76125 0.08239 0.11695 0.0
H1016 H 0.75889 0.05925 0.09773 0.0
C1017 C 0.79743 0.01236 0.07707 0.0
C1018 C 0.78563 0.02498 0.12098 0.0
C1019 C 0.81049 0.00546 0.06732 0.0
C1020 C 0.74835 0.08964 0.13973 0.0
C1021 C 0.7551 0.07777 0.12836 0.0
C1022 C 0.76625 0.04974 0.10441 0.0
C1023 C 0.80053 0.01768 0.09382 0.0
C1024 C 0.78739 0.0272 0.10338 0.0
C1025 C 0.75513 0.06032 0.13243 0.0
C1026 C 0.7651 0.04807 0.12215 0.0
H1027 H 0.84227 0.00654 0.09679 0.0
H1028 H 0.81961 0.01907 0.11376 0.0
H1029 H 0.77849 0.04164 0.08159 0.0
H1030 H 0.73556 0.06237 0.1709 0.0
H1031 H 0.74645 0.04159 0.15076 0.0
C1032 C 0.25078 0.58453 0.64524 0.0
C1033 C 0.24502 0.5796 0.66134 0.0
C1034 C 0.25695 0.57236 0.63391 0.0
C1035 C 0.26681 0.54425 0.60994 0.0
H1036 H 0.29441 0.50996 0.63205 0.0
C1037 C 0.31211 0.50243 0.5712 0.0
C1038 C 0.32835 0.50029 0.57825 0.0
C1039 C 0.29883 0.50871 0.58109 0.0
C1040 C 0.28681 0.51948 0.62566 0.0
H1041 H 0.23954 0.5582 0.67778 0.0
H1042 H 0.24944 0.53684 0.65771 0.0
H1043 H 0.27624 0.52802 0.64905 0.0
H1044 H 0.34342 0.50242 0.60118 0.0
H1045 H 0.32052 0.51409 0.61831 0.0
H1046 H 0.27855 0.53668 0.58672 0.0
C1047 C 0.25 0.55009 0.65403 0.0
C1048 C 0.27611 0.52968 0.63539 0.0
C1049 C 0.24423 0.56229 0.66549 0.0
C1050 C 0.33099 0.50393 0.59548 0.0
C1051 C 0.31779 0.5105 0.60531 0.0
C1052 C 0.27775 0.53424 0.60024 0.0
C1053 C 0.2571 0.55503 0.63839 0.0
C1054 C 0.26631 0.54251 0.6277 0.0
C1055 C 0.30162 0.51324 0.59815 0.0
C1056 C 0.28823 0.52206 0.60806 0.0
H1057 H 0.25152 0.59785 0.64181 0.0
H1058 H 0.26248 0.57671 0.62208 0.0
H1059 H 0.25919 0.55375 0.60355 0.0
H1060 H 0.30971 0.49947 0.55797 0.0
H1061 H 0.28646 0.5103 0.57527 0.0
C1062 C 0.24193 0.58569 0.34908 0.0
C1063 C 0.24842 0.5813 0.33308 0.0
C1064 C 0.23303 0.57363 0.35866 0.0
C1065 C 0.20868 0.53399 0.35244 0.0
H1066 H 0.20968 0.53216 0.40162 0.0
C1067 C 0.18069 0.49302 0.41294 0.0
C1068 C 0.16349 0.49209 0.40838 0.0
C1069 C 0.1922 0.50178 0.40276 0.0
C1070 C 0.20943 0.53231 0.38785 0.0
H1071 H 0.252 0.56076 0.31506 0.0
H1072 H 0.23709 0.53965 0.33199 0.0
H1073 H 0.22855 0.55161 0.38673 0.0
H1074 H 0.14486 0.49862 0.38923 0.0
H1075 H 0.16494 0.51441 0.37148 0.0
H1076 H 0.18976 0.51447 0.35355 0.0
C1077 C 0.23822 0.55246 0.33691 0.0
C1078 C 0.22008 0.54365 0.37935 0.0
C1079 C 0.24687 0.56451 0.32728 0.0
C1080 C 0.15812 0.49911 0.39291 0.0
C1081 C 0.16962 0.50814 0.38279 0.0
C1082 C 0.1981 0.52257 0.36093 0.0
C1083 C 0.23071 0.557 0.35243 0.0
C1084 C 0.21979 0.54466 0.36155 0.0
C1085 C 0.18666 0.51005 0.38795 0.0
C1086 C 0.19833 0.52163 0.37874 0.0
H1087 H 0.24292 0.5986 0.35375 0.0
H1088 H 0.22733 0.57756 0.37056 0.0
H1089 H 0.20792 0.53465 0.33871 0.0
H1090 H 0.18515 0.4875 0.42475 0.0
H1091 H 0.20533 0.50257 0.40681 0.0
C1092 C 0.31488 0.50214 0.91942 0.0
C1093 C 0.33168 0.50264 0.91349 0.0
C1094 C 0.30204 0.49523 0.90939 0.0
C1095 C 0.28117 0.46815 0.89258 0.0
H1096 H 0.28153 0.46869 0.84335 0.0
C1097 C 0.24915 0.41631 0.85247 0.0
C1098 C 0.24312 0.4205 0.83624 0.0
C1099 C 0.25728 0.42857 0.86239 0.0
C1100 C 0.28099 0.46863 0.8571 0.0
H1101 H 0.34827 0.49706 0.89227 0.0
H1102 H 0.32597 0.48424 0.87491 0.0
H1103 H 0.30072 0.48723 0.85889 0.0
H1104 H 0.23957 0.44095 0.81812 0.0
H1105 H 0.25315 0.46251 0.83568 0.0
H1106 H 0.26124 0.44978 0.89081 0.0
C1107 C 0.32256 0.48958 0.88712 0.0
C1108 C 0.29221 0.47908 0.86601 0.0
C1109 C 0.33537 0.49682 0.89707 0.0
C1110 C 0.24433 0.43736 0.83053 0.0
C1111 C 0.25221 0.44967 0.84054 0.0
C1112 C 0.26981 0.45786 0.88368 0.0
C1113 C 0.30582 0.48833 0.89336 0.0
C1114 C 0.29269 0.47869 0.88384 0.0
C1115 C 0.25928 0.44529 0.85634 0.0
C1116 C 0.26985 0.45768 0.86584 0.0
H1117 H 0.3117 0.50682 0.93197 0.0
H1118 H 0.28923 0.49491 0.9144 0.0
H1119 H 0.28131 0.46732 0.90631 0.0
H1120 H 0.24841 0.40337 0.85712 0.0
H1121 H 0.26272 0.42468 0.87441 0.0
C1122 C 0.60255 0.65734 0.99655 0.0
C1123 C 0.58688 0.66279 0.00298 0.0
C1124 C 0.61374 0.66911 0.98934 0.0
C1125 C 0.63729 0.69691 0.97696 0.0
H1126 H 0.61345 0.72964 0.94884 0.0
C1127 C 0.67357 0.73851 0.92963 0.0
C1128 C 0.66641 0.73949 0.91332 0.0
C1129 C 0.66402 0.7325 0.94327 0.0
C1130 C 0.6203 0.72057 0.9566 0.0
H1131 H 0.57124 0.68468 0.00874 0.0
H1132 H 0.59108 0.70531 0.99697 0.0
H1133 H 0.59756 0.71214 0.96862 0.0
H1134 H 0.64351 0.73581 0.89852 0.0
H1135 H 0.62688 0.72473 0.92222 0.0
H1136 H 0.65986 0.70448 0.96397 0.0
C1137 C 0.59449 0.69198 0.99672 0.0
C1138 C 0.61123 0.7107 0.96817 0.0
C1139 C 0.58319 0.68021 0.00356 0.0
C1140 C 0.64928 0.73519 0.911 0.0
C1141 C 0.63977 0.72893 0.92462 0.0
C1142 C 0.64634 0.70666 0.96523 0.0
C1143 C 0.6095 0.68651 0.98877 0.0
C1144 C 0.61956 0.69849 0.97825 0.0
C1145 C 0.64718 0.72711 0.94081 0.0
C1146 C 0.63788 0.71834 0.95466 0.0
H1147 H 0.60558 0.64393 0.99596 0.0
H1148 H 0.62514 0.66441 0.98324 0.0
H1149 H 0.64412 0.6878 0.98468 0.0
H1150 H 0.68671 0.74201 0.93179 0.0
H1151 H 0.66998 0.73166 0.95565 0.0
C1152 C 0.5636 0.32883 0.25439 0.0
C1153 C 0.58036 0.33475 0.25592 0.0
C1154 C 0.55135 0.33862 0.24619 0.0
C1155 C 0.53266 0.35473 0.21707 0.0
H1156 H 0.53266 0.40395 0.21696 0.0
C1157 C 0.50218 0.39428 0.16349 0.0
C1158 C 0.4957 0.41035 0.16757 0.0
C1159 C 0.51018 0.38449 0.17598 0.0
C1160 C 0.53224 0.39019 0.21702 0.0
H1161 H 0.59737 0.35581 0.25086 0.0
H1162 H 0.57614 0.37277 0.23599 0.0
H1163 H 0.55071 0.38883 0.23689 0.0
H1164 H 0.49118 0.42831 0.18795 0.0
H1165 H 0.50445 0.41101 0.20984 0.0
H1166 H 0.51394 0.3561 0.19743 0.0
C1167 C 0.57229 0.36072 0.24142 0.0
C1168 C 0.5428 0.38153 0.2283 0.0
C1169 C 0.5845 0.351 0.24989 0.0
C1170 C 0.49634 0.41604 0.18446 0.0
C1171 C 0.50404 0.40618 0.19696 0.0
C1172 C 0.52195 0.3634 0.20592 0.0
C1173 C 0.55569 0.35443 0.23909 0.0
C1174 C 0.54335 0.36369 0.22826 0.0
C1175 C 0.51156 0.39055 0.19277 0.0
C1176 C 0.52181 0.38123 0.20557 0.0
H1177 H 0.56005 0.3164 0.25915 0.0
H1178 H 0.53859 0.3336 0.24504 0.0
H1179 H 0.53291 0.34098 0.2165 0.0
H1180 H 0.50188 0.38967 0.15052 0.0
H1181 H 0.51596 0.37258 0.17225 0.0
C1182 C 0.91516 0.3111 0.49988 0.0
C1183 C 0.90997 0.32815 0.5002 0.0
C1184 C 0.90497 0.29874 0.49232 0.0
C1185 C 0.88878 0.27901 0.46392 0.0
H1186 H 0.83963 0.28091 0.46247 0.0
C1187 C 0.84917 0.24855 0.41035 0.0
C1188 C 0.83252 0.24339 0.41405 0.0
C1189 C 0.85916 0.25608 0.42298 0.0
C1190 C 0.85335 0.27993 0.46294 0.0
H1191 H 0.88976 0.34563 0.49373 0.0
H1192 H 0.87209 0.32415 0.47996 0.0
H1193 H 0.85498 0.29937 0.48184 0.0
H1194 H 0.81374 0.24047 0.43398 0.0
H1195 H 0.8314 0.25281 0.45617 0.0
H1196 H 0.88713 0.25938 0.4452 0.0
C1197 C 0.88387 0.32019 0.48585 0.0
C1198 C 0.86216 0.29074 0.47389 0.0
C1199 C 0.89399 0.33253 0.49369 0.0
C1200 C 0.82649 0.24459 0.43079 0.0
C1201 C 0.83655 0.25179 0.44345 0.0
C1202 C 0.87996 0.26806 0.4531 0.0
C1203 C 0.8895 0.30324 0.48464 0.0
C1204 C 0.87999 0.29063 0.4743 0.0
C1205 C 0.85273 0.25828 0.43955 0.0
C1206 C 0.86214 0.2686 0.45225 0.0
H1207 H 0.92737 0.30737 0.50504 0.0
H1208 H 0.90948 0.28575 0.49205 0.0
H1209 H 0.90253 0.27872 0.4637 0.0
H1210 H 0.85403 0.24783 0.39748 0.0
H1211 H 0.87152 0.26102 0.41947 0.0
C1212 C 0.9298 0.67633 0.73797 0.0
C1213 C 0.91683 0.66889 0.74774 0.0
C1214 C 0.94082 0.66619 0.7285 0.0
C1215 C 0.94142 0.62419 0.70841 0.0
H1216 H 0.98881 0.63465 0.69958 0.0
C1217 C 0.98374 0.57913 0.67081 0.0
C1218 C 0.99317 0.58624 0.65742 0.0
C1219 C 0.97585 0.58952 0.68272 0.0
C1220 C 0.97555 0.6317 0.70188 0.0
H1221 H 0.90595 0.64506 0.7563 0.0
H1222 H 0.9255 0.6273 0.74013 0.0
H1223 H 0.97281 0.65181 0.72002 0.0
H1224 H 0.00223 0.60978 0.64628 0.0
H1225 H 0.98828 0.62809 0.66731 0.0
H1226 H 0.94412 0.6041 0.69038 0.0
C1227 C 0.92684 0.64098 0.73938 0.0
C1228 C 0.96641 0.64147 0.71356 0.0
C1229 C 0.91572 0.65113 0.74872 0.0
C1230 C 0.99498 0.60398 0.65645 0.0
C1231 C 0.9871 0.61443 0.66849 0.0
C1232 C 0.95055 0.61441 0.69688 0.0
C1233 C 0.93915 0.64842 0.72875 0.0
C1234 C 0.94925 0.63778 0.71697 0.0
C1235 C 0.97724 0.60724 0.68154 0.0
C1236 C 0.9677 0.61802 0.69355 0.0
H1237 H 0.93096 0.69001 0.73698 0.0
H1238 H 0.95007 0.67233 0.72036 0.0
H1239 H 0.9281 0.6213 0.71036 0.0
H1240 H 0.98221 0.5655 0.672 0.0
H1241 H 0.96852 0.58366 0.69281 0.0
C1242 C 0.60592 0.34141 0.50307 0.0
C1243 C 0.59261 0.34799 0.5129 0.0
C1244 C 0.61614 0.32843 0.50966 0.0
C1245 C 0.62772 0.30681 0.54972 0.0
H1246 H 0.63047 0.26601 0.52216 0.0
C1247 C 0.64589 0.24449 0.58032 0.0
C1248 C 0.66063 0.23754 0.57312 0.0
C1249 C 0.63644 0.25642 0.57124 0.0
C1250 C 0.62978 0.27735 0.52993 0.0
H1251 H 0.58004 0.34732 0.53737 0.0
H1252 H 0.59791 0.32507 0.54895 0.0
H1253 H 0.61921 0.29227 0.50975 0.0
H1254 H 0.67583 0.2357 0.5502 0.0
H1255 H 0.65917 0.2564 0.53429 0.0
H1256 H 0.63793 0.29193 0.56997 0.0
C1257 C 0.60056 0.32969 0.53625 0.0
C1258 C 0.62357 0.29238 0.52281 0.0
C1259 C 0.59029 0.34236 0.52962 0.0
C1260 C 0.66459 0.24106 0.55607 0.0
C1261 C 0.65505 0.25286 0.54695 0.0
C1262 C 0.63377 0.29182 0.55684 0.0
C1263 C 0.61326 0.32224 0.5262 0.0
C1264 C 0.62224 0.30715 0.53276 0.0
C1265 C 0.64154 0.26134 0.55484 0.0
C1266 C 0.63458 0.2769 0.54711 0.0
H1267 H 0.60775 0.34556 0.49007 0.0
H1268 H 0.62594 0.32291 0.50173 0.0
H1269 H 0.62703 0.31809 0.55759 0.0
H1270 H 0.64254 0.24193 0.59343 0.0
H1271 H 0.62584 0.26263 0.57744 0.0
C1272 C 0.91431 0.34779 0.7448 0.0
C1273 C 0.89683 0.34978 0.74756 0.0
C1274 C 0.92591 0.35752 0.75389 0.0
C1275 C 0.9412 0.36441 0.78876 0.0
H1276 H 0.94814 0.41287 0.79397 0.0
C1277 C 0.98865 0.41549 0.8231 0.0
C1278 C 0.98724 0.4107 0.8402 0.0
C1279 C 0.97913 0.40724 0.81072 0.0
C1280 C 0.94638 0.39929 0.79255 0.0
H1281 H 0.87752 0.36442 0.76053 0.0
H1282 H 0.89804 0.38185 0.77645 0.0
H1283 H 0.92768 0.40243 0.77292 0.0
H1284 H 0.97595 0.39284 0.85783 0.0
H1285 H 0.95909 0.37823 0.836 0.0
H1286 H 0.95965 0.36118 0.80852 0.0
C1287 C 0.90267 0.37274 0.76723 0.0
C1288 C 0.93464 0.3934 0.78064 0.0
C1289 C 0.89098 0.36292 0.75807 0.0
C1290 C 0.97732 0.39658 0.84464 0.0
C1291 C 0.96764 0.38834 0.8322 0.0
C1292 C 0.95276 0.37028 0.80083 0.0
C1293 C 0.92015 0.36935 0.76585 0.0
C1294 C 0.93215 0.37592 0.77855 0.0
C1295 C 0.96792 0.39416 0.81529 0.0
C1296 C 0.95559 0.38776 0.80269 0.0
H1297 H 0.91901 0.33766 0.73674 0.0
H1298 H 0.93936 0.35489 0.75255 0.0
H1299 H 0.93924 0.35084 0.78745 0.0
H1300 H 0.99637 0.42631 0.81944 0.0
H1301 H 0.97989 0.41166 0.79769 0.0
C1302 C 0.86076 0.74508 0.09755 0.0
C1303 C 0.84886 0.75613 0.09028 0.0
C1304 C 0.87307 0.7374 0.0873 0.0
C1305 C 0.89933 0.7232 0.06267 0.0
H1306 H 0.87743 0.70788 0.02119 0.0
C1307 C 0.93213 0.67745 0.0159 0.0
C1308 C 0.9221 0.66396 0.00985 0.0
C1309 C 0.92473 0.69097 0.0246 0.0
C1310 C 0.88372 0.71202 0.03272 0.0
H1311 H 0.84142 0.76948 0.06743 0.0
H1312 H 0.86346 0.75685 0.04971 0.0
H1313 H 0.8633 0.72856 0.03911 0.0
H1314 H 0.89643 0.65417 0.0078 0.0
H1315 H 0.88345 0.67773 0.02321 0.0
H1316 H 0.91933 0.70582 0.05663 0.0
C1317 C 0.86298 0.75352 0.06307 0.0
C1318 C 0.87576 0.72411 0.04288 0.0
C1319 C 0.8505 0.76088 0.0732 0.0
C1320 C 0.90445 0.66444 0.01227 0.0
C1321 C 0.89703 0.67796 0.02103 0.0
C1322 C 0.90728 0.71102 0.05249 0.0
C1323 C 0.87368 0.74089 0.06975 0.0
C1324 C 0.88335 0.72968 0.0581 0.0
C1325 C 0.90714 0.69126 0.02746 0.0
C1326 C 0.8994 0.7051 0.03757 0.0
H1327 H 0.85953 0.74117 0.1107 0.0
H1328 H 0.88109 0.7277 0.09285 0.0
H1329 H 0.90553 0.72728 0.07426 0.0
H1330 H 0.94579 0.67749 0.01413 0.0
H1331 H 0.9328 0.70116 0.02915 0.0
C1332 C 0.50637 0.60304 0.33591 0.0
C1333 C 0.50039 0.58669 0.3322 0.0
C1334 C 0.51393 0.61283 0.32315 0.0
C1335 C 0.53648 0.60629 0.28264 0.0
H1336 H 0.53734 0.65549 0.28223 0.0
C1337 C 0.56965 0.66716 0.24603 0.0
C1338 C 0.5865 0.66138 0.2456 0.0
C1339 C 0.55697 0.65729 0.25343 0.0
C1340 C 0.53703 0.64173 0.2819 0.0
H1341 H 0.49597 0.56828 0.31219 0.0
H1342 H 0.50843 0.5856 0.2898 0.0
H1343 H 0.51768 0.64079 0.30095 0.0
H1344 H 0.60331 0.64049 0.25161 0.0
H1345 H 0.58124 0.62334 0.26521 0.0
H1346 H 0.55568 0.60723 0.26344 0.0
C1347 C 0.50801 0.59066 0.30259 0.0
C1348 C 0.52591 0.63331 0.29284 0.0
C1349 C 0.50076 0.58079 0.31537 0.0
C1350 C 0.59036 0.64514 0.25177 0.0
C1351 C 0.57769 0.63534 0.2595 0.0
C1352 C 0.54747 0.6147 0.27157 0.0
C1353 C 0.51533 0.60647 0.30646 0.0
C1354 C 0.52573 0.6155 0.29358 0.0
C1355 C 0.56096 0.64158 0.26088 0.0
C1356 C 0.54811 0.63252 0.2713 0.0
H1357 H 0.50626 0.60779 0.34883 0.0
H1358 H 0.51953 0.62492 0.3266 0.0
H1359 H 0.53688 0.59254 0.28303 0.0
H1360 H 0.56636 0.67959 0.24109 0.0
H1361 H 0.54414 0.66225 0.25382 0.0
C1362 C 0.73943 0.93266 0.67466 0.0
C1363 C 0.74203 0.91611 0.66855 0.0
C1364 C 0.73192 0.94494 0.66434 0.0
C1365 C 0.70382 0.96292 0.64558 0.0
H1366 H 0.70819 0.96291 0.59656 0.0
C1367 C 0.65084 0.98587 0.60091 0.0
C1368 C 0.65532 0.99146 0.58462 0.0
C1369 C 0.66346 0.98057 0.61222 0.0
C1370 C 0.707 0.96344 0.61026 0.0
H1371 H 0.73962 0.89953 0.64671 0.0
H1372 H 0.72597 0.92074 0.62882 0.0
H1373 H 0.72795 0.94653 0.61352 0.0
H1374 H 0.67619 -0.00233 0.5678 0.0
H1375 H 0.69826 0.98937 0.58779 0.0
H1376 H 0.68299 0.98003 0.64231 0.0
C1377 C 0.73005 0.92444 0.64143 0.0
C1378 C 0.7182 0.95378 0.61997 0.0
C1379 C 0.73779 0.91223 0.65169 0.0
C1380 C 0.6725 0.99307 0.58025 0.0
C1381 C 0.68511 0.98821 0.59165 0.0
C1382 C 0.69274 0.97278 0.63587 0.0
C1383 C 0.72665 0.94082 0.64779 0.0
C1384 C 0.71643 0.953 0.6377 0.0
C1385 C 0.68073 0.98116 0.60747 0.0
C1386 C 0.6939 0.97278 0.61806 0.0
H1387 H 0.74282 0.93604 0.68757 0.0
H1388 H 0.72985 0.95753 0.6695 0.0
H1389 H 0.70198 0.96252 0.65922 0.0
H1390 H 0.6376 0.98454 0.60447 0.0
H1391 H 0.65959 0.9751 0.62424 0.0
C1392 C 0.22698 0.35616 0.24474 0.0
C1393 C 0.22363 0.35639 0.22724 0.0
C1394 C 0.21691 0.34645 0.25565 0.0
C1395 C 0.19142 0.30796 0.25614 0.0
H1396 H 0.18337 0.32242 0.30253 0.0
C1397 C 0.20205 0.26659 0.31321 0.0
C1398 C 0.19445 0.27051 0.32885 0.0
C1399 C 0.19723 0.27518 0.2985 0.0
C1400 C 0.18499 0.31819 0.28953 0.0
H1401 H 0.20689 0.347 0.20743 0.0
H1402 H 0.18937 0.32986 0.22657 0.0
H1403 H 0.19144 0.34328 0.28123 0.0
H1404 H 0.17448 0.28487 0.34115 0.0
H1405 H 0.16602 0.30006 0.31533 0.0
H1406 H 0.18577 0.28273 0.26465 0.0
C1407 C 0.19976 0.33721 0.23181 0.0
C1408 C 0.18987 0.33015 0.27738 0.0
C1409 C 0.20978 0.34703 0.22089 0.0
C1410 C 0.18056 0.28168 0.32922 0.0
C1411 C 0.17581 0.29044 0.31447 0.0
C1412 C 0.18652 0.29598 0.26831 0.0
C1413 C 0.20332 0.33671 0.2493 0.0
C1414 C 0.19405 0.325 0.26081 0.0
C1415 C 0.18481 0.288 0.2992 0.0
C1416 C 0.1842 0.30083 0.28536 0.0
H1417 H 0.23757 0.36323 0.24999 0.0
H1418 H 0.2202 0.34609 0.26902 0.0
H1419 H 0.19447 0.30361 0.24344 0.0
H1420 H 0.2127 0.25789 0.3126 0.0
H1421 H 0.20449 0.27296 0.28703 0.0
C1422 C 0.89733 0.97321 0.46323 0.0
C1423 C 0.88431 0.98471 0.46739 0.0
C1424 C 0.90785 0.96657 0.4759 0.0
C1425 C 0.92457 0.97856 0.51716 0.0
H1426 H 0.93842 0.93147 0.52182 0.0
C1427 C 0.95605 0.93744 0.57295 0.0
C1428 C 0.96825 0.94946 0.57804 0.0
C1429 C 0.94809 0.93898 0.55711 0.0
C1430 C 0.93469 0.94465 0.52058 0.0
H1431 H 0.87156 -0.00234 0.48809 0.0
H1432 H 0.88999 0.98616 0.51019 0.0
H1433 H 0.9183 0.93956 0.49933 0.0
H1434 H 0.98332 0.97104 0.56991 0.0
H1435 H 0.96978 0.97345 0.54217 0.0
H1436 H 0.94055 0.98379 0.53838 0.0
C1437 C 0.89213 0.98239 0.49712 0.0
C1438 C 0.92325 0.94927 0.50774 0.0
C1439 C 0.88156 0.98893 0.48449 0.0
C1440 C 0.97372 0.96181 0.56638 0.0
C1441 C 0.96594 0.96322 0.55055 0.0
C1442 C 0.93604 0.974 0.5298 0.0
C1443 C 0.90559 0.97144 0.49291 0.0
C1444 C 0.91794 0.96625 0.50609 0.0
C1445 C 0.95237 0.95246 0.54617 0.0
C1446 C 0.94118 0.95702 0.53173 0.0
H1447 H 0.89968 0.96967 0.45013 0.0
H1448 H 0.91817 0.95821 0.47232 0.0
H1449 H 0.92088 0.99177 0.51603 0.0
H1450 H 0.95164 0.92779 0.58174 0.0
H1451 H 0.93769 0.93049 0.55405 0.0
C1452 C 0.31203 0.70995 0.82376 0.0
C1453 C 0.29758 0.72033 0.82517 0.0
C1454 C 0.31472 0.70035 0.80903 0.0
C1455 C 0.30421 0.67092 0.78618 0.0
H1456 H 0.29101 0.68401 0.74055 0.0
C1457 C 0.26512 0.6285 0.74202 0.0
C1458 C 0.2683 0.62881 0.72448 0.0
C1459 C 0.27432 0.63902 0.75297 0.0
C1460 C 0.29506 0.68013 0.75312 0.0
H1461 H 0.27573 0.73033 0.81174 0.0
H1462 H 0.28049 0.71381 0.78608 0.0
H1463 H 0.29844 0.7059 0.76126 0.0
H1464 H 0.28405 0.63984 0.70468 0.0
H1465 H 0.29998 0.65836 0.72385 0.0
H1466 H 0.29994 0.64521 0.77832 0.0
C1467 C 0.28969 0.71291 0.79627 0.0
C1468 C 0.29923 0.69267 0.76498 0.0
C1469 C 0.28688 0.72229 0.81103 0.0
C1470 C 0.2813 0.63935 0.71816 0.0
C1471 C 0.29039 0.64998 0.7291 0.0
C1472 C 0.29994 0.6584 0.77436 0.0
C1473 C 0.30315 0.70122 0.79544 0.0
C1474 C 0.30317 0.68821 0.78182 0.0
C1475 C 0.28678 0.65014 0.74657 0.0
C1476 C 0.29466 0.66293 0.75792 0.0
H1477 H 0.32049 0.70821 0.83448 0.0
H1478 H 0.32528 0.69154 0.80864 0.0
H1479 H 0.30707 0.66707 0.79909 0.0
H1480 H 0.25519 0.62052 0.74723 0.0
H1481 H 0.27109 0.63903 0.76635 0.0
C1482 C 0.61959 0.00017 0.98638 0.0
C1483 C 0.61997 0.00668 0.96979 0.0
C1484 C 0.60854 0.007 -0.00158 0.0
C1485 C 0.5818 0.04342 0.00984 0.0
H1486 H 0.55573 0.00881 0.03337 0.0
C1487 C 0.52511 0.03204 0.06299 0.0
C1488 C 0.53149 0.04206 0.07629 0.0
C1489 C 0.53356 0.03139 0.04745 0.0
C1490 C 0.56265 0.0187 0.02674 0.0
H1491 H 0.60988 0.02613 0.95304 0.0
H1492 H 0.59055 0.03813 0.97423 0.0
H1493 H 0.57626 0.00046 0.012 0.0
H1494 H 0.55065 0.06053 0.08336 0.0
H1495 H 0.56582 0.05901 0.05627 0.0
H1496 H 0.56819 0.06166 0.0249 0.0
C1497 C 0.59879 0.02772 0.97785 0.0
C1498 C 0.57462 0.01387 0.01468 0.0
C1499 C 0.60981 0.02081 0.96574 0.0
C1500 C 0.5455 0.05271 0.07326 0.0
C1501 C 0.55416 0.05185 0.05774 0.0
C1502 C 0.56981 0.04829 0.02208 0.0
C1503 C 0.59771 0.02052 0.99414 0.0
C1504 C 0.58452 0.02612 0.00631 0.0
C1505 C 0.54876 0.04047 0.04503 0.0
C1506 C 0.56022 0.03593 0.03076 0.0
H1507 H 0.62737 0.98939 0.98992 0.0
H1508 H 0.60816 0.00141 0.011 0.0
H1509 H 0.58926 0.0531 0.00351 0.0
H1510 H 0.51414 0.02393 0.06497 0.0
H1511 H 0.52882 0.02287 0.03771 0.0
C1512 C 0.21038 0.72929 0.1776 0.0
C1513 C 0.19912 0.72246 0.16559 0.0
C1514 C 0.21166 0.72207 0.19372 0.0
C1515 C 0.22449 0.69397 0.21558 0.0
H1516 H 0.1908 0.66881 0.24131 0.0
C1517 C 0.24318 0.63593 0.25419 0.0
C1518 C 0.2373 0.63507 0.271 0.0
C1519 C 0.23638 0.64779 0.24295 0.0
C1520 C 0.2003 0.67591 0.23432 0.0
H1521 H 0.17917 0.70397 0.16135 0.0
H1522 H 0.18186 0.69083 0.18932 0.0
H1523 H 0.18158 0.68988 0.22027 0.0
H1524 H 0.21913 0.64534 0.28902 0.0
H1525 H 0.2072 0.66612 0.26923 0.0
H1526 H 0.24318 0.67997 0.22934 0.0
C1527 C 0.18948 0.70194 0.1865 0.0
C1528 C 0.19505 0.68789 0.22226 0.0
C1529 C 0.18796 0.70942 0.17044 0.0
C1530 C 0.22393 0.64575 0.27613 0.0
C1531 C 0.21707 0.65761 0.26482 0.0
C1532 C 0.22969 0.68205 0.22753 0.0
C1533 C 0.20202 0.70761 0.19793 0.0
C1534 C 0.20712 0.69683 0.21254 0.0
C1535 C 0.22355 0.659 0.24826 0.0
C1536 C 0.21769 0.6726 0.2367 0.0
H1537 H 0.21891 0.73956 0.17418 0.0
H1538 H 0.22108 0.72705 0.20245 0.0
H1539 H 0.23417 0.70036 0.20816 0.0
H1540 H 0.25337 0.62777 0.24985 0.0
H1541 H 0.24138 0.64838 0.23013 0.0
C1542 C 0.58764 0.96149 0.52809 0.0
C1543 C 0.60438 0.96571 0.52372 0.0
C1544 C 0.57761 0.95198 0.51697 0.0
C1545 C 0.57583 0.94072 0.47107 0.0
H1546 H 0.53373 0.91946 0.48546 0.0
C1547 C 0.52572 0.92573 0.42222 0.0
C1548 C 0.51312 0.93813 0.42462 0.0
C1549 C 0.53632 0.92111 0.43571 0.0
C1550 C 0.54562 0.92502 0.4813 0.0
H1551 H 0.62432 0.96244 0.50513 0.0
H1552 H 0.60736 0.94468 0.48623 0.0
H1553 H 0.5554 0.92642 0.50659 0.0
H1554 H 0.50012 0.95366 0.44323 0.0
H1555 H 0.51827 0.94516 0.46691 0.0
H1556 H 0.56596 0.93928 0.44583 0.0
C1557 C 0.60149 0.94943 0.49772 0.0
C1558 C 0.55796 0.92929 0.49338 0.0
C1559 C 0.61131 0.95949 0.50858 0.0
C1560 C 0.50981 0.94412 0.44109 0.0
C1561 C 0.52013 0.93919 0.45464 0.0
C1562 C 0.56376 0.93598 0.45902 0.0
C1563 C 0.58428 0.94602 0.50145 0.0
C1564 C 0.57288 0.93801 0.48852 0.0
C1565 C 0.53412 0.92851 0.45179 0.0
C1566 C 0.54827 0.92878 0.46409 0.0
H1567 H 0.58203 0.9663 0.53971 0.0
H1568 H 0.56441 0.95007 0.5203 0.0
H1569 H 0.58687 0.9476 0.46663 0.0
H1570 H 0.52858 0.92098 0.40961 0.0
H1571 H 0.54708 0.91289 0.43325 0.0
C1572 C 0.2882 0.27212 0.68297 0.0
C1573 C 0.29776 0.27938 0.6698 0.0
C1574 C 0.28728 0.28007 0.69877 0.0
C1575 C 0.27306 0.30792 0.72014 0.0
H1576 H 0.30564 0.33745 0.74243 0.0
C1577 C 0.25122 0.36578 0.75737 0.0
C1578 C 0.25771 0.36777 0.77385 0.0
C1579 C 0.25854 0.35415 0.74621 0.0
C1580 C 0.29647 0.32914 0.73641 0.0
H1581 H 0.31522 0.2996 0.66313 0.0
H1582 H 0.31317 0.31392 0.69061 0.0
H1583 H 0.31554 0.31647 0.72157 0.0
H1584 H 0.27752 0.35982 0.79132 0.0
H1585 H 0.29043 0.33949 0.77162 0.0
H1586 H 0.25399 0.32066 0.73461 0.0
C1587 C 0.30661 0.30194 0.68891 0.0
C1588 C 0.3021 0.3172 0.72445 0.0
C1589 C 0.30777 0.29377 0.67315 0.0
C1590 C 0.27223 0.35853 0.77867 0.0
C1591 C 0.27964 0.34692 0.76743 0.0
C1592 C 0.26747 0.31982 0.73194 0.0
C1593 C 0.29558 0.29567 0.70153 0.0
C1594 C 0.29039 0.30665 0.71598 0.0
C1595 C 0.27256 0.34433 0.75126 0.0
C1596 C 0.27903 0.33082 0.73989 0.0
H1597 H 0.28056 0.26087 0.6807 0.0
H1598 H 0.27908 0.27465 0.70841 0.0
H1599 H 0.26361 0.30025 0.7137 0.0
H1600 H 0.24013 0.3728 0.75324 0.0
H1601 H 0.25303 0.3526 0.73368 0.0
C1602 C 0.89126 0.03802 0.02314 0.0
C1603 C 0.88196 0.02435 0.01635 0.0
C1604 C 0.90208 0.04758 0.01281 0.0
C1605 C 0.91266 0.057 0.96797 0.0
H1606 H 0.95925 0.05912 0.9839 0.0
C1607 C 0.97854 0.04528 0.93566 0.0
C1608 C 0.9762 0.05433 0.92047 0.0
C1609 C 0.96877 0.04904 0.94994 0.0
C1610 C 0.94625 0.05892 0.97937 0.0
H1611 H 0.87617 0.01035 0.99336 0.0
H1612 H 0.89503 0.02703 0.97528 0.0
H1613 H 0.93668 0.05078 0.0035 0.0
H1614 H 0.96326 0.07568 0.90883 0.0
H1615 H 0.946 0.08219 0.93384 0.0
H1616 H 0.9223 0.06388 0.94357 0.0
C1617 C 0.89388 0.03046 0.98857 0.0
C1618 C 0.93332 0.05422 0.9906 0.0
C1619 C 0.88317 0.02082 -0.00108 0.0
C1620 C 0.96527 0.06844 0.92037 0.0
C1621 C 0.95532 0.07211 0.93464 0.0
C1622 C 0.92556 0.06175 0.95677 0.0
C1623 C 0.90366 0.04376 0.99546 0.0
C1624 C 0.91652 0.05242 0.98477 0.0
C1625 C 0.95634 0.06184 0.94924 0.0
C1626 C 0.9426 0.06194 0.96215 0.0
H1627 H 0.89057 0.04104 0.03656 0.0
H1628 H 0.90944 0.05779 0.01843 0.0
H1629 H 0.89977 0.05598 0.96323 0.0
H1630 H 0.98704 0.03446 0.93613 0.0
H1631 H 0.96986 0.04083 0.96094 0.0
C1632 C 0.31495 0.19797 0.25579 0.0
C1633 C 0.32916 0.19133 0.26421 0.0
C1634 C 0.29883 0.19648 0.26302 0.0
C1635 C 0.27546 0.18194 0.30204 0.0
H1636 H 0.26092 0.22904 0.30218 0.0
C1637 C 0.24577 0.23378 0.35081 0.0
C1638 C 0.23025 0.22657 0.35578 0.0
C1639 C 0.25524 0.22647 0.33776 0.0
C1640 C 0.26474 0.21581 0.3022 0.0
H1641 H 0.3377 0.17629 0.28556 0.0
H1642 H 0.30972 0.17429 0.29866 0.0
H1643 H 0.28079 0.21943 0.2808 0.0
H1644 H 0.21278 0.20562 0.35155 0.0
H1645 H 0.22963 0.19264 0.32881 0.0
H1646 H 0.2599 0.17886 0.32428 0.0
C1647 C 0.31076 0.18028 0.28631 0.0
C1648 C 0.27595 0.21017 0.28976 0.0
C1649 C 0.32684 0.18142 0.27883 0.0
C1650 C 0.2247 0.21149 0.34792 0.0
C1651 C 0.23431 0.20404 0.33495 0.0
C1652 C 0.2641 0.18762 0.31452 0.0
C1653 C 0.29684 0.18889 0.27909 0.0
C1654 C 0.28195 0.19333 0.28984 0.0
C1655 C 0.24947 0.2117 0.32954 0.0
C1656 C 0.25921 0.20478 0.31505 0.0
H1657 H 0.31651 0.20558 0.24441 0.0
H1658 H 0.28826 0.20277 0.25686 0.0
H1659 H 0.27972 0.16887 0.30238 0.0
H1660 H 0.25042 0.24533 0.35669 0.0
H1661 H 0.26706 0.23245 0.33399 0.0
C1662 C 0.02883 0.95957 0.60535 0.0
C1663 C 0.01655 0.96411 0.6175 0.0
C1664 C 0.03923 0.97197 0.59797 0.0
C1665 C 0.05369 0.01655 0.60278 0.0
H1666 H 0.05078 0.01833 0.5536 0.0
C1667 C 0.04463 0.07724 0.56615 0.0
C1668 C 0.05197 0.07966 0.55009 0.0
C1669 C 0.04731 0.06223 0.57507 0.0
C1670 C 0.05221 0.01782 0.56728 0.0
H1671 H 0.00593 0.98499 0.63196 0.0
H1672 H 0.02404 0.00659 0.61918 0.0
H1673 H 0.04208 0.99259 0.56856 0.0
H1674 H 0.06842 0.06871 0.53096 0.0
H1675 H 0.0727 0.04184 0.54649 0.0
H1676 H 0.06272 0.04218 0.60155 0.0
C1677 C 0.02576 0.99347 0.6154 0.0
C1678 C 0.04718 0.00309 0.57587 0.0
C1679 C 0.01528 0.98113 0.62262 0.0
C1680 C 0.06266 0.06707 0.54336 0.0
C1681 C 0.06508 0.05177 0.55219 0.0
C1682 C 0.05872 0.03124 0.59421 0.0
C1683 C 0.03766 0.98908 0.6028 0.0
C1684 C 0.04703 0.00267 0.59373 0.0
C1685 C 0.05718 0.04915 0.56803 0.0
C1686 C 0.05714 0.03233 0.57645 0.0
H1687 H 0.03007 0.94651 0.60116 0.0
H1688 H 0.04829 0.96824 0.5883 0.0
H1689 H 0.05404 0.01643 0.61654 0.0
H1690 H 0.03644 0.08683 0.57166 0.0
H1691 H 0.04084 0.06051 0.58711 0.0
C1692 C 0.18444 0.79698 0.77104 0.0
C1693 C 0.16907 0.80474 0.77561 0.0
C1694 C 0.19938 0.80098 0.77965 0.0
C1695 C 0.20943 0.81084 0.82311 0.0
H1696 H 0.25511 0.80164 0.80717 0.0
C1697 C 0.27881 0.78532 0.84938 0.0
C1698 C 0.27278 0.77143 0.85888 0.0
C1699 C 0.26757 0.79545 0.84009 0.0
C1700 C 0.24253 0.80457 0.81192 0.0
H1701 H 0.1575 0.82418 0.79126 0.0
H1702 H 0.18374 0.8312 0.80646 0.0
H1703 H 0.23357 0.81134 0.78713 0.0
H1704 H 0.25026 0.75751 0.86649 0.0
H1705 H 0.23065 0.77501 0.85017 0.0
H1706 H 0.21818 0.8034 0.84775 0.0
C1707 C 0.1842 0.82192 0.79631 0.0
C1708 C 0.23017 0.81005 0.80041 0.0
C1709 C 0.16922 0.81801 0.78753 0.0
C1710 C 0.25527 0.76813 0.85931 0.0
C1711 C 0.24403 0.77828 0.85006 0.0
C1712 C 0.22178 0.8054 0.83461 0.0
C1713 C 0.1992 0.8127 0.79313 0.0
C1714 C 0.21327 0.81237 0.80571 0.0
C1715 C 0.25007 0.79192 0.84018 0.0
C1716 C 0.23822 0.80137 0.82897 0.0
H1717 H 0.18463 0.78679 0.76177 0.0
H1718 H 0.21063 0.79357 0.77685 0.0
H1719 H 0.19654 0.81243 0.82767 0.0
H1720 H 0.29226 0.78821 0.84886 0.0
H1721 H 0.27259 0.80591 0.83267 0.0
C1722 C 0.4782 0.01043 0.11416 0.0
C1723 C 0.48032 0.02755 0.10968 0.0
C1724 C 0.468 -0.0002 0.10426 0.0
C1725 C 0.458 0.99266 0.06105 0.0
H1726 H 0.42463 0.96055 0.07792 0.0
C1727 C 0.44412 0.93376 0.02199 0.0
C1728 C 0.44432 0.91881 0.03164 0.0
C1729 C 0.44137 0.94942 0.02992 0.0
C1730 C 0.43395 0.96938 0.07298 0.0
H1731 H 0.47321 0.04715 0.09163 0.0
H1732 H 0.45589 0.02831 0.07394 0.0
H1733 H 0.43423 0.9838 0.09614 0.0
H1734 H 0.44098 0.90803 0.05667 0.0
H1735 H 0.43702 0.93515 0.07072 0.0
H1736 H 0.45922 0.97762 0.03864 0.0
C1737 C 0.46183 0.02327 0.0853 0.0
C1738 C 0.43932 0.98274 0.08339 0.0
C1739 C 0.47173 0.03399 0.09541 0.0
C1740 C 0.44064 0.91948 0.04902 0.0
C1741 C 0.43828 0.93511 0.05702 0.0
C1742 C 0.45297 0.9791 0.0508 0.0
C1743 C 0.46005 0.00606 0.08955 0.0
C1744 C 0.45179 0.99412 0.07768 0.0
C1745 C 0.43939 0.95038 0.04772 0.0
C1746 C 0.44139 0.96685 0.05688 0.0
H1747 H 0.48468 0.00519 0.12512 0.0
H1748 H 0.46698 0.98648 0.10762 0.0
H1749 H 0.46773 0.00125 0.05643 0.0
H1750 H 0.447 0.9334 0.00853 0.0
H1751 H 0.44182 0.96082 0.02224 0.0
C1752 C 0.32132 0.81068 0.20161 0.0
C1753 C 0.32461 0.79605 0.21131 0.0
C1754 C 0.30582 0.81243 0.19304 0.0
C1755 C 0.26232 0.79449 0.189 0.0
H1756 H 0.26945 0.8003 0.14056 0.0
C1757 C 0.23191 0.76622 0.12496 0.0
C1758 C 0.2145 0.76846 0.12807 0.0
C1759 C 0.24396 0.77475 0.13482 0.0
C1760 C 0.26722 0.79883 0.15407 0.0
H1761 H 0.31381 0.77257 0.22091 0.0
H1762 H 0.28685 0.77569 0.20617 0.0
H1763 H 0.2926 0.80633 0.16031 0.0
H1764 H 0.196 0.78197 0.1434 0.0
H1765 H 0.2171 0.79678 0.16071 0.0
H1766 H 0.23726 0.78602 0.18268 0.0
C1767 C 0.29617 0.78577 0.20504 0.0
C1768 C 0.2804 0.80245 0.16539 0.0
C1769 C 0.31169 0.7839 0.21339 0.0
C1770 C 0.20935 0.77998 0.14071 0.0
C1771 C 0.2214 0.78841 0.15067 0.0
C1772 C 0.2491 0.79096 0.17768 0.0
C1773 C 0.2933 0.79973 0.1943 0.0
C1774 C 0.27829 0.79968 0.18292 0.0
C1775 C 0.23883 0.7856 0.14806 0.0
C1776 C 0.25163 0.79248 0.16006 0.0
H1777 H 0.33106 0.82024 0.19979 0.0
H1778 H 0.30388 0.82338 0.18493 0.0
H1779 H 0.2603 0.79237 0.20245 0.0
H1780 H 0.23625 0.75742 0.11531 0.0
H1781 H 0.2573 0.77216 0.13263 0.0
C1782 C 0.45083 0.9671 0.40517 0.0
C1783 C 0.46373 0.97385 0.39478 0.0
C1784 C 0.44074 0.97787 0.41509 0.0
C1785 C 0.4335 0.00408 0.44353 0.0
H1786 H 0.42045 0.0481 0.42569 0.0
C1787 C 0.44636 0.0656 0.47659 0.0
C1788 C 0.43739 0.08039 0.47231 0.0
C1789 C 0.44113 0.04986 0.47042 0.0
C1790 C 0.42345 0.03574 0.43095 0.0
H1791 H 0.47591 0.99705 0.38624 0.0
H1792 H 0.45829 0.01578 0.40337 0.0
H1793 H 0.42762 0.02528 0.40621 0.0
H1794 H 0.41482 0.09019 0.45997 0.0
H1795 H 0.40571 0.06254 0.44893 0.0
H1796 H 0.4304 0.0149 0.46831 0.0
C1797 C 0.45586 0.00223 0.40382 0.0
C1798 C 0.42776 0.02272 0.41974 0.0
C1799 C 0.46608 0.9915 0.39414 0.0
C1800 C 0.42202 0.07896 0.46335 0.0
C1801 C 0.41685 0.06315 0.45699 0.0
C1802 C 0.4292 0.01714 0.45478 0.0
C1803 C 0.44319 0.99554 0.4145 0.0
C1804 C 0.43383 0.00714 0.42595 0.0
C1805 C 0.42691 0.04861 0.45967 0.0
C1806 C 0.42521 0.03343 0.44859 0.0
H1807 H 0.4488 0.95351 0.40591 0.0
H1808 H 0.43112 0.97241 0.4233 0.0
H1809 H 0.43805 0.99214 0.44865 0.0
H1810 H 0.45813 0.06636 0.48372 0.0
H1811 H 0.44925 0.039 0.47272 0.0
C1812 C 0.17494 0.18287 0.7033 0.0
C1813 C 0.1752 0.19474 0.71662 0.0
C1814 C 0.18955 0.18012 0.69357 0.0
C1815 C 0.2352 0.18731 0.68859 0.0
H1816 H 0.22335 0.21073 0.64692 0.0
C1817 C 0.28445 0.22587 0.65125 0.0
C1818 C 0.28141 0.23014 0.63424 0.0
C1819 C 0.27269 0.21611 0.66027 0.0
C1820 C 0.22706 0.20366 0.65811 0.0
H1821 H 0.19112 0.21148 0.73158 0.0
H1822 H 0.21682 0.20619 0.71496 0.0
H1823 H 0.20111 0.20092 0.66566 0.0
H1824 H 0.26455 0.2268 0.61282 0.0
H1825 H 0.24461 0.20858 0.62802 0.0
H1826 H 0.26116 0.18993 0.68112 0.0
C1827 C 0.20534 0.1992 0.7119 0.0
C1828 C 0.21419 0.19808 0.66892 0.0
C1829 C 0.19066 0.20229 0.72134 0.0
C1830 C 0.26697 0.22378 0.62604 0.0
C1831 C 0.2555 0.21347 0.63486 0.0
C1832 C 0.24814 0.19244 0.67751 0.0
C1833 C 0.20464 0.18885 0.69739 0.0
C1834 C 0.21816 0.19047 0.68452 0.0
C1835 C 0.25787 0.20993 0.65228 0.0
C1836 C 0.24427 0.2014 0.66246 0.0
H1837 H 0.16311 0.177 0.69936 0.0
H1838 H 0.18874 0.17218 0.68235 0.0
H1839 H 0.2385 0.18146 0.70061 0.0
H1840 H 0.29549 0.23081 0.65784 0.0
H1841 H 0.27495 0.21411 0.67368 0.0
C1842 C 0.0688 0.92354 0.9549 0.0
C1843 C 0.06063 0.92108 0.97052 0.0
C1844 C 0.07156 0.94 0.94881 0.0
C1845 C 0.07297 0.97647 0.93629 0.0
H1846 H 0.02812 0.99578 0.94294 0.0
C1847 C 0.03999 0.03188 0.89735 0.0
C1848 C 0.02501 0.02573 0.88972 0.0
C1849 C 0.04881 0.02191 0.90916 0.0
C1850 C 0.04082 0.99074 0.94117 0.0
H1851 H 0.05102 0.93338 0.99312 0.0
H1852 H 0.05664 0.96216 0.98296 0.0
H1853 H 0.03818 0.97395 0.96215 0.0
H1854 H 0.0079 0.00416 0.88798 0.0
H1855 H 0.02305 0.98704 0.90884 0.0
H1856 H 0.07479 0.99277 0.91441 0.0
C1857 C 0.06047 0.95152 0.97511 0.0
C1858 C 0.04672 0.97833 0.95229 0.0
C1859 C 0.0574 0.93508 0.98102 0.0
C1860 C 0.01932 0.0093 0.89369 0.0
C1861 C 0.02795 -0.00049 0.90564 0.0
C1862 C 0.06704 0.98906 0.92518 0.0
C1863 C 0.06621 0.95415 0.95837 0.0
C1864 C 0.06254 0.97046 0.94955 0.0
C1865 C 0.04259 0.00583 0.91364 0.0
C1866 C 0.05061 0.99567 0.92716 0.0
H1867 H 0.07119 0.91285 0.94655 0.0
H1868 H 0.076 0.94149 0.93587 0.0
H1869 H 0.08527 0.97077 0.93393 0.0
H1870 H 0.04469 0.04449 0.89446 0.0
H1871 H 0.06011 0.02696 0.91521 0.0
C1872 C 0.28153 0.32215 0.18231 0.0
C1873 C 0.27143 0.32254 0.19703 0.0
C1874 C 0.2907 0.3075 0.17817 0.0
C1875 C 0.3201 0.28426 0.18694 0.0
H1876 H 0.30771 0.23797 0.19847 0.0
C1877 C 0.36263 0.24044 0.22571 0.0
C1878 C 0.3633 0.22306 0.22184 0.0
C1879 C 0.35181 0.25119 0.21669 0.0
C1880 C 0.31139 0.25074 0.19486 0.0
H1881 H 0.26119 0.3074 0.21765 0.0
H1882 H 0.27702 0.28194 0.21045 0.0
H1883 H 0.28552 0.25849 0.19146 0.0
H1884 H 0.35348 0.20331 0.20525 0.0
H1885 H 0.33433 0.22214 0.18964 0.0
H1886 H 0.34587 0.27678 0.19129 0.0
C1887 C 0.27805 0.29285 0.20212 0.0
C1888 C 0.29868 0.26249 0.19092 0.0
C1889 C 0.26907 0.30751 0.20635 0.0
C1890 C 0.35325 0.21669 0.20849 0.0
C1891 C 0.34226 0.22742 0.19959 0.0
C1892 C 0.33277 0.27255 0.19096 0.0
C1893 C 0.28971 0.293 0.18858 0.0
C1894 C 0.30287 0.27956 0.1877 0.0
C1895 C 0.34132 0.24474 0.20372 0.0
C1896 C 0.32847 0.2559 0.19573 0.0
H1897 H 0.28353 0.33356 0.17485 0.0
H1898 H 0.29944 0.30789 0.16754 0.0
H1899 H 0.32377 0.29733 0.18463 0.0
H1900 H 0.37022 0.24567 0.23594 0.0
H1901 H 0.35115 0.26445 0.22034 0.0
C1902 C 0.81392 0.16953 0.80511 0.0
C1903 C 0.79653 0.16596 0.80615 0.0
C1904 C 0.82005 0.18552 0.80951 0.0
C1905 C 0.80537 0.22863 0.80583 0.0
H1906 H 0.85251 0.23742 0.81726 0.0
C1907 C 0.84085 0.28819 0.78196 0.0
C1908 C 0.85496 0.28343 0.77209 0.0
C1909 C 0.8331 0.27646 0.79283 0.0
C1910 C 0.83923 0.23526 0.81429 0.0
H1911 H 0.77192 0.1756 0.81363 0.0
H1912 H 0.78263 0.20397 0.82125 0.0
H1913 H 0.83902 0.21112 0.82678 0.0
H1914 H 0.87248 0.26302 0.76631 0.0
H1915 H 0.8591 0.24258 0.78543 0.0
H1916 H 0.8059 0.25236 0.79255 0.0
C1917 C 0.79155 0.19434 0.81712 0.0
C1918 C 0.83151 0.22024 0.81972 0.0
C1919 C 0.78543 0.17815 0.81287 0.0
C1920 C 0.86159 0.26699 0.77374 0.0
C1921 C 0.85404 0.25537 0.7848 0.0
C1922 C 0.81305 0.24375 0.80057 0.0
C1923 C 0.80884 0.19838 0.8148 0.0
C1924 C 0.81485 0.21627 0.81459 0.0
C1925 C 0.83957 0.2599 0.79424 0.0
C1926 C 0.83033 0.24668 0.80389 0.0
H1927 H 0.82265 0.16025 0.79988 0.0
H1928 H 0.83338 0.18816 0.8073 0.0
H1929 H 0.79255 0.22598 0.80158 0.0
H1930 H 0.83548 0.30082 0.7809 0.0
H1931 H 0.82191 0.28021 0.79991 0.0
C1932 C 0.96566 0.58936 0.03091 0.0
C1933 C 0.9723 0.60031 0.01844 0.0
C1934 C 0.97642 0.57844 0.03992 0.0
C1935 C 0.02096 0.57264 0.05226 0.0
H1936 H 0.01277 0.52419 0.04841 0.0
C1937 C 0.06471 0.51456 0.03786 0.0
C1938 C 0.07838 0.51816 0.04874 0.0
C1939 C 0.04872 0.52148 0.04097 0.0
C1940 C 0.01508 0.53768 0.04991 0.0
H1941 H 0.99526 0.60864 0.00571 0.0
H1942 H 0.01404 0.58981 0.02158 0.0
H1943 H 0.9905 0.54426 0.04017 0.0
H1944 H 0.08566 0.53021 0.07244 0.0
H1945 H 0.05764 0.54253 0.0778 0.0
H1946 H 0.04586 0.56627 0.06082 0.0
C1947 C 0.00057 0.58968 0.02444 0.0
C1948 C 0.00233 0.54914 0.04525 0.0
C1949 C 0.98982 0.60034 0.01526 0.0
C1950 C 0.07537 0.52734 0.06376 0.0
C1951 C 0.05935 0.53442 0.0668 0.0
C1952 C 0.03362 0.56123 0.05703 0.0
C1953 C 0.99397 0.5786 0.03681 0.0
C1954 C 0.00553 0.5667 0.04557 0.0
C1955 C 0.04613 0.53226 0.05497 0.0
C1956 C 0.03113 0.54364 0.05506 0.0
H1957 H 0.95215 0.58904 0.03354 0.0
H1958 H 0.97106 0.56994 0.04934 0.0
H1959 H 0.02361 0.58614 0.05282 0.0
H1960 H 0.06663 0.50728 0.02632 0.0
H1961 H 0.03885 0.5196 0.03156 0.0
C1962 C 0.64823 0.71508 0.27929 0.0
C1963 C 0.64135 0.72086 0.26382 0.0
C1964 C 0.65886 0.72559 0.28891 0.0
C1965 C 0.68851 0.76047 0.28431 0.0
H1966 H 0.6759 0.77557 0.32951 0.0
C1967 C 0.69079 0.82634 0.31686 0.0
C1968 C 0.70674 0.83138 0.31079 0.0
C1969 C 0.68687 0.8091 0.31832 0.0
C1970 C 0.67979 0.77122 0.31705 0.0
H1971 H 0.64003 0.74216 0.2464 0.0
H1972 H 0.65891 0.76033 0.26299 0.0
H1973 H 0.66016 0.75225 0.31602 0.0
H1974 H 0.73178 0.82287 0.3034 0.0
H1975 H 0.72514 0.79266 0.30636 0.0
H1976 H 0.70731 0.77991 0.28461 0.0
C1977 C 0.65602 0.7477 0.26766 0.0
C1978 C 0.67082 0.7579 0.30937 0.0
C1979 C 0.64516 0.73735 0.25823 0.0
C1980 C 0.71944 0.81917 0.30829 0.0
C1981 C 0.71557 0.80191 0.30983 0.0
C1982 C 0.69754 0.7736 0.29199 0.0
C1983 C 0.66304 0.74187 0.283 0.0
C1984 C 0.67462 0.75304 0.29263 0.0
C1985 C 0.69885 0.79672 0.31353 0.0
C1986 C 0.69277 0.7797 0.30811 0.0
H1987 H 0.64544 0.70241 0.28391 0.0
H1988 H 0.66411 0.7209 0.30075 0.0
H1989 H 0.69175 0.75677 0.27145 0.0
H1990 H 0.68078 0.83563 0.31861 0.0
H1991 H 0.67387 0.80559 0.32116 0.0
C1992 C 0.02489 0.9014 0.02569 0.0
C1993 C 0.02039 0.89406 0.01001 0.0
C1994 C 0.01474 0.91404 0.03297 0.0
C1995 C 0.98377 0.94649 0.0209 0.0
H1996 H 0.96737 0.94401 0.06732 0.0
C1997 C 0.93113 0.99028 0.03922 0.0
C1998 C 0.91715 0.98126 0.04561 0.0
C1999 C 0.94744 0.98349 0.0405 0.0
C2000 C 0.97198 0.94498 0.05439 0.0
H2001 H 0.00159 0.89387 0.98987 0.0
H2002 H 0.98395 0.91591 0.0025 0.0
H2003 H 0.98833 0.92333 0.05721 0.0
H2004 H 0.9092 0.95918 0.05993 0.0
H2005 H 0.93754 0.94686 0.06155 0.0
H2006 H 0.96691 0.96728 0.0175 0.0
C2007 C 0.99539 0.91203 0.00909 0.0
C2008 C 0.98402 0.9332 0.04865 0.0
C2009 C 0.00543 0.89933 0.00192 0.0
C2010 C 0.91987 0.96637 0.055 0.0
C2011 C 0.93616 0.95934 0.05592 0.0
C2012 C 0.97183 0.95821 0.02659 0.0
C2013 C 4e-05 0.91964 0.02457 0.0
C2014 C 0.98949 0.93349 0.03165 0.0
C2015 C 0.94992 0.96728 0.04764 0.0
C2016 C 0.96532 0.95727 0.04323 0.0
H2017 H 0.03638 0.89756 0.03222 0.0
H2018 H 0.01858 0.91971 0.04491 0.0
H2019 H 0.98802 0.94718 0.00782 0.0
H2020 H 0.92926 0.00187 0.03202 0.0
H2021 H 0.95786 0.99021 0.03449 0.0
C2022 C 0.21406 0.66848 0.68509 0.0
C2023 C 0.22319 0.66561 0.70017 0.0
C2024 C 0.20646 0.68427 0.68215 0.0
C2025 C 0.2018 0.72827 0.6991 0.0
H2026 H 0.15358 0.71839 0.69626 0.0
C2027 C 0.13862 0.75256 0.7335 0.0
C2028 C 0.1388 0.77011 0.73048 0.0
C2029 C 0.14921 0.74182 0.72422 0.0
C2030 C 0.167 0.72141 0.69681 0.0
H2031 H 0.23343 0.67745 0.72285 0.0
H2032 H 0.22026 0.70488 0.71775 0.0
H2033 H 0.17408 0.69663 0.6884 0.0
H2034 H 0.15009 0.79028 0.7154 0.0
H2035 H 0.16898 0.77142 0.69943 0.0
H2036 H 0.19457 0.75272 0.70865 0.0
C2037 C 0.21881 0.69504 0.70823 0.0
C2038 C 0.17877 0.70904 0.69213 0.0
C2039 C 0.22622 0.67926 0.71125 0.0
C2040 C 0.14966 0.77675 0.71793 0.0
C2041 C 0.16047 0.76602 0.70881 0.0
C2042 C 0.19 0.74072 0.70366 0.0
C2043 C 0.2081 0.69742 0.69414 0.0
C2044 C 0.19627 0.71205 0.69405 0.0
C2045 C 0.16034 0.74846 0.71191 0.0
C2046 C 0.17253 0.73705 0.70335 0.0
H2047 H 0.21162 0.6582 0.67627 0.0
H2048 H 0.1984 0.68584 0.67111 0.0
H2049 H 0.21523 0.73095 0.70058 0.0
H2050 H 0.13038 0.74713 0.74311 0.0
H2051 H 0.14908 0.72834 0.72704 0.0
C2052 C 0.96691 0.38916 0.46791 0.0
C2053 C 0.97262 0.37845 0.48103 0.0
C2054 C 0.97843 0.39906 0.45871 0.0
C2055 C 0.02398 0.40387 0.44849 0.0
H2056 H 0.01461 0.45225 0.44804 0.0
C2057 C 0.06568 0.46539 0.45786 0.0
C2058 C 0.0795 0.46167 0.44722 0.0
C2059 C 0.05018 0.45709 0.45567 0.0
C2060 C 0.01729 0.43875 0.44781 0.0
H2061 H 0.99482 0.36929 0.49447 0.0
H2062 H 0.01497 0.38648 0.47833 0.0
H2063 H 0.99242 0.43235 0.45682 0.0
H2064 H 0.08756 0.44759 0.42497 0.0
H2065 H 0.06039 0.43283 0.42125 0.0
H2066 H 0.04914 0.41028 0.44053 0.0
C2067 C 0.00161 0.38716 0.47509 0.0
C2068 C 0.00459 0.42736 0.45275 0.0
C2069 C 0.99008 0.3774 0.48441 0.0
C2070 C 0.0771 0.45066 0.43338 0.0
C2071 C 0.0616 0.44215 0.43131 0.0
C2072 C 0.03664 0.41524 0.44344 0.0
C2073 C 0.99589 0.39827 0.46231 0.0
C2074 C 0.00806 0.40987 0.45383 0.0
C2075 C 0.04825 0.44476 0.4429 0.0
C2076 C 0.03365 0.43285 0.44376 0.0
H2077 H 0.95349 0.39025 0.46506 0.0
H2078 H 0.97369 0.40749 0.44891 0.0
H2079 H 0.02691 0.39043 0.44898 0.0
H2080 H 0.06715 0.47398 0.46853 0.0
H2081 H 0.0402 0.45933 0.46488 0.0
C2082 C 0.42028 0.54392 0.93076 0.0
C2083 C 0.41872 0.5331 0.94487 0.0
C2084 C 0.43564 0.55236 0.92766 0.0
C2085 C 0.46066 0.57959 0.93881 0.0
H2086 H 0.50528 0.56311 0.95157 0.0
C2087 C 0.50551 0.61664 0.98196 0.0
C2088 C 0.52313 0.61546 0.97959 0.0
C2089 C 0.49445 0.6074 0.97159 0.0
C2090 C 0.49303 0.56797 0.94762 0.0
H2091 H 0.43229 0.52091 0.96547 0.0
H2092 H 0.459 0.53539 0.96003 0.0
H2093 H 0.48359 0.543 0.94226 0.0
H2094 H 0.54302 0.60425 0.96414 0.0
H2095 H 0.52366 0.58803 0.9461 0.0
H2096 H 0.46981 0.60445 0.94502 0.0
C2097 C 0.44851 0.53756 0.95138 0.0
C2098 C 0.48059 0.55644 0.94236 0.0
C2099 C 0.43317 0.52934 0.95461 0.0
C2100 C 0.52947 0.60534 0.96631 0.0
C2101 C 0.51842 0.59604 0.95599 0.0
C2102 C 0.47308 0.59111 0.9441 0.0
C2103 C 0.44965 0.54986 0.93848 0.0
C2104 C 0.46404 0.56204 0.93875 0.0
C2105 C 0.5008 0.59677 0.95869 0.0
C2106 C 0.48911 0.58531 0.94936 0.0
H2107 H 0.4093 0.547 0.92306 0.0
H2108 H 0.43623 0.56166 0.91752 0.0
H2109 H 0.44801 0.58433 0.93619 0.0
H2110 H 0.50026 0.62434 0.99209 0.0
H2111 H 0.48095 0.60802 0.97418 0.0
C2112 C 0.68278 0.7763 0.82152 0.0
C2113 C 0.6933 0.76194 0.82245 0.0
C2114 C 0.68146 0.78536 0.80627 0.0
C2115 C 0.6826 0.80424 0.77229 0.0
H2116 H 0.72992 0.80853 0.75905 0.0
C2117 C 0.71133 0.85212 0.72253 0.0
C2118 C 0.72582 0.86079 0.72846 0.0
C2119 C 0.70388 0.83926 0.7323 0.0
C2120 C 0.71664 0.80742 0.76255 0.0
H2121 H 0.70834 0.74412 0.80791 0.0
H2122 H 0.70538 0.75942 0.78112 0.0
H2123 H 0.7213 0.78525 0.77726 0.0
H2124 H 0.74319 0.86359 0.74967 0.0
H2125 H 0.73036 0.84099 0.76658 0.0
H2126 H 0.67837 0.82708 0.75788 0.0
C2127 C 0.69872 0.76414 0.7922 0.0
C2128 C 0.7116 0.79392 0.77278 0.0
C2129 C 0.70032 0.75531 0.80748 0.0
C2130 C 0.73214 0.85704 0.7447 0.0
C2131 C 0.72484 0.84409 0.75434 0.0
C2132 C 0.68768 0.81776 0.76184 0.0
C2133 C 0.69049 0.77999 0.7918 0.0
C2134 C 0.69462 0.79238 0.77817 0.0
C2135 C 0.71095 0.8348 0.74804 0.0
C2136 C 0.70486 0.81971 0.7574 0.0
H2137 H 0.67726 0.78167 0.83293 0.0
H2138 H 0.67495 0.79748 0.80641 0.0
H2139 H 0.66944 0.80337 0.7762 0.0
H2140 H 0.70612 0.8548 0.71007 0.0
H2141 H 0.69317 0.83227 0.72722 0.0
C2142 C 0.47684 0.44977 0.06697 0.0
C2143 C 0.46725 0.44293 0.08033 0.0
C2144 C 0.47039 0.44976 0.05046 0.0
C2145 C 0.43256 0.43852 0.02379 0.0
H2146 H 0.43596 0.48609 0.01122 0.0
C2147 C 0.3898 0.49353 0.99047 0.0
C2148 C 0.38658 0.48709 0.97416 0.0
C2149 C 0.4012 0.4853 0.00124 0.0
C2150 C 0.43496 0.47274 0.01449 0.0
H2151 H 0.44438 0.42921 0.08696 0.0
H2152 H 0.43272 0.42966 0.05821 0.0
H2153 H 0.45482 0.47472 0.03271 0.0
H2154 H 0.39217 0.4666 0.95657 0.0
H2155 H 0.41197 0.45202 0.97567 0.0
H2156 H 0.41197 0.43704 0.0059 0.0
C2157 C 0.44538 0.43468 0.06025 0.0
C2158 C 0.44595 0.46611 0.02665 0.0
C2159 C 0.45203 0.4344 0.07674 0.0
C2160 C 0.39447 0.47188 0.96908 0.0
C2161 C 0.40575 0.46351 0.97997 0.0
C2162 C 0.42158 0.44519 0.01146 0.0
C2163 C 0.45399 0.4434 0.0472 0.0
C2164 C 0.44459 0.44905 0.03183 0.0
C2165 C 0.40947 0.47037 0.996 0.0
C2166 C 0.42235 0.46251 0.00718 0.0
H2167 H 0.48864 0.45641 0.06953 0.0
H2168 H 0.47754 0.45615 0.04058 0.0
H2169 H 0.43126 0.42531 0.02745 0.0
H2170 H 0.38387 0.50517 0.99477 0.0
H2171 H 0.40369 0.49071 0.01366 0.0
C2172 C 0.79628 0.22589 0.3112 0.0
C2173 C 0.79991 0.2172 0.32629 0.0
C2174 C 0.79797 0.2177 0.29555 0.0
C2175 C 0.80869 0.1752 0.27574 0.0
H2176 H 0.77024 0.18685 0.24721 0.0
C2177 C 0.76621 0.12984 0.2357 0.0
C2178 C 0.76454 0.13405 0.21845 0.0
C2179 C 0.77529 0.14049 0.24666 0.0
C2180 C 0.78117 0.18361 0.25493 0.0
H2181 H 0.80907 0.19368 0.3371 0.0
H2182 H 0.81095 0.17894 0.31011 0.0
H2183 H 0.77829 0.20568 0.27017 0.0
H2184 H 0.77123 0.15246 0.19901 0.0
H2185 H 0.78648 0.1714 0.2184 0.0
H2186 H 0.81023 0.15218 0.26112 0.0
C2187 C 0.80751 0.19224 0.30994 0.0
C2188 C 0.78598 0.19449 0.26806 0.0
C2189 C 0.80639 0.20066 0.32553 0.0
C2190 C 0.77241 0.14886 0.21225 0.0
C2191 C 0.78114 0.15968 0.22327 0.0
C2192 C 0.80354 0.16408 0.26285 0.0
C2193 C 0.80251 0.20039 0.29478 0.0
C2194 C 0.79955 0.19027 0.27898 0.0
C2195 C 0.78249 0.15564 0.24056 0.0
C2196 C 0.78954 0.1681 0.25261 0.0
H2197 H 0.7913 0.23872 0.31158 0.0
H2198 H 0.79469 0.22469 0.28416 0.0
H2199 H 0.81947 0.17166 0.2835 0.0
H2200 H 0.76026 0.1185 0.24077 0.0
H2201 H 0.77603 0.1373 0.26003 0.0
C2202 C 0.05036 0.56681 0.57587 0.0
C2203 C 0.03562 0.5568 0.57494 0.0
C2204 C 0.06084 0.56851 0.56162 0.0
C2205 C 0.06669 0.56096 0.51614 0.0
H2206 H 0.10336 0.53095 0.52948 0.0
C2207 C 0.09949 0.5175 0.46782 0.0
C2208 C 0.1156 0.51082 0.47132 0.0
C2209 C 0.09149 0.52814 0.47953 0.0
C2210 C 0.09366 0.53977 0.52539 0.0
H2211 H 0.01913 0.54239 0.5583 0.0
H2212 H 0.03709 0.54595 0.53319 0.0
H2213 H 0.08558 0.54364 0.55102 0.0
H2214 H 0.13655 0.51061 0.48908 0.0
H2215 H 0.12326 0.53018 0.50905 0.0
H2216 H 0.07471 0.55722 0.49048 0.0
C2217 C 0.04065 0.55233 0.54487 0.0
C2218 C 0.0834 0.54703 0.53785 0.0
C2219 C 0.03043 0.55023 0.5592 0.0
C2220 C 0.12396 0.51544 0.48632 0.0
C2221 C 0.11624 0.52659 0.49778 0.0
C2222 C 0.0773 0.55411 0.50362 0.0
C2223 C 0.0564 0.56059 0.54625 0.0
C2224 C 0.06947 0.55712 0.5333 0.0
C2225 C 0.09969 0.53279 0.49478 0.0
C2226 C 0.09046 0.54276 0.50803 0.0
H2227 H 0.05466 0.5718 0.58797 0.0
H2228 H 0.07302 0.5748 0.56295 0.0
H2229 H 0.05594 0.56869 0.51239 0.0
H2230 H 0.09281 0.514 0.4563 0.0
H2231 H 0.07865 0.53218 0.4768 0.0
C2232 C 0.69439 0.19854 0.66206 0.0
C2233 C 0.70339 0.21266 0.65601 0.0
C2234 C 0.6954 0.19409 0.67924 0.0
C2235 C 0.70003 0.18605 0.71676 0.0
H2236 H 0.74784 0.18933 0.72831 0.0
C2237 C 0.73153 0.15054 0.77373 0.0
C2238 C 0.74649 0.14184 0.76929 0.0
C2239 C 0.72403 0.16194 0.76235 0.0
C2240 C 0.73443 0.18839 0.72533 0.0
H2241 H 0.71866 0.23443 0.66305 0.0
H2242 H 0.71969 0.22724 0.6932 0.0
H2243 H 0.73685 0.20562 0.70466 0.0
H2244 H 0.76527 0.13815 0.74948 0.0
H2245 H 0.75227 0.15801 0.72967 0.0
H2246 H 0.6981 0.16785 0.73698 0.0
C2247 C 0.71242 0.21918 0.68473 0.0
C2248 C 0.72801 0.19794 0.7119 0.0
C2249 C 0.71173 0.22339 0.66754 0.0
C2250 C 0.75378 0.14469 0.75328 0.0
C2251 C 0.74639 0.15615 0.74199 0.0
C2252 C 0.7065 0.17645 0.73027 0.0
C2253 C 0.70529 0.20384 0.69056 0.0
C2254 C 0.71086 0.19647 0.70705 0.0
C2255 C 0.73151 0.16496 0.74643 0.0
C2256 C 0.72391 0.17707 0.73421 0.0
H2257 H 0.68798 0.19007 0.65329 0.0
H2258 H 0.68977 0.18218 0.68324 0.0
H2259 H 0.68672 0.18479 0.71349 0.0
H2260 H 0.72563 0.14857 0.78602 0.0
H2261 H 0.71258 0.16859 0.76607 0.0
C2262 C 0.0192 0.45776 0.93846 0.0
C2263 C 0.02077 0.44697 0.92434 0.0
C2264 C 0.02881 0.45491 0.95305 0.0
C2265 C 0.04945 0.44526 0.98404 0.0
H2266 H 0.09666 0.44323 0.97002 0.0
C2267 C 0.10397 0.46155 0.03009 0.0
C2268 C 0.11478 0.47425 0.02365 0.0
C2269 C 0.0929 0.45282 0.01929 0.0
C2270 C 0.08354 0.44361 0.97417 0.0
H2271 H 0.0324 0.42384 0.91495 0.0
H2272 H 0.04943 0.41893 0.94051 0.0
H2273 H 0.07432 0.43662 0.9496 0.0
H2274 H 0.1231 0.48721 0.00081 0.0
H2275 H 0.10385 0.47191 0.98192 0.0
H2276 H 0.05868 0.45333 0.00832 0.0
C2277 C 0.04077 0.42963 0.94022 0.0
C2278 C 0.07074 0.43963 0.96255 0.0
C2279 C 0.03096 0.43238 0.92565 0.0
C2280 C 0.11491 0.47748 0.00611 0.0
C2281 C 0.10396 0.46864 0.9953 0.0
C2282 C 0.06226 0.44914 0.9957 0.0
C2283 C 0.04032 0.44128 0.95376 0.0
C2284 C 0.05355 0.44112 0.96716 0.0
C2285 C 0.09258 0.4565 0.00183 0.0
C2286 C 0.0794 0.44903 0.99066 0.0
H2287 H 0.01131 0.46902 0.93784 0.0
H2288 H 0.02823 0.46418 0.96321 0.0
H2289 H 0.0363 0.4464 0.98797 0.0
H2290 H 0.10359 0.45877 0.04357 0.0
H2291 H 0.08432 0.44346 0.02464 0.0
C2292 C 0.76175 0.85634 0.27102 0.0
C2293 C 0.74442 0.86043 0.2695 0.0
C2294 C 0.76926 0.84475 0.25986 0.0
C2295 C 0.76039 0.80817 0.23385 0.0
H2296 H 0.79515 0.82382 0.20259 0.0
C2297 C 0.76924 0.77872 0.16872 0.0
C2298 C 0.78486 0.77976 0.16012 0.0
C2299 C 0.76745 0.78543 0.18497 0.0
C2300 C 0.78583 0.819 0.2115 0.0
H2301 H 0.72136 0.85564 0.25522 0.0
H2302 H 0.7344 0.83497 0.23602 0.0
H2303 H 0.78578 0.84231 0.22566 0.0
H2304 H 0.81125 0.78739 0.16244 0.0
H2305 H 0.80817 0.79893 0.19116 0.0
H2306 H 0.76027 0.78492 0.21983 0.0
C2307 C 0.74214 0.84086 0.24578 0.0
C2308 C 0.78039 0.82967 0.22462 0.0
C2309 C 0.73473 0.85274 0.25666 0.0
C2310 C 0.799 0.78654 0.16868 0.0
C2311 C 0.79721 0.79325 0.18508 0.0
C2312 C 0.76604 0.79737 0.22097 0.0
C2313 C 0.75944 0.8368 0.2473 0.0
C2314 C 0.76717 0.82456 0.23542 0.0
C2315 C 0.78125 0.79325 0.19319 0.0
C2316 C 0.77826 0.80295 0.20914 0.0
H2317 H 0.76952 0.86211 0.28082 0.0
H2318 H 0.78264 0.84181 0.26117 0.0
H2319 H 0.75035 0.80391 0.24226 0.0
H2320 H 0.75813 0.77335 0.16261 0.0
H2321 H 0.7549 0.78532 0.19063 0.0
C2322 C 0.38632 0.51464 0.50391 0.0
C2323 C 0.38602 0.51785 0.52145 0.0
C2324 C 0.39663 0.52433 0.49321 0.0
C2325 C 0.43613 0.54815 0.493 0.0
H2326 H 0.42121 0.55987 0.44753 0.0
C2327 C 0.46225 0.56674 0.42128 0.0
C2328 C 0.47358 0.55305 0.4198 0.0
C2329 C 0.45325 0.56927 0.43642 0.0
C2330 C 0.42557 0.55715 0.4603 0.0
H2331 H 0.39611 0.53381 0.54156 0.0
H2332 H 0.41436 0.55062 0.52279 0.0
H2333 H 0.40045 0.55079 0.46856 0.0
H2334 H 0.48608 0.53268 0.43347 0.0
H2335 H 0.47055 0.53708 0.45976 0.0
H2336 H 0.46139 0.55371 0.48445 0.0
C2337 C 0.40653 0.54067 0.51736 0.0
C2338 C 0.41367 0.55172 0.47228 0.0
C2339 C 0.39607 0.53107 0.52806 0.0
C2340 C 0.47724 0.54321 0.43423 0.0
C2341 C 0.46842 0.54584 0.44936 0.0
C2342 C 0.44807 0.55353 0.48098 0.0
C2343 C 0.40696 0.53734 0.49983 0.0
C2344 C 0.41893 0.54645 0.48849 0.0
C2345 C 0.45564 0.55826 0.45031 0.0
C2346 C 0.44299 0.55735 0.46427 0.0
H2347 H 0.37874 0.50452 0.49847 0.0
H2348 H 0.39692 0.52127 0.47979 0.0
H2349 H 0.44055 0.54419 0.50543 0.0
H2350 H 0.45924 0.57455 0.41035 0.0
H2351 H 0.44363 0.5791 0.43688 0.0
C2352 C 0.74079 0.71811 0.85957 0.0
C2353 C 0.72314 0.71608 0.85843 0.0
C2354 C 0.7516 0.70773 0.85015 0.0
C2355 C 0.75333 0.68621 0.80998 0.0
H2356 H 0.7979 0.6739 0.82695 0.0
C2357 C 0.82802 0.67699 0.78839 0.0
C2358 C 0.82898 0.69261 0.7798 0.0
C2359 C 0.81251 0.67145 0.79514 0.0
C2360 C 0.78539 0.6767 0.82194 0.0
H2361 H 0.70286 0.70135 0.84691 0.0
H2362 H 0.72189 0.68338 0.83003 0.0
H2363 H 0.77512 0.67996 0.8469 0.0
H2364 H 0.81435 0.71356 0.76958 0.0
H2365 H 0.78748 0.70403 0.78125 0.0
H2366 H 0.76394 0.68405 0.78501 0.0
C2367 C 0.7273 0.69289 0.83839 0.0
C2368 C 0.77239 0.68036 0.83341 0.0
C2369 C 0.71646 0.70316 0.84803 0.0
C2370 C 0.81398 0.7016 0.77641 0.0
C2371 C 0.79852 0.69599 0.78295 0.0
C2372 C 0.76636 0.68255 0.79848 0.0
C2373 C 0.74498 0.69521 0.83925 0.0
C2374 C 0.7566 0.6862 0.82754 0.0
C2375 C 0.79777 0.68136 0.79318 0.0
C2376 C 0.78282 0.67888 0.80439 0.0
H2377 H 0.74628 0.72795 0.8675 0.0
H2378 H 0.76516 0.71006 0.85083 0.0
H2379 H 0.74124 0.69059 0.80509 0.0
H2380 H 0.83942 0.66977 0.79108 0.0
H2381 H 0.81227 0.66004 0.80284 0.0
C2382 C 0.50583 0.48997 0.11591 0.0
C2383 C 0.50982 0.47264 0.11486 0.0
C2384 C 0.5144 0.50177 0.10579 0.0
C2385 C 0.53564 0.50545 0.06504 0.0
H2386 H 0.5482 0.54996 0.0821 0.0
C2387 C 0.55672 0.57732 0.04126 0.0
C2388 C 0.54296 0.58018 0.03025 0.0
C2389 C 0.55809 0.5619 0.05001 0.0
C2390 C 0.54515 0.53748 0.07715 0.0
H2391 H 0.52604 0.45402 0.10259 0.0
H2392 H 0.54085 0.47468 0.08472 0.0
H2393 H 0.53996 0.52766 0.10201 0.0
H2394 H 0.52095 0.56866 0.01832 0.0
H2395 H 0.52344 0.54178 0.03337 0.0
H2396 H 0.54003 0.51555 0.04011 0.0
C2397 C 0.53117 0.47912 0.09344 0.0
C2398 C 0.54023 0.52479 0.08854 0.0
C2399 C 0.52272 0.46733 0.1037 0.0
C2400 C 0.53159 0.56684 0.02688 0.0
C2401 C 0.5331 0.55138 0.03541 0.0
C2402 C 0.54042 0.5182 0.05362 0.0
C2403 C 0.52701 0.49643 0.09431 0.0
C2404 C 0.53489 0.50885 0.08256 0.0
C2405 C 0.54589 0.54904 0.04764 0.0
C2406 C 0.54468 0.5345 0.05954 0.0
H2407 H 0.49591 0.4944 0.12437 0.0
H2408 H 0.51076 0.51502 0.10654 0.0
H2409 H 0.53155 0.49327 0.06007 0.0
H2410 H 0.56567 0.58741 0.04408 0.0
H2411 H 0.56816 0.56035 0.05927 0.0
C2412 C 0.66952 0.31798 0.29613 0.0
C2413 C 0.668 0.30461 0.2844 0.0
C2414 C 0.68514 0.3212 0.30398 0.0
C2415 C 0.73081 0.31074 0.30546 0.0
H2416 H 0.72112 0.29553 0.35128 0.0
C2417 C 0.7779 0.26995 0.34281 0.0
C2418 C 0.77623 0.26833 0.36044 0.0
C2419 C 0.76693 0.28055 0.33376 0.0
C2420 C 0.72434 0.30033 0.33881 0.0
H2421 H 0.68175 0.28561 0.27003 0.0
H2422 H 0.70911 0.29155 0.28337 0.0
H2423 H 0.69823 0.30539 0.33349 0.0
H2424 H 0.76307 0.27725 0.3828 0.0
H2425 H 0.74472 0.29683 0.36732 0.0
H2426 H 0.75694 0.30556 0.31067 0.0
C2427 C 0.6983 0.2994 0.28667 0.0
C2428 C 0.71108 0.30598 0.32855 0.0
C2429 C 0.68264 0.29591 0.27913 0.0
C2430 C 0.76428 0.27819 0.36912 0.0
C2431 C 0.75372 0.28929 0.36017 0.0
C2432 C 0.74422 0.30552 0.3159 0.0
C2433 C 0.69945 0.31137 0.29985 0.0
C2434 C 0.71407 0.31047 0.31158 0.0
C2435 C 0.75442 0.29016 0.34227 0.0
C2436 C 0.74105 0.29938 0.33245 0.0
H2437 H 0.65838 0.32482 0.30042 0.0
H2438 H 0.68576 0.33046 0.31415 0.0
H2439 H 0.73339 0.3142 0.29238 0.0
H2440 H 0.78715 0.26241 0.33596 0.0
H2441 H 0.76783 0.28051 0.32004 0.0
C2442 C 0.97063 0.53131 0.59111 0.0
C2443 C 0.98502 0.52641 0.60053 0.0
C2444 C 0.96311 0.52 0.57959 0.0
C2445 C 0.97407 0.48394 0.55293 0.0
H2446 H 0.92665 0.47053 0.55465 0.0
C2447 C 0.93681 0.42024 0.53737 0.0
C2448 C 0.94614 0.41578 0.52287 0.0
C2449 C 0.93692 0.43706 0.54317 0.0
C2450 C 0.93987 0.47429 0.5539 0.0
H2451 H 0.00256 0.50578 0.60558 0.0
H2452 H 0.98965 0.48624 0.58536 0.0
H2453 H 0.93698 0.49348 0.57314 0.0
H2454 H 0.96097 0.42534 0.50178 0.0
H2455 H 0.96047 0.45482 0.51135 0.0
H2456 H 0.97743 0.46444 0.53453 0.0
C2457 C 0.98421 0.4988 0.58684 0.0
C2458 C 0.94574 0.48744 0.5644 0.0
C2459 C 0.99155 0.50997 0.59846 0.0
C2460 C 0.95377 0.42856 0.51308 0.0
C2461 C 0.95359 0.44538 0.51865 0.0
C2462 C 0.96824 0.47096 0.54243 0.0
C2463 C 0.97006 0.50376 0.57717 0.0
C2464 C 0.96303 0.49192 0.56439 0.0
C2465 C 0.94624 0.44959 0.53439 0.0
C2466 C 0.95119 0.4656 0.54312 0.0
H2467 H 0.9653 0.54392 0.5925 0.0
H2468 H 0.9522 0.52408 0.57227 0.0
H2469 H 0.98742 0.48731 0.55256 0.0
H2470 H 0.93095 0.41051 0.54516 0.0
H2471 H 0.93114 0.43983 0.55534 0.0
C2472 C 0.80882 0.28368 0.72157 0.0
C2473 C 0.82135 0.29563 0.71729 0.0
C2474 C 0.79462 0.28153 0.71122 0.0
C2475 C 0.7715 0.29731 0.67317 0.0
H2476 H 0.76783 0.24905 0.66366 0.0
C2477 C 0.72099 0.2665 0.62889 0.0
C2478 C 0.72635 0.2527 0.61888 0.0
C2479 C 0.7321 0.27411 0.64044 0.0
C2480 C 0.7688 0.26258 0.66606 0.0
H2481 H 0.82813 0.3159 0.69992 0.0
H2482 H 0.80343 0.31188 0.68151 0.0
H2483 H 0.78627 0.25872 0.68636 0.0
H2484 H 0.74782 0.23683 0.61221 0.0
H2485 H 0.76731 0.25021 0.63231 0.0
H2486 H 0.75417 0.30101 0.65242 0.0
C2487 C 0.80446 0.30429 0.69295 0.0
C2488 C 0.77913 0.26812 0.67929 0.0
C2489 C 0.81861 0.30661 0.70349 0.0
C2490 C 0.74331 0.24734 0.61986 0.0
C2491 C 0.75442 0.25493 0.63143 0.0
C2492 C 0.76104 0.29171 0.65989 0.0
C2493 C 0.79285 0.29109 0.69624 0.0
C2494 C 0.78067 0.28554 0.68298 0.0
C2495 C 0.74877 0.26803 0.64219 0.0
C2496 C 0.75977 0.27429 0.65611 0.0
H2497 H 0.81055 0.27524 0.73231 0.0
H2498 H 0.7856 0.27159 0.71434 0.0
H2499 H 0.77244 0.3108 0.67573 0.0
H2500 H 0.70798 0.27095 0.62837 0.0
H2501 H 0.72739 0.28413 0.6486 0.0
C2502 C 0.9217 0.57755 0.95753 0.0
C2503 C 0.93261 0.57523 0.97145 0.0
C2504 C 0.91737 0.5637 0.94727 0.0
C2505 C 0.92108 0.51749 0.94045 0.0
H2506 H 0.94925 0.5302 0.9021 0.0
C2507 C 0.96266 0.4687 0.90631 0.0
C2508 C 0.96904 0.47215 0.89006 0.0
C2509 C 0.95212 0.4804 0.91444 0.0
C2510 C 0.94087 0.52628 0.91227 0.0
H2511 H 0.94558 0.55669 0.98706 0.0
H2512 H 0.93751 0.53243 0.96951 0.0
H2513 H 0.93824 0.55195 0.92059 0.0
H2514 H 0.96866 0.48968 0.86892 0.0
H2515 H 0.94923 0.50961 0.88245 0.0
H2516 H 0.92373 0.49176 0.93223 0.0
C2517 C 0.93245 0.54484 0.96637 0.0
C2518 C 0.93455 0.53888 0.92295 0.0
C2519 C 0.93712 0.55871 0.97638 0.0
C2520 C 0.9641 0.487 0.88164 0.0
C2521 C 0.95303 0.49843 0.88949 0.0
C2522 C 0.92698 0.50484 0.92944 0.0
C2523 C 0.9236 0.54742 0.95109 0.0
C2524 C 0.92529 0.53456 0.93755 0.0
C2525 C 0.94725 0.49557 0.90623 0.0
C2526 C 0.93774 0.50899 0.9157 0.0
H2527 H 0.9182 0.59022 0.95344 0.0
H2528 H 0.91058 0.56595 0.9355 0.0
H2529 H 0.91396 0.51389 0.95168 0.0
H2530 H 0.96638 0.45725 0.913 0.0
H2531 H 0.94839 0.47775 0.9274 0.0
C2532 C 0.67319 0.68597 0.19927 0.0
C2533 C 0.67188 0.69687 0.21334 0.0
C2534 C 0.68805 0.68587 0.18946 0.0
C2535 C 0.72368 0.68851 0.17183 0.0
H2536 H 0.73107 0.73633 0.16209 0.0
C2537 C 0.78011 0.71853 0.13392 0.0
C2538 C 0.77589 0.73192 0.12285 0.0
C2539 C 0.76757 0.71061 0.1437 0.0
C2540 C 0.72908 0.72292 0.16459 0.0
H2541 H 0.68555 0.71435 0.22962 0.0
H2542 H 0.71156 0.71386 0.2128 0.0
H2543 H 0.71071 0.72813 0.18378 0.0
H2544 H 0.75508 0.74649 0.11223 0.0
H2545 H 0.73322 0.73285 0.12952 0.0
H2546 H 0.74234 0.68351 0.15247 0.0
C2547 C 0.70108 0.70573 0.20907 0.0
C2548 C 0.71762 0.71822 0.17718 0.0
C2549 C 0.68625 0.70595 0.21872 0.0
C2550 C 0.75875 0.73635 0.12077 0.0
C2551 C 0.74625 0.72857 0.13067 0.0
C2552 C 0.73545 0.69327 0.1593 0.0
C2553 C 0.70169 0.69661 0.19374 0.0
C2554 C 0.71477 0.701 0.18095 0.0
C2555 C 0.75064 0.71607 0.14265 0.0
C2556 C 0.73808 0.71054 0.15549 0.0
H2557 H 0.6622 0.67893 0.19485 0.0
H2558 H 0.68823 0.67871 0.1777 0.0
H2559 H 0.72161 0.67516 0.17445 0.0
H2560 H 0.79323 0.71474 0.13569 0.0
H2561 H 0.77127 0.70104 0.15288 0.0
C2562 C 0.53419 0.53512 0.39733 0.0
C2563 C 0.52224 0.52811 0.38604 0.0
C2564 C 0.54372 0.52459 0.40798 0.0
C2565 C 0.54845 0.49959 0.43742 0.0
H2566 H 0.56439 0.45525 0.42304 0.0
C2567 C 0.5391 0.43928 0.47528 0.0
C2568 C 0.55066 0.42579 0.4739 0.0
C2569 C 0.5421 0.45454 0.46682 0.0
C2570 C 0.56046 0.46773 0.4273 0.0
H2571 H 0.51143 0.50468 0.37641 0.0
H2572 H 0.52809 0.48629 0.39491 0.0
H2573 H 0.55789 0.47681 0.40178 0.0
H2574 H 0.57511 0.4181 0.46375 0.0
H2575 H 0.58022 0.44482 0.44864 0.0
H2576 H 0.55002 0.49015 0.4629 0.0
C2577 C 0.53018 0.49989 0.3955 0.0
C2578 C 0.55657 0.48 0.41511 0.0
C2579 C 0.52053 0.5104 0.38502 0.0
C2580 C 0.56592 0.42827 0.46494 0.0
C2581 C 0.56884 0.44352 0.45628 0.0
C2582 C 0.55225 0.48728 0.44962 0.0
C2583 C 0.54162 0.50689 0.40732 0.0
C2584 C 0.54975 0.49572 0.42004 0.0
C2585 C 0.55667 0.45657 0.45669 0.0
C2586 C 0.55748 0.47097 0.44461 0.0
H2587 H 0.53577 0.54875 0.39838 0.0
H2588 H 0.55246 0.53028 0.41698 0.0
H2589 H 0.5432 0.51161 0.44157 0.0
H2590 H 0.52735 0.43781 0.4823 0.0
H2591 H 0.53239 0.46428 0.46726 0.0
C2592 C 0.78429 0.82594 0.6907 0.0
C2593 C 0.76953 0.82837 0.70036 0.0
C2594 C 0.7921 0.80998 0.69033 0.0
C2595 C 0.79603 0.77612 0.72134 0.0
H2596 H 0.82952 0.75831 0.68991 0.0
C2597 C 0.85563 0.74302 0.74501 0.0
C2598 C 0.85959 0.72718 0.73789 0.0
C2599 C 0.84325 0.75329 0.73761 0.0
C2600 C 0.82007 0.76304 0.69873 0.0
H2601 H 0.74995 0.81595 0.71513 0.0
H2602 H 0.76301 0.78788 0.71374 0.0
H2603 H 0.80805 0.77852 0.67975 0.0
H2604 H 0.85432 0.70998 0.71696 0.0
H2605 H 0.83274 0.72819 0.70387 0.0
H2606 H 0.80825 0.76116 0.74039 0.0
C2607 C 0.76899 0.7983 0.707 0.0
C2608 C 0.80784 0.77462 0.69295 0.0
C2609 C 0.76141 0.8143 0.70768 0.0
C2610 C 0.85147 0.72213 0.72277 0.0
C2611 C 0.83917 0.73252 0.71525 0.0
C2612 C 0.80823 0.76471 0.72708 0.0
C2613 C 0.78509 0.79629 0.6995 0.0
C2614 C 0.79594 0.78161 0.70432 0.0
C2615 C 0.83468 0.748 0.72285 0.0
C2616 C 0.82067 0.75846 0.71599 0.0
H2617 H 0.79081 0.8367 0.68507 0.0
H2618 H 0.80447 0.8089 0.6844 0.0
H2619 H 0.7873 0.7814 0.73058 0.0
H2620 H 0.86173 0.7473 0.75659 0.0
H2621 H 0.8402 0.76532 0.74357 0.0
C2622 C 0.29351 0.66909 0.31293 0.0
C2623 C 0.28232 0.66655 0.29927 0.0
C2624 C 0.30136 0.68493 0.3152 0.0
C2625 C 0.32682 0.71147 0.30314 0.0
H2626 H 0.30729 0.75469 0.28986 0.0
C2627 C 0.3616 0.759 0.26074 0.0
C2628 C 0.35915 0.77649 0.26313 0.0
C2629 C 0.35281 0.74726 0.27073 0.0
C2630 C 0.31299 0.74285 0.29392 0.0
H2631 H 0.26903 0.67878 0.27851 0.0
H2632 H 0.28245 0.70628 0.28251 0.0
H2633 H 0.28873 0.73173 0.29933 0.0
H2634 H 0.346 0.79546 0.2782 0.0
H2635 H 0.33056 0.7749 0.29562 0.0
H2636 H 0.35101 0.72234 0.29701 0.0
C2637 C 0.28535 0.69623 0.29146 0.0
C2638 C 0.30234 0.72967 0.29926 0.0
C2639 C 0.27773 0.68043 0.28906 0.0
C2640 C 0.3481 0.78204 0.27603 0.0
C2641 C 0.33924 0.77028 0.28598 0.0
C2642 C 0.33746 0.72463 0.29778 0.0
C2643 C 0.29788 0.69843 0.30399 0.0
C2644 C 0.30909 0.7136 0.30316 0.0
C2645 C 0.34133 0.75276 0.28329 0.0
C2646 C 0.33059 0.74019 0.29238 0.0
H2647 H 0.29725 0.65855 0.32095 0.0
H2648 H 0.31086 0.68632 0.32507 0.0
H2649 H 0.33244 0.69923 0.30596 0.0
H2650 H 0.37003 0.75437 0.2509 0.0
H2651 H 0.3545 0.73385 0.26814 0.0
C2652 C 0.49017 0.11235 0.50774 0.0
C2653 C 0.47294 0.11316 0.51221 0.0
C2654 C 0.50107 0.10119 0.51616 0.0
C2655 C 0.50112 0.06044 0.5373 0.0
H2656 H 0.5473 0.07306 0.54903 0.0
C2657 C 0.57089 0.0299 0.55617 0.0
C2658 C 0.57251 0.01903 0.5421 0.0
C2659 C 0.55632 0.03988 0.55812 0.0
C2660 C 0.53434 0.06935 0.54621 0.0
H2661 H 0.45359 0.10315 0.52914 0.0
H2662 H 0.47265 0.08337 0.54366 0.0
H2663 H 0.52685 0.09508 0.54155 0.0
H2664 H 0.5595 0.00861 0.52015 0.0
H2665 H 0.5341 0.02586 0.52361 0.0
H2666 H 0.50889 0.03461 0.54106 0.0
C2667 C 0.4777 0.09148 0.53374 0.0
C2668 C 0.52271 0.08195 0.54175 0.0
C2669 C 0.46685 0.10282 0.52546 0.0
C2670 C 0.55867 0.01705 0.531 0.0
C2671 C 0.54406 0.02683 0.53307 0.0
C2672 C 0.51281 0.0478 0.54161 0.0
C2673 C 0.49488 0.09049 0.52908 0.0
C2674 C 0.50618 0.07756 0.53669 0.0
C2675 C 0.54307 0.03891 0.54618 0.0
C2676 C 0.52969 0.05211 0.54554 0.0
H2677 H 0.49518 0.12016 0.49756 0.0
H2678 H 0.51422 0.1005 0.51216 0.0
H2679 H 0.48844 0.05672 0.53342 0.0
H2680 H 0.58134 0.03165 0.56497 0.0
H2681 H 0.5558 0.04899 0.56842 0.0
C2682 C 0.20493 0.32728 0.81401 0.0
C2683 C 0.21943 0.33204 0.80486 0.0
C2684 C 0.20027 0.31016 0.81499 0.0
C2685 C 0.20443 0.2747 0.78586 0.0
H2686 H 0.17089 0.25425 0.81567 0.0
C2687 C 0.15334 0.21693 0.78004 0.0
C2688 C 0.14465 0.22301 0.76563 0.0
C2689 C 0.16503 0.22733 0.78855 0.0
C2690 C 0.18048 0.25964 0.80738 0.0
H2691 H 0.24168 0.323 0.79152 0.0
H2692 H 0.23414 0.293 0.79405 0.0
H2693 H 0.1892 0.27715 0.82639 0.0
H2694 H 0.14089 0.24488 0.74926 0.0
H2695 H 0.16142 0.26278 0.76387 0.0
H2696 H 0.19516 0.25787 0.76666 0.0
C2697 C 0.22595 0.30237 0.79992 0.0
C2698 C 0.19088 0.27278 0.81345 0.0
C2699 C 0.23036 0.31949 0.79857 0.0
C2700 C 0.14745 0.23977 0.76022 0.0
C2701 C 0.15924 0.25 0.76853 0.0
C2702 C 0.19406 0.2617 0.77985 0.0
C2703 C 0.2102 0.29763 0.80695 0.0
C2704 C 0.20246 0.28095 0.8025 0.0
C2705 C 0.16832 0.24379 0.78257 0.0
C2706 C 0.18152 0.25461 0.79031 0.0
H2707 H 0.1963 0.33686 0.81885 0.0
H2708 H 0.18804 0.30704 0.82049 0.0
H2709 H 0.21299 0.28072 0.77691 0.0
H2710 H 0.15136 0.20406 0.78451 0.0
H2711 H 0.17188 0.22235 0.7994 0.0
C2712 C 0.43289 0.4762 0.54745 0.0
C2713 C 0.41727 0.47101 0.55431 0.0
C2714 C 0.44785 0.46794 0.55213 0.0
C2715 C 0.45867 0.4257 0.55662 0.0
H2716 H 0.50462 0.44139 0.56482 0.0
C2717 C 0.51432 0.38558 0.53321 0.0
C2718 C 0.52812 0.39454 0.52647 0.0
C2719 C 0.5023 0.39394 0.54322 0.0
C2720 C 0.49189 0.4368 0.56234 0.0
H2721 H 0.40504 0.45426 0.57244 0.0
H2722 H 0.43122 0.43923 0.58004 0.0
H2723 H 0.48062 0.4598 0.57177 0.0
H2724 H 0.54061 0.41897 0.52486 0.0
H2725 H 0.51897 0.434 0.54094 0.0
H2726 H 0.46943 0.40371 0.54536 0.0
C2727 C 0.4319 0.44994 0.57141 0.0
C2728 C 0.47819 0.44726 0.56661 0.0
C2729 C 0.41698 0.45852 0.56705 0.0
C2730 C 0.52999 0.41186 0.53003 0.0
C2731 C 0.51765 0.42039 0.53948 0.0
C2732 C 0.47229 0.41547 0.55188 0.0
C2733 C 0.44729 0.45412 0.56339 0.0
C2734 C 0.46151 0.44195 0.56331 0.0
C2735 C 0.50345 0.41161 0.54603 0.0
C2736 C 0.48915 0.42111 0.55408 0.0
H2737 H 0.43338 0.48586 0.53764 0.0
H2738 H 0.45955 0.47125 0.54566 0.0
H2739 H 0.44589 0.42145 0.55368 0.0
H2740 H 0.51288 0.3721 0.53082 0.0
H2741 H 0.49195 0.38654 0.54844 0.0
C2742 C 0.64302 0.27884 0.22665 0.0
C2743 C 0.63255 0.2734 0.24007 0.0
C2744 C 0.65253 0.26708 0.21733 0.0
C2745 C 0.68008 0.2403 0.21068 0.0
H2746 H 0.66147 0.19623 0.19874 0.0
C2747 C 0.71726 0.17838 0.21271 0.0
C2748 C 0.7132 0.16512 0.20148 0.0
C2749 C 0.70883 0.19391 0.21167 0.0
C2750 C 0.66683 0.20859 0.20161 0.0
H2751 H 0.62344 0.25145 0.25401 0.0
H2752 H 0.63994 0.23092 0.23769 0.0
H2753 H 0.64249 0.21884 0.20813 0.0
H2754 H 0.69814 0.15807 0.17951 0.0
H2755 H 0.6831 0.18529 0.17787 0.0
H2756 H 0.70452 0.22977 0.20497 0.0
C2757 C 0.64074 0.24424 0.2343 0.0
C2758 C 0.65597 0.22146 0.20717 0.0
C2759 C 0.6314 0.25599 0.24373 0.0
C2760 C 0.70148 0.1681 0.18834 0.0
C2761 C 0.69284 0.18361 0.18745 0.0
C2762 C 0.69096 0.22738 0.20524 0.0
C2763 C 0.65155 0.24968 0.22114 0.0
C2764 C 0.66256 0.23722 0.21234 0.0
C2765 C 0.69602 0.19643 0.1995 0.0
C2766 C 0.68449 0.21121 0.20124 0.0
H2767 H 0.64417 0.29221 0.22357 0.0
H2768 H 0.66074 0.2716 0.20725 0.0
H2769 H 0.6855 0.25233 0.21462 0.0
H2770 H 0.72638 0.17646 0.22284 0.0
H2771 H 0.7115 0.20347 0.22121 0.0
C2772 C 0.49193 0.88781 0.98186 0.0
C2773 C 0.47431 0.88942 0.97981 0.0
C2774 C 0.50302 0.89738 0.97186 0.0
C2775 C 0.50627 0.93758 0.94989 0.0
H2776 H 0.54846 0.91798 0.93369 0.0
C2777 C 0.57931 0.95586 0.92763 0.0
C2778 C 0.58321 0.96561 0.94207 0.0
C2779 C 0.56297 0.9491 0.9256 0.0
C2780 C 0.53658 0.92368 0.93767 0.0
H2781 H 0.4544 0.90224 0.96569 0.0
H2782 H 0.4739 0.91927 0.9484 0.0
H2783 H 0.52564 0.89941 0.94328 0.0
H2784 H 0.57284 0.97772 0.9645 0.0
H2785 H 0.54446 0.96611 0.96096 0.0
H2786 H 0.51763 0.9619 0.94519 0.0
C2787 C 0.47907 0.91047 0.95763 0.0
C2788 C 0.5236 0.91302 0.94336 0.0
C2789 C 0.46796 0.90072 0.96751 0.0
C2790 C 0.57016 0.97006 0.95337 0.0
C2791 C 0.55385 0.96351 0.95123 0.0
C2792 C 0.51932 0.94827 0.94427 0.0
C2793 C 0.49671 0.90888 0.95973 0.0
C2794 C 0.50867 0.91989 0.95026 0.0
C2795 C 0.55032 0.95222 0.93786 0.0
C2796 C 0.5349 0.94142 0.93886 0.0
H2797 H 0.49717 0.87921 0.99124 0.0
H2798 H 0.51657 0.89612 0.97396 0.0
H2799 H 0.49485 0.94321 0.95511 0.0
H2800 H 0.58917 0.9523 0.91872 0.0
H2801 H 0.56054 0.94056 0.91509 0.0
C2802 C 0.03008 0.09135 0.47747 0.0
C2803 C 0.0262 0.10394 0.48955 0.0
C2804 C 0.01717 0.08396 0.46771 0.0
C2805 C 0.97305 0.09136 0.45355 0.0
H2806 H 0.96856 0.04227 0.45367 0.0
C2807 C 0.91009 0.05732 0.45765 0.0
C2808 C 0.90704 0.04255 0.44816 0.0
C2809 C 0.92579 0.0654 0.45684 0.0
C2810 C 0.96986 0.05597 0.45309 0.0
H2811 H 0.00588 0.11863 0.50094 0.0
H2812 H 0.98344 0.10576 0.48404 0.0
H2813 H 0.99485 0.05536 0.46391 0.0
H2814 H 0.91772 0.02479 0.43005 0.0
H2815 H 0.94573 0.03877 0.42908 0.0
H2816 H 0.94768 0.09201 0.44381 0.0
C2817 C 0.99643 0.10174 0.4819 0.0
C2818 C 0.98487 0.06346 0.45898 0.0
C2819 C 0.00926 0.10899 0.4917 0.0
C2820 C 0.91981 0.03624 0.4374 0.0
C2821 C 0.93576 0.04416 0.43688 0.0
C2822 C 0.95809 0.08389 0.44772 0.0
C2823 C 0.00023 0.08921 0.46976 0.0
C2824 C 0.98624 0.08124 0.46003 0.0
C2825 C 0.93889 0.05872 0.44676 0.0
C2826 C 0.95606 0.06618 0.44821 0.0
H2827 H 0.04307 0.08722 0.47557 0.0
H2828 H 0.02042 0.07428 0.45849 0.0
H2829 H 0.97395 0.10509 0.45387 0.0
H2830 H 0.90041 0.06245 0.46598 0.0
H2831 H 0.92794 0.07645 0.46478 0.0
C2832 C 0.15139 0.41429 0.46092 0.0
C2833 C 0.15387 0.42903 0.45112 0.0
C2834 C 0.15908 0.39896 0.45622 0.0
C2835 C 0.19417 0.38068 0.43149 0.0
H2836 H 0.16482 0.34135 0.42698 0.0
C2837 C 0.21492 0.32037 0.39516 0.0
C2838 C 0.20847 0.30455 0.40036 0.0
C2839 C 0.20934 0.33537 0.40287 0.0
C2840 C 0.17333 0.35206 0.42848 0.0
H2841 H 0.16685 0.43937 0.42907 0.0
H2842 H 0.18044 0.4127 0.42108 0.0
H2843 H 0.15334 0.36782 0.43811 0.0
H2844 H 0.19172 0.29199 0.41831 0.0
H2845 H 0.18251 0.31803 0.43221 0.0
H2846 H 0.21423 0.36498 0.42205 0.0
C2847 C 0.1725 0.41299 0.43233 0.0
C2848 C 0.16669 0.36726 0.43481 0.0
C2849 C 0.16463 0.42823 0.43686 0.0
C2850 C 0.19683 0.304 0.41389 0.0
C2851 C 0.19144 0.31897 0.42178 0.0
C2852 C 0.20089 0.36541 0.42537 0.0
C2853 C 0.16961 0.39815 0.44181 0.0
C2854 C 0.177 0.38176 0.43619 0.0
C2855 C 0.19735 0.33489 0.41615 0.0
C2856 C 0.19051 0.35093 0.4236 0.0
H2857 H 0.14313 0.41446 0.47192 0.0
H2858 H 0.15672 0.38771 0.46379 0.0
H2859 H 0.20243 0.39165 0.43257 0.0
H2860 H 0.22378 0.32124 0.38466 0.0
H2861 H 0.214 0.34736 0.39798 0.0
C2862 C 0.92312 0.95665 0.65908 0.0
C2863 C 0.93394 0.94377 0.65305 0.0
C2864 C 0.90787 0.95254 0.66726 0.0
C2865 C 0.88541 0.91691 0.68872 0.0
H2866 H 0.84491 0.94247 0.6773 0.0
C2867 C 0.80845 0.90771 0.69065 0.0
C2868 C 0.80632 0.90051 0.70688 0.0
C2869 C 0.82404 0.9146 0.68574 0.0
C2870 C 0.8561 0.93518 0.6806 0.0
H2871 H 0.93713 0.91641 0.65103 0.0
H2872 H 0.91055 0.90934 0.66494 0.0
H2873 H 0.87222 0.95098 0.66542 0.0
H2874 H 0.81893 0.89543 0.73088 0.0
H2875 H 0.84614 0.90769 0.72236 0.0
H2876 H 0.86919 0.90065 0.70329 0.0
C2877 C 0.91395 0.92262 0.66365 0.0
C2878 C 0.8718 0.94018 0.67395 0.0
C2879 C 0.92918 0.92671 0.65553 0.0
C2880 C 0.8201 0.90082 0.71827 0.0
C2881 C 0.83574 0.90775 0.71335 0.0
C2882 C 0.86971 0.91188 0.69533 0.0
C2883 C 0.90308 0.93546 0.66959 0.0
C2884 C 0.88661 0.93095 0.67772 0.0
C2885 C 0.83794 0.91454 0.69695 0.0
C2886 C 0.85482 0.9208 0.69115 0.0
H2887 H 0.92639 0.96992 0.65746 0.0
H2888 H 0.89987 0.96274 0.67185 0.0
H2889 H 0.89661 0.90966 0.69209 0.0
H2890 H 0.79815 0.90772 0.6815 0.0
H2891 H 0.82532 0.91948 0.67293 0.0
C2892 C 0.28019 0.67821 0.90319 0.0
C2893 C 0.29255 0.69076 0.90008 0.0
C2894 C 0.28455 0.66312 0.91159 0.0
C2895 C 0.30009 0.62837 0.91871 0.0
H2896 H 0.33482 0.6283 0.95368 0.0
C2897 C 0.33867 0.56862 0.93495 0.0
C2898 C 0.34414 0.56592 0.95176 0.0
C2899 C 0.33029 0.58356 0.93044 0.0
C2900 C 0.32491 0.62804 0.94414 0.0
H2901 H 0.31915 0.69732 0.9037 0.0
H2902 H 0.3267 0.67111 0.91785 0.0
H2903 H 0.32363 0.65517 0.94334 0.0
H2904 H 0.34457 0.57674 0.97712 0.0
H2905 H 0.32964 0.60275 0.96929 0.0
H2906 H 0.30125 0.60123 0.91963 0.0
C2907 C 0.31358 0.67296 0.91415 0.0
C2908 C 0.31865 0.64349 0.93803 0.0
C2909 C 0.30924 0.68799 0.90585 0.0
C2910 C 0.34064 0.57842 0.96404 0.0
C2911 C 0.33214 0.59338 0.95952 0.0
C2912 C 0.30627 0.61292 0.9249 0.0
C2913 C 0.30135 0.66026 0.91703 0.0
C2914 C 0.30646 0.64386 0.92495 0.0
C2915 C 0.32701 0.59621 0.94262 0.0
C2916 C 0.31905 0.61256 0.93741 0.0
H2917 H 0.26721 0.67992 0.89898 0.0
H2918 H 0.27477 0.65368 0.91376 0.0
H2919 H 0.29079 0.62815 0.90856 0.0
H2920 H 0.34117 0.55933 0.9251 0.0
H2921 H 0.32684 0.5854 0.91724 0.0
C2922 C 0.68282 0.08147 0.18715 0.0
C2923 C 0.68631 0.08704 0.20379 0.0
C2924 C 0.668 0.07246 0.18351 0.0
C2925 C 0.63884 0.04801 0.17924 0.0
H2926 H 0.59737 0.06573 0.19896 0.0
C2927 C 0.57249 0.02551 0.15654 0.0
C2928 C 0.56088 0.03875 0.15354 0.0
C2929 C 0.58761 0.02861 0.16546 0.0
C2930 C 0.60884 0.0606 0.19335 0.0
H2931 H 0.67712 0.08685 0.22978 0.0
H2932 H 0.65122 0.07089 0.22343 0.0
H2933 H 0.6247 0.07608 0.20907 0.0
H2934 H 0.55589 0.06554 0.1581 0.0
H2935 H 0.5821 0.07091 0.1732 0.0
H2936 H 0.62293 0.03335 0.16275 0.0
C2937 C 0.65992 0.07376 0.21316 0.0
C2938 C 0.62454 0.06638 0.19931 0.0
C2939 C 0.67481 0.08285 0.21682 0.0
C2940 C 0.56452 0.055 0.16007 0.0
C2941 C 0.57953 0.05807 0.16894 0.0
C2942 C 0.62313 0.0423 0.1732 0.0
C2943 C 0.65624 0.06866 0.1964 0.0
C2944 C 0.63973 0.06054 0.19197 0.0
C2945 C 0.59136 0.04499 0.17162 0.0
C2946 C 0.60794 0.04892 0.17983 0.0
H2947 H 0.69136 0.08437 0.17675 0.0
H2948 H 0.66549 0.06904 0.17042 0.0
H2949 H 0.65031 0.04299 0.17352 0.0
H2950 H 0.57008 0.01284 0.15174 0.0
H2951 H 0.5964 0.01822 0.16742 0.0
C2952 C 0.20732 0.67527 0.08621 0.0
C2953 C 0.19447 0.68663 0.0912 0.0
C2954 C 0.20317 0.65976 0.07852 0.0
C2955 C 0.1901 0.62369 0.07338 0.0
H2956 H 0.15172 0.62029 0.04264 0.0
C2957 C 0.15657 0.56028 0.0596 0.0
C2958 C 0.1502 0.55713 0.04319 0.0
C2959 C 0.1635 0.57605 0.06377 0.0
C2960 C 0.16262 0.62102 0.05101 0.0
H2961 H 0.16714 0.69061 0.09176 0.0
H2962 H 0.16 0.66362 0.07872 0.0
H2963 H 0.16111 0.64813 0.05243 0.0
H2964 H 0.14652 0.56815 0.01817 0.0
H2965 H 0.15883 0.59571 0.02544 0.0
H2966 H 0.19168 0.5966 0.07189 0.0
C2967 C 0.17329 0.66675 0.08046 0.0
C2968 C 0.16788 0.63697 0.0568 0.0
C2969 C 0.17742 0.68222 0.0881 0.0
C2970 C 0.15126 0.57012 0.03094 0.0
C2971 C 0.15823 0.58595 0.03513 0.0
C2972 C 0.18488 0.60775 0.06756 0.0
C2973 C 0.18609 0.65528 0.07565 0.0
C2974 C 0.18149 0.63848 0.06829 0.0
C2975 C 0.16432 0.58914 0.05165 0.0
C2976 C 0.17088 0.60619 0.05654 0.0
H2977 H 0.22058 0.67826 0.08833 0.0
H2978 H 0.21335 0.65129 0.0748 0.0
H2979 H 0.20055 0.62436 0.08232 0.0
H2980 H 0.15598 0.55062 0.06941 0.0
H2981 H 0.1678 0.57813 0.07668 0.0
C2982 C 0.67041 0.91525 0.31503 0.0
C2983 C 0.66918 0.90381 0.30135 0.0
C2984 C 0.656 0.92371 0.32106 0.0
C2985 C 0.61127 0.93433 0.30964 0.0
H2986 H 0.60571 0.93882 0.35841 0.0
C2987 C 0.54659 0.94506 0.34228 0.0
C2988 C 0.54583 0.95668 0.35584 0.0
C2989 C 0.56214 0.94091 0.33482 0.0
C2990 C 0.6072 0.93788 0.34476 0.0
H2991 H 0.65176 0.89239 0.28325 0.0
H2992 H 0.62668 0.90675 0.29399 0.0
H2993 H 0.632 0.92706 0.34703 0.0
H2994 H 0.56081 0.97332 0.37195 0.0
H2995 H 0.58806 0.96588 0.35897 0.0
H2996 H 0.58614 0.94457 0.30749 0.0
C2997 C 0.63882 0.90955 0.29984 0.0
C2998 C 0.62228 0.93117 0.33821 0.0
C2999 C 0.65323 0.90121 0.29372 0.0
C3000 C 0.56095 0.96438 0.36148 0.0
C3001 C 0.57655 0.96005 0.35415 0.0
C3002 C 0.59614 0.94088 0.31621 0.0
C3003 C 0.63998 0.92085 0.31364 0.0
C3004 C 0.62443 0.9291 0.32057 0.0
C3005 C 0.57731 0.94814 0.34086 0.0
C3006 C 0.59387 0.94254 0.33383 0.0
H3007 H 0.68251 0.91765 0.32115 0.0
H3008 H 0.65743 0.93251 0.33155 0.0
H3009 H 0.6126 0.93327 0.29599 0.0
H3010 H 0.53518 0.93892 0.33761 0.0
H3011 H 0.56235 0.93158 0.3247 0.0
C3012 C 0.35096 0.42119 0.53387 0.0
C3013 C 0.3455 0.43686 0.54044 0.0
C3014 C 0.34306 0.40607 0.53895 0.0
C3015 C 0.31641 0.38898 0.57408 0.0
H3016 H 0.31382 0.34933 0.54495 0.0
C3017 C 0.28538 0.32594 0.59583 0.0
C3018 C 0.29601 0.31173 0.59396 0.0
C3019 C 0.28947 0.34132 0.58786 0.0
C3020 C 0.31444 0.36034 0.55319 0.0
H3021 H 0.32689 0.44909 0.55665 0.0
H3022 H 0.31268 0.42291 0.56489 0.0
H3023 H 0.3243 0.37617 0.5334 0.0
H3024 H 0.3188 0.30225 0.58164 0.0
H3025 H 0.3257 0.32896 0.56755 0.0
H3026 H 0.30643 0.37309 0.59381 0.0
C3027 C 0.32345 0.42212 0.55636 0.0
C3028 C 0.32055 0.3757 0.54663 0.0
C3029 C 0.33152 0.43717 0.55153 0.0
C3030 C 0.3104 0.313 0.58342 0.0
C3031 C 0.3143 0.32826 0.57524 0.0
C3032 C 0.31008 0.3737 0.58054 0.0
C3033 C 0.32937 0.40631 0.55049 0.0
C3034 C 0.32183 0.39019 0.55705 0.0
C3035 C 0.30406 0.34264 0.57762 0.0
C3036 C 0.30925 0.35918 0.57024 0.0
H3037 H 0.36179 0.42055 0.52541 0.0
H3038 H 0.34815 0.39417 0.53431 0.0
H3039 H 0.31753 0.3997 0.58264 0.0
H3040 H 0.27426 0.32534 0.60392 0.0
H3041 H 0.28133 0.35224 0.58983 0.0
C3042 C 0.92944 0.03244 0.85299 0.0
C3043 C 0.94422 0.04144 0.84848 0.0
C3044 C 0.91385 0.03637 0.84542 0.0
C3045 C 0.89417 0.05628 0.80821 0.0
H3046 H 0.85737 0.06786 0.83884 0.0
C3047 C 0.83612 0.09484 0.78618 0.0
C3048 C 0.82036 0.09231 0.79419 0.0
C3049 C 0.85059 0.0863 0.79186 0.0
C3050 C 0.86733 0.06433 0.83003 0.0
H3051 H 0.95436 0.06112 0.83203 0.0
H3052 H 0.9272 0.06772 0.8186 0.0
H3053 H 0.88387 0.05674 0.85028 0.0
H3054 H 0.80726 0.07817 0.81391 0.0
H3055 H 0.83237 0.06276 0.8234 0.0
H3056 H 0.87771 0.06371 0.78792 0.0
C3057 C 0.92768 0.05771 0.82806 0.0
C3058 C 0.88254 0.05801 0.83663 0.0
C3059 C 0.9432 0.054 0.83581 0.0
C3060 C 0.81926 0.08052 0.80756 0.0
C3061 C 0.8337 0.07177 0.81308 0.0
C3062 C 0.87886 0.06235 0.80156 0.0
C3063 C 0.91282 0.04914 0.83299 0.0
C3064 C 0.8962 0.05423 0.82581 0.0
C3065 C 0.84963 0.0748 0.80553 0.0
C3066 C 0.86534 0.06678 0.81241 0.0
H3067 H 0.9298 0.02275 0.86277 0.0
H3068 H 0.90257 0.02954 0.84939 0.0
H3069 H 0.90447 0.05328 0.79959 0.0
H3070 H 0.83745 0.10396 0.77595 0.0
H3071 H 0.86264 0.08924 0.78589 0.0
C3072 C 0.46017 0.15404 0.41895 0.0
C3073 C 0.44813 0.15135 0.43188 0.0
C3074 C 0.45541 0.16168 0.4036 0.0
C3075 C 0.43998 0.16767 0.36882 0.0
H3076 H 0.40451 0.20179 0.3674 0.0
C3077 C 0.40484 0.18387 0.30694 0.0
C3078 C 0.39943 0.20066 0.30403 0.0
C3079 C 0.41197 0.1792 0.32248 0.0
C3080 C 0.41461 0.19246 0.36753 0.0
H3081 H 0.42162 0.1547 0.43876 0.0
H3082 H 0.41329 0.16747 0.41198 0.0
H3083 H 0.41511 0.1919 0.3947 0.0
H3084 H 0.39759 0.22578 0.31522 0.0
H3085 H 0.41045 0.2177 0.34229 0.0
H3086 H 0.43979 0.16851 0.34167 0.0
C3087 C 0.42651 0.16412 0.41378 0.0
C3088 C 0.42053 0.18659 0.38323 0.0
C3089 C 0.43128 0.15666 0.42915 0.0
C3090 C 0.40156 0.21273 0.31703 0.0
C3091 C 0.40885 0.20807 0.3326 0.0
C3092 C 0.43418 0.17365 0.35314 0.0
C3093 C 0.43847 0.16667 0.40075 0.0
C3094 C 0.4331 0.1739 0.38408 0.0
C3095 C 0.41406 0.19121 0.33555 0.0
C3096 C 0.4212 0.18591 0.35227 0.0
H3097 H 0.47328 0.15022 0.42065 0.0
H3098 H 0.46505 0.16367 0.39398 0.0
H3099 H 0.44955 0.15778 0.36891 0.0
H3100 H 0.4033 0.17416 0.2973 0.0
H3101 H 0.41547 0.16603 0.32436 0.0
C3102 C 0.03985 0.16522 0.57064 0.0
C3103 C 0.05219 0.15764 0.56017 0.0
C3104 C 0.04468 0.17466 0.58489 0.0
C3105 C 0.05798 0.18096 0.62038 0.0
H3106 H 0.09949 0.20744 0.6228 0.0
C3107 C 0.09387 0.1915 0.68288 0.0
C3108 C 0.10223 0.20705 0.68571 0.0
C3109 C 0.08603 0.18816 0.66733 0.0
C3110 C 0.08772 0.20032 0.62232 0.0
H3111 H 0.07934 0.15485 0.55604 0.0
H3112 H 0.08769 0.17094 0.581 0.0
H3113 H 0.08902 0.19786 0.59525 0.0
H3114 H 0.10843 0.23149 0.67449 0.0
H3115 H 0.09455 0.22568 0.64736 0.0
H3116 H 0.05668 0.18338 0.64742 0.0
C3117 C 0.07428 0.16981 0.57811 0.0
C3118 C 0.08182 0.19465 0.60654 0.0
C3119 C 0.06947 0.16046 0.56381 0.0
C3120 C 0.10214 0.21937 0.67275 0.0
C3121 C 0.09428 0.21601 0.65716 0.0
C3122 C 0.06384 0.18667 0.63612 0.0
C3123 C 0.06194 0.17667 0.58905 0.0
C3124 C 0.06709 0.18458 0.60543 0.0
C3125 C 0.08629 0.20029 0.65422 0.0
C3126 C 0.07899 0.19606 0.63733 0.0
H3127 H 0.02643 0.16347 0.56813 0.0
H3128 H 0.03486 0.18005 0.59288 0.0
H3129 H 0.04669 0.17309 0.62005 0.0
H3130 H 0.09365 0.18169 0.69254 0.0
H3131 H 0.08023 0.17582 0.66543 0.0
C3132 C 0.05839 0.83658 0.93443 0.0
C3133 C 0.04608 0.84948 0.93334 0.0
C3134 C 0.06366 0.82786 0.9199 0.0
C3135 C 0.05231 0.81956 0.87466 0.0
H3136 H 0.10041 0.80973 0.87052 0.0
C3137 C 0.08548 0.80439 0.81096 0.0
C3138 C 0.09784 0.79149 0.81082 0.0
C3139 C 0.078 0.80957 0.8262 0.0
C3140 C 0.08691 0.81217 0.87159 0.0
H3141 H 0.02952 0.86316 0.91607 0.0
H3142 H 0.03902 0.84828 0.89068 0.0
H3143 H 0.08964 0.82256 0.89652 0.0
H3144 H 0.1117 0.77361 0.82659 0.0
H3145 H 0.09867 0.78279 0.85325 0.0
H3146 H 0.04979 0.80966 0.84941 0.0
C3147 C 0.04435 0.84461 0.90282 0.0
C3148 C 0.0807 0.8195 0.88651 0.0
C3149 C 0.03894 0.85323 0.9174 0.0
C3150 C 0.10219 0.78355 0.82624 0.0
C3151 C 0.09483 0.78888 0.84152 0.0
C3152 C 0.05856 0.81236 0.85967 0.0
C3153 C 0.0569 0.83193 0.90386 0.0
C3154 C 0.06333 0.82341 0.88822 0.0
C3155 C 0.08281 0.80208 0.84167 0.0
C3156 C 0.07594 0.80869 0.85794 0.0
H3157 H 0.06404 0.83325 0.94653 0.0
H3158 H 0.0731 0.81795 0.92125 0.0
H3159 H 0.03882 0.8221 0.87562 0.0
H3160 H 0.0818 0.81075 0.79932 0.0
H3161 H 0.06889 0.81987 0.82593 0.0
C3162 C 0.43961 0.83709 0.06094 0.0
C3163 C 0.45565 0.84469 0.05879 0.0
C3164 C 0.43544 0.82882 0.07606 0.0
C3165 C 0.44686 0.82834 0.12137 0.0
H3166 H 0.41556 0.79025 0.12227 0.0
C3167 C 0.4074 0.78339 0.17255 0.0
C3168 C 0.40183 0.79629 0.1836 0.0
C3169 C 0.41647 0.78746 0.15778 0.0
C3170 C 0.42452 0.8007 0.12231 0.0
H3171 H 0.48017 0.84887 0.07072 0.0
H3172 H 0.47295 0.83416 0.09708 0.0
H3173 H 0.42736 0.79973 0.09528 0.0
H3174 H 0.40174 0.82359 0.18783 0.0
H3175 H 0.41709 0.83058 0.16209 0.0
H3176 H 0.4441 0.82926 0.14839 0.0
C3177 C 0.46349 0.83489 0.08711 0.0
C3178 C 0.43113 0.80629 0.10679 0.0
C3179 C 0.46767 0.84324 0.07195 0.0
C3180 C 0.40581 0.81327 0.17967 0.0
C3181 C 0.41478 0.81732 0.16493 0.0
C3182 C 0.44034 0.82269 0.13689 0.0
C3183 C 0.44722 0.82783 0.08945 0.0
C3184 C 0.44203 0.82045 0.10608 0.0
C3185 C 0.42014 0.80449 0.15372 0.0
C3186 C 0.42874 0.80909 0.13751 0.0
H3187 H 0.42999 0.8379 0.05111 0.0
H3188 H 0.4227 0.82379 0.07747 0.0
H3189 H 0.45513 0.83935 0.12133 0.0
H3190 H 0.40465 0.77018 0.17521 0.0
H3191 H 0.42057 0.77724 0.14951 0.0
C3192 C 0.41476 0.45445 0.15103 0.0
C3193 C 0.43036 0.44636 0.15415 0.0
C3194 C 0.39991 0.44878 0.15902 0.0
C3195 C 0.38222 0.41089 0.18117 0.0
H3196 H 0.34589 0.44202 0.19285 0.0
C3197 C 0.32125 0.38919 0.21613 0.0
C3198 C 0.30609 0.39395 0.20799 0.0
C3199 C 0.33675 0.39645 0.21124 0.0
C3200 C 0.35595 0.4332 0.18964 0.0
H3201 H 0.44272 0.42642 0.16861 0.0
H3202 H 0.41705 0.41697 0.18297 0.0
H3203 H 0.37246 0.45313 0.18129 0.0
H3204 H 0.29519 0.41056 0.18885 0.0
H3205 H 0.32217 0.4234 0.18059 0.0
H3206 H 0.36568 0.39101 0.18971 0.0
C3207 C 0.41609 0.42732 0.17395 0.0
C3208 C 0.37115 0.43953 0.18292 0.0
C3209 C 0.43087 0.43282 0.16579 0.0
C3210 C 0.30666 0.40657 0.19534 0.0
C3211 C 0.32209 0.414 0.19066 0.0
C3212 C 0.36712 0.40461 0.1881 0.0
C3213 C 0.40035 0.43504 0.17049 0.0
C3214 C 0.38443 0.42845 0.17841 0.0
C3215 C 0.33732 0.40881 0.19834 0.0
C3216 C 0.35377 0.41567 0.19223 0.0
H3217 H 0.41393 0.46484 0.14204 0.0
H3218 H 0.38802 0.4549 0.15581 0.0
H3219 H 0.39197 0.4019 0.17755 0.0
H3220 H 0.32123 0.37945 0.22586 0.0
H3221 H 0.34832 0.39229 0.21742 0.0
C3222 C 0.83864 0.93831 0.05115 0.0
C3223 C 0.84738 0.94063 0.03571 0.0
C3224 C 0.83194 0.92247 0.0555 0.0
C3225 C 0.81165 0.88998 0.05829 0.0
H3226 H 0.83935 0.84998 0.05076 0.0
C3227 C 0.78854 0.82288 0.07725 0.0
C3228 C 0.80055 0.81235 0.08527 0.0
C3229 C 0.7936 0.83805 0.06947 0.0
C3230 C 0.83148 0.86103 0.053 0.0
H3231 H 0.8556 0.92804 0.0126 0.0
H3232 H 0.84371 0.90035 0.02016 0.0
H3233 H 0.84915 0.87755 0.04051 0.0
H3234 H 0.82739 0.80952 0.09112 0.0
H3235 H 0.83606 0.83601 0.07785 0.0
H3236 H 0.79431 0.87363 0.07137 0.0
C3237 C 0.84224 0.91083 0.02896 0.0
C3238 C 0.837 0.87681 0.04693 0.0
C3239 C 0.84896 0.92673 0.02458 0.0
C3240 C 0.81775 0.81727 0.08508 0.0
C3241 C 0.82278 0.83243 0.07734 0.0
C3242 C 0.80614 0.87423 0.06437 0.0
C3243 C 0.83375 0.9085 0.04453 0.0
C3244 C 0.82726 0.89151 0.04972 0.0
C3245 C 0.81076 0.84307 0.06951 0.0
C3246 C 0.81609 0.85959 0.062 0.0
H3247 H 0.83716 0.94867 0.06008 0.0
H3248 H 0.82572 0.9211 0.0677 0.0
H3249 H 0.80373 0.90102 0.06046 0.0
H3250 H 0.77521 0.81947 0.07706 0.0
H3251 H 0.78404 0.84585 0.06337 0.0
C3252 C 0.1723 0.59197 0.717 0.0
C3253 C 0.1852 0.59371 0.70474 0.0
C3254 C 0.1566 0.58476 0.71265 0.0
C3255 C 0.13573 0.55844 0.67934 0.0
H3256 H 0.09437 0.57999 0.69509 0.0
C3257 C 0.06178 0.56446 0.65709 0.0
C3258 C 0.0587 0.54764 0.65185 0.0
C3259 C 0.07648 0.56859 0.66614 0.0
C3260 C 0.1058 0.57384 0.69054 0.0
H3261 H 0.19164 0.58902 0.67828 0.0
H3262 H 0.16443 0.57685 0.67074 0.0
H3263 H 0.12178 0.58998 0.70554 0.0
H3264 H 0.0683 0.52182 0.65288 0.0
H3265 H 0.09374 0.52897 0.66902 0.0
H3266 H 0.11993 0.54294 0.66363 0.0
C3267 C 0.16646 0.58074 0.68379 0.0
C3268 C 0.12152 0.57943 0.69671 0.0
C3269 C 0.18208 0.58788 0.68812 0.0
C3270 C 0.07033 0.53494 0.65655 0.0
C3271 C 0.08498 0.53906 0.66574 0.0
C3272 C 0.12006 0.55292 0.6731 0.0
C3273 C 0.15349 0.57911 0.69596 0.0
C3274 C 0.13669 0.57202 0.69091 0.0
C3275 C 0.08843 0.556 0.67033 0.0
C3276 C 0.1049 0.56075 0.67838 0.0
H3277 H 0.17426 0.59631 0.72992 0.0
H3278 H 0.14692 0.58356 0.72236 0.0
H3279 H 0.14715 0.55224 0.67481 0.0
H3280 H 0.05313 0.57461 0.65369 0.0
H3281 H 0.07877 0.58181 0.66924 0.0
C3282 C 0.66657 0.92767 0.92566 0.0
C3283 C 0.65638 0.92774 0.94033 0.0
C3284 C 0.67427 0.91268 0.92008 0.0
C3285 C 0.68505 0.86865 0.93405 0.0
H3286 H 0.68744 0.86014 0.88555 0.0
C3287 C 0.69443 0.80225 0.90446 0.0
C3288 C 0.7062 0.80075 0.89109 0.0
C3289 C 0.69032 0.81816 0.9111 0.0
C3290 C 0.68705 0.86245 0.89912 0.0
H3291 H 0.64623 0.91208 0.96062 0.0
H3292 H 0.65912 0.88586 0.95062 0.0
H3293 H 0.67609 0.88706 0.89581 0.0
H3294 H 0.72304 0.81477 0.87435 0.0
H3295 H 0.71556 0.84273 0.88583 0.0
H3296 H 0.69534 0.84365 0.93725 0.0
C3297 C 0.66163 0.89746 0.94365 0.0
C3298 C 0.68059 0.8779 0.90503 0.0
C3299 C 0.65413 0.9125 0.94936 0.0
C3300 C 0.71401 0.81551 0.88472 0.0
C3301 C 0.70966 0.8315 0.89119 0.0
C3302 C 0.69128 0.85312 0.92813 0.0
C3303 C 0.67178 0.89732 0.92891 0.0
C3304 C 0.67938 0.88117 0.92259 0.0
C3305 C 0.69768 0.83295 0.90436 0.0
C3306 C 0.69223 0.84984 0.91062 0.0
H3307 H 0.66868 0.93924 0.91849 0.0
H3308 H 0.68224 0.91318 0.90888 0.0
H3309 H 0.68467 0.87082 0.94764 0.0
H3310 H 0.68822 0.7911 0.90966 0.0
H3311 H 0.68095 0.81894 0.92116 0.0
C3312 C 0.77336 0.17141 0.39521 0.0
C3313 C 0.78582 0.18412 0.3971 0.0
C3314 C 0.77597 0.15512 0.40188 0.0
C3315 C 0.79078 0.11952 0.40662 0.0
H3316 H 0.81435 0.11346 0.44946 0.0
C3317 C 0.82754 0.05855 0.42402 0.0
C3318 C 0.82866 0.0537 0.44119 0.0
C3319 C 0.81901 0.07341 0.41936 0.0
C3320 C 0.8075 0.11483 0.4376 0.0
H3321 H 0.81057 0.18971 0.408 0.0
H3322 H 0.81511 0.16146 0.41941 0.0
H3323 H 0.80545 0.14173 0.44083 0.0
H3324 H 0.82058 0.06009 0.46679 0.0
H3325 H 0.80546 0.08579 0.45861 0.0
H3326 H 0.7929 0.09257 0.40339 0.0
C3327 C 0.80325 0.16406 0.41293 0.0
C3328 C 0.80259 0.13111 0.43255 0.0
C3329 C 0.80068 0.18028 0.40626 0.0
C3330 C 0.82015 0.06352 0.45346 0.0
C3331 C 0.81156 0.07833 0.44879 0.0
C3332 C 0.79568 0.1032 0.41169 0.0
C3333 C 0.79104 0.15122 0.41066 0.0
C3334 C 0.7945 0.1337 0.41684 0.0
C3335 C 0.81131 0.08373 0.43175 0.0
C3336 C 0.80438 0.1007 0.42711 0.0
H3337 H 0.76177 0.1739 0.38822 0.0
H3338 H 0.76624 0.14554 0.40006 0.0
H3339 H 0.78467 0.12108 0.39438 0.0
H3340 H 0.83391 0.05131 0.4142 0.0
H3341 H 0.81922 0.07723 0.40614 0.0
C3342 C 0.68417 0.16869 0.57881 0.0
C3343 C 0.70144 0.17218 0.5819 0.0
C3344 C 0.67925 0.15359 0.57094 0.0
C3345 C 0.67205 0.1244 0.54708 0.0
H3346 H 0.69417 0.0828 0.56136 0.0
C3347 C 0.64992 0.05845 0.523 0.0
C3348 C 0.64835 0.04599 0.53573 0.0
C3349 C 0.6584 0.07375 0.52636 0.0
C3350 C 0.68785 0.0943 0.55723 0.0
H3351 H 0.72708 0.16259 0.57876 0.0
H3352 H 0.71847 0.13629 0.56475 0.0
H3353 H 0.70469 0.10999 0.57168 0.0
H3354 H 0.65503 0.0397 0.5618 0.0
H3355 H 0.66942 0.06624 0.56762 0.0
H3356 H 0.65463 0.10862 0.53339 0.0
C3357 C 0.70873 0.14516 0.5687 0.0
C3358 C 0.69402 0.10992 0.56299 0.0
C3359 C 0.71368 0.16027 0.57668 0.0
C3360 C 0.6559 0.04899 0.55167 0.0
C3361 C 0.66433 0.0642 0.55499 0.0
C3362 C 0.66582 0.10876 0.54139 0.0
C3363 C 0.69144 0.1416 0.56583 0.0
C3364 C 0.68598 0.12515 0.55827 0.0
C3365 C 0.66555 0.07686 0.54246 0.0
C3366 C 0.67343 0.09351 0.5467 0.0
H3367 H 0.67436 0.17751 0.58271 0.0
H3368 H 0.66581 0.15114 0.56925 0.0
H3369 H 0.66572 0.1359 0.54297 0.0
H3370 H 0.64428 0.05655 0.51059 0.0
H3371 H 0.65926 0.0832 0.51638 0.0
C3372 C 0.06272 0.46442 0.847 0.0
C3373 C 0.05012 0.45206 0.84986 0.0
C3374 C 0.07808 0.46001 0.83917 0.0
C3375 C 0.09882 0.42583 0.81381 0.0
H3376 H 0.14027 0.44413 0.83318 0.0
C3377 C 0.17465 0.4087 0.81711 0.0
C3378 C 0.17761 0.40394 0.80014 0.0
C3379 C 0.15923 0.41609 0.82187 0.0
C3380 C 0.12882 0.43883 0.82767 0.0
H3381 H 0.04372 0.42541 0.84631 0.0
H3382 H 0.07042 0.41777 0.83309 0.0
H3383 H 0.11288 0.45397 0.84364 0.0
H3384 H 0.16675 0.40363 0.77478 0.0
H3385 H 0.14 0.41681 0.78304 0.0
H3386 H 0.11472 0.41007 0.79845 0.0
C3387 C 0.06841 0.43092 0.83659 0.0
C3388 C 0.11309 0.44466 0.8335 0.0
C3389 C 0.05308 0.43532 0.84432 0.0
C3390 C 0.16488 0.40703 0.78799 0.0
C3391 C 0.14949 0.41452 0.79274 0.0
C3392 C 0.11453 0.41992 0.80805 0.0
C3393 C 0.08118 0.44316 0.83406 0.0
C3394 C 0.09789 0.43806 0.82682 0.0
C3395 C 0.14642 0.41902 0.80977 0.0
C3396 C 0.12973 0.42618 0.81507 0.0
H3397 H 0.06086 0.47744 0.85102 0.0
H3398 H 0.08756 0.4698 0.8372 0.0
H3399 H 0.08737 0.42063 0.8082 0.0
H3400 H 0.18411 0.40646 0.82685 0.0
H3401 H 0.15723 0.4191 0.83515 0.0
C3402 C 0.32536 0.58484 0.28326 0.0
C3403 C 0.31367 0.59023 0.29564 0.0
C3404 C 0.34022 0.57633 0.28799 0.0
C3405 C 0.36124 0.55442 0.32445 0.0
H3406 H 0.40253 0.56877 0.30172 0.0
C3407 C 0.43712 0.55903 0.339 0.0
C3408 C 0.44027 0.54307 0.3464 0.0
C3409 C 0.42165 0.56244 0.3311 0.0
C3410 C 0.39112 0.56464 0.30822 0.0
H3411 H 0.30831 0.59053 0.32272 0.0
H3412 H 0.3343 0.5762 0.33095 0.0
H3413 H 0.37524 0.57899 0.29156 0.0
H3414 H 0.42963 0.51801 0.35088 0.0
H3415 H 0.40258 0.52394 0.33682 0.0
H3416 H 0.37727 0.54086 0.34172 0.0
C3417 C 0.33188 0.57817 0.31755 0.0
C3418 C 0.37542 0.57032 0.30224 0.0
C3419 C 0.31699 0.58654 0.31281 0.0
C3420 C 0.42763 0.53045 0.34535 0.0
C3421 C 0.41209 0.53387 0.33738 0.0
C3422 C 0.37697 0.54883 0.3305 0.0
C3423 C 0.34379 0.57313 0.30522 0.0
C3424 C 0.3603 0.56556 0.31049 0.0
C3425 C 0.40889 0.54996 0.33027 0.0
C3426 C 0.39212 0.55418 0.32268 0.0
H3427 H 0.32315 0.58733 0.2699 0.0
H3428 H 0.34898 0.57239 0.27814 0.0
H3429 H 0.34982 0.55027 0.33093 0.0
H3430 H 0.4465 0.5691 0.33954 0.0
H3431 H 0.41954 0.57507 0.32605 0.0
C3432 C 0.9403 0.65948 0.94104 0.0
C3433 C 0.95172 0.64577 0.94032 0.0
C3434 C 0.93544 0.66798 0.92623 0.0
C3435 C 0.94624 0.67354 0.88038 0.0
H3436 H 0.89869 0.68599 0.87692 0.0
C3437 C 0.91244 0.68887 0.81683 0.0
C3438 C 0.90103 0.70263 0.81666 0.0
C3439 C 0.91989 0.6835 0.83204 0.0
C3440 C 0.91205 0.68279 0.87777 0.0
H3441 H 0.96726 0.6305 0.92345 0.0
H3442 H 0.95847 0.64503 0.89759 0.0
H3443 H 0.90937 0.67369 0.9032 0.0
H3444 H 0.88882 0.72174 0.83235 0.0
H3445 H 0.90176 0.71223 0.8589 0.0
H3446 H 0.94866 0.68217 0.85463 0.0
C3447 C 0.95353 0.64948 0.90964 0.0
C3448 C 0.91821 0.67578 0.89286 0.0
C3449 C 0.95854 0.64108 0.92448 0.0
C3450 C 0.89757 0.71113 0.832 0.0
C3451 C 0.90488 0.70562 0.84723 0.0
C3452 C 0.94001 0.68042 0.8652 0.0
C3453 C 0.94171 0.66288 0.91028 0.0
C3454 C 0.93538 0.67099 0.89437 0.0
C3455 C 0.91598 0.69164 0.84743 0.0
C3456 C 0.92284 0.68506 0.86373 0.0
H3457 H 0.93492 0.66353 0.95305 0.0
H3458 H 0.92662 0.67848 0.9273 0.0
H3459 H 0.95958 0.67027 0.88113 0.0
H3460 H 0.91543 0.68206 0.80525 0.0
H3461 H 0.92828 0.6726 0.83182 0.0
C3462 C 0.5575 0.66172 0.06397 0.0
C3463 C 0.54085 0.65587 0.06105 0.0
C3464 C 0.56169 0.67006 0.07901 0.0
C3465 C 0.56653 0.69384 0.10854 0.0
H3466 H 0.54992 0.67436 0.15062 0.0
C3467 C 0.5911 0.71711 0.17373 0.0
C3468 C 0.59507 0.70418 0.18541 0.0
C3469 C 0.58176 0.71344 0.15903 0.0
C3470 C 0.55469 0.67995 0.13898 0.0
H3471 H 0.51541 0.65469 0.07162 0.0
H3472 H 0.52274 0.6695 0.09797 0.0
H3473 H 0.53891 0.664 0.12361 0.0
H3474 H 0.59194 0.67727 0.19087 0.0
H3475 H 0.57617 0.67089 0.16525 0.0
H3476 H 0.58306 0.70905 0.12382 0.0
C3477 C 0.53258 0.66739 0.08859 0.0
C3478 C 0.5482 0.67416 0.12348 0.0
C3479 C 0.52837 0.65898 0.07346 0.0
C3480 C 0.58915 0.6876 0.18221 0.0
C3481 C 0.57992 0.68394 0.16753 0.0
C3482 C 0.5731 0.69955 0.12401 0.0
C3483 C 0.54934 0.67291 0.09159 0.0
C3484 C 0.55438 0.68072 0.10806 0.0
C3485 C 0.57622 0.69676 0.15566 0.0
C3486 C 0.56758 0.69236 0.13941 0.0
H3487 H 0.5675 0.65962 0.05474 0.0
H3488 H 0.57478 0.67381 0.08098 0.0
H3489 H 0.57135 0.69939 0.09689 0.0
H3490 H 0.59536 0.73003 0.17583 0.0
H3491 H 0.57897 0.72366 0.15024 0.0
C3492 C 0.59014 0.314 0.32426 0.0
C3493 C 0.59609 0.29737 0.32152 0.0
C3494 C 0.58291 0.3186 0.33979 0.0
C3495 C 0.56089 0.32361 0.37085 0.0
H3496 H 0.58201 0.30705 0.41216 0.0
C3497 C 0.53639 0.34388 0.43697 0.0
C3498 C 0.54891 0.34821 0.44898 0.0
C3499 C 0.54082 0.33556 0.42188 0.0
C3500 C 0.57599 0.31184 0.40075 0.0
H3501 H 0.59863 0.27241 0.33298 0.0
H3502 H 0.58572 0.28037 0.36 0.0
H3503 H 0.59219 0.29706 0.3847 0.0
H3504 H 0.57589 0.34667 0.45466 0.0
H3505 H 0.58356 0.33256 0.42836 0.0
H3506 H 0.54527 0.33902 0.38684 0.0
C3507 C 0.58695 0.28995 0.35019 0.0
C3508 C 0.58168 0.30593 0.38499 0.0
C3509 C 0.59427 0.28535 0.33464 0.0
C3510 C 0.56586 0.34353 0.44575 0.0
C3511 C 0.57028 0.33531 0.43066 0.0
C3512 C 0.55526 0.32958 0.3866 0.0
C3513 C 0.58132 0.30667 0.35301 0.0
C3514 C 0.57437 0.31193 0.36982 0.0
C3515 C 0.55787 0.33143 0.41841 0.0
C3516 C 0.56289 0.32395 0.40175 0.0
H3517 H 0.59137 0.32365 0.31451 0.0
H3518 H 0.579 0.33166 0.34157 0.0
H3519 H 0.55478 0.32831 0.35945 0.0
H3520 H 0.5232 0.34719 0.43904 0.0
H3521 H 0.53088 0.33252 0.41285 0.0
C3522 C 0.90244 0.31716 0.68775 0.0
C3523 C 0.89825 0.30026 0.69187 0.0
C3524 C 0.91083 0.321 0.67261 0.0
C3525 C 0.9351 0.32566 0.64318 0.0
H3526 H 0.91931 0.30291 0.60242 0.0
C3527 C 0.96186 0.34224 0.5767 0.0
C3528 C 0.94978 0.34382 0.5636 0.0
C3529 C 0.95731 0.33522 0.5924 0.0
C3530 C 0.92385 0.30941 0.61368 0.0
H3531 H 0.90018 0.27408 0.68342 0.0
H3532 H 0.91504 0.28082 0.657 0.0
H3533 H 0.90843 0.2941 0.63003 0.0
H3534 H 0.92347 0.33894 0.55679 0.0
H3535 H 0.91555 0.32704 0.58411 0.0
H3536 H 0.94991 0.3415 0.62676 0.0
C3537 C 0.91157 0.29111 0.66545 0.0
C3538 C 0.91777 0.30421 0.62954 0.0
C3539 C 0.90313 0.28724 0.68064 0.0
C3540 C 0.93315 0.33793 0.56652 0.0
C3541 C 0.92861 0.33096 0.5822 0.0
C3542 C 0.94115 0.33089 0.62731 0.0
C3543 C 0.91533 0.30807 0.66116 0.0
C3544 C 0.92309 0.31246 0.64447 0.0
C3545 C 0.94059 0.32962 0.59539 0.0
C3546 C 0.93536 0.32303 0.61234 0.0
H3547 H 0.89894 0.32755 0.69607 0.0
H3548 H 0.91329 0.33422 0.66964 0.0
H3549 H 0.93965 0.33214 0.65444 0.0
H3550 H 0.9748 0.34658 0.5749 0.0
H3551 H 0.9669 0.3342 0.60222 0.0
loop_
_geom_bond_atom_site_label_1
_geom_bond_atom_site_label_2
_geom_bond_distance
_geom_bond_site_symmetry_2
_ccdc_geom_bond_type
Co0 O1 2.216 . S
Co0 O2 2.091 . S
Co0 O4 2.004 . S
Co0 O10 2.021 . S
Co0 O12 2.137 . S
Co0 O13 2.244 . S
O1 Co0 2.216 . S
O1 C8 1.247 . S
O2 Co0 2.091 . S
O2 C8 1.261 . S
C3 O12 1.247 . S
C3 O13 1.272 . S
O4 Co0 2.004 . S
O4 C9 1.259 . S
Co5 O6 2.061 . S
Co5 O11 2.052 . S
Co5 O13 2.135 . S
O6 Co5 2.061 . S
O6 C9 1.235 . S
C7 O10 1.238 . S
C7 O11 1.241 . S
C8 O1 1.247 . S
C8 O2 1.261 . S
C9 O4 1.259 . S
C9 O6 1.235 . S
O10 Co0 2.021 . S
O10 C7 1.238 . S
O11 Co5 2.052 . S
O11 C7 1.241 . S
O12 Co0 2.137 . S
O12 C3 1.247 . S
O13 Co0 2.244 . S
O13 C3 1.272 . S
O13 Co5 2.135 . S
Co14 O15 2.216 . S
Co14 O16 2.091 1_655 S
Co14 O18 2.004 . S
Co14 O24 2.021 . S
Co14 O26 2.137 1_655 S
Co14 O27 2.244 . S
O15 Co14 2.216 . S
O15 C22 1.247 1_655 S
O16 Co14 2.091 1_455 S
O16 C22 1.261 . S
C17 O26 1.247 1_655 S
C17 O27 1.272 . S
O18 Co14 2.004 . S
O18 C23 1.259 . S
Co19 O20 2.061 . S
Co19 O25 2.052 . S
Co19 O27 2.135 . S
O20 Co19 2.061 . S
O20 C23 1.235 . S
C21 O24 1.238 . S
C21 O25 1.241 . S
C22 O15 1.247 1_455 S
C22 O16 1.261 . S
C23 O18 1.259 . S
C23 O20 1.235 . S
O24 Co14 2.021 . S
O24 C21 1.238 . S
O25 Co19 2.052 . S
O25 C21 1.241 . S
O26 Co14 2.137 1_455 S
O26 C17 1.247 1_455 S
O27 Co14 2.244 . S
O27 C17 1.272 . S
O27 Co19 2.135 . S
Co28 O29 2.216 . S
Co28 O30 2.091 . S
Co28 O32 2.004 . S
Co28 O38 2.021 . S
Co28 O40 2.137 . S
Co28 O41 2.244 . S
O29 Co28 2.216 . S
O29 C36 1.247 . S
O30 Co28 2.091 . S
O30 C36 1.261 . S
C31 O40 1.247 . S
C31 O41 1.272 . S
O32 Co28 2.004 . S
O32 C37 1.259 . S
Co33 O34 2.061 . S
Co33 O39 2.052 . S
Co33 O41 2.135 . S
O34 Co33 2.061 . S
O34 C37 1.235 . S
C35 O38 1.238 . S
C35 O39 1.241 . S
C36 O29 1.247 . S
C36 O30 1.261 . S
C37 O32 1.259 . S
C37 O34 1.235 . S
O38 Co28 2.021 . S
O38 C35 1.238 . S
O39 Co33 2.052 . S
O39 C35 1.241 . S
O40 Co28 2.137 . S
O40 C31 1.247 . S
O41 Co28 2.244 . S
O41 C31 1.272 . S
O41 Co33 2.135 . S
Co42 O43 2.216 . S
Co42 O44 2.091 . S
Co42 O46 2.004 . S
Co42 O52 2.021 . S
Co42 O54 2.137 . S
Co42 O55 2.244 . S
O43 Co42 2.216 . S
O43 C50 1.247 . S
O44 Co42 2.091 . S
O44 C50 1.261 . S
C45 O54 1.247 . S
C45 O55 1.272 . S
O46 Co42 2.004 . S
O46 C51 1.259 . S
Co47 O48 2.061 . S
Co47 O53 2.052 . S
Co47 O55 2.135 . S
O48 Co47 2.061 . S
O48 C51 1.235 . S
C49 O52 1.238 . S
C49 O53 1.241 . S
C50 O43 1.247 . S
C50 O44 1.261 . S
C51 O46 1.259 . S
C51 O48 1.235 . S
O52 Co42 2.021 . S
O52 C49 1.238 . S
O53 Co47 2.052 . S
O53 C49 1.241 . S
O54 Co42 2.137 . S
O54 C45 1.247 . S
O55 Co42 2.244 . S
O55 C45 1.272 . S
O55 Co47 2.135 . S
Co56 O57 2.216 . S
Co56 O58 2.091 . S
Co56 O60 2.004 . S
Co56 O66 2.021 . S
Co56 O68 2.137 . S
Co56 O69 2.244 . S
O57 Co56 2.216 . S
O57 C64 1.247 . S
O58 Co56 2.091 . S
O58 C64 1.261 . S
C59 O68 1.247 . S
C59 O69 1.272 . S
O60 Co56 2.004 . S
O60 C65 1.259 . S
Co61 O62 2.061 . S
Co61 O67 2.052 . S
Co61 O69 2.135 . S
O62 Co61 2.061 . S
O62 C65 1.235 . S
C63 O66 1.238 . S
C63 O67 1.241 . S
C64 O57 1.247 . S
C64 O58 1.261 . S
C65 O60 1.259 . S
C65 O62 1.235 . S
O66 Co56 2.021 . S
O66 C63 1.238 . S
O67 Co61 2.052 . S
O67 C63 1.241 . S
O68 Co56 2.137 . S
O68 C59 1.247 . S
O69 Co56 2.244 . S
O69 C59 1.272 . S
O69 Co61 2.135 . S
Co70 O71 2.216 . S
Co70 O72 2.091 . S
Co70 O74 2.004 . S
Co70 O80 2.021 . S
Co70 O82 2.137 . S
Co70 O83 2.244 . S
O71 Co70 2.216 . S
O71 C78 1.247 . S
O72 Co70 2.091 . S
O72 C78 1.261 . S
C73 O82 1.247 . S
C73 O83 1.272 . S
O74 Co70 2.004 . S
O74 C79 1.259 . S
Co75 O76 2.061 . S
Co75 O81 2.052 . S
Co75 O83 2.135 . S
O76 Co75 2.061 . S
O76 C79 1.235 . S
C77 O80 1.238 . S
C77 O81 1.241 . S
C78 O71 1.247 . S
C78 O72 1.261 . S
C79 O74 1.259 . S
C79 O76 1.235 . S
O80 Co70 2.021 . S
O80 C77 1.238 . S
O81 Co75 2.052 . S
O81 C77 1.241 . S
O82 Co70 2.137 . S
O82 C73 1.247 . S
O83 Co70 2.244 . S
O83 C73 1.272 . S
O83 Co75 2.135 . S
Co84 O85 2.216 . S
Co84 O86 2.091 . S
Co84 O88 2.004 . S
Co84 O94 2.021 . S
Co84 O96 2.137 . S
Co84 O97 2.244 . S
O85 Co84 2.216 . S
O85 C92 1.247 . S
O86 Co84 2.091 . S
O86 C92 1.261 . S
C87 O96 1.247 . S
C87 O97 1.272 . S
O88 Co84 2.004 . S
O88 C93 1.259 . S
Co89 O90 2.061 . S
Co89 O95 2.052 . S
Co89 O97 2.135 . S
O90 Co89 2.061 . S
O90 C93 1.235 . S
C91 O94 1.238 . S
C91 O95 1.241 . S
C92 O85 1.247 . S
C92 O86 1.261 . S
C93 O88 1.259 . S
C93 O90 1.235 . S
O94 Co84 2.021 . S
O94 C91 1.238 . S
O95 Co89 2.052 . S
O95 C91 1.241 . S
O96 Co84 2.137 . S
O96 C87 1.247 . S
O97 Co84 2.244 . S
O97 C87 1.272 . S
O97 Co89 2.135 . S
Co98 O99 2.216 . S
Co98 O100 2.091 1_655 S
Co98 O102 2.004 . S
Co98 O108 2.021 . S
Co98 O110 2.137 1_655 S
Co98 O111 2.244 . S
O99 Co98 2.216 . S
O99 C106 1.247 1_655 S
O100 Co98 2.091 1_455 S
O100 C106 1.261 . S
C101 O110 1.247 1_655 S
C101 O111 1.272 . S
O102 Co98 2.004 . S
O102 C107 1.259 . S
Co103 O104 2.061 . S
Co103 O109 2.052 . S
Co103 O111 2.135 . S
O104 Co103 2.061 . S
O104 C107 1.235 . S
C105 O108 1.238 . S
C105 O109 1.241 . S
C106 O99 1.247 1_455 S
C106 O100 1.261 . S
C107 O102 1.259 . S
C107 O104 1.235 . S
O108 Co98 2.021 . S
O108 C105 1.238 . S
O109 Co103 2.052 . S
O109 C105 1.241 . S
O110 Co98 2.137 1_455 S
O110 C101 1.247 1_455 S
O111 Co98 2.244 . S
O111 C101 1.272 . S
O111 Co103 2.135 . S
Co112 O113 2.216 . S
Co112 O114 2.091 . S
Co112 O116 2.004 . S
Co112 O122 2.021 . S
Co112 O124 2.137 . S
Co112 O125 2.244 . S
O113 Co112 2.216 . S
O113 C120 1.247 . S
O114 Co112 2.091 . S
O114 C120 1.261 . S
C115 O124 1.247 . S
C115 O125 1.272 . S
O116 Co112 2.004 . S
O116 C121 1.259 . S
Co117 O118 2.061 . S
Co117 O123 2.052 . S
Co117 O125 2.135 . S
O118 Co117 2.061 . S
O118 C121 1.235 . S
C119 O122 1.238 . S
C119 O123 1.241 . S
C120 O113 1.247 . S
C120 O114 1.261 . S
C121 O116 1.259 . S
C121 O118 1.235 . S
O122 Co112 2.021 . S
O122 C119 1.238 . S
O123 Co117 2.052 . S
O123 C119 1.241 . S
O124 Co112 2.137 . S
O124 C115 1.247 . S
O125 Co112 2.244 . S
O125 C115 1.272 . S
O125 Co117 2.135 . S
Co126 O127 2.216 . S
Co126 O128 2.091 . S
Co126 O130 2.004 . S
Co126 O136 2.021 . S
Co126 O138 2.137 . S
Co126 O139 2.244 . S
O127 Co126 2.216 . S
O127 C134 1.247 . S
O128 Co126 2.091 . S
O128 C134 1.261 . S
C129 O138 1.247 . S
C129 O139 1.272 . S
O130 Co126 2.004 . S
O130 C135 1.259 . S
Co131 O132 2.061 . S
Co131 O137 2.052 . S
Co131 O139 2.135 . S
O132 Co131 2.061 . S
O132 C135 1.235 . S
C133 O136 1.238 . S
C133 O137 1.241 . S
C134 O127 1.247 . S
C134 O128 1.261 . S
C135 O130 1.259 . S
C135 O132 1.235 . S
O136 Co126 2.021 . S
O136 C133 1.238 . S
O137 Co131 2.052 . S
O137 C133 1.241 . S
O138 Co126 2.137 . S
O138 C129 1.247 . S
O139 Co126 2.244 . S
O139 C129 1.272 . S
O139 Co131 2.135 . S
Co140 O141 2.216 . S
Co140 O142 2.091 . S
Co140 O144 2.004 . S
Co140 O150 2.021 . S
Co140 O152 2.137 . S
Co140 O153 2.244 . S
O141 Co140 2.216 . S
O141 C148 1.247 . S
O142 Co140 2.091 . S
O142 C148 1.261 . S
C143 O152 1.247 . S
C143 O153 1.272 . S
O144 Co140 2.004 . S
O144 C149 1.259 . S
Co145 O146 2.061 . S
Co145 O151 2.052 . S
Co145 O153 2.135 . S
O146 Co145 2.061 . S
O146 C149 1.235 . S
C147 O150 1.238 . S
C147 O151 1.241 . S
C148 O141 1.247 . S
C148 O142 1.261 . S
C149 O144 1.259 . S
C149 O146 1.235 . S
O150 Co140 2.021 . S
O150 C147 1.238 . S
O151 Co145 2.052 . S
O151 C147 1.241 . S
O152 Co140 2.137 . S
O152 C143 1.247 . S
O153 Co140 2.244 . S
O153 C143 1.272 . S
O153 Co145 2.135 . S
Co154 O155 2.233 . S
Co154 O156 2.091 1_554 S
Co154 O158 2.004 . S
Co154 O164 2.021 . S
Co154 O166 2.137 1_554 S
Co154 O167 2.244 . S
O155 Co154 2.233 . S
O155 C162 1.231 1_554 S
O156 Co154 2.091 1_556 S
O156 C162 1.261 . S
C157 O166 1.247 1_554 S
C157 O167 1.272 . S
O158 Co154 2.004 . S
O158 C163 1.259 . S
Co159 O160 2.061 . S
Co159 O165 2.052 . S
Co159 O167 2.135 . S
O160 Co159 2.061 . S
O160 C163 1.235 . S
C161 O164 1.238 . S
C161 O165 1.241 . S
C162 O155 1.231 1_556 S
C162 O156 1.261 . S
C163 O158 1.259 . S
C163 O160 1.235 . S
O164 Co154 2.021 . S
O164 C161 1.238 . S
O165 Co159 2.052 . S
O165 C161 1.241 . S
O166 Co154 2.137 1_556 S
O166 C157 1.247 1_556 S
O167 Co154 2.244 . S
O167 C157 1.272 . S
O167 Co159 2.135 . S
Co168 O169 2.216 . S
Co168 O170 2.091 . S
Co168 O172 2.004 . S
Co168 O178 2.021 . S
Co168 O180 2.137 . S
Co168 O181 2.244 . S
O169 Co168 2.216 . S
O169 C176 1.247 . S
O170 Co168 2.091 . S
O170 C176 1.261 . S
C171 O180 1.247 . S
C171 O181 1.272 . S
O172 Co168 2.004 . S
O172 C177 1.259 . S
Co173 O174 2.061 . S
Co173 O179 2.052 . S
Co173 O181 2.135 . S
O174 Co173 2.061 . S
O174 C177 1.235 . S
C175 O178 1.238 . S
C175 O179 1.241 . S
C176 O169 1.247 . S
C176 O170 1.261 . S
C177 O172 1.259 . S
C177 O174 1.235 . S
O178 Co168 2.021 . S
O178 C175 1.238 . S
O179 Co173 2.052 . S
O179 C175 1.241 . S
O180 Co168 2.137 . S
O180 C171 1.247 . S
O181 Co168 2.244 . S
O181 C171 1.272 . S
O181 Co173 2.135 . S
Co182 O183 2.216 . S
Co182 O184 2.091 . S
Co182 O186 2.004 . S
Co182 O192 2.021 . S
Co182 O194 2.137 . S
Co182 O195 2.244 . S
O183 Co182 2.216 . S
O183 C190 1.247 . S
O184 Co182 2.091 . S
O184 C190 1.261 . S
C185 O194 1.247 . S
C185 O195 1.272 . S
O186 Co182 2.004 . S
O186 C191 1.259 . S
Co187 O188 2.061 . S
Co187 O193 2.052 . S
Co187 O195 2.135 . S
O188 Co187 2.061 . S
O188 C191 1.235 . S
C189 O192 1.238 . S
C189 O193 1.241 . S
C190 O183 1.247 . S
C190 O184 1.261 . S
C191 O186 1.259 . S
C191 O188 1.235 . S
O192 Co182 2.021 . S
O192 C189 1.238 . S
O193 Co187 2.052 . S
O193 C189 1.241 . S
O194 Co182 2.137 . S
O194 C185 1.247 . S
O195 Co182 2.244 . S
O195 C185 1.272 . S
O195 Co187 2.135 . S
Co196 O197 2.216 . S
Co196 O198 2.091 . S
Co196 O200 2.004 . S
Co196 O206 2.021 . S
Co196 O208 2.137 . S
Co196 O209 2.244 . S
O197 Co196 2.216 . S
O197 C204 1.247 . S
O198 Co196 2.091 . S
O198 C204 1.261 . S
C199 O208 1.247 . S
C199 O209 1.272 . S
O200 Co196 2.004 . S
O200 C205 1.259 . S
Co201 O202 2.061 . S
Co201 O207 2.052 . S
Co201 O209 2.135 . S
O202 Co201 2.061 . S
O202 C205 1.235 . S
C203 O206 1.238 . S
C203 O207 1.241 . S
C204 O197 1.247 . S
C204 O198 1.261 . S
C205 O200 1.259 . S
C205 O202 1.235 . S
O206 Co196 2.021 . S
O206 C203 1.238 . S
O207 Co201 2.052 . S
O207 C203 1.241 . S
O208 Co196 2.137 . S
O208 C199 1.247 . S
O209 Co196 2.244 . S
O209 C199 1.272 . S
O209 Co201 2.135 . S
Co210 O211 2.216 . S
Co210 O212 2.091 1_556 S
Co210 O214 2.004 . S
Co210 O220 2.021 . S
Co210 O222 2.137 1_556 S
Co210 O223 2.244 . S
O211 Co210 2.216 . S
O211 C218 1.247 1_556 S
O212 Co210 2.091 1_554 S
O212 C218 1.261 . S
C213 O222 1.247 1_556 S
C213 O223 1.272 . S
O214 Co210 2.004 . S
O214 C219 1.259 . S
Co215 O216 2.061 . S
Co215 O221 2.052 . S
Co215 O223 2.135 . S
O216 Co215 2.061 . S
O216 C219 1.235 . S
C217 O220 1.238 . S
C217 O221 1.241 . S
C218 O211 1.247 1_554 S
C218 O212 1.261 . S
C219 O214 1.259 . S
C219 O216 1.235 . S
O220 Co210 2.021 . S
O220 C217 1.238 . S
O221 Co215 2.052 . S
O221 C217 1.241 . S
O222 Co210 2.137 1_554 S
O222 C213 1.247 1_554 S
O223 Co210 2.244 . S
O223 C213 1.272 . S
O223 Co215 2.135 . S
Co224 O225 2.216 . S
Co224 O226 2.091 . S
Co224 O228 2.004 . S
Co224 O234 2.021 . S
Co224 O236 2.137 . S
Co224 O237 2.244 . S
O225 Co224 2.216 . S
O225 C232 1.247 . S
O226 Co224 2.091 . S
O226 C232 1.261 . S
C227 O236 1.247 . S
C227 O237 1.272 . S
O228 Co224 2.004 . S
O228 C233 1.259 . S
Co229 O230 2.061 . S
Co229 O235 2.052 . S
Co229 O237 2.135 . S
O230 Co229 2.061 . S
O230 C233 1.235 . S
C231 O234 1.238 . S
C231 O235 1.241 . S
C232 O225 1.247 . S
C232 O226 1.261 . S
C233 O228 1.259 . S
C233 O230 1.235 . S
O234 Co224 2.021 . S
O234 C231 1.238 . S
O235 Co229 2.052 . S
O235 C231 1.241 . S
O236 Co224 2.137 . S
O236 C227 1.247 . S
O237 Co224 2.244 . S
O237 C227 1.272 . S
O237 Co229 2.135 . S
Co238 O239 2.216 . S
Co238 O240 2.091 . S
Co238 O242 2.004 . S
Co238 O248 2.021 . S
Co238 O250 2.137 . S
Co238 O251 2.244 . S
O239 Co238 2.216 . S
O239 C246 1.247 . S
O240 Co238 2.091 . S
O240 C246 1.261 . S
C241 O250 1.247 . S
C241 O251 1.272 . S
O242 Co238 2.004 . S
O242 C247 1.259 . S
Co243 O244 2.061 . S
Co243 O249 2.052 . S
Co243 O251 2.135 . S
O244 Co243 2.061 . S
O244 C247 1.235 . S
C245 O248 1.238 . S
C245 O249 1.241 . S
C246 O239 1.247 . S
C246 O240 1.261 . S
C247 O242 1.259 . S
C247 O244 1.235 . S
O248 Co238 2.021 . S
O248 C245 1.238 . S
O249 Co243 2.052 . S
O249 C245 1.241 . S
O250 Co238 2.137 . S
O250 C241 1.247 . S
O251 Co238 2.244 . S
O251 C241 1.272 . S
O251 Co243 2.135 . S
Co252 O253 2.216 . S
Co252 O254 2.091 . S
Co252 O256 2.004 . S
Co252 O262 2.021 . S
Co252 O264 2.137 . S
Co252 O265 2.244 . S
O253 Co252 2.216 . S
O253 C260 1.247 . S
O254 Co252 2.091 . S
O254 C260 1.261 . S
C255 O264 1.247 . S
C255 O265 1.272 . S
O256 Co252 2.004 . S
O256 C261 1.259 . S
Co257 O258 2.061 . S
Co257 O263 2.052 . S
Co257 O265 2.135 . S
O258 Co257 2.061 . S
O258 C261 1.235 . S
C259 O262 1.238 . S
C259 O263 1.241 . S
C260 O253 1.247 . S
C260 O254 1.261 . S
C261 O256 1.259 . S
C261 O258 1.235 . S
O262 Co252 2.021 . S
O262 C259 1.238 . S
O263 Co257 2.052 . S
O263 C259 1.241 . S
O264 Co252 2.137 . S
O264 C255 1.247 . S
O265 Co252 2.244 . S
O265 C255 1.272 . S
O265 Co257 2.135 . S
Co266 O267 2.216 . S
Co266 O268 2.091 . S
Co266 O270 2.004 . S
Co266 O276 2.021 . S
Co266 O278 2.137 . S
Co266 O279 2.244 . S
O267 Co266 2.216 . S
O267 C274 1.247 . S
O268 Co266 2.091 . S
O268 C274 1.261 . S
C269 O278 1.247 . S
C269 O279 1.272 . S
O270 Co266 2.004 . S
O270 C275 1.259 . S
Co271 O272 2.061 . S
Co271 O277 2.052 . S
Co271 O279 2.135 . S
O272 Co271 2.061 . S
O272 C275 1.235 . S
C273 O276 1.238 . S
C273 O277 1.241 . S
C274 O267 1.247 . S
C274 O268 1.261 . S
C275 O270 1.259 . S
C275 O272 1.235 . S
O276 Co266 2.021 . S
O276 C273 1.238 . S
O277 Co271 2.052 . S
O277 C273 1.241 . S
O278 Co266 2.137 . S
O278 C269 1.247 . S
O279 Co266 2.244 . S
O279 C269 1.272 . S
O279 Co271 2.135 . S
Co280 O281 2.216 . S
Co280 O282 2.091 1_565 S
Co280 O284 2.004 . S
Co280 O290 2.021 . S
Co280 O292 2.137 1_565 S
Co280 O293 2.244 . S
O281 Co280 2.216 . S
O281 C288 1.247 1_565 S
O282 Co280 2.091 1_545 S
O282 C288 1.261 . S
C283 O292 1.247 1_565 S
C283 O293 1.272 . S
O284 Co280 2.004 . S
O284 C289 1.259 . S
Co285 O286 2.061 . S
Co285 O291 2.052 . S
Co285 O293 2.135 . S
O286 Co285 2.061 . S
O286 C289 1.235 . S
C287 O290 1.238 . S
C287 O291 1.241 . S
C288 O281 1.247 1_545 S
C288 O282 1.261 . S
C289 O284 1.259 . S
C289 O286 1.235 . S
O290 Co280 2.021 . S
O290 C287 1.238 . S
O291 Co285 2.052 . S
O291 C287 1.241 . S
O292 Co280 2.137 1_545 S
O292 C283 1.247 1_545 S
O293 Co280 2.244 . S
O293 C283 1.272 . S
O293 Co285 2.135 . S
Co294 O295 2.216 . S
Co294 O296 2.091 . S
Co294 O298 2.004 . S
Co294 O304 2.021 . S
Co294 O306 2.137 . S
Co294 O307 2.244 . S
O295 Co294 2.216 . S
O295 C302 1.247 . S
O296 Co294 2.091 . S
O296 C302 1.261 . S
C297 O306 1.247 . S
C297 O307 1.272 . S
O298 Co294 2.004 . S
O298 C303 1.259 . S
Co299 O300 2.061 . S
Co299 O305 2.052 . S
Co299 O307 2.135 . S
O300 Co299 2.061 . S
O300 C303 1.235 . S
C301 O304 1.238 . S
C301 O305 1.241 . S
C302 O295 1.247 . S
C302 O296 1.261 . S
C303 O298 1.259 . S
C303 O300 1.235 . S
O304 Co294 2.021 . S
O304 C301 1.238 . S
O305 Co299 2.052 . S
O305 C301 1.241 . S
O306 Co294 2.137 . S
O306 C297 1.247 . S
O307 Co294 2.244 . S
O307 C297 1.272 . S
O307 Co299 2.135 . S
Co308 O309 2.216 . S
Co308 O310 2.091 . S
Co308 O312 2.004 . S
Co308 O318 2.021 . S
Co308 O320 2.137 . S
Co308 O321 2.244 . S
O309 Co308 2.216 . S
O309 C316 1.247 . S
O310 Co308 2.091 . S
O310 C316 1.261 . S
C311 O320 1.247 . S
C311 O321 1.272 . S
O312 Co308 2.004 . S
O312 C317 1.259 . S
Co313 O314 2.061 . S
Co313 O319 2.052 . S
Co313 O321 2.135 . S
O314 Co313 2.061 . S
O314 C317 1.235 . S
C315 O318 1.238 . S
C315 O319 1.241 . S
C316 O309 1.247 . S
C316 O310 1.261 . S
C317 O312 1.259 . S
C317 O314 1.235 . S
O318 Co308 2.021 . S
O318 C315 1.238 . S
O319 Co313 2.052 . S
O319 C315 1.241 . S
O320 Co308 2.137 . S
O320 C311 1.247 . S
O321 Co308 2.244 . S
O321 C311 1.272 . S
O321 Co313 2.135 . S
Co322 O323 2.216 . S
Co322 O324 2.091 . S
Co322 O326 2.004 . S
Co322 O332 2.021 . S
Co322 O334 2.137 . S
Co322 O335 2.244 . S
O323 Co322 2.216 . S
O323 C330 1.247 . S
O324 Co322 2.091 . S
O324 C330 1.261 . S
C325 O334 1.247 . S
C325 O335 1.272 . S
O326 Co322 2.004 . S
O326 C331 1.259 . S
Co327 O328 2.061 . S
Co327 O333 2.052 . S
Co327 O335 2.135 . S
O328 Co327 2.061 . S
O328 C331 1.235 . S
C329 O332 1.238 . S
C329 O333 1.241 . S
C330 O323 1.247 . S
C330 O324 1.261 . S
C331 O326 1.259 . S
C331 O328 1.235 . S
O332 Co322 2.021 . S
O332 C329 1.238 . S
O333 Co327 2.052 . S
O333 C329 1.241 . S
O334 Co322 2.137 . S
O334 C325 1.247 . S
O335 Co322 2.244 . S
O335 C325 1.272 . S
O335 Co327 2.135 . S
Co336 O337 2.216 . S
Co336 O338 2.091 . S
Co336 O340 2.004 . S
Co336 O346 2.021 . S
Co336 O348 2.137 . S
Co336 O349 2.244 . S
O337 Co336 2.216 . S
O337 C344 1.247 . S
O338 Co336 2.091 . S
O338 C344 1.261 . S
C339 O348 1.247 . S
C339 O349 1.272 . S
O340 Co336 2.004 . S
O340 C345 1.259 . S
Co341 O342 2.061 . S
Co341 O347 2.052 . S
Co341 O349 2.135 . S
O342 Co341 2.061 . S
O342 C345 1.235 . S
C343 O346 1.238 . S
C343 O347 1.241 . S
C344 O337 1.247 . S
C344 O338 1.261 . S
C345 O340 1.259 . S
C345 O342 1.235 . S
O346 Co336 2.021 . S
O346 C343 1.238 . S
O347 Co341 2.052 . S
O347 C343 1.241 . S
O348 Co336 2.137 . S
O348 C339 1.247 . S
O349 Co336 2.244 . S
O349 C339 1.272 . S
O349 Co341 2.135 . S
Co350 O351 2.216 . S
Co350 O352 2.091 . S
Co350 O354 2.004 . S
Co350 O360 2.021 . S
Co350 O362 2.137 . S
Co350 O363 2.244 . S
O351 Co350 2.216 . S
O351 C358 1.247 . S
O352 Co350 2.091 . S
O352 C358 1.261 . S
C353 O362 1.247 . S
C353 O363 1.272 . S
O354 Co350 2.004 . S
O354 C359 1.259 . S
Co355 O356 2.061 . S
Co355 O361 2.052 . S
Co355 O363 2.135 . S
O356 Co355 2.061 . S
O356 C359 1.235 . S
C357 O360 1.238 . S
C357 O361 1.241 . S
C358 O351 1.247 . S
C358 O352 1.261 . S
C359 O354 1.259 . S
C359 O356 1.235 . S
O360 Co350 2.021 . S
O360 C357 1.238 . S
O361 Co355 2.052 . S
O361 C357 1.241 . S
O362 Co350 2.137 . S
O362 C353 1.247 . S
O363 Co350 2.244 . S
O363 C353 1.272 . S
O363 Co355 2.135 . S
Co364 O365 2.216 . S
Co364 O366 2.091 . S
Co364 O368 2.004 . S
Co364 O374 2.021 . S
Co364 O376 2.137 . S
Co364 O377 2.244 . S
O365 Co364 2.216 . S
O365 C372 1.247 . S
O366 Co364 2.091 . S
O366 C372 1.261 . S
C367 O376 1.247 . S
C367 O377 1.272 . S
O368 Co364 2.004 . S
O368 C373 1.259 . S
Co369 O370 2.061 . S
Co369 O375 2.052 . S
Co369 O377 2.135 . S
O370 Co369 2.061 . S
O370 C373 1.235 . S
C371 O374 1.238 . S
C371 O375 1.241 . S
C372 O365 1.247 . S
C372 O366 1.261 . S
C373 O368 1.259 . S
C373 O370 1.235 . S
O374 Co364 2.021 . S
O374 C371 1.238 . S
O375 Co369 2.052 . S
O375 C371 1.241 . S
O376 Co364 2.137 . S
O376 C367 1.247 . S
O377 Co364 2.244 . S
O377 C367 1.272 . S
O377 Co369 2.135 . S
Co378 O379 2.233 . S
Co378 O380 2.091 1_455 S
Co378 O382 2.004 . S
Co378 O388 2.021 . S
Co378 O390 2.137 1_455 S
Co378 O391 2.244 . S
O379 Co378 2.233 . S
O379 C386 1.231 1_455 S
O380 Co378 2.091 1_655 S
O380 C386 1.261 . S
C381 O390 1.247 1_455 S
C381 O391 1.272 . S
O382 Co378 2.004 . S
O382 C387 1.259 . S
Co383 O384 2.061 . S
Co383 O389 2.052 . S
Co383 O391 2.135 . S
O384 Co383 2.061 . S
O384 C387 1.235 . S
C385 O388 1.238 . S
C385 O389 1.241 . S
C386 O379 1.231 1_655 S
C386 O380 1.261 . S
C387 O382 1.259 . S
C387 O384 1.235 . S
O388 Co378 2.021 . S
O388 C385 1.238 . S
O389 Co383 2.052 . S
O389 C385 1.241 . S
O390 Co378 2.137 1_655 S
O390 C381 1.247 1_655 S
O391 Co378 2.244 . S
O391 C381 1.272 . S
O391 Co383 2.135 . S
Co392 O393 2.216 . S
Co392 O394 2.091 . S
Co392 O396 2.004 . S
Co392 O402 2.021 . S
Co392 O404 2.137 . S
Co392 O405 2.244 . S
O393 Co392 2.216 . S
O393 C400 1.247 . S
O394 Co392 2.091 . S
O394 C400 1.261 . S
C395 O404 1.247 . S
C395 O405 1.272 . S
O396 Co392 2.004 . S
O396 C401 1.259 . S
Co397 O398 2.061 . S
Co397 O403 2.052 . S
Co397 O405 2.135 . S
O398 Co397 2.061 . S
O398 C401 1.235 . S
C399 O402 1.238 . S
C399 O403 1.241 . S
C400 O393 1.247 . S
C400 O394 1.261 . S
C401 O396 1.259 . S
C401 O398 1.235 . S
O402 Co392 2.021 . S
O402 C399 1.238 . S
O403 Co397 2.052 . S
O403 C399 1.241 . S
O404 Co392 2.137 . S
O404 C395 1.247 . S
O405 Co392 2.244 . S
O405 C395 1.272 . S
O405 Co397 2.135 . S
Co406 O407 2.233 . S
Co406 O408 2.091 1_455 S
Co406 O410 2.004 . S
Co406 O416 2.021 . S
Co406 O418 2.137 1_455 S
Co406 O419 2.244 . S
O407 Co406 2.233 . S
O407 C414 1.231 1_455 S
O408 Co406 2.091 1_655 S
O408 C414 1.261 . S
C409 O418 1.247 1_455 S
C409 O419 1.272 . S
O410 Co406 2.004 . S
O410 C415 1.259 . S
Co411 O412 2.061 . S
Co411 O417 2.052 . S
Co411 O419 2.135 . S
O412 Co411 2.061 . S
O412 C415 1.235 . S
C413 O416 1.238 . S
C413 O417 1.241 . S
C414 O407 1.231 1_655 S
C414 O408 1.261 . S
C415 O410 1.259 . S
C415 O412 1.235 . S
O416 Co406 2.021 . S
O416 C413 1.238 . S
O417 Co411 2.052 . S
O417 C413 1.241 . S
O418 Co406 2.137 1_655 S
O418 C409 1.247 1_655 S
O419 Co406 2.244 . S
O419 C409 1.272 . S
O419 Co411 2.135 . S
Co420 O421 2.216 . S
Co420 O422 2.091 . S
Co420 O424 2.004 . S
Co420 O430 2.021 . S
Co420 O432 2.137 . S
Co420 O433 2.244 . S
O421 Co420 2.216 . S
O421 C428 1.247 . S
O422 Co420 2.091 . S
O422 C428 1.261 . S
C423 O432 1.247 . S
C423 O433 1.272 . S
O424 Co420 2.004 . S
O424 C429 1.259 . S
Co425 O426 2.061 . S
Co425 O431 2.052 . S
Co425 O433 2.135 . S
O426 Co425 2.061 . S
O426 C429 1.235 . S
C427 O430 1.238 . S
C427 O431 1.241 . S
C428 O421 1.247 . S
C428 O422 1.261 . S
C429 O424 1.259 . S
C429 O426 1.235 . S
O430 Co420 2.021 . S
O430 C427 1.238 . S
O431 Co425 2.052 . S
O431 C427 1.241 . S
O432 Co420 2.137 . S
O432 C423 1.247 . S
O433 Co420 2.244 . S
O433 C423 1.272 . S
O433 Co425 2.135 . S
Co434 O435 2.216 . S
Co434 O436 2.091 . S
Co434 O438 2.004 . S
Co434 O444 2.021 . S
Co434 O446 2.137 . S
Co434 O447 2.244 . S
O435 Co434 2.216 . S
O435 C442 1.247 . S
O436 Co434 2.091 . S
O436 C442 1.261 . S
C437 O446 1.247 . S
C437 O447 1.272 . S
O438 Co434 2.004 . S
O438 C443 1.259 . S
Co439 O440 2.061 . S
Co439 O445 2.052 . S
Co439 O447 2.135 . S
O440 Co439 2.061 . S
O440 C443 1.235 . S
C441 O444 1.238 . S
C441 O445 1.241 . S
C442 O435 1.247 . S
C442 O436 1.261 . S
C443 O438 1.259 . S
C443 O440 1.235 . S
O444 Co434 2.021 . S
O444 C441 1.238 . S
O445 Co439 2.052 . S
O445 C441 1.241 . S
O446 Co434 2.137 . S
O446 C437 1.247 . S
O447 Co434 2.244 . S
O447 C437 1.272 . S
O447 Co439 2.135 . S
Co448 O449 2.216 . S
Co448 O450 2.091 . S
Co448 O452 2.004 . S
Co448 O458 2.021 . S
Co448 O460 2.137 . S
Co448 O461 2.244 . S
O449 Co448 2.216 . S
O449 C456 1.247 . S
O450 Co448 2.091 . S
O450 C456 1.261 . S
C451 O460 1.247 . S
C451 O461 1.272 . S
O452 Co448 2.004 . S
O452 C457 1.259 . S
Co453 O454 2.061 . S
Co453 O459 2.052 . S
Co453 O461 2.135 . S
O454 Co453 2.061 . S
O454 C457 1.235 . S
C455 O458 1.238 . S
C455 O459 1.241 . S
C456 O449 1.247 . S
C456 O450 1.261 . S
C457 O452 1.259 . S
C457 O454 1.235 . S
O458 Co448 2.021 . S
O458 C455 1.238 . S
O459 Co453 2.052 . S
O459 C455 1.241 . S
O460 Co448 2.137 . S
O460 C451 1.247 . S
O461 Co448 2.244 . S
O461 C451 1.272 . S
O461 Co453 2.135 . S
Co462 O463 2.233 . S
Co462 O464 2.091 1_554 S
Co462 O466 2.004 . S
Co462 O472 2.021 . S
Co462 O474 2.137 1_554 S
Co462 O475 2.244 . S
O463 Co462 2.233 . S
O463 C470 1.231 1_554 S
O464 Co462 2.091 1_556 S
O464 C470 1.261 . S
C465 O474 1.247 1_554 S
C465 O475 1.272 . S
O466 Co462 2.004 . S
O466 C471 1.259 . S
Co467 O468 2.061 . S
Co467 O473 2.052 . S
Co467 O475 2.135 . S
O468 Co467 2.061 . S
O468 C471 1.235 . S
C469 O472 1.238 . S
C469 O473 1.241 . S
C470 O463 1.231 1_556 S
C470 O464 1.261 . S
C471 O466 1.259 . S
C471 O468 1.235 . S
O472 Co462 2.021 . S
O472 C469 1.238 . S
O473 Co467 2.052 . S
O473 C469 1.241 . S
O474 Co462 2.137 1_556 S
O474 C465 1.247 1_556 S
O475 Co462 2.244 . S
O475 C465 1.272 . S
O475 Co467 2.135 . S
Co476 O477 2.216 . S
Co476 O478 2.091 . S
Co476 O480 2.004 . S
Co476 O486 2.021 . S
Co476 O488 2.137 . S
Co476 O489 2.244 . S
O477 Co476 2.216 . S
O477 C484 1.247 . S
O478 Co476 2.091 . S
O478 C484 1.261 . S
C479 O488 1.247 . S
C479 O489 1.272 . S
O480 Co476 2.004 . S
O480 C485 1.259 . S
Co481 O482 2.061 . S
Co481 O487 2.052 . S
Co481 O489 2.135 . S
O482 Co481 2.061 . S
O482 C485 1.235 . S
C483 O486 1.238 . S
C483 O487 1.241 . S
C484 O477 1.247 . S
C484 O478 1.261 . S
C485 O480 1.259 . S
C485 O482 1.235 . S
O486 Co476 2.021 . S
O486 C483 1.238 . S
O487 Co481 2.052 . S
O487 C483 1.241 . S
O488 Co476 2.137 . S
O488 C479 1.247 . S
O489 Co476 2.244 . S
O489 C479 1.272 . S
O489 Co481 2.135 . S
Co490 O491 2.216 . S
Co490 O492 2.091 . S
Co490 O494 2.004 . S
Co490 O500 2.021 . S
Co490 O502 2.137 . S
Co490 O503 2.244 . S
O491 Co490 2.216 . S
O491 C498 1.247 . S
O492 Co490 2.091 . S
O492 C498 1.261 . S
C493 O502 1.247 . S
C493 O503 1.272 . S
O494 Co490 2.004 . S
O494 C499 1.259 . S
Co495 O496 2.061 . S
Co495 O501 2.052 . S
Co495 O503 2.135 . S
O496 Co495 2.061 . S
O496 C499 1.235 . S
C497 O500 1.238 . S
C497 O501 1.241 . S
C498 O491 1.247 . S
C498 O492 1.261 . S
C499 O494 1.259 . S
C499 O496 1.235 . S
O500 Co490 2.021 . S
O500 C497 1.238 . S
O501 Co495 2.052 . S
O501 C497 1.241 . S
O502 Co490 2.137 . S
O502 C493 1.247 . S
O503 Co490 2.244 . S
O503 C493 1.272 . S
O503 Co495 2.135 . S
Co504 O505 2.216 . S
Co504 O506 2.091 . S
Co504 O508 2.004 . S
Co504 O514 2.021 . S
Co504 O516 2.137 . S
Co504 O517 2.244 . S
O505 Co504 2.216 . S
O505 C512 1.247 . S
O506 Co504 2.091 . S
O506 C512 1.261 . S
C507 O516 1.247 . S
C507 O517 1.272 . S
O508 Co504 2.004 . S
O508 C513 1.259 . S
Co509 O510 2.061 . S
Co509 O515 2.052 . S
Co509 O517 2.135 . S
O510 Co509 2.061 . S
O510 C513 1.235 . S
C511 O514 1.238 . S
C511 O515 1.241 . S
C512 O505 1.247 . S
C512 O506 1.261 . S
C513 O508 1.259 . S
C513 O510 1.235 . S
O514 Co504 2.021 . S
O514 C511 1.238 . S
O515 Co509 2.052 . S
O515 C511 1.241 . S
O516 Co504 2.137 . S
O516 C507 1.247 . S
O517 Co504 2.244 . S
O517 C507 1.272 . S
O517 Co509 2.135 . S
Co518 O519 2.216 . S
Co518 O520 2.091 1_556 S
Co518 O522 2.004 . S
Co518 O528 2.021 . S
Co518 O530 2.137 1_556 S
Co518 O531 2.244 . S
O519 Co518 2.216 . S
O519 C526 1.247 1_556 S
O520 Co518 2.091 1_554 S
O520 C526 1.261 . S
C521 O530 1.247 1_556 S
C521 O531 1.272 . S
O522 Co518 2.004 . S
O522 C527 1.259 . S
Co523 O524 2.061 . S
Co523 O529 2.052 . S
Co523 O531 2.135 . S
O524 Co523 2.061 . S
O524 C527 1.235 . S
C525 O528 1.238 . S
C525 O529 1.241 . S
C526 O519 1.247 1_554 S
C526 O520 1.261 . S
C527 O522 1.259 . S
C527 O524 1.235 . S
O528 Co518 2.021 . S
O528 C525 1.238 . S
O529 Co523 2.052 . S
O529 C525 1.241 . S
O530 Co518 2.137 1_554 S
O530 C521 1.247 1_554 S
O531 Co518 2.244 . S
O531 C521 1.272 . S
O531 Co523 2.135 . S
Co532 O533 2.216 . S
Co532 O534 2.091 . S
Co532 O536 2.004 . S
Co532 O542 2.021 . S
Co532 O544 2.137 . S
Co532 O545 2.244 . S
O533 Co532 2.216 . S
O533 C540 1.247 . S
O534 Co532 2.091 . S
O534 C540 1.261 . S
C535 O544 1.247 . S
C535 O545 1.272 . S
O536 Co532 2.004 . S
O536 C541 1.259 . S
Co537 O538 2.061 . S
Co537 O543 2.052 . S
Co537 O545 2.135 . S
O538 Co537 2.061 . S
O538 C541 1.235 . S
C539 O542 1.238 . S
C539 O543 1.241 . S
C540 O533 1.247 . S
C540 O534 1.261 . S
C541 O536 1.259 . S
C541 O538 1.235 . S
O542 Co532 2.021 . S
O542 C539 1.238 . S
O543 Co537 2.052 . S
O543 C539 1.241 . S
O544 Co532 2.137 . S
O544 C535 1.247 . S
O545 Co532 2.244 . S
O545 C535 1.272 . S
O545 Co537 2.135 . S
Co546 O547 2.216 . S
Co546 O548 2.091 . S
Co546 O550 2.004 . S
Co546 O556 2.021 . S
Co546 O558 2.137 . S
Co546 O559 2.244 . S
O547 Co546 2.216 . S
O547 C554 1.247 . S
O548 Co546 2.091 . S
O548 C554 1.261 . S
C549 O558 1.247 . S
C549 O559 1.272 . S
O550 Co546 2.004 . S
O550 C555 1.259 . S
Co551 O552 2.061 . S
Co551 O557 2.052 . S
Co551 O559 2.135 . S
O552 Co551 2.061 . S
O552 C555 1.235 . S
C553 O556 1.238 . S
C553 O557 1.241 . S
C554 O547 1.247 . S
C554 O548 1.261 . S
C555 O550 1.259 . S
C555 O552 1.235 . S
O556 Co546 2.021 . S
O556 C553 1.238 . S
O557 Co551 2.052 . S
O557 C553 1.241 . S
O558 Co546 2.137 . S
O558 C549 1.247 . S
O559 Co546 2.244 . S
O559 C549 1.272 . S
O559 Co551 2.135 . S
Co560 O561 2.216 . S
Co560 O562 2.091 . S
Co560 O564 2.004 . S
Co560 O570 2.021 . S
Co560 O572 2.137 . S
Co560 O573 2.244 . S
O561 Co560 2.216 . S
O561 C568 1.247 . S
O562 Co560 2.091 . S
O562 C568 1.261 . S
C563 O572 1.247 . S
C563 O573 1.272 . S
O564 Co560 2.004 . S
O564 C569 1.259 . S
Co565 O566 2.061 . S
Co565 O571 2.052 . S
Co565 O573 2.135 . S
O566 Co565 2.061 . S
O566 C569 1.235 . S
C567 O570 1.238 . S
C567 O571 1.241 . S
C568 O561 1.247 . S
C568 O562 1.261 . S
C569 O564 1.259 . S
C569 O566 1.235 . S
O570 Co560 2.021 . S
O570 C567 1.238 . S
O571 Co565 2.052 . S
O571 C567 1.241 . S
O572 Co560 2.137 . S
O572 C563 1.247 . S
O573 Co560 2.244 . S
O573 C563 1.272 . S
O573 Co565 2.135 . S
Co574 O575 2.216 . S
Co574 O576 2.091 . S
Co574 O578 2.004 . S
Co574 O584 2.021 . S
Co574 O586 2.137 . S
Co574 O587 2.244 . S
O575 Co574 2.216 . S
O575 C582 1.247 . S
O576 Co574 2.091 . S
O576 C582 1.261 . S
C577 O586 1.247 . S
C577 O587 1.272 . S
O578 Co574 2.004 . S
O578 C583 1.259 . S
Co579 O580 2.061 . S
Co579 O585 2.052 . S
Co579 O587 2.135 . S
O580 Co579 2.061 . S
O580 C583 1.235 . S
C581 O584 1.238 . S
C581 O585 1.241 . S
C582 O575 1.247 . S
C582 O576 1.261 . S
C583 O578 1.259 . S
C583 O580 1.235 . S
O584 Co574 2.021 . S
O584 C581 1.238 . S
O585 Co579 2.052 . S
O585 C581 1.241 . S
O586 Co574 2.137 . S
O586 C577 1.247 . S
O587 Co574 2.244 . S
O587 C577 1.272 . S
O587 Co579 2.135 . S
Co588 O589 2.233 . S
Co588 O590 2.091 1_545 S
Co588 O592 2.004 . S
Co588 O598 2.021 . S
Co588 O600 2.137 1_545 S
Co588 O601 2.244 . S
O589 Co588 2.233 . S
O589 C596 1.231 1_545 S
O590 Co588 2.091 1_565 S
O590 C596 1.261 . S
C591 O600 1.247 1_545 S
C591 O601 1.272 . S
O592 Co588 2.004 . S
O592 C597 1.259 . S
Co593 O594 2.061 . S
Co593 O599 2.052 . S
Co593 O601 2.135 . S
O594 Co593 2.061 . S
O594 C597 1.235 . S
C595 O598 1.238 . S
C595 O599 1.241 . S
C596 O589 1.231 1_565 S
C596 O590 1.261 . S
C597 O592 1.259 . S
C597 O594 1.235 . S
O598 Co588 2.021 . S
O598 C595 1.238 . S
O599 Co593 2.052 . S
O599 C595 1.241 . S
O600 Co588 2.137 1_565 S
O600 C591 1.247 1_565 S
O601 Co588 2.244 . S
O601 C591 1.272 . S
O601 Co593 2.135 . S
Co602 O603 2.216 . S
Co602 O604 2.091 . S
Co602 O606 2.004 . S
Co602 O612 2.021 . S
Co602 O614 2.137 . S
Co602 O615 2.244 . S
O603 Co602 2.216 . S
O603 C610 1.247 . S
O604 Co602 2.091 . S
O604 C610 1.261 . S
C605 O614 1.247 . S
C605 O615 1.272 . S
O606 Co602 2.004 . S
O606 C611 1.259 . S
Co607 O608 2.061 . S
Co607 O613 2.052 . S
Co607 O615 2.135 . S
O608 Co607 2.061 . S
O608 C611 1.235 . S
C609 O612 1.238 . S
C609 O613 1.241 . S
C610 O603 1.247 . S
C610 O604 1.261 . S
C611 O606 1.259 . S
C611 O608 1.235 . S
O612 Co602 2.021 . S
O612 C609 1.238 . S
O613 Co607 2.052 . S
O613 C609 1.241 . S
O614 Co602 2.137 . S
O614 C605 1.247 . S
O615 Co602 2.244 . S
O615 C605 1.272 . S
O615 Co607 2.135 . S
Co616 O617 2.216 . S
Co616 O618 2.091 . S
Co616 O620 2.004 . S
Co616 O626 2.021 . S
Co616 O628 2.137 . S
Co616 O629 2.244 . S
O617 Co616 2.216 . S
O617 C624 1.247 . S
O618 Co616 2.091 . S
O618 C624 1.261 . S
C619 O628 1.247 . S
C619 O629 1.272 . S
O620 Co616 2.004 . S
O620 C625 1.259 . S
Co621 O622 2.061 . S
Co621 O627 2.052 . S
Co621 O629 2.135 . S
O622 Co621 2.061 . S
O622 C625 1.235 . S
C623 O626 1.238 . S
C623 O627 1.241 . S
C624 O617 1.247 . S
C624 O618 1.261 . S
C625 O620 1.259 . S
C625 O622 1.235 . S
O626 Co616 2.021 . S
O626 C623 1.238 . S
O627 Co621 2.052 . S
O627 C623 1.241 . S
O628 Co616 2.137 . S
O628 C619 1.247 . S
O629 Co616 2.244 . S
O629 C619 1.272 . S
O629 Co621 2.135 . S
Co630 O631 2.216 . S
Co630 O632 2.091 . S
Co630 O634 2.004 . S
Co630 O640 2.021 . S
Co630 O642 2.137 . S
Co630 O643 2.244 . S
O631 Co630 2.216 . S
O631 C638 1.247 . S
O632 Co630 2.091 . S
O632 C638 1.261 . S
C633 O642 1.247 . S
C633 O643 1.272 . S
O634 Co630 2.004 . S
O634 C639 1.259 . S
Co635 O636 2.061 . S
Co635 O641 2.052 . S
Co635 O643 2.135 . S
O636 Co635 2.061 . S
O636 C639 1.235 . S
C637 O640 1.238 . S
C637 O641 1.241 . S
C638 O631 1.247 . S
C638 O632 1.261 . S
C639 O634 1.259 . S
C639 O636 1.235 . S
O640 Co630 2.021 . S
O640 C637 1.238 . S
O641 Co635 2.052 . S
O641 C637 1.241 . S
O642 Co630 2.137 . S
O642 C633 1.247 . S
O643 Co630 2.244 . S
O643 C633 1.272 . S
O643 Co635 2.135 . S
Co644 O645 2.216 . S
Co644 O646 2.091 1_565 S
Co644 O648 2.004 . S
Co644 O654 2.021 . S
Co644 O656 2.137 1_565 S
Co644 O657 2.244 . S
O645 Co644 2.216 . S
O645 C652 1.247 1_565 S
O646 Co644 2.091 1_545 S
O646 C652 1.261 . S
C647 O656 1.247 1_565 S
C647 O657 1.272 . S
O648 Co644 2.004 . S
O648 C653 1.259 . S
Co649 O650 2.061 . S
Co649 O655 2.052 . S
Co649 O657 2.135 . S
O650 Co649 2.061 . S
O650 C653 1.235 . S
C651 O654 1.238 . S
C651 O655 1.241 . S
C652 O645 1.247 1_545 S
C652 O646 1.261 . S
C653 O648 1.259 . S
C653 O650 1.235 . S
O654 Co644 2.021 . S
O654 C651 1.238 . S
O655 Co649 2.052 . S
O655 C651 1.241 . S
O656 Co644 2.137 1_545 S
O656 C647 1.247 1_545 S
O657 Co644 2.244 . S
O657 C647 1.272 . S
O657 Co649 2.135 . S
Co658 O659 2.233 . S
Co658 O660 2.091 1_545 S
Co658 O662 2.004 . S
Co658 O668 2.021 . S
Co658 O670 2.137 1_545 S
Co658 O671 2.244 . S
O659 Co658 2.233 . S
O659 C666 1.231 1_545 S
O660 Co658 2.091 1_565 S
O660 C666 1.261 . S
C661 O670 1.247 1_545 S
C661 O671 1.272 . S
O662 Co658 2.004 . S
O662 C667 1.259 . S
Co663 O664 2.061 . S
Co663 O669 2.052 . S
Co663 O671 2.135 . S
O664 Co663 2.061 . S
O664 C667 1.235 . S
C665 O668 1.238 . S
C665 O669 1.241 . S
C666 O659 1.231 1_565 S
C666 O660 1.261 . S
C667 O662 1.259 . S
C667 O664 1.235 . S
O668 Co658 2.021 . S
O668 C665 1.238 . S
O669 Co663 2.052 . S
O669 C665 1.241 . S
O670 Co658 2.137 1_565 S
O670 C661 1.247 1_565 S
O671 Co658 2.244 . S
O671 C661 1.272 . S
O671 Co663 2.135 . S
C672 C673 1.349 . S
C672 C674 1.327 . S
C672 H697 0.950 . S
C673 C672 1.349 . S
C673 C689 1.349 . S
C674 C672 1.327 . S
C674 C693 1.429 . S
C674 H698 0.950 . S
C675 C692 1.574 . S
C675 C694 1.368 . S
C675 H699 0.949 . S
H676 C680 0.949 . S
C677 C678 1.349 . S
C677 C679 1.327 . S
C677 H700 0.950 . S
C678 C677 1.349 . S
C678 C690 1.349 . S
C679 C677 1.327 . S
C679 C695 1.429 . S
C679 H701 0.950 . S
C680 H676 0.949 . S
C680 C688 1.574 . S
C680 C696 1.368 . S
H681 C689 0.950 . S
H682 C687 0.950 . S
H683 C688 0.949 . S
H684 C690 0.950 . S
H685 C691 0.950 . S
H686 C692 0.949 . S
C687 H682 0.950 . S
C687 C689 1.327 . S
C687 C693 1.429 . S
C688 C680 1.574 . S
C688 H683 0.949 . S
C688 C694 1.368 . S
C689 C673 1.349 . S
C689 H681 0.950 . S
C689 C687 1.327 . S
C690 C678 1.349 . S
C690 H684 0.950 . S
C690 C691 1.327 . S
C691 H685 0.950 . S
C691 C690 1.327 . S
C691 C695 1.429 . S
C692 C675 1.574 . S
C692 H686 0.949 . S
C692 C696 1.368 . S
C693 C674 1.429 . S
C693 C687 1.429 . S
C693 C694 1.523 . S
C694 C675 1.368 . S
C694 C688 1.368 . S
C694 C693 1.523 . S
C695 C679 1.429 . S
C695 C691 1.429 . S
C695 C696 1.523 . S
C696 C680 1.368 . S
C696 C692 1.368 . S
C696 C695 1.523 . S
H697 C672 0.950 . S
H698 C674 0.950 . S
H699 C675 0.949 . S
H700 C677 0.950 . S
H701 C679 0.950 . S
C702 C703 1.349 . S
C702 C704 1.327 . S
C702 H727 0.950 . S
C703 C702 1.349 . S
C703 C719 1.349 . S
C704 C702 1.327 . S
C704 C723 1.429 . S
C704 H728 0.950 . S
C705 C722 1.574 . S
C705 C724 1.368 . S
C705 H729 0.949 . S
H706 C710 0.949 . S
C707 C708 1.349 . S
C707 C709 1.327 . S
C707 H730 0.950 . S
C708 C707 1.349 . S
C708 C720 1.349 . S
C709 C707 1.327 . S
C709 C725 1.429 . S
C709 H731 0.950 . S
C710 H706 0.949 . S
C710 C718 1.574 . S
C710 C726 1.368 . S
H711 C719 0.950 . S
H712 C717 0.950 . S
H713 C718 0.949 . S
H714 C720 0.950 . S
H715 C721 0.950 . S
H716 C722 0.949 . S
C717 H712 0.950 . S
C717 C719 1.327 . S
C717 C723 1.429 . S
C718 C710 1.574 . S
C718 H713 0.949 . S
C718 C724 1.368 . S
C719 C703 1.349 . S
C719 H711 0.950 . S
C719 C717 1.327 . S
C720 C708 1.349 . S
C720 H714 0.950 . S
C720 C721 1.327 . S
C721 H715 0.950 . S
C721 C720 1.327 . S
C721 C725 1.429 . S
C722 C705 1.574 . S
C722 H716 0.949 . S
C722 C726 1.368 . S
C723 C704 1.429 . S
C723 C717 1.429 . S
C723 C724 1.523 . S
C724 C705 1.368 . S
C724 C718 1.368 . S
C724 C723 1.523 . S
C725 C709 1.429 . S
C725 C721 1.429 . S
C725 C726 1.523 . S
C726 C710 1.368 . S
C726 C722 1.368 . S
C726 C725 1.523 . S
H727 C702 0.950 . S
H728 C704 0.950 . S
H729 C705 0.949 . S
H730 C707 0.950 . S
H731 C709 0.950 . S
C732 C733 1.349 . S
C732 C734 1.327 . S
C732 H757 0.950 . S
C733 C732 1.349 . S
C733 C749 1.349 . S
C734 C732 1.327 . S
C734 C753 1.429 . S
C734 H758 0.950 . S
C735 C752 1.574 . S
C735 C754 1.368 . S
C735 H759 0.949 . S
H736 C740 0.949 . S
C737 C738 1.349 . S
C737 C739 1.327 . S
C737 H760 0.950 . S
C738 C737 1.349 . S
C738 C750 1.349 . S
C739 C737 1.327 . S
C739 C755 1.429 . S
C739 H761 0.950 . S
C740 H736 0.949 . S
C740 C748 1.574 . S
C740 C756 1.368 . S
H741 C749 0.950 . S
H742 C747 0.950 . S
H743 C748 0.949 . S
H744 C750 0.950 . S
H745 C751 0.950 . S
H746 C752 0.949 . S
C747 H742 0.950 . S
C747 C749 1.327 . S
C747 C753 1.429 . S
C748 C740 1.574 . S
C748 H743 0.949 . S
C748 C754 1.368 . S
C749 C733 1.349 . S
C749 H741 0.950 . S
C749 C747 1.327 . S
C750 C738 1.349 . S
C750 H744 0.950 . S
C750 C751 1.327 . S
C751 H745 0.950 . S
C751 C750 1.327 . S
C751 C755 1.429 . S
C752 C735 1.574 . S
C752 H746 0.949 . S
C752 C756 1.368 . S
C753 C734 1.429 . S
C753 C747 1.429 . S
C753 C754 1.523 . S
C754 C735 1.368 . S
C754 C748 1.368 . S
C754 C753 1.523 . S
C755 C739 1.429 . S
C755 C751 1.429 . S
C755 C756 1.523 . S
C756 C740 1.368 . S
C756 C752 1.368 . S
C756 C755 1.523 . S
H757 C732 0.950 . S
H758 C734 0.950 . S
H759 C735 0.949 . S
H760 C737 0.950 . S
H761 C739 0.950 . S
C762 C763 1.349 . S
C762 C764 1.327 . S
C762 H787 0.950 . S
C763 C762 1.349 . S
C763 C779 1.349 . S
C764 C762 1.327 . S
C764 C783 1.429 . S
C764 H788 0.950 . S
C765 C782 1.574 . S
C765 C784 1.368 . S
C765 H789 0.949 . S
H766 C770 0.949 . S
C767 C768 1.349 . S
C767 C769 1.327 . S
C767 H790 0.950 . S
C768 C767 1.349 . S
C768 C780 1.349 . S
C769 C767 1.327 . S
C769 C785 1.429 . S
C769 H791 0.950 . S
C770 H766 0.949 . S
C770 C778 1.574 . S
C770 C786 1.368 . S
H771 C779 0.950 . S
H772 C777 0.950 . S
H773 C778 0.949 . S
H774 C780 0.950 . S
H775 C781 0.950 . S
H776 C782 0.949 . S
C777 H772 0.950 . S
C777 C779 1.327 . S
C777 C783 1.429 . S
C778 C770 1.574 . S
C778 H773 0.949 . S
C778 C784 1.368 . S
C779 C763 1.349 . S
C779 H771 0.950 . S
C779 C777 1.327 . S
C780 C768 1.349 . S
C780 H774 0.950 . S
C780 C781 1.327 . S
C781 H775 0.950 . S
C781 C780 1.327 . S
C781 C785 1.429 . S
C782 C765 1.574 . S
C782 H776 0.949 . S
C782 C786 1.368 . S
C783 C764 1.429 . S
C783 C777 1.429 . S
C783 C784 1.523 . S
C784 C765 1.368 . S
C784 C778 1.368 . S
C784 C783 1.523 . S
C785 C769 1.429 . S
C785 C781 1.429 . S
C785 C786 1.523 . S
C786 C770 1.368 . S
C786 C782 1.368 . S
C786 C785 1.523 . S
H787 C762 0.950 . S
H788 C764 0.950 . S
H789 C765 0.949 . S
H790 C767 0.950 . S
H791 C769 0.950 . S
C792 C793 1.349 . S
C792 C794 1.327 . S
C792 H817 0.950 . S
C793 C792 1.349 . S
C793 C809 1.349 . S
C794 C792 1.327 . S
C794 C813 1.429 . S
C794 H818 0.950 . S
C795 C812 1.574 . S
C795 C814 1.368 . S
C795 H819 0.949 . S
H796 C800 0.949 . S
C797 C798 1.349 . S
C797 C799 1.327 . S
C797 H820 0.950 . S
C798 C797 1.349 . S
C798 C810 1.349 . S
C799 C797 1.327 . S
C799 C815 1.429 . S
C799 H821 0.950 . S
C800 H796 0.949 . S
C800 C808 1.574 . S
C800 C816 1.368 . S
H801 C809 0.950 . S
H802 C807 0.950 . S
H803 C808 0.949 . S
H804 C810 0.950 . S
H805 C811 0.950 . S
H806 C812 0.949 . S
C807 H802 0.950 . S
C807 C809 1.327 . S
C807 C813 1.429 . S
C808 C800 1.574 . S
C808 H803 0.949 . S
C808 C814 1.368 . S
C809 C793 1.349 . S
C809 H801 0.950 . S
C809 C807 1.327 . S
C810 C798 1.349 . S
C810 H804 0.950 . S
C810 C811 1.327 . S
C811 H805 0.950 . S
C811 C810 1.327 . S
C811 C815 1.429 . S
C812 C795 1.574 . S
C812 H806 0.949 . S
C812 C816 1.368 . S
C813 C794 1.429 . S
C813 C807 1.429 . S
C813 C814 1.523 . S
C814 C795 1.368 . S
C814 C808 1.368 . S
C814 C813 1.523 . S
C815 C799 1.429 . S
C815 C811 1.429 . S
C815 C816 1.523 . S
C816 C800 1.368 . S
C816 C812 1.368 . S
C816 C815 1.523 . S
H817 C792 0.950 . S
H818 C794 0.950 . S
H819 C795 0.949 . S
H820 C797 0.950 . S
H821 C799 0.950 . S
C822 C823 1.349 . S
C822 C824 1.327 . S
C822 H847 0.950 . S
C823 C822 1.349 . S
C823 C839 1.349 . S
C824 C822 1.327 . S
C824 C843 1.429 . S
C824 H848 0.950 . S
C825 C842 1.574 . S
C825 C844 1.368 . S
C825 H849 0.949 . S
H826 C830 0.949 . S
C827 C828 1.349 . S
C827 C829 1.327 . S
C827 H850 0.950 . S
C828 C827 1.349 . S
C828 C840 1.349 . S
C829 C827 1.327 . S
C829 C845 1.429 . S
C829 H851 0.950 . S
C830 H826 0.949 . S
C830 C838 1.574 . S
C830 C846 1.368 . S
H831 C839 0.950 . S
H832 C837 0.950 . S
H833 C838 0.949 . S
H834 C840 0.950 . S
H835 C841 0.950 . S
H836 C842 0.949 . S
C837 H832 0.950 . S
C837 C839 1.327 . S
C837 C843 1.429 . S
C838 C830 1.574 . S
C838 H833 0.949 . S
C838 C844 1.368 . S
C839 C823 1.349 . S
C839 H831 0.950 . S
C839 C837 1.327 . S
C840 C828 1.349 . S
C840 H834 0.950 . S
C840 C841 1.327 . S
C841 H835 0.950 . S
C841 C840 1.327 . S
C841 C845 1.429 . S
C842 C825 1.574 . S
C842 H836 0.949 . S
C842 C846 1.368 . S
C843 C824 1.429 . S
C843 C837 1.429 . S
C843 C844 1.523 . S
C844 C825 1.368 . S
C844 C838 1.368 . S
C844 C843 1.523 . S
C845 C829 1.429 . S
C845 C841 1.429 . S
C845 C846 1.523 . S
C846 C830 1.368 . S
C846 C842 1.368 . S
C846 C845 1.523 . S
H847 C822 0.950 . S
H848 C824 0.950 . S
H849 C825 0.949 . S
H850 C827 0.950 . S
H851 C829 0.950 . S
C852 C853 1.349 . S
C852 C854 1.327 . S
C852 H877 0.950 . S
C853 C852 1.349 . S
C853 C869 1.349 . S
C854 C852 1.327 . S
C854 C873 1.429 . S
C854 H878 0.950 . S
C855 C872 1.574 . S
C855 C874 1.368 . S
C855 H879 0.949 . S
H856 C860 0.949 . S
C857 C858 1.349 . S
C857 C859 1.327 . S
C857 H880 0.950 . S
C858 C857 1.349 . S
C858 C870 1.349 . S
C859 C857 1.327 . S
C859 C875 1.429 . S
C859 H881 0.950 . S
C860 H856 0.949 . S
C860 C868 1.574 . S
C860 C876 1.368 . S
H861 C869 0.950 . S
H862 C867 0.950 . S
H863 C868 0.949 . S
H864 C870 0.950 . S
H865 C871 0.950 . S
H866 C872 0.949 . S
C867 H862 0.950 . S
C867 C869 1.327 . S
C867 C873 1.429 . S
C868 C860 1.574 . S
C868 H863 0.949 . S
C868 C874 1.368 . S
C869 C853 1.349 . S
C869 H861 0.950 . S
C869 C867 1.327 . S
C870 C858 1.349 . S
C870 H864 0.950 . S
C870 C871 1.327 . S
C871 H865 0.950 . S
C871 C870 1.327 . S
C871 C875 1.429 . S
C872 C855 1.574 . S
C872 H866 0.949 . S
C872 C876 1.368 . S
C873 C854 1.429 . S
C873 C867 1.429 . S
C873 C874 1.523 . S
C874 C855 1.368 . S
C874 C868 1.368 . S
C874 C873 1.523 . S
C875 C859 1.429 . S
C875 C871 1.429 . S
C875 C876 1.523 . S
C876 C860 1.368 . S
C876 C872 1.368 . S
C876 C875 1.523 . S
H877 C852 0.950 . S
H878 C854 0.950 . S
H879 C855 0.949 . S
H880 C857 0.950 . S
H881 C859 0.950 . S
C882 C883 1.349 . S
C882 C884 1.327 . S
C882 H907 0.950 . S
C883 C882 1.349 . S
C883 C899 1.349 . S
C884 C882 1.327 . S
C884 C903 1.429 . S
C884 H908 0.950 . S
C885 C902 1.574 . S
C885 C904 1.368 . S
C885 H909 0.949 . S
H886 C890 0.949 . S
C887 C888 1.349 . S
C887 C889 1.327 . S
C887 H910 0.950 . S
C888 C887 1.349 . S
C888 C900 1.349 . S
C889 C887 1.327 . S
C889 C905 1.429 . S
C889 H911 0.950 . S
C890 H886 0.949 . S
C890 C898 1.574 . S
C890 C906 1.368 . S
H891 C899 0.950 . S
H892 C897 0.950 . S
H893 C898 0.949 . S
H894 C900 0.950 . S
H895 C901 0.950 . S
H896 C902 0.949 . S
C897 H892 0.950 . S
C897 C899 1.327 . S
C897 C903 1.429 . S
C898 C890 1.574 . S
C898 H893 0.949 . S
C898 C904 1.368 . S
C899 C883 1.349 . S
C899 H891 0.950 . S
C899 C897 1.327 . S
C900 C888 1.349 . S
C900 H894 0.950 . S
C900 C901 1.327 . S
C901 H895 0.950 . S
C901 C900 1.327 . S
C901 C905 1.429 . S
C902 C885 1.574 . S
C902 H896 0.949 . S
C902 C906 1.368 . S
C903 C884 1.429 . S
C903 C897 1.429 . S
C903 C904 1.523 . S
C904 C885 1.368 . S
C904 C898 1.368 . S
C904 C903 1.523 . S
C905 C889 1.429 . S
C905 C901 1.429 . S
C905 C906 1.523 . S
C906 C890 1.368 . S
C906 C902 1.368 . S
C906 C905 1.523 . S
H907 C882 0.950 . S
H908 C884 0.950 . S
H909 C885 0.949 . S
H910 C887 0.950 . S
H911 C889 0.950 . S
C912 C913 1.349 . S
C912 C914 1.327 . S
C912 H937 0.950 . S
C913 C912 1.349 . S
C913 C929 1.349 . S
C914 C912 1.327 . S
C914 C933 1.429 . S
C914 H938 0.950 . S
C915 C932 1.574 . S
C915 C934 1.368 . S
C915 H939 0.949 . S
H916 C920 0.949 . S
C917 C918 1.349 . S
C917 C919 1.327 . S
C917 H940 0.950 . S
C918 C917 1.349 . S
C918 C930 1.349 . S
C919 C917 1.327 . S
C919 C935 1.429 . S
C919 H941 0.950 . S
C920 H916 0.949 . S
C920 C928 1.574 . S
C920 C936 1.368 . S
H921 C929 0.950 . S
H922 C927 0.950 . S
H923 C928 0.949 . S
H924 C930 0.950 . S
H925 C931 0.950 . S
H926 C932 0.949 . S
C927 H922 0.950 . S
C927 C929 1.327 . S
C927 C933 1.429 . S
C928 C920 1.574 . S
C928 H923 0.949 . S
C928 C934 1.368 . S
C929 C913 1.349 . S
C929 H921 0.950 . S
C929 C927 1.327 . S
C930 C918 1.349 . S
C930 H924 0.950 . S
C930 C931 1.327 . S
C931 H925 0.950 . S
C931 C930 1.327 . S
C931 C935 1.429 . S
C932 C915 1.574 . S
C932 H926 0.949 . S
C932 C936 1.368 . S
C933 C914 1.429 . S
C933 C927 1.429 . S
C933 C934 1.523 . S
C934 C915 1.368 . S
C934 C928 1.368 . S
C934 C933 1.523 . S
C935 C919 1.429 . S
C935 C931 1.429 . S
C935 C936 1.523 . S
C936 C920 1.368 . S
C936 C932 1.368 . S
C936 C935 1.523 . S
H937 C912 0.950 . S
H938 C914 0.950 . S
H939 C915 0.949 . S
H940 C917 0.950 . S
H941 C919 0.950 . S
C942 C943 1.349 . S
C942 C944 1.327 . S
C942 H967 0.950 . S
C943 C942 1.349 . S
C943 C959 1.349 . S
C944 C942 1.327 . S
C944 C963 1.429 . S
C944 H968 0.950 . S
C945 C962 1.574 . S
C945 C964 1.368 . S
C945 H969 0.949 . S
H946 C950 0.949 . S
C947 C948 1.349 . S
C947 C949 1.327 . S
C947 H970 0.950 . S
C948 C947 1.349 . S
C948 C960 1.349 . S
C949 C947 1.327 . S
C949 C965 1.429 . S
C949 H971 0.950 . S
C950 H946 0.949 . S
C950 C958 1.574 . S
C950 C966 1.368 . S
H951 C959 0.950 . S
H952 C957 0.950 . S
H953 C958 0.949 . S
H954 C960 0.950 . S
H955 C961 0.950 . S
H956 C962 0.949 . S
C957 H952 0.950 . S
C957 C959 1.327 . S
C957 C963 1.429 . S
C958 C950 1.574 . S
C958 H953 0.949 . S
C958 C964 1.368 . S
C959 C943 1.349 . S
C959 H951 0.950 . S
C959 C957 1.327 . S
C960 C948 1.349 . S
C960 H954 0.950 . S
C960 C961 1.327 . S
C961 H955 0.950 . S
C961 C960 1.327 . S
C961 C965 1.429 . S
C962 C945 1.574 . S
C962 H956 0.949 . S
C962 C966 1.368 . S
C963 C944 1.429 . S
C963 C957 1.429 . S
C963 C964 1.523 . S
C964 C945 1.368 . S
C964 C958 1.368 . S
C964 C963 1.523 . S
C965 C949 1.429 . S
C965 C961 1.429 . S
C965 C966 1.523 . S
C966 C950 1.368 . S
C966 C962 1.368 . S
C966 C965 1.523 . S
H967 C942 0.950 . S
H968 C944 0.950 . S
H969 C945 0.949 . S
H970 C947 0.950 . S
H971 C949 0.950 . S
C972 C973 1.349 . S
C972 C974 1.327 . S
C972 H997 0.950 . S
C973 C972 1.349 . S
C973 C989 1.349 . S
C974 C972 1.327 . S
C974 C993 1.429 . S
C974 H998 0.950 . S
C975 C992 1.574 . S
C975 C994 1.368 . S
C975 H999 0.949 . S
H976 C980 0.949 . S
C977 C978 1.349 . S
C977 C979 1.327 . S
C977 H1000 0.950 . S
C978 C977 1.349 . S
C978 C990 1.349 . S
C979 C977 1.327 . S
C979 C995 1.429 . S
C979 H1001 0.950 . S
C980 H976 0.949 . S
C980 C988 1.574 . S
C980 C996 1.368 . S
H981 C989 0.950 . S
H982 C987 0.950 . S
H983 C988 0.949 . S
H984 C990 0.950 . S
H985 C991 0.950 . S
H986 C992 0.949 . S
C987 H982 0.950 . S
C987 C989 1.327 . S
C987 C993 1.429 . S
C988 C980 1.574 . S
C988 H983 0.949 . S
C988 C994 1.368 . S
C989 C973 1.349 . S
C989 H981 0.950 . S
C989 C987 1.327 . S
C990 C978 1.349 . S
C990 H984 0.950 . S
C990 C991 1.327 . S
C991 H985 0.950 . S
C991 C990 1.327 . S
C991 C995 1.429 . S
C992 C975 1.574 . S
C992 H986 0.949 . S
C992 C996 1.368 . S
C993 C974 1.429 . S
C993 C987 1.429 . S
C993 C994 1.523 . S
C994 C975 1.368 . S
C994 C988 1.368 . S
C994 C993 1.523 . S
C995 C979 1.429 . S
C995 C991 1.429 . S
C995 C996 1.523 . S
C996 C980 1.368 . S
C996 C992 1.368 . S
C996 C995 1.523 . S
H997 C972 0.950 . S
H998 C974 0.950 . S
H999 C975 0.949 . S
H1000 C977 0.950 . S
H1001 C979 0.950 . S
C1002 C1003 1.349 . S
C1002 C1004 1.327 . S
C1002 H1027 0.950 . S
C1003 C1002 1.349 . S
C1003 C1019 1.349 . S
C1004 C1002 1.327 . S
C1004 C1023 1.429 . S
C1004 H1028 0.950 . S
C1005 C1022 1.574 . S
C1005 C1024 1.368 . S
C1005 H1029 0.949 . S
H1006 C1010 0.949 . S
C1007 C1008 1.349 . S
C1007 C1009 1.327 . S
C1007 H1030 0.950 . S
C1008 C1007 1.349 . S
C1008 C1020 1.349 . S
C1009 C1007 1.327 . S
C1009 C1025 1.429 . S
C1009 H1031 0.950 . S
C1010 H1006 0.949 . S
C1010 C1018 1.574 . S
C1010 C1026 1.368 . S
H1011 C1019 0.950 . S
H1012 C1017 0.950 . S
H1013 C1018 0.949 . S
H1014 C1020 0.950 . S
H1015 C1021 0.950 . S
H1016 C1022 0.949 . S
C1017 H1012 0.950 . S
C1017 C1019 1.327 . S
C1017 C1023 1.429 . S
C1018 C1010 1.574 . S
C1018 H1013 0.949 . S
C1018 C1024 1.368 . S
C1019 C1003 1.349 . S
C1019 H1011 0.950 . S
C1019 C1017 1.327 . S
C1020 C1008 1.349 . S
C1020 H1014 0.950 . S
C1020 C1021 1.327 . S
C1021 H1015 0.950 . S
C1021 C1020 1.327 . S
C1021 C1025 1.429 . S
C1022 C1005 1.574 . S
C1022 H1016 0.949 . S
C1022 C1026 1.368 . S
C1023 C1004 1.429 . S
C1023 C1017 1.429 . S
C1023 C1024 1.523 . S
C1024 C1005 1.368 . S
C1024 C1018 1.368 . S
C1024 C1023 1.523 . S
C1025 C1009 1.429 . S
C1025 C1021 1.429 . S
C1025 C1026 1.523 . S
C1026 C1010 1.368 . S
C1026 C1022 1.368 . S
C1026 C1025 1.523 . S
H1027 C1002 0.950 . S
H1028 C1004 0.950 . S
H1029 C1005 0.949 . S
H1030 C1007 0.950 . S
H1031 C1009 0.950 . S
C1032 C1033 1.349 . S
C1032 C1034 1.327 . S
C1032 H1057 0.950 . S
C1033 C1032 1.349 . S
C1033 C1049 1.349 . S
C1034 C1032 1.327 . S
C1034 C1053 1.429 . S
C1034 H1058 0.950 . S
C1035 C1052 1.574 . S
C1035 C1054 1.368 . S
C1035 H1059 0.949 . S
H1036 C1040 0.949 . S
C1037 C1038 1.349 . S
C1037 C1039 1.327 . S
C1037 H1060 0.950 . S
C1038 C1037 1.349 . S
C1038 C1050 1.349 . S
C1039 C1037 1.327 . S
C1039 C1055 1.429 . S
C1039 H1061 0.950 . S
C1040 H1036 0.949 . S
C1040 C1048 1.574 . S
C1040 C1056 1.368 . S
H1041 C1049 0.950 . S
H1042 C1047 0.950 . S
H1043 C1048 0.949 . S
H1044 C1050 0.950 . S
H1045 C1051 0.950 . S
H1046 C1052 0.949 . S
C1047 H1042 0.950 . S
C1047 C1049 1.327 . S
C1047 C1053 1.429 . S
C1048 C1040 1.574 . S
C1048 H1043 0.949 . S
C1048 C1054 1.368 . S
C1049 C1033 1.349 . S
C1049 H1041 0.950 . S
C1049 C1047 1.327 . S
C1050 C1038 1.349 . S
C1050 H1044 0.950 . S
C1050 C1051 1.327 . S
C1051 H1045 0.950 . S
C1051 C1050 1.327 . S
C1051 C1055 1.429 . S
C1052 C1035 1.574 . S
C1052 H1046 0.949 . S
C1052 C1056 1.368 . S
C1053 C1034 1.429 . S
C1053 C1047 1.429 . S
C1053 C1054 1.523 . S
C1054 C1035 1.368 . S
C1054 C1048 1.368 . S
C1054 C1053 1.523 . S
C1055 C1039 1.429 . S
C1055 C1051 1.429 . S
C1055 C1056 1.523 . S
C1056 C1040 1.368 . S
C1056 C1052 1.368 . S
C1056 C1055 1.523 . S
H1057 C1032 0.950 . S
H1058 C1034 0.950 . S
H1059 C1035 0.949 . S
H1060 C1037 0.950 . S
H1061 C1039 0.950 . S
C1062 C1063 1.349 . S
C1062 C1064 1.327 . S
C1062 H1087 0.950 . S
C1063 C1062 1.349 . S
C1063 C1079 1.349 . S
C1064 C1062 1.327 . S
C1064 C1083 1.429 . S
C1064 H1088 0.950 . S
C1065 C1082 1.574 . S
C1065 C1084 1.368 . S
C1065 H1089 0.949 . S
H1066 C1070 0.949 . S
C1067 C1068 1.349 . S
C1067 C1069 1.327 . S
C1067 H1090 0.950 . S
C1068 C1067 1.349 . S
C1068 C1080 1.349 . S
C1069 C1067 1.327 . S
C1069 C1085 1.429 . S
C1069 H1091 0.950 . S
C1070 H1066 0.949 . S
C1070 C1078 1.574 . S
C1070 C1086 1.368 . S
H1071 C1079 0.950 . S
H1072 C1077 0.950 . S
H1073 C1078 0.949 . S
H1074 C1080 0.950 . S
H1075 C1081 0.950 . S
H1076 C1082 0.949 . S
C1077 H1072 0.950 . S
C1077 C1079 1.327 . S
C1077 C1083 1.429 . S
C1078 C1070 1.574 . S
C1078 H1073 0.949 . S
C1078 C1084 1.368 . S
C1079 C1063 1.349 . S
C1079 H1071 0.950 . S
C1079 C1077 1.327 . S
C1080 C1068 1.349 . S
C1080 H1074 0.950 . S
C1080 C1081 1.327 . S
C1081 H1075 0.950 . S
C1081 C1080 1.327 . S
C1081 C1085 1.429 . S
C1082 C1065 1.574 . S
C1082 H1076 0.949 . S
C1082 C1086 1.368 . S
C1083 C1064 1.429 . S
C1083 C1077 1.429 . S
C1083 C1084 1.523 . S
C1084 C1065 1.368 . S
C1084 C1078 1.368 . S
C1084 C1083 1.523 . S
C1085 C1069 1.429 . S
C1085 C1081 1.429 . S
C1085 C1086 1.523 . S
C1086 C1070 1.368 . S
C1086 C1082 1.368 . S
C1086 C1085 1.523 . S
H1087 C1062 0.950 . S
H1088 C1064 0.950 . S
H1089 C1065 0.949 . S
H1090 C1067 0.950 . S
H1091 C1069 0.950 . S
C1092 C1093 1.349 . S
C1092 C1094 1.327 . S
C1092 H1117 0.950 . S
C1093 C1092 1.349 . S
C1093 C1109 1.349 . S
C1094 C1092 1.327 . S
C1094 C1113 1.429 . S
C1094 H1118 0.950 . S
C1095 C1112 1.574 . S
C1095 C1114 1.368 . S
C1095 H1119 0.949 . S
H1096 C1100 0.949 . S
C1097 C1098 1.349 . S
C1097 C1099 1.327 . S
C1097 H1120 0.950 . S
C1098 C1097 1.349 . S
C1098 C1110 1.349 . S
C1099 C1097 1.327 . S
C1099 C1115 1.429 . S
C1099 H1121 0.950 . S
C1100 H1096 0.949 . S
C1100 C1108 1.574 . S
C1100 C1116 1.368 . S
H1101 C1109 0.950 . S
H1102 C1107 0.950 . S
H1103 C1108 0.949 . S
H1104 C1110 0.950 . S
H1105 C1111 0.950 . S
H1106 C1112 0.949 . S
C1107 H1102 0.950 . S
C1107 C1109 1.327 . S
C1107 C1113 1.429 . S
C1108 C1100 1.574 . S
C1108 H1103 0.949 . S
C1108 C1114 1.368 . S
C1109 C1093 1.349 . S
C1109 H1101 0.950 . S
C1109 C1107 1.327 . S
C1110 C1098 1.349 . S
C1110 H1104 0.950 . S
C1110 C1111 1.327 . S
C1111 H1105 0.950 . S
C1111 C1110 1.327 . S
C1111 C1115 1.429 . S
C1112 C1095 1.574 . S
C1112 H1106 0.949 . S
C1112 C1116 1.368 . S
C1113 C1094 1.429 . S
C1113 C1107 1.429 . S
C1113 C1114 1.523 . S
C1114 C1095 1.368 . S
C1114 C1108 1.368 . S
C1114 C1113 1.523 . S
C1115 C1099 1.429 . S
C1115 C1111 1.429 . S
C1115 C1116 1.523 . S
C1116 C1100 1.368 . S
C1116 C1112 1.368 . S
C1116 C1115 1.523 . S
H1117 C1092 0.950 . S
H1118 C1094 0.950 . S
H1119 C1095 0.949 . S
H1120 C1097 0.950 . S
H1121 C1099 0.950 . S
C1122 C1123 1.349 . S
C1122 C1124 1.327 . S
C1122 H1147 0.950 . S
C1123 C1122 1.349 . S
C1123 C1139 1.349 . S
C1124 C1122 1.327 . S
C1124 C1143 1.429 . S
C1124 H1148 0.950 . S
C1125 C1142 1.574 . S
C1125 C1144 1.368 . S
C1125 H1149 0.949 . S
H1126 C1130 0.949 . S
C1127 C1128 1.349 . S
C1127 C1129 1.327 . S
C1127 H1150 0.950 . S
C1128 C1127 1.349 . S
C1128 C1140 1.349 . S
C1129 C1127 1.327 . S
C1129 C1145 1.429 . S
C1129 H1151 0.950 . S
C1130 H1126 0.949 . S
C1130 C1138 1.574 . S
C1130 C1146 1.368 . S
H1131 C1139 0.950 . S
H1132 C1137 0.950 . S
H1133 C1138 0.949 . S
H1134 C1140 0.950 . S
H1135 C1141 0.950 . S
H1136 C1142 0.949 . S
C1137 H1132 0.950 . S
C1137 C1139 1.327 . S
C1137 C1143 1.429 . S
C1138 C1130 1.574 . S
C1138 H1133 0.949 . S
C1138 C1144 1.368 . S
C1139 C1123 1.349 . S
C1139 H1131 0.950 . S
C1139 C1137 1.327 . S
C1140 C1128 1.349 . S
C1140 H1134 0.950 . S
C1140 C1141 1.327 . S
C1141 H1135 0.950 . S
C1141 C1140 1.327 . S
C1141 C1145 1.429 . S
C1142 C1125 1.574 . S
C1142 H1136 0.949 . S
C1142 C1146 1.368 . S
C1143 C1124 1.429 . S
C1143 C1137 1.429 . S
C1143 C1144 1.523 . S
C1144 C1125 1.368 . S
C1144 C1138 1.368 . S
C1144 C1143 1.523 . S
C1145 C1129 1.429 . S
C1145 C1141 1.429 . S
C1145 C1146 1.523 . S
C1146 C1130 1.368 . S
C1146 C1142 1.368 . S
C1146 C1145 1.523 . S
H1147 C1122 0.950 . S
H1148 C1124 0.950 . S
H1149 C1125 0.949 . S
H1150 C1127 0.950 . S
H1151 C1129 0.950 . S
C1152 C1153 1.349 . S
C1152 C1154 1.327 . S
C1152 H1177 0.950 . S
C1153 C1152 1.349 . S
C1153 C1169 1.349 . S
C1154 C1152 1.327 . S
C1154 C1173 1.429 . S
C1154 H1178 0.950 . S
C1155 C1172 1.574 . S
C1155 C1174 1.368 . S
C1155 H1179 0.949 . S
H1156 C1160 0.949 . S
C1157 C1158 1.349 . S
C1157 C1159 1.327 . S
C1157 H1180 0.950 . S
C1158 C1157 1.349 . S
C1158 C1170 1.349 . S
C1159 C1157 1.327 . S
C1159 C1175 1.429 . S
C1159 H1181 0.950 . S
C1160 H1156 0.949 . S
C1160 C1168 1.574 . S
C1160 C1176 1.368 . S
H1161 C1169 0.950 . S
H1162 C1167 0.950 . S
H1163 C1168 0.949 . S
H1164 C1170 0.950 . S
H1165 C1171 0.950 . S
H1166 C1172 0.949 . S
C1167 H1162 0.950 . S
C1167 C1169 1.327 . S
C1167 C1173 1.429 . S
C1168 C1160 1.574 . S
C1168 H1163 0.949 . S
C1168 C1174 1.368 . S
C1169 C1153 1.349 . S
C1169 H1161 0.950 . S
C1169 C1167 1.327 . S
C1170 C1158 1.349 . S
C1170 H1164 0.950 . S
C1170 C1171 1.327 . S
C1171 H1165 0.950 . S
C1171 C1170 1.327 . S
C1171 C1175 1.429 . S
C1172 C1155 1.574 . S
C1172 H1166 0.949 . S
C1172 C1176 1.368 . S
C1173 C1154 1.429 . S
C1173 C1167 1.429 . S
C1173 C1174 1.523 . S
C1174 C1155 1.368 . S
C1174 C1168 1.368 . S
C1174 C1173 1.523 . S
C1175 C1159 1.429 . S
C1175 C1171 1.429 . S
C1175 C1176 1.523 . S
C1176 C1160 1.368 . S
C1176 C1172 1.368 . S
C1176 C1175 1.523 . S
H1177 C1152 0.950 . S
H1178 C1154 0.950 . S
H1179 C1155 0.949 . S
H1180 C1157 0.950 . S
H1181 C1159 0.950 . S
C1182 C1183 1.349 . S
C1182 C1184 1.327 . S
C1182 H1207 0.950 . S
C1183 C1182 1.349 . S
C1183 C1199 1.349 . S
C1184 C1182 1.327 . S
C1184 C1203 1.429 . S
C1184 H1208 0.950 . S
C1185 C1202 1.574 . S
C1185 C1204 1.368 . S
C1185 H1209 0.949 . S
H1186 C1190 0.949 . S
C1187 C1188 1.349 . S
C1187 C1189 1.327 . S
C1187 H1210 0.950 . S
C1188 C1187 1.349 . S
C1188 C1200 1.349 . S
C1189 C1187 1.327 . S
C1189 C1205 1.429 . S
C1189 H1211 0.950 . S
C1190 H1186 0.949 . S
C1190 C1198 1.574 . S
C1190 C1206 1.368 . S
H1191 C1199 0.950 . S
H1192 C1197 0.950 . S
H1193 C1198 0.949 . S
H1194 C1200 0.950 . S
H1195 C1201 0.950 . S
H1196 C1202 0.949 . S
C1197 H1192 0.950 . S
C1197 C1199 1.327 . S
C1197 C1203 1.429 . S
C1198 C1190 1.574 . S
C1198 H1193 0.949 . S
C1198 C1204 1.368 . S
C1199 C1183 1.349 . S
C1199 H1191 0.950 . S
C1199 C1197 1.327 . S
C1200 C1188 1.349 . S
C1200 H1194 0.950 . S
C1200 C1201 1.327 . S
C1201 H1195 0.950 . S
C1201 C1200 1.327 . S
C1201 C1205 1.429 . S
C1202 C1185 1.574 . S
C1202 H1196 0.949 . S
C1202 C1206 1.368 . S
C1203 C1184 1.429 . S
C1203 C1197 1.429 . S
C1203 C1204 1.523 . S
C1204 C1185 1.368 . S
C1204 C1198 1.368 . S
C1204 C1203 1.523 . S
C1205 C1189 1.429 . S
C1205 C1201 1.429 . S
C1205 C1206 1.523 . S
C1206 C1190 1.368 . S
C1206 C1202 1.368 . S
C1206 C1205 1.523 . S
H1207 C1182 0.950 . S
H1208 C1184 0.950 . S
H1209 C1185 0.949 . S
H1210 C1187 0.950 . S
H1211 C1189 0.950 . S
C1212 C1213 1.349 . S
C1212 C1214 1.327 . S
C1212 H1237 0.950 . S
C1213 C1212 1.349 . S
C1213 C1229 1.349 . S
C1214 C1212 1.327 . S
C1214 C1233 1.429 . S
C1214 H1238 0.950 . S
C1215 C1232 1.574 . S
C1215 C1234 1.368 . S
C1215 H1239 0.949 . S
H1216 C1220 0.949 . S
C1217 C1218 1.349 . S
C1217 C1219 1.327 . S
C1217 H1240 0.950 . S
C1218 C1217 1.349 . S
C1218 C1230 1.349 . S
C1219 C1217 1.327 . S
C1219 C1235 1.429 . S
C1219 H1241 0.950 . S
C1220 H1216 0.949 . S
C1220 C1228 1.574 . S
C1220 C1236 1.368 . S
H1221 C1229 0.950 . S
H1222 C1227 0.950 . S
H1223 C1228 0.949 . S
H1224 C1230 0.950 . S
H1225 C1231 0.950 . S
H1226 C1232 0.949 . S
C1227 H1222 0.950 . S
C1227 C1229 1.327 . S
C1227 C1233 1.429 . S
C1228 C1220 1.574 . S
C1228 H1223 0.949 . S
C1228 C1234 1.368 . S
C1229 C1213 1.349 . S
C1229 H1221 0.950 . S
C1229 C1227 1.327 . S
C1230 C1218 1.349 . S
C1230 H1224 0.950 . S
C1230 C1231 1.327 . S
C1231 H1225 0.950 . S
C1231 C1230 1.327 . S
C1231 C1235 1.429 . S
C1232 C1215 1.574 . S
C1232 H1226 0.949 . S
C1232 C1236 1.368 . S
C1233 C1214 1.429 . S
C1233 C1227 1.429 . S
C1233 C1234 1.523 . S
C1234 C1215 1.368 . S
C1234 C1228 1.368 . S
C1234 C1233 1.523 . S
C1235 C1219 1.429 . S
C1235 C1231 1.429 . S
C1235 C1236 1.523 . S
C1236 C1220 1.368 . S
C1236 C1232 1.368 . S
C1236 C1235 1.523 . S
H1237 C1212 0.950 . S
H1238 C1214 0.950 . S
H1239 C1215 0.949 . S
H1240 C1217 0.950 . S
H1241 C1219 0.950 . S
C1242 C1243 1.349 . S
C1242 C1244 1.327 . S
C1242 H1267 0.950 . S
C1243 C1242 1.349 . S
C1243 C1259 1.349 . S
C1244 C1242 1.327 . S
C1244 C1263 1.429 . S
C1244 H1268 0.950 . S
C1245 C1262 1.574 . S
C1245 C1264 1.368 . S
C1245 H1269 0.949 . S
H1246 C1250 0.949 . S
C1247 C1248 1.349 . S
C1247 C1249 1.327 . S
C1247 H1270 0.950 . S
C1248 C1247 1.349 . S
C1248 C1260 1.349 . S
C1249 C1247 1.327 . S
C1249 C1265 1.429 . S
C1249 H1271 0.950 . S
C1250 H1246 0.949 . S
C1250 C1258 1.574 . S
C1250 C1266 1.368 . S
H1251 C1259 0.950 . S
H1252 C1257 0.950 . S
H1253 C1258 0.949 . S
H1254 C1260 0.950 . S
H1255 C1261 0.950 . S
H1256 C1262 0.949 . S
C1257 H1252 0.950 . S
C1257 C1259 1.327 . S
C1257 C1263 1.429 . S
C1258 C1250 1.574 . S
C1258 H1253 0.949 . S
C1258 C1264 1.368 . S
C1259 C1243 1.349 . S
C1259 H1251 0.950 . S
C1259 C1257 1.327 . S
C1260 C1248 1.349 . S
C1260 H1254 0.950 . S
C1260 C1261 1.327 . S
C1261 H1255 0.950 . S
C1261 C1260 1.327 . S
C1261 C1265 1.429 . S
C1262 C1245 1.574 . S
C1262 H1256 0.949 . S
C1262 C1266 1.368 . S
C1263 C1244 1.429 . S
C1263 C1257 1.429 . S
C1263 C1264 1.523 . S
C1264 C1245 1.368 . S
C1264 C1258 1.368 . S
C1264 C1263 1.523 . S
C1265 C1249 1.429 . S
C1265 C1261 1.429 . S
C1265 C1266 1.523 . S
C1266 C1250 1.368 . S
C1266 C1262 1.368 . S
C1266 C1265 1.523 . S
H1267 C1242 0.950 . S
H1268 C1244 0.950 . S
H1269 C1245 0.949 . S
H1270 C1247 0.950 . S
H1271 C1249 0.950 . S
C1272 C1273 1.349 . S
C1272 C1274 1.327 . S
C1272 H1297 0.950 . S
C1273 C1272 1.349 . S
C1273 C1289 1.349 . S
C1274 C1272 1.327 . S
C1274 C1293 1.429 . S
C1274 H1298 0.950 . S
C1275 C1292 1.574 . S
C1275 C1294 1.368 . S
C1275 H1299 0.949 . S
H1276 C1280 0.949 . S
C1277 C1278 1.349 . S
C1277 C1279 1.327 . S
C1277 H1300 0.950 . S
C1278 C1277 1.349 . S
C1278 C1290 1.349 . S
C1279 C1277 1.327 . S
C1279 C1295 1.429 . S
C1279 H1301 0.950 . S
C1280 H1276 0.949 . S
C1280 C1288 1.574 . S
C1280 C1296 1.368 . S
H1281 C1289 0.950 . S
H1282 C1287 0.950 . S
H1283 C1288 0.949 . S
H1284 C1290 0.950 . S
H1285 C1291 0.950 . S
H1286 C1292 0.949 . S
C1287 H1282 0.950 . S
C1287 C1289 1.327 . S
C1287 C1293 1.429 . S
C1288 C1280 1.574 . S
C1288 H1283 0.949 . S
C1288 C1294 1.368 . S
C1289 C1273 1.349 . S
C1289 H1281 0.950 . S
C1289 C1287 1.327 . S
C1290 C1278 1.349 . S
C1290 H1284 0.950 . S
C1290 C1291 1.327 . S
C1291 H1285 0.950 . S
C1291 C1290 1.327 . S
C1291 C1295 1.429 . S
C1292 C1275 1.574 . S
C1292 H1286 0.949 . S
C1292 C1296 1.368 . S
C1293 C1274 1.429 . S
C1293 C1287 1.429 . S
C1293 C1294 1.523 . S
C1294 C1275 1.368 . S
C1294 C1288 1.368 . S
C1294 C1293 1.523 . S
C1295 C1279 1.429 . S
C1295 C1291 1.429 . S
C1295 C1296 1.523 . S
C1296 C1280 1.368 . S
C1296 C1292 1.368 . S
C1296 C1295 1.523 . S
H1297 C1272 0.950 . S
H1298 C1274 0.950 . S
H1299 C1275 0.949 . S
H1300 C1277 0.950 . S
H1301 C1279 0.950 . S
C1302 C1303 1.349 . S
C1302 C1304 1.327 . S
C1302 H1327 0.950 . S
C1303 C1302 1.349 . S
C1303 C1319 1.349 . S
C1304 C1302 1.327 . S
C1304 C1323 1.429 . S
C1304 H1328 0.950 . S
C1305 C1322 1.574 . S
C1305 C1324 1.368 . S
C1305 H1329 0.949 . S
H1306 C1310 0.949 . S
C1307 C1308 1.349 . S
C1307 C1309 1.327 . S
C1307 H1330 0.950 . S
C1308 C1307 1.349 . S
C1308 C1320 1.349 . S
C1309 C1307 1.327 . S
C1309 C1325 1.429 . S
C1309 H1331 0.950 . S
C1310 H1306 0.949 . S
C1310 C1318 1.574 . S
C1310 C1326 1.368 . S
H1311 C1319 0.950 . S
H1312 C1317 0.950 . S
H1313 C1318 0.949 . S
H1314 C1320 0.950 . S
H1315 C1321 0.950 . S
H1316 C1322 0.949 . S
C1317 H1312 0.950 . S
C1317 C1319 1.327 . S
C1317 C1323 1.429 . S
C1318 C1310 1.574 . S
C1318 H1313 0.949 . S
C1318 C1324 1.368 . S
C1319 C1303 1.349 . S
C1319 H1311 0.950 . S
C1319 C1317 1.327 . S
C1320 C1308 1.349 . S
C1320 H1314 0.950 . S
C1320 C1321 1.327 . S
C1321 H1315 0.950 . S
C1321 C1320 1.327 . S
C1321 C1325 1.429 . S
C1322 C1305 1.574 . S
C1322 H1316 0.949 . S
C1322 C1326 1.368 . S
C1323 C1304 1.429 . S
C1323 C1317 1.429 . S
C1323 C1324 1.523 . S
C1324 C1305 1.368 . S
C1324 C1318 1.368 . S
C1324 C1323 1.523 . S
C1325 C1309 1.429 . S
C1325 C1321 1.429 . S
C1325 C1326 1.523 . S
C1326 C1310 1.368 . S
C1326 C1322 1.368 . S
C1326 C1325 1.523 . S
H1327 C1302 0.950 . S
H1328 C1304 0.950 . S
H1329 C1305 0.949 . S
H1330 C1307 0.950 . S
H1331 C1309 0.950 . S
C1332 C1333 1.349 . S
C1332 C1334 1.327 . S
C1332 H1357 0.950 . S
C1333 C1332 1.349 . S
C1333 C1349 1.349 . S
C1334 C1332 1.327 . S
C1334 C1353 1.429 . S
C1334 H1358 0.950 . S
C1335 C1352 1.574 . S
C1335 C1354 1.368 . S
C1335 H1359 0.949 . S
H1336 C1340 0.949 . S
C1337 C1338 1.349 . S
C1337 C1339 1.327 . S
C1337 H1360 0.950 . S
C1338 C1337 1.349 . S
C1338 C1350 1.349 . S
C1339 C1337 1.327 . S
C1339 C1355 1.429 . S
C1339 H1361 0.950 . S
C1340 H1336 0.949 . S
C1340 C1348 1.574 . S
C1340 C1356 1.368 . S
H1341 C1349 0.950 . S
H1342 C1347 0.950 . S
H1343 C1348 0.949 . S
H1344 C1350 0.950 . S
H1345 C1351 0.950 . S
H1346 C1352 0.949 . S
C1347 H1342 0.950 . S
C1347 C1349 1.327 . S
C1347 C1353 1.429 . S
C1348 C1340 1.574 . S
C1348 H1343 0.949 . S
C1348 C1354 1.368 . S
C1349 C1333 1.349 . S
C1349 H1341 0.950 . S
C1349 C1347 1.327 . S
C1350 C1338 1.349 . S
C1350 H1344 0.950 . S
C1350 C1351 1.327 . S
C1351 H1345 0.950 . S
C1351 C1350 1.327 . S
C1351 C1355 1.429 . S
C1352 C1335 1.574 . S
C1352 H1346 0.949 . S
C1352 C1356 1.368 . S
C1353 C1334 1.429 . S
C1353 C1347 1.429 . S
C1353 C1354 1.523 . S
C1354 C1335 1.368 . S
C1354 C1348 1.368 . S
C1354 C1353 1.523 . S
C1355 C1339 1.429 . S
C1355 C1351 1.429 . S
C1355 C1356 1.523 . S
C1356 C1340 1.368 . S
C1356 C1352 1.368 . S
C1356 C1355 1.523 . S
H1357 C1332 0.950 . S
H1358 C1334 0.950 . S
H1359 C1335 0.949 . S
H1360 C1337 0.950 . S
H1361 C1339 0.950 . S
C1362 C1363 1.349 . S
C1362 C1364 1.327 . S
C1362 H1387 0.950 . S
C1363 C1362 1.349 . S
C1363 C1379 1.349 . S
C1364 C1362 1.327 . S
C1364 C1383 1.429 . S
C1364 H1388 0.950 . S
C1365 C1382 1.574 . S
C1365 C1384 1.368 . S
C1365 H1389 0.949 . S
H1366 C1370 0.949 . S
C1367 C1368 1.349 . S
C1367 C1369 1.327 . S
C1367 H1390 0.950 . S
C1368 C1367 1.349 . S
C1368 C1380 1.349 . S
C1369 C1367 1.327 . S
C1369 C1385 1.429 . S
C1369 H1391 0.950 . S
C1370 H1366 0.949 . S
C1370 C1378 1.574 . S
C1370 C1386 1.368 . S
H1371 C1379 0.950 . S
H1372 C1377 0.950 . S
H1373 C1378 0.949 . S
H1374 C1380 0.950 . S
H1375 C1381 0.950 . S
H1376 C1382 0.949 . S
C1377 H1372 0.950 . S
C1377 C1379 1.327 . S
C1377 C1383 1.429 . S
C1378 C1370 1.574 . S
C1378 H1373 0.949 . S
C1378 C1384 1.368 . S
C1379 C1363 1.349 . S
C1379 H1371 0.950 . S
C1379 C1377 1.327 . S
C1380 C1368 1.349 . S
C1380 H1374 0.950 . S
C1380 C1381 1.327 . S
C1381 H1375 0.950 . S
C1381 C1380 1.327 . S
C1381 C1385 1.429 . S
C1382 C1365 1.574 . S
C1382 H1376 0.949 . S
C1382 C1386 1.368 . S
C1383 C1364 1.429 . S
C1383 C1377 1.429 . S
C1383 C1384 1.523 . S
C1384 C1365 1.368 . S
C1384 C1378 1.368 . S
C1384 C1383 1.523 . S
C1385 C1369 1.429 . S
C1385 C1381 1.429 . S
C1385 C1386 1.523 . S
C1386 C1370 1.368 . S
C1386 C1382 1.368 . S
C1386 C1385 1.523 . S
H1387 C1362 0.950 . S
H1388 C1364 0.950 . S
H1389 C1365 0.949 . S
H1390 C1367 0.950 . S
H1391 C1369 0.950 . S
C1392 C1393 1.349 . S
C1392 C1394 1.327 . S
C1392 H1417 0.950 . S
C1393 C1392 1.349 . S
C1393 C1409 1.349 . S
C1394 C1392 1.327 . S
C1394 C1413 1.429 . S
C1394 H1418 0.950 . S
C1395 C1412 1.574 . S
C1395 C1414 1.368 . S
C1395 H1419 0.949 . S
H1396 C1400 0.949 . S
C1397 C1398 1.349 . S
C1397 C1399 1.327 . S
C1397 H1420 0.950 . S
C1398 C1397 1.349 . S
C1398 C1410 1.349 . S
C1399 C1397 1.327 . S
C1399 C1415 1.429 . S
C1399 H1421 0.950 . S
C1400 H1396 0.949 . S
C1400 C1408 1.574 . S
C1400 C1416 1.368 . S
H1401 C1409 0.950 . S
H1402 C1407 0.950 . S
H1403 C1408 0.949 . S
H1404 C1410 0.950 . S
H1405 C1411 0.950 . S
H1406 C1412 0.949 . S
C1407 H1402 0.950 . S
C1407 C1409 1.327 . S
C1407 C1413 1.429 . S
C1408 C1400 1.574 . S
C1408 H1403 0.949 . S
C1408 C1414 1.368 . S
C1409 C1393 1.349 . S
C1409 H1401 0.950 . S
C1409 C1407 1.327 . S
C1410 C1398 1.349 . S
C1410 H1404 0.950 . S
C1410 C1411 1.327 . S
C1411 H1405 0.950 . S
C1411 C1410 1.327 . S
C1411 C1415 1.429 . S
C1412 C1395 1.574 . S
C1412 H1406 0.949 . S
C1412 C1416 1.368 . S
C1413 C1394 1.429 . S
C1413 C1407 1.429 . S
C1413 C1414 1.523 . S
C1414 C1395 1.368 . S
C1414 C1408 1.368 . S
C1414 C1413 1.523 . S
C1415 C1399 1.429 . S
C1415 C1411 1.429 . S
C1415 C1416 1.523 . S
C1416 C1400 1.368 . S
C1416 C1412 1.368 . S
C1416 C1415 1.523 . S
H1417 C1392 0.950 . S
H1418 C1394 0.950 . S
H1419 C1395 0.949 . S
H1420 C1397 0.950 . S
H1421 C1399 0.950 . S
C1422 C1423 1.349 . S
C1422 C1424 1.327 . S
C1422 H1447 0.950 . S
C1423 C1422 1.349 . S
C1423 C1439 1.349 1_565 S
C1424 C1422 1.327 . S
C1424 C1443 1.429 . S
C1424 H1448 0.950 . S
C1425 C1442 1.574 . S
C1425 C1444 1.368 . S
C1425 H1449 0.949 . S
H1426 C1430 0.949 . S
C1427 C1428 1.349 . S
C1427 C1429 1.327 . S
C1427 H1450 0.950 . S
C1428 C1427 1.349 . S
C1428 C1440 1.349 . S
C1429 C1427 1.327 . S
C1429 C1445 1.429 . S
C1429 H1451 0.950 . S
C1430 H1426 0.949 . S
C1430 C1438 1.574 . S
C1430 C1446 1.368 . S
H1431 C1439 0.949 . S
H1432 C1437 0.950 . S
H1433 C1438 0.949 . S
H1434 C1440 0.950 . S
H1435 C1441 0.950 . S
H1436 C1442 0.949 . S
C1437 H1432 0.950 . S
C1437 C1439 1.328 1_565 S
C1437 C1443 1.429 . S
C1438 C1430 1.574 . S
C1438 H1433 0.949 . S
C1438 C1444 1.368 . S
C1439 C1423 1.349 1_545 S
C1439 H1431 0.949 . S
C1439 C1437 1.328 1_545 S
C1440 C1428 1.349 . S
C1440 H1434 0.950 . S
C1440 C1441 1.327 . S
C1441 H1435 0.950 . S
C1441 C1440 1.327 . S
C1441 C1445 1.429 . S
C1442 C1425 1.574 . S
C1442 H1436 0.949 . S
C1442 C1446 1.368 . S
C1443 C1424 1.429 . S
C1443 C1437 1.429 . S
C1443 C1444 1.523 . S
C1444 C1425 1.368 . S
C1444 C1438 1.368 . S
C1444 C1443 1.523 . S
C1445 C1429 1.429 . S
C1445 C1441 1.429 . S
C1445 C1446 1.523 . S
C1446 C1430 1.368 . S
C1446 C1442 1.368 . S
C1446 C1445 1.523 . S
H1447 C1422 0.950 . S
H1448 C1424 0.950 . S
H1449 C1425 0.949 . S
H1450 C1427 0.950 . S
H1451 C1429 0.950 . S
C1452 C1453 1.349 . S
C1452 C1454 1.327 . S
C1452 H1477 0.950 . S
C1453 C1452 1.349 . S
C1453 C1469 1.349 . S
C1454 C1452 1.327 . S
C1454 C1473 1.429 . S
C1454 H1478 0.950 . S
C1455 C1472 1.574 . S
C1455 C1474 1.368 . S
C1455 H1479 0.949 . S
H1456 C1460 0.949 . S
C1457 C1458 1.349 . S
C1457 C1459 1.327 . S
C1457 H1480 0.950 . S
C1458 C1457 1.349 . S
C1458 C1470 1.349 . S
C1459 C1457 1.327 . S
C1459 C1475 1.429 . S
C1459 H1481 0.950 . S
C1460 H1456 0.949 . S
C1460 C1468 1.574 . S
C1460 C1476 1.368 . S
H1461 C1469 0.950 . S
H1462 C1467 0.950 . S
H1463 C1468 0.949 . S
H1464 C1470 0.950 . S
H1465 C1471 0.950 . S
H1466 C1472 0.949 . S
C1467 H1462 0.950 . S
C1467 C1469 1.327 . S
C1467 C1473 1.429 . S
C1468 C1460 1.574 . S
C1468 H1463 0.949 . S
C1468 C1474 1.368 . S
C1469 C1453 1.349 . S
C1469 H1461 0.950 . S
C1469 C1467 1.327 . S
C1470 C1458 1.349 . S
C1470 H1464 0.950 . S
C1470 C1471 1.327 . S
C1471 H1465 0.950 . S
C1471 C1470 1.327 . S
C1471 C1475 1.429 . S
C1472 C1455 1.574 . S
C1472 H1466 0.949 . S
C1472 C1476 1.368 . S
C1473 C1454 1.429 . S
C1473 C1467 1.429 . S
C1473 C1474 1.523 . S
C1474 C1455 1.368 . S
C1474 C1468 1.368 . S
C1474 C1473 1.523 . S
C1475 C1459 1.429 . S
C1475 C1471 1.429 . S
C1475 C1476 1.523 . S
C1476 C1460 1.368 . S
C1476 C1472 1.368 . S
C1476 C1475 1.523 . S
H1477 C1452 0.950 . S
H1478 C1454 0.950 . S
H1479 C1455 0.949 . S
H1480 C1457 0.950 . S
H1481 C1459 0.950 . S
C1482 C1483 1.349 . S
C1482 C1484 1.327 . S
C1482 H1507 0.950 1_545 S
C1483 C1482 1.349 . S
C1483 C1499 1.349 . S
C1484 C1482 1.327 . S
C1484 C1503 1.429 . S
C1484 H1508 0.950 . S
C1485 C1502 1.574 1_556 S
C1485 C1504 1.368 . S
C1485 H1509 0.949 . S
H1486 C1490 0.949 . S
C1487 C1488 1.349 . S
C1487 C1489 1.327 . S
C1487 H1510 0.950 . S
C1488 C1487 1.349 . S
C1488 C1500 1.349 . S
C1489 C1487 1.327 . S
C1489 C1505 1.429 . S
C1489 H1511 0.950 . S
C1490 H1486 0.949 . S
C1490 C1498 1.574 . S
C1490 C1506 1.368 . S
H1491 C1499 0.950 . S
H1492 C1497 0.950 . S
H1493 C1498 0.949 . S
H1494 C1500 0.950 . S
H1495 C1501 0.950 . S
H1496 C1502 0.950 . S
C1497 H1492 0.950 . S
C1497 C1499 1.327 . S
C1497 C1503 1.429 . S
C1498 C1490 1.574 . S
C1498 H1493 0.949 . S
C1498 C1504 1.368 1_554 S
C1499 C1483 1.349 . S
C1499 H1491 0.950 . S
C1499 C1497 1.327 . S
C1500 C1488 1.349 . S
C1500 H1494 0.950 . S
C1500 C1501 1.327 . S
C1501 H1495 0.950 . S
C1501 C1500 1.327 . S
C1501 C1505 1.429 . S
C1502 C1485 1.574 1_554 S
C1502 H1496 0.950 . S
C1502 C1506 1.368 . S
C1503 C1484 1.429 . S
C1503 C1497 1.429 . S
C1503 C1504 1.523 . S
C1504 C1485 1.368 . S
C1504 C1498 1.368 1_556 S
C1504 C1503 1.523 . S
C1505 C1489 1.429 . S
C1505 C1501 1.429 . S
C1505 C1506 1.523 . S
C1506 C1490 1.368 . S
C1506 C1502 1.368 . S
C1506 C1505 1.523 . S
H1507 C1482 0.950 1_565 S
H1508 C1484 0.950 . S
H1509 C1485 0.949 . S
H1510 C1487 0.950 . S
H1511 C1489 0.950 . S
C1512 C1513 1.349 . S
C1512 C1514 1.327 . S
C1512 H1537 0.950 . S
C1513 C1512 1.349 . S
C1513 C1529 1.349 . S
C1514 C1512 1.327 . S
C1514 C1533 1.429 . S
C1514 H1538 0.950 . S
C1515 C1532 1.574 . S
C1515 C1534 1.368 . S
C1515 H1539 0.949 . S
H1516 C1520 0.949 . S
C1517 C1518 1.349 . S
C1517 C1519 1.327 . S
C1517 H1540 0.950 . S
C1518 C1517 1.349 . S
C1518 C1530 1.349 . S
C1519 C1517 1.327 . S
C1519 C1535 1.429 . S
C1519 H1541 0.950 . S
C1520 H1516 0.949 . S
C1520 C1528 1.574 . S
C1520 C1536 1.368 . S
H1521 C1529 0.950 . S
H1522 C1527 0.950 . S
H1523 C1528 0.949 . S
H1524 C1530 0.950 . S
H1525 C1531 0.950 . S
H1526 C1532 0.949 . S
C1527 H1522 0.950 . S
C1527 C1529 1.327 . S
C1527 C1533 1.429 . S
C1528 C1520 1.574 . S
C1528 H1523 0.949 . S
C1528 C1534 1.368 . S
C1529 C1513 1.349 . S
C1529 H1521 0.950 . S
C1529 C1527 1.327 . S
C1530 C1518 1.349 . S
C1530 H1524 0.950 . S
C1530 C1531 1.327 . S
C1531 H1525 0.950 . S
C1531 C1530 1.327 . S
C1531 C1535 1.429 . S
C1532 C1515 1.574 . S
C1532 H1526 0.949 . S
C1532 C1536 1.368 . S
C1533 C1514 1.429 . S
C1533 C1527 1.429 . S
C1533 C1534 1.523 . S
C1534 C1515 1.368 . S
C1534 C1528 1.368 . S
C1534 C1533 1.523 . S
C1535 C1519 1.429 . S
C1535 C1531 1.429 . S
C1535 C1536 1.523 . S
C1536 C1520 1.368 . S
C1536 C1532 1.368 . S
C1536 C1535 1.523 . S
H1537 C1512 0.950 . S
H1538 C1514 0.950 . S
H1539 C1515 0.949 . S
H1540 C1517 0.950 . S
H1541 C1519 0.950 . S
C1542 C1543 1.349 . S
C1542 C1544 1.327 . S
C1542 H1567 0.950 . S
C1543 C1542 1.349 . S
C1543 C1559 1.349 . S
C1544 C1542 1.327 . S
C1544 C1563 1.429 . S
C1544 H1568 0.950 . S
C1545 C1562 1.574 . S
C1545 C1564 1.368 . S
C1545 H1569 0.949 . S
H1546 C1550 0.949 . S
C1547 C1548 1.349 . S
C1547 C1549 1.327 . S
C1547 H1570 0.950 . S
C1548 C1547 1.349 . S
C1548 C1560 1.349 . S
C1549 C1547 1.327 . S
C1549 C1565 1.429 . S
C1549 H1571 0.950 . S
C1550 H1546 0.949 . S
C1550 C1558 1.574 . S
C1550 C1566 1.368 . S
H1551 C1559 0.950 . S
H1552 C1557 0.950 . S
H1553 C1558 0.949 . S
H1554 C1560 0.950 . S
H1555 C1561 0.950 . S
H1556 C1562 0.949 . S
C1557 H1552 0.950 . S
C1557 C1559 1.327 . S
C1557 C1563 1.429 . S
C1558 C1550 1.574 . S
C1558 H1553 0.949 . S
C1558 C1564 1.368 . S
C1559 C1543 1.349 . S
C1559 H1551 0.950 . S
C1559 C1557 1.327 . S
C1560 C1548 1.349 . S
C1560 H1554 0.950 . S
C1560 C1561 1.327 . S
C1561 H1555 0.950 . S
C1561 C1560 1.327 . S
C1561 C1565 1.429 . S
C1562 C1545 1.574 . S
C1562 H1556 0.949 . S
C1562 C1566 1.368 . S
C1563 C1544 1.429 . S
C1563 C1557 1.429 . S
C1563 C1564 1.523 . S
C1564 C1545 1.368 . S
C1564 C1558 1.368 . S
C1564 C1563 1.523 . S
C1565 C1549 1.429 . S
C1565 C1561 1.429 . S
C1565 C1566 1.523 . S
C1566 C1550 1.368 . S
C1566 C1562 1.368 . S
C1566 C1565 1.523 . S
H1567 C1542 0.950 . S
H1568 C1544 0.950 . S
H1569 C1545 0.949 . S
H1570 C1547 0.950 . S
H1571 C1549 0.950 . S
C1572 C1573 1.349 . S
C1572 C1574 1.327 . S
C1572 H1597 0.950 . S
C1573 C1572 1.349 . S
C1573 C1589 1.349 . S
C1574 C1572 1.327 . S
C1574 C1593 1.429 . S
C1574 H1598 0.950 . S
C1575 C1592 1.574 . S
C1575 C1594 1.368 . S
C1575 H1599 0.949 . S
H1576 C1580 0.949 . S
C1577 C1578 1.349 . S
C1577 C1579 1.327 . S
C1577 H1600 0.950 . S
C1578 C1577 1.349 . S
C1578 C1590 1.349 . S
C1579 C1577 1.327 . S
C1579 C1595 1.429 . S
C1579 H1601 0.950 . S
C1580 H1576 0.949 . S
C1580 C1588 1.574 . S
C1580 C1596 1.368 . S
H1581 C1589 0.950 . S
H1582 C1587 0.950 . S
H1583 C1588 0.949 . S
H1584 C1590 0.950 . S
H1585 C1591 0.950 . S
H1586 C1592 0.949 . S
C1587 H1582 0.950 . S
C1587 C1589 1.327 . S
C1587 C1593 1.429 . S
C1588 C1580 1.574 . S
C1588 H1583 0.949 . S
C1588 C1594 1.368 . S
C1589 C1573 1.349 . S
C1589 H1581 0.950 . S
C1589 C1587 1.327 . S
C1590 C1578 1.349 . S
C1590 H1584 0.950 . S
C1590 C1591 1.327 . S
C1591 H1585 0.950 . S
C1591 C1590 1.327 . S
C1591 C1595 1.429 . S
C1592 C1575 1.574 . S
C1592 H1586 0.949 . S
C1592 C1596 1.368 . S
C1593 C1574 1.429 . S
C1593 C1587 1.429 . S
C1593 C1594 1.523 . S
C1594 C1575 1.368 . S
C1594 C1588 1.368 . S
C1594 C1593 1.523 . S
C1595 C1579 1.429 . S
C1595 C1591 1.429 . S
C1595 C1596 1.523 . S
C1596 C1580 1.368 . S
C1596 C1592 1.368 . S
C1596 C1595 1.523 . S
H1597 C1572 0.950 . S
H1598 C1574 0.950 . S
H1599 C1575 0.949 . S
H1600 C1577 0.950 . S
H1601 C1579 0.950 . S
C1602 C1603 1.349 . S
C1602 C1604 1.327 . S
C1602 H1627 0.950 . S
C1603 C1602 1.349 . S
C1603 C1619 1.349 1_545 S
C1604 C1602 1.327 . S
C1604 C1623 1.429 . S
C1604 H1628 0.950 . S
C1605 C1622 1.574 . S
C1605 C1624 1.368 1_556 S
C1605 H1629 0.949 . S
H1606 C1610 0.950 . S
C1607 C1608 1.349 . S
C1607 C1609 1.327 . S
C1607 H1630 0.950 . S
C1608 C1607 1.349 . S
C1608 C1620 1.349 . S
C1609 C1607 1.327 . S
C1609 C1625 1.429 . S
C1609 H1631 0.950 . S
C1610 H1606 0.950 . S
C1610 C1618 1.574 1_556 S
C1610 C1626 1.368 . S
H1611 C1619 0.950 . S
H1612 C1617 0.964 . S
H1613 C1618 0.949 . S
H1614 C1620 0.950 . S
H1615 C1621 0.950 . S
H1616 C1622 0.949 . S
C1617 H1612 0.964 . S
C1617 C1619 1.327 1_545 S
C1617 C1623 1.429 . S
C1618 C1610 1.574 1_554 S
C1618 H1613 0.949 . S
C1618 C1624 1.368 . S
C1619 C1603 1.349 1_565 S
C1619 H1611 0.950 . S
C1619 C1617 1.327 1_565 S
C1620 C1608 1.349 . S
C1620 H1614 0.950 . S
C1620 C1621 1.327 . S
C1621 H1615 0.950 . S
C1621 C1620 1.327 . S
C1621 C1625 1.429 . S
C1622 C1605 1.574 . S
C1622 H1616 0.949 . S
C1622 C1626 1.368 . S
C1623 C1604 1.429 . S
C1623 C1617 1.429 . S
C1623 C1624 1.523 . S
C1624 C1605 1.368 1_554 S
C1624 C1618 1.368 . S
C1624 C1623 1.523 . S
C1625 C1609 1.429 . S
C1625 C1621 1.429 . S
C1625 C1626 1.523 . S
C1626 C1610 1.368 . S
C1626 C1622 1.368 . S
C1626 C1625 1.523 . S
H1627 C1602 0.950 . S
H1628 C1604 0.950 . S
H1629 C1605 0.949 . S
H1630 C1607 0.950 . S
H1631 C1609 0.950 . S
C1632 C1633 1.349 . S
C1632 C1634 1.327 . S
C1632 H1657 0.950 . S
C1633 C1632 1.349 . S
C1633 C1649 1.349 . S
C1634 C1632 1.327 . S
C1634 C1653 1.429 . S
C1634 H1658 0.950 . S
C1635 C1652 1.574 . S
C1635 C1654 1.368 . S
C1635 H1659 0.949 . S
H1636 C1640 0.949 . S
C1637 C1638 1.349 . S
C1637 C1639 1.327 . S
C1637 H1660 0.950 . S
C1638 C1637 1.349 . S
C1638 C1650 1.349 . S
C1639 C1637 1.327 . S
C1639 C1655 1.429 . S
C1639 H1661 0.950 . S
C1640 H1636 0.949 . S
C1640 C1648 1.574 . S
C1640 C1656 1.368 . S
H1641 C1649 0.950 . S
H1642 C1647 0.950 . S
H1643 C1648 0.949 . S
H1644 C1650 0.950 . S
H1645 C1651 0.950 . S
H1646 C1652 0.949 . S
C1647 H1642 0.950 . S
C1647 C1649 1.327 . S
C1647 C1653 1.429 . S
C1648 C1640 1.574 . S
C1648 H1643 0.949 . S
C1648 C1654 1.368 . S
C1649 C1633 1.349 . S
C1649 H1641 0.950 . S
C1649 C1647 1.327 . S
C1650 C1638 1.349 . S
C1650 H1644 0.950 . S
C1650 C1651 1.327 . S
C1651 H1645 0.950 . S
C1651 C1650 1.327 . S
C1651 C1655 1.429 . S
C1652 C1635 1.574 . S
C1652 H1646 0.949 . S
C1652 C1656 1.368 . S
C1653 C1634 1.429 . S
C1653 C1647 1.429 . S
C1653 C1654 1.523 . S
C1654 C1635 1.368 . S
C1654 C1648 1.368 . S
C1654 C1653 1.523 . S
C1655 C1639 1.429 . S
C1655 C1651 1.429 . S
C1655 C1656 1.523 . S
C1656 C1640 1.368 . S
C1656 C1652 1.368 . S
C1656 C1655 1.523 . S
H1657 C1632 0.950 . S
H1658 C1634 0.950 . S
H1659 C1635 0.949 . S
H1660 C1637 0.950 . S
H1661 C1639 0.950 . S
C1662 C1663 1.354 . S
C1662 C1664 1.360 . S
C1662 H1687 0.915 1_455 S
C1663 C1662 1.354 . S
C1663 C1679 1.349 . S
C1664 C1662 1.360 . S
C1664 C1683 1.429 . S
C1664 H1688 0.950 . S
C1665 C1682 1.574 . S
C1665 C1684 1.368 1_545 S
C1665 H1689 0.949 . S
H1666 C1670 0.949 . S
C1667 C1668 1.349 . S
C1667 C1669 1.327 . S
C1667 H1690 0.950 . S
C1668 C1667 1.349 . S
C1668 C1680 1.349 . S
C1669 C1667 1.327 . S
C1669 C1685 1.429 . S
C1669 H1691 0.950 . S
C1670 H1666 0.949 . S
C1670 C1678 1.574 1_545 S
C1670 C1686 1.368 . S
H1671 C1679 0.950 . S
H1672 C1677 0.950 . S
H1673 C1678 0.949 . S
H1674 C1680 0.950 . S
H1675 C1681 0.950 . S
H1676 C1682 0.949 . S
C1677 H1672 0.950 . S
C1677 C1679 1.327 . S
C1677 C1683 1.429 . S
C1678 C1670 1.574 1_565 S
C1678 H1673 0.949 . S
C1678 C1684 1.368 . S
C1679 C1663 1.349 . S
C1679 H1671 0.950 . S
C1679 C1677 1.327 . S
C1680 C1668 1.349 . S
C1680 H1674 0.950 . S
C1680 C1681 1.327 . S
C1681 H1675 0.950 . S
C1681 C1680 1.327 . S
C1681 C1685 1.429 . S
C1682 C1665 1.574 . S
C1682 H1676 0.949 . S
C1682 C1686 1.368 . S
C1683 C1664 1.429 . S
C1683 C1677 1.429 . S
C1683 C1684 1.523 . S
C1684 C1665 1.368 1_565 S
C1684 C1678 1.368 . S
C1684 C1683 1.523 . S
C1685 C1669 1.429 . S
C1685 C1681 1.429 . S
C1685 C1686 1.523 . S
C1686 C1670 1.368 . S
C1686 C1682 1.368 . S
C1686 C1685 1.523 . S
H1687 C1662 0.915 1_655 S
H1688 C1664 0.950 . S
H1689 C1665 0.949 . S
H1690 C1667 0.950 . S
H1691 C1669 0.950 . S
C1692 C1693 1.349 . S
C1692 C1694 1.327 . S
C1692 H1717 0.950 . S
C1693 C1692 1.349 . S
C1693 C1709 1.349 . S
C1694 C1692 1.327 . S
C1694 C1713 1.429 . S
C1694 H1718 0.950 . S
C1695 C1712 1.574 . S
C1695 C1714 1.368 . S
C1695 H1719 0.949 . S
H1696 C1700 0.949 . S
C1697 C1698 1.349 . S
C1697 C1699 1.327 . S
C1697 H1720 0.950 . S
C1698 C1697 1.349 . S
C1698 C1710 1.349 . S
C1699 C1697 1.327 . S
C1699 C1715 1.429 . S
C1699 H1721 0.950 . S
C1700 H1696 0.949 . S
C1700 C1708 1.574 . S
C1700 C1716 1.368 . S
H1701 C1709 0.950 . S
H1702 C1707 0.950 . S
H1703 C1708 0.949 . S
H1704 C1710 0.950 . S
H1705 C1711 0.950 . S
H1706 C1712 0.949 . S
C1707 H1702 0.950 . S
C1707 C1709 1.327 . S
C1707 C1713 1.429 . S
C1708 C1700 1.574 . S
C1708 H1703 0.949 . S
C1708 C1714 1.368 . S
C1709 C1693 1.349 . S
C1709 H1701 0.950 . S
C1709 C1707 1.327 . S
C1710 C1698 1.349 . S
C1710 H1704 0.950 . S
C1710 C1711 1.327 . S
C1711 H1705 0.950 . S
C1711 C1710 1.327 . S
C1711 C1715 1.429 . S
C1712 C1695 1.574 . S
C1712 H1706 0.949 . S
C1712 C1716 1.368 . S
C1713 C1694 1.429 . S
C1713 C1707 1.429 . S
C1713 C1714 1.523 . S
C1714 C1695 1.368 . S
C1714 C1708 1.368 . S
C1714 C1713 1.523 . S
C1715 C1699 1.429 . S
C1715 C1711 1.429 . S
C1715 C1716 1.523 . S
C1716 C1700 1.368 . S
C1716 C1712 1.368 . S
C1716 C1715 1.523 . S
H1717 C1692 0.950 . S
H1718 C1694 0.950 . S
H1719 C1695 0.949 . S
H1720 C1697 0.950 . S
H1721 C1699 0.950 . S
C1722 C1723 1.349 . S
C1722 C1724 1.327 . S
C1722 H1747 0.950 . S
C1723 C1722 1.349 . S
C1723 C1739 1.349 . S
C1724 C1722 1.327 . S
C1724 C1743 1.429 . S
C1724 H1748 0.950 . S
C1725 C1742 1.574 1_545 S
C1725 C1744 1.368 . S
C1725 H1749 0.949 . S
H1726 C1730 0.949 . S
C1727 C1728 1.349 . S
C1727 C1729 1.327 . S
C1727 H1750 0.950 . S
C1728 C1727 1.349 . S
C1728 C1740 1.349 . S
C1729 C1727 1.327 . S
C1729 C1745 1.429 . S
C1729 H1751 0.950 . S
C1730 H1726 0.949 . S
C1730 C1738 1.574 . S
C1730 C1746 1.368 . S
H1731 C1739 0.950 . S
H1732 C1737 0.950 . S
H1733 C1738 0.949 . S
H1734 C1740 0.950 . S
H1735 C1741 0.950 . S
H1736 C1742 0.949 . S
C1737 H1732 0.950 . S
C1737 C1739 1.327 . S
C1737 C1743 1.429 . S
C1738 C1730 1.574 . S
C1738 H1733 0.949 . S
C1738 C1744 1.368 1_565 S
C1739 C1723 1.349 . S
C1739 H1731 0.950 . S
C1739 C1737 1.327 . S
C1740 C1728 1.349 . S
C1740 H1734 0.950 . S
C1740 C1741 1.327 . S
C1741 H1735 0.950 . S
C1741 C1740 1.327 . S
C1741 C1745 1.429 . S
C1742 C1725 1.574 1_565 S
C1742 H1736 0.949 . S
C1742 C1746 1.368 . S
C1743 C1724 1.429 . S
C1743 C1737 1.429 . S
C1743 C1744 1.523 . S
C1744 C1725 1.368 . S
C1744 C1738 1.368 1_545 S
C1744 C1743 1.523 . S
C1745 C1729 1.429 . S
C1745 C1741 1.429 . S
C1745 C1746 1.523 . S
C1746 C1730 1.368 . S
C1746 C1742 1.368 . S
C1746 C1745 1.523 . S
H1747 C1722 0.950 . S
H1748 C1724 0.950 . S
H1749 C1725 0.949 . S
H1750 C1727 0.950 . S
H1751 C1729 0.950 . S
C1752 C1753 1.349 . S
C1752 C1754 1.327 . S
C1752 H1777 0.950 . S
C1753 C1752 1.349 . S
C1753 C1769 1.349 . S
C1754 C1752 1.327 . S
C1754 C1773 1.429 . S
C1754 H1778 0.950 . S
C1755 C1772 1.574 . S
C1755 C1774 1.368 . S
C1755 H1779 0.949 . S
H1756 C1760 0.949 . S
C1757 C1758 1.349 . S
C1757 C1759 1.327 . S
C1757 H1780 0.950 . S
C1758 C1757 1.349 . S
C1758 C1770 1.349 . S
C1759 C1757 1.327 . S
C1759 C1775 1.429 . S
C1759 H1781 0.950 . S
C1760 H1756 0.949 . S
C1760 C1768 1.574 . S
C1760 C1776 1.368 . S
H1761 C1769 0.950 . S
H1762 C1767 0.950 . S
H1763 C1768 0.949 . S
H1764 C1770 0.950 . S
H1765 C1771 0.950 . S
H1766 C1772 0.949 . S
C1767 H1762 0.950 . S
C1767 C1769 1.327 . S
C1767 C1773 1.429 . S
C1768 C1760 1.574 . S
C1768 H1763 0.949 . S
C1768 C1774 1.368 . S
C1769 C1753 1.349 . S
C1769 H1761 0.950 . S
C1769 C1767 1.327 . S
C1770 C1758 1.349 . S
C1770 H1764 0.950 . S
C1770 C1771 1.327 . S
C1771 H1765 0.950 . S
C1771 C1770 1.327 . S
C1771 C1775 1.429 . S
C1772 C1755 1.574 . S
C1772 H1766 0.949 . S
C1772 C1776 1.368 . S
C1773 C1754 1.429 . S
C1773 C1767 1.429 . S
C1773 C1774 1.523 . S
C1774 C1755 1.368 . S
C1774 C1768 1.368 . S
C1774 C1773 1.523 . S
C1775 C1759 1.429 . S
C1775 C1771 1.429 . S
C1775 C1776 1.523 . S
C1776 C1760 1.368 . S
C1776 C1772 1.368 . S
C1776 C1775 1.523 . S
H1777 C1752 0.950 . S
H1778 C1754 0.950 . S
H1779 C1755 0.949 . S
H1780 C1757 0.950 . S
H1781 C1759 0.950 . S
C1782 C1783 1.349 . S
C1782 C1784 1.327 . S
C1782 H1807 0.950 . S
C1783 C1782 1.349 . S
C1783 C1799 1.349 . S
C1784 C1782 1.327 . S
C1784 C1803 1.429 . S
C1784 H1808 0.950 . S
C1785 C1802 1.574 1_565 S
C1785 C1804 1.368 . S
C1785 H1809 0.949 . S
H1786 C1790 0.949 . S
C1787 C1788 1.349 . S
C1787 C1789 1.327 . S
C1787 H1810 0.950 . S
C1788 C1787 1.349 . S
C1788 C1800 1.349 . S
C1789 C1787 1.327 . S
C1789 C1805 1.429 . S
C1789 H1811 0.950 . S
C1790 H1786 0.949 . S
C1790 C1798 1.574 . S
C1790 C1806 1.368 . S
H1791 C1799 0.950 . S
H1792 C1797 0.950 . S
H1793 C1798 0.939 1_565 S
H1794 C1800 0.950 . S
H1795 C1801 0.950 . S
H1796 C1802 0.949 . S
C1797 H1792 0.950 . S
C1797 C1799 1.327 . S
C1797 C1803 1.429 . S
C1798 C1790 1.574 . S
C1798 H1793 0.939 1_545 S
C1798 C1804 1.368 1_545 S
C1799 C1783 1.349 . S
C1799 H1791 0.950 . S
C1799 C1797 1.327 . S
C1800 C1788 1.349 . S
C1800 H1794 0.950 . S
C1800 C1801 1.327 . S
C1801 H1795 0.950 . S
C1801 C1800 1.327 . S
C1801 C1805 1.429 . S
C1802 C1785 1.574 1_545 S
C1802 H1796 0.949 . S
C1802 C1806 1.368 . S
C1803 C1784 1.429 . S
C1803 C1797 1.429 . S
C1803 C1804 1.523 . S
C1804 C1785 1.368 . S
C1804 C1798 1.368 1_565 S
C1804 C1803 1.523 . S
C1805 C1789 1.429 . S
C1805 C1801 1.429 . S
C1805 C1806 1.523 . S
C1806 C1790 1.368 . S
C1806 C1802 1.368 . S
C1806 C1805 1.523 . S
H1807 C1782 0.950 . S
H1808 C1784 0.950 . S
H1809 C1785 0.949 . S
H1810 C1787 0.950 . S
H1811 C1789 0.950 . S
C1812 C1813 1.349 . S
C1812 C1814 1.327 . S
C1812 H1837 0.950 . S
C1813 C1812 1.349 . S
C1813 C1829 1.349 . S
C1814 C1812 1.327 . S
C1814 C1833 1.429 . S
C1814 H1838 0.950 . S
C1815 C1832 1.574 . S
C1815 C1834 1.368 . S
C1815 H1839 0.949 . S
H1816 C1820 0.949 . S
C1817 C1818 1.349 . S
C1817 C1819 1.327 . S
C1817 H1840 0.950 . S
C1818 C1817 1.349 . S
C1818 C1830 1.349 . S
C1819 C1817 1.327 . S
C1819 C1835 1.429 . S
C1819 H1841 0.950 . S
C1820 H1816 0.949 . S
C1820 C1828 1.574 . S
C1820 C1836 1.368 . S
H1821 C1829 0.950 . S
H1822 C1827 0.950 . S
H1823 C1828 0.949 . S
H1824 C1830 0.950 . S
H1825 C1831 0.950 . S
H1826 C1832 0.949 . S
C1827 H1822 0.950 . S
C1827 C1829 1.327 . S
C1827 C1833 1.429 . S
C1828 C1820 1.574 . S
C1828 H1823 0.949 . S
C1828 C1834 1.368 . S
C1829 C1813 1.349 . S
C1829 H1821 0.950 . S
C1829 C1827 1.327 . S
C1830 C1818 1.349 . S
C1830 H1824 0.950 . S
C1830 C1831 1.327 . S
C1831 H1825 0.950 . S
C1831 C1830 1.327 . S
C1831 C1835 1.429 . S
C1832 C1815 1.574 . S
C1832 H1826 0.949 . S
C1832 C1836 1.368 . S
C1833 C1814 1.429 . S
C1833 C1827 1.429 . S
C1833 C1834 1.523 . S
C1834 C1815 1.368 . S
C1834 C1828 1.368 . S
C1834 C1833 1.523 . S
C1835 C1819 1.429 . S
C1835 C1831 1.429 . S
C1835 C1836 1.523 . S
C1836 C1820 1.368 . S
C1836 C1832 1.368 . S
C1836 C1835 1.523 . S
H1837 C1812 0.950 . S
H1838 C1814 0.950 . S
H1839 C1815 0.949 . S
H1840 C1817 0.950 . S
H1841 C1819 0.950 . S
C1842 C1843 1.349 . S
C1842 C1844 1.327 . S
C1842 H1867 0.950 . S
C1843 C1842 1.349 . S
C1843 C1859 1.349 . S
C1844 C1842 1.327 . S
C1844 C1863 1.429 . S
C1844 H1868 0.950 . S
C1845 C1862 1.574 1_565 S
C1845 C1864 1.368 . S
C1845 H1869 0.939 1_565 S
H1846 C1850 0.949 . S
C1847 C1848 1.349 . S
C1847 C1849 1.327 . S
C1847 H1870 0.950 . S
C1848 C1847 1.349 . S
C1848 C1860 1.342 1_455 S
C1849 C1847 1.327 . S
C1849 C1865 1.429 . S
C1849 H1871 0.950 . S
C1850 H1846 0.949 . S
C1850 C1858 1.574 . S
C1850 C1866 1.368 1_565 S
H1851 C1859 0.950 . S
H1852 C1857 0.950 . S
H1853 C1858 0.949 . S
H1854 C1860 0.985 . S
H1855 C1861 0.950 . S
H1856 C1862 0.949 . S
C1857 H1852 0.950 . S
C1857 C1859 1.327 . S
C1857 C1863 1.429 . S
C1858 C1850 1.574 . S
C1858 H1853 0.949 . S
C1858 C1864 1.368 . S
C1859 C1843 1.349 . S
C1859 H1851 0.950 . S
C1859 C1857 1.327 . S
C1860 C1848 1.342 1_655 S
C1860 H1854 0.985 . S
C1860 C1861 1.302 1_655 S
C1861 H1855 0.950 . S
C1861 C1860 1.302 1_455 S
C1861 C1865 1.429 . S
C1862 C1845 1.574 1_545 S
C1862 H1856 0.949 . S
C1862 C1866 1.368 . S
C1863 C1844 1.429 . S
C1863 C1857 1.429 . S
C1863 C1864 1.523 . S
C1864 C1845 1.368 . S
C1864 C1858 1.368 . S
C1864 C1863 1.523 . S
C1865 C1849 1.429 . S
C1865 C1861 1.429 . S
C1865 C1866 1.523 . S
C1866 C1850 1.368 1_545 S
C1866 C1862 1.368 . S
C1866 C1865 1.523 . S
H1867 C1842 0.950 . S
H1868 C1844 0.950 . S
H1869 C1845 0.939 1_545 S
H1870 C1847 0.950 . S
H1871 C1849 0.950 . S
C1872 C1873 1.349 . S
C1872 C1874 1.327 . S
C1872 H1897 0.950 . S
C1873 C1872 1.349 . S
C1873 C1889 1.349 . S
C1874 C1872 1.327 . S
C1874 C1893 1.429 . S
C1874 H1898 0.950 . S
C1875 C1892 1.574 . S
C1875 C1894 1.368 . S
C1875 H1899 0.949 . S
H1876 C1880 0.949 . S
C1877 C1878 1.349 . S
C1877 C1879 1.327 . S
C1877 H1900 0.950 . S
C1878 C1877 1.349 . S
C1878 C1890 1.349 . S
C1879 C1877 1.327 . S
C1879 C1895 1.429 . S
C1879 H1901 0.950 . S
C1880 H1876 0.949 . S
C1880 C1888 1.574 . S
C1880 C1896 1.368 . S
H1881 C1889 0.950 . S
H1882 C1887 0.950 . S
H1883 C1888 0.949 . S
H1884 C1890 0.950 . S
H1885 C1891 0.950 . S
H1886 C1892 0.949 . S
C1887 H1882 0.950 . S
C1887 C1889 1.327 . S
C1887 C1893 1.429 . S
C1888 C1880 1.574 . S
C1888 H1883 0.949 . S
C1888 C1894 1.368 . S
C1889 C1873 1.349 . S
C1889 H1881 0.950 . S
C1889 C1887 1.327 . S
C1890 C1878 1.349 . S
C1890 H1884 0.950 . S
C1890 C1891 1.327 . S
C1891 H1885 0.950 . S
C1891 C1890 1.327 . S
C1891 C1895 1.429 . S
C1892 C1875 1.574 . S
C1892 H1886 0.949 . S
C1892 C1896 1.368 . S
C1893 C1874 1.429 . S
C1893 C1887 1.429 . S
C1893 C1894 1.523 . S
C1894 C1875 1.368 . S
C1894 C1888 1.368 . S
C1894 C1893 1.523 . S
C1895 C1879 1.429 . S
C1895 C1891 1.429 . S
C1895 C1896 1.523 . S
C1896 C1880 1.368 . S
C1896 C1892 1.368 . S
C1896 C1895 1.523 . S
H1897 C1872 0.950 . S
H1898 C1874 0.950 . S
H1899 C1875 0.949 . S
H1900 C1877 0.950 . S
H1901 C1879 0.950 . S
C1902 C1903 1.349 . S
C1902 C1904 1.327 . S
C1902 H1927 0.950 . S
C1903 C1902 1.349 . S
C1903 C1919 1.349 . S
C1904 C1902 1.327 . S
C1904 C1923 1.429 . S
C1904 H1928 0.950 . S
C1905 C1922 1.574 . S
C1905 C1924 1.368 . S
C1905 H1929 0.949 . S
H1906 C1910 0.949 . S
C1907 C1908 1.349 . S
C1907 C1909 1.327 . S
C1907 H1930 0.950 . S
C1908 C1907 1.349 . S
C1908 C1920 1.349 . S
C1909 C1907 1.327 . S
C1909 C1925 1.429 . S
C1909 H1931 0.950 . S
C1910 H1906 0.949 . S
C1910 C1918 1.574 . S
C1910 C1926 1.368 . S
H1911 C1919 0.950 . S
H1912 C1917 0.950 . S
H1913 C1918 0.949 . S
H1914 C1920 0.950 . S
H1915 C1921 0.950 . S
H1916 C1922 0.949 . S
C1917 H1912 0.950 . S
C1917 C1919 1.327 . S
C1917 C1923 1.429 . S
C1918 C1910 1.574 . S
C1918 H1913 0.949 . S
C1918 C1924 1.368 . S
C1919 C1903 1.349 . S
C1919 H1911 0.950 . S
C1919 C1917 1.327 . S
C1920 C1908 1.349 . S
C1920 H1914 0.950 . S
C1920 C1921 1.327 . S
C1921 H1915 0.950 . S
C1921 C1920 1.327 . S
C1921 C1925 1.429 . S
C1922 C1905 1.574 . S
C1922 H1916 0.949 . S
C1922 C1926 1.368 . S
C1923 C1904 1.429 . S
C1923 C1917 1.429 . S
C1923 C1924 1.523 . S
C1924 C1905 1.368 . S
C1924 C1918 1.368 . S
C1924 C1923 1.523 . S
C1925 C1909 1.429 . S
C1925 C1921 1.429 . S
C1925 C1926 1.523 . S
C1926 C1910 1.368 . S
C1926 C1922 1.368 . S
C1926 C1925 1.523 . S
H1927 C1902 0.950 . S
H1928 C1904 0.950 . S
H1929 C1905 0.949 . S
H1930 C1907 0.950 . S
H1931 C1909 0.950 . S
C1932 C1933 1.349 . S
C1932 C1934 1.327 . S
C1932 H1957 0.950 . S
C1933 C1932 1.349 . S
C1933 C1949 1.349 1_554 S
C1934 C1932 1.327 . S
C1934 C1953 1.429 . S
C1934 H1958 0.950 . S
C1935 C1952 1.574 . S
C1935 C1954 1.368 1_455 S
C1935 H1959 0.949 . S
H1936 C1940 0.949 . S
C1937 C1938 1.349 . S
C1937 C1939 1.327 . S
C1937 H1960 0.950 . S
C1938 C1937 1.349 . S
C1938 C1950 1.349 . S
C1939 C1937 1.327 . S
C1939 C1955 1.429 . S
C1939 H1961 0.950 . S
C1940 H1936 0.949 . S
C1940 C1948 1.574 1_455 S
C1940 C1956 1.368 . S
H1941 C1949 0.950 . S
H1942 C1947 0.950 1_556 S
H1943 C1948 0.949 . S
H1944 C1950 0.950 . S
H1945 C1951 0.950 . S
H1946 C1952 0.949 . S
C1947 H1942 0.950 1_554 S
C1947 C1949 1.327 1_554 S
C1947 C1953 1.429 . S
C1948 C1940 1.574 1_655 S
C1948 H1943 0.949 . S
C1948 C1954 1.368 . S
C1949 C1933 1.349 1_556 S
C1949 H1941 0.950 . S
C1949 C1947 1.327 1_556 S
C1950 C1938 1.349 . S
C1950 H1944 0.950 . S
C1950 C1951 1.327 . S
C1951 H1945 0.950 . S
C1951 C1950 1.327 . S
C1951 C1955 1.429 . S
C1952 C1935 1.574 . S
C1952 H1946 0.949 . S
C1952 C1956 1.368 . S
C1953 C1934 1.429 . S
C1953 C1947 1.429 . S
C1953 C1954 1.523 . S
C1954 C1935 1.368 1_655 S
C1954 C1948 1.368 . S
C1954 C1953 1.523 . S
C1955 C1939 1.429 . S
C1955 C1951 1.429 . S
C1955 C1956 1.523 . S
C1956 C1940 1.368 . S
C1956 C1952 1.368 . S
C1956 C1955 1.523 . S
H1957 C1932 0.950 . S
H1958 C1934 0.950 . S
H1959 C1935 0.949 . S
H1960 C1937 0.950 . S
H1961 C1939 0.950 . S
C1962 C1963 1.349 . S
C1962 C1964 1.327 . S
C1962 H1987 0.950 . S
C1963 C1962 1.349 . S
C1963 C1979 1.349 . S
C1964 C1962 1.327 . S
C1964 C1983 1.429 . S
C1964 H1988 0.950 . S
C1965 C1982 1.574 . S
C1965 C1984 1.368 . S
C1965 H1989 0.949 . S
H1966 C1970 0.949 . S
C1967 C1968 1.349 . S
C1967 C1969 1.327 . S
C1967 H1990 0.950 . S
C1968 C1967 1.349 . S
C1968 C1980 1.349 . S
C1969 C1967 1.327 . S
C1969 C1985 1.429 . S
C1969 H1991 0.950 . S
C1970 H1966 0.949 . S
C1970 C1978 1.574 . S
C1970 C1986 1.368 . S
H1971 C1979 0.950 . S
H1972 C1977 0.950 . S
H1973 C1978 0.949 . S
H1974 C1980 0.950 . S
H1975 C1981 0.950 . S
H1976 C1982 0.949 . S
C1977 H1972 0.950 . S
C1977 C1979 1.327 . S
C1977 C1983 1.429 . S
C1978 C1970 1.574 . S
C1978 H1973 0.949 . S
C1978 C1984 1.368 . S
C1979 C1963 1.349 . S
C1979 H1971 0.950 . S
C1979 C1977 1.327 . S
C1980 C1968 1.349 . S
C1980 H1974 0.950 . S
C1980 C1981 1.327 . S
C1981 H1975 0.950 . S
C1981 C1980 1.327 . S
C1981 C1985 1.429 . S
C1982 C1965 1.574 . S
C1982 H1976 0.949 . S
C1982 C1986 1.368 . S
C1983 C1964 1.429 . S
C1983 C1977 1.429 . S
C1983 C1984 1.523 . S
C1984 C1965 1.368 . S
C1984 C1978 1.368 . S
C1984 C1983 1.523 . S
C1985 C1969 1.429 . S
C1985 C1981 1.429 . S
C1985 C1986 1.523 . S
C1986 C1970 1.368 . S
C1986 C1982 1.368 . S
C1986 C1985 1.523 . S
H1987 C1962 0.950 . S
H1988 C1964 0.950 . S
H1989 C1965 0.949 . S
H1990 C1967 0.950 . S
H1991 C1969 0.950 . S
C1992 C1993 1.349 . S
C1992 C1994 1.327 . S
C1992 H2017 0.950 . S
C1993 C1992 1.349 . S
C1993 C2009 1.349 1_554 S
C1994 C1992 1.327 . S
C1994 C2013 1.429 . S
C1994 H2018 0.950 . S
C1995 C2012 1.567 1_455 S
C1995 C2014 1.371 . S
C1995 H2019 0.953 . S
H1996 C2000 0.949 . S
C1997 C1998 1.349 . S
C1997 C1999 1.327 . S
C1997 H2020 0.950 . S
C1998 C1997 1.349 . S
C1998 C2010 1.349 . S
C1999 C1997 1.327 . S
C1999 C2015 1.429 . S
C1999 H2021 0.950 . S
C2000 H1996 0.949 . S
C2000 C2008 1.574 1_655 S
C2000 C2016 1.368 . S
H2001 C2009 0.950 . S
H2002 C2007 0.950 . S
H2003 C2008 0.949 . S
H2004 C2010 0.950 . S
H2005 C2011 0.950 . S
H2006 C2012 0.949 . S
C2007 H2002 0.950 . S
C2007 C2009 1.327 1_554 S
C2007 C2013 1.429 . S
C2008 C2000 1.574 1_455 S
C2008 H2003 0.949 . S
C2008 C2014 1.368 . S
C2009 C1993 1.349 1_556 S
C2009 H2001 0.950 . S
C2009 C2007 1.327 1_556 S
C2010 C1998 1.349 . S
C2010 H2004 0.950 . S
C2010 C2011 1.327 . S
C2011 H2005 0.950 . S
C2011 C2010 1.327 . S
C2011 C2015 1.429 . S
C2012 C1995 1.567 1_655 S
C2012 H2006 0.949 . S
C2012 C2016 1.368 . S
C2013 C1994 1.429 . S
C2013 C2007 1.429 . S
C2013 C2014 1.523 . S
C2014 C1995 1.371 . S
C2014 C2008 1.368 . S
C2014 C2013 1.523 . S
C2015 C1999 1.429 . S
C2015 C2011 1.429 . S
C2015 C2016 1.523 . S
C2016 C2000 1.368 . S
C2016 C2012 1.368 . S
C2016 C2015 1.523 . S
H2017 C1992 0.950 . S
H2018 C1994 0.950 . S
H2019 C1995 0.953 . S
H2020 C1997 0.950 . S
H2021 C1999 0.950 . S
C2022 C2023 1.349 . S
C2022 C2024 1.327 . S
C2022 H2047 0.950 . S
C2023 C2022 1.349 . S
C2023 C2039 1.349 . S
C2024 C2022 1.327 . S
C2024 C2043 1.429 . S
C2024 H2048 0.950 . S
C2025 C2042 1.574 . S
C2025 C2044 1.368 . S
C2025 H2049 0.949 . S
H2026 C2030 0.949 . S
C2027 C2028 1.349 . S
C2027 C2029 1.327 . S
C2027 H2050 0.950 . S
C2028 C2027 1.349 . S
C2028 C2040 1.349 . S
C2029 C2027 1.327 . S
C2029 C2045 1.429 . S
C2029 H2051 0.950 . S
C2030 H2026 0.949 . S
C2030 C2038 1.574 . S
C2030 C2046 1.368 . S
H2031 C2039 0.950 . S
H2032 C2037 0.950 . S
H2033 C2038 0.949 . S
H2034 C2040 0.950 . S
H2035 C2041 0.950 . S
H2036 C2042 0.949 . S
C2037 H2032 0.950 . S
C2037 C2039 1.327 . S
C2037 C2043 1.429 . S
C2038 C2030 1.574 . S
C2038 H2033 0.949 . S
C2038 C2044 1.368 . S
C2039 C2023 1.349 . S
C2039 H2031 0.950 . S
C2039 C2037 1.327 . S
C2040 C2028 1.349 . S
C2040 H2034 0.950 . S
C2040 C2041 1.327 . S
C2041 H2035 0.950 . S
C2041 C2040 1.327 . S
C2041 C2045 1.429 . S
C2042 C2025 1.574 . S
C2042 H2036 0.949 . S
C2042 C2046 1.368 . S
C2043 C2024 1.429 . S
C2043 C2037 1.429 . S
C2043 C2044 1.523 . S
C2044 C2025 1.368 . S
C2044 C2038 1.368 . S
C2044 C2043 1.523 . S
C2045 C2029 1.429 . S
C2045 C2041 1.429 . S
C2045 C2046 1.523 . S
C2046 C2030 1.368 . S
C2046 C2042 1.368 . S
C2046 C2045 1.523 . S
H2047 C2022 0.950 . S
H2048 C2024 0.950 . S
H2049 C2025 0.949 . S
H2050 C2027 0.950 . S
H2051 C2029 0.950 . S
C2052 C2053 1.349 . S
C2052 C2054 1.327 . S
C2052 H2077 0.950 . S
C2053 C2052 1.349 . S
C2053 C2069 1.349 . S
C2054 C2052 1.327 . S
C2054 C2073 1.429 . S
C2054 H2078 0.950 . S
C2055 C2072 1.574 . S
C2055 C2074 1.368 1_455 S
C2055 H2079 0.949 . S
H2056 C2060 0.949 . S
C2057 C2058 1.349 . S
C2057 C2059 1.327 . S
C2057 H2080 0.950 . S
C2058 C2057 1.349 . S
C2058 C2070 1.349 . S
C2059 C2057 1.327 . S
C2059 C2075 1.429 . S
C2059 H2081 0.950 . S
C2060 H2056 0.949 . S
C2060 C2068 1.574 1_455 S
C2060 C2076 1.368 . S
H2061 C2069 0.950 . S
H2062 C2067 0.950 . S
H2063 C2068 0.949 . S
H2064 C2070 0.950 . S
H2065 C2071 0.950 . S
H2066 C2072 0.949 . S
C2067 H2062 0.950 . S
C2067 C2069 1.327 . S
C2067 C2073 1.429 . S
C2068 C2060 1.574 1_655 S
C2068 H2063 0.949 . S
C2068 C2074 1.368 . S
C2069 C2053 1.349 . S
C2069 H2061 0.950 . S
C2069 C2067 1.327 . S
C2070 C2058 1.349 . S
C2070 H2064 0.950 . S
C2070 C2071 1.327 . S
C2071 H2065 0.950 . S
C2071 C2070 1.327 . S
C2071 C2075 1.429 . S
C2072 C2055 1.574 . S
C2072 H2066 0.949 . S
C2072 C2076 1.368 . S
C2073 C2054 1.429 . S
C2073 C2067 1.429 . S
C2073 C2074 1.523 . S
C2074 C2055 1.368 1_655 S
C2074 C2068 1.368 . S
C2074 C2073 1.523 . S
C2075 C2059 1.429 . S
C2075 C2071 1.429 . S
C2075 C2076 1.523 . S
C2076 C2060 1.368 . S
C2076 C2072 1.368 . S
C2076 C2075 1.523 . S
H2077 C2052 0.950 . S
H2078 C2054 0.950 . S
H2079 C2055 0.949 . S
H2080 C2057 0.950 . S
H2081 C2059 0.950 . S
C2082 C2083 1.349 . S
C2082 C2084 1.327 . S
C2082 H2107 0.950 . S
C2083 C2082 1.349 . S
C2083 C2099 1.349 . S
C2084 C2082 1.327 . S
C2084 C2103 1.429 . S
C2084 H2108 0.950 . S
C2085 C2102 1.574 . S
C2085 C2104 1.368 . S
C2085 H2109 0.949 . S
H2086 C2090 0.949 . S
C2087 C2088 1.349 1_554 S
C2087 C2089 1.327 1_554 S
C2087 H2110 0.950 . S
C2088 C2087 1.349 1_556 S
C2088 C2100 1.349 . S
C2089 C2087 1.327 1_556 S
C2089 C2105 1.429 . S
C2089 H2111 0.950 1_556 S
C2090 H2086 0.949 . S
C2090 C2098 1.574 . S
C2090 C2106 1.368 . S
H2091 C2099 0.950 . S
H2092 C2097 0.950 . S
H2093 C2098 0.949 . S
H2094 C2100 0.950 . S
H2095 C2101 0.950 . S
H2096 C2102 0.949 . S
C2097 H2092 0.950 . S
C2097 C2099 1.327 . S
C2097 C2103 1.429 . S
C2098 C2090 1.574 . S
C2098 H2093 0.949 . S
C2098 C2104 1.368 . S
C2099 C2083 1.349 . S
C2099 H2091 0.950 . S
C2099 C2097 1.327 . S
C2100 C2088 1.349 . S
C2100 H2094 0.950 . S
C2100 C2101 1.327 . S
C2101 H2095 0.950 . S
C2101 C2100 1.327 . S
C2101 C2105 1.429 . S
C2102 C2085 1.574 . S
C2102 H2096 0.949 . S
C2102 C2106 1.368 . S
C2103 C2084 1.429 . S
C2103 C2097 1.429 . S
C2103 C2104 1.523 . S
C2104 C2085 1.368 . S
C2104 C2098 1.368 . S
C2104 C2103 1.523 . S
C2105 C2089 1.429 . S
C2105 C2101 1.429 . S
C2105 C2106 1.523 . S
C2106 C2090 1.368 . S
C2106 C2102 1.368 . S
C2106 C2105 1.523 . S
H2107 C2082 0.950 . S
H2108 C2084 0.950 . S
H2109 C2085 0.949 . S
H2110 C2087 0.950 . S
H2111 C2089 0.950 1_554 S
C2112 C2113 1.349 . S
C2112 C2114 1.327 . S
C2112 H2137 0.950 . S
C2113 C2112 1.349 . S
C2113 C2129 1.349 . S
C2114 C2112 1.327 . S
C2114 C2133 1.429 . S
C2114 H2138 0.950 . S
C2115 C2132 1.574 . S
C2115 C2134 1.368 . S
C2115 H2139 0.949 . S
H2116 C2120 0.949 . S
C2117 C2118 1.349 . S
C2117 C2119 1.327 . S
C2117 H2140 0.950 . S
C2118 C2117 1.349 . S
C2118 C2130 1.349 . S
C2119 C2117 1.327 . S
C2119 C2135 1.429 . S
C2119 H2141 0.950 . S
C2120 H2116 0.949 . S
C2120 C2128 1.574 . S
C2120 C2136 1.368 . S
H2121 C2129 0.950 . S
H2122 C2127 0.950 . S
H2123 C2128 0.949 . S
H2124 C2130 0.950 . S
H2125 C2131 0.950 . S
H2126 C2132 0.949 . S
C2127 H2122 0.950 . S
C2127 C2129 1.327 . S
C2127 C2133 1.429 . S
C2128 C2120 1.574 . S
C2128 H2123 0.949 . S
C2128 C2134 1.368 . S
C2129 C2113 1.349 . S
C2129 H2121 0.950 . S
C2129 C2127 1.327 . S
C2130 C2118 1.349 . S
C2130 H2124 0.950 . S
C2130 C2131 1.327 . S
C2131 H2125 0.950 . S
C2131 C2130 1.327 . S
C2131 C2135 1.429 . S
C2132 C2115 1.574 . S
C2132 H2126 0.949 . S
C2132 C2136 1.368 . S
C2133 C2114 1.429 . S
C2133 C2127 1.429 . S
C2133 C2134 1.523 . S
C2134 C2115 1.368 . S
C2134 C2128 1.368 . S
C2134 C2133 1.523 . S
C2135 C2119 1.429 . S
C2135 C2131 1.429 . S
C2135 C2136 1.523 . S
C2136 C2120 1.368 . S
C2136 C2132 1.368 . S
C2136 C2135 1.523 . S
H2137 C2112 0.950 . S
H2138 C2114 0.950 . S
H2139 C2115 0.949 . S
H2140 C2117 0.950 . S
H2141 C2119 0.950 . S
C2142 C2143 1.349 . S
C2142 C2144 1.327 . S
C2142 H2167 0.950 . S
C2143 C2142 1.349 . S
C2143 C2159 1.349 . S
C2144 C2142 1.327 . S
C2144 C2163 1.429 . S
C2144 H2168 0.950 . S
C2145 C2162 1.574 . S
C2145 C2164 1.368 . S
C2145 H2169 0.949 . S
H2146 C2150 0.949 . S
C2147 C2148 1.349 . S
C2147 C2149 1.327 . S
C2147 H2170 0.950 . S
C2148 C2147 1.349 . S
C2148 C2160 1.349 . S
C2149 C2147 1.327 . S
C2149 C2165 1.429 . S
C2149 H2171 0.950 . S
C2150 H2146 0.949 . S
C2150 C2158 1.574 1_556 S
C2150 C2166 1.368 . S
H2151 C2159 0.950 . S
H2152 C2157 0.950 . S
H2153 C2158 0.949 . S
H2154 C2160 0.950 . S
H2155 C2161 0.950 . S
H2156 C2162 0.949 . S
C2157 H2152 0.950 . S
C2157 C2159 1.327 . S
C2157 C2163 1.429 . S
C2158 C2150 1.574 1_554 S
C2158 H2153 0.949 . S
C2158 C2164 1.368 . S
C2159 C2143 1.349 . S
C2159 H2151 0.950 . S
C2159 C2157 1.327 . S
C2160 C2148 1.349 . S
C2160 H2154 0.950 . S
C2160 C2161 1.327 . S
C2161 H2155 0.950 . S
C2161 C2160 1.327 . S
C2161 C2165 1.429 . S
C2162 C2145 1.574 . S
C2162 H2156 0.949 . S
C2162 C2166 1.368 1_554 S
C2163 C2144 1.429 . S
C2163 C2157 1.429 . S
C2163 C2164 1.523 . S
C2164 C2145 1.368 . S
C2164 C2158 1.368 . S
C2164 C2163 1.523 . S
C2165 C2149 1.429 . S
C2165 C2161 1.429 . S
C2165 C2166 1.523 . S
C2166 C2150 1.368 . S
C2166 C2162 1.368 1_556 S
C2166 C2165 1.523 . S
H2167 C2142 0.950 . S
H2168 C2144 0.950 . S
H2169 C2145 0.949 . S
H2170 C2147 0.950 . S
H2171 C2149 0.950 . S
C2172 C2173 1.349 . S
C2172 C2174 1.327 . S
C2172 H2197 0.950 . S
C2173 C2172 1.349 . S
C2173 C2189 1.349 . S
C2174 C2172 1.327 . S
C2174 C2193 1.429 . S
C2174 H2198 0.950 . S
C2175 C2192 1.574 . S
C2175 C2194 1.368 . S
C2175 H2199 0.949 . S
H2176 C2180 0.949 . S
C2177 C2178 1.349 . S
C2177 C2179 1.327 . S
C2177 H2200 0.950 . S
C2178 C2177 1.349 . S
C2178 C2190 1.349 . S
C2179 C2177 1.327 . S
C2179 C2195 1.429 . S
C2179 H2201 0.950 . S
C2180 H2176 0.949 . S
C2180 C2188 1.574 . S
C2180 C2196 1.368 . S
H2181 C2189 0.950 . S
H2182 C2187 0.950 . S
H2183 C2188 0.949 . S
H2184 C2190 0.950 . S
H2185 C2191 0.950 . S
H2186 C2192 0.949 . S
C2187 H2182 0.950 . S
C2187 C2189 1.327 . S
C2187 C2193 1.429 . S
C2188 C2180 1.574 . S
C2188 H2183 0.949 . S
C2188 C2194 1.368 . S
C2189 C2173 1.349 . S
C2189 H2181 0.950 . S
C2189 C2187 1.327 . S
C2190 C2178 1.349 . S
C2190 H2184 0.950 . S
C2190 C2191 1.327 . S
C2191 H2185 0.950 . S
C2191 C2190 1.327 . S
C2191 C2195 1.429 . S
C2192 C2175 1.574 . S
C2192 H2186 0.949 . S
C2192 C2196 1.368 . S
C2193 C2174 1.429 . S
C2193 C2187 1.429 . S
C2193 C2194 1.523 . S
C2194 C2175 1.368 . S
C2194 C2188 1.368 . S
C2194 C2193 1.523 . S
C2195 C2179 1.429 . S
C2195 C2191 1.429 . S
C2195 C2196 1.523 . S
C2196 C2180 1.368 . S
C2196 C2192 1.368 . S
C2196 C2195 1.523 . S
H2197 C2172 0.950 . S
H2198 C2174 0.950 . S
H2199 C2175 0.949 . S
H2200 C2177 0.950 . S
H2201 C2179 0.950 . S
C2202 C2203 1.349 . S
C2202 C2204 1.327 . S
C2202 H2227 0.950 . S
C2203 C2202 1.349 . S
C2203 C2219 1.349 . S
C2204 C2202 1.327 . S
C2204 C2223 1.429 . S
C2204 H2228 0.950 . S
C2205 C2222 1.574 . S
C2205 C2224 1.368 . S
C2205 H2229 0.949 . S
H2206 C2210 0.949 . S
C2207 C2208 1.349 . S
C2207 C2209 1.327 . S
C2207 H2230 0.950 . S
C2208 C2207 1.349 . S
C2208 C2220 1.349 . S
C2209 C2207 1.327 . S
C2209 C2225 1.429 . S
C2209 H2231 0.950 . S
C2210 H2206 0.949 . S
C2210 C2218 1.574 . S
C2210 C2226 1.368 . S
H2211 C2219 0.950 . S
H2212 C2217 0.950 . S
H2213 C2218 0.949 . S
H2214 C2220 0.950 . S
H2215 C2221 0.950 . S
H2216 C2222 0.949 . S
C2217 H2212 0.950 . S
C2217 C2219 1.327 . S
C2217 C2223 1.429 . S
C2218 C2210 1.574 . S
C2218 H2213 0.949 . S
C2218 C2224 1.368 . S
C2219 C2203 1.349 . S
C2219 H2211 0.950 . S
C2219 C2217 1.327 . S
C2220 C2208 1.349 . S
C2220 H2214 0.950 . S
C2220 C2221 1.327 . S
C2221 H2215 0.950 . S
C2221 C2220 1.327 . S
C2221 C2225 1.429 . S
C2222 C2205 1.574 . S
C2222 H2216 0.949 . S
C2222 C2226 1.368 . S
C2223 C2204 1.429 . S
C2223 C2217 1.429 . S
C2223 C2224 1.523 . S
C2224 C2205 1.368 . S
C2224 C2218 1.368 . S
C2224 C2223 1.523 . S
C2225 C2209 1.429 . S
C2225 C2221 1.429 . S
C2225 C2226 1.523 . S
C2226 C2210 1.368 . S
C2226 C2222 1.368 . S
C2226 C2225 1.523 . S
H2227 C2202 0.950 . S
H2228 C2204 0.950 . S
H2229 C2205 0.949 . S
H2230 C2207 0.950 . S
H2231 C2209 0.950 . S
C2232 C2233 1.349 . S
C2232 C2234 1.327 . S
C2232 H2257 0.950 . S
C2233 C2232 1.349 . S
C2233 C2249 1.349 . S
C2234 C2232 1.327 . S
C2234 C2253 1.429 . S
C2234 H2258 0.950 . S
C2235 C2252 1.574 . S
C2235 C2254 1.368 . S
C2235 H2259 0.949 . S
H2236 C2240 0.949 . S
C2237 C2238 1.349 . S
C2237 C2239 1.327 . S
C2237 H2260 0.950 . S
C2238 C2237 1.349 . S
C2238 C2250 1.349 . S
C2239 C2237 1.327 . S
C2239 C2255 1.429 . S
C2239 H2261 0.950 . S
C2240 H2236 0.949 . S
C2240 C2248 1.574 . S
C2240 C2256 1.368 . S
H2241 C2249 0.950 . S
H2242 C2247 0.950 . S
H2243 C2248 0.949 . S
H2244 C2250 0.950 . S
H2245 C2251 0.950 . S
H2246 C2252 0.949 . S
C2247 H2242 0.950 . S
C2247 C2249 1.327 . S
C2247 C2253 1.429 . S
C2248 C2240 1.574 . S
C2248 H2243 0.949 . S
C2248 C2254 1.368 . S
C2249 C2233 1.349 . S
C2249 H2241 0.950 . S
C2249 C2247 1.327 . S
C2250 C2238 1.349 . S
C2250 H2244 0.950 . S
C2250 C2251 1.327 . S
C2251 H2245 0.950 . S
C2251 C2250 1.327 . S
C2251 C2255 1.429 . S
C2252 C2235 1.574 . S
C2252 H2246 0.949 . S
C2252 C2256 1.368 . S
C2253 C2234 1.429 . S
C2253 C2247 1.429 . S
C2253 C2254 1.523 . S
C2254 C2235 1.368 . S
C2254 C2248 1.368 . S
C2254 C2253 1.523 . S
C2255 C2239 1.429 . S
C2255 C2251 1.429 . S
C2255 C2256 1.523 . S
C2256 C2240 1.368 . S
C2256 C2252 1.368 . S
C2256 C2255 1.523 . S
H2257 C2232 0.950 . S
H2258 C2234 0.950 . S
H2259 C2235 0.949 . S
H2260 C2237 0.950 . S
H2261 C2239 0.950 . S
C2262 C2263 1.349 . S
C2262 C2264 1.327 . S
C2262 H2287 0.950 . S
C2263 C2262 1.349 . S
C2263 C2279 1.349 . S
C2264 C2262 1.327 . S
C2264 C2283 1.429 . S
C2264 H2288 0.950 . S
C2265 C2282 1.574 1_556 S
C2265 C2284 1.368 . S
C2265 H2289 0.949 . S
H2266 C2270 0.949 . S
C2267 C2268 1.349 . S
C2267 C2269 1.327 . S
C2267 H2290 0.950 . S
C2268 C2267 1.349 . S
C2268 C2280 1.349 . S
C2269 C2267 1.327 . S
C2269 C2285 1.429 . S
C2269 H2291 0.950 . S
C2270 H2266 0.949 . S
C2270 C2278 1.574 . S
C2270 C2286 1.368 1_556 S
H2271 C2279 0.950 . S
H2272 C2277 0.950 . S
H2273 C2278 0.949 . S
H2274 C2280 0.950 . S
H2275 C2281 0.950 . S
H2276 C2282 0.949 . S
C2277 H2272 0.950 . S
C2277 C2279 1.327 . S
C2277 C2283 1.429 . S
C2278 C2270 1.574 . S
C2278 H2273 0.949 . S
C2278 C2284 1.368 . S
C2279 C2263 1.349 . S
C2279 H2271 0.950 . S
C2279 C2277 1.327 . S
C2280 C2268 1.349 . S
C2280 H2274 0.950 . S
C2280 C2281 1.327 . S
C2281 H2275 0.950 . S
C2281 C2280 1.327 . S
C2281 C2285 1.429 . S
C2282 C2265 1.574 1_554 S
C2282 H2276 0.949 . S
C2282 C2286 1.368 . S
C2283 C2264 1.429 . S
C2283 C2277 1.429 . S
C2283 C2284 1.523 . S
C2284 C2265 1.368 . S
C2284 C2278 1.368 . S
C2284 C2283 1.523 . S
C2285 C2269 1.429 . S
C2285 C2281 1.429 . S
C2285 C2286 1.523 . S
C2286 C2270 1.368 1_554 S
C2286 C2282 1.368 . S
C2286 C2285 1.523 . S
H2287 C2262 0.950 . S
H2288 C2264 0.950 . S
H2289 C2265 0.949 . S
H2290 C2267 0.950 . S
H2291 C2269 0.950 . S
C2292 C2293 1.349 . S
C2292 C2294 1.327 . S
C2292 H2317 0.950 . S
C2293 C2292 1.349 . S
C2293 C2309 1.349 . S
C2294 C2292 1.327 . S
C2294 C2313 1.429 . S
C2294 H2318 0.950 . S
C2295 C2312 1.574 . S
C2295 C2314 1.368 . S
C2295 H2319 0.949 . S
H2296 C2300 0.949 . S
C2297 C2298 1.349 . S
C2297 C2299 1.327 . S
C2297 H2320 0.950 . S
C2298 C2297 1.349 . S
C2298 C2310 1.349 . S
C2299 C2297 1.327 . S
C2299 C2315 1.429 . S
C2299 H2321 0.950 . S
C2300 H2296 0.949 . S
C2300 C2308 1.574 . S
C2300 C2316 1.368 . S
H2301 C2309 0.950 . S
H2302 C2307 0.950 . S
H2303 C2308 0.949 . S
H2304 C2310 0.950 . S
H2305 C2311 0.950 . S
H2306 C2312 0.949 . S
C2307 H2302 0.950 . S
C2307 C2309 1.327 . S
C2307 C2313 1.429 . S
C2308 C2300 1.574 . S
C2308 H2303 0.949 . S
C2308 C2314 1.368 . S
C2309 C2293 1.349 . S
C2309 H2301 0.950 . S
C2309 C2307 1.327 . S
C2310 C2298 1.349 . S
C2310 H2304 0.950 . S
C2310 C2311 1.327 . S
C2311 H2305 0.950 . S
C2311 C2310 1.327 . S
C2311 C2315 1.429 . S
C2312 C2295 1.574 . S
C2312 H2306 0.949 . S
C2312 C2316 1.368 . S
C2313 C2294 1.429 . S
C2313 C2307 1.429 . S
C2313 C2314 1.523 . S
C2314 C2295 1.368 . S
C2314 C2308 1.368 . S
C2314 C2313 1.523 . S
C2315 C2299 1.429 . S
C2315 C2311 1.429 . S
C2315 C2316 1.523 . S
C2316 C2300 1.368 . S
C2316 C2312 1.368 . S
C2316 C2315 1.523 . S
H2317 C2292 0.950 . S
H2318 C2294 0.950 . S
H2319 C2295 0.949 . S
H2320 C2297 0.950 . S
H2321 C2299 0.950 . S
C2322 C2323 1.349 . S
C2322 C2324 1.327 . S
C2322 H2347 0.950 . S
C2323 C2322 1.349 . S
C2323 C2339 1.349 . S
C2324 C2322 1.327 . S
C2324 C2343 1.429 . S
C2324 H2348 0.950 . S
C2325 C2342 1.574 . S
C2325 C2344 1.368 . S
C2325 H2349 0.949 . S
H2326 C2330 0.949 . S
C2327 C2328 1.349 . S
C2327 C2329 1.327 . S
C2327 H2350 0.950 . S
C2328 C2327 1.349 . S
C2328 C2340 1.349 . S
C2329 C2327 1.327 . S
C2329 C2345 1.429 . S
C2329 H2351 0.950 . S
C2330 H2326 0.949 . S
C2330 C2338 1.574 . S
C2330 C2346 1.368 . S
H2331 C2339 0.950 . S
H2332 C2337 0.950 . S
H2333 C2338 0.949 . S
H2334 C2340 0.950 . S
H2335 C2341 0.950 . S
H2336 C2342 0.949 . S
C2337 H2332 0.950 . S
C2337 C2339 1.327 . S
C2337 C2343 1.429 . S
C2338 C2330 1.574 . S
C2338 H2333 0.949 . S
C2338 C2344 1.368 . S
C2339 C2323 1.349 . S
C2339 H2331 0.950 . S
C2339 C2337 1.327 . S
C2340 C2328 1.349 . S
C2340 H2334 0.950 . S
C2340 C2341 1.327 . S
C2341 H2335 0.950 . S
C2341 C2340 1.327 . S
C2341 C2345 1.429 . S
C2342 C2325 1.574 . S
C2342 H2336 0.949 . S
C2342 C2346 1.368 . S
C2343 C2324 1.429 . S
C2343 C2337 1.429 . S
C2343 C2344 1.523 . S
C2344 C2325 1.368 . S
C2344 C2338 1.368 . S
C2344 C2343 1.523 . S
C2345 C2329 1.429 . S
C2345 C2341 1.429 . S
C2345 C2346 1.523 . S
C2346 C2330 1.368 . S
C2346 C2342 1.368 . S
C2346 C2345 1.523 . S
H2347 C2322 0.950 . S
H2348 C2324 0.950 . S
H2349 C2325 0.949 . S
H2350 C2327 0.950 . S
H2351 C2329 0.950 . S
C2352 C2353 1.349 . S
C2352 C2354 1.327 . S
C2352 H2377 0.950 . S
C2353 C2352 1.349 . S
C2353 C2369 1.349 . S
C2354 C2352 1.327 . S
C2354 C2373 1.429 . S
C2354 H2378 0.950 . S
C2355 C2372 1.574 . S
C2355 C2374 1.368 . S
C2355 H2379 0.949 . S
H2356 C2360 0.949 . S
C2357 C2358 1.349 . S
C2357 C2359 1.327 . S
C2357 H2380 0.950 . S
C2358 C2357 1.349 . S
C2358 C2370 1.349 . S
C2359 C2357 1.327 . S
C2359 C2375 1.429 . S
C2359 H2381 0.950 . S
C2360 H2356 0.949 . S
C2360 C2368 1.574 . S
C2360 C2376 1.368 . S
H2361 C2369 0.950 . S
H2362 C2367 0.950 . S
H2363 C2368 0.949 . S
H2364 C2370 0.950 . S
H2365 C2371 0.950 . S
H2366 C2372 0.949 . S
C2367 H2362 0.950 . S
C2367 C2369 1.327 . S
C2367 C2373 1.429 . S
C2368 C2360 1.574 . S
C2368 H2363 0.949 . S
C2368 C2374 1.368 . S
C2369 C2353 1.349 . S
C2369 H2361 0.950 . S
C2369 C2367 1.327 . S
C2370 C2358 1.349 . S
C2370 H2364 0.950 . S
C2370 C2371 1.327 . S
C2371 H2365 0.950 . S
C2371 C2370 1.327 . S
C2371 C2375 1.429 . S
C2372 C2355 1.574 . S
C2372 H2366 0.949 . S
C2372 C2376 1.368 . S
C2373 C2354 1.429 . S
C2373 C2367 1.429 . S
C2373 C2374 1.523 . S
C2374 C2355 1.368 . S
C2374 C2368 1.368 . S
C2374 C2373 1.523 . S
C2375 C2359 1.429 . S
C2375 C2371 1.429 . S
C2375 C2376 1.523 . S
C2376 C2360 1.368 . S
C2376 C2372 1.368 . S
C2376 C2375 1.523 . S
H2377 C2352 0.950 . S
H2378 C2354 0.950 . S
H2379 C2355 0.949 . S
H2380 C2357 0.950 . S
H2381 C2359 0.950 . S
C2382 C2383 1.349 . S
C2382 C2384 1.327 . S
C2382 H2407 0.950 . S
C2383 C2382 1.349 . S
C2383 C2399 1.349 . S
C2384 C2382 1.327 . S
C2384 C2403 1.429 . S
C2384 H2408 0.950 . S
C2385 C2402 1.574 . S
C2385 C2404 1.368 . S
C2385 H2409 0.949 . S
H2386 C2390 0.949 . S
C2387 C2388 1.349 . S
C2387 C2389 1.327 . S
C2387 H2410 0.950 . S
C2388 C2387 1.349 . S
C2388 C2400 1.349 . S
C2389 C2387 1.327 . S
C2389 C2405 1.429 . S
C2389 H2411 0.950 . S
C2390 H2386 0.949 . S
C2390 C2398 1.574 . S
C2390 C2406 1.368 . S
H2391 C2399 0.950 . S
H2392 C2397 0.950 . S
H2393 C2398 0.949 . S
H2394 C2400 0.950 . S
H2395 C2401 0.950 . S
H2396 C2402 0.949 . S
C2397 H2392 0.950 . S
C2397 C2399 1.327 . S
C2397 C2403 1.429 . S
C2398 C2390 1.574 . S
C2398 H2393 0.949 . S
C2398 C2404 1.368 . S
C2399 C2383 1.349 . S
C2399 H2391 0.950 . S
C2399 C2397 1.327 . S
C2400 C2388 1.349 . S
C2400 H2394 0.950 . S
C2400 C2401 1.327 . S
C2401 H2395 0.950 . S
C2401 C2400 1.327 . S
C2401 C2405 1.429 . S
C2402 C2385 1.574 . S
C2402 H2396 0.949 . S
C2402 C2406 1.368 . S
C2403 C2384 1.429 . S
C2403 C2397 1.429 . S
C2403 C2404 1.523 . S
C2404 C2385 1.368 . S
C2404 C2398 1.368 . S
C2404 C2403 1.523 . S
C2405 C2389 1.429 . S
C2405 C2401 1.429 . S
C2405 C2406 1.523 . S
C2406 C2390 1.368 . S
C2406 C2402 1.368 . S
C2406 C2405 1.523 . S
H2407 C2382 0.950 . S
H2408 C2384 0.950 . S
H2409 C2385 0.949 . S
H2410 C2387 0.950 . S
H2411 C2389 0.950 . S
C2412 C2413 1.349 . S
C2412 C2414 1.327 . S
C2412 H2437 0.950 . S
C2413 C2412 1.349 . S
C2413 C2429 1.349 . S
C2414 C2412 1.327 . S
C2414 C2433 1.429 . S
C2414 H2438 0.950 . S
C2415 C2432 1.574 . S
C2415 C2434 1.368 . S
C2415 H2439 0.949 . S
H2416 C2420 0.949 . S
C2417 C2418 1.349 . S
C2417 C2419 1.327 . S
C2417 H2440 0.950 . S
C2418 C2417 1.349 . S
C2418 C2430 1.349 . S
C2419 C2417 1.327 . S
C2419 C2435 1.429 . S
C2419 H2441 0.950 . S
C2420 H2416 0.949 . S
C2420 C2428 1.574 . S
C2420 C2436 1.368 . S
H2421 C2429 0.950 . S
H2422 C2427 0.950 . S
H2423 C2428 0.949 . S
H2424 C2430 0.950 . S
H2425 C2431 0.950 . S
H2426 C2432 0.949 . S
C2427 H2422 0.950 . S
C2427 C2429 1.327 . S
C2427 C2433 1.429 . S
C2428 C2420 1.574 . S
C2428 H2423 0.949 . S
C2428 C2434 1.368 . S
C2429 C2413 1.349 . S
C2429 H2421 0.950 . S
C2429 C2427 1.327 . S
C2430 C2418 1.349 . S
C2430 H2424 0.950 . S
C2430 C2431 1.327 . S
C2431 H2425 0.950 . S
C2431 C2430 1.327 . S
C2431 C2435 1.429 . S
C2432 C2415 1.574 . S
C2432 H2426 0.949 . S
C2432 C2436 1.368 . S
C2433 C2414 1.429 . S
C2433 C2427 1.429 . S
C2433 C2434 1.523 . S
C2434 C2415 1.368 . S
C2434 C2428 1.368 . S
C2434 C2433 1.523 . S
C2435 C2419 1.429 . S
C2435 C2431 1.429 . S
C2435 C2436 1.523 . S
C2436 C2420 1.368 . S
C2436 C2432 1.368 . S
C2436 C2435 1.523 . S
H2437 C2412 0.950 . S
H2438 C2414 0.950 . S
H2439 C2415 0.949 . S
H2440 C2417 0.950 . S
H2441 C2419 0.950 . S
C2442 C2443 1.349 . S
C2442 C2444 1.327 . S
C2442 H2467 0.950 . S
C2443 C2442 1.349 . S
C2443 C2459 1.349 . S
C2444 C2442 1.327 . S
C2444 C2463 1.429 . S
C2444 H2468 0.950 . S
C2445 C2462 1.574 . S
C2445 C2464 1.368 . S
C2445 H2469 0.949 . S
H2446 C2450 0.949 . S
C2447 C2448 1.349 . S
C2447 C2449 1.327 . S
C2447 H2470 0.950 . S
C2448 C2447 1.349 . S
C2448 C2460 1.349 . S
C2449 C2447 1.327 . S
C2449 C2465 1.429 . S
C2449 H2471 0.950 . S
C2450 H2446 0.949 . S
C2450 C2458 1.574 . S
C2450 C2466 1.368 . S
H2451 C2459 0.952 1_455 S
H2452 C2457 0.950 . S
H2453 C2458 0.949 . S
H2454 C2460 0.950 . S
H2455 C2461 0.950 . S
H2456 C2462 0.949 . S
C2457 H2452 0.950 . S
C2457 C2459 1.325 . S
C2457 C2463 1.429 . S
C2458 C2450 1.574 . S
C2458 H2453 0.949 . S
C2458 C2464 1.368 . S
C2459 C2443 1.349 . S
C2459 H2451 0.952 1_655 S
C2459 C2457 1.325 . S
C2460 C2448 1.349 . S
C2460 H2454 0.950 . S
C2460 C2461 1.327 . S
C2461 H2455 0.950 . S
C2461 C2460 1.327 . S
C2461 C2465 1.429 . S
C2462 C2445 1.574 . S
C2462 H2456 0.949 . S
C2462 C2466 1.368 . S
C2463 C2444 1.429 . S
C2463 C2457 1.429 . S
C2463 C2464 1.523 . S
C2464 C2445 1.368 . S
C2464 C2458 1.368 . S
C2464 C2463 1.523 . S
C2465 C2449 1.429 . S
C2465 C2461 1.429 . S
C2465 C2466 1.523 . S
C2466 C2450 1.368 . S
C2466 C2462 1.368 . S
C2466 C2465 1.523 . S
H2467 C2442 0.950 . S
H2468 C2444 0.950 . S
H2469 C2445 0.949 . S
H2470 C2447 0.950 . S
H2471 C2449 0.950 . S
C2472 C2473 1.349 . S
C2472 C2474 1.327 . S
C2472 H2497 0.950 . S
C2473 C2472 1.349 . S
C2473 C2489 1.349 . S
C2474 C2472 1.327 . S
C2474 C2493 1.429 . S
C2474 H2498 0.950 . S
C2475 C2492 1.574 . S
C2475 C2494 1.368 . S
C2475 H2499 0.949 . S
H2476 C2480 0.949 . S
C2477 C2478 1.349 . S
C2477 C2479 1.327 . S
C2477 H2500 0.950 . S
C2478 C2477 1.349 . S
C2478 C2490 1.349 . S
C2479 C2477 1.327 . S
C2479 C2495 1.429 . S
C2479 H2501 0.950 . S
C2480 H2476 0.949 . S
C2480 C2488 1.574 . S
C2480 C2496 1.368 . S
H2481 C2489 0.950 . S
H2482 C2487 0.950 . S
H2483 C2488 0.949 . S
H2484 C2490 0.950 . S
H2485 C2491 0.950 . S
H2486 C2492 0.949 . S
C2487 H2482 0.950 . S
C2487 C2489 1.327 . S
C2487 C2493 1.429 . S
C2488 C2480 1.574 . S
C2488 H2483 0.949 . S
C2488 C2494 1.368 . S
C2489 C2473 1.349 . S
C2489 H2481 0.950 . S
C2489 C2487 1.327 . S
C2490 C2478 1.349 . S
C2490 H2484 0.950 . S
C2490 C2491 1.327 . S
C2491 H2485 0.950 . S
C2491 C2490 1.327 . S
C2491 C2495 1.429 . S
C2492 C2475 1.574 . S
C2492 H2486 0.949 . S
C2492 C2496 1.368 . S
C2493 C2474 1.429 . S
C2493 C2487 1.429 . S
C2493 C2494 1.523 . S
C2494 C2475 1.368 . S
C2494 C2488 1.368 . S
C2494 C2493 1.523 . S
C2495 C2479 1.429 . S
C2495 C2491 1.429 . S
C2495 C2496 1.523 . S
C2496 C2480 1.368 . S
C2496 C2492 1.368 . S
C2496 C2495 1.523 . S
H2497 C2472 0.950 . S
H2498 C2474 0.950 . S
H2499 C2475 0.949 . S
H2500 C2477 0.950 . S
H2501 C2479 0.950 . S
C2502 C2503 1.349 . S
C2502 C2504 1.327 . S
C2502 H2527 0.950 . S
C2503 C2502 1.349 . S
C2503 C2519 1.349 . S
C2504 C2502 1.327 . S
C2504 C2523 1.429 . S
C2504 H2528 0.950 . S
C2505 C2522 1.574 . S
C2505 C2524 1.368 . S
C2505 H2529 0.949 . S
H2506 C2510 0.949 . S
C2507 C2508 1.349 . S
C2507 C2509 1.327 . S
C2507 H2530 0.950 . S
C2508 C2507 1.349 . S
C2508 C2520 1.349 . S
C2509 C2507 1.327 . S
C2509 C2525 1.429 . S
C2509 H2531 0.950 . S
C2510 H2506 0.949 . S
C2510 C2518 1.574 . S
C2510 C2526 1.368 . S
H2511 C2519 0.950 . S
H2512 C2517 0.950 . S
H2513 C2518 0.949 . S
H2514 C2520 0.950 1_455 S
H2515 C2521 0.950 . S
H2516 C2522 0.949 . S
C2517 H2512 0.950 . S
C2517 C2519 1.327 . S
C2517 C2523 1.429 . S
C2518 C2510 1.574 . S
C2518 H2513 0.949 . S
C2518 C2524 1.368 . S
C2519 C2503 1.349 . S
C2519 H2511 0.950 . S
C2519 C2517 1.327 . S
C2520 C2508 1.349 . S
C2520 H2514 0.950 1_655 S
C2520 C2521 1.327 . S
C2521 H2515 0.950 . S
C2521 C2520 1.327 . S
C2521 C2525 1.429 . S
C2522 C2505 1.574 . S
C2522 H2516 0.949 . S
C2522 C2526 1.368 . S
C2523 C2504 1.429 . S
C2523 C2517 1.429 . S
C2523 C2524 1.523 . S
C2524 C2505 1.368 . S
C2524 C2518 1.368 . S
C2524 C2523 1.523 . S
C2525 C2509 1.429 . S
C2525 C2521 1.429 . S
C2525 C2526 1.523 . S
C2526 C2510 1.368 . S
C2526 C2522 1.368 . S
C2526 C2525 1.523 . S
H2527 C2502 0.950 . S
H2528 C2504 0.950 . S
H2529 C2505 0.949 . S
H2530 C2507 0.950 . S
H2531 C2509 0.950 . S
C2532 C2533 1.349 . S
C2532 C2534 1.327 . S
C2532 H2557 0.950 . S
C2533 C2532 1.349 . S
C2533 C2549 1.349 . S
C2534 C2532 1.327 . S
C2534 C2553 1.429 . S
C2534 H2558 0.950 . S
C2535 C2552 1.574 . S
C2535 C2554 1.368 . S
C2535 H2559 0.949 . S
H2536 C2540 0.949 . S
C2537 C2538 1.349 . S
C2537 C2539 1.327 . S
C2537 H2560 0.950 . S
C2538 C2537 1.349 . S
C2538 C2550 1.349 . S
C2539 C2537 1.327 . S
C2539 C2555 1.429 . S
C2539 H2561 0.950 . S
C2540 H2536 0.949 . S
C2540 C2548 1.574 . S
C2540 C2556 1.368 . S
H2541 C2549 0.950 . S
H2542 C2547 0.950 . S
H2543 C2548 0.949 . S
H2544 C2550 0.950 . S
H2545 C2551 0.950 . S
H2546 C2552 0.949 . S
C2547 H2542 0.950 . S
C2547 C2549 1.327 . S
C2547 C2553 1.429 . S
C2548 C2540 1.574 . S
C2548 H2543 0.949 . S
C2548 C2554 1.368 . S
C2549 C2533 1.349 . S
C2549 H2541 0.950 . S
C2549 C2547 1.327 . S
C2550 C2538 1.349 . S
C2550 H2544 0.950 . S
C2550 C2551 1.327 . S
C2551 H2545 0.950 . S
C2551 C2550 1.327 . S
C2551 C2555 1.429 . S
C2552 C2535 1.574 . S
C2552 H2546 0.949 . S
C2552 C2556 1.368 . S
C2553 C2534 1.429 . S
C2553 C2547 1.429 . S
C2553 C2554 1.523 . S
C2554 C2535 1.368 . S
C2554 C2548 1.368 . S
C2554 C2553 1.523 . S
C2555 C2539 1.429 . S
C2555 C2551 1.429 . S
C2555 C2556 1.523 . S
C2556 C2540 1.368 . S
C2556 C2552 1.368 . S
C2556 C2555 1.523 . S
H2557 C2532 0.950 . S
H2558 C2534 0.950 . S
H2559 C2535 0.949 . S
H2560 C2537 0.950 . S
H2561 C2539 0.950 . S
C2562 C2563 1.349 . S
C2562 C2564 1.327 . S
C2562 H2587 0.950 . S
C2563 C2562 1.349 . S
C2563 C2579 1.349 . S
C2564 C2562 1.327 . S
C2564 C2583 1.429 . S
C2564 H2588 0.950 . S
C2565 C2582 1.574 . S
C2565 C2584 1.368 . S
C2565 H2589 0.949 . S
H2566 C2570 0.949 . S
C2567 C2568 1.349 . S
C2567 C2569 1.327 . S
C2567 H2590 0.950 . S
C2568 C2567 1.349 . S
C2568 C2580 1.349 . S
C2569 C2567 1.327 . S
C2569 C2585 1.429 . S
C2569 H2591 0.950 . S
C2570 H2566 0.949 . S
C2570 C2578 1.574 . S
C2570 C2586 1.368 . S
H2571 C2579 0.950 . S
H2572 C2577 0.950 . S
H2573 C2578 0.949 . S
H2574 C2580 0.950 . S
H2575 C2581 0.950 . S
H2576 C2582 0.949 . S
C2577 H2572 0.950 . S
C2577 C2579 1.327 . S
C2577 C2583 1.429 . S
C2578 C2570 1.574 . S
C2578 H2573 0.949 . S
C2578 C2584 1.368 . S
C2579 C2563 1.349 . S
C2579 H2571 0.950 . S
C2579 C2577 1.327 . S
C2580 C2568 1.349 . S
C2580 H2574 0.950 . S
C2580 C2581 1.327 . S
C2581 H2575 0.950 . S
C2581 C2580 1.327 . S
C2581 C2585 1.429 . S
C2582 C2565 1.574 . S
C2582 H2576 0.949 . S
C2582 C2586 1.368 . S
C2583 C2564 1.429 . S
C2583 C2577 1.429 . S
C2583 C2584 1.523 . S
C2584 C2565 1.368 . S
C2584 C2578 1.368 . S
C2584 C2583 1.523 . S
C2585 C2569 1.429 . S
C2585 C2581 1.429 . S
C2585 C2586 1.523 . S
C2586 C2570 1.368 . S
C2586 C2582 1.368 . S
C2586 C2585 1.523 . S
H2587 C2562 0.950 . S
H2588 C2564 0.950 . S
H2589 C2565 0.949 . S
H2590 C2567 0.950 . S
H2591 C2569 0.950 . S
C2592 C2593 1.349 . S
C2592 C2594 1.327 . S
C2592 H2617 0.950 . S
C2593 C2592 1.349 . S
C2593 C2609 1.349 . S
C2594 C2592 1.327 . S
C2594 C2613 1.429 . S
C2594 H2618 0.950 . S
C2595 C2612 1.574 . S
C2595 C2614 1.368 . S
C2595 H2619 0.949 . S
H2596 C2600 0.949 . S
C2597 C2598 1.349 . S
C2597 C2599 1.327 . S
C2597 H2620 0.950 . S
C2598 C2597 1.349 . S
C2598 C2610 1.349 . S
C2599 C2597 1.327 . S
C2599 C2615 1.429 . S
C2599 H2621 0.950 . S
C2600 H2596 0.949 . S
C2600 C2608 1.574 . S
C2600 C2616 1.368 . S
H2601 C2609 0.950 . S
H2602 C2607 0.950 . S
H2603 C2608 0.949 . S
H2604 C2610 0.950 . S
H2605 C2611 0.950 . S
H2606 C2612 0.949 . S
C2607 H2602 0.950 . S
C2607 C2609 1.327 . S
C2607 C2613 1.429 . S
C2608 C2600 1.574 . S
C2608 H2603 0.949 . S
C2608 C2614 1.368 . S
C2609 C2593 1.349 . S
C2609 H2601 0.950 . S
C2609 C2607 1.327 . S
C2610 C2598 1.349 . S
C2610 H2604 0.950 . S
C2610 C2611 1.327 . S
C2611 H2605 0.950 . S
C2611 C2610 1.327 . S
C2611 C2615 1.429 . S
C2612 C2595 1.574 . S
C2612 H2606 0.949 . S
C2612 C2616 1.368 . S
C2613 C2594 1.429 . S
C2613 C2607 1.429 . S
C2613 C2614 1.523 . S
C2614 C2595 1.368 . S
C2614 C2608 1.368 . S
C2614 C2613 1.523 . S
C2615 C2599 1.429 . S
C2615 C2611 1.429 . S
C2615 C2616 1.523 . S
C2616 C2600 1.368 . S
C2616 C2612 1.368 . S
C2616 C2615 1.523 . S
H2617 C2592 0.950 . S
H2618 C2594 0.950 . S
H2619 C2595 0.949 . S
H2620 C2597 0.950 . S
H2621 C2599 0.950 . S
C2622 C2623 1.349 . S
C2622 C2624 1.327 . S
C2622 H2647 0.950 . S
C2623 C2622 1.349 . S
C2623 C2639 1.349 . S
C2624 C2622 1.327 . S
C2624 C2643 1.429 . S
C2624 H2648 0.950 . S
C2625 C2642 1.574 . S
C2625 C2644 1.368 . S
C2625 H2649 0.949 . S
H2626 C2630 0.949 . S
C2627 C2628 1.349 . S
C2627 C2629 1.327 . S
C2627 H2650 0.950 . S
C2628 C2627 1.349 . S
C2628 C2640 1.349 . S
C2629 C2627 1.327 . S
C2629 C2645 1.429 . S
C2629 H2651 0.950 . S
C2630 H2626 0.949 . S
C2630 C2638 1.574 . S
C2630 C2646 1.368 . S
H2631 C2639 0.950 . S
H2632 C2637 0.950 . S
H2633 C2638 0.949 . S
H2634 C2640 0.950 . S
H2635 C2641 0.950 . S
H2636 C2642 0.949 . S
C2637 H2632 0.950 . S
C2637 C2639 1.327 . S
C2637 C2643 1.429 . S
C2638 C2630 1.574 . S
C2638 H2633 0.949 . S
C2638 C2644 1.368 . S
C2639 C2623 1.349 . S
C2639 H2631 0.950 . S
C2639 C2637 1.327 . S
C2640 C2628 1.349 . S
C2640 H2634 0.950 . S
C2640 C2641 1.327 . S
C2641 H2635 0.950 . S
C2641 C2640 1.327 . S
C2641 C2645 1.429 . S
C2642 C2625 1.574 . S
C2642 H2636 0.949 . S
C2642 C2646 1.368 . S
C2643 C2624 1.429 . S
C2643 C2637 1.429 . S
C2643 C2644 1.523 . S
C2644 C2625 1.368 . S
C2644 C2638 1.368 . S
C2644 C2643 1.523 . S
C2645 C2629 1.429 . S
C2645 C2641 1.429 . S
C2645 C2646 1.523 . S
C2646 C2630 1.368 . S
C2646 C2642 1.368 . S
C2646 C2645 1.523 . S
H2647 C2622 0.950 . S
H2648 C2624 0.950 . S
H2649 C2625 0.949 . S
H2650 C2627 0.950 . S
H2651 C2629 0.950 . S
C2652 C2653 1.349 . S
C2652 C2654 1.327 . S
C2652 H2677 0.950 . S
C2653 C2652 1.349 . S
C2653 C2669 1.349 . S
C2654 C2652 1.327 . S
C2654 C2673 1.429 . S
C2654 H2678 0.950 . S
C2655 C2672 1.574 . S
C2655 C2674 1.368 . S
C2655 H2679 0.949 . S
H2656 C2660 0.949 . S
C2657 C2658 1.349 . S
C2657 C2659 1.327 . S
C2657 H2680 0.950 . S
C2658 C2657 1.349 . S
C2658 C2670 1.349 . S
C2659 C2657 1.327 . S
C2659 C2675 1.429 . S
C2659 H2681 0.950 . S
C2660 H2656 0.949 . S
C2660 C2668 1.574 . S
C2660 C2676 1.368 . S
H2661 C2669 0.950 . S
H2662 C2667 0.950 . S
H2663 C2668 0.949 . S
H2664 C2670 0.950 . S
H2665 C2671 0.950 . S
H2666 C2672 0.949 . S
C2667 H2662 0.950 . S
C2667 C2669 1.327 . S
C2667 C2673 1.429 . S
C2668 C2660 1.574 . S
C2668 H2663 0.949 . S
C2668 C2674 1.368 . S
C2669 C2653 1.349 . S
C2669 H2661 0.950 . S
C2669 C2667 1.327 . S
C2670 C2658 1.349 . S
C2670 H2664 0.950 . S
C2670 C2671 1.327 . S
C2671 H2665 0.950 . S
C2671 C2670 1.327 . S
C2671 C2675 1.429 . S
C2672 C2655 1.574 . S
C2672 H2666 0.949 . S
C2672 C2676 1.368 . S
C2673 C2654 1.429 . S
C2673 C2667 1.429 . S
C2673 C2674 1.523 . S
C2674 C2655 1.368 . S
C2674 C2668 1.368 . S
C2674 C2673 1.523 . S
C2675 C2659 1.429 . S
C2675 C2671 1.429 . S
C2675 C2676 1.523 . S
C2676 C2660 1.368 . S
C2676 C2672 1.368 . S
C2676 C2675 1.523 . S
H2677 C2652 0.950 . S
H2678 C2654 0.950 . S
H2679 C2655 0.949 . S
H2680 C2657 0.950 . S
H2681 C2659 0.950 . S
C2682 C2683 1.349 . S
C2682 C2684 1.327 . S
C2682 H2707 0.950 . S
C2683 C2682 1.349 . S
C2683 C2699 1.349 . S
C2684 C2682 1.327 . S
C2684 C2703 1.429 . S
C2684 H2708 0.950 . S
C2685 C2702 1.574 . S
C2685 C2704 1.368 . S
C2685 H2709 0.949 . S
H2686 C2690 0.949 . S
C2687 C2688 1.349 . S
C2687 C2689 1.327 . S
C2687 H2710 0.950 . S
C2688 C2687 1.349 . S
C2688 C2700 1.349 . S
C2689 C2687 1.327 . S
C2689 C2705 1.429 . S
C2689 H2711 0.950 . S
C2690 H2686 0.949 . S
C2690 C2698 1.574 . S
C2690 C2706 1.368 . S
H2691 C2699 0.950 . S
H2692 C2697 0.950 . S
H2693 C2698 0.949 . S
H2694 C2700 0.950 . S
H2695 C2701 0.950 . S
H2696 C2702 0.949 . S
C2697 H2692 0.950 . S
C2697 C2699 1.327 . S
C2697 C2703 1.429 . S
C2698 C2690 1.574 . S
C2698 H2693 0.949 . S
C2698 C2704 1.368 . S
C2699 C2683 1.349 . S
C2699 H2691 0.950 . S
C2699 C2697 1.327 . S
C2700 C2688 1.349 . S
C2700 H2694 0.950 . S
C2700 C2701 1.327 . S
C2701 H2695 0.950 . S
C2701 C2700 1.327 . S
C2701 C2705 1.429 . S
C2702 C2685 1.574 . S
C2702 H2696 0.949 . S
C2702 C2706 1.368 . S
C2703 C2684 1.429 . S
C2703 C2697 1.429 . S
C2703 C2704 1.523 . S
C2704 C2685 1.368 . S
C2704 C2698 1.368 . S
C2704 C2703 1.523 . S
C2705 C2689 1.429 . S
C2705 C2701 1.429 . S
C2705 C2706 1.523 . S
C2706 C2690 1.368 . S
C2706 C2702 1.368 . S
C2706 C2705 1.523 . S
H2707 C2682 0.950 . S
H2708 C2684 0.950 . S
H2709 C2685 0.949 . S
H2710 C2687 0.950 . S
H2711 C2689 0.950 . S
C2712 C2713 1.349 . S
C2712 C2714 1.327 . S
C2712 H2737 0.950 . S
C2713 C2712 1.349 . S
C2713 C2729 1.349 . S
C2714 C2712 1.327 . S
C2714 C2733 1.429 . S
C2714 H2738 0.950 . S
C2715 C2732 1.574 . S
C2715 C2734 1.368 . S
C2715 H2739 0.949 . S
H2716 C2720 0.949 . S
C2717 C2718 1.349 . S
C2717 C2719 1.327 . S
C2717 H2740 0.950 . S
C2718 C2717 1.349 . S
C2718 C2730 1.349 . S
C2719 C2717 1.327 . S
C2719 C2735 1.429 . S
C2719 H2741 0.950 . S
C2720 H2716 0.949 . S
C2720 C2728 1.574 . S
C2720 C2736 1.368 . S
H2721 C2729 0.950 . S
H2722 C2727 0.950 . S
H2723 C2728 0.949 . S
H2724 C2730 0.950 . S
H2725 C2731 0.950 . S
H2726 C2732 0.949 . S
C2727 H2722 0.950 . S
C2727 C2729 1.327 . S
C2727 C2733 1.429 . S
C2728 C2720 1.574 . S
C2728 H2723 0.949 . S
C2728 C2734 1.368 . S
C2729 C2713 1.349 . S
C2729 H2721 0.950 . S
C2729 C2727 1.327 . S
C2730 C2718 1.349 . S
C2730 H2724 0.950 . S
C2730 C2731 1.327 . S
C2731 H2725 0.950 . S
C2731 C2730 1.327 . S
C2731 C2735 1.429 . S
C2732 C2715 1.574 . S
C2732 H2726 0.949 . S
C2732 C2736 1.368 . S
C2733 C2714 1.429 . S
C2733 C2727 1.429 . S
C2733 C2734 1.523 . S
C2734 C2715 1.368 . S
C2734 C2728 1.368 . S
C2734 C2733 1.523 . S
C2735 C2719 1.429 . S
C2735 C2731 1.429 . S
C2735 C2736 1.523 . S
C2736 C2720 1.368 . S
C2736 C2732 1.368 . S
C2736 C2735 1.523 . S
H2737 C2712 0.950 . S
H2738 C2714 0.950 . S
H2739 C2715 0.949 . S
H2740 C2717 0.950 . S
H2741 C2719 0.950 . S
C2742 C2743 1.349 . S
C2742 C2744 1.327 . S
C2742 H2767 0.950 . S
C2743 C2742 1.349 . S
C2743 C2759 1.349 . S
C2744 C2742 1.327 . S
C2744 C2763 1.429 . S
C2744 H2768 0.950 . S
C2745 C2762 1.574 . S
C2745 C2764 1.368 . S
C2745 H2769 0.949 . S
H2746 C2750 0.949 . S
C2747 C2748 1.349 . S
C2747 C2749 1.327 . S
C2747 H2770 0.950 . S
C2748 C2747 1.349 . S
C2748 C2760 1.349 . S
C2749 C2747 1.327 . S
C2749 C2765 1.429 . S
C2749 H2771 0.950 . S
C2750 H2746 0.949 . S
C2750 C2758 1.574 . S
C2750 C2766 1.368 . S
H2751 C2759 0.950 . S
H2752 C2757 0.950 . S
H2753 C2758 0.949 . S
H2754 C2760 0.950 . S
H2755 C2761 0.950 . S
H2756 C2762 0.949 . S
C2757 H2752 0.950 . S
C2757 C2759 1.327 . S
C2757 C2763 1.429 . S
C2758 C2750 1.574 . S
C2758 H2753 0.949 . S
C2758 C2764 1.368 . S
C2759 C2743 1.349 . S
C2759 H2751 0.950 . S
C2759 C2757 1.327 . S
C2760 C2748 1.349 . S
C2760 H2754 0.950 . S
C2760 C2761 1.327 . S
C2761 H2755 0.950 . S
C2761 C2760 1.327 . S
C2761 C2765 1.429 . S
C2762 C2745 1.574 . S
C2762 H2756 0.949 . S
C2762 C2766 1.368 . S
C2763 C2744 1.429 . S
C2763 C2757 1.429 . S
C2763 C2764 1.523 . S
C2764 C2745 1.368 . S
C2764 C2758 1.368 . S
C2764 C2763 1.523 . S
C2765 C2749 1.429 . S
C2765 C2761 1.429 . S
C2765 C2766 1.523 . S
C2766 C2750 1.368 . S
C2766 C2762 1.368 . S
C2766 C2765 1.523 . S
H2767 C2742 0.950 . S
H2768 C2744 0.950 . S
H2769 C2745 0.949 . S
H2770 C2747 0.950 . S
H2771 C2749 0.950 . S
C2772 C2773 1.349 1_554 S
C2772 C2774 1.327 1_554 S
C2772 H2797 0.950 . S
C2773 C2772 1.349 1_556 S
C2773 C2789 1.349 . S
C2774 C2772 1.327 1_556 S
C2774 C2793 1.429 . S
C2774 H2798 0.950 1_556 S
C2775 C2792 1.574 . S
C2775 C2794 1.368 . S
C2775 H2799 0.949 . S
H2776 C2780 0.949 . S
C2777 C2778 1.349 . S
C2777 C2779 1.327 . S
C2777 H2800 0.950 . S
C2778 C2777 1.349 . S
C2778 C2790 1.349 . S
C2779 C2777 1.327 . S
C2779 C2795 1.429 . S
C2779 H2801 0.950 . S
C2780 H2776 0.949 . S
C2780 C2788 1.574 . S
C2780 C2796 1.368 . S
H2781 C2789 0.950 . S
H2782 C2787 0.950 . S
H2783 C2788 0.949 . S
H2784 C2790 0.950 . S
H2785 C2791 0.950 . S
H2786 C2792 0.949 . S
C2787 H2782 0.950 . S
C2787 C2789 1.327 . S
C2787 C2793 1.429 . S
C2788 C2780 1.574 . S
C2788 H2783 0.949 . S
C2788 C2794 1.368 . S
C2789 C2773 1.349 . S
C2789 H2781 0.950 . S
C2789 C2787 1.327 . S
C2790 C2778 1.349 . S
C2790 H2784 0.950 . S
C2790 C2791 1.327 . S
C2791 H2785 0.950 . S
C2791 C2790 1.327 . S
C2791 C2795 1.429 . S
C2792 C2775 1.574 . S
C2792 H2786 0.949 . S
C2792 C2796 1.368 . S
C2793 C2774 1.429 . S
C2793 C2787 1.429 . S
C2793 C2794 1.523 . S
C2794 C2775 1.368 . S
C2794 C2788 1.368 . S
C2794 C2793 1.523 . S
C2795 C2779 1.429 . S
C2795 C2791 1.429 . S
C2795 C2796 1.523 . S
C2796 C2780 1.368 . S
C2796 C2792 1.368 . S
C2796 C2795 1.523 . S
H2797 C2772 0.950 . S
H2798 C2774 0.950 1_554 S
H2799 C2775 0.949 . S
H2800 C2777 0.950 . S
H2801 C2779 0.950 . S
C2802 C2803 1.349 . S
C2802 C2804 1.327 . S
C2802 H2827 0.950 . S
C2803 C2802 1.349 . S
C2803 C2819 1.349 . S
C2804 C2802 1.327 . S
C2804 C2823 1.429 . S
C2804 H2828 0.950 . S
C2805 C2822 1.574 1_455 S
C2805 C2824 1.368 . S
C2805 H2829 0.949 . S
H2806 C2810 0.949 . S
C2807 C2808 1.349 . S
C2807 C2809 1.327 . S
C2807 H2830 0.950 . S
C2808 C2807 1.349 . S
C2808 C2820 1.349 . S
C2809 C2807 1.327 . S
C2809 C2825 1.429 . S
C2809 H2831 0.950 . S
C2810 H2806 0.949 . S
C2810 C2818 1.574 . S
C2810 C2826 1.368 . S
H2811 C2819 0.950 . S
H2812 C2817 0.950 . S
H2813 C2818 0.949 1_455 S
H2814 C2820 0.950 . S
H2815 C2821 0.950 . S
H2816 C2822 0.949 . S
C2817 H2812 0.950 . S
C2817 C2819 1.327 . S
C2817 C2823 1.429 . S
C2818 C2810 1.574 . S
C2818 H2813 0.949 1_655 S
C2818 C2824 1.368 1_655 S
C2819 C2803 1.349 . S
C2819 H2811 0.950 . S
C2819 C2817 1.327 . S
C2820 C2808 1.349 . S
C2820 H2814 0.950 . S
C2820 C2821 1.327 . S
C2821 H2815 0.950 . S
C2821 C2820 1.327 . S
C2821 C2825 1.429 . S
C2822 C2805 1.574 1_655 S
C2822 H2816 0.949 . S
C2822 C2826 1.368 . S
C2823 C2804 1.429 . S
C2823 C2817 1.429 . S
C2823 C2824 1.523 . S
C2824 C2805 1.368 . S
C2824 C2818 1.368 1_455 S
C2824 C2823 1.523 . S
C2825 C2809 1.429 . S
C2825 C2821 1.429 . S
C2825 C2826 1.523 . S
C2826 C2810 1.368 . S
C2826 C2822 1.368 . S
C2826 C2825 1.523 . S
H2827 C2802 0.950 . S
H2828 C2804 0.950 . S
H2829 C2805 0.949 . S
H2830 C2807 0.950 . S
H2831 C2809 0.950 . S
C2832 C2833 1.349 . S
C2832 C2834 1.327 . S
C2832 H2857 0.950 . S
C2833 C2832 1.349 . S
C2833 C2849 1.349 . S
C2834 C2832 1.327 . S
C2834 C2853 1.429 . S
C2834 H2858 0.950 . S
C2835 C2852 1.574 . S
C2835 C2854 1.368 . S
C2835 H2859 0.949 . S
H2836 C2840 0.949 . S
C2837 C2838 1.349 . S
C2837 C2839 1.327 . S
C2837 H2860 0.950 . S
C2838 C2837 1.349 . S
C2838 C2850 1.349 . S
C2839 C2837 1.327 . S
C2839 C2855 1.429 . S
C2839 H2861 0.950 . S
C2840 H2836 0.949 . S
C2840 C2848 1.574 . S
C2840 C2856 1.368 . S
H2841 C2849 0.950 . S
H2842 C2847 0.950 . S
H2843 C2848 0.949 . S
H2844 C2850 0.950 . S
H2845 C2851 0.950 . S
H2846 C2852 0.949 . S
C2847 H2842 0.950 . S
C2847 C2849 1.327 . S
C2847 C2853 1.429 . S
C2848 C2840 1.574 . S
C2848 H2843 0.949 . S
C2848 C2854 1.368 . S
C2849 C2833 1.349 . S
C2849 H2841 0.950 . S
C2849 C2847 1.327 . S
C2850 C2838 1.349 . S
C2850 H2844 0.950 . S
C2850 C2851 1.327 . S
C2851 H2845 0.950 . S
C2851 C2850 1.327 . S
C2851 C2855 1.429 . S
C2852 C2835 1.574 . S
C2852 H2846 0.949 . S
C2852 C2856 1.368 . S
C2853 C2834 1.429 . S
C2853 C2847 1.429 . S
C2853 C2854 1.523 . S
C2854 C2835 1.368 . S
C2854 C2848 1.368 . S
C2854 C2853 1.523 . S
C2855 C2839 1.429 . S
C2855 C2851 1.429 . S
C2855 C2856 1.523 . S
C2856 C2840 1.368 . S
C2856 C2852 1.368 . S
C2856 C2855 1.523 . S
H2857 C2832 0.950 . S
H2858 C2834 0.950 . S
H2859 C2835 0.949 . S
H2860 C2837 0.950 . S
H2861 C2839 0.950 . S
C2862 C2863 1.349 . S
C2862 C2864 1.327 . S
C2862 H2887 0.950 . S
C2863 C2862 1.349 . S
C2863 C2879 1.349 . S
C2864 C2862 1.327 . S
C2864 C2883 1.429 . S
C2864 H2888 0.950 . S
C2865 C2882 1.574 . S
C2865 C2884 1.368 . S
C2865 H2889 0.949 . S
H2866 C2870 0.949 . S
C2867 C2868 1.349 . S
C2867 C2869 1.327 . S
C2867 H2890 0.950 . S
C2868 C2867 1.349 . S
C2868 C2880 1.349 . S
C2869 C2867 1.327 . S
C2869 C2885 1.429 . S
C2869 H2891 0.950 . S
C2870 H2866 0.949 . S
C2870 C2878 1.574 . S
C2870 C2886 1.368 . S
H2871 C2879 0.950 . S
H2872 C2877 0.950 . S
H2873 C2878 0.949 . S
H2874 C2880 0.950 . S
H2875 C2881 0.950 . S
H2876 C2882 0.949 . S
C2877 H2872 0.950 . S
C2877 C2879 1.327 . S
C2877 C2883 1.429 . S
C2878 C2870 1.574 . S
C2878 H2873 0.949 . S
C2878 C2884 1.368 . S
C2879 C2863 1.349 . S
C2879 H2871 0.950 . S
C2879 C2877 1.327 . S
C2880 C2868 1.349 . S
C2880 H2874 0.950 . S
C2880 C2881 1.327 . S
C2881 H2875 0.950 . S
C2881 C2880 1.327 . S
C2881 C2885 1.429 . S
C2882 C2865 1.574 . S
C2882 H2876 0.949 . S
C2882 C2886 1.368 . S
C2883 C2864 1.429 . S
C2883 C2877 1.429 . S
C2883 C2884 1.523 . S
C2884 C2865 1.368 . S
C2884 C2878 1.368 . S
C2884 C2883 1.523 . S
C2885 C2869 1.429 . S
C2885 C2881 1.429 . S
C2885 C2886 1.523 . S
C2886 C2870 1.368 . S
C2886 C2882 1.368 . S
C2886 C2885 1.523 . S
H2887 C2862 0.950 . S
H2888 C2864 0.950 . S
H2889 C2865 0.949 . S
H2890 C2867 0.950 . S
H2891 C2869 0.950 . S
C2892 C2893 1.349 . S
C2892 C2894 1.327 . S
C2892 H2917 0.950 . S
C2893 C2892 1.349 . S
C2893 C2909 1.349 . S
C2894 C2892 1.327 . S
C2894 C2913 1.429 . S
C2894 H2918 0.950 . S
C2895 C2912 1.574 . S
C2895 C2914 1.368 . S
C2895 H2919 0.949 . S
H2896 C2900 0.949 . S
C2897 C2898 1.349 . S
C2897 C2899 1.327 . S
C2897 H2920 0.950 . S
C2898 C2897 1.349 . S
C2898 C2910 1.349 . S
C2899 C2897 1.327 . S
C2899 C2915 1.429 . S
C2899 H2921 0.950 . S
C2900 H2896 0.949 . S
C2900 C2908 1.574 . S
C2900 C2916 1.368 . S
H2901 C2909 0.950 . S
H2902 C2907 0.950 . S
H2903 C2908 0.949 . S
H2904 C2910 0.950 . S
H2905 C2911 0.950 . S
H2906 C2912 0.949 . S
C2907 H2902 0.950 . S
C2907 C2909 1.327 . S
C2907 C2913 1.429 . S
C2908 C2900 1.574 . S
C2908 H2903 0.949 . S
C2908 C2914 1.368 . S
C2909 C2893 1.349 . S
C2909 H2901 0.950 . S
C2909 C2907 1.327 . S
C2910 C2898 1.349 . S
C2910 H2904 0.950 . S
C2910 C2911 1.327 . S
C2911 H2905 0.950 . S
C2911 C2910 1.327 . S
C2911 C2915 1.429 . S
C2912 C2895 1.574 . S
C2912 H2906 0.949 . S
C2912 C2916 1.368 . S
C2913 C2894 1.429 . S
C2913 C2907 1.429 . S
C2913 C2914 1.523 . S
C2914 C2895 1.368 . S
C2914 C2908 1.368 . S
C2914 C2913 1.523 . S
C2915 C2899 1.429 . S
C2915 C2911 1.429 . S
C2915 C2916 1.523 . S
C2916 C2900 1.368 . S
C2916 C2912 1.368 . S
C2916 C2915 1.523 . S
H2917 C2892 0.950 . S
H2918 C2894 0.950 . S
H2919 C2895 0.949 . S
H2920 C2897 0.950 . S
H2921 C2899 0.950 . S
C2922 C2923 1.349 . S
C2922 C2924 1.327 . S
C2922 H2947 0.950 . S
C2923 C2922 1.349 . S
C2923 C2939 1.349 . S
C2924 C2922 1.327 . S
C2924 C2943 1.429 . S
C2924 H2948 0.950 . S
C2925 C2942 1.574 . S
C2925 C2944 1.368 . S
C2925 H2949 0.949 . S
H2926 C2930 0.949 . S
C2927 C2928 1.349 . S
C2927 C2929 1.327 . S
C2927 H2950 0.950 . S
C2928 C2927 1.349 . S
C2928 C2940 1.349 . S
C2929 C2927 1.327 . S
C2929 C2945 1.429 . S
C2929 H2951 0.950 . S
C2930 H2926 0.949 . S
C2930 C2938 1.574 . S
C2930 C2946 1.368 . S
H2931 C2939 0.950 . S
H2932 C2937 0.950 . S
H2933 C2938 0.949 . S
H2934 C2940 0.950 . S
H2935 C2941 0.950 . S
H2936 C2942 0.949 . S
C2937 H2932 0.950 . S
C2937 C2939 1.327 . S
C2937 C2943 1.429 . S
C2938 C2930 1.574 . S
C2938 H2933 0.949 . S
C2938 C2944 1.368 . S
C2939 C2923 1.349 . S
C2939 H2931 0.950 . S
C2939 C2937 1.327 . S
C2940 C2928 1.349 . S
C2940 H2934 0.950 . S
C2940 C2941 1.327 . S
C2941 H2935 0.950 . S
C2941 C2940 1.327 . S
C2941 C2945 1.429 . S
C2942 C2925 1.574 . S
C2942 H2936 0.949 . S
C2942 C2946 1.368 . S
C2943 C2924 1.429 . S
C2943 C2937 1.429 . S
C2943 C2944 1.523 . S
C2944 C2925 1.368 . S
C2944 C2938 1.368 . S
C2944 C2943 1.523 . S
C2945 C2929 1.429 . S
C2945 C2941 1.429 . S
C2945 C2946 1.523 . S
C2946 C2930 1.368 . S
C2946 C2942 1.368 . S
C2946 C2945 1.523 . S
H2947 C2922 0.950 . S
H2948 C2924 0.950 . S
H2949 C2925 0.949 . S
H2950 C2927 0.950 . S
H2951 C2929 0.950 . S
C2952 C2953 1.349 . S
C2952 C2954 1.327 . S
C2952 H2977 0.950 . S
C2953 C2952 1.349 . S
C2953 C2969 1.349 . S
C2954 C2952 1.327 . S
C2954 C2973 1.429 . S
C2954 H2978 0.950 . S
C2955 C2972 1.574 . S
C2955 C2974 1.368 . S
C2955 H2979 0.949 . S
H2956 C2960 0.949 . S
C2957 C2958 1.349 . S
C2957 C2959 1.327 . S
C2957 H2980 0.950 . S
C2958 C2957 1.349 . S
C2958 C2970 1.349 . S
C2959 C2957 1.327 . S
C2959 C2975 1.429 . S
C2959 H2981 0.950 . S
C2960 H2956 0.949 . S
C2960 C2968 1.574 . S
C2960 C2976 1.368 . S
H2961 C2969 0.950 . S
H2962 C2967 0.950 . S
H2963 C2968 0.949 . S
H2964 C2970 0.950 . S
H2965 C2971 0.950 . S
H2966 C2972 0.949 . S
C2967 H2962 0.950 . S
C2967 C2969 1.327 . S
C2967 C2973 1.429 . S
C2968 C2960 1.574 . S
C2968 H2963 0.949 . S
C2968 C2974 1.368 . S
C2969 C2953 1.349 . S
C2969 H2961 0.950 . S
C2969 C2967 1.327 . S
C2970 C2958 1.349 . S
C2970 H2964 0.950 . S
C2970 C2971 1.327 . S
C2971 H2965 0.950 . S
C2971 C2970 1.327 . S
C2971 C2975 1.429 . S
C2972 C2955 1.574 . S
C2972 H2966 0.949 . S
C2972 C2976 1.368 . S
C2973 C2954 1.429 . S
C2973 C2967 1.429 . S
C2973 C2974 1.523 . S
C2974 C2955 1.368 . S
C2974 C2968 1.368 . S
C2974 C2973 1.523 . S
C2975 C2959 1.429 . S
C2975 C2971 1.429 . S
C2975 C2976 1.523 . S
C2976 C2960 1.368 . S
C2976 C2972 1.368 . S
C2976 C2975 1.523 . S
H2977 C2952 0.950 . S
H2978 C2954 0.950 . S
H2979 C2955 0.949 . S
H2980 C2957 0.950 . S
H2981 C2959 0.950 . S
C2982 C2983 1.349 . S
C2982 C2984 1.327 . S
C2982 H3007 0.950 . S
C2983 C2982 1.349 . S
C2983 C2999 1.349 . S
C2984 C2982 1.327 . S
C2984 C3003 1.429 . S
C2984 H3008 0.950 . S
C2985 C3002 1.574 . S
C2985 C3004 1.368 . S
C2985 H3009 0.949 . S
H2986 C2990 0.949 . S
C2987 C2988 1.349 . S
C2987 C2989 1.327 . S
C2987 H3010 0.950 . S
C2988 C2987 1.349 . S
C2988 C3000 1.349 . S
C2989 C2987 1.327 . S
C2989 C3005 1.429 . S
C2989 H3011 0.950 . S
C2990 H2986 0.949 . S
C2990 C2998 1.574 . S
C2990 C3006 1.368 . S
H2991 C2999 0.950 . S
H2992 C2997 0.950 . S
H2993 C2998 0.949 . S
H2994 C3000 0.950 . S
H2995 C3001 0.950 . S
H2996 C3002 0.949 . S
C2997 H2992 0.950 . S
C2997 C2999 1.327 . S
C2997 C3003 1.429 . S
C2998 C2990 1.574 . S
C2998 H2993 0.949 . S
C2998 C3004 1.368 . S
C2999 C2983 1.349 . S
C2999 H2991 0.950 . S
C2999 C2997 1.327 . S
C3000 C2988 1.349 . S
C3000 H2994 0.950 . S
C3000 C3001 1.327 . S
C3001 H2995 0.950 . S
C3001 C3000 1.327 . S
C3001 C3005 1.429 . S
C3002 C2985 1.574 . S
C3002 H2996 0.949 . S
C3002 C3006 1.368 . S
C3003 C2984 1.429 . S
C3003 C2997 1.429 . S
C3003 C3004 1.523 . S
C3004 C2985 1.368 . S
C3004 C2998 1.368 . S
C3004 C3003 1.523 . S
C3005 C2989 1.429 . S
C3005 C3001 1.429 . S
C3005 C3006 1.523 . S
C3006 C2990 1.368 . S
C3006 C3002 1.368 . S
C3006 C3005 1.523 . S
H3007 C2982 0.950 . S
H3008 C2984 0.950 . S
H3009 C2985 0.949 . S
H3010 C2987 0.950 . S
H3011 C2989 0.950 . S
C3012 C3013 1.349 . S
C3012 C3014 1.327 . S
C3012 H3037 0.950 . S
C3013 C3012 1.349 . S
C3013 C3029 1.349 . S
C3014 C3012 1.327 . S
C3014 C3033 1.429 . S
C3014 H3038 0.950 . S
C3015 C3032 1.574 . S
C3015 C3034 1.368 . S
C3015 H3039 0.949 . S
H3016 C3020 0.949 . S
C3017 C3018 1.349 . S
C3017 C3019 1.327 . S
C3017 H3040 0.950 . S
C3018 C3017 1.349 . S
C3018 C3030 1.349 . S
C3019 C3017 1.327 . S
C3019 C3035 1.429 . S
C3019 H3041 0.950 . S
C3020 H3016 0.949 . S
C3020 C3028 1.574 . S
C3020 C3036 1.368 . S
H3021 C3029 0.950 . S
H3022 C3027 0.950 . S
H3023 C3028 0.949 . S
H3024 C3030 0.950 . S
H3025 C3031 0.950 . S
H3026 C3032 0.949 . S
C3027 H3022 0.950 . S
C3027 C3029 1.327 . S
C3027 C3033 1.429 . S
C3028 C3020 1.574 . S
C3028 H3023 0.949 . S
C3028 C3034 1.368 . S
C3029 C3013 1.349 . S
C3029 H3021 0.950 . S
C3029 C3027 1.327 . S
C3030 C3018 1.349 . S
C3030 H3024 0.950 . S
C3030 C3031 1.327 . S
C3031 H3025 0.950 . S
C3031 C3030 1.327 . S
C3031 C3035 1.429 . S
C3032 C3015 1.574 . S
C3032 H3026 0.949 . S
C3032 C3036 1.368 . S
C3033 C3014 1.429 . S
C3033 C3027 1.429 . S
C3033 C3034 1.523 . S
C3034 C3015 1.368 . S
C3034 C3028 1.368 . S
C3034 C3033 1.523 . S
C3035 C3019 1.429 . S
C3035 C3031 1.429 . S
C3035 C3036 1.523 . S
C3036 C3020 1.368 . S
C3036 C3032 1.368 . S
C3036 C3035 1.523 . S
H3037 C3012 0.950 . S
H3038 C3014 0.950 . S
H3039 C3015 0.949 . S
H3040 C3017 0.950 . S
H3041 C3019 0.950 . S
C3042 C3043 1.349 . S
C3042 C3044 1.327 . S
C3042 H3067 0.950 . S
C3043 C3042 1.349 . S
C3043 C3059 1.349 . S
C3044 C3042 1.327 . S
C3044 C3063 1.429 . S
C3044 H3068 0.950 . S
C3045 C3062 1.574 . S
C3045 C3064 1.368 . S
C3045 H3069 0.949 . S
H3046 C3050 0.949 . S
C3047 C3048 1.349 . S
C3047 C3049 1.327 . S
C3047 H3070 0.950 . S
C3048 C3047 1.349 . S
C3048 C3060 1.349 . S
C3049 C3047 1.327 . S
C3049 C3065 1.429 . S
C3049 H3071 0.950 . S
C3050 H3046 0.949 . S
C3050 C3058 1.574 . S
C3050 C3066 1.368 . S
H3051 C3059 0.950 . S
H3052 C3057 0.950 . S
H3053 C3058 0.949 . S
H3054 C3060 0.950 . S
H3055 C3061 0.950 . S
H3056 C3062 0.949 . S
C3057 H3052 0.950 . S
C3057 C3059 1.327 . S
C3057 C3063 1.429 . S
C3058 C3050 1.574 . S
C3058 H3053 0.949 . S
C3058 C3064 1.368 . S
C3059 C3043 1.349 . S
C3059 H3051 0.950 . S
C3059 C3057 1.327 . S
C3060 C3048 1.349 . S
C3060 H3054 0.950 . S
C3060 C3061 1.327 . S
C3061 H3055 0.950 . S
C3061 C3060 1.327 . S
C3061 C3065 1.429 . S
C3062 C3045 1.574 . S
C3062 H3056 0.949 . S
C3062 C3066 1.368 . S
C3063 C3044 1.429 . S
C3063 C3057 1.429 . S
C3063 C3064 1.523 . S
C3064 C3045 1.368 . S
C3064 C3058 1.368 . S
C3064 C3063 1.523 . S
C3065 C3049 1.429 . S
C3065 C3061 1.429 . S
C3065 C3066 1.523 . S
C3066 C3050 1.368 . S
C3066 C3062 1.368 . S
C3066 C3065 1.523 . S
H3067 C3042 0.950 . S
H3068 C3044 0.950 . S
H3069 C3045 0.949 . S
H3070 C3047 0.950 . S
H3071 C3049 0.950 . S
C3072 C3073 1.349 . S
C3072 C3074 1.327 . S
C3072 H3097 0.950 . S
C3073 C3072 1.349 . S
C3073 C3089 1.349 . S
C3074 C3072 1.327 . S
C3074 C3093 1.429 . S
C3074 H3098 0.950 . S
C3075 C3092 1.574 . S
C3075 C3094 1.368 . S
C3075 H3099 0.949 . S
H3076 C3080 0.949 . S
C3077 C3078 1.349 . S
C3077 C3079 1.327 . S
C3077 H3100 0.950 . S
C3078 C3077 1.349 . S
C3078 C3090 1.349 . S
C3079 C3077 1.327 . S
C3079 C3095 1.429 . S
C3079 H3101 0.950 . S
C3080 H3076 0.949 . S
C3080 C3088 1.574 . S
C3080 C3096 1.368 . S
H3081 C3089 0.950 . S
H3082 C3087 0.950 . S
H3083 C3088 0.949 . S
H3084 C3090 0.950 . S
H3085 C3091 0.950 . S
H3086 C3092 0.949 . S
C3087 H3082 0.950 . S
C3087 C3089 1.327 . S
C3087 C3093 1.429 . S
C3088 C3080 1.574 . S
C3088 H3083 0.949 . S
C3088 C3094 1.368 . S
C3089 C3073 1.349 . S
C3089 H3081 0.950 . S
C3089 C3087 1.327 . S
C3090 C3078 1.349 . S
C3090 H3084 0.950 . S
C3090 C3091 1.327 . S
C3091 H3085 0.950 . S
C3091 C3090 1.327 . S
C3091 C3095 1.429 . S
C3092 C3075 1.574 . S
C3092 H3086 0.949 . S
C3092 C3096 1.368 . S
C3093 C3074 1.429 . S
C3093 C3087 1.429 . S
C3093 C3094 1.523 . S
C3094 C3075 1.368 . S
C3094 C3088 1.368 . S
C3094 C3093 1.523 . S
C3095 C3079 1.429 . S
C3095 C3091 1.429 . S
C3095 C3096 1.523 . S
C3096 C3080 1.368 . S
C3096 C3092 1.368 . S
C3096 C3095 1.523 . S
H3097 C3072 0.950 . S
H3098 C3074 0.950 . S
H3099 C3075 0.949 . S
H3100 C3077 0.950 . S
H3101 C3079 0.950 . S
C3102 C3103 1.349 . S
C3102 C3104 1.327 . S
C3102 H3127 0.950 . S
C3103 C3102 1.349 . S
C3103 C3119 1.349 . S
C3104 C3102 1.327 . S
C3104 C3123 1.429 . S
C3104 H3128 0.950 . S
C3105 C3122 1.574 . S
C3105 C3124 1.368 . S
C3105 H3129 0.949 . S
H3106 C3110 0.949 . S
C3107 C3108 1.349 . S
C3107 C3109 1.327 . S
C3107 H3130 0.950 . S
C3108 C3107 1.349 . S
C3108 C3120 1.349 . S
C3109 C3107 1.327 . S
C3109 C3125 1.429 . S
C3109 H3131 0.950 . S
C3110 H3106 0.949 . S
C3110 C3118 1.574 . S
C3110 C3126 1.368 . S
H3111 C3119 0.950 . S
H3112 C3117 0.950 . S
H3113 C3118 0.949 . S
H3114 C3120 0.950 . S
H3115 C3121 0.950 . S
H3116 C3122 0.949 . S
C3117 H3112 0.950 . S
C3117 C3119 1.327 . S
C3117 C3123 1.429 . S
C3118 C3110 1.574 . S
C3118 H3113 0.949 . S
C3118 C3124 1.368 . S
C3119 C3103 1.349 . S
C3119 H3111 0.950 . S
C3119 C3117 1.327 . S
C3120 C3108 1.349 . S
C3120 H3114 0.950 . S
C3120 C3121 1.327 . S
C3121 H3115 0.950 . S
C3121 C3120 1.327 . S
C3121 C3125 1.429 . S
C3122 C3105 1.574 . S
C3122 H3116 0.949 . S
C3122 C3126 1.368 . S
C3123 C3104 1.429 . S
C3123 C3117 1.429 . S
C3123 C3124 1.523 . S
C3124 C3105 1.368 . S
C3124 C3118 1.368 . S
C3124 C3123 1.523 . S
C3125 C3109 1.429 . S
C3125 C3121 1.429 . S
C3125 C3126 1.523 . S
C3126 C3110 1.368 . S
C3126 C3122 1.368 . S
C3126 C3125 1.523 . S
H3127 C3102 0.950 . S
H3128 C3104 0.950 . S
H3129 C3105 0.949 . S
H3130 C3107 0.950 . S
H3131 C3109 0.950 . S
C3132 C3133 1.349 . S
C3132 C3134 1.327 . S
C3132 H3157 0.950 . S
C3133 C3132 1.349 . S
C3133 C3149 1.349 . S
C3134 C3132 1.327 . S
C3134 C3153 1.429 . S
C3134 H3158 0.950 . S
C3135 C3152 1.574 . S
C3135 C3154 1.368 . S
C3135 H3159 0.949 . S
H3136 C3140 0.949 . S
C3137 C3138 1.349 . S
C3137 C3139 1.327 . S
C3137 H3160 0.950 . S
C3138 C3137 1.349 . S
C3138 C3150 1.349 . S
C3139 C3137 1.327 . S
C3139 C3155 1.429 . S
C3139 H3161 0.950 . S
C3140 H3136 0.949 . S
C3140 C3148 1.574 . S
C3140 C3156 1.368 . S
H3141 C3149 0.950 . S
H3142 C3147 0.950 . S
H3143 C3148 0.949 . S
H3144 C3150 0.950 . S
H3145 C3151 0.950 . S
H3146 C3152 0.949 . S
C3147 H3142 0.950 . S
C3147 C3149 1.327 . S
C3147 C3153 1.429 . S
C3148 C3140 1.574 . S
C3148 H3143 0.949 . S
C3148 C3154 1.368 . S
C3149 C3133 1.349 . S
C3149 H3141 0.950 . S
C3149 C3147 1.327 . S
C3150 C3138 1.349 . S
C3150 H3144 0.950 . S
C3150 C3151 1.327 . S
C3151 H3145 0.950 . S
C3151 C3150 1.327 . S
C3151 C3155 1.429 . S
C3152 C3135 1.574 . S
C3152 H3146 0.949 . S
C3152 C3156 1.368 . S
C3153 C3134 1.429 . S
C3153 C3147 1.429 . S
C3153 C3154 1.523 . S
C3154 C3135 1.368 . S
C3154 C3148 1.368 . S
C3154 C3153 1.523 . S
C3155 C3139 1.429 . S
C3155 C3151 1.429 . S
C3155 C3156 1.523 . S
C3156 C3140 1.368 . S
C3156 C3152 1.368 . S
C3156 C3155 1.523 . S
H3157 C3132 0.950 . S
H3158 C3134 0.950 . S
H3159 C3135 0.949 . S
H3160 C3137 0.950 . S
H3161 C3139 0.950 . S
C3162 C3163 1.349 . S
C3162 C3164 1.327 . S
C3162 H3187 0.950 . S
C3163 C3162 1.349 . S
C3163 C3179 1.349 . S
C3164 C3162 1.327 . S
C3164 C3183 1.429 . S
C3164 H3188 0.950 . S
C3165 C3182 1.574 . S
C3165 C3184 1.368 . S
C3165 H3189 0.949 . S
H3166 C3170 0.949 . S
C3167 C3168 1.349 . S
C3167 C3169 1.327 . S
C3167 H3190 0.950 . S
C3168 C3167 1.349 . S
C3168 C3180 1.349 . S
C3169 C3167 1.327 . S
C3169 C3185 1.429 . S
C3169 H3191 0.950 . S
C3170 H3166 0.949 . S
C3170 C3178 1.574 . S
C3170 C3186 1.368 . S
H3171 C3179 0.950 . S
H3172 C3177 0.950 . S
H3173 C3178 0.949 . S
H3174 C3180 0.950 . S
H3175 C3181 0.950 . S
H3176 C3182 0.949 . S
C3177 H3172 0.950 . S
C3177 C3179 1.327 . S
C3177 C3183 1.429 . S
C3178 C3170 1.574 . S
C3178 H3173 0.949 . S
C3178 C3184 1.368 . S
C3179 C3163 1.349 . S
C3179 H3171 0.950 . S
C3179 C3177 1.327 . S
C3180 C3168 1.349 . S
C3180 H3174 0.950 . S
C3180 C3181 1.327 . S
C3181 H3175 0.950 . S
C3181 C3180 1.327 . S
C3181 C3185 1.429 . S
C3182 C3165 1.574 . S
C3182 H3176 0.949 . S
C3182 C3186 1.368 . S
C3183 C3164 1.429 . S
C3183 C3177 1.429 . S
C3183 C3184 1.523 . S
C3184 C3165 1.368 . S
C3184 C3178 1.368 . S
C3184 C3183 1.523 . S
C3185 C3169 1.429 . S
C3185 C3181 1.429 . S
C3185 C3186 1.523 . S
C3186 C3170 1.368 . S
C3186 C3182 1.368 . S
C3186 C3185 1.523 . S
H3187 C3162 0.950 . S
H3188 C3164 0.950 . S
H3189 C3165 0.949 . S
H3190 C3167 0.950 . S
H3191 C3169 0.950 . S
C3192 C3193 1.349 . S
C3192 C3194 1.327 . S
C3192 H3217 0.950 . S
C3193 C3192 1.349 . S
C3193 C3209 1.349 . S
C3194 C3192 1.327 . S
C3194 C3213 1.429 . S
C3194 H3218 0.950 . S
C3195 C3212 1.574 . S
C3195 C3214 1.368 . S
C3195 H3219 0.949 . S
H3196 C3200 0.949 . S
C3197 C3198 1.349 . S
C3197 C3199 1.327 . S
C3197 H3220 0.950 . S
C3198 C3197 1.349 . S
C3198 C3210 1.349 . S
C3199 C3197 1.327 . S
C3199 C3215 1.429 . S
C3199 H3221 0.950 . S
C3200 H3196 0.949 . S
C3200 C3208 1.574 . S
C3200 C3216 1.368 . S
H3201 C3209 0.950 . S
H3202 C3207 0.950 . S
H3203 C3208 0.949 . S
H3204 C3210 0.950 . S
H3205 C3211 0.950 . S
H3206 C3212 0.949 . S
C3207 H3202 0.950 . S
C3207 C3209 1.327 . S
C3207 C3213 1.429 . S
C3208 C3200 1.574 . S
C3208 H3203 0.949 . S
C3208 C3214 1.368 . S
C3209 C3193 1.349 . S
C3209 H3201 0.950 . S
C3209 C3207 1.327 . S
C3210 C3198 1.349 . S
C3210 H3204 0.950 . S
C3210 C3211 1.327 . S
C3211 H3205 0.950 . S
C3211 C3210 1.327 . S
C3211 C3215 1.429 . S
C3212 C3195 1.574 . S
C3212 H3206 0.949 . S
C3212 C3216 1.368 . S
C3213 C3194 1.429 . S
C3213 C3207 1.429 . S
C3213 C3214 1.523 . S
C3214 C3195 1.368 . S
C3214 C3208 1.368 . S
C3214 C3213 1.523 . S
C3215 C3199 1.429 . S
C3215 C3211 1.429 . S
C3215 C3216 1.523 . S
C3216 C3200 1.368 . S
C3216 C3212 1.368 . S
C3216 C3215 1.523 . S
H3217 C3192 0.950 . S
H3218 C3194 0.950 . S
H3219 C3195 0.949 . S
H3220 C3197 0.950 . S
H3221 C3199 0.950 . S
C3222 C3223 1.349 . S
C3222 C3224 1.327 . S
C3222 H3247 0.950 . S
C3223 C3222 1.349 . S
C3223 C3239 1.349 . S
C3224 C3222 1.327 . S
C3224 C3243 1.429 . S
C3224 H3248 0.950 . S
C3225 C3242 1.574 . S
C3225 C3244 1.368 . S
C3225 H3249 0.949 . S
H3226 C3230 0.949 . S
C3227 C3228 1.349 . S
C3227 C3229 1.327 . S
C3227 H3250 0.950 . S
C3228 C3227 1.349 . S
C3228 C3240 1.349 . S
C3229 C3227 1.327 . S
C3229 C3245 1.429 . S
C3229 H3251 0.950 . S
C3230 H3226 0.949 . S
C3230 C3238 1.574 . S
C3230 C3246 1.368 . S
H3231 C3239 0.950 . S
H3232 C3237 0.950 . S
H3233 C3238 0.949 . S
H3234 C3240 0.950 . S
H3235 C3241 0.950 . S
H3236 C3242 0.949 . S
C3237 H3232 0.950 . S
C3237 C3239 1.327 . S
C3237 C3243 1.429 . S
C3238 C3230 1.574 . S
C3238 H3233 0.949 . S
C3238 C3244 1.368 . S
C3239 C3223 1.349 . S
C3239 H3231 0.950 . S
C3239 C3237 1.327 . S
C3240 C3228 1.349 . S
C3240 H3234 0.950 . S
C3240 C3241 1.327 . S
C3241 H3235 0.950 . S
C3241 C3240 1.327 . S
C3241 C3245 1.429 . S
C3242 C3225 1.574 . S
C3242 H3236 0.949 . S
C3242 C3246 1.368 . S
C3243 C3224 1.429 . S
C3243 C3237 1.429 . S
C3243 C3244 1.523 . S
C3244 C3225 1.368 . S
C3244 C3238 1.368 . S
C3244 C3243 1.523 . S
C3245 C3229 1.429 . S
C3245 C3241 1.429 . S
C3245 C3246 1.523 . S
C3246 C3230 1.368 . S
C3246 C3242 1.368 . S
C3246 C3245 1.523 . S
H3247 C3222 0.950 . S
H3248 C3224 0.950 . S
H3249 C3225 0.949 . S
H3250 C3227 0.950 . S
H3251 C3229 0.950 . S
C3252 C3253 1.349 . S
C3252 C3254 1.327 . S
C3252 H3277 0.950 . S
C3253 C3252 1.349 . S
C3253 C3269 1.349 . S
C3254 C3252 1.327 . S
C3254 C3273 1.429 . S
C3254 H3278 0.950 . S
C3255 C3272 1.574 . S
C3255 C3274 1.368 . S
C3255 H3279 0.949 . S
H3256 C3260 0.949 . S
C3257 C3258 1.349 . S
C3257 C3259 1.327 . S
C3257 H3280 0.950 . S
C3258 C3257 1.349 . S
C3258 C3270 1.349 . S
C3259 C3257 1.327 . S
C3259 C3275 1.429 . S
C3259 H3281 0.950 . S
C3260 H3256 0.949 . S
C3260 C3268 1.574 . S
C3260 C3276 1.368 . S
H3261 C3269 0.950 . S
H3262 C3267 0.950 . S
H3263 C3268 0.949 . S
H3264 C3270 0.950 . S
H3265 C3271 0.950 . S
H3266 C3272 0.949 . S
C3267 H3262 0.950 . S
C3267 C3269 1.327 . S
C3267 C3273 1.429 . S
C3268 C3260 1.574 . S
C3268 H3263 0.949 . S
C3268 C3274 1.368 . S
C3269 C3253 1.349 . S
C3269 H3261 0.950 . S
C3269 C3267 1.327 . S
C3270 C3258 1.349 . S
C3270 H3264 0.950 . S
C3270 C3271 1.327 . S
C3271 H3265 0.950 . S
C3271 C3270 1.327 . S
C3271 C3275 1.429 . S
C3272 C3255 1.574 . S
C3272 H3266 0.949 . S
C3272 C3276 1.368 . S
C3273 C3254 1.429 . S
C3273 C3267 1.429 . S
C3273 C3274 1.523 . S
C3274 C3255 1.368 . S
C3274 C3268 1.368 . S
C3274 C3273 1.523 . S
C3275 C3259 1.429 . S
C3275 C3271 1.429 . S
C3275 C3276 1.523 . S
C3276 C3260 1.368 . S
C3276 C3272 1.368 . S
C3276 C3275 1.523 . S
H3277 C3252 0.950 . S
H3278 C3254 0.950 . S
H3279 C3255 0.949 . S
H3280 C3257 0.950 . S
H3281 C3259 0.950 . S
C3282 C3283 1.349 . S
C3282 C3284 1.327 . S
C3282 H3307 0.950 . S
C3283 C3282 1.349 . S
C3283 C3299 1.349 . S
C3284 C3282 1.327 . S
C3284 C3303 1.429 . S
C3284 H3308 0.950 . S
C3285 C3302 1.574 . S
C3285 C3304 1.368 . S
C3285 H3309 0.949 . S
H3286 C3290 0.949 . S
C3287 C3288 1.349 . S
C3287 C3289 1.327 . S
C3287 H3310 0.950 . S
C3288 C3287 1.349 . S
C3288 C3300 1.349 . S
C3289 C3287 1.327 . S
C3289 C3305 1.429 . S
C3289 H3311 0.950 . S
C3290 H3286 0.949 . S
C3290 C3298 1.574 . S
C3290 C3306 1.368 . S
H3291 C3299 0.950 . S
H3292 C3297 0.950 . S
H3293 C3298 0.949 . S
H3294 C3300 0.950 . S
H3295 C3301 0.950 . S
H3296 C3302 0.949 . S
C3297 H3292 0.950 . S
C3297 C3299 1.327 . S
C3297 C3303 1.429 . S
C3298 C3290 1.574 . S
C3298 H3293 0.949 . S
C3298 C3304 1.368 . S
C3299 C3283 1.349 . S
C3299 H3291 0.950 . S
C3299 C3297 1.327 . S
C3300 C3288 1.349 . S
C3300 H3294 0.950 . S
C3300 C3301 1.327 . S
C3301 H3295 0.950 . S
C3301 C3300 1.327 . S
C3301 C3305 1.429 . S
C3302 C3285 1.574 . S
C3302 H3296 0.949 . S
C3302 C3306 1.368 . S
C3303 C3284 1.429 . S
C3303 C3297 1.429 . S
C3303 C3304 1.523 . S
C3304 C3285 1.368 . S
C3304 C3298 1.368 . S
C3304 C3303 1.523 . S
C3305 C3289 1.429 . S
C3305 C3301 1.429 . S
C3305 C3306 1.523 . S
C3306 C3290 1.368 . S
C3306 C3302 1.368 . S
C3306 C3305 1.523 . S
H3307 C3282 0.950 . S
H3308 C3284 0.950 . S
H3309 C3285 0.949 . S
H3310 C3287 0.950 . S
H3311 C3289 0.950 . S
C3312 C3313 1.349 . S
C3312 C3314 1.327 . S
C3312 H3337 0.950 . S
C3313 C3312 1.349 . S
C3313 C3329 1.349 . S
C3314 C3312 1.327 . S
C3314 C3333 1.429 . S
C3314 H3338 0.950 . S
C3315 C3332 1.574 . S
C3315 C3334 1.368 . S
C3315 H3339 0.949 . S
H3316 C3320 0.949 . S
C3317 C3318 1.349 . S
C3317 C3319 1.327 . S
C3317 H3340 0.950 . S
C3318 C3317 1.349 . S
C3318 C3330 1.349 . S
C3319 C3317 1.327 . S
C3319 C3335 1.429 . S
C3319 H3341 0.950 . S
C3320 H3316 0.949 . S
C3320 C3328 1.574 . S
C3320 C3336 1.368 . S
H3321 C3329 0.950 . S
H3322 C3327 0.950 . S
H3323 C3328 0.949 . S
H3324 C3330 0.950 . S
H3325 C3331 0.950 . S
H3326 C3332 0.949 . S
C3327 H3322 0.950 . S
C3327 C3329 1.327 . S
C3327 C3333 1.429 . S
C3328 C3320 1.574 . S
C3328 H3323 0.949 . S
C3328 C3334 1.368 . S
C3329 C3313 1.349 . S
C3329 H3321 0.950 . S
C3329 C3327 1.327 . S
C3330 C3318 1.349 . S
C3330 H3324 0.950 . S
C3330 C3331 1.327 . S
C3331 H3325 0.950 . S
C3331 C3330 1.327 . S
C3331 C3335 1.429 . S
C3332 C3315 1.574 . S
C3332 H3326 0.949 . S
C3332 C3336 1.368 . S
C3333 C3314 1.429 . S
C3333 C3327 1.429 . S
C3333 C3334 1.523 . S
C3334 C3315 1.368 . S
C3334 C3328 1.368 . S
C3334 C3333 1.523 . S
C3335 C3319 1.429 . S
C3335 C3331 1.429 . S
C3335 C3336 1.523 . S
C3336 C3320 1.368 . S
C3336 C3332 1.368 . S
C3336 C3335 1.523 . S
H3337 C3312 0.950 . S
H3338 C3314 0.950 . S
H3339 C3315 0.949 . S
H3340 C3317 0.950 . S
H3341 C3319 0.950 . S
C3342 C3343 1.349 . S
C3342 C3344 1.327 . S
C3342 H3367 0.950 . S
C3343 C3342 1.349 . S
C3343 C3359 1.349 . S
C3344 C3342 1.327 . S
C3344 C3363 1.429 . S
C3344 H3368 0.950 . S
C3345 C3362 1.574 . S
C3345 C3364 1.368 . S
C3345 H3369 0.949 . S
H3346 C3350 0.949 . S
C3347 C3348 1.349 . S
C3347 C3349 1.327 . S
C3347 H3370 0.950 . S
C3348 C3347 1.349 . S
C3348 C3360 1.349 . S
C3349 C3347 1.327 . S
C3349 C3365 1.429 . S
C3349 H3371 0.950 . S
C3350 H3346 0.949 . S
C3350 C3358 1.574 . S
C3350 C3366 1.368 . S
H3351 C3359 0.950 . S
H3352 C3357 0.950 . S
H3353 C3358 0.949 . S
H3354 C3360 0.950 . S
H3355 C3361 0.950 . S
H3356 C3362 0.949 . S
C3357 H3352 0.950 . S
C3357 C3359 1.327 . S
C3357 C3363 1.429 . S
C3358 C3350 1.574 . S
C3358 H3353 0.949 . S
C3358 C3364 1.368 . S
C3359 C3343 1.349 . S
C3359 H3351 0.950 . S
C3359 C3357 1.327 . S
C3360 C3348 1.349 . S
C3360 H3354 0.950 . S
C3360 C3361 1.327 . S
C3361 H3355 0.950 . S
C3361 C3360 1.327 . S
C3361 C3365 1.429 . S
C3362 C3345 1.574 . S
C3362 H3356 0.949 . S
C3362 C3366 1.368 . S
C3363 C3344 1.429 . S
C3363 C3357 1.429 . S
C3363 C3364 1.523 . S
C3364 C3345 1.368 . S
C3364 C3358 1.368 . S
C3364 C3363 1.523 . S
C3365 C3349 1.429 . S
C3365 C3361 1.429 . S
C3365 C3366 1.523 . S
C3366 C3350 1.368 . S
C3366 C3362 1.368 . S
C3366 C3365 1.523 . S
H3367 C3342 0.950 . S
H3368 C3344 0.950 . S
H3369 C3345 0.949 . S
H3370 C3347 0.950 . S
H3371 C3349 0.950 . S
C3372 C3373 1.349 . S
C3372 C3374 1.327 . S
C3372 H3397 0.950 . S
C3373 C3372 1.349 . S
C3373 C3389 1.349 . S
C3374 C3372 1.327 . S
C3374 C3393 1.429 . S
C3374 H3398 0.950 . S
C3375 C3392 1.574 . S
C3375 C3394 1.368 . S
C3375 H3399 0.949 . S
H3376 C3380 0.949 . S
C3377 C3378 1.349 . S
C3377 C3379 1.327 . S
C3377 H3400 0.950 . S
C3378 C3377 1.349 . S
C3378 C3390 1.349 . S
C3379 C3377 1.327 . S
C3379 C3395 1.429 . S
C3379 H3401 0.950 . S
C3380 H3376 0.949 . S
C3380 C3388 1.574 . S
C3380 C3396 1.368 . S
H3381 C3389 0.950 . S
H3382 C3387 0.950 . S
H3383 C3388 0.949 . S
H3384 C3390 0.950 . S
H3385 C3391 0.950 . S
H3386 C3392 0.949 . S
C3387 H3382 0.950 . S
C3387 C3389 1.327 . S
C3387 C3393 1.429 . S
C3388 C3380 1.574 . S
C3388 H3383 0.949 . S
C3388 C3394 1.368 . S
C3389 C3373 1.349 . S
C3389 H3381 0.950 . S
C3389 C3387 1.327 . S
C3390 C3378 1.349 . S
C3390 H3384 0.950 . S
C3390 C3391 1.327 . S
C3391 H3385 0.950 . S
C3391 C3390 1.327 . S
C3391 C3395 1.429 . S
C3392 C3375 1.574 . S
C3392 H3386 0.949 . S
C3392 C3396 1.368 . S
C3393 C3374 1.429 . S
C3393 C3387 1.429 . S
C3393 C3394 1.523 . S
C3394 C3375 1.368 . S
C3394 C3388 1.368 . S
C3394 C3393 1.523 . S
C3395 C3379 1.429 . S
C3395 C3391 1.429 . S
C3395 C3396 1.523 . S
C3396 C3380 1.368 . S
C3396 C3392 1.368 . S
C3396 C3395 1.523 . S
H3397 C3372 0.950 . S
H3398 C3374 0.950 . S
H3399 C3375 0.949 . S
H3400 C3377 0.950 . S
H3401 C3379 0.950 . S
C3402 C3403 1.349 . S
C3402 C3404 1.327 . S
C3402 H3427 0.950 . S
C3403 C3402 1.349 . S
C3403 C3419 1.349 . S
C3404 C3402 1.327 . S
C3404 C3423 1.429 . S
C3404 H3428 0.950 . S
C3405 C3422 1.574 . S
C3405 C3424 1.368 . S
C3405 H3429 0.949 . S
H3406 C3410 0.949 . S
C3407 C3408 1.349 . S
C3407 C3409 1.327 . S
C3407 H3430 0.950 . S
C3408 C3407 1.349 . S
C3408 C3420 1.349 . S
C3409 C3407 1.327 . S
C3409 C3425 1.429 . S
C3409 H3431 0.950 . S
C3410 H3406 0.949 . S
C3410 C3418 1.574 . S
C3410 C3426 1.368 . S
H3411 C3419 0.950 . S
H3412 C3417 0.950 . S
H3413 C3418 0.949 . S
H3414 C3420 0.950 . S
H3415 C3421 0.950 . S
H3416 C3422 0.949 . S
C3417 H3412 0.950 . S
C3417 C3419 1.327 . S
C3417 C3423 1.429 . S
C3418 C3410 1.574 . S
C3418 H3413 0.949 . S
C3418 C3424 1.368 . S
C3419 C3403 1.349 . S
C3419 H3411 0.950 . S
C3419 C3417 1.327 . S
C3420 C3408 1.349 . S
C3420 H3414 0.950 . S
C3420 C3421 1.327 . S
C3421 H3415 0.950 . S
C3421 C3420 1.327 . S
C3421 C3425 1.429 . S
C3422 C3405 1.574 . S
C3422 H3416 0.949 . S
C3422 C3426 1.368 . S
C3423 C3404 1.429 . S
C3423 C3417 1.429 . S
C3423 C3424 1.523 . S
C3424 C3405 1.368 . S
C3424 C3418 1.368 . S
C3424 C3423 1.523 . S
C3425 C3409 1.429 . S
C3425 C3421 1.429 . S
C3425 C3426 1.523 . S
C3426 C3410 1.368 . S
C3426 C3422 1.368 . S
C3426 C3425 1.523 . S
H3427 C3402 0.950 . S
H3428 C3404 0.950 . S
H3429 C3405 0.949 . S
H3430 C3407 0.950 . S
H3431 C3409 0.950 . S
C3432 C3433 1.349 . S
C3432 C3434 1.327 . S
C3432 H3457 0.950 . S
C3433 C3432 1.349 . S
C3433 C3449 1.349 . S
C3434 C3432 1.327 . S
C3434 C3453 1.429 . S
C3434 H3458 0.950 . S
C3435 C3452 1.574 . S
C3435 C3454 1.368 . S
C3435 H3459 0.949 . S
H3436 C3440 0.949 . S
C3437 C3438 1.349 . S
C3437 C3439 1.327 . S
C3437 H3460 0.950 . S
C3438 C3437 1.349 . S
C3438 C3450 1.349 . S
C3439 C3437 1.327 . S
C3439 C3455 1.429 . S
C3439 H3461 0.950 . S
C3440 H3436 0.949 . S
C3440 C3448 1.574 . S
C3440 C3456 1.368 . S
H3441 C3449 0.950 . S
H3442 C3447 0.950 . S
H3443 C3448 0.949 . S
H3444 C3450 0.950 . S
H3445 C3451 0.950 . S
H3446 C3452 0.949 . S
C3447 H3442 0.950 . S
C3447 C3449 1.327 . S
C3447 C3453 1.429 . S
C3448 C3440 1.574 . S
C3448 H3443 0.949 . S
C3448 C3454 1.368 . S
C3449 C3433 1.349 . S
C3449 H3441 0.950 . S
C3449 C3447 1.327 . S
C3450 C3438 1.349 . S
C3450 H3444 0.950 . S
C3450 C3451 1.327 . S
C3451 H3445 0.950 . S
C3451 C3450 1.327 . S
C3451 C3455 1.429 . S
C3452 C3435 1.574 . S
C3452 H3446 0.949 . S
C3452 C3456 1.368 . S
C3453 C3434 1.429 . S
C3453 C3447 1.429 . S
C3453 C3454 1.523 . S
C3454 C3435 1.368 . S
C3454 C3448 1.368 . S
C3454 C3453 1.523 . S
C3455 C3439 1.429 . S
C3455 C3451 1.429 . S
C3455 C3456 1.523 . S
C3456 C3440 1.368 . S
C3456 C3452 1.368 . S
C3456 C3455 1.523 . S
H3457 C3432 0.950 . S
H3458 C3434 0.950 . S
H3459 C3435 0.949 . S
H3460 C3437 0.950 . S
H3461 C3439 0.950 . S
C3462 C3463 1.349 . S
C3462 C3464 1.327 . S
C3462 H3487 0.950 . S
C3463 C3462 1.349 . S
C3463 C3479 1.349 . S
C3464 C3462 1.327 . S
C3464 C3483 1.429 . S
C3464 H3488 0.950 . S
C3465 C3482 1.574 . S
C3465 C3484 1.368 . S
C3465 H3489 0.949 . S
H3466 C3470 0.949 . S
C3467 C3468 1.349 . S
C3467 C3469 1.327 . S
C3467 H3490 0.950 . S
C3468 C3467 1.349 . S
C3468 C3480 1.349 . S
C3469 C3467 1.327 . S
C3469 C3485 1.429 . S
C3469 H3491 0.950 . S
C3470 H3466 0.949 . S
C3470 C3478 1.574 . S
C3470 C3486 1.368 . S
H3471 C3479 0.950 . S
H3472 C3477 0.950 . S
H3473 C3478 0.949 . S
H3474 C3480 0.950 . S
H3475 C3481 0.950 . S
H3476 C3482 0.949 . S
C3477 H3472 0.950 . S
C3477 C3479 1.327 . S
C3477 C3483 1.429 . S
C3478 C3470 1.574 . S
C3478 H3473 0.949 . S
C3478 C3484 1.368 . S
C3479 C3463 1.349 . S
C3479 H3471 0.950 . S
C3479 C3477 1.327 . S
C3480 C3468 1.349 . S
C3480 H3474 0.950 . S
C3480 C3481 1.327 . S
C3481 H3475 0.950 . S
C3481 C3480 1.327 . S
C3481 C3485 1.429 . S
C3482 C3465 1.574 . S
C3482 H3476 0.949 . S
C3482 C3486 1.368 . S
C3483 C3464 1.429 . S
C3483 C3477 1.429 . S
C3483 C3484 1.523 . S
C3484 C3465 1.368 . S
C3484 C3478 1.368 . S
C3484 C3483 1.523 . S
C3485 C3469 1.429 . S
C3485 C3481 1.429 . S
C3485 C3486 1.523 . S
C3486 C3470 1.368 . S
C3486 C3482 1.368 . S
C3486 C3485 1.523 . S
H3487 C3462 0.950 . S
H3488 C3464 0.950 . S
H3489 C3465 0.949 . S
H3490 C3467 0.950 . S
H3491 C3469 0.950 . S
C3492 C3493 1.349 . S
C3492 C3494 1.327 . S
C3492 H3517 0.950 . S
C3493 C3492 1.349 . S
C3493 C3509 1.349 . S
C3494 C3492 1.327 . S
C3494 C3513 1.429 . S
C3494 H3518 0.950 . S
C3495 C3512 1.574 . S
C3495 C3514 1.368 . S
C3495 H3519 0.949 . S
H3496 C3500 0.949 . S
C3497 C3498 1.349 . S
C3497 C3499 1.327 . S
C3497 H3520 0.950 . S
C3498 C3497 1.349 . S
C3498 C3510 1.349 . S
C3499 C3497 1.327 . S
C3499 C3515 1.429 . S
C3499 H3521 0.950 . S
C3500 H3496 0.949 . S
C3500 C3508 1.574 . S
C3500 C3516 1.368 . S
H3501 C3509 0.950 . S
H3502 C3507 0.950 . S
H3503 C3508 0.949 . S
H3504 C3510 0.950 . S
H3505 C3511 0.950 . S
H3506 C3512 0.949 . S
C3507 H3502 0.950 . S
C3507 C3509 1.327 . S
C3507 C3513 1.429 . S
C3508 C3500 1.574 . S
C3508 H3503 0.949 . S
C3508 C3514 1.368 . S
C3509 C3493 1.349 . S
C3509 H3501 0.950 . S
C3509 C3507 1.327 . S
C3510 C3498 1.349 . S
C3510 H3504 0.950 . S
C3510 C3511 1.327 . S
C3511 H3505 0.950 . S
C3511 C3510 1.327 . S
C3511 C3515 1.429 . S
C3512 C3495 1.574 . S
C3512 H3506 0.949 . S
C3512 C3516 1.368 . S
C3513 C3494 1.429 . S
C3513 C3507 1.429 . S
C3513 C3514 1.523 . S
C3514 C3495 1.368 . S
C3514 C3508 1.368 . S
C3514 C3513 1.523 . S
C3515 C3499 1.429 . S
C3515 C3511 1.429 . S
C3515 C3516 1.523 . S
C3516 C3500 1.368 . S
C3516 C3512 1.368 . S
C3516 C3515 1.523 . S
H3517 C3492 0.950 . S
H3518 C3494 0.950 . S
H3519 C3495 0.949 . S
H3520 C3497 0.950 . S
H3521 C3499 0.950 . S
C3522 C3523 1.349 . S
C3522 C3524 1.327 . S
C3522 H3547 0.950 . S
C3523 C3522 1.349 . S
C3523 C3539 1.349 . S
C3524 C3522 1.327 . S
C3524 C3543 1.429 . S
C3524 H3548 0.950 . S
C3525 C3542 1.574 . S
C3525 C3544 1.368 . S
C3525 H3549 0.949 . S
H3526 C3530 0.949 . S
C3527 C3528 1.349 . S
C3527 C3529 1.327 . S
C3527 H3550 0.950 . S
C3528 C3527 1.349 . S
C3528 C3540 1.349 . S
C3529 C3527 1.327 . S
C3529 C3545 1.429 . S
C3529 H3551 0.950 . S
C3530 H3526 0.949 . S
C3530 C3538 1.574 . S
C3530 C3546 1.368 . S
H3531 C3539 0.950 . S
H3532 C3537 0.950 . S
H3533 C3538 0.949 . S
H3534 C3540 0.950 . S
H3535 C3541 0.950 . S
H3536 C3542 0.949 . S
C3537 H3532 0.950 . S
C3537 C3539 1.327 . S
C3537 C3543 1.429 . S
C3538 C3530 1.574 . S
C3538 H3533 0.949 . S
C3538 C3544 1.368 . S
C3539 C3523 1.349 . S
C3539 H3531 0.950 . S
C3539 C3537 1.327 . S
C3540 C3528 1.349 . S
C3540 H3534 0.950 . S
C3540 C3541 1.327 . S
C3541 H3535 0.950 . S
C3541 C3540 1.327 . S
C3541 C3545 1.429 . S
C3542 C3525 1.574 . S
C3542 H3536 0.949 . S
C3542 C3546 1.368 . S
C3543 C3524 1.429 . S
C3543 C3537 1.429 . S
C3543 C3544 1.523 . S
C3544 C3525 1.368 . S
C3544 C3538 1.368 . S
C3544 C3543 1.523 . S
C3545 C3529 1.429 . S
C3545 C3541 1.429 . S
C3545 C3546 1.523 . S
C3546 C3530 1.368 . S
C3546 C3542 1.368 . S
C3546 C3545 1.523 . S
H3547 C3522 0.950 . S
H3548 C3524 0.950 . S
H3549 C3525 0.949 . S
H3550 C3527 0.950 . S
H3551 C3529 0.950 . S
C673 C134 1.722 . S
C678 C8 1.722 . S
C703 C148 1.722 . S
C708 C22 1.722 . S
C733 C162 1.721 . S
C738 C36 1.721 . S
C763 C120 1.722 . S
C768 C50 1.722 . S
C793 C64 1.722 . S
C798 C218 1.722 . S
C823 C78 1.721 . S
C828 C176 1.721 . S
C853 C92 1.722 . S
C858 C190 1.722 . S
C883 C204 1.722 . S
C888 C106 1.722 . S
C913 C232 1.722 . S
C918 C260 1.722 . S
C943 C246 1.722 . S
C948 C652 1.722 . S
C973 C274 1.721 . S
C978 C666 1.721 . S
C1003 C288 1.722 . S
C1008 C638 1.722 . S
C1033 C302 1.722 . S
C1038 C624 1.722 . S
C1063 C582 1.722 . S
C1068 C316 1.722 . S
C1093 C330 1.721 . S
C1098 C610 1.721 . S
C1123 C470 1.722 . S
C1128 C344 1.722 . S
C1153 C484 1.722 . S
C1158 C358 1.722 . S
C1183 C498 1.721 . S
C1188 C372 1.721 . S
C1213 C456 1.722 . S
C1218 C386 1.722 . S
C1243 C554 1.722 . S
C1248 C400 1.722 . S
C1273 C512 1.721 . S
C1278 C414 1.721 . S
C1303 C428 1.722 . S
C1308 C526 1.722 . S
C1333 C442 1.722 . S
C1338 C540 1.722 . S
C1363 C568 1.722 . S
C1368 C596 1.722 . S
C1393 C227 0.758 . S
C1398 C9 0.756 . S
C1423 C661 0.758 1_565 S
C1428 C23 0.756 . S
C1453 C37 0.755 . S
C1458 C297 0.758 . S
C1483 C647 0.758 1_545 S
C1488 C51 0.755 . S
C1513 C65 0.756 . S
C1518 C577 0.758 . S
C1543 C591 0.758 1_565 S
C1548 C79 0.756 . S
C1573 C93 0.756 . S
C1578 C605 0.758 . S
C1603 C283 0.758 1_545 S
C1608 C107 0.755 . S
C1633 C121 0.756 . S
C1638 C3 0.758 . S
C1663 C17 0.758 1_455 S
C1668 C135 0.755 . S
C1693 C149 0.756 . S
C1698 C31 0.758 . S
C1723 C45 0.758 . S
C1728 C163 0.756 . S
C1753 C177 0.756 . S
C1758 C59 0.758 . S
C1783 C73 0.758 . S
C1788 C191 0.756 . S
C1813 C205 0.756 . S
C1818 C87 0.758 . S
C1843 C219 0.755 . S
C1848 C101 0.758 1_455 S
C1873 C233 0.756 . S
C1878 C115 0.758 . S
C1903 C247 0.756 . S
C1908 C507 0.758 . S
C1933 C521 0.758 1_554 S
C1938 C261 0.755 . S
C1963 C535 0.758 . S
C1968 C275 0.755 . S
C1993 C213 0.758 1_554 S
C1998 C289 0.755 . S
C2023 C303 0.756 . S
C2028 C143 0.758 . S
C2053 C493 0.758 . S
C2058 C317 0.756 . S
C2083 C331 0.756 . S
C2088 C465 0.758 1_556 S
C2113 C345 0.755 . S
C2118 C563 0.758 . S
C2143 C359 0.756 . S
C2148 C325 0.758 . S
C2173 C373 0.756 . S
C2178 C633 0.758 . S
C2203 C387 0.756 . S
C2208 C311 0.758 . S
C2233 C401 0.756 . S
C2238 C241 0.758 . S
C2263 C415 0.756 . S
C2268 C255 0.758 . S
C2293 C269 0.758 . S
C2298 C429 0.756 . S
C2323 C619 0.758 . S
C2328 C443 0.756 . S
C2353 C339 0.758 . S
C2358 C457 0.755 . S
C2383 C353 0.758 . S
C2388 C471 0.756 . S
C2413 C485 0.756 . S
C2418 C367 0.758 . S
C2443 C381 0.758 1_655 S
C2448 C499 0.756 . S
C2473 C513 0.755 . S
C2478 C395 0.758 . S
C2503 C527 0.756 . S
C2508 C409 0.758 1_655 S
C2533 C541 0.756 . S
C2538 C423 0.758 . S
C2563 C437 0.758 . S
C2568 C555 0.756 . S
C2593 C569 0.755 . S
C2598 C451 0.758 . S
C2623 C583 0.756 . S
C2628 C171 0.758 . S
C2653 C185 0.758 . S
C2658 C597 0.756 . S
C2683 C611 0.756 . S
C2688 C199 0.758 . S
C2713 C625 0.756 . S
C2718 C549 0.758 . S
C2743 C479 0.758 . S
C2748 C639 0.756 . S
C2773 C157 0.758 1_556 S
C2778 C653 0.756 . S
C2803 C129 0.758 . S
C2808 C667 0.756 . S
C2833 C315 1.211 . S
C2838 C7 1.211 . S
C2863 C21 1.211 . S
C2868 C567 1.211 . S
C2893 C35 1.211 . S
C2898 C329 1.211 . S
C2923 C637 1.211 . S
C2928 C49 1.211 . S
C2953 C63 1.211 . S
C2958 C259 1.211 . S
C2983 C273 1.211 . S
C2988 C77 1.211 . S
C3013 C623 1.211 . S
C3018 C91 1.211 . S
C3043 C105 1.211 . S
C3048 C245 1.211 . S
C3073 C189 1.211 . S
C3078 C119 1.211 . S
C3103 C133 1.211 . S
C3108 C203 1.211 . S
C3133 C217 1.211 . S
C3138 C147 1.211 . S
C3163 C161 1.211 . S
C3168 C175 1.211 . S
C3193 C357 1.211 . S
C3198 C231 1.211 . S
C3223 C287 1.211 . S
C3228 C427 1.211 . S
C3253 C301 1.211 . S
C3258 C385 1.211 . S
C3283 C651 1.211 . S
C3288 C343 1.211 . S
C3313 C371 1.211 . S
C3318 C665 1.211 . S
C3343 C399 1.211 . S
C3348 C595 1.211 . S
C3373 C413 1.211 . S
C3378 C609 1.211 . S
C3403 C581 1.211 . S
C3408 C441 1.211 . S
C3433 C525 1.211 . S
C3438 C455 1.211 . S
C3463 C469 1.211 . S
C3468 C539 1.211 . S
C3493 C483 1.211 . S
C3498 C553 1.211 . S
C3523 C511 1.211 . S
C3528 C497 1.211 . S
