# Generated by pormake.
# Topology wiv, (6)-cn, num edge types: 1
# Building blocks:
#     Node 0, Type 0, BuildingBlock: BETDAH_clean_sbu_0, # of connection points: 6
#     Node 1, Type 0, BuildingBlock: BETDAH_clean_sbu_0, # of connection points: 6
#     Node 2, Type 0, BuildingBlock: BETDAH_clean_sbu_0, # of connection points: 6
#     Node 3, Type 0, BuildingBlock: BETDAH_clean_sbu_0, # of connection points: 6
#     Node 4, Type 0, BuildingBlock: BETDAH_clean_sbu_0, # of connection points: 6
#     Node 5, Type 0, BuildingBlock: BETDAH_clean_sbu_0, # of connection points: 6
#     Node 6, Type 0, BuildingBlock: BETDAH_clean_sbu_0, # of connection points: 6
#     Node 7, Type 0, BuildingBlock: BETDAH_clean_sbu_0, # of connection points: 6
#     Node 8, Type 0, BuildingBlock: BETDAH_clean_sbu_0, # of connection points: 6
#     Node 9, Type 0, BuildingBlock: BETDAH_clean_sbu_0, # of connection points: 6
#     Node 10, Type 0, BuildingBlock: BETDAH_clean_sbu_0, # of connection points: 6
#     Node 11, Type 0, BuildingBlock: BETDAH_clean_sbu_0, # of connection points: 6
#     Node 12, Type 0, BuildingBlock: BETDAH_clean_sbu_0, # of connection points: 6
#     Node 13, Type 0, BuildingBlock: BETDAH_clean_sbu_0, # of connection points: 6
#     Node 14, Type 0, BuildingBlock: BETDAH_clean_sbu_0, # of connection points: 6
#     Node 15, Type 0, BuildingBlock: BETDAH_clean_sbu_0, # of connection points: 6
#     Edge 16, Type (0, 0), BuildingBlock: XIVTED_clean_linker_0, # of connection points: 2
#     Edge 17, Type (0, 0), BuildingBlock: XIVTED_clean_linker_0, # of connection points: 2
#     Edge 18, Type (0, 0), BuildingBlock: XIVTED_clean_linker_0, # of connection points: 2
#     Edge 19, Type (0, 0), BuildingBlock: XIVTED_clean_linker_0, # of connection points: 2
#     Edge 20, Type (0, 0), BuildingBlock: XIVTED_clean_linker_0, # of connection points: 2
#     Edge 21, Type (0, 0), BuildingBlock: XIVTED_clean_linker_0, # of connection points: 2
#     Edge 22, Type (0, 0), BuildingBlock: XIVTED_clean_linker_0, # of connection points: 2
#     Edge 23, Type (0, 0), BuildingBlock: XIVTED_clean_linker_0, # of connection points: 2
#     Edge 24, Type (0, 0), BuildingBlock: XIVTED_clean_linker_0, # of connection points: 2
#     Edge 25, Type (0, 0), BuildingBlock: XIVTED_clean_linker_0, # of connection points: 2
#     Edge 26, Type (0, 0), BuildingBlock: XIVTED_clean_linker_0, # of connection points: 2
#     Edge 27, Type (0, 0), BuildingBlock: XIVTED_clean_linker_0, # of connection points: 2
#     Edge 28, Type (0, 0), BuildingBlock: XIVTED_clean_linker_0, # of connection points: 2
#     Edge 29, Type (0, 0), BuildingBlock: XIVTED_clean_linker_0, # of connection points: 2
#     Edge 30, Type (0, 0), BuildingBlock: XIVTED_clean_linker_0, # of connection points: 2
#     Edge 31, Type (0, 0), BuildingBlock: XIVTED_clean_linker_0, # of connection points: 2
#     Edge 32, Type (0, 0), BuildingBlock: XIVTED_clean_linker_0, # of connection points: 2
#     Edge 33, Type (0, 0), BuildingBlock: XIVTED_clean_linker_0, # of connection points: 2
#     Edge 34, Type (0, 0), BuildingBlock: XIVTED_clean_linker_0, # of connection points: 2
#     Edge 35, Type (0, 0), BuildingBlock: XIVTED_clean_linker_0, # of connection points: 2
#     Edge 36, Type (0, 0), BuildingBlock: XIVTED_clean_linker_0, # of connection points: 2
#     Edge 37, Type (0, 0), BuildingBlock: XIVTED_clean_linker_0, # of connection points: 2
#     Edge 38, Type (0, 0), BuildingBlock: XIVTED_clean_linker_0, # of connection points: 2
#     Edge 39, Type (0, 0), BuildingBlock: XIVTED_clean_linker_0, # of connection points: 2
#     Edge 40, Type (0, 0), BuildingBlock: XIVTED_clean_linker_0, # of connection points: 2
#     Edge 41, Type (0, 0), BuildingBlock: XIVTED_clean_linker_0, # of connection points: 2
#     Edge 42, Type (0, 0), BuildingBlock: XIVTED_clean_linker_0, # of connection points: 2
#     Edge 43, Type (0, 0), BuildingBlock: XIVTED_clean_linker_0, # of connection points: 2
#     Edge 44, Type (0, 0), BuildingBlock: XIVTED_clean_linker_0, # of connection points: 2
#     Edge 45, Type (0, 0), BuildingBlock: XIVTED_clean_linker_0, # of connection points: 2
#     Edge 46, Type (0, 0), BuildingBlock: XIVTED_clean_linker_0, # of connection points: 2
#     Edge 47, Type (0, 0), BuildingBlock: XIVTED_clean_linker_0, # of connection points: 2
#     Edge 48, Type (0, 0), BuildingBlock: XIVTED_clean_linker_0, # of connection points: 2
#     Edge 49, Type (0, 0), BuildingBlock: XIVTED_clean_linker_0, # of connection points: 2
#     Edge 50, Type (0, 0), BuildingBlock: XIVTED_clean_linker_0, # of connection points: 2
#     Edge 51, Type (0, 0), BuildingBlock: XIVTED_clean_linker_0, # of connection points: 2
#     Edge 52, Type (0, 0), BuildingBlock: XIVTED_clean_linker_0, # of connection points: 2
#     Edge 53, Type (0, 0), BuildingBlock: XIVTED_clean_linker_0, # of connection points: 2
#     Edge 54, Type (0, 0), BuildingBlock: XIVTED_clean_linker_0, # of connection points: 2
#     Edge 55, Type (0, 0), BuildingBlock: XIVTED_clean_linker_0, # of connection points: 2
#     Edge 56, Type (0, 0), BuildingBlock: XIVTED_clean_linker_0, # of connection points: 2
#     Edge 57, Type (0, 0), BuildingBlock: XIVTED_clean_linker_0, # of connection points: 2
#     Edge 58, Type (0, 0), BuildingBlock: XIVTED_clean_linker_0, # of connection points: 2
#     Edge 59, Type (0, 0), BuildingBlock: XIVTED_clean_linker_0, # of connection points: 2
#     Edge 60, Type (0, 0), BuildingBlock: XIVTED_clean_linker_0, # of connection points: 2
#     Edge 61, Type (0, 0), BuildingBlock: XIVTED_clean_linker_0, # of connection points: 2
#     Edge 62, Type (0, 0), BuildingBlock: XIVTED_clean_linker_0, # of connection points: 2
#     Edge 63, Type (0, 0), BuildingBlock: XIVTED_clean_linker_0, # of connection points: 2
# Relax obj value: 0.122
# Max RMSD: 0.181
# Mean RMSD: 0.181
data_MOF--net-wiv--node1-BETDAH_clean_sbu_0--edge1-XIVTED_clean_linker_0
_symmetry_space_group_name_H-M    P1
_symmetry_Int_Tables_number       1
_symmetry_cell_setting            triclinic
loop_
_symmetry_equiv_pos_as_xyz
'x, y, z'
_cell_length_a     50.589298
_cell_length_b     50.59913
_cell_length_c     24.792911
_cell_angle_alpha  90.09057
_cell_angle_beta   90.090112
_cell_angle_gamma 90.06324
loop_
_atom_site_label
_atom_site_type_symbol
_atom_site_fract_x
_atom_site_fract_y
_atom_site_fract_z
_atom_type_partial_charge
Ho0 Ho 0.3513 0.10782 0.16695 0.0
Ho1 Ho 0.39009 0.11849 0.07693 0.0
C2 C 0.41345 0.12154 0.19376 0.0
C3 C 0.32939 0.09211 0.25583 0.0
C4 C 0.33616 0.09381 0.31393 0.0
C5 C 0.36173 0.0881 0.33292 0.0
C6 C 0.36787 0.09071 0.38784 0.0
C7 C 0.3486 0.0991 0.42509 0.0
C8 C 0.32299 0.10463 0.40582 0.0
C9 C 0.31687 0.10199 0.35095 0.0
C10 C 0.35319 0.15893 0.13471 0.0
C11 C 0.32837 0.10423 0.04821 0.0
C12 C 0.41263 0.13352 0.98837 0.0
C13 C 0.40618 0.13122 0.93014 0.0
C14 C 0.38108 0.138 0.90999 0.0
C15 C 0.37511 0.13475 0.85516 0.0
C16 C 0.39411 0.12476 0.81904 0.0
C17 C 0.41929 0.11823 0.83934 0.0
C18 C 0.42521 0.12141 0.8942 0.0
C19 C 0.3892 0.0684 0.11475 0.0
O20 O 0.39146 0.10923 0.20847 0.0
O21 O 0.41623 0.13141 0.14478 0.0
O22 O 0.3236 0.11442 0.23226 0.0
O23 O 0.34418 0.07694 0.22561 0.0
O24 O 0.33178 0.1464 0.14781 0.0
O25 O 0.3728 0.14378 0.14026 0.0
O26 O 0.35087 0.11546 0.03359 0.0
O27 O 0.32435 0.09631 0.09845 0.0
O28 O 0.41847 0.11146 1.01303 0.0
O29 O 0.39756 0.14893 1.01761 0.0
O30 O 0.41062 0.08077 0.10106 0.0
O31 O 0.36946 0.08288 0.10571 0.0
H32 H 0.37704 0.08171 0.30537 0.0
H33 H 0.38769 0.08591 0.40111 0.0
H34 H 0.30771 0.11151 0.43295 0.0
H35 H 0.29706 0.10663 0.33728 0.0
H36 H 0.36597 0.14568 0.9366 0.0
H37 H 0.35564 0.14033 0.84101 0.0
H38 H 0.43433 0.11017 0.81302 0.0
H39 H 0.44467 0.11595 0.90871 0.0
Ho40 Ho 0.11839 0.62416 0.98676 0.0
Ho41 Ho 0.10411 0.6633 0.88976 0.0
C42 C 0.10137 0.68601 1.01156 0.0
C43 C 0.13497 0.60438 0.07678 0.0
C44 C 0.13074 0.61155 0.13395 0.0
C45 C 0.14982 0.60529 0.17295 0.0
C46 C 0.14585 0.61204 0.22722 0.0
C47 C 0.12269 0.62526 0.24358 0.0
C48 C 0.10371 0.63163 0.20408 0.0
C49 C 0.10767 0.6248 0.14998 0.0
C50 C 0.06877 0.62247 0.94631 0.0
C51 C 0.12477 0.60218 0.86857 0.0
C52 C 0.07969 0.68131 0.80607 0.0
C53 C 0.08523 0.67851 0.74795 0.0
C54 C 0.06684 0.68715 0.70952 0.0
C55 C 0.07133 0.6828 0.65441 0.0
C56 C 0.09431 0.66967 0.63673 0.0
C57 C 0.1128 0.6613 0.67563 0.0
C58 C 0.10828 0.66564 0.73061 0.0
C59 C 0.15729 0.66118 0.90385 0.0
O60 O 0.10986 0.66271 0.0288 0.0
O61 O 0.09639 0.69102 0.95982 0.0
O62 O 0.11417 0.59562 0.05084 0.0
O63 O 0.14889 0.62108 0.04811 0.0
O64 O 0.0815 0.60175 0.96304 0.0
O65 O 0.08266 0.64281 0.95382 0.0
O66 O 0.11115 0.62302 0.85134 0.0
O67 O 0.13356 0.59987 0.91866 0.0
O68 O 0.09668 0.69539 0.83405 0.0
O69 O 0.07311 0.6593 0.83032 0.0
O70 O 0.14555 0.67635 0.86924 0.0
O71 O 0.13976 0.64883 0.92962 0.0
H72 H 0.16775 0.59504 0.16147 0.0
H73 H 0.16076 0.60652 0.25647 0.0
H74 H 0.08586 0.64219 0.21481 0.0
H75 H 0.09268 0.62994 0.12056 0.0
H76 H 0.04886 0.69697 0.72215 0.0
H77 H 0.05681 0.68978 0.62566 0.0
H78 H 0.13048 0.65076 0.66374 0.0
H79 H 0.12258 0.65853 0.75974 0.0
Ho80 Ho 0.66278 0.9039 0.16348 0.0
Ho81 Ho 0.62355 0.89814 0.07258 0.0
C82 C 0.59979 0.89239 0.18886 0.0
C83 C 0.68638 0.91574 0.25327 0.0
C84 C 0.67964 0.9137 0.31103 0.0
C85 C 0.65362 0.91752 0.3292 0.0
C86 C 0.64751 0.91501 0.38398 0.0
C87 C 0.66728 0.90858 0.42176 0.0
C88 C 0.69331 0.90478 0.40332 0.0
C89 C 0.6994 0.90733 0.34852 0.0
C90 C 0.6595 0.8546 0.12249 0.0
C91 C 0.6856 0.91042 0.04485 0.0
C92 C 0.59997 0.88544 0.98345 0.0
C93 C 0.60691 0.8864 0.92563 0.0
C94 C 0.63251 0.88026 0.90764 0.0
C95 C 0.63902 0.88256 0.85299 0.0
C96 C 0.62005 0.89095 0.81511 0.0
C97 C 0.59434 0.89673 0.83332 0.0
C98 C 0.58789 0.89451 0.88799 0.0
C99 C 0.62628 0.94684 0.11709 0.0
O100 O 0.6231 0.9008 0.20655 0.0
O101 O 0.59563 0.88667 0.13764 0.0
O102 O 0.6899 0.89341 0.22785 0.0
O103 O 0.67274 0.93266 0.22483 0.0
O104 O 0.68135 0.86621 0.13628 0.0
O105 O 0.64012 0.86975 0.13137 0.0
O106 O 0.66249 0.90105 0.02878 0.0
O107 O 0.6902 0.91614 0.09621 0.0
O108 O 0.59703 0.90832 1.00718 0.0
O109 O 0.61293 0.86851 1.01337 0.0
O110 O 0.60455 0.93611 0.0999 0.0
O111 O 0.64556 0.9319 0.10684 0.0
H112 H 0.63796 0.92237 0.30112 0.0
H113 H 0.62721 0.91772 0.39659 0.0
H114 H 0.70907 0.90012 0.43134 0.0
H115 H 0.71958 0.90429 0.33536 0.0
H116 H 0.6476 0.87398 0.93585 0.0
H117 H 0.65909 0.87827 0.84066 0.0
H118 H 0.57911 0.90284 0.80527 0.0
H119 H 0.56802 0.89931 0.90097 0.0
Ho120 Ho 0.89392 0.38788 0.97717 0.0
Ho121 Ho 0.90507 0.34939 0.88706 0.0
C122 C 0.90851 0.32612 1.00516 0.0
C123 C 0.87851 0.40999 0.0661 0.0
C124 C 0.88269 0.40391 0.12376 0.0
C125 C 0.86571 0.41446 0.16288 0.0
C126 C 0.86933 0.40845 0.21759 0.0
C127 C 0.88995 0.39161 0.23425 0.0
C128 C 0.90692 0.38109 0.1947 0.0
C129 C 0.90337 0.38725 0.1401 0.0
C130 C 0.94428 0.38752 0.94083 0.0
C131 C 0.89096 0.4114 0.86083 0.0
C132 C 0.92108 0.32816 0.79755 0.0
C133 C 0.91854 0.33551 0.74013 0.0
C134 C 0.93432 0.32311 0.7012 0.0
C135 C 0.9318 0.32972 0.64655 0.0
C136 C 0.91342 0.34894 0.62966 0.0
C137 C 0.8978 0.36148 0.66913 0.0
C138 C 0.90034 0.35483 0.72372 0.0
C139 C 0.85395 0.3508 0.9192 0.0
O140 O 0.89713 0.34853 1.01991 0.0
O141 O 0.91678 0.32237 0.95506 0.0
O142 O 0.89944 0.41746 0.03926 0.0
O143 O 0.8641 0.39304 0.03905 0.0
O144 O 0.93171 0.4087 0.95503 0.0
O145 O 0.92989 0.36757 0.94878 0.0
O146 O 0.90359 0.38959 0.84643 0.0
O147 O 0.8807 0.41398 0.90954 0.0
O148 O 0.89918 0.32151 0.82186 0.0
O149 O 0.9358 0.34368 0.82721 0.0
O150 O 0.86658 0.32949 0.90602 0.0
O151 O 0.86886 0.37058 0.91331 0.0
H152 H 0.84957 0.42728 0.1511 0.0
H153 H 0.85569 0.41666 0.24675 0.0
H154 H 0.92318 0.36833 0.20597 0.0
H155 H 0.91678 0.37895 0.11058 0.0
H156 H 0.94859 0.30825 0.71306 0.0
H157 H 0.94447 0.31994 0.6176 0.0
H158 H 0.88321 0.3761 0.65781 0.0
H159 H 0.88789 0.36463 0.75308 0.0
Ho160 Ho 0.35192 0.40603 0.1469 0.0
Ho161 Ho 0.39056 0.39787 0.23805 0.0
C162 C 0.4146 0.39312 0.12172 0.0
C163 C 0.32963 0.4207 0.0577 0.0
C164 C 0.3366 0.41912 0.99992 0.0
C165 C 0.36272 0.42287 0.98221 0.0
C166 C 0.36904 0.42033 0.92748 0.0
C167 C 0.34941 0.41391 0.88931 0.0
C168 C 0.32327 0.41032 0.90727 0.0
C169 C 0.31696 0.41291 0.96198 0.0
C170 C 0.35374 0.35585 0.18389 0.0
C171 C 0.32847 0.41084 0.26498 0.0
C172 C 0.41379 0.38439 0.327 0.0
C173 C 0.40696 0.38538 0.38491 0.0
C174 C 0.38129 0.37966 0.40307 0.0
C175 C 0.3749 0.38213 0.45779 0.0
C176 C 0.39406 0.39032 0.49558 0.0
C177 C 0.41984 0.39567 0.47719 0.0
C178 C 0.42618 0.39326 0.42247 0.0
C179 C 0.38938 0.44702 0.19581 0.0
O180 O 0.39162 0.40241 0.10429 0.0
O181 O 0.41836 0.3864 0.17256 0.0
O182 O 0.32461 0.3982 0.08133 0.0
O183 O 0.34395 0.43645 0.08781 0.0
O184 O 0.33233 0.36811 0.16974 0.0
O185 O 0.37351 0.3708 0.17705 0.0
O186 O 0.35132 0.40087 0.28106 0.0
O187 O 0.32438 0.41757 0.21407 0.0
O188 O 0.41725 0.40727 0.30371 0.0
O189 O 0.40045 0.36782 0.29675 0.0
O190 O 0.41085 0.43519 0.21091 0.0
O191 O 0.36968 0.4326 0.20588 0.0
H192 H 0.37832 0.42755 1.01063 0.0
H193 H 0.38942 0.42291 0.91525 0.0
H194 H 0.3076 0.40571 0.87897 0.0
H195 H 0.2967 0.40992 0.97474 0.0
H196 H 0.36606 0.37359 0.37493 0.0
H197 H 0.35478 0.37816 0.47024 0.0
H198 H 0.43522 0.40161 0.50513 0.0
H199 H 0.4461 0.39776 0.40938 0.0
Ho200 Ho 0.39817 0.62543 0.82583 0.0
Ho201 Ho 0.40497 0.66373 0.91747 0.0
C202 C 0.40988 0.68769 0.79959 0.0
C203 C 0.38416 0.60237 0.73699 0.0
C204 C 0.38466 0.6095 0.6793 0.0
C205 C 0.37841 0.63517 0.66193 0.0
C206 C 0.38033 0.64189 0.60736 0.0
C207 C 0.38844 0.62305 0.56898 0.0
C208 C 0.39435 0.59728 0.58654 0.0
C209 C 0.39251 0.59061 0.64114 0.0
C210 C 0.44752 0.62756 0.8672 0.0
C211 C 0.39403 0.60065 0.9416 0.0
C212 C 0.41774 0.68682 1.00722 0.0
C213 C 0.41531 0.68008 0.06489 0.0
C214 C 0.41887 0.65403 0.08305 0.0
C215 C 0.4158 0.64787 0.13764 0.0
C216 C 0.40906 0.6676 0.17527 0.0
C217 C 0.40562 0.69368 0.15685 0.0
C218 C 0.40871 0.69982 0.10221 0.0
C219 C 0.35489 0.66006 0.87989 0.0
O220 O 0.40034 0.66473 0.78311 0.0
O221 O 0.41635 0.69173 0.85073 0.0
O222 O 0.40725 0.599 0.75964 0.0
O223 O 0.36775 0.61547 0.76782 0.0
O224 O 0.43644 0.60612 0.84949 0.0
O225 O 0.43255 0.64712 0.85902 0.0
O226 O 0.40253 0.62384 0.95971 0.0
O227 O 0.38769 0.59692 0.89055 0.0
O228 O 0.39561 0.6913 0.98172 0.0
O229 O 0.43411 0.67252 0.9788 0.0
O230 O 0.36649 0.68195 0.89338 0.0
O231 O 0.37053 0.64095 0.88718 0.0
H232 H 0.37223 0.65012 0.69053 0.0
H233 H 0.37532 0.66181 0.5952 0.0
H234 H 0.40098 0.58237 0.55824 0.0
H235 H 0.39756 0.57075 0.65371 0.0
H236 H 0.42401 0.63839 0.05514 0.0
H237 H 0.41898 0.62766 0.1504 0.0
H238 H 0.40007 0.7093 0.18449 0.0
H239 H 0.40572 0.72001 0.08899 0.0
Ho240 Ho 0.6709 0.60345 0.12304 0.0
Ho241 Ho 0.63186 0.61887 0.22032 0.0
C242 C 0.60926 0.62214 0.10207 0.0
C243 C 0.68874 0.57939 0.03875 0.0
C244 C 0.68482 0.58375 0.97989 0.0
C245 C 0.66038 0.57793 0.95525 0.0
C246 C 0.65622 0.58313 0.90055 0.0
C247 C 0.67633 0.59423 0.86869 0.0
C248 C 0.70099 0.59948 0.89292 0.0
C249 C 0.70518 0.5943 0.9479 0.0
C250 C 0.6673 0.65685 0.13409 0.0
C251 C 0.69412 0.60306 0.24478 0.0
C252 C 0.61249 0.63735 0.30908 0.0
C253 C 0.61978 0.6352 0.36686 0.0
C254 C 0.6458 0.63963 0.38484 0.0
C255 C 0.65242 0.63637 0.43935 0.0
C256 C 0.63318 0.62863 0.4772 0.0
C257 C 0.60714 0.62435 0.45895 0.0
C258 C 0.60055 0.62763 0.4045 0.0
C259 C 0.631 0.5683 0.18456 0.0
O260 O 0.62977 0.6075 0.08679 0.0
O261 O 0.60754 0.63283 0.15075 0.0
O262 O 0.7026 0.59715 0.06523 0.0
O263 O 0.66786 0.57166 0.0656 0.0
O264 O 0.68261 0.6451 0.0998 0.0
O265 O 0.65564 0.63919 0.16058 0.0
O266 O 0.67091 0.61198 0.26168 0.0
O267 O 0.69894 0.59697 0.19336 0.0
O268 O 0.60404 0.61557 0.28627 0.0
O269 O 0.62839 0.6509 0.27781 0.0
O270 O 0.61029 0.5807 0.20242 0.0
O271 O 0.65107 0.58292 0.18937 0.0
H272 H 0.64424 0.56954 0.97822 0.0
H273 H 0.63717 0.57829 0.88315 0.0
H274 H 0.7169 0.60816 0.86972 0.0
H275 H 0.72424 0.59889 0.96555 0.0
H276 H 0.66112 0.64543 0.35678 0.0
H277 H 0.67259 0.64015 0.45184 0.0
H278 H 0.59186 0.61795 0.48654 0.0
H279 H 0.5804 0.62392 0.39164 0.0
Ho280 Ho 0.61794 0.38657 0.82848 0.0
Ho281 Ho 0.6022 0.34677 0.92406 0.0
C282 C 0.60071 0.32476 0.80178 0.0
C283 C 0.63527 0.40626 0.73891 0.0
C284 C 0.63122 0.39938 0.68134 0.0
C285 C 0.65084 0.40514 0.64321 0.0
C286 C 0.64716 0.39867 0.58865 0.0
C287 C 0.62377 0.38615 0.57099 0.0
C288 C 0.60422 0.38028 0.60956 0.0
C289 C 0.60787 0.38689 0.66401 0.0
C290 C 0.56782 0.38809 0.86616 0.0
C291 C 0.62258 0.40775 0.94724 0.0
C292 C 0.57777 0.32896 1.00796 0.0
C293 C 0.58336 0.3322 0.06618 0.0
C294 C 0.56493 0.32402 0.10493 0.0
C295 C 0.56952 0.32875 0.15999 0.0
C296 C 0.59261 0.3419 0.17743 0.0
C297 C 0.61114 0.34977 0.1382 0.0
C298 C 0.60654 0.34502 0.08329 0.0
C299 C 0.65567 0.34935 0.9123 0.0
O300 O 0.60997 0.34802 0.78592 0.0
O301 O 0.59466 0.31951 0.85297 0.0
O302 O 0.61459 0.41538 0.76456 0.0
O303 O 0.64872 0.38925 0.76777 0.0
O304 O 0.58082 0.40886 0.85048 0.0
O305 O 0.58173 0.36775 0.85911 0.0
O306 O 0.6074 0.38747 0.96161 0.0
O307 O 0.63337 0.40964 0.8987 0.0
O308 O 0.5948 0.31485 0.98031 0.0
O309 O 0.57101 0.35071 0.98299 0.0
O310 O 0.64373 0.33402 0.94627 0.0
O311 O 0.63816 0.3616 0.88646 0.0
H312 H 0.66905 0.41466 0.65564 0.0
H313 H 0.66281 0.40321 0.56038 0.0
H314 H 0.58585 0.37096 0.59758 0.0
H315 H 0.5924 0.38224 0.69262 0.0
H316 H 0.54678 0.31436 0.09257 0.0
H317 H 0.55463 0.32268 0.18875 0.0
H318 H 0.6293 0.35958 0.14987 0.0
H319 H 0.62097 0.35166 0.05403 0.0
Ho320 Ho 0.85265 0.61196 0.66185 0.0
Ho321 Ho 0.89235 0.61746 0.57187 0.0
C322 C 0.91581 0.62169 0.68883 0.0
C323 C 0.82876 0.60074 0.75151 0.0
C324 C 0.83554 0.60279 0.80941 0.0
C325 C 0.86132 0.59786 0.82802 0.0
C326 C 0.86748 0.60039 0.88286 0.0
C327 C 0.84801 0.60793 0.9204 0.0
C328 C 0.8222 0.6128 0.90148 0.0
C329 C 0.81606 0.61026 0.84661 0.0
C330 C 0.857 0.66138 0.62207 0.0
C331 C 0.83022 0.60592 0.54268 0.0
C332 C 0.91606 0.63021 0.4831 0.0
C333 C 0.90905 0.62971 0.42515 0.0
C334 C 0.88377 0.63707 0.40706 0.0
C335 C 0.8772 0.63535 0.35225 0.0
C336 C 0.89581 0.62636 0.31427 0.0
C337 C 0.92119 0.61926 0.33259 0.0
C338 C 0.92769 0.62089 0.38741 0.0
C339 C 0.88883 0.56863 0.61511 0.0
O340 O 0.89221 0.61379 0.70559 0.0
O341 O 0.92041 0.62767 0.63793 0.0
O342 O 0.82564 0.62305 0.72594 0.0
O343 O 0.84204 0.58351 0.72316 0.0
O344 O 0.83489 0.65001 0.63468 0.0
O345 O 0.87608 0.64587 0.63115 0.0
O346 O 0.85345 0.61521 0.52743 0.0
O347 O 0.82537 0.60003 0.59382 0.0
O348 O 0.91861 0.60715 0.50618 0.0
O349 O 0.90352 0.64723 0.51358 0.0
O350 O 0.91072 0.57907 0.59817 0.0
O351 O 0.86976 0.5839 0.60505 0.0
H352 H 0.87675 0.59201 0.80026 0.0
H353 H 0.88746 0.59612 0.89588 0.0
H354 H 0.80677 0.61901 0.92894 0.0
H355 H 0.79609 0.6143 0.83313 0.0
H356 H 0.86899 0.64401 0.43527 0.0
H357 H 0.85759 0.64128 0.3396 0.0
H358 H 0.93592 0.61192 0.30469 0.0
H359 H 0.94726 0.61497 0.40045 0.0
Ho360 Ho 0.62145 0.12952 0.47497 0.0
Ho361 Ho 0.60599 0.16891 0.37773 0.0
C362 C 0.60371 0.19132 0.49987 0.0
C363 C 0.64068 0.11083 0.56371 0.0
C364 C 0.63897 0.11888 0.62108 0.0
C365 C 0.63975 0.14565 0.6364 0.0
C366 C 0.63637 0.153 0.69046 0.0
C367 C 0.63242 0.13373 0.73055 0.0
C368 C 0.63211 0.10693 0.71514 0.0
C369 C 0.63526 0.09962 0.66099 0.0
C370 C 0.57102 0.12835 0.43883 0.0
C371 C 0.62365 0.10693 0.35685 0.0
C372 C 0.58306 0.18709 0.2924 0.0
C373 C 0.5888 0.18321 0.23423 0.0
C374 C 0.5963 0.15823 0.21467 0.0
C375 C 0.60185 0.1544 0.16006 0.0
C376 C 0.60035 0.1755 0.12328 0.0
C377 C 0.59281 0.20057 0.14288 0.0
C378 C 0.5871 0.20436 0.19781 0.0
C379 C 0.65945 0.16548 0.39005 0.0
O380 O 0.61311 0.16826 0.51658 0.0
O381 O 0.59807 0.19633 0.44834 0.0
O382 O 0.61865 0.10229 0.54205 0.0
O383 O 0.654 0.12639 0.53134 0.0
O384 O 0.58341 0.10772 0.45727 0.0
O385 O 0.5855 0.14854 0.44353 0.0
O386 O 0.60932 0.12771 0.34208 0.0
O387 O 0.63472 0.10493 0.40514 0.0
O388 O 0.60036 0.20086 0.32021 0.0
O389 O 0.57502 0.16602 0.31823 0.0
O390 O 0.64781 0.18094 0.35594 0.0
O391 O 0.64163 0.15362 0.41563 0.0
H392 H 0.64273 0.16095 0.60657 0.0
H393 H 0.63704 0.17378 0.70091 0.0
H394 H 0.62883 0.09158 0.74479 0.0
H395 H 0.63444 0.07888 0.65017 0.0
H396 H 0.59783 0.14148 0.24153 0.0
H397 H 0.60703 0.13471 0.14665 0.0
H398 H 0.59169 0.21737 0.11598 0.0
H399 H 0.58148 0.22384 0.21188 0.0
Ho400 Ho 0.16356 0.40422 0.66906 0.0
Ho401 Ho 0.12493 0.39673 0.57784 0.0
C402 C 0.1008 0.39153 0.69393 0.0
C403 C 0.18604 0.41862 0.75834 0.0
C404 C 0.17925 0.41676 0.81616 0.0
C405 C 0.15323 0.42053 0.83434 0.0
C406 C 0.14711 0.41789 0.88912 0.0
C407 C 0.16686 0.41138 0.92692 0.0
C408 C 0.1929 0.40771 0.90842 0.0
C409 C 0.199 0.41038 0.85365 0.0
C410 C 0.16095 0.35408 0.63177 0.0
C411 C 0.18709 0.40908 0.551 0.0
C412 C 0.10137 0.3838 0.48881 0.0
C413 C 0.1081 0.38468 0.43085 0.0
C414 C 0.13358 0.37839 0.4124 0.0
C415 C 0.13985 0.38057 0.35759 0.0
C416 C 0.12074 0.38897 0.32003 0.0
C417 C 0.09517 0.39497 0.3387 0.0
C418 C 0.08896 0.39288 0.39352 0.0
C419 C 0.12687 0.44581 0.62085 0.0
O420 O 0.12382 0.40068 0.71168 0.0
O421 O 0.09706 0.38508 0.64291 0.0
O422 O 0.19111 0.39627 0.73408 0.0
O423 O 0.17155 0.4344 0.72883 0.0
O424 O 0.18256 0.36603 0.64596 0.0
O425 O 0.14144 0.36931 0.63859 0.0
O426 O 0.16421 0.39918 0.53483 0.0
O427 O 0.19119 0.41575 0.60199 0.0
O428 O 0.09841 0.40672 0.51235 0.0
O429 O 0.11443 0.36696 0.51877 0.0
O430 O 0.10518 0.43418 0.6061 0.0
O431 O 0.14631 0.43117 0.61043 0.0
H432 H 0.13757 0.42548 0.80629 0.0
H433 H 0.12691 0.42121 0.90186 0.0
H434 H 0.20855 0.40228 0.9361 0.0
H435 H 0.21917 0.40721 0.84047 0.0
H436 H 0.14872 0.37193 0.44033 0.0
H437 H 0.15963 0.37548 0.34461 0.0
H438 H 0.08005 0.40184 0.31111 0.0
H439 H 0.06923 0.39797 0.40689 0.0
Ho440 Ho 0.39646 0.89083 0.48519 0.0
Ho441 Ho 0.40373 0.8521 0.39427 0.0
C442 C 0.40896 0.82876 0.5125 0.0
C443 C 0.38355 0.91437 0.57414 0.0
C444 C 0.38452 0.90764 0.63211 0.0
C445 C 0.37802 0.88223 0.65063 0.0
C446 C 0.38028 0.87596 0.70545 0.0
C447 C 0.38898 0.89502 0.74296 0.0
C448 C 0.39521 0.92052 0.72419 0.0
C449 C 0.39303 0.92672 0.66938 0.0
C450 C 0.44541 0.88937 0.44194 0.0
C451 C 0.39136 0.91483 0.36901 0.0
C452 C 0.41758 0.82937 0.30497 0.0
C453 C 0.41595 0.8362 0.24712 0.0
C454 C 0.42038 0.86213 0.22898 0.0
C455 C 0.41795 0.86831 0.17416 0.0
C456 C 0.41097 0.84871 0.13628 0.0
C457 C 0.40665 0.82276 0.15476 0.0
C458 C 0.40912 0.81661 0.20955 0.0
C459 C 0.35369 0.85476 0.43217 0.0
O460 O 0.3992 0.85169 0.52854 0.0
O461 O 0.41539 0.82454 0.46146 0.0
O462 O 0.40644 0.91744 0.55064 0.0
O463 O 0.36671 0.90125 0.54412 0.0
O464 O 0.43373 0.91088 0.4573 0.0
O465 O 0.43096 0.8697 0.45221 0.0
O466 O 0.40045 0.89179 0.35145 0.0
O467 O 0.38482 0.91861 0.41993 0.0
O468 O 0.39507 0.82487 0.329 0.0
O469 O 0.43373 0.84344 0.33469 0.0
O470 O 0.36565 0.8331 0.41853 0.0
O471 O 0.3689 0.87423 0.42455 0.0
H472 H 0.37135 0.86712 0.62275 0.0
H473 H 0.375 0.85623 0.71848 0.0
H474 H 0.40232 0.93558 0.75171 0.0
H475 H 0.3983 0.9464 0.65595 0.0
H476 H 0.42567 0.87767 0.25709 0.0
H477 H 0.42177 0.88841 0.16145 0.0
H478 H 0.40086 0.80724 0.12703 0.0
H479 H 0.40544 0.79652 0.2227 0.0
Ho480 Ho 0.84995 0.91224 0.63672 0.0
Ho481 Ho 0.88922 0.89775 0.7337 0.0
C482 C 0.91145 0.89281 0.61541 0.0
C483 C 0.83191 0.93654 0.55299 0.0
C484 C 0.83521 0.93075 0.49503 0.0
C485 C 0.82695 0.94891 0.45585 0.0
C486 C 0.83186 0.94411 0.40101 0.0
C487 C 0.84528 0.92109 0.38436 0.0
C488 C 0.85319 0.90282 0.42401 0.0
C489 C 0.84824 0.90761 0.47866 0.0
C490 C 0.85316 0.85895 0.64834 0.0
C491 C 0.82693 0.91355 0.75818 0.0
C492 C 0.90904 0.88092 0.82354 0.0
C493 C 0.90157 0.88449 0.88076 0.0
C494 C 0.90819 0.86524 0.91907 0.0
C495 C 0.90131 0.86864 0.97343 0.0
C496 C 0.88756 0.89136 0.99055 0.0
C497 C 0.88083 0.91052 0.95177 0.0
C498 C 0.88782 0.90715 0.89758 0.0
C499 C 0.89045 0.94761 0.69478 0.0
O500 O 0.89036 0.90615 0.5986 0.0
O501 O 0.91401 0.88372 0.66523 0.0
O502 O 0.81788 0.91945 0.58066 0.0
O503 O 0.85367 0.94349 0.57796 0.0
O504 O 0.83786 0.87076 0.61406 0.0
O505 O 0.86501 0.87647 0.67529 0.0
O506 O 0.85036 0.90528 0.77532 0.0
O507 O 0.82193 0.91896 0.70661 0.0
O508 O 0.91737 0.90214 0.79866 0.0
O509 O 0.89282 0.86682 0.79388 0.0
O510 O 0.91123 0.93502 0.71166 0.0
O511 O 0.87024 0.93346 0.70165 0.0
H512 H 0.81712 0.96701 0.46772 0.0
H513 H 0.82575 0.95878 0.3718 0.0
H514 H 0.86322 0.88472 0.41285 0.0
H515 H 0.85492 0.89339 0.50831 0.0
H516 H 0.91872 0.84757 0.90697 0.0
H517 H 0.90654 0.85332 1.00194 0.0
H518 H 0.87055 0.9284 0.96341 0.0
H519 H 0.88255 0.92234 0.86877 0.0
Ho520 Ho 0.90018 0.1244 0.3226 0.0
Ho521 Ho 0.90731 0.16349 0.41324 0.0
C522 C 0.9123 0.18663 0.29496 0.0
C523 C 0.88725 0.10093 0.23345 0.0
C524 C 0.88852 0.10771 0.1755 0.0
C525 C 0.88299 0.13337 0.1571 0.0
C526 C 0.8856 0.13968 0.10237 0.0
C527 C 0.89373 0.12044 0.06479 0.0
C528 C 0.8989 0.09468 0.08342 0.0
C529 C 0.89636 0.08842 0.13816 0.0
C530 C 0.9492 0.12667 0.36549 0.0
C531 C 0.89515 0.10072 0.43912 0.0
C532 C 0.92126 0.18623 0.50259 0.0
C533 C 0.91948 0.1794 0.56044 0.0
C534 C 0.9232 0.15335 0.57852 0.0
C535 C 0.92053 0.14717 0.63329 0.0
C536 C 0.91405 0.16689 0.67115 0.0
C537 C 0.9105 0.19297 0.65281 0.0
C538 C 0.91319 0.19913 0.59806 0.0
C539 C 0.85732 0.16045 0.37505 0.0
O540 O 0.90295 0.16349 0.27895 0.0
O541 O 0.91856 0.19112 0.34603 0.0
O542 O 0.91002 0.09761 0.25745 0.0
O543 O 0.87048 0.11422 0.26314 0.0
O544 O 0.93776 0.10491 0.35054 0.0
O545 O 0.93449 0.1461 0.35514 0.0
O546 O 0.904 0.12393 0.45635 0.0
O547 O 0.88884 0.09658 0.38813 0.0
O548 O 0.89882 0.19086 0.47827 0.0
O549 O 0.93733 0.17205 0.47308 0.0
O550 O 0.86913 0.18219 0.38895 0.0
O551 O 0.8726 0.14107 0.38288 0.0
H552 H 0.87696 0.14867 0.18505 0.0
H553 H 0.88176 0.15979 0.08974 0.0
H554 H 0.90479 0.07924 0.05566 0.0
H555 H 0.9007 0.0685 0.15142 0.0
H556 H 0.92796 0.13769 0.55036 0.0
H557 H 0.92308 0.12684 0.64579 0.0
H558 H 0.90585 0.20872 0.68084 0.0
H559 H 0.91024 0.21934 0.58502 0.0
Ho560 Ho 0.16683 0.10335 0.6343 0.0
Ho561 Ho 0.12782 0.11713 0.73237 0.0
C562 C 0.10519 0.12291 0.61424 0.0
C563 C 0.18481 0.07951 0.55008 0.0
C564 C 0.18014 0.08398 0.49176 0.0
C565 C 0.15436 0.08746 0.4717 0.0
C566 C 0.15005 0.09279 0.41712 0.0
C567 C 0.17139 0.09494 0.38105 0.0
C568 C 0.1972 0.09117 0.40107 0.0
C569 C 0.20151 0.08577 0.45588 0.0
C570 C 0.16427 0.15644 0.64997 0.0
C571 C 0.19015 0.1013 0.7555 0.0
C572 C 0.10753 0.13384 0.82177 0.0
C573 C 0.11556 0.13316 0.87909 0.0
C574 C 0.14223 0.13515 0.89451 0.0
C575 C 0.14957 0.13244 0.94874 0.0
C576 C 0.13036 0.12787 0.9887 0.0
C577 C 0.10363 0.12635 0.97306 0.0
C578 C 0.09635 0.1289 0.91885 0.0
C579 C 0.12628 0.06778 0.69084 0.0
O580 O 0.12638 0.11006 0.59629 0.0
O581 O 0.10273 0.13127 0.66461 0.0
O582 O 0.1982 0.09791 0.57564 0.0
O583 O 0.16448 0.07098 0.57779 0.0
O584 O 0.17946 0.14512 0.61478 0.0
O585 O 0.15214 0.13855 0.67503 0.0
O586 O 0.16689 0.10967 0.77329 0.0
O587 O 0.19495 0.09617 0.70375 0.0
O588 O 0.10186 0.11087 0.80039 0.0
O589 O 0.12139 0.14893 0.78938 0.0
O590 O 0.10548 0.08035 0.70771 0.0
O591 O 0.14658 0.08172 0.69852 0.0
H592 H 0.1374 0.08621 0.49816 0.0
H593 H 0.12989 0.09507 0.40318 0.0
H594 H 0.21413 0.09294 0.37466 0.0
H595 H 0.22157 0.08331 0.47038 0.0
H596 H 0.15744 0.13851 0.86464 0.0
H597 H 0.17028 0.13402 0.95937 0.0
H598 H 0.08835 0.1225 1.00257 0.0
H599 H 0.07569 0.1271 0.90781 0.0
Ho600 Ho 0.11629 0.88909 0.32501 0.0
Ho601 Ho 0.1026 0.84956 0.42149 0.0
C602 C 0.10059 0.82688 0.29967 0.0
C603 C 0.13251 0.90933 0.23517 0.0
C604 C 0.12907 0.90185 0.17789 0.0
C605 C 0.14835 0.90865 0.13976 0.0
C606 C 0.14512 0.9017 0.08536 0.0
C607 C 0.12256 0.88768 0.068 0.0
C608 C 0.10337 0.88078 0.10657 0.0
C609 C 0.10656 0.88786 0.16081 0.0
C610 C 0.0666 0.88977 0.36491 0.0
C611 C 0.1218 0.91117 0.44328 0.0
C612 C 0.0787 0.83114 0.50529 0.0
C613 C 0.08453 0.83441 0.56325 0.0
C614 C 0.0665 0.82583 0.60238 0.0
C615 C 0.07125 0.83078 0.65725 0.0
C616 C 0.09409 0.84455 0.67397 0.0
C617 C 0.11226 0.85276 0.63438 0.0
C618 C 0.10751 0.84777 0.57969 0.0
C619 C 0.15581 0.85283 0.40842 0.0
O620 O 0.10885 0.85033 0.28281 0.0
O621 O 0.0954 0.82176 0.35125 0.0
O622 O 0.11114 0.91711 0.26025 0.0
O623 O 0.14701 0.89346 0.2646 0.0
O624 O 0.07904 0.91074 0.3486 0.0
O625 O 0.08082 0.86969 0.35737 0.0
O626 O 0.10868 0.88994 0.46015 0.0
O627 O 0.13062 0.91383 0.39334 0.0
O628 O 0.09586 0.81736 0.47732 0.0
O629 O 0.07151 0.85287 0.4807 0.0
O630 O 0.14421 0.83742 0.44274 0.0
O631 O 0.13814 0.8648 0.38223 0.0
H632 H 0.16591 0.91937 0.15206 0.0
H633 H 0.16046 0.90708 0.05699 0.0
H634 H 0.08561 0.87029 0.09474 0.0
H635 H 0.09134 0.88244 0.18946 0.0
H636 H 0.04851 0.81574 0.59045 0.0
H637 H 0.05667 0.82444 0.68642 0.0
H638 H 0.13022 0.86307 0.64561 0.0
H639 H 0.12163 0.85469 0.55007 0.0
H640 H 0.39955 0.96681 0.39148 0.0
H641 H 0.35168 0.02953 0.12004 0.0
H642 H 0.37977 0.91399 0.26072 0.0
H643 H 0.42559 0.05454 0.19036 0.0
H644 H 0.3515 0.99099 0.18106 0.0
H645 H 0.39879 1.00401 0.32802 0.0
C646 C 0.39473 0.96311 0.34955 0.0
C647 C 0.38964 0.93734 0.33124 0.0
C648 C 0.36772 1.00496 0.18276 0.0
C649 C 0.38831 0.97973 0.25913 0.0
C650 C 0.36782 0.02685 0.14826 0.0
C651 C 0.38881 0.04496 0.15003 0.0
C652 C 0.38825 1.00187 0.22035 0.0
C653 C 0.40921 0.04082 0.18743 0.0
C654 C 0.39447 0.98426 0.31349 0.0
C655 C 0.38383 0.93358 0.27634 0.0
N656 N 0.40826 0.01989 0.2217 0.0
N657 N 0.38302 0.95464 0.24215 0.0
H658 H 0.91374 0.63405 0.79646 0.0
H659 H 0.0569 0.58538 0.87022 0.0
H660 H 0.96792 0.61136 0.67049 0.0
H661 H 0.02819 0.65782 0.94049 0.0
H662 H 0.01934 0.58575 0.80701 0.0
H663 H 0.95085 0.63452 0.86093 0.0
C664 C 0.93342 0.6292 0.78242 0.0
C665 C 0.93787 0.62287 0.72803 0.0
C666 C 0.02124 0.60142 0.83659 0.0
C667 C 0.97992 0.6226 0.80151 0.0
C668 C 0.04245 0.60113 0.87278 0.0
C669 C 0.04544 0.62155 0.91057 0.0
C670 C 1.00251 0.62181 0.83948 0.0
C671 C 0.02644 0.64173 0.91187 0.0
C672 C 0.95449 0.62954 0.81908 0.0
C673 C 0.96373 0.61664 0.71194 0.0
N674 N 1.00555 0.64123 0.87715 0.0
N675 N 0.98374 0.61633 0.74866 0.0
H676 H 0.67011 0.97237 0.1576 0.0
H677 H 0.58927 0.09434 0.27606 0.0
H678 H 0.5852 0.97808 0.14782 0.0
H679 H 0.66161 0.06796 0.35101 0.0
H680 H 0.59097 0.0564 0.21517 0.0
H681 H 0.67066 0.01181 0.21583 0.0
C682 C 0.65161 0.98185 0.16786 0.0
C683 C 0.62752 0.97164 0.14883 0.0
C684 C 0.60653 0.05897 0.2448 0.0
C685 C 0.62811 0.0171 0.21354 0.0
C686 C 0.60569 0.08071 0.27939 0.0
C687 C 0.62537 0.08437 0.31873 0.0
C688 C 0.62741 0.04085 0.24879 0.0
C689 C 0.64598 0.06582 0.32145 0.0
C690 C 0.65196 1.00435 0.20088 0.0
C691 C 0.60419 0.98515 0.16196 0.0
N692 N 0.64655 0.04489 0.28674 0.0
N693 N 0.60507 1.0072 0.19333 0.0
H694 H 0.95688 0.424 0.86491 0.0
H695 H 0.10184 0.38012 0.80222 0.0
H696 H 0.98464 0.35152 0.93635 0.0
H697 H 0.04865 0.39876 0.67158 0.0
H698 H 0.06364 0.37784 0.86377 0.0
H699 H 0.99529 0.42385 0.80449 0.0
C700 C 0.97123 0.40821 0.86818 0.0
C701 C 0.96775 0.38776 0.9056 0.0
C702 C 0.06049 0.38228 0.82152 0.0
C703 C 0.0118 0.38787 0.8378 0.0
C704 C 0.08217 0.38368 0.78655 0.0
C705 C 0.0783 0.38942 0.73171 0.0
C706 C 0.03504 0.3876 0.80173 0.0
C707 C 0.05244 0.39399 0.71344 0.0
C708 C 0.99298 0.40809 0.83363 0.0
C709 C 0.98674 0.3676 0.90791 0.0
N710 N 0.03181 0.39335 0.7485 0.0
N711 N 0.00824 0.3683 0.87484 0.0
H712 H 0.35219 0.48617 0.18952 0.0
H713 H 0.40266 0.54875 0.91905 0.0
H714 H 0.42547 0.45983 0.11919 0.0
H715 H 0.38141 0.60114 0.04934 0.0
H716 H 0.40099 0.51134 0.98189 0.0
H717 H 0.35261 0.52461 0.12822 0.0
C718 C 0.36828 0.48851 0.16115 0.0
C719 C 0.38896 0.4701 0.15955 0.0
C720 C 0.39658 0.53105 0.99648 0.0
C721 C 0.38911 0.51311 0.08901 0.0
C722 C 0.39739 0.55233 0.96077 0.0
C723 C 0.39217 0.57804 0.97913 0.0
C724 C 0.38972 0.53539 0.05052 0.0
C725 C 0.38566 0.58161 0.03372 0.0
C726 C 0.36854 0.51036 0.12653 0.0
C727 C 0.40934 0.47382 0.12201 0.0
N728 N 0.38434 0.56044 0.06753 0.0
N729 N 0.40875 0.49474 0.0877 0.0
H730 H 0.5703 0.66005 0.10209 0.0
H731 H 0.47951 0.58589 0.88989 0.0
H732 H 0.59675 0.5909 1.0156 0.0
H733 H 0.47366 0.67024 0.91169 0.0
H734 H 0.52006 0.58588 0.94368 0.0
H735 H 0.53209 0.66291 0.041 0.0
C736 C 0.56814 0.64553 0.07022 0.0
C737 C 0.58676 0.62517 0.06405 0.0
C738 C 0.50994 0.60442 0.93664 0.0
C739 C 0.54298 0.62816 0.9947 0.0
C740 C 0.48677 0.60445 0.90598 0.0
C741 C 0.47294 0.62806 0.89703 0.0
C742 C 0.5192 0.6281 0.9594 0.0
C743 C 0.48338 0.65152 0.91866 0.0
C744 C 0.54642 0.64727 0.03528 0.0
C745 C 0.58299 0.60698 1.02184 0.0
N746 N 0.50573 0.65093 0.9495 0.0
N747 N 0.56141 0.60872 0.98926 0.0
H748 H 0.58751 0.54012 0.15356 0.0
H749 H 0.66216 0.44504 0.95218 0.0
H750 H 0.67269 0.53809 0.14982 0.0
H751 H 0.58971 0.42127 0.03002 0.0
H752 H 0.66519 0.48276 1.01462 0.0
H753 H 0.58639 0.49958 0.09928 0.0
C754 C 0.60598 0.53109 0.14147 0.0
C755 C 0.63023 0.54274 0.15533 0.0
C756 C 0.64878 0.46912 1.01812 0.0
C757 C 0.62906 0.49666 0.09256 0.0
C758 C 0.64696 0.4477 0.98243 0.0
C759 C 0.62567 0.42996 0.9859 0.0
C760 C 0.6288 0.47318 0.05655 0.0
C761 C 0.60655 0.43434 1.02601 0.0
C762 C 0.60532 0.50798 0.11051 0.0
C763 C 0.65356 0.53002 0.13902 0.0
N764 N 0.60839 0.45567 0.05927 0.0
N765 N 0.65243 0.50791 0.10767 0.0
H766 H 0.46678 0.40118 0.14346 0.0
H767 H 0.52742 0.35241 0.87075 0.0
H768 H 0.41341 0.38168 1.01347 0.0
H769 H 0.55507 0.42528 0.94136 0.0
H770 H 0.48902 0.35339 0.93197 0.0
H771 H 0.50375 0.40045 0.07931 0.0
C772 C 0.4629 0.39644 0.10156 0.0
C773 C 0.43705 0.39139 0.08369 0.0
C774 C 0.50349 0.36917 0.93366 0.0
C775 C 0.47916 0.39014 1.01075 0.0
C776 C 0.52529 0.36862 0.89899 0.0
C777 C 0.54415 0.38893 0.90085 0.0
C778 C 0.50118 0.38966 0.97156 0.0
C779 C 0.54073 0.40944 0.93834 0.0
C780 C 0.48392 0.39622 0.06509 0.0
C781 C 0.43306 0.38569 0.0288 0.0
N782 N 0.51984 0.40908 0.97286 0.0
N783 N 0.45398 0.3849 0.99425 0.0
H784 H 0.92271 0.42032 0.774 0.0
H785 H 0.84484 0.54403 0.65682 0.0
H786 H 0.8554 0.45255 0.85811 0.0
H787 H 0.92954 0.53669 0.64485 0.0
H788 H 0.8441 0.50516 0.71644 0.0
H789 H 0.92106 0.45752 0.71119 0.0
C790 C 0.90744 0.43512 0.77905 0.0
C791 C 0.88923 0.43341 0.8216 0.0
C792 C 0.86279 0.51214 0.70064 0.0
C793 C 0.88709 0.47582 0.74926 0.0
C794 C 0.86325 0.53431 0.66689 0.0
C795 C 0.88736 0.54396 0.64703 0.0
C796 C 0.88651 0.49908 0.71298 0.0
C797 C 0.91055 0.53008 0.65972 0.0
C798 C 0.90661 0.45637 0.7433 0.0
C799 C 0.86993 0.45323 0.82615 0.0
N800 N 0.90955 0.50831 0.69173 0.0
N801 N 0.86926 0.47359 0.79021 0.0
H802 H 0.54309 0.08471 0.40721 0.0
H803 H 0.45199 0.15957 0.19923 0.0
H804 H 0.54129 0.16988 0.40257 0.0
H805 H 0.42513 0.08827 0.27711 0.0
H806 H 0.4889 0.16193 0.26366 0.0
H807 H 0.50319 0.08358 0.35075 0.0
C808 C 0.53423 0.10317 0.39452 0.0
C809 C 0.54576 0.12743 0.40869 0.0
C810 C 0.47478 0.14589 0.26672 0.0
C811 C 0.50054 0.12624 0.34352 0.0
C812 C 0.45386 0.14445 0.22988 0.0
C813 C 0.43546 0.12373 0.23295 0.0
C814 C 0.47771 0.12609 0.30592 0.0
C815 C 0.43875 0.10468 0.27358 0.0
C816 C 0.51151 0.1025 0.36234 0.0
C817 C 0.53331 0.15075 0.39156 0.0
N818 N 0.45966 0.10613 0.30807 0.0
N819 N 0.51164 0.1496 0.35905 0.0
H820 H 0.13344 0.60297 0.75933 0.0
H821 H 0.09334 0.45691 0.70324 0.0
H822 H 0.12285 0.54987 0.89351 0.0
H823 H 0.16249 0.48655 0.62186 0.0
H824 H 0.09506 0.49501 0.76477 0.0
H825 H 0.13603 0.56445 0.69842 0.0
C826 C 0.13183 0.58324 0.77593 0.0
C827 C 0.12816 0.57951 0.83151 0.0
C828 C 0.10979 0.49314 0.73332 0.0
C829 C 0.13021 0.53584 0.76231 0.0
C830 C 0.10875 0.47159 0.69815 0.0
C831 C 0.12776 0.46878 0.65749 0.0
C832 C 0.12941 0.51244 0.72653 0.0
C833 C 0.14751 0.48814 0.65283 0.0
C834 C 0.13337 0.56139 0.7413 0.0
C835 C 0.12602 0.55356 0.85101 0.0
N836 N 0.14762 0.50947 0.6865 0.0
N837 N 0.12663 0.53271 0.81634 0.0
H838 H 0.6012 0.88005 0.29677 0.0
H839 H 0.45654 0.92466 0.36279 0.0
H840 H 0.54754 0.90028 0.16793 0.0
H841 H 0.48567 0.85325 0.43643 0.0
H842 H 0.49422 0.92403 0.30048 0.0
H843 H 0.56331 0.87771 0.35907 0.0
C844 C 0.58149 0.88396 0.28164 0.0
C845 C 0.57743 0.89022 0.22709 0.0
C846 C 0.49235 0.90856 0.33041 0.0
C847 C 0.53446 0.88824 0.29801 0.0
C848 C 0.47102 0.90896 0.36604 0.0
C849 C 0.46816 0.889 0.40475 0.0
C850 C 0.51141 0.88857 0.33472 0.0
C851 C 0.48727 0.86896 0.407 0.0
C852 C 0.55997 0.88251 0.31704 0.0
C853 C 0.5515 0.89515 0.20955 0.0
N854 N 0.50839 0.86942 0.37287 0.0
N855 N 0.53104 0.89443 0.24504 0.0
H856 H 0.92755 0.95878 0.61881 0.0
H857 H 0.88296 0.10292 0.54673 0.0
H858 H 0.85542 0.98854 0.68837 0.0
H859 H 0.90337 0.04834 0.41968 0.0
H860 H 0.8811 0.06564 0.61044 0.0
H861 H 0.92784 0.99629 0.55585 0.0
C862 C 0.91198 0.97342 0.6212 0.0
C863 C 0.89147 0.97076 0.65876 0.0
C864 C 0.88586 0.06195 0.56852 0.0
C865 C 0.892 0.01367 0.588 0.0
C866 C 0.887 0.08312 0.5323 0.0
C867 C 0.89311 0.0786 0.47784 0.0
C868 C 0.89179 0.03635 0.55043 0.0
C869 C 0.89829 0.05259 0.4612 0.0
C870 C 0.91207 0.99462 0.58517 0.0
C871 C 0.87156 0.99003 0.6599 0.0
N872 N 0.89787 0.03246 0.49751 0.0
N873 N 0.87245 0.01093 0.62537 0.0
H874 H 0.05312 0.11988 0.64047 0.0
H875 H 0.98835 0.16403 0.36849 0.0
H876 H 0.10509 0.13213 0.505 0.0
H877 H 0.96266 0.09175 0.4439 0.0
H878 H 0.02741 0.16451 0.4285 0.0
H879 H 0.01506 0.1217 0.57902 0.0
C880 C 0.05648 0.12337 0.59792 0.0
C881 C 0.08225 0.12594 0.57771 0.0
C882 C 0.01314 0.14861 0.43161 0.0
C883 C 0.03889 0.1285 0.50785 0.0
C884 C 0.99094 0.14836 0.39774 0.0
C885 C 0.97255 0.12768 0.40112 0.0
C886 C 0.01624 0.12859 0.4702 0.0
C887 C 0.97662 0.10785 0.43972 0.0
C888 C 0.03482 0.12424 0.56304 0.0
C889 C 0.08552 0.13005 0.52209 0.0
N890 N 0.99787 0.10897 0.4733 0.0
N891 N 0.06402 0.13147 0.48899 0.0
H892 H 0.13117 0.91013 0.55221 0.0
H893 H 0.09053 0.05644 0.61189 0.0
H894 H 0.1178 0.96353 0.41957 0.0
H895 H 0.16048 0.02613 0.6895 0.0
H896 H 0.09076 0.01807 0.5507 0.0
H897 H 0.13318 0.94837 0.61389 0.0
C898 C 0.12878 0.92988 0.53613 0.0
C899 C 0.1246 0.93378 0.48073 0.0
C900 C 0.10593 0.01983 0.5814 0.0
C901 C 0.12592 0.97713 0.55087 0.0
C902 C 0.10571 0.04151 0.6164 0.0
C903 C 0.12547 0.04424 0.65571 0.0
C904 C 0.12549 1.00038 0.58709 0.0
C905 C 0.14492 0.02459 0.65961 0.0
C906 C 0.12997 0.95158 0.57119 0.0
C907 C 0.12143 0.95974 0.46191 0.0
N908 N 0.14429 1.00323 0.6261 0.0
N909 N 0.12176 0.98043 0.49702 0.0
H910 H 0.05488 0.92582 0.44293 0.0
H911 H 0.90995 0.883 0.50677 0.0
H912 H 0.02577 0.85449 0.3683 0.0
H913 H 0.96396 0.8971 0.63847 0.0
H914 H 0.94787 0.88118 0.44451 0.0
H915 H 0.01698 0.92503 0.50508 0.0
C916 C 0.0403 0.91021 0.43925 0.0
C917 C 0.04324 0.89024 0.40047 0.0
C918 C 0.95129 0.88449 0.48713 0.0
C919 C 0.99992 0.88955 0.47027 0.0
C920 C 0.92978 0.88556 0.52253 0.0
C921 C 0.93394 0.88992 0.57782 0.0
C922 C 0.97692 0.88883 0.50699 0.0
C923 C 0.95998 0.89333 0.59622 0.0
C924 C 0.0189 0.90968 0.47483 0.0
C925 C 0.02406 0.87023 0.39771 0.0
N926 N 0.98049 0.89313 0.56076 0.0
N927 N 1.00294 0.87055 0.43177 0.0
H928 H 0.39761 0.19047 0.13854 0.0
H929 H 0.31263 0.3217 0.19171 0.0
H930 H 0.31242 0.19378 0.13903 0.0
H931 H 0.39736 0.32352 0.17313 0.0
H932 H 0.31323 0.27401 0.17846 0.0
H933 H 0.39896 0.23852 0.15381 0.0
C934 C 0.37922 0.20134 0.14128 0.0
C935 C 0.35484 0.18812 0.13765 0.0
C936 C 0.33178 0.28471 0.17744 0.0
C937 C 0.35624 0.24284 0.15589 0.0
C938 C 0.33145 0.31197 0.18535 0.0
C939 C 0.35496 0.32662 0.18326 0.0
C940 C 0.35582 0.27177 0.16727 0.0
C941 C 0.37878 0.31294 0.17507 0.0
C942 C 0.38001 0.2287 0.15029 0.0
C943 C 0.33164 0.20312 0.14172 0.0
N944 N 0.3786 0.28625 0.16704 0.0
N945 N 0.33293 0.22956 0.15087 0.0
H946 H 0.3238 0.61596 0.89804 0.0
H947 H 0.19055 0.70119 0.88494 0.0
H948 H 0.31966 0.69952 0.86527 0.0
H949 H 0.18989 0.61953 0.93405 0.0
H950 H 0.23834 0.69986 0.87903 0.0
H951 H 0.27537 0.61526 0.90968 0.0
C952 C 0.31268 0.63404 0.89263 0.0
C953 C 0.32572 0.65787 0.88063 0.0
C954 C 0.228 0.68217 0.89159 0.0
C955 C 0.27068 0.65728 0.89459 0.0
C956 C 0.20062 0.68298 0.89526 0.0
C957 C 0.1863 0.66048 0.9102 0.0
C958 C 0.24147 0.65849 0.90213 0.0
C959 C 0.20033 0.63739 0.92295 0.0
C960 C 0.28513 0.63368 0.89977 0.0
C961 C 0.31046 0.68074 0.87456 0.0
N962 N 0.22726 0.63687 0.91809 0.0
N963 N 0.2839 0.67986 0.88168 0.0
H964 H 0.61681 0.82204 0.14374 0.0
H965 H 0.70418 0.6916 0.10335 0.0
H966 H 0.69897 0.82092 0.09776 0.0
H967 H 0.62641 0.688 0.17384 0.0
H968 H 0.70091 0.73929 0.09899 0.0
H969 H 0.6177 0.77338 0.15059 0.0
C970 C 0.63488 0.81153 0.13433 0.0
C971 C 0.65789 0.82545 0.1201 0.0
C972 C 0.68451 0.72831 0.11582 0.0
C973 C 0.65911 0.77021 0.1285 0.0
C974 C 0.68642 0.70098 0.11849 0.0
C975 C 0.66558 0.68586 0.13914 0.0
C976 C 0.66138 0.74095 0.13335 0.0
C977 C 0.64302 0.69906 0.15811 0.0
C978 C 0.63544 0.78386 0.13878 0.0
C979 C 0.68081 0.81099 0.10892 0.0
N980 N 0.64139 0.72598 0.15438 0.0
N981 N 0.68083 0.7843 0.11343 0.0
H982 H 0.82038 0.31012 0.93678 0.0
H983 H 0.68703 0.3887 0.86739 0.0
H984 H 0.82118 0.39361 0.90231 0.0
H985 H 0.69033 0.313 0.94677 0.0
H986 H 0.73592 0.3904 0.86922 0.0
H987 H 0.77231 0.31034 0.93117 0.0
C988 C 0.81035 0.32857 0.92838 0.0
C989 C 0.82474 0.35187 0.92024 0.0
C990 C 0.72581 0.37343 0.88596 0.0
C991 C 0.76947 0.3523 0.91293 0.0
C992 C 0.69802 0.37237 0.88448 0.0
C993 C 0.68472 0.35065 0.90686 0.0
C994 C 0.7401 0.35246 0.90932 0.0
C995 C 0.69978 0.33013 0.92911 0.0
C996 C 0.78287 0.32871 0.92505 0.0
C997 C 0.81073 0.37525 0.90925 0.0
N998 N 0.72652 0.33153 0.92967 0.0
N999 N 0.78381 0.37487 0.90558 0.0
H1000 H 0.81883 0.6955 0.59264 0.0
H1001 H 0.89377 0.82755 0.68895 0.0
H1002 H 0.8991 0.69343 0.65109 0.0
H1003 H 0.81696 0.82431 0.61359 0.0
H1004 H 0.89675 0.77883 0.68074 0.0
H1005 H 0.81872 0.74325 0.60247 0.0
C1006 C 0.8366 0.70523 0.60699 0.0
C1007 C 0.85898 0.69052 0.62094 0.0
C1008 C 0.87924 0.7889 0.66639 0.0
C1009 C 0.85898 0.74557 0.6335 0.0
C1010 C 0.87745 0.81658 0.67158 0.0
C1011 C 0.85507 0.82988 0.65198 0.0
C1012 C 0.85842 0.77475 0.6418 0.0
C1013 C 0.83461 0.81489 0.62912 0.0
C1014 C 0.83653 0.73257 0.61292 0.0
C1015 C 0.88148 0.70415 0.6395 0.0
N1016 N 0.83681 0.78832 0.62465 0.0
N1017 N 0.88087 0.73098 0.64568 0.0
H1018 H 0.82522 0.11706 0.39327 0.0
H1019 H 0.69368 0.2041 0.36671 0.0
H1020 H 0.82304 0.20034 0.35686 0.0
H1021 H 0.69108 0.12391 0.42491 0.0
H1022 H 0.74145 0.20174 0.36258 0.0
H1023 H 0.77663 0.11733 0.40205 0.0
C1024 C 0.8145 0.13528 0.38646 0.0
C1025 C 0.82813 0.15875 0.37426 0.0
C1026 C 0.73068 0.1846 0.37671 0.0
C1027 C 0.77291 0.15925 0.38487 0.0
C1028 C 0.7033 0.186 0.3793 0.0
C1029 C 0.68844 0.16421 0.39635 0.0
C1030 C 0.74363 0.16105 0.39056 0.0
C1031 C 0.70194 0.14124 0.41206 0.0
C1032 C 0.78686 0.13546 0.39197 0.0
C1033 C 0.81337 0.18182 0.36636 0.0
N1034 N 0.72889 0.14013 0.40832 0.0
N1035 N 0.78671 0.18147 0.37186 0.0
H1036 H 0.11716 0.32222 0.64708 0.0
H1037 H 0.20416 0.19019 0.63359 0.0
H1038 H 0.20121 0.31955 0.61901 0.0
H1039 H 0.12219 0.18832 0.68046 0.0
H1040 H 0.20242 0.23803 0.62951 0.0
H1041 H 0.11707 0.27375 0.65769 0.0
C1042 C 0.13549 0.31141 0.64252 0.0
C1043 C 0.15926 0.32488 0.63208 0.0
C1044 C 0.18475 0.2274 0.6412 0.0
C1045 C 0.15935 0.26978 0.64486 0.0
C1046 C 0.1858 0.20001 0.64383 0.0
C1047 C 0.16333 0.18534 0.65758 0.0
C1048 C 0.16086 0.24054 0.65154 0.0
C1049 C 0.14003 0.19903 0.67027 0.0
C1050 C 0.13546 0.28384 0.64907 0.0
C1051 C 0.18246 0.31001 0.62706 0.0
N1052 N 0.13928 0.22598 0.66637 0.0
N1053 N 0.1819 0.2834 0.63354 0.0
H1054 H 0.3195 0.81497 0.45198 0.0
H1055 H 0.1875 0.89395 0.37111 0.0
H1056 H 0.32152 0.89763 0.41019 0.0
H1057 H 0.19016 0.81509 0.43649 0.0
H1058 H 0.23634 0.89604 0.37763 0.0
H1059 H 0.27172 0.81514 0.44149 0.0
C1060 C 0.30977 0.83328 0.44109 0.0
C1061 C 0.32447 0.85629 0.43211 0.0
C1062 C 0.22612 0.87826 0.39011 0.0
C1063 C 0.26941 0.85667 0.41904 0.0
C1064 C 0.19837 0.87699 0.38584 0.0
C1065 C 0.18488 0.8543 0.40323 0.0
C1066 C 0.24016 0.85659 0.41144 0.0
C1067 C 0.19975 0.83301 0.42276 0.0
C1068 C 0.28243 0.83338 0.43483 0.0
C1069 C 0.31083 0.87948 0.41787 0.0
N1070 N 0.2264 0.8347 0.42635 0.0
N1071 N 0.284 0.87907 0.41143 0.0
H1072 H 0.24436 0.09937 0.74169 0.0
H1073 H 0.2751 0.09351 0.06039 0.0
H1074 H 0.18405 0.09512 0.86426 0.0
H1075 H 0.33472 0.10602 0.93885 0.0
H1076 H 0.24174 0.08993 0.98864 0.0
H1077 H 0.27818 0.0975 0.81283 0.0
C1078 C 0.2382 0.09781 0.78339 0.0
C1079 C 0.21127 0.09773 0.79685 0.0
C1080 C 0.26217 0.0934 0.97771 0.0
C1081 C 0.24985 0.09566 0.87865 0.0
C1082 C 0.28123 0.09537 1.01873 0.0
C1083 C 0.30777 0.10041 1.00585 0.0
C1084 C 0.2697 0.09627 0.92333 0.0
C1085 C 0.31449 0.10261 0.95095 0.0
C1086 C 0.25751 0.09688 0.82407 0.0
C1087 C 0.20453 0.09573 0.8518 0.0
N1088 N 0.29566 0.10059 0.91192 0.0
N1089 N 0.2236 0.09488 0.89048 0.0
H1090 H 0.09851 0.6794 0.12081 0.0
H1091 H 0.10054 0.83334 0.19018 0.0
H1092 H 0.09543 0.74015 0.99908 0.0
H1093 H 0.09295 0.77286 0.31166 0.0
H1094 H 0.09781 0.79974 0.12033 0.0
H1095 H 0.09555 0.71309 0.19056 0.0
C1096 C 0.09709 0.69984 0.10852 0.0
C1097 C 0.0974 0.70681 0.05356 0.0
C1098 C 0.09656 0.79373 0.16216 0.0
C1099 C 0.09409 0.74588 0.13428 0.0
C1100 C 0.09816 0.81299 0.20242 0.0
C1101 C 0.0971 0.80609 0.25739 0.0
C1102 C 0.09408 0.76706 0.17646 0.0
C1103 C 0.09387 0.77923 0.27006 0.0
C1104 C 0.09534 0.71914 0.14868 0.0
C1105 C 0.09527 0.73375 0.04071 0.0
N1106 N 0.09268 0.76071 0.22996 0.0
N1107 N 0.09393 0.75228 0.08073 0.0
H1108 H 0.67881 0.91359 0.93564 0.0
H1109 H 0.83314 0.91396 0.86776 0.0
H1110 H 0.73967 0.9164 0.05754 0.0
H1111 H 0.77276 0.91996 0.74533 0.0
H1112 H 0.79931 0.9158 0.93707 0.0
H1113 H 0.71258 0.91672 0.8659 0.0
C1114 C 0.69931 0.91484 0.9479 0.0
C1115 C 0.70633 0.91439 1.00286 0.0
C1116 C 0.79336 0.91688 0.89515 0.0
C1117 C 0.7454 0.9182 0.9224 0.0
C1118 C 0.81276 0.91579 0.8552 0.0
C1119 C 0.80596 0.91668 0.80013 0.0
C1120 C 0.76665 0.91867 0.88046 0.0
C1121 C 0.77905 0.91923 0.78705 0.0
C1122 C 0.71862 0.91678 0.90783 0.0
C1123 C 0.73326 0.91663 1.01587 0.0
N1124 N 0.7604 0.91993 0.82685 0.0
N1125 N 0.75178 0.91823 0.976 0.0
H1126 H 0.92331 0.2738 0.99253 0.0
H1127 H 0.91492 0.24064 0.30948 0.0
H1128 H 0.90133 0.33076 0.11413 0.0
H1129 H 0.9165 0.18071 0.18562 0.0
H1130 H 0.91629 0.27468 0.23901 0.0
H1131 H 0.92683 0.24002 0.06335 0.0
C1132 C 0.91941 0.2793 0.03399 0.0
C1133 C 0.91197 0.30526 0.0471 0.0
C1134 C 0.91643 0.25406 0.2273 0.0
C1135 C 0.91614 0.26671 0.12852 0.0
C1136 C 0.91579 0.23462 0.26758 0.0
C1137 C 0.91531 0.20774 0.25357 0.0
C1138 C 0.91693 0.2466 0.17255 0.0
C1139 C 0.91641 0.20116 0.19842 0.0
C1140 C 0.92136 0.25999 0.07443 0.0
C1141 C 0.9071 0.3111 0.10176 0.0
N1142 N 0.91714 0.22038 0.16007 0.0
N1143 N 0.90929 0.29209 0.14023 0.0
H1144 H 0.27477 0.41706 0.24939 0.0
H1145 H 0.24066 0.41653 0.56656 0.0
H1146 H 0.33374 0.41192 0.37479 0.0
H1147 H 0.18186 0.40961 0.44113 0.0
H1148 H 0.275 0.41947 0.49691 0.0
H1149 H 0.24036 0.41902 0.31905 0.0
C1150 C 0.28052 0.41653 0.29147 0.0
C1151 C 0.30723 0.41403 0.30607 0.0
C1152 C 0.25455 0.41736 0.48467 0.0
C1153 C 0.26792 0.41627 0.3862 0.0
C1154 C 0.23492 0.41578 0.52448 0.0
C1155 C 0.20829 0.41252 0.50988 0.0
C1156 C 0.24752 0.41592 0.42974 0.0
C1157 C 0.20211 0.41167 0.45451 0.0
C1158 C 0.26086 0.41754 0.33128 0.0
C1159 C 0.31343 0.4134 0.36143 0.0
N1160 N 0.22149 0.41331 0.41665 0.0
N1161 N 0.29401 0.41446 0.39929 0.0
H1162 H 0.41583 0.74152 0.81508 0.0
H1163 H 0.4162 0.77511 0.4975 0.0
H1164 H 0.41126 0.68241 0.68984 0.0
H1165 H 0.40951 0.83419 0.62236 0.0
H1166 H 0.41884 0.74092 0.56749 0.0
H1167 H 0.41797 0.77586 0.74523 0.0
C1168 C 0.41545 0.73572 0.77302 0.0
C1169 C 0.41307 0.70898 0.75852 0.0
C1170 C 0.41686 0.7614 0.57954 0.0
C1171 C 0.41554 0.7482 0.67816 0.0
C1172 C 0.41545 0.78095 0.53952 0.0
C1173 C 0.41235 0.80762 0.55383 0.0
C1174 C 0.41539 0.76854 0.63441 0.0
C1175 C 0.41148 0.81391 0.60916 0.0
C1176 C 0.41657 0.75534 0.73309 0.0
C1177 C 0.41265 0.70272 0.70316 0.0
N1178 N 0.41294 0.7946 0.64722 0.0
N1179 N 0.41382 0.72209 0.66521 0.0
H1180 H 0.74848 0.59863 0.23312 0.0
H1181 H 0.77616 0.59906 0.55361 0.0
H1182 H 0.68712 0.59987 0.3538 0.0
H1183 H 0.83759 0.60395 0.43355 0.0
H1184 H 0.74329 0.59571 0.48081 0.0
H1185 H 0.78163 0.59686 0.30573 0.0
C1186 C 0.74194 0.59832 0.27468 0.0
C1187 C 0.71491 0.59972 0.28708 0.0
C1188 C 0.76401 0.59745 0.47044 0.0
C1189 C 0.75273 0.59774 0.37061 0.0
C1190 C 0.78278 0.59928 0.51209 0.0
C1191 C 0.80973 0.60212 0.49994 0.0
C1192 C 0.7722 0.59828 0.41612 0.0
C1193 C 0.81706 0.60228 0.44512 0.0
C1194 C 0.76087 0.59742 0.31622 0.0
C1195 C 0.70769 0.59928 0.34197 0.0
N1196 N 0.7985 0.60048 0.40549 0.0
N1197 N 0.72638 0.59843 0.38142 0.0
H1198 H 0.59981 0.24569 0.49009 0.0
H1199 H 0.59213 0.27067 0.81107 0.0
H1200 H 0.59669 0.18302 0.60771 0.0
H1201 H 0.60129 0.33249 0.69284 0.0
H1202 H 0.58977 0.23825 0.7371 0.0
H1203 H 0.59606 0.27803 0.56375 0.0
C1204 C 0.59814 0.23871 0.53122 0.0
C1205 C 0.599 0.21157 0.54257 0.0
C1206 C 0.59213 0.25898 0.72749 0.0
C1207 C 0.59477 0.24844 0.62733 0.0
C1208 C 0.5934 0.27751 0.76978 0.0
C1209 C 0.59709 0.30445 0.75853 0.0
C1210 C 0.5944 0.26748 0.67352 0.0
C1211 C 0.59866 0.31202 0.70393 0.0
C1212 C 0.59611 0.25716 0.57338 0.0
C1213 C 0.59673 0.20373 0.5969 0.0
N1214 N 0.5974 0.29375 0.6638 0.0
N1215 N 0.59485 0.22198 0.63705 0.0
H1216 H 0.31764 0.08768 0.51344 0.0
H1217 H 0.42583 0.13413 0.73096 0.0
H1218 H 0.39461 0.118 0.47082 0.0
H1219 H 0.34772 0.10686 0.77337 0.0
H1220 H 0.41509 0.12745 0.63576 0.0
H1221 H 0.32847 0.09405 0.60864 0.0
C1222 C 0.33679 0.09579 0.52393 0.0
C1223 C 0.35518 0.10234 0.48361 0.0
C1224 C 0.40028 0.12293 0.66586 0.0
C1225 C 0.36787 0.10942 0.59325 0.0
C1226 C 0.40646 0.1266 0.72039 0.0
C1227 C 0.3877 0.12105 0.7606 0.0
C1228 C 0.37513 0.11356 0.65104 0.0
C1229 C 0.36275 0.11175 0.744 0.0
C1230 C 0.34301 0.09929 0.57848 0.0
C1231 C 0.37987 0.11232 0.50019 0.0
N1232 N 0.35724 0.10828 0.69067 0.0
N1233 N 0.38544 0.11557 0.55355 0.0
H1234 H 0.14085 0.67224 0.57953 0.0
H1235 H 0.07622 0.62332 0.301 0.0
H1236 H 0.05795 0.65431 0.56012 0.0
H1237 H 0.15882 0.64302 0.31876 0.0
H1238 H 0.06917 0.63497 0.39548 0.0
H1239 H 0.14785 0.6617 0.48434 0.0
C1240 C 0.12411 0.66602 0.55537 0.0
C1241 C 0.09875 0.66415 0.5782 0.0
C1242 C 0.08885 0.63677 0.37875 0.0
C1243 C 0.10665 0.65219 0.4686 0.0
C1244 C 0.09289 0.63026 0.32456 0.0
C1245 C 0.11818 0.6322 0.30149 0.0
C1246 C 0.11024 0.64532 0.41054 0.0
C1247 C 0.13904 0.64086 0.33471 0.0
C1248 C 0.12812 0.66012 0.50085 0.0
C1249 C 0.07779 0.65638 0.54439 0.0
N1250 N 0.1346 0.64709 0.38738 0.0
N1251 N 0.08222 0.65063 0.49151 0.0
H1252 H 0.68546 0.87144 0.49354 0.0
H1253 H 0.60435 0.92971 0.74446 0.0
H1254 H 0.63418 0.93935 0.48314 0.0
H1255 H 0.65188 0.85903 0.75296 0.0
H1256 H 0.61573 0.93399 0.64922 0.0
H1257 H 0.67446 0.8673 0.58914 0.0
C1258 C 0.672 0.88559 0.51138 0.0
C1259 C 0.66075 0.9058 0.48008 0.0
C1260 C 0.62367 0.91752 0.67188 0.0
C1261 C 0.64785 0.901 0.5897 0.0
C1262 C 0.61705 0.91496 0.7263 0.0
C1263 C 0.62706 0.8939 0.757 0.0
C1264 C 0.6405 0.89892 0.64766 0.0
C1265 C 0.64389 0.87575 0.73125 0.0
C1266 C 0.6656 0.88311 0.56596 0.0
C1267 C 0.64309 0.92327 0.50539 0.0
N1268 N 0.65004 0.87867 0.67817 0.0
N1269 N 0.63724 0.92049 0.55861 0.0
H1270 H 0.90304 0.34369 0.27927 0.0
H1271 H 0.90428 0.39769 0.58383 0.0
H1272 H 0.88546 0.42443 0.32242 0.0
H1273 H 0.91553 0.31566 0.54165 0.0
H1274 H 0.89852 0.40806 0.48831 0.0
H1275 H 0.90927 0.3334 0.37478 0.0
C1276 C 0.90062 0.35932 0.30874 0.0
C1277 C 0.89371 0.38501 0.2925 0.0
C1278 C 0.90226 0.38779 0.49993 0.0
C1279 C 0.90065 0.37324 0.40246 0.0
C1280 C 0.90542 0.38179 0.55463 0.0
C1281 C 0.91037 0.3557 0.57123 0.0
C1282 C 0.90408 0.3676 0.46112 0.0
C1283 C 0.91212 0.33611 0.53104 0.0
C1284 C 0.90404 0.35337 0.3634 0.0
C1285 C 0.89046 0.40429 0.33287 0.0
N1286 N 0.90896 0.34245 0.47806 0.0
N1287 N 0.894 0.39803 0.38579 0.0
H1288 H 0.36168 0.35909 0.55794 0.0
H1289 H 0.38321 0.44401 0.82801 0.0
H1290 H 0.41063 0.42892 0.56628 0.0
H1291 H 0.33112 0.37658 0.81769 0.0
H1292 H 0.39417 0.43827 0.73271 0.0
H1293 H 0.35056 0.36493 0.65309 0.0
C1294 C 0.37 0.37574 0.5796 0.0
C1295 C 0.38717 0.39352 0.55377 0.0
C1296 C 0.38032 0.42473 0.75125 0.0
C1297 C 0.37469 0.40016 0.66333 0.0
C1298 C 0.37416 0.42791 0.80583 0.0
C1299 C 0.35618 0.41076 0.83111 0.0
C1300 C 0.36853 0.40418 0.72151 0.0
C1301 C 0.34481 0.3905 0.79988 0.0
C1302 C 0.36374 0.37898 0.63412 0.0
C1303 C 0.39764 0.41447 0.58446 0.0
N1304 N 0.3512 0.38776 0.74688 0.0
N1305 N 0.39124 0.41719 0.63746 0.0
H1306 H 0.38591 0.62343 0.21908 0.0
H1307 H 0.40839 0.66885 0.52564 0.0
H1308 H 0.42404 0.69658 0.26422 0.0
H1309 H 0.37447 0.59374 0.48001 0.0
H1310 H 0.4129 0.68005 0.43023 0.0
H1311 H 0.38071 0.61269 0.31443 0.0
C1312 C 0.39334 0.63719 0.24897 0.0
C1313 C 0.40552 0.66094 0.23336 0.0
C1314 C 0.40446 0.66112 0.44107 0.0
C1315 C 0.39928 0.64887 0.34302 0.0
C1316 C 0.40171 0.65477 0.4956 0.0
C1317 C 0.39102 0.63028 0.51102 0.0
C1318 C 0.39641 0.64292 0.40146 0.0
C1319 C 0.38312 0.61269 0.47013 0.0
C1320 C 0.39022 0.6311 0.30351 0.0
C1321 C 0.41426 0.6782 0.27417 0.0
N1322 N 0.38596 0.61936 0.41735 0.0
N1323 N 0.41099 0.67181 0.32702 0.0
H1324 H 0.70951 0.58759 0.78148 0.0
H1325 H 0.60356 0.6411 0.56662 0.0
H1326 H 0.63156 0.61535 0.82343 0.0
H1327 H 0.67877 0.60766 0.52099 0.0
H1328 H 0.61456 0.63355 0.66113 0.0
H1329 H 0.69992 0.59704 0.68651 0.0
C1330 C 0.69045 0.59582 0.77087 0.0
C1331 C 0.67127 0.6005 0.81072 0.0
C1332 C 0.6287 0.62788 0.63051 0.0
C1333 C 0.66008 0.6112 0.7018 0.0
C1334 C 0.62236 0.63205 0.57632 0.0
C1335 C 0.64015 0.62489 0.53535 0.0
C1336 C 0.6531 0.61648 0.64434 0.0
C1337 C 0.66448 0.61377 0.55095 0.0
C1338 C 0.68493 0.60106 0.71654 0.0
C1339 C 0.64682 0.61095 0.79423 0.0
N1340 N 0.67019 0.60986 0.60407 0.0
N1341 N 0.64196 0.6159 0.74124 0.0
H1342 H 0.63729 0.41554 0.48182 0.0
H1343 H 0.58098 0.311 0.26605 0.0
H1344 H 0.60076 0.34166 0.52656 0.0
H1345 H 0.61463 0.38649 0.22303 0.0
H1346 H 0.58846 0.32145 0.36129 0.0
H1347 H 0.63011 0.40459 0.3869 0.0
C1348 C 0.62792 0.39692 0.4718 0.0
C1349 C 0.61966 0.37953 0.51264 0.0
C1350 C 0.59423 0.33572 0.331 0.0
C1351 C 0.61108 0.36693 0.40328 0.0
C1352 C 0.58982 0.32983 0.27647 0.0
C1353 C 0.59718 0.34783 0.23598 0.0
C1354 C 0.6061 0.35985 0.34556 0.0
C1355 C 0.60897 0.37175 0.2524 0.0
C1356 C 0.62366 0.39074 0.41742 0.0
C1357 C 0.60719 0.35588 0.49675 0.0
N1358 N 0.61301 0.37702 0.30567 0.0
N1359 N 0.60333 0.35028 0.44351 0.0
H1360 H 0.81769 0.59439 1.00834 0.0
H1361 H 0.92644 0.63869 0.2263 0.0
H1362 H 0.89341 0.62793 0.96637 0.0
H1363 H 0.84919 0.6091 0.26883 0.0
H1364 H 0.91489 0.63423 0.131 0.0
H1365 H 0.82888 0.59939 0.10372 0.0
C1366 C 0.83662 0.60296 1.01904 0.0
C1367 C 0.8546 0.61075 0.9789 0.0
C1368 C 0.90044 0.62874 0.16114 0.0
C1369 C 0.8677 0.61623 0.08858 0.0
C1370 C 0.90708 0.63114 0.21568 0.0
C1371 C 0.88881 0.62421 0.25591 0.0
C1372 C 0.87532 0.61926 0.14636 0.0
C1373 C 0.86384 0.61497 0.23941 0.0
C1374 C 0.84305 0.60567 0.07365 0.0
C1375 C 0.87902 0.62128 0.99562 0.0
N1376 N 0.85788 0.61271 0.18603 0.0
N1377 N 0.88482 0.6237 0.04902 0.0
H1378 H 0.60269 0.1747 0.77124 0.0
H1379 H 0.63871 0.14353 0.07961 0.0
H1380 H 0.6531 0.1105 0.8213 0.0
H1381 H 0.57653 0.19734 0.03336 0.0
H1382 H 0.647 0.13427 0.98467 0.0
H1383 H 0.59586 0.1864 0.86619 0.0
C1384 C 0.61247 0.16316 0.80213 0.0
C1385 C 0.62845 0.14149 0.7881 0.0
C1386 C 0.63155 0.14813 0.99521 0.0
C1387 C 0.62061 0.15477 0.89704 0.0
C1388 C 0.62667 0.15336 0.04961 0.0
C1389 C 0.60662 0.17106 0.06499 0.0
C1390 C 0.61645 0.16076 0.95532 0.0
C1391 C 0.59229 0.18369 1.02374 0.0
C1392 C 0.60842 0.16976 0.85636 0.0
C1393 C 0.64035 0.12712 0.83005 0.0
N1394 N 0.59742 0.17824 0.97091 0.0
N1395 N 0.63623 0.13402 0.88242 0.0
H1396 H 0.09041 0.37575 0.23192 0.0
H1397 H 0.19632 0.42649 1.01516 0.0
H1398 H 0.16636 0.40859 0.27497 0.0
H1399 H 0.12247 0.3891 0.97218 0.0
H1400 H 0.1855 0.4206 0.11036 0.0
H1401 H 0.10143 0.38133 0.1367 0.0
C1402 C 0.10937 0.38424 0.22142 0.0
C1403 C 0.12745 0.39174 0.26174 0.0
C1404 C 0.17165 0.41368 0.08011 0.0
C1405 C 0.14032 0.39801 0.15237 0.0
C1406 C 0.17789 0.41691 1.02562 0.0
C1407 C 0.16033 0.40826 0.98527 0.0
C1408 C 0.14763 0.40173 0.09471 0.0
C1409 C 0.1365 0.39642 1.00164 0.0
C1410 C 0.11572 0.38729 0.16694 0.0
C1411 C 0.1519 0.40223 0.24544 0.0
N1412 N 0.13088 0.39351 0.05496 0.0
N1413 N 0.15757 0.4051 0.19213 0.0
H1414 H 0.42535 0.81891 0.04811 0.0
H1415 H 0.37646 0.92559 0.83103 0.0
H1416 H 0.3898 0.89358 0.09084 0.0
H1417 H 0.40799 0.84917 0.78815 0.0
H1418 H 0.38204 0.91456 0.92626 0.0
H1419 H 0.41963 0.82982 0.95287 0.0
C1420 C 0.41621 0.83755 0.03759 0.0
C1421 C 0.40802 0.8553 0.07789 0.0
C1422 C 0.38772 0.90018 0.89606 0.0
C1423 C 0.4017 0.86809 0.96839 0.0
C1424 C 0.38467 0.90652 0.84156 0.0
C1425 C 0.39179 0.88832 0.80127 0.0
C1426 C 0.39804 0.87544 0.9107 0.0
C1427 C 0.40192 0.86374 0.81765 0.0
C1428 C 0.41309 0.84383 0.98307 0.0
C1429 C 0.39676 0.87938 0.06143 0.0
N1430 N 0.40479 0.85806 0.87098 0.0
N1431 N 0.39393 0.88503 1.00809 0.0
H1432 H 0.89056 0.90011 0.3406 0.0
H1433 H 0.84177 0.91195 0.03345 0.0
H1434 H 0.81439 0.93135 0.29499 0.0
H1435 H 0.91736 0.87982 0.08041 0.0
H1436 H 0.8313 0.91919 0.12863 0.0
H1437 H 0.90042 0.89225 0.24559 0.0
C1438 C 0.87578 0.90516 0.31071 0.0
C1439 C 0.85152 0.91635 0.3262 0.0
C1440 C 0.85016 0.91052 0.11813 0.0
C1441 C 0.86292 0.90765 0.21657 0.0
C1442 C 0.85624 0.9065 0.06368 0.0
C1443 C 0.88056 0.89528 0.04859 0.0
C1444 C 0.86852 0.90336 0.15812 0.0
C1445 C 0.89826 0.88822 0.08989 0.0
C1446 C 0.88152 0.9008 0.25628 0.0
C1447 C 0.83346 0.92296 0.28518 0.0
N1448 N 0.89193 0.89244 0.14255 0.0
N1449 N 0.83951 0.91849 0.23242 0.0
H1450 H 0.93233 0.10362 0.9947 0.0
H1451 H 0.87672 0.18547 0.74217 0.0
H1452 H 0.86278 0.15285 1.00174 0.0
H1453 H 0.94394 0.13321 0.73328 0.0
H1454 H 0.87191 0.17456 0.83764 0.0
H1455 H 0.9372 0.11466 0.89938 0.0
C1456 C 0.91795 0.11662 0.97622 0.0
C1457 C 0.89703 0.12722 1.00657 0.0
C1458 C 0.88772 0.16547 0.81484 0.0
C1459 C 0.90275 0.14026 0.89707 0.0
C1460 C 0.89059 0.17181 0.7603 0.0
C1461 C 0.91082 0.1603 0.72943 0.0
C1462 C 0.90523 0.14749 0.83904 0.0
C1463 C 0.92787 0.14237 0.75516 0.0
C1464 C 0.92086 0.12305 0.92174 0.0
C1465 C 0.87939 0.14441 0.98035 0.0
N1466 N 0.92472 0.13657 0.80836 0.0
N1467 N 0.88263 0.15035 0.92724 0.0
H1468 H 0.17269 0.1003 0.02987 0.0
H1469 H 0.13495 0.12929 0.33834 0.0
H1470 H 0.10562 0.14707 0.07916 0.0
H1471 H 0.1968 0.07532 0.29109 0.0
H1472 H 0.1259 0.13813 0.24347 0.0
H1473 H 0.18399 0.09343 0.12488 0.0
C1474 C 0.16044 0.10931 0.0606 0.0
C1475 C 0.13808 0.12423 0.04632 0.0
C1476 C 0.14148 0.12436 0.25376 0.0
C1477 C 0.15083 0.11623 0.15539 0.0
C1478 C 0.14659 0.11916 0.30807 0.0
C1479 C 0.16654 0.1013 0.32305 0.0
C1480 C 0.15645 0.11172 0.21367 0.0
C1481 C 0.18135 0.08937 0.28169 0.0
C1482 C 0.16682 0.10523 0.11489 0.0
C1483 C 0.12281 0.13512 0.08809 0.0
N1484 N 0.17595 0.09472 0.22898 0.0
N1485 N 0.12945 0.1309 0.14055 0.0
H1486 H 0.11437 0.8902 0.71795 0.0
H1487 H 0.10265 0.84155 1.02489 0.0
H1488 H 0.08426 0.81354 0.76316 0.0
H1489 H 0.13392 0.91754 0.97832 0.0
H1490 H 0.09578 0.83085 0.92963 0.0
H1491 H 0.12196 0.90026 0.81303 0.0
C1492 C 0.10952 0.87536 0.74777 0.0
C1493 C 0.09872 0.85089 0.73216 0.0
C1494 C 0.10417 0.84985 0.94023 0.0
C1495 C 0.1071 0.86253 0.84185 0.0
C1496 C 0.10799 0.85606 0.99472 0.0
C1497 C 0.11886 0.88056 1.00994 0.0
C1498 C 0.11119 0.86827 0.90034 0.0
C1499 C 0.12579 0.89831 0.96873 0.0
C1500 C 0.11372 0.88121 0.80223 0.0
C1501 C 0.09235 0.83275 0.77307 0.0
N1502 N 0.12178 0.89185 0.91602 0.0
N1503 N 0.09665 0.83892 0.82588 0.0
loop_
_geom_bond_atom_site_label_1
_geom_bond_atom_site_label_2
_geom_bond_distance
_geom_bond_site_symmetry_2
_ccdc_geom_bond_type
Ho0 C3 2.811 . S
Ho0 O20 2.322 . S
Ho0 O22 2.378 . S
Ho0 O23 2.524 . S
Ho0 O24 2.381 . S
Ho0 O25 2.669 . S
Ho0 O27 2.346 . S
Ho0 O31 2.305 . S
Ho1 C12 2.811 1_554 S
Ho1 O21 2.346 . S
Ho1 O25 2.305 . S
Ho1 O26 2.322 . S
Ho1 O28 2.378 1_554 S
Ho1 O29 2.524 1_554 S
Ho1 O30 2.381 . S
Ho1 O31 2.669 . S
C2 O20 1.259 . S
C2 O21 1.268 . S
C3 Ho0 2.811 . S
C3 C4 1.488 . S
C3 O22 1.215 . S
C3 O23 1.289 . S
C4 C3 1.488 . S
C4 C5 1.348 . S
C4 C9 1.413 . S
C5 C4 1.348 . S
C5 C6 1.442 . S
C5 H32 0.930 . S
C6 C5 1.442 . S
C6 C7 1.381 . S
C6 H33 0.931 . S
C7 C6 1.381 . S
C7 C8 1.321 . S
C8 C7 1.321 . S
C8 C9 1.403 . S
C8 H34 0.934 . S
C9 C4 1.413 . S
C9 C8 1.403 . S
C9 H35 0.930 . S
C10 O24 1.275 . S
C10 O25 1.256 . S
C11 O26 1.259 . S
C11 O27 1.268 . S
C12 Ho1 2.811 1_556 S
C12 C13 1.488 . S
C12 O28 1.215 . S
C12 O29 1.289 . S
C13 C12 1.488 . S
C13 C14 1.348 . S
C13 C18 1.413 . S
C14 C13 1.348 . S
C14 C15 1.442 . S
C14 H36 0.930 . S
C15 C14 1.442 . S
C15 C16 1.381 . S
C15 H37 0.931 . S
C16 C15 1.381 . S
C16 C17 1.321 . S
C17 C16 1.321 . S
C17 C18 1.403 . S
C17 H38 0.934 . S
C18 C13 1.413 . S
C18 C17 1.403 . S
C18 H39 0.930 . S
C19 O30 1.275 . S
C19 O31 1.256 . S
O20 Ho0 2.322 . S
O20 C2 1.259 . S
O21 Ho1 2.346 . S
O21 C2 1.268 . S
O22 Ho0 2.378 . S
O22 C3 1.215 . S
O23 Ho0 2.524 . S
O23 C3 1.289 . S
O24 Ho0 2.381 . S
O24 C10 1.275 . S
O25 Ho0 2.669 . S
O25 Ho1 2.305 . S
O25 C10 1.256 . S
O26 Ho1 2.322 . S
O26 C11 1.259 . S
O27 Ho0 2.346 . S
O27 C11 1.268 . S
O28 Ho1 2.378 1_556 S
O28 C12 1.215 . S
O29 Ho1 2.524 1_556 S
O29 C12 1.289 . S
O30 Ho1 2.381 . S
O30 C19 1.275 . S
O31 Ho0 2.305 . S
O31 Ho1 2.669 . S
O31 C19 1.256 . S
H32 C5 0.930 . S
H33 C6 0.931 . S
H34 C8 0.934 . S
H35 C9 0.930 . S
H36 C14 0.930 . S
H37 C15 0.931 . S
H38 C17 0.934 . S
H39 C18 0.930 . S
Ho40 C43 2.811 1_556 S
Ho40 O60 2.322 . S
Ho40 O62 2.378 1_556 S
Ho40 O63 2.524 1_556 S
Ho40 O64 2.381 . S
Ho40 O65 2.669 . S
Ho40 O67 2.346 . S
Ho40 O71 2.305 . S
Ho41 C52 2.811 . S
Ho41 O61 2.346 . S
Ho41 O65 2.305 . S
Ho41 O66 2.322 . S
Ho41 O68 2.378 . S
Ho41 O69 2.524 . S
Ho41 O70 2.381 . S
Ho41 O71 2.669 . S
C42 O60 1.259 . S
C42 O61 1.268 . S
C43 Ho40 2.811 1_554 S
C43 C44 1.488 . S
C43 O62 1.215 . S
C43 O63 1.289 . S
C44 C43 1.488 . S
C44 C45 1.348 . S
C44 C49 1.413 . S
C45 C44 1.348 . S
C45 C46 1.442 . S
C45 H72 0.930 . S
C46 C45 1.442 . S
C46 C47 1.381 . S
C46 H73 0.931 . S
C47 C46 1.381 . S
C47 C48 1.321 . S
C48 C47 1.321 . S
C48 C49 1.403 . S
C48 H74 0.934 . S
C49 C44 1.413 . S
C49 C48 1.403 . S
C49 H75 0.930 . S
C50 O64 1.275 . S
C50 O65 1.256 . S
C51 O66 1.259 . S
C51 O67 1.268 . S
C52 Ho41 2.811 . S
C52 C53 1.488 . S
C52 O68 1.215 . S
C52 O69 1.289 . S
C53 C52 1.488 . S
C53 C54 1.348 . S
C53 C58 1.413 . S
C54 C53 1.348 . S
C54 C55 1.442 . S
C54 H76 0.930 . S
C55 C54 1.442 . S
C55 C56 1.381 . S
C55 H77 0.931 . S
C56 C55 1.381 . S
C56 C57 1.321 . S
C57 C56 1.321 . S
C57 C58 1.403 . S
C57 H78 0.934 . S
C58 C53 1.413 . S
C58 C57 1.403 . S
C58 H79 0.930 . S
C59 O70 1.275 . S
C59 O71 1.256 . S
O60 Ho40 2.322 . S
O60 C42 1.259 . S
O61 Ho41 2.346 . S
O61 C42 1.268 . S
O62 Ho40 2.378 1_554 S
O62 C43 1.215 . S
O63 Ho40 2.524 1_554 S
O63 C43 1.289 . S
O64 Ho40 2.381 . S
O64 C50 1.275 . S
O65 Ho40 2.669 . S
O65 Ho41 2.305 . S
O65 C50 1.256 . S
O66 Ho41 2.322 . S
O66 C51 1.259 . S
O67 Ho40 2.346 . S
O67 C51 1.268 . S
O68 Ho41 2.378 . S
O68 C52 1.215 . S
O69 Ho41 2.524 . S
O69 C52 1.289 . S
O70 Ho41 2.381 . S
O70 C59 1.275 . S
O71 Ho40 2.305 . S
O71 Ho41 2.669 . S
O71 C59 1.256 . S
H72 C45 0.930 . S
H73 C46 0.931 . S
H74 C48 0.934 . S
H75 C49 0.930 . S
H76 C54 0.930 . S
H77 C55 0.931 . S
H78 C57 0.934 . S
H79 C58 0.930 . S
Ho80 C83 2.811 . S
Ho80 O100 2.322 . S
Ho80 O102 2.378 . S
Ho80 O103 2.524 . S
Ho80 O104 2.381 . S
Ho80 O105 2.669 . S
Ho80 O107 2.346 . S
Ho80 O111 2.305 . S
Ho81 C92 2.811 1_554 S
Ho81 O101 2.346 . S
Ho81 O105 2.305 . S
Ho81 O106 2.322 . S
Ho81 O108 2.378 1_554 S
Ho81 O109 2.524 1_554 S
Ho81 O110 2.381 . S
Ho81 O111 2.669 . S
C82 O100 1.259 . S
C82 O101 1.268 . S
C83 Ho80 2.811 . S
C83 C84 1.488 . S
C83 O102 1.215 . S
C83 O103 1.289 . S
C84 C83 1.488 . S
C84 C85 1.348 . S
C84 C89 1.413 . S
C85 C84 1.348 . S
C85 C86 1.442 . S
C85 H112 0.930 . S
C86 C85 1.442 . S
C86 C87 1.381 . S
C86 H113 0.931 . S
C87 C86 1.381 . S
C87 C88 1.321 . S
C88 C87 1.321 . S
C88 C89 1.403 . S
C88 H114 0.934 . S
C89 C84 1.413 . S
C89 C88 1.403 . S
C89 H115 0.930 . S
C90 O104 1.275 . S
C90 O105 1.256 . S
C91 O106 1.259 . S
C91 O107 1.268 . S
C92 Ho81 2.811 1_556 S
C92 C93 1.488 . S
C92 O108 1.215 . S
C92 O109 1.289 . S
C93 C92 1.488 . S
C93 C94 1.348 . S
C93 C98 1.413 . S
C94 C93 1.348 . S
C94 C95 1.442 . S
C94 H116 0.930 . S
C95 C94 1.442 . S
C95 C96 1.381 . S
C95 H117 0.931 . S
C96 C95 1.381 . S
C96 C97 1.321 . S
C97 C96 1.321 . S
C97 C98 1.403 . S
C97 H118 0.934 . S
C98 C93 1.413 . S
C98 C97 1.403 . S
C98 H119 0.930 . S
C99 O110 1.275 . S
C99 O111 1.256 . S
O100 Ho80 2.322 . S
O100 C82 1.259 . S
O101 Ho81 2.346 . S
O101 C82 1.268 . S
O102 Ho80 2.378 . S
O102 C83 1.215 . S
O103 Ho80 2.524 . S
O103 C83 1.289 . S
O104 Ho80 2.381 . S
O104 C90 1.275 . S
O105 Ho80 2.669 . S
O105 Ho81 2.305 . S
O105 C90 1.256 . S
O106 Ho81 2.322 . S
O106 C91 1.259 . S
O107 Ho80 2.346 . S
O107 C91 1.268 . S
O108 Ho81 2.378 1_556 S
O108 C92 1.215 . S
O109 Ho81 2.524 1_556 S
O109 C92 1.289 . S
O110 Ho81 2.381 . S
O110 C99 1.275 . S
O111 Ho80 2.305 . S
O111 Ho81 2.669 . S
O111 C99 1.256 . S
H112 C85 0.930 . S
H113 C86 0.931 . S
H114 C88 0.934 . S
H115 C89 0.930 . S
H116 C94 0.930 . S
H117 C95 0.931 . S
H118 C97 0.934 . S
H119 C98 0.930 . S
Ho120 C123 2.811 1_556 S
Ho120 O140 2.322 . S
Ho120 O142 2.378 1_556 S
Ho120 O143 2.524 1_556 S
Ho120 O144 2.381 . S
Ho120 O145 2.669 . S
Ho120 O147 2.346 . S
Ho120 O151 2.305 . S
Ho121 C132 2.811 . S
Ho121 O141 2.346 . S
Ho121 O145 2.305 . S
Ho121 O146 2.322 . S
Ho121 O148 2.378 . S
Ho121 O149 2.524 . S
Ho121 O150 2.381 . S
Ho121 O151 2.669 . S
C122 O140 1.259 . S
C122 O141 1.268 . S
C123 Ho120 2.811 1_554 S
C123 C124 1.488 . S
C123 O142 1.215 . S
C123 O143 1.289 . S
C124 C123 1.488 . S
C124 C125 1.348 . S
C124 C129 1.413 . S
C125 C124 1.348 . S
C125 C126 1.442 . S
C125 H152 0.930 . S
C126 C125 1.442 . S
C126 C127 1.381 . S
C126 H153 0.931 . S
C127 C126 1.381 . S
C127 C128 1.321 . S
C128 C127 1.321 . S
C128 C129 1.403 . S
C128 H154 0.934 . S
C129 C124 1.413 . S
C129 C128 1.403 . S
C129 H155 0.930 . S
C130 O144 1.275 . S
C130 O145 1.256 . S
C131 O146 1.259 . S
C131 O147 1.268 . S
C132 Ho121 2.811 . S
C132 C133 1.488 . S
C132 O148 1.215 . S
C132 O149 1.289 . S
C133 C132 1.488 . S
C133 C134 1.348 . S
C133 C138 1.413 . S
C134 C133 1.348 . S
C134 C135 1.442 . S
C134 H156 0.930 . S
C135 C134 1.442 . S
C135 C136 1.381 . S
C135 H157 0.931 . S
C136 C135 1.381 . S
C136 C137 1.321 . S
C137 C136 1.321 . S
C137 C138 1.403 . S
C137 H158 0.934 . S
C138 C133 1.413 . S
C138 C137 1.403 . S
C138 H159 0.930 . S
C139 O150 1.275 . S
C139 O151 1.256 . S
O140 Ho120 2.322 . S
O140 C122 1.259 . S
O141 Ho121 2.346 . S
O141 C122 1.268 . S
O142 Ho120 2.378 1_554 S
O142 C123 1.215 . S
O143 Ho120 2.524 1_554 S
O143 C123 1.289 . S
O144 Ho120 2.381 . S
O144 C130 1.275 . S
O145 Ho120 2.669 . S
O145 Ho121 2.305 . S
O145 C130 1.256 . S
O146 Ho121 2.322 . S
O146 C131 1.259 . S
O147 Ho120 2.346 . S
O147 C131 1.268 . S
O148 Ho121 2.378 . S
O148 C132 1.215 . S
O149 Ho121 2.524 . S
O149 C132 1.289 . S
O150 Ho121 2.381 . S
O150 C139 1.275 . S
O151 Ho120 2.305 . S
O151 Ho121 2.669 . S
O151 C139 1.256 . S
H152 C125 0.930 . S
H153 C126 0.931 . S
H154 C128 0.934 . S
H155 C129 0.930 . S
H156 C134 0.930 . S
H157 C135 0.931 . S
H158 C137 0.934 . S
H159 C138 0.930 . S
Ho160 C163 2.811 1_554 S
Ho160 O180 2.322 . S
Ho160 O182 2.378 1_554 S
Ho160 O183 2.524 1_554 S
Ho160 O184 2.381 . S
Ho160 O185 2.669 . S
Ho160 O187 2.346 . S
Ho160 O191 2.305 . S
Ho161 C172 2.811 . S
Ho161 O181 2.346 . S
Ho161 O185 2.305 . S
Ho161 O186 2.322 . S
Ho161 O188 2.378 . S
Ho161 O189 2.524 . S
Ho161 O190 2.381 . S
Ho161 O191 2.669 . S
C162 O180 1.259 . S
C162 O181 1.268 . S
C163 Ho160 2.811 1_556 S
C163 C164 1.488 . S
C163 O182 1.215 . S
C163 O183 1.289 . S
C164 C163 1.488 . S
C164 C165 1.348 . S
C164 C169 1.413 . S
C165 C164 1.348 . S
C165 C166 1.442 . S
C165 H192 0.930 . S
C166 C165 1.442 . S
C166 C167 1.381 . S
C166 H193 0.931 . S
C167 C166 1.381 . S
C167 C168 1.321 . S
C168 C167 1.321 . S
C168 C169 1.403 . S
C168 H194 0.934 . S
C169 C164 1.413 . S
C169 C168 1.403 . S
C169 H195 0.930 . S
C170 O184 1.275 . S
C170 O185 1.256 . S
C171 O186 1.259 . S
C171 O187 1.268 . S
C172 Ho161 2.811 . S
C172 C173 1.488 . S
C172 O188 1.215 . S
C172 O189 1.289 . S
C173 C172 1.488 . S
C173 C174 1.348 . S
C173 C178 1.413 . S
C174 C173 1.348 . S
C174 C175 1.442 . S
C174 H196 0.930 . S
C175 C174 1.442 . S
C175 C176 1.381 . S
C175 H197 0.931 . S
C176 C175 1.381 . S
C176 C177 1.321 . S
C177 C176 1.321 . S
C177 C178 1.403 . S
C177 H198 0.934 . S
C178 C173 1.413 . S
C178 C177 1.403 . S
C178 H199 0.930 . S
C179 O190 1.275 . S
C179 O191 1.256 . S
O180 Ho160 2.322 . S
O180 C162 1.259 . S
O181 Ho161 2.346 . S
O181 C162 1.268 . S
O182 Ho160 2.378 1_556 S
O182 C163 1.215 . S
O183 Ho160 2.524 1_556 S
O183 C163 1.289 . S
O184 Ho160 2.381 . S
O184 C170 1.275 . S
O185 Ho160 2.669 . S
O185 Ho161 2.305 . S
O185 C170 1.256 . S
O186 Ho161 2.322 . S
O186 C171 1.259 . S
O187 Ho160 2.346 . S
O187 C171 1.268 . S
O188 Ho161 2.378 . S
O188 C172 1.215 . S
O189 Ho161 2.524 . S
O189 C172 1.289 . S
O190 Ho161 2.381 . S
O190 C179 1.275 . S
O191 Ho160 2.305 . S
O191 Ho161 2.669 . S
O191 C179 1.256 . S
H192 C165 0.930 . S
H193 C166 0.931 . S
H194 C168 0.934 . S
H195 C169 0.930 . S
H196 C174 0.930 . S
H197 C175 0.931 . S
H198 C177 0.934 . S
H199 C178 0.930 . S
Ho200 C203 2.811 . S
Ho200 O220 2.322 . S
Ho200 O222 2.378 . S
Ho200 O223 2.524 . S
Ho200 O224 2.381 . S
Ho200 O225 2.669 . S
Ho200 O227 2.346 . S
Ho200 O231 2.305 . S
Ho201 C212 2.811 1_556 S
Ho201 O221 2.346 . S
Ho201 O225 2.305 . S
Ho201 O226 2.322 . S
Ho201 O228 2.378 1_556 S
Ho201 O229 2.524 1_556 S
Ho201 O230 2.381 . S
Ho201 O231 2.669 . S
C202 O220 1.259 . S
C202 O221 1.268 . S
C203 Ho200 2.811 . S
C203 C204 1.488 . S
C203 O222 1.215 . S
C203 O223 1.289 . S
C204 C203 1.488 . S
C204 C205 1.348 . S
C204 C209 1.413 . S
C205 C204 1.348 . S
C205 C206 1.442 . S
C205 H232 0.930 . S
C206 C205 1.442 . S
C206 C207 1.381 . S
C206 H233 0.931 . S
C207 C206 1.381 . S
C207 C208 1.321 . S
C208 C207 1.321 . S
C208 C209 1.403 . S
C208 H234 0.934 . S
C209 C204 1.413 . S
C209 C208 1.403 . S
C209 H235 0.930 . S
C210 O224 1.275 . S
C210 O225 1.256 . S
C211 O226 1.259 . S
C211 O227 1.268 . S
C212 Ho201 2.811 1_554 S
C212 C213 1.488 . S
C212 O228 1.215 . S
C212 O229 1.289 . S
C213 C212 1.488 . S
C213 C214 1.348 . S
C213 C218 1.413 . S
C214 C213 1.348 . S
C214 C215 1.442 . S
C214 H236 0.930 . S
C215 C214 1.442 . S
C215 C216 1.381 . S
C215 H237 0.931 . S
C216 C215 1.381 . S
C216 C217 1.321 . S
C217 C216 1.321 . S
C217 C218 1.403 . S
C217 H238 0.934 . S
C218 C213 1.413 . S
C218 C217 1.403 . S
C218 H239 0.930 . S
C219 O230 1.275 . S
C219 O231 1.256 . S
O220 Ho200 2.322 . S
O220 C202 1.259 . S
O221 Ho201 2.346 . S
O221 C202 1.268 . S
O222 Ho200 2.378 . S
O222 C203 1.215 . S
O223 Ho200 2.524 . S
O223 C203 1.289 . S
O224 Ho200 2.381 . S
O224 C210 1.275 . S
O225 Ho200 2.669 . S
O225 Ho201 2.305 . S
O225 C210 1.256 . S
O226 Ho201 2.322 . S
O226 C211 1.259 . S
O227 Ho200 2.346 . S
O227 C211 1.268 . S
O228 Ho201 2.378 1_554 S
O228 C212 1.215 . S
O229 Ho201 2.524 1_554 S
O229 C212 1.289 . S
O230 Ho201 2.381 . S
O230 C219 1.275 . S
O231 Ho200 2.305 . S
O231 Ho201 2.669 . S
O231 C219 1.256 . S
H232 C205 0.930 . S
H233 C206 0.931 . S
H234 C208 0.934 . S
H235 C209 0.930 . S
H236 C214 0.930 . S
H237 C215 0.931 . S
H238 C217 0.934 . S
H239 C218 0.930 . S
Ho240 C243 2.811 1_554 S
Ho240 O260 2.322 . S
Ho240 O262 2.378 1_554 S
Ho240 O263 2.524 1_554 S
Ho240 O264 2.381 . S
Ho240 O265 2.669 . S
Ho240 O267 2.346 . S
Ho240 O271 2.305 . S
Ho241 C252 2.811 . S
Ho241 O261 2.346 . S
Ho241 O265 2.305 . S
Ho241 O266 2.322 . S
Ho241 O268 2.378 . S
Ho241 O269 2.524 . S
Ho241 O270 2.381 . S
Ho241 O271 2.669 . S
C242 O260 1.259 . S
C242 O261 1.268 . S
C243 Ho240 2.811 1_556 S
C243 C244 1.488 . S
C243 O262 1.215 . S
C243 O263 1.289 . S
C244 C243 1.488 . S
C244 C245 1.348 . S
C244 C249 1.413 . S
C245 C244 1.348 . S
C245 C246 1.442 . S
C245 H272 0.930 . S
C246 C245 1.442 . S
C246 C247 1.381 . S
C246 H273 0.931 . S
C247 C246 1.381 . S
C247 C248 1.321 . S
C248 C247 1.321 . S
C248 C249 1.403 . S
C248 H274 0.934 . S
C249 C244 1.413 . S
C249 C248 1.403 . S
C249 H275 0.930 . S
C250 O264 1.275 . S
C250 O265 1.256 . S
C251 O266 1.259 . S
C251 O267 1.268 . S
C252 Ho241 2.811 . S
C252 C253 1.488 . S
C252 O268 1.215 . S
C252 O269 1.289 . S
C253 C252 1.488 . S
C253 C254 1.348 . S
C253 C258 1.413 . S
C254 C253 1.348 . S
C254 C255 1.442 . S
C254 H276 0.930 . S
C255 C254 1.442 . S
C255 C256 1.381 . S
C255 H277 0.931 . S
C256 C255 1.381 . S
C256 C257 1.321 . S
C257 C256 1.321 . S
C257 C258 1.403 . S
C257 H278 0.934 . S
C258 C253 1.413 . S
C258 C257 1.403 . S
C258 H279 0.930 . S
C259 O270 1.275 . S
C259 O271 1.256 . S
O260 Ho240 2.322 . S
O260 C242 1.259 . S
O261 Ho241 2.346 . S
O261 C242 1.268 . S
O262 Ho240 2.378 1_556 S
O262 C243 1.215 . S
O263 Ho240 2.524 1_556 S
O263 C243 1.289 . S
O264 Ho240 2.381 . S
O264 C250 1.275 . S
O265 Ho240 2.669 . S
O265 Ho241 2.305 . S
O265 C250 1.256 . S
O266 Ho241 2.322 . S
O266 C251 1.259 . S
O267 Ho240 2.346 . S
O267 C251 1.268 . S
O268 Ho241 2.378 . S
O268 C252 1.215 . S
O269 Ho241 2.524 . S
O269 C252 1.289 . S
O270 Ho241 2.381 . S
O270 C259 1.275 . S
O271 Ho240 2.305 . S
O271 Ho241 2.669 . S
O271 C259 1.256 . S
H272 C245 0.930 . S
H273 C246 0.931 . S
H274 C248 0.934 . S
H275 C249 0.930 . S
H276 C254 0.930 . S
H277 C255 0.931 . S
H278 C257 0.934 . S
H279 C258 0.930 . S
Ho280 C283 2.811 . S
Ho280 O300 2.322 . S
Ho280 O302 2.378 . S
Ho280 O303 2.524 . S
Ho280 O304 2.381 . S
Ho280 O305 2.669 . S
Ho280 O307 2.346 . S
Ho280 O311 2.305 . S
Ho281 C292 2.811 1_556 S
Ho281 O301 2.346 . S
Ho281 O305 2.305 . S
Ho281 O306 2.322 . S
Ho281 O308 2.378 1_556 S
Ho281 O309 2.524 1_556 S
Ho281 O310 2.381 . S
Ho281 O311 2.669 . S
C282 O300 1.259 . S
C282 O301 1.268 . S
C283 Ho280 2.811 . S
C283 C284 1.488 . S
C283 O302 1.215 . S
C283 O303 1.289 . S
C284 C283 1.488 . S
C284 C285 1.348 . S
C284 C289 1.413 . S
C285 C284 1.348 . S
C285 C286 1.442 . S
C285 H312 0.930 . S
C286 C285 1.442 . S
C286 C287 1.381 . S
C286 H313 0.931 . S
C287 C286 1.381 . S
C287 C288 1.321 . S
C288 C287 1.321 . S
C288 C289 1.403 . S
C288 H314 0.934 . S
C289 C284 1.413 . S
C289 C288 1.403 . S
C289 H315 0.930 . S
C290 O304 1.275 . S
C290 O305 1.256 . S
C291 O306 1.259 . S
C291 O307 1.268 . S
C292 Ho281 2.811 1_554 S
C292 C293 1.488 . S
C292 O308 1.215 . S
C292 O309 1.289 . S
C293 C292 1.488 . S
C293 C294 1.348 . S
C293 C298 1.413 . S
C294 C293 1.348 . S
C294 C295 1.442 . S
C294 H316 0.930 . S
C295 C294 1.442 . S
C295 C296 1.381 . S
C295 H317 0.931 . S
C296 C295 1.381 . S
C296 C297 1.321 . S
C297 C296 1.321 . S
C297 C298 1.403 . S
C297 H318 0.934 . S
C298 C293 1.413 . S
C298 C297 1.403 . S
C298 H319 0.930 . S
C299 O310 1.275 . S
C299 O311 1.256 . S
O300 Ho280 2.322 . S
O300 C282 1.259 . S
O301 Ho281 2.346 . S
O301 C282 1.268 . S
O302 Ho280 2.378 . S
O302 C283 1.215 . S
O303 Ho280 2.524 . S
O303 C283 1.289 . S
O304 Ho280 2.381 . S
O304 C290 1.275 . S
O305 Ho280 2.669 . S
O305 Ho281 2.305 . S
O305 C290 1.256 . S
O306 Ho281 2.322 . S
O306 C291 1.259 . S
O307 Ho280 2.346 . S
O307 C291 1.268 . S
O308 Ho281 2.378 1_554 S
O308 C292 1.215 . S
O309 Ho281 2.524 1_554 S
O309 C292 1.289 . S
O310 Ho281 2.381 . S
O310 C299 1.275 . S
O311 Ho280 2.305 . S
O311 Ho281 2.669 . S
O311 C299 1.256 . S
H312 C285 0.930 . S
H313 C286 0.931 . S
H314 C288 0.934 . S
H315 C289 0.930 . S
H316 C294 0.930 . S
H317 C295 0.931 . S
H318 C297 0.934 . S
H319 C298 0.930 . S
Ho320 C323 2.811 . S
Ho320 O340 2.322 . S
Ho320 O342 2.378 . S
Ho320 O343 2.524 . S
Ho320 O344 2.381 . S
Ho320 O345 2.669 . S
Ho320 O347 2.346 . S
Ho320 O351 2.305 . S
Ho321 C332 2.811 . S
Ho321 O341 2.346 . S
Ho321 O345 2.305 . S
Ho321 O346 2.322 . S
Ho321 O348 2.378 . S
Ho321 O349 2.524 . S
Ho321 O350 2.381 . S
Ho321 O351 2.669 . S
C322 O340 1.259 . S
C322 O341 1.268 . S
C323 Ho320 2.811 . S
C323 C324 1.488 . S
C323 O342 1.215 . S
C323 O343 1.289 . S
C324 C323 1.488 . S
C324 C325 1.348 . S
C324 C329 1.413 . S
C325 C324 1.348 . S
C325 C326 1.442 . S
C325 H352 0.930 . S
C326 C325 1.442 . S
C326 C327 1.381 . S
C326 H353 0.931 . S
C327 C326 1.381 . S
C327 C328 1.321 . S
C328 C327 1.321 . S
C328 C329 1.403 . S
C328 H354 0.934 . S
C329 C324 1.413 . S
C329 C328 1.403 . S
C329 H355 0.930 . S
C330 O344 1.275 . S
C330 O345 1.256 . S
C331 O346 1.259 . S
C331 O347 1.268 . S
C332 Ho321 2.811 . S
C332 C333 1.488 . S
C332 O348 1.215 . S
C332 O349 1.289 . S
C333 C332 1.488 . S
C333 C334 1.348 . S
C333 C338 1.413 . S
C334 C333 1.348 . S
C334 C335 1.442 . S
C334 H356 0.930 . S
C335 C334 1.442 . S
C335 C336 1.381 . S
C335 H357 0.931 . S
C336 C335 1.381 . S
C336 C337 1.321 . S
C337 C336 1.321 . S
C337 C338 1.403 . S
C337 H358 0.934 . S
C338 C333 1.413 . S
C338 C337 1.403 . S
C338 H359 0.930 . S
C339 O350 1.275 . S
C339 O351 1.256 . S
O340 Ho320 2.322 . S
O340 C322 1.259 . S
O341 Ho321 2.346 . S
O341 C322 1.268 . S
O342 Ho320 2.378 . S
O342 C323 1.215 . S
O343 Ho320 2.524 . S
O343 C323 1.289 . S
O344 Ho320 2.381 . S
O344 C330 1.275 . S
O345 Ho320 2.669 . S
O345 Ho321 2.305 . S
O345 C330 1.256 . S
O346 Ho321 2.322 . S
O346 C331 1.259 . S
O347 Ho320 2.346 . S
O347 C331 1.268 . S
O348 Ho321 2.378 . S
O348 C332 1.215 . S
O349 Ho321 2.524 . S
O349 C332 1.289 . S
O350 Ho321 2.381 . S
O350 C339 1.275 . S
O351 Ho320 2.305 . S
O351 Ho321 2.669 . S
O351 C339 1.256 . S
H352 C325 0.930 . S
H353 C326 0.931 . S
H354 C328 0.934 . S
H355 C329 0.930 . S
H356 C334 0.930 . S
H357 C335 0.931 . S
H358 C337 0.934 . S
H359 C338 0.930 . S
Ho360 C363 2.811 . S
Ho360 O380 2.322 . S
Ho360 O382 2.378 . S
Ho360 O383 2.524 . S
Ho360 O384 2.381 . S
Ho360 O385 2.669 . S
Ho360 O387 2.346 . S
Ho360 O391 2.305 . S
Ho361 C372 2.811 . S
Ho361 O381 2.346 . S
Ho361 O385 2.305 . S
Ho361 O386 2.322 . S
Ho361 O388 2.378 . S
Ho361 O389 2.524 . S
Ho361 O390 2.381 . S
Ho361 O391 2.669 . S
C362 O380 1.259 . S
C362 O381 1.268 . S
C363 Ho360 2.811 . S
C363 C364 1.488 . S
C363 O382 1.215 . S
C363 O383 1.289 . S
C364 C363 1.488 . S
C364 C365 1.348 . S
C364 C369 1.413 . S
C365 C364 1.348 . S
C365 C366 1.442 . S
C365 H392 0.930 . S
C366 C365 1.442 . S
C366 C367 1.381 . S
C366 H393 0.931 . S
C367 C366 1.381 . S
C367 C368 1.321 . S
C368 C367 1.321 . S
C368 C369 1.403 . S
C368 H394 0.934 . S
C369 C364 1.413 . S
C369 C368 1.403 . S
C369 H395 0.930 . S
C370 O384 1.275 . S
C370 O385 1.256 . S
C371 O386 1.259 . S
C371 O387 1.268 . S
C372 Ho361 2.811 . S
C372 C373 1.488 . S
C372 O388 1.215 . S
C372 O389 1.289 . S
C373 C372 1.488 . S
C373 C374 1.348 . S
C373 C378 1.413 . S
C374 C373 1.348 . S
C374 C375 1.442 . S
C374 H396 0.930 . S
C375 C374 1.442 . S
C375 C376 1.381 . S
C375 H397 0.931 . S
C376 C375 1.381 . S
C376 C377 1.321 . S
C377 C376 1.321 . S
C377 C378 1.403 . S
C377 H398 0.934 . S
C378 C373 1.413 . S
C378 C377 1.403 . S
C378 H399 0.930 . S
C379 O390 1.275 . S
C379 O391 1.256 . S
O380 Ho360 2.322 . S
O380 C362 1.259 . S
O381 Ho361 2.346 . S
O381 C362 1.268 . S
O382 Ho360 2.378 . S
O382 C363 1.215 . S
O383 Ho360 2.524 . S
O383 C363 1.289 . S
O384 Ho360 2.381 . S
O384 C370 1.275 . S
O385 Ho360 2.669 . S
O385 Ho361 2.305 . S
O385 C370 1.256 . S
O386 Ho361 2.322 . S
O386 C371 1.259 . S
O387 Ho360 2.346 . S
O387 C371 1.268 . S
O388 Ho361 2.378 . S
O388 C372 1.215 . S
O389 Ho361 2.524 . S
O389 C372 1.289 . S
O390 Ho361 2.381 . S
O390 C379 1.275 . S
O391 Ho360 2.305 . S
O391 Ho361 2.669 . S
O391 C379 1.256 . S
H392 C365 0.930 . S
H393 C366 0.931 . S
H394 C368 0.934 . S
H395 C369 0.930 . S
H396 C374 0.930 . S
H397 C375 0.931 . S
H398 C377 0.934 . S
H399 C378 0.930 . S
Ho400 C403 2.811 . S
Ho400 O420 2.322 . S
Ho400 O422 2.378 . S
Ho400 O423 2.524 . S
Ho400 O424 2.381 . S
Ho400 O425 2.669 . S
Ho400 O427 2.346 . S
Ho400 O431 2.305 . S
Ho401 C412 2.811 . S
Ho401 O421 2.346 . S
Ho401 O425 2.305 . S
Ho401 O426 2.322 . S
Ho401 O428 2.378 . S
Ho401 O429 2.524 . S
Ho401 O430 2.381 . S
Ho401 O431 2.669 . S
C402 O420 1.259 . S
C402 O421 1.268 . S
C403 Ho400 2.811 . S
C403 C404 1.488 . S
C403 O422 1.215 . S
C403 O423 1.289 . S
C404 C403 1.488 . S
C404 C405 1.348 . S
C404 C409 1.413 . S
C405 C404 1.348 . S
C405 C406 1.442 . S
C405 H432 0.930 . S
C406 C405 1.442 . S
C406 C407 1.381 . S
C406 H433 0.931 . S
C407 C406 1.381 . S
C407 C408 1.321 . S
C408 C407 1.321 . S
C408 C409 1.403 . S
C408 H434 0.934 . S
C409 C404 1.413 . S
C409 C408 1.403 . S
C409 H435 0.930 . S
C410 O424 1.275 . S
C410 O425 1.256 . S
C411 O426 1.259 . S
C411 O427 1.268 . S
C412 Ho401 2.811 . S
C412 C413 1.488 . S
C412 O428 1.215 . S
C412 O429 1.289 . S
C413 C412 1.488 . S
C413 C414 1.348 . S
C413 C418 1.413 . S
C414 C413 1.348 . S
C414 C415 1.442 . S
C414 H436 0.930 . S
C415 C414 1.442 . S
C415 C416 1.381 . S
C415 H437 0.931 . S
C416 C415 1.381 . S
C416 C417 1.321 . S
C417 C416 1.321 . S
C417 C418 1.403 . S
C417 H438 0.934 . S
C418 C413 1.413 . S
C418 C417 1.403 . S
C418 H439 0.930 . S
C419 O430 1.275 . S
C419 O431 1.256 . S
O420 Ho400 2.322 . S
O420 C402 1.259 . S
O421 Ho401 2.346 . S
O421 C402 1.268 . S
O422 Ho400 2.378 . S
O422 C403 1.215 . S
O423 Ho400 2.524 . S
O423 C403 1.289 . S
O424 Ho400 2.381 . S
O424 C410 1.275 . S
O425 Ho400 2.669 . S
O425 Ho401 2.305 . S
O425 C410 1.256 . S
O426 Ho401 2.322 . S
O426 C411 1.259 . S
O427 Ho400 2.346 . S
O427 C411 1.268 . S
O428 Ho401 2.378 . S
O428 C412 1.215 . S
O429 Ho401 2.524 . S
O429 C412 1.289 . S
O430 Ho401 2.381 . S
O430 C419 1.275 . S
O431 Ho400 2.305 . S
O431 Ho401 2.669 . S
O431 C419 1.256 . S
H432 C405 0.930 . S
H433 C406 0.931 . S
H434 C408 0.934 . S
H435 C409 0.930 . S
H436 C414 0.930 . S
H437 C415 0.931 . S
H438 C417 0.934 . S
H439 C418 0.930 . S
Ho440 C443 2.811 . S
Ho440 O460 2.322 . S
Ho440 O462 2.378 . S
Ho440 O463 2.524 . S
Ho440 O464 2.381 . S
Ho440 O465 2.669 . S
Ho440 O467 2.346 . S
Ho440 O471 2.305 . S
Ho441 C452 2.811 . S
Ho441 O461 2.346 . S
Ho441 O465 2.305 . S
Ho441 O466 2.322 . S
Ho441 O468 2.378 . S
Ho441 O469 2.524 . S
Ho441 O470 2.381 . S
Ho441 O471 2.669 . S
C442 O460 1.259 . S
C442 O461 1.268 . S
C443 Ho440 2.811 . S
C443 C444 1.488 . S
C443 O462 1.215 . S
C443 O463 1.289 . S
C444 C443 1.488 . S
C444 C445 1.348 . S
C444 C449 1.413 . S
C445 C444 1.348 . S
C445 C446 1.442 . S
C445 H472 0.930 . S
C446 C445 1.442 . S
C446 C447 1.381 . S
C446 H473 0.931 . S
C447 C446 1.381 . S
C447 C448 1.321 . S
C448 C447 1.321 . S
C448 C449 1.403 . S
C448 H474 0.934 . S
C449 C444 1.413 . S
C449 C448 1.403 . S
C449 H475 0.930 . S
C450 O464 1.275 . S
C450 O465 1.256 . S
C451 O466 1.259 . S
C451 O467 1.268 . S
C452 Ho441 2.811 . S
C452 C453 1.488 . S
C452 O468 1.215 . S
C452 O469 1.289 . S
C453 C452 1.488 . S
C453 C454 1.348 . S
C453 C458 1.413 . S
C454 C453 1.348 . S
C454 C455 1.442 . S
C454 H476 0.930 . S
C455 C454 1.442 . S
C455 C456 1.381 . S
C455 H477 0.931 . S
C456 C455 1.381 . S
C456 C457 1.321 . S
C457 C456 1.321 . S
C457 C458 1.403 . S
C457 H478 0.934 . S
C458 C453 1.413 . S
C458 C457 1.403 . S
C458 H479 0.930 . S
C459 O470 1.275 . S
C459 O471 1.256 . S
O460 Ho440 2.322 . S
O460 C442 1.259 . S
O461 Ho441 2.346 . S
O461 C442 1.268 . S
O462 Ho440 2.378 . S
O462 C443 1.215 . S
O463 Ho440 2.524 . S
O463 C443 1.289 . S
O464 Ho440 2.381 . S
O464 C450 1.275 . S
O465 Ho440 2.669 . S
O465 Ho441 2.305 . S
O465 C450 1.256 . S
O466 Ho441 2.322 . S
O466 C451 1.259 . S
O467 Ho440 2.346 . S
O467 C451 1.268 . S
O468 Ho441 2.378 . S
O468 C452 1.215 . S
O469 Ho441 2.524 . S
O469 C452 1.289 . S
O470 Ho441 2.381 . S
O470 C459 1.275 . S
O471 Ho440 2.305 . S
O471 Ho441 2.669 . S
O471 C459 1.256 . S
H472 C445 0.930 . S
H473 C446 0.931 . S
H474 C448 0.934 . S
H475 C449 0.930 . S
H476 C454 0.930 . S
H477 C455 0.931 . S
H478 C457 0.934 . S
H479 C458 0.930 . S
Ho480 C483 2.811 . S
Ho480 O500 2.322 . S
Ho480 O502 2.378 . S
Ho480 O503 2.524 . S
Ho480 O504 2.381 . S
Ho480 O505 2.669 . S
Ho480 O507 2.346 . S
Ho480 O511 2.305 . S
Ho481 C492 2.811 . S
Ho481 O501 2.346 . S
Ho481 O505 2.305 . S
Ho481 O506 2.322 . S
Ho481 O508 2.378 . S
Ho481 O509 2.524 . S
Ho481 O510 2.381 . S
Ho481 O511 2.669 . S
C482 O500 1.259 . S
C482 O501 1.268 . S
C483 Ho480 2.811 . S
C483 C484 1.488 . S
C483 O502 1.215 . S
C483 O503 1.289 . S
C484 C483 1.488 . S
C484 C485 1.348 . S
C484 C489 1.413 . S
C485 C484 1.348 . S
C485 C486 1.442 . S
C485 H512 0.930 . S
C486 C485 1.442 . S
C486 C487 1.381 . S
C486 H513 0.931 . S
C487 C486 1.381 . S
C487 C488 1.321 . S
C488 C487 1.321 . S
C488 C489 1.403 . S
C488 H514 0.934 . S
C489 C484 1.413 . S
C489 C488 1.403 . S
C489 H515 0.930 . S
C490 O504 1.275 . S
C490 O505 1.256 . S
C491 O506 1.259 . S
C491 O507 1.268 . S
C492 Ho481 2.811 . S
C492 C493 1.488 . S
C492 O508 1.215 . S
C492 O509 1.289 . S
C493 C492 1.488 . S
C493 C494 1.348 . S
C493 C498 1.413 . S
C494 C493 1.348 . S
C494 C495 1.442 . S
C494 H516 0.930 . S
C495 C494 1.442 . S
C495 C496 1.381 . S
C495 H517 0.931 . S
C496 C495 1.381 . S
C496 C497 1.321 . S
C497 C496 1.321 . S
C497 C498 1.403 . S
C497 H518 0.934 . S
C498 C493 1.413 . S
C498 C497 1.403 . S
C498 H519 0.930 . S
C499 O510 1.275 . S
C499 O511 1.256 . S
O500 Ho480 2.322 . S
O500 C482 1.259 . S
O501 Ho481 2.346 . S
O501 C482 1.268 . S
O502 Ho480 2.378 . S
O502 C483 1.215 . S
O503 Ho480 2.524 . S
O503 C483 1.289 . S
O504 Ho480 2.381 . S
O504 C490 1.275 . S
O505 Ho480 2.669 . S
O505 Ho481 2.305 . S
O505 C490 1.256 . S
O506 Ho481 2.322 . S
O506 C491 1.259 . S
O507 Ho480 2.346 . S
O507 C491 1.268 . S
O508 Ho481 2.378 . S
O508 C492 1.215 . S
O509 Ho481 2.524 . S
O509 C492 1.289 . S
O510 Ho481 2.381 . S
O510 C499 1.275 . S
O511 Ho480 2.305 . S
O511 Ho481 2.669 . S
O511 C499 1.256 . S
H512 C485 0.930 . S
H513 C486 0.931 . S
H514 C488 0.934 . S
H515 C489 0.930 . S
H516 C494 0.930 . S
H517 C495 0.931 . S
H518 C497 0.934 . S
H519 C498 0.930 . S
Ho520 C523 2.811 . S
Ho520 O540 2.322 . S
Ho520 O542 2.378 . S
Ho520 O543 2.524 . S
Ho520 O544 2.381 . S
Ho520 O545 2.669 . S
Ho520 O547 2.346 . S
Ho520 O551 2.305 . S
Ho521 C532 2.811 . S
Ho521 O541 2.346 . S
Ho521 O545 2.305 . S
Ho521 O546 2.322 . S
Ho521 O548 2.378 . S
Ho521 O549 2.524 . S
Ho521 O550 2.381 . S
Ho521 O551 2.669 . S
C522 O540 1.259 . S
C522 O541 1.268 . S
C523 Ho520 2.811 . S
C523 C524 1.488 . S
C523 O542 1.215 . S
C523 O543 1.289 . S
C524 C523 1.488 . S
C524 C525 1.348 . S
C524 C529 1.413 . S
C525 C524 1.348 . S
C525 C526 1.442 . S
C525 H552 0.930 . S
C526 C525 1.442 . S
C526 C527 1.381 . S
C526 H553 0.931 . S
C527 C526 1.381 . S
C527 C528 1.321 . S
C528 C527 1.321 . S
C528 C529 1.403 . S
C528 H554 0.934 . S
C529 C524 1.413 . S
C529 C528 1.403 . S
C529 H555 0.930 . S
C530 O544 1.275 . S
C530 O545 1.256 . S
C531 O546 1.259 . S
C531 O547 1.268 . S
C532 Ho521 2.811 . S
C532 C533 1.488 . S
C532 O548 1.215 . S
C532 O549 1.289 . S
C533 C532 1.488 . S
C533 C534 1.348 . S
C533 C538 1.413 . S
C534 C533 1.348 . S
C534 C535 1.442 . S
C534 H556 0.930 . S
C535 C534 1.442 . S
C535 C536 1.381 . S
C535 H557 0.931 . S
C536 C535 1.381 . S
C536 C537 1.321 . S
C537 C536 1.321 . S
C537 C538 1.403 . S
C537 H558 0.934 . S
C538 C533 1.413 . S
C538 C537 1.403 . S
C538 H559 0.930 . S
C539 O550 1.275 . S
C539 O551 1.256 . S
O540 Ho520 2.322 . S
O540 C522 1.259 . S
O541 Ho521 2.346 . S
O541 C522 1.268 . S
O542 Ho520 2.378 . S
O542 C523 1.215 . S
O543 Ho520 2.524 . S
O543 C523 1.289 . S
O544 Ho520 2.381 . S
O544 C530 1.275 . S
O545 Ho520 2.669 . S
O545 Ho521 2.305 . S
O545 C530 1.256 . S
O546 Ho521 2.322 . S
O546 C531 1.259 . S
O547 Ho520 2.346 . S
O547 C531 1.268 . S
O548 Ho521 2.378 . S
O548 C532 1.215 . S
O549 Ho521 2.524 . S
O549 C532 1.289 . S
O550 Ho521 2.381 . S
O550 C539 1.275 . S
O551 Ho520 2.305 . S
O551 Ho521 2.669 . S
O551 C539 1.256 . S
H552 C525 0.930 . S
H553 C526 0.931 . S
H554 C528 0.934 . S
H555 C529 0.930 . S
H556 C534 0.930 . S
H557 C535 0.931 . S
H558 C537 0.934 . S
H559 C538 0.930 . S
Ho560 C563 2.811 . S
Ho560 O580 2.322 . S
Ho560 O582 2.378 . S
Ho560 O583 2.524 . S
Ho560 O584 2.381 . S
Ho560 O585 2.669 . S
Ho560 O587 2.346 . S
Ho560 O591 2.305 . S
Ho561 C572 2.811 . S
Ho561 O581 2.346 . S
Ho561 O585 2.305 . S
Ho561 O586 2.322 . S
Ho561 O588 2.378 . S
Ho561 O589 2.524 . S
Ho561 O590 2.381 . S
Ho561 O591 2.669 . S
C562 O580 1.259 . S
C562 O581 1.268 . S
C563 Ho560 2.811 . S
C563 C564 1.488 . S
C563 O582 1.215 . S
C563 O583 1.289 . S
C564 C563 1.488 . S
C564 C565 1.348 . S
C564 C569 1.413 . S
C565 C564 1.348 . S
C565 C566 1.442 . S
C565 H592 0.930 . S
C566 C565 1.442 . S
C566 C567 1.381 . S
C566 H593 0.931 . S
C567 C566 1.381 . S
C567 C568 1.321 . S
C568 C567 1.321 . S
C568 C569 1.403 . S
C568 H594 0.934 . S
C569 C564 1.413 . S
C569 C568 1.403 . S
C569 H595 0.930 . S
C570 O584 1.275 . S
C570 O585 1.256 . S
C571 O586 1.259 . S
C571 O587 1.268 . S
C572 Ho561 2.811 . S
C572 C573 1.488 . S
C572 O588 1.215 . S
C572 O589 1.289 . S
C573 C572 1.488 . S
C573 C574 1.348 . S
C573 C578 1.413 . S
C574 C573 1.348 . S
C574 C575 1.442 . S
C574 H596 0.930 . S
C575 C574 1.442 . S
C575 C576 1.381 . S
C575 H597 0.931 . S
C576 C575 1.381 . S
C576 C577 1.321 . S
C577 C576 1.321 . S
C577 C578 1.403 . S
C577 H598 0.934 . S
C578 C573 1.413 . S
C578 C577 1.403 . S
C578 H599 0.930 . S
C579 O590 1.275 . S
C579 O591 1.256 . S
O580 Ho560 2.322 . S
O580 C562 1.259 . S
O581 Ho561 2.346 . S
O581 C562 1.268 . S
O582 Ho560 2.378 . S
O582 C563 1.215 . S
O583 Ho560 2.524 . S
O583 C563 1.289 . S
O584 Ho560 2.381 . S
O584 C570 1.275 . S
O585 Ho560 2.669 . S
O585 Ho561 2.305 . S
O585 C570 1.256 . S
O586 Ho561 2.322 . S
O586 C571 1.259 . S
O587 Ho560 2.346 . S
O587 C571 1.268 . S
O588 Ho561 2.378 . S
O588 C572 1.215 . S
O589 Ho561 2.524 . S
O589 C572 1.289 . S
O590 Ho561 2.381 . S
O590 C579 1.275 . S
O591 Ho560 2.305 . S
O591 Ho561 2.669 . S
O591 C579 1.256 . S
H592 C565 0.930 . S
H593 C566 0.931 . S
H594 C568 0.934 . S
H595 C569 0.930 . S
H596 C574 0.930 . S
H597 C575 0.931 . S
H598 C577 0.934 . S
H599 C578 0.930 . S
Ho600 C603 2.811 . S
Ho600 O620 2.322 . S
Ho600 O622 2.378 . S
Ho600 O623 2.524 . S
Ho600 O624 2.381 . S
Ho600 O625 2.669 . S
Ho600 O627 2.346 . S
Ho600 O631 2.305 . S
Ho601 C612 2.811 . S
Ho601 O621 2.346 . S
Ho601 O625 2.305 . S
Ho601 O626 2.322 . S
Ho601 O628 2.378 . S
Ho601 O629 2.524 . S
Ho601 O630 2.381 . S
Ho601 O631 2.669 . S
C602 O620 1.259 . S
C602 O621 1.268 . S
C603 Ho600 2.811 . S
C603 C604 1.488 . S
C603 O622 1.215 . S
C603 O623 1.289 . S
C604 C603 1.488 . S
C604 C605 1.348 . S
C604 C609 1.413 . S
C605 C604 1.348 . S
C605 C606 1.442 . S
C605 H632 0.930 . S
C606 C605 1.442 . S
C606 C607 1.381 . S
C606 H633 0.931 . S
C607 C606 1.381 . S
C607 C608 1.321 . S
C608 C607 1.321 . S
C608 C609 1.403 . S
C608 H634 0.934 . S
C609 C604 1.413 . S
C609 C608 1.403 . S
C609 H635 0.930 . S
C610 O624 1.275 . S
C610 O625 1.256 . S
C611 O626 1.259 . S
C611 O627 1.268 . S
C612 Ho601 2.811 . S
C612 C613 1.488 . S
C612 O628 1.215 . S
C612 O629 1.289 . S
C613 C612 1.488 . S
C613 C614 1.348 . S
C613 C618 1.413 . S
C614 C613 1.348 . S
C614 C615 1.442 . S
C614 H636 0.930 . S
C615 C614 1.442 . S
C615 C616 1.381 . S
C615 H637 0.931 . S
C616 C615 1.381 . S
C616 C617 1.321 . S
C617 C616 1.321 . S
C617 C618 1.403 . S
C617 H638 0.934 . S
C618 C613 1.413 . S
C618 C617 1.403 . S
C618 H639 0.930 . S
C619 O630 1.275 . S
C619 O631 1.256 . S
O620 Ho600 2.322 . S
O620 C602 1.259 . S
O621 Ho601 2.346 . S
O621 C602 1.268 . S
O622 Ho600 2.378 . S
O622 C603 1.215 . S
O623 Ho600 2.524 . S
O623 C603 1.289 . S
O624 Ho600 2.381 . S
O624 C610 1.275 . S
O625 Ho600 2.669 . S
O625 Ho601 2.305 . S
O625 C610 1.256 . S
O626 Ho601 2.322 . S
O626 C611 1.259 . S
O627 Ho600 2.346 . S
O627 C611 1.268 . S
O628 Ho601 2.378 . S
O628 C612 1.215 . S
O629 Ho601 2.524 . S
O629 C612 1.289 . S
O630 Ho601 2.381 . S
O630 C619 1.275 . S
O631 Ho600 2.305 . S
O631 Ho601 2.669 . S
O631 C619 1.256 . S
H632 C605 0.930 . S
H633 C606 0.931 . S
H634 C608 0.934 . S
H635 C609 0.930 . S
H636 C614 0.930 . S
H637 C615 0.931 . S
H638 C617 0.934 . S
H639 C618 0.930 . S
H640 C646 0.930 . S
H641 C650 0.930 . S
H642 C655 0.929 . S
H643 C653 0.929 . S
H644 C648 0.929 . S
H645 C654 0.929 . S
C646 H640 0.930 . S
C646 C647 1.367 . S
C646 C654 1.378 . S
C647 C646 1.367 . S
C647 C655 1.433 . S
C648 H644 0.929 . S
C648 C650 1.378 1_565 S
C648 C652 1.350 . S
C649 C652 1.463 . S
C649 C654 1.350 . S
C649 N657 1.427 . S
C650 H641 0.930 . S
C650 C648 1.378 1_545 S
C650 C651 1.367 . S
C651 C650 1.367 . S
C651 C653 1.433 . S
C652 C648 1.350 . S
C652 C649 1.463 . S
C652 N656 1.427 1_565 S
C653 H643 0.929 . S
C653 C651 1.433 . S
C653 N656 1.384 . S
C654 H645 0.929 . S
C654 C646 1.378 . S
C654 C649 1.350 . S
C655 H642 0.929 . S
C655 C647 1.433 . S
C655 N657 1.384 . S
N656 C652 1.427 1_545 S
N656 C653 1.384 . S
N657 C649 1.427 . S
N657 C655 1.384 . S
H658 C664 0.930 . S
H659 C668 0.930 . S
H660 C673 0.929 . S
H661 C671 0.929 . S
H662 C666 0.929 . S
H663 C672 0.929 . S
C664 H658 0.930 . S
C664 C665 1.367 . S
C664 C672 1.378 . S
C665 C664 1.367 . S
C665 C673 1.433 . S
C666 H662 0.929 . S
C666 C668 1.378 . S
C666 C670 1.350 1_455 S
C667 C670 1.463 . S
C667 C672 1.350 . S
C667 N675 1.427 . S
C668 H659 0.930 . S
C668 C666 1.378 . S
C668 C669 1.367 . S
C669 C668 1.367 . S
C669 C671 1.433 . S
C670 C666 1.350 1_655 S
C670 C667 1.463 . S
C670 N674 1.427 . S
C671 H661 0.929 . S
C671 C669 1.433 . S
C671 N674 1.384 1_455 S
C672 H663 0.929 . S
C672 C664 1.378 . S
C672 C667 1.350 . S
C673 H660 0.929 . S
C673 C665 1.433 . S
C673 N675 1.384 . S
N674 C670 1.427 . S
N674 C671 1.384 1_655 S
N675 C667 1.427 . S
N675 C673 1.384 . S
H676 C682 0.930 . S
H677 C686 0.930 . S
H678 C691 0.929 . S
H679 C689 0.929 . S
H680 C684 0.929 . S
H681 C690 0.929 . S
C682 H676 0.930 . S
C682 C683 1.367 . S
C682 C690 1.378 . S
C683 C682 1.367 . S
C683 C691 1.433 . S
C684 H680 0.929 . S
C684 C686 1.378 . S
C684 C688 1.350 . S
C685 C688 1.463 . S
C685 C690 1.350 1_545 S
C685 N693 1.427 . S
C686 H677 0.930 . S
C686 C684 1.378 . S
C686 C687 1.367 . S
C687 C686 1.367 . S
C687 C689 1.433 . S
C688 C684 1.350 . S
C688 C685 1.463 . S
C688 N692 1.427 . S
C689 H679 0.929 . S
C689 C687 1.433 . S
C689 N692 1.384 . S
C690 H681 0.929 . S
C690 C682 1.378 . S
C690 C685 1.350 1_565 S
C691 H678 0.929 . S
C691 C683 1.433 . S
C691 N693 1.384 1_565 S
N692 C688 1.427 . S
N692 C689 1.384 . S
N693 C685 1.427 . S
N693 C691 1.384 1_545 S
H694 C700 0.930 . S
H695 C704 0.930 . S
H696 C709 0.929 . S
H697 C707 0.929 . S
H698 C702 0.929 . S
H699 C708 0.929 . S
C700 H694 0.930 . S
C700 C701 1.367 . S
C700 C708 1.378 . S
C701 C700 1.367 . S
C701 C709 1.433 . S
C702 H698 0.929 . S
C702 C704 1.378 . S
C702 C706 1.350 . S
C703 C706 1.463 . S
C703 C708 1.350 1_455 S
C703 N711 1.427 . S
C704 H695 0.930 . S
C704 C702 1.378 . S
C704 C705 1.367 . S
C705 C704 1.367 . S
C705 C707 1.433 . S
C706 C702 1.350 . S
C706 C703 1.463 . S
C706 N710 1.427 . S
C707 H697 0.929 . S
C707 C705 1.433 . S
C707 N710 1.384 . S
C708 H699 0.929 . S
C708 C700 1.378 . S
C708 C703 1.350 1_655 S
C709 H696 0.929 . S
C709 C701 1.433 . S
C709 N711 1.384 1_655 S
N710 C706 1.427 . S
N710 C707 1.384 . S
N711 C703 1.427 . S
N711 C709 1.384 1_455 S
H712 C718 0.930 . S
H713 C722 0.930 . S
H714 C727 0.929 . S
H715 C725 0.929 . S
H716 C720 0.928 1_554 S
H717 C726 0.929 . S
C718 H712 0.930 . S
C718 C719 1.367 . S
C718 C726 1.378 . S
C719 C718 1.367 . S
C719 C727 1.433 . S
C720 H716 0.928 1_556 S
C720 C722 1.379 . S
C720 C724 1.349 1_556 S
C721 C724 1.463 . S
C721 C726 1.350 . S
C721 N729 1.427 . S
C722 H713 0.930 . S
C722 C720 1.379 . S
C722 C723 1.367 . S
C723 C722 1.367 . S
C723 C725 1.433 . S
C724 C720 1.349 1_554 S
C724 C721 1.463 . S
C724 N728 1.427 . S
C725 H715 0.929 . S
C725 C723 1.433 . S
C725 N728 1.384 1_556 S
C726 H717 0.929 . S
C726 C718 1.378 . S
C726 C721 1.350 . S
C727 H714 0.929 . S
C727 C719 1.433 . S
C727 N729 1.384 . S
N728 C724 1.427 . S
N728 C725 1.384 1_554 S
N729 C721 1.427 . S
N729 C727 1.384 . S
H730 C736 0.930 . S
H731 C740 0.930 . S
H732 C745 0.929 . S
H733 C743 0.929 . S
H734 C738 0.929 . S
H735 C744 0.929 . S
C736 H730 0.930 . S
C736 C737 1.367 . S
C736 C744 1.378 . S
C737 C736 1.367 . S
C737 C745 1.433 1_554 S
C738 H734 0.929 . S
C738 C740 1.378 . S
C738 C742 1.350 . S
C739 C742 1.463 . S
C739 C744 1.350 1_556 S
C739 N747 1.427 . S
C740 H731 0.930 . S
C740 C738 1.378 . S
C740 C741 1.367 . S
C741 C740 1.367 . S
C741 C743 1.433 . S
C742 C738 1.350 . S
C742 C739 1.463 . S
C742 N746 1.427 . S
C743 H733 0.929 . S
C743 C741 1.433 . S
C743 N746 1.384 . S
C744 H735 0.929 . S
C744 C736 1.378 . S
C744 C739 1.350 1_554 S
C745 H732 0.929 . S
C745 C737 1.433 1_556 S
C745 N747 1.384 . S
N746 C742 1.427 . S
N746 C743 1.384 . S
N747 C739 1.427 . S
N747 C745 1.384 . S
H748 C754 0.930 . S
H749 C758 0.930 . S
H750 C763 0.929 . S
H751 C761 0.929 . S
H752 C756 0.929 . S
H753 C762 0.929 . S
C754 H748 0.930 . S
C754 C755 1.367 . S
C754 C762 1.378 . S
C755 C754 1.367 . S
C755 C763 1.433 . S
C756 H752 0.929 . S
C756 C758 1.378 . S
C756 C760 1.350 1_556 S
C757 C760 1.463 . S
C757 C762 1.350 . S
C757 N765 1.427 . S
C758 H749 0.930 . S
C758 C756 1.378 . S
C758 C759 1.367 . S
C759 C758 1.367 . S
C759 C761 1.433 1_556 S
C760 C756 1.350 1_554 S
C760 C757 1.463 . S
C760 N764 1.427 . S
C761 H751 0.929 . S
C761 C759 1.433 1_554 S
C761 N764 1.384 . S
C762 H753 0.929 . S
C762 C754 1.378 . S
C762 C757 1.350 . S
C763 H750 0.929 . S
C763 C755 1.433 . S
C763 N765 1.384 . S
N764 C760 1.427 . S
N764 C761 1.384 . S
N765 C757 1.427 . S
N765 C763 1.384 . S
H766 C772 0.930 . S
H767 C776 0.930 . S
H768 C781 0.929 . S
H769 C779 0.929 . S
H770 C774 0.929 . S
H771 C780 0.929 . S
C772 H766 0.930 . S
C772 C773 1.367 . S
C772 C780 1.378 . S
C773 C772 1.367 . S
C773 C781 1.433 1_554 S
C774 H770 0.929 . S
C774 C776 1.378 . S
C774 C778 1.350 . S
C775 C778 1.463 . S
C775 C780 1.350 1_556 S
C775 N783 1.427 . S
C776 H767 0.930 . S
C776 C774 1.378 . S
C776 C777 1.367 . S
C777 C776 1.367 . S
C777 C779 1.433 . S
C778 C774 1.350 . S
C778 C775 1.463 . S
C778 N782 1.427 . S
C779 H769 0.929 . S
C779 C777 1.433 . S
C779 N782 1.384 . S
C780 H771 0.929 . S
C780 C772 1.378 . S
C780 C775 1.350 1_554 S
C781 H768 0.929 . S
C781 C773 1.433 1_556 S
C781 N783 1.384 . S
N782 C778 1.427 . S
N782 C779 1.384 . S
N783 C775 1.427 . S
N783 C781 1.384 . S
H784 C790 0.930 . S
H785 C794 0.930 . S
H786 C799 0.929 . S
H787 C797 0.929 . S
H788 C792 0.929 . S
H789 C798 0.929 . S
C790 H784 0.930 . S
C790 C791 1.367 . S
C790 C798 1.378 . S
C791 C790 1.367 . S
C791 C799 1.433 . S
C792 H788 0.929 . S
C792 C794 1.378 . S
C792 C796 1.350 . S
C793 C796 1.463 . S
C793 C798 1.350 . S
C793 N801 1.427 . S
C794 H785 0.930 . S
C794 C792 1.378 . S
C794 C795 1.367 . S
C795 C794 1.367 . S
C795 C797 1.433 . S
C796 C792 1.350 . S
C796 C793 1.463 . S
C796 N800 1.427 . S
C797 H787 0.929 . S
C797 C795 1.433 . S
C797 N800 1.384 . S
C798 H789 0.929 . S
C798 C790 1.378 . S
C798 C793 1.350 . S
C799 H786 0.929 . S
C799 C791 1.433 . S
C799 N801 1.384 . S
N800 C796 1.427 . S
N800 C797 1.384 . S
N801 C793 1.427 . S
N801 C799 1.384 . S
H802 C808 0.930 . S
H803 C812 0.930 . S
H804 C817 0.929 . S
H805 C815 0.929 . S
H806 C810 0.929 . S
H807 C816 0.929 . S
C808 H802 0.930 . S
C808 C809 1.367 . S
C808 C816 1.378 . S
C809 C808 1.367 . S
C809 C817 1.433 . S
C810 H806 0.929 . S
C810 C812 1.378 . S
C810 C814 1.350 . S
C811 C814 1.463 . S
C811 C816 1.350 . S
C811 N819 1.427 . S
C812 H803 0.930 . S
C812 C810 1.378 . S
C812 C813 1.367 . S
C813 C812 1.367 . S
C813 C815 1.433 . S
C814 C810 1.350 . S
C814 C811 1.463 . S
C814 N818 1.427 . S
C815 H805 0.929 . S
C815 C813 1.433 . S
C815 N818 1.384 . S
C816 H807 0.929 . S
C816 C808 1.378 . S
C816 C811 1.350 . S
C817 H804 0.929 . S
C817 C809 1.433 . S
C817 N819 1.384 . S
N818 C814 1.427 . S
N818 C815 1.384 . S
N819 C811 1.427 . S
N819 C817 1.384 . S
H820 C826 0.930 . S
H821 C830 0.930 . S
H822 C835 0.929 . S
H823 C833 0.929 . S
H824 C828 0.929 . S
H825 C834 0.929 . S
C826 H820 0.930 . S
C826 C827 1.367 . S
C826 C834 1.378 . S
C827 C826 1.367 . S
C827 C835 1.433 . S
C828 H824 0.929 . S
C828 C830 1.378 . S
C828 C832 1.350 . S
C829 C832 1.463 . S
C829 C834 1.350 . S
C829 N837 1.427 . S
C830 H821 0.930 . S
C830 C828 1.378 . S
C830 C831 1.367 . S
C831 C830 1.367 . S
C831 C833 1.433 . S
C832 C828 1.350 . S
C832 C829 1.463 . S
C832 N836 1.427 . S
C833 H823 0.929 . S
C833 C831 1.433 . S
C833 N836 1.384 . S
C834 H825 0.929 . S
C834 C826 1.378 . S
C834 C829 1.350 . S
C835 H822 0.929 . S
C835 C827 1.433 . S
C835 N837 1.384 . S
N836 C832 1.427 . S
N836 C833 1.384 . S
N837 C829 1.427 . S
N837 C835 1.384 . S
H838 C844 0.930 . S
H839 C848 0.930 . S
H840 C853 0.929 . S
H841 C851 0.929 . S
H842 C846 0.929 . S
H843 C852 0.929 . S
C844 H838 0.930 . S
C844 C845 1.367 . S
C844 C852 1.378 . S
C845 C844 1.367 . S
C845 C853 1.433 . S
C846 H842 0.929 . S
C846 C848 1.378 . S
C846 C850 1.350 . S
C847 C850 1.463 . S
C847 C852 1.350 . S
C847 N855 1.427 . S
C848 H839 0.930 . S
C848 C846 1.378 . S
C848 C849 1.367 . S
C849 C848 1.367 . S
C849 C851 1.433 . S
C850 C846 1.350 . S
C850 C847 1.463 . S
C850 N854 1.427 . S
C851 H841 0.929 . S
C851 C849 1.433 . S
C851 N854 1.384 . S
C852 H843 0.929 . S
C852 C844 1.378 . S
C852 C847 1.350 . S
C853 H840 0.929 . S
C853 C845 1.433 . S
C853 N855 1.384 . S
N854 C850 1.427 . S
N854 C851 1.384 . S
N855 C847 1.427 . S
N855 C853 1.384 . S
H856 C862 0.930 . S
H857 C866 0.930 . S
H858 C871 0.929 . S
H859 C869 0.929 . S
H860 C864 0.929 . S
H861 C870 0.929 . S
C862 H856 0.930 . S
C862 C863 1.367 . S
C862 C870 1.378 . S
C863 C862 1.367 . S
C863 C871 1.433 . S
C864 H860 0.929 . S
C864 C866 1.378 . S
C864 C868 1.350 . S
C865 C868 1.463 . S
C865 C870 1.350 1_545 S
C865 N873 1.427 . S
C866 H857 0.930 . S
C866 C864 1.378 . S
C866 C867 1.367 . S
C867 C866 1.367 . S
C867 C869 1.433 . S
C868 C864 1.350 . S
C868 C865 1.463 . S
C868 N872 1.427 . S
C869 H859 0.929 . S
C869 C867 1.433 . S
C869 N872 1.384 . S
C870 H861 0.929 . S
C870 C862 1.378 . S
C870 C865 1.350 1_565 S
C871 H858 0.929 . S
C871 C863 1.433 . S
C871 N873 1.384 1_565 S
N872 C868 1.427 . S
N872 C869 1.384 . S
N873 C865 1.427 . S
N873 C871 1.384 1_545 S
H874 C880 0.930 . S
H875 C884 0.930 . S
H876 C889 0.929 . S
H877 C887 0.929 . S
H878 C882 0.929 . S
H879 C888 0.929 . S
C880 H874 0.930 . S
C880 C881 1.367 . S
C880 C888 1.378 . S
C881 C880 1.367 . S
C881 C889 1.433 . S
C882 H878 0.929 . S
C882 C884 1.378 1_455 S
C882 C886 1.350 . S
C883 C886 1.463 . S
C883 C888 1.350 . S
C883 N891 1.427 . S
C884 H875 0.930 . S
C884 C882 1.378 1_655 S
C884 C885 1.367 . S
C885 C884 1.367 . S
C885 C887 1.433 . S
C886 C882 1.350 . S
C886 C883 1.463 . S
C886 N890 1.427 1_455 S
C887 H877 0.929 . S
C887 C885 1.433 . S
C887 N890 1.384 . S
C888 H879 0.929 . S
C888 C880 1.378 . S
C888 C883 1.350 . S
C889 H876 0.929 . S
C889 C881 1.433 . S
C889 N891 1.384 . S
N890 C886 1.427 1_655 S
N890 C887 1.384 . S
N891 C883 1.427 . S
N891 C889 1.384 . S
H892 C898 0.930 . S
H893 C902 0.930 . S
H894 C907 0.929 . S
H895 C905 0.929 . S
H896 C900 0.929 . S
H897 C906 0.929 . S
C898 H892 0.930 . S
C898 C899 1.367 . S
C898 C906 1.378 . S
C899 C898 1.367 . S
C899 C907 1.433 . S
C900 H896 0.929 . S
C900 C902 1.378 . S
C900 C904 1.350 1_545 S
C901 C904 1.463 . S
C901 C906 1.350 . S
C901 N909 1.427 . S
C902 H893 0.930 . S
C902 C900 1.378 . S
C902 C903 1.367 . S
C903 C902 1.367 . S
C903 C905 1.433 . S
C904 C900 1.350 1_565 S
C904 C901 1.463 . S
C904 N908 1.427 . S
C905 H895 0.929 . S
C905 C903 1.433 . S
C905 N908 1.384 1_545 S
C906 H897 0.929 . S
C906 C898 1.378 . S
C906 C901 1.350 . S
C907 H894 0.929 . S
C907 C899 1.433 . S
C907 N909 1.384 . S
N908 C904 1.427 . S
N908 C905 1.384 1_565 S
N909 C901 1.427 . S
N909 C907 1.384 . S
H910 C916 0.930 . S
H911 C920 0.930 . S
H912 C925 0.929 . S
H913 C923 0.929 . S
H914 C918 0.929 . S
H915 C924 0.929 . S
C916 H910 0.930 . S
C916 C917 1.367 . S
C916 C924 1.378 . S
C917 C916 1.367 . S
C917 C925 1.433 . S
C918 H914 0.929 . S
C918 C920 1.378 . S
C918 C922 1.350 . S
C919 C922 1.463 . S
C919 C924 1.350 1_655 S
C919 N927 1.427 . S
C920 H911 0.930 . S
C920 C918 1.378 . S
C920 C921 1.367 . S
C921 C920 1.367 . S
C921 C923 1.433 . S
C922 C918 1.350 . S
C922 C919 1.463 . S
C922 N926 1.427 . S
C923 H913 0.929 . S
C923 C921 1.433 . S
C923 N926 1.384 . S
C924 H915 0.929 . S
C924 C916 1.378 . S
C924 C919 1.350 1_455 S
C925 H912 0.929 . S
C925 C917 1.433 . S
C925 N927 1.384 1_455 S
N926 C922 1.427 . S
N926 C923 1.384 . S
N927 C919 1.427 . S
N927 C925 1.384 1_655 S
H928 C934 0.930 . S
H929 C938 0.930 . S
H930 C943 0.929 . S
H931 C941 0.929 . S
H932 C936 0.929 . S
H933 C942 0.929 . S
C934 H928 0.930 . S
C934 C935 1.367 . S
C934 C942 1.378 . S
C935 C934 1.367 . S
C935 C943 1.433 . S
C936 H932 0.929 . S
C936 C938 1.378 . S
C936 C940 1.350 . S
C937 C940 1.463 . S
C937 C942 1.350 . S
C937 N945 1.427 . S
C938 H929 0.930 . S
C938 C936 1.378 . S
C938 C939 1.367 . S
C939 C938 1.367 . S
C939 C941 1.433 . S
C940 C936 1.350 . S
C940 C937 1.463 . S
C940 N944 1.427 . S
C941 H931 0.929 . S
C941 C939 1.433 . S
C941 N944 1.384 . S
C942 H933 0.929 . S
C942 C934 1.378 . S
C942 C937 1.350 . S
C943 H930 0.929 . S
C943 C935 1.433 . S
C943 N945 1.384 . S
N944 C940 1.427 . S
N944 C941 1.384 . S
N945 C937 1.427 . S
N945 C943 1.384 . S
H946 C952 0.930 . S
H947 C956 0.930 . S
H948 C961 0.929 . S
H949 C959 0.929 . S
H950 C954 0.929 . S
H951 C960 0.929 . S
C952 H946 0.930 . S
C952 C953 1.367 . S
C952 C960 1.378 . S
C953 C952 1.367 . S
C953 C961 1.433 . S
C954 H950 0.929 . S
C954 C956 1.378 . S
C954 C958 1.350 . S
C955 C958 1.463 . S
C955 C960 1.350 . S
C955 N963 1.427 . S
C956 H947 0.930 . S
C956 C954 1.378 . S
C956 C957 1.367 . S
C957 C956 1.367 . S
C957 C959 1.433 . S
C958 C954 1.350 . S
C958 C955 1.463 . S
C958 N962 1.427 . S
C959 H949 0.929 . S
C959 C957 1.433 . S
C959 N962 1.384 . S
C960 H951 0.929 . S
C960 C952 1.378 . S
C960 C955 1.350 . S
C961 H948 0.929 . S
C961 C953 1.433 . S
C961 N963 1.384 . S
N962 C958 1.427 . S
N962 C959 1.384 . S
N963 C955 1.427 . S
N963 C961 1.384 . S
H964 C970 0.930 . S
H965 C974 0.930 . S
H966 C979 0.929 . S
H967 C977 0.929 . S
H968 C972 0.929 . S
H969 C978 0.929 . S
C970 H964 0.930 . S
C970 C971 1.367 . S
C970 C978 1.378 . S
C971 C970 1.367 . S
C971 C979 1.433 . S
C972 H968 0.929 . S
C972 C974 1.378 . S
C972 C976 1.350 . S
C973 C976 1.463 . S
C973 C978 1.350 . S
C973 N981 1.427 . S
C974 H965 0.930 . S
C974 C972 1.378 . S
C974 C975 1.367 . S
C975 C974 1.367 . S
C975 C977 1.433 . S
C976 C972 1.350 . S
C976 C973 1.463 . S
C976 N980 1.427 . S
C977 H967 0.929 . S
C977 C975 1.433 . S
C977 N980 1.384 . S
C978 H969 0.929 . S
C978 C970 1.378 . S
C978 C973 1.350 . S
C979 H966 0.929 . S
C979 C971 1.433 . S
C979 N981 1.384 . S
N980 C976 1.427 . S
N980 C977 1.384 . S
N981 C973 1.427 . S
N981 C979 1.384 . S
H982 C988 0.930 . S
H983 C992 0.930 . S
H984 C997 0.929 . S
H985 C995 0.929 . S
H986 C990 0.929 . S
H987 C996 0.929 . S
C988 H982 0.930 . S
C988 C989 1.367 . S
C988 C996 1.378 . S
C989 C988 1.367 . S
C989 C997 1.433 . S
C990 H986 0.929 . S
C990 C992 1.378 . S
C990 C994 1.350 . S
C991 C994 1.463 . S
C991 C996 1.350 . S
C991 N999 1.427 . S
C992 H983 0.930 . S
C992 C990 1.378 . S
C992 C993 1.367 . S
C993 C992 1.367 . S
C993 C995 1.433 . S
C994 C990 1.350 . S
C994 C991 1.463 . S
C994 N998 1.427 . S
C995 H985 0.929 . S
C995 C993 1.433 . S
C995 N998 1.384 . S
C996 H987 0.929 . S
C996 C988 1.378 . S
C996 C991 1.350 . S
C997 H984 0.929 . S
C997 C989 1.433 . S
C997 N999 1.384 . S
N998 C994 1.427 . S
N998 C995 1.384 . S
N999 C991 1.427 . S
N999 C997 1.384 . S
H1000 C1006 0.930 . S
H1001 C1010 0.930 . S
H1002 C1015 0.929 . S
H1003 C1013 0.929 . S
H1004 C1008 0.929 . S
H1005 C1014 0.929 . S
C1006 H1000 0.930 . S
C1006 C1007 1.367 . S
C1006 C1014 1.378 . S
C1007 C1006 1.367 . S
C1007 C1015 1.433 . S
C1008 H1004 0.929 . S
C1008 C1010 1.378 . S
C1008 C1012 1.350 . S
C1009 C1012 1.463 . S
C1009 C1014 1.350 . S
C1009 N1017 1.427 . S
C1010 H1001 0.930 . S
C1010 C1008 1.378 . S
C1010 C1011 1.367 . S
C1011 C1010 1.367 . S
C1011 C1013 1.433 . S
C1012 C1008 1.350 . S
C1012 C1009 1.463 . S
C1012 N1016 1.427 . S
C1013 H1003 0.929 . S
C1013 C1011 1.433 . S
C1013 N1016 1.384 . S
C1014 H1005 0.929 . S
C1014 C1006 1.378 . S
C1014 C1009 1.350 . S
C1015 H1002 0.929 . S
C1015 C1007 1.433 . S
C1015 N1017 1.384 . S
N1016 C1012 1.427 . S
N1016 C1013 1.384 . S
N1017 C1009 1.427 . S
N1017 C1015 1.384 . S
H1018 C1024 0.930 . S
H1019 C1028 0.930 . S
H1020 C1033 0.929 . S
H1021 C1031 0.929 . S
H1022 C1026 0.929 . S
H1023 C1032 0.929 . S
C1024 H1018 0.930 . S
C1024 C1025 1.367 . S
C1024 C1032 1.378 . S
C1025 C1024 1.367 . S
C1025 C1033 1.433 . S
C1026 H1022 0.929 . S
C1026 C1028 1.378 . S
C1026 C1030 1.350 . S
C1027 C1030 1.463 . S
C1027 C1032 1.350 . S
C1027 N1035 1.427 . S
C1028 H1019 0.930 . S
C1028 C1026 1.378 . S
C1028 C1029 1.367 . S
C1029 C1028 1.367 . S
C1029 C1031 1.433 . S
C1030 C1026 1.350 . S
C1030 C1027 1.463 . S
C1030 N1034 1.427 . S
C1031 H1021 0.929 . S
C1031 C1029 1.433 . S
C1031 N1034 1.384 . S
C1032 H1023 0.929 . S
C1032 C1024 1.378 . S
C1032 C1027 1.350 . S
C1033 H1020 0.929 . S
C1033 C1025 1.433 . S
C1033 N1035 1.384 . S
N1034 C1030 1.427 . S
N1034 C1031 1.384 . S
N1035 C1027 1.427 . S
N1035 C1033 1.384 . S
H1036 C1042 0.930 . S
H1037 C1046 0.930 . S
H1038 C1051 0.929 . S
H1039 C1049 0.929 . S
H1040 C1044 0.929 . S
H1041 C1050 0.929 . S
C1042 H1036 0.930 . S
C1042 C1043 1.367 . S
C1042 C1050 1.378 . S
C1043 C1042 1.367 . S
C1043 C1051 1.433 . S
C1044 H1040 0.929 . S
C1044 C1046 1.378 . S
C1044 C1048 1.350 . S
C1045 C1048 1.463 . S
C1045 C1050 1.350 . S
C1045 N1053 1.427 . S
C1046 H1037 0.930 . S
C1046 C1044 1.378 . S
C1046 C1047 1.367 . S
C1047 C1046 1.367 . S
C1047 C1049 1.433 . S
C1048 C1044 1.350 . S
C1048 C1045 1.463 . S
C1048 N1052 1.427 . S
C1049 H1039 0.929 . S
C1049 C1047 1.433 . S
C1049 N1052 1.384 . S
C1050 H1041 0.929 . S
C1050 C1042 1.378 . S
C1050 C1045 1.350 . S
C1051 H1038 0.929 . S
C1051 C1043 1.433 . S
C1051 N1053 1.384 . S
N1052 C1048 1.427 . S
N1052 C1049 1.384 . S
N1053 C1045 1.427 . S
N1053 C1051 1.384 . S
H1054 C1060 0.930 . S
H1055 C1064 0.930 . S
H1056 C1069 0.929 . S
H1057 C1067 0.929 . S
H1058 C1062 0.929 . S
H1059 C1068 0.929 . S
C1060 H1054 0.930 . S
C1060 C1061 1.367 . S
C1060 C1068 1.378 . S
C1061 C1060 1.367 . S
C1061 C1069 1.433 . S
C1062 H1058 0.929 . S
C1062 C1064 1.378 . S
C1062 C1066 1.350 . S
C1063 C1066 1.463 . S
C1063 C1068 1.350 . S
C1063 N1071 1.427 . S
C1064 H1055 0.930 . S
C1064 C1062 1.378 . S
C1064 C1065 1.367 . S
C1065 C1064 1.367 . S
C1065 C1067 1.433 . S
C1066 C1062 1.350 . S
C1066 C1063 1.463 . S
C1066 N1070 1.427 . S
C1067 H1057 0.929 . S
C1067 C1065 1.433 . S
C1067 N1070 1.384 . S
C1068 H1059 0.929 . S
C1068 C1060 1.378 . S
C1068 C1063 1.350 . S
C1069 H1056 0.929 . S
C1069 C1061 1.433 . S
C1069 N1071 1.384 . S
N1070 C1066 1.427 . S
N1070 C1067 1.384 . S
N1071 C1063 1.427 . S
N1071 C1069 1.384 . S
H1072 C1078 0.930 . S
H1073 C1082 0.930 1_554 S
H1074 C1087 0.929 . S
H1075 C1085 0.929 . S
H1076 C1080 0.929 . S
H1077 C1086 0.929 . S
C1078 H1072 0.930 . S
C1078 C1079 1.367 . S
C1078 C1086 1.378 . S
C1079 C1078 1.367 . S
C1079 C1087 1.433 . S
C1080 H1076 0.929 . S
C1080 C1082 1.378 . S
C1080 C1084 1.350 . S
C1081 C1084 1.463 . S
C1081 C1086 1.350 . S
C1081 N1089 1.427 . S
C1082 H1073 0.930 1_556 S
C1082 C1080 1.378 . S
C1082 C1083 1.367 . S
C1083 C1082 1.367 . S
C1083 C1085 1.433 . S
C1084 C1080 1.350 . S
C1084 C1081 1.463 . S
C1084 N1088 1.427 . S
C1085 H1075 0.929 . S
C1085 C1083 1.433 . S
C1085 N1088 1.384 . S
C1086 H1077 0.929 . S
C1086 C1078 1.378 . S
C1086 C1081 1.350 . S
C1087 H1074 0.929 . S
C1087 C1079 1.433 . S
C1087 N1089 1.384 . S
N1088 C1084 1.427 . S
N1088 C1085 1.384 . S
N1089 C1081 1.427 . S
N1089 C1087 1.384 . S
H1090 C1096 0.930 . S
H1091 C1100 0.930 . S
H1092 C1105 0.929 1_556 S
H1093 C1103 0.929 . S
H1094 C1098 0.929 . S
H1095 C1104 0.929 . S
C1096 H1090 0.930 . S
C1096 C1097 1.367 . S
C1096 C1104 1.378 . S
C1097 C1096 1.367 . S
C1097 C1105 1.433 . S
C1098 H1094 0.929 . S
C1098 C1100 1.378 . S
C1098 C1102 1.350 . S
C1099 C1102 1.463 . S
C1099 C1104 1.350 . S
C1099 N1107 1.427 . S
C1100 H1091 0.930 . S
C1100 C1098 1.378 . S
C1100 C1101 1.367 . S
C1101 C1100 1.367 . S
C1101 C1103 1.433 . S
C1102 C1098 1.350 . S
C1102 C1099 1.463 . S
C1102 N1106 1.427 . S
C1103 H1093 0.929 . S
C1103 C1101 1.433 . S
C1103 N1106 1.384 . S
C1104 H1095 0.929 . S
C1104 C1096 1.378 . S
C1104 C1099 1.350 . S
C1105 H1092 0.929 1_554 S
C1105 C1097 1.433 . S
C1105 N1107 1.384 . S
N1106 C1102 1.427 . S
N1106 C1103 1.384 . S
N1107 C1099 1.427 . S
N1107 C1105 1.384 . S
H1108 C1114 0.930 . S
H1109 C1118 0.930 . S
H1110 C1123 0.929 . S
H1111 C1121 0.929 . S
H1112 C1116 0.929 . S
H1113 C1122 0.929 . S
C1114 H1108 0.930 . S
C1114 C1115 1.367 . S
C1114 C1122 1.378 . S
C1115 C1114 1.367 . S
C1115 C1123 1.433 . S
C1116 H1112 0.929 . S
C1116 C1118 1.378 . S
C1116 C1120 1.350 . S
C1117 C1120 1.463 . S
C1117 C1122 1.350 . S
C1117 N1125 1.427 . S
C1118 H1109 0.930 . S
C1118 C1116 1.378 . S
C1118 C1119 1.367 . S
C1119 C1118 1.367 . S
C1119 C1121 1.433 . S
C1120 C1116 1.350 . S
C1120 C1117 1.463 . S
C1120 N1124 1.427 . S
C1121 H1111 0.929 . S
C1121 C1119 1.433 . S
C1121 N1124 1.384 . S
C1122 H1113 0.929 . S
C1122 C1114 1.378 . S
C1122 C1117 1.350 . S
C1123 H1110 0.929 . S
C1123 C1115 1.433 . S
C1123 N1125 1.384 . S
N1124 C1120 1.427 . S
N1124 C1121 1.384 . S
N1125 C1117 1.427 . S
N1125 C1123 1.384 . S
H1126 C1132 0.930 . S
H1127 C1136 0.930 . S
H1128 C1141 0.929 . S
H1129 C1139 0.929 . S
H1130 C1134 0.929 . S
H1131 C1140 0.929 . S
C1132 H1126 0.930 . S
C1132 C1133 1.367 . S
C1132 C1140 1.378 . S
C1133 C1132 1.367 . S
C1133 C1141 1.433 . S
C1134 H1130 0.929 . S
C1134 C1136 1.378 . S
C1134 C1138 1.350 . S
C1135 C1138 1.463 . S
C1135 C1140 1.350 . S
C1135 N1143 1.427 . S
C1136 H1127 0.930 . S
C1136 C1134 1.378 . S
C1136 C1137 1.367 . S
C1137 C1136 1.367 . S
C1137 C1139 1.433 . S
C1138 C1134 1.350 . S
C1138 C1135 1.463 . S
C1138 N1142 1.427 . S
C1139 H1129 0.929 . S
C1139 C1137 1.433 . S
C1139 N1142 1.384 . S
C1140 H1131 0.929 . S
C1140 C1132 1.378 . S
C1140 C1135 1.350 . S
C1141 H1128 0.929 . S
C1141 C1133 1.433 . S
C1141 N1143 1.384 . S
N1142 C1138 1.427 . S
N1142 C1139 1.384 . S
N1143 C1135 1.427 . S
N1143 C1141 1.384 . S
H1144 C1150 0.930 . S
H1145 C1154 0.930 . S
H1146 C1159 0.929 . S
H1147 C1157 0.929 . S
H1148 C1152 0.929 . S
H1149 C1158 0.929 . S
C1150 H1144 0.930 . S
C1150 C1151 1.367 . S
C1150 C1158 1.378 . S
C1151 C1150 1.367 . S
C1151 C1159 1.433 . S
C1152 H1148 0.929 . S
C1152 C1154 1.378 . S
C1152 C1156 1.350 . S
C1153 C1156 1.463 . S
C1153 C1158 1.350 . S
C1153 N1161 1.427 . S
C1154 H1145 0.930 . S
C1154 C1152 1.378 . S
C1154 C1155 1.367 . S
C1155 C1154 1.367 . S
C1155 C1157 1.433 . S
C1156 C1152 1.350 . S
C1156 C1153 1.463 . S
C1156 N1160 1.427 . S
C1157 H1147 0.929 . S
C1157 C1155 1.433 . S
C1157 N1160 1.384 . S
C1158 H1149 0.929 . S
C1158 C1150 1.378 . S
C1158 C1153 1.350 . S
C1159 H1146 0.929 . S
C1159 C1151 1.433 . S
C1159 N1161 1.384 . S
N1160 C1156 1.427 . S
N1160 C1157 1.384 . S
N1161 C1153 1.427 . S
N1161 C1159 1.384 . S
H1162 C1168 0.930 . S
H1163 C1172 0.930 . S
H1164 C1177 0.929 . S
H1165 C1175 0.929 . S
H1166 C1170 0.929 . S
H1167 C1176 0.929 . S
C1168 H1162 0.930 . S
C1168 C1169 1.367 . S
C1168 C1176 1.378 . S
C1169 C1168 1.367 . S
C1169 C1177 1.433 . S
C1170 H1166 0.929 . S
C1170 C1172 1.378 . S
C1170 C1174 1.350 . S
C1171 C1174 1.463 . S
C1171 C1176 1.350 . S
C1171 N1179 1.427 . S
C1172 H1163 0.930 . S
C1172 C1170 1.378 . S
C1172 C1173 1.367 . S
C1173 C1172 1.367 . S
C1173 C1175 1.433 . S
C1174 C1170 1.350 . S
C1174 C1171 1.463 . S
C1174 N1178 1.427 . S
C1175 H1165 0.929 . S
C1175 C1173 1.433 . S
C1175 N1178 1.384 . S
C1176 H1167 0.929 . S
C1176 C1168 1.378 . S
C1176 C1171 1.350 . S
C1177 H1164 0.929 . S
C1177 C1169 1.433 . S
C1177 N1179 1.384 . S
N1178 C1174 1.427 . S
N1178 C1175 1.384 . S
N1179 C1171 1.427 . S
N1179 C1177 1.384 . S
H1180 C1186 0.930 . S
H1181 C1190 0.930 . S
H1182 C1195 0.929 . S
H1183 C1193 0.929 . S
H1184 C1188 0.929 . S
H1185 C1194 0.929 . S
C1186 H1180 0.930 . S
C1186 C1187 1.367 . S
C1186 C1194 1.378 . S
C1187 C1186 1.367 . S
C1187 C1195 1.433 . S
C1188 H1184 0.929 . S
C1188 C1190 1.378 . S
C1188 C1192 1.350 . S
C1189 C1192 1.463 . S
C1189 C1194 1.350 . S
C1189 N1197 1.427 . S
C1190 H1181 0.930 . S
C1190 C1188 1.378 . S
C1190 C1191 1.367 . S
C1191 C1190 1.367 . S
C1191 C1193 1.433 . S
C1192 C1188 1.350 . S
C1192 C1189 1.463 . S
C1192 N1196 1.427 . S
C1193 H1183 0.929 . S
C1193 C1191 1.433 . S
C1193 N1196 1.384 . S
C1194 H1185 0.929 . S
C1194 C1186 1.378 . S
C1194 C1189 1.350 . S
C1195 H1182 0.929 . S
C1195 C1187 1.433 . S
C1195 N1197 1.384 . S
N1196 C1192 1.427 . S
N1196 C1193 1.384 . S
N1197 C1189 1.427 . S
N1197 C1195 1.384 . S
H1198 C1204 0.930 . S
H1199 C1208 0.930 . S
H1200 C1213 0.929 . S
H1201 C1211 0.929 . S
H1202 C1206 0.929 . S
H1203 C1212 0.929 . S
C1204 H1198 0.930 . S
C1204 C1205 1.367 . S
C1204 C1212 1.378 . S
C1205 C1204 1.367 . S
C1205 C1213 1.433 . S
C1206 H1202 0.929 . S
C1206 C1208 1.378 . S
C1206 C1210 1.350 . S
C1207 C1210 1.463 . S
C1207 C1212 1.350 . S
C1207 N1215 1.427 . S
C1208 H1199 0.930 . S
C1208 C1206 1.378 . S
C1208 C1209 1.367 . S
C1209 C1208 1.367 . S
C1209 C1211 1.433 . S
C1210 C1206 1.350 . S
C1210 C1207 1.463 . S
C1210 N1214 1.427 . S
C1211 H1201 0.929 . S
C1211 C1209 1.433 . S
C1211 N1214 1.384 . S
C1212 H1203 0.929 . S
C1212 C1204 1.378 . S
C1212 C1207 1.350 . S
C1213 H1200 0.929 . S
C1213 C1205 1.433 . S
C1213 N1215 1.384 . S
N1214 C1210 1.427 . S
N1214 C1211 1.384 . S
N1215 C1207 1.427 . S
N1215 C1213 1.384 . S
H1216 C1222 0.930 . S
H1217 C1226 0.930 . S
H1218 C1231 0.929 . S
H1219 C1229 0.929 . S
H1220 C1224 0.929 . S
H1221 C1230 0.929 . S
C1222 H1216 0.930 . S
C1222 C1223 1.367 . S
C1222 C1230 1.378 . S
C1223 C1222 1.367 . S
C1223 C1231 1.433 . S
C1224 H1220 0.929 . S
C1224 C1226 1.378 . S
C1224 C1228 1.350 . S
C1225 C1228 1.463 . S
C1225 C1230 1.350 . S
C1225 N1233 1.427 . S
C1226 H1217 0.930 . S
C1226 C1224 1.378 . S
C1226 C1227 1.367 . S
C1227 C1226 1.367 . S
C1227 C1229 1.433 . S
C1228 C1224 1.350 . S
C1228 C1225 1.463 . S
C1228 N1232 1.427 . S
C1229 H1219 0.929 . S
C1229 C1227 1.433 . S
C1229 N1232 1.384 . S
C1230 H1221 0.929 . S
C1230 C1222 1.378 . S
C1230 C1225 1.350 . S
C1231 H1218 0.929 . S
C1231 C1223 1.433 . S
C1231 N1233 1.384 . S
N1232 C1228 1.427 . S
N1232 C1229 1.384 . S
N1233 C1225 1.427 . S
N1233 C1231 1.384 . S
H1234 C1240 0.930 . S
H1235 C1244 0.930 . S
H1236 C1249 0.929 . S
H1237 C1247 0.929 . S
H1238 C1242 0.929 . S
H1239 C1248 0.929 . S
C1240 H1234 0.930 . S
C1240 C1241 1.367 . S
C1240 C1248 1.378 . S
C1241 C1240 1.367 . S
C1241 C1249 1.433 . S
C1242 H1238 0.929 . S
C1242 C1244 1.378 . S
C1242 C1246 1.350 . S
C1243 C1246 1.463 . S
C1243 C1248 1.350 . S
C1243 N1251 1.427 . S
C1244 H1235 0.930 . S
C1244 C1242 1.378 . S
C1244 C1245 1.367 . S
C1245 C1244 1.367 . S
C1245 C1247 1.433 . S
C1246 C1242 1.350 . S
C1246 C1243 1.463 . S
C1246 N1250 1.427 . S
C1247 H1237 0.929 . S
C1247 C1245 1.433 . S
C1247 N1250 1.384 . S
C1248 H1239 0.929 . S
C1248 C1240 1.378 . S
C1248 C1243 1.350 . S
C1249 H1236 0.929 . S
C1249 C1241 1.433 . S
C1249 N1251 1.384 . S
N1250 C1246 1.427 . S
N1250 C1247 1.384 . S
N1251 C1243 1.427 . S
N1251 C1249 1.384 . S
H1252 C1258 0.930 . S
H1253 C1262 0.930 . S
H1254 C1267 0.929 . S
H1255 C1265 0.929 . S
H1256 C1260 0.929 . S
H1257 C1266 0.929 . S
C1258 H1252 0.930 . S
C1258 C1259 1.367 . S
C1258 C1266 1.378 . S
C1259 C1258 1.367 . S
C1259 C1267 1.433 . S
C1260 H1256 0.929 . S
C1260 C1262 1.378 . S
C1260 C1264 1.350 . S
C1261 C1264 1.463 . S
C1261 C1266 1.350 . S
C1261 N1269 1.427 . S
C1262 H1253 0.930 . S
C1262 C1260 1.378 . S
C1262 C1263 1.367 . S
C1263 C1262 1.367 . S
C1263 C1265 1.433 . S
C1264 C1260 1.350 . S
C1264 C1261 1.463 . S
C1264 N1268 1.427 . S
C1265 H1255 0.929 . S
C1265 C1263 1.433 . S
C1265 N1268 1.384 . S
C1266 H1257 0.929 . S
C1266 C1258 1.378 . S
C1266 C1261 1.350 . S
C1267 H1254 0.929 . S
C1267 C1259 1.433 . S
C1267 N1269 1.384 . S
N1268 C1264 1.427 . S
N1268 C1265 1.384 . S
N1269 C1261 1.427 . S
N1269 C1267 1.384 . S
H1270 C1276 0.930 . S
H1271 C1280 0.930 . S
H1272 C1285 0.929 . S
H1273 C1283 0.929 . S
H1274 C1278 0.929 . S
H1275 C1284 0.929 . S
C1276 H1270 0.930 . S
C1276 C1277 1.367 . S
C1276 C1284 1.378 . S
C1277 C1276 1.367 . S
C1277 C1285 1.433 . S
C1278 H1274 0.929 . S
C1278 C1280 1.378 . S
C1278 C1282 1.350 . S
C1279 C1282 1.463 . S
C1279 C1284 1.350 . S
C1279 N1287 1.427 . S
C1280 H1271 0.930 . S
C1280 C1278 1.378 . S
C1280 C1281 1.367 . S
C1281 C1280 1.367 . S
C1281 C1283 1.433 . S
C1282 C1278 1.350 . S
C1282 C1279 1.463 . S
C1282 N1286 1.427 . S
C1283 H1273 0.929 . S
C1283 C1281 1.433 . S
C1283 N1286 1.384 . S
C1284 H1275 0.929 . S
C1284 C1276 1.378 . S
C1284 C1279 1.350 . S
C1285 H1272 0.929 . S
C1285 C1277 1.433 . S
C1285 N1287 1.384 . S
N1286 C1282 1.427 . S
N1286 C1283 1.384 . S
N1287 C1279 1.427 . S
N1287 C1285 1.384 . S
H1288 C1294 0.930 . S
H1289 C1298 0.930 . S
H1290 C1303 0.929 . S
H1291 C1301 0.929 . S
H1292 C1296 0.929 . S
H1293 C1302 0.929 . S
C1294 H1288 0.930 . S
C1294 C1295 1.367 . S
C1294 C1302 1.378 . S
C1295 C1294 1.367 . S
C1295 C1303 1.433 . S
C1296 H1292 0.929 . S
C1296 C1298 1.378 . S
C1296 C1300 1.350 . S
C1297 C1300 1.463 . S
C1297 C1302 1.350 . S
C1297 N1305 1.427 . S
C1298 H1289 0.930 . S
C1298 C1296 1.378 . S
C1298 C1299 1.367 . S
C1299 C1298 1.367 . S
C1299 C1301 1.433 . S
C1300 C1296 1.350 . S
C1300 C1297 1.463 . S
C1300 N1304 1.427 . S
C1301 H1291 0.929 . S
C1301 C1299 1.433 . S
C1301 N1304 1.384 . S
C1302 H1293 0.929 . S
C1302 C1294 1.378 . S
C1302 C1297 1.350 . S
C1303 H1290 0.929 . S
C1303 C1295 1.433 . S
C1303 N1305 1.384 . S
N1304 C1300 1.427 . S
N1304 C1301 1.384 . S
N1305 C1297 1.427 . S
N1305 C1303 1.384 . S
H1306 C1312 0.930 . S
H1307 C1316 0.930 . S
H1308 C1321 0.929 . S
H1309 C1319 0.929 . S
H1310 C1314 0.929 . S
H1311 C1320 0.929 . S
C1312 H1306 0.930 . S
C1312 C1313 1.367 . S
C1312 C1320 1.378 . S
C1313 C1312 1.367 . S
C1313 C1321 1.433 . S
C1314 H1310 0.929 . S
C1314 C1316 1.378 . S
C1314 C1318 1.350 . S
C1315 C1318 1.463 . S
C1315 C1320 1.350 . S
C1315 N1323 1.427 . S
C1316 H1307 0.930 . S
C1316 C1314 1.378 . S
C1316 C1317 1.367 . S
C1317 C1316 1.367 . S
C1317 C1319 1.433 . S
C1318 C1314 1.350 . S
C1318 C1315 1.463 . S
C1318 N1322 1.427 . S
C1319 H1309 0.929 . S
C1319 C1317 1.433 . S
C1319 N1322 1.384 . S
C1320 H1311 0.929 . S
C1320 C1312 1.378 . S
C1320 C1315 1.350 . S
C1321 H1308 0.929 . S
C1321 C1313 1.433 . S
C1321 N1323 1.384 . S
N1322 C1318 1.427 . S
N1322 C1319 1.384 . S
N1323 C1315 1.427 . S
N1323 C1321 1.384 . S
H1324 C1330 0.930 . S
H1325 C1334 0.930 . S
H1326 C1339 0.929 . S
H1327 C1337 0.929 . S
H1328 C1332 0.929 . S
H1329 C1338 0.929 . S
C1330 H1324 0.930 . S
C1330 C1331 1.367 . S
C1330 C1338 1.378 . S
C1331 C1330 1.367 . S
C1331 C1339 1.433 . S
C1332 H1328 0.929 . S
C1332 C1334 1.378 . S
C1332 C1336 1.350 . S
C1333 C1336 1.463 . S
C1333 C1338 1.350 . S
C1333 N1341 1.427 . S
C1334 H1325 0.930 . S
C1334 C1332 1.378 . S
C1334 C1335 1.367 . S
C1335 C1334 1.367 . S
C1335 C1337 1.433 . S
C1336 C1332 1.350 . S
C1336 C1333 1.463 . S
C1336 N1340 1.427 . S
C1337 H1327 0.929 . S
C1337 C1335 1.433 . S
C1337 N1340 1.384 . S
C1338 H1329 0.929 . S
C1338 C1330 1.378 . S
C1338 C1333 1.350 . S
C1339 H1326 0.929 . S
C1339 C1331 1.433 . S
C1339 N1341 1.384 . S
N1340 C1336 1.427 . S
N1340 C1337 1.384 . S
N1341 C1333 1.427 . S
N1341 C1339 1.384 . S
H1342 C1348 0.930 . S
H1343 C1352 0.930 . S
H1344 C1357 0.929 . S
H1345 C1355 0.929 . S
H1346 C1350 0.929 . S
H1347 C1356 0.929 . S
C1348 H1342 0.930 . S
C1348 C1349 1.367 . S
C1348 C1356 1.378 . S
C1349 C1348 1.367 . S
C1349 C1357 1.433 . S
C1350 H1346 0.929 . S
C1350 C1352 1.378 . S
C1350 C1354 1.350 . S
C1351 C1354 1.463 . S
C1351 C1356 1.350 . S
C1351 N1359 1.427 . S
C1352 H1343 0.930 . S
C1352 C1350 1.378 . S
C1352 C1353 1.367 . S
C1353 C1352 1.367 . S
C1353 C1355 1.433 . S
C1354 C1350 1.350 . S
C1354 C1351 1.463 . S
C1354 N1358 1.427 . S
C1355 H1345 0.929 . S
C1355 C1353 1.433 . S
C1355 N1358 1.384 . S
C1356 H1347 0.929 . S
C1356 C1348 1.378 . S
C1356 C1351 1.350 . S
C1357 H1344 0.929 . S
C1357 C1349 1.433 . S
C1357 N1359 1.384 . S
N1358 C1354 1.427 . S
N1358 C1355 1.384 . S
N1359 C1351 1.427 . S
N1359 C1357 1.384 . S
H1360 C1366 0.930 . S
H1361 C1370 0.930 . S
H1362 C1375 0.929 1_556 S
H1363 C1373 0.929 . S
H1364 C1368 0.929 . S
H1365 C1374 0.929 . S
C1366 H1360 0.930 . S
C1366 C1367 1.367 1_554 S
C1366 C1374 1.378 . S
C1367 C1366 1.367 1_556 S
C1367 C1375 1.433 1_556 S
C1368 H1364 0.929 . S
C1368 C1370 1.378 . S
C1368 C1372 1.350 . S
C1369 C1372 1.463 . S
C1369 C1374 1.350 . S
C1369 N1377 1.427 . S
C1370 H1361 0.930 . S
C1370 C1368 1.378 . S
C1370 C1371 1.367 . S
C1371 C1370 1.367 . S
C1371 C1373 1.433 . S
C1372 C1368 1.350 . S
C1372 C1369 1.463 . S
C1372 N1376 1.427 . S
C1373 H1363 0.929 . S
C1373 C1371 1.433 . S
C1373 N1376 1.384 . S
C1374 H1365 0.929 . S
C1374 C1366 1.378 . S
C1374 C1369 1.350 . S
C1375 H1362 0.929 1_554 S
C1375 C1367 1.433 1_554 S
C1375 N1377 1.384 . S
N1376 C1372 1.427 . S
N1376 C1373 1.384 . S
N1377 C1369 1.427 . S
N1377 C1375 1.384 . S
H1378 C1384 0.930 . S
H1379 C1388 0.930 . S
H1380 C1393 0.929 . S
H1381 C1391 0.929 . S
H1382 C1386 0.929 . S
H1383 C1392 0.929 . S
C1384 H1378 0.930 . S
C1384 C1385 1.367 . S
C1384 C1392 1.378 . S
C1385 C1384 1.367 . S
C1385 C1393 1.433 . S
C1386 H1382 0.929 . S
C1386 C1388 1.378 . S
C1386 C1390 1.350 . S
C1387 C1390 1.463 . S
C1387 C1392 1.350 . S
C1387 N1395 1.427 . S
C1388 H1379 0.930 . S
C1388 C1386 1.378 . S
C1388 C1389 1.367 1_556 S
C1389 C1388 1.367 1_554 S
C1389 C1391 1.433 1_554 S
C1390 C1386 1.350 . S
C1390 C1387 1.463 . S
C1390 N1394 1.427 . S
C1391 H1381 0.929 . S
C1391 C1389 1.433 1_556 S
C1391 N1394 1.384 . S
C1392 H1383 0.929 . S
C1392 C1384 1.378 . S
C1392 C1387 1.350 . S
C1393 H1380 0.929 . S
C1393 C1385 1.433 . S
C1393 N1395 1.384 . S
N1394 C1390 1.427 . S
N1394 C1391 1.384 . S
N1395 C1387 1.427 . S
N1395 C1393 1.384 . S
H1396 C1402 0.930 . S
H1397 C1406 0.930 . S
H1398 C1411 0.929 . S
H1399 C1409 0.929 1_556 S
H1400 C1404 0.929 . S
H1401 C1410 0.929 . S
C1402 H1396 0.930 . S
C1402 C1403 1.367 . S
C1402 C1410 1.378 . S
C1403 C1402 1.367 . S
C1403 C1411 1.433 . S
C1404 H1400 0.929 . S
C1404 C1406 1.378 . S
C1404 C1408 1.350 . S
C1405 C1408 1.463 . S
C1405 C1410 1.350 . S
C1405 N1413 1.427 . S
C1406 H1397 0.930 . S
C1406 C1404 1.378 . S
C1406 C1407 1.367 1_554 S
C1407 C1406 1.367 1_556 S
C1407 C1409 1.433 1_556 S
C1408 C1404 1.350 . S
C1408 C1405 1.463 . S
C1408 N1412 1.427 . S
C1409 H1399 0.929 1_554 S
C1409 C1407 1.433 1_554 S
C1409 N1412 1.384 . S
C1410 H1401 0.929 . S
C1410 C1402 1.378 . S
C1410 C1405 1.350 . S
C1411 H1398 0.929 . S
C1411 C1403 1.433 . S
C1411 N1413 1.384 . S
N1412 C1408 1.427 . S
N1412 C1409 1.384 . S
N1413 C1405 1.427 . S
N1413 C1411 1.384 . S
H1414 C1420 0.930 . S
H1415 C1424 0.930 . S
H1416 C1429 0.929 1_554 S
H1417 C1427 0.929 . S
H1418 C1422 0.929 . S
H1419 C1428 0.929 . S
C1420 H1414 0.930 . S
C1420 C1421 1.367 1_556 S
C1420 C1428 1.378 . S
C1421 C1420 1.367 1_554 S
C1421 C1429 1.433 1_554 S
C1422 H1418 0.929 . S
C1422 C1424 1.378 . S
C1422 C1426 1.350 . S
C1423 C1426 1.463 . S
C1423 C1428 1.350 . S
C1423 N1431 1.427 . S
C1424 H1415 0.930 . S
C1424 C1422 1.378 . S
C1424 C1425 1.367 . S
C1425 C1424 1.367 . S
C1425 C1427 1.433 . S
C1426 C1422 1.350 . S
C1426 C1423 1.463 . S
C1426 N1430 1.427 . S
C1427 H1417 0.929 . S
C1427 C1425 1.433 . S
C1427 N1430 1.384 . S
C1428 H1419 0.929 . S
C1428 C1420 1.378 . S
C1428 C1423 1.350 . S
C1429 H1416 0.929 1_556 S
C1429 C1421 1.433 1_556 S
C1429 N1431 1.384 . S
N1430 C1426 1.427 . S
N1430 C1427 1.384 . S
N1431 C1423 1.427 . S
N1431 C1429 1.384 . S
H1432 C1438 0.930 . S
H1433 C1442 0.930 . S
H1434 C1447 0.929 . S
H1435 C1445 0.929 1_556 S
H1436 C1440 0.929 . S
H1437 C1446 0.929 . S
C1438 H1432 0.930 . S
C1438 C1439 1.367 . S
C1438 C1446 1.378 . S
C1439 C1438 1.367 . S
C1439 C1447 1.433 . S
C1440 H1436 0.929 . S
C1440 C1442 1.378 . S
C1440 C1444 1.350 . S
C1441 C1444 1.463 . S
C1441 C1446 1.350 . S
C1441 N1449 1.427 . S
C1442 H1433 0.930 . S
C1442 C1440 1.378 . S
C1442 C1443 1.367 1_554 S
C1443 C1442 1.367 1_556 S
C1443 C1445 1.433 1_556 S
C1444 C1440 1.350 . S
C1444 C1441 1.463 . S
C1444 N1448 1.427 . S
C1445 H1435 0.929 1_554 S
C1445 C1443 1.433 1_554 S
C1445 N1448 1.384 . S
C1446 H1437 0.929 . S
C1446 C1438 1.378 . S
C1446 C1441 1.350 . S
C1447 H1434 0.929 . S
C1447 C1439 1.433 . S
C1447 N1449 1.384 . S
N1448 C1444 1.427 . S
N1448 C1445 1.384 . S
N1449 C1441 1.427 . S
N1449 C1447 1.384 . S
H1450 C1456 0.930 . S
H1451 C1460 0.930 . S
H1452 C1465 0.929 1_554 S
H1453 C1463 0.929 . S
H1454 C1458 0.929 . S
H1455 C1464 0.929 . S
C1456 H1450 0.930 . S
C1456 C1457 1.367 1_556 S
C1456 C1464 1.378 . S
C1457 C1456 1.367 1_554 S
C1457 C1465 1.433 1_554 S
C1458 H1454 0.929 . S
C1458 C1460 1.378 . S
C1458 C1462 1.350 . S
C1459 C1462 1.463 . S
C1459 C1464 1.350 . S
C1459 N1467 1.427 . S
C1460 H1451 0.930 . S
C1460 C1458 1.378 . S
C1460 C1461 1.367 . S
C1461 C1460 1.367 . S
C1461 C1463 1.433 . S
C1462 C1458 1.350 . S
C1462 C1459 1.463 . S
C1462 N1466 1.427 . S
C1463 H1453 0.929 . S
C1463 C1461 1.433 . S
C1463 N1466 1.384 . S
C1464 H1455 0.929 . S
C1464 C1456 1.378 . S
C1464 C1459 1.350 . S
C1465 H1452 0.929 1_556 S
C1465 C1457 1.433 1_556 S
C1465 N1467 1.384 . S
N1466 C1462 1.427 . S
N1466 C1463 1.384 . S
N1467 C1459 1.427 . S
N1467 C1465 1.384 . S
H1468 C1474 0.930 1_556 S
H1469 C1478 0.930 . S
H1470 C1483 0.929 . S
H1471 C1481 0.929 . S
H1472 C1476 0.929 . S
H1473 C1482 0.929 . S
C1474 H1468 0.930 1_554 S
C1474 C1475 1.367 1_554 S
C1474 C1482 1.378 . S
C1475 C1474 1.367 1_556 S
C1475 C1483 1.433 1_556 S
C1476 H1472 0.929 . S
C1476 C1478 1.378 . S
C1476 C1480 1.350 . S
C1477 C1480 1.463 . S
C1477 C1482 1.350 . S
C1477 N1485 1.427 . S
C1478 H1469 0.930 . S
C1478 C1476 1.378 . S
C1478 C1479 1.367 . S
C1479 C1478 1.367 . S
C1479 C1481 1.433 . S
C1480 C1476 1.350 . S
C1480 C1477 1.463 . S
C1480 N1484 1.427 . S
C1481 H1471 0.929 . S
C1481 C1479 1.433 . S
C1481 N1484 1.384 . S
C1482 H1473 0.929 . S
C1482 C1474 1.378 . S
C1482 C1477 1.350 . S
C1483 H1470 0.929 . S
C1483 C1475 1.433 1_554 S
C1483 N1485 1.384 . S
N1484 C1480 1.427 . S
N1484 C1481 1.384 . S
N1485 C1477 1.427 . S
N1485 C1483 1.384 . S
H1486 C1492 0.930 . S
H1487 C1496 0.930 . S
H1488 C1501 0.929 . S
H1489 C1499 0.929 1_554 S
H1490 C1494 0.929 . S
H1491 C1500 0.929 . S
C1492 H1486 0.930 . S
C1492 C1493 1.367 . S
C1492 C1500 1.378 . S
C1493 C1492 1.367 . S
C1493 C1501 1.433 . S
C1494 H1490 0.929 . S
C1494 C1496 1.378 . S
C1494 C1498 1.350 . S
C1495 C1498 1.463 . S
C1495 C1500 1.350 . S
C1495 N1503 1.427 . S
C1496 H1487 0.930 . S
C1496 C1494 1.378 . S
C1496 C1497 1.367 1_556 S
C1497 C1496 1.367 1_554 S
C1497 C1499 1.433 1_554 S
C1498 C1494 1.350 . S
C1498 C1495 1.463 . S
C1498 N1502 1.427 . S
C1499 H1489 0.929 1_556 S
C1499 C1497 1.433 1_556 S
C1499 N1502 1.384 . S
C1500 H1491 0.929 . S
C1500 C1492 1.378 . S
C1500 C1495 1.350 . S
C1501 H1488 0.929 . S
C1501 C1493 1.433 . S
C1501 N1503 1.384 . S
N1502 C1498 1.427 . S
N1502 C1499 1.384 . S
N1503 C1495 1.427 . S
N1503 C1501 1.384 . S
C647 C451 1.715 . S
C651 C19 1.725 . S
C665 C322 1.717 . S
C669 C50 1.723 . S
C683 C99 1.730 . S
C687 C371 1.723 . S
C701 C130 1.724 . S
C705 C402 1.718 . S
C719 C179 1.731 . S
C723 C211 1.721 . S
C737 C242 1.714 . S
C741 C210 1.723 . S
C755 C259 1.723 . S
C759 C291 1.714 . S
C773 C162 1.716 . S
C777 C290 1.727 . S
C791 C131 1.724 . S
C795 C339 1.730 . S
C809 C370 1.722 . S
C813 C2 1.714 . S
C827 C51 1.717 . S
C831 C419 1.723 . S
C845 C82 1.721 . S
C849 C450 1.726 . S
C863 C499 1.729 . S
C867 C531 1.723 . S
C881 C562 1.721 . S
C885 C530 1.731 . S
C899 C611 1.719 . S
C903 C579 1.724 . S
C917 C610 1.726 . S
C921 C482 1.721 . S
C935 C10 1.183 . S
C939 C170 1.177 . S
C953 C219 1.174 . S
C957 C59 1.169 . S
C971 C90 1.172 . S
C975 C250 1.168 . S
C989 C139 1.184 . S
C993 C299 1.188 . S
C1007 C330 1.185 . S
C1011 C490 1.189 . S
C1025 C539 1.173 . S
C1029 C379 1.168 . S
C1043 C410 1.173 . S
C1047 C570 1.169 . S
C1061 C459 1.179 . S
C1065 C619 1.185 . S
C1079 C571 2.300 . S
C1083 C11 2.301 1_556 S
C1097 C42 2.296 1_554 S
C1101 C602 2.295 . S
C1115 C91 2.299 1_556 S
C1119 C491 2.297 . S
C1133 C122 2.300 1_554 S
C1137 C522 2.298 . S
C1151 C171 2.300 . S
C1155 C411 2.298 . S
C1169 C202 2.299 . S
C1173 C442 2.301 . S
C1187 C251 2.300 . S
C1191 C331 2.301 . S
C1205 C362 2.302 . S
C1209 C282 2.302 . S
C1223 C7 1.089 . S
C1227 C16 1.089 . S
C1241 C56 1.090 . S
C1245 C47 1.090 . S
C1259 C87 1.090 . S
C1263 C96 1.090 . S
C1277 C127 1.089 . S
C1281 C136 1.089 . S
C1295 C176 1.085 . S
C1299 C167 1.085 . S
C1313 C216 1.085 . S
C1317 C207 1.085 . S
C1331 C247 1.089 . S
C1335 C256 1.089 . S
C1349 C287 1.085 . S
C1353 C296 1.085 . S
C1367 C327 1.090 . S
C1371 C336 1.090 . S
C1385 C367 1.087 . S
C1389 C376 1.087 . S
C1403 C416 1.088 . S
C1407 C407 1.088 . S
C1421 C456 1.090 . S
C1425 C447 1.090 . S
C1439 C487 1.090 . S
C1443 C496 1.090 . S
C1457 C527 1.090 . S
C1461 C536 1.090 . S
C1475 C576 1.086 . S
C1479 C567 1.086 . S
C1493 C616 1.089 . S
C1497 C607 1.089 . S
