# Generated by pormake.
# Topology yfd, (5)-cn, num edge types: 1
# Building blocks:
#     Node 0, Type 0, BuildingBlock: BEQFEK_clean_sbu_0, # of connection points: 5
#     Node 1, Type 0, BuildingBlock: BEQFEK_clean_sbu_0, # of connection points: 5
#     Node 2, Type 0, BuildingBlock: BEQFEK_clean_sbu_0, # of connection points: 5
#     Node 3, Type 0, BuildingBlock: BEQFEK_clean_sbu_0, # of connection points: 5
#     Node 4, Type 0, BuildingBlock: BEQFEK_clean_sbu_0, # of connection points: 5
#     Node 5, Type 0, BuildingBlock: BEQFEK_clean_sbu_0, # of connection points: 5
#     Node 6, Type 0, BuildingBlock: BEQFEK_clean_sbu_0, # of connection points: 5
#     Node 7, Type 0, BuildingBlock: BEQFEK_clean_sbu_0, # of connection points: 5
#     Node 8, Type 0, BuildingBlock: BEQFEK_clean_sbu_0, # of connection points: 5
#     Node 9, Type 0, BuildingBlock: BEQFEK_clean_sbu_0, # of connection points: 5
#     Node 10, Type 0, BuildingBlock: BEQFEK_clean_sbu_0, # of connection points: 5
#     Node 11, Type 0, BuildingBlock: BEQFEK_clean_sbu_0, # of connection points: 5
#     Node 12, Type 0, BuildingBlock: BEQFEK_clean_sbu_0, # of connection points: 5
#     Node 13, Type 0, BuildingBlock: BEQFEK_clean_sbu_0, # of connection points: 5
#     Node 14, Type 0, BuildingBlock: BEQFEK_clean_sbu_0, # of connection points: 5
#     Node 15, Type 0, BuildingBlock: BEQFEK_clean_sbu_0, # of connection points: 5
#     Edge 16, Type (0, 0), BuildingBlock: UVAHIK_clean_linker_0, # of connection points: 2
#     Edge 17, Type (0, 0), BuildingBlock: UVAHIK_clean_linker_0, # of connection points: 2
#     Edge 18, Type (0, 0), BuildingBlock: UVAHIK_clean_linker_0, # of connection points: 2
#     Edge 19, Type (0, 0), BuildingBlock: UVAHIK_clean_linker_0, # of connection points: 2
#     Edge 20, Type (0, 0), BuildingBlock: UVAHIK_clean_linker_0, # of connection points: 2
#     Edge 21, Type (0, 0), BuildingBlock: UVAHIK_clean_linker_0, # of connection points: 2
#     Edge 22, Type (0, 0), BuildingBlock: UVAHIK_clean_linker_0, # of connection points: 2
#     Edge 23, Type (0, 0), BuildingBlock: UVAHIK_clean_linker_0, # of connection points: 2
#     Edge 24, Type (0, 0), BuildingBlock: UVAHIK_clean_linker_0, # of connection points: 2
#     Edge 25, Type (0, 0), BuildingBlock: UVAHIK_clean_linker_0, # of connection points: 2
#     Edge 26, Type (0, 0), BuildingBlock: UVAHIK_clean_linker_0, # of connection points: 2
#     Edge 27, Type (0, 0), BuildingBlock: UVAHIK_clean_linker_0, # of connection points: 2
#     Edge 28, Type (0, 0), BuildingBlock: UVAHIK_clean_linker_0, # of connection points: 2
#     Edge 29, Type (0, 0), BuildingBlock: UVAHIK_clean_linker_0, # of connection points: 2
#     Edge 30, Type (0, 0), BuildingBlock: UVAHIK_clean_linker_0, # of connection points: 2
#     Edge 31, Type (0, 0), BuildingBlock: UVAHIK_clean_linker_0, # of connection points: 2
#     Edge 32, Type (0, 0), BuildingBlock: UVAHIK_clean_linker_0, # of connection points: 2
#     Edge 33, Type (0, 0), BuildingBlock: UVAHIK_clean_linker_0, # of connection points: 2
#     Edge 34, Type (0, 0), BuildingBlock: UVAHIK_clean_linker_0, # of connection points: 2
#     Edge 35, Type (0, 0), BuildingBlock: UVAHIK_clean_linker_0, # of connection points: 2
#     Edge 36, Type (0, 0), BuildingBlock: UVAHIK_clean_linker_0, # of connection points: 2
#     Edge 37, Type (0, 0), BuildingBlock: UVAHIK_clean_linker_0, # of connection points: 2
#     Edge 38, Type (0, 0), BuildingBlock: UVAHIK_clean_linker_0, # of connection points: 2
#     Edge 39, Type (0, 0), BuildingBlock: UVAHIK_clean_linker_0, # of connection points: 2
#     Edge 40, Type (0, 0), BuildingBlock: UVAHIK_clean_linker_0, # of connection points: 2
#     Edge 41, Type (0, 0), BuildingBlock: UVAHIK_clean_linker_0, # of connection points: 2
#     Edge 42, Type (0, 0), BuildingBlock: UVAHIK_clean_linker_0, # of connection points: 2
#     Edge 43, Type (0, 0), BuildingBlock: UVAHIK_clean_linker_0, # of connection points: 2
#     Edge 44, Type (0, 0), BuildingBlock: UVAHIK_clean_linker_0, # of connection points: 2
#     Edge 45, Type (0, 0), BuildingBlock: UVAHIK_clean_linker_0, # of connection points: 2
#     Edge 46, Type (0, 0), BuildingBlock: UVAHIK_clean_linker_0, # of connection points: 2
#     Edge 47, Type (0, 0), BuildingBlock: UVAHIK_clean_linker_0, # of connection points: 2
#     Edge 48, Type (0, 0), BuildingBlock: UVAHIK_clean_linker_0, # of connection points: 2
#     Edge 49, Type (0, 0), BuildingBlock: UVAHIK_clean_linker_0, # of connection points: 2
#     Edge 50, Type (0, 0), BuildingBlock: UVAHIK_clean_linker_0, # of connection points: 2
#     Edge 51, Type (0, 0), BuildingBlock: UVAHIK_clean_linker_0, # of connection points: 2
#     Edge 52, Type (0, 0), BuildingBlock: UVAHIK_clean_linker_0, # of connection points: 2
#     Edge 53, Type (0, 0), BuildingBlock: UVAHIK_clean_linker_0, # of connection points: 2
#     Edge 54, Type (0, 0), BuildingBlock: UVAHIK_clean_linker_0, # of connection points: 2
#     Edge 55, Type (0, 0), BuildingBlock: UVAHIK_clean_linker_0, # of connection points: 2
# Relax obj value: 0.550
# Max RMSD: 0.252
# Mean RMSD: 0.252
data_MOF--net-yfd--node1-BEQFEK_clean_sbu_0--edge1-UVAHIK_clean_linker_0
_symmetry_space_group_name_H-M    P1
_symmetry_Int_Tables_number       1
_symmetry_cell_setting            triclinic
loop_
_symmetry_equiv_pos_as_xyz
'x, y, z'
_cell_length_a     82.662518
_cell_length_b     82.733989
_cell_length_c     32.995393
_cell_angle_alpha  89.783201
_cell_angle_beta   89.882253
_cell_angle_gamma 89.969634
loop_
_atom_site_label
_atom_site_type_symbol
_atom_site_fract_x
_atom_site_fract_y
_atom_site_fract_z
_atom_type_partial_charge
Co0 Co 0.5225 0.09629 0.13995 0.0
Co1 Co 0.5237 0.13334 0.15518 0.0
C2 C 0.49299 0.11326 0.16635 0.0
O3 O 0.50026 0.10063 0.15467 0.0
O4 O 0.50035 0.1268 0.16907 0.0
C5 C 0.51424 0.06307 0.13739 0.0
O6 O 0.50451 0.06672 0.16752 0.0
C7 C 0.51669 0.16582 0.12412 0.0
C8 C 0.5328 0.1813 0.16044 0.0
C9 C 0.5219 0.18171 0.12852 0.0
N10 N 0.52439 0.15651 0.15154 0.0
N11 N 0.53389 0.16587 0.17341 0.0
C12 C 0.50422 0.15952 0.09538 0.0
H13 H 0.49854 0.1484 0.10781 0.0
H14 H 0.51001 0.15634 0.06617 0.0
H15 H 0.49481 0.16881 0.08952 0.0
C16 C 0.53506 0.10538 0.06072 0.0
N17 N 0.52899 0.10944 0.09708 0.0
N18 N 0.53119 0.12493 0.10366 0.0
C19 C 0.53966 0.13109 0.07191 0.0
C20 C 0.54203 0.11893 0.04341 0.0
C21 C 0.53597 0.0884 0.04527 0.0
H22 H 0.52385 0.0827 0.04727 0.0
H23 H 0.54029 0.0879 0.01346 0.0
H24 H 0.54442 0.08135 0.06454 0.0
O25 O 0.53716 0.09901 0.18584 0.0
O26 O 0.53858 0.12526 0.19961 0.0
H27 H 0.54954 0.15194 0.1017 0.0
H28 H 0.55829 0.14766 0.05256 0.0
C29 C 0.54695 0.14763 0.07062 0.0
H30 H 0.5384 0.15612 0.05586 0.0
H31 H 0.54145 0.16167 0.19645 0.0
O32 O 0.52352 0.07384 0.12287 0.0
C33 C 0.54272 0.11063 0.20677 0.0
Co34 Co 0.39906 0.52991 0.63481 0.0
Co35 Co 0.36239 0.52845 0.65477 0.0
C36 C 0.38445 0.49967 0.66724 0.0
O37 O 0.39615 0.50792 0.65383 0.0
O38 O 0.37032 0.50578 0.67019 0.0
C39 C 0.42366 0.51834 0.58988 0.0
O40 O 0.41171 0.50855 0.58077 0.0
C41 C 0.33015 0.51924 0.62807 0.0
C42 C 0.31411 0.53499 0.66402 0.0
C43 C 0.31407 0.52375 0.63291 0.0
N44 N 0.33924 0.52769 0.6543 0.0
N45 N 0.32955 0.53693 0.67613 0.0
C46 C 0.3369 0.50692 0.59947 0.0
H47 H 0.34795 0.50134 0.61243 0.0
H48 H 0.34036 0.51282 0.57052 0.0
H49 H 0.32779 0.49742 0.59299 0.0
C50 C 0.38752 0.54257 0.55714 0.0
N51 N 0.38472 0.53553 0.59332 0.0
N52 N 0.36916 0.53602 0.60165 0.0
C53 C 0.36161 0.54399 0.571 0.0
C54 C 0.37299 0.54789 0.54151 0.0
C55 C 0.40397 0.5464 0.54045 0.0
H56 H 0.41186 0.5511 0.56481 0.0
H57 H 0.40942 0.53523 0.52792 0.0
H58 H 0.40346 0.55549 0.51571 0.0
O59 O 0.39674 0.5451 0.67991 0.0
O60 O 0.37062 0.54427 0.69662 0.0
H61 H 0.3409 0.55268 0.60393 0.0
H62 H 0.34322 0.56118 0.55371 0.0
C63 C 0.34456 0.55005 0.57232 0.0
H64 H 0.33636 0.5408 0.55962 0.0
H65 H 0.33354 0.54501 0.69817 0.0
O66 O 0.42111 0.5299 0.61422 0.0
C67 C 0.38496 0.54973 0.70198 0.0
Co68 Co 0.99524 0.41409 0.08487 0.0
Co69 Co 0.98492 0.37948 0.11134 0.0
C70 C 0.01722 0.39395 0.13438 0.0
O71 O 0.01422 0.4067 0.11436 0.0
O72 O 0.00699 0.38245 0.1364 0.0
C73 C 0.00528 0.44863 0.0465 0.0
O74 O 0.00139 0.45214 0.00892 0.0
C75 C 0.98669 0.3451 0.09763 0.0
C76 C 0.96539 0.3355 0.13027 0.0
C77 C 0.97805 0.33105 0.10501 0.0
N78 N 0.97934 0.35732 0.11686 0.0
N79 N 0.96672 0.35152 0.13681 0.0
C80 C 0.00183 0.34699 0.07306 0.0
H81 H 0.00915 0.35718 0.08478 0.0
H82 H 0.99868 0.3498 0.04117 0.0
H83 H 0.00906 0.33568 0.07363 0.0
C84 C 0.98563 0.4021 0.0049 0.0
N85 N 0.98914 0.39942 0.04412 0.0
N86 N 0.98334 0.3853 0.05523 0.0
C87 C 0.97507 0.37895 0.02368 0.0
C88 C 0.97659 0.38926 0.99052 0.0
C89 C 0.98848 0.41786 0.98382 0.0
H90 H 0.981 0.42731 0.99856 0.0
H91 H 0.00141 0.42118 0.98687 0.0
H92 H 0.98532 0.41738 0.95122 0.0
O93 O 0.97678 0.41764 0.12302 0.0
O94 O 0.96944 0.39285 0.14188 0.0
H95 H 0.95825 0.36423 0.05714 0.0
H96 H 0.95443 0.36513 0.00319 0.0
C97 C 0.96397 0.36469 0.02674 0.0
H98 H 0.971 0.35345 0.02215 0.0
H99 H 0.95874 0.35857 0.15375 0.0
O100 O 0.00133 0.43508 0.06146 0.0
C101 C 0.96767 0.40815 0.14339 0.0
Co102 Co 0.0884 0.98 0.61622 0.0
Co103 Co 0.12436 0.97902 0.6465 0.0
C104 C 0.10255 0.00821 0.65933 0.0
O105 O 0.0911 0.00127 0.6408 0.0
O106 O 0.11619 0.00121 0.66422 0.0
C107 C 0.06433 0.9933 0.56719 0.0
O108 O 0.07365 0.006 0.57198 0.0
C109 C 0.15756 0.98709 0.62589 0.0
C110 C 0.172 0.97012 0.6627 0.0
C111 C 0.17327 0.98152 0.63188 0.0
N112 N 0.14754 0.97902 0.65097 0.0
N113 N 0.15628 0.96909 0.67348 0.0
C114 C 0.15194 0.99975 0.59656 0.0
H115 H 0.14104 0.00592 0.60859 0.0
H116 H 0.14856 0.99401 0.56749 0.0
H117 H 0.16166 0.00872 0.59067 0.0
C118 C 0.10355 0.96923 0.54047 0.0
N119 N 0.10475 0.97529 0.57821 0.0
N120 N 0.11959 0.97318 0.59149 0.0
C121 C 0.128 0.96479 0.56318 0.0
C122 C 0.11821 0.96251 0.52963 0.0
C123 C 0.08809 0.96765 0.51721 0.0
H124 H 0.07906 0.96101 0.53569 0.0
H125 H 0.08347 0.97988 0.51003 0.0
H126 H 0.08979 0.96114 0.48818 0.0
O127 O 0.08856 0.9631 0.65966 0.0
O128 O 0.114 0.96238 0.68223 0.0
H129 H 0.14517 0.95341 0.60305 0.0
H130 H 0.14482 0.94531 0.55227 0.0
C131 C 0.14383 0.95651 0.57054 0.0
H132 H 0.15384 0.96462 0.56125 0.0
H133 H 0.15144 0.96101 0.69459 0.0
O134 O 0.06762 0.98041 0.58663 0.0
C135 C 0.09937 0.95734 0.68339 0.0
Co136 Co 0.52908 0.40725 0.85928 0.0
Co137 Co 0.52616 0.37025 0.84399 0.0
C138 C 0.4982 0.39384 0.82976 0.0
O139 O 0.50668 0.40561 0.84192 0.0
O140 O 0.50397 0.37949 0.82816 0.0
C141 C 0.52594 0.44149 0.86041 0.0
O142 O 0.51738 0.43935 0.82736 0.0
C143 C 0.51611 0.33852 0.8749 0.0
C144 C 0.53131 0.32179 0.83941 0.0
C145 C 0.52036 0.3223 0.87132 0.0
N146 N 0.52447 0.34713 0.84717 0.0
N147 N 0.53335 0.33701 0.82567 0.0
C148 C 0.50408 0.34586 0.9034 0.0
H149 H 0.49877 0.35693 0.88976 0.0
H150 H 0.51017 0.34942 0.93187 0.0
H151 H 0.49436 0.33709 0.91085 0.0
C152 C 0.5391 0.39659 0.93965 0.0
N153 N 0.53312 0.39334 0.90272 0.0
N154 N 0.53374 0.3777 0.896 0.0
C155 C 0.54115 0.37059 0.92807 0.0
C156 C 0.54436 0.38232 0.95703 0.0
C157 C 0.54159 0.41329 0.95584 0.0
H158 H 0.55134 0.41931 0.93827 0.0
H159 H 0.53031 0.42042 0.95219 0.0
H160 H 0.54505 0.4131 0.98831 0.0
O161 O 0.54421 0.4028 0.81474 0.0
O162 O 0.54265 0.3765 0.80177 0.0
H163 H 0.54942 0.34912 0.89771 0.0
H164 H 0.55857 0.35264 0.94662 0.0
C165 C 0.5472 0.35354 0.92889 0.0
H166 H 0.53813 0.34567 0.94387 0.0
H167 H 0.54131 0.34056 0.80272 0.0
O168 O 0.53256 0.4294 0.87729 0.0
C169 C 0.54869 0.39045 0.79469 0.0
Co170 Co 0.08327 0.52079 0.41615 0.0
Co171 Co 0.11962 0.52314 0.38896 0.0
C172 C 0.10032 0.49242 0.38016 0.0
O173 O 0.088 0.49895 0.39629 0.0
O174 O 0.1134 0.5003 0.37485 0.0
C175 C 0.05897 0.50766 0.4652 0.0
O176 O 0.0687 0.49514 0.46292 0.0
C177 C 0.15358 0.51552 0.40263 0.0
C178 C 0.16631 0.53572 0.37258 0.0
C179 C 0.16881 0.52228 0.39703 0.0
N180 N 0.14261 0.52477 0.38339 0.0
N181 N 0.15033 0.53668 0.36484 0.0
C182 C 0.14935 0.5004 0.42545 0.0
H183 H 0.14137 0.49276 0.40654 0.0
H184 H 0.14248 0.50349 0.45324 0.0
H185 H 0.16029 0.49334 0.43362 0.0
C186 C 0.09678 0.53277 0.49259 0.0
N187 N 0.0987 0.52771 0.45417 0.0
N188 N 0.11404 0.52898 0.44381 0.0
C189 C 0.1223 0.53507 0.47588 0.0
C190 C 0.11159 0.53722 0.50779 0.0
C191 C 0.0809 0.53464 0.51394 0.0
H192 H 0.07188 0.53998 0.49308 0.0
H193 H 0.0768 0.52261 0.5246 0.0
H194 H 0.08187 0.5426 0.54079 0.0
O195 O 0.08262 0.5359 0.37001 0.0
O196 O 0.10824 0.5379 0.3494 0.0
H197 H 0.14304 0.54511 0.44573 0.0
H198 H 0.1421 0.54907 0.49953 0.0
C199 C 0.13969 0.53998 0.47563 0.0
H200 H 0.14734 0.52929 0.48195 0.0
H201 H 0.14462 0.54587 0.34852 0.0
O202 O 0.06208 0.52009 0.44385 0.0
C203 C 0.09327 0.54163 0.34593 0.0
Co204 Co 0.96765 0.09788 0.88392 0.0
Co205 Co 0.96809 0.13458 0.86744 0.0
C206 C 0.99674 0.11411 0.84771 0.0
O207 O 0.98874 0.10202 0.85975 0.0
O208 O 0.99066 0.12825 0.84856 0.0
C209 C 0.98313 0.07421 0.92206 0.0
O210 O 0.99131 0.0872 0.9321 0.0
C211 C 0.97728 0.16734 0.88806 0.0
C212 C 0.95758 0.18197 0.86155 0.0
C213 C 0.97132 0.18298 0.88543 0.0
N214 N 0.96733 0.15753 0.86745 0.0
N215 N 0.95571 0.16636 0.8511 0.0
C216 C 0.99234 0.16165 0.90892 0.0
H217 H 0.98925 0.15251 0.93233 0.0
H218 H 0.99914 0.17177 0.92277 0.0
H219 H 1.00026 0.15558 0.88649 0.0
C220 C 0.95871 0.1079 0.96587 0.0
N221 N 0.96335 0.11139 0.92777 0.0
N222 N 0.96298 0.12712 0.92187 0.0
C223 C 0.95772 0.13413 0.95665 0.0
C224 C 0.95532 0.12215 0.98569 0.0
C225 C 0.9556 0.09117 0.98169 0.0
H226 H 0.95059 0.08346 0.95739 0.0
H227 H 0.96714 0.08585 0.99244 0.0
H228 H 0.94698 0.09128 0.00752 0.0
O229 O 0.95068 0.09977 0.84341 0.0
O230 O 0.95139 0.12597 0.82805 0.0
H231 H 0.94853 0.15657 0.93318 0.0
H232 H 0.94509 0.15354 0.9868 0.0
C233 C 0.95376 0.15166 0.96153 0.0
H234 H 0.96496 0.15837 0.96879 0.0
H235 H 0.94617 0.16164 0.83422 0.0
O236 O 0.97015 0.07573 0.90193 0.0
C237 C 0.94558 0.11179 0.82295 0.0
Co238 Co 0.40141 0.98044 0.35529 0.0
Co239 Co 0.3638 0.97863 0.34788 0.0
C240 C 0.38229 0.0088 0.32614 0.0
O241 O 0.3953 0.00149 0.33446 0.0
O242 O 0.3686 0.00182 0.32986 0.0
C243 C 0.42858 0.99564 0.38551 0.0
O244 O 0.41769 0.00698 0.39121 0.0
C245 C 0.33141 0.98437 0.382 0.0
C246 C 0.3164 0.96672 0.34911 0.0
C247 C 0.31579 0.97819 0.37961 0.0
N248 N 0.34079 0.97668 0.35476 0.0
N249 N 0.33169 0.96624 0.33498 0.0
C250 C 0.33729 0.9978 0.40846 0.0
H251 H 0.34815 0.00357 0.39492 0.0
H252 H 0.34072 0.99294 0.43858 0.0
H253 H 0.32761 0.00693 0.4129 0.0
C254 C 0.3949 0.96868 0.43721 0.0
N255 N 0.38964 0.97477 0.40175 0.0
N256 N 0.37393 0.97257 0.3986 0.0
C257 C 0.36884 0.96429 0.43184 0.0
C258 C 0.38193 0.96195 0.45758 0.0
C259 C 0.41235 0.9673 0.44896 0.0
H260 H 0.41922 0.96126 0.42441 0.0
H261 H 0.41739 0.97957 0.45337 0.0
H262 H 0.41398 0.96035 0.47749 0.0
O263 O 0.39832 0.96369 0.31401 0.0
O264 O 0.37158 0.96318 0.30452 0.0
H265 H 0.34781 0.953 0.40621 0.0
H266 H 0.35327 0.94566 0.45605 0.0
C267 C 0.35258 0.95652 0.43626 0.0
H268 H 0.34407 0.96514 0.45053 0.0
H269 H 0.336 0.95851 0.31248 0.0
O270 O 0.42435 0.98245 0.36906 0.0
C271 C 0.38586 0.95822 0.29605 0.0
Co272 Co 0.47781 0.90559 0.86093 0.0
Co273 Co 0.47806 0.86829 0.85025 0.0
C274 C 0.5081 0.88928 0.83761 0.0
O275 O 0.50027 0.90184 0.84747 0.0
O276 O 0.50126 0.87542 0.8362 0.0
C277 C 0.48279 0.93961 0.85597 0.0
O278 O 0.4926 0.93619 0.82582 0.0
C279 C 0.48606 0.83576 0.88151 0.0
C280 C 0.46918 0.82033 0.84727 0.0
C281 C 0.48074 0.81987 0.87765 0.0
N282 N 0.47779 0.84512 0.85519 0.0
N283 N 0.46784 0.83576 0.83457 0.0
C284 C 0.49925 0.84194 0.90835 0.0
H285 H 0.50451 0.85319 0.89555 0.0
H286 H 0.49429 0.8448 0.93869 0.0
H287 H 0.50884 0.83265 0.91209 0.0
C288 C 0.46561 0.8977 0.94114 0.0
N289 N 0.4716 0.89308 0.90515 0.0
N290 N 0.47034 0.87733 0.90112 0.0
C291 C 0.46275 0.87146 0.9346 0.0
C292 C 0.45985 0.88419 0.96129 0.0
C293 C 0.4637 0.91502 0.9535 0.0
H294 H 0.47561 0.92117 0.95188 0.0
H295 H 0.45867 0.91632 0.98444 0.0
H296 H 0.4554 0.92115 0.932 0.0
O297 O 0.4635 0.90154 0.81556 0.0
O298 O 0.46286 0.87509 0.80482 0.0
H299 H 0.45442 0.8489 0.91014 0.0
H300 H 0.44648 0.85363 0.9598 0.0
C301 C 0.45728 0.85434 0.93991 0.0
H302 H 0.46702 0.84723 0.95454 0.0
H303 H 0.45982 0.83997 0.81255 0.0
O304 O 0.47538 0.92831 0.87418 0.0
C305 C 0.45827 0.88944 0.79605 0.0
Co306 Co 0.60049 0.47025 0.36908 0.0
Co307 Co 0.63693 0.47137 0.34704 0.0
C308 C 0.6152 0.50023 0.33478 0.0
O309 O 0.60357 0.49206 0.34887 0.0
O310 O 0.62926 0.49405 0.33139 0.0
C311 C 0.57749 0.48306 0.41635 0.0
O312 O 0.59035 0.49175 0.42475 0.0
C313 C 0.66942 0.48068 0.37035 0.0
C314 C 0.685 0.46427 0.33492 0.0
C315 C 0.68541 0.47603 0.36479 0.0
N316 N 0.66002 0.47183 0.34573 0.0
N317 N 0.66941 0.46219 0.32418 0.0
C318 C 0.66304 0.49346 0.3982 0.0
H319 H 0.65196 0.49899 0.38536 0.0
H320 H 0.65975 0.48799 0.42778 0.0
H321 H 0.67229 0.50295 0.4034 0.0
C322 C 0.61264 0.4576 0.44608 0.0
N323 N 0.61518 0.46461 0.40975 0.0
N324 N 0.63068 0.46417 0.40079 0.0
C325 C 0.63847 0.45633 0.43127 0.0
C326 C 0.62729 0.4524 0.46124 0.0
C327 C 0.59629 0.45361 0.46323 0.0
H328 H 0.58816 0.44935 0.43885 0.0
H329 H 0.59103 0.4646 0.47716 0.0
H330 H 0.59697 0.44412 0.48701 0.0
O331 O 0.60202 0.45471 0.32437 0.0
O332 O 0.62804 0.45544 0.30651 0.0
H333 H 0.65889 0.44727 0.39791 0.0
H334 H 0.6573 0.4397 0.44923 0.0
C335 C 0.65558 0.45044 0.42944 0.0
H336 H 0.6638 0.46005 0.44031 0.0
H337 H 0.66514 0.45378 0.30328 0.0
O338 O 0.57878 0.47137 0.3917 0.0
C339 C 0.61366 0.44997 0.30193 0.0
Co340 Co 0.99763 0.58779 0.89035 0.0
Co341 Co 0.01179 0.62246 0.87704 0.0
C342 C 0.97999 0.61268 0.84184 0.0
O343 O 0.98154 0.59894 0.85828 0.0
O344 O 0.99088 0.62343 0.84558 0.0
C345 C 0.98889 0.55225 0.90736 0.0
O346 O 0.97661 0.5422 0.90519 0.0
C347 C 0.01245 0.6559 0.90273 0.0
C348 C 0.03504 0.66538 0.87593 0.0
C349 C 0.02216 0.66952 0.9008 0.0
N350 N 0.01938 0.64415 0.88077 0.0
N351 N 0.0328 0.64992 0.86437 0.0
C352 C 0.99665 0.65405 0.92455 0.0
H353 H 0.98925 0.64448 0.91016 0.0
H354 H 0.99888 0.65042 0.95643 0.0
H355 H 0.98993 0.66567 0.92464 0.0
C356 C 0.00406 0.59577 0.97682 0.0
N357 N 0.00249 0.59998 0.93748 0.0
N358 N 0.01047 0.61352 0.93093 0.0
C359 C 0.01861 0.61741 0.96498 0.0
C360 C 0.01474 0.60633 0.99528 0.0
C361 C 0.99653 0.58122 0.99618 0.0
H362 H 0.00604 0.57318 0.00871 0.0
H363 H 0.9888 0.57462 0.97447 0.0
H364 H 0.98895 0.58516 0.02214 0.0
O365 O 0.01758 0.58446 0.85646 0.0
O366 O 0.0272 0.60926 0.84573 0.0
H367 H 0.03837 0.63048 0.93788 0.0
H368 H 0.04004 0.62801 0.99224 0.0
C369 C 0.03154 0.6301 0.96684 0.0
H370 H 0.02588 0.64205 0.97182 0.0
H371 H 0.04062 0.6432 0.84612 0.0
O372 O 0.98631 0.56694 0.89821 0.0
C373 C 0.02799 0.59401 0.84058 0.0
Co374 Co 0.91184 0.02418 0.40434 0.0
Co375 Co 0.8765 0.02107 0.37153 0.0
C376 C 0.90244 0.994 0.36514 0.0
O377 O 0.91303 0.0018 0.38514 0.0
O378 O 0.88844 1.00001 0.35765 0.0
C379 C 0.94565 0.03575 0.4298 0.0
O380 O 0.95291 0.04427 0.45796 0.0
C381 C 0.84363 0.01072 0.39098 0.0
C382 C 0.82891 0.0253 0.34877 0.0
C383 C 0.82774 0.01503 0.382 0.0
N384 N 0.8536 0.01845 0.36512 0.0
N385 N 0.84471 0.02692 0.33948 0.0
C386 C 0.84945 0.99943 0.4234 0.0
H387 H 0.86105 0.99379 0.41406 0.0
H388 H 0.85169 0.00622 0.45171 0.0
H389 H 0.84029 0.98993 0.42966 0.0
C390 C 0.89482 0.03137 0.47933 0.0
N391 N 0.89455 0.02635 0.44064 0.0
N392 N 0.87994 0.02812 0.42592 0.0
C393 C 0.87078 0.03584 0.4539 0.0
C394 C 0.87986 0.03778 0.48901 0.0
C395 C 0.90972 0.03207 0.505 0.0
H396 H 0.91597 0.04376 0.49972 0.0
H397 H 0.91799 0.02198 0.49726 0.0
H398 H 0.9066 0.03128 0.53765 0.0
O399 O 0.90951 0.03898 0.35716 0.0
O400 O 0.88433 0.03812 0.33418 0.0
H401 H 0.85285 0.04506 0.41257 0.0
H402 H 0.85336 0.05499 0.46135 0.0
C403 C 0.8546 0.04324 0.44557 0.0
H404 H 0.84499 0.03515 0.45736 0.0
H405 H 0.84944 0.03454 0.31716 0.0
O406 O 0.9306 0.03322 0.43354 0.0
C407 C 0.89865 0.04377 0.33257 0.0
Co408 Co 0.47269 0.59297 0.14501 0.0
Co409 Co 0.4747 0.63019 0.15833 0.0
C410 C 0.50318 0.60754 0.17394 0.0
O411 O 0.49496 0.59548 0.16251 0.0
O412 O 0.49712 0.62176 0.17466 0.0
C413 C 0.47789 0.55909 0.1453 0.0
O414 O 0.48621 0.56207 0.17832 0.0
C415 C 0.48418 0.66197 0.12652 0.0
C416 C 0.46891 0.67865 0.16197 0.0
C417 C 0.47991 0.67818 0.13015 0.0
N418 N 0.47584 0.65333 0.15419 0.0
N419 N 0.46688 0.66341 0.17562 0.0
C420 C 0.49633 0.65471 0.09819 0.0
H421 H 0.50148 0.64351 0.11157 0.0
H422 H 0.49038 0.65139 0.06934 0.0
H423 H 0.50615 0.66346 0.09143 0.0
C424 C 0.46207 0.60272 0.06439 0.0
N425 N 0.46822 0.60642 0.10086 0.0
N426 N 0.46734 0.62211 0.10671 0.0
C427 C 0.45963 0.62878 0.07449 0.0
C428 C 0.45644 0.61672 0.04637 0.0
C429 C 0.45974 0.58582 0.04937 0.0
H430 H 0.45043 0.5797 0.06824 0.0
H431 H 0.47124 0.57901 0.05229 0.0
H432 H 0.45578 0.58563 0.01726 0.0
O433 O 0.45734 0.59731 0.18914 0.0
O434 O 0.45835 0.62375 0.20084 0.0
H435 H 0.4509 0.65025 0.10397 0.0
H436 H 0.44193 0.64631 0.05503 0.0
C437 C 0.45326 0.64571 0.07297 0.0
H438 H 0.46225 0.65366 0.05793 0.0
H439 H 0.45897 0.65983 0.19865 0.0
O440 O 0.47033 0.57053 0.12805 0.0
C441 C 0.4526 0.60972 0.20855 0.0
Co442 Co 0.91758 0.47908 0.56854 0.0
Co443 Co 0.88153 0.47945 0.59732 0.0
C444 C 0.90373 0.50925 0.59997 0.0
O445 O 0.91539 0.50207 0.58231 0.0
O446 O 0.89051 0.50189 0.60831 0.0
C447 C 0.95201 0.46883 0.55611 0.0
O448 O 0.9626 0.46275 0.5306 0.0
C449 C 0.84808 0.48895 0.58202 0.0
C450 C 0.83438 0.47141 0.61919 0.0
C451 C 0.8325 0.48363 0.5907 0.0
N452 N 0.8586 0.48001 0.60358 0.0
N453 N 0.85033 0.46973 0.62626 0.0
C454 C 0.85302 0.50247 0.55432 0.0
H455 H 0.86384 0.50866 0.56657 0.0
H456 H 0.85632 0.49759 0.52421 0.0
H457 H 0.84302 0.51131 0.55053 0.0
C458 C 0.90284 0.47028 0.49206 0.0
N459 N 0.90146 0.47391 0.5315 0.0
N460 N 0.88631 0.47241 0.54309 0.0
C461 C 0.87768 0.46674 0.51122 0.0
C462 C 0.88789 0.46561 0.47787 0.0
C463 C 0.91836 0.47086 0.46856 0.0
H464 H 0.92585 0.46022 0.47682 0.0
H465 H 0.92514 0.482 0.47631 0.0
H466 H 0.91628 0.4706 0.43539 0.0
O467 O 0.91633 0.46541 0.61733 0.0
O468 O 0.89087 0.46416 0.63817 0.0
H469 H 0.85684 0.45825 0.54427 0.0
H470 H 0.85868 0.45063 0.49313 0.0
C471 C 0.86043 0.46134 0.51283 0.0
H472 H 0.85252 0.47108 0.50102 0.0
H473 H 0.85559 0.46108 0.6452 0.0
O474 O 0.93814 0.4726 0.54254 0.0
C475 C 0.90568 0.4601 0.6418 0.0
Co476 Co 0.03318 0.90014 0.12298 0.0
Co477 Co 0.03207 0.86397 0.14542 0.0
C478 C 0.00358 0.88575 0.16055 0.0
O479 O 0.01154 0.89734 0.14536 0.0
O480 O 0.00975 0.87166 0.16328 0.0
C481 C 0.02096 0.92354 0.07483 0.0
O482 O 0.0102 0.91201 0.07028 0.0
C483 C 0.02245 0.8308 0.12929 0.0
C484 C 0.04175 0.81665 0.15903 0.0
C485 C 0.02828 0.81518 0.13435 0.0
N486 N 0.03224 0.841 0.14922 0.0
N487 N 0.0436 0.83245 0.16756 0.0
C488 C 0.00769 0.83612 0.10657 0.0
H489 H 1.00014 0.84383 0.12652 0.0
H490 H 0.01125 0.84367 0.08021 0.0
H491 H 1.00038 0.82569 0.09624 0.0
C492 C 0.0443 0.88792 0.04461 0.0
N493 N 0.03836 0.88543 0.08213 0.0
N494 N 0.03794 0.86984 0.09006 0.0
C495 C 0.0436 0.86191 0.05685 0.0
C496 C 0.04745 0.87319 0.02705 0.0
C497 C 0.04856 0.90409 0.02688 0.0
H498 H 0.05329 0.91221 0.05067 0.0
H499 H 0.03764 0.90948 0.01284 0.0
H500 H 0.05787 0.90307 0.0028 0.0
O501 O 0.04936 0.89905 0.16561 0.0
O502 O 0.04862 0.87318 0.18437 0.0
H503 H 0.05134 0.83959 0.08406 0.0
H504 H 0.05609 0.84156 0.03074 0.0
C505 C 0.04694 0.84418 0.05451 0.0
H506 H 0.03567 0.83776 0.04637 0.0
H507 H 0.05303 0.83746 0.18431 0.0
O508 O 0.03266 0.92143 0.09909 0.0
C509 C 0.0543 0.8875 0.18795 0.0
Co510 Co 0.59884 0.01831 0.65141 0.0
Co511 Co 0.63611 0.0229 0.65966 0.0
C512 C 0.61945 0.99164 0.6824 0.0
O513 O 0.60598 0.99779 0.67309 0.0
O514 O 0.63258 0.99963 0.67893 0.0
C515 C 0.57228 0.00161 0.62208 0.0
O516 O 0.58351 0.99054 0.61722 0.0
C517 C 0.66833 0.018 0.62511 0.0
C518 C 0.68322 0.0361 0.6568 0.0
C519 C 0.68384 0.02445 0.6267 0.0
N520 N 0.65897 0.02569 0.65237 0.0
N521 N 0.66798 0.03642 0.67144 0.0
C522 C 0.66251 0.00434 0.5993 0.0
H523 H 0.65184 0.99844 0.61342 0.0
H524 H 0.65879 0.00901 0.56922 0.0
H525 H 0.67231 0.99534 0.59472 0.0
C526 C 0.60493 0.02996 0.56898 0.0
N527 N 0.61038 0.0245 0.60492 0.0
N528 N 0.62585 0.02789 0.60857 0.0
C529 C 0.63055 0.03633 0.57526 0.0
C530 C 0.61751 0.03753 0.54887 0.0
C531 C 0.58751 0.03 0.55654 0.0
H532 H 0.58011 0.03592 0.58029 0.0
H533 H 0.58331 0.01736 0.55317 0.0
H534 H 0.58561 0.03642 0.52735 0.0
O535 O 0.60091 0.03521 0.69269 0.0
O536 O 0.62741 0.03842 0.70183 0.0
H537 H 0.6506 0.04914 0.60132 0.0
H538 H 0.64495 0.05589 0.5511 0.0
C539 C 0.64626 0.04518 0.57119 0.0
H540 H 0.65543 0.0371 0.55746 0.0
H541 H 0.66366 0.04418 0.69385 0.0
O542 O 0.57607 0.01512 0.63755 0.0
C543 C 0.61274 0.04207 0.71039 0.0
C544 C 0.4975 0.0393 0.11787 0.0
C545 C 0.5119 0.04817 0.11403 0.0
C546 C 0.49361 0.02756 0.08925 0.0
C547 C 0.50166 0.01868 0.9827 0.0
H548 H 0.48149 0.97747 0.00669 0.0
C549 C 0.49603 0.96602 0.8701 0.0
C550 C 0.48266 0.95572 0.87442 0.0
C551 C 0.49779 0.97923 0.89589 0.0
C552 C 0.48683 0.98909 0.99949 0.0
H553 H 0.53425 0.05068 0.07995 0.0
H554 H 0.52757 0.03 0.03052 0.0
H555 H 0.48941 0.9951 0.06214 0.0
H556 H 0.4597 0.95213 0.90512 0.0
H557 H 0.46264 0.97537 0.94953 0.0
H558 H 0.49927 0.01255 0.92002 0.0
C559 C 0.51908 0.03246 0.05479 0.0
C560 C 0.49144 0.99911 0.03125 0.0
C561 C 0.52295 0.04418 0.08327 0.0
C562 C 0.47028 0.95976 0.90175 0.0
C563 C 0.47198 0.97298 0.92726 0.0
C564 C 0.49704 0.00866 0.95091 0.0
C565 C 0.50411 0.02452 0.05661 0.0
C566 C 0.49906 0.0139 0.02314 0.0
C567 C 0.48614 0.98231 0.926 0.0
C568 C 0.48969 0.99372 0.95905 0.0
H569 H 0.48876 0.04214 0.14129 0.0
H570 H 0.48199 0.02157 0.09137 0.0
H571 H 0.50721 0.03022 0.97563 0.0
H572 H 0.50573 0.96317 0.84918 0.0
H573 H 0.50883 0.98625 0.89426 0.0
C574 C 0.54801 0.4781 0.42549 0.0
C575 C 0.56194 0.48692 0.43534 0.0
C576 C 0.53314 0.48235 0.44219 0.0
C577 C 0.51462 0.50384 0.52694 0.0
H578 H 0.47735 0.50596 0.45581 0.0
C579 C 0.45249 0.52641 0.58085 0.0
C580 C 0.4395 0.51631 0.57056 0.0
C581 C 0.46761 0.52409 0.56309 0.0
C582 C 0.48767 0.50535 0.47597 0.0
H583 H 0.57141 0.50681 0.47092 0.0
H584 H 0.54538 0.51425 0.49986 0.0
H585 H 0.50374 0.49877 0.428 0.0
H586 H 0.43195 0.49614 0.53317 0.0
H587 H 0.45837 0.49203 0.50253 0.0
H588 H 0.4985 0.51024 0.57499 0.0
C589 C 0.54599 0.50404 0.47945 0.0
C590 C 0.5027 0.5012 0.46014 0.0
C591 C 0.56085 0.49981 0.46274 0.0
C592 C 0.44176 0.50408 0.54175 0.0
C593 C 0.45683 0.5018 0.52397 0.0
C594 C 0.49958 0.50799 0.54277 0.0
C595 C 0.53201 0.49544 0.46899 0.0
C596 C 0.51624 0.50025 0.4856 0.0
C597 C 0.46989 0.5117 0.53473 0.0
C598 C 0.48597 0.50859 0.51746 0.0
H599 H 0.54854 0.46805 0.40459 0.0
H600 H 0.52252 0.47539 0.43419 0.0
H601 H 0.5249 0.50305 0.54718 0.0
H602 H 0.45103 0.53599 0.60284 0.0
H603 H 0.47751 0.53196 0.57154 0.0
C604 C 0.03037 0.46025 0.07542 0.0
C605 C 0.01353 0.46082 0.07087 0.0
C606 C 0.03898 0.47449 0.083 0.0
C607 C 0.0485 0.50321 0.03458 0.0
H608 H 0.02385 0.54222 0.05374 0.0
C609 C 0.0064 0.52973 0.93032 0.0
C610 C 0.0045 0.54637 0.92361 0.0
C611 C 0.01863 0.52404 0.95539 0.0
C612 C 0.03151 0.53177 0.04879 0.0
H613 H 0.99216 0.47556 0.0774 0.0
H614 H 0.0068 0.50026 0.08994 0.0
H615 H 0.02484 0.52133 0.10583 0.0
H616 H 0.01574 0.56976 0.93166 0.0
H617 H 0.03637 0.55991 0.97945 0.0
H618 H 0.05345 0.51285 0.97567 0.0
C619 C 0.01373 0.48919 0.08789 0.0
C620 C 0.03194 0.51967 0.07853 0.0
C621 C 0.0052 0.47501 0.08033 0.0
C622 C 0.01642 0.55699 0.93814 0.0
C623 C 0.02835 0.55136 0.96492 0.0
C624 C 0.04812 0.51531 0.00504 0.0
C625 C 0.03076 0.48942 0.08489 0.0
C626 C 0.03864 0.50445 0.06936 0.0
C627 C 0.02909 0.53488 0.97479 0.0
C628 C 0.03807 0.52878 0.01025 0.0
H629 H 0.03698 0.44927 0.06861 0.0
H630 H 0.05207 0.47412 0.082 0.0
H631 H 0.05427 0.49192 0.02654 0.0
H632 H 0.99774 0.52111 0.91857 0.0
H633 H 0.01894 0.51124 0.96256 0.0
C634 C 0.04612 0.97822 0.51988 0.0
C635 C 0.05288 0.9929 0.53288 0.0
C636 C 0.03681 0.97764 0.48461 0.0
C637 C 0.02473 0.00203 0.39394 0.0
H638 H 0.98295 0.98267 0.41472 0.0
C639 C 0.9699 0.03617 0.3862 0.0
C640 C 0.95551 0.02844 0.39758 0.0
C641 C 0.98284 0.02714 0.37147 0.0
C642 C 0.9946 0.98777 0.4069 0.0
H643 H 0.05506 0.01848 0.51928 0.0
H644 H 0.03828 0.01762 0.45904 0.0
H645 H 0.00542 0.97549 0.45676 0.0
H646 H 0.94216 0.00604 0.39495 0.0
H647 H 0.96432 0.99042 0.36666 0.0
H648 H 0.01351 0.01515 0.34563 0.0
C649 C 0.04064 0.00642 0.47511 0.0
C650 C 0.00761 0.98364 0.43158 0.0
C651 C 0.05001 0.00699 0.51015 0.0
C652 C 0.9531 0.0123 0.38644 0.0
C653 C 0.96598 0.00329 0.37081 0.0
C654 C 0.0117 0.00607 0.36892 0.0
C655 C 0.03396 0.99174 0.46184 0.0
C656 C 0.02241 0.99176 0.42751 0.0
C657 C 0.98153 0.01021 0.36836 0.0
C658 C 0.99609 1.00024 0.37788 0.0
H659 H 0.04826 0.96711 0.53648 0.0
H660 H 0.03181 0.96616 0.47523 0.0
H661 H 0.03624 0.00798 0.38908 0.0
H662 H 0.97187 0.04877 0.39354 0.0
H663 H 0.99438 0.03321 0.3688 0.0
C664 C 0.53436 0.4588 0.9181 0.0
C665 C 0.52474 0.45663 0.88348 0.0
C666 C 0.53063 0.47087 0.94588 0.0
C667 C 0.5054 0.50705 0.96385 0.0
H668 H 0.50316 0.49008 0.07362 0.0
C669 C 0.4716 0.54121 0.08703 0.0
C670 C 0.48059 0.5441 0.12237 0.0
C671 C 0.47666 0.52956 0.05946 0.0
C672 C 0.50383 0.49499 0.04318 0.0
H673 H 0.50473 0.46636 0.84865 0.0
H674 H 0.49816 0.48742 0.89732 0.0
H675 H 0.51469 0.47353 0.01978 0.0
H676 H 0.50093 0.53598 0.1586 0.0
H677 H 0.50974 0.51553 0.11031 0.0
H678 H 0.49436 0.52844 0.98723 0.0
C679 C 0.50856 0.47978 0.90305 0.0
C680 C 0.51053 0.4856 0.01242 0.0
C681 C 0.51232 0.46771 0.87515 0.0
C682 C 0.4938 0.53406 0.13153 0.0
C683 C 0.49887 0.52237 0.10387 0.0
C684 C 0.49867 0.51642 0.99459 0.0
C685 C 0.51723 0.48098 0.93951 0.0
C686 C 0.5113 0.49151 0.97242 0.0
C687 C 0.49075 0.52056 0.0668 0.0
C688 C 0.4977 0.51042 0.03444 0.0
H689 H 0.5442 0.45059 0.92496 0.0
H690 H 0.53778 0.47182 0.97326 0.0
H691 H 0.50599 0.51196 0.93341 0.0
H692 H 0.4612 0.54859 0.07948 0.0
H693 H 0.46995 0.52807 0.03154 0.0
C694 C 0.97132 0.46564 0.61291 0.0
C695 C 0.95735 0.47301 0.59745 0.0
C696 C 0.98113 0.47399 0.64002 0.0
C697 C 0.98922 0.51529 0.62346 0.0
H698 H 0.03129 0.4969 0.64584 0.0
C699 C 0.04025 0.52366 0.50957 0.0
C700 C 0.04746 0.50881 0.49939 0.0
C701 C 0.03124 0.52519 0.54524 0.0
C702 C 0.01965 0.5024 0.63974 0.0
H703 H 0.94061 0.49266 0.60624 0.0
H704 H 0.95743 0.50715 0.65384 0.0
H705 H 0.00788 0.48786 0.6847 0.0
H706 H 0.05055 0.48386 0.51818 0.0
H707 H 0.03411 0.48621 0.57866 0.0
H708 H 1.00045 0.52847 0.57565 0.0
C709 C 0.96125 0.49526 0.64405 0.0
C710 C 0.00625 0.49736 0.66239 0.0
C711 C 0.95149 0.48694 0.61657 0.0
C712 C 0.04518 0.49547 0.52511 0.0
C713 C 0.03603 0.49694 0.5604 0.0
C714 C 0.00254 0.52025 0.60072 0.0
C715 C 0.97721 0.49001 0.65079 0.0
C716 C 0.99061 0.50209 0.65043 0.0
C717 C 0.02901 0.51183 0.57113 0.0
C718 C 0.01749 0.51248 0.60572 0.0
H719 H 0.97581 0.45447 0.6 0.0
H720 H 0.99297 0.46897 0.64613 0.0
H721 H 0.97752 0.51991 0.61437 0.0
H722 H 0.04189 0.53423 0.49053 0.0
H723 H 0.02596 0.53682 0.55242 0.0
C724 C 0.03468 0.94734 0.04437 0.0
C725 C 0.02087 0.93755 0.04772 0.0
C726 C 0.03453 0.96084 0.01923 0.0
C727 C 0.01084 0.98273 0.94157 0.0
H728 H 0.02236 0.02006 0.00618 0.0
C729 C 0.98051 0.04431 0.92449 0.0
C730 C 0.98991 0.05822 0.93005 0.0
C731 C 0.98731 0.02911 0.93045 0.0
C732 C 0.01946 0.00981 0.9872 0.0
H733 H 0.9965 0.93346 0.02581 0.0
H734 H 0.99597 0.95752 0.98317 0.0
H735 H 0.02982 0.99334 0.02943 0.0
H736 H 0.01379 0.06731 0.94505 0.0
H737 H 0.02568 0.04074 0.95509 0.0
H738 H 0.99974 0.99936 0.90031 0.0
C739 C 0.00701 0.95458 0.99924 0.0
C740 C 0.02377 0.99449 1.00047 0.0
C741 C 0.00721 0.94098 0.02411 0.0
C742 C 0.00622 0.05676 0.94116 0.0
C743 C 0.01304 0.04158 0.94671 0.0
C744 C 0.00654 0.99812 0.92819 0.0
C745 C 0.02052 0.96483 0.9975 0.0
C746 C 0.01901 0.98082 0.9785 0.0
C747 C 0.00362 0.02765 0.9417 0.0
C748 C 0.01036 0.01171 0.95168 0.0
H749 H 0.04553 0.94471 0.0615 0.0
H750 H 0.04515 0.96849 0.01792 0.0
H751 H 0.0072 0.97232 0.924 0.0
H752 H 0.96789 0.04517 0.91589 0.0
H753 H 0.97969 0.01854 0.92726 0.0
C754 C 0.44828 0.01075 0.4278 0.0
C755 C 0.44456 0.99707 0.40457 0.0
C756 C 0.4624 0.01119 0.45067 0.0
C757 C 0.50225 0.99256 0.46413 0.0
H758 H 0.49662 0.00565 0.57614 0.0
C759 C 0.55303 0.98557 0.58052 0.0
C760 C 0.55632 0.99948 0.60333 0.0
C761 C 0.53884 0.98451 0.55801 0.0
C762 C 0.49837 0.00207 0.54488 0.0
H763 H 0.45308 0.97351 0.38513 0.0
H764 H 0.47781 0.97432 0.42518 0.0
H765 H 0.47354 0.0062 0.53021 0.0
H766 H 0.54699 0.02278 0.62239 0.0
H767 H 0.52221 0.02092 0.58296 0.0
H768 H 0.5271 0.98851 0.47875 0.0
C769 C 0.46979 0.98467 0.42566 0.0
C770 C 0.48521 0.00244 0.51862 0.0
C771 C 0.45563 0.9842 0.40285 0.0
C772 C 0.54479 0.01193 0.60499 0.0
C773 C 0.53058 0.01084 0.58255 0.0
C774 C 0.51541 0.9922 0.49039 0.0
C775 C 0.47305 0.99799 0.45055 0.0
C776 C 0.48707 0.99776 0.478 0.0
C777 C 0.5277 0.99731 0.5581 0.0
C778 C 0.51358 0.99699 0.53095 0.0
H779 H 0.44004 0.02091 0.42949 0.0
H780 H 0.46482 0.02172 0.46911 0.0
H781 H 0.50399 0.98902 0.43284 0.0
H782 H 0.56165 0.97573 0.57886 0.0
H783 H 0.53674 0.97383 0.53987 0.0
C784 C 0.51654 0.19491 0.06089 0.0
C785 C 0.5183 0.19615 0.10314 0.0
C786 C 0.51463 0.20878 0.03689 0.0
C787 C 0.52268 0.25289 0.03827 0.0
H788 H 0.49594 0.25312 0.94186 0.0
C789 C 0.51519 0.31044 0.9406 0.0
C790 C 0.51651 0.30842 0.89843 0.0
C791 C 0.51353 0.29704 0.9663 0.0
C792 C 0.50353 0.25322 0.96858 0.0
H793 H 0.51931 0.21292 0.15328 0.0
H794 H 0.51564 0.23708 0.11168 0.0
H795 H 0.49641 0.22923 0.98552 0.0
H796 H 0.51703 0.29072 0.85026 0.0
H797 H 0.51415 0.26732 0.89503 0.0
H798 H 0.52988 0.27681 0.02123 0.0
C799 C 0.51594 0.22542 0.09689 0.0
C800 C 0.50383 0.23951 0.99361 0.0
C801 C 0.51794 0.21156 0.12082 0.0
C802 C 0.51587 0.29269 0.88257 0.0
C803 C 0.51414 0.27929 0.90824 0.0
C804 C 0.52232 0.26661 0.01337 0.0
C805 C 0.51447 0.22425 0.0545 0.0
C806 C 0.51351 0.2391 0.02867 0.0
C807 C 0.51322 0.28127 0.95051 0.0
C808 C 0.51285 0.26692 0.97803 0.0
H809 H 0.51737 0.18332 0.04599 0.0
H810 H 0.51387 0.20737 0.00434 0.0
H811 H 0.53053 0.25297 0.0645 0.0
H812 H 0.51616 0.32228 0.95413 0.0
H813 H 0.51276 0.29902 0.99867 0.0
C814 C 0.28446 0.51837 0.62472 0.0
C815 C 0.29991 0.51974 0.60726 0.0
C816 C 0.2708 0.51612 0.60036 0.0
C817 C 0.25604 0.52478 0.498 0.0
H818 H 0.22137 0.49521 0.52589 0.0
C819 C 0.199 0.52 0.39817 0.0
C820 C 0.18412 0.51847 0.41837 0.0
C821 C 0.21357 0.51806 0.41921 0.0
C822 C 0.23086 0.50365 0.51783 0.0
H823 H 0.31305 0.52023 0.55029 0.0
H824 H 0.28931 0.51617 0.50793 0.0
H825 H 0.2459 0.49572 0.56695 0.0
H826 H 0.17286 0.51417 0.47682 0.0
H827 H 0.19809 0.51101 0.51354 0.0
H828 H 0.24092 0.53317 0.44989 0.0
C829 C 0.28777 0.51665 0.54052 0.0
C830 C 0.24494 0.50389 0.54134 0.0
C831 C 0.30143 0.51873 0.5649 0.0
C832 C 0.18409 0.51489 0.46002 0.0
C833 C 0.19863 0.51311 0.48116 0.0
C834 C 0.24192 0.52466 0.47475 0.0
C835 C 0.27228 0.51549 0.55792 0.0
C836 C 0.25764 0.51454 0.53185 0.0
C837 C 0.21359 0.51484 0.46118 0.0
C838 C 0.22905 0.51419 0.4845 0.0
H839 H 0.28291 0.51927 0.65725 0.0
H840 H 0.25901 0.51546 0.61466 0.0
H841 H 0.26551 0.53329 0.49023 0.0
H842 H 0.19936 0.52287 0.36611 0.0
H843 H 0.22481 0.51925 0.4026 0.0
C844 C 0.98292 0.31429 0.04355 0.0
C845 C 0.98003 0.31518 0.08538 0.0
C846 C 0.98404 0.29936 0.02435 0.0
C847 C 0.97267 0.25636 0.03694 0.0
H848 H 0.00113 0.25106 0.94426 0.0
C849 C 0.97871 0.19602 0.95101 0.0
C850 C 0.97608 0.19731 0.90907 0.0
C851 C 0.9812 0.20984 0.97433 0.0
C852 C 0.99314 0.2524 0.97011 0.0
H853 H 0.9758 0.30127 0.14001 0.0
H854 H 0.97826 0.27498 0.10676 0.0
H855 H 0.00194 0.2761 0.98304 0.0
H856 H 0.97412 0.21391 0.8585 0.0
H857 H 0.97885 0.23817 0.89921 0.0
H858 H 0.96403 0.23253 0.02398 0.0
C859 C 0.97948 0.28584 0.08859 0.0
C860 C 0.99352 0.26675 0.99223 0.0
C861 C 0.97817 0.30085 0.10773 0.0
C862 C 0.97632 0.21262 0.89071 0.0
C863 C 0.97906 0.22644 0.91393 0.0
C864 C 0.97247 0.24192 0.01514 0.0
C865 C 0.98237 0.28491 0.04657 0.0
C866 C 0.98305 0.26906 0.02544 0.0
C867 C 0.98123 0.22519 0.95607 0.0
C868 C 0.9825 0.23993 0.98111 0.0
H869 H 0.9838 0.32515 0.02528 0.0
H870 H 0.98576 0.29919 0.99182 0.0
H871 H 0.96426 0.25775 0.06189 0.0
H872 H 0.9782 0.1844 0.96613 0.0
H873 H 0.98285 0.20856 0.00675 0.0
C874 C 0.20339 0.98396 0.62419 0.0
C875 C 0.18792 0.9843 0.60656 0.0
C876 C 0.21732 0.985 0.60002 0.0
C877 C 0.23132 0.97632 0.49649 0.0
H878 H 0.26847 0.00256 0.52449 0.0
C879 C 0.2859 0.98121 0.38842 0.0
C880 C 0.30145 0.98157 0.40543 0.0
C881 C 0.27215 0.98292 0.41282 0.0
C882 C 0.25828 0.99501 0.51642 0.0
H883 H 0.17512 0.98551 0.54925 0.0
H884 H 0.19924 0.98759 0.50748 0.0
H885 H 0.24443 0.00294 0.56775 0.0
H886 H 0.3147 0.98358 0.46179 0.0
H887 H 0.2908 0.9864 0.50444 0.0
H888 H 0.24513 0.96802 0.44591 0.0
C889 C 0.20062 0.98666 0.54005 0.0
C890 C 0.24449 0.99527 0.54122 0.0
C891 C 0.18673 0.98575 0.56419 0.0
C892 C 0.30295 0.98378 0.44747 0.0
C893 C 0.28918 0.98533 0.47201 0.0
C894 C 0.24512 0.97595 0.47195 0.0
C895 C 0.21609 0.98612 0.55758 0.0
C896 C 0.23082 0.98598 0.53143 0.0
C897 C 0.27356 0.98472 0.45509 0.0
C898 C 0.2588 0.98533 0.4814 0.0
H899 H 0.20471 0.98266 0.6567 0.0
H900 H 0.22906 0.98438 0.61445 0.0
H901 H 0.22112 0.96877 0.48848 0.0
H902 H 0.28436 0.97951 0.35611 0.0
H903 H 0.26039 0.98271 0.39844 0.0
C904 C 0.48544 0.6903 0.06136 0.0
C905 C 0.48402 0.69213 0.10356 0.0
C906 C 0.48747 0.7038 0.03614 0.0
C907 C 0.49856 0.74733 0.03528 0.0
H908 H 0.4715 0.74881 0.93954 0.0
C909 C 0.48699 0.80644 0.9445 0.0
C910 C 0.48473 0.80537 0.90238 0.0
C911 C 0.4888 0.79244 0.96811 0.0
C912 C 0.47939 0.74855 0.96569 0.0
H913 H 0.48374 0.70958 0.15231 0.0
H914 H 0.4873 0.73315 0.10836 0.0
H915 H 0.47153 0.72475 0.98201 0.0
H916 H 0.48293 0.7888 0.85197 0.0
H917 H 0.48653 0.76444 0.89277 0.0
H918 H 0.50636 0.77119 0.01903 0.0
C919 C 0.48707 0.72126 0.09477 0.0
C920 C 0.47938 0.7347 0.99015 0.0
C921 C 0.48495 0.70776 0.11995 0.0
C922 C 0.48468 0.79002 0.88435 0.0
C923 C 0.48661 0.77604 0.90784 0.0
C924 C 0.49865 0.76117 0.01065 0.0
C925 C 0.48809 0.71947 0.05246 0.0
C926 C 0.48886 0.73395 0.02542 0.0
C927 C 0.48839 0.77701 0.95019 0.0
C928 C 0.48897 0.76203 0.97564 0.0
H929 H 0.48427 0.67855 0.04746 0.0
H930 H 0.48829 0.70197 0.00371 0.0
H931 H 0.50615 0.74709 0.062 0.0
H932 H 0.48655 0.818 0.95963 0.0
H933 H 0.48985 0.79371 1.00065 0.0
C934 C 0.80248 0.48706 0.59098 0.0
C935 C 0.81717 0.48744 0.56958 0.0
C936 C 0.78776 0.48857 0.57051 0.0
C937 C 0.76953 0.49961 0.47065 0.0
H938 H 0.73553 0.47043 0.50565 0.0
C939 C 0.71506 0.48167 0.3701 0.0
C940 C 0.69984 0.48051 0.38884 0.0
C941 C 0.72894 0.48463 0.39313 0.0
C942 C 0.74481 0.47882 0.49579 0.0
H943 H 0.82789 0.4894 0.50972 0.0
H944 H 0.80236 0.49194 0.47409 0.0
H945 H 0.76046 0.47205 0.54442 0.0
H946 H 0.68734 0.48102 0.44672 0.0
H947 H 0.71144 0.48641 0.48668 0.0
H948 H 0.75395 0.50595 0.4212 0.0
C949 C 0.80214 0.49101 0.50683 0.0
C950 C 0.75911 0.4798 0.51812 0.0
C951 C 0.81685 0.48962 0.52735 0.0
C952 C 0.69877 0.48237 0.43109 0.0
C953 C 0.71264 0.48521 0.45413 0.0
C954 C 0.75524 0.49854 0.44814 0.0
C955 C 0.78738 0.49024 0.52805 0.0
C956 C 0.77173 0.4901 0.50569 0.0
C957 C 0.72791 0.48622 0.43548 0.0
C958 C 0.74277 0.48804 0.46031 0.0
H959 H 0.80238 0.48531 0.62354 0.0
H960 H 0.77665 0.48817 0.58795 0.0
H961 H 0.77888 0.50786 0.4605 0.0
H962 H 0.71625 0.48012 0.33765 0.0
H963 H 0.74056 0.48513 0.37792 0.0
C964 C 0.02406 0.78534 0.13145 0.0
C965 C 0.02388 0.80041 0.11188 0.0
C966 C 0.02192 0.77112 0.10933 0.0
C967 C 0.00985 0.75548 0.00733 0.0
H968 H 0.03591 0.71873 0.04018 0.0
C969 C 0.02329 0.69965 0.90586 0.0
C970 C 0.02064 0.68458 0.92436 0.0
C971 C 0.02243 0.71386 0.92869 0.0
C972 C 0.02848 0.72887 0.03084 0.0
H973 H 0.0216 0.81243 0.05371 0.0
H974 H 0.0183 0.78777 0.01501 0.0
H975 H 0.03636 0.74329 0.08051 0.0
H976 H 0.01573 0.67241 0.98134 0.0
H977 H 0.01441 0.69716 0.02125 0.0
H978 H 0.00255 0.74105 0.95662 0.0
C979 C 0.01946 0.78682 0.0476 0.0
C980 C 0.02862 0.74293 0.0541 0.0
C981 C 0.02135 0.80103 0.06984 0.0
C982 C 0.01737 0.6839 0.9661 0.0
C983 C 0.0168 0.69803 0.98902 0.0
C984 C 0.00992 0.74147 0.98371 0.0
C985 C 0.01995 0.77163 0.06694 0.0
C986 C 0.0193 0.75645 0.04274 0.0
C987 C 0.01933 0.71314 0.97057 0.0
C988 C 0.01922 0.72804 0.99532 0.0
H989 H 0.02608 0.78455 0.16383 0.0
H990 H 0.02205 0.7597 0.12548 0.0
H991 H 0.00231 0.76551 0.99788 0.0
H992 H 0.02597 0.70044 0.87376 0.0
H993 H 0.02457 0.72536 0.91386 0.0
C994 C 0.81313 0.01204 0.44865 0.0
C995 C 0.81274 0.01239 0.40607 0.0
C996 C 0.7988 0.0115 0.4712 0.0
C997 C 0.75515 0.02125 0.46327 0.0
H998 H 0.75271 0.9981 0.56551 0.0
C999 C 0.69633 0.01821 0.55891 0.0
C1000 C 0.69807 0.0209 0.60072 0.0
C1001 C 0.70993 0.0159 0.53425 0.0
C1002 C 0.75323 0.0047 0.53712 0.0
H1003 H 0.79691 0.01243 0.35384 0.0
H1004 H 0.77187 0.01113 0.39312 0.0
H1005 H 0.77698 0.99588 0.52376 0.0
H1006 H 0.71542 0.02344 0.64934 0.0
H1007 H 0.73918 0.0193 0.60639 0.0
H1008 H 0.73137 0.03006 0.47676 0.0
C1009 C 0.78327 0.01142 0.40916 0.0
C1010 C 0.76717 0.00345 0.51318 0.0
C1011 C 0.79763 0.01203 0.38661 0.0
C1012 C 0.7137 0.02123 0.6173 0.0
C1013 C 0.72729 0.01877 0.59273 0.0
C1014 C 0.74117 0.0224 0.4871 0.0
C1015 C 0.78365 0.01136 0.45182 0.0
C1016 C 0.7684 0.01186 0.47612 0.0
C1017 C 0.72558 0.01618 0.55085 0.0
C1018 C 0.74011 0.01428 0.52453 0.0
H1019 H 0.82441 0.01298 0.4649 0.0
H1020 H 0.79961 0.01185 0.50393 0.0
H1021 H 0.75572 0.02812 0.43531 0.0
H1022 H 0.68451 0.01841 0.54489 0.0
H1023 H 0.70819 0.01392 0.50212 0.0
C1024 C 0.47161 0.11213 0.21984 0.0
C1025 C 0.47595 0.11119 0.17879 0.0
C1026 C 0.45722 0.10495 0.23375 0.0
C1027 C 0.42423 0.09078 0.25679 0.0
H1028 H 0.41627 0.04953 0.20518 0.0
C1029 C 0.38163 0.02892 0.26972 0.0
C1030 C 0.38405 0.0255 0.31093 0.0
C1031 C 0.38894 0.04251 0.25181 0.0
C1032 C 0.41801 0.06116 0.2195 0.0
H1033 H 0.4683 0.10301 0.11971 0.0
H1034 H 0.44285 0.09143 0.14319 0.0
H1035 H 0.43655 0.06756 0.17736 0.0
H1036 H 0.39512 0.034 0.36623 0.0
H1037 H 0.4075 0.05779 0.33556 0.0
H1038 H 0.40613 0.08381 0.30022 0.0
C1039 C 0.45066 0.09717 0.16514 0.0
C1040 C 0.42972 0.07159 0.20346 0.0
C1041 C 0.46512 0.10408 0.15146 0.0
C1042 C 0.39276 0.03657 0.33456 0.0
C1043 C 0.39993 0.05019 0.31685 0.0
C1044 C 0.41256 0.08026 0.27304 0.0
C1045 C 0.44686 0.09678 0.20676 0.0
C1046 C 0.4332 0.08649 0.22211 0.0
C1047 C 0.39877 0.05293 0.27488 0.0
C1048 C 0.40946 0.06519 0.25492 0.0
H1049 H 0.47996 0.11717 0.24166 0.0
H1050 H 0.45486 0.10484 0.26603 0.0
H1051 H 0.42636 0.10221 0.27177 0.0
H1052 H 0.37531 0.02037 0.25065 0.0
H1053 H 0.38765 0.04435 0.21947 0.0
C1054 C 0.47743 0.3966 0.77507 0.0
C1055 C 0.4816 0.39766 0.81617 0.0
C1056 C 0.46354 0.40445 0.76036 0.0
C1057 C 0.43613 0.43863 0.78894 0.0
H1058 H 0.41334 0.42624 0.69138 0.0
C1059 C 0.38566 0.47904 0.7229 0.0
C1060 C 0.38841 0.48326 0.68222 0.0
C1061 C 0.39396 0.46594 0.74043 0.0
C1062 C 0.41954 0.42981 0.71879 0.0
H1063 H 0.47419 0.40694 0.87448 0.0
H1064 H 0.44949 0.4196 0.84979 0.0
H1065 H 0.43354 0.40801 0.72041 0.0
H1066 H 0.40115 0.47658 0.6274 0.0
H1067 H 0.4151 0.45348 0.65737 0.0
H1068 H 0.42216 0.46043 0.78715 0.0
C1069 C 0.45711 0.41333 0.82827 0.0
C1070 C 0.43124 0.41941 0.73535 0.0
C1071 C 0.47114 0.4058 0.8427 0.0
C1072 C 0.3986 0.47342 0.65867 0.0
C1073 C 0.40664 0.46021 0.67592 0.0
C1074 C 0.4243 0.44888 0.77273 0.0
C1075 C 0.45342 0.41339 0.78658 0.0
C1076 C 0.43992 0.42375 0.77041 0.0
C1077 C 0.40496 0.4567 0.71741 0.0
C1078 C 0.41601 0.44474 0.73712 0.0
H1079 H 0.48553 0.39075 0.75384 0.0
H1080 H 0.46132 0.40428 0.72805 0.0
H1081 H 0.44272 0.44275 0.81525 0.0
H1082 H 0.37815 0.48662 0.74194 0.0
H1083 H 0.39232 0.46348 0.77244 0.0
C1084 C 0.10478 0.47187 0.32577 0.0
C1085 C 0.09847 0.47591 0.36393 0.0
C1086 C 0.09981 0.45768 0.30633 0.0
C1087 C 0.06441 0.43015 0.30756 0.0
H1088 H 0.08776 0.40927 0.22024 0.0
C1089 C 0.0308 0.38815 0.20046 0.0
C1090 C 0.03169 0.39409 0.16059 0.0
C1091 C 0.04231 0.39286 0.22921 0.0
C1092 C 0.08115 0.41486 0.24486 0.0
H1093 H 0.08335 0.46762 0.41345 0.0
H1094 H 0.07548 0.44249 0.3809 0.0
H1095 H 0.10205 0.4277 0.26553 0.0
H1096 H 0.0462 0.40803 0.11835 0.0
H1097 H 0.06639 0.41594 0.16808 0.0
H1098 H 0.04349 0.41764 0.28641 0.0
C1099 C 0.08361 0.45053 0.36486 0.0
C1100 C 0.0893 0.42554 0.27065 0.0
C1101 C 0.08826 0.46487 0.3838 0.0
C1102 C 0.04521 0.4033 0.14893 0.0
C1103 C 0.05682 0.4078 0.17744 0.0
C1104 C 0.05638 0.41935 0.28222 0.0
C1105 C 0.08867 0.4471 0.32503 0.0
C1106 C 0.08091 0.43374 0.3016 0.0
C1107 C 0.055 0.40337 0.21834 0.0
C1108 C 0.06451 0.41196 0.24981 0.0
H1109 H 0.11257 0.48025 0.30966 0.0
H1110 H 0.10393 0.45562 0.27562 0.0
H1111 H 0.05735 0.43638 0.33031 0.0
H1112 H 0.02046 0.38111 0.21034 0.0
H1113 H 0.0407 0.38915 0.26047 0.0
C1114 C 0.08855 0.03488 0.65796 0.0
C1115 C 0.09888 0.02403 0.6782 0.0
C1116 C 0.08179 0.04806 0.67827 0.0
C1117 C 0.06762 0.05852 0.77894 0.0
H1118 H 0.0599 0.10086 0.73201 0.0
C1119 C 0.02399 0.10231 0.85763 0.0
C1120 C 0.01324 0.11086 0.83259 0.0
C1121 C 0.03766 0.09474 0.8414 0.0
C1122 C 0.06181 0.08907 0.74551 0.0
H1123 H 0.11072 0.01886 0.73523 0.0
H1124 H 0.09865 0.04188 0.77118 0.0
H1125 H 0.07833 0.08206 0.69843 0.0
H1126 H 0.00854 0.11863 0.77117 0.0
H1127 H 0.0322 0.10516 0.74228 0.0
H1128 H 0.05048 0.0649 0.82457 0.0
C1129 C 0.09594 0.04021 0.73937 0.0
C1130 C 0.07249 0.07833 0.72634 0.0
C1131 C 0.10299 0.02714 0.71872 0.0
C1132 C 0.01687 0.11246 0.79126 0.0
C1133 C 0.03045 0.10463 0.77476 0.0
C1134 C 0.0568 0.06913 0.7978 0.0
C1135 C 0.08492 0.05057 0.71961 0.0
C1136 C 0.07534 0.06283 0.74252 0.0
C1137 C 0.04072 0.09514 0.7994 0.0
C1138 C 0.05352 0.08451 0.78112 0.0
H1139 H 0.08509 0.03271 0.6268 0.0
H1140 H 0.07327 0.05569 0.6622 0.0
H1141 H 0.06931 0.04657 0.79185 0.0
H1142 H 0.02131 0.10072 0.88958 0.0
H1143 H 0.04543 0.08799 0.8617 0.0
C1144 C 0.61496 0.96233 0.67317 0.0
C1145 C 0.61887 0.97513 0.69916 0.0
C1146 C 0.60774 0.94824 0.68836 0.0
C1147 C 0.57973 0.92856 0.72084 0.0
H1148 H 0.58369 0.91263 0.83096 0.0
C1149 C 0.53145 0.88592 0.78935 0.0
C1150 C 0.52527 0.89169 0.82623 0.0
C1151 C 0.54612 0.89198 0.77395 0.0
C1152 C 0.58247 0.91688 0.80003 0.0
H1153 H 0.6189 0.98303 0.76148 0.0
H1154 H 0.60631 0.95859 0.78824 0.0
H1155 H 0.60434 0.9307 0.80339 0.0
H1156 H 0.53002 0.90741 0.87714 0.0
H1157 H 0.55558 0.91764 0.85105 0.0
H1158 H 0.55763 0.91513 0.7179 0.0
C1159 C 0.60914 0.95909 0.75622 0.0
C1160 C 0.59429 0.92731 0.78423 0.0
C1161 C 0.61651 0.97312 0.74098 0.0
C1162 C 0.53457 0.90265 0.84876 0.0
C1163 C 0.54926 0.9085 0.83377 0.0
C1164 C 0.56798 0.91806 0.73655 0.0
C1165 C 0.60394 0.94677 0.72986 0.0
C1166 C 0.59287 0.93367 0.74476 0.0
C1167 C 0.55496 0.90373 0.79549 0.0
C1168 C 0.56894 0.91244 0.77672 0.0
H1169 H 0.61626 0.96377 0.64066 0.0
H1170 H 0.60426 0.93891 0.66717 0.0
H1171 H 0.57795 0.93336 0.69061 0.0
H1172 H 0.5244 0.87766 0.77111 0.0
H1173 H 0.55024 0.88797 0.74447 0.0
C1174 C 0.53077 0.59689 0.16106 0.0
C1175 C 0.51981 0.60416 0.18791 0.0
C1176 C 0.54477 0.58929 0.1755 0.0
C1177 C 0.56954 0.58148 0.26939 0.0
H1178 H 0.57928 0.54141 0.21385 0.0
C1179 C 0.60087 0.52636 0.34361 0.0
C1180 C 0.61127 0.5167 0.32016 0.0
C1181 C 0.59315 0.53982 0.32672 0.0
C1182 C 0.57697 0.5527 0.22934 0.0
H1183 H 0.51494 0.60945 0.25083 0.0
H1184 H 0.53913 0.5959 0.27651 0.0
H1185 H 0.55915 0.55964 0.18597 0.0
H1186 H 0.62226 0.51393 0.26107 0.0
H1187 H 0.60865 0.53754 0.23115 0.0
H1188 H 0.58684 0.57387 0.31403 0.0
C1189 C 0.53733 0.59646 0.24405 0.0
C1190 C 0.56539 0.56326 0.21328 0.0
C1191 C 0.52345 0.60433 0.22941 0.0
C1192 C 0.61455 0.52134 0.28002 0.0
C1193 C 0.60658 0.53471 0.26281 0.0
C1194 C 0.58101 0.57079 0.28573 0.0
C1195 C 0.54793 0.58833 0.2174 0.0
C1196 C 0.56132 0.57777 0.23321 0.0
C1197 C 0.59539 0.5438 0.28566 0.0
C1198 C 0.58474 0.55617 0.26613 0.0
H1199 H 0.52809 0.59637 0.12896 0.0
H1200 H 0.55276 0.58362 0.15377 0.0
H1201 H 0.56702 0.59259 0.28542 0.0
H1202 H 0.59795 0.52291 0.3745 0.0
H1203 H 0.58453 0.54641 0.34513 0.0
C1204 C 0.97011 0.61818 0.77202 0.0
C1205 C 0.96664 0.61437 0.81259 0.0
C1206 C 0.9597 0.61304 0.74116 0.0
C1207 C 0.92058 0.59186 0.71965 0.0
H1208 H 0.94764 0.56547 0.65038 0.0
C1209 C 0.89885 0.53173 0.64945 0.0
C1210 C 0.9064 0.52601 0.61412 0.0
C1211 C 0.90366 0.54642 0.66672 0.0
C1212 C 0.93975 0.57299 0.6685 0.0
H1213 H 0.94875 0.60418 0.85324 0.0
H1214 H 0.93049 0.59557 0.79986 0.0
H1215 H 0.95989 0.58609 0.69189 0.0
H1216 H 0.92389 0.53182 0.56729 0.0
H1217 H 0.9317 0.55767 0.5961 0.0
H1218 H 0.90045 0.57833 0.69699 0.0
C1219 C 0.94118 0.60236 0.79144 0.0
C1220 C 0.94684 0.58491 0.69243 0.0
C1221 C 0.95164 0.60733 0.82214 0.0
C1222 C 0.91799 0.53581 0.59484 0.0
C1223 C 0.92256 0.55059 0.61162 0.0
C1224 C 0.91342 0.57998 0.69532 0.0
C1225 C 0.94562 0.60417 0.75054 0.0
C1226 C 0.93744 0.59418 0.7192 0.0
C1227 C 0.91595 0.55583 0.64867 0.0
C1228 C 0.92298 0.57005 0.67026 0.0
H1229 H 0.98167 0.62344 0.76383 0.0
H1230 H 0.96332 0.61485 0.7099 0.0
H1231 H 0.91298 0.59886 0.7398 0.0
H1232 H 0.88994 0.52441 0.66512 0.0
H1233 H 0.89835 0.54989 0.69541 0.0
C1234 C 0.90449 0.97504 0.3062 0.0
C1235 C 0.90737 0.97833 0.34726 0.0
C1236 C 0.91192 0.96178 0.28731 0.0
C1237 C 0.94693 0.9334 0.30308 0.0
H1238 H 0.93115 0.91461 0.20328 0.0
C1239 C 0.98384 0.88488 0.21837 0.0
C1240 C 0.98769 0.8898 0.17874 0.0
C1241 C 0.97128 0.89253 0.23973 0.0
C1242 C 0.93564 0.91966 0.23133 0.0
H1243 H 0.91934 0.96977 0.40144 0.0
H1244 H 0.93117 0.94601 0.36983 0.0
H1245 H 0.91421 0.93373 0.24033 0.0
H1246 H 0.98069 0.90562 0.12932 0.0
H1247 H 0.95848 0.91846 0.16591 0.0
H1248 H 0.96828 0.91915 0.29406 0.0
C1249 C 0.92397 0.95403 0.35119 0.0
C1250 C 0.926 0.9308 0.25249 0.0
C1251 C 0.91697 0.96755 0.36967 0.0
C1252 C 0.9779 0.90149 0.15976 0.0
C1253 C 0.96518 0.90887 0.18073 0.0
C1254 C 0.95637 0.92203 0.28242 0.0
C1255 C 0.92211 0.95122 0.3093 0.0
C1256 C 0.93161 0.93813 0.28838 0.0
C1257 C 0.96215 0.90497 0.22151 0.0
C1258 C 0.95099 0.91525 0.24593 0.0
H1259 H 0.89734 0.98331 0.28804 0.0
H1260 H 0.91023 0.96035 0.25502 0.0
H1261 H 0.95207 0.93891 0.32979 0.0
H1262 H 0.99132 0.87609 0.23393 0.0
H1263 H 0.96916 0.88922 0.27108 0.0
C1264 C 0.62034 0.05945 0.77038 0.0
C1265 C 0.6089 0.05442 0.74156 0.0
C1266 C 0.61589 0.07021 0.8013 0.0
C1267 C 0.58377 0.0996 0.83101 0.0
H1268 H 0.59469 0.08728 0.94103 0.0
C1269 C 0.54476 0.11659 0.96873 0.0
C1270 C 0.55213 0.1189 0.00647 0.0
C1271 C 0.55404 0.11243 0.93487 0.0
C1272 C 0.59178 0.09115 0.91051 0.0
H1273 H 0.58402 0.05734 0.72177 0.0
H1274 H 0.57638 0.07584 0.77511 0.0
H1275 H 0.60702 0.07298 0.88434 0.0
H1276 H 0.57489 0.11921 0.03862 0.0
H1277 H 0.59129 0.11222 0.97915 0.0
H1278 H 0.56811 0.11737 0.85713 0.0
C1279 C 0.58878 0.07161 0.77401 0.0
C1280 C 0.59887 0.08292 0.87796 0.0
C1281 C 0.59315 0.06083 0.74354 0.0
C1282 C 0.56902 0.11777 0.00953 0.0
C1283 C 0.57833 0.11355 0.97565 0.0
C1284 C 0.5767 0.10781 0.86351 0.0
C1285 C 0.59999 0.07632 0.80361 0.0
C1286 C 0.59458 0.08673 0.83784 0.0
C1287 C 0.57089 0.11036 0.93816 0.0
C1288 C 0.58026 0.10339 0.9037 0.0
H1289 H 0.63257 0.05475 0.76968 0.0
H1290 H 0.62484 0.07368 0.82356 0.0
H1291 H 0.58043 0.10304 0.80046 0.0
H1292 H 0.53171 0.11705 0.96602 0.0
H1293 H 0.54784 0.10984 0.90676 0.0
C1294 C 0.37308 0.57483 0.50782 0.0
C1295 C 0.37138 0.55801 0.50489 0.0
C1296 C 0.37713 0.58401 0.47354 0.0
C1297 C 0.38253 0.58222 0.36126 0.0
H1298 H 0.42033 0.60866 0.3821 0.0
C1299 C 0.43174 0.59255 0.24245 0.0
C1300 C 0.43998 0.6074 0.24013 0.0
C1301 C 0.42031 0.58968 0.27269 0.0
C1302 C 0.40958 0.60165 0.3757 0.0
H1303 H 0.37176 0.53761 0.46424 0.0
H1304 H 0.37854 0.55353 0.40422 0.0
H1305 H 0.40459 0.59806 0.43873 0.0
H1306 H 0.44231 0.63107 0.26746 0.0
H1307 H 0.42223 0.62597 0.32095 0.0
H1308 H 0.38793 0.58526 0.29823 0.0
C1309 C 0.37657 0.55978 0.43258 0.0
C1310 C 0.40052 0.59556 0.40821 0.0
C1311 C 0.37261 0.55064 0.46687 0.0
C1312 C 0.43621 0.61949 0.26847 0.0
C1313 C 0.42476 0.61655 0.29913 0.0
C1314 C 0.39157 0.58831 0.32878 0.0
C1315 C 0.37956 0.57648 0.43583 0.0
C1316 C 0.38719 0.58535 0.4014 0.0
C1317 C 0.41675 0.60155 0.30166 0.0
C1318 C 0.40553 0.59763 0.33564 0.0
H1319 H 0.37254 0.58067 0.53713 0.0
H1320 H 0.3792 0.59686 0.47696 0.0
H1321 H 0.37219 0.57461 0.35495 0.0
H1322 H 0.43422 0.58295 0.22107 0.0
H1323 H 0.41462 0.5779 0.27407 0.0
C1324 C 0.95071 0.39363 0.95336 0.0
C1325 C 0.96718 0.38951 0.95258 0.0
C1326 C 0.94275 0.39804 0.91757 0.0
C1327 C 0.95294 0.41738 0.82138 0.0
H1328 H 0.90852 0.40841 0.79134 0.0
C1329 C 0.92685 0.44294 0.67437 0.0
C1330 C 0.91108 0.44933 0.67518 0.0
C1331 C 0.9327 0.43377 0.70665 0.0
C1332 C 0.92089 0.41114 0.79957 0.0
H1333 H 0.98807 0.38584 0.91424 0.0
H1334 H 0.97417 0.39326 0.85147 0.0
H1335 H 0.92046 0.39468 0.85007 0.0
H1336 H 0.88891 0.45061 0.71022 0.0
H1337 H 0.89931 0.43476 0.7674 0.0
H1338 H 0.9534 0.43412 0.77211 0.0
C1339 C 0.9674 0.39325 0.87962 0.0
C1340 C 0.92774 0.40322 0.83306 0.0
C1341 C 0.97531 0.38883 0.91534 0.0
C1342 C 0.90111 0.44587 0.70868 0.0
C1343 C 0.90705 0.43673 0.74134 0.0
C1344 C 0.94611 0.42532 0.78825 0.0
C1345 C 0.95121 0.39852 0.88056 0.0
C1346 C 0.94388 0.40621 0.84417 0.0
C1347 C 0.92304 0.43083 0.74098 0.0
C1348 C 0.93003 0.42227 0.7767 0.0
H1349 H 0.94431 0.39451 0.98196 0.0
H1350 H 0.93032 0.40214 0.91935 0.0
H1351 H 0.96525 0.42031 0.82977 0.0
H1352 H 0.93484 0.44517 0.64888 0.0
H1353 H 0.94492 0.42909 0.70479 0.0
C1354 C 0.07631 0.90501 0.21433 0.0
C1355 C 0.06631 0.89142 0.21959 0.0
C1356 C 0.08588 0.91061 0.24599 0.0
C1357 C 0.10214 0.9013 0.34824 0.0
H1358 H 0.09858 0.94774 0.36114 0.0
C1359 C 0.11513 0.93559 0.4976 0.0
C1360 C 0.12056 0.95162 0.49488 0.0
C1361 C 0.11223 0.92666 0.46245 0.0
C1362 C 0.10006 0.93481 0.35765 0.0
H1363 H 0.05923 0.87248 0.26147 0.0
H1364 H 0.07585 0.8825 0.31753 0.0
H1365 H 0.08626 0.93488 0.30311 0.0
H1366 H 0.12813 0.97067 0.45414 0.0
H1367 H 0.1237 0.95493 0.39255 0.0
H1368 H 0.11566 0.90133 0.40372 0.0
C1369 C 0.07637 0.8887 0.2886 0.0
C1370 C 0.09292 0.9274 0.32431 0.0
C1371 C 0.06684 0.88296 0.25656 0.0
C1372 C 0.12421 0.95822 0.45681 0.0
C1373 C 0.12141 0.94927 0.42165 0.0
C1374 C 0.10934 0.90876 0.38178 0.0
C1375 C 0.08559 0.90291 0.28399 0.0
C1376 C 0.09381 0.91056 0.31916 0.0
C1377 C 0.11467 0.93366 0.42399 0.0
C1378 C 0.10833 0.92562 0.38694 0.0
H1379 H 0.07638 0.91165 0.18596 0.0
H1380 H 0.09317 0.92133 0.24104 0.0
H1381 H 0.10313 0.88832 0.34503 0.0
H1382 H 0.11189 0.93045 0.52676 0.0
H1383 H 0.10692 0.91475 0.46545 0.0
C1384 C 0.57112 0.38232 0.99145 0.0
C1385 C 0.55423 0.38117 0.99407 0.0
C1386 C 0.5803 0.38542 0.02616 0.0
C1387 C 0.57859 0.38769 0.13884 0.0
H1388 H 0.60785 0.42388 0.12427 0.0
C1389 C 0.5946 0.43097 0.26775 0.0
C1390 C 0.60997 0.43822 0.26931 0.0
C1391 C 0.59036 0.42088 0.23573 0.0
C1392 C 0.60003 0.41354 0.1289 0.0
H1393 H 0.53362 0.38182 0.0344 0.0
H1394 H 0.54957 0.38705 0.09525 0.0
H1395 H 0.59577 0.41112 0.06528 0.0
H1396 H 0.6332 0.43998 0.23896 0.0
H1397 H 0.62577 0.42223 0.18274 0.0
H1398 H 0.58246 0.39044 0.20256 0.0
C1399 C 0.55584 0.38533 0.06674 0.0
C1400 C 0.59308 0.40621 0.095 0.0
C1401 C 0.54669 0.38231 0.03201 0.0
C1402 C 0.62123 0.43465 0.23862 0.0
C1403 C 0.61695 0.42454 0.20632 0.0
C1404 C 0.58558 0.39498 0.17273 0.0
C1405 C 0.57271 0.38746 0.06402 0.0
C1406 C 0.58193 0.39348 0.09961 0.0
C1407 C 0.60137 0.41771 0.20424 0.0
C1408 C 0.59601 0.40831 0.16824 0.0
H1409 H 0.5771 0.38177 0.96224 0.0
H1410 H 0.59327 0.38686 0.02311 0.0
H1411 H 0.57025 0.37775 0.14339 0.0
H1412 H 0.5856 0.43334 0.29091 0.0
H1413 H 0.57819 0.41607 0.23493 0.0
C1414 C 0.11309 0.55916 0.55865 0.0
C1415 C 0.11428 0.54265 0.54967 0.0
C1416 C 0.10841 0.56412 0.59749 0.0
C1417 C 0.08142 0.54892 0.67512 0.0
H1418 H 0.09371 0.58712 0.73521 0.0
C1419 C 0.04343 0.57062 0.81115 0.0
C1420 C 0.04089 0.58737 0.81411 0.0
C1421 C 0.05502 0.56444 0.78437 0.0
C1422 C 0.09004 0.57648 0.71862 0.0
H1423 H 0.11288 0.51844 0.5743 0.0
H1424 H 0.10502 0.52705 0.64228 0.0
H1425 H 0.11069 0.57786 0.67915 0.0
H1426 H 0.04879 0.61078 0.79168 0.0
H1427 H 0.06854 0.60005 0.74437 0.0
H1428 H 0.06039 0.54791 0.71266 0.0
C1429 C 0.1076 0.53617 0.61954 0.0
C1430 C 0.09985 0.57114 0.6867 0.0
C1431 C 0.11235 0.53126 0.58088 0.0
C1432 C 0.05045 0.5978 0.79032 0.0
C1433 C 0.0619 0.59163 0.76332 0.0
C1434 C 0.07155 0.55434 0.70664 0.0
C1435 C 0.10472 0.55259 0.62759 0.0
C1436 C 0.09555 0.55739 0.66437 0.0
C1437 C 0.06425 0.57486 0.75963 0.0
C1438 C 0.07559 0.56833 0.72849 0.0
H1439 H 0.11411 0.5681 0.5347 0.0
H1440 H 0.10621 0.57685 0.60273 0.0
H1441 H 0.07758 0.53848 0.65792 0.0
H1442 H 0.03638 0.56224 0.82928 0.0
H1443 H 0.05666 0.55147 0.78291 0.0
C1444 C 0.91936 0.06028 0.29564 0.0
C1445 C 0.90306 0.05596 0.30141 0.0
C1446 C 0.92375 0.07137 0.2656 0.0
C1447 C 0.90913 0.08861 0.16913 0.0
H1448 H 0.94601 0.11705 0.18236 0.0
C1449 C 0.93262 0.12567 0.03462 0.0
C1450 C 0.94916 0.12327 0.02752 0.0
C1451 C 0.9259 0.12173 0.07237 0.0
C1452 C 0.93564 0.10923 0.17827 0.0
H1453 H 0.87854 0.0603 0.28083 0.0
H1454 H 0.88618 0.07992 0.22879 0.0
H1455 H 0.93603 0.10149 0.24024 0.0
H1456 H 0.97186 0.11583 0.05413 0.0
H1457 H 0.96028 0.10913 0.12013 0.0
H1458 H 0.90897 0.09602 0.10703 0.0
C1459 C 0.89561 0.07447 0.24703 0.0
C1460 C 0.92997 0.10024 0.21136 0.0
C1461 C 0.89121 0.06326 0.27695 0.0
C1462 C 0.9591 0.11805 0.05936 0.0
C1463 C 0.95244 0.11419 0.09708 0.0
C1464 C 0.91474 0.09765 0.13617 0.0
C1465 C 0.91196 0.07855 0.24071 0.0
C1466 C 0.91687 0.08952 0.20696 0.0
C1467 C 0.93565 0.11531 0.10346 0.0
C1468 C 0.92828 0.1078 0.14009 0.0
H1469 H 0.92884 0.05487 0.31382 0.0
H1470 H 0.93648 0.07395 0.2612 0.0
H1471 H 0.89918 0.08032 0.16436 0.0
H1472 H 0.92471 0.1294 0.01016 0.0
H1473 H 0.91295 0.12288 0.07653 0.0
C1474 C 0.38725 0.93534 0.49055 0.0
C1475 C 0.3832 0.95175 0.49418 0.0
C1476 C 0.39282 0.92664 0.52425 0.0
C1477 C 0.41391 0.9347 0.62027 0.0
H1478 H 0.40657 0.88926 0.64328 0.0
C1479 C 0.4371 0.907 0.76615 0.0
C1480 C 0.44647 0.89285 0.76336 0.0
C1481 C 0.42776 0.91226 0.73369 0.0
C1482 C 0.40881 0.90191 0.63691 0.0
H1483 H 0.38113 0.97184 0.53545 0.0
H1484 H 0.39024 0.9566 0.59475 0.0
H1485 H 0.39226 0.90236 0.58681 0.0
H1486 H 0.45247 0.87248 0.72511 0.0
H1487 H 0.43593 0.88184 0.66741 0.0
H1488 H 0.43037 0.93438 0.67005 0.0
C1489 C 0.3894 0.95043 0.56595 0.0
C1490 C 0.40061 0.90943 0.60469 0.0
C1491 C 0.38393 0.95912 0.53225 0.0
C1492 C 0.4454 0.88344 0.72806 0.0
C1493 C 0.43597 0.8888 0.69513 0.0
C1494 C 0.42199 0.92725 0.65233 0.0
C1495 C 0.39452 0.93426 0.56207 0.0
C1496 C 0.40294 0.92599 0.5963 0.0
C1497 C 0.42752 0.90358 0.69729 0.0
C1498 C 0.41941 0.91085 0.6614 0.0
H1499 H 0.38711 0.92958 0.46113 0.0
H1500 H 0.39675 0.91427 0.52003 0.0
H1501 H 0.41646 0.9473 0.61399 0.0
H1502 H 0.43737 0.91437 0.79321 0.0
H1503 H 0.42107 0.92346 0.73669 0.0
C1504 C 0.45907 0.89069 0.03463 0.0
C1505 C 0.45122 0.88437 1.0006 0.0
C1506 C 0.4503 0.89487 0.06924 0.0
C1507 C 0.40833 0.90578 0.09993 0.0
H1508 H 0.42887 0.90915 0.20488 0.0
C1509 C 0.38446 0.94894 0.22417 0.0
C1510 C 0.38848 0.94587 0.2647 0.0
C1511 C 0.39006 0.93868 0.19346 0.0
C1512 C 0.42267 0.90806 0.17618 0.0
H1513 H 0.4282 0.87659 0.97657 0.0
H1514 H 0.41288 0.88286 0.03805 0.0
H1515 H 0.44241 0.89479 0.15109 0.0
H1516 H 0.40048 0.9293 0.30558 0.0
H1517 H 0.40921 0.91074 0.2528 0.0
H1518 H 0.38828 0.91849 0.12563 0.0
C1519 C 0.42577 0.88515 0.0377 0.0
C1520 C 0.43067 0.90002 0.14482 0.0
C1521 C 0.43457 0.88122 0.00272 0.0
C1522 C 0.39726 0.93189 0.2744 0.0
C1523 C 0.40247 0.9214 0.24396 0.0
C1524 C 0.40016 0.91353 0.13162 0.0
C1525 C 0.43342 0.89258 0.07097 0.0
C1526 C 0.42386 0.89914 0.10585 0.0
C1527 C 0.39954 0.92495 0.20281 0.0
C1528 C 0.40736 0.91516 0.17002 0.0
H1529 H 0.47189 0.89343 0.0334 0.0
H1530 H 0.45671 0.90078 0.09359 0.0
H1531 H 0.40266 0.90556 0.07041 0.0
H1532 H 0.3779 0.95981 0.21602 0.0
H1533 H 0.38765 0.94205 0.16234 0.0
C1534 C 0.56504 0.38068 0.73472 0.0
C1535 C 0.56128 0.39277 0.76306 0.0
C1536 C 0.57649 0.38359 0.70406 0.0
C1537 C 0.60963 0.41191 0.67422 0.0
H1538 H 0.59661 0.40196 0.56438 0.0
C1539 C 0.62787 0.44971 0.53586 0.0
C1540 C 0.62917 0.44233 0.49786 0.0
C1541 C 0.62413 0.44053 0.57023 0.0
C1542 C 0.60068 0.40451 0.59487 0.0
H1543 H 0.56707 0.41722 0.78208 0.0
H1544 H 0.58665 0.42225 0.72906 0.0
H1545 H 0.58097 0.39133 0.62113 0.0
H1546 H 0.62836 0.41963 0.46574 0.0
H1547 H 0.62205 0.40338 0.52605 0.0
H1548 H 0.62889 0.42574 0.64788 0.0
C1549 C 0.58097 0.41047 0.73046 0.0
C1550 C 0.59168 0.39841 0.62745 0.0
C1551 C 0.56954 0.40761 0.76072 0.0
C1552 C 0.62776 0.42548 0.49502 0.0
C1553 C 0.62392 0.41626 0.52939 0.0
C1554 C 0.61861 0.41803 0.64167 0.0
C1555 C 0.58451 0.39859 0.7015 0.0
C1556 C 0.59572 0.4025 0.66747 0.0
C1557 C 0.62142 0.42378 0.56708 0.0
C1558 C 0.61393 0.41484 0.60157 0.0
H1559 H 0.55894 0.3691 0.73574 0.0
H1560 H 0.57901 0.37416 0.68226 0.0
H1561 H 0.61327 0.41502 0.70473 0.0
H1562 H 0.6285 0.46275 0.53842 0.0
H1563 H 0.6221 0.44677 0.59858 0.0
C1564 C 0.04059 0.59836 0.02863 0.0
C1565 C 0.02421 0.60263 0.03212 0.0
C1566 C 0.04943 0.59374 0.06278 0.0
C1567 C 0.04908 0.59482 0.17519 0.0
H1568 H 0.07809 0.55818 0.1652 0.0
C1569 C 0.07185 0.55824 0.3123 0.0
C1570 C 0.08767 0.55196 0.31187 0.0
C1571 C 0.06565 0.56639 0.27866 0.0
C1572 C 0.07027 0.56861 0.16839 0.0
H1573 H 0.00404 0.60502 0.07342 0.0
H1574 H 0.01942 0.59675 0.13347 0.0
H1575 H 0.06396 0.56829 0.10557 0.0
H1576 H 0.1096 0.5499 0.27609 0.0
H1577 H 0.09872 0.56423 0.21704 0.0
H1578 H 0.05513 0.59486 0.23826 0.0
C1579 C 0.02558 0.59739 0.10452 0.0
C1580 C 0.06213 0.5744 0.13418 0.0
C1581 C 0.01674 0.60204 0.07025 0.0
C1582 C 0.09737 0.55459 0.27743 0.0
C1583 C 0.0911 0.56269 0.24351 0.0
C1584 C 0.0572 0.589 0.20942 0.0
C1585 C 0.04203 0.59309 0.10115 0.0
C1586 C 0.05128 0.58746 0.13723 0.0
C1587 C 0.07507 0.56845 0.24354 0.0
C1588 C 0.06773 0.57569 0.20654 0.0
H1589 H 0.04649 0.59835 0.99928 0.0
H1590 H 0.06208 0.59063 0.05906 0.0
H1591 H 0.04105 0.60508 0.1785 0.0
H1592 H 0.06404 0.5565 0.33835 0.0
H1593 H 0.05321 0.5705 0.27962 0.0
C1594 C 0.93066 0.11941 0.75912 0.0
C1595 C 0.93315 0.10868 0.79163 0.0
C1596 C 0.92034 0.11517 0.72718 0.0
C1597 C 0.88871 0.08537 0.69645 0.0
H1598 H 0.90763 0.09047 0.58964 0.0
C1599 C 0.87635 0.04271 0.56273 0.0
C1600 C 0.87712 0.04889 0.52317 0.0
C1601 C 0.87881 0.05287 0.59591 0.0
C1602 C 0.90193 0.08924 0.61907 0.0
H1603 H 0.92597 0.08556 0.81733 0.0
H1604 H 0.90825 0.07822 0.76205 0.0
H1605 H 0.92024 0.10351 0.64744 0.0
H1606 H 0.88023 0.07048 0.48688 0.0
H1607 H 0.88421 0.0884 0.54485 0.0
H1608 H 0.87082 0.07045 0.66817 0.0
C1609 C 0.91413 0.08991 0.76099 0.0
C1610 C 0.90918 0.09675 0.65229 0.0
C1611 C 0.92445 0.09408 0.7926 0.0
C1612 C 0.87928 0.06554 0.51725 0.0
C1613 C 0.88179 0.07572 0.55038 0.0
C1614 C 0.88148 0.07783 0.66322 0.0
C1615 C 0.9122 0.10021 0.72742 0.0
C1616 C 0.90293 0.09454 0.69155 0.0
C1617 C 0.88224 0.06938 0.59 0.0
C1618 C 0.88824 0.07934 0.62429 0.0
H1619 H 0.93716 0.13076 0.75753 0.0
H1620 H 0.91899 0.12345 0.70191 0.0
H1621 H 0.88342 0.08364 0.72621 0.0
H1622 H 0.87504 0.02983 0.56781 0.0
H1623 H 0.87925 0.04755 0.62592 0.0
C1624 C 0.4533 0.61652 0.97151 0.0
C1625 C 0.44615 0.61733 0.00996 0.0
C1626 C 0.44387 0.6133 0.93734 0.0
C1627 C 0.40688 0.59163 0.91045 0.0
H1628 H 0.41551 0.60904 0.80336 0.0
C1629 C 0.37756 0.56414 0.76686 0.0
C1630 C 0.38852 0.56133 0.73503 0.0
C1631 C 0.38195 0.57397 0.79965 0.0
C1632 C 0.41295 0.60403 0.83306 0.0
H1633 H 0.42367 0.61581 0.04334 0.0
H1634 H 0.40701 0.61035 0.9835 0.0
H1635 H 0.42826 0.62128 0.8624 0.0
H1636 H 0.41241 0.56733 0.71187 0.0
H1637 H 0.42002 0.5841 0.76856 0.0
H1638 H 0.39214 0.57394 0.88107 0.0
C1639 C 0.41989 0.61222 0.9796 0.0
C1640 C 0.42026 0.61106 0.86688 0.0
C1641 C 0.42934 0.61553 0.01372 0.0
C1642 C 0.40366 0.5691 0.73592 0.0
C1643 C 0.40799 0.5789 0.76839 0.0
C1644 C 0.39963 0.58454 0.8766 0.0
C1645 C 0.42711 0.61063 0.94115 0.0
C1646 C 0.41762 0.6047 0.90588 0.0
C1647 C 0.39734 0.58128 0.80104 0.0
C1648 C 0.40293 0.59037 0.83736 0.0
H1649 H 0.46631 0.61751 0.96821 0.0
H1650 H 0.44986 0.61195 0.90834 0.0
H1651 H 0.40473 0.5863 0.94 0.0
H1652 H 0.36579 0.55838 0.76706 0.0
H1653 H 0.37339 0.57567 0.82416 0.0
C1654 C 0.94647 0.40487 0.19699 0.0
C1655 C 0.95498 0.41497 0.17008 0.0
C1656 C 0.93497 0.41125 0.22349 0.0
C1657 C 0.92353 0.44947 0.27312 0.0
H1658 H 0.88664 0.42406 0.30854 0.0
C1659 C 0.88482 0.47124 0.40477 0.0
C1660 C 0.88476 0.45992 0.43649 0.0
C1661 C 0.88866 0.46643 0.36537 0.0
C1662 C 0.89681 0.43134 0.2987 0.0
H1663 H 0.95769 0.43972 0.1491 0.0
H1664 H 0.93734 0.45083 0.19484 0.0
H1665 H 0.90313 0.41472 0.25175 0.0
H1666 H 0.88726 0.43465 0.45204 0.0
H1667 H 0.89357 0.42606 0.383 0.0
H1668 H 0.91739 0.46591 0.32055 0.0
C1669 C 0.9398 0.43798 0.196 0.0
C1670 C 0.90634 0.42596 0.26638 0.0
C1671 C 0.95143 0.4316 0.16964 0.0
C1672 C 0.88689 0.4435 0.42775 0.0
C1673 C 0.89062 0.43864 0.38828 0.0
C1674 C 0.91391 0.45492 0.30511 0.0
C1675 C 0.93154 0.4279 0.22356 0.0
C1676 C 0.92011 0.43471 0.25398 0.0
C1677 C 0.89242 0.45019 0.3572 0.0
C1678 C 0.9007 0.44571 0.31892 0.0
H1679 H 0.94892 0.39201 0.1983 0.0
H1680 H 0.92913 0.40314 0.24479 0.0
H1681 H 0.93413 0.45644 0.26489 0.0
H1682 H 0.88351 0.48402 0.41116 0.0
H1683 H 0.88983 0.47556 0.34192 0.0
C1684 C 0.07868 0.93879 0.71432 0.0
C1685 C 0.09461 0.94475 0.71345 0.0
C1686 C 0.0739 0.92749 0.74358 0.0
C1687 C 0.08936 0.89817 0.82026 0.0
H1688 H 0.04768 0.90578 0.87065 0.0
C1689 C 0.07023 0.87342 0.97786 0.0
C1690 C 0.05368 0.87115 0.98543 0.0
C1691 C 0.07554 0.87857 0.93957 0.0
C1692 C 0.0592 0.90319 0.85642 0.0
H1693 H 0.11811 0.94312 0.74233 0.0
H1694 H 0.10969 0.92359 0.79379 0.0
H1695 H 0.05632 0.92275 0.81463 0.0
H1696 H 0.02986 0.87106 0.95861 0.0
H1697 H 0.0391 0.87929 0.8913 0.0
H1698 H 0.09236 0.87883 0.86312 0.0
C1699 C 0.10093 0.92752 0.77146 0.0
C1700 C 0.0642 0.91301 0.82423 0.0
C1701 C 0.10574 0.93882 0.74208 0.0
C1702 C 0.04272 0.87246 0.95323 0.0
C1703 C 0.04801 0.8775 0.91493 0.0
C1704 C 0.08435 0.88832 0.85261 0.0
C1705 C 0.08489 0.92185 0.7729 0.0
C1706 C 0.07939 0.91074 0.8059 0.0
C1707 C 0.06435 0.88153 0.90828 0.0
C1708 C 0.06924 0.89078 0.87131 0.0
H1709 H 0.06978 0.94294 0.69259 0.0
H1710 H 0.06152 0.9232 0.74328 0.0
H1711 H 0.10106 0.89595 0.80653 0.0
H1712 H 0.07883 0.87288 0.00257 0.0
H1713 H 0.08819 0.8816 0.9357 0.0
C1714 C 0.55586 0.11592 0.27471 0.0
C1715 C 0.55413 0.1064 0.23979 0.0
C1716 C 0.56505 0.11024 0.30768 0.0
C1717 C 0.57795 0.07133 0.35143 0.0
H1718 H 0.60743 0.09629 0.41751 0.0
C1719 C 0.61517 0.03987 0.47412 0.0
C1720 C 0.61581 0.04747 0.51191 0.0
C1721 C 0.60981 0.04836 0.43999 0.0
C1722 C 0.59915 0.0892 0.39947 0.0
H1723 H 0.56176 0.08414 0.21075 0.0
H1724 H 0.57775 0.07451 0.26729 0.0
H1725 H 0.59362 0.10924 0.36015 0.0
H1726 H 0.61178 0.06982 0.5441 0.0
H1727 H 0.60228 0.08477 0.48445 0.0
H1728 H 0.58309 0.0514 0.39053 0.0
C1729 C 0.5717 0.08608 0.27003 0.0
C1730 C 0.59123 0.09663 0.3667 0.0
C1731 C 0.56255 0.09166 0.23751 0.0
C1732 C 0.61168 0.06387 0.51491 0.0
C1733 C 0.60622 0.07238 0.48078 0.0
C1734 C 0.58577 0.06396 0.38401 0.0
C1735 C 0.57264 0.095 0.30603 0.0
C1736 C 0.58069 0.08769 0.34203 0.0
C1737 C 0.60472 0.06456 0.44315 0.0
C1738 C 0.59662 0.07271 0.40825 0.0
H1739 H 0.54954 0.12734 0.2773 0.0
H1740 H 0.5656 0.11741 0.33504 0.0
H1741 H 0.56959 0.06418 0.33369 0.0
H1742 H 0.61807 0.02715 0.4714 0.0
H1743 H 0.60911 0.04203 0.41137 0.0
loop_
_geom_bond_atom_site_label_1
_geom_bond_atom_site_label_2
_geom_bond_distance
_geom_bond_site_symmetry_2
_ccdc_geom_bond_type
Co0 O3 1.970 . S
Co0 N17 1.989 . S
Co0 O25 1.967 . S
Co0 O32 1.920 . S
Co1 O4 1.966 . S
Co1 N10 2.022 . S
Co1 N18 1.993 . S
Co1 O26 1.941 . S
C2 O3 1.258 . S
C2 O4 1.263 . S
O3 Co0 1.970 . S
O3 C2 1.258 . S
O4 Co1 1.966 . S
O4 C2 1.263 . S
C5 O6 1.235 . S
C5 O32 1.289 . S
O6 C5 1.235 . S
C7 C9 1.400 . S
C7 N10 1.351 . S
C7 C12 1.501 . S
C8 C9 1.387 . S
C8 N11 1.341 . S
C9 C7 1.400 . S
C9 C8 1.387 . S
N10 Co1 2.022 . S
N10 C7 1.351 . S
N10 N11 1.365 . S
N11 C8 1.341 . S
N11 N10 1.365 . S
N11 H31 0.862 . S
C12 C7 1.501 . S
C12 H13 0.961 . S
C12 H14 0.961 . S
C12 H15 0.960 . S
H13 C12 0.961 . S
H14 C12 0.961 . S
H15 C12 0.960 . S
C16 N17 1.342 1_556 S
C16 C20 1.401 . S
C16 C21 1.499 . S
N17 Co0 1.989 . S
N17 C16 1.342 1_554 S
N17 N18 1.388 . S
N18 Co1 1.993 . S
N18 N17 1.388 . S
N18 C19 1.346 1_554 S
C19 N18 1.346 1_556 S
C19 C20 1.396 . S
C19 C29 1.510 . S
C20 C16 1.401 . S
C20 C19 1.396 . S
C21 C16 1.499 . S
C21 H22 0.959 . S
C21 H23 0.960 . S
C21 H24 0.961 . S
H22 C21 0.959 . S
H23 C21 0.960 . S
H24 C21 0.961 . S
O25 Co0 1.967 . S
O25 C33 1.258 . S
O26 Co1 1.941 . S
O26 C33 1.266 . S
H27 C29 0.959 . S
H28 C29 0.961 . S
C29 C19 1.510 . S
C29 H27 0.959 . S
C29 H28 0.961 . S
C29 H30 0.960 . S
H30 C29 0.960 . S
H31 N11 0.862 . S
O32 Co0 1.920 . S
O32 C5 1.289 . S
C33 O25 1.258 . S
C33 O26 1.266 . S
Co34 O37 1.970 . S
Co34 N51 1.989 . S
Co34 O59 1.967 . S
Co34 O66 1.920 . S
Co35 O38 1.966 . S
Co35 N44 2.022 . S
Co35 N52 1.993 . S
Co35 O60 1.941 . S
C36 O37 1.258 . S
C36 O38 1.263 . S
O37 Co34 1.970 . S
O37 C36 1.258 . S
O38 Co35 1.966 . S
O38 C36 1.263 . S
C39 O40 1.235 . S
C39 O66 1.289 . S
O40 C39 1.235 . S
C41 C43 1.400 . S
C41 N44 1.351 . S
C41 C46 1.501 . S
C42 C43 1.387 . S
C42 N45 1.341 . S
C43 C41 1.400 . S
C43 C42 1.387 . S
N44 Co35 2.022 . S
N44 C41 1.351 . S
N44 N45 1.365 . S
N45 C42 1.341 . S
N45 N44 1.365 . S
N45 H65 0.862 . S
C46 C41 1.501 . S
C46 H47 0.961 . S
C46 H48 0.961 . S
C46 H49 0.960 . S
H47 C46 0.961 . S
H48 C46 0.961 . S
H49 C46 0.960 . S
C50 N51 1.342 . S
C50 C54 1.401 . S
C50 C55 1.499 . S
N51 Co34 1.989 . S
N51 C50 1.342 . S
N51 N52 1.388 . S
N52 Co35 1.993 . S
N52 N51 1.388 . S
N52 C53 1.346 . S
C53 N52 1.346 . S
C53 C54 1.396 . S
C53 C63 1.510 . S
C54 C50 1.401 . S
C54 C53 1.396 . S
C55 C50 1.499 . S
C55 H56 0.959 . S
C55 H57 0.960 . S
C55 H58 0.961 . S
H56 C55 0.959 . S
H57 C55 0.960 . S
H58 C55 0.961 . S
O59 Co34 1.967 . S
O59 C67 1.258 . S
O60 Co35 1.941 . S
O60 C67 1.266 . S
H61 C63 0.959 . S
H62 C63 0.961 . S
C63 C53 1.510 . S
C63 H61 0.959 . S
C63 H62 0.961 . S
C63 H64 0.960 . S
H64 C63 0.960 . S
H65 N45 0.862 . S
O66 Co34 1.920 . S
O66 C39 1.289 . S
C67 O59 1.258 . S
C67 O60 1.266 . S
Co68 O71 1.970 1_655 S
Co68 N85 1.989 . S
Co68 O93 1.967 . S
Co68 O100 1.920 . S
Co69 O72 2.008 . S
Co69 N78 2.022 . S
Co69 N86 1.993 . S
Co69 O94 1.941 . S
C70 O71 1.258 . S
C70 O72 1.238 1_455 S
O71 Co68 1.970 1_455 S
O71 C70 1.258 . S
O72 Co69 2.008 . S
O72 C70 1.238 1_655 S
C73 O74 1.235 1_655 S
C73 O100 1.289 . S
O74 C73 1.235 1_455 S
C75 C77 1.400 . S
C75 N78 1.351 . S
C75 C80 1.501 1_655 S
C76 C77 1.387 . S
C76 N79 1.341 . S
C77 C75 1.400 . S
C77 C76 1.387 . S
N78 Co69 2.022 . S
N78 C75 1.351 . S
N78 N79 1.365 . S
N79 C76 1.341 . S
N79 N78 1.365 . S
N79 H99 0.862 . S
C80 C75 1.501 1_455 S
C80 H81 0.961 . S
C80 H82 0.961 . S
C80 H83 0.960 . S
H81 C80 0.961 . S
H82 C80 0.961 . S
H83 C80 0.960 . S
C84 N85 1.342 1_556 S
C84 C88 1.401 . S
C84 C89 1.499 . S
N85 Co68 1.989 . S
N85 C84 1.342 1_554 S
N85 N86 1.388 . S
N86 Co69 1.993 . S
N86 N85 1.388 . S
N86 C87 1.346 1_554 S
C87 N86 1.346 1_556 S
C87 C88 1.396 . S
C87 C97 1.510 . S
C88 C84 1.401 . S
C88 C87 1.396 . S
C89 C84 1.499 . S
C89 H90 0.959 . S
C89 H91 0.960 . S
C89 H92 0.961 . S
H90 C89 0.959 . S
H91 C89 0.960 . S
H92 C89 0.961 . S
O93 Co68 1.967 . S
O93 C101 1.258 . S
O94 Co69 1.941 . S
O94 C101 1.266 . S
H95 C97 0.959 . S
H96 C97 0.961 . S
C97 C87 1.510 . S
C97 H95 0.959 . S
C97 H96 0.961 . S
C97 H98 0.960 . S
H98 C97 0.960 . S
H99 N79 0.862 . S
O100 Co68 1.920 . S
O100 C73 1.289 . S
C101 O93 1.258 . S
C101 O94 1.266 . S
Co102 O105 1.970 1_565 S
Co102 N119 1.989 . S
Co102 O127 1.967 . S
Co102 O134 1.920 . S
Co103 O106 2.008 . S
Co103 N112 2.022 . S
Co103 N120 1.993 . S
Co103 O128 1.941 . S
C104 O105 1.258 . S
C104 O106 1.238 1_545 S
O105 Co102 1.970 1_545 S
O105 C104 1.258 . S
O106 Co103 2.008 . S
O106 C104 1.238 1_565 S
C107 O108 1.235 1_565 S
C107 O134 1.289 . S
O108 C107 1.235 1_545 S
C109 C111 1.400 . S
C109 N112 1.351 . S
C109 C114 1.501 1_565 S
C110 C111 1.387 . S
C110 N113 1.341 . S
C111 C109 1.400 . S
C111 C110 1.387 . S
N112 Co103 2.022 . S
N112 C109 1.351 . S
N112 N113 1.365 . S
N113 C110 1.341 . S
N113 N112 1.365 . S
N113 H133 0.862 . S
C114 C109 1.501 1_545 S
C114 H115 0.961 . S
C114 H116 0.961 . S
C114 H117 0.960 . S
H115 C114 0.961 . S
H116 C114 0.961 . S
H117 C114 0.960 . S
C118 N119 1.342 . S
C118 C122 1.401 . S
C118 C123 1.499 . S
N119 Co102 1.989 . S
N119 C118 1.342 . S
N119 N120 1.388 . S
N120 Co103 1.993 . S
N120 N119 1.388 . S
N120 C121 1.346 . S
C121 N120 1.346 . S
C121 C122 1.396 . S
C121 C131 1.510 . S
C122 C118 1.401 . S
C122 C121 1.396 . S
C123 C118 1.499 . S
C123 H124 0.959 . S
C123 H125 0.960 . S
C123 H126 0.961 . S
H124 C123 0.959 . S
H125 C123 0.960 . S
H126 C123 0.961 . S
O127 Co102 1.967 . S
O127 C135 1.258 . S
O128 Co103 1.941 . S
O128 C135 1.266 . S
H129 C131 0.959 . S
H130 C131 0.961 . S
C131 C121 1.510 . S
C131 H129 0.959 . S
C131 H130 0.961 . S
C131 H132 0.960 . S
H132 C131 0.960 . S
H133 N113 0.862 . S
O134 Co102 1.920 . S
O134 C107 1.289 . S
C135 O127 1.258 . S
C135 O128 1.266 . S
Co136 O139 1.970 . S
Co136 N153 1.989 . S
Co136 O161 1.967 . S
Co136 O168 1.920 . S
Co137 O140 1.966 . S
Co137 N146 2.022 . S
Co137 N154 1.993 . S
Co137 O162 1.941 . S
C138 O139 1.258 . S
C138 O140 1.263 . S
O139 Co136 1.970 . S
O139 C138 1.258 . S
O140 Co137 1.966 . S
O140 C138 1.263 . S
C141 O142 1.235 . S
C141 O168 1.289 . S
O142 C141 1.235 . S
C143 C145 1.400 . S
C143 N146 1.351 . S
C143 C148 1.501 . S
C144 C145 1.387 . S
C144 N147 1.341 . S
C145 C143 1.400 . S
C145 C144 1.387 . S
N146 Co137 2.022 . S
N146 C143 1.351 . S
N146 N147 1.365 . S
N147 C144 1.341 . S
N147 N146 1.365 . S
N147 H167 0.862 . S
C148 C143 1.501 . S
C148 H149 0.961 . S
C148 H150 0.961 . S
C148 H151 0.960 . S
H149 C148 0.961 . S
H150 C148 0.961 . S
H151 C148 0.960 . S
C152 N153 1.342 1_554 S
C152 C156 1.401 . S
C152 C157 1.499 . S
N153 Co136 1.989 . S
N153 C152 1.342 1_556 S
N153 N154 1.388 . S
N154 Co137 1.993 . S
N154 N153 1.388 . S
N154 C155 1.346 1_556 S
C155 N154 1.346 1_554 S
C155 C156 1.396 . S
C155 C165 1.510 . S
C156 C152 1.401 . S
C156 C155 1.396 . S
C157 C152 1.499 . S
C157 H158 0.959 . S
C157 H159 0.960 . S
C157 H160 0.961 . S
H158 C157 0.959 . S
H159 C157 0.960 . S
H160 C157 0.961 . S
O161 Co136 1.967 . S
O161 C169 1.258 . S
O162 Co137 1.941 . S
O162 C169 1.266 . S
H163 C165 0.959 . S
H164 C165 0.961 . S
C165 C155 1.510 . S
C165 H163 0.959 . S
C165 H164 0.961 . S
C165 H166 0.960 . S
H166 C165 0.960 . S
H167 N147 0.862 . S
O168 Co136 1.920 . S
O168 C141 1.289 . S
C169 O161 1.258 . S
C169 O162 1.266 . S
Co170 O173 1.970 . S
Co170 N187 1.989 . S
Co170 O195 1.967 . S
Co170 O202 1.920 . S
Co171 O174 1.966 . S
Co171 N180 2.022 . S
Co171 N188 1.993 . S
Co171 O196 1.941 . S
C172 O173 1.258 . S
C172 O174 1.263 . S
O173 Co170 1.970 . S
O173 C172 1.258 . S
O174 Co171 1.966 . S
O174 C172 1.263 . S
C175 O176 1.235 . S
C175 O202 1.289 . S
O176 C175 1.235 . S
C177 C179 1.400 . S
C177 N180 1.351 . S
C177 C182 1.501 . S
C178 C179 1.387 . S
C178 N181 1.341 . S
C179 C177 1.400 . S
C179 C178 1.387 . S
N180 Co171 2.022 . S
N180 C177 1.351 . S
N180 N181 1.365 . S
N181 C178 1.341 . S
N181 N180 1.365 . S
N181 H201 0.862 . S
C182 C177 1.501 . S
C182 H183 0.961 . S
C182 H184 0.961 . S
C182 H185 0.960 . S
H183 C182 0.961 . S
H184 C182 0.961 . S
H185 C182 0.960 . S
C186 N187 1.342 . S
C186 C190 1.401 . S
C186 C191 1.499 . S
N187 Co170 1.989 . S
N187 C186 1.342 . S
N187 N188 1.388 . S
N188 Co171 1.993 . S
N188 N187 1.388 . S
N188 C189 1.346 . S
C189 N188 1.346 . S
C189 C190 1.396 . S
C189 C199 1.510 . S
C190 C186 1.401 . S
C190 C189 1.396 . S
C191 C186 1.499 . S
C191 H192 0.959 . S
C191 H193 0.960 . S
C191 H194 0.961 . S
H192 C191 0.959 . S
H193 C191 0.960 . S
H194 C191 0.961 . S
O195 Co170 1.967 . S
O195 C203 1.258 . S
O196 Co171 1.941 . S
O196 C203 1.266 . S
H197 C199 0.959 . S
H198 C199 0.961 . S
C199 C189 1.510 . S
C199 H197 0.959 . S
C199 H198 0.961 . S
C199 H200 0.960 . S
H200 C199 0.960 . S
H201 N181 0.862 . S
O202 Co170 1.920 . S
O202 C175 1.289 . S
C203 O195 1.258 . S
C203 O196 1.266 . S
Co204 O207 1.970 1_655 S
Co204 N221 1.989 . S
Co204 O229 1.967 . S
Co204 O236 1.920 . S
Co205 O208 2.008 . S
Co205 N214 2.022 . S
Co205 N222 1.993 . S
Co205 O230 1.941 . S
C206 O207 1.258 . S
C206 O208 1.238 1_455 S
O207 Co204 1.970 1_455 S
O207 C206 1.258 . S
O208 Co205 2.008 . S
O208 C206 1.238 1_655 S
C209 O210 1.235 1_655 S
C209 O236 1.289 . S
O210 C209 1.235 1_455 S
C211 C213 1.400 . S
C211 N214 1.351 . S
C211 C216 1.501 1_655 S
C212 C213 1.387 . S
C212 N215 1.341 . S
C213 C211 1.400 . S
C213 C212 1.387 . S
N214 Co205 2.022 . S
N214 C211 1.351 . S
N214 N215 1.365 . S
N215 C212 1.341 . S
N215 N214 1.365 . S
N215 H235 0.862 . S
C216 C211 1.501 1_455 S
C216 H217 0.961 . S
C216 H218 0.961 . S
C216 H219 0.960 . S
H217 C216 0.961 . S
H218 C216 0.961 . S
H219 C216 0.960 . S
C220 N221 1.342 1_554 S
C220 C224 1.401 . S
C220 C225 1.499 . S
N221 Co204 1.989 . S
N221 C220 1.342 1_556 S
N221 N222 1.388 . S
N222 Co205 1.993 . S
N222 N221 1.388 . S
N222 C223 1.346 1_556 S
C223 N222 1.346 1_554 S
C223 C224 1.396 . S
C223 C233 1.510 . S
C224 C220 1.401 . S
C224 C223 1.396 . S
C225 C220 1.499 . S
C225 H226 0.959 . S
C225 H227 0.960 . S
C225 H228 0.961 . S
H226 C225 0.959 . S
H227 C225 0.960 . S
H228 C225 0.961 . S
O229 Co204 1.967 . S
O229 C237 1.258 . S
O230 Co205 1.941 . S
O230 C237 1.266 . S
H231 C233 0.959 . S
H232 C233 0.961 . S
C233 C223 1.510 . S
C233 H231 0.959 . S
C233 H232 0.961 . S
C233 H234 0.960 . S
H234 C233 0.960 . S
H235 N215 0.862 . S
O236 Co204 1.920 . S
O236 C209 1.289 . S
C237 O229 1.258 . S
C237 O230 1.266 . S
Co238 O241 1.970 1_565 S
Co238 N255 1.989 . S
Co238 O263 1.967 . S
Co238 O270 1.920 . S
Co239 O242 2.008 . S
Co239 N248 2.022 . S
Co239 N256 1.993 . S
Co239 O264 1.941 . S
C240 O241 1.258 . S
C240 O242 1.238 1_545 S
O241 Co238 1.970 1_545 S
O241 C240 1.258 . S
O242 Co239 2.008 . S
O242 C240 1.238 1_565 S
C243 O244 1.235 1_565 S
C243 O270 1.289 . S
O244 C243 1.235 1_545 S
C245 C247 1.400 . S
C245 N248 1.351 . S
C245 C250 1.501 1_565 S
C246 C247 1.387 . S
C246 N249 1.341 . S
C247 C245 1.400 . S
C247 C246 1.387 . S
N248 Co239 2.022 . S
N248 C245 1.351 . S
N248 N249 1.365 . S
N249 C246 1.341 . S
N249 N248 1.365 . S
N249 H269 0.862 . S
C250 C245 1.501 1_545 S
C250 H251 0.961 . S
C250 H252 0.961 . S
C250 H253 0.960 . S
H251 C250 0.961 . S
H252 C250 0.961 . S
H253 C250 0.960 . S
C254 N255 1.342 . S
C254 C258 1.401 . S
C254 C259 1.499 . S
N255 Co238 1.989 . S
N255 C254 1.342 . S
N255 N256 1.388 . S
N256 Co239 1.993 . S
N256 N255 1.388 . S
N256 C257 1.346 . S
C257 N256 1.346 . S
C257 C258 1.396 . S
C257 C267 1.510 . S
C258 C254 1.401 . S
C258 C257 1.396 . S
C259 C254 1.499 . S
C259 H260 0.959 . S
C259 H261 0.960 . S
C259 H262 0.961 . S
H260 C259 0.959 . S
H261 C259 0.960 . S
H262 C259 0.961 . S
O263 Co238 1.967 . S
O263 C271 1.258 . S
O264 Co239 1.941 . S
O264 C271 1.266 . S
H265 C267 0.959 . S
H266 C267 0.961 . S
C267 C257 1.510 . S
C267 H265 0.959 . S
C267 H266 0.961 . S
C267 H268 0.960 . S
H268 C267 0.960 . S
H269 N249 0.862 . S
O270 Co238 1.920 . S
O270 C243 1.289 . S
C271 O263 1.258 . S
C271 O264 1.266 . S
Co272 O275 1.970 . S
Co272 N289 1.989 . S
Co272 O297 1.967 . S
Co272 O304 1.920 . S
Co273 O276 1.966 . S
Co273 N282 2.022 . S
Co273 N290 1.993 . S
Co273 O298 1.941 . S
C274 O275 1.258 . S
C274 O276 1.263 . S
O275 Co272 1.970 . S
O275 C274 1.258 . S
O276 Co273 1.966 . S
O276 C274 1.263 . S
C277 O278 1.235 . S
C277 O304 1.289 . S
O278 C277 1.235 . S
C279 C281 1.400 . S
C279 N282 1.351 . S
C279 C284 1.501 . S
C280 C281 1.387 . S
C280 N283 1.341 . S
C281 C279 1.400 . S
C281 C280 1.387 . S
N282 Co273 2.022 . S
N282 C279 1.351 . S
N282 N283 1.365 . S
N283 C280 1.341 . S
N283 N282 1.365 . S
N283 H303 0.862 . S
C284 C279 1.501 . S
C284 H285 0.961 . S
C284 H286 0.961 . S
C284 H287 0.960 . S
H285 C284 0.961 . S
H286 C284 0.961 . S
H287 C284 0.960 . S
C288 N289 1.342 1_554 S
C288 C292 1.401 . S
C288 C293 1.499 . S
N289 Co272 1.989 . S
N289 C288 1.342 1_556 S
N289 N290 1.388 . S
N290 Co273 1.993 . S
N290 N289 1.388 . S
N290 C291 1.346 1_556 S
C291 N290 1.346 1_554 S
C291 C292 1.396 . S
C291 C301 1.510 . S
C292 C288 1.401 . S
C292 C291 1.396 . S
C293 C288 1.499 . S
C293 H294 0.959 . S
C293 H295 0.960 . S
C293 H296 0.961 . S
H294 C293 0.959 . S
H295 C293 0.960 . S
H296 C293 0.961 . S
O297 Co272 1.967 . S
O297 C305 1.258 . S
O298 Co273 1.941 . S
O298 C305 1.266 . S
H299 C301 0.959 . S
H300 C301 0.961 . S
C301 C291 1.510 . S
C301 H299 0.959 . S
C301 H300 0.961 . S
C301 H302 0.960 . S
H302 C301 0.960 . S
H303 N283 0.862 . S
O304 Co272 1.920 . S
O304 C277 1.289 . S
C305 O297 1.258 . S
C305 O298 1.266 . S
Co306 O309 1.970 . S
Co306 N323 1.989 . S
Co306 O331 1.967 . S
Co306 O338 1.920 . S
Co307 O310 1.966 . S
Co307 N316 2.022 . S
Co307 N324 1.993 . S
Co307 O332 1.941 . S
C308 O309 1.258 . S
C308 O310 1.263 . S
O309 Co306 1.970 . S
O309 C308 1.258 . S
O310 Co307 1.966 . S
O310 C308 1.263 . S
C311 O312 1.235 . S
C311 O338 1.289 . S
O312 C311 1.235 . S
C313 C315 1.400 . S
C313 N316 1.351 . S
C313 C318 1.501 . S
C314 C315 1.387 . S
C314 N317 1.341 . S
C315 C313 1.400 . S
C315 C314 1.387 . S
N316 Co307 2.022 . S
N316 C313 1.351 . S
N316 N317 1.365 . S
N317 C314 1.341 . S
N317 N316 1.365 . S
N317 H337 0.862 . S
C318 C313 1.501 . S
C318 H319 0.961 . S
C318 H320 0.961 . S
C318 H321 0.960 . S
H319 C318 0.961 . S
H320 C318 0.961 . S
H321 C318 0.960 . S
C322 N323 1.342 . S
C322 C326 1.401 . S
C322 C327 1.499 . S
N323 Co306 1.989 . S
N323 C322 1.342 . S
N323 N324 1.388 . S
N324 Co307 1.993 . S
N324 N323 1.388 . S
N324 C325 1.346 . S
C325 N324 1.346 . S
C325 C326 1.396 . S
C325 C335 1.510 . S
C326 C322 1.401 . S
C326 C325 1.396 . S
C327 C322 1.499 . S
C327 H328 0.959 . S
C327 H329 0.960 . S
C327 H330 0.961 . S
H328 C327 0.959 . S
H329 C327 0.960 . S
H330 C327 0.961 . S
O331 Co306 1.967 . S
O331 C339 1.258 . S
O332 Co307 1.941 . S
O332 C339 1.266 . S
H333 C335 0.959 . S
H334 C335 0.961 . S
C335 C325 1.510 . S
C335 H333 0.959 . S
C335 H334 0.961 . S
C335 H336 0.960 . S
H336 C335 0.960 . S
H337 N317 0.862 . S
O338 Co306 1.920 . S
O338 C311 1.289 . S
C339 O331 1.258 . S
C339 O332 1.266 . S
Co340 O343 1.970 1_455 S
Co340 N357 1.989 . S
Co340 O365 1.967 . S
Co340 O372 1.920 . S
Co341 O344 2.008 . S
Co341 N350 2.022 . S
Co341 N358 1.993 . S
Co341 O366 1.941 . S
C342 O343 1.258 . S
C342 O344 1.238 1_655 S
O343 Co340 1.970 1_655 S
O343 C342 1.258 . S
O344 Co341 2.008 . S
O344 C342 1.238 1_455 S
C345 O346 1.235 1_455 S
C345 O372 1.289 . S
O346 C345 1.235 1_655 S
C347 C349 1.400 . S
C347 N350 1.351 . S
C347 C352 1.501 1_455 S
C348 C349 1.387 . S
C348 N351 1.341 . S
C349 C347 1.400 . S
C349 C348 1.387 . S
N350 Co341 2.022 . S
N350 C347 1.351 . S
N350 N351 1.365 . S
N351 C348 1.341 . S
N351 N350 1.365 . S
N351 H371 0.862 . S
C352 C347 1.501 1_655 S
C352 H353 0.961 . S
C352 H354 0.961 . S
C352 H355 0.960 . S
H353 C352 0.961 . S
H354 C352 0.961 . S
H355 C352 0.960 . S
C356 N357 1.342 1_554 S
C356 C360 1.401 . S
C356 C361 1.499 . S
N357 Co340 1.989 . S
N357 C356 1.342 1_556 S
N357 N358 1.388 . S
N358 Co341 1.993 . S
N358 N357 1.388 . S
N358 C359 1.346 1_556 S
C359 N358 1.346 1_554 S
C359 C360 1.396 . S
C359 C369 1.510 . S
C360 C356 1.401 . S
C360 C359 1.396 . S
C361 C356 1.499 . S
C361 H362 0.959 . S
C361 H363 0.960 . S
C361 H364 0.961 . S
H362 C361 0.959 . S
H363 C361 0.960 . S
H364 C361 0.961 . S
O365 Co340 1.967 . S
O365 C373 1.258 . S
O366 Co341 1.941 . S
O366 C373 1.266 . S
H367 C369 0.959 . S
H368 C369 0.961 . S
C369 C359 1.510 . S
C369 H367 0.959 . S
C369 H368 0.961 . S
C369 H370 0.960 . S
H370 C369 0.960 . S
H371 N351 0.862 . S
O372 Co340 1.920 . S
O372 C345 1.289 . S
C373 O365 1.258 . S
C373 O366 1.266 . S
Co374 O377 1.970 1_545 S
Co374 N391 1.989 . S
Co374 O399 1.967 . S
Co374 O406 1.920 . S
Co375 O378 2.008 . S
Co375 N384 2.022 . S
Co375 N392 1.993 . S
Co375 O400 1.941 . S
C376 O377 1.258 . S
C376 O378 1.238 1_565 S
O377 Co374 1.970 1_565 S
O377 C376 1.258 . S
O378 Co375 2.008 . S
O378 C376 1.238 1_545 S
C379 O380 1.235 1_545 S
C379 O406 1.289 . S
O380 C379 1.235 1_565 S
C381 C383 1.400 . S
C381 N384 1.351 . S
C381 C386 1.501 1_545 S
C382 C383 1.387 . S
C382 N385 1.341 . S
C383 C381 1.400 . S
C383 C382 1.387 . S
N384 Co375 2.022 . S
N384 C381 1.351 . S
N384 N385 1.365 . S
N385 C382 1.341 . S
N385 N384 1.365 . S
N385 H405 0.862 . S
C386 C381 1.501 1_565 S
C386 H387 0.961 . S
C386 H388 0.961 . S
C386 H389 0.960 . S
H387 C386 0.961 . S
H388 C386 0.961 . S
H389 C386 0.960 . S
C390 N391 1.342 . S
C390 C394 1.401 . S
C390 C395 1.499 . S
N391 Co374 1.989 . S
N391 C390 1.342 . S
N391 N392 1.388 . S
N392 Co375 1.993 . S
N392 N391 1.388 . S
N392 C393 1.346 . S
C393 N392 1.346 . S
C393 C394 1.396 . S
C393 C403 1.510 . S
C394 C390 1.401 . S
C394 C393 1.396 . S
C395 C390 1.499 . S
C395 H396 0.959 . S
C395 H397 0.960 . S
C395 H398 0.961 . S
H396 C395 0.959 . S
H397 C395 0.960 . S
H398 C395 0.961 . S
O399 Co374 1.967 . S
O399 C407 1.258 . S
O400 Co375 1.941 . S
O400 C407 1.266 . S
H401 C403 0.959 . S
H402 C403 0.961 . S
C403 C393 1.510 . S
C403 H401 0.959 . S
C403 H402 0.961 . S
C403 H404 0.960 . S
H404 C403 0.960 . S
H405 N385 0.862 . S
O406 Co374 1.920 . S
O406 C379 1.289 . S
C407 O399 1.258 . S
C407 O400 1.266 . S
Co408 O411 1.970 . S
Co408 N425 1.989 . S
Co408 O433 1.967 . S
Co408 O440 1.920 . S
Co409 O412 1.966 . S
Co409 N418 2.022 . S
Co409 N426 1.993 . S
Co409 O434 1.941 . S
C410 O411 1.258 . S
C410 O412 1.263 . S
O411 Co408 1.970 . S
O411 C410 1.258 . S
O412 Co409 1.966 . S
O412 C410 1.263 . S
C413 O414 1.235 . S
C413 O440 1.289 . S
O414 C413 1.235 . S
C415 C417 1.400 . S
C415 N418 1.351 . S
C415 C420 1.501 . S
C416 C417 1.387 . S
C416 N419 1.341 . S
C417 C415 1.400 . S
C417 C416 1.387 . S
N418 Co409 2.022 . S
N418 C415 1.351 . S
N418 N419 1.365 . S
N419 C416 1.341 . S
N419 N418 1.365 . S
N419 H439 0.862 . S
C420 C415 1.501 . S
C420 H421 0.961 . S
C420 H422 0.961 . S
C420 H423 0.960 . S
H421 C420 0.961 . S
H422 C420 0.961 . S
H423 C420 0.960 . S
C424 N425 1.342 1_556 S
C424 C428 1.401 . S
C424 C429 1.499 . S
N425 Co408 1.989 . S
N425 C424 1.342 1_554 S
N425 N426 1.388 . S
N426 Co409 1.993 . S
N426 N425 1.388 . S
N426 C427 1.346 1_554 S
C427 N426 1.346 1_556 S
C427 C428 1.396 . S
C427 C437 1.510 . S
C428 C424 1.401 . S
C428 C427 1.396 . S
C429 C424 1.499 . S
C429 H430 0.959 . S
C429 H431 0.960 . S
C429 H432 0.961 . S
H430 C429 0.959 . S
H431 C429 0.960 . S
H432 C429 0.961 . S
O433 Co408 1.967 . S
O433 C441 1.258 . S
O434 Co409 1.941 . S
O434 C441 1.266 . S
H435 C437 0.959 . S
H436 C437 0.961 . S
C437 C427 1.510 . S
C437 H435 0.959 . S
C437 H436 0.961 . S
C437 H438 0.960 . S
H438 C437 0.960 . S
H439 N419 0.862 . S
O440 Co408 1.920 . S
O440 C413 1.289 . S
C441 O433 1.258 . S
C441 O434 1.266 . S
Co442 O445 1.970 . S
Co442 N459 1.989 . S
Co442 O467 1.967 . S
Co442 O474 1.920 . S
Co443 O446 1.966 . S
Co443 N452 2.022 . S
Co443 N460 1.993 . S
Co443 O468 1.941 . S
C444 O445 1.258 . S
C444 O446 1.263 . S
O445 Co442 1.970 . S
O445 C444 1.258 . S
O446 Co443 1.966 . S
O446 C444 1.263 . S
C447 O448 1.235 . S
C447 O474 1.289 . S
O448 C447 1.235 . S
C449 C451 1.400 . S
C449 N452 1.351 . S
C449 C454 1.501 . S
C450 C451 1.387 . S
C450 N453 1.341 . S
C451 C449 1.400 . S
C451 C450 1.387 . S
N452 Co443 2.022 . S
N452 C449 1.351 . S
N452 N453 1.365 . S
N453 C450 1.341 . S
N453 N452 1.365 . S
N453 H473 0.862 . S
C454 C449 1.501 . S
C454 H455 0.961 . S
C454 H456 0.961 . S
C454 H457 0.960 . S
H455 C454 0.961 . S
H456 C454 0.961 . S
H457 C454 0.960 . S
C458 N459 1.342 . S
C458 C462 1.401 . S
C458 C463 1.499 . S
N459 Co442 1.989 . S
N459 C458 1.342 . S
N459 N460 1.388 . S
N460 Co443 1.993 . S
N460 N459 1.388 . S
N460 C461 1.346 . S
C461 N460 1.346 . S
C461 C462 1.396 . S
C461 C471 1.510 . S
C462 C458 1.401 . S
C462 C461 1.396 . S
C463 C458 1.499 . S
C463 H464 0.959 . S
C463 H465 0.960 . S
C463 H466 0.961 . S
H464 C463 0.959 . S
H465 C463 0.960 . S
H466 C463 0.961 . S
O467 Co442 1.967 . S
O467 C475 1.258 . S
O468 Co443 1.941 . S
O468 C475 1.266 . S
H469 C471 0.959 . S
H470 C471 0.961 . S
C471 C461 1.510 . S
C471 H469 0.959 . S
C471 H470 0.961 . S
C471 H472 0.960 . S
H472 C471 0.960 . S
H473 N453 0.862 . S
O474 Co442 1.920 . S
O474 C447 1.289 . S
C475 O467 1.258 . S
C475 O468 1.266 . S
Co476 O479 1.970 1_455 S
Co476 N493 1.989 . S
Co476 O501 1.967 . S
Co476 O508 1.920 . S
Co477 O480 2.008 . S
Co477 N486 2.022 . S
Co477 N494 1.993 . S
Co477 O502 1.941 . S
C478 O479 1.258 . S
C478 O480 1.238 1_655 S
O479 Co476 1.970 1_655 S
O479 C478 1.258 . S
O480 Co477 2.008 . S
O480 C478 1.238 1_455 S
C481 O482 1.235 1_455 S
C481 O508 1.289 . S
O482 C481 1.235 1_655 S
C483 C485 1.400 . S
C483 N486 1.351 . S
C483 C488 1.501 1_455 S
C484 C485 1.387 . S
C484 N487 1.341 . S
C485 C483 1.400 . S
C485 C484 1.387 . S
N486 Co477 2.022 . S
N486 C483 1.351 . S
N486 N487 1.365 . S
N487 C484 1.341 . S
N487 N486 1.365 . S
N487 H507 0.862 . S
C488 C483 1.501 1_655 S
C488 H489 0.961 . S
C488 H490 0.961 . S
C488 H491 0.960 . S
H489 C488 0.961 . S
H490 C488 0.961 . S
H491 C488 0.960 . S
C492 N493 1.342 1_556 S
C492 C496 1.401 . S
C492 C497 1.499 . S
N493 Co476 1.989 . S
N493 C492 1.342 1_554 S
N493 N494 1.388 . S
N494 Co477 1.993 . S
N494 N493 1.388 . S
N494 C495 1.346 1_554 S
C495 N494 1.346 1_556 S
C495 C496 1.396 . S
C495 C505 1.510 . S
C496 C492 1.401 . S
C496 C495 1.396 . S
C497 C492 1.499 . S
C497 H498 0.959 . S
C497 H499 0.960 . S
C497 H500 0.961 . S
H498 C497 0.959 . S
H499 C497 0.960 . S
H500 C497 0.961 . S
O501 Co476 1.967 . S
O501 C509 1.258 . S
O502 Co477 1.941 . S
O502 C509 1.266 . S
H503 C505 0.959 . S
H504 C505 0.961 . S
C505 C495 1.510 . S
C505 H503 0.959 . S
C505 H504 0.961 . S
C505 H506 0.960 . S
H506 C505 0.960 . S
H507 N487 0.862 . S
O508 Co476 1.920 . S
O508 C481 1.289 . S
C509 O501 1.258 . S
C509 O502 1.266 . S
Co510 O513 1.970 1_545 S
Co510 N527 1.989 . S
Co510 O535 1.967 . S
Co510 O542 1.920 . S
Co511 O514 2.008 . S
Co511 N520 2.022 . S
Co511 N528 1.993 . S
Co511 O536 1.941 . S
C512 O513 1.258 . S
C512 O514 1.238 1_565 S
O513 Co510 1.970 1_565 S
O513 C512 1.258 . S
O514 Co511 2.008 . S
O514 C512 1.238 1_545 S
C515 O516 1.235 1_545 S
C515 O542 1.289 . S
O516 C515 1.235 1_565 S
C517 C519 1.400 . S
C517 N520 1.351 . S
C517 C522 1.501 1_545 S
C518 C519 1.387 . S
C518 N521 1.341 . S
C519 C517 1.400 . S
C519 C518 1.387 . S
N520 Co511 2.022 . S
N520 C517 1.351 . S
N520 N521 1.365 . S
N521 C518 1.341 . S
N521 N520 1.365 . S
N521 H541 0.862 . S
C522 C517 1.501 1_565 S
C522 H523 0.961 . S
C522 H524 0.961 . S
C522 H525 0.960 . S
H523 C522 0.961 . S
H524 C522 0.961 . S
H525 C522 0.960 . S
C526 N527 1.342 . S
C526 C530 1.401 . S
C526 C531 1.499 . S
N527 Co510 1.989 . S
N527 C526 1.342 . S
N527 N528 1.388 . S
N528 Co511 1.993 . S
N528 N527 1.388 . S
N528 C529 1.346 . S
C529 N528 1.346 . S
C529 C530 1.396 . S
C529 C539 1.510 . S
C530 C526 1.401 . S
C530 C529 1.396 . S
C531 C526 1.499 . S
C531 H532 0.959 . S
C531 H533 0.960 . S
C531 H534 0.961 . S
H532 C531 0.959 . S
H533 C531 0.960 . S
H534 C531 0.961 . S
O535 Co510 1.967 . S
O535 C543 1.258 . S
O536 Co511 1.941 . S
O536 C543 1.266 . S
H537 C539 0.959 . S
H538 C539 0.961 . S
C539 C529 1.510 . S
C539 H537 0.959 . S
C539 H538 0.961 . S
C539 H540 0.960 . S
H540 C539 0.960 . S
H541 N521 0.862 . S
O542 Co510 1.920 . S
O542 C515 1.289 . S
C543 O535 1.258 . S
C543 O536 1.266 . S
C544 C545 1.349 . S
C544 C546 1.327 . S
C544 H569 0.950 . S
C545 C544 1.349 . S
C545 C561 1.349 . S
C546 C544 1.327 . S
C546 C565 1.429 . S
C546 H570 0.950 . S
C547 C564 1.574 1_545 S
C547 C566 1.368 1_556 S
C547 H571 0.949 . S
H548 C552 0.949 . S
C549 C550 1.349 . S
C549 C551 1.327 . S
C549 H572 0.950 . S
C550 C549 1.349 . S
C550 C562 1.349 . S
C551 C549 1.327 . S
C551 C567 1.429 . S
C551 H573 0.950 . S
C552 H548 0.949 . S
C552 C560 1.574 1_565 S
C552 C568 1.368 1_554 S
H553 C561 0.950 . S
H554 C559 0.950 1_556 S
H555 C560 0.949 . S
H556 C562 0.950 . S
H557 C563 0.950 1_554 S
H558 C564 0.949 . S
C559 H554 0.950 1_554 S
C559 C561 1.327 . S
C559 C565 1.429 . S
C560 C552 1.574 1_545 S
C560 H555 0.949 . S
C560 C566 1.368 . S
C561 C545 1.349 . S
C561 H553 0.950 . S
C561 C559 1.327 . S
C562 C550 1.349 . S
C562 H556 0.950 . S
C562 C563 1.327 . S
C563 H557 0.950 1_556 S
C563 C562 1.327 . S
C563 C567 1.429 . S
C564 C547 1.574 1_565 S
C564 H558 0.949 . S
C564 C568 1.368 . S
C565 C546 1.429 . S
C565 C559 1.429 . S
C565 C566 1.523 . S
C566 C547 1.368 1_554 S
C566 C560 1.368 . S
C566 C565 1.523 . S
C567 C551 1.429 . S
C567 C563 1.429 . S
C567 C568 1.523 . S
C568 C552 1.368 1_556 S
C568 C564 1.368 . S
C568 C567 1.523 . S
H569 C544 0.950 . S
H570 C546 0.950 . S
H571 C547 0.949 . S
H572 C549 0.950 . S
H573 C551 0.950 . S
C574 C575 1.349 . S
C574 C576 1.327 . S
C574 H599 0.950 . S
C575 C574 1.349 . S
C575 C591 1.349 . S
C576 C574 1.327 . S
C576 C595 1.429 . S
C576 H600 0.950 . S
C577 C594 1.574 . S
C577 C596 1.368 . S
C577 H601 0.949 . S
H578 C582 0.949 . S
C579 C580 1.349 . S
C579 C581 1.327 . S
C579 H602 0.950 . S
C580 C579 1.349 . S
C580 C592 1.349 . S
C581 C579 1.327 . S
C581 C597 1.429 . S
C581 H603 0.950 . S
C582 H578 0.949 . S
C582 C590 1.574 . S
C582 C598 1.368 . S
H583 C591 0.950 . S
H584 C589 0.950 . S
H585 C590 0.949 . S
H586 C592 0.950 . S
H587 C593 0.950 . S
H588 C594 0.949 . S
C589 H584 0.950 . S
C589 C591 1.327 . S
C589 C595 1.429 . S
C590 C582 1.574 . S
C590 H585 0.949 . S
C590 C596 1.368 . S
C591 C575 1.349 . S
C591 H583 0.950 . S
C591 C589 1.327 . S
C592 C580 1.349 . S
C592 H586 0.950 . S
C592 C593 1.327 . S
C593 H587 0.950 . S
C593 C592 1.327 . S
C593 C597 1.429 . S
C594 C577 1.574 . S
C594 H588 0.949 . S
C594 C598 1.368 . S
C595 C576 1.429 . S
C595 C589 1.429 . S
C595 C596 1.523 . S
C596 C577 1.368 . S
C596 C590 1.368 . S
C596 C595 1.523 . S
C597 C581 1.429 . S
C597 C593 1.429 . S
C597 C598 1.523 . S
C598 C582 1.368 . S
C598 C594 1.368 . S
C598 C597 1.523 . S
H599 C574 0.950 . S
H600 C576 0.950 . S
H601 C577 0.949 . S
H602 C579 0.950 . S
H603 C581 0.950 . S
C604 C605 1.349 . S
C604 C606 1.339 . S
C604 H629 0.948 1_655 S
C605 C604 1.349 . S
C605 C621 1.349 . S
C606 C604 1.339 . S
C606 C625 1.447 . S
C606 H630 0.922 1_655 S
C607 C624 1.574 . S
C607 C626 1.368 1_556 S
C607 H631 0.949 . S
H608 C612 0.949 . S
C609 C610 1.349 . S
C609 C611 1.339 . S
C609 H632 0.948 1_455 S
C610 C609 1.349 . S
C610 C622 1.349 . S
C611 C609 1.339 . S
C611 C627 1.447 . S
C611 H633 0.922 1_455 S
C612 H608 0.949 . S
C612 C620 1.574 . S
C612 C628 1.368 1_554 S
H613 C621 0.950 1_556 S
H614 C619 0.964 . S
H615 C620 0.949 . S
H616 C622 0.950 1_554 S
H617 C623 0.964 . S
H618 C624 0.949 . S
C619 H614 0.964 . S
C619 C621 1.322 1_556 S
C619 C625 1.419 1_556 S
C620 C612 1.574 . S
C620 H615 0.949 . S
C620 C626 1.368 1_455 S
C621 C605 1.349 . S
C621 H613 0.950 1_554 S
C621 C619 1.322 1_554 S
C622 C610 1.349 . S
C622 H616 0.950 1_556 S
C622 C623 1.322 1_556 S
C623 H617 0.964 . S
C623 C622 1.322 1_554 S
C623 C627 1.419 1_554 S
C624 C607 1.574 . S
C624 H618 0.949 . S
C624 C628 1.368 1_655 S
C625 C606 1.447 . S
C625 C619 1.419 1_554 S
C625 C626 1.523 . S
C626 C607 1.368 1_554 S
C626 C620 1.368 1_655 S
C626 C625 1.523 . S
C627 C611 1.447 . S
C627 C623 1.419 1_556 S
C627 C628 1.523 . S
C628 C612 1.368 1_556 S
C628 C624 1.368 1_455 S
C628 C627 1.523 . S
H629 C604 0.948 1_455 S
H630 C606 0.922 1_455 S
H631 C607 0.949 . S
H632 C609 0.948 1_655 S
H633 C611 0.922 1_655 S
C634 C635 1.349 . S
C634 C636 1.327 . S
C634 H659 0.950 . S
C635 C634 1.349 . S
C635 C651 1.349 1_565 S
C636 C634 1.327 . S
C636 C655 1.429 . S
C636 H660 0.950 . S
C637 C654 1.574 1_455 S
C637 C656 1.368 1_545 S
C637 H661 0.949 . S
H638 C642 0.949 . S
C639 C640 1.349 . S
C639 C641 1.327 . S
C639 H662 0.950 . S
C640 C639 1.349 . S
C640 C652 1.349 1_545 S
C641 C639 1.327 . S
C641 C657 1.429 . S
C641 H663 0.950 . S
C642 H638 0.949 . S
C642 C650 1.574 1_655 S
C642 C658 1.368 1_565 S
H643 C651 0.950 . S
H644 C649 0.950 . S
H645 C650 0.949 . S
H646 C652 0.950 . S
H647 C653 0.950 . S
H648 C654 0.949 . S
C649 H644 0.950 . S
C649 C651 1.327 . S
C649 C655 1.429 1_545 S
C650 C642 1.574 1_455 S
C650 H645 0.949 . S
C650 C656 1.368 . S
C651 C635 1.349 1_545 S
C651 H643 0.950 . S
C651 C649 1.327 . S
C652 C640 1.349 1_565 S
C652 H646 0.950 . S
C652 C653 1.327 . S
C653 H647 0.950 . S
C653 C652 1.327 . S
C653 C657 1.429 1_565 S
C654 C637 1.574 1_655 S
C654 H648 0.949 . S
C654 C658 1.368 . S
C655 C636 1.429 . S
C655 C649 1.429 1_565 S
C655 C656 1.523 . S
C656 C637 1.368 1_565 S
C656 C650 1.368 . S
C656 C655 1.523 . S
C657 C641 1.429 . S
C657 C653 1.429 1_545 S
C657 C658 1.523 . S
C658 C642 1.368 1_545 S
C658 C654 1.368 . S
C658 C657 1.523 . S
H659 C634 0.950 . S
H660 C636 0.950 . S
H661 C637 0.949 . S
H662 C639 0.950 . S
H663 C641 0.950 . S
C664 C665 1.349 . S
C664 C666 1.327 1_556 S
C664 H689 0.950 1_556 S
C665 C664 1.349 . S
C665 C681 1.349 . S
C666 C664 1.327 1_554 S
C666 C685 1.429 1_554 S
C666 H690 0.950 . S
C667 C684 1.574 . S
C667 C686 1.368 . S
C667 H691 0.949 . S
H668 C672 0.949 . S
C669 C670 1.349 . S
C669 C671 1.327 1_554 S
C669 H692 0.950 1_554 S
C670 C669 1.349 . S
C670 C682 1.349 . S
C671 C669 1.327 1_556 S
C671 C687 1.429 1_556 S
C671 H693 0.950 . S
C672 H668 0.949 . S
C672 C680 1.574 . S
C672 C688 1.368 . S
H673 C681 0.950 . S
H674 C679 0.950 . S
H675 C680 0.949 . S
H676 C682 0.950 . S
H677 C683 0.950 . S
H678 C684 0.949 . S
C679 H674 0.950 . S
C679 C681 1.327 . S
C679 C685 1.429 . S
C680 C672 1.574 . S
C680 H675 0.949 . S
C680 C686 1.368 1_554 S
C681 C665 1.349 . S
C681 H673 0.950 . S
C681 C679 1.327 . S
C682 C670 1.349 . S
C682 H676 0.950 . S
C682 C683 1.327 . S
C683 H677 0.950 . S
C683 C682 1.327 . S
C683 C687 1.429 . S
C684 C667 1.574 . S
C684 H678 0.949 . S
C684 C688 1.368 1_556 S
C685 C666 1.429 1_556 S
C685 C679 1.429 . S
C685 C686 1.523 . S
C686 C667 1.368 . S
C686 C680 1.368 1_556 S
C686 C685 1.523 . S
C687 C671 1.429 1_554 S
C687 C683 1.429 . S
C687 C688 1.523 . S
C688 C672 1.368 . S
C688 C684 1.368 1_554 S
C688 C687 1.523 . S
H689 C664 0.950 1_554 S
H690 C666 0.950 . S
H691 C667 0.949 . S
H692 C669 0.950 1_556 S
H693 C671 0.950 . S
C694 C695 1.349 . S
C694 C696 1.327 . S
C694 H719 0.950 . S
C695 C694 1.349 . S
C695 C711 1.349 . S
C696 C694 1.327 . S
C696 C715 1.429 . S
C696 H720 0.950 . S
C697 C714 1.574 1_655 S
C697 C716 1.368 . S
C697 H721 0.949 . S
H698 C702 0.949 . S
C699 C700 1.349 . S
C699 C701 1.327 . S
C699 H722 0.950 . S
C700 C699 1.349 . S
C700 C712 1.349 . S
C701 C699 1.327 . S
C701 C717 1.429 . S
C701 H723 0.950 . S
C702 H698 0.949 . S
C702 C710 1.574 1_455 S
C702 C718 1.368 . S
H703 C711 0.950 . S
H704 C709 0.950 . S
H705 C710 0.949 . S
H706 C712 0.950 . S
H707 C713 0.950 . S
H708 C714 0.949 . S
C709 H704 0.950 . S
C709 C711 1.327 . S
C709 C715 1.429 . S
C710 C702 1.574 1_655 S
C710 H705 0.949 . S
C710 C716 1.368 . S
C711 C695 1.349 . S
C711 H703 0.950 . S
C711 C709 1.327 . S
C712 C700 1.349 . S
C712 H706 0.950 . S
C712 C713 1.327 . S
C713 H707 0.950 . S
C713 C712 1.327 . S
C713 C717 1.429 . S
C714 C697 1.574 1_455 S
C714 H708 0.949 . S
C714 C718 1.368 . S
C715 C696 1.429 . S
C715 C709 1.429 . S
C715 C716 1.523 . S
C716 C697 1.368 . S
C716 C710 1.368 . S
C716 C715 1.523 . S
C717 C701 1.429 . S
C717 C713 1.429 . S
C717 C718 1.523 . S
C718 C702 1.368 . S
C718 C714 1.368 . S
C718 C717 1.523 . S
H719 C694 0.950 . S
H720 C696 0.950 . S
H721 C697 0.949 . S
H722 C699 0.950 . S
H723 C701 0.950 . S
C724 C725 1.349 . S
C724 C726 1.327 . S
C724 H749 0.950 . S
C725 C724 1.349 . S
C725 C741 1.349 . S
C726 C724 1.327 . S
C726 C745 1.429 . S
C726 H750 0.950 . S
C727 C744 1.574 1_465 S
C727 C746 1.368 1_556 S
C727 H751 0.949 . S
H728 C732 0.949 . S
C729 C730 1.349 . S
C729 C731 1.327 . S
C729 H752 0.950 . S
C730 C729 1.349 . S
C730 C742 1.349 . S
C731 C729 1.327 . S
C731 C747 1.429 . S
C731 H753 0.950 . S
C732 H728 0.949 . S
C732 C740 1.574 1_645 S
C732 C748 1.368 1_554 S
H733 C741 0.950 1_556 S
H734 C739 0.950 . S
H735 C740 0.949 . S
H736 C742 0.950 1_554 S
H737 C743 0.950 . S
H738 C744 0.949 . S
C739 H734 0.950 . S
C739 C741 1.327 1_556 S
C739 C745 1.429 1_556 S
C740 C732 1.574 1_465 S
C740 H735 0.949 . S
C740 C746 1.368 . S
C741 C725 1.349 . S
C741 H733 0.950 1_554 S
C741 C739 1.327 1_554 S
C742 C730 1.349 . S
C742 H736 0.950 1_556 S
C742 C743 1.327 1_556 S
C743 H737 0.950 . S
C743 C742 1.327 1_554 S
C743 C747 1.429 1_554 S
C744 C727 1.574 1_645 S
C744 H738 0.949 . S
C744 C748 1.368 . S
C745 C726 1.429 . S
C745 C739 1.429 1_554 S
C745 C746 1.523 . S
C746 C727 1.368 1_554 S
C746 C740 1.368 . S
C746 C745 1.523 . S
C747 C731 1.429 . S
C747 C743 1.429 1_556 S
C747 C748 1.523 . S
C748 C732 1.368 1_556 S
C748 C744 1.368 . S
C748 C747 1.523 . S
H749 C724 0.950 . S
H750 C726 0.950 . S
H751 C727 0.949 . S
H752 C729 0.950 . S
H753 C731 0.950 . S
C754 C755 1.342 1_545 S
C754 C756 1.329 . S
C754 H779 0.955 . S
C755 C754 1.342 1_565 S
C755 C771 1.349 . S
C756 C754 1.329 . S
C756 C775 1.429 1_545 S
C756 H780 0.950 . S
C757 C774 1.574 . S
C757 C776 1.368 . S
C757 H781 0.949 . S
H758 C762 0.949 . S
C759 C760 1.342 1_565 S
C759 C761 1.329 . S
C759 H782 0.955 . S
C760 C759 1.342 1_545 S
C760 C772 1.349 . S
C761 C759 1.329 . S
C761 C777 1.429 1_565 S
C761 H783 0.950 . S
C762 H758 0.949 . S
C762 C770 1.574 . S
C762 C778 1.368 . S
H763 C771 0.950 . S
H764 C769 0.950 . S
H765 C770 0.949 . S
H766 C772 0.950 . S
H767 C773 0.950 . S
H768 C774 0.949 . S
C769 H764 0.950 . S
C769 C771 1.327 . S
C769 C775 1.429 . S
C770 C762 1.574 . S
C770 H765 0.949 . S
C770 C776 1.368 1_545 S
C771 C755 1.349 . S
C771 H763 0.950 . S
C771 C769 1.327 . S
C772 C760 1.349 . S
C772 H766 0.950 . S
C772 C773 1.327 . S
C773 H767 0.950 . S
C773 C772 1.327 . S
C773 C777 1.429 . S
C774 C757 1.574 . S
C774 H768 0.949 . S
C774 C778 1.368 1_565 S
C775 C756 1.429 1_565 S
C775 C769 1.429 . S
C775 C776 1.523 . S
C776 C757 1.368 . S
C776 C770 1.368 1_565 S
C776 C775 1.523 . S
C777 C761 1.429 1_545 S
C777 C773 1.429 . S
C777 C778 1.523 . S
C778 C762 1.368 . S
C778 C774 1.368 1_545 S
C778 C777 1.523 . S
H779 C754 0.955 . S
H780 C756 0.950 . S
H781 C757 0.949 . S
H782 C759 0.955 . S
H783 C761 0.950 . S
C784 C785 1.349 . S
C784 C786 1.327 . S
C784 H809 0.950 . S
C785 C784 1.349 . S
C785 C801 1.349 . S
C786 C784 1.327 . S
C786 C805 1.429 . S
C786 H810 0.950 1_554 S
C787 C804 1.574 . S
C787 C806 1.368 . S
C787 H811 0.949 . S
H788 C792 0.949 . S
C789 C790 1.349 . S
C789 C791 1.327 . S
C789 H812 0.950 . S
C790 C789 1.349 . S
C790 C802 1.349 . S
C791 C789 1.327 . S
C791 C807 1.429 . S
C791 H813 0.950 1_556 S
C792 H788 0.949 . S
C792 C800 1.574 . S
C792 C808 1.368 . S
H793 C801 0.950 . S
H794 C799 0.950 . S
H795 C800 0.949 . S
H796 C802 0.950 . S
H797 C803 0.950 . S
H798 C804 0.949 . S
C799 H794 0.950 . S
C799 C801 1.327 . S
C799 C805 1.429 . S
C800 C792 1.574 . S
C800 H795 0.949 . S
C800 C806 1.368 1_556 S
C801 C785 1.349 . S
C801 H793 0.950 . S
C801 C799 1.327 . S
C802 C790 1.349 . S
C802 H796 0.950 . S
C802 C803 1.327 . S
C803 H797 0.950 . S
C803 C802 1.327 . S
C803 C807 1.429 . S
C804 C787 1.574 . S
C804 H798 0.949 . S
C804 C808 1.368 1_554 S
C805 C786 1.429 . S
C805 C799 1.429 . S
C805 C806 1.523 . S
C806 C787 1.368 . S
C806 C800 1.368 1_554 S
C806 C805 1.523 . S
C807 C791 1.429 . S
C807 C803 1.429 . S
C807 C808 1.523 . S
C808 C792 1.368 . S
C808 C804 1.368 1_556 S
C808 C807 1.523 . S
H809 C784 0.950 . S
H810 C786 0.950 1_556 S
H811 C787 0.949 . S
H812 C789 0.950 . S
H813 C791 0.950 1_554 S
C814 C815 1.349 . S
C814 C816 1.327 . S
C814 H839 0.950 . S
C815 C814 1.349 . S
C815 C831 1.349 . S
C816 C814 1.327 . S
C816 C835 1.429 . S
C816 H840 0.950 . S
C817 C834 1.574 . S
C817 C836 1.368 . S
C817 H841 0.949 . S
H818 C822 0.949 . S
C819 C820 1.349 . S
C819 C821 1.327 . S
C819 H842 0.950 . S
C820 C819 1.349 . S
C820 C832 1.349 . S
C821 C819 1.327 . S
C821 C837 1.429 . S
C821 H843 0.950 . S
C822 H818 0.949 . S
C822 C830 1.574 . S
C822 C838 1.368 . S
H823 C831 0.950 . S
H824 C829 0.950 . S
H825 C830 0.949 . S
H826 C832 0.950 . S
H827 C833 0.950 . S
H828 C834 0.949 . S
C829 H824 0.950 . S
C829 C831 1.327 . S
C829 C835 1.429 . S
C830 C822 1.574 . S
C830 H825 0.949 . S
C830 C836 1.368 . S
C831 C815 1.349 . S
C831 H823 0.950 . S
C831 C829 1.327 . S
C832 C820 1.349 . S
C832 H826 0.950 . S
C832 C833 1.327 . S
C833 H827 0.950 . S
C833 C832 1.327 . S
C833 C837 1.429 . S
C834 C817 1.574 . S
C834 H828 0.949 . S
C834 C838 1.368 . S
C835 C816 1.429 . S
C835 C829 1.429 . S
C835 C836 1.523 . S
C836 C817 1.368 . S
C836 C830 1.368 . S
C836 C835 1.523 . S
C837 C821 1.429 . S
C837 C833 1.429 . S
C837 C838 1.523 . S
C838 C822 1.368 . S
C838 C834 1.368 . S
C838 C837 1.523 . S
H839 C814 0.950 . S
H840 C816 0.950 . S
H841 C817 0.949 . S
H842 C819 0.950 . S
H843 C821 0.950 . S
C844 C845 1.349 . S
C844 C846 1.327 . S
C844 H869 0.950 1_655 S
C845 C844 1.349 . S
C845 C861 1.349 . S
C846 C844 1.327 . S
C846 C865 1.429 . S
C846 H870 0.950 1_654 S
C847 C864 1.574 . S
C847 C866 1.368 . S
C847 H871 0.949 . S
H848 C852 0.919 1_455 S
C849 C850 1.349 . S
C849 C851 1.327 . S
C849 H872 0.950 . S
C850 C849 1.349 . S
C850 C862 1.349 . S
C851 C849 1.327 . S
C851 C867 1.429 . S
C851 H873 0.950 1_556 S
C852 H848 0.919 1_655 S
C852 C860 1.574 . S
C852 C868 1.403 . S
H853 C861 0.950 . S
H854 C859 0.950 . S
H855 C860 0.919 1_455 S
H856 C862 0.950 1_455 S
H857 C863 0.950 1_455 S
H858 C864 0.949 . S
C859 H854 0.950 . S
C859 C861 1.327 . S
C859 C865 1.429 . S
C860 C852 1.574 . S
C860 H855 0.919 1_655 S
C860 C866 1.403 1_556 S
C861 C845 1.349 . S
C861 H853 0.950 . S
C861 C859 1.327 . S
C862 C850 1.349 . S
C862 H856 0.950 1_655 S
C862 C863 1.327 . S
C863 H857 0.950 1_655 S
C863 C862 1.327 . S
C863 C867 1.429 . S
C864 C847 1.574 . S
C864 H858 0.949 . S
C864 C868 1.368 1_554 S
C865 C846 1.429 . S
C865 C859 1.429 . S
C865 C866 1.523 . S
C866 C847 1.368 . S
C866 C860 1.403 1_554 S
C866 C865 1.523 . S
C867 C851 1.429 . S
C867 C863 1.429 . S
C867 C868 1.523 . S
C868 C852 1.403 . S
C868 C864 1.368 1_556 S
C868 C867 1.523 . S
H869 C844 0.950 1_455 S
H870 C846 0.950 1_456 S
H871 C847 0.949 . S
H872 C849 0.950 . S
H873 C851 0.950 1_554 S
C874 C875 1.401 . S
C874 C876 1.327 . S
C874 H899 0.901 1_565 S
C875 C874 1.401 . S
C875 C891 1.349 . S
C876 C874 1.327 . S
C876 C895 1.461 . S
C876 H900 0.916 1_565 S
C877 C894 1.574 . S
C877 C896 1.368 . S
C877 H901 0.949 . S
H878 C882 0.952 1_545 S
C879 C880 1.349 . S
C879 C881 1.327 . S
C879 H902 0.950 . S
C880 C879 1.349 . S
C880 C892 1.401 . S
C881 C879 1.327 . S
C881 C897 1.429 . S
C881 H903 0.950 . S
C882 H878 0.952 1_565 S
C882 C890 1.574 . S
C882 C898 1.366 . S
H883 C891 0.950 . S
H884 C889 0.950 . S
H885 C890 0.952 1_545 S
H886 C892 0.901 1_545 S
H887 C893 0.916 1_545 S
H888 C894 0.949 . S
C889 H884 0.950 . S
C889 C891 1.327 . S
C889 C895 1.429 . S
C890 C882 1.574 . S
C890 H885 0.952 1_565 S
C890 C896 1.366 . S
C891 C875 1.349 . S
C891 H883 0.950 . S
C891 C889 1.327 . S
C892 C880 1.401 . S
C892 H886 0.901 1_565 S
C892 C893 1.327 . S
C893 H887 0.916 1_565 S
C893 C892 1.327 . S
C893 C897 1.461 . S
C894 C877 1.574 . S
C894 H888 0.949 . S
C894 C898 1.368 . S
C895 C876 1.461 . S
C895 C889 1.429 . S
C895 C896 1.523 . S
C896 C877 1.368 . S
C896 C890 1.366 . S
C896 C895 1.523 . S
C897 C881 1.429 . S
C897 C893 1.461 . S
C897 C898 1.523 . S
C898 C882 1.366 . S
C898 C894 1.368 . S
C898 C897 1.523 . S
H899 C874 0.901 1_545 S
H900 C876 0.916 1_545 S
H901 C877 0.949 . S
H902 C879 0.950 . S
H903 C881 0.950 . S
C904 C905 1.349 . S
C904 C906 1.328 . S
C904 H929 0.950 1_554 S
C905 C904 1.349 . S
C905 C921 1.349 . S
C906 C904 1.328 . S
C906 C925 1.431 . S
C906 H930 0.947 1_554 S
C907 C924 1.574 . S
C907 C926 1.368 . S
C907 H931 0.949 . S
H908 C912 0.949 . S
C909 C910 1.349 . S
C909 C911 1.328 . S
C909 H932 0.950 1_556 S
C910 C909 1.349 . S
C910 C922 1.349 . S
C911 C909 1.328 . S
C911 C927 1.431 . S
C911 H933 0.947 1_556 S
C912 H908 0.949 . S
C912 C920 1.574 . S
C912 C928 1.368 . S
H913 C921 0.950 . S
H914 C919 0.950 . S
H915 C920 0.949 . S
H916 C922 0.950 . S
H917 C923 0.950 . S
H918 C924 0.949 . S
C919 H914 0.950 . S
C919 C921 1.327 . S
C919 C925 1.429 . S
C920 C912 1.574 . S
C920 H915 0.949 . S
C920 C926 1.368 1_556 S
C921 C905 1.349 . S
C921 H913 0.950 . S
C921 C919 1.327 . S
C922 C910 1.349 . S
C922 H916 0.950 . S
C922 C923 1.327 . S
C923 H917 0.950 . S
C923 C922 1.327 . S
C923 C927 1.429 . S
C924 C907 1.574 . S
C924 H918 0.949 . S
C924 C928 1.368 1_554 S
C925 C906 1.431 . S
C925 C919 1.429 . S
C925 C926 1.523 . S
C926 C907 1.368 . S
C926 C920 1.368 1_554 S
C926 C925 1.523 . S
C927 C911 1.431 . S
C927 C923 1.429 . S
C927 C928 1.523 . S
C928 C912 1.368 . S
C928 C924 1.368 1_556 S
C928 C927 1.523 . S
H929 C904 0.950 1_556 S
H930 C906 0.947 1_556 S
H931 C907 0.949 . S
H932 C909 0.950 1_554 S
H933 C911 0.947 1_554 S
C934 C935 1.349 . S
C934 C936 1.327 . S
C934 H959 0.950 . S
C935 C934 1.349 . S
C935 C951 1.349 . S
C936 C934 1.327 . S
C936 C955 1.429 . S
C936 H960 0.950 . S
C937 C954 1.574 . S
C937 C956 1.368 . S
C937 H961 0.949 . S
H938 C942 0.949 . S
C939 C940 1.349 . S
C939 C941 1.327 . S
C939 H962 0.950 . S
C940 C939 1.349 . S
C940 C952 1.349 . S
C941 C939 1.327 . S
C941 C957 1.429 . S
C941 H963 0.950 . S
C942 H938 0.949 . S
C942 C950 1.574 . S
C942 C958 1.368 . S
H943 C951 0.950 . S
H944 C949 0.950 . S
H945 C950 0.949 . S
H946 C952 0.950 . S
H947 C953 0.950 . S
H948 C954 0.949 . S
C949 H944 0.950 . S
C949 C951 1.327 . S
C949 C955 1.429 . S
C950 C942 1.574 . S
C950 H945 0.949 . S
C950 C956 1.368 . S
C951 C935 1.349 . S
C951 H943 0.950 . S
C951 C949 1.327 . S
C952 C940 1.349 . S
C952 H946 0.950 . S
C952 C953 1.327 . S
C953 H947 0.950 . S
C953 C952 1.327 . S
C953 C957 1.429 . S
C954 C937 1.574 . S
C954 H948 0.949 . S
C954 C958 1.368 . S
C955 C936 1.429 . S
C955 C949 1.429 . S
C955 C956 1.523 . S
C956 C937 1.368 . S
C956 C950 1.368 . S
C956 C955 1.523 . S
C957 C941 1.429 . S
C957 C953 1.429 . S
C957 C958 1.523 . S
C958 C942 1.368 . S
C958 C954 1.368 . S
C958 C957 1.523 . S
H959 C934 0.950 . S
H960 C936 0.950 . S
H961 C937 0.949 . S
H962 C939 0.950 . S
H963 C941 0.950 . S
C964 C965 1.349 . S
C964 C966 1.327 . S
C964 H989 0.950 . S
C965 C964 1.349 . S
C965 C981 1.349 . S
C966 C964 1.327 . S
C966 C985 1.429 . S
C966 H990 0.950 . S
C967 C984 1.574 . S
C967 C986 1.368 1_556 S
C967 H991 0.949 1_455 S
H968 C972 0.949 . S
C969 C970 1.349 . S
C969 C971 1.327 . S
C969 H992 0.950 1_455 S
C970 C969 1.349 . S
C970 C982 1.349 . S
C971 C969 1.327 . S
C971 C987 1.429 . S
C971 H993 0.950 1_455 S
C972 H968 0.949 . S
C972 C980 1.574 . S
C972 C988 1.368 1_554 S
H973 C981 0.950 1_656 S
H974 C979 0.950 1_656 S
H975 C980 0.949 . S
H976 C982 0.950 1_554 S
H977 C983 0.950 1_554 S
H978 C984 0.949 1_655 S
C979 H974 0.950 1_454 S
C979 C981 1.327 . S
C979 C985 1.429 . S
C980 C972 1.574 . S
C980 H975 0.949 . S
C980 C986 1.368 . S
C981 C965 1.349 . S
C981 H973 0.950 1_454 S
C981 C979 1.327 . S
C982 C970 1.349 . S
C982 H976 0.950 1_556 S
C982 C983 1.327 . S
C983 H977 0.950 1_556 S
C983 C982 1.327 . S
C983 C987 1.429 . S
C984 C967 1.574 . S
C984 H978 0.949 1_455 S
C984 C988 1.368 . S
C985 C966 1.429 . S
C985 C979 1.429 . S
C985 C986 1.523 . S
C986 C967 1.368 1_554 S
C986 C980 1.368 . S
C986 C985 1.523 . S
C987 C971 1.429 . S
C987 C983 1.429 . S
C987 C988 1.523 . S
C988 C972 1.368 1_556 S
C988 C984 1.368 . S
C988 C987 1.523 . S
H989 C964 0.950 . S
H990 C966 0.950 . S
H991 C967 0.949 1_655 S
H992 C969 0.950 1_655 S
H993 C971 0.950 1_655 S
C994 C995 1.401 . S
C994 C996 1.327 . S
C994 H1019 0.901 1_545 S
C995 C994 1.401 . S
C995 C1011 1.349 . S
C996 C994 1.327 . S
C996 C1015 1.461 . S
C996 H1020 0.916 1_545 S
C997 C1014 1.574 . S
C997 C1016 1.368 . S
C997 H1021 0.949 . S
H998 C1002 0.952 1_565 S
C999 C1000 1.349 . S
C999 C1001 1.327 . S
C999 H1022 0.950 . S
C1000 C999 1.349 . S
C1000 C1012 1.401 . S
C1001 C999 1.327 . S
C1001 C1017 1.429 . S
C1001 H1023 0.950 . S
C1002 H998 0.952 1_545 S
C1002 C1010 1.574 . S
C1002 C1018 1.366 . S
H1003 C1011 0.950 . S
H1004 C1009 0.950 . S
H1005 C1010 0.952 1_565 S
H1006 C1012 0.901 1_565 S
H1007 C1013 0.916 1_565 S
H1008 C1014 0.949 . S
C1009 H1004 0.950 . S
C1009 C1011 1.327 . S
C1009 C1015 1.429 . S
C1010 C1002 1.574 . S
C1010 H1005 0.952 1_545 S
C1010 C1016 1.366 . S
C1011 C995 1.349 . S
C1011 H1003 0.950 . S
C1011 C1009 1.327 . S
C1012 C1000 1.401 . S
C1012 H1006 0.901 1_545 S
C1012 C1013 1.327 . S
C1013 H1007 0.916 1_545 S
C1013 C1012 1.327 . S
C1013 C1017 1.461 . S
C1014 C997 1.574 . S
C1014 H1008 0.949 . S
C1014 C1018 1.368 . S
C1015 C996 1.461 . S
C1015 C1009 1.429 . S
C1015 C1016 1.523 . S
C1016 C997 1.368 . S
C1016 C1010 1.366 . S
C1016 C1015 1.523 . S
C1017 C1001 1.429 . S
C1017 C1013 1.461 . S
C1017 C1018 1.523 . S
C1018 C1002 1.366 . S
C1018 C1014 1.368 . S
C1018 C1017 1.523 . S
H1019 C994 0.901 1_565 S
H1020 C996 0.916 1_565 S
H1021 C997 0.949 . S
H1022 C999 0.950 . S
H1023 C1001 0.950 . S
C1024 C1025 1.349 . S
C1024 C1026 1.327 . S
C1024 H1049 0.950 . S
C1025 C1024 1.349 . S
C1025 C1041 1.349 . S
C1026 C1024 1.327 . S
C1026 C1045 1.429 . S
C1026 H1050 0.950 . S
C1027 C1044 1.574 . S
C1027 C1046 1.368 . S
C1027 H1051 0.949 . S
H1028 C1032 0.949 . S
C1029 C1030 1.349 . S
C1029 C1031 1.327 . S
C1029 H1052 0.950 . S
C1030 C1029 1.349 . S
C1030 C1042 1.349 . S
C1031 C1029 1.327 . S
C1031 C1047 1.429 . S
C1031 H1053 0.950 . S
C1032 H1028 0.949 . S
C1032 C1040 1.574 . S
C1032 C1048 1.368 . S
H1033 C1041 0.950 . S
H1034 C1039 0.950 . S
H1035 C1040 0.949 . S
H1036 C1042 0.950 . S
H1037 C1043 0.950 . S
H1038 C1044 0.949 . S
C1039 H1034 0.950 . S
C1039 C1041 1.327 . S
C1039 C1045 1.429 . S
C1040 C1032 1.574 . S
C1040 H1035 0.949 . S
C1040 C1046 1.368 . S
C1041 C1025 1.349 . S
C1041 H1033 0.950 . S
C1041 C1039 1.327 . S
C1042 C1030 1.349 . S
C1042 H1036 0.950 . S
C1042 C1043 1.327 . S
C1043 H1037 0.950 . S
C1043 C1042 1.327 . S
C1043 C1047 1.429 . S
C1044 C1027 1.574 . S
C1044 H1038 0.949 . S
C1044 C1048 1.368 . S
C1045 C1026 1.429 . S
C1045 C1039 1.429 . S
C1045 C1046 1.523 . S
C1046 C1027 1.368 . S
C1046 C1040 1.368 . S
C1046 C1045 1.523 . S
C1047 C1031 1.429 . S
C1047 C1043 1.429 . S
C1047 C1048 1.523 . S
C1048 C1032 1.368 . S
C1048 C1044 1.368 . S
C1048 C1047 1.523 . S
H1049 C1024 0.950 . S
H1050 C1026 0.950 . S
H1051 C1027 0.949 . S
H1052 C1029 0.950 . S
H1053 C1031 0.950 . S
C1054 C1055 1.349 . S
C1054 C1056 1.327 . S
C1054 H1079 0.950 . S
C1055 C1054 1.349 . S
C1055 C1071 1.349 . S
C1056 C1054 1.327 . S
C1056 C1075 1.429 . S
C1056 H1080 0.950 . S
C1057 C1074 1.574 . S
C1057 C1076 1.368 . S
C1057 H1081 0.949 . S
H1058 C1062 0.949 . S
C1059 C1060 1.349 . S
C1059 C1061 1.327 . S
C1059 H1082 0.950 . S
C1060 C1059 1.349 . S
C1060 C1072 1.349 . S
C1061 C1059 1.327 . S
C1061 C1077 1.429 . S
C1061 H1083 0.950 . S
C1062 H1058 0.949 . S
C1062 C1070 1.574 . S
C1062 C1078 1.368 . S
H1063 C1071 0.950 . S
H1064 C1069 0.950 . S
H1065 C1070 0.949 . S
H1066 C1072 0.950 . S
H1067 C1073 0.950 . S
H1068 C1074 0.949 . S
C1069 H1064 0.950 . S
C1069 C1071 1.327 . S
C1069 C1075 1.429 . S
C1070 C1062 1.574 . S
C1070 H1065 0.949 . S
C1070 C1076 1.368 . S
C1071 C1055 1.349 . S
C1071 H1063 0.950 . S
C1071 C1069 1.327 . S
C1072 C1060 1.349 . S
C1072 H1066 0.950 . S
C1072 C1073 1.327 . S
C1073 H1067 0.950 . S
C1073 C1072 1.327 . S
C1073 C1077 1.429 . S
C1074 C1057 1.574 . S
C1074 H1068 0.949 . S
C1074 C1078 1.368 . S
C1075 C1056 1.429 . S
C1075 C1069 1.429 . S
C1075 C1076 1.523 . S
C1076 C1057 1.368 . S
C1076 C1070 1.368 . S
C1076 C1075 1.523 . S
C1077 C1061 1.429 . S
C1077 C1073 1.429 . S
C1077 C1078 1.523 . S
C1078 C1062 1.368 . S
C1078 C1074 1.368 . S
C1078 C1077 1.523 . S
H1079 C1054 0.950 . S
H1080 C1056 0.950 . S
H1081 C1057 0.949 . S
H1082 C1059 0.950 . S
H1083 C1061 0.950 . S
C1084 C1085 1.349 . S
C1084 C1086 1.327 . S
C1084 H1109 0.950 . S
C1085 C1084 1.349 . S
C1085 C1101 1.349 . S
C1086 C1084 1.327 . S
C1086 C1105 1.429 . S
C1086 H1110 0.950 . S
C1087 C1104 1.574 . S
C1087 C1106 1.368 . S
C1087 H1111 0.949 . S
H1088 C1092 0.949 . S
C1089 C1090 1.349 . S
C1089 C1091 1.327 . S
C1089 H1112 0.950 . S
C1090 C1089 1.349 . S
C1090 C1102 1.349 . S
C1091 C1089 1.327 . S
C1091 C1107 1.429 . S
C1091 H1113 0.950 . S
C1092 H1088 0.949 . S
C1092 C1100 1.574 . S
C1092 C1108 1.368 . S
H1093 C1101 0.950 . S
H1094 C1099 0.950 . S
H1095 C1100 0.949 . S
H1096 C1102 0.950 . S
H1097 C1103 0.950 . S
H1098 C1104 0.949 . S
C1099 H1094 0.950 . S
C1099 C1101 1.327 . S
C1099 C1105 1.429 . S
C1100 C1092 1.574 . S
C1100 H1095 0.949 . S
C1100 C1106 1.368 . S
C1101 C1085 1.349 . S
C1101 H1093 0.950 . S
C1101 C1099 1.327 . S
C1102 C1090 1.349 . S
C1102 H1096 0.950 . S
C1102 C1103 1.327 . S
C1103 H1097 0.950 . S
C1103 C1102 1.327 . S
C1103 C1107 1.429 . S
C1104 C1087 1.574 . S
C1104 H1098 0.949 . S
C1104 C1108 1.368 . S
C1105 C1086 1.429 . S
C1105 C1099 1.429 . S
C1105 C1106 1.523 . S
C1106 C1087 1.368 . S
C1106 C1100 1.368 . S
C1106 C1105 1.523 . S
C1107 C1091 1.429 . S
C1107 C1103 1.429 . S
C1107 C1108 1.523 . S
C1108 C1092 1.368 . S
C1108 C1104 1.368 . S
C1108 C1107 1.523 . S
H1109 C1084 0.950 . S
H1110 C1086 0.950 . S
H1111 C1087 0.949 . S
H1112 C1089 0.950 . S
H1113 C1091 0.950 . S
C1114 C1115 1.349 . S
C1114 C1116 1.327 . S
C1114 H1139 0.950 . S
C1115 C1114 1.349 . S
C1115 C1131 1.349 . S
C1116 C1114 1.327 . S
C1116 C1135 1.429 . S
C1116 H1140 0.950 . S
C1117 C1134 1.574 . S
C1117 C1136 1.368 . S
C1117 H1141 0.949 . S
H1118 C1122 0.949 . S
C1119 C1120 1.349 . S
C1119 C1121 1.327 . S
C1119 H1142 0.950 . S
C1120 C1119 1.349 . S
C1120 C1132 1.349 . S
C1121 C1119 1.327 . S
C1121 C1137 1.429 . S
C1121 H1143 0.950 . S
C1122 H1118 0.949 . S
C1122 C1130 1.574 . S
C1122 C1138 1.368 . S
H1123 C1131 0.950 . S
H1124 C1129 0.950 . S
H1125 C1130 0.949 . S
H1126 C1132 0.950 . S
H1127 C1133 0.950 . S
H1128 C1134 0.949 . S
C1129 H1124 0.950 . S
C1129 C1131 1.327 . S
C1129 C1135 1.429 . S
C1130 C1122 1.574 . S
C1130 H1125 0.949 . S
C1130 C1136 1.368 . S
C1131 C1115 1.349 . S
C1131 H1123 0.950 . S
C1131 C1129 1.327 . S
C1132 C1120 1.349 . S
C1132 H1126 0.950 . S
C1132 C1133 1.327 . S
C1133 H1127 0.950 . S
C1133 C1132 1.327 . S
C1133 C1137 1.429 . S
C1134 C1117 1.574 . S
C1134 H1128 0.949 . S
C1134 C1138 1.368 . S
C1135 C1116 1.429 . S
C1135 C1129 1.429 . S
C1135 C1136 1.523 . S
C1136 C1117 1.368 . S
C1136 C1130 1.368 . S
C1136 C1135 1.523 . S
C1137 C1121 1.429 . S
C1137 C1133 1.429 . S
C1137 C1138 1.523 . S
C1138 C1122 1.368 . S
C1138 C1134 1.368 . S
C1138 C1137 1.523 . S
H1139 C1114 0.950 . S
H1140 C1116 0.950 . S
H1141 C1117 0.949 . S
H1142 C1119 0.950 . S
H1143 C1121 0.950 . S
C1144 C1145 1.349 . S
C1144 C1146 1.327 . S
C1144 H1169 0.950 . S
C1145 C1144 1.349 . S
C1145 C1161 1.349 . S
C1146 C1144 1.327 . S
C1146 C1165 1.429 . S
C1146 H1170 0.950 . S
C1147 C1164 1.574 . S
C1147 C1166 1.368 . S
C1147 H1171 0.949 . S
H1148 C1152 0.949 . S
C1149 C1150 1.349 . S
C1149 C1151 1.327 . S
C1149 H1172 0.950 . S
C1150 C1149 1.349 . S
C1150 C1162 1.349 . S
C1151 C1149 1.327 . S
C1151 C1167 1.429 . S
C1151 H1173 0.950 . S
C1152 H1148 0.949 . S
C1152 C1160 1.574 . S
C1152 C1168 1.368 . S
H1153 C1161 0.950 . S
H1154 C1159 0.950 . S
H1155 C1160 0.949 . S
H1156 C1162 0.950 . S
H1157 C1163 0.950 . S
H1158 C1164 0.949 . S
C1159 H1154 0.950 . S
C1159 C1161 1.327 . S
C1159 C1165 1.429 . S
C1160 C1152 1.574 . S
C1160 H1155 0.949 . S
C1160 C1166 1.368 . S
C1161 C1145 1.349 . S
C1161 H1153 0.950 . S
C1161 C1159 1.327 . S
C1162 C1150 1.349 . S
C1162 H1156 0.950 . S
C1162 C1163 1.327 . S
C1163 H1157 0.950 . S
C1163 C1162 1.327 . S
C1163 C1167 1.429 . S
C1164 C1147 1.574 . S
C1164 H1158 0.949 . S
C1164 C1168 1.368 . S
C1165 C1146 1.429 . S
C1165 C1159 1.429 . S
C1165 C1166 1.523 . S
C1166 C1147 1.368 . S
C1166 C1160 1.368 . S
C1166 C1165 1.523 . S
C1167 C1151 1.429 . S
C1167 C1163 1.429 . S
C1167 C1168 1.523 . S
C1168 C1152 1.368 . S
C1168 C1164 1.368 . S
C1168 C1167 1.523 . S
H1169 C1144 0.950 . S
H1170 C1146 0.950 . S
H1171 C1147 0.949 . S
H1172 C1149 0.950 . S
H1173 C1151 0.950 . S
C1174 C1175 1.349 . S
C1174 C1176 1.327 . S
C1174 H1199 0.950 . S
C1175 C1174 1.349 . S
C1175 C1191 1.349 . S
C1176 C1174 1.327 . S
C1176 C1195 1.429 . S
C1176 H1200 0.950 . S
C1177 C1194 1.574 . S
C1177 C1196 1.368 . S
C1177 H1201 0.949 . S
H1178 C1182 0.949 . S
C1179 C1180 1.349 . S
C1179 C1181 1.327 . S
C1179 H1202 0.950 . S
C1180 C1179 1.349 . S
C1180 C1192 1.349 . S
C1181 C1179 1.327 . S
C1181 C1197 1.429 . S
C1181 H1203 0.950 . S
C1182 H1178 0.949 . S
C1182 C1190 1.574 . S
C1182 C1198 1.368 . S
H1183 C1191 0.950 . S
H1184 C1189 0.950 . S
H1185 C1190 0.949 . S
H1186 C1192 0.950 . S
H1187 C1193 0.950 . S
H1188 C1194 0.949 . S
C1189 H1184 0.950 . S
C1189 C1191 1.327 . S
C1189 C1195 1.429 . S
C1190 C1182 1.574 . S
C1190 H1185 0.949 . S
C1190 C1196 1.368 . S
C1191 C1175 1.349 . S
C1191 H1183 0.950 . S
C1191 C1189 1.327 . S
C1192 C1180 1.349 . S
C1192 H1186 0.950 . S
C1192 C1193 1.327 . S
C1193 H1187 0.950 . S
C1193 C1192 1.327 . S
C1193 C1197 1.429 . S
C1194 C1177 1.574 . S
C1194 H1188 0.949 . S
C1194 C1198 1.368 . S
C1195 C1176 1.429 . S
C1195 C1189 1.429 . S
C1195 C1196 1.523 . S
C1196 C1177 1.368 . S
C1196 C1190 1.368 . S
C1196 C1195 1.523 . S
C1197 C1181 1.429 . S
C1197 C1193 1.429 . S
C1197 C1198 1.523 . S
C1198 C1182 1.368 . S
C1198 C1194 1.368 . S
C1198 C1197 1.523 . S
H1199 C1174 0.950 . S
H1200 C1176 0.950 . S
H1201 C1177 0.949 . S
H1202 C1179 0.950 . S
H1203 C1181 0.950 . S
C1204 C1205 1.349 . S
C1204 C1206 1.327 . S
C1204 H1229 0.950 . S
C1205 C1204 1.349 . S
C1205 C1221 1.349 . S
C1206 C1204 1.327 . S
C1206 C1225 1.429 . S
C1206 H1230 0.950 . S
C1207 C1224 1.574 . S
C1207 C1226 1.368 . S
C1207 H1231 0.949 . S
H1208 C1212 0.949 . S
C1209 C1210 1.349 . S
C1209 C1211 1.327 . S
C1209 H1232 0.950 . S
C1210 C1209 1.349 . S
C1210 C1222 1.349 . S
C1211 C1209 1.327 . S
C1211 C1227 1.429 . S
C1211 H1233 0.950 . S
C1212 H1208 0.949 . S
C1212 C1220 1.574 . S
C1212 C1228 1.368 . S
H1213 C1221 0.950 . S
H1214 C1219 0.950 . S
H1215 C1220 0.949 . S
H1216 C1222 0.950 . S
H1217 C1223 0.950 . S
H1218 C1224 0.949 . S
C1219 H1214 0.950 . S
C1219 C1221 1.327 . S
C1219 C1225 1.429 . S
C1220 C1212 1.574 . S
C1220 H1215 0.949 . S
C1220 C1226 1.368 . S
C1221 C1205 1.349 . S
C1221 H1213 0.950 . S
C1221 C1219 1.327 . S
C1222 C1210 1.349 . S
C1222 H1216 0.950 . S
C1222 C1223 1.327 . S
C1223 H1217 0.950 . S
C1223 C1222 1.327 . S
C1223 C1227 1.429 . S
C1224 C1207 1.574 . S
C1224 H1218 0.949 . S
C1224 C1228 1.368 . S
C1225 C1206 1.429 . S
C1225 C1219 1.429 . S
C1225 C1226 1.523 . S
C1226 C1207 1.368 . S
C1226 C1220 1.368 . S
C1226 C1225 1.523 . S
C1227 C1211 1.429 . S
C1227 C1223 1.429 . S
C1227 C1228 1.523 . S
C1228 C1212 1.368 . S
C1228 C1224 1.368 . S
C1228 C1227 1.523 . S
H1229 C1204 0.950 . S
H1230 C1206 0.950 . S
H1231 C1207 0.949 . S
H1232 C1209 0.950 . S
H1233 C1211 0.950 . S
C1234 C1235 1.349 . S
C1234 C1236 1.327 . S
C1234 H1259 0.950 . S
C1235 C1234 1.349 . S
C1235 C1251 1.349 . S
C1236 C1234 1.327 . S
C1236 C1255 1.429 . S
C1236 H1260 0.950 . S
C1237 C1254 1.574 . S
C1237 C1256 1.368 . S
C1237 H1261 0.949 . S
H1238 C1242 0.949 . S
C1239 C1240 1.349 . S
C1239 C1241 1.327 . S
C1239 H1262 0.950 . S
C1240 C1239 1.349 . S
C1240 C1252 1.349 . S
C1241 C1239 1.327 . S
C1241 C1257 1.429 . S
C1241 H1263 0.950 . S
C1242 H1238 0.949 . S
C1242 C1250 1.574 . S
C1242 C1258 1.368 . S
H1243 C1251 0.950 . S
H1244 C1249 0.950 . S
H1245 C1250 0.949 . S
H1246 C1252 0.950 . S
H1247 C1253 0.950 . S
H1248 C1254 0.949 . S
C1249 H1244 0.950 . S
C1249 C1251 1.327 . S
C1249 C1255 1.429 . S
C1250 C1242 1.574 . S
C1250 H1245 0.949 . S
C1250 C1256 1.368 . S
C1251 C1235 1.349 . S
C1251 H1243 0.950 . S
C1251 C1249 1.327 . S
C1252 C1240 1.349 . S
C1252 H1246 0.950 . S
C1252 C1253 1.327 . S
C1253 H1247 0.950 . S
C1253 C1252 1.327 . S
C1253 C1257 1.429 . S
C1254 C1237 1.574 . S
C1254 H1248 0.949 . S
C1254 C1258 1.368 . S
C1255 C1236 1.429 . S
C1255 C1249 1.429 . S
C1255 C1256 1.523 . S
C1256 C1237 1.368 . S
C1256 C1250 1.368 . S
C1256 C1255 1.523 . S
C1257 C1241 1.429 . S
C1257 C1253 1.429 . S
C1257 C1258 1.523 . S
C1258 C1242 1.368 . S
C1258 C1254 1.368 . S
C1258 C1257 1.523 . S
H1259 C1234 0.950 . S
H1260 C1236 0.950 . S
H1261 C1237 0.949 . S
H1262 C1239 0.950 . S
H1263 C1241 0.950 . S
C1264 C1265 1.349 . S
C1264 C1266 1.327 . S
C1264 H1289 0.950 . S
C1265 C1264 1.349 . S
C1265 C1281 1.349 . S
C1266 C1264 1.327 . S
C1266 C1285 1.429 . S
C1266 H1290 0.950 . S
C1267 C1284 1.574 . S
C1267 C1286 1.368 . S
C1267 H1291 0.949 . S
H1268 C1272 0.949 . S
C1269 C1270 1.349 . S
C1269 C1271 1.327 . S
C1269 H1292 0.950 . S
C1270 C1269 1.349 . S
C1270 C1282 1.349 . S
C1271 C1269 1.327 . S
C1271 C1287 1.429 . S
C1271 H1293 0.950 . S
C1272 H1268 0.949 . S
C1272 C1280 1.574 . S
C1272 C1288 1.368 . S
H1273 C1281 0.950 . S
H1274 C1279 0.950 . S
H1275 C1280 0.949 . S
H1276 C1282 0.950 . S
H1277 C1283 0.950 . S
H1278 C1284 0.949 . S
C1279 H1274 0.950 . S
C1279 C1281 1.327 . S
C1279 C1285 1.429 . S
C1280 C1272 1.574 . S
C1280 H1275 0.949 . S
C1280 C1286 1.368 . S
C1281 C1265 1.349 . S
C1281 H1273 0.950 . S
C1281 C1279 1.327 . S
C1282 C1270 1.349 . S
C1282 H1276 0.950 . S
C1282 C1283 1.327 . S
C1283 H1277 0.950 . S
C1283 C1282 1.327 . S
C1283 C1287 1.429 . S
C1284 C1267 1.574 . S
C1284 H1278 0.949 . S
C1284 C1288 1.368 . S
C1285 C1266 1.429 . S
C1285 C1279 1.429 . S
C1285 C1286 1.523 . S
C1286 C1267 1.368 . S
C1286 C1280 1.368 . S
C1286 C1285 1.523 . S
C1287 C1271 1.429 . S
C1287 C1283 1.429 . S
C1287 C1288 1.523 . S
C1288 C1272 1.368 . S
C1288 C1284 1.368 . S
C1288 C1287 1.523 . S
H1289 C1264 0.950 . S
H1290 C1266 0.950 . S
H1291 C1267 0.949 . S
H1292 C1269 0.950 . S
H1293 C1271 0.950 . S
C1294 C1295 1.349 . S
C1294 C1296 1.327 . S
C1294 H1319 0.950 . S
C1295 C1294 1.349 . S
C1295 C1311 1.349 . S
C1296 C1294 1.327 . S
C1296 C1315 1.429 . S
C1296 H1320 0.950 . S
C1297 C1314 1.574 . S
C1297 C1316 1.368 . S
C1297 H1321 0.949 . S
H1298 C1302 0.949 . S
C1299 C1300 1.349 . S
C1299 C1301 1.327 . S
C1299 H1322 0.950 . S
C1300 C1299 1.349 . S
C1300 C1312 1.349 . S
C1301 C1299 1.327 . S
C1301 C1317 1.429 . S
C1301 H1323 0.950 . S
C1302 H1298 0.949 . S
C1302 C1310 1.574 . S
C1302 C1318 1.368 . S
H1303 C1311 0.950 . S
H1304 C1309 0.950 . S
H1305 C1310 0.949 . S
H1306 C1312 0.950 . S
H1307 C1313 0.950 . S
H1308 C1314 0.949 . S
C1309 H1304 0.950 . S
C1309 C1311 1.327 . S
C1309 C1315 1.429 . S
C1310 C1302 1.574 . S
C1310 H1305 0.949 . S
C1310 C1316 1.368 . S
C1311 C1295 1.349 . S
C1311 H1303 0.950 . S
C1311 C1309 1.327 . S
C1312 C1300 1.349 . S
C1312 H1306 0.950 . S
C1312 C1313 1.327 . S
C1313 H1307 0.950 . S
C1313 C1312 1.327 . S
C1313 C1317 1.429 . S
C1314 C1297 1.574 . S
C1314 H1308 0.949 . S
C1314 C1318 1.368 . S
C1315 C1296 1.429 . S
C1315 C1309 1.429 . S
C1315 C1316 1.523 . S
C1316 C1297 1.368 . S
C1316 C1310 1.368 . S
C1316 C1315 1.523 . S
C1317 C1301 1.429 . S
C1317 C1313 1.429 . S
C1317 C1318 1.523 . S
C1318 C1302 1.368 . S
C1318 C1314 1.368 . S
C1318 C1317 1.523 . S
H1319 C1294 0.950 . S
H1320 C1296 0.950 . S
H1321 C1297 0.949 . S
H1322 C1299 0.950 . S
H1323 C1301 0.950 . S
C1324 C1325 1.349 . S
C1324 C1326 1.327 . S
C1324 H1349 0.950 . S
C1325 C1324 1.349 . S
C1325 C1341 1.349 . S
C1326 C1324 1.327 . S
C1326 C1345 1.429 . S
C1326 H1350 0.950 . S
C1327 C1344 1.574 . S
C1327 C1346 1.368 . S
C1327 H1351 0.949 . S
H1328 C1332 0.949 . S
C1329 C1330 1.349 . S
C1329 C1331 1.327 . S
C1329 H1352 0.950 . S
C1330 C1329 1.349 . S
C1330 C1342 1.349 . S
C1331 C1329 1.327 . S
C1331 C1347 1.429 . S
C1331 H1353 0.950 . S
C1332 H1328 0.949 . S
C1332 C1340 1.574 . S
C1332 C1348 1.368 . S
H1333 C1341 0.950 . S
H1334 C1339 0.950 . S
H1335 C1340 0.949 . S
H1336 C1342 0.950 . S
H1337 C1343 0.950 . S
H1338 C1344 0.949 . S
C1339 H1334 0.950 . S
C1339 C1341 1.327 . S
C1339 C1345 1.429 . S
C1340 C1332 1.574 . S
C1340 H1335 0.949 . S
C1340 C1346 1.368 . S
C1341 C1325 1.349 . S
C1341 H1333 0.950 . S
C1341 C1339 1.327 . S
C1342 C1330 1.349 . S
C1342 H1336 0.950 . S
C1342 C1343 1.327 . S
C1343 H1337 0.950 . S
C1343 C1342 1.327 . S
C1343 C1347 1.429 . S
C1344 C1327 1.574 . S
C1344 H1338 0.949 . S
C1344 C1348 1.368 . S
C1345 C1326 1.429 . S
C1345 C1339 1.429 . S
C1345 C1346 1.523 . S
C1346 C1327 1.368 . S
C1346 C1340 1.368 . S
C1346 C1345 1.523 . S
C1347 C1331 1.429 . S
C1347 C1343 1.429 . S
C1347 C1348 1.523 . S
C1348 C1332 1.368 . S
C1348 C1344 1.368 . S
C1348 C1347 1.523 . S
H1349 C1324 0.950 . S
H1350 C1326 0.950 . S
H1351 C1327 0.949 . S
H1352 C1329 0.950 . S
H1353 C1331 0.950 . S
C1354 C1355 1.349 . S
C1354 C1356 1.327 . S
C1354 H1379 0.950 . S
C1355 C1354 1.349 . S
C1355 C1371 1.349 . S
C1356 C1354 1.327 . S
C1356 C1375 1.429 . S
C1356 H1380 0.950 . S
C1357 C1374 1.574 . S
C1357 C1376 1.368 . S
C1357 H1381 0.949 . S
H1358 C1362 0.949 . S
C1359 C1360 1.349 . S
C1359 C1361 1.327 . S
C1359 H1382 0.950 . S
C1360 C1359 1.349 . S
C1360 C1372 1.349 . S
C1361 C1359 1.327 . S
C1361 C1377 1.429 . S
C1361 H1383 0.950 . S
C1362 H1358 0.949 . S
C1362 C1370 1.574 . S
C1362 C1378 1.368 . S
H1363 C1371 0.950 . S
H1364 C1369 0.950 . S
H1365 C1370 0.949 . S
H1366 C1372 0.950 . S
H1367 C1373 0.950 . S
H1368 C1374 0.949 . S
C1369 H1364 0.950 . S
C1369 C1371 1.327 . S
C1369 C1375 1.429 . S
C1370 C1362 1.574 . S
C1370 H1365 0.949 . S
C1370 C1376 1.368 . S
C1371 C1355 1.349 . S
C1371 H1363 0.950 . S
C1371 C1369 1.327 . S
C1372 C1360 1.349 . S
C1372 H1366 0.950 . S
C1372 C1373 1.327 . S
C1373 H1367 0.950 . S
C1373 C1372 1.327 . S
C1373 C1377 1.429 . S
C1374 C1357 1.574 . S
C1374 H1368 0.949 . S
C1374 C1378 1.368 . S
C1375 C1356 1.429 . S
C1375 C1369 1.429 . S
C1375 C1376 1.523 . S
C1376 C1357 1.368 . S
C1376 C1370 1.368 . S
C1376 C1375 1.523 . S
C1377 C1361 1.429 . S
C1377 C1373 1.429 . S
C1377 C1378 1.523 . S
C1378 C1362 1.368 . S
C1378 C1374 1.368 . S
C1378 C1377 1.523 . S
H1379 C1354 0.950 . S
H1380 C1356 0.950 . S
H1381 C1357 0.949 . S
H1382 C1359 0.950 . S
H1383 C1361 0.950 . S
C1384 C1385 1.349 . S
C1384 C1386 1.327 . S
C1384 H1409 0.950 . S
C1385 C1384 1.349 . S
C1385 C1401 1.349 . S
C1386 C1384 1.327 . S
C1386 C1405 1.429 . S
C1386 H1410 0.950 . S
C1387 C1404 1.574 . S
C1387 C1406 1.368 . S
C1387 H1411 0.949 . S
H1388 C1392 0.949 . S
C1389 C1390 1.349 . S
C1389 C1391 1.327 . S
C1389 H1412 0.950 . S
C1390 C1389 1.349 . S
C1390 C1402 1.349 . S
C1391 C1389 1.327 . S
C1391 C1407 1.429 . S
C1391 H1413 0.950 . S
C1392 H1388 0.949 . S
C1392 C1400 1.574 . S
C1392 C1408 1.368 . S
H1393 C1401 0.950 . S
H1394 C1399 0.950 . S
H1395 C1400 0.949 . S
H1396 C1402 0.950 . S
H1397 C1403 0.950 . S
H1398 C1404 0.949 . S
C1399 H1394 0.950 . S
C1399 C1401 1.327 . S
C1399 C1405 1.429 . S
C1400 C1392 1.574 . S
C1400 H1395 0.949 . S
C1400 C1406 1.368 . S
C1401 C1385 1.349 . S
C1401 H1393 0.950 . S
C1401 C1399 1.327 . S
C1402 C1390 1.349 . S
C1402 H1396 0.950 . S
C1402 C1403 1.327 . S
C1403 H1397 0.950 . S
C1403 C1402 1.327 . S
C1403 C1407 1.429 . S
C1404 C1387 1.574 . S
C1404 H1398 0.949 . S
C1404 C1408 1.368 . S
C1405 C1386 1.429 . S
C1405 C1399 1.429 . S
C1405 C1406 1.523 . S
C1406 C1387 1.368 . S
C1406 C1400 1.368 . S
C1406 C1405 1.523 . S
C1407 C1391 1.429 . S
C1407 C1403 1.429 . S
C1407 C1408 1.523 . S
C1408 C1392 1.368 . S
C1408 C1404 1.368 . S
C1408 C1407 1.523 . S
H1409 C1384 0.950 . S
H1410 C1386 0.950 . S
H1411 C1387 0.949 . S
H1412 C1389 0.950 . S
H1413 C1391 0.950 . S
C1414 C1415 1.349 . S
C1414 C1416 1.327 . S
C1414 H1439 0.950 . S
C1415 C1414 1.349 . S
C1415 C1431 1.349 . S
C1416 C1414 1.327 . S
C1416 C1435 1.429 . S
C1416 H1440 0.950 . S
C1417 C1434 1.574 . S
C1417 C1436 1.368 . S
C1417 H1441 0.949 . S
H1418 C1422 0.949 . S
C1419 C1420 1.349 . S
C1419 C1421 1.327 . S
C1419 H1442 0.950 . S
C1420 C1419 1.349 . S
C1420 C1432 1.349 . S
C1421 C1419 1.327 . S
C1421 C1437 1.429 . S
C1421 H1443 0.950 . S
C1422 H1418 0.949 . S
C1422 C1430 1.574 . S
C1422 C1438 1.368 . S
H1423 C1431 0.950 . S
H1424 C1429 0.950 . S
H1425 C1430 0.949 . S
H1426 C1432 0.950 . S
H1427 C1433 0.950 . S
H1428 C1434 0.949 . S
C1429 H1424 0.950 . S
C1429 C1431 1.327 . S
C1429 C1435 1.429 . S
C1430 C1422 1.574 . S
C1430 H1425 0.949 . S
C1430 C1436 1.368 . S
C1431 C1415 1.349 . S
C1431 H1423 0.950 . S
C1431 C1429 1.327 . S
C1432 C1420 1.349 . S
C1432 H1426 0.950 . S
C1432 C1433 1.327 . S
C1433 H1427 0.950 . S
C1433 C1432 1.327 . S
C1433 C1437 1.429 . S
C1434 C1417 1.574 . S
C1434 H1428 0.949 . S
C1434 C1438 1.368 . S
C1435 C1416 1.429 . S
C1435 C1429 1.429 . S
C1435 C1436 1.523 . S
C1436 C1417 1.368 . S
C1436 C1430 1.368 . S
C1436 C1435 1.523 . S
C1437 C1421 1.429 . S
C1437 C1433 1.429 . S
C1437 C1438 1.523 . S
C1438 C1422 1.368 . S
C1438 C1434 1.368 . S
C1438 C1437 1.523 . S
H1439 C1414 0.950 . S
H1440 C1416 0.950 . S
H1441 C1417 0.949 . S
H1442 C1419 0.950 . S
H1443 C1421 0.950 . S
C1444 C1445 1.349 . S
C1444 C1446 1.327 . S
C1444 H1469 0.950 . S
C1445 C1444 1.349 . S
C1445 C1461 1.349 . S
C1446 C1444 1.327 . S
C1446 C1465 1.429 . S
C1446 H1470 0.950 . S
C1447 C1464 1.574 . S
C1447 C1466 1.368 . S
C1447 H1471 0.949 . S
H1448 C1452 0.949 . S
C1449 C1450 1.349 . S
C1449 C1451 1.327 . S
C1449 H1472 0.950 . S
C1450 C1449 1.349 . S
C1450 C1462 1.349 . S
C1451 C1449 1.327 . S
C1451 C1467 1.429 . S
C1451 H1473 0.950 . S
C1452 H1448 0.949 . S
C1452 C1460 1.574 . S
C1452 C1468 1.368 . S
H1453 C1461 0.950 . S
H1454 C1459 0.950 . S
H1455 C1460 0.949 . S
H1456 C1462 0.950 . S
H1457 C1463 0.950 . S
H1458 C1464 0.949 . S
C1459 H1454 0.950 . S
C1459 C1461 1.327 . S
C1459 C1465 1.429 . S
C1460 C1452 1.574 . S
C1460 H1455 0.949 . S
C1460 C1466 1.368 . S
C1461 C1445 1.349 . S
C1461 H1453 0.950 . S
C1461 C1459 1.327 . S
C1462 C1450 1.349 . S
C1462 H1456 0.950 . S
C1462 C1463 1.327 . S
C1463 H1457 0.950 . S
C1463 C1462 1.327 . S
C1463 C1467 1.429 . S
C1464 C1447 1.574 . S
C1464 H1458 0.949 . S
C1464 C1468 1.368 . S
C1465 C1446 1.429 . S
C1465 C1459 1.429 . S
C1465 C1466 1.523 . S
C1466 C1447 1.368 . S
C1466 C1460 1.368 . S
C1466 C1465 1.523 . S
C1467 C1451 1.429 . S
C1467 C1463 1.429 . S
C1467 C1468 1.523 . S
C1468 C1452 1.368 . S
C1468 C1464 1.368 . S
C1468 C1467 1.523 . S
H1469 C1444 0.950 . S
H1470 C1446 0.950 . S
H1471 C1447 0.949 . S
H1472 C1449 0.950 . S
H1473 C1451 0.950 . S
C1474 C1475 1.349 . S
C1474 C1476 1.327 . S
C1474 H1499 0.950 . S
C1475 C1474 1.349 . S
C1475 C1491 1.349 . S
C1476 C1474 1.327 . S
C1476 C1495 1.429 . S
C1476 H1500 0.950 . S
C1477 C1494 1.574 . S
C1477 C1496 1.368 . S
C1477 H1501 0.949 . S
H1478 C1482 0.949 . S
C1479 C1480 1.349 . S
C1479 C1481 1.327 . S
C1479 H1502 0.950 . S
C1480 C1479 1.349 . S
C1480 C1492 1.349 . S
C1481 C1479 1.327 . S
C1481 C1497 1.429 . S
C1481 H1503 0.950 . S
C1482 H1478 0.949 . S
C1482 C1490 1.574 . S
C1482 C1498 1.368 . S
H1483 C1491 0.950 . S
H1484 C1489 0.950 . S
H1485 C1490 0.949 . S
H1486 C1492 0.950 . S
H1487 C1493 0.950 . S
H1488 C1494 0.949 . S
C1489 H1484 0.950 . S
C1489 C1491 1.327 . S
C1489 C1495 1.429 . S
C1490 C1482 1.574 . S
C1490 H1485 0.949 . S
C1490 C1496 1.368 . S
C1491 C1475 1.349 . S
C1491 H1483 0.950 . S
C1491 C1489 1.327 . S
C1492 C1480 1.349 . S
C1492 H1486 0.950 . S
C1492 C1493 1.327 . S
C1493 H1487 0.950 . S
C1493 C1492 1.327 . S
C1493 C1497 1.429 . S
C1494 C1477 1.574 . S
C1494 H1488 0.949 . S
C1494 C1498 1.368 . S
C1495 C1476 1.429 . S
C1495 C1489 1.429 . S
C1495 C1496 1.523 . S
C1496 C1477 1.368 . S
C1496 C1490 1.368 . S
C1496 C1495 1.523 . S
C1497 C1481 1.429 . S
C1497 C1493 1.429 . S
C1497 C1498 1.523 . S
C1498 C1482 1.368 . S
C1498 C1494 1.368 . S
C1498 C1497 1.523 . S
H1499 C1474 0.950 . S
H1500 C1476 0.950 . S
H1501 C1477 0.949 . S
H1502 C1479 0.950 . S
H1503 C1481 0.950 . S
C1504 C1505 1.349 . S
C1504 C1506 1.327 . S
C1504 H1529 0.950 . S
C1505 C1504 1.349 . S
C1505 C1521 1.349 . S
C1506 C1504 1.327 . S
C1506 C1525 1.429 . S
C1506 H1530 0.950 . S
C1507 C1524 1.574 . S
C1507 C1526 1.368 . S
C1507 H1531 0.949 . S
H1508 C1512 0.949 . S
C1509 C1510 1.349 . S
C1509 C1511 1.327 . S
C1509 H1532 0.950 . S
C1510 C1509 1.349 . S
C1510 C1522 1.349 . S
C1511 C1509 1.327 . S
C1511 C1527 1.429 . S
C1511 H1533 0.950 . S
C1512 H1508 0.949 . S
C1512 C1520 1.574 . S
C1512 C1528 1.368 . S
H1513 C1521 0.950 . S
H1514 C1519 0.950 . S
H1515 C1520 0.949 . S
H1516 C1522 0.950 . S
H1517 C1523 0.950 . S
H1518 C1524 0.949 . S
C1519 H1514 0.950 . S
C1519 C1521 1.327 . S
C1519 C1525 1.429 . S
C1520 C1512 1.574 . S
C1520 H1515 0.949 . S
C1520 C1526 1.368 . S
C1521 C1505 1.349 . S
C1521 H1513 0.950 . S
C1521 C1519 1.327 . S
C1522 C1510 1.349 . S
C1522 H1516 0.950 . S
C1522 C1523 1.327 . S
C1523 H1517 0.950 . S
C1523 C1522 1.327 . S
C1523 C1527 1.429 . S
C1524 C1507 1.574 . S
C1524 H1518 0.949 . S
C1524 C1528 1.368 . S
C1525 C1506 1.429 . S
C1525 C1519 1.429 . S
C1525 C1526 1.523 . S
C1526 C1507 1.368 . S
C1526 C1520 1.368 . S
C1526 C1525 1.523 . S
C1527 C1511 1.429 . S
C1527 C1523 1.429 . S
C1527 C1528 1.523 . S
C1528 C1512 1.368 . S
C1528 C1524 1.368 . S
C1528 C1527 1.523 . S
H1529 C1504 0.950 . S
H1530 C1506 0.950 . S
H1531 C1507 0.949 . S
H1532 C1509 0.950 . S
H1533 C1511 0.950 . S
C1534 C1535 1.349 . S
C1534 C1536 1.327 . S
C1534 H1559 0.950 . S
C1535 C1534 1.349 . S
C1535 C1551 1.349 . S
C1536 C1534 1.327 . S
C1536 C1555 1.429 . S
C1536 H1560 0.950 . S
C1537 C1554 1.574 . S
C1537 C1556 1.368 . S
C1537 H1561 0.949 . S
H1538 C1542 0.949 . S
C1539 C1540 1.349 . S
C1539 C1541 1.327 . S
C1539 H1562 0.950 . S
C1540 C1539 1.349 . S
C1540 C1552 1.349 . S
C1541 C1539 1.327 . S
C1541 C1557 1.429 . S
C1541 H1563 0.950 . S
C1542 H1538 0.949 . S
C1542 C1550 1.574 . S
C1542 C1558 1.368 . S
H1543 C1551 0.950 . S
H1544 C1549 0.950 . S
H1545 C1550 0.949 . S
H1546 C1552 0.950 . S
H1547 C1553 0.950 . S
H1548 C1554 0.949 . S
C1549 H1544 0.950 . S
C1549 C1551 1.327 . S
C1549 C1555 1.429 . S
C1550 C1542 1.574 . S
C1550 H1545 0.949 . S
C1550 C1556 1.368 . S
C1551 C1535 1.349 . S
C1551 H1543 0.950 . S
C1551 C1549 1.327 . S
C1552 C1540 1.349 . S
C1552 H1546 0.950 . S
C1552 C1553 1.327 . S
C1553 H1547 0.950 . S
C1553 C1552 1.327 . S
C1553 C1557 1.429 . S
C1554 C1537 1.574 . S
C1554 H1548 0.949 . S
C1554 C1558 1.368 . S
C1555 C1536 1.429 . S
C1555 C1549 1.429 . S
C1555 C1556 1.523 . S
C1556 C1537 1.368 . S
C1556 C1550 1.368 . S
C1556 C1555 1.523 . S
C1557 C1541 1.429 . S
C1557 C1553 1.429 . S
C1557 C1558 1.523 . S
C1558 C1542 1.368 . S
C1558 C1554 1.368 . S
C1558 C1557 1.523 . S
H1559 C1534 0.950 . S
H1560 C1536 0.950 . S
H1561 C1537 0.949 . S
H1562 C1539 0.950 . S
H1563 C1541 0.950 . S
C1564 C1565 1.349 . S
C1564 C1566 1.327 . S
C1564 H1589 0.950 . S
C1565 C1564 1.349 . S
C1565 C1581 1.349 . S
C1566 C1564 1.327 . S
C1566 C1585 1.429 . S
C1566 H1590 0.950 . S
C1567 C1584 1.574 . S
C1567 C1586 1.368 . S
C1567 H1591 0.949 . S
H1568 C1572 0.949 . S
C1569 C1570 1.349 . S
C1569 C1571 1.327 . S
C1569 H1592 0.950 . S
C1570 C1569 1.349 . S
C1570 C1582 1.349 . S
C1571 C1569 1.327 . S
C1571 C1587 1.429 . S
C1571 H1593 0.950 . S
C1572 H1568 0.949 . S
C1572 C1580 1.574 . S
C1572 C1588 1.368 . S
H1573 C1581 0.950 . S
H1574 C1579 0.950 . S
H1575 C1580 0.949 . S
H1576 C1582 0.950 . S
H1577 C1583 0.950 . S
H1578 C1584 0.949 . S
C1579 H1574 0.950 . S
C1579 C1581 1.327 . S
C1579 C1585 1.429 . S
C1580 C1572 1.574 . S
C1580 H1575 0.949 . S
C1580 C1586 1.368 . S
C1581 C1565 1.349 . S
C1581 H1573 0.950 . S
C1581 C1579 1.327 . S
C1582 C1570 1.349 . S
C1582 H1576 0.950 . S
C1582 C1583 1.327 . S
C1583 H1577 0.950 . S
C1583 C1582 1.327 . S
C1583 C1587 1.429 . S
C1584 C1567 1.574 . S
C1584 H1578 0.949 . S
C1584 C1588 1.368 . S
C1585 C1566 1.429 . S
C1585 C1579 1.429 . S
C1585 C1586 1.523 . S
C1586 C1567 1.368 . S
C1586 C1580 1.368 . S
C1586 C1585 1.523 . S
C1587 C1571 1.429 . S
C1587 C1583 1.429 . S
C1587 C1588 1.523 . S
C1588 C1572 1.368 . S
C1588 C1584 1.368 . S
C1588 C1587 1.523 . S
H1589 C1564 0.950 . S
H1590 C1566 0.950 . S
H1591 C1567 0.949 . S
H1592 C1569 0.950 . S
H1593 C1571 0.950 . S
C1594 C1595 1.349 . S
C1594 C1596 1.327 . S
C1594 H1619 0.950 . S
C1595 C1594 1.349 . S
C1595 C1611 1.349 . S
C1596 C1594 1.327 . S
C1596 C1615 1.429 . S
C1596 H1620 0.950 . S
C1597 C1614 1.574 . S
C1597 C1616 1.368 . S
C1597 H1621 0.949 . S
H1598 C1602 0.949 . S
C1599 C1600 1.349 . S
C1599 C1601 1.327 . S
C1599 H1622 0.950 . S
C1600 C1599 1.349 . S
C1600 C1612 1.349 . S
C1601 C1599 1.327 . S
C1601 C1617 1.429 . S
C1601 H1623 0.950 . S
C1602 H1598 0.949 . S
C1602 C1610 1.574 . S
C1602 C1618 1.368 . S
H1603 C1611 0.950 . S
H1604 C1609 0.950 . S
H1605 C1610 0.949 . S
H1606 C1612 0.950 . S
H1607 C1613 0.950 . S
H1608 C1614 0.949 . S
C1609 H1604 0.950 . S
C1609 C1611 1.327 . S
C1609 C1615 1.429 . S
C1610 C1602 1.574 . S
C1610 H1605 0.949 . S
C1610 C1616 1.368 . S
C1611 C1595 1.349 . S
C1611 H1603 0.950 . S
C1611 C1609 1.327 . S
C1612 C1600 1.349 . S
C1612 H1606 0.950 . S
C1612 C1613 1.327 . S
C1613 H1607 0.950 . S
C1613 C1612 1.327 . S
C1613 C1617 1.429 . S
C1614 C1597 1.574 . S
C1614 H1608 0.949 . S
C1614 C1618 1.368 . S
C1615 C1596 1.429 . S
C1615 C1609 1.429 . S
C1615 C1616 1.523 . S
C1616 C1597 1.368 . S
C1616 C1610 1.368 . S
C1616 C1615 1.523 . S
C1617 C1601 1.429 . S
C1617 C1613 1.429 . S
C1617 C1618 1.523 . S
C1618 C1602 1.368 . S
C1618 C1614 1.368 . S
C1618 C1617 1.523 . S
H1619 C1594 0.950 . S
H1620 C1596 0.950 . S
H1621 C1597 0.949 . S
H1622 C1599 0.950 . S
H1623 C1601 0.950 . S
C1624 C1625 1.349 . S
C1624 C1626 1.327 . S
C1624 H1649 0.950 . S
C1625 C1624 1.349 . S
C1625 C1641 1.349 . S
C1626 C1624 1.327 . S
C1626 C1645 1.429 . S
C1626 H1650 0.950 . S
C1627 C1644 1.574 . S
C1627 C1646 1.368 . S
C1627 H1651 0.949 . S
H1628 C1632 0.949 . S
C1629 C1630 1.349 . S
C1629 C1631 1.327 . S
C1629 H1652 0.950 . S
C1630 C1629 1.349 . S
C1630 C1642 1.349 . S
C1631 C1629 1.327 . S
C1631 C1647 1.429 . S
C1631 H1653 0.950 . S
C1632 H1628 0.949 . S
C1632 C1640 1.574 . S
C1632 C1648 1.368 . S
H1633 C1641 0.950 . S
H1634 C1639 0.950 . S
H1635 C1640 0.949 . S
H1636 C1642 0.950 . S
H1637 C1643 0.950 . S
H1638 C1644 0.949 . S
C1639 H1634 0.950 . S
C1639 C1641 1.327 . S
C1639 C1645 1.429 . S
C1640 C1632 1.574 . S
C1640 H1635 0.949 . S
C1640 C1646 1.368 . S
C1641 C1625 1.349 . S
C1641 H1633 0.950 . S
C1641 C1639 1.327 . S
C1642 C1630 1.349 . S
C1642 H1636 0.950 . S
C1642 C1643 1.327 . S
C1643 H1637 0.950 . S
C1643 C1642 1.327 . S
C1643 C1647 1.429 . S
C1644 C1627 1.574 . S
C1644 H1638 0.949 . S
C1644 C1648 1.368 . S
C1645 C1626 1.429 . S
C1645 C1639 1.429 . S
C1645 C1646 1.523 . S
C1646 C1627 1.368 . S
C1646 C1640 1.368 . S
C1646 C1645 1.523 . S
C1647 C1631 1.429 . S
C1647 C1643 1.429 . S
C1647 C1648 1.523 . S
C1648 C1632 1.368 . S
C1648 C1644 1.368 . S
C1648 C1647 1.523 . S
H1649 C1624 0.950 . S
H1650 C1626 0.950 . S
H1651 C1627 0.949 . S
H1652 C1629 0.950 . S
H1653 C1631 0.950 . S
C1654 C1655 1.349 . S
C1654 C1656 1.327 . S
C1654 H1679 0.950 . S
C1655 C1654 1.349 . S
C1655 C1671 1.349 . S
C1656 C1654 1.327 . S
C1656 C1675 1.429 . S
C1656 H1680 0.950 . S
C1657 C1674 1.574 . S
C1657 C1676 1.368 . S
C1657 H1681 0.949 . S
H1658 C1662 0.949 . S
C1659 C1660 1.349 . S
C1659 C1661 1.327 . S
C1659 H1682 0.950 . S
C1660 C1659 1.349 . S
C1660 C1672 1.349 . S
C1661 C1659 1.327 . S
C1661 C1677 1.429 . S
C1661 H1683 0.950 . S
C1662 H1658 0.949 . S
C1662 C1670 1.574 . S
C1662 C1678 1.368 . S
H1663 C1671 0.950 . S
H1664 C1669 0.950 . S
H1665 C1670 0.949 . S
H1666 C1672 0.950 . S
H1667 C1673 0.950 . S
H1668 C1674 0.949 . S
C1669 H1664 0.950 . S
C1669 C1671 1.327 . S
C1669 C1675 1.429 . S
C1670 C1662 1.574 . S
C1670 H1665 0.949 . S
C1670 C1676 1.368 . S
C1671 C1655 1.349 . S
C1671 H1663 0.950 . S
C1671 C1669 1.327 . S
C1672 C1660 1.349 . S
C1672 H1666 0.950 . S
C1672 C1673 1.327 . S
C1673 H1667 0.950 . S
C1673 C1672 1.327 . S
C1673 C1677 1.429 . S
C1674 C1657 1.574 . S
C1674 H1668 0.949 . S
C1674 C1678 1.368 . S
C1675 C1656 1.429 . S
C1675 C1669 1.429 . S
C1675 C1676 1.523 . S
C1676 C1657 1.368 . S
C1676 C1670 1.368 . S
C1676 C1675 1.523 . S
C1677 C1661 1.429 . S
C1677 C1673 1.429 . S
C1677 C1678 1.523 . S
C1678 C1662 1.368 . S
C1678 C1674 1.368 . S
C1678 C1677 1.523 . S
H1679 C1654 0.950 . S
H1680 C1656 0.950 . S
H1681 C1657 0.949 . S
H1682 C1659 0.950 . S
H1683 C1661 0.950 . S
C1684 C1685 1.349 . S
C1684 C1686 1.327 . S
C1684 H1709 0.950 . S
C1685 C1684 1.349 . S
C1685 C1701 1.349 . S
C1686 C1684 1.327 . S
C1686 C1705 1.429 . S
C1686 H1710 0.950 . S
C1687 C1704 1.574 . S
C1687 C1706 1.368 . S
C1687 H1711 0.949 . S
H1688 C1692 0.949 . S
C1689 C1690 1.349 . S
C1689 C1691 1.327 . S
C1689 H1712 0.950 . S
C1690 C1689 1.349 . S
C1690 C1702 1.349 . S
C1691 C1689 1.327 . S
C1691 C1707 1.429 . S
C1691 H1713 0.950 . S
C1692 H1688 0.949 . S
C1692 C1700 1.574 . S
C1692 C1708 1.368 . S
H1693 C1701 0.950 . S
H1694 C1699 0.950 . S
H1695 C1700 0.949 . S
H1696 C1702 0.950 . S
H1697 C1703 0.950 . S
H1698 C1704 0.949 . S
C1699 H1694 0.950 . S
C1699 C1701 1.327 . S
C1699 C1705 1.429 . S
C1700 C1692 1.574 . S
C1700 H1695 0.949 . S
C1700 C1706 1.368 . S
C1701 C1685 1.349 . S
C1701 H1693 0.950 . S
C1701 C1699 1.327 . S
C1702 C1690 1.349 . S
C1702 H1696 0.950 . S
C1702 C1703 1.327 . S
C1703 H1697 0.950 . S
C1703 C1702 1.327 . S
C1703 C1707 1.429 . S
C1704 C1687 1.574 . S
C1704 H1698 0.949 . S
C1704 C1708 1.368 . S
C1705 C1686 1.429 . S
C1705 C1699 1.429 . S
C1705 C1706 1.523 . S
C1706 C1687 1.368 . S
C1706 C1700 1.368 . S
C1706 C1705 1.523 . S
C1707 C1691 1.429 . S
C1707 C1703 1.429 . S
C1707 C1708 1.523 . S
C1708 C1692 1.368 . S
C1708 C1704 1.368 . S
C1708 C1707 1.523 . S
H1709 C1684 0.950 . S
H1710 C1686 0.950 . S
H1711 C1687 0.949 . S
H1712 C1689 0.950 . S
H1713 C1691 0.950 . S
C1714 C1715 1.349 . S
C1714 C1716 1.327 . S
C1714 H1739 0.950 . S
C1715 C1714 1.349 . S
C1715 C1731 1.349 . S
C1716 C1714 1.327 . S
C1716 C1735 1.429 . S
C1716 H1740 0.950 . S
C1717 C1734 1.574 . S
C1717 C1736 1.368 . S
C1717 H1741 0.949 . S
H1718 C1722 0.949 . S
C1719 C1720 1.349 . S
C1719 C1721 1.327 . S
C1719 H1742 0.950 . S
C1720 C1719 1.349 . S
C1720 C1732 1.349 . S
C1721 C1719 1.327 . S
C1721 C1737 1.429 . S
C1721 H1743 0.950 . S
C1722 H1718 0.949 . S
C1722 C1730 1.574 . S
C1722 C1738 1.368 . S
H1723 C1731 0.950 . S
H1724 C1729 0.950 . S
H1725 C1730 0.949 . S
H1726 C1732 0.950 . S
H1727 C1733 0.950 . S
H1728 C1734 0.949 . S
C1729 H1724 0.950 . S
C1729 C1731 1.327 . S
C1729 C1735 1.429 . S
C1730 C1722 1.574 . S
C1730 H1725 0.949 . S
C1730 C1736 1.368 . S
C1731 C1715 1.349 . S
C1731 H1723 0.950 . S
C1731 C1729 1.327 . S
C1732 C1720 1.349 . S
C1732 H1726 0.950 . S
C1732 C1733 1.327 . S
C1733 H1727 0.950 . S
C1733 C1732 1.327 . S
C1733 C1737 1.429 . S
C1734 C1717 1.574 . S
C1734 H1728 0.949 . S
C1734 C1738 1.368 . S
C1735 C1716 1.429 . S
C1735 C1729 1.429 . S
C1735 C1736 1.523 . S
C1736 C1717 1.368 . S
C1736 C1730 1.368 . S
C1736 C1735 1.523 . S
C1737 C1721 1.429 . S
C1737 C1733 1.429 . S
C1737 C1738 1.523 . S
C1738 C1722 1.368 . S
C1738 C1734 1.368 . S
C1738 C1737 1.523 . S
H1739 C1714 0.950 . S
H1740 C1716 0.950 . S
H1741 C1717 0.949 . S
H1742 C1719 0.950 . S
H1743 C1721 0.950 . S
C545 C5 1.053 . S
C550 C277 1.053 . S
C575 C311 1.053 . S
C580 C39 1.053 . S
C605 C73 1.053 . S
C610 C345 1.053 . S
C635 C107 1.053 . S
C640 C379 1.053 . S
C665 C141 1.053 . S
C670 C413 1.053 . S
C695 C447 1.053 . S
C700 C175 1.053 . S
C725 C481 1.053 . S
C730 C209 1.053 . S
C755 C243 1.053 . S
C760 C515 1.053 . S
C785 C9 1.142 . S
C790 C145 1.142 . S
C815 C43 1.142 . S
C820 C179 1.142 . S
C845 C77 1.142 . S
C850 C213 1.142 . S
C875 C111 1.142 . S
C880 C247 1.142 . S
C905 C417 1.142 . S
C910 C281 1.142 . S
C935 C451 1.142 . S
C940 C315 1.142 . S
C965 C485 1.142 . S
C970 C349 1.142 . S
C995 C383 1.142 . S
C1000 C519 1.142 . S
C1025 C2 1.997 . S
C1030 C240 1.997 . S
C1055 C138 1.997 . S
C1060 C36 1.997 . S
C1085 C172 1.997 . S
C1090 C70 1.997 . S
C1115 C104 1.997 . S
C1120 C206 1.997 . S
C1145 C512 1.997 . S
C1150 C274 1.997 . S
C1175 C410 1.997 . S
C1180 C308 1.997 . S
C1205 C342 1.997 . S
C1210 C444 1.997 . S
C1235 C376 1.997 . S
C1240 C478 1.997 . S
C1265 C543 1.223 . S
C1270 C20 1.191 . S
C1295 C54 1.191 . S
C1300 C441 1.223 . S
C1325 C88 1.191 . S
C1330 C475 1.223 . S
C1355 C509 1.223 . S
C1360 C122 1.191 . S
C1385 C156 1.191 . S
C1390 C339 1.223 . S
C1415 C190 1.191 . S
C1420 C373 1.223 . S
C1445 C407 1.223 . S
C1450 C224 1.191 . S
C1475 C258 1.191 . S
C1480 C305 1.223 . S
C1505 C292 1.191 . S
C1510 C271 1.223 . S
C1535 C169 1.223 . S
C1540 C326 1.191 . S
C1565 C360 1.191 . S
C1570 C203 1.223 . S
C1595 C237 1.223 . S
C1600 C394 1.191 . S
C1625 C428 1.191 . S
C1630 C67 1.223 . S
C1655 C101 1.223 . S
C1660 C462 1.191 . S
C1685 C135 1.223 . S
C1690 C496 1.191 . S
C1715 C33 1.223 . S
C1720 C530 1.191 . S
