# Generated by pormake.
# Topology umk, (4)-cn, num edge types: 1
# Building blocks:
#     Node 0, Type 0, BuildingBlock: UXUYUI_clean_sbu_0, # of connection points: 4
#     Node 1, Type 0, BuildingBlock: UXUYUI_clean_sbu_0, # of connection points: 4
#     Node 2, Type 0, BuildingBlock: UXUYUI_clean_sbu_0, # of connection points: 4
#     Node 3, Type 0, BuildingBlock: UXUYUI_clean_sbu_0, # of connection points: 4
#     Node 4, Type 0, BuildingBlock: UXUYUI_clean_sbu_0, # of connection points: 4
#     Node 5, Type 0, BuildingBlock: UXUYUI_clean_sbu_0, # of connection points: 4
#     Node 6, Type 0, BuildingBlock: UXUYUI_clean_sbu_0, # of connection points: 4
#     Node 7, Type 0, BuildingBlock: UXUYUI_clean_sbu_0, # of connection points: 4
#     Node 8, Type 0, BuildingBlock: UXUYUI_clean_sbu_0, # of connection points: 4
#     Node 9, Type 0, BuildingBlock: UXUYUI_clean_sbu_0, # of connection points: 4
#     Node 10, Type 0, BuildingBlock: UXUYUI_clean_sbu_0, # of connection points: 4
#     Node 11, Type 0, BuildingBlock: UXUYUI_clean_sbu_0, # of connection points: 4
#     Node 12, Type 0, BuildingBlock: UXUYUI_clean_sbu_0, # of connection points: 4
#     Node 13, Type 0, BuildingBlock: UXUYUI_clean_sbu_0, # of connection points: 4
#     Node 14, Type 0, BuildingBlock: UXUYUI_clean_sbu_0, # of connection points: 4
#     Node 15, Type 0, BuildingBlock: UXUYUI_clean_sbu_0, # of connection points: 4
#     Node 16, Type 0, BuildingBlock: UXUYUI_clean_sbu_0, # of connection points: 4
#     Node 17, Type 0, BuildingBlock: UXUYUI_clean_sbu_0, # of connection points: 4
#     Node 18, Type 0, BuildingBlock: UXUYUI_clean_sbu_0, # of connection points: 4
#     Node 19, Type 0, BuildingBlock: UXUYUI_clean_sbu_0, # of connection points: 4
#     Node 20, Type 0, BuildingBlock: UXUYUI_clean_sbu_0, # of connection points: 4
#     Node 21, Type 0, BuildingBlock: UXUYUI_clean_sbu_0, # of connection points: 4
#     Node 22, Type 0, BuildingBlock: UXUYUI_clean_sbu_0, # of connection points: 4
#     Node 23, Type 0, BuildingBlock: UXUYUI_clean_sbu_0, # of connection points: 4
#     Edge 24, Type (0, 0), BuildingBlock: UVAHIK_clean_linker_0, # of connection points: 2
#     Edge 25, Type (0, 0), BuildingBlock: UVAHIK_clean_linker_0, # of connection points: 2
#     Edge 26, Type (0, 0), BuildingBlock: UVAHIK_clean_linker_0, # of connection points: 2
#     Edge 27, Type (0, 0), BuildingBlock: UVAHIK_clean_linker_0, # of connection points: 2
#     Edge 28, Type (0, 0), BuildingBlock: UVAHIK_clean_linker_0, # of connection points: 2
#     Edge 29, Type (0, 0), BuildingBlock: UVAHIK_clean_linker_0, # of connection points: 2
#     Edge 30, Type (0, 0), BuildingBlock: UVAHIK_clean_linker_0, # of connection points: 2
#     Edge 31, Type (0, 0), BuildingBlock: UVAHIK_clean_linker_0, # of connection points: 2
#     Edge 32, Type (0, 0), BuildingBlock: UVAHIK_clean_linker_0, # of connection points: 2
#     Edge 33, Type (0, 0), BuildingBlock: UVAHIK_clean_linker_0, # of connection points: 2
#     Edge 34, Type (0, 0), BuildingBlock: UVAHIK_clean_linker_0, # of connection points: 2
#     Edge 35, Type (0, 0), BuildingBlock: UVAHIK_clean_linker_0, # of connection points: 2
#     Edge 36, Type (0, 0), BuildingBlock: UVAHIK_clean_linker_0, # of connection points: 2
#     Edge 37, Type (0, 0), BuildingBlock: UVAHIK_clean_linker_0, # of connection points: 2
#     Edge 38, Type (0, 0), BuildingBlock: UVAHIK_clean_linker_0, # of connection points: 2
#     Edge 39, Type (0, 0), BuildingBlock: UVAHIK_clean_linker_0, # of connection points: 2
#     Edge 40, Type (0, 0), BuildingBlock: UVAHIK_clean_linker_0, # of connection points: 2
#     Edge 41, Type (0, 0), BuildingBlock: UVAHIK_clean_linker_0, # of connection points: 2
#     Edge 42, Type (0, 0), BuildingBlock: UVAHIK_clean_linker_0, # of connection points: 2
#     Edge 43, Type (0, 0), BuildingBlock: UVAHIK_clean_linker_0, # of connection points: 2
#     Edge 44, Type (0, 0), BuildingBlock: UVAHIK_clean_linker_0, # of connection points: 2
#     Edge 45, Type (0, 0), BuildingBlock: UVAHIK_clean_linker_0, # of connection points: 2
#     Edge 46, Type (0, 0), BuildingBlock: UVAHIK_clean_linker_0, # of connection points: 2
#     Edge 47, Type (0, 0), BuildingBlock: UVAHIK_clean_linker_0, # of connection points: 2
#     Edge 48, Type (0, 0), BuildingBlock: UVAHIK_clean_linker_0, # of connection points: 2
#     Edge 49, Type (0, 0), BuildingBlock: UVAHIK_clean_linker_0, # of connection points: 2
#     Edge 50, Type (0, 0), BuildingBlock: UVAHIK_clean_linker_0, # of connection points: 2
#     Edge 51, Type (0, 0), BuildingBlock: UVAHIK_clean_linker_0, # of connection points: 2
#     Edge 52, Type (0, 0), BuildingBlock: UVAHIK_clean_linker_0, # of connection points: 2
#     Edge 53, Type (0, 0), BuildingBlock: UVAHIK_clean_linker_0, # of connection points: 2
#     Edge 54, Type (0, 0), BuildingBlock: UVAHIK_clean_linker_0, # of connection points: 2
#     Edge 55, Type (0, 0), BuildingBlock: UVAHIK_clean_linker_0, # of connection points: 2
#     Edge 56, Type (0, 0), BuildingBlock: UVAHIK_clean_linker_0, # of connection points: 2
#     Edge 57, Type (0, 0), BuildingBlock: UVAHIK_clean_linker_0, # of connection points: 2
#     Edge 58, Type (0, 0), BuildingBlock: UVAHIK_clean_linker_0, # of connection points: 2
#     Edge 59, Type (0, 0), BuildingBlock: UVAHIK_clean_linker_0, # of connection points: 2
#     Edge 60, Type (0, 0), BuildingBlock: UVAHIK_clean_linker_0, # of connection points: 2
#     Edge 61, Type (0, 0), BuildingBlock: UVAHIK_clean_linker_0, # of connection points: 2
#     Edge 62, Type (0, 0), BuildingBlock: UVAHIK_clean_linker_0, # of connection points: 2
#     Edge 63, Type (0, 0), BuildingBlock: UVAHIK_clean_linker_0, # of connection points: 2
#     Edge 64, Type (0, 0), BuildingBlock: UVAHIK_clean_linker_0, # of connection points: 2
#     Edge 65, Type (0, 0), BuildingBlock: UVAHIK_clean_linker_0, # of connection points: 2
#     Edge 66, Type (0, 0), BuildingBlock: UVAHIK_clean_linker_0, # of connection points: 2
#     Edge 67, Type (0, 0), BuildingBlock: UVAHIK_clean_linker_0, # of connection points: 2
#     Edge 68, Type (0, 0), BuildingBlock: UVAHIK_clean_linker_0, # of connection points: 2
#     Edge 69, Type (0, 0), BuildingBlock: UVAHIK_clean_linker_0, # of connection points: 2
#     Edge 70, Type (0, 0), BuildingBlock: UVAHIK_clean_linker_0, # of connection points: 2
#     Edge 71, Type (0, 0), BuildingBlock: UVAHIK_clean_linker_0, # of connection points: 2
# Relax obj value: 0.190
# Max RMSD: 0.162
# Mean RMSD: 0.162
data_MOF--net-umk--node1-UXUYUI_clean_sbu_0--edge1-UVAHIK_clean_linker_0
_symmetry_space_group_name_H-M    P1
_symmetry_Int_Tables_number       1
_symmetry_cell_setting            triclinic
loop_
_symmetry_equiv_pos_as_xyz
'x, y, z'
_cell_length_a     115.78495
_cell_length_b     115.77
_cell_length_c     73.847656
_cell_angle_alpha  89.995874
_cell_angle_beta   90.004041
_cell_angle_gamma 120.01872
loop_
_atom_site_label
_atom_site_type_symbol
_atom_site_fract_x
_atom_site_fract_y
_atom_site_fract_z
_atom_type_partial_charge
Li0 Li 0.33089 0.45772 0.0843 0.0
Li1 Li 0.33144 0.44318 0.06082 0.0
Li2 Li 0.34085 0.46757 0.05466 0.0
Li3 Li 0.3169 0.45202 0.0561 0.0
C4 C 0.35806 0.46475 0.08299 0.0
N5 N 0.38087 0.47695 0.10399 0.0
C6 C 0.36347 0.45729 0.0901 0.0
C7 C 0.36441 0.47846 0.08631 0.0
C8 C 0.37495 0.46362 0.10077 0.0
C9 C 0.37589 0.48443 0.09701 0.0
C10 C 0.30994 0.42705 0.08068 0.0
C11 C 0.29675 0.40381 0.0726 0.0
N12 N 0.29796 0.40036 0.08981 0.0
C13 C 0.31091 0.42328 0.09834 0.0
C14 C 0.30268 0.41724 0.06774 0.0
C15 C 0.30483 0.40974 0.10267 0.0
C16 C 0.32455 0.46594 0.11704 0.0
N17 N 0.33127 0.46026 0.10964 0.0
C18 C 0.33716 0.45617 0.13893 0.0
C19 C 0.33751 0.45541 0.12014 0.0
C20 C 0.33025 0.46192 0.14699 0.0
C21 C 0.324 0.46699 0.13582 0.0
H22 H 0.31936 0.46938 0.10836 0.0
H23 H 0.34238 0.45053 0.11393 0.0
C24 C 0.33371 0.42317 0.04128 0.0
N25 N 0.33386 0.42835 0.05785 0.0
C26 C 0.33591 0.41239 0.03973 0.0
C27 C 0.33807 0.41242 0.07232 0.0
C28 C 0.33593 0.42321 0.07321 0.0
C29 C 0.33829 0.407 0.0554 0.0
H30 H 0.33212 0.42754 0.02929 0.0
H31 H 0.33602 0.42758 0.08618 0.0
C32 C 0.32972 0.4822 0.0713 0.0
N33 N 0.33466 0.50792 0.07676 0.0
C34 C 0.32285 0.48708 0.06122 0.0
C35 C 0.33889 0.49033 0.08443 0.0
C36 C 0.32554 0.50013 0.06409 0.0
C37 C 0.3413 0.50332 0.08692 0.0
C38 C 0.32403 0.45008 0.02204 0.0
C39 C 0.32823 0.46075 0.00997 0.0
C40 C 0.31372 0.43745 0.01706 0.0
C41 C 0.32183 0.45864 0.99324 0.0
C42 C 0.30756 0.43575 0.00022 0.0
N43 N 0.31171 0.4463 0.98877 0.0
C44 C 0.3669 0.48402 0.0417 0.0
C45 C 0.35238 0.49255 0.0365 0.0
C46 C 0.37756 0.49542 0.03414 0.0
N47 N 0.35469 0.48294 0.04308 0.0
C48 C 0.36272 0.50411 0.02879 0.0
C49 C 0.37556 0.50572 0.02775 0.0
H50 H 0.3684 0.47608 0.04666 0.0
H51 H 0.3425 0.49127 0.03719 0.0
C52 C 0.28895 0.43904 0.05579 0.0
N53 N 0.30013 0.44853 0.04737 0.0
C54 C 0.27644 0.43693 0.05066 0.0
C55 C 0.28723 0.45428 0.02814 0.0
C56 C 0.2995 0.45607 0.03373 0.0
C57 C 0.27551 0.44474 0.03684 0.0
H58 H 0.28976 0.43339 0.06685 0.0
H59 H 0.30856 0.46372 0.0275 0.0
O60 O 0.34677 0.45867 0.07254 0.0
O61 O 0.316 0.44027 0.07611 0.0
O62 O 0.32715 0.46942 0.06867 0.0
O63 O 0.33013 0.45198 0.03851 0.0
H64 H 0.35883 0.44671 0.08748 0.0
H65 H 0.36066 0.48447 0.08045 0.0
H66 H 0.37918 0.45794 0.10645 0.0
H67 H 0.38088 0.49504 0.09969 0.0
H68 H 0.29119 0.39612 0.06268 0.0
H69 H 0.31636 0.43072 0.10858 0.0
H70 H 0.30166 0.41998 0.0541 0.0
H71 H 0.30559 0.40669 0.11626 0.0
H72 H 0.34214 0.45219 0.14708 0.0
H73 H 0.3184 0.4713 0.14153 0.0
H74 H 0.33614 0.40859 0.02641 0.0
H75 H 0.33964 0.40845 0.08476 0.0
H76 H 0.31558 0.48091 0.05118 0.0
H77 H 0.34395 0.48662 0.09283 0.0
H78 H 0.32038 0.50405 0.05626 0.0
H79 H 0.34841 0.50971 0.097 0.0
H80 H 0.33628 0.47056 0.0135 0.0
H81 H 0.31048 0.42905 0.02609 0.0
H82 H 0.32492 0.46683 0.98382 0.0
H83 H 0.29951 0.42604 0.99625 0.0
H84 H 0.38724 0.49615 0.03327 0.0
H85 H 0.36075 0.5118 0.02404 0.0
H86 H 0.26768 0.42962 0.0579 0.0
H87 H 0.28693 0.46043 0.0173 0.0
Li88 Li 0.88249 0.33365 0.56376 0.0
Li89 Li 0.86546 0.33032 0.58831 0.0
Li90 Li 0.85917 0.31722 0.56029 0.0
Li91 Li 0.86588 0.34013 0.55929 0.0
C92 C 0.86964 0.30534 0.57909 0.0
N93 N 0.86473 0.27944 0.57732 0.0
C94 C 0.86199 0.29614 0.59248 0.0
C95 C 0.87487 0.3014 0.56486 0.0
C96 C 0.85961 0.28308 0.59133 0.0
C97 C 0.87225 0.28825 0.5642 0.0
C98 C 0.88462 0.36045 0.5773 0.0
C99 C 0.88178 0.37914 0.58487 0.0
N100 N 0.89264 0.38723 0.57465 0.0
C101 C 0.89583 0.36896 0.56702 0.0
C102 C 0.8776 0.36558 0.58645 0.0
C103 C 0.8997 0.38247 0.56581 0.0
C104 C 0.90681 0.34514 0.54511 0.0
N105 N 0.9 0.3374 0.55948 0.0
C106 C 0.91852 0.33491 0.5679 0.0
C107 C 0.9055 0.33222 0.57076 0.0
C108 C 0.92599 0.34317 0.55344 0.0
C109 C 0.91992 0.34825 0.54189 0.0
H110 H 0.90209 0.34905 0.53634 0.0
H111 H 0.89977 0.32601 0.58201 0.0
C112 C 0.85158 0.31881 0.62034 0.0
N113 N 0.86233 0.32975 0.61334 0.0
C114 C 0.8492 0.31785 0.63895 0.0
C115 C 0.86881 0.33963 0.64261 0.0
C116 C 0.87087 0.34011 0.62396 0.0
C117 C 0.85793 0.32833 0.65032 0.0
H118 H 0.84493 0.31079 0.61145 0.0
H119 H 0.87936 0.34866 0.61795 0.0
C120 C 0.86531 0.32854 0.52571 0.0
N121 N 0.85322 0.32478 0.49229 0.0
C122 C 0.8522 0.326 0.52448 0.0
C123 C 0.87229 0.32922 0.50995 0.0
C124 C 0.84625 0.32411 0.50746 0.0
C125 C 0.866 0.32728 0.49317 0.0
C126 C 0.83909 0.32617 0.57613 0.0
C127 C 0.82746 0.31841 0.56612 0.0
C128 C 0.83888 0.33393 0.5905 0.0
C129 C 0.8159 0.31877 0.57042 0.0
C130 C 0.82712 0.33401 0.59438 0.0
N131 N 0.81597 0.32651 0.58433 0.0
C132 C 0.83735 0.29189 0.56369 0.0
C133 C 0.84908 0.29506 0.53613 0.0
C134 C 0.82858 0.2786 0.55935 0.0
N135 N 0.84732 0.29977 0.55212 0.0
C136 C 0.84037 0.28188 0.53107 0.0
C137 C 0.82994 0.27344 0.54276 0.0
H138 H 0.83641 0.2959 0.57648 0.0
H139 H 0.85729 0.30147 0.52737 0.0
C140 C 0.87324 0.3608 0.53474 0.0
N141 N 0.86383 0.35368 0.54744 0.0
C142 C 0.87354 0.37172 0.52634 0.0
C143 C 0.85411 0.3675 0.54368 0.0
C144 C 0.85425 0.35671 0.55187 0.0
C145 C 0.86398 0.37528 0.53096 0.0
H146 H 0.88077 0.35819 0.53151 0.0
H147 H 0.84693 0.35103 0.56205 0.0
O148 O 0.87175 0.31806 0.57964 0.0
O149 O 0.88042 0.34712 0.57818 0.0
O150 O 0.87138 0.33043 0.5422 0.0
O151 O 0.85042 0.32572 0.57231 0.0
H152 H 0.85786 0.29903 0.60356 0.0
H153 H 0.8807 0.30838 0.5543 0.0
H154 H 0.85365 0.27583 0.60155 0.0
H155 H 0.87615 0.28504 0.5532 0.0
H156 H 0.87637 0.38322 0.59174 0.0
H157 H 0.90139 0.36517 0.5599 0.0
H158 H 0.86894 0.35914 0.59451 0.0
H159 H 0.90829 0.38916 0.55777 0.0
H160 H 0.92267 0.33057 0.57697 0.0
H161 H 0.92533 0.35484 0.53075 0.0
H162 H 0.84064 0.30903 0.64439 0.0
H163 H 0.87584 0.34784 0.65097 0.0
H164 H 0.8467 0.32555 0.53651 0.0
H165 H 0.88247 0.33121 0.51069 0.0
H166 H 0.83611 0.32214 0.50632 0.0
H167 H 0.87128 0.32776 0.48085 0.0
H168 H 0.82735 0.31213 0.55519 0.0
H169 H 0.84771 0.33988 0.59853 0.0
H170 H 0.80685 0.31286 0.56274 0.0
H171 H 0.82685 0.34003 0.60539 0.0
H172 H 0.82091 0.27243 0.569 0.0
H173 H 0.84174 0.27843 0.51805 0.0
H174 H 0.88124 0.3774 0.51645 0.0
H175 H 0.84663 0.37001 0.54772 0.0
Li176 Li 0.5489 0.88685 0.05985 0.0
Li177 Li 0.53602 0.87114 0.08528 0.0
Li178 Li 0.54188 0.8637 0.05825 0.0
Li179 Li 0.525 0.86959 0.05643 0.0
C180 C 0.56444 0.87445 0.07647 0.0
N181 N 0.58486 0.86865 0.07593 0.0
C182 C 0.56522 0.86637 0.08992 0.0
C183 C 0.5741 0.87967 0.06284 0.0
C184 C 0.57561 0.86353 0.08938 0.0
C185 C 0.58433 0.8766 0.06277 0.0
C186 C 0.52995 0.89332 0.08179 0.0
C187 C 0.51367 0.89842 0.09397 0.0
N188 N 0.52368 0.91055 0.0994 0.0
C189 C 0.54007 0.90588 0.0874 0.0
C190 C 0.51662 0.88958 0.08502 0.0
C191 C 0.53671 0.91443 0.09632 0.0
C192 C 0.56332 0.9104 0.03888 0.0
N193 N 0.56273 0.9042 0.05476 0.0
C194 C 0.583 0.9229 0.06496 0.0
C195 C 0.57233 0.91007 0.06762 0.0
C196 C 0.58382 0.92968 0.04883 0.0
C197 C 0.57391 0.92326 0.03558 0.0
H198 H 0.55555 0.90538 0.02887 0.0
H199 H 0.5716 0.90478 0.08003 0.0
C200 C 0.53254 0.85779 0.11818 0.0
N201 N 0.53411 0.86924 0.11079 0.0
C202 C 0.53122 0.85585 0.13689 0.0
C203 C 0.53297 0.87746 0.13997 0.0
C204 C 0.53439 0.87902 0.12126 0.0
C205 C 0.53145 0.86579 0.14807 0.0
H206 H 0.53241 0.8502 0.1095 0.0
H207 H 0.53575 0.88807 0.11517 0.0
C208 C 0.5348 0.86762 0.02338 0.0
N209 N 0.52406 0.8534 0.99184 0.0
C210 C 0.52566 0.85393 0.0241 0.0
C211 C 0.53847 0.87406 0.00662 0.0
C212 C 0.52034 0.84692 0.008 0.0
C213 C 0.53293 0.8667 0.99082 0.0
C214 C 0.51245 0.84669 0.07861 0.0
C215 C 0.50608 0.83292 0.0758 0.0
C216 C 0.50631 0.85207 0.08922 0.0
C217 C 0.49357 0.82474 0.08358 0.0
C218 C 0.49381 0.84357 0.09678 0.0
N219 N 0.48774 0.83019 0.09382 0.0
C220 C 0.54543 0.84168 0.06133 0.0
C221 C 0.55441 0.85419 0.03442 0.0
C222 C 0.55008 0.83308 0.05656 0.0
N223 N 0.54767 0.85195 0.05028 0.0
C224 C 0.55899 0.84568 0.02892 0.0
C225 C 0.55686 0.83493 0.04005 0.0
H226 H 0.54023 0.84033 0.07402 0.0
H227 H 0.55626 0.86262 0.02607 0.0
C228 C 0.50777 0.87741 0.04195 0.0
N229 N 0.50875 0.86647 0.04592 0.0
C230 C 0.49577 0.87597 0.03566 0.0
C231 C 0.48622 0.85202 0.03666 0.0
C232 C 0.49839 0.85393 0.04306 0.0
C233 C 0.48475 0.86314 0.03321 0.0
H234 H 0.51626 0.88726 0.04408 0.0
H235 H 0.49949 0.84539 0.046 0.0
O236 O 0.55415 0.87704 0.07646 0.0
O237 O 0.53309 0.88485 0.07293 0.0
O238 O 0.54013 0.87477 0.03893 0.0
O239 O 0.52465 0.85478 0.07092 0.0
H240 H 0.55781 0.86224 0.10055 0.0
H241 H 0.57358 0.88587 0.05226 0.0
H242 H 0.5763 0.85723 0.09964 0.0
H243 H 0.59182 0.88048 0.05223 0.0
H244 H 0.5034 0.89564 0.09657 0.0
H245 H 0.55042 0.90896 0.08508 0.0
H246 H 0.50861 0.88 0.08061 0.0
H247 H 0.54445 0.92415 0.10081 0.0
H248 H 0.59053 0.92747 0.0754 0.0
H249 H 0.57418 0.92824 0.02303 0.0
H250 H 0.53024 0.84677 0.14253 0.0
H251 H 0.53298 0.8853 0.14798 0.0
H252 H 0.52272 0.84874 0.03691 0.0
H253 H 0.54553 0.88465 0.00584 0.0
H254 H 0.51327 0.83633 0.00837 0.0
H255 H 0.53568 0.87156 0.97776 0.0
H256 H 0.51073 0.82862 0.06761 0.0
H257 H 0.51118 0.86266 0.09169 0.0
H258 H 0.48849 0.81407 0.08147 0.0
H259 H 0.48894 0.8476 0.10504 0.0
H260 H 0.54846 0.82515 0.0658 0.0
H261 H 0.56396 0.84742 0.01596 0.0
H262 H 0.49511 0.8848 0.03284 0.0
H263 H 0.47794 0.84197 0.03494 0.0
Li264 Li 0.66166 0.55149 0.56543 0.0
Li265 Li 0.6643 0.53737 0.58745 0.0
Li266 Li 0.67359 0.54119 0.55699 0.0
Li267 Li 0.65016 0.52713 0.55976 0.0
C268 C 0.68466 0.56745 0.58059 0.0
N269 N 0.69663 0.59442 0.588 0.0
C270 C 0.68519 0.57184 0.59836 0.0
C271 C 0.69044 0.57679 0.56664 0.0
C272 C 0.69124 0.58551 0.60182 0.0
C273 C 0.69637 0.59037 0.57064 0.0
C274 C 0.63669 0.52866 0.59022 0.0
C275 C 0.62413 0.50835 0.6073 0.0
N276 N 0.61454 0.51162 0.61041 0.0
C277 C 0.62673 0.53184 0.59358 0.0
C278 C 0.63541 0.51684 0.59713 0.0
C279 C 0.6156 0.52309 0.60382 0.0
C280 C 0.66034 0.57299 0.54874 0.0
N281 N 0.65964 0.56666 0.56454 0.0
C282 C 0.65581 0.58206 0.58123 0.0
C283 C 0.65741 0.57092 0.5806 0.0
C284 C 0.65633 0.58876 0.56512 0.0
C285 C 0.65873 0.58416 0.54872 0.0
H286 H 0.66198 0.56928 0.53615 0.0
H287 H 0.65688 0.56562 0.59292 0.0
C288 C 0.67049 0.52743 0.61922 0.0
N289 N 0.66549 0.53498 0.61259 0.0
C290 C 0.67103 0.52584 0.6379 0.0
C291 C 0.66094 0.53955 0.64243 0.0
C292 C 0.6607 0.54096 0.62372 0.0
C293 C 0.66618 0.53194 0.64972 0.0
H294 H 0.67396 0.52254 0.61007 0.0
H295 H 0.65671 0.54684 0.61802 0.0
C296 C 0.66367 0.54267 0.52498 0.0
N297 N 0.67213 0.544 0.48964 0.0
C298 C 0.65767 0.53136 0.51391 0.0
C299 C 0.67388 0.55469 0.51799 0.0
C300 C 0.66211 0.53223 0.4961 0.0
C301 C 0.67805 0.55515 0.50012 0.0
C302 C 0.67155 0.51829 0.56677 0.0
C303 C 0.66714 0.5076 0.55473 0.0
C304 C 0.68419 0.52366 0.57463 0.0
C305 C 0.67549 0.50246 0.5507 0.0
C306 C 0.69225 0.51827 0.57021 0.0
N307 N 0.68777 0.50787 0.55844 0.0
C308 C 0.70099 0.55332 0.54877 0.0
C309 C 0.68713 0.53492 0.52999 0.0
C310 C 0.71235 0.55488 0.54003 0.0
N311 N 0.6887 0.54345 0.54365 0.0
C312 C 0.6982 0.53614 0.52084 0.0
C313 C 0.71103 0.54616 0.52594 0.0
H314 H 0.702 0.55978 0.55994 0.0
H315 H 0.6773 0.52696 0.52643 0.0
C316 C 0.62649 0.51379 0.53943 0.0
N317 N 0.63436 0.51209 0.55151 0.0
C318 C 0.61507 0.50273 0.53258 0.0
C319 C 0.61985 0.4885 0.55133 0.0
C320 C 0.63122 0.49981 0.55768 0.0
C321 C 0.61168 0.48985 0.53842 0.0
H322 H 0.62925 0.52371 0.53484 0.0
H323 H 0.6376 0.4988 0.56748 0.0
O324 O 0.67854 0.55408 0.57686 0.0
O325 O 0.64763 0.53716 0.58022 0.0
O326 O 0.65942 0.54201 0.54245 0.0
O327 O 0.66361 0.52361 0.57065 0.0
H328 H 0.68096 0.56479 0.60936 0.0
H329 H 0.69025 0.57358 0.55286 0.0
H330 H 0.69163 0.58904 0.6155 0.0
H331 H 0.70076 0.59769 0.55995 0.0
H332 H 0.62301 0.49916 0.61273 0.0
H333 H 0.6276 0.54098 0.58833 0.0
H334 H 0.64304 0.51424 0.59471 0.0
H335 H 0.6078 0.52541 0.60653 0.0
H336 H 0.65414 0.58535 0.59419 0.0
H337 H 0.65898 0.5889 0.53597 0.0
H338 H 0.67498 0.51975 0.64302 0.0
H339 H 0.65722 0.54452 0.6511 0.0
H340 H 0.64983 0.52194 0.51907 0.0
H341 H 0.67861 0.56355 0.52629 0.0
H342 H 0.65762 0.52353 0.48744 0.0
H343 H 0.686 0.56437 0.49459 0.0
H344 H 0.65746 0.50342 0.54835 0.0
H345 H 0.68785 0.53211 0.58372 0.0
H346 H 0.67224 0.49423 0.54133 0.0
H347 H 0.7021 0.5224 0.57607 0.0
H348 H 0.72208 0.56258 0.54462 0.0
H349 H 0.69672 0.52925 0.50997 0.0
H350 H 0.60916 0.50426 0.52251 0.0
H351 H 0.61749 0.47881 0.5565 0.0
Li352 Li 0.12469 0.67221 0.08912 0.0
Li353 Li 0.10839 0.6662 0.06483 0.0
Li354 Li 0.1249 0.65888 0.06452 0.0
Li355 Li 0.13125 0.68213 0.05914 0.0
C356 C 0.10489 0.64853 0.09805 0.0
N357 N 0.09441 0.63827 0.13175 0.0
C358 C 0.093 0.64775 0.10367 0.0
C359 C 0.11141 0.644 0.10951 0.0
C360 C 0.08786 0.64254 0.12076 0.0
C361 C 0.10597 0.63889 0.12652 0.0
C362 C 0.12316 0.69686 0.07642 0.0
C363 C 0.12507 0.71628 0.0615 0.0
N364 N 0.1326 0.724 0.07551 0.0
C365 C 0.13088 0.70498 0.0907 0.0
C366 C 0.12016 0.70253 0.06174 0.0
C367 C 0.13557 0.71868 0.08998 0.0
C368 C 0.13794 0.67586 0.12268 0.0
N369 N 0.12716 0.67519 0.11438 0.0
C370 C 0.11827 0.67695 0.14272 0.0
C371 C 0.11754 0.67598 0.1239 0.0
C372 C 0.12911 0.6773 0.15181 0.0
C373 C 0.13914 0.67695 0.1415 0.0
H374 H 0.1455 0.67535 0.11473 0.0
H375 H 0.10911 0.67548 0.11685 0.0
C376 C 0.0824 0.64806 0.05413 0.0
N377 N 0.09056 0.66095 0.05907 0.0
C378 C 0.06934 0.64378 0.04875 0.0
C379 C 0.07318 0.66602 0.05439 0.0
C380 C 0.08623 0.66991 0.05948 0.0
C381 C 0.06462 0.65284 0.04879 0.0
H382 H 0.0861 0.64114 0.05422 0.0
H383 H 0.09291 0.68005 0.06369 0.0
C384 C 0.15044 0.67265 0.072 0.0
N385 N 0.17036 0.6667 0.06532 0.0
C386 C 0.15954 0.67905 0.05795 0.0
C387 C 0.15153 0.66329 0.08273 0.0
C388 C 0.16954 0.67589 0.05478 0.0
C389 C 0.16165 0.66039 0.0791 0.0
C390 C 0.11062 0.66131 0.0306 0.0
C391 C 0.1057 0.64811 0.02508 0.0
C392 C 0.10585 0.66899 0.02236 0.0
C393 C 0.09602 0.64278 0.0115 0.0
C394 C 0.09614 0.66329 0.00886 0.0
N395 N 0.09147 0.65041 0.00375 0.0
C396 C 0.11989 0.63253 0.06526 0.0
C397 C 0.13567 0.64626 0.04314 0.0
C398 C 0.12035 0.62142 0.05898 0.0
N399 N 0.12742 0.6446 0.05723 0.0
C400 C 0.13654 0.63542 0.03653 0.0
C401 C 0.12863 0.62277 0.04429 0.0
H402 H 0.1132 0.63144 0.07616 0.0
H403 H 0.14124 0.6559 0.03668 0.0
C404 C 0.15193 0.70885 0.05454 0.0
N405 N 0.14261 0.69771 0.04587 0.0
C406 C 0.15962 0.72062 0.04486 0.0
C407 C 0.1484 0.70898 0.01743 0.0
C408 C 0.14086 0.6975 0.02766 0.0
C409 C 0.15782 0.72075 0.02607 0.0
H410 H 0.15327 0.70863 0.069 0.0
H411 H 0.13355 0.68844 0.02108 0.0
O412 O 0.11023 0.65386 0.08153 0.0
O413 O 0.11861 0.68345 0.07678 0.0
O414 O 0.1405 0.6755 0.0752 0.0
O415 O 0.11993 0.66664 0.04411 0.0
H416 H 0.08785 0.65125 0.095 0.0
H417 H 0.12067 0.64461 0.10541 0.0
H418 H 0.0787 0.64193 0.12533 0.0
H419 H 0.11096 0.63546 0.13559 0.0
H420 H 0.12292 0.72082 0.05015 0.0
H421 H 0.13335 0.70078 0.10214 0.0
H422 H 0.11431 0.69642 0.05049 0.0
H423 H 0.1416 0.7251 0.1009 0.0
H424 H 0.11021 0.67702 0.15007 0.0
H425 H 0.14779 0.67743 0.14789 0.0
H426 H 0.06295 0.63346 0.04488 0.0
H427 H 0.06986 0.67326 0.05464 0.0
H428 H 0.15884 0.68632 0.04951 0.0
H429 H 0.14452 0.65818 0.09358 0.0
H430 H 0.17662 0.68073 0.04392 0.0
H431 H 0.16255 0.65309 0.0872 0.0
H432 H 0.1092 0.64198 0.03133 0.0
H433 H 0.10945 0.67918 0.02656 0.0
H434 H 0.09208 0.63257 0.00716 0.0
H435 H 0.09229 0.66908 0.00249 0.0
H436 H 0.11414 0.61182 0.06536 0.0
H437 H 0.14289 0.63681 0.025 0.0
H438 H 0.16697 0.72946 0.05193 0.0
H439 H 0.14676 0.7087 0.00296 0.0
Li440 Li 0.45992 0.12785 0.58734 0.0
Li441 Li 0.44631 0.11302 0.56376 0.0
Li442 Li 0.46918 0.12956 0.5577 0.0
Li443 Li 0.45269 0.13594 0.56221 0.0
C444 C 0.45917 0.10323 0.58501 0.0
N445 N 0.45211 0.08082 0.6058 0.0
C446 C 0.44949 0.09948 0.59853 0.0
C447 C 0.46525 0.09559 0.58207 0.0
C448 C 0.44606 0.08812 0.60889 0.0
C449 C 0.46155 0.08429 0.59272 0.0
C450 C 0.42853 0.11992 0.57881 0.0
C451 C 0.40943 0.11388 0.55973 0.0
N452 N 0.40238 0.11384 0.57448 0.0
C453 C 0.4211 0.11982 0.59377 0.0
C454 C 0.42266 0.11693 0.56163 0.0
C455 C 0.40789 0.11671 0.59131 0.0
C456 C 0.45784 0.13622 0.62177 0.0
N457 N 0.46358 0.13028 0.61246 0.0
C458 C 0.47423 0.12869 0.63925 0.0
C459 C 0.47171 0.12657 0.62072 0.0
C460 C 0.46837 0.13474 0.64928 0.0
C461 C 0.4601 0.13855 0.6403 0.0
H462 H 0.45149 0.13912 0.61475 0.0
H463 H 0.47626 0.122 0.61292 0.0
C464 C 0.43219 0.08998 0.54229 0.0
N465 N 0.4325 0.09545 0.55869 0.0
C466 C 0.42205 0.07704 0.53826 0.0
C467 C 0.4128 0.07573 0.56807 0.0
C468 C 0.42305 0.08867 0.57147 0.0
C469 C 0.41226 0.06973 0.55133 0.0
H470 H 0.43986 0.09565 0.5324 0.0
H471 H 0.42345 0.0933 0.58433 0.0
C472 C 0.48306 0.15147 0.5808 0.0
N473 N 0.50794 0.16587 0.59658 0.0
C474 C 0.48856 0.16512 0.58403 0.0
C475 C 0.49019 0.14513 0.58563 0.0
C476 C 0.50116 0.17223 0.59201 0.0
C477 C 0.50276 0.15259 0.59358 0.0
C478 C 0.45763 0.13194 0.52654 0.0
C479 C 0.467 0.14558 0.527 0.0
C480 C 0.45269 0.12566 0.50989 0.0
C481 C 0.47126 0.15269 0.51077 0.0
C482 C 0.45719 0.13312 0.49395 0.0
N483 N 0.46631 0.14637 0.49472 0.0
C484 C 0.48462 0.1219 0.53768 0.0
C485 C 0.49498 0.14533 0.54172 0.0
C486 C 0.49567 0.12336 0.52815 0.0
N487 N 0.48454 0.13279 0.54438 0.0
C488 C 0.50633 0.14723 0.53255 0.0
C489 C 0.50676 0.13614 0.52574 0.0
H490 H 0.47611 0.11208 0.53991 0.0
H491 H 0.49456 0.15386 0.54684 0.0
C492 C 0.44858 0.15716 0.56917 0.0
N493 N 0.44664 0.14789 0.55646 0.0
C494 C 0.44398 0.16606 0.56622 0.0
C495 C 0.43542 0.15563 0.53715 0.0
C496 C 0.44004 0.14683 0.54078 0.0
C497 C 0.43739 0.16544 0.54994 0.0
H498 H 0.45364 0.15754 0.58168 0.0
H499 H 0.43833 0.13915 0.53107 0.0
O500 O 0.46266 0.11426 0.57455 0.0
O501 O 0.4415 0.12302 0.58108 0.0
O502 O 0.47067 0.14441 0.57314 0.0
O503 O 0.45332 0.12467 0.54219 0.0
H504 H 0.44466 0.10526 0.60102 0.0
H505 H 0.47276 0.09836 0.57164 0.0
H506 H 0.43857 0.0851 0.61939 0.0
H507 H 0.46618 0.07828 0.59059 0.0
H508 H 0.40477 0.11156 0.54652 0.0
H509 H 0.4255 0.12211 0.60716 0.0
H510 H 0.42823 0.11695 0.54987 0.0
H511 H 0.40202 0.1166 0.60278 0.0
H512 H 0.48079 0.12575 0.64562 0.0
H513 H 0.45527 0.1431 0.64756 0.0
H514 H 0.42203 0.0727 0.52526 0.0
H515 H 0.40534 0.07049 0.57841 0.0
H516 H 0.48313 0.17015 0.58041 0.0
H517 H 0.48612 0.13459 0.58323 0.0
H518 H 0.50555 0.1828 0.59458 0.0
H519 H 0.5084 0.14782 0.59737 0.0
H520 H 0.47092 0.15066 0.53972 0.0
H521 H 0.44543 0.11511 0.50929 0.0
H522 H 0.47849 0.16324 0.51094 0.0
H523 H 0.45344 0.12838 0.48098 0.0
H524 H 0.4957 0.11458 0.52313 0.0
H525 H 0.51467 0.15724 0.53075 0.0
H526 H 0.44552 0.1733 0.5766 0.0
H527 H 0.43057 0.15486 0.52432 0.0
Li528 Li 0.52906 0.66065 0.93848 0.0
Li529 Li 0.547 0.68388 0.93875 0.0
Li530 Li 0.54137 0.67138 0.91095 0.0
Li531 Li 0.55231 0.66696 0.93621 0.0
C532 C 0.52145 0.67994 0.93251 0.0
N533 N 0.5047 0.6879 0.94759 0.0
C534 C 0.52082 0.68096 0.95132 0.0
C535 C 0.51358 0.68299 0.92139 0.0
C536 C 0.51229 0.685 0.95867 0.0
C537 C 0.50516 0.68698 0.92927 0.0
C538 C 0.54862 0.66722 0.97156 0.0
C539 C 0.56771 0.6722 0.99015 0.0
N540 N 0.55988 0.66148 0.00075 0.0
C541 C 0.54072 0.65639 0.98284 0.0
C542 C 0.56219 0.67531 0.97543 0.0
C543 C 0.54661 0.65361 0.99746 0.0
C544 C 0.51273 0.63591 0.95338 0.0
N545 N 0.51235 0.64676 0.94717 0.0
C546 C 0.48892 0.63611 0.95294 0.0
C547 C 0.50071 0.64697 0.94652 0.0
C548 C 0.48912 0.62492 0.9599 0.0
C549 C 0.50122 0.62487 0.95993 0.0
H550 H 0.52204 0.63585 0.95317 0.0
H551 H 0.50047 0.65545 0.94092 0.0
C552 C 0.553 0.71082 0.93838 0.0
N553 N 0.55246 0.7009 0.94883 0.0
C554 C 0.55705 0.72334 0.9459 0.0
C555 C 0.55956 0.715 0.97481 0.0
C556 C 0.55556 0.70273 0.96672 0.0
C557 C 0.56031 0.72548 0.96438 0.0
H558 H 0.5502 0.70898 0.92426 0.0
H559 H 0.55478 0.69461 0.9748 0.0
C560 C 0.52749 0.64363 0.91135 0.0
N561 N 0.50773 0.62298 0.89147 0.0
C562 C 0.52811 0.63206 0.90815 0.0
C563 C 0.5168 0.64469 0.90449 0.0
C564 C 0.51803 0.62173 0.89806 0.0
C565 C 0.50692 0.63415 0.89446 0.0
C566 C 0.56841 0.69624 0.91832 0.0
C567 C 0.56758 0.70278 0.90289 0.0
C568 C 0.57839 0.70336 0.93112 0.0
C569 C 0.5766 0.71638 0.90067 0.0
C570 C 0.58721 0.71695 0.92844 0.0
N571 N 0.58613 0.72313 0.9134 0.0
C572 C 0.53507 0.6788 0.87754 0.0
C573 C 0.54336 0.66381 0.87562 0.0
C574 C 0.53365 0.67862 0.85875 0.0
N575 N 0.53986 0.67147 0.8855 0.0
C576 C 0.54191 0.66316 0.85685 0.0
C577 C 0.53703 0.67065 0.84812 0.0
H578 H 0.53244 0.68486 0.8858 0.0
H579 H 0.54711 0.65806 0.88238 0.0
C580 C 0.55972 0.64922 0.95022 0.0
N581 N 0.56454 0.66134 0.94226 0.0
C582 C 0.56844 0.64492 0.9558 0.0
C583 C 0.58687 0.66558 0.94455 0.0
C584 C 0.57779 0.66951 0.93926 0.0
C585 C 0.58222 0.65316 0.95298 0.0
H586 H 0.5491 0.64296 0.95236 0.0
H587 H 0.58129 0.67909 0.93286 0.0
O588 O 0.52986 0.67621 0.92487 0.0
O589 O 0.54306 0.66999 0.95701 0.0
O590 O 0.53726 0.65376 0.92135 0.0
O591 O 0.55954 0.68295 0.92083 0.0
H592 H 0.52679 0.67862 0.96019 0.0
H593 H 0.51395 0.68227 0.90681 0.0
H594 H 0.5117 0.68582 0.97319 0.0
H595 H 0.499 0.68936 0.92082 0.0
H596 H 0.57824 0.67829 0.99312 0.0
H597 H 0.53014 0.65026 0.98047 0.0
H598 H 0.56844 0.68381 0.967 0.0
H599 H 0.54061 0.64522 0.00622 0.0
H600 H 0.47978 0.63653 0.95262 0.0
H601 H 0.50176 0.61632 0.96475 0.0
H602 H 0.5573 0.73114 0.93751 0.0
H603 H 0.562 0.71628 0.9891 0.0
H604 H 0.5363 0.63108 0.91345 0.0
H605 H 0.51611 0.65354 0.90689 0.0
H606 H 0.51838 0.61272 0.89546 0.0
H607 H 0.4986 0.63484 0.88906 0.0
H608 H 0.56001 0.69745 0.89277 0.0
H609 H 0.57925 0.69849 0.9431 0.0
H610 H 0.57601 0.72157 0.88884 0.0
H611 H 0.59489 0.7226 0.93833 0.0
H612 H 0.53008 0.68475 0.85266 0.0
H613 H 0.54441 0.65668 0.84933 0.0
H614 H 0.56444 0.63516 0.96195 0.0
H615 H 0.59742 0.67222 0.94218 0.0
Li616 Li 0.87579 0.53396 0.43571 0.0
Li617 Li 0.86487 0.5472 0.43467 0.0
Li618 Li 0.87605 0.54482 0.407 0.0
Li619 Li 0.88903 0.55907 0.4326 0.0
C620 C 0.85274 0.51765 0.41695 0.0
N621 N 0.83738 0.49067 0.40992 0.0
C622 C 0.84062 0.50999 0.42595 0.0
C623 C 0.85695 0.51164 0.40418 0.0
C624 C 0.83302 0.49634 0.42227 0.0
C625 C 0.84907 0.49798 0.40087 0.0
C626 C 0.87401 0.55095 0.46908 0.0
C627 C 0.87271 0.56682 0.48889 0.0
N628 N 0.86607 0.55698 0.50129 0.0
C629 C 0.86733 0.54103 0.4821 0.0
C630 C 0.87686 0.56398 0.47256 0.0
C631 C 0.86334 0.54427 0.49827 0.0
C632 C 0.88544 0.5165 0.44444 0.0
N633 N 0.87499 0.51865 0.44624 0.0
C634 C 0.86255 0.49824 0.46257 0.0
C635 C 0.86376 0.50993 0.45533 0.0
C636 C 0.87303 0.49554 0.4605 0.0
C637 C 0.88464 0.50491 0.4514 0.0
H638 H 0.89438 0.52373 0.43753 0.0
H639 H 0.85573 0.51205 0.45693 0.0
C640 C 0.84721 0.55721 0.436 0.0
N641 N 0.84993 0.548 0.44308 0.0
C642 C 0.83614 0.55788 0.44197 0.0
C643 C 0.83078 0.53943 0.46218 0.0
C644 C 0.84194 0.53911 0.45579 0.0
C645 C 0.82777 0.54891 0.45524 0.0
H646 H 0.85352 0.56391 0.42554 0.0
H647 H 0.84421 0.53172 0.4609 0.0
C648 C 0.90025 0.54423 0.40878 0.0
N649 N 0.91827 0.54238 0.38613 0.0
C650 C 0.91255 0.55554 0.40497 0.0
C651 C 0.89719 0.53195 0.40121 0.0
C652 C 0.9215 0.55441 0.39346 0.0
C653 C 0.90641 0.53123 0.38975 0.0
C654 C 0.88087 0.57375 0.41128 0.0
C655 C 0.88549 0.57764 0.39359 0.0
C656 C 0.88102 0.5831 0.42339 0.0
C657 C 0.89036 0.59089 0.38839 0.0
C658 C 0.88598 0.59626 0.41768 0.0
N659 N 0.89052 0.59985 0.40044 0.0
C660 C 0.86214 0.53761 0.37435 0.0
C661 C 0.88546 0.54696 0.37062 0.0
C662 C 0.86019 0.53596 0.35567 0.0
N663 N 0.87461 0.54293 0.38143 0.0
C664 C 0.88395 0.54529 0.35193 0.0
C665 C 0.87118 0.53976 0.34416 0.0
H666 H 0.85372 0.53471 0.38326 0.0
H667 H 0.89531 0.55159 0.3764 0.0
C668 C 0.91006 0.57456 0.45614 0.0
N669 N 0.90507 0.57462 0.43953 0.0
C670 C 0.92226 0.58527 0.46168 0.0
C671 C 0.9237 0.59613 0.43315 0.0
C672 C 0.91162 0.5851 0.42804 0.0
C673 C 0.92935 0.59621 0.45003 0.0
H674 H 0.90475 0.56599 0.46489 0.0
H675 H 0.90774 0.58478 0.41468 0.0
O676 O 0.86036 0.531 0.42052 0.0
O677 O 0.87785 0.54794 0.45308 0.0
O678 O 0.89137 0.54519 0.42002 0.0
O679 O 0.87608 0.56082 0.41659 0.0
H680 H 0.83715 0.51451 0.43577 0.0
H681 H 0.86616 0.51747 0.39685 0.0
H682 H 0.82367 0.49027 0.42923 0.0
H683 H 0.85224 0.49319 0.39106 0.0
H684 H 0.87479 0.57685 0.49171 0.0
H685 H 0.86515 0.53092 0.4797 0.0
H686 H 0.88224 0.57181 0.46277 0.0
H687 H 0.85806 0.53667 0.50841 0.0
H688 H 0.85354 0.49146 0.46983 0.0
H689 H 0.89295 0.50322 0.44937 0.0
H690 H 0.83402 0.56517 0.436 0.0
H691 H 0.82463 0.53238 0.47251 0.0
H692 H 0.91513 0.56511 0.41077 0.0
H693 H 0.88783 0.52306 0.4042 0.0
H694 H 0.93102 0.56309 0.39033 0.0
H695 H 0.90414 0.5218 0.38377 0.0
H696 H 0.88539 0.57054 0.384 0.0
H697 H 0.87733 0.58025 0.43705 0.0
H698 H 0.89403 0.59405 0.37477 0.0
H699 H 0.8862 0.60361 0.42693 0.0
H700 H 0.85019 0.53192 0.35035 0.0
H701 H 0.89273 0.54825 0.34371 0.0
H702 H 0.9263 0.58468 0.47465 0.0
H703 H 0.92867 0.60436 0.42375 0.0
Li704 Li 0.33347 0.86245 0.93659 0.0
Li705 Li 0.31111 0.85721 0.93177 0.0
Li706 Li 0.32584 0.86417 0.90616 0.0
Li707 Li 0.32816 0.87959 0.93039 0.0
C708 C 0.3247 0.84033 0.91354 0.0
N709 N 0.33458 0.82521 0.89835 0.0
C710 C 0.31642 0.82658 0.91139 0.0
C711 C 0.338 0.84641 0.90792 0.0
C712 C 0.3216 0.8191 0.9037 0.0
C713 C 0.34281 0.83859 0.90029 0.0
C714 C 0.31972 0.8607 0.96754 0.0
C715 C 0.3176 0.85936 8e-05 0.0
N716 N 0.31318 0.84606 -0.00077 0.0
C717 C 0.31515 0.84701 0.967 0.0
C718 C 0.32097 0.86694 0.98421 0.0
C719 C 0.3119 0.83978 0.98316 0.0
C720 C 0.35566 0.86974 0.95788 0.0
N721 N 0.34529 0.85889 0.95008 0.0
C722 C 0.35323 0.8448 0.96141 0.0
C723 C 0.34371 0.8465 0.95204 0.0
C724 C 0.36436 0.85594 0.96899 0.0
C725 C 0.3654 0.86851 0.96735 0.0
H726 H 0.35639 0.87938 0.95659 0.0
H727 H 0.33512 0.83794 0.94625 0.0
C728 C 0.2854 0.83646 0.92527 0.0
N729 N 0.29297 0.84596 0.9376 0.0
C730 C 0.27182 0.82804 0.92835 0.0
C731 C 0.27412 0.83941 0.95675 0.0
C732 C 0.28761 0.84774 0.95298 0.0
C733 C 0.26603 0.82933 0.9444 0.0
H734 H 0.28995 0.83553 0.91296 0.0
H735 H 0.29379 0.85562 0.96232 0.0
C736 C 0.35116 0.88955 0.91227 0.0
N737 N 0.36844 0.91494 0.89955 0.0
C738 C 0.3476 0.89462 0.89745 0.0
C739 C 0.36354 0.8974 0.92058 0.0
C740 C 0.35646 0.90747 0.89122 0.0
C741 C 0.37213 0.91021 0.91396 0.0
C742 C 0.30215 0.87128 0.91409 0.0
C743 C 0.29283 0.86637 0.90002 0.0
C744 C 0.29958 0.8766 0.92955 0.0
C745 C 0.28106 0.86687 0.90166 0.0
C746 C 0.2877 0.87691 0.93067 0.0
N747 N 0.27876 0.87208 0.91683 0.0
C748 C 0.31571 0.85523 0.87145 0.0
C749 C 0.33934 0.86708 0.87296 0.0
C750 C 0.31612 0.85408 0.85269 0.0
N751 N 0.3272 0.86191 0.88105 0.0
C752 C 0.34023 0.8662 0.85423 0.0
C753 C 0.32851 0.85984 0.84383 0.0
H754 H 0.30622 0.851 0.87836 0.0
H755 H 0.34832 0.87209 0.88101 0.0
C756 C 0.34026 0.90362 0.95017 0.0
N757 N 0.33335 0.89756 0.93487 0.0
C758 C 0.34545 0.91731 0.95257 0.0
C759 C 0.33607 0.91806 0.92359 0.0
C760 C 0.33091 0.90437 0.92188 0.0
C761 C 0.34363 0.92468 0.93893 0.0
H762 H 0.34209 0.8979 0.96017 0.0
H763 H 0.32541 0.89925 0.90985 0.0
O764 O 0.31965 0.84772 0.92096 0.0
O765 O 0.32307 0.8681 0.95197 0.0
O766 O 0.34244 0.87711 0.91886 0.0
O767 O 0.31356 0.87053 0.91298 0.0
H768 H 0.30609 0.82174 0.91564 0.0
H769 H 0.3446 0.85701 0.90952 0.0
H770 H 0.3153 0.80845 0.90197 0.0
H771 H 0.35308 0.84315 0.89592 0.0
H772 H 0.31852 0.86407 0.01307 0.0
H773 H 0.31409 0.84196 0.95428 0.0
H774 H 0.32451 0.87754 0.98486 0.0
H775 H 0.30835 0.82919 0.98293 0.0
H776 H 0.35191 0.83489 0.96268 0.0
H777 H 0.37382 0.87739 0.97289 0.0
H778 H 0.26594 0.8206 0.91827 0.0
H779 H 0.27017 0.8407 0.96939 0.0
H780 H 0.33797 0.88879 0.89103 0.0
H781 H 0.36652 0.89367 0.93201 0.0
H782 H 0.35378 0.91154 0.87985 0.0
H783 H 0.38173 0.9164 0.92028 0.0
H784 H 0.29463 0.8622 0.88798 0.0
H785 H 0.30657 0.88023 0.9407 0.0
H786 H 0.27375 0.86309 0.89089 0.0
H787 H 0.28555 0.88093 0.9426 0.0
H788 H 0.30686 0.84913 0.84516 0.0
H789 H 0.34997 0.87056 0.84794 0.0
H790 H 0.35135 0.92217 0.96449 0.0
H791 H 0.33444 0.92347 0.91286 0.0
Li792 Li 0.46229 0.33735 0.43531 0.0
Li793 Li 0.44695 0.31355 0.43926 0.0
Li794 Li 0.45156 0.32384 0.4094 0.0
Li795 Li 0.43824 0.32772 0.43147 0.0
C796 C 0.47683 0.32601 0.43048 0.0
N797 N 0.50278 0.33447 0.44092 0.0
C798 C 0.47937 0.31998 0.44517 0.0
C799 C 0.48748 0.33627 0.42103 0.0
C800 C 0.49256 0.32441 0.45024 0.0
C801 C 0.50053 0.34044 0.42655 0.0
C802 C 0.44246 0.33257 0.46619 0.0
C803 C 0.42387 0.32844 0.48528 0.0
N804 N 0.43039 0.34149 0.4903 0.0
C805 C 0.44899 0.34593 0.47158 0.0
C806 C 0.42982 0.32372 0.47315 0.0
C807 C 0.44272 0.35025 0.48378 0.0
C808 C 0.48259 0.36437 0.43634 0.0
N809 N 0.47781 0.35233 0.44457 0.0
C810 C 0.49466 0.36187 0.46735 0.0
C811 C 0.48351 0.3509 0.45986 0.0
C812 C 0.49979 0.37445 0.45919 0.0
C813 C 0.49363 0.37564 0.44347 0.0
H814 H 0.47769 0.36527 0.42441 0.0
H815 H 0.47927 0.34125 0.46634 0.0
C816 C 0.4433 0.28776 0.44421 0.0
N817 N 0.44345 0.29825 0.45268 0.0
C818 C 0.43971 0.27605 0.45375 0.0
C819 C 0.43736 0.28651 0.48077 0.0
C820 C 0.44078 0.29794 0.47064 0.0
C821 C 0.43662 0.27535 0.47223 0.0
H822 H 0.44576 0.28843 0.42998 0.0
H823 H 0.44123 0.30652 0.47708 0.0
C824 C 0.45348 0.34651 0.39966 0.0
N825 N 0.45441 0.35635 0.36528 0.0
C826 C 0.44205 0.34571 0.39204 0.0
C827 C 0.46541 0.3524 0.38984 0.0
C828 C 0.44273 0.35075 0.37464 0.0
C829 C 0.46566 0.35728 0.37246 0.0
C830 C 0.42598 0.29739 0.41927 0.0
C831 C 0.42732 0.28998 0.40534 0.0
C832 C 0.41664 0.29083 0.43302 0.0
C833 C 0.41933 0.27609 0.40545 0.0
C834 C 0.40886 0.27693 0.43267 0.0
N835 N 0.41036 0.26991 0.419 0.0
C836 C 0.4647 0.32295 0.37737 0.0
C837 C 0.4427 0.31908 0.37359 0.0
C838 C 0.46612 0.32234 0.35868 0.0
N839 N 0.4532 0.32152 0.38435 0.0
C840 C 0.44369 0.31843 0.35485 0.0
C841 C 0.45557 0.32021 0.34715 0.0
H842 H 0.47284 0.32478 0.38629 0.0
H843 H 0.43369 0.31799 0.37958 0.0
C844 C 0.42687 0.34357 0.43861 0.0
N845 N 0.4239 0.33094 0.4346 0.0
C846 C 0.41667 0.34642 0.44158 0.0
C847 C 0.40056 0.32325 0.43579 0.0
C848 C 0.41109 0.32084 0.433 0.0
C849 C 0.40332 0.33617 0.44021 0.0
H850 H 0.43718 0.35143 0.43952 0.0
H851 H 0.40904 0.31093 0.42955 0.0
O852 O 0.46399 0.32193 0.42545 0.0
O853 O 0.44831 0.3282 0.45396 0.0
O854 O 0.45295 0.34134 0.41649 0.0
O855 O 0.43381 0.31099 0.41949 0.0
H856 H 0.47126 0.31204 0.45265 0.0
H857 H 0.48569 0.34112 0.40974 0.0
H858 H 0.49468 0.31988 0.46162 0.0
H859 H 0.50887 0.34844 0.41945 0.0
H860 H 0.41405 0.32173 0.49065 0.0
H861 H 0.45874 0.35294 0.46628 0.0
H862 H 0.42457 0.31337 0.46901 0.0
H863 H 0.44764 0.36058 0.48801 0.0
H864 H 0.499 0.3606 0.47965 0.0
H865 H 0.49733 0.38516 0.43676 0.0
H866 H 0.43947 0.26768 0.44682 0.0
H867 H 0.43509 0.28632 0.49504 0.0
H868 H 0.43272 0.34111 0.39939 0.0
H869 H 0.47431 0.35298 0.39547 0.0
H870 H 0.43394 0.35013 0.36854 0.0
H871 H 0.47478 0.36174 0.36464 0.0
H872 H 0.43455 0.29486 0.39464 0.0
H873 H 0.41557 0.29639 0.44403 0.0
H874 H 0.42031 0.27022 0.39479 0.0
H875 H 0.40168 0.27172 0.4433 0.0
H876 H 0.47538 0.32359 0.35332 0.0
H877 H 0.43538 0.31695 0.34649 0.0
H878 H 0.41923 0.35659 0.44458 0.0
H879 H 0.3904 0.31508 0.43463 0.0
Li880 Li 0.12269 0.47035 0.93594 0.0
Li881 Li 0.13152 0.45532 0.93843 0.0
Li882 Li 0.12662 0.46142 0.90903 0.0
Li883 Li 0.10888 0.44659 0.92944 0.0
C884 C 0.15088 0.4799 0.91637 0.0
N885 N 0.17246 0.4926 0.89327 0.0
C886 C 0.16081 0.4764 0.91634 0.0
C887 C 0.15195 0.4899 0.90468 0.0
C888 C 0.17165 0.48294 0.90456 0.0
C889 C 0.16292 0.49618 0.89308 0.0
C890 C 0.11985 0.45323 0.96986 0.0
C891 C 0.12147 0.43924 0.99276 0.0
N892 N 0.12703 0.44982 0.00429 0.0
C893 C 0.12555 0.46395 0.98195 0.0
C894 C 0.11775 0.44076 0.97532 0.0
C895 C 0.12911 0.46203 -0.0007 0.0
C896 C 0.11298 0.48363 0.95784 0.0
N897 N 0.12299 0.48542 0.94652 0.0
C898 C 0.13389 0.50902 0.9505 0.0
C899 C 0.13335 0.49777 0.94278 0.0
C900 C 0.12375 0.50753 0.96238 0.0
C901 C 0.11316 0.4946 0.96599 0.0
H902 H 0.10492 0.47365 0.96068 0.0
H903 H 0.14122 0.49889 0.93384 0.0
C904 C 0.1444 0.44093 0.9482 0.0
N905 N 0.14356 0.45203 0.95149 0.0
C906 C 0.15347 0.43869 0.95782 0.0
C907 C 0.16053 0.45933 0.97402 0.0
C908 C 0.15145 0.46123 0.96396 0.0
C909 C 0.16171 0.44799 0.97091 0.0
H910 H 0.13819 0.43393 0.93792 0.0
H911 H 0.15068 0.47006 0.96603 0.0
C912 C 0.1034 0.46843 0.91595 0.0
N913 N 0.08992 0.4824 0.91897 0.0
C914 C 0.09092 0.46258 0.92436 0.0
C915 C 0.10901 0.48137 0.90903 0.0
C916 C 0.08426 0.46981 0.92574 0.0
C917 C 0.10205 0.48828 0.91072 0.0
C918 C 0.1152 0.43094 0.91148 0.0
C919 C 0.11138 0.42863 0.89328 0.0
C920 C 0.11088 0.42014 0.92334 0.0
C921 C 0.10323 0.41555 0.88728 0.0
C922 C 0.10271 0.4072 0.91682 0.0
N923 N 0.09909 0.4052 0.89907 0.0
C924 C 0.14043 0.46072 0.87807 0.0
C925 C 0.12614 0.4696 0.87323 0.0
C926 C 0.14375 0.46209 0.85973 0.0
N927 N 0.13172 0.46441 0.88437 0.0
C928 C 0.1292 0.47118 0.85483 0.0
C929 C 0.138 0.46726 0.84783 0.0
H930 H 0.1446 0.45649 0.88726 0.0
H931 H 0.11906 0.47221 0.87857 0.0
C932 C 0.08606 0.42484 0.94556 0.0
N933 N 0.0915 0.43159 0.92994 0.0
C934 C 0.07331 0.41361 0.94546 0.0
C935 C 0.07206 0.4166 0.91324 0.0
C936 C 0.08478 0.42779 0.91399 0.0
C937 C 0.06614 0.40938 0.92914 0.0
H938 H 0.09155 0.42822 0.95809 0.0
H939 H 0.08936 0.43344 0.90182 0.0
O940 O 0.14007 0.47345 0.92757 0.0
O941 O 0.11646 0.45496 0.95273 0.0
O942 O 0.11023 0.46163 0.91483 0.0
O943 O 0.12296 0.4437 0.91771 0.0
H944 H 0.16014 0.46864 0.92518 0.0
H945 H 0.14425 0.49259 0.90429 0.0
H946 H 0.17938 0.4803 0.90436 0.0
H947 H 0.16381 0.50385 0.88387 0.0
H948 H 0.11999 0.42967 0.99711 0.0
H949 H 0.12736 0.4737 0.97795 0.0
H950 H 0.11349 0.43239 0.96609 0.0
H951 H 0.13358 0.47025 0.00876 0.0
H952 H 0.14214 0.51878 0.94709 0.0
H953 H 0.10523 0.49294 0.97525 0.0
H954 H 0.15423 0.42996 0.95471 0.0
H955 H 0.16656 0.46668 0.98411 0.0
H956 H 0.08648 0.45262 0.92993 0.0
H957 H 0.11875 0.48613 0.90273 0.0
H958 H 0.07462 0.46542 0.93228 0.0
H959 H 0.10631 0.49834 0.90556 0.0
H960 H 0.11451 0.43685 0.88393 0.0
H961 H 0.11365 0.42173 0.93749 0.0
H962 H 0.10014 0.41362 0.87325 0.0
H963 H 0.09922 0.39877 0.92588 0.0
H964 H 0.15063 0.45902 0.85488 0.0
H965 H 0.12436 0.47498 0.84606 0.0
H966 H 0.06902 0.40849 0.95808 0.0
H967 H 0.06695 0.41363 0.90035 0.0
Li968 Li 0.6791 0.13356 0.44052 0.0
Li969 Li 0.65592 0.12801 0.43657 0.0
Li970 Li 0.66244 0.11086 0.43672 0.0
Li971 Li 0.66805 0.12622 0.41127 0.0
C972 C 0.65855 0.11423 0.47067 0.0
N973 N 0.64729 0.09551 0.49798 0.0
C974 C 0.64555 0.10999 0.47649 0.0
C975 C 0.66586 0.10902 0.47883 0.0
C976 C 0.64003 0.10052 0.49031 0.0
C977 C 0.65998 0.09953 0.49257 0.0
C978 C 0.67064 0.15338 0.42612 0.0
C979 C 0.65983 0.16567 0.41711 0.0
N980 N 0.66696 0.17506 0.42985 0.0
C981 C 0.67791 0.16318 0.43906 0.0
C982 C 0.66158 0.15465 0.41498 0.0
C983 C 0.67589 0.17407 0.44075 0.0
C984 C 0.70587 0.15429 0.44236 0.0
N985 N 0.69536 0.14509 0.4522 0.0
C986 C 0.70837 0.15158 0.47923 0.0
C987 C 0.69633 0.14368 0.4703 0.0
C988 C 0.71948 0.16099 0.46938 0.0
C989 C 0.71816 0.16233 0.45071 0.0
H990 H 0.70472 0.15527 0.42801 0.0
H991 H 0.68776 0.13638 0.47779 0.0
C992 C 0.62986 0.12366 0.43717 0.0
N993 N 0.64236 0.13175 0.44362 0.0
C994 C 0.61941 0.12568 0.44224 0.0
C995 C 0.63489 0.14437 0.46054 0.0
C996 C 0.64501 0.14185 0.45532 0.0
C997 C 0.62184 0.1362 0.45402 0.0
H998 H 0.62793 0.11545 0.42833 0.0
H999 H 0.65497 0.14791 0.46065 0.0
C1000 C 0.69263 0.12445 0.42268 0.0
N1001 N 0.71971 0.13366 0.42142 0.0
C1002 C 0.70008 0.13148 0.40754 0.0
C1003 C 0.69894 0.12202 0.43712 0.0
C1004 C 0.71376 0.13606 0.40717 0.0
C1005 C 0.71264 0.1268 0.43625 0.0
C1006 C 0.64313 0.10691 0.40482 0.0
C1007 C 0.64065 0.09423 0.39982 0.0
C1008 C 0.6388 0.11375 0.39366 0.0
C1009 C 0.63398 0.08864 0.38359 0.0
C1010 C 0.63219 0.10783 0.37752 0.0
N1011 N 0.62994 0.09551 0.37285 0.0
C1012 C 0.64407 0.08483 0.44802 0.0
C1013 C 0.66581 0.08864 0.44189 0.0
C1014 C 0.63966 0.07153 0.45227 0.0
N1015 N 0.65693 0.09303 0.44296 0.0
C1016 C 0.66184 0.07541 0.44598 0.0
C1017 C 0.64858 0.06665 0.45112 0.0
H1018 H 0.6372 0.08859 0.44849 0.0
H1019 H 0.67593 0.09535 0.43762 0.0
C1020 C 0.67294 0.1394 0.37749 0.0
N1021 N 0.67008 0.1278 0.38583 0.0
C1022 C 0.67353 0.14026 0.35863 0.0
C1023 C 0.6684 0.11728 0.3574 0.0
C1024 C 0.66821 0.11697 0.37627 0.0
C1025 C 0.67097 0.129 0.34844 0.0
H1026 H 0.67457 0.14791 0.38547 0.0
H1027 H 0.66627 0.10799 0.38332 0.0
O1028 O 0.66405 0.12333 0.45695 0.0
O1029 O 0.67242 0.14262 0.42432 0.0
O1030 O 0.67925 0.12004 0.4234 0.0
O1031 O 0.64985 0.11265 0.42051 0.0
H1032 H 0.63973 0.1139 0.47033 0.0
H1033 H 0.67589 0.11208 0.47436 0.0
H1034 H 0.62996 0.0971 0.4949 0.0
H1035 H 0.66548 0.09533 0.49889 0.0
H1036 H 0.65279 0.16674 0.40866 0.0
H1037 H 0.68495 0.16235 0.44781 0.0
H1038 H 0.65588 0.14715 0.4049 0.0
H1039 H 0.6814 0.1817 0.45075 0.0
H1040 H 0.70902 0.15026 0.49364 0.0
H1041 H 0.72645 0.16965 0.44274 0.0
H1042 H 0.60948 0.11885 0.43726 0.0
H1043 H 0.63729 0.15265 0.46956 0.0
H1044 H 0.69538 0.13348 0.39626 0.0
H1045 H 0.69335 0.11672 0.44903 0.0
H1046 H 0.71966 0.14156 0.39557 0.0
H1047 H 0.71768 0.1251 0.4474 0.0
H1048 H 0.64397 0.08882 0.40827 0.0
H1049 H 0.64064 0.12357 0.39734 0.0
H1050 H 0.63206 0.07886 0.37949 0.0
H1051 H 0.62888 0.11305 0.36868 0.0
H1052 H 0.62929 0.06504 0.45585 0.0
H1053 H 0.66902 0.07205 0.445 0.0
H1054 H 0.67556 0.14946 0.35206 0.0
H1055 H 0.66653 0.10847 0.34989 0.0
Li1056 Li 0.65078 0.5221 0.93241 0.0
Li1057 Li 0.658 0.54589 0.93128 0.0
Li1058 Li 0.6645 0.53552 0.90658 0.0
Li1059 Li 0.67475 0.54006 0.93642 0.0
C1060 C 0.63544 0.52486 0.90328 0.0
N1061 N 0.61328 0.51099 0.88144 0.0
C1062 C 0.62506 0.52773 0.90384 0.0
C1063 C 0.63461 0.51506 0.89144 0.0
C1064 C 0.61392 0.52057 0.89276 0.0
C1065 C 0.62331 0.50814 0.88054 0.0
C1066 C 0.65469 0.53983 0.9662 0.0
C1067 C 0.65781 0.55697 0.98747 0.0
N1068 N 0.6454 0.54879 0.99423 0.0
C1069 C 0.64201 0.53155 0.97346 0.0
C1070 C 0.66271 0.55261 0.97336 0.0
C1071 C 0.63748 0.53628 0.9876 0.0
C1072 C 0.63992 0.49629 0.94746 0.0
N1073 N 0.6369 0.50519 0.94 0.0
C1074 C 0.61361 0.49017 0.94411 0.0
C1075 C 0.62407 0.50243 0.9384 0.0
C1076 C 0.61639 0.48073 0.95178 0.0
C1077 C 0.62974 0.48391 0.9535 0.0
H1078 H 0.65024 0.49885 0.94877 0.0
H1079 H 0.62196 0.50985 0.93304 0.0
C1080 C 0.66057 0.5714 0.93517 0.0
N1081 N 0.6522 0.55806 0.9369 0.0
C1082 C 0.65638 0.58032 0.94035 0.0
C1083 C 0.63504 0.56153 0.94885 0.0
C1084 C 0.63961 0.553 0.94341 0.0
C1085 C 0.64347 0.57539 0.94735 0.0
H1086 H 0.67049 0.57512 0.92982 0.0
H1087 H 0.63321 0.54233 0.94465 0.0
C1088 C 0.66879 0.51335 0.9145 0.0
N1089 N 0.67191 0.49341 0.89876 0.0
C1090 C 0.68141 0.51458 0.91352 0.0
C1091 C 0.65772 0.50186 0.90778 0.0
C1092 C 0.6828 0.50443 0.90542 0.0
C1093 C 0.65951 0.49192 0.89979 0.0
C1094 C 0.68835 0.56284 0.91788 0.0
C1095 C 0.69622 0.56373 0.903 0.0
C1096 C 0.69401 0.57186 0.9322 0.0
C1097 C 0.7097 0.57354 0.90282 0.0
C1098 C 0.70754 0.58151 0.93152 0.0
N1099 N 0.71503 0.58214 0.91697 0.0
C1100 C 0.66086 0.54037 0.87076 0.0
C1101 C 0.67416 0.53021 0.87376 0.0
C1102 C 0.66147 0.53994 0.85194 0.0
N1103 N 0.66694 0.53532 0.88121 0.0
C1104 C 0.67503 0.52956 0.85498 0.0
C1105 C 0.66848 0.5343 0.84381 0.0
H1106 H 0.65536 0.54458 0.87709 0.0
H1107 H 0.67918 0.52657 0.88231 0.0
C1108 C 0.69077 0.54577 0.96738 0.0
N1109 N 0.69076 0.54494 0.94903 0.0
C1110 C 0.70251 0.54985 0.97709 0.0
C1111 C 0.71398 0.55203 0.94881 0.0
C1112 C 0.702 0.54784 0.93967 0.0
C1113 C 0.71431 0.55307 0.96777 0.0
H1114 H 0.68167 0.54329 0.97448 0.0
H1115 H 0.70168 0.54698 0.92509 0.0
O1116 O 0.64642 0.53181 0.91408 0.0
O1117 O 0.65921 0.53546 0.95214 0.0
O1118 O 0.66728 0.5232 0.92247 0.0
O1119 O 0.67516 0.55323 0.91835 0.0
H1120 H 0.62559 0.53538 0.91276 0.0
H1121 H 0.64267 0.51297 0.89042 0.0
H1122 H 0.60579 0.52264 0.89313 0.0
H1123 H 0.62256 0.50054 0.87131 0.0
H1124 H 0.66387 0.56688 0.99303 0.0
H1125 H 0.6357 0.52162 0.96815 0.0
H1126 H 0.67255 0.55914 0.96792 0.0
H1127 H 0.62766 0.53 0.99327 0.0
H1128 H 0.60346 0.48822 0.94294 0.0
H1129 H 0.63228 0.47688 0.95935 0.0
H1130 H 0.66312 0.59092 0.93869 0.0
H1131 H 0.62508 0.5573 0.95438 0.0
H1132 H 0.69007 0.5233 0.91885 0.0
H1133 H 0.64782 0.5005 0.90889 0.0
H1134 H 0.69253 0.50531 0.90446 0.0
H1135 H 0.65102 0.483 0.8945 0.0
H1136 H 0.69199 0.55687 0.89177 0.0
H1137 H 0.68808 0.57132 0.94381 0.0
H1138 H 0.71592 0.57431 0.89144 0.0
H1139 H 0.71207 0.58849 0.94258 0.0
H1140 H 0.65651 0.54397 0.84386 0.0
H1141 H 0.68051 0.5251 0.84929 0.0
H1142 H 0.70238 0.55055 0.9917 0.0
H1143 H 0.72282 0.5542 0.94116 0.0
Li1144 Li 0.12083 0.66237 0.40882 0.0
Li1145 Li 0.12999 0.67418 0.43828 0.0
Li1146 Li 0.12187 0.65068 0.43536 0.0
Li1147 Li 0.10663 0.65865 0.43664 0.0
C1148 C 0.1471 0.66305 0.42477 0.0
N1149 N 0.16707 0.65713 0.43131 0.0
C1150 C 0.15384 0.66643 0.44134 0.0
C1151 C 0.15053 0.65667 0.41151 0.0
C1152 C 0.1639 0.66335 0.44439 0.0
C1153 C 0.16065 0.65376 0.41508 0.0
C1154 C 0.12163 0.68847 0.4197 0.0
C1155 C 0.12538 0.70962 0.43106 0.0
N1156 N 0.13199 0.71562 0.41555 0.0
C1157 C 0.12837 0.69484 0.4038 0.0
C1158 C 0.12003 0.6959 0.43338 0.0
C1159 C 0.13356 0.70858 0.40198 0.0
C1160 C 0.11069 0.66111 0.37394 0.0
N1161 N 0.12185 0.66394 0.38341 0.0
C1162 C 0.13477 0.66976 0.3563 0.0
C1163 C 0.13377 0.66824 0.37507 0.0
C1164 C 0.12342 0.66696 0.34606 0.0
C1165 C 0.11125 0.66258 0.35515 0.0
H1166 H 0.10139 0.65785 0.38104 0.0
H1167 H 0.14252 0.67063 0.38302 0.0
C1168 C 0.14473 0.6918 0.46644 0.0
N1169 N 0.14354 0.6904 0.44817 0.0
C1170 C 0.15476 0.70359 0.47405 0.0
C1171 C 0.16232 0.71216 0.44387 0.0
C1172 C 0.1522 0.70016 0.43685 0.0
C1173 C 0.16368 0.71395 0.4627 0.0
H1174 H 0.13804 0.68371 0.47514 0.0
H1175 H 0.15131 0.69856 0.42238 0.0
C1176 C 0.10142 0.63223 0.41598 0.0
N1177 N 0.09172 0.60539 0.40973 0.0
C1178 C 0.09545 0.623 0.43002 0.0
C1179 C 0.10236 0.6278 0.39873 0.0
C1180 C 0.09065 0.60948 0.4266 0.0
C1181 C 0.09741 0.61419 0.39585 0.0
C1182 C 0.11166 0.65847 0.47087 0.0
C1183 C 0.10512 0.64623 0.47995 0.0
C1184 C 0.11012 0.66906 0.47698 0.0
C1185 C 0.09717 0.64481 0.49497 0.0
C1186 C 0.10206 0.66723 0.49202 0.0
N1187 N 0.09581 0.65524 0.50064 0.0
C1188 C 0.12797 0.63603 0.46017 0.0
C1189 C 0.1267 0.62901 0.42976 0.0
C1190 C 0.13055 0.62612 0.4661 0.0
N1191 N 0.12571 0.63704 0.44235 0.0
C1192 C 0.12942 0.61904 0.43506 0.0
C1193 C 0.13118 0.61734 0.4535 0.0
H1194 H 0.12779 0.64296 0.4698 0.0
H1195 H 0.12545 0.63037 0.41557 0.0
C1196 C 0.08596 0.66469 0.44001 0.0
N1197 N 0.08953 0.65544 0.44406 0.0
C1198 C 0.07362 0.66282 0.44554 0.0
C1199 C 0.0689 0.64201 0.45945 0.0
C1200 C 0.0812 0.64416 0.45332 0.0
C1201 C 0.06488 0.65136 0.45547 0.0
H1202 H 0.09265 0.67346 0.43233 0.0
H1203 H 0.08414 0.63685 0.45613 0.0
O1204 O 0.13697 0.66566 0.42175 0.0
O1205 O 0.1166 0.67504 0.42181 0.0
O1206 O 0.10622 0.64551 0.41902 0.0
O1207 O 0.1194 0.66006 0.456 0.0
H1208 H 0.1512 0.6712 0.45184 0.0
H1209 H 0.14527 0.65378 0.39873 0.0
H1210 H 0.16915 0.66585 0.45718 0.0
H1211 H 0.16335 0.64876 0.40499 0.0
H1212 H 0.12428 0.71549 0.44159 0.0
H1213 H 0.1297 0.6893 0.39304 0.0
H1214 H 0.11474 0.69114 0.44569 0.0
H1215 H 0.13886 0.71365 0.3898 0.0
H1216 H 0.14433 0.673 0.3499 0.0
H1217 H 0.1023 0.66052 0.34787 0.0
H1218 H 0.1555 0.70459 0.48865 0.0
H1219 H 0.16919 0.71983 0.43469 0.0
H1220 H 0.09481 0.62627 0.44349 0.0
H1221 H 0.10694 0.6348 0.38771 0.0
H1222 H 0.08613 0.60225 0.43738 0.0
H1223 H 0.09812 0.61062 0.38259 0.0
H1224 H 0.10587 0.6378 0.47524 0.0
H1225 H 0.11502 0.67857 0.47011 0.0
H1226 H 0.092 0.63537 0.50204 0.0
H1227 H 0.10076 0.67533 0.49682 0.0
H1228 H 0.13179 0.62522 0.48047 0.0
H1229 H 0.13019 0.61279 0.42478 0.0
H1230 H 0.07087 0.67015 0.44171 0.0
H1231 H 0.06265 0.63312 0.46726 0.0
Li1232 Li 0.46863 0.12871 0.93375 0.0
Li1233 Li 0.44566 0.11273 0.92499 0.0
Li1234 Li 0.46067 0.13055 0.90463 0.0
Li1235 Li 0.45168 0.13528 0.93155 0.0
C1236 C 0.47005 0.10976 0.91571 0.0
N1237 N 0.48591 0.09848 0.92119 0.0
C1238 C 0.4645 0.09678 0.9225 0.0
C1239 C 0.48366 0.11696 0.91161 0.0
C1240 C 0.47269 0.09127 0.92518 0.0
C1241 C 0.49152 0.1111 0.91452 0.0
C1242 C 0.44887 0.12487 0.96452 0.0
C1243 C 0.43257 0.12469 0.98501 0.0
N1244 N 0.44238 0.13164 0.99731 0.0
C1245 C 0.45879 0.13193 0.97741 0.0
C1246 C 0.43564 0.12113 0.96838 0.0
C1247 C 0.45531 0.13528 0.9939 0.0
C1248 C 0.4952 0.142 0.94706 0.0
N1249 N 0.48326 0.1305 0.94738 0.0
C1250 C 0.49201 0.1201 0.96648 0.0
C1251 C 0.4814 0.11977 0.95715 0.0
C1252 C 0.50462 0.13174 0.96615 0.0
C1253 C 0.50607 0.14287 0.95647 0.0
H1254 H 0.49631 0.15045 0.93939 0.0
H1255 H 0.47171 0.11081 0.9573 0.0
C1256 C 0.42813 0.08698 0.9116 0.0
N1257 N 0.4323 0.09461 0.92678 0.0
C1258 C 0.4192 0.07333 0.91288 0.0
C1259 C 0.41917 0.07563 0.94543 0.0
C1260 C 0.42796 0.08927 0.94348 0.0
C1261 C 0.41481 0.06742 0.93 0.0
H1262 H 0.43205 0.09144 0.89854 0.0
H1263 H 0.43172 0.09552 0.95535 0.0
C1264 C 0.47705 0.1555 0.91136 0.0
N1265 N 0.48985 0.1761 0.88684 0.0
C1266 C 0.47187 0.16384 0.90745 0.0
C1267 C 0.48876 0.15767 0.9029 0.0
C1268 C 0.4785 0.17421 0.895 0.0
C1269 C 0.49507 0.16812 0.8905 0.0
C1270 C 0.42961 0.11626 0.90323 0.0
C1271 C 0.42842 0.11228 0.88514 0.0
C1272 C 0.41823 0.11112 0.91415 0.0
C1273 C 0.41585 0.10314 0.87829 0.0
C1274 C 0.40585 0.10198 0.90681 0.0
N1275 N 0.40492 0.09821 0.88918 0.0
C1276 C 0.47262 0.13035 0.87163 0.0
C1277 C 0.46041 0.14176 0.87066 0.0
C1278 C 0.47538 0.1325 0.85319 0.0
N1279 N 0.46519 0.13488 0.87991 0.0
C1280 C 0.46286 0.14408 0.85212 0.0
C1281 C 0.47027 0.13924 0.8431 0.0
H1282 H 0.47618 0.1248 0.87924 0.0
H1283 H 0.45439 0.14511 0.8776 0.0
C1284 C 0.45338 0.15469 0.95538 0.0
N1285 N 0.44577 0.14625 0.94202 0.0
C1286 C 0.44902 0.16227 0.96465 0.0
C1287 C 0.4295 0.153 0.94538 0.0
C1288 C 0.43412 0.14538 0.9367 0.0
C1289 C 0.43691 0.16138 0.95972 0.0
H1290 H 0.46274 0.15536 0.95901 0.0
H1291 H 0.4284 0.13873 0.92582 0.0
O1292 O 0.46223 0.11541 0.91322 0.0
O1293 O 0.45212 0.1217 0.94817 0.0
O1294 O 0.47053 0.14511 0.92317 0.0
O1295 O 0.44184 0.12512 0.91023 0.0
H1296 H 0.45401 0.09105 0.9258 0.0
H1297 H 0.48818 0.12708 0.90659 0.0
H1298 H 0.46853 0.08126 0.93049 0.0
H1299 H 0.50208 0.11661 0.91157 0.0
H1300 H 0.42238 0.12196 0.98811 0.0
H1301 H 0.46909 0.13493 0.97465 0.0
H1302 H 0.42784 0.11565 0.95856 0.0
H1303 H 0.46289 0.14081 0.00396 0.0
H1304 H 0.49039 0.1112 0.97347 0.0
H1305 H 0.51549 0.15214 0.95612 0.0
H1306 H 0.41599 0.06743 0.9006 0.0
H1307 H 0.4163 0.07151 0.95892 0.0
H1308 H 0.46278 0.16226 0.91382 0.0
H1309 H 0.49283 0.15123 0.90568 0.0
H1310 H 0.47459 0.18071 0.89177 0.0
H1311 H 0.50409 0.16986 0.88375 0.0
H1312 H 0.43711 0.11607 0.87651 0.0
H1313 H 0.41898 0.11406 0.92819 0.0
H1314 H 0.41479 0.09992 0.86433 0.0
H1315 H 0.39698 0.09787 0.91513 0.0
H1316 H 0.4813 0.12876 0.84685 0.0
H1317 H 0.45859 0.14918 0.84484 0.0
H1318 H 0.45509 0.16884 0.97545 0.0
H1319 H 0.42016 0.15219 0.94118 0.0
Li1320 Li 0.34093 0.46919 0.43105 0.0
Li1321 Li 0.3304 0.44496 0.4277 0.0
Li1322 Li 0.32695 0.45835 0.40426 0.0
Li1323 Li 0.31614 0.45385 0.43376 0.0
C1324 C 0.3551 0.46572 0.40152 0.0
N1325 N 0.37788 0.47926 0.38071 0.0
C1326 C 0.3645 0.46152 0.40112 0.0
C1327 C 0.35721 0.47671 0.39116 0.0
C1328 C 0.37598 0.46852 0.39058 0.0
C1329 C 0.3688 0.48344 0.38077 0.0
C1330 C 0.334 0.44906 0.4626 0.0
C1331 C 0.32817 0.4302 0.48208 0.0
N1332 N 0.34092 0.4363 0.48836 0.0
C1333 C 0.34702 0.45518 0.46933 0.0
C1334 C 0.32446 0.43652 0.46911 0.0
C1335 C 0.35033 0.44855 0.48233 0.0
C1336 C 0.35359 0.49365 0.44934 0.0
N1337 N 0.35587 0.4848 0.4402 0.0
C1338 C 0.37933 0.49826 0.44502 0.0
C1339 C 0.3684 0.4868 0.43808 0.0
C1340 C 0.3773 0.50763 0.45446 0.0
C1341 C 0.36423 0.50521 0.45664 0.0
H1342 H 0.34348 0.49171 0.45095 0.0
H1343 H 0.36992 0.47943 0.43128 0.0
C1344 C 0.32282 0.4177 0.42892 0.0
N1345 N 0.33308 0.43032 0.43152 0.0
C1346 C 0.32459 0.40682 0.4321 0.0
C1347 C 0.34751 0.42216 0.44036 0.0
C1348 C 0.34528 0.43274 0.43704 0.0
C1349 C 0.33707 0.40898 0.4379 0.0
H1350 H 0.31327 0.41608 0.42435 0.0
H1351 H 0.35326 0.4429 0.4389 0.0
C1352 C 0.32596 0.48204 0.4137 0.0
N1353 N 0.32568 0.50389 0.39905 0.0
C1354 C 0.31391 0.48196 0.41164 0.0
C1355 C 0.33789 0.49336 0.40864 0.0
C1356 C 0.31397 0.49306 0.40412 0.0
C1357 C 0.33754 0.50427 0.40117 0.0
C1358 C 0.30044 0.43263 0.41317 0.0
C1359 C 0.29366 0.43347 0.39802 0.0
C1360 C 0.29334 0.42343 0.42685 0.0
C1361 C 0.27983 0.42517 0.39692 0.0
C1362 C 0.27952 0.41533 0.42526 0.0
N1363 N 0.27311 0.41637 0.41045 0.0
C1364 C 0.32992 0.453 0.36884 0.0
C1365 C 0.31992 0.4665 0.37103 0.0
C1366 C 0.32938 0.45317 0.35002 0.0
N1367 N 0.32534 0.45969 0.37891 0.0
C1368 C 0.31915 0.46691 0.35219 0.0
C1369 C 0.32393 0.46019 0.34144 0.0
H1370 H 0.33406 0.44756 0.3755 0.0
H1371 H 0.31608 0.47149 0.37929 0.0
C1372 C 0.30032 0.44903 0.46462 0.0
N1373 N 0.30057 0.45061 0.44637 0.0
C1374 C 0.28867 0.44541 0.47433 0.0
C1375 C 0.27786 0.44541 0.4463 0.0
C1376 C 0.28975 0.44914 0.43716 0.0
C1377 C 0.27721 0.44338 0.46509 0.0
H1378 H 0.3091 0.45036 0.47161 0.0
H1379 H 0.29023 0.4505 0.42266 0.0
O1380 O 0.34382 0.45895 0.41181 0.0
O1381 O 0.33063 0.45528 0.44961 0.0
O1382 O 0.32607 0.47129 0.42123 0.0
O1383 O 0.31397 0.44073 0.41452 0.0
H1384 H 0.36297 0.45295 0.40891 0.0
H1385 H 0.3499 0.47989 0.39093 0.0
H1386 H 0.38337 0.46541 0.39022 0.0
H1387 H 0.37055 0.49196 0.37269 0.0
H1388 H 0.32093 0.42045 0.48712 0.0
H1389 H 0.35451 0.46489 0.46447 0.0
H1390 H 0.31435 0.43164 0.46402 0.0
H1391 H 0.36039 0.45313 0.48759 0.0
H1392 H 0.38924 0.49965 0.44336 0.0
H1393 H 0.36226 0.51222 0.46378 0.0
H1394 H 0.31627 0.39683 0.43013 0.0
H1395 H 0.35736 0.4243 0.44449 0.0
H1396 H 0.3046 0.47338 0.41568 0.0
H1397 H 0.34736 0.49382 0.4106 0.0
H1398 H 0.30471 0.49307 0.40232 0.0
H1399 H 0.3467 0.51307 0.39714 0.0
H1400 H 0.29898 0.44049 0.38728 0.0
H1401 H 0.29841 0.42269 0.43872 0.0
H1402 H 0.27445 0.42575 0.38531 0.0
H1403 H 0.27389 0.40826 0.43582 0.0
H1404 H 0.33335 0.44799 0.34227 0.0
H1405 H 0.31469 0.47228 0.34613 0.0
H1406 H 0.28855 0.44392 0.48882 0.0
H1407 H 0.26928 0.44414 0.43875 0.0
Li1408 Li 0.873 0.34096 0.93447 0.0
Li1409 Li 0.88636 0.33036 0.92825 0.0
Li1410 Li 0.87047 0.32976 0.90606 0.0
Li1411 Li 0.86314 0.31675 0.93393 0.0
C1412 C 0.89412 0.35898 0.91571 0.0
N1413 N 0.90905 0.38647 0.91769 0.0
C1414 C 0.90685 0.36515 0.92344 0.0
C1415 C 0.88902 0.36678 0.90888 0.0
C1416 C 0.91424 0.37906 0.92432 0.0
C1417 C 0.89671 0.38067 0.91006 0.0
C1418 C 0.87246 0.32403 0.9672 0.0
C1419 C 0.86796 0.30666 0.98881 0.0
N1420 N 0.86234 0.31175 0.0001 0.0
C1421 C 0.86672 0.32915 0.97905 0.0
C1422 C 0.87318 0.31275 0.97214 0.0
C1423 C 0.86164 0.32278 0.99562 0.0
C1424 C 0.86015 0.3546 0.94606 0.0
N1425 N 0.87215 0.35517 0.94596 0.0
C1426 C 0.88223 0.37596 0.96176 0.0
C1427 C 0.88304 0.36539 0.95398 0.0
C1428 C 0.87 0.3758 0.96176 0.0
C1429 C 0.85882 0.36479 0.95399 0.0
H1430 H 0.85157 0.34618 0.94004 0.0
H1431 H 0.89238 0.36541 0.95417 0.0
C1432 C 0.91113 0.33506 0.91588 0.0
N1433 N 0.90326 0.33179 0.93081 0.0
C1434 C 0.9236 0.33605 0.9169 0.0
C1435 C 0.91974 0.33053 0.94875 0.0
C1436 C 0.90726 0.32952 0.94707 0.0
C1437 C 0.92807 0.33384 0.93352 0.0
H1438 H 0.90771 0.33698 0.9032 0.0
H1439 H 0.90082 0.32704 0.95873 0.0
C1440 C 0.84618 0.32551 0.91157 0.0
N1441 N 0.82617 0.32094 0.88732 0.0
C1442 C 0.83554 0.31257 0.9089 0.0
C1443 C 0.84658 0.33614 0.90205 0.0
C1444 C 0.82553 0.31047 0.89655 0.0
C1445 C 0.83639 0.33362 0.8898 0.0
C1446 C 0.88045 0.30952 0.90769 0.0
C1447 C 0.88531 0.31195 0.88995 0.0
C1448 C 0.88357 0.30192 0.91928 0.0
C1449 C 0.89334 0.30682 0.88415 0.0
C1450 C 0.89165 0.297 0.91297 0.0
N1451 N 0.89633 0.29954 0.89569 0.0
C1452 C 0.87481 0.34079 0.87105 0.0
C1453 C 0.85732 0.31832 0.87326 0.0
C1454 C 0.8729 0.34074 0.85241 0.0
N1455 N 0.86706 0.32969 0.88101 0.0
C1456 C 0.85496 0.31786 0.85468 0.0
C1457 C 0.86291 0.32915 0.84402 0.0
H1458 H 0.88264 0.3496 0.87753 0.0
H1459 H 0.85153 0.30954 0.88148 0.0
C1460 C 0.84132 0.3012 0.95643 0.0
N1461 N 0.84968 0.30068 0.94397 0.0
C1462 C 0.8312 0.28948 0.96404 0.0
C1463 C 0.83812 0.27691 0.94522 0.0
C1464 C 0.84826 0.2889 0.93819 0.0
C1465 C 0.82951 0.27717 0.95836 0.0
H1466 H 0.8425 0.31073 0.96036 0.0
H1467 H 0.8549 0.28881 0.92799 0.0
O1468 O 0.88672 0.34537 0.91478 0.0
O1469 O 0.87735 0.33004 0.95083 0.0
O1470 O 0.85618 0.32776 0.92339 0.0
O1471 O 0.87278 0.31466 0.91374 0.0
H1472 H 0.91094 0.35927 0.92883 0.0
H1473 H 0.87917 0.36217 0.90291 0.0
H1474 H 0.92408 0.38397 0.93032 0.0
H1475 H 0.89285 0.38683 0.90493 0.0
H1476 H 0.86834 0.29785 0.99275 0.0
H1477 H 0.8661 0.33788 0.97546 0.0
H1478 H 0.87753 0.30863 0.96309 0.0
H1479 H 0.85711 0.32659 0.00489 0.0
H1480 H 0.89117 0.38423 0.96743 0.0
H1481 H 0.84909 0.36397 0.95412 0.0
H1482 H 0.92985 0.3389 0.90494 0.0
H1483 H 0.92286 0.32878 0.9618 0.0
H1484 H 0.83508 0.30423 0.91614 0.0
H1485 H 0.85475 0.34621 0.90398 0.0
H1486 H 0.81727 0.3005 0.89426 0.0
H1487 H 0.83662 0.34173 0.88224 0.0
H1488 H 0.88304 0.31784 0.88082 0.0
H1489 H 0.87993 0.3 0.93307 0.0
H1490 H 0.89723 0.30868 0.87049 0.0
H1491 H 0.89423 0.2912 0.92184 0.0
H1492 H 0.87921 0.34964 0.84462 0.0
H1493 H 0.8473 0.30868 0.84863 0.0
H1494 H 0.82457 0.29001 0.97394 0.0
H1495 H 0.83705 0.26756 0.94052 0.0
Li1496 Li 0.54553 0.88135 0.42721 0.0
Li1497 Li 0.52196 0.86614 0.43354 0.0
Li1498 Li 0.53793 0.85832 0.43207 0.0
Li1499 Li 0.53101 0.86501 0.40484 0.0
C1500 C 0.53937 0.86697 0.46572 0.0
N1501 N 0.54293 0.85735 0.49825 0.0
C1502 C 0.52862 0.86011 0.47755 0.0
C1503 C 0.55195 0.86903 0.4705 0.0
C1504 C 0.53063 0.85532 0.49393 0.0
C1505 C 0.55354 0.86405 0.48698 0.0
C1506 C 0.52245 0.88622 0.41579 0.0
C1507 C 0.50166 0.8859 0.41121 0.0
N1508 N 0.50686 0.89795 0.41958 0.0
C1509 C 0.5276 0.89862 0.42428 0.0
C1510 C 0.5094 0.87983 0.40911 0.0
C1511 C 0.51956 0.90438 0.42607 0.0
C1512 C 0.56301 0.90767 0.41641 0.0
N1513 N 0.5595 0.89905 0.43054 0.0
C1514 C 0.57459 0.91644 0.45018 0.0
C1515 C 0.56514 0.90309 0.44715 0.0
C1516 C 0.57813 0.92567 0.43599 0.0
C1517 C 0.5724 0.92111 0.41883 0.0
H1518 H 0.5582 0.90416 0.40341 0.0
H1519 H 0.56197 0.89606 0.45821 0.0
C1520 C 0.49469 0.85367 0.44373 0.0
N1521 N 0.50692 0.86471 0.44568 0.0
C1522 C 0.48354 0.85317 0.45181 0.0
C1523 C 0.49788 0.87531 0.46383 0.0
C1524 C 0.50876 0.87527 0.45588 0.0
C1525 C 0.4851 0.86421 0.46168 0.0
H1526 H 0.49358 0.84538 0.43569 0.0
H1527 H 0.51866 0.88378 0.45745 0.0
C1528 C 0.56168 0.87819 0.406 0.0
N1529 N 0.58682 0.89697 0.39415 0.0
C1530 C 0.56344 0.88346 0.38853 0.0
C1531 C 0.57271 0.8824 0.4174 0.0
C1532 C 0.57623 0.89296 0.3828 0.0
C1533 C 0.58533 0.89193 0.41118 0.0
C1534 C 0.51287 0.83984 0.4097 0.0
C1535 C 0.51671 0.8303 0.40682 0.0
C1536 C 0.50216 0.83908 0.39998 0.0
C1537 C 0.50983 0.82021 0.39409 0.0
C1538 C 0.49555 0.82886 0.38734 0.0
N1539 N 0.49949 0.81972 0.38468 0.0
C1540 C 0.53403 0.8372 0.45439 0.0
C1541 C 0.554 0.84662 0.43713 0.0
C1542 C 0.5375 0.82874 0.4632 0.0
N1543 N 0.54243 0.84611 0.44198 0.0
C1544 C 0.55774 0.83814 0.44536 0.0
C1545 C 0.54952 0.82925 0.45877 0.0
H1546 H 0.52478 0.83689 0.45767 0.0
H1547 H 0.56037 0.8537 0.42702 0.0
C1548 C 0.52395 0.86976 0.37049 0.0
N1549 N 0.52784 0.86211 0.37965 0.0
C1550 C 0.52258 0.86878 0.35173 0.0
C1551 C 0.52905 0.85189 0.35217 0.0
C1552 C 0.53042 0.85329 0.37096 0.0
C1553 C 0.52528 0.85985 0.34234 0.0
H1554 H 0.52226 0.8769 0.37768 0.0
H1555 H 0.53386 0.84761 0.37856 0.0
O1556 O 0.53756 0.87156 0.44951 0.0
O1557 O 0.53008 0.88029 0.4142 0.0
O1558 O 0.54921 0.86907 0.41199 0.0
O1559 O 0.51959 0.84989 0.42193 0.0
H1560 H 0.51881 0.85839 0.47407 0.0
H1561 H 0.56036 0.87422 0.46144 0.0
H1562 H 0.52239 0.84994 0.50318 0.0
H1563 H 0.56319 0.86547 0.49077 0.0
H1564 H 0.49152 0.88102 0.40625 0.0
H1565 H 0.53764 0.90368 0.42964 0.0
H1566 H 0.50523 0.87019 0.40259 0.0
H1567 H 0.52339 0.91394 0.4327 0.0
H1568 H 0.57861 0.9196 0.46367 0.0
H1569 H 0.57494 0.92791 0.40751 0.0
H1570 H 0.47378 0.84446 0.44992 0.0
H1571 H 0.4994 0.88393 0.47153 0.0
H1572 H 0.55502 0.88037 0.37955 0.0
H1573 H 0.5715 0.87849 0.43101 0.0
H1574 H 0.57774 0.89717 0.36935 0.0
H1575 H 0.59394 0.89535 0.4199 0.0
H1576 H 0.52499 0.83075 0.41421 0.0
H1577 H 0.49907 0.8464 0.40203 0.0
H1578 H 0.51273 0.8128 0.39165 0.0
H1579 H 0.4873 0.82821 0.37963 0.0
H1580 H 0.53084 0.82182 0.47329 0.0
H1581 H 0.56705 0.83872 0.4416 0.0
H1582 H 0.51961 0.87506 0.3446 0.0
H1583 H 0.53141 0.84504 0.34536 0.0
Li1584 Li 0.44065 0.32824 0.06669 0.0
Li1585 Li 0.46434 0.33643 0.06161 0.0
Li1586 Li 0.44837 0.31262 0.06418 0.0
Li1587 Li 0.45486 0.32729 0.09044 0.0
C1588 C 0.44734 0.31858 0.02976 0.0
N1589 N 0.444 0.30419 -0.00157 0.0
C1590 C 0.45822 0.32187 0.01841 0.0
C1591 C 0.43474 0.30803 0.0251 0.0
C1592 C 0.45632 0.31447 0.00264 0.0
C1593 C 0.43327 0.30085 0.00924 0.0
C1594 C 0.46324 0.35657 0.07609 0.0
C1595 C 0.48371 0.37762 0.07883 0.0
N1596 N 0.47832 0.3835 0.06858 0.0
C1597 C 0.45789 0.36282 0.06565 0.0
C1598 C 0.47623 0.36402 0.08283 0.0
C1599 C 0.46568 0.37645 0.062 0.0
C1600 C 0.42107 0.33473 0.07576 0.0
N1601 N 0.4262 0.33103 0.06185 0.0
C1602 C 0.41015 0.33083 0.04134 0.0
C1603 C 0.42108 0.32918 0.04484 0.0
C1604 C 0.40444 0.3343 0.05556 0.0
C1605 C 0.41002 0.33627 0.07295 0.0
H1606 H 0.42554 0.33641 0.08905 0.0
H1607 H 0.42551 0.32647 0.03398 0.0
C1608 C 0.49178 0.35059 0.053 0.0
N1609 N 0.47974 0.34939 0.04925 0.0
C1610 C 0.50323 0.36025 0.04423 0.0
C1611 C 0.48963 0.36711 0.02771 0.0
C1612 C 0.47844 0.35727 0.03674 0.0
C1613 C 0.50226 0.36872 0.03146 0.0
H1614 H 0.49248 0.34403 0.06278 0.0
H1615 H 0.46869 0.35596 0.03391 0.0
C1616 C 0.42416 0.309 0.08873 0.0
N1617 N 0.3985 0.30144 0.09958 0.0
C1618 C 0.42185 0.31243 0.10595 0.0
C1619 C 0.41341 0.30164 0.07707 0.0
C1620 C 0.4088 0.30852 0.11118 0.0
C1621 C 0.40052 0.29795 0.08279 0.0
C1622 C 0.47295 0.32011 0.08805 0.0
C1623 C 0.46917 0.30687 0.09196 0.0
C1624 C 0.48323 0.33044 0.09792 0.0
C1625 C 0.47571 0.30418 0.10582 0.0
C1626 C 0.4895 0.32733 0.11169 0.0
N1627 N 0.48564 0.31438 0.11533 0.0
C1628 C 0.4519 0.29402 0.04401 0.0
C1629 C 0.43246 0.2847 0.06231 0.0
C1630 C 0.44832 0.28149 0.03704 0.0
N1631 N 0.44382 0.2954 0.05608 0.0
C1632 C 0.4286 0.27194 0.05592 0.0
C1633 C 0.43649 0.27029 0.04294 0.0
H1634 H 0.46105 0.3027 0.03967 0.0
H1635 H 0.42637 0.28607 0.07219 0.0
C1636 C 0.46296 0.33983 0.12472 0.0
N1637 N 0.45765 0.32801 0.11576 0.0
C1638 C 0.46461 0.34021 0.14347 0.0
C1639 C 0.45538 0.31628 0.14331 0.0
C1640 C 0.45383 0.31636 0.1246 0.0
C1641 C 0.46075 0.32832 0.15299 0.0
H1642 H 0.46577 0.34891 0.11735 0.0
H1643 H 0.44942 0.30709 0.1171 0.0
O1644 O 0.44902 0.32561 0.04538 0.0
O1645 O 0.45586 0.34319 0.07956 0.0
O1646 O 0.43689 0.31291 0.08324 0.0
O1647 O 0.4665 0.32294 0.07477 0.0
H1648 H 0.46805 0.32997 0.02182 0.0
H1649 H 0.42623 0.3053 0.03378 0.0
H1650 H 0.46467 0.31686 0.99378 0.0
H1651 H 0.4236 0.2926 0.00554 0.0
H1652 H 0.49381 0.38348 0.08382 0.0
H1653 H 0.44787 0.3572 0.06029 0.0
H1654 H 0.48056 0.3593 0.09081 0.0
H1655 H 0.46168 0.38142 0.05387 0.0
H1656 H 0.40615 0.32932 0.02774 0.0
H1657 H 0.40605 0.33925 0.08416 0.0
H1658 H 0.51272 0.36097 0.0473 0.0
H1659 H 0.48843 0.3735 0.01812 0.0
H1660 H 0.43004 0.31818 0.11512 0.0
H1661 H 0.41503 0.29897 0.06366 0.0
H1662 H 0.40687 0.31116 0.12444 0.0
H1663 H 0.39212 0.29235 0.07386 0.0
H1664 H 0.46121 0.29876 0.0845 0.0
H1665 H 0.4862 0.34074 0.09517 0.0
H1666 H 0.47286 0.29398 0.10905 0.0
H1667 H 0.4974 0.33522 0.11954 0.0
H1668 H 0.45478 0.28053 0.02728 0.0
H1669 H 0.41943 0.2635 0.06081 0.0
H1670 H 0.46885 0.3497 0.15045 0.0
H1671 H 0.45206 0.30687 0.15017 0.0
Li1672 Li 0.13386 0.44991 0.56502 0.0
Li1673 Li 0.12714 0.45733 0.59158 0.0
Li1674 Li 0.1112 0.44425 0.56796 0.0
Li1675 Li 0.12807 0.46737 0.5628 0.0
C1676 C 0.11127 0.42685 0.58979 0.0
N1677 N 0.08978 0.4029 0.60082 0.0
C1678 C 0.10522 0.42591 0.60652 0.0
C1679 C 0.10639 0.41559 0.57867 0.0
C1680 C 0.09437 0.41371 0.61186 0.0
C1681 C 0.09551 0.40358 0.58448 0.0
C1682 C 0.15272 0.47431 0.58871 0.0
C1683 C 0.16355 0.4915 0.61131 0.0
N1684 N 0.17162 0.48651 0.61562 0.0
C1685 C 0.16114 0.46936 0.59334 0.0
C1686 C 0.15395 0.48549 0.59772 0.0
C1687 C 0.17063 0.47567 0.60698 0.0
C1688 C 0.15741 0.45411 0.54912 0.0
N1689 N 0.14587 0.44456 0.55669 0.0
C1690 C 0.15237 0.42815 0.55273 0.0
C1691 C 0.14317 0.43177 0.55862 0.0
C1692 C 0.16448 0.43788 0.54515 0.0
C1693 C 0.16695 0.45098 0.54328 0.0
H1694 H 0.15925 0.4642 0.54783 0.0
H1695 H 0.13397 0.42444 0.56487 0.0
C1696 C 0.12508 0.46634 0.62676 0.0
N1697 N 0.12999 0.45988 0.61685 0.0
C1698 C 0.12726 0.46785 0.64542 0.0
C1699 C 0.13945 0.45597 0.64323 0.0
C1700 C 0.13696 0.45463 0.62468 0.0
C1701 C 0.13451 0.4626 0.65389 0.0
H1702 H 0.11933 0.47017 0.62023 0.0
H1703 H 0.14057 0.44937 0.61645 0.0
C1704 C 0.12821 0.45041 0.53119 0.0
N1705 N 0.14078 0.44755 0.50112 0.0
C1706 C 0.13732 0.46163 0.52138 0.0
C1707 C 0.12547 0.43773 0.52567 0.0
C1708 C 0.14356 0.45997 0.50621 0.0
C1709 C 0.13194 0.4365 0.51046 0.0
C1710 C 0.10865 0.46888 0.57897 0.0
C1711 C 0.09713 0.46526 0.56883 0.0
C1712 C 0.11567 0.48164 0.58653 0.0
C1713 C 0.09287 0.47451 0.56635 0.0
C1714 C 0.11111 0.49062 0.58369 0.0
N1715 N 0.0999 0.4869 0.57375 0.0
C1716 C 0.08403 0.4298 0.57619 0.0
C1717 C 0.0896 0.42405 0.54797 0.0
C1718 C 0.07054 0.42084 0.57329 0.0
N1719 N 0.09318 0.43131 0.56351 0.0
C1720 C 0.07622 0.4148 0.54464 0.0
C1721 C 0.06653 0.41329 0.5573 0.0
H1722 H 0.08722 0.43573 0.58842 0.0
H1723 H 0.09708 0.42554 0.53809 0.0
C1724 C 0.14226 0.49505 0.55344 0.0
N1725 N 0.13118 0.48301 0.55045 0.0
C1726 C 0.14373 0.50644 0.54476 0.0
C1727 C 0.12253 0.4927 0.52992 0.0
C1728 C 0.12156 0.4816 0.53864 0.0
C1729 C 0.13365 0.50533 0.5331 0.0
H1730 H 0.14985 0.49584 0.56268 0.0
H1731 H 0.11301 0.47183 0.53628 0.0
O1732 O 0.12168 0.43879 0.58411 0.0
O1733 O 0.14317 0.46812 0.57565 0.0
O1734 O 0.12223 0.45184 0.54634 0.0
O1735 O 0.11315 0.46006 0.58123 0.0
H1736 H 0.10873 0.43453 0.61523 0.0
H1737 H 0.11076 0.41618 0.56552 0.0
H1738 H 0.08957 0.41286 0.62475 0.0
H1739 H 0.09157 0.39482 0.57595 0.0
H1740 H 0.16455 0.50011 0.61846 0.0
H1741 H 0.16024 0.46063 0.58671 0.0
H1742 H 0.14746 0.4894 0.59443 0.0
H1743 H 0.17717 0.47191 0.61076 0.0
H1744 H 0.1502 0.41797 0.55447 0.0
H1745 H 0.17614 0.4587 0.53732 0.0
H1746 H 0.12305 0.47281 0.65317 0.0
H1747 H 0.1452 0.45189 0.64913 0.0
H1748 H 0.13967 0.47153 0.52551 0.0
H1749 H 0.11866 0.42895 0.5333 0.0
H1750 H 0.15067 0.46858 0.49854 0.0
H1751 H 0.13001 0.42676 0.50614 0.0
H1752 H 0.09165 0.4555 0.56268 0.0
H1753 H 0.12466 0.48467 0.59426 0.0
H1754 H 0.08403 0.47187 0.55844 0.0
H1755 H 0.11651 0.50056 0.58934 0.0
H1756 H 0.06331 0.41984 0.58338 0.0
H1757 H 0.07343 0.4092 0.5321 0.0
H1758 H 0.15246 0.51604 0.5475 0.0
H1759 H 0.11466 0.49145 0.52079 0.0
Li1760 Li 0.67567 0.13239 0.06245 0.0
Li1761 Li 0.66392 0.12283 0.09084 0.0
Li1762 Li 0.66285 0.10873 0.06537 0.0
Li1763 Li 0.65136 0.1217 0.06422 0.0
C1764 C 0.68473 0.11411 0.08355 0.0
N1765 N 0.69625 0.0987 0.09081 0.0
C1766 C 0.68369 0.10874 0.10083 0.0
C1767 C 0.69173 0.11174 0.07001 0.0
C1768 C 0.68957 0.10096 0.10422 0.0
C1769 C 0.69744 0.10388 0.07393 0.0
C1770 C 0.66684 0.1473 0.08919 0.0
C1771 C 0.65883 0.15522 0.11365 0.0
N1772 N 0.6712 0.16613 0.11532 0.0
C1773 C 0.67944 0.15862 0.09105 0.0
C1774 C 0.65641 0.14561 0.10047 0.0
C1775 C 0.68145 0.16802 0.10437 0.0
C1776 C 0.69025 0.15549 0.04126 0.0
N1777 N 0.6912 0.14661 0.05231 0.0
C1778 C 0.71479 0.15774 0.04846 0.0
C1779 C 0.70313 0.14762 0.0562 0.0
C1780 C 0.71406 0.16678 0.03654 0.0
C1781 C 0.70163 0.16564 0.03297 0.0
H1782 H 0.68063 0.15459 0.03877 0.0
H1783 H 0.70359 0.14054 0.06527 0.0
C1784 C 0.65484 0.11482 0.12639 0.0
N1785 N 0.66479 0.12451 0.11635 0.0
C1786 C 0.65525 0.11564 0.14524 0.0
C1787 C 0.67612 0.13645 0.14302 0.0
C1788 C 0.67543 0.13507 0.12423 0.0
C1789 C 0.66595 0.12663 0.15385 0.0
H1790 H 0.64666 0.10636 0.11977 0.0
H1791 H 0.68338 0.14245 0.11591 0.0
C1792 C 0.66711 0.12498 0.02881 0.0
N1793 N 0.67779 0.13704 0.99598 0.0
C1794 C 0.66146 0.13134 0.01922 0.0
C1795 C 0.67811 0.12464 0.02163 0.0
C1796 C 0.66702 0.13739 0.00265 0.0
C1797 C 0.6834 0.13084 0.00504 0.0
C1798 C 0.6347 0.0991 0.08174 0.0
C1799 C 0.62842 0.08696 0.07244 0.0
C1800 C 0.62704 0.10325 0.09142 0.0
C1801 C 0.61451 0.07922 0.07282 0.0
C1802 C 0.61316 0.09523 0.09143 0.0
N1803 N 0.60724 0.08349 0.0822 0.0
C1804 C 0.66054 0.08366 0.0717 0.0
C1805 C 0.66113 0.08942 0.04074 0.0
C1806 C 0.65922 0.0714 0.06694 0.0
N1807 N 0.66154 0.09238 0.05863 0.0
C1808 C 0.65959 0.07718 0.03537 0.0
C1809 C 0.65858 0.06801 0.04857 0.0
H1810 H 0.66055 0.08615 0.08581 0.0
H1811 H 0.66171 0.09645 0.03066 0.0
C1812 C 0.63623 0.13399 0.05748 0.0
N1813 N 0.63637 0.1224 0.05539 0.0
C1814 C 0.62559 0.13515 0.05082 0.0
C1815 C 0.61539 0.11239 0.0401 0.0
C1816 C 0.62637 0.11176 0.04663 0.0
C1817 C 0.61498 0.12423 0.04213 0.0
H1818 H 0.64445 0.14239 0.06414 0.0
H1819 H 0.62697 0.10283 0.04462 0.0
O1820 O 0.67894 0.12165 0.07991 0.0
O1821 O 0.6647 0.13795 0.07631 0.0
O1822 O 0.66192 0.11914 0.04516 0.0
O1823 O 0.64829 0.10687 0.08145 0.0
H1824 H 0.67832 0.11048 0.11148 0.0
H1825 H 0.69261 0.11581 0.05656 0.0
H1826 H 0.6888 0.09669 0.11751 0.0
H1827 H 0.7028 0.10189 0.06355 0.0
H1828 H 0.65088 0.154 0.12256 0.0
H1829 H 0.68761 0.16009 0.0824 0.0
H1830 H 0.64659 0.13692 0.09914 0.0
H1831 H 0.69117 0.1768 0.10604 0.0
H1832 H 0.72424 0.15835 0.05149 0.0
H1833 H 0.70077 0.17257 0.02401 0.0
H1834 H 0.64736 0.10762 0.15293 0.0
H1835 H 0.6845 0.14517 0.14893 0.0
H1836 H 0.65294 0.13168 0.02456 0.0
H1837 H 0.68261 0.11978 0.02891 0.0
H1838 H 0.66279 0.14241 0.99511 0.0
H1839 H 0.69197 0.13076 -0.0006 0.0
H1840 H 0.6342 0.0836 0.06491 0.0
H1841 H 0.63176 0.1126 0.09873 0.0
H1842 H 0.6095 0.06983 0.06562 0.0
H1843 H 0.6071 0.09835 0.09876 0.0
H1844 H 0.65817 0.06444 0.07748 0.0
H1845 H 0.65904 0.07484 0.02108 0.0
H1846 H 0.62558 0.14444 0.05257 0.0
H1847 H 0.60745 0.10385 0.0332 0.0
Li1848 Li 0.53681 0.66546 0.59163 0.0
Li1849 Li 0.54304 0.67908 0.56427 0.0
Li1850 Li 0.52829 0.65497 0.56295 0.0
Li1851 Li 0.55207 0.66481 0.56928 0.0
C1852 C 0.51738 0.67077 0.58637 0.0
N1853 N 0.5025 0.67599 0.6108 0.0
C1854 C 0.51974 0.68377 0.5885 0.0
C1855 C 0.50739 0.66041 0.59656 0.0
C1856 C 0.51211 0.68621 0.60093 0.0
C1857 C 0.50001 0.66326 0.60888 0.0
C1858 C 0.56722 0.68506 0.59065 0.0
C1859 C 0.591 0.69695 0.58572 0.0
N1860 N 0.59287 0.6942 0.60302 0.0
C1861 C 0.56937 0.6824 0.6084 0.0
C1862 C 0.57811 0.69246 0.57923 0.0
C1863 C 0.58242 0.6871 0.6144 0.0
C1864 C 0.53058 0.65422 0.62661 0.0
N1865 N 0.53354 0.66527 0.61676 0.0
C1866 C 0.53322 0.67685 0.64332 0.0
C1867 C 0.53496 0.6765 0.62469 0.0
C1868 C 0.53033 0.66565 0.65398 0.0
C1869 C 0.52896 0.6542 0.64533 0.0
H1870 H 0.52982 0.64554 0.61999 0.0
H1871 H 0.53761 0.68524 0.61654 0.0
C1872 C 0.53845 0.69616 0.54205 0.0
N1873 N 0.54666 0.6957 0.55481 0.0
C1874 C 0.54127 0.70834 0.53455 0.0
C1875 C 0.56056 0.71937 0.55415 0.0
C1876 C 0.55746 0.70695 0.56108 0.0
C1877 C 0.55246 0.72011 0.54062 0.0
H1878 H 0.52975 0.68705 0.53767 0.0
H1879 H 0.56366 0.7063 0.57149 0.0
C1880 C 0.53046 0.63626 0.58025 0.0
N1881 N 0.51672 0.60894 0.57538 0.0
C1882 C 0.53641 0.63007 0.57097 0.0
C1883 C 0.51757 0.62856 0.5872 0.0
C1884 C 0.52929 0.61624 0.56864 0.0
C1885 C 0.51077 0.61476 0.58454 0.0
C1886 C 0.54511 0.67228 0.53072 0.0
C1887 C 0.53426 0.66783 0.51893 0.0
C1888 C 0.55738 0.68329 0.52595 0.0
C1889 C 0.53585 0.67454 0.50257 0.0
C1890 C 0.55856 0.68974 0.50949 0.0
N1891 N 0.54786 0.68527 0.49825 0.0
C1892 C 0.50116 0.63942 0.55342 0.0
C1893 C 0.51536 0.63257 0.53994 0.0
C1894 C 0.49005 0.62899 0.545 0.0
N1895 N 0.51346 0.64091 0.5509 0.0
C1896 C 0.5045 0.62192 0.5314 0.0
C1897 C 0.49165 0.62003 0.53394 0.0
H1898 H 0.49997 0.6463 0.56201 0.0
H1899 H 0.5253 0.63418 0.53793 0.0
C1900 C 0.57202 0.65963 0.58104 0.0
N1901 N 0.56727 0.66296 0.56631 0.0
C1902 C 0.58345 0.65857 0.57963 0.0
C1903 C 0.58462 0.66394 0.54777 0.0
C1904 C 0.57324 0.66505 0.54985 0.0
C1905 C 0.58987 0.66072 0.56282 0.0
H1906 H 0.5669 0.65782 0.59388 0.0
H1907 H 0.56914 0.66752 0.53834 0.0
O1908 O 0.52483 0.6682 0.57441 0.0
O1909 O 0.5545 0.68035 0.58442 0.0
O1910 O 0.53716 0.64981 0.58239 0.0
O1911 O 0.54371 0.66594 0.54689 0.0
H1912 H 0.52743 0.69191 0.58074 0.0
H1913 H 0.50549 0.6503 0.59514 0.0
H1914 H 0.51386 0.69623 0.60278 0.0
H1915 H 0.49231 0.65536 0.61695 0.0
H1916 H 0.59951 0.70259 0.57698 0.0
H1917 H 0.56108 0.67667 0.61742 0.0
H1918 H 0.57661 0.69454 0.56541 0.0
H1919 H 0.58424 0.68506 0.62808 0.0
H1920 H 0.53422 0.68585 0.64929 0.0
H1921 H 0.52705 0.64544 0.65297 0.0
H1922 H 0.53467 0.70859 0.52436 0.0
H1923 H 0.56925 0.72827 0.55916 0.0
H1924 H 0.54636 0.63589 0.56547 0.0
H1925 H 0.51281 0.63321 0.59437 0.0
H1926 H 0.53374 0.61132 0.5614 0.0
H1927 H 0.50075 0.60869 0.58971 0.0
H1928 H 0.52468 0.65935 0.52241 0.0
H1929 H 0.56585 0.68693 0.53497 0.0
H1930 H 0.52753 0.67123 0.49335 0.0
H1931 H 0.56796 0.69833 0.50569 0.0
H1932 H 0.48029 0.62782 0.54736 0.0
H1933 H 0.50616 0.61532 0.52277 0.0
H1934 H 0.58704 0.65579 0.59146 0.0
H1935 H 0.58929 0.66561 0.53458 0.0
Li1936 Li 0.85711 0.54139 0.06121 0.0
Li1937 Li 0.86495 0.53471 0.08746 0.0
Li1938 Li 0.88008 0.54826 0.06325 0.0
Li1939 Li 0.86394 0.52473 0.05851 0.0
C1940 C 0.8792 0.5653 0.08544 0.0
N1941 N 0.89947 0.59012 0.09611 0.0
C1942 C 0.88475 0.56708 0.10274 0.0
C1943 C 0.88392 0.57616 0.07361 0.0
C1944 C 0.89499 0.57971 0.10787 0.0
C1945 C 0.89419 0.58861 0.07924 0.0
C1946 C 0.83939 0.51651 0.08518 0.0
C1947 C 0.8298 0.49927 0.10793 0.0
N1948 N 0.82069 0.50304 0.11191 0.0
C1949 C 0.82991 0.52019 0.08946 0.0
C1950 C 0.83931 0.50593 0.09443 0.0
C1951 C 0.82054 0.51326 0.10301 0.0
C1952 C 0.83308 0.53677 0.04571 0.0
N1953 N 0.84464 0.54626 0.05334 0.0
C1954 C 0.83806 0.56267 0.05 0.0
C1955 C 0.84729 0.55901 0.0556 0.0
C1956 C 0.82597 0.55303 0.04229 0.0
C1957 C 0.82351 0.53994 0.04011 0.0
H1958 H 0.83128 0.52671 0.04414 0.0
H1959 H 0.8565 0.5663 0.06188 0.0
C1960 C 0.87181 0.52888 0.12137 0.0
N1961 N 0.86343 0.53213 0.11285 0.0
C1962 C 0.8716 0.52782 0.14019 0.0
C1963 C 0.85398 0.53327 0.14107 0.0
C1964 C 0.85469 0.53444 0.12225 0.0
C1965 C 0.86263 0.53008 0.15022 0.0
H1966 H 0.8789 0.52744 0.11361 0.0
H1967 H 0.84848 0.53748 0.11515 0.0
C1968 C 0.86247 0.54121 0.02711 0.0
N1969 N 0.84919 0.54353 0.9975 0.0
C1970 C 0.85323 0.52982 0.01772 0.0
C1971 C 0.86502 0.55378 0.0214 0.0
C1972 C 0.84662 0.5312 0.00278 0.0
C1973 C 0.85817 0.55474 0.00642 0.0
C1974 C 0.8847 0.52493 0.07415 0.0
C1975 C 0.89627 0.52929 0.06382 0.0
C1976 C 0.87867 0.51228 0.08212 0.0
C1977 C 0.90154 0.52085 0.06149 0.0
C1978 C 0.88422 0.50413 0.07942 0.0
N1979 N 0.89544 0.50855 0.06924 0.0
C1980 C 0.90689 0.56479 0.07171 0.0
C1981 C 0.90133 0.56718 0.04154 0.0
C1982 C 0.92029 0.57389 0.06852 0.0
N1983 N 0.89779 0.56158 0.05826 0.0
C1984 C 0.91466 0.57636 0.03775 0.0
C1985 C 0.92433 0.57965 0.05127 0.0
H1986 H 0.90374 0.56005 0.08481 0.0
H1987 H 0.89388 0.56426 0.03105 0.0
C1988 C 0.85111 0.49694 0.05034 0.0
N1989 N 0.8616 0.50923 0.04659 0.0
C1990 C 0.8506 0.48559 0.04296 0.0
C1991 C 0.8715 0.49986 0.0277 0.0
C1992 C 0.87146 0.51091 0.03505 0.0
C1993 C 0.86109 0.48703 0.0319 0.0
H1994 H 0.84333 0.49594 0.05941 0.0
H1995 H 0.87955 0.52084 0.03213 0.0
O1996 O 0.8693 0.55296 0.08005 0.0
O1997 O 0.84873 0.52324 0.07205 0.0
O1998 O 0.86881 0.54004 0.04203 0.0
O1999 O 0.87919 0.53291 0.07625 0.0
H2000 H 0.88127 0.55882 0.11208 0.0
H2001 H 0.8799 0.57493 0.06007 0.0
H2002 H 0.8994 0.58122 0.1212 0.0
H2003 H 0.89802 0.59707 0.07016 0.0
H2004 H 0.82968 0.49113 0.11527 0.0
H2005 H 0.82988 0.52841 0.08256 0.0
H2006 H 0.84661 0.50299 0.09136 0.0
H2007 H 0.81319 0.51604 0.10652 0.0
H2008 H 0.84022 0.57282 0.05203 0.0
H2009 H 0.81433 0.53228 0.03406 0.0
H2010 H 0.87845 0.52539 0.14685 0.0
H2011 H 0.8471 0.5353 0.14843 0.0
H2012 H 0.85108 0.52001 0.02202 0.0
H2013 H 0.87203 0.56269 0.02865 0.0
H2014 H 0.83939 0.52247 0.99543 0.0
H2015 H 0.85996 0.56439 0.00194 0.0
H2016 H 0.90102 0.539 0.05743 0.0
H2017 H 0.86971 0.50874 0.09013 0.0
H2018 H 0.91043 0.52406 0.05343 0.0
H2019 H 0.87959 0.49428 0.08538 0.0
H2020 H 0.92744 0.57627 0.07936 0.0
H2021 H 0.91741 0.58047 0.02423 0.0
H2022 H 0.84241 0.4758 0.04641 0.0
H2023 H 0.87967 0.50129 0.01904 0.0
Li2024 Li 0.32777 0.87587 0.58751 0.0
Li2025 Li 0.31491 0.86593 0.56021 0.0
Li2026 Li 0.33903 0.8755 0.56039 0.0
Li2027 Li 0.32875 0.88953 0.56173 0.0
C2028 C 0.32345 0.85145 0.58785 0.0
N2029 N 0.3188 0.83476 0.61706 0.0
C2030 C 0.3104 0.84195 0.59261 0.0
C2031 C 0.33414 0.85241 0.59787 0.0
C2032 C 0.30826 0.8336 0.60743 0.0
C2033 C 0.33158 0.84391 0.61262 0.0
C2034 C 0.30777 0.88583 0.58084 0.0
C2035 C 0.29629 0.89728 0.57096 0.0
N2036 N 0.29773 0.90259 0.58781 0.0
C2037 C 0.30912 0.89138 0.59806 0.0
C2038 C 0.30127 0.88876 0.56719 0.0
C2039 C 0.30397 0.89983 0.60131 0.0
C2040 C 0.3394 0.88097 0.62227 0.0
N2041 N 0.32769 0.87452 0.61309 0.0
C2042 C 0.31571 0.86492 0.64045 0.0
C2043 C 0.31594 0.86672 0.62174 0.0
C2044 C 0.3277 0.87126 0.65029 0.0
C2045 C 0.33965 0.87944 0.64096 0.0
H2046 H 0.34858 0.88717 0.61506 0.0
H2047 H 0.30676 0.86179 0.61405 0.0
C2048 C 0.29933 0.84066 0.54523 0.0
N2049 N 0.29898 0.85161 0.55101 0.0
C2050 C 0.28791 0.8298 0.53815 0.0
C2051 C 0.276 0.84174 0.54305 0.0
C2052 C 0.28764 0.85234 0.55017 0.0
C2053 C 0.27607 0.83029 0.53699 0.0
H2054 H 0.30853 0.84041 0.54611 0.0
H2055 H 0.28763 0.86112 0.55504 0.0
C2056 C 0.3572 0.89829 0.57556 0.0
N2057 N 0.38466 0.91276 0.57245 0.0
C2058 C 0.36334 0.9104 0.56618 0.0
C2059 C 0.36504 0.89358 0.58344 0.0
C2060 C 0.37723 0.91757 0.56475 0.0
C2061 C 0.3789 0.90102 0.58168 0.0
C2062 C 0.3219 0.87131 0.52647 0.0
C2063 C 0.32543 0.86256 0.51851 0.0
C2064 C 0.31163 0.87278 0.51894 0.0
C2065 C 0.31853 0.85532 0.50319 0.0
C2066 C 0.30495 0.86534 0.50363 0.0
N2067 N 0.30851 0.85683 0.49614 0.0
C2068 C 0.35353 0.8624 0.55334 0.0
C2069 C 0.36259 0.88389 0.54024 0.0
C2070 C 0.3638 0.86088 0.54604 0.0
N2071 N 0.35321 0.87382 0.55048 0.0
C2072 C 0.3732 0.88292 0.53301 0.0
C2073 C 0.37392 0.87128 0.53583 0.0
H2074 H 0.34571 0.85439 0.56111 0.0
H2075 H 0.36189 0.89272 0.53782 0.0
C2076 C 0.33251 0.91516 0.56755 0.0
N2077 N 0.33089 0.90617 0.55455 0.0
C2078 C 0.33448 0.92765 0.56272 0.0
C2079 C 0.33361 0.9216 0.53118 0.0
C2080 C 0.33138 0.9091 0.53664 0.0
C2081 C 0.33518 0.93101 0.54434 0.0
H2082 H 0.33248 0.91269 0.58167 0.0
H2083 H 0.33034 0.90184 0.52661 0.0
O2084 O 0.32574 0.85994 0.57369 0.0
O2085 O 0.31281 0.87759 0.57738 0.0
O2086 O 0.3436 0.89109 0.57703 0.0
O2087 O 0.32828 0.8782 0.54178 0.0
H2088 H 0.302 0.84114 0.58511 0.0
H2089 H 0.34429 0.85977 0.59444 0.0
H2090 H 0.29821 0.82625 0.61133 0.0
H2091 H 0.33975 0.84461 0.62058 0.0
H2092 H 0.29133 0.89972 0.56048 0.0
H2093 H 0.31418 0.8893 0.60877 0.0
H2094 H 0.30031 0.88473 0.55371 0.0
H2095 H 0.30498 0.90423 0.61455 0.0
H2096 H 0.30625 0.85869 0.64712 0.0
H2097 H 0.34914 0.8844 0.64796 0.0
H2098 H 0.28837 0.82117 0.53345 0.0
H2099 H 0.267 0.84241 0.54256 0.0
H2100 H 0.35745 0.91421 0.55998 0.0
H2101 H 0.36047 0.88415 0.59058 0.0
H2102 H 0.38211 0.92694 0.55749 0.0
H2103 H 0.38508 0.89744 0.58758 0.0
H2104 H 0.33331 0.86126 0.52421 0.0
H2105 H 0.30872 0.87945 0.52502 0.0
H2106 H 0.3211 0.84846 0.49694 0.0
H2107 H 0.29691 0.86629 0.49775 0.0
H2108 H 0.36369 0.85157 0.54821 0.0
H2109 H 0.3808 0.8913 0.52546 0.0
H2110 H 0.33597 0.9348 0.57323 0.0
H2111 H 0.33424 0.92394 0.51689 0.0
C2112 C 0.32628 0.45071 0.1771 0.0
C2113 C 0.32911 0.46209 0.16695 0.0
C2114 C 0.32533 0.4508 0.19591 0.0
C2115 C 0.32034 0.46852 0.23403 0.0
H2116 H 0.33575 0.45116 0.26189 0.0
C2117 C 0.32648 0.47234 0.31221 0.0
C2118 C 0.32335 0.46049 0.32139 0.0
C2119 C 0.3267 0.47275 0.29328 0.0
C2120 C 0.33129 0.45593 0.25429 0.0
H2121 H 0.3331 0.48246 0.16847 0.0
H2122 H 0.33161 0.48269 0.20148 0.0
H2123 H 0.33733 0.45167 0.22902 0.0
H2124 H 0.31735 0.43961 0.31792 0.0
H2125 H 0.31786 0.44038 0.28496 0.0
H2126 H 0.31444 0.47287 0.25947 0.0
C2127 C 0.32993 0.47364 0.19485 0.0
C2128 C 0.33218 0.45622 0.23545 0.0
C2129 C 0.33082 0.47352 0.17597 0.0
C2130 C 0.32009 0.44898 0.31126 0.0
C2131 C 0.32036 0.4494 0.29239 0.0
C2132 C 0.31951 0.46828 0.25293 0.0
C2133 C 0.32726 0.46229 0.20502 0.0
C2134 C 0.32661 0.4624 0.22509 0.0
C2135 C 0.32384 0.46133 0.28321 0.0
C2136 C 0.32488 0.46188 0.26322 0.0
H2137 H 0.32464 0.44166 0.17048 0.0
H2138 H 0.32296 0.4418 0.2033 0.0
H2139 H 0.31583 0.47324 0.22642 0.0
H2140 H 0.32916 0.48141 0.31963 0.0
H2141 H 0.3295 0.48211 0.28655 0.0
C2142 C 0.85747 0.33819 0.68032 0.0
C2143 C 0.85605 0.32729 0.67019 0.0
C2144 C 0.85657 0.33747 0.69919 0.0
C2145 C 0.86231 0.32093 0.7371 0.0
H2146 H 0.84336 0.33448 0.76528 0.0
C2147 C 0.87237 0.33342 0.81276 0.0
C2148 C 0.86119 0.32864 0.82414 0.0
C2149 C 0.87082 0.33263 0.79399 0.0
C2150 C 0.84861 0.33059 0.75756 0.0
H2151 H 0.85239 0.30702 0.67178 0.0
H2152 H 0.85086 0.30578 0.70478 0.0
H2153 H 0.84174 0.33389 0.73218 0.0
H2154 H 0.83966 0.3195 0.82492 0.0
H2155 H 0.83695 0.31821 0.79194 0.0
H2156 H 0.86935 0.3178 0.7624 0.0
C2157 C 0.85266 0.31487 0.69811 0.0
C2158 C 0.84776 0.33033 0.73867 0.0
C2159 C 0.85342 0.31554 0.67924 0.0
C2160 C 0.84843 0.32318 0.81641 0.0
C2161 C 0.84689 0.32253 0.7976 0.0
C2162 C 0.86328 0.32132 0.75594 0.0
C2163 C 0.85438 0.32588 0.70826 0.0
C2164 C 0.85466 0.32556 0.72828 0.0
C2165 C 0.85807 0.32716 0.78624 0.0
C2166 C 0.85652 0.32624 0.76633 0.0
H2167 H 0.85939 0.34732 0.67366 0.0
H2168 H 0.85803 0.34614 0.7067 0.0
H2169 H 0.86784 0.31732 0.72941 0.0
H2170 H 0.88231 0.33757 0.81837 0.0
H2171 H 0.87961 0.33638 0.78552 0.0
C2172 C 0.51864 0.84726 0.31297 0.0
C2173 C 0.5249 0.85946 0.32232 0.0
C2174 C 0.51836 0.84705 0.29404 0.0
C2175 C 0.52294 0.86874 0.25446 0.0
H2176 H 0.52836 0.84288 0.22805 0.0
C2177 C 0.53761 0.87515 0.17947 0.0
C2178 C 0.53023 0.86413 0.16806 0.0
C2179 C 0.53617 0.87379 0.19822 0.0
C2180 C 0.5267 0.85006 0.23528 0.0
H2181 H 0.53614 0.88096 0.31932 0.0
H2182 H 0.53592 0.88063 0.28641 0.0
H2183 H 0.52726 0.84197 0.26112 0.0
H2184 H 0.51566 0.84296 0.16752 0.0
H2185 H 0.51344 0.84056 0.20042 0.0
H2186 H 0.52281 0.87707 0.22865 0.0
C2187 C 0.53084 0.87121 0.29358 0.0
C2188 C 0.52603 0.84953 0.25419 0.0
C2189 C 0.53101 0.87142 0.31244 0.0
C2190 C 0.52161 0.85163 0.1759 0.0
C2191 C 0.52029 0.85024 0.19471 0.0
C2192 C 0.52376 0.86935 0.23563 0.0
C2193 C 0.52444 0.85904 0.28412 0.0
C2194 C 0.52431 0.85898 0.26401 0.0
C2195 C 0.52744 0.86135 0.206 0.0
C2196 C 0.52581 0.86012 0.22588 0.0
H2197 H 0.51379 0.8379 0.32031 0.0
H2198 H 0.51323 0.83751 0.28718 0.0
H2199 H 0.52128 0.87597 0.26155 0.0
H2200 H 0.54459 0.88485 0.17396 0.0
H2201 H 0.54197 0.88246 0.20666 0.0
C2202 C 0.65712 0.52947 0.81363 0.0
C2203 C 0.6687 0.53313 0.82382 0.0
C2204 C 0.65724 0.52833 0.79484 0.0
C2205 C 0.67992 0.53928 0.75562 0.0
H2206 H 0.64903 0.51114 0.73101 0.0
C2207 C 0.67815 0.53201 0.67803 0.0
C2208 C 0.66658 0.53045 0.66957 0.0
C2209 C 0.67873 0.53131 0.69688 0.0
C2210 C 0.65771 0.51908 0.73771 0.0
H2211 H 0.6895 0.5385 0.82225 0.0
H2212 H 0.68963 0.53621 0.78941 0.0
H2213 H 0.64956 0.51189 0.76402 0.0
H2214 H 0.64641 0.52646 0.67408 0.0
H2215 H 0.64744 0.52529 0.70696 0.0
H2216 H 0.68801 0.5465 0.72925 0.0
C2217 C 0.6805 0.53438 0.79597 0.0
C2218 C 0.658 0.51953 0.75659 0.0
C2219 C 0.68039 0.53555 0.8148 0.0
C2220 C 0.6555 0.52784 0.68026 0.0
C2221 C 0.65605 0.52703 0.69906 0.0
C2222 C 0.67965 0.53878 0.73672 0.0
C2223 C 0.66892 0.53076 0.78579 0.0
C2224 C 0.66902 0.52976 0.76576 0.0
C2225 C 0.66771 0.5289 0.70757 0.0
C2226 C 0.66845 0.52879 0.72758 0.0
H2227 H 0.6479 0.52737 0.82019 0.0
H2228 H 0.6482 0.5257 0.78739 0.0
H2229 H 0.68849 0.54738 0.76226 0.0
H2230 H 0.68687 0.53411 0.67012 0.0
H2231 H 0.68781 0.53269 0.70309 0.0
C2232 C 0.13565 0.67934 0.31803 0.0
C2233 C 0.12431 0.66867 0.32607 0.0
C2234 C 0.13655 0.68088 0.29923 0.0
C2235 C 0.11626 0.67232 0.25807 0.0
H2236 H 0.14866 0.67898 0.23354 0.0
C2237 C 0.12518 0.68488 0.18192 0.0
C2238 C 0.12966 0.67753 0.17191 0.0
C2239 C 0.12501 0.68447 0.20082 0.0
C2240 C 0.13956 0.67711 0.24022 0.0
H2241 H 0.10507 0.6512 0.32055 0.0
H2242 H 0.10656 0.65407 0.28776 0.0
H2243 H 0.1472 0.67676 0.26651 0.0
H2244 H 0.13753 0.66405 0.17404 0.0
H2245 H 0.13748 0.6636 0.20703 0.0
H2246 H 0.10858 0.67256 0.23178 0.0
C2247 C 0.11471 0.66126 0.29607 0.0
C2248 C 0.13876 0.67594 0.25907 0.0
C2249 C 0.11385 0.65965 0.31486 0.0
C2250 C 0.13424 0.67002 0.18129 0.0
C2251 C 0.13417 0.66971 0.20019 0.0
C2252 C 0.11712 0.67362 0.23925 0.0
C2253 C 0.12609 0.67186 0.28808 0.0
C2254 C 0.12707 0.67344 0.26815 0.0
C2255 C 0.12942 0.67682 0.21013 0.0
C2256 C 0.12874 0.67594 0.23014 0.0
H2257 H 0.14379 0.68663 0.32625 0.0
H2258 H 0.14537 0.68924 0.29343 0.0
H2259 H 0.10717 0.67049 0.26475 0.0
H2260 H 0.12181 0.69096 0.17515 0.0
H2261 H 0.12146 0.69019 0.20818 0.0
C2262 C 0.47104 0.12979 0.81293 0.0
C2263 C 0.47206 0.1405 0.82315 0.0
C2264 C 0.47234 0.1307 0.79414 0.0
C2265 C 0.46852 0.14792 0.7551 0.0
H2266 H 0.48782 0.13333 0.73004 0.0
C2267 C 0.47274 0.14874 0.67714 0.0
C2268 C 0.47064 0.13685 0.66906 0.0
C2269 C 0.47438 0.15049 0.69587 0.0
C2270 C 0.48232 0.13737 0.73684 0.0
H2271 H 0.47542 0.16067 0.82163 0.0
H2272 H 0.47756 0.16221 0.78864 0.0
H2273 H 0.4881 0.13416 0.76304 0.0
H2274 H 0.46862 0.11749 0.67425 0.0
H2275 H 0.47143 0.12051 0.7069 0.0
H2276 H 0.46248 0.15084 0.72893 0.0
C2277 C 0.47569 0.15308 0.79526 0.0
C2278 C 0.4825 0.13787 0.75572 0.0
C2279 C 0.47444 0.15219 0.81412 0.0
C2280 C 0.47042 0.12684 0.68005 0.0
C2281 C 0.47204 0.12858 0.69876 0.0
C2282 C 0.46831 0.1474 0.7362 0.0
C2283 C 0.47463 0.14233 0.78509 0.0
C2284 C 0.47542 0.14294 0.76506 0.0
C2285 C 0.47395 0.14039 0.7069 0.0
C2286 C 0.47504 0.14192 0.72687 0.0
H2287 H 0.46891 0.12053 0.81939 0.0
H2288 H 0.47121 0.12215 0.78665 0.0
H2289 H 0.46285 0.15175 0.76193 0.0
H2290 H 0.47316 0.15671 0.66898 0.0
H2291 H 0.47602 0.15978 0.70171 0.0
C2292 C 0.53766 0.6779 0.68362 0.0
C2293 C 0.52932 0.66609 0.67402 0.0
C2294 C 0.53717 0.67818 0.70249 0.0
C2295 C 0.53002 0.65698 0.74174 0.0
H2296 H 0.52863 0.68532 0.76792 0.0
C2297 C 0.54459 0.66886 0.81686 0.0
C2298 C 0.53545 0.6701 0.82809 0.0
C2299 C 0.54295 0.66801 0.7981 0.0
C2300 C 0.52895 0.67732 0.76075 0.0
H2301 H 0.51363 0.64543 0.67689 0.0
H2302 H 0.51317 0.64586 0.70992 0.0
H2303 H 0.52703 0.6845 0.73479 0.0
H2304 H 0.51736 0.6714 0.8282 0.0
H2305 H 0.51483 0.67041 0.79533 0.0
H2306 H 0.53229 0.65 0.76763 0.0
C2307 C 0.52004 0.65487 0.70271 0.0
C2308 C 0.5281 0.67689 0.74187 0.0
C2309 C 0.52038 0.65462 0.68381 0.0
C2310 C 0.52473 0.67068 0.82001 0.0
C2311 C 0.52322 0.67003 0.8012 0.0
C2312 C 0.53109 0.65754 0.76058 0.0
C2313 C 0.52848 0.66663 0.7122 0.0
C2314 C 0.52869 0.66674 0.73221 0.0
C2315 C 0.53226 0.6686 0.79012 0.0
C2316 C 0.53062 0.66775 0.77023 0.0
H2317 H 0.54486 0.68685 0.67664 0.0
H2318 H 0.5439 0.68733 0.70954 0.0
H2319 H 0.5306 0.64912 0.73457 0.0
H2320 H 0.55313 0.66869 0.82252 0.0
H2321 H 0.55016 0.6671 0.78979 0.0
C2322 C 0.87922 0.54735 0.31242 0.0
C2323 C 0.86941 0.53805 0.32419 0.0
C2324 C 0.87785 0.54553 0.29371 0.0
C2325 C 0.85406 0.53124 0.25741 0.0
H2326 H 0.88282 0.53108 0.23069 0.0
C2327 C 0.85099 0.52249 0.18007 0.0
C2328 C 0.86283 0.52984 0.17019 0.0
C2329 C 0.85128 0.52249 0.199 0.0
C2330 C 0.87477 0.53129 0.23787 0.0
H2331 H 0.85037 0.51958 0.32531 0.0
H2332 H 0.84777 0.51678 0.29251 0.0
H2333 H 0.88426 0.53339 0.26353 0.0
H2334 H 0.88416 0.54318 0.17212 0.0
H2335 H 0.88465 0.54363 0.20504 0.0
H2336 H 0.8448 0.52975 0.23182 0.0
C2337 C 0.85655 0.52539 0.29795 0.0
C2338 C 0.87559 0.53252 0.25668 0.0
C2339 C 0.85803 0.52706 0.31671 0.0
C2340 C 0.87493 0.53726 0.17948 0.0
C2341 C 0.87519 0.53745 0.19835 0.0
C2342 C 0.85334 0.53025 0.23854 0.0
C2343 C 0.86653 0.53453 0.28635 0.0
C2344 C 0.86529 0.5326 0.26656 0.0
C2345 C 0.86338 0.53002 0.20838 0.0
C2346 C 0.86376 0.53038 0.22851 0.0
H2347 H 0.88795 0.55612 0.31759 0.0
H2348 H 0.88558 0.55281 0.28496 0.0
H2349 H 0.84605 0.53136 0.26482 0.0
H2350 H 0.84156 0.51663 0.17315 0.0
H2351 H 0.84202 0.5165 0.20624 0.0
C2352 C 0.33618 0.88004 0.68143 0.0
C2353 C 0.3278 0.86931 0.67013 0.0
C2354 C 0.33648 0.87817 0.70006 0.0
C2355 C 0.31676 0.85631 0.73737 0.0
H2356 H 0.35075 0.87266 0.76244 0.0
C2357 C 0.3205 0.84839 0.81381 0.0
C2358 C 0.32919 0.85981 0.82379 0.0
C2359 C 0.32067 0.84869 0.79489 0.0
C2360 C 0.34118 0.86812 0.75566 0.0
H2361 H 0.31325 0.84815 0.66953 0.0
H2362 H 0.31366 0.84495 0.70214 0.0
H2363 H 0.35024 0.87494 0.72967 0.0
H2364 H 0.34487 0.8805 0.82181 0.0
H2365 H 0.34513 0.88106 0.78888 0.0
H2366 H 0.30767 0.84972 0.76337 0.0
C2367 C 0.31992 0.85482 0.69655 0.0
C2368 C 0.34089 0.86942 0.7369 0.0
C2369 C 0.31966 0.85667 0.6779 0.0
C2370 C 0.33821 0.87147 0.81449 0.0
C2371 C 0.33835 0.87179 0.79561 0.0
C2372 C 0.31705 0.85506 0.75615 0.0
C2373 C 0.32837 0.86554 0.7078 0.0
C2374 C 0.32868 0.86364 0.72759 0.0
C2375 C 0.32952 0.86044 0.78559 0.0
C2376 C 0.32925 0.86106 0.76553 0.0
H2377 H 0.3424 0.88995 0.67593 0.0
H2378 H 0.34292 0.88667 0.70844 0.0
H2379 H 0.3072 0.85187 0.73057 0.0
H2380 H 0.31355 0.83921 0.82063 0.0
H2381 H 0.31388 0.83972 0.78756 0.0
C2382 C 0.44633 0.31138 0.31628 0.0
C2383 C 0.45705 0.32033 0.32718 0.0
C2384 C 0.44739 0.31211 0.29744 0.0
C2385 C 0.4714 0.32492 0.25974 0.0
H2386 H 0.44176 0.32348 0.23328 0.0
C2387 C 0.46631 0.32053 0.18166 0.0
C2388 C 0.46177 0.32833 0.17299 0.0
C2389 C 0.46651 0.31994 0.20055 0.0
C2390 C 0.45015 0.32399 0.24049 0.0
H2391 H 0.47739 0.33693 0.32682 0.0
H2392 H 0.47927 0.33809 0.29388 0.0
H2393 H 0.44059 0.32134 0.26615 0.0
H2394 H 0.45406 0.34175 0.17726 0.0
H2395 H 0.45451 0.34081 0.21024 0.0
H2396 H 0.48099 0.32769 0.234 0.0
C2397 C 0.47008 0.33046 0.29996 0.0
C2398 C 0.44941 0.32261 0.25928 0.0
C2399 C 0.469 0.32977 0.31882 0.0
C2400 C 0.4577 0.33574 0.18357 0.0
C2401 C 0.45783 0.33509 0.20243 0.0
C2402 C 0.4721 0.32622 0.24089 0.0
C2403 C 0.45922 0.32177 0.28909 0.0
C2404 C 0.46002 0.32306 0.26911 0.0
C2405 C 0.4621 0.32708 0.21111 0.0
C2406 C 0.46149 0.32581 0.2311 0.0
H2407 H 0.43707 0.30384 0.32231 0.0
H2408 H 0.43893 0.30513 0.2894 0.0
H2409 H 0.47969 0.32524 0.26697 0.0
H2410 H 0.46962 0.31481 0.17384 0.0
H2411 H 0.46978 0.31362 0.20687 0.0
C2412 C 0.13566 0.45285 0.68369 0.0
C2413 C 0.13659 0.46365 0.67379 0.0
C2414 C 0.1373 0.45367 0.70245 0.0
C2415 C 0.15036 0.47755 0.74067 0.0
H2416 H 0.12587 0.44659 0.76883 0.0
C2417 C 0.14225 0.4788 0.81779 0.0
C2418 C 0.14045 0.46781 0.82808 0.0
C2419 C 0.1433 0.47873 0.79895 0.0
C2420 C 0.13291 0.45525 0.76116 0.0
H2421 H 0.14025 0.48391 0.67583 0.0
H2422 H 0.14271 0.48519 0.70869 0.0
H2423 H 0.12461 0.44562 0.73595 0.0
H2424 H 0.13871 0.44828 0.82674 0.0
H2425 H 0.14071 0.44823 0.79388 0.0
H2426 H 0.15844 0.48724 0.76604 0.0
C2427 C 0.14091 0.47615 0.70188 0.0
C2428 C 0.13219 0.4547 0.7423 0.0
C2429 C 0.13932 0.47535 0.68309 0.0
C2430 C 0.14019 0.45694 0.8192 0.0
C2431 C 0.14119 0.45685 0.80038 0.0
C2432 C 0.15103 0.47812 0.75958 0.0
C2433 C 0.13982 0.46528 0.71179 0.0
C2434 C 0.14088 0.46585 0.73183 0.0
C2435 C 0.14252 0.46764 0.79004 0.0
C2436 C 0.14228 0.46698 0.77 0.0
H2437 H 0.13342 0.44363 0.677 0.0
H2438 H 0.13656 0.44517 0.70964 0.0
H2439 H 0.15731 0.48625 0.73299 0.0
H2440 H 0.14262 0.48737 0.82429 0.0
H2441 H 0.14424 0.48716 0.79133 0.0
C2442 C 0.68162 0.13871 0.31866 0.0
C2443 C 0.67054 0.1293 0.32853 0.0
C2444 C 0.68122 0.13875 0.29975 0.0
C2445 C 0.66181 0.1174 0.26069 0.0
H2446 H 0.68107 0.1506 0.23405 0.0
C2447 C 0.65481 0.1228 0.18427 0.0
C2448 C 0.66657 0.1277 0.17396 0.0
C2449 C 0.65535 0.12332 0.20315 0.0
C2450 C 0.67569 0.14128 0.24139 0.0
H2451 H 0.65027 0.11287 0.32674 0.0
H2452 H 0.64925 0.11329 0.29381 0.0
H2453 H 0.68164 0.15095 0.2671 0.0
H2454 H 0.68817 0.13709 0.17569 0.0
H2455 H 0.68904 0.13854 0.20865 0.0
H2456 H 0.65548 0.10787 0.23483 0.0
C2457 C 0.65846 0.12032 0.30045 0.0
C2458 C 0.67607 0.14143 0.2603 0.0
C2459 C 0.65898 0.12011 0.31931 0.0
C2460 C 0.67891 0.13344 0.18307 0.0
C2461 C 0.67944 0.13421 0.20195 0.0
C2462 C 0.66121 0.1173 0.24182 0.0
C2463 C 0.66962 0.12955 0.29038 0.0
C2464 C 0.66917 0.12947 0.27022 0.0
C2465 C 0.66766 0.12902 0.2121 0.0
C2466 C 0.66818 0.12923 0.23205 0.0
H2467 H 0.69066 0.14585 0.32558 0.0
H2468 H 0.69009 0.14586 0.29252 0.0
H2469 H 0.65662 0.10795 0.26776 0.0
H2470 H 0.64515 0.11859 0.1778 0.0
H2471 H 0.64615 0.11937 0.21078 0.0
C2472 C 0.16917 0.43343 0.98626 0.0
C2473 C 0.17186 0.44618 0.98074 0.0
C2474 C 0.17899 0.43179 0.99492 0.0
C2475 C 0.2104 0.4501 0.02026 0.0
H2476 H 0.21887 0.42422 0.00032 0.0
C2477 C 0.26162 0.45505 0.02936 0.0
C2478 C 0.2625 0.44352 0.03223 0.0
C2479 C 0.24941 0.45405 0.02528 0.0
C2480 C 0.21647 0.43131 0.00628 0.0
H2481 H 0.18704 0.46715 0.97986 0.0
H2482 H 0.20398 0.46428 0.99522 0.0
H2483 H 0.19919 0.42474 0.98955 0.0
H2484 H 0.25129 0.4219 0.03309 0.0
H2485 H 0.22982 0.42016 0.02612 0.0
H2486 H 0.22778 0.45687 0.03673 0.0
C2487 C 0.19424 0.4556 0.99305 0.0
C2488 C 0.20522 0.43161 0.00011 0.0
C2489 C 0.18451 0.45723 0.98428 0.0
C2490 C 0.25088 0.43096 0.03103 0.0
C2491 C 0.23863 0.42995 0.02692 0.0
C2492 C 0.22159 0.44976 0.02648 0.0
C2493 C 0.19161 0.44287 -0.00164 0.0
C2494 C 0.20232 0.44126 0.00669 0.0
C2495 C 0.23778 0.44151 0.02404 0.0
C2496 C 0.22496 0.44063 0.01918 0.0
H2497 H 0.15947 0.42473 0.98395 0.0
H2498 H 0.17671 0.42187 -0.00103 0.0
H2499 H 0.20823 0.45748 0.02576 0.0
H2500 H 0.27035 0.46488 0.03046 0.0
H2501 H 0.24913 0.46313 0.02284 0.0
C2502 C 0.74439 0.17211 0.47114 0.0
C2503 C 0.73224 0.16972 0.47867 0.0
C2504 C 0.75645 0.18089 0.47958 0.0
C2505 C 0.77067 0.19966 0.52253 0.0
H2506 H 0.79815 0.22558 0.49088 0.0
C2507 C 0.80678 0.25369 0.54229 0.0
C2508 C 0.82031 0.25946 0.5375 0.0
C2509 C 0.79757 0.24081 0.53674 0.0
C2510 C 0.79069 0.21826 0.49988 0.0
H2511 H 0.72313 0.17446 0.50092 0.0
H2512 H 0.74409 0.18996 0.51541 0.0
H2513 H 0.7789 0.20618 0.47783 0.0
H2514 H 0.83479 0.25591 0.5236 0.0
H2515 H 0.81846 0.23352 0.5132 0.0
H2516 H 0.78212 0.21232 0.54448 0.0
C2517 C 0.74438 0.18483 0.5033 0.0
C2518 C 0.77967 0.20712 0.49243 0.0
C2519 C 0.73235 0.17601 0.49495 0.0
C2520 C 0.82442 0.2519 0.52724 0.0
C2521 C 0.81513 0.23905 0.52142 0.0
C2522 C 0.78161 0.21088 0.52994 0.0
C2523 C 0.75658 0.1875 0.49563 0.0
C2524 C 0.76931 0.19794 0.50365 0.0
C2525 C 0.80163 0.23346 0.52605 0.0
C2526 C 0.79148 0.22047 0.51863 0.0
H2527 H 0.74454 0.16723 0.45871 0.0
H2528 H 0.76567 0.18259 0.47345 0.0
H2529 H 0.76303 0.1926 0.53157 0.0
H2530 H 0.80317 0.25927 0.54983 0.0
H2531 H 0.78716 0.23679 0.54019 0.0
C2532 C 0.55352 0.81182 0.03841 0.0
C2533 C 0.56127 0.82546 0.0342 0.0
C2534 C 0.55722 0.80277 0.03222 0.0
C2535 C 0.57245 0.79641 0.9946 0.0
H2536 H 0.57202 0.76913 0.02553 0.0
C2537 C 0.57292 0.7505 0.96494 0.0
C2538 C 0.56379 0.73832 0.97305 0.0
C2539 C 0.57592 0.76256 0.97317 0.0
C2540 C 0.57215 0.77666 0.01669 0.0
H2541 H 0.57931 0.84029 0.02064 0.0
H2542 H 0.58536 0.82424 0.00905 0.0
H2543 H 0.57124 0.78795 0.03907 0.0
H2544 H 0.55054 0.72914 0.99588 0.0
H2545 H 0.55548 0.75004 0.00997 0.0
H2546 H 0.57239 0.78472 0.97217 0.0
C2547 C 0.5765 0.82071 0.01733 0.0
C2548 C 0.57179 0.78745 0.02447 0.0
C2549 C 0.57295 0.82983 0.02384 0.0
C2550 C 0.55778 0.73839 0.9895 0.0
C2551 C 0.56069 0.75039 0.99762 0.0
C2552 C 0.57261 0.78551 0.98679 0.0
C2553 C 0.56862 0.80711 0.02143 0.0
C2554 C 0.57153 0.79718 0.01346 0.0
C2555 C 0.56977 0.76263 0.98956 0.0
C2556 C 0.57199 0.77528 0.99775 0.0
H2557 H 0.54432 0.80799 0.04599 0.0
H2558 H 0.55086 0.79228 0.03527 0.0
H2559 H 0.57216 0.80379 0.98586 0.0
H2560 H 0.57777 0.75068 0.95232 0.0
H2561 H 0.58304 0.77182 0.96668 0.0
C2562 C 0.72345 0.53555 0.513 0.0
C2563 C 0.72297 0.54715 0.5171 0.0
C2564 C 0.73478 0.53642 0.50508 0.0
C2565 C 0.7707 0.55884 0.50026 0.0
H2566 H 0.76733 0.53459 0.46172 0.0
C2567 C 0.81641 0.56154 0.46476 0.0
C2568 C 0.81583 0.54929 0.46155 0.0
C2569 C 0.80511 0.56186 0.47063 0.0
C2570 C 0.76842 0.54135 0.47258 0.0
H2571 H 0.73392 0.56877 0.51582 0.0
H2572 H 0.75383 0.57029 0.50209 0.0
H2573 H 0.74744 0.53415 0.47347 0.0
H2574 H 0.80292 0.52779 0.46177 0.0
H2575 H 0.78331 0.52834 0.47242 0.0
H2576 H 0.79166 0.56589 0.49961 0.0
C2577 C 0.74544 0.56053 0.50516 0.0
C2578 C 0.75704 0.54111 0.47927 0.0
C2579 C 0.73406 0.55966 0.51303 0.0
C2580 C 0.80373 0.53738 0.46432 0.0
C2581 C 0.79245 0.5377 0.47019 0.0
C2582 C 0.78209 0.55906 0.49361 0.0
C2583 C 0.74591 0.54892 0.50115 0.0
C2584 C 0.75806 0.54975 0.49331 0.0
C2585 C 0.79302 0.54994 0.47339 0.0
C2586 C 0.78104 0.55021 0.47983 0.0
H2587 H 0.71517 0.52577 0.5163 0.0
H2588 H 0.73496 0.52731 0.50242 0.0
H2589 H 0.77175 0.56551 0.51124 0.0
H2590 H 0.82563 0.57088 0.4629 0.0
H2591 H 0.80583 0.57144 0.47285 0.0
C2592 C 0.24408 0.82393 0.95844 0.0
C2593 C 0.25184 0.81978 0.94874 0.0
C2594 C 0.23129 0.81461 0.96436 0.0
C2595 C 0.20384 0.78001 0.95868 0.0
H2596 H 0.20055 0.78026 0.01091 0.0
C2597 C 0.17198 0.73246 -0.00075 0.0
C2598 C 0.16594 0.73302 0.01544 0.0
C2599 C 0.18011 0.74407 0.98954 0.0
C2600 C 0.20108 0.78017 0.99628 0.0
H2601 H 0.25193 0.80261 0.93703 0.0
H2602 H 0.22956 0.7865 0.94694 0.0
H2603 H 0.2189 0.79924 0.99581 0.0
H2604 H 0.16316 0.74601 0.03383 0.0
H2605 H 0.17727 0.76638 0.0167 0.0
H2606 H 0.18622 0.7608 0.95914 0.0
C2607 C 0.23337 0.79696 0.94991 0.0
C2608 C 0.21162 0.79105 0.98763 0.0
C2609 C 0.24621 0.80622 0.94422 0.0
C2610 C 0.16788 0.74536 0.0215 0.0
C2611 C 0.17593 0.75699 0.01169 0.0
C2612 C 0.19322 0.76918 0.96729 0.0
C2613 C 0.22594 0.80102 0.96042 0.0
C2614 C 0.21336 0.79084 0.96885 0.0
C2615 C 0.18229 0.7565 0.99572 0.0
C2616 C 0.19202 0.76891 0.98626 0.0
H2617 H 0.24799 0.83433 0.96181 0.0
H2618 H 0.22568 0.81797 0.97235 0.0
H2619 H 0.20491 0.7797 0.94414 0.0
H2620 H 0.17077 0.72309 0.99439 0.0
H2621 H 0.18507 0.74334 0.97753 0.0
C2622 C 0.4214 0.17159 0.53596 0.0
C2623 C 0.43311 0.17531 0.54592 0.0
C2624 C 0.41823 0.1812 0.5304 0.0
C2625 C 0.42551 0.21564 0.53756 0.0
H2626 H 0.42249 0.21651 0.48535 0.0
C2627 C 0.43928 0.26377 0.49902 0.0
C2628 C 0.43287 0.26309 0.48262 0.0
C2629 C 0.43632 0.25213 0.50833 0.0
C2630 C 0.42296 0.2163 0.49998 0.0
H2631 H 0.45033 0.192 0.55851 0.0
H2632 H 0.44459 0.20864 0.54918 0.0
H2633 H 0.42213 0.19743 0.49961 0.0
H2634 H 0.41788 0.2499 0.46348 0.0
H2635 H 0.41239 0.22951 0.47998 0.0
H2636 H 0.42653 0.23459 0.53796 0.0
C2637 C 0.43788 0.19828 0.54571 0.0
C2638 C 0.42278 0.20535 0.50813 0.0
C2639 C 0.44115 0.18872 0.55107 0.0
C2640 C 0.42309 0.25063 0.47599 0.0
C2641 C 0.41998 0.23898 0.48543 0.0
C2642 C 0.42551 0.22653 0.52943 0.0
C2643 C 0.42659 0.19465 0.53495 0.0
C2644 C 0.42446 0.20512 0.52692 0.0
C2645 C 0.42675 0.23957 0.50154 0.0
C2646 C 0.42467 0.22718 0.51048 0.0
H2647 H 0.41482 0.1613 0.53212 0.0
H2648 H 0.4094 0.17816 0.52222 0.0
H2649 H 0.42669 0.2156 0.55211 0.0
H2650 H 0.44692 0.27328 0.50432 0.0
H2651 H 0.44192 0.25298 0.52049 0.0
C2652 C 0.80247 0.5483 0.04198 0.0
C2653 C 0.81583 0.55651 0.03685 0.0
C2654 C 0.79276 0.55129 0.03642 0.0
C2655 C 0.78509 0.56696 -0.00031 0.0
H2656 H 0.75639 0.56247 0.03134 0.0
C2657 C 0.73904 0.56747 0.97158 0.0
C2658 C 0.72679 0.55697 0.97778 0.0
C2659 C 0.7509 0.57049 0.98035 0.0
C2660 C 0.76433 0.56375 0.02233 0.0
H2661 H 0.82962 0.57437 0.02216 0.0
H2662 H 0.81251 0.57953 0.01218 0.0
H2663 H 0.77565 0.56208 0.04406 0.0
H2664 H 0.71731 0.54153 0.99816 0.0
H2665 H 0.73796 0.54662 0.01329 0.0
H2666 H 0.77352 0.56792 0.97783 0.0
C2667 C 0.80962 0.57083 0.02058 0.0
C2668 C 0.77535 0.56356 0.02962 0.0
C2669 C 0.81937 0.56792 0.02632 0.0
C2670 C 0.72658 0.54979 0.99321 0.0
C2671 C 0.73843 0.55275 0.00192 0.0
C2672 C 0.77402 0.56705 0.99237 0.0
C2673 C 0.79622 0.56249 0.0255 0.0
C2674 C 0.78564 0.56479 0.01829 0.0
C2675 C 0.75074 0.563 0.99544 0.0
C2676 C 0.76334 0.56505 0.00355 0.0
H2677 H 0.79953 0.53953 0.05025 0.0
H2678 H 0.78248 0.5446 0.04021 0.0
H2679 H 0.79284 0.56782 0.99064 0.0
H2680 H 0.73944 0.57329 0.95985 0.0
H2681 H 0.76021 0.57856 0.97518 0.0
C2682 C 0.17757 0.73888 0.46348 0.0
C2683 C 0.17457 0.72642 0.47053 0.0
C2684 C 0.18788 0.75062 0.47092 0.0
C2685 C 0.20871 0.76369 0.51207 0.0
H2686 H 0.23303 0.79211 0.48013 0.0
C2687 C 0.26 0.80581 0.53522 0.0
C2688 C 0.26381 0.81883 0.52967 0.0
C2689 C 0.24848 0.79495 0.52828 0.0
C2690 C 0.22622 0.78432 0.48921 0.0
H2691 H 0.18012 0.7164 0.4906 0.0
H2692 H 0.1982 0.73684 0.50345 0.0
H2693 H 0.21399 0.77228 0.46737 0.0
H2694 H 0.25865 0.83077 0.5125 0.0
H2695 H 0.23844 0.81172 0.50031 0.0
H2696 H 0.22114 0.77562 0.53386 0.0
C2697 C 0.19241 0.7376 0.49247 0.0
C2698 C 0.21531 0.77298 0.48193 0.0
C2699 C 0.18208 0.72589 0.4851 0.0
C2700 C 0.25587 0.82082 0.51708 0.0
C2701 C 0.24439 0.80994 0.51002 0.0
C2702 C 0.21965 0.77499 0.51933 0.0
C2703 C 0.19541 0.75009 0.4855 0.0
C2704 C 0.20653 0.76248 0.49327 0.0
C2705 C 0.2406 0.79692 0.51557 0.0
C2706 C 0.22858 0.78533 0.50795 0.0
H2707 H 0.17183 0.73956 0.45236 0.0
H2708 H 0.18985 0.7601 0.46539 0.0
H2709 H 0.20198 0.75589 0.52119 0.0
H2710 H 0.26589 0.80401 0.54503 0.0
H2711 H 0.24585 0.785 0.53265 0.0
C2712 C 0.43152 0.16907 0.98834 0.0
C2713 C 0.43226 0.16943 0.96938 0.0
C2714 C 0.42839 0.17763 0.99765 0.0
C2715 C 0.41677 0.20223 0.99131 0.0
H2716 H 0.43909 0.21885 0.03335 0.0
C2717 C 0.43261 0.25505 0.0169 0.0
C2718 C 0.43251 0.25695 0.03565 0.0
C2719 C 0.42958 0.24263 0.01 0.0
C2720 C 0.43262 0.21414 0.02183 0.0
H2721 H 0.42994 0.17858 0.94515 0.0
H2722 H 0.42501 0.19396 0.96133 0.0
H2723 H 0.43919 0.20002 0.01904 0.0
H2724 H 0.42891 0.24742 0.06193 0.0
H2725 H 0.42383 0.22567 0.04983 0.0
H2726 H 0.41089 0.21704 0.99363 0.0
C2727 C 0.42644 0.18685 0.9691 0.0
C2728 C 0.43262 0.2033 0.01363 0.0
C2729 C 0.42934 0.17811 0.9598 0.0
C2730 C 0.42901 0.24616 0.0474 0.0
C2731 C 0.42615 0.23378 0.04052 0.0
C2732 C 0.41692 0.21322 -0.00061 0.0
C2733 C 0.42621 0.18691 0.98817 0.0
C2734 C 0.42489 0.19736 0.99806 0.0
C2735 C 0.42656 0.23196 0.02177 0.0
C2736 C 0.42503 0.21939 0.01452 0.0
H2737 H 0.43356 0.16229 0.99597 0.0
H2738 H 0.42799 0.17718 0.0123 0.0
H2739 H 0.4105 0.19774 0.97956 0.0
H2740 H 0.43517 0.26322 0.00759 0.0
H2741 H 0.43009 0.24151 0.99551 0.0
C2742 C 0.18795 0.44259 0.5449 0.0
C2743 C 0.17465 0.43452 0.53944 0.0
C2744 C 0.19779 0.44004 0.53863 0.0
C2745 C 0.20587 0.42683 0.4995 0.0
H2746 H 0.23506 0.43059 0.52949 0.0
C2747 C 0.25245 0.42912 0.46813 0.0
C2748 C 0.26466 0.43925 0.47501 0.0
C2749 C 0.24054 0.42556 0.47718 0.0
C2750 C 0.22699 0.42955 0.52093 0.0
H2751 H 0.16105 0.41724 0.52361 0.0
H2752 H 0.17842 0.41286 0.51233 0.0
H2753 H 0.2155 0.42953 0.54367 0.0
H2754 H 0.27405 0.4535 0.49678 0.0
H2755 H 0.2533 0.44754 0.51239 0.0
H2756 H 0.21758 0.42757 0.47672 0.0
C2757 C 0.18116 0.42111 0.52153 0.0
C2758 C 0.21579 0.42888 0.52906 0.0
C2759 C 0.17126 0.42358 0.52801 0.0
C2760 C 0.26479 0.44557 0.49128 0.0
C2761 C 0.25289 0.44209 0.50026 0.0
C2762 C 0.21711 0.42761 0.49136 0.0
C2763 C 0.19454 0.42942 0.52664 0.0
C2764 C 0.2053 0.42788 0.51838 0.0
C2765 C 0.24062 0.43214 0.49322 0.0
C2766 C 0.22796 0.42936 0.50197 0.0
H2767 H 0.19076 0.45101 0.55384 0.0
H2768 H 0.20805 0.44669 0.5426 0.0
H2769 H 0.19797 0.4262 0.49095 0.0
H2770 H 0.25211 0.42394 0.45575 0.0
H2771 H 0.23128 0.41773 0.47155 0.0
C2772 C 0.81652 0.26299 0.98454 0.0
C2773 C 0.81853 0.26465 0.96576 0.0
C2774 C 0.80573 0.25142 0.9915 0.0
C2775 C 0.77208 0.22618 0.98036 0.0
H2776 H 0.77565 0.20608 0.01981 0.0
C2777 C 0.72664 0.1792 0.00902 0.0
C2778 C 0.72624 0.17733 0.02783 0.0
C2779 C 0.73822 0.1891 0.00076 0.0
C2780 C 0.77446 0.21168 0.00894 0.0
H2781 H 0.81105 0.25562 0.93951 0.0
H2782 H 0.79198 0.2354 0.95173 0.0
H2783 H 0.79556 0.22485 0.00671 0.0
H2784 H 0.7374 0.18433 0.05283 0.0
H2785 H 0.75748 0.20198 0.03855 0.0
H2786 H 0.75102 0.2135 0.98296 0.0
C2787 C 0.79881 0.24302 0.961 0.0
C2788 C 0.78586 0.22235 0.00141 0.0
C2789 C 0.80972 0.2545 0.95405 0.0
C2790 C 0.73755 0.18553 0.03827 0.0
C2791 C 0.74906 0.19556 0.03005 0.0
C2792 C 0.76067 0.21564 0.98805 0.0
C2793 C 0.79669 0.24144 0.97978 0.0
C2794 C 0.78474 0.22971 0.98713 0.0
C2795 C 0.74954 0.19746 0.01119 0.0
C2796 C 0.76171 0.20831 0.00252 0.0
H2797 H 0.82325 0.27069 0.9938 0.0
H2798 H 0.80422 0.25045 0.00603 0.0
H2799 H 0.77098 0.23185 0.96949 0.0
H2800 H 0.71806 0.17285 0.0007 0.0
H2801 H 0.73831 0.19012 0.98617 0.0
C2802 C 0.5565 0.81207 0.45817 0.0
C2803 C 0.55336 0.82045 0.46812 0.0
C2804 C 0.55901 0.80292 0.46707 0.0
C2805 C 0.55188 0.78498 0.51061 0.0
H2806 H 0.57525 0.77303 0.49118 0.0
C2807 C 0.55802 0.74375 0.54477 0.0
C2808 C 0.55547 0.73314 0.53313 0.0
C2809 C 0.56 0.7558 0.53773 0.0
C2810 C 0.56873 0.77633 0.49674 0.0
H2811 H 0.55116 0.82653 0.49501 0.0
H2812 H 0.55603 0.8109 0.51067 0.0
H2813 H 0.57504 0.79213 0.47745 0.0
H2814 H 0.55357 0.7269 0.50511 0.0
H2815 H 0.55713 0.74804 0.49276 0.0
H2816 H 0.54558 0.76916 0.52987 0.0
C2817 C 0.5561 0.81101 0.49601 0.0
C2818 C 0.56854 0.7872 0.48886 0.0
C2819 C 0.55337 0.82 0.48709 0.0
C2820 C 0.5554 0.73491 0.51433 0.0
C2821 C 0.55757 0.74702 0.50729 0.0
C2822 C 0.5522 0.77425 0.51861 0.0
C2823 C 0.55863 0.80213 0.4861 0.0
C2824 C 0.55992 0.79149 0.49549 0.0
C2825 C 0.55965 0.75747 0.51895 0.0
C2826 C 0.56044 0.76968 0.51155 0.0
H2827 H 0.55648 0.81224 0.4435 0.0
H2828 H 0.56073 0.79612 0.45898 0.0
H2829 H 0.54491 0.7878 0.51588 0.0
H2830 H 0.55805 0.74258 0.55932 0.0
H2831 H 0.56164 0.76375 0.54696 0.0
C2832 C 0.3518 0.39679 0.06527 0.0
C2833 C 0.34168 0.39625 0.05421 0.0
C2834 C 0.35514 0.38681 0.06439 0.0
C2835 C 0.35489 0.36168 0.03453 0.0
H2836 H 0.36441 0.35075 0.07909 0.0
C2837 C 0.3938 0.34502 0.03819 0.0
C2838 C 0.39315 0.33657 0.05225 0.0
C2839 C 0.3841 0.34876 0.03668 0.0
C2840 C 0.36153 0.35339 0.06649 0.0
H2841 H 0.32714 0.38482 0.03345 0.0
H2842 H 0.33315 0.36733 0.03176 0.0
H2843 H 0.35354 0.364 0.08044 0.0
H2844 H 0.38133 0.32444 0.07478 0.0
H2845 H 0.36416 0.3307 0.07192 0.0
H2846 H 0.36311 0.35121 0.02058 0.0
C2847 C 0.33844 0.37553 0.04113 0.0
C2848 C 0.35545 0.36115 0.06729 0.0
C2849 C 0.33504 0.38554 0.04207 0.0
C2850 C 0.38215 0.33117 0.06401 0.0
C2851 C 0.37236 0.33477 0.06237 0.0
C2852 C 0.36095 0.35383 0.03372 0.0
C2853 C 0.34848 0.37605 0.05238 0.0
C2854 C 0.35256 0.36581 0.05134 0.0
C2855 C 0.37349 0.34401 0.04912 0.0
C2856 C 0.36477 0.35001 0.04971 0.0
H2857 H 0.35735 0.40507 0.07443 0.0
H2858 H 0.36318 0.38769 0.07288 0.0
H2859 H 0.35275 0.36511 0.02202 0.0
H2860 H 0.40223 0.34936 0.02901 0.0
H2861 H 0.38541 0.35602 0.02645 0.0
C2862 C 0.04744 0.39096 0.54855 0.0
C2863 C 0.05224 0.4043 0.55355 0.0
C2864 C 0.03381 0.38245 0.5455 0.0
C2865 C 0.00297 0.38225 0.53395 0.0
H2866 H 0.98483 0.35 0.56283 0.0
C2867 C 0.9485 0.34947 0.56607 0.0
C2868 C 0.94021 0.34702 0.55093 0.0
C2869 C 0.96208 0.35412 0.56385 0.0
C2870 C 0.9898 0.3589 0.55453 0.0
H2871 H 0.0468 0.41938 0.55875 0.0
H2872 H 0.02302 0.40458 0.55319 0.0
H2873 H 0.00924 0.36316 0.56306 0.0
H2874 H 0.93966 0.34691 0.52153 0.0
H2875 H 0.96355 0.35549 0.51774 0.0
H2876 H 0.98357 0.37829 0.52591 0.0
C2877 C 0.02975 0.40068 0.55171 0.0
C2878 C 0.00372 0.36636 0.55459 0.0
C2879 C 0.04329 0.4091 0.55505 0.0
C2880 C 0.94579 0.34895 0.5335 0.0
C2881 C 0.95943 0.35376 0.53129 0.0
C2882 C 0.98907 0.37471 0.53371 0.0
C2883 C 0.02487 0.38727 0.54705 0.0
C2884 C 0.01038 0.3783 0.54473 0.0
C2885 C 0.96772 0.35656 0.54647 0.0
C2886 C 0.98236 0.36318 0.54442 0.0
H2887 H 0.05418 0.38706 0.54736 0.0
H2888 H 0.03024 0.37213 0.54193 0.0
H2889 H 0.00792 0.3914 0.52616 0.0
H2890 H 0.94464 0.34834 0.5797 0.0
H2891 H 0.9683 0.3564 0.57579 0.0
C2892 C 0.59797 0.95282 0.06045 0.0
C2893 C 0.5947 0.9436 0.04632 0.0
C2894 C 0.60805 0.96601 0.05825 0.0
C2895 C 0.62622 0.99123 0.02323 0.0
H2896 H 0.64649 0.0112 0.06519 0.0
C2897 C 0.64488 0.04676 0.03182 0.0
C2898 C 0.65563 0.0545 0.04338 0.0
C2899 C 0.64069 0.03331 0.02904 0.0
C2900 C 0.64122 0.00582 0.05314 0.0
H2901 H 0.59953 0.94083 0.0189 0.0
H2902 H 0.61739 0.96398 0.01508 0.0
H2903 H 0.63334 0.98712 0.06676 0.0
H2904 H 0.67115 0.05469 0.05995 0.0
H2905 H 0.66416 0.03127 0.0546 0.0
H2906 H 0.63422 0.00996 0.00955 0.0
C2907 C 0.61201 0.96103 0.02778 0.0
C2908 C 0.63347 0.99197 0.05416 0.0
C2909 C 0.6018 0.9478 0.02995 0.0
C2910 C 0.66271 0.04883 0.05116 0.0
C2911 C 0.65866 0.03542 0.04814 0.0
C2912 C 0.63415 0.00509 0.02211 0.0
C2913 C 0.61522 0.97029 0.04191 0.0
C2914 C 0.6254 0.98458 0.03952 0.0
C2915 C 0.64728 0.02737 0.03759 0.0
C2916 C 0.64127 0.01261 0.03731 0.0
H2917 H 0.5925 0.94991 0.0731 0.0
H2918 H 0.60996 0.97293 0.06925 0.0
H2919 H 0.62017 0.98585 0.01166 0.0
H2920 H 0.6392 0.05088 0.02579 0.0
H2921 H 0.63177 0.02745 0.02107 0.0
C2922 C 0.6434 0.59927 0.57638 0.0
C2923 C 0.65362 0.59999 0.56537 0.0
C2924 C 0.64033 0.60947 0.57617 0.0
C2925 C 0.64176 0.63553 0.54696 0.0
H2926 H 0.62933 0.64441 0.59067 0.0
C2927 C 0.60185 0.65079 0.54684 0.0
C2928 C 0.60148 0.65876 0.56089 0.0
C2929 C 0.6118 0.64735 0.54642 0.0
C2930 C 0.63303 0.64234 0.57835 0.0
H2931 H 0.6689 0.61216 0.54581 0.0
H2932 H 0.66343 0.63003 0.54533 0.0
H2933 H 0.64054 0.63149 0.5928 0.0
H2934 H 0.61178 0.6703 0.58466 0.0
H2935 H 0.62936 0.6645 0.58378 0.0
H2936 H 0.63406 0.64625 0.53248 0.0
C2937 C 0.65776 0.62149 0.55406 0.0
C2938 C 0.6393 0.63477 0.57956 0.0
C2939 C 0.66086 0.61126 0.55429 0.0
C2940 C 0.61173 0.66394 0.57385 0.0
C2941 C 0.62176 0.66061 0.57335 0.0
C2942 C 0.63554 0.64319 0.54574 0.0
C2943 C 0.64741 0.62065 0.56493 0.0
C2944 C 0.64324 0.63082 0.56384 0.0
C2945 C 0.62166 0.6519 0.55998 0.0
C2946 C 0.63063 0.64623 0.56137 0.0
H2947 H 0.63744 0.59062 0.58478 0.0
H2948 H 0.63208 0.60834 0.58438 0.0
H2949 H 0.64469 0.63266 0.53459 0.0
H2950 H 0.59401 0.64658 0.53676 0.0
H2951 H 0.61127 0.64047 0.53608 0.0
C2952 C 0.94796 0.58485 0.05326 0.0
C2953 C 0.93866 0.58841 0.04721 0.0
C2954 C 0.96147 0.59295 0.04947 0.0
C2955 C 0.98675 0.62726 0.0391 0.0
H2956 H 0.00781 0.61065 0.02777 0.0
C2957 C 0.04498 0.64016 0.02843 0.0
C2958 C 0.05065 0.64829 0.0437 0.0
C2959 C 0.03139 0.63458 0.0248 0.0
C2960 C 0.0021 0.61553 0.03057 0.0
H2961 H 0.93619 0.6032 0.0324 0.0
H2962 H 0.95998 0.61743 0.02569 0.0
H2963 H 0.98366 0.59713 0.02868 0.0
H2964 H 0.04678 0.65749 0.06668 0.0
H2965 H 0.023 0.64755 0.06061 0.0
H2966 H 0.00527 0.64565 0.04123 0.0
C2967 C 0.95674 0.60837 0.03343 0.0
C2968 C 0.98826 0.60773 0.03131 0.0
C2969 C 0.94315 0.60021 0.03716 0.0
C2970 C 0.04266 0.65132 0.05475 0.0
C2971 C 0.02905 0.64566 0.05121 0.0
C2972 C 0.00065 0.63509 0.03833 0.0
C2973 C 0.96601 0.60478 0.03952 0.0
C2974 C 0.98047 0.61344 0.03613 0.0
C2975 C 0.0232 0.63693 0.03648 0.0
C2976 C 0.00848 0.62923 0.03454 0.0
H2977 H 0.94477 0.57573 0.06081 0.0
H2978 H 0.9684 0.59002 0.05459 0.0
H2979 H 0.98099 0.63192 0.04288 0.0
H2980 H 0.051 0.63788 0.01951 0.0
H2981 H 0.02723 0.62811 0.01315 0.0
C2982 C 0.39859 0.04607 0.56135 0.0
C2983 C 0.40176 0.05577 0.54789 0.0
C2984 C 0.38875 0.03288 0.55834 0.0
C2985 C 0.37097 0.00861 0.52216 0.0
H2986 H 0.34948 0.9878 0.56283 0.0
C2987 C 0.34984 0.95229 0.52813 0.0
C2988 C 0.33871 0.9447 0.53917 0.0
C2989 C 0.35471 0.96592 0.52585 0.0
C2990 C 0.35512 0.99343 0.55113 0.0
H2991 H 0.3971 0.05931 0.52075 0.0
H2992 H 0.37972 0.03613 0.51549 0.0
H2993 H 0.3632 0.01176 0.56574 0.0
H2994 H 0.32319 0.94496 0.55519 0.0
H2995 H 0.33134 0.9687 0.55065 0.0
H2996 H 0.36281 0.99023 0.50752 0.0
C2997 C 0.38497 0.03875 0.52831 0.0
C2998 C 0.36319 0.0072 0.55293 0.0
C2999 C 0.3949 0.05199 0.5313 0.0
C3000 C 0.3319 0.9507 0.54679 0.0
C3001 C 0.33663 0.96429 0.54426 0.0
C3002 C 0.36276 0.99482 0.52028 0.0
C3003 C 0.38177 0.02906 0.54183 0.0
C3004 C 0.3716 0.01487 0.53873 0.0
C3005 C 0.34842 0.97219 0.53439 0.0
C3006 C 0.35511 0.98699 0.53498 0.0
H3007 H 0.40389 0.04863 0.57413 0.0
H3008 H 0.38682 0.02562 0.56886 0.0
H3009 H 0.37732 0.01424 0.51093 0.0
H3010 H 0.3553 0.94788 0.52223 0.0
H3011 H 0.36389 0.97166 0.51835 0.0
C3012 C 0.58996 0.64165 0.97439 0.0
C3013 C 0.59154 0.64845 0.958 0.0
C3014 C 0.59775 0.63584 0.97812 0.0
C3015 C 0.62712 0.6336 0.96236 0.0
H3016 H 0.60547 0.5965 0.97643 0.0
C3017 C 0.64711 0.59666 0.96167 0.0
C3018 C 0.63866 0.5846 0.95268 0.0
C3019 C 0.64255 0.60539 0.96631 0.0
C3020 C 0.61167 0.60687 0.9726 0.0
H3021 H 0.6029 0.65504 0.93306 0.0
H3022 H 0.61637 0.6448 0.93943 0.0
H3023 H 0.59599 0.61108 0.97759 0.0
H3024 H 0.61887 0.57236 0.94136 0.0
H3025 H 0.61093 0.5875 0.94953 0.0
H3026 H 0.64254 0.62911 0.95635 0.0
C3027 C 0.60929 0.64412 0.94956 0.0
C3028 C 0.6063 0.61527 0.97347 0.0
C3029 C 0.60153 0.64995 0.94587 0.0
C3030 C 0.62555 0.58142 0.94859 0.0
C3031 C 0.62099 0.5901 0.95329 0.0
C3032 C 0.6325 0.62518 0.9615 0.0
C3033 C 0.60723 0.63669 0.9655 0.0
C3034 C 0.61382 0.62862 0.96778 0.0
C3035 C 0.62944 0.60219 0.96214 0.0
C3036 C 0.62465 0.61162 0.96601 0.0
H3037 H 0.5825 0.64056 0.98415 0.0
H3038 H 0.59609 0.63035 0.99064 0.0
H3039 H 0.63321 0.64389 0.95813 0.0
H3040 H 0.65721 0.5993 0.96522 0.0
H3041 H 0.64924 0.61463 0.9732 0.0
C3042 C 0.9529 0.61263 0.44121 0.0
C3043 C 0.94306 0.60699 0.45474 0.0
C3044 C 0.96614 0.62149 0.44571 0.0
C3045 C 0.9891 0.62626 0.4811 0.0
H3046 H 0.01381 0.65589 0.45105 0.0
C3047 C 0.0405 0.63578 0.461 0.0
C3048 C 0.05145 0.64886 0.46092 0.0
C3049 C 0.02776 0.63339 0.46517 0.0
C3050 C 0.00704 0.64783 0.45985 0.0
H3051 H 0.9394 0.60705 0.48358 0.0
H3052 H 0.96275 0.62215 0.49148 0.0
H3053 H 0.98986 0.64771 0.44883 0.0
H3054 H 0.0575 0.66965 0.46582 0.0
H3055 H 0.03499 0.66541 0.47223 0.0
H3056 H 0.0062 0.62576 0.49115 0.0
C3057 C 0.96007 0.61969 0.47738 0.0
C3058 C 0.99337 0.64312 0.45851 0.0
C3059 C 0.94674 0.61096 0.47284 0.0
C3060 C 0.0493 0.65947 0.46541 0.0
C3061 C 0.03645 0.65707 0.46926 0.0
C3062 C 0.00275 0.63087 0.48229 0.0
C3063 C 0.96992 0.6248 0.46387 0.0
C3064 C 0.98426 0.63195 0.46858 0.0
C3065 C 0.02558 0.64401 0.46907 0.0
C3066 C 0.01177 0.64133 0.47112 0.0
H3067 H 0.95059 0.60967 0.42717 0.0
H3068 H 0.97357 0.62507 0.43505 0.0
H3069 H 0.98229 0.61758 0.48894 0.0
H3070 H 0.04162 0.62737 0.45721 0.0
H3071 H 0.01948 0.62324 0.46454 0.0
C3072 C 0.39675 0.0469 0.94542 0.0
C3073 C 0.40658 0.0527 0.93189 0.0
C3074 C 0.3897 0.03307 0.94786 0.0
C3075 C 0.39194 0.00296 0.93717 0.0
H3076 H 0.35409 0.98385 0.94806 0.0
C3077 C 0.3585 0.94695 0.92538 0.0
C3078 C 0.35047 0.93936 0.9399 0.0
C3079 C 0.36531 0.96082 0.9262 0.0
C3080 C 0.36469 0.98912 0.94524 0.0
H3081 H 0.41658 0.04842 0.91023 0.0
H3082 H 0.40389 0.02444 0.91387 0.0
H3083 H 0.36594 0.0082 0.94565 0.0
H3084 H 0.34311 0.94016 0.96656 0.0
H3085 H 0.3549 0.96468 0.96782 0.0
H3086 H 0.39054 0.98383 0.93602 0.0
C3087 C 0.40184 0.03055 0.92293 0.0
C3088 C 0.37149 0.00303 0.94389 0.0
C3089 C 0.40896 0.04434 0.92062 0.0
C3090 C 0.34927 0.94586 0.95523 0.0
C3091 C 0.35593 0.9598 0.95592 0.0
C3092 C 0.38513 0.98909 0.93829 0.0
C3093 C 0.39227 0.02475 0.93676 0.0
C3094 C 0.38515 0.01009 0.93951 0.0
C3095 C 0.36409 0.96736 0.94145 0.0
C3096 C 0.37142 0.98206 0.94204 0.0
H3097 H 0.39454 0.05304 0.9542 0.0
H3098 H 0.38244 0.02894 0.95869 0.0
H3099 H 0.40253 0.00809 0.9343 0.0
H3100 H 0.35966 0.94213 0.9135 0.0
H3101 H 0.37148 0.96646 0.91484 0.0
C3102 C 0.34739 0.39777 0.45513 0.0
C3103 C 0.3394 0.39763 0.44071 0.0
C3104 C 0.35065 0.38774 0.45676 0.0
C3105 C 0.35509 0.36457 0.42808 0.0
H3106 H 0.36137 0.35233 0.47394 0.0
C3107 C 0.38156 0.33402 0.43068 0.0
C3108 C 0.39239 0.33915 0.44275 0.0
C3109 C 0.37202 0.33799 0.43191 0.0
C3110 C 0.35962 0.35563 0.46104 0.0
H3111 H 0.32808 0.38652 0.41717 0.0
H3112 H 0.33355 0.36886 0.42026 0.0
H3113 H 0.34982 0.36514 0.47344 0.0
H3114 H 0.40124 0.35173 0.46629 0.0
H3115 H 0.38476 0.35889 0.4682 0.0
H3116 H 0.36528 0.35554 0.41571 0.0
C3117 C 0.33744 0.37684 0.43014 0.0
C3118 C 0.35303 0.36297 0.46075 0.0
C3119 C 0.33421 0.3869 0.42848 0.0
C3120 C 0.39311 0.34778 0.45663 0.0
C3121 C 0.38357 0.35174 0.45787 0.0
C3122 C 0.36163 0.35723 0.42837 0.0
C3123 C 0.34596 0.37732 0.44405 0.0
C3124 C 0.35103 0.36783 0.4443 0.0
C3125 C 0.37311 0.34714 0.44524 0.0
C3126 C 0.3643 0.353 0.44488 0.0
H3127 H 0.35135 0.40579 0.46496 0.0
H3128 H 0.35734 0.38849 0.46754 0.0
H3129 H 0.35388 0.36832 0.4152 0.0
H3130 H 0.38076 0.32738 0.41981 0.0
H3131 H 0.36398 0.33419 0.4221 0.0
C3132 C 0.04252 0.39852 0.91845 0.0
C3133 C 0.05235 0.39788 0.92881 0.0
C3134 C 0.02939 0.38802 0.91862 0.0
C3135 C 0.00565 0.36077 0.94721 0.0
H3136 H 0.98371 0.35222 0.90415 0.0
C3137 C 0.9501 0.34381 0.9492 0.0
C3138 C 0.94173 0.33596 0.93509 0.0
C3139 C 0.96359 0.3476 0.9492 0.0
C3140 C 0.98967 0.3542 0.91627 0.0
H3141 H 0.05619 0.38552 0.94711 0.0
H3142 H 0.0331 0.36712 0.94754 0.0
H3143 H 0.00777 0.36597 0.90157 0.0
H3144 H 0.94056 0.32494 0.91079 0.0
H3145 H 0.96414 0.33141 0.91089 0.0
H3146 H 0.9875 0.34918 0.96195 0.0
C3147 C 0.0356 0.37584 0.93937 0.0
C3148 C 0.00347 0.36224 0.9148 0.0
C3149 C 0.04879 0.38638 0.93916 0.0
C3150 C 0.94688 0.3312 0.92165 0.0
C3151 C 0.96036 0.33491 0.92172 0.0
C3152 C 0.99182 0.35266 0.94868 0.0
C3153 C 0.02576 0.3766 0.92918 0.0
C3154 C 0.01155 0.36605 0.93034 0.0
C3155 C 0.96896 0.34355 0.93514 0.0
C3156 C 0.98364 0.34971 0.93331 0.0
H3157 H 0.04486 0.40734 0.91061 0.0
H3158 H 0.02199 0.38906 0.91095 0.0
H3159 H 0.01161 0.36353 0.95943 0.0
H3160 H 0.94642 0.34771 0.95965 0.0
H3161 H 0.96993 0.35441 0.95962 0.0
C3162 C 0.59837 0.94477 0.45027 0.0
C3163 C 0.5869 0.9401 0.43944 0.0
C3164 C 0.60614 0.95836 0.45427 0.0
C3165 C 0.60394 0.98891 0.45679 0.0
H3166 H 0.64242 0.00763 0.45152 0.0
C3167 C 0.64755 0.04534 0.4421 0.0
C3168 C 0.64381 0.05232 0.4541 0.0
C3169 C 0.64195 0.03155 0.44362 0.0
C3170 C 0.63169 0.00251 0.45312 0.0
H3171 H 0.57455 0.94595 0.42438 0.0
H3172 H 0.5882 0.96961 0.4311 0.0
H3173 H 0.62963 0.98347 0.44708 0.0
H3174 H 0.63197 0.05049 0.4778 0.0
H3175 H 0.62215 0.02634 0.48047 0.0
H3176 H 0.60584 0.00792 0.46205 0.0
C3177 C 0.59113 0.96279 0.43662 0.0
C3178 C 0.62439 0.98869 0.45072 0.0
C3179 C 0.58343 0.94927 0.43256 0.0
C3180 C 0.63485 0.04532 0.46818 0.0
C3181 C 0.62926 0.03152 0.46971 0.0
C3182 C 0.61121 0.00269 0.45923 0.0
C3183 C 0.60249 0.96746 0.44765 0.0
C3184 C 0.61042 0.98183 0.45208 0.0
C3185 C 0.6325 0.02446 0.45717 0.0
C3186 C 0.62513 0.00968 0.45702 0.0
H3187 H 0.6013 0.93792 0.45566 0.0
H3188 H 0.61484 0.9617 0.46282 0.0
H3189 H 0.59319 0.98383 0.4582 0.0
H3190 H 0.65432 0.05042 0.43098 0.0
H3191 H 0.64451 0.02638 0.43359 0.0
C3192 C 0.47731 0.6069 0.98296 0.0
C3193 C 0.47682 0.6133 0.96705 0.0
C3194 C 0.46587 0.59572 0.98949 0.0
C3195 C 0.43313 0.5685 0.97489 0.0
H3196 H 0.42602 0.56394 0.02649 0.0
C3197 C 0.3852 0.5243 0.00494 0.0
C3198 C 0.38686 0.51819 0.02039 0.0
C3199 C 0.39581 0.53618 -0.00173 0.0
C3200 C 0.42794 0.56502 0.01206 0.0
H3201 H 0.46394 0.61304 0.94555 0.0
H3202 H 0.44386 0.59358 0.95713 0.0
H3203 H 0.4451 0.58439 0.01525 0.0
H3204 H 0.40091 0.5198 0.04105 0.0
H3205 H 0.41947 0.54038 0.02923 0.0
H3206 H 0.416 0.54907 0.97173 0.0
C3207 C 0.45314 0.59716 0.96444 0.0
C3208 C 0.43886 0.57673 0.00562 0.0
C3209 C 0.4646 0.60838 0.95792 0.0
C3210 C 0.39935 0.52418 0.029 0.0
C3211 C 0.40994 0.53606 0.02236 0.0
C3212 C 0.42219 0.55677 0.98134 0.0
C3213 C 0.45367 0.59068 0.98026 0.0
C3214 C 0.44165 0.57854 0.98698 0.0
C3215 C 0.40828 0.54221 0.00696 0.0
C3216 C 0.41956 0.55486 1e-05 0.0
H3217 H 0.48654 0.61054 0.99042 0.0
H3218 H 0.46665 0.59087 0.0016 0.0
H3219 H 0.43511 0.56952 0.96047 0.0
H3220 H 0.37572 0.51985 0.99792 0.0
H3221 H 0.3942 0.54073 0.98644 0.0
C3222 C 0.87688 0.39931 0.52197 0.0
C3223 C 0.86462 0.38734 0.52304 0.0
C3224 C 0.87754 0.41078 0.51484 0.0
C3225 C 0.85669 0.42594 0.50488 0.0
H3226 H 0.88697 0.44993 0.47528 0.0
C3227 C 0.85966 0.4709 0.46651 0.0
C3228 C 0.87183 0.48299 0.46766 0.0
C3229 C 0.85856 0.45907 0.47307 0.0
C3230 C 0.87851 0.44337 0.48364 0.0
H3231 H 0.84347 0.37793 0.5173 0.0
H3232 H 0.84463 0.39794 0.50452 0.0
H3233 H 0.88535 0.42942 0.48671 0.0
H3234 H 0.89234 0.49212 0.47693 0.0
H3235 H 0.89045 0.47144 0.48813 0.0
H3236 H 0.84981 0.43989 0.50161 0.0
C3237 C 0.8537 0.39853 0.50952 0.0
C3238 C 0.87759 0.43163 0.49022 0.0
C3239 C 0.85303 0.38706 0.51678 0.0
C3240 C 0.88288 0.48296 0.47554 0.0
C3241 C 0.8818 0.47113 0.48199 0.0
C3242 C 0.85757 0.43764 0.49818 0.0
C3243 C 0.86596 0.41054 0.5085 0.0
C3244 C 0.86671 0.42281 0.50103 0.0
C3245 C 0.86964 0.45906 0.48081 0.0
C3246 C 0.86854 0.44651 0.4876 0.0
H3247 H 0.88594 0.39986 0.52699 0.0
H3248 H 0.8871 0.41991 0.5146 0.0
H3249 H 0.84828 0.41948 0.51339 0.0
H3250 H 0.85101 0.47051 0.46024 0.0
H3251 H 0.84911 0.44989 0.47179 0.0
C3252 C 0.37973 0.84654 0.97028 0.0
C3253 C 0.37515 0.85466 0.9779 0.0
C3254 C 0.39077 0.84637 0.97762 0.0
C3255 C 0.42104 0.86772 0.00341 0.0
H3256 H 0.4235 0.83568 0.00855 0.0
C3257 C 0.46687 0.86917 0.03571 0.0
C3258 C 0.47169 0.86142 0.02763 0.0
C3259 C 0.45462 0.86767 0.03049 0.0
C3260 C 0.42301 0.84473 0.00701 0.0
H3261 H 0.37809 0.86834 -0.00018 0.0
H3262 H 0.39742 0.86811 0.01252 0.0
H3263 H 0.40263 0.83396 -0.00172 0.0
H3264 H 0.46747 0.84601 0.0078 0.0
H3265 H 0.44611 0.84352 -0.00158 0.0
H3266 H 0.44143 0.87855 0.01173 0.0
C3267 C 0.39259 0.86205 0.00071 0.0
C3268 C 0.41105 0.84373 0.00119 0.0
C3269 C 0.38153 0.86219 0.99342 0.0
C3270 C 0.46394 0.85204 0.01434 0.0
C3271 C 0.4517 0.85059 0.00903 0.0
C3272 C 0.43299 0.86873 0.00912 0.0
C3273 C 0.39747 0.85434 0.99267 0.0
C3274 C 0.40996 0.85522 -0.00066 0.0
C3275 C 0.44693 0.85844 0.01698 0.0
C3276 C 0.43413 0.85725 0.01101 0.0
H3277 H 0.37513 0.84074 0.9582 0.0
H3278 H 0.39438 0.84042 0.97105 0.0
H3279 H 0.42058 0.87678 0.00177 0.0
H3280 H 0.47251 0.8763 0.04624 0.0
H3281 H 0.45112 0.87368 0.03716 0.0
C3282 C 0.52249 0.3858 0.47336 0.0
C3283 C 0.51128 0.38634 0.4673 0.0
C3284 C 0.53327 0.397 0.48115 0.0
C3285 C 0.54863 0.43371 0.48486 0.0
H3286 H 0.56699 0.4292 0.52581 0.0
C3287 C 0.58806 0.47802 0.52694 0.0
C3288 C 0.59989 0.47788 0.53079 0.0
C3289 C 0.57711 0.46683 0.5194 0.0
C3290 C 0.56201 0.43059 0.5143 0.0
H3291 H 0.50243 0.39893 0.46492 0.0
H3292 H 0.52113 0.41842 0.47877 0.0
H3293 H 0.54811 0.40969 0.51221 0.0
H3294 H 0.60948 0.46588 0.52952 0.0
H3295 H 0.59028 0.44632 0.51671 0.0
H3296 H 0.56247 0.45465 0.48715 0.0
C3297 C 0.52176 0.40945 0.47713 0.0
C3298 C 0.55123 0.41942 0.50646 0.0
C3299 C 0.51104 0.39829 0.46922 0.0
C3300 C 0.60046 0.46626 0.52706 0.0
C3301 C 0.58947 0.45505 0.51967 0.0
C3302 C 0.55935 0.44488 0.49279 0.0
C3303 C 0.53302 0.40895 0.48318 0.0
C3304 C 0.54444 0.42084 0.4916 0.0
C3305 C 0.57771 0.45525 0.5157 0.0
C3306 C 0.56617 0.44342 0.50754 0.0
H3307 H 0.523 0.37675 0.47185 0.0
H3308 H 0.54188 0.39632 0.48537 0.0
H3309 H 0.54378 0.43515 0.47325 0.0
H3310 H 0.58721 0.48672 0.5299 0.0
H3311 H 0.5681 0.46719 0.51667 0.0
C3312 C 0.11265 0.52006 0.97367 0.0
C3313 C 0.12433 0.51938 0.97108 0.0
C3314 C 0.11323 0.53122 0.98181 0.0
C3315 C 0.13498 0.5606 0.01034 0.0
H3316 H 0.11213 0.57367 0.99243 0.0
C3317 C 0.14033 0.61118 0.03185 0.0
C3318 C 0.12841 0.61089 0.03646 0.0
C3319 C 0.14 0.6 0.0241 0.0
C3320 C 0.1185 0.57007 0.99765 0.0
H3321 H 0.14576 0.52987 0.9753 0.0
H3322 H 0.14682 0.54952 0.98882 0.0
H3323 H 0.11125 0.55422 0.97833 0.0
H3324 H 0.10684 0.59879 0.03639 0.0
H3325 H 0.10627 0.57929 0.02283 0.0
H3326 H 0.14237 0.57666 0.02946 0.0
C3327 C 0.13718 0.54134 0.98485 0.0
C3328 C 0.11797 0.5589 0.98962 0.0
C3329 C 0.13659 0.53013 0.97684 0.0
C3330 C 0.11618 0.59924 0.03316 0.0
C3331 C 0.11585 0.58814 0.02524 0.0
C3332 C 0.13559 0.57186 0.01825 0.0
C3333 C 0.12551 0.54203 0.98744 0.0
C3334 C 0.12616 0.55398 0.99592 0.0
C3335 C 0.12774 0.58841 0.02061 0.0
C3336 C 0.12731 0.57665 0.01203 0.0
H3337 H 0.10306 0.51203 0.96922 0.0
H3338 H 0.10402 0.53133 0.98381 0.0
H3339 H 0.14127 0.55697 0.01572 0.0
H3340 H 0.14989 0.62003 0.03433 0.0
H3341 H 0.14931 0.6005 0.02056 0.0
C3342 C 0.51798 0.1318 0.49984 0.0
C3343 C 0.51888 0.13783 0.51665 0.0
C3344 C 0.52938 0.13294 0.49165 0.0
C3345 C 0.56663 0.15172 0.49426 0.0
H3346 H 0.56289 0.12074 0.46879 0.0
C3347 C 0.61021 0.14238 0.47767 0.0
C3348 C 0.6107 0.13827 0.45988 0.0
C3349 C 0.59936 0.14358 0.48344 0.0
C3350 C 0.56405 0.12951 0.47571 0.0
H3351 H 0.53226 0.14974 0.53816 0.0
H3352 H 0.55209 0.15132 0.5243 0.0
H3353 H 0.5432 0.1203 0.48114 0.0
H3354 H 0.60036 0.13279 0.43403 0.0
H3355 H 0.58121 0.13438 0.44441 0.0
H3356 H 0.58765 0.16061 0.48944 0.0
C3357 C 0.54273 0.14608 0.51705 0.0
C3358 C 0.55276 0.12931 0.48272 0.0
C3359 C 0.53136 0.14512 0.52507 0.0
C3360 C 0.6002 0.13567 0.44794 0.0
C3361 C 0.58926 0.13666 0.45381 0.0
C3362 C 0.57795 0.15182 0.48749 0.0
C3363 C 0.54189 0.13993 0.50027 0.0
C3364 C 0.55389 0.1404 0.49216 0.0
C3365 C 0.5887 0.14051 0.47165 0.0
C3366 C 0.57674 0.1407 0.47821 0.0
H3367 H 0.50846 0.12623 0.49301 0.0
H3368 H 0.52837 0.12832 0.47855 0.0
H3369 H 0.56789 0.16054 0.50112 0.0
H3370 H 0.61798 0.14427 0.48736 0.0
H3371 H 0.59908 0.14644 0.49733 0.0
C3372 C 0.52638 0.38664 0.0318 0.0
C3373 C 0.51436 0.37926 0.02221 0.0
C3374 C 0.53768 0.39674 0.02322 0.0
C3375 C 0.5476 0.41997 0.98508 0.0
H3376 H 0.58268 0.42435 0.9931 0.0
C3377 C 0.59373 0.46064 0.94807 0.0
C3378 C 0.60536 0.46785 0.95846 0.0
C3379 C 0.58292 0.449 0.95488 0.0
C3380 C 0.57297 0.42333 0.99085 0.0
H3381 H 0.50492 0.37648 0.99595 0.0
H3382 H 0.52461 0.39425 0.98105 0.0
H3383 H 0.56316 0.4056 0.00698 0.0
H3384 H 0.61489 0.46846 0.98398 0.0
H3385 H 0.59594 0.44823 0.99603 0.0
H3386 H 0.55734 0.43782 0.96933 0.0
C3387 C 0.52522 0.39228 0.99526 0.0
C3388 C 0.5618 0.41259 -0.00122 0.0
C3389 C 0.51394 0.38213 0.00381 0.0
C3390 C 0.6061 0.46301 0.9756 0.0
C3391 C 0.59525 0.45141 0.98248 0.0
C3392 C 0.55875 0.43074 0.97725 0.0
C3393 C 0.53719 0.39972 0.0049 0.0
C3394 C 0.54901 0.41083 0.99603 0.0
C3395 C 0.58346 0.44437 0.9723 0.0
C3396 C 0.57158 0.43259 0.98009 0.0
H3397 H 0.52699 0.38482 0.04606 0.0
H3398 H 0.54671 0.40244 0.03105 0.0
H3399 H 0.53789 0.41899 0.98294 0.0
H3400 H 0.59298 0.46404 0.93469 0.0
H3401 H 0.57411 0.44367 0.94653 0.0
C3402 C 0.14148 0.60796 0.47461 0.0
C3403 C 0.13325 0.60628 0.45967 0.0
C3404 C 0.14255 0.59724 0.48129 0.0
C3405 C 0.12421 0.56033 0.48122 0.0
H3406 H 0.15649 0.56508 0.50392 0.0
C3407 C 0.12353 0.51929 0.52535 0.0
C3408 C 0.13448 0.51726 0.52454 0.0
C3409 C 0.12404 0.53032 0.51692 0.0
C3410 C 0.14744 0.56353 0.49744 0.0
H3411 H 0.12001 0.59203 0.43971 0.0
H3412 H 0.1224 0.57359 0.45075 0.0
H3413 H 0.15666 0.58391 0.48895 0.0
H3414 H 0.15459 0.5251 0.51443 0.0
H3415 H 0.15542 0.54425 0.49919 0.0
H3416 H 0.11509 0.5399 0.48911 0.0
C3417 C 0.12774 0.58309 0.45767 0.0
C3418 C 0.14748 0.57438 0.48906 0.0
C3419 C 0.12654 0.59375 0.45114 0.0
C3420 C 0.14604 0.52652 0.51532 0.0
C3421 C 0.14651 0.53749 0.50666 0.0
C3422 C 0.12421 0.54948 0.48939 0.0
C3423 C 0.13554 0.58462 0.47306 0.0
C3424 C 0.13582 0.57295 0.48102 0.0
C3425 C 0.13547 0.53948 0.50727 0.0
C3426 C 0.13576 0.55097 0.49784 0.0
H3427 H 0.14702 0.61752 0.48132 0.0
H3428 H 0.14856 0.59879 0.49325 0.0
H3429 H 0.11498 0.55886 0.47541 0.0
H3430 H 0.11457 0.51239 0.53264 0.0
H3431 H 0.11549 0.5317 0.5181 0.0
C3432 C 0.59053 0.11579 0.03974 0.0
C3433 C 0.60364 0.12527 0.03497 0.0
C3434 C 0.57982 0.11689 0.03315 0.0
C3435 C 0.57176 0.14097 0.01096 0.0
H3436 H 0.53849 0.1088 -0.00023 0.0
C3437 C 0.52905 0.1391 0.96772 0.0
C3438 C 0.5162 0.13206 0.97537 0.0
C3439 C 0.53979 0.13883 0.97589 0.0
C3440 C 0.54771 0.11785 0.00297 0.0
H3441 H 0.61594 0.14314 0.0194 0.0
H3442 H 0.59726 0.14479 0.00719 0.0
H3443 H 0.55714 0.10702 0.01177 0.0
H3444 H 0.50479 0.11964 0.99808 0.0
H3445 H 0.52348 0.11876 0.01182 0.0
H3446 H 0.56234 0.15172 0.00133 0.0
C3447 C 0.59518 0.13676 0.01652 0.0
C3448 C 0.55839 0.11686 0.00995 0.0
C3449 C 0.60589 0.13579 0.02339 0.0
C3450 C 0.51444 0.12493 0.99155 0.0
C3451 C 0.52514 0.12447 -0.00049 0.0
C3452 C 0.56115 0.14194 0.00366 0.0
C3453 C 0.58199 0.12736 0.02137 0.0
C3454 C 0.57056 0.12841 0.01406 0.0
C3455 C 0.53787 0.13135 0.99169 0.0
C3456 C 0.54904 0.13039 -0.00034 0.0
H3457 H 0.5886 0.10766 0.04882 0.0
H3458 H 0.56985 0.10961 0.0375 0.0
H3459 H 0.58086 0.15009 0.01429 0.0
H3460 H 0.53078 0.14451 0.95513 0.0
H3461 H 0.54952 0.14413 0.96955 0.0
C3462 C 0.47021 0.61063 0.51662 0.0
C3463 C 0.47994 0.6087 0.52523 0.0
C3464 C 0.45907 0.5999 0.50866 0.0
C3465 C 0.4383 0.56353 0.51078 0.0
H3466 H 0.42667 0.56685 0.46276 0.0
C3467 C 0.38821 0.52363 0.4801 0.0
C3468 C 0.38876 0.5197 0.46227 0.0
C3469 C 0.39921 0.53473 0.48769 0.0
C3470 C 0.42984 0.56579 0.47616 0.0
H3471 H 0.48561 0.59406 0.53239 0.0
H3472 H 0.4661 0.57527 0.51848 0.0
H3473 H 0.44639 0.58577 0.47614 0.0
H3474 H 0.4011 0.52445 0.43826 0.0
H3475 H 0.42034 0.54389 0.45155 0.0
H3476 H 0.42179 0.54354 0.51079 0.0
C3477 C 0.46711 0.58509 0.51791 0.0
C3478 C 0.44104 0.57663 0.48386 0.0
C3479 C 0.47832 0.59584 0.52571 0.0
C3480 C 0.40044 0.52721 0.45209 0.0
C3481 C 0.4114 0.53838 0.45962 0.0
C3482 C 0.42703 0.55274 0.50316 0.0
C3483 C 0.45737 0.58701 0.50932 0.0
C3484 C 0.44541 0.57558 0.50121 0.0
C3485 C 0.41093 0.54219 0.47755 0.0
C3486 C 0.42272 0.55375 0.48575 0.0
H3487 H 0.47127 0.62046 0.51594 0.0
H3488 H 0.45167 0.60165 0.50223 0.0
H3489 H 0.44139 0.5625 0.52424 0.0
H3490 H 0.37937 0.51797 0.4883 0.0
H3491 H 0.39855 0.53751 0.5015 0.0
C3492 C 0.86014 0.39086 0.96201 0.0
C3493 C 0.86887 0.38703 0.96966 0.0
C3494 C 0.859 0.40133 0.96942 0.0
C3495 C 0.87727 0.43223 0.99383 0.0
H3496 H 0.84275 0.42711 0.00792 0.0
C3497 C 0.8727 0.47392 0.02938 0.0
C3498 C 0.86157 0.47524 0.02543 0.0
C3499 C 0.87335 0.46287 0.02323 0.0
C3500 C 0.85245 0.4288 0.00379 0.0
H3501 H 0.88316 0.3913 0.99134 0.0
H3502 H 0.88156 0.41 0.00369 0.0
H3503 H 0.84438 0.40842 0.99559 0.0
H3504 H 0.84241 0.46622 0.01202 0.0
H3505 H 0.84373 0.44714 0.00045 0.0
H3506 H 0.88537 0.45266 0.00118 0.0
C3507 C 0.87556 0.40473 0.99202 0.0
C3508 C 0.85336 0.41806 0.99686 0.0
C3509 C 0.87652 0.39408 0.98484 0.0
C3510 C 0.85106 0.46533 0.01527 0.0
C3511 C 0.85181 0.45438 0.00878 0.0
C3512 C 0.87634 0.44303 0.00042 0.0
C3513 C 0.86675 0.40839 0.98441 0.0
C3514 C 0.86579 0.41969 0.9919 0.0
C3515 C 0.86298 0.45301 0.01266 0.0
C3516 C 0.86392 0.44147 0.00556 0.0
H3517 H 0.85431 0.38592 0.95009 0.0
H3518 H 0.85226 0.40411 0.96321 0.0
H3519 H 0.88694 0.43373 0.98987 0.0
H3520 H 0.88085 0.48139 0.03744 0.0
H3521 H 0.88195 0.46203 0.0269 0.0
C3522 C 0.46481 0.85448 0.48131 0.0
C3523 C 0.47342 0.8644 0.46921 0.0
C3524 C 0.45397 0.85496 0.48878 0.0
C3525 C 0.44087 0.87828 0.49554 0.0
H3526 H 0.4079 0.84563 0.50626 0.0
C3527 C 0.39091 0.87596 0.51145 0.0
C3528 C 0.38512 0.86999 0.52815 0.0
C3529 C 0.40164 0.87507 0.50448 0.0
C3530 C 0.4171 0.8548 0.50337 0.0
H3531 H 0.47736 0.8823 0.45486 0.0
H3532 H 0.45811 0.88285 0.46711 0.0
H3533 H 0.42663 0.8444 0.49318 0.0
H3534 H 0.38622 0.85836 0.55051 0.0
H3535 H 0.40457 0.85633 0.53779 0.0
H3536 H 0.43101 0.88859 0.50509 0.0
C3537 C 0.45993 0.87498 0.47152 0.0
C3538 C 0.42786 0.85413 0.496 0.0
C3539 C 0.4709 0.87464 0.46437 0.0
C3540 C 0.39021 0.86288 0.53748 0.0
C3541 C 0.40077 0.86177 0.5303 0.0
C3542 C 0.43002 0.87892 0.50255 0.0
C3543 C 0.45139 0.86524 0.48399 0.0
C3544 C 0.4399 0.86587 0.49197 0.0
C3545 C 0.40662 0.86796 0.51384 0.0
C3546 C 0.41807 0.8672 0.50653 0.0
H3547 H 0.46666 0.84654 0.48528 0.0
H3548 H 0.44778 0.84741 0.49855 0.0
H3549 H 0.45005 0.88754 0.49308 0.0
H3550 H 0.3871 0.88124 0.50362 0.0
H3551 H 0.40595 0.87981 0.49165 0.0
loop_
_geom_bond_atom_site_label_1
_geom_bond_atom_site_label_2
_geom_bond_distance
_geom_bond_site_symmetry_2
_ccdc_geom_bond_type
Li0 N17 1.990 . S
Li0 O60 1.956 . S
Li0 O61 1.970 . S
Li0 O62 1.961 . S
Li1 N25 1.990 . S
Li1 O60 1.970 . S
Li1 O61 1.956 . S
Li1 O63 1.961 . S
Li2 N47 1.990 . S
Li2 O60 1.961 . S
Li2 O62 1.956 . S
Li2 O63 1.970 . S
Li3 N53 1.990 . S
Li3 O61 1.961 . S
Li3 O62 1.970 . S
Li3 O63 1.956 . S
C4 C6 1.348 . S
C4 C7 1.356 . S
C4 O60 1.325 . S
N5 C8 1.314 . S
N5 C9 1.279 . S
C6 C4 1.348 . S
C6 C8 1.353 . S
C6 H64 0.929 . S
C7 C4 1.356 . S
C7 C9 1.358 . S
C7 H65 0.930 . S
C8 N5 1.314 . S
C8 C6 1.353 . S
C8 H66 0.930 . S
C9 N5 1.279 . S
C9 C7 1.358 . S
C9 H67 0.930 . S
C10 C13 1.348 . S
C10 C14 1.356 . S
C10 O61 1.325 . S
C11 N12 1.279 . S
C11 C14 1.358 . S
C11 H68 0.930 . S
N12 C11 1.279 . S
N12 C15 1.314 . S
C13 C10 1.348 . S
C13 C15 1.353 . S
C13 H69 0.929 . S
C14 C10 1.356 . S
C14 C11 1.358 . S
C14 H70 0.930 . S
C15 N12 1.314 . S
C15 C13 1.353 . S
C15 H71 0.930 . S
C16 N17 1.314 . S
C16 C21 1.353 . S
C16 H22 0.930 . S
N17 Li0 1.990 . S
N17 C16 1.314 . S
N17 C19 1.279 . S
C18 C19 1.358 . S
C18 C20 1.356 . S
C18 H72 0.930 . S
C19 N17 1.279 . S
C19 C18 1.358 . S
C19 H23 0.930 . S
C20 C18 1.356 . S
C20 C21 1.348 . S
C21 C16 1.353 . S
C21 C20 1.348 . S
C21 H73 0.929 . S
H22 C16 0.930 . S
H23 C19 0.930 . S
C24 N25 1.314 . S
C24 C26 1.353 . S
C24 H30 0.930 . S
N25 Li1 1.990 . S
N25 C24 1.314 . S
N25 C28 1.279 . S
C26 C24 1.353 . S
C26 C29 1.348 . S
C26 H74 0.929 . S
C27 C28 1.358 . S
C27 C29 1.356 . S
C27 H75 0.930 . S
C28 N25 1.279 . S
C28 C27 1.358 . S
C28 H31 0.930 . S
C29 C26 1.348 . S
C29 C27 1.356 . S
H30 C24 0.930 . S
H31 C28 0.930 . S
C32 C34 1.348 . S
C32 C35 1.356 . S
C32 O62 1.325 . S
N33 C36 1.314 . S
N33 C37 1.279 . S
C34 C32 1.348 . S
C34 C36 1.353 . S
C34 H76 0.929 . S
C35 C32 1.356 . S
C35 C37 1.358 . S
C35 H77 0.930 . S
C36 N33 1.314 . S
C36 C34 1.353 . S
C36 H78 0.930 . S
C37 N33 1.279 . S
C37 C35 1.358 . S
C37 H79 0.930 . S
C38 C39 1.348 . S
C38 C40 1.356 . S
C38 O63 1.325 . S
C39 C38 1.348 . S
C39 C41 1.353 1_554 S
C39 H80 0.929 . S
C40 C38 1.356 . S
C40 C42 1.358 1_554 S
C40 H81 0.930 . S
C41 C39 1.353 1_556 S
C41 N43 1.314 . S
C41 H82 0.930 . S
C42 C40 1.358 1_556 S
C42 N43 1.279 . S
C42 H83 0.930 . S
N43 C41 1.314 . S
N43 C42 1.279 . S
C44 C46 1.353 . S
C44 N47 1.314 . S
C44 H50 0.930 . S
C45 N47 1.279 . S
C45 C48 1.358 . S
C45 H51 0.930 . S
C46 C44 1.353 . S
C46 C49 1.348 . S
C46 H84 0.929 . S
N47 Li2 1.990 . S
N47 C44 1.314 . S
N47 C45 1.279 . S
C48 C45 1.358 . S
C48 C49 1.356 . S
C48 H85 0.930 . S
C49 C46 1.348 . S
C49 C48 1.356 . S
H50 C44 0.930 . S
H51 C45 0.930 . S
C52 N53 1.314 . S
C52 C54 1.353 . S
C52 H58 0.930 . S
N53 Li3 1.990 . S
N53 C52 1.314 . S
N53 C56 1.279 . S
C54 C52 1.353 . S
C54 C57 1.348 . S
C54 H86 0.929 . S
C55 C56 1.358 . S
C55 C57 1.356 . S
C55 H87 0.930 . S
C56 N53 1.279 . S
C56 C55 1.358 . S
C56 H59 0.930 . S
C57 C54 1.348 . S
C57 C55 1.356 . S
H58 C52 0.930 . S
H59 C56 0.930 . S
O60 Li0 1.956 . S
O60 Li1 1.970 . S
O60 Li2 1.961 . S
O60 C4 1.325 . S
O61 Li0 1.970 . S
O61 Li1 1.956 . S
O61 Li3 1.961 . S
O61 C10 1.325 . S
O62 Li0 1.961 . S
O62 Li2 1.956 . S
O62 Li3 1.970 . S
O62 C32 1.325 . S
O63 Li1 1.961 . S
O63 Li2 1.970 . S
O63 Li3 1.956 . S
O63 C38 1.325 . S
H64 C6 0.929 . S
H65 C7 0.930 . S
H66 C8 0.930 . S
H67 C9 0.930 . S
H68 C11 0.930 . S
H69 C13 0.929 . S
H70 C14 0.930 . S
H71 C15 0.930 . S
H72 C18 0.930 . S
H73 C21 0.929 . S
H74 C26 0.929 . S
H75 C27 0.930 . S
H76 C34 0.929 . S
H77 C35 0.930 . S
H78 C36 0.930 . S
H79 C37 0.930 . S
H80 C39 0.929 . S
H81 C40 0.930 . S
H82 C41 0.930 . S
H83 C42 0.930 . S
H84 C46 0.929 . S
H85 C48 0.930 . S
H86 C54 0.929 . S
H87 C55 0.930 . S
Li88 N105 1.990 . S
Li88 O148 1.956 . S
Li88 O149 1.970 . S
Li88 O150 1.961 . S
Li89 N113 1.990 . S
Li89 O148 1.970 . S
Li89 O149 1.956 . S
Li89 O151 1.961 . S
Li90 N135 1.990 . S
Li90 O148 1.961 . S
Li90 O150 1.956 . S
Li90 O151 1.970 . S
Li91 N141 1.990 . S
Li91 O149 1.961 . S
Li91 O150 1.970 . S
Li91 O151 1.956 . S
C92 C94 1.348 . S
C92 C95 1.356 . S
C92 O148 1.325 . S
N93 C96 1.314 . S
N93 C97 1.279 . S
C94 C92 1.348 . S
C94 C96 1.353 . S
C94 H152 0.929 . S
C95 C92 1.356 . S
C95 C97 1.358 . S
C95 H153 0.930 . S
C96 N93 1.314 . S
C96 C94 1.353 . S
C96 H154 0.930 . S
C97 N93 1.279 . S
C97 C95 1.358 . S
C97 H155 0.930 . S
C98 C101 1.348 . S
C98 C102 1.356 . S
C98 O149 1.325 . S
C99 N100 1.279 . S
C99 C102 1.358 . S
C99 H156 0.930 . S
N100 C99 1.279 . S
N100 C103 1.314 . S
C101 C98 1.348 . S
C101 C103 1.353 . S
C101 H157 0.929 . S
C102 C98 1.356 . S
C102 C99 1.358 . S
C102 H158 0.930 . S
C103 N100 1.314 . S
C103 C101 1.353 . S
C103 H159 0.930 . S
C104 N105 1.314 . S
C104 C109 1.353 . S
C104 H110 0.930 . S
N105 Li88 1.990 . S
N105 C104 1.314 . S
N105 C107 1.279 . S
C106 C107 1.358 . S
C106 C108 1.356 . S
C106 H160 0.930 . S
C107 N105 1.279 . S
C107 C106 1.358 . S
C107 H111 0.930 . S
C108 C106 1.356 . S
C108 C109 1.348 . S
C109 C104 1.353 . S
C109 C108 1.348 . S
C109 H161 0.929 . S
H110 C104 0.930 . S
H111 C107 0.930 . S
C112 N113 1.314 . S
C112 C114 1.353 . S
C112 H118 0.930 . S
N113 Li89 1.990 . S
N113 C112 1.314 . S
N113 C116 1.279 . S
C114 C112 1.353 . S
C114 C117 1.348 . S
C114 H162 0.929 . S
C115 C116 1.358 . S
C115 C117 1.356 . S
C115 H163 0.930 . S
C116 N113 1.279 . S
C116 C115 1.358 . S
C116 H119 0.930 . S
C117 C114 1.348 . S
C117 C115 1.356 . S
H118 C112 0.930 . S
H119 C116 0.930 . S
C120 C122 1.348 . S
C120 C123 1.356 . S
C120 O150 1.325 . S
N121 C124 1.314 . S
N121 C125 1.279 . S
C122 C120 1.348 . S
C122 C124 1.353 . S
C122 H164 0.929 . S
C123 C120 1.356 . S
C123 C125 1.358 . S
C123 H165 0.930 . S
C124 N121 1.314 . S
C124 C122 1.353 . S
C124 H166 0.930 . S
C125 N121 1.279 . S
C125 C123 1.358 . S
C125 H167 0.930 . S
C126 C127 1.348 . S
C126 C128 1.356 . S
C126 O151 1.325 . S
C127 C126 1.348 . S
C127 C129 1.353 . S
C127 H168 0.929 . S
C128 C126 1.356 . S
C128 C130 1.358 . S
C128 H169 0.930 . S
C129 C127 1.353 . S
C129 N131 1.314 . S
C129 H170 0.930 . S
C130 C128 1.358 . S
C130 N131 1.279 . S
C130 H171 0.930 . S
N131 C129 1.314 . S
N131 C130 1.279 . S
C132 C134 1.353 . S
C132 N135 1.314 . S
C132 H138 0.930 . S
C133 N135 1.279 . S
C133 C136 1.358 . S
C133 H139 0.930 . S
C134 C132 1.353 . S
C134 C137 1.348 . S
C134 H172 0.929 . S
N135 Li90 1.990 . S
N135 C132 1.314 . S
N135 C133 1.279 . S
C136 C133 1.358 . S
C136 C137 1.356 . S
C136 H173 0.930 . S
C137 C134 1.348 . S
C137 C136 1.356 . S
H138 C132 0.930 . S
H139 C133 0.930 . S
C140 N141 1.314 . S
C140 C142 1.353 . S
C140 H146 0.930 . S
N141 Li91 1.990 . S
N141 C140 1.314 . S
N141 C144 1.279 . S
C142 C140 1.353 . S
C142 C145 1.348 . S
C142 H174 0.929 . S
C143 C144 1.358 . S
C143 C145 1.356 . S
C143 H175 0.930 . S
C144 N141 1.279 . S
C144 C143 1.358 . S
C144 H147 0.930 . S
C145 C142 1.348 . S
C145 C143 1.356 . S
H146 C140 0.930 . S
H147 C144 0.930 . S
O148 Li88 1.956 . S
O148 Li89 1.970 . S
O148 Li90 1.961 . S
O148 C92 1.325 . S
O149 Li88 1.970 . S
O149 Li89 1.956 . S
O149 Li91 1.961 . S
O149 C98 1.325 . S
O150 Li88 1.961 . S
O150 Li90 1.956 . S
O150 Li91 1.970 . S
O150 C120 1.325 . S
O151 Li89 1.961 . S
O151 Li90 1.970 . S
O151 Li91 1.956 . S
O151 C126 1.325 . S
H152 C94 0.929 . S
H153 C95 0.930 . S
H154 C96 0.930 . S
H155 C97 0.930 . S
H156 C99 0.930 . S
H157 C101 0.929 . S
H158 C102 0.930 . S
H159 C103 0.930 . S
H160 C106 0.930 . S
H161 C109 0.929 . S
H162 C114 0.929 . S
H163 C115 0.930 . S
H164 C122 0.929 . S
H165 C123 0.930 . S
H166 C124 0.930 . S
H167 C125 0.930 . S
H168 C127 0.929 . S
H169 C128 0.930 . S
H170 C129 0.930 . S
H171 C130 0.930 . S
H172 C134 0.929 . S
H173 C136 0.930 . S
H174 C142 0.929 . S
H175 C143 0.930 . S
Li176 N193 1.990 . S
Li176 O236 1.956 . S
Li176 O237 1.970 . S
Li176 O238 1.961 . S
Li177 N201 1.990 . S
Li177 O236 1.970 . S
Li177 O237 1.956 . S
Li177 O239 1.961 . S
Li178 N223 1.990 . S
Li178 O236 1.961 . S
Li178 O238 1.956 . S
Li178 O239 1.970 . S
Li179 N229 1.990 . S
Li179 O237 1.961 . S
Li179 O238 1.970 . S
Li179 O239 1.956 . S
C180 C182 1.348 . S
C180 C183 1.356 . S
C180 O236 1.325 . S
N181 C184 1.314 . S
N181 C185 1.279 . S
C182 C180 1.348 . S
C182 C184 1.353 . S
C182 H240 0.929 . S
C183 C180 1.356 . S
C183 C185 1.358 . S
C183 H241 0.930 . S
C184 N181 1.314 . S
C184 C182 1.353 . S
C184 H242 0.930 . S
C185 N181 1.279 . S
C185 C183 1.358 . S
C185 H243 0.930 . S
C186 C189 1.348 . S
C186 C190 1.356 . S
C186 O237 1.325 . S
C187 N188 1.279 . S
C187 C190 1.358 . S
C187 H244 0.930 . S
N188 C187 1.279 . S
N188 C191 1.314 . S
C189 C186 1.348 . S
C189 C191 1.353 . S
C189 H245 0.929 . S
C190 C186 1.356 . S
C190 C187 1.358 . S
C190 H246 0.930 . S
C191 N188 1.314 . S
C191 C189 1.353 . S
C191 H247 0.930 . S
C192 N193 1.314 . S
C192 C197 1.353 . S
C192 H198 0.930 . S
N193 Li176 1.990 . S
N193 C192 1.314 . S
N193 C195 1.279 . S
C194 C195 1.358 . S
C194 C196 1.356 . S
C194 H248 0.930 . S
C195 N193 1.279 . S
C195 C194 1.358 . S
C195 H199 0.930 . S
C196 C194 1.356 . S
C196 C197 1.348 . S
C197 C192 1.353 . S
C197 C196 1.348 . S
C197 H249 0.929 . S
H198 C192 0.930 . S
H199 C195 0.930 . S
C200 N201 1.314 . S
C200 C202 1.353 . S
C200 H206 0.930 . S
N201 Li177 1.990 . S
N201 C200 1.314 . S
N201 C204 1.279 . S
C202 C200 1.353 . S
C202 C205 1.348 . S
C202 H250 0.929 . S
C203 C204 1.358 . S
C203 C205 1.356 . S
C203 H251 0.930 . S
C204 N201 1.279 . S
C204 C203 1.358 . S
C204 H207 0.930 . S
C205 C202 1.348 . S
C205 C203 1.356 . S
H206 C200 0.930 . S
H207 C204 0.930 . S
C208 C210 1.348 . S
C208 C211 1.356 . S
C208 O238 1.325 . S
N209 C212 1.314 . S
N209 C213 1.279 . S
C210 C208 1.348 . S
C210 C212 1.353 1_554 S
C210 H252 0.929 . S
C211 C208 1.356 . S
C211 C213 1.358 1_554 S
C211 H253 0.930 . S
C212 N209 1.314 . S
C212 C210 1.353 1_556 S
C212 H254 0.930 . S
C213 N209 1.279 . S
C213 C211 1.358 1_556 S
C213 H255 0.930 . S
C214 C215 1.348 . S
C214 C216 1.356 . S
C214 O239 1.325 . S
C215 C214 1.348 . S
C215 C217 1.353 . S
C215 H256 0.929 . S
C216 C214 1.356 . S
C216 C218 1.358 . S
C216 H257 0.930 . S
C217 C215 1.353 . S
C217 N219 1.314 . S
C217 H258 0.930 . S
C218 C216 1.358 . S
C218 N219 1.279 . S
C218 H259 0.930 . S
N219 C217 1.314 . S
N219 C218 1.279 . S
C220 C222 1.353 . S
C220 N223 1.314 . S
C220 H226 0.930 . S
C221 N223 1.279 . S
C221 C224 1.358 . S
C221 H227 0.930 . S
C222 C220 1.353 . S
C222 C225 1.348 . S
C222 H260 0.929 . S
N223 Li178 1.990 . S
N223 C220 1.314 . S
N223 C221 1.279 . S
C224 C221 1.358 . S
C224 C225 1.356 . S
C224 H261 0.930 . S
C225 C222 1.348 . S
C225 C224 1.356 . S
H226 C220 0.930 . S
H227 C221 0.930 . S
C228 N229 1.314 . S
C228 C230 1.353 . S
C228 H234 0.930 . S
N229 Li179 1.990 . S
N229 C228 1.314 . S
N229 C232 1.279 . S
C230 C228 1.353 . S
C230 C233 1.348 . S
C230 H262 0.929 . S
C231 C232 1.358 . S
C231 C233 1.356 . S
C231 H263 0.930 . S
C232 N229 1.279 . S
C232 C231 1.358 . S
C232 H235 0.930 . S
C233 C230 1.348 . S
C233 C231 1.356 . S
H234 C228 0.930 . S
H235 C232 0.930 . S
O236 Li176 1.956 . S
O236 Li177 1.970 . S
O236 Li178 1.961 . S
O236 C180 1.325 . S
O237 Li176 1.970 . S
O237 Li177 1.956 . S
O237 Li179 1.961 . S
O237 C186 1.325 . S
O238 Li176 1.961 . S
O238 Li178 1.956 . S
O238 Li179 1.970 . S
O238 C208 1.325 . S
O239 Li177 1.961 . S
O239 Li178 1.970 . S
O239 Li179 1.956 . S
O239 C214 1.325 . S
H240 C182 0.929 . S
H241 C183 0.930 . S
H242 C184 0.930 . S
H243 C185 0.930 . S
H244 C187 0.930 . S
H245 C189 0.929 . S
H246 C190 0.930 . S
H247 C191 0.930 . S
H248 C194 0.930 . S
H249 C197 0.929 . S
H250 C202 0.929 . S
H251 C203 0.930 . S
H252 C210 0.929 . S
H253 C211 0.930 . S
H254 C212 0.930 . S
H255 C213 0.930 . S
H256 C215 0.929 . S
H257 C216 0.930 . S
H258 C217 0.930 . S
H259 C218 0.930 . S
H260 C222 0.929 . S
H261 C224 0.930 . S
H262 C230 0.929 . S
H263 C231 0.930 . S
Li264 N281 1.990 . S
Li264 O324 1.956 . S
Li264 O325 1.970 . S
Li264 O326 1.961 . S
Li265 N289 1.990 . S
Li265 O324 1.970 . S
Li265 O325 1.956 . S
Li265 O327 1.961 . S
Li266 N311 1.990 . S
Li266 O324 1.961 . S
Li266 O326 1.956 . S
Li266 O327 1.970 . S
Li267 N317 1.990 . S
Li267 O325 1.961 . S
Li267 O326 1.970 . S
Li267 O327 1.956 . S
C268 C270 1.348 . S
C268 C271 1.356 . S
C268 O324 1.325 . S
N269 C272 1.314 . S
N269 C273 1.279 . S
C270 C268 1.348 . S
C270 C272 1.353 . S
C270 H328 0.929 . S
C271 C268 1.356 . S
C271 C273 1.358 . S
C271 H329 0.930 . S
C272 N269 1.314 . S
C272 C270 1.353 . S
C272 H330 0.930 . S
C273 N269 1.279 . S
C273 C271 1.358 . S
C273 H331 0.930 . S
C274 C277 1.348 . S
C274 C278 1.356 . S
C274 O325 1.325 . S
C275 N276 1.279 . S
C275 C278 1.358 . S
C275 H332 0.930 . S
N276 C275 1.279 . S
N276 C279 1.314 . S
C277 C274 1.348 . S
C277 C279 1.353 . S
C277 H333 0.929 . S
C278 C274 1.356 . S
C278 C275 1.358 . S
C278 H334 0.930 . S
C279 N276 1.314 . S
C279 C277 1.353 . S
C279 H335 0.930 . S
C280 N281 1.314 . S
C280 C285 1.353 . S
C280 H286 0.930 . S
N281 Li264 1.990 . S
N281 C280 1.314 . S
N281 C283 1.279 . S
C282 C283 1.358 . S
C282 C284 1.356 . S
C282 H336 0.930 . S
C283 N281 1.279 . S
C283 C282 1.358 . S
C283 H287 0.930 . S
C284 C282 1.356 . S
C284 C285 1.348 . S
C285 C280 1.353 . S
C285 C284 1.348 . S
C285 H337 0.929 . S
H286 C280 0.930 . S
H287 C283 0.930 . S
C288 N289 1.314 . S
C288 C290 1.353 . S
C288 H294 0.930 . S
N289 Li265 1.990 . S
N289 C288 1.314 . S
N289 C292 1.279 . S
C290 C288 1.353 . S
C290 C293 1.348 . S
C290 H338 0.929 . S
C291 C292 1.358 . S
C291 C293 1.356 . S
C291 H339 0.930 . S
C292 N289 1.279 . S
C292 C291 1.358 . S
C292 H295 0.930 . S
C293 C290 1.348 . S
C293 C291 1.356 . S
H294 C288 0.930 . S
H295 C292 0.930 . S
C296 C298 1.348 . S
C296 C299 1.356 . S
C296 O326 1.325 . S
N297 C300 1.314 . S
N297 C301 1.279 . S
C298 C296 1.348 . S
C298 C300 1.353 . S
C298 H340 0.929 . S
C299 C296 1.356 . S
C299 C301 1.358 . S
C299 H341 0.930 . S
C300 N297 1.314 . S
C300 C298 1.353 . S
C300 H342 0.930 . S
C301 N297 1.279 . S
C301 C299 1.358 . S
C301 H343 0.930 . S
C302 C303 1.348 . S
C302 C304 1.356 . S
C302 O327 1.325 . S
C303 C302 1.348 . S
C303 C305 1.353 . S
C303 H344 0.929 . S
C304 C302 1.356 . S
C304 C306 1.358 . S
C304 H345 0.930 . S
C305 C303 1.353 . S
C305 N307 1.314 . S
C305 H346 0.930 . S
C306 C304 1.358 . S
C306 N307 1.279 . S
C306 H347 0.930 . S
N307 C305 1.314 . S
N307 C306 1.279 . S
C308 C310 1.353 . S
C308 N311 1.314 . S
C308 H314 0.930 . S
C309 N311 1.279 . S
C309 C312 1.358 . S
C309 H315 0.930 . S
C310 C308 1.353 . S
C310 C313 1.348 . S
C310 H348 0.929 . S
N311 Li266 1.990 . S
N311 C308 1.314 . S
N311 C309 1.279 . S
C312 C309 1.358 . S
C312 C313 1.356 . S
C312 H349 0.930 . S
C313 C310 1.348 . S
C313 C312 1.356 . S
H314 C308 0.930 . S
H315 C309 0.930 . S
C316 N317 1.314 . S
C316 C318 1.353 . S
C316 H322 0.930 . S
N317 Li267 1.990 . S
N317 C316 1.314 . S
N317 C320 1.279 . S
C318 C316 1.353 . S
C318 C321 1.348 . S
C318 H350 0.929 . S
C319 C320 1.358 . S
C319 C321 1.356 . S
C319 H351 0.930 . S
C320 N317 1.279 . S
C320 C319 1.358 . S
C320 H323 0.930 . S
C321 C318 1.348 . S
C321 C319 1.356 . S
H322 C316 0.930 . S
H323 C320 0.930 . S
O324 Li264 1.956 . S
O324 Li265 1.970 . S
O324 Li266 1.961 . S
O324 C268 1.325 . S
O325 Li264 1.970 . S
O325 Li265 1.956 . S
O325 Li267 1.961 . S
O325 C274 1.325 . S
O326 Li264 1.961 . S
O326 Li266 1.956 . S
O326 Li267 1.970 . S
O326 C296 1.325 . S
O327 Li265 1.961 . S
O327 Li266 1.970 . S
O327 Li267 1.956 . S
O327 C302 1.325 . S
H328 C270 0.929 . S
H329 C271 0.930 . S
H330 C272 0.930 . S
H331 C273 0.930 . S
H332 C275 0.930 . S
H333 C277 0.929 . S
H334 C278 0.930 . S
H335 C279 0.930 . S
H336 C282 0.930 . S
H337 C285 0.929 . S
H338 C290 0.929 . S
H339 C291 0.930 . S
H340 C298 0.929 . S
H341 C299 0.930 . S
H342 C300 0.930 . S
H343 C301 0.930 . S
H344 C303 0.929 . S
H345 C304 0.930 . S
H346 C305 0.930 . S
H347 C306 0.930 . S
H348 C310 0.929 . S
H349 C312 0.930 . S
H350 C318 0.929 . S
H351 C319 0.930 . S
Li352 N369 1.990 . S
Li352 O412 1.956 . S
Li352 O413 1.970 . S
Li352 O414 1.961 . S
Li353 N377 1.990 . S
Li353 O412 1.970 . S
Li353 O413 1.956 . S
Li353 O415 1.961 . S
Li354 N399 1.990 . S
Li354 O412 1.961 . S
Li354 O414 1.956 . S
Li354 O415 1.970 . S
Li355 N405 1.990 . S
Li355 O413 1.961 . S
Li355 O414 1.970 . S
Li355 O415 1.956 . S
C356 C358 1.348 . S
C356 C359 1.356 . S
C356 O412 1.325 . S
N357 C360 1.314 . S
N357 C361 1.279 . S
C358 C356 1.348 . S
C358 C360 1.353 . S
C358 H416 0.929 . S
C359 C356 1.356 . S
C359 C361 1.358 . S
C359 H417 0.930 . S
C360 N357 1.314 . S
C360 C358 1.353 . S
C360 H418 0.930 . S
C361 N357 1.279 . S
C361 C359 1.358 . S
C361 H419 0.930 . S
C362 C365 1.348 . S
C362 C366 1.356 . S
C362 O413 1.325 . S
C363 N364 1.279 . S
C363 C366 1.358 . S
C363 H420 0.930 . S
N364 C363 1.279 . S
N364 C367 1.314 . S
C365 C362 1.348 . S
C365 C367 1.353 . S
C365 H421 0.929 . S
C366 C362 1.356 . S
C366 C363 1.358 . S
C366 H422 0.930 . S
C367 N364 1.314 . S
C367 C365 1.353 . S
C367 H423 0.930 . S
C368 N369 1.314 . S
C368 C373 1.353 . S
C368 H374 0.930 . S
N369 Li352 1.990 . S
N369 C368 1.314 . S
N369 C371 1.279 . S
C370 C371 1.358 . S
C370 C372 1.356 . S
C370 H424 0.930 . S
C371 N369 1.279 . S
C371 C370 1.358 . S
C371 H375 0.930 . S
C372 C370 1.356 . S
C372 C373 1.348 . S
C373 C368 1.353 . S
C373 C372 1.348 . S
C373 H425 0.929 . S
H374 C368 0.930 . S
H375 C371 0.930 . S
C376 N377 1.314 . S
C376 C378 1.353 . S
C376 H382 0.930 . S
N377 Li353 1.990 . S
N377 C376 1.314 . S
N377 C380 1.279 . S
C378 C376 1.353 . S
C378 C381 1.348 . S
C378 H426 0.929 . S
C379 C380 1.358 . S
C379 C381 1.356 . S
C379 H427 0.930 . S
C380 N377 1.279 . S
C380 C379 1.358 . S
C380 H383 0.930 . S
C381 C378 1.348 . S
C381 C379 1.356 . S
H382 C376 0.930 . S
H383 C380 0.930 . S
C384 C386 1.348 . S
C384 C387 1.356 . S
C384 O414 1.325 . S
N385 C388 1.314 . S
N385 C389 1.279 . S
C386 C384 1.348 . S
C386 C388 1.353 . S
C386 H428 0.929 . S
C387 C384 1.356 . S
C387 C389 1.358 . S
C387 H429 0.930 . S
C388 N385 1.314 . S
C388 C386 1.353 . S
C388 H430 0.930 . S
C389 N385 1.279 . S
C389 C387 1.358 . S
C389 H431 0.930 . S
C390 C391 1.348 . S
C390 C392 1.356 . S
C390 O415 1.325 . S
C391 C390 1.348 . S
C391 C393 1.353 1_554 S
C391 H432 0.929 . S
C392 C390 1.356 . S
C392 C394 1.358 1_554 S
C392 H433 0.930 . S
C393 C391 1.353 1_556 S
C393 N395 1.314 . S
C393 H434 0.930 . S
C394 C392 1.358 1_556 S
C394 N395 1.279 . S
C394 H435 0.930 . S
N395 C393 1.314 . S
N395 C394 1.279 . S
C396 C398 1.353 . S
C396 N399 1.314 . S
C396 H402 0.930 . S
C397 N399 1.279 . S
C397 C400 1.358 . S
C397 H403 0.930 . S
C398 C396 1.353 . S
C398 C401 1.348 . S
C398 H436 0.929 . S
N399 Li354 1.990 . S
N399 C396 1.314 . S
N399 C397 1.279 . S
C400 C397 1.358 . S
C400 C401 1.356 . S
C400 H437 0.930 . S
C401 C398 1.348 . S
C401 C400 1.356 . S
H402 C396 0.930 . S
H403 C397 0.930 . S
C404 N405 1.314 . S
C404 C406 1.353 . S
C404 H410 0.930 . S
N405 Li355 1.990 . S
N405 C404 1.314 . S
N405 C408 1.279 . S
C406 C404 1.353 . S
C406 C409 1.348 . S
C406 H438 0.929 . S
C407 C408 1.358 . S
C407 C409 1.356 . S
C407 H439 0.930 . S
C408 N405 1.279 . S
C408 C407 1.358 . S
C408 H411 0.930 . S
C409 C406 1.348 . S
C409 C407 1.356 . S
H410 C404 0.930 . S
H411 C408 0.930 . S
O412 Li352 1.956 . S
O412 Li353 1.970 . S
O412 Li354 1.961 . S
O412 C356 1.325 . S
O413 Li352 1.970 . S
O413 Li353 1.956 . S
O413 Li355 1.961 . S
O413 C362 1.325 . S
O414 Li352 1.961 . S
O414 Li354 1.956 . S
O414 Li355 1.970 . S
O414 C384 1.325 . S
O415 Li353 1.961 . S
O415 Li354 1.970 . S
O415 Li355 1.956 . S
O415 C390 1.325 . S
H416 C358 0.929 . S
H417 C359 0.930 . S
H418 C360 0.930 . S
H419 C361 0.930 . S
H420 C363 0.930 . S
H421 C365 0.929 . S
H422 C366 0.930 . S
H423 C367 0.930 . S
H424 C370 0.930 . S
H425 C373 0.929 . S
H426 C378 0.929 . S
H427 C379 0.930 . S
H428 C386 0.929 . S
H429 C387 0.930 . S
H430 C388 0.930 . S
H431 C389 0.930 . S
H432 C391 0.929 . S
H433 C392 0.930 . S
H434 C393 0.930 . S
H435 C394 0.930 . S
H436 C398 0.929 . S
H437 C400 0.930 . S
H438 C406 0.929 . S
H439 C407 0.930 . S
Li440 N457 1.990 . S
Li440 O500 1.956 . S
Li440 O501 1.970 . S
Li440 O502 1.961 . S
Li441 N465 1.990 . S
Li441 O500 1.970 . S
Li441 O501 1.956 . S
Li441 O503 1.961 . S
Li442 N487 1.990 . S
Li442 O500 1.961 . S
Li442 O502 1.956 . S
Li442 O503 1.970 . S
Li443 N493 1.990 . S
Li443 O501 1.961 . S
Li443 O502 1.970 . S
Li443 O503 1.956 . S
C444 C446 1.348 . S
C444 C447 1.356 . S
C444 O500 1.325 . S
N445 C448 1.314 . S
N445 C449 1.279 . S
C446 C444 1.348 . S
C446 C448 1.353 . S
C446 H504 0.929 . S
C447 C444 1.356 . S
C447 C449 1.358 . S
C447 H505 0.930 . S
C448 N445 1.314 . S
C448 C446 1.353 . S
C448 H506 0.930 . S
C449 N445 1.279 . S
C449 C447 1.358 . S
C449 H507 0.930 . S
C450 C453 1.348 . S
C450 C454 1.356 . S
C450 O501 1.325 . S
C451 N452 1.279 . S
C451 C454 1.358 . S
C451 H508 0.930 . S
N452 C451 1.279 . S
N452 C455 1.314 . S
C453 C450 1.348 . S
C453 C455 1.353 . S
C453 H509 0.929 . S
C454 C450 1.356 . S
C454 C451 1.358 . S
C454 H510 0.930 . S
C455 N452 1.314 . S
C455 C453 1.353 . S
C455 H511 0.930 . S
C456 N457 1.314 . S
C456 C461 1.353 . S
C456 H462 0.930 . S
N457 Li440 1.990 . S
N457 C456 1.314 . S
N457 C459 1.279 . S
C458 C459 1.358 . S
C458 C460 1.356 . S
C458 H512 0.930 . S
C459 N457 1.279 . S
C459 C458 1.358 . S
C459 H463 0.930 . S
C460 C458 1.356 . S
C460 C461 1.348 . S
C461 C456 1.353 . S
C461 C460 1.348 . S
C461 H513 0.929 . S
H462 C456 0.930 . S
H463 C459 0.930 . S
C464 N465 1.314 . S
C464 C466 1.353 . S
C464 H470 0.930 . S
N465 Li441 1.990 . S
N465 C464 1.314 . S
N465 C468 1.279 . S
C466 C464 1.353 . S
C466 C469 1.348 . S
C466 H514 0.929 . S
C467 C468 1.358 . S
C467 C469 1.356 . S
C467 H515 0.930 . S
C468 N465 1.279 . S
C468 C467 1.358 . S
C468 H471 0.930 . S
C469 C466 1.348 . S
C469 C467 1.356 . S
H470 C464 0.930 . S
H471 C468 0.930 . S
C472 C474 1.348 . S
C472 C475 1.356 . S
C472 O502 1.325 . S
N473 C476 1.314 . S
N473 C477 1.279 . S
C474 C472 1.348 . S
C474 C476 1.353 . S
C474 H516 0.929 . S
C475 C472 1.356 . S
C475 C477 1.358 . S
C475 H517 0.930 . S
C476 N473 1.314 . S
C476 C474 1.353 . S
C476 H518 0.930 . S
C477 N473 1.279 . S
C477 C475 1.358 . S
C477 H519 0.930 . S
C478 C479 1.348 . S
C478 C480 1.356 . S
C478 O503 1.325 . S
C479 C478 1.348 . S
C479 C481 1.353 . S
C479 H520 0.929 . S
C480 C478 1.356 . S
C480 C482 1.358 . S
C480 H521 0.930 . S
C481 C479 1.353 . S
C481 N483 1.314 . S
C481 H522 0.930 . S
C482 C480 1.358 . S
C482 N483 1.279 . S
C482 H523 0.930 . S
N483 C481 1.314 . S
N483 C482 1.279 . S
C484 C486 1.353 . S
C484 N487 1.314 . S
C484 H490 0.930 . S
C485 N487 1.279 . S
C485 C488 1.358 . S
C485 H491 0.930 . S
C486 C484 1.353 . S
C486 C489 1.348 . S
C486 H524 0.929 . S
N487 Li442 1.990 . S
N487 C484 1.314 . S
N487 C485 1.279 . S
C488 C485 1.358 . S
C488 C489 1.356 . S
C488 H525 0.930 . S
C489 C486 1.348 . S
C489 C488 1.356 . S
H490 C484 0.930 . S
H491 C485 0.930 . S
C492 N493 1.314 . S
C492 C494 1.353 . S
C492 H498 0.930 . S
N493 Li443 1.990 . S
N493 C492 1.314 . S
N493 C496 1.279 . S
C494 C492 1.353 . S
C494 C497 1.348 . S
C494 H526 0.929 . S
C495 C496 1.358 . S
C495 C497 1.356 . S
C495 H527 0.930 . S
C496 N493 1.279 . S
C496 C495 1.358 . S
C496 H499 0.930 . S
C497 C494 1.348 . S
C497 C495 1.356 . S
H498 C492 0.930 . S
H499 C496 0.930 . S
O500 Li440 1.956 . S
O500 Li441 1.970 . S
O500 Li442 1.961 . S
O500 C444 1.325 . S
O501 Li440 1.970 . S
O501 Li441 1.956 . S
O501 Li443 1.961 . S
O501 C450 1.325 . S
O502 Li440 1.961 . S
O502 Li442 1.956 . S
O502 Li443 1.970 . S
O502 C472 1.325 . S
O503 Li441 1.961 . S
O503 Li442 1.970 . S
O503 Li443 1.956 . S
O503 C478 1.325 . S
H504 C446 0.929 . S
H505 C447 0.930 . S
H506 C448 0.930 . S
H507 C449 0.930 . S
H508 C451 0.930 . S
H509 C453 0.929 . S
H510 C454 0.930 . S
H511 C455 0.930 . S
H512 C458 0.930 . S
H513 C461 0.929 . S
H514 C466 0.929 . S
H515 C467 0.930 . S
H516 C474 0.929 . S
H517 C475 0.930 . S
H518 C476 0.930 . S
H519 C477 0.930 . S
H520 C479 0.929 . S
H521 C480 0.930 . S
H522 C481 0.930 . S
H523 C482 0.930 . S
H524 C486 0.929 . S
H525 C488 0.930 . S
H526 C494 0.929 . S
H527 C495 0.930 . S
Li528 N545 1.990 . S
Li528 O588 1.956 . S
Li528 O589 1.970 . S
Li528 O590 1.961 . S
Li529 N553 1.990 . S
Li529 O588 1.970 . S
Li529 O589 1.956 . S
Li529 O591 1.961 . S
Li530 N575 1.990 . S
Li530 O588 1.961 . S
Li530 O590 1.956 . S
Li530 O591 1.970 . S
Li531 N581 1.990 . S
Li531 O589 1.961 . S
Li531 O590 1.970 . S
Li531 O591 1.956 . S
C532 C534 1.348 . S
C532 C535 1.356 . S
C532 O588 1.325 . S
N533 C536 1.314 . S
N533 C537 1.279 . S
C534 C532 1.348 . S
C534 C536 1.353 . S
C534 H592 0.929 . S
C535 C532 1.356 . S
C535 C537 1.358 . S
C535 H593 0.930 . S
C536 N533 1.314 . S
C536 C534 1.353 . S
C536 H594 0.930 . S
C537 N533 1.279 . S
C537 C535 1.358 . S
C537 H595 0.930 . S
C538 C541 1.348 . S
C538 C542 1.356 . S
C538 O589 1.325 . S
C539 N540 1.279 . S
C539 C542 1.358 1_554 S
C539 H596 0.930 . S
N540 C539 1.279 . S
N540 C543 1.314 . S
C541 C538 1.348 . S
C541 C543 1.353 1_556 S
C541 H597 0.929 . S
C542 C538 1.356 . S
C542 C539 1.358 1_556 S
C542 H598 0.930 . S
C543 N540 1.314 . S
C543 C541 1.353 1_554 S
C543 H599 0.930 . S
C544 N545 1.314 . S
C544 C549 1.353 . S
C544 H550 0.930 . S
N545 Li528 1.990 . S
N545 C544 1.314 . S
N545 C547 1.279 . S
C546 C547 1.358 . S
C546 C548 1.356 . S
C546 H600 0.930 . S
C547 N545 1.279 . S
C547 C546 1.358 . S
C547 H551 0.930 . S
C548 C546 1.356 . S
C548 C549 1.348 . S
C549 C544 1.353 . S
C549 C548 1.348 . S
C549 H601 0.929 . S
H550 C544 0.930 . S
H551 C547 0.930 . S
C552 N553 1.314 . S
C552 C554 1.353 . S
C552 H558 0.930 . S
N553 Li529 1.990 . S
N553 C552 1.314 . S
N553 C556 1.279 . S
C554 C552 1.353 . S
C554 C557 1.348 . S
C554 H602 0.929 . S
C555 C556 1.358 . S
C555 C557 1.356 . S
C555 H603 0.930 . S
C556 N553 1.279 . S
C556 C555 1.358 . S
C556 H559 0.930 . S
C557 C554 1.348 . S
C557 C555 1.356 . S
H558 C552 0.930 . S
H559 C556 0.930 . S
C560 C562 1.348 . S
C560 C563 1.356 . S
C560 O590 1.325 . S
N561 C564 1.314 . S
N561 C565 1.279 . S
C562 C560 1.348 . S
C562 C564 1.353 . S
C562 H604 0.929 . S
C563 C560 1.356 . S
C563 C565 1.358 . S
C563 H605 0.930 . S
C564 N561 1.314 . S
C564 C562 1.353 . S
C564 H606 0.930 . S
C565 N561 1.279 . S
C565 C563 1.358 . S
C565 H607 0.930 . S
C566 C567 1.348 . S
C566 C568 1.356 . S
C566 O591 1.325 . S
C567 C566 1.348 . S
C567 C569 1.353 . S
C567 H608 0.929 . S
C568 C566 1.356 . S
C568 C570 1.358 . S
C568 H609 0.930 . S
C569 C567 1.353 . S
C569 N571 1.314 . S
C569 H610 0.930 . S
C570 C568 1.358 . S
C570 N571 1.279 . S
C570 H611 0.930 . S
N571 C569 1.314 . S
N571 C570 1.279 . S
C572 C574 1.353 . S
C572 N575 1.314 . S
C572 H578 0.930 . S
C573 N575 1.279 . S
C573 C576 1.358 . S
C573 H579 0.930 . S
C574 C572 1.353 . S
C574 C577 1.348 . S
C574 H612 0.929 . S
N575 Li530 1.990 . S
N575 C572 1.314 . S
N575 C573 1.279 . S
C576 C573 1.358 . S
C576 C577 1.356 . S
C576 H613 0.930 . S
C577 C574 1.348 . S
C577 C576 1.356 . S
H578 C572 0.930 . S
H579 C573 0.930 . S
C580 N581 1.314 . S
C580 C582 1.353 . S
C580 H586 0.930 . S
N581 Li531 1.990 . S
N581 C580 1.314 . S
N581 C584 1.279 . S
C582 C580 1.353 . S
C582 C585 1.348 . S
C582 H614 0.929 . S
C583 C584 1.358 . S
C583 C585 1.356 . S
C583 H615 0.930 . S
C584 N581 1.279 . S
C584 C583 1.358 . S
C584 H587 0.930 . S
C585 C582 1.348 . S
C585 C583 1.356 . S
H586 C580 0.930 . S
H587 C584 0.930 . S
O588 Li528 1.956 . S
O588 Li529 1.970 . S
O588 Li530 1.961 . S
O588 C532 1.325 . S
O589 Li528 1.970 . S
O589 Li529 1.956 . S
O589 Li531 1.961 . S
O589 C538 1.325 . S
O590 Li528 1.961 . S
O590 Li530 1.956 . S
O590 Li531 1.970 . S
O590 C560 1.325 . S
O591 Li529 1.961 . S
O591 Li530 1.970 . S
O591 Li531 1.956 . S
O591 C566 1.325 . S
H592 C534 0.929 . S
H593 C535 0.930 . S
H594 C536 0.930 . S
H595 C537 0.930 . S
H596 C539 0.930 . S
H597 C541 0.929 . S
H598 C542 0.930 . S
H599 C543 0.930 . S
H600 C546 0.930 . S
H601 C549 0.929 . S
H602 C554 0.929 . S
H603 C555 0.930 . S
H604 C562 0.929 . S
H605 C563 0.930 . S
H606 C564 0.930 . S
H607 C565 0.930 . S
H608 C567 0.929 . S
H609 C568 0.930 . S
H610 C569 0.930 . S
H611 C570 0.930 . S
H612 C574 0.929 . S
H613 C576 0.930 . S
H614 C582 0.929 . S
H615 C583 0.930 . S
Li616 N633 1.990 . S
Li616 O676 1.956 . S
Li616 O677 1.970 . S
Li616 O678 1.961 . S
Li617 N641 1.990 . S
Li617 O676 1.970 . S
Li617 O677 1.956 . S
Li617 O679 1.961 . S
Li618 N663 1.990 . S
Li618 O676 1.961 . S
Li618 O678 1.956 . S
Li618 O679 1.970 . S
Li619 N669 1.990 . S
Li619 O677 1.961 . S
Li619 O678 1.970 . S
Li619 O679 1.956 . S
C620 C622 1.348 . S
C620 C623 1.356 . S
C620 O676 1.325 . S
N621 C624 1.314 . S
N621 C625 1.279 . S
C622 C620 1.348 . S
C622 C624 1.353 . S
C622 H680 0.929 . S
C623 C620 1.356 . S
C623 C625 1.358 . S
C623 H681 0.930 . S
C624 N621 1.314 . S
C624 C622 1.353 . S
C624 H682 0.930 . S
C625 N621 1.279 . S
C625 C623 1.358 . S
C625 H683 0.930 . S
C626 C629 1.348 . S
C626 C630 1.356 . S
C626 O677 1.325 . S
C627 N628 1.279 . S
C627 C630 1.358 . S
C627 H684 0.930 . S
N628 C627 1.279 . S
N628 C631 1.314 . S
C629 C626 1.348 . S
C629 C631 1.353 . S
C629 H685 0.929 . S
C630 C626 1.356 . S
C630 C627 1.358 . S
C630 H686 0.930 . S
C631 N628 1.314 . S
C631 C629 1.353 . S
C631 H687 0.930 . S
C632 N633 1.314 . S
C632 C637 1.353 . S
C632 H638 0.930 . S
N633 Li616 1.990 . S
N633 C632 1.314 . S
N633 C635 1.279 . S
C634 C635 1.358 . S
C634 C636 1.356 . S
C634 H688 0.930 . S
C635 N633 1.279 . S
C635 C634 1.358 . S
C635 H639 0.930 . S
C636 C634 1.356 . S
C636 C637 1.348 . S
C637 C632 1.353 . S
C637 C636 1.348 . S
C637 H689 0.929 . S
H638 C632 0.930 . S
H639 C635 0.930 . S
C640 N641 1.314 . S
C640 C642 1.353 . S
C640 H646 0.930 . S
N641 Li617 1.990 . S
N641 C640 1.314 . S
N641 C644 1.279 . S
C642 C640 1.353 . S
C642 C645 1.348 . S
C642 H690 0.929 . S
C643 C644 1.358 . S
C643 C645 1.356 . S
C643 H691 0.930 . S
C644 N641 1.279 . S
C644 C643 1.358 . S
C644 H647 0.930 . S
C645 C642 1.348 . S
C645 C643 1.356 . S
H646 C640 0.930 . S
H647 C644 0.930 . S
C648 C650 1.348 . S
C648 C651 1.356 . S
C648 O678 1.325 . S
N649 C652 1.314 . S
N649 C653 1.279 . S
C650 C648 1.348 . S
C650 C652 1.353 . S
C650 H692 0.929 . S
C651 C648 1.356 . S
C651 C653 1.358 . S
C651 H693 0.930 . S
C652 N649 1.314 . S
C652 C650 1.353 . S
C652 H694 0.930 . S
C653 N649 1.279 . S
C653 C651 1.358 . S
C653 H695 0.930 . S
C654 C655 1.348 . S
C654 C656 1.356 . S
C654 O679 1.325 . S
C655 C654 1.348 . S
C655 C657 1.353 . S
C655 H696 0.929 . S
C656 C654 1.356 . S
C656 C658 1.358 . S
C656 H697 0.930 . S
C657 C655 1.353 . S
C657 N659 1.314 . S
C657 H698 0.930 . S
C658 C656 1.358 . S
C658 N659 1.279 . S
C658 H699 0.930 . S
N659 C657 1.314 . S
N659 C658 1.279 . S
C660 C662 1.353 . S
C660 N663 1.314 . S
C660 H666 0.930 . S
C661 N663 1.279 . S
C661 C664 1.358 . S
C661 H667 0.930 . S
C662 C660 1.353 . S
C662 C665 1.348 . S
C662 H700 0.929 . S
N663 Li618 1.990 . S
N663 C660 1.314 . S
N663 C661 1.279 . S
C664 C661 1.358 . S
C664 C665 1.356 . S
C664 H701 0.930 . S
C665 C662 1.348 . S
C665 C664 1.356 . S
H666 C660 0.930 . S
H667 C661 0.930 . S
C668 N669 1.314 . S
C668 C670 1.353 . S
C668 H674 0.930 . S
N669 Li619 1.990 . S
N669 C668 1.314 . S
N669 C672 1.279 . S
C670 C668 1.353 . S
C670 C673 1.348 . S
C670 H702 0.929 . S
C671 C672 1.358 . S
C671 C673 1.356 . S
C671 H703 0.930 . S
C672 N669 1.279 . S
C672 C671 1.358 . S
C672 H675 0.930 . S
C673 C670 1.348 . S
C673 C671 1.356 . S
H674 C668 0.930 . S
H675 C672 0.930 . S
O676 Li616 1.956 . S
O676 Li617 1.970 . S
O676 Li618 1.961 . S
O676 C620 1.325 . S
O677 Li616 1.970 . S
O677 Li617 1.956 . S
O677 Li619 1.961 . S
O677 C626 1.325 . S
O678 Li616 1.961 . S
O678 Li618 1.956 . S
O678 Li619 1.970 . S
O678 C648 1.325 . S
O679 Li617 1.961 . S
O679 Li618 1.970 . S
O679 Li619 1.956 . S
O679 C654 1.325 . S
H680 C622 0.929 . S
H681 C623 0.930 . S
H682 C624 0.930 . S
H683 C625 0.930 . S
H684 C627 0.930 . S
H685 C629 0.929 . S
H686 C630 0.930 . S
H687 C631 0.930 . S
H688 C634 0.930 . S
H689 C637 0.929 . S
H690 C642 0.929 . S
H691 C643 0.930 . S
H692 C650 0.929 . S
H693 C651 0.930 . S
H694 C652 0.930 . S
H695 C653 0.930 . S
H696 C655 0.929 . S
H697 C656 0.930 . S
H698 C657 0.930 . S
H699 C658 0.930 . S
H700 C662 0.929 . S
H701 C664 0.930 . S
H702 C670 0.929 . S
H703 C671 0.930 . S
Li704 N721 1.990 . S
Li704 O764 1.956 . S
Li704 O765 1.970 . S
Li704 O766 1.961 . S
Li705 N729 1.990 . S
Li705 O764 1.970 . S
Li705 O765 1.956 . S
Li705 O767 1.961 . S
Li706 N751 1.990 . S
Li706 O764 1.961 . S
Li706 O766 1.956 . S
Li706 O767 1.970 . S
Li707 N757 1.990 . S
Li707 O765 1.961 . S
Li707 O766 1.970 . S
Li707 O767 1.956 . S
C708 C710 1.348 . S
C708 C711 1.356 . S
C708 O764 1.325 . S
N709 C712 1.314 . S
N709 C713 1.279 . S
C710 C708 1.348 . S
C710 C712 1.353 . S
C710 H768 0.929 . S
C711 C708 1.356 . S
C711 C713 1.358 . S
C711 H769 0.930 . S
C712 N709 1.314 . S
C712 C710 1.353 . S
C712 H770 0.930 . S
C713 N709 1.279 . S
C713 C711 1.358 . S
C713 H771 0.930 . S
C714 C717 1.348 . S
C714 C718 1.356 . S
C714 O765 1.325 . S
C715 N716 1.279 . S
C715 C718 1.358 1_554 S
C715 H772 0.930 . S
N716 C715 1.279 . S
N716 C719 1.314 . S
C717 C714 1.348 . S
C717 C719 1.353 1_556 S
C717 H773 0.929 . S
C718 C714 1.356 . S
C718 C715 1.358 1_556 S
C718 H774 0.930 . S
C719 N716 1.314 . S
C719 C717 1.353 1_554 S
C719 H775 0.930 . S
C720 N721 1.314 . S
C720 C725 1.353 . S
C720 H726 0.930 . S
N721 Li704 1.990 . S
N721 C720 1.314 . S
N721 C723 1.279 . S
C722 C723 1.358 . S
C722 C724 1.356 . S
C722 H776 0.930 . S
C723 N721 1.279 . S
C723 C722 1.358 . S
C723 H727 0.930 . S
C724 C722 1.356 . S
C724 C725 1.348 . S
C725 C720 1.353 . S
C725 C724 1.348 . S
C725 H777 0.929 . S
H726 C720 0.930 . S
H727 C723 0.930 . S
C728 N729 1.314 . S
C728 C730 1.353 . S
C728 H734 0.930 . S
N729 Li705 1.990 . S
N729 C728 1.314 . S
N729 C732 1.279 . S
C730 C728 1.353 . S
C730 C733 1.348 . S
C730 H778 0.929 . S
C731 C732 1.358 . S
C731 C733 1.356 . S
C731 H779 0.930 . S
C732 N729 1.279 . S
C732 C731 1.358 . S
C732 H735 0.930 . S
C733 C730 1.348 . S
C733 C731 1.356 . S
H734 C728 0.930 . S
H735 C732 0.930 . S
C736 C738 1.348 . S
C736 C739 1.356 . S
C736 O766 1.325 . S
N737 C740 1.314 . S
N737 C741 1.279 . S
C738 C736 1.348 . S
C738 C740 1.353 . S
C738 H780 0.929 . S
C739 C736 1.356 . S
C739 C741 1.358 . S
C739 H781 0.930 . S
C740 N737 1.314 . S
C740 C738 1.353 . S
C740 H782 0.930 . S
C741 N737 1.279 . S
C741 C739 1.358 . S
C741 H783 0.930 . S
C742 C743 1.348 . S
C742 C744 1.356 . S
C742 O767 1.325 . S
C743 C742 1.348 . S
C743 C745 1.353 . S
C743 H784 0.929 . S
C744 C742 1.356 . S
C744 C746 1.358 . S
C744 H785 0.930 . S
C745 C743 1.353 . S
C745 N747 1.314 . S
C745 H786 0.930 . S
C746 C744 1.358 . S
C746 N747 1.279 . S
C746 H787 0.930 . S
N747 C745 1.314 . S
N747 C746 1.279 . S
C748 C750 1.353 . S
C748 N751 1.314 . S
C748 H754 0.930 . S
C749 N751 1.279 . S
C749 C752 1.358 . S
C749 H755 0.930 . S
C750 C748 1.353 . S
C750 C753 1.348 . S
C750 H788 0.929 . S
N751 Li706 1.990 . S
N751 C748 1.314 . S
N751 C749 1.279 . S
C752 C749 1.358 . S
C752 C753 1.356 . S
C752 H789 0.930 . S
C753 C750 1.348 . S
C753 C752 1.356 . S
H754 C748 0.930 . S
H755 C749 0.930 . S
C756 N757 1.314 . S
C756 C758 1.353 . S
C756 H762 0.930 . S
N757 Li707 1.990 . S
N757 C756 1.314 . S
N757 C760 1.279 . S
C758 C756 1.353 . S
C758 C761 1.348 . S
C758 H790 0.929 . S
C759 C760 1.358 . S
C759 C761 1.356 . S
C759 H791 0.930 . S
C760 N757 1.279 . S
C760 C759 1.358 . S
C760 H763 0.930 . S
C761 C758 1.348 . S
C761 C759 1.356 . S
H762 C756 0.930 . S
H763 C760 0.930 . S
O764 Li704 1.956 . S
O764 Li705 1.970 . S
O764 Li706 1.961 . S
O764 C708 1.325 . S
O765 Li704 1.970 . S
O765 Li705 1.956 . S
O765 Li707 1.961 . S
O765 C714 1.325 . S
O766 Li704 1.961 . S
O766 Li706 1.956 . S
O766 Li707 1.970 . S
O766 C736 1.325 . S
O767 Li705 1.961 . S
O767 Li706 1.970 . S
O767 Li707 1.956 . S
O767 C742 1.325 . S
H768 C710 0.929 . S
H769 C711 0.930 . S
H770 C712 0.930 . S
H771 C713 0.930 . S
H772 C715 0.930 . S
H773 C717 0.929 . S
H774 C718 0.930 . S
H775 C719 0.930 . S
H776 C722 0.930 . S
H777 C725 0.929 . S
H778 C730 0.929 . S
H779 C731 0.930 . S
H780 C738 0.929 . S
H781 C739 0.930 . S
H782 C740 0.930 . S
H783 C741 0.930 . S
H784 C743 0.929 . S
H785 C744 0.930 . S
H786 C745 0.930 . S
H787 C746 0.930 . S
H788 C750 0.929 . S
H789 C752 0.930 . S
H790 C758 0.929 . S
H791 C759 0.930 . S
Li792 N809 1.990 . S
Li792 O852 1.956 . S
Li792 O853 1.970 . S
Li792 O854 1.961 . S
Li793 N817 1.990 . S
Li793 O852 1.970 . S
Li793 O853 1.956 . S
Li793 O855 1.961 . S
Li794 N839 1.990 . S
Li794 O852 1.961 . S
Li794 O854 1.956 . S
Li794 O855 1.970 . S
Li795 N845 1.990 . S
Li795 O853 1.961 . S
Li795 O854 1.970 . S
Li795 O855 1.956 . S
C796 C798 1.348 . S
C796 C799 1.356 . S
C796 O852 1.325 . S
N797 C800 1.314 . S
N797 C801 1.279 . S
C798 C796 1.348 . S
C798 C800 1.353 . S
C798 H856 0.929 . S
C799 C796 1.356 . S
C799 C801 1.358 . S
C799 H857 0.930 . S
C800 N797 1.314 . S
C800 C798 1.353 . S
C800 H858 0.930 . S
C801 N797 1.279 . S
C801 C799 1.358 . S
C801 H859 0.930 . S
C802 C805 1.348 . S
C802 C806 1.356 . S
C802 O853 1.325 . S
C803 N804 1.279 . S
C803 C806 1.358 . S
C803 H860 0.930 . S
N804 C803 1.279 . S
N804 C807 1.314 . S
C805 C802 1.348 . S
C805 C807 1.353 . S
C805 H861 0.929 . S
C806 C802 1.356 . S
C806 C803 1.358 . S
C806 H862 0.930 . S
C807 N804 1.314 . S
C807 C805 1.353 . S
C807 H863 0.930 . S
C808 N809 1.314 . S
C808 C813 1.353 . S
C808 H814 0.930 . S
N809 Li792 1.990 . S
N809 C808 1.314 . S
N809 C811 1.279 . S
C810 C811 1.358 . S
C810 C812 1.356 . S
C810 H864 0.930 . S
C811 N809 1.279 . S
C811 C810 1.358 . S
C811 H815 0.930 . S
C812 C810 1.356 . S
C812 C813 1.348 . S
C813 C808 1.353 . S
C813 C812 1.348 . S
C813 H865 0.929 . S
H814 C808 0.930 . S
H815 C811 0.930 . S
C816 N817 1.314 . S
C816 C818 1.353 . S
C816 H822 0.930 . S
N817 Li793 1.990 . S
N817 C816 1.314 . S
N817 C820 1.279 . S
C818 C816 1.353 . S
C818 C821 1.348 . S
C818 H866 0.929 . S
C819 C820 1.358 . S
C819 C821 1.356 . S
C819 H867 0.930 . S
C820 N817 1.279 . S
C820 C819 1.358 . S
C820 H823 0.930 . S
C821 C818 1.348 . S
C821 C819 1.356 . S
H822 C816 0.930 . S
H823 C820 0.930 . S
C824 C826 1.348 . S
C824 C827 1.356 . S
C824 O854 1.325 . S
N825 C828 1.314 . S
N825 C829 1.279 . S
C826 C824 1.348 . S
C826 C828 1.353 . S
C826 H868 0.929 . S
C827 C824 1.356 . S
C827 C829 1.358 . S
C827 H869 0.930 . S
C828 N825 1.314 . S
C828 C826 1.353 . S
C828 H870 0.930 . S
C829 N825 1.279 . S
C829 C827 1.358 . S
C829 H871 0.930 . S
C830 C831 1.348 . S
C830 C832 1.356 . S
C830 O855 1.325 . S
C831 C830 1.348 . S
C831 C833 1.353 . S
C831 H872 0.929 . S
C832 C830 1.356 . S
C832 C834 1.358 . S
C832 H873 0.930 . S
C833 C831 1.353 . S
C833 N835 1.314 . S
C833 H874 0.930 . S
C834 C832 1.358 . S
C834 N835 1.279 . S
C834 H875 0.930 . S
N835 C833 1.314 . S
N835 C834 1.279 . S
C836 C838 1.353 . S
C836 N839 1.314 . S
C836 H842 0.930 . S
C837 N839 1.279 . S
C837 C840 1.358 . S
C837 H843 0.930 . S
C838 C836 1.353 . S
C838 C841 1.348 . S
C838 H876 0.929 . S
N839 Li794 1.990 . S
N839 C836 1.314 . S
N839 C837 1.279 . S
C840 C837 1.358 . S
C840 C841 1.356 . S
C840 H877 0.930 . S
C841 C838 1.348 . S
C841 C840 1.356 . S
H842 C836 0.930 . S
H843 C837 0.930 . S
C844 N845 1.314 . S
C844 C846 1.353 . S
C844 H850 0.930 . S
N845 Li795 1.990 . S
N845 C844 1.314 . S
N845 C848 1.279 . S
C846 C844 1.353 . S
C846 C849 1.348 . S
C846 H878 0.929 . S
C847 C848 1.358 . S
C847 C849 1.356 . S
C847 H879 0.930 . S
C848 N845 1.279 . S
C848 C847 1.358 . S
C848 H851 0.930 . S
C849 C846 1.348 . S
C849 C847 1.356 . S
H850 C844 0.930 . S
H851 C848 0.930 . S
O852 Li792 1.956 . S
O852 Li793 1.970 . S
O852 Li794 1.961 . S
O852 C796 1.325 . S
O853 Li792 1.970 . S
O853 Li793 1.956 . S
O853 Li795 1.961 . S
O853 C802 1.325 . S
O854 Li792 1.961 . S
O854 Li794 1.956 . S
O854 Li795 1.970 . S
O854 C824 1.325 . S
O855 Li793 1.961 . S
O855 Li794 1.970 . S
O855 Li795 1.956 . S
O855 C830 1.325 . S
H856 C798 0.929 . S
H857 C799 0.930 . S
H858 C800 0.930 . S
H859 C801 0.930 . S
H860 C803 0.930 . S
H861 C805 0.929 . S
H862 C806 0.930 . S
H863 C807 0.930 . S
H864 C810 0.930 . S
H865 C813 0.929 . S
H866 C818 0.929 . S
H867 C819 0.930 . S
H868 C826 0.929 . S
H869 C827 0.930 . S
H870 C828 0.930 . S
H871 C829 0.930 . S
H872 C831 0.929 . S
H873 C832 0.930 . S
H874 C833 0.930 . S
H875 C834 0.930 . S
H876 C838 0.929 . S
H877 C840 0.930 . S
H878 C846 0.929 . S
H879 C847 0.930 . S
Li880 N897 1.990 . S
Li880 O940 1.956 . S
Li880 O941 1.970 . S
Li880 O942 1.961 . S
Li881 N905 1.990 . S
Li881 O940 1.970 . S
Li881 O941 1.956 . S
Li881 O943 1.961 . S
Li882 N927 1.990 . S
Li882 O940 1.961 . S
Li882 O942 1.956 . S
Li882 O943 1.970 . S
Li883 N933 1.990 . S
Li883 O941 1.961 . S
Li883 O942 1.970 . S
Li883 O943 1.956 . S
C884 C886 1.348 . S
C884 C887 1.356 . S
C884 O940 1.325 . S
N885 C888 1.314 . S
N885 C889 1.279 . S
C886 C884 1.348 . S
C886 C888 1.353 . S
C886 H944 0.929 . S
C887 C884 1.356 . S
C887 C889 1.358 . S
C887 H945 0.930 . S
C888 N885 1.314 . S
C888 C886 1.353 . S
C888 H946 0.930 . S
C889 N885 1.279 . S
C889 C887 1.358 . S
C889 H947 0.930 . S
C890 C893 1.348 . S
C890 C894 1.356 . S
C890 O941 1.325 . S
C891 N892 1.279 . S
C891 C894 1.358 1_554 S
C891 H948 0.930 . S
N892 C891 1.279 . S
N892 C895 1.314 . S
C893 C890 1.348 . S
C893 C895 1.353 1_556 S
C893 H949 0.929 . S
C894 C890 1.356 . S
C894 C891 1.358 1_556 S
C894 H950 0.930 . S
C895 N892 1.314 . S
C895 C893 1.353 1_554 S
C895 H951 0.930 . S
C896 N897 1.314 . S
C896 C901 1.353 . S
C896 H902 0.930 . S
N897 Li880 1.990 . S
N897 C896 1.314 . S
N897 C899 1.279 . S
C898 C899 1.358 . S
C898 C900 1.356 . S
C898 H952 0.930 . S
C899 N897 1.279 . S
C899 C898 1.358 . S
C899 H903 0.930 . S
C900 C898 1.356 . S
C900 C901 1.348 . S
C901 C896 1.353 . S
C901 C900 1.348 . S
C901 H953 0.929 . S
H902 C896 0.930 . S
H903 C899 0.930 . S
C904 N905 1.314 . S
C904 C906 1.353 . S
C904 H910 0.930 . S
N905 Li881 1.990 . S
N905 C904 1.314 . S
N905 C908 1.279 . S
C906 C904 1.353 . S
C906 C909 1.348 . S
C906 H954 0.929 . S
C907 C908 1.358 . S
C907 C909 1.356 . S
C907 H955 0.930 . S
C908 N905 1.279 . S
C908 C907 1.358 . S
C908 H911 0.930 . S
C909 C906 1.348 . S
C909 C907 1.356 . S
H910 C904 0.930 . S
H911 C908 0.930 . S
C912 C914 1.348 . S
C912 C915 1.356 . S
C912 O942 1.325 . S
N913 C916 1.314 . S
N913 C917 1.279 . S
C914 C912 1.348 . S
C914 C916 1.353 . S
C914 H956 0.929 . S
C915 C912 1.356 . S
C915 C917 1.358 . S
C915 H957 0.930 . S
C916 N913 1.314 . S
C916 C914 1.353 . S
C916 H958 0.930 . S
C917 N913 1.279 . S
C917 C915 1.358 . S
C917 H959 0.930 . S
C918 C919 1.348 . S
C918 C920 1.356 . S
C918 O943 1.325 . S
C919 C918 1.348 . S
C919 C921 1.353 . S
C919 H960 0.929 . S
C920 C918 1.356 . S
C920 C922 1.358 . S
C920 H961 0.930 . S
C921 C919 1.353 . S
C921 N923 1.314 . S
C921 H962 0.930 . S
C922 C920 1.358 . S
C922 N923 1.279 . S
C922 H963 0.930 . S
N923 C921 1.314 . S
N923 C922 1.279 . S
C924 C926 1.353 . S
C924 N927 1.314 . S
C924 H930 0.930 . S
C925 N927 1.279 . S
C925 C928 1.358 . S
C925 H931 0.930 . S
C926 C924 1.353 . S
C926 C929 1.348 . S
C926 H964 0.929 . S
N927 Li882 1.990 . S
N927 C924 1.314 . S
N927 C925 1.279 . S
C928 C925 1.358 . S
C928 C929 1.356 . S
C928 H965 0.930 . S
C929 C926 1.348 . S
C929 C928 1.356 . S
H930 C924 0.930 . S
H931 C925 0.930 . S
C932 N933 1.314 . S
C932 C934 1.353 . S
C932 H938 0.930 . S
N933 Li883 1.990 . S
N933 C932 1.314 . S
N933 C936 1.279 . S
C934 C932 1.353 . S
C934 C937 1.348 . S
C934 H966 0.929 . S
C935 C936 1.358 . S
C935 C937 1.356 . S
C935 H967 0.930 . S
C936 N933 1.279 . S
C936 C935 1.358 . S
C936 H939 0.930 . S
C937 C934 1.348 . S
C937 C935 1.356 . S
H938 C932 0.930 . S
H939 C936 0.930 . S
O940 Li880 1.956 . S
O940 Li881 1.970 . S
O940 Li882 1.961 . S
O940 C884 1.325 . S
O941 Li880 1.970 . S
O941 Li881 1.956 . S
O941 Li883 1.961 . S
O941 C890 1.325 . S
O942 Li880 1.961 . S
O942 Li882 1.956 . S
O942 Li883 1.970 . S
O942 C912 1.325 . S
O943 Li881 1.961 . S
O943 Li882 1.970 . S
O943 Li883 1.956 . S
O943 C918 1.325 . S
H944 C886 0.929 . S
H945 C887 0.930 . S
H946 C888 0.930 . S
H947 C889 0.930 . S
H948 C891 0.930 . S
H949 C893 0.929 . S
H950 C894 0.930 . S
H951 C895 0.930 . S
H952 C898 0.930 . S
H953 C901 0.929 . S
H954 C906 0.929 . S
H955 C907 0.930 . S
H956 C914 0.929 . S
H957 C915 0.930 . S
H958 C916 0.930 . S
H959 C917 0.930 . S
H960 C919 0.929 . S
H961 C920 0.930 . S
H962 C921 0.930 . S
H963 C922 0.930 . S
H964 C926 0.929 . S
H965 C928 0.930 . S
H966 C934 0.929 . S
H967 C935 0.930 . S
Li968 N985 1.990 . S
Li968 O1028 1.956 . S
Li968 O1029 1.970 . S
Li968 O1030 1.961 . S
Li969 N993 1.990 . S
Li969 O1028 1.970 . S
Li969 O1029 1.956 . S
Li969 O1031 1.961 . S
Li970 N1015 1.990 . S
Li970 O1028 1.961 . S
Li970 O1030 1.956 . S
Li970 O1031 1.970 . S
Li971 N1021 1.990 . S
Li971 O1029 1.961 . S
Li971 O1030 1.970 . S
Li971 O1031 1.956 . S
C972 C974 1.348 . S
C972 C975 1.356 . S
C972 O1028 1.325 . S
N973 C976 1.314 . S
N973 C977 1.279 . S
C974 C972 1.348 . S
C974 C976 1.353 . S
C974 H1032 0.929 . S
C975 C972 1.356 . S
C975 C977 1.358 . S
C975 H1033 0.930 . S
C976 N973 1.314 . S
C976 C974 1.353 . S
C976 H1034 0.930 . S
C977 N973 1.279 . S
C977 C975 1.358 . S
C977 H1035 0.930 . S
C978 C981 1.348 . S
C978 C982 1.356 . S
C978 O1029 1.325 . S
C979 N980 1.279 . S
C979 C982 1.358 . S
C979 H1036 0.930 . S
N980 C979 1.279 . S
N980 C983 1.314 . S
C981 C978 1.348 . S
C981 C983 1.353 . S
C981 H1037 0.929 . S
C982 C978 1.356 . S
C982 C979 1.358 . S
C982 H1038 0.930 . S
C983 N980 1.314 . S
C983 C981 1.353 . S
C983 H1039 0.930 . S
C984 N985 1.314 . S
C984 C989 1.353 . S
C984 H990 0.930 . S
N985 Li968 1.990 . S
N985 C984 1.314 . S
N985 C987 1.279 . S
C986 C987 1.358 . S
C986 C988 1.356 . S
C986 H1040 0.930 . S
C987 N985 1.279 . S
C987 C986 1.358 . S
C987 H991 0.930 . S
C988 C986 1.356 . S
C988 C989 1.348 . S
C989 C984 1.353 . S
C989 C988 1.348 . S
C989 H1041 0.929 . S
H990 C984 0.930 . S
H991 C987 0.930 . S
C992 N993 1.314 . S
C992 C994 1.353 . S
C992 H998 0.930 . S
N993 Li969 1.990 . S
N993 C992 1.314 . S
N993 C996 1.279 . S
C994 C992 1.353 . S
C994 C997 1.348 . S
C994 H1042 0.929 . S
C995 C996 1.358 . S
C995 C997 1.356 . S
C995 H1043 0.930 . S
C996 N993 1.279 . S
C996 C995 1.358 . S
C996 H999 0.930 . S
C997 C994 1.348 . S
C997 C995 1.356 . S
H998 C992 0.930 . S
H999 C996 0.930 . S
C1000 C1002 1.348 . S
C1000 C1003 1.356 . S
C1000 O1030 1.325 . S
N1001 C1004 1.314 . S
N1001 C1005 1.279 . S
C1002 C1000 1.348 . S
C1002 C1004 1.353 . S
C1002 H1044 0.929 . S
C1003 C1000 1.356 . S
C1003 C1005 1.358 . S
C1003 H1045 0.930 . S
C1004 N1001 1.314 . S
C1004 C1002 1.353 . S
C1004 H1046 0.930 . S
C1005 N1001 1.279 . S
C1005 C1003 1.358 . S
C1005 H1047 0.930 . S
C1006 C1007 1.348 . S
C1006 C1008 1.356 . S
C1006 O1031 1.325 . S
C1007 C1006 1.348 . S
C1007 C1009 1.353 . S
C1007 H1048 0.929 . S
C1008 C1006 1.356 . S
C1008 C1010 1.358 . S
C1008 H1049 0.930 . S
C1009 C1007 1.353 . S
C1009 N1011 1.314 . S
C1009 H1050 0.930 . S
C1010 C1008 1.358 . S
C1010 N1011 1.279 . S
C1010 H1051 0.930 . S
N1011 C1009 1.314 . S
N1011 C1010 1.279 . S
C1012 C1014 1.353 . S
C1012 N1015 1.314 . S
C1012 H1018 0.930 . S
C1013 N1015 1.279 . S
C1013 C1016 1.358 . S
C1013 H1019 0.930 . S
C1014 C1012 1.353 . S
C1014 C1017 1.348 . S
C1014 H1052 0.929 . S
N1015 Li970 1.990 . S
N1015 C1012 1.314 . S
N1015 C1013 1.279 . S
C1016 C1013 1.358 . S
C1016 C1017 1.356 . S
C1016 H1053 0.930 . S
C1017 C1014 1.348 . S
C1017 C1016 1.356 . S
H1018 C1012 0.930 . S
H1019 C1013 0.930 . S
C1020 N1021 1.314 . S
C1020 C1022 1.353 . S
C1020 H1026 0.930 . S
N1021 Li971 1.990 . S
N1021 C1020 1.314 . S
N1021 C1024 1.279 . S
C1022 C1020 1.353 . S
C1022 C1025 1.348 . S
C1022 H1054 0.929 . S
C1023 C1024 1.358 . S
C1023 C1025 1.356 . S
C1023 H1055 0.930 . S
C1024 N1021 1.279 . S
C1024 C1023 1.358 . S
C1024 H1027 0.930 . S
C1025 C1022 1.348 . S
C1025 C1023 1.356 . S
H1026 C1020 0.930 . S
H1027 C1024 0.930 . S
O1028 Li968 1.956 . S
O1028 Li969 1.970 . S
O1028 Li970 1.961 . S
O1028 C972 1.325 . S
O1029 Li968 1.970 . S
O1029 Li969 1.956 . S
O1029 Li971 1.961 . S
O1029 C978 1.325 . S
O1030 Li968 1.961 . S
O1030 Li970 1.956 . S
O1030 Li971 1.970 . S
O1030 C1000 1.325 . S
O1031 Li969 1.961 . S
O1031 Li970 1.970 . S
O1031 Li971 1.956 . S
O1031 C1006 1.325 . S
H1032 C974 0.929 . S
H1033 C975 0.930 . S
H1034 C976 0.930 . S
H1035 C977 0.930 . S
H1036 C979 0.930 . S
H1037 C981 0.929 . S
H1038 C982 0.930 . S
H1039 C983 0.930 . S
H1040 C986 0.930 . S
H1041 C989 0.929 . S
H1042 C994 0.929 . S
H1043 C995 0.930 . S
H1044 C1002 0.929 . S
H1045 C1003 0.930 . S
H1046 C1004 0.930 . S
H1047 C1005 0.930 . S
H1048 C1007 0.929 . S
H1049 C1008 0.930 . S
H1050 C1009 0.930 . S
H1051 C1010 0.930 . S
H1052 C1014 0.929 . S
H1053 C1016 0.930 . S
H1054 C1022 0.929 . S
H1055 C1023 0.930 . S
Li1056 N1073 1.990 . S
Li1056 O1116 1.956 . S
Li1056 O1117 1.970 . S
Li1056 O1118 1.961 . S
Li1057 N1081 1.990 . S
Li1057 O1116 1.970 . S
Li1057 O1117 1.956 . S
Li1057 O1119 1.961 . S
Li1058 N1103 1.990 . S
Li1058 O1116 1.961 . S
Li1058 O1118 1.956 . S
Li1058 O1119 1.970 . S
Li1059 N1109 1.990 . S
Li1059 O1117 1.961 . S
Li1059 O1118 1.970 . S
Li1059 O1119 1.956 . S
C1060 C1062 1.348 . S
C1060 C1063 1.356 . S
C1060 O1116 1.325 . S
N1061 C1064 1.314 . S
N1061 C1065 1.279 . S
C1062 C1060 1.348 . S
C1062 C1064 1.353 . S
C1062 H1120 0.929 . S
C1063 C1060 1.356 . S
C1063 C1065 1.358 . S
C1063 H1121 0.930 . S
C1064 N1061 1.314 . S
C1064 C1062 1.353 . S
C1064 H1122 0.930 . S
C1065 N1061 1.279 . S
C1065 C1063 1.358 . S
C1065 H1123 0.930 . S
C1066 C1069 1.348 . S
C1066 C1070 1.356 . S
C1066 O1117 1.325 . S
C1067 N1068 1.279 . S
C1067 C1070 1.358 1_554 S
C1067 H1124 0.930 . S
N1068 C1067 1.279 . S
N1068 C1071 1.314 . S
C1069 C1066 1.348 . S
C1069 C1071 1.353 1_556 S
C1069 H1125 0.929 . S
C1070 C1066 1.356 . S
C1070 C1067 1.358 1_556 S
C1070 H1126 0.930 . S
C1071 N1068 1.314 . S
C1071 C1069 1.353 1_554 S
C1071 H1127 0.930 . S
C1072 N1073 1.314 . S
C1072 C1077 1.353 . S
C1072 H1078 0.930 . S
N1073 Li1056 1.990 . S
N1073 C1072 1.314 . S
N1073 C1075 1.279 . S
C1074 C1075 1.358 . S
C1074 C1076 1.356 . S
C1074 H1128 0.930 . S
C1075 N1073 1.279 . S
C1075 C1074 1.358 . S
C1075 H1079 0.930 . S
C1076 C1074 1.356 . S
C1076 C1077 1.348 . S
C1077 C1072 1.353 . S
C1077 C1076 1.348 . S
C1077 H1129 0.929 . S
H1078 C1072 0.930 . S
H1079 C1075 0.930 . S
C1080 N1081 1.314 . S
C1080 C1082 1.353 . S
C1080 H1086 0.930 . S
N1081 Li1057 1.990 . S
N1081 C1080 1.314 . S
N1081 C1084 1.279 . S
C1082 C1080 1.353 . S
C1082 C1085 1.348 . S
C1082 H1130 0.929 . S
C1083 C1084 1.358 . S
C1083 C1085 1.356 . S
C1083 H1131 0.930 . S
C1084 N1081 1.279 . S
C1084 C1083 1.358 . S
C1084 H1087 0.930 . S
C1085 C1082 1.348 . S
C1085 C1083 1.356 . S
H1086 C1080 0.930 . S
H1087 C1084 0.930 . S
C1088 C1090 1.348 . S
C1088 C1091 1.356 . S
C1088 O1118 1.325 . S
N1089 C1092 1.314 . S
N1089 C1093 1.279 . S
C1090 C1088 1.348 . S
C1090 C1092 1.353 . S
C1090 H1132 0.929 . S
C1091 C1088 1.356 . S
C1091 C1093 1.358 . S
C1091 H1133 0.930 . S
C1092 N1089 1.314 . S
C1092 C1090 1.353 . S
C1092 H1134 0.930 . S
C1093 N1089 1.279 . S
C1093 C1091 1.358 . S
C1093 H1135 0.930 . S
C1094 C1095 1.348 . S
C1094 C1096 1.356 . S
C1094 O1119 1.325 . S
C1095 C1094 1.348 . S
C1095 C1097 1.353 . S
C1095 H1136 0.929 . S
C1096 C1094 1.356 . S
C1096 C1098 1.358 . S
C1096 H1137 0.930 . S
C1097 C1095 1.353 . S
C1097 N1099 1.314 . S
C1097 H1138 0.930 . S
C1098 C1096 1.358 . S
C1098 N1099 1.279 . S
C1098 H1139 0.930 . S
N1099 C1097 1.314 . S
N1099 C1098 1.279 . S
C1100 C1102 1.353 . S
C1100 N1103 1.314 . S
C1100 H1106 0.930 . S
C1101 N1103 1.279 . S
C1101 C1104 1.358 . S
C1101 H1107 0.930 . S
C1102 C1100 1.353 . S
C1102 C1105 1.348 . S
C1102 H1140 0.929 . S
N1103 Li1058 1.990 . S
N1103 C1100 1.314 . S
N1103 C1101 1.279 . S
C1104 C1101 1.358 . S
C1104 C1105 1.356 . S
C1104 H1141 0.930 . S
C1105 C1102 1.348 . S
C1105 C1104 1.356 . S
H1106 C1100 0.930 . S
H1107 C1101 0.930 . S
C1108 N1109 1.314 . S
C1108 C1110 1.353 . S
C1108 H1114 0.930 . S
N1109 Li1059 1.990 . S
N1109 C1108 1.314 . S
N1109 C1112 1.279 . S
C1110 C1108 1.353 . S
C1110 C1113 1.348 . S
C1110 H1142 0.929 . S
C1111 C1112 1.358 . S
C1111 C1113 1.356 . S
C1111 H1143 0.930 . S
C1112 N1109 1.279 . S
C1112 C1111 1.358 . S
C1112 H1115 0.930 . S
C1113 C1110 1.348 . S
C1113 C1111 1.356 . S
H1114 C1108 0.930 . S
H1115 C1112 0.930 . S
O1116 Li1056 1.956 . S
O1116 Li1057 1.970 . S
O1116 Li1058 1.961 . S
O1116 C1060 1.325 . S
O1117 Li1056 1.970 . S
O1117 Li1057 1.956 . S
O1117 Li1059 1.961 . S
O1117 C1066 1.325 . S
O1118 Li1056 1.961 . S
O1118 Li1058 1.956 . S
O1118 Li1059 1.970 . S
O1118 C1088 1.325 . S
O1119 Li1057 1.961 . S
O1119 Li1058 1.970 . S
O1119 Li1059 1.956 . S
O1119 C1094 1.325 . S
H1120 C1062 0.929 . S
H1121 C1063 0.930 . S
H1122 C1064 0.930 . S
H1123 C1065 0.930 . S
H1124 C1067 0.930 . S
H1125 C1069 0.929 . S
H1126 C1070 0.930 . S
H1127 C1071 0.930 . S
H1128 C1074 0.930 . S
H1129 C1077 0.929 . S
H1130 C1082 0.929 . S
H1131 C1083 0.930 . S
H1132 C1090 0.929 . S
H1133 C1091 0.930 . S
H1134 C1092 0.930 . S
H1135 C1093 0.930 . S
H1136 C1095 0.929 . S
H1137 C1096 0.930 . S
H1138 C1097 0.930 . S
H1139 C1098 0.930 . S
H1140 C1102 0.929 . S
H1141 C1104 0.930 . S
H1142 C1110 0.929 . S
H1143 C1111 0.930 . S
Li1144 N1161 1.990 . S
Li1144 O1204 1.956 . S
Li1144 O1205 1.970 . S
Li1144 O1206 1.961 . S
Li1145 N1169 1.990 . S
Li1145 O1204 1.970 . S
Li1145 O1205 1.956 . S
Li1145 O1207 1.961 . S
Li1146 N1191 1.990 . S
Li1146 O1204 1.961 . S
Li1146 O1206 1.956 . S
Li1146 O1207 1.970 . S
Li1147 N1197 1.990 . S
Li1147 O1205 1.961 . S
Li1147 O1206 1.970 . S
Li1147 O1207 1.956 . S
C1148 C1150 1.348 . S
C1148 C1151 1.356 . S
C1148 O1204 1.325 . S
N1149 C1152 1.314 . S
N1149 C1153 1.279 . S
C1150 C1148 1.348 . S
C1150 C1152 1.353 . S
C1150 H1208 0.929 . S
C1151 C1148 1.356 . S
C1151 C1153 1.358 . S
C1151 H1209 0.930 . S
C1152 N1149 1.314 . S
C1152 C1150 1.353 . S
C1152 H1210 0.930 . S
C1153 N1149 1.279 . S
C1153 C1151 1.358 . S
C1153 H1211 0.930 . S
C1154 C1157 1.348 . S
C1154 C1158 1.356 . S
C1154 O1205 1.325 . S
C1155 N1156 1.279 . S
C1155 C1158 1.358 . S
C1155 H1212 0.930 . S
N1156 C1155 1.279 . S
N1156 C1159 1.314 . S
C1157 C1154 1.348 . S
C1157 C1159 1.353 . S
C1157 H1213 0.929 . S
C1158 C1154 1.356 . S
C1158 C1155 1.358 . S
C1158 H1214 0.930 . S
C1159 N1156 1.314 . S
C1159 C1157 1.353 . S
C1159 H1215 0.930 . S
C1160 N1161 1.314 . S
C1160 C1165 1.353 . S
C1160 H1166 0.930 . S
N1161 Li1144 1.990 . S
N1161 C1160 1.314 . S
N1161 C1163 1.279 . S
C1162 C1163 1.358 . S
C1162 C1164 1.356 . S
C1162 H1216 0.930 . S
C1163 N1161 1.279 . S
C1163 C1162 1.358 . S
C1163 H1167 0.930 . S
C1164 C1162 1.356 . S
C1164 C1165 1.348 . S
C1165 C1160 1.353 . S
C1165 C1164 1.348 . S
C1165 H1217 0.929 . S
H1166 C1160 0.930 . S
H1167 C1163 0.930 . S
C1168 N1169 1.314 . S
C1168 C1170 1.353 . S
C1168 H1174 0.930 . S
N1169 Li1145 1.990 . S
N1169 C1168 1.314 . S
N1169 C1172 1.279 . S
C1170 C1168 1.353 . S
C1170 C1173 1.348 . S
C1170 H1218 0.929 . S
C1171 C1172 1.358 . S
C1171 C1173 1.356 . S
C1171 H1219 0.930 . S
C1172 N1169 1.279 . S
C1172 C1171 1.358 . S
C1172 H1175 0.930 . S
C1173 C1170 1.348 . S
C1173 C1171 1.356 . S
H1174 C1168 0.930 . S
H1175 C1172 0.930 . S
C1176 C1178 1.348 . S
C1176 C1179 1.356 . S
C1176 O1206 1.325 . S
N1177 C1180 1.314 . S
N1177 C1181 1.279 . S
C1178 C1176 1.348 . S
C1178 C1180 1.353 . S
C1178 H1220 0.929 . S
C1179 C1176 1.356 . S
C1179 C1181 1.358 . S
C1179 H1221 0.930 . S
C1180 N1177 1.314 . S
C1180 C1178 1.353 . S
C1180 H1222 0.930 . S
C1181 N1177 1.279 . S
C1181 C1179 1.358 . S
C1181 H1223 0.930 . S
C1182 C1183 1.348 . S
C1182 C1184 1.356 . S
C1182 O1207 1.325 . S
C1183 C1182 1.348 . S
C1183 C1185 1.353 . S
C1183 H1224 0.929 . S
C1184 C1182 1.356 . S
C1184 C1186 1.358 . S
C1184 H1225 0.930 . S
C1185 C1183 1.353 . S
C1185 N1187 1.314 . S
C1185 H1226 0.930 . S
C1186 C1184 1.358 . S
C1186 N1187 1.279 . S
C1186 H1227 0.930 . S
N1187 C1185 1.314 . S
N1187 C1186 1.279 . S
C1188 C1190 1.353 . S
C1188 N1191 1.314 . S
C1188 H1194 0.930 . S
C1189 N1191 1.279 . S
C1189 C1192 1.358 . S
C1189 H1195 0.930 . S
C1190 C1188 1.353 . S
C1190 C1193 1.348 . S
C1190 H1228 0.929 . S
N1191 Li1146 1.990 . S
N1191 C1188 1.314 . S
N1191 C1189 1.279 . S
C1192 C1189 1.358 . S
C1192 C1193 1.356 . S
C1192 H1229 0.930 . S
C1193 C1190 1.348 . S
C1193 C1192 1.356 . S
H1194 C1188 0.930 . S
H1195 C1189 0.930 . S
C1196 N1197 1.314 . S
C1196 C1198 1.353 . S
C1196 H1202 0.930 . S
N1197 Li1147 1.990 . S
N1197 C1196 1.314 . S
N1197 C1200 1.279 . S
C1198 C1196 1.353 . S
C1198 C1201 1.348 . S
C1198 H1230 0.929 . S
C1199 C1200 1.358 . S
C1199 C1201 1.356 . S
C1199 H1231 0.930 . S
C1200 N1197 1.279 . S
C1200 C1199 1.358 . S
C1200 H1203 0.930 . S
C1201 C1198 1.348 . S
C1201 C1199 1.356 . S
H1202 C1196 0.930 . S
H1203 C1200 0.930 . S
O1204 Li1144 1.956 . S
O1204 Li1145 1.970 . S
O1204 Li1146 1.961 . S
O1204 C1148 1.325 . S
O1205 Li1144 1.970 . S
O1205 Li1145 1.956 . S
O1205 Li1147 1.961 . S
O1205 C1154 1.325 . S
O1206 Li1144 1.961 . S
O1206 Li1146 1.956 . S
O1206 Li1147 1.970 . S
O1206 C1176 1.325 . S
O1207 Li1145 1.961 . S
O1207 Li1146 1.970 . S
O1207 Li1147 1.956 . S
O1207 C1182 1.325 . S
H1208 C1150 0.929 . S
H1209 C1151 0.930 . S
H1210 C1152 0.930 . S
H1211 C1153 0.930 . S
H1212 C1155 0.930 . S
H1213 C1157 0.929 . S
H1214 C1158 0.930 . S
H1215 C1159 0.930 . S
H1216 C1162 0.930 . S
H1217 C1165 0.929 . S
H1218 C1170 0.929 . S
H1219 C1171 0.930 . S
H1220 C1178 0.929 . S
H1221 C1179 0.930 . S
H1222 C1180 0.930 . S
H1223 C1181 0.930 . S
H1224 C1183 0.929 . S
H1225 C1184 0.930 . S
H1226 C1185 0.930 . S
H1227 C1186 0.930 . S
H1228 C1190 0.929 . S
H1229 C1192 0.930 . S
H1230 C1198 0.929 . S
H1231 C1199 0.930 . S
Li1232 N1249 1.990 . S
Li1232 O1292 1.956 . S
Li1232 O1293 1.970 . S
Li1232 O1294 1.961 . S
Li1233 N1257 1.990 . S
Li1233 O1292 1.970 . S
Li1233 O1293 1.956 . S
Li1233 O1295 1.961 . S
Li1234 N1279 1.990 . S
Li1234 O1292 1.961 . S
Li1234 O1294 1.956 . S
Li1234 O1295 1.970 . S
Li1235 N1285 1.990 . S
Li1235 O1293 1.961 . S
Li1235 O1294 1.970 . S
Li1235 O1295 1.956 . S
C1236 C1238 1.348 . S
C1236 C1239 1.356 . S
C1236 O1292 1.325 . S
N1237 C1240 1.314 . S
N1237 C1241 1.279 . S
C1238 C1236 1.348 . S
C1238 C1240 1.353 . S
C1238 H1296 0.929 . S
C1239 C1236 1.356 . S
C1239 C1241 1.358 . S
C1239 H1297 0.930 . S
C1240 N1237 1.314 . S
C1240 C1238 1.353 . S
C1240 H1298 0.930 . S
C1241 N1237 1.279 . S
C1241 C1239 1.358 . S
C1241 H1299 0.930 . S
C1242 C1245 1.348 . S
C1242 C1246 1.356 . S
C1242 O1293 1.325 . S
C1243 N1244 1.279 . S
C1243 C1246 1.358 1_554 S
C1243 H1300 0.930 . S
N1244 C1243 1.279 . S
N1244 C1247 1.314 . S
C1245 C1242 1.348 . S
C1245 C1247 1.353 1_556 S
C1245 H1301 0.929 . S
C1246 C1242 1.356 . S
C1246 C1243 1.358 1_556 S
C1246 H1302 0.930 . S
C1247 N1244 1.314 . S
C1247 C1245 1.353 1_554 S
C1247 H1303 0.930 . S
C1248 N1249 1.314 . S
C1248 C1253 1.353 . S
C1248 H1254 0.930 . S
N1249 Li1232 1.990 . S
N1249 C1248 1.314 . S
N1249 C1251 1.279 . S
C1250 C1251 1.358 . S
C1250 C1252 1.356 . S
C1250 H1304 0.930 . S
C1251 N1249 1.279 . S
C1251 C1250 1.358 . S
C1251 H1255 0.930 . S
C1252 C1250 1.356 . S
C1252 C1253 1.348 . S
C1253 C1248 1.353 . S
C1253 C1252 1.348 . S
C1253 H1305 0.929 . S
H1254 C1248 0.930 . S
H1255 C1251 0.930 . S
C1256 N1257 1.314 . S
C1256 C1258 1.353 . S
C1256 H1262 0.930 . S
N1257 Li1233 1.990 . S
N1257 C1256 1.314 . S
N1257 C1260 1.279 . S
C1258 C1256 1.353 . S
C1258 C1261 1.348 . S
C1258 H1306 0.929 . S
C1259 C1260 1.358 . S
C1259 C1261 1.356 . S
C1259 H1307 0.930 . S
C1260 N1257 1.279 . S
C1260 C1259 1.358 . S
C1260 H1263 0.930 . S
C1261 C1258 1.348 . S
C1261 C1259 1.356 . S
H1262 C1256 0.930 . S
H1263 C1260 0.930 . S
C1264 C1266 1.348 . S
C1264 C1267 1.356 . S
C1264 O1294 1.325 . S
N1265 C1268 1.314 . S
N1265 C1269 1.279 . S
C1266 C1264 1.348 . S
C1266 C1268 1.353 . S
C1266 H1308 0.929 . S
C1267 C1264 1.356 . S
C1267 C1269 1.358 . S
C1267 H1309 0.930 . S
C1268 N1265 1.314 . S
C1268 C1266 1.353 . S
C1268 H1310 0.930 . S
C1269 N1265 1.279 . S
C1269 C1267 1.358 . S
C1269 H1311 0.930 . S
C1270 C1271 1.348 . S
C1270 C1272 1.356 . S
C1270 O1295 1.325 . S
C1271 C1270 1.348 . S
C1271 C1273 1.353 . S
C1271 H1312 0.929 . S
C1272 C1270 1.356 . S
C1272 C1274 1.358 . S
C1272 H1313 0.930 . S
C1273 C1271 1.353 . S
C1273 N1275 1.314 . S
C1273 H1314 0.930 . S
C1274 C1272 1.358 . S
C1274 N1275 1.279 . S
C1274 H1315 0.930 . S
N1275 C1273 1.314 . S
N1275 C1274 1.279 . S
C1276 C1278 1.353 . S
C1276 N1279 1.314 . S
C1276 H1282 0.930 . S
C1277 N1279 1.279 . S
C1277 C1280 1.358 . S
C1277 H1283 0.930 . S
C1278 C1276 1.353 . S
C1278 C1281 1.348 . S
C1278 H1316 0.929 . S
N1279 Li1234 1.990 . S
N1279 C1276 1.314 . S
N1279 C1277 1.279 . S
C1280 C1277 1.358 . S
C1280 C1281 1.356 . S
C1280 H1317 0.930 . S
C1281 C1278 1.348 . S
C1281 C1280 1.356 . S
H1282 C1276 0.930 . S
H1283 C1277 0.930 . S
C1284 N1285 1.314 . S
C1284 C1286 1.353 . S
C1284 H1290 0.930 . S
N1285 Li1235 1.990 . S
N1285 C1284 1.314 . S
N1285 C1288 1.279 . S
C1286 C1284 1.353 . S
C1286 C1289 1.348 . S
C1286 H1318 0.929 . S
C1287 C1288 1.358 . S
C1287 C1289 1.356 . S
C1287 H1319 0.930 . S
C1288 N1285 1.279 . S
C1288 C1287 1.358 . S
C1288 H1291 0.930 . S
C1289 C1286 1.348 . S
C1289 C1287 1.356 . S
H1290 C1284 0.930 . S
H1291 C1288 0.930 . S
O1292 Li1232 1.956 . S
O1292 Li1233 1.970 . S
O1292 Li1234 1.961 . S
O1292 C1236 1.325 . S
O1293 Li1232 1.970 . S
O1293 Li1233 1.956 . S
O1293 Li1235 1.961 . S
O1293 C1242 1.325 . S
O1294 Li1232 1.961 . S
O1294 Li1234 1.956 . S
O1294 Li1235 1.970 . S
O1294 C1264 1.325 . S
O1295 Li1233 1.961 . S
O1295 Li1234 1.970 . S
O1295 Li1235 1.956 . S
O1295 C1270 1.325 . S
H1296 C1238 0.929 . S
H1297 C1239 0.930 . S
H1298 C1240 0.930 . S
H1299 C1241 0.930 . S
H1300 C1243 0.930 . S
H1301 C1245 0.929 . S
H1302 C1246 0.930 . S
H1303 C1247 0.930 . S
H1304 C1250 0.930 . S
H1305 C1253 0.929 . S
H1306 C1258 0.929 . S
H1307 C1259 0.930 . S
H1308 C1266 0.929 . S
H1309 C1267 0.930 . S
H1310 C1268 0.930 . S
H1311 C1269 0.930 . S
H1312 C1271 0.929 . S
H1313 C1272 0.930 . S
H1314 C1273 0.930 . S
H1315 C1274 0.930 . S
H1316 C1278 0.929 . S
H1317 C1280 0.930 . S
H1318 C1286 0.929 . S
H1319 C1287 0.930 . S
Li1320 N1337 1.990 . S
Li1320 O1380 1.956 . S
Li1320 O1381 1.970 . S
Li1320 O1382 1.961 . S
Li1321 N1345 1.990 . S
Li1321 O1380 1.970 . S
Li1321 O1381 1.956 . S
Li1321 O1383 1.961 . S
Li1322 N1367 1.990 . S
Li1322 O1380 1.961 . S
Li1322 O1382 1.956 . S
Li1322 O1383 1.970 . S
Li1323 N1373 1.990 . S
Li1323 O1381 1.961 . S
Li1323 O1382 1.970 . S
Li1323 O1383 1.956 . S
C1324 C1326 1.348 . S
C1324 C1327 1.356 . S
C1324 O1380 1.325 . S
N1325 C1328 1.314 . S
N1325 C1329 1.279 . S
C1326 C1324 1.348 . S
C1326 C1328 1.353 . S
C1326 H1384 0.929 . S
C1327 C1324 1.356 . S
C1327 C1329 1.358 . S
C1327 H1385 0.930 . S
C1328 N1325 1.314 . S
C1328 C1326 1.353 . S
C1328 H1386 0.930 . S
C1329 N1325 1.279 . S
C1329 C1327 1.358 . S
C1329 H1387 0.930 . S
C1330 C1333 1.348 . S
C1330 C1334 1.356 . S
C1330 O1381 1.325 . S
C1331 N1332 1.279 . S
C1331 C1334 1.358 . S
C1331 H1388 0.930 . S
N1332 C1331 1.279 . S
N1332 C1335 1.314 . S
C1333 C1330 1.348 . S
C1333 C1335 1.353 . S
C1333 H1389 0.929 . S
C1334 C1330 1.356 . S
C1334 C1331 1.358 . S
C1334 H1390 0.930 . S
C1335 N1332 1.314 . S
C1335 C1333 1.353 . S
C1335 H1391 0.930 . S
C1336 N1337 1.314 . S
C1336 C1341 1.353 . S
C1336 H1342 0.930 . S
N1337 Li1320 1.990 . S
N1337 C1336 1.314 . S
N1337 C1339 1.279 . S
C1338 C1339 1.358 . S
C1338 C1340 1.356 . S
C1338 H1392 0.930 . S
C1339 N1337 1.279 . S
C1339 C1338 1.358 . S
C1339 H1343 0.930 . S
C1340 C1338 1.356 . S
C1340 C1341 1.348 . S
C1341 C1336 1.353 . S
C1341 C1340 1.348 . S
C1341 H1393 0.929 . S
H1342 C1336 0.930 . S
H1343 C1339 0.930 . S
C1344 N1345 1.314 . S
C1344 C1346 1.353 . S
C1344 H1350 0.930 . S
N1345 Li1321 1.990 . S
N1345 C1344 1.314 . S
N1345 C1348 1.279 . S
C1346 C1344 1.353 . S
C1346 C1349 1.348 . S
C1346 H1394 0.929 . S
C1347 C1348 1.358 . S
C1347 C1349 1.356 . S
C1347 H1395 0.930 . S
C1348 N1345 1.279 . S
C1348 C1347 1.358 . S
C1348 H1351 0.930 . S
C1349 C1346 1.348 . S
C1349 C1347 1.356 . S
H1350 C1344 0.930 . S
H1351 C1348 0.930 . S
C1352 C1354 1.348 . S
C1352 C1355 1.356 . S
C1352 O1382 1.325 . S
N1353 C1356 1.314 . S
N1353 C1357 1.279 . S
C1354 C1352 1.348 . S
C1354 C1356 1.353 . S
C1354 H1396 0.929 . S
C1355 C1352 1.356 . S
C1355 C1357 1.358 . S
C1355 H1397 0.930 . S
C1356 N1353 1.314 . S
C1356 C1354 1.353 . S
C1356 H1398 0.930 . S
C1357 N1353 1.279 . S
C1357 C1355 1.358 . S
C1357 H1399 0.930 . S
C1358 C1359 1.348 . S
C1358 C1360 1.356 . S
C1358 O1383 1.325 . S
C1359 C1358 1.348 . S
C1359 C1361 1.353 . S
C1359 H1400 0.929 . S
C1360 C1358 1.356 . S
C1360 C1362 1.358 . S
C1360 H1401 0.930 . S
C1361 C1359 1.353 . S
C1361 N1363 1.314 . S
C1361 H1402 0.930 . S
C1362 C1360 1.358 . S
C1362 N1363 1.279 . S
C1362 H1403 0.930 . S
N1363 C1361 1.314 . S
N1363 C1362 1.279 . S
C1364 C1366 1.353 . S
C1364 N1367 1.314 . S
C1364 H1370 0.930 . S
C1365 N1367 1.279 . S
C1365 C1368 1.358 . S
C1365 H1371 0.930 . S
C1366 C1364 1.353 . S
C1366 C1369 1.348 . S
C1366 H1404 0.929 . S
N1367 Li1322 1.990 . S
N1367 C1364 1.314 . S
N1367 C1365 1.279 . S
C1368 C1365 1.358 . S
C1368 C1369 1.356 . S
C1368 H1405 0.930 . S
C1369 C1366 1.348 . S
C1369 C1368 1.356 . S
H1370 C1364 0.930 . S
H1371 C1365 0.930 . S
C1372 N1373 1.314 . S
C1372 C1374 1.353 . S
C1372 H1378 0.930 . S
N1373 Li1323 1.990 . S
N1373 C1372 1.314 . S
N1373 C1376 1.279 . S
C1374 C1372 1.353 . S
C1374 C1377 1.348 . S
C1374 H1406 0.929 . S
C1375 C1376 1.358 . S
C1375 C1377 1.356 . S
C1375 H1407 0.930 . S
C1376 N1373 1.279 . S
C1376 C1375 1.358 . S
C1376 H1379 0.930 . S
C1377 C1374 1.348 . S
C1377 C1375 1.356 . S
H1378 C1372 0.930 . S
H1379 C1376 0.930 . S
O1380 Li1320 1.956 . S
O1380 Li1321 1.970 . S
O1380 Li1322 1.961 . S
O1380 C1324 1.325 . S
O1381 Li1320 1.970 . S
O1381 Li1321 1.956 . S
O1381 Li1323 1.961 . S
O1381 C1330 1.325 . S
O1382 Li1320 1.961 . S
O1382 Li1322 1.956 . S
O1382 Li1323 1.970 . S
O1382 C1352 1.325 . S
O1383 Li1321 1.961 . S
O1383 Li1322 1.970 . S
O1383 Li1323 1.956 . S
O1383 C1358 1.325 . S
H1384 C1326 0.929 . S
H1385 C1327 0.930 . S
H1386 C1328 0.930 . S
H1387 C1329 0.930 . S
H1388 C1331 0.930 . S
H1389 C1333 0.929 . S
H1390 C1334 0.930 . S
H1391 C1335 0.930 . S
H1392 C1338 0.930 . S
H1393 C1341 0.929 . S
H1394 C1346 0.929 . S
H1395 C1347 0.930 . S
H1396 C1354 0.929 . S
H1397 C1355 0.930 . S
H1398 C1356 0.930 . S
H1399 C1357 0.930 . S
H1400 C1359 0.929 . S
H1401 C1360 0.930 . S
H1402 C1361 0.930 . S
H1403 C1362 0.930 . S
H1404 C1366 0.929 . S
H1405 C1368 0.930 . S
H1406 C1374 0.929 . S
H1407 C1375 0.930 . S
Li1408 N1425 1.990 . S
Li1408 O1468 1.956 . S
Li1408 O1469 1.970 . S
Li1408 O1470 1.961 . S
Li1409 N1433 1.990 . S
Li1409 O1468 1.970 . S
Li1409 O1469 1.956 . S
Li1409 O1471 1.961 . S
Li1410 N1455 1.990 . S
Li1410 O1468 1.961 . S
Li1410 O1470 1.956 . S
Li1410 O1471 1.970 . S
Li1411 N1461 1.990 . S
Li1411 O1469 1.961 . S
Li1411 O1470 1.970 . S
Li1411 O1471 1.956 . S
C1412 C1414 1.348 . S
C1412 C1415 1.356 . S
C1412 O1468 1.325 . S
N1413 C1416 1.314 . S
N1413 C1417 1.279 . S
C1414 C1412 1.348 . S
C1414 C1416 1.353 . S
C1414 H1472 0.929 . S
C1415 C1412 1.356 . S
C1415 C1417 1.358 . S
C1415 H1473 0.930 . S
C1416 N1413 1.314 . S
C1416 C1414 1.353 . S
C1416 H1474 0.930 . S
C1417 N1413 1.279 . S
C1417 C1415 1.358 . S
C1417 H1475 0.930 . S
C1418 C1421 1.348 . S
C1418 C1422 1.356 . S
C1418 O1469 1.325 . S
C1419 N1420 1.279 . S
C1419 C1422 1.358 1_554 S
C1419 H1476 0.930 . S
N1420 C1419 1.279 . S
N1420 C1423 1.314 . S
C1421 C1418 1.348 . S
C1421 C1423 1.353 1_556 S
C1421 H1477 0.929 . S
C1422 C1418 1.356 . S
C1422 C1419 1.358 1_556 S
C1422 H1478 0.930 . S
C1423 N1420 1.314 . S
C1423 C1421 1.353 1_554 S
C1423 H1479 0.930 . S
C1424 N1425 1.314 . S
C1424 C1429 1.353 . S
C1424 H1430 0.930 . S
N1425 Li1408 1.990 . S
N1425 C1424 1.314 . S
N1425 C1427 1.279 . S
C1426 C1427 1.358 . S
C1426 C1428 1.356 . S
C1426 H1480 0.930 . S
C1427 N1425 1.279 . S
C1427 C1426 1.358 . S
C1427 H1431 0.930 . S
C1428 C1426 1.356 . S
C1428 C1429 1.348 . S
C1429 C1424 1.353 . S
C1429 C1428 1.348 . S
C1429 H1481 0.929 . S
H1430 C1424 0.930 . S
H1431 C1427 0.930 . S
C1432 N1433 1.314 . S
C1432 C1434 1.353 . S
C1432 H1438 0.930 . S
N1433 Li1409 1.990 . S
N1433 C1432 1.314 . S
N1433 C1436 1.279 . S
C1434 C1432 1.353 . S
C1434 C1437 1.348 . S
C1434 H1482 0.929 . S
C1435 C1436 1.358 . S
C1435 C1437 1.356 . S
C1435 H1483 0.930 . S
C1436 N1433 1.279 . S
C1436 C1435 1.358 . S
C1436 H1439 0.930 . S
C1437 C1434 1.348 . S
C1437 C1435 1.356 . S
H1438 C1432 0.930 . S
H1439 C1436 0.930 . S
C1440 C1442 1.348 . S
C1440 C1443 1.356 . S
C1440 O1470 1.325 . S
N1441 C1444 1.314 . S
N1441 C1445 1.279 . S
C1442 C1440 1.348 . S
C1442 C1444 1.353 . S
C1442 H1484 0.929 . S
C1443 C1440 1.356 . S
C1443 C1445 1.358 . S
C1443 H1485 0.930 . S
C1444 N1441 1.314 . S
C1444 C1442 1.353 . S
C1444 H1486 0.930 . S
C1445 N1441 1.279 . S
C1445 C1443 1.358 . S
C1445 H1487 0.930 . S
C1446 C1447 1.348 . S
C1446 C1448 1.356 . S
C1446 O1471 1.325 . S
C1447 C1446 1.348 . S
C1447 C1449 1.353 . S
C1447 H1488 0.929 . S
C1448 C1446 1.356 . S
C1448 C1450 1.358 . S
C1448 H1489 0.930 . S
C1449 C1447 1.353 . S
C1449 N1451 1.314 . S
C1449 H1490 0.930 . S
C1450 C1448 1.358 . S
C1450 N1451 1.279 . S
C1450 H1491 0.930 . S
N1451 C1449 1.314 . S
N1451 C1450 1.279 . S
C1452 C1454 1.353 . S
C1452 N1455 1.314 . S
C1452 H1458 0.930 . S
C1453 N1455 1.279 . S
C1453 C1456 1.358 . S
C1453 H1459 0.930 . S
C1454 C1452 1.353 . S
C1454 C1457 1.348 . S
C1454 H1492 0.929 . S
N1455 Li1410 1.990 . S
N1455 C1452 1.314 . S
N1455 C1453 1.279 . S
C1456 C1453 1.358 . S
C1456 C1457 1.356 . S
C1456 H1493 0.930 . S
C1457 C1454 1.348 . S
C1457 C1456 1.356 . S
H1458 C1452 0.930 . S
H1459 C1453 0.930 . S
C1460 N1461 1.314 . S
C1460 C1462 1.353 . S
C1460 H1466 0.930 . S
N1461 Li1411 1.990 . S
N1461 C1460 1.314 . S
N1461 C1464 1.279 . S
C1462 C1460 1.353 . S
C1462 C1465 1.348 . S
C1462 H1494 0.929 . S
C1463 C1464 1.358 . S
C1463 C1465 1.356 . S
C1463 H1495 0.930 . S
C1464 N1461 1.279 . S
C1464 C1463 1.358 . S
C1464 H1467 0.930 . S
C1465 C1462 1.348 . S
C1465 C1463 1.356 . S
H1466 C1460 0.930 . S
H1467 C1464 0.930 . S
O1468 Li1408 1.956 . S
O1468 Li1409 1.970 . S
O1468 Li1410 1.961 . S
O1468 C1412 1.325 . S
O1469 Li1408 1.970 . S
O1469 Li1409 1.956 . S
O1469 Li1411 1.961 . S
O1469 C1418 1.325 . S
O1470 Li1408 1.961 . S
O1470 Li1410 1.956 . S
O1470 Li1411 1.970 . S
O1470 C1440 1.325 . S
O1471 Li1409 1.961 . S
O1471 Li1410 1.970 . S
O1471 Li1411 1.956 . S
O1471 C1446 1.325 . S
H1472 C1414 0.929 . S
H1473 C1415 0.930 . S
H1474 C1416 0.930 . S
H1475 C1417 0.930 . S
H1476 C1419 0.930 . S
H1477 C1421 0.929 . S
H1478 C1422 0.930 . S
H1479 C1423 0.930 . S
H1480 C1426 0.930 . S
H1481 C1429 0.929 . S
H1482 C1434 0.929 . S
H1483 C1435 0.930 . S
H1484 C1442 0.929 . S
H1485 C1443 0.930 . S
H1486 C1444 0.930 . S
H1487 C1445 0.930 . S
H1488 C1447 0.929 . S
H1489 C1448 0.930 . S
H1490 C1449 0.930 . S
H1491 C1450 0.930 . S
H1492 C1454 0.929 . S
H1493 C1456 0.930 . S
H1494 C1462 0.929 . S
H1495 C1463 0.930 . S
Li1496 N1513 1.990 . S
Li1496 O1556 1.956 . S
Li1496 O1557 1.970 . S
Li1496 O1558 1.961 . S
Li1497 N1521 1.990 . S
Li1497 O1556 1.970 . S
Li1497 O1557 1.956 . S
Li1497 O1559 1.961 . S
Li1498 N1543 1.990 . S
Li1498 O1556 1.961 . S
Li1498 O1558 1.956 . S
Li1498 O1559 1.970 . S
Li1499 N1549 1.990 . S
Li1499 O1557 1.961 . S
Li1499 O1558 1.970 . S
Li1499 O1559 1.956 . S
C1500 C1502 1.348 . S
C1500 C1503 1.356 . S
C1500 O1556 1.325 . S
N1501 C1504 1.314 . S
N1501 C1505 1.279 . S
C1502 C1500 1.348 . S
C1502 C1504 1.353 . S
C1502 H1560 0.929 . S
C1503 C1500 1.356 . S
C1503 C1505 1.358 . S
C1503 H1561 0.930 . S
C1504 N1501 1.314 . S
C1504 C1502 1.353 . S
C1504 H1562 0.930 . S
C1505 N1501 1.279 . S
C1505 C1503 1.358 . S
C1505 H1563 0.930 . S
C1506 C1509 1.348 . S
C1506 C1510 1.356 . S
C1506 O1557 1.325 . S
C1507 N1508 1.279 . S
C1507 C1510 1.358 . S
C1507 H1564 0.930 . S
N1508 C1507 1.279 . S
N1508 C1511 1.314 . S
C1509 C1506 1.348 . S
C1509 C1511 1.353 . S
C1509 H1565 0.929 . S
C1510 C1506 1.356 . S
C1510 C1507 1.358 . S
C1510 H1566 0.930 . S
C1511 N1508 1.314 . S
C1511 C1509 1.353 . S
C1511 H1567 0.930 . S
C1512 N1513 1.314 . S
C1512 C1517 1.353 . S
C1512 H1518 0.930 . S
N1513 Li1496 1.990 . S
N1513 C1512 1.314 . S
N1513 C1515 1.279 . S
C1514 C1515 1.358 . S
C1514 C1516 1.356 . S
C1514 H1568 0.930 . S
C1515 N1513 1.279 . S
C1515 C1514 1.358 . S
C1515 H1519 0.930 . S
C1516 C1514 1.356 . S
C1516 C1517 1.348 . S
C1517 C1512 1.353 . S
C1517 C1516 1.348 . S
C1517 H1569 0.929 . S
H1518 C1512 0.930 . S
H1519 C1515 0.930 . S
C1520 N1521 1.314 . S
C1520 C1522 1.353 . S
C1520 H1526 0.930 . S
N1521 Li1497 1.990 . S
N1521 C1520 1.314 . S
N1521 C1524 1.279 . S
C1522 C1520 1.353 . S
C1522 C1525 1.348 . S
C1522 H1570 0.929 . S
C1523 C1524 1.358 . S
C1523 C1525 1.356 . S
C1523 H1571 0.930 . S
C1524 N1521 1.279 . S
C1524 C1523 1.358 . S
C1524 H1527 0.930 . S
C1525 C1522 1.348 . S
C1525 C1523 1.356 . S
H1526 C1520 0.930 . S
H1527 C1524 0.930 . S
C1528 C1530 1.348 . S
C1528 C1531 1.356 . S
C1528 O1558 1.325 . S
N1529 C1532 1.314 . S
N1529 C1533 1.279 . S
C1530 C1528 1.348 . S
C1530 C1532 1.353 . S
C1530 H1572 0.929 . S
C1531 C1528 1.356 . S
C1531 C1533 1.358 . S
C1531 H1573 0.930 . S
C1532 N1529 1.314 . S
C1532 C1530 1.353 . S
C1532 H1574 0.930 . S
C1533 N1529 1.279 . S
C1533 C1531 1.358 . S
C1533 H1575 0.930 . S
C1534 C1535 1.348 . S
C1534 C1536 1.356 . S
C1534 O1559 1.325 . S
C1535 C1534 1.348 . S
C1535 C1537 1.353 . S
C1535 H1576 0.929 . S
C1536 C1534 1.356 . S
C1536 C1538 1.358 . S
C1536 H1577 0.930 . S
C1537 C1535 1.353 . S
C1537 N1539 1.314 . S
C1537 H1578 0.930 . S
C1538 C1536 1.358 . S
C1538 N1539 1.279 . S
C1538 H1579 0.930 . S
N1539 C1537 1.314 . S
N1539 C1538 1.279 . S
C1540 C1542 1.353 . S
C1540 N1543 1.314 . S
C1540 H1546 0.930 . S
C1541 N1543 1.279 . S
C1541 C1544 1.358 . S
C1541 H1547 0.930 . S
C1542 C1540 1.353 . S
C1542 C1545 1.348 . S
C1542 H1580 0.929 . S
N1543 Li1498 1.990 . S
N1543 C1540 1.314 . S
N1543 C1541 1.279 . S
C1544 C1541 1.358 . S
C1544 C1545 1.356 . S
C1544 H1581 0.930 . S
C1545 C1542 1.348 . S
C1545 C1544 1.356 . S
H1546 C1540 0.930 . S
H1547 C1541 0.930 . S
C1548 N1549 1.314 . S
C1548 C1550 1.353 . S
C1548 H1554 0.930 . S
N1549 Li1499 1.990 . S
N1549 C1548 1.314 . S
N1549 C1552 1.279 . S
C1550 C1548 1.353 . S
C1550 C1553 1.348 . S
C1550 H1582 0.929 . S
C1551 C1552 1.358 . S
C1551 C1553 1.356 . S
C1551 H1583 0.930 . S
C1552 N1549 1.279 . S
C1552 C1551 1.358 . S
C1552 H1555 0.930 . S
C1553 C1550 1.348 . S
C1553 C1551 1.356 . S
H1554 C1548 0.930 . S
H1555 C1552 0.930 . S
O1556 Li1496 1.956 . S
O1556 Li1497 1.970 . S
O1556 Li1498 1.961 . S
O1556 C1500 1.325 . S
O1557 Li1496 1.970 . S
O1557 Li1497 1.956 . S
O1557 Li1499 1.961 . S
O1557 C1506 1.325 . S
O1558 Li1496 1.961 . S
O1558 Li1498 1.956 . S
O1558 Li1499 1.970 . S
O1558 C1528 1.325 . S
O1559 Li1497 1.961 . S
O1559 Li1498 1.970 . S
O1559 Li1499 1.956 . S
O1559 C1534 1.325 . S
H1560 C1502 0.929 . S
H1561 C1503 0.930 . S
H1562 C1504 0.930 . S
H1563 C1505 0.930 . S
H1564 C1507 0.930 . S
H1565 C1509 0.929 . S
H1566 C1510 0.930 . S
H1567 C1511 0.930 . S
H1568 C1514 0.930 . S
H1569 C1517 0.929 . S
H1570 C1522 0.929 . S
H1571 C1523 0.930 . S
H1572 C1530 0.929 . S
H1573 C1531 0.930 . S
H1574 C1532 0.930 . S
H1575 C1533 0.930 . S
H1576 C1535 0.929 . S
H1577 C1536 0.930 . S
H1578 C1537 0.930 . S
H1579 C1538 0.930 . S
H1580 C1542 0.929 . S
H1581 C1544 0.930 . S
H1582 C1550 0.929 . S
H1583 C1551 0.930 . S
Li1584 N1601 1.990 . S
Li1584 O1644 1.956 . S
Li1584 O1645 1.970 . S
Li1584 O1646 1.961 . S
Li1585 N1609 1.990 . S
Li1585 O1644 1.970 . S
Li1585 O1645 1.956 . S
Li1585 O1647 1.961 . S
Li1586 N1631 1.990 . S
Li1586 O1644 1.961 . S
Li1586 O1646 1.956 . S
Li1586 O1647 1.970 . S
Li1587 N1637 1.990 . S
Li1587 O1645 1.961 . S
Li1587 O1646 1.970 . S
Li1587 O1647 1.956 . S
C1588 C1590 1.348 . S
C1588 C1591 1.356 . S
C1588 O1644 1.325 . S
N1589 C1592 1.314 . S
N1589 C1593 1.279 . S
C1590 C1588 1.348 . S
C1590 C1592 1.353 1_554 S
C1590 H1648 0.929 . S
C1591 C1588 1.356 . S
C1591 C1593 1.358 1_554 S
C1591 H1649 0.930 . S
C1592 N1589 1.314 . S
C1592 C1590 1.353 1_556 S
C1592 H1650 0.930 . S
C1593 N1589 1.279 . S
C1593 C1591 1.358 1_556 S
C1593 H1651 0.930 . S
C1594 C1597 1.348 . S
C1594 C1598 1.356 . S
C1594 O1645 1.325 . S
C1595 N1596 1.279 . S
C1595 C1598 1.358 . S
C1595 H1652 0.930 . S
N1596 C1595 1.279 . S
N1596 C1599 1.314 . S
C1597 C1594 1.348 . S
C1597 C1599 1.353 . S
C1597 H1653 0.929 . S
C1598 C1594 1.356 . S
C1598 C1595 1.358 . S
C1598 H1654 0.930 . S
C1599 N1596 1.314 . S
C1599 C1597 1.353 . S
C1599 H1655 0.930 . S
C1600 N1601 1.314 . S
C1600 C1605 1.353 . S
C1600 H1606 0.930 . S
N1601 Li1584 1.990 . S
N1601 C1600 1.314 . S
N1601 C1603 1.279 . S
C1602 C1603 1.358 . S
C1602 C1604 1.356 . S
C1602 H1656 0.930 . S
C1603 N1601 1.279 . S
C1603 C1602 1.358 . S
C1603 H1607 0.930 . S
C1604 C1602 1.356 . S
C1604 C1605 1.348 . S
C1605 C1600 1.353 . S
C1605 C1604 1.348 . S
C1605 H1657 0.929 . S
H1606 C1600 0.930 . S
H1607 C1603 0.930 . S
C1608 N1609 1.314 . S
C1608 C1610 1.353 . S
C1608 H1614 0.930 . S
N1609 Li1585 1.990 . S
N1609 C1608 1.314 . S
N1609 C1612 1.279 . S
C1610 C1608 1.353 . S
C1610 C1613 1.348 . S
C1610 H1658 0.929 . S
C1611 C1612 1.358 . S
C1611 C1613 1.356 . S
C1611 H1659 0.930 . S
C1612 N1609 1.279 . S
C1612 C1611 1.358 . S
C1612 H1615 0.930 . S
C1613 C1610 1.348 . S
C1613 C1611 1.356 . S
H1614 C1608 0.930 . S
H1615 C1612 0.930 . S
C1616 C1618 1.348 . S
C1616 C1619 1.356 . S
C1616 O1646 1.325 . S
N1617 C1620 1.314 . S
N1617 C1621 1.279 . S
C1618 C1616 1.348 . S
C1618 C1620 1.353 . S
C1618 H1660 0.929 . S
C1619 C1616 1.356 . S
C1619 C1621 1.358 . S
C1619 H1661 0.930 . S
C1620 N1617 1.314 . S
C1620 C1618 1.353 . S
C1620 H1662 0.930 . S
C1621 N1617 1.279 . S
C1621 C1619 1.358 . S
C1621 H1663 0.930 . S
C1622 C1623 1.348 . S
C1622 C1624 1.356 . S
C1622 O1647 1.325 . S
C1623 C1622 1.348 . S
C1623 C1625 1.353 . S
C1623 H1664 0.929 . S
C1624 C1622 1.356 . S
C1624 C1626 1.358 . S
C1624 H1665 0.930 . S
C1625 C1623 1.353 . S
C1625 N1627 1.314 . S
C1625 H1666 0.930 . S
C1626 C1624 1.358 . S
C1626 N1627 1.279 . S
C1626 H1667 0.930 . S
N1627 C1625 1.314 . S
N1627 C1626 1.279 . S
C1628 C1630 1.353 . S
C1628 N1631 1.314 . S
C1628 H1634 0.930 . S
C1629 N1631 1.279 . S
C1629 C1632 1.358 . S
C1629 H1635 0.930 . S
C1630 C1628 1.353 . S
C1630 C1633 1.348 . S
C1630 H1668 0.929 . S
N1631 Li1586 1.990 . S
N1631 C1628 1.314 . S
N1631 C1629 1.279 . S
C1632 C1629 1.358 . S
C1632 C1633 1.356 . S
C1632 H1669 0.930 . S
C1633 C1630 1.348 . S
C1633 C1632 1.356 . S
H1634 C1628 0.930 . S
H1635 C1629 0.930 . S
C1636 N1637 1.314 . S
C1636 C1638 1.353 . S
C1636 H1642 0.930 . S
N1637 Li1587 1.990 . S
N1637 C1636 1.314 . S
N1637 C1640 1.279 . S
C1638 C1636 1.353 . S
C1638 C1641 1.348 . S
C1638 H1670 0.929 . S
C1639 C1640 1.358 . S
C1639 C1641 1.356 . S
C1639 H1671 0.930 . S
C1640 N1637 1.279 . S
C1640 C1639 1.358 . S
C1640 H1643 0.930 . S
C1641 C1638 1.348 . S
C1641 C1639 1.356 . S
H1642 C1636 0.930 . S
H1643 C1640 0.930 . S
O1644 Li1584 1.956 . S
O1644 Li1585 1.970 . S
O1644 Li1586 1.961 . S
O1644 C1588 1.325 . S
O1645 Li1584 1.970 . S
O1645 Li1585 1.956 . S
O1645 Li1587 1.961 . S
O1645 C1594 1.325 . S
O1646 Li1584 1.961 . S
O1646 Li1586 1.956 . S
O1646 Li1587 1.970 . S
O1646 C1616 1.325 . S
O1647 Li1585 1.961 . S
O1647 Li1586 1.970 . S
O1647 Li1587 1.956 . S
O1647 C1622 1.325 . S
H1648 C1590 0.929 . S
H1649 C1591 0.930 . S
H1650 C1592 0.930 . S
H1651 C1593 0.930 . S
H1652 C1595 0.930 . S
H1653 C1597 0.929 . S
H1654 C1598 0.930 . S
H1655 C1599 0.930 . S
H1656 C1602 0.930 . S
H1657 C1605 0.929 . S
H1658 C1610 0.929 . S
H1659 C1611 0.930 . S
H1660 C1618 0.929 . S
H1661 C1619 0.930 . S
H1662 C1620 0.930 . S
H1663 C1621 0.930 . S
H1664 C1623 0.929 . S
H1665 C1624 0.930 . S
H1666 C1625 0.930 . S
H1667 C1626 0.930 . S
H1668 C1630 0.929 . S
H1669 C1632 0.930 . S
H1670 C1638 0.929 . S
H1671 C1639 0.930 . S
Li1672 N1689 1.990 . S
Li1672 O1732 1.956 . S
Li1672 O1733 1.970 . S
Li1672 O1734 1.961 . S
Li1673 N1697 1.990 . S
Li1673 O1732 1.970 . S
Li1673 O1733 1.956 . S
Li1673 O1735 1.961 . S
Li1674 N1719 1.990 . S
Li1674 O1732 1.961 . S
Li1674 O1734 1.956 . S
Li1674 O1735 1.970 . S
Li1675 N1725 1.990 . S
Li1675 O1733 1.961 . S
Li1675 O1734 1.970 . S
Li1675 O1735 1.956 . S
C1676 C1678 1.348 . S
C1676 C1679 1.356 . S
C1676 O1732 1.325 . S
N1677 C1680 1.314 . S
N1677 C1681 1.279 . S
C1678 C1676 1.348 . S
C1678 C1680 1.353 . S
C1678 H1736 0.929 . S
C1679 C1676 1.356 . S
C1679 C1681 1.358 . S
C1679 H1737 0.930 . S
C1680 N1677 1.314 . S
C1680 C1678 1.353 . S
C1680 H1738 0.930 . S
C1681 N1677 1.279 . S
C1681 C1679 1.358 . S
C1681 H1739 0.930 . S
C1682 C1685 1.348 . S
C1682 C1686 1.356 . S
C1682 O1733 1.325 . S
C1683 N1684 1.279 . S
C1683 C1686 1.358 . S
C1683 H1740 0.930 . S
N1684 C1683 1.279 . S
N1684 C1687 1.314 . S
C1685 C1682 1.348 . S
C1685 C1687 1.353 . S
C1685 H1741 0.929 . S
C1686 C1682 1.356 . S
C1686 C1683 1.358 . S
C1686 H1742 0.930 . S
C1687 N1684 1.314 . S
C1687 C1685 1.353 . S
C1687 H1743 0.930 . S
C1688 N1689 1.314 . S
C1688 C1693 1.353 . S
C1688 H1694 0.930 . S
N1689 Li1672 1.990 . S
N1689 C1688 1.314 . S
N1689 C1691 1.279 . S
C1690 C1691 1.358 . S
C1690 C1692 1.356 . S
C1690 H1744 0.930 . S
C1691 N1689 1.279 . S
C1691 C1690 1.358 . S
C1691 H1695 0.930 . S
C1692 C1690 1.356 . S
C1692 C1693 1.348 . S
C1693 C1688 1.353 . S
C1693 C1692 1.348 . S
C1693 H1745 0.929 . S
H1694 C1688 0.930 . S
H1695 C1691 0.930 . S
C1696 N1697 1.314 . S
C1696 C1698 1.353 . S
C1696 H1702 0.930 . S
N1697 Li1673 1.990 . S
N1697 C1696 1.314 . S
N1697 C1700 1.279 . S
C1698 C1696 1.353 . S
C1698 C1701 1.348 . S
C1698 H1746 0.929 . S
C1699 C1700 1.358 . S
C1699 C1701 1.356 . S
C1699 H1747 0.930 . S
C1700 N1697 1.279 . S
C1700 C1699 1.358 . S
C1700 H1703 0.930 . S
C1701 C1698 1.348 . S
C1701 C1699 1.356 . S
H1702 C1696 0.930 . S
H1703 C1700 0.930 . S
C1704 C1706 1.348 . S
C1704 C1707 1.356 . S
C1704 O1734 1.325 . S
N1705 C1708 1.314 . S
N1705 C1709 1.279 . S
C1706 C1704 1.348 . S
C1706 C1708 1.353 . S
C1706 H1748 0.929 . S
C1707 C1704 1.356 . S
C1707 C1709 1.358 . S
C1707 H1749 0.930 . S
C1708 N1705 1.314 . S
C1708 C1706 1.353 . S
C1708 H1750 0.930 . S
C1709 N1705 1.279 . S
C1709 C1707 1.358 . S
C1709 H1751 0.930 . S
C1710 C1711 1.348 . S
C1710 C1712 1.356 . S
C1710 O1735 1.325 . S
C1711 C1710 1.348 . S
C1711 C1713 1.353 . S
C1711 H1752 0.929 . S
C1712 C1710 1.356 . S
C1712 C1714 1.358 . S
C1712 H1753 0.930 . S
C1713 C1711 1.353 . S
C1713 N1715 1.314 . S
C1713 H1754 0.930 . S
C1714 C1712 1.358 . S
C1714 N1715 1.279 . S
C1714 H1755 0.930 . S
N1715 C1713 1.314 . S
N1715 C1714 1.279 . S
C1716 C1718 1.353 . S
C1716 N1719 1.314 . S
C1716 H1722 0.930 . S
C1717 N1719 1.279 . S
C1717 C1720 1.358 . S
C1717 H1723 0.930 . S
C1718 C1716 1.353 . S
C1718 C1721 1.348 . S
C1718 H1756 0.929 . S
N1719 Li1674 1.990 . S
N1719 C1716 1.314 . S
N1719 C1717 1.279 . S
C1720 C1717 1.358 . S
C1720 C1721 1.356 . S
C1720 H1757 0.930 . S
C1721 C1718 1.348 . S
C1721 C1720 1.356 . S
H1722 C1716 0.930 . S
H1723 C1717 0.930 . S
C1724 N1725 1.314 . S
C1724 C1726 1.353 . S
C1724 H1730 0.930 . S
N1725 Li1675 1.990 . S
N1725 C1724 1.314 . S
N1725 C1728 1.279 . S
C1726 C1724 1.353 . S
C1726 C1729 1.348 . S
C1726 H1758 0.929 . S
C1727 C1728 1.358 . S
C1727 C1729 1.356 . S
C1727 H1759 0.930 . S
C1728 N1725 1.279 . S
C1728 C1727 1.358 . S
C1728 H1731 0.930 . S
C1729 C1726 1.348 . S
C1729 C1727 1.356 . S
H1730 C1724 0.930 . S
H1731 C1728 0.930 . S
O1732 Li1672 1.956 . S
O1732 Li1673 1.970 . S
O1732 Li1674 1.961 . S
O1732 C1676 1.325 . S
O1733 Li1672 1.970 . S
O1733 Li1673 1.956 . S
O1733 Li1675 1.961 . S
O1733 C1682 1.325 . S
O1734 Li1672 1.961 . S
O1734 Li1674 1.956 . S
O1734 Li1675 1.970 . S
O1734 C1704 1.325 . S
O1735 Li1673 1.961 . S
O1735 Li1674 1.970 . S
O1735 Li1675 1.956 . S
O1735 C1710 1.325 . S
H1736 C1678 0.929 . S
H1737 C1679 0.930 . S
H1738 C1680 0.930 . S
H1739 C1681 0.930 . S
H1740 C1683 0.930 . S
H1741 C1685 0.929 . S
H1742 C1686 0.930 . S
H1743 C1687 0.930 . S
H1744 C1690 0.930 . S
H1745 C1693 0.929 . S
H1746 C1698 0.929 . S
H1747 C1699 0.930 . S
H1748 C1706 0.929 . S
H1749 C1707 0.930 . S
H1750 C1708 0.930 . S
H1751 C1709 0.930 . S
H1752 C1711 0.929 . S
H1753 C1712 0.930 . S
H1754 C1713 0.930 . S
H1755 C1714 0.930 . S
H1756 C1718 0.929 . S
H1757 C1720 0.930 . S
H1758 C1726 0.929 . S
H1759 C1727 0.930 . S
Li1760 N1777 1.990 . S
Li1760 O1820 1.956 . S
Li1760 O1821 1.970 . S
Li1760 O1822 1.961 . S
Li1761 N1785 1.990 . S
Li1761 O1820 1.970 . S
Li1761 O1821 1.956 . S
Li1761 O1823 1.961 . S
Li1762 N1807 1.990 . S
Li1762 O1820 1.961 . S
Li1762 O1822 1.956 . S
Li1762 O1823 1.970 . S
Li1763 N1813 1.990 . S
Li1763 O1821 1.961 . S
Li1763 O1822 1.970 . S
Li1763 O1823 1.956 . S
C1764 C1766 1.348 . S
C1764 C1767 1.356 . S
C1764 O1820 1.325 . S
N1765 C1768 1.314 . S
N1765 C1769 1.279 . S
C1766 C1764 1.348 . S
C1766 C1768 1.353 . S
C1766 H1824 0.929 . S
C1767 C1764 1.356 . S
C1767 C1769 1.358 . S
C1767 H1825 0.930 . S
C1768 N1765 1.314 . S
C1768 C1766 1.353 . S
C1768 H1826 0.930 . S
C1769 N1765 1.279 . S
C1769 C1767 1.358 . S
C1769 H1827 0.930 . S
C1770 C1773 1.348 . S
C1770 C1774 1.356 . S
C1770 O1821 1.325 . S
C1771 N1772 1.279 . S
C1771 C1774 1.358 . S
C1771 H1828 0.930 . S
N1772 C1771 1.279 . S
N1772 C1775 1.314 . S
C1773 C1770 1.348 . S
C1773 C1775 1.353 . S
C1773 H1829 0.929 . S
C1774 C1770 1.356 . S
C1774 C1771 1.358 . S
C1774 H1830 0.930 . S
C1775 N1772 1.314 . S
C1775 C1773 1.353 . S
C1775 H1831 0.930 . S
C1776 N1777 1.314 . S
C1776 C1781 1.353 . S
C1776 H1782 0.930 . S
N1777 Li1760 1.990 . S
N1777 C1776 1.314 . S
N1777 C1779 1.279 . S
C1778 C1779 1.358 . S
C1778 C1780 1.356 . S
C1778 H1832 0.930 . S
C1779 N1777 1.279 . S
C1779 C1778 1.358 . S
C1779 H1783 0.930 . S
C1780 C1778 1.356 . S
C1780 C1781 1.348 . S
C1781 C1776 1.353 . S
C1781 C1780 1.348 . S
C1781 H1833 0.929 . S
H1782 C1776 0.930 . S
H1783 C1779 0.930 . S
C1784 N1785 1.314 . S
C1784 C1786 1.353 . S
C1784 H1790 0.930 . S
N1785 Li1761 1.990 . S
N1785 C1784 1.314 . S
N1785 C1788 1.279 . S
C1786 C1784 1.353 . S
C1786 C1789 1.348 . S
C1786 H1834 0.929 . S
C1787 C1788 1.358 . S
C1787 C1789 1.356 . S
C1787 H1835 0.930 . S
C1788 N1785 1.279 . S
C1788 C1787 1.358 . S
C1788 H1791 0.930 . S
C1789 C1786 1.348 . S
C1789 C1787 1.356 . S
H1790 C1784 0.930 . S
H1791 C1788 0.930 . S
C1792 C1794 1.348 . S
C1792 C1795 1.356 . S
C1792 O1822 1.325 . S
N1793 C1796 1.314 . S
N1793 C1797 1.279 . S
C1794 C1792 1.348 . S
C1794 C1796 1.353 1_554 S
C1794 H1836 0.929 . S
C1795 C1792 1.356 . S
C1795 C1797 1.358 1_554 S
C1795 H1837 0.930 . S
C1796 N1793 1.314 . S
C1796 C1794 1.353 1_556 S
C1796 H1838 0.930 . S
C1797 N1793 1.279 . S
C1797 C1795 1.358 1_556 S
C1797 H1839 0.930 . S
C1798 C1799 1.348 . S
C1798 C1800 1.356 . S
C1798 O1823 1.325 . S
C1799 C1798 1.348 . S
C1799 C1801 1.353 . S
C1799 H1840 0.929 . S
C1800 C1798 1.356 . S
C1800 C1802 1.358 . S
C1800 H1841 0.930 . S
C1801 C1799 1.353 . S
C1801 N1803 1.314 . S
C1801 H1842 0.930 . S
C1802 C1800 1.358 . S
C1802 N1803 1.279 . S
C1802 H1843 0.930 . S
N1803 C1801 1.314 . S
N1803 C1802 1.279 . S
C1804 C1806 1.353 . S
C1804 N1807 1.314 . S
C1804 H1810 0.930 . S
C1805 N1807 1.279 . S
C1805 C1808 1.358 . S
C1805 H1811 0.930 . S
C1806 C1804 1.353 . S
C1806 C1809 1.348 . S
C1806 H1844 0.929 . S
N1807 Li1762 1.990 . S
N1807 C1804 1.314 . S
N1807 C1805 1.279 . S
C1808 C1805 1.358 . S
C1808 C1809 1.356 . S
C1808 H1845 0.930 . S
C1809 C1806 1.348 . S
C1809 C1808 1.356 . S
H1810 C1804 0.930 . S
H1811 C1805 0.930 . S
C1812 N1813 1.314 . S
C1812 C1814 1.353 . S
C1812 H1818 0.930 . S
N1813 Li1763 1.990 . S
N1813 C1812 1.314 . S
N1813 C1816 1.279 . S
C1814 C1812 1.353 . S
C1814 C1817 1.348 . S
C1814 H1846 0.929 . S
C1815 C1816 1.358 . S
C1815 C1817 1.356 . S
C1815 H1847 0.930 . S
C1816 N1813 1.279 . S
C1816 C1815 1.358 . S
C1816 H1819 0.930 . S
C1817 C1814 1.348 . S
C1817 C1815 1.356 . S
H1818 C1812 0.930 . S
H1819 C1816 0.930 . S
O1820 Li1760 1.956 . S
O1820 Li1761 1.970 . S
O1820 Li1762 1.961 . S
O1820 C1764 1.325 . S
O1821 Li1760 1.970 . S
O1821 Li1761 1.956 . S
O1821 Li1763 1.961 . S
O1821 C1770 1.325 . S
O1822 Li1760 1.961 . S
O1822 Li1762 1.956 . S
O1822 Li1763 1.970 . S
O1822 C1792 1.325 . S
O1823 Li1761 1.961 . S
O1823 Li1762 1.970 . S
O1823 Li1763 1.956 . S
O1823 C1798 1.325 . S
H1824 C1766 0.929 . S
H1825 C1767 0.930 . S
H1826 C1768 0.930 . S
H1827 C1769 0.930 . S
H1828 C1771 0.930 . S
H1829 C1773 0.929 . S
H1830 C1774 0.930 . S
H1831 C1775 0.930 . S
H1832 C1778 0.930 . S
H1833 C1781 0.929 . S
H1834 C1786 0.929 . S
H1835 C1787 0.930 . S
H1836 C1794 0.929 . S
H1837 C1795 0.930 . S
H1838 C1796 0.930 . S
H1839 C1797 0.930 . S
H1840 C1799 0.929 . S
H1841 C1800 0.930 . S
H1842 C1801 0.930 . S
H1843 C1802 0.930 . S
H1844 C1806 0.929 . S
H1845 C1808 0.930 . S
H1846 C1814 0.929 . S
H1847 C1815 0.930 . S
Li1848 N1865 1.990 . S
Li1848 O1908 1.956 . S
Li1848 O1909 1.970 . S
Li1848 O1910 1.961 . S
Li1849 N1873 1.990 . S
Li1849 O1908 1.970 . S
Li1849 O1909 1.956 . S
Li1849 O1911 1.961 . S
Li1850 N1895 1.990 . S
Li1850 O1908 1.961 . S
Li1850 O1910 1.956 . S
Li1850 O1911 1.970 . S
Li1851 N1901 1.990 . S
Li1851 O1909 1.961 . S
Li1851 O1910 1.970 . S
Li1851 O1911 1.956 . S
C1852 C1854 1.348 . S
C1852 C1855 1.356 . S
C1852 O1908 1.325 . S
N1853 C1856 1.314 . S
N1853 C1857 1.279 . S
C1854 C1852 1.348 . S
C1854 C1856 1.353 . S
C1854 H1912 0.929 . S
C1855 C1852 1.356 . S
C1855 C1857 1.358 . S
C1855 H1913 0.930 . S
C1856 N1853 1.314 . S
C1856 C1854 1.353 . S
C1856 H1914 0.930 . S
C1857 N1853 1.279 . S
C1857 C1855 1.358 . S
C1857 H1915 0.930 . S
C1858 C1861 1.348 . S
C1858 C1862 1.356 . S
C1858 O1909 1.325 . S
C1859 N1860 1.279 . S
C1859 C1862 1.358 . S
C1859 H1916 0.930 . S
N1860 C1859 1.279 . S
N1860 C1863 1.314 . S
C1861 C1858 1.348 . S
C1861 C1863 1.353 . S
C1861 H1917 0.929 . S
C1862 C1858 1.356 . S
C1862 C1859 1.358 . S
C1862 H1918 0.930 . S
C1863 N1860 1.314 . S
C1863 C1861 1.353 . S
C1863 H1919 0.930 . S
C1864 N1865 1.314 . S
C1864 C1869 1.353 . S
C1864 H1870 0.930 . S
N1865 Li1848 1.990 . S
N1865 C1864 1.314 . S
N1865 C1867 1.279 . S
C1866 C1867 1.358 . S
C1866 C1868 1.356 . S
C1866 H1920 0.930 . S
C1867 N1865 1.279 . S
C1867 C1866 1.358 . S
C1867 H1871 0.930 . S
C1868 C1866 1.356 . S
C1868 C1869 1.348 . S
C1869 C1864 1.353 . S
C1869 C1868 1.348 . S
C1869 H1921 0.929 . S
H1870 C1864 0.930 . S
H1871 C1867 0.930 . S
C1872 N1873 1.314 . S
C1872 C1874 1.353 . S
C1872 H1878 0.930 . S
N1873 Li1849 1.990 . S
N1873 C1872 1.314 . S
N1873 C1876 1.279 . S
C1874 C1872 1.353 . S
C1874 C1877 1.348 . S
C1874 H1922 0.929 . S
C1875 C1876 1.358 . S
C1875 C1877 1.356 . S
C1875 H1923 0.930 . S
C1876 N1873 1.279 . S
C1876 C1875 1.358 . S
C1876 H1879 0.930 . S
C1877 C1874 1.348 . S
C1877 C1875 1.356 . S
H1878 C1872 0.930 . S
H1879 C1876 0.930 . S
C1880 C1882 1.348 . S
C1880 C1883 1.356 . S
C1880 O1910 1.325 . S
N1881 C1884 1.314 . S
N1881 C1885 1.279 . S
C1882 C1880 1.348 . S
C1882 C1884 1.353 . S
C1882 H1924 0.929 . S
C1883 C1880 1.356 . S
C1883 C1885 1.358 . S
C1883 H1925 0.930 . S
C1884 N1881 1.314 . S
C1884 C1882 1.353 . S
C1884 H1926 0.930 . S
C1885 N1881 1.279 . S
C1885 C1883 1.358 . S
C1885 H1927 0.930 . S
C1886 C1887 1.348 . S
C1886 C1888 1.356 . S
C1886 O1911 1.325 . S
C1887 C1886 1.348 . S
C1887 C1889 1.353 . S
C1887 H1928 0.929 . S
C1888 C1886 1.356 . S
C1888 C1890 1.358 . S
C1888 H1929 0.930 . S
C1889 C1887 1.353 . S
C1889 N1891 1.314 . S
C1889 H1930 0.930 . S
C1890 C1888 1.358 . S
C1890 N1891 1.279 . S
C1890 H1931 0.930 . S
N1891 C1889 1.314 . S
N1891 C1890 1.279 . S
C1892 C1894 1.353 . S
C1892 N1895 1.314 . S
C1892 H1898 0.930 . S
C1893 N1895 1.279 . S
C1893 C1896 1.358 . S
C1893 H1899 0.930 . S
C1894 C1892 1.353 . S
C1894 C1897 1.348 . S
C1894 H1932 0.929 . S
N1895 Li1850 1.990 . S
N1895 C1892 1.314 . S
N1895 C1893 1.279 . S
C1896 C1893 1.358 . S
C1896 C1897 1.356 . S
C1896 H1933 0.930 . S
C1897 C1894 1.348 . S
C1897 C1896 1.356 . S
H1898 C1892 0.930 . S
H1899 C1893 0.930 . S
C1900 N1901 1.314 . S
C1900 C1902 1.353 . S
C1900 H1906 0.930 . S
N1901 Li1851 1.990 . S
N1901 C1900 1.314 . S
N1901 C1904 1.279 . S
C1902 C1900 1.353 . S
C1902 C1905 1.348 . S
C1902 H1934 0.929 . S
C1903 C1904 1.358 . S
C1903 C1905 1.356 . S
C1903 H1935 0.930 . S
C1904 N1901 1.279 . S
C1904 C1903 1.358 . S
C1904 H1907 0.930 . S
C1905 C1902 1.348 . S
C1905 C1903 1.356 . S
H1906 C1900 0.930 . S
H1907 C1904 0.930 . S
O1908 Li1848 1.956 . S
O1908 Li1849 1.970 . S
O1908 Li1850 1.961 . S
O1908 C1852 1.325 . S
O1909 Li1848 1.970 . S
O1909 Li1849 1.956 . S
O1909 Li1851 1.961 . S
O1909 C1858 1.325 . S
O1910 Li1848 1.961 . S
O1910 Li1850 1.956 . S
O1910 Li1851 1.970 . S
O1910 C1880 1.325 . S
O1911 Li1849 1.961 . S
O1911 Li1850 1.970 . S
O1911 Li1851 1.956 . S
O1911 C1886 1.325 . S
H1912 C1854 0.929 . S
H1913 C1855 0.930 . S
H1914 C1856 0.930 . S
H1915 C1857 0.930 . S
H1916 C1859 0.930 . S
H1917 C1861 0.929 . S
H1918 C1862 0.930 . S
H1919 C1863 0.930 . S
H1920 C1866 0.930 . S
H1921 C1869 0.929 . S
H1922 C1874 0.929 . S
H1923 C1875 0.930 . S
H1924 C1882 0.929 . S
H1925 C1883 0.930 . S
H1926 C1884 0.930 . S
H1927 C1885 0.930 . S
H1928 C1887 0.929 . S
H1929 C1888 0.930 . S
H1930 C1889 0.930 . S
H1931 C1890 0.930 . S
H1932 C1894 0.929 . S
H1933 C1896 0.930 . S
H1934 C1902 0.929 . S
H1935 C1903 0.930 . S
Li1936 N1953 1.990 . S
Li1936 O1996 1.956 . S
Li1936 O1997 1.970 . S
Li1936 O1998 1.961 . S
Li1937 N1961 1.990 . S
Li1937 O1996 1.970 . S
Li1937 O1997 1.956 . S
Li1937 O1999 1.961 . S
Li1938 N1983 1.990 . S
Li1938 O1996 1.961 . S
Li1938 O1998 1.956 . S
Li1938 O1999 1.970 . S
Li1939 N1989 1.990 . S
Li1939 O1997 1.961 . S
Li1939 O1998 1.970 . S
Li1939 O1999 1.956 . S
C1940 C1942 1.348 . S
C1940 C1943 1.356 . S
C1940 O1996 1.325 . S
N1941 C1944 1.314 . S
N1941 C1945 1.279 . S
C1942 C1940 1.348 . S
C1942 C1944 1.353 . S
C1942 H2000 0.929 . S
C1943 C1940 1.356 . S
C1943 C1945 1.358 . S
C1943 H2001 0.930 . S
C1944 N1941 1.314 . S
C1944 C1942 1.353 . S
C1944 H2002 0.930 . S
C1945 N1941 1.279 . S
C1945 C1943 1.358 . S
C1945 H2003 0.930 . S
C1946 C1949 1.348 . S
C1946 C1950 1.356 . S
C1946 O1997 1.325 . S
C1947 N1948 1.279 . S
C1947 C1950 1.358 . S
C1947 H2004 0.930 . S
N1948 C1947 1.279 . S
N1948 C1951 1.314 . S
C1949 C1946 1.348 . S
C1949 C1951 1.353 . S
C1949 H2005 0.929 . S
C1950 C1946 1.356 . S
C1950 C1947 1.358 . S
C1950 H2006 0.930 . S
C1951 N1948 1.314 . S
C1951 C1949 1.353 . S
C1951 H2007 0.930 . S
C1952 N1953 1.314 . S
C1952 C1957 1.353 . S
C1952 H1958 0.930 . S
N1953 Li1936 1.990 . S
N1953 C1952 1.314 . S
N1953 C1955 1.279 . S
C1954 C1955 1.358 . S
C1954 C1956 1.356 . S
C1954 H2008 0.930 . S
C1955 N1953 1.279 . S
C1955 C1954 1.358 . S
C1955 H1959 0.930 . S
C1956 C1954 1.356 . S
C1956 C1957 1.348 . S
C1957 C1952 1.353 . S
C1957 C1956 1.348 . S
C1957 H2009 0.929 . S
H1958 C1952 0.930 . S
H1959 C1955 0.930 . S
C1960 N1961 1.314 . S
C1960 C1962 1.353 . S
C1960 H1966 0.930 . S
N1961 Li1937 1.990 . S
N1961 C1960 1.314 . S
N1961 C1964 1.279 . S
C1962 C1960 1.353 . S
C1962 C1965 1.348 . S
C1962 H2010 0.929 . S
C1963 C1964 1.358 . S
C1963 C1965 1.356 . S
C1963 H2011 0.930 . S
C1964 N1961 1.279 . S
C1964 C1963 1.358 . S
C1964 H1967 0.930 . S
C1965 C1962 1.348 . S
C1965 C1963 1.356 . S
H1966 C1960 0.930 . S
H1967 C1964 0.930 . S
C1968 C1970 1.348 . S
C1968 C1971 1.356 . S
C1968 O1998 1.325 . S
N1969 C1972 1.314 . S
N1969 C1973 1.279 . S
C1970 C1968 1.348 . S
C1970 C1972 1.353 1_554 S
C1970 H2012 0.929 . S
C1971 C1968 1.356 . S
C1971 C1973 1.358 1_554 S
C1971 H2013 0.930 . S
C1972 N1969 1.314 . S
C1972 C1970 1.353 1_556 S
C1972 H2014 0.930 . S
C1973 N1969 1.279 . S
C1973 C1971 1.358 1_556 S
C1973 H2015 0.930 . S
C1974 C1975 1.348 . S
C1974 C1976 1.356 . S
C1974 O1999 1.325 . S
C1975 C1974 1.348 . S
C1975 C1977 1.353 . S
C1975 H2016 0.929 . S
C1976 C1974 1.356 . S
C1976 C1978 1.358 . S
C1976 H2017 0.930 . S
C1977 C1975 1.353 . S
C1977 N1979 1.314 . S
C1977 H2018 0.930 . S
C1978 C1976 1.358 . S
C1978 N1979 1.279 . S
C1978 H2019 0.930 . S
N1979 C1977 1.314 . S
N1979 C1978 1.279 . S
C1980 C1982 1.353 . S
C1980 N1983 1.314 . S
C1980 H1986 0.930 . S
C1981 N1983 1.279 . S
C1981 C1984 1.358 . S
C1981 H1987 0.930 . S
C1982 C1980 1.353 . S
C1982 C1985 1.348 . S
C1982 H2020 0.929 . S
N1983 Li1938 1.990 . S
N1983 C1980 1.314 . S
N1983 C1981 1.279 . S
C1984 C1981 1.358 . S
C1984 C1985 1.356 . S
C1984 H2021 0.930 . S
C1985 C1982 1.348 . S
C1985 C1984 1.356 . S
H1986 C1980 0.930 . S
H1987 C1981 0.930 . S
C1988 N1989 1.314 . S
C1988 C1990 1.353 . S
C1988 H1994 0.930 . S
N1989 Li1939 1.990 . S
N1989 C1988 1.314 . S
N1989 C1992 1.279 . S
C1990 C1988 1.353 . S
C1990 C1993 1.348 . S
C1990 H2022 0.929 . S
C1991 C1992 1.358 . S
C1991 C1993 1.356 . S
C1991 H2023 0.930 . S
C1992 N1989 1.279 . S
C1992 C1991 1.358 . S
C1992 H1995 0.930 . S
C1993 C1990 1.348 . S
C1993 C1991 1.356 . S
H1994 C1988 0.930 . S
H1995 C1992 0.930 . S
O1996 Li1936 1.956 . S
O1996 Li1937 1.970 . S
O1996 Li1938 1.961 . S
O1996 C1940 1.325 . S
O1997 Li1936 1.970 . S
O1997 Li1937 1.956 . S
O1997 Li1939 1.961 . S
O1997 C1946 1.325 . S
O1998 Li1936 1.961 . S
O1998 Li1938 1.956 . S
O1998 Li1939 1.970 . S
O1998 C1968 1.325 . S
O1999 Li1937 1.961 . S
O1999 Li1938 1.970 . S
O1999 Li1939 1.956 . S
O1999 C1974 1.325 . S
H2000 C1942 0.929 . S
H2001 C1943 0.930 . S
H2002 C1944 0.930 . S
H2003 C1945 0.930 . S
H2004 C1947 0.930 . S
H2005 C1949 0.929 . S
H2006 C1950 0.930 . S
H2007 C1951 0.930 . S
H2008 C1954 0.930 . S
H2009 C1957 0.929 . S
H2010 C1962 0.929 . S
H2011 C1963 0.930 . S
H2012 C1970 0.929 . S
H2013 C1971 0.930 . S
H2014 C1972 0.930 . S
H2015 C1973 0.930 . S
H2016 C1975 0.929 . S
H2017 C1976 0.930 . S
H2018 C1977 0.930 . S
H2019 C1978 0.930 . S
H2020 C1982 0.929 . S
H2021 C1984 0.930 . S
H2022 C1990 0.929 . S
H2023 C1991 0.930 . S
Li2024 N2041 1.990 . S
Li2024 O2084 1.956 . S
Li2024 O2085 1.970 . S
Li2024 O2086 1.961 . S
Li2025 N2049 1.990 . S
Li2025 O2084 1.970 . S
Li2025 O2085 1.956 . S
Li2025 O2087 1.961 . S
Li2026 N2071 1.990 . S
Li2026 O2084 1.961 . S
Li2026 O2086 1.956 . S
Li2026 O2087 1.970 . S
Li2027 N2077 1.990 . S
Li2027 O2085 1.961 . S
Li2027 O2086 1.970 . S
Li2027 O2087 1.956 . S
C2028 C2030 1.348 . S
C2028 C2031 1.356 . S
C2028 O2084 1.325 . S
N2029 C2032 1.314 . S
N2029 C2033 1.279 . S
C2030 C2028 1.348 . S
C2030 C2032 1.353 . S
C2030 H2088 0.929 . S
C2031 C2028 1.356 . S
C2031 C2033 1.358 . S
C2031 H2089 0.930 . S
C2032 N2029 1.314 . S
C2032 C2030 1.353 . S
C2032 H2090 0.930 . S
C2033 N2029 1.279 . S
C2033 C2031 1.358 . S
C2033 H2091 0.930 . S
C2034 C2037 1.348 . S
C2034 C2038 1.356 . S
C2034 O2085 1.325 . S
C2035 N2036 1.279 . S
C2035 C2038 1.358 . S
C2035 H2092 0.930 . S
N2036 C2035 1.279 . S
N2036 C2039 1.314 . S
C2037 C2034 1.348 . S
C2037 C2039 1.353 . S
C2037 H2093 0.929 . S
C2038 C2034 1.356 . S
C2038 C2035 1.358 . S
C2038 H2094 0.930 . S
C2039 N2036 1.314 . S
C2039 C2037 1.353 . S
C2039 H2095 0.930 . S
C2040 N2041 1.314 . S
C2040 C2045 1.353 . S
C2040 H2046 0.930 . S
N2041 Li2024 1.990 . S
N2041 C2040 1.314 . S
N2041 C2043 1.279 . S
C2042 C2043 1.358 . S
C2042 C2044 1.356 . S
C2042 H2096 0.930 . S
C2043 N2041 1.279 . S
C2043 C2042 1.358 . S
C2043 H2047 0.930 . S
C2044 C2042 1.356 . S
C2044 C2045 1.348 . S
C2045 C2040 1.353 . S
C2045 C2044 1.348 . S
C2045 H2097 0.929 . S
H2046 C2040 0.930 . S
H2047 C2043 0.930 . S
C2048 N2049 1.314 . S
C2048 C2050 1.353 . S
C2048 H2054 0.930 . S
N2049 Li2025 1.990 . S
N2049 C2048 1.314 . S
N2049 C2052 1.279 . S
C2050 C2048 1.353 . S
C2050 C2053 1.348 . S
C2050 H2098 0.929 . S
C2051 C2052 1.358 . S
C2051 C2053 1.356 . S
C2051 H2099 0.930 . S
C2052 N2049 1.279 . S
C2052 C2051 1.358 . S
C2052 H2055 0.930 . S
C2053 C2050 1.348 . S
C2053 C2051 1.356 . S
H2054 C2048 0.930 . S
H2055 C2052 0.930 . S
C2056 C2058 1.348 . S
C2056 C2059 1.356 . S
C2056 O2086 1.325 . S
N2057 C2060 1.314 . S
N2057 C2061 1.279 . S
C2058 C2056 1.348 . S
C2058 C2060 1.353 . S
C2058 H2100 0.929 . S
C2059 C2056 1.356 . S
C2059 C2061 1.358 . S
C2059 H2101 0.930 . S
C2060 N2057 1.314 . S
C2060 C2058 1.353 . S
C2060 H2102 0.930 . S
C2061 N2057 1.279 . S
C2061 C2059 1.358 . S
C2061 H2103 0.930 . S
C2062 C2063 1.348 . S
C2062 C2064 1.356 . S
C2062 O2087 1.325 . S
C2063 C2062 1.348 . S
C2063 C2065 1.353 . S
C2063 H2104 0.929 . S
C2064 C2062 1.356 . S
C2064 C2066 1.358 . S
C2064 H2105 0.930 . S
C2065 C2063 1.353 . S
C2065 N2067 1.314 . S
C2065 H2106 0.930 . S
C2066 C2064 1.358 . S
C2066 N2067 1.279 . S
C2066 H2107 0.930 . S
N2067 C2065 1.314 . S
N2067 C2066 1.279 . S
C2068 C2070 1.353 . S
C2068 N2071 1.314 . S
C2068 H2074 0.930 . S
C2069 N2071 1.279 . S
C2069 C2072 1.358 . S
C2069 H2075 0.930 . S
C2070 C2068 1.353 . S
C2070 C2073 1.348 . S
C2070 H2108 0.929 . S
N2071 Li2026 1.990 . S
N2071 C2068 1.314 . S
N2071 C2069 1.279 . S
C2072 C2069 1.358 . S
C2072 C2073 1.356 . S
C2072 H2109 0.930 . S
C2073 C2070 1.348 . S
C2073 C2072 1.356 . S
H2074 C2068 0.930 . S
H2075 C2069 0.930 . S
C2076 N2077 1.314 . S
C2076 C2078 1.353 . S
C2076 H2082 0.930 . S
N2077 Li2027 1.990 . S
N2077 C2076 1.314 . S
N2077 C2080 1.279 . S
C2078 C2076 1.353 . S
C2078 C2081 1.348 . S
C2078 H2110 0.929 . S
C2079 C2080 1.358 . S
C2079 C2081 1.356 . S
C2079 H2111 0.930 . S
C2080 N2077 1.279 . S
C2080 C2079 1.358 . S
C2080 H2083 0.930 . S
C2081 C2078 1.348 . S
C2081 C2079 1.356 . S
H2082 C2076 0.930 . S
H2083 C2080 0.930 . S
O2084 Li2024 1.956 . S
O2084 Li2025 1.970 . S
O2084 Li2026 1.961 . S
O2084 C2028 1.325 . S
O2085 Li2024 1.970 . S
O2085 Li2025 1.956 . S
O2085 Li2027 1.961 . S
O2085 C2034 1.325 . S
O2086 Li2024 1.961 . S
O2086 Li2026 1.956 . S
O2086 Li2027 1.970 . S
O2086 C2056 1.325 . S
O2087 Li2025 1.961 . S
O2087 Li2026 1.970 . S
O2087 Li2027 1.956 . S
O2087 C2062 1.325 . S
H2088 C2030 0.929 . S
H2089 C2031 0.930 . S
H2090 C2032 0.930 . S
H2091 C2033 0.930 . S
H2092 C2035 0.930 . S
H2093 C2037 0.929 . S
H2094 C2038 0.930 . S
H2095 C2039 0.930 . S
H2096 C2042 0.930 . S
H2097 C2045 0.929 . S
H2098 C2050 0.929 . S
H2099 C2051 0.930 . S
H2100 C2058 0.929 . S
H2101 C2059 0.930 . S
H2102 C2060 0.930 . S
H2103 C2061 0.930 . S
H2104 C2063 0.929 . S
H2105 C2064 0.930 . S
H2106 C2065 0.930 . S
H2107 C2066 0.930 . S
H2108 C2070 0.929 . S
H2109 C2072 0.930 . S
H2110 C2078 0.929 . S
H2111 C2079 0.930 . S
C2112 C2113 1.349 . S
C2112 C2114 1.327 . S
C2112 H2137 0.950 . S
C2113 C2112 1.349 . S
C2113 C2129 1.349 . S
C2114 C2112 1.327 . S
C2114 C2133 1.429 . S
C2114 H2138 0.950 . S
C2115 C2132 1.574 . S
C2115 C2134 1.368 . S
C2115 H2139 0.949 . S
H2116 C2120 0.949 . S
C2117 C2118 1.349 . S
C2117 C2119 1.327 . S
C2117 H2140 0.950 . S
C2118 C2117 1.349 . S
C2118 C2130 1.349 . S
C2119 C2117 1.327 . S
C2119 C2135 1.429 . S
C2119 H2141 0.950 . S
C2120 H2116 0.949 . S
C2120 C2128 1.574 . S
C2120 C2136 1.368 . S
H2121 C2129 0.950 . S
H2122 C2127 0.950 . S
H2123 C2128 0.949 . S
H2124 C2130 0.950 . S
H2125 C2131 0.950 . S
H2126 C2132 0.949 . S
C2127 H2122 0.950 . S
C2127 C2129 1.327 . S
C2127 C2133 1.429 . S
C2128 C2120 1.574 . S
C2128 H2123 0.949 . S
C2128 C2134 1.368 . S
C2129 C2113 1.349 . S
C2129 H2121 0.950 . S
C2129 C2127 1.327 . S
C2130 C2118 1.349 . S
C2130 H2124 0.950 . S
C2130 C2131 1.327 . S
C2131 H2125 0.950 . S
C2131 C2130 1.327 . S
C2131 C2135 1.429 . S
C2132 C2115 1.574 . S
C2132 H2126 0.949 . S
C2132 C2136 1.368 . S
C2133 C2114 1.429 . S
C2133 C2127 1.429 . S
C2133 C2134 1.523 . S
C2134 C2115 1.368 . S
C2134 C2128 1.368 . S
C2134 C2133 1.523 . S
C2135 C2119 1.429 . S
C2135 C2131 1.429 . S
C2135 C2136 1.523 . S
C2136 C2120 1.368 . S
C2136 C2132 1.368 . S
C2136 C2135 1.523 . S
H2137 C2112 0.950 . S
H2138 C2114 0.950 . S
H2139 C2115 0.949 . S
H2140 C2117 0.950 . S
H2141 C2119 0.950 . S
C2142 C2143 1.349 . S
C2142 C2144 1.327 . S
C2142 H2167 0.950 . S
C2143 C2142 1.349 . S
C2143 C2159 1.349 . S
C2144 C2142 1.327 . S
C2144 C2163 1.429 . S
C2144 H2168 0.950 . S
C2145 C2162 1.574 . S
C2145 C2164 1.368 . S
C2145 H2169 0.949 . S
H2146 C2150 0.949 . S
C2147 C2148 1.349 . S
C2147 C2149 1.327 . S
C2147 H2170 0.950 . S
C2148 C2147 1.349 . S
C2148 C2160 1.349 . S
C2149 C2147 1.327 . S
C2149 C2165 1.429 . S
C2149 H2171 0.950 . S
C2150 H2146 0.949 . S
C2150 C2158 1.574 . S
C2150 C2166 1.368 . S
H2151 C2159 0.950 . S
H2152 C2157 0.950 . S
H2153 C2158 0.949 . S
H2154 C2160 0.950 . S
H2155 C2161 0.950 . S
H2156 C2162 0.949 . S
C2157 H2152 0.950 . S
C2157 C2159 1.327 . S
C2157 C2163 1.429 . S
C2158 C2150 1.574 . S
C2158 H2153 0.949 . S
C2158 C2164 1.368 . S
C2159 C2143 1.349 . S
C2159 H2151 0.950 . S
C2159 C2157 1.327 . S
C2160 C2148 1.349 . S
C2160 H2154 0.950 . S
C2160 C2161 1.327 . S
C2161 H2155 0.950 . S
C2161 C2160 1.327 . S
C2161 C2165 1.429 . S
C2162 C2145 1.574 . S
C2162 H2156 0.949 . S
C2162 C2166 1.368 . S
C2163 C2144 1.429 . S
C2163 C2157 1.429 . S
C2163 C2164 1.523 . S
C2164 C2145 1.368 . S
C2164 C2158 1.368 . S
C2164 C2163 1.523 . S
C2165 C2149 1.429 . S
C2165 C2161 1.429 . S
C2165 C2166 1.523 . S
C2166 C2150 1.368 . S
C2166 C2162 1.368 . S
C2166 C2165 1.523 . S
H2167 C2142 0.950 . S
H2168 C2144 0.950 . S
H2169 C2145 0.949 . S
H2170 C2147 0.950 . S
H2171 C2149 0.950 . S
C2172 C2173 1.349 . S
C2172 C2174 1.327 . S
C2172 H2197 0.950 . S
C2173 C2172 1.349 . S
C2173 C2189 1.349 . S
C2174 C2172 1.327 . S
C2174 C2193 1.429 . S
C2174 H2198 0.950 . S
C2175 C2192 1.574 . S
C2175 C2194 1.368 . S
C2175 H2199 0.949 . S
H2176 C2180 0.949 . S
C2177 C2178 1.349 . S
C2177 C2179 1.327 . S
C2177 H2200 0.950 . S
C2178 C2177 1.349 . S
C2178 C2190 1.349 . S
C2179 C2177 1.327 . S
C2179 C2195 1.429 . S
C2179 H2201 0.950 . S
C2180 H2176 0.949 . S
C2180 C2188 1.574 . S
C2180 C2196 1.368 . S
H2181 C2189 0.950 . S
H2182 C2187 0.950 . S
H2183 C2188 0.949 . S
H2184 C2190 0.950 . S
H2185 C2191 0.950 . S
H2186 C2192 0.949 . S
C2187 H2182 0.950 . S
C2187 C2189 1.327 . S
C2187 C2193 1.429 . S
C2188 C2180 1.574 . S
C2188 H2183 0.949 . S
C2188 C2194 1.368 . S
C2189 C2173 1.349 . S
C2189 H2181 0.950 . S
C2189 C2187 1.327 . S
C2190 C2178 1.349 . S
C2190 H2184 0.950 . S
C2190 C2191 1.327 . S
C2191 H2185 0.950 . S
C2191 C2190 1.327 . S
C2191 C2195 1.429 . S
C2192 C2175 1.574 . S
C2192 H2186 0.949 . S
C2192 C2196 1.368 . S
C2193 C2174 1.429 . S
C2193 C2187 1.429 . S
C2193 C2194 1.523 . S
C2194 C2175 1.368 . S
C2194 C2188 1.368 . S
C2194 C2193 1.523 . S
C2195 C2179 1.429 . S
C2195 C2191 1.429 . S
C2195 C2196 1.523 . S
C2196 C2180 1.368 . S
C2196 C2192 1.368 . S
C2196 C2195 1.523 . S
H2197 C2172 0.950 . S
H2198 C2174 0.950 . S
H2199 C2175 0.949 . S
H2200 C2177 0.950 . S
H2201 C2179 0.950 . S
C2202 C2203 1.349 . S
C2202 C2204 1.327 . S
C2202 H2227 0.950 . S
C2203 C2202 1.349 . S
C2203 C2219 1.349 . S
C2204 C2202 1.327 . S
C2204 C2223 1.429 . S
C2204 H2228 0.950 . S
C2205 C2222 1.574 . S
C2205 C2224 1.368 . S
C2205 H2229 0.949 . S
H2206 C2210 0.949 . S
C2207 C2208 1.349 . S
C2207 C2209 1.327 . S
C2207 H2230 0.950 . S
C2208 C2207 1.349 . S
C2208 C2220 1.349 . S
C2209 C2207 1.327 . S
C2209 C2225 1.429 . S
C2209 H2231 0.950 . S
C2210 H2206 0.949 . S
C2210 C2218 1.574 . S
C2210 C2226 1.368 . S
H2211 C2219 0.950 . S
H2212 C2217 0.950 . S
H2213 C2218 0.949 . S
H2214 C2220 0.950 . S
H2215 C2221 0.950 . S
H2216 C2222 0.949 . S
C2217 H2212 0.950 . S
C2217 C2219 1.327 . S
C2217 C2223 1.429 . S
C2218 C2210 1.574 . S
C2218 H2213 0.949 . S
C2218 C2224 1.368 . S
C2219 C2203 1.349 . S
C2219 H2211 0.950 . S
C2219 C2217 1.327 . S
C2220 C2208 1.349 . S
C2220 H2214 0.950 . S
C2220 C2221 1.327 . S
C2221 H2215 0.950 . S
C2221 C2220 1.327 . S
C2221 C2225 1.429 . S
C2222 C2205 1.574 . S
C2222 H2216 0.949 . S
C2222 C2226 1.368 . S
C2223 C2204 1.429 . S
C2223 C2217 1.429 . S
C2223 C2224 1.523 . S
C2224 C2205 1.368 . S
C2224 C2218 1.368 . S
C2224 C2223 1.523 . S
C2225 C2209 1.429 . S
C2225 C2221 1.429 . S
C2225 C2226 1.523 . S
C2226 C2210 1.368 . S
C2226 C2222 1.368 . S
C2226 C2225 1.523 . S
H2227 C2202 0.950 . S
H2228 C2204 0.950 . S
H2229 C2205 0.949 . S
H2230 C2207 0.950 . S
H2231 C2209 0.950 . S
C2232 C2233 1.349 . S
C2232 C2234 1.327 . S
C2232 H2257 0.950 . S
C2233 C2232 1.349 . S
C2233 C2249 1.349 . S
C2234 C2232 1.327 . S
C2234 C2253 1.429 . S
C2234 H2258 0.950 . S
C2235 C2252 1.574 . S
C2235 C2254 1.368 . S
C2235 H2259 0.949 . S
H2236 C2240 0.949 . S
C2237 C2238 1.349 . S
C2237 C2239 1.327 . S
C2237 H2260 0.950 . S
C2238 C2237 1.349 . S
C2238 C2250 1.349 . S
C2239 C2237 1.327 . S
C2239 C2255 1.429 . S
C2239 H2261 0.950 . S
C2240 H2236 0.949 . S
C2240 C2248 1.574 . S
C2240 C2256 1.368 . S
H2241 C2249 0.950 . S
H2242 C2247 0.950 . S
H2243 C2248 0.949 . S
H2244 C2250 0.950 . S
H2245 C2251 0.950 . S
H2246 C2252 0.949 . S
C2247 H2242 0.950 . S
C2247 C2249 1.327 . S
C2247 C2253 1.429 . S
C2248 C2240 1.574 . S
C2248 H2243 0.949 . S
C2248 C2254 1.368 . S
C2249 C2233 1.349 . S
C2249 H2241 0.950 . S
C2249 C2247 1.327 . S
C2250 C2238 1.349 . S
C2250 H2244 0.950 . S
C2250 C2251 1.327 . S
C2251 H2245 0.950 . S
C2251 C2250 1.327 . S
C2251 C2255 1.429 . S
C2252 C2235 1.574 . S
C2252 H2246 0.949 . S
C2252 C2256 1.368 . S
C2253 C2234 1.429 . S
C2253 C2247 1.429 . S
C2253 C2254 1.523 . S
C2254 C2235 1.368 . S
C2254 C2248 1.368 . S
C2254 C2253 1.523 . S
C2255 C2239 1.429 . S
C2255 C2251 1.429 . S
C2255 C2256 1.523 . S
C2256 C2240 1.368 . S
C2256 C2252 1.368 . S
C2256 C2255 1.523 . S
H2257 C2232 0.950 . S
H2258 C2234 0.950 . S
H2259 C2235 0.949 . S
H2260 C2237 0.950 . S
H2261 C2239 0.950 . S
C2262 C2263 1.349 . S
C2262 C2264 1.327 . S
C2262 H2287 0.950 . S
C2263 C2262 1.349 . S
C2263 C2279 1.349 . S
C2264 C2262 1.327 . S
C2264 C2283 1.429 . S
C2264 H2288 0.950 . S
C2265 C2282 1.574 . S
C2265 C2284 1.368 . S
C2265 H2289 0.949 . S
H2266 C2270 0.949 . S
C2267 C2268 1.349 . S
C2267 C2269 1.327 . S
C2267 H2290 0.950 . S
C2268 C2267 1.349 . S
C2268 C2280 1.349 . S
C2269 C2267 1.327 . S
C2269 C2285 1.429 . S
C2269 H2291 0.950 . S
C2270 H2266 0.949 . S
C2270 C2278 1.574 . S
C2270 C2286 1.368 . S
H2271 C2279 0.950 . S
H2272 C2277 0.950 . S
H2273 C2278 0.949 . S
H2274 C2280 0.950 . S
H2275 C2281 0.950 . S
H2276 C2282 0.949 . S
C2277 H2272 0.950 . S
C2277 C2279 1.327 . S
C2277 C2283 1.429 . S
C2278 C2270 1.574 . S
C2278 H2273 0.949 . S
C2278 C2284 1.368 . S
C2279 C2263 1.349 . S
C2279 H2271 0.950 . S
C2279 C2277 1.327 . S
C2280 C2268 1.349 . S
C2280 H2274 0.950 . S
C2280 C2281 1.327 . S
C2281 H2275 0.950 . S
C2281 C2280 1.327 . S
C2281 C2285 1.429 . S
C2282 C2265 1.574 . S
C2282 H2276 0.949 . S
C2282 C2286 1.368 . S
C2283 C2264 1.429 . S
C2283 C2277 1.429 . S
C2283 C2284 1.523 . S
C2284 C2265 1.368 . S
C2284 C2278 1.368 . S
C2284 C2283 1.523 . S
C2285 C2269 1.429 . S
C2285 C2281 1.429 . S
C2285 C2286 1.523 . S
C2286 C2270 1.368 . S
C2286 C2282 1.368 . S
C2286 C2285 1.523 . S
H2287 C2262 0.950 . S
H2288 C2264 0.950 . S
H2289 C2265 0.949 . S
H2290 C2267 0.950 . S
H2291 C2269 0.950 . S
C2292 C2293 1.349 . S
C2292 C2294 1.327 . S
C2292 H2317 0.950 . S
C2293 C2292 1.349 . S
C2293 C2309 1.349 . S
C2294 C2292 1.327 . S
C2294 C2313 1.429 . S
C2294 H2318 0.950 . S
C2295 C2312 1.574 . S
C2295 C2314 1.368 . S
C2295 H2319 0.949 . S
H2296 C2300 0.949 . S
C2297 C2298 1.349 . S
C2297 C2299 1.327 . S
C2297 H2320 0.950 . S
C2298 C2297 1.349 . S
C2298 C2310 1.349 . S
C2299 C2297 1.327 . S
C2299 C2315 1.429 . S
C2299 H2321 0.950 . S
C2300 H2296 0.949 . S
C2300 C2308 1.574 . S
C2300 C2316 1.368 . S
H2301 C2309 0.950 . S
H2302 C2307 0.950 . S
H2303 C2308 0.949 . S
H2304 C2310 0.950 . S
H2305 C2311 0.950 . S
H2306 C2312 0.949 . S
C2307 H2302 0.950 . S
C2307 C2309 1.327 . S
C2307 C2313 1.429 . S
C2308 C2300 1.574 . S
C2308 H2303 0.949 . S
C2308 C2314 1.368 . S
C2309 C2293 1.349 . S
C2309 H2301 0.950 . S
C2309 C2307 1.327 . S
C2310 C2298 1.349 . S
C2310 H2304 0.950 . S
C2310 C2311 1.327 . S
C2311 H2305 0.950 . S
C2311 C2310 1.327 . S
C2311 C2315 1.429 . S
C2312 C2295 1.574 . S
C2312 H2306 0.949 . S
C2312 C2316 1.368 . S
C2313 C2294 1.429 . S
C2313 C2307 1.429 . S
C2313 C2314 1.523 . S
C2314 C2295 1.368 . S
C2314 C2308 1.368 . S
C2314 C2313 1.523 . S
C2315 C2299 1.429 . S
C2315 C2311 1.429 . S
C2315 C2316 1.523 . S
C2316 C2300 1.368 . S
C2316 C2312 1.368 . S
C2316 C2315 1.523 . S
H2317 C2292 0.950 . S
H2318 C2294 0.950 . S
H2319 C2295 0.949 . S
H2320 C2297 0.950 . S
H2321 C2299 0.950 . S
C2322 C2323 1.349 . S
C2322 C2324 1.327 . S
C2322 H2347 0.950 . S
C2323 C2322 1.349 . S
C2323 C2339 1.349 . S
C2324 C2322 1.327 . S
C2324 C2343 1.429 . S
C2324 H2348 0.950 . S
C2325 C2342 1.574 . S
C2325 C2344 1.368 . S
C2325 H2349 0.949 . S
H2326 C2330 0.949 . S
C2327 C2328 1.349 . S
C2327 C2329 1.327 . S
C2327 H2350 0.950 . S
C2328 C2327 1.349 . S
C2328 C2340 1.349 . S
C2329 C2327 1.327 . S
C2329 C2345 1.429 . S
C2329 H2351 0.950 . S
C2330 H2326 0.949 . S
C2330 C2338 1.574 . S
C2330 C2346 1.368 . S
H2331 C2339 0.950 . S
H2332 C2337 0.950 . S
H2333 C2338 0.949 . S
H2334 C2340 0.950 . S
H2335 C2341 0.950 . S
H2336 C2342 0.949 . S
C2337 H2332 0.950 . S
C2337 C2339 1.327 . S
C2337 C2343 1.429 . S
C2338 C2330 1.574 . S
C2338 H2333 0.949 . S
C2338 C2344 1.368 . S
C2339 C2323 1.349 . S
C2339 H2331 0.950 . S
C2339 C2337 1.327 . S
C2340 C2328 1.349 . S
C2340 H2334 0.950 . S
C2340 C2341 1.327 . S
C2341 H2335 0.950 . S
C2341 C2340 1.327 . S
C2341 C2345 1.429 . S
C2342 C2325 1.574 . S
C2342 H2336 0.949 . S
C2342 C2346 1.368 . S
C2343 C2324 1.429 . S
C2343 C2337 1.429 . S
C2343 C2344 1.523 . S
C2344 C2325 1.368 . S
C2344 C2338 1.368 . S
C2344 C2343 1.523 . S
C2345 C2329 1.429 . S
C2345 C2341 1.429 . S
C2345 C2346 1.523 . S
C2346 C2330 1.368 . S
C2346 C2342 1.368 . S
C2346 C2345 1.523 . S
H2347 C2322 0.950 . S
H2348 C2324 0.950 . S
H2349 C2325 0.949 . S
H2350 C2327 0.950 . S
H2351 C2329 0.950 . S
C2352 C2353 1.349 . S
C2352 C2354 1.327 . S
C2352 H2377 0.950 . S
C2353 C2352 1.349 . S
C2353 C2369 1.349 . S
C2354 C2352 1.327 . S
C2354 C2373 1.429 . S
C2354 H2378 0.950 . S
C2355 C2372 1.574 . S
C2355 C2374 1.368 . S
C2355 H2379 0.949 . S
H2356 C2360 0.949 . S
C2357 C2358 1.349 . S
C2357 C2359 1.327 . S
C2357 H2380 0.950 . S
C2358 C2357 1.349 . S
C2358 C2370 1.349 . S
C2359 C2357 1.327 . S
C2359 C2375 1.429 . S
C2359 H2381 0.950 . S
C2360 H2356 0.949 . S
C2360 C2368 1.574 . S
C2360 C2376 1.368 . S
H2361 C2369 0.950 . S
H2362 C2367 0.950 . S
H2363 C2368 0.949 . S
H2364 C2370 0.950 . S
H2365 C2371 0.950 . S
H2366 C2372 0.949 . S
C2367 H2362 0.950 . S
C2367 C2369 1.327 . S
C2367 C2373 1.429 . S
C2368 C2360 1.574 . S
C2368 H2363 0.949 . S
C2368 C2374 1.368 . S
C2369 C2353 1.349 . S
C2369 H2361 0.950 . S
C2369 C2367 1.327 . S
C2370 C2358 1.349 . S
C2370 H2364 0.950 . S
C2370 C2371 1.327 . S
C2371 H2365 0.950 . S
C2371 C2370 1.327 . S
C2371 C2375 1.429 . S
C2372 C2355 1.574 . S
C2372 H2366 0.949 . S
C2372 C2376 1.368 . S
C2373 C2354 1.429 . S
C2373 C2367 1.429 . S
C2373 C2374 1.523 . S
C2374 C2355 1.368 . S
C2374 C2368 1.368 . S
C2374 C2373 1.523 . S
C2375 C2359 1.429 . S
C2375 C2371 1.429 . S
C2375 C2376 1.523 . S
C2376 C2360 1.368 . S
C2376 C2372 1.368 . S
C2376 C2375 1.523 . S
H2377 C2352 0.950 . S
H2378 C2354 0.950 . S
H2379 C2355 0.949 . S
H2380 C2357 0.950 . S
H2381 C2359 0.950 . S
C2382 C2383 1.349 . S
C2382 C2384 1.327 . S
C2382 H2407 0.950 . S
C2383 C2382 1.349 . S
C2383 C2399 1.349 . S
C2384 C2382 1.327 . S
C2384 C2403 1.429 . S
C2384 H2408 0.950 . S
C2385 C2402 1.574 . S
C2385 C2404 1.368 . S
C2385 H2409 0.949 . S
H2386 C2390 0.949 . S
C2387 C2388 1.349 . S
C2387 C2389 1.327 . S
C2387 H2410 0.950 . S
C2388 C2387 1.349 . S
C2388 C2400 1.349 . S
C2389 C2387 1.327 . S
C2389 C2405 1.429 . S
C2389 H2411 0.950 . S
C2390 H2386 0.949 . S
C2390 C2398 1.574 . S
C2390 C2406 1.368 . S
H2391 C2399 0.950 . S
H2392 C2397 0.950 . S
H2393 C2398 0.949 . S
H2394 C2400 0.950 . S
H2395 C2401 0.950 . S
H2396 C2402 0.949 . S
C2397 H2392 0.950 . S
C2397 C2399 1.327 . S
C2397 C2403 1.429 . S
C2398 C2390 1.574 . S
C2398 H2393 0.949 . S
C2398 C2404 1.368 . S
C2399 C2383 1.349 . S
C2399 H2391 0.950 . S
C2399 C2397 1.327 . S
C2400 C2388 1.349 . S
C2400 H2394 0.950 . S
C2400 C2401 1.327 . S
C2401 H2395 0.950 . S
C2401 C2400 1.327 . S
C2401 C2405 1.429 . S
C2402 C2385 1.574 . S
C2402 H2396 0.949 . S
C2402 C2406 1.368 . S
C2403 C2384 1.429 . S
C2403 C2397 1.429 . S
C2403 C2404 1.523 . S
C2404 C2385 1.368 . S
C2404 C2398 1.368 . S
C2404 C2403 1.523 . S
C2405 C2389 1.429 . S
C2405 C2401 1.429 . S
C2405 C2406 1.523 . S
C2406 C2390 1.368 . S
C2406 C2402 1.368 . S
C2406 C2405 1.523 . S
H2407 C2382 0.950 . S
H2408 C2384 0.950 . S
H2409 C2385 0.949 . S
H2410 C2387 0.950 . S
H2411 C2389 0.950 . S
C2412 C2413 1.349 . S
C2412 C2414 1.327 . S
C2412 H2437 0.950 . S
C2413 C2412 1.349 . S
C2413 C2429 1.349 . S
C2414 C2412 1.327 . S
C2414 C2433 1.429 . S
C2414 H2438 0.950 . S
C2415 C2432 1.574 . S
C2415 C2434 1.368 . S
C2415 H2439 0.949 . S
H2416 C2420 0.949 . S
C2417 C2418 1.349 . S
C2417 C2419 1.327 . S
C2417 H2440 0.950 . S
C2418 C2417 1.349 . S
C2418 C2430 1.349 . S
C2419 C2417 1.327 . S
C2419 C2435 1.429 . S
C2419 H2441 0.950 . S
C2420 H2416 0.949 . S
C2420 C2428 1.574 . S
C2420 C2436 1.368 . S
H2421 C2429 0.950 . S
H2422 C2427 0.950 . S
H2423 C2428 0.949 . S
H2424 C2430 0.950 . S
H2425 C2431 0.950 . S
H2426 C2432 0.949 . S
C2427 H2422 0.950 . S
C2427 C2429 1.327 . S
C2427 C2433 1.429 . S
C2428 C2420 1.574 . S
C2428 H2423 0.949 . S
C2428 C2434 1.368 . S
C2429 C2413 1.349 . S
C2429 H2421 0.950 . S
C2429 C2427 1.327 . S
C2430 C2418 1.349 . S
C2430 H2424 0.950 . S
C2430 C2431 1.327 . S
C2431 H2425 0.950 . S
C2431 C2430 1.327 . S
C2431 C2435 1.429 . S
C2432 C2415 1.574 . S
C2432 H2426 0.949 . S
C2432 C2436 1.368 . S
C2433 C2414 1.429 . S
C2433 C2427 1.429 . S
C2433 C2434 1.523 . S
C2434 C2415 1.368 . S
C2434 C2428 1.368 . S
C2434 C2433 1.523 . S
C2435 C2419 1.429 . S
C2435 C2431 1.429 . S
C2435 C2436 1.523 . S
C2436 C2420 1.368 . S
C2436 C2432 1.368 . S
C2436 C2435 1.523 . S
H2437 C2412 0.950 . S
H2438 C2414 0.950 . S
H2439 C2415 0.949 . S
H2440 C2417 0.950 . S
H2441 C2419 0.950 . S
C2442 C2443 1.349 . S
C2442 C2444 1.327 . S
C2442 H2467 0.950 . S
C2443 C2442 1.349 . S
C2443 C2459 1.349 . S
C2444 C2442 1.327 . S
C2444 C2463 1.429 . S
C2444 H2468 0.950 . S
C2445 C2462 1.574 . S
C2445 C2464 1.368 . S
C2445 H2469 0.949 . S
H2446 C2450 0.949 . S
C2447 C2448 1.349 . S
C2447 C2449 1.327 . S
C2447 H2470 0.950 . S
C2448 C2447 1.349 . S
C2448 C2460 1.349 . S
C2449 C2447 1.327 . S
C2449 C2465 1.429 . S
C2449 H2471 0.950 . S
C2450 H2446 0.949 . S
C2450 C2458 1.574 . S
C2450 C2466 1.368 . S
H2451 C2459 0.950 . S
H2452 C2457 0.950 . S
H2453 C2458 0.949 . S
H2454 C2460 0.950 . S
H2455 C2461 0.950 . S
H2456 C2462 0.949 . S
C2457 H2452 0.950 . S
C2457 C2459 1.327 . S
C2457 C2463 1.429 . S
C2458 C2450 1.574 . S
C2458 H2453 0.949 . S
C2458 C2464 1.368 . S
C2459 C2443 1.349 . S
C2459 H2451 0.950 . S
C2459 C2457 1.327 . S
C2460 C2448 1.349 . S
C2460 H2454 0.950 . S
C2460 C2461 1.327 . S
C2461 H2455 0.950 . S
C2461 C2460 1.327 . S
C2461 C2465 1.429 . S
C2462 C2445 1.574 . S
C2462 H2456 0.949 . S
C2462 C2466 1.368 . S
C2463 C2444 1.429 . S
C2463 C2457 1.429 . S
C2463 C2464 1.523 . S
C2464 C2445 1.368 . S
C2464 C2458 1.368 . S
C2464 C2463 1.523 . S
C2465 C2449 1.429 . S
C2465 C2461 1.429 . S
C2465 C2466 1.523 . S
C2466 C2450 1.368 . S
C2466 C2462 1.368 . S
C2466 C2465 1.523 . S
H2467 C2442 0.950 . S
H2468 C2444 0.950 . S
H2469 C2445 0.949 . S
H2470 C2447 0.950 . S
H2471 C2449 0.950 . S
C2472 C2473 1.349 . S
C2472 C2474 1.327 . S
C2472 H2497 0.950 . S
C2473 C2472 1.349 . S
C2473 C2489 1.349 . S
C2474 C2472 1.327 . S
C2474 C2493 1.429 . S
C2474 H2498 0.950 . S
C2475 C2492 1.574 . S
C2475 C2494 1.368 1_554 S
C2475 H2499 0.949 . S
H2476 C2480 0.949 . S
C2477 C2478 1.349 . S
C2477 C2479 1.327 . S
C2477 H2500 0.950 . S
C2478 C2477 1.349 . S
C2478 C2490 1.349 . S
C2479 C2477 1.327 . S
C2479 C2495 1.429 . S
C2479 H2501 0.950 . S
C2480 H2476 0.949 . S
C2480 C2488 1.574 . S
C2480 C2496 1.368 1_556 S
H2481 C2489 0.950 . S
H2482 C2487 0.950 1_554 S
H2483 C2488 0.949 . S
H2484 C2490 0.950 . S
H2485 C2491 0.950 1_556 S
H2486 C2492 0.949 . S
C2487 H2482 0.950 1_556 S
C2487 C2489 1.327 . S
C2487 C2493 1.429 . S
C2488 C2480 1.574 . S
C2488 H2483 0.949 . S
C2488 C2494 1.368 . S
C2489 C2473 1.349 . S
C2489 H2481 0.950 . S
C2489 C2487 1.327 . S
C2490 C2478 1.349 . S
C2490 H2484 0.950 . S
C2490 C2491 1.327 . S
C2491 H2485 0.950 1_554 S
C2491 C2490 1.327 . S
C2491 C2495 1.429 . S
C2492 C2475 1.574 . S
C2492 H2486 0.949 . S
C2492 C2496 1.368 . S
C2493 C2474 1.429 . S
C2493 C2487 1.429 . S
C2493 C2494 1.523 . S
C2494 C2475 1.368 1_556 S
C2494 C2488 1.368 . S
C2494 C2493 1.523 . S
C2495 C2479 1.429 . S
C2495 C2491 1.429 . S
C2495 C2496 1.523 . S
C2496 C2480 1.368 1_554 S
C2496 C2492 1.368 . S
C2496 C2495 1.523 . S
H2497 C2472 0.950 . S
H2498 C2474 0.950 . S
H2499 C2475 0.949 . S
H2500 C2477 0.950 . S
H2501 C2479 0.950 . S
C2502 C2503 1.349 . S
C2502 C2504 1.327 . S
C2502 H2527 0.950 . S
C2503 C2502 1.349 . S
C2503 C2519 1.349 . S
C2504 C2502 1.327 . S
C2504 C2523 1.429 . S
C2504 H2528 0.950 . S
C2505 C2522 1.574 . S
C2505 C2524 1.368 . S
C2505 H2529 0.949 . S
H2506 C2510 0.949 . S
C2507 C2508 1.349 . S
C2507 C2509 1.327 . S
C2507 H2530 0.950 . S
C2508 C2507 1.349 . S
C2508 C2520 1.349 . S
C2509 C2507 1.327 . S
C2509 C2525 1.429 . S
C2509 H2531 0.950 . S
C2510 H2506 0.949 . S
C2510 C2518 1.574 . S
C2510 C2526 1.368 . S
H2511 C2519 0.950 . S
H2512 C2517 0.950 . S
H2513 C2518 0.949 . S
H2514 C2520 0.950 . S
H2515 C2521 0.950 . S
H2516 C2522 0.949 . S
C2517 H2512 0.950 . S
C2517 C2519 1.327 . S
C2517 C2523 1.429 . S
C2518 C2510 1.574 . S
C2518 H2513 0.949 . S
C2518 C2524 1.368 . S
C2519 C2503 1.349 . S
C2519 H2511 0.950 . S
C2519 C2517 1.327 . S
C2520 C2508 1.349 . S
C2520 H2514 0.950 . S
C2520 C2521 1.327 . S
C2521 H2515 0.950 . S
C2521 C2520 1.327 . S
C2521 C2525 1.429 . S
C2522 C2505 1.574 . S
C2522 H2516 0.949 . S
C2522 C2526 1.368 . S
C2523 C2504 1.429 . S
C2523 C2517 1.429 . S
C2523 C2524 1.523 . S
C2524 C2505 1.368 . S
C2524 C2518 1.368 . S
C2524 C2523 1.523 . S
C2525 C2509 1.429 . S
C2525 C2521 1.429 . S
C2525 C2526 1.523 . S
C2526 C2510 1.368 . S
C2526 C2522 1.368 . S
C2526 C2525 1.523 . S
H2527 C2502 0.950 . S
H2528 C2504 0.950 . S
H2529 C2505 0.949 . S
H2530 C2507 0.950 . S
H2531 C2509 0.950 . S
C2532 C2533 1.349 . S
C2532 C2534 1.327 . S
C2532 H2557 0.950 . S
C2533 C2532 1.349 . S
C2533 C2549 1.349 . S
C2534 C2532 1.327 . S
C2534 C2553 1.429 . S
C2534 H2558 0.950 . S
C2535 C2552 1.574 . S
C2535 C2554 1.368 1_556 S
C2535 H2559 0.949 . S
H2536 C2540 0.949 . S
C2537 C2538 1.349 . S
C2537 C2539 1.327 . S
C2537 H2560 0.950 . S
C2538 C2537 1.349 . S
C2538 C2550 1.349 . S
C2539 C2537 1.327 . S
C2539 C2555 1.429 . S
C2539 H2561 0.950 . S
C2540 H2536 0.949 . S
C2540 C2548 1.574 . S
C2540 C2556 1.368 1_554 S
H2541 C2549 0.950 . S
H2542 C2547 0.950 1_556 S
H2543 C2548 0.949 . S
H2544 C2550 0.950 . S
H2545 C2551 0.950 1_554 S
H2546 C2552 0.949 . S
C2547 H2542 0.950 1_554 S
C2547 C2549 1.327 . S
C2547 C2553 1.429 . S
C2548 C2540 1.574 . S
C2548 H2543 0.949 . S
C2548 C2554 1.368 . S
C2549 C2533 1.349 . S
C2549 H2541 0.950 . S
C2549 C2547 1.327 . S
C2550 C2538 1.349 . S
C2550 H2544 0.950 . S
C2550 C2551 1.327 . S
C2551 H2545 0.950 1_556 S
C2551 C2550 1.327 . S
C2551 C2555 1.429 . S
C2552 C2535 1.574 . S
C2552 H2546 0.949 . S
C2552 C2556 1.368 . S
C2553 C2534 1.429 . S
C2553 C2547 1.429 . S
C2553 C2554 1.523 . S
C2554 C2535 1.368 1_554 S
C2554 C2548 1.368 . S
C2554 C2553 1.523 . S
C2555 C2539 1.429 . S
C2555 C2551 1.429 . S
C2555 C2556 1.523 . S
C2556 C2540 1.368 1_556 S
C2556 C2552 1.368 . S
C2556 C2555 1.523 . S
H2557 C2532 0.950 . S
H2558 C2534 0.950 . S
H2559 C2535 0.949 . S
H2560 C2537 0.950 . S
H2561 C2539 0.950 . S
C2562 C2563 1.349 . S
C2562 C2564 1.327 . S
C2562 H2587 0.950 . S
C2563 C2562 1.349 . S
C2563 C2579 1.349 . S
C2564 C2562 1.327 . S
C2564 C2583 1.429 . S
C2564 H2588 0.950 . S
C2565 C2582 1.574 . S
C2565 C2584 1.368 . S
C2565 H2589 0.949 . S
H2566 C2570 0.949 . S
C2567 C2568 1.349 . S
C2567 C2569 1.327 . S
C2567 H2590 0.950 . S
C2568 C2567 1.349 . S
C2568 C2580 1.349 . S
C2569 C2567 1.327 . S
C2569 C2585 1.429 . S
C2569 H2591 0.950 . S
C2570 H2566 0.949 . S
C2570 C2578 1.574 . S
C2570 C2586 1.368 . S
H2571 C2579 0.950 . S
H2572 C2577 0.950 . S
H2573 C2578 0.949 . S
H2574 C2580 0.950 . S
H2575 C2581 0.950 . S
H2576 C2582 0.949 . S
C2577 H2572 0.950 . S
C2577 C2579 1.327 . S
C2577 C2583 1.429 . S
C2578 C2570 1.574 . S
C2578 H2573 0.949 . S
C2578 C2584 1.368 . S
C2579 C2563 1.349 . S
C2579 H2571 0.950 . S
C2579 C2577 1.327 . S
C2580 C2568 1.349 . S
C2580 H2574 0.950 . S
C2580 C2581 1.327 . S
C2581 H2575 0.950 . S
C2581 C2580 1.327 . S
C2581 C2585 1.429 . S
C2582 C2565 1.574 . S
C2582 H2576 0.949 . S
C2582 C2586 1.368 . S
C2583 C2564 1.429 . S
C2583 C2577 1.429 . S
C2583 C2584 1.523 . S
C2584 C2565 1.368 . S
C2584 C2578 1.368 . S
C2584 C2583 1.523 . S
C2585 C2569 1.429 . S
C2585 C2581 1.429 . S
C2585 C2586 1.523 . S
C2586 C2570 1.368 . S
C2586 C2582 1.368 . S
C2586 C2585 1.523 . S
H2587 C2562 0.950 . S
H2588 C2564 0.950 . S
H2589 C2565 0.949 . S
H2590 C2567 0.950 . S
H2591 C2569 0.950 . S
C2592 C2593 1.349 . S
C2592 C2594 1.327 . S
C2592 H2617 0.950 . S
C2593 C2592 1.349 . S
C2593 C2609 1.349 . S
C2594 C2592 1.327 . S
C2594 C2613 1.429 . S
C2594 H2618 0.950 1_556 S
C2595 C2612 1.574 . S
C2595 C2614 1.368 . S
C2595 H2619 0.949 . S
H2596 C2600 0.949 . S
C2597 C2598 1.349 . S
C2597 C2599 1.327 . S
C2597 H2620 0.950 . S
C2598 C2597 1.349 . S
C2598 C2610 1.349 . S
C2599 C2597 1.327 . S
C2599 C2615 1.429 . S
C2599 H2621 0.950 1_554 S
C2600 H2596 0.949 . S
C2600 C2608 1.574 . S
C2600 C2616 1.368 . S
H2601 C2609 0.950 . S
H2602 C2607 0.950 . S
H2603 C2608 0.949 . S
H2604 C2610 0.950 . S
H2605 C2611 0.950 . S
H2606 C2612 0.949 . S
C2607 H2602 0.950 . S
C2607 C2609 1.327 . S
C2607 C2613 1.429 . S
C2608 C2600 1.574 . S
C2608 H2603 0.949 . S
C2608 C2614 1.368 1_554 S
C2609 C2593 1.349 . S
C2609 H2601 0.950 . S
C2609 C2607 1.327 . S
C2610 C2598 1.349 . S
C2610 H2604 0.950 . S
C2610 C2611 1.327 . S
C2611 H2605 0.950 . S
C2611 C2610 1.327 . S
C2611 C2615 1.429 . S
C2612 C2595 1.574 . S
C2612 H2606 0.949 . S
C2612 C2616 1.368 1_556 S
C2613 C2594 1.429 . S
C2613 C2607 1.429 . S
C2613 C2614 1.523 . S
C2614 C2595 1.368 . S
C2614 C2608 1.368 1_556 S
C2614 C2613 1.523 . S
C2615 C2599 1.429 . S
C2615 C2611 1.429 . S
C2615 C2616 1.523 . S
C2616 C2600 1.368 . S
C2616 C2612 1.368 1_554 S
C2616 C2615 1.523 . S
H2617 C2592 0.950 . S
H2618 C2594 0.950 1_554 S
H2619 C2595 0.949 . S
H2620 C2597 0.950 . S
H2621 C2599 0.950 1_556 S
C2622 C2623 1.349 . S
C2622 C2624 1.327 . S
C2622 H2647 0.950 . S
C2623 C2622 1.349 . S
C2623 C2639 1.349 . S
C2624 C2622 1.327 . S
C2624 C2643 1.429 . S
C2624 H2648 0.950 . S
C2625 C2642 1.574 . S
C2625 C2644 1.368 . S
C2625 H2649 0.949 . S
H2626 C2630 0.949 . S
C2627 C2628 1.349 . S
C2627 C2629 1.327 . S
C2627 H2650 0.950 . S
C2628 C2627 1.349 . S
C2628 C2640 1.349 . S
C2629 C2627 1.327 . S
C2629 C2645 1.429 . S
C2629 H2651 0.950 . S
C2630 H2626 0.949 . S
C2630 C2638 1.574 . S
C2630 C2646 1.368 . S
H2631 C2639 0.950 . S
H2632 C2637 0.950 . S
H2633 C2638 0.949 . S
H2634 C2640 0.950 . S
H2635 C2641 0.950 . S
H2636 C2642 0.949 . S
C2637 H2632 0.950 . S
C2637 C2639 1.327 . S
C2637 C2643 1.429 . S
C2638 C2630 1.574 . S
C2638 H2633 0.949 . S
C2638 C2644 1.368 . S
C2639 C2623 1.349 . S
C2639 H2631 0.950 . S
C2639 C2637 1.327 . S
C2640 C2628 1.349 . S
C2640 H2634 0.950 . S
C2640 C2641 1.327 . S
C2641 H2635 0.950 . S
C2641 C2640 1.327 . S
C2641 C2645 1.429 . S
C2642 C2625 1.574 . S
C2642 H2636 0.949 . S
C2642 C2646 1.368 . S
C2643 C2624 1.429 . S
C2643 C2637 1.429 . S
C2643 C2644 1.523 . S
C2644 C2625 1.368 . S
C2644 C2638 1.368 . S
C2644 C2643 1.523 . S
C2645 C2629 1.429 . S
C2645 C2641 1.429 . S
C2645 C2646 1.523 . S
C2646 C2630 1.368 . S
C2646 C2642 1.368 . S
C2646 C2645 1.523 . S
H2647 C2622 0.950 . S
H2648 C2624 0.950 . S
H2649 C2625 0.949 . S
H2650 C2627 0.950 . S
H2651 C2629 0.950 . S
C2652 C2653 1.349 . S
C2652 C2654 1.327 . S
C2652 H2677 0.950 . S
C2653 C2652 1.349 . S
C2653 C2669 1.349 . S
C2654 C2652 1.327 . S
C2654 C2673 1.429 . S
C2654 H2678 0.950 . S
C2655 C2672 1.574 . S
C2655 C2674 1.368 1_556 S
C2655 H2679 0.949 . S
H2656 C2660 0.949 . S
C2657 C2658 1.349 . S
C2657 C2659 1.327 . S
C2657 H2680 0.950 . S
C2658 C2657 1.349 . S
C2658 C2670 1.349 . S
C2659 C2657 1.327 . S
C2659 C2675 1.429 . S
C2659 H2681 0.950 . S
C2660 H2656 0.949 . S
C2660 C2668 1.574 . S
C2660 C2676 1.368 1_554 S
H2661 C2669 0.950 . S
H2662 C2667 0.950 1_556 S
H2663 C2668 0.949 . S
H2664 C2670 0.950 . S
H2665 C2671 0.950 1_554 S
H2666 C2672 0.949 . S
C2667 H2662 0.950 1_554 S
C2667 C2669 1.327 . S
C2667 C2673 1.429 . S
C2668 C2660 1.574 . S
C2668 H2663 0.949 . S
C2668 C2674 1.368 . S
C2669 C2653 1.349 . S
C2669 H2661 0.950 . S
C2669 C2667 1.327 . S
C2670 C2658 1.349 . S
C2670 H2664 0.950 . S
C2670 C2671 1.327 . S
C2671 H2665 0.950 1_556 S
C2671 C2670 1.327 . S
C2671 C2675 1.429 . S
C2672 C2655 1.574 . S
C2672 H2666 0.949 . S
C2672 C2676 1.368 . S
C2673 C2654 1.429 . S
C2673 C2667 1.429 . S
C2673 C2674 1.523 . S
C2674 C2655 1.368 1_554 S
C2674 C2668 1.368 . S
C2674 C2673 1.523 . S
C2675 C2659 1.429 . S
C2675 C2671 1.429 . S
C2675 C2676 1.523 . S
C2676 C2660 1.368 1_556 S
C2676 C2672 1.368 . S
C2676 C2675 1.523 . S
H2677 C2652 0.950 . S
H2678 C2654 0.950 . S
H2679 C2655 0.949 . S
H2680 C2657 0.950 . S
H2681 C2659 0.950 . S
C2682 C2683 1.349 . S
C2682 C2684 1.327 . S
C2682 H2707 0.950 . S
C2683 C2682 1.349 . S
C2683 C2699 1.349 . S
C2684 C2682 1.327 . S
C2684 C2703 1.429 . S
C2684 H2708 0.950 . S
C2685 C2702 1.574 . S
C2685 C2704 1.368 . S
C2685 H2709 0.949 . S
H2686 C2690 0.949 . S
C2687 C2688 1.349 . S
C2687 C2689 1.327 . S
C2687 H2710 0.950 . S
C2688 C2687 1.349 . S
C2688 C2700 1.349 . S
C2689 C2687 1.327 . S
C2689 C2705 1.429 . S
C2689 H2711 0.950 . S
C2690 H2686 0.949 . S
C2690 C2698 1.574 . S
C2690 C2706 1.368 . S
H2691 C2699 0.950 . S
H2692 C2697 0.950 . S
H2693 C2698 0.949 . S
H2694 C2700 0.950 . S
H2695 C2701 0.950 . S
H2696 C2702 0.949 . S
C2697 H2692 0.950 . S
C2697 C2699 1.327 . S
C2697 C2703 1.429 . S
C2698 C2690 1.574 . S
C2698 H2693 0.949 . S
C2698 C2704 1.368 . S
C2699 C2683 1.349 . S
C2699 H2691 0.950 . S
C2699 C2697 1.327 . S
C2700 C2688 1.349 . S
C2700 H2694 0.950 . S
C2700 C2701 1.327 . S
C2701 H2695 0.950 . S
C2701 C2700 1.327 . S
C2701 C2705 1.429 . S
C2702 C2685 1.574 . S
C2702 H2696 0.949 . S
C2702 C2706 1.368 . S
C2703 C2684 1.429 . S
C2703 C2697 1.429 . S
C2703 C2704 1.523 . S
C2704 C2685 1.368 . S
C2704 C2698 1.368 . S
C2704 C2703 1.523 . S
C2705 C2689 1.429 . S
C2705 C2701 1.429 . S
C2705 C2706 1.523 . S
C2706 C2690 1.368 . S
C2706 C2702 1.368 . S
C2706 C2705 1.523 . S
H2707 C2682 0.950 . S
H2708 C2684 0.950 . S
H2709 C2685 0.949 . S
H2710 C2687 0.950 . S
H2711 C2689 0.950 . S
C2712 C2713 1.349 . S
C2712 C2714 1.327 . S
C2712 H2737 0.937 1_556 S
C2713 C2712 1.349 . S
C2713 C2729 1.349 . S
C2714 C2712 1.327 . S
C2714 C2733 1.429 . S
C2714 H2738 0.950 1_556 S
C2715 C2732 1.574 . S
C2715 C2734 1.368 . S
C2715 H2739 0.949 . S
H2716 C2720 0.949 . S
C2717 C2718 1.349 . S
C2717 C2719 1.327 . S
C2717 H2740 0.938 1_554 S
C2718 C2717 1.349 . S
C2718 C2730 1.349 . S
C2719 C2717 1.327 . S
C2719 C2735 1.429 . S
C2719 H2741 0.950 1_554 S
C2720 H2716 0.949 . S
C2720 C2728 1.574 . S
C2720 C2736 1.368 . S
H2721 C2729 0.950 . S
H2722 C2727 0.950 . S
H2723 C2728 0.949 . S
H2724 C2730 0.950 . S
H2725 C2731 0.950 . S
H2726 C2732 0.949 . S
C2727 H2722 0.950 . S
C2727 C2729 1.327 . S
C2727 C2733 1.429 . S
C2728 C2720 1.574 . S
C2728 H2723 0.949 . S
C2728 C2734 1.368 1_554 S
C2729 C2713 1.349 . S
C2729 H2721 0.950 . S
C2729 C2727 1.327 . S
C2730 C2718 1.349 . S
C2730 H2724 0.950 . S
C2730 C2731 1.327 . S
C2731 H2725 0.950 . S
C2731 C2730 1.327 . S
C2731 C2735 1.429 . S
C2732 C2715 1.574 . S
C2732 H2726 0.949 . S
C2732 C2736 1.368 1_556 S
C2733 C2714 1.429 . S
C2733 C2727 1.429 . S
C2733 C2734 1.523 . S
C2734 C2715 1.368 . S
C2734 C2728 1.368 1_556 S
C2734 C2733 1.523 . S
C2735 C2719 1.429 . S
C2735 C2731 1.429 . S
C2735 C2736 1.523 . S
C2736 C2720 1.368 . S
C2736 C2732 1.368 1_554 S
C2736 C2735 1.523 . S
H2737 C2712 0.937 1_554 S
H2738 C2714 0.950 1_554 S
H2739 C2715 0.949 . S
H2740 C2717 0.938 1_556 S
H2741 C2719 0.950 1_556 S
C2742 C2743 1.349 . S
C2742 C2744 1.327 . S
C2742 H2767 0.950 . S
C2743 C2742 1.349 . S
C2743 C2759 1.349 . S
C2744 C2742 1.327 . S
C2744 C2763 1.429 . S
C2744 H2768 0.950 . S
C2745 C2762 1.574 . S
C2745 C2764 1.368 . S
C2745 H2769 0.949 . S
H2746 C2750 0.949 . S
C2747 C2748 1.349 . S
C2747 C2749 1.327 . S
C2747 H2770 0.950 . S
C2748 C2747 1.349 . S
C2748 C2760 1.349 . S
C2749 C2747 1.327 . S
C2749 C2765 1.429 . S
C2749 H2771 0.950 . S
C2750 H2746 0.949 . S
C2750 C2758 1.574 . S
C2750 C2766 1.368 . S
H2751 C2759 0.950 . S
H2752 C2757 0.950 . S
H2753 C2758 0.949 . S
H2754 C2760 0.950 . S
H2755 C2761 0.950 . S
H2756 C2762 0.949 . S
C2757 H2752 0.950 . S
C2757 C2759 1.327 . S
C2757 C2763 1.429 . S
C2758 C2750 1.574 . S
C2758 H2753 0.949 . S
C2758 C2764 1.368 . S
C2759 C2743 1.349 . S
C2759 H2751 0.950 . S
C2759 C2757 1.327 . S
C2760 C2748 1.349 . S
C2760 H2754 0.950 . S
C2760 C2761 1.327 . S
C2761 H2755 0.950 . S
C2761 C2760 1.327 . S
C2761 C2765 1.429 . S
C2762 C2745 1.574 . S
C2762 H2756 0.949 . S
C2762 C2766 1.368 . S
C2763 C2744 1.429 . S
C2763 C2757 1.429 . S
C2763 C2764 1.523 . S
C2764 C2745 1.368 . S
C2764 C2758 1.368 . S
C2764 C2763 1.523 . S
C2765 C2749 1.429 . S
C2765 C2761 1.429 . S
C2765 C2766 1.523 . S
C2766 C2750 1.368 . S
C2766 C2762 1.368 . S
C2766 C2765 1.523 . S
H2767 C2742 0.950 . S
H2768 C2744 0.950 . S
H2769 C2745 0.949 . S
H2770 C2747 0.950 . S
H2771 C2749 0.950 . S
C2772 C2773 1.349 . S
C2772 C2774 1.328 . S
C2772 H2797 0.950 1_556 S
C2773 C2772 1.349 . S
C2773 C2789 1.349 . S
C2774 C2772 1.328 . S
C2774 C2793 1.431 . S
C2774 H2798 0.946 1_556 S
C2775 C2792 1.574 . S
C2775 C2794 1.368 . S
C2775 H2799 0.949 . S
H2776 C2780 0.949 . S
C2777 C2778 1.349 . S
C2777 C2779 1.328 . S
C2777 H2800 0.950 1_554 S
C2778 C2777 1.349 . S
C2778 C2790 1.349 . S
C2779 C2777 1.328 . S
C2779 C2795 1.431 . S
C2779 H2801 0.946 1_554 S
C2780 H2776 0.949 . S
C2780 C2788 1.574 . S
C2780 C2796 1.368 . S
H2781 C2789 0.950 . S
H2782 C2787 0.950 . S
H2783 C2788 0.949 . S
H2784 C2790 0.950 . S
H2785 C2791 0.950 . S
H2786 C2792 0.949 . S
C2787 H2782 0.950 . S
C2787 C2789 1.327 . S
C2787 C2793 1.429 . S
C2788 C2780 1.574 . S
C2788 H2783 0.949 . S
C2788 C2794 1.368 1_554 S
C2789 C2773 1.349 . S
C2789 H2781 0.950 . S
C2789 C2787 1.327 . S
C2790 C2778 1.349 . S
C2790 H2784 0.950 . S
C2790 C2791 1.327 . S
C2791 H2785 0.950 . S
C2791 C2790 1.327 . S
C2791 C2795 1.429 . S
C2792 C2775 1.574 . S
C2792 H2786 0.949 . S
C2792 C2796 1.368 1_556 S
C2793 C2774 1.431 . S
C2793 C2787 1.429 . S
C2793 C2794 1.523 . S
C2794 C2775 1.368 . S
C2794 C2788 1.368 1_556 S
C2794 C2793 1.523 . S
C2795 C2779 1.431 . S
C2795 C2791 1.429 . S
C2795 C2796 1.523 . S
C2796 C2780 1.368 . S
C2796 C2792 1.368 1_554 S
C2796 C2795 1.523 . S
H2797 C2772 0.950 1_554 S
H2798 C2774 0.946 1_554 S
H2799 C2775 0.949 . S
H2800 C2777 0.950 1_556 S
H2801 C2779 0.946 1_556 S
C2802 C2803 1.349 . S
C2802 C2804 1.327 . S
C2802 H2827 0.950 . S
C2803 C2802 1.349 . S
C2803 C2819 1.349 . S
C2804 C2802 1.327 . S
C2804 C2823 1.429 . S
C2804 H2828 0.950 . S
C2805 C2822 1.574 . S
C2805 C2824 1.368 . S
C2805 H2829 0.949 . S
H2806 C2810 0.949 . S
C2807 C2808 1.349 . S
C2807 C2809 1.327 . S
C2807 H2830 0.950 . S
C2808 C2807 1.349 . S
C2808 C2820 1.349 . S
C2809 C2807 1.327 . S
C2809 C2825 1.429 . S
C2809 H2831 0.950 . S
C2810 H2806 0.949 . S
C2810 C2818 1.574 . S
C2810 C2826 1.368 . S
H2811 C2819 0.950 . S
H2812 C2817 0.950 . S
H2813 C2818 0.949 . S
H2814 C2820 0.950 . S
H2815 C2821 0.950 . S
H2816 C2822 0.949 . S
C2817 H2812 0.950 . S
C2817 C2819 1.327 . S
C2817 C2823 1.429 . S
C2818 C2810 1.574 . S
C2818 H2813 0.949 . S
C2818 C2824 1.368 . S
C2819 C2803 1.349 . S
C2819 H2811 0.950 . S
C2819 C2817 1.327 . S
C2820 C2808 1.349 . S
C2820 H2814 0.950 . S
C2820 C2821 1.327 . S
C2821 H2815 0.950 . S
C2821 C2820 1.327 . S
C2821 C2825 1.429 . S
C2822 C2805 1.574 . S
C2822 H2816 0.949 . S
C2822 C2826 1.368 . S
C2823 C2804 1.429 . S
C2823 C2817 1.429 . S
C2823 C2824 1.523 . S
C2824 C2805 1.368 . S
C2824 C2818 1.368 . S
C2824 C2823 1.523 . S
C2825 C2809 1.429 . S
C2825 C2821 1.429 . S
C2825 C2826 1.523 . S
C2826 C2810 1.368 . S
C2826 C2822 1.368 . S
C2826 C2825 1.523 . S
H2827 C2802 0.950 . S
H2828 C2804 0.950 . S
H2829 C2805 0.949 . S
H2830 C2807 0.950 . S
H2831 C2809 0.950 . S
C2832 C2833 1.349 . S
C2832 C2834 1.327 . S
C2832 H2857 0.950 . S
C2833 C2832 1.349 . S
C2833 C2849 1.349 . S
C2834 C2832 1.327 . S
C2834 C2853 1.429 . S
C2834 H2858 0.950 . S
C2835 C2852 1.574 . S
C2835 C2854 1.368 . S
C2835 H2859 0.949 . S
H2836 C2840 0.949 . S
C2837 C2838 1.349 . S
C2837 C2839 1.327 . S
C2837 H2860 0.950 . S
C2838 C2837 1.349 . S
C2838 C2850 1.349 . S
C2839 C2837 1.327 . S
C2839 C2855 1.429 . S
C2839 H2861 0.950 . S
C2840 H2836 0.949 . S
C2840 C2848 1.574 . S
C2840 C2856 1.368 . S
H2841 C2849 0.950 . S
H2842 C2847 0.950 . S
H2843 C2848 0.949 . S
H2844 C2850 0.950 . S
H2845 C2851 0.950 . S
H2846 C2852 0.949 . S
C2847 H2842 0.950 . S
C2847 C2849 1.327 . S
C2847 C2853 1.429 . S
C2848 C2840 1.574 . S
C2848 H2843 0.949 . S
C2848 C2854 1.368 . S
C2849 C2833 1.349 . S
C2849 H2841 0.950 . S
C2849 C2847 1.327 . S
C2850 C2838 1.349 . S
C2850 H2844 0.950 . S
C2850 C2851 1.327 . S
C2851 H2845 0.950 . S
C2851 C2850 1.327 . S
C2851 C2855 1.429 . S
C2852 C2835 1.574 . S
C2852 H2846 0.949 . S
C2852 C2856 1.368 . S
C2853 C2834 1.429 . S
C2853 C2847 1.429 . S
C2853 C2854 1.523 . S
C2854 C2835 1.368 . S
C2854 C2848 1.368 . S
C2854 C2853 1.523 . S
C2855 C2839 1.429 . S
C2855 C2851 1.429 . S
C2855 C2856 1.523 . S
C2856 C2840 1.368 . S
C2856 C2852 1.368 . S
C2856 C2855 1.523 . S
H2857 C2832 0.950 . S
H2858 C2834 0.950 . S
H2859 C2835 0.949 . S
H2860 C2837 0.950 . S
H2861 C2839 0.950 . S
C2862 C2863 1.349 . S
C2862 C2864 1.327 . S
C2862 H2887 0.950 . S
C2863 C2862 1.349 . S
C2863 C2879 1.349 . S
C2864 C2862 1.327 . S
C2864 C2883 1.429 . S
C2864 H2888 0.950 . S
C2865 C2882 1.574 1_455 S
C2865 C2884 1.368 . S
C2865 H2889 0.949 . S
H2866 C2870 0.949 . S
C2867 C2868 1.349 . S
C2867 C2869 1.327 . S
C2867 H2890 0.950 . S
C2868 C2867 1.349 . S
C2868 C2880 1.349 . S
C2869 C2867 1.327 . S
C2869 C2885 1.429 . S
C2869 H2891 0.950 . S
C2870 H2866 0.949 . S
C2870 C2878 1.574 1_655 S
C2870 C2886 1.368 . S
H2871 C2879 0.950 . S
H2872 C2877 0.950 . S
H2873 C2878 0.949 . S
H2874 C2880 0.950 . S
H2875 C2881 0.950 . S
H2876 C2882 0.949 . S
C2877 H2872 0.950 . S
C2877 C2879 1.327 . S
C2877 C2883 1.429 . S
C2878 C2870 1.574 1_455 S
C2878 H2873 0.949 . S
C2878 C2884 1.368 . S
C2879 C2863 1.349 . S
C2879 H2871 0.950 . S
C2879 C2877 1.327 . S
C2880 C2868 1.349 . S
C2880 H2874 0.950 . S
C2880 C2881 1.327 . S
C2881 H2875 0.950 . S
C2881 C2880 1.327 . S
C2881 C2885 1.429 . S
C2882 C2865 1.574 1_655 S
C2882 H2876 0.949 . S
C2882 C2886 1.368 . S
C2883 C2864 1.429 . S
C2883 C2877 1.429 . S
C2883 C2884 1.523 . S
C2884 C2865 1.368 . S
C2884 C2878 1.368 . S
C2884 C2883 1.523 . S
C2885 C2869 1.429 . S
C2885 C2881 1.429 . S
C2885 C2886 1.523 . S
C2886 C2870 1.368 . S
C2886 C2882 1.368 . S
C2886 C2885 1.523 . S
H2887 C2862 0.950 . S
H2888 C2864 0.950 . S
H2889 C2865 0.949 . S
H2890 C2867 0.950 . S
H2891 C2869 0.950 . S
C2892 C2893 1.349 . S
C2892 C2894 1.327 . S
C2892 H2917 0.950 . S
C2893 C2892 1.349 . S
C2893 C2909 1.349 . S
C2894 C2892 1.327 . S
C2894 C2913 1.429 . S
C2894 H2918 0.950 . S
C2895 C2912 1.574 1_565 S
C2895 C2914 1.368 . S
C2895 H2919 0.949 . S
H2896 C2900 0.949 . S
C2897 C2898 1.349 . S
C2897 C2899 1.327 . S
C2897 H2920 0.950 . S
C2898 C2897 1.349 . S
C2898 C2910 1.349 . S
C2899 C2897 1.327 . S
C2899 C2915 1.429 . S
C2899 H2921 0.950 . S
C2900 H2896 0.949 . S
C2900 C2908 1.574 1_545 S
C2900 C2916 1.368 . S
H2901 C2909 0.950 . S
H2902 C2907 0.950 . S
H2903 C2908 0.949 . S
H2904 C2910 0.950 . S
H2905 C2911 0.950 . S
H2906 C2912 0.949 . S
C2907 H2902 0.950 . S
C2907 C2909 1.327 . S
C2907 C2913 1.429 . S
C2908 C2900 1.574 1_565 S
C2908 H2903 0.949 . S
C2908 C2914 1.368 . S
C2909 C2893 1.349 . S
C2909 H2901 0.950 . S
C2909 C2907 1.327 . S
C2910 C2898 1.349 . S
C2910 H2904 0.950 . S
C2910 C2911 1.327 . S
C2911 H2905 0.950 . S
C2911 C2910 1.327 . S
C2911 C2915 1.429 . S
C2912 C2895 1.574 1_545 S
C2912 H2906 0.949 . S
C2912 C2916 1.368 . S
C2913 C2894 1.429 . S
C2913 C2907 1.429 . S
C2913 C2914 1.523 . S
C2914 C2895 1.368 . S
C2914 C2908 1.368 . S
C2914 C2913 1.523 . S
C2915 C2899 1.429 . S
C2915 C2911 1.429 . S
C2915 C2916 1.523 . S
C2916 C2900 1.368 . S
C2916 C2912 1.368 . S
C2916 C2915 1.523 . S
H2917 C2892 0.950 . S
H2918 C2894 0.950 . S
H2919 C2895 0.949 . S
H2920 C2897 0.950 . S
H2921 C2899 0.950 . S
C2922 C2923 1.349 . S
C2922 C2924 1.327 . S
C2922 H2947 0.950 . S
C2923 C2922 1.349 . S
C2923 C2939 1.349 . S
C2924 C2922 1.327 . S
C2924 C2943 1.429 . S
C2924 H2948 0.950 . S
C2925 C2942 1.574 . S
C2925 C2944 1.368 . S
C2925 H2949 0.949 . S
H2926 C2930 0.949 . S
C2927 C2928 1.349 . S
C2927 C2929 1.327 . S
C2927 H2950 0.950 . S
C2928 C2927 1.349 . S
C2928 C2940 1.349 . S
C2929 C2927 1.327 . S
C2929 C2945 1.429 . S
C2929 H2951 0.950 . S
C2930 H2926 0.949 . S
C2930 C2938 1.574 . S
C2930 C2946 1.368 . S
H2931 C2939 0.950 . S
H2932 C2937 0.950 . S
H2933 C2938 0.949 . S
H2934 C2940 0.950 . S
H2935 C2941 0.950 . S
H2936 C2942 0.949 . S
C2937 H2932 0.950 . S
C2937 C2939 1.327 . S
C2937 C2943 1.429 . S
C2938 C2930 1.574 . S
C2938 H2933 0.949 . S
C2938 C2944 1.368 . S
C2939 C2923 1.349 . S
C2939 H2931 0.950 . S
C2939 C2937 1.327 . S
C2940 C2928 1.349 . S
C2940 H2934 0.950 . S
C2940 C2941 1.327 . S
C2941 H2935 0.950 . S
C2941 C2940 1.327 . S
C2941 C2945 1.429 . S
C2942 C2925 1.574 . S
C2942 H2936 0.949 . S
C2942 C2946 1.368 . S
C2943 C2924 1.429 . S
C2943 C2937 1.429 . S
C2943 C2944 1.523 . S
C2944 C2925 1.368 . S
C2944 C2938 1.368 . S
C2944 C2943 1.523 . S
C2945 C2929 1.429 . S
C2945 C2941 1.429 . S
C2945 C2946 1.523 . S
C2946 C2930 1.368 . S
C2946 C2942 1.368 . S
C2946 C2945 1.523 . S
H2947 C2922 0.950 . S
H2948 C2924 0.950 . S
H2949 C2925 0.949 . S
H2950 C2927 0.950 . S
H2951 C2929 0.950 . S
C2952 C2953 1.349 . S
C2952 C2954 1.327 . S
C2952 H2977 0.950 . S
C2953 C2952 1.349 . S
C2953 C2969 1.349 . S
C2954 C2952 1.327 . S
C2954 C2973 1.429 . S
C2954 H2978 0.950 . S
C2955 C2972 1.574 1_655 S
C2955 C2974 1.368 . S
C2955 H2979 0.949 . S
H2956 C2960 0.949 . S
C2957 C2958 1.349 . S
C2957 C2959 1.327 . S
C2957 H2980 0.950 . S
C2958 C2957 1.349 . S
C2958 C2970 1.349 . S
C2959 C2957 1.327 . S
C2959 C2975 1.429 . S
C2959 H2981 0.950 . S
C2960 H2956 0.949 . S
C2960 C2968 1.574 1_455 S
C2960 C2976 1.368 . S
H2961 C2969 0.950 . S
H2962 C2967 0.950 . S
H2963 C2968 0.949 . S
H2964 C2970 0.950 . S
H2965 C2971 0.950 . S
H2966 C2972 0.949 . S
C2967 H2962 0.950 . S
C2967 C2969 1.327 . S
C2967 C2973 1.429 . S
C2968 C2960 1.574 1_655 S
C2968 H2963 0.949 . S
C2968 C2974 1.368 . S
C2969 C2953 1.349 . S
C2969 H2961 0.950 . S
C2969 C2967 1.327 . S
C2970 C2958 1.349 . S
C2970 H2964 0.950 . S
C2970 C2971 1.327 . S
C2971 H2965 0.950 . S
C2971 C2970 1.327 . S
C2971 C2975 1.429 . S
C2972 C2955 1.574 1_455 S
C2972 H2966 0.949 . S
C2972 C2976 1.368 . S
C2973 C2954 1.429 . S
C2973 C2967 1.429 . S
C2973 C2974 1.523 . S
C2974 C2955 1.368 . S
C2974 C2968 1.368 . S
C2974 C2973 1.523 . S
C2975 C2959 1.429 . S
C2975 C2971 1.429 . S
C2975 C2976 1.523 . S
C2976 C2960 1.368 . S
C2976 C2972 1.368 . S
C2976 C2975 1.523 . S
H2977 C2952 0.950 . S
H2978 C2954 0.950 . S
H2979 C2955 0.949 . S
H2980 C2957 0.950 . S
H2981 C2959 0.950 . S
C2982 C2983 1.349 . S
C2982 C2984 1.327 . S
C2982 H3007 0.950 . S
C2983 C2982 1.349 . S
C2983 C2999 1.349 . S
C2984 C2982 1.327 . S
C2984 C3003 1.429 . S
C2984 H3008 0.950 . S
C2985 C3002 1.574 1_545 S
C2985 C3004 1.368 . S
C2985 H3009 0.949 . S
H2986 C2990 0.949 . S
C2987 C2988 1.349 . S
C2987 C2989 1.327 . S
C2987 H3010 0.950 . S
C2988 C2987 1.349 . S
C2988 C3000 1.349 . S
C2989 C2987 1.327 . S
C2989 C3005 1.429 . S
C2989 H3011 0.950 . S
C2990 H2986 0.949 . S
C2990 C2998 1.574 1_565 S
C2990 C3006 1.368 . S
H2991 C2999 0.950 . S
H2992 C2997 0.950 . S
H2993 C2998 0.949 . S
H2994 C3000 0.950 . S
H2995 C3001 0.950 . S
H2996 C3002 0.949 . S
C2997 H2992 0.950 . S
C2997 C2999 1.327 . S
C2997 C3003 1.429 . S
C2998 C2990 1.574 1_545 S
C2998 H2993 0.949 . S
C2998 C3004 1.368 . S
C2999 C2983 1.349 . S
C2999 H2991 0.950 . S
C2999 C2997 1.327 . S
C3000 C2988 1.349 . S
C3000 H2994 0.950 . S
C3000 C3001 1.327 . S
C3001 H2995 0.950 . S
C3001 C3000 1.327 . S
C3001 C3005 1.429 . S
C3002 C2985 1.574 1_565 S
C3002 H2996 0.949 . S
C3002 C3006 1.368 . S
C3003 C2984 1.429 . S
C3003 C2997 1.429 . S
C3003 C3004 1.523 . S
C3004 C2985 1.368 . S
C3004 C2998 1.368 . S
C3004 C3003 1.523 . S
C3005 C2989 1.429 . S
C3005 C3001 1.429 . S
C3005 C3006 1.523 . S
C3006 C2990 1.368 . S
C3006 C3002 1.368 . S
C3006 C3005 1.523 . S
H3007 C2982 0.950 . S
H3008 C2984 0.950 . S
H3009 C2985 0.949 . S
H3010 C2987 0.950 . S
H3011 C2989 0.950 . S
C3012 C3013 1.349 . S
C3012 C3014 1.327 . S
C3012 H3037 0.950 . S
C3013 C3012 1.349 . S
C3013 C3029 1.349 . S
C3014 C3012 1.327 . S
C3014 C3033 1.429 . S
C3014 H3038 0.950 . S
C3015 C3032 1.574 . S
C3015 C3034 1.368 . S
C3015 H3039 0.949 . S
H3016 C3020 0.949 . S
C3017 C3018 1.349 . S
C3017 C3019 1.327 . S
C3017 H3040 0.950 . S
C3018 C3017 1.349 . S
C3018 C3030 1.349 . S
C3019 C3017 1.327 . S
C3019 C3035 1.429 . S
C3019 H3041 0.950 . S
C3020 H3016 0.949 . S
C3020 C3028 1.574 . S
C3020 C3036 1.368 . S
H3021 C3029 0.950 . S
H3022 C3027 0.950 . S
H3023 C3028 0.949 . S
H3024 C3030 0.950 . S
H3025 C3031 0.950 . S
H3026 C3032 0.949 . S
C3027 H3022 0.950 . S
C3027 C3029 1.327 . S
C3027 C3033 1.429 . S
C3028 C3020 1.574 . S
C3028 H3023 0.949 . S
C3028 C3034 1.368 . S
C3029 C3013 1.349 . S
C3029 H3021 0.950 . S
C3029 C3027 1.327 . S
C3030 C3018 1.349 . S
C3030 H3024 0.950 . S
C3030 C3031 1.327 . S
C3031 H3025 0.950 . S
C3031 C3030 1.327 . S
C3031 C3035 1.429 . S
C3032 C3015 1.574 . S
C3032 H3026 0.949 . S
C3032 C3036 1.368 . S
C3033 C3014 1.429 . S
C3033 C3027 1.429 . S
C3033 C3034 1.523 . S
C3034 C3015 1.368 . S
C3034 C3028 1.368 . S
C3034 C3033 1.523 . S
C3035 C3019 1.429 . S
C3035 C3031 1.429 . S
C3035 C3036 1.523 . S
C3036 C3020 1.368 . S
C3036 C3032 1.368 . S
C3036 C3035 1.523 . S
H3037 C3012 0.950 . S
H3038 C3014 0.950 . S
H3039 C3015 0.949 . S
H3040 C3017 0.950 . S
H3041 C3019 0.950 . S
C3042 C3043 1.349 . S
C3042 C3044 1.327 . S
C3042 H3067 0.950 . S
C3043 C3042 1.349 . S
C3043 C3059 1.349 . S
C3044 C3042 1.327 . S
C3044 C3063 1.429 . S
C3044 H3068 0.950 . S
C3045 C3062 1.574 1_655 S
C3045 C3064 1.368 . S
C3045 H3069 0.949 . S
H3046 C3050 0.949 . S
C3047 C3048 1.349 . S
C3047 C3049 1.327 . S
C3047 H3070 0.950 . S
C3048 C3047 1.349 . S
C3048 C3060 1.349 . S
C3049 C3047 1.327 . S
C3049 C3065 1.429 . S
C3049 H3071 0.950 . S
C3050 H3046 0.949 . S
C3050 C3058 1.574 1_455 S
C3050 C3066 1.368 . S
H3051 C3059 0.950 . S
H3052 C3057 0.950 . S
H3053 C3058 0.949 . S
H3054 C3060 0.950 . S
H3055 C3061 0.950 . S
H3056 C3062 0.949 . S
C3057 H3052 0.950 . S
C3057 C3059 1.327 . S
C3057 C3063 1.429 . S
C3058 C3050 1.574 1_655 S
C3058 H3053 0.949 . S
C3058 C3064 1.368 . S
C3059 C3043 1.349 . S
C3059 H3051 0.950 . S
C3059 C3057 1.327 . S
C3060 C3048 1.349 . S
C3060 H3054 0.950 . S
C3060 C3061 1.327 . S
C3061 H3055 0.950 . S
C3061 C3060 1.327 . S
C3061 C3065 1.429 . S
C3062 C3045 1.574 1_455 S
C3062 H3056 0.949 . S
C3062 C3066 1.368 . S
C3063 C3044 1.429 . S
C3063 C3057 1.429 . S
C3063 C3064 1.523 . S
C3064 C3045 1.368 . S
C3064 C3058 1.368 . S
C3064 C3063 1.523 . S
C3065 C3049 1.429 . S
C3065 C3061 1.429 . S
C3065 C3066 1.523 . S
C3066 C3050 1.368 . S
C3066 C3062 1.368 . S
C3066 C3065 1.523 . S
H3067 C3042 0.950 . S
H3068 C3044 0.950 . S
H3069 C3045 0.949 . S
H3070 C3047 0.950 . S
H3071 C3049 0.950 . S
C3072 C3073 1.349 . S
C3072 C3074 1.327 . S
C3072 H3097 0.950 . S
C3073 C3072 1.349 . S
C3073 C3089 1.349 . S
C3074 C3072 1.327 . S
C3074 C3093 1.429 . S
C3074 H3098 0.950 . S
C3075 C3092 1.574 1_545 S
C3075 C3094 1.368 . S
C3075 H3099 0.949 . S
H3076 C3080 0.949 . S
C3077 C3078 1.349 . S
C3077 C3079 1.327 . S
C3077 H3100 0.950 . S
C3078 C3077 1.349 . S
C3078 C3090 1.349 . S
C3079 C3077 1.327 . S
C3079 C3095 1.429 . S
C3079 H3101 0.950 . S
C3080 H3076 0.949 . S
C3080 C3088 1.574 1_565 S
C3080 C3096 1.368 . S
H3081 C3089 0.950 . S
H3082 C3087 0.950 . S
H3083 C3088 0.949 . S
H3084 C3090 0.950 . S
H3085 C3091 0.950 . S
H3086 C3092 0.949 . S
C3087 H3082 0.950 . S
C3087 C3089 1.327 . S
C3087 C3093 1.429 . S
C3088 C3080 1.574 1_545 S
C3088 H3083 0.949 . S
C3088 C3094 1.368 . S
C3089 C3073 1.349 . S
C3089 H3081 0.950 . S
C3089 C3087 1.327 . S
C3090 C3078 1.349 . S
C3090 H3084 0.950 . S
C3090 C3091 1.327 . S
C3091 H3085 0.950 . S
C3091 C3090 1.327 . S
C3091 C3095 1.429 . S
C3092 C3075 1.574 1_565 S
C3092 H3086 0.949 . S
C3092 C3096 1.368 . S
C3093 C3074 1.429 . S
C3093 C3087 1.429 . S
C3093 C3094 1.523 . S
C3094 C3075 1.368 . S
C3094 C3088 1.368 . S
C3094 C3093 1.523 . S
C3095 C3079 1.429 . S
C3095 C3091 1.429 . S
C3095 C3096 1.523 . S
C3096 C3080 1.368 . S
C3096 C3092 1.368 . S
C3096 C3095 1.523 . S
H3097 C3072 0.950 . S
H3098 C3074 0.950 . S
H3099 C3075 0.949 . S
H3100 C3077 0.950 . S
H3101 C3079 0.950 . S
C3102 C3103 1.349 . S
C3102 C3104 1.327 . S
C3102 H3127 0.950 . S
C3103 C3102 1.349 . S
C3103 C3119 1.349 . S
C3104 C3102 1.327 . S
C3104 C3123 1.429 . S
C3104 H3128 0.950 . S
C3105 C3122 1.574 . S
C3105 C3124 1.368 . S
C3105 H3129 0.949 . S
H3106 C3110 0.949 . S
C3107 C3108 1.349 . S
C3107 C3109 1.327 . S
C3107 H3130 0.950 . S
C3108 C3107 1.349 . S
C3108 C3120 1.349 . S
C3109 C3107 1.327 . S
C3109 C3125 1.429 . S
C3109 H3131 0.950 . S
C3110 H3106 0.949 . S
C3110 C3118 1.574 . S
C3110 C3126 1.368 . S
H3111 C3119 0.950 . S
H3112 C3117 0.950 . S
H3113 C3118 0.949 . S
H3114 C3120 0.950 . S
H3115 C3121 0.950 . S
H3116 C3122 0.949 . S
C3117 H3112 0.950 . S
C3117 C3119 1.327 . S
C3117 C3123 1.429 . S
C3118 C3110 1.574 . S
C3118 H3113 0.949 . S
C3118 C3124 1.368 . S
C3119 C3103 1.349 . S
C3119 H3111 0.950 . S
C3119 C3117 1.327 . S
C3120 C3108 1.349 . S
C3120 H3114 0.950 . S
C3120 C3121 1.327 . S
C3121 H3115 0.950 . S
C3121 C3120 1.327 . S
C3121 C3125 1.429 . S
C3122 C3105 1.574 . S
C3122 H3116 0.949 . S
C3122 C3126 1.368 . S
C3123 C3104 1.429 . S
C3123 C3117 1.429 . S
C3123 C3124 1.523 . S
C3124 C3105 1.368 . S
C3124 C3118 1.368 . S
C3124 C3123 1.523 . S
C3125 C3109 1.429 . S
C3125 C3121 1.429 . S
C3125 C3126 1.523 . S
C3126 C3110 1.368 . S
C3126 C3122 1.368 . S
C3126 C3125 1.523 . S
H3127 C3102 0.950 . S
H3128 C3104 0.950 . S
H3129 C3105 0.949 . S
H3130 C3107 0.950 . S
H3131 C3109 0.950 . S
C3132 C3133 1.349 . S
C3132 C3134 1.327 . S
C3132 H3157 0.950 . S
C3133 C3132 1.349 . S
C3133 C3149 1.349 . S
C3134 C3132 1.327 . S
C3134 C3153 1.429 . S
C3134 H3158 0.950 . S
C3135 C3152 1.574 1_455 S
C3135 C3154 1.368 . S
C3135 H3159 0.949 . S
H3136 C3140 0.949 . S
C3137 C3138 1.349 . S
C3137 C3139 1.327 . S
C3137 H3160 0.950 . S
C3138 C3137 1.349 . S
C3138 C3150 1.349 . S
C3139 C3137 1.327 . S
C3139 C3155 1.429 . S
C3139 H3161 0.950 . S
C3140 H3136 0.949 . S
C3140 C3148 1.574 1_655 S
C3140 C3156 1.368 . S
H3141 C3149 0.950 . S
H3142 C3147 0.950 . S
H3143 C3148 0.949 . S
H3144 C3150 0.950 . S
H3145 C3151 0.950 . S
H3146 C3152 0.949 . S
C3147 H3142 0.950 . S
C3147 C3149 1.327 . S
C3147 C3153 1.429 . S
C3148 C3140 1.574 1_455 S
C3148 H3143 0.949 . S
C3148 C3154 1.368 . S
C3149 C3133 1.349 . S
C3149 H3141 0.950 . S
C3149 C3147 1.327 . S
C3150 C3138 1.349 . S
C3150 H3144 0.950 . S
C3150 C3151 1.327 . S
C3151 H3145 0.950 . S
C3151 C3150 1.327 . S
C3151 C3155 1.429 . S
C3152 C3135 1.574 1_655 S
C3152 H3146 0.949 . S
C3152 C3156 1.368 . S
C3153 C3134 1.429 . S
C3153 C3147 1.429 . S
C3153 C3154 1.523 . S
C3154 C3135 1.368 . S
C3154 C3148 1.368 . S
C3154 C3153 1.523 . S
C3155 C3139 1.429 . S
C3155 C3151 1.429 . S
C3155 C3156 1.523 . S
C3156 C3140 1.368 . S
C3156 C3152 1.368 . S
C3156 C3155 1.523 . S
H3157 C3132 0.950 . S
H3158 C3134 0.950 . S
H3159 C3135 0.949 . S
H3160 C3137 0.950 . S
H3161 C3139 0.950 . S
C3162 C3163 1.349 . S
C3162 C3164 1.327 . S
C3162 H3187 0.950 . S
C3163 C3162 1.349 . S
C3163 C3179 1.349 . S
C3164 C3162 1.327 . S
C3164 C3183 1.429 . S
C3164 H3188 0.950 . S
C3165 C3182 1.574 1_565 S
C3165 C3184 1.368 . S
C3165 H3189 0.949 . S
H3166 C3170 0.949 . S
C3167 C3168 1.349 . S
C3167 C3169 1.327 . S
C3167 H3190 0.950 . S
C3168 C3167 1.349 . S
C3168 C3180 1.349 . S
C3169 C3167 1.327 . S
C3169 C3185 1.429 . S
C3169 H3191 0.950 . S
C3170 H3166 0.949 . S
C3170 C3178 1.574 1_545 S
C3170 C3186 1.368 . S
H3171 C3179 0.950 . S
H3172 C3177 0.950 . S
H3173 C3178 0.949 . S
H3174 C3180 0.950 . S
H3175 C3181 0.950 . S
H3176 C3182 0.949 . S
C3177 H3172 0.950 . S
C3177 C3179 1.327 . S
C3177 C3183 1.429 . S
C3178 C3170 1.574 1_565 S
C3178 H3173 0.949 . S
C3178 C3184 1.368 . S
C3179 C3163 1.349 . S
C3179 H3171 0.950 . S
C3179 C3177 1.327 . S
C3180 C3168 1.349 . S
C3180 H3174 0.950 . S
C3180 C3181 1.327 . S
C3181 H3175 0.950 . S
C3181 C3180 1.327 . S
C3181 C3185 1.429 . S
C3182 C3165 1.574 1_545 S
C3182 H3176 0.949 . S
C3182 C3186 1.368 . S
C3183 C3164 1.429 . S
C3183 C3177 1.429 . S
C3183 C3184 1.523 . S
C3184 C3165 1.368 . S
C3184 C3178 1.368 . S
C3184 C3183 1.523 . S
C3185 C3169 1.429 . S
C3185 C3181 1.429 . S
C3185 C3186 1.523 . S
C3186 C3170 1.368 . S
C3186 C3182 1.368 . S
C3186 C3185 1.523 . S
H3187 C3162 0.950 . S
H3188 C3164 0.950 . S
H3189 C3165 0.949 . S
H3190 C3167 0.950 . S
H3191 C3169 0.950 . S
C3192 C3193 1.349 . S
C3192 C3194 1.327 . S
C3192 H3217 0.950 . S
C3193 C3192 1.349 . S
C3193 C3209 1.349 . S
C3194 C3192 1.327 . S
C3194 C3213 1.429 . S
C3194 H3218 0.950 1_556 S
C3195 C3212 1.574 . S
C3195 C3214 1.368 . S
C3195 H3219 0.949 . S
H3196 C3200 0.949 . S
C3197 C3198 1.349 . S
C3197 C3199 1.327 . S
C3197 H3220 0.950 . S
C3198 C3197 1.349 . S
C3198 C3210 1.349 . S
C3199 C3197 1.327 . S
C3199 C3215 1.429 . S
C3199 H3221 0.950 1_554 S
C3200 H3196 0.949 . S
C3200 C3208 1.574 . S
C3200 C3216 1.368 . S
H3201 C3209 0.950 . S
H3202 C3207 0.950 . S
H3203 C3208 0.949 . S
H3204 C3210 0.950 . S
H3205 C3211 0.950 . S
H3206 C3212 0.949 . S
C3207 H3202 0.950 . S
C3207 C3209 1.327 . S
C3207 C3213 1.429 . S
C3208 C3200 1.574 . S
C3208 H3203 0.949 . S
C3208 C3214 1.368 1_554 S
C3209 C3193 1.349 . S
C3209 H3201 0.950 . S
C3209 C3207 1.327 . S
C3210 C3198 1.349 . S
C3210 H3204 0.950 . S
C3210 C3211 1.327 . S
C3211 H3205 0.950 . S
C3211 C3210 1.327 . S
C3211 C3215 1.429 . S
C3212 C3195 1.574 . S
C3212 H3206 0.949 . S
C3212 C3216 1.368 1_556 S
C3213 C3194 1.429 . S
C3213 C3207 1.429 . S
C3213 C3214 1.523 . S
C3214 C3195 1.368 . S
C3214 C3208 1.368 1_556 S
C3214 C3213 1.523 . S
C3215 C3199 1.429 . S
C3215 C3211 1.429 . S
C3215 C3216 1.523 . S
C3216 C3200 1.368 . S
C3216 C3212 1.368 1_554 S
C3216 C3215 1.523 . S
H3217 C3192 0.950 . S
H3218 C3194 0.950 1_554 S
H3219 C3195 0.949 . S
H3220 C3197 0.950 . S
H3221 C3199 0.950 1_556 S
C3222 C3223 1.349 . S
C3222 C3224 1.327 . S
C3222 H3247 0.950 . S
C3223 C3222 1.349 . S
C3223 C3239 1.349 . S
C3224 C3222 1.327 . S
C3224 C3243 1.429 . S
C3224 H3248 0.950 . S
C3225 C3242 1.574 . S
C3225 C3244 1.368 . S
C3225 H3249 0.949 . S
H3226 C3230 0.949 . S
C3227 C3228 1.349 . S
C3227 C3229 1.327 . S
C3227 H3250 0.950 . S
C3228 C3227 1.349 . S
C3228 C3240 1.349 . S
C3229 C3227 1.327 . S
C3229 C3245 1.429 . S
C3229 H3251 0.950 . S
C3230 H3226 0.949 . S
C3230 C3238 1.574 . S
C3230 C3246 1.368 . S
H3231 C3239 0.950 . S
H3232 C3237 0.950 . S
H3233 C3238 0.949 . S
H3234 C3240 0.950 . S
H3235 C3241 0.950 . S
H3236 C3242 0.949 . S
C3237 H3232 0.950 . S
C3237 C3239 1.327 . S
C3237 C3243 1.429 . S
C3238 C3230 1.574 . S
C3238 H3233 0.949 . S
C3238 C3244 1.368 . S
C3239 C3223 1.349 . S
C3239 H3231 0.950 . S
C3239 C3237 1.327 . S
C3240 C3228 1.349 . S
C3240 H3234 0.950 . S
C3240 C3241 1.327 . S
C3241 H3235 0.950 . S
C3241 C3240 1.327 . S
C3241 C3245 1.429 . S
C3242 C3225 1.574 . S
C3242 H3236 0.949 . S
C3242 C3246 1.368 . S
C3243 C3224 1.429 . S
C3243 C3237 1.429 . S
C3243 C3244 1.523 . S
C3244 C3225 1.368 . S
C3244 C3238 1.368 . S
C3244 C3243 1.523 . S
C3245 C3229 1.429 . S
C3245 C3241 1.429 . S
C3245 C3246 1.523 . S
C3246 C3230 1.368 . S
C3246 C3242 1.368 . S
C3246 C3245 1.523 . S
H3247 C3222 0.950 . S
H3248 C3224 0.950 . S
H3249 C3225 0.949 . S
H3250 C3227 0.950 . S
H3251 C3229 0.950 . S
C3252 C3253 1.349 . S
C3252 C3254 1.327 . S
C3252 H3277 0.950 . S
C3253 C3252 1.349 . S
C3253 C3269 1.349 . S
C3254 C3252 1.327 . S
C3254 C3273 1.429 . S
C3254 H3278 0.950 . S
C3255 C3272 1.574 . S
C3255 C3274 1.368 1_554 S
C3255 H3279 0.949 . S
H3256 C3260 0.949 . S
C3257 C3258 1.349 . S
C3257 C3259 1.327 . S
C3257 H3280 0.950 . S
C3258 C3257 1.349 . S
C3258 C3270 1.349 . S
C3259 C3257 1.327 . S
C3259 C3275 1.429 . S
C3259 H3281 0.950 . S
C3260 H3256 0.949 . S
C3260 C3268 1.574 . S
C3260 C3276 1.368 1_556 S
H3261 C3269 0.950 . S
H3262 C3267 0.950 . S
H3263 C3268 0.949 . S
H3264 C3270 0.950 . S
H3265 C3271 0.950 . S
H3266 C3272 0.949 . S
C3267 H3262 0.950 . S
C3267 C3269 1.327 . S
C3267 C3273 1.429 . S
C3268 C3260 1.574 . S
C3268 H3263 0.949 . S
C3268 C3274 1.368 . S
C3269 C3253 1.349 . S
C3269 H3261 0.950 . S
C3269 C3267 1.327 . S
C3270 C3258 1.349 . S
C3270 H3264 0.950 . S
C3270 C3271 1.327 . S
C3271 H3265 0.950 . S
C3271 C3270 1.327 . S
C3271 C3275 1.429 . S
C3272 C3255 1.574 . S
C3272 H3266 0.949 . S
C3272 C3276 1.368 . S
C3273 C3254 1.429 . S
C3273 C3267 1.429 . S
C3273 C3274 1.523 . S
C3274 C3255 1.368 1_556 S
C3274 C3268 1.368 . S
C3274 C3273 1.523 . S
C3275 C3259 1.429 . S
C3275 C3271 1.429 . S
C3275 C3276 1.523 . S
C3276 C3260 1.368 1_554 S
C3276 C3272 1.368 . S
C3276 C3275 1.523 . S
H3277 C3252 0.950 . S
H3278 C3254 0.950 . S
H3279 C3255 0.949 . S
H3280 C3257 0.950 . S
H3281 C3259 0.950 . S
C3282 C3283 1.349 . S
C3282 C3284 1.327 . S
C3282 H3307 0.950 . S
C3283 C3282 1.349 . S
C3283 C3299 1.349 . S
C3284 C3282 1.327 . S
C3284 C3303 1.429 . S
C3284 H3308 0.950 . S
C3285 C3302 1.574 . S
C3285 C3304 1.368 . S
C3285 H3309 0.949 . S
H3286 C3290 0.949 . S
C3287 C3288 1.349 . S
C3287 C3289 1.327 . S
C3287 H3310 0.950 . S
C3288 C3287 1.349 . S
C3288 C3300 1.349 . S
C3289 C3287 1.327 . S
C3289 C3305 1.429 . S
C3289 H3311 0.950 . S
C3290 H3286 0.949 . S
C3290 C3298 1.574 . S
C3290 C3306 1.368 . S
H3291 C3299 0.950 . S
H3292 C3297 0.950 . S
H3293 C3298 0.949 . S
H3294 C3300 0.950 . S
H3295 C3301 0.950 . S
H3296 C3302 0.949 . S
C3297 H3292 0.950 . S
C3297 C3299 1.327 . S
C3297 C3303 1.429 . S
C3298 C3290 1.574 . S
C3298 H3293 0.949 . S
C3298 C3304 1.368 . S
C3299 C3283 1.349 . S
C3299 H3291 0.950 . S
C3299 C3297 1.327 . S
C3300 C3288 1.349 . S
C3300 H3294 0.950 . S
C3300 C3301 1.327 . S
C3301 H3295 0.950 . S
C3301 C3300 1.327 . S
C3301 C3305 1.429 . S
C3302 C3285 1.574 . S
C3302 H3296 0.949 . S
C3302 C3306 1.368 . S
C3303 C3284 1.429 . S
C3303 C3297 1.429 . S
C3303 C3304 1.523 . S
C3304 C3285 1.368 . S
C3304 C3298 1.368 . S
C3304 C3303 1.523 . S
C3305 C3289 1.429 . S
C3305 C3301 1.429 . S
C3305 C3306 1.523 . S
C3306 C3290 1.368 . S
C3306 C3302 1.368 . S
C3306 C3305 1.523 . S
H3307 C3282 0.950 . S
H3308 C3284 0.950 . S
H3309 C3285 0.949 . S
H3310 C3287 0.950 . S
H3311 C3289 0.950 . S
C3312 C3313 1.349 . S
C3312 C3314 1.327 . S
C3312 H3337 0.950 . S
C3313 C3312 1.349 . S
C3313 C3329 1.349 . S
C3314 C3312 1.327 . S
C3314 C3333 1.429 . S
C3314 H3338 0.950 . S
C3315 C3332 1.574 . S
C3315 C3334 1.368 1_554 S
C3315 H3339 0.949 . S
H3316 C3320 0.949 . S
C3317 C3318 1.349 . S
C3317 C3319 1.327 . S
C3317 H3340 0.950 . S
C3318 C3317 1.349 . S
C3318 C3330 1.349 . S
C3319 C3317 1.327 . S
C3319 C3335 1.429 . S
C3319 H3341 0.950 . S
C3320 H3316 0.949 . S
C3320 C3328 1.574 . S
C3320 C3336 1.368 1_556 S
H3321 C3329 0.950 . S
H3322 C3327 0.950 1_554 S
H3323 C3328 0.949 . S
H3324 C3330 0.950 . S
H3325 C3331 0.950 1_556 S
H3326 C3332 0.949 . S
C3327 H3322 0.950 1_556 S
C3327 C3329 1.327 . S
C3327 C3333 1.429 . S
C3328 C3320 1.574 . S
C3328 H3323 0.949 . S
C3328 C3334 1.368 . S
C3329 C3313 1.349 . S
C3329 H3321 0.950 . S
C3329 C3327 1.327 . S
C3330 C3318 1.349 . S
C3330 H3324 0.950 . S
C3330 C3331 1.327 . S
C3331 H3325 0.950 1_554 S
C3331 C3330 1.327 . S
C3331 C3335 1.429 . S
C3332 C3315 1.574 . S
C3332 H3326 0.949 . S
C3332 C3336 1.368 . S
C3333 C3314 1.429 . S
C3333 C3327 1.429 . S
C3333 C3334 1.523 . S
C3334 C3315 1.368 1_556 S
C3334 C3328 1.368 . S
C3334 C3333 1.523 . S
C3335 C3319 1.429 . S
C3335 C3331 1.429 . S
C3335 C3336 1.523 . S
C3336 C3320 1.368 1_554 S
C3336 C3332 1.368 . S
C3336 C3335 1.523 . S
H3337 C3312 0.950 . S
H3338 C3314 0.950 . S
H3339 C3315 0.949 . S
H3340 C3317 0.950 . S
H3341 C3319 0.950 . S
C3342 C3343 1.349 . S
C3342 C3344 1.327 . S
C3342 H3367 0.950 . S
C3343 C3342 1.349 . S
C3343 C3359 1.349 . S
C3344 C3342 1.327 . S
C3344 C3363 1.429 . S
C3344 H3368 0.950 . S
C3345 C3362 1.574 . S
C3345 C3364 1.368 . S
C3345 H3369 0.949 . S
H3346 C3350 0.949 . S
C3347 C3348 1.349 . S
C3347 C3349 1.327 . S
C3347 H3370 0.950 . S
C3348 C3347 1.349 . S
C3348 C3360 1.349 . S
C3349 C3347 1.327 . S
C3349 C3365 1.429 . S
C3349 H3371 0.950 . S
C3350 H3346 0.949 . S
C3350 C3358 1.574 . S
C3350 C3366 1.368 . S
H3351 C3359 0.950 . S
H3352 C3357 0.950 . S
H3353 C3358 0.949 . S
H3354 C3360 0.950 . S
H3355 C3361 0.950 . S
H3356 C3362 0.949 . S
C3357 H3352 0.950 . S
C3357 C3359 1.327 . S
C3357 C3363 1.429 . S
C3358 C3350 1.574 . S
C3358 H3353 0.949 . S
C3358 C3364 1.368 . S
C3359 C3343 1.349 . S
C3359 H3351 0.950 . S
C3359 C3357 1.327 . S
C3360 C3348 1.349 . S
C3360 H3354 0.950 . S
C3360 C3361 1.327 . S
C3361 H3355 0.950 . S
C3361 C3360 1.327 . S
C3361 C3365 1.429 . S
C3362 C3345 1.574 . S
C3362 H3356 0.949 . S
C3362 C3366 1.368 . S
C3363 C3344 1.429 . S
C3363 C3357 1.429 . S
C3363 C3364 1.523 . S
C3364 C3345 1.368 . S
C3364 C3358 1.368 . S
C3364 C3363 1.523 . S
C3365 C3349 1.429 . S
C3365 C3361 1.429 . S
C3365 C3366 1.523 . S
C3366 C3350 1.368 . S
C3366 C3362 1.368 . S
C3366 C3365 1.523 . S
H3367 C3342 0.950 . S
H3368 C3344 0.950 . S
H3369 C3345 0.949 . S
H3370 C3347 0.950 . S
H3371 C3349 0.950 . S
C3372 C3373 1.349 . S
C3372 C3374 1.327 . S
C3372 H3397 0.950 . S
C3373 C3372 1.349 . S
C3373 C3389 1.349 . S
C3374 C3372 1.327 . S
C3374 C3393 1.429 . S
C3374 H3398 0.950 . S
C3375 C3392 1.574 . S
C3375 C3394 1.368 1_556 S
C3375 H3399 0.949 . S
H3376 C3380 0.949 . S
C3377 C3378 1.349 . S
C3377 C3379 1.327 . S
C3377 H3400 0.950 . S
C3378 C3377 1.349 . S
C3378 C3390 1.349 . S
C3379 C3377 1.327 . S
C3379 C3395 1.429 . S
C3379 H3401 0.950 . S
C3380 H3376 0.949 . S
C3380 C3388 1.574 . S
C3380 C3396 1.368 1_554 S
H3381 C3389 0.950 . S
H3382 C3387 0.950 1_556 S
H3383 C3388 0.949 . S
H3384 C3390 0.950 . S
H3385 C3391 0.950 1_554 S
H3386 C3392 0.949 . S
C3387 H3382 0.950 1_554 S
C3387 C3389 1.327 . S
C3387 C3393 1.429 . S
C3388 C3380 1.574 . S
C3388 H3383 0.949 . S
C3388 C3394 1.368 . S
C3389 C3373 1.349 . S
C3389 H3381 0.950 . S
C3389 C3387 1.327 . S
C3390 C3378 1.349 . S
C3390 H3384 0.950 . S
C3390 C3391 1.327 . S
C3391 H3385 0.950 1_556 S
C3391 C3390 1.327 . S
C3391 C3395 1.429 . S
C3392 C3375 1.574 . S
C3392 H3386 0.949 . S
C3392 C3396 1.368 . S
C3393 C3374 1.429 . S
C3393 C3387 1.429 . S
C3393 C3394 1.523 . S
C3394 C3375 1.368 1_554 S
C3394 C3388 1.368 . S
C3394 C3393 1.523 . S
C3395 C3379 1.429 . S
C3395 C3391 1.429 . S
C3395 C3396 1.523 . S
C3396 C3380 1.368 1_556 S
C3396 C3392 1.368 . S
C3396 C3395 1.523 . S
H3397 C3372 0.950 . S
H3398 C3374 0.950 . S
H3399 C3375 0.949 . S
H3400 C3377 0.950 . S
H3401 C3379 0.950 . S
C3402 C3403 1.349 . S
C3402 C3404 1.327 . S
C3402 H3427 0.950 . S
C3403 C3402 1.349 . S
C3403 C3419 1.349 . S
C3404 C3402 1.327 . S
C3404 C3423 1.429 . S
C3404 H3428 0.950 . S
C3405 C3422 1.574 . S
C3405 C3424 1.368 . S
C3405 H3429 0.949 . S
H3406 C3410 0.949 . S
C3407 C3408 1.349 . S
C3407 C3409 1.327 . S
C3407 H3430 0.950 . S
C3408 C3407 1.349 . S
C3408 C3420 1.349 . S
C3409 C3407 1.327 . S
C3409 C3425 1.429 . S
C3409 H3431 0.950 . S
C3410 H3406 0.949 . S
C3410 C3418 1.574 . S
C3410 C3426 1.368 . S
H3411 C3419 0.950 . S
H3412 C3417 0.950 . S
H3413 C3418 0.949 . S
H3414 C3420 0.950 . S
H3415 C3421 0.950 . S
H3416 C3422 0.949 . S
C3417 H3412 0.950 . S
C3417 C3419 1.327 . S
C3417 C3423 1.429 . S
C3418 C3410 1.574 . S
C3418 H3413 0.949 . S
C3418 C3424 1.368 . S
C3419 C3403 1.349 . S
C3419 H3411 0.950 . S
C3419 C3417 1.327 . S
C3420 C3408 1.349 . S
C3420 H3414 0.950 . S
C3420 C3421 1.327 . S
C3421 H3415 0.950 . S
C3421 C3420 1.327 . S
C3421 C3425 1.429 . S
C3422 C3405 1.574 . S
C3422 H3416 0.949 . S
C3422 C3426 1.368 . S
C3423 C3404 1.429 . S
C3423 C3417 1.429 . S
C3423 C3424 1.523 . S
C3424 C3405 1.368 . S
C3424 C3418 1.368 . S
C3424 C3423 1.523 . S
C3425 C3409 1.429 . S
C3425 C3421 1.429 . S
C3425 C3426 1.523 . S
C3426 C3410 1.368 . S
C3426 C3422 1.368 . S
C3426 C3425 1.523 . S
H3427 C3402 0.950 . S
H3428 C3404 0.950 . S
H3429 C3405 0.949 . S
H3430 C3407 0.950 . S
H3431 C3409 0.950 . S
C3432 C3433 1.349 . S
C3432 C3434 1.327 . S
C3432 H3457 0.950 . S
C3433 C3432 1.349 . S
C3433 C3449 1.349 . S
C3434 C3432 1.327 . S
C3434 C3453 1.429 . S
C3434 H3458 0.950 . S
C3435 C3452 1.574 . S
C3435 C3454 1.368 1_556 S
C3435 H3459 0.949 . S
H3436 C3440 0.949 . S
C3437 C3438 1.349 . S
C3437 C3439 1.327 . S
C3437 H3460 0.950 . S
C3438 C3437 1.349 . S
C3438 C3450 1.349 . S
C3439 C3437 1.327 . S
C3439 C3455 1.429 . S
C3439 H3461 0.950 . S
C3440 H3436 0.949 . S
C3440 C3448 1.574 . S
C3440 C3456 1.368 1_554 S
H3441 C3449 0.950 . S
H3442 C3447 0.950 . S
H3443 C3448 0.949 . S
H3444 C3450 0.950 . S
H3445 C3451 0.950 . S
H3446 C3452 0.949 . S
C3447 H3442 0.950 . S
C3447 C3449 1.327 . S
C3447 C3453 1.429 . S
C3448 C3440 1.574 . S
C3448 H3443 0.949 . S
C3448 C3454 1.368 . S
C3449 C3433 1.349 . S
C3449 H3441 0.950 . S
C3449 C3447 1.327 . S
C3450 C3438 1.349 . S
C3450 H3444 0.950 . S
C3450 C3451 1.327 . S
C3451 H3445 0.950 . S
C3451 C3450 1.327 . S
C3451 C3455 1.429 . S
C3452 C3435 1.574 . S
C3452 H3446 0.949 . S
C3452 C3456 1.368 . S
C3453 C3434 1.429 . S
C3453 C3447 1.429 . S
C3453 C3454 1.523 . S
C3454 C3435 1.368 1_554 S
C3454 C3448 1.368 . S
C3454 C3453 1.523 . S
C3455 C3439 1.429 . S
C3455 C3451 1.429 . S
C3455 C3456 1.523 . S
C3456 C3440 1.368 1_556 S
C3456 C3452 1.368 . S
C3456 C3455 1.523 . S
H3457 C3432 0.950 . S
H3458 C3434 0.950 . S
H3459 C3435 0.949 . S
H3460 C3437 0.950 . S
H3461 C3439 0.950 . S
C3462 C3463 1.349 . S
C3462 C3464 1.327 . S
C3462 H3487 0.950 . S
C3463 C3462 1.349 . S
C3463 C3479 1.349 . S
C3464 C3462 1.327 . S
C3464 C3483 1.429 . S
C3464 H3488 0.950 . S
C3465 C3482 1.574 . S
C3465 C3484 1.368 . S
C3465 H3489 0.949 . S
H3466 C3470 0.949 . S
C3467 C3468 1.349 . S
C3467 C3469 1.327 . S
C3467 H3490 0.950 . S
C3468 C3467 1.349 . S
C3468 C3480 1.349 . S
C3469 C3467 1.327 . S
C3469 C3485 1.429 . S
C3469 H3491 0.950 . S
C3470 H3466 0.949 . S
C3470 C3478 1.574 . S
C3470 C3486 1.368 . S
H3471 C3479 0.950 . S
H3472 C3477 0.950 . S
H3473 C3478 0.949 . S
H3474 C3480 0.950 . S
H3475 C3481 0.950 . S
H3476 C3482 0.949 . S
C3477 H3472 0.950 . S
C3477 C3479 1.327 . S
C3477 C3483 1.429 . S
C3478 C3470 1.574 . S
C3478 H3473 0.949 . S
C3478 C3484 1.368 . S
C3479 C3463 1.349 . S
C3479 H3471 0.950 . S
C3479 C3477 1.327 . S
C3480 C3468 1.349 . S
C3480 H3474 0.950 . S
C3480 C3481 1.327 . S
C3481 H3475 0.950 . S
C3481 C3480 1.327 . S
C3481 C3485 1.429 . S
C3482 C3465 1.574 . S
C3482 H3476 0.949 . S
C3482 C3486 1.368 . S
C3483 C3464 1.429 . S
C3483 C3477 1.429 . S
C3483 C3484 1.523 . S
C3484 C3465 1.368 . S
C3484 C3478 1.368 . S
C3484 C3483 1.523 . S
C3485 C3469 1.429 . S
C3485 C3481 1.429 . S
C3485 C3486 1.523 . S
C3486 C3470 1.368 . S
C3486 C3482 1.368 . S
C3486 C3485 1.523 . S
H3487 C3462 0.950 . S
H3488 C3464 0.950 . S
H3489 C3465 0.949 . S
H3490 C3467 0.950 . S
H3491 C3469 0.950 . S
C3492 C3493 1.349 . S
C3492 C3494 1.327 . S
C3492 H3517 0.950 . S
C3493 C3492 1.349 . S
C3493 C3509 1.349 . S
C3494 C3492 1.327 . S
C3494 C3513 1.429 . S
C3494 H3518 0.950 . S
C3495 C3512 1.574 . S
C3495 C3514 1.368 1_554 S
C3495 H3519 0.949 . S
H3496 C3500 0.949 . S
C3497 C3498 1.349 . S
C3497 C3499 1.327 . S
C3497 H3520 0.950 . S
C3498 C3497 1.349 . S
C3498 C3510 1.349 . S
C3499 C3497 1.327 . S
C3499 C3515 1.429 . S
C3499 H3521 0.950 . S
C3500 H3496 0.949 . S
C3500 C3508 1.574 . S
C3500 C3516 1.368 1_556 S
H3501 C3509 0.950 . S
H3502 C3507 0.950 1_554 S
H3503 C3508 0.949 . S
H3504 C3510 0.950 . S
H3505 C3511 0.950 1_556 S
H3506 C3512 0.949 . S
C3507 H3502 0.950 1_556 S
C3507 C3509 1.327 . S
C3507 C3513 1.429 . S
C3508 C3500 1.574 . S
C3508 H3503 0.949 . S
C3508 C3514 1.368 . S
C3509 C3493 1.349 . S
C3509 H3501 0.950 . S
C3509 C3507 1.327 . S
C3510 C3498 1.349 . S
C3510 H3504 0.950 . S
C3510 C3511 1.327 . S
C3511 H3505 0.950 1_554 S
C3511 C3510 1.327 . S
C3511 C3515 1.429 . S
C3512 C3495 1.574 . S
C3512 H3506 0.949 . S
C3512 C3516 1.368 . S
C3513 C3494 1.429 . S
C3513 C3507 1.429 . S
C3513 C3514 1.523 . S
C3514 C3495 1.368 1_556 S
C3514 C3508 1.368 . S
C3514 C3513 1.523 . S
C3515 C3499 1.429 . S
C3515 C3511 1.429 . S
C3515 C3516 1.523 . S
C3516 C3500 1.368 1_554 S
C3516 C3512 1.368 . S
C3516 C3515 1.523 . S
H3517 C3492 0.950 . S
H3518 C3494 0.950 . S
H3519 C3495 0.949 . S
H3520 C3497 0.950 . S
H3521 C3499 0.950 . S
C3522 C3523 1.349 . S
C3522 C3524 1.327 . S
C3522 H3547 0.950 . S
C3523 C3522 1.349 . S
C3523 C3539 1.349 . S
C3524 C3522 1.327 . S
C3524 C3543 1.429 . S
C3524 H3548 0.950 . S
C3525 C3542 1.574 . S
C3525 C3544 1.368 . S
C3525 H3549 0.949 . S
H3526 C3530 0.949 . S
C3527 C3528 1.349 . S
C3527 C3529 1.327 . S
C3527 H3550 0.950 . S
C3528 C3527 1.349 . S
C3528 C3540 1.349 . S
C3529 C3527 1.327 . S
C3529 C3545 1.429 . S
C3529 H3551 0.950 . S
C3530 H3526 0.949 . S
C3530 C3538 1.574 . S
C3530 C3546 1.368 . S
H3531 C3539 0.950 . S
H3532 C3537 0.950 . S
H3533 C3538 0.949 . S
H3534 C3540 0.950 . S
H3535 C3541 0.950 . S
H3536 C3542 0.949 . S
C3537 H3532 0.950 . S
C3537 C3539 1.327 . S
C3537 C3543 1.429 . S
C3538 C3530 1.574 . S
C3538 H3533 0.949 . S
C3538 C3544 1.368 . S
C3539 C3523 1.349 . S
C3539 H3531 0.950 . S
C3539 C3537 1.327 . S
C3540 C3528 1.349 . S
C3540 H3534 0.950 . S
C3540 C3541 1.327 . S
C3541 H3535 0.950 . S
C3541 C3540 1.327 . S
C3541 C3545 1.429 . S
C3542 C3525 1.574 . S
C3542 H3536 0.949 . S
C3542 C3546 1.368 . S
C3543 C3524 1.429 . S
C3543 C3537 1.429 . S
C3543 C3544 1.523 . S
C3544 C3525 1.368 . S
C3544 C3538 1.368 . S
C3544 C3543 1.523 . S
C3545 C3529 1.429 . S
C3545 C3541 1.429 . S
C3545 C3546 1.523 . S
C3546 C3530 1.368 . S
C3546 C3542 1.368 . S
C3546 C3545 1.523 . S
H3547 C3522 0.950 . S
H3548 C3524 0.950 . S
H3549 C3525 0.949 . S
H3550 C3527 0.950 . S
H3551 C3529 0.950 . S
C2113 C20 1.516 . S
C2118 C1369 1.518 . S
C2143 C117 1.516 . S
C2148 C1457 1.518 . S
C2173 C1553 1.518 . S
C2178 C205 1.516 . S
C2203 C1105 1.518 . S
C2208 C293 1.516 . S
C2233 C1164 1.518 . S
C2238 C372 1.516 . S
C2263 C1281 1.518 . S
C2268 C460 1.516 . S
C2293 C1868 1.518 . S
C2298 C577 1.516 . S
C2323 C665 1.516 . S
C2328 C1965 1.518 . S
C2353 C2044 1.518 . S
C2358 C753 1.516 . S
C2383 C841 1.516 . S
C2388 C1641 1.518 . S
C2413 C1701 1.518 . S
C2418 C929 1.516 . S
C2443 C1025 1.516 . S
C2448 C1789 1.518 . S
C2473 C909 0.676 . S
C2478 C57 0.676 . S
C2503 C988 0.675 . S
C2508 C137 0.675 . S
C2533 C225 0.676 . S
C2538 C557 0.676 . S
C2563 C313 0.676 . S
C2568 C645 0.676 . S
C2593 C733 0.675 . S
C2598 C409 0.675 . S
C2623 C497 0.676 . S
C2628 C821 0.676 . S
C2653 C1956 0.659 . S
C2658 C1113 0.659 . S
C2683 C1173 0.660 . S
C2688 C2053 0.660 . S
C2713 C1289 0.659 . S
C2718 C1633 0.659 . S
C2743 C1692 0.659 . S
C2748 C1377 0.659 . S
C2773 C1465 0.660 . S
C2778 C1780 0.660 . S
C2803 C1545 0.660 . S
C2808 C1877 0.660 . S
C2833 C29 1.005 . S
C2838 C1604 1.005 . S
C2863 C1721 1.005 . S
C2868 C108 1.005 . S
C2893 C196 1.005 . S
C2898 C1809 1.005 . S
C2923 C284 1.005 . S
C2928 C1905 1.005 . S
C2953 C1985 1.005 . S
C2958 C381 1.005 . S
C2983 C469 1.005 . S
C2988 C2081 1.005 . S
C3013 C585 1.005 . S
C3018 C1085 1.005 . S
C3043 C673 1.005 . S
C3048 C1201 1.005 . S
C3073 C1261 1.005 . S
C3078 C761 1.005 . S
C3103 C1349 1.005 . S
C3108 C849 1.005 . S
C3133 C937 1.005 . S
C3138 C1437 1.005 . S
C3163 C1516 1.005 . S
C3168 C1017 1.005 . S
C3193 C548 1.655 . S
C3198 C49 1.655 . S
C3223 C145 1.655 . S
C3228 C636 1.655 . S
C3253 C724 1.654 . S
C3258 C233 1.654 . S
C3283 C812 1.655 . S
C3288 C321 1.655 . S
C3313 C900 1.655 . S
C3318 C401 1.655 . S
C3343 C489 1.655 . S
C3348 C997 1.655 . S
C3373 C1613 1.649 . S
C3378 C1076 1.649 . S
C3403 C1193 1.649 . S
C3408 C1729 1.649 . S
C3433 C1817 1.649 . S
C3438 C1252 1.649 . S
C3463 C1897 1.649 . S
C3468 C1340 1.649 . S
C3493 C1428 1.649 . S
C3498 C1993 1.649 . S
C3523 C1525 1.649 . S
C3528 C2073 1.649 . S
