# Generated by pormake.
# Topology qdl, (4)-cn, num edge types: 1
# Building blocks:
#     Node 0, Type 0, BuildingBlock: NAWXER_clean_sbu_0, # of connection points: 4
#     Node 1, Type 0, BuildingBlock: NAWXER_clean_sbu_0, # of connection points: 4
#     Node 2, Type 0, BuildingBlock: NAWXER_clean_sbu_0, # of connection points: 4
#     Node 3, Type 0, BuildingBlock: NAWXER_clean_sbu_0, # of connection points: 4
#     Node 4, Type 0, BuildingBlock: NAWXER_clean_sbu_0, # of connection points: 4
#     Node 5, Type 0, BuildingBlock: NAWXER_clean_sbu_0, # of connection points: 4
#     Edge 6, Type (0, 0), BuildingBlock: EZIPEK_clean_linker_0, # of connection points: 2
#     Edge 7, Type (0, 0), BuildingBlock: EZIPEK_clean_linker_0, # of connection points: 2
#     Edge 8, Type (0, 0), BuildingBlock: EZIPEK_clean_linker_0, # of connection points: 2
#     Edge 9, Type (0, 0), BuildingBlock: EZIPEK_clean_linker_0, # of connection points: 2
#     Edge 10, Type (0, 0), BuildingBlock: EZIPEK_clean_linker_0, # of connection points: 2
#     Edge 11, Type (0, 0), BuildingBlock: EZIPEK_clean_linker_0, # of connection points: 2
#     Edge 12, Type (0, 0), BuildingBlock: EZIPEK_clean_linker_0, # of connection points: 2
#     Edge 13, Type (0, 0), BuildingBlock: EZIPEK_clean_linker_0, # of connection points: 2
#     Edge 14, Type (0, 0), BuildingBlock: EZIPEK_clean_linker_0, # of connection points: 2
#     Edge 15, Type (0, 0), BuildingBlock: EZIPEK_clean_linker_0, # of connection points: 2
#     Edge 16, Type (0, 0), BuildingBlock: EZIPEK_clean_linker_0, # of connection points: 2
#     Edge 17, Type (0, 0), BuildingBlock: EZIPEK_clean_linker_0, # of connection points: 2
# Relax obj value: 0.000
# Max RMSD: 0.025
# Mean RMSD: 0.019
data_MOF--net-qdl--node1-NAWXER_clean_sbu_0--edge1-EZIPEK_clean_linker_0
_symmetry_space_group_name_H-M    P1
_symmetry_Int_Tables_number       1
_symmetry_cell_setting            triclinic
loop_
_symmetry_equiv_pos_as_xyz
'x, y, z'
_cell_length_a     10.624022
_cell_length_b     10.629512
_cell_length_c     63.284014
_cell_angle_alpha  94.50768
_cell_angle_beta   94.918507
_cell_angle_gamma 120.03926
loop_
_atom_site_label
_atom_site_type_symbol
_atom_site_fract_x
_atom_site_fract_y
_atom_site_fract_z
_atom_type_partial_charge
C0 C 0.44236 0.11792 0.10799 0.0
C1 C 0.42903 0.56922 0.10841 0.0
O2 O 0.55219 0.24817 0.11142 0.0
Zn3 Zn 0.439 0.34317 0.10801 0.0
O4 O 0.31162 0.09501 0.10385 0.0
Zn5 Zn 0.2064 0.22265 0.10128 0.0
O6 O 0.11228 0.16687 0.07186 0.0
O7 O 0.35325 0.27838 0.07442 0.0
O8 O 0.30043 0.45477 0.10546 0.0
O9 O 0.54123 0.55538 0.11068 0.0
O10 O 0.32473 0.2894 0.13561 0.0
O11 O 0.08588 0.16492 0.12381 0.0
C12 C 0.22699 0.21526 0.06281 0.0
C13 C 0.1911 0.22086 0.13927 0.0
C14 C 0.04937 0.77068 0.42042 0.0
C15 C 0.58856 0.76817 0.41818 0.0
O16 O 0.91939 0.66083 0.41652 0.0
Zn17 Zn 0.82096 0.77064 0.41917 0.0
O18 O 0.07097 0.90082 0.4246 0.0
Zn19 Zn 0.93499 0.9998 0.42715 0.0
O20 O 0.99097 0.09343 0.45626 0.0
O21 O 0.87371 0.85111 0.45328 0.0
O22 O 0.69984 0.89832 0.42314 0.0
O23 O 0.60772 0.66061 0.41421 0.0
O24 O 0.88522 0.8934 0.39228 0.0
O25 O 0.9902 0.12722 0.40554 0.0
C26 C 0.93846 0.9772 0.46494 0.0
C27 C 0.94987 1.02911 0.38953 0.0
C28 C 0.07003 0.04885 0.80245 0.0
C29 C 0.0496 0.96927 0.7248 0.0
O30 O 1.00876 0.08751 0.78834 0.0
Zn31 Zn 0.0605 1.01304 0.7639 0.0
O32 O 0.13827 0.98328 0.79691 0.0
Zn33 Zn 0.18181 0.905 0.76749 0.0
O34 O 0.39342 1.0163 0.76934 0.0
O35 O 0.29361 0.15457 0.76734 0.0
O36 O 0.11429 0.91248 0.73482 0.0
O37 O 0.99931 0.03628 0.73547 0.0
O38 O 0.93317 0.78103 0.76456 0.0
O39 O 0.08566 0.69698 0.76881 0.0
C40 C 0.40757 0.14179 0.76863 0.0
C41 C 0.95578 0.67485 0.76685 0.0
C42 C 0.039 0.04352 0.63498 0.0
C43 C 1.0009 0.03376 0.55736 0.0
O44 O 0.09937 0.17257 0.62955 0.0
Zn45 Zn 0.14345 0.26903 0.60042 0.0
O46 O 0.98134 0.93246 0.62054 0.0
Zn47 Zn 1.02132 0.03622 0.59588 0.0
O48 O 0.25327 0.13037 0.59686 0.0
O49 O 0.35566 0.37088 0.60352 0.0
O50 O 0.94733 0.92471 0.56767 0.0
O51 O 0.07501 0.16501 0.56744 0.0
O52 O 0.04787 0.38277 0.60178 0.0
O53 O 0.89506 0.1423 0.59773 0.0
C54 C 0.36845 0.25857 0.60032 0.0
C55 C 0.91784 0.27334 0.59981 0.0
C56 C 0.11273 0.1544 0.97057 0.0
C57 C 0.04089 0.11034 0.89301 0.0
O58 O 0.04352 0.21737 0.96397 0.0
Zn59 Zn 0.95987 0.24533 0.93335 0.0
O60 O 0.15062 0.08878 0.95721 0.0
Zn61 Zn 0.0711 0.12789 0.93181 0.0
O62 O 0.20763 0.36375 0.93327 0.0
O63 O 0.06193 0.45603 0.9348 0.0
O64 O 0.10064 0.05814 0.90486 0.0
O65 O 0.98386 0.1804 0.90136 0.0
O66 O 0.74976 0.14334 0.93345 0.0
O67 O 0.83797 0.9942 0.93191 0.0
C68 C 0.18923 0.47441 0.93427 0.0
C69 C 0.72925 1.01467 0.93264 0.0
C70 C 0.09464 0.17924 0.30479 0.0
C71 C 0.14604 0.1976 0.22916 0.0
O72 O 0.9958 0.14323 0.28893 0.0
Zn73 Zn 0.12094 0.19527 0.2669 0.0
O74 O 0.2294 0.24115 0.3017 0.0
Zn75 Zn 0.35145 0.31129 0.27509 0.0
O76 O 0.45769 0.52397 0.28085 0.0
O77 O 0.22028 0.4289 0.2707 0.0
O78 O 0.27139 0.26413 0.24114 0.0
O79 O 1.02853 0.13804 0.23751 0.0
O80 O 0.22211 0.06203 0.26991 0.0
O81 O 0.46281 0.2139 0.2773 0.0
C82 C 0.34927 0.54129 0.27617 0.0
C83 C 0.35275 0.08391 0.27384 0.0
C84 C 0.51502 0.95861 0.12674 0.0
C85 C 0.46193 0.98971 0.10769 0.0
C86 C 0.38418 0.74548 0.08948 0.0
C87 C 0.44472 0.71593 0.10809 0.0
N88 N 0.58417 0.80083 0.14367 0.0
N89 N 0.38224 0.93031 0.06963 0.0
C90 C 0.51699 0.82535 0.1264 0.0
C91 C 0.40782 0.88838 0.08867 0.0
N92 N 0.55469 0.05171 0.14544 0.0
N93 N 0.30036 0.63675 0.07271 0.0
H94 H 0.40115 0.03554 0.0684 0.0
H95 H 0.35746 0.86665 0.05483 0.0
H96 H 0.28061 0.53038 0.07209 0.0
H97 H 0.23932 0.64853 0.06006 0.0
H98 H 0.57707 1.02685 0.16038 0.0
H99 H 0.55515 0.1503 0.14631 0.0
H100 H 0.65386 0.88267 0.15625 0.0
H101 H 0.57711 0.70045 0.14498 0.0
C102 C 0.243 0.72789 0.43784 0.0
C103 C 0.17669 0.75027 0.41922 0.0
C104 C 0.36039 0.74458 0.39883 0.0
C105 C 0.43878 0.74469 0.41811 0.0
N106 N 0.45973 0.73987 0.45622 0.0
N107 N 0.17351 0.7874 0.38211 0.0
C108 C 0.38096 0.73633 0.4377 0.0
C109 C 0.23524 0.75984 0.39968 0.0
N110 N 0.17256 0.696 0.45547 0.0
N111 N 0.40432 0.72707 0.3797 0.0
H112 H 0.07863 0.79386 0.38191 0.0
H113 H 0.2209 0.81272 0.36816 0.0
H114 H 0.4927 0.71082 0.37868 0.0
H115 H 0.34528 0.71361 0.36486 0.0
H116 H 0.20795 0.66522 0.4689 0.0
H117 H 0.07114 0.6885 0.45597 0.0
H118 H 0.43309 0.75236 0.47139 0.0
H119 H 0.55724 0.73819 0.45653 0.0
C120 C 0.80311 0.45718 0.78526 0.0
C121 C 0.82737 0.52684 0.76656 0.0
C122 C 0.5765 0.34886 0.74975 0.0
C123 C 0.55358 0.27255 0.76788 0.0
N124 N 0.65066 0.24341 0.80192 0.0
N125 N 0.75298 0.5192 0.72926 0.0
C126 C 0.66941 0.32241 0.78523 0.0
C127 C 0.71877 0.46624 0.74827 0.0
N128 N 0.90336 0.52442 0.80346 0.0
N129 N 0.46219 0.31286 0.73413 0.0
H130 H 0.85736 0.60402 0.72754 0.0
H131 H 0.68327 0.46939 0.71476 0.0
H132 H 0.35597 0.22624 0.73397 0.0
H133 H 0.46981 0.37665 0.72207 0.0
H134 H 0.88423 0.48871 0.81834 0.0
H135 H 1.00249 0.62274 0.80411 0.0
H136 H 0.73645 0.26404 0.81361 0.0
H137 H 0.55074 0.15175 0.80356 0.0
C138 C 0.56062 0.20701 0.61611 0.0
C139 C 0.51554 0.27377 0.60091 0.0
C140 C 0.7438 0.35234 0.58539 0.0
C141 C 0.79095 0.29329 0.60148 0.0
N142 N 0.76454 0.20264 0.63547 0.0
N143 N 0.57109 0.42462 0.57244 0.0
C144 C 0.70553 0.23273 0.61788 0.0
C145 C 0.61025 0.35276 0.58614 0.0
N146 N 0.46457 0.11488 0.62847 0.0
N147 N 0.82164 0.39956 0.56869 0.0
H148 H 0.4687 0.41638 0.57091 0.0
H149 H 0.64306 0.49867 0.56329 0.0
H150 H 0.92024 0.40192 0.5677 0.0
H151 H 0.78402 0.427 0.55508 0.0
H152 H 0.48773 0.05095 0.63791 0.0
H153 H 0.35667 0.09059 0.62793 0.0
H154 H 0.71299 0.17234 0.64901 0.0
H155 H 0.87215 0.22358 0.63752 0.0
C156 C 0.40432 0.70839 0.95364 0.0
C157 C 0.3169 0.62255 0.93404 0.0
C158 C 0.48463 0.81144 0.91398 0.0
C159 C 0.58134 0.88774 0.93335 0.0
N160 N 0.63904 0.91071 0.97164 0.0
N161 N 0.2733 0.58535 0.89544 0.0
C162 C 0.5423 0.83726 0.95324 0.0
C163 C 0.35629 0.67268 0.91415 0.0
N164 N 0.35398 0.6674 0.97257 0.0
N165 N 0.51488 0.87295 0.89552 0.0
H166 H 0.17537 0.48599 0.89497 0.0
H167 H 0.30517 0.60653 0.8804 0.0
H168 H 0.60818 0.97435 0.89493 0.0
H169 H 0.44262 0.83015 0.88121 0.0
H170 H 0.40522 0.73154 0.98741 0.0
H171 H 0.25374 0.57309 0.97334 0.0
H172 H 0.62591 0.87079 0.98628 0.0
H173 H 0.73766 1.00937 0.97207 0.0
C174 C 0.44475 0.78355 0.26222 0.0
C175 C 0.36874 0.69002 0.27725 0.0
C176 C 0.31449 0.87327 0.29282 0.0
C177 C 0.37224 0.95678 0.27602 0.0
N178 N 0.48613 0.9911 0.24399 0.0
N179 N 0.22172 0.63971 0.306 0.0
C180 C 0.43781 0.91312 0.26067 0.0
C181 C 0.30127 0.73342 0.29235 0.0
N182 N 0.52148 0.74744 0.24919 0.0
N183 N 0.27671 0.93019 0.30961 0.0
H184 H 0.21437 0.53895 0.30689 0.0
H185 H 0.15497 0.65717 0.31547 0.0
H186 H 0.28836 0.03396 0.31071 0.0
H187 H 0.2481 0.88187 0.32345 0.0
H188 H 0.59265 0.81851 0.23967 0.0
H189 H 0.52183 0.64944 0.24885 0.0
H190 H 0.51847 0.95587 0.2308 0.0
H191 H 0.48526 0.08776 0.24258 0.0
C192 C 0.19267 0.10758 0.19461 0.0
C193 C 0.14021 0.18986 0.20559 0.0
C194 C 0.10978 0.28438 0.17251 0.0
C195 C 0.16159 0.20157 0.16157 0.0
N196 N 0.2257 1.01374 0.16057 0.0
N197 N 1.028 0.33888 0.20483 0.0
C198 C 0.19539 0.10711 0.17217 0.0
C199 C 0.09109 0.27185 0.19442 0.0
N200 N 0.24119 0.03102 0.20575 0.0
N201 N 0.08607 0.38081 0.16223 0.0
H202 H 1.02043 0.33995 0.22115 0.0
H203 H 0.97472 0.38596 0.19714 0.0
H204 H 0.09644 0.39111 0.14612 0.0
H205 H 0.06498 0.45731 0.16983 0.0
H206 H 0.29839 0.98451 0.19947 0.0
H207 H 0.2298 1.01884 0.22179 0.0
H208 H 0.23793 0.93208 0.16677 0.0
H209 H 0.22723 1.00972 0.14408 0.0
C210 C 0.0614 0.96351 0.52258 0.0
C211 C 0.97857 1.011 0.53366 0.0
C212 C 0.86026 1.02396 0.4995 0.0
C213 C 0.95123 0.98736 0.48856 0.0
N214 N 0.15318 0.94376 0.48939 0.0
N215 N 0.80917 0.09956 0.53334 0.0
C216 C 0.05529 0.96196 0.5 0.0
C217 C 0.88082 0.0451 0.5223 0.0
N218 N 0.1462 0.92034 0.53368 0.0
N219 N 0.75137 0.03422 0.48803 0.0
H220 H 0.81453 0.10839 0.54997 0.0
H221 H 0.75077 0.14367 0.52624 0.0
H222 H 0.73507 1.02235 0.47133 0.0
H223 H 0.6704 0.04395 0.49485 0.0
H224 H 0.19606 0.86905 0.52637 0.0
H225 H 0.15922 0.92673 0.55032 0.0
H226 H 0.24186 0.94001 0.49698 0.0
H227 H 0.15313 0.94431 0.47291 0.0
C228 C 0.92906 0.97004 0.83332 0.0
C229 C 0.05745 0.072 0.82532 0.0
C230 C 0.17577 0.197 0.86176 0.0
C231 C 0.04525 0.09853 0.86968 0.0
N232 N 0.79155 0.9042 0.86336 0.0
N233 N 0.29416 0.29402 0.83085 0.0
C234 C 0.91971 0.9892 0.85553 0.0
C235 C 0.17839 0.18901 0.83925 0.0
N236 N 0.81889 0.85137 0.81981 0.0
N237 N 0.29798 0.29618 0.87581 0.0
H238 H 0.29983 0.29019 0.81445 0.0
H239 H 0.37933 0.39047 0.83979 0.0
H240 H 0.29863 0.30922 0.89234 0.0
H241 H 0.40129 0.36016 0.87136 0.0
H242 H 0.73031 0.76367 0.82497 0.0
H243 H 0.82033 0.83539 0.80338 0.0
H244 H 0.69134 0.83417 0.85373 0.0
H245 H 0.78319 0.91017 0.87967 0.0
C246 C 0.29858 0.31595 0.02781 0.0
C247 C 0.21388 0.19566 0.03895 0.0
C248 C 0.0689 0.04436 1.00476 0.0
C249 C 0.15337 0.164 0.99381 0.0
N250 N 0.37039 0.39885 0.99381 0.0
N251 N 0.05265 0.93416 0.03725 0.0
C252 C 0.27499 0.29525 1.00502 0.0
C253 C 0.10881 0.05638 0.02717 0.0
N254 N 0.39713 0.45187 0.03877 0.0
N255 N 0.94839 0.92044 0.99384 0.0
H256 H 0.08584 0.93733 0.05338 0.0
H257 H 0.9862 0.82787 0.02918 0.0
H258 H 0.919 0.90569 0.97728 0.0
H259 H 0.87209 0.83677 1.00135 0.0
H260 H 0.44365 0.54685 0.03154 0.0
H261 H 0.42775 0.4734 0.05526 0.0
H262 H 0.47047 0.48959 1.00087 0.0
H263 H 0.35601 0.38743 0.97711 0.0
C264 C 0.15123 0.23713 0.34533 0.0
C265 C 0.05512 0.14364 0.32656 0.0
C266 C 0.87911 0.99185 0.34948 0.0
C267 C 0.98479 0.07117 0.36795 0.0
N268 N 0.23965 0.24559 0.38212 0.0
N269 N 0.84547 0.90338 0.31204 0.0
C270 C 0.12627 0.18724 0.36555 0.0
C271 C 0.92363 1.01277 0.32891 0.0
N272 N 0.26355 0.37544 0.34422 0.0
N273 N 0.73529 0.89956 0.3514 0.0
H274 H 0.88142 0.90437 0.29723 0.0
H275 H 0.75515 0.80242 0.31371 0.0
H276 H 0.69708 0.88895 0.36615 0.0
H277 H 0.65244 0.84855 0.33824 0.0
H278 H 0.32798 0.45002 0.35781 0.0
H279 H 0.2818 0.42218 0.33014 0.0
H280 H 0.34757 0.32136 0.38035 0.0
H281 H 0.23039 0.20579 0.39679 0.0
C282 C 0.17321 0.07634 0.67154 0.0
C283 C 0.03834 1.024 0.65803 0.0
C284 C 0.90552 0.92295 0.68826 0.0
C285 C 0.04122 0.96571 0.70105 0.0
N286 N 0.29589 0.03141 0.70105 0.0
N287 N 0.77323 0.88833 0.65293 0.0
C288 C 0.17224 1.02554 0.69155 0.0
C289 C 0.90329 0.94345 0.66619 0.0
N290 N 0.30333 0.17885 0.66586 0.0
N291 N 0.77881 0.86186 0.69722 0.0
H292 H 0.76711 0.91213 0.63733 0.0
H293 H 0.67138 0.81467 0.65702 0.0
H294 H 0.774 0.83037 0.71247 0.0
H295 H 0.67932 0.84538 0.68984 0.0
H296 H 0.40206 0.23017 0.67632 0.0
H297 H 0.31144 0.22625 0.65191 0.0
H298 H 0.38779 0.06085 0.69336 0.0
H299 H 0.3033 0.99243 0.71536 0.0
loop_
_geom_bond_atom_site_label_1
_geom_bond_atom_site_label_2
_geom_bond_distance
_geom_bond_site_symmetry_2
_ccdc_geom_bond_type
C0 O2 1.247 1_565 S
C0 O4 1.258 . S
C1 O8 1.247 . S
C1 O9 1.258 . S
O2 C0 1.247 1_545 S
O2 Zn3 2.028 . S
Zn3 O2 2.028 . S
Zn3 O7 2.035 . S
Zn3 O9 2.035 . S
Zn3 O10 2.028 . S
O4 C0 1.258 . S
O4 Zn5 2.035 1_465 S
Zn5 O4 2.035 1_645 S
Zn5 O6 2.028 1_655 S
Zn5 O8 2.028 1_655 S
Zn5 O11 2.035 1_655 S
O6 Zn5 2.028 1_455 S
O6 C12 1.247 . S
O7 Zn3 2.035 . S
O7 C12 1.258 . S
O8 C1 1.247 . S
O8 Zn5 2.028 1_455 S
O9 C1 1.258 . S
O9 Zn3 2.035 . S
O10 Zn3 2.028 . S
O10 C13 1.247 . S
O11 Zn5 2.035 1_455 S
O11 C13 1.258 . S
C12 O6 1.247 . S
C12 O7 1.258 . S
C13 O10 1.247 . S
C13 O11 1.258 . S
C14 O16 1.247 1_545 S
C14 O18 1.258 . S
C15 O22 1.247 . S
C15 O23 1.258 1_545 S
O16 C14 1.247 1_565 S
O16 Zn17 2.028 1_455 S
Zn17 O16 2.028 1_655 S
Zn17 O21 2.035 . S
Zn17 O23 2.035 . S
Zn17 O24 2.028 1_655 S
O18 C14 1.258 . S
O18 Zn19 2.035 . S
Zn19 O18 2.035 . S
Zn19 O20 2.028 . S
Zn19 O22 2.028 1_455 S
Zn19 O25 2.035 . S
O20 Zn19 2.028 . S
O20 C26 1.247 . S
O21 Zn17 2.035 . S
O21 C26 1.258 1_665 S
O22 C15 1.247 . S
O22 Zn19 2.028 1_655 S
O23 C15 1.258 1_565 S
O23 Zn17 2.035 . S
O24 Zn17 2.028 1_455 S
O24 C27 1.247 1_565 S
O25 Zn19 2.035 . S
O25 C27 1.258 . S
C26 O20 1.247 . S
C26 O21 1.258 1_445 S
C27 O24 1.247 1_545 S
C27 O25 1.258 . S
C28 O30 1.247 1_455 S
C28 O32 1.258 . S
C29 O36 1.249 . S
C29 O37 1.256 1_455 S
O30 C28 1.247 1_655 S
O30 Zn31 2.028 . S
Zn31 O30 2.028 . S
Zn31 O35 2.035 1_655 S
Zn31 O37 2.035 . S
Zn31 O38 2.028 1_545 S
O32 C28 1.258 . S
O32 Zn33 2.035 . S
Zn33 O32 2.035 . S
Zn33 O34 2.028 . S
Zn33 O36 2.028 . S
Zn33 O39 2.035 1_445 S
O34 Zn33 2.028 . S
O34 C40 1.247 . S
O35 Zn31 2.035 1_455 S
O35 C40 1.258 . S
O36 C29 1.249 . S
O36 Zn33 2.028 . S
O37 C29 1.256 1_655 S
O37 Zn31 2.035 . S
O38 Zn31 2.028 1_565 S
O38 C41 1.247 . S
O39 Zn33 2.035 1_665 S
O39 C41 1.258 . S
C40 O34 1.247 . S
C40 O35 1.258 . S
C41 O38 1.247 . S
C41 O39 1.258 . S
C42 O44 1.247 . S
C42 O46 1.258 1_445 S
C43 O50 1.247 1_455 S
C43 O51 1.258 1_565 S
O44 C42 1.247 . S
O44 Zn45 2.028 . S
Zn45 O44 2.028 . S
Zn45 O49 2.035 . S
Zn45 O51 2.035 . S
Zn45 O52 2.028 1_455 S
O46 C42 1.258 1_665 S
O46 Zn47 2.035 . S
Zn47 O46 2.035 . S
Zn47 O48 2.028 1_655 S
Zn47 O50 2.028 . S
Zn47 O53 2.035 . S
O48 Zn47 2.028 1_455 S
O48 C54 1.242 1_565 S
O49 Zn45 2.035 . S
O49 C54 1.267 . S
O50 C43 1.247 1_655 S
O50 Zn47 2.028 . S
O51 C43 1.258 1_545 S
O51 Zn45 2.035 . S
O52 Zn45 2.028 1_655 S
O52 C55 1.247 . S
O53 Zn47 2.035 . S
O53 C55 1.258 1_565 S
C54 O48 1.242 1_545 S
C54 O49 1.267 . S
C55 O52 1.247 . S
C55 O53 1.258 1_545 S
C56 O58 1.247 . S
C56 O60 1.258 . S
C57 O64 1.247 . S
C57 O65 1.258 1_455 S
O58 C56 1.247 . S
O58 Zn59 2.028 1_455 S
Zn59 O58 2.028 1_655 S
Zn59 O63 2.035 1_655 S
Zn59 O65 2.035 . S
Zn59 O66 2.028 . S
O60 C56 1.258 . S
O60 Zn61 2.035 . S
Zn61 O60 2.035 . S
Zn61 O62 2.028 . S
Zn61 O64 2.028 . S
Zn61 O67 2.035 1_445 S
O62 Zn61 2.028 . S
O62 C68 1.247 . S
O63 Zn59 2.035 1_455 S
O63 C68 1.258 . S
O64 C57 1.247 . S
O64 Zn61 2.028 . S
O65 C57 1.258 1_655 S
O65 Zn59 2.035 . S
O66 Zn59 2.028 . S
O66 C69 1.247 1_545 S
O67 Zn61 2.035 1_665 S
O67 C69 1.258 . S
C68 O62 1.247 . S
C68 O63 1.258 . S
C69 O66 1.247 1_565 S
C69 O67 1.258 . S
C70 O72 1.247 . S
C70 O74 1.258 . S
C71 O78 1.247 . S
C71 O79 1.258 . S
O72 C70 1.247 . S
O72 Zn73 2.028 1_455 S
Zn73 O72 2.028 1_655 S
Zn73 O77 2.035 1_655 S
Zn73 O79 2.035 1_655 S
Zn73 O80 2.028 1_645 S
O74 C70 1.258 . S
O74 Zn75 2.035 . S
Zn75 O74 2.035 . S
Zn75 O76 2.028 . S
Zn75 O78 2.028 . S
Zn75 O81 2.035 1_545 S
O76 Zn75 2.028 . S
O76 C82 1.247 . S
O77 Zn73 2.035 1_455 S
O77 C82 1.258 . S
O78 C71 1.247 . S
O78 Zn75 2.028 . S
O79 C71 1.258 . S
O79 Zn73 2.035 1_455 S
O80 Zn73 2.028 1_465 S
O80 C83 1.247 . S
O81 Zn75 2.035 1_565 S
O81 C83 1.258 . S
C82 O76 1.247 . S
C82 O77 1.258 . S
C83 O80 1.247 . S
C83 O81 1.258 . S
C84 C85 1.363 . S
C84 C90 1.379 . S
C84 N92 1.356 . S
C85 C84 1.363 . S
C85 C91 1.363 . S
C86 C87 1.363 . S
C86 C91 1.379 . S
C86 N93 1.356 . S
C87 C86 1.363 . S
C87 C90 1.363 . S
N88 C90 1.356 . S
N88 H100 0.984 . S
N88 H101 0.985 . S
N89 C91 1.356 . S
N89 H94 0.984 . S
N89 H95 0.985 1_455 S
C90 C84 1.379 . S
C90 C87 1.363 . S
C90 N88 1.356 . S
C91 C85 1.363 . S
C91 C86 1.379 . S
C91 N89 1.356 . S
N92 C84 1.356 . S
N92 H98 0.984 . S
N92 H99 0.984 . S
N93 C86 1.356 . S
N93 H96 0.984 . S
N93 H97 0.985 1_455 S
H94 N89 0.984 . S
H95 N89 0.985 1_655 S
H96 N93 0.984 . S
H97 N93 0.985 1_655 S
H98 N92 0.984 . S
H99 N92 0.984 . S
H100 N88 0.984 . S
H101 N88 0.985 . S
C102 C103 1.363 1_565 S
C102 C108 1.379 . S
C102 N110 1.356 . S
C103 C102 1.363 1_545 S
C103 C109 1.363 . S
C104 C105 1.363 . S
C104 C109 1.379 . S
C104 N111 1.356 . S
C105 C104 1.363 . S
C105 C108 1.363 1_545 S
N106 C108 1.356 . S
N106 H118 0.984 . S
N106 H119 0.985 . S
N107 C109 1.356 . S
N107 H112 0.984 . S
N107 H113 0.985 . S
C108 C102 1.379 . S
C108 C105 1.363 1_565 S
C108 N106 1.356 . S
C109 C103 1.363 . S
C109 C104 1.379 . S
C109 N107 1.356 . S
N110 C102 1.356 . S
N110 H116 0.984 . S
N110 H117 0.984 . S
N111 C104 1.356 . S
N111 H114 0.984 . S
N111 H115 0.985 . S
H112 N107 0.984 . S
H113 N107 0.985 . S
H114 N111 0.984 . S
H115 N111 0.985 . S
H116 N110 0.984 . S
H117 N110 0.984 . S
H118 N106 0.984 . S
H119 N106 0.985 . S
C120 C121 1.363 . S
C120 C126 1.379 . S
C120 N128 1.356 . S
C121 C120 1.363 . S
C121 C127 1.363 . S
C122 C123 1.363 . S
C122 C127 1.379 . S
C122 N129 1.356 . S
C123 C122 1.363 . S
C123 C126 1.363 . S
N124 C126 1.356 . S
N124 H136 0.984 . S
N124 H137 0.985 . S
N125 C127 1.356 . S
N125 H130 0.984 . S
N125 H131 0.985 . S
C126 C120 1.379 . S
C126 C123 1.363 . S
C126 N124 1.356 . S
C127 C121 1.363 . S
C127 C122 1.379 . S
C127 N125 1.356 . S
N128 C120 1.356 . S
N128 H134 0.984 . S
N128 H135 0.984 . S
N129 C122 1.356 . S
N129 H132 0.984 . S
N129 H133 0.985 . S
H130 N125 0.984 . S
H131 N125 0.985 . S
H132 N129 0.984 . S
H133 N129 0.985 . S
H134 N128 0.984 . S
H135 N128 0.984 . S
H136 N124 0.984 . S
H137 N124 0.985 . S
C138 C139 1.363 1_565 S
C138 C144 1.379 . S
C138 N146 1.356 . S
C139 C138 1.363 1_545 S
C139 C145 1.363 . S
C140 C141 1.363 . S
C140 C145 1.379 . S
C140 N147 1.356 . S
C141 C140 1.363 . S
C141 C144 1.363 1_545 S
N142 C144 1.356 . S
N142 H154 0.984 . S
N142 H155 0.985 . S
N143 C145 1.356 . S
N143 H148 0.984 . S
N143 H149 0.985 . S
C144 C138 1.379 . S
C144 C141 1.363 1_565 S
C144 N142 1.356 . S
C145 C139 1.363 . S
C145 C140 1.379 . S
C145 N143 1.356 . S
N146 C138 1.356 . S
N146 H152 0.984 . S
N146 H153 0.984 . S
N147 C140 1.356 . S
N147 H150 0.984 . S
N147 H151 0.985 . S
H148 N143 0.984 . S
H149 N143 0.985 . S
H150 N147 0.984 . S
H151 N147 0.985 . S
H152 N146 0.984 . S
H153 N146 0.984 . S
H154 N142 0.984 . S
H155 N142 0.985 . S
C156 C157 1.363 . S
C156 C162 1.379 . S
C156 N164 1.356 . S
C157 C156 1.363 . S
C157 C163 1.363 . S
C158 C159 1.363 . S
C158 C163 1.379 . S
C158 N165 1.356 . S
C159 C158 1.363 . S
C159 C162 1.363 . S
N160 C162 1.356 . S
N160 H172 0.984 . S
N160 H173 0.985 . S
N161 C163 1.356 . S
N161 H166 0.984 . S
N161 H167 0.985 . S
C162 C156 1.379 . S
C162 C159 1.363 . S
C162 N160 1.356 . S
C163 C157 1.363 . S
C163 C158 1.379 . S
C163 N161 1.356 . S
N164 C156 1.356 . S
N164 H170 0.984 . S
N164 H171 0.984 . S
N165 C158 1.356 . S
N165 H168 0.984 . S
N165 H169 0.985 . S
H166 N161 0.984 . S
H167 N161 0.985 . S
H168 N165 0.984 . S
H169 N165 0.985 . S
H170 N164 0.984 . S
H171 N164 0.984 . S
H172 N160 0.984 . S
H173 N160 0.985 . S
C174 C175 1.363 . S
C174 C180 1.379 . S
C174 N182 1.356 . S
C175 C174 1.363 . S
C175 C181 1.363 . S
C176 C177 1.363 . S
C176 C181 1.379 . S
C176 N183 1.356 . S
C177 C176 1.363 . S
C177 C180 1.363 . S
N178 C180 1.356 . S
N178 H190 0.984 . S
N178 H191 0.985 . S
N179 C181 1.356 . S
N179 H184 0.984 . S
N179 H185 0.985 1_455 S
C180 C174 1.379 . S
C180 C177 1.363 . S
C180 N178 1.356 . S
C181 C175 1.363 . S
C181 C176 1.379 . S
C181 N179 1.356 . S
N182 C174 1.356 . S
N182 H188 0.984 . S
N182 H189 0.984 . S
N183 C176 1.356 . S
N183 H186 0.984 . S
N183 H187 0.985 1_455 S
H184 N179 0.984 . S
H185 N179 0.985 1_655 S
H186 N183 0.984 . S
H187 N183 0.985 1_655 S
H188 N182 0.984 . S
H189 N182 0.984 . S
H190 N178 0.984 . S
H191 N178 0.985 . S
C192 C193 1.363 . S
C192 C198 1.379 . S
C192 N200 1.356 1_545 S
C193 C192 1.363 . S
C193 C199 1.363 . S
C194 C195 1.363 . S
C194 C199 1.379 . S
C194 N201 1.356 . S
C195 C194 1.363 . S
C195 C198 1.363 . S
N196 C198 1.356 1_565 S
N196 H208 0.984 . S
N196 H209 0.985 1_565 S
N197 C199 1.356 . S
N197 H202 0.984 . S
N197 H203 0.985 . S
C198 C192 1.379 . S
C198 C195 1.363 . S
C198 N196 1.356 1_545 S
C199 C193 1.363 . S
C199 C194 1.379 . S
C199 N197 1.356 . S
N200 C192 1.356 1_565 S
N200 H206 0.984 . S
N200 H207 0.984 . S
N201 C194 1.356 . S
N201 H204 0.984 . S
N201 H205 0.985 . S
H202 N197 0.984 . S
H203 N197 0.985 . S
H204 N201 0.984 . S
H205 N201 0.985 . S
H206 N200 0.984 . S
H207 N200 0.984 . S
H208 N196 0.984 . S
H209 N196 0.985 1_545 S
C210 C211 1.363 . S
C210 C216 1.379 . S
C210 N218 1.356 . S
C211 C210 1.363 . S
C211 C217 1.363 1_565 S
C212 C213 1.363 . S
C212 C217 1.379 . S
C212 N219 1.356 . S
C213 C212 1.363 . S
C213 C216 1.363 1_545 S
N214 C216 1.356 . S
N214 H226 0.984 . S
N214 H227 0.985 . S
N215 C217 1.356 . S
N215 H220 0.984 . S
N215 H221 0.985 . S
C216 C210 1.379 . S
C216 C213 1.363 1_565 S
C216 N214 1.356 . S
C217 C211 1.363 1_545 S
C217 C212 1.379 . S
C217 N215 1.356 . S
N218 C210 1.356 . S
N218 H224 0.984 . S
N218 H225 0.984 . S
N219 C212 1.356 . S
N219 H222 0.984 . S
N219 H223 0.985 . S
H220 N215 0.984 . S
H221 N215 0.985 . S
H222 N219 0.984 . S
H223 N219 0.985 . S
H224 N218 0.984 . S
H225 N218 0.984 . S
H226 N214 0.984 . S
H227 N214 0.985 . S
C228 C229 1.363 1_655 S
C228 C234 1.379 . S
C228 N236 1.356 . S
C229 C228 1.363 1_455 S
C229 C235 1.363 . S
C230 C231 1.363 . S
C230 C235 1.379 . S
C230 N237 1.356 . S
C231 C230 1.363 . S
C231 C234 1.363 1_455 S
N232 C234 1.356 . S
N232 H244 0.984 . S
N232 H245 0.985 . S
N233 C235 1.356 . S
N233 H238 0.984 . S
N233 H239 0.985 . S
C234 C228 1.379 . S
C234 C231 1.363 1_655 S
C234 N232 1.356 . S
C235 C229 1.363 . S
C235 C230 1.379 . S
C235 N233 1.356 . S
N236 C228 1.356 . S
N236 H242 0.984 . S
N236 H243 0.984 . S
N237 C230 1.356 . S
N237 H240 0.984 . S
N237 H241 0.985 . S
H238 N233 0.984 . S
H239 N233 0.985 . S
H240 N237 0.984 . S
H241 N237 0.985 . S
H242 N236 0.984 . S
H243 N236 0.984 . S
H244 N232 0.984 . S
H245 N232 0.985 . S
C246 C247 1.363 . S
C246 C252 1.379 1_554 S
C246 N254 1.356 . S
C247 C246 1.363 . S
C247 C253 1.363 . S
C248 C249 1.363 . S
C248 C253 1.379 1_556 S
C248 N255 1.356 1_545 S
C249 C248 1.363 . S
C249 C252 1.363 . S
N250 C252 1.356 . S
N250 H262 0.984 . S
N250 H263 0.985 . S
N251 C253 1.356 1_565 S
N251 H256 0.984 1_565 S
N251 H257 0.985 . S
C252 C246 1.379 1_556 S
C252 C249 1.363 . S
C252 N250 1.356 . S
C253 C247 1.363 . S
C253 C248 1.379 1_554 S
C253 N251 1.356 1_545 S
N254 C246 1.356 . S
N254 H260 0.984 . S
N254 H261 0.984 . S
N255 C248 1.356 1_565 S
N255 H258 0.984 1_565 S
N255 H259 0.985 . S
H256 N251 0.984 1_545 S
H257 N251 0.985 . S
H258 N255 0.984 1_545 S
H259 N255 0.985 . S
H260 N254 0.984 . S
H261 N254 0.984 . S
H262 N250 0.984 . S
H263 N250 0.985 . S
C264 C265 1.363 . S
C264 C270 1.379 . S
C264 N272 1.356 . S
C265 C264 1.363 . S
C265 C271 1.363 1_545 S
C266 C267 1.363 1_665 S
C266 C271 1.379 1_655 S
C266 N273 1.356 . S
C267 C266 1.363 1_445 S
C267 C270 1.363 . S
N268 C270 1.356 . S
N268 H280 0.984 . S
N268 H281 0.985 . S
N269 C271 1.356 1_655 S
N269 H274 0.984 . S
N269 H275 0.985 . S
C270 C264 1.379 . S
C270 C267 1.363 . S
C270 N268 1.356 . S
C271 C265 1.363 1_565 S
C271 C266 1.379 1_455 S
C271 N269 1.356 1_455 S
N272 C264 1.356 . S
N272 H278 0.984 . S
N272 H279 0.984 . S
N273 C266 1.356 . S
N273 H276 0.984 . S
N273 H277 0.985 . S
H274 N269 0.984 . S
H275 N269 0.985 . S
H276 N273 0.984 . S
H277 N273 0.985 . S
H278 N272 0.984 . S
H279 N272 0.984 . S
H280 N268 0.984 . S
H281 N268 0.985 . S
C282 C283 1.363 . S
C282 C288 1.379 . S
C282 N290 1.356 . S
C283 C282 1.363 . S
C283 C289 1.363 1_445 S
C284 C285 1.363 1_665 S
C284 C289 1.379 . S
C284 N291 1.356 . S
C285 C284 1.363 1_445 S
C285 C288 1.363 . S
N286 C288 1.356 . S
N286 H298 0.984 . S
N286 H299 0.985 . S
N287 C289 1.356 . S
N287 H292 0.984 . S
N287 H293 0.985 . S
C288 C282 1.379 . S
C288 C285 1.363 . S
C288 N286 1.356 . S
C289 C283 1.363 1_665 S
C289 C284 1.379 . S
C289 N287 1.356 . S
N290 C282 1.356 . S
N290 H296 0.984 . S
N290 H297 0.984 . S
N291 C284 1.356 . S
N291 H294 0.984 . S
N291 H295 0.985 . S
H292 N287 0.984 . S
H293 N287 0.985 . S
H294 N291 0.984 . S
H295 N291 0.985 . S
H296 N290 0.984 . S
H297 N290 0.984 . S
H298 N286 0.984 . S
H299 N286 0.985 . S
C85 C0 1.498 . S
C87 C1 1.498 . S
C103 C14 1.498 . S
C105 C15 1.498 . S
C121 C41 1.498 . S
C123 C40 1.498 . S
C139 C54 1.494 . S
C141 C55 1.498 . S
C157 C68 1.498 . S
C159 C69 1.498 . S
C175 C82 1.498 . S
C177 C83 1.498 . S
C193 C71 1.503 . S
C195 C13 1.503 . S
C211 C43 1.503 . S
C213 C26 1.504 . S
C229 C28 1.503 . S
C231 C57 1.502 . S
C247 C12 1.506 . S
C249 C56 1.505 . S
C265 C70 1.504 . S
C267 C27 1.505 . S
C283 C42 1.506 . S
C285 C29 1.506 . S
