# Generated by pormake.
# Topology pts-e, (5)-cn, num edge types: 1
# Building blocks:
#     Node 0, Type 0, BuildingBlock: XOMCOT_clean_sbu_1, # of connection points: 5
#     Node 1, Type 0, BuildingBlock: XOMCOT_clean_sbu_1, # of connection points: 5
#     Node 2, Type 0, BuildingBlock: XOMCOT_clean_sbu_1, # of connection points: 5
#     Node 3, Type 0, BuildingBlock: XOMCOT_clean_sbu_1, # of connection points: 5
#     Node 4, Type 0, BuildingBlock: XOMCOT_clean_sbu_1, # of connection points: 5
#     Node 5, Type 0, BuildingBlock: XOMCOT_clean_sbu_1, # of connection points: 5
#     Node 6, Type 0, BuildingBlock: XOMCOT_clean_sbu_1, # of connection points: 5
#     Node 7, Type 0, BuildingBlock: XOMCOT_clean_sbu_1, # of connection points: 5
#     Edge 8, Type (0, 0), BuildingBlock: UVAHIK_clean_linker_0, # of connection points: 2
#     Edge 9, Type (0, 0), BuildingBlock: UVAHIK_clean_linker_0, # of connection points: 2
#     Edge 10, Type (0, 0), BuildingBlock: UVAHIK_clean_linker_0, # of connection points: 2
#     Edge 11, Type (0, 0), BuildingBlock: UVAHIK_clean_linker_0, # of connection points: 2
#     Edge 12, Type (0, 0), BuildingBlock: UVAHIK_clean_linker_0, # of connection points: 2
#     Edge 13, Type (0, 0), BuildingBlock: UVAHIK_clean_linker_0, # of connection points: 2
#     Edge 14, Type (0, 0), BuildingBlock: UVAHIK_clean_linker_0, # of connection points: 2
#     Edge 15, Type (0, 0), BuildingBlock: UVAHIK_clean_linker_0, # of connection points: 2
#     Edge 16, Type (0, 0), BuildingBlock: UVAHIK_clean_linker_0, # of connection points: 2
#     Edge 17, Type (0, 0), BuildingBlock: UVAHIK_clean_linker_0, # of connection points: 2
#     Edge 18, Type (0, 0), BuildingBlock: UVAHIK_clean_linker_0, # of connection points: 2
#     Edge 19, Type (0, 0), BuildingBlock: UVAHIK_clean_linker_0, # of connection points: 2
#     Edge 20, Type (0, 0), BuildingBlock: UVAHIK_clean_linker_0, # of connection points: 2
#     Edge 21, Type (0, 0), BuildingBlock: UVAHIK_clean_linker_0, # of connection points: 2
#     Edge 22, Type (0, 0), BuildingBlock: UVAHIK_clean_linker_0, # of connection points: 2
#     Edge 23, Type (0, 0), BuildingBlock: UVAHIK_clean_linker_0, # of connection points: 2
#     Edge 24, Type (0, 0), BuildingBlock: UVAHIK_clean_linker_0, # of connection points: 2
#     Edge 25, Type (0, 0), BuildingBlock: UVAHIK_clean_linker_0, # of connection points: 2
#     Edge 26, Type (0, 0), BuildingBlock: UVAHIK_clean_linker_0, # of connection points: 2
#     Edge 27, Type (0, 0), BuildingBlock: UVAHIK_clean_linker_0, # of connection points: 2
# Relax obj value: 0.500
# Max RMSD: 0.255
# Mean RMSD: 0.255
data_MOF--net-pts-e--node1-XOMCOT_clean_sbu_1--edge1-UVAHIK_clean_linker_0
_symmetry_space_group_name_H-M    P1
_symmetry_Int_Tables_number       1
_symmetry_cell_setting            triclinic
loop_
_symmetry_equiv_pos_as_xyz
'x, y, z'
_cell_length_a     42.311676
_cell_length_b     42.397773
_cell_length_c     62.060605
_cell_angle_alpha  89.864756
_cell_angle_beta   89.869566
_cell_angle_gamma 90.016885
loop_
_atom_site_label
_atom_site_type_symbol
_atom_site_fract_x
_atom_site_fract_y
_atom_site_fract_z
_atom_type_partial_charge
C0 C 0.21762 0.0234 0.10351 0.0
C1 C 0.18601 0.02674 0.09881 0.0
N2 N 0.16943 0.00832 0.11249 0.0
N3 N 0.22081 0.00314 0.12011 0.0
C4 C 0.19112 0.99427 0.12519 0.0
H5 H 0.2371 0.03496 0.0954 0.0
Co6 Co 0.2589 0.99143 0.13207 0.0
C7 C 0.24382 0.95995 0.17327 0.0
O8 O 0.26701 0.97627 0.18184 0.0
N9 N 0.2983 0.97906 0.14369 0.0
C10 C 0.33831 0.94825 0.15377 0.0
C11 C 0.30791 0.94884 0.14599 0.0
C12 C 0.32345 -0.0037 0.1501 0.0
N13 N 0.34807 0.97823 0.15627 0.0
O14 O 0.26134 0.9586 0.11119 0.0
H15 H 0.29375 0.92843 0.14201 0.0
H16 H 0.32409 0.02164 0.15031 0.0
O17 O 0.23744 0.9634 0.1532 0.0
C18 C 0.28031 0.96691 0.09622 0.0
O19 O 0.29887 0.99127 0.09957 0.0
N20 N 0.25618 0.0268 0.14995 0.0
C21 C 0.24684 0.08761 0.16553 0.0
C22 C 0.2283 0.06252 0.17311 0.0
C23 C 0.23297 0.0323 0.16483 0.0
C24 C 0.27349 0.05131 0.14193 0.0
C25 C 0.26998 0.08173 0.14998 0.0
H26 H 0.2163 0.01416 0.16926 0.0
H27 H 0.28913 0.04743 0.12837 0.0
H28 H 0.18538 0.97836 0.13826 0.0
H29 H 0.17609 0.04134 0.08621 0.0
H30 H 0.35238 0.92738 0.15671 0.0
H31 H 0.20942 0.06652 0.1846 0.0
H32 H 0.28378 0.10081 0.1431 0.0
C33 C 0.97154 0.22539 0.61953 0.0
C34 C 0.96735 0.19507 0.61222 0.0
N35 N 0.98675 0.17596 0.62345 0.0
N36 N 0.99325 0.22525 0.63536 0.0
C37 C 0.00215 0.19488 0.63737 0.0
H38 H 0.9599 0.24634 0.61352 0.0
Co39 Co 0.00784 0.26079 0.64906 0.0
C40 C 0.04029 0.23883 0.68874 0.0
O41 O 0.0269 0.26189 0.69956 0.0
N42 N 0.02294 0.29756 0.66231 0.0
C43 C 0.05606 0.33507 0.67319 0.0
C44 C 0.05368 0.30468 0.66567 0.0
C45 C 0.00719 0.32403 0.66785 0.0
N46 N 0.02671 0.34706 0.67458 0.0
O47 O 0.04142 0.2623 0.62863 0.0
H48 H 0.07325 0.28911 0.66211 0.0
H49 H 0.98217 0.32749 0.66564 0.0
O50 O 0.03416 0.23529 0.66868 0.0
C51 C 0.03802 0.28338 0.61418 0.0
O52 O 0.01618 0.30505 0.61684 0.0
N53 N 0.97222 0.25925 0.66699 0.0
C54 C 0.9116 0.25456 0.6842 0.0
C55 C 0.93604 0.23542 0.69197 0.0
C56 C 0.966 0.23736 0.68263 0.0
C57 C 0.94838 0.27746 0.65898 0.0
C58 C 0.9179 0.2757 0.66745 0.0
H59 H 0.98316 0.21979 0.68707 0.0
H60 H 0.9528 0.29243 0.64515 0.0
H61 H 0.01952 0.18671 0.64884 0.0
H62 H 0.95176 0.18781 0.59935 0.0
H63 H 0.07769 0.34774 0.6766 0.0
H64 H 0.93146 0.21764 0.70415 0.0
H65 H 0.89924 0.29 0.66057 0.0
C66 C 0.78824 0.96158 0.15219 0.0
C67 C 0.81814 0.95398 0.14522 0.0
N68 N 0.8381 0.97674 0.15183 0.0
N69 N 0.78945 0.98883 0.16329 0.0
C70 C 0.82008 -0.00246 0.16276 0.0
H71 H 0.76682 0.94873 0.14861 0.0
Co72 Co 0.7551 0.01174 0.17277 0.0
C73 C 0.77455 0.04235 0.2134 0.0
O74 O 0.74699 0.03467 0.22172 0.0
N75 N 0.71984 0.03558 0.18163 0.0
C76 C 0.68868 0.07684 0.18823 0.0
C77 C 0.71897 0.06735 0.18341 0.0
C78 C 0.68972 0.02643 0.1853 0.0
N79 N 0.67039 0.05094 0.18946 0.0
O80 O 0.76538 0.04277 0.15177 0.0
H81 H 0.73904 0.08275 0.18086 0.0
H82 H 0.68138 0.00255 0.18382 0.0
O83 O 0.7814 0.03376 0.19417 0.0
C84 C 0.7478 0.04175 0.13519 0.0
O85 O 0.72181 0.02482 0.13596 0.0
N86 N 0.74497 0.97842 0.19149 0.0
C87 C 0.73724 0.91762 0.20786 0.0
C88 C 0.75881 0.93856 0.21727 0.0
C89 C 0.76299 0.96857 0.20846 0.0
C90 C 0.72342 0.95847 0.18251 0.0
C91 C 0.7189 0.92808 0.19056 0.0
H92 H 0.78274 0.98228 0.21407 0.0
H93 H 0.71163 0.9652 0.16775 0.0
H94 H 0.82865 0.0197 0.1691 0.0
H95 H 0.82452 0.93368 0.13561 0.0
H96 H 0.68065 0.10089 0.19024 0.0
H97 H 0.77451 0.93077 0.22998 0.0
H98 H 0.70277 0.91225 0.18244 0.0
C99 C 0.03527 0.79246 0.63401 0.0
C100 C 0.04258 0.82282 0.6279 0.0
N101 N 0.02057 0.84224 0.63627 0.0
N102 N 0.00892 0.7929 0.64623 0.0
C103 C 0.00044 0.82347 0.64727 0.0
H104 H 0.04776 0.77131 0.6293 0.0
Co105 Co 0.98702 0.75806 0.65577 0.0
C106 C 0.95868 0.77623 0.69743 0.0
O107 O 0.96891 0.7494 0.70545 0.0
N108 N 0.96404 0.72218 0.66476 0.0
C109 C 0.92369 0.68992 0.67208 0.0
C110 C 0.93251 0.72075 0.66832 0.0
C111 C 0.97361 0.6919 0.66616 0.0
N112 N 0.94971 0.67188 0.67048 0.0
O113 O 0.95547 0.76758 0.63496 0.0
H114 H 0.91672 0.74078 0.66749 0.0
H115 H -0.00259 0.68404 0.66345 0.0
O116 O 0.96469 0.78333 0.67776 0.0
C117 C 0.95837 0.75002 0.61845 0.0
O118 O 0.97591 0.72455 0.62002 0.0
N119 N 0.02113 0.74869 0.67398 0.0
C120 C 0.0818 0.73946 0.69065 0.0
C121 C 0.06186 0.763 0.69899 0.0
C122 C 0.03189 0.76765 0.69015 0.0
C123 C 0.04065 0.72651 0.66528 0.0
C124 C 0.07047 0.72068 0.67382 0.0
H125 H 0.01874 0.78816 0.69515 0.0
H126 H 0.034 0.71482 0.65052 0.0
H127 H 0.97899 0.83163 0.65496 0.0
H128 H 0.06227 0.82996 0.61784 0.0
H129 H 0.89991 0.6813 0.67472 0.0
H130 H 0.07012 0.77934 0.71112 0.0
H131 H 0.0851 0.70273 0.66646 0.0
C132 C 0.2281 0.92453 0.82701 0.0
C133 C 0.19586 0.91975 0.82785 0.0
N134 N 0.18167 0.94819 0.82791 0.0
N135 N 0.23394 0.95582 0.82663 0.0
C136 C 0.20523 0.96952 0.82734 0.0
H137 H 0.24614 0.90646 0.82684 0.0
Co138 Co 0.27282 0.97643 0.82666 0.0
C139 C 0.25766 0.02765 0.79448 0.0
O140 O 0.28103 0.01875 0.78204 0.0
N141 N 0.31248 -0.00239 0.82722 0.0
C142 C 0.35867 0.01957 0.8184 0.0
C143 C 0.33207 0.00517 0.81069 0.0
C144 C 0.32869 0.00686 0.84494 0.0
N145 N 0.35649 0.02057 0.83993 0.0
O146 O 0.26269 0.99259 0.85474 0.0
H147 H 0.32902 -0.00155 0.7941 0.0
H148 H 0.32103 0.00281 0.86133 0.0
O149 O 0.25272 0.01339 0.8124 0.0
C150 C 0.26754 0.96971 0.86776 0.0
O151 O 0.27975 0.94357 0.85999 0.0
N152 N 0.28291 0.95655 0.80055 0.0
C153 C 0.29327 0.91161 0.76848 0.0
C154 C 0.2671 0.93205 0.76754 0.0
C155 C 0.26222 0.95415 0.7838 0.0
C156 C 0.30877 0.9374 0.80152 0.0
C157 C 0.3149 0.91545 0.78536 0.0
H158 H 0.2405 0.96756 0.78381 0.0
H159 H 0.32397 0.93803 0.8155 0.0
H160 H 0.20159 0.99474 0.82812 0.0
H161 H 0.18382 0.89723 0.8283 0.0
H162 H 0.3792 0.02646 0.80905 0.0
H163 H 0.24901 0.92939 0.75538 0.0
H164 H 0.33545 0.9004 0.78683 0.0
C165 C 0.09216 0.24138 0.34672 0.0
C166 C 0.09954 0.20982 0.34895 0.0
N167 N 0.07226 0.19367 0.35065 0.0
N168 N 0.06045 0.24474 0.34706 0.0
C169 C 0.0491 0.21536 0.3498 0.0
H170 H 0.10874 0.2606 0.34474 0.0
Co171 Co 0.03727 0.28158 0.34454 0.0
C172 C 0.979 0.26146 0.31997 0.0
O173 O 0.97905 0.2874 0.30851 0.0
N174 N 0.01398 0.32 0.34241 0.0
C175 C 0.99267 0.36487 0.33042 0.0
C176 C 0.00884 0.33821 0.32476 0.0
C177 C 0.00128 0.3371 0.35872 0.0
N178 N 0.98806 0.36415 0.35178 0.0
O179 O 0.02416 0.27605 0.37377 0.0
H180 H 0.01676 0.3331 0.30859 0.0
H181 H 0.00258 0.33082 0.37555 0.0
O182 O 0.00033 0.25691 0.33426 0.0
C183 C 0.04496 0.28801 0.38613 0.0
O184 O 0.06873 0.3034 0.37738 0.0
N185 N 0.05361 0.28686 0.31689 0.0
C186 C 0.09075 0.29262 0.27998 0.0
C187 C 0.0684 0.26822 0.28194 0.0
C188 C 0.05027 0.26554 0.30064 0.0
C189 C 0.07513 0.31069 0.31531 0.0
C190 C 0.09347 0.31443 0.29681 0.0
H191 H 0.03528 0.24513 0.30259 0.0
H192 H 0.07858 0.32642 0.32881 0.0
H193 H 0.02429 0.20986 0.35148 0.0
H194 H 0.12293 0.1995 0.34876 0.0
H195 H 0.98681 0.38441 0.31989 0.0
H196 H 0.06637 0.25003 0.26981 0.0
H197 H 0.11044 0.33353 0.29608 0.0
C198 C 0.81625 0.06463 0.87006 0.0
C199 C 0.84833 0.06741 0.86662 0.0
N200 N 0.85975 0.03862 0.86179 0.0
N201 N 0.80771 0.03425 0.86745 0.0
C202 C 0.83474 0.019 0.86256 0.0
H203 H 0.80016 0.08347 0.87425 0.0
Co204 Co 0.7675 0.01774 0.87078 0.0
C205 C 0.76708 0.96195 0.84175 0.0
O206 O 0.738 0.96883 0.83599 0.0
N207 N 0.72667 0.00096 0.87497 0.0
C208 C 0.68789 0.96856 0.88501 0.0
C209 C 0.7198 0.97117 0.88116 0.0
C210 C 0.69869 0.01619 0.87608 0.0
N211 N 0.67457 -0.00296 0.88182 0.0
O212 O 0.77929 0.00155 0.89838 0.0
H213 H 0.73706 0.95259 0.88317 0.0
H214 H 0.69612 0.04119 0.87389 0.0
O215 O 0.78092 0.97889 0.85594 0.0
C216 C 0.76951 0.02276 0.91132 0.0
O217 O 0.75545 0.04775 0.90322 0.0
N218 N 0.75587 0.03758 0.84484 0.0
C219 C 0.7433 0.07915 0.81097 0.0
C220 C 0.76041 0.05132 0.80737 0.0
C221 C 0.76723 0.03126 0.82465 0.0
C222 C 0.74018 0.06509 0.84858 0.0
C223 C 0.73287 0.08574 0.83188 0.0
H224 H 0.78349 0.01215 0.82189 0.0
H225 H 0.73506 0.07217 0.86492 0.0
H226 H 0.83637 0.99383 0.86009 0.0
H227 H 0.86208 0.0889 0.86739 0.0
H228 H 0.67568 0.94729 0.8899 0.0
H229 H 0.77047 0.0463 0.79168 0.0
H230 H 0.72058 0.1075 0.83552 0.0
C231 C 0.96491 0.8233 0.36316 0.0
C232 C 0.96315 0.85569 0.36413 0.0
N233 N 0.99229 0.86741 0.36054 0.0
N234 N 0.99499 0.81487 0.3589 0.0
C235 C 0.0111 0.84219 0.35747 0.0
H236 H 0.94576 0.80695 0.3661 0.0
Co237 Co 0.01138 0.77465 0.35901 0.0
C238 C 0.06 0.77509 0.32428 0.0
O239 O 0.05133 0.74639 0.31892 0.0
N240 N 0.02819 0.73362 0.3601 0.0
C241 C 0.06082 0.69346 0.36661 0.0
C242 C 0.05873 0.72554 0.3633 0.0
C243 C 0.01226 0.70623 0.36222 0.0
N244 N 0.0314 0.68145 0.3659 0.0
O245 O 0.03409 0.78473 0.38473 0.0
H246 H 0.07816 0.7421 0.36393 0.0
H247 H 0.98694 0.70445 0.36268 0.0
O248 O 0.04646 0.78879 0.3402 0.0
C249 C 0.01623 0.77419 0.39969 0.0
O250 O 0.98999 0.75963 0.39433 0.0
N251 N 0.98528 0.76467 0.33546 0.0
C252 C 0.93583 0.75277 0.30689 0.0
C253 C 0.96284 0.76926 0.30004 0.0
C254 C 0.98702 0.7757 0.31476 0.0
C255 C 0.95859 0.74978 0.34239 0.0
C256 C 0.93411 0.74273 0.32833 0.0
H257 H 0.00583 0.79118 0.30972 0.0
H258 H 0.95545 0.74481 0.35932 0.0
H259 H 0.03646 0.84356 0.35539 0.0
H260 H 0.94221 0.86948 0.36752 0.0
H261 H 0.08221 0.68022 0.36968 0.0
H262 H 0.96431 0.77892 0.2839 0.0
H263 H 0.91334 0.73077 0.3345 0.0
C264 C 0.30129 0.95915 0.05935 0.0
C265 C 0.27575 0.95681 0.07373 0.0
C266 C 0.29622 0.95924 0.03715 0.0
C267 C 0.23817 0.9439 0.99393 0.0
H268 H 0.288 0.007 0.96373 0.0
C269 C 0.2569 0.94273 0.90251 0.0
C270 C 0.26017 0.97117 0.89104 0.0
C271 C 0.25317 0.94269 0.9248 0.0
C272 C 0.27349 0.98965 0.97193 0.0
H273 H 0.22502 0.95085 0.07623 0.0
H274 H 0.21606 0.95086 0.03726 0.0
H275 H 0.29344 0.001 0.00255 0.0
H276 H 0.26069 0.02205 0.89382 0.0
H277 H 0.25423 0.02209 0.93322 0.0
H278 H 0.21819 0.93264 0.96321 0.0
C279 C 0.24007 0.95244 0.04317 0.0
C280 C 0.27701 0.98581 0.99416 0.0
C281 C 0.24521 0.95213 0.06549 0.0
C282 C 0.25828 -0.0002 0.90228 0.0
C283 C 0.25477 -0.00024 0.9248 0.0
C284 C 0.23465 0.94775 0.97165 0.0
C285 C 0.26543 0.95733 0.0288 0.0
C286 C 0.25997 0.96239 0.00535 0.0
C287 C 0.25269 0.97111 0.93633 0.0
C288 C 0.25279 0.97021 0.96031 0.0
H289 H 0.32506 0.96281 0.0653 0.0
H290 H 0.31638 0.96208 0.02653 0.0
H291 H 0.22459 0.92577 0.00206 0.0
H292 H 0.25796 0.92022 0.89431 0.0
H293 H 0.25208 0.92019 0.93308 0.0
C294 C 0.03109 0.25801 0.41976 0.0
C295 C 0.04332 0.28513 0.40978 0.0
C296 C 0.03379 0.25402 0.44213 0.0
C297 C 0.07959 0.28539 0.48893 0.0
H298 H 0.01409 0.24514 0.52299 0.0
C299 C 0.05763 0.30533 0.57953 0.0
C300 C 0.0511 0.27889 0.59242 0.0
C301 C 0.06229 0.30198 0.55737 0.0
C302 C 0.0328 0.25598 0.5136 0.0
H303 H 0.06618 0.3301 0.41525 0.0
H304 H 0.06939 0.32408 0.45406 0.0
H305 H 0.00849 0.24814 0.48389 0.0
H306 H 0.04531 0.22809 0.59254 0.0
H307 H 0.05276 0.22232 0.55354 0.0
H308 H 0.10287 0.29479 0.51889 0.0
C309 C 0.05907 0.30509 0.4448 0.0
C310 C 0.02963 0.2577 0.49119 0.0
C311 C 0.0569 0.30877 0.42253 0.0
C312 C 0.05091 0.24879 0.58299 0.0
C313 C 0.0548 0.24551 0.5607 0.0
C314 C 0.08245 0.28414 0.51132 0.0
C315 C 0.04835 0.27733 0.45489 0.0
C316 C 0.05269 0.27303 0.47857 0.0
C317 C 0.0597 0.27221 0.54766 0.0
C318 C 0.05887 0.26984 0.52388 0.0
H319 H 0.02076 0.23932 0.41021 0.0
H320 H 0.02537 0.23225 0.44927 0.0
H321 H 0.09835 0.29651 0.47976 0.0
H322 H 0.05753 0.32879 0.58643 0.0
H323 H 0.06584 0.32294 0.54764 0.0
C324 C 0.73887 0.06127 0.09805 0.0
C325 C 0.76005 0.05107 0.11393 0.0
C326 C 0.74821 0.06251 0.0765 0.0
C327 C 0.7971 0.01972 0.03938 0.0
H328 H 0.77134 0.08518 0.99944 0.0
C329 C 0.79994 0.0085 0.94484 0.0
C330 C 0.77274 0.02068 0.9349 0.0
C331 C 0.80457 0.01273 0.96708 0.0
C332 C 0.77871 0.06666 0.01039 0.0
H333 H 0.80792 0.03519 0.12002 0.0
H334 H 0.82412 0.03674 0.08205 0.0
H335 H 0.76979 0.09537 0.03806 0.0
H336 H 0.72808 0.04438 0.94039 0.0
H337 H 0.73567 0.05094 0.9788 0.0
H338 H 0.8043 0.9904 0.01162 0.0
C339 C 0.80048 0.04423 0.08639 0.0
C340 C 0.77799 0.0726 0.03246 0.0
C341 C 0.79131 0.04369 0.10808 0.0
C342 C 0.7495 0.03519 0.94761 0.0
C343 C 0.75399 0.03922 0.96959 0.0
C344 C 0.79762 0.01366 0.01719 0.0
C345 C 0.77872 0.05288 0.07037 0.0
C346 C 0.78609 0.04886 0.0472 0.0
C347 C 0.78202 0.02913 0.97948 0.0
C348 C 0.78719 0.0367 0.00255 0.0
H349 H 0.71457 0.06668 0.10217 0.0
H350 H 0.73086 0.06899 0.06446 0.0
H351 H 0.80329 0.00093 0.05045 0.0
H352 H 0.81826 -0.00263 0.9353 0.0
H353 H 0.82629 0.00445 0.97436 0.0
C354 C 0.02235 0.80903 0.43175 0.0
C355 C 0.02234 0.77866 0.42275 0.0
C356 C 0.01568 0.81305 0.45377 0.0
C357 C 0.96495 0.77616 0.49249 0.0
H358 H 0.0123 0.81338 0.53936 0.0
C359 C 0.94636 0.74076 0.58001 0.0
C360 C 0.9521 0.76228 0.59665 0.0
C361 C 0.9501 0.74979 0.55854 0.0
C362 C -0.00161 0.80362 0.52635 0.0
H363 H 0.01811 0.72879 0.42959 0.0
H364 H 0.00708 0.73569 0.46785 0.0
H365 H 0.03335 0.81589 0.50249 0.0
H366 H 0.96445 0.8107 0.60397 0.0
H367 H 0.97084 0.82667 0.56623 0.0
H368 H 0.93031 0.76328 0.51602 0.0
C369 C 0.01192 0.75635 0.45807 0.0
C370 C 0.01059 0.80492 0.50532 0.0
C371 C 0.01857 0.75239 0.43627 0.0
C372 C 0.95936 0.79375 0.59141 0.0
C373 C 0.96351 0.80275 0.56983 0.0
C374 C 0.95267 0.77512 0.51334 0.0
C375 C 0.00881 0.7867 0.46677 0.0
C376 C 0.99446 0.79014 0.4884 0.0
C377 C 0.95999 0.78052 0.5532 0.0
C378 C 0.96978 0.78773 0.53067 0.0
H379 H 0.02446 0.82963 0.42149 0.0
H380 H 0.01338 0.83666 0.4602 0.0
H381 H 0.95182 0.76508 0.47958 0.0
H382 H 0.94111 0.7163 0.58365 0.0
H383 H 0.9475 0.73192 0.54622 0.0
C384 C 0.146 0.29844 0.26574 0.0
C385 C 0.11379 0.29241 0.26189 0.0
C386 C 0.16871 0.29105 0.25021 0.0
C387 C 0.17873 0.25639 0.19495 0.0
H388 H 0.2391 0.2032 0.22477 0.0
C389 C 0.20873 0.13172 0.16999 0.0
C390 C 0.23968 0.12028 0.17196 0.0
C391 C 0.20148 0.16242 0.17621 0.0
C392 C 0.22307 0.21851 0.21606 0.0
H393 H 0.07995 0.27792 0.23769 0.0
H394 H 0.11936 0.26346 0.21114 0.0
H395 H 0.21108 0.24362 0.24456 0.0
H396 H 0.2876 0.1319 0.18122 0.0
H397 H 0.27458 0.1857 0.19298 0.0
H398 H 0.18885 0.22878 0.16689 0.0
C399 C 0.12733 0.2742 0.22597 0.0
C400 C 0.20697 0.24189 0.22739 0.0
C401 C 0.10462 0.282 0.24138 0.0
C402 C 0.26352 0.14029 0.17972 0.0
C403 C 0.25614 0.17095 0.18631 0.0
C404 C 0.19458 0.2327 0.18368 0.0
C405 C 0.15974 0.27702 0.23066 0.0
C406 C 0.18327 0.25989 0.21726 0.0
C407 C 0.22497 0.18215 0.18475 0.0
C408 C 0.2156 0.21251 0.19446 0.0
H409 H 0.15403 0.30653 0.28133 0.0
H410 H 0.19342 0.29427 0.25414 0.0
H411 H 0.16129 0.27042 0.18652 0.0
H412 H 0.19009 0.11683 0.16374 0.0
H413 H 0.17716 0.17026 0.17518 0.0
C414 C 0.73353 0.09543 0.77259 0.0
C415 C 0.741 0.10349 0.79391 0.0
C416 C 0.7361 0.11789 0.75612 0.0
C417 C 0.75641 0.20328 0.74608 0.0
H418 H 0.80586 0.16762 0.6995 0.0
C419 C 0.87221 0.25147 0.71397 0.0
C420 C 0.87907 0.24949 0.69192 0.0
C421 C 0.84298 0.24134 0.72178 0.0
C422 C 0.79138 0.17804 0.71202 0.0
H423 H 0.75574 0.1416 0.81486 0.0
H424 H 0.76119 0.18011 0.78646 0.0
H425 H 0.77478 0.13306 0.72231 0.0
H426 H 0.86072 0.23702 0.66052 0.0
H427 H 0.80975 0.2181 0.67436 0.0
H428 H 0.77627 0.24793 0.73699 0.0
C429 C 0.7523 0.157 0.78223 0.0
C430 C 0.77338 0.1582 0.72514 0.0
C431 C 0.74937 0.13475 0.79863 0.0
C432 C 0.85572 0.23892 0.6776 0.0
C433 C 0.82668 0.22815 0.68547 0.0
C434 C 0.77498 0.22303 0.73321 0.0
C435 C 0.74675 0.14866 0.76064 0.0
C436 C 0.75717 0.17035 0.74312 0.0
C437 C 0.82047 0.22845 0.70769 0.0
C438 C 0.79383 0.21028 0.71678 0.0
H439 H 0.72665 0.07155 0.76858 0.0
H440 H 0.73107 0.11077 0.73974 0.0
H441 H 0.74336 0.21358 0.75933 0.0
H442 H 0.88998 0.25952 0.72524 0.0
H443 H 0.83892 0.24137 0.73903 0.0
C444 C 0.73959 0.8742 0.23506 0.0
C445 C 0.73875 0.88376 0.21342 0.0
C446 C 0.74967 0.84386 0.24045 0.0
C447 C 0.81074 0.7947 0.22135 0.0
H448 H 0.79038 0.74588 0.27236 0.0
C449 C 0.91051 0.74213 0.27097 0.0
C450 C 0.90771 0.75014 0.29283 0.0
C451 C 0.88405 0.74321 0.25748 0.0
C452 C 0.79639 0.7591 0.25797 0.0
H453 H 0.74488 0.86844 0.18036 0.0
H454 H 0.76308 0.81555 0.18985 0.0
H455 H 0.74927 0.77712 0.25486 0.0
H456 H 0.87491 0.76468 0.31783 0.0
H457 H 0.82951 0.76741 0.29455 0.0
H458 H 0.85839 0.77996 0.22565 0.0
C459 C 0.75564 0.83136 0.20258 0.0
C460 C 0.77276 0.77673 0.24788 0.0
C461 C 0.74516 0.86158 0.19718 0.0
C462 C 0.87781 0.75785 0.30113 0.0
C463 C 0.85157 0.75918 0.28771 0.0
C464 C 0.83446 0.77758 0.23164 0.0
C465 C 0.75951 0.82282 0.22428 0.0
C466 C 0.78022 0.79614 0.23025 0.0
C467 C 0.85443 0.75275 0.26557 0.0
C468 C 0.82799 0.7613 0.25091 0.0
H469 H 0.73465 0.89089 0.24782 0.0
H470 H 0.75268 0.83803 0.25733 0.0
H471 H 0.81723 0.80955 0.20781 0.0
H472 H 0.93325 0.73574 0.26423 0.0
H473 H 0.88705 0.73772 0.24056 0.0
C474 C 0.28171 0.88463 0.73339 0.0
C475 C 0.29466 0.88348 0.75419 0.0
C476 C 0.27405 0.85687 0.72258 0.0
C477 C 0.24906 0.77781 0.73955 0.0
H478 H 0.21953 0.77807 0.68058 0.0
C479 C 0.12418 0.74474 0.71865 0.0
C480 C 0.11549 0.73774 0.69738 0.0
C481 C 0.15585 0.74929 0.72399 0.0
C482 C 0.22805 0.77674 0.69699 0.0
H483 H 0.31444 0.85194 0.77836 0.0
H484 H 0.30318 0.80394 0.75888 0.0
H485 H 0.26369 0.81118 0.6905 0.0
H486 H 0.13387 0.72713 0.66545 0.0
H487 H 0.18898 0.73335 0.67507 0.0
H488 H 0.21351 0.74328 0.746 0.0
C489 C 0.29719 0.82625 0.75141 0.0
C490 C 0.25321 0.79625 0.70276 0.0
C491 C 0.30414 0.85402 0.76248 0.0
C492 C 0.1395 0.73243 0.68205 0.0
C493 C 0.17125 0.73645 0.68749 0.0
C494 C 0.22445 0.75773 0.73365 0.0
C495 C 0.27985 0.82724 0.73213 0.0
C496 C 0.26231 0.79892 0.72446 0.0
C497 C 0.17973 0.74645 0.70826 0.0
C498 C 0.212 0.75882 0.71271 0.0
H499 H 0.27518 0.90694 0.72613 0.0
H500 H 0.26095 0.85897 0.7077 0.0
H501 H 0.25538 0.77869 0.75642 0.0
H502 H 0.10639 0.74827 0.73098 0.0
H503 H 0.16118 0.75719 0.74015 0.0
C504 C 0.94602 0.79719 0.73398 0.0
C505 C 0.94109 0.79812 0.71159 0.0
C506 C 0.92824 0.81624 0.74779 0.0
C507 C 0.85134 0.85125 0.75366 0.0
H508 H 0.88965 0.90577 0.79634 0.0
C509 C 0.77536 0.93239 0.80738 0.0
C510 C 0.786 0.94027 0.82812 0.0
C511 C 0.79445 0.9151 0.79333 0.0
C512 C 0.87845 0.89024 0.78484 0.0
H513 H 0.91396 0.81997 0.68605 0.0
H514 H 0.88193 0.85268 0.71041 0.0
H515 H 0.92311 0.87674 0.7712 0.0
H516 H 0.82473 0.93517 0.85062 0.0
H517 H 0.85751 0.90355 0.82654 0.0
H518 H 0.80684 0.86316 0.76771 0.0
C519 C 0.89993 0.83742 0.71713 0.0
C520 C 0.8977 0.87388 0.77028 0.0
C521 C 0.9183 0.81887 0.70323 0.0
C522 C 0.81586 0.92955 0.83472 0.0
C523 C 0.83481 0.91169 0.82076 0.0
C524 C 0.83209 0.86704 0.76849 0.0
C525 C 0.90467 0.83612 0.73955 0.0
C526 C 0.88431 0.85437 0.75449 0.0
C527 C 0.82458 0.90459 0.7997 0.0
C528 C 0.8453 0.88695 0.78426 0.0
H529 H 0.96355 0.78154 0.74088 0.0
H530 H 0.93226 0.8147 0.76499 0.0
H531 H 0.84046 0.83592 0.74186 0.0
H532 H 0.75267 0.94064 0.80161 0.0
H533 H 0.7858 0.91089 0.77719 0.0
C534 C 0.20411 0.91643 0.17979 0.0
C535 C 0.22334 0.94083 0.1877 0.0
C536 C 0.18573 0.89818 0.194 0.0
C537 C 0.14752 0.89987 0.24715 0.0
H538 H 0.15612 0.8089 0.24692 0.0
C539 C 0.09231 0.82321 0.31486 0.0
C540 C 0.08059 0.7933 0.30932 0.0
C541 C 0.10991 0.84095 0.29996 0.0
C542 C 0.15288 0.83422 0.24706 0.0
H543 H 0.23755 0.96579 0.21661 0.0
H544 H 0.2051 0.93461 0.24108 0.0
H545 H 0.18409 0.84038 0.22004 0.0
H546 H 0.07817 0.75871 0.28366 0.0
H547 H 0.10754 0.78977 0.25767 0.0
H548 H 0.11578 0.89402 0.27371 0.0
C549 C 0.20446 0.92931 0.22402 0.0
C550 C 0.16905 0.85224 0.23162 0.0
C551 C 0.22321 0.94703 0.20996 0.0
C552 C 0.0871 0.7815 0.28862 0.0
C553 C 0.1042 0.79936 0.27366 0.0
C554 C 0.13091 0.88187 0.26236 0.0
C555 C 0.18569 0.90455 0.21627 0.0
C556 C 0.16677 0.88526 0.23163 0.0
C557 C 0.11582 0.82944 0.27901 0.0
C558 C 0.13351 0.84874 0.26269 0.0
H559 H 0.20369 0.91114 0.16273 0.0
H560 H 0.17136 0.87927 0.1876 0.0
H561 H 0.14516 0.92531 0.24744 0.0
H562 H 0.08778 0.83299 0.33067 0.0
H563 H 0.1189 0.86369 0.30494 0.0
C564 C 0.08246 0.19716 0.68901 0.0
C565 C 0.06086 0.21617 0.70027 0.0
C566 C 0.10292 0.17701 0.70021 0.0
C567 C 0.11379 0.13347 0.75063 0.0
H568 H 0.20321 0.14085 0.738 0.0
C569 C 0.2091 0.06221 0.79794 0.0
C570 C 0.23492 0.05114 0.78583 0.0
C571 C 0.18737 0.08341 0.78878 0.0
C572 C 0.17831 0.13803 0.74156 0.0
H573 H 0.04293 0.22807 0.73202 0.0
H574 H 0.07815 0.19235 0.75144 0.0
H575 H 0.16559 0.17367 0.71865 0.0
H576 H 0.25776 0.05347 0.75446 0.0
H577 H 0.21995 0.08893 0.73857 0.0
H578 H 0.12631 0.09703 0.77303 0.0
C579 C 0.07948 0.19332 0.73402 0.0
C580 C 0.15679 0.15698 0.73047 0.0
C581 C 0.05947 0.21389 0.72288 0.0
C582 C 0.23844 0.06168 0.76446 0.0
C583 C 0.21672 0.08238 0.7553 0.0
C584 C 0.13533 0.11402 0.7615 0.0
C585 C 0.1017 0.17502 0.72283 0.0
C586 C 0.12432 0.15477 0.73477 0.0
C587 C 0.19093 0.09375 0.76728 0.0
C588 C 0.1679 0.11581 0.75695 0.0
H589 H 0.08405 0.19837 0.67161 0.0
H590 H 0.11973 0.16297 0.6912 0.0
H591 H 0.08882 0.13132 0.75423 0.0
H592 H 0.20564 0.05449 0.81443 0.0
H593 H 0.16795 0.09181 0.79859 0.0
C594 C 0.82666 0.07027 0.21814 0.0
C595 C 0.79731 0.06061 0.22656 0.0
C596 C 0.84711 0.08895 0.23047 0.0
C597 C 0.84514 0.14536 0.27552 0.0
H598 H 0.93626 0.13564 0.2752 0.0
C599 C 0.92946 0.24402 0.30194 0.0
C600 C 0.95657 0.23619 0.31384 0.0
C601 C 0.90987 0.22053 0.29368 0.0
C602 C 0.91082 0.13841 0.27565 0.0
H603 H 0.76701 0.06213 0.25482 0.0
H604 H 0.80256 0.09433 0.27618 0.0
H605 H 0.90325 0.09773 0.2558 0.0
H606 H 0.98389 0.19743 0.32681 0.0
H607 H 0.94959 0.15608 0.31227 0.0
H608 H 0.85257 0.18606 0.29518 0.0
C609 C 0.80963 0.08795 0.25998 0.0
C610 C 0.89196 0.11693 0.26434 0.0
C611 C 0.78929 0.06933 0.24772 0.0
C612 C 0.96314 0.20421 0.31784 0.0
C613 C 0.94365 0.18056 0.30933 0.0
C614 C 0.86395 0.16684 0.2867 0.0
C615 C 0.83857 0.0984 0.25143 0.0
C616 C 0.85889 0.12032 0.26401 0.0
C617 C 0.91697 0.18851 0.29695 0.0
C618 C 0.89702 0.16387 0.2867 0.0
H619 H 0.8336 0.0639 0.20192 0.0
H620 H 0.86914 0.09679 0.22335 0.0
H621 H 0.81979 0.14889 0.27545 0.0
H622 H 0.92367 0.26843 0.29857 0.0
H623 H 0.88972 0.2275 0.28404 0.0
C624 C 0.1155 0.0294 0.10725 0.0
C625 C 0.13562 0.00486 0.11385 0.0
C626 C 0.08277 0.02653 0.10957 0.0
C627 C 0.01904 0.96793 0.11785 0.0
H628 H 0.97281 0.0393 0.14088 0.0
C629 C 0.88339 0.96688 0.12758 0.0
C630 C 0.87113 0.97983 0.14667 0.0
C631 C 0.91532 0.97042 0.12239 0.0
C632 C 0.98543 0.01911 0.13455 0.0
H633 H 0.13705 0.95761 0.12729 0.0
H634 H 0.08015 0.95287 0.13175 0.0
H635 H 0.02926 0.04424 0.13369 0.0
H636 H 0.88281 0.00626 0.17542 0.0
H637 H 0.93863 0.01224 0.16648 0.0
H638 H 0.97544 0.94249 0.11934 0.0
C639 C 0.08959 0.97425 0.12465 0.0
C640 C 0.01767 0.02207 0.13017 0.0
C641 C 0.12227 0.97714 0.12235 0.0
C642 C 0.89149 -0.00364 0.16047 0.0
C643 C 0.92344 -0.00016 0.15531 0.0
C644 C 0.98681 0.96497 0.12224 0.0
C645 C 0.06949 -0.00098 0.11846 0.0
C646 C 0.03489 -0.00358 0.12195 0.0
C647 C 0.9357 0.98694 0.1362 0.0
C648 C 0.9697 0.99044 0.13082 0.0
H649 H 0.12504 0.05113 0.10078 0.0
H650 H 0.06785 0.04589 0.10444 0.0
H651 H 0.03159 0.94784 0.1113 0.0
H652 H 0.86821 0.95452 0.11642 0.0
H653 H 0.92394 0.96061 0.10739 0.0
C654 C 0.01893 0.12769 0.62697 0.0
C655 C 0.99041 0.14239 0.62118 0.0
C656 C 0.02204 0.095 0.6258 0.0
C657 C 0.97432 0.02291 0.62702 0.0
H658 H 0.05298 0.98308 0.60998 0.0
C659 C 0.00271 0.89444 0.64868 0.0
C660 C 0.01766 0.87571 0.63306 0.0
C661 C -0.001 0.92677 0.6454 0.0
C662 C 0.03075 0.99381 0.61456 0.0
H663 H 0.94302 0.1343 0.60916 0.0
H664 H 0.94862 0.07716 0.60679 0.0
H665 H 0.04706 0.04007 0.60626 0.0
H666 H 0.04026 0.87613 0.60168 0.0
H667 H 0.03379 0.93273 0.59592 0.0
H668 H 0.95792 0.97671 0.63522 0.0
C669 C 0.96845 0.09098 0.61248 0.0
C670 C 0.02747 0.02647 0.61263 0.0
C671 C 0.96534 0.12372 0.61364 0.0
C672 C 0.02905 0.89003 0.61414 0.0
C673 C 0.02529 0.92242 0.61082 0.0
C674 C 0.97759 0.9903 0.62893 0.0
C675 C -0.00328 0.07625 0.61879 0.0
C676 C -0.00063 0.0414 0.61913 0.0
C677 C 0.01009 0.94109 0.62639 0.0
C678 C 0.006 0.97545 0.62303 0.0
H679 H 0.03889 0.14141 0.63248 0.0
H680 H 0.04403 0.08436 0.63098 0.0
H681 H 0.95248 0.03373 0.63235 0.0
H682 H 0.99416 0.88416 0.66357 0.0
H683 H 0.98777 0.94062 0.6579 0.0
C684 C 0.91713 0.04589 0.86687 0.0
C685 C 0.89189 0.03005 0.85704 0.0
C686 C 0.94827 0.03659 0.8629 0.0
C687 C 0.9954 0.96909 0.8425 0.0
H688 H 0.06182 0.03187 0.83911 0.0
C689 C 0.12805 0.9361 0.84135 0.0
C690 C 0.14847 0.95508 0.82907 0.0
C691 C 0.09628 0.94448 0.84384 0.0
C692 C 0.04354 0.01401 0.83974 0.0
H693 H 0.8794 0.99282 0.83475 0.0
H694 H 0.93367 0.97702 0.82738 0.0
H695 H 0.00751 0.04857 0.84463 0.0
H696 H 0.15151 -0.00338 0.80879 0.0
H697 H 0.09604 0.01084 0.81258 0.0
H698 H 0.03135 0.9346 0.83689 0.0
C699 C 0.92951 -0.00399 0.83868 0.0
C700 C 0.0124 0.02359 0.84325 0.0
C701 C 0.8984 0.00512 0.84283 0.0
C702 C 0.13635 0.98191 0.81867 0.0
C703 C 0.1046 0.99009 0.82094 0.0
C704 C 0.02653 0.95952 0.8388 0.0
C705 C 0.95484 0.01146 0.84879 0.0
C706 C 0.98794 0.00125 0.84476 0.0
C707 C 0.08428 0.97183 0.83387 0.0
C708 C 0.05101 0.98186 0.83743 0.0
H709 H 0.91274 0.06492 0.87808 0.0
H710 H 0.96715 0.0487 0.87124 0.0
H711 H 0.97724 0.95119 0.84385 0.0
H712 H 0.13691 0.91547 0.84967 0.0
H713 H 0.08143 0.93006 0.85412 0.0
C714 C 0.98671 0.92133 0.37486 0.0
C715 C 0.00205 0.89985 0.36121 0.0
C716 C 0.99646 0.95275 0.37564 0.0
C717 C 0.06257 0.0063 0.36081 0.0
H718 H -0.00321 0.06987 0.36233 0.0
C719 C 0.08783 0.14116 0.36433 0.0
C720 C 0.06781 0.16017 0.35183 0.0
C721 C 0.08156 0.10889 0.36664 0.0
C722 C 0.01546 0.05241 0.36178 0.0
H723 H 0.03944 0.89431 0.33761 0.0
H724 H 0.05603 0.94933 0.33855 0.0
H725 H 0.98247 0.01451 0.36423 0.0
H726 H 0.02714 0.16032 0.33076 0.0
H727 H 0.01638 0.10429 0.33446 0.0
H728 H 0.09544 0.04447 0.35745 0.0
C729 C 0.03701 0.9418 0.34907 0.0
C730 C 0.00727 0.02065 0.36318 0.0
C731 C 0.02741 0.91033 0.34843 0.0
C732 C 0.04234 0.14628 0.34098 0.0
C733 C 0.0362 0.11422 0.34314 0.0
C734 C 0.07077 0.03818 0.3593 0.0
C735 C 0.02155 0.96341 0.36262 0.0
C736 C 0.03067 -0.0028 0.36246 0.0
C737 C 0.05531 0.09525 0.35634 0.0
C738 C 0.04723 0.06152 0.35943 0.0
H739 H 0.96749 0.91374 0.38517 0.0
H740 H 0.9844 0.96867 0.38652 0.0
H741 H 0.0812 0.9888 0.36052 0.0
H742 H 0.10758 0.15146 0.37285 0.0
H743 H 0.09667 0.09486 0.37696 0.0
C744 C 0.38991 0.01894 0.15664 0.0
C745 C 0.37886 0.989 0.16293 0.0
C746 C 0.42 0.02913 0.16252 0.0
C747 C 0.48645 0.01321 0.19974 0.0
H748 H 0.53591 0.05401 0.15498 0.0
C749 C 0.62235 0.02229 0.2006 0.0
C750 C 0.63659 0.04938 0.19181 0.0
C751 C 0.58959 0.01868 0.20023 0.0
C752 C 0.52226 0.04321 0.16781 0.0
H753 H 0.3907 0.94666 0.18084 0.0
H754 H 0.4437 0.96408 0.19055 0.0
H755 H 0.48129 0.03983 0.14794 0.0
H756 H 0.62756 0.09471 0.17684 0.0
H757 H 0.57019 0.0886 0.17641 0.0
H758 H 0.52797 0.01584 0.21937 0.0
C759 C 0.42879 0.97985 0.18132 0.0
C760 C 0.49092 0.03502 0.16376 0.0
C761 C 0.39857 0.96968 0.1755 0.0
C762 C 0.61728 0.07362 0.18377 0.0
C763 C 0.58448 0.06998 0.18334 0.0
C764 C 0.5179 0.02134 0.20377 0.0
C765 C 0.43994 0.00958 0.17471 0.0
C766 C 0.47273 0.01965 0.1796 0.0
C767 C 0.57037 0.0421 0.19104 0.0
C768 C 0.53621 0.03614 0.18775 0.0
H769 H 0.37569 0.03438 0.14673 0.0
H770 H 0.42771 0.05233 0.15737 0.0
H771 H 0.4729 0.0018 0.21238 0.0
H772 H 0.63664 0.00346 0.20722 0.0
H773 H 0.57947 -0.00313 0.2062 0.0
C774 C 0.93196 0.62002 0.68442 0.0
C775 C 0.95185 0.63804 0.67105 0.0
C776 C 0.93565 0.58722 0.68565 0.0
C777 C 0.97276 0.52026 0.65658 0.0
H778 H 0.97461 0.47955 0.71262 0.0
C779 C 0.03681 0.40386 0.6703 0.0
C780 C 0.01792 0.37928 0.67833 0.0
C781 C 0.02604 0.4349 0.67104 0.0
C782 C 0.97388 0.49068 0.69689 0.0
H783 H 0.99003 0.63573 0.64771 0.0
H784 H -0.00287 0.57935 0.65035 0.0
H785 H 0.95853 0.53498 0.70977 0.0
H786 H 0.97405 0.36784 0.69461 0.0
H787 H 0.95541 0.42262 0.6963 0.0
H788 H 0.98946 0.47648 0.64385 0.0
C789 C 0.97849 0.59015 0.65977 0.0
C790 C 0.9645 0.52224 0.69522 0.0
C791 C 0.97477 0.62265 0.65852 0.0
C792 C 0.98888 0.38647 0.6882 0.0
C793 C 0.97831 0.41765 0.68925 0.0
C794 C 0.98252 0.48902 0.65831 0.0
C795 C 0.95912 0.57201 0.67339 0.0
C796 C 0.96461 0.53756 0.67508 0.0
C797 C 0.99645 0.44192 0.6801 0.0
C798 C 0.98382 0.47422 0.6785 0.0
H799 H 0.91414 0.63135 0.69426 0.0
H800 H 0.92023 0.57381 0.69619 0.0
H801 H 0.97232 0.53111 0.64077 0.0
H802 H 0.05913 0.39891 0.66245 0.0
H803 H 0.04048 0.4534 0.66402 0.0
C804 C 0.39987 0.05558 0.85012 0.0
C805 C 0.38208 0.02829 0.85403 0.0
C806 C 0.42946 0.0593 0.85959 0.0
C807 C 0.48829 0.0234 0.89706 0.0
H808 H 0.54579 0.04421 0.85041 0.0
C809 C 0.61986 0.98535 0.89417 0.0
C810 C 0.64163 0.00561 0.88393 0.0
C811 C 0.58767 0.99283 0.8948 0.0
C812 C 0.53023 0.03899 0.86384 0.0
H813 H 0.37956 0.98476 0.87216 0.0
H814 H 0.43189 0.99061 0.88832 0.0
H815 H 0.48967 0.05078 0.84531 0.0
H816 H 0.64603 0.05047 0.86703 0.0
H817 H 0.59074 0.06381 0.86895 0.0
H818 H 0.52939 0.01055 0.91528 0.0
C819 C 0.42286 0.00951 0.87831 0.0
C820 C 0.4979 0.04284 0.86092 0.0
C821 C 0.39293 0.00609 0.86908 0.0
C822 C 0.63043 0.03416 0.87519 0.0
C823 C 0.59844 0.04176 0.87606 0.0
C824 C 0.52088 0.01958 0.90002 0.0
C825 C 0.44208 0.03536 0.87272 0.0
C826 C 0.47646 0.03478 0.87736 0.0
C827 C 0.57655 0.02084 0.88533 0.0
C828 C 0.54216 0.02701 0.8833 0.0
H829 H 0.39165 0.07303 0.83866 0.0
H830 H 0.44336 0.07989 0.85542 0.0
H831 H 0.47235 0.01706 0.91005 0.0
H832 H 0.62743 0.96342 0.90141 0.0
H833 H 0.57139 0.97609 0.90196 0.0
C834 C 0.95296 0.40887 0.35834 0.0
C835 C 0.97932 0.39099 0.36437 0.0
C836 C 0.9498 0.43986 0.36546 0.0
C837 C 0.98826 0.50371 0.39761 0.0
H838 H 0.97551 0.55068 0.34464 0.0
C839 C 0.03999 0.62819 0.3814 0.0
C840 C 0.02141 0.64937 0.36942 0.0
C841 C 0.02981 0.59716 0.38477 0.0
C842 C 0.97855 0.53817 0.35973 0.0
H843 H 0.0212 0.38968 0.38424 0.0
H844 H 0.01651 0.44425 0.39614 0.0
H845 H 0.96317 0.49517 0.3457 0.0
H846 H 0.9776 0.65435 0.35155 0.0
H847 H 0.95957 0.60102 0.35799 0.0
H848 H 0.00497 0.54708 0.41123 0.0
C849 C -0.00216 0.43442 0.38632 0.0
C850 C 0.97128 0.50622 0.3604 0.0
C851 C 0.0006 0.40317 0.37951 0.0
C852 C 0.99236 0.63893 0.36112 0.0
C853 C 0.98212 0.60817 0.36461 0.0
C854 C 0.99558 0.5359 0.39694 0.0
C855 C 0.9735 0.45364 0.3782 0.0
C856 C 0.97647 0.48845 0.3792 0.0
C857 C 0.00088 0.5868 0.37621 0.0
C858 C 0.9912 0.5533 0.37786 0.0
H859 H 0.93622 0.39964 0.34678 0.0
H860 H 0.93028 0.45384 0.35944 0.0
H861 H 0.99246 0.49064 0.41234 0.0
H862 H 0.0623 0.63556 0.38823 0.0
H863 H 0.04495 0.5811 0.39357 0.0
loop_
_geom_bond_atom_site_label_1
_geom_bond_atom_site_label_2
_geom_bond_distance
_geom_bond_site_symmetry_2
_ccdc_geom_bond_type
C0 C1 1.351 . S
C0 N3 1.368 . S
C0 H5 0.931 . S
C1 C0 1.351 . S
C1 N2 1.373 . S
C1 H29 0.930 . S
N2 C1 1.373 . S
N2 C4 1.340 1_545 S
N3 C0 1.368 . S
N3 C4 1.321 1_545 S
N3 Co6 2.135 . S
C4 N2 1.340 1_565 S
C4 N3 1.321 1_565 S
C4 H28 0.930 . S
H5 C0 0.931 . S
Co6 N3 2.135 . S
Co6 N9 2.121 . S
Co6 O14 2.055 1_545 S
Co6 O17 2.039 1_545 S
Co6 N20 2.140 . S
C7 O8 1.227 . S
C7 O17 1.265 . S
O8 C7 1.227 . S
N9 Co6 2.121 . S
N9 C11 1.375 1_545 S
N9 C12 1.313 . S
C10 C11 1.338 . S
C10 N13 1.377 1_565 S
C10 H30 0.930 . S
C11 N9 1.375 1_565 S
C11 C10 1.338 . S
C11 H15 0.931 . S
C12 N9 1.313 . S
C12 N13 1.344 . S
C12 H16 0.930 . S
N13 C10 1.377 1_545 S
N13 C12 1.344 . S
O14 Co6 2.055 1_565 S
O14 C18 1.253 1_565 S
H15 C11 0.931 . S
H16 C12 0.930 . S
O17 Co6 2.039 1_565 S
O17 C7 1.265 . S
C18 O14 1.253 1_545 S
C18 O19 1.227 . S
O19 C18 1.227 . S
N20 Co6 2.140 . S
N20 C23 1.346 . S
N20 C24 1.345 . S
C21 C22 1.387 . S
C21 C25 1.391 . S
C22 C21 1.387 . S
C22 C23 1.369 . S
C22 H31 0.929 . S
C23 N20 1.346 . S
C23 C22 1.369 . S
C23 H26 0.928 . S
C24 N20 1.345 . S
C24 C25 1.371 . S
C24 H27 0.931 . S
C25 C21 1.391 . S
C25 C24 1.371 . S
C25 H32 0.930 . S
H26 C23 0.928 . S
H27 C24 0.931 . S
H28 C4 0.930 . S
H29 C1 0.930 . S
H30 C10 0.930 . S
H31 C22 0.929 . S
H32 C25 0.930 . S
C33 C34 1.351 . S
C33 N36 1.368 1_655 S
C33 H38 0.931 . S
C34 C33 1.351 . S
C34 N35 1.373 1_655 S
C34 H62 0.930 . S
N35 C34 1.373 1_455 S
N35 C37 1.340 . S
N36 C33 1.368 1_455 S
N36 C37 1.321 . S
N36 Co39 2.135 . S
C37 N35 1.340 . S
C37 N36 1.321 . S
C37 H61 0.930 . S
H38 C33 0.931 . S
Co39 N36 2.135 . S
Co39 N42 2.121 . S
Co39 O47 2.055 . S
Co39 O50 2.039 . S
Co39 N53 2.140 1_455 S
C40 O41 1.227 . S
C40 O50 1.265 . S
O41 C40 1.227 . S
N42 Co39 2.121 . S
N42 C44 1.375 . S
N42 C45 1.313 . S
C43 C44 1.338 . S
C43 N46 1.377 . S
C43 H63 0.930 . S
C44 N42 1.375 . S
C44 C43 1.338 . S
C44 H48 0.931 . S
C45 N42 1.313 . S
C45 N46 1.344 . S
C45 H49 0.930 . S
N46 C43 1.377 . S
N46 C45 1.344 . S
O47 Co39 2.055 . S
O47 C51 1.253 . S
H48 C44 0.931 . S
H49 C45 0.930 . S
O50 Co39 2.039 . S
O50 C40 1.265 . S
C51 O47 1.253 . S
C51 O52 1.227 1_455 S
O52 C51 1.227 1_655 S
N53 Co39 2.140 1_655 S
N53 C56 1.346 . S
N53 C57 1.345 . S
C54 C55 1.387 . S
C54 C58 1.391 . S
C55 C54 1.387 . S
C55 C56 1.369 . S
C55 H64 0.929 . S
C56 N53 1.346 . S
C56 C55 1.369 . S
C56 H59 0.928 . S
C57 N53 1.345 . S
C57 C58 1.371 . S
C57 H60 0.931 . S
C58 C54 1.391 . S
C58 C57 1.371 . S
C58 H65 0.930 . S
H59 C56 0.928 . S
H60 C57 0.931 . S
H61 C37 0.930 . S
H62 C34 0.930 . S
H63 C43 0.930 . S
H64 C55 0.929 . S
H65 C58 0.930 . S
C66 C67 1.351 . S
C66 N69 1.368 1_565 S
C66 H71 0.931 . S
C67 C66 1.351 . S
C67 N68 1.373 1_565 S
C67 H95 0.930 . S
N68 C67 1.373 1_545 S
N68 C70 1.340 . S
N69 C66 1.368 1_545 S
N69 C70 1.321 . S
N69 Co72 2.135 . S
C70 N68 1.340 . S
C70 N69 1.321 . S
C70 H94 0.930 . S
H71 C66 0.931 . S
Co72 N69 2.135 . S
Co72 N75 2.121 . S
Co72 O80 2.055 . S
Co72 O83 2.039 . S
Co72 N86 2.140 1_545 S
C73 O74 1.227 . S
C73 O83 1.265 . S
O74 C73 1.227 . S
N75 Co72 2.121 . S
N75 C77 1.375 . S
N75 C78 1.313 . S
C76 C77 1.338 . S
C76 N79 1.377 . S
C76 H96 0.930 . S
C77 N75 1.375 . S
C77 C76 1.338 . S
C77 H81 0.931 . S
C78 N75 1.313 . S
C78 N79 1.344 . S
C78 H82 0.930 . S
N79 C76 1.377 . S
N79 C78 1.344 . S
O80 Co72 2.055 . S
O80 C84 1.253 . S
H81 C77 0.931 . S
H82 C78 0.930 . S
O83 Co72 2.039 . S
O83 C73 1.265 . S
C84 O80 1.253 . S
C84 O85 1.227 1_545 S
O85 C84 1.227 1_565 S
N86 Co72 2.140 1_565 S
N86 C89 1.346 . S
N86 C90 1.345 . S
C87 C88 1.387 . S
C87 C91 1.391 . S
C88 C87 1.387 . S
C88 C89 1.369 . S
C88 H97 0.929 . S
C89 N86 1.346 . S
C89 C88 1.369 . S
C89 H92 0.928 . S
C90 N86 1.345 . S
C90 C91 1.371 . S
C90 H93 0.931 . S
C91 C87 1.391 . S
C91 C90 1.371 . S
C91 H98 0.930 . S
H92 C89 0.928 . S
H93 C90 0.931 . S
H94 C70 0.930 . S
H95 C67 0.930 . S
H96 C76 0.930 . S
H97 C88 0.929 . S
H98 C91 0.930 . S
C99 C100 1.351 . S
C99 N102 1.368 . S
C99 H104 0.931 . S
C100 C99 1.351 . S
C100 N101 1.373 . S
C100 H128 0.930 . S
N101 C100 1.373 . S
N101 C103 1.340 1_455 S
N102 C99 1.368 . S
N102 C103 1.321 1_455 S
N102 Co105 2.135 . S
C103 N101 1.340 1_655 S
C103 N102 1.321 1_655 S
C103 H127 0.930 . S
H104 C99 0.931 . S
Co105 N102 2.135 . S
Co105 N108 2.121 . S
Co105 O113 2.055 1_455 S
Co105 O116 2.039 1_455 S
Co105 N119 2.140 . S
C106 O107 1.227 . S
C106 O116 1.265 . S
O107 C106 1.227 . S
N108 Co105 2.121 . S
N108 C110 1.375 1_455 S
N108 C111 1.313 . S
C109 C110 1.338 . S
C109 N112 1.377 1_655 S
C109 H129 0.930 . S
C110 N108 1.375 1_655 S
C110 C109 1.338 . S
C110 H114 0.931 . S
C111 N108 1.313 . S
C111 N112 1.344 . S
C111 H115 0.930 . S
N112 C109 1.377 1_455 S
N112 C111 1.344 . S
O113 Co105 2.055 1_655 S
O113 C117 1.253 1_655 S
H114 C110 0.931 . S
H115 C111 0.930 . S
O116 Co105 2.039 1_655 S
O116 C106 1.265 . S
C117 O113 1.253 1_455 S
C117 O118 1.227 . S
O118 C117 1.227 . S
N119 Co105 2.140 . S
N119 C122 1.346 . S
N119 C123 1.345 . S
C120 C121 1.387 . S
C120 C124 1.391 . S
C121 C120 1.387 . S
C121 C122 1.369 . S
C121 H130 0.929 . S
C122 N119 1.346 . S
C122 C121 1.369 . S
C122 H125 0.928 . S
C123 N119 1.345 . S
C123 C124 1.371 . S
C123 H126 0.931 . S
C124 C120 1.391 . S
C124 C123 1.371 . S
C124 H131 0.930 . S
H125 C122 0.928 . S
H126 C123 0.931 . S
H127 C103 0.930 . S
H128 C100 0.930 . S
H129 C109 0.930 . S
H130 C121 0.929 . S
H131 C124 0.930 . S
C132 C133 1.351 . S
C132 N135 1.368 1_565 S
C132 H137 0.931 . S
C133 C132 1.351 . S
C133 N134 1.373 1_565 S
C133 H161 0.930 . S
N134 C133 1.373 1_545 S
N134 C136 1.340 . S
N135 C132 1.368 1_545 S
N135 C136 1.321 . S
N135 Co138 2.135 . S
C136 N134 1.340 . S
C136 N135 1.321 . S
C136 H160 0.930 . S
H137 C132 0.931 . S
Co138 N135 2.135 . S
Co138 N141 2.121 . S
Co138 O146 2.055 . S
Co138 O149 2.039 . S
Co138 N152 2.140 1_545 S
C139 O140 1.227 . S
C139 O149 1.265 . S
O140 C139 1.227 . S
N141 Co138 2.121 . S
N141 C143 1.375 . S
N141 C144 1.313 . S
C142 C143 1.338 . S
C142 N145 1.377 . S
C142 H162 0.930 . S
C143 N141 1.375 . S
C143 C142 1.338 . S
C143 H147 0.931 . S
C144 N141 1.313 . S
C144 N145 1.344 . S
C144 H148 0.930 . S
N145 C142 1.377 . S
N145 C144 1.344 . S
O146 Co138 2.055 . S
O146 C150 1.253 . S
H147 C143 0.931 . S
H148 C144 0.930 . S
O149 Co138 2.039 . S
O149 C139 1.265 . S
C150 O146 1.253 . S
C150 O151 1.227 1_545 S
O151 C150 1.227 1_565 S
N152 Co138 2.140 1_565 S
N152 C155 1.346 . S
N152 C156 1.345 . S
C153 C154 1.387 . S
C153 C157 1.391 . S
C154 C153 1.387 . S
C154 C155 1.369 . S
C154 H163 0.929 . S
C155 N152 1.346 . S
C155 C154 1.369 . S
C155 H158 0.928 . S
C156 N152 1.345 . S
C156 C157 1.371 . S
C156 H159 0.931 . S
C157 C153 1.391 . S
C157 C156 1.371 . S
C157 H164 0.930 . S
H158 C155 0.928 . S
H159 C156 0.931 . S
H160 C136 0.930 . S
H161 C133 0.930 . S
H162 C142 0.930 . S
H163 C154 0.929 . S
H164 C157 0.930 . S
C165 C166 1.351 . S
C165 N168 1.368 . S
C165 H170 0.931 . S
C166 C165 1.351 . S
C166 N167 1.373 . S
C166 H194 0.930 . S
N167 C166 1.373 . S
N167 C169 1.340 1_455 S
N168 C165 1.368 . S
N168 C169 1.321 1_455 S
N168 Co171 2.135 . S
C169 N167 1.340 1_655 S
C169 N168 1.321 1_655 S
C169 H193 0.930 . S
H170 C165 0.931 . S
Co171 N168 2.135 . S
Co171 N174 2.121 . S
Co171 O179 2.055 1_455 S
Co171 O182 2.039 1_455 S
Co171 N185 2.140 . S
C172 O173 1.227 . S
C172 O182 1.265 . S
O173 C172 1.227 . S
N174 Co171 2.121 . S
N174 C176 1.375 1_455 S
N174 C177 1.313 . S
C175 C176 1.338 . S
C175 N178 1.377 1_655 S
C175 H195 0.930 . S
C176 N174 1.375 1_655 S
C176 C175 1.338 . S
C176 H180 0.931 . S
C177 N174 1.313 . S
C177 N178 1.344 . S
C177 H181 0.930 . S
N178 C175 1.377 1_455 S
N178 C177 1.344 . S
O179 Co171 2.055 1_655 S
O179 C183 1.253 1_655 S
H180 C176 0.931 . S
H181 C177 0.930 . S
O182 Co171 2.039 1_655 S
O182 C172 1.265 . S
C183 O179 1.253 1_455 S
C183 O184 1.227 . S
O184 C183 1.227 . S
N185 Co171 2.140 . S
N185 C188 1.346 . S
N185 C189 1.345 . S
C186 C187 1.387 . S
C186 C190 1.391 . S
C187 C186 1.387 . S
C187 C188 1.369 . S
C187 H196 0.929 . S
C188 N185 1.346 . S
C188 C187 1.369 . S
C188 H191 0.928 . S
C189 N185 1.345 . S
C189 C190 1.371 . S
C189 H192 0.931 . S
C190 C186 1.391 . S
C190 C189 1.371 . S
C190 H197 0.930 . S
H191 C188 0.928 . S
H192 C189 0.931 . S
H193 C169 0.930 . S
H194 C166 0.930 . S
H195 C175 0.930 . S
H196 C187 0.929 . S
H197 C190 0.930 . S
C198 C199 1.351 . S
C198 N201 1.368 . S
C198 H203 0.931 . S
C199 C198 1.351 . S
C199 N200 1.373 . S
C199 H227 0.930 . S
N200 C199 1.373 . S
N200 C202 1.340 1_545 S
N201 C198 1.368 . S
N201 C202 1.321 1_545 S
N201 Co204 2.135 . S
C202 N200 1.340 1_565 S
C202 N201 1.321 1_565 S
C202 H226 0.930 . S
H203 C198 0.931 . S
Co204 N201 2.135 . S
Co204 N207 2.121 . S
Co204 O212 2.055 1_545 S
Co204 O215 2.039 1_545 S
Co204 N218 2.140 . S
C205 O206 1.227 . S
C205 O215 1.265 . S
O206 C205 1.227 . S
N207 Co204 2.121 . S
N207 C209 1.375 1_545 S
N207 C210 1.313 . S
C208 C209 1.338 . S
C208 N211 1.377 1_565 S
C208 H228 0.930 . S
C209 N207 1.375 1_565 S
C209 C208 1.338 . S
C209 H213 0.931 . S
C210 N207 1.313 . S
C210 N211 1.344 . S
C210 H214 0.930 . S
N211 C208 1.377 1_545 S
N211 C210 1.344 . S
O212 Co204 2.055 1_565 S
O212 C216 1.253 1_565 S
H213 C209 0.931 . S
H214 C210 0.930 . S
O215 Co204 2.039 1_565 S
O215 C205 1.265 . S
C216 O212 1.253 1_545 S
C216 O217 1.227 . S
O217 C216 1.227 . S
N218 Co204 2.140 . S
N218 C221 1.346 . S
N218 C222 1.345 . S
C219 C220 1.387 . S
C219 C223 1.391 . S
C220 C219 1.387 . S
C220 C221 1.369 . S
C220 H229 0.929 . S
C221 N218 1.346 . S
C221 C220 1.369 . S
C221 H224 0.928 . S
C222 N218 1.345 . S
C222 C223 1.371 . S
C222 H225 0.931 . S
C223 C219 1.391 . S
C223 C222 1.371 . S
C223 H230 0.930 . S
H224 C221 0.928 . S
H225 C222 0.931 . S
H226 C202 0.930 . S
H227 C199 0.930 . S
H228 C208 0.930 . S
H229 C220 0.929 . S
H230 C223 0.930 . S
C231 C232 1.351 . S
C231 N234 1.368 1_655 S
C231 H236 0.931 . S
C232 C231 1.351 . S
C232 N233 1.373 1_655 S
C232 H260 0.930 . S
N233 C232 1.373 1_455 S
N233 C235 1.340 . S
N234 C231 1.368 1_455 S
N234 C235 1.321 . S
N234 Co237 2.135 . S
C235 N233 1.340 . S
C235 N234 1.321 . S
C235 H259 0.930 . S
H236 C231 0.931 . S
Co237 N234 2.135 . S
Co237 N240 2.121 . S
Co237 O245 2.055 . S
Co237 O248 2.039 . S
Co237 N251 2.140 1_455 S
C238 O239 1.227 . S
C238 O248 1.265 . S
O239 C238 1.227 . S
N240 Co237 2.121 . S
N240 C242 1.375 . S
N240 C243 1.313 . S
C241 C242 1.338 . S
C241 N244 1.377 . S
C241 H261 0.930 . S
C242 N240 1.375 . S
C242 C241 1.338 . S
C242 H246 0.931 . S
C243 N240 1.313 . S
C243 N244 1.344 . S
C243 H247 0.930 . S
N244 C241 1.377 . S
N244 C243 1.344 . S
O245 Co237 2.055 . S
O245 C249 1.253 . S
H246 C242 0.931 . S
H247 C243 0.930 . S
O248 Co237 2.039 . S
O248 C238 1.265 . S
C249 O245 1.253 . S
C249 O250 1.227 1_455 S
O250 C249 1.227 1_655 S
N251 Co237 2.140 1_655 S
N251 C254 1.346 . S
N251 C255 1.345 . S
C252 C253 1.387 . S
C252 C256 1.391 . S
C253 C252 1.387 . S
C253 C254 1.369 . S
C253 H262 0.929 . S
C254 N251 1.346 . S
C254 C253 1.369 . S
C254 H257 0.928 . S
C255 N251 1.345 . S
C255 C256 1.371 . S
C255 H258 0.931 . S
C256 C252 1.391 . S
C256 C255 1.371 . S
C256 H263 0.930 . S
H257 C254 0.928 . S
H258 C255 0.931 . S
H259 C235 0.930 . S
H260 C232 0.930 . S
H261 C241 0.930 . S
H262 C253 0.929 . S
H263 C256 0.930 . S
C264 C265 1.349 . S
C264 C266 1.327 . S
C264 H289 0.950 . S
C265 C264 1.349 . S
C265 C281 1.349 1_545 S
C266 C264 1.327 . S
C266 C285 1.429 . S
C266 H290 0.950 . S
C267 C284 1.574 1_554 S
C267 C286 1.368 1_565 S
C267 H291 0.949 . S
H268 C272 0.949 . S
C269 C270 1.349 1_565 S
C269 C271 1.327 . S
C269 H292 0.950 . S
C270 C269 1.349 1_545 S
C270 C282 1.349 . S
C271 C269 1.327 . S
C271 C287 1.429 1_565 S
C271 H293 0.950 . S
C272 H268 0.949 . S
C272 C280 1.574 1_556 S
C272 C288 1.368 . S
H273 C281 0.950 . S
H274 C279 0.950 . S
H275 C280 0.949 . S
H276 C282 0.950 . S
H277 C283 0.950 . S
H278 C284 0.949 . S
C279 H274 0.950 . S
C279 C281 1.327 . S
C279 C285 1.429 1_565 S
C280 C272 1.574 1_554 S
C280 H275 0.949 . S
C280 C286 1.368 . S
C281 C265 1.349 1_565 S
C281 H273 0.950 . S
C281 C279 1.327 . S
C282 C270 1.349 . S
C282 H276 0.950 . S
C282 C283 1.327 . S
C283 H277 0.950 . S
C283 C282 1.327 . S
C283 C287 1.429 . S
C284 C267 1.574 1_556 S
C284 H278 0.949 . S
C284 C288 1.368 1_565 S
C285 C266 1.429 . S
C285 C279 1.429 1_545 S
C285 C286 1.523 . S
C286 C267 1.368 1_545 S
C286 C280 1.368 . S
C286 C285 1.523 . S
C287 C271 1.429 1_545 S
C287 C283 1.429 . S
C287 C288 1.523 . S
C288 C272 1.368 . S
C288 C284 1.368 1_545 S
C288 C287 1.523 . S
H289 C264 0.950 . S
H290 C266 0.950 . S
H291 C267 0.949 . S
H292 C269 0.950 . S
H293 C271 0.950 . S
C294 C295 1.349 . S
C294 C296 1.327 . S
C294 H319 0.950 . S
C295 C294 1.349 . S
C295 C311 1.349 . S
C296 C294 1.327 . S
C296 C315 1.429 . S
C296 H320 0.950 . S
C297 C314 1.574 . S
C297 C316 1.368 1_655 S
C297 H321 0.949 . S
H298 C302 0.949 . S
C299 C300 1.349 1_655 S
C299 C301 1.327 . S
C299 H322 0.950 . S
C300 C299 1.349 1_455 S
C300 C312 1.349 . S
C301 C299 1.327 . S
C301 C317 1.429 1_655 S
C301 H323 0.950 . S
C302 H298 0.949 . S
C302 C310 1.574 . S
C302 C318 1.368 . S
H303 C311 0.950 1_655 S
H304 C309 0.952 1_655 S
H305 C310 0.949 . S
H306 C312 0.950 . S
H307 C313 0.950 . S
H308 C314 0.949 . S
C309 H304 0.952 1_455 S
C309 C311 1.327 . S
C309 C315 1.427 . S
C310 C302 1.574 . S
C310 H305 0.949 . S
C310 C316 1.368 . S
C311 C295 1.349 . S
C311 H303 0.950 1_455 S
C311 C309 1.327 . S
C312 C300 1.349 . S
C312 H306 0.950 . S
C312 C313 1.327 . S
C313 H307 0.950 . S
C313 C312 1.327 . S
C313 C317 1.429 . S
C314 C297 1.574 . S
C314 H308 0.949 . S
C314 C318 1.368 1_655 S
C315 C296 1.429 . S
C315 C309 1.427 . S
C315 C316 1.523 . S
C316 C297 1.368 1_455 S
C316 C310 1.368 . S
C316 C315 1.523 . S
C317 C301 1.429 1_455 S
C317 C313 1.429 . S
C317 C318 1.523 . S
C318 C302 1.368 . S
C318 C314 1.368 1_455 S
C318 C317 1.523 . S
H319 C294 0.950 . S
H320 C296 0.950 . S
H321 C297 0.949 . S
H322 C299 0.950 . S
H323 C301 0.950 . S
C324 C325 1.349 1_565 S
C324 C326 1.327 . S
C324 H349 0.950 . S
C325 C324 1.349 1_545 S
C325 C341 1.349 . S
C326 C324 1.327 . S
C326 C345 1.429 1_565 S
C326 H350 0.950 . S
C327 C344 1.574 1_554 S
C327 C346 1.368 . S
C327 H351 0.949 . S
H328 C332 0.949 . S
C329 C330 1.349 . S
C329 C331 1.327 . S
C329 H352 0.950 . S
C330 C329 1.349 . S
C330 C342 1.349 1_545 S
C331 C329 1.327 . S
C331 C347 1.429 . S
C331 H353 0.950 . S
C332 H328 0.949 . S
C332 C340 1.574 1_556 S
C332 C348 1.368 1_565 S
H333 C341 0.950 . S
H334 C339 0.950 . S
H335 C340 0.949 . S
H336 C342 0.950 . S
H337 C343 0.950 . S
H338 C344 0.949 . S
C339 H334 0.950 . S
C339 C341 1.327 . S
C339 C345 1.429 . S
C340 C332 1.574 1_554 S
C340 H335 0.949 . S
C340 C346 1.368 1_565 S
C341 C325 1.349 . S
C341 H333 0.950 . S
C341 C339 1.327 . S
C342 C330 1.349 1_565 S
C342 H336 0.950 . S
C342 C343 1.327 . S
C343 H337 0.950 . S
C343 C342 1.327 . S
C343 C347 1.429 1_565 S
C344 C327 1.574 1_556 S
C344 H338 0.949 . S
C344 C348 1.368 . S
C345 C326 1.429 1_545 S
C345 C339 1.429 . S
C345 C346 1.523 . S
C346 C327 1.368 . S
C346 C340 1.368 1_545 S
C346 C345 1.523 . S
C347 C331 1.429 . S
C347 C343 1.429 1_545 S
C347 C348 1.523 . S
C348 C332 1.368 1_545 S
C348 C344 1.368 . S
C348 C347 1.523 . S
H349 C324 0.950 . S
H350 C326 0.950 . S
H351 C327 0.949 . S
H352 C329 0.950 . S
H353 C331 0.950 . S
C354 C355 1.349 1_655 S
C354 C356 1.327 . S
C354 H379 0.950 . S
C355 C354 1.349 1_455 S
C355 C371 1.349 . S
C356 C354 1.327 . S
C356 C375 1.429 1_655 S
C356 H380 0.950 . S
C357 C374 1.574 . S
C357 C376 1.368 . S
C357 H381 0.949 . S
H358 C362 0.949 . S
C359 C360 1.349 . S
C359 C361 1.327 . S
C359 H382 0.950 . S
C360 C359 1.349 . S
C360 C372 1.349 . S
C361 C359 1.327 . S
C361 C377 1.429 . S
C361 H383 0.950 . S
C362 H358 0.949 . S
C362 C370 1.574 . S
C362 C378 1.368 1_655 S
H363 C371 0.950 . S
H364 C369 0.950 . S
H365 C370 0.949 . S
H366 C372 0.950 1_655 S
H367 C373 0.950 1_655 S
H368 C374 0.949 . S
C369 H364 0.950 . S
C369 C371 1.327 . S
C369 C375 1.429 . S
C370 C362 1.574 . S
C370 H365 0.949 . S
C370 C376 1.368 1_655 S
C371 C355 1.349 . S
C371 H363 0.950 . S
C371 C369 1.327 . S
C372 C360 1.349 . S
C372 H366 0.950 1_455 S
C372 C373 1.327 . S
C373 H367 0.950 1_455 S
C373 C372 1.327 . S
C373 C377 1.428 . S
C374 C357 1.574 . S
C374 H368 0.949 . S
C374 C378 1.368 . S
C375 C356 1.429 1_455 S
C375 C369 1.429 . S
C375 C376 1.523 . S
C376 C357 1.368 . S
C376 C370 1.368 1_455 S
C376 C375 1.523 . S
C377 C361 1.429 . S
C377 C373 1.428 . S
C377 C378 1.523 . S
C378 C362 1.368 1_455 S
C378 C374 1.368 . S
C378 C377 1.523 . S
H379 C354 0.950 . S
H380 C356 0.950 . S
H381 C357 0.949 . S
H382 C359 0.950 . S
H383 C361 0.950 . S
C384 C385 1.349 . S
C384 C386 1.327 . S
C384 H409 0.950 . S
C385 C384 1.349 . S
C385 C401 1.349 . S
C386 C384 1.327 . S
C386 C405 1.429 . S
C386 H410 0.950 . S
C387 C404 1.574 . S
C387 C406 1.368 . S
C387 H411 0.949 . S
H388 C392 0.949 . S
C389 C390 1.349 . S
C389 C391 1.327 . S
C389 H412 0.950 . S
C390 C389 1.349 . S
C390 C402 1.349 . S
C391 C389 1.327 . S
C391 C407 1.429 . S
C391 H413 0.950 . S
C392 H388 0.949 . S
C392 C400 1.574 . S
C392 C408 1.368 . S
H393 C401 0.950 . S
H394 C399 0.950 . S
H395 C400 0.949 . S
H396 C402 0.950 . S
H397 C403 0.950 . S
H398 C404 0.949 . S
C399 H394 0.950 . S
C399 C401 1.327 . S
C399 C405 1.429 . S
C400 C392 1.574 . S
C400 H395 0.949 . S
C400 C406 1.368 . S
C401 C385 1.349 . S
C401 H393 0.950 . S
C401 C399 1.327 . S
C402 C390 1.349 . S
C402 H396 0.950 . S
C402 C403 1.327 . S
C403 H397 0.950 . S
C403 C402 1.327 . S
C403 C407 1.429 . S
C404 C387 1.574 . S
C404 H398 0.949 . S
C404 C408 1.368 . S
C405 C386 1.429 . S
C405 C399 1.429 . S
C405 C406 1.523 . S
C406 C387 1.368 . S
C406 C400 1.368 . S
C406 C405 1.523 . S
C407 C391 1.429 . S
C407 C403 1.429 . S
C407 C408 1.523 . S
C408 C392 1.368 . S
C408 C404 1.368 . S
C408 C407 1.523 . S
H409 C384 0.950 . S
H410 C386 0.950 . S
H411 C387 0.949 . S
H412 C389 0.950 . S
H413 C391 0.950 . S
C414 C415 1.349 . S
C414 C416 1.327 . S
C414 H439 0.950 . S
C415 C414 1.349 . S
C415 C431 1.349 . S
C416 C414 1.327 . S
C416 C435 1.429 . S
C416 H440 0.950 . S
C417 C434 1.574 . S
C417 C436 1.368 . S
C417 H441 0.949 . S
H418 C422 0.949 . S
C419 C420 1.349 . S
C419 C421 1.327 . S
C419 H442 0.950 . S
C420 C419 1.349 . S
C420 C432 1.349 . S
C421 C419 1.327 . S
C421 C437 1.429 . S
C421 H443 0.950 . S
C422 H418 0.949 . S
C422 C430 1.574 . S
C422 C438 1.368 . S
H423 C431 0.950 . S
H424 C429 0.950 . S
H425 C430 0.949 . S
H426 C432 0.950 . S
H427 C433 0.950 . S
H428 C434 0.949 . S
C429 H424 0.950 . S
C429 C431 1.327 . S
C429 C435 1.429 . S
C430 C422 1.574 . S
C430 H425 0.949 . S
C430 C436 1.368 . S
C431 C415 1.349 . S
C431 H423 0.950 . S
C431 C429 1.327 . S
C432 C420 1.349 . S
C432 H426 0.950 . S
C432 C433 1.327 . S
C433 H427 0.950 . S
C433 C432 1.327 . S
C433 C437 1.429 . S
C434 C417 1.574 . S
C434 H428 0.949 . S
C434 C438 1.368 . S
C435 C416 1.429 . S
C435 C429 1.429 . S
C435 C436 1.523 . S
C436 C417 1.368 . S
C436 C430 1.368 . S
C436 C435 1.523 . S
C437 C421 1.429 . S
C437 C433 1.429 . S
C437 C438 1.523 . S
C438 C422 1.368 . S
C438 C434 1.368 . S
C438 C437 1.523 . S
H439 C414 0.950 . S
H440 C416 0.950 . S
H441 C417 0.949 . S
H442 C419 0.950 . S
H443 C421 0.950 . S
C444 C445 1.349 . S
C444 C446 1.327 . S
C444 H469 0.950 . S
C445 C444 1.349 . S
C445 C461 1.349 . S
C446 C444 1.327 . S
C446 C465 1.429 . S
C446 H470 0.950 . S
C447 C464 1.574 . S
C447 C466 1.368 . S
C447 H471 0.949 . S
H448 C452 0.949 . S
C449 C450 1.349 . S
C449 C451 1.327 . S
C449 H472 0.950 . S
C450 C449 1.349 . S
C450 C462 1.349 . S
C451 C449 1.327 . S
C451 C467 1.429 . S
C451 H473 0.950 . S
C452 H448 0.949 . S
C452 C460 1.574 . S
C452 C468 1.368 . S
H453 C461 0.950 . S
H454 C459 0.950 . S
H455 C460 0.949 . S
H456 C462 0.950 . S
H457 C463 0.950 . S
H458 C464 0.949 . S
C459 H454 0.950 . S
C459 C461 1.327 . S
C459 C465 1.429 . S
C460 C452 1.574 . S
C460 H455 0.949 . S
C460 C466 1.368 . S
C461 C445 1.349 . S
C461 H453 0.950 . S
C461 C459 1.327 . S
C462 C450 1.349 . S
C462 H456 0.950 . S
C462 C463 1.327 . S
C463 H457 0.950 . S
C463 C462 1.327 . S
C463 C467 1.429 . S
C464 C447 1.574 . S
C464 H458 0.949 . S
C464 C468 1.368 . S
C465 C446 1.429 . S
C465 C459 1.429 . S
C465 C466 1.523 . S
C466 C447 1.368 . S
C466 C460 1.368 . S
C466 C465 1.523 . S
C467 C451 1.429 . S
C467 C463 1.429 . S
C467 C468 1.523 . S
C468 C452 1.368 . S
C468 C464 1.368 . S
C468 C467 1.523 . S
H469 C444 0.950 . S
H470 C446 0.950 . S
H471 C447 0.949 . S
H472 C449 0.950 . S
H473 C451 0.950 . S
C474 C475 1.349 . S
C474 C476 1.327 . S
C474 H499 0.950 . S
C475 C474 1.349 . S
C475 C491 1.349 . S
C476 C474 1.327 . S
C476 C495 1.429 . S
C476 H500 0.950 . S
C477 C494 1.574 . S
C477 C496 1.368 . S
C477 H501 0.949 . S
H478 C482 0.949 . S
C479 C480 1.349 . S
C479 C481 1.327 . S
C479 H502 0.950 . S
C480 C479 1.349 . S
C480 C492 1.349 . S
C481 C479 1.327 . S
C481 C497 1.429 . S
C481 H503 0.950 . S
C482 H478 0.949 . S
C482 C490 1.574 . S
C482 C498 1.368 . S
H483 C491 0.950 . S
H484 C489 0.950 . S
H485 C490 0.949 . S
H486 C492 0.950 . S
H487 C493 0.950 . S
H488 C494 0.949 . S
C489 H484 0.950 . S
C489 C491 1.327 . S
C489 C495 1.429 . S
C490 C482 1.574 . S
C490 H485 0.949 . S
C490 C496 1.368 . S
C491 C475 1.349 . S
C491 H483 0.950 . S
C491 C489 1.327 . S
C492 C480 1.349 . S
C492 H486 0.950 . S
C492 C493 1.327 . S
C493 H487 0.950 . S
C493 C492 1.327 . S
C493 C497 1.429 . S
C494 C477 1.574 . S
C494 H488 0.949 . S
C494 C498 1.368 . S
C495 C476 1.429 . S
C495 C489 1.429 . S
C495 C496 1.523 . S
C496 C477 1.368 . S
C496 C490 1.368 . S
C496 C495 1.523 . S
C497 C481 1.429 . S
C497 C493 1.429 . S
C497 C498 1.523 . S
C498 C482 1.368 . S
C498 C494 1.368 . S
C498 C497 1.523 . S
H499 C474 0.950 . S
H500 C476 0.950 . S
H501 C477 0.949 . S
H502 C479 0.950 . S
H503 C481 0.950 . S
C504 C505 1.349 . S
C504 C506 1.327 . S
C504 H529 0.950 . S
C505 C504 1.349 . S
C505 C521 1.349 . S
C506 C504 1.327 . S
C506 C525 1.429 . S
C506 H530 0.950 . S
C507 C524 1.574 . S
C507 C526 1.368 . S
C507 H531 0.949 . S
H508 C512 0.949 . S
C509 C510 1.349 . S
C509 C511 1.327 . S
C509 H532 0.950 . S
C510 C509 1.349 . S
C510 C522 1.349 . S
C511 C509 1.327 . S
C511 C527 1.429 . S
C511 H533 0.950 . S
C512 H508 0.949 . S
C512 C520 1.574 . S
C512 C528 1.368 . S
H513 C521 0.950 . S
H514 C519 0.950 . S
H515 C520 0.949 . S
H516 C522 0.950 . S
H517 C523 0.950 . S
H518 C524 0.949 . S
C519 H514 0.950 . S
C519 C521 1.327 . S
C519 C525 1.429 . S
C520 C512 1.574 . S
C520 H515 0.949 . S
C520 C526 1.368 . S
C521 C505 1.349 . S
C521 H513 0.950 . S
C521 C519 1.327 . S
C522 C510 1.349 . S
C522 H516 0.950 . S
C522 C523 1.327 . S
C523 H517 0.950 . S
C523 C522 1.327 . S
C523 C527 1.429 . S
C524 C507 1.574 . S
C524 H518 0.949 . S
C524 C528 1.368 . S
C525 C506 1.429 . S
C525 C519 1.429 . S
C525 C526 1.523 . S
C526 C507 1.368 . S
C526 C520 1.368 . S
C526 C525 1.523 . S
C527 C511 1.429 . S
C527 C523 1.429 . S
C527 C528 1.523 . S
C528 C512 1.368 . S
C528 C524 1.368 . S
C528 C527 1.523 . S
H529 C504 0.950 . S
H530 C506 0.950 . S
H531 C507 0.949 . S
H532 C509 0.950 . S
H533 C511 0.950 . S
C534 C535 1.349 . S
C534 C536 1.327 . S
C534 H559 0.950 . S
C535 C534 1.349 . S
C535 C551 1.349 . S
C536 C534 1.327 . S
C536 C555 1.429 . S
C536 H560 0.950 . S
C537 C554 1.574 . S
C537 C556 1.368 . S
C537 H561 0.949 . S
H538 C542 0.949 . S
C539 C540 1.349 . S
C539 C541 1.327 . S
C539 H562 0.950 . S
C540 C539 1.349 . S
C540 C552 1.349 . S
C541 C539 1.327 . S
C541 C557 1.429 . S
C541 H563 0.950 . S
C542 H538 0.949 . S
C542 C550 1.574 . S
C542 C558 1.368 . S
H543 C551 0.950 . S
H544 C549 0.950 . S
H545 C550 0.949 . S
H546 C552 0.950 . S
H547 C553 0.950 . S
H548 C554 0.949 . S
C549 H544 0.950 . S
C549 C551 1.327 . S
C549 C555 1.429 . S
C550 C542 1.574 . S
C550 H545 0.949 . S
C550 C556 1.368 . S
C551 C535 1.349 . S
C551 H543 0.950 . S
C551 C549 1.327 . S
C552 C540 1.349 . S
C552 H546 0.950 . S
C552 C553 1.327 . S
C553 H547 0.950 . S
C553 C552 1.327 . S
C553 C557 1.429 . S
C554 C537 1.574 . S
C554 H548 0.949 . S
C554 C558 1.368 . S
C555 C536 1.429 . S
C555 C549 1.429 . S
C555 C556 1.523 . S
C556 C537 1.368 . S
C556 C550 1.368 . S
C556 C555 1.523 . S
C557 C541 1.429 . S
C557 C553 1.429 . S
C557 C558 1.523 . S
C558 C542 1.368 . S
C558 C554 1.368 . S
C558 C557 1.523 . S
H559 C534 0.950 . S
H560 C536 0.950 . S
H561 C537 0.949 . S
H562 C539 0.950 . S
H563 C541 0.950 . S
C564 C565 1.349 . S
C564 C566 1.327 . S
C564 H589 0.950 . S
C565 C564 1.349 . S
C565 C581 1.349 . S
C566 C564 1.327 . S
C566 C585 1.429 . S
C566 H590 0.950 . S
C567 C584 1.574 . S
C567 C586 1.368 . S
C567 H591 0.949 . S
H568 C572 0.949 . S
C569 C570 1.349 . S
C569 C571 1.327 . S
C569 H592 0.950 . S
C570 C569 1.349 . S
C570 C582 1.349 . S
C571 C569 1.327 . S
C571 C587 1.429 . S
C571 H593 0.950 . S
C572 H568 0.949 . S
C572 C580 1.574 . S
C572 C588 1.368 . S
H573 C581 0.950 . S
H574 C579 0.950 . S
H575 C580 0.949 . S
H576 C582 0.950 . S
H577 C583 0.950 . S
H578 C584 0.949 . S
C579 H574 0.950 . S
C579 C581 1.327 . S
C579 C585 1.429 . S
C580 C572 1.574 . S
C580 H575 0.949 . S
C580 C586 1.368 . S
C581 C565 1.349 . S
C581 H573 0.950 . S
C581 C579 1.327 . S
C582 C570 1.349 . S
C582 H576 0.950 . S
C582 C583 1.327 . S
C583 H577 0.950 . S
C583 C582 1.327 . S
C583 C587 1.429 . S
C584 C567 1.574 . S
C584 H578 0.949 . S
C584 C588 1.368 . S
C585 C566 1.429 . S
C585 C579 1.429 . S
C585 C586 1.523 . S
C586 C567 1.368 . S
C586 C580 1.368 . S
C586 C585 1.523 . S
C587 C571 1.429 . S
C587 C583 1.429 . S
C587 C588 1.523 . S
C588 C572 1.368 . S
C588 C584 1.368 . S
C588 C587 1.523 . S
H589 C564 0.950 . S
H590 C566 0.950 . S
H591 C567 0.949 . S
H592 C569 0.950 . S
H593 C571 0.950 . S
C594 C595 1.349 . S
C594 C596 1.327 . S
C594 H619 0.950 . S
C595 C594 1.349 . S
C595 C611 1.349 . S
C596 C594 1.327 . S
C596 C615 1.429 . S
C596 H620 0.950 . S
C597 C614 1.574 . S
C597 C616 1.368 . S
C597 H621 0.949 . S
H598 C602 0.949 . S
C599 C600 1.349 . S
C599 C601 1.327 . S
C599 H622 0.950 . S
C600 C599 1.349 . S
C600 C612 1.349 . S
C601 C599 1.327 . S
C601 C617 1.429 . S
C601 H623 0.950 . S
C602 H598 0.949 . S
C602 C610 1.574 . S
C602 C618 1.368 . S
H603 C611 0.950 . S
H604 C609 0.950 . S
H605 C610 0.949 . S
H606 C612 0.950 . S
H607 C613 0.950 . S
H608 C614 0.949 . S
C609 H604 0.950 . S
C609 C611 1.327 . S
C609 C615 1.429 . S
C610 C602 1.574 . S
C610 H605 0.949 . S
C610 C616 1.368 . S
C611 C595 1.349 . S
C611 H603 0.950 . S
C611 C609 1.327 . S
C612 C600 1.349 . S
C612 H606 0.950 . S
C612 C613 1.327 . S
C613 H607 0.950 . S
C613 C612 1.327 . S
C613 C617 1.429 . S
C614 C597 1.574 . S
C614 H608 0.949 . S
C614 C618 1.368 . S
C615 C596 1.429 . S
C615 C609 1.429 . S
C615 C616 1.523 . S
C616 C597 1.368 . S
C616 C610 1.368 . S
C616 C615 1.523 . S
C617 C601 1.429 . S
C617 C613 1.429 . S
C617 C618 1.523 . S
C618 C602 1.368 . S
C618 C614 1.368 . S
C618 C617 1.523 . S
H619 C594 0.950 . S
H620 C596 0.950 . S
H621 C597 0.949 . S
H622 C599 0.950 . S
H623 C601 0.950 . S
C624 C625 1.349 . S
C624 C626 1.327 . S
C624 H649 0.950 . S
C625 C624 1.349 . S
C625 C641 1.349 1_545 S
C626 C624 1.327 . S
C626 C645 1.429 . S
C626 H650 0.950 . S
C627 C644 1.574 1_455 S
C627 C646 1.368 1_565 S
C627 H651 0.949 . S
H628 C632 0.949 . S
C629 C630 1.349 . S
C629 C631 1.327 . S
C629 H652 0.950 1_545 S
C630 C629 1.349 . S
C630 C642 1.349 . S
C631 C629 1.327 . S
C631 C647 1.429 . S
C631 H653 0.950 1_545 S
C632 H628 0.949 . S
C632 C640 1.574 1_655 S
C632 C648 1.368 . S
H633 C641 0.950 . S
H634 C639 0.950 . S
H635 C640 0.949 . S
H636 C642 0.950 . S
H637 C643 0.950 . S
H638 C644 0.949 . S
C639 H634 0.950 . S
C639 C641 1.327 . S
C639 C645 1.429 1_565 S
C640 C632 1.574 1_455 S
C640 H635 0.949 . S
C640 C646 1.368 . S
C641 C625 1.349 1_565 S
C641 H633 0.950 . S
C641 C639 1.327 . S
C642 C630 1.349 . S
C642 H636 0.950 . S
C642 C643 1.327 . S
C643 H637 0.950 . S
C643 C642 1.327 . S
C643 C647 1.429 . S
C644 C627 1.574 1_655 S
C644 H638 0.949 . S
C644 C648 1.368 1_565 S
C645 C626 1.429 . S
C645 C639 1.429 1_545 S
C645 C646 1.523 . S
C646 C627 1.368 1_545 S
C646 C640 1.368 . S
C646 C645 1.523 . S
C647 C631 1.429 . S
C647 C643 1.429 . S
C647 C648 1.523 . S
C648 C632 1.368 . S
C648 C644 1.368 1_545 S
C648 C647 1.523 . S
H649 C624 0.950 . S
H650 C626 0.950 . S
H651 C627 0.949 . S
H652 C629 0.950 1_565 S
H653 C631 0.950 1_565 S
C654 C655 1.349 . S
C654 C656 1.327 . S
C654 H679 0.950 . S
C655 C654 1.349 . S
C655 C671 1.349 . S
C656 C654 1.327 . S
C656 C675 1.429 . S
C656 H680 0.950 . S
C657 C674 1.574 1_545 S
C657 C676 1.368 1_655 S
C657 H681 0.949 . S
H658 C662 0.949 . S
C659 C660 1.349 1_655 S
C659 C661 1.327 . S
C659 H682 0.950 . S
C660 C659 1.349 1_455 S
C660 C672 1.349 . S
C661 C659 1.327 . S
C661 C677 1.429 1_655 S
C661 H683 0.950 . S
C662 H658 0.949 . S
C662 C670 1.574 1_565 S
C662 C678 1.368 . S
H663 C671 0.950 1_655 S
H664 C669 0.950 1_655 S
H665 C670 0.949 . S
H666 C672 0.950 . S
H667 C673 0.950 . S
H668 C674 0.949 . S
C669 H664 0.950 1_455 S
C669 C671 1.327 . S
C669 C675 1.429 . S
C670 C662 1.574 1_545 S
C670 H665 0.949 . S
C670 C676 1.368 . S
C671 C655 1.349 . S
C671 H663 0.950 1_455 S
C671 C669 1.327 . S
C672 C660 1.349 . S
C672 H666 0.950 . S
C672 C673 1.327 . S
C673 H667 0.950 . S
C673 C672 1.327 . S
C673 C677 1.429 . S
C674 C657 1.574 1_565 S
C674 H668 0.949 . S
C674 C678 1.368 1_655 S
C675 C656 1.429 . S
C675 C669 1.429 . S
C675 C676 1.523 . S
C676 C657 1.368 1_455 S
C676 C670 1.368 . S
C676 C675 1.523 . S
C677 C661 1.429 1_455 S
C677 C673 1.429 . S
C677 C678 1.523 . S
C678 C662 1.368 . S
C678 C674 1.368 1_455 S
C678 C677 1.523 . S
H679 C654 0.950 . S
H680 C656 0.950 . S
H681 C657 0.949 . S
H682 C659 0.950 . S
H683 C661 0.950 . S
C684 C685 1.349 . S
C684 C686 1.327 . S
C684 H709 0.950 . S
C685 C684 1.349 . S
C685 C701 1.349 1_545 S
C686 C684 1.327 . S
C686 C705 1.429 . S
C686 H710 0.950 . S
C687 C704 1.574 1_655 S
C687 C706 1.368 1_565 S
C687 H711 0.949 . S
H688 C692 0.949 . S
C689 C690 1.349 . S
C689 C691 1.327 . S
C689 H712 0.950 1_545 S
C690 C689 1.349 . S
C690 C702 1.349 . S
C691 C689 1.327 . S
C691 C707 1.429 . S
C691 H713 0.950 1_545 S
C692 H688 0.949 . S
C692 C700 1.574 1_455 S
C692 C708 1.368 . S
H693 C701 0.950 . S
H694 C699 0.950 . S
H695 C700 0.949 . S
H696 C702 0.950 . S
H697 C703 0.950 . S
H698 C704 0.949 . S
C699 H694 0.950 . S
C699 C701 1.327 . S
C699 C705 1.429 1_565 S
C700 C692 1.574 1_655 S
C700 H695 0.949 . S
C700 C706 1.368 . S
C701 C685 1.349 1_565 S
C701 H693 0.950 . S
C701 C699 1.327 . S
C702 C690 1.349 . S
C702 H696 0.950 . S
C702 C703 1.327 . S
C703 H697 0.950 . S
C703 C702 1.327 . S
C703 C707 1.429 . S
C704 C687 1.574 1_455 S
C704 H698 0.949 . S
C704 C708 1.368 1_565 S
C705 C686 1.429 . S
C705 C699 1.429 1_545 S
C705 C706 1.523 . S
C706 C687 1.368 1_545 S
C706 C700 1.368 . S
C706 C705 1.523 . S
C707 C691 1.429 . S
C707 C703 1.429 . S
C707 C708 1.523 . S
C708 C692 1.368 . S
C708 C704 1.368 1_545 S
C708 C707 1.523 . S
H709 C684 0.950 . S
H710 C686 0.950 . S
H711 C687 0.949 . S
H712 C689 0.950 1_565 S
H713 C691 0.950 1_565 S
C714 C715 1.349 . S
C714 C716 1.327 . S
C714 H739 0.950 1_455 S
C715 C714 1.349 . S
C715 C731 1.349 . S
C716 C714 1.327 . S
C716 C735 1.429 . S
C716 H740 0.950 1_455 S
C717 C734 1.574 1_565 S
C717 C736 1.368 . S
C717 H741 0.949 . S
H718 C722 0.949 . S
C719 C720 1.349 . S
C719 C721 1.327 . S
C719 H742 0.950 . S
C720 C719 1.349 . S
C720 C732 1.349 1_455 S
C721 C719 1.327 . S
C721 C737 1.429 . S
C721 H743 0.950 . S
C722 H718 0.949 . S
C722 C730 1.574 1_545 S
C722 C738 1.368 1_655 S
H723 C731 0.950 . S
H724 C729 0.950 . S
H725 C730 0.949 . S
H726 C732 0.950 . S
H727 C733 0.950 . S
H728 C734 0.949 . S
C729 H724 0.950 . S
C729 C731 1.327 . S
C729 C735 1.429 . S
C730 C722 1.574 1_565 S
C730 H725 0.949 . S
C730 C736 1.368 1_655 S
C731 C715 1.349 . S
C731 H723 0.950 . S
C731 C729 1.327 . S
C732 C720 1.349 1_655 S
C732 H726 0.950 . S
C732 C733 1.327 . S
C733 H727 0.950 . S
C733 C732 1.327 . S
C733 C737 1.429 1_655 S
C734 C717 1.574 1_545 S
C734 H728 0.949 . S
C734 C738 1.368 . S
C735 C716 1.429 . S
C735 C729 1.429 . S
C735 C736 1.523 . S
C736 C717 1.368 . S
C736 C730 1.368 1_455 S
C736 C735 1.523 . S
C737 C721 1.429 . S
C737 C733 1.429 1_455 S
C737 C738 1.523 . S
C738 C722 1.368 1_455 S
C738 C734 1.368 . S
C738 C737 1.523 . S
H739 C714 0.950 1_655 S
H740 C716 0.950 1_655 S
H741 C717 0.949 . S
H742 C719 0.950 . S
H743 C721 0.950 . S
C744 C745 1.349 . S
C744 C746 1.327 . S
C744 H769 0.950 . S
C745 C744 1.349 . S
C745 C761 1.349 1_545 S
C746 C744 1.327 . S
C746 C765 1.429 . S
C746 H770 0.950 . S
C747 C764 1.574 . S
C747 C766 1.368 1_565 S
C747 H771 0.949 . S
H748 C752 0.949 . S
C749 C750 1.366 . S
C749 C751 1.326 1_545 S
C749 H772 0.935 1_545 S
C750 C749 1.366 . S
C750 C762 1.349 . S
C751 C749 1.326 1_565 S
C751 C767 1.420 1_565 S
C751 H773 0.960 . S
C752 H748 0.949 . S
C752 C760 1.574 . S
C752 C768 1.368 . S
H753 C761 0.950 . S
H754 C759 0.950 . S
H755 C760 0.949 . S
H756 C762 0.950 . S
H757 C763 0.950 . S
H758 C764 0.949 . S
C759 H754 0.950 . S
C759 C761 1.327 . S
C759 C765 1.429 1_565 S
C760 C752 1.574 . S
C760 H755 0.949 . S
C760 C766 1.368 . S
C761 C745 1.349 1_565 S
C761 H753 0.950 . S
C761 C759 1.327 . S
C762 C750 1.349 . S
C762 H756 0.950 . S
C762 C763 1.327 . S
C763 H757 0.950 . S
C763 C762 1.327 . S
C763 C767 1.429 . S
C764 C747 1.574 . S
C764 H758 0.949 . S
C764 C768 1.368 1_565 S
C765 C746 1.429 . S
C765 C759 1.429 1_545 S
C765 C766 1.523 . S
C766 C747 1.368 1_545 S
C766 C760 1.368 . S
C766 C765 1.523 . S
C767 C751 1.420 1_545 S
C767 C763 1.429 . S
C767 C768 1.523 . S
C768 C752 1.368 . S
C768 C764 1.368 1_545 S
C768 C767 1.523 . S
H769 C744 0.950 . S
H770 C746 0.950 . S
H771 C747 0.949 . S
H772 C749 0.935 1_565 S
H773 C751 0.960 . S
C774 C775 1.349 1_655 S
C774 C776 1.327 . S
C774 H799 0.950 . S
C775 C774 1.349 1_455 S
C775 C791 1.349 . S
C776 C774 1.327 . S
C776 C795 1.429 1_655 S
C776 H800 0.950 . S
C777 C794 1.574 . S
C777 C796 1.368 . S
C777 H801 0.949 . S
H778 C782 0.949 . S
C779 C780 1.349 . S
C779 C781 1.327 . S
C779 H802 0.950 . S
C780 C779 1.349 . S
C780 C792 1.364 . S
C781 C779 1.327 . S
C781 C797 1.429 . S
C781 H803 0.950 . S
C782 H778 0.949 . S
C782 C790 1.574 . S
C782 C798 1.368 1_655 S
H783 C791 0.950 . S
H784 C789 0.950 . S
H785 C790 0.949 . S
H786 C792 0.937 1_655 S
H787 C793 0.962 . S
H788 C794 0.949 . S
C789 H784 0.950 . S
C789 C791 1.327 . S
C789 C795 1.429 . S
C790 C782 1.574 . S
C790 H785 0.949 . S
C790 C796 1.368 1_655 S
C791 C775 1.349 . S
C791 H783 0.950 . S
C791 C789 1.327 . S
C792 C780 1.364 . S
C792 H786 0.937 1_455 S
C792 C793 1.326 1_455 S
C793 H787 0.962 . S
C793 C792 1.326 1_655 S
C793 C797 1.418 1_655 S
C794 C777 1.574 . S
C794 H788 0.949 . S
C794 C798 1.368 . S
C795 C776 1.429 1_455 S
C795 C789 1.429 . S
C795 C796 1.523 . S
C796 C777 1.368 . S
C796 C790 1.368 1_455 S
C796 C795 1.523 . S
C797 C781 1.429 . S
C797 C793 1.418 1_455 S
C797 C798 1.523 . S
C798 C782 1.368 1_455 S
C798 C794 1.368 . S
C798 C797 1.523 . S
H799 C774 0.950 . S
H800 C776 0.950 . S
H801 C777 0.949 . S
H802 C779 0.950 . S
H803 C781 0.950 . S
C804 C805 1.349 . S
C804 C806 1.327 . S
C804 H829 0.950 . S
C805 C804 1.349 . S
C805 C821 1.364 . S
C806 C804 1.327 . S
C806 C825 1.429 . S
C806 H830 0.950 . S
C807 C824 1.574 . S
C807 C826 1.368 1_565 S
C807 H831 0.949 . S
H808 C812 0.949 . S
C809 C810 1.349 1_565 S
C809 C811 1.327 . S
C809 H832 0.950 . S
C810 C809 1.349 1_545 S
C810 C822 1.349 . S
C811 C809 1.327 . S
C811 C827 1.429 1_565 S
C811 H833 0.950 . S
C812 H808 0.949 . S
C812 C820 1.574 . S
C812 C828 1.368 . S
H813 C821 0.936 1_565 S
H814 C819 0.961 . S
H815 C820 0.949 . S
H816 C822 0.950 . S
H817 C823 0.950 . S
H818 C824 0.949 . S
C819 H814 0.961 . S
C819 C821 1.326 1_565 S
C819 C825 1.419 1_565 S
C820 C812 1.574 . S
C820 H815 0.949 . S
C820 C826 1.368 . S
C821 C805 1.364 . S
C821 H813 0.936 1_545 S
C821 C819 1.326 1_545 S
C822 C810 1.349 . S
C822 H816 0.950 . S
C822 C823 1.327 . S
C823 H817 0.950 . S
C823 C822 1.327 . S
C823 C827 1.429 . S
C824 C807 1.574 . S
C824 H818 0.949 . S
C824 C828 1.368 1_565 S
C825 C806 1.429 . S
C825 C819 1.419 1_545 S
C825 C826 1.523 . S
C826 C807 1.368 1_545 S
C826 C820 1.368 . S
C826 C825 1.523 . S
C827 C811 1.429 1_545 S
C827 C823 1.429 . S
C827 C828 1.523 . S
C828 C812 1.368 . S
C828 C824 1.368 1_545 S
C828 C827 1.523 . S
H829 C804 0.950 . S
H830 C806 0.950 . S
H831 C807 0.949 . S
H832 C809 0.950 . S
H833 C811 0.950 . S
C834 C835 1.349 1_655 S
C834 C836 1.327 . S
C834 H859 0.950 . S
C835 C834 1.349 1_455 S
C835 C851 1.349 . S
C836 C834 1.327 . S
C836 C855 1.429 1_655 S
C836 H860 0.950 . S
C837 C854 1.574 . S
C837 C856 1.368 . S
C837 H861 0.949 . S
H838 C842 0.949 . S
C839 C840 1.349 . S
C839 C841 1.327 . S
C839 H862 0.950 . S
C840 C839 1.349 . S
C840 C852 1.366 . S
C841 C839 1.327 . S
C841 C857 1.429 . S
C841 H863 0.950 . S
C842 H838 0.949 . S
C842 C850 1.574 . S
C842 C858 1.368 1_655 S
H843 C851 0.950 . S
H844 C849 0.950 . S
H845 C850 0.949 . S
H846 C852 0.934 1_655 S
H847 C853 0.960 . S
H848 C854 0.949 . S
C849 H844 0.950 . S
C849 C851 1.327 . S
C849 C855 1.429 . S
C850 C842 1.574 . S
C850 H845 0.949 . S
C850 C856 1.368 1_655 S
C851 C835 1.349 . S
C851 H843 0.950 . S
C851 C849 1.327 . S
C852 C840 1.366 . S
C852 H846 0.934 1_455 S
C852 C853 1.326 1_455 S
C853 H847 0.960 . S
C853 C852 1.326 1_655 S
C853 C857 1.420 1_655 S
C854 C837 1.574 . S
C854 H848 0.949 . S
C854 C858 1.368 . S
C855 C836 1.429 1_455 S
C855 C849 1.429 . S
C855 C856 1.523 . S
C856 C837 1.368 . S
C856 C850 1.368 1_455 S
C856 C855 1.523 . S
C857 C841 1.429 . S
C857 C853 1.420 1_455 S
C857 C858 1.523 . S
C858 C842 1.368 1_455 S
C858 C854 1.368 . S
C858 C857 1.523 . S
H859 C834 0.950 . S
H860 C836 0.950 . S
H861 C837 0.949 . S
H862 C839 0.950 . S
H863 C841 0.950 . S
C265 C18 1.710 . S
C270 C150 1.710 . S
C295 C183 1.710 . S
C300 C51 1.710 . S
C325 C84 1.710 . S
C330 C216 1.710 . S
C355 C249 1.710 . S
C360 C117 1.710 . S
C385 C186 0.563 . S
C390 C21 0.563 . S
C415 C219 0.563 . S
C420 C54 0.563 . S
C445 C87 0.562 . S
C450 C252 0.562 . S
C475 C153 0.563 . S
C480 C120 0.563 . S
C505 C106 0.915 . S
C510 C205 0.915 . S
C535 C7 0.914 . S
C540 C238 0.914 . S
C565 C40 0.915 . S
C570 C139 0.915 . S
C595 C73 0.914 . S
C600 C172 0.914 . S
C625 N2 0.457 . S
C630 N68 0.457 . S
C655 N35 0.457 . S
C660 N101 0.457 . S
C685 N200 0.457 . S
C690 N134 0.457 . S
C715 N233 0.457 . S
C720 N167 0.457 . S
C745 N13 0.985 . S
C750 N79 0.985 . S
C775 N112 0.985 . S
C780 N46 0.985 . S
C805 N145 0.985 . S
C810 N211 0.985 . S
C835 N178 0.985 . S
C840 N244 0.985 . S
