# Generated by pormake.
# Topology rkf, (6)-cn, num edge types: 1
# Building blocks:
#     Node 0, Type 0, BuildingBlock: BETFAJ_clean_sbu_0, # of connection points: 6
#     Node 1, Type 0, BuildingBlock: BETFAJ_clean_sbu_0, # of connection points: 6
#     Node 2, Type 0, BuildingBlock: BETFAJ_clean_sbu_0, # of connection points: 6
#     Node 3, Type 0, BuildingBlock: BETFAJ_clean_sbu_0, # of connection points: 6
#     Node 4, Type 0, BuildingBlock: BETFAJ_clean_sbu_0, # of connection points: 6
#     Node 5, Type 0, BuildingBlock: BETFAJ_clean_sbu_0, # of connection points: 6
#     Edge 6, Type (0, 0), BuildingBlock: EZIPEK_clean_linker_0, # of connection points: 2
#     Edge 7, Type (0, 0), BuildingBlock: EZIPEK_clean_linker_0, # of connection points: 2
#     Edge 8, Type (0, 0), BuildingBlock: EZIPEK_clean_linker_0, # of connection points: 2
#     Edge 9, Type (0, 0), BuildingBlock: EZIPEK_clean_linker_0, # of connection points: 2
#     Edge 10, Type (0, 0), BuildingBlock: EZIPEK_clean_linker_0, # of connection points: 2
#     Edge 11, Type (0, 0), BuildingBlock: EZIPEK_clean_linker_0, # of connection points: 2
#     Edge 12, Type (0, 0), BuildingBlock: EZIPEK_clean_linker_0, # of connection points: 2
#     Edge 13, Type (0, 0), BuildingBlock: EZIPEK_clean_linker_0, # of connection points: 2
#     Edge 14, Type (0, 0), BuildingBlock: EZIPEK_clean_linker_0, # of connection points: 2
#     Edge 15, Type (0, 0), BuildingBlock: EZIPEK_clean_linker_0, # of connection points: 2
#     Edge 16, Type (0, 0), BuildingBlock: EZIPEK_clean_linker_0, # of connection points: 2
#     Edge 17, Type (0, 0), BuildingBlock: EZIPEK_clean_linker_0, # of connection points: 2
#     Edge 18, Type (0, 0), BuildingBlock: EZIPEK_clean_linker_0, # of connection points: 2
#     Edge 19, Type (0, 0), BuildingBlock: EZIPEK_clean_linker_0, # of connection points: 2
#     Edge 20, Type (0, 0), BuildingBlock: EZIPEK_clean_linker_0, # of connection points: 2
#     Edge 21, Type (0, 0), BuildingBlock: EZIPEK_clean_linker_0, # of connection points: 2
#     Edge 22, Type (0, 0), BuildingBlock: EZIPEK_clean_linker_0, # of connection points: 2
#     Edge 23, Type (0, 0), BuildingBlock: EZIPEK_clean_linker_0, # of connection points: 2
# Relax obj value: 1.041
# Max RMSD: 0.248
# Mean RMSD: 0.248
data_MOF--net-rkf--node1-BETFAJ_clean_sbu_0--edge1-EZIPEK_clean_linker_0
_symmetry_space_group_name_H-M    P1
_symmetry_Int_Tables_number       1
_symmetry_cell_setting            triclinic
loop_
_symmetry_equiv_pos_as_xyz
'x, y, z'
_cell_length_a     19.573274
_cell_length_b     19.258432
_cell_length_c     32.344803
_cell_angle_alpha  88.132267
_cell_angle_beta   91.560431
_cell_angle_gamma 119.69697
loop_
_atom_site_label
_atom_site_type_symbol
_atom_site_fract_x
_atom_site_fract_y
_atom_site_fract_z
_atom_type_partial_charge
Sm0 Sm 0.30785 0.02397 0.24182 0.0
Sm1 Sm 0.31996 0.18445 1.20848 0.0
C2 C 0.34107 0.90891 0.26005 0.0
C3 C 0.34924 0.87068 0.2988 0.0
C4 C 0.4237 0.88484 0.3129 0.0
C5 C 0.43299 0.85952 0.35277 0.0
C6 C 0.36817 0.82119 0.37911 0.0
C7 C 0.29299 0.80018 0.36324 0.0
C8 C 0.28354 0.8247 0.32367 0.0
C9 C 0.16989 0.02687 0.24138 0.0
C10 C 0.31327 0.14513 0.31192 0.0
C11 C 0.3202 0.32006 1.19146 0.0
C12 C 0.37289 0.40083 1.17501 0.0
C13 C 0.45061 0.44798 1.18973 0.0
C14 C 0.50053 0.52204 1.17066 0.0
C15 C 0.47344 0.54822 1.13631 0.0
C16 C 0.39494 0.50261 1.12311 0.0
C17 C 0.34503 0.4298 1.14238 0.0
C18 C 0.45428 0.1763 1.20658 0.0
C19 C 0.26443 0.03828 1.14174 0.0
O20 O 0.39523 -0.01644 0.25364 0.0
O21 O 0.27019 0.89543 0.25007 0.0
O22 O 0.22281 0.05804 1.21485 0.0
O23 O 0.18578 -0.01371 0.26932 0.0
O24 O 0.32451 0.08374 0.30548 0.0
O25 O 0.30373 0.18602 0.28058 0.0
O26 O 0.29619 0.26204 1.16518 0.0
O27 O 0.33626 0.30129 1.22822 0.0
O28 O 0.40444 0.15011 0.23461 0.0
O29 O 0.43893 0.21703 1.17902 0.0
O30 O 0.25851 0.10178 1.15175 0.0
O31 O 0.29377 0.00657 1.16932 0.0
H32 H 0.4751 0.91847 0.29383 0.0
H33 H 0.491 0.87318 0.36361 0.0
H34 H 0.24147 0.76833 0.38234 0.0
H35 H 0.22502 0.81089 0.31357 0.0
H36 H 0.4733 0.4268 1.21507 0.0
H37 H 0.56082 0.55709 1.18135 0.0
H38 H 0.37291 0.52182 1.09672 0.0
H39 H 0.28523 0.39468 1.13083 0.0
Sm40 Sm 0.33074 0.25101 0.58432 0.0
Sm41 Sm 0.27488 0.35937 0.54953 0.0
C42 C 0.43034 0.19964 0.60337 0.0
C43 C 0.49561 0.22373 0.63366 0.0
C44 C 0.56451 0.299 0.63114 0.0
C45 C 0.61987 0.32512 0.66363 0.0
C46 C 0.60652 0.27714 0.6995 0.0
C47 C 0.54081 0.19908 0.69989 0.0
C48 C 0.4864 0.17282 0.66742 0.0
C49 C 0.16962 0.17984 0.58074 0.0
C50 C 0.26386 0.32153 0.65128 0.0
C51 C 0.20711 0.44714 0.53265 0.0
C52 C 0.12928 0.44154 0.53043 0.0
C53 C 0.11492 0.4943 0.55287 0.0
C54 C 0.04597 0.49832 0.54566 0.0
C55 C -0.00893 0.44966 0.51584 0.0
C56 C 0.00298 0.39263 0.49609 0.0
C57 C 0.0714 0.38894 0.50304 0.0
C58 C 0.43633 0.43075 0.55535 0.0
C59 C 0.30206 0.25019 0.48165 0.0
O60 O 0.44132 0.25026 0.57281 0.0
O61 O 0.35932 0.16669 0.61866 0.0
O62 O 0.21568 0.22583 0.55319 0.0
O63 O 0.20776 0.1599 0.60782 0.0
O64 O 0.32063 0.30419 0.64605 0.0
O65 O 0.229 0.33307 0.61803 0.0
O66 O 0.23485 0.44319 0.56924 0.0
O67 O 0.22256 0.40945 0.50473 0.0
O68 O 0.38859 0.38481 0.58215 0.0
O69 O 0.39907 0.44568 0.52609 0.0
O70 O 0.27469 0.30021 0.4871 0.0
O71 O 0.32534 0.2231 0.5141 0.0
H72 H 0.57445 0.33902 0.60485 0.0
H73 H 0.67156 0.38346 0.66088 0.0
H74 H 0.52798 0.15936 0.72658 0.0
H75 H 0.4347 0.11404 0.66982 0.0
H76 H 0.15876 0.53515 0.57438 0.0
H77 H 0.03734 0.54155 0.56194 0.0
H78 H -0.03886 0.35361 0.47333 0.0
H79 H 0.0804 0.34758 0.48528 0.0
Sm80 Sm 0.14746 0.35553 0.91601 0.0
Sm81 Sm -0.0122 0.29931 0.87649 0.0
C82 C 0.29824 0.45757 0.93 0.0
C83 C 0.35459 0.52723 0.95352 0.0
C84 C 0.43065 0.5754 0.9382 0.0
C85 C 0.48871 0.63579 0.96233 0.0
C86 C 0.47185 0.64827 1.00252 0.0
C87 C 0.39272 0.60516 1.01558 0.0
C88 C 0.33483 0.54487 0.99143 0.0
C89 C 0.06112 0.1939 0.91378 0.0
C90 C -0.00204 0.27451 0.97937 0.0
C91 C 0.83612 0.22389 0.8566 0.0
C92 C 0.77412 0.13964 0.85176 0.0
C93 C 0.71793 0.09954 0.88289 0.0
C94 C 0.65883 0.01987 0.87809 0.0
C95 C 0.65505 -0.02008 0.84193 0.0
C96 C 0.71142 0.01956 0.81117 0.0
C97 C 0.77036 0.09848 0.81599 0.0
C98 C 0.07767 0.46299 0.88478 0.0
C99 C 0.1262 0.32135 0.81341 0.0
O100 O 0.2557 0.46998 0.90209 0.0
O101 O 0.25933 0.38888 0.94999 0.0
O102 O 0.06188 0.24075 0.88525 0.0
O103 O 0.11965 0.23166 0.93955 0.0
O104 O 0.07537 0.32509 0.97743 0.0
O105 O -0.04458 0.25333 0.94476 0.0
O106 O 0.86258 0.24564 0.89413 0.0
O107 O 0.89198 0.25444 0.82915 0.0
O108 O 0.07064 0.41088 0.91128 0.0
O109 O 0.03173 0.42915 0.85344 0.0
O110 O 0.04909 0.28941 0.81764 0.0
O111 O 0.17405 0.35168 0.84581 0.0
H112 H 0.44612 0.56402 0.90823 0.0
H113 H 0.54729 0.66968 0.95007 0.0
H114 H 0.37606 0.61359 1.04581 0.0
H115 H 0.27569 0.50967 1.00321 0.0
H116 H 0.7194 0.12992 0.91078 0.0
H117 H 0.61574 -0.01011 0.90212 0.0
H118 H 0.70928 -0.01062 0.78306 0.0
H119 H 0.8125 0.12727 0.79142 0.0
Sm120 Sm 0.8206 0.13292 0.23995 0.0
Sm121 Sm 0.73724 -0.03724 1.20499 0.0
C122 C 0.84472 0.26762 0.27237 0.0
C123 C 0.84365 0.3035 0.31178 0.0
C124 C 0.78646 0.32609 0.31814 0.0
C125 C 0.78658 0.36313 0.35471 0.0
C126 C 0.84435 0.37842 0.38511 0.0
C127 C 0.90166 0.35646 0.3786 0.0
C128 C 0.90128 0.31913 0.3424 0.0
C129 C 0.91302 0.06835 1.22402 0.0
C130 C 0.76108 -0.02042 0.30755 0.0
C131 C 0.6904 0.82443 1.16953 0.0
C132 C 0.70776 0.75851 1.1716 0.0
C133 C 0.71236 0.72204 1.20928 0.0
C134 C 0.73465 0.66309 1.20965 0.0
C135 C 0.75207 0.64046 1.17235 0.0
C136 C 0.74561 0.67596 1.13501 0.0
C137 C 0.72378 0.73436 1.13461 0.0
C138 C 0.64592 0.03151 1.21293 0.0
C139 C 0.84206 0.12481 1.14109 0.0
O140 O 0.77649 0.21361 0.2576 0.0
O141 O 0.90133 0.25116 0.26663 0.0
O142 O 0.8469 0.0314 0.24028 0.0
O143 O 0.93779 0.14493 1.2212 0.0
O144 O 0.77884 0.05548 0.30175 0.0
O145 O 0.75128 0.93443 0.27511 0.0
O146 O 0.65446 0.83251 1.20094 0.0
O147 O 0.74616 0.89253 1.15462 0.0
O148 O 0.71464 0.06509 1.2001 0.0
O149 O 0.61857 0.95568 1.21868 0.0
O150 O 0.81167 0.04596 1.14803 0.0
O151 O 0.84101 0.17018 1.17065 0.0
H152 H 0.7422 0.31581 0.2946 0.0
H153 H 0.74238 0.38036 0.35915 0.0
H154 H 0.94744 0.36897 0.4015 0.0
H155 H 0.94665 0.3034 0.33833 0.0
H156 H 0.70074 0.74039 0.23834 0.0
H157 H 0.74009 0.63676 0.23877 0.0
H158 H 0.75931 0.65971 1.106 0.0
H159 H 0.7207 0.76177 1.10533 0.0
Sm160 Sm 0.73327 0.79919 0.57108 0.0
Sm161 Sm 0.88556 0.80956 0.54266 0.0
C162 C 0.59575 0.74123 0.60716 0.0
C163 C 0.57591 0.74955 0.64942 0.0
C164 C 0.50772 0.6893 0.66859 0.0
C165 C 0.49189 0.69733 0.7097 0.0
C166 C 0.54421 0.76587 0.73151 0.0
C167 C 0.6125 0.82522 0.71224 0.0
C168 C 0.6285 0.81697 0.67173 0.0
C169 C 0.85626 0.9506 0.56751 0.0
C170 C 0.86408 0.79536 0.64266 0.0
C171 C 0.02038 0.84602 0.50838 0.0
C172 C 0.08375 0.82664 0.50633 0.0
C173 C 0.11399 0.82935 0.46734 0.0
C174 C 0.17798 0.81774 0.46347 0.0
C175 C 0.21297 0.80278 0.49847 0.0
C176 C 0.18178 0.79778 0.53773 0.0
C177 C 0.1171 0.80979 0.54168 0.0
C178 C 0.75827 0.65864 0.54815 0.0
C179 C 0.77863 0.85323 0.47548 0.0
O180 O 0.63237 0.70027 0.60418 0.0
O181 O 0.62685 0.80697 0.58428 0.0
O182 O 0.85939 0.88956 0.57965 0.0
O183 O 0.78404 0.93522 0.56176 0.0
O184 O 0.79586 0.7938 0.63458 0.0
O185 O 0.90996 0.80036 0.61207 0.0
O186 O 0.95205 0.79446 0.49272 0.0
O187 O 0.01572 0.8806 0.54154 0.0
O188 O 0.75839 0.71981 0.53341 0.0
O189 O 0.82886 0.67377 0.55838 0.0
O190 O 0.85 0.86946 0.48828 0.0
O191 O 0.71756 0.81276 0.50017 0.0
H192 H 0.4673 0.63618 0.65192 0.0
H193 H 0.43926 0.65075 0.72433 0.0
H194 H 0.65374 0.87825 0.72875 0.0
H195 H 0.68229 0.86331 0.65785 0.0
H196 H 0.08924 0.84252 0.4398 0.0
H197 H 0.20182 0.8229 0.43304 0.0
H198 H 0.20849 0.7867 0.56505 0.0
H199 H 0.09428 0.80748 0.57213 0.0
Sm200 Sm 0.01084 0.75873 0.90651 0.0
Sm201 Sm 0.14825 0.91721 0.87619 0.0
C202 C 0.93404 0.61383 0.94059 0.0
C203 C 0.90085 0.58158 0.98166 0.0
C204 C 0.92213 0.53102 1.00396 0.0
C205 C 0.89958 0.50954 1.04527 0.0
C206 C 0.85545 0.5385 1.06434 0.0
C207 C 0.83018 0.58456 1.04112 0.0
C208 C 0.85304 0.60646 1.00034 0.0
C209 C -0.0226 0.87907 0.90348 0.0
C210 C 0.14102 0.89308 0.9766 0.0
C211 C 0.24639 0.05709 0.84179 0.0
C212 C 0.33076 0.11362 0.83761 0.0
C213 C 0.35751 0.14893 0.79868 0.0
C214 C 0.43711 0.19987 0.79225 0.0
C215 C 0.49214 0.21621 0.82452 0.0
C216 C 0.46563 0.18255 0.86404 0.0
C217 C 0.38499 0.13099 0.87055 0.0
C218 C 0.17448 0.78958 0.8796 0.0
C219 C 0.0001 0.81193 0.81131 0.0
O220 O 0.01088 0.65577 0.93939 0.0
O221 O 0.89961 0.64589 0.91811 0.0
O222 O 0.04229 0.88515 0.91442 0.0
O223 O 0.92282 0.8049 0.89903 0.0
O224 O 0.07605 0.8226 0.96962 0.0
O225 O 0.18109 0.93989 0.94513 0.0
O226 O 0.21995 -0.0108 0.82302 0.0
O227 O 0.2145 0.04983 0.87786 0.0
O228 O 0.11341 0.78918 0.8666 0.0
O229 O 0.22835 0.86107 0.88952 0.0
O230 O 0.0527 0.88429 0.82394 0.0
O231 O -0.01804 0.74845 0.83568 0.0
H232 H -0.04156 0.51062 0.98991 0.0
H233 H 0.91918 0.47353 1.06273 0.0
H234 H 0.79529 0.60656 1.05511 0.0
H235 H 0.83556 0.64536 0.98406 0.0
H236 H 0.31682 0.1359 0.7729 0.0
H237 H 0.45596 0.22567 0.76159 0.0
H238 H 0.50707 0.19507 0.88941 0.0
H239 H 0.36525 0.10396 0.90092 0.0
C240 C 0.95075 -0.03963 1.23083 0.0
C241 C -0.04009 0.03189 1.21199 0.0
C242 C 0.09771 0.09201 1.21283 0.0
C243 C 0.09432 0.02481 0.23403 0.0
N244 N 0.01454 0.88339 0.25144 0.0
N245 N 0.0341 0.13299 1.16127 0.0
C246 C 0.01969 0.95455 0.23968 0.0
C247 C 0.03063 0.08449 1.19361 0.0
N248 N 0.87722 0.8985 0.23839 0.0
N249 N 0.16131 0.1659 1.21562 0.0
H250 H -0.01719 0.1252 1.14662 0.0
H251 H 0.08696 0.17277 1.1469 0.0
H252 H 0.20647 0.17658 0.23613 0.0
H253 H 0.16107 0.21677 1.20361 0.0
H254 H 0.86559 0.84743 0.25574 0.0
H255 H 0.82764 0.89903 1.22631 0.0
H256 H -0.03836 0.83001 0.25419 0.0
H257 H 0.06332 0.87577 0.25548 0.0
C258 C -0.04201 0.04985 0.61323 0.0
C259 C 0.92357 0.03069 0.57336 0.0
C260 C 0.04055 0.14289 0.54354 0.0
C261 C 0.08227 0.14553 0.58059 0.0
N262 N 0.07565 0.12589 0.65461 0.0
N263 N 0.92514 0.0638 0.50095 0.0
C264 C 0.03908 0.1068 0.61691 0.0
C265 C -0.03786 0.07974 0.53867 0.0
N266 N 0.91252 0.01268 0.64706 0.0
N267 N 0.07372 0.20248 0.51434 0.0
H268 H 0.86584 0.0214 0.49734 0.0
H269 H 0.95383 0.09049 0.4734 0.0
H270 H 0.12652 0.25473 0.5196 0.0
H271 H 0.04405 0.20539 0.48771 0.0
H272 H 0.93232 0.0235 0.67756 0.0
H273 H 0.85219 -0.02704 0.6444 0.0
H274 H 0.0515 0.09521 0.6822 0.0
H275 H 0.13037 0.17635 0.6582 0.0
C276 C 0.94936 -0.016 0.87553 0.0
C277 C -0.03809 0.94462 0.90989 0.0
C278 C 0.00654 0.06163 0.95219 0.0
C279 C 0.008 0.10569 0.91562 0.0
N280 N 0.93922 0.09855 0.85125 0.0
N281 N -0.02915 0.93153 0.98344 0.0
C282 C -0.03408 0.06379 0.87986 0.0
C283 C -0.0205 -0.02114 0.9493 0.0
N284 N 0.92522 0.94643 0.83856 0.0
N285 N 0.03127 0.09883 0.98927 0.0
H286 H 0.94938 0.87014 0.9812 0.0
H287 H -0.02137 0.95068 1.01377 0.0
H288 H 0.03956 0.15566 0.99404 0.0
H289 H 0.04188 0.0732 1.01569 0.0
H290 H 0.92492 -0.02451 0.81089 0.0
H291 H 0.90784 0.88612 0.83568 0.0
H292 H 0.90532 0.0691 0.8255 0.0
H293 H 0.94066 0.15217 0.85664 0.0
C294 C 0.56909 0.60808 1.07884 0.0
C295 C 0.52636 0.61839 1.11047 0.0
C296 C 0.51795 0.72121 1.0682 0.0
C297 C 0.53625 0.69009 1.03397 0.0
N298 N 0.63877 0.66394 1.01467 0.0
N299 N 0.48798 0.70482 1.14189 0.0
C300 C 0.58311 0.65441 1.04206 0.0
C301 C 0.51232 0.68393 1.10773 0.0
N302 N 0.59077 0.5509 1.08254 0.0
N303 N 0.49614 0.77761 1.06112 0.0
H304 H 0.48401 0.67645 1.17054 0.0
H305 H 0.47558 0.75143 1.14234 0.0
H306 H 0.49804 0.80091 1.03126 0.0
H307 H 0.47797 0.80137 1.08402 0.0
H308 H 0.61498 0.53627 1.05828 0.0
H309 H 0.58248 0.51698 1.10959 0.0
H310 H 0.67719 0.64175 1.02033 0.0
H311 H 0.65198 0.70261 0.98906 0.0
C312 C 0.85139 0.39409 0.49798 0.0
C313 C 0.92659 0.46281 0.49969 0.0
C314 C 0.91025 0.49848 0.42867 0.0
C315 C 0.8486 0.41877 0.42403 0.0
N316 N 0.74446 0.29951 0.45571 0.0
N317 N 0.00628 0.598 0.47533 0.0
C318 C 0.81226 0.37073 0.45943 0.0
C319 C 0.94763 0.522 0.46807 0.0
N320 N 0.82172 0.34508 0.53173 0.0
N321 N 0.93633 0.54815 0.39469 0.0
H322 H 0.03247 0.61466 0.50451 0.0
H323 H 0.02422 0.6452 0.45399 0.0
H324 H 0.90751 0.53093 0.36608 0.0
H325 H -0.01441 0.605 0.39464 0.0
H326 H 0.85032 0.35886 0.56053 0.0
H327 H 0.85032 0.35886 0.56053 0.0
H328 H 0.71779 0.26137 0.48111 0.0
H329 H 0.7148 0.28079 0.42742 0.0
C330 C 0.61386 0.83685 0.83529 0.0
C331 C 0.59238 0.89697 0.83414 0.0
C332 C 0.49385 0.82543 0.78051 0.0
C333 C 0.531 0.77956 0.77457 0.0
N334 N 0.60786 0.7231 0.80297 0.0
N335 N 0.49727 0.93713 0.81591 0.0
C336 C 0.58273 0.77741 0.80516 0.0
C337 C 0.52554 0.8859 0.81084 0.0
N338 N 0.66921 0.8395 0.86252 0.0
N339 N 0.43242 0.81408 0.75519 0.0
H340 H 0.5197 -0.01991 0.83882 0.0
H341 H 0.45109 0.93615 0.79879 0.0
H342 H 0.40947 0.76928 0.73323 0.0
H343 H 0.40212 0.8455 0.75691 0.0
H344 H 0.6951 0.8826 0.8853 0.0
H345 H 0.6951 0.8826 0.8853 0.0
H346 H 0.6485 0.72157 0.82405 0.0
H347 H 0.58582 0.67904 0.78056 0.0
C348 C 0.86542 0.62016 1.16562 0.0
C349 C 0.78348 0.5849 1.17042 0.0
C350 C 0.76132 0.48116 1.12201 0.0
C351 C 0.84022 0.52932 1.10931 0.0
N352 N -0.02709 0.6307 1.12754 0.0
N353 N 0.65764 0.46681 1.16778 0.0
C354 C 0.89433 0.59191 1.13479 0.0
C355 C 0.73304 0.50875 1.15411 0.0
N356 N 0.91515 0.68581 1.18768 0.0
N357 N 0.71315 0.41375 1.10069 0.0
H358 H 0.6386 0.48853 1.19145 0.0
H359 H 0.61644 0.4101 1.15786 0.0
H360 H 0.73496 0.39385 1.07747 0.0
H361 H 0.6532 0.37803 1.1059 0.0
H362 H -0.02398 0.71585 1.18379 0.0
H363 H 0.89445 0.70775 1.21043 0.0
H364 H -0.00154 0.6138 1.10489 0.0
H365 H -0.00154 0.6138 1.10489 0.0
C366 C 0.35413 0.87198 0.48378 0.0
C367 C 0.28536 0.79856 0.49201 0.0
C368 C 0.32544 0.73441 0.44174 0.0
C369 C 0.37589 0.81115 0.42451 0.0
N370 N 0.46038 0.95172 0.43763 0.0
N371 N 0.21611 0.656 0.4882 0.0
C372 C 0.39944 0.87902 0.44913 0.0
C373 C 0.2765 0.72776 0.47513 0.0
N374 N 0.37227 0.93793 0.50585 0.0
N375 N 0.31995 0.66926 0.42325 0.0
H376 H 0.18095 0.65246 0.51279 0.0
H377 H 0.20086 0.60159 0.47499 0.0
H378 H 0.35495 0.6759 0.39794 0.0
H379 H 0.28563 0.6108 0.43426 0.0
H380 H 0.33993 0.93648 0.53135 0.0
H381 H 0.33993 0.93648 0.53135 0.0
H382 H 0.47666 0.0033 0.45429 0.0
H383 H 0.49595 0.95933 0.41263 0.0
C384 C 0.61699 0.22667 0.80175 0.0
C385 C 0.57653 0.2663 0.81426 0.0
C386 C 0.63847 0.36564 0.75917 0.0
C387 C 0.65146 0.30924 0.73904 0.0
N388 N 0.70032 0.2186 0.74933 0.0
N389 N 0.57622 0.39126 0.81482 0.0
C390 C 0.66041 0.25323 0.76439 0.0
C391 C 0.59925 0.34314 0.79733 0.0
N392 N 0.60551 0.15906 0.8224 0.0
N393 N 0.65846 0.43771 0.74092 0.0
H394 H 0.54532 0.37596 0.84253 0.0
H395 H 0.54532 0.37596 0.84253 0.0
H396 H 0.69216 0.45757 0.71426 0.0
H397 H 0.64618 0.47885 0.75435 0.0
H398 H 0.62513 0.12162 0.81183 0.0
H399 H 0.57487 0.14045 0.85013 0.0
H400 H 0.71013 0.17718 0.76596 0.0
H401 H 0.72735 0.23642 0.72051 0.0
C402 C 0.55579 0.15533 0.24115 0.0
C403 C 0.51449 0.15276 1.20409 0.0
C404 C 0.56706 0.07724 1.17115 0.0
C405 C 0.59786 0.0698 1.21011 0.0
N406 N 0.61402 0.09214 0.28348 0.0
N407 N 0.47334 0.10402 1.13449 0.0
C408 C 0.59009 0.10608 0.24556 0.0
C409 C 0.51881 0.11285 1.16892 0.0
N410 N 0.56304 0.20598 0.27176 0.0
N411 N 0.58394 0.0504 1.13633 0.0
H412 H 0.43812 0.13013 1.13055 0.0
H413 H 0.46636 0.06595 1.1106 0.0
H414 H 0.61556 0.01986 1.13695 0.0
H415 H 0.57122 0.06323 1.10651 0.0
H416 H 0.59729 0.2147 0.29836 0.0
H417 H 0.54111 0.24549 0.26852 0.0
H418 H 0.60229 0.11033 0.3111 0.0
H419 H 0.64028 0.0567 0.28753 0.0
C420 C 0.56256 0.48453 0.51775 0.0
C421 C 0.52385 0.46857 0.55639 0.0
C422 C 0.65256 0.54847 0.59029 0.0
C423 C 0.68573 0.58002 0.55112 0.0
N424 N 0.67601 0.57437 0.47693 0.0
N425 N 0.53423 0.48454 0.63092 0.0
C426 C 0.64204 0.54602 0.51464 0.0
C427 C 0.5695 0.49837 0.59335 0.0
N428 N 0.52343 0.44009 0.48414 0.0
N429 N 0.70018 0.56766 0.62455 0.0
H430 H 0.47449 0.44716 0.6356 0.0
H431 H 0.56404 0.51416 0.65759 0.0
H432 H 0.76095 0.60482 0.62305 0.0
H433 H 0.68064 0.54043 0.65346 0.0
H434 H 0.55048 0.44377 0.45624 0.0
H435 H 0.46557 0.39343 0.48552 0.0
H436 H 0.64447 0.55987 0.4491 0.0
H437 H 0.73586 0.61526 0.47373 0.0
C438 C 0.16111 0.59538 0.85048 0.0
C439 C 0.1293 0.55141 0.88777 0.0
C440 C 0.17133 0.67798 0.92264 0.0
C441 C 0.18052 0.7161 0.88343 0.0
N442 N 0.19223 0.71492 0.80966 0.0
N443 N 0.11222 0.55292 0.96174 0.0
C444 C 0.17892 0.6762 0.84722 0.0
C445 C 0.13871 0.59331 0.92493 0.0
N446 N 0.17616 0.56009 0.81873 0.0
N447 N 0.19177 0.72249 0.9575 0.0
H448 H 0.09091 0.49196 0.96581 0.0
H449 H 0.10834 0.57958 0.9884 0.0
H450 H 0.21473 0.78428 0.95632 0.0
H451 H 0.19333 0.69979 0.98695 0.0
H452 H 0.20447 0.59057 0.79173 0.0
H453 H 0.16892 0.50273 0.82185 0.0
H454 H 0.18264 0.68611 0.78163 0.0
H455 H 0.21001 0.77567 0.8067 0.0
C456 C 0.37806 0.20313 0.3816 0.0
C457 C 0.30968 0.16913 0.35587 0.0
C458 C 0.23633 0.18878 0.41179 0.0
C459 C 0.30434 0.2208 0.43835 0.0
N460 N 0.43732 0.24464 0.44955 0.0
N461 N 0.17067 0.11948 0.34849 0.0
C462 C 0.37413 0.22347 0.42357 0.0
C463 C 0.23819 0.15988 0.3715 0.0
N464 N 0.44848 0.2201 0.36517 0.0
N465 N 0.16868 0.18401 0.42544 0.0
H466 H 0.16967 0.09782 0.31925 0.0
H467 H 0.11463 0.10194 0.35913 0.0
H468 H 0.1605 0.1923 0.45612 0.0
H469 H 0.12096 0.17345 0.40638 0.0
H470 H 0.50259 0.25457 0.37982 0.0
H471 H 0.45379 0.2054 0.33513 0.0
H472 H 0.48443 0.2363 0.4428 0.0
H473 H 0.44149 0.26574 0.47916 0.0
C474 C 0.21112 0.38155 0.70291 0.0
C475 C 0.23434 0.32386 0.69455 0.0
C476 C 0.19306 0.26908 0.76618 0.0
C477 C 0.16081 0.32002 0.77197 0.0
N478 N 0.12803 0.41598 0.74191 0.0
N479 N 0.23388 0.20276 0.71833 0.0
C480 C 0.16621 0.37321 0.73903 0.0
C481 C 0.22253 0.26549 0.72643 0.0
N482 N 0.23619 0.44771 0.67764 0.0
N483 N 0.19518 0.22307 0.79872 0.0
H484 H 0.25342 0.19505 0.69022 0.0
H485 H 0.21506 0.1529 0.73798 0.0
H486 H 0.16958 0.21934 0.82717 0.0
H487 H 0.22685 0.19277 0.79837 0.0
H488 H 0.2276 0.49547 0.68407 0.0
H489 H 0.27431 0.45968 0.65316 0.0
H490 H 0.12291 0.44945 0.71729 0.0
H491 H 0.09517 0.412 0.7676 0.0
C492 C 0.89124 0.15659 1.02361 0.0
C493 C -0.0434 0.23689 1.02082 0.0
C494 C 0.95117 0.24104 1.09742 0.0
C495 C 0.88086 0.16446 1.09953 0.0
N496 N 0.77289 0.06317 1.06033 0.0
N497 N 0.02934 0.36168 1.0564 0.0
C498 C 0.84784 0.12641 1.06136 0.0
C499 C -0.0191 0.28073 1.05813 0.0
N500 N 0.8714 0.10639 0.99107 0.0
N501 N -0.00728 0.27562 1.13262 0.0
H502 H 0.04776 0.39425 1.02867 0.0
H503 H 0.04265 0.39751 1.08218 0.0
H504 H -0.02288 0.24898 1.16184 0.0
H505 H 0.04815 0.32666 1.13214 0.0
H506 H 0.83045 0.0456 0.99343 0.0
H507 H 0.90147 0.12171 0.96339 0.0
H508 H 0.74285 0.03838 1.03281 0.0
H509 H 0.73721 0.04207 1.08629 0.0
C510 C 0.81503 0.91612 0.3601 0.0
C511 C 0.76408 0.94778 0.35111 0.0
C512 C 0.72637 0.92422 0.42519 0.0
C513 C 0.76909 0.88242 0.43235 0.0
N514 N 0.83819 0.82268 0.40156 0.0
N515 N 0.66212 -0.02883 0.37524 0.0
C516 C 0.8086 0.8737 0.39826 0.0
C517 C 0.71715 0.94873 0.38377 0.0
N518 N 0.8739 0.93132 0.33346 0.0
N519 N 0.69782 0.94449 0.45798 0.0
H520 H 0.65288 -0.01208 0.34559 0.0
H521 H 0.62112 -0.03384 0.39667 0.0
H522 H 0.70509 0.93047 0.48855 0.0
H523 H 0.67385 -0.01784 0.45523 0.0
H524 H 0.91701 0.91561 0.33997 0.0
H525 H 0.88575 -0.03076 0.30772 0.0
H526 H 0.86135 0.80894 0.37647 0.0
H527 H 0.83111 0.787 0.42783 0.0
C528 C 0.8476 0.75006 0.72004 0.0
C529 C 0.89541 0.8002 0.68698 0.0
C530 C 0.01116 0.84687 0.73414 0.0
C531 C -0.03715 0.80388 0.76835 0.0
N532 N 0.83078 0.72663 0.79437 0.0
N533 N 0.02038 0.91513 0.66875 0.0
C534 C 0.87981 0.75865 0.76141 0.0
C535 C -0.02352 0.85393 0.69588 0.0
N536 N 0.77204 0.692 0.71206 0.0
N537 N 0.09084 0.87858 0.73729 0.0
H538 H -0.00295 0.92673 0.6418 0.0
H539 H 0.07729 -0.03964 0.67564 0.0
H540 H 0.11863 0.87078 0.76355 0.0
H541 H 0.12807 0.90404 0.71212 0.0
H542 H 0.73753 0.64791 0.73369 0.0
H543 H 0.74593 0.68337 0.68284 0.0
H544 H 0.76989 0.70104 0.79177 0.0
H545 H 0.85107 0.73254 0.82486 0.0
C546 C 0.19936 0.01049 1.02636 0.0
C547 C 0.16714 0.92668 1.02026 0.0
C548 C 0.18684 0.91385 1.09589 0.0
C549 C 0.23206 -0.00112 1.09984 0.0
N550 N 0.29558 0.12646 1.06341 0.0
N551 N 0.14311 0.80044 1.05089 0.0
C552 C 0.24239 0.04655 1.06348 0.0
C553 C 0.16445 0.87882 1.05553 0.0
N554 N 0.1854 0.05599 0.99781 0.0
N555 N 0.16081 0.86586 1.13051 0.0
H556 H 0.12831 0.77269 1.0224 0.0
H557 H 0.14771 0.76528 1.07478 0.0
H558 H 0.17021 0.88816 1.16028 0.0
H559 H 0.12162 0.8046 1.12934 0.0
H560 H 0.20205 0.11564 1.00258 0.0
H561 H 0.14794 0.03181 0.97237 0.0
H562 H 0.30997 0.1622 1.0366 0.0
H563 H 0.33212 0.15483 1.08865 0.0
loop_
_geom_bond_atom_site_label_1
_geom_bond_atom_site_label_2
_geom_bond_distance
_geom_bond_site_symmetry_2
_ccdc_geom_bond_type
Sm0 C2 2.846 . S
Sm0 O20 2.543 . S
Sm0 O21 2.450 . S
Sm0 O22 2.681 . S
Sm0 O23 2.464 . S
Sm0 O24 2.396 . S
Sm0 O28 2.386 . S
Sm0 O31 2.408 1_554 S
Sm1 C11 2.846 . S
Sm1 O22 2.386 1_556 S
Sm1 O25 2.408 1_556 S
Sm1 O26 2.543 . S
Sm1 O27 2.450 . S
Sm1 O28 2.681 1_556 S
Sm1 O29 2.464 . S
Sm1 O30 2.396 . S
C2 Sm0 2.846 . S
C2 C3 1.506 . S
C2 O20 1.261 . S
C2 O21 1.242 . S
C3 C2 1.506 . S
C3 C4 1.358 . S
C3 C8 1.382 1_545 S
C4 C3 1.358 . S
C4 C5 1.385 . S
C4 H32 0.930 . S
C5 C4 1.385 . S
C5 C6 1.395 1_545 S
C5 H33 0.929 . S
C6 C5 1.395 1_565 S
C6 C7 1.335 . S
C7 C6 1.335 . S
C7 C8 1.398 . S
C7 H34 0.930 . S
C8 C3 1.382 1_565 S
C8 C7 1.398 . S
C8 H35 0.929 . S
C9 O22 1.271 . S
C9 O23 1.251 . S
C10 O24 1.252 . S
C10 O25 1.272 . S
C11 Sm1 2.846 . S
C11 C12 1.506 . S
C11 O26 1.261 . S
C11 O27 1.242 . S
C12 C11 1.506 . S
C12 C13 1.358 . S
C12 C17 1.382 . S
C13 C12 1.358 . S
C13 C14 1.385 . S
C13 H36 0.930 . S
C14 C13 1.385 . S
C14 C15 1.395 . S
C14 H37 0.929 . S
C15 C14 1.395 . S
C15 C16 1.335 . S
C16 C15 1.335 . S
C16 C17 1.398 . S
C16 H38 0.930 . S
C17 C12 1.382 . S
C17 C16 1.398 . S
C17 H39 0.929 . S
C18 O28 1.271 . S
C18 O29 1.251 1_554 S
C19 O30 1.252 . S
C19 O31 1.272 . S
O20 Sm0 2.543 . S
O20 C2 1.261 . S
O21 Sm0 2.450 . S
O21 C2 1.242 . S
O22 Sm0 2.681 . S
O22 Sm1 2.386 1_554 S
O22 C9 1.271 . S
O23 Sm0 2.464 . S
O23 C9 1.251 . S
O24 Sm0 2.396 . S
O24 C10 1.252 . S
O25 Sm1 2.408 1_554 S
O25 C10 1.272 . S
O26 Sm1 2.543 . S
O26 C11 1.261 . S
O27 Sm1 2.450 . S
O27 C11 1.242 . S
O28 Sm0 2.386 . S
O28 Sm1 2.681 1_554 S
O28 C18 1.271 . S
O29 Sm1 2.464 . S
O29 C18 1.251 1_556 S
O30 Sm1 2.396 . S
O30 C19 1.252 . S
O31 Sm0 2.408 1_556 S
O31 C19 1.272 . S
H32 C4 0.930 . S
H33 C5 0.929 . S
H34 C7 0.930 . S
H35 C8 0.929 . S
H36 C13 0.930 . S
H37 C14 0.929 . S
H38 C16 0.930 . S
H39 C17 0.929 . S
Sm40 C42 2.846 . S
Sm40 O60 2.543 . S
Sm40 O61 2.450 . S
Sm40 O62 2.681 . S
Sm40 O63 2.464 . S
Sm40 O64 2.396 . S
Sm40 O68 2.386 . S
Sm40 O71 2.408 . S
Sm41 C51 2.846 . S
Sm41 O62 2.386 . S
Sm41 O65 2.408 . S
Sm41 O66 2.543 . S
Sm41 O67 2.450 . S
Sm41 O68 2.681 . S
Sm41 O69 2.464 . S
Sm41 O70 2.396 . S
C42 Sm40 2.846 . S
C42 C43 1.506 . S
C42 O60 1.261 . S
C42 O61 1.242 . S
C43 C42 1.506 . S
C43 C44 1.358 . S
C43 C48 1.382 . S
C44 C43 1.358 . S
C44 C45 1.385 . S
C44 H72 0.930 . S
C45 C44 1.385 . S
C45 C46 1.395 . S
C45 H73 0.929 . S
C46 C45 1.395 . S
C46 C47 1.335 . S
C47 C46 1.335 . S
C47 C48 1.398 . S
C47 H74 0.930 . S
C48 C43 1.382 . S
C48 C47 1.398 . S
C48 H75 0.929 . S
C49 O62 1.271 . S
C49 O63 1.251 . S
C50 O64 1.252 . S
C50 O65 1.272 . S
C51 Sm41 2.846 . S
C51 C52 1.506 . S
C51 O66 1.261 . S
C51 O67 1.242 . S
C52 C51 1.506 . S
C52 C53 1.358 . S
C52 C57 1.382 . S
C53 C52 1.358 . S
C53 C54 1.385 . S
C53 H76 0.930 . S
C54 C53 1.385 . S
C54 C55 1.395 . S
C54 H77 0.929 . S
C55 C54 1.395 . S
C55 C56 1.335 . S
C56 C55 1.335 . S
C56 C57 1.398 . S
C56 H78 0.930 . S
C57 C52 1.382 . S
C57 C56 1.398 . S
C57 H79 0.929 . S
C58 O68 1.271 . S
C58 O69 1.251 . S
C59 O70 1.252 . S
C59 O71 1.272 . S
O60 Sm40 2.543 . S
O60 C42 1.261 . S
O61 Sm40 2.450 . S
O61 C42 1.242 . S
O62 Sm40 2.681 . S
O62 Sm41 2.386 . S
O62 C49 1.271 . S
O63 Sm40 2.464 . S
O63 C49 1.251 . S
O64 Sm40 2.396 . S
O64 C50 1.252 . S
O65 Sm41 2.408 . S
O65 C50 1.272 . S
O66 Sm41 2.543 . S
O66 C51 1.261 . S
O67 Sm41 2.450 . S
O67 C51 1.242 . S
O68 Sm40 2.386 . S
O68 Sm41 2.681 . S
O68 C58 1.271 . S
O69 Sm41 2.464 . S
O69 C58 1.251 . S
O70 Sm41 2.396 . S
O70 C59 1.252 . S
O71 Sm40 2.408 . S
O71 C59 1.272 . S
H72 C44 0.930 . S
H73 C45 0.929 . S
H74 C47 0.930 . S
H75 C48 0.929 . S
H76 C53 0.930 . S
H77 C54 0.929 . S
H78 C56 0.930 . S
H79 C57 0.929 . S
Sm80 C82 2.846 . S
Sm80 O100 2.543 . S
Sm80 O101 2.450 . S
Sm80 O102 2.681 . S
Sm80 O103 2.464 . S
Sm80 O104 2.390 1_455 S
Sm80 O108 2.386 . S
Sm80 O111 2.408 . S
Sm81 C91 2.846 . S
Sm81 O102 2.386 1_655 S
Sm81 O105 2.408 . S
Sm81 O106 2.543 . S
Sm81 O107 2.450 . S
Sm81 O108 2.681 1_655 S
Sm81 O109 2.464 . S
Sm81 O110 2.396 1_655 S
C82 Sm80 2.846 . S
C82 C83 1.506 . S
C82 O100 1.261 . S
C82 O101 1.242 . S
C83 C82 1.506 . S
C83 C84 1.358 . S
C83 C88 1.382 . S
C84 C83 1.358 . S
C84 C85 1.385 . S
C84 H112 0.930 . S
C85 C84 1.385 . S
C85 C86 1.395 . S
C85 H113 0.929 . S
C86 C85 1.395 . S
C86 C87 1.335 . S
C87 C86 1.335 . S
C87 C88 1.398 . S
C87 H114 0.930 . S
C88 C83 1.382 . S
C88 C87 1.398 . S
C88 H115 0.929 . S
C89 O102 1.271 . S
C89 O103 1.251 . S
C90 O104 1.262 . S
C90 O105 1.272 . S
C91 Sm81 2.846 . S
C91 C92 1.506 . S
C91 O106 1.261 . S
C91 O107 1.242 . S
C92 C91 1.506 . S
C92 C93 1.358 . S
C92 C97 1.382 . S
C93 C92 1.358 . S
C93 C94 1.385 . S
C93 H116 0.930 . S
C94 C93 1.385 . S
C94 C95 1.395 . S
C94 H117 0.929 . S
C95 C94 1.395 . S
C95 C96 1.335 . S
C96 C95 1.335 . S
C96 C97 1.398 . S
C96 H118 0.930 . S
C97 C92 1.382 . S
C97 C96 1.398 . S
C97 H119 0.929 . S
C98 O108 1.271 1_655 S
C98 O109 1.251 . S
C99 O110 1.252 . S
C99 O111 1.272 . S
O100 Sm80 2.543 . S
O100 C82 1.261 . S
O101 Sm80 2.450 . S
O101 C82 1.242 . S
O102 Sm80 2.681 . S
O102 Sm81 2.386 1_455 S
O102 C89 1.271 . S
O103 Sm80 2.464 . S
O103 C89 1.251 . S
O104 Sm80 2.390 1_655 S
O104 C90 1.262 . S
O105 Sm81 2.408 . S
O105 C90 1.272 . S
O106 Sm81 2.543 . S
O106 C91 1.261 . S
O107 Sm81 2.450 . S
O107 C91 1.242 . S
O108 Sm80 2.386 . S
O108 Sm81 2.681 1_455 S
O108 C98 1.271 1_455 S
O109 Sm81 2.464 . S
O109 C98 1.251 . S
O110 Sm81 2.396 1_455 S
O110 C99 1.252 . S
O111 Sm80 2.408 . S
O111 C99 1.272 . S
H112 C84 0.930 . S
H113 C85 0.929 . S
H114 C87 0.930 . S
H115 C88 0.929 . S
H116 C93 0.930 . S
H117 C94 0.929 . S
H118 C96 0.930 . S
H119 C97 0.929 . S
Sm120 C122 2.846 . S
Sm120 O140 2.543 . S
Sm120 O141 2.450 . S
Sm120 O142 2.674 1_545 S
Sm120 O143 2.464 . S
Sm120 O144 2.396 1_545 S
Sm120 O148 2.390 . S
Sm120 O151 2.408 1_554 S
Sm121 C131 2.846 . S
Sm121 O142 2.389 1_556 S
Sm121 O145 2.408 1_556 S
Sm121 O146 2.543 . S
Sm121 O147 2.450 . S
Sm121 O148 2.671 1_566 S
Sm121 O149 2.464 . S
Sm121 O150 2.396 1_565 S
C122 Sm120 2.846 . S
C122 C123 1.506 . S
C122 O140 1.261 . S
C122 O141 1.242 . S
C123 C122 1.506 . S
C123 C124 1.358 . S
C123 C128 1.382 . S
C124 C123 1.358 . S
C124 C125 1.385 . S
C124 H152 0.930 . S
C125 C124 1.385 . S
C125 C126 1.395 . S
C125 H153 0.929 . S
C126 C125 1.395 . S
C126 C127 1.335 . S
C127 C126 1.335 . S
C127 C128 1.398 . S
C127 H154 0.930 1_655 S
C128 C123 1.382 . S
C128 C127 1.398 . S
C128 H155 0.929 . S
C129 O142 1.271 1_545 S
C129 O143 1.251 . S
C130 O144 1.252 . S
C130 O145 1.272 . S
C131 Sm121 2.846 . S
C131 C132 1.506 . S
C131 O146 1.261 . S
C131 O147 1.242 . S
C132 C131 1.506 . S
C132 C133 1.358 . S
C132 C137 1.382 . S
C133 C132 1.358 . S
C133 C134 1.385 . S
C133 H156 0.930 . S
C134 C133 1.385 . S
C134 C135 1.395 . S
C134 H157 0.929 . S
C135 C134 1.395 . S
C135 C136 1.335 . S
C136 C135 1.335 . S
C136 C137 1.398 . S
C136 H158 0.930 . S
C137 C132 1.382 . S
C137 C136 1.398 . S
C137 H159 0.929 . S
C138 O148 1.272 1_565 S
C138 O149 1.251 1_554 S
C139 O150 1.252 . S
C139 O151 1.272 . S
O140 Sm120 2.543 . S
O140 C122 1.261 . S
O141 Sm120 2.450 . S
O141 C122 1.242 . S
O142 Sm120 2.674 1_565 S
O142 Sm121 2.389 1_554 S
O142 C129 1.271 1_565 S
O143 Sm120 2.464 . S
O143 C129 1.251 . S
O144 Sm120 2.396 1_565 S
O144 C130 1.252 . S
O145 Sm121 2.408 1_554 S
O145 C130 1.272 . S
O146 Sm121 2.543 . S
O146 C131 1.261 . S
O147 Sm121 2.450 . S
O147 C131 1.242 . S
O148 Sm120 2.390 . S
O148 Sm121 2.671 1_544 S
O148 C138 1.272 1_545 S
O149 Sm121 2.464 . S
O149 C138 1.251 1_556 S
O150 Sm121 2.396 1_545 S
O150 C139 1.252 . S
O151 Sm120 2.408 1_556 S
O151 C139 1.272 . S
H152 C124 0.930 . S
H153 C125 0.929 . S
H154 C127 0.930 1_455 S
H155 C128 0.929 . S
H156 C133 0.930 . S
H157 C134 0.929 . S
H158 C136 0.930 . S
H159 C137 0.929 . S
Sm160 C162 2.846 . S
Sm160 O180 2.543 . S
Sm160 O181 2.450 . S
Sm160 O182 2.681 1_655 S
Sm160 O183 2.464 1_655 S
Sm160 O184 2.396 . S
Sm160 O188 2.386 . S
Sm160 O191 2.408 . S
Sm161 C171 2.846 1_655 S
Sm161 O182 2.386 1_655 S
Sm161 O185 2.408 . S
Sm161 O186 2.543 1_655 S
Sm161 O187 2.450 . S
Sm161 O188 2.681 . S
Sm161 O189 2.464 . S
Sm161 O190 2.396 . S
C162 Sm160 2.846 . S
C162 C163 1.506 . S
C162 O180 1.261 . S
C162 O181 1.242 . S
C163 C162 1.506 . S
C163 C164 1.358 . S
C163 C168 1.382 . S
C164 C163 1.358 . S
C164 C165 1.385 . S
C164 H192 0.930 . S
C165 C164 1.385 . S
C165 C166 1.395 . S
C165 H193 0.929 . S
C166 C165 1.395 . S
C166 C167 1.335 . S
C167 C166 1.335 . S
C167 C168 1.398 . S
C167 H194 0.930 1_565 S
C168 C163 1.382 . S
C168 C167 1.398 . S
C168 H195 0.929 . S
C169 O182 1.271 . S
C169 O183 1.251 . S
C170 O184 1.252 . S
C170 O185 1.272 . S
C171 Sm161 2.846 1_455 S
C171 C172 1.506 . S
C171 O186 1.261 . S
C171 O187 1.242 1_455 S
C172 C171 1.506 . S
C172 C173 1.358 . S
C172 C177 1.382 . S
C173 C172 1.358 . S
C173 C174 1.385 . S
C173 H196 0.930 . S
C174 C173 1.385 . S
C174 C175 1.395 . S
C174 H197 0.929 . S
C175 C174 1.395 . S
C175 C176 1.335 . S
C176 C175 1.335 . S
C176 C177 1.398 . S
C176 H198 0.930 . S
C177 C172 1.382 . S
C177 C176 1.398 . S
C177 H199 0.929 1_455 S
C178 O188 1.271 . S
C178 O189 1.251 . S
C179 O190 1.252 . S
C179 O191 1.272 . S
O180 Sm160 2.543 . S
O180 C162 1.261 . S
O181 Sm160 2.450 . S
O181 C162 1.242 . S
O182 Sm160 2.681 1_455 S
O182 Sm161 2.386 1_455 S
O182 C169 1.271 . S
O183 Sm160 2.464 1_455 S
O183 C169 1.251 . S
O184 Sm160 2.396 . S
O184 C170 1.252 . S
O185 Sm161 2.408 . S
O185 C170 1.272 . S
O186 Sm161 2.543 1_455 S
O186 C171 1.261 . S
O187 Sm161 2.450 . S
O187 C171 1.242 1_655 S
O188 Sm160 2.386 . S
O188 Sm161 2.681 . S
O188 C178 1.271 . S
O189 Sm161 2.464 . S
O189 C178 1.251 . S
O190 Sm161 2.396 . S
O190 C179 1.252 . S
O191 Sm160 2.408 . S
O191 C179 1.272 . S
H192 C164 0.930 . S
H193 C165 0.929 . S
H194 C167 0.930 1_545 S
H195 C168 0.929 . S
H196 C173 0.930 . S
H197 C174 0.929 . S
H198 C176 0.930 . S
H199 C177 0.929 1_655 S
Sm200 C202 2.846 . S
Sm200 O220 2.543 . S
Sm200 O221 2.450 . S
Sm200 O222 2.681 . S
Sm200 O223 2.471 . S
Sm200 O224 2.396 . S
Sm200 O228 2.386 . S
Sm200 O231 2.408 . S
Sm201 C211 2.846 1_565 S
Sm201 O222 2.386 . S
Sm201 O225 2.408 . S
Sm201 O226 2.543 1_565 S
Sm201 O227 2.450 . S
Sm201 O228 2.681 . S
Sm201 O229 2.464 . S
Sm201 O230 2.396 . S
C202 Sm200 2.846 . S
C202 C203 1.506 . S
C202 O220 1.261 . S
C202 O221 1.242 . S
C203 C202 1.506 . S
C203 C204 1.358 . S
C203 C208 1.382 1_455 S
C204 C203 1.358 . S
C204 C205 1.385 . S
C204 H232 0.930 . S
C205 C204 1.385 . S
C205 C206 1.395 1_455 S
C205 H233 0.929 . S
C206 C205 1.395 1_655 S
C206 C207 1.335 . S
C207 C206 1.335 . S
C207 C208 1.398 . S
C207 H234 0.930 . S
C208 C203 1.382 1_655 S
C208 C207 1.398 . S
C208 H235 0.929 . S
C209 O222 1.271 1_545 S
C209 O223 1.251 1_545 S
C210 O224 1.252 . S
C210 O225 1.272 . S
C211 Sm201 2.846 1_545 S
C211 C212 1.506 . S
C211 O226 1.261 . S
C211 O227 1.242 1_545 S
C212 C211 1.506 . S
C212 C213 1.358 . S
C212 C217 1.382 . S
C213 C212 1.358 . S
C213 C214 1.385 . S
C213 H236 0.930 . S
C214 C213 1.385 . S
C214 C215 1.395 . S
C214 H237 0.929 . S
C215 C214 1.395 . S
C215 C216 1.335 . S
C216 C215 1.335 . S
C216 C217 1.398 . S
C216 H238 0.930 . S
C217 C212 1.382 . S
C217 C216 1.398 . S
C217 H239 0.929 1_545 S
C218 O228 1.271 . S
C218 O229 1.251 . S
C219 O230 1.252 . S
C219 O231 1.272 . S
O220 Sm200 2.543 . S
O220 C202 1.261 . S
O221 Sm200 2.450 . S
O221 C202 1.242 . S
O222 Sm200 2.681 . S
O222 Sm201 2.386 . S
O222 C209 1.271 1_565 S
O223 Sm200 2.471 . S
O223 C209 1.251 1_565 S
O224 Sm200 2.396 . S
O224 C210 1.252 . S
O225 Sm201 2.408 . S
O225 C210 1.272 . S
O226 Sm201 2.543 1_545 S
O226 C211 1.261 . S
O227 Sm201 2.450 . S
O227 C211 1.242 1_565 S
O228 Sm200 2.386 . S
O228 Sm201 2.681 . S
O228 C218 1.271 . S
O229 Sm201 2.464 . S
O229 C218 1.251 . S
O230 Sm201 2.396 . S
O230 C219 1.252 . S
O231 Sm200 2.408 . S
O231 C219 1.272 . S
H232 C204 0.930 . S
H233 C205 0.929 . S
H234 C207 0.930 . S
H235 C208 0.929 . S
H236 C213 0.930 . S
H237 C214 0.929 . S
H238 C216 0.930 . S
H239 C217 0.929 1_565 S
C240 C241 1.363 . S
C240 C246 1.379 . S
C240 N248 1.356 1_455 S
C241 C240 1.363 . S
C241 C247 1.363 1_554 S
C242 C243 1.363 1_556 S
C242 C247 1.379 . S
C242 N249 1.356 . S
C243 C242 1.363 1_554 S
C243 C246 1.363 . S
N244 C246 1.356 . S
N244 H256 0.984 . S
N244 H257 0.985 . S
N245 C247 1.356 1_565 S
N245 H250 0.984 1_455 S
N245 H251 0.985 . S
C246 C240 1.379 . S
C246 C243 1.363 . S
C246 N244 1.356 . S
C247 C241 1.363 1_556 S
C247 C242 1.379 . S
C247 N245 1.356 1_545 S
N248 C240 1.356 1_655 S
N248 H254 0.984 1_655 S
N248 H255 0.984 . S
N249 C242 1.356 . S
N249 H252 0.984 . S
N249 H253 0.985 . S
H250 N245 0.984 1_655 S
H251 N245 0.985 . S
H252 N249 0.984 . S
H253 N249 0.985 . S
H254 N248 0.984 1_455 S
H255 N248 0.984 . S
H256 N244 0.984 . S
H257 N244 0.985 . S
C258 C259 1.363 . S
C258 C264 1.379 . S
C258 N266 1.356 1_545 S
C259 C258 1.363 . S
C259 C265 1.363 . S
C260 C261 1.363 . S
C260 C265 1.379 . S
C260 N267 1.356 . S
C261 C260 1.363 . S
C261 C264 1.363 . S
N262 C264 1.356 . S
N262 H274 0.984 . S
N262 H275 0.985 . S
N263 C265 1.356 . S
N263 H268 0.984 1_545 S
N263 H269 0.985 . S
C264 C258 1.379 . S
C264 C261 1.363 . S
C264 N262 1.356 . S
C265 C259 1.363 . S
C265 C260 1.379 . S
C265 N263 1.356 . S
N266 C258 1.356 1_565 S
N266 H272 0.984 1_455 S
N266 H273 0.984 . S
N267 C260 1.356 . S
N267 H270 0.984 . S
N267 H271 0.985 . S
H268 N263 0.984 1_565 S
H269 N263 0.985 . S
H270 N267 0.984 . S
H271 N267 0.985 . S
H272 N266 0.984 1_655 S
H273 N266 0.984 . S
H274 N262 0.984 . S
H275 N262 0.985 . S
C276 C277 1.363 . S
C276 C282 1.379 . S
C276 N284 1.356 . S
C277 C276 1.363 . S
C277 C283 1.363 . S
C278 C279 1.363 . S
C278 C283 1.379 . S
C278 N285 1.356 1_455 S
C279 C278 1.363 . S
C279 C282 1.363 . S
N280 C282 1.356 . S
N280 H292 0.984 . S
N280 H293 0.985 . S
N281 C283 1.356 . S
N281 H286 0.984 . S
N281 H287 0.985 1_545 S
C282 C276 1.379 . S
C282 C279 1.363 . S
C282 N280 1.356 . S
C283 C277 1.363 . S
C283 C278 1.379 . S
C283 N281 1.356 . S
N284 C276 1.356 . S
N284 H290 0.984 . S
N284 H291 0.984 . S
N285 C278 1.356 1_655 S
N285 H288 0.984 . S
N285 H289 0.985 . S
H286 N281 0.984 . S
H287 N281 0.985 1_565 S
H288 N285 0.984 . S
H289 N285 0.985 . S
H290 N284 0.984 . S
H291 N284 0.984 . S
H292 N280 0.984 . S
H293 N280 0.985 . S
C294 C295 1.363 . S
C294 C300 1.379 . S
C294 N302 1.356 . S
C295 C294 1.363 . S
C295 C301 1.363 . S
C296 C297 1.363 . S
C296 C301 1.379 . S
C296 N303 1.356 . S
C297 C296 1.363 . S
C297 C300 1.363 . S
N298 C300 1.356 . S
N298 H310 0.984 . S
N298 H311 0.985 . S
N299 C301 1.356 . S
N299 H304 0.984 . S
N299 H305 0.985 . S
C300 C294 1.379 . S
C300 C297 1.363 . S
C300 N298 1.356 . S
C301 C295 1.363 . S
C301 C296 1.379 . S
C301 N299 1.356 . S
N302 C294 1.356 . S
N302 H308 0.984 . S
N302 H309 0.984 . S
N303 C296 1.356 . S
N303 H306 0.984 . S
N303 H307 0.985 . S
H304 N299 0.984 . S
H305 N299 0.985 . S
H306 N303 0.984 . S
H307 N303 0.985 . S
H308 N302 0.984 . S
H309 N302 0.984 . S
H310 N298 0.984 . S
H311 N298 0.985 . S
C312 C313 1.363 . S
C312 C318 1.379 . S
C312 N320 1.356 . S
C313 C312 1.363 . S
C313 C319 1.363 . S
C314 C315 1.363 . S
C314 C319 1.379 1_655 S
C314 N321 1.356 . S
C315 C314 1.363 . S
C315 C318 1.363 1_655 S
N316 C318 1.356 1_655 S
N316 H328 0.984 1_655 S
N316 H329 0.985 . S
N317 C319 1.356 . S
N317 H322 0.984 . S
N317 H323 0.985 1_455 S
C318 C312 1.379 . S
C318 C315 1.363 1_455 S
C318 N316 1.356 1_455 S
C319 C313 1.363 . S
C319 C314 1.379 1_455 S
C319 N317 1.356 . S
N320 C312 1.356 . S
N320 H326 0.984 . S
N320 H327 0.984 . S
N321 C314 1.356 . S
N321 H324 0.984 . S
N321 H325 0.985 . S
H322 N317 0.984 . S
H323 N317 0.985 1_655 S
H324 N321 0.984 . S
H325 N321 0.985 . S
H326 N320 0.984 . S
H327 N320 0.984 . S
H328 N316 0.984 1_455 S
H329 N316 0.985 . S
C330 C331 1.363 . S
C330 C336 1.379 . S
C330 N338 1.356 . S
C331 C330 1.363 . S
C331 C337 1.363 . S
C332 C333 1.363 . S
C332 C337 1.379 1_565 S
C332 N339 1.356 . S
C333 C332 1.363 . S
C333 C336 1.363 1_565 S
N334 C336 1.356 1_565 S
N334 H346 0.984 1_565 S
N334 H347 0.985 . S
N335 C337 1.356 . S
N335 H340 0.984 . S
N335 H341 0.985 1_545 S
C336 C330 1.379 . S
C336 C333 1.363 1_545 S
C336 N334 1.356 1_545 S
C337 C331 1.363 . S
C337 C332 1.379 1_545 S
C337 N335 1.356 . S
N338 C330 1.356 . S
N338 H344 0.984 . S
N338 H345 0.984 . S
N339 C332 1.356 . S
N339 H342 0.984 . S
N339 H343 0.985 . S
H340 N335 0.984 . S
H341 N335 0.985 1_565 S
H342 N339 0.984 . S
H343 N339 0.985 . S
H344 N338 0.984 . S
H345 N338 0.984 . S
H346 N334 0.984 1_545 S
H347 N334 0.985 . S
C348 C349 1.363 . S
C348 C354 1.379 . S
C348 N356 1.356 . S
C349 C348 1.363 . S
C349 C355 1.363 . S
C350 C351 1.363 . S
C350 C355 1.379 . S
C350 N357 1.356 . S
C351 C350 1.363 . S
C351 C354 1.363 . S
N352 C354 1.356 . S
N352 H364 0.984 1_655 S
N352 H365 0.985 1_655 S
N353 C355 1.356 . S
N353 H358 0.984 . S
N353 H359 0.985 . S
C354 C348 1.379 . S
C354 C351 1.363 . S
C354 N352 1.356 . S
C355 C349 1.363 . S
C355 C350 1.379 . S
C355 N353 1.356 . S
N356 C348 1.356 . S
N356 H362 0.984 . S
N356 H363 0.984 . S
N357 C350 1.356 . S
N357 H360 0.984 . S
N357 H361 0.985 . S
H358 N353 0.984 . S
H359 N353 0.985 . S
H360 N357 0.984 . S
H361 N357 0.985 . S
H362 N356 0.984 . S
H363 N356 0.984 . S
H364 N352 0.984 1_455 S
H365 N352 0.985 1_455 S
C366 C367 1.363 . S
C366 C372 1.379 . S
C366 N374 1.356 . S
C367 C366 1.363 . S
C367 C373 1.363 . S
C368 C369 1.363 . S
C368 C373 1.379 . S
C368 N375 1.356 . S
C369 C368 1.363 . S
C369 C372 1.363 . S
N370 C372 1.356 . S
N370 H382 0.984 . S
N370 H383 0.985 1_565 S
N371 C373 1.356 . S
N371 H376 0.984 . S
N371 H377 0.985 . S
C372 C366 1.379 . S
C372 C369 1.363 . S
C372 N370 1.356 . S
C373 C367 1.363 . S
C373 C368 1.379 . S
C373 N371 1.356 . S
N374 C366 1.356 . S
N374 H380 0.984 . S
N374 H381 0.984 . S
N375 C368 1.356 . S
N375 H378 0.984 . S
N375 H379 0.985 . S
H376 N371 0.984 . S
H377 N371 0.985 . S
H378 N375 0.984 . S
H379 N375 0.985 . S
H380 N374 0.984 . S
H381 N374 0.984 . S
H382 N370 0.984 . S
H383 N370 0.985 1_545 S
C384 C385 1.363 . S
C384 C390 1.379 . S
C384 N392 1.356 . S
C385 C384 1.363 . S
C385 C391 1.363 . S
C386 C387 1.363 . S
C386 C391 1.379 . S
C386 N393 1.356 . S
C387 C386 1.363 . S
C387 C390 1.363 . S
N388 C390 1.356 . S
N388 H400 0.984 . S
N388 H401 0.985 . S
N389 C391 1.356 . S
N389 H394 0.984 . S
N389 H395 0.985 . S
C390 C384 1.379 . S
C390 C387 1.363 . S
C390 N388 1.356 . S
C391 C385 1.363 . S
C391 C386 1.379 . S
C391 N389 1.356 . S
N392 C384 1.356 . S
N392 H398 0.984 . S
N392 H399 0.984 . S
N393 C386 1.356 . S
N393 H396 0.984 . S
N393 H397 0.985 . S
H394 N389 0.984 . S
H395 N389 0.985 . S
H396 N393 0.984 . S
H397 N393 0.985 . S
H398 N392 0.984 . S
H399 N392 0.984 . S
H400 N388 0.984 . S
H401 N388 0.985 . S
C402 C403 1.363 . S
C402 C408 1.379 . S
C402 N410 1.356 . S
C403 C402 1.363 . S
C403 C409 1.363 1_554 S
C404 C405 1.363 1_556 S
C404 C409 1.379 . S
C404 N411 1.356 1_545 S
C405 C404 1.363 1_554 S
C405 C408 1.363 . S
N406 C408 1.356 . S
N406 H418 0.984 . S
N406 H419 0.985 1_545 S
N407 C409 1.356 . S
N407 H412 0.984 . S
N407 H413 0.985 . S
C408 C402 1.379 . S
C408 C405 1.363 . S
C408 N406 1.356 . S
C409 C403 1.363 1_556 S
C409 C404 1.379 . S
C409 N407 1.356 . S
N410 C402 1.356 . S
N410 H416 0.984 . S
N410 H417 0.984 . S
N411 C404 1.356 1_565 S
N411 H414 0.984 . S
N411 H415 0.985 . S
H412 N407 0.984 . S
H413 N407 0.985 . S
H414 N411 0.984 . S
H415 N411 0.985 . S
H416 N410 0.984 . S
H417 N410 0.984 . S
H418 N406 0.984 . S
H419 N406 0.985 1_565 S
C420 C421 1.363 . S
C420 C426 1.379 . S
C420 N428 1.356 . S
C421 C420 1.363 . S
C421 C427 1.363 . S
C422 C423 1.363 . S
C422 C427 1.379 . S
C422 N429 1.356 . S
C423 C422 1.363 . S
C423 C426 1.363 . S
N424 C426 1.356 . S
N424 H436 0.984 . S
N424 H437 0.985 . S
N425 C427 1.356 . S
N425 H430 0.984 . S
N425 H431 0.985 . S
C426 C420 1.379 . S
C426 C423 1.363 . S
C426 N424 1.356 . S
C427 C421 1.363 . S
C427 C422 1.379 . S
C427 N425 1.356 . S
N428 C420 1.356 . S
N428 H434 0.984 . S
N428 H435 0.984 . S
N429 C422 1.356 . S
N429 H432 0.984 . S
N429 H433 0.985 . S
H430 N425 0.984 . S
H431 N425 0.985 . S
H432 N429 0.984 . S
H433 N429 0.985 . S
H434 N428 0.984 . S
H435 N428 0.984 . S
H436 N424 0.984 . S
H437 N424 0.985 . S
C438 C439 1.363 . S
C438 C444 1.379 . S
C438 N446 1.356 . S
C439 C438 1.363 . S
C439 C445 1.363 . S
C440 C441 1.363 . S
C440 C445 1.379 . S
C440 N447 1.356 . S
C441 C440 1.363 . S
C441 C444 1.363 . S
N442 C444 1.356 . S
N442 H454 0.984 . S
N442 H455 0.985 . S
N443 C445 1.356 1_655 S
N443 H448 0.984 . S
N443 H449 0.985 . S
C444 C438 1.379 . S
C444 C441 1.363 . S
C444 N442 1.356 . S
C445 C439 1.363 . S
C445 C440 1.379 . S
C445 N443 1.356 1_455 S
N446 C438 1.356 . S
N446 H452 0.984 . S
N446 H453 0.984 . S
N447 C440 1.356 . S
N447 H450 0.984 . S
N447 H451 0.985 . S
H448 N443 0.984 . S
H449 N443 0.985 . S
H450 N447 0.984 . S
H451 N447 0.985 . S
H452 N446 0.984 . S
H453 N446 0.984 . S
H454 N442 0.984 . S
H455 N442 0.985 . S
C456 C457 1.363 . S
C456 C462 1.379 . S
C456 N464 1.356 . S
C457 C456 1.363 . S
C457 C463 1.363 . S
C458 C459 1.363 . S
C458 C463 1.379 . S
C458 N465 1.356 . S
C459 C458 1.363 . S
C459 C462 1.363 . S
N460 C462 1.356 . S
N460 H472 0.984 . S
N460 H473 0.985 . S
N461 C463 1.356 . S
N461 H466 0.984 . S
N461 H467 0.985 . S
C462 C456 1.379 . S
C462 C459 1.363 . S
C462 N460 1.356 . S
C463 C457 1.363 . S
C463 C458 1.379 . S
C463 N461 1.356 . S
N464 C456 1.356 . S
N464 H470 0.984 . S
N464 H471 0.984 . S
N465 C458 1.356 . S
N465 H468 0.984 . S
N465 H469 0.985 . S
H466 N461 0.984 . S
H467 N461 0.985 . S
H468 N465 0.984 . S
H469 N465 0.985 . S
H470 N464 0.984 . S
H471 N464 0.984 . S
H472 N460 0.984 . S
H473 N460 0.985 . S
C474 C475 1.363 . S
C474 C480 1.379 . S
C474 N482 1.356 . S
C475 C474 1.363 . S
C475 C481 1.363 . S
C476 C477 1.363 . S
C476 C481 1.379 . S
C476 N483 1.356 . S
C477 C476 1.363 . S
C477 C480 1.363 . S
N478 C480 1.356 . S
N478 H490 0.984 1_455 S
N478 H491 0.985 . S
N479 C481 1.356 . S
N479 H484 0.984 . S
N479 H485 0.985 . S
C480 C474 1.379 . S
C480 C477 1.363 . S
C480 N478 1.356 . S
C481 C475 1.363 . S
C481 C476 1.379 . S
C481 N479 1.356 . S
N482 C474 1.356 . S
N482 H488 0.984 . S
N482 H489 0.984 . S
N483 C476 1.356 . S
N483 H486 0.984 . S
N483 H487 0.985 . S
H484 N479 0.984 . S
H485 N479 0.985 . S
H486 N483 0.984 . S
H487 N483 0.985 . S
H488 N482 0.984 . S
H489 N482 0.984 . S
H490 N478 0.984 1_655 S
H491 N478 0.985 . S
C492 C493 1.363 . S
C492 C498 1.379 . S
C492 N500 1.356 . S
C493 C492 1.363 . S
C493 C499 1.363 . S
C494 C495 1.363 . S
C494 C499 1.379 . S
C494 N501 1.356 . S
C495 C494 1.363 . S
C495 C498 1.363 . S
N496 C498 1.356 . S
N496 H508 0.984 . S
N496 H509 0.985 . S
N497 C499 1.357 . S
N497 H502 0.985 . S
N497 H503 0.983 1_655 S
C498 C492 1.379 . S
C498 C495 1.363 . S
C498 N496 1.356 . S
C499 C493 1.363 . S
C499 C494 1.379 . S
C499 N497 1.357 . S
N500 C492 1.356 . S
N500 H506 0.984 . S
N500 H507 0.984 . S
N501 C494 1.356 . S
N501 H504 0.984 . S
N501 H505 0.985 1_655 S
H502 N497 0.985 . S
H503 N497 0.983 1_455 S
H504 N501 0.984 . S
H505 N501 0.985 1_455 S
H506 N500 0.984 . S
H507 N500 0.984 . S
H508 N496 0.984 . S
H509 N496 0.985 . S
C510 C511 1.363 . S
C510 C516 1.379 . S
C510 N518 1.356 . S
C511 C510 1.363 . S
C511 C517 1.363 . S
C512 C513 1.363 . S
C512 C517 1.379 . S
C512 N519 1.356 . S
C513 C512 1.363 . S
C513 C516 1.363 . S
N514 C516 1.356 . S
N514 H526 0.984 . S
N514 H527 0.985 . S
N515 C517 1.356 1_545 S
N515 H520 0.984 1_545 S
N515 H521 0.985 . S
C516 C510 1.379 . S
C516 C513 1.363 . S
C516 N514 1.356 . S
C517 C511 1.363 . S
C517 C512 1.379 . S
C517 N515 1.356 1_565 S
N518 C510 1.356 . S
N518 H524 0.984 . S
N518 H525 0.984 . S
N519 C512 1.356 . S
N519 H522 0.984 . S
N519 H523 0.985 1_565 S
H520 N515 0.984 1_565 S
H521 N515 0.985 . S
H522 N519 0.984 . S
H523 N519 0.985 1_545 S
H524 N518 0.984 . S
H525 N518 0.984 . S
H526 N514 0.984 . S
H527 N514 0.985 . S
C528 C529 1.363 1_655 S
C528 C534 1.377 1_655 S
C528 N536 1.356 . S
C529 C528 1.363 1_455 S
C529 C535 1.363 . S
C530 C531 1.363 . S
C530 C535 1.379 . S
C530 N537 1.356 . S
C531 C530 1.363 . S
C531 C534 1.370 . S
N532 C534 1.353 1_655 S
N532 H544 0.984 . S
N532 H545 0.985 . S
N533 C535 1.356 . S
N533 H538 0.984 . S
N533 H539 0.985 . S
C534 C528 1.377 1_455 S
C534 C531 1.370 . S
C534 N532 1.353 1_455 S
C535 C529 1.363 . S
C535 C530 1.379 . S
C535 N533 1.356 . S
N536 C528 1.356 . S
N536 H542 0.984 . S
N536 H543 0.984 . S
N537 C530 1.356 . S
N537 H540 0.984 . S
N537 H541 0.985 . S
H538 N533 0.984 . S
H539 N533 0.985 . S
H540 N537 0.984 . S
H541 N537 0.985 . S
H542 N536 0.984 . S
H543 N536 0.984 . S
H544 N532 0.984 . S
H545 N532 0.985 . S
C546 C547 1.363 . S
C546 C552 1.379 . S
C546 N554 1.356 . S
C547 C546 1.363 . S
C547 C553 1.363 1_545 S
C548 C549 1.363 . S
C548 C553 1.379 1_545 S
C548 N555 1.356 1_545 S
C549 C548 1.363 . S
C549 C552 1.363 . S
N550 C552 1.356 . S
N550 H562 0.984 . S
N550 H563 0.985 . S
N551 C553 1.356 . S
N551 H556 0.984 . S
N551 H557 0.985 . S
C552 C546 1.379 . S
C552 C549 1.363 . S
C552 N550 1.356 . S
C553 C547 1.363 1_565 S
C553 C548 1.379 1_565 S
C553 N551 1.356 . S
N554 C546 1.356 . S
N554 H560 0.984 . S
N554 H561 0.984 . S
N555 C548 1.356 1_565 S
N555 H558 0.984 1_565 S
N555 H559 0.985 . S
H556 N551 0.984 . S
H557 N551 0.985 . S
H558 N555 0.984 1_545 S
H559 N555 0.985 . S
H560 N554 0.984 . S
H561 N554 0.984 . S
H562 N550 0.984 . S
H563 N550 0.985 . S
C241 C129 1.251 1_455 S
C243 C9 1.251 . S
C259 C169 1.251 1_545 S
C261 C49 1.251 . S
C277 C209 1.251 . S
C279 C89 1.251 . S
C295 C15 1.176 . S
C297 C86 1.275 . S
C313 C55 1.175 . S
C315 C126 1.273 . S
C331 C95 1.176 . S
C333 C166 1.274 . S
C349 C135 1.176 . S
C351 C206 1.275 . S
C367 C175 1.176 . S
C369 C6 1.274 . S
C385 C215 1.176 . S
C387 C46 1.274 . S
C403 C18 1.645 . S
C405 C138 1.643 1_545 S
C421 C58 1.644 . S
C423 C178 1.644 . S
C439 C98 1.645 1_455 S
C441 C218 1.645 . S
C457 C10 4.226 . S
C459 C59 4.289 . S
C475 C50 4.226 . S
C477 C99 4.289 . S
C493 C90 4.226 . S
C495 C139 4.289 . S
C511 C130 4.226 . S
C513 C179 4.290 . S
C529 C170 4.226 1_455 S
C531 C219 4.289 . S
C547 C210 4.226 1_545 S
C549 C19 4.290 . S
