# Generated by pormake.
# Topology sxe, (6)-cn, num edge types: 1
# Building blocks:
#     Node 0, Type 0, BuildingBlock: OJICUG_clean_sbu_0, # of connection points: 6
#     Node 1, Type 0, BuildingBlock: OJICUG_clean_sbu_0, # of connection points: 6
#     Node 2, Type 0, BuildingBlock: OJICUG_clean_sbu_0, # of connection points: 6
#     Node 3, Type 0, BuildingBlock: OJICUG_clean_sbu_0, # of connection points: 6
#     Node 4, Type 0, BuildingBlock: OJICUG_clean_sbu_0, # of connection points: 6
#     Node 5, Type 0, BuildingBlock: OJICUG_clean_sbu_0, # of connection points: 6
#     Node 6, Type 0, BuildingBlock: OJICUG_clean_sbu_0, # of connection points: 6
#     Node 7, Type 0, BuildingBlock: OJICUG_clean_sbu_0, # of connection points: 6
#     Node 8, Type 0, BuildingBlock: OJICUG_clean_sbu_0, # of connection points: 6
#     Node 9, Type 0, BuildingBlock: OJICUG_clean_sbu_0, # of connection points: 6
#     Node 10, Type 0, BuildingBlock: OJICUG_clean_sbu_0, # of connection points: 6
#     Node 11, Type 0, BuildingBlock: OJICUG_clean_sbu_0, # of connection points: 6
#     Node 12, Type 0, BuildingBlock: OJICUG_clean_sbu_0, # of connection points: 6
#     Node 13, Type 0, BuildingBlock: OJICUG_clean_sbu_0, # of connection points: 6
#     Node 14, Type 0, BuildingBlock: OJICUG_clean_sbu_0, # of connection points: 6
#     Node 15, Type 0, BuildingBlock: OJICUG_clean_sbu_0, # of connection points: 6
#     Node 16, Type 0, BuildingBlock: OJICUG_clean_sbu_0, # of connection points: 6
#     Node 17, Type 0, BuildingBlock: OJICUG_clean_sbu_0, # of connection points: 6
#     Node 18, Type 0, BuildingBlock: OJICUG_clean_sbu_0, # of connection points: 6
#     Node 19, Type 0, BuildingBlock: OJICUG_clean_sbu_0, # of connection points: 6
#     Node 20, Type 0, BuildingBlock: OJICUG_clean_sbu_0, # of connection points: 6
#     Node 21, Type 0, BuildingBlock: OJICUG_clean_sbu_0, # of connection points: 6
#     Node 22, Type 0, BuildingBlock: OJICUG_clean_sbu_0, # of connection points: 6
#     Node 23, Type 0, BuildingBlock: OJICUG_clean_sbu_0, # of connection points: 6
#     Edge 24, Type (0, 0), BuildingBlock: OJICUG_clean_linker_0, # of connection points: 2
#     Edge 25, Type (0, 0), BuildingBlock: OJICUG_clean_linker_0, # of connection points: 2
#     Edge 26, Type (0, 0), BuildingBlock: OJICUG_clean_linker_0, # of connection points: 2
#     Edge 27, Type (0, 0), BuildingBlock: OJICUG_clean_linker_0, # of connection points: 2
#     Edge 28, Type (0, 0), BuildingBlock: OJICUG_clean_linker_0, # of connection points: 2
#     Edge 29, Type (0, 0), BuildingBlock: OJICUG_clean_linker_0, # of connection points: 2
#     Edge 30, Type (0, 0), BuildingBlock: OJICUG_clean_linker_0, # of connection points: 2
#     Edge 31, Type (0, 0), BuildingBlock: OJICUG_clean_linker_0, # of connection points: 2
#     Edge 32, Type (0, 0), BuildingBlock: OJICUG_clean_linker_0, # of connection points: 2
#     Edge 33, Type (0, 0), BuildingBlock: OJICUG_clean_linker_0, # of connection points: 2
#     Edge 34, Type (0, 0), BuildingBlock: OJICUG_clean_linker_0, # of connection points: 2
#     Edge 35, Type (0, 0), BuildingBlock: OJICUG_clean_linker_0, # of connection points: 2
#     Edge 36, Type (0, 0), BuildingBlock: OJICUG_clean_linker_0, # of connection points: 2
#     Edge 37, Type (0, 0), BuildingBlock: OJICUG_clean_linker_0, # of connection points: 2
#     Edge 38, Type (0, 0), BuildingBlock: OJICUG_clean_linker_0, # of connection points: 2
#     Edge 39, Type (0, 0), BuildingBlock: OJICUG_clean_linker_0, # of connection points: 2
#     Edge 40, Type (0, 0), BuildingBlock: OJICUG_clean_linker_0, # of connection points: 2
#     Edge 41, Type (0, 0), BuildingBlock: OJICUG_clean_linker_0, # of connection points: 2
#     Edge 42, Type (0, 0), BuildingBlock: OJICUG_clean_linker_0, # of connection points: 2
#     Edge 43, Type (0, 0), BuildingBlock: OJICUG_clean_linker_0, # of connection points: 2
#     Edge 44, Type (0, 0), BuildingBlock: OJICUG_clean_linker_0, # of connection points: 2
#     Edge 45, Type (0, 0), BuildingBlock: OJICUG_clean_linker_0, # of connection points: 2
#     Edge 46, Type (0, 0), BuildingBlock: OJICUG_clean_linker_0, # of connection points: 2
#     Edge 47, Type (0, 0), BuildingBlock: OJICUG_clean_linker_0, # of connection points: 2
#     Edge 48, Type (0, 0), BuildingBlock: OJICUG_clean_linker_0, # of connection points: 2
#     Edge 49, Type (0, 0), BuildingBlock: OJICUG_clean_linker_0, # of connection points: 2
#     Edge 50, Type (0, 0), BuildingBlock: OJICUG_clean_linker_0, # of connection points: 2
#     Edge 51, Type (0, 0), BuildingBlock: OJICUG_clean_linker_0, # of connection points: 2
#     Edge 52, Type (0, 0), BuildingBlock: OJICUG_clean_linker_0, # of connection points: 2
#     Edge 53, Type (0, 0), BuildingBlock: OJICUG_clean_linker_0, # of connection points: 2
#     Edge 54, Type (0, 0), BuildingBlock: OJICUG_clean_linker_0, # of connection points: 2
#     Edge 55, Type (0, 0), BuildingBlock: OJICUG_clean_linker_0, # of connection points: 2
#     Edge 56, Type (0, 0), BuildingBlock: OJICUG_clean_linker_0, # of connection points: 2
#     Edge 57, Type (0, 0), BuildingBlock: OJICUG_clean_linker_0, # of connection points: 2
#     Edge 58, Type (0, 0), BuildingBlock: OJICUG_clean_linker_0, # of connection points: 2
#     Edge 59, Type (0, 0), BuildingBlock: OJICUG_clean_linker_0, # of connection points: 2
#     Edge 60, Type (0, 0), BuildingBlock: OJICUG_clean_linker_0, # of connection points: 2
#     Edge 61, Type (0, 0), BuildingBlock: OJICUG_clean_linker_0, # of connection points: 2
#     Edge 62, Type (0, 0), BuildingBlock: OJICUG_clean_linker_0, # of connection points: 2
#     Edge 63, Type (0, 0), BuildingBlock: OJICUG_clean_linker_0, # of connection points: 2
#     Edge 64, Type (0, 0), BuildingBlock: OJICUG_clean_linker_0, # of connection points: 2
#     Edge 65, Type (0, 0), BuildingBlock: OJICUG_clean_linker_0, # of connection points: 2
#     Edge 66, Type (0, 0), BuildingBlock: OJICUG_clean_linker_0, # of connection points: 2
#     Edge 67, Type (0, 0), BuildingBlock: OJICUG_clean_linker_0, # of connection points: 2
#     Edge 68, Type (0, 0), BuildingBlock: OJICUG_clean_linker_0, # of connection points: 2
#     Edge 69, Type (0, 0), BuildingBlock: OJICUG_clean_linker_0, # of connection points: 2
#     Edge 70, Type (0, 0), BuildingBlock: OJICUG_clean_linker_0, # of connection points: 2
#     Edge 71, Type (0, 0), BuildingBlock: OJICUG_clean_linker_0, # of connection points: 2
#     Edge 72, Type (0, 0), BuildingBlock: OJICUG_clean_linker_0, # of connection points: 2
#     Edge 73, Type (0, 0), BuildingBlock: OJICUG_clean_linker_0, # of connection points: 2
#     Edge 74, Type (0, 0), BuildingBlock: OJICUG_clean_linker_0, # of connection points: 2
#     Edge 75, Type (0, 0), BuildingBlock: OJICUG_clean_linker_0, # of connection points: 2
#     Edge 76, Type (0, 0), BuildingBlock: OJICUG_clean_linker_0, # of connection points: 2
#     Edge 77, Type (0, 0), BuildingBlock: OJICUG_clean_linker_0, # of connection points: 2
#     Edge 78, Type (0, 0), BuildingBlock: OJICUG_clean_linker_0, # of connection points: 2
#     Edge 79, Type (0, 0), BuildingBlock: OJICUG_clean_linker_0, # of connection points: 2
#     Edge 80, Type (0, 0), BuildingBlock: OJICUG_clean_linker_0, # of connection points: 2
#     Edge 81, Type (0, 0), BuildingBlock: OJICUG_clean_linker_0, # of connection points: 2
#     Edge 82, Type (0, 0), BuildingBlock: OJICUG_clean_linker_0, # of connection points: 2
#     Edge 83, Type (0, 0), BuildingBlock: OJICUG_clean_linker_0, # of connection points: 2
#     Edge 84, Type (0, 0), BuildingBlock: OJICUG_clean_linker_0, # of connection points: 2
#     Edge 85, Type (0, 0), BuildingBlock: OJICUG_clean_linker_0, # of connection points: 2
#     Edge 86, Type (0, 0), BuildingBlock: OJICUG_clean_linker_0, # of connection points: 2
#     Edge 87, Type (0, 0), BuildingBlock: OJICUG_clean_linker_0, # of connection points: 2
#     Edge 88, Type (0, 0), BuildingBlock: OJICUG_clean_linker_0, # of connection points: 2
#     Edge 89, Type (0, 0), BuildingBlock: OJICUG_clean_linker_0, # of connection points: 2
#     Edge 90, Type (0, 0), BuildingBlock: OJICUG_clean_linker_0, # of connection points: 2
#     Edge 91, Type (0, 0), BuildingBlock: OJICUG_clean_linker_0, # of connection points: 2
#     Edge 92, Type (0, 0), BuildingBlock: OJICUG_clean_linker_0, # of connection points: 2
#     Edge 93, Type (0, 0), BuildingBlock: OJICUG_clean_linker_0, # of connection points: 2
#     Edge 94, Type (0, 0), BuildingBlock: OJICUG_clean_linker_0, # of connection points: 2
#     Edge 95, Type (0, 0), BuildingBlock: OJICUG_clean_linker_0, # of connection points: 2
# Relax obj value: 0.419
# Max RMSD: 0.272
# Mean RMSD: 0.272
data_MOF--net-sxe--node1-OJICUG_clean_sbu_0--edge1-OJICUG_clean_linker_0
_symmetry_space_group_name_H-M    P1
_symmetry_Int_Tables_number       1
_symmetry_cell_setting            triclinic
loop_
_symmetry_equiv_pos_as_xyz
'x, y, z'
_cell_length_a     36.930274
_cell_length_b     36.93702
_cell_length_c     36.81914
_cell_angle_alpha  89.642326
_cell_angle_beta   89.65269
_cell_angle_gamma 90.142401
loop_
_atom_site_label
_atom_site_type_symbol
_atom_site_fract_x
_atom_site_fract_y
_atom_site_fract_z
_atom_type_partial_charge
Sc0 Sc 0.19606 0.3691 0.19739 0.0
Sc1 Sc 0.21192 0.46084 0.18463 0.0
Sc2 Sc 0.15715 0.42973 0.2564 0.0
O3 O 0.18865 0.42005 0.21308 0.0
C4 C 0.11374 0.36642 0.22288 0.0
C5 C 0.18596 0.40661 0.1231 0.0
C6 C 0.13413 0.49095 0.20008 0.0
C7 C 0.27352 0.40517 0.18209 0.0
C8 C 0.20205 0.36016 0.28092 0.0
C9 C 0.21904 0.48623 0.26715 0.0
O10 O 0.14257 0.3512 0.21208 0.0
O11 O 0.20409 0.43428 0.13274 0.0
O12 O 0.13242 0.47589 0.23118 0.0
O13 O 0.25077 0.37943 0.18019 0.0
O14 O 0.17792 0.38407 0.28636 0.0
O15 O 0.22303 0.49178 0.23316 0.0
O16 O 0.21585 0.35428 0.24979 0.0
O17 O 0.26491 0.43756 0.18923 0.0
O18 O 0.1985 0.46175 0.28008 0.0
O19 O 0.17569 0.38219 0.14522 0.0
O20 O 0.11346 0.39816 0.23575 0.0
O21 O 0.16027 0.48611 0.17803 0.0
Sc22 Sc 0.27723 0.59318 0.71846 0.0
Sc23 Sc 0.25812 0.50343 0.69455 0.0
Sc24 Sc 0.32064 0.5231 0.76481 0.0
O25 O 0.28535 0.53979 0.7259 0.0
C26 C 0.36187 0.59192 0.73376 0.0
C27 C 0.28165 0.56376 0.63747 0.0
C28 C 0.33675 0.46788 0.70106 0.0
C29 C 0.19753 0.56261 0.7064 0.0
C30 C 0.27957 0.58717 0.80455 0.0
C31 C 0.25432 0.46817 0.77323 0.0
O32 O 0.33326 0.60679 0.72221 0.0
O33 O 0.27142 0.53174 0.64518 0.0
O34 O 0.3459 0.48453 0.72961 0.0
O35 O 0.22027 0.58698 0.71416 0.0
O36 O 0.30007 0.55967 0.80533 0.0
O37 O 0.24228 0.47189 0.74117 0.0
O38 O 0.26863 0.60176 0.77529 0.0
O39 O 0.20641 0.53062 0.69787 0.0
O40 O 0.28248 0.48414 0.78472 0.0
O41 O 0.28491 0.58857 0.66101 0.0
O42 O 0.36199 0.56102 0.74905 0.0
O43 O 0.30598 0.47169 0.6863 0.0
Sc44 Sc 0.64574 0.10431 0.76496 0.0
Sc45 Sc 0.69081 0.02137 0.77111 0.0
Sc46 Sc 0.62003 0.03423 0.70931 0.0
O47 O 0.65211 0.05297 0.74898 0.0
C48 C 0.56588 0.08626 0.75276 0.0
C49 C 0.6641 0.0642 0.83969 0.0
C50 C 0.62092 0.96958 0.76422 0.0
C51 C 0.73079 0.09707 0.76021 0.0
C52 C 0.64136 0.11008 0.67944 0.0
C53 C 0.69479 -0.00318 0.68984 0.0
O54 O 0.58926 0.09717 0.7752 0.0
O55 O 0.67591 0.03499 0.82603 0.0
O56 O 0.60261 -0.00953 0.74369 0.0
O57 O 0.70185 0.11498 0.75561 0.0
O58 O 0.6385 0.07641 0.67348 0.0
O59 O 0.71094 0.00519 0.71888 0.0
O60 O 0.63621 0.12381 0.71064 0.0
O61 O 0.73116 0.06384 0.76958 0.0
O62 O 0.6611 0.0013 0.68544 0.0
O63 O 0.65468 0.09129 0.82068 0.0
O64 O 0.57418 0.06605 0.72617 0.0
O65 O 0.65353 0.97614 0.77358 0.0
Sc66 Sc 0.83373 0.93698 0.20923 0.0
Sc67 Sc 0.76642 0.95638 0.27399 0.0
Sc68 Sc 0.78108 0.86826 0.24714 0.0
O69 O 0.79438 0.92046 0.24359 0.0
C70 C 0.79562 0.87663 0.16217 0.0
C71 C 0.76646 -0.00988 0.19625 0.0
C72 C 0.70512 0.89815 0.26083 0.0
C73 C 0.84385 -0.00557 0.26966 0.0
C74 C 0.86662 0.86473 0.24278 0.0
C75 C 0.78381 0.89632 0.32964 0.0
O76 O 0.81506 0.90482 0.16451 0.0
O77 O 0.74847 -0.01767 0.22498 0.0
O78 O 0.72518 0.87996 0.23997 0.0
O79 O 0.85824 0.97139 0.2488 0.0
O80 O 0.83619 0.85197 0.25281 0.0
O81 O 0.78448 0.93011 0.32246 0.0
O82 O 0.87013 0.89486 0.22611 0.0
O83 O 0.81037 -0.00596 0.27734 0.0
O84 O 0.77838 0.87204 0.3057 0.0
O85 O 0.79871 0.97927 0.18998 0.0
O86 O 0.78249 0.86018 0.1896 0.0
O87 O 0.71721 0.92484 0.27844 0.0
Sc88 Sc 0.25515 0.1271 0.43096 0.0
Sc89 Sc 0.19503 0.19808 0.45116 0.0
Sc90 Sc 0.19767 0.16107 0.36573 0.0
O91 O 0.21577 0.16158 0.41656 0.0
C92 C 0.28164 0.16047 0.35596 0.0
C93 C 0.27887 0.1987 0.47075 0.0
C94 C 0.19835 0.24388 0.38108 0.0
C95 C 0.20122 0.12764 0.49941 0.0
C96 C 0.21485 0.07771 0.37717 0.0
C97 C 0.12624 0.16801 0.40721 0.0
O98 O 0.28579 0.13728 0.3814 0.0
O99 O 0.24673 0.21025 0.47512 0.0
O100 O 0.18512 0.21742 0.36401 0.0
O101 O 0.2282 0.11529 0.48168 0.0
O102 O 0.20679 0.10485 0.35779 0.0
O103 O 0.1407 0.19027 0.42936 0.0
O104 O 0.22834 0.08087 0.40853 0.0
O105 O 0.18445 0.15647 0.49066 0.0
O106 O 0.14478 0.14903 0.38527 0.0
O107 O 0.28614 0.16965 0.45414 0.0
O108 O 0.25113 0.17402 0.34759 0.0
O109 O 0.20669 0.24192 0.41429 0.0
Sc110 Sc 0.25416 0.77841 0.87175 0.0
Sc111 Sc 0.27377 0.7567 0.96237 0.0
Sc112 Sc 0.20595 0.82134 0.94077 0.0
O113 O 0.24469 0.78553 0.92511 0.0
C114 C 0.23951 0.86306 0.87317 0.0
C115 C 0.33357 0.77956 0.90402 0.0
C116 C 0.26851 0.83528 -0.00209 0.0
C117 C 0.26181 0.69775 0.90201 0.0
C118 C 0.16826 0.78092 0.87534 0.0
C119 C 0.19433 0.75559 -0.00411 0.0
O120 O 0.25139 0.8346 0.85835 0.0
O121 O 0.32449 0.76762 0.93524 0.0
O122 O 0.24059 0.84516 0.98055 0.0
O123 O 0.25752 0.72136 0.87742 0.0
O124 O 0.1665 0.8013 0.90291 0.0
O125 O 0.22611 0.74274 -0.00677 0.0
O126 O 0.19789 0.7704 0.86132 0.0
O127 O 0.26817 0.70544 0.93488 0.0
O128 O 0.18402 0.7838 0.97915 0.0
O129 O 0.31107 0.78537 0.8787 0.0
O130 O 0.22325 0.8628 0.9036 0.0
O131 O 0.28291 0.80426 -0.00573 0.0
Sc132 Sc 0.75773 0.33031 0.52727 0.0
Sc133 Sc 0.69516 0.26081 0.51194 0.0
Sc134 Sc 0.72407 0.27867 0.59856 0.0
O135 O 0.72522 0.29102 0.54612 0.0
C136 C 0.80795 0.29502 0.58668 0.0
C137 C 0.77126 0.2613 0.47661 0.0
C138 C 0.7091 0.20357 0.57385 0.0
C139 C 0.69652 0.3369 0.47113 0.0
C140 C 0.72656 0.36404 0.60069 0.0
C141 C 0.64089 0.2789 0.57228 0.0
O142 O 0.80426 0.31291 0.55748 0.0
O143 O 0.74423 0.24214 0.48696 0.0
O144 O 0.73406 0.22367 0.58522 0.0
O145 O 0.71537 0.35283 0.49481 0.0
O146 O 0.71673 0.33381 0.61428 0.0
O147 O 0.64732 0.28014 0.5382 0.0
O148 O 0.7424 0.36701 0.56994 0.0
O149 O 0.69166 0.30288 0.47156 0.0
O150 O 0.66549 0.27366 0.59609 0.0
O151 O 0.77555 0.29469 0.4846 0.0
O152 O 0.78149 0.28254 0.60502 0.0
O153 O 0.69019 0.21359 0.54711 0.0
Sc154 Sc 0.70987 0.65345 0.03454 0.0
Sc155 Sc 0.78173 0.70863 0.00469 0.0
Sc156 Sc 0.76753 0.69229 0.09649 0.0
O157 O 0.75281 0.68494 0.04503 0.0
C158 C 0.68383 0.69943 0.10275 0.0
C159 C 0.70028 0.71539 0.97699 0.0
C160 C 0.78227 0.77001 0.06121 0.0
C161 C 0.76757 0.63045 0.97445 0.0
C162 C 0.74194 0.61019 0.09937 0.0
C163 C 0.84212 0.68181 0.05995 0.0
O164 O 0.67869 0.67512 0.07899 0.0
O165 O 0.73418 0.72013 0.97265 0.0
O166 O 0.78461 0.74701 0.08681 0.0
O167 O 0.73661 0.62813 -0.01044 0.0
O168 O 0.75282 0.63893 0.11446 0.0
O169 O 0.83288 0.70015 0.03211 0.0
O170 O 0.72928 0.60992 0.06747 0.0
O171 O 0.78887 0.65716 0.97895 0.0
O172 O 0.81983 0.67195 0.0844 0.0
O173 O 0.68702 0.6943 0.00091 0.0
O174 O 0.71497 0.71222 0.10989 0.0
O175 O 0.77614 0.7615 0.02848 0.0
Sc176 Sc 0.36661 0.22102 0.17949 0.0
Sc177 Sc 0.45282 0.19408 0.20148 0.0
Sc178 Sc 0.43924 0.25535 0.13007 0.0
O179 O 0.41942 0.2233 0.16963 0.0
C180 C 0.36815 0.22289 0.09375 0.0
C181 C 0.39437 0.13855 0.18149 0.0
C182 C 0.49609 0.19464 0.12662 0.0
C183 C 0.38975 0.2093 0.25758 0.0
C184 C 0.37831 0.30499 0.16301 0.0
C185 C 0.48701 0.2706 0.2007 0.0
O186 O 0.35405 0.21297 0.12373 0.0
O187 O 0.42819 0.14546 0.18242 0.0
O188 O 0.47275 0.21289 0.10942 0.0
O189 O 0.37474 0.23084 0.23571 0.0
O190 O 0.40808 0.30163 0.14614 0.0
O191 O 0.47643 0.24371 0.21998 0.0
O192 O 0.35978 0.2784 0.17488 0.0
O193 O 0.41678 0.19056 0.24802 0.0
O194 O 0.48039 0.27415 0.16681 0.0
O195 O 0.36986 0.16271 0.18505 0.0
O196 O 0.39836 0.23954 0.09158 0.0
O197 O 0.49442 0.19018 0.16076 0.0
Sc198 Sc 0.92683 0.20696 0.80912 0.0
Sc199 Sc 0.96225 0.27693 0.75554 0.0
Sc200 Sc 0.8702 0.27025 0.77077 0.0
O201 O 0.91985 0.2509 0.77808 0.0
C202 C 0.85541 0.1882 0.76385 0.0
C203 C -0.01579 0.19344 0.74885 0.0
C204 C 0.90783 0.28267 0.69338 0.0
C205 C -0.00984 0.25964 0.83375 0.0
C206 C 0.86545 0.24395 0.85277 0.0
C207 C 0.91167 0.34133 0.78144 0.0
O208 O 0.87898 0.18088 0.78794 0.0
O209 O -0.00857 0.22709 0.74588 0.0
O210 O 0.88246 0.28798 0.71621 0.0
O211 O 0.9746 0.22885 0.83425 0.0
O212 O 0.85078 0.25553 0.82391 0.0
O213 O 0.93803 0.33017 0.76207 0.0
O214 O 0.89656 0.22957 0.85296 0.0
O215 O -0.01389 0.28252 0.80811 0.0
O216 O 0.88676 0.32048 0.79283 0.0
O217 O 0.95774 0.18149 0.76752 0.0
O218 O 0.85203 0.21958 0.74985 0.0
O219 O 0.93929 0.27228 0.7023 0.0
Sc220 Sc 0.53316 0.75991 0.34116 0.0
Sc221 Sc 0.51886 0.69808 0.26946 0.0
Sc222 Sc 0.60534 0.71 0.30629 0.0
O223 O 0.55232 0.72237 0.30586 0.0
C224 C 0.60544 0.796 0.3128 0.0
C225 C 0.49229 0.77926 0.26766 0.0
C226 C 0.58915 0.7104 0.22177 0.0
C227 C 0.4707 0.70153 0.34197 0.0
C228 C 0.59167 0.7203 0.39035 0.0
C229 C 0.56798 0.63284 0.29618 0.0
O230 O 0.57405 0.79879 0.32655 0.0
O231 O 0.49707 0.74904 0.25218 0.0
O232 O 0.60962 0.71332 0.24898 0.0
O233 O 0.48982 0.72506 0.35804 0.0
O234 O 0.60839 0.70625 0.36389 0.0
O235 O 0.53872 0.64481 0.2826 0.0
O236 O 0.56418 0.74044 0.38623 0.0
O237 O 0.4772 0.69086 0.30981 0.0
O238 O 0.59409 0.65316 0.3056 0.0
O239 O 0.5011 0.78521 0.30031 0.0
O240 O 0.62044 0.76598 0.30557 0.0
O241 O 0.55574 0.70292 0.22424 0.0
Sc242 Sc 0.09713 0.74592 0.68503 0.0
Sc243 Sc 0.00857 0.77025 0.70904 0.0
Sc244 Sc 0.02499 0.70299 0.64224 0.0
O245 O 0.04341 0.73983 0.67869 0.0
C246 C 0.09274 0.73427 0.59971 0.0
C247 C 0.06895 0.82713 0.68481 0.0
C248 C 0.96916 0.76757 0.63206 0.0
C249 C 0.06991 0.75503 0.76653 0.0
C250 C 0.0894 0.66053 0.68004 0.0
C251 C 0.97257 0.69222 0.71057 0.0
O252 O 0.10865 0.74407 0.62837 0.0
O253 O 0.03716 0.81966 0.69615 0.0
O254 O -0.01421 0.73991 0.62033 0.0
O255 O 0.09326 0.74804 0.74237 0.0
O256 O 0.06159 0.66088 0.65993 0.0
O257 O 0.97718 0.72336 0.72437 0.0
O258 O 0.10474 0.68901 0.69146 0.0
O259 O 0.03776 0.76445 0.75937 0.0
O260 O -0.01279 0.68223 0.68102 0.0
O261 O 0.0932 0.80334 0.67967 0.0
O262 O 0.06157 0.71973 0.59991 0.0
O263 O 0.97447 0.78064 0.66338 0.0
Sc264 Sc 0.81458 0.53498 0.71267 0.0
Sc265 Sc 0.75956 0.50148 0.7827 0.0
Sc266 Sc 0.77551 0.59301 0.77406 0.0
O267 O 0.78307 0.54294 0.75608 0.0
C268 C 0.85726 0.59754 0.74813 0.0
C269 C 0.83752 0.47201 0.76744 0.0
C270 C 0.78577 0.55317 0.84617 0.0
C271 C 0.75388 0.47788 0.69962 0.0
C272 C 0.76806 0.60477 0.69121 0.0
C273 C 0.69825 0.55707 0.78575 0.0
O274 O 0.85795 0.56597 0.73487 0.0
O275 O 0.81132 0.47635 0.78963 0.0
O276 O 0.79766 0.57741 0.8247 0.0
O277 O 0.77367 0.50334 0.68742 0.0
O278 O 0.75436 0.60925 0.72266 0.0
O279 O 0.70703 0.52543 0.77593 0.0
O280 O 0.793 0.58183 0.68476 0.0
O281 O 0.74996 0.47143 0.73344 0.0
O282 O 0.72128 0.58162 0.79264 0.0
O283 O 0.83935 0.48794 0.7367 0.0
O284 O 0.82818 0.61235 0.7587 0.0
O285 O 0.76602 0.52699 0.83548 0.0
Sc286 Sc 0.68108 0.36803 0.24937 0.0
Sc287 Sc 0.70356 0.45734 0.27196 0.0
Sc288 Sc 0.63792 0.43898 0.20419 0.0
O289 O 0.67411 0.4216 0.24194 0.0
C290 C 0.67734 0.37456 0.16337 0.0
C291 C 0.76197 0.39676 0.25751 0.0
C292 C 0.70436 0.49325 0.19336 0.0
C293 C 0.68084 0.39733 0.33029 0.0
C294 C 0.59618 0.37094 0.23634 0.0
C295 C 0.6257 0.49482 0.26847 0.0
O296 O 0.68813 0.35955 0.19245 0.0
O297 O 0.75442 0.42917 0.26575 0.0
O298 O 0.67565 0.47753 0.18308 0.0
O299 O 0.67529 0.37281 0.30691 0.0
O300 O 0.59633 0.40176 0.22092 0.0
O301 O 0.65685 0.49013 0.28215 0.0
O302 O 0.62474 0.35559 0.2473 0.0
O303 O 0.69208 0.42893 0.32205 0.0
O304 O 0.61486 0.47806 0.24053 0.0
O305 O 0.73819 0.37282 0.25181 0.0
O306 O 0.65714 0.40233 0.16283 0.0
O307 O 0.71785 0.48911 0.2248 0.0
Sc308 Sc 0.30514 0.86171 0.21128 0.0
Sc309 Sc 0.26599 0.94705 0.19808 0.0
Sc310 Sc 0.33731 0.93495 0.26088 0.0
O311 O 0.30298 0.91471 0.22314 0.0
C312 C 0.31046 0.8625 0.29759 0.0
C313 C 0.22044 0.87537 0.21046 0.0
C314 C 0.26292 0.97446 0.27903 0.0
C315 C 0.2948 0.89829 0.13349 0.0
C316 C 0.38828 0.87741 0.22221 0.0
C317 C 0.33716 -0.00328 0.20156 0.0
O318 O 0.30469 0.84692 0.26752 0.0
O319 O 0.22197 0.90877 0.20248 0.0
O320 O 0.29578 0.96684 0.28508 0.0
O321 O 0.3044 0.87253 0.1543 0.0
O322 O 0.38323 0.90442 0.24272 0.0
O323 O 0.30512 -0.01018 0.19108 0.0
O324 O 0.36252 0.86041 0.20754 0.0
O325 O 0.28043 0.92739 0.14492 0.0
O326 O 0.35366 0.97784 0.22515 0.0
O327 O 0.24818 0.85579 0.2143 0.0
O328 O 0.32276 0.8944 0.30031 0.0
O329 O 0.24754 0.96853 0.24891 0.0
Sc330 Sc 0.18579 0.09503 0.72437 0.0
Sc331 Sc 0.20566 0.00852 0.69678 0.0
Sc332 Sc 0.13538 0.02373 0.75902 0.0
O333 O 0.17461 0.0426 0.72633 0.0
C334 C 0.16904 0.08415 0.80853 0.0
C335 C 0.26165 0.0713 0.7103 0.0
C336 C 0.20522 0.97436 0.77361 0.0
C337 C 0.18645 0.06755 0.64152 0.0
C338 C 0.10037 0.09578 0.72635 0.0
C339 C 0.13016 0.96714 0.69826 0.0
O340 O 0.18125 0.10229 0.78177 0.0
O341 O 0.25229 0.04421 0.6917 0.0
O342 O 0.17164 0.98188 0.77767 0.0
O343 O 0.19112 0.09173 0.66581 0.0
O344 O 0.09788 0.06546 0.74294 0.0
O345 O 0.16424 0.96763 0.69365 0.0
O346 O 0.13043 0.10959 0.7164 0.0
O347 O 0.18635 0.03363 0.64826 0.0
O348 O 0.11384 -0.00912 0.71673 0.0
O349 O 0.24102 0.08306 0.73481 0.0
O350 O 0.15186 0.05465 0.80527 0.0
O351 O 0.22437 -0.01538 0.74643 0.0
Sc352 Sc 0.70615 0.84064 0.5325 0.0
Sc353 Sc 0.76841 0.76973 0.52405 0.0
Sc354 Sc 0.75263 0.81009 0.60817 0.0
O355 O 0.74281 0.80701 0.55487 0.0
C356 C 0.74195 0.89202 0.59198 0.0
C357 C 0.766 0.84064 0.47313 0.0
C358 C 0.83142 0.79748 0.57352 0.0
C359 C 0.6899 0.766 0.49386 0.0
C360 C 0.66657 0.81546 0.60324 0.0
C361 C 0.75361 0.72572 0.59696 0.0
O362 O 0.71958 0.88569 0.56672 0.0
O363 O 0.77339 0.80745 0.47914 0.0
O364 O 0.80995 0.80465 0.59968 0.0
O365 O 0.68608 0.80003 0.49656 0.0
O366 O 0.69581 0.81458 0.62134 0.0
O367 O 0.76609 0.72747 0.56478 0.0
O368 O 0.66522 0.82261 0.5696 0.0
O369 O 0.71787 0.74935 0.50459 0.0
O370 O 0.74536 0.75343 0.61524 0.0
O371 O 0.74515 0.85901 0.49347 0.0
O372 O 0.76047 0.86725 0.60673 0.0
O373 O 0.82076 0.78658 0.54267 0.0
Sc374 Sc 0.76428 0.14246 0.02743 0.0
Sc375 Sc 0.69489 0.20589 0.00752 0.0
Sc376 Sc 0.71961 0.18756 0.09758 0.0
O377 O 0.72621 0.17863 0.04405 0.0
C378 C 0.73357 0.10268 0.09734 0.0
C379 C 0.70006 0.12684 0.97278 0.0
C380 C 0.63845 0.18373 0.0692 0.0
C381 C 0.77299 0.2078 0.97113 0.0
C382 C 0.8053 0.18401 0.09035 0.0
C383 C 0.70771 0.267 0.06593 0.0
O384 O 0.74825 0.10192 0.06612 0.0
O385 O 0.68581 0.15788 0.97636 0.0
O386 O 0.66218 0.18053 0.09388 0.0
O387 O 0.78412 0.17967 -0.01244 0.0
O388 O 0.77648 0.19569 0.10512 0.0
O389 O 0.69884 0.25786 0.03404 0.0
O390 O 0.80543 0.16283 0.06334 0.0
O391 O 0.74129 0.22064 0.97503 0.0
O392 O 0.71561 0.24443 0.09057 0.0
O393 O 0.7285 0.11732 -0.01059 0.0
O394 O 0.72301 0.13169 0.11212 0.0
O395 O 0.64591 0.19341 0.03681 0.0
Sc396 Sc 0.24668 0.68531 0.36969 0.0
Sc397 Sc 0.2719 0.70129 0.45818 0.0
Sc398 Sc 0.21033 0.63188 0.43881 0.0
O399 O 0.24317 0.67217 0.42206 0.0
C400 C 0.16241 0.66914 0.37841 0.0
C401 C 0.25855 0.76175 0.39898 0.0
C402 C 0.19402 0.6994 0.49043 0.0
C403 C 0.32855 0.68399 0.39913 0.0
C404 C 0.24432 0.59965 0.36633 0.0
C405 C 0.27008 0.62421 0.49688 0.0
O406 O 0.18934 0.68294 0.36174 0.0
O407 O 0.27601 0.75012 0.42604 0.0
O408 O 0.18982 0.66639 0.4811 0.0
O409 O 0.30496 0.68869 0.37427 0.0
O410 O 0.22809 0.59578 0.39672 0.0
O411 O 0.27546 0.65808 0.49688 0.0
O412 O 0.25343 0.63031 0.35342 0.0
O413 O 0.32106 0.6839 0.43297 0.0
O414 O 0.25097 0.60883 0.47307 0.0
O415 O 0.2384 0.74123 0.3807 0.0
O416 O 0.16531 0.64948 0.40656 0.0
O417 O 0.22186 0.7184 0.48231 0.0
Sc418 Sc 0.24991 0.30957 0.92654 0.0
Sc419 Sc 0.18269 0.2534 0.9626 0.0
Sc420 Sc 0.18681 0.27084 0.87069 0.0
O421 O 0.20699 0.27757 0.92006 0.0
C422 C 0.21148 0.35305 0.86655 0.0
C423 C 0.19807 0.33075 -0.00762 0.0
C424 C 0.11656 0.27857 0.9137 0.0
C425 C 0.26692 0.24839 0.98178 0.0
C426 C 0.26854 0.26558 0.85408 0.0
C427 C 0.17716 0.19286 0.90715 0.0
O428 O 0.22504 0.35323 0.89806 0.0
O429 O 0.17576 0.30484 -0.01192 0.0
O430 O 0.13686 0.29216 0.88932 0.0
O431 O 0.27746 0.26812 0.95548 0.0
O432 O 0.23752 0.2508 0.85122 0.0
O433 O 0.18899 0.20133 0.9382 0.0
O434 O 0.2754 0.29001 0.87741 0.0
O435 O 0.2336 0.24454 -0.00968 0.0
O436 O 0.16977 0.21604 0.88261 0.0
O437 O 0.22836 0.33261 0.97575 0.0
O438 O 0.20086 0.32416 0.85148 0.0
O439 O 0.12878 0.25863 0.93921 0.0
Sc440 Sc 0.59725 0.74283 0.77604 0.0
Sc441 Sc 0.50819 0.76827 0.76327 0.0
Sc442 Sc 0.53007 0.70474 0.83081 0.0
O443 O 0.54529 0.73876 0.79064 0.0
C444 C 0.59041 0.65822 0.79167 0.0
C445 C 0.56579 0.75594 0.70062 0.0
C446 C 0.47526 0.69044 0.76517 0.0
C447 C 0.5678 0.82478 0.77845 0.0
C448 C 0.60259 0.73925 0.86177 0.0
C449 C 0.47241 0.76476 0.84209 0.0
O450 O 0.60632 0.68557 0.77789 0.0
O451 O 0.53869 0.77267 0.71324 0.0
O452 O 0.48706 0.6847 0.79723 0.0
O453 O 0.59243 0.80117 0.77289 0.0
O454 O 0.57274 0.72236 0.86597 0.0
O455 O 0.47163 0.77187 0.8084 0.0
O456 O 0.61476 0.74916 0.83093 0.0
O457 O 0.53414 0.81719 0.77998 0.0
O458 O 0.4959 0.74412 0.85599 0.0
O459 O 0.58447 0.73511 0.72025 0.0
O460 O 0.56243 0.6605 0.81159 0.0
O461 O 0.48244 0.71888 0.74654 0.0
Sc462 Sc 0.03502 0.75176 0.15359 0.0
Sc463 Sc 0.00442 0.68232 0.21163 0.0
Sc464 Sc 0.09593 0.69435 0.19428 0.0
O465 O 0.04488 0.70971 0.18666 0.0
C466 C 0.09876 0.7176 0.1112 0.0
C467 C 0.97328 0.69512 0.13345 0.0
C468 C 0.05826 0.62038 0.18563 0.0
C469 C 0.97905 0.76471 0.21629 0.0
C470 C 0.10363 0.77786 0.19868 0.0
C471 C 0.06097 0.68152 0.27263 0.0
O472 O 0.06679 0.72989 0.11039 0.0
O473 O 0.97791 0.6744 0.16073 0.0
O474 O 0.08285 0.64204 0.17496 0.0
O475 O 0.00269 0.77672 0.19418 0.0
O476 O 0.10991 0.74711 0.21306 0.0
O477 O 0.02856 0.68866 0.26417 0.0
O478 O 0.08037 0.78248 0.17371 0.0
O479 O 0.9739 0.73106 0.22213 0.0
O480 O 0.08628 0.6781 0.24948 0.0
O481 O -0.0109 0.72554 0.12981 0.0
O482 O 0.11392 0.70802 0.14049 0.0
O483 O 0.03087 0.63041 0.20422 0.0
Sc484 Sc 0.4335 0.20499 0.62522 0.0
Sc485 Sc 0.44252 0.2674 0.69574 0.0
Sc486 Sc 0.36217 0.26022 0.64716 0.0
O487 O 0.41302 0.24467 0.65611 0.0
C488 C 0.38322 0.24706 0.56866 0.0
C489 C 0.49704 0.26018 0.62763 0.0
C490 C 0.4007 0.33509 0.6665 0.0
C491 C 0.4669 0.18677 0.70207 0.0
C492 C 0.35763 0.17497 0.64377 0.0
C493 C 0.36467 0.25709 0.73234 0.0
O494 O 0.40234 0.22003 0.57803 0.0
O495 O 0.48979 0.26881 0.66047 0.0
O496 O 0.37389 0.31585 0.65707 0.0
O497 O 0.46569 0.18271 0.66792 0.0
O498 O 0.34404 0.20576 0.63632 0.0
O499 O 0.39765 0.26723 0.73388 0.0
O500 O 0.39146 0.16918 0.64332 0.0
O501 O 0.45686 0.21553 0.71771 0.0
O502 O 0.34844 0.25083 0.70272 0.0
O503 O 0.47663 0.2401 0.60849 0.0
O504 O 0.37344 0.27076 0.59131 0.0
O505 O 0.42992 0.32178 0.6787 0.0
Sc506 Sc 0.87059 0.21438 0.27905 0.0
Sc507 Sc 0.96161 0.19445 0.26029 0.0
Sc508 Sc 0.93806 0.26345 0.32294 0.0
O509 O 0.92356 0.22409 0.28741 0.0
C510 C 0.87326 0.30039 0.28062 0.0
C511 C 0.90311 0.20574 0.19914 0.0
C512 C -0.00465 0.27382 0.25886 0.0
C513 C 0.90286 0.13491 0.28207 0.0
C514 C 0.87004 0.22975 0.36373 0.0
C515 C -0.00564 0.20083 0.34016 0.0
O516 O 0.85982 0.27058 0.27011 0.0
O517 O 0.93573 0.1996 0.20787 0.0
O518 O 0.97729 0.28495 0.28597 0.0
O519 O 0.87745 0.15749 0.28698 0.0
O520 O 0.90014 0.24637 0.36382 0.0
O521 O -0.0085 0.18556 0.30943 0.0
O522 O 0.85592 0.21754 0.33505 0.0
O523 O 0.93426 0.1439 0.27088 0.0
O524 O 0.97728 0.22938 0.34856 0.0
O525 O 0.87793 0.21036 0.22207 0.0
O526 O 0.90046 0.30246 0.30141 0.0
O527 O -0.00683 0.24173 0.2468 0.0
C528 C 0.24974 0.54486 0.28088 0.0
C529 C 0.23491 0.51193 0.29307 0.0
H530 H 0.26513 0.59865 0.2949 0.0
C531 C 0.23086 0.50578 0.33063 0.0
H532 H 0.25383 0.55019 0.25219 0.0
C533 C 0.23715 0.53357 0.35514 0.0
C534 C 0.24777 0.56792 0.34252 0.0
H535 H 0.22042 0.48028 0.34102 0.0
H536 H 0.23125 0.5288 0.38363 0.0
C537 C 0.25623 0.57265 0.30546 0.0
C538 C 0.23135 0.417 0.85859 0.0
C539 C 0.21415 0.38627 0.84445 0.0
H540 H 0.25753 0.46727 0.84685 0.0
C541 C 0.20465 0.38578 0.80752 0.0
H542 H 0.23845 0.41855 0.88705 0.0
C543 C 0.2156 0.41383 0.78445 0.0
C544 C 0.23628 0.44257 0.79804 0.0
H545 H 0.1909 0.36269 0.79591 0.0
H546 H 0.21002 0.41172 0.75569 0.0
C547 C 0.24248 0.44484 0.83553 0.0
C548 C 0.75785 0.93184 0.64401 0.0
C549 C 0.73972 0.92706 0.61084 0.0
H550 H 0.75751 0.95806 0.69568 0.0
C551 C 0.71289 0.95197 0.60073 0.0
H552 H 0.77925 0.91362 0.65229 0.0
C553 C 0.70033 0.97715 0.62571 0.0
C554 C 0.71475 0.97809 0.66091 0.0
H555 H 0.69898 0.94969 0.57502 0.0
H556 H 0.67746 -0.00604 0.61838 0.0
C557 C 0.74536 0.95724 0.66898 0.0
C558 C 0.76226 0.01213 0.13284 0.0
C559 C 0.75055 0.01433 0.1691 0.0
H560 H 0.76517 0.03813 0.08111 0.0
C561 C 0.72704 0.04214 0.17953 0.0
H562 H 0.77971 -0.00969 0.12398 0.0
C563 C 0.71873 0.0697 0.15495 0.0
C564 C 0.73372 0.06953 0.11969 0.0
H565 H 0.71736 0.04409 0.20728 0.0
H566 H 0.70263 0.09229 0.16436 0.0
C567 C 0.75374 0.03941 0.10824 0.0
C568 C 0.32937 0.26255 0.53155 0.0
C569 C 0.36261 0.24428 0.53468 0.0
H570 H 0.27619 0.26194 0.50905 0.0
C571 C 0.37078 0.21648 0.51019 0.0
H572 H 0.32244 0.2846 0.54955 0.0
C573 C 0.34417 0.20343 0.48706 0.0
C574 C 0.30904 0.21804 0.48812 0.0
H575 H 0.39648 0.20244 0.51137 0.0
H576 H 0.35043 0.18007 0.47054 0.0
C577 C 0.30263 0.2493 0.50861 0.0
C578 C 0.10796 0.73768 0.04716 0.0
C579 C 0.12105 0.71961 0.07801 0.0
H580 H 0.12115 0.76307 -0.00338 0.0
C581 C 0.15727 0.70792 0.07857 0.0
H582 H 0.08006 0.74653 0.04561 0.0
C583 C 0.18087 0.71744 0.05042 0.0
C584 C 0.16854 0.73885 0.02147 0.0
H585 H 0.16801 0.69336 0.10173 0.0
H586 H 0.20916 0.71011 0.05261 0.0
C587 C 0.13156 0.74733 0.01917 0.0
C588 C 0.81332 0.21347 0.39747 0.0
C589 C 0.84799 0.22946 0.39716 0.0
H590 H 0.76134 0.211 0.4236 0.0
C591 C 0.859 0.25004 0.42706 0.0
H592 H 0.80427 0.19694 0.37507 0.0
C593 C 0.83439 0.25816 0.45447 0.0
C594 C 0.79862 0.24545 0.45267 0.0
H595 H 0.88569 0.26221 0.42803 0.0
H596 H 0.84276 0.27614 0.47603 0.0
C597 C 0.78874 0.22137 0.42522 0.0
C598 C 0.66352 0.75025 0.88857 0.0
C599 C 0.62639 0.74297 0.89347 0.0
H600 H 0.71642 0.74734 0.91159 0.0
C601 C 0.61338 0.73396 0.92825 0.0
H602 H 0.67434 0.75779 0.86217 0.0
C603 C 0.63748 0.72814 0.95654 0.0
C604 C 0.675 0.73107 0.95047 0.0
H605 H 0.58482 0.72904 0.93309 0.0
H606 H 0.62679 0.71894 0.98248 0.0
C607 C 0.68769 0.74428 0.91691 0.0
C608 C 0.53501 0.28989 0.24377 0.0
C609 C 0.5095 0.29869 0.21717 0.0
H610 H 0.58279 0.3067 0.27146 0.0
C611 C 0.50818 0.33409 0.20318 0.0
H612 H 0.53616 0.26285 0.25526 0.0
C613 C 0.53445 0.35928 0.21262 0.0
C614 C 0.56275 0.34918 0.23579 0.0
H615 H 0.48802 0.3417 0.18327 0.0
H616 H 0.5342 0.38552 0.19933 0.0
C617 C 0.56163 0.31501 0.25297 0.0
C618 C 0.00583 0.12983 0.74221 0.0
C619 C 0.01032 0.16692 0.73447 0.0
H620 H 0.03084 0.07788 0.74526 0.0
C621 C 0.04224 0.17869 0.71713 0.0
H622 H 0.98125 0.11968 0.75489 0.0
C623 C 0.07064 0.15459 0.7114 0.0
C624 C 0.06766 0.11837 0.72311 0.0
H625 H 0.04628 0.20695 0.71013 0.0
H626 H 0.09577 0.16507 0.70019 0.0
C627 C 0.03429 0.10578 0.73665 0.0
C628 C 0.47359 0.84365 0.26218 0.0
C629 C 0.47368 0.80842 0.24798 0.0
H630 H 0.4469 0.89468 0.26359 0.0
C631 C 0.45292 0.80083 0.21719 0.0
H632 H 0.49057 0.85076 0.28497 0.0
C633 C 0.42814 0.82626 0.20458 0.0
C634 C 0.4237 0.85927 0.22296 0.0
H635 H 0.45337 0.77426 0.2049 0.0
H636 H 0.40981 0.81838 0.18315 0.0
C637 C 0.44889 0.86906 0.24957 0.0
C638 C 0.92144 0.60637 0.72909 0.0
C639 C 0.89033 0.61976 0.74639 0.0
H640 H 0.97233 0.61914 0.7045 0.0
C641 C 0.88963 0.65606 0.75777 0.0
H642 H 0.92314 0.57839 0.72061 0.0
C643 C 0.91794 0.67944 0.74856 0.0
C644 C 0.94714 0.66678 0.72779 0.0
H645 H 0.86625 0.66702 0.77175 0.0
H646 H 0.91567 0.70783 0.75542 0.0
C647 C 0.94956 0.62973 0.71977 0.0
C648 C 0.73786 0.4297 0.61145 0.0
C649 C 0.72444 0.39628 0.62402 0.0
H650 H 0.75728 0.48211 0.62557 0.0
C651 C 0.71427 0.39265 0.66075 0.0
H652 H 0.7453 0.43365 0.5832 0.0
C653 C 0.72136 0.42041 0.68517 0.0
C654 C 0.73857 0.45229 0.67322 0.0
H655 H 0.70325 0.36745 0.67125 0.0
H656 H 0.71551 0.41585 0.71371 0.0
C657 C 0.74482 0.45748 0.63583 0.0
C658 C 0.71242 0.51787 0.13094 0.0
C659 C 0.72088 0.51943 0.16804 0.0
H660 H 0.71308 0.54518 0.07978 0.0
C661 C 0.74179 0.54828 0.18097 0.0
H662 H 0.69698 0.49546 0.12008 0.0
C663 C 0.751 0.5769 0.15784 0.0
C664 C 0.73953 0.57692 0.12146 0.0
H665 H 0.74898 0.54995 0.2094 0.0
H666 H 0.76528 0.59989 0.16903 0.0
C667 C 0.72176 0.54631 0.10781 0.0
C668 C 0.24358 0.01784 0.36877 0.0
C669 C 0.21688 0.04275 0.35858 0.0
H670 H 0.2794 0.97633 0.35091 0.0
C671 C 0.1993 0.03863 0.32506 0.0
H672 H 0.25721 0.01998 0.39464 0.0
C673 C 0.2123 0.01391 0.29977 0.0
C674 C 0.24287 -0.00694 0.30794 0.0
H675 H 0.178 0.05705 0.31691 0.0
H676 H 0.20051 0.01357 0.27291 0.0
C677 C 0.25664 -0.00678 0.34347 0.0
C678 C 0.21709 0.9255 0.86197 0.0
C679 C 0.23919 0.89656 0.85128 0.0
H680 H 0.189 0.97311 0.84519 0.0
C681 C 0.25573 0.89747 0.81672 0.0
H682 H 0.20438 0.92597 0.88855 0.0
C683 C 0.24697 0.9247 0.79188 0.0
C684 C 0.22144 0.95103 0.80135 0.0
H685 H 0.2734 0.87582 0.80792 0.0
H686 H 0.25792 0.92347 0.76455 0.0
C687 C 0.20808 0.95238 0.83708 0.0
C688 C 0.66935 0.71579 0.45402 0.0
C689 C 0.66119 0.74594 0.47542 0.0
H690 H 0.65221 0.68242 0.41023 0.0
C691 C 0.62576 0.7596 0.47589 0.0
H692 H 0.69628 0.70421 0.45396 0.0
C693 C 0.60036 0.74688 0.45134 0.0
C694 C 0.61045 0.72092 0.42552 0.0
H695 H 0.61849 0.782 0.49332 0.0
H696 H 0.5744 0.7604 0.44998 0.0
C697 C 0.644 0.70323 0.42915 0.0
C698 C 0.80694 0.2529 0.88578 0.0
C699 C 0.84355 0.24245 0.88623 0.0
H700 H 0.75556 0.25017 0.91279 0.0
C701 C 0.85772 0.22627 0.91765 0.0
H702 H 0.79533 0.26593 0.86214 0.0
C703 C 0.83495 0.21723 0.94648 0.0
C704 C 0.79769 0.2244 0.94447 0.0
H705 H 0.88595 0.21854 0.91917 0.0
H706 H 0.84624 0.20293 0.96955 0.0
C707 C 0.78414 0.24397 0.91479 0.0
C708 C 0.10482 0.71005 0.53811 0.0
C709 C 0.11431 0.73382 0.56605 0.0
H710 H 0.12315 0.6804 0.49204 0.0
C711 C 0.14808 0.75156 0.56465 0.0
H712 H 0.07887 0.6963 0.53815 0.0
C713 C 0.17353 0.74235 0.53821 0.0
C714 C 0.16548 0.7152 0.5131 0.0
H715 H 0.15585 0.77055 0.58553 0.0
H716 H 0.20027 0.75443 0.53919 0.0
C717 C 0.13033 0.70065 0.51194 0.0
C718 C 0.28484 0.21305 0.03678 0.0
C719 C 0.29482 0.23345 0.00606 0.0
H720 H 0.30079 0.1926 0.08848 0.0
C721 C 0.33139 0.24324 0.0011 0.0
H722 H 0.25709 0.20433 0.04098 0.0
C723 C 0.35649 0.2367 0.02843 0.0
C724 C 0.34546 0.22012 0.06107 0.0
H725 H 0.34021 0.2583 0.97729 0.0
H726 H 0.38377 0.24708 0.02501 0.0
C727 C 0.31 0.20627 0.06399 0.0
C728 C 0.42347 0.6729 0.72576 0.0
C729 C 0.45062 0.66312 0.75033 0.0
H730 H 0.37384 0.65747 0.70066 0.0
C731 C 0.45192 0.62746 0.76375 0.0
H732 H 0.42214 0.70012 0.71473 0.0
C733 C 0.42454 0.60298 0.75561 0.0
C734 C 0.39519 0.61391 0.73419 0.0
H735 H 0.47318 0.61898 0.78208 0.0
H736 H 0.42516 0.57643 0.76823 0.0
C737 C 0.39583 0.64846 0.7178 0.0
C738 C 0.95992 0.82839 0.2267 0.0
C739 C 0.9539 0.79115 0.23221 0.0
H740 H 0.93695 0.88131 0.22636 0.0
C741 C 0.92155 0.77959 0.2488 0.0
H742 H -0.01496 0.83829 0.21491 0.0
C743 C 0.89402 0.80439 0.25562 0.0
C744 C 0.89845 0.84101 0.24576 0.0
H745 H 0.91639 0.75115 0.25405 0.0
H746 H 0.86837 0.79426 0.26593 0.0
C747 C 0.93239 0.85313 0.23337 0.0
C748 C 0.48272 0.12213 0.71008 0.0
C749 C 0.48339 0.15761 0.72348 0.0
H750 H 0.50764 0.07016 0.71069 0.0
C751 C 0.50378 0.16537 0.75448 0.0
H752 H 0.46611 0.11517 0.68697 0.0
C753 C 0.5276 0.13948 0.76822 0.0
C754 C 0.5312 0.1058 0.75084 0.0
H755 H 0.50406 0.19238 0.76579 0.0
H756 H 0.54596 0.14745 0.78957 0.0
C757 C 0.50625 0.09625 0.72392 0.0
C758 C 0.04942 0.35863 0.24219 0.0
C759 C 0.08033 0.34467 0.22496 0.0
H760 H -0.00205 0.34702 0.26613 0.0
C761 C 0.08038 0.30835 0.21368 0.0
H762 H 0.04825 0.38662 0.25071 0.0
C763 C 0.05145 0.2856 0.22253 0.0
C764 C 0.02215 0.29883 0.24287 0.0
H765 H 0.1036 0.29691 0.19983 0.0
H766 H 0.05315 0.25724 0.21542 0.0
C767 C 0.02062 0.33588 0.25115 0.0
C768 C 0.21596 0.38442 0.0293 0.0
C769 C 0.19019 0.35776 0.0206 0.0
H770 H 0.23421 0.42213 0.06912 0.0
C771 C 0.15848 0.3548 0.04165 0.0
H772 H 0.2403 0.38798 0.01311 0.0
C773 C 0.15493 0.3746 0.07346 0.0
C774 C 0.18293 0.3977 0.08455 0.0
H775 H 0.13762 0.33525 0.03515 0.0
H776 H 0.13177 0.36944 0.09098 0.0
C777 C 0.21229 0.40438 0.06113 0.0
C778 C 0.303 0.62039 0.55539 0.0
C779 C 0.28138 0.60352 0.52914 0.0
H780 H 0.32026 0.62066 0.61057 0.0
C781 C 0.26603 0.56947 0.5369 0.0
H782 H 0.31591 0.64624 0.54995 0.0
C783 C 0.26867 0.55472 0.57175 0.0
C784 C 0.28658 0.57394 0.59914 0.0
H785 H 0.24959 0.55559 0.51706 0.0
H786 H 0.25427 0.52981 0.57787 0.0
C787 C 0.30544 0.60579 0.59015 0.0
C788 C 0.65241 0.11149 0.92782 0.0
C789 C 0.68522 0.10267 0.94476 0.0
H790 H 0.61933 0.10496 0.88096 0.0
C791 C 0.70595 0.07381 0.9311 0.0
H792 H 0.63532 0.13291 0.9382 0.0
C793 C 0.6965 0.05751 0.89833 0.0
C794 C 0.66634 0.07002 0.87901 0.0
H795 H 0.7311 0.06597 0.94388 0.0
H796 H 0.71482 0.03796 0.88642 0.0
C797 C 0.64309 0.09532 0.89516 0.0
C798 C 0.77147 0.89383 0.43111 0.0
C799 C 0.77799 0.85702 0.4385 0.0
H800 H 0.7686 0.9354 0.39053 0.0
C801 C 0.79182 0.83492 0.41081 0.0
H802 H 0.76126 0.91167 0.45202 0.0
C803 C 0.79572 0.84844 0.37566 0.0
C804 C 0.7863 0.88439 0.36766 0.0
H805 H 0.7975 0.80654 0.41565 0.0
H806 H 0.80459 0.83026 0.35442 0.0
C807 C 0.77576 0.90747 0.39594 0.0
C808 C 0.07103 0.14523 0.37647 0.0
C809 C 0.08705 0.17008 0.40032 0.0
H810 H 0.02865 0.13552 0.33857 0.0
C811 C 0.06755 0.20099 0.41061 0.0
H812 H 0.08498 0.12066 0.36873 0.0
C813 C 0.03515 0.2095 0.39328 0.0
C814 C 0.02197 0.18718 0.36548 0.0
H815 H 0.07892 0.22043 0.4293 0.0
H816 H 0.02231 0.23509 0.39943 0.0
C817 C 0.03882 0.15381 0.35904 0.0
C818 C 0.38252 0.80509 0.8652 0.0
C819 C 0.37216 0.78341 0.89493 0.0
H820 H 0.42327 0.8169 0.82562 0.0
C821 C 0.39807 0.76153 0.91205 0.0
H822 H 0.36327 0.82291 0.85208 0.0
C823 C 0.43257 0.75798 0.89679 0.0
C824 C 0.44137 0.77635 0.86435 0.0
H825 H 0.39083 0.74481 0.93526 0.0
H826 H 0.45107 0.73857 0.90865 0.0
C827 C 0.4169 0.80168 0.8501 0.0
C828 C 0.53964 0.26652 0.57499 0.0
C829 C 0.5324 0.2709 0.61223 0.0
H830 H 0.57979 0.26611 0.53293 0.0
C831 C 0.56032 0.28239 0.6352 0.0
H832 H 0.51855 0.25811 0.55652 0.0
C833 C 0.59538 0.28672 0.62174 0.0
C834 C 0.60308 0.28005 0.58499 0.0
H835 H 0.5556 0.28622 0.66399 0.0
H836 H 0.6167 0.29404 0.64042 0.0
C837 C 0.57468 0.27125 0.56143 0.0
C838 C 0.92317 0.65504 0.11295 0.0
C839 C 0.94522 0.68552 0.10696 0.0
H840 H 0.87275 0.62937 0.10137 0.0
C841 C 0.93721 0.70923 0.07805 0.0
H842 H 0.92912 0.63569 0.1343 0.0
C843 C 0.905 0.70537 0.05896 0.0
C844 C 0.88053 0.67789 0.06875 0.0
H845 H 0.95425 0.73246 0.07209 0.0
H846 H 0.89769 0.72604 0.03934 0.0
C847 C 0.89097 0.65128 0.09396 0.0
C848 C 0.39068 0.03806 0.19765 0.0
C849 C 0.35433 0.03066 0.1892 0.0
H850 H 0.43216 0.07833 0.2014 0.0
C851 C 0.33326 0.05779 0.17288 0.0
H852 H 0.40774 0.01752 0.20979 0.0
C853 C 0.34717 0.09257 0.16837 0.0
C854 C 0.38249 0.10067 0.17966 0.0
H855 H 0.30528 0.05289 0.16572 0.0
H856 H 0.32969 0.1135 0.15756 0.0
C857 C 0.40472 0.07281 0.19274 0.0
C858 C 0.91067 0.40262 0.75386 0.0
C859 C 0.90419 0.38015 0.78402 0.0
H860 H 0.89423 0.44991 0.72478 0.0
C861 C 0.88202 0.39249 0.81244 0.0
H862 H 0.92776 0.39371 0.73163 0.0
C863 C 0.8625 0.4244 0.80844 0.0
C864 C 0.86491 0.44432 0.77591 0.0
H865 H 0.87711 0.37574 0.83625 0.0
H866 H 0.84343 0.43175 0.82959 0.0
C867 C 0.89105 0.43458 0.74978 0.0
C868 C 0.57322 0.53725 0.26314 0.0
C869 C 0.60356 0.52493 0.28252 0.0
H870 H 0.53752 0.58159 0.25274 0.0
C871 C 0.61602 0.54525 0.31209 0.0
H872 H 0.56255 0.52196 0.24058 0.0
C873 C 0.60175 0.57937 0.31894 0.0
C874 C 0.57457 0.5936 0.29655 0.0
H875 H 0.63875 0.53616 0.3282 0.0
H876 H 0.61386 0.59568 0.34002 0.0
C877 C 0.55875 0.57139 0.27018 0.0
C878 C 0.07543 0.92729 0.70142 0.0
C879 C 0.11002 0.93469 0.68696 0.0
H880 H 0.03497 0.887 0.71194 0.0
C881 C 0.12742 0.90833 0.66589 0.0
H882 H 0.06112 0.94724 0.71743 0.0
C883 C 0.11246 0.87392 0.66279 0.0
C884 C 0.07983 0.86529 0.68067 0.0
H885 H 0.15373 0.91347 0.65371 0.0
H886 H 0.12759 0.8535 0.64818 0.0
C887 C 0.06042 0.89277 0.69829 0.0
C888 C 0.75781 0.55476 0.90741 0.0
C889 C 0.7878 0.56169 0.88491 0.0
H890 H 0.72771 0.57153 0.95394 0.0
C891 C 0.81519 0.58514 0.89686 0.0
H892 H 0.73643 0.5366 0.89891 0.0
C893 C 0.81005 0.60556 0.92807 0.0
C894 C 0.77749 0.60262 0.94772 0.0
H895 H 0.83893 0.59037 0.88017 0.0
H896 H 0.83027 0.62562 0.93499 0.0
C897 C 0.75263 0.5752 0.93869 0.0
C898 C 0.66258 0.34035 0.41311 0.0
C899 C 0.68487 0.35726 0.43872 0.0
H900 H 0.64338 0.34022 0.35861 0.0
C901 C 0.70011 0.39125 0.4304 0.0
H902 H 0.6498 0.31452 0.41898 0.0
C903 C 0.6964 0.40605 0.39564 0.0
C904 C 0.67745 0.38699 0.36884 0.0
H905 H 0.71712 0.40515 0.44973 0.0
H906 H 0.71061 0.43096 0.38908 0.0
C907 C 0.65895 0.35506 0.37847 0.0
C908 C 0.26863 0.90515 0.07172 0.0
C909 C 0.29567 0.89104 0.09431 0.0
H910 H 0.23875 0.89844 0.02274 0.0
C911 C 0.31891 0.86416 0.08092 0.0
H912 H 0.25053 0.92611 0.0813 0.0
C913 C 0.31218 0.84821 0.04751 0.0
C914 C 0.28199 0.85885 0.02707 0.0
H915 H 0.34051 0.85338 0.09756 0.0
H916 H 0.32892 0.82567 0.03917 0.0
C917 C 0.26178 0.8891 0.03825 0.0
C918 C 0.19901 0.05913 0.57561 0.0
C919 C 0.1842 0.07995 0.60372 0.0
H920 H 0.21611 0.05814 0.52003 0.0
C921 C 0.17058 0.11457 0.59604 0.0
H922 H 0.20963 0.03232 0.58094 0.0
C923 C 0.17386 0.12916 0.56125 0.0
C924 C 0.19139 0.10957 0.53377 0.0
H925 H 0.15864 0.13093 0.61728 0.0
H926 H 0.16463 0.1566 0.55656 0.0
C927 C 0.20286 0.07397 0.54089 0.0
C928 C 0.92734 0.76484 0.57885 0.0
C929 C 0.93872 0.78217 0.61073 0.0
H930 H 0.88401 0.75663 0.54146 0.0
C931 C 0.91746 0.81025 0.62507 0.0
H932 H 0.94335 0.74349 0.56676 0.0
C933 C 0.8835 0.8176 0.61068 0.0
C934 C 0.87039 0.79731 0.58147 0.0
H935 H 0.92574 0.82476 0.64913 0.0
H936 H 0.86653 0.83746 0.624 0.0
C937 C 0.89339 0.77246 0.56423 0.0
C938 C 0.55638 0.16479 0.12696 0.0
C939 C 0.52958 0.18371 0.10776 0.0
H940 H 0.61203 0.14973 0.12957 0.0
C941 C 0.53745 0.19678 0.07265 0.0
H942 H 0.551 0.15371 0.15377 0.0
C943 C 0.57257 0.19442 0.05872 0.0
C944 C 0.60023 0.17905 0.07977 0.0
H945 H 0.51724 0.2111 0.05697 0.0
H946 H 0.57848 0.2069 0.03265 0.0
C947 C 0.59143 0.16259 0.11314 0.0
C948 C 0.39419 0.69496 0.40974 0.0
C949 C 0.36652 0.68144 0.38766 0.0
H950 H 0.44948 0.71183 0.41251 0.0
C951 C 0.37491 0.66899 0.3527 0.0
H952 H 0.38837 0.70451 0.43692 0.0
C953 C 0.40981 0.67281 0.33885 0.0
C954 C 0.43678 0.68965 0.35957 0.0
H955 H 0.35408 0.65782 0.33541 0.0
H956 H 0.41491 0.66475 0.31105 0.0
C957 C 0.4291 0.69923 0.39571 0.0
C958 C 0.06371 0.3073 0.88492 0.0
C959 C 0.07782 0.27853 0.90545 0.0
H960 H 0.02461 0.32385 0.84584 0.0
C961 C 0.0582 0.24608 0.9084 0.0
H962 H 0.07828 0.33272 0.88261 0.0
C963 C 0.02768 0.24075 0.88693 0.0
C964 C 0.01651 0.26788 0.86247 0.0
H965 H 0.06861 0.22348 0.92403 0.0
H966 H 0.01475 0.21439 0.8874 0.0
C967 C 0.03327 0.30201 0.86351 0.0
C968 C 0.62763 0.90658 0.78772 0.0
C969 C 0.60519 0.93412 0.77415 0.0
H970 H 0.6332 0.85026 0.79972 0.0
C971 C 0.56878 0.92615 0.76648 0.0
H972 H 0.65573 0.9118 0.79417 0.0
C973 C 0.5558 0.89077 0.76995 0.0
C974 C 0.57917 0.86284 0.78072 0.0
H975 H 0.5507 0.94688 0.75633 0.0
H976 H 0.52813 0.88499 0.76223 0.0
C977 C 0.6148 0.87125 0.79074 0.0
C978 C 0.07929 0.52696 0.21622 0.0
C979 C 0.10663 0.51824 0.19098 0.0
H980 H 0.04117 0.56676 0.23368 0.0
C981 C 0.11 0.53881 0.15895 0.0
H982 H 0.07533 0.51102 0.24073 0.0
C983 C 0.09015 0.57047 0.15483 0.0
C984 C 0.06671 0.58184 0.18263 0.0
H985 H 0.13005 0.53222 0.13845 0.0
H986 H 0.09571 0.58778 0.13157 0.0
C987 C 0.05932 0.55863 0.21201 0.0
C988 C 0.36907 0.38994 0.64488 0.0
C989 C 0.39445 0.37424 0.66838 0.0
H990 H 0.33113 0.43254 0.63658 0.0
C991 C 0.40663 0.39386 0.69845 0.0
H992 H 0.35969 0.37549 0.62118 0.0
C993 C 0.38997 0.42651 0.70757 0.0
C994 C 0.36109 0.43976 0.6866 0.0
H995 H 0.42623 0.3823 0.71694 0.0
H996 H 0.39762 0.43958 0.73264 0.0
C997 C 0.35255 0.42248 0.65387 0.0
C998 C 0.91202 0.07011 0.26559 0.0
C999 C 0.89393 0.09632 0.28632 0.0
H1000 H 0.91034 0.01644 0.24422 0.0
C1001 C 0.86386 0.08607 0.30749 0.0
H1002 H 0.93551 0.07726 0.24929 0.0
C1003 C 0.84962 0.05133 0.30482 0.0
C1004 C 0.86503 0.02635 0.28066 0.0
H1005 H 0.84995 0.10556 0.32443 0.0
H1006 H 0.82499 0.04498 0.3197 0.0
C1007 C 0.8976 0.03527 0.26273 0.0
C1008 C 0.2253 0.30071 0.30158 0.0
C1009 C 0.20942 0.33403 0.31028 0.0
H1010 H 0.233 0.24575 0.31742 0.0
C1011 C 0.19533 0.3393 0.34553 0.0
H1012 H 0.23663 0.29572 0.27487 0.0
C1013 C 0.19412 0.31054 0.3704 0.0
C1014 C 0.20643 0.27638 0.35983 0.0
H1015 H 0.18325 0.36488 0.35309 0.0
H1016 H 0.18119 0.31427 0.3966 0.0
C1017 C 0.22325 0.27202 0.32594 0.0
C1018 C 0.23204 0.65015 0.86716 0.0
C1019 C 0.26069 0.66018 0.88985 0.0
H1020 H 0.21576 0.61829 0.82187 0.0
C1021 C 0.29236 0.63931 0.89041 0.0
H1022 H 0.20742 0.66605 0.86637 0.0
C1023 C 0.29717 0.61183 0.86482 0.0
C1024 C 0.27042 0.60558 0.83858 0.0
H1025 H 0.3149 0.64701 0.90743 0.0
H1026 H 0.32321 0.59849 0.863 0.0
C1027 C 0.23693 0.62311 0.84153 0.0
C1028 C 0.69798 0.18322 0.63692 0.0
C1029 C 0.69357 0.17709 0.59961 0.0
H1030 H 0.68365 0.16797 0.69081 0.0
C1031 C 0.67095 0.14872 0.58822 0.0
H1032 H 0.71464 0.20524 0.64672 0.0
C1033 C 0.65344 0.12658 0.614 0.0
C1034 C 0.6573 0.13363 0.65125 0.0
H1035 H 0.6668 0.1438 0.55958 0.0
H1036 H 0.6366 0.10441 0.6049 0.0
C1037 C 0.67968 0.16217 0.66231 0.0
C1038 C 0.81651 0.82459 0.07803 0.0
C1039 C 0.78292 0.80777 0.07248 0.0
H1040 H 0.84676 0.8612 0.11125 0.0
C1041 C 0.75216 0.82056 0.09078 0.0
H1042 H 0.84066 0.81436 0.06479 0.0
C1043 C 0.75578 0.84629 0.11801 0.0
C1044 C 0.79008 0.85999 0.1266 0.0
H1045 H 0.72618 0.8073 0.08738 0.0
H1046 H 0.73237 0.85298 0.13453 0.0
C1047 C 0.82002 0.85104 0.10481 0.0
C1048 C 0.3701 0.16376 0.30411 0.0
C1049 C 0.36908 0.19941 0.29044 0.0
H1050 H 0.34243 0.12301 0.3357 0.0
C1051 C 0.34225 0.22314 0.30301 0.0
H1052 H 0.39044 0.14484 0.29476 0.0
C1053 C 0.31472 0.21049 0.32562 0.0
C1054 C 0.31363 0.174 0.33632 0.0
H1055 H 0.34109 0.25088 0.29333 0.0
H1056 H 0.29355 0.22901 0.33376 0.0
C1057 C 0.34247 0.15112 0.32711 0.0
C1058 C 0.10717 0.79512 0.85046 0.0
C1059 C 0.13487 0.76998 0.85704 0.0
H1060 H 0.06295 0.8094 0.81569 0.0
C1061 C 0.1335 0.73586 0.84065 0.0
H1062 H 0.10772 0.82154 0.86305 0.0
C1063 C 0.10776 0.72877 0.81428 0.0
C1064 C 0.08336 0.75585 0.80377 0.0
H1065 H 0.15425 0.71583 0.84592 0.0
H1066 H 0.10956 0.70368 0.79925 0.0
C1067 C 0.0814 0.78807 0.82368 0.0
C1068 C 0.85484 0.25644 0.61438 0.0
C1069 C 0.84398 0.29078 0.60233 0.0
H1070 H 0.88684 0.22689 0.65257 0.0
C1071 C 0.86323 0.32157 0.61325 0.0
H1072 H 0.84009 0.23244 0.60627 0.0
C1073 C 0.8896 0.31843 0.64011 0.0
C1074 C 0.89729 0.28443 0.65537 0.0
H1075 H 0.85487 0.34831 0.60445 0.0
H1076 H 0.90074 0.34282 0.65191 0.0
C1077 C 0.88179 0.25324 0.64052 0.0
C1078 C 0.6352 0.73895 0.18228 0.0
C1079 C 0.60631 0.71449 0.18613 0.0
H1080 H 0.68207 0.75414 0.15182 0.0
C1081 C 0.59844 0.69039 0.15803 0.0
H1082 H 0.64126 0.75827 0.20344 0.0
C1083 C 0.62211 0.68771 0.12847 0.0
C1084 C 0.65363 0.70922 0.12693 0.0
H1085 H 0.57608 0.67148 0.16049 0.0
H1086 H 0.6173 0.66676 0.10861 0.0
C1087 C 0.65858 0.73652 0.15276 0.0
C1088 C 0.35093 0.36093 0.1384 0.0
C1089 C 0.36317 0.34101 0.16839 0.0
H1090 H 0.31178 0.3994 0.11972 0.0
C1091 C 0.35316 0.35138 0.20358 0.0
H1092 H 0.35821 0.35293 0.11105 0.0
C1093 C 0.32753 0.3785 0.20856 0.0
C1094 C 0.3113 0.39477 0.17833 0.0
H1095 H 0.36239 0.33609 0.22697 0.0
H1096 H 0.31692 0.38315 0.23564 0.0
C1097 C 0.32471 0.38766 0.14336 0.0
C1098 C 0.79721 0.17044 0.73501 0.0
C1099 C 0.82717 0.16098 0.75635 0.0
H1100 H 0.74318 0.15746 0.71963 0.0
C1101 C 0.82712 0.12742 0.77467 0.0
H1102 H 0.79648 0.1958 0.72011 0.0
C1103 C 0.7964 0.10533 0.77429 0.0
C1104 C 0.76528 0.11663 0.75579 0.0
H1105 H 0.84996 0.11913 0.79104 0.0
H1106 H 0.7963 0.08059 0.79025 0.0
C1107 C 0.7665 0.14857 0.73492 0.0
C1108 C 0.65922 0.88234 0.30819 0.0
C1109 C 0.6706 0.88133 0.27162 0.0
H1110 H 0.62916 0.85505 0.35049 0.0
C1111 C 0.6545 0.85651 0.24794 0.0
H1112 H 0.67138 0.90113 0.32704 0.0
C1113 C 0.63116 0.83012 0.26148 0.0
C1114 C 0.6232 0.82851 0.29869 0.0
H1115 H 0.66255 0.8554 0.21961 0.0
H1116 H 0.62107 0.80954 0.24326 0.0
C1117 C 0.63547 0.85587 0.32173 0.0
C1118 C 0.14265 0.57507 0.67015 0.0
C1119 C 0.15987 0.57456 0.70405 0.0
H1120 H 0.10552 0.60364 0.63569 0.0
C1121 C 0.14652 0.59623 0.7322 0.0
H1122 H 0.15297 0.55886 0.64797 0.0
C1123 C 0.12002 0.62193 0.72513 0.0
C1124 C 0.10638 0.62602 0.68989 0.0
H1125 H 0.15958 0.59627 0.7585 0.0
H1126 H 0.11275 0.6409 0.74629 0.0
C1127 C 0.11577 0.60082 0.66307 0.0
C1128 C 0.77868 0.63273 0.63002 0.0
C1129 C 0.75828 0.63076 0.66239 0.0
H1130 H 0.79301 0.66472 0.58339 0.0
C1131 C 0.73165 0.65699 0.66907 0.0
H1132 H 0.7991 0.61265 0.62384 0.0
C1133 C 0.72831 0.68671 0.646 0.0
C1134 C 0.75135 0.69059 0.61573 0.0
H1135 H 0.7149 0.65585 0.69332 0.0
H1136 H 0.70905 0.70767 0.653 0.0
C1137 C 0.77518 0.66249 0.60677 0.0
C1138 C 0.67082 0.32172 0.07717 0.0
C1139 C 0.70476 0.30465 0.07773 0.0
H1140 H 0.63519 0.35842 0.10482 0.0
C1141 C 0.73196 0.31799 0.10048 0.0
H1142 H 0.64936 0.31145 0.06011 0.0
C1143 C 0.72376 0.34414 0.12621 0.0
C1144 C 0.68839 0.35754 0.12919 0.0
H1145 H 0.75828 0.30509 0.10133 0.0
H1146 H 0.74415 0.35137 0.14596 0.0
C1147 C 0.66263 0.34828 0.10292 0.0
C1148 C 0.30482 0.80883 0.38428 0.0
C1149 C 0.26879 0.79642 0.38211 0.0
H1150 H 0.34689 0.84003 0.35815 0.0
C1151 C 0.24548 0.81188 0.35644 0.0
H1152 H 0.32338 0.7972 0.40378 0.0
C1153 C 0.25906 0.83567 0.33039 0.0
C1154 C 0.29593 0.84465 0.32994 0.0
H1155 H 0.21755 0.80305 0.35444 0.0
H1156 H 0.24125 0.84528 0.30913 0.0
C1157 C 0.3184 0.83296 0.3581 0.0
C1158 C 0.20801 0.14034 0.88177 0.0
C1159 C 0.17614 0.15515 0.89606 0.0
H1160 H 0.23051 0.10514 0.84162 0.0
C1161 C 0.14258 0.13946 0.8879 0.0
H1162 H 0.23403 0.15273 0.88728 0.0
C1163 C 0.14061 0.1118 0.86234 0.0
C1164 C 0.17213 0.10063 0.84428 0.0
H1165 H 0.11771 0.15122 0.89818 0.0
H1166 H 0.11425 0.10249 0.85355 0.0
C1167 C 0.20599 0.1134 0.85556 0.0
C1168 C 0.63468 0.7621 0.62697 0.0
C1169 C 0.63468 0.79949 0.62045 0.0
H1170 H 0.61101 0.71823 0.65678 0.0
C1171 C 0.60646 0.82091 0.63377 0.0
H1172 H 0.65621 0.74523 0.61633 0.0
C1173 C 0.58032 0.80544 0.65674 0.0
C1174 C 0.58267 0.7686 0.6666 0.0
H1175 H 0.60617 0.84983 0.62866 0.0
H1176 H 0.56066 0.82303 0.66955 0.0
C1177 C 0.60871 0.74667 0.64976 0.0
C1178 C 0.89151 0.17269 0.1422 0.0
C1179 C 0.89172 0.2055 0.16118 0.0
H1180 H 0.86312 0.14001 0.10362 0.0
C1181 C 0.86946 0.23397 0.14956 0.0
H1182 H 0.90814 0.15026 0.15118 0.0
C1183 C 0.84338 0.22795 0.12317 0.0
C1184 C 0.83966 0.19355 0.10777 0.0
H1185 H 0.86914 0.25943 0.16406 0.0
H1186 H 0.82399 0.24915 0.11732 0.0
C1187 C 0.86554 0.16675 0.11531 0.0
C1188 C 0.11734 0.70853 0.34873 0.0
C1189 C 0.12673 0.67425 0.36217 0.0
H1190 H 0.08586 0.73791 0.31005 0.0
C1191 C 0.10551 0.64404 0.35335 0.0
H1192 H 0.13341 0.73214 0.35541 0.0
C1193 C 0.07852 0.64732 0.32712 0.0
C1194 C 0.07224 0.68093 0.31042 0.0
H1195 H 0.11257 0.61735 0.36338 0.0
H1196 H 0.06573 0.62303 0.31687 0.0
C1197 C 0.08988 0.7119 0.32322 0.0
C1198 C 0.33015 0.27511 0.82704 0.0
C1199 C 0.2962 0.25775 0.82619 0.0
H1200 H 0.37872 0.28842 0.79785 0.0
C1201 C 0.28739 0.23623 0.7962 0.0
H1202 H 0.33795 0.29157 0.84996 0.0
C1203 C 0.31063 0.23466 0.76637 0.0
C1204 C 0.34326 0.2543 0.76607 0.0
H1205 H 0.2617 0.22211 0.79481 0.0
H1206 H 0.30234 0.21911 0.743 0.0
C1207 C 0.35356 0.27331 0.79723 0.0
C1208 C 0.65023 0.58719 0.75224 0.0
C1209 C 0.66078 0.56906 0.78399 0.0
H1210 H 0.6191 0.63068 0.72998 0.0
C1211 C 0.64169 0.5748 0.81646 0.0
H1212 H 0.6653 0.58364 0.72715 0.0
C1213 C 0.61489 0.60138 0.818 0.0
C1214 C 0.60796 0.62296 0.7873 0.0
H1215 H 0.65018 0.56165 0.84137 0.0
H1216 H 0.60275 0.60781 0.84403 0.0
C1217 C 0.6242 0.61435 0.75395 0.0
C1218 C 0.15756 0.86411 0.18921 0.0
C1219 C 0.18544 0.85701 0.21385 0.0
H1220 H 0.10902 0.84416 0.16503 0.0
C1221 C 0.18221 0.8278 0.23821 0.0
H1222 H 0.15955 0.88662 0.17029 0.0
C1223 C 0.15352 0.80367 0.23541 0.0
C1224 C 0.12779 0.80816 0.20788 0.0
H1225 H 0.20321 0.82222 0.25787 0.0
H1226 H 0.15302 0.78016 0.25316 0.0
C1227 C 0.12881 0.83969 0.18617 0.0
C1228 C 0.28178 0.13392 0.69789 0.0
C1229 C 0.28849 0.09665 0.69494 0.0
H1230 H 0.29744 0.18733 0.68277 0.0
C1231 C 0.31807 0.08479 0.67402 0.0
H1232 H 0.25883 0.14402 0.71322 0.0
C1233 C 0.34089 0.11009 0.65682 0.0
C1234 C 0.33337 0.14729 0.65927 0.0
H1235 H 0.32346 0.05615 0.67101 0.0
H1236 H 0.36402 0.10066 0.64136 0.0
C1237 C 0.30359 0.15882 0.67988 0.0
C1238 C 0.82008 0.38624 0.28913 0.0
C1239 C 0.79942 0.38402 0.25737 0.0
H1240 H 0.86084 0.36062 0.32159 0.0
C1241 C 0.80974 0.35996 0.2299 0.0
H1242 H 0.81223 0.40443 0.31076 0.0
C1243 C 0.83687 0.33476 0.23622 0.0
C1244 C 0.85419 0.33356 0.26998 0.0
H1245 H 0.79411 0.35797 0.20515 0.0
H1246 H 0.84205 0.3142 0.21597 0.0
C1247 C 0.84761 0.36102 0.29541 0.0
loop_
_geom_bond_atom_site_label_1
_geom_bond_atom_site_label_2
_geom_bond_distance
_geom_bond_site_symmetry_2
_ccdc_geom_bond_type
Sc0 O3 2.025 . S
Sc0 O10 2.105 . S
Sc0 O13 2.105 . S
Sc0 O16 2.105 . S
Sc0 O19 2.105 . S
Sc1 O3 2.025 . S
Sc1 O11 2.105 . S
Sc1 O15 2.105 . S
Sc1 O17 2.105 . S
Sc1 O21 2.105 . S
Sc2 O3 2.025 . S
Sc2 O12 2.105 . S
Sc2 O14 2.105 . S
Sc2 O18 2.105 . S
Sc2 O20 2.105 . S
O3 Sc0 2.025 . S
O3 Sc1 2.025 . S
O3 Sc2 2.025 . S
C4 O10 1.268 . S
C4 O20 1.268 . S
C5 O11 1.268 . S
C5 O19 1.268 . S
C6 O12 1.268 . S
C6 O21 1.268 . S
C7 O13 1.268 . S
C7 O17 1.268 . S
C8 O14 1.268 . S
C8 O16 1.268 . S
C9 O15 1.268 . S
C9 O18 1.268 . S
O10 Sc0 2.105 . S
O10 C4 1.268 . S
O11 Sc1 2.105 . S
O11 C5 1.268 . S
O12 Sc2 2.105 . S
O12 C6 1.268 . S
O13 Sc0 2.105 . S
O13 C7 1.268 . S
O14 Sc2 2.105 . S
O14 C8 1.268 . S
O15 Sc1 2.105 . S
O15 C9 1.268 . S
O16 Sc0 2.105 . S
O16 C8 1.268 . S
O17 Sc1 2.105 . S
O17 C7 1.268 . S
O18 Sc2 2.105 . S
O18 C9 1.268 . S
O19 Sc0 2.105 . S
O19 C5 1.268 . S
O20 Sc2 2.105 . S
O20 C4 1.268 . S
O21 Sc1 2.105 . S
O21 C6 1.268 . S
Sc22 O25 2.025 . S
Sc22 O32 2.105 . S
Sc22 O35 2.105 . S
Sc22 O38 2.105 . S
Sc22 O41 2.105 . S
Sc23 O25 2.025 . S
Sc23 O33 2.105 . S
Sc23 O37 2.105 . S
Sc23 O39 2.105 . S
Sc23 O43 2.105 . S
Sc24 O25 2.025 . S
Sc24 O34 2.105 . S
Sc24 O36 2.105 . S
Sc24 O40 2.105 . S
Sc24 O42 2.105 . S
O25 Sc22 2.025 . S
O25 Sc23 2.025 . S
O25 Sc24 2.025 . S
C26 O32 1.268 . S
C26 O42 1.268 . S
C27 O33 1.268 . S
C27 O41 1.268 . S
C28 O34 1.268 . S
C28 O43 1.268 . S
C29 O35 1.268 . S
C29 O39 1.268 . S
C30 O36 1.268 . S
C30 O38 1.268 . S
C31 O37 1.268 . S
C31 O40 1.268 . S
O32 Sc22 2.105 . S
O32 C26 1.268 . S
O33 Sc23 2.105 . S
O33 C27 1.268 . S
O34 Sc24 2.105 . S
O34 C28 1.268 . S
O35 Sc22 2.105 . S
O35 C29 1.268 . S
O36 Sc24 2.105 . S
O36 C30 1.268 . S
O37 Sc23 2.105 . S
O37 C31 1.268 . S
O38 Sc22 2.105 . S
O38 C30 1.268 . S
O39 Sc23 2.105 . S
O39 C29 1.268 . S
O40 Sc24 2.105 . S
O40 C31 1.268 . S
O41 Sc22 2.105 . S
O41 C27 1.268 . S
O42 Sc24 2.105 . S
O42 C26 1.268 . S
O43 Sc23 2.105 . S
O43 C28 1.268 . S
Sc44 O47 2.025 . S
Sc44 O54 2.105 . S
Sc44 O57 2.105 . S
Sc44 O60 2.105 . S
Sc44 O63 2.105 . S
Sc45 O47 2.025 . S
Sc45 O55 2.105 . S
Sc45 O59 2.105 . S
Sc45 O61 2.105 . S
Sc45 O65 2.105 . S
Sc46 O47 2.025 . S
Sc46 O56 2.105 . S
Sc46 O58 2.105 . S
Sc46 O62 2.105 . S
Sc46 O64 2.105 . S
O47 Sc44 2.025 . S
O47 Sc45 2.025 . S
O47 Sc46 2.025 . S
C48 O54 1.268 . S
C48 O64 1.268 . S
C49 O55 1.268 . S
C49 O63 1.268 . S
C50 O56 1.258 1_565 S
C50 O65 1.265 1_565 S
C51 O57 1.268 . S
C51 O61 1.268 . S
C52 O58 1.268 . S
C52 O60 1.268 . S
C53 O59 1.268 . S
C53 O62 1.268 . S
O54 Sc44 2.105 . S
O54 C48 1.268 . S
O55 Sc45 2.105 . S
O55 C49 1.268 . S
O56 Sc46 2.105 . S
O56 C50 1.258 1_545 S
O57 Sc44 2.105 . S
O57 C51 1.268 . S
O58 Sc46 2.105 . S
O58 C52 1.268 . S
O59 Sc45 2.105 . S
O59 C53 1.268 . S
O60 Sc44 2.105 . S
O60 C52 1.268 . S
O61 Sc45 2.105 . S
O61 C51 1.268 . S
O62 Sc46 2.105 . S
O62 C53 1.268 . S
O63 Sc44 2.105 . S
O63 C49 1.268 . S
O64 Sc46 2.105 . S
O64 C48 1.268 . S
O65 Sc45 2.105 . S
O65 C50 1.265 1_545 S
Sc66 O69 2.025 . S
Sc66 O76 2.105 . S
Sc66 O79 2.105 . S
Sc66 O82 2.105 . S
Sc66 O85 2.105 . S
Sc67 O69 2.025 . S
Sc67 O77 2.105 . S
Sc67 O81 2.105 . S
Sc67 O83 2.105 . S
Sc67 O87 2.105 . S
Sc68 O69 2.025 . S
Sc68 O78 2.105 . S
Sc68 O80 2.105 . S
Sc68 O84 2.105 . S
Sc68 O86 2.105 . S
O69 Sc66 2.025 . S
O69 Sc67 2.025 . S
O69 Sc68 2.025 . S
C70 O76 1.268 . S
C70 O86 1.268 . S
C71 O77 1.268 . S
C71 O85 1.268 . S
C72 O78 1.268 . S
C72 O87 1.268 . S
C73 O79 1.258 1_545 S
C73 O83 1.265 1_545 S
C74 O80 1.268 . S
C74 O82 1.268 . S
C75 O81 1.268 . S
C75 O84 1.268 . S
O76 Sc66 2.105 . S
O76 C70 1.268 . S
O77 Sc67 2.105 . S
O77 C71 1.268 . S
O78 Sc68 2.105 . S
O78 C72 1.268 . S
O79 Sc66 2.105 . S
O79 C73 1.258 1_565 S
O80 Sc68 2.105 . S
O80 C74 1.268 . S
O81 Sc67 2.105 . S
O81 C75 1.268 . S
O82 Sc66 2.105 . S
O82 C74 1.268 . S
O83 Sc67 2.105 . S
O83 C73 1.265 1_565 S
O84 Sc68 2.105 . S
O84 C75 1.268 . S
O85 Sc66 2.105 . S
O85 C71 1.268 . S
O86 Sc68 2.105 . S
O86 C70 1.268 . S
O87 Sc67 2.105 . S
O87 C72 1.268 . S
Sc88 O91 2.025 . S
Sc88 O98 2.105 . S
Sc88 O101 2.105 . S
Sc88 O104 2.105 . S
Sc88 O107 2.105 . S
Sc89 O91 2.025 . S
Sc89 O99 2.105 . S
Sc89 O103 2.105 . S
Sc89 O105 2.105 . S
Sc89 O109 2.105 . S
Sc90 O91 2.025 . S
Sc90 O100 2.105 . S
Sc90 O102 2.105 . S
Sc90 O106 2.105 . S
Sc90 O108 2.105 . S
O91 Sc88 2.025 . S
O91 Sc89 2.025 . S
O91 Sc90 2.025 . S
C92 O98 1.268 . S
C92 O108 1.268 . S
C93 O99 1.268 . S
C93 O107 1.268 . S
C94 O100 1.268 . S
C94 O109 1.268 . S
C95 O101 1.268 . S
C95 O105 1.268 . S
C96 O102 1.268 . S
C96 O104 1.268 . S
C97 O103 1.268 . S
C97 O106 1.268 . S
O98 Sc88 2.105 . S
O98 C92 1.268 . S
O99 Sc89 2.105 . S
O99 C93 1.268 . S
O100 Sc90 2.105 . S
O100 C94 1.268 . S
O101 Sc88 2.105 . S
O101 C95 1.268 . S
O102 Sc90 2.105 . S
O102 C96 1.268 . S
O103 Sc89 2.105 . S
O103 C97 1.268 . S
O104 Sc88 2.105 . S
O104 C96 1.268 . S
O105 Sc89 2.105 . S
O105 C95 1.268 . S
O106 Sc90 2.105 . S
O106 C97 1.268 . S
O107 Sc88 2.105 . S
O107 C93 1.268 . S
O108 Sc90 2.105 . S
O108 C92 1.268 . S
O109 Sc89 2.105 . S
O109 C94 1.268 . S
Sc110 O113 2.025 . S
Sc110 O120 2.105 . S
Sc110 O123 2.105 . S
Sc110 O126 2.105 . S
Sc110 O129 2.105 . S
Sc111 O113 2.025 . S
Sc111 O121 2.105 . S
Sc111 O125 2.105 . S
Sc111 O127 2.105 . S
Sc111 O131 2.105 . S
Sc112 O113 2.025 . S
Sc112 O122 2.105 . S
Sc112 O124 2.105 . S
Sc112 O128 2.105 . S
Sc112 O130 2.105 . S
O113 Sc110 2.025 . S
O113 Sc111 2.025 . S
O113 Sc112 2.025 . S
C114 O120 1.268 . S
C114 O130 1.268 . S
C115 O121 1.268 . S
C115 O129 1.268 . S
C116 O122 1.258 1_554 S
C116 O131 1.265 1_554 S
C117 O123 1.268 . S
C117 O127 1.268 . S
C118 O124 1.268 . S
C118 O126 1.268 . S
C119 O125 1.268 . S
C119 O128 1.268 . S
O120 Sc110 2.105 . S
O120 C114 1.268 . S
O121 Sc111 2.105 . S
O121 C115 1.268 . S
O122 Sc112 2.105 . S
O122 C116 1.258 1_556 S
O123 Sc110 2.105 . S
O123 C117 1.268 . S
O124 Sc112 2.105 . S
O124 C118 1.268 . S
O125 Sc111 2.105 . S
O125 C119 1.268 . S
O126 Sc110 2.105 . S
O126 C118 1.268 . S
O127 Sc111 2.105 . S
O127 C117 1.268 . S
O128 Sc112 2.105 . S
O128 C119 1.268 . S
O129 Sc110 2.105 . S
O129 C115 1.268 . S
O130 Sc112 2.105 . S
O130 C114 1.268 . S
O131 Sc111 2.105 . S
O131 C116 1.265 1_556 S
Sc132 O135 2.025 . S
Sc132 O142 2.105 . S
Sc132 O145 2.105 . S
Sc132 O148 2.105 . S
Sc132 O151 2.105 . S
Sc133 O135 2.025 . S
Sc133 O143 2.105 . S
Sc133 O147 2.105 . S
Sc133 O149 2.105 . S
Sc133 O153 2.105 . S
Sc134 O135 2.025 . S
Sc134 O144 2.105 . S
Sc134 O146 2.105 . S
Sc134 O150 2.105 . S
Sc134 O152 2.105 . S
O135 Sc132 2.025 . S
O135 Sc133 2.025 . S
O135 Sc134 2.025 . S
C136 O142 1.268 . S
C136 O152 1.268 . S
C137 O143 1.268 . S
C137 O151 1.268 . S
C138 O144 1.268 . S
C138 O153 1.268 . S
C139 O145 1.268 . S
C139 O149 1.268 . S
C140 O146 1.268 . S
C140 O148 1.268 . S
C141 O147 1.268 . S
C141 O150 1.268 . S
O142 Sc132 2.105 . S
O142 C136 1.268 . S
O143 Sc133 2.105 . S
O143 C137 1.268 . S
O144 Sc134 2.105 . S
O144 C138 1.268 . S
O145 Sc132 2.105 . S
O145 C139 1.268 . S
O146 Sc134 2.105 . S
O146 C140 1.268 . S
O147 Sc133 2.105 . S
O147 C141 1.268 . S
O148 Sc132 2.105 . S
O148 C140 1.268 . S
O149 Sc133 2.105 . S
O149 C139 1.268 . S
O150 Sc134 2.105 . S
O150 C141 1.268 . S
O151 Sc132 2.105 . S
O151 C137 1.268 . S
O152 Sc134 2.105 . S
O152 C136 1.268 . S
O153 Sc133 2.105 . S
O153 C138 1.268 . S
Sc154 O157 2.025 . S
Sc154 O164 2.105 . S
Sc154 O167 2.105 . S
Sc154 O170 2.105 . S
Sc154 O173 2.105 . S
Sc155 O157 2.025 . S
Sc155 O165 2.105 . S
Sc155 O169 2.105 . S
Sc155 O171 2.105 . S
Sc155 O175 2.105 . S
Sc156 O157 2.025 . S
Sc156 O166 2.105 . S
Sc156 O168 2.105 . S
Sc156 O172 2.105 . S
Sc156 O174 2.105 . S
O157 Sc154 2.025 . S
O157 Sc155 2.025 . S
O157 Sc156 2.025 . S
C158 O164 1.268 . S
C158 O174 1.268 . S
C159 O165 1.268 . S
C159 O173 1.268 . S
C160 O166 1.268 . S
C160 O175 1.268 . S
C161 O167 1.258 1_556 S
C161 O171 1.265 1_556 S
C162 O168 1.268 . S
C162 O170 1.268 . S
C163 O169 1.268 . S
C163 O172 1.268 . S
O164 Sc154 2.105 . S
O164 C158 1.268 . S
O165 Sc155 2.105 . S
O165 C159 1.268 . S
O166 Sc156 2.105 . S
O166 C160 1.268 . S
O167 Sc154 2.105 . S
O167 C161 1.258 1_554 S
O168 Sc156 2.105 . S
O168 C162 1.268 . S
O169 Sc155 2.105 . S
O169 C163 1.268 . S
O170 Sc154 2.105 . S
O170 C162 1.268 . S
O171 Sc155 2.105 . S
O171 C161 1.265 1_554 S
O172 Sc156 2.105 . S
O172 C163 1.268 . S
O173 Sc154 2.105 . S
O173 C159 1.268 . S
O174 Sc156 2.105 . S
O174 C158 1.268 . S
O175 Sc155 2.105 . S
O175 C160 1.268 . S
Sc176 O179 2.025 . S
Sc176 O186 2.105 . S
Sc176 O189 2.105 . S
Sc176 O192 2.105 . S
Sc176 O195 2.105 . S
Sc177 O179 2.025 . S
Sc177 O187 2.105 . S
Sc177 O191 2.105 . S
Sc177 O193 2.105 . S
Sc177 O197 2.105 . S
Sc178 O179 2.025 . S
Sc178 O188 2.105 . S
Sc178 O190 2.105 . S
Sc178 O194 2.105 . S
Sc178 O196 2.105 . S
O179 Sc176 2.025 . S
O179 Sc177 2.025 . S
O179 Sc178 2.025 . S
C180 O186 1.268 . S
C180 O196 1.268 . S
C181 O187 1.268 . S
C181 O195 1.268 . S
C182 O188 1.268 . S
C182 O197 1.268 . S
C183 O189 1.268 . S
C183 O193 1.268 . S
C184 O190 1.268 . S
C184 O192 1.268 . S
C185 O191 1.268 . S
C185 O194 1.268 . S
O186 Sc176 2.105 . S
O186 C180 1.268 . S
O187 Sc177 2.105 . S
O187 C181 1.268 . S
O188 Sc178 2.105 . S
O188 C182 1.268 . S
O189 Sc176 2.105 . S
O189 C183 1.268 . S
O190 Sc178 2.105 . S
O190 C184 1.268 . S
O191 Sc177 2.105 . S
O191 C185 1.268 . S
O192 Sc176 2.105 . S
O192 C184 1.268 . S
O193 Sc177 2.105 . S
O193 C183 1.268 . S
O194 Sc178 2.105 . S
O194 C185 1.268 . S
O195 Sc176 2.105 . S
O195 C181 1.268 . S
O196 Sc178 2.105 . S
O196 C180 1.268 . S
O197 Sc177 2.105 . S
O197 C182 1.268 . S
Sc198 O201 2.025 . S
Sc198 O208 2.105 . S
Sc198 O211 2.105 . S
Sc198 O214 2.105 . S
Sc198 O217 2.105 . S
Sc199 O201 2.025 . S
Sc199 O209 2.105 . S
Sc199 O213 2.105 . S
Sc199 O215 2.105 . S
Sc199 O219 2.105 . S
Sc200 O201 2.025 . S
Sc200 O210 2.105 . S
Sc200 O212 2.105 . S
Sc200 O216 2.105 . S
Sc200 O218 2.105 . S
O201 Sc198 2.025 . S
O201 Sc199 2.025 . S
O201 Sc200 2.025 . S
C202 O208 1.268 . S
C202 O218 1.268 . S
C203 O209 1.268 . S
C203 O217 1.268 . S
C204 O210 1.268 . S
C204 O219 1.268 . S
C205 O211 1.258 1_455 S
C205 O215 1.265 1_455 S
C206 O212 1.268 . S
C206 O214 1.268 . S
C207 O213 1.268 . S
C207 O216 1.268 . S
O208 Sc198 2.105 . S
O208 C202 1.268 . S
O209 Sc199 2.105 . S
O209 C203 1.268 . S
O210 Sc200 2.105 . S
O210 C204 1.268 . S
O211 Sc198 2.105 . S
O211 C205 1.258 1_655 S
O212 Sc200 2.105 . S
O212 C206 1.268 . S
O213 Sc199 2.105 . S
O213 C207 1.268 . S
O214 Sc198 2.105 . S
O214 C206 1.268 . S
O215 Sc199 2.105 . S
O215 C205 1.265 1_655 S
O216 Sc200 2.105 . S
O216 C207 1.268 . S
O217 Sc198 2.105 . S
O217 C203 1.268 . S
O218 Sc200 2.105 . S
O218 C202 1.268 . S
O219 Sc199 2.105 . S
O219 C204 1.268 . S
Sc220 O223 2.025 . S
Sc220 O230 2.105 . S
Sc220 O233 2.105 . S
Sc220 O236 2.105 . S
Sc220 O239 2.105 . S
Sc221 O223 2.025 . S
Sc221 O231 2.105 . S
Sc221 O235 2.105 . S
Sc221 O237 2.105 . S
Sc221 O241 2.105 . S
Sc222 O223 2.025 . S
Sc222 O232 2.105 . S
Sc222 O234 2.105 . S
Sc222 O238 2.105 . S
Sc222 O240 2.105 . S
O223 Sc220 2.025 . S
O223 Sc221 2.025 . S
O223 Sc222 2.025 . S
C224 O230 1.268 . S
C224 O240 1.268 . S
C225 O231 1.268 . S
C225 O239 1.268 . S
C226 O232 1.268 . S
C226 O241 1.268 . S
C227 O233 1.268 . S
C227 O237 1.268 . S
C228 O234 1.268 . S
C228 O236 1.268 . S
C229 O235 1.268 . S
C229 O238 1.268 . S
O230 Sc220 2.105 . S
O230 C224 1.268 . S
O231 Sc221 2.105 . S
O231 C225 1.268 . S
O232 Sc222 2.105 . S
O232 C226 1.268 . S
O233 Sc220 2.105 . S
O233 C227 1.268 . S
O234 Sc222 2.105 . S
O234 C228 1.268 . S
O235 Sc221 2.105 . S
O235 C229 1.268 . S
O236 Sc220 2.105 . S
O236 C228 1.268 . S
O237 Sc221 2.105 . S
O237 C227 1.268 . S
O238 Sc222 2.105 . S
O238 C229 1.268 . S
O239 Sc220 2.105 . S
O239 C225 1.268 . S
O240 Sc222 2.105 . S
O240 C224 1.268 . S
O241 Sc221 2.105 . S
O241 C226 1.268 . S
Sc242 O245 2.025 . S
Sc242 O252 2.105 . S
Sc242 O255 2.105 . S
Sc242 O258 2.105 . S
Sc242 O261 2.105 . S
Sc243 O245 2.025 . S
Sc243 O253 2.105 . S
Sc243 O257 2.105 . S
Sc243 O259 2.105 . S
Sc243 O263 2.105 . S
Sc244 O245 2.025 . S
Sc244 O254 2.105 . S
Sc244 O256 2.105 . S
Sc244 O260 2.105 . S
Sc244 O262 2.105 . S
O245 Sc242 2.025 . S
O245 Sc243 2.025 . S
O245 Sc244 2.025 . S
C246 O252 1.268 . S
C246 O262 1.268 . S
C247 O253 1.268 . S
C247 O261 1.268 . S
C248 O254 1.258 1_655 S
C248 O263 1.265 1_655 S
C249 O255 1.268 . S
C249 O259 1.268 . S
C250 O256 1.268 . S
C250 O258 1.268 . S
C251 O257 1.268 . S
C251 O260 1.268 . S
O252 Sc242 2.105 . S
O252 C246 1.268 . S
O253 Sc243 2.105 . S
O253 C247 1.268 . S
O254 Sc244 2.105 . S
O254 C248 1.258 1_455 S
O255 Sc242 2.105 . S
O255 C249 1.268 . S
O256 Sc244 2.105 . S
O256 C250 1.268 . S
O257 Sc243 2.105 . S
O257 C251 1.268 . S
O258 Sc242 2.105 . S
O258 C250 1.268 . S
O259 Sc243 2.105 . S
O259 C249 1.268 . S
O260 Sc244 2.105 . S
O260 C251 1.268 . S
O261 Sc242 2.105 . S
O261 C247 1.268 . S
O262 Sc244 2.105 . S
O262 C246 1.268 . S
O263 Sc243 2.105 . S
O263 C248 1.265 1_455 S
Sc264 O267 2.025 . S
Sc264 O274 2.105 . S
Sc264 O277 2.105 . S
Sc264 O280 2.105 . S
Sc264 O283 2.105 . S
Sc265 O267 2.025 . S
Sc265 O275 2.105 . S
Sc265 O279 2.105 . S
Sc265 O281 2.105 . S
Sc265 O285 2.105 . S
Sc266 O267 2.025 . S
Sc266 O276 2.105 . S
Sc266 O278 2.105 . S
Sc266 O282 2.105 . S
Sc266 O284 2.105 . S
O267 Sc264 2.025 . S
O267 Sc265 2.025 . S
O267 Sc266 2.025 . S
C268 O274 1.268 . S
C268 O284 1.268 . S
C269 O275 1.268 . S
C269 O283 1.268 . S
C270 O276 1.268 . S
C270 O285 1.268 . S
C271 O277 1.268 . S
C271 O281 1.268 . S
C272 O278 1.268 . S
C272 O280 1.268 . S
C273 O279 1.268 . S
C273 O282 1.268 . S
O274 Sc264 2.105 . S
O274 C268 1.268 . S
O275 Sc265 2.105 . S
O275 C269 1.268 . S
O276 Sc266 2.105 . S
O276 C270 1.268 . S
O277 Sc264 2.105 . S
O277 C271 1.268 . S
O278 Sc266 2.105 . S
O278 C272 1.268 . S
O279 Sc265 2.105 . S
O279 C273 1.268 . S
O280 Sc264 2.105 . S
O280 C272 1.268 . S
O281 Sc265 2.105 . S
O281 C271 1.268 . S
O282 Sc266 2.105 . S
O282 C273 1.268 . S
O283 Sc264 2.105 . S
O283 C269 1.268 . S
O284 Sc266 2.105 . S
O284 C268 1.268 . S
O285 Sc265 2.105 . S
O285 C270 1.268 . S
Sc286 O289 2.025 . S
Sc286 O296 2.105 . S
Sc286 O299 2.105 . S
Sc286 O302 2.105 . S
Sc286 O305 2.105 . S
Sc287 O289 2.025 . S
Sc287 O297 2.105 . S
Sc287 O301 2.105 . S
Sc287 O303 2.105 . S
Sc287 O307 2.105 . S
Sc288 O289 2.025 . S
Sc288 O298 2.105 . S
Sc288 O300 2.105 . S
Sc288 O304 2.105 . S
Sc288 O306 2.105 . S
O289 Sc286 2.025 . S
O289 Sc287 2.025 . S
O289 Sc288 2.025 . S
C290 O296 1.268 . S
C290 O306 1.268 . S
C291 O297 1.268 . S
C291 O305 1.268 . S
C292 O298 1.268 . S
C292 O307 1.268 . S
C293 O299 1.268 . S
C293 O303 1.268 . S
C294 O300 1.268 . S
C294 O302 1.268 . S
C295 O301 1.268 . S
C295 O304 1.268 . S
O296 Sc286 2.105 . S
O296 C290 1.268 . S
O297 Sc287 2.105 . S
O297 C291 1.268 . S
O298 Sc288 2.105 . S
O298 C292 1.268 . S
O299 Sc286 2.105 . S
O299 C293 1.268 . S
O300 Sc288 2.105 . S
O300 C294 1.268 . S
O301 Sc287 2.105 . S
O301 C295 1.268 . S
O302 Sc286 2.105 . S
O302 C294 1.268 . S
O303 Sc287 2.105 . S
O303 C293 1.268 . S
O304 Sc288 2.105 . S
O304 C295 1.268 . S
O305 Sc286 2.105 . S
O305 C291 1.268 . S
O306 Sc288 2.105 . S
O306 C290 1.268 . S
O307 Sc287 2.105 . S
O307 C292 1.268 . S
Sc308 O311 2.025 . S
Sc308 O318 2.105 . S
Sc308 O321 2.105 . S
Sc308 O324 2.105 . S
Sc308 O327 2.105 . S
Sc309 O311 2.025 . S
Sc309 O319 2.105 . S
Sc309 O323 2.105 . S
Sc309 O325 2.105 . S
Sc309 O329 2.105 . S
Sc310 O311 2.025 . S
Sc310 O320 2.105 . S
Sc310 O322 2.105 . S
Sc310 O326 2.105 . S
Sc310 O328 2.105 . S
O311 Sc308 2.025 . S
O311 Sc309 2.025 . S
O311 Sc310 2.025 . S
C312 O318 1.268 . S
C312 O328 1.268 . S
C313 O319 1.268 . S
C313 O327 1.268 . S
C314 O320 1.268 . S
C314 O329 1.268 . S
C315 O321 1.268 . S
C315 O325 1.268 . S
C316 O322 1.268 . S
C316 O324 1.268 . S
C317 O323 1.265 1_545 S
C317 O326 1.258 1_545 S
O318 Sc308 2.105 . S
O318 C312 1.268 . S
O319 Sc309 2.105 . S
O319 C313 1.268 . S
O320 Sc310 2.105 . S
O320 C314 1.268 . S
O321 Sc308 2.105 . S
O321 C315 1.268 . S
O322 Sc310 2.105 . S
O322 C316 1.268 . S
O323 Sc309 2.105 . S
O323 C317 1.265 1_565 S
O324 Sc308 2.105 . S
O324 C316 1.268 . S
O325 Sc309 2.105 . S
O325 C315 1.268 . S
O326 Sc310 2.105 . S
O326 C317 1.258 1_565 S
O327 Sc308 2.105 . S
O327 C313 1.268 . S
O328 Sc310 2.105 . S
O328 C312 1.268 . S
O329 Sc309 2.105 . S
O329 C314 1.268 . S
Sc330 O333 2.025 . S
Sc330 O340 2.105 . S
Sc330 O343 2.105 . S
Sc330 O346 2.105 . S
Sc330 O349 2.105 . S
Sc331 O333 2.025 . S
Sc331 O341 2.105 . S
Sc331 O345 2.105 . S
Sc331 O347 2.105 . S
Sc331 O351 2.105 . S
Sc332 O333 2.025 . S
Sc332 O342 2.105 . S
Sc332 O344 2.105 . S
Sc332 O348 2.105 . S
Sc332 O350 2.105 . S
O333 Sc330 2.025 . S
O333 Sc331 2.025 . S
O333 Sc332 2.025 . S
C334 O340 1.268 . S
C334 O350 1.268 . S
C335 O341 1.268 . S
C335 O349 1.268 . S
C336 O342 1.268 . S
C336 O351 1.268 . S
C337 O343 1.268 . S
C337 O347 1.268 . S
C338 O344 1.268 . S
C338 O346 1.268 . S
C339 O345 1.265 1_565 S
C339 O348 1.258 1_565 S
O340 Sc330 2.105 . S
O340 C334 1.268 . S
O341 Sc331 2.105 . S
O341 C335 1.268 . S
O342 Sc332 2.105 . S
O342 C336 1.268 . S
O343 Sc330 2.105 . S
O343 C337 1.268 . S
O344 Sc332 2.105 . S
O344 C338 1.268 . S
O345 Sc331 2.105 . S
O345 C339 1.265 1_545 S
O346 Sc330 2.105 . S
O346 C338 1.268 . S
O347 Sc331 2.105 . S
O347 C337 1.268 . S
O348 Sc332 2.105 . S
O348 C339 1.258 1_545 S
O349 Sc330 2.105 . S
O349 C335 1.268 . S
O350 Sc332 2.105 . S
O350 C334 1.268 . S
O351 Sc331 2.105 . S
O351 C336 1.268 . S
Sc352 O355 2.025 . S
Sc352 O362 2.105 . S
Sc352 O365 2.105 . S
Sc352 O368 2.105 . S
Sc352 O371 2.105 . S
Sc353 O355 2.025 . S
Sc353 O363 2.105 . S
Sc353 O367 2.105 . S
Sc353 O369 2.105 . S
Sc353 O373 2.105 . S
Sc354 O355 2.025 . S
Sc354 O364 2.105 . S
Sc354 O366 2.105 . S
Sc354 O370 2.105 . S
Sc354 O372 2.105 . S
O355 Sc352 2.025 . S
O355 Sc353 2.025 . S
O355 Sc354 2.025 . S
C356 O362 1.268 . S
C356 O372 1.268 . S
C357 O363 1.268 . S
C357 O371 1.268 . S
C358 O364 1.268 . S
C358 O373 1.268 . S
C359 O365 1.268 . S
C359 O369 1.268 . S
C360 O366 1.268 . S
C360 O368 1.268 . S
C361 O367 1.268 . S
C361 O370 1.268 . S
O362 Sc352 2.105 . S
O362 C356 1.268 . S
O363 Sc353 2.105 . S
O363 C357 1.268 . S
O364 Sc354 2.105 . S
O364 C358 1.268 . S
O365 Sc352 2.105 . S
O365 C359 1.268 . S
O366 Sc354 2.105 . S
O366 C360 1.268 . S
O367 Sc353 2.105 . S
O367 C361 1.268 . S
O368 Sc352 2.105 . S
O368 C360 1.268 . S
O369 Sc353 2.105 . S
O369 C359 1.268 . S
O370 Sc354 2.105 . S
O370 C361 1.268 . S
O371 Sc352 2.105 . S
O371 C357 1.268 . S
O372 Sc354 2.105 . S
O372 C356 1.268 . S
O373 Sc353 2.105 . S
O373 C358 1.268 . S
Sc374 O377 2.025 . S
Sc374 O384 2.105 . S
Sc374 O387 2.105 . S
Sc374 O390 2.105 . S
Sc374 O393 2.105 . S
Sc375 O377 2.025 . S
Sc375 O385 2.105 . S
Sc375 O389 2.105 . S
Sc375 O391 2.105 . S
Sc375 O395 2.105 . S
Sc376 O377 2.025 . S
Sc376 O386 2.105 . S
Sc376 O388 2.105 . S
Sc376 O392 2.105 . S
Sc376 O394 2.105 . S
O377 Sc374 2.025 . S
O377 Sc375 2.025 . S
O377 Sc376 2.025 . S
C378 O384 1.268 . S
C378 O394 1.268 . S
C379 O385 1.265 1_556 S
C379 O393 1.258 1_556 S
C380 O386 1.268 . S
C380 O395 1.268 . S
C381 O387 1.268 . S
C381 O391 1.268 . S
C382 O388 1.268 . S
C382 O390 1.268 . S
C383 O389 1.268 . S
C383 O392 1.268 . S
O384 Sc374 2.105 . S
O384 C378 1.268 . S
O385 Sc375 2.105 . S
O385 C379 1.265 1_554 S
O386 Sc376 2.105 . S
O386 C380 1.268 . S
O387 Sc374 2.105 . S
O387 C381 1.268 . S
O388 Sc376 2.105 . S
O388 C382 1.268 . S
O389 Sc375 2.105 . S
O389 C383 1.268 . S
O390 Sc374 2.105 . S
O390 C382 1.268 . S
O391 Sc375 2.105 . S
O391 C381 1.268 . S
O392 Sc376 2.105 . S
O392 C383 1.268 . S
O393 Sc374 2.105 . S
O393 C379 1.258 1_554 S
O394 Sc376 2.105 . S
O394 C378 1.268 . S
O395 Sc375 2.105 . S
O395 C380 1.268 . S
Sc396 O399 2.025 . S
Sc396 O406 2.105 . S
Sc396 O409 2.105 . S
Sc396 O412 2.105 . S
Sc396 O415 2.105 . S
Sc397 O399 2.025 . S
Sc397 O407 2.105 . S
Sc397 O411 2.105 . S
Sc397 O413 2.105 . S
Sc397 O417 2.105 . S
Sc398 O399 2.025 . S
Sc398 O408 2.105 . S
Sc398 O410 2.105 . S
Sc398 O414 2.105 . S
Sc398 O416 2.105 . S
O399 Sc396 2.025 . S
O399 Sc397 2.025 . S
O399 Sc398 2.025 . S
C400 O406 1.268 . S
C400 O416 1.268 . S
C401 O407 1.268 . S
C401 O415 1.268 . S
C402 O408 1.268 . S
C402 O417 1.268 . S
C403 O409 1.268 . S
C403 O413 1.268 . S
C404 O410 1.268 . S
C404 O412 1.268 . S
C405 O411 1.268 . S
C405 O414 1.268 . S
O406 Sc396 2.105 . S
O406 C400 1.268 . S
O407 Sc397 2.105 . S
O407 C401 1.268 . S
O408 Sc398 2.105 . S
O408 C402 1.268 . S
O409 Sc396 2.105 . S
O409 C403 1.268 . S
O410 Sc398 2.105 . S
O410 C404 1.268 . S
O411 Sc397 2.105 . S
O411 C405 1.268 . S
O412 Sc396 2.105 . S
O412 C404 1.268 . S
O413 Sc397 2.105 . S
O413 C403 1.268 . S
O414 Sc398 2.105 . S
O414 C405 1.268 . S
O415 Sc396 2.105 . S
O415 C401 1.268 . S
O416 Sc398 2.105 . S
O416 C400 1.268 . S
O417 Sc397 2.105 . S
O417 C402 1.268 . S
Sc418 O421 2.025 . S
Sc418 O428 2.105 . S
Sc418 O431 2.105 . S
Sc418 O434 2.105 . S
Sc418 O437 2.105 . S
Sc419 O421 2.025 . S
Sc419 O429 2.105 . S
Sc419 O433 2.105 . S
Sc419 O435 2.105 . S
Sc419 O439 2.105 . S
Sc420 O421 2.025 . S
Sc420 O430 2.105 . S
Sc420 O432 2.105 . S
Sc420 O436 2.105 . S
Sc420 O438 2.105 . S
O421 Sc418 2.025 . S
O421 Sc419 2.025 . S
O421 Sc420 2.025 . S
C422 O428 1.268 . S
C422 O438 1.268 . S
C423 O429 1.265 1_554 S
C423 O437 1.258 1_554 S
C424 O430 1.268 . S
C424 O439 1.268 . S
C425 O431 1.268 . S
C425 O435 1.268 . S
C426 O432 1.268 . S
C426 O434 1.268 . S
C427 O433 1.268 . S
C427 O436 1.268 . S
O428 Sc418 2.105 . S
O428 C422 1.268 . S
O429 Sc419 2.105 . S
O429 C423 1.265 1_556 S
O430 Sc420 2.105 . S
O430 C424 1.268 . S
O431 Sc418 2.105 . S
O431 C425 1.268 . S
O432 Sc420 2.105 . S
O432 C426 1.268 . S
O433 Sc419 2.105 . S
O433 C427 1.268 . S
O434 Sc418 2.105 . S
O434 C426 1.268 . S
O435 Sc419 2.105 . S
O435 C425 1.268 . S
O436 Sc420 2.105 . S
O436 C427 1.268 . S
O437 Sc418 2.105 . S
O437 C423 1.258 1_556 S
O438 Sc420 2.105 . S
O438 C422 1.268 . S
O439 Sc419 2.105 . S
O439 C424 1.268 . S
Sc440 O443 2.025 . S
Sc440 O450 2.105 . S
Sc440 O453 2.105 . S
Sc440 O456 2.105 . S
Sc440 O459 2.105 . S
Sc441 O443 2.025 . S
Sc441 O451 2.105 . S
Sc441 O455 2.105 . S
Sc441 O457 2.105 . S
Sc441 O461 2.105 . S
Sc442 O443 2.025 . S
Sc442 O452 2.105 . S
Sc442 O454 2.105 . S
Sc442 O458 2.105 . S
Sc442 O460 2.105 . S
O443 Sc440 2.025 . S
O443 Sc441 2.025 . S
O443 Sc442 2.025 . S
C444 O450 1.268 . S
C444 O460 1.268 . S
C445 O451 1.268 . S
C445 O459 1.268 . S
C446 O452 1.268 . S
C446 O461 1.268 . S
C447 O453 1.268 . S
C447 O457 1.268 . S
C448 O454 1.268 . S
C448 O456 1.268 . S
C449 O455 1.268 . S
C449 O458 1.268 . S
O450 Sc440 2.105 . S
O450 C444 1.268 . S
O451 Sc441 2.105 . S
O451 C445 1.268 . S
O452 Sc442 2.105 . S
O452 C446 1.268 . S
O453 Sc440 2.105 . S
O453 C447 1.268 . S
O454 Sc442 2.105 . S
O454 C448 1.268 . S
O455 Sc441 2.105 . S
O455 C449 1.268 . S
O456 Sc440 2.105 . S
O456 C448 1.268 . S
O457 Sc441 2.105 . S
O457 C447 1.268 . S
O458 Sc442 2.105 . S
O458 C449 1.268 . S
O459 Sc440 2.105 . S
O459 C445 1.268 . S
O460 Sc442 2.105 . S
O460 C444 1.268 . S
O461 Sc441 2.105 . S
O461 C446 1.268 . S
Sc462 O465 2.025 . S
Sc462 O472 2.105 . S
Sc462 O475 2.105 . S
Sc462 O478 2.105 . S
Sc462 O481 2.105 . S
Sc463 O465 2.025 . S
Sc463 O473 2.105 . S
Sc463 O477 2.105 . S
Sc463 O479 2.105 . S
Sc463 O483 2.105 . S
Sc464 O465 2.025 . S
Sc464 O474 2.105 . S
Sc464 O476 2.105 . S
Sc464 O480 2.105 . S
Sc464 O482 2.105 . S
O465 Sc462 2.025 . S
O465 Sc463 2.025 . S
O465 Sc464 2.025 . S
C466 O472 1.268 . S
C466 O482 1.268 . S
C467 O473 1.265 1_655 S
C467 O481 1.258 1_655 S
C468 O474 1.268 . S
C468 O483 1.268 . S
C469 O475 1.268 . S
C469 O479 1.268 . S
C470 O476 1.268 . S
C470 O478 1.268 . S
C471 O477 1.268 . S
C471 O480 1.268 . S
O472 Sc462 2.105 . S
O472 C466 1.268 . S
O473 Sc463 2.105 . S
O473 C467 1.265 1_455 S
O474 Sc464 2.105 . S
O474 C468 1.268 . S
O475 Sc462 2.105 . S
O475 C469 1.268 . S
O476 Sc464 2.105 . S
O476 C470 1.268 . S
O477 Sc463 2.105 . S
O477 C471 1.268 . S
O478 Sc462 2.105 . S
O478 C470 1.268 . S
O479 Sc463 2.105 . S
O479 C469 1.268 . S
O480 Sc464 2.105 . S
O480 C471 1.268 . S
O481 Sc462 2.105 . S
O481 C467 1.258 1_455 S
O482 Sc464 2.105 . S
O482 C466 1.268 . S
O483 Sc463 2.105 . S
O483 C468 1.268 . S
Sc484 O487 2.025 . S
Sc484 O494 2.105 . S
Sc484 O497 2.105 . S
Sc484 O500 2.105 . S
Sc484 O503 2.105 . S
Sc485 O487 2.025 . S
Sc485 O495 2.105 . S
Sc485 O499 2.105 . S
Sc485 O501 2.105 . S
Sc485 O505 2.105 . S
Sc486 O487 2.025 . S
Sc486 O496 2.105 . S
Sc486 O498 2.105 . S
Sc486 O502 2.105 . S
Sc486 O504 2.105 . S
O487 Sc484 2.025 . S
O487 Sc485 2.025 . S
O487 Sc486 2.025 . S
C488 O494 1.268 . S
C488 O504 1.268 . S
C489 O495 1.268 . S
C489 O503 1.268 . S
C490 O496 1.268 . S
C490 O505 1.268 . S
C491 O497 1.268 . S
C491 O501 1.268 . S
C492 O498 1.268 . S
C492 O500 1.268 . S
C493 O499 1.268 . S
C493 O502 1.268 . S
O494 Sc484 2.105 . S
O494 C488 1.268 . S
O495 Sc485 2.105 . S
O495 C489 1.268 . S
O496 Sc486 2.105 . S
O496 C490 1.268 . S
O497 Sc484 2.105 . S
O497 C491 1.268 . S
O498 Sc486 2.105 . S
O498 C492 1.268 . S
O499 Sc485 2.105 . S
O499 C493 1.268 . S
O500 Sc484 2.105 . S
O500 C492 1.268 . S
O501 Sc485 2.105 . S
O501 C491 1.268 . S
O502 Sc486 2.105 . S
O502 C493 1.268 . S
O503 Sc484 2.105 . S
O503 C489 1.268 . S
O504 Sc486 2.105 . S
O504 C488 1.268 . S
O505 Sc485 2.105 . S
O505 C490 1.268 . S
Sc506 O509 2.025 . S
Sc506 O516 2.105 . S
Sc506 O519 2.105 . S
Sc506 O522 2.105 . S
Sc506 O525 2.105 . S
Sc507 O509 2.025 . S
Sc507 O517 2.105 . S
Sc507 O521 2.105 . S
Sc507 O523 2.105 . S
Sc507 O527 2.105 . S
Sc508 O509 2.025 . S
Sc508 O518 2.105 . S
Sc508 O520 2.105 . S
Sc508 O524 2.105 . S
Sc508 O526 2.105 . S
O509 Sc506 2.025 . S
O509 Sc507 2.025 . S
O509 Sc508 2.025 . S
C510 O516 1.268 . S
C510 O526 1.268 . S
C511 O517 1.268 . S
C511 O525 1.268 . S
C512 O518 1.268 . S
C512 O527 1.268 . S
C513 O519 1.268 . S
C513 O523 1.268 . S
C514 O520 1.268 . S
C514 O522 1.268 . S
C515 O521 1.265 1_455 S
C515 O524 1.258 1_455 S
O516 Sc506 2.105 . S
O516 C510 1.268 . S
O517 Sc507 2.105 . S
O517 C511 1.268 . S
O518 Sc508 2.105 . S
O518 C512 1.268 . S
O519 Sc506 2.105 . S
O519 C513 1.268 . S
O520 Sc508 2.105 . S
O520 C514 1.268 . S
O521 Sc507 2.105 . S
O521 C515 1.265 1_655 S
O522 Sc506 2.105 . S
O522 C514 1.268 . S
O523 Sc507 2.105 . S
O523 C513 1.268 . S
O524 Sc508 2.105 . S
O524 C515 1.258 1_655 S
O525 Sc506 2.105 . S
O525 C511 1.268 . S
O526 Sc508 2.105 . S
O526 C510 1.268 . S
O527 Sc507 2.105 . S
O527 C512 1.268 . S
C528 C529 1.387 . S
C528 H532 0.950 . S
C528 C537 1.390 . S
C529 C528 1.387 . S
C529 C531 1.387 . S
H530 C537 0.950 . S
C531 C529 1.387 . S
C531 C533 1.390 . S
C531 H535 0.950 . S
H532 C528 0.950 . S
C533 C531 1.390 . S
C533 C534 1.387 . S
C533 H536 0.950 . S
C534 C533 1.387 . S
C534 C537 1.387 . S
H535 C531 0.950 . S
H536 C533 0.950 . S
C537 C528 1.390 . S
C537 H530 0.950 . S
C537 C534 1.387 . S
C538 C539 1.387 . S
C538 H542 0.950 . S
C538 C547 1.390 . S
C539 C538 1.387 . S
C539 C541 1.387 . S
H540 C547 0.950 . S
C541 C539 1.387 . S
C541 C543 1.390 . S
C541 H545 0.950 . S
H542 C538 0.950 . S
C543 C541 1.390 . S
C543 C544 1.387 . S
C543 H546 0.950 . S
C544 C543 1.387 . S
C544 C547 1.387 . S
H545 C541 0.950 . S
H546 C543 0.950 . S
C547 C538 1.390 . S
C547 H540 0.950 . S
C547 C544 1.387 . S
C548 C549 1.387 . S
C548 H552 0.950 . S
C548 C557 1.390 . S
C549 C548 1.387 . S
C549 C551 1.387 . S
H550 C557 0.950 . S
C551 C549 1.387 . S
C551 C553 1.390 1_565 S
C551 H555 0.950 . S
H552 C548 0.950 . S
C553 C551 1.390 1_545 S
C553 C554 1.387 1_545 S
C553 H556 0.950 . S
C554 C553 1.387 1_565 S
C554 C557 1.387 . S
H555 C551 0.950 . S
H556 C553 0.950 . S
C557 C548 1.390 . S
C557 H550 0.950 . S
C557 C554 1.387 . S
C558 C559 1.387 1_565 S
C558 H562 0.950 . S
C558 C567 1.390 1_565 S
C559 C558 1.387 1_545 S
C559 C561 1.387 . S
H560 C567 0.950 . S
C561 C559 1.387 . S
C561 C563 1.390 . S
C561 H565 0.950 . S
H562 C558 0.950 . S
C563 C561 1.390 . S
C563 C564 1.387 . S
C563 H566 0.950 . S
C564 C563 1.387 . S
C564 C567 1.387 . S
H565 C561 0.950 . S
H566 C563 0.950 . S
C567 C558 1.390 1_545 S
C567 H560 0.950 . S
C567 C564 1.387 . S
C568 C569 1.387 . S
C568 H572 0.950 . S
C568 C577 1.390 . S
C569 C568 1.387 . S
C569 C571 1.387 . S
H570 C577 0.950 . S
C571 C569 1.387 . S
C571 C573 1.390 . S
C571 H575 0.950 . S
H572 C568 0.950 . S
C573 C571 1.390 . S
C573 C574 1.387 . S
C573 H576 0.950 . S
C574 C573 1.387 . S
C574 C577 1.387 . S
H575 C571 0.950 . S
H576 C573 0.950 . S
C577 C568 1.390 . S
C577 H570 0.950 . S
C577 C574 1.387 . S
C578 C579 1.387 . S
C578 H582 0.950 . S
C578 C587 1.390 . S
C579 C578 1.387 . S
C579 C581 1.387 . S
H580 C587 0.950 . S
C581 C579 1.387 . S
C581 C583 1.390 . S
C581 H585 0.950 . S
H582 C578 0.950 . S
C583 C581 1.390 . S
C583 C584 1.387 . S
C583 H586 0.950 1_554 S
C584 C583 1.387 . S
C584 C587 1.387 . S
H585 C581 0.950 . S
H586 C583 0.950 1_556 S
C587 C578 1.390 . S
C587 H580 0.950 . S
C587 C584 1.387 . S
C588 C589 1.387 . S
C588 H592 0.950 . S
C588 C597 1.390 . S
C589 C588 1.387 . S
C589 C591 1.387 . S
H590 C597 0.950 . S
C591 C589 1.387 . S
C591 C593 1.390 . S
C591 H595 0.950 . S
H592 C588 0.950 . S
C593 C591 1.390 . S
C593 C594 1.387 . S
C593 H596 0.950 . S
C594 C593 1.387 . S
C594 C597 1.387 . S
H595 C591 0.950 . S
H596 C593 0.950 . S
C597 C588 1.390 . S
C597 H590 0.950 . S
C597 C594 1.387 . S
C598 C599 1.387 . S
C598 H602 0.950 . S
C598 C607 1.390 . S
C599 C598 1.387 . S
C599 C601 1.387 . S
H600 C607 0.950 1_554 S
C601 C599 1.387 . S
C601 C603 1.390 . S
C601 H605 0.950 . S
H602 C598 0.950 . S
C603 C601 1.390 . S
C603 C604 1.387 . S
C603 H606 0.950 . S
C604 C603 1.387 . S
C604 C607 1.387 . S
H605 C601 0.950 . S
H606 C603 0.950 . S
C607 C598 1.390 . S
C607 H600 0.950 1_556 S
C607 C604 1.387 . S
C608 C609 1.387 . S
C608 H612 0.950 . S
C608 C617 1.390 . S
C609 C608 1.387 . S
C609 C611 1.387 . S
H610 C617 0.950 . S
C611 C609 1.387 . S
C611 C613 1.390 . S
C611 H615 0.950 . S
H612 C608 0.950 . S
C613 C611 1.390 . S
C613 C614 1.387 . S
C613 H616 0.950 . S
C614 C613 1.387 . S
C614 C617 1.387 . S
H615 C611 0.950 . S
H616 C613 0.950 . S
C617 C608 1.390 . S
C617 H610 0.950 . S
C617 C614 1.387 . S
C618 C619 1.387 . S
C618 H622 0.950 . S
C618 C627 1.390 . S
C619 C618 1.387 . S
C619 C621 1.387 . S
H620 C627 0.950 . S
C621 C619 1.387 . S
C621 C623 1.390 . S
C621 H625 0.950 . S
H622 C618 0.950 . S
C623 C621 1.390 . S
C623 C624 1.387 . S
C623 H626 0.950 . S
C624 C623 1.387 . S
C624 C627 1.387 . S
H625 C621 0.950 . S
H626 C623 0.950 . S
C627 C618 1.390 . S
C627 H620 0.950 . S
C627 C624 1.387 . S
C628 C629 1.387 . S
C628 H632 0.950 . S
C628 C637 1.390 . S
C629 C628 1.387 . S
C629 C631 1.387 . S
H630 C637 0.950 . S
C631 C629 1.387 . S
C631 C633 1.390 . S
C631 H635 0.950 . S
H632 C628 0.950 . S
C633 C631 1.390 . S
C633 C634 1.387 . S
C633 H636 0.950 . S
C634 C633 1.387 . S
C634 C637 1.387 . S
H635 C631 0.950 . S
H636 C633 0.950 . S
C637 C628 1.390 . S
C637 H630 0.950 . S
C637 C634 1.387 . S
C638 C639 1.387 . S
C638 H642 0.950 . S
C638 C647 1.390 . S
C639 C638 1.387 . S
C639 C641 1.387 . S
H640 C647 0.950 . S
C641 C639 1.387 . S
C641 C643 1.390 . S
C641 H645 0.950 . S
H642 C638 0.950 . S
C643 C641 1.390 . S
C643 C644 1.387 . S
C643 H646 0.950 1_655 S
C644 C643 1.387 . S
C644 C647 1.387 . S
H645 C641 0.950 . S
H646 C643 0.950 1_455 S
C647 C638 1.390 . S
C647 H640 0.950 . S
C647 C644 1.387 . S
C648 C649 1.387 . S
C648 H652 0.950 . S
C648 C657 1.390 . S
C649 C648 1.387 . S
C649 C651 1.387 . S
H650 C657 0.950 . S
C651 C649 1.387 . S
C651 C653 1.390 . S
C651 H655 0.950 . S
H652 C648 0.950 . S
C653 C651 1.390 . S
C653 C654 1.387 . S
C653 H656 0.950 . S
C654 C653 1.387 . S
C654 C657 1.387 . S
H655 C651 0.950 . S
H656 C653 0.950 . S
C657 C648 1.390 . S
C657 H650 0.950 . S
C657 C654 1.387 . S
C658 C659 1.387 . S
C658 H662 0.950 . S
C658 C667 1.390 . S
C659 C658 1.387 . S
C659 C661 1.387 . S
H660 C667 0.950 . S
C661 C659 1.387 . S
C661 C663 1.390 . S
C661 H665 0.950 . S
H662 C658 0.950 . S
C663 C661 1.390 . S
C663 C664 1.387 . S
C663 H666 0.950 . S
C664 C663 1.387 . S
C664 C667 1.387 . S
H665 C661 0.950 . S
H666 C663 0.950 . S
C667 C658 1.390 . S
C667 H660 0.950 . S
C667 C664 1.387 . S
C668 C669 1.387 . S
C668 H672 0.950 . S
C668 C677 1.390 . S
C669 C668 1.387 . S
C669 C671 1.387 . S
H670 C677 0.950 . S
C671 C669 1.387 . S
C671 C673 1.390 . S
C671 H675 0.950 . S
H672 C668 0.950 . S
C673 C671 1.390 . S
C673 C674 1.387 . S
C673 H676 0.950 1_545 S
C674 C673 1.387 . S
C674 C677 1.387 . S
H675 C671 0.950 . S
H676 C673 0.950 1_565 S
C677 C668 1.390 . S
C677 H670 0.950 . S
C677 C674 1.387 . S
C678 C679 1.387 . S
C678 H682 0.950 . S
C678 C687 1.390 . S
C679 C678 1.387 . S
C679 C681 1.387 . S
H680 C687 0.950 1_545 S
C681 C679 1.387 . S
C681 C683 1.390 . S
C681 H685 0.950 . S
H682 C678 0.950 . S
C683 C681 1.390 . S
C683 C684 1.387 . S
C683 H686 0.950 . S
C684 C683 1.387 . S
C684 C687 1.387 . S
H685 C681 0.950 . S
H686 C683 0.950 . S
C687 C678 1.390 . S
C687 H680 0.950 1_565 S
C687 C684 1.387 . S
C688 C689 1.387 . S
C688 H692 0.950 . S
C688 C697 1.390 . S
C689 C688 1.387 . S
C689 C691 1.387 . S
H690 C697 0.950 . S
C691 C689 1.387 . S
C691 C693 1.390 . S
C691 H695 0.950 . S
H692 C688 0.950 . S
C693 C691 1.390 . S
C693 C694 1.387 . S
C693 H696 0.950 . S
C694 C693 1.387 . S
C694 C697 1.387 . S
H695 C691 0.950 . S
H696 C693 0.950 . S
C697 C688 1.390 . S
C697 H690 0.950 . S
C697 C694 1.387 . S
C698 C699 1.387 . S
C698 H702 0.950 . S
C698 C707 1.390 . S
C699 C698 1.387 . S
C699 C701 1.387 . S
H700 C707 0.950 . S
C701 C699 1.387 . S
C701 C703 1.390 1_556 S
C701 H705 0.950 . S
H702 C698 0.950 . S
C703 C701 1.390 1_554 S
C703 C704 1.387 1_554 S
C703 H706 0.950 . S
C704 C703 1.387 1_556 S
C704 C707 1.387 . S
H705 C701 0.950 . S
H706 C703 0.950 . S
C707 C698 1.390 . S
C707 H700 0.950 . S
C707 C704 1.387 . S
C708 C709 1.387 . S
C708 H712 0.950 . S
C708 C717 1.390 . S
C709 C708 1.387 . S
C709 C711 1.387 . S
H710 C717 0.950 . S
C711 C709 1.387 . S
C711 C713 1.390 . S
C711 H715 0.950 . S
H712 C708 0.950 . S
C713 C711 1.390 . S
C713 C714 1.387 . S
C713 H716 0.950 . S
C714 C713 1.387 . S
C714 C717 1.387 . S
H715 C711 0.950 . S
H716 C713 0.950 . S
C717 C708 1.390 . S
C717 H710 0.950 . S
C717 C714 1.387 . S
C718 C719 1.387 . S
C718 H722 0.950 1_554 S
C718 C727 1.390 . S
C719 C718 1.387 . S
C719 C721 1.387 . S
H720 C727 0.950 . S
C721 C719 1.387 . S
C721 C723 1.390 . S
C721 H725 0.950 . S
H722 C718 0.950 1_556 S
C723 C721 1.390 . S
C723 C724 1.387 . S
C723 H726 0.950 . S
C724 C723 1.387 . S
C724 C727 1.387 . S
H725 C721 0.950 . S
H726 C723 0.950 . S
C727 C718 1.390 . S
C727 H720 0.950 . S
C727 C724 1.387 . S
C728 C729 1.387 . S
C728 H732 0.950 . S
C728 C737 1.390 . S
C729 C728 1.387 . S
C729 C731 1.387 . S
H730 C737 0.950 . S
C731 C729 1.387 . S
C731 C733 1.390 . S
C731 H735 0.950 . S
H732 C728 0.950 . S
C733 C731 1.390 . S
C733 C734 1.387 . S
C733 H736 0.950 . S
C734 C733 1.387 . S
C734 C737 1.387 . S
H735 C731 0.950 . S
H736 C733 0.950 . S
C737 C728 1.390 . S
C737 H730 0.950 . S
C737 C734 1.387 . S
C738 C739 1.387 . S
C738 H742 0.950 . S
C738 C747 1.390 . S
C739 C738 1.387 . S
C739 C741 1.387 . S
H740 C747 0.950 . S
C741 C739 1.387 . S
C741 C743 1.390 . S
C741 H745 0.950 . S
H742 C738 0.950 . S
C743 C741 1.390 . S
C743 C744 1.387 . S
C743 H746 0.950 . S
C744 C743 1.387 . S
C744 C747 1.387 . S
H745 C741 0.950 . S
H746 C743 0.950 . S
C747 C738 1.390 . S
C747 H740 0.950 . S
C747 C744 1.387 . S
C748 C749 1.387 . S
C748 H752 0.950 . S
C748 C757 1.390 . S
C749 C748 1.387 . S
C749 C751 1.387 . S
H750 C757 0.950 . S
C751 C749 1.387 . S
C751 C753 1.390 . S
C751 H755 0.950 . S
H752 C748 0.950 . S
C753 C751 1.390 . S
C753 C754 1.387 . S
C753 H756 0.950 . S
C754 C753 1.387 . S
C754 C757 1.387 . S
H755 C751 0.950 . S
H756 C753 0.950 . S
C757 C748 1.390 . S
C757 H750 0.950 . S
C757 C754 1.387 . S
C758 C759 1.387 . S
C758 H762 0.950 . S
C758 C767 1.390 . S
C759 C758 1.387 . S
C759 C761 1.387 . S
H760 C767 0.950 . S
C761 C759 1.387 . S
C761 C763 1.390 . S
C761 H765 0.950 . S
H762 C758 0.950 . S
C763 C761 1.390 . S
C763 C764 1.387 . S
C763 H766 0.950 1_455 S
C764 C763 1.387 . S
C764 C767 1.387 . S
H765 C761 0.950 . S
H766 C763 0.950 1_655 S
C767 C758 1.390 . S
C767 H760 0.950 . S
C767 C764 1.387 . S
C768 C769 1.387 . S
C768 H772 0.950 . S
C768 C777 1.390 . S
C769 C768 1.387 . S
C769 C771 1.387 . S
H770 C777 0.950 . S
C771 C769 1.387 . S
C771 C773 1.390 . S
C771 H775 0.950 . S
H772 C768 0.950 . S
C773 C771 1.390 . S
C773 C774 1.387 . S
C773 H776 0.950 . S
C774 C773 1.387 . S
C774 C777 1.387 . S
H775 C771 0.950 . S
H776 C773 0.950 . S
C777 C768 1.390 . S
C777 H770 0.950 . S
C777 C774 1.387 . S
C778 C779 1.387 . S
C778 H782 0.950 . S
C778 C787 1.390 . S
C779 C778 1.387 . S
C779 C781 1.387 . S
H780 C787 0.950 . S
C781 C779 1.387 . S
C781 C783 1.390 . S
C781 H785 0.950 . S
H782 C778 0.950 . S
C783 C781 1.390 . S
C783 C784 1.387 . S
C783 H786 0.950 . S
C784 C783 1.387 . S
C784 C787 1.387 . S
H785 C781 0.950 . S
H786 C783 0.950 . S
C787 C778 1.390 . S
C787 H780 0.950 . S
C787 C784 1.387 . S
C788 C789 1.387 . S
C788 H792 0.950 . S
C788 C797 1.390 . S
C789 C788 1.387 . S
C789 C791 1.387 . S
H790 C797 0.950 . S
C791 C789 1.387 . S
C791 C793 1.390 . S
C791 H795 0.950 . S
H792 C788 0.950 . S
C793 C791 1.390 . S
C793 C794 1.387 . S
C793 H796 0.950 . S
C794 C793 1.387 . S
C794 C797 1.387 . S
H795 C791 0.950 . S
H796 C793 0.950 . S
C797 C788 1.390 . S
C797 H790 0.950 . S
C797 C794 1.387 . S
C798 C799 1.387 . S
C798 H802 0.950 . S
C798 C807 1.390 . S
C799 C798 1.387 . S
C799 C801 1.387 . S
H800 C807 0.950 . S
C801 C799 1.387 . S
C801 C803 1.390 . S
C801 H805 0.950 . S
H802 C798 0.950 . S
C803 C801 1.390 . S
C803 C804 1.387 . S
C803 H806 0.950 . S
C804 C803 1.387 . S
C804 C807 1.387 . S
H805 C801 0.950 . S
H806 C803 0.950 . S
C807 C798 1.390 . S
C807 H800 0.950 . S
C807 C804 1.387 . S
C808 C809 1.387 . S
C808 H812 0.950 . S
C808 C817 1.390 . S
C809 C808 1.387 . S
C809 C811 1.387 . S
H810 C817 0.950 . S
C811 C809 1.387 . S
C811 C813 1.390 . S
C811 H815 0.950 . S
H812 C808 0.950 . S
C813 C811 1.390 . S
C813 C814 1.387 . S
C813 H816 0.950 . S
C814 C813 1.387 . S
C814 C817 1.387 . S
H815 C811 0.950 . S
H816 C813 0.950 . S
C817 C808 1.390 . S
C817 H810 0.950 . S
C817 C814 1.387 . S
C818 C819 1.387 . S
C818 H822 0.950 . S
C818 C827 1.390 . S
C819 C818 1.387 . S
C819 C821 1.387 . S
H820 C827 0.950 . S
C821 C819 1.387 . S
C821 C823 1.390 . S
C821 H825 0.950 . S
H822 C818 0.950 . S
C823 C821 1.390 . S
C823 C824 1.387 . S
C823 H826 0.950 . S
C824 C823 1.387 . S
C824 C827 1.387 . S
H825 C821 0.950 . S
H826 C823 0.950 . S
C827 C818 1.390 . S
C827 H820 0.950 . S
C827 C824 1.387 . S
C828 C829 1.387 . S
C828 H832 0.950 . S
C828 C837 1.390 . S
C829 C828 1.387 . S
C829 C831 1.387 . S
H830 C837 0.950 . S
C831 C829 1.387 . S
C831 C833 1.390 . S
C831 H835 0.950 . S
H832 C828 0.950 . S
C833 C831 1.390 . S
C833 C834 1.387 . S
C833 H836 0.950 . S
C834 C833 1.387 . S
C834 C837 1.387 . S
H835 C831 0.950 . S
H836 C833 0.950 . S
C837 C828 1.390 . S
C837 H830 0.950 . S
C837 C834 1.387 . S
C838 C839 1.387 . S
C838 H842 0.950 . S
C838 C847 1.390 . S
C839 C838 1.387 . S
C839 C841 1.387 . S
H840 C847 0.950 . S
C841 C839 1.387 . S
C841 C843 1.390 . S
C841 H845 0.950 . S
H842 C838 0.950 . S
C843 C841 1.390 . S
C843 C844 1.387 . S
C843 H846 0.950 . S
C844 C843 1.387 . S
C844 C847 1.387 . S
H845 C841 0.950 . S
H846 C843 0.950 . S
C847 C838 1.390 . S
C847 H840 0.950 . S
C847 C844 1.387 . S
C848 C849 1.387 . S
C848 H852 0.950 . S
C848 C857 1.390 . S
C849 C848 1.387 . S
C849 C851 1.387 . S
H850 C857 0.950 . S
C851 C849 1.387 . S
C851 C853 1.390 . S
C851 H855 0.950 . S
H852 C848 0.950 . S
C853 C851 1.390 . S
C853 C854 1.387 . S
C853 H856 0.950 . S
C854 C853 1.387 . S
C854 C857 1.387 . S
H855 C851 0.950 . S
H856 C853 0.950 . S
C857 C848 1.390 . S
C857 H850 0.950 . S
C857 C854 1.387 . S
C858 C859 1.387 . S
C858 H862 0.950 . S
C858 C867 1.390 . S
C859 C858 1.387 . S
C859 C861 1.387 . S
H860 C867 0.950 . S
C861 C859 1.387 . S
C861 C863 1.390 . S
C861 H865 0.950 . S
H862 C858 0.950 . S
C863 C861 1.390 . S
C863 C864 1.387 . S
C863 H866 0.950 . S
C864 C863 1.387 . S
C864 C867 1.387 . S
H865 C861 0.950 . S
H866 C863 0.950 . S
C867 C858 1.390 . S
C867 H860 0.950 . S
C867 C864 1.387 . S
C868 C869 1.387 . S
C868 H872 0.950 . S
C868 C877 1.390 . S
C869 C868 1.387 . S
C869 C871 1.387 . S
H870 C877 0.950 . S
C871 C869 1.387 . S
C871 C873 1.390 . S
C871 H875 0.950 . S
H872 C868 0.950 . S
C873 C871 1.390 . S
C873 C874 1.387 . S
C873 H876 0.950 . S
C874 C873 1.387 . S
C874 C877 1.387 . S
H875 C871 0.950 . S
H876 C873 0.950 . S
C877 C868 1.390 . S
C877 H870 0.950 . S
C877 C874 1.387 . S
C878 C879 1.387 . S
C878 H882 0.950 . S
C878 C887 1.390 . S
C879 C878 1.387 . S
C879 C881 1.387 . S
H880 C887 0.950 . S
C881 C879 1.387 . S
C881 C883 1.390 . S
C881 H885 0.950 . S
H882 C878 0.950 . S
C883 C881 1.390 . S
C883 C884 1.387 . S
C883 H886 0.950 . S
C884 C883 1.387 . S
C884 C887 1.387 . S
H885 C881 0.950 . S
H886 C883 0.950 . S
C887 C878 1.390 . S
C887 H880 0.950 . S
C887 C884 1.387 . S
C888 C889 1.387 . S
C888 H892 0.950 . S
C888 C897 1.390 . S
C889 C888 1.387 . S
C889 C891 1.387 . S
H890 C897 0.950 . S
C891 C889 1.387 . S
C891 C893 1.390 . S
C891 H895 0.950 . S
H892 C888 0.950 . S
C893 C891 1.390 . S
C893 C894 1.387 . S
C893 H896 0.950 . S
C894 C893 1.387 . S
C894 C897 1.387 . S
H895 C891 0.950 . S
H896 C893 0.950 . S
C897 C888 1.390 . S
C897 H890 0.950 . S
C897 C894 1.387 . S
C898 C899 1.387 . S
C898 H902 0.950 . S
C898 C907 1.390 . S
C899 C898 1.387 . S
C899 C901 1.387 . S
H900 C907 0.950 . S
C901 C899 1.387 . S
C901 C903 1.390 . S
C901 H905 0.950 . S
H902 C898 0.950 . S
C903 C901 1.390 . S
C903 C904 1.387 . S
C903 H906 0.950 . S
C904 C903 1.387 . S
C904 C907 1.387 . S
H905 C901 0.950 . S
H906 C903 0.950 . S
C907 C898 1.390 . S
C907 H900 0.950 . S
C907 C904 1.387 . S
C908 C909 1.387 . S
C908 H912 0.950 . S
C908 C917 1.390 . S
C909 C908 1.387 . S
C909 C911 1.387 . S
H910 C917 0.950 . S
C911 C909 1.387 . S
C911 C913 1.390 . S
C911 H915 0.950 . S
H912 C908 0.950 . S
C913 C911 1.390 . S
C913 C914 1.387 . S
C913 H916 0.950 . S
C914 C913 1.387 . S
C914 C917 1.387 . S
H915 C911 0.950 . S
H916 C913 0.950 . S
C917 C908 1.390 . S
C917 H910 0.950 . S
C917 C914 1.387 . S
C918 C919 1.387 . S
C918 H922 0.950 . S
C918 C927 1.390 . S
C919 C918 1.387 . S
C919 C921 1.387 . S
H920 C927 0.950 . S
C921 C919 1.387 . S
C921 C923 1.390 . S
C921 H925 0.950 . S
H922 C918 0.950 . S
C923 C921 1.390 . S
C923 C924 1.387 . S
C923 H926 0.950 . S
C924 C923 1.387 . S
C924 C927 1.387 . S
H925 C921 0.950 . S
H926 C923 0.950 . S
C927 C918 1.390 . S
C927 H920 0.950 . S
C927 C924 1.387 . S
C928 C929 1.387 . S
C928 H932 0.950 . S
C928 C937 1.390 . S
C929 C928 1.387 . S
C929 C931 1.387 . S
H930 C937 0.950 . S
C931 C929 1.387 . S
C931 C933 1.390 . S
C931 H935 0.950 . S
H932 C928 0.950 . S
C933 C931 1.390 . S
C933 C934 1.387 . S
C933 H936 0.950 . S
C934 C933 1.387 . S
C934 C937 1.387 . S
H935 C931 0.950 . S
H936 C933 0.950 . S
C937 C928 1.390 . S
C937 H930 0.950 . S
C937 C934 1.387 . S
C938 C939 1.387 . S
C938 H942 0.950 . S
C938 C947 1.390 . S
C939 C938 1.387 . S
C939 C941 1.387 . S
H940 C947 0.950 . S
C941 C939 1.387 . S
C941 C943 1.390 . S
C941 H945 0.950 . S
H942 C938 0.950 . S
C943 C941 1.390 . S
C943 C944 1.387 . S
C943 H946 0.950 . S
C944 C943 1.387 . S
C944 C947 1.387 . S
H945 C941 0.950 . S
H946 C943 0.950 . S
C947 C938 1.390 . S
C947 H940 0.950 . S
C947 C944 1.387 . S
C948 C949 1.387 . S
C948 H952 0.950 . S
C948 C957 1.390 . S
C949 C948 1.387 . S
C949 C951 1.387 . S
H950 C957 0.950 . S
C951 C949 1.387 . S
C951 C953 1.390 . S
C951 H955 0.950 . S
H952 C948 0.950 . S
C953 C951 1.390 . S
C953 C954 1.387 . S
C953 H956 0.950 . S
C954 C953 1.387 . S
C954 C957 1.387 . S
H955 C951 0.950 . S
H956 C953 0.950 . S
C957 C948 1.390 . S
C957 H950 0.950 . S
C957 C954 1.387 . S
C958 C959 1.387 . S
C958 H962 0.950 . S
C958 C967 1.390 . S
C959 C958 1.387 . S
C959 C961 1.387 . S
H960 C967 0.950 . S
C961 C959 1.387 . S
C961 C963 1.390 . S
C961 H965 0.950 . S
H962 C958 0.950 . S
C963 C961 1.390 . S
C963 C964 1.387 . S
C963 H966 0.950 . S
C964 C963 1.387 . S
C964 C967 1.387 . S
H965 C961 0.950 . S
H966 C963 0.950 . S
C967 C958 1.390 . S
C967 H960 0.950 . S
C967 C964 1.387 . S
C968 C969 1.387 . S
C968 H972 0.950 . S
C968 C977 1.390 . S
C969 C968 1.387 . S
C969 C971 1.387 . S
H970 C977 0.950 . S
C971 C969 1.387 . S
C971 C973 1.390 . S
C971 H975 0.950 . S
H972 C968 0.950 . S
C973 C971 1.390 . S
C973 C974 1.387 . S
C973 H976 0.950 . S
C974 C973 1.387 . S
C974 C977 1.387 . S
H975 C971 0.950 . S
H976 C973 0.950 . S
C977 C968 1.390 . S
C977 H970 0.950 . S
C977 C974 1.387 . S
C978 C979 1.387 . S
C978 H982 0.950 . S
C978 C987 1.390 . S
C979 C978 1.387 . S
C979 C981 1.387 . S
H980 C987 0.950 . S
C981 C979 1.387 . S
C981 C983 1.390 . S
C981 H985 0.950 . S
H982 C978 0.950 . S
C983 C981 1.390 . S
C983 C984 1.387 . S
C983 H986 0.950 . S
C984 C983 1.387 . S
C984 C987 1.387 . S
H985 C981 0.950 . S
H986 C983 0.950 . S
C987 C978 1.390 . S
C987 H980 0.950 . S
C987 C984 1.387 . S
C988 C989 1.387 . S
C988 H992 0.950 . S
C988 C997 1.390 . S
C989 C988 1.387 . S
C989 C991 1.387 . S
H990 C997 0.950 . S
C991 C989 1.387 . S
C991 C993 1.390 . S
C991 H995 0.950 . S
H992 C988 0.950 . S
C993 C991 1.390 . S
C993 C994 1.387 . S
C993 H996 0.950 . S
C994 C993 1.387 . S
C994 C997 1.387 . S
H995 C991 0.950 . S
H996 C993 0.950 . S
C997 C988 1.390 . S
C997 H990 0.950 . S
C997 C994 1.387 . S
C998 C999 1.387 . S
C998 H1002 0.950 . S
C998 C1007 1.390 . S
C999 C998 1.387 . S
C999 C1001 1.387 . S
H1000 C1007 0.950 . S
C1001 C999 1.387 . S
C1001 C1003 1.390 . S
C1001 H1005 0.950 . S
H1002 C998 0.950 . S
C1003 C1001 1.390 . S
C1003 C1004 1.387 . S
C1003 H1006 0.950 . S
C1004 C1003 1.387 . S
C1004 C1007 1.387 . S
H1005 C1001 0.950 . S
H1006 C1003 0.950 . S
C1007 C998 1.390 . S
C1007 H1000 0.950 . S
C1007 C1004 1.387 . S
C1008 C1009 1.387 . S
C1008 H1012 0.950 . S
C1008 C1017 1.390 . S
C1009 C1008 1.387 . S
C1009 C1011 1.387 . S
H1010 C1017 0.950 . S
C1011 C1009 1.387 . S
C1011 C1013 1.390 . S
C1011 H1015 0.950 . S
H1012 C1008 0.950 . S
C1013 C1011 1.390 . S
C1013 C1014 1.387 . S
C1013 H1016 0.950 . S
C1014 C1013 1.387 . S
C1014 C1017 1.387 . S
H1015 C1011 0.950 . S
H1016 C1013 0.950 . S
C1017 C1008 1.390 . S
C1017 H1010 0.950 . S
C1017 C1014 1.387 . S
C1018 C1019 1.387 . S
C1018 H1022 0.950 . S
C1018 C1027 1.390 . S
C1019 C1018 1.387 . S
C1019 C1021 1.387 . S
H1020 C1027 0.950 . S
C1021 C1019 1.387 . S
C1021 C1023 1.390 . S
C1021 H1025 0.950 . S
H1022 C1018 0.950 . S
C1023 C1021 1.390 . S
C1023 C1024 1.387 . S
C1023 H1026 0.950 . S
C1024 C1023 1.387 . S
C1024 C1027 1.387 . S
H1025 C1021 0.950 . S
H1026 C1023 0.950 . S
C1027 C1018 1.390 . S
C1027 H1020 0.950 . S
C1027 C1024 1.387 . S
C1028 C1029 1.387 . S
C1028 H1032 0.950 . S
C1028 C1037 1.390 . S
C1029 C1028 1.387 . S
C1029 C1031 1.387 . S
H1030 C1037 0.950 . S
C1031 C1029 1.387 . S
C1031 C1033 1.390 . S
C1031 H1035 0.950 . S
H1032 C1028 0.950 . S
C1033 C1031 1.390 . S
C1033 C1034 1.387 . S
C1033 H1036 0.950 . S
C1034 C1033 1.387 . S
C1034 C1037 1.387 . S
H1035 C1031 0.950 . S
H1036 C1033 0.950 . S
C1037 C1028 1.390 . S
C1037 H1030 0.950 . S
C1037 C1034 1.387 . S
C1038 C1039 1.387 . S
C1038 H1042 0.950 . S
C1038 C1047 1.390 . S
C1039 C1038 1.387 . S
C1039 C1041 1.387 . S
H1040 C1047 0.950 . S
C1041 C1039 1.387 . S
C1041 C1043 1.390 . S
C1041 H1045 0.950 . S
H1042 C1038 0.950 . S
C1043 C1041 1.390 . S
C1043 C1044 1.387 . S
C1043 H1046 0.950 . S
C1044 C1043 1.387 . S
C1044 C1047 1.387 . S
H1045 C1041 0.950 . S
H1046 C1043 0.950 . S
C1047 C1038 1.390 . S
C1047 H1040 0.950 . S
C1047 C1044 1.387 . S
C1048 C1049 1.387 . S
C1048 H1052 0.950 . S
C1048 C1057 1.390 . S
C1049 C1048 1.387 . S
C1049 C1051 1.387 . S
H1050 C1057 0.950 . S
C1051 C1049 1.387 . S
C1051 C1053 1.390 . S
C1051 H1055 0.950 . S
H1052 C1048 0.950 . S
C1053 C1051 1.390 . S
C1053 C1054 1.387 . S
C1053 H1056 0.950 . S
C1054 C1053 1.387 . S
C1054 C1057 1.387 . S
H1055 C1051 0.950 . S
H1056 C1053 0.950 . S
C1057 C1048 1.390 . S
C1057 H1050 0.950 . S
C1057 C1054 1.387 . S
C1058 C1059 1.387 . S
C1058 H1062 0.950 . S
C1058 C1067 1.390 . S
C1059 C1058 1.387 . S
C1059 C1061 1.387 . S
H1060 C1067 0.950 . S
C1061 C1059 1.387 . S
C1061 C1063 1.390 . S
C1061 H1065 0.950 . S
H1062 C1058 0.950 . S
C1063 C1061 1.390 . S
C1063 C1064 1.387 . S
C1063 H1066 0.950 . S
C1064 C1063 1.387 . S
C1064 C1067 1.387 . S
H1065 C1061 0.950 . S
H1066 C1063 0.950 . S
C1067 C1058 1.390 . S
C1067 H1060 0.950 . S
C1067 C1064 1.387 . S
C1068 C1069 1.387 . S
C1068 H1072 0.950 . S
C1068 C1077 1.390 . S
C1069 C1068 1.387 . S
C1069 C1071 1.387 . S
H1070 C1077 0.950 . S
C1071 C1069 1.387 . S
C1071 C1073 1.390 . S
C1071 H1075 0.950 . S
H1072 C1068 0.950 . S
C1073 C1071 1.390 . S
C1073 C1074 1.387 . S
C1073 H1076 0.950 . S
C1074 C1073 1.387 . S
C1074 C1077 1.387 . S
H1075 C1071 0.950 . S
H1076 C1073 0.950 . S
C1077 C1068 1.390 . S
C1077 H1070 0.950 . S
C1077 C1074 1.387 . S
C1078 C1079 1.387 . S
C1078 H1082 0.950 . S
C1078 C1087 1.390 . S
C1079 C1078 1.387 . S
C1079 C1081 1.387 . S
H1080 C1087 0.950 . S
C1081 C1079 1.387 . S
C1081 C1083 1.390 . S
C1081 H1085 0.950 . S
H1082 C1078 0.950 . S
C1083 C1081 1.390 . S
C1083 C1084 1.387 . S
C1083 H1086 0.950 . S
C1084 C1083 1.387 . S
C1084 C1087 1.387 . S
H1085 C1081 0.950 . S
H1086 C1083 0.950 . S
C1087 C1078 1.390 . S
C1087 H1080 0.950 . S
C1087 C1084 1.387 . S
C1088 C1089 1.387 . S
C1088 H1092 0.950 . S
C1088 C1097 1.390 . S
C1089 C1088 1.387 . S
C1089 C1091 1.387 . S
H1090 C1097 0.950 . S
C1091 C1089 1.387 . S
C1091 C1093 1.390 . S
C1091 H1095 0.950 . S
H1092 C1088 0.950 . S
C1093 C1091 1.390 . S
C1093 C1094 1.387 . S
C1093 H1096 0.950 . S
C1094 C1093 1.387 . S
C1094 C1097 1.387 . S
H1095 C1091 0.950 . S
H1096 C1093 0.950 . S
C1097 C1088 1.390 . S
C1097 H1090 0.950 . S
C1097 C1094 1.387 . S
C1098 C1099 1.387 . S
C1098 H1102 0.950 . S
C1098 C1107 1.390 . S
C1099 C1098 1.387 . S
C1099 C1101 1.387 . S
H1100 C1107 0.950 . S
C1101 C1099 1.387 . S
C1101 C1103 1.390 . S
C1101 H1105 0.950 . S
H1102 C1098 0.950 . S
C1103 C1101 1.390 . S
C1103 C1104 1.387 . S
C1103 H1106 0.950 . S
C1104 C1103 1.387 . S
C1104 C1107 1.387 . S
H1105 C1101 0.950 . S
H1106 C1103 0.950 . S
C1107 C1098 1.390 . S
C1107 H1100 0.950 . S
C1107 C1104 1.387 . S
C1108 C1109 1.387 . S
C1108 H1112 0.950 . S
C1108 C1117 1.390 . S
C1109 C1108 1.387 . S
C1109 C1111 1.387 . S
H1110 C1117 0.950 . S
C1111 C1109 1.387 . S
C1111 C1113 1.390 . S
C1111 H1115 0.950 . S
H1112 C1108 0.950 . S
C1113 C1111 1.390 . S
C1113 C1114 1.387 . S
C1113 H1116 0.950 . S
C1114 C1113 1.387 . S
C1114 C1117 1.387 . S
H1115 C1111 0.950 . S
H1116 C1113 0.950 . S
C1117 C1108 1.390 . S
C1117 H1110 0.950 . S
C1117 C1114 1.387 . S
C1118 C1119 1.387 . S
C1118 H1122 0.950 . S
C1118 C1127 1.390 . S
C1119 C1118 1.387 . S
C1119 C1121 1.387 . S
H1120 C1127 0.950 . S
C1121 C1119 1.387 . S
C1121 C1123 1.390 . S
C1121 H1125 0.950 . S
H1122 C1118 0.950 . S
C1123 C1121 1.390 . S
C1123 C1124 1.387 . S
C1123 H1126 0.950 . S
C1124 C1123 1.387 . S
C1124 C1127 1.387 . S
H1125 C1121 0.950 . S
H1126 C1123 0.950 . S
C1127 C1118 1.390 . S
C1127 H1120 0.950 . S
C1127 C1124 1.387 . S
C1128 C1129 1.387 . S
C1128 H1132 0.950 . S
C1128 C1137 1.390 . S
C1129 C1128 1.387 . S
C1129 C1131 1.387 . S
H1130 C1137 0.950 . S
C1131 C1129 1.387 . S
C1131 C1133 1.390 . S
C1131 H1135 0.950 . S
H1132 C1128 0.950 . S
C1133 C1131 1.390 . S
C1133 C1134 1.387 . S
C1133 H1136 0.950 . S
C1134 C1133 1.387 . S
C1134 C1137 1.387 . S
H1135 C1131 0.950 . S
H1136 C1133 0.950 . S
C1137 C1128 1.390 . S
C1137 H1130 0.950 . S
C1137 C1134 1.387 . S
C1138 C1139 1.387 . S
C1138 H1142 0.950 . S
C1138 C1147 1.390 . S
C1139 C1138 1.387 . S
C1139 C1141 1.387 . S
H1140 C1147 0.950 . S
C1141 C1139 1.387 . S
C1141 C1143 1.390 . S
C1141 H1145 0.950 . S
H1142 C1138 0.950 . S
C1143 C1141 1.390 . S
C1143 C1144 1.387 . S
C1143 H1146 0.950 . S
C1144 C1143 1.387 . S
C1144 C1147 1.387 . S
H1145 C1141 0.950 . S
H1146 C1143 0.950 . S
C1147 C1138 1.390 . S
C1147 H1140 0.950 . S
C1147 C1144 1.387 . S
C1148 C1149 1.387 . S
C1148 H1152 0.950 . S
C1148 C1157 1.390 . S
C1149 C1148 1.387 . S
C1149 C1151 1.387 . S
H1150 C1157 0.950 . S
C1151 C1149 1.387 . S
C1151 C1153 1.390 . S
C1151 H1155 0.950 . S
H1152 C1148 0.950 . S
C1153 C1151 1.390 . S
C1153 C1154 1.387 . S
C1153 H1156 0.950 . S
C1154 C1153 1.387 . S
C1154 C1157 1.387 . S
H1155 C1151 0.950 . S
H1156 C1153 0.950 . S
C1157 C1148 1.390 . S
C1157 H1150 0.950 . S
C1157 C1154 1.387 . S
C1158 C1159 1.387 . S
C1158 H1162 0.950 . S
C1158 C1167 1.390 . S
C1159 C1158 1.387 . S
C1159 C1161 1.387 . S
H1160 C1167 0.950 . S
C1161 C1159 1.387 . S
C1161 C1163 1.390 . S
C1161 H1165 0.950 . S
H1162 C1158 0.950 . S
C1163 C1161 1.390 . S
C1163 C1164 1.387 . S
C1163 H1166 0.950 . S
C1164 C1163 1.387 . S
C1164 C1167 1.387 . S
H1165 C1161 0.950 . S
H1166 C1163 0.950 . S
C1167 C1158 1.390 . S
C1167 H1160 0.950 . S
C1167 C1164 1.387 . S
C1168 C1169 1.387 . S
C1168 H1172 0.950 . S
C1168 C1177 1.390 . S
C1169 C1168 1.387 . S
C1169 C1171 1.387 . S
H1170 C1177 0.950 . S
C1171 C1169 1.387 . S
C1171 C1173 1.390 . S
C1171 H1175 0.950 . S
H1172 C1168 0.950 . S
C1173 C1171 1.390 . S
C1173 C1174 1.387 . S
C1173 H1176 0.950 . S
C1174 C1173 1.387 . S
C1174 C1177 1.387 . S
H1175 C1171 0.950 . S
H1176 C1173 0.950 . S
C1177 C1168 1.390 . S
C1177 H1170 0.950 . S
C1177 C1174 1.387 . S
C1178 C1179 1.387 . S
C1178 H1182 0.950 . S
C1178 C1187 1.390 . S
C1179 C1178 1.387 . S
C1179 C1181 1.387 . S
H1180 C1187 0.950 . S
C1181 C1179 1.387 . S
C1181 C1183 1.390 . S
C1181 H1185 0.950 . S
H1182 C1178 0.950 . S
C1183 C1181 1.390 . S
C1183 C1184 1.387 . S
C1183 H1186 0.950 . S
C1184 C1183 1.387 . S
C1184 C1187 1.387 . S
H1185 C1181 0.950 . S
H1186 C1183 0.950 . S
C1187 C1178 1.390 . S
C1187 H1180 0.950 . S
C1187 C1184 1.387 . S
C1188 C1189 1.387 . S
C1188 H1192 0.950 . S
C1188 C1197 1.390 . S
C1189 C1188 1.387 . S
C1189 C1191 1.387 . S
H1190 C1197 0.950 . S
C1191 C1189 1.387 . S
C1191 C1193 1.390 . S
C1191 H1195 0.950 . S
H1192 C1188 0.950 . S
C1193 C1191 1.390 . S
C1193 C1194 1.387 . S
C1193 H1196 0.950 . S
C1194 C1193 1.387 . S
C1194 C1197 1.387 . S
H1195 C1191 0.950 . S
H1196 C1193 0.950 . S
C1197 C1188 1.390 . S
C1197 H1190 0.950 . S
C1197 C1194 1.387 . S
C1198 C1199 1.387 . S
C1198 H1202 0.950 . S
C1198 C1207 1.390 . S
C1199 C1198 1.387 . S
C1199 C1201 1.387 . S
H1200 C1207 0.950 . S
C1201 C1199 1.387 . S
C1201 C1203 1.390 . S
C1201 H1205 0.950 . S
H1202 C1198 0.950 . S
C1203 C1201 1.390 . S
C1203 C1204 1.387 . S
C1203 H1206 0.950 . S
C1204 C1203 1.387 . S
C1204 C1207 1.387 . S
H1205 C1201 0.950 . S
H1206 C1203 0.950 . S
C1207 C1198 1.390 . S
C1207 H1200 0.950 . S
C1207 C1204 1.387 . S
C1208 C1209 1.387 . S
C1208 H1212 0.950 . S
C1208 C1217 1.390 . S
C1209 C1208 1.387 . S
C1209 C1211 1.387 . S
H1210 C1217 0.950 . S
C1211 C1209 1.387 . S
C1211 C1213 1.390 . S
C1211 H1215 0.950 . S
H1212 C1208 0.950 . S
C1213 C1211 1.390 . S
C1213 C1214 1.387 . S
C1213 H1216 0.950 . S
C1214 C1213 1.387 . S
C1214 C1217 1.387 . S
H1215 C1211 0.950 . S
H1216 C1213 0.950 . S
C1217 C1208 1.390 . S
C1217 H1210 0.950 . S
C1217 C1214 1.387 . S
C1218 C1219 1.387 . S
C1218 H1222 0.950 . S
C1218 C1227 1.390 . S
C1219 C1218 1.387 . S
C1219 C1221 1.387 . S
H1220 C1227 0.950 . S
C1221 C1219 1.387 . S
C1221 C1223 1.390 . S
C1221 H1225 0.950 . S
H1222 C1218 0.950 . S
C1223 C1221 1.390 . S
C1223 C1224 1.387 . S
C1223 H1226 0.950 . S
C1224 C1223 1.387 . S
C1224 C1227 1.387 . S
H1225 C1221 0.950 . S
H1226 C1223 0.950 . S
C1227 C1218 1.390 . S
C1227 H1220 0.950 . S
C1227 C1224 1.387 . S
C1228 C1229 1.387 . S
C1228 H1232 0.950 . S
C1228 C1237 1.390 . S
C1229 C1228 1.387 . S
C1229 C1231 1.387 . S
H1230 C1237 0.950 . S
C1231 C1229 1.387 . S
C1231 C1233 1.390 . S
C1231 H1235 0.950 . S
H1232 C1228 0.950 . S
C1233 C1231 1.390 . S
C1233 C1234 1.387 . S
C1233 H1236 0.950 . S
C1234 C1233 1.387 . S
C1234 C1237 1.387 . S
H1235 C1231 0.950 . S
H1236 C1233 0.950 . S
C1237 C1228 1.390 . S
C1237 H1230 0.950 . S
C1237 C1234 1.387 . S
C1238 C1239 1.387 . S
C1238 H1242 0.950 . S
C1238 C1247 1.390 . S
C1239 C1238 1.387 . S
C1239 C1241 1.387 . S
H1240 C1247 0.950 . S
C1241 C1239 1.387 . S
C1241 C1243 1.390 . S
C1241 H1245 0.950 . S
H1242 C1238 0.950 . S
C1243 C1241 1.390 . S
C1243 C1244 1.387 . S
C1243 H1246 0.950 . S
C1244 C1243 1.387 . S
C1244 C1247 1.387 . S
H1245 C1241 0.950 . S
H1246 C1243 0.950 . S
C1247 C1238 1.390 . S
C1247 H1240 0.950 . S
C1247 C1244 1.387 . S
C529 C9 1.555 . S
C534 C404 1.458 . S
C539 C422 1.462 . S
C544 C31 1.553 . S
C549 C356 1.459 . S
C554 C53 1.555 1_565 S
C559 C71 1.553 1_545 S
C564 C378 1.460 . S
C569 C488 1.458 . S
C574 C93 1.555 . S
C579 C466 1.461 . S
C584 C119 1.554 1_554 S
C589 C514 1.459 . S
C594 C137 1.555 . S
C599 C448 1.458 . S
C604 C159 1.555 1_556 S
C609 C185 1.554 . S
C614 C294 1.459 . S
C619 C203 1.553 1_455 S
C624 C338 1.462 . S
C629 C225 1.554 . S
C634 C316 1.461 . S
C639 C268 1.461 . S
C644 C251 1.554 1_655 S
C649 C140 1.458 . S
C654 C271 1.555 . S
C659 C292 1.554 . S
C664 C162 1.458 . S
C669 C96 1.459 . S
C674 C314 1.554 1_545 S
C679 C114 1.457 . S
C684 C336 1.555 1_565 S
C689 C359 1.554 . S
C694 C228 1.461 . S
C699 C206 1.459 . S
C704 C381 1.554 1_556 S
C709 C246 1.458 . S
C714 C402 1.555 . S
C719 C425 1.554 1_554 S
C724 C180 1.461 . S
C729 C446 1.553 . S
C734 C26 1.462 . S
C739 C469 1.555 1_655 S
C744 C74 1.458 . S
C749 C491 1.555 . S
C754 C48 1.458 . S
C759 C4 1.458 . S
C764 C512 1.554 1_455 S
C769 C423 1.253 . S
C774 C5 1.208 . S
C779 C405 1.238 . S
C784 C27 1.203 . S
C789 C379 1.256 . S
C794 C49 1.205 . S
C799 C357 1.236 . S
C804 C75 1.208 . S
C809 C97 1.203 . S
C814 C515 1.256 . S
C819 C115 1.205 . S
C824 C449 1.239 . S
C829 C489 1.235 . S
C834 C141 1.207 . S
C839 C467 1.256 . S
C844 C163 1.203 . S
C849 C317 1.253 . S
C854 C181 1.205 . S
C859 C207 1.208 . S
C864 C269 1.236 . S
C869 C295 1.236 . S
C874 C229 1.205 . S
C879 C339 1.253 . S
C884 C247 1.206 . S
C889 C270 1.203 . S
C894 C161 1.255 . S
C899 C139 1.236 . S
C904 C293 1.208 . S
C909 C315 1.203 . S
C914 C116 1.255 . S
C919 C337 1.203 . S
C924 C95 1.238 . S
C929 C248 1.256 . S
C934 C358 1.204 . S
C939 C182 1.235 . S
C944 C380 1.208 . S
C949 C403 1.203 . S
C954 C227 1.238 . S
C959 C424 1.208 . S
C964 C205 1.253 . S
C969 C50 1.253 . S
C974 C447 1.208 . S
C979 C6 1.238 . S
C984 C468 1.206 . S
C989 C490 1.207 . S
C994 C28 1.235 . S
C999 C513 1.203 . S
C1004 C73 1.256 . S
C1009 C8 1.085 . S
C1014 C94 1.074 . S
C1019 C117 1.074 . S
C1024 C30 1.085 . S
C1029 C138 1.073 . S
C1034 C52 1.086 . S
C1039 C160 1.071 . S
C1044 C70 1.087 . S
C1049 C183 1.071 . S
C1054 C92 1.088 . S
C1059 C118 1.087 . S
C1064 C249 1.071 . S
C1069 C136 1.085 . S
C1074 C204 1.074 . S
C1079 C226 1.074 . S
C1084 C158 1.085 . S
C1089 C184 1.085 . S
C1094 C7 1.074 . S
C1099 C202 1.085 . S
C1104 C51 1.074 . S
C1109 C72 1.074 . S
C1114 C224 1.085 . S
C1119 C29 1.071 . S
C1124 C250 1.088 . S
C1129 C272 1.085 . S
C1134 C361 1.074 . S
C1139 C383 1.074 . S
C1144 C290 1.085 . S
C1149 C401 1.072 . S
C1154 C312 1.087 . S
C1159 C427 1.074 . S
C1164 C334 1.085 . S
C1169 C360 1.087 . S
C1174 C445 1.071 . S
C1179 C511 1.074 . S
C1184 C382 1.085 . S
C1189 C400 1.085 . S
C1194 C471 1.074 . S
C1199 C426 1.085 . S
C1204 C493 1.074 . S
C1209 C273 1.070 . S
C1214 C444 1.088 . S
C1219 C313 1.074 . S
C1224 C470 1.085 . S
C1229 C335 1.070 . S
C1234 C492 1.088 . S
C1239 C291 1.074 . S
C1244 C510 1.085 . S
