# Generated by pormake.
# Topology rob, (6)-cn, num edge types: 1
# Building blocks:
#     Node 0, Type 0, BuildingBlock: BETDAH_clean_sbu_0, # of connection points: 6
#     Node 1, Type 0, BuildingBlock: BETDAH_clean_sbu_0, # of connection points: 6
#     Node 2, Type 0, BuildingBlock: BETDAH_clean_sbu_0, # of connection points: 6
#     Node 3, Type 0, BuildingBlock: BETDAH_clean_sbu_0, # of connection points: 6
#     Edge 4, Type (0, 0), BuildingBlock: MIFKUJ_clean_linker_0, # of connection points: 2
#     Edge 5, Type (0, 0), BuildingBlock: MIFKUJ_clean_linker_0, # of connection points: 2
#     Edge 6, Type (0, 0), BuildingBlock: MIFKUJ_clean_linker_0, # of connection points: 2
#     Edge 7, Type (0, 0), BuildingBlock: MIFKUJ_clean_linker_0, # of connection points: 2
#     Edge 8, Type (0, 0), BuildingBlock: MIFKUJ_clean_linker_0, # of connection points: 2
#     Edge 9, Type (0, 0), BuildingBlock: MIFKUJ_clean_linker_0, # of connection points: 2
#     Edge 10, Type (0, 0), BuildingBlock: MIFKUJ_clean_linker_0, # of connection points: 2
#     Edge 11, Type (0, 0), BuildingBlock: MIFKUJ_clean_linker_0, # of connection points: 2
#     Edge 12, Type (0, 0), BuildingBlock: MIFKUJ_clean_linker_0, # of connection points: 2
#     Edge 13, Type (0, 0), BuildingBlock: MIFKUJ_clean_linker_0, # of connection points: 2
#     Edge 14, Type (0, 0), BuildingBlock: MIFKUJ_clean_linker_0, # of connection points: 2
#     Edge 15, Type (0, 0), BuildingBlock: MIFKUJ_clean_linker_0, # of connection points: 2
# Relax obj value: 0.100
# Max RMSD: 0.170
# Mean RMSD: 0.170
data_MOF--net-rob--node1-BETDAH_clean_sbu_0--edge1-MIFKUJ_clean_linker_0
_symmetry_space_group_name_H-M    P1
_symmetry_Int_Tables_number       1
_symmetry_cell_setting            triclinic
loop_
_symmetry_equiv_pos_as_xyz
'x, y, z'
_cell_length_a     19.147891
_cell_length_b     32.511195
_cell_length_c     45.802959
_cell_angle_alpha  90.018088
_cell_angle_beta   121.2652
_cell_angle_gamma 89.929874
loop_
_atom_site_label
_atom_site_type_symbol
_atom_site_fract_x
_atom_site_fract_y
_atom_site_fract_z
_atom_type_partial_charge
Ho0 Ho 0.17597 0.284 0.99689 0.0
Ho1 Ho 0.33484 0.25706 0.00139 0.0
C2 C 0.3398 0.26379 0.0706 0.0
C3 C 0.0579 0.2917 0.00844 0.0
C4 C 0.05258 0.28965 0.03967 0.0
C5 C 0.05427 0.25179 0.0549 0.0
C6 C 0.05097 0.25046 0.08473 0.0
C7 C 0.04603 0.28693 0.10019 0.0
C8 C 0.04391 0.32474 0.08477 0.0
C9 C 0.04672 0.32604 0.05485 0.0
C10 C 0.26696 0.34551 0.99413 0.0
C11 C 0.16731 0.27334 0.92737 0.0
C12 C 0.45723 0.25154 0.99213 0.0
C13 C 0.46834 0.25361 0.96254 0.0
C14 C 0.41521 0.27662 0.9333 0.0
C15 C 0.42408 0.2764 0.90479 0.0
C16 C 0.4871 0.25361 0.90507 0.0
C17 C 0.54126 0.23138 0.93482 0.0
C18 C 0.5317 0.23127 0.96313 0.0
C19 C 0.24381 0.19537 0.00398 0.0
O20 O 0.25938 0.26606 0.05167 0.0
O21 O 0.3866 0.2648 0.05728 0.0
O22 O 0.09796 0.32296 0.00631 0.0
O23 O 0.0736 0.25741 -0.00209 0.0
O24 O 0.18765 0.34518 0.97692 0.0
O25 O 0.29406 0.31428 0.01331 0.0
O26 O 0.24812 0.2719 0.94583 0.0
O27 O 0.12192 0.27354 0.94133 0.0
O28 O 0.41702 0.21969 0.99318 0.0
O29 O 0.43593 0.28565 0.00063 0.0
O30 O 0.32319 0.19534 0.02081 0.0
O31 O 0.21708 0.22677 0.98504 0.0
H32 H 0.05826 0.22307 0.04386 0.0
H33 H 0.05136 0.2207 0.09543 0.0
H34 H 0.04135 0.35352 0.09607 0.0
H35 H 0.04507 0.35571 0.04374 0.0
H36 H 0.36634 0.2945 0.93236 0.0
H37 H 0.38063 0.29358 0.88234 0.0
H38 H 0.59144 0.21411 0.93635 0.0
H39 H 0.57369 0.2135 0.98549 0.0
Ho40 Ho 0.67891 0.7805 0.99243 0.0
Ho41 Ho 0.8397 0.75297 -0.00143 0.0
C42 C 0.84396 0.76554 0.06713 0.0
C43 C 0.55837 0.78732 0.00256 0.0
C44 C 0.55124 0.7844 0.03312 0.0
C45 C 0.6014 0.75773 0.0602 0.0
C46 C 0.59553 0.75624 0.0894 0.0
C47 C 0.53911 0.78123 0.09221 0.0
C48 C 0.48945 0.8081 0.06501 0.0
C49 C 0.49546 0.8096 0.03584 0.0
C50 C 0.76947 0.84148 0.98873 0.0
C51 C 0.67335 0.76723 0.9235 0.0
C52 C 0.96219 0.74736 0.98953 0.0
C53 C 0.97038 0.74598 0.95915 0.0
C54 C 0.03423 0.7672 0.95926 0.0
C55 C 0.04058 0.76763 0.93012 0.0
C56 C 0.98258 0.74716 0.90004 0.0
C57 C 0.91872 0.72584 0.90019 0.0
C58 C 0.9132 0.72496 0.92948 0.0
C59 C 0.74902 0.69187 0.00226 0.0
O60 O 0.76342 0.76694 0.04818 0.0
O61 O 0.89088 0.76443 0.0539 0.0
O62 O 0.59948 0.81883 0.0016 0.0
O63 O 0.57591 0.75327 0.99245 0.0
O64 O 0.69007 0.84102 0.9714 0.0
O65 O 0.79657 0.81082 0.00855 0.0
O66 O 0.75393 0.76423 0.94235 0.0
O67 O 0.62691 0.76998 0.93691 0.0
O68 O 0.92791 0.71556 0.99458 0.0
O69 O 0.93639 0.78224 0.99478 0.0
O70 O 0.82842 0.69203 0.01923 0.0
O71 O 0.72225 0.72265 0.98259 0.0
H72 H 0.6451 0.73792 0.05881 0.0
H73 H 0.63437 0.73488 0.1095 0.0
H74 H 0.44659 0.82856 0.06638 0.0
H75 H 0.45683 0.83073 0.01544 0.0
H76 H 0.07915 0.78359 0.9819 0.0
H77 H 0.09142 0.7838 0.93133 0.0
H78 H 0.87196 0.7103 0.8775 0.0
H79 H 0.86363 0.70816 0.92882 0.0
Ho80 Ho 0.32115 0.76438 0.49153 0.0
Ho81 Ho 0.16898 0.74184 0.49408 0.0
C82 C 0.1497 0.7409 0.42229 0.0
C83 C 0.43747 0.768 0.47825 0.0
C84 C 0.44505 0.76492 0.44784 0.0
C85 C 0.38081 0.74996 0.4166 0.0
C86 C 0.38828 0.74869 0.38776 0.0
C87 C 0.46021 0.76237 0.38958 0.0
C88 C 0.52455 0.77707 0.42107 0.0
C89 C 0.51695 0.77832 0.44986 0.0
C90 C 0.23381 0.82908 0.49289 0.0
C91 C 0.33943 0.76625 0.56334 0.0
C92 C 0.05122 0.73692 0.50642 0.0
C93 C 0.04095 0.7414 0.53603 0.0
C94 C 0.10102 0.76034 0.56625 0.0
C95 C 0.09133 0.76333 0.59444 0.0
C96 C 0.02123 0.74734 0.59296 0.0
C97 C 0.96103 0.72851 0.5625 0.0
C98 C 0.97085 0.72563 0.53433 0.0
C99 C 0.25813 0.6776 0.49303 0.0
O100 O 0.23036 0.74097 0.4389 0.0
O101 O 0.10858 0.7474 0.43768 0.0
O102 O 0.39842 0.80021 0.47959 0.0
O103 O 0.41752 0.7344 0.48788 0.0
O104 O 0.31283 0.82852 0.50791 0.0
O105 O 0.20441 0.79616 0.47624 0.0
O106 O 0.25869 0.76599 0.54649 0.0
O107 O 0.38105 0.7595 0.54812 0.0
O108 O 0.09451 0.70541 0.5072 0.0
O109 O 0.06851 0.77033 0.49555 0.0
O110 O 0.17898 0.67787 0.47736 0.0
O111 O 0.28603 0.71053 0.5097 0.0
H112 H 0.32483 0.73936 0.41441 0.0
H113 H 0.33789 0.73672 0.36409 0.0
H114 H 0.58037 0.78836 0.42336 0.0
H115 H 0.56712 0.79015 0.47368 0.0
H116 H 0.15549 0.77265 0.56807 0.0
H117 H 0.13939 0.7776 0.61757 0.0
H118 H 0.90594 0.71628 0.56033 0.0
H119 H 0.92372 0.71089 0.51121 0.0
Ho120 Ho 0.83628 0.2688 0.49935 0.0
Ho121 Ho 0.68458 0.24321 0.50002 0.0
C122 C 0.66921 0.24269 0.42884 0.0
C123 C 0.95612 0.27596 0.48854 0.0
C124 C 0.96835 0.27576 0.45921 0.0
C125 C 0.92414 0.24928 0.43124 0.0
C126 C 0.93738 0.24971 0.40388 0.0
C127 C 0.99483 0.27672 0.40392 0.0
C128 C 0.03838 0.30339 0.43184 0.0
C129 C 0.02541 0.3028 0.45922 0.0
C130 C 0.74198 0.33172 0.49841 0.0
C131 C 0.85017 0.26933 0.5701 0.0
C132 C 0.56918 0.23569 0.51329 0.0
C133 C 0.56373 0.23926 0.54423 0.0
C134 C 0.60302 0.27102 0.56807 0.0
C135 C 0.59832 0.27302 0.59757 0.0
C136 C 0.55486 0.2431 0.60412 0.0
C137 C 0.51703 0.21094 0.5803 0.0
C138 C 0.52103 0.20925 0.5507 0.0
C139 C 0.77697 0.18031 0.49976 0.0
O140 O 0.74987 0.24541 0.44615 0.0
O141 O 0.62591 0.2473 0.44354 0.0
O142 O 0.91597 0.30725 0.4905 0.0
O143 O 0.93525 0.24121 0.49628 0.0
O144 O 0.82117 0.33242 0.51493 0.0
O145 O 0.71642 0.29845 0.48196 0.0
O146 O 0.76959 0.26892 0.5524 0.0
O147 O 0.89366 0.26282 0.55575 0.0
O148 O 0.61231 0.20476 0.51296 0.0
O149 O 0.58214 0.26948 0.5013 0.0
O150 O 0.69782 0.18004 0.48356 0.0
O151 O 0.8038 0.21318 0.51684 0.0
H152 H 0.87957 0.22824 0.43056 0.0
H153 H 0.90194 0.22926 0.38248 0.0
H154 H 0.08321 0.32443 0.43267 0.0
H155 H 0.06013 0.32351 0.48051 0.0
H156 H 0.63731 0.29437 0.56394 0.0
H157 H 0.62824 0.29834 0.61501 0.0
H158 H 0.48533 0.18643 0.58467 0.0
H159 H 0.49141 0.18407 0.53296 0.0
H160 H 0.5829 0.68238 0.96256 0.0
H161 H 0.50113 0.62375 0.96151 0.0
H162 H 0.71985 0.56323 0.03924 0.0
H163 H 0.80168 0.62201 0.04073 0.0
H164 H 0.61868 0.51078 0.98533 0.0
H165 H 0.59369 0.6024 0.06268 0.0
H166 H 0.56453 0.66846 0.08061 0.0
H167 H 0.32174 0.66828 0.99254 0.0
H168 H 0.34907 0.60177 0.97426 0.0
H169 H 0.43338 0.35496 0.03306 0.0
H170 H 0.51442 0.4135 0.03328 0.0
H171 H 0.29423 0.47402 0.9566 0.0
H172 H 0.21323 0.41536 0.95588 0.0
H173 H 0.39519 0.52648 0.00924 0.0
H174 H 0.41534 0.43465 0.93253 0.0
H175 H 0.44056 0.36827 0.91365 0.0
H176 H 0.68889 0.36921 -0.00218 0.0
H177 H 0.66498 0.43573 0.01727 0.0
C178 C 0.61342 0.65679 0.97968 0.0
C179 C 0.69867 0.65695 0.00188 0.0
C180 C 0.56666 0.62324 0.97902 0.0
C181 C 0.60425 0.58905 0.0004 0.0
C182 C 0.68946 0.58914 0.02246 0.0
C183 C 0.73611 0.62282 0.02335 0.0
C184 C 0.55478 0.55316 -0.00043 0.0
C185 C 0.57059 0.51412 0.99102 0.0
C186 C 0.4905 0.55754 0.00607 0.0
C187 C 0.47363 0.59736 0.01696 0.0
C188 C 0.53421 0.61656 0.04705 0.0
C189 C 0.51799 0.65405 0.0573 0.0
C190 C 0.44162 0.67278 0.03761 0.0
C191 C 0.38096 0.6538 0.00774 0.0
C192 C 0.39661 0.6161 -0.0025 0.0
C193 C 0.40241 0.38053 0.01599 0.0
C194 C 0.317 0.3804 0.99427 0.0
C195 C 0.44873 0.41403 0.01618 0.0
C196 C 0.41047 0.44817 0.99484 0.0
C197 C 0.32512 0.44813 0.97333 0.0
C198 C 0.27894 0.41451 0.97289 0.0
C199 C 0.45935 0.48405 0.99519 0.0
C200 C 0.44334 0.52309 0.00358 0.0
C201 C 0.523 0.47968 0.98829 0.0
C202 C 0.53817 0.43997 0.97654 0.0
C203 C 0.47521 0.42059 0.94714 0.0
C204 C 0.48929 0.38295 0.93631 0.0
C205 C 0.56619 0.36439 0.95462 0.0
C206 C 0.62931 0.3836 0.98369 0.0
C207 C 0.6156 0.42133 0.99458 0.0
H208 H 0.57698 0.33522 0.94624 0.0
H209 H 0.42938 0.70191 0.04556 0.0
H210 H 0.42511 0.66935 0.52861 0.0
H211 H 0.50521 0.61107 0.52744 0.0
H212 H 0.2827 0.54849 0.45541 0.0
H213 H 0.20264 0.60665 0.45643 0.0
H214 H 0.38659 0.49676 0.50524 0.0
H215 H 0.40229 0.59249 0.42945 0.0
H216 H 0.42927 0.65936 0.4119 0.0
H217 H 0.6809 0.65239 0.49254 0.0
H218 H 0.65523 0.58559 0.51084 0.0
H219 H 0.57447 0.33799 0.46134 0.0
H220 H 0.49073 0.39666 0.45887 0.0
H221 H 0.70896 0.46344 0.52928 0.0
H222 H 0.79258 0.40502 0.53174 0.0
H223 H 0.60454 0.5131 0.47817 0.0
H224 H 0.58713 0.42397 0.55809 0.0
H225 H 0.56332 0.35869 0.57865 0.0
H226 H 0.31909 0.35373 0.49153 0.0
H227 H 0.34124 0.41972 0.47077 0.0
C228 C 0.39338 0.6433 0.51233 0.0
C229 C 0.30757 0.64272 0.49245 0.0
C230 C 0.4392 0.60998 0.51164 0.0
C231 C 0.40016 0.57537 0.49109 0.0
C232 C 0.31439 0.57472 0.47146 0.0
C233 C 0.26866 0.60806 0.47203 0.0
C234 C 0.44844 0.53958 0.49041 0.0
C235 C 0.43329 0.50033 0.49876 0.0
C236 C 0.51084 0.5441 0.48273 0.0
C237 C 0.52667 0.58417 0.4717 0.0
C238 C 0.46326 0.60534 0.44362 0.0
C239 C 0.47832 0.64324 0.43351 0.0
C240 C 0.5567 0.66017 0.45115 0.0
C241 C 0.6202 0.63923 0.47892 0.0
C242 C 0.60546 0.60132 0.48914 0.0
C243 C 0.60448 0.36511 0.47641 0.0
C244 C 0.69016 0.36677 0.49684 0.0
C245 C 0.55657 0.39867 0.47503 0.0
C246 C 0.5933 0.4346 0.49408 0.0
C247 C 0.67895 0.43627 0.51427 0.0
C248 C 0.72674 0.40274 0.51574 0.0
C249 C 0.54281 0.47037 0.49313 0.0
C250 C 0.55749 0.50957 0.48445 0.0
C251 C 0.48011 0.46595 0.50059 0.0
C252 C 0.46609 0.42644 0.51276 0.0
C253 C 0.52849 0.40883 0.54325 0.0
C254 C 0.51522 0.37173 0.55496 0.0
C255 C 0.43997 0.35174 0.53626 0.0
C256 C 0.37745 0.36916 0.50595 0.0
C257 C 0.39015 0.40654 0.49429 0.0
H258 H 0.43002 0.32288 0.54533 0.0
H259 H 0.56835 0.68942 0.44323 0.0
H260 H 0.29543 0.12692 0.04399 0.0
H261 H 0.21453 0.06734 0.04139 0.0
H262 H 0.99767 0.12434 0.95917 0.0
H263 H 0.07854 0.18444 0.96208 0.0
H264 H 0.96466 0.08884 0.00318 0.0
H265 H 0.09913 0.04683 0.94435 0.0
H266 H 0.21591 0.03498 0.93671 0.0
H267 H 0.322 0.95169 0.02185 0.0
H268 H 0.20639 0.9635 0.03032 0.0
H269 H 0.71708 0.9096 0.94825 0.0
H270 H 0.79713 0.9696 0.95086 0.0
H271 H 0.01417 0.91392 0.03401 0.0
H272 H 0.93417 0.85353 0.03124 0.0
H273 H 0.04658 0.9488 0.98923 0.0
H274 H 0.91115 0.99104 0.04783 0.0
H275 H 0.79367 1.0029 0.05499 0.0
H276 H 0.6884 0.08578 0.96957 0.0
H277 H 0.80473 0.07394 0.96158 0.0
C278 C 0.23046 0.1268 0.02539 0.0
C279 C 0.19342 0.16024 0.00308 0.0
C280 C 0.18427 0.0926 0.02381 0.0
C281 C 0.10006 0.09086 -0.00035 0.0
C282 C 0.06254 0.12478 0.97793 0.0
C283 C 0.10878 0.15911 0.97958 0.0
C284 C 0.05147 0.05362 0.99703 0.0
C285 C 0.98197 0.0583 -0.00036 0.0
C286 C 0.07482 0.01351 0.99318 0.0
C287 C 0.14449 1.00639 0.98818 0.0
C288 C 0.1477 0.02626 0.96163 0.0
C289 C 0.21363 0.0195 0.95712 0.0
C290 C 0.27645 0.99269 0.97884 0.0
C291 C 0.27337 0.9725 0.00508 0.0
C292 C 0.20763 0.9792 0.00973 0.0
C293 C 0.78191 0.9101 0.96705 0.0
C294 C 0.81928 0.87691 0.98963 0.0
C295 C 0.82759 0.94454 0.96863 0.0
C296 C 0.91162 0.94672 0.993 0.0
C297 C 0.94944 0.91311 0.01506 0.0
C298 C 0.9037 0.8786 0.01347 0.0
C299 C 0.95986 0.98402 0.99543 0.0
C300 C 0.02927 0.97934 0.99277 0.0
C301 C 0.93632 0.02413 -0.00084 0.0
C302 C 0.86626 0.03126 0.0039 0.0
C303 C 0.86261 0.01152 0.03039 0.0
C304 C 0.79628 0.01829 0.03463 0.0
C305 C 0.7335 0.04499 0.01269 0.0
C306 C 0.73701 0.06505 0.98651 0.0
C307 C 0.80315 0.05834 0.98213 0.0
H308 H 0.68222 0.0502 0.01603 0.0
H309 H 0.32741 0.98748 0.9753 0.0
H310 H 0.94469 0.17243 0.53439 0.0
H311 H 0.0239 0.11328 0.53358 0.0
H312 H 0.80002 0.04948 0.46485 0.0
H313 H 0.72117 0.10828 0.46538 0.0
H314 H 0.90685 0.99887 0.5154 0.0
H315 H 0.91203 0.09123 0.43477 0.0
H316 H 0.9361 0.15708 0.41484 0.0
H317 H 0.1901 0.15182 0.49319 0.0
H318 H 0.16735 0.08586 0.51367 0.0
H319 H 0.0669 0.83868 0.45947 0.0
H320 H 0.99078 0.89841 0.46147 0.0
H321 H 0.21777 0.96015 0.52963 0.0
H322 H 0.29374 0.90064 0.52785 0.0
H323 H 0.11122 0.01207 0.48033 0.0
H324 H 0.10604 0.91889 0.56039 0.0
H325 H 0.08125 0.85306 0.58012 0.0
H326 H 0.82668 0.85988 0.5027 0.0
H327 H 0.8501 0.92579 0.48239 0.0
C328 C 0.91256 0.14587 0.51898 0.0
C329 C 0.8267 0.14513 0.49984 0.0
C330 C 0.9578 0.11206 0.51851 0.0
C331 C 0.91801 0.07684 0.499 0.0
C332 C 0.83228 0.0761 0.48016 0.0
C333 C 0.78724 0.10987 0.48044 0.0
C334 C 0.96509 0.04065 0.49807 0.0
C335 C 0.95086 1.00173 0.50736 0.0
C336 C 0.02375 0.04428 0.48822 0.0
C337 C 0.03782 0.08383 0.47596 0.0
C338 C 0.9729 0.10427 0.4479 0.0
C339 C 0.98634 0.14159 0.43647 0.0
C340 C 0.06454 0.15877 0.45284 0.0
C341 C 0.12953 0.13852 0.48057 0.0
C342 C 0.11644 0.10111 0.49206 0.0
C343 C 0.10044 0.86488 0.47504 0.0
C344 C 0.18631 0.86481 0.49367 0.0
C345 C 0.05693 0.89905 0.47618 0.0
C346 C 0.09844 0.93384 0.49591 0.0
C347 C 0.18421 0.93384 0.51419 0.0
C348 C 0.22759 0.89969 0.51321 0.0
C349 C 0.05284 0.97026 0.49758 0.0
C350 C 0.06734 1.00922 0.48844 0.0
C351 C 0.99437 0.96667 0.50755 0.0
C352 C 0.97997 0.92708 0.51967 0.0
C353 C 0.04488 0.9062 0.54741 0.0
C354 C 0.03105 0.86889 0.55873 0.0
C355 C 0.95247 0.85219 0.54258 0.0
C356 C 0.88753 0.87284 0.51515 0.0
C357 C 0.90101 0.91022 0.50377 0.0
H358 H 0.94176 0.82337 0.5514 0.0
H359 H 0.07487 0.18768 0.44397 0.0
H360 H 0.73525 0.20663 0.39537 0.0
H361 H 0.67571 0.20151 0.33389 0.0
H362 H 0.45146 0.25499 0.31723 0.0
H363 H 0.51086 0.25998 0.37922 0.0
H364 H 0.42895 0.19144 0.27062 0.0
H365 H 0.59439 0.31416 0.3197 0.0
H366 H 0.72157 0.35128 0.35899 0.0
H367 H 0.84497 0.28874 0.31586 0.0
H368 H 0.71993 0.25021 0.27743 0.0
H369 H 0.26424 0.27458 0.10644 0.0
H370 H 0.31949 0.2624 0.16683 0.0
H371 H 0.55093 0.22733 0.17922 0.0
H372 H 0.49625 0.24038 0.11839 0.0
H373 H 0.57341 0.2764 0.22826 0.0
H374 H 0.41678 0.15693 0.17773 0.0
H375 H 0.2976 0.11444 0.13902 0.0
H376 H 0.16607 0.16243 0.18409 0.0
H377 H 0.28318 0.20657 0.22217 0.0
C378 C 0.67304 0.21707 0.37868 0.0
C379 C 0.62825 0.2347 0.39196 0.0
C380 C 0.63906 0.21388 0.34359 0.0
C381 C 0.56008 0.22872 0.3212 0.0
C382 C 0.51287 0.24367 0.33427 0.0
C383 C 0.54681 0.2466 0.36957 0.0
C384 C 0.53005 0.23202 0.28444 0.0
C385 C 0.45962 0.21034 0.26114 0.0
C386 C 0.57255 0.2555 0.27255 0.0
C387 C 0.6479 0.2789 0.29592 0.0
C388 C 0.64899 0.30794 0.31894 0.0
C389 C 0.72087 0.32922 0.34113 0.0
C390 C 0.79165 0.32223 0.34016 0.0
C391 C 0.79063 0.29398 0.31695 0.0
C392 C 0.71929 0.27232 0.29499 0.0
C393 C 0.32701 0.26426 0.1219 0.0
C394 C 0.37598 0.25826 0.10762 0.0
C395 C 0.35821 0.257 0.15642 0.0
C396 C 0.43864 0.24309 0.17731 0.0
C397 C 0.48836 0.23775 0.16336 0.0
C398 C 0.45726 0.24534 0.12871 0.0
C399 C 0.47153 0.23607 0.21407 0.0
C400 C 0.54255 0.25721 0.23749 0.0
C401 C 0.43031 0.21146 0.226 0.0
C402 C 0.35878 0.1855 0.20263 0.0
C403 C 0.36207 0.15897 0.17908 0.0
C404 C 0.29479 0.13457 0.15722 0.0
C405 C 0.22417 0.1359 0.15899 0.0
C406 C 0.22073 0.16159 0.18266 0.0
C407 C 0.28747 0.18643 0.20431 0.0
H408 H 0.17222 0.1169 0.14211 0.0
H409 H 0.84713 0.33883 0.35728 0.0
H410 H 0.6607 0.76801 0.15929 0.0
H411 H 0.64716 0.76329 0.20936 0.0
H412 H 0.38868 0.78661 0.14625 0.0
H413 H 0.40052 0.78957 0.09574 0.0
H414 H 0.46863 0.83416 0.20747 0.0
H415 H 0.44549 0.6931 0.17104 0.0
H416 H 0.4916 0.63157 0.15419 0.0
H417 H 0.71319 0.62926 0.25244 0.0
H418 H 0.66888 0.69122 0.2697 0.0
H419 H 0.34405 0.78315 0.32372 0.0
H420 H 0.35815 0.78482 0.27366 0.0
H421 H 0.60801 0.74389 0.33546 0.0
H422 H 0.59353 0.74088 0.38546 0.0
H423 H 0.5352 0.70554 0.27522 0.0
H424 H 0.56358 0.84458 0.31275 0.0
H425 H 0.52627 0.9084 0.33052 0.0
H426 H 0.30564 0.91715 0.2323 0.0
H427 H 0.3411 0.85299 0.21409 0.0
C428 C 0.60061 0.77158 0.1558 0.0
C429 C 0.53169 0.77913 0.12316 0.0
C430 C 0.59317 0.76916 0.18461 0.0
C431 C 0.51687 0.77455 0.18155 0.0
C432 C 0.44824 0.78261 0.14923 0.0
C433 C 0.45535 0.78452 0.12035 0.0
C434 C 0.50838 0.77132 0.21197 0.0
C435 C 0.48207 0.8059 0.22203 0.0
C436 C 0.52828 0.73481 0.23155 0.0
C437 C 0.55419 0.69701 0.22155 0.0
C438 C 0.50428 0.67962 0.18898 0.0
C439 C 0.53006 0.64466 0.17936 0.0
C440 C 0.60538 0.62658 0.2022 0.0
C441 C 0.65491 0.64334 0.23476 0.0
C442 C 0.62945 0.67835 0.24449 0.0
C443 C 0.40172 0.77398 0.32663 0.0
C444 C 0.4678 0.76209 0.35874 0.0
C445 C 0.40996 0.77533 0.298 0.0
C446 C 0.48457 0.76505 0.3008 0.0
C447 C 0.54997 0.75216 0.33262 0.0
C448 C 0.5418 0.75082 0.36128 0.0
C449 C 0.49469 0.76838 0.2707 0.0
C450 C 0.52152 0.73384 0.2607 0.0
C451 C 0.47621 0.80513 0.25139 0.0
C452 C 0.45458 0.84373 0.26219 0.0
C453 C 0.50676 0.85991 0.29504 0.0
C454 C 0.48601 0.89619 0.30517 0.0
C455 C 0.41351 0.91675 0.28259 0.0
C456 C 0.36171 0.90114 0.24978 0.0
C457 C 0.38213 0.86483 0.23953 0.0
H458 H 0.39757 0.94485 0.29048 0.0
H459 H 0.62529 0.59954 0.19469 0.0
H460 H 0.74075 0.73935 0.88791 0.0
H461 H 0.68506 0.74277 0.82684 0.0
H462 H 0.46597 0.7996 0.81299 0.0
H463 H 0.52138 0.7953 0.87473 0.0
H464 H 0.43233 0.74181 0.76605 0.0
H465 H 0.61874 0.85509 0.81291 0.0
H466 H 0.75103 0.88877 0.85099 0.0
H467 H 0.86179 0.81773 0.80661 0.0
H468 H 0.73141 0.7824 0.76932 0.0
H469 H 0.28187 0.80785 0.59772 0.0
H470 H 0.34085 0.81043 0.65929 0.0
H471 H 0.55306 0.74455 0.67449 0.0
H472 H 0.49324 0.74117 0.61238 0.0
H473 H 0.58985 0.80835 0.72065 0.0
H474 H 0.40358 0.69609 0.6731 0.0
H475 H 0.27388 0.65953 0.63694 0.0
H476 H 0.16469 0.72532 0.68453 0.0
H477 H 0.29142 0.7645 0.71913 0.0
C478 C 0.68085 0.75263 0.87201 0.0
C479 C 0.63591 0.7675 0.88617 0.0
C480 C 0.64919 0.75471 0.83705 0.0
C481 C 0.5724 0.77241 0.81555 0.0
C482 C 0.52588 0.78621 0.82933 0.0
C483 C 0.5574 0.78368 0.86449 0.0
C484 C 0.54066 0.77579 0.7786 0.0
C485 C 0.46575 0.7571 0.75597 0.0
C486 C 0.58636 0.79451 0.76587 0.0
C487 C 0.66522 0.81576 0.7885 0.0
C488 C 0.67157 0.84623 0.81158 0.0
C489 C 0.7464 0.86556 0.83312 0.0
C490 C 0.81509 0.85513 0.83147 0.0
C491 C 0.80899 0.82544 0.80821 0.0
C492 C 0.73461 0.80571 0.78689 0.0
C493 C 0.34102 0.7938 0.61413 0.0
C494 C 0.38209 0.77326 0.60036 0.0
C495 C 0.37471 0.79552 0.64926 0.0
C496 C 0.45016 0.77682 0.67121 0.0
C497 C 0.49421 0.75879 0.65775 0.0
C498 C 0.46023 0.75695 0.6224 0.0
C499 C 0.48104 0.77472 0.70809 0.0
C500 C 0.55594 0.79347 0.73069 0.0
C501 C 0.43526 0.75601 0.72079 0.0
C502 C 0.35711 0.73388 0.69841 0.0
C503 C 0.35132 0.70368 0.67522 0.0
C504 C 0.27805 0.68249 0.65489 0.0
C505 C 0.21064 0.69042 0.6581 0.0
C506 C 0.21628 0.71969 0.68155 0.0
C507 C 0.2887 0.74162 0.70137 0.0
H508 H 0.15419 0.67373 0.64258 0.0
H509 H 0.87291 0.87021 0.84808 0.0
H510 H 0.66773 0.27399 0.66801 0.0
H511 H 0.65765 0.2768 0.71875 0.0
H512 H 0.42299 0.21676 0.66386 0.0
H513 H 0.42902 0.21716 0.61225 0.0
H514 H 0.41209 0.27047 0.69957 0.0
H515 H 0.61134 0.16791 0.72334 0.0
H516 H 0.73713 0.13879 0.7294 0.0
H517 H 0.88197 0.22295 0.81106 0.0
H518 H 0.75695 0.2537 0.80472 0.0
H519 H 0.53091 0.18821 0.87987 0.0
H520 H 0.54474 0.18636 0.82982 0.0
H521 H 0.47573 0.31423 0.81016 0.0
H522 H 0.46314 0.31661 0.86059 0.0
H523 H 0.63943 0.22374 0.81233 0.0
H524 H 0.36256 0.33026 0.72348 0.0
H525 H 0.22144 0.34432 0.70904 0.0
H526 H 0.21446 0.22822 0.75204 0.0
H527 H 0.35507 0.21317 0.76634 0.0
C528 C 0.61325 0.26188 0.66636 0.0
C529 C 0.5496 0.24492 0.63565 0.0
C530 C 0.60817 0.26298 0.69577 0.0
C531 C 0.54026 0.24626 0.69557 0.0
C532 C 0.47637 0.22974 0.66494 0.0
C533 C 0.48059 0.22941 0.63538 0.0
C534 C 0.53467 0.24634 0.72693 0.0
C535 C 0.46214 0.26041 0.72422 0.0
C536 C 0.59892 0.23211 0.75908 0.0
C537 C 0.67453 0.21345 0.76328 0.0
C538 C 0.66994 0.18053 0.74238 0.0
C539 C 0.74113 0.16378 0.74581 0.0
C540 C 0.81745 0.17915 0.7705 0.0
C541 C 0.82276 0.2113 0.79181 0.0
C542 C 0.75172 0.22846 0.78826 0.0
C543 C 0.51962 0.21616 0.86522 0.0
C544 C 0.49585 0.25258 0.87445 0.0
C545 C 0.52734 0.21498 0.83646 0.0
C546 C 0.51083 0.25004 0.81598 0.0
C547 C 0.48769 0.28656 0.82521 0.0
C548 C 0.48021 0.28782 0.85406 0.0
C549 C 0.51712 0.24833 0.78485 0.0
C550 C 0.58982 0.23408 0.78768 0.0
C551 C 0.45177 0.26064 0.7524 0.0
C552 C 0.3697 0.27083 0.7463 0.0
C553 C 0.33108 0.30784 0.73002 0.0
C554 C 0.25112 0.3159 0.72175 0.0
C555 C 0.20908 0.28705 0.72946 0.0
C556 C 0.24724 0.25045 0.74605 0.0
C557 C 0.32718 0.24222 0.75437 0.0
H558 H 0.14692 0.29307 0.72257 0.0
H559 H 0.87249 0.16603 0.7732 0.0
H560 H 0.98492 0.72746 0.11474 0.0
H561 H 0.03518 0.72009 0.17601 0.0
H562 H 0.83521 0.79461 0.16378 0.0
H563 H 0.78348 0.80115 0.10273 0.0
H564 H 0.02414 0.80904 0.22498 0.0
H565 H 0.7862 0.71705 0.16857 0.0
H566 H 0.70683 0.66246 0.12705 0.0
H567 H 0.91325 0.58114 0.17659 0.0
H568 H 0.99433 0.63557 0.21816 0.0
H569 H 0.00811 0.77731 0.37416 0.0
H570 H 0.95136 0.77687 0.31222 0.0
H571 H 0.1373 0.69079 0.32555 0.0
H572 H 0.1954 0.69182 0.3874 0.0
H573 H 0.95726 0.68025 0.26377 0.0
H574 H 0.19454 0.77028 0.3206 0.0
H575 H 0.27734 0.82455 0.3618 0.0
H576 H 0.07623 0.90897 0.31134 0.0
H577 H 0.99193 0.85493 0.27007 0.0
C578 C 0.95259 0.74268 0.12533 0.0
C579 C 0.88047 0.76474 0.10424 0.0
C580 C 0.981 0.73833 0.16008 0.0
C581 C 0.93834 0.75674 0.17395 0.0
C582 C 0.86851 0.78027 0.15325 0.0
C583 C 0.83916 0.78385 0.11852 0.0
C584 C 0.96445 0.75012 0.20986 0.0
C585 C 0.00915 0.78108 0.23348 0.0
C586 C 0.94541 0.71338 0.22065 0.0
C587 C 0.89654 0.68046 0.19615 0.0
C588 C 0.81486 0.68765 0.1704 0.0
C589 C 0.76951 0.65673 0.1469 0.0
C590 C 0.80501 0.61841 0.14907 0.0
C591 C 0.88588 0.61087 0.17488 0.0
C592 C 0.93155 0.64172 0.19843 0.0
C593 C 0.03538 0.75754 0.36371 0.0
C594 C 0.10627 0.73491 0.38527 0.0
C595 C 1.00315 0.75734 0.32851 0.0
C596 C 0.04063 0.73386 0.3147 0.0
C597 C 0.1077 0.70889 0.33596 0.0
C598 C 0.14093 0.70974 0.37114 0.0
C599 C 0.01636 0.73936 0.27885 0.0
C600 C 0.97225 0.70821 0.25527 0.0
C601 C 0.0362 0.77589 0.26806 0.0
C602 C 0.08674 0.8085 0.29257 0.0
C603 C 0.16779 0.80031 0.31852 0.0
C604 C 0.21503 0.83102 0.34182 0.0
C605 C 0.18196 0.87013 0.33927 0.0
C606 C 0.10169 0.87863 0.31332 0.0
C607 C 0.05419 0.848 0.28995 0.0
H608 H 0.2186 0.89388 0.35733 0.0
H609 H 0.76979 0.59454 0.13082 0.0
H610 H 0.01543 0.21143 0.37124 0.0
H611 H 0.03219 0.21328 0.32157 0.0
H612 H 0.01804 0.3456 0.32014 0.0
H613 H 1.00349 0.34413 0.37026 0.0
H614 H 0.90064 0.28255 0.2538 0.0
H615 H 0.17233 0.33405 0.33936 0.0
H616 H 0.30582 0.32987 0.39308 0.0
H617 H 0.35566 0.21509 0.36101 0.0
H618 H 0.22136 0.21808 0.30745 0.0
H619 H 0.95925 0.33693 0.11878 0.0
H620 H 0.95654 0.33512 0.17136 0.0
H621 H 0.11954 0.23069 0.20617 0.0
H622 H 0.12715 0.23438 0.15463 0.0
H623 H 0.16363 0.27748 0.25715 0.0
H624 H 0.90438 0.22399 0.17258 0.0
H625 H 0.77085 0.22176 0.11873 0.0
H626 H 0.69536 0.33084 0.14787 0.0
H627 H 0.82896 0.33412 0.20169 0.0
C628 C 0.01653 0.24092 0.36048 0.0
C629 C 0.00825 0.27764 0.37469 0.0
C630 C 0.02647 0.24192 0.33226 0.0
C631 C 0.02719 0.27959 0.31748 0.0
C632 C 0.01876 0.31626 0.33151 0.0
C633 C 0.01069 0.31536 0.36017 0.0
C634 C 0.03144 0.28055 0.28607 0.0
C635 C 0.95804 0.28198 0.2544 0.0
C636 C 0.10633 0.27822 0.28704 0.0
C637 C 0.18594 0.27586 0.31971 0.0
C638 C 0.2109 0.30748 0.34406 0.0
C639 C 0.28694 0.30544 0.37442 0.0
C640 C 0.33899 0.27211 0.38056 0.0
C641 C 0.3151 0.24077 0.35633 0.0
C642 C 0.23897 0.2426 0.32599 0.0
C643 C 0.99543 0.31385 0.13775 0.0
C644 C 0.04311 0.28555 0.1322 0.0
C645 C 0.99281 0.31245 0.16771 0.0
C646 C 0.03635 0.28218 0.19264 0.0
C647 C 0.08474 0.25419 0.18735 0.0
C648 C 0.08828 0.25596 0.1576 0.0
C649 C 0.03246 0.28013 0.22437 0.0
C650 C 0.10588 0.27815 0.25623 0.0
C651 C 0.95733 0.2812 0.22354 0.0
C652 C 0.8771 0.27954 0.19104 0.0
C653 C 0.85961 0.24773 0.16738 0.0
C654 C 0.78384 0.24623 0.13688 0.0
C655 C 0.72474 0.2762 0.12984 0.0
C656 C 0.74125 0.30769 0.15333 0.0
C657 C 0.81699 0.30937 0.18384 0.0
H658 H 0.66607 0.27496 0.10624 0.0
H659 H 0.39799 0.27067 0.404 0.0
H660 H 0.9828 0.23017 0.62176 0.0
H661 H 0.03295 0.23607 0.68314 0.0
H662 H 0.85773 0.33245 0.6618 0.0
H663 H 0.80524 0.32548 0.60058 0.0
H664 H 0.04317 0.33994 0.72357 0.0
H665 H 0.79274 0.25807 0.6675 0.0
H666 H 0.70662 0.20022 0.63271 0.0
H667 H 0.88587 0.11434 0.70253 0.0
H668 H 0.97463 0.17162 0.73712 0.0
H669 H 0.00694 0.29003 0.87953 0.0
H670 H 0.94608 0.29507 0.81743 0.0
H671 H 0.17863 0.26466 0.82919 0.0
H672 H 0.23945 0.25913 0.8906 0.0
H673 H 0.95125 0.23015 0.77139 0.0
H674 H 0.20488 0.32836 0.78229 0.0
H675 H 0.3065 0.37795 0.82268 0.0
H676 H 0.13286 0.42296 0.84768 0.0
H677 H 0.0301 0.37364 0.80721 0.0
C678 C 0.95636 0.25309 0.63038 0.0
C679 C 0.89032 0.2773 0.6068 0.0
C680 C 0.98463 0.25632 0.66521 0.0
C681 C 0.94836 0.28451 0.67662 0.0
C682 C 0.88613 0.31058 0.65326 0.0
C683 C 0.85631 0.30651 0.61847 0.0
C684 C 0.97114 0.28482 0.71258 0.0
C685 C 0.02272 0.31608 0.73398 0.0
C686 C 0.94405 0.25364 0.72594 0.0
C687 C 0.89097 0.21927 0.70465 0.0
C688 C 0.81451 0.22692 0.67516 0.0
C689 C 0.76499 0.19422 0.65554 0.0
C690 C 0.79065 0.15369 0.6654 0.0
C691 C 0.86608 0.14575 0.69487 0.0
C692 C 0.91613 0.17833 0.71443 0.0
C693 C 0.04486 0.28423 0.86882 0.0
C694 C 0.12826 0.27479 0.88998 0.0
C695 C 0.01008 0.2871 0.83349 0.0
C696 C 0.05843 0.28062 0.81914 0.0
C697 C 0.14093 0.27027 0.84006 0.0
C698 C 0.17554 0.26733 0.87516 0.0
C699 C 0.02376 0.28475 0.78222 0.0
C700 C 0.97028 0.25431 0.7607 0.0
C701 C 0.05041 0.31601 0.76889 0.0
C702 C 0.10965 0.34766 0.79144 0.0
C703 C 0.18795 0.34932 0.79592 0.0
C704 C 0.24594 0.37718 0.81902 0.0
C705 C 0.22608 0.4037 0.83766 0.0
C706 C 0.14812 0.40246 0.83317 0.0
C707 C 0.09002 0.37455 0.81017 0.0
H708 H 0.27117 0.42511 0.85566 0.0
H709 H 0.75203 0.12845 0.65022 0.0
H710 H 0.96484 0.6876 0.61773 0.0
H711 H 0.95461 0.69021 0.6687 0.0
H712 H 0.04725 0.81434 0.68823 0.0
H713 H 0.05711 0.81204 0.63704 0.0
H714 H 0.12364 0.76913 0.74519 0.0
H715 H 0.84509 0.79377 0.65805 0.0
H716 H 0.71286 0.78096 0.60524 0.0
H717 H 0.69087 0.66584 0.64565 0.0
H718 H 0.82364 0.67762 0.69852 0.0
H719 H 0.03394 0.81064 0.87579 0.0
H720 H 0.04145 0.812 0.82418 0.0
H721 H 0.94967 0.68786 0.80076 0.0
H722 H 0.94408 0.6857 0.85273 0.0
H723 H 0.87128 0.73566 0.74541 0.0
H724 H 0.15118 0.70996 0.83172 0.0
H725 H 0.28333 0.72257 0.88462 0.0
H726 H 0.30268 0.83938 0.84568 0.0
H727 H 0.16992 0.82778 0.79274 0.0
C728 C 0.9817 0.71574 0.63251 0.0
C729 C 0.01162 0.74966 0.6232 0.0
C730 C 0.97597 0.71716 0.66174 0.0
C731 C 0.99941 0.75261 0.68222 0.0
C732 C 0.02881 0.78663 0.67288 0.0
C733 C 0.03459 0.78524 0.64364 0.0
C734 C 0.99613 0.7536 0.71404 0.0
C735 C 0.06808 0.76247 0.74515 0.0
C736 C 0.92419 0.74388 0.71418 0.0
C737 C 0.84484 0.73641 0.68215 0.0
C738 C 0.81252 0.76551 0.65555 0.0
C739 C 0.73735 0.75848 0.62562 0.0
C740 C 0.69357 0.72257 0.62206 0.0
C741 C 0.72489 0.69362 0.64843 0.0
C742 C 0.80009 0.70047 0.67838 0.0
C743 C 0.01676 0.78327 0.86009 0.0
C744 C 0.98838 0.74803 0.86868 0.0
C745 C 0.02083 0.78419 0.83043 0.0
C746 C 0.99655 0.74995 0.80859 0.0
C747 C 0.96829 0.71477 0.81705 0.0
C748 C 0.9647 0.71371 0.84679 0.0
C749 C 0.99888 0.75094 0.77656 0.0
C750 C 0.92675 0.74245 0.74542 0.0
C751 C 0.07066 0.76096 0.77639 0.0
C752 C 0.15006 0.76821 0.80841 0.0
C753 C 0.18315 0.73854 0.83457 0.0
C754 C 0.25827 0.74547 0.86455 0.0
C755 C 0.30127 0.7818 0.86855 0.0
C756 C 0.26924 0.81128 0.84257 0.0
C757 C 0.19405 0.80455 0.81258 0.0
H758 H 0.35949 0.78707 0.89175 0.0
H759 H 0.63529 0.71723 0.59891 0.0
loop_
_geom_bond_atom_site_label_1
_geom_bond_atom_site_label_2
_geom_bond_distance
_geom_bond_site_symmetry_2
_ccdc_geom_bond_type
Ho0 C3 2.811 . S
Ho0 O20 2.322 . S
Ho0 O22 2.378 . S
Ho0 O23 2.524 . S
Ho0 O24 2.381 . S
Ho0 O25 2.669 1_554 S
Ho0 O27 2.346 1_554 S
Ho0 O31 2.305 . S
Ho1 C12 2.811 . S
Ho1 O21 2.346 1_556 S
Ho1 O25 2.305 . S
Ho1 O26 2.322 . S
Ho1 O28 2.378 . S
Ho1 O29 2.524 . S
Ho1 O30 2.381 . S
Ho1 O31 2.669 1_556 S
C2 O20 1.259 . S
C2 O21 1.268 . S
C3 Ho0 2.811 . S
C3 C4 1.488 . S
C3 O22 1.215 . S
C3 O23 1.289 . S
C4 C3 1.488 . S
C4 C5 1.348 . S
C4 C9 1.413 . S
C5 C4 1.348 . S
C5 C6 1.442 . S
C5 H32 0.930 . S
C6 C5 1.442 . S
C6 C7 1.381 . S
C6 H33 0.931 . S
C7 C6 1.381 . S
C7 C8 1.321 . S
C8 C7 1.321 . S
C8 C9 1.403 . S
C8 H34 0.934 . S
C9 C4 1.413 . S
C9 C8 1.403 . S
C9 H35 0.930 . S
C10 O24 1.275 . S
C10 O25 1.256 1_554 S
C11 O26 1.259 . S
C11 O27 1.268 . S
C12 Ho1 2.811 . S
C12 C13 1.488 . S
C12 O28 1.215 . S
C12 O29 1.289 . S
C13 C12 1.488 . S
C13 C14 1.348 . S
C13 C18 1.413 . S
C14 C13 1.348 . S
C14 C15 1.442 . S
C14 H36 0.930 . S
C15 C14 1.442 . S
C15 C16 1.381 . S
C15 H37 0.931 . S
C16 C15 1.381 . S
C16 C17 1.321 . S
C17 C16 1.321 . S
C17 C18 1.403 . S
C17 H38 0.934 . S
C18 C13 1.413 . S
C18 C17 1.403 . S
C18 H39 0.930 . S
C19 O30 1.275 . S
C19 O31 1.256 1_556 S
O20 Ho0 2.322 . S
O20 C2 1.259 . S
O21 Ho1 2.346 1_554 S
O21 C2 1.268 . S
O22 Ho0 2.378 . S
O22 C3 1.215 . S
O23 Ho0 2.524 . S
O23 C3 1.289 . S
O24 Ho0 2.381 . S
O24 C10 1.275 . S
O25 Ho0 2.669 1_556 S
O25 Ho1 2.305 . S
O25 C10 1.256 1_556 S
O26 Ho1 2.322 . S
O26 C11 1.259 . S
O27 Ho0 2.346 1_556 S
O27 C11 1.268 . S
O28 Ho1 2.378 . S
O28 C12 1.215 . S
O29 Ho1 2.524 . S
O29 C12 1.289 . S
O30 Ho1 2.381 . S
O30 C19 1.275 . S
O31 Ho0 2.305 . S
O31 Ho1 2.669 1_554 S
O31 C19 1.256 1_554 S
H32 C5 0.930 . S
H33 C6 0.931 . S
H34 C8 0.934 . S
H35 C9 0.930 . S
H36 C14 0.930 . S
H37 C15 0.931 . S
H38 C17 0.934 . S
H39 C18 0.930 . S
Ho40 C43 2.811 . S
Ho40 O60 2.322 . S
Ho40 O62 2.378 . S
Ho40 O63 2.524 . S
Ho40 O64 2.381 . S
Ho40 O65 2.669 1_554 S
Ho40 O67 2.346 1_554 S
Ho40 O71 2.305 . S
Ho41 C52 2.811 . S
Ho41 O61 2.346 1_556 S
Ho41 O65 2.305 . S
Ho41 O66 2.322 . S
Ho41 O68 2.378 . S
Ho41 O69 2.524 . S
Ho41 O70 2.381 . S
Ho41 O71 2.669 1_556 S
C42 O60 1.259 . S
C42 O61 1.268 . S
C43 Ho40 2.811 . S
C43 C44 1.488 . S
C43 O62 1.215 . S
C43 O63 1.289 . S
C44 C43 1.488 . S
C44 C45 1.348 . S
C44 C49 1.413 . S
C45 C44 1.348 . S
C45 C46 1.442 . S
C45 H72 0.930 . S
C46 C45 1.442 . S
C46 C47 1.381 . S
C46 H73 0.931 . S
C47 C46 1.381 . S
C47 C48 1.321 . S
C48 C47 1.321 . S
C48 C49 1.403 . S
C48 H74 0.934 . S
C49 C44 1.413 . S
C49 C48 1.403 . S
C49 H75 0.930 . S
C50 O64 1.275 . S
C50 O65 1.256 1_554 S
C51 O66 1.259 . S
C51 O67 1.268 . S
C52 Ho41 2.811 . S
C52 C53 1.488 . S
C52 O68 1.215 . S
C52 O69 1.289 . S
C53 C52 1.488 . S
C53 C54 1.348 . S
C53 C58 1.413 . S
C54 C53 1.348 . S
C54 C55 1.442 . S
C54 H76 0.930 . S
C55 C54 1.442 . S
C55 C56 1.381 . S
C55 H77 0.931 . S
C56 C55 1.381 . S
C56 C57 1.321 . S
C57 C56 1.321 . S
C57 C58 1.403 . S
C57 H78 0.934 . S
C58 C53 1.413 . S
C58 C57 1.403 . S
C58 H79 0.930 . S
C59 O70 1.275 . S
C59 O71 1.256 1_556 S
O60 Ho40 2.322 . S
O60 C42 1.259 . S
O61 Ho41 2.346 1_554 S
O61 C42 1.268 . S
O62 Ho40 2.378 . S
O62 C43 1.215 . S
O63 Ho40 2.524 . S
O63 C43 1.289 . S
O64 Ho40 2.381 . S
O64 C50 1.275 . S
O65 Ho40 2.669 1_556 S
O65 Ho41 2.305 . S
O65 C50 1.256 1_556 S
O66 Ho41 2.322 . S
O66 C51 1.259 . S
O67 Ho40 2.346 1_556 S
O67 C51 1.268 . S
O68 Ho41 2.378 . S
O68 C52 1.215 . S
O69 Ho41 2.524 . S
O69 C52 1.289 . S
O70 Ho41 2.381 . S
O70 C59 1.275 . S
O71 Ho40 2.305 . S
O71 Ho41 2.669 1_554 S
O71 C59 1.256 1_554 S
H72 C45 0.930 . S
H73 C46 0.931 . S
H74 C48 0.934 . S
H75 C49 0.930 . S
H76 C54 0.930 . S
H77 C55 0.931 . S
H78 C57 0.934 . S
H79 C58 0.930 . S
Ho80 C83 2.811 . S
Ho80 O100 2.322 . S
Ho80 O102 2.378 . S
Ho80 O103 2.524 . S
Ho80 O104 2.381 . S
Ho80 O105 2.669 . S
Ho80 O107 2.346 . S
Ho80 O111 2.305 . S
Ho81 C92 2.811 . S
Ho81 O101 2.346 . S
Ho81 O105 2.305 . S
Ho81 O106 2.322 . S
Ho81 O108 2.378 . S
Ho81 O109 2.524 . S
Ho81 O110 2.381 . S
Ho81 O111 2.669 . S
C82 O100 1.259 . S
C82 O101 1.268 . S
C83 Ho80 2.811 . S
C83 C84 1.488 . S
C83 O102 1.215 . S
C83 O103 1.289 . S
C84 C83 1.488 . S
C84 C85 1.348 . S
C84 C89 1.413 . S
C85 C84 1.348 . S
C85 C86 1.442 . S
C85 H112 0.930 . S
C86 C85 1.442 . S
C86 C87 1.381 . S
C86 H113 0.931 . S
C87 C86 1.381 . S
C87 C88 1.321 . S
C88 C87 1.321 . S
C88 C89 1.403 . S
C88 H114 0.934 . S
C89 C84 1.413 . S
C89 C88 1.403 . S
C89 H115 0.930 . S
C90 O104 1.275 . S
C90 O105 1.256 . S
C91 O106 1.259 . S
C91 O107 1.268 . S
C92 Ho81 2.811 . S
C92 C93 1.488 . S
C92 O108 1.215 . S
C92 O109 1.289 . S
C93 C92 1.488 . S
C93 C94 1.348 . S
C93 C98 1.413 . S
C94 C93 1.348 . S
C94 C95 1.442 . S
C94 H116 0.930 . S
C95 C94 1.442 . S
C95 C96 1.381 . S
C95 H117 0.931 . S
C96 C95 1.381 . S
C96 C97 1.321 . S
C97 C96 1.321 . S
C97 C98 1.403 . S
C97 H118 0.934 . S
C98 C93 1.413 . S
C98 C97 1.403 . S
C98 H119 0.930 . S
C99 O110 1.275 . S
C99 O111 1.256 . S
O100 Ho80 2.322 . S
O100 C82 1.259 . S
O101 Ho81 2.346 . S
O101 C82 1.268 . S
O102 Ho80 2.378 . S
O102 C83 1.215 . S
O103 Ho80 2.524 . S
O103 C83 1.289 . S
O104 Ho80 2.381 . S
O104 C90 1.275 . S
O105 Ho80 2.669 . S
O105 Ho81 2.305 . S
O105 C90 1.256 . S
O106 Ho81 2.322 . S
O106 C91 1.259 . S
O107 Ho80 2.346 . S
O107 C91 1.268 . S
O108 Ho81 2.378 . S
O108 C92 1.215 . S
O109 Ho81 2.524 . S
O109 C92 1.289 . S
O110 Ho81 2.381 . S
O110 C99 1.275 . S
O111 Ho80 2.305 . S
O111 Ho81 2.669 . S
O111 C99 1.256 . S
H112 C85 0.930 . S
H113 C86 0.931 . S
H114 C88 0.934 . S
H115 C89 0.930 . S
H116 C94 0.930 . S
H117 C95 0.931 . S
H118 C97 0.934 . S
H119 C98 0.930 . S
Ho120 C123 2.811 . S
Ho120 O140 2.322 . S
Ho120 O142 2.378 . S
Ho120 O143 2.524 . S
Ho120 O144 2.381 . S
Ho120 O145 2.669 . S
Ho120 O147 2.346 . S
Ho120 O151 2.305 . S
Ho121 C132 2.811 . S
Ho121 O141 2.346 . S
Ho121 O145 2.305 . S
Ho121 O146 2.322 . S
Ho121 O148 2.378 . S
Ho121 O149 2.524 . S
Ho121 O150 2.381 . S
Ho121 O151 2.669 . S
C122 O140 1.259 . S
C122 O141 1.268 . S
C123 Ho120 2.811 . S
C123 C124 1.488 . S
C123 O142 1.215 . S
C123 O143 1.289 . S
C124 C123 1.488 . S
C124 C125 1.348 . S
C124 C129 1.413 . S
C125 C124 1.348 . S
C125 C126 1.442 . S
C125 H152 0.930 . S
C126 C125 1.442 . S
C126 C127 1.381 . S
C126 H153 0.931 . S
C127 C126 1.381 . S
C127 C128 1.321 . S
C128 C127 1.321 . S
C128 C129 1.403 . S
C128 H154 0.934 . S
C129 C124 1.413 . S
C129 C128 1.403 . S
C129 H155 0.930 . S
C130 O144 1.275 . S
C130 O145 1.256 . S
C131 O146 1.259 . S
C131 O147 1.268 . S
C132 Ho121 2.811 . S
C132 C133 1.488 . S
C132 O148 1.215 . S
C132 O149 1.289 . S
C133 C132 1.488 . S
C133 C134 1.348 . S
C133 C138 1.413 . S
C134 C133 1.348 . S
C134 C135 1.442 . S
C134 H156 0.930 . S
C135 C134 1.442 . S
C135 C136 1.381 . S
C135 H157 0.931 . S
C136 C135 1.381 . S
C136 C137 1.321 . S
C137 C136 1.321 . S
C137 C138 1.403 . S
C137 H158 0.934 . S
C138 C133 1.413 . S
C138 C137 1.403 . S
C138 H159 0.930 . S
C139 O150 1.275 . S
C139 O151 1.256 . S
O140 Ho120 2.322 . S
O140 C122 1.259 . S
O141 Ho121 2.346 . S
O141 C122 1.268 . S
O142 Ho120 2.378 . S
O142 C123 1.215 . S
O143 Ho120 2.524 . S
O143 C123 1.289 . S
O144 Ho120 2.381 . S
O144 C130 1.275 . S
O145 Ho120 2.669 . S
O145 Ho121 2.305 . S
O145 C130 1.256 . S
O146 Ho121 2.322 . S
O146 C131 1.259 . S
O147 Ho120 2.346 . S
O147 C131 1.268 . S
O148 Ho121 2.378 . S
O148 C132 1.215 . S
O149 Ho121 2.524 . S
O149 C132 1.289 . S
O150 Ho121 2.381 . S
O150 C139 1.275 . S
O151 Ho120 2.305 . S
O151 Ho121 2.669 . S
O151 C139 1.256 . S
H152 C125 0.930 . S
H153 C126 0.931 . S
H154 C128 0.934 . S
H155 C129 0.930 . S
H156 C134 0.930 . S
H157 C135 0.931 . S
H158 C137 0.934 . S
H159 C138 0.930 . S
H160 C178 0.951 . S
H161 C180 0.951 . S
H162 C182 0.950 . S
H163 C183 0.950 . S
H164 C185 0.950 . S
H165 C188 0.950 . S
H166 C189 0.950 . S
H167 C191 0.950 . S
H168 C192 0.950 1_556 S
H169 C193 0.951 . S
H170 C195 0.951 . S
H171 C197 0.950 . S
H172 C198 0.950 . S
H173 C200 0.950 . S
H174 C203 0.950 . S
H175 C204 0.950 . S
H176 C206 0.950 . S
H177 C207 0.950 1_554 S
C178 H160 0.951 . S
C178 C179 1.366 . S
C178 C180 1.388 . S
C179 C178 1.366 . S
C179 C183 1.385 1_556 S
C180 H161 0.951 . S
C180 C178 1.388 . S
C180 C181 1.363 1_556 S
C181 C180 1.363 1_554 S
C181 C182 1.412 . S
C181 C184 1.503 . S
C182 H162 0.950 . S
C182 C181 1.412 . S
C182 C183 1.374 . S
C183 H163 0.950 . S
C183 C179 1.385 1_554 S
C183 C182 1.374 . S
C184 C181 1.503 . S
C184 C185 1.373 1_554 S
C184 C186 1.389 . S
C185 H164 0.950 . S
C185 C184 1.373 1_556 S
C185 C201 1.377 . S
C186 C184 1.389 . S
C186 C187 1.524 . S
C186 C200 1.377 . S
C187 C186 1.524 . S
C187 C188 1.397 . S
C187 C192 1.363 . S
C188 H165 0.950 . S
C188 C187 1.397 . S
C188 C189 1.334 . S
C189 H166 0.950 . S
C189 C188 1.334 . S
C189 C190 1.287 . S
C190 C189 1.287 . S
C190 C191 1.524 . S
C190 H209 0.913 . S
C191 H167 0.950 . S
C191 C190 1.524 . S
C191 C192 1.415 . S
C192 H168 0.950 1_554 S
C192 C187 1.363 . S
C192 C191 1.415 . S
C193 H169 0.951 . S
C193 C194 1.366 . S
C193 C195 1.388 . S
C194 C193 1.366 . S
C194 C198 1.385 1_554 S
C195 H170 0.951 . S
C195 C193 1.388 . S
C195 C196 1.365 1_554 S
C196 C195 1.365 1_556 S
C196 C197 1.413 . S
C196 C199 1.500 . S
C197 H171 0.950 . S
C197 C196 1.413 . S
C197 C198 1.374 . S
C198 H172 0.950 . S
C198 C194 1.385 1_556 S
C198 C197 1.374 . S
C199 C196 1.500 . S
C199 C200 1.373 1_556 S
C199 C201 1.389 . S
C200 H173 0.950 . S
C200 C186 1.377 . S
C200 C199 1.373 1_554 S
C201 C185 1.377 . S
C201 C199 1.389 . S
C201 C202 1.524 . S
C202 C201 1.524 . S
C202 C203 1.397 . S
C202 C207 1.363 . S
C203 H174 0.950 . S
C203 C202 1.397 . S
C203 C204 1.334 . S
C204 H175 0.950 . S
C204 C203 1.334 . S
C204 C205 1.287 . S
C205 C204 1.287 . S
C205 C206 1.524 . S
C205 H208 0.999 . S
C206 H176 0.950 . S
C206 C205 1.524 . S
C206 C207 1.415 . S
C207 H177 0.950 1_556 S
C207 C202 1.363 . S
C207 C206 1.415 . S
H208 C205 0.999 . S
H209 C190 0.913 . S
H210 C228 0.951 . S
H211 C230 0.951 . S
H212 C232 0.950 . S
H213 C233 0.950 . S
H214 C235 0.950 . S
H215 C238 0.950 . S
H216 C239 0.950 . S
H217 C241 0.950 . S
H218 C242 0.950 . S
H219 C243 0.951 . S
H220 C245 0.951 . S
H221 C247 0.950 . S
H222 C248 0.950 . S
H223 C250 0.950 . S
H224 C253 0.950 . S
H225 C254 0.950 . S
H226 C256 0.950 . S
H227 C257 0.950 . S
C228 H210 0.951 . S
C228 C229 1.366 . S
C228 C230 1.388 . S
C229 C228 1.366 . S
C229 C233 1.385 . S
C230 H211 0.951 . S
C230 C228 1.388 . S
C230 C231 1.366 . S
C231 C230 1.366 . S
C231 C232 1.414 . S
C231 C234 1.499 . S
C232 H212 0.950 . S
C232 C231 1.414 . S
C232 C233 1.374 . S
C233 H213 0.950 . S
C233 C229 1.385 . S
C233 C232 1.374 . S
C234 C231 1.499 . S
C234 C235 1.373 . S
C234 C236 1.389 . S
C235 H214 0.950 . S
C235 C234 1.373 . S
C235 C251 1.377 . S
C236 C234 1.389 . S
C236 C237 1.524 . S
C236 C250 1.377 . S
C237 C236 1.524 . S
C237 C238 1.397 . S
C237 C242 1.363 . S
C238 H215 0.950 . S
C238 C237 1.397 . S
C238 C239 1.334 . S
C239 H216 0.950 . S
C239 C238 1.334 . S
C239 C240 1.287 . S
C240 C239 1.287 . S
C240 C241 1.524 . S
C240 H259 0.913 . S
C241 H217 0.950 . S
C241 C240 1.524 . S
C241 C242 1.415 . S
C242 H218 0.950 . S
C242 C237 1.363 . S
C242 C241 1.415 . S
C243 H219 0.951 . S
C243 C244 1.366 . S
C243 C245 1.388 . S
C244 C243 1.366 . S
C244 C248 1.385 . S
C245 H220 0.951 . S
C245 C243 1.388 . S
C245 C246 1.366 . S
C246 C245 1.366 . S
C246 C247 1.414 . S
C246 C249 1.499 . S
C247 H221 0.950 . S
C247 C246 1.414 . S
C247 C248 1.374 . S
C248 H222 0.950 . S
C248 C244 1.385 . S
C248 C247 1.374 . S
C249 C246 1.499 . S
C249 C250 1.373 . S
C249 C251 1.389 . S
C250 H223 0.950 . S
C250 C236 1.377 . S
C250 C249 1.373 . S
C251 C235 1.377 . S
C251 C249 1.389 . S
C251 C252 1.524 . S
C252 C251 1.524 . S
C252 C253 1.397 . S
C252 C257 1.363 . S
C253 H224 0.950 . S
C253 C252 1.397 . S
C253 C254 1.334 . S
C254 H225 0.950 . S
C254 C253 1.334 . S
C254 C255 1.287 . S
C255 C254 1.287 . S
C255 C256 1.524 . S
C255 H258 0.999 . S
C256 H226 0.950 . S
C256 C255 1.524 . S
C256 C257 1.415 . S
C257 H227 0.950 . S
C257 C252 1.363 . S
C257 C256 1.415 . S
H258 C255 0.999 . S
H259 C240 0.913 . S
H260 C278 0.951 . S
H261 C280 0.951 . S
H262 C282 0.950 1_655 S
H263 C283 0.950 . S
H264 C285 0.950 . S
H265 C288 0.950 . S
H266 C289 0.962 . S
H267 C291 0.950 1_554 S
H268 C292 0.950 . S
H269 C293 0.951 . S
H270 C295 0.951 . S
H271 C297 0.950 1_455 S
H272 C298 0.950 . S
H273 C300 0.950 . S
H274 C303 0.950 . S
H275 C304 0.962 . S
H276 C306 0.950 1_556 S
H277 C307 0.950 . S
C278 H260 0.951 . S
C278 C279 1.366 1_554 S
C278 C280 1.388 . S
C279 C278 1.366 1_556 S
C279 C283 1.385 . S
C280 H261 0.951 . S
C280 C278 1.388 . S
C280 C281 1.366 1_554 S
C281 C280 1.366 1_556 S
C281 C282 1.414 . S
C281 C284 1.499 . S
C282 H262 0.950 1_455 S
C282 C281 1.414 . S
C282 C283 1.374 . S
C283 H263 0.950 . S
C283 C279 1.385 . S
C283 C282 1.374 . S
C284 C281 1.499 . S
C284 C285 1.373 1_456 S
C284 C286 1.389 1_545 S
C285 H264 0.950 . S
C285 C284 1.373 1_654 S
C285 C301 1.377 . S
C286 C284 1.389 1_565 S
C286 C287 1.524 . S
C286 C300 1.377 . S
C287 C286 1.524 . S
C287 C288 1.397 1_565 S
C287 C292 1.363 1_556 S
C288 H265 0.950 . S
C288 C287 1.397 1_545 S
C288 C289 1.338 . S
C289 H266 0.962 . S
C289 C288 1.338 . S
C289 C290 1.271 1_545 S
C290 C289 1.271 1_565 S
C290 C291 1.524 . S
C290 H309 0.913 . S
C291 H267 0.950 1_556 S
C291 C290 1.524 . S
C291 C292 1.415 1_556 S
C292 H268 0.950 . S
C292 C287 1.363 1_554 S
C292 C291 1.415 1_554 S
C293 H269 0.951 . S
C293 C294 1.366 1_556 S
C293 C295 1.388 . S
C294 C293 1.366 1_554 S
C294 C298 1.385 . S
C295 H270 0.951 . S
C295 C293 1.388 . S
C295 C296 1.366 1_556 S
C296 C295 1.366 1_554 S
C296 C297 1.414 . S
C296 C299 1.499 . S
C297 H271 0.950 1_655 S
C297 C296 1.414 . S
C297 C298 1.374 . S
C298 H272 0.950 . S
C298 C294 1.385 . S
C298 C297 1.374 . S
C299 C296 1.499 . S
C299 C300 1.373 1_654 S
C299 C301 1.389 1_565 S
C300 H273 0.950 . S
C300 C286 1.377 . S
C300 C299 1.373 1_456 S
C301 C285 1.377 . S
C301 C299 1.389 1_545 S
C301 C302 1.524 . S
C302 C301 1.524 . S
C302 C303 1.397 1_545 S
C302 C307 1.363 1_554 S
C303 H274 0.950 . S
C303 C302 1.397 1_565 S
C303 C304 1.338 . S
C304 H275 0.962 . S
C304 C303 1.338 . S
C304 C305 1.271 1_565 S
C305 C304 1.271 1_545 S
C305 C306 1.524 . S
C305 H308 0.999 . S
C306 H276 0.950 1_554 S
C306 C305 1.524 . S
C306 C307 1.415 1_554 S
C307 H277 0.950 . S
C307 C302 1.363 1_556 S
C307 C306 1.415 1_556 S
H308 C305 0.999 . S
H309 C290 0.913 . S
H310 C328 0.951 . S
H311 C330 0.951 1_455 S
H312 C332 0.950 . S
H313 C333 0.950 . S
H314 C335 0.950 . S
H315 C338 0.950 1_655 S
H316 C339 0.950 . S
H317 C341 0.950 . S
H318 C342 0.950 . S
H319 C343 0.951 . S
H320 C345 0.951 1_655 S
H321 C347 0.950 . S
H322 C348 0.950 . S
H323 C350 0.950 . S
H324 C353 0.950 1_455 S
H325 C354 0.950 . S
H326 C356 0.950 . S
H327 C357 0.950 . S
C328 H310 0.951 . S
C328 C329 1.366 . S
C328 C330 1.388 . S
C329 C328 1.366 . S
C329 C333 1.385 . S
C330 H311 0.951 1_655 S
C330 C328 1.388 . S
C330 C331 1.366 . S
C331 C330 1.366 . S
C331 C332 1.414 . S
C331 C334 1.499 . S
C332 H312 0.950 . S
C332 C331 1.414 . S
C332 C333 1.374 . S
C333 H313 0.950 . S
C333 C329 1.385 . S
C333 C332 1.374 . S
C334 C331 1.499 . S
C334 C335 1.373 1_545 S
C334 C336 1.389 1_655 S
C335 H314 0.950 . S
C335 C334 1.373 1_565 S
C335 C351 1.377 . S
C336 C334 1.389 1_455 S
C336 C337 1.524 . S
C336 C350 1.377 . S
C337 C336 1.524 . S
C337 C338 1.397 . S
C337 C342 1.363 . S
C338 H315 0.950 1_455 S
C338 C337 1.397 . S
C338 C339 1.334 . S
C339 H316 0.950 . S
C339 C338 1.334 . S
C339 C340 1.287 . S
C340 C339 1.287 . S
C340 C341 1.524 . S
C340 H359 0.913 . S
C341 H317 0.950 . S
C341 C340 1.524 . S
C341 C342 1.415 . S
C342 H318 0.950 . S
C342 C337 1.363 . S
C342 C341 1.415 . S
C343 H319 0.951 . S
C343 C344 1.366 . S
C343 C345 1.388 . S
C344 C343 1.366 . S
C344 C348 1.385 . S
C345 H320 0.951 1_455 S
C345 C343 1.388 . S
C345 C346 1.366 . S
C346 C345 1.366 . S
C346 C347 1.414 . S
C346 C349 1.499 . S
C347 H321 0.950 . S
C347 C346 1.414 . S
C347 C348 1.374 . S
C348 H322 0.950 . S
C348 C344 1.385 . S
C348 C347 1.374 . S
C349 C346 1.499 . S
C349 C350 1.373 1_565 S
C349 C351 1.389 1_455 S
C350 H323 0.950 . S
C350 C336 1.377 . S
C350 C349 1.373 1_545 S
C351 C335 1.377 . S
C351 C349 1.389 1_655 S
C351 C352 1.524 . S
C352 C351 1.524 . S
C352 C353 1.397 . S
C352 C357 1.363 . S
C353 H324 0.950 1_655 S
C353 C352 1.397 . S
C353 C354 1.334 . S
C354 H325 0.950 . S
C354 C353 1.334 . S
C354 C355 1.287 . S
C355 C354 1.287 . S
C355 C356 1.524 . S
C355 H358 0.999 . S
C356 H326 0.950 . S
C356 C355 1.524 . S
C356 C357 1.415 . S
C357 H327 0.950 . S
C357 C352 1.363 . S
C357 C356 1.415 . S
H358 C355 0.999 . S
H359 C340 0.913 . S
H360 C378 0.951 . S
H361 C380 0.951 . S
H362 C382 0.950 . S
H363 C383 0.950 . S
H364 C385 0.950 . S
H365 C388 0.950 . S
H366 C389 0.950 . S
H367 C391 0.950 . S
H368 C392 0.950 . S
H369 C393 0.951 . S
H370 C395 0.951 . S
H371 C397 0.950 . S
H372 C398 0.950 . S
H373 C400 0.950 . S
H374 C403 0.950 . S
H375 C404 0.950 . S
H376 C406 0.950 . S
H377 C407 0.950 . S
C378 H360 0.951 . S
C378 C379 1.366 . S
C378 C380 1.388 . S
C379 C378 1.366 . S
C379 C383 1.385 . S
C380 H361 0.951 . S
C380 C378 1.388 . S
C380 C381 1.366 . S
C381 C380 1.366 . S
C381 C382 1.414 . S
C381 C384 1.499 . S
C382 H362 0.950 . S
C382 C381 1.414 . S
C382 C383 1.374 . S
C383 H363 0.950 . S
C383 C379 1.385 . S
C383 C382 1.374 . S
C384 C381 1.499 . S
C384 C385 1.373 . S
C384 C386 1.389 . S
C385 H364 0.950 . S
C385 C384 1.373 . S
C385 C401 1.377 . S
C386 C384 1.389 . S
C386 C387 1.524 . S
C386 C400 1.377 . S
C387 C386 1.524 . S
C387 C388 1.397 . S
C387 C392 1.363 . S
C388 H365 0.950 . S
C388 C387 1.397 . S
C388 C389 1.334 . S
C389 H366 0.950 . S
C389 C388 1.334 . S
C389 C390 1.287 . S
C390 C389 1.287 . S
C390 C391 1.524 . S
C390 H409 0.913 . S
C391 H367 0.950 . S
C391 C390 1.524 . S
C391 C392 1.415 . S
C392 H368 0.950 . S
C392 C387 1.363 . S
C392 C391 1.415 . S
C393 H369 0.951 . S
C393 C394 1.366 . S
C393 C395 1.388 . S
C394 C393 1.366 . S
C394 C398 1.385 . S
C395 H370 0.951 . S
C395 C393 1.388 . S
C395 C396 1.366 . S
C396 C395 1.366 . S
C396 C397 1.414 . S
C396 C399 1.499 . S
C397 H371 0.950 . S
C397 C396 1.414 . S
C397 C398 1.374 . S
C398 H372 0.950 . S
C398 C394 1.385 . S
C398 C397 1.374 . S
C399 C396 1.499 . S
C399 C400 1.373 . S
C399 C401 1.389 . S
C400 H373 0.950 . S
C400 C386 1.377 . S
C400 C399 1.373 . S
C401 C385 1.377 . S
C401 C399 1.389 . S
C401 C402 1.524 . S
C402 C401 1.524 . S
C402 C403 1.397 . S
C402 C407 1.363 . S
C403 H374 0.950 . S
C403 C402 1.397 . S
C403 C404 1.334 . S
C404 H375 0.950 . S
C404 C403 1.334 . S
C404 C405 1.287 . S
C405 C404 1.287 . S
C405 C406 1.524 . S
C405 H408 0.999 . S
C406 H376 0.950 . S
C406 C405 1.524 . S
C406 C407 1.415 . S
C407 H377 0.950 . S
C407 C402 1.363 . S
C407 C406 1.415 . S
H408 C405 0.999 . S
H409 C390 0.913 . S
H410 C428 0.951 . S
H411 C430 0.951 . S
H412 C432 0.950 . S
H413 C433 0.950 . S
H414 C435 0.950 . S
H415 C438 0.950 . S
H416 C439 0.950 . S
H417 C441 0.950 . S
H418 C442 0.950 . S
H419 C443 0.951 . S
H420 C445 0.951 . S
H421 C447 0.950 . S
H422 C448 0.950 . S
H423 C450 0.950 . S
H424 C453 0.950 . S
H425 C454 0.950 . S
H426 C456 0.950 . S
H427 C457 0.950 . S
C428 H410 0.951 . S
C428 C429 1.366 . S
C428 C430 1.388 . S
C429 C428 1.366 . S
C429 C433 1.385 . S
C430 H411 0.951 . S
C430 C428 1.388 . S
C430 C431 1.366 . S
C431 C430 1.366 . S
C431 C432 1.414 . S
C431 C434 1.499 . S
C432 H412 0.950 . S
C432 C431 1.414 . S
C432 C433 1.374 . S
C433 H413 0.950 . S
C433 C429 1.385 . S
C433 C432 1.374 . S
C434 C431 1.499 . S
C434 C435 1.373 . S
C434 C436 1.389 . S
C435 H414 0.950 . S
C435 C434 1.373 . S
C435 C451 1.377 . S
C436 C434 1.389 . S
C436 C437 1.524 . S
C436 C450 1.377 . S
C437 C436 1.524 . S
C437 C438 1.397 . S
C437 C442 1.363 . S
C438 H415 0.950 . S
C438 C437 1.397 . S
C438 C439 1.334 . S
C439 H416 0.950 . S
C439 C438 1.334 . S
C439 C440 1.287 . S
C440 C439 1.287 . S
C440 C441 1.524 . S
C440 H459 0.913 . S
C441 H417 0.950 . S
C441 C440 1.524 . S
C441 C442 1.415 . S
C442 H418 0.950 . S
C442 C437 1.363 . S
C442 C441 1.415 . S
C443 H419 0.951 . S
C443 C444 1.366 . S
C443 C445 1.388 . S
C444 C443 1.366 . S
C444 C448 1.385 . S
C445 H420 0.951 . S
C445 C443 1.388 . S
C445 C446 1.366 . S
C446 C445 1.366 . S
C446 C447 1.414 . S
C446 C449 1.499 . S
C447 H421 0.950 . S
C447 C446 1.414 . S
C447 C448 1.374 . S
C448 H422 0.950 . S
C448 C444 1.385 . S
C448 C447 1.374 . S
C449 C446 1.499 . S
C449 C450 1.373 . S
C449 C451 1.389 . S
C450 H423 0.950 . S
C450 C436 1.377 . S
C450 C449 1.373 . S
C451 C435 1.377 . S
C451 C449 1.389 . S
C451 C452 1.524 . S
C452 C451 1.524 . S
C452 C453 1.397 . S
C452 C457 1.363 . S
C453 H424 0.950 . S
C453 C452 1.397 . S
C453 C454 1.334 . S
C454 H425 0.950 . S
C454 C453 1.334 . S
C454 C455 1.287 . S
C455 C454 1.287 . S
C455 C456 1.524 . S
C455 H458 0.999 . S
C456 H426 0.950 . S
C456 C455 1.524 . S
C456 C457 1.415 . S
C457 H427 0.950 . S
C457 C452 1.363 . S
C457 C456 1.415 . S
H458 C455 0.999 . S
H459 C440 0.913 . S
H460 C478 0.951 . S
H461 C480 0.951 . S
H462 C482 0.950 . S
H463 C483 0.950 . S
H464 C485 0.950 . S
H465 C488 0.950 . S
H466 C489 0.950 . S
H467 C491 0.950 . S
H468 C492 0.950 . S
H469 C493 0.951 . S
H470 C495 0.951 . S
H471 C497 0.950 . S
H472 C498 0.950 . S
H473 C500 0.950 . S
H474 C503 0.950 . S
H475 C504 0.950 . S
H476 C506 0.950 . S
H477 C507 0.950 . S
C478 H460 0.951 . S
C478 C479 1.366 . S
C478 C480 1.388 . S
C479 C478 1.366 . S
C479 C483 1.385 . S
C480 H461 0.951 . S
C480 C478 1.388 . S
C480 C481 1.366 . S
C481 C480 1.366 . S
C481 C482 1.414 . S
C481 C484 1.499 . S
C482 H462 0.950 . S
C482 C481 1.414 . S
C482 C483 1.374 . S
C483 H463 0.950 . S
C483 C479 1.385 . S
C483 C482 1.374 . S
C484 C481 1.499 . S
C484 C485 1.373 . S
C484 C486 1.389 . S
C485 H464 0.950 . S
C485 C484 1.373 . S
C485 C501 1.377 . S
C486 C484 1.389 . S
C486 C487 1.524 . S
C486 C500 1.377 . S
C487 C486 1.524 . S
C487 C488 1.397 . S
C487 C492 1.363 . S
C488 H465 0.950 . S
C488 C487 1.397 . S
C488 C489 1.334 . S
C489 H466 0.950 . S
C489 C488 1.334 . S
C489 C490 1.287 . S
C490 C489 1.287 . S
C490 C491 1.524 . S
C490 H509 0.913 . S
C491 H467 0.950 . S
C491 C490 1.524 . S
C491 C492 1.415 . S
C492 H468 0.950 . S
C492 C487 1.363 . S
C492 C491 1.415 . S
C493 H469 0.951 . S
C493 C494 1.366 . S
C493 C495 1.388 . S
C494 C493 1.366 . S
C494 C498 1.385 . S
C495 H470 0.951 . S
C495 C493 1.388 . S
C495 C496 1.366 . S
C496 C495 1.366 . S
C496 C497 1.414 . S
C496 C499 1.499 . S
C497 H471 0.950 . S
C497 C496 1.414 . S
C497 C498 1.374 . S
C498 H472 0.950 . S
C498 C494 1.385 . S
C498 C497 1.374 . S
C499 C496 1.499 . S
C499 C500 1.373 . S
C499 C501 1.389 . S
C500 H473 0.950 . S
C500 C486 1.377 . S
C500 C499 1.373 . S
C501 C485 1.377 . S
C501 C499 1.389 . S
C501 C502 1.524 . S
C502 C501 1.524 . S
C502 C503 1.397 . S
C502 C507 1.363 . S
C503 H474 0.950 . S
C503 C502 1.397 . S
C503 C504 1.334 . S
C504 H475 0.950 . S
C504 C503 1.334 . S
C504 C505 1.287 . S
C505 C504 1.287 . S
C505 C506 1.524 . S
C505 H508 0.999 . S
C506 H476 0.950 . S
C506 C505 1.524 . S
C506 C507 1.415 . S
C507 H477 0.950 . S
C507 C502 1.363 . S
C507 C506 1.415 . S
H508 C505 0.999 . S
H509 C490 0.913 . S
H510 C528 0.951 . S
H511 C530 0.951 . S
H512 C532 0.950 . S
H513 C533 0.950 . S
H514 C535 0.950 . S
H515 C538 0.950 . S
H516 C539 0.950 . S
H517 C541 0.950 . S
H518 C542 0.950 . S
H519 C543 0.951 . S
H520 C545 0.951 . S
H521 C547 0.950 . S
H522 C548 0.950 . S
H523 C550 0.950 . S
H524 C553 0.950 . S
H525 C554 0.950 . S
H526 C556 0.950 . S
H527 C557 0.950 . S
C528 H510 0.951 . S
C528 C529 1.366 . S
C528 C530 1.388 . S
C529 C528 1.366 . S
C529 C533 1.385 . S
C530 H511 0.951 . S
C530 C528 1.388 . S
C530 C531 1.366 . S
C531 C530 1.366 . S
C531 C532 1.414 . S
C531 C534 1.499 . S
C532 H512 0.950 . S
C532 C531 1.414 . S
C532 C533 1.374 . S
C533 H513 0.950 . S
C533 C529 1.385 . S
C533 C532 1.374 . S
C534 C531 1.499 . S
C534 C535 1.373 . S
C534 C536 1.389 . S
C535 H514 0.950 . S
C535 C534 1.373 . S
C535 C551 1.377 . S
C536 C534 1.389 . S
C536 C537 1.524 . S
C536 C550 1.377 . S
C537 C536 1.524 . S
C537 C538 1.397 . S
C537 C542 1.363 . S
C538 H515 0.950 . S
C538 C537 1.397 . S
C538 C539 1.334 . S
C539 H516 0.950 . S
C539 C538 1.334 . S
C539 C540 1.287 . S
C540 C539 1.287 . S
C540 C541 1.524 . S
C540 H559 0.913 . S
C541 H517 0.950 . S
C541 C540 1.524 . S
C541 C542 1.415 . S
C542 H518 0.950 . S
C542 C537 1.363 . S
C542 C541 1.415 . S
C543 H519 0.951 . S
C543 C544 1.366 . S
C543 C545 1.388 . S
C544 C543 1.366 . S
C544 C548 1.385 . S
C545 H520 0.951 . S
C545 C543 1.388 . S
C545 C546 1.366 . S
C546 C545 1.366 . S
C546 C547 1.414 . S
C546 C549 1.499 . S
C547 H521 0.950 . S
C547 C546 1.414 . S
C547 C548 1.374 . S
C548 H522 0.950 . S
C548 C544 1.385 . S
C548 C547 1.374 . S
C549 C546 1.499 . S
C549 C550 1.373 . S
C549 C551 1.389 . S
C550 H523 0.950 . S
C550 C536 1.377 . S
C550 C549 1.373 . S
C551 C535 1.377 . S
C551 C549 1.389 . S
C551 C552 1.524 . S
C552 C551 1.524 . S
C552 C553 1.397 . S
C552 C557 1.363 . S
C553 H524 0.950 . S
C553 C552 1.397 . S
C553 C554 1.334 . S
C554 H525 0.950 . S
C554 C553 1.334 . S
C554 C555 1.287 . S
C555 C554 1.287 . S
C555 C556 1.524 . S
C555 H558 0.999 . S
C556 H526 0.950 . S
C556 C555 1.524 . S
C556 C557 1.415 . S
C557 H527 0.950 . S
C557 C552 1.363 . S
C557 C556 1.415 . S
H558 C555 0.999 . S
H559 C540 0.913 . S
H560 C578 0.951 . S
H561 C580 0.951 1_455 S
H562 C582 0.950 . S
H563 C583 0.950 . S
H564 C585 0.950 . S
H565 C588 0.950 . S
H566 C589 0.950 . S
H567 C591 0.950 . S
H568 C592 0.950 . S
H569 C593 0.951 . S
H570 C595 0.951 1_655 S
H571 C597 0.950 . S
H572 C598 0.950 . S
H573 C600 0.950 . S
H574 C603 0.950 . S
H575 C604 0.950 . S
H576 C606 0.950 . S
H577 C607 0.950 . S
C578 H560 0.951 . S
C578 C579 1.366 . S
C578 C580 1.388 . S
C579 C578 1.366 . S
C579 C583 1.385 . S
C580 H561 0.951 1_655 S
C580 C578 1.388 . S
C580 C581 1.366 . S
C581 C580 1.366 . S
C581 C582 1.414 . S
C581 C584 1.499 . S
C582 H562 0.950 . S
C582 C581 1.414 . S
C582 C583 1.374 . S
C583 H563 0.950 . S
C583 C579 1.385 . S
C583 C582 1.374 . S
C584 C581 1.499 . S
C584 C585 1.373 . S
C584 C586 1.389 . S
C585 H564 0.950 . S
C585 C584 1.373 . S
C585 C601 1.377 1_655 S
C586 C584 1.389 . S
C586 C587 1.524 . S
C586 C600 1.377 1_655 S
C587 C586 1.524 . S
C587 C588 1.397 . S
C587 C592 1.363 1_655 S
C588 H565 0.950 . S
C588 C587 1.397 . S
C588 C589 1.334 . S
C589 H566 0.950 . S
C589 C588 1.334 . S
C589 C590 1.287 . S
C590 C589 1.287 . S
C590 C591 1.524 1_655 S
C590 H609 0.913 . S
C591 H567 0.950 . S
C591 C590 1.524 1_455 S
C591 C592 1.415 . S
C592 H568 0.950 . S
C592 C587 1.363 1_455 S
C592 C591 1.415 . S
C593 H569 0.951 . S
C593 C594 1.366 . S
C593 C595 1.388 . S
C594 C593 1.366 . S
C594 C598 1.385 . S
C595 H570 0.951 1_455 S
C595 C593 1.388 . S
C595 C596 1.366 . S
C596 C595 1.366 . S
C596 C597 1.414 . S
C596 C599 1.499 . S
C597 H571 0.950 . S
C597 C596 1.414 . S
C597 C598 1.374 . S
C598 H572 0.950 . S
C598 C594 1.385 . S
C598 C597 1.374 . S
C599 C596 1.499 . S
C599 C600 1.373 . S
C599 C601 1.389 . S
C600 H573 0.950 . S
C600 C586 1.377 1_455 S
C600 C599 1.373 . S
C601 C585 1.377 1_455 S
C601 C599 1.389 . S
C601 C602 1.524 . S
C602 C601 1.524 . S
C602 C603 1.397 . S
C602 C607 1.363 1_455 S
C603 H574 0.950 . S
C603 C602 1.397 . S
C603 C604 1.334 . S
C604 H575 0.950 . S
C604 C603 1.334 . S
C604 C605 1.287 . S
C605 C604 1.287 . S
C605 C606 1.524 1_455 S
C605 H608 0.999 . S
C606 H576 0.950 . S
C606 C605 1.524 1_655 S
C606 C607 1.415 . S
C607 H577 0.950 . S
C607 C602 1.363 1_655 S
C607 C606 1.415 . S
H608 C605 0.999 . S
H609 C590 0.913 . S
H610 C628 0.951 1_455 S
H611 C630 0.951 . S
H612 C632 0.950 . S
H613 C633 0.950 . S
H614 C635 0.950 . S
H615 C638 0.950 . S
H616 C639 0.950 . S
H617 C641 0.950 . S
H618 C642 0.950 . S
H619 C643 0.951 1_655 S
H620 C645 0.951 . S
H621 C647 0.950 . S
H622 C648 0.950 . S
H623 C650 0.950 . S
H624 C653 0.950 . S
H625 C654 0.950 . S
H626 C656 0.950 . S
H627 C657 0.950 . S
C628 H610 0.951 1_655 S
C628 C629 1.366 . S
C628 C630 1.388 1_655 S
C629 C628 1.366 . S
C629 C633 1.385 . S
C630 H611 0.951 . S
C630 C628 1.388 1_455 S
C630 C631 1.366 1_455 S
C631 C630 1.366 1_655 S
C631 C632 1.414 . S
C631 C634 1.499 . S
C632 H612 0.950 . S
C632 C631 1.414 . S
C632 C633 1.374 . S
C633 H613 0.950 . S
C633 C629 1.385 . S
C633 C632 1.374 . S
C634 C631 1.499 . S
C634 C635 1.373 . S
C634 C636 1.389 1_655 S
C635 H614 0.950 . S
C635 C634 1.373 . S
C635 C651 1.377 . S
C636 C634 1.389 1_455 S
C636 C637 1.524 . S
C636 C650 1.377 . S
C637 C636 1.524 . S
C637 C638 1.397 . S
C637 C642 1.363 . S
C638 H615 0.950 . S
C638 C637 1.397 . S
C638 C639 1.334 . S
C639 H616 0.950 . S
C639 C638 1.334 . S
C639 C640 1.287 . S
C640 C639 1.287 . S
C640 C641 1.524 . S
C640 H659 0.913 . S
C641 H617 0.950 . S
C641 C640 1.524 . S
C641 C642 1.415 . S
C642 H618 0.950 . S
C642 C637 1.363 . S
C642 C641 1.415 . S
C643 H619 0.951 1_455 S
C643 C644 1.366 . S
C643 C645 1.388 1_455 S
C644 C643 1.366 . S
C644 C648 1.385 . S
C645 H620 0.951 . S
C645 C643 1.388 1_655 S
C645 C646 1.366 1_655 S
C646 C645 1.366 1_455 S
C646 C647 1.414 . S
C646 C649 1.499 . S
C647 H621 0.950 . S
C647 C646 1.414 . S
C647 C648 1.374 . S
C648 H622 0.950 . S
C648 C644 1.385 . S
C648 C647 1.374 . S
C649 C646 1.499 . S
C649 C650 1.373 . S
C649 C651 1.389 1_455 S
C650 H623 0.950 . S
C650 C636 1.377 . S
C650 C649 1.373 . S
C651 C635 1.377 . S
C651 C649 1.389 1_655 S
C651 C652 1.524 . S
C652 C651 1.524 . S
C652 C653 1.397 . S
C652 C657 1.363 . S
C653 H624 0.950 . S
C653 C652 1.397 . S
C653 C654 1.334 . S
C654 H625 0.950 . S
C654 C653 1.334 . S
C654 C655 1.287 . S
C655 C654 1.287 . S
C655 C656 1.524 . S
C655 H658 0.999 . S
C656 H626 0.950 . S
C656 C655 1.524 . S
C656 C657 1.415 . S
C657 H627 0.950 . S
C657 C652 1.363 . S
C657 C656 1.415 . S
H658 C655 0.999 . S
H659 C640 0.913 . S
H660 C678 0.951 . S
H661 C680 0.951 . S
H662 C682 0.950 . S
H663 C683 0.950 . S
H664 C685 0.950 . S
H665 C688 0.950 . S
H666 C689 0.950 . S
H667 C691 0.950 . S
H668 C692 0.950 . S
H669 C693 0.951 . S
H670 C695 0.951 . S
H671 C697 0.950 . S
H672 C698 0.950 . S
H673 C700 0.950 . S
H674 C703 0.950 . S
H675 C704 0.950 . S
H676 C706 0.950 . S
H677 C707 0.950 . S
C678 H660 0.951 . S
C678 C679 1.366 . S
C678 C680 1.388 . S
C679 C678 1.366 . S
C679 C683 1.385 . S
C680 H661 0.951 . S
C680 C678 1.388 . S
C680 C681 1.366 . S
C681 C680 1.366 . S
C681 C682 1.414 . S
C681 C684 1.499 . S
C682 H662 0.950 . S
C682 C681 1.414 . S
C682 C683 1.374 . S
C683 H663 0.950 . S
C683 C679 1.385 . S
C683 C682 1.374 . S
C684 C681 1.499 . S
C684 C685 1.373 1_655 S
C684 C686 1.389 . S
C685 H664 0.950 . S
C685 C684 1.373 1_455 S
C685 C701 1.377 . S
C686 C684 1.389 . S
C686 C687 1.524 . S
C686 C700 1.377 . S
C687 C686 1.524 . S
C687 C688 1.397 . S
C687 C692 1.363 . S
C688 H665 0.950 . S
C688 C687 1.397 . S
C688 C689 1.334 . S
C689 H666 0.950 . S
C689 C688 1.334 . S
C689 C690 1.287 . S
C690 C689 1.287 . S
C690 C691 1.524 . S
C690 H709 0.913 . S
C691 H667 0.950 . S
C691 C690 1.524 . S
C691 C692 1.415 . S
C692 H668 0.950 . S
C692 C687 1.363 . S
C692 C691 1.415 . S
C693 H669 0.951 . S
C693 C694 1.366 . S
C693 C695 1.388 . S
C694 C693 1.366 . S
C694 C698 1.385 . S
C695 H670 0.951 . S
C695 C693 1.388 . S
C695 C696 1.366 . S
C696 C695 1.366 . S
C696 C697 1.414 . S
C696 C699 1.499 . S
C697 H671 0.950 . S
C697 C696 1.414 . S
C697 C698 1.374 . S
C698 H672 0.950 . S
C698 C694 1.385 . S
C698 C697 1.374 . S
C699 C696 1.499 . S
C699 C700 1.373 1_455 S
C699 C701 1.389 . S
C700 H673 0.950 . S
C700 C686 1.377 . S
C700 C699 1.373 1_655 S
C701 C685 1.377 . S
C701 C699 1.389 . S
C701 C702 1.524 . S
C702 C701 1.524 . S
C702 C703 1.397 . S
C702 C707 1.363 . S
C703 H674 0.950 . S
C703 C702 1.397 . S
C703 C704 1.334 . S
C704 H675 0.950 . S
C704 C703 1.334 . S
C704 C705 1.287 . S
C705 C704 1.287 . S
C705 C706 1.524 . S
C705 H708 0.999 . S
C706 H676 0.950 . S
C706 C705 1.524 . S
C706 C707 1.415 . S
C707 H677 0.950 . S
C707 C702 1.363 . S
C707 C706 1.415 . S
H708 C705 0.999 . S
H709 C690 0.913 . S
H710 C728 0.951 . S
H711 C730 0.951 . S
H712 C732 0.950 . S
H713 C733 0.950 1_655 S
H714 C735 0.950 . S
H715 C738 0.950 . S
H716 C739 0.950 . S
H717 C741 0.950 . S
H718 C742 0.950 1_455 S
H719 C743 0.951 . S
H720 C745 0.951 . S
H721 C747 0.950 . S
H722 C748 0.950 1_455 S
H723 C750 0.950 . S
H724 C753 0.950 . S
H725 C754 0.950 . S
H726 C756 0.950 . S
H727 C757 0.950 1_655 S
C728 H710 0.951 . S
C728 C729 1.366 . S
C728 C730 1.388 . S
C729 C728 1.366 . S
C729 C733 1.385 . S
C730 H711 0.951 . S
C730 C728 1.388 . S
C730 C731 1.366 . S
C731 C730 1.366 . S
C731 C732 1.414 1_455 S
C731 C734 1.499 . S
C732 H712 0.950 . S
C732 C731 1.414 1_655 S
C732 C733 1.374 1_655 S
C733 H713 0.950 1_455 S
C733 C729 1.385 . S
C733 C732 1.374 1_455 S
C734 C731 1.499 . S
C734 C735 1.373 . S
C734 C736 1.389 1_455 S
C735 H714 0.950 . S
C735 C734 1.373 . S
C735 C751 1.377 . S
C736 C734 1.389 1_655 S
C736 C737 1.524 . S
C736 C750 1.377 . S
C737 C736 1.524 . S
C737 C738 1.397 . S
C737 C742 1.363 . S
C738 H715 0.950 . S
C738 C737 1.397 . S
C738 C739 1.334 . S
C739 H716 0.950 . S
C739 C738 1.334 . S
C739 C740 1.287 . S
C740 C739 1.287 . S
C740 C741 1.524 . S
C740 H759 0.913 . S
C741 H717 0.950 . S
C741 C740 1.524 . S
C741 C742 1.415 . S
C742 H718 0.950 1_655 S
C742 C737 1.363 . S
C742 C741 1.415 . S
C743 H719 0.951 . S
C743 C744 1.366 . S
C743 C745 1.388 . S
C744 C743 1.366 . S
C744 C748 1.385 . S
C745 H720 0.951 . S
C745 C743 1.388 . S
C745 C746 1.366 . S
C746 C745 1.366 . S
C746 C747 1.414 1_655 S
C746 C749 1.499 . S
C747 H721 0.950 . S
C747 C746 1.414 1_455 S
C747 C748 1.374 1_455 S
C748 H722 0.950 1_655 S
C748 C744 1.385 . S
C748 C747 1.374 1_655 S
C749 C746 1.499 . S
C749 C750 1.373 . S
C749 C751 1.389 1_655 S
C750 H723 0.950 . S
C750 C736 1.377 . S
C750 C749 1.373 . S
C751 C735 1.377 . S
C751 C749 1.389 1_455 S
C751 C752 1.524 . S
C752 C751 1.524 . S
C752 C753 1.397 . S
C752 C757 1.363 . S
C753 H724 0.950 . S
C753 C752 1.397 . S
C753 C754 1.334 . S
C754 H725 0.950 . S
C754 C753 1.334 . S
C754 C755 1.287 . S
C755 C754 1.287 . S
C755 C756 1.524 . S
C755 H758 0.999 . S
C756 H726 0.950 . S
C756 C755 1.524 . S
C756 C757 1.415 . S
C757 H727 0.950 1_455 S
C757 C752 1.363 . S
C757 C756 1.415 . S
H758 C755 0.999 . S
H759 C740 0.913 . S
C179 C59 1.534 . S
C194 C10 1.534 . S
C229 C99 1.534 . S
C244 C130 1.534 . S
C279 C19 1.534 . S
C294 C50 1.535 . S
C329 C139 1.534 . S
C344 C90 1.534 . S
C379 C122 1.539 . S
C394 C2 1.535 . S
C429 C47 0.904 . S
C444 C87 0.899 . S
C479 C51 1.538 . S
C494 C91 1.543 . S
C529 C136 0.904 . S
C544 C16 0.909 . S
C579 C42 1.539 . S
C594 C82 1.535 . S
C629 C127 0.904 . S
C644 C7 0.900 . S
C679 C131 1.538 . S
C694 C11 1.542 . S
C729 C96 0.904 . S
C744 C56 0.909 . S
