# Generated by pormake.
# Topology lcy-e, (6)-cn, num edge types: 1
# Building blocks:
#     Node 0, Type 0, BuildingBlock: CIFDUS_clean_sbu_1, # of connection points: 6
#     Node 1, Type 0, BuildingBlock: CIFDUS_clean_sbu_1, # of connection points: 6
#     Node 2, Type 0, BuildingBlock: CIFDUS_clean_sbu_1, # of connection points: 6
#     Node 3, Type 0, BuildingBlock: CIFDUS_clean_sbu_1, # of connection points: 6
#     Node 4, Type 0, BuildingBlock: CIFDUS_clean_sbu_1, # of connection points: 6
#     Node 5, Type 0, BuildingBlock: CIFDUS_clean_sbu_1, # of connection points: 6
#     Node 6, Type 0, BuildingBlock: CIFDUS_clean_sbu_1, # of connection points: 6
#     Node 7, Type 0, BuildingBlock: CIFDUS_clean_sbu_1, # of connection points: 6
#     Node 8, Type 0, BuildingBlock: CIFDUS_clean_sbu_1, # of connection points: 6
#     Node 9, Type 0, BuildingBlock: CIFDUS_clean_sbu_1, # of connection points: 6
#     Node 10, Type 0, BuildingBlock: CIFDUS_clean_sbu_1, # of connection points: 6
#     Node 11, Type 0, BuildingBlock: CIFDUS_clean_sbu_1, # of connection points: 6
#     Edge 12, Type (0, 0), BuildingBlock: XIVTED_clean_linker_0, # of connection points: 2
#     Edge 13, Type (0, 0), BuildingBlock: XIVTED_clean_linker_0, # of connection points: 2
#     Edge 14, Type (0, 0), BuildingBlock: XIVTED_clean_linker_0, # of connection points: 2
#     Edge 15, Type (0, 0), BuildingBlock: XIVTED_clean_linker_0, # of connection points: 2
#     Edge 16, Type (0, 0), BuildingBlock: XIVTED_clean_linker_0, # of connection points: 2
#     Edge 17, Type (0, 0), BuildingBlock: XIVTED_clean_linker_0, # of connection points: 2
#     Edge 18, Type (0, 0), BuildingBlock: XIVTED_clean_linker_0, # of connection points: 2
#     Edge 19, Type (0, 0), BuildingBlock: XIVTED_clean_linker_0, # of connection points: 2
#     Edge 20, Type (0, 0), BuildingBlock: XIVTED_clean_linker_0, # of connection points: 2
#     Edge 21, Type (0, 0), BuildingBlock: XIVTED_clean_linker_0, # of connection points: 2
#     Edge 22, Type (0, 0), BuildingBlock: XIVTED_clean_linker_0, # of connection points: 2
#     Edge 23, Type (0, 0), BuildingBlock: XIVTED_clean_linker_0, # of connection points: 2
#     Edge 24, Type (0, 0), BuildingBlock: XIVTED_clean_linker_0, # of connection points: 2
#     Edge 25, Type (0, 0), BuildingBlock: XIVTED_clean_linker_0, # of connection points: 2
#     Edge 26, Type (0, 0), BuildingBlock: XIVTED_clean_linker_0, # of connection points: 2
#     Edge 27, Type (0, 0), BuildingBlock: XIVTED_clean_linker_0, # of connection points: 2
#     Edge 28, Type (0, 0), BuildingBlock: XIVTED_clean_linker_0, # of connection points: 2
#     Edge 29, Type (0, 0), BuildingBlock: XIVTED_clean_linker_0, # of connection points: 2
#     Edge 30, Type (0, 0), BuildingBlock: XIVTED_clean_linker_0, # of connection points: 2
#     Edge 31, Type (0, 0), BuildingBlock: XIVTED_clean_linker_0, # of connection points: 2
#     Edge 32, Type (0, 0), BuildingBlock: XIVTED_clean_linker_0, # of connection points: 2
#     Edge 33, Type (0, 0), BuildingBlock: XIVTED_clean_linker_0, # of connection points: 2
#     Edge 34, Type (0, 0), BuildingBlock: XIVTED_clean_linker_0, # of connection points: 2
#     Edge 35, Type (0, 0), BuildingBlock: XIVTED_clean_linker_0, # of connection points: 2
#     Edge 36, Type (0, 0), BuildingBlock: XIVTED_clean_linker_0, # of connection points: 2
#     Edge 37, Type (0, 0), BuildingBlock: XIVTED_clean_linker_0, # of connection points: 2
#     Edge 38, Type (0, 0), BuildingBlock: XIVTED_clean_linker_0, # of connection points: 2
#     Edge 39, Type (0, 0), BuildingBlock: XIVTED_clean_linker_0, # of connection points: 2
#     Edge 40, Type (0, 0), BuildingBlock: XIVTED_clean_linker_0, # of connection points: 2
#     Edge 41, Type (0, 0), BuildingBlock: XIVTED_clean_linker_0, # of connection points: 2
#     Edge 42, Type (0, 0), BuildingBlock: XIVTED_clean_linker_0, # of connection points: 2
#     Edge 43, Type (0, 0), BuildingBlock: XIVTED_clean_linker_0, # of connection points: 2
#     Edge 44, Type (0, 0), BuildingBlock: XIVTED_clean_linker_0, # of connection points: 2
#     Edge 45, Type (0, 0), BuildingBlock: XIVTED_clean_linker_0, # of connection points: 2
#     Edge 46, Type (0, 0), BuildingBlock: XIVTED_clean_linker_0, # of connection points: 2
#     Edge 47, Type (0, 0), BuildingBlock: XIVTED_clean_linker_0, # of connection points: 2
# Relax obj value: 0.274
# Max RMSD: 0.265
# Mean RMSD: 0.265
data_MOF--net-lcy-e--node1-CIFDUS_clean_sbu_1--edge1-XIVTED_clean_linker_0
_symmetry_space_group_name_H-M    P1
_symmetry_Int_Tables_number       1
_symmetry_cell_setting            triclinic
loop_
_symmetry_equiv_pos_as_xyz
'x, y, z'
_cell_length_a     35.943213
_cell_length_b     35.948005
_cell_length_c     35.952503
_cell_angle_alpha  89.999679
_cell_angle_beta   89.988818
_cell_angle_gamma 89.99912
loop_
_atom_site_label
_atom_site_type_symbol
_atom_site_fract_x
_atom_site_fract_y
_atom_site_fract_z
_atom_type_partial_charge
O0 O 0.09151 0.15218 0.43363 0.0
Mn1 Mn 0.12618 0.19729 0.44557 0.0
O2 O 0.03464 0.17837 0.42799 0.0
Mn3 Mn 0.04785 0.22831 0.42467 0.0
O4 O 0.15964 0.2434 0.46023 0.0
O5 O 0.15733 0.16374 0.47663 0.0
Mn6 Mn 0.20466 0.17544 0.4755 0.0
O7 O 0.16038 0.18556 0.40001 0.0
O8 O 0.20386 0.22104 0.49856 0.0
O9 O 0.09304 0.2118 0.49208 0.0
O10 O 0.0499 0.25162 0.47009 0.0
O11 O 0.20069 0.1293 0.4988 0.0
O12 O 0.2174 0.17793 0.42544 0.0
C13 C 0.08672 0.24241 0.38077 0.0
C14 C 0.05589 0.15002 0.43079 0.0
C15 C 0.18525 0.24805 0.48507 0.0
C16 C 0.16562 0.13235 0.49146 0.0
C17 C 0.19589 0.18164 0.3974 0.0
C18 C 0.0682 0.23742 0.49697 0.0
O19 O 0.09512 0.22918 0.41281 0.0
O20 O 0.05173 0.25007 0.37772 0.0
O21 O 0.10251 0.84321 0.68634 0.0
Mn22 Mn 0.05693 0.87732 0.69799 0.0
O23 O 0.07722 0.78619 0.67805 0.0
Mn24 Mn 0.02713 0.79905 0.67637 0.0
O25 O 0.01044 0.91045 0.71237 0.0
O26 O 0.08957 0.90835 0.73 0.0
Mn27 Mn 0.07808 0.9557 0.72889 0.0
O28 O 0.06907 0.91191 0.65293 0.0
O29 O 0.03238 0.95408 0.75173 0.0
O30 O 0.04235 0.84396 0.74423 0.0
O31 O 0.00431 0.79953 0.72205 0.0
O32 O 0.12477 0.9515 0.75117 0.0
O33 O 0.07533 0.9688 0.67891 0.0
C34 C 0.00927 0.83737 0.63356 0.0
C35 C 0.10519 0.80779 0.68193 0.0
C36 C 0.00552 0.93566 0.73762 0.0
C37 C 0.12151 0.91651 0.74361 0.0
C38 C 0.0723 0.94748 0.65065 0.0
C39 C 0.01769 0.81822 0.749 0.0
O40 O 0.02603 0.84622 0.6639 0.0
O41 O 0.00203 0.8022 0.63132 0.0
O42 O 0.34186 0.81668 0.90263 0.0
Mn43 Mn 0.37601 0.80434 0.94793 0.0
O44 O 0.28471 0.8217 0.92813 0.0
Mn45 Mn 0.2975 0.82582 0.97811 0.0
O46 O 0.40926 0.78939 0.99417 0.0
O47 O 0.40701 0.77316 0.91426 0.0
Mn48 Mn 0.45423 0.77376 0.92639 0.0
O49 O 0.41056 0.84962 0.93637 0.0
O50 O 0.45289 0.75043 0.97179 0.0
O51 O 0.34241 0.75814 0.96241 0.0
O52 O 0.29914 0.78065 0.00191 0.0
O53 O 0.45051 0.75046 0.8803 0.0
O54 O 0.46744 0.82373 0.92912 0.0
C55 C 0.33659 0.86983 0.99111 0.0
C56 C 0.30628 0.81917 0.90005 0.0
C57 C 0.43447 0.76413 0.99881 0.0
C58 C 0.41547 0.75814 0.88299 0.0
C59 C 0.44609 0.85194 0.93264 0.0
C60 C 0.31743 0.75357 0.98801 0.0
O61 O 0.34499 0.837 0.97997 0.0
O62 O 0.30152 0.87352 0.99811 0.0
O63 O 0.43458 0.09094 0.14962 0.0
Mn64 Mn 0.44666 0.12493 0.19513 0.0
O65 O 0.42765 0.03379 0.17499 0.0
Mn66 Mn 0.42505 0.04641 0.22512 0.0
O67 O 0.46105 0.15759 0.24183 0.0
O68 O 0.47823 0.15608 0.16184 0.0
Mn69 Mn 0.47782 0.2031 0.17474 0.0
O70 O 0.40159 0.15975 0.18354 0.0
O71 O 0.50025 0.20148 0.22059 0.0
O72 O 0.49286 0.09138 0.20935 0.0
O73 O 0.47071 0.04744 0.24813 0.0
O74 O 0.50284 0.1999 0.12956 0.0
O75 O 0.42786 0.2165 0.17647 0.0
C76 C 0.38182 0.08541 0.24097 0.0
C77 C 0.43097 0.05543 0.14699 0.0
C78 C 0.48611 0.18281 0.24717 0.0
C79 C 0.49497 0.16486 0.13151 0.0
C80 C 0.39949 0.19531 0.17985 0.0
C81 C 0.49766 0.06594 0.23435 0.0
O82 O 0.41328 0.09371 0.22632 0.0
O83 O 0.3788 0.05034 0.2483 0.0
O84 O 0.65699 0.31484 0.59958 0.0
Mn85 Mn 0.62276 0.30338 0.55407 0.0
O86 O 0.71394 0.32192 0.57384 0.0
Mn87 Mn 0.70099 0.32581 0.52389 0.0
O88 O 0.58968 0.28921 0.5076 0.0
O89 O 0.592 0.27118 0.58685 0.0
Mn90 Mn 0.5447 0.27171 0.57513 0.0
O91 O 0.58783 0.34818 0.56643 0.0
O92 O 0.54625 0.24948 0.52914 0.0
O93 O 0.65654 0.25762 0.53892 0.0
O94 O 0.69984 0.28068 0.4999 0.0
O95 O 0.54906 0.24787 0.621 0.0
O96 O 0.53121 0.32163 0.57334 0.0
C97 C 0.66169 0.36934 0.50981 0.0
C98 C 0.69254 0.31815 0.60197 0.0
C99 C 0.56461 0.26391 0.50243 0.0
C100 C 0.584 0.25586 0.61805 0.0
C101 C 0.55226 0.35011 0.57016 0.0
C102 C 0.68172 0.25338 0.51353 0.0
O103 O 0.65359 0.33721 0.52305 0.0
O104 O 0.6967 0.37284 0.50242 0.0
O105 O 0.93451 0.41057 0.84648 0.0
Mn106 Mn 0.94686 0.3744 0.80257 0.0
O107 O 0.92777 0.46629 0.81806 0.0
Mn108 Mn 0.92639 0.45123 0.76859 0.0
O109 O 0.96162 0.34007 0.75711 0.0
O110 O 0.9779 0.34431 0.83744 0.0
Mn111 Mn 0.97755 0.29697 0.82557 0.0
O112 O 0.90153 0.34013 0.81503 0.0
O113 O 0.00064 0.29696 0.78002 0.0
O114 O 0.99355 0.40711 0.78779 0.0
O115 O 0.97226 0.44875 0.74627 0.0
O116 O 0.00218 0.30099 0.87078 0.0
O117 O 0.92763 0.28352 0.82366 0.0
C118 C 0.8831 0.41255 0.75294 0.0
C119 C 0.93079 0.44623 0.84729 0.0
C120 C 0.98677 0.31476 0.75274 0.0
C121 C 0.99444 0.33602 0.86805 0.0
C122 C 0.89932 0.30465 0.81957 0.0
C123 C 0.99889 0.43103 0.76148 0.0
O124 O 0.9135 0.40428 0.76984 0.0
O125 O 0.88124 0.44727 0.74372 0.0
O126 O 0.91038 0.65094 0.0655 0.0
Mn127 Mn 0.87551 0.69596 0.05372 0.0
O128 O 0.96696 0.67741 0.07311 0.0
Mn129 Mn 0.95325 0.72726 0.0749 0.0
O130 O 0.84188 0.74208 0.03914 0.0
O131 O 0.84486 0.66256 0.022 0.0
Mn132 Mn 0.7975 0.67411 0.02274 0.0
O133 O 0.84097 0.68363 0.09883 0.0
O134 O 0.79892 0.71958 0.99946 0.0
O135 O 0.90866 0.7107 0.00732 0.0
O136 O 0.95205 0.75002 0.02925 0.0
O137 O 0.80173 0.62754 0.00036 0.0
O138 O 0.78418 0.67705 0.07266 0.0
C139 C 0.91494 0.74433 0.11799 0.0
C140 C 0.94593 0.64896 0.06951 0.0
C141 C 0.81699 0.74667 0.01353 0.0
C142 C 0.83671 0.63073 0.00803 0.0
C143 C 0.80538 0.68023 0.10101 0.0
C144 C 0.93376 0.73598 0.00237 0.0
O145 O 0.90617 0.72747 0.08768 0.0
O146 O 0.94999 0.75226 0.11997 0.0
O147 O 0.59911 0.65989 0.31726 0.0
Mn148 Mn 0.55397 0.62545 0.3048 0.0
O149 O 0.57314 0.71664 0.32495 0.0
Mn150 Mn 0.52314 0.70349 0.32714 0.0
O151 O 0.50788 0.59208 0.28963 0.0
O152 O 0.58763 0.59479 0.27332 0.0
Mn153 Mn 0.57593 0.54746 0.27378 0.0
O154 O 0.56558 0.59066 0.34986 0.0
O155 O 0.53053 0.54882 0.25036 0.0
O156 O 0.53954 0.65923 0.25879 0.0
O157 O 0.50044 0.70272 0.28139 0.0
O158 O 0.62232 0.55172 0.25102 0.0
O159 O 0.57288 0.53396 0.32366 0.0
C160 C 0.50749 0.66377 0.36972 0.0
C161 C 0.60139 0.69538 0.32133 0.0
C162 C 0.50339 0.56701 0.26418 0.0
C163 C 0.6192 0.58669 0.25875 0.0
C164 C 0.56916 0.55511 0.35198 0.0
C165 C 0.5144 0.68461 0.25426 0.0
O166 O 0.52216 0.65603 0.33813 0.0
O167 O 0.49991 0.69873 0.37327 0.0
O168 O 0.18522 0.40123 0.15934 0.0
Mn169 Mn 0.19749 0.44682 0.12548 0.0
O170 O 0.17801 0.42635 0.21652 0.0
Mn171 Mn 0.17537 0.4765 0.204 0.0
O172 O 0.21257 0.49327 0.09255 0.0
O173 O 0.22908 0.4137 0.09444 0.0
Mn174 Mn 0.22847 0.42555 0.04719 0.0
O175 O 0.15238 0.43547 0.09063 0.0
O176 O 0.25179 0.47097 0.049 0.0
O177 O 0.24358 0.46104 0.15931 0.0
O178 O 0.22096 0.49955 0.20331 0.0
O179 O 0.25092 0.37897 0.0512 0.0
O180 O 0.17858 0.42876 0.03386 0.0
C181 C 0.13238 0.49226 0.16476 0.0
C182 C 0.18146 0.39843 0.19481 0.0
C183 C 0.23795 0.49796 0.06742 0.0
C184 C 0.2432 0.38199 0.08618 0.0
C185 C 0.15026 0.43224 0.05505 0.0
C186 C 0.24809 0.48595 0.18493 0.0
O187 O 0.16413 0.47813 0.15659 0.0
O188 O 0.12899 0.49932 0.19984 0.0
O189 O 0.68449 0.09667 0.83867 0.0
Mn190 Mn 0.6969 0.0519 0.8735 0.0
O191 O 0.6788 0.07029 0.78194 0.0
Mn192 Mn 0.676 0.02037 0.79535 0.0
O193 O 0.71195 0.00612 0.90732 0.0
O194 O 0.72769 0.08608 0.90431 0.0
Mn195 Mn 0.72684 0.07452 0.95167 0.0
O196 O 0.65129 0.0634 0.90763 0.0
O197 O 0.75039 0.02917 0.95107 0.0
O198 O 0.74343 0.03759 0.84039 0.0
O199 O 0.72169 0.99754 0.7973 0.0
O200 O 0.74972 0.12082 0.94752 0.0
O201 O 0.6768 0.07156 0.96454 0.0
C202 C 0.63239 0.00613 0.83453 0.0
C203 C 0.68146 0.09872 0.80308 0.0
C204 C 0.73694 0.00187 0.93287 0.0
C205 C 0.74232 0.11761 0.91248 0.0
C206 C 0.64877 0.06747 0.94309 0.0
C207 C 0.74848 0.01198 0.81557 0.0
O208 O 0.66445 0.01945 0.84271 0.0
O209 O 0.62918 0.99835 0.79959 0.0
O210 O 0.81593 0.90194 0.34229 0.0
Mn211 Mn 0.80364 0.94722 0.37663 0.0
O212 O 0.82242 0.92784 0.28533 0.0
Mn213 Mn 0.82468 0.97789 0.29829 0.0
O214 O 0.78859 0.99352 0.40973 0.0
O215 O 0.77254 0.91362 0.40774 0.0
Mn216 Mn 0.7731 0.92574 0.45493 0.0
O217 O 0.84903 0.936 0.4112 0.0
O218 O 0.74962 0.97109 0.45335 0.0
O219 O 0.75716 0.96112 0.34327 0.0
O220 O 0.77887 0.0005 0.29965 0.0
O221 O 0.75016 0.87941 0.45116 0.0
O222 O 0.82306 0.92887 0.46806 0.0
C223 C 0.86798 0.99386 0.33708 0.0
C224 C 0.81936 0.89963 0.30674 0.0
C225 C 0.76325 0.99813 0.43487 0.0
C226 C 0.75778 0.88222 0.41613 0.0
C227 C 0.85128 0.93255 0.44676 0.0
C228 C 0.75206 0.98624 0.31799 0.0
O229 O 0.83666 0.97893 0.34551 0.0
O230 O 0.87073 0.00142 0.30203 0.0
O231 O 0.3472 0.56684 0.59023 0.0
Mn232 Mn 0.30282 0.55588 0.62606 0.0
O233 O 0.32015 0.57063 0.53366 0.0
Mn234 Mn 0.27038 0.574 0.54754 0.0
O235 O 0.25747 0.54223 0.6609 0.0
O236 O 0.33725 0.52638 0.65786 0.0
Mn237 Mn 0.32664 0.52981 0.70538 0.0
O238 O 0.31476 0.60291 0.658 0.0
O239 O 0.28091 0.50695 0.70708 0.0
O240 O 0.28808 0.5081 0.59491 0.0
O241 O 0.24752 0.52847 0.55159 0.0
O242 O 0.37242 0.50584 0.70147 0.0
O243 O 0.3249 0.58044 0.71587 0.0
C244 C 0.25676 0.61892 0.58542 0.0
C245 C 0.34885 0.56863 0.55453 0.0
C246 C 0.25349 0.51902 0.6881 0.0
C247 C 0.36865 0.51152 0.66617 0.0
C248 C 0.3202 0.60727 0.69307 0.0
C249 C 0.26213 0.50229 0.5706 0.0
O250 O 0.27003 0.58709 0.59445 0.0
O251 O 0.24857 0.62104 0.5505 0.0
H252 H 0.15205 0.31496 0.46751 0.0
H253 H 0.29315 0.43534 0.59209 0.0
H254 H 0.24059 0.26734 0.53342 0.0
H255 H 0.20213 0.48204 0.529 0.0
H256 H 0.27316 0.37305 0.57262 0.0
H257 H 0.16933 0.3766 0.49086 0.0
C258 C 0.17508 0.31741 0.48678 0.0
C259 C 0.1949 0.28587 0.49833 0.0
C260 C 0.25755 0.39702 0.5632 0.0
C261 C 0.21479 0.3562 0.52527 0.0
C262 C 0.2689 0.43253 0.57442 0.0
C263 C 0.24959 0.46402 0.56191 0.0
C264 C 0.22668 0.39308 0.53939 0.0
C265 C 0.21827 0.45868 0.53903 0.0
C266 C 0.1849 0.35258 0.5002 0.0
C267 C 0.22445 0.29077 0.52358 0.0
N268 N 0.20796 0.42402 0.52841 0.0
N269 N 0.23349 0.32519 0.53609 0.0
H270 H 0.76779 0.95609 0.76796 0.0
H271 H 0.98631 0.98652 0.79064 0.0
H272 H 0.81595 0.03856 0.84095 0.0
H273 H 0.93806 0.90736 0.71412 0.0
H274 H 0.92439 0.00392 0.81107 0.0
H275 H 0.82979 0.93625 0.75011 0.0
C276 C 0.7914 0.97013 0.78034 0.0
C277 C 0.7865 0.99935 0.80592 0.0
C278 C 0.92725 0.98273 0.78985 0.0
C279 C 0.858 0.97639 0.78536 0.0
C280 C 0.9627 0.97268 0.77804 0.0
C281 C 0.96755 0.94544 0.75034 0.0
C282 C 0.89613 0.9655 0.77399 0.0
C283 C 0.93573 0.92853 0.73541 0.0
C284 C 0.82689 0.95865 0.77005 0.0
C285 C 0.81832 0.01605 0.82109 0.0
N286 N 0.90134 0.93891 0.74739 0.0
N287 N 0.85275 0.00439 0.81047 0.0
H288 H 0.2692 0.73533 0.04377 0.0
H289 H 0.29223 0.51634 0.01762 0.0
H290 H 0.34305 0.68558 0.963 0.0
H291 H 0.21424 0.56589 0.09454 0.0
H292 H 0.31308 0.57791 0.99965 0.0
H293 H 0.25115 0.67374 0.06464 0.0
C294 C 0.28173 0.71146 0.03032 0.0
C295 C 0.30761 0.7158 0.00126 0.0
C296 C 0.29145 0.57542 0.02048 0.0
C297 C 0.2868 0.64476 0.02541 0.0
C298 C 0.27939 0.54016 0.03086 0.0
C299 C 0.25112 0.53577 0.0576 0.0
C300 C 0.27528 0.60683 0.03687 0.0
C301 C 0.23596 0.56787 0.07377 0.0
C302 C 0.27131 0.6762 0.04239 0.0
C303 C 0.32295 0.68365 0.98534 0.0
N304 N 0.24818 0.60209 0.06305 0.0
N305 N 0.3122 0.64946 0.99757 0.0
H306 H 0.56514 0.09382 0.21057 0.0
H307 H 0.68462 0.96109 0.34497 0.0
H308 H 0.51672 0.0155 0.28786 0.0
H309 H 0.73267 0.03977 0.26781 0.0
H310 H 0.62255 0.98176 0.32562 0.0
H311 H 0.62703 0.07539 0.23238 0.0
C312 C 0.56745 0.07285 0.23209 0.0
C313 C 0.53561 0.05612 0.24718 0.0
C314 C 0.64677 0.99448 0.31302 0.0
C315 C 0.60624 0.03489 0.27231 0.0
C316 C 0.68219 0.98268 0.32409 0.0
C317 C 0.71399 0.99849 0.30792 0.0
C318 C 0.6432 0.02227 0.28563 0.0
C319 C 0.70907 0.02651 0.281 0.0
C320 C 0.60278 0.06232 0.24455 0.0
C321 C 0.54038 0.02911 0.27515 0.0
N322 N 0.67446 0.03737 0.2707 0.0
N323 N 0.57494 0.01934 0.2867 0.0
H324 H 0.73141 0.2355 0.45888 0.0
H325 H 0.70803 0.01631 0.48369 0.0
H326 H 0.65566 0.18525 0.53755 0.0
H327 H 0.78736 0.06616 0.40836 0.0
H328 H 0.68676 0.07783 0.50141 0.0
H329 H 0.75004 0.17398 0.43815 0.0
C330 C 0.71858 0.21154 0.47188 0.0
C331 C 0.69197 0.2157 0.5003 0.0
C332 C 0.70878 0.07542 0.48099 0.0
C333 C 0.71343 0.14479 0.47633 0.0
C334 C 0.72109 0.04019 0.47077 0.0
C335 C 0.74985 0.0359 0.44456 0.0
C336 C 0.72522 0.1069 0.46499 0.0
C337 C 0.76526 0.06806 0.42873 0.0
C338 C 0.72932 0.17633 0.45989 0.0
C339 C 0.6763 0.18346 0.51569 0.0
N340 N 0.75281 0.10224 0.43929 0.0
N341 N 0.68737 0.14935 0.50356 0.0
H342 H 0.01849 0.46966 0.69938 0.0
H343 H 0.23506 0.47516 0.7474 0.0
H344 H 0.0661 0.41496 0.79517 0.0
H345 H 0.18633 0.53175 0.65323 0.0
H346 H 0.17402 0.45154 0.76424 0.0
H347 H 0.08009 0.49024 0.68095 0.0
C348 C 0.04195 0.46186 0.7166 0.0
C349 C 0.03697 0.44078 0.74918 0.0
C350 C 0.1766 0.46911 0.73991 0.0
C351 C 0.10801 0.46454 0.72797 0.0
C352 C 0.21153 0.48274 0.73018 0.0
C353 C 0.21597 0.50564 0.69875 0.0
C354 C 0.14565 0.4783 0.71811 0.0
C355 C 0.18429 0.51436 0.67773 0.0
C356 C 0.0772 0.47369 0.70595 0.0
C357 C 0.06859 0.4312 0.76993 0.0
N358 N 0.15047 0.50065 0.6878 0.0
N359 N 0.10279 0.44336 0.75907 0.0
H360 H 0.78936 0.98399 0.98488 0.0
H361 H 0.76973 0.76481 0.95698 0.0
H362 H 0.7149 0.93372 0.90502 0.0
H363 H 0.84142 0.8148 0.03949 0.0
H364 H 0.75144 0.82633 0.93615 0.0
H365 H 0.81033 0.92256 0.00339 0.0
C366 C 0.77733 0.96005 0.97111 0.0
C367 C 0.75004 0.96419 0.94334 0.0
C368 C 0.77119 0.82395 0.95877 0.0
C369 C 0.77432 0.89333 0.9647 0.0
C370 C 0.78173 0.78873 0.97083 0.0
C371 C 0.80707 0.78446 0.00035 0.0
C372 C 0.78599 0.85545 0.97624 0.0
C373 C 0.82176 0.81667 0.01676 0.0
C374 C 0.78945 0.92488 0.9818 0.0
C375 C 0.73584 0.93195 0.92658 0.0
N376 N 0.81089 0.85084 0.00454 0.0
N377 N 0.74811 0.89786 0.9376 0.0
H378 H 0.48535 0.51932 0.20793 0.0
H379 H 0.26623 0.53861 0.23652 0.0
H380 H 0.43526 0.59153 0.28993 0.0
H381 H 0.31617 0.46362 0.15693 0.0
H382 H 0.32768 0.55978 0.25454 0.0
H383 H 0.42381 0.50065 0.18737 0.0
C384 C 0.46141 0.53136 0.22171 0.0
C385 C 0.46564 0.55697 0.25102 0.0
C386 C 0.3253 0.53873 0.23313 0.0
C387 C 0.39467 0.53544 0.22724 0.0
C388 C 0.29011 0.52648 0.22272 0.0
C389 C 0.28585 0.499 0.19517 0.0
C390 C 0.35679 0.52354 0.21596 0.0
C391 C 0.31803 0.48471 0.17834 0.0
C392 C 0.42619 0.5206 0.20981 0.0
C393 C 0.43342 0.57169 0.26736 0.0
N394 N 0.35218 0.49711 0.18908 0.0
N395 N 0.39927 0.56059 0.25531 0.0
H396 H 0.46047 0.15549 0.31418 0.0
H397 H 0.59314 0.28818 0.43542 0.0
H398 H 0.5402 0.23218 0.2671 0.0
H399 H 0.51417 0.21075 0.48258 0.0
H400 H 0.57517 0.26688 0.37323 0.0
H401 H 0.48098 0.17416 0.37644 0.0
C402 C 0.48227 0.17611 0.31687 0.0
C403 C 0.4984 0.19239 0.2853 0.0
C404 C 0.56186 0.25456 0.39728 0.0
C405 C 0.52198 0.21392 0.3563 0.0
C406 C 0.57212 0.26675 0.43277 0.0
C407 C 0.55507 0.25145 0.46434 0.0
C408 C 0.53439 0.22691 0.3934 0.0
C409 C 0.52803 0.2236 0.45915 0.0
C410 C 0.49398 0.18681 0.3524 0.0
C411 C 0.52668 0.21897 0.29053 0.0
N412 N 0.51852 0.21234 0.42445 0.0
N413 N 0.53744 0.22893 0.32526 0.0
H414 H 0.0222 0.29479 0.51573 0.0
H415 H 0.03805 0.26171 0.73449 0.0
H416 H 0.09154 0.20976 0.5648 0.0
H417 H 0.96562 0.34381 0.68486 0.0
H418 H 0.05949 0.24401 0.67295 0.0
H419 H 0.00339 0.31456 0.57744 0.0
C420 C 0.03358 0.28018 0.53949 0.0
C421 C 0.05838 0.25024 0.53491 0.0
C422 C 0.03894 0.2659 0.67544 0.0
C423 C 0.03669 0.27311 0.60611 0.0
C424 C 0.02655 0.27612 0.71066 0.0
C425 C 0.99974 0.30433 0.71501 0.0
C426 C 0.02457 0.28393 0.64406 0.0
C427 C 0.98617 0.32188 0.68293 0.0
C428 C 0.02274 0.29162 0.57482 0.0
C429 C 0.07232 0.23285 0.56692 0.0
N430 N 0.99871 0.31135 0.64879 0.0
N431 N 0.06115 0.24447 0.60121 0.0
H432 H 0.04063 0.84631 0.81671 0.0
H433 H 0.90737 0.711 0.93466 0.0
H434 H 0.96463 0.76719 0.76757 0.0
H435 H 0.98302 0.79057 0.98362 0.0
H436 H 0.92667 0.73247 0.87285 0.0
H437 H 0.01858 0.82741 0.8784 0.0
C438 C 0.01935 0.82508 0.81882 0.0
C439 C 0.0047 0.80824 0.78684 0.0
C440 C 0.93894 0.74521 0.89722 0.0
C441 C 0.97931 0.78648 0.8572 0.0
C442 C 0.9279 0.73295 0.93248 0.0
C443 C 0.94369 0.74875 0.96445 0.0
C444 C 0.96592 0.77345 0.89399 0.0
C445 C 0.97016 0.77727 0.95987 0.0
C446 C 0.00674 0.81427 0.85402 0.0
C447 C 0.97701 0.78089 0.79134 0.0
N448 N 0.98046 0.78857 0.92541 0.0
N449 N 0.96534 0.77085 0.82576 0.0
H450 H 0.4611 0.73554 0.23604 0.0
H451 H 0.48297 0.70865 0.01704 0.0
H452 H 0.53771 0.6574 0.18625 0.0
H453 H 0.40891 0.78921 0.06682 0.0
H454 H 0.50136 0.68807 0.0786 0.0
H455 H 0.44023 0.7537 0.17453 0.0
C456 C 0.47364 0.72209 0.21218 0.0
C457 C 0.50149 0.6949 0.21649 0.0
C458 C 0.48107 0.7102 0.07616 0.0
C459 C 0.47731 0.71585 0.14551 0.0
C460 C 0.47046 0.72211 0.04092 0.0
C461 C 0.44442 0.75102 0.03659 0.0
C462 C 0.46562 0.7272 0.10761 0.0
C463 C 0.42912 0.76697 0.06874 0.0
C464 C 0.46157 0.73257 0.17696 0.0
C465 C 0.51632 0.67851 0.18435 0.0
N466 N 0.44007 0.7549 0.10293 0.0
N467 N 0.50408 0.68932 0.15018 0.0
H468 H 0.07161 0.23127 0.30819 0.0
H469 H 0.22334 0.37725 0.25332 0.0
H470 H 0.15923 0.2668 0.38182 0.0
H471 H 0.13919 0.33705 0.17813 0.0
H472 H 0.21167 0.32435 0.29424 0.0
H473 H 0.10642 0.25578 0.25542 0.0
C474 C 0.09874 0.2435 0.31305 0.0
C475 C 0.11238 0.24771 0.34933 0.0
C476 C 0.19629 0.32644 0.26843 0.0
C477 C 0.15191 0.27687 0.28922 0.0
C478 C 0.20298 0.3566 0.24505 0.0
C479 C 0.1816 0.3617 0.21283 0.0
C480 C 0.1673 0.30171 0.25996 0.0
C481 C 0.15597 0.33415 0.20296 0.0
C482 C 0.11861 0.25753 0.28291 0.0
C483 C 0.14772 0.2633 0.35422 0.0
N484 N 0.14884 0.30573 0.22698 0.0
N485 N 0.16593 0.2782 0.32452 0.0
H486 H 0.99492 0.91291 0.63472 0.0
H487 H 0.87032 0.97456 0.5058 0.0
H488 H 0.00457 0.81873 0.56113 0.0
H489 H 0.91388 0.89149 0.43133 0.0
H490 H 0.92155 0.96336 0.54816 0.0
H491 H 0.97019 0.94972 0.58304 0.0
C492 C 0.9924 0.90023 0.60753 0.0
C493 C 0.001 0.8626 0.60231 0.0
C494 C 0.92113 0.9483 0.52216 0.0
C495 C 0.97092 0.90362 0.54347 0.0
C496 C 0.89159 0.95468 0.49792 0.0
C497 C 0.88767 0.93339 0.46548 0.0
C498 C 0.94669 0.91983 0.51416 0.0
C499 C 0.91588 0.90826 0.45626 0.0
C500 C 0.97766 0.92104 0.57803 0.0
C501 C 0.99734 0.84747 0.56655 0.0
N502 N 0.94375 0.90147 0.48101 0.0
N503 N 0.9821 0.86781 0.53872 0.0
H504 H 0.27045 0.63555 0.74161 0.0
H505 H 0.34097 0.73996 0.8839 0.0
H506 H 0.37165 0.6622 0.68349 0.0
H507 H 0.43291 0.76216 0.81027 0.0
H508 H 0.30508 0.71701 0.83112 0.0
H509 H 0.28164 0.68676 0.78435 0.0
C510 C 0.29458 0.65313 0.73735 0.0
C511 C 0.32043 0.64465 0.70942 0.0
C512 C 0.33276 0.72743 0.82597 0.0
C513 C 0.3349 0.70217 0.75953 0.0
C514 C 0.35315 0.74087 0.85636 0.0
C515 C 0.39007 0.75221 0.85142 0.0
C516 C 0.34983 0.72508 0.79062 0.0
C517 C 0.40471 0.75282 0.81531 0.0
C518 C 0.30135 0.6822 0.76215 0.0
C519 C 0.35114 0.66796 0.70478 0.0
N520 N 0.38481 0.7389 0.78649 0.0
N521 N 0.35795 0.69519 0.73014 0.0
H522 H 0.50817 0.08918 0.13217 0.0
H523 H 0.62836 0.0244 0.00084 0.0
H524 H 0.49928 0.18383 0.05912 0.0
H525 H 0.58746 0.1105 0.92837 0.0
H526 H 0.57766 0.0364 0.04362 0.0
H527 H 0.53107 0.05202 0.07999 0.0
C528 C 0.51046 0.1019 0.10498 0.0
C529 C 0.50252 0.1397 0.10003 0.0
C530 C 0.57851 0.05201 0.01797 0.0
C531 C 0.53069 0.09826 0.04054 0.0
C532 C 0.60771 0.0451 0.99346 0.0
C533 C 0.61226 0.06696 0.9615 0.0
C534 C 0.55402 0.08162 0.01075 0.0
C535 C 0.58492 0.09324 0.95291 0.0
C536 C 0.52418 0.08088 0.07516 0.0
C537 C 0.50597 0.15492 0.06429 0.0
N538 N 0.55744 0.10051 0.97795 0.0
N539 N 0.52028 0.13435 0.03614 0.0
H540 H 0.65776 0.23552 0.61513 0.0
H541 H 0.64423 0.16234 0.82361 0.0
H542 H 0.56852 0.2603 0.69129 0.0
H543 H 0.71694 0.1174 0.73952 0.0
H544 H 0.63123 0.21553 0.7826 0.0
H545 H 0.69396 0.21005 0.66725 0.0
C546 C 0.64631 0.23662 0.64297 0.0
C547 C 0.60997 0.24927 0.649 0.0
C548 C 0.65078 0.19446 0.77354 0.0
C549 C 0.65059 0.21995 0.7083 0.0
C550 C 0.65826 0.16428 0.79701 0.0
C551 C 0.68078 0.13516 0.78434 0.0
C552 C 0.66612 0.19528 0.73747 0.0
C553 C 0.69857 0.13897 0.74978 0.0
C554 C 0.6668 0.22193 0.67266 0.0
C555 C 0.59625 0.25005 0.68551 0.0
N556 N 0.69038 0.16811 0.72727 0.0
N557 N 0.61631 0.23503 0.7137 0.0
H558 H 0.1315 0.47412 0.99584 0.0
H559 H 0.00828 0.41164 0.86639 0.0
H560 H 0.08748 0.39145 0.07047 0.0
H561 H 0.99761 0.31818 0.94074 0.0
H562 H 0.03218 0.44898 0.91809 0.0
H563 H 0.08034 0.46298 0.9534 0.0
C564 C 0.11016 0.45433 0.00371 0.0
C565 C 0.11394 0.4331 0.03621 0.0
C566 C 0.02464 0.42034 0.92327 0.0
C567 C 0.05499 0.41961 0.98745 0.0
C568 C 0.01038 0.39924 0.89375 0.0
C569 C 0.00183 0.36164 0.8992 0.0
C570 C 0.03095 0.40324 0.95808 0.0
C571 C 0.00487 0.34688 0.93517 0.0
C572 C 0.08065 0.44799 0.97943 0.0
C573 C 0.08561 0.40813 0.04547 0.0
N574 N 0.01969 0.36748 0.96301 0.0
N575 N 0.05778 0.40135 0.02067 0.0
H576 H 0.77603 0.87917 0.24918 0.0
H577 H 0.83921 0.7578 0.11771 0.0
H578 H 0.86285 0.83843 0.32087 0.0
H579 H 0.93419 0.74832 0.19027 0.0
H580 H 0.80266 0.78161 0.16999 0.0
H581 H 0.78753 0.82832 0.20643 0.0
C582 C 0.79684 0.85857 0.25638 0.0
C583 C 0.81901 0.86319 0.28813 0.0
C584 C 0.83146 0.77438 0.17469 0.0
C585 C 0.83302 0.8047 0.23893 0.0
C586 C 0.85212 0.76015 0.14482 0.0
C587 C 0.88989 0.75189 0.14957 0.0
C588 C 0.84915 0.78095 0.20915 0.0
C589 C 0.90532 0.75531 0.18522 0.0
C590 C 0.80344 0.82927 0.23189 0.0
C591 C 0.84536 0.83586 0.2965 0.0
N592 N 0.88512 0.77006 0.21341 0.0
N593 N 0.85229 0.80825 0.2715 0.0
H594 H 0.41365 0.60394 0.57497 0.0
H595 H 0.48549 0.59053 0.36603 0.0
H596 H 0.36615 0.53368 0.4902 0.0
H597 H 0.51353 0.67798 0.44309 0.0
H598 H 0.45926 0.55449 0.4179 0.0
H599 H 0.46707 0.61573 0.53389 0.0
C600 C 0.415 0.59022 0.54817 0.0
C601 C 0.38512 0.56879 0.53536 0.0
C602 C 0.47204 0.58118 0.42356 0.0
C603 C 0.44559 0.58203 0.48846 0.0
C604 C 0.48717 0.60157 0.39401 0.0
C605 C 0.5009 0.63745 0.40038 0.0
C606 C 0.47072 0.59703 0.45939 0.0
C607 C 0.50243 0.65064 0.43705 0.0
C608 C 0.44534 0.59701 0.52469 0.0
C609 C 0.38827 0.55131 0.50058 0.0
N610 N 0.48695 0.63073 0.4651 0.0
N611 N 0.41761 0.5588 0.47807 0.0
H612 H 0.17565 0.14367 0.33414 0.0
H613 H 0.38415 0.15913 0.26165 0.0
H614 H 0.25832 0.21856 0.37803 0.0
H615 H 0.30866 0.06958 0.23596 0.0
H616 H 0.3316 0.195 0.28671 0.0
H617 H 0.21685 0.13085 0.28104 0.0
C618 C 0.20193 0.15826 0.33193 0.0
C619 C 0.21419 0.18138 0.36075 0.0
C620 C 0.32643 0.16785 0.27473 0.0
C621 C 0.26134 0.16682 0.3008 0.0
C622 C 0.35638 0.14754 0.26027 0.0
C623 C 0.35066 0.1112 0.24748 0.0
C624 C 0.29084 0.15144 0.27638 0.0
C625 C 0.31422 0.09731 0.24635 0.0
C626 C 0.22553 0.15084 0.30183 0.0
C627 C 0.24838 0.19979 0.35666 0.0
N628 N 0.28578 0.11718 0.26118 0.0
N629 N 0.27106 0.19164 0.32764 0.0
H630 H 0.09217 0.13495 0.51297 0.0
H631 H 0.10887 0.92699 0.58661 0.0
H632 H 0.18116 0.05919 0.48612 0.0
H633 H 0.03587 0.01049 0.63214 0.0
H634 H 0.12044 0.96774 0.5329 0.0
H635 H 0.05674 0.08262 0.53912 0.0
C636 C 0.10369 0.10715 0.51154 0.0
C637 C 0.1398 0.1013 0.49818 0.0
C638 C 0.10115 0.97672 0.55423 0.0
C639 C 0.10009 0.04177 0.52826 0.0
C640 C 0.09449 0.9534 0.58472 0.0
C641 C 0.07231 0.96602 0.61412 0.0
C642 C 0.08533 0.01259 0.55339 0.0
C643 C 0.05403 1.00031 0.61036 0.0
C644 C 0.08364 0.07734 0.52662 0.0
C645 C 0.15362 0.06484 0.49696 0.0
N646 N 0.06141 0.0227 0.58091 0.0
N647 N 0.13403 0.03654 0.51239 0.0
H648 H 0.19438 0.93106 0.73345 0.0
H649 H 0.24662 0.77857 0.87925 0.0
H650 H 0.11954 0.84396 0.7678 0.0
H651 H 0.32373 0.86067 0.83834 0.0
H652 H 0.20586 0.7909 0.82641 0.0
H653 H 0.24659 0.89556 0.75811 0.0
C654 C 0.18913 0.90391 0.74547 0.0
C655 C 0.15268 0.8906 0.74927 0.0
C656 C 0.23204 0.80568 0.82834 0.0
C657 C 0.21216 0.85025 0.77859 0.0
C658 C 0.25532 0.79863 0.85849 0.0
C659 C 0.28805 0.8193 0.8634 0.0
C660 C 0.24113 0.83432 0.80344 0.0
C661 C 0.29848 0.84448 0.83564 0.0
C662 C 0.21896 0.88364 0.75957 0.0
C663 C 0.14729 0.85522 0.76461 0.0
N664 N 0.27456 0.85202 0.80725 0.0
N665 N 0.17669 0.8366 0.77959 0.0
H666 H 0.47288 0.99674 0.12634 0.0
H667 H 0.32279 0.94246 0.97844 0.0
H668 H 0.38929 0.07207 0.0852 0.0
H669 H 0.40861 0.86807 0.01673 0.0
H670 H 0.35788 0.99507 0.0029 0.0
H671 H 0.46174 0.95583 0.07333 0.0
C672 C 0.45274 0.00502 0.10549 0.0
C673 C 0.43133 0.03727 0.11034 0.0
C674 C 0.36963 0.96743 0.00525 0.0
C675 C 0.41766 0.99017 0.05023 0.0
C676 C 0.34961 0.93738 0.99123 0.0
C677 C 0.36262 0.90097 0.99625 0.0
C678 C 0.40244 0.96089 0.02534 0.0
C679 C 0.39758 0.89578 0.01258 0.0
C680 C 0.44636 0.98166 0.07526 0.0
C681 C 0.40605 0.04719 0.0825 0.0
N682 N 0.41592 0.92542 0.02741 0.0
N683 N 0.39919 0.02318 0.05402 0.0
H684 H 0.88294 0.33665 0.74076 0.0
H685 H 0.74989 0.27416 0.62159 0.0
H686 H 0.81078 0.43188 0.75087 0.0
H687 H 0.67858 0.36057 0.66389 0.0
H688 H 0.79306 0.28504 0.67222 0.0
H689 H 0.83 0.29991 0.71871 0.0
C690 C 0.85579 0.34957 0.73895 0.0
C691 C 0.85129 0.38745 0.7468 0.0
C692 C 0.76758 0.30095 0.67168 0.0
C693 C 0.79097 0.3465 0.71975 0.0
C694 C 0.74285 0.2947 0.64251 0.0
C695 C 0.71113 0.31701 0.63837 0.0
C696 C 0.76081 0.33033 0.69656 0.0
C697 C 0.70295 0.343 0.66609 0.0
C698 C 0.82554 0.32879 0.72574 0.0
C699 C 0.81559 0.40291 0.74414 0.0
N700 N 0.72819 0.34963 0.69353 0.0
N701 N 0.78702 0.38259 0.73032 0.0
H702 H 0.90579 0.42225 0.91606 0.0
H703 H 0.82193 0.55802 0.01825 0.0
H704 H 0.95529 0.51622 0.86026 0.0
H705 H 0.90899 0.63238 0.98292 0.0
H706 H 0.85574 0.50602 0.99175 0.0
H707 H 0.89454 0.46184 0.97058 0.0
C708 C 0.9146 0.45106 0.91546 0.0
C709 C 0.93 0.46642 0.88312 0.0
C710 C 0.86853 0.53323 0.9909 0.0
C711 C 0.91657 0.51208 0.94466 0.0
C712 C 0.84897 0.5631 0.00591 0.0
C713 C 0.86252 0.59948 0.00222 0.0
C714 C 0.90164 0.53991 0.97127 0.0
C715 C 0.89759 0.60469 0.98617 0.0
C716 C 0.90787 0.47383 0.94642 0.0
C717 C 0.94191 0.50362 0.88413 0.0
N718 N 0.91551 0.57529 0.97031 0.0
N719 N 0.93442 0.52526 0.91407 0.0
H720 H 0.82535 0.6434 0.16507 0.0
H721 H 0.6168 0.66023 0.23746 0.0
H722 H 0.74234 0.71678 0.11927 0.0
H723 H 0.69233 0.57122 0.26481 0.0
H724 H 0.66934 0.69558 0.21157 0.0
H725 H 0.78413 0.63168 0.21843 0.0
C726 C 0.79895 0.65784 0.16685 0.0
C727 C 0.78663 0.6802 0.13746 0.0
C728 C 0.67452 0.66869 0.22413 0.0
C729 C 0.7395 0.66697 0.19777 0.0
C730 C 0.64459 0.6487 0.23907 0.0
C731 C 0.65031 0.61259 0.25248 0.0
C732 C 0.71009 0.65222 0.22269 0.0
C733 C 0.68677 0.59876 0.25393 0.0
C734 C 0.77536 0.65108 0.19712 0.0
C735 C 0.75232 0.69852 0.14105 0.0
N736 N 0.71519 0.6183 0.23864 0.0
N737 N 0.72967 0.69103 0.17028 0.0
H738 H 0.67555 0.44206 0.52168 0.0
H739 H 0.52856 0.49483 0.37069 0.0
H740 H 0.58971 0.36739 0.48402 0.0
H741 H 0.60866 0.57203 0.41521 0.0
H742 H 0.53904 0.45377 0.42369 0.0
H743 H 0.64081 0.49441 0.49625 0.0
C744 C 0.64878 0.43688 0.50882 0.0
C745 C 0.63569 0.40044 0.50425 0.0
C746 C 0.55379 0.48001 0.42249 0.0
C747 C 0.5963 0.46007 0.47397 0.0
C748 C 0.54781 0.50346 0.39224 0.0
C749 C 0.56845 0.53634 0.38836 0.0
C750 C 0.58134 0.48909 0.44859 0.0
C751 C 0.59254 0.54667 0.41711 0.0
C752 C 0.62896 0.46679 0.49423 0.0
C753 C 0.60081 0.39513 0.48781 0.0
N754 N 0.59906 0.5226 0.44564 0.0
N755 N 0.58269 0.4246 0.47235 0.0
H756 H 0.26415 0.38411 0.15977 0.0
H757 H 0.33552 0.17546 0.14283 0.0
H758 H 0.23684 0.30894 0.07046 0.0
H759 H 0.3812 0.25814 0.21663 0.0
H760 H 0.28224 0.21676 0.13109 0.0
H761 H 0.28925 0.33135 0.19527 0.0
C762 C 0.26239 0.35636 0.14818 0.0
C763 C 0.24919 0.35078 0.11198 0.0
C764 C 0.30349 0.22543 0.1506 0.0
C765 C 0.27817 0.29075 0.15176 0.0
C766 C 0.33372 0.2018 0.15736 0.0
C767 C 0.36306 0.21404 0.17982 0.0
C768 C 0.30286 0.26123 0.1666 0.0
C769 C 0.35945 0.24825 0.19828 0.0
C770 C 0.27688 0.32629 0.16827 0.0
C771 C 0.24756 0.31437 0.09808 0.0
N772 N 0.33027 0.27095 0.19078 0.0
N773 N 0.26246 0.28581 0.1177 0.0
H774 H 0.83517 0.32424 0.8565 0.0
H775 H 0.76409 0.11537 0.83906 0.0
H776 H 0.88131 0.24188 0.78263 0.0
H777 H 0.73576 0.19067 0.92796 0.0
H778 H 0.78973 0.16811 0.80383 0.0
H779 H 0.78199 0.28273 0.86805 0.0
C780 C 0.83349 0.29793 0.84191 0.0
C781 C 0.8629 0.28587 0.81945 0.0
C782 C 0.77702 0.1732 0.83067 0.0
C783 C 0.80284 0.23839 0.8325 0.0
C784 C 0.76223 0.14315 0.8506 0.0
C785 C 0.7486 0.14876 0.88664 0.0
C786 C 0.77811 0.20877 0.84715 0.0
C787 C 0.74682 0.1852 0.90047 0.0
C788 C 0.80332 0.27417 0.84857 0.0
C789 C 0.85947 0.25165 0.80095 0.0
N790 N 0.76197 0.21373 0.881 0.0
N791 N 0.83036 0.22882 0.80835 0.0
H792 H 0.1352 0.51408 0.09142 0.0
H793 H 0.92605 0.58494 0.10646 0.0
H794 H 0.05916 0.4861 0.17982 0.0
H795 H 0.00927 0.63097 0.03345 0.0
H796 H 0.96754 0.53193 0.11874 0.0
H797 H 0.08277 0.53952 0.05565 0.0
C798 C 0.10733 0.51227 0.10275 0.0
C799 C 0.10141 0.49873 0.13877 0.0
C800 C 0.9763 0.55319 0.09928 0.0
C801 C 0.04174 0.52809 0.09869 0.0
C802 C 0.95255 0.58326 0.0922 0.0
C803 C 0.96484 0.61262 0.06977 0.0
C804 C 0.01227 0.55273 0.08364 0.0
C805 C 0.9993 0.60919 0.05172 0.0
C806 C 0.07746 0.52696 0.08251 0.0
C807 C 0.06486 0.49706 0.15234 0.0
N808 N 0.02209 0.58016 0.05952 0.0
N809 N 0.03649 0.51214 0.13258 0.0
H810 H 0.73718 0.88409 0.34239 0.0
H811 H 0.66479 0.67563 0.35934 0.0
H812 H 0.76298 0.80921 0.43239 0.0
H813 H 0.62031 0.75793 0.28439 0.0
H814 H 0.71784 0.717 0.37178 0.0
H815 H 0.71194 0.83132 0.30697 0.0
C816 C 0.73856 0.8564 0.35416 0.0
C817 C 0.75141 0.85092 0.3905 0.0
C818 C 0.69693 0.72557 0.35186 0.0
C819 C 0.72232 0.79087 0.35079 0.0
C820 C 0.66684 0.70188 0.34469 0.0
C821 C 0.6379 0.71398 0.32164 0.0
C822 C 0.69781 0.7613 0.33573 0.0
C823 C 0.64179 0.74812 0.30312 0.0
C824 C 0.72399 0.82633 0.33412 0.0
C825 C 0.75255 0.81458 0.40465 0.0
N826 N 0.67081 0.77089 0.31102 0.0
N827 N 0.73763 0.78603 0.38503 0.0
H828 H 0.57316 0.41452 0.60595 0.0
H829 H 0.36448 0.48797 0.5934 0.0
H830 H 0.48795 0.36788 0.53567 0.0
H831 H 0.44216 0.51594 0.68033 0.0
H832 H 0.41593 0.46073 0.5575 0.0
H833 H 0.53226 0.46797 0.61838 0.0
C834 C 0.54631 0.4161 0.59236 0.0
C835 C 0.53333 0.38647 0.57068 0.0
C836 C 0.42181 0.47366 0.58406 0.0
C837 C 0.48662 0.44691 0.58466 0.0
C838 C 0.3925 0.48935 0.60437 0.0
C839 C 0.39914 0.50344 0.64006 0.0
C840 C 0.45771 0.47216 0.59978 0.0
C841 C 0.43588 0.50456 0.65316 0.0
C842 C 0.52291 0.44643 0.59951 0.0
C843 C 0.49847 0.38984 0.55341 0.0
N844 N 0.4637 0.48858 0.63331 0.0
N845 N 0.47606 0.41916 0.56124 0.0
H846 H 0.26687 0.69123 0.56822 0.0
H847 H 0.12713 0.74985 0.72419 0.0
H848 H 0.23441 0.61946 0.65856 0.0
H849 H 0.16546 0.82363 0.63795 0.0
H850 H 0.17923 0.70822 0.71136 0.0
H851 H 0.244 0.74478 0.60294 0.0
C852 C 0.25564 0.68694 0.59587 0.0
C853 C 0.25187 0.65096 0.6104 0.0
C854 C 0.17696 0.7339 0.69578 0.0
C855 C 0.22464 0.71198 0.64991 0.0
C856 C 0.14728 0.7577 0.70318 0.0
C857 C 0.14186 0.78972 0.68158 0.0
C858 C 0.20077 0.74174 0.66586 0.0
C859 C 0.16867 0.79899 0.65497 0.0
C860 C 0.24258 0.71753 0.6157 0.0
C861 C 0.23756 0.64681 0.64637 0.0
N862 N 0.19655 0.77456 0.64717 0.0
N863 N 0.22359 0.67694 0.66461 0.0
H864 H 0.50596 0.8723 0.97305 0.0
H865 H 0.55963 0.01666 0.81974 0.0
H866 H 0.4291 0.91364 0.89098 0.0
H867 H 0.63401 0.98241 0.90723 0.0
H868 H 0.50715 0.99266 0.85532 0.0
H869 H 0.54725 0.92468 0.9604 0.0
C870 C 0.49742 0.8931 0.95297 0.0
C871 C 0.46458 0.88845 0.93243 0.0
C872 C 0.53474 0.99109 0.8673 0.0
C873 C 0.51212 0.94782 0.91696 0.0
C874 C 0.56473 0.00481 0.84698 0.0
C875 C 0.60112 0.00085 0.8604 0.0
C876 C 0.54132 0.97229 0.90086 0.0
C877 C 0.60631 0.98573 0.89589 0.0
C878 C 0.52101 0.92297 0.9457 0.0
C879 C 0.4544 0.91618 0.90711 0.0
N880 N 0.57675 0.97112 0.91458 0.0
N881 N 0.47861 0.94428 0.89937 0.0
H882 H 0.86635 0.01501 0.4107 0.0
H883 H 0.07511 0.0865 0.39268 0.0
H884 H 0.94093 0.98828 0.3207 0.0
H885 H 0.99349 0.13131 0.4682 0.0
H886 H 0.03341 0.03366 0.38049 0.0
H887 H 0.91933 0.04033 0.4458 0.0
C888 C 0.89402 0.01345 0.39887 0.0
C889 C 0.89936 1.0003 0.36261 0.0
C890 C 0.02506 0.05461 0.40046 0.0
C891 C 0.95964 0.02946 0.40196 0.0
C892 C 0.04894 0.08457 0.40751 0.0
C893 C 0.03713 0.11357 0.43064 0.0
C894 C 0.98941 0.05389 0.41682 0.0
C895 C 0.00308 0.10982 0.44939 0.0
C896 C 0.9242 0.02806 0.41873 0.0
C897 C 0.93567 0.99893 0.34838 0.0
N898 N 0.98011 0.08091 0.4416 0.0
N899 N 0.96433 0.01389 0.36781 0.0
loop_
_geom_bond_atom_site_label_1
_geom_bond_atom_site_label_2
_geom_bond_distance
_geom_bond_site_symmetry_2
_ccdc_geom_bond_type
O0 Mn1 2.163 . S
O0 C14 1.244 . S
Mn1 O0 2.163 . S
Mn1 O4 2.160 . S
Mn1 O5 2.221 . S
Mn1 O7 2.163 . S
Mn1 O9 2.160 . S
Mn1 O19 2.221 . S
O2 Mn3 2.087 . S
O2 C14 1.256 . S
Mn3 O2 2.087 . S
Mn3 O10 2.089 . S
Mn3 O19 2.290 . S
Mn3 O20 2.251 . S
O4 Mn1 2.160 . S
O4 C15 1.239 . S
O5 Mn1 2.221 . S
O5 Mn6 2.290 . S
O5 C16 1.278 . S
Mn6 O5 2.290 . S
Mn6 O8 2.089 . S
Mn6 O11 2.251 . S
Mn6 O12 2.087 . S
O7 Mn1 2.163 . S
O7 C17 1.244 . S
O8 Mn6 2.089 . S
O8 C15 1.256 . S
O9 Mn1 2.160 . S
O9 C18 1.239 . S
O10 Mn3 2.089 . S
O10 C18 1.256 . S
O11 Mn6 2.251 . S
O11 C16 1.241 . S
O12 Mn6 2.087 . S
O12 C17 1.256 . S
C13 O19 1.278 . S
C13 O20 1.241 . S
C14 O0 1.244 . S
C14 O2 1.256 . S
C15 O4 1.239 . S
C15 O8 1.256 . S
C16 O5 1.278 . S
C16 O11 1.241 . S
C17 O7 1.244 . S
C17 O12 1.256 . S
C18 O9 1.239 . S
C18 O10 1.256 . S
O19 Mn1 2.221 . S
O19 Mn3 2.290 . S
O19 C13 1.278 . S
O20 Mn3 2.251 . S
O20 C13 1.241 . S
O21 Mn22 2.163 . S
O21 C35 1.244 . S
Mn22 O21 2.163 . S
Mn22 O25 2.160 . S
Mn22 O26 2.221 . S
Mn22 O28 2.163 . S
Mn22 O30 2.160 . S
Mn22 O40 2.221 . S
O23 Mn24 2.087 . S
O23 C35 1.256 . S
Mn24 O23 2.087 . S
Mn24 O31 2.089 . S
Mn24 O40 2.290 . S
Mn24 O41 2.251 1_455 S
O25 Mn22 2.160 . S
O25 C36 1.239 . S
O26 Mn22 2.221 . S
O26 Mn27 2.290 . S
O26 C37 1.278 . S
Mn27 O26 2.290 . S
Mn27 O29 2.089 . S
Mn27 O32 2.251 . S
Mn27 O33 2.087 . S
O28 Mn22 2.163 . S
O28 C38 1.244 . S
O29 Mn27 2.089 . S
O29 C36 1.256 . S
O30 Mn22 2.160 . S
O30 C39 1.239 . S
O31 Mn24 2.089 . S
O31 C39 1.256 . S
O32 Mn27 2.251 . S
O32 C37 1.241 . S
O33 Mn27 2.087 . S
O33 C38 1.256 . S
C34 O40 1.278 1_655 S
C34 O41 1.241 . S
C35 O21 1.244 . S
C35 O23 1.256 . S
C36 O25 1.239 . S
C36 O29 1.256 . S
C37 O26 1.278 . S
C37 O32 1.241 . S
C38 O28 1.244 . S
C38 O33 1.256 . S
C39 O30 1.239 . S
C39 O31 1.256 . S
O40 Mn22 2.221 . S
O40 Mn24 2.290 . S
O40 C34 1.278 1_455 S
O41 Mn24 2.251 1_655 S
O41 C34 1.241 . S
O42 Mn43 2.163 . S
O42 C56 1.244 . S
Mn43 O42 2.163 . S
Mn43 O46 2.160 . S
Mn43 O47 2.221 . S
Mn43 O49 2.163 . S
Mn43 O51 2.160 . S
Mn43 O61 2.221 . S
O44 Mn45 2.087 . S
O44 C56 1.256 . S
Mn45 O44 2.087 . S
Mn45 O52 2.089 . S
Mn45 O61 2.290 . S
Mn45 O62 2.251 1_556 S
O46 Mn43 2.160 . S
O46 C57 1.239 . S
O47 Mn43 2.221 . S
O47 Mn48 2.290 . S
O47 C58 1.278 . S
Mn48 O47 2.290 . S
Mn48 O50 2.089 . S
Mn48 O53 2.251 . S
Mn48 O54 2.087 . S
O49 Mn43 2.163 . S
O49 C59 1.244 . S
O50 Mn48 2.089 . S
O50 C57 1.256 . S
O51 Mn43 2.160 . S
O51 C60 1.239 . S
O52 Mn45 2.089 . S
O52 C60 1.256 . S
O53 Mn48 2.251 . S
O53 C58 1.241 . S
O54 Mn48 2.087 . S
O54 C59 1.256 . S
C55 O61 1.278 1_554 S
C55 O62 1.241 . S
C56 O42 1.244 . S
C56 O44 1.256 . S
C57 O46 1.239 . S
C57 O50 1.256 . S
C58 O47 1.278 . S
C58 O53 1.241 . S
C59 O49 1.244 . S
C59 O54 1.256 . S
C60 O51 1.239 . S
C60 O52 1.256 . S
O61 Mn43 2.221 . S
O61 Mn45 2.290 . S
O61 C55 1.278 1_556 S
O62 Mn45 2.251 1_554 S
O62 C55 1.241 . S
O63 Mn64 2.163 . S
O63 C77 1.244 . S
Mn64 O63 2.163 . S
Mn64 O67 2.160 . S
Mn64 O68 2.221 . S
Mn64 O70 2.163 . S
Mn64 O72 2.160 . S
Mn64 O82 2.221 . S
O65 Mn66 2.087 . S
O65 C77 1.256 . S
Mn66 O65 2.087 . S
Mn66 O73 2.089 . S
Mn66 O82 2.290 . S
Mn66 O83 2.251 . S
O67 Mn64 2.160 . S
O67 C78 1.239 . S
O68 Mn64 2.221 . S
O68 Mn69 2.290 . S
O68 C79 1.278 . S
Mn69 O68 2.290 . S
Mn69 O71 2.089 . S
Mn69 O74 2.251 . S
Mn69 O75 2.087 . S
O70 Mn64 2.163 . S
O70 C80 1.244 . S
O71 Mn69 2.089 . S
O71 C78 1.256 . S
O72 Mn64 2.160 . S
O72 C81 1.239 . S
O73 Mn66 2.089 . S
O73 C81 1.256 . S
O74 Mn69 2.251 . S
O74 C79 1.241 . S
O75 Mn69 2.087 . S
O75 C80 1.256 . S
C76 O82 1.278 . S
C76 O83 1.241 . S
C77 O63 1.244 . S
C77 O65 1.256 . S
C78 O67 1.239 . S
C78 O71 1.256 . S
C79 O68 1.278 . S
C79 O74 1.241 . S
C80 O70 1.244 . S
C80 O75 1.256 . S
C81 O72 1.239 . S
C81 O73 1.256 . S
O82 Mn64 2.221 . S
O82 Mn66 2.290 . S
O82 C76 1.278 . S
O83 Mn66 2.251 . S
O83 C76 1.241 . S
O84 Mn85 2.163 . S
O84 C98 1.244 . S
Mn85 O84 2.163 . S
Mn85 O88 2.160 . S
Mn85 O89 2.221 . S
Mn85 O91 2.163 . S
Mn85 O93 2.160 . S
Mn85 O103 2.221 . S
O86 Mn87 2.087 . S
O86 C98 1.256 . S
Mn87 O86 2.087 . S
Mn87 O94 2.089 . S
Mn87 O103 2.290 . S
Mn87 O104 2.251 . S
O88 Mn85 2.160 . S
O88 C99 1.239 . S
O89 Mn85 2.221 . S
O89 Mn90 2.290 . S
O89 C100 1.278 . S
Mn90 O89 2.290 . S
Mn90 O92 2.089 . S
Mn90 O95 2.251 . S
Mn90 O96 2.087 . S
O91 Mn85 2.163 . S
O91 C101 1.244 . S
O92 Mn90 2.089 . S
O92 C99 1.256 . S
O93 Mn85 2.160 . S
O93 C102 1.239 . S
O94 Mn87 2.089 . S
O94 C102 1.256 . S
O95 Mn90 2.251 . S
O95 C100 1.241 . S
O96 Mn90 2.087 . S
O96 C101 1.256 . S
C97 O103 1.278 . S
C97 O104 1.241 . S
C98 O84 1.244 . S
C98 O86 1.256 . S
C99 O88 1.239 . S
C99 O92 1.256 . S
C100 O89 1.278 . S
C100 O95 1.241 . S
C101 O91 1.244 . S
C101 O96 1.256 . S
C102 O93 1.239 . S
C102 O94 1.256 . S
O103 Mn85 2.221 . S
O103 Mn87 2.290 . S
O103 C97 1.278 . S
O104 Mn87 2.251 . S
O104 C97 1.241 . S
O105 Mn106 2.163 . S
O105 C119 1.244 . S
Mn106 O105 2.163 . S
Mn106 O109 2.160 . S
Mn106 O110 2.221 . S
Mn106 O112 2.163 . S
Mn106 O114 2.160 . S
Mn106 O124 2.221 . S
O107 Mn108 2.087 . S
O107 C119 1.256 . S
Mn108 O107 2.087 . S
Mn108 O115 2.089 . S
Mn108 O124 2.290 . S
Mn108 O125 2.251 . S
O109 Mn106 2.160 . S
O109 C120 1.239 . S
O110 Mn106 2.221 . S
O110 Mn111 2.290 . S
O110 C121 1.278 1_655 S
Mn111 O110 2.290 . S
Mn111 O113 2.089 . S
Mn111 O116 2.251 1_655 S
Mn111 O117 2.087 . S
O112 Mn106 2.163 . S
O112 C122 1.244 . S
O113 Mn111 2.089 . S
O113 C120 1.256 . S
O114 Mn106 2.160 . S
O114 C123 1.239 . S
O115 Mn108 2.089 . S
O115 C123 1.256 . S
O116 Mn111 2.251 1_455 S
O116 C121 1.241 . S
O117 Mn111 2.087 . S
O117 C122 1.256 . S
C118 O124 1.278 . S
C118 O125 1.241 . S
C119 O105 1.244 . S
C119 O107 1.256 . S
C120 O109 1.239 . S
C120 O113 1.256 . S
C121 O110 1.278 1_455 S
C121 O116 1.241 . S
C122 O112 1.244 . S
C122 O117 1.256 . S
C123 O114 1.239 . S
C123 O115 1.256 . S
O124 Mn106 2.221 . S
O124 Mn108 2.290 . S
O124 C118 1.278 . S
O125 Mn108 2.251 . S
O125 C118 1.241 . S
O126 Mn127 2.163 . S
O126 C140 1.244 . S
Mn127 O126 2.163 . S
Mn127 O130 2.160 . S
Mn127 O131 2.221 . S
Mn127 O133 2.163 . S
Mn127 O135 2.160 . S
Mn127 O145 2.221 . S
O128 Mn129 2.087 . S
O128 C140 1.256 . S
Mn129 O128 2.087 . S
Mn129 O136 2.089 . S
Mn129 O145 2.290 . S
Mn129 O146 2.251 . S
O130 Mn127 2.160 . S
O130 C141 1.239 . S
O131 Mn127 2.221 . S
O131 Mn132 2.290 . S
O131 C142 1.278 1_554 S
Mn132 O131 2.290 . S
Mn132 O134 2.089 . S
Mn132 O137 2.251 1_554 S
Mn132 O138 2.087 . S
O133 Mn127 2.163 . S
O133 C143 1.244 . S
O134 Mn132 2.089 . S
O134 C141 1.256 . S
O135 Mn127 2.160 . S
O135 C144 1.239 . S
O136 Mn129 2.089 . S
O136 C144 1.256 . S
O137 Mn132 2.251 1_556 S
O137 C142 1.241 . S
O138 Mn132 2.087 . S
O138 C143 1.256 . S
C139 O145 1.278 . S
C139 O146 1.241 . S
C140 O126 1.244 . S
C140 O128 1.256 . S
C141 O130 1.239 . S
C141 O134 1.256 . S
C142 O131 1.278 1_556 S
C142 O137 1.241 . S
C143 O133 1.244 . S
C143 O138 1.256 . S
C144 O135 1.239 . S
C144 O136 1.256 . S
O145 Mn127 2.221 . S
O145 Mn129 2.290 . S
O145 C139 1.278 . S
O146 Mn129 2.251 . S
O146 C139 1.241 . S
O147 Mn148 2.163 . S
O147 C161 1.244 . S
Mn148 O147 2.163 . S
Mn148 O151 2.160 . S
Mn148 O152 2.221 . S
Mn148 O154 2.163 . S
Mn148 O156 2.160 . S
Mn148 O166 2.221 . S
O149 Mn150 2.087 . S
O149 C161 1.256 . S
Mn150 O149 2.087 . S
Mn150 O157 2.089 . S
Mn150 O166 2.290 . S
Mn150 O167 2.251 . S
O151 Mn148 2.160 . S
O151 C162 1.239 . S
O152 Mn148 2.221 . S
O152 Mn153 2.290 . S
O152 C163 1.278 . S
Mn153 O152 2.290 . S
Mn153 O155 2.089 . S
Mn153 O158 2.251 . S
Mn153 O159 2.087 . S
O154 Mn148 2.163 . S
O154 C164 1.244 . S
O155 Mn153 2.089 . S
O155 C162 1.256 . S
O156 Mn148 2.160 . S
O156 C165 1.239 . S
O157 Mn150 2.089 . S
O157 C165 1.256 . S
O158 Mn153 2.251 . S
O158 C163 1.241 . S
O159 Mn153 2.087 . S
O159 C164 1.256 . S
C160 O166 1.278 . S
C160 O167 1.241 . S
C161 O147 1.244 . S
C161 O149 1.256 . S
C162 O151 1.239 . S
C162 O155 1.256 . S
C163 O152 1.278 . S
C163 O158 1.241 . S
C164 O154 1.244 . S
C164 O159 1.256 . S
C165 O156 1.239 . S
C165 O157 1.256 . S
O166 Mn148 2.221 . S
O166 Mn150 2.290 . S
O166 C160 1.278 . S
O167 Mn150 2.251 . S
O167 C160 1.241 . S
O168 Mn169 2.163 . S
O168 C182 1.244 . S
Mn169 O168 2.163 . S
Mn169 O172 2.160 . S
Mn169 O173 2.221 . S
Mn169 O175 2.163 . S
Mn169 O177 2.160 . S
Mn169 O187 2.221 . S
O170 Mn171 2.087 . S
O170 C182 1.256 . S
Mn171 O170 2.087 . S
Mn171 O178 2.089 . S
Mn171 O187 2.290 . S
Mn171 O188 2.251 . S
O172 Mn169 2.160 . S
O172 C183 1.239 . S
O173 Mn169 2.221 . S
O173 Mn174 2.290 . S
O173 C184 1.278 . S
Mn174 O173 2.290 . S
Mn174 O176 2.089 . S
Mn174 O179 2.251 . S
Mn174 O180 2.087 . S
O175 Mn169 2.163 . S
O175 C185 1.244 . S
O176 Mn174 2.089 . S
O176 C183 1.256 . S
O177 Mn169 2.160 . S
O177 C186 1.239 . S
O178 Mn171 2.089 . S
O178 C186 1.256 . S
O179 Mn174 2.251 . S
O179 C184 1.241 . S
O180 Mn174 2.087 . S
O180 C185 1.256 . S
C181 O187 1.278 . S
C181 O188 1.241 . S
C182 O168 1.244 . S
C182 O170 1.256 . S
C183 O172 1.239 . S
C183 O176 1.256 . S
C184 O173 1.278 . S
C184 O179 1.241 . S
C185 O175 1.244 . S
C185 O180 1.256 . S
C186 O177 1.239 . S
C186 O178 1.256 . S
O187 Mn169 2.221 . S
O187 Mn171 2.290 . S
O187 C181 1.278 . S
O188 Mn171 2.251 . S
O188 C181 1.241 . S
O189 Mn190 2.163 . S
O189 C203 1.244 . S
Mn190 O189 2.163 . S
Mn190 O193 2.160 . S
Mn190 O194 2.221 . S
Mn190 O196 2.163 . S
Mn190 O198 2.160 . S
Mn190 O208 2.221 . S
O191 Mn192 2.087 . S
O191 C203 1.256 . S
Mn192 O191 2.087 . S
Mn192 O199 2.089 . S
Mn192 O208 2.290 . S
Mn192 O209 2.251 1_545 S
O193 Mn190 2.160 . S
O193 C204 1.239 . S
O194 Mn190 2.221 . S
O194 Mn195 2.290 . S
O194 C205 1.278 . S
Mn195 O194 2.290 . S
Mn195 O197 2.089 . S
Mn195 O200 2.251 . S
Mn195 O201 2.087 . S
O196 Mn190 2.163 . S
O196 C206 1.244 . S
O197 Mn195 2.089 . S
O197 C204 1.256 . S
O198 Mn190 2.160 . S
O198 C207 1.239 . S
O199 Mn192 2.089 . S
O199 C207 1.256 . S
O200 Mn195 2.251 . S
O200 C205 1.241 . S
O201 Mn195 2.087 . S
O201 C206 1.256 . S
C202 O208 1.278 1_565 S
C202 O209 1.241 . S
C203 O189 1.244 . S
C203 O191 1.256 . S
C204 O193 1.239 . S
C204 O197 1.256 . S
C205 O194 1.278 . S
C205 O200 1.241 . S
C206 O196 1.244 . S
C206 O201 1.256 . S
C207 O198 1.239 . S
C207 O199 1.256 . S
O208 Mn190 2.221 . S
O208 Mn192 2.290 . S
O208 C202 1.278 1_545 S
O209 Mn192 2.251 1_565 S
O209 C202 1.241 . S
O210 Mn211 2.163 . S
O210 C224 1.244 . S
Mn211 O210 2.163 . S
Mn211 O214 2.160 . S
Mn211 O215 2.221 . S
Mn211 O217 2.163 . S
Mn211 O219 2.160 . S
Mn211 O229 2.221 . S
O212 Mn213 2.087 . S
O212 C224 1.256 . S
Mn213 O212 2.087 . S
Mn213 O220 2.089 . S
Mn213 O229 2.290 . S
Mn213 O230 2.251 1_565 S
O214 Mn211 2.160 . S
O214 C225 1.239 . S
O215 Mn211 2.221 . S
O215 Mn216 2.290 . S
O215 C226 1.278 . S
Mn216 O215 2.290 . S
Mn216 O218 2.089 . S
Mn216 O221 2.251 . S
Mn216 O222 2.087 . S
O217 Mn211 2.163 . S
O217 C227 1.244 . S
O218 Mn216 2.089 . S
O218 C225 1.256 . S
O219 Mn211 2.160 . S
O219 C228 1.239 . S
O220 Mn213 2.089 . S
O220 C228 1.256 . S
O221 Mn216 2.251 . S
O221 C226 1.241 . S
O222 Mn216 2.087 . S
O222 C227 1.256 . S
C223 O229 1.278 1_545 S
C223 O230 1.241 . S
C224 O210 1.244 . S
C224 O212 1.256 . S
C225 O214 1.239 . S
C225 O218 1.256 . S
C226 O215 1.278 . S
C226 O221 1.241 . S
C227 O217 1.244 . S
C227 O222 1.256 . S
C228 O219 1.239 . S
C228 O220 1.256 . S
O229 Mn211 2.221 . S
O229 Mn213 2.290 . S
O229 C223 1.278 1_565 S
O230 Mn213 2.251 1_545 S
O230 C223 1.241 . S
O231 Mn232 2.163 . S
O231 C245 1.244 . S
Mn232 O231 2.163 . S
Mn232 O235 2.160 . S
Mn232 O236 2.221 . S
Mn232 O238 2.163 . S
Mn232 O240 2.160 . S
Mn232 O250 2.221 . S
O233 Mn234 2.087 . S
O233 C245 1.256 . S
Mn234 O233 2.087 . S
Mn234 O241 2.089 . S
Mn234 O250 2.290 . S
Mn234 O251 2.251 . S
O235 Mn232 2.160 . S
O235 C246 1.239 . S
O236 Mn232 2.221 . S
O236 Mn237 2.290 . S
O236 C247 1.278 . S
Mn237 O236 2.290 . S
Mn237 O239 2.089 . S
Mn237 O242 2.251 . S
Mn237 O243 2.087 . S
O238 Mn232 2.163 . S
O238 C248 1.244 . S
O239 Mn237 2.089 . S
O239 C246 1.256 . S
O240 Mn232 2.160 . S
O240 C249 1.239 . S
O241 Mn234 2.089 . S
O241 C249 1.256 . S
O242 Mn237 2.251 . S
O242 C247 1.241 . S
O243 Mn237 2.087 . S
O243 C248 1.256 . S
C244 O250 1.278 . S
C244 O251 1.241 . S
C245 O231 1.244 . S
C245 O233 1.256 . S
C246 O235 1.239 . S
C246 O239 1.256 . S
C247 O236 1.278 . S
C247 O242 1.241 . S
C248 O238 1.244 . S
C248 O243 1.256 . S
C249 O240 1.239 . S
C249 O241 1.256 . S
O250 Mn232 2.221 . S
O250 Mn234 2.290 . S
O250 C244 1.278 . S
O251 Mn234 2.251 . S
O251 C244 1.241 . S
H252 C258 0.930 . S
H253 C262 0.930 . S
H254 C267 0.929 . S
H255 C265 0.929 . S
H256 C260 0.929 . S
H257 C266 0.929 . S
C258 H252 0.930 . S
C258 C259 1.367 . S
C258 C266 1.378 . S
C259 C258 1.367 . S
C259 C267 1.433 . S
C260 H256 0.929 . S
C260 C262 1.378 . S
C260 C264 1.350 . S
C261 C264 1.463 . S
C261 C266 1.350 . S
C261 N269 1.427 . S
C262 H253 0.930 . S
C262 C260 1.378 . S
C262 C263 1.367 . S
C263 C262 1.367 . S
C263 C265 1.433 . S
C264 C260 1.350 . S
C264 C261 1.463 . S
C264 N268 1.427 . S
C265 H255 0.929 . S
C265 C263 1.433 . S
C265 N268 1.384 . S
C266 H257 0.929 . S
C266 C258 1.378 . S
C266 C261 1.350 . S
C267 H254 0.929 . S
C267 C259 1.433 . S
C267 N269 1.384 . S
N268 C264 1.427 . S
N268 C265 1.384 . S
N269 C261 1.427 . S
N269 C267 1.384 . S
H270 C276 0.930 . S
H271 C280 0.930 1_545 S
H272 C285 0.929 . S
H273 C283 0.929 . S
H274 C278 0.929 . S
H275 C284 0.929 . S
C276 H270 0.930 . S
C276 C277 1.367 1_565 S
C276 C284 1.378 . S
C277 C276 1.367 1_545 S
C277 C285 1.433 . S
C278 H274 0.929 . S
C278 C280 1.378 1_545 S
C278 C282 1.350 1_545 S
C279 C282 1.463 . S
C279 C284 1.350 . S
C279 N287 1.427 1_565 S
C280 H271 0.930 1_565 S
C280 C278 1.378 1_565 S
C280 C281 1.367 . S
C281 C280 1.367 . S
C281 C283 1.433 . S
C282 C278 1.350 1_565 S
C282 C279 1.463 . S
C282 N286 1.427 . S
C283 H273 0.929 . S
C283 C281 1.433 . S
C283 N286 1.384 . S
C284 H275 0.929 . S
C284 C276 1.378 . S
C284 C279 1.350 . S
C285 H272 0.929 . S
C285 C277 1.433 . S
C285 N287 1.384 . S
N286 C282 1.427 . S
N286 C283 1.384 . S
N287 C279 1.427 1_545 S
N287 C285 1.384 . S
H288 C294 0.930 . S
H289 C298 0.930 1_556 S
H290 C303 0.929 . S
H291 C301 0.929 . S
H292 C296 0.929 . S
H293 C302 0.929 . S
C294 H288 0.930 . S
C294 C295 1.367 1_554 S
C294 C302 1.378 . S
C295 C294 1.367 1_556 S
C295 C303 1.433 . S
C296 H292 0.929 . S
C296 C298 1.378 1_556 S
C296 C300 1.350 1_556 S
C297 C300 1.463 . S
C297 C302 1.350 . S
C297 N305 1.427 1_554 S
C298 H289 0.930 1_554 S
C298 C296 1.378 1_554 S
C298 C299 1.367 . S
C299 C298 1.367 . S
C299 C301 1.433 . S
C300 C296 1.350 1_554 S
C300 C297 1.463 . S
C300 N304 1.427 . S
C301 H291 0.929 . S
C301 C299 1.433 . S
C301 N304 1.384 . S
C302 H293 0.929 . S
C302 C294 1.378 . S
C302 C297 1.350 . S
C303 H290 0.929 . S
C303 C295 1.433 . S
C303 N305 1.384 . S
N304 C300 1.427 . S
N304 C301 1.384 . S
N305 C297 1.427 1_556 S
N305 C303 1.384 . S
H306 C312 0.930 . S
H307 C316 0.930 . S
H308 C321 0.929 . S
H309 C319 0.929 . S
H310 C314 0.929 . S
H311 C320 0.929 1_565 S
C312 H306 0.930 . S
C312 C313 1.367 . S
C312 C320 1.378 . S
C313 C312 1.367 . S
C313 C321 1.433 . S
C314 H310 0.929 . S
C314 C316 1.378 . S
C314 C318 1.350 . S
C315 C318 1.463 . S
C315 C320 1.350 . S
C315 N323 1.427 . S
C316 H307 0.930 . S
C316 C314 1.378 . S
C316 C317 1.367 1_545 S
C317 C316 1.367 1_565 S
C317 C319 1.433 . S
C318 C314 1.350 . S
C318 C315 1.463 . S
C318 N322 1.427 1_545 S
C319 H309 0.929 . S
C319 C317 1.433 . S
C319 N322 1.384 . S
C320 H311 0.929 1_545 S
C320 C312 1.378 . S
C320 C315 1.350 . S
C321 H308 0.929 . S
C321 C313 1.433 . S
C321 N323 1.384 . S
N322 C318 1.427 1_565 S
N322 C319 1.384 . S
N323 C315 1.427 . S
N323 C321 1.384 . S
H324 C330 0.930 . S
H325 C334 0.930 . S
H326 C339 0.929 . S
H327 C337 0.929 . S
H328 C332 0.929 . S
H329 C338 0.929 . S
C330 H324 0.930 . S
C330 C331 1.367 . S
C330 C338 1.378 . S
C331 C330 1.367 . S
C331 C339 1.433 . S
C332 H328 0.929 . S
C332 C334 1.378 . S
C332 C336 1.350 . S
C333 C336 1.463 . S
C333 C338 1.350 . S
C333 N341 1.427 . S
C334 H325 0.930 . S
C334 C332 1.378 . S
C334 C335 1.367 . S
C335 C334 1.367 . S
C335 C337 1.433 . S
C336 C332 1.350 . S
C336 C333 1.463 . S
C336 N340 1.427 . S
C337 H327 0.929 . S
C337 C335 1.433 . S
C337 N340 1.384 . S
C338 H329 0.929 . S
C338 C330 1.378 . S
C338 C333 1.350 . S
C339 H326 0.929 . S
C339 C331 1.433 . S
C339 N341 1.384 . S
N340 C336 1.427 . S
N340 C337 1.384 . S
N341 C333 1.427 . S
N341 C339 1.384 . S
H342 C348 0.930 . S
H343 C352 0.930 . S
H344 C357 0.929 . S
H345 C355 0.929 . S
H346 C350 0.929 . S
H347 C356 0.929 . S
C348 H342 0.930 . S
C348 C349 1.367 . S
C348 C356 1.378 . S
C349 C348 1.367 . S
C349 C357 1.433 . S
C350 H346 0.929 . S
C350 C352 1.378 . S
C350 C354 1.350 . S
C351 C354 1.463 . S
C351 C356 1.350 . S
C351 N359 1.427 . S
C352 H343 0.930 . S
C352 C350 1.378 . S
C352 C353 1.367 . S
C353 C352 1.367 . S
C353 C355 1.433 . S
C354 C350 1.350 . S
C354 C351 1.463 . S
C354 N358 1.427 . S
C355 H345 0.929 . S
C355 C353 1.433 . S
C355 N358 1.384 . S
C356 H347 0.929 . S
C356 C348 1.378 . S
C356 C351 1.350 . S
C357 H344 0.929 . S
C357 C349 1.433 . S
C357 N359 1.384 . S
N358 C354 1.427 . S
N358 C355 1.384 . S
N359 C351 1.427 . S
N359 C357 1.384 . S
H360 C366 0.930 1_554 S
H361 C370 0.930 . S
H362 C375 0.929 . S
H363 C373 0.929 . S
H364 C368 0.929 . S
H365 C374 0.929 . S
C366 H360 0.930 1_556 S
C366 C367 1.367 . S
C366 C374 1.378 1_556 S
C367 C366 1.367 . S
C367 C375 1.433 . S
C368 H364 0.929 . S
C368 C370 1.378 . S
C368 C372 1.350 . S
C369 C372 1.463 . S
C369 C374 1.350 1_556 S
C369 N377 1.427 . S
C370 H361 0.930 . S
C370 C368 1.378 . S
C370 C371 1.367 1_556 S
C371 C370 1.367 1_554 S
C371 C373 1.433 . S
C372 C368 1.350 . S
C372 C369 1.463 . S
C372 N376 1.427 1_556 S
C373 H363 0.929 . S
C373 C371 1.433 . S
C373 N376 1.384 . S
C374 H365 0.929 . S
C374 C366 1.378 1_554 S
C374 C369 1.350 1_554 S
C375 H362 0.929 . S
C375 C367 1.433 . S
C375 N377 1.384 . S
N376 C372 1.427 1_554 S
N376 C373 1.384 . S
N377 C369 1.427 . S
N377 C375 1.384 . S
H378 C384 0.930 . S
H379 C388 0.930 . S
H380 C393 0.929 . S
H381 C391 0.929 . S
H382 C386 0.929 . S
H383 C392 0.929 . S
C384 H378 0.930 . S
C384 C385 1.367 . S
C384 C392 1.378 . S
C385 C384 1.367 . S
C385 C393 1.433 . S
C386 H382 0.929 . S
C386 C388 1.378 . S
C386 C390 1.350 . S
C387 C390 1.463 . S
C387 C392 1.350 . S
C387 N395 1.427 . S
C388 H379 0.930 . S
C388 C386 1.378 . S
C388 C389 1.367 . S
C389 C388 1.367 . S
C389 C391 1.433 . S
C390 C386 1.350 . S
C390 C387 1.463 . S
C390 N394 1.427 . S
C391 H381 0.929 . S
C391 C389 1.433 . S
C391 N394 1.384 . S
C392 H383 0.929 . S
C392 C384 1.378 . S
C392 C387 1.350 . S
C393 H380 0.929 . S
C393 C385 1.433 . S
C393 N395 1.384 . S
N394 C390 1.427 . S
N394 C391 1.384 . S
N395 C387 1.427 . S
N395 C393 1.384 . S
H396 C402 0.930 . S
H397 C406 0.930 . S
H398 C411 0.929 . S
H399 C409 0.929 . S
H400 C404 0.929 . S
H401 C410 0.929 . S
C402 H396 0.930 . S
C402 C403 1.367 . S
C402 C410 1.378 . S
C403 C402 1.367 . S
C403 C411 1.433 . S
C404 H400 0.929 . S
C404 C406 1.378 . S
C404 C408 1.350 . S
C405 C408 1.463 . S
C405 C410 1.350 . S
C405 N413 1.427 . S
C406 H397 0.930 . S
C406 C404 1.378 . S
C406 C407 1.367 . S
C407 C406 1.367 . S
C407 C409 1.433 . S
C408 C404 1.350 . S
C408 C405 1.463 . S
C408 N412 1.427 . S
C409 H399 0.929 . S
C409 C407 1.433 . S
C409 N412 1.384 . S
C410 H401 0.929 . S
C410 C402 1.378 . S
C410 C405 1.350 . S
C411 H398 0.929 . S
C411 C403 1.433 . S
C411 N413 1.384 . S
N412 C408 1.427 . S
N412 C409 1.384 . S
N413 C405 1.427 . S
N413 C411 1.384 . S
H414 C420 0.930 1_655 S
H415 C424 0.930 . S
H416 C429 0.929 . S
H417 C427 0.929 . S
H418 C422 0.929 . S
H419 C428 0.918 1_655 S
C420 H414 0.930 1_455 S
C420 C421 1.367 . S
C420 C428 1.381 . S
C421 C420 1.367 . S
C421 C429 1.433 . S
C422 H418 0.929 . S
C422 C424 1.378 . S
C422 C426 1.350 . S
C423 C426 1.463 . S
C423 C428 1.357 . S
C423 N431 1.427 . S
C424 H415 0.930 . S
C424 C422 1.378 . S
C424 C425 1.367 1_455 S
C425 C424 1.367 1_655 S
C425 C427 1.433 . S
C426 C422 1.350 . S
C426 C423 1.463 . S
C426 N430 1.427 1_455 S
C427 H417 0.929 . S
C427 C425 1.433 . S
C427 N430 1.384 . S
C428 H419 0.918 1_455 S
C428 C420 1.381 . S
C428 C423 1.357 . S
C429 H416 0.929 . S
C429 C421 1.433 . S
C429 N431 1.384 . S
N430 C426 1.427 1_655 S
N430 C427 1.384 . S
N431 C423 1.427 . S
N431 C429 1.384 . S
H432 C438 0.930 . S
H433 C442 0.930 . S
H434 C447 0.929 . S
H435 C445 0.929 . S
H436 C440 0.929 1_455 S
H437 C446 0.929 . S
C438 H432 0.930 . S
C438 C439 1.367 1_655 S
C438 C446 1.378 . S
C439 C438 1.367 1_455 S
C439 C447 1.433 . S
C440 H436 0.929 1_655 S
C440 C442 1.378 . S
C440 C444 1.350 . S
C441 C444 1.463 . S
C441 C446 1.350 . S
C441 N449 1.427 1_655 S
C442 H433 0.930 . S
C442 C440 1.378 . S
C442 C443 1.367 . S
C443 C442 1.367 . S
C443 C445 1.433 . S
C444 C440 1.350 . S
C444 C441 1.463 . S
C444 N448 1.427 . S
C445 H435 0.929 . S
C445 C443 1.433 . S
C445 N448 1.384 . S
C446 H437 0.929 . S
C446 C438 1.378 . S
C446 C441 1.350 . S
C447 H434 0.929 . S
C447 C439 1.433 . S
C447 N449 1.384 . S
N448 C444 1.427 . S
N448 C445 1.384 . S
N449 C441 1.427 1_455 S
N449 C447 1.384 . S
H450 C456 0.930 . S
H451 C460 0.930 . S
H452 C465 0.929 . S
H453 C463 0.929 . S
H454 C458 0.929 . S
H455 C464 0.929 . S
C456 H450 0.930 . S
C456 C457 1.367 . S
C456 C464 1.378 . S
C457 C456 1.367 . S
C457 C465 1.433 . S
C458 H454 0.929 . S
C458 C460 1.378 . S
C458 C462 1.350 . S
C459 C462 1.463 . S
C459 C464 1.350 . S
C459 N467 1.427 . S
C460 H451 0.930 . S
C460 C458 1.378 . S
C460 C461 1.367 . S
C461 C460 1.367 . S
C461 C463 1.433 . S
C462 C458 1.350 . S
C462 C459 1.463 . S
C462 N466 1.427 . S
C463 H453 0.929 . S
C463 C461 1.433 . S
C463 N466 1.384 . S
C464 H455 0.929 . S
C464 C456 1.378 . S
C464 C459 1.350 . S
C465 H452 0.929 . S
C465 C457 1.433 . S
C465 N467 1.384 . S
N466 C462 1.427 . S
N466 C463 1.384 . S
N467 C459 1.427 . S
N467 C465 1.384 . S
H468 C474 0.930 . S
H469 C478 0.930 . S
H470 C483 0.929 . S
H471 C481 0.929 . S
H472 C476 0.929 . S
H473 C482 0.929 . S
C474 H468 0.930 . S
C474 C475 1.367 . S
C474 C482 1.378 . S
C475 C474 1.367 . S
C475 C483 1.433 . S
C476 H472 0.929 . S
C476 C478 1.378 . S
C476 C480 1.350 . S
C477 C480 1.463 . S
C477 C482 1.350 . S
C477 N485 1.427 . S
C478 H469 0.930 . S
C478 C476 1.378 . S
C478 C479 1.367 . S
C479 C478 1.367 . S
C479 C481 1.433 . S
C480 C476 1.350 . S
C480 C477 1.463 . S
C480 N484 1.427 . S
C481 H471 0.929 . S
C481 C479 1.433 . S
C481 N484 1.384 . S
C482 H473 0.929 . S
C482 C474 1.378 . S
C482 C477 1.350 . S
C483 H470 0.929 . S
C483 C475 1.433 . S
C483 N485 1.384 . S
N484 C480 1.427 . S
N484 C481 1.384 . S
N485 C477 1.427 . S
N485 C483 1.384 . S
H486 C492 0.930 . S
H487 C496 0.930 . S
H488 C501 0.929 . S
H489 C499 0.929 . S
H490 C494 0.929 . S
H491 C500 0.929 . S
C492 H486 0.930 . S
C492 C493 1.367 . S
C492 C500 1.378 . S
C493 C492 1.367 . S
C493 C501 1.433 . S
C494 H490 0.929 . S
C494 C496 1.378 . S
C494 C498 1.350 . S
C495 C498 1.463 . S
C495 C500 1.350 . S
C495 N503 1.427 . S
C496 H487 0.930 . S
C496 C494 1.378 . S
C496 C497 1.367 . S
C497 C496 1.367 . S
C497 C499 1.433 . S
C498 C494 1.350 . S
C498 C495 1.463 . S
C498 N502 1.427 . S
C499 H489 0.929 . S
C499 C497 1.433 . S
C499 N502 1.384 . S
C500 H491 0.929 . S
C500 C492 1.378 . S
C500 C495 1.350 . S
C501 H488 0.929 . S
C501 C493 1.433 . S
C501 N503 1.384 . S
N502 C498 1.427 . S
N502 C499 1.384 . S
N503 C495 1.427 . S
N503 C501 1.384 . S
H504 C510 0.930 . S
H505 C514 0.930 . S
H506 C519 0.929 . S
H507 C517 0.929 . S
H508 C512 0.929 . S
H509 C518 0.929 . S
C510 H504 0.930 . S
C510 C511 1.367 . S
C510 C518 1.378 . S
C511 C510 1.367 . S
C511 C519 1.433 . S
C512 H508 0.929 . S
C512 C514 1.378 . S
C512 C516 1.350 . S
C513 C516 1.463 . S
C513 C518 1.350 . S
C513 N521 1.427 . S
C514 H505 0.930 . S
C514 C512 1.378 . S
C514 C515 1.367 . S
C515 C514 1.367 . S
C515 C517 1.433 . S
C516 C512 1.350 . S
C516 C513 1.463 . S
C516 N520 1.427 . S
C517 H507 0.929 . S
C517 C515 1.433 . S
C517 N520 1.384 . S
C518 H509 0.929 . S
C518 C510 1.378 . S
C518 C513 1.350 . S
C519 H506 0.929 . S
C519 C511 1.433 . S
C519 N521 1.384 . S
N520 C516 1.427 . S
N520 C517 1.384 . S
N521 C513 1.427 . S
N521 C519 1.384 . S
H522 C528 0.930 . S
H523 C532 0.930 . S
H524 C537 0.929 . S
H525 C535 0.929 . S
H526 C530 0.929 . S
H527 C536 0.929 . S
C528 H522 0.930 . S
C528 C529 1.367 . S
C528 C536 1.378 . S
C529 C528 1.367 . S
C529 C537 1.433 . S
C530 H526 0.929 . S
C530 C532 1.378 1_554 S
C530 C534 1.350 . S
C531 C534 1.463 . S
C531 C536 1.350 . S
C531 N539 1.427 . S
C532 H523 0.930 . S
C532 C530 1.378 1_556 S
C532 C533 1.367 . S
C533 C532 1.367 . S
C533 C535 1.433 . S
C534 C530 1.350 . S
C534 C531 1.463 . S
C534 N538 1.427 . S
C535 H525 0.929 . S
C535 C533 1.433 . S
C535 N538 1.384 1_556 S
C536 H527 0.929 . S
C536 C528 1.378 . S
C536 C531 1.350 . S
C537 H524 0.929 . S
C537 C529 1.433 . S
C537 N539 1.384 . S
N538 C534 1.427 . S
N538 C535 1.384 1_554 S
N539 C531 1.427 . S
N539 C537 1.384 . S
H540 C546 0.930 . S
H541 C550 0.930 . S
H542 C555 0.929 . S
H543 C553 0.929 . S
H544 C548 0.929 . S
H545 C554 0.929 . S
C546 H540 0.930 . S
C546 C547 1.367 . S
C546 C554 1.378 . S
C547 C546 1.367 . S
C547 C555 1.433 . S
C548 H544 0.929 . S
C548 C550 1.378 . S
C548 C552 1.350 . S
C549 C552 1.463 . S
C549 C554 1.350 . S
C549 N557 1.427 . S
C550 H541 0.930 . S
C550 C548 1.378 . S
C550 C551 1.367 . S
C551 C550 1.367 . S
C551 C553 1.433 . S
C552 C548 1.350 . S
C552 C549 1.463 . S
C552 N556 1.427 . S
C553 H543 0.929 . S
C553 C551 1.433 . S
C553 N556 1.384 . S
C554 H545 0.929 . S
C554 C546 1.378 . S
C554 C549 1.350 . S
C555 H542 0.929 . S
C555 C547 1.433 . S
C555 N557 1.384 . S
N556 C552 1.427 . S
N556 C553 1.384 . S
N557 C549 1.427 . S
N557 C555 1.384 . S
H558 C564 0.930 . S
H559 C568 0.930 . S
H560 C573 0.929 . S
H561 C571 0.929 1_655 S
H562 C566 0.929 . S
H563 C572 0.929 . S
C564 H558 0.930 . S
C564 C565 1.367 . S
C564 C572 1.378 . S
C565 C564 1.367 . S
C565 C573 1.433 . S
C566 H562 0.929 . S
C566 C568 1.378 . S
C566 C570 1.350 . S
C567 C570 1.463 . S
C567 C572 1.350 1_556 S
C567 N575 1.427 . S
C568 H559 0.930 . S
C568 C566 1.378 . S
C568 C569 1.367 . S
C569 C568 1.367 . S
C569 C571 1.433 . S
C570 C566 1.350 . S
C570 C567 1.463 . S
C570 N574 1.427 . S
C571 H561 0.929 1_455 S
C571 C569 1.433 . S
C571 N574 1.384 . S
C572 H563 0.929 . S
C572 C564 1.378 . S
C572 C567 1.350 1_554 S
C573 H560 0.929 . S
C573 C565 1.433 . S
C573 N575 1.384 1_554 S
N574 C570 1.427 . S
N574 C571 1.384 . S
N575 C567 1.427 . S
N575 C573 1.384 1_556 S
H576 C582 0.930 . S
H577 C586 0.930 . S
H578 C591 0.929 . S
H579 C589 0.929 . S
H580 C584 0.929 . S
H581 C590 0.929 . S
C582 H576 0.930 . S
C582 C583 1.367 . S
C582 C590 1.378 . S
C583 C582 1.367 . S
C583 C591 1.433 . S
C584 H580 0.929 . S
C584 C586 1.378 . S
C584 C588 1.350 . S
C585 C588 1.463 . S
C585 C590 1.350 . S
C585 N593 1.427 . S
C586 H577 0.930 . S
C586 C584 1.378 . S
C586 C587 1.367 . S
C587 C586 1.367 . S
C587 C589 1.433 . S
C588 C584 1.350 . S
C588 C585 1.463 . S
C588 N592 1.427 . S
C589 H579 0.929 . S
C589 C587 1.433 . S
C589 N592 1.384 . S
C590 H581 0.929 . S
C590 C582 1.378 . S
C590 C585 1.350 . S
C591 H578 0.929 . S
C591 C583 1.433 . S
C591 N593 1.384 . S
N592 C588 1.427 . S
N592 C589 1.384 . S
N593 C585 1.427 . S
N593 C591 1.384 . S
H594 C600 0.930 . S
H595 C604 0.930 . S
H596 C609 0.929 . S
H597 C607 0.929 . S
H598 C602 0.929 . S
H599 C608 0.929 . S
C600 H594 0.930 . S
C600 C601 1.367 . S
C600 C608 1.378 . S
C601 C600 1.367 . S
C601 C609 1.433 . S
C602 H598 0.929 . S
C602 C604 1.378 . S
C602 C606 1.350 . S
C603 C606 1.463 . S
C603 C608 1.350 . S
C603 N611 1.427 . S
C604 H595 0.930 . S
C604 C602 1.378 . S
C604 C605 1.367 . S
C605 C604 1.367 . S
C605 C607 1.433 . S
C606 C602 1.350 . S
C606 C603 1.463 . S
C606 N610 1.427 . S
C607 H597 0.929 . S
C607 C605 1.433 . S
C607 N610 1.384 . S
C608 H599 0.929 . S
C608 C600 1.378 . S
C608 C603 1.350 . S
C609 H596 0.929 . S
C609 C601 1.433 . S
C609 N611 1.384 . S
N610 C606 1.427 . S
N610 C607 1.384 . S
N611 C603 1.427 . S
N611 C609 1.384 . S
H612 C618 0.930 . S
H613 C622 0.930 . S
H614 C627 0.929 . S
H615 C625 0.929 . S
H616 C620 0.929 . S
H617 C626 0.929 . S
C618 H612 0.930 . S
C618 C619 1.367 . S
C618 C626 1.378 . S
C619 C618 1.367 . S
C619 C627 1.433 . S
C620 H616 0.929 . S
C620 C622 1.378 . S
C620 C624 1.350 . S
C621 C624 1.463 . S
C621 C626 1.350 . S
C621 N629 1.427 . S
C622 H613 0.930 . S
C622 C620 1.378 . S
C622 C623 1.367 . S
C623 C622 1.367 . S
C623 C625 1.433 . S
C624 C620 1.350 . S
C624 C621 1.463 . S
C624 N628 1.427 . S
C625 H615 0.929 . S
C625 C623 1.433 . S
C625 N628 1.384 . S
C626 H617 0.929 . S
C626 C618 1.378 . S
C626 C621 1.350 . S
C627 H614 0.929 . S
C627 C619 1.433 . S
C627 N629 1.384 . S
N628 C624 1.427 . S
N628 C625 1.384 . S
N629 C621 1.427 . S
N629 C627 1.384 . S
H630 C636 0.930 . S
H631 C640 0.930 . S
H632 C645 0.929 . S
H633 C643 0.929 . S
H634 C638 0.929 . S
H635 C644 0.929 . S
C636 H630 0.930 . S
C636 C637 1.367 . S
C636 C644 1.378 . S
C637 C636 1.367 . S
C637 C645 1.433 . S
C638 H634 0.929 . S
C638 C640 1.378 . S
C638 C642 1.350 1_565 S
C639 C642 1.463 . S
C639 C644 1.350 . S
C639 N647 1.427 . S
C640 H631 0.930 . S
C640 C638 1.378 . S
C640 C641 1.367 . S
C641 C640 1.367 . S
C641 C643 1.433 . S
C642 C638 1.350 1_545 S
C642 C639 1.463 . S
C642 N646 1.427 . S
C643 H633 0.929 . S
C643 C641 1.433 . S
C643 N646 1.384 1_565 S
C644 H635 0.929 . S
C644 C636 1.378 . S
C644 C639 1.350 . S
C645 H632 0.929 . S
C645 C637 1.433 . S
C645 N647 1.384 . S
N646 C642 1.427 . S
N646 C643 1.384 1_545 S
N647 C639 1.427 . S
N647 C645 1.384 . S
H648 C654 0.930 . S
H649 C658 0.930 . S
H650 C663 0.929 . S
H651 C661 0.929 . S
H652 C656 0.929 . S
H653 C662 0.929 . S
C654 H648 0.930 . S
C654 C655 1.367 . S
C654 C662 1.378 . S
C655 C654 1.367 . S
C655 C663 1.433 . S
C656 H652 0.929 . S
C656 C658 1.378 . S
C656 C660 1.350 . S
C657 C660 1.463 . S
C657 C662 1.350 . S
C657 N665 1.427 . S
C658 H649 0.930 . S
C658 C656 1.378 . S
C658 C659 1.367 . S
C659 C658 1.367 . S
C659 C661 1.433 . S
C660 C656 1.350 . S
C660 C657 1.463 . S
C660 N664 1.427 . S
C661 H651 0.929 . S
C661 C659 1.433 . S
C661 N664 1.384 . S
C662 H653 0.929 . S
C662 C654 1.378 . S
C662 C657 1.350 . S
C663 H650 0.929 . S
C663 C655 1.433 . S
C663 N665 1.384 . S
N664 C660 1.427 . S
N664 C661 1.384 . S
N665 C657 1.427 . S
N665 C663 1.384 . S
H666 C672 0.930 . S
H667 C676 0.930 1_556 S
H668 C681 0.929 . S
H669 C679 0.929 . S
H670 C674 0.929 . S
H671 C680 0.929 . S
C672 H666 0.930 . S
C672 C673 1.367 . S
C672 C680 1.378 1_545 S
C673 C672 1.367 . S
C673 C681 1.433 . S
C674 H670 0.929 . S
C674 C676 1.378 . S
C674 C678 1.350 . S
C675 C678 1.463 . S
C675 C680 1.350 . S
C675 N683 1.427 1_565 S
C676 H667 0.930 1_554 S
C676 C674 1.378 . S
C676 C677 1.367 . S
C677 C676 1.367 . S
C677 C679 1.433 . S
C678 C674 1.350 . S
C678 C675 1.463 . S
C678 N682 1.427 . S
C679 H669 0.929 . S
C679 C677 1.433 . S
C679 N682 1.384 . S
C680 H671 0.929 . S
C680 C672 1.378 1_565 S
C680 C675 1.350 . S
C681 H668 0.929 . S
C681 C673 1.433 . S
C681 N683 1.384 . S
N682 C678 1.427 . S
N682 C679 1.384 . S
N683 C675 1.427 1_545 S
N683 C681 1.384 . S
H684 C690 0.930 . S
H685 C694 0.930 . S
H686 C699 0.929 . S
H687 C697 0.929 . S
H688 C692 0.929 . S
H689 C698 0.929 . S
C690 H684 0.930 . S
C690 C691 1.367 . S
C690 C698 1.378 . S
C691 C690 1.367 . S
C691 C699 1.433 . S
C692 H688 0.929 . S
C692 C694 1.378 . S
C692 C696 1.350 . S
C693 C696 1.463 . S
C693 C698 1.350 . S
C693 N701 1.427 . S
C694 H685 0.930 . S
C694 C692 1.378 . S
C694 C695 1.367 . S
C695 C694 1.367 . S
C695 C697 1.433 . S
C696 C692 1.350 . S
C696 C693 1.463 . S
C696 N700 1.427 . S
C697 H687 0.929 . S
C697 C695 1.433 . S
C697 N700 1.384 . S
C698 H689 0.929 . S
C698 C690 1.378 . S
C698 C693 1.350 . S
C699 H686 0.929 . S
C699 C691 1.433 . S
C699 N701 1.384 . S
N700 C696 1.427 . S
N700 C697 1.384 . S
N701 C693 1.427 . S
N701 C699 1.384 . S
H702 C708 0.930 . S
H703 C712 0.930 1_554 S
H704 C717 0.929 . S
H705 C715 0.929 . S
H706 C710 0.929 . S
H707 C716 0.929 . S
C708 H702 0.930 . S
C708 C709 1.367 . S
C708 C716 1.378 . S
C709 C708 1.367 . S
C709 C717 1.433 . S
C710 H706 0.929 . S
C710 C712 1.378 . S
C710 C714 1.350 . S
C711 C714 1.463 . S
C711 C716 1.350 . S
C711 N719 1.427 . S
C712 H703 0.930 1_556 S
C712 C710 1.378 . S
C712 C713 1.367 . S
C713 C712 1.367 . S
C713 C715 1.433 . S
C714 C710 1.350 . S
C714 C711 1.463 . S
C714 N718 1.427 . S
C715 H705 0.929 . S
C715 C713 1.433 . S
C715 N718 1.384 . S
C716 H707 0.929 . S
C716 C708 1.378 . S
C716 C711 1.350 . S
C717 H704 0.929 . S
C717 C709 1.433 . S
C717 N719 1.384 . S
N718 C714 1.427 . S
N718 C715 1.384 . S
N719 C711 1.427 . S
N719 C717 1.384 . S
H720 C726 0.930 . S
H721 C730 0.930 . S
H722 C735 0.929 . S
H723 C733 0.929 . S
H724 C728 0.929 . S
H725 C734 0.929 . S
C726 H720 0.930 . S
C726 C727 1.367 . S
C726 C734 1.378 . S
C727 C726 1.367 . S
C727 C735 1.433 . S
C728 H724 0.929 . S
C728 C730 1.378 . S
C728 C732 1.350 . S
C729 C732 1.463 . S
C729 C734 1.350 . S
C729 N737 1.427 . S
C730 H721 0.930 . S
C730 C728 1.378 . S
C730 C731 1.367 . S
C731 C730 1.367 . S
C731 C733 1.433 . S
C732 C728 1.350 . S
C732 C729 1.463 . S
C732 N736 1.427 . S
C733 H723 0.929 . S
C733 C731 1.433 . S
C733 N736 1.384 . S
C734 H725 0.929 . S
C734 C726 1.378 . S
C734 C729 1.350 . S
C735 H722 0.929 . S
C735 C727 1.433 . S
C735 N737 1.384 . S
N736 C732 1.427 . S
N736 C733 1.384 . S
N737 C729 1.427 . S
N737 C735 1.384 . S
H738 C744 0.930 . S
H739 C748 0.930 . S
H740 C753 0.929 . S
H741 C751 0.929 . S
H742 C746 0.929 . S
H743 C752 0.929 . S
C744 H738 0.930 . S
C744 C745 1.367 . S
C744 C752 1.378 . S
C745 C744 1.367 . S
C745 C753 1.433 . S
C746 H742 0.929 . S
C746 C748 1.378 . S
C746 C750 1.350 . S
C747 C750 1.463 . S
C747 C752 1.350 . S
C747 N755 1.427 . S
C748 H739 0.930 . S
C748 C746 1.378 . S
C748 C749 1.367 . S
C749 C748 1.367 . S
C749 C751 1.433 . S
C750 C746 1.350 . S
C750 C747 1.463 . S
C750 N754 1.427 . S
C751 H741 0.929 . S
C751 C749 1.433 . S
C751 N754 1.384 . S
C752 H743 0.929 . S
C752 C744 1.378 . S
C752 C747 1.350 . S
C753 H740 0.929 . S
C753 C745 1.433 . S
C753 N755 1.384 . S
N754 C750 1.427 . S
N754 C751 1.384 . S
N755 C747 1.427 . S
N755 C753 1.384 . S
H756 C762 0.930 . S
H757 C766 0.930 . S
H758 C771 0.929 . S
H759 C769 0.929 . S
H760 C764 0.929 . S
H761 C770 0.929 . S
C762 H756 0.930 . S
C762 C763 1.367 . S
C762 C770 1.378 . S
C763 C762 1.367 . S
C763 C771 1.433 . S
C764 H760 0.929 . S
C764 C766 1.378 . S
C764 C768 1.350 . S
C765 C768 1.463 . S
C765 C770 1.350 . S
C765 N773 1.427 . S
C766 H757 0.930 . S
C766 C764 1.378 . S
C766 C767 1.367 . S
C767 C766 1.367 . S
C767 C769 1.433 . S
C768 C764 1.350 . S
C768 C765 1.463 . S
C768 N772 1.427 . S
C769 H759 0.929 . S
C769 C767 1.433 . S
C769 N772 1.384 . S
C770 H761 0.929 . S
C770 C762 1.378 . S
C770 C765 1.350 . S
C771 H758 0.929 . S
C771 C763 1.433 . S
C771 N773 1.384 . S
N772 C768 1.427 . S
N772 C769 1.384 . S
N773 C765 1.427 . S
N773 C771 1.384 . S
H774 C780 0.930 . S
H775 C784 0.930 . S
H776 C789 0.929 . S
H777 C787 0.929 . S
H778 C782 0.929 . S
H779 C788 0.929 . S
C780 H774 0.930 . S
C780 C781 1.367 . S
C780 C788 1.378 . S
C781 C780 1.367 . S
C781 C789 1.433 . S
C782 H778 0.929 . S
C782 C784 1.378 . S
C782 C786 1.350 . S
C783 C786 1.463 . S
C783 C788 1.350 . S
C783 N791 1.427 . S
C784 H775 0.930 . S
C784 C782 1.378 . S
C784 C785 1.367 . S
C785 C784 1.367 . S
C785 C787 1.433 . S
C786 C782 1.350 . S
C786 C783 1.463 . S
C786 N790 1.427 . S
C787 H777 0.929 . S
C787 C785 1.433 . S
C787 N790 1.384 . S
C788 H779 0.929 . S
C788 C780 1.378 . S
C788 C783 1.350 . S
C789 H776 0.929 . S
C789 C781 1.433 . S
C789 N791 1.384 . S
N790 C786 1.427 . S
N790 C787 1.384 . S
N791 C783 1.427 . S
N791 C789 1.384 . S
H792 C798 0.930 . S
H793 C802 0.930 . S
H794 C807 0.929 . S
H795 C805 0.929 . S
H796 C800 0.929 . S
H797 C806 0.929 . S
C798 H792 0.930 . S
C798 C799 1.367 . S
C798 C806 1.378 . S
C799 C798 1.367 . S
C799 C807 1.433 . S
C800 H796 0.929 . S
C800 C802 1.378 1_455 S
C800 C804 1.350 . S
C801 C804 1.463 . S
C801 C806 1.350 . S
C801 N809 1.427 . S
C802 H793 0.930 . S
C802 C800 1.378 1_655 S
C802 C803 1.367 . S
C803 C802 1.367 . S
C803 C805 1.433 . S
C804 C800 1.350 . S
C804 C801 1.463 . S
C804 N808 1.427 1_455 S
C805 H795 0.929 . S
C805 C803 1.433 . S
C805 N808 1.384 . S
C806 H797 0.929 . S
C806 C798 1.378 . S
C806 C801 1.350 . S
C807 H794 0.929 . S
C807 C799 1.433 . S
C807 N809 1.384 . S
N808 C804 1.427 1_655 S
N808 C805 1.384 . S
N809 C801 1.427 . S
N809 C807 1.384 . S
H810 C816 0.930 . S
H811 C820 0.930 . S
H812 C825 0.929 . S
H813 C823 0.929 . S
H814 C818 0.929 . S
H815 C824 0.929 . S
C816 H810 0.930 . S
C816 C817 1.367 . S
C816 C824 1.378 . S
C817 C816 1.367 . S
C817 C825 1.433 . S
C818 H814 0.929 . S
C818 C820 1.378 . S
C818 C822 1.350 . S
C819 C822 1.463 . S
C819 C824 1.350 . S
C819 N827 1.427 . S
C820 H811 0.930 . S
C820 C818 1.378 . S
C820 C821 1.367 . S
C821 C820 1.367 . S
C821 C823 1.433 . S
C822 C818 1.350 . S
C822 C819 1.463 . S
C822 N826 1.427 . S
C823 H813 0.929 . S
C823 C821 1.433 . S
C823 N826 1.384 . S
C824 H815 0.929 . S
C824 C816 1.378 . S
C824 C819 1.350 . S
C825 H812 0.929 . S
C825 C817 1.433 . S
C825 N827 1.384 . S
N826 C822 1.427 . S
N826 C823 1.384 . S
N827 C819 1.427 . S
N827 C825 1.384 . S
H828 C834 0.930 . S
H829 C838 0.930 . S
H830 C843 0.929 . S
H831 C841 0.929 . S
H832 C836 0.929 . S
H833 C842 0.929 . S
C834 H828 0.930 . S
C834 C835 1.367 . S
C834 C842 1.378 . S
C835 C834 1.367 . S
C835 C843 1.433 . S
C836 H832 0.929 . S
C836 C838 1.378 . S
C836 C840 1.350 . S
C837 C840 1.463 . S
C837 C842 1.350 . S
C837 N845 1.427 . S
C838 H829 0.930 . S
C838 C836 1.378 . S
C838 C839 1.367 . S
C839 C838 1.367 . S
C839 C841 1.433 . S
C840 C836 1.350 . S
C840 C837 1.463 . S
C840 N844 1.427 . S
C841 H831 0.929 . S
C841 C839 1.433 . S
C841 N844 1.384 . S
C842 H833 0.929 . S
C842 C834 1.378 . S
C842 C837 1.350 . S
C843 H830 0.929 . S
C843 C835 1.433 . S
C843 N845 1.384 . S
N844 C840 1.427 . S
N844 C841 1.384 . S
N845 C837 1.427 . S
N845 C843 1.384 . S
H846 C852 0.930 . S
H847 C856 0.930 . S
H848 C861 0.929 . S
H849 C859 0.929 . S
H850 C854 0.929 . S
H851 C860 0.929 . S
C852 H846 0.930 . S
C852 C853 1.367 . S
C852 C860 1.378 . S
C853 C852 1.367 . S
C853 C861 1.433 . S
C854 H850 0.929 . S
C854 C856 1.378 . S
C854 C858 1.350 . S
C855 C858 1.463 . S
C855 C860 1.350 . S
C855 N863 1.427 . S
C856 H847 0.930 . S
C856 C854 1.378 . S
C856 C857 1.367 . S
C857 C856 1.367 . S
C857 C859 1.433 . S
C858 C854 1.350 . S
C858 C855 1.463 . S
C858 N862 1.427 . S
C859 H849 0.929 . S
C859 C857 1.433 . S
C859 N862 1.384 . S
C860 H851 0.929 . S
C860 C852 1.378 . S
C860 C855 1.350 . S
C861 H848 0.929 . S
C861 C853 1.433 . S
C861 N863 1.384 . S
N862 C858 1.427 . S
N862 C859 1.384 . S
N863 C855 1.427 . S
N863 C861 1.384 . S
H864 C870 0.930 . S
H865 C874 0.930 . S
H866 C879 0.929 . S
H867 C877 0.929 . S
H868 C872 0.929 . S
H869 C878 0.929 . S
C870 H864 0.930 . S
C870 C871 1.367 . S
C870 C878 1.378 . S
C871 C870 1.367 . S
C871 C879 1.433 . S
C872 H868 0.929 . S
C872 C874 1.378 . S
C872 C876 1.350 . S
C873 C876 1.463 . S
C873 C878 1.350 . S
C873 N881 1.427 . S
C874 H865 0.930 . S
C874 C872 1.378 . S
C874 C875 1.367 . S
C875 C874 1.367 . S
C875 C877 1.433 . S
C876 C872 1.350 . S
C876 C873 1.463 . S
C876 N880 1.427 . S
C877 H867 0.929 . S
C877 C875 1.433 . S
C877 N880 1.384 . S
C878 H869 0.929 . S
C878 C870 1.378 . S
C878 C873 1.350 . S
C879 H866 0.929 . S
C879 C871 1.433 . S
C879 N881 1.384 . S
N880 C876 1.427 . S
N880 C877 1.384 . S
N881 C873 1.427 . S
N881 C879 1.384 . S
H882 C888 0.930 1_565 S
H883 C892 0.930 . S
H884 C897 0.929 . S
H885 C895 0.929 . S
H886 C890 0.929 . S
H887 C896 0.929 . S
C888 H882 0.930 1_545 S
C888 C889 1.367 . S
C888 C896 1.378 . S
C889 C888 1.367 . S
C889 C897 1.433 . S
C890 H886 0.929 . S
C890 C892 1.378 1_655 S
C890 C894 1.350 . S
C891 C894 1.463 . S
C891 C896 1.350 . S
C891 N899 1.427 . S
C892 H883 0.930 . S
C892 C890 1.378 1_455 S
C892 C893 1.367 . S
C893 C892 1.367 . S
C893 C895 1.433 . S
C894 C890 1.350 . S
C894 C891 1.463 . S
C894 N898 1.427 . S
C895 H885 0.929 . S
C895 C893 1.433 . S
C895 N898 1.384 1_455 S
C896 H887 0.929 . S
C896 C888 1.378 . S
C896 C891 1.350 . S
C897 H884 0.929 . S
C897 C889 1.433 . S
C897 N899 1.384 . S
N898 C894 1.427 . S
N898 C895 1.384 1_655 S
N899 C891 1.427 . S
N899 C897 1.384 . S
C259 C15 1.470 . S
C263 C249 1.468 . S
C277 C207 1.468 . S
C281 C36 1.473 1_655 S
C295 C60 1.468 . S
C299 C183 1.473 . S
C313 C81 1.472 . S
C317 C228 1.467 . S
C331 C102 1.468 . S
C335 C225 1.473 1_545 S
C349 C123 1.468 1_455 S
C353 C246 1.472 . S
C367 C204 1.473 1_565 S
C371 C141 1.468 . S
C385 C162 1.468 . S
C389 C186 1.473 . S
C403 C78 1.468 . S
C407 C99 1.471 . S
C421 C18 1.471 . S
C425 C120 1.471 . S
C439 C39 1.467 . S
C443 C144 1.472 1_556 S
C457 C165 1.473 . S
C461 C57 1.468 1_554 S
C475 C13 1.144 . S
C479 C182 1.198 . S
C493 C34 1.140 . S
C497 C227 1.209 . S
C511 C248 1.211 . S
C515 C58 1.146 . S
C529 C79 1.142 . S
C533 C206 1.210 . S
C547 C100 1.163 . S
C551 C203 1.197 . S
C565 C185 1.211 . S
C569 C121 1.147 . S
C583 C224 1.211 . S
C587 C139 1.144 . S
C601 C245 1.203 . S
C605 C160 1.163 . S
C619 C17 1.204 . S
C623 C76 1.162 . S
C637 C16 1.147 . S
C641 C38 1.211 . S
C655 C37 1.156 . S
C659 C56 1.195 . S
C673 C77 1.195 . S
C677 C55 1.154 . S
C691 C118 1.144 . S
C695 C98 1.211 . S
C709 C119 1.195 . S
C713 C142 1.158 . S
C727 C143 1.209 . S
C731 C163 1.156 . S
C745 C97 1.150 . S
C749 C164 1.195 . S
C763 C184 1.164 . S
C767 C80 1.199 . S
C781 C122 1.208 . S
C785 C205 1.158 . S
C799 C181 1.157 . S
C803 C140 1.195 . S
C817 C226 1.160 . S
C821 C161 1.195 . S
C835 C101 1.199 . S
C839 C247 1.164 . S
C853 C244 1.151 . S
C857 C35 1.195 . S
C871 C59 1.201 . S
C875 C202 1.141 . S
C889 C223 1.162 . S
C893 C14 1.196 . S
