# Generated by pormake.
# Topology sqp, (5)-cn, num edge types: 1
# Building blocks:
#     Node 0, Type 0, BuildingBlock: XOMCOT_clean_sbu_0, # of connection points: 5
#     Node 1, Type 0, BuildingBlock: XOMCOT_clean_sbu_0, # of connection points: 5
#     Node 2, Type 0, BuildingBlock: XOMCOT_clean_sbu_0, # of connection points: 5
#     Node 3, Type 0, BuildingBlock: XOMCOT_clean_sbu_0, # of connection points: 5
#     Edge 4, Type (0, 0), BuildingBlock: KIFKEQ_clean_linker_1, # of connection points: 2
#     Edge 5, Type (0, 0), BuildingBlock: KIFKEQ_clean_linker_1, # of connection points: 2
#     Edge 6, Type (0, 0), BuildingBlock: KIFKEQ_clean_linker_1, # of connection points: 2
#     Edge 7, Type (0, 0), BuildingBlock: KIFKEQ_clean_linker_1, # of connection points: 2
#     Edge 8, Type (0, 0), BuildingBlock: KIFKEQ_clean_linker_1, # of connection points: 2
#     Edge 9, Type (0, 0), BuildingBlock: KIFKEQ_clean_linker_1, # of connection points: 2
#     Edge 10, Type (0, 0), BuildingBlock: KIFKEQ_clean_linker_1, # of connection points: 2
#     Edge 11, Type (0, 0), BuildingBlock: KIFKEQ_clean_linker_1, # of connection points: 2
#     Edge 12, Type (0, 0), BuildingBlock: KIFKEQ_clean_linker_1, # of connection points: 2
#     Edge 13, Type (0, 0), BuildingBlock: KIFKEQ_clean_linker_1, # of connection points: 2
# Relax obj value: 0.120
# Max RMSD: 0.201
# Mean RMSD: 0.201
data_MOF--net-sqp--node1-XOMCOT_clean_sbu_0--edge1-KIFKEQ_clean_linker_1
_symmetry_space_group_name_H-M    P1
_symmetry_Int_Tables_number       1
_symmetry_cell_setting            triclinic
loop_
_symmetry_equiv_pos_as_xyz
'x, y, z'
_cell_length_a     24.406293
_cell_length_b     19.684369
_cell_length_c     48.018926
_cell_angle_alpha  90.379567
_cell_angle_beta   89.34973
_cell_angle_gamma 89.889065
loop_
_atom_site_label
_atom_site_type_symbol
_atom_site_fract_x
_atom_site_fract_y
_atom_site_fract_z
_atom_type_partial_charge
Co0 Co 0.0223 0.04831 0.30429 0.0
C1 C 0.93161 0.15198 0.30199 0.0
C2 C 1.00461 0.18563 0.2813 0.0
C3 C 0.96538 0.235 0.27865 0.0
N4 N 0.98469 0.13441 0.29706 0.0
N5 N 0.91955 0.21389 0.29165 0.0
H6 H 0.90161 0.11943 0.31187 0.0
H7 H 0.0437 0.18601 0.27061 0.0
C8 C 0.1185 0.14228 0.30386 0.0
O9 O 0.09347 0.17732 0.32363 0.0
N10 N 0.05975 0.96282 0.30983 0.0
C11 C 0.04379 0.91086 0.32615 0.0
C12 C 0.07963 0.85735 0.322 0.0
C13 C 0.10501 0.94059 0.29614 0.0
N14 N 0.11808 0.87648 0.30326 0.0
C15 C 0.98815 0.0882 0.35931 0.0
C16 C 0.08682 0.06409 0.38511 0.0
C17 C 0.04102 0.08199 0.40155 0.0
C18 C 0.99143 0.09491 0.38816 0.0
C19 C 0.08171 0.05788 0.35621 0.0
N20 N 0.03287 0.07069 0.34353 0.0
H21 H 0.94857 0.09314 0.35002 0.0
H22 H 0.11682 0.04107 0.34407 0.0
H23 H 1.00805 0.91139 0.33968 0.0
H24 H 0.12681 0.96963 0.28051 0.0
O25 O 0.95335 1.00306 0.30871 0.0
O26 O 0.99716 0.01426 0.26836 0.0
O27 O 0.0951 0.09042 0.29301 0.0
C28 C 0.95514 0.99017 0.2822 0.0
H29 H 0.969 0.28089 0.26645 0.0
H30 H 0.0775 0.80808 0.33184 0.0
H31 H 0.12599 0.05337 0.39451 0.0
H32 H 0.95444 0.10634 0.39996 0.0
Co33 Co 0.03286 0.96853 0.70637 0.0
C34 C 0.12858 0.06312 0.71255 0.0
C35 C 0.05164 0.11576 0.71159 0.0
C36 C 0.09267 0.16296 0.71361 0.0
N37 N 0.07379 0.05286 0.71077 0.0
N38 N 0.14102 0.13006 0.71422 0.0
H39 H 0.15885 0.02292 0.71243 0.0
H40 H 1.00849 0.1275 0.7108 0.0
C41 C 0.91439 1.01101 0.70991 0.0
O42 O 0.90358 0.96813 0.68962 0.0
N43 N 0.99144 0.88438 0.70255 0.0
C44 C 0.99341 0.83766 0.68186 0.0
C45 C 0.95705 0.7864 0.68788 0.0
C46 C 0.95506 0.85929 0.72132 0.0
N47 N 0.93266 0.80015 0.7126 0.0
C48 C 0.05683 0.95639 0.64821 0.0
C49 C 0.99014 0.05902 0.6292 0.0
C50 C 0.02129 0.02115 0.6099 0.0
C51 C 0.05537 0.96989 0.61985 0.0
C52 C 0.99242 0.04328 0.65762 0.0
N53 N 0.02397 0.99053 0.66685 0.0
H54 H 0.0849 0.91778 0.65496 0.0
H55 H 0.96955 0.07497 0.67191 0.0
H56 H 0.01949 0.8391 0.66368 0.0
H57 H 0.94405 0.88503 0.74057 0.0
O58 O 0.09964 0.91697 0.70298 0.0
O59 O 0.05675 0.93773 0.74291 0.0
O60 O 0.96355 0.01794 0.71845 0.0
C61 C 0.0971 0.90782 0.72965 0.0
H62 H 0.08721 0.21745 0.71525 0.0
H63 H 0.94963 0.74193 0.6751 0.0
H64 H 0.96417 0.10025 0.62241 0.0
H65 H 0.08177 0.94103 0.60584 0.0
Co66 Co 0.51812 0.47016 0.80475 0.0
C67 C 0.42241 0.56518 0.79965 0.0
C68 C 0.49939 0.61748 0.79977 0.0
C69 C 0.45826 0.66479 0.79798 0.0
N70 N 0.47724 0.55475 0.80099 0.0
N71 N 0.40989 0.63206 0.79788 0.0
H72 H 0.39215 0.52513 0.80003 0.0
H73 H 0.5426 0.629 0.79998 0.0
C74 C 0.63633 0.51426 0.80104 0.0
O75 O 0.64782 0.47365 0.8218 0.0
N76 N 0.55941 0.38577 0.80787 0.0
C77 C 0.55176 0.33438 0.82598 0.0
C78 C 0.58644 0.28169 0.81889 0.0
C79 C 0.59776 0.3625 0.78959 0.0
N80 N 0.61548 0.29954 0.79608 0.0
C81 C 0.49688 0.45672 0.86299 0.0
C82 C 0.56237 0.56062 0.88217 0.0
C83 C 0.53264 0.52181 0.9015 0.0
C84 C 0.49904 0.47001 0.89142 0.0
C85 C 0.55904 0.54544 0.85363 0.0
N86 N 0.52823 0.49199 0.84431 0.0
H87 H 0.46869 0.41825 0.85624 0.0
H88 H 0.58058 0.57798 0.83934 0.0
H89 H 0.52203 0.33318 0.84268 0.0
H90 H 0.61148 0.39049 0.77149 0.0
O91 O 0.45125 0.41924 0.80842 0.0
O92 O 0.49308 0.43916 0.76827 0.0
O93 O 0.58713 0.51895 0.79231 0.0
C94 C 0.45306 0.40965 0.78171 0.0
H95 H 0.46366 0.71913 0.79602 0.0
H96 H 0.58989 0.23382 0.82969 0.0
H97 H 0.58796 0.60229 0.88897 0.0
H98 H 0.47329 0.44066 0.90536 0.0
Co99 Co 0.53634 0.54407 0.20721 0.0
C100 C 0.6283 0.64239 0.2172 0.0
C101 C 0.55586 0.68972 0.20139 0.0
C102 C 0.59575 0.73842 0.20402 0.0
N103 N 0.57607 0.6294 0.20961 0.0
N104 N 0.64133 0.70874 0.21391 0.0
H105 H 0.65669 0.60426 0.22435 0.0
H106 H 0.51505 0.69761 0.19348 0.0
C107 C 0.41679 0.58034 0.22109 0.0
O108 O 0.39892 0.52255 0.21103 0.0
N109 N 0.49724 0.45845 0.20488 0.0
C110 C 0.49249 0.4167 0.18267 0.0
C111 C 0.46055 0.36191 0.19021 0.0
C112 C 0.47092 0.4266 0.22593 0.0
N113 N 0.44631 0.36888 0.21731 0.0
C114 C 0.57126 0.56936 0.15199 0.0
C115 C 0.4703 0.57252 0.12668 0.0
C116 C 0.51782 0.57832 0.11014 0.0
C117 C 0.56871 0.5778 0.12327 0.0
C118 C 0.47468 0.56487 0.15555 0.0
N119 N 0.52485 0.56202 0.16782 0.0
H120 H 0.61104 0.5677 0.16159 0.0
H121 H 0.43775 0.55906 0.16753 0.0
H122 H 0.50989 0.42596 0.16225 0.0
H123 H 0.46704 0.44766 0.24674 0.0
O124 O 0.60312 0.49268 0.20317 0.0
O125 O 0.56294 0.51738 0.24364 0.0
O126 O 0.46768 0.59629 0.21962 0.0
C127 C 0.60222 0.48607 0.23007 0.0
H128 H 0.59126 0.79181 0.19928 0.0
H129 H 0.4465 0.32203 0.17642 0.0
H130 H 0.4301 0.57301 0.11736 0.0
H131 H 0.60653 0.58122 0.11135 0.0
H132 H 0.09486 0.99144 0.4345 0.0
H133 H 0.99076 0.16914 0.43881 0.0
H134 H 0.09032 0.98192 0.48491 0.0
H135 H 0.98416 0.15761 0.48933 0.0
H136 H 0.02646 0.14427 0.58341 0.0
H137 H 0.03407 0.16414 0.5332 0.0
H138 H 0.02059 0.94823 0.51803 0.0
H139 H 1.01366 0.92864 0.56789 0.0
C140 C 0.0716 0.02909 0.4462 0.0
C141 C 0.04299 0.08089 0.43252 0.0
C142 C 0.06828 0.02299 0.47512 0.0
C143 C 0.03609 0.06831 0.49114 0.0
C144 C 1.00933 0.12187 0.47763 0.0
C145 C 1.01274 0.12809 0.44865 0.0
C146 C 0.02443 0.10131 0.56925 0.0
C147 C 0.02001 0.03486 0.57956 0.0
C148 C 0.02892 0.11261 0.54052 0.0
C149 C 0.02893 0.05765 0.52161 0.0
C150 C 0.02233 0.99156 0.53201 0.0
C151 C 0.01803 0.98032 0.56058 0.0
H152 H 0.57663 0.65825 0.0741 0.0
H153 H 0.45404 0.50035 0.07637 0.0
H154 H 0.58124 0.64892 0.02329 0.0
H155 H 0.45788 0.49206 0.0257 0.0
H156 H 0.53694 0.42874 0.94314 0.0
H157 H 0.53016 0.44864 0.99308 0.0
H158 H 0.52662 0.66511 0.97929 0.0
H159 H 0.53259 0.64517 0.92889 0.0
C160 C 0.55022 0.62216 0.06371 0.0
C161 C 0.51522 0.5797 0.07925 0.0
C162 C 0.55262 0.61717 0.03464 0.0
C163 C 0.52042 0.5692 0.02057 0.0
C164 C 0.48379 0.52881 0.03603 0.0
C165 C 0.48111 0.53411 0.06503 0.0
C166 C 0.53448 0.48066 0.95068 0.0
C167 C 0.53457 0.53534 0.93198 0.0
C168 C 0.53047 0.49201 0.97931 0.0
C169 C 0.52686 0.55837 0.99007 0.0
C170 C 0.52928 0.61339 0.97155 0.0
C171 C 0.53297 0.60197 0.94274 0.0
H172 H 0.16702 0.11332 0.25331 0.0
H173 H 0.19005 0.22727 0.3294 0.0
H174 H 0.25011 0.16385 0.23369 0.0
H175 H 0.27409 0.27531 0.31048 0.0
H176 H 0.37475 0.41731 0.25598 0.0
H177 H 0.29925 0.35716 0.27771 0.0
H178 H 0.34714 0.17342 0.23391 0.0
H179 H 0.42232 0.2351 0.21143 0.0
C180 C 0.19034 0.1483 0.266 0.0
C181 C 0.17158 0.16708 0.29274 0.0
C182 C 0.23821 0.17704 0.25484 0.0
C183 C 0.26872 0.2245 0.27033 0.0
C184 C 0.25105 0.2405 0.29759 0.0
C185 C 0.20293 0.21261 0.30854 0.0
C186 C 0.3699 0.3638 0.25135 0.0
C187 C 0.40479 0.33091 0.23208 0.0
C188 C 0.32644 0.32905 0.26387 0.0
C189 C 0.3169 0.26007 0.25773 0.0
C190 C 0.35261 0.22669 0.23887 0.0
C191 C 0.39589 0.26184 0.22609 0.0
H192 H 0.90095 0.34661 0.30089 0.0
H193 H 0.8214 0.15853 0.27936 0.0
H194 H 0.81665 0.40929 0.29107 0.0
H195 H 0.73696 0.22123 0.26901 0.0
H196 H 0.65584 0.37895 0.20718 0.0
H197 H 0.7257 0.30768 0.22811 0.0
H198 H 0.71141 0.42267 0.3047 0.0
H199 H 0.63982 0.49371 0.28377 0.0
C200 C 0.86486 0.31873 0.29464 0.0
C201 C 0.86746 0.24799 0.29078 0.0
C202 C 0.81665 0.35441 0.28917 0.0
C203 C 0.77043 0.32011 0.27919 0.0
C204 C 0.77213 0.24884 0.27666 0.0
C205 C 0.82014 0.21296 0.2827 0.0
C206 C 0.66722 0.38878 0.22857 0.0
C207 C 0.64277 0.44216 0.24381 0.0
C208 C 0.7068 0.34749 0.24063 0.0
C209 C 0.72368 0.35939 0.26806 0.0
C210 C 0.69889 0.41236 0.28353 0.0
C211 C 0.6581 0.45289 0.2716 0.0
H212 H 0.71457 0.67366 0.25339 0.0
H213 H 0.68385 0.82033 0.18894 0.0
H214 H 0.79567 0.73742 0.26729 0.0
H215 H 0.76419 0.88489 0.20323 0.0
H216 H 0.93862 0.95892 0.22669 0.0
H217 H 0.86722 0.88459 0.20748 0.0
H218 H 0.80476 0.84902 0.29059 0.0
H219 H 0.87498 0.92211 0.30954 0.0
C220 C 0.72551 0.71892 0.24194 0.0
C221 C 0.69227 0.74234 0.22031 0.0
C222 C 0.77174 0.75578 0.25002 0.0
C223 C 0.78603 0.81666 0.23654 0.0
C224 C 0.75443 0.83817 0.21398 0.0
C225 C 0.708 0.80156 0.20602 0.0
C226 C 0.90956 0.9351 0.24074 0.0
C227 C 0.91242 0.94663 0.2696 0.0
C228 C 0.86873 0.89265 0.22979 0.0
C229 C 0.83068 0.86034 0.24756 0.0
C230 C 0.83396 0.87197 0.27635 0.0
C231 C 0.87406 0.91459 0.28718 0.0
H232 H 0.1123 0.74601 0.28663 0.0
H233 H 0.22269 0.9153 0.29409 0.0
H234 H 0.18548 0.67692 0.2665 0.0
H235 H 0.2979 0.84528 0.27586 0.0
H236 H 0.41164 0.71952 0.21893 0.0
H237 H 0.33959 0.79274 0.23842 0.0
H238 H 0.26216 0.61661 0.27527 0.0
H239 H 0.33144 0.54424 0.25391 0.0
C240 C 0.15277 0.76787 0.28435 0.0
C241 C 0.16205 0.83566 0.29196 0.0
C242 C 0.19512 0.72821 0.273 0.0
C243 C 0.24849 0.75468 0.26973 0.0
C244 C 0.25754 0.82291 0.27753 0.0
C245 C 0.21462 0.86311 0.28819 0.0
C246 C 0.37904 0.69697 0.23124 0.0
C247 C 0.37664 0.62633 0.23469 0.0
C248 C 0.33776 0.73886 0.24261 0.0
C249 C 0.29401 0.71104 0.25829 0.0
C250 C 0.29357 0.6403 0.26259 0.0
C251 C 0.33376 0.59857 0.25058 0.0
H252 H 0.37657 0.75443 0.81748 0.0
H253 H 0.32405 0.58138 0.76917 0.0
H254 H 0.29398 0.81629 0.80445 0.0
H255 H 0.24092 0.64298 0.75631 0.0
H256 H 0.16432 0.81682 0.70422 0.0
H257 H 0.23244 0.74346 0.72492 0.0
H258 H 0.18978 0.82201 0.80651 0.0
H259 H 0.12039 0.89613 0.78554 0.0
C260 C 0.34684 0.72926 0.80443 0.0
C261 C 0.35709 0.66341 0.79403 0.0
C262 C 0.29931 0.76446 0.79719 0.0
C263 C 0.2612 0.73479 0.77914 0.0
C264 C 0.26988 0.66741 0.77004 0.0
C265 C 0.31721 0.63192 0.77755 0.0
C266 C 0.16911 0.81846 0.72661 0.0
C267 C 0.1372 0.86268 0.74325 0.0
C268 C 0.20784 0.77573 0.73851 0.0
C269 C 0.21625 0.77647 0.76737 0.0
C270 C 0.18413 0.82036 0.78417 0.0
C271 C 0.14449 0.86268 0.77223 0.0
H272 H 0.22644 0.08137 0.74367 0.0
H273 H 0.17451 0.25084 0.6939 0.0
H274 H 0.30924 0.14385 0.75649 0.0
H275 H 0.25668 0.31357 0.70687 0.0
H276 H 0.42962 0.39491 0.72586 0.0
H277 H 0.36047 0.31959 0.70522 0.0
H278 H 0.31768 0.24619 0.78715 0.0
H279 H 0.3856 0.32066 0.80753 0.0
C280 C 0.23335 0.13128 0.73498 0.0
C281 C 0.19372 0.16157 0.71809 0.0
C282 C 0.28047 0.16729 0.74246 0.0
C283 C 0.28919 0.23398 0.73292 0.0
C284 C 0.25134 0.26231 0.71449 0.0
C285 C 0.20404 0.22662 0.70727 0.0
C286 C 0.4055 0.36238 0.73933 0.0
C287 C 0.41276 0.36413 0.76831 0.0
C288 C 0.366 0.31934 0.72756 0.0
C289 C 0.33394 0.27649 0.74455 0.0
C290 C 0.34224 0.27759 0.77342 0.0
C291 C 0.38086 0.32099 0.78513 0.0
H292 H 0.92427 0.12203 0.74424 0.0
H293 H 0.80396 0.99851 0.70237 0.0
H294 H 0.85105 0.19343 0.76356 0.0
H295 H 0.73087 0.06992 0.72179 0.0
H296 H 0.61836 0.16272 0.79082 0.0
H297 H 0.69063 0.09394 0.76913 0.0
H298 H 0.7789 0.27633 0.74744 0.0
H299 H 0.70651 0.34523 0.76944 0.0
C300 C 0.88226 0.1101 0.73912 0.0
C301 C 0.87002 0.05446 0.72175 0.0
C302 C 0.84035 0.15133 0.75005 0.0
C303 C 0.7852 0.13737 0.74417 0.0
C304 C 0.77295 0.08169 0.72686 0.0
C305 C 0.81487 0.04094 0.71565 0.0
C306 C 0.65319 0.18811 0.78144 0.0
C307 C 0.65683 0.25937 0.78191 0.0
C308 C 0.69437 0.14876 0.76881 0.0
C309 C 0.74052 0.17969 0.75661 0.0
C310 C 0.74402 0.25103 0.75686 0.0
C311 C 0.7024 0.29048 0.7692 0.0
H312 H 0.74285 0.5285 0.81775 0.0
H313 H 0.62824 0.59902 0.75633 0.0
H314 H 0.81417 0.59977 0.79708 0.0
H315 H 0.69939 0.67034 0.73587 0.0
H316 H 0.8566 0.72216 0.68731 0.0
H317 H 0.78541 0.65404 0.70934 0.0
H318 H 0.83886 0.72192 0.79027 0.0
H319 H 0.91119 0.78948 0.76808 0.0
C320 C 0.73279 0.55921 0.79988 0.0
C321 C 0.6798 0.55771 0.78864 0.0
C322 C 0.7736 0.60043 0.78816 0.0
C323 C 0.76253 0.64067 0.76479 0.0
C324 C 0.70948 0.63937 0.75366 0.0
C325 C 0.66861 0.5986 0.76548 0.0
C326 C 0.85355 0.72225 0.70981 0.0
C327 C 0.88988 0.76102 0.72593 0.0
C328 C 0.81228 0.68373 0.72244 0.0
C329 C 0.80634 0.68256 0.75157 0.0
C330 C 0.84261 0.72133 0.76778 0.0
C331 C 0.88372 0.76049 0.75508 0.0
loop_
_geom_bond_atom_site_label_1
_geom_bond_atom_site_label_2
_geom_bond_distance
_geom_bond_site_symmetry_2
_ccdc_geom_bond_type
Co0 N4 2.148 1_465 S
Co0 N10 2.128 . S
Co0 N20 2.194 1_565 S
Co0 O25 2.351 1_455 S
Co0 O26 2.155 1_455 S
Co0 O27 2.096 1_565 S
C1 N4 1.301 . S
C1 N5 1.328 . S
C1 H6 0.930 . S
C2 C3 1.333 . S
C2 N4 1.317 . S
C2 H7 0.930 . S
C3 C2 1.333 . S
C3 N5 1.350 . S
C3 H29 0.931 . S
N4 Co0 2.148 1_645 S
N4 C1 1.301 . S
N4 C2 1.317 . S
N5 C1 1.328 . S
N5 C3 1.350 . S
H6 C1 0.930 . S
H7 C2 0.930 . S
C8 O9 1.224 . S
C8 O27 1.247 . S
O9 C8 1.224 . S
N10 Co0 2.128 . S
N10 C11 1.355 . S
N10 C13 1.311 . S
C11 N10 1.355 . S
C11 C12 1.363 . S
C11 H23 0.929 . S
C12 C11 1.363 . S
C12 N14 1.375 . S
C12 H30 0.931 . S
C13 N10 1.311 . S
C13 N14 1.347 . S
C13 H24 0.929 . S
N14 C12 1.375 . S
N14 C13 1.347 . S
C15 C18 1.365 . S
C15 N20 1.328 1_665 S
C15 H21 0.929 . S
C16 C17 1.362 . S
C16 C19 1.378 . S
C16 H31 0.929 . S
C17 C16 1.362 . S
C17 C18 1.366 1_445 S
C18 C15 1.365 . S
C18 C17 1.366 1_665 S
C18 H32 0.930 . S
C19 C16 1.378 . S
C19 N20 1.315 . S
C19 H22 0.930 . S
N20 Co0 2.194 1_545 S
N20 C15 1.328 1_445 S
N20 C19 1.315 . S
H21 C15 0.929 . S
H22 C19 0.930 . S
H23 C11 0.929 . S
H24 C13 0.929 . S
O25 Co0 2.351 1_655 S
O25 C28 1.244 . S
O26 Co0 2.155 1_655 S
O26 C28 1.240 . S
O27 Co0 2.096 1_545 S
O27 C8 1.247 . S
C28 O25 1.244 . S
C28 O26 1.240 . S
H29 C3 0.931 . S
H30 C12 0.931 . S
H31 C16 0.929 . S
H32 C18 0.930 . S
Co33 N37 2.148 1_565 S
Co33 N43 2.128 1_455 S
Co33 N53 2.194 1_565 S
Co33 O58 2.351 . S
Co33 O59 2.155 . S
Co33 O60 2.096 1_465 S
C34 N37 1.301 . S
C34 N38 1.328 . S
C34 H39 0.930 . S
C35 C36 1.333 . S
C35 N37 1.317 . S
C35 H40 0.930 . S
C36 C35 1.333 . S
C36 N38 1.350 . S
C36 H62 0.931 . S
N37 Co33 2.148 1_545 S
N37 C34 1.301 . S
N37 C35 1.317 . S
N38 C34 1.328 . S
N38 C36 1.350 . S
H39 C34 0.930 . S
H40 C35 0.930 . S
C41 O42 1.224 . S
C41 O60 1.247 . S
O42 C41 1.224 . S
N43 Co33 2.128 1_655 S
N43 C44 1.355 . S
N43 C46 1.311 . S
C44 N43 1.355 . S
C44 C45 1.363 . S
C44 H56 0.929 . S
C45 C44 1.363 . S
C45 N47 1.375 . S
C45 H63 0.931 . S
C46 N43 1.311 . S
C46 N47 1.347 . S
C46 H57 0.929 . S
N47 C45 1.375 . S
N47 C46 1.347 . S
C48 C51 1.365 . S
C48 N53 1.328 1_565 S
C48 H54 0.929 . S
C49 C50 1.362 1_655 S
C49 C52 1.378 . S
C49 H64 0.929 . S
C50 C49 1.362 1_455 S
C50 C51 1.366 1_545 S
C51 C48 1.365 . S
C51 C50 1.366 1_565 S
C51 H65 0.930 . S
C52 C49 1.378 . S
C52 N53 1.315 1_655 S
C52 H55 0.930 . S
N53 Co33 2.194 1_545 S
N53 C48 1.328 1_545 S
N53 C52 1.315 1_455 S
H54 C48 0.929 . S
H55 C52 0.930 . S
H56 C44 0.929 . S
H57 C46 0.929 . S
O58 Co33 2.351 . S
O58 C61 1.244 . S
O59 Co33 2.155 . S
O59 C61 1.240 . S
O60 Co33 2.096 1_645 S
O60 C41 1.247 . S
C61 O58 1.244 . S
C61 O59 1.240 . S
H62 C36 0.931 . S
H63 C45 0.931 . S
H64 C49 0.929 . S
H65 C51 0.930 . S
Co66 N70 2.148 . S
Co66 N76 2.128 . S
Co66 N86 2.194 . S
Co66 O91 2.351 . S
Co66 O92 2.155 . S
Co66 O93 2.096 . S
C67 N70 1.301 . S
C67 N71 1.328 . S
C67 H72 0.930 . S
C68 C69 1.333 . S
C68 N70 1.317 . S
C68 H73 0.930 . S
C69 C68 1.333 . S
C69 N71 1.350 . S
C69 H95 0.931 . S
N70 Co66 2.148 . S
N70 C67 1.301 . S
N70 C68 1.317 . S
N71 C67 1.328 . S
N71 C69 1.350 . S
H72 C67 0.930 . S
H73 C68 0.930 . S
C74 O75 1.224 . S
C74 O93 1.247 . S
O75 C74 1.224 . S
N76 Co66 2.128 . S
N76 C77 1.355 . S
N76 C79 1.311 . S
C77 N76 1.355 . S
C77 C78 1.363 . S
C77 H89 0.929 . S
C78 C77 1.363 . S
C78 N80 1.375 . S
C78 H96 0.931 . S
C79 N76 1.311 . S
C79 N80 1.347 . S
C79 H90 0.929 . S
N80 C78 1.375 . S
N80 C79 1.347 . S
C81 C84 1.365 . S
C81 N86 1.328 . S
C81 H87 0.929 . S
C82 C83 1.362 . S
C82 C85 1.378 . S
C82 H97 0.929 . S
C83 C82 1.362 . S
C83 C84 1.366 . S
C84 C81 1.365 . S
C84 C83 1.366 . S
C84 H98 0.930 . S
C85 C82 1.378 . S
C85 N86 1.315 . S
C85 H88 0.930 . S
N86 Co66 2.194 . S
N86 C81 1.328 . S
N86 C85 1.315 . S
H87 C81 0.929 . S
H88 C85 0.930 . S
H89 C77 0.929 . S
H90 C79 0.929 . S
O91 Co66 2.351 . S
O91 C94 1.244 . S
O92 Co66 2.155 . S
O92 C94 1.240 . S
O93 Co66 2.096 . S
O93 C74 1.247 . S
C94 O91 1.244 . S
C94 O92 1.240 . S
H95 C69 0.931 . S
H96 C78 0.931 . S
H97 C82 0.929 . S
H98 C84 0.930 . S
Co99 N103 2.148 . S
Co99 N109 2.128 . S
Co99 N119 2.194 . S
Co99 O124 2.351 . S
Co99 O125 2.155 . S
Co99 O126 2.096 . S
C100 N103 1.301 . S
C100 N104 1.328 . S
C100 H105 0.930 . S
C101 C102 1.333 . S
C101 N103 1.317 . S
C101 H106 0.930 . S
C102 C101 1.333 . S
C102 N104 1.350 . S
C102 H128 0.931 . S
N103 Co99 2.148 . S
N103 C100 1.301 . S
N103 C101 1.317 . S
N104 C100 1.328 . S
N104 C102 1.350 . S
H105 C100 0.930 . S
H106 C101 0.930 . S
C107 O108 1.224 . S
C107 O126 1.247 . S
O108 C107 1.224 . S
N109 Co99 2.128 . S
N109 C110 1.355 . S
N109 C112 1.311 . S
C110 N109 1.355 . S
C110 C111 1.363 . S
C110 H122 0.929 . S
C111 C110 1.363 . S
C111 N113 1.375 . S
C111 H129 0.931 . S
C112 N109 1.311 . S
C112 N113 1.347 . S
C112 H123 0.929 . S
N113 C111 1.375 . S
N113 C112 1.347 . S
C114 C117 1.365 . S
C114 N119 1.328 . S
C114 H120 0.929 . S
C115 C116 1.362 . S
C115 C118 1.378 . S
C115 H130 0.929 . S
C116 C115 1.362 . S
C116 C117 1.366 . S
C117 C114 1.365 . S
C117 C116 1.366 . S
C117 H131 0.930 . S
C118 C115 1.378 . S
C118 N119 1.315 . S
C118 H121 0.930 . S
N119 Co99 2.194 . S
N119 C114 1.328 . S
N119 C118 1.315 . S
H120 C114 0.929 . S
H121 C118 0.930 . S
H122 C110 0.929 . S
H123 C112 0.929 . S
O124 Co99 2.351 . S
O124 C127 1.244 . S
O125 Co99 2.155 . S
O125 C127 1.240 . S
O126 Co99 2.096 . S
O126 C107 1.247 . S
C127 O124 1.244 . S
C127 O125 1.240 . S
H128 C102 0.931 . S
H129 C111 0.931 . S
H130 C115 0.929 . S
H131 C117 0.930 . S
H132 C140 0.950 . S
H133 C145 0.950 . S
H134 C142 0.950 . S
H135 C144 0.950 . S
H136 C146 0.950 . S
H137 C148 0.950 . S
H138 C150 0.950 . S
H139 C151 0.950 . S
C140 H132 0.950 . S
C140 C141 1.386 1_565 S
C140 C142 1.391 . S
C141 C140 1.386 1_545 S
C141 C145 1.393 1_455 S
C142 H134 0.950 . S
C142 C140 1.391 . S
C142 C143 1.400 1_565 S
C143 C142 1.400 1_545 S
C143 C144 1.398 1_455 S
C143 C149 1.491 . S
C144 H135 0.950 . S
C144 C143 1.398 1_655 S
C144 C145 1.391 . S
C145 H133 0.950 . S
C145 C141 1.393 1_655 S
C145 C144 1.391 . S
C146 H136 0.950 . S
C146 C147 1.386 1_655 S
C146 C148 1.391 . S
C147 C146 1.386 1_455 S
C147 C151 1.393 1_545 S
C148 H137 0.950 . S
C148 C146 1.391 . S
C148 C149 1.400 1_655 S
C149 C143 1.491 . S
C149 C148 1.400 1_455 S
C149 C150 1.398 1_545 S
C150 H138 0.950 . S
C150 C149 1.398 1_565 S
C150 C151 1.391 . S
C151 H139 0.950 . S
C151 C147 1.393 1_565 S
C151 C150 1.391 . S
H152 C160 0.950 . S
H153 C165 0.950 . S
H154 C162 0.950 . S
H155 C164 0.950 . S
H156 C166 0.950 . S
H157 C168 0.950 . S
H158 C170 0.950 . S
H159 C171 0.950 . S
C160 H152 0.950 . S
C160 C161 1.386 . S
C160 C162 1.391 . S
C161 C160 1.386 . S
C161 C165 1.393 . S
C162 H154 0.950 . S
C162 C160 1.391 . S
C162 C163 1.400 . S
C163 C162 1.400 . S
C163 C164 1.398 . S
C163 C169 1.491 1_554 S
C164 H155 0.950 . S
C164 C163 1.398 . S
C164 C165 1.391 . S
C165 H153 0.950 . S
C165 C161 1.393 . S
C165 C164 1.391 . S
C166 H156 0.950 . S
C166 C167 1.386 . S
C166 C168 1.391 . S
C167 C166 1.386 . S
C167 C171 1.393 . S
C168 H157 0.950 . S
C168 C166 1.391 . S
C168 C169 1.400 . S
C169 C163 1.491 1_556 S
C169 C168 1.400 . S
C169 C170 1.398 . S
C170 H158 0.950 . S
C170 C169 1.398 . S
C170 C171 1.391 . S
C171 H159 0.950 . S
C171 C167 1.393 . S
C171 C170 1.391 . S
H172 C180 0.950 . S
H173 C185 0.950 . S
H174 C182 0.950 . S
H175 C184 0.950 . S
H176 C186 0.950 . S
H177 C188 0.950 . S
H178 C190 0.950 . S
H179 C191 0.950 . S
C180 H172 0.950 . S
C180 C181 1.386 . S
C180 C182 1.391 . S
C181 C180 1.386 . S
C181 C185 1.393 . S
C182 H174 0.950 . S
C182 C180 1.391 . S
C182 C183 1.400 . S
C183 C182 1.400 . S
C183 C184 1.398 . S
C183 C189 1.491 . S
C184 H175 0.950 . S
C184 C183 1.398 . S
C184 C185 1.391 . S
C185 H173 0.950 . S
C185 C181 1.393 . S
C185 C184 1.391 . S
C186 H176 0.950 . S
C186 C187 1.386 . S
C186 C188 1.391 . S
C187 C186 1.386 . S
C187 C191 1.393 . S
C188 H177 0.950 . S
C188 C186 1.391 . S
C188 C189 1.400 . S
C189 C183 1.491 . S
C189 C188 1.400 . S
C189 C190 1.398 . S
C190 H178 0.950 . S
C190 C189 1.398 . S
C190 C191 1.391 . S
C191 H179 0.950 . S
C191 C187 1.393 . S
C191 C190 1.391 . S
H192 C200 0.950 . S
H193 C205 0.950 . S
H194 C202 0.950 . S
H195 C204 0.950 . S
H196 C206 0.950 . S
H197 C208 0.950 . S
H198 C210 0.950 . S
H199 C211 0.950 . S
C200 H192 0.950 . S
C200 C201 1.386 . S
C200 C202 1.391 . S
C201 C200 1.386 . S
C201 C205 1.393 . S
C202 H194 0.950 . S
C202 C200 1.391 . S
C202 C203 1.400 . S
C203 C202 1.400 . S
C203 C204 1.398 . S
C203 C209 1.491 . S
C204 H195 0.950 . S
C204 C203 1.398 . S
C204 C205 1.391 . S
C205 H193 0.950 . S
C205 C201 1.393 . S
C205 C204 1.391 . S
C206 H196 0.950 . S
C206 C207 1.386 . S
C206 C208 1.391 . S
C207 C206 1.386 . S
C207 C211 1.393 . S
C208 H197 0.950 . S
C208 C206 1.391 . S
C208 C209 1.400 . S
C209 C203 1.491 . S
C209 C208 1.400 . S
C209 C210 1.398 . S
C210 H198 0.950 . S
C210 C209 1.398 . S
C210 C211 1.391 . S
C211 H199 0.950 . S
C211 C207 1.393 . S
C211 C210 1.391 . S
H212 C220 0.950 . S
H213 C225 0.950 . S
H214 C222 0.950 . S
H215 C224 0.950 . S
H216 C226 0.950 . S
H217 C228 0.950 . S
H218 C230 0.950 . S
H219 C231 0.950 . S
C220 H212 0.950 . S
C220 C221 1.386 . S
C220 C222 1.391 . S
C221 C220 1.386 . S
C221 C225 1.393 . S
C222 H214 0.950 . S
C222 C220 1.391 . S
C222 C223 1.400 . S
C223 C222 1.400 . S
C223 C224 1.398 . S
C223 C229 1.491 . S
C224 H215 0.950 . S
C224 C223 1.398 . S
C224 C225 1.391 . S
C225 H213 0.950 . S
C225 C221 1.393 . S
C225 C224 1.391 . S
C226 H216 0.950 . S
C226 C227 1.386 . S
C226 C228 1.391 . S
C227 C226 1.386 . S
C227 C231 1.393 . S
C228 H217 0.950 . S
C228 C226 1.391 . S
C228 C229 1.400 . S
C229 C223 1.491 . S
C229 C228 1.400 . S
C229 C230 1.398 . S
C230 H218 0.950 . S
C230 C229 1.398 . S
C230 C231 1.391 . S
C231 H219 0.950 . S
C231 C227 1.393 . S
C231 C230 1.391 . S
H232 C240 0.950 . S
H233 C245 0.950 . S
H234 C242 0.950 . S
H235 C244 0.950 . S
H236 C246 0.950 . S
H237 C248 0.950 . S
H238 C250 0.950 . S
H239 C251 0.950 . S
C240 H232 0.950 . S
C240 C241 1.386 . S
C240 C242 1.391 . S
C241 C240 1.386 . S
C241 C245 1.393 . S
C242 H234 0.950 . S
C242 C240 1.391 . S
C242 C243 1.400 . S
C243 C242 1.400 . S
C243 C244 1.398 . S
C243 C249 1.491 . S
C244 H235 0.950 . S
C244 C243 1.398 . S
C244 C245 1.391 . S
C245 H233 0.950 . S
C245 C241 1.393 . S
C245 C244 1.391 . S
C246 H236 0.950 . S
C246 C247 1.386 . S
C246 C248 1.391 . S
C247 C246 1.386 . S
C247 C251 1.393 . S
C248 H237 0.950 . S
C248 C246 1.391 . S
C248 C249 1.400 . S
C249 C243 1.491 . S
C249 C248 1.400 . S
C249 C250 1.398 . S
C250 H238 0.950 . S
C250 C249 1.398 . S
C250 C251 1.391 . S
C251 H239 0.950 . S
C251 C247 1.393 . S
C251 C250 1.391 . S
H252 C260 0.950 . S
H253 C265 0.950 . S
H254 C262 0.950 . S
H255 C264 0.950 . S
H256 C266 0.950 . S
H257 C268 0.950 . S
H258 C270 0.950 . S
H259 C271 0.950 . S
C260 H252 0.950 . S
C260 C261 1.386 . S
C260 C262 1.391 . S
C261 C260 1.386 . S
C261 C265 1.393 . S
C262 H254 0.950 . S
C262 C260 1.391 . S
C262 C263 1.400 . S
C263 C262 1.400 . S
C263 C264 1.398 . S
C263 C269 1.491 . S
C264 H255 0.950 . S
C264 C263 1.398 . S
C264 C265 1.391 . S
C265 H253 0.950 . S
C265 C261 1.393 . S
C265 C264 1.391 . S
C266 H256 0.950 . S
C266 C267 1.386 . S
C266 C268 1.391 . S
C267 C266 1.386 . S
C267 C271 1.393 . S
C268 H257 0.950 . S
C268 C266 1.391 . S
C268 C269 1.400 . S
C269 C263 1.491 . S
C269 C268 1.400 . S
C269 C270 1.398 . S
C270 H258 0.950 . S
C270 C269 1.398 . S
C270 C271 1.391 . S
C271 H259 0.950 . S
C271 C267 1.393 . S
C271 C270 1.391 . S
H272 C280 0.950 . S
H273 C285 0.950 . S
H274 C282 0.950 . S
H275 C284 0.950 . S
H276 C286 0.950 . S
H277 C288 0.950 . S
H278 C290 0.950 . S
H279 C291 0.950 . S
C280 H272 0.950 . S
C280 C281 1.386 . S
C280 C282 1.391 . S
C281 C280 1.386 . S
C281 C285 1.393 . S
C282 H274 0.950 . S
C282 C280 1.391 . S
C282 C283 1.400 . S
C283 C282 1.400 . S
C283 C284 1.398 . S
C283 C289 1.491 . S
C284 H275 0.950 . S
C284 C283 1.398 . S
C284 C285 1.391 . S
C285 H273 0.950 . S
C285 C281 1.393 . S
C285 C284 1.391 . S
C286 H276 0.950 . S
C286 C287 1.386 . S
C286 C288 1.391 . S
C287 C286 1.386 . S
C287 C291 1.393 . S
C288 H277 0.950 . S
C288 C286 1.391 . S
C288 C289 1.400 . S
C289 C283 1.491 . S
C289 C288 1.400 . S
C289 C290 1.398 . S
C290 H278 0.950 . S
C290 C289 1.398 . S
C290 C291 1.391 . S
C291 H279 0.950 . S
C291 C287 1.393 . S
C291 C290 1.391 . S
H292 C300 0.950 . S
H293 C305 0.950 . S
H294 C302 0.950 . S
H295 C304 0.950 . S
H296 C306 0.950 . S
H297 C308 0.950 . S
H298 C310 0.950 . S
H299 C311 0.950 . S
C300 H292 0.950 . S
C300 C301 1.386 . S
C300 C302 1.391 . S
C301 C300 1.386 . S
C301 C305 1.393 . S
C302 H294 0.950 . S
C302 C300 1.391 . S
C302 C303 1.400 . S
C303 C302 1.400 . S
C303 C304 1.398 . S
C303 C309 1.491 . S
C304 H295 0.950 . S
C304 C303 1.398 . S
C304 C305 1.391 . S
C305 H293 0.950 . S
C305 C301 1.393 . S
C305 C304 1.391 . S
C306 H296 0.950 . S
C306 C307 1.386 . S
C306 C308 1.391 . S
C307 C306 1.386 . S
C307 C311 1.393 . S
C308 H297 0.950 . S
C308 C306 1.391 . S
C308 C309 1.400 . S
C309 C303 1.491 . S
C309 C308 1.400 . S
C309 C310 1.398 . S
C310 H298 0.950 . S
C310 C309 1.398 . S
C310 C311 1.391 . S
C311 H299 0.950 . S
C311 C307 1.393 . S
C311 C310 1.391 . S
H312 C320 0.950 . S
H313 C325 0.950 . S
H314 C322 0.950 . S
H315 C324 0.950 . S
H316 C326 0.950 . S
H317 C328 0.950 . S
H318 C330 0.950 . S
H319 C331 0.950 . S
C320 H312 0.950 . S
C320 C321 1.386 . S
C320 C322 1.391 . S
C321 C320 1.386 . S
C321 C325 1.393 . S
C322 H314 0.950 . S
C322 C320 1.391 . S
C322 C323 1.400 . S
C323 C322 1.400 . S
C323 C324 1.398 . S
C323 C329 1.491 . S
C324 H315 0.950 . S
C324 C323 1.398 . S
C324 C325 1.391 . S
C325 H313 0.950 . S
C325 C321 1.393 . S
C325 C324 1.391 . S
C326 H316 0.950 . S
C326 C327 1.386 . S
C326 C328 1.391 . S
C327 C326 1.386 . S
C327 C331 1.393 . S
C328 H317 0.950 . S
C328 C326 1.391 . S
C328 C329 1.400 . S
C329 C323 1.491 . S
C329 C328 1.400 . S
C329 C330 1.398 . S
C330 H318 0.950 . S
C330 C329 1.398 . S
C330 C331 1.391 . S
C331 H319 0.950 . S
C331 C327 1.393 . S
C331 C330 1.391 . S
C141 C17 1.489 . S
C147 C50 1.490 . S
C161 C116 1.487 . S
C167 C83 1.485 . S
C181 C8 1.515 . S
C187 N113 1.491 . S
C201 N5 1.368 . S
C207 C127 1.457 . S
C221 N104 1.387 . S
C227 C28 1.459 . S
C241 N14 1.493 . S
C247 C107 1.524 . S
C261 N71 1.379 . S
C267 C61 1.456 . S
C281 N38 1.386 . S
C287 C94 1.457 . S
C301 C41 1.513 . S
C307 N80 1.500 . S
C321 C74 1.523 . S
C327 N47 1.497 . S
