# Generated by pormake.
# Topology dia, (4)-cn, num edge types: 1
# Building blocks:
#     Node 0, Type 0, BuildingBlock: KUFVIS_clean_sbu_0, # of connection points: 4
#     Node 1, Type 0, BuildingBlock: KUFVIS_clean_sbu_0, # of connection points: 4
#     Node 2, Type 0, BuildingBlock: KUFVIS_clean_sbu_0, # of connection points: 4
#     Node 3, Type 0, BuildingBlock: KUFVIS_clean_sbu_0, # of connection points: 4
#     Node 4, Type 0, BuildingBlock: KUFVIS_clean_sbu_0, # of connection points: 4
#     Node 5, Type 0, BuildingBlock: KUFVIS_clean_sbu_0, # of connection points: 4
#     Node 6, Type 0, BuildingBlock: KUFVIS_clean_sbu_0, # of connection points: 4
#     Node 7, Type 0, BuildingBlock: KUFVIS_clean_sbu_0, # of connection points: 4
#     Edge 8, Type (0, 0), BuildingBlock: AJUNOK_clean_linker_0, # of connection points: 2
#     Edge 9, Type (0, 0), BuildingBlock: AJUNOK_clean_linker_0, # of connection points: 2
#     Edge 10, Type (0, 0), BuildingBlock: AJUNOK_clean_linker_0, # of connection points: 2
#     Edge 11, Type (0, 0), BuildingBlock: AJUNOK_clean_linker_0, # of connection points: 2
#     Edge 12, Type (0, 0), BuildingBlock: AJUNOK_clean_linker_0, # of connection points: 2
#     Edge 13, Type (0, 0), BuildingBlock: AJUNOK_clean_linker_0, # of connection points: 2
#     Edge 14, Type (0, 0), BuildingBlock: AJUNOK_clean_linker_0, # of connection points: 2
#     Edge 15, Type (0, 0), BuildingBlock: AJUNOK_clean_linker_0, # of connection points: 2
#     Edge 16, Type (0, 0), BuildingBlock: AJUNOK_clean_linker_0, # of connection points: 2
#     Edge 17, Type (0, 0), BuildingBlock: AJUNOK_clean_linker_0, # of connection points: 2
#     Edge 18, Type (0, 0), BuildingBlock: AJUNOK_clean_linker_0, # of connection points: 2
#     Edge 19, Type (0, 0), BuildingBlock: AJUNOK_clean_linker_0, # of connection points: 2
#     Edge 20, Type (0, 0), BuildingBlock: AJUNOK_clean_linker_0, # of connection points: 2
#     Edge 21, Type (0, 0), BuildingBlock: AJUNOK_clean_linker_0, # of connection points: 2
#     Edge 22, Type (0, 0), BuildingBlock: AJUNOK_clean_linker_0, # of connection points: 2
#     Edge 23, Type (0, 0), BuildingBlock: AJUNOK_clean_linker_0, # of connection points: 2
# Relax obj value: 0.070
# Max RMSD: 0.124
# Mean RMSD: 0.124
data_MOF--net-dia--node1-KUFVIS_clean_sbu_0--edge1-AJUNOK_clean_linker_0
_symmetry_space_group_name_H-M    P1
_symmetry_Int_Tables_number       1
_symmetry_cell_setting            triclinic
loop_
_symmetry_equiv_pos_as_xyz
'x, y, z'
_cell_length_a     27.423732
_cell_length_b     23.57502
_cell_length_c     23.70314
_cell_angle_alpha  90.632719
_cell_angle_beta   91.563654
_cell_angle_gamma 91.522821
loop_
_atom_site_label
_atom_site_type_symbol
_atom_site_fract_x
_atom_site_fract_y
_atom_site_fract_z
_atom_type_partial_charge
Mn0 Mn 0.13755 0.15454 0.63326 0.0
Mn1 Mn 0.18599 0.04914 0.55626 0.0
C2 C 0.0928 0.11127 0.55949 0.0
C3 C 0.09511 0.19224 0.70904 0.0
C4 C 0.2132 0.17292 0.54083 0.0
O5 O 0.19349 0.12844 0.68481 0.0
O6 O 0.22212 0.05919 0.62943 0.0
C7 C 0.15934 0.95384 0.63078 0.0
N8 N 0.15803 0.97812 0.57889 0.0
C9 C 0.11143 0.89879 0.53914 0.0
C10 C 0.11258 0.87276 0.59203 0.0
C11 C 0.13655 0.90049 0.63808 0.0
C12 C 0.13496 0.9519 0.53434 0.0
H13 H 0.1775 0.97508 0.66639 0.0
C14 C 0.22315 0.08874 0.67512 0.0
O15 O 0.12717 0.2217 0.68195 0.0
O16 O 0.08839 0.13951 0.69324 0.0
N17 N 0.1542 0.03377 0.48468 0.0
C18 C 0.15413 0.06601 0.43731 0.0
C19 C 0.13035 0.04511 0.38785 0.0
C20 C 0.10728 0.9912 0.38748 0.0
C21 C 0.1087 0.95832 0.4364 0.0
C22 C 0.13329 0.98117 0.4843 0.0
H23 H 0.17165 0.10757 0.43742 0.0
O24 O 0.08266 0.16211 0.57634 0.0
O25 O 0.12878 0.08742 0.58597 0.0
O26 O 0.18562 0.19068 0.57918 0.0
O27 O 0.21666 0.12037 0.52851 0.0
C28 C 0.08562 0.90441 0.44002 0.0
C29 C 0.0869 0.87471 0.49132 0.0
H30 H 0.09477 0.83177 0.59791 0.0
H31 H 0.13735 0.88084 0.67913 0.0
H32 H 0.1294 0.07071 0.35024 0.0
H33 H 0.08812 0.97585 0.34961 0.0
H34 H 0.06594 0.88579 0.40405 0.0
H35 H 0.06827 0.83375 0.49373 0.0
Mn36 Mn 0.92322 0.40044 0.87925 0.0
Mn37 Mn 0.87093 0.47839 0.98113 0.0
C38 C 0.96515 0.47673 0.92191 0.0
C39 C 0.96885 0.32539 0.84604 0.0
C40 C 0.84649 0.4911 0.85691 0.0
O41 O 0.86788 0.34753 0.90456 0.0
O42 O 0.83686 0.40326 0.97201 0.0
C43 C 0.89798 0.40717 0.07871 0.0
N44 N 0.89834 0.4586 0.05309 0.0
C45 C 0.94259 0.50235 0.13195 0.0
C46 C 0.94239 0.44992 0.15931 0.0
C47 C 0.92009 0.40212 0.1325 0.0
C48 C 0.91983 0.50485 0.07845 0.0
H49 H 0.8811 0.37024 0.05819 0.0
C50 C 0.8374 0.35689 0.94326 0.0
O51 O 0.93698 0.35008 0.81413 0.0
O52 O 0.97352 0.34288 0.89813 0.0
N53 N 0.90076 0.55177 0.99517 0.0
C54 C 0.90033 0.59842 0.96172 0.0
C55 C 0.92237 0.6495 0.98171 0.0
C56 C 0.94428 0.65223 0.03595 0.0
C57 C 0.94371 0.60392 0.0699 0.0
C58 C 0.92078 0.55432 0.04794 0.0
H59 H 0.88365 0.5966 0.91993 0.0
O60 O 0.97693 0.45914 0.87212 0.0
O61 O 0.92929 0.44951 0.94506 0.0
O62 O 0.87487 0.45274 0.84051 0.0
O63 O 0.84105 0.50354 0.90886 0.0
C64 C 0.96588 0.6027 0.1242 0.0
C65 C 0.96544 0.55191 0.15514 0.0
H66 H 0.95967 0.44575 0.20065 0.0
H67 H 0.92006 0.36144 0.15321 0.0
H68 H 0.92273 0.68659 0.95521 0.0
H69 H 0.96178 0.69151 0.05093 0.0
H70 H 0.98409 0.64032 0.14218 0.0
H71 H 0.98337 0.55126 0.19641 0.0
Mn72 Mn 0.64036 0.15737 0.13217 0.0
Mn73 Mn 0.69358 0.05462 0.05636 0.0
C74 C 0.59795 0.11207 0.05836 0.0
C75 C 0.59615 0.19484 0.20632 0.0
C76 C 0.71647 0.17939 0.04141 0.0
O77 O 0.69567 0.13307 0.18522 0.0
O78 O 0.7281 0.06559 0.13068 0.0
C79 C 0.67393 0.95478 0.12795 0.0
N80 N 0.6691 0.98139 0.07743 0.0
C81 C 0.62974 0.89855 0.03466 0.0
C82 C 0.63461 0.87018 0.08611 0.0
C83 C 0.6566 0.89854 0.13302 0.0
C84 C 0.64795 0.9545 0.03205 0.0
H85 H 0.69116 0.97609 0.16408 0.0
C86 C 0.72629 0.09405 0.177 0.0
O87 O 0.628 0.22445 0.17922 0.0
O88 O 0.59028 0.14175 0.19128 0.0
N89 N 0.66254 0.03881 0.98439 0.0
C90 C 0.6604 0.07219 0.93785 0.0
C91 C 0.63751 0.05089 0.88799 0.0
C92 C 0.6175 0.9954 0.88633 0.0
C93 C 0.62083 0.96159 0.93449 0.0
C94 C 0.64405 0.98507 0.98296 0.0
H95 H 0.67567 0.11489 0.9389 0.0
O96 O 0.58649 0.16285 0.07415 0.0
O97 O 0.63432 0.08955 0.08551 0.0
O98 O 0.68813 0.19556 0.07947 0.0
O99 O 0.72209 0.12723 0.02932 0.0
C100 C 0.60173 0.90562 0.93643 0.0
C101 C 0.60645 0.87397 0.9863 0.0
H102 H 0.621 0.82691 0.09028 0.0
H103 H 0.66026 0.87705 0.17296 0.0
H104 H 0.63515 0.07724 0.85097 0.0
H105 H 0.59963 0.97921 0.8479 0.0
H106 H 0.58317 0.88656 0.89993 0.0
H107 H 0.59148 0.83102 0.98721 0.0
Mn108 Mn 0.91578 0.89663 0.37825 0.0
Mn109 Mn 0.86275 0.97219 0.48111 0.0
C110 C 0.95716 0.97289 0.42218 0.0
C111 C 0.96236 0.82338 0.34312 0.0
C112 C 0.83813 0.98648 0.35711 0.0
O113 O 0.86112 0.84231 0.40281 0.0
O114 O 0.82936 0.89676 0.47081 0.0
C115 C 0.89034 0.89968 0.5775 0.0
N116 N 0.89029 0.95153 0.5527 0.0
C117 C 0.93536 0.99415 0.63151 0.0
C118 C 0.93557 0.94129 0.65805 0.0
C119 C 0.91302 0.89386 0.63088 0.0
C120 C 0.91191 0.99746 0.57847 0.0
H121 H 0.87339 0.86299 0.55662 0.0
C122 C 0.83052 0.85071 0.44161 0.0
O123 O 0.93007 0.84827 0.312 0.0
O124 O 0.96669 0.8394 0.3957 0.0
N125 N 0.8919 0.04566 0.49623 0.0
C126 C 0.8909 0.09287 0.46358 0.0
C127 C 0.91293 0.14374 0.48408 0.0
C128 C 0.93553 0.14563 0.53798 0.0
C129 C 0.9355 0.09672 0.5711 0.0
C130 C 0.91239 0.04743 0.54875 0.0
H131 H 0.8738 0.09168 0.422 0.0
O132 O 0.96887 0.95631 0.37205 0.0
O133 O 0.92161 0.94472 0.44496 0.0
O134 O 0.86696 0.94879 0.3403 0.0
O135 O 0.83281 0.9982 0.40921 0.0
C136 C 0.95854 0.0946 0.62482 0.0
C137 C 0.9586 0.04331 0.65494 0.0
H138 H 0.95338 0.93652 0.69902 0.0
H139 H 0.91331 0.85285 0.65093 0.0
H140 H 0.91285 0.18128 0.45822 0.0
H141 H 0.95313 0.18471 0.55332 0.0
H142 H 0.97715 0.13194 0.64276 0.0
H143 H 0.97729 0.04184 0.69571 0.0
Mn144 Mn 0.14167 0.65883 0.13526 0.0
Mn145 Mn 0.19221 0.55327 0.06061 0.0
C146 C 0.09886 0.61502 0.06073 0.0
C147 C 0.09771 0.69887 0.20831 0.0
C148 C 0.2178 0.67709 0.04388 0.0
O149 O 0.19628 0.63331 0.18887 0.0
O150 O 0.22673 0.56419 0.13484 0.0
C151 C 0.16458 0.45849 0.13543 0.0
N152 N 0.16421 0.48222 0.08327 0.0
C153 C 0.11846 0.40231 0.04327 0.0
C154 C 0.1187 0.37686 0.09645 0.0
C155 C 0.14177 0.40515 0.14274 0.0
C156 C 0.14197 0.45544 0.03847 0.0
H157 H 0.18199 0.48014 0.17126 0.0
C158 C 0.22602 0.59334 0.18079 0.0
O159 O 0.1308 0.72685 0.18154 0.0
O160 O 0.09102 0.64562 0.19418 0.0
N161 N 0.16185 0.53683 0.98835 0.0
C162 C 0.16265 0.56839 0.94053 0.0
C163 C 0.14014 0.54662 0.89064 0.0
C164 C 0.11736 0.49255 0.89031 0.0
C165 C 0.11764 0.46052 0.93979 0.0
C166 C 0.14115 0.48413 0.98807 0.0
H167 H 0.17997 0.61006 0.94052 0.0
O168 O 0.08823 0.66598 0.07672 0.0
O169 O 0.13408 0.5912 0.08861 0.0
O170 O 0.19027 0.69446 0.08224 0.0
O171 O 0.22277 0.62458 0.03244 0.0
C172 C 0.09453 0.40667 0.94347 0.0
C173 C 0.09485 0.37762 0.99515 0.0
H174 H 0.10086 0.33589 0.10235 0.0
H175 H 0.14184 0.38596 0.18401 0.0
H176 H 0.14004 0.57164 0.85264 0.0
H177 H 0.09945 0.47622 0.85196 0.0
H178 H 0.07556 0.38769 0.90714 0.0
H179 H 0.07621 0.33666 0.99759 0.0
Mn180 Mn 0.41957 0.39735 0.37859 0.0
Mn181 Mn 0.36725 0.4723 0.48259 0.0
C182 C 0.46171 0.47268 0.42366 0.0
C183 C 0.46517 0.32323 0.34276 0.0
C184 C 0.34196 0.48753 0.35874 0.0
O185 O 0.36436 0.34351 0.40277 0.0
O186 O 0.33394 0.39687 0.4724 0.0
C187 C 0.39536 0.39962 0.57866 0.0
N188 N 0.3951 0.45154 0.55401 0.0
C189 C 0.4396 0.49428 0.63316 0.0
C190 C 0.44003 0.44135 0.65955 0.0
C191 C 0.4179 0.39382 0.63212 0.0
C192 C 0.41635 0.49756 0.58001 0.0
H193 H 0.37868 0.36288 0.5576 0.0
C194 C 0.33461 0.3511 0.44267 0.0
O195 O 0.43316 0.34883 0.31186 0.0
O196 O 0.46998 0.33929 0.3953 0.0
N197 N 0.39648 0.54576 0.49771 0.0
C198 C 0.39564 0.59295 0.46502 0.0
C199 C 0.41751 0.64385 0.48567 0.0
C200 C 0.43977 0.64582 0.53975 0.0
C201 C 0.43964 0.59693 0.57289 0.0
C202 C 0.41677 0.54757 0.55035 0.0
H203 H 0.37875 0.59169 0.42334 0.0
O204 O 0.47334 0.45657 0.37332 0.0
O205 O 0.42579 0.44472 0.44584 0.0
O206 O 0.37108 0.45043 0.34131 0.0
O207 O 0.33672 0.49849 0.41102 0.0
C208 C 0.46234 0.59489 0.62684 0.0
C209 C 0.46245 0.54355 0.65687 0.0
H210 H 0.45771 0.4366 0.70059 0.0
H211 H 0.41837 0.35275 0.65205 0.0
H212 H 0.41753 0.68138 0.45979 0.0
H213 H 0.4572 0.68495 0.55521 0.0
H214 H 0.48064 0.6323 0.64509 0.0
H215 H 0.48092 0.54212 0.69777 0.0
Mn216 Mn 0.41996 0.89861 0.87813 0.0
Mn217 Mn 0.3647 0.97791 0.97656 0.0
C218 C 0.46121 0.97455 0.92203 0.0
C219 C 0.46631 0.82354 0.84696 0.0
C220 C 0.34363 0.98844 0.8514 0.0
O221 O 0.36435 0.84591 0.90229 0.0
O222 O 0.33079 0.90248 0.96743 0.0
C223 C 0.383 0.91057 0.07942 0.0
N224 N 0.38823 0.96006 0.05081 0.0
C225 C 0.42606 1.0069 0.1322 0.0
C226 C 0.42083 0.95649 0.16257 0.0
C227 C 0.3994 0.90807 0.13597 0.0
C228 C 0.40875 1.00694 0.07605 0.0
H229 H 0.36612 0.87336 0.05942 0.0
C230 C 0.33285 0.85549 0.93978 0.0
O231 O 0.43522 0.84805 0.81392 0.0
O232 O 0.46982 0.84126 0.89907 0.0
N233 N 0.3951 0.05108 0.98996 0.0
C234 C 0.39762 0.09633 0.95476 0.0
C235 C 0.41998 0.14743 0.9742 0.0
C236 C 0.43907 0.15167 0.02972 0.0
C237 C 0.43545 0.10481 0.06541 0.0
C238 C 0.41285 0.05494 0.04367 0.0
H239 H 0.38305 0.09333 0.91202 0.0
O240 O 0.47376 0.95711 0.87246 0.0
O241 O 0.42439 0.9479 0.94404 0.0
O242 O 0.37254 0.95005 0.83666 0.0
O243 O 0.33731 1.00183 0.90284 0.0
C244 C 0.45359 0.10555 0.12161 0.0
C245 C 0.44865 0.05673 0.15508 0.0
H246 H 0.43368 0.95428 0.20609 0.0
H247 H 0.39543 0.86895 0.15905 0.0
H248 H 0.4226 0.18342 0.9464 0.0
H249 H 0.45647 0.19108 0.04449 0.0
H250 H 0.47145 0.14342 0.13949 0.0
H251 H 0.46281 0.05779 0.19821 0.0
Mn252 Mn 0.63935 0.65436 0.63847 0.0
Mn253 Mn 0.69047 0.54929 0.56395 0.0
C254 C 0.59597 0.60942 0.5648 0.0
C255 C 0.59578 0.69229 0.71288 0.0
C256 C 0.71369 0.67315 0.54464 0.0
O257 O 0.69513 0.63071 0.69133 0.0
O258 O 0.72712 0.56364 0.63619 0.0
C259 C 0.66767 0.45664 0.64324 0.0
N260 N 0.66492 0.47845 0.59027 0.0
C261 C 0.61844 0.39682 0.55558 0.0
C262 C 0.62111 0.3733 0.60959 0.0
C263 C 0.64582 0.40339 0.65362 0.0
C264 C 0.64132 0.44983 0.54759 0.0
H265 H 0.68619 0.47973 0.67744 0.0
C266 C 0.72665 0.59308 0.68186 0.0
O267 O 0.62755 0.72202 0.68561 0.0
O268 O 0.59002 0.63918 0.69804 0.0
N269 N 0.65852 0.52943 0.49354 0.0
C270 C 0.65723 0.55926 0.44465 0.0
C271 C 0.63255 0.53582 0.39689 0.0
C272 C 0.60979 0.48193 0.39983 0.0
C273 C 0.6128 0.45131 0.45016 0.0
C274 C 0.63837 0.47658 0.49618 0.0
H275 H 0.6742 0.601 0.44236 0.0
O276 O 0.58499 0.66021 0.58092 0.0
O277 O 0.63195 0.58629 0.59221 0.0
O278 O 0.6871 0.69056 0.58408 0.0
O279 O 0.71833 0.62063 0.53282 0.0
C280 C 0.58992 0.3977 0.45723 0.0
C281 C 0.59282 0.37044 0.50977 0.0
H282 H 0.60388 0.33247 0.61788 0.0
H283 H 0.64778 0.38572 0.69555 0.0
H284 H 0.63038 0.55963 0.35817 0.0
H285 H 0.58942 0.46507 0.36346 0.0
H286 H 0.56884 0.37755 0.42322 0.0
H287 H 0.5744 0.32965 0.51475 0.0
C288 C 0.26116 0.31683 0.49343 0.0
C289 C 0.30093 0.30405 0.45964 0.0
C290 C 0.23266 0.27416 0.51784 0.0
C291 C 0.24238 0.2163 0.50985 0.0
H292 H 0.25248 0.36051 0.50248 0.0
H293 H 0.20321 0.2871 0.54424 0.0
S294 S 0.34005 0.15936 0.42132 0.0
N295 N 0.34694 0.22894 0.41656 0.0
N296 N 0.29309 0.14833 0.46234 0.0
C297 C 0.28064 0.20255 0.47391 0.0
C298 C 0.30988 0.2464 0.44885 0.0
C299 C 0.74727 0.57682 0.78421 0.0
C300 C 0.76139 0.57674 0.72755 0.0
C301 C 0.7756 0.55048 0.82628 0.0
C302 C 0.81896 0.52297 0.81313 0.0
H303 H 0.71285 0.59463 0.79567 0.0
H304 H 0.76238 0.54976 0.86892 0.0
S305 S 0.87586 0.51955 0.67265 0.0
N306 N 0.82442 0.55303 0.66184 0.0
N307 N 0.87752 0.50386 0.74033 0.0
C308 C 0.83491 0.52595 0.75721 0.0
C309 C 0.80621 0.55275 0.71464 0.0
C310 C 0.54613 0.09624 0.97066 0.0
C311 C 0.56323 0.07729 0.02344 0.0
C312 C 0.51341 0.06249 0.93721 0.0
C313 C 0.49543 1.01014 0.95682 0.0
H314 H 0.55893 0.13671 0.95474 0.0
H315 H 0.50148 0.07776 0.89631 0.0
S316 S 0.5278 0.94295 0.09288 0.0
N317 N 0.55821 1.00435 0.09473 0.0
N318 N 0.49829 0.9402 0.03123 0.0
C319 C 0.51221 0.99106 1.00956 0.0
C320 C 0.54532 0.02518 0.04336 0.0
C321 C 0.99404 0.73072 0.30759 0.0
C322 C 0.99978 0.78966 0.31596 0.0
C323 C 1.02698 0.70068 0.27454 0.0
C324 C 0.06656 0.72883 0.24898 0.0
H325 H 0.96314 0.70813 0.32507 0.0
H326 H 1.02047 0.6556 0.26753 0.0
S327 S 0.09635 0.88363 0.25893 0.0
N328 N 0.04667 0.87513 0.29592 0.0
N329 N 0.10958 0.81958 0.23638 0.0
C330 C 0.073 0.78776 0.25883 0.0
C331 C 0.03925 0.81797 0.29155 0.0
C332 C 0.27432 0.0497 0.81978 0.0
C333 C 0.31598 1.01884 0.80655 0.0
C334 C 0.24585 0.07534 0.77744 0.0
C335 C 0.25798 0.07115 0.72028 0.0
H336 H 0.26258 0.05252 0.86295 0.0
H337 H 0.21289 0.09622 0.78936 0.0
S338 S 0.36741 1.00309 0.66392 0.0
N339 N 0.3707 0.99135 0.73239 0.0
N340 N 0.31739 0.03932 0.65337 0.0
C341 C 0.30104 0.04336 0.70688 0.0
C342 C 0.32993 1.01726 0.7498 0.0
C343 C 1.01529 0.49529 1.00866 0.0
C344 C 0.99886 0.51386 0.95558 0.0
C345 C 0.04711 0.52902 0.04253 0.0
C346 C 0.06488 0.58165 0.02371 0.0
H347 H 1.00335 0.45432 0.02424 0.0
H348 H 0.05812 0.51359 0.08372 0.0
S349 S 0.03368 0.64903 0.88757 0.0
N350 N 1.00301 0.58768 0.88513 0.0
N351 N 0.06328 0.65158 0.94929 0.0
C352 C 0.0487 0.60096 0.97083 0.0
C353 C 1.01623 0.56641 0.93613 0.0
C354 C 0.48777 0.23145 0.2963 0.0
C355 C 0.50081 0.28648 0.31591 0.0
C356 C 0.51997 0.19995 0.26357 0.0
C357 C 0.56582 0.22303 0.2489 0.0
H358 H 0.45201 0.21342 0.30483 0.0
H359 H 0.50794 0.15858 0.24749 0.0
S360 S 0.61628 0.36576 0.29022 0.0
N361 N 0.56164 0.36276 0.31765 0.0
N362 N 0.62287 0.30368 0.25904 0.0
C363 C 0.57949 0.27738 0.27013 0.0
C364 C 0.54671 0.30917 0.30274 0.0
C365 C 0.8122 0.74733 0.45915 0.0
C366 C 0.79684 0.80387 0.45829 0.0
C367 C 0.78432 0.70448 0.48524 0.0
C368 C 0.74024 0.71678 0.51143 0.0
H369 H 0.84717 0.73668 0.44232 0.0
H370 H 0.79851 0.66207 0.48707 0.0
S371 S 0.68003 0.85618 0.51149 0.0
N372 N 0.73188 0.86822 0.47942 0.0
N373 N 0.67963 0.78833 0.52789 0.0
C374 C 0.72305 0.77242 0.50724 0.0
C375 C 0.75129 0.81575 0.48083 0.0
C376 C 0.29774 0.53938 0.21543 0.0
C377 C 0.25864 0.57452 0.22788 0.0
C378 C 0.32457 0.51266 0.25799 0.0
C379 C 0.31379 0.51964 0.31538 0.0
H380 H 0.30709 0.53102 0.17206 0.0
H381 H 0.35363 0.48544 0.24532 0.0
S382 S 0.21723 0.61074 0.37141 0.0
N383 N 0.21205 0.6175 0.30226 0.0
N384 N 0.26282 0.56754 0.38263 0.0
C385 C 0.27616 0.55675 0.32885 0.0
C386 C 0.24863 0.58414 0.28513 0.0
C387 C 0.81632 0.25365 0.95797 0.0
C388 C 0.80288 0.31086 0.95997 0.0
C389 C 0.7875 0.21087 0.98274 0.0
C390 C 0.74423 0.2238 1.01042 0.0
H391 H 0.85048 0.24217 0.9396 0.0
H392 H 0.80023 0.16778 0.98206 0.0
S393 S 0.68904 0.36592 0.01868 0.0
N394 N 0.74062 0.37709 0.98581 0.0
N395 N 0.6866 0.29737 0.03192 0.0
C396 C 0.729 0.28044 1.00942 0.0
C397 C 0.75825 0.32373 0.98432 0.0
C398 C 0.82292 1.01223 0.25615 0.0
C399 C 0.81091 1.01882 0.31321 0.0
C400 C 0.79723 0.03958 0.21307 0.0
C401 C 0.75808 0.07494 0.22469 0.0
H402 H 0.85211 0.9849 0.24413 0.0
H403 H 0.80743 0.03146 0.16995 0.0
S404 S 0.7137 0.11017 0.36723 0.0
N405 N 0.75878 0.06648 0.37934 0.0
N406 N 0.71012 0.11764 0.29807 0.0
C407 C 0.74687 0.08414 0.2817 0.0
C408 C 0.77324 0.05612 0.32591 0.0
C409 C 1.00797 0.99164 0.50876 0.0
C410 C 0.99065 1.01036 0.45607 0.0
C411 C 0.04037 0.02528 0.54214 0.0
C412 C 0.05782 0.07807 0.52325 0.0
H413 H 0.99649 0.95048 0.52428 0.0
H414 H 0.0522 1.0096 0.58294 0.0
S415 S 1.02389 0.14622 0.38832 0.0
N416 N 0.99339 0.08477 0.38616 0.0
N417 N 0.05454 0.14847 0.44937 0.0
C418 C 0.04051 0.09767 0.47093 0.0
C419 C 1.00751 0.0632 0.43672 0.0
C420 C 0.04915 0.30743 0.80525 0.0
C421 C 1.00331 0.28613 0.82087 0.0
C422 C 0.07964 0.27517 0.77182 0.0
C423 C 0.06543 0.22028 0.75243 0.0
H424 H 0.06041 0.35062 0.81612 0.0
H425 H 0.11383 0.29455 0.75915 0.0
S426 S 0.94977 0.14392 0.78562 0.0
N427 N 0.94561 0.20639 0.81719 0.0
N428 N 1.00337 0.1447 0.75534 0.0
C429 C 1.02056 0.19738 0.77039 0.0
C430 C 0.98923 0.23072 0.80407 0.0
C431 C 0.57754 0.77663 0.77218 0.0
C432 C 0.5654 0.72034 0.75546 0.0
C433 C 0.5462 0.80844 0.80479 0.0
C434 C 0.50182 0.78514 0.82279 0.0
H435 H 0.61059 0.79742 0.75787 0.0
H436 H 0.55549 0.8527 0.81311 0.0
S437 S 0.45349 0.63929 0.79398 0.0
N438 N 0.50646 0.64182 0.76235 0.0
N439 N 0.44739 0.70243 0.82357 0.0
C440 C 0.48977 0.7285 0.80856 0.0
C441 C 0.5218 0.69575 0.77525 0.0
C442 C 0.28828 0.7091 0.98464 0.0
C443 C 0.24418 0.72097 1.0109 0.0
C444 C 0.31561 0.75219 0.95828 0.0
C445 C 0.29968 0.80854 0.95722 0.0
H446 H 0.30282 0.66687 0.98649 0.0
H447 H 0.35059 0.74185 0.94127 0.0
S448 S 0.18258 0.85963 1.01059 0.0
N449 N 0.18287 0.79187 0.02722 0.0
N450 N 0.23425 0.87219 0.97834 0.0
C451 C 0.25416 0.81998 0.97991 0.0
C452 C 0.22643 0.77641 1.00656 0.0
C453 C 0.51193 0.49005 0.51109 0.0
C454 C 0.49532 0.50941 0.45831 0.0
C455 C 0.54411 0.52316 0.54538 0.0
C456 C 0.56202 0.57606 0.52736 0.0
H457 H 0.50002 0.44882 0.52601 0.0
H458 H 0.55526 0.50706 0.58624 0.0
S459 S 0.52998 0.64589 0.39267 0.0
N460 N 0.49924 0.58462 0.38935 0.0
N461 N 0.55989 0.64728 0.45419 0.0
C462 C 0.5454 0.59629 0.47496 0.0
C463 C 0.51267 0.56237 0.43984 0.0
loop_
_geom_bond_atom_site_label_1
_geom_bond_atom_site_label_2
_geom_bond_distance
_geom_bond_site_symmetry_2
_ccdc_geom_bond_type
Mn0 O5 2.095 . S
Mn0 O15 2.162 . S
Mn0 O16 2.297 . S
Mn0 O24 2.385 . S
Mn0 O25 2.209 . S
Mn0 O26 2.094 . S
Mn1 O6 2.121 . S
Mn1 N8 2.257 1_545 S
Mn1 N17 2.282 . S
Mn1 O25 2.215 . S
Mn1 O27 2.117 . S
C2 O24 1.234 . S
C2 O25 1.283 . S
C3 O15 1.281 . S
C3 O16 1.236 . S
C4 O26 1.240 . S
C4 O27 1.264 . S
O5 Mn0 2.095 . S
O5 C14 1.250 . S
O6 Mn1 2.121 . S
O6 C14 1.258 . S
C7 N8 1.326 . S
C7 C11 1.460 . S
C7 H13 0.929 . S
N8 Mn1 2.257 1_565 S
N8 C7 1.326 . S
N8 C12 1.362 . S
C9 C10 1.258 . S
C9 C12 1.431 . S
C9 C29 1.449 . S
C10 C9 1.258 . S
C10 C11 1.477 . S
C10 H30 0.931 . S
C11 C7 1.460 . S
C11 C10 1.477 . S
C11 H31 0.930 . S
C12 N8 1.362 . S
C12 C9 1.431 . S
C12 C22 1.476 . S
H13 C7 0.929 . S
C14 O5 1.250 . S
C14 O6 1.258 . S
O15 Mn0 2.162 . S
O15 C3 1.281 . S
O16 Mn0 2.297 . S
O16 C3 1.236 . S
N17 Mn1 2.282 . S
N17 C18 1.328 . S
N17 C22 1.318 1_545 S
C18 N17 1.328 . S
C18 C19 1.457 . S
C18 H23 0.929 . S
C19 C18 1.457 . S
C19 C20 1.291 . S
C19 H32 0.931 . S
C20 C19 1.291 . S
C20 C21 1.373 1_545 S
C20 H33 0.929 1_545 S
C21 C20 1.373 1_565 S
C21 C22 1.396 . S
C21 C28 1.403 . S
C22 C12 1.476 . S
C22 N17 1.318 1_565 S
C22 C21 1.396 . S
H23 C18 0.929 . S
O24 Mn0 2.385 . S
O24 C2 1.234 . S
O25 Mn0 2.209 . S
O25 Mn1 2.215 . S
O25 C2 1.283 . S
O26 Mn0 2.094 . S
O26 C4 1.240 . S
O27 Mn1 2.117 . S
O27 C4 1.264 . S
C28 C21 1.403 . S
C28 C29 1.399 . S
C28 H34 0.929 . S
C29 C9 1.449 . S
C29 C28 1.399 . S
C29 H35 0.930 . S
H30 C10 0.931 . S
H31 C11 0.930 . S
H32 C19 0.931 . S
H33 C20 0.929 1_565 S
H34 C28 0.929 . S
H35 C29 0.930 . S
Mn36 O41 2.095 . S
Mn36 O51 2.162 . S
Mn36 O52 2.297 . S
Mn36 O60 2.385 . S
Mn36 O61 2.209 . S
Mn36 O62 2.094 . S
Mn37 O42 2.121 . S
Mn37 N44 2.257 1_556 S
Mn37 N53 2.282 . S
Mn37 O61 2.215 . S
Mn37 O63 2.117 . S
C38 O60 1.234 . S
C38 O61 1.283 . S
C39 O51 1.281 . S
C39 O52 1.236 . S
C40 O62 1.240 . S
C40 O63 1.264 . S
O41 Mn36 2.095 . S
O41 C50 1.250 . S
O42 Mn37 2.121 . S
O42 C50 1.258 . S
C43 N44 1.326 . S
C43 C47 1.460 . S
C43 H49 0.929 . S
N44 Mn37 2.257 1_554 S
N44 C43 1.326 . S
N44 C48 1.362 . S
C45 C46 1.258 . S
C45 C48 1.431 . S
C45 C65 1.449 . S
C46 C45 1.258 . S
C46 C47 1.477 . S
C46 H66 0.931 . S
C47 C43 1.460 . S
C47 C46 1.477 . S
C47 H67 0.930 . S
C48 N44 1.362 . S
C48 C45 1.431 . S
C48 C58 1.476 . S
H49 C43 0.929 . S
C50 O41 1.250 . S
C50 O42 1.258 . S
O51 Mn36 2.162 . S
O51 C39 1.281 . S
O52 Mn36 2.297 . S
O52 C39 1.236 . S
N53 Mn37 2.282 . S
N53 C54 1.328 . S
N53 C58 1.318 1_556 S
C54 N53 1.328 . S
C54 C55 1.457 . S
C54 H59 0.929 . S
C55 C54 1.457 . S
C55 C56 1.291 . S
C55 H68 0.931 . S
C56 C55 1.291 . S
C56 C57 1.373 1_556 S
C56 H69 0.929 1_556 S
C57 C56 1.373 1_554 S
C57 C58 1.396 . S
C57 C64 1.403 . S
C58 C48 1.476 . S
C58 N53 1.318 1_554 S
C58 C57 1.396 . S
H59 C54 0.929 . S
O60 Mn36 2.385 . S
O60 C38 1.234 . S
O61 Mn36 2.209 . S
O61 Mn37 2.215 . S
O61 C38 1.283 . S
O62 Mn36 2.094 . S
O62 C40 1.240 . S
O63 Mn37 2.117 . S
O63 C40 1.264 . S
C64 C57 1.403 . S
C64 C65 1.399 . S
C64 H70 0.929 . S
C65 C45 1.449 . S
C65 C64 1.399 . S
C65 H71 0.930 . S
H66 C46 0.931 . S
H67 C47 0.930 . S
H68 C55 0.931 . S
H69 C56 0.929 1_554 S
H70 C64 0.929 . S
H71 C65 0.930 . S
Mn72 O77 2.095 . S
Mn72 O87 2.162 . S
Mn72 O88 2.297 . S
Mn72 O96 2.385 . S
Mn72 O97 2.209 . S
Mn72 O98 2.094 . S
Mn73 O78 2.121 . S
Mn73 N80 2.257 1_545 S
Mn73 N89 2.282 1_554 S
Mn73 O97 2.215 . S
Mn73 O99 2.117 . S
C74 O96 1.234 . S
C74 O97 1.283 . S
C75 O87 1.281 . S
C75 O88 1.236 . S
C76 O98 1.240 . S
C76 O99 1.264 . S
O77 Mn72 2.095 . S
O77 C86 1.250 . S
O78 Mn73 2.121 . S
O78 C86 1.258 . S
C79 N80 1.326 . S
C79 C83 1.460 . S
C79 H85 0.929 . S
N80 Mn73 2.257 1_565 S
N80 C79 1.326 . S
N80 C84 1.375 . S
C81 C82 1.258 1_556 S
C81 C84 1.429 1_556 S
C81 C101 1.449 . S
C82 C81 1.258 1_554 S
C82 C83 1.477 . S
C82 H102 0.931 . S
C83 C79 1.460 . S
C83 C82 1.477 . S
C83 H103 0.930 . S
C84 N80 1.375 . S
C84 C81 1.429 1_554 S
C84 C94 1.466 1_554 S
H85 C79 0.929 . S
C86 O77 1.250 . S
C86 O78 1.258 . S
O87 Mn72 2.162 . S
O87 C75 1.281 . S
O88 Mn72 2.297 . S
O88 C75 1.236 . S
N89 Mn73 2.282 1_556 S
N89 C90 1.328 . S
N89 C94 1.318 1_545 S
C90 N89 1.328 . S
C90 C91 1.457 . S
C90 H95 0.929 . S
C91 C90 1.457 . S
C91 C92 1.291 . S
C91 H104 0.931 . S
C92 C91 1.291 . S
C92 C93 1.373 1_545 S
C92 H105 0.929 1_545 S
C93 C92 1.373 1_565 S
C93 C94 1.396 . S
C93 C100 1.403 . S
C94 C84 1.466 1_556 S
C94 N89 1.318 1_565 S
C94 C93 1.396 . S
H95 C90 0.929 . S
O96 Mn72 2.385 . S
O96 C74 1.234 . S
O97 Mn72 2.209 . S
O97 Mn73 2.215 . S
O97 C74 1.283 . S
O98 Mn72 2.094 . S
O98 C76 1.240 . S
O99 Mn73 2.117 . S
O99 C76 1.264 . S
C100 C93 1.403 . S
C100 C101 1.399 . S
C100 H106 0.929 . S
C101 C81 1.449 . S
C101 C100 1.399 . S
C101 H107 0.930 . S
H102 C82 0.931 . S
H103 C83 0.930 . S
H104 C91 0.931 . S
H105 C92 0.929 1_565 S
H106 C100 0.929 . S
H107 C101 0.930 . S
Mn108 O113 2.095 . S
Mn108 O123 2.162 . S
Mn108 O124 2.297 . S
Mn108 O132 2.385 . S
Mn108 O133 2.209 . S
Mn108 O134 2.094 . S
Mn109 O114 2.121 . S
Mn109 N116 2.257 . S
Mn109 N125 2.282 1_565 S
Mn109 O133 2.215 . S
Mn109 O135 2.117 . S
C110 O132 1.234 . S
C110 O133 1.283 . S
C111 O123 1.281 . S
C111 O124 1.236 . S
C112 O134 1.240 . S
C112 O135 1.264 . S
O113 Mn108 2.095 . S
O113 C122 1.250 . S
O114 Mn109 2.121 . S
O114 C122 1.258 . S
C115 N116 1.326 . S
C115 C119 1.460 . S
C115 H121 0.929 . S
N116 Mn109 2.257 . S
N116 C115 1.326 . S
N116 C120 1.375 . S
C117 C118 1.258 1_545 S
C117 C120 1.429 1_545 S
C117 C137 1.449 . S
C118 C117 1.258 1_565 S
C118 C119 1.477 . S
C118 H138 0.931 . S
C119 C115 1.460 . S
C119 C118 1.477 . S
C119 H139 0.930 . S
C120 N116 1.375 . S
C120 C117 1.429 1_565 S
C120 C130 1.466 1_565 S
H121 C115 0.929 . S
C122 O113 1.250 . S
C122 O114 1.258 . S
O123 Mn108 2.162 . S
O123 C111 1.281 . S
O124 Mn108 2.297 . S
O124 C111 1.236 . S
N125 Mn109 2.282 1_545 S
N125 C126 1.328 . S
N125 C130 1.318 . S
C126 N125 1.328 . S
C126 C127 1.457 . S
C126 H131 0.929 . S
C127 C126 1.457 . S
C127 C128 1.291 . S
C127 H140 0.931 . S
C128 C127 1.291 . S
C128 C129 1.373 . S
C128 H141 0.929 . S
C129 C128 1.373 . S
C129 C130 1.396 . S
C129 C136 1.403 . S
C130 C120 1.466 1_545 S
C130 N125 1.318 . S
C130 C129 1.396 . S
H131 C126 0.929 . S
O132 Mn108 2.385 . S
O132 C110 1.234 . S
O133 Mn108 2.209 . S
O133 Mn109 2.215 . S
O133 C110 1.283 . S
O134 Mn108 2.094 . S
O134 C112 1.240 . S
O135 Mn109 2.117 . S
O135 C112 1.264 . S
C136 C129 1.403 . S
C136 C137 1.399 . S
C136 H142 0.929 . S
C137 C117 1.449 . S
C137 C136 1.399 . S
C137 H143 0.930 . S
H138 C118 0.931 . S
H139 C119 0.930 . S
H140 C127 0.931 . S
H141 C128 0.929 . S
H142 C136 0.929 . S
H143 C137 0.930 . S
Mn144 O149 2.095 . S
Mn144 O159 2.162 . S
Mn144 O160 2.297 . S
Mn144 O168 2.385 . S
Mn144 O169 2.209 . S
Mn144 O170 2.094 . S
Mn145 O150 2.121 . S
Mn145 N152 2.257 . S
Mn145 N161 2.282 1_554 S
Mn145 O169 2.215 . S
Mn145 O171 2.117 . S
C146 O168 1.234 . S
C146 O169 1.283 . S
C147 O159 1.281 . S
C147 O160 1.236 . S
C148 O170 1.240 . S
C148 O171 1.264 . S
O149 Mn144 2.095 . S
O149 C158 1.250 . S
O150 Mn145 2.121 . S
O150 C158 1.258 . S
C151 N152 1.326 . S
C151 C155 1.460 . S
C151 H157 0.929 . S
N152 Mn145 2.257 . S
N152 C151 1.326 . S
N152 C156 1.375 . S
C153 C154 1.258 1_556 S
C153 C156 1.429 1_556 S
C153 C173 1.449 . S
C154 C153 1.258 1_554 S
C154 C155 1.477 . S
C154 H174 0.931 . S
C155 C151 1.460 . S
C155 C154 1.477 . S
C155 H175 0.930 . S
C156 N152 1.375 . S
C156 C153 1.429 1_554 S
C156 C166 1.466 1_554 S
H157 C151 0.929 . S
C158 O149 1.250 . S
C158 O150 1.258 . S
O159 Mn144 2.162 . S
O159 C147 1.281 . S
O160 Mn144 2.297 . S
O160 C147 1.236 . S
N161 Mn145 2.282 1_556 S
N161 C162 1.328 . S
N161 C166 1.318 . S
C162 N161 1.328 . S
C162 C163 1.457 . S
C162 H167 0.929 . S
C163 C162 1.457 . S
C163 C164 1.291 . S
C163 H176 0.931 . S
C164 C163 1.291 . S
C164 C165 1.373 . S
C164 H177 0.929 . S
C165 C164 1.373 . S
C165 C166 1.396 . S
C165 C172 1.403 . S
C166 C156 1.466 1_556 S
C166 N161 1.318 . S
C166 C165 1.396 . S
H167 C162 0.929 . S
O168 Mn144 2.385 . S
O168 C146 1.234 . S
O169 Mn144 2.209 . S
O169 Mn145 2.215 . S
O169 C146 1.283 . S
O170 Mn144 2.094 . S
O170 C148 1.240 . S
O171 Mn145 2.117 . S
O171 C148 1.264 . S
C172 C165 1.403 . S
C172 C173 1.399 . S
C172 H178 0.929 . S
C173 C153 1.449 . S
C173 C172 1.399 . S
C173 H179 0.930 . S
H174 C154 0.931 . S
H175 C155 0.930 . S
H176 C163 0.931 . S
H177 C164 0.929 . S
H178 C172 0.929 . S
H179 C173 0.930 . S
Mn180 O185 2.095 . S
Mn180 O195 2.162 . S
Mn180 O196 2.297 . S
Mn180 O204 2.385 . S
Mn180 O205 2.209 . S
Mn180 O206 2.094 . S
Mn181 O186 2.121 . S
Mn181 N188 2.257 . S
Mn181 N197 2.282 . S
Mn181 O205 2.215 . S
Mn181 O207 2.117 . S
C182 O204 1.234 . S
C182 O205 1.283 . S
C183 O195 1.281 . S
C183 O196 1.236 . S
C184 O206 1.240 . S
C184 O207 1.264 . S
O185 Mn180 2.095 . S
O185 C194 1.250 . S
O186 Mn181 2.121 . S
O186 C194 1.258 . S
C187 N188 1.326 . S
C187 C191 1.460 . S
C187 H193 0.929 . S
N188 Mn181 2.257 . S
N188 C187 1.326 . S
N188 C192 1.362 . S
C189 C190 1.258 . S
C189 C192 1.431 . S
C189 C209 1.449 . S
C190 C189 1.258 . S
C190 C191 1.477 . S
C190 H210 0.931 . S
C191 C187 1.460 . S
C191 C190 1.477 . S
C191 H211 0.930 . S
C192 N188 1.362 . S
C192 C189 1.431 . S
C192 C202 1.476 . S
H193 C187 0.929 . S
C194 O185 1.250 . S
C194 O186 1.258 . S
O195 Mn180 2.162 . S
O195 C183 1.281 . S
O196 Mn180 2.297 . S
O196 C183 1.236 . S
N197 Mn181 2.282 . S
N197 C198 1.328 . S
N197 C202 1.318 . S
C198 N197 1.328 . S
C198 C199 1.457 . S
C198 H203 0.929 . S
C199 C198 1.457 . S
C199 C200 1.291 . S
C199 H212 0.931 . S
C200 C199 1.291 . S
C200 C201 1.373 . S
C200 H213 0.929 . S
C201 C200 1.373 . S
C201 C202 1.396 . S
C201 C208 1.403 . S
C202 C192 1.476 . S
C202 N197 1.318 . S
C202 C201 1.396 . S
H203 C198 0.929 . S
O204 Mn180 2.385 . S
O204 C182 1.234 . S
O205 Mn180 2.209 . S
O205 Mn181 2.215 . S
O205 C182 1.283 . S
O206 Mn180 2.094 . S
O206 C184 1.240 . S
O207 Mn181 2.117 . S
O207 C184 1.264 . S
C208 C201 1.403 . S
C208 C209 1.399 . S
C208 H214 0.929 . S
C209 C189 1.449 . S
C209 C208 1.399 . S
C209 H215 0.930 . S
H210 C190 0.931 . S
H211 C191 0.930 . S
H212 C199 0.931 . S
H213 C200 0.929 . S
H214 C208 0.929 . S
H215 C209 0.930 . S
Mn216 O221 2.095 . S
Mn216 O231 2.162 . S
Mn216 O232 2.297 . S
Mn216 O240 2.385 . S
Mn216 O241 2.209 . S
Mn216 O242 2.094 . S
Mn217 O222 2.121 . S
Mn217 N224 2.257 1_556 S
Mn217 N233 2.282 1_565 S
Mn217 O241 2.215 . S
Mn217 O243 2.117 . S
C218 O240 1.234 . S
C218 O241 1.283 . S
C219 O231 1.281 . S
C219 O232 1.236 . S
C220 O242 1.240 . S
C220 O243 1.264 . S
O221 Mn216 2.095 . S
O221 C230 1.250 . S
O222 Mn217 2.121 . S
O222 C230 1.258 . S
C223 N224 1.326 . S
C223 C227 1.460 . S
C223 H229 0.929 . S
N224 Mn217 2.257 1_554 S
N224 C223 1.326 . S
N224 C228 1.375 . S
C225 C226 1.258 1_545 S
C225 C228 1.429 1_545 S
C225 C245 1.449 . S
C226 C225 1.258 1_565 S
C226 C227 1.477 . S
C226 H246 0.931 . S
C227 C223 1.460 . S
C227 C226 1.477 . S
C227 H247 0.930 . S
C228 N224 1.375 . S
C228 C225 1.429 1_565 S
C228 C238 1.466 1_565 S
H229 C223 0.929 . S
C230 O221 1.250 . S
C230 O222 1.258 . S
O231 Mn216 2.162 . S
O231 C219 1.281 . S
O232 Mn216 2.297 . S
O232 C219 1.236 . S
N233 Mn217 2.282 1_545 S
N233 C234 1.328 . S
N233 C238 1.318 1_556 S
C234 N233 1.328 . S
C234 C235 1.457 . S
C234 H239 0.929 . S
C235 C234 1.457 . S
C235 C236 1.291 . S
C235 H248 0.931 . S
C236 C235 1.291 . S
C236 C237 1.373 1_556 S
C236 H249 0.929 1_556 S
C237 C236 1.373 1_554 S
C237 C238 1.396 . S
C237 C244 1.403 . S
C238 C228 1.466 1_545 S
C238 N233 1.318 1_554 S
C238 C237 1.396 . S
H239 C234 0.929 . S
O240 Mn216 2.385 . S
O240 C218 1.234 . S
O241 Mn216 2.209 . S
O241 Mn217 2.215 . S
O241 C218 1.283 . S
O242 Mn216 2.094 . S
O242 C220 1.240 . S
O243 Mn217 2.117 . S
O243 C220 1.264 . S
C244 C237 1.403 . S
C244 C245 1.399 . S
C244 H250 0.929 . S
C245 C225 1.449 . S
C245 C244 1.399 . S
C245 H251 0.930 . S
H246 C226 0.931 . S
H247 C227 0.930 . S
H248 C235 0.931 . S
H249 C236 0.929 1_554 S
H250 C244 0.929 . S
H251 C245 0.930 . S
Mn252 O257 2.095 . S
Mn252 O267 2.162 . S
Mn252 O268 2.297 . S
Mn252 O276 2.385 . S
Mn252 O277 2.209 . S
Mn252 O278 2.094 . S
Mn253 O258 2.121 . S
Mn253 N260 2.257 . S
Mn253 N269 2.282 . S
Mn253 O277 2.215 . S
Mn253 O279 2.117 . S
C254 O276 1.234 . S
C254 O277 1.283 . S
C255 O267 1.281 . S
C255 O268 1.236 . S
C256 O278 1.240 . S
C256 O279 1.264 . S
O257 Mn252 2.095 . S
O257 C266 1.250 . S
O258 Mn253 2.121 . S
O258 C266 1.258 . S
C259 N260 1.326 . S
C259 C263 1.460 . S
C259 H265 0.929 . S
N260 Mn253 2.257 . S
N260 C259 1.326 . S
N260 C264 1.362 . S
C261 C262 1.258 . S
C261 C264 1.431 . S
C261 C281 1.449 . S
C262 C261 1.258 . S
C262 C263 1.477 . S
C262 H282 0.931 . S
C263 C259 1.460 . S
C263 C262 1.477 . S
C263 H283 0.930 . S
C264 N260 1.362 . S
C264 C261 1.431 . S
C264 C274 1.476 . S
H265 C259 0.929 . S
C266 O257 1.250 . S
C266 O258 1.258 . S
O267 Mn252 2.162 . S
O267 C255 1.281 . S
O268 Mn252 2.297 . S
O268 C255 1.236 . S
N269 Mn253 2.282 . S
N269 C270 1.328 . S
N269 C274 1.318 . S
C270 N269 1.328 . S
C270 C271 1.457 . S
C270 H275 0.929 . S
C271 C270 1.457 . S
C271 C272 1.291 . S
C271 H284 0.931 . S
C272 C271 1.291 . S
C272 C273 1.373 . S
C272 H285 0.929 . S
C273 C272 1.373 . S
C273 C274 1.396 . S
C273 C280 1.403 . S
C274 C264 1.476 . S
C274 N269 1.318 . S
C274 C273 1.396 . S
H275 C270 0.929 . S
O276 Mn252 2.385 . S
O276 C254 1.234 . S
O277 Mn252 2.209 . S
O277 Mn253 2.215 . S
O277 C254 1.283 . S
O278 Mn252 2.094 . S
O278 C256 1.240 . S
O279 Mn253 2.117 . S
O279 C256 1.264 . S
C280 C273 1.403 . S
C280 C281 1.399 . S
C280 H286 0.929 . S
C281 C261 1.449 . S
C281 C280 1.399 . S
C281 H287 0.930 . S
H282 C262 0.931 . S
H283 C263 0.930 . S
H284 C271 0.931 . S
H285 C272 0.929 . S
H286 C280 0.929 . S
H287 C281 0.930 . S
C288 C289 1.369 . S
C288 C290 1.419 . S
C288 H292 0.930 . S
C289 C288 1.369 . S
C289 C298 1.429 . S
C290 C288 1.419 . S
C290 C291 1.363 . S
C290 H293 0.929 . S
C291 C290 1.363 . S
C291 C297 1.428 . S
H292 C288 0.930 . S
H293 C290 0.929 . S
S294 N295 1.613 . S
S294 N296 1.610 . S
N295 S294 1.613 . S
N295 C298 1.350 . S
N296 S294 1.610 . S
N296 C297 1.351 . S
C297 C291 1.428 . S
C297 N296 1.351 . S
C297 C298 1.434 . S
C298 C289 1.429 . S
C298 N295 1.350 . S
C298 C297 1.434 . S
C299 C300 1.369 . S
C299 C301 1.419 . S
C299 H303 0.930 . S
C300 C299 1.369 . S
C300 C309 1.429 . S
C301 C299 1.419 . S
C301 C302 1.363 . S
C301 H304 0.929 . S
C302 C301 1.363 . S
C302 C308 1.428 . S
H303 C299 0.930 . S
H304 C301 0.929 . S
S305 N306 1.613 . S
S305 N307 1.610 . S
N306 S305 1.613 . S
N306 C309 1.350 . S
N307 S305 1.610 . S
N307 C308 1.351 . S
C308 C302 1.428 . S
C308 N307 1.351 . S
C308 C309 1.434 . S
C309 C300 1.429 . S
C309 N306 1.350 . S
C309 C308 1.434 . S
C310 C311 1.369 . S
C310 C312 1.419 1_554 S
C310 H314 0.930 . S
C311 C310 1.369 . S
C311 C320 1.429 1_554 S
C312 C310 1.419 1_556 S
C312 C313 1.363 1_545 S
C312 H315 0.929 . S
C313 C312 1.363 1_565 S
C313 C319 1.428 . S
H314 C310 0.930 . S
H315 C312 0.929 . S
S316 N317 1.613 . S
S316 N318 1.610 . S
N317 S316 1.613 . S
N317 C320 1.350 1_565 S
N318 S316 1.610 . S
N318 C319 1.351 . S
C319 C313 1.428 . S
C319 N318 1.351 . S
C319 C320 1.434 1_565 S
C320 C311 1.429 1_556 S
C320 N317 1.350 1_545 S
C320 C319 1.434 1_545 S
C321 C322 1.369 . S
C321 C323 1.419 1_655 S
C321 H325 0.930 . S
C322 C321 1.369 . S
C322 C331 1.429 . S
C323 C321 1.419 1_455 S
C323 C324 1.363 . S
C323 H326 0.929 . S
C324 C323 1.363 . S
C324 C330 1.428 . S
H325 C321 0.930 . S
H326 C323 0.929 . S
S327 N328 1.613 1_455 S
S327 N329 1.610 . S
N328 S327 1.613 1_655 S
N328 C331 1.350 . S
N329 S327 1.610 . S
N329 C330 1.351 . S
C330 C324 1.428 . S
C330 N329 1.351 . S
C330 C331 1.434 1_455 S
C331 C322 1.429 . S
C331 N328 1.350 . S
C331 C330 1.434 1_655 S
C332 C333 1.369 . S
C332 C334 1.419 1_565 S
C332 H336 0.930 . S
C333 C332 1.369 . S
C333 C342 1.429 1_565 S
C334 C332 1.419 1_545 S
C334 C335 1.363 . S
C334 H337 0.929 1_545 S
C335 C334 1.363 . S
C335 C341 1.428 . S
H336 C332 0.930 . S
H337 C334 0.929 1_565 S
S338 N339 1.613 . S
S338 N340 1.610 . S
N339 S338 1.613 . S
N339 C342 1.350 . S
N340 S338 1.610 . S
N340 C341 1.351 . S
C341 C335 1.428 . S
C341 N340 1.351 . S
C341 C342 1.434 . S
C342 C333 1.429 1_545 S
C342 N339 1.350 . S
C342 C341 1.434 . S
C343 C344 1.374 . S
C343 C345 1.415 1_556 S
C343 H347 0.928 1_556 S
C344 C343 1.374 . S
C344 C353 1.429 1_655 S
C345 C343 1.415 1_554 S
C345 C346 1.363 1_655 S
C345 H348 0.929 . S
C346 C345 1.363 1_455 S
C346 C352 1.428 1_554 S
H347 C343 0.928 1_554 S
H348 C345 0.929 . S
S349 N350 1.613 . S
S349 N351 1.610 . S
N350 S349 1.613 . S
N350 C353 1.350 . S
N351 S349 1.610 . S
N351 C352 1.351 . S
C352 C346 1.428 1_556 S
C352 N351 1.351 . S
C352 C353 1.434 . S
C353 C344 1.429 1_455 S
C353 N350 1.350 . S
C353 C352 1.434 . S
C354 C355 1.369 . S
C354 C356 1.419 . S
C354 H358 0.930 . S
C355 C354 1.369 . S
C355 C364 1.429 . S
C356 C354 1.419 . S
C356 C357 1.363 . S
C356 H359 0.929 . S
C357 C356 1.363 . S
C357 C363 1.428 . S
H358 C354 0.930 . S
H359 C356 0.929 . S
S360 N361 1.613 . S
S360 N362 1.610 . S
N361 S360 1.613 . S
N361 C364 1.350 . S
N362 S360 1.610 . S
N362 C363 1.351 . S
C363 C357 1.428 . S
C363 N362 1.351 . S
C363 C364 1.434 . S
C364 C355 1.429 . S
C364 N361 1.350 . S
C364 C363 1.434 . S
C365 C366 1.369 . S
C365 C367 1.419 . S
C365 H369 0.930 . S
C366 C365 1.369 . S
C366 C375 1.429 . S
C367 C365 1.419 . S
C367 C368 1.363 . S
C367 H370 0.929 . S
C368 C367 1.363 . S
C368 C374 1.428 . S
H369 C365 0.930 . S
H370 C367 0.929 . S
S371 N372 1.613 . S
S371 N373 1.610 . S
N372 S371 1.613 . S
N372 C375 1.350 . S
N373 S371 1.610 . S
N373 C374 1.351 . S
C374 C368 1.428 . S
C374 N373 1.351 . S
C374 C375 1.434 . S
C375 C366 1.429 . S
C375 N372 1.350 . S
C375 C374 1.434 . S
C376 C377 1.369 . S
C376 C378 1.419 . S
C376 H380 0.930 . S
C377 C376 1.369 . S
C377 C386 1.429 . S
C378 C376 1.419 . S
C378 C379 1.363 . S
C378 H381 0.929 . S
C379 C378 1.363 . S
C379 C385 1.428 . S
H380 C376 0.930 . S
H381 C378 0.929 . S
S382 N383 1.613 . S
S382 N384 1.610 . S
N383 S382 1.613 . S
N383 C386 1.350 . S
N384 S382 1.610 . S
N384 C385 1.351 . S
C385 C379 1.428 . S
C385 N384 1.351 . S
C385 C386 1.434 . S
C386 C377 1.429 . S
C386 N383 1.350 . S
C386 C385 1.434 . S
C387 C388 1.369 . S
C387 C389 1.419 . S
C387 H391 0.930 . S
C388 C387 1.369 . S
C388 C397 1.429 1_556 S
C389 C387 1.419 . S
C389 C390 1.363 1_556 S
C389 H392 0.929 . S
C390 C389 1.363 1_554 S
C390 C396 1.428 . S
H391 C387 0.930 . S
H392 C389 0.929 . S
S393 N394 1.613 . S
S393 N395 1.610 . S
N394 S393 1.613 . S
N394 C397 1.350 . S
N395 S393 1.610 . S
N395 C396 1.351 . S
C396 C390 1.428 . S
C396 N395 1.351 . S
C396 C397 1.434 . S
C397 C388 1.429 1_554 S
C397 N394 1.350 . S
C397 C396 1.434 . S
C398 C399 1.369 1_545 S
C398 C400 1.419 . S
C398 H402 0.930 . S
C399 C398 1.369 1_565 S
C399 C408 1.429 . S
C400 C398 1.419 . S
C400 C401 1.363 . S
C400 H403 0.929 . S
C401 C400 1.363 . S
C401 C407 1.428 1_545 S
H402 C398 0.930 . S
H403 C400 0.929 . S
S404 N405 1.613 . S
S404 N406 1.610 . S
N405 S404 1.613 . S
N405 C408 1.350 . S
N406 S404 1.610 . S
N406 C407 1.351 . S
C407 C401 1.428 1_565 S
C407 N406 1.351 . S
C407 C408 1.434 . S
C408 C399 1.429 . S
C408 N405 1.350 . S
C408 C407 1.434 . S
C409 C410 1.369 . S
C409 C411 1.419 1_655 S
C409 H413 0.930 . S
C410 C409 1.369 . S
C410 C419 1.429 1_565 S
C411 C409 1.419 1_455 S
C411 C412 1.363 1_565 S
C411 H414 0.929 . S
C412 C411 1.363 1_545 S
C412 C418 1.428 . S
H413 C409 0.930 . S
H414 C411 0.929 . S
S415 N416 1.613 1_455 S
S415 N417 1.610 . S
N416 S415 1.613 1_655 S
N416 C419 1.350 . S
N417 S415 1.610 . S
N417 C418 1.351 . S
C418 C412 1.428 . S
C418 N417 1.351 . S
C418 C419 1.434 1_455 S
C419 C410 1.429 1_545 S
C419 N416 1.350 . S
C419 C418 1.434 1_655 S
C420 C421 1.369 1_455 S
C420 C422 1.419 . S
C420 H424 0.930 . S
C421 C420 1.369 1_655 S
C421 C430 1.429 . S
C422 C420 1.419 . S
C422 C423 1.363 . S
C422 H425 0.929 . S
C423 C422 1.363 . S
C423 C429 1.428 1_455 S
H424 C420 0.930 . S
H425 C422 0.929 . S
S426 N427 1.613 . S
S426 N428 1.610 . S
N427 S426 1.613 . S
N427 C430 1.350 . S
N428 S426 1.610 . S
N428 C429 1.351 . S
C429 C423 1.428 1_655 S
C429 N428 1.351 . S
C429 C430 1.434 . S
C430 C421 1.429 . S
C430 N427 1.350 . S
C430 C429 1.434 . S
C431 C432 1.369 . S
C431 C433 1.419 . S
C431 H435 0.930 . S
C432 C431 1.369 . S
C432 C441 1.429 . S
C433 C431 1.419 . S
C433 C434 1.363 . S
C433 H436 0.929 . S
C434 C433 1.363 . S
C434 C440 1.428 . S
H435 C431 0.930 . S
H436 C433 0.929 . S
S437 N438 1.613 . S
S437 N439 1.610 . S
N438 S437 1.613 . S
N438 C441 1.350 . S
N439 S437 1.610 . S
N439 C440 1.351 . S
C440 C434 1.428 . S
C440 N439 1.351 . S
C440 C441 1.434 . S
C441 C432 1.429 . S
C441 N438 1.350 . S
C441 C440 1.434 . S
C442 C443 1.369 . S
C442 C444 1.419 1_554 S
C442 H446 0.930 . S
C443 C442 1.369 . S
C443 C452 1.429 1_554 S
C444 C442 1.419 1_556 S
C444 C445 1.363 . S
C444 H447 0.929 . S
C445 C444 1.363 . S
C445 C451 1.428 . S
H446 C442 0.930 . S
H447 C444 0.929 . S
S448 N449 1.604 1_556 S
S448 N450 1.610 . S
N449 S448 1.604 1_554 S
N449 C452 1.348 1_554 S
N450 S448 1.610 . S
N450 C451 1.351 . S
C451 C445 1.428 . S
C451 N450 1.351 . S
C451 C452 1.434 . S
C452 C443 1.429 1_556 S
C452 N449 1.348 1_556 S
C452 C451 1.434 . S
C453 C454 1.369 . S
C453 C455 1.419 . S
C453 H457 0.930 . S
C454 C453 1.369 . S
C454 C463 1.429 . S
C455 C453 1.419 . S
C455 C456 1.363 . S
C455 H458 0.929 . S
C456 C455 1.363 . S
C456 C462 1.428 . S
H457 C453 0.930 . S
H458 C455 0.929 . S
S459 N460 1.613 . S
S459 N461 1.610 . S
N460 S459 1.613 . S
N460 C463 1.350 . S
N461 S459 1.610 . S
N461 C462 1.351 . S
C462 C456 1.428 . S
C462 N461 1.351 . S
C462 C463 1.434 . S
C463 C454 1.429 . S
C463 N460 1.350 . S
C463 C462 1.434 . S
C289 C194 1.463 . S
C291 C4 1.525 . S
C300 C266 1.455 . S
C302 C40 1.525 . S
C311 C74 1.515 . S
C313 C218 1.514 . S
C322 C111 1.528 . S
C324 C147 1.529 . S
C333 C220 1.525 . S
C335 C14 1.458 . S
C344 C38 1.514 . S
C346 C146 1.515 . S
C355 C183 1.529 . S
C357 C75 1.529 . S
C366 C122 1.458 . S
C368 C256 1.525 . S
C377 C158 1.461 . S
C379 C184 1.525 . S
C388 C50 1.456 . S
C390 C76 1.526 . S
C399 C112 1.526 . S
C401 C86 1.456 . S
C410 C110 1.513 . S
C412 C2 1.514 . S
C421 C39 1.530 . S
C423 C3 1.531 . S
C432 C255 1.530 . S
C434 C219 1.529 . S
C443 C148 1.525 . S
C445 C230 1.455 . S
C454 C182 1.514 . S
C456 C254 1.514 . S
