# Generated by pormake.
# Topology umx, (4)-cn, num edge types: 1
# Building blocks:
#     Node 0, Type 0, BuildingBlock: ICAMEG_clean_sbu_1, # of connection points: 4
#     Node 1, Type 0, BuildingBlock: ICAMEG_clean_sbu_1, # of connection points: 4
#     Node 2, Type 0, BuildingBlock: ICAMEG_clean_sbu_1, # of connection points: 4
#     Node 3, Type 0, BuildingBlock: ICAMEG_clean_sbu_1, # of connection points: 4
#     Node 4, Type 0, BuildingBlock: ICAMEG_clean_sbu_1, # of connection points: 4
#     Node 5, Type 0, BuildingBlock: ICAMEG_clean_sbu_1, # of connection points: 4
#     Node 6, Type 0, BuildingBlock: ICAMEG_clean_sbu_1, # of connection points: 4
#     Node 7, Type 0, BuildingBlock: ICAMEG_clean_sbu_1, # of connection points: 4
#     Edge 8, Type (0, 0), BuildingBlock: ZUJKAS_clean_linker_0, # of connection points: 2
#     Edge 9, Type (0, 0), BuildingBlock: ZUJKAS_clean_linker_0, # of connection points: 2
#     Edge 10, Type (0, 0), BuildingBlock: ZUJKAS_clean_linker_0, # of connection points: 2
#     Edge 11, Type (0, 0), BuildingBlock: ZUJKAS_clean_linker_0, # of connection points: 2
#     Edge 12, Type (0, 0), BuildingBlock: ZUJKAS_clean_linker_0, # of connection points: 2
#     Edge 13, Type (0, 0), BuildingBlock: ZUJKAS_clean_linker_0, # of connection points: 2
#     Edge 14, Type (0, 0), BuildingBlock: ZUJKAS_clean_linker_0, # of connection points: 2
#     Edge 15, Type (0, 0), BuildingBlock: ZUJKAS_clean_linker_0, # of connection points: 2
#     Edge 16, Type (0, 0), BuildingBlock: ZUJKAS_clean_linker_0, # of connection points: 2
#     Edge 17, Type (0, 0), BuildingBlock: ZUJKAS_clean_linker_0, # of connection points: 2
#     Edge 18, Type (0, 0), BuildingBlock: ZUJKAS_clean_linker_0, # of connection points: 2
#     Edge 19, Type (0, 0), BuildingBlock: ZUJKAS_clean_linker_0, # of connection points: 2
#     Edge 20, Type (0, 0), BuildingBlock: ZUJKAS_clean_linker_0, # of connection points: 2
#     Edge 21, Type (0, 0), BuildingBlock: ZUJKAS_clean_linker_0, # of connection points: 2
#     Edge 22, Type (0, 0), BuildingBlock: ZUJKAS_clean_linker_0, # of connection points: 2
#     Edge 23, Type (0, 0), BuildingBlock: ZUJKAS_clean_linker_0, # of connection points: 2
# Relax obj value: 0.032
# Max RMSD: 0.112
# Mean RMSD: 0.112
data_MOF--net-umx--node1-ICAMEG_clean_sbu_1--edge1-ZUJKAS_clean_linker_0
_symmetry_space_group_name_H-M    P1
_symmetry_Int_Tables_number       1
_symmetry_cell_setting            triclinic
loop_
_symmetry_equiv_pos_as_xyz
'x, y, z'
_cell_length_a     53.43204
_cell_length_b     53.432481
_cell_length_c     39.146841
_cell_angle_alpha  90.00449
_cell_angle_beta   90.000949
_cell_angle_gamma 90.003061
loop_
_atom_site_label
_atom_site_type_symbol
_atom_site_fract_x
_atom_site_fract_y
_atom_site_fract_z
_atom_type_partial_charge
Co0 Co 0.1826 0.48312 0.02672 0.0
Co1 Co 0.16753 0.42345 0.0532 0.0
O2 O 0.18464 0.44681 0.02279 0.0
C3 C 0.16723 0.47279 0.95591 0.0
O4 O 0.15274 0.45519 0.9684 0.0
C5 C 0.22064 0.40869 0.05594 0.0
O6 O 0.22573 0.43237 0.06156 0.0
O7 O 0.1804 0.44114 0.09431 0.0
O8 O 0.18418 0.4812 0.07765 0.0
H9 H 0.11449 0.39863 0.15362 0.0
H10 H 0.22103 0.46036 0.98184 0.0
O11 O 0.18084 0.48587 0.97579 0.0
H12 H 0.26818 0.50914 0.06726 0.0
H13 H 0.20288 0.57152 0.99196 0.0
H14 H 0.15493 0.51833 0.07143 0.0
H15 H 0.22203 0.50851 0.06816 0.0
H16 H 0.20561 0.5255 0.98842 0.0
O17 O 0.19799 0.40158 0.05277 0.0
H18 H 0.1356 0.42826 0.11481 0.0
H19 H 0.16449 0.36781 0.05643 0.0
H20 H 0.15181 0.56428 0.07606 0.0
H21 H 0.26717 0.4606 0.97985 0.0
H22 H 0.17591 0.59119 0.03612 0.0
H23 H 0.29106 0.48505 0.02286 0.0
O24 O 0.14547 0.48169 0.02859 0.0
H25 H 0.17445 0.38386 0.93712 0.0
H26 H 0.11716 0.40539 0.03142 0.0
H27 H 0.1005 0.3846 0.97997 0.0
H28 H 0.12923 0.37367 0.93238 0.0
H29 H 0.1903 0.40486 0.98889 0.0
H30 H 0.14385 0.33751 0.09476 0.0
H31 H 0.11855 0.35289 0.14368 0.0
O32 O 0.13676 0.44491 0.05396 0.0
C33 C 0.18435 0.46423 0.10059 0.0
C34 C 0.12538 0.3917 0.13232 0.0
C35 C 0.14189 0.35739 0.09931 0.0
N36 N 0.15104 0.39977 0.08322 0.0
C37 C 0.13731 0.40838 0.1102 0.0
C38 C 0.15356 0.37463 0.07773 0.0
C39 C 0.12769 0.36604 0.12675 0.0
C40 C 0.23129 0.47126 0.00041 0.0
N41 N 0.21885 0.4845 0.02498 0.0
C42 C 0.25742 0.47124 -0.00075 0.0
C43 C 0.27081 0.48493 0.02343 0.0
C44 C 0.25798 0.49843 0.04836 0.0
C45 C 0.23185 0.49797 0.04878 0.0
C46 C 0.19234 0.56 0.00955 0.0
C47 C 0.16559 0.52993 0.0541 0.0
C48 C 0.19377 0.53393 0.00763 0.0
N49 N 0.1806 0.51927 0.02989 0.0
C50 C 0.1637 0.55593 0.05678 0.0
C51 C 0.1772 0.57102 0.03434 0.0
C52 C 0.13023 0.46616 0.04199 0.0
C53 C 0.16176 0.38846 0.95773 0.0
C54 C 0.12978 0.40074 0.01079 0.0
C55 C 0.12024 0.38892 0.98175 0.0
C56 C 0.13638 0.38278 0.95507 0.0
N57 N 0.15471 0.40623 0.01323 0.0
C58 C 0.17064 0.40024 0.98718 0.0
Co59 Co 0.51785 0.18395 0.52541 0.0
Co60 Co 0.57735 0.16854 0.55232 0.0
O61 O 0.55419 0.18579 0.52175 0.0
C62 C 0.52841 0.16843 0.45474 0.0
O63 O 0.54593 0.15393 0.46742 0.0
C64 C 0.59235 0.22158 0.5553 0.0
O65 O 0.56866 0.22679 0.56063 0.0
O66 O 0.55955 0.18147 0.59329 0.0
O67 O 0.51958 0.18559 0.57637 0.0
H68 H 0.60149 0.11535 0.65288 0.0
H69 H 0.54099 0.22218 0.48059 0.0
O70 O 0.5153 0.18212 0.47447 0.0
H71 H 0.49218 0.26973 0.56554 0.0
H72 H 0.42972 0.20468 0.4899 0.0
H73 H 0.48229 0.15653 0.5699 0.0
H74 H 0.49255 0.22358 0.56659 0.0
H75 H 0.47577 0.20715 0.48674 0.0
O76 O 0.59936 0.19891 0.55213 0.0
H77 H 0.57213 0.1366 0.61384 0.0
H78 H 0.63296 0.16525 0.55599 0.0
H79 H 0.43631 0.15367 0.57416 0.0
H80 H 0.54101 0.26832 0.47847 0.0
H81 H 0.4097 0.17787 0.53395 0.0
H82 H 0.51654 0.29241 0.52124 0.0
O83 O 0.51906 0.14682 0.52738 0.0
H84 H 0.6175 0.17541 0.43659 0.0
H85 H 0.59527 0.11812 0.53059 0.0
H86 H 0.61622 0.10141 0.47929 0.0
H87 H 0.62751 0.13015 0.43186 0.0
H88 H 0.59633 0.19129 0.48821 0.0
H89 H 0.663 0.14447 0.59456 0.0
H90 H 0.64729 0.11922 0.64334 0.0
O91 O 0.55575 0.13788 0.55285 0.0
C92 C 0.53647 0.1856 0.59942 0.0
C93 C 0.60856 0.12622 0.63165 0.0
C94 C 0.64309 0.14259 0.59894 0.0
N95 N 0.60083 0.15193 0.5825 0.0
C96 C 0.59203 0.13822 0.60939 0.0
C97 C 0.626 0.15434 0.57723 0.0
C98 C 0.63426 0.12842 0.6263 0.0
C99 C 0.53008 0.23253 0.49906 0.0
N100 N 0.51669 0.22021 0.52357 0.0
C101 C 0.53025 0.25866 0.49782 0.0
C102 C 0.51655 0.27216 0.52187 0.0
C103 C 0.50289 0.25944 0.54675 0.0
C104 C 0.50321 0.23331 0.54725 0.0
C105 C 0.44111 0.19409 0.50761 0.0
C106 C 0.47083 0.16724 0.55247 0.0
C107 C 0.46719 0.19538 0.5059 0.0
N108 N 0.48168 0.18216 0.52831 0.0
C109 C 0.44481 0.16549 0.55493 0.0
C110 C 0.42989 0.17905 0.53234 0.0
C111 C 0.53447 0.13148 0.54081 0.0
C112 C 0.61275 0.16271 0.45714 0.0
C113 C 0.60007 0.13074 0.51002 0.0
C114 C 0.61198 0.12117 0.48107 0.0
C115 C 0.61832 0.13731 0.45448 0.0
N116 N 0.59468 0.15568 0.51246 0.0
C117 C 0.60086 0.17162 0.4865 0.0
Co118 Co 0.81639 0.51756 0.0258 0.0
Co119 Co 0.83305 0.57636 0.05409 0.0
O120 O 0.81566 0.55393 0.02275 0.0
C121 C 0.83388 0.52794 0.95592 0.0
O122 O 0.84961 0.54393 0.96962 0.0
C123 C 0.78034 0.59235 0.05623 0.0
O124 O 0.77471 0.5687 0.06106 0.0
O125 O 0.81931 0.55845 0.09446 0.0
O126 O 0.81406 0.51879 0.07678 0.0
H127 H 0.88569 0.5983 0.15613 0.0
H128 H 0.77951 0.54225 0.98036 0.0
O129 O 0.81885 0.51565 0.97481 0.0
H130 H 0.72932 0.49395 0.063 0.0
H131 H 0.7937 0.43051 0.98768 0.0
H132 H 0.84197 0.4807 0.07038 0.0
H133 H 0.77544 0.493 0.06534 0.0
H134 H 0.79268 0.47664 0.98544 0.0
O135 O 0.80316 0.59903 0.05368 0.0
H136 H 0.86423 0.56981 0.11611 0.0
H137 H 0.83751 0.63184 0.05891 0.0
H138 H 0.84336 0.43461 0.07373 0.0
H139 H 0.73343 0.5436 0.97695 0.0
H140 H 0.8191 0.4092 0.03216 0.0
H141 H 0.70802 0.5194 0.01856 0.0
O142 O 0.85353 0.51765 0.02898 0.0
H143 H 0.82844 0.61761 0.93888 0.0
H144 H 0.88409 0.5934 0.03381 0.0
H145 H 0.90185 0.61446 0.98327 0.0
H146 H 0.87395 0.62675 0.93537 0.0
H147 H 0.81149 0.59632 0.98977 0.0
H148 H 0.85852 0.66102 0.09847 0.0
H149 H 0.88291 0.64427 0.14741 0.0
O150 O 0.86317 0.55404 0.05481 0.0
C151 C 0.81439 0.53547 0.10013 0.0
C152 C 0.8752 0.60583 0.13482 0.0
C153 C 0.85992 0.64103 0.10249 0.0
N154 N 0.84985 0.59916 0.08504 0.0
C155 C 0.86308 0.58979 0.11202 0.0
C156 C 0.84803 0.62442 0.08022 0.0
C157 C 0.87361 0.63162 0.12994 0.0
C158 C 0.76858 0.53146 0.99832 0.0
N159 N 0.78015 0.51747 0.02291 0.0
C160 C 0.7425 0.53238 0.99636 0.0
C161 C 0.72825 0.51883 0.01975 0.0
C162 C 0.74019 0.50456 0.04471 0.0
C163 C 0.76631 0.50413 0.04595 0.0
C164 C 0.80431 0.44137 0.00598 0.0
C165 C 0.83124 0.46976 0.05235 0.0
C166 C 0.80384 0.46749 0.0048 0.0
N167 N 0.81708 0.48132 0.02795 0.0
C168 C 0.83216 0.44368 0.05431 0.0
C169 C 0.81856 0.42943 0.03095 0.0
C170 C 0.86912 0.53261 0.04283 0.0
C171 C 0.84078 0.61242 0.95964 0.0
C172 C 0.87182 0.59865 0.01304 0.0
C173 C 0.88199 0.61061 0.98452 0.0
C174 C 0.86632 0.61751 0.95766 0.0
N175 N 0.84675 0.59376 0.01482 0.0
C176 C 0.83127 0.60046 0.98858 0.0
Co177 Co 0.48352 0.81774 0.52559 0.0
Co178 Co 0.42429 0.83391 0.55256 0.0
O179 O 0.4472 0.81648 0.52196 0.0
C180 C 0.47343 0.83407 0.45514 0.0
O181 O 0.45729 0.84995 0.46817 0.0
C182 C 0.40894 0.78104 0.5555 0.0
O183 O 0.43261 0.77579 0.56091 0.0
O184 O 0.44198 0.82074 0.59343 0.0
O185 O 0.48191 0.81606 0.57658 0.0
H186 H 0.4008 0.88721 0.6533 0.0
H187 H 0.45969 0.7799 0.48074 0.0
O188 O 0.48577 0.81949 0.47461 0.0
H189 H 0.50799 0.73153 0.56538 0.0
H190 H 0.57117 0.79574 0.48933 0.0
H191 H 0.51967 0.84446 0.57001 0.0
H192 H 0.50831 0.77768 0.56653 0.0
H193 H 0.52507 0.79403 0.48647 0.0
O194 O 0.40198 0.80373 0.55229 0.0
H195 H 0.4299 0.86572 0.61414 0.0
H196 H 0.36873 0.83775 0.55635 0.0
H197 H 0.56571 0.84656 0.57397 0.0
H198 H 0.45898 0.73377 0.47852 0.0
H199 H 0.59178 0.82208 0.53342 0.0
H200 H 0.48318 0.70927 0.52113 0.0
O201 O 0.48291 0.8549 0.52784 0.0
H202 H 0.38421 0.82774 0.43672 0.0
H203 H 0.40683 0.88454 0.53111 0.0
H204 H 0.38606 0.90159 0.47989 0.0
H205 H 0.37457 0.8731 0.43225 0.0
H206 H 0.40519 0.81152 0.48828 0.0
H207 H 0.33893 0.85877 0.59504 0.0
H208 H 0.35495 0.88381 0.64384 0.0
O209 O 0.44626 0.86431 0.55315 0.0
C210 C 0.46499 0.81627 0.59959 0.0
C211 C 0.39359 0.87644 0.63205 0.0
C212 C 0.35887 0.86045 0.59938 0.0
N213 N 0.40101 0.85072 0.58282 0.0
C214 C 0.40998 0.86431 0.60974 0.0
C215 C 0.37582 0.84856 0.5776 0.0
C216 C 0.36787 0.8745 0.62675 0.0
C217 C 0.47049 0.76937 0.49914 0.0
N218 N 0.48412 0.78147 0.52362 0.0
C219 C 0.46992 0.74325 0.49785 0.0
C220 C 0.48348 0.72952 0.5218 0.0
C221 C 0.49738 0.742 0.54665 0.0
C222 C 0.49746 0.76813 0.54721 0.0
C223 C 0.56002 0.80645 0.50719 0.0
C224 C 0.5309 0.83363 0.55243 0.0
C225 C 0.53392 0.80559 0.50565 0.0
N226 N 0.51973 0.81896 0.52825 0.0
C227 C 0.55695 0.83495 0.55472 0.0
C228 C 0.57157 0.82122 0.53194 0.0
C229 C 0.46767 0.87043 0.54128 0.0
C230 C 0.38905 0.84033 0.45735 0.0
C231 C 0.40193 0.87203 0.51046 0.0
C232 C 0.39013 0.88179 0.48155 0.0
C233 C 0.38368 0.86579 0.45484 0.0
N234 N 0.40709 0.84703 0.51276 0.0
C235 C 0.40083 0.83123 0.48667 0.0
Co236 Co 0.18435 0.51776 0.52521 0.0
Co237 Co 0.168 0.57791 0.50198 0.0
O238 O 0.18567 0.55399 0.53088 0.0
C239 C 0.16794 0.52635 0.59592 0.0
O240 O 0.15332 0.5439 0.58358 0.0
C241 C 0.22098 0.5932 0.49867 0.0
O242 O 0.22629 0.56966 0.49236 0.0
O243 O 0.18036 0.56125 0.45975 0.0
O244 O 0.18653 0.52106 0.47449 0.0
H245 H 0.11304 0.60449 0.40437 0.0
H246 H 0.22171 0.54016 0.57211 0.0
O247 O 0.18196 0.51377 0.57597 0.0
H248 H 0.27096 0.49455 0.48565 0.0
H249 H 0.20597 0.429 0.55654 0.0
H250 H 0.15809 0.4831 0.47814 0.0
H251 H 0.22482 0.49427 0.48361 0.0
H252 H 0.20767 0.47496 0.56221 0.0
O253 O 0.19829 0.60001 0.50243 0.0
H254 H 0.13496 0.5742 0.44134 0.0
H255 H 0.16462 0.63359 0.50101 0.0
H256 H 0.156 0.43724 0.47138 0.0
H257 H 0.26782 0.5408 0.57523 0.0
H258 H 0.18007 0.40986 0.51077 0.0
H259 H 0.29275 0.51795 0.53171 0.0
O260 O 0.1472 0.51837 0.52233 0.0
H261 H 0.17649 0.61473 0.61955 0.0
H262 H 0.1179 0.59527 0.52591 0.0
H263 H 0.10192 0.61473 0.57871 0.0
H264 H 0.13132 0.6246 0.62599 0.0
H265 H 0.19165 0.59508 0.56643 0.0
H266 H 0.14318 0.66455 0.46454 0.0
H267 H 0.11708 0.65003 0.4159 0.0
O268 O 0.13743 0.55629 0.50132 0.0
C269 C 0.18554 0.53857 0.45237 0.0
C270 C 0.12429 0.61105 0.42556 0.0
C271 C 0.14123 0.64476 0.4593 0.0
N272 N 0.15087 0.60212 0.47345 0.0
C273 C 0.13668 0.59398 0.44663 0.0
C274 C 0.15337 0.62715 0.47982 0.0
C275 C 0.12659 0.6366 0.43202 0.0
C276 C 0.23244 0.52995 0.5533 0.0
N277 N 0.22059 0.51708 0.52783 0.0
C278 C 0.25854 0.53047 0.55511 0.0
C279 C 0.27252 0.51768 0.53064 0.0
C280 C 0.2603 0.50456 0.50478 0.0
C281 C 0.23417 0.5045 0.50373 0.0
C282 C 0.19544 0.44073 0.53918 0.0
C283 C 0.16873 0.4713 0.49523 0.0
C284 C 0.1963 0.46675 0.5423 0.0
N285 N 0.18316 0.48167 0.52033 0.0
C286 C 0.16742 0.44535 0.49135 0.0
C287 C 0.18091 0.43 0.51348 0.0
C288 C 0.13145 0.53426 0.51097 0.0
C289 C 0.16352 0.61059 0.59909 0.0
C290 C 0.13081 0.59947 0.54638 0.0
C291 C 0.12166 0.61053 0.5762 0.0
C292 C 0.13816 0.61608 0.6027 0.0
N293 N 0.15571 0.59415 0.54302 0.0
C294 C 0.17201 0.59956 0.56889 0.0
Co295 Co 0.48291 0.18311 0.02392 0.0
Co296 Co 0.42244 0.16746 0.00125 0.0
O297 O 0.44671 0.18499 0.02981 0.0
C298 C 0.47438 0.16724 0.09488 0.0
O299 O 0.45661 0.15276 0.08283 0.0
C300 C 0.4079 0.22064 0.99734 0.0
O301 O 0.43155 0.22559 0.99124 0.0
O302 O 0.43915 0.17931 0.95878 0.0
O303 O 0.47947 0.18501 0.9732 0.0
H304 H 0.39483 0.11226 0.90443 0.0
H305 H 0.46128 0.2211 0.07055 0.0
O306 O 0.48704 0.181 0.07468 0.0
H307 H 0.50727 0.26911 0.98319 0.0
H308 H 0.5721 0.20364 0.05442 0.0
H309 H 0.51702 0.15601 0.97699 0.0
H310 H 0.50682 0.22296 0.98166 0.0
H311 H 0.52618 0.20606 0.06034 0.0
O312 O 0.40077 0.19807 0.00135 0.0
H313 H 0.42552 0.13399 0.941 0.0
H314 H 0.36672 0.16484 0.00062 0.0
H315 H 0.56282 0.1532 0.96998 0.0
H316 H 0.46137 0.26723 0.07317 0.0
H317 H 0.59068 0.17713 0.00888 0.0
H318 H 0.48443 0.29154 0.0292 0.0
O319 O 0.48175 0.14597 0.0215 0.0
H320 H 0.38615 0.17728 0.11892 0.0
H321 H 0.40443 0.11778 0.0259 0.0
H322 H 0.38494 0.10244 0.07902 0.0
H323 H 0.37566 0.13229 0.12599 0.0
H324 H 0.40583 0.19179 0.06548 0.0
H325 H 0.33536 0.1436 0.96454 0.0
H326 H 0.34938 0.11701 0.91613 0.0
O327 O 0.44362 0.13657 0.00087 0.0
C328 C 0.46187 0.18414 0.9512 0.0
C329 C 0.38849 0.12373 0.92552 0.0
C330 C 0.35511 0.14135 0.95923 0.0
N331 N 0.39792 0.15048 0.97306 0.0
C332 C 0.40578 0.13601 0.94636 0.0
C333 C 0.37295 0.15336 0.97952 0.0
C334 C 0.36299 0.12642 0.93208 0.0
C335 C 0.47157 0.23155 0.05154 0.0
N336 N 0.48413 0.21936 0.0261 0.0
C337 C 0.47147 0.25766 0.05306 0.0
C338 C 0.48437 0.2713 0.02835 0.0
C339 C 0.49718 0.25872 0.00251 0.0
C340 C 0.49682 0.23259 0.00175 0.0
C341 C 0.56015 0.19317 0.03727 0.0
C342 C 0.52903 0.16661 0.99387 0.0
C343 C 0.53415 0.19443 0.04053 0.0
N344 N 0.51896 0.18136 0.01883 0.0
C345 C 0.55494 0.16488 0.98984 0.0
C346 C 0.57057 0.1783 0.0117 0.0
C347 C 0.4656 0.13035 0.01046 0.0
C348 C 0.39004 0.16411 0.0986 0.0
C349 C 0.40049 0.13089 0.04623 0.0
C350 C 0.3894 0.1221 0.07623 0.0
C351 C 0.38419 0.13885 0.10257 0.0
N352 N 0.40616 0.15569 0.04253 0.0
C353 C 0.40107 0.17223 0.06822 0.0
Co354 Co 0.81778 0.48407 0.5248 0.0
Co355 Co 0.83403 0.42376 0.50221 0.0
O356 O 0.81656 0.4479 0.53098 0.0
C357 C 0.83541 0.47643 0.59523 0.0
O358 O 0.8507 0.45957 0.58263 0.0
C359 C 0.78099 0.40878 0.49921 0.0
O360 O 0.77586 0.43238 0.49306 0.0
O361 O 0.8216 0.44022 0.45988 0.0
O362 O 0.81513 0.48046 0.47413 0.0
H363 H 0.88863 0.39643 0.40462 0.0
H364 H 0.78086 0.46198 0.57265 0.0
O365 O 0.82056 0.48828 0.57554 0.0
H366 H 0.7308 0.50696 0.48645 0.0
H367 H 0.79637 0.57298 0.55561 0.0
H368 H 0.8435 0.51849 0.47687 0.0
H369 H 0.77691 0.50723 0.48361 0.0
H370 H 0.79481 0.52705 0.56181 0.0
O371 O 0.80362 0.40179 0.50297 0.0
H372 H 0.86692 0.42701 0.44138 0.0
H373 H 0.83717 0.36807 0.50179 0.0
H374 H 0.84545 0.56432 0.46957 0.0
H375 H 0.73479 0.46137 0.5766 0.0
H376 H 0.82175 0.59188 0.50913 0.0
H377 H 0.70944 0.48391 0.53321 0.0
O378 O 0.85492 0.4835 0.52121 0.0
H379 H 0.8258 0.38778 0.62028 0.0
H380 H 0.88412 0.40632 0.52599 0.0
H381 H 0.90021 0.38713 0.57891 0.0
H382 H 0.87095 0.37771 0.62651 0.0
H383 H 0.81054 0.40716 0.56702 0.0
H384 H 0.85839 0.33683 0.46553 0.0
H385 H 0.88443 0.35097 0.41662 0.0
O386 O 0.86466 0.44528 0.50118 0.0
C387 C 0.81616 0.46279 0.45223 0.0
C388 C 0.87741 0.39004 0.42592 0.0
C389 C 0.86041 0.35658 0.46008 0.0
N390 N 0.85098 0.39933 0.47384 0.0
C391 C 0.86514 0.40727 0.44688 0.0
C392 C 0.8484 0.37435 0.48047 0.0
C393 C 0.87502 0.36453 0.43265 0.0
C394 C 0.76996 0.47205 0.55389 0.0
N395 N 0.78156 0.48473 0.52804 0.0
C396 C 0.74388 0.47155 0.55617 0.0
C397 C 0.72967 0.48417 0.53178 0.0
C398 C 0.74164 0.49709 0.50553 0.0
C399 C 0.76776 0.49714 0.50401 0.0
C400 C 0.80673 0.56117 0.53817 0.0
C401 C 0.83302 0.53037 0.49403 0.0
C402 C 0.80595 0.53516 0.54159 0.0
N403 N 0.81887 0.52013 0.51952 0.0
C404 C 0.83425 0.5563 0.48985 0.0
C405 C 0.82097 0.57176 0.51207 0.0
C406 C 0.87065 0.46745 0.5102 0.0
C407 C 0.83872 0.39173 0.59968 0.0
C408 C 0.87128 0.40231 0.5466 0.0
C409 C 0.88049 0.3914 0.57649 0.0
C410 C 0.86406 0.38611 0.60318 0.0
N411 N 0.84639 0.40773 0.54335 0.0
C412 C 0.83017 0.4026 0.56941 0.0
Co413 Co 0.5181 0.81661 0.02435 0.0
Co414 Co 0.57794 0.83407 0.0012 0.0
O415 O 0.55432 0.81598 0.03004 0.0
C416 C 0.52586 0.83369 0.09497 0.0
O417 O 0.54231 0.84949 0.0825 0.0
C418 C 0.59379 0.78134 0.99733 0.0
O419 O 0.57028 0.7759 0.99103 0.0
O420 O 0.56143 0.82168 0.95885 0.0
O421 O 0.52142 0.81451 0.97367 0.0
H422 H 0.60373 0.88988 0.9041 0.0
H423 H 0.54122 0.77965 0.07123 0.0
O424 O 0.5142 0.81882 0.07513 0.0
H425 H 0.4965 0.72958 0.98479 0.0
H426 H 0.42979 0.79326 0.05579 0.0
H427 H 0.48291 0.84212 0.97726 0.0
H428 H 0.49536 0.7757 0.98277 0.0
H429 H 0.47578 0.79252 0.06146 0.0
O430 O 0.60044 0.80405 0.00138 0.0
H431 H 0.57375 0.86735 0.94087 0.0
H432 H 0.63356 0.83819 0.00021 0.0
H433 H 0.43702 0.84325 0.97048 0.0
H434 H 0.54272 0.73357 0.07434 0.0
H435 H 0.41014 0.81869 0.00993 0.0
H436 H 0.52031 0.70822 0.03083 0.0
O437 O 0.51799 0.85379 0.02138 0.0
H438 H 0.61471 0.82568 0.11881 0.0
H439 H 0.59463 0.8843 0.02546 0.0
H440 H 0.61379 0.90037 0.07841 0.0
H441 H 0.62399 0.87097 0.12554 0.0
H442 H 0.59535 0.81043 0.06554 0.0
H443 H 0.66421 0.86024 0.96393 0.0
H444 H 0.64932 0.88639 0.91556 0.0
O445 O 0.55587 0.8643 0.00081 0.0
C446 C 0.53886 0.81601 0.9515 0.0
C447 C 0.61044 0.87861 0.92517 0.0
C448 C 0.64439 0.86195 0.95872 0.0
N449 N 0.6019 0.85165 0.9728 0.0
C450 C 0.59355 0.86587 0.94612 0.0
C451 C 0.62696 0.84946 0.97912 0.0
C452 C 0.63602 0.87662 0.93159 0.0
C453 C 0.53121 0.76875 0.05242 0.0
N454 N 0.51812 0.78035 0.02696 0.0
C455 C 0.53221 0.74266 0.05422 0.0
C456 C 0.51967 0.72845 0.02977 0.0
C457 C 0.50632 0.74042 0.00391 0.0
C458 C 0.50578 0.76654 0.00287 0.0
C459 C 0.44131 0.804 0.03839 0.0
C460 C 0.47134 0.83127 0.99438 0.0
C461 C 0.46735 0.80369 0.04153 0.0
N462 N 0.482 0.8171 0.01952 0.0
C463 C 0.44536 0.83204 0.99049 0.0
C464 C 0.43029 0.81827 0.01265 0.0
C465 C 0.53367 0.86986 0.01025 0.0
C466 C 0.61043 0.83867 0.09842 0.0
C467 C 0.59898 0.87139 0.04586 0.0
C468 C 0.60987 0.88059 0.07576 0.0
C469 C 0.61559 0.86408 0.10219 0.0
N470 N 0.594 0.84643 0.04234 0.0
C471 C 0.59956 0.83013 0.06813 0.0
H472 H 0.18598 0.43462 0.15789 0.0
H473 H 0.18965 0.44828 0.21738 0.0
H474 H 0.1953 0.52501 0.1843 0.0
H475 H 0.19168 0.51173 0.12487 0.0
H476 H 0.22932 0.47988 0.24997 0.0
H477 H 0.13395 0.52175 0.25168 0.0
H478 H 0.14349 0.49901 0.22012 0.0
H479 H 0.15394 0.53085 0.21685 0.0
C480 C 0.1882 0.45439 0.16318 0.0
C481 C 0.18837 0.47207 0.13651 0.0
C482 C 0.19031 0.46213 0.19719 0.0
C483 C 0.19246 0.48764 0.20511 0.0
C484 C 0.19337 0.50525 0.17863 0.0
H485 H 0.1855 0.56973 0.39662 0.0
H486 H 0.18967 0.55797 0.33654 0.0
C487 C 0.19136 0.49757 0.14466 0.0
C488 C 0.19297 0.49595 0.24111 0.0
H489 H 0.15863 0.5271 0.30103 0.0
C490 C 0.2139 0.4902 0.26124 0.0
C491 C 0.17284 0.50949 0.25551 0.0
C492 C 0.14965 0.51555 0.23511 0.0
C493 C 0.21535 0.49788 0.29549 0.0
C494 C 0.19506 0.51115 0.31007 0.0
C495 C 0.1742 0.51701 0.28978 0.0
C496 C 0.19457 0.51845 0.3466 0.0
C497 C 0.23876 0.49209 0.31554 0.0
C498 C 0.19597 0.50014 0.3722 0.0
C499 C 0.19373 0.50678 0.40656 0.0
C500 C 0.18974 0.53189 0.41605 0.0
C501 C 0.18862 0.55024 0.39031 0.0
C502 C 0.19097 0.54356 0.35593 0.0
H503 H 0.25505 0.48893 0.29842 0.0
H504 H 0.24339 0.50748 0.33353 0.0
H505 H 0.23578 0.47474 0.33058 0.0
H506 H 0.19811 0.48058 0.36558 0.0
H507 H 0.19455 0.49209 0.42558 0.0
H508 H 0.48887 0.19243 0.62364 0.0
H509 H 0.47555 0.19605 0.68307 0.0
H510 H 0.55236 0.19122 0.71613 0.0
H511 H 0.56603 0.18757 0.65672 0.0
H512 H 0.4861 0.15887 0.73458 0.0
H513 H 0.52335 0.25279 0.76839 0.0
H514 H 0.5184 0.243 0.72472 0.0
H515 H 0.54511 0.2319 0.74803 0.0
C516 C 0.50304 0.1924 0.64344 0.0
C517 C 0.52857 0.18968 0.6353 0.0
C518 C 0.49534 0.19447 0.6774 0.0
C519 C 0.51298 0.19414 0.70388 0.0
C520 C 0.53849 0.19191 0.69596 0.0
H521 H 0.50852 0.19092 0.92377 0.0
H522 H 0.5197 0.19419 0.86355 0.0
C523 C 0.54624 0.18972 0.66198 0.0
C524 C 0.50455 0.19445 0.73986 0.0
H525 H 0.5073 0.22818 0.8138 0.0
C526 C 0.49054 0.17408 0.7519 0.0
C527 C 0.51056 0.21428 0.76228 0.0
C528 C 0.52502 0.23687 0.75027 0.0
C529 C 0.48285 0.17269 0.78611 0.0
C530 C 0.48881 0.19255 0.80862 0.0
C531 C 0.50268 0.21303 0.79647 0.0
C532 C 0.48158 0.19195 0.84517 0.0
C533 C 0.46918 0.14956 0.79805 0.0
C534 C 0.45635 0.1902 0.85489 0.0
C535 C 0.44984 0.18811 0.88936 0.0
C536 C 0.46846 0.18806 0.9148 0.0
C537 C 0.49366 0.19079 0.90495 0.0
C538 C 0.50012 0.19271 0.87049 0.0
H539 H 0.47189 0.13359 0.78025 0.0
H540 H 0.47556 0.14382 0.82388 0.0
H541 H 0.44883 0.1536 0.79936 0.0
H542 H 0.4417 0.19018 0.83578 0.0
H543 H 0.43025 0.18626 0.896 0.0
H544 H 0.80754 0.50906 0.42452 0.0
H545 H 0.80303 0.51978 0.36435 0.0
H546 H 0.80967 0.44186 0.33709 0.0
H547 H 0.81481 0.43089 0.3973 0.0
H548 H 0.84021 0.47135 0.29939 0.0
H549 H 0.74473 0.51171 0.29964 0.0
H550 H 0.76492 0.52608 0.33056 0.0
H551 H 0.75678 0.49354 0.33487 0.0
C552 C 0.80777 0.4941 0.40585 0.0
C553 C 0.81154 0.46907 0.41587 0.0
C554 C 0.80499 0.50028 0.3714 0.0
C555 C 0.80557 0.48159 0.34625 0.0
C556 C 0.80899 0.45657 0.35613 0.0
H557 H 0.80555 0.48796 0.12365 0.0
H558 H 0.80186 0.4743 0.18297 0.0
C559 C 0.81191 0.45034 0.39059 0.0
C560 C 0.80443 0.48837 0.30954 0.0
H561 H 0.76981 0.52001 0.25018 0.0
C562 C 0.82468 0.48173 0.28855 0.0
C563 C 0.78417 0.50197 0.29545 0.0
C564 C 0.76131 0.50853 0.31622 0.0
C565 C 0.82554 0.48891 0.25411 0.0
C566 C 0.80553 0.5029 0.24024 0.0
C567 C 0.78514 0.50933 0.26102 0.0
C568 C 0.80581 0.51141 0.2043 0.0
C569 C 0.84817 0.48209 0.23298 0.0
C570 C 0.80855 0.53691 0.19672 0.0
C571 C 0.8107 0.54486 0.16283 0.0
C572 C 0.80999 0.52741 0.13588 0.0
C573 C 0.80631 0.50194 0.14366 0.0
C574 C 0.80426 0.49404 0.17756 0.0
H575 H 0.86394 0.47535 0.24904 0.0
H576 H 0.84307 0.46696 0.21484 0.0
H577 H 0.85462 0.49843 0.21782 0.0
H578 H 0.80971 0.55058 0.2171 0.0
H579 H 0.81345 0.56461 0.15784 0.0
H580 H 0.56958 0.81823 0.89529 0.0
H581 H 0.55733 0.81484 0.83517 0.0
H582 H 0.48091 0.80143 0.86522 0.0
H583 H 0.49275 0.80472 0.92522 0.0
H584 H 0.52933 0.77335 0.79932 0.0
H585 H 0.48046 0.8653 0.8016 0.0
H586 H 0.50357 0.85659 0.8331 0.0
H587 H 0.47256 0.84378 0.83525 0.0
C588 C 0.5502 0.81433 0.88918 0.0
C589 C 0.53214 0.81193 0.91518 0.0
C590 C 0.54327 0.81238 0.85483 0.0
C591 C 0.51821 0.80817 0.84592 0.0
C592 C 0.50031 0.80495 0.87169 0.0
H593 H 0.435 0.81299 0.65624 0.0
H594 H 0.4481 0.8087 0.71573 0.0
C595 C 0.50717 0.8068 0.90599 0.0
C596 C 0.51047 0.80811 0.80969 0.0
H597 H 0.47691 0.84142 0.75118 0.0
C598 C 0.51792 0.78821 0.78866 0.0
C599 C 0.49555 0.82753 0.79609 0.0
C600 C 0.48765 0.84965 0.8175 0.0
C601 C 0.51041 0.787 0.7543 0.0
C602 C 0.49555 0.80652 0.74061 0.0
C603 C 0.4882 0.82642 0.76175 0.0
C604 C 0.48769 0.80703 0.7043 0.0
C605 C 0.51796 0.76458 0.73326 0.0
C606 C 0.50561 0.80745 0.67812 0.0
C607 C 0.4982 0.80974 0.64404 0.0
C608 C 0.4727 0.81199 0.6355 0.0
C609 C 0.45478 0.81128 0.66182 0.0
C610 C 0.46223 0.80885 0.69587 0.0
H611 H 0.52269 0.74828 0.74965 0.0
H612 H 0.50282 0.75903 0.71537 0.0
H613 H 0.53481 0.76935 0.71803 0.0
H614 H 0.52539 0.8067 0.68407 0.0
H615 H 0.51254 0.81036 0.62451 0.0
H616 H 0.80218 0.50507 0.63116 0.0
H617 H 0.8026 0.51421 0.69231 0.0
H618 H 0.86953 0.46989 0.70407 0.0
H619 H 0.86884 0.46002 0.64309 0.0
H620 H 0.83634 0.45983 0.75331 0.0
H621 H 0.84747 0.56256 0.74205 0.0
H622 H 0.82055 0.55113 0.71956 0.0
H623 H 0.85139 0.54175 0.70616 0.0
C624 C 0.81705 0.49732 0.64673 0.0
C625 C 0.83558 0.48194 0.63224 0.0
C626 C 0.81735 0.50272 0.68165 0.0
C627 C 0.8364 0.49319 0.70264 0.0
C628 C 0.85475 0.47759 0.6883 0.0
H629 H 0.86805 0.54466 0.90917 0.0
H630 H 0.86913 0.53579 0.84787 0.0
C631 C 0.85433 0.47198 0.65344 0.0
C632 C 0.83681 0.49889 0.73972 0.0
H633 H 0.83697 0.5469 0.79729 0.0
C634 C 0.83662 0.47887 0.76294 0.0
C635 C 0.83759 0.52373 0.75225 0.0
C636 C 0.83953 0.54601 0.72871 0.0
C637 C 0.83671 0.48299 0.79833 0.0
C638 C 0.83628 0.50785 0.81085 0.0
C639 C 0.83697 0.52787 0.78765 0.0
C640 C 0.83532 0.51347 0.84793 0.0
C641 C 0.83774 0.46066 0.8219 0.0
C642 C 0.81569 0.50428 0.86819 0.0
C643 C 0.81516 0.5091 0.90324 0.0
C644 C 0.83404 0.52356 0.91863 0.0
C645 C 0.85327 0.53339 0.89811 0.0
C646 C 0.85391 0.52835 0.86308 0.0
H647 H 0.8455 0.44393 0.8088 0.0
H648 H 0.84933 0.46464 0.84481 0.0
H649 H 0.8185 0.45599 0.83048 0.0
H650 H 0.80076 0.49337 0.85688 0.0
H651 H 0.79992 0.5015 0.91827 0.0
H652 H 0.54192 0.86678 0.14352 0.0
H653 H 0.53256 0.86628 0.20463 0.0
H654 H 0.48924 0.79882 0.1915 0.0
H655 H 0.4979 0.79956 0.13022 0.0
H656 H 0.46511 0.83224 0.2309 0.0
H657 H 0.56268 0.82147 0.27659 0.0
H658 H 0.55854 0.84831 0.24965 0.0
H659 H 0.5541 0.81742 0.23236 0.0
C660 C 0.53048 0.85178 0.15365 0.0
C661 C 0.52071 0.83318 0.13205 0.0
C662 C 0.52528 0.85144 0.18863 0.0
C663 C 0.51057 0.83227 0.20272 0.0
C664 C 0.50072 0.81373 0.18117 0.0
H665 H 0.49986 0.79924 0.4191 0.0
H666 H 0.50756 0.79827 0.35762 0.0
C667 C 0.50571 0.81418 0.14617 0.0
C668 C 0.50489 0.83184 0.23977 0.0
H669 H 0.53204 0.83126 0.31866 0.0
C670 C 0.47973 0.83191 0.25011 0.0
C671 C 0.52399 0.83103 0.26478 0.0
C672 C 0.55133 0.82929 0.25533 0.0
C673 C 0.47314 0.83153 0.28481 0.0
C674 C 0.49225 0.83177 0.30982 0.0
C675 C 0.51741 0.83135 0.29946 0.0
C676 C 0.48667 0.83208 0.34691 0.0
C677 C 0.44577 0.83037 0.29425 0.0
C678 C 0.47242 0.85146 0.36135 0.0
C679 C 0.46775 0.85192 0.39647 0.0
C680 C 0.47764 0.83325 0.41785 0.0
C681 C 0.49202 0.81394 0.40334 0.0
C682 C 0.49645 0.81336 0.36821 0.0
H683 H 0.43425 0.82288 0.27294 0.0
H684 H 0.44275 0.81847 0.31714 0.0
H685 H 0.43899 0.84952 0.30007 0.0
H686 H 0.4652 0.86644 0.34553 0.0
H687 H 0.45677 0.86715 0.40692 0.0
H688 H 0.18893 0.5123 0.92312 0.0
H689 H 0.18848 0.52145 0.86203 0.0
H690 H 0.14637 0.45391 0.8435 0.0
H691 H 0.14619 0.44489 0.90479 0.0
H692 H 0.20719 0.49534 0.80894 0.0
H693 H 0.10447 0.50569 0.79429 0.0
H694 H 0.11952 0.50446 0.83552 0.0
H695 H 0.1136 0.47611 0.81207 0.0
C696 C 0.1795 0.4994 0.90609 0.0
C697 C 0.16742 0.47795 0.91882 0.0
C698 C 0.17927 0.50466 0.87117 0.0
C699 C 0.16702 0.4886 0.84828 0.0
C700 C 0.15538 0.4669 0.86081 0.0
H701 H 0.19003 0.487 0.62868 0.0
H702 H 0.18993 0.47803 0.68985 0.0
C703 C 0.15542 0.4617 0.89581 0.0
C704 C 0.16693 0.49441 0.81126 0.0
H705 H 0.12843 0.50485 0.74313 0.0
C706 C 0.18997 0.49749 0.79456 0.0
C707 C 0.14444 0.4976 0.79267 0.0
C708 C 0.1191 0.49605 0.80958 0.0
C709 C 0.19117 0.50337 0.75967 0.0
C710 C 0.16869 0.50561 0.7408 0.0
C711 C 0.14564 0.50287 0.75758 0.0
C712 C 0.16866 0.51099 0.70366 0.0
C713 C 0.21648 0.50762 0.74356 0.0
C714 C 0.1561 0.53212 0.69099 0.0
C715 C 0.15584 0.53713 0.65596 0.0
C716 C 0.16814 0.52109 0.63298 0.0
C717 C 0.18057 0.49985 0.64574 0.0
C718 C 0.18065 0.49476 0.68072 0.0
H719 H 0.23087 0.51239 0.763 0.0
H720 H 0.22256 0.49022 0.7305 0.0
H721 H 0.21575 0.52289 0.72436 0.0
H722 H 0.14664 0.54482 0.70826 0.0
H723 H 0.14613 0.55366 0.64693 0.0
H724 H 0.48878 0.18966 0.42167 0.0
H725 H 0.47974 0.18888 0.36055 0.0
H726 H 0.54772 0.14738 0.34253 0.0
H727 H 0.55663 0.14751 0.40386 0.0
H728 H 0.50565 0.20761 0.30739 0.0
H729 H 0.49652 0.1047 0.29355 0.0
H730 H 0.49758 0.11994 0.33466 0.0
H731 H 0.52599 0.11428 0.31124 0.0
C732 C 0.50181 0.1803 0.40474 0.0
C733 C 0.52334 0.16847 0.41763 0.0
C734 C 0.4966 0.17988 0.36981 0.0
C735 C 0.51282 0.1677 0.34706 0.0
C736 C 0.53462 0.15633 0.35973 0.0
H737 H 0.51378 0.18964 0.12718 0.0
H738 H 0.523 0.18984 0.18828 0.0
C739 C 0.53975 0.15655 0.39476 0.0
C740 C 0.50704 0.16737 0.31003 0.0
H741 H 0.49695 0.12846 0.24223 0.0
C742 C 0.50369 0.19031 0.29314 0.0
C743 C 0.5041 0.14476 0.29162 0.0
C744 C 0.50598 0.11952 0.30872 0.0
C745 C 0.49775 0.19128 0.25826 0.0
C746 C 0.49571 0.1687 0.23959 0.0
C747 C 0.49877 0.14575 0.25654 0.0
C748 C 0.49021 0.16845 0.20249 0.0
C749 C 0.4932 0.21647 0.24195 0.0
C750 C 0.4691 0.15573 0.19008 0.0
C751 C 0.46392 0.15531 0.15509 0.0
C752 C 0.47981 0.16761 0.1319 0.0
C753 C 0.50105 0.18018 0.1444 0.0
C754 C 0.50628 0.18043 0.17935 0.0
H755 H 0.4884 0.23092 0.26128 0.0
H756 H 0.51047 0.22262 0.22864 0.0
H757 H 0.47783 0.21549 0.22291 0.0
H758 H 0.45651 0.14627 0.20752 0.0
H759 H 0.44741 0.14548 0.14627 0.0
H760 H 0.89364 0.4998 0.00116 0.0
H761 H 0.93789 0.48838 0.00272 0.0
H762 H 0.9487 0.53615 0.0904 0.0
H763 H 0.90473 0.54862 0.08786 0.0
H764 H 0.98512 0.54273 0.04836 0.0
H765 H 0.97289 0.44063 0.06358 0.0
H766 H 0.95768 0.45167 0.02569 0.0
H767 H 0.94706 0.46219 0.06698 0.0
C768 C 0.90542 0.50772 0.02093 0.0
C769 C 0.89569 0.52499 0.04452 0.0
C770 C 0.9307 0.50103 0.02195 0.0
C771 C 0.94658 0.5109 0.04719 0.0
C772 C 0.93683 0.52816 0.07078 0.0
H773 H 0.09481 0.44906 0.08655 0.0
H774 H 0.05065 0.46087 0.08929 0.0
C775 C 0.91169 0.53526 0.06933 0.0
C776 C 0.97355 0.50409 0.04819 0.0
H777 H 0.01384 0.45449 0.04759 0.0
C778 C 0.99138 0.52341 0.04851 0.0
C779 C 0.98181 0.47891 0.04901 0.0
C780 C 0.96384 0.4572 0.05169 0.0
C781 C 0.01714 0.51831 0.04905 0.0
C782 C 0.0254 0.49313 0.04776 0.0
C783 C 0.00758 0.4738 0.04808 0.0
C784 C 0.05237 0.48638 0.04634 0.0
C785 C 0.03513 0.54001 0.05182 0.0
C786 C 0.06806 0.49653 0.02109 0.0
C787 C 0.09343 0.49022 0.01996 0.0
C788 C 0.10346 0.47304 0.04344 0.0
C789 C 0.08762 0.46236 0.06812 0.0
C790 C 0.06237 0.46909 0.06968 0.0
H791 H 0.02614 0.55649 0.06404 0.0
H792 H 0.05199 0.53492 0.06686 0.0
H793 H 0.04112 0.54572 0.02583 0.0
H794 H 0.06067 0.5092 0.00202 0.0
H795 H 0.10508 0.49845 0.00029 0.0
H796 H 0.5004 0.89502 0.49958 0.0
H797 H 0.51167 0.93931 0.50105 0.0
H798 H 0.46352 0.95014 0.58833 0.0
H799 H 0.45118 0.90613 0.58584 0.0
H800 H 0.45724 0.98665 0.54635 0.0
H801 H 0.55923 0.97411 0.56238 0.0
H802 H 0.54832 0.95896 0.52436 0.0
H803 H 0.53758 0.94834 0.56555 0.0
C804 C 0.49234 0.90682 0.51921 0.0
C805 C 0.47502 0.89707 0.54273 0.0
C806 C 0.49895 0.93212 0.5202 0.0
C807 C 0.48896 0.94801 0.54534 0.0
C808 C 0.4716 0.93827 0.56879 0.0
H809 H 0.55125 0.09594 0.58543 0.0
H810 H 0.53919 0.05185 0.58803 0.0
C811 C 0.46458 0.91309 0.56737 0.0
C812 C 0.49584 0.97497 0.54644 0.0
H813 H 0.54556 0.0151 0.54634 0.0
C814 C 0.47657 0.99285 0.54667 0.0
C815 C 0.52104 0.98315 0.5475 0.0
C816 C 0.54269 0.96511 0.55032 0.0
C817 C 0.48176 0.0186 0.54732 0.0
C818 C 0.50696 0.02678 0.54624 0.0
C819 C 0.52623 0.0089 0.54666 0.0
C820 C 0.51382 0.05373 0.54494 0.0
C821 C 0.46011 0.03664 0.54997 0.0
C822 C 0.50381 0.06949 0.51966 0.0
C823 C 0.51026 0.09483 0.51862 0.0
C824 C 0.52743 0.10475 0.5422 0.0
C825 C 0.53796 0.08884 0.56692 0.0
C826 C 0.53109 0.06362 0.5684 0.0
H827 H 0.44355 0.02769 0.56206 0.0
H828 H 0.46519 0.05347 0.56509 0.0
H829 H 0.4545 0.04268 0.52396 0.0
H830 H 0.49117 0.06218 0.5005 0.0
H831 H 0.50215 0.10654 0.49892 0.0
H832 H 0.10997 0.49063 0.53335 0.0
H833 H 0.06572 0.47906 0.53159 0.0
H834 H 0.04799 0.5496 0.48397 0.0
H835 H 0.09214 0.56142 0.48541 0.0
H836 H 0.02477 0.50587 0.56184 0.0
H837 H 0.01516 0.4962 0.42108 0.0
H838 H 0.04516 0.49615 0.44237 0.0
H839 H 0.02884 0.52509 0.43545 0.0
C840 C 0.09672 0.50369 0.52233 0.0
C841 C 0.10469 0.52697 0.50946 0.0
C842 C 0.07144 0.49702 0.52141 0.0
C843 C 0.05368 0.51336 0.50733 0.0
C844 C 0.06149 0.53658 0.49447 0.0
H845 H 0.89225 0.51125 0.5318 0.0
H846 H 0.93664 0.52231 0.53102 0.0
C847 C 0.08674 0.54333 0.49549 0.0
C848 C 0.02688 0.50639 0.50693 0.0
H849 H 0.97779 0.49405 0.45367 0.0
C850 C 0.01448 0.50323 0.53822 0.0
C851 C 0.01364 0.50276 0.47605 0.0
C852 C 0.02635 0.505 0.44177 0.0
C853 C 0.989 0.49689 0.53946 0.0
C854 C 0.97561 0.49386 0.50858 0.0
C855 C 0.98811 0.49662 0.47728 0.0
C856 C 0.94867 0.48743 0.50829 0.0
C857 C 0.97667 0.49315 0.57375 0.0
C858 C 0.94073 0.46438 0.49505 0.0
C859 C 0.91538 0.45796 0.4954 0.0
C860 C 0.89745 0.4746 0.5088 0.0
C861 C 0.9055 0.49793 0.52143 0.0
C862 C 0.93088 0.50426 0.52116 0.0
H863 H 0.99064 0.49079 0.59453 0.0
H864 H 0.96503 0.50977 0.57982 0.0
H865 H 0.96422 0.47651 0.57334 0.0
H866 H 0.95422 0.4512 0.48486 0.0
H867 H 0.90991 0.4399 0.48533 0.0
H868 H 0.56041 0.90967 0.98541 0.0
H869 H 0.54824 0.95373 0.98501 0.0
H870 H 0.47761 0.93477 0.03151 0.0
H871 H 0.48954 0.8906 0.03224 0.0
H872 H 0.50495 0.97641 0.95395 0.0
H873 H 0.50814 0.98943 0.09482 0.0
H874 H 0.52286 0.96325 0.07366 0.0
H875 H 0.48959 0.96352 0.08005 0.0
C876 C 0.54227 0.91478 0.99559 0.0
C877 C 0.52602 0.89653 0.00906 0.0
C878 C 0.53535 0.94 0.99526 0.0
C879 C 0.51219 0.94749 0.0086 0.0
C880 C 0.49574 0.92937 0.02157 0.0
H881 H 0.43786 0.09119 0.98559 0.0
H882 H 0.44923 0.04689 0.98446 0.0
C883 C 0.50258 0.90411 0.02182 0.0
C884 C 0.50526 0.9743 0.00886 0.0
H885 H 0.49301 0.02345 0.06204 0.0
C886 C 0.50232 0.98673 0.97754 0.0
C887 C 0.50213 0.9877 0.03972 0.0
C888 C 0.50602 0.97543 0.07403 0.0
C889 C 0.49601 0.01222 0.97627 0.0
C890 C 0.49241 0.02549 0.00713 0.0
C891 C 0.49564 0.01313 0.03845 0.0
C892 C 0.48562 0.05234 0.00748 0.0
C893 C 0.49365 0.02489 0.94198 0.0
C894 C 0.50219 0.07 0.02128 0.0
C895 C 0.4958 0.09535 0.02201 0.0
C896 C 0.47256 0.1035 0.00923 0.0
C897 C 0.45594 0.08565 0.99558 0.0
C898 C 0.46242 0.06031 0.99475 0.0
H899 H 0.50224 0.01361 0.92121 0.0
H900 H 0.47354 0.02752 0.93588 0.0
H901 H 0.50264 0.04363 0.94243 0.0
H902 H 0.52016 0.06415 0.03134 0.0
H903 H 0.50905 0.10851 0.03278 0.0
H904 H 0.21662 0.35809 0.04764 0.0
H905 H 0.25025 0.32805 0.03752 0.0
H906 H 0.30457 0.38766 0.04223 0.0
H907 H 0.27104 0.41788 0.0529 0.0
H908 H 0.28374 0.32746 0.98355 0.0
H909 H 0.33392 0.33567 0.1074 0.0
H910 H 0.30267 0.34763 0.10113 0.0
H911 H 0.3292 0.36473 0.08528 0.0
C912 C 0.23573 0.36483 0.04685 0.0
C913 C 0.24116 0.39038 0.05128 0.0
C914 C 0.25493 0.34762 0.041 0.0
C915 C 0.27993 0.35556 0.03953 0.0
C916 C 0.28545 0.38104 0.04397 0.0
H917 H 0.41721 0.27103 -1e-05 0.0
H918 H 0.38677 0.30481 0.0084 0.0
C919 C 0.26625 0.3983 0.04994 0.0
C920 C 0.30001 0.33719 0.03211 0.0
H921 H 0.35277 0.3103 0.06502 0.0
C922 C 0.29884 0.32371 0.00136 0.0
C923 C 0.31974 0.33243 0.05533 0.0
C924 C 0.32145 0.34569 0.08928 0.0
C925 C 0.31683 0.30553 0.99323 0.0
C926 C 0.33631 0.30049 0.01667 0.0
C927 C 0.3378 0.31428 0.04711 0.0
C928 C 0.35467 0.2802 0.0107 0.0
C929 C 0.31493 0.29194 0.95954 0.0
C930 C 0.34667 0.25522 0.00949 0.0
C931 C 0.36395 0.23592 0.00476 0.0
C932 C 0.3896 0.24124 0.00119 0.0
C933 C 0.39757 0.26632 0.00239 0.0
C934 C 0.38024 0.28563 0.0073 0.0
H935 H 0.3031 0.30231 0.94097 0.0
H936 H 0.33374 0.28903 0.94815 0.0
H937 H 0.3063 0.27331 0.96379 0.0
H938 H 0.32706 0.25061 0.01265 0.0
H939 H 0.35718 0.21681 0.00412 0.0
H940 H 0.78509 0.35811 0.5066 0.0
H941 H 0.75139 0.32783 0.51501 0.0
H942 H 0.69691 0.38723 0.50981 0.0
H943 H 0.73055 0.41781 0.50154 0.0
H944 H 0.6911 0.35336 0.5664 0.0
H945 H 0.70041 0.30347 0.44265 0.0
H946 H 0.72916 0.30681 0.46601 0.0
H947 H 0.71353 0.33417 0.44995 0.0
C948 C 0.76594 0.36477 0.50703 0.0
C949 C 0.7605 0.39037 0.5032 0.0
C950 C 0.74671 0.34741 0.51169 0.0
C951 C 0.72167 0.35527 0.51257 0.0
C952 C 0.71613 0.3808 0.50896 0.0
H953 H 0.58345 0.27203 0.55211 0.0
H954 H 0.61395 0.30541 0.54213 0.0
C955 C 0.73537 0.39821 0.50414 0.0
C956 C 0.70141 0.33683 0.51827 0.0
H957 H 0.67474 0.28426 0.48472 0.0
C958 C 0.68732 0.33836 0.54845 0.0
C959 C 0.69661 0.31732 0.49479 0.0
C960 C 0.71055 0.31537 0.46136 0.0
C961 C 0.66905 0.32034 0.55633 0.0
C962 C 0.6645 0.3006 0.53304 0.0
C963 C 0.67832 0.29936 0.50259 0.0
C964 C 0.64595 0.28061 0.54006 0.0
C965 C 0.65542 0.32211 0.59 0.0
C966 C 0.65375 0.25557 0.54164 0.0
C967 C 0.63638 0.23645 0.5471 0.0
C968 C 0.61081 0.24201 0.55101 0.0
C969 C 0.60303 0.26714 0.54955 0.0
C970 C 0.62045 0.28626 0.54397 0.0
H971 H 0.66532 0.33452 0.60834 0.0
H972 H 0.63648 0.32997 0.58561 0.0
H973 H 0.65324 0.30334 0.60179 0.0
H974 H 0.67333 0.2508 0.53857 0.0
H975 H 0.64301 0.21731 0.54801 0.0
H976 H 0.78527 0.6431 0.05088 0.0
H977 H 0.75225 0.67391 0.04106 0.0
H978 H 0.6971 0.61497 0.04013 0.0
H979 H 0.72996 0.58401 0.05054 0.0
H980 H 0.72023 0.6769 0.98612 0.0
H981 H 0.66658 0.66502 0.10655 0.0
H982 H 0.69777 0.65269 0.101 0.0
H983 H 0.67134 0.63659 0.08296 0.0
C984 C 0.76609 0.63668 0.04891 0.0
C985 C 0.76022 0.6111 0.05171 0.0
C986 C 0.74725 0.65433 0.04324 0.0
C987 C 0.72219 0.64679 0.04031 0.0
C988 C 0.71625 0.62127 0.04307 0.0
H989 H 0.58552 0.73075 0.99795 0.0
H990 H 0.61641 0.69748 0.00671 0.0
C991 C 0.73507 0.60359 0.04889 0.0
C992 C 0.70249 0.66561 0.03306 0.0
H993 H 0.64859 0.69124 0.06434 0.0
C994 C 0.70459 0.68007 0.00325 0.0
C995 C 0.68205 0.66963 0.05539 0.0
C996 C 0.67933 0.65534 0.08843 0.0
C997 C 0.68676 0.6984 0.9951 0.0
C998 C 0.66648 0.70259 0.01758 0.0
C999 C 0.66416 0.68792 0.04714 0.0
C1000 C 0.64792 0.72267 0.0114 0.0
C1001 C 0.68963 0.71297 0.96231 0.0
C1002 C 0.65542 0.74782 0.01141 0.0
C1003 C 0.63787 0.76685 0.00643 0.0
C1004 C 0.61245 0.76108 0.00143 0.0
C1005 C 0.60498 0.73583 0.00147 0.0
C1006 C 0.62257 0.7168 0.00657 0.0
H1007 H 0.70215 0.70326 0.94394 0.0
H1008 H 0.67118 0.71607 0.94993 0.0
H1009 H 0.69794 0.73153 0.96809 0.0
H1010 H 0.67482 0.75276 0.01572 0.0
H1011 H 0.64424 0.7861 0.00675 0.0
H1012 H 0.41793 0.73064 0.55249 0.0
H1013 H 0.38739 0.6971 0.54356 0.0
H1014 H 0.32791 0.75155 0.53966 0.0
H1015 H 0.3582 0.7852 0.54876 0.0
H1016 H 0.31854 0.70864 0.58248 0.0
H1017 H 0.35063 0.6825 0.45205 0.0
H1018 H 0.37437 0.68365 0.48458 0.0
H1019 H 0.35882 0.71193 0.47182 0.0
C1020 C 0.39834 0.73549 0.54986 0.0
C1021 C 0.3905 0.7606 0.55129 0.0
C1022 C 0.38096 0.71631 0.54453 0.0
C1023 C 0.35547 0.72191 0.54053 0.0
C1024 C 0.34753 0.74688 0.54254 0.0
H1025 H 0.21642 0.64367 0.50779 0.0
H1026 H 0.24973 0.67397 0.51831 0.0
C1027 C 0.36488 0.76607 0.54772 0.0
C1028 C 0.33694 0.70179 0.53449 0.0
H1029 H 0.31822 0.65818 0.47605 0.0
C1030 C 0.31845 0.69757 0.55925 0.0
C1031 C 0.33703 0.68733 0.50423 0.0
C1032 C 0.35613 0.6916 0.47645 0.0
C1033 C 0.29998 0.67921 0.55458 0.0
C1034 C 0.2997 0.66512 0.52397 0.0
C1035 C 0.31846 0.66905 0.49945 0.0
C1036 C 0.27966 0.64671 0.51655 0.0
C1037 C 0.28112 0.67488 0.58267 0.0
C1038 C 0.28551 0.62145 0.51083 0.0
C1039 C 0.2665 0.60405 0.50447 0.0
C1040 C 0.24131 0.61168 0.50357 0.0
C1041 C 0.2356 0.63712 0.50855 0.0
C1042 C 0.2546 0.65446 0.51479 0.0
H1043 H 0.28811 0.68172 0.60772 0.0
H1044 H 0.26369 0.68526 0.57663 0.0
H1045 H 0.27643 0.65471 0.58506 0.0
H1046 H 0.30476 0.61513 0.51184 0.0
H1047 H 0.27152 0.5846 0.50077 0.0
loop_
_geom_bond_atom_site_label_1
_geom_bond_atom_site_label_2
_geom_bond_distance
_geom_bond_site_symmetry_2
_ccdc_geom_bond_type
Co0 O2 2.143 . S
Co0 O8 2.074 . S
Co0 O11 2.093 1_554 S
Co0 O24 2.097 . S
Co0 N41 2.151 . S
Co0 N49 2.214 . S
Co1 O2 2.160 . S
Co1 O7 2.058 . S
Co1 O17 2.057 . S
Co1 O32 2.037 . S
Co1 N36 2.145 . S
Co1 N57 2.257 . S
O2 Co0 2.143 . S
O2 Co1 2.160 . S
C3 O4 1.278 . S
C3 O11 1.224 . S
O4 C3 1.278 . S
C5 O6 1.245 . S
C5 O17 1.232 . S
O6 C5 1.245 . S
O7 Co1 2.058 . S
O7 C33 1.269 . S
O8 Co0 2.074 . S
O8 C33 1.257 . S
H9 C34 0.930 . S
H10 C40 0.930 1_556 S
O11 Co0 2.093 1_556 S
O11 C3 1.224 . S
H12 C44 0.929 . S
H13 C46 0.930 . S
H14 C47 0.930 . S
H15 C45 0.929 . S
H16 C48 0.928 1_556 S
O17 Co1 2.057 . S
O17 C5 1.232 . S
H18 C37 0.929 . S
H19 C38 0.929 . S
H20 C50 0.931 . S
H21 C42 0.929 1_556 S
H22 C51 0.930 . S
H23 C43 0.931 . S
O24 Co0 2.097 . S
O24 C52 1.214 . S
H25 C53 0.929 . S
H26 C54 0.929 . S
H27 C55 0.930 . S
H28 C56 0.929 . S
H29 C58 0.930 . S
H30 C35 0.930 . S
H31 C39 0.930 . S
O32 Co1 2.037 . S
O32 C52 1.234 . S
C33 O7 1.269 . S
C33 O8 1.257 . S
C34 H9 0.930 . S
C34 C37 1.388 . S
C34 C39 1.418 . S
C35 H30 0.930 . S
C35 C38 1.404 . S
C35 C39 1.353 . S
N36 Co1 2.145 . S
N36 C37 1.397 . S
N36 C38 1.334 . S
C37 H18 0.929 . S
C37 C34 1.388 . S
C37 N36 1.397 . S
C38 H19 0.929 . S
C38 C35 1.404 . S
C38 N36 1.334 . S
C39 H31 0.930 . S
C39 C34 1.418 . S
C39 C35 1.353 . S
C40 H10 0.930 1_554 S
C40 N41 1.330 . S
C40 C42 1.446 . S
N41 Co0 2.151 . S
N41 C40 1.330 . S
N41 C45 1.418 . S
C42 H21 0.929 1_554 S
C42 C40 1.446 . S
C42 C43 1.332 . S
C43 H23 0.931 . S
C43 C42 1.332 . S
C43 C44 1.267 . S
C44 H12 0.929 . S
C44 C43 1.267 . S
C44 C45 1.251 . S
C45 H15 0.929 . S
C45 N41 1.418 . S
C45 C44 1.251 . S
C46 H13 0.930 . S
C46 C48 1.406 . S
C46 C51 1.261 . S
C47 H14 0.930 . S
C47 N49 1.325 . S
C47 C50 1.357 . S
C48 H16 0.928 1_554 S
C48 C46 1.406 . S
C48 N49 1.261 . S
N49 Co0 2.214 . S
N49 C47 1.325 . S
N49 C48 1.261 . S
C50 H20 0.931 . S
C50 C47 1.357 . S
C50 C51 1.312 . S
C51 H22 0.930 . S
C51 C46 1.261 . S
C51 C50 1.312 . S
C52 O24 1.214 . S
C52 O32 1.234 . S
C53 H25 0.929 . S
C53 C56 1.391 . S
C53 C58 1.391 . S
C54 H26 0.929 . S
C54 C55 1.390 1_554 S
C54 N57 1.391 . S
C55 H27 0.930 . S
C55 C54 1.390 1_556 S
C55 C56 1.392 . S
C56 H28 0.929 . S
C56 C53 1.391 . S
C56 C55 1.392 . S
N57 Co1 2.257 . S
N57 C54 1.391 . S
N57 C58 1.388 1_554 S
C58 H29 0.930 . S
C58 C53 1.391 . S
C58 N57 1.388 1_556 S
Co59 O61 2.143 . S
Co59 O67 2.074 . S
Co59 O70 2.093 . S
Co59 O83 2.097 . S
Co59 N100 2.151 . S
Co59 N108 2.214 . S
Co60 O61 2.160 . S
Co60 O66 2.058 . S
Co60 O76 2.057 . S
Co60 O91 2.037 . S
Co60 N95 2.145 . S
Co60 N116 2.257 . S
O61 Co59 2.143 . S
O61 Co60 2.160 . S
C62 O63 1.278 . S
C62 O70 1.224 . S
O63 C62 1.278 . S
C64 O65 1.245 . S
C64 O76 1.232 . S
O65 C64 1.245 . S
O66 Co60 2.058 . S
O66 C92 1.269 . S
O67 Co59 2.074 . S
O67 C92 1.257 . S
H68 C93 0.930 . S
H69 C99 0.930 . S
O70 Co59 2.093 . S
O70 C62 1.224 . S
H71 C103 0.929 . S
H72 C105 0.930 . S
H73 C106 0.930 . S
H74 C104 0.929 . S
H75 C107 0.928 . S
O76 Co60 2.057 . S
O76 C64 1.232 . S
H77 C96 0.929 . S
H78 C97 0.929 . S
H79 C109 0.931 . S
H80 C101 0.929 . S
H81 C110 0.930 . S
H82 C102 0.931 . S
O83 Co59 2.097 . S
O83 C111 1.214 . S
H84 C112 0.929 . S
H85 C113 0.929 . S
H86 C114 0.930 . S
H87 C115 0.929 . S
H88 C117 0.930 . S
H89 C94 0.930 . S
H90 C98 0.930 . S
O91 Co60 2.037 . S
O91 C111 1.234 . S
C92 O66 1.269 . S
C92 O67 1.257 . S
C93 H68 0.930 . S
C93 C96 1.388 . S
C93 C98 1.418 . S
C94 H89 0.930 . S
C94 C97 1.404 . S
C94 C98 1.353 . S
N95 Co60 2.145 . S
N95 C96 1.397 . S
N95 C97 1.334 . S
C96 H77 0.929 . S
C96 C93 1.388 . S
C96 N95 1.397 . S
C97 H78 0.929 . S
C97 C94 1.404 . S
C97 N95 1.334 . S
C98 H90 0.930 . S
C98 C93 1.418 . S
C98 C94 1.353 . S
C99 H69 0.930 . S
C99 N100 1.330 . S
C99 C101 1.446 . S
N100 Co59 2.151 . S
N100 C99 1.330 . S
N100 C104 1.418 . S
C101 H80 0.929 . S
C101 C99 1.446 . S
C101 C102 1.332 . S
C102 H82 0.931 . S
C102 C101 1.332 . S
C102 C103 1.267 . S
C103 H71 0.929 . S
C103 C102 1.267 . S
C103 C104 1.251 . S
C104 H74 0.929 . S
C104 N100 1.418 . S
C104 C103 1.251 . S
C105 H72 0.930 . S
C105 C107 1.406 . S
C105 C110 1.261 . S
C106 H73 0.930 . S
C106 N108 1.325 . S
C106 C109 1.357 . S
C107 H75 0.928 . S
C107 C105 1.406 . S
C107 N108 1.261 . S
N108 Co59 2.214 . S
N108 C106 1.325 . S
N108 C107 1.261 . S
C109 H79 0.931 . S
C109 C106 1.357 . S
C109 C110 1.312 . S
C110 H81 0.930 . S
C110 C105 1.261 . S
C110 C109 1.312 . S
C111 O83 1.214 . S
C111 O91 1.234 . S
C112 H84 0.929 . S
C112 C115 1.391 . S
C112 C117 1.391 . S
C113 H85 0.929 . S
C113 C114 1.390 . S
C113 N116 1.391 . S
C114 H86 0.930 . S
C114 C113 1.390 . S
C114 C115 1.392 . S
C115 H87 0.929 . S
C115 C112 1.391 . S
C115 C114 1.392 . S
N116 Co60 2.257 . S
N116 C113 1.391 . S
N116 C117 1.388 . S
C117 H88 0.930 . S
C117 C112 1.391 . S
C117 N116 1.388 . S
Co118 O120 2.143 . S
Co118 O126 2.074 . S
Co118 O129 2.093 1_554 S
Co118 O142 2.097 . S
Co118 N159 2.151 . S
Co118 N167 2.214 . S
Co119 O120 2.160 . S
Co119 O125 2.058 . S
Co119 O135 2.057 . S
Co119 O150 2.037 . S
Co119 N154 2.145 . S
Co119 N175 2.257 . S
O120 Co118 2.143 . S
O120 Co119 2.160 . S
C121 O122 1.278 . S
C121 O129 1.224 . S
O122 C121 1.278 . S
C123 O124 1.245 . S
C123 O135 1.232 . S
O124 C123 1.245 . S
O125 Co119 2.058 . S
O125 C151 1.269 . S
O126 Co118 2.074 . S
O126 C151 1.257 . S
H127 C152 0.930 . S
H128 C158 0.930 1_556 S
O129 Co118 2.093 1_556 S
O129 C121 1.224 . S
H130 C162 0.929 . S
H131 C164 0.930 . S
H132 C165 0.930 . S
H133 C163 0.929 . S
H134 C166 0.928 1_556 S
O135 Co119 2.057 . S
O135 C123 1.232 . S
H136 C155 0.929 . S
H137 C156 0.929 . S
H138 C168 0.931 . S
H139 C160 0.929 1_556 S
H140 C169 0.930 . S
H141 C161 0.931 . S
O142 Co118 2.097 . S
O142 C170 1.214 . S
H143 C171 0.929 . S
H144 C172 0.929 . S
H145 C173 0.930 . S
H146 C174 0.929 . S
H147 C176 0.930 . S
H148 C153 0.930 . S
H149 C157 0.930 . S
O150 Co119 2.037 . S
O150 C170 1.234 . S
C151 O125 1.269 . S
C151 O126 1.257 . S
C152 H127 0.930 . S
C152 C155 1.388 . S
C152 C157 1.418 . S
C153 H148 0.930 . S
C153 C156 1.404 . S
C153 C157 1.353 . S
N154 Co119 2.145 . S
N154 C155 1.397 . S
N154 C156 1.334 . S
C155 H136 0.929 . S
C155 C152 1.388 . S
C155 N154 1.397 . S
C156 H137 0.929 . S
C156 C153 1.404 . S
C156 N154 1.334 . S
C157 H149 0.930 . S
C157 C152 1.418 . S
C157 C153 1.353 . S
C158 H128 0.930 1_554 S
C158 N159 1.330 . S
C158 C160 1.446 . S
N159 Co118 2.151 . S
N159 C158 1.330 . S
N159 C163 1.418 . S
C160 H139 0.929 1_554 S
C160 C158 1.446 . S
C160 C161 1.332 . S
C161 H141 0.931 . S
C161 C160 1.332 . S
C161 C162 1.267 . S
C162 H130 0.929 . S
C162 C161 1.267 . S
C162 C163 1.251 . S
C163 H133 0.929 . S
C163 N159 1.418 . S
C163 C162 1.251 . S
C164 H131 0.930 . S
C164 C166 1.406 . S
C164 C169 1.261 . S
C165 H132 0.930 . S
C165 N167 1.325 . S
C165 C168 1.357 . S
C166 H134 0.928 1_554 S
C166 C164 1.406 . S
C166 N167 1.261 . S
N167 Co118 2.214 . S
N167 C165 1.325 . S
N167 C166 1.261 . S
C168 H138 0.931 . S
C168 C165 1.357 . S
C168 C169 1.312 . S
C169 H140 0.930 . S
C169 C164 1.261 . S
C169 C168 1.312 . S
C170 O142 1.214 . S
C170 O150 1.234 . S
C171 H143 0.929 . S
C171 C174 1.391 . S
C171 C176 1.391 . S
C172 H144 0.929 . S
C172 C173 1.390 1_554 S
C172 N175 1.391 . S
C173 H145 0.930 . S
C173 C172 1.390 1_556 S
C173 C174 1.392 . S
C174 H146 0.929 . S
C174 C171 1.391 . S
C174 C173 1.392 . S
N175 Co119 2.257 . S
N175 C172 1.391 . S
N175 C176 1.388 1_554 S
C176 H147 0.930 . S
C176 C171 1.391 . S
C176 N175 1.388 1_556 S
Co177 O179 2.143 . S
Co177 O185 2.074 . S
Co177 O188 2.093 . S
Co177 O201 2.097 . S
Co177 N218 2.151 . S
Co177 N226 2.214 . S
Co178 O179 2.160 . S
Co178 O184 2.058 . S
Co178 O194 2.057 . S
Co178 O209 2.037 . S
Co178 N213 2.145 . S
Co178 N234 2.257 . S
O179 Co177 2.143 . S
O179 Co178 2.160 . S
C180 O181 1.278 . S
C180 O188 1.224 . S
O181 C180 1.278 . S
C182 O183 1.245 . S
C182 O194 1.232 . S
O183 C182 1.245 . S
O184 Co178 2.058 . S
O184 C210 1.269 . S
O185 Co177 2.074 . S
O185 C210 1.257 . S
H186 C211 0.930 . S
H187 C217 0.930 . S
O188 Co177 2.093 . S
O188 C180 1.224 . S
H189 C221 0.929 . S
H190 C223 0.930 . S
H191 C224 0.930 . S
H192 C222 0.929 . S
H193 C225 0.928 . S
O194 Co178 2.057 . S
O194 C182 1.232 . S
H195 C214 0.929 . S
H196 C215 0.929 . S
H197 C227 0.931 . S
H198 C219 0.929 . S
H199 C228 0.930 . S
H200 C220 0.931 . S
O201 Co177 2.097 . S
O201 C229 1.214 . S
H202 C230 0.929 . S
H203 C231 0.929 . S
H204 C232 0.930 . S
H205 C233 0.929 . S
H206 C235 0.930 . S
H207 C212 0.930 . S
H208 C216 0.930 . S
O209 Co178 2.037 . S
O209 C229 1.234 . S
C210 O184 1.269 . S
C210 O185 1.257 . S
C211 H186 0.930 . S
C211 C214 1.388 . S
C211 C216 1.418 . S
C212 H207 0.930 . S
C212 C215 1.404 . S
C212 C216 1.353 . S
N213 Co178 2.145 . S
N213 C214 1.397 . S
N213 C215 1.334 . S
C214 H195 0.929 . S
C214 C211 1.388 . S
C214 N213 1.397 . S
C215 H196 0.929 . S
C215 C212 1.404 . S
C215 N213 1.334 . S
C216 H208 0.930 . S
C216 C211 1.418 . S
C216 C212 1.353 . S
C217 H187 0.930 . S
C217 N218 1.330 . S
C217 C219 1.446 . S
N218 Co177 2.151 . S
N218 C217 1.330 . S
N218 C222 1.418 . S
C219 H198 0.929 . S
C219 C217 1.446 . S
C219 C220 1.332 . S
C220 H200 0.931 . S
C220 C219 1.332 . S
C220 C221 1.267 . S
C221 H189 0.929 . S
C221 C220 1.267 . S
C221 C222 1.251 . S
C222 H192 0.929 . S
C222 N218 1.418 . S
C222 C221 1.251 . S
C223 H190 0.930 . S
C223 C225 1.406 . S
C223 C228 1.261 . S
C224 H191 0.930 . S
C224 N226 1.325 . S
C224 C227 1.357 . S
C225 H193 0.928 . S
C225 C223 1.406 . S
C225 N226 1.261 . S
N226 Co177 2.214 . S
N226 C224 1.325 . S
N226 C225 1.261 . S
C227 H197 0.931 . S
C227 C224 1.357 . S
C227 C228 1.312 . S
C228 H199 0.930 . S
C228 C223 1.261 . S
C228 C227 1.312 . S
C229 O201 1.214 . S
C229 O209 1.234 . S
C230 H202 0.929 . S
C230 C233 1.391 . S
C230 C235 1.391 . S
C231 H203 0.929 . S
C231 C232 1.390 . S
C231 N234 1.391 . S
C232 H204 0.930 . S
C232 C231 1.390 . S
C232 C233 1.392 . S
C233 H205 0.929 . S
C233 C230 1.391 . S
C233 C232 1.392 . S
N234 Co178 2.257 . S
N234 C231 1.391 . S
N234 C235 1.388 . S
C235 H206 0.930 . S
C235 C230 1.391 . S
C235 N234 1.388 . S
Co236 O238 2.143 . S
Co236 O244 2.074 . S
Co236 O247 2.093 . S
Co236 O260 2.097 . S
Co236 N277 2.151 . S
Co236 N285 2.214 . S
Co237 O238 2.160 . S
Co237 O243 2.058 . S
Co237 O253 2.057 . S
Co237 O268 2.037 . S
Co237 N272 2.145 . S
Co237 N293 2.257 . S
O238 Co236 2.143 . S
O238 Co237 2.160 . S
C239 O240 1.278 . S
C239 O247 1.224 . S
O240 C239 1.278 . S
C241 O242 1.245 . S
C241 O253 1.232 . S
O242 C241 1.245 . S
O243 Co237 2.058 . S
O243 C269 1.269 . S
O244 Co236 2.074 . S
O244 C269 1.257 . S
H245 C270 0.930 . S
H246 C276 0.930 . S
O247 Co236 2.093 . S
O247 C239 1.224 . S
H248 C280 0.929 . S
H249 C282 0.930 . S
H250 C283 0.930 . S
H251 C281 0.929 . S
H252 C284 0.928 . S
O253 Co237 2.057 . S
O253 C241 1.232 . S
H254 C273 0.929 . S
H255 C274 0.929 . S
H256 C286 0.931 . S
H257 C278 0.929 . S
H258 C287 0.930 . S
H259 C279 0.931 . S
O260 Co236 2.097 . S
O260 C288 1.214 . S
H261 C289 0.929 . S
H262 C290 0.929 . S
H263 C291 0.930 . S
H264 C292 0.929 . S
H265 C294 0.930 . S
H266 C271 0.930 . S
H267 C275 0.930 . S
O268 Co237 2.037 . S
O268 C288 1.234 . S
C269 O243 1.269 . S
C269 O244 1.257 . S
C270 H245 0.930 . S
C270 C273 1.388 . S
C270 C275 1.418 . S
C271 H266 0.930 . S
C271 C274 1.404 . S
C271 C275 1.353 . S
N272 Co237 2.145 . S
N272 C273 1.397 . S
N272 C274 1.334 . S
C273 H254 0.929 . S
C273 C270 1.388 . S
C273 N272 1.397 . S
C274 H255 0.929 . S
C274 C271 1.404 . S
C274 N272 1.334 . S
C275 H267 0.930 . S
C275 C270 1.418 . S
C275 C271 1.353 . S
C276 H246 0.930 . S
C276 N277 1.330 . S
C276 C278 1.446 . S
N277 Co236 2.151 . S
N277 C276 1.330 . S
N277 C281 1.418 . S
C278 H257 0.929 . S
C278 C276 1.446 . S
C278 C279 1.332 . S
C279 H259 0.931 . S
C279 C278 1.332 . S
C279 C280 1.267 . S
C280 H248 0.929 . S
C280 C279 1.267 . S
C280 C281 1.251 . S
C281 H251 0.929 . S
C281 N277 1.418 . S
C281 C280 1.251 . S
C282 H249 0.930 . S
C282 C284 1.406 . S
C282 C287 1.261 . S
C283 H250 0.930 . S
C283 N285 1.325 . S
C283 C286 1.357 . S
C284 H252 0.928 . S
C284 C282 1.406 . S
C284 N285 1.261 . S
N285 Co236 2.214 . S
N285 C283 1.325 . S
N285 C284 1.261 . S
C286 H256 0.931 . S
C286 C283 1.357 . S
C286 C287 1.312 . S
C287 H258 0.930 . S
C287 C282 1.261 . S
C287 C286 1.312 . S
C288 O260 1.214 . S
C288 O268 1.234 . S
C289 H261 0.929 . S
C289 C292 1.391 . S
C289 C294 1.391 . S
C290 H262 0.929 . S
C290 C291 1.390 . S
C290 N293 1.391 . S
C291 H263 0.930 . S
C291 C290 1.390 . S
C291 C292 1.392 . S
C292 H264 0.929 . S
C292 C289 1.391 . S
C292 C291 1.392 . S
N293 Co237 2.257 . S
N293 C290 1.391 . S
N293 C294 1.388 . S
C294 H265 0.930 . S
C294 C289 1.391 . S
C294 N293 1.388 . S
Co295 O297 2.143 . S
Co295 O303 2.074 1_554 S
Co295 O306 2.093 . S
Co295 O319 2.097 . S
Co295 N336 2.151 . S
Co295 N344 2.214 . S
Co296 O297 2.160 . S
Co296 O302 2.058 1_554 S
Co296 O312 2.057 . S
Co296 O327 2.037 . S
Co296 N331 2.145 1_554 S
Co296 N352 2.257 . S
O297 Co295 2.143 . S
O297 Co296 2.160 . S
C298 O299 1.278 . S
C298 O306 1.224 . S
O299 C298 1.278 . S
C300 O301 1.245 . S
C300 O312 1.232 . S
O301 C300 1.245 . S
O302 Co296 2.058 1_556 S
O302 C328 1.269 . S
O303 Co295 2.074 1_556 S
O303 C328 1.257 . S
H304 C329 0.930 . S
H305 C335 0.930 . S
O306 Co295 2.093 . S
O306 C298 1.224 . S
H307 C339 0.929 1_556 S
H308 C341 0.930 . S
H309 C342 0.930 1_556 S
H310 C340 0.929 1_556 S
H311 C343 0.928 . S
O312 Co296 2.057 . S
O312 C300 1.232 . S
H313 C332 0.929 . S
H314 C333 0.929 . S
H315 C345 0.931 . S
H316 C337 0.929 . S
H317 C346 0.930 . S
H318 C338 0.931 . S
O319 Co295 2.097 . S
O319 C347 1.214 . S
H320 C348 0.929 . S
H321 C349 0.929 . S
H322 C350 0.930 . S
H323 C351 0.929 . S
H324 C353 0.930 . S
H325 C330 0.930 . S
H326 C334 0.930 . S
O327 Co296 2.037 . S
O327 C347 1.234 . S
C328 O302 1.269 . S
C328 O303 1.257 . S
C329 H304 0.930 . S
C329 C332 1.388 . S
C329 C334 1.418 . S
C330 H325 0.930 . S
C330 C333 1.404 . S
C330 C334 1.353 . S
N331 Co296 2.145 1_556 S
N331 C332 1.397 . S
N331 C333 1.334 . S
C332 H313 0.929 . S
C332 C329 1.388 . S
C332 N331 1.397 . S
C333 H314 0.929 . S
C333 C330 1.404 . S
C333 N331 1.334 . S
C334 H326 0.930 . S
C334 C329 1.418 . S
C334 C330 1.353 . S
C335 H305 0.930 . S
C335 N336 1.330 . S
C335 C337 1.446 . S
N336 Co295 2.151 . S
N336 C335 1.330 . S
N336 C340 1.418 . S
C337 H316 0.929 . S
C337 C335 1.446 . S
C337 C338 1.332 . S
C338 H318 0.931 . S
C338 C337 1.332 . S
C338 C339 1.267 . S
C339 H307 0.929 1_554 S
C339 C338 1.267 . S
C339 C340 1.251 . S
C340 H310 0.929 1_554 S
C340 N336 1.418 . S
C340 C339 1.251 . S
C341 H308 0.930 . S
C341 C343 1.406 . S
C341 C346 1.261 . S
C342 H309 0.930 1_554 S
C342 N344 1.325 . S
C342 C345 1.357 1_554 S
C343 H311 0.928 . S
C343 C341 1.406 . S
C343 N344 1.261 . S
N344 Co295 2.214 . S
N344 C342 1.325 . S
N344 C343 1.261 . S
C345 H315 0.931 . S
C345 C342 1.357 1_556 S
C345 C346 1.312 1_556 S
C346 H317 0.930 . S
C346 C341 1.261 . S
C346 C345 1.312 1_554 S
C347 O319 1.214 . S
C347 O327 1.234 . S
C348 H320 0.929 . S
C348 C351 1.391 . S
C348 C353 1.391 . S
C349 H321 0.929 . S
C349 C350 1.390 . S
C349 N352 1.391 . S
C350 H322 0.930 . S
C350 C349 1.390 . S
C350 C351 1.392 . S
C351 H323 0.929 . S
C351 C348 1.391 . S
C351 C350 1.392 . S
N352 Co296 2.257 . S
N352 C349 1.391 . S
N352 C353 1.388 . S
C353 H324 0.930 . S
C353 C348 1.391 . S
C353 N352 1.388 . S
Co354 O356 2.143 . S
Co354 O362 2.074 . S
Co354 O365 2.093 . S
Co354 O378 2.097 . S
Co354 N395 2.151 . S
Co354 N403 2.214 . S
Co355 O356 2.160 . S
Co355 O361 2.058 . S
Co355 O371 2.057 . S
Co355 O386 2.037 . S
Co355 N390 2.145 . S
Co355 N411 2.257 . S
O356 Co354 2.143 . S
O356 Co355 2.160 . S
C357 O358 1.278 . S
C357 O365 1.224 . S
O358 C357 1.278 . S
C359 O360 1.245 . S
C359 O371 1.232 . S
O360 C359 1.245 . S
O361 Co355 2.058 . S
O361 C387 1.269 . S
O362 Co354 2.074 . S
O362 C387 1.257 . S
H363 C388 0.930 . S
H364 C394 0.930 . S
O365 Co354 2.093 . S
O365 C357 1.224 . S
H366 C398 0.929 . S
H367 C400 0.930 . S
H368 C401 0.930 . S
H369 C399 0.929 . S
H370 C402 0.928 . S
O371 Co355 2.057 . S
O371 C359 1.232 . S
H372 C391 0.929 . S
H373 C392 0.929 . S
H374 C404 0.931 . S
H375 C396 0.929 . S
H376 C405 0.930 . S
H377 C397 0.931 . S
O378 Co354 2.097 . S
O378 C406 1.214 . S
H379 C407 0.929 . S
H380 C408 0.929 . S
H381 C409 0.930 . S
H382 C410 0.929 . S
H383 C412 0.930 . S
H384 C389 0.930 . S
H385 C393 0.930 . S
O386 Co355 2.037 . S
O386 C406 1.234 . S
C387 O361 1.269 . S
C387 O362 1.257 . S
C388 H363 0.930 . S
C388 C391 1.388 . S
C388 C393 1.418 . S
C389 H384 0.930 . S
C389 C392 1.404 . S
C389 C393 1.353 . S
N390 Co355 2.145 . S
N390 C391 1.397 . S
N390 C392 1.334 . S
C391 H372 0.929 . S
C391 C388 1.388 . S
C391 N390 1.397 . S
C392 H373 0.929 . S
C392 C389 1.404 . S
C392 N390 1.334 . S
C393 H385 0.930 . S
C393 C388 1.418 . S
C393 C389 1.353 . S
C394 H364 0.930 . S
C394 N395 1.330 . S
C394 C396 1.446 . S
N395 Co354 2.151 . S
N395 C394 1.330 . S
N395 C399 1.418 . S
C396 H375 0.929 . S
C396 C394 1.446 . S
C396 C397 1.332 . S
C397 H377 0.931 . S
C397 C396 1.332 . S
C397 C398 1.267 . S
C398 H366 0.929 . S
C398 C397 1.267 . S
C398 C399 1.251 . S
C399 H369 0.929 . S
C399 N395 1.418 . S
C399 C398 1.251 . S
C400 H367 0.930 . S
C400 C402 1.406 . S
C400 C405 1.261 . S
C401 H368 0.930 . S
C401 N403 1.325 . S
C401 C404 1.357 . S
C402 H370 0.928 . S
C402 C400 1.406 . S
C402 N403 1.261 . S
N403 Co354 2.214 . S
N403 C401 1.325 . S
N403 C402 1.261 . S
C404 H374 0.931 . S
C404 C401 1.357 . S
C404 C405 1.312 . S
C405 H376 0.930 . S
C405 C400 1.261 . S
C405 C404 1.312 . S
C406 O378 1.214 . S
C406 O386 1.234 . S
C407 H379 0.929 . S
C407 C410 1.391 . S
C407 C412 1.391 . S
C408 H380 0.929 . S
C408 C409 1.390 . S
C408 N411 1.391 . S
C409 H381 0.930 . S
C409 C408 1.390 . S
C409 C410 1.392 . S
C410 H382 0.929 . S
C410 C407 1.391 . S
C410 C409 1.392 . S
N411 Co355 2.257 . S
N411 C408 1.391 . S
N411 C412 1.388 . S
C412 H383 0.930 . S
C412 C407 1.391 . S
C412 N411 1.388 . S
Co413 O415 2.143 . S
Co413 O421 2.074 1_554 S
Co413 O424 2.093 . S
Co413 O437 2.097 . S
Co413 N454 2.151 . S
Co413 N462 2.214 . S
Co414 O415 2.160 . S
Co414 O420 2.058 1_554 S
Co414 O430 2.057 . S
Co414 O445 2.037 . S
Co414 N449 2.145 1_554 S
Co414 N470 2.257 . S
O415 Co413 2.143 . S
O415 Co414 2.160 . S
C416 O417 1.278 . S
C416 O424 1.224 . S
O417 C416 1.278 . S
C418 O419 1.245 . S
C418 O430 1.232 . S
O419 C418 1.245 . S
O420 Co414 2.058 1_556 S
O420 C446 1.269 . S
O421 Co413 2.074 1_556 S
O421 C446 1.257 . S
H422 C447 0.930 . S
H423 C453 0.930 . S
O424 Co413 2.093 . S
O424 C416 1.224 . S
H425 C457 0.929 1_556 S
H426 C459 0.930 . S
H427 C460 0.930 1_556 S
H428 C458 0.929 1_556 S
H429 C461 0.928 . S
O430 Co414 2.057 . S
O430 C418 1.232 . S
H431 C450 0.929 . S
H432 C451 0.929 . S
H433 C463 0.931 . S
H434 C455 0.929 . S
H435 C464 0.930 . S
H436 C456 0.931 . S
O437 Co413 2.097 . S
O437 C465 1.214 . S
H438 C466 0.929 . S
H439 C467 0.929 . S
H440 C468 0.930 . S
H441 C469 0.929 . S
H442 C471 0.930 . S
H443 C448 0.930 . S
H444 C452 0.930 . S
O445 Co414 2.037 . S
O445 C465 1.234 . S
C446 O420 1.269 . S
C446 O421 1.257 . S
C447 H422 0.930 . S
C447 C450 1.388 . S
C447 C452 1.418 . S
C448 H443 0.930 . S
C448 C451 1.404 . S
C448 C452 1.353 . S
N449 Co414 2.145 1_556 S
N449 C450 1.397 . S
N449 C451 1.334 . S
C450 H431 0.929 . S
C450 C447 1.388 . S
C450 N449 1.397 . S
C451 H432 0.929 . S
C451 C448 1.404 . S
C451 N449 1.334 . S
C452 H444 0.930 . S
C452 C447 1.418 . S
C452 C448 1.353 . S
C453 H423 0.930 . S
C453 N454 1.330 . S
C453 C455 1.446 . S
N454 Co413 2.151 . S
N454 C453 1.330 . S
N454 C458 1.418 . S
C455 H434 0.929 . S
C455 C453 1.446 . S
C455 C456 1.332 . S
C456 H436 0.931 . S
C456 C455 1.332 . S
C456 C457 1.267 . S
C457 H425 0.929 1_554 S
C457 C456 1.267 . S
C457 C458 1.251 . S
C458 H428 0.929 1_554 S
C458 N454 1.418 . S
C458 C457 1.251 . S
C459 H426 0.930 . S
C459 C461 1.406 . S
C459 C464 1.261 . S
C460 H427 0.930 1_554 S
C460 N462 1.325 . S
C460 C463 1.357 1_554 S
C461 H429 0.928 . S
C461 C459 1.406 . S
C461 N462 1.261 . S
N462 Co413 2.214 . S
N462 C460 1.325 . S
N462 C461 1.261 . S
C463 H433 0.931 . S
C463 C460 1.357 1_556 S
C463 C464 1.312 1_556 S
C464 H435 0.930 . S
C464 C459 1.261 . S
C464 C463 1.312 1_554 S
C465 O437 1.214 . S
C465 O445 1.234 . S
C466 H438 0.929 . S
C466 C469 1.391 . S
C466 C471 1.391 . S
C467 H439 0.929 . S
C467 C468 1.390 . S
C467 N470 1.391 . S
C468 H440 0.930 . S
C468 C467 1.390 . S
C468 C469 1.392 . S
C469 H441 0.929 . S
C469 C466 1.391 . S
C469 C468 1.392 . S
N470 Co414 2.257 . S
N470 C467 1.391 . S
N470 C471 1.388 . S
C471 H442 0.930 . S
C471 C466 1.391 . S
C471 N470 1.388 . S
H472 C480 0.929 . S
H473 C482 0.930 . S
H474 C484 0.930 . S
H475 C487 0.929 . S
H476 C490 0.930 . S
H477 C492 0.960 . S
H478 C492 0.960 . S
H479 C492 0.960 . S
C480 H472 0.929 . S
C480 C481 1.377 . S
C480 C482 1.384 . S
C481 C480 1.377 . S
C481 C487 1.390 . S
C482 H473 0.930 . S
C482 C480 1.384 . S
C482 C483 1.372 . S
C483 C482 1.372 . S
C483 C484 1.400 . S
C483 C488 1.490 . S
C484 H474 0.930 . S
C484 C483 1.400 . S
C484 C487 1.386 . S
H485 C501 0.930 . S
H486 C502 0.931 . S
C487 H475 0.929 . S
C487 C481 1.390 . S
C487 C484 1.386 . S
C488 C483 1.490 . S
C488 C490 1.395 . S
C488 C491 1.403 . S
H489 C495 0.930 . S
C490 H476 0.930 . S
C490 C488 1.395 . S
C490 C493 1.403 . S
C491 C488 1.403 . S
C491 C492 1.524 . S
C491 C495 1.400 . S
C492 H477 0.960 . S
C492 H478 0.960 . S
C492 H479 0.960 . S
C492 C491 1.524 . S
C493 C490 1.403 . S
C493 C494 1.392 . S
C493 C497 1.495 . S
C494 C493 1.392 . S
C494 C495 1.385 . S
C494 C496 1.478 . S
C495 H489 0.930 . S
C495 C491 1.400 . S
C495 C494 1.385 . S
C496 C494 1.478 . S
C496 C498 1.381 . S
C496 C502 1.383 . S
C497 C493 1.495 . S
C497 H503 0.959 . S
C497 H504 0.961 . S
C497 H505 0.960 . S
C498 C496 1.381 . S
C498 C499 1.394 . S
C498 H506 0.930 . S
C499 C498 1.394 . S
C499 C500 1.383 . S
C499 H507 0.929 . S
C500 C499 1.383 . S
C500 C501 1.377 . S
C501 H485 0.930 . S
C501 C500 1.377 . S
C501 C502 1.379 . S
C502 H486 0.931 . S
C502 C496 1.383 . S
C502 C501 1.379 . S
H503 C497 0.959 . S
H504 C497 0.961 . S
H505 C497 0.960 . S
H506 C498 0.930 . S
H507 C499 0.929 . S
H508 C516 0.929 . S
H509 C518 0.930 . S
H510 C520 0.930 . S
H511 C523 0.929 . S
H512 C526 0.930 . S
H513 C528 0.960 . S
H514 C528 0.960 . S
H515 C528 0.960 . S
C516 H508 0.929 . S
C516 C517 1.377 . S
C516 C518 1.384 . S
C517 C516 1.377 . S
C517 C523 1.390 . S
C518 H509 0.930 . S
C518 C516 1.384 . S
C518 C519 1.372 . S
C519 C518 1.372 . S
C519 C520 1.400 . S
C519 C524 1.490 . S
C520 H510 0.930 . S
C520 C519 1.400 . S
C520 C523 1.386 . S
H521 C537 0.930 . S
H522 C538 0.931 . S
C523 H511 0.929 . S
C523 C517 1.390 . S
C523 C520 1.386 . S
C524 C519 1.490 . S
C524 C526 1.395 . S
C524 C527 1.403 . S
H525 C531 0.930 . S
C526 H512 0.930 . S
C526 C524 1.395 . S
C526 C529 1.403 . S
C527 C524 1.403 . S
C527 C528 1.524 . S
C527 C531 1.400 . S
C528 H513 0.960 . S
C528 H514 0.960 . S
C528 H515 0.960 . S
C528 C527 1.524 . S
C529 C526 1.403 . S
C529 C530 1.392 . S
C529 C533 1.495 . S
C530 C529 1.392 . S
C530 C531 1.385 . S
C530 C532 1.478 . S
C531 H525 0.930 . S
C531 C527 1.400 . S
C531 C530 1.385 . S
C532 C530 1.478 . S
C532 C534 1.381 . S
C532 C538 1.383 . S
C533 C529 1.495 . S
C533 H539 0.959 . S
C533 H540 0.961 . S
C533 H541 0.960 . S
C534 C532 1.381 . S
C534 C535 1.394 . S
C534 H542 0.930 . S
C535 C534 1.394 . S
C535 C536 1.383 . S
C535 H543 0.929 . S
C536 C535 1.383 . S
C536 C537 1.377 . S
C537 H521 0.930 . S
C537 C536 1.377 . S
C537 C538 1.379 . S
C538 H522 0.931 . S
C538 C532 1.383 . S
C538 C537 1.379 . S
H539 C533 0.959 . S
H540 C533 0.961 . S
H541 C533 0.960 . S
H542 C534 0.930 . S
H543 C535 0.929 . S
H544 C552 0.929 . S
H545 C554 0.930 . S
H546 C556 0.930 . S
H547 C559 0.929 . S
H548 C562 0.930 . S
H549 C564 0.960 . S
H550 C564 0.960 . S
H551 C564 0.960 . S
C552 H544 0.929 . S
C552 C553 1.377 . S
C552 C554 1.384 . S
C553 C552 1.377 . S
C553 C559 1.390 . S
C554 H545 0.930 . S
C554 C552 1.384 . S
C554 C555 1.372 . S
C555 C554 1.372 . S
C555 C556 1.400 . S
C555 C560 1.490 . S
C556 H546 0.930 . S
C556 C555 1.400 . S
C556 C559 1.386 . S
H557 C573 0.930 . S
H558 C574 0.931 . S
C559 H547 0.929 . S
C559 C553 1.390 . S
C559 C556 1.386 . S
C560 C555 1.490 . S
C560 C562 1.395 . S
C560 C563 1.403 . S
H561 C567 0.930 . S
C562 H548 0.930 . S
C562 C560 1.395 . S
C562 C565 1.403 . S
C563 C560 1.403 . S
C563 C564 1.524 . S
C563 C567 1.400 . S
C564 H549 0.960 . S
C564 H550 0.960 . S
C564 H551 0.960 . S
C564 C563 1.524 . S
C565 C562 1.403 . S
C565 C566 1.392 . S
C565 C569 1.495 . S
C566 C565 1.392 . S
C566 C567 1.385 . S
C566 C568 1.478 . S
C567 H561 0.930 . S
C567 C563 1.400 . S
C567 C566 1.385 . S
C568 C566 1.478 . S
C568 C570 1.381 . S
C568 C574 1.383 . S
C569 C565 1.495 . S
C569 H575 0.959 . S
C569 H576 0.961 . S
C569 H577 0.960 . S
C570 C568 1.381 . S
C570 C571 1.394 . S
C570 H578 0.930 . S
C571 C570 1.394 . S
C571 C572 1.383 . S
C571 H579 0.929 . S
C572 C571 1.383 . S
C572 C573 1.377 . S
C573 H557 0.930 . S
C573 C572 1.377 . S
C573 C574 1.379 . S
C574 H558 0.931 . S
C574 C568 1.383 . S
C574 C573 1.379 . S
H575 C569 0.959 . S
H576 C569 0.961 . S
H577 C569 0.960 . S
H578 C570 0.930 . S
H579 C571 0.929 . S
H580 C588 0.929 . S
H581 C590 0.930 . S
H582 C592 0.930 . S
H583 C595 0.929 . S
H584 C598 0.930 . S
H585 C600 0.960 . S
H586 C600 0.960 . S
H587 C600 0.960 . S
C588 H580 0.929 . S
C588 C589 1.377 . S
C588 C590 1.384 . S
C589 C588 1.377 . S
C589 C595 1.390 . S
C590 H581 0.930 . S
C590 C588 1.384 . S
C590 C591 1.372 . S
C591 C590 1.372 . S
C591 C592 1.400 . S
C591 C596 1.490 . S
C592 H582 0.930 . S
C592 C591 1.400 . S
C592 C595 1.386 . S
H593 C609 0.930 . S
H594 C610 0.931 . S
C595 H583 0.929 . S
C595 C589 1.390 . S
C595 C592 1.386 . S
C596 C591 1.490 . S
C596 C598 1.395 . S
C596 C599 1.403 . S
H597 C603 0.930 . S
C598 H584 0.930 . S
C598 C596 1.395 . S
C598 C601 1.403 . S
C599 C596 1.403 . S
C599 C600 1.524 . S
C599 C603 1.400 . S
C600 H585 0.960 . S
C600 H586 0.960 . S
C600 H587 0.960 . S
C600 C599 1.524 . S
C601 C598 1.403 . S
C601 C602 1.392 . S
C601 C605 1.495 . S
C602 C601 1.392 . S
C602 C603 1.385 . S
C602 C604 1.478 . S
C603 H597 0.930 . S
C603 C599 1.400 . S
C603 C602 1.385 . S
C604 C602 1.478 . S
C604 C606 1.381 . S
C604 C610 1.383 . S
C605 C601 1.495 . S
C605 H611 0.959 . S
C605 H612 0.961 . S
C605 H613 0.960 . S
C606 C604 1.381 . S
C606 C607 1.394 . S
C606 H614 0.930 . S
C607 C606 1.394 . S
C607 C608 1.383 . S
C607 H615 0.929 . S
C608 C607 1.383 . S
C608 C609 1.377 . S
C609 H593 0.930 . S
C609 C608 1.377 . S
C609 C610 1.379 . S
C610 H594 0.931 . S
C610 C604 1.383 . S
C610 C609 1.379 . S
H611 C605 0.959 . S
H612 C605 0.961 . S
H613 C605 0.960 . S
H614 C606 0.930 . S
H615 C607 0.929 . S
H616 C624 0.929 . S
H617 C626 0.930 . S
H618 C628 0.930 . S
H619 C631 0.929 . S
H620 C634 0.930 . S
H621 C636 0.960 . S
H622 C636 0.960 . S
H623 C636 0.960 . S
C624 H616 0.929 . S
C624 C625 1.377 . S
C624 C626 1.384 . S
C625 C624 1.377 . S
C625 C631 1.390 . S
C626 H617 0.930 . S
C626 C624 1.384 . S
C626 C627 1.372 . S
C627 C626 1.372 . S
C627 C628 1.400 . S
C627 C632 1.490 . S
C628 H618 0.930 . S
C628 C627 1.400 . S
C628 C631 1.386 . S
H629 C645 0.930 . S
H630 C646 0.931 . S
C631 H619 0.929 . S
C631 C625 1.390 . S
C631 C628 1.386 . S
C632 C627 1.490 . S
C632 C634 1.395 . S
C632 C635 1.403 . S
H633 C639 0.930 . S
C634 H620 0.930 . S
C634 C632 1.395 . S
C634 C637 1.403 . S
C635 C632 1.403 . S
C635 C636 1.524 . S
C635 C639 1.400 . S
C636 H621 0.960 . S
C636 H622 0.960 . S
C636 H623 0.960 . S
C636 C635 1.524 . S
C637 C634 1.403 . S
C637 C638 1.392 . S
C637 C641 1.495 . S
C638 C637 1.392 . S
C638 C639 1.385 . S
C638 C640 1.478 . S
C639 H633 0.930 . S
C639 C635 1.400 . S
C639 C638 1.385 . S
C640 C638 1.478 . S
C640 C642 1.381 . S
C640 C646 1.383 . S
C641 C637 1.495 . S
C641 H647 0.959 . S
C641 H648 0.961 . S
C641 H649 0.960 . S
C642 C640 1.381 . S
C642 C643 1.394 . S
C642 H650 0.930 . S
C643 C642 1.394 . S
C643 C644 1.383 . S
C643 H651 0.929 . S
C644 C643 1.383 . S
C644 C645 1.377 . S
C645 H629 0.930 . S
C645 C644 1.377 . S
C645 C646 1.379 . S
C646 H630 0.931 . S
C646 C640 1.383 . S
C646 C645 1.379 . S
H647 C641 0.959 . S
H648 C641 0.961 . S
H649 C641 0.960 . S
H650 C642 0.930 . S
H651 C643 0.929 . S
H652 C660 0.929 . S
H653 C662 0.930 . S
H654 C664 0.930 . S
H655 C667 0.929 . S
H656 C670 0.930 . S
H657 C672 0.960 . S
H658 C672 0.960 . S
H659 C672 0.960 . S
C660 H652 0.929 . S
C660 C661 1.377 . S
C660 C662 1.384 . S
C661 C660 1.377 . S
C661 C667 1.390 . S
C662 H653 0.930 . S
C662 C660 1.384 . S
C662 C663 1.372 . S
C663 C662 1.372 . S
C663 C664 1.400 . S
C663 C668 1.490 . S
C664 H654 0.930 . S
C664 C663 1.400 . S
C664 C667 1.386 . S
H665 C681 0.930 . S
H666 C682 0.931 . S
C667 H655 0.929 . S
C667 C661 1.390 . S
C667 C664 1.386 . S
C668 C663 1.490 . S
C668 C670 1.395 . S
C668 C671 1.403 . S
H669 C675 0.930 . S
C670 H656 0.930 . S
C670 C668 1.395 . S
C670 C673 1.403 . S
C671 C668 1.403 . S
C671 C672 1.524 . S
C671 C675 1.400 . S
C672 H657 0.960 . S
C672 H658 0.960 . S
C672 H659 0.960 . S
C672 C671 1.524 . S
C673 C670 1.403 . S
C673 C674 1.392 . S
C673 C677 1.495 . S
C674 C673 1.392 . S
C674 C675 1.385 . S
C674 C676 1.478 . S
C675 H669 0.930 . S
C675 C671 1.400 . S
C675 C674 1.385 . S
C676 C674 1.478 . S
C676 C678 1.381 . S
C676 C682 1.383 . S
C677 C673 1.495 . S
C677 H683 0.959 . S
C677 H684 0.961 . S
C677 H685 0.960 . S
C678 C676 1.381 . S
C678 C679 1.394 . S
C678 H686 0.930 . S
C679 C678 1.394 . S
C679 C680 1.383 . S
C679 H687 0.929 . S
C680 C679 1.383 . S
C680 C681 1.377 . S
C681 H665 0.930 . S
C681 C680 1.377 . S
C681 C682 1.379 . S
C682 H666 0.931 . S
C682 C676 1.383 . S
C682 C681 1.379 . S
H683 C677 0.959 . S
H684 C677 0.961 . S
H685 C677 0.960 . S
H686 C678 0.930 . S
H687 C679 0.929 . S
H688 C696 0.929 . S
H689 C698 0.930 . S
H690 C700 0.930 . S
H691 C703 0.929 . S
H692 C706 0.930 . S
H693 C708 0.960 . S
H694 C708 0.960 . S
H695 C708 0.960 . S
C696 H688 0.929 . S
C696 C697 1.377 . S
C696 C698 1.384 . S
C697 C696 1.377 . S
C697 C703 1.390 . S
C698 H689 0.930 . S
C698 C696 1.384 . S
C698 C699 1.372 . S
C699 C698 1.372 . S
C699 C700 1.400 . S
C699 C704 1.490 . S
C700 H690 0.930 . S
C700 C699 1.400 . S
C700 C703 1.386 . S
H701 C717 0.930 . S
H702 C718 0.931 . S
C703 H691 0.929 . S
C703 C697 1.390 . S
C703 C700 1.386 . S
C704 C699 1.490 . S
C704 C706 1.395 . S
C704 C707 1.403 . S
H705 C711 0.930 . S
C706 H692 0.930 . S
C706 C704 1.395 . S
C706 C709 1.403 . S
C707 C704 1.403 . S
C707 C708 1.524 . S
C707 C711 1.400 . S
C708 H693 0.960 . S
C708 H694 0.960 . S
C708 H695 0.960 . S
C708 C707 1.524 . S
C709 C706 1.403 . S
C709 C710 1.392 . S
C709 C713 1.495 . S
C710 C709 1.392 . S
C710 C711 1.385 . S
C710 C712 1.478 . S
C711 H705 0.930 . S
C711 C707 1.400 . S
C711 C710 1.385 . S
C712 C710 1.478 . S
C712 C714 1.381 . S
C712 C718 1.383 . S
C713 C709 1.495 . S
C713 H719 0.959 . S
C713 H720 0.961 . S
C713 H721 0.960 . S
C714 C712 1.381 . S
C714 C715 1.394 . S
C714 H722 0.930 . S
C715 C714 1.394 . S
C715 C716 1.383 . S
C715 H723 0.929 . S
C716 C715 1.383 . S
C716 C717 1.377 . S
C717 H701 0.930 . S
C717 C716 1.377 . S
C717 C718 1.379 . S
C718 H702 0.931 . S
C718 C712 1.383 . S
C718 C717 1.379 . S
H719 C713 0.959 . S
H720 C713 0.961 . S
H721 C713 0.960 . S
H722 C714 0.930 . S
H723 C715 0.929 . S
H724 C732 0.929 . S
H725 C734 0.930 . S
H726 C736 0.930 . S
H727 C739 0.929 . S
H728 C742 0.930 . S
H729 C744 0.960 . S
H730 C744 0.960 . S
H731 C744 0.960 . S
C732 H724 0.929 . S
C732 C733 1.377 . S
C732 C734 1.384 . S
C733 C732 1.377 . S
C733 C739 1.390 . S
C734 H725 0.930 . S
C734 C732 1.384 . S
C734 C735 1.372 . S
C735 C734 1.372 . S
C735 C736 1.400 . S
C735 C740 1.490 . S
C736 H726 0.930 . S
C736 C735 1.400 . S
C736 C739 1.386 . S
H737 C753 0.930 . S
H738 C754 0.931 . S
C739 H727 0.929 . S
C739 C733 1.390 . S
C739 C736 1.386 . S
C740 C735 1.490 . S
C740 C742 1.395 . S
C740 C743 1.403 . S
H741 C747 0.930 . S
C742 H728 0.930 . S
C742 C740 1.395 . S
C742 C745 1.403 . S
C743 C740 1.403 . S
C743 C744 1.524 . S
C743 C747 1.400 . S
C744 H729 0.960 . S
C744 H730 0.960 . S
C744 H731 0.960 . S
C744 C743 1.524 . S
C745 C742 1.403 . S
C745 C746 1.392 . S
C745 C749 1.495 . S
C746 C745 1.392 . S
C746 C747 1.385 . S
C746 C748 1.478 . S
C747 H741 0.930 . S
C747 C743 1.400 . S
C747 C746 1.385 . S
C748 C746 1.478 . S
C748 C750 1.381 . S
C748 C754 1.383 . S
C749 C745 1.495 . S
C749 H755 0.959 . S
C749 H756 0.961 . S
C749 H757 0.960 . S
C750 C748 1.381 . S
C750 C751 1.394 . S
C750 H758 0.930 . S
C751 C750 1.394 . S
C751 C752 1.383 . S
C751 H759 0.929 . S
C752 C751 1.383 . S
C752 C753 1.377 . S
C753 H737 0.930 . S
C753 C752 1.377 . S
C753 C754 1.379 . S
C754 H738 0.931 . S
C754 C748 1.383 . S
C754 C753 1.379 . S
H755 C749 0.959 . S
H756 C749 0.961 . S
H757 C749 0.960 . S
H758 C750 0.930 . S
H759 C751 0.929 . S
H760 C768 0.929 1_556 S
H761 C770 0.930 1_556 S
H762 C772 0.930 . S
H763 C775 0.929 . S
H764 C778 0.930 . S
H765 C780 0.960 . S
H766 C780 0.960 . S
H767 C780 0.960 . S
C768 H760 0.929 1_554 S
C768 C769 1.377 . S
C768 C770 1.384 . S
C769 C768 1.377 . S
C769 C775 1.390 . S
C770 H761 0.930 1_554 S
C770 C768 1.384 . S
C770 C771 1.372 . S
C771 C770 1.372 . S
C771 C772 1.400 . S
C771 C776 1.490 . S
C772 H762 0.930 . S
C772 C771 1.400 . S
C772 C775 1.386 . S
H773 C789 0.930 . S
H774 C790 0.931 . S
C775 H763 0.929 . S
C775 C769 1.390 . S
C775 C772 1.386 . S
C776 C771 1.490 . S
C776 C778 1.395 . S
C776 C779 1.403 . S
H777 C783 0.930 . S
C778 H764 0.930 . S
C778 C776 1.395 . S
C778 C781 1.403 1_655 S
C779 C776 1.403 . S
C779 C780 1.524 . S
C779 C783 1.400 1_655 S
C780 H765 0.960 . S
C780 H766 0.960 . S
C780 H767 0.960 . S
C780 C779 1.524 . S
C781 C778 1.403 1_455 S
C781 C782 1.392 . S
C781 C785 1.495 . S
C782 C781 1.392 . S
C782 C783 1.385 . S
C782 C784 1.478 . S
C783 H777 0.930 . S
C783 C779 1.400 1_455 S
C783 C782 1.385 . S
C784 C782 1.478 . S
C784 C786 1.381 . S
C784 C790 1.383 . S
C785 C781 1.495 . S
C785 H791 0.959 . S
C785 H792 0.961 . S
C785 H793 0.960 1_554 S
C786 C784 1.381 . S
C786 C787 1.394 . S
C786 H794 0.930 1_554 S
C787 C786 1.394 . S
C787 C788 1.383 . S
C787 H795 0.929 1_554 S
C788 C787 1.383 . S
C788 C789 1.377 . S
C789 H773 0.930 . S
C789 C788 1.377 . S
C789 C790 1.379 . S
C790 H774 0.931 . S
C790 C784 1.383 . S
C790 C789 1.379 . S
H791 C785 0.959 . S
H792 C785 0.961 . S
H793 C785 0.960 1_556 S
H794 C786 0.930 1_556 S
H795 C787 0.929 1_556 S
H796 C804 0.929 . S
H797 C806 0.930 . S
H798 C808 0.930 . S
H799 C811 0.929 . S
H800 C814 0.930 . S
H801 C816 0.960 . S
H802 C816 0.960 . S
H803 C816 0.960 . S
C804 H796 0.929 . S
C804 C805 1.377 . S
C804 C806 1.384 . S
C805 C804 1.377 . S
C805 C811 1.390 . S
C806 H797 0.930 . S
C806 C804 1.384 . S
C806 C807 1.372 . S
C807 C806 1.372 . S
C807 C808 1.400 . S
C807 C812 1.490 . S
C808 H798 0.930 . S
C808 C807 1.400 . S
C808 C811 1.386 . S
H809 C825 0.930 . S
H810 C826 0.931 . S
C811 H799 0.929 . S
C811 C805 1.390 . S
C811 C808 1.386 . S
C812 C807 1.490 . S
C812 C814 1.395 . S
C812 C815 1.403 . S
H813 C819 0.930 . S
C814 H800 0.930 . S
C814 C812 1.395 . S
C814 C817 1.403 1_565 S
C815 C812 1.403 . S
C815 C816 1.524 . S
C815 C819 1.400 1_565 S
C816 H801 0.960 . S
C816 H802 0.960 . S
C816 H803 0.960 . S
C816 C815 1.524 . S
C817 C814 1.403 1_545 S
C817 C818 1.392 . S
C817 C821 1.495 . S
C818 C817 1.392 . S
C818 C819 1.385 . S
C818 C820 1.478 . S
C819 H813 0.930 . S
C819 C815 1.400 1_545 S
C819 C818 1.385 . S
C820 C818 1.478 . S
C820 C822 1.381 . S
C820 C826 1.383 . S
C821 C817 1.495 . S
C821 H827 0.959 . S
C821 H828 0.961 . S
C821 H829 0.960 . S
C822 C820 1.381 . S
C822 C823 1.394 . S
C822 H830 0.930 . S
C823 C822 1.394 . S
C823 C824 1.383 . S
C823 H831 0.929 . S
C824 C823 1.383 . S
C824 C825 1.377 . S
C825 H809 0.930 . S
C825 C824 1.377 . S
C825 C826 1.379 . S
C826 H810 0.931 . S
C826 C820 1.383 . S
C826 C825 1.379 . S
H827 C821 0.959 . S
H828 C821 0.961 . S
H829 C821 0.960 . S
H830 C822 0.930 . S
H831 C823 0.929 . S
H832 C840 0.929 . S
H833 C842 0.930 . S
H834 C844 0.930 . S
H835 C847 0.929 . S
H836 C850 0.930 . S
H837 C852 0.960 . S
H838 C852 0.960 . S
H839 C852 0.960 . S
C840 H832 0.929 . S
C840 C841 1.377 . S
C840 C842 1.384 . S
C841 C840 1.377 . S
C841 C847 1.390 . S
C842 H833 0.930 . S
C842 C840 1.384 . S
C842 C843 1.372 . S
C843 C842 1.372 . S
C843 C844 1.400 . S
C843 C848 1.490 . S
C844 H834 0.930 . S
C844 C843 1.400 . S
C844 C847 1.386 . S
H845 C861 0.930 . S
H846 C862 0.931 . S
C847 H835 0.929 . S
C847 C841 1.390 . S
C847 C844 1.386 . S
C848 C843 1.490 . S
C848 C850 1.395 . S
C848 C851 1.403 . S
H849 C855 0.930 . S
C850 H836 0.930 . S
C850 C848 1.395 . S
C850 C853 1.403 1_455 S
C851 C848 1.403 . S
C851 C852 1.524 . S
C851 C855 1.400 1_455 S
C852 H837 0.960 . S
C852 H838 0.960 . S
C852 H839 0.960 . S
C852 C851 1.524 . S
C853 C850 1.403 1_655 S
C853 C854 1.392 . S
C853 C857 1.495 . S
C854 C853 1.392 . S
C854 C855 1.385 . S
C854 C856 1.478 . S
C855 H849 0.930 . S
C855 C851 1.400 1_655 S
C855 C854 1.385 . S
C856 C854 1.478 . S
C856 C858 1.381 . S
C856 C862 1.383 . S
C857 C853 1.495 . S
C857 H863 0.959 . S
C857 H864 0.961 . S
C857 H865 0.960 . S
C858 C856 1.381 . S
C858 C859 1.394 . S
C858 H866 0.930 . S
C859 C858 1.394 . S
C859 C860 1.383 . S
C859 H867 0.929 . S
C860 C859 1.383 . S
C860 C861 1.377 . S
C861 H845 0.930 . S
C861 C860 1.377 . S
C861 C862 1.379 . S
C862 H846 0.931 . S
C862 C856 1.383 . S
C862 C861 1.379 . S
H863 C857 0.959 . S
H864 C857 0.961 . S
H865 C857 0.960 . S
H866 C858 0.930 . S
H867 C859 0.929 . S
H868 C876 0.929 . S
H869 C878 0.930 . S
H870 C880 0.930 . S
H871 C883 0.929 . S
H872 C886 0.930 . S
H873 C888 0.960 . S
H874 C888 0.960 . S
H875 C888 0.960 . S
C876 H868 0.929 . S
C876 C877 1.377 . S
C876 C878 1.384 . S
C877 C876 1.377 . S
C877 C883 1.390 . S
C878 H869 0.930 . S
C878 C876 1.384 . S
C878 C879 1.372 . S
C879 C878 1.372 . S
C879 C880 1.400 . S
C879 C884 1.490 . S
C880 H870 0.930 . S
C880 C879 1.400 . S
C880 C883 1.386 . S
H881 C897 0.930 . S
H882 C898 0.931 . S
C883 H871 0.929 . S
C883 C877 1.390 . S
C883 C880 1.386 . S
C884 C879 1.490 . S
C884 C886 1.395 1_554 S
C884 C887 1.403 . S
H885 C891 0.930 . S
C886 H872 0.930 . S
C886 C884 1.395 1_556 S
C886 C889 1.403 1_565 S
C887 C884 1.403 . S
C887 C888 1.524 . S
C887 C891 1.400 1_565 S
C888 H873 0.960 . S
C888 H874 0.960 . S
C888 H875 0.960 . S
C888 C887 1.524 . S
C889 C886 1.403 1_545 S
C889 C890 1.392 1_556 S
C889 C893 1.495 . S
C890 C889 1.392 1_554 S
C890 C891 1.385 . S
C890 C892 1.478 . S
C891 H885 0.930 . S
C891 C887 1.400 1_545 S
C891 C890 1.385 . S
C892 C890 1.478 . S
C892 C894 1.381 . S
C892 C898 1.383 . S
C893 C889 1.495 . S
C893 H899 0.959 . S
C893 H900 0.961 . S
C893 H901 0.960 . S
C894 C892 1.381 . S
C894 C895 1.394 . S
C894 H902 0.930 . S
C895 C894 1.394 . S
C895 C896 1.383 . S
C895 H903 0.929 . S
C896 C895 1.383 . S
C896 C897 1.377 . S
C897 H881 0.930 . S
C897 C896 1.377 . S
C897 C898 1.379 . S
C898 H882 0.931 . S
C898 C892 1.383 . S
C898 C897 1.379 . S
H899 C893 0.959 . S
H900 C893 0.961 . S
H901 C893 0.960 . S
H902 C894 0.930 . S
H903 C895 0.929 . S
H904 C912 0.929 . S
H905 C914 0.930 . S
H906 C916 0.930 . S
H907 C919 0.929 . S
H908 C922 0.930 . S
H909 C924 0.960 . S
H910 C924 0.960 . S
H911 C924 0.960 . S
C912 H904 0.929 . S
C912 C913 1.377 . S
C912 C914 1.384 . S
C913 C912 1.377 . S
C913 C919 1.390 . S
C914 H905 0.930 . S
C914 C912 1.384 . S
C914 C915 1.372 . S
C915 C914 1.372 . S
C915 C916 1.400 . S
C915 C920 1.490 . S
C916 H906 0.930 . S
C916 C915 1.400 . S
C916 C919 1.386 . S
H917 C933 0.930 . S
H918 C934 0.931 . S
C919 H907 0.929 . S
C919 C913 1.390 . S
C919 C916 1.386 . S
C920 C915 1.490 . S
C920 C922 1.395 1_554 S
C920 C923 1.403 . S
H921 C927 0.930 . S
C922 H908 0.930 . S
C922 C920 1.395 1_556 S
C922 C925 1.403 . S
C923 C920 1.403 . S
C923 C924 1.524 . S
C923 C927 1.400 . S
C924 H909 0.960 . S
C924 H910 0.960 . S
C924 H911 0.960 . S
C924 C923 1.524 . S
C925 C922 1.403 . S
C925 C926 1.392 1_556 S
C925 C929 1.495 . S
C926 C925 1.392 1_554 S
C926 C927 1.385 . S
C926 C928 1.478 . S
C927 H921 0.930 . S
C927 C923 1.400 . S
C927 C926 1.385 . S
C928 C926 1.478 . S
C928 C930 1.381 . S
C928 C934 1.383 . S
C929 C925 1.495 . S
C929 H935 0.959 . S
C929 H936 0.961 . S
C929 H937 0.960 . S
C930 C928 1.381 . S
C930 C931 1.394 . S
C930 H938 0.930 1_554 S
C931 C930 1.394 . S
C931 C932 1.383 . S
C931 H939 0.929 1_554 S
C932 C931 1.383 . S
C932 C933 1.377 . S
C933 H917 0.930 . S
C933 C932 1.377 . S
C933 C934 1.379 . S
C934 H918 0.931 . S
C934 C928 1.383 . S
C934 C933 1.379 . S
H935 C929 0.959 . S
H936 C929 0.961 . S
H937 C929 0.960 . S
H938 C930 0.930 1_556 S
H939 C931 0.929 1_556 S
H940 C948 0.929 . S
H941 C950 0.930 . S
H942 C952 0.930 . S
H943 C955 0.929 . S
H944 C958 0.930 . S
H945 C960 0.960 . S
H946 C960 0.960 . S
H947 C960 0.960 . S
C948 H940 0.929 . S
C948 C949 1.377 . S
C948 C950 1.384 . S
C949 C948 1.377 . S
C949 C955 1.390 . S
C950 H941 0.930 . S
C950 C948 1.384 . S
C950 C951 1.372 . S
C951 C950 1.372 . S
C951 C952 1.400 . S
C951 C956 1.490 . S
C952 H942 0.930 . S
C952 C951 1.400 . S
C952 C955 1.386 . S
H953 C969 0.930 . S
H954 C970 0.931 . S
C955 H943 0.929 . S
C955 C949 1.390 . S
C955 C952 1.386 . S
C956 C951 1.490 . S
C956 C958 1.395 . S
C956 C959 1.403 . S
H957 C963 0.930 . S
C958 H944 0.930 . S
C958 C956 1.395 . S
C958 C961 1.403 . S
C959 C956 1.403 . S
C959 C960 1.524 . S
C959 C963 1.400 . S
C960 H945 0.960 . S
C960 H946 0.960 . S
C960 H947 0.960 . S
C960 C959 1.524 . S
C961 C958 1.403 . S
C961 C962 1.392 . S
C961 C965 1.495 . S
C962 C961 1.392 . S
C962 C963 1.385 . S
C962 C964 1.478 . S
C963 H957 0.930 . S
C963 C959 1.400 . S
C963 C962 1.385 . S
C964 C962 1.478 . S
C964 C966 1.381 . S
C964 C970 1.383 . S
C965 C961 1.495 . S
C965 H971 0.959 . S
C965 H972 0.961 . S
C965 H973 0.960 . S
C966 C964 1.381 . S
C966 C967 1.394 . S
C966 H974 0.930 . S
C967 C966 1.394 . S
C967 C968 1.383 . S
C967 H975 0.929 . S
C968 C967 1.383 . S
C968 C969 1.377 . S
C969 H953 0.930 . S
C969 C968 1.377 . S
C969 C970 1.379 . S
C970 H954 0.931 . S
C970 C964 1.383 . S
C970 C969 1.379 . S
H971 C965 0.959 . S
H972 C965 0.961 . S
H973 C965 0.960 . S
H974 C966 0.930 . S
H975 C967 0.929 . S
H976 C984 0.929 . S
H977 C986 0.930 . S
H978 C988 0.930 1_556 S
H979 C991 0.929 1_556 S
H980 C994 0.930 . S
H981 C996 0.960 . S
H982 C996 0.960 . S
H983 C996 0.960 . S
C984 H976 0.929 . S
C984 C985 1.377 . S
C984 C986 1.384 . S
C985 C984 1.377 . S
C985 C991 1.390 . S
C986 H977 0.930 . S
C986 C984 1.384 . S
C986 C987 1.372 . S
C987 C986 1.372 . S
C987 C988 1.400 . S
C987 C992 1.490 . S
C988 H978 0.930 1_554 S
C988 C987 1.400 . S
C988 C991 1.386 . S
H989 C1005 0.930 . S
H990 C1006 0.931 . S
C991 H979 0.929 1_554 S
C991 C985 1.390 . S
C991 C988 1.386 . S
C992 C987 1.490 . S
C992 C994 1.395 . S
C992 C995 1.403 . S
H993 C999 0.930 . S
C994 H980 0.930 . S
C994 C992 1.395 . S
C994 C997 1.403 . S
C995 C992 1.403 . S
C995 C996 1.524 . S
C995 C999 1.400 . S
C996 H981 0.960 . S
C996 H982 0.960 . S
C996 H983 0.960 . S
C996 C995 1.524 . S
C997 C994 1.403 . S
C997 C998 1.392 . S
C997 C1001 1.495 . S
C998 C997 1.392 . S
C998 C999 1.385 . S
C998 C1000 1.478 . S
C999 H993 0.930 . S
C999 C995 1.400 . S
C999 C998 1.385 . S
C1000 C998 1.478 . S
C1000 C1002 1.381 . S
C1000 C1006 1.383 1_554 S
C1001 C997 1.495 . S
C1001 H1007 0.959 . S
C1001 H1008 0.961 . S
C1001 H1009 0.960 . S
C1002 C1000 1.381 . S
C1002 C1003 1.394 . S
C1002 H1010 0.930 . S
C1003 C1002 1.394 . S
C1003 C1004 1.383 . S
C1003 H1011 0.929 . S
C1004 C1003 1.383 . S
C1004 C1005 1.377 1_554 S
C1005 H989 0.930 . S
C1005 C1004 1.377 1_556 S
C1005 C1006 1.379 . S
C1006 H990 0.931 . S
C1006 C1000 1.383 1_556 S
C1006 C1005 1.379 . S
H1007 C1001 0.959 . S
H1008 C1001 0.961 . S
H1009 C1001 0.960 . S
H1010 C1002 0.930 . S
H1011 C1003 0.929 . S
H1012 C1020 0.929 . S
H1013 C1022 0.930 . S
H1014 C1024 0.930 . S
H1015 C1027 0.929 . S
H1016 C1030 0.930 . S
H1017 C1032 0.960 . S
H1018 C1032 0.960 . S
H1019 C1032 0.960 . S
C1020 H1012 0.929 . S
C1020 C1021 1.377 . S
C1020 C1022 1.384 . S
C1021 C1020 1.377 . S
C1021 C1027 1.390 . S
C1022 H1013 0.930 . S
C1022 C1020 1.384 . S
C1022 C1023 1.372 . S
C1023 C1022 1.372 . S
C1023 C1024 1.400 . S
C1023 C1028 1.490 . S
C1024 H1014 0.930 . S
C1024 C1023 1.400 . S
C1024 C1027 1.386 . S
H1025 C1041 0.930 . S
H1026 C1042 0.931 . S
C1027 H1015 0.929 . S
C1027 C1021 1.390 . S
C1027 C1024 1.386 . S
C1028 C1023 1.490 . S
C1028 C1030 1.395 . S
C1028 C1031 1.403 . S
H1029 C1035 0.930 . S
C1030 H1016 0.930 . S
C1030 C1028 1.395 . S
C1030 C1033 1.403 . S
C1031 C1028 1.403 . S
C1031 C1032 1.524 . S
C1031 C1035 1.400 . S
C1032 H1017 0.960 . S
C1032 H1018 0.960 . S
C1032 H1019 0.960 . S
C1032 C1031 1.524 . S
C1033 C1030 1.403 . S
C1033 C1034 1.392 . S
C1033 C1037 1.495 . S
C1034 C1033 1.392 . S
C1034 C1035 1.385 . S
C1034 C1036 1.478 . S
C1035 H1029 0.930 . S
C1035 C1031 1.400 . S
C1035 C1034 1.385 . S
C1036 C1034 1.478 . S
C1036 C1038 1.381 . S
C1036 C1042 1.383 . S
C1037 C1033 1.495 . S
C1037 H1043 0.959 . S
C1037 H1044 0.961 . S
C1037 H1045 0.960 . S
C1038 C1036 1.381 . S
C1038 C1039 1.394 . S
C1038 H1046 0.930 . S
C1039 C1038 1.394 . S
C1039 C1040 1.383 . S
C1039 H1047 0.929 . S
C1040 C1039 1.383 . S
C1040 C1041 1.377 . S
C1041 H1025 0.930 . S
C1041 C1040 1.377 . S
C1041 C1042 1.379 . S
C1042 H1026 0.931 . S
C1042 C1036 1.383 . S
C1042 C1041 1.379 . S
H1043 C1037 0.959 . S
H1044 C1037 0.961 . S
H1045 C1037 0.960 . S
H1046 C1038 0.930 . S
H1047 C1039 0.929 . S
C481 C33 1.475 . S
C500 C269 1.483 . S
C517 C92 1.479 . S
C536 C328 1.464 . S
C553 C387 1.479 . S
C572 C151 1.476 . S
C589 C446 1.476 . S
C608 C210 1.485 . S
C625 C357 1.175 . S
C644 C121 1.179 . S
C661 C416 1.167 . S
C680 C180 1.157 . S
C697 C3 1.169 . S
C716 C239 1.188 . S
C733 C62 1.167 . S
C752 C298 1.178 . S
C769 C170 1.384 . S
C788 C52 1.374 . S
C805 C229 1.384 . S
C824 C111 1.373 . S
C841 C288 1.385 . S
C860 C406 1.374 . S
C877 C465 1.386 . S
C896 C347 1.390 . S
C913 C5 1.410 . S
C932 C300 1.407 . S
C949 C359 1.410 . S
C968 C64 1.405 . S
C985 C123 1.409 . S
C1004 C418 1.411 . S
C1021 C182 1.408 . S
C1040 C241 1.407 . S
