# Generated by pormake.
# Topology bcu-f, (3)-cn, num edge types: 1
# Building blocks:
#     Node 0, Type 0, BuildingBlock: WUSLED_clean_sbu_0, # of connection points: 3
#     Node 1, Type 0, BuildingBlock: WUSLED_clean_sbu_0, # of connection points: 3
#     Node 2, Type 0, BuildingBlock: WUSLED_clean_sbu_0, # of connection points: 3
#     Node 3, Type 0, BuildingBlock: WUSLED_clean_sbu_0, # of connection points: 3
#     Node 4, Type 0, BuildingBlock: WUSLED_clean_sbu_0, # of connection points: 3
#     Node 5, Type 0, BuildingBlock: WUSLED_clean_sbu_0, # of connection points: 3
#     Node 6, Type 0, BuildingBlock: WUSLED_clean_sbu_0, # of connection points: 3
#     Node 7, Type 0, BuildingBlock: WUSLED_clean_sbu_0, # of connection points: 3
#     Node 8, Type 0, BuildingBlock: WUSLED_clean_sbu_0, # of connection points: 3
#     Node 9, Type 0, BuildingBlock: WUSLED_clean_sbu_0, # of connection points: 3
#     Node 10, Type 0, BuildingBlock: WUSLED_clean_sbu_0, # of connection points: 3
#     Node 11, Type 0, BuildingBlock: WUSLED_clean_sbu_0, # of connection points: 3
#     Node 12, Type 0, BuildingBlock: WUSLED_clean_sbu_0, # of connection points: 3
#     Node 13, Type 0, BuildingBlock: WUSLED_clean_sbu_0, # of connection points: 3
#     Node 14, Type 0, BuildingBlock: WUSLED_clean_sbu_0, # of connection points: 3
#     Node 15, Type 0, BuildingBlock: WUSLED_clean_sbu_0, # of connection points: 3
#     Edge 16, Type (0, 0), None
#     Edge 17, Type (0, 0), None
#     Edge 18, Type (0, 0), None
#     Edge 19, Type (0, 0), None
#     Edge 20, Type (0, 0), None
#     Edge 21, Type (0, 0), None
#     Edge 22, Type (0, 0), None
#     Edge 23, Type (0, 0), None
#     Edge 24, Type (0, 0), None
#     Edge 25, Type (0, 0), None
#     Edge 26, Type (0, 0), None
#     Edge 27, Type (0, 0), None
#     Edge 28, Type (0, 0), None
#     Edge 29, Type (0, 0), None
#     Edge 30, Type (0, 0), None
#     Edge 31, Type (0, 0), None
#     Edge 32, Type (0, 0), None
#     Edge 33, Type (0, 0), None
#     Edge 34, Type (0, 0), None
#     Edge 35, Type (0, 0), None
#     Edge 36, Type (0, 0), None
#     Edge 37, Type (0, 0), None
#     Edge 38, Type (0, 0), None
#     Edge 39, Type (0, 0), None
# Relax obj value: 0.004
# Max RMSD: 0.008
# Mean RMSD: 0.008
data_MOF--net-bcu-f--node1-WUSLED_clean_sbu_0--edge1-none
_symmetry_space_group_name_H-M    P1
_symmetry_Int_Tables_number       1
_symmetry_cell_setting            triclinic
loop_
_symmetry_equiv_pos_as_xyz
'x, y, z'
_cell_length_a     51.776757
_cell_length_b     51.774867
_cell_length_c     39.503716
_cell_angle_alpha  89.997152
_cell_angle_beta   90.001745
_cell_angle_gamma 89.997386
loop_
_atom_site_label
_atom_site_type_symbol
_atom_site_fract_x
_atom_site_fract_y
_atom_site_fract_z
_atom_type_partial_charge
C0 C 0.34532 0.13796 0.22096 0.0
C1 C 0.33963 0.16359 0.22987 0.0
C2 C 0.36535 0.15935 0.28146 0.0
C3 C 0.34951 0.17418 0.25991 0.0
C4 C 0.37068 0.13359 0.27242 0.0
C5 C 0.36078 0.12304 0.24251 0.0
U6 U 0.30891 0.1419 0.13637 0.0
O7 O 0.31916 0.12552 0.08663 0.0
O8 O 0.28322 0.11379 0.11173 0.0
C9 C 0.29867 0.11055 0.08568 0.0
C10 C 0.33577 0.1265 0.18915 0.0
C11 C 0.30282 0.0837 0.07462 0.0
C12 C 0.31389 0.03888 0.08592 0.0
C13 C 0.31187 0.06459 0.09682 0.0
C14 C 0.29843 0.05133 1.0304 0.0
C15 C 0.30688 0.03186 0.05265 0.0
C16 C 0.29644 0.07694 1.04131 0.0
C17 C 0.27632 0.20397 0.1077 0.0
C18 C 0.25898 0.20864 0.05082 0.0
C19 C 0.25009 0.24129 0.09318 0.0
C20 C 0.26456 0.22731 0.11687 0.0
C21 C 0.24721 0.23217 0.05982 0.0
C22 C 0.27332 0.19462 0.07458 0.0
C23 C 0.29146 0.18945 0.13287 0.0
O24 O 0.3106 0.12369 0.18671 0.0
O25 O 0.34638 0.1354 0.16127 0.0
O26 O 0.27899 0.17075 0.14828 0.0
O27 O 0.31485 0.18276 0.1233 0.0
H28 H 0.32775 0.17543 0.21346 0.0
H29 H 0.34518 0.19413 0.26589 0.0
H30 H 0.38241 0.12145 0.28861 0.0
H31 H 0.36531 0.1032 0.23613 0.0
H32 H 0.32077 0.02447 0.10362 0.0
H33 H 0.31696 0.06947 0.12264 0.0
H34 H 0.29249 0.04668 1.00483 0.0
H35 H 0.28933 0.09144 1.02385 0.0
H36 H 0.25685 0.2009 1.0255 0.0
H37 H 0.24151 0.25944 0.10085 0.0
H38 H 0.26663 0.23479 0.14234 0.0
H39 H 0.28208 0.17649 0.06712 0.0
C40 C 0.89811 0.34543 0.22088 0.0
C41 C 0.87258 0.33946 0.23001 0.0
C42 C 0.87669 0.36547 0.28136 0.0
C43 C 0.86198 0.34934 0.26004 0.0
C44 C 0.90234 0.3711 0.2721 0.0
C45 C 0.9129 0.36119 0.2422 0.0
U46 U 0.89419 0.30895 0.13634 0.0
O47 O 0.91058 0.31917 0.0866 0.0
O48 O 0.92231 0.28325 0.11175 0.0
C49 C 0.92555 0.29868 0.08568 0.0
C50 C 0.90957 0.33585 0.1891 0.0
C51 C 0.9524 0.30282 0.07462 0.0
C52 C 0.9972 0.31396 0.08589 0.0
C53 C 0.9715 0.31193 0.09679 0.0
C54 C 0.98478 0.29837 1.03042 0.0
C55 C 1.00424 0.30689 0.05264 0.0
C56 C 0.95917 0.29638 1.04133 0.0
C57 C 0.83213 0.27636 0.10768 0.0
C58 C 0.82749 0.25897 0.05082 0.0
C59 C 0.79479 0.25018 0.09314 0.0
C60 C 0.80876 0.26464 0.11682 0.0
C61 C 0.80394 0.24725 0.0598 0.0
C62 C 0.84151 0.27332 0.07458 0.0
C63 C 0.84663 0.29151 0.13284 0.0
O64 O 0.91238 0.31067 0.18669 0.0
O65 O 0.90068 0.34644 0.16119 0.0
O66 O 0.86534 0.27905 0.14828 0.0
O67 O 0.85333 0.31489 0.12325 0.0
H68 H 0.86083 0.32735 0.21379 0.0
H69 H 0.84211 0.34479 0.26619 0.0
H70 H 0.91439 0.38306 0.28811 0.0
H71 H 0.93266 0.36594 0.23565 0.0
H72 H 1.0116 0.32089 0.10357 0.0
H73 H 0.9666 0.31708 0.12258 0.0
H74 H 0.98944 0.29239 1.00488 0.0
H75 H 0.94469 0.28921 1.02389 0.0
H76 H 0.83525 0.25681 1.02552 0.0
H77 H 0.77661 0.24163 0.10079 0.0
H78 H 0.80125 0.26675 0.14228 0.0
H79 H 0.85966 0.28204 0.06714 0.0
C80 C 0.69077 0.89819 0.22096 0.0
C81 C 0.69646 0.87256 0.22988 0.0
C82 C 0.67074 0.8768 0.28146 0.0
C83 C 0.68658 0.86197 0.25991 0.0
C84 C 0.6654 0.90256 0.27242 0.0
C85 C 0.67531 0.9131 0.24251 0.0
U86 U 0.72719 0.89423 0.13638 0.0
O87 O 0.71695 0.91062 0.08664 0.0
O88 O 0.75289 0.92234 0.11175 0.0
C89 C 0.73745 0.92558 0.08569 0.0
C90 C 0.70033 0.90965 0.18915 0.0
C91 C 0.73331 0.95243 0.07462 0.0
C92 C 0.72211 0.99723 0.08585 0.0
C93 C 0.72414 0.97152 0.09676 0.0
C94 C 0.73782 0.98482 1.03045 0.0
C95 C 0.72924 1.00427 0.05264 0.0
C96 C 0.73982 0.95921 1.04136 0.0
C97 C 0.75976 0.83216 0.10772 0.0
C98 C 0.7771 0.8275 0.05084 0.0
C99 C 0.78597 0.79484 0.09319 0.0
C100 C 0.77151 0.80881 0.11688 0.0
C101 C 0.78886 0.80396 0.05983 0.0
C102 C 0.76276 0.84152 0.0746 0.0
C103 C 0.74461 0.84667 0.13288 0.0
O104 O 0.7255 0.91244 0.18672 0.0
O105 O 0.68972 0.90075 0.16127 0.0
O106 O 0.75709 0.86538 0.1483 0.0
O107 O 0.72124 0.85338 0.12331 0.0
H108 H 0.70834 0.86071 0.21348 0.0
H109 H 0.6909 0.84202 0.2659 0.0
H110 H 0.65367 0.9147 0.28859 0.0
H111 H 0.67078 0.93295 0.23612 0.0
H112 H 0.71512 1.01161 0.10351 0.0
H113 H 0.71894 0.96661 0.12254 0.0
H114 H 0.74386 0.98949 1.00493 0.0
H115 H 0.74703 0.94474 1.02394 0.0
H116 H 0.77923 0.83524 1.02552 0.0
H117 H 0.79454 0.77668 0.10085 0.0
H118 H 0.76943 0.80132 0.14235 0.0
H119 H 0.754 0.85966 0.06714 0.0
C120 C 0.13796 0.69075 0.22089 0.0
C121 C 0.16352 0.69663 0.22995 0.0
C122 C 0.15938 0.67071 0.28138 0.0
C123 C 0.17412 0.68675 0.25998 0.0
C124 C 0.13369 0.66517 0.27219 0.0
C125 C 0.12314 0.67508 0.24229 0.0
U126 U 0.14189 0.7272 0.13633 0.0
O127 O 0.12549 0.71697 0.08659 0.0
O128 O 0.11377 0.7529 0.11172 0.0
C129 C 0.11052 0.73746 0.08565 0.0
C130 C 0.1265 0.70032 0.18909 0.0
C131 C 0.08367 0.73332 0.0746 0.0
C132 C 0.03886 0.72224 0.0859 0.0
C133 C 0.06457 0.72426 0.0968 0.0
C134 C 0.05129 0.73772 1.0304 0.0
C135 C 0.03183 0.72927 0.05264 0.0
C136 C 0.0769 0.73972 1.0413 0.0
C137 C 0.20395 0.75979 0.10766 0.0
C138 C 0.20861 0.77714 0.05078 0.0
C139 C 0.24127 0.786 0.09314 0.0
C140 C 0.2273 0.77154 0.11682 0.0
C141 C 0.23214 0.7889 0.05978 0.0
C142 C 0.19459 0.7628 0.07454 0.0
C143 C 0.18944 0.74463 0.13282 0.0
O144 O 0.12369 0.72549 0.18668 0.0
O145 O 0.13539 0.68972 0.1612 0.0
O146 O 0.17074 0.75711 0.14825 0.0
O147 O 0.18274 0.72126 0.12324 0.0
H148 H 0.1753 0.70867 0.21367 0.0
H149 H 0.19401 0.69123 0.26608 0.0
H150 H 0.12161 0.65328 0.28825 0.0
H151 H 0.10335 0.6704 0.23578 0.0
H152 H 0.02446 0.71535 0.10361 0.0
H153 H 0.06946 0.71915 0.12261 0.0
H154 H 0.04664 0.74368 1.00484 0.0
H155 H 0.09139 0.74684 1.02384 0.0
H156 H 0.20087 0.77928 1.02547 0.0
H157 H 0.25943 0.79457 0.1008 0.0
H158 H 0.23478 0.76945 0.14229 0.0
H159 H 0.17645 0.75404 0.06708 0.0
C160 C 0.34544 0.89812 0.87341 0.0
C161 C 0.33933 0.87265 0.86419 0.0
C162 C 0.36548 0.87668 0.81295 0.0
C163 C 0.34922 0.86204 0.83417 0.0
C164 C 0.37125 0.90229 0.82231 0.0
C165 C 0.36134 0.91285 0.8522 0.0
U166 U 0.30894 0.89422 0.95793 0.0
O167 O 0.31913 0.91061 1.00768 0.0
O168 O 0.28322 0.92234 0.98251 0.0
C169 C 0.29864 0.92558 1.00859 0.0
C170 C 0.33585 0.9096 0.9052 0.0
C171 C 0.30278 0.95242 1.01967 0.0
C172 C 0.31404 0.99721 1.00846 0.0
C173 C 0.31201 0.9715 0.99755 0.0
C174 C 0.29822 0.98482 0.06382 0.0
C175 C 0.30686 1.00426 1.04165 0.0
C176 C 0.29622 0.95921 0.05291 0.0
C177 C 0.27633 0.83216 0.98658 0.0
C178 C 0.25894 0.82752 1.04344 0.0
C179 C 0.25014 0.79482 1.00111 0.0
C180 C 0.26461 0.80879 0.97743 0.0
C181 C 0.24721 0.80397 1.03445 0.0
C182 C 0.27329 0.84153 1.01968 0.0
C183 C 0.29149 0.84666 0.96143 0.0
O184 O 0.31068 0.91241 0.90758 0.0
O185 O 0.34644 0.90071 0.9331 0.0
O186 O 0.27903 0.86537 0.94598 0.0
O187 O 0.31487 0.85336 0.97103 0.0
H188 H 0.32712 0.86095 0.88033 0.0
H189 H 0.34455 0.84222 0.82793 0.0
H190 H 0.38333 0.91429 0.80639 0.0
H191 H 0.3662 0.93257 0.85884 0.0
H192 H 0.32107 1.01159 0.99082 0.0
H193 H 0.31724 0.96659 0.97179 0.0
H194 H 0.29215 0.98949 0.08933 0.0
H195 H 0.28896 0.94474 0.0703 0.0
H196 H 0.25677 0.83528 0.06874 0.0
H197 H 0.24159 0.77665 0.99345 0.0
H198 H 0.26672 0.80129 0.95197 0.0
H199 H 0.28202 0.85969 1.02713 0.0
C200 C 0.13801 0.34552 0.87347 0.0
C201 C 0.16342 0.33927 0.86414 0.0
C202 C 0.15947 0.36557 0.81301 0.0
C203 C 0.17405 0.34916 0.83412 0.0
C204 C 0.13392 0.37148 0.82248 0.0
C205 C 0.12335 0.36157 0.85237 0.0
U206 U 0.1419 0.30899 0.95797 0.0
O207 O 0.12549 0.31916 1.00772 0.0
O208 O 0.11377 0.28327 0.98252 0.0
C209 C 0.11052 0.29868 1.00861 0.0
C210 C 0.12653 0.33592 0.90524 0.0
C211 C 0.08367 0.30282 1.01968 0.0
C212 C 0.03888 0.31401 1.00843 0.0
C213 C 0.06458 0.31198 0.99753 0.0
C214 C 0.05129 0.29831 0.06385 0.0
C215 C 0.03184 0.30688 1.04165 0.0
C216 C 0.07689 0.29632 0.05294 0.0
C217 C 0.20395 0.27637 0.98662 0.0
C218 C 0.20858 0.25895 1.04347 0.0
C219 C 0.24129 0.25018 1.00116 0.0
C220 C 0.22732 0.26465 0.97748 0.0
C221 C 0.23214 0.24724 1.03449 0.0
C222 C 0.19457 0.27331 1.01972 0.0
C223 C 0.18945 0.29154 0.96147 0.0
O224 O 0.12372 0.31075 0.90761 0.0
O225 O 0.13541 0.34649 0.93315 0.0
O226 O 0.17075 0.27908 0.94602 0.0
O227 O 0.18275 0.31491 0.97108 0.0
H228 H 0.17508 0.32694 0.88019 0.0
H229 H 0.19383 0.34437 0.8278 0.0
H230 H 0.12197 0.38368 0.80664 0.0
H231 H 0.10368 0.36655 0.85908 0.0
H232 H 0.02449 0.32098 0.99077 0.0
H233 H 0.06949 0.31717 0.97175 0.0
H234 H 0.04662 0.29228 0.08938 0.0
H235 H 0.09137 0.28911 0.07036 0.0
H236 H 0.20082 0.25678 0.06877 0.0
H237 H 0.25947 0.24164 0.9935 0.0
H238 H 0.23483 0.26678 0.95202 0.0
H239 H 0.17641 0.28203 1.02717 0.0
C240 C 0.69085 0.13792 0.87328 0.0
C241 C 0.69635 0.16362 0.8645 0.0
C242 C 0.67083 0.15929 0.81276 0.0
C243 C 0.68647 0.17421 0.83446 0.0
C244 C 0.6657 0.13345 0.82166 0.0
C245 C 0.6756 0.12293 0.85158 0.0
U246 U 0.72722 0.1419 0.95791 0.0
O247 O 0.71696 0.12552 1.00764 0.0
O248 O 0.75291 0.1138 0.98257 0.0
C249 C 0.73745 0.11056 1.00861 0.0
C250 C 0.7004 0.12648 0.90511 0.0
C251 C 0.73331 0.08371 1.01967 0.0
C252 C 0.72218 0.0389 1.0084 0.0
C253 C 0.72421 0.06461 0.9975 0.0
C254 C 0.73774 0.05133 0.06387 0.0
C255 C 0.72924 0.03187 1.04165 0.0
C256 C 0.73974 0.07694 0.05297 0.0
C257 C 0.75978 0.20398 0.98658 0.0
C258 C 0.77711 0.20864 1.04346 0.0
C259 C 0.78599 0.2413 1.0011 0.0
C260 C 0.77153 0.22733 0.97742 0.0
C261 C 0.78887 0.23218 1.03446 0.0
C262 C 0.76278 0.19463 1.0197 0.0
C263 C 0.74465 0.18946 0.9614 0.0
O264 O 0.72557 0.12369 0.90756 0.0
O265 O 0.68977 0.13539 0.93298 0.0
O266 O 0.75713 0.17075 0.946 0.0
O267 O 0.72127 0.18276 0.97095 0.0
H268 H 0.70807 0.17553 0.88102 0.0
H269 H 0.69064 0.1942 0.82858 0.0
H270 H 0.65412 0.12125 0.80537 0.0
H271 H 0.67122 0.10303 0.85787 0.0
H272 H 0.71525 0.02451 0.99071 0.0
H273 H 0.71907 0.06951 0.9717 0.0
H274 H 0.74372 0.04667 0.08942 0.0
H275 H 0.74689 0.09142 0.07041 0.0
H276 H 0.77924 0.20091 0.06878 0.0
H277 H 0.79456 0.25946 0.99344 0.0
H278 H 0.76946 0.23481 0.95194 0.0
H279 H 0.75402 0.17649 1.02715 0.0
C280 C 0.89809 0.69069 0.87344 0.0
C281 C 0.87262 0.6968 0.86421 0.0
C282 C 0.87665 0.67064 0.81298 0.0
C283 C 0.86201 0.68691 0.83418 0.0
C284 C 0.90225 0.66486 0.82235 0.0
C285 C 0.91281 0.67478 0.85224 0.0
U286 U 0.89418 0.72719 0.95796 0.0
O287 O 0.91058 0.717 1.00771 0.0
O288 O 0.92229 0.75291 0.98253 0.0
C289 C 0.92554 0.73749 1.00862 0.0
C290 C 0.90956 0.70028 0.90522 0.0
C291 C 0.95239 0.73336 1.01968 0.0
C292 C 0.99718 0.72211 1.00846 0.0
C293 C 0.97147 0.72414 0.99756 0.0
C294 C 0.98479 0.7379 0.06383 0.0
C295 C 1.00423 0.72928 1.04166 0.0
C296 C 0.95918 0.73991 0.05293 0.0
C297 C 0.83212 0.75978 0.98662 0.0
C298 C 0.82748 0.77717 1.04348 0.0
C299 C 0.79478 0.78597 1.00116 0.0
C300 C 0.80874 0.7715 0.97748 0.0
C301 C 0.80392 0.7889 1.0345 0.0
C302 C 0.84149 0.76283 1.01972 0.0
C303 C 0.84662 0.74462 0.96146 0.0
O304 O 0.91236 0.72546 0.90761 0.0
O305 O 0.90067 0.68969 0.93313 0.0
O306 O 0.86532 0.75709 0.94602 0.0
O307 O 0.85332 0.72125 0.97106 0.0
H308 H 0.86092 0.70903 0.88034 0.0
H309 H 0.84219 0.69159 0.82794 0.0
H310 H 0.91425 0.65278 0.80644 0.0
H311 H 0.93253 0.66991 0.85888 0.0
H312 H 1.01156 0.71509 0.99081 0.0
H313 H 0.96656 0.71892 0.97179 0.0
H314 H 0.98947 0.74397 0.08934 0.0
H315 H 0.94471 0.74715 0.07033 0.0
H316 H 0.83524 0.77933 0.06879 0.0
H317 H 0.7766 0.79452 0.99351 0.0
H318 H 0.80124 0.76939 0.95202 0.0
H319 H 0.85965 0.7541 1.02717 0.0
C320 C 0.84533 0.63796 0.72096 0.0
C321 C 0.83961 0.66358 0.7299 0.0
C322 C 0.86536 0.65937 0.78145 0.0
C323 C 0.84948 0.67418 0.75993 0.0
C324 C 0.87073 0.63361 0.77239 0.0
C325 C 0.86083 0.62307 0.74248 0.0
U326 U 0.80892 0.64191 0.63637 0.0
O327 O 0.81915 0.62552 0.58663 0.0
O328 O 0.78322 0.6138 0.61174 0.0
C329 C 0.79867 0.61056 0.58568 0.0
C330 C 0.83577 0.62651 0.68915 0.0
C331 C 0.80281 0.58371 0.57462 0.0
C332 C 0.81392 0.53889 0.58591 0.0
C333 C 0.81189 0.5646 0.59681 0.0
C334 C 0.7984 0.55133 0.53042 0.0
C335 C 0.80687 0.53187 0.55265 0.0
C336 C 0.7964 0.57694 0.54133 0.0
C337 C 0.77633 0.70398 0.6077 0.0
C338 C 0.75898 0.70864 0.55082 0.0
C339 C 0.75011 0.74129 0.59318 0.0
C340 C 0.76457 0.72733 0.61686 0.0
C341 C 0.74722 0.73217 0.55982 0.0
C342 C 0.77333 0.69462 0.57458 0.0
C343 C 0.79147 0.68946 0.63287 0.0
O344 O 0.8106 0.6237 0.68672 0.0
O345 O 0.84638 0.63541 0.66127 0.0
O346 O 0.779 0.67076 0.64829 0.0
O347 O 0.81485 0.68277 0.6233 0.0
H348 H 0.8277 0.67542 0.71352 0.0
H349 H 0.84513 0.69412 0.76593 0.0
H350 H 0.8825 0.62149 0.78855 0.0
H351 H 0.86539 0.60324 0.73607 0.0
H352 H 0.82083 0.52449 0.6036 0.0
H353 H 0.81701 0.56949 0.62262 0.0
H354 H 0.79243 0.54668 0.50486 0.0
H355 H 0.78926 0.59144 0.52388 0.0
H356 H 0.75685 0.7009 0.5255 0.0
H357 H 0.74153 0.75945 0.60085 0.0
H358 H 0.76665 0.73481 0.64234 0.0
H359 H 0.78209 0.67649 0.56713 0.0
C360 C 0.39815 0.84535 0.72093 0.0
C361 C 0.37254 0.83962 0.72988 0.0
C362 C 0.37675 0.86539 0.78143 0.0
C363 C 0.36194 0.8495 0.75991 0.0
C364 C 0.4025 0.87077 0.77235 0.0
C365 C 0.41304 0.86086 0.74244 0.0
U366 U 0.3942 0.80893 0.63635 0.0
O367 O 0.41059 0.81917 0.58661 0.0
O368 O 0.42232 0.78323 0.61173 0.0
C369 C 0.42556 0.79868 0.58567 0.0
C370 C 0.40961 0.83579 0.68913 0.0
C371 C 0.45241 0.80283 0.57461 0.0
C372 C 0.49722 0.81391 0.58591 0.0
C373 C 0.47152 0.81189 0.5968 0.0
C374 C 0.48479 0.79842 0.5304 0.0
C375 C 0.50425 0.80688 0.55265 0.0
C376 C 0.45918 0.79643 0.54131 0.0
C377 C 0.33214 0.77635 0.60768 0.0
C378 C 0.32748 0.759 0.55081 0.0
C379 C 0.29482 0.75015 0.59315 0.0
C380 C 0.30879 0.76461 0.61684 0.0
C381 C 0.30394 0.74725 0.5598 0.0
C382 C 0.3415 0.77334 0.57457 0.0
C383 C 0.34665 0.7915 0.63285 0.0
O384 O 0.41241 0.81062 0.6867 0.0
O385 O 0.40071 0.8464 0.66124 0.0
O386 O 0.36536 0.77902 0.64827 0.0
O387 O 0.35335 0.81487 0.62328 0.0
H388 H 0.36071 0.82771 0.71351 0.0
H389 H 0.34201 0.84514 0.76592 0.0
H390 H 0.41463 0.88254 0.7885 0.0
H391 H 0.43288 0.86542 0.73603 0.0
H392 H 0.51163 0.82081 0.60361 0.0
H393 H 0.46663 0.817 0.62262 0.0
H394 H 0.48944 0.79247 0.50484 0.0
H395 H 0.44468 0.7893 0.52385 0.0
H396 H 0.33523 0.75686 0.52549 0.0
H397 H 0.27665 0.74158 0.60082 0.0
H398 H 0.3013 0.76669 0.64231 0.0
H399 H 0.35964 0.78209 0.56712 0.0
C400 C 0.1908 0.39821 0.72098 0.0
C401 C 0.19639 0.37254 0.72982 0.0
C402 C 0.17077 0.37683 0.78149 0.0
C403 C 0.18651 0.36195 0.75987 0.0
C404 C 0.16554 0.40263 0.77252 0.0
C405 C 0.17544 0.41316 0.7426 0.0
U406 U 0.22719 0.39424 0.63638 0.0
O407 O 0.21695 0.41063 0.58664 0.0
O408 O 0.25289 0.42234 0.61173 0.0
C409 C 0.23744 0.42559 0.58568 0.0
C410 C 0.20036 0.40966 0.68916 0.0
C411 C 0.2333 0.45244 0.57462 0.0
C412 C 0.22215 0.49724 0.58588 0.0
C413 C 0.22418 0.47153 0.59678 0.0
C414 C 0.23776 0.48482 0.53042 0.0
C415 C 0.22923 0.50428 0.55264 0.0
C416 C 0.23976 0.45921 0.54133 0.0
C417 C 0.25976 0.33217 0.60771 0.0
C418 C 0.2771 0.3275 0.55083 0.0
C419 C 0.28597 0.29485 0.59319 0.0
C420 C 0.27152 0.30882 0.61687 0.0
C421 C 0.28886 0.30397 0.55983 0.0
C422 C 0.26276 0.34152 0.57459 0.0
C423 C 0.24462 0.34668 0.63288 0.0
O424 O 0.22553 0.41245 0.68672 0.0
O425 O 0.18974 0.40076 0.66129 0.0
O426 O 0.25711 0.36539 0.64829 0.0
O427 O 0.22124 0.35338 0.62332 0.0
H428 H 0.20819 0.36066 0.71337 0.0
H429 H 0.19076 0.34198 0.76579 0.0
H430 H 0.15389 0.4148 0.78875 0.0
H431 H 0.17099 0.43304 0.73627 0.0
H432 H 0.21521 0.51164 0.60356 0.0
H433 H 0.21902 0.46664 0.62257 0.0
H434 H 0.24376 0.48948 0.50488 0.0
H435 H 0.24693 0.44473 0.5239 0.0
H436 H 0.27922 0.33524 0.52551 0.0
H437 H 0.29455 0.27669 0.60086 0.0
H438 H 0.26944 0.30134 0.64235 0.0
H439 H 0.254 0.35966 0.56713 0.0
C440 C 0.63805 0.19059 0.72078 0.0
C441 C 0.66342 0.19693 0.73018 0.0
C442 C 0.65952 0.17054 0.78123 0.0
C443 C 0.67405 0.18705 0.7602 0.0
C444 C 0.63401 0.16453 0.77169 0.0
C445 C 0.62343 0.17444 0.74181 0.0
U446 U 0.64191 0.22714 0.63629 0.0
O447 O 0.6255 0.21696 0.58654 0.0
O448 O 0.61378 0.25286 0.61175 0.0
C449 C 0.61053 0.23744 0.58565 0.0
C450 C 0.62656 0.20019 0.68902 0.0
C451 C 0.58368 0.23331 0.5746 0.0
C452 C 0.53887 0.2222 0.58589 0.0
C453 C 0.56458 0.22422 0.59678 0.0
C454 C 0.55129 0.23774 0.5304 0.0
C455 C 0.53183 0.22925 0.55264 0.0
C456 C 0.5769 0.23973 0.54131 0.0
C457 C 0.70396 0.25977 0.60763 0.0
C458 C 0.70858 0.27718 0.55078 0.0
C459 C 0.74129 0.28596 0.5931 0.0
C460 C 0.72733 0.27148 0.61678 0.0
C461 C 0.73214 0.2889 0.55977 0.0
C462 C 0.69457 0.26282 0.57453 0.0
C463 C 0.68946 0.24459 0.63278 0.0
O464 O 0.62374 0.22537 0.68665 0.0
O465 O 0.63544 0.18962 0.6611 0.0
O466 O 0.67076 0.25705 0.64824 0.0
O467 O 0.68276 0.22122 0.62317 0.0
H468 H 0.67505 0.20934 0.71419 0.0
H469 H 0.6938 0.19191 0.76657 0.0
H470 H 0.62209 0.15226 0.78747 0.0
H471 H 0.60379 0.16939 0.73504 0.0
H472 H 0.52447 0.21528 0.60358 0.0
H473 H 0.56947 0.21909 0.62259 0.0
H474 H 0.54664 0.24372 0.50485 0.0
H475 H 0.59139 0.24688 0.52386 0.0
H476 H 0.70082 0.27935 0.52548 0.0
H477 H 0.75946 0.29451 0.60076 0.0
H478 H 0.73483 0.26936 0.64224 0.0
H479 H 0.67642 0.25409 0.56709 0.0
C480 C 0.84537 0.39817 0.37337 0.0
C481 C 0.8395 0.37261 0.36432 0.0
C482 C 0.8654 0.37675 0.31288 0.0
C483 C 0.84938 0.362 0.33429 0.0
C484 C 0.87092 0.40245 0.32206 0.0
C485 C 0.86102 0.413 0.35196 0.0
U486 U 0.80891 0.39424 0.45792 0.0
O487 O 0.81913 0.41062 0.50767 0.0
O488 O 0.78321 0.42235 0.48253 0.0
C489 C 0.79864 0.42559 0.5086 0.0
C490 C 0.8358 0.40963 0.40516 0.0
C491 C 0.80278 0.45243 0.51967 0.0
C492 C 0.81401 0.49722 0.50845 0.0
C493 C 0.81198 0.47152 0.49754 0.0
C494 C 0.79826 0.48482 0.56384 0.0
C495 C 0.80686 0.50427 0.54166 0.0
C496 C 0.79626 0.45922 0.55293 0.0
C497 C 0.77632 0.33217 0.48657 0.0
C498 C 0.75897 0.3275 0.54344 0.0
C499 C 0.7501 0.29485 0.50108 0.0
C500 C 0.76456 0.30883 0.4774 0.0
C501 C 0.7472 0.30397 0.53444 0.0
C502 C 0.77331 0.34152 0.51969 0.0
C503 C 0.79147 0.34668 0.46141 0.0
O504 O 0.81062 0.41244 0.40758 0.0
O505 O 0.84639 0.40073 0.43306 0.0
O506 O 0.779 0.36539 0.44598 0.0
O507 O 0.81485 0.35338 0.47099 0.0
H508 H 0.82747 0.36082 0.38061 0.0
H509 H 0.8449 0.34211 0.3282 0.0
H510 H 0.88281 0.41453 0.30599 0.0
H511 H 0.86569 0.43279 0.35845 0.0
H512 H 0.82102 0.51161 0.4908 0.0
H513 H 0.81719 0.46661 0.47177 0.0
H514 H 0.79221 0.48949 0.58936 0.0
H515 H 0.78903 0.44474 0.57033 0.0
H516 H 0.75683 0.33524 0.56876 0.0
H517 H 0.74152 0.2767 0.49341 0.0
H518 H 0.76664 0.30135 0.45193 0.0
H519 H 0.78207 0.35966 0.52715 0.0
C520 C 0.638 0.84548 0.37344 0.0
C521 C 0.66345 0.83933 0.36419 0.0
C522 C 0.65944 0.86553 0.31298 0.0
C523 C 0.67406 0.84922 0.33417 0.0
C524 C 0.63385 0.87134 0.32238 0.0
C525 C 0.62329 0.86143 0.35227 0.0
U526 U 0.6419 0.80897 0.45796 0.0
O527 O 0.6255 0.81915 0.50771 0.0
O528 O 0.61378 0.78325 0.48252 0.0
C529 C 0.61054 0.79866 0.50861 0.0
C530 C 0.62652 0.83589 0.40522 0.0
C531 C 0.58369 0.8028 0.51968 0.0
C532 C 0.5389 0.81404 0.50845 0.0
C533 C 0.56461 0.81201 0.49755 0.0
C534 C 0.55129 0.79825 0.56384 0.0
C535 C 0.53185 0.80687 0.54166 0.0
C536 C 0.5769 0.79625 0.55293 0.0
C537 C 0.70396 0.77636 0.48662 0.0
C538 C 0.70859 0.75896 0.54347 0.0
C539 C 0.7413 0.75018 0.50115 0.0
C540 C 0.72733 0.76465 0.47747 0.0
C541 C 0.73215 0.74724 0.53449 0.0
C542 C 0.69458 0.77331 0.51971 0.0
C543 C 0.68945 0.79153 0.46146 0.0
O544 O 0.62371 0.81071 0.40761 0.0
O545 O 0.63541 0.84647 0.43313 0.0
O546 O 0.67075 0.77906 0.44601 0.0
O547 O 0.68275 0.8149 0.47106 0.0
H548 H 0.67514 0.82708 0.3803 0.0
H549 H 0.69387 0.84451 0.32791 0.0
H550 H 0.62187 0.88346 0.30648 0.0
H551 H 0.60358 0.86633 0.35892 0.0
H552 H 0.52452 0.82105 0.49081 0.0
H553 H 0.56951 0.81723 0.47179 0.0
H554 H 0.54662 0.79219 0.58935 0.0
H555 H 0.59137 0.78901 0.57033 0.0
H556 H 0.70083 0.75679 0.56877 0.0
H557 H 0.75948 0.74163 0.4935 0.0
H558 H 0.73483 0.76676 0.45201 0.0
H559 H 0.67642 0.78204 0.52716 0.0
C560 C 0.1907 0.638 0.37338 0.0
C561 C 0.19666 0.66353 0.36427 0.0
C562 C 0.17066 0.65943 0.3129 0.0
C563 C 0.18678 0.67414 0.33424 0.0
C564 C 0.16505 0.63376 0.32215 0.0
C565 C 0.17496 0.62321 0.35205 0.0
U566 U 0.22717 0.64193 0.45793 0.0
O567 O 0.21696 0.62554 0.50768 0.0
O568 O 0.25288 0.61381 0.48253 0.0
C569 C 0.23745 0.61057 0.5086 0.0
C570 C 0.20028 0.62654 0.40518 0.0
C571 C 0.23331 0.58372 0.51967 0.0
C572 C 0.22213 0.53892 0.50842 0.0
C573 C 0.22416 0.56463 0.49752 0.0
C574 C 0.23779 0.55133 0.56385 0.0
C575 C 0.22924 0.53188 0.54165 0.0
C576 C 0.23979 0.57694 0.55294 0.0
C577 C 0.25977 0.70399 0.48659 0.0
C578 C 0.27714 0.70863 0.54346 0.0
C579 C 0.28596 0.74132 0.50112 0.0
C580 C 0.27149 0.72736 0.47744 0.0
C581 C 0.28888 0.73218 0.53447 0.0
C582 C 0.2628 0.69462 0.5197 0.0
C583 C 0.24461 0.68948 0.46143 0.0
O584 O 0.22545 0.62373 0.40758 0.0
O585 O 0.18969 0.63543 0.43307 0.0
O586 O 0.25708 0.67078 0.446 0.0
O587 O 0.22124 0.68279 0.47101 0.0
H588 H 0.20875 0.67529 0.3805 0.0
H589 H 0.19132 0.69401 0.32809 0.0
H590 H 0.1531 0.62171 0.30614 0.0
H591 H 0.17022 0.60344 0.3586 0.0
H592 H 0.21516 0.52453 0.49075 0.0
H593 H 0.21898 0.56953 0.47173 0.0
H594 H 0.24381 0.54667 0.58938 0.0
H595 H 0.24699 0.59142 0.57036 0.0
H596 H 0.2793 0.70088 0.56876 0.0
H597 H 0.29451 0.75949 0.49347 0.0
H598 H 0.26939 0.73485 0.45198 0.0
H599 H 0.25406 0.67647 0.52714 0.0
C600 C 0.39808 0.19067 0.37345 0.0
C601 C 0.37263 0.19682 0.36418 0.0
C602 C 0.37664 0.17062 0.31298 0.0
C603 C 0.36201 0.18694 0.33416 0.0
C604 C 0.40223 0.16481 0.32238 0.0
C605 C 0.41279 0.17472 0.35227 0.0
U606 U 0.39417 0.22718 0.45796 0.0
O607 O 0.41058 0.21699 0.50771 0.0
O608 O 0.4223 0.2529 0.48253 0.0
C609 C 0.42554 0.23748 0.50862 0.0
C610 C 0.40955 0.20027 0.40522 0.0
C611 C 0.45239 0.23334 0.51968 0.0
C612 C 0.49718 0.22213 0.50844 0.0
C613 C 0.47148 0.22416 0.49754 0.0
C614 C 0.48479 0.23786 0.56384 0.0
C615 C 0.50423 0.22927 0.54165 0.0
C616 C 0.45918 0.23986 0.55293 0.0
C617 C 0.33212 0.25978 0.48662 0.0
C618 C 0.32748 0.27718 0.54348 0.0
C619 C 0.29478 0.28596 0.50116 0.0
C620 C 0.30874 0.2715 0.47748 0.0
C621 C 0.30393 0.2889 0.5345 0.0
C622 C 0.3415 0.26283 0.51972 0.0
C623 C 0.34662 0.24462 0.46147 0.0
O624 O 0.41236 0.22544 0.40761 0.0
O625 O 0.40067 0.18968 0.43313 0.0
O626 O 0.36532 0.25709 0.44602 0.0
O627 O 0.35332 0.22125 0.47107 0.0
H628 H 0.36094 0.20908 0.38029 0.0
H629 H 0.3422 0.19164 0.32789 0.0
H630 H 0.41421 0.15269 0.30649 0.0
H631 H 0.43249 0.16983 0.35894 0.0
H632 H 0.51157 0.21513 0.49078 0.0
H633 H 0.46657 0.21896 0.47176 0.0
H634 H 0.48946 0.2439 0.58936 0.0
H635 H 0.44471 0.24708 0.57035 0.0
H636 H 0.33524 0.27934 0.56878 0.0
H637 H 0.2766 0.29451 0.49351 0.0
H638 H 0.30124 0.26938 0.45202 0.0
H639 H 0.35965 0.2541 0.52717 0.0
loop_
_geom_bond_atom_site_label_1
_geom_bond_atom_site_label_2
_geom_bond_distance
_geom_bond_site_symmetry_2
_ccdc_geom_bond_type
C0 C1 1.264 . S
C0 C5 1.479 . S
C0 C10 1.465 . S
C1 C0 1.264 . S
C1 C3 1.339 . S
C1 H28 0.931 . S
C2 C3 1.395 . S
C2 C4 1.320 . S
C3 C1 1.339 . S
C3 C2 1.395 . S
C3 H29 0.929 . S
C4 C2 1.320 . S
C4 C5 1.405 . S
C4 H30 0.930 . S
C5 C0 1.479 . S
C5 C4 1.405 . S
C5 H31 0.931 . S
U6 O7 2.454 . S
U6 O8 2.458 . S
U6 C9 2.984 . S
U6 C10 2.847 . S
U6 C23 2.882 . S
U6 O24 2.441 . S
U6 O25 2.420 . S
U6 O26 2.455 . S
U6 O27 2.449 . S
O7 U6 2.454 . S
O7 C9 1.353 . S
O8 U6 2.458 . S
O8 C9 1.286 . S
C9 U6 2.984 . S
C9 O7 1.353 . S
C9 O8 1.286 . S
C9 C11 1.363 . S
C10 C0 1.465 . S
C10 U6 2.847 . S
C10 O24 1.249 . S
C10 O25 1.202 . S
C11 C9 1.363 . S
C11 C13 1.408 . S
C11 C16 1.342 1_554 S
C12 C13 1.310 . S
C12 C15 1.461 1_554 S
C12 H32 0.932 . S
C13 C11 1.408 . S
C13 C12 1.310 . S
C13 H33 0.930 . S
C14 C15 1.474 . S
C14 C16 1.285 . S
C14 H34 0.929 . S
C15 C12 1.461 1_556 S
C15 C14 1.474 . S
C16 C11 1.342 1_556 S
C16 C14 1.285 . S
C16 H35 0.930 . S
C17 C20 1.424 . S
C17 C22 1.245 1_554 S
C17 C23 1.428 . S
C18 C21 1.260 . S
C18 C22 1.477 . S
C18 H36 0.932 . S
C19 C20 1.384 . S
C19 C21 1.479 1_554 S
C19 H37 0.929 . S
C20 C17 1.424 . S
C20 C19 1.384 . S
C20 H38 0.928 . S
C21 C18 1.260 . S
C21 C19 1.479 1_556 S
C22 C17 1.245 1_556 S
C22 C18 1.477 . S
C22 H39 0.932 . S
C23 U6 2.882 . S
C23 C17 1.428 . S
C23 O26 1.301 . S
C23 O27 1.282 . S
O24 U6 2.441 . S
O24 C10 1.249 . S
O25 U6 2.420 . S
O25 C10 1.202 . S
O26 U6 2.455 . S
O26 C23 1.301 . S
O27 U6 2.449 . S
O27 C23 1.282 . S
H28 C1 0.931 . S
H29 C3 0.929 . S
H30 C4 0.930 . S
H31 C5 0.931 . S
H32 C12 0.932 . S
H33 C13 0.930 . S
H34 C14 0.929 . S
H35 C16 0.930 . S
H36 C18 0.932 . S
H37 C19 0.929 . S
H38 C20 0.928 . S
H39 C22 0.932 . S
C40 C41 1.264 . S
C40 C45 1.479 . S
C40 C50 1.465 . S
C41 C40 1.264 . S
C41 C43 1.339 . S
C41 H68 0.931 . S
C42 C43 1.395 . S
C42 C44 1.320 . S
C43 C41 1.339 . S
C43 C42 1.395 . S
C43 H69 0.929 . S
C44 C42 1.320 . S
C44 C45 1.405 . S
C44 H70 0.930 . S
C45 C40 1.479 . S
C45 C44 1.405 . S
C45 H71 0.931 . S
U46 O47 2.454 . S
U46 O48 2.458 . S
U46 C49 2.984 . S
U46 C50 2.847 . S
U46 C63 2.882 . S
U46 O64 2.441 . S
U46 O65 2.420 . S
U46 O66 2.455 . S
U46 O67 2.449 . S
O47 U46 2.454 . S
O47 C49 1.353 . S
O48 U46 2.458 . S
O48 C49 1.286 . S
C49 U46 2.984 . S
C49 O47 1.353 . S
C49 O48 1.286 . S
C49 C51 1.363 . S
C50 C40 1.465 . S
C50 U46 2.847 . S
C50 O64 1.249 . S
C50 O65 1.202 . S
C51 C49 1.363 . S
C51 C53 1.408 . S
C51 C56 1.342 1_554 S
C52 C53 1.310 . S
C52 C55 1.461 1_554 S
C52 H72 0.932 . S
C53 C51 1.408 . S
C53 C52 1.310 . S
C53 H73 0.930 . S
C54 C55 1.474 . S
C54 C56 1.285 . S
C54 H74 0.929 . S
C55 C52 1.461 1_556 S
C55 C54 1.474 . S
C56 C51 1.342 1_556 S
C56 C54 1.285 . S
C56 H75 0.930 . S
C57 C60 1.424 . S
C57 C62 1.245 1_554 S
C57 C63 1.428 . S
C58 C61 1.260 . S
C58 C62 1.477 . S
C58 H76 0.932 . S
C59 C60 1.384 . S
C59 C61 1.479 1_554 S
C59 H77 0.929 . S
C60 C57 1.424 . S
C60 C59 1.384 . S
C60 H78 0.928 . S
C61 C58 1.260 . S
C61 C59 1.479 1_556 S
C62 C57 1.245 1_556 S
C62 C58 1.477 . S
C62 H79 0.932 . S
C63 U46 2.882 . S
C63 C57 1.428 . S
C63 O66 1.301 . S
C63 O67 1.282 . S
O64 U46 2.441 . S
O64 C50 1.249 . S
O65 U46 2.420 . S
O65 C50 1.202 . S
O66 U46 2.455 . S
O66 C63 1.301 . S
O67 U46 2.449 . S
O67 C63 1.282 . S
H68 C41 0.931 . S
H69 C43 0.929 . S
H70 C44 0.930 . S
H71 C45 0.931 . S
H72 C52 0.932 . S
H73 C53 0.930 . S
H74 C54 0.929 . S
H75 C56 0.930 . S
H76 C58 0.932 . S
H77 C59 0.929 . S
H78 C60 0.928 . S
H79 C62 0.932 . S
C80 C81 1.264 . S
C80 C85 1.479 . S
C80 C90 1.465 . S
C81 C80 1.264 . S
C81 C83 1.339 . S
C81 H108 0.931 . S
C82 C83 1.395 . S
C82 C84 1.320 . S
C83 C81 1.339 . S
C83 C82 1.395 . S
C83 H109 0.929 . S
C84 C82 1.320 . S
C84 C85 1.405 . S
C84 H110 0.930 . S
C85 C80 1.479 . S
C85 C84 1.405 . S
C85 H111 0.931 . S
U86 O87 2.454 . S
U86 O88 2.458 . S
U86 C89 2.984 . S
U86 C90 2.847 . S
U86 C103 2.882 . S
U86 O104 2.441 . S
U86 O105 2.420 . S
U86 O106 2.455 . S
U86 O107 2.449 . S
O87 U86 2.454 . S
O87 C89 1.353 . S
O88 U86 2.458 . S
O88 C89 1.286 . S
C89 U86 2.984 . S
C89 O87 1.353 . S
C89 O88 1.286 . S
C89 C91 1.363 . S
C90 C80 1.465 . S
C90 U86 2.847 . S
C90 O104 1.249 . S
C90 O105 1.202 . S
C91 C89 1.363 . S
C91 C93 1.408 . S
C91 C96 1.342 1_554 S
C92 C93 1.310 . S
C92 C95 1.461 1_554 S
C92 H112 0.932 . S
C93 C91 1.408 . S
C93 C92 1.310 . S
C93 H113 0.930 . S
C94 C95 1.474 . S
C94 C96 1.285 . S
C94 H114 0.929 . S
C95 C92 1.461 1_556 S
C95 C94 1.474 . S
C96 C91 1.342 1_556 S
C96 C94 1.285 . S
C96 H115 0.930 . S
C97 C100 1.424 . S
C97 C102 1.245 1_554 S
C97 C103 1.428 . S
C98 C101 1.260 . S
C98 C102 1.477 . S
C98 H116 0.932 . S
C99 C100 1.384 . S
C99 C101 1.479 1_554 S
C99 H117 0.929 . S
C100 C97 1.424 . S
C100 C99 1.384 . S
C100 H118 0.928 . S
C101 C98 1.260 . S
C101 C99 1.479 1_556 S
C102 C97 1.245 1_556 S
C102 C98 1.477 . S
C102 H119 0.932 . S
C103 U86 2.882 . S
C103 C97 1.428 . S
C103 O106 1.301 . S
C103 O107 1.282 . S
O104 U86 2.441 . S
O104 C90 1.249 . S
O105 U86 2.420 . S
O105 C90 1.202 . S
O106 U86 2.455 . S
O106 C103 1.301 . S
O107 U86 2.449 . S
O107 C103 1.282 . S
H108 C81 0.931 . S
H109 C83 0.929 . S
H110 C84 0.930 . S
H111 C85 0.931 . S
H112 C92 0.932 . S
H113 C93 0.930 . S
H114 C94 0.929 . S
H115 C96 0.930 . S
H116 C98 0.932 . S
H117 C99 0.929 . S
H118 C100 0.928 . S
H119 C102 0.932 . S
C120 C121 1.264 . S
C120 C125 1.479 . S
C120 C130 1.465 . S
C121 C120 1.264 . S
C121 C123 1.339 . S
C121 H148 0.931 . S
C122 C123 1.395 . S
C122 C124 1.320 . S
C123 C121 1.339 . S
C123 C122 1.395 . S
C123 H149 0.929 . S
C124 C122 1.320 . S
C124 C125 1.405 . S
C124 H150 0.930 . S
C125 C120 1.479 . S
C125 C124 1.405 . S
C125 H151 0.931 . S
U126 O127 2.454 . S
U126 O128 2.458 . S
U126 C129 2.984 . S
U126 C130 2.847 . S
U126 C143 2.882 . S
U126 O144 2.441 . S
U126 O145 2.420 . S
U126 O146 2.455 . S
U126 O147 2.449 . S
O127 U126 2.454 . S
O127 C129 1.353 . S
O128 U126 2.458 . S
O128 C129 1.286 . S
C129 U126 2.984 . S
C129 O127 1.353 . S
C129 O128 1.286 . S
C129 C131 1.363 . S
C130 C120 1.465 . S
C130 U126 2.847 . S
C130 O144 1.249 . S
C130 O145 1.202 . S
C131 C129 1.363 . S
C131 C133 1.408 . S
C131 C136 1.342 1_554 S
C132 C133 1.310 . S
C132 C135 1.461 1_554 S
C132 H152 0.932 . S
C133 C131 1.408 . S
C133 C132 1.310 . S
C133 H153 0.930 . S
C134 C135 1.474 . S
C134 C136 1.285 . S
C134 H154 0.929 . S
C135 C132 1.461 1_556 S
C135 C134 1.474 . S
C136 C131 1.342 1_556 S
C136 C134 1.285 . S
C136 H155 0.930 . S
C137 C140 1.424 . S
C137 C142 1.245 1_554 S
C137 C143 1.428 . S
C138 C141 1.260 . S
C138 C142 1.477 . S
C138 H156 0.932 . S
C139 C140 1.384 . S
C139 C141 1.479 1_554 S
C139 H157 0.929 . S
C140 C137 1.424 . S
C140 C139 1.384 . S
C140 H158 0.928 . S
C141 C138 1.260 . S
C141 C139 1.479 1_556 S
C142 C137 1.245 1_556 S
C142 C138 1.477 . S
C142 H159 0.932 . S
C143 U126 2.882 . S
C143 C137 1.428 . S
C143 O146 1.301 . S
C143 O147 1.282 . S
O144 U126 2.441 . S
O144 C130 1.249 . S
O145 U126 2.420 . S
O145 C130 1.202 . S
O146 U126 2.455 . S
O146 C143 1.301 . S
O147 U126 2.449 . S
O147 C143 1.282 . S
H148 C121 0.931 . S
H149 C123 0.929 . S
H150 C124 0.930 . S
H151 C125 0.931 . S
H152 C132 0.932 . S
H153 C133 0.930 . S
H154 C134 0.929 . S
H155 C136 0.930 . S
H156 C138 0.932 . S
H157 C139 0.929 . S
H158 C140 0.928 . S
H159 C142 0.932 . S
C160 C161 1.264 . S
C160 C165 1.479 . S
C160 C170 1.465 . S
C161 C160 1.264 . S
C161 C163 1.339 . S
C161 H188 0.931 . S
C162 C163 1.395 . S
C162 C164 1.320 . S
C163 C161 1.339 . S
C163 C162 1.395 . S
C163 H189 0.929 . S
C164 C162 1.320 . S
C164 C165 1.405 . S
C164 H190 0.930 . S
C165 C160 1.479 . S
C165 C164 1.405 . S
C165 H191 0.931 . S
U166 O167 2.454 . S
U166 O168 2.458 . S
U166 C169 2.984 . S
U166 C170 2.847 . S
U166 C183 2.882 . S
U166 O184 2.441 . S
U166 O185 2.420 . S
U166 O186 2.455 . S
U166 O187 2.449 . S
O167 U166 2.454 . S
O167 C169 1.353 . S
O168 U166 2.458 . S
O168 C169 1.286 . S
C169 U166 2.984 . S
C169 O167 1.353 . S
C169 O168 1.286 . S
C169 C171 1.363 . S
C170 C160 1.465 . S
C170 U166 2.847 . S
C170 O184 1.249 . S
C170 O185 1.202 . S
C171 C169 1.363 . S
C171 C173 1.408 . S
C171 C176 1.342 1_556 S
C172 C173 1.310 . S
C172 C175 1.461 1_556 S
C172 H192 0.932 . S
C173 C171 1.408 . S
C173 C172 1.310 . S
C173 H193 0.930 . S
C174 C175 1.474 . S
C174 C176 1.285 . S
C174 H194 0.929 . S
C175 C172 1.461 1_554 S
C175 C174 1.474 . S
C176 C171 1.342 1_554 S
C176 C174 1.285 . S
C176 H195 0.930 . S
C177 C180 1.424 . S
C177 C182 1.245 1_556 S
C177 C183 1.428 . S
C178 C181 1.260 . S
C178 C182 1.477 . S
C178 H196 0.932 . S
C179 C180 1.384 . S
C179 C181 1.479 1_556 S
C179 H197 0.929 . S
C180 C177 1.424 . S
C180 C179 1.384 . S
C180 H198 0.928 . S
C181 C178 1.260 . S
C181 C179 1.479 1_554 S
C182 C177 1.245 1_554 S
C182 C178 1.477 . S
C182 H199 0.932 . S
C183 U166 2.882 . S
C183 C177 1.428 . S
C183 O186 1.301 . S
C183 O187 1.282 . S
O184 U166 2.441 . S
O184 C170 1.249 . S
O185 U166 2.420 . S
O185 C170 1.202 . S
O186 U166 2.455 . S
O186 C183 1.301 . S
O187 U166 2.449 . S
O187 C183 1.282 . S
H188 C161 0.931 . S
H189 C163 0.929 . S
H190 C164 0.930 . S
H191 C165 0.931 . S
H192 C172 0.932 . S
H193 C173 0.930 . S
H194 C174 0.929 . S
H195 C176 0.930 . S
H196 C178 0.932 . S
H197 C179 0.929 . S
H198 C180 0.928 . S
H199 C182 0.932 . S
C200 C201 1.264 . S
C200 C205 1.479 . S
C200 C210 1.465 . S
C201 C200 1.264 . S
C201 C203 1.339 . S
C201 H228 0.931 . S
C202 C203 1.395 . S
C202 C204 1.320 . S
C203 C201 1.339 . S
C203 C202 1.395 . S
C203 H229 0.929 . S
C204 C202 1.320 . S
C204 C205 1.405 . S
C204 H230 0.930 . S
C205 C200 1.479 . S
C205 C204 1.405 . S
C205 H231 0.931 . S
U206 O207 2.454 . S
U206 O208 2.458 . S
U206 C209 2.984 . S
U206 C210 2.847 . S
U206 C223 2.882 . S
U206 O224 2.441 . S
U206 O225 2.420 . S
U206 O226 2.455 . S
U206 O227 2.449 . S
O207 U206 2.454 . S
O207 C209 1.353 . S
O208 U206 2.458 . S
O208 C209 1.286 . S
C209 U206 2.984 . S
C209 O207 1.353 . S
C209 O208 1.286 . S
C209 C211 1.363 . S
C210 C200 1.465 . S
C210 U206 2.847 . S
C210 O224 1.249 . S
C210 O225 1.202 . S
C211 C209 1.363 . S
C211 C213 1.408 . S
C211 C216 1.342 1_556 S
C212 C213 1.310 . S
C212 C215 1.461 1_556 S
C212 H232 0.932 . S
C213 C211 1.408 . S
C213 C212 1.310 . S
C213 H233 0.930 . S
C214 C215 1.474 . S
C214 C216 1.285 . S
C214 H234 0.929 . S
C215 C212 1.461 1_554 S
C215 C214 1.474 . S
C216 C211 1.342 1_554 S
C216 C214 1.285 . S
C216 H235 0.930 . S
C217 C220 1.424 . S
C217 C222 1.245 1_556 S
C217 C223 1.428 . S
C218 C221 1.260 . S
C218 C222 1.477 . S
C218 H236 0.932 . S
C219 C220 1.384 . S
C219 C221 1.479 1_556 S
C219 H237 0.929 . S
C220 C217 1.424 . S
C220 C219 1.384 . S
C220 H238 0.928 . S
C221 C218 1.260 . S
C221 C219 1.479 1_554 S
C222 C217 1.245 1_554 S
C222 C218 1.477 . S
C222 H239 0.932 . S
C223 U206 2.882 . S
C223 C217 1.428 . S
C223 O226 1.301 . S
C223 O227 1.282 . S
O224 U206 2.441 . S
O224 C210 1.249 . S
O225 U206 2.420 . S
O225 C210 1.202 . S
O226 U206 2.455 . S
O226 C223 1.301 . S
O227 U206 2.449 . S
O227 C223 1.282 . S
H228 C201 0.931 . S
H229 C203 0.929 . S
H230 C204 0.930 . S
H231 C205 0.931 . S
H232 C212 0.932 . S
H233 C213 0.930 . S
H234 C214 0.929 . S
H235 C216 0.930 . S
H236 C218 0.932 . S
H237 C219 0.929 . S
H238 C220 0.928 . S
H239 C222 0.932 . S
C240 C241 1.264 . S
C240 C245 1.479 . S
C240 C250 1.465 . S
C241 C240 1.264 . S
C241 C243 1.339 . S
C241 H268 0.931 . S
C242 C243 1.395 . S
C242 C244 1.320 . S
C243 C241 1.339 . S
C243 C242 1.395 . S
C243 H269 0.929 . S
C244 C242 1.320 . S
C244 C245 1.405 . S
C244 H270 0.930 . S
C245 C240 1.479 . S
C245 C244 1.405 . S
C245 H271 0.931 . S
U246 O247 2.454 . S
U246 O248 2.458 . S
U246 C249 2.984 . S
U246 C250 2.847 . S
U246 C263 2.882 . S
U246 O264 2.441 . S
U246 O265 2.420 . S
U246 O266 2.455 . S
U246 O267 2.449 . S
O247 U246 2.454 . S
O247 C249 1.353 . S
O248 U246 2.458 . S
O248 C249 1.286 . S
C249 U246 2.984 . S
C249 O247 1.353 . S
C249 O248 1.286 . S
C249 C251 1.363 . S
C250 C240 1.465 . S
C250 U246 2.847 . S
C250 O264 1.249 . S
C250 O265 1.202 . S
C251 C249 1.363 . S
C251 C253 1.408 . S
C251 C256 1.342 1_556 S
C252 C253 1.310 . S
C252 C255 1.461 1_556 S
C252 H272 0.932 . S
C253 C251 1.408 . S
C253 C252 1.310 . S
C253 H273 0.930 . S
C254 C255 1.474 . S
C254 C256 1.285 . S
C254 H274 0.929 . S
C255 C252 1.461 1_554 S
C255 C254 1.474 . S
C256 C251 1.342 1_554 S
C256 C254 1.285 . S
C256 H275 0.930 . S
C257 C260 1.424 . S
C257 C262 1.245 1_556 S
C257 C263 1.428 . S
C258 C261 1.260 . S
C258 C262 1.477 . S
C258 H276 0.932 . S
C259 C260 1.384 . S
C259 C261 1.479 1_556 S
C259 H277 0.929 . S
C260 C257 1.424 . S
C260 C259 1.384 . S
C260 H278 0.928 . S
C261 C258 1.260 . S
C261 C259 1.479 1_554 S
C262 C257 1.245 1_554 S
C262 C258 1.477 . S
C262 H279 0.932 . S
C263 U246 2.882 . S
C263 C257 1.428 . S
C263 O266 1.301 . S
C263 O267 1.282 . S
O264 U246 2.441 . S
O264 C250 1.249 . S
O265 U246 2.420 . S
O265 C250 1.202 . S
O266 U246 2.455 . S
O266 C263 1.301 . S
O267 U246 2.449 . S
O267 C263 1.282 . S
H268 C241 0.931 . S
H269 C243 0.929 . S
H270 C244 0.930 . S
H271 C245 0.931 . S
H272 C252 0.932 . S
H273 C253 0.930 . S
H274 C254 0.929 . S
H275 C256 0.930 . S
H276 C258 0.932 . S
H277 C259 0.929 . S
H278 C260 0.928 . S
H279 C262 0.932 . S
C280 C281 1.264 . S
C280 C285 1.479 . S
C280 C290 1.465 . S
C281 C280 1.264 . S
C281 C283 1.339 . S
C281 H308 0.931 . S
C282 C283 1.395 . S
C282 C284 1.320 . S
C283 C281 1.339 . S
C283 C282 1.395 . S
C283 H309 0.929 . S
C284 C282 1.320 . S
C284 C285 1.405 . S
C284 H310 0.930 . S
C285 C280 1.479 . S
C285 C284 1.405 . S
C285 H311 0.931 . S
U286 O287 2.454 . S
U286 O288 2.458 . S
U286 C289 2.984 . S
U286 C290 2.847 . S
U286 C303 2.882 . S
U286 O304 2.441 . S
U286 O305 2.420 . S
U286 O306 2.455 . S
U286 O307 2.449 . S
O287 U286 2.454 . S
O287 C289 1.353 . S
O288 U286 2.458 . S
O288 C289 1.286 . S
C289 U286 2.984 . S
C289 O287 1.353 . S
C289 O288 1.286 . S
C289 C291 1.363 . S
C290 C280 1.465 . S
C290 U286 2.847 . S
C290 O304 1.249 . S
C290 O305 1.202 . S
C291 C289 1.363 . S
C291 C293 1.408 . S
C291 C296 1.342 1_556 S
C292 C293 1.310 . S
C292 C295 1.461 1_556 S
C292 H312 0.932 . S
C293 C291 1.408 . S
C293 C292 1.310 . S
C293 H313 0.930 . S
C294 C295 1.474 . S
C294 C296 1.285 . S
C294 H314 0.929 . S
C295 C292 1.461 1_554 S
C295 C294 1.474 . S
C296 C291 1.342 1_554 S
C296 C294 1.285 . S
C296 H315 0.930 . S
C297 C300 1.424 . S
C297 C302 1.245 1_556 S
C297 C303 1.428 . S
C298 C301 1.260 . S
C298 C302 1.477 . S
C298 H316 0.932 . S
C299 C300 1.384 . S
C299 C301 1.479 1_556 S
C299 H317 0.929 . S
C300 C297 1.424 . S
C300 C299 1.384 . S
C300 H318 0.928 . S
C301 C298 1.260 . S
C301 C299 1.479 1_554 S
C302 C297 1.245 1_554 S
C302 C298 1.477 . S
C302 H319 0.932 . S
C303 U286 2.882 . S
C303 C297 1.428 . S
C303 O306 1.301 . S
C303 O307 1.282 . S
O304 U286 2.441 . S
O304 C290 1.249 . S
O305 U286 2.420 . S
O305 C290 1.202 . S
O306 U286 2.455 . S
O306 C303 1.301 . S
O307 U286 2.449 . S
O307 C303 1.282 . S
H308 C281 0.931 . S
H309 C283 0.929 . S
H310 C284 0.930 . S
H311 C285 0.931 . S
H312 C292 0.932 . S
H313 C293 0.930 . S
H314 C294 0.929 . S
H315 C296 0.930 . S
H316 C298 0.932 . S
H317 C299 0.929 . S
H318 C300 0.928 . S
H319 C302 0.932 . S
C320 C321 1.264 . S
C320 C325 1.479 . S
C320 C330 1.465 . S
C321 C320 1.264 . S
C321 C323 1.339 . S
C321 H348 0.931 . S
C322 C323 1.395 . S
C322 C324 1.320 . S
C323 C321 1.339 . S
C323 C322 1.395 . S
C323 H349 0.929 . S
C324 C322 1.320 . S
C324 C325 1.405 . S
C324 H350 0.930 . S
C325 C320 1.479 . S
C325 C324 1.405 . S
C325 H351 0.931 . S
U326 O327 2.454 . S
U326 O328 2.458 . S
U326 C329 2.984 . S
U326 C330 2.847 . S
U326 C343 2.882 . S
U326 O344 2.441 . S
U326 O345 2.420 . S
U326 O346 2.455 . S
U326 O347 2.449 . S
O327 U326 2.454 . S
O327 C329 1.353 . S
O328 U326 2.458 . S
O328 C329 1.286 . S
C329 U326 2.984 . S
C329 O327 1.353 . S
C329 O328 1.286 . S
C329 C331 1.363 . S
C330 C320 1.465 . S
C330 U326 2.847 . S
C330 O344 1.249 . S
C330 O345 1.202 . S
C331 C329 1.363 . S
C331 C333 1.408 . S
C331 C336 1.342 . S
C332 C333 1.310 . S
C332 C335 1.461 . S
C332 H352 0.932 . S
C333 C331 1.408 . S
C333 C332 1.310 . S
C333 H353 0.930 . S
C334 C335 1.474 . S
C334 C336 1.285 . S
C334 H354 0.929 . S
C335 C332 1.461 . S
C335 C334 1.474 . S
C336 C331 1.342 . S
C336 C334 1.285 . S
C336 H355 0.930 . S
C337 C340 1.424 . S
C337 C342 1.245 . S
C337 C343 1.428 . S
C338 C341 1.260 . S
C338 C342 1.477 . S
C338 H356 0.932 . S
C339 C340 1.384 . S
C339 C341 1.479 . S
C339 H357 0.929 . S
C340 C337 1.424 . S
C340 C339 1.384 . S
C340 H358 0.928 . S
C341 C338 1.260 . S
C341 C339 1.479 . S
C342 C337 1.245 . S
C342 C338 1.477 . S
C342 H359 0.932 . S
C343 U326 2.882 . S
C343 C337 1.428 . S
C343 O346 1.301 . S
C343 O347 1.282 . S
O344 U326 2.441 . S
O344 C330 1.249 . S
O345 U326 2.420 . S
O345 C330 1.202 . S
O346 U326 2.455 . S
O346 C343 1.301 . S
O347 U326 2.449 . S
O347 C343 1.282 . S
H348 C321 0.931 . S
H349 C323 0.929 . S
H350 C324 0.930 . S
H351 C325 0.931 . S
H352 C332 0.932 . S
H353 C333 0.930 . S
H354 C334 0.929 . S
H355 C336 0.930 . S
H356 C338 0.932 . S
H357 C339 0.929 . S
H358 C340 0.928 . S
H359 C342 0.932 . S
C360 C361 1.264 . S
C360 C365 1.479 . S
C360 C370 1.465 . S
C361 C360 1.264 . S
C361 C363 1.339 . S
C361 H388 0.931 . S
C362 C363 1.395 . S
C362 C364 1.320 . S
C363 C361 1.339 . S
C363 C362 1.395 . S
C363 H389 0.929 . S
C364 C362 1.320 . S
C364 C365 1.405 . S
C364 H390 0.930 . S
C365 C360 1.479 . S
C365 C364 1.405 . S
C365 H391 0.931 . S
U366 O367 2.454 . S
U366 O368 2.458 . S
U366 C369 2.984 . S
U366 C370 2.847 . S
U366 C383 2.882 . S
U366 O384 2.441 . S
U366 O385 2.420 . S
U366 O386 2.455 . S
U366 O387 2.449 . S
O367 U366 2.454 . S
O367 C369 1.353 . S
O368 U366 2.458 . S
O368 C369 1.286 . S
C369 U366 2.984 . S
C369 O367 1.353 . S
C369 O368 1.286 . S
C369 C371 1.363 . S
C370 C360 1.465 . S
C370 U366 2.847 . S
C370 O384 1.249 . S
C370 O385 1.202 . S
C371 C369 1.363 . S
C371 C373 1.408 . S
C371 C376 1.342 . S
C372 C373 1.310 . S
C372 C375 1.461 . S
C372 H392 0.932 . S
C373 C371 1.408 . S
C373 C372 1.310 . S
C373 H393 0.930 . S
C374 C375 1.474 . S
C374 C376 1.285 . S
C374 H394 0.929 . S
C375 C372 1.461 . S
C375 C374 1.474 . S
C376 C371 1.342 . S
C376 C374 1.285 . S
C376 H395 0.930 . S
C377 C380 1.424 . S
C377 C382 1.245 . S
C377 C383 1.428 . S
C378 C381 1.260 . S
C378 C382 1.477 . S
C378 H396 0.932 . S
C379 C380 1.384 . S
C379 C381 1.479 . S
C379 H397 0.929 . S
C380 C377 1.424 . S
C380 C379 1.384 . S
C380 H398 0.928 . S
C381 C378 1.260 . S
C381 C379 1.479 . S
C382 C377 1.245 . S
C382 C378 1.477 . S
C382 H399 0.932 . S
C383 U366 2.882 . S
C383 C377 1.428 . S
C383 O386 1.301 . S
C383 O387 1.282 . S
O384 U366 2.441 . S
O384 C370 1.249 . S
O385 U366 2.420 . S
O385 C370 1.202 . S
O386 U366 2.455 . S
O386 C383 1.301 . S
O387 U366 2.449 . S
O387 C383 1.282 . S
H388 C361 0.931 . S
H389 C363 0.929 . S
H390 C364 0.930 . S
H391 C365 0.931 . S
H392 C372 0.932 . S
H393 C373 0.930 . S
H394 C374 0.929 . S
H395 C376 0.930 . S
H396 C378 0.932 . S
H397 C379 0.929 . S
H398 C380 0.928 . S
H399 C382 0.932 . S
C400 C401 1.264 . S
C400 C405 1.479 . S
C400 C410 1.465 . S
C401 C400 1.264 . S
C401 C403 1.339 . S
C401 H428 0.931 . S
C402 C403 1.395 . S
C402 C404 1.320 . S
C403 C401 1.339 . S
C403 C402 1.395 . S
C403 H429 0.929 . S
C404 C402 1.320 . S
C404 C405 1.405 . S
C404 H430 0.930 . S
C405 C400 1.479 . S
C405 C404 1.405 . S
C405 H431 0.931 . S
U406 O407 2.454 . S
U406 O408 2.458 . S
U406 C409 2.984 . S
U406 C410 2.847 . S
U406 C423 2.882 . S
U406 O424 2.441 . S
U406 O425 2.420 . S
U406 O426 2.455 . S
U406 O427 2.449 . S
O407 U406 2.454 . S
O407 C409 1.353 . S
O408 U406 2.458 . S
O408 C409 1.286 . S
C409 U406 2.984 . S
C409 O407 1.353 . S
C409 O408 1.286 . S
C409 C411 1.363 . S
C410 C400 1.465 . S
C410 U406 2.847 . S
C410 O424 1.249 . S
C410 O425 1.202 . S
C411 C409 1.363 . S
C411 C413 1.408 . S
C411 C416 1.342 . S
C412 C413 1.310 . S
C412 C415 1.461 . S
C412 H432 0.932 . S
C413 C411 1.408 . S
C413 C412 1.310 . S
C413 H433 0.930 . S
C414 C415 1.474 . S
C414 C416 1.285 . S
C414 H434 0.929 . S
C415 C412 1.461 . S
C415 C414 1.474 . S
C416 C411 1.342 . S
C416 C414 1.285 . S
C416 H435 0.930 . S
C417 C420 1.424 . S
C417 C422 1.245 . S
C417 C423 1.428 . S
C418 C421 1.260 . S
C418 C422 1.477 . S
C418 H436 0.932 . S
C419 C420 1.384 . S
C419 C421 1.479 . S
C419 H437 0.929 . S
C420 C417 1.424 . S
C420 C419 1.384 . S
C420 H438 0.928 . S
C421 C418 1.260 . S
C421 C419 1.479 . S
C422 C417 1.245 . S
C422 C418 1.477 . S
C422 H439 0.932 . S
C423 U406 2.882 . S
C423 C417 1.428 . S
C423 O426 1.301 . S
C423 O427 1.282 . S
O424 U406 2.441 . S
O424 C410 1.249 . S
O425 U406 2.420 . S
O425 C410 1.202 . S
O426 U406 2.455 . S
O426 C423 1.301 . S
O427 U406 2.449 . S
O427 C423 1.282 . S
H428 C401 0.931 . S
H429 C403 0.929 . S
H430 C404 0.930 . S
H431 C405 0.931 . S
H432 C412 0.932 . S
H433 C413 0.930 . S
H434 C414 0.929 . S
H435 C416 0.930 . S
H436 C418 0.932 . S
H437 C419 0.929 . S
H438 C420 0.928 . S
H439 C422 0.932 . S
C440 C441 1.264 . S
C440 C445 1.479 . S
C440 C450 1.465 . S
C441 C440 1.264 . S
C441 C443 1.339 . S
C441 H468 0.931 . S
C442 C443 1.395 . S
C442 C444 1.320 . S
C443 C441 1.339 . S
C443 C442 1.395 . S
C443 H469 0.929 . S
C444 C442 1.320 . S
C444 C445 1.405 . S
C444 H470 0.930 . S
C445 C440 1.479 . S
C445 C444 1.405 . S
C445 H471 0.931 . S
U446 O447 2.454 . S
U446 O448 2.458 . S
U446 C449 2.984 . S
U446 C450 2.847 . S
U446 C463 2.882 . S
U446 O464 2.441 . S
U446 O465 2.420 . S
U446 O466 2.455 . S
U446 O467 2.449 . S
O447 U446 2.454 . S
O447 C449 1.353 . S
O448 U446 2.458 . S
O448 C449 1.286 . S
C449 U446 2.984 . S
C449 O447 1.353 . S
C449 O448 1.286 . S
C449 C451 1.363 . S
C450 C440 1.465 . S
C450 U446 2.847 . S
C450 O464 1.249 . S
C450 O465 1.202 . S
C451 C449 1.363 . S
C451 C453 1.408 . S
C451 C456 1.342 . S
C452 C453 1.310 . S
C452 C455 1.461 . S
C452 H472 0.932 . S
C453 C451 1.408 . S
C453 C452 1.310 . S
C453 H473 0.930 . S
C454 C455 1.474 . S
C454 C456 1.285 . S
C454 H474 0.929 . S
C455 C452 1.461 . S
C455 C454 1.474 . S
C456 C451 1.342 . S
C456 C454 1.285 . S
C456 H475 0.930 . S
C457 C460 1.424 . S
C457 C462 1.245 . S
C457 C463 1.428 . S
C458 C461 1.260 . S
C458 C462 1.477 . S
C458 H476 0.932 . S
C459 C460 1.384 . S
C459 C461 1.479 . S
C459 H477 0.929 . S
C460 C457 1.424 . S
C460 C459 1.384 . S
C460 H478 0.928 . S
C461 C458 1.260 . S
C461 C459 1.479 . S
C462 C457 1.245 . S
C462 C458 1.477 . S
C462 H479 0.932 . S
C463 U446 2.882 . S
C463 C457 1.428 . S
C463 O466 1.301 . S
C463 O467 1.282 . S
O464 U446 2.441 . S
O464 C450 1.249 . S
O465 U446 2.420 . S
O465 C450 1.202 . S
O466 U446 2.455 . S
O466 C463 1.301 . S
O467 U446 2.449 . S
O467 C463 1.282 . S
H468 C441 0.931 . S
H469 C443 0.929 . S
H470 C444 0.930 . S
H471 C445 0.931 . S
H472 C452 0.932 . S
H473 C453 0.930 . S
H474 C454 0.929 . S
H475 C456 0.930 . S
H476 C458 0.932 . S
H477 C459 0.929 . S
H478 C460 0.928 . S
H479 C462 0.932 . S
C480 C481 1.264 . S
C480 C485 1.479 . S
C480 C490 1.465 . S
C481 C480 1.264 . S
C481 C483 1.339 . S
C481 H508 0.931 . S
C482 C483 1.395 . S
C482 C484 1.320 . S
C483 C481 1.339 . S
C483 C482 1.395 . S
C483 H509 0.929 . S
C484 C482 1.320 . S
C484 C485 1.405 . S
C484 H510 0.930 . S
C485 C480 1.479 . S
C485 C484 1.405 . S
C485 H511 0.931 . S
U486 O487 2.454 . S
U486 O488 2.458 . S
U486 C489 2.984 . S
U486 C490 2.847 . S
U486 C503 2.882 . S
U486 O504 2.441 . S
U486 O505 2.420 . S
U486 O506 2.455 . S
U486 O507 2.449 . S
O487 U486 2.454 . S
O487 C489 1.353 . S
O488 U486 2.458 . S
O488 C489 1.286 . S
C489 U486 2.984 . S
C489 O487 1.353 . S
C489 O488 1.286 . S
C489 C491 1.363 . S
C490 C480 1.465 . S
C490 U486 2.847 . S
C490 O504 1.249 . S
C490 O505 1.202 . S
C491 C489 1.363 . S
C491 C493 1.408 . S
C491 C496 1.342 . S
C492 C493 1.310 . S
C492 C495 1.461 . S
C492 H512 0.932 . S
C493 C491 1.408 . S
C493 C492 1.310 . S
C493 H513 0.930 . S
C494 C495 1.474 . S
C494 C496 1.285 . S
C494 H514 0.929 . S
C495 C492 1.461 . S
C495 C494 1.474 . S
C496 C491 1.342 . S
C496 C494 1.285 . S
C496 H515 0.930 . S
C497 C500 1.424 . S
C497 C502 1.245 . S
C497 C503 1.428 . S
C498 C501 1.260 . S
C498 C502 1.477 . S
C498 H516 0.932 . S
C499 C500 1.384 . S
C499 C501 1.479 . S
C499 H517 0.929 . S
C500 C497 1.424 . S
C500 C499 1.384 . S
C500 H518 0.928 . S
C501 C498 1.260 . S
C501 C499 1.479 . S
C502 C497 1.245 . S
C502 C498 1.477 . S
C502 H519 0.932 . S
C503 U486 2.882 . S
C503 C497 1.428 . S
C503 O506 1.301 . S
C503 O507 1.282 . S
O504 U486 2.441 . S
O504 C490 1.249 . S
O505 U486 2.420 . S
O505 C490 1.202 . S
O506 U486 2.455 . S
O506 C503 1.301 . S
O507 U486 2.449 . S
O507 C503 1.282 . S
H508 C481 0.931 . S
H509 C483 0.929 . S
H510 C484 0.930 . S
H511 C485 0.931 . S
H512 C492 0.932 . S
H513 C493 0.930 . S
H514 C494 0.929 . S
H515 C496 0.930 . S
H516 C498 0.932 . S
H517 C499 0.929 . S
H518 C500 0.928 . S
H519 C502 0.932 . S
C520 C521 1.264 . S
C520 C525 1.479 . S
C520 C530 1.465 . S
C521 C520 1.264 . S
C521 C523 1.339 . S
C521 H548 0.931 . S
C522 C523 1.395 . S
C522 C524 1.320 . S
C523 C521 1.339 . S
C523 C522 1.395 . S
C523 H549 0.929 . S
C524 C522 1.320 . S
C524 C525 1.405 . S
C524 H550 0.930 . S
C525 C520 1.479 . S
C525 C524 1.405 . S
C525 H551 0.931 . S
U526 O527 2.454 . S
U526 O528 2.458 . S
U526 C529 2.984 . S
U526 C530 2.847 . S
U526 C543 2.882 . S
U526 O544 2.441 . S
U526 O545 2.420 . S
U526 O546 2.455 . S
U526 O547 2.449 . S
O527 U526 2.454 . S
O527 C529 1.353 . S
O528 U526 2.458 . S
O528 C529 1.286 . S
C529 U526 2.984 . S
C529 O527 1.353 . S
C529 O528 1.286 . S
C529 C531 1.363 . S
C530 C520 1.465 . S
C530 U526 2.847 . S
C530 O544 1.249 . S
C530 O545 1.202 . S
C531 C529 1.363 . S
C531 C533 1.408 . S
C531 C536 1.342 . S
C532 C533 1.310 . S
C532 C535 1.461 . S
C532 H552 0.932 . S
C533 C531 1.408 . S
C533 C532 1.310 . S
C533 H553 0.930 . S
C534 C535 1.474 . S
C534 C536 1.285 . S
C534 H554 0.929 . S
C535 C532 1.461 . S
C535 C534 1.474 . S
C536 C531 1.342 . S
C536 C534 1.285 . S
C536 H555 0.930 . S
C537 C540 1.424 . S
C537 C542 1.245 . S
C537 C543 1.428 . S
C538 C541 1.260 . S
C538 C542 1.477 . S
C538 H556 0.932 . S
C539 C540 1.384 . S
C539 C541 1.479 . S
C539 H557 0.929 . S
C540 C537 1.424 . S
C540 C539 1.384 . S
C540 H558 0.928 . S
C541 C538 1.260 . S
C541 C539 1.479 . S
C542 C537 1.245 . S
C542 C538 1.477 . S
C542 H559 0.932 . S
C543 U526 2.882 . S
C543 C537 1.428 . S
C543 O546 1.301 . S
C543 O547 1.282 . S
O544 U526 2.441 . S
O544 C530 1.249 . S
O545 U526 2.420 . S
O545 C530 1.202 . S
O546 U526 2.455 . S
O546 C543 1.301 . S
O547 U526 2.449 . S
O547 C543 1.282 . S
H548 C521 0.931 . S
H549 C523 0.929 . S
H550 C524 0.930 . S
H551 C525 0.931 . S
H552 C532 0.932 . S
H553 C533 0.930 . S
H554 C534 0.929 . S
H555 C536 0.930 . S
H556 C538 0.932 . S
H557 C539 0.929 . S
H558 C540 0.928 . S
H559 C542 0.932 . S
C560 C561 1.264 . S
C560 C565 1.479 . S
C560 C570 1.465 . S
C561 C560 1.264 . S
C561 C563 1.339 . S
C561 H588 0.931 . S
C562 C563 1.395 . S
C562 C564 1.320 . S
C563 C561 1.339 . S
C563 C562 1.395 . S
C563 H589 0.929 . S
C564 C562 1.320 . S
C564 C565 1.405 . S
C564 H590 0.930 . S
C565 C560 1.479 . S
C565 C564 1.405 . S
C565 H591 0.931 . S
U566 O567 2.454 . S
U566 O568 2.458 . S
U566 C569 2.984 . S
U566 C570 2.847 . S
U566 C583 2.882 . S
U566 O584 2.441 . S
U566 O585 2.420 . S
U566 O586 2.455 . S
U566 O587 2.449 . S
O567 U566 2.454 . S
O567 C569 1.353 . S
O568 U566 2.458 . S
O568 C569 1.286 . S
C569 U566 2.984 . S
C569 O567 1.353 . S
C569 O568 1.286 . S
C569 C571 1.363 . S
C570 C560 1.465 . S
C570 U566 2.847 . S
C570 O584 1.249 . S
C570 O585 1.202 . S
C571 C569 1.363 . S
C571 C573 1.408 . S
C571 C576 1.342 . S
C572 C573 1.310 . S
C572 C575 1.461 . S
C572 H592 0.932 . S
C573 C571 1.408 . S
C573 C572 1.310 . S
C573 H593 0.930 . S
C574 C575 1.474 . S
C574 C576 1.285 . S
C574 H594 0.929 . S
C575 C572 1.461 . S
C575 C574 1.474 . S
C576 C571 1.342 . S
C576 C574 1.285 . S
C576 H595 0.930 . S
C577 C580 1.424 . S
C577 C582 1.245 . S
C577 C583 1.428 . S
C578 C581 1.260 . S
C578 C582 1.477 . S
C578 H596 0.932 . S
C579 C580 1.384 . S
C579 C581 1.479 . S
C579 H597 0.929 . S
C580 C577 1.424 . S
C580 C579 1.384 . S
C580 H598 0.928 . S
C581 C578 1.260 . S
C581 C579 1.479 . S
C582 C577 1.245 . S
C582 C578 1.477 . S
C582 H599 0.932 . S
C583 U566 2.882 . S
C583 C577 1.428 . S
C583 O586 1.301 . S
C583 O587 1.282 . S
O584 U566 2.441 . S
O584 C570 1.249 . S
O585 U566 2.420 . S
O585 C570 1.202 . S
O586 U566 2.455 . S
O586 C583 1.301 . S
O587 U566 2.449 . S
O587 C583 1.282 . S
H588 C561 0.931 . S
H589 C563 0.929 . S
H590 C564 0.930 . S
H591 C565 0.931 . S
H592 C572 0.932 . S
H593 C573 0.930 . S
H594 C574 0.929 . S
H595 C576 0.930 . S
H596 C578 0.932 . S
H597 C579 0.929 . S
H598 C580 0.928 . S
H599 C582 0.932 . S
C600 C601 1.264 . S
C600 C605 1.479 . S
C600 C610 1.465 . S
C601 C600 1.264 . S
C601 C603 1.339 . S
C601 H628 0.931 . S
C602 C603 1.395 . S
C602 C604 1.320 . S
C603 C601 1.339 . S
C603 C602 1.395 . S
C603 H629 0.929 . S
C604 C602 1.320 . S
C604 C605 1.405 . S
C604 H630 0.930 . S
C605 C600 1.479 . S
C605 C604 1.405 . S
C605 H631 0.931 . S
U606 O607 2.454 . S
U606 O608 2.458 . S
U606 C609 2.984 . S
U606 C610 2.847 . S
U606 C623 2.882 . S
U606 O624 2.441 . S
U606 O625 2.420 . S
U606 O626 2.455 . S
U606 O627 2.449 . S
O607 U606 2.454 . S
O607 C609 1.353 . S
O608 U606 2.458 . S
O608 C609 1.286 . S
C609 U606 2.984 . S
C609 O607 1.353 . S
C609 O608 1.286 . S
C609 C611 1.363 . S
C610 C600 1.465 . S
C610 U606 2.847 . S
C610 O624 1.249 . S
C610 O625 1.202 . S
C611 C609 1.363 . S
C611 C613 1.408 . S
C611 C616 1.342 . S
C612 C613 1.310 . S
C612 C615 1.461 . S
C612 H632 0.932 . S
C613 C611 1.408 . S
C613 C612 1.310 . S
C613 H633 0.930 . S
C614 C615 1.474 . S
C614 C616 1.285 . S
C614 H634 0.929 . S
C615 C612 1.461 . S
C615 C614 1.474 . S
C616 C611 1.342 . S
C616 C614 1.285 . S
C616 H635 0.930 . S
C617 C620 1.424 . S
C617 C622 1.245 . S
C617 C623 1.428 . S
C618 C621 1.260 . S
C618 C622 1.477 . S
C618 H636 0.932 . S
C619 C620 1.384 . S
C619 C621 1.479 . S
C619 H637 0.929 . S
C620 C617 1.424 . S
C620 C619 1.384 . S
C620 H638 0.928 . S
C621 C618 1.260 . S
C621 C619 1.479 . S
C622 C617 1.245 . S
C622 C618 1.477 . S
C622 H639 0.932 . S
C623 U606 2.882 . S
C623 C617 1.428 . S
C623 O626 1.301 . S
C623 O627 1.282 . S
O624 U606 2.441 . S
O624 C610 1.249 . S
O625 U606 2.420 . S
O625 C610 1.202 . S
O626 U606 2.455 . S
O626 C623 1.301 . S
O627 U606 2.449 . S
O627 C623 1.282 . S
H628 C601 0.931 . S
H629 C603 0.929 . S
H630 C604 0.930 . S
H631 C605 0.931 . S
H632 C612 0.932 . S
H633 C613 0.930 . S
H634 C614 0.929 . S
H635 C616 0.930 . S
H636 C618 0.932 . S
H637 C619 0.929 . S
H638 C620 0.928 . S
H639 C622 0.932 . S
C175 C15 2.138 1_564 S
C55 C215 2.138 1_656 S
C255 C95 2.138 1_544 S
C135 C295 2.138 1_456 S
C335 C495 2.138 . S
C535 C375 2.138 . S
C575 C415 2.138 . S
C455 C615 2.138 . S
C21 C221 2.398 1_556 S
C261 C61 2.398 1_554 S
C101 C301 2.398 1_556 S
C141 C181 2.398 1_556 S
C341 C541 2.398 . S
C581 C381 2.398 . S
C421 C621 2.398 . S
C501 C461 2.398 . S
C602 C2 3.140 . S
C482 C42 3.140 . S
C82 C522 3.140 . S
C562 C122 3.140 . S
C162 C362 3.140 . S
C402 C202 3.140 . S
C442 C242 3.140 . S
C322 C282 3.140 . S
