# Generated by pormake.
# Topology uni, (4)-cn, num edge types: 1
# Building blocks:
#     Node 0, Type 0, BuildingBlock: ICAMEG_clean_sbu_1, # of connection points: 4
#     Node 1, Type 0, BuildingBlock: ICAMEG_clean_sbu_1, # of connection points: 4
#     Node 2, Type 0, BuildingBlock: ICAMEG_clean_sbu_1, # of connection points: 4
#     Node 3, Type 0, BuildingBlock: ICAMEG_clean_sbu_1, # of connection points: 4
#     Node 4, Type 0, BuildingBlock: ICAMEG_clean_sbu_1, # of connection points: 4
#     Node 5, Type 0, BuildingBlock: ICAMEG_clean_sbu_1, # of connection points: 4
#     Edge 6, Type (0, 0), BuildingBlock: OJICUG_clean_linker_0, # of connection points: 2
#     Edge 7, Type (0, 0), BuildingBlock: OJICUG_clean_linker_0, # of connection points: 2
#     Edge 8, Type (0, 0), BuildingBlock: OJICUG_clean_linker_0, # of connection points: 2
#     Edge 9, Type (0, 0), BuildingBlock: OJICUG_clean_linker_0, # of connection points: 2
#     Edge 10, Type (0, 0), BuildingBlock: OJICUG_clean_linker_0, # of connection points: 2
#     Edge 11, Type (0, 0), BuildingBlock: OJICUG_clean_linker_0, # of connection points: 2
#     Edge 12, Type (0, 0), BuildingBlock: OJICUG_clean_linker_0, # of connection points: 2
#     Edge 13, Type (0, 0), BuildingBlock: OJICUG_clean_linker_0, # of connection points: 2
#     Edge 14, Type (0, 0), BuildingBlock: OJICUG_clean_linker_0, # of connection points: 2
#     Edge 15, Type (0, 0), BuildingBlock: OJICUG_clean_linker_0, # of connection points: 2
#     Edge 16, Type (0, 0), BuildingBlock: OJICUG_clean_linker_0, # of connection points: 2
#     Edge 17, Type (0, 0), BuildingBlock: OJICUG_clean_linker_0, # of connection points: 2
# Relax obj value: 0.140
# Max RMSD: 0.183
# Mean RMSD: 0.183
data_MOF--net-uni--node1-ICAMEG_clean_sbu_1--edge1-OJICUG_clean_linker_0
_symmetry_space_group_name_H-M    P1
_symmetry_Int_Tables_number       1
_symmetry_cell_setting            triclinic
loop_
_symmetry_equiv_pos_as_xyz
'x, y, z'
_cell_length_a     30.19535
_cell_length_b     29.933587
_cell_length_c     17.999705
_cell_angle_alpha  90.04058
_cell_angle_beta   90.14628
_cell_angle_gamma 120.03405
loop_
_atom_site_label
_atom_site_type_symbol
_atom_site_fract_x
_atom_site_fract_y
_atom_site_fract_z
_atom_type_partial_charge
Co0 Co 0.63781 0.02002 0.04329 0.0
Co1 Co 0.7315 0.10958 0.15863 0.0
O2 O 0.69628 0.08943 0.06171 0.0
C3 C 0.61576 0.09136 0.94791 0.0
O4 O 0.66038 0.13215 0.96183 0.0
C5 C 0.82106 0.14947 0.05501 0.0
O6 O 0.79998 0.10554 1.01852 0.0
O7 O 0.74494 0.05084 0.15383 0.0
O8 O 0.67129 0.98859 0.10336 0.0
H9 H 0.77158 0.07813 0.41812 0.0
H10 H 0.70692 0.09155 0.92319 0.0
O11 O 0.60209 0.04821 0.97962 0.0
H12 H 0.69139 0.92302 0.87105 0.0
H13 H 0.49452 0.87902 0.89335 0.0
H14 H 0.57899 0.92829 0.13853 0.0
H15 H 0.64822 0.9341 0.97905 0.0
H16 H 0.57011 0.96501 0.913 0.0
O17 O 0.79797 0.15606 0.10909 0.0
H18 H 0.72696 0.05389 0.29729 0.0
H19 H 0.81171 0.20933 0.22458 0.0
H20 H 0.50397 0.84153 0.12088 0.0
H21 H 0.74987 0.08195 0.81449 0.0
H22 H 0.46115 0.81645 0.99761 0.0
H23 H 0.7424 0.99712 0.78724 0.0
O24 O 0.60182 0.02595 0.13349 0.0
H25 H 0.7258 0.26248 0.05514 0.0
H26 H 0.6899 0.15077 0.27399 0.0
H27 H 0.67051 0.22146 0.27842 0.0
H28 H 0.68863 0.27808 0.16844 0.0
H29 H 0.7439 0.19076 0.05289 0.0
H30 H 0.85751 0.23528 0.3444 0.0
H31 H 0.83744 0.16947 0.44232 0.0
O32 O 0.66698 0.06522 0.21338 0.0
C33 C 0.71443 1.00398 0.13521 0.0
C34 C 0.7808 0.10715 0.37583 0.0
C35 C 0.82904 0.19532 0.33444 0.0
N36 N 0.76701 0.12996 0.25355 0.0
C37 C 0.75572 0.09359 0.30721 0.0
C38 C 0.80317 0.18032 0.26649 0.0
C39 C 0.81773 0.15839 0.38937 0.0
C40 C 0.70163 0.05409 0.91123 0.0
N41 N 0.67244 0.01291 0.95621 0.0
C42 C 0.72691 0.04905 0.8497 0.0
C43 C 0.72289 1.00155 0.8346 0.0
C44 C 0.69424 0.95998 0.88149 0.0
C45 C 0.66954 0.96652 0.9425 0.0
C46 C 0.51289 0.88947 0.94731 0.0
C47 C 0.56086 0.91751 0.08454 0.0
C48 C 0.55558 0.93824 0.95892 0.0
N49 N 0.57922 0.95162 0.02682 0.0
C50 C 0.51826 0.8684 0.07496 0.0
C51 C 0.49421 0.85437 1.00581 0.0
C52 C 0.61934 0.03991 0.19931 0.0
C53 C 0.71763 0.23802 0.10337 0.0
C54 C 0.69727 0.17471 0.22562 0.0
C55 C 0.68652 0.21495 0.2286 0.0
C56 C 0.69675 0.24673 0.16693 0.0
N57 N 0.71757 0.16625 0.163 0.0
C58 C 0.72784 0.19738 0.10244 0.0
Co59 Co 0.66836 0.64098 0.21636 0.0
Co60 Co 0.67734 0.73777 0.32916 0.0
O61 O 0.65933 0.70093 0.23313 0.0
C62 C 0.57543 0.619 0.1211 0.0
O63 O 0.57945 0.66391 0.13511 0.0
C64 C 0.72355 0.82457 0.21976 0.0
O65 O 0.73933 0.79907 0.17867 0.0
O66 O 0.74838 0.75033 0.32077 0.0
O67 O 0.73212 0.67312 0.27825 0.0
H68 H 0.75706 0.78118 0.58357 0.0
H69 H 0.66575 0.70657 0.09082 0.0
O70 O 0.60513 0.60564 0.15195 0.0
H71 H 0.82079 0.69518 0.05008 0.0
H72 H 0.66446 0.49596 0.0682 0.0
H73 H 0.69724 0.5798 0.31397 0.0
H74 H 0.76546 0.65236 0.15732 0.0
H75 H 0.65599 0.57294 0.08663 0.0
O76 O 0.69825 0.80483 0.27874 0.0
H77 H 0.73253 0.73474 0.46387 0.0
H78 H 0.66245 0.82077 0.39592 0.0
H79 H 0.70691 0.50333 0.29763 0.0
H80 H 0.7191 0.74872 0.98226 0.0
H81 H 0.6904 0.46082 0.17406 0.0
H82 H 0.79756 0.74346 0.96096 0.0
O83 O 0.62592 0.60607 0.306 0.0
H84 H 0.51922 0.7336 0.23213 0.0
H85 H 0.59786 0.69914 0.44854 0.0
H86 H 0.50907 0.68143 0.45689 0.0
H87 H 0.46918 0.69886 0.34815 0.0
H88 H 0.60776 0.75006 0.22604 0.0
H89 H 0.6866 0.86839 0.51465 0.0
H90 H 0.73405 0.84854 0.60961 0.0
O91 O 0.65654 0.67258 0.38525 0.0
C92 C 0.76219 0.71734 0.30656 0.0
C93 C 0.73624 0.79006 0.54274 0.0
C94 C 0.69675 0.83905 0.50402 0.0
N95 N 0.69573 0.77471 0.42313 0.0
C96 C 0.72213 0.76381 0.4749 0.0
C97 C 0.68327 0.81201 0.43681 0.0
C98 C 0.72336 0.82788 0.55728 0.0
C99 C 0.69853 0.70234 0.08147 0.0
N100 N 0.71087 0.675 0.12972 0.0
C101 C 0.72924 0.72713 1.02002 0.0
C102 C 0.77335 0.72436 1.00826 0.0
C103 C 0.78639 0.69731 0.05821 0.0
C104 C 0.75474 0.67305 0.11901 0.0
C105 C 0.67182 0.51418 0.1223 0.0
C106 C 0.69035 0.56177 0.25988 0.0
C107 C 0.66686 0.55768 0.13319 0.0
N108 N 0.67638 0.5811 0.20129 0.0
C109 C 0.69573 0.51837 0.25102 0.0
C110 C 0.6864 0.4945 0.1817 0.0
C111 C 0.63189 0.62431 0.37176 0.0
C112 C 0.53613 0.72577 0.27985 0.0
C113 C 0.58062 0.70619 0.40075 0.0
C114 C 0.5304 0.6964 0.40593 0.0
C115 C 0.50806 0.70624 0.34494 0.0
N116 N 0.60787 0.72519 0.33666 0.0
C117 C 0.58626 0.73505 0.27674 0.0
Co118 Co 0.09422 0.67551 0.36611 0.0
Co119 Co 1.00408 0.68699 0.46361 0.0
O120 O 0.02686 0.66944 0.37178 0.0
C121 C 0.02531 0.58667 0.26222 0.0
O122 O 0.98593 0.59285 0.27474 0.0
C123 C 0.95667 0.74625 0.40608 0.0
O124 O 0.98611 0.78386 0.45173 0.0
O125 O 0.06315 0.75834 0.45668 0.0
O126 O 0.12416 0.73832 0.43236 0.0
H127 H 0.02749 0.76883 0.71543 0.0
H128 H 0.03847 0.68131 0.23061 0.0
O129 O 0.06757 0.61375 0.297 0.0
H130 H 0.21111 0.83343 0.21715 0.0
H131 H 0.23994 0.66758 0.24302 0.0
H132 H 0.1746 0.69685 0.47802 0.0
H133 H 0.18718 0.77317 0.32203 0.0
H134 H 0.15628 0.66326 0.2469 0.0
O135 O 0.96135 0.7063 0.40116 0.0
H136 H 0.0552 0.74467 0.60098 0.0
H137 H 0.90275 0.66812 0.51911 0.0
H138 H 0.25882 0.70224 0.47637 0.0
H139 H 0.06102 0.74 0.12458 0.0
H140 H 0.29198 0.68749 0.35825 0.0
H141 H 0.148 0.81688 0.11695 0.0
O142 O 0.07623 0.6287 0.45411 0.0
H143 H 0.85366 0.52584 0.36149 0.0
H144 H 0.96041 0.60708 0.58323 0.0
H145 H 0.88962 0.5172 0.59006 0.0
H146 H 0.83549 0.476 0.47873 0.0
H147 H 0.92536 0.61543 0.35676 0.0
H148 H 0.87329 0.6914 0.63261 0.0
H149 H 0.93587 0.74214 0.73179 0.0
O150 O 0.04604 0.66738 0.5281 0.0
C151 C 0.10993 0.77054 0.45042 0.0
C152 C 0.99986 0.74678 0.67258 0.0
C153 C 0.91332 0.70331 0.62613 0.0
N154 N 0.9808 0.70525 0.55325 0.0
C155 C 0.01539 0.73308 0.6076 0.0
C156 C 0.93025 0.69027 0.56196 0.0
C157 C 0.94845 0.73178 0.68173 0.0
C158 C 0.07672 0.71353 0.22736 0.0
N159 N 0.11195 0.72205 0.28145 0.0
C160 C 0.08916 0.7472 0.16726 0.0
C161 C 0.13789 0.7904 0.1631 0.0
C162 C 0.17331 0.79965 0.21919 0.0
C163 C 0.15952 0.76512 0.27839 0.0
C164 C 0.22592 0.67412 0.29482 0.0
C165 C 0.1889 0.6907 0.42631 0.0
C166 C 0.17845 0.6715 0.29745 0.0
N167 N 0.16064 0.68004 0.36261 0.0
C168 C 0.23656 0.69366 0.42576 0.0
C169 C 0.25512 0.68533 0.35948 0.0
C170 C 0.06381 0.63715 0.5182 0.0
C171 C 0.87698 0.54335 0.41038 0.0
C172 C 0.93746 0.58934 0.53423 0.0
C173 C 0.89721 0.53847 0.5386 0.0
C174 C 0.86683 0.5154 0.47614 0.0
N175 N 0.94729 0.61653 0.46944 0.0
C176 C 0.91761 0.59413 0.40806 0.0
Co177 Co 0.46728 0.09012 0.54222 0.0
Co178 Co 0.3724 1.00045 0.65496 0.0
O179 O 0.40821 0.02092 0.55883 0.0
C180 C 0.48861 0.01808 0.44761 0.0
O181 O 0.44387 0.97757 0.46147 0.0
C182 C 0.28544 0.9595 0.54506 0.0
O183 O 0.30894 1.00153 0.50476 0.0
O184 O 0.3597 0.05968 0.65034 0.0
O185 O 0.43406 0.12183 0.60222 0.0
H186 H 0.33134 0.03115 0.91397 0.0
H187 H 0.40051 0.02057 0.41796 0.0
O188 O 0.50262 0.06152 0.47888 0.0
H189 H 0.41582 0.18956 0.37129 0.0
H190 H 0.61213 0.23102 0.39603 0.0
H191 H 0.52647 0.18104 0.63948 0.0
H192 H 0.45733 0.17676 0.48031 0.0
H193 H 0.53581 0.14537 0.41359 0.0
O194 O 0.30601 0.9547 0.60388 0.0
H195 H 0.37679 0.05563 0.79423 0.0
H196 H 0.29087 0.90075 0.7184 0.0
H197 H 0.60228 0.26744 0.62397 0.0
H198 H 0.3594 0.03194 0.30804 0.0
H199 H 0.64569 0.29287 0.50157 0.0
H200 H 0.36673 0.117 0.28361 0.0
O201 O 0.50241 0.08312 0.63283 0.0
H202 H 0.37655 0.84692 0.5503 0.0
H203 H 0.41231 0.9577 0.77074 0.0
H204 H 0.43043 0.88613 0.77502 0.0
H205 H 0.41235 0.82996 0.66424 0.0
H206 H 0.35973 0.91948 0.54824 0.0
H207 H 0.24422 0.87459 0.83706 0.0
H208 H 0.26445 0.94 0.936 0.0
O209 O 0.43684 0.04398 0.71144 0.0
C210 C 0.39073 0.1066 0.63299 0.0
C211 C 0.32207 1.00231 0.87124 0.0
C212 C 0.27315 0.91447 0.82806 0.0
N213 N 0.33628 0.97985 0.74903 0.0
C214 C 0.34763 0.016 0.80325 0.0
C215 C 0.29953 0.92959 0.76077 0.0
C216 C 0.28455 0.95117 0.88356 0.0
C217 C 0.40569 0.05811 0.4073 0.0
N218 N 0.43367 0.09842 0.45459 0.0
C219 C 0.38147 0.06417 0.34505 0.0
C220 C 0.38541 0.1118 0.33152 0.0
C221 C 0.41296 0.15249 0.38061 0.0
C222 C 0.43663 0.14496 0.44226 0.0
C223 C 0.59351 0.22042 0.44962 0.0
C224 C 0.54488 0.19199 0.58588 0.0
C225 C 0.55039 0.17184 0.46003 0.0
N226 N 0.52645 0.15827 0.52746 0.0
C227 C 0.58791 0.24089 0.5775 0.0
C228 C 0.61229 0.25511 0.50884 0.0
C229 C 0.48458 0.06897 0.69826 0.0
C230 C 0.38471 0.87118 0.59888 0.0
C231 C 0.40504 0.934 0.72202 0.0
C232 C 0.41503 0.89324 0.72492 0.0
C233 C 0.40482 0.86171 0.6628 0.0
N234 N 0.3855 0.94321 0.65905 0.0
C235 C 0.37523 0.91232 0.59805 0.0
Co236 Co 0.43427 0.46928 0.71497 0.0
Co237 Co 0.42517 0.37267 0.82792 0.0
O238 O 0.44343 0.40945 0.73206 0.0
C239 C 0.52745 0.49147 0.62102 0.0
O240 O 0.52353 0.44661 0.63487 0.0
C241 C 0.3805 0.28578 0.7176 0.0
O242 O 0.36487 0.31102 0.67559 0.0
O243 O 0.35401 0.35978 0.818 0.0
O244 O 0.37031 0.43701 0.7758 0.0
H245 H 0.34436 0.32913 0.08082 0.0
H246 H 0.43726 0.4035 0.5899 0.0
O247 O 0.49766 0.50473 0.65159 0.0
H248 H 0.28258 0.41515 0.54568 0.0
H249 H 0.43843 0.61426 0.56673 0.0
H250 H 0.40486 0.53027 0.81197 0.0
H251 H 0.33749 0.45802 0.65383 0.0
H252 H 0.447 0.53737 0.58537 0.0
O253 O 0.40493 0.30561 0.77745 0.0
H254 H 0.36915 0.3754 0.96133 0.0
H255 H 0.4404 0.29013 0.89559 0.0
H256 H 0.39508 0.60664 0.79537 0.0
H257 H 0.38438 0.36131 0.48043 0.0
H258 H 0.41199 0.64923 0.67207 0.0
H259 H 0.30609 0.3667 0.45738 0.0
O260 O 0.47647 0.50427 0.80523 0.0
H261 H 0.58436 0.37817 0.73423 0.0
H262 H 0.50406 0.41156 0.94894 0.0
H263 H 0.59302 0.42994 0.95911 0.0
H264 H 0.63376 0.41306 0.85123 0.0
H265 H 0.49563 0.36104 0.72632 0.0
H266 H 0.41602 0.24268 1.01413 0.0
H267 H 0.36784 0.26223 0.10788 0.0
O268 O 0.44541 0.43783 0.88418 0.0
C269 C 0.34016 0.39273 0.80352 0.0
C270 C 0.36549 0.32037 0.04052 0.0
C271 C 0.40565 0.27181 1.00305 0.0
N272 N 0.40652 0.3358 0.9217 0.0
C273 C 0.37973 0.34653 0.9728 0.0
C274 C 0.41924 0.29875 0.93593 0.0
C275 C 0.37863 0.28281 0.05563 0.0
C276 C 0.40457 0.40778 0.57982 0.0
N277 N 0.39207 0.4352 0.62764 0.0
C278 C 0.37411 0.38297 0.51784 0.0
C279 C 0.3301 0.38581 0.50509 0.0
C280 C 0.31691 0.41296 0.55458 0.0
C281 C 0.3483 0.43723 0.61593 0.0
C282 C 0.43089 0.59601 0.6207 0.0
C283 C 0.41192 0.54832 0.75798 0.0
C284 C 0.4359 0.55256 0.63173 0.0
N285 N 0.42616 0.52909 0.69967 0.0
C286 C 0.40648 0.59167 0.74899 0.0
C287 C 0.41603 0.61559 0.67982 0.0
C288 C 0.47027 0.48609 0.87095 0.0
C289 C 0.56708 0.38577 0.78159 0.0
C290 C 0.52165 0.40475 0.90152 0.0
C291 C 0.57198 0.41491 0.90773 0.0
C292 C 0.59478 0.40538 0.84722 0.0
N293 N 0.49476 0.38567 0.8369 0.0
C294 C 0.51684 0.3761 0.77745 0.0
Co295 Co 0.999 0.42261 0.8616 0.0
Co296 Co 0.09916 0.42535 0.95359 0.0
O297 O 0.06877 0.43464 0.8633 0.0
C298 C 0.05489 0.52552 0.7847 0.0
O299 O 0.08241 0.54697 0.84457 0.0
C300 C 0.14574 0.36451 0.90043 0.0
O301 O 0.11921 0.32997 0.95133 0.0
O302 O 0.04187 0.35269 0.96008 0.0
O303 O 0.97565 0.36474 0.93467 0.0
H304 H 0.09561 0.36393 0.21439 0.0
H305 H 0.05082 0.42168 0.72216 0.0
O306 O 0.02022 0.47819 0.78474 0.0
H307 H 0.89172 0.25297 0.72985 0.0
H308 H 0.84258 0.40918 0.73896 0.0
H309 H 0.92086 0.40227 0.9763 0.0
H310 H 0.91227 0.31662 0.83006 0.0
H311 H 0.92958 0.42131 0.74194 0.0
O312 O 0.13924 0.40306 0.89056 0.0
H313 H 0.05873 0.37749 0.10005 0.0
H314 H 0.20523 0.45202 0.99875 0.0
H315 H 0.83354 0.38937 0.97572 0.0
H316 H 0.0315 0.35931 0.62036 0.0
H317 H 0.79385 0.39282 0.85641 0.0
H318 H 0.95147 0.27423 0.62383 0.0
O319 O 0.0158 0.47277 0.94572 0.0
H320 H 0.23367 0.58007 0.81677 0.0
H321 H 0.15153 0.51426 0.05942 0.0
H322 H 0.21964 0.6051 0.0483 0.0
H323 H 0.26144 0.63854 0.92629 0.0
H324 H 0.16479 0.48964 0.83024 0.0
H325 H 0.24368 0.43913 0.1119 0.0
H326 H 0.18874 0.39484 0.22079 0.0
O327 O 0.0606 0.44862 1.01829 0.0
C328 C 0.99408 0.3369 0.95689 0.0
C329 C 0.11995 0.38329 0.16732 0.0
C330 C 0.20305 0.4255 0.10981 0.0
N331 N 0.12973 0.41552 0.04279 0.0
C332 C 0.09927 0.39107 0.10243 0.0
C333 C 0.18106 0.43267 0.04589 0.0
C334 C 0.17221 0.40064 0.17087 0.0
C335 C 0.01576 0.38487 0.72385 0.0
N336 N 0.98257 0.37301 0.78176 0.0
C337 C 1.00509 0.34966 0.66613 0.0
C338 C 0.9602 0.30191 0.66814 0.0
C339 C 0.92665 0.28997 0.72757 0.0
C340 C 0.93855 0.32616 0.78423 0.0
C341 C 0.85944 0.40752 0.79129 0.0
C342 C 0.90375 0.40353 0.9241 0.0
C343 C 0.90877 0.41454 0.79337 0.0
N344 N 0.9302 0.41222 0.85921 0.0
C345 C 0.85434 0.39634 0.92415 0.0
C346 C 0.83211 0.39832 0.8572 0.0
C347 C 0.03553 0.47211 1.0085 0.0
C348 C 0.21582 0.56594 0.87027 0.0
C349 C 0.16909 0.52857 1.00606 0.0
C350 C 0.20788 0.58002 1.00014 0.0
C351 C 0.23134 0.59875 0.9317 0.0
N352 N 0.15414 0.49655 0.94562 0.0
C353 C 0.1769 0.51471 0.8783 0.0
C354 C 0.53082 0.99899 0.25716 0.0
C355 C 0.58439 0.02891 0.26382 0.0
H356 H 0.45815 0.97085 0.31135 0.0
C357 C 0.60537 0.05039 0.33391 0.0
H358 H 0.5133 0.98149 0.20448 0.0
C359 C 0.57408 0.04511 0.39398 0.0
C360 C 0.52081 0.01668 0.38686 0.0
H361 H 0.64631 0.07276 0.34245 0.0
H362 H 0.59164 0.06412 0.44595 0.0
C363 C 0.4993 0.99254 0.31847 0.0
C364 C 0.60941 0.61008 0.50699 0.0
C365 C 0.60902 0.58917 0.43661 0.0
H366 H 0.58374 0.59556 0.6198 0.0
C367 C 0.58598 0.5352 0.42983 0.0
H368 H 0.6276 0.65135 0.51541 0.0
C369 C 0.56231 0.50311 0.49138 0.0
C370 C 0.56047 0.52442 0.56023 0.0
H371 H 0.58543 0.51774 0.37686 0.0
H372 H 0.54317 0.46164 0.48413 0.0
C373 C 0.58474 0.57816 0.56746 0.0
C374 C 0.05163 0.5312 0.64603 0.0
C375 C 0.06281 0.55585 0.71587 0.0
H376 H 0.04482 0.53806 0.52831 0.0
C377 C 0.07869 0.60861 0.71905 0.0
H378 H 0.03948 0.49056 0.64178 0.0
C379 C 0.08064 0.63543 0.6542 0.0
C380 C 0.06831 0.61045 0.58461 0.0
H381 H 0.08739 0.62857 0.77195 0.0
H382 H 0.09088 0.67559 0.6586 0.0
C383 C 0.05504 0.5584 0.58096 0.0
C384 C 0.60453 0.11703 0.81903 0.0
C385 C 0.58319 0.09217 0.88684 0.0
H386 H 0.59042 0.12862 0.70527 0.0
C387 C 0.52991 0.06273 0.89303 0.0
H388 H 0.64566 0.13952 0.81255 0.0
C389 C 0.4985 0.05732 0.83268 0.0
C390 C 0.51942 0.07964 0.76319 0.0
H391 H 0.51243 0.04316 0.94453 0.0
H392 H 0.45758 0.0343 0.8405 0.0
C393 C 0.57294 0.11041 0.75745 0.0
C394 C 0.51748 0.53235 0.06715 0.0
C395 C 0.5423 0.5861 0.05999 0.0
H396 H 0.47388 0.45912 1.01489 0.0
C397 C 0.54076 0.60741 0.99102 0.0
H398 H 0.51823 0.51495 0.11958 0.0
C399 C 0.51683 0.57529 0.92932 0.0
C400 C 0.49323 0.52129 0.93603 0.0
H401 H 0.5603 0.64888 0.98384 0.0
H402 H 0.51766 0.59274 0.87627 0.0
C403 C 0.49253 0.5004 1.00652 0.0
C404 C 0.05833 0.50488 0.13947 0.0
C405 C 0.02999 0.49934 0.07424 0.0
H406 H 0.07941 0.53693 0.24892 0.0
C407 C 0.99718 0.52004 0.07355 0.0
H408 H 0.08329 0.48874 0.14329 0.0
C409 C 0.99376 0.54646 0.13596 0.0
C410 C 0.02383 0.55358 0.19968 0.0
H411 H 0.9744 0.51612 0.02479 0.0
H412 H 0.96897 0.56289 0.13331 0.0
C413 C 0.05588 0.53224 0.2007 0.0
C414 C 0.73476 0.91085 0.25033 0.0
C415 C 0.73095 0.8751 0.19626 0.0
H416 H 0.73411 0.98076 0.2729 0.0
C417 C 0.72849 0.88583 0.12102 0.0
H418 H 0.73694 0.90357 0.30881 0.0
C419 C 0.72596 0.92966 0.10076 0.0
C420 C 0.72714 0.96397 0.15519 0.0
H421 H 0.72538 0.85887 0.07833 0.0
H422 H 0.72158 0.93592 0.04271 0.0
C423 C 0.73344 0.9552 0.22988 0.0
C424 C 0.89564 0.78005 0.3916 0.0
C425 C 0.91083 0.7441 0.37244 0.0
H426 H 0.83659 0.80001 0.3859 0.0
C427 C 0.87849 0.70198 0.32712 0.0
H428 H 0.91963 0.81284 0.42671 0.0
C429 C 0.83102 0.69428 0.30486 0.0
C430 C 0.81461 0.72884 0.3263 0.0
H431 H 0.88888 0.67358 0.31096 0.0
H432 H 0.80667 0.66016 0.27241 0.0
C433 C 0.84796 0.77256 0.36854 0.0
C434 C 0.16488 0.82929 0.54976 0.0
C435 C 0.14975 0.82183 0.47522 0.0
H436 H 0.21876 0.87921 0.6304 0.0
C437 C 0.1769 0.86158 0.42381 0.0
H438 H 0.14505 0.79877 0.58997 0.0
C439 C 0.21985 0.90791 0.44664 0.0
C440 C 0.2363 0.91461 0.52104 0.0
H441 H 0.16593 0.85612 0.36573 0.0
H442 H 0.24138 0.93734 0.40565 0.0
C443 C 0.20748 0.87526 0.57255 0.0
C444 C 0.37571 0.22426 0.61899 0.0
C445 C 0.37396 0.23547 0.69426 0.0
H446 H 0.38216 0.17387 0.54059 0.0
C447 C 0.37133 0.20032 0.7484 0.0
H448 H 0.37791 0.25072 0.57619 0.0
C449 C 0.37296 0.15611 0.72796 0.0
C450 C 0.3783 0.14679 0.65317 0.0
H451 H 0.36971 0.20791 0.80691 0.0
H452 H 0.37314 0.13101 0.77101 0.0
C453 C 0.37849 0.18054 0.59871 0.0
C454 C 0.22348 0.4077 0.821 0.0
C455 C 0.19139 0.36622 0.86711 0.0
H456 H 0.29518 0.44905 0.76659 0.0
C457 C 0.20687 0.33071 0.88773 0.0
H458 H 0.21298 0.43587 0.80388 0.0
C459 C 0.25452 0.33801 0.86529 0.0
C460 C 0.28765 0.38118 0.82234 0.0
H461 H 0.1831 0.29839 0.92346 0.0
H462 H 0.26609 0.31093 0.88378 0.0
C463 C 0.27097 0.41529 0.79949 0.0
C464 C 0.93349 0.24322 0.93717 0.0
C465 C 0.95753 0.2857 0.98555 0.0
H466 H 0.8711 0.16588 0.92132 0.0
C467 C 0.93975 0.28128 0.05826 0.0
H468 H 0.94643 0.24639 0.88033 0.0
C469 C 0.89695 0.23577 0.08155 0.0
C470 C 0.87075 0.19389 0.03227 0.0
H471 H 0.95739 0.31393 0.09592 0.0
H472 H 0.88328 0.23423 0.13754 0.0
C473 C 0.89043 0.19737 0.96051 0.0
loop_
_geom_bond_atom_site_label_1
_geom_bond_atom_site_label_2
_geom_bond_distance
_geom_bond_site_symmetry_2
_ccdc_geom_bond_type
Co0 O2 2.143 1_565 S
Co0 O8 2.074 . S
Co0 O11 2.093 1_564 S
Co0 O24 2.097 1_565 S
Co0 N41 2.151 1_554 S
Co0 N49 2.214 . S
Co1 O2 2.160 . S
Co1 O7 2.058 . S
Co1 O17 2.057 . S
Co1 O32 2.037 . S
Co1 N36 2.145 . S
Co1 N57 2.257 . S
O2 Co0 2.143 1_545 S
O2 Co1 2.160 . S
C3 O4 1.278 . S
C3 O11 1.224 . S
O4 C3 1.278 . S
C5 O6 1.245 1_554 S
C5 O17 1.232 . S
O6 C5 1.245 1_556 S
O7 Co1 2.058 . S
O7 C33 1.269 1_545 S
O8 Co0 2.074 . S
O8 C33 1.257 . S
H9 C34 0.930 . S
H10 C40 0.930 1_545 S
O11 Co0 2.093 1_546 S
O11 C3 1.224 . S
H12 C44 0.929 . S
H13 C46 0.930 . S
H14 C47 0.930 . S
H15 C45 0.929 . S
H16 C48 0.928 . S
O17 Co1 2.057 . S
O17 C5 1.232 . S
H18 C37 0.929 . S
H19 C38 0.929 . S
H20 C50 0.931 . S
H21 C42 0.929 . S
H22 C51 0.930 . S
H23 C43 0.931 . S
O24 Co0 2.097 1_545 S
O24 C52 1.214 . S
H25 C53 0.929 . S
H26 C54 0.929 . S
H27 C55 0.930 . S
H28 C56 0.929 . S
H29 C58 0.930 . S
H30 C35 0.930 . S
H31 C39 0.930 . S
O32 Co1 2.037 . S
O32 C52 1.234 . S
C33 O7 1.269 1_565 S
C33 O8 1.257 . S
C34 H9 0.930 . S
C34 C37 1.388 . S
C34 C39 1.418 . S
C35 H30 0.930 . S
C35 C38 1.404 . S
C35 C39 1.353 . S
N36 Co1 2.145 . S
N36 C37 1.397 . S
N36 C38 1.334 . S
C37 H18 0.929 . S
C37 C34 1.388 . S
C37 N36 1.397 . S
C38 H19 0.929 . S
C38 C35 1.404 . S
C38 N36 1.334 . S
C39 H31 0.930 . S
C39 C34 1.418 . S
C39 C35 1.353 . S
C40 H10 0.930 1_565 S
C40 N41 1.330 . S
C40 C42 1.446 . S
N41 Co0 2.151 1_556 S
N41 C40 1.330 . S
N41 C45 1.418 . S
C42 H21 0.929 . S
C42 C40 1.446 . S
C42 C43 1.332 . S
C43 H23 0.931 . S
C43 C42 1.332 . S
C43 C44 1.267 . S
C44 H12 0.929 . S
C44 C43 1.267 . S
C44 C45 1.251 . S
C45 H15 0.929 . S
C45 N41 1.418 . S
C45 C44 1.251 . S
C46 H13 0.930 . S
C46 C48 1.406 . S
C46 C51 1.261 1_556 S
C47 H14 0.930 . S
C47 N49 1.325 . S
C47 C50 1.357 . S
C48 H16 0.928 . S
C48 C46 1.406 . S
C48 N49 1.261 1_556 S
N49 Co0 2.214 . S
N49 C47 1.325 . S
N49 C48 1.261 1_554 S
C50 H20 0.931 . S
C50 C47 1.357 . S
C50 C51 1.312 . S
C51 H22 0.930 . S
C51 C46 1.261 1_554 S
C51 C50 1.312 . S
C52 O24 1.214 . S
C52 O32 1.234 . S
C53 H25 0.929 . S
C53 C56 1.391 . S
C53 C58 1.391 . S
C54 H26 0.929 . S
C54 C55 1.390 . S
C54 N57 1.391 . S
C55 H27 0.930 . S
C55 C54 1.390 . S
C55 C56 1.392 . S
C56 H28 0.929 . S
C56 C53 1.391 . S
C56 C55 1.392 . S
N57 Co1 2.257 . S
N57 C54 1.391 . S
N57 C58 1.388 . S
C58 H29 0.930 . S
C58 C53 1.391 . S
C58 N57 1.388 . S
Co59 O61 2.143 . S
Co59 O67 2.074 . S
Co59 O70 2.093 . S
Co59 O83 2.097 . S
Co59 N100 2.151 . S
Co59 N108 2.214 . S
Co60 O61 2.160 . S
Co60 O66 2.058 . S
Co60 O76 2.057 . S
Co60 O91 2.037 . S
Co60 N95 2.145 . S
Co60 N116 2.257 . S
O61 Co59 2.143 . S
O61 Co60 2.160 . S
C62 O63 1.278 . S
C62 O70 1.224 . S
O63 C62 1.278 . S
C64 O65 1.245 . S
C64 O76 1.232 . S
O65 C64 1.245 . S
O66 Co60 2.058 . S
O66 C92 1.269 . S
O67 Co59 2.074 . S
O67 C92 1.257 . S
H68 C93 0.930 . S
H69 C99 0.930 . S
O70 Co59 2.093 . S
O70 C62 1.224 . S
H71 C103 0.929 . S
H72 C105 0.930 . S
H73 C106 0.930 . S
H74 C104 0.929 . S
H75 C107 0.928 . S
O76 Co60 2.057 . S
O76 C64 1.232 . S
H77 C96 0.929 . S
H78 C97 0.929 . S
H79 C109 0.931 . S
H80 C101 0.929 . S
H81 C110 0.930 . S
H82 C102 0.931 . S
O83 Co59 2.097 . S
O83 C111 1.214 . S
H84 C112 0.929 . S
H85 C113 0.929 . S
H86 C114 0.930 . S
H87 C115 0.929 . S
H88 C117 0.930 . S
H89 C94 0.930 . S
H90 C98 0.930 . S
O91 Co60 2.037 . S
O91 C111 1.234 . S
C92 O66 1.269 . S
C92 O67 1.257 . S
C93 H68 0.930 . S
C93 C96 1.388 . S
C93 C98 1.418 . S
C94 H89 0.930 . S
C94 C97 1.404 . S
C94 C98 1.353 . S
N95 Co60 2.145 . S
N95 C96 1.397 . S
N95 C97 1.334 . S
C96 H77 0.929 . S
C96 C93 1.388 . S
C96 N95 1.397 . S
C97 H78 0.929 . S
C97 C94 1.404 . S
C97 N95 1.334 . S
C98 H90 0.930 . S
C98 C93 1.418 . S
C98 C94 1.353 . S
C99 H69 0.930 . S
C99 N100 1.330 . S
C99 C101 1.446 1_554 S
N100 Co59 2.151 . S
N100 C99 1.330 . S
N100 C104 1.418 . S
C101 H80 0.929 . S
C101 C99 1.446 1_556 S
C101 C102 1.332 . S
C102 H82 0.931 . S
C102 C101 1.332 . S
C102 C103 1.267 1_556 S
C103 H71 0.929 . S
C103 C102 1.267 1_554 S
C103 C104 1.251 . S
C104 H74 0.929 . S
C104 N100 1.418 . S
C104 C103 1.251 . S
C105 H72 0.930 . S
C105 C107 1.406 . S
C105 C110 1.261 . S
C106 H73 0.930 . S
C106 N108 1.325 . S
C106 C109 1.357 . S
C107 H75 0.928 . S
C107 C105 1.406 . S
C107 N108 1.261 . S
N108 Co59 2.214 . S
N108 C106 1.325 . S
N108 C107 1.261 . S
C109 H79 0.931 . S
C109 C106 1.357 . S
C109 C110 1.312 . S
C110 H81 0.930 . S
C110 C105 1.261 . S
C110 C109 1.312 . S
C111 O83 1.214 . S
C111 O91 1.234 . S
C112 H84 0.929 . S
C112 C115 1.391 . S
C112 C117 1.391 . S
C113 H85 0.929 . S
C113 C114 1.390 . S
C113 N116 1.391 . S
C114 H86 0.930 . S
C114 C113 1.390 . S
C114 C115 1.392 . S
C115 H87 0.929 . S
C115 C112 1.391 . S
C115 C114 1.392 . S
N116 Co60 2.257 . S
N116 C113 1.391 . S
N116 C117 1.388 . S
C117 H88 0.930 . S
C117 C112 1.391 . S
C117 N116 1.388 . S
Co118 O120 2.143 . S
Co118 O126 2.074 . S
Co118 O129 2.093 . S
Co118 O142 2.097 . S
Co118 N159 2.151 . S
Co118 N167 2.214 . S
Co119 O120 2.160 1_655 S
Co119 O125 2.058 1_655 S
Co119 O135 2.057 . S
Co119 O150 2.037 1_655 S
Co119 N154 2.145 . S
Co119 N175 2.257 . S
O120 Co118 2.143 . S
O120 Co119 2.160 1_455 S
C121 O122 1.278 1_455 S
C121 O129 1.224 . S
O122 C121 1.278 1_655 S
C123 O124 1.245 . S
C123 O135 1.232 . S
O124 C123 1.245 . S
O125 Co119 2.058 1_455 S
O125 C151 1.269 . S
O126 Co118 2.074 . S
O126 C151 1.257 . S
H127 C152 0.930 . S
H128 C158 0.930 . S
O129 Co118 2.093 . S
O129 C121 1.224 . S
H130 C162 0.929 . S
H131 C164 0.930 . S
H132 C165 0.930 . S
H133 C163 0.929 . S
H134 C166 0.928 . S
O135 Co119 2.057 . S
O135 C123 1.232 . S
H136 C155 0.929 1_455 S
H137 C156 0.929 . S
H138 C168 0.931 . S
H139 C160 0.929 . S
H140 C169 0.930 . S
H141 C161 0.931 . S
O142 Co118 2.097 . S
O142 C170 1.214 . S
H143 C171 0.929 . S
H144 C172 0.929 . S
H145 C173 0.930 . S
H146 C174 0.929 . S
H147 C176 0.930 . S
H148 C153 0.930 . S
H149 C157 0.930 . S
O150 Co119 2.037 1_455 S
O150 C170 1.234 . S
C151 O125 1.269 . S
C151 O126 1.257 . S
C152 H127 0.930 . S
C152 C155 1.388 . S
C152 C157 1.418 . S
C153 H148 0.930 . S
C153 C156 1.404 . S
C153 C157 1.353 . S
N154 Co119 2.145 . S
N154 C155 1.397 . S
N154 C156 1.334 . S
C155 H136 0.929 1_655 S
C155 C152 1.388 . S
C155 N154 1.397 . S
C156 H137 0.929 . S
C156 C153 1.404 . S
C156 N154 1.334 . S
C157 H149 0.930 . S
C157 C152 1.418 . S
C157 C153 1.353 . S
C158 H128 0.930 . S
C158 N159 1.330 . S
C158 C160 1.446 . S
N159 Co118 2.151 . S
N159 C158 1.330 . S
N159 C163 1.418 . S
C160 H139 0.929 . S
C160 C158 1.446 . S
C160 C161 1.332 . S
C161 H141 0.931 . S
C161 C160 1.332 . S
C161 C162 1.267 . S
C162 H130 0.929 . S
C162 C161 1.267 . S
C162 C163 1.251 . S
C163 H133 0.929 . S
C163 N159 1.418 . S
C163 C162 1.251 . S
C164 H131 0.930 . S
C164 C166 1.406 . S
C164 C169 1.261 . S
C165 H132 0.930 . S
C165 N167 1.325 . S
C165 C168 1.357 . S
C166 H134 0.928 . S
C166 C164 1.406 . S
C166 N167 1.261 . S
N167 Co118 2.214 . S
N167 C165 1.325 . S
N167 C166 1.261 . S
C168 H138 0.931 . S
C168 C165 1.357 . S
C168 C169 1.312 . S
C169 H140 0.930 . S
C169 C164 1.261 . S
C169 C168 1.312 . S
C170 O142 1.214 . S
C170 O150 1.234 . S
C171 H143 0.929 . S
C171 C174 1.391 . S
C171 C176 1.391 . S
C172 H144 0.929 . S
C172 C173 1.390 . S
C172 N175 1.391 . S
C173 H145 0.930 . S
C173 C172 1.390 . S
C173 C174 1.392 . S
C174 H146 0.929 . S
C174 C171 1.391 . S
C174 C173 1.392 . S
N175 Co119 2.257 . S
N175 C172 1.391 . S
N175 C176 1.388 . S
C176 H147 0.930 . S
C176 C171 1.391 . S
C176 N175 1.388 . S
Co177 O179 2.143 . S
Co177 O185 2.074 . S
Co177 O188 2.093 . S
Co177 O201 2.097 . S
Co177 N218 2.151 . S
Co177 N226 2.214 . S
Co178 O179 2.160 1_565 S
Co178 O184 2.058 1_565 S
Co178 O194 2.057 . S
Co178 O209 2.037 1_565 S
Co178 N213 2.145 . S
Co178 N234 2.257 . S
O179 Co177 2.143 . S
O179 Co178 2.160 1_545 S
C180 O181 1.278 1_545 S
C180 O188 1.224 . S
O181 C180 1.278 1_565 S
C182 O183 1.245 . S
C182 O194 1.232 . S
O183 C182 1.245 . S
O184 Co178 2.058 1_545 S
O184 C210 1.269 . S
O185 Co177 2.074 . S
O185 C210 1.257 . S
H186 C211 0.930 . S
H187 C217 0.930 . S
O188 Co177 2.093 . S
O188 C180 1.224 . S
H189 C221 0.929 . S
H190 C223 0.930 . S
H191 C224 0.930 . S
H192 C222 0.929 . S
H193 C225 0.928 . S
O194 Co178 2.057 . S
O194 C182 1.232 . S
H195 C214 0.929 1_545 S
H196 C215 0.929 . S
H197 C227 0.931 . S
H198 C219 0.929 . S
H199 C228 0.930 . S
H200 C220 0.931 . S
O201 Co177 2.097 . S
O201 C229 1.214 . S
H202 C230 0.929 . S
H203 C231 0.929 . S
H204 C232 0.930 . S
H205 C233 0.929 . S
H206 C235 0.930 . S
H207 C212 0.930 . S
H208 C216 0.930 . S
O209 Co178 2.037 1_545 S
O209 C229 1.234 . S
C210 O184 1.269 . S
C210 O185 1.257 . S
C211 H186 0.930 . S
C211 C214 1.388 . S
C211 C216 1.418 . S
C212 H207 0.930 . S
C212 C215 1.404 . S
C212 C216 1.353 . S
N213 Co178 2.145 . S
N213 C214 1.397 . S
N213 C215 1.334 . S
C214 H195 0.929 1_565 S
C214 C211 1.388 . S
C214 N213 1.397 . S
C215 H196 0.929 . S
C215 C212 1.404 . S
C215 N213 1.334 . S
C216 H208 0.930 . S
C216 C211 1.418 . S
C216 C212 1.353 . S
C217 H187 0.930 . S
C217 N218 1.330 . S
C217 C219 1.446 . S
N218 Co177 2.151 . S
N218 C217 1.330 . S
N218 C222 1.418 . S
C219 H198 0.929 . S
C219 C217 1.446 . S
C219 C220 1.332 . S
C220 H200 0.931 . S
C220 C219 1.332 . S
C220 C221 1.267 . S
C221 H189 0.929 . S
C221 C220 1.267 . S
C221 C222 1.251 . S
C222 H192 0.929 . S
C222 N218 1.418 . S
C222 C221 1.251 . S
C223 H190 0.930 . S
C223 C225 1.406 . S
C223 C228 1.261 . S
C224 H191 0.930 . S
C224 N226 1.325 . S
C224 C227 1.357 . S
C225 H193 0.928 . S
C225 C223 1.406 . S
C225 N226 1.261 . S
N226 Co177 2.214 . S
N226 C224 1.325 . S
N226 C225 1.261 . S
C227 H197 0.931 . S
C227 C224 1.357 . S
C227 C228 1.312 . S
C228 H199 0.930 . S
C228 C223 1.261 . S
C228 C227 1.312 . S
C229 O201 1.214 . S
C229 O209 1.234 . S
C230 H202 0.929 . S
C230 C233 1.391 . S
C230 C235 1.391 . S
C231 H203 0.929 . S
C231 C232 1.390 . S
C231 N234 1.391 . S
C232 H204 0.930 . S
C232 C231 1.390 . S
C232 C233 1.392 . S
C233 H205 0.929 . S
C233 C230 1.391 . S
C233 C232 1.392 . S
N234 Co178 2.257 . S
N234 C231 1.391 . S
N234 C235 1.388 . S
C235 H206 0.930 . S
C235 C230 1.391 . S
C235 N234 1.388 . S
Co236 O238 2.143 . S
Co236 O244 2.074 . S
Co236 O247 2.093 . S
Co236 O260 2.097 . S
Co236 N277 2.151 . S
Co236 N285 2.214 . S
Co237 O238 2.160 . S
Co237 O243 2.058 . S
Co237 O253 2.057 . S
Co237 O268 2.037 . S
Co237 N272 2.145 . S
Co237 N293 2.257 . S
O238 Co236 2.143 . S
O238 Co237 2.160 . S
C239 O240 1.278 . S
C239 O247 1.224 . S
O240 C239 1.278 . S
C241 O242 1.245 . S
C241 O253 1.232 . S
O242 C241 1.245 . S
O243 Co237 2.058 . S
O243 C269 1.269 . S
O244 Co236 2.074 . S
O244 C269 1.257 . S
H245 C270 0.930 . S
H246 C276 0.930 . S
O247 Co236 2.093 . S
O247 C239 1.224 . S
H248 C280 0.929 . S
H249 C282 0.930 . S
H250 C283 0.930 . S
H251 C281 0.929 . S
H252 C284 0.928 . S
O253 Co237 2.057 . S
O253 C241 1.232 . S
H254 C273 0.929 . S
H255 C274 0.929 . S
H256 C286 0.931 . S
H257 C278 0.929 . S
H258 C287 0.930 . S
H259 C279 0.931 . S
O260 Co236 2.097 . S
O260 C288 1.214 . S
H261 C289 0.929 . S
H262 C290 0.929 . S
H263 C291 0.930 . S
H264 C292 0.929 . S
H265 C294 0.930 . S
H266 C271 0.930 . S
H267 C275 0.930 . S
O268 Co237 2.037 . S
O268 C288 1.234 . S
C269 O243 1.269 . S
C269 O244 1.257 . S
C270 H245 0.930 . S
C270 C273 1.388 1_554 S
C270 C275 1.418 . S
C271 H266 0.930 . S
C271 C274 1.404 . S
C271 C275 1.353 1_556 S
N272 Co237 2.145 . S
N272 C273 1.397 . S
N272 C274 1.334 . S
C273 H254 0.929 . S
C273 C270 1.388 1_556 S
C273 N272 1.397 . S
C274 H255 0.929 . S
C274 C271 1.404 . S
C274 N272 1.334 . S
C275 H267 0.930 . S
C275 C270 1.418 . S
C275 C271 1.353 1_554 S
C276 H246 0.930 . S
C276 N277 1.330 . S
C276 C278 1.446 . S
N277 Co236 2.151 . S
N277 C276 1.330 . S
N277 C281 1.418 . S
C278 H257 0.929 . S
C278 C276 1.446 . S
C278 C279 1.332 . S
C279 H259 0.931 . S
C279 C278 1.332 . S
C279 C280 1.267 . S
C280 H248 0.929 . S
C280 C279 1.267 . S
C280 C281 1.251 . S
C281 H251 0.929 . S
C281 N277 1.418 . S
C281 C280 1.251 . S
C282 H249 0.930 . S
C282 C284 1.406 . S
C282 C287 1.261 . S
C283 H250 0.930 . S
C283 N285 1.325 . S
C283 C286 1.357 . S
C284 H252 0.928 . S
C284 C282 1.406 . S
C284 N285 1.261 . S
N285 Co236 2.214 . S
N285 C283 1.325 . S
N285 C284 1.261 . S
C286 H256 0.931 . S
C286 C283 1.357 . S
C286 C287 1.312 . S
C287 H258 0.930 . S
C287 C282 1.261 . S
C287 C286 1.312 . S
C288 O260 1.214 . S
C288 O268 1.234 . S
C289 H261 0.929 . S
C289 C292 1.391 . S
C289 C294 1.391 . S
C290 H262 0.929 . S
C290 C291 1.390 . S
C290 N293 1.391 . S
C291 H263 0.930 . S
C291 C290 1.390 . S
C291 C292 1.392 . S
C292 H264 0.929 . S
C292 C289 1.391 . S
C292 C291 1.392 . S
N293 Co237 2.257 . S
N293 C290 1.391 . S
N293 C294 1.388 . S
C294 H265 0.930 . S
C294 C289 1.391 . S
C294 N293 1.388 . S
Co295 O297 2.143 1_655 S
Co295 O303 2.074 . S
Co295 O306 2.093 1_655 S
Co295 O319 2.097 1_655 S
Co295 N336 2.151 . S
Co295 N344 2.214 . S
Co296 O297 2.160 . S
Co296 O302 2.058 . S
Co296 O312 2.057 . S
Co296 O327 2.037 1_556 S
Co296 N331 2.145 1_556 S
Co296 N352 2.257 . S
O297 Co295 2.143 1_455 S
O297 Co296 2.160 . S
C298 O299 1.278 . S
C298 O306 1.224 . S
O299 C298 1.278 . S
C300 O301 1.245 . S
C300 O312 1.232 . S
O301 C300 1.245 . S
O302 Co296 2.058 . S
O302 C328 1.269 1_455 S
O303 Co295 2.074 . S
O303 C328 1.257 . S
H304 C329 0.930 . S
H305 C335 0.930 1_455 S
O306 Co295 2.093 1_455 S
O306 C298 1.224 . S
H307 C339 0.929 . S
H308 C341 0.930 . S
H309 C342 0.930 . S
H310 C340 0.929 . S
H311 C343 0.928 . S
O312 Co296 2.057 . S
O312 C300 1.232 . S
H313 C332 0.929 . S
H314 C333 0.929 . S
H315 C345 0.931 . S
H316 C337 0.929 . S
H317 C346 0.930 . S
H318 C338 0.931 . S
O319 Co295 2.097 1_455 S
O319 C347 1.204 1_556 S
H320 C348 0.929 . S
H321 C349 0.929 . S
H322 C350 0.930 . S
H323 C351 0.929 . S
H324 C353 0.930 . S
H325 C330 0.930 . S
H326 C334 0.930 . S
O327 Co296 2.037 1_554 S
O327 C347 1.236 . S
C328 O302 1.269 1_655 S
C328 O303 1.257 . S
C329 H304 0.930 . S
C329 C332 1.388 . S
C329 C334 1.418 . S
C330 H325 0.930 . S
C330 C333 1.404 . S
C330 C334 1.353 . S
N331 Co296 2.145 1_554 S
N331 C332 1.397 . S
N331 C333 1.334 . S
C332 H313 0.929 . S
C332 C329 1.388 . S
C332 N331 1.397 . S
C333 H314 0.929 . S
C333 C330 1.404 . S
C333 N331 1.334 . S
C334 H326 0.930 . S
C334 C329 1.418 . S
C334 C330 1.353 . S
C335 H305 0.930 1_655 S
C335 N336 1.330 . S
C335 C337 1.446 . S
N336 Co295 2.151 . S
N336 C335 1.330 . S
N336 C340 1.418 . S
C337 H316 0.929 . S
C337 C335 1.446 . S
C337 C338 1.332 . S
C338 H318 0.931 . S
C338 C337 1.332 . S
C338 C339 1.267 . S
C339 H307 0.929 . S
C339 C338 1.267 . S
C339 C340 1.251 . S
C340 H310 0.929 . S
C340 N336 1.418 . S
C340 C339 1.251 . S
C341 H308 0.930 . S
C341 C343 1.406 . S
C341 C346 1.261 . S
C342 H309 0.930 . S
C342 N344 1.325 . S
C342 C345 1.357 . S
C343 H311 0.928 . S
C343 C341 1.406 . S
C343 N344 1.261 . S
N344 Co295 2.214 . S
N344 C342 1.325 . S
N344 C343 1.261 . S
C345 H315 0.931 . S
C345 C342 1.357 . S
C345 C346 1.312 . S
C346 H317 0.930 . S
C346 C341 1.261 . S
C346 C345 1.312 . S
C347 O319 1.204 1_554 S
C347 O327 1.236 . S
C348 H320 0.929 . S
C348 C351 1.391 . S
C348 C353 1.391 . S
C349 H321 0.929 . S
C349 C350 1.390 . S
C349 N352 1.391 1_554 S
C350 H322 0.930 . S
C350 C349 1.390 . S
C350 C351 1.392 1_554 S
C351 H323 0.929 . S
C351 C348 1.391 . S
C351 C350 1.392 1_556 S
N352 Co296 2.257 . S
N352 C349 1.391 1_556 S
N352 C353 1.388 . S
C353 H324 0.930 . S
C353 C348 1.391 . S
C353 N352 1.388 . S
C354 C355 1.387 1_565 S
C354 H358 0.950 . S
C354 C363 1.390 . S
C355 C354 1.387 1_545 S
C355 C357 1.387 . S
H356 C363 0.950 . S
C357 C355 1.387 . S
C357 C359 1.390 . S
C357 H361 0.950 . S
H358 C354 0.950 . S
C359 C357 1.390 . S
C359 C360 1.387 . S
C359 H362 0.950 . S
C360 C359 1.387 . S
C360 C363 1.387 1_545 S
H361 C357 0.950 . S
H362 C359 0.950 . S
C363 C354 1.390 . S
C363 H356 0.950 . S
C363 C360 1.387 1_565 S
C364 C365 1.387 . S
C364 H368 0.950 . S
C364 C373 1.390 . S
C365 C364 1.387 . S
C365 C367 1.387 . S
H366 C373 0.950 . S
C367 C365 1.387 . S
C367 C369 1.390 . S
C367 H371 0.950 . S
H368 C364 0.950 . S
C369 C367 1.390 . S
C369 C370 1.387 . S
C369 H372 0.950 . S
C370 C369 1.387 . S
C370 C373 1.387 . S
H371 C367 0.950 . S
H372 C369 0.950 . S
C373 C364 1.390 . S
C373 H366 0.950 . S
C373 C370 1.387 . S
C374 C375 1.387 . S
C374 H378 0.950 . S
C374 C383 1.390 . S
C375 C374 1.387 . S
C375 C377 1.387 . S
H376 C383 0.950 . S
C377 C375 1.387 . S
C377 C379 1.390 . S
C377 H381 0.950 . S
H378 C374 0.950 . S
C379 C377 1.390 . S
C379 C380 1.387 . S
C379 H382 0.950 . S
C380 C379 1.387 . S
C380 C383 1.387 . S
H381 C377 0.950 . S
H382 C379 0.950 . S
C383 C374 1.390 . S
C383 H376 0.950 . S
C383 C380 1.387 . S
C384 C385 1.387 . S
C384 H388 0.950 . S
C384 C393 1.390 . S
C385 C384 1.387 . S
C385 C387 1.387 . S
H386 C393 0.950 . S
C387 C385 1.387 . S
C387 C389 1.390 . S
C387 H391 0.950 1_545 S
H388 C384 0.950 . S
C389 C387 1.390 . S
C389 C390 1.387 . S
C389 H392 0.950 1_545 S
C390 C389 1.387 . S
C390 C393 1.387 . S
H391 C387 0.950 1_565 S
H392 C389 0.950 1_565 S
C393 C384 1.390 . S
C393 H386 0.950 . S
C393 C390 1.387 . S
C394 C395 1.387 . S
C394 H398 0.950 . S
C394 C403 1.390 1_554 S
C395 C394 1.387 . S
C395 C397 1.387 1_554 S
H396 C403 0.950 . S
C397 C395 1.387 1_556 S
C397 C399 1.390 . S
C397 H401 0.950 . S
H398 C394 0.950 . S
C399 C397 1.390 . S
C399 C400 1.387 . S
C399 H402 0.950 . S
C400 C399 1.387 . S
C400 C403 1.387 . S
H401 C397 0.950 . S
H402 C399 0.950 . S
C403 C394 1.390 1_556 S
C403 H396 0.950 . S
C403 C400 1.387 . S
C404 C405 1.387 . S
C404 H408 0.950 . S
C404 C413 1.390 . S
C405 C404 1.387 . S
C405 C407 1.387 1_455 S
H406 C413 0.950 . S
C407 C405 1.387 1_655 S
C407 C409 1.390 . S
C407 H411 0.950 . S
H408 C404 0.950 . S
C409 C407 1.390 . S
C409 C410 1.387 1_655 S
C409 H412 0.950 . S
C410 C409 1.387 1_455 S
C410 C413 1.387 . S
H411 C407 0.950 . S
H412 C409 0.950 . S
C413 C404 1.390 . S
C413 H406 0.950 . S
C413 C410 1.387 . S
C414 C415 1.387 . S
C414 H418 0.950 . S
C414 C423 1.390 . S
C415 C414 1.387 . S
C415 C417 1.387 . S
H416 C423 0.950 . S
C417 C415 1.387 . S
C417 C419 1.390 . S
C417 H421 0.950 . S
H418 C414 0.950 . S
C419 C417 1.390 . S
C419 C420 1.387 . S
C419 H422 0.950 . S
C420 C419 1.387 . S
C420 C423 1.387 . S
H421 C417 0.950 . S
H422 C419 0.950 . S
C423 C414 1.390 . S
C423 H416 0.950 . S
C423 C420 1.387 . S
C424 C425 1.387 . S
C424 H428 0.950 . S
C424 C433 1.390 . S
C425 C424 1.387 . S
C425 C427 1.387 . S
H426 C433 0.950 . S
C427 C425 1.387 . S
C427 C429 1.390 . S
C427 H431 0.950 . S
H428 C424 0.950 . S
C429 C427 1.390 . S
C429 C430 1.387 . S
C429 H432 0.950 . S
C430 C429 1.387 . S
C430 C433 1.387 . S
H431 C427 0.950 . S
H432 C429 0.950 . S
C433 C424 1.390 . S
C433 H426 0.950 . S
C433 C430 1.387 . S
C434 C435 1.387 . S
C434 H438 0.950 . S
C434 C443 1.390 . S
C435 C434 1.387 . S
C435 C437 1.387 . S
H436 C443 0.950 . S
C437 C435 1.387 . S
C437 C439 1.390 . S
C437 H441 0.950 . S
H438 C434 0.950 . S
C439 C437 1.390 . S
C439 C440 1.387 . S
C439 H442 0.950 . S
C440 C439 1.387 . S
C440 C443 1.387 . S
H441 C437 0.950 . S
H442 C439 0.950 . S
C443 C434 1.390 . S
C443 H436 0.950 . S
C443 C440 1.387 . S
C444 C445 1.387 . S
C444 H448 0.950 . S
C444 C453 1.390 . S
C445 C444 1.387 . S
C445 C447 1.387 . S
H446 C453 0.950 . S
C447 C445 1.387 . S
C447 C449 1.390 . S
C447 H451 0.950 . S
H448 C444 0.950 . S
C449 C447 1.390 . S
C449 C450 1.387 . S
C449 H452 0.950 . S
C450 C449 1.387 . S
C450 C453 1.387 . S
H451 C447 0.950 . S
H452 C449 0.950 . S
C453 C444 1.390 . S
C453 H446 0.950 . S
C453 C450 1.387 . S
C454 C455 1.387 . S
C454 H458 0.950 . S
C454 C463 1.390 . S
C455 C454 1.387 . S
C455 C457 1.387 . S
H456 C463 0.950 . S
C457 C455 1.387 . S
C457 C459 1.390 . S
C457 H461 0.950 . S
H458 C454 0.950 . S
C459 C457 1.390 . S
C459 C460 1.387 . S
C459 H462 0.950 . S
C460 C459 1.387 . S
C460 C463 1.387 . S
H461 C457 0.950 . S
H462 C459 0.950 . S
C463 C454 1.390 . S
C463 H456 0.950 . S
C463 C460 1.387 . S
C464 C465 1.387 . S
C464 H468 0.950 . S
C464 C473 1.390 . S
C465 C464 1.387 . S
C465 C467 1.387 1_556 S
H466 C473 0.950 . S
C467 C465 1.387 1_554 S
C467 C469 1.390 . S
C467 H471 0.950 . S
H468 C464 0.950 . S
C469 C467 1.390 . S
C469 C470 1.387 1_554 S
C469 H472 0.950 . S
C470 C469 1.387 1_556 S
C470 C473 1.387 . S
H471 C467 0.950 . S
H472 C469 0.950 . S
C473 C464 1.390 . S
C473 H466 0.950 . S
C473 C470 1.387 . S
C355 C52 1.758 . S
C360 C180 1.748 . S
C365 C111 1.759 . S
C370 C239 1.748 . S
C375 C298 1.749 . S
C380 C170 1.758 . S
C385 C3 1.748 . S
C390 C229 1.758 . S
C395 C62 1.748 . S
C400 C288 1.759 . S
C405 C347 1.768 . S
C410 C121 1.749 . S
C415 C64 1.484 . S
C420 C33 1.480 . S
C425 C123 1.484 . S
C430 C92 1.478 . S
C435 C151 1.480 . S
C440 C182 1.484 . S
C445 C241 1.485 . S
C450 C210 1.478 . S
C455 C300 1.486 . S
C460 C269 1.480 . S
C465 C328 1.478 . S
C470 C5 1.485 1_556 S
