# Generated by pormake.
# Topology wni, (7)-cn, num edge types: 1
# Building blocks:
#     Node 0, Type 0, BuildingBlock: NUHQUE_clean_sbu_2, # of connection points: 7
#     Node 1, Type 0, BuildingBlock: NUHQUE_clean_sbu_2, # of connection points: 7
#     Node 2, Type 0, BuildingBlock: NUHQUE_clean_sbu_2, # of connection points: 7
#     Node 3, Type 0, BuildingBlock: NUHQUE_clean_sbu_2, # of connection points: 7
#     Node 4, Type 0, BuildingBlock: NUHQUE_clean_sbu_2, # of connection points: 7
#     Node 5, Type 0, BuildingBlock: NUHQUE_clean_sbu_2, # of connection points: 7
#     Edge 6, Type (0, 0), BuildingBlock: ZUJKAS_clean_linker_0, # of connection points: 2
#     Edge 7, Type (0, 0), BuildingBlock: ZUJKAS_clean_linker_0, # of connection points: 2
#     Edge 8, Type (0, 0), BuildingBlock: ZUJKAS_clean_linker_0, # of connection points: 2
#     Edge 9, Type (0, 0), BuildingBlock: ZUJKAS_clean_linker_0, # of connection points: 2
#     Edge 10, Type (0, 0), BuildingBlock: ZUJKAS_clean_linker_0, # of connection points: 2
#     Edge 11, Type (0, 0), BuildingBlock: ZUJKAS_clean_linker_0, # of connection points: 2
#     Edge 12, Type (0, 0), BuildingBlock: ZUJKAS_clean_linker_0, # of connection points: 2
#     Edge 13, Type (0, 0), BuildingBlock: ZUJKAS_clean_linker_0, # of connection points: 2
#     Edge 14, Type (0, 0), BuildingBlock: ZUJKAS_clean_linker_0, # of connection points: 2
#     Edge 15, Type (0, 0), BuildingBlock: ZUJKAS_clean_linker_0, # of connection points: 2
#     Edge 16, Type (0, 0), BuildingBlock: ZUJKAS_clean_linker_0, # of connection points: 2
#     Edge 17, Type (0, 0), BuildingBlock: ZUJKAS_clean_linker_0, # of connection points: 2
#     Edge 18, Type (0, 0), BuildingBlock: ZUJKAS_clean_linker_0, # of connection points: 2
#     Edge 19, Type (0, 0), BuildingBlock: ZUJKAS_clean_linker_0, # of connection points: 2
#     Edge 20, Type (0, 0), BuildingBlock: ZUJKAS_clean_linker_0, # of connection points: 2
#     Edge 21, Type (0, 0), BuildingBlock: ZUJKAS_clean_linker_0, # of connection points: 2
#     Edge 22, Type (0, 0), BuildingBlock: ZUJKAS_clean_linker_0, # of connection points: 2
#     Edge 23, Type (0, 0), BuildingBlock: ZUJKAS_clean_linker_0, # of connection points: 2
#     Edge 24, Type (0, 0), BuildingBlock: ZUJKAS_clean_linker_0, # of connection points: 2
#     Edge 25, Type (0, 0), BuildingBlock: ZUJKAS_clean_linker_0, # of connection points: 2
#     Edge 26, Type (0, 0), BuildingBlock: ZUJKAS_clean_linker_0, # of connection points: 2
# Relax obj value: 0.260
# Max RMSD: 0.302
# Mean RMSD: 0.302
data_MOF--net-wni--node1-NUHQUE_clean_sbu_2--edge1-ZUJKAS_clean_linker_0
_symmetry_space_group_name_H-M    P1
_symmetry_Int_Tables_number       1
_symmetry_cell_setting            triclinic
loop_
_symmetry_equiv_pos_as_xyz
'x, y, z'
_cell_length_a     44.895805
_cell_length_b     44.475009
_cell_length_c     38.004605
_cell_angle_alpha  90.325436
_cell_angle_beta   89.719541
_cell_angle_gamma 119.83613
loop_
_atom_site_label
_atom_site_type_symbol
_atom_site_fract_x
_atom_site_fract_y
_atom_site_fract_z
_atom_type_partial_charge
O0 O 0.29971 0.49138 0.03458 0.0
Tb1 Tb 0.27372 0.46026 0.08028 0.0
Eu2 Eu 0.16166 0.40661 0.12151 0.0
C3 C 0.32421 0.52348 0.03993 0.0
O4 O 0.33059 0.53543 0.07235 0.0
C5 C 0.20783 0.38706 0.0796 0.0
O6 O 0.12477 0.38349 0.16719 0.0
C7 C 0.1375 0.4286 0.07234 0.0
C8 C 0.13569 0.38235 0.19896 0.0
O9 O 0.16858 0.39382 0.20376 0.0
C10 C 0.23159 0.479 0.12921 0.0
C11 C 0.10637 0.42895 0.06085 0.0
C12 C 0.09581 0.42019 0.02575 0.0
C13 C 0.0669 0.42097 0.01317 0.0
C14 C 0.04831 0.4302 0.03625 0.0
C15 C 0.05826 0.43877 0.07151 0.0
C16 C 0.08757 0.43832 0.08371 0.0
O17 O 0.22031 0.4204 0.07508 0.0
O18 O 0.17912 0.37093 0.09782 0.0
O19 O 0.30215 0.43244 0.08653 0.0
O20 O 0.30525 0.46764 0.12642 0.0
C21 C 0.31595 0.44655 0.11661 0.0
O22 O 0.21681 0.44543 0.13505 0.0
O23 O 0.25969 0.49344 0.10979 0.0
O24 O 0.13625 0.39845 0.07102 0.0
O25 O 0.1541 0.44751 0.0999 0.0
H26 H 0.11058 0.41342 0.00801 0.0
H27 H 0.02593 0.43082 0.02663 0.0
H28 H 0.09542 0.44486 0.1109 0.0
O29 O 0.54371 0.82833 0.70024 0.0
Tb30 Tb 0.57228 0.83823 0.7489 0.0
Eu31 Eu 0.62209 0.77895 0.79976 0.0
C32 C 0.55199 0.85302 0.67693 0.0
O33 O 0.57924 0.8835 0.68226 0.0
C34 C 0.64457 0.84495 0.75725 0.0
O35 O 0.64298 0.76583 0.84755 0.0
C36 C 0.60029 0.73125 0.7516 0.0
C37 C 0.62592 0.73482 0.86172 0.0
O38 O 0.59634 0.71197 0.84803 0.0
C39 C 0.55158 0.77994 0.80188 0.0
C40 C 0.59653 0.69781 0.74003 0.0
C41 C 0.60575 0.69535 0.70521 0.0
C42 C 0.59959 0.66353 0.69124 0.0
C43 C 0.5845 0.63412 0.71273 0.0
C44 C 0.57487 0.63589 0.74751 0.0
C45 C 0.58127 0.66796 0.76136 0.0
O46 O 0.61217 0.82424 0.74963 0.0
O47 O 0.65918 0.8319 0.77722 0.0
O48 O 0.59802 0.89497 0.75222 0.0
O49 O 0.56119 0.8646 0.79109 0.0
C50 C 0.58187 0.89601 0.78035 0.0
O51 O 0.58461 0.7983 0.80882 0.0
O52 O 0.53823 0.7929 0.77995 0.0
O53 O 0.63141 0.75844 0.75142 0.0
O54 O 0.58087 0.73119 0.77767 0.0
H55 H 0.61651 0.71808 0.6885 0.0
H56 H 0.58021 0.60952 0.70233 0.0
H57 H 0.57337 0.66934 0.78803 0.0
O58 O 0.22148 0.74538 0.36043 0.0
Tb59 Tb 0.21699 0.76854 0.40933 0.0
Eu60 Eu 0.22912 0.84533 0.44292 0.0
C61 C 0.19336 0.7209 0.34547 0.0
O62 O 0.16352 0.71341 0.3591 0.0
C63 C 0.16289 0.79251 0.40478 0.0
O64 O 0.23856 0.88639 0.48377 0.0
C65 C 0.25864 0.87422 0.384 0.0
C66 C 0.23477 0.87906 0.5176 0.0
O67 O 0.22321 0.84683 0.52739 0.0
C68 C 0.27928 0.8165 0.45707 0.0
C69 C 0.29353 0.89722 0.37119 0.0
C70 C 0.29859 0.90784 0.33599 0.0
C71 C 0.33176 0.93044 0.32319 0.0
C72 C 0.35975 0.94214 0.34629 0.0
C73 C 0.35495 0.93163 0.38169 0.0
C74 C 0.32166 0.90889 0.39393 0.0
O75 O 0.18381 0.78587 0.38612 0.0
O76 O 0.17293 0.80932 0.43485 0.0
O77 O 0.19931 0.71527 0.42462 0.0
O78 O 0.18329 0.74486 0.45517 0.0
C79 C 0.1808 0.71453 0.45126 0.0
O80 O 0.26055 0.82776 0.47273 0.0
O81 O 0.27009 0.80012 0.42665 0.0
O82 O 0.24628 0.88809 0.40616 0.0
O83 O 0.25183 0.843 0.39305 0.0
H84 H 0.27664 0.89828 0.31859 0.0
H85 H 0.38541 0.95988 0.33683 0.0
H86 H 0.31745 0.90087 0.42126 0.0
O87 O 0.47602 0.24888 0.96246 0.0
Tb88 Tb 0.449 0.23712 0.91266 0.0
Eu89 Eu 0.38991 0.17051 0.86567 0.0
C90 C 0.46614 0.26067 0.98926 0.0
O91 O 0.43768 0.26205 0.98671 0.0
C92 C 0.37264 0.21623 0.91372 0.0
O93 O 0.3588 0.13527 0.82076 0.0
C94 C 0.3873 0.13282 0.91889 0.0
C95 C 0.36785 0.14322 0.7876 0.0
O96 O 0.39407 0.17381 0.78007 0.0
C97 C 0.46864 0.19776 0.85683 0.0
C98 C 0.40137 0.11078 0.92953 0.0
C99 C 0.39329 0.09582 0.963 0.0
C100 C 0.40742 0.07582 0.97501 0.0
C101 C 0.43007 0.07128 0.95288 0.0
C102 C 0.43873 0.0865 0.9193 0.0
C103 C 0.42403 0.10612 0.90763 0.0
O104 O 0.39704 0.21655 0.93298 0.0
O105 O 0.36874 0.20542 0.88083 0.0
O106 O 0.47964 0.29339 0.9128 0.0
O107 O 0.44708 0.26849 0.86908 0.0
C108 C 0.46884 0.29836 0.88299 0.0
O109 O 0.44109 0.19113 0.83883 0.0
O110 O 0.47259 0.20888 0.88958 0.0
O111 O 0.36454 0.12119 0.89346 0.0
O112 O 0.40969 0.16586 0.91616 0.0
H113 H 0.37648 0.10044 0.97997 0.0
H114 H 0.44033 0.05504 0.96142 0.0
H115 H 0.4306 0.1182 0.88192 0.0
O116 O 0.72353 0.17811 0.63117 0.0
Tb117 Tb 0.73414 0.17262 0.5764 0.0
Eu118 Eu 0.84968 0.2463 0.55329 0.0
C119 C 0.70626 0.1512 0.65183 0.0
O120 O 0.69961 0.12038 0.641 0.0
C121 C 0.80254 0.17162 0.58181 0.0
O122 O 0.8894 0.2582 0.51072 0.0
C123 C 0.87025 0.29608 0.59928 0.0
C124 C 0.90033 0.28652 0.49181 0.0
O125 O 0.88815 0.30734 0.49875 0.0
C126 C 0.77853 0.24487 0.54281 0.0
C127 C 0.90046 0.3283 0.61179 0.0
C128 C 0.91145 0.32949 0.64661 0.0
C129 C 0.93812 0.36026 0.66084 0.0
C130 C 0.95382 0.39002 0.63988 0.0
C131 C 0.94332 0.38938 0.60506 0.0
C132 C 0.91681 0.35835 0.59087 0.0
O133 O 0.78214 0.17614 0.56089 0.0
O134 O 0.83522 0.19544 0.58108 0.0
O135 O 0.6961 0.11827 0.56673 0.0
O136 O 0.69185 0.15781 0.53977 0.0
C137 C 0.67792 0.12454 0.5445 0.0
O138 O 0.797 0.23117 0.53166 0.0
O139 O 0.74915 0.22491 0.55912 0.0
O140 O 0.8703 0.26701 0.60501 0.0
O141 O 0.85652 0.29656 0.56898 0.0
H142 H 0.89851 0.30663 0.66302 0.0
H143 H 0.97478 0.4138 0.65053 0.0
H144 H 0.90847 0.35796 0.56407 0.0
O145 O 0.77002 0.51381 0.31401 0.0
Tb146 Tb 0.78294 0.5445 0.26639 0.0
Eu147 Eu 0.76206 0.59808 0.22279 0.0
C148 C 0.75794 0.48023 0.31121 0.0
O149 O 0.7509 0.46604 0.27972 0.0
C150 C 0.82708 0.62311 0.26634 0.0
O151 O 0.74784 0.62302 0.17948 0.0
C152 C 0.7283 0.59512 0.2795 0.0
C153 C 0.75998 0.62571 0.14739 0.0
O154 O 0.78176 0.61474 0.14092 0.0
C155 C 0.72534 0.51695 0.20925 0.0
C156 C 0.69374 0.58503 0.29219 0.0
C157 C 0.69018 0.59463 0.32641 0.0
C158 C 0.65792 0.58725 0.3393 0.0
C159 C 0.62913 0.56992 0.31735 0.0
C160 C 0.63233 0.56005 0.28292 0.0
C161 C 0.66483 0.56751 0.27049 0.0
O162 O 0.80531 0.5972 0.28605 0.0
O163 O 0.81842 0.6258 0.23409 0.0
O164 O 0.81349 0.54736 0.21978 0.0
O165 O 0.82301 0.53072 0.26867 0.0
C166 C 0.83227 0.53691 0.23594 0.0
O167 O 0.74058 0.5474 0.19379 0.0
O168 O 0.73297 0.51293 0.24168 0.0
O169 O 0.74281 0.6224 0.25898 0.0
O170 O 0.73394 0.57008 0.26956 0.0
H171 H 0.71269 0.60788 0.34301 0.0
H172 H 0.60414 0.56441 0.32691 0.0
H173 H 0.6678 0.5606 0.24382 0.0
H174 H 0.5848 0.5799 0.27225 0.0
H175 H 0.53189 0.54999 0.23806 0.0
H176 H 0.55739 0.47203 0.20728 0.0
H177 H 0.61069 0.50192 0.24185 0.0
H178 H 0.5252 0.52919 0.16109 0.0
H179 H 0.45781 0.42113 0.25686 0.0
H180 H 0.49381 0.46227 0.26996 0.0
H181 H 0.50073 0.43333 0.24265 0.0
C182 C 0.57917 0.55638 0.25822 0.0
C183 C 0.60164 0.54301 0.25998 0.0
C184 C 0.54906 0.53945 0.23859 0.0
C185 C 0.5407 0.50873 0.22049 0.0
C186 C 0.5634 0.49563 0.22134 0.0
H187 H 0.35342 0.41855 0.08984 0.0
H188 H 0.40804 0.42671 0.11295 0.0
C189 C 0.59381 0.51278 0.24087 0.0
C190 C 0.50764 0.49045 0.20158 0.0
H191 H 0.42454 0.42573 0.21181 0.0
C192 C 0.50333 0.50606 0.17157 0.0
C193 C 0.47924 0.46049 0.21568 0.0
C194 C 0.48278 0.44316 0.24813 0.0
C195 C 0.47092 0.49332 0.15612 0.0
C196 C 0.44223 0.46433 0.17117 0.0
C197 C 0.44675 0.44779 0.20028 0.0
C198 C 0.40704 0.45409 0.15974 0.0
C199 C 0.46705 0.5121 0.12508 0.0
C200 C 0.38813 0.46586 0.17904 0.0
C201 C 0.35726 0.46148 0.16588 0.0
C202 C 0.34471 0.44502 0.13332 0.0
C203 C 0.36253 0.43123 0.11507 0.0
C204 C 0.39368 0.43592 0.12815 0.0
H205 H 0.49184 0.53485 0.11708 0.0
H206 H 0.45647 0.49409 0.10234 0.0
H207 H 0.44861 0.52109 0.13165 0.0
H208 H 0.39816 0.48002 0.20344 0.0
H209 H 0.34401 0.47236 0.18044 0.0
H210 H 0.60096 0.95657 0.74551 0.0
H211 H 0.58516 1.00037 0.76147 0.0
H212 H 0.54316 0.94765 0.8597 0.0
H213 H 0.55768 0.90333 0.84325 0.0
H214 H 0.49684 0.95503 0.82102 0.0
H215 H 0.61789 0.08208 0.82894 0.0
H216 H 0.61188 0.05633 0.79018 0.0
H217 H 0.61736 0.04126 0.83201 0.0
C218 C 0.5893 0.95502 0.77096 0.0
C219 C 0.58036 0.92657 0.79315 0.0
C220 C 0.58037 0.98011 0.78009 0.0
C221 C 0.56302 0.97737 0.81184 0.0
C222 C 0.55644 0.95026 0.83503 0.0
H223 H 0.49959 0.09115 0.93745 0.0
H224 H 0.5322 0.07027 0.90369 0.0
C225 C 0.56484 0.925 0.8257 0.0
C226 C 0.54762 0.99957 0.81933 0.0
H227 H 0.56598 0.08232 0.83808 0.0
C228 C 0.51196 0.98291 0.82455 0.0
C229 C 0.56735 0.03597 0.82349 0.0
C230 C 0.60579 0.05512 0.81863 0.0
C231 C 0.49565 1.00119 0.83566 0.0
C232 C 0.51541 0.03748 0.84072 0.0
C233 C 0.55091 0.05453 0.83397 0.0
C234 C 0.50014 0.05693 0.85741 0.0
C235 C 0.45767 0.98106 0.8438 0.0
C236 C 0.47223 0.05786 0.842 0.0
C237 C 0.45344 0.06967 0.86133 0.0
C238 C 0.4622 0.08052 0.89643 0.0
C239 C 0.49185 0.08224 0.91069 0.0
C240 C 0.51068 0.07062 0.89133 0.0
H241 H 0.44774 0.95268 0.84482 0.0
H242 H 0.45209 0.9894 0.86941 0.0
H243 H 0.44337 0.98597 0.823 0.0
H244 H 0.46395 0.04782 0.81567 0.0
H245 H 0.43083 0.06823 0.84959 0.0
H246 H 0.13485 0.70565 0.50372 0.0
H247 H 0.09218 0.65042 0.53044 0.0
H248 H 0.1295 0.59607 0.46577 0.0
H249 H 0.17231 0.65073 0.43992 0.0
H250 H 0.04 0.59307 0.49764 0.0
H251 H 0.12857 0.55743 0.56166 0.0
H252 H 0.14269 0.60051 0.5454 0.0
H253 H 0.13793 0.56666 0.51578 0.0
C254 C 0.13425 0.68192 0.4958 0.0
C255 C 0.15705 0.68244 0.47007 0.0
C256 C 0.10982 0.65043 0.51087 0.0
C257 C 0.10802 0.61917 0.50048 0.0
C258 C 0.13094 0.61988 0.47487 0.0
H259 H 0.97541 0.39955 0.5414 0.0
H260 H 0.01273 0.45558 0.51281 0.0
C261 C 0.15533 0.65118 0.46001 0.0
C262 C 0.08139 0.58549 0.51505 0.0
H263 H 0.07041 0.51206 0.55504 0.0
C264 C 0.04663 0.57549 0.51049 0.0
C265 C 0.09009 0.56252 0.53173 0.0
C266 C 0.12685 0.57245 0.53927 0.0
C267 C 0.02037 0.5428 0.5215 0.0
C268 C 0.02918 0.51969 0.53744 0.0
C269 C 0.06384 0.52974 0.54226 0.0
C270 C 1.00293 0.48566 0.55132 0.0
C271 C 0.98339 0.53287 0.51563 0.0
C272 C 0.98475 0.48417 0.58194 0.0
C273 C 0.9638 0.45245 0.59832 0.0
C274 C 0.96056 0.42167 0.58425 0.0
C275 C 0.97731 0.42292 0.55253 0.0
C276 C 0.99866 0.45481 0.53634 0.0
H277 H 0.98092 0.55091 0.49735 0.0
H278 H 0.9687 0.50612 0.50488 0.0
H279 H 0.97157 0.53337 0.54119 0.0
H280 H 0.98804 0.50773 0.59408 0.0
H281 H 0.95109 0.45207 0.62277 0.0
H282 H 0.59255 0.62233 0.81209 0.0
H283 H 0.57054 0.56476 0.83889 0.0
H284 H 0.49636 0.51891 0.75538 0.0
H285 H 0.51826 0.57595 0.7286 0.0
H286 H 0.5007 0.50808 0.85918 0.0
H287 H 0.55912 0.47442 0.7474 0.0
H288 H 0.5705 0.51852 0.75776 0.0
H289 H 0.5311 0.4906 0.73513 0.0
C290 C 0.57098 0.60003 0.80008 0.0
C291 C 0.55736 0.60338 0.76809 0.0
C292 C 0.55854 0.56722 0.81525 0.0
C293 C 0.53236 0.53757 0.79861 0.0
C294 C 0.517 0.54139 0.76824 0.0
H295 H 0.44582 0.31441 0.82308 0.0
H296 H 0.45972 0.37252 0.80314 0.0
C297 C 0.52944 0.57395 0.75307 0.0
C298 C 0.5228 0.50236 0.81103 0.0
H299 H 0.52454 0.42918 0.78667 0.0
C300 C 0.506 0.49083 0.84347 0.0
C301 C 0.52971 0.47994 0.79035 0.0
C302 C 0.54885 0.49147 0.75584 0.0
C303 C 0.49535 0.45712 0.85552 0.0
C304 C 0.50227 0.4347 0.83481 0.0
C305 C 0.51908 0.44632 0.80238 0.0
C306 C 0.49347 0.39953 0.84684 0.0
C307 C 0.47621 0.44557 0.89 0.0
C308 C 0.5084 0.39558 0.8775 0.0
C309 C 0.50066 0.36264 0.88873 0.0
C310 C 0.47797 0.33296 0.86943 0.0
C311 C 0.46342 0.33687 0.83839 0.0
C312 C 0.47125 0.36998 0.82709 0.0
H313 H 0.46473 0.46178 0.89762 0.0
H314 H 0.45548 0.41805 0.88862 0.0
H315 H 0.49434 0.44799 0.91103 0.0
H316 H 0.52624 0.41803 0.89267 0.0
H317 H 0.51234 0.36042 0.91272 0.0
H318 H 0.40693 0.99831 0.38703 0.0
H319 H 0.45797 0.02112 0.42388 0.0
H320 H 0.42113 0.91996 0.46915 0.0
H321 H 0.37003 0.89644 0.43136 0.0
H322 H 0.46107 0.0176 0.50127 0.0
H323 H 0.52024 0.95099 0.42849 0.0
H324 H 0.48768 0.95783 0.40849 0.0
H325 H 0.47617 0.92641 0.44272 0.0
C326 C 0.40976 0.98078 0.40457 0.0
C327 C 0.38476 0.94548 0.40586 0.0
C328 C 0.43878 0.99391 0.4258 0.0
C329 C 0.44344 0.97209 0.44878 0.0
C330 C 0.41813 0.93702 0.45111 0.0
H331 H 0.64288 0.05486 0.55717 0.0
H332 H 0.58411 0.013 0.53846 0.0
C333 C 0.38891 0.92376 0.42976 0.0
C334 C 0.47546 0.98666 0.46941 0.0
H335 H 0.55523 0.99491 0.46835 0.0
C336 C 0.48146 0.01216 0.49465 0.0
C337 C 0.50184 0.97929 0.46079 0.0
C338 C 0.49649 0.95222 0.4336 0.0
C339 C 0.51384 0.03188 0.51013 0.0
C340 C 0.54096 0.02632 0.49953 0.0
C341 C 0.53437 0.99921 0.47614 0.0
C342 C 0.57685 0.0507 0.5097 0.0
C343 C 0.51907 0.0593 0.53684 0.0
C344 C 0.5924 0.08533 0.49873 0.0
C345 C 0.62577 0.10907 0.50915 0.0
C346 C 0.64421 0.09854 0.53061 0.0
C347 C 0.62913 0.06358 0.54059 0.0
C348 C 0.59564 0.03973 0.53005 0.0
H349 H 0.4945 0.05341 0.54975 0.0
H350 H 0.53768 0.06182 0.5574 0.0
H351 H 0.52939 0.08465 0.52337 0.0
H352 H 0.57851 0.09408 0.48238 0.0
H353 H 0.63684 0.13584 0.50101 0.0
H354 H 0.08176 0.49383 0.11719 0.0
H355 H 0.04723 0.51314 0.1505 0.0
H356 H 0.95459 0.42615 0.11008 0.0
H357 H 0.98869 0.40625 0.07785 0.0
H358 H 1.00212 0.53205 0.12236 0.0
H359 H 0.93365 0.42237 0.21429 0.0
H360 H 0.97118 0.42937 0.18993 0.0
H361 H 0.92957 0.40826 0.16938 0.0
C362 C 0.05402 0.47844 0.11614 0.0
C363 C 0.0379 0.44859 0.09487 0.0
C364 C 0.03436 0.48962 0.13491 0.0
C365 C 0.99835 0.4709 0.13297 0.0
C366 C 0.98229 0.44067 0.11245 0.0
H367 H 0.84817 0.53693 0.16614 0.0
H368 H 0.89106 0.5237 0.14139 0.0
C369 C 1.00183 0.4295 0.09378 0.0
C370 C 0.97731 0.48375 0.15061 0.0
H371 H 0.90918 0.45895 0.2061 0.0
C372 C 0.98205 0.5163 0.14103 0.0
C373 C 0.95138 0.4633 0.17515 0.0
C374 C 0.94634 0.42904 0.18808 0.0
C375 C 0.9608 0.52848 0.15454 0.0
C376 C 0.9337 0.50719 0.17766 0.0
C377 C 0.92968 0.4751 0.18801 0.0
C378 C 0.90939 0.51763 0.19203 0.0
C379 C 0.96775 0.56409 0.14414 0.0
C380 C 0.90516 0.51818 0.22856 0.0
C381 C 0.88044 0.52511 0.24257 0.0
C382 C 0.85953 0.5318 0.22034 0.0
C383 C 0.86416 0.53206 0.18378 0.0
C384 C 0.88878 0.52475 0.16969 0.0
H385 H 0.99464 0.58062 0.13497 0.0
H386 H 0.95045 0.56162 0.1222 0.0
H387 H 0.96292 0.57734 0.16645 0.0
H388 H 0.9207 0.51273 0.2463 0.0
H389 H 0.87747 0.52484 0.27089 0.0
H390 H 0.33039 0.23566 0.88055 0.0
H391 H 0.30018 0.26331 0.90779 0.0
H392 H 0.3356 0.25341 0.00998 0.0
H393 H 0.36568 0.22611 0.98327 0.0
H394 H 0.24936 0.24144 0.96272 0.0
H395 H 0.37137 0.35819 1.00101 0.0
H396 H 0.36964 0.32687 0.96945 0.0
H397 H 0.36773 0.31822 0.01581 0.0
C398 C 0.33137 0.23903 0.90885 0.0
C399 C 0.35084 0.22911 0.92966 0.0
C400 C 0.31419 0.25489 0.92436 0.0
C401 C 0.3163 0.26109 0.96083 0.0
C402 C 0.3343 0.24964 0.98172 0.0
H403 H 0.19708 0.32226 0.09543 0.0
H404 H 0.22279 0.29113 0.06635 0.0
C405 C 0.35144 0.23394 0.96634 0.0
C406 C 0.30059 0.28029 0.97729 0.0
H407 H 0.32019 0.35281 0.02564 0.0
C408 C 0.2648 0.26587 0.97633 0.0
C409 C 0.32084 0.31238 0.9947 0.0
C410 C 0.35955 0.33005 0.9951 0.0
C411 C 0.24865 0.28231 0.99303 0.0
C412 C 0.26884 0.31374 0.01158 0.0
C413 C 0.30469 0.32849 0.01184 0.0
C414 C 0.2535 0.33246 0.02989 0.0
C415 C 0.2102 0.26618 0.99022 0.0
C416 C 0.26293 0.36635 0.01979 0.0
C417 C 0.24853 0.38419 0.03651 0.0
C418 C 0.2247 0.36872 0.06403 0.0
C419 C 0.21552 0.33491 0.07444 0.0
C420 C 0.22997 0.31701 0.05765 0.0
H421 H 0.19968 0.24731 0.96811 0.0
H422 H 0.19811 0.25214 0.01493 0.0
H423 H 0.20279 0.28633 0.98639 0.0
H424 H 0.28107 0.37883 0.99852 0.0
H425 H 0.25572 0.40998 0.02746 0.0
H426 H 0.82811 0.16503 0.64518 0.0
H427 H 0.80554 0.11245 0.68167 0.0
H428 H 0.72453 0.05693 0.60642 0.0
H429 H 0.74734 0.10868 0.56982 0.0
H430 H 0.73209 0.06695 0.70957 0.0
H431 H 0.77763 1.00139 0.61682 0.0
H432 H 0.79543 0.04785 0.61758 0.0
H433 H 0.7548 0.02047 0.59678 0.0
C434 C 0.8054 0.1416 0.63665 0.0
C435 C 0.789 0.14103 0.60503 0.0
C436 C 0.79248 0.11172 0.65751 0.0
C437 C 0.76341 0.08087 0.64665 0.0
C438 C 0.74698 0.08048 0.61526 0.0
H439 H 0.63129 0.86981 0.69833 0.0
H440 H 0.66217 0.92893 0.67542 0.0
C441 C 0.75974 0.11019 0.59461 0.0
C442 C 0.75055 0.04841 0.66703 0.0
H443 H 0.73682 0.96591 0.66002 0.0
C444 C 0.73361 0.04499 0.69917 0.0
C445 C 0.75252 0.01986 0.65323 0.0
C446 C 0.77131 0.02249 0.61934 0.0
C447 C 0.7172 0.01311 0.71707 0.0
C448 C 0.7182 0.98428 0.70255 0.0
C449 C 0.73613 0.98811 0.67105 0.0
C450 C 0.69877 0.9492 0.71809 0.0
C451 C 0.69753 0.00987 0.75046 0.0
C452 C 0.70923 0.941 0.74965 0.0
C453 C 0.69156 0.90709 0.76281 0.0
C454 C 0.66301 0.88113 0.74472 0.0
C455 C 0.65275 0.88951 0.71316 0.0
C456 C 0.67044 0.92319 0.69997 0.0
H457 H 0.69594 0.03356 0.75613 0.0
H458 H 0.6711 0.98735 0.7486 0.0
H459 H 0.71039 0.00518 0.77291 0.0
H460 H 0.73137 0.96065 0.76372 0.0
H461 H 0.70019 0.90119 0.78702 0.0
H462 H 0.86016 0.61287 0.32022 0.0
H463 H 0.91679 0.65284 0.34343 0.0
H464 H 0.92717 0.73063 0.26923 0.0
H465 H 0.8707 0.6897 0.24455 0.0
H466 H 0.9835 0.72917 0.27078 0.0
H467 H 0.94804 0.73202 0.40886 0.0
H468 H 0.93229 0.68784 0.39619 0.0
H469 H 0.91613 0.71293 0.37469 0.0
C470 C 0.8743 0.63863 0.30907 0.0
C471 C 0.86093 0.64832 0.28078 0.0
C472 C 0.9066 0.66162 0.32263 0.0
C473 C 0.92588 0.69522 0.30892 0.0
C474 C 0.91259 0.705 0.28055 0.0
H475 H 0.1198 0.81695 0.42431 0.0
H476 H 0.06364 0.80091 0.39906 0.0
C477 C 0.8804 0.68164 0.26644 0.0
C478 C 0.96092 0.71874 0.32265 0.0
H479 H 0.00671 0.74361 0.39902 0.0
C480 C 0.9885 0.73297 0.29881 0.0
C481 C 0.96766 0.72482 0.35914 0.0
C482 C 0.93933 0.71391 0.38605 0.0
C483 C 0.0226 0.75067 0.3106 0.0
C484 C 0.02929 0.75292 0.34719 0.0
C485 C 1.00173 0.74117 0.37095 0.0
C486 C 0.06417 0.76454 0.36125 0.0
C487 C 0.05099 0.76638 0.28356 0.0
C488 C 0.08297 0.74917 0.34881 0.0
C489 C 0.11515 0.75872 0.36269 0.0
C490 C 0.12889 0.78308 0.39015 0.0
C491 C 0.10986 0.79805 0.40318 0.0
C492 C 0.07781 0.78896 0.38873 0.0
H493 H 0.04264 0.77499 0.26006 0.0
H494 H 0.07447 0.78891 0.29437 0.0
H495 H 0.05742 0.74649 0.27461 0.0
H496 H 0.07253 0.72925 0.32868 0.0
H497 H 0.12897 0.7465 0.35223 0.0
H498 H 0.93157 0.24988 0.46981 0.0
H499 H 0.97283 0.26427 0.42143 0.0
H500 H 0.96636 0.35578 0.39908 0.0
H501 H 0.92576 0.34201 0.44747 0.0
H502 H 0.9658 0.27209 0.35041 0.0
H503 H 0.06935 0.39491 0.40641 0.0
H504 H 0.03328 0.36407 0.43224 0.0
H505 H 0.02897 0.39391 0.40383 0.0
C506 C 0.93909 0.27318 0.45472 0.0
C507 C 0.92549 0.29489 0.46272 0.0
C508 C 0.96264 0.28133 0.42703 0.0
C509 C 0.97318 0.31143 0.40695 0.0
C510 C 0.95929 0.33287 0.41466 0.0
H511 H 0.06698 0.36139 0.19933 0.0
H512 H 0.02784 0.34259 0.24975 0.0
C513 C 0.93587 0.3248 0.44229 0.0
C514 C 0.99808 0.32017 0.37744 0.0
H515 H 0.07479 0.3844 0.34573 0.0
C516 C 0.98975 0.29654 0.34949 0.0
C517 C 0.02958 0.35188 0.37642 0.0
C518 C 0.04105 0.37751 0.40649 0.0
C519 C 0.01157 0.30415 0.32015 0.0
C520 C 0.04231 0.33654 0.3184 0.0
C521 C 0.05107 0.35974 0.34681 0.0
C522 C 0.06582 0.34698 0.28743 0.0
C523 C 1.00164 0.27722 0.29152 0.0
C524 C 0.10046 0.35649 0.2918 0.0
C525 C 0.12301 0.36757 0.26305 0.0
C526 C 0.11145 0.36952 0.22924 0.0
C527 C 0.07672 0.35994 0.2249 0.0
C528 C 0.05421 0.34896 0.25371 0.0
H529 H 0.98332 0.25082 0.30131 0.0
H530 H 0.98892 0.28321 0.26989 0.0
H531 H 0.02455 0.2771 0.28055 0.0
H532 H 0.1101 0.35537 0.31756 0.0
H533 H 0.14958 0.3748 0.26741 0.0
H534 H 0.68978 0.77236 0.8912 0.0
H535 H 0.71388 0.75516 0.93957 0.0
H536 H 0.61829 0.65897 0.94966 0.0
H537 H 0.5943 0.67557 0.90086 0.0
H538 H 0.69473 0.73995 0.00792 0.0
H539 H 0.68633 0.62488 0.9412 0.0
H540 H 0.68023 0.65675 0.91815 0.0
H541 H 0.64579 0.62358 0.94366 0.0
C542 C 0.67389 0.74753 0.90368 0.0
C543 C 0.64021 0.72522 0.89195 0.0
C544 C 0.6877 0.73773 0.93135 0.0
C545 C 0.66815 0.70547 0.94783 0.0
C546 C 0.6342 0.68358 0.93678 0.0
H547 H 0.70956 0.64324 0.15007 0.0
H548 H 0.68841 0.66375 0.10196 0.0
C549 C 0.62045 0.69323 0.90898 0.0
C550 C 0.68315 0.69486 0.97674 0.0
H551 H 0.69948 0.63096 0.00233 0.0
C552 C 0.69592 0.7162 0.00664 0.0
C553 C 0.68522 0.66414 0.97485 0.0
C554 C 0.67399 0.64119 0.9426 0.0
C555 C 0.71005 0.70732 0.03496 0.0
C556 C 0.71078 0.67587 0.03368 0.0
C557 C 0.69862 0.65489 0.00349 0.0
C558 C 0.72416 0.66421 0.06323 0.0
C559 C 0.72459 0.73206 0.06567 0.0
C560 C 0.75076 0.6568 0.05739 0.0
C561 C 0.76265 0.64466 0.08477 0.0
C562 C 0.74814 0.63963 0.11861 0.0
C563 C 0.72154 0.64713 0.12443 0.0
C564 C 0.70953 0.65907 0.09697 0.0
H565 H 0.73132 0.75882 0.05816 0.0
H566 H 0.70506 0.72349 0.08693 0.0
H567 H 0.74787 0.73265 0.07629 0.0
H568 H 0.76234 0.66039 0.03155 0.0
H569 H 0.78312 0.63909 0.07934 0.0
H570 H 0.37699 0.15246 0.71634 0.0
H571 H 0.35134 0.10859 0.66998 0.0
H572 H 0.29539 0.0304 0.74821 0.0
H573 H 0.32024 0.07427 0.79464 0.0
H574 H 0.35756 0.05242 0.65894 0.0
H575 H 0.21993 0.00975 0.6793 0.0
H576 H 0.25375 0.04838 0.69964 0.0
H577 H 0.24035 0.00645 0.71838 0.0
C578 C 0.35887 0.12602 0.7237 0.0
C579 C 0.35055 0.11699 0.75927 0.0
C580 C 0.34426 0.10091 0.69711 0.0
C581 C 0.32097 0.06617 0.70541 0.0
C582 C 0.31254 0.05711 0.74093 0.0
H583 H 0.2264 0.87207 0.58907 0.0
H584 H 0.24699 0.91803 0.63359 0.0
C585 C 0.32696 0.08226 0.76753 0.0
C586 C 0.30699 0.03926 0.67709 0.0
H587 H 0.23255 0.97435 0.64168 0.0
C588 C 0.33021 0.03558 0.655 0.0
C589 C 0.27128 0.01714 0.67188 0.0
C590 C 0.24488 0.0208 0.69332 0.0
C591 C 0.31878 0.01008 0.62848 0.0
C592 C 0.28313 0.98777 0.62356 0.0
C593 C 0.25988 0.99145 0.6455 0.0
C594 C 0.26957 0.96007 0.59618 0.0
C595 C 0.34498 0.00661 0.60645 0.0
C596 C 0.27482 0.96839 0.56024 0.0
C597 C 0.26292 0.94214 0.53464 0.0
C598 C 0.24554 0.90701 0.54448 0.0
C599 C 0.23974 0.89881 0.58051 0.0
C600 C 0.25147 0.92506 0.60604 0.0
H601 H 0.37101 0.02061 0.61832 0.0
H602 H 0.33749 0.97892 0.60301 0.0
H603 H 0.34636 0.01767 0.58 0.0
H604 H 0.28829 0.99523 0.55199 0.0
H605 H 0.26782 0.94942 0.50719 0.0
H606 H 0.37046 0.59257 0.04195 0.0
H607 H 0.40705 0.62898 0.99429 0.0
H608 H 0.36356 0.54106 0.92396 0.0
H609 H 0.32649 0.50416 0.97169 0.0
H610 H 0.4414 0.58628 0.92599 0.0
H611 H 0.37003 0.65697 0.90507 0.0
H612 H 0.37968 0.65341 0.95022 0.0
H613 H 0.35097 0.61504 0.926 0.0
C614 C 0.36853 0.5809 0.01636 0.0
C615 C 0.34547 0.54549 0.01055 0.0
C616 C 0.38945 0.60177 0.98917 0.0
C617 C 0.38784 0.58768 0.95568 0.0
C618 C 0.36507 0.55233 0.9497 0.0
H619 H 0.48734 0.73031 0.78209 0.0
H620 H 0.4476 0.67828 0.81464 0.0
C621 C 0.34384 0.53139 0.9769 0.0
C622 C 0.40998 0.61034 0.92714 0.0
H623 H 0.42572 0.68156 0.87971 0.0
C624 C 0.43782 0.60686 0.91542 0.0
C625 C 0.40493 0.63683 0.91323 0.0
C626 C 0.37463 0.64075 0.92398 0.0
C627 C 0.4617 0.63032 0.89113 0.0
C628 C 0.45766 0.65802 0.87872 0.0
C629 C 0.42892 0.66043 0.88935 0.0
C630 C 0.48358 0.68598 0.85614 0.0
C631 C 0.49109 0.62537 0.87919 0.0
C632 C 0.51727 0.70723 0.86828 0.0
C633 C 0.54008 0.73698 0.84964 0.0
C634 C 0.52946 0.74609 0.81876 0.0
C635 C 0.49621 0.72402 0.8059 0.0
C636 C 0.4735 0.69424 0.82442 0.0
H637 H 0.48474 0.59796 0.88198 0.0
H638 H 0.49802 0.6333 0.85133 0.0
H639 H 0.5139 0.64158 0.89575 0.0
H640 H 0.52541 0.70185 0.89309 0.0
H641 H 0.56542 0.75372 0.86037 0.0
H642 H 0.31383 0.86184 0.51022 0.0
H643 H 0.36481 0.8697 0.54097 0.0
H644 H 0.36816 0.79291 0.47382 0.0
H645 H 0.31748 0.78544 0.44226 0.0
H646 H 0.36768 0.81973 0.57804 0.0
H647 H 0.46807 0.86958 0.47443 0.0
H648 H 0.42702 0.8671 0.4686 0.0
H649 H 0.43093 0.82907 0.463 0.0
C650 C 0.32556 0.84682 0.50173 0.0
C651 C 0.31144 0.82276 0.47401 0.0
C652 C 0.35477 0.85144 0.51928 0.0
C653 C 0.3704 0.83205 0.50957 0.0
C654 C 0.3569 0.80861 0.48133 0.0
H655 H 0.49495 0.79293 0.65669 0.0
H656 H 0.45222 0.78634 0.61305 0.0
C657 C 0.32779 0.8042 0.46349 0.0
C658 C 0.39882 0.83425 0.53115 0.0
H659 H 0.48215 0.8522 0.5284 0.0
C660 C 0.39274 0.82692 0.56718 0.0
C661 C 0.43152 0.84379 0.51694 0.0
C662 C 0.43996 0.85317 0.47869 0.0
C663 C 0.41838 0.82883 0.58946 0.0
C664 C 0.45083 0.83753 0.57516 0.0
C665 C 0.45709 0.8451 0.53916 0.0
C666 C 0.47887 0.84031 0.59774 0.0
C667 C 0.41072 0.82234 0.62829 0.0
C668 C 0.50881 0.87244 0.60221 0.0
C669 C 0.53344 0.87623 0.62688 0.0
C670 C 0.52846 0.84793 0.64752 0.0
C671 C 0.49935 0.81532 0.64151 0.0
C672 C 0.47486 0.81153 0.61668 0.0
H673 H 0.38793 0.82442 0.63612 0.0
H674 H 0.40529 0.79576 0.63464 0.0
H675 H 0.43299 0.84097 0.64432 0.0
H676 H 0.51244 0.89492 0.5877 0.0
H677 H 0.55567 0.90167 0.63073 0.0
H678 H 0.18371 0.46143 0.18178 0.0
H679 H 0.16996 0.50063 0.21465 0.0
H680 H 0.23823 0.58522 0.14764 0.0
H681 H 0.25193 0.5464 0.11473 0.0
H682 H 0.22012 0.5592 0.25096 0.0
H683 H 0.15282 0.59654 0.1537 0.0
H684 H 0.15691 0.55833 0.14867 0.0
H685 H 0.19216 0.60029 0.13744 0.0
C686 C 0.19519 0.48819 0.17359 0.0
C687 C 0.21902 0.50084 0.14576 0.0
C688 C 0.18738 0.51057 0.19243 0.0
C689 C 0.20289 0.54579 0.18342 0.0
C690 C 0.22551 0.55806 0.15469 0.0
H691 H 0.25044 0.72152 0.31839 0.0
H692 H 0.25189 0.67928 0.27778 0.0
C693 C 0.23348 0.53582 0.13603 0.0
C694 C 0.19842 0.57057 0.20604 0.0
H695 H 0.17487 0.63274 0.20474 0.0
C696 C 0.20991 0.57505 0.24097 0.0
C697 C 0.18492 0.59106 0.19301 0.0
C698 C 0.17068 0.58616 0.15625 0.0
C699 C 0.20921 0.60017 0.26293 0.0
C700 C 0.19721 0.62179 0.24942 0.0
C701 C 0.18464 0.61656 0.21484 0.0
C702 C 0.19675 0.64935 0.27124 0.0
C703 C 0.22113 0.60318 0.30051 0.0
C704 C 0.16543 0.64741 0.27978 0.0
C705 C 0.16454 0.67159 0.30279 0.0
C706 C 0.195 0.69831 0.31758 0.0
C707 C 0.22652 0.7012 0.3076 0.0
C708 C 0.22737 0.67694 0.28459 0.0
H709 H 0.22138 0.57948 0.30914 0.0
H710 H 0.24766 0.6254 0.30278 0.0
H711 H 0.2044 0.60788 0.31866 0.0
H712 H 0.14154 0.62647 0.26958 0.0
H713 H 0.13982 0.66869 0.30975 0.0
H714 H 0.45193 0.28128 0.05198 0.0
H715 H 0.49325 0.31864 0.09645 0.0
H716 H 0.57539 0.3187 0.03703 0.0
H717 H 0.53417 0.28042 0.9932 0.0
H718 H 0.58522 0.31757 0.10716 0.0
H719 H 0.5537 0.42036 0.0755 0.0
H720 H 0.51783 0.38089 0.09114 0.0
H721 H 0.53775 0.38115 0.04986 0.0
C722 C 0.47872 0.28877 0.04872 0.0
C723 C 0.48986 0.27829 0.01886 0.0
C724 C 0.50232 0.3103 0.07402 0.0
C725 C 0.53752 0.32226 0.06952 0.0
C726 C 0.54838 0.31 0.0409 0.0
H727 H 0.70836 0.51337 0.13989 0.0
H728 H 0.66256 0.46438 0.10839 0.0
C729 C 0.52476 0.2881 0.01585 0.0
C730 C 0.56335 0.34929 0.09304 0.0
H731 H 0.59445 0.43295 0.12015 0.0
C732 C 0.58719 0.34276 0.11018 0.0
C733 C 0.56616 0.38234 0.09646 0.0
C734 C 0.54274 0.39183 0.07703 0.0
C735 C 0.61399 0.36849 0.13036 0.0
C736 C 0.61648 0.40135 0.1341 0.0
C737 C 0.59235 0.40767 0.11739 0.0
C738 C 0.64496 0.43032 0.15352 0.0
C739 C 0.64009 0.36068 0.14634 0.0
C740 C 0.65029 0.42749 0.18943 0.0
C741 C 0.67675 0.45545 0.20751 0.0
C742 C 0.698 0.48688 0.19008 0.0
C743 C 0.69247 0.48959 0.15415 0.0
C744 C 0.66626 0.4616 0.13609 0.0
H745 H 0.63951 0.33777 0.13378 0.0
H746 H 0.66644 0.3832 0.14385 0.0
H747 H 0.63431 0.35499 0.17474 0.0
H748 H 0.63369 0.40388 0.20361 0.0
H749 H 0.68015 0.45259 0.23525 0.0
H750 H 0.70407 0.20857 0.67384 0.0
H751 H 0.66691 0.21162 0.71873 0.0
H752 H 0.63117 0.10514 0.74664 0.0
H753 H 0.66768 0.10149 0.70067 0.0
H754 H 0.57889 0.11421 0.73644 0.0
H755 H 0.66845 0.22046 0.82276 0.0
H756 H 0.67549 0.23493 0.77805 0.0
H757 H 0.68314 0.20038 0.79098 0.0
C758 C 0.68897 0.18597 0.69002 0.0
C759 C 0.68878 0.15472 0.6835 0.0
C760 C 0.66783 0.18785 0.71598 0.0
C761 C 0.64652 0.15878 0.73656 0.0
C762 C 0.6475 0.12798 0.73126 0.0
H763 H 0.51763 0.18969 0.89102 0.0
H764 H 0.55909 0.17532 0.86546 0.0
C765 C 0.66845 0.12596 0.705 0.0
C766 C 0.62058 0.15964 0.76046 0.0
H767 H 0.61003 0.21058 0.82103 0.0
C768 C 0.58581 0.13494 0.75542 0.0
C769 C 0.62939 0.18617 0.78583 0.0
C770 C 0.6662 0.21169 0.79497 0.0
C771 C 0.55964 0.13742 0.77323 0.0
C772 C 0.56838 0.16585 0.79609 0.0
C773 C 0.60319 0.18918 0.80294 0.0
C774 C 0.54205 0.17288 0.81182 0.0
C775 C 0.52294 0.10972 0.76676 0.0
C776 C 0.51869 0.17647 0.7902 0.0
C777 C 0.49474 0.1844 0.80477 0.0
C778 C 0.49413 0.18963 0.84121 0.0
C779 C 0.51766 0.18623 0.86279 0.0
C780 C 0.54133 0.17789 0.84824 0.0
H781 H 0.52106 0.08407 0.76268 0.0
H782 H 0.50583 0.10762 0.78887 0.0
H783 H 0.5136 0.11604 0.74247 0.0
H784 H 0.51922 0.17353 0.76194 0.0
H785 H 0.47702 0.18689 0.78743 0.0
H786 H 0.81801 0.28033 0.48616 0.0
H787 H 0.81839 0.32891 0.45615 0.0
H788 H 0.75314 0.33365 0.53713 0.0
H789 H 0.75206 0.28452 0.56687 0.0
H790 H 0.72594 0.32758 0.47411 0.0
H791 H 0.86155 0.43202 0.46861 0.0
H792 H 0.85646 0.39173 0.45259 0.0
H793 H 0.84691 0.39552 0.49794 0.0
C794 C 0.80462 0.2924 0.49817 0.0
C795 C 0.78482 0.27848 0.52876 0.0
C796 C 0.80496 0.32031 0.48102 0.0
C797 C 0.78596 0.33514 0.49447 0.0
C798 C 0.76798 0.32264 0.52625 0.0
H799 H 0.78175 0.50344 0.37788 0.0
H800 H 0.78688 0.47008 0.42629 0.0
C801 C 0.7674 0.29457 0.54322 0.0
C802 C 0.78103 0.36016 0.47308 0.0
H803 H 0.82364 0.43459 0.42522 0.0
C804 C 0.74734 0.35129 0.46394 0.0
C805 C 0.80883 0.39128 0.46005 0.0
C806 C 0.84543 0.40339 0.47062 0.0
C807 C 0.74077 0.37178 0.44087 0.0
C808 C 0.76865 0.4016 0.42594 0.0
C809 C 0.80228 0.41148 0.43638 0.0
C810 C 0.76353 0.42147 0.39774 0.0
C811 C 0.70399 0.36104 0.43237 0.0
C812 C 0.74852 0.40514 0.36578 0.0
C813 C 0.74545 0.42401 0.3382 0.0
C814 C 0.75756 0.45971 0.34193 0.0
C815 C 0.77196 0.47593 0.37424 0.0
C816 C 0.77508 0.45697 0.40186 0.0
H817 H 0.68627 0.34489 0.45365 0.0
H818 H 0.70077 0.38396 0.42827 0.0
H819 H 0.69635 0.34533 0.40785 0.0
H820 H 0.74002 0.37791 0.36178 0.0
H821 H 0.7344 0.41074 0.31363 0.0
H822 H 0.95101 0.31399 0.69535 0.0
H823 H 0.9714 0.31817 0.75604 0.0
H824 H 0.97141 0.41449 0.76982 0.0
H825 H 0.95065 0.41026 0.70968 0.0
H826 H 0.03362 0.37498 0.78571 0.0
H827 H 0.91601 0.35463 0.85499 0.0
H828 H 0.91586 0.34238 0.80956 0.0
H829 H 0.93047 0.38683 0.82103 0.0
C830 C 0.95497 0.3358 0.71153 0.0
C831 C 0.94926 0.36181 0.69782 0.0
C832 C 0.96677 0.33824 0.74603 0.0
C833 C 0.97254 0.36645 0.76741 0.0
C834 C 0.96667 0.39229 0.75385 0.0
H835 H 0.04788 0.45621 0.96864 0.0
H836 H 0.02582 0.4402 0.90877 0.0
C837 C 0.95509 0.38998 0.71941 0.0
C838 C 0.98573 0.36978 0.80365 0.0
H839 H 0.96734 0.37829 0.88905 0.0
C840 C 0.01904 0.37523 0.80845 0.0
C841 C 0.96654 0.37002 0.83311 0.0
C842 C 0.93011 0.36283 0.82958 0.0
C843 C 0.03434 0.38265 0.8419 0.0
C844 C 0.01552 0.38407 0.87119 0.0
C845 C 0.98177 0.37739 0.86648 0.0
C846 C 0.03079 0.39426 0.90673 0.0
C847 C 0.07096 0.39043 0.84539 0.0
C848 C 0.04113 0.37383 0.92533 0.0
C849 C 0.05378 0.38295 0.95965 0.0
C850 C 0.05593 0.41244 0.97595 0.0
C851 C 0.04608 0.43309 0.95695 0.0
C852 C 0.03358 0.42405 0.92273 0.0
H853 H 0.08406 0.39526 0.81946 0.0
H854 H 0.08586 0.4134 0.86255 0.0
H855 H 0.07117 0.36796 0.85768 0.0
H856 H 0.03863 0.35042 0.91366 0.0
H857 H 0.06084 0.36637 0.97382 0.0
H858 H 0.65712 0.70721 0.6532 0.0
H859 H 0.66981 0.70051 0.59168 0.0
H860 H 0.57279 0.60547 0.58404 0.0
H861 H 0.55948 0.61252 0.64474 0.0
H862 H 0.67511 0.64586 0.56224 0.0
H863 H 0.57156 0.65834 0.49761 0.0
H864 H 0.58418 0.67141 0.54266 0.0
H865 H 0.55572 0.62654 0.53193 0.0
C866 C 0.63832 0.68519 0.63819 0.0
C867 C 0.60734 0.66035 0.65383 0.0
C868 C 0.64567 0.68131 0.60317 0.0
C869 C 0.62201 0.65277 0.58321 0.0
C870 C 0.5911 0.62805 0.59876 0.0
H871 H 0.60717 0.55076 0.38752 0.0
H872 H 0.60078 0.56947 0.44635 0.0
C873 C 0.58374 0.63189 0.63362 0.0
C874 C 0.63 0.64766 0.54657 0.0
H875 H 0.59792 0.63255 0.46308 0.0
C876 C 0.65858 0.64346 0.54042 0.0
C877 C 0.60837 0.64462 0.5182 0.0
C878 C 0.57845 0.65081 0.52282 0.0
C879 C 0.6652 0.63472 0.50687 0.0
C880 C 0.6428 0.6304 0.47887 0.0
C881 C 0.61485 0.63563 0.48477 0.0
C882 C 0.64722 0.61933 0.44343 0.0
C883 C 0.69529 0.62886 0.50184 0.0
C884 C 0.67534 0.64135 0.42234 0.0
C885 C 0.67892 0.63089 0.38859 0.0
C886 C 0.65439 0.59821 0.37537 0.0
C887 C 0.62627 0.57624 0.39671 0.0
C888 C 0.62266 0.58679 0.43037 0.0
H889 H 0.70656 0.62743 0.5273 0.0
H890 H 0.68737 0.60453 0.48687 0.0
H891 H 0.71553 0.65058 0.48639 0.0
H892 H 0.69426 0.66679 0.43182 0.0
H893 H 0.70056 0.64867 0.37262 0.0
H894 H 0.34504 0.04602 0.00875 0.0
H895 H 0.33138 0.02154 0.06793 0.0
H896 H 0.4356 0.043 0.08033 0.0
H897 H 0.45003 0.06931 0.02206 0.0
H898 H 0.33343 0.96692 0.09543 0.0
H899 H 0.42311 0.08605 0.16851 0.0
H900 H 0.41324 0.08666 0.12265 0.0
H901 H 0.44433 0.07448 0.13548 0.0
C902 C 0.36525 0.0461 0.02426 0.0
C903 C 0.39874 0.05995 0.01067 0.0
C904 C 0.35729 0.0318 0.05799 0.0
C905 C 0.3826 0.03101 0.07882 0.0
C906 C 0.41584 0.04409 0.06508 0.0
H907 H 0.38386 0.93989 0.27851 0.0
H908 H 0.39484 0.96349 0.21886 0.0
C909 C 0.42392 0.05866 0.0315 0.0
C910 C 0.37406 0.01589 0.11464 0.0
H911 H 0.3977 0.03324 0.20095 0.0
C912 C 0.34732 0.98151 0.11852 0.0
C913 C 0.39208 0.03503 0.1448 0.0
C914 C 0.41954 0.0727 0.14278 0.0
C915 C 0.33868 0.96555 0.15165 0.0
C916 C 0.35726 0.98445 0.18152 0.0
C917 C 0.38374 0.01883 0.1778 0.0
C918 C 0.34966 0.96895 0.21698 0.0
C919 C 0.31016 0.92844 0.15463 0.0
C920 C 0.3206 0.96429 0.2355 0.0
C921 C 0.31446 0.95128 0.26978 0.0
C922 C 0.33727 0.94262 0.28608 0.0
C923 C 0.36606 0.94681 0.26703 0.0
C924 C 0.37229 0.96006 0.23288 0.0
H925 H 0.30088 0.91608 0.12846 0.0
H926 H 0.31903 0.91308 0.16976 0.0
H927 H 0.28826 0.92758 0.1692 0.0
H928 H 0.30305 0.97137 0.22366 0.0
H929 H 0.29234 0.9489 0.28381 0.0
loop_
_geom_bond_atom_site_label_1
_geom_bond_atom_site_label_2
_geom_bond_distance
_geom_bond_site_symmetry_2
_ccdc_geom_bond_type
O0 Tb1 2.292 . S
O0 C3 1.255 1_554 S
Tb1 O0 2.292 . S
Tb1 O17 2.326 . S
Tb1 O19 2.500 . S
Tb1 O20 2.473 . S
Tb1 O23 2.324 . S
Eu2 O6 2.292 . S
Eu2 C7 2.852 . S
Eu2 O18 2.324 . S
Eu2 O22 2.326 . S
Eu2 O24 2.500 . S
Eu2 O25 2.473 . S
C3 O0 1.255 1_556 S
C3 O4 1.247 . S
O4 C3 1.247 . S
C5 O17 1.242 . S
C5 O18 1.258 . S
O6 Eu2 2.292 . S
O6 C8 1.255 . S
C7 Eu2 2.852 . S
C7 C11 1.503 . S
C7 O24 1.273 . S
C7 O25 1.257 . S
C8 O6 1.255 . S
C8 O9 1.247 . S
O9 C8 1.247 . S
C10 O22 1.242 . S
C10 O23 1.258 . S
C11 C7 1.503 . S
C11 C12 1.379 . S
C11 C16 1.392 . S
C12 C11 1.379 . S
C12 C13 1.404 1_554 S
C12 H26 0.929 . S
C13 C12 1.404 1_556 S
C13 C14 1.389 1_556 S
C14 C13 1.389 1_554 S
C14 C15 1.399 . S
C14 H27 0.931 1_554 S
C15 C14 1.399 . S
C15 C16 1.390 . S
C16 C11 1.392 . S
C16 C15 1.390 . S
C16 H28 0.929 . S
O17 Tb1 2.326 . S
O17 C5 1.242 . S
O18 Eu2 2.324 . S
O18 C5 1.258 . S
O19 Tb1 2.500 . S
O19 C21 1.273 . S
O20 Tb1 2.473 . S
O20 C21 1.257 . S
C21 O19 1.273 . S
C21 O20 1.257 . S
O22 Eu2 2.326 . S
O22 C10 1.242 . S
O23 Tb1 2.324 . S
O23 C10 1.258 . S
O24 Eu2 2.500 . S
O24 C7 1.273 . S
O25 Eu2 2.473 . S
O25 C7 1.257 . S
H26 C12 0.929 . S
H27 C14 0.931 1_556 S
H28 C16 0.929 . S
O29 Tb30 2.292 . S
O29 C32 1.255 . S
Tb30 O29 2.292 . S
Tb30 O46 2.326 . S
Tb30 O48 2.500 . S
Tb30 O49 2.473 . S
Tb30 O52 2.324 . S
Eu31 O35 2.292 . S
Eu31 C36 2.852 . S
Eu31 O47 2.324 . S
Eu31 O51 2.326 . S
Eu31 O53 2.500 . S
Eu31 O54 2.473 . S
C32 O29 1.255 . S
C32 O33 1.247 . S
O33 C32 1.247 . S
C34 O46 1.242 . S
C34 O47 1.258 . S
O35 Eu31 2.292 . S
O35 C37 1.255 . S
C36 Eu31 2.852 . S
C36 C40 1.503 . S
C36 O53 1.273 . S
C36 O54 1.257 . S
C37 O35 1.255 . S
C37 O38 1.247 . S
O38 C37 1.247 . S
C39 O51 1.242 . S
C39 O52 1.258 . S
C40 C36 1.503 . S
C40 C41 1.379 . S
C40 C45 1.392 . S
C41 C40 1.379 . S
C41 C42 1.404 . S
C41 H55 0.929 . S
C42 C41 1.404 . S
C42 C43 1.389 . S
C43 C42 1.389 . S
C43 C44 1.399 . S
C43 H56 0.931 . S
C44 C43 1.399 . S
C44 C45 1.390 . S
C45 C40 1.392 . S
C45 C44 1.390 . S
C45 H57 0.929 . S
O46 Tb30 2.326 . S
O46 C34 1.242 . S
O47 Eu31 2.324 . S
O47 C34 1.258 . S
O48 Tb30 2.500 . S
O48 C50 1.273 . S
O49 Tb30 2.473 . S
O49 C50 1.257 . S
C50 O48 1.273 . S
C50 O49 1.257 . S
O51 Eu31 2.326 . S
O51 C39 1.242 . S
O52 Tb30 2.324 . S
O52 C39 1.258 . S
O53 Eu31 2.500 . S
O53 C36 1.273 . S
O54 Eu31 2.473 . S
O54 C36 1.257 . S
H55 C41 0.929 . S
H56 C43 0.931 . S
H57 C45 0.929 . S
O58 Tb59 2.292 . S
O58 C61 1.255 . S
Tb59 O58 2.292 . S
Tb59 O75 2.326 . S
Tb59 O77 2.500 . S
Tb59 O78 2.473 . S
Tb59 O81 2.324 . S
Eu60 O64 2.292 . S
Eu60 C65 2.852 . S
Eu60 O76 2.324 . S
Eu60 O80 2.326 . S
Eu60 O82 2.500 . S
Eu60 O83 2.473 . S
C61 O58 1.255 . S
C61 O62 1.247 . S
O62 C61 1.247 . S
C63 O75 1.242 . S
C63 O76 1.258 . S
O64 Eu60 2.292 . S
O64 C66 1.255 . S
C65 Eu60 2.852 . S
C65 C69 1.503 . S
C65 O82 1.273 . S
C65 O83 1.257 . S
C66 O64 1.255 . S
C66 O67 1.247 . S
O67 C66 1.247 . S
C68 O80 1.242 . S
C68 O81 1.258 . S
C69 C65 1.503 . S
C69 C70 1.379 . S
C69 C74 1.392 . S
C70 C69 1.379 . S
C70 C71 1.404 . S
C70 H84 0.929 . S
C71 C70 1.404 . S
C71 C72 1.389 . S
C72 C71 1.389 . S
C72 C73 1.399 . S
C72 H85 0.931 . S
C73 C72 1.399 . S
C73 C74 1.390 . S
C74 C69 1.392 . S
C74 C73 1.390 . S
C74 H86 0.929 . S
O75 Tb59 2.326 . S
O75 C63 1.242 . S
O76 Eu60 2.324 . S
O76 C63 1.258 . S
O77 Tb59 2.500 . S
O77 C79 1.273 . S
O78 Tb59 2.473 . S
O78 C79 1.257 . S
C79 O77 1.273 . S
C79 O78 1.257 . S
O80 Eu60 2.326 . S
O80 C68 1.242 . S
O81 Tb59 2.324 . S
O81 C68 1.258 . S
O82 Eu60 2.500 . S
O82 C65 1.273 . S
O83 Eu60 2.473 . S
O83 C65 1.257 . S
H84 C70 0.929 . S
H85 C72 0.931 . S
H86 C74 0.929 . S
O87 Tb88 2.292 . S
O87 C90 1.255 1_556 S
Tb88 O87 2.292 . S
Tb88 O104 2.326 . S
Tb88 O106 2.500 . S
Tb88 O107 2.473 . S
Tb88 O110 2.324 . S
Eu89 O93 2.292 . S
Eu89 C94 2.852 . S
Eu89 O105 2.324 . S
Eu89 O109 2.326 . S
Eu89 O111 2.500 . S
Eu89 O112 2.473 . S
C90 O87 1.255 1_554 S
C90 O91 1.247 . S
O91 C90 1.247 . S
C92 O104 1.242 . S
C92 O105 1.258 . S
O93 Eu89 2.292 . S
O93 C95 1.255 . S
C94 Eu89 2.852 . S
C94 C98 1.503 . S
C94 O111 1.273 . S
C94 O112 1.257 . S
C95 O93 1.255 . S
C95 O96 1.247 . S
O96 C95 1.247 . S
C97 O109 1.242 . S
C97 O110 1.258 . S
C98 C94 1.503 . S
C98 C99 1.379 . S
C98 C103 1.392 . S
C99 C98 1.379 . S
C99 C100 1.404 1_556 S
C99 H113 0.929 . S
C100 C99 1.404 1_554 S
C100 C101 1.389 1_554 S
C101 C100 1.389 1_556 S
C101 C102 1.399 . S
C101 H114 0.931 1_556 S
C102 C101 1.399 . S
C102 C103 1.390 . S
C103 C98 1.392 . S
C103 C102 1.390 . S
C103 H115 0.929 . S
O104 Tb88 2.326 . S
O104 C92 1.242 . S
O105 Eu89 2.324 . S
O105 C92 1.258 . S
O106 Tb88 2.500 . S
O106 C108 1.273 . S
O107 Tb88 2.473 . S
O107 C108 1.257 . S
C108 O106 1.273 . S
C108 O107 1.257 . S
O109 Eu89 2.326 . S
O109 C97 1.242 . S
O110 Tb88 2.324 . S
O110 C97 1.258 . S
O111 Eu89 2.500 . S
O111 C94 1.273 . S
O112 Eu89 2.473 . S
O112 C94 1.257 . S
H113 C99 0.929 . S
H114 C101 0.931 1_554 S
H115 C103 0.929 . S
O116 Tb117 2.292 . S
O116 C119 1.255 . S
Tb117 O116 2.292 . S
Tb117 O133 2.326 . S
Tb117 O135 2.500 . S
Tb117 O136 2.473 . S
Tb117 O139 2.324 . S
Eu118 O122 2.292 . S
Eu118 C123 2.852 . S
Eu118 O134 2.324 . S
Eu118 O138 2.326 . S
Eu118 O140 2.500 . S
Eu118 O141 2.473 . S
C119 O116 1.255 . S
C119 O120 1.247 . S
O120 C119 1.247 . S
C121 O133 1.242 . S
C121 O134 1.258 . S
O122 Eu118 2.292 . S
O122 C124 1.255 . S
C123 Eu118 2.852 . S
C123 C127 1.503 . S
C123 O140 1.273 . S
C123 O141 1.257 . S
C124 O122 1.255 . S
C124 O125 1.247 . S
O125 C124 1.247 . S
C126 O138 1.242 . S
C126 O139 1.258 . S
C127 C123 1.503 . S
C127 C128 1.379 . S
C127 C132 1.392 . S
C128 C127 1.379 . S
C128 C129 1.404 . S
C128 H142 0.929 . S
C129 C128 1.404 . S
C129 C130 1.389 . S
C130 C129 1.389 . S
C130 C131 1.399 . S
C130 H143 0.931 . S
C131 C130 1.399 . S
C131 C132 1.390 . S
C132 C127 1.392 . S
C132 C131 1.390 . S
C132 H144 0.929 . S
O133 Tb117 2.326 . S
O133 C121 1.242 . S
O134 Eu118 2.324 . S
O134 C121 1.258 . S
O135 Tb117 2.500 . S
O135 C137 1.273 . S
O136 Tb117 2.473 . S
O136 C137 1.257 . S
C137 O135 1.273 . S
C137 O136 1.257 . S
O138 Eu118 2.326 . S
O138 C126 1.242 . S
O139 Tb117 2.324 . S
O139 C126 1.258 . S
O140 Eu118 2.500 . S
O140 C123 1.273 . S
O141 Eu118 2.473 . S
O141 C123 1.257 . S
H142 C128 0.929 . S
H143 C130 0.931 . S
H144 C132 0.929 . S
O145 Tb146 2.292 . S
O145 C148 1.255 . S
Tb146 O145 2.292 . S
Tb146 O162 2.326 . S
Tb146 O164 2.500 . S
Tb146 O165 2.473 . S
Tb146 O168 2.324 . S
Eu147 O151 2.292 . S
Eu147 C152 2.852 . S
Eu147 O163 2.324 . S
Eu147 O167 2.326 . S
Eu147 O169 2.500 . S
Eu147 O170 2.473 . S
C148 O145 1.255 . S
C148 O149 1.247 . S
O149 C148 1.247 . S
C150 O162 1.242 . S
C150 O163 1.258 . S
O151 Eu147 2.292 . S
O151 C153 1.255 . S
C152 Eu147 2.852 . S
C152 C156 1.503 . S
C152 O169 1.273 . S
C152 O170 1.257 . S
C153 O151 1.255 . S
C153 O154 1.247 . S
O154 C153 1.247 . S
C155 O167 1.242 . S
C155 O168 1.258 . S
C156 C152 1.503 . S
C156 C157 1.379 . S
C156 C161 1.392 . S
C157 C156 1.379 . S
C157 C158 1.404 . S
C157 H171 0.929 . S
C158 C157 1.404 . S
C158 C159 1.389 . S
C159 C158 1.389 . S
C159 C160 1.399 . S
C159 H172 0.931 . S
C160 C159 1.399 . S
C160 C161 1.390 . S
C161 C156 1.392 . S
C161 C160 1.390 . S
C161 H173 0.929 . S
O162 Tb146 2.326 . S
O162 C150 1.242 . S
O163 Eu147 2.324 . S
O163 C150 1.258 . S
O164 Tb146 2.500 . S
O164 C166 1.273 . S
O165 Tb146 2.473 . S
O165 C166 1.257 . S
C166 O164 1.273 . S
C166 O165 1.257 . S
O167 Eu147 2.326 . S
O167 C155 1.242 . S
O168 Tb146 2.324 . S
O168 C155 1.258 . S
O169 Eu147 2.500 . S
O169 C152 1.273 . S
O170 Eu147 2.473 . S
O170 C152 1.257 . S
H171 C157 0.929 . S
H172 C159 0.931 . S
H173 C161 0.929 . S
H174 C182 0.929 . S
H175 C184 0.930 . S
H176 C186 0.930 . S
H177 C189 0.929 . S
H178 C192 0.930 . S
H179 C194 0.960 . S
H180 C194 0.960 . S
H181 C194 0.960 . S
C182 H174 0.929 . S
C182 C183 1.377 . S
C182 C184 1.384 . S
C183 C182 1.377 . S
C183 C189 1.390 . S
C184 H175 0.930 . S
C184 C182 1.384 . S
C184 C185 1.372 . S
C185 C184 1.372 . S
C185 C186 1.400 . S
C185 C190 1.490 . S
C186 H176 0.930 . S
C186 C185 1.400 . S
C186 C189 1.386 . S
H187 C203 0.930 . S
H188 C204 0.931 . S
C189 H177 0.929 . S
C189 C183 1.390 . S
C189 C186 1.386 . S
C190 C185 1.490 . S
C190 C192 1.395 . S
C190 C193 1.403 . S
H191 C197 0.930 . S
C192 H178 0.930 . S
C192 C190 1.395 . S
C192 C195 1.403 . S
C193 C190 1.403 . S
C193 C194 1.524 . S
C193 C197 1.400 . S
C194 H179 0.960 . S
C194 H180 0.960 . S
C194 H181 0.960 . S
C194 C193 1.524 . S
C195 C192 1.403 . S
C195 C196 1.392 . S
C195 C199 1.495 . S
C196 C195 1.392 . S
C196 C197 1.385 . S
C196 C198 1.478 . S
C197 H191 0.930 . S
C197 C193 1.400 . S
C197 C196 1.385 . S
C198 C196 1.478 . S
C198 C200 1.381 . S
C198 C204 1.383 . S
C199 C195 1.495 . S
C199 H205 0.959 . S
C199 H206 0.961 . S
C199 H207 0.960 . S
C200 C198 1.381 . S
C200 C201 1.394 . S
C200 H208 0.930 . S
C201 C200 1.394 . S
C201 C202 1.383 . S
C201 H209 0.929 . S
C202 C201 1.383 . S
C202 C203 1.377 . S
C203 H187 0.930 . S
C203 C202 1.377 . S
C203 C204 1.379 . S
C204 H188 0.931 . S
C204 C198 1.383 . S
C204 C203 1.379 . S
H205 C199 0.959 . S
H206 C199 0.961 . S
H207 C199 0.960 . S
H208 C200 0.930 . S
H209 C201 0.929 . S
H210 C218 0.929 . S
H211 C220 0.930 . S
H212 C222 0.930 . S
H213 C225 0.929 . S
H214 C228 0.930 . S
H215 C230 0.960 . S
H216 C230 0.960 . S
H217 C230 0.960 . S
C218 H210 0.929 . S
C218 C219 1.377 . S
C218 C220 1.384 . S
C219 C218 1.377 . S
C219 C225 1.390 . S
C220 H211 0.930 . S
C220 C218 1.384 . S
C220 C221 1.372 . S
C221 C220 1.372 . S
C221 C222 1.400 . S
C221 C226 1.490 . S
C222 H212 0.930 . S
C222 C221 1.400 . S
C222 C225 1.386 . S
H223 C239 0.930 1_545 S
H224 C240 0.931 . S
C225 H213 0.929 . S
C225 C219 1.390 . S
C225 C222 1.386 . S
C226 C221 1.490 . S
C226 C228 1.395 . S
C226 C229 1.403 . S
H227 C233 0.930 . S
C228 H214 0.930 . S
C228 C226 1.395 . S
C228 C231 1.403 . S
C229 C226 1.403 . S
C229 C230 1.524 . S
C229 C233 1.400 . S
C230 H215 0.960 . S
C230 H216 0.960 . S
C230 H217 0.960 . S
C230 C229 1.524 . S
C231 C228 1.403 . S
C231 C232 1.392 . S
C231 C235 1.495 . S
C232 C231 1.392 . S
C232 C233 1.385 . S
C232 C234 1.478 . S
C233 H227 0.930 . S
C233 C229 1.400 . S
C233 C232 1.385 . S
C234 C232 1.478 . S
C234 C236 1.381 . S
C234 C240 1.383 . S
C235 C231 1.495 . S
C235 H241 0.959 . S
C235 H242 0.961 . S
C235 H243 0.960 . S
C236 C234 1.381 . S
C236 C237 1.394 1_565 S
C236 H244 0.930 . S
C237 C236 1.394 1_545 S
C237 C238 1.383 . S
C237 H245 0.929 . S
C238 C237 1.383 . S
C238 C239 1.377 1_545 S
C239 H223 0.930 1_565 S
C239 C238 1.377 1_565 S
C239 C240 1.379 . S
C240 H224 0.931 . S
C240 C234 1.383 . S
C240 C239 1.379 . S
H241 C235 0.959 . S
H242 C235 0.961 . S
H243 C235 0.960 . S
H244 C236 0.930 . S
H245 C237 0.929 . S
H246 C254 0.929 . S
H247 C256 0.930 . S
H248 C258 0.930 . S
H249 C261 0.929 . S
H250 C264 0.930 . S
H251 C266 0.960 . S
H252 C266 0.960 . S
H253 C266 0.960 . S
C254 H246 0.929 . S
C254 C255 1.377 . S
C254 C256 1.384 . S
C255 C254 1.377 . S
C255 C261 1.390 . S
C256 H247 0.930 . S
C256 C254 1.384 . S
C256 C257 1.372 . S
C257 C256 1.372 . S
C257 C258 1.400 . S
C257 C262 1.490 . S
C258 H248 0.930 . S
C258 C257 1.400 . S
C258 C261 1.386 . S
H259 C275 0.930 . S
H260 C276 0.931 . S
C261 H249 0.929 . S
C261 C255 1.390 . S
C261 C258 1.386 . S
C262 C257 1.490 . S
C262 C264 1.395 . S
C262 C265 1.403 . S
H263 C269 0.930 . S
C264 H250 0.930 . S
C264 C262 1.395 . S
C264 C267 1.403 . S
C265 C262 1.403 . S
C265 C266 1.524 . S
C265 C269 1.400 . S
C266 H251 0.960 . S
C266 H252 0.960 . S
C266 H253 0.960 . S
C266 C265 1.524 . S
C267 C264 1.403 . S
C267 C268 1.392 . S
C267 C271 1.495 . S
C268 C267 1.392 . S
C268 C269 1.385 . S
C268 C270 1.478 . S
C269 H263 0.930 . S
C269 C265 1.400 . S
C269 C268 1.385 . S
C270 C268 1.478 . S
C270 C272 1.381 1_455 S
C270 C276 1.383 . S
C271 C267 1.495 . S
C271 H277 0.959 . S
C271 H278 0.961 . S
C271 H279 0.960 1_455 S
C272 C270 1.381 1_655 S
C272 C273 1.394 . S
C272 H280 0.930 . S
C273 C272 1.394 . S
C273 C274 1.383 . S
C273 H281 0.929 . S
C274 C273 1.383 . S
C274 C275 1.377 1_655 S
C275 H259 0.930 . S
C275 C274 1.377 1_455 S
C275 C276 1.379 . S
C276 H260 0.931 . S
C276 C270 1.383 . S
C276 C275 1.379 . S
H277 C271 0.959 . S
H278 C271 0.961 . S
H279 C271 0.960 1_655 S
H280 C272 0.930 . S
H281 C273 0.929 . S
H282 C290 0.929 . S
H283 C292 0.930 . S
H284 C294 0.930 . S
H285 C297 0.929 . S
H286 C300 0.930 . S
H287 C302 0.960 . S
H288 C302 0.960 . S
H289 C302 0.960 . S
C290 H282 0.929 . S
C290 C291 1.377 . S
C290 C292 1.384 . S
C291 C290 1.377 . S
C291 C297 1.390 . S
C292 H283 0.930 . S
C292 C290 1.384 . S
C292 C293 1.372 . S
C293 C292 1.372 . S
C293 C294 1.400 . S
C293 C298 1.490 . S
C294 H284 0.930 . S
C294 C293 1.400 . S
C294 C297 1.386 . S
H295 C311 0.930 . S
H296 C312 0.931 . S
C297 H285 0.929 . S
C297 C291 1.390 . S
C297 C294 1.386 . S
C298 C293 1.490 . S
C298 C300 1.395 . S
C298 C301 1.403 . S
H299 C305 0.930 . S
C300 H286 0.930 . S
C300 C298 1.395 . S
C300 C303 1.403 . S
C301 C298 1.403 . S
C301 C302 1.524 . S
C301 C305 1.400 . S
C302 H287 0.960 . S
C302 H288 0.960 . S
C302 H289 0.960 . S
C302 C301 1.524 . S
C303 C300 1.403 . S
C303 C304 1.392 . S
C303 C307 1.495 . S
C304 C303 1.392 . S
C304 C305 1.385 . S
C304 C306 1.478 . S
C305 H299 0.930 . S
C305 C301 1.400 . S
C305 C304 1.385 . S
C306 C304 1.478 . S
C306 C308 1.381 . S
C306 C312 1.383 . S
C307 C303 1.495 . S
C307 H313 0.959 . S
C307 H314 0.961 . S
C307 H315 0.960 . S
C308 C306 1.381 . S
C308 C309 1.394 . S
C308 H316 0.930 . S
C309 C308 1.394 . S
C309 C310 1.383 . S
C309 H317 0.929 . S
C310 C309 1.383 . S
C310 C311 1.377 . S
C311 H295 0.930 . S
C311 C310 1.377 . S
C311 C312 1.379 . S
C312 H296 0.931 . S
C312 C306 1.383 . S
C312 C311 1.379 . S
H313 C307 0.959 . S
H314 C307 0.961 . S
H315 C307 0.960 . S
H316 C308 0.930 . S
H317 C309 0.929 . S
H318 C326 0.929 . S
H319 C328 0.930 . S
H320 C330 0.930 . S
H321 C333 0.929 . S
H322 C336 0.930 . S
H323 C338 0.960 . S
H324 C338 0.960 . S
H325 C338 0.960 . S
C326 H318 0.929 . S
C326 C327 1.377 1_545 S
C326 C328 1.384 . S
C327 C326 1.377 1_565 S
C327 C333 1.390 . S
C328 H319 0.930 . S
C328 C326 1.384 . S
C328 C329 1.372 . S
C329 C328 1.372 . S
C329 C330 1.400 1_545 S
C329 C334 1.490 . S
C330 H320 0.930 . S
C330 C329 1.400 1_565 S
C330 C333 1.386 . S
H331 C347 0.930 . S
H332 C348 0.931 . S
C333 H321 0.929 . S
C333 C327 1.390 . S
C333 C330 1.386 . S
C334 C329 1.490 . S
C334 C336 1.395 . S
C334 C337 1.403 . S
H335 C341 0.930 . S
C336 H322 0.930 . S
C336 C334 1.395 . S
C336 C339 1.403 . S
C337 C334 1.403 . S
C337 C338 1.524 . S
C337 C341 1.400 . S
C338 H323 0.960 . S
C338 H324 0.960 . S
C338 H325 0.960 . S
C338 C337 1.524 . S
C339 C336 1.403 . S
C339 C340 1.392 . S
C339 C343 1.495 . S
C340 C339 1.392 . S
C340 C341 1.385 . S
C340 C342 1.478 . S
C341 H335 0.930 . S
C341 C337 1.400 . S
C341 C340 1.385 . S
C342 C340 1.478 . S
C342 C344 1.381 . S
C342 C348 1.383 . S
C343 C339 1.495 . S
C343 H349 0.959 . S
C343 H350 0.961 . S
C343 H351 0.960 . S
C344 C342 1.381 . S
C344 C345 1.394 . S
C344 H352 0.930 . S
C345 C344 1.394 . S
C345 C346 1.383 . S
C345 H353 0.929 . S
C346 C345 1.383 . S
C346 C347 1.377 . S
C347 H331 0.930 . S
C347 C346 1.377 . S
C347 C348 1.379 . S
C348 H332 0.931 . S
C348 C342 1.383 . S
C348 C347 1.379 . S
H349 C343 0.959 . S
H350 C343 0.961 . S
H351 C343 0.960 . S
H352 C344 0.930 . S
H353 C345 0.929 . S
H354 C362 0.929 . S
H355 C364 0.930 . S
H356 C366 0.930 . S
H357 C369 0.929 . S
H358 C372 0.930 . S
H359 C374 0.960 . S
H360 C374 0.960 . S
H361 C374 0.960 . S
C362 H354 0.929 . S
C362 C363 1.377 . S
C362 C364 1.384 . S
C363 C362 1.377 . S
C363 C369 1.390 1_455 S
C364 H355 0.930 . S
C364 C362 1.384 . S
C364 C365 1.372 1_455 S
C365 C364 1.372 1_655 S
C365 C366 1.400 . S
C365 C370 1.490 . S
C366 H356 0.930 . S
C366 C365 1.400 . S
C366 C369 1.386 . S
H367 C383 0.930 . S
H368 C384 0.931 . S
C369 H357 0.929 . S
C369 C363 1.390 1_655 S
C369 C366 1.386 . S
C370 C365 1.490 . S
C370 C372 1.395 . S
C370 C373 1.403 . S
H371 C377 0.930 . S
C372 H358 0.930 . S
C372 C370 1.395 . S
C372 C375 1.403 . S
C373 C370 1.403 . S
C373 C374 1.524 . S
C373 C377 1.400 . S
C374 H359 0.960 . S
C374 H360 0.960 . S
C374 H361 0.960 . S
C374 C373 1.524 . S
C375 C372 1.403 . S
C375 C376 1.392 . S
C375 C379 1.495 . S
C376 C375 1.392 . S
C376 C377 1.385 . S
C376 C378 1.478 . S
C377 H371 0.930 . S
C377 C373 1.400 . S
C377 C376 1.385 . S
C378 C376 1.478 . S
C378 C380 1.381 . S
C378 C384 1.383 . S
C379 C375 1.495 . S
C379 H385 0.959 . S
C379 H386 0.961 . S
C379 H387 0.960 . S
C380 C378 1.381 . S
C380 C381 1.394 . S
C380 H388 0.930 . S
C381 C380 1.394 . S
C381 C382 1.383 . S
C381 H389 0.929 . S
C382 C381 1.383 . S
C382 C383 1.377 . S
C383 H367 0.930 . S
C383 C382 1.377 . S
C383 C384 1.379 . S
C384 H368 0.931 . S
C384 C378 1.383 . S
C384 C383 1.379 . S
H385 C379 0.959 . S
H386 C379 0.961 . S
H387 C379 0.960 . S
H388 C380 0.930 . S
H389 C381 0.929 . S
H390 C398 0.929 . S
H391 C400 0.930 . S
H392 C402 0.930 . S
H393 C405 0.929 . S
H394 C408 0.930 . S
H395 C410 0.960 . S
H396 C410 0.960 . S
H397 C410 0.960 . S
C398 H390 0.929 . S
C398 C399 1.377 . S
C398 C400 1.384 . S
C399 C398 1.377 . S
C399 C405 1.390 . S
C400 H391 0.930 . S
C400 C398 1.384 . S
C400 C401 1.372 . S
C401 C400 1.372 . S
C401 C402 1.400 . S
C401 C406 1.490 . S
C402 H392 0.930 . S
C402 C401 1.400 . S
C402 C405 1.386 . S
H403 C419 0.930 . S
H404 C420 0.931 . S
C405 H393 0.929 . S
C405 C399 1.390 . S
C405 C402 1.386 . S
C406 C401 1.490 . S
C406 C408 1.395 1_556 S
C406 C409 1.403 . S
H407 C413 0.930 . S
C408 H394 0.930 . S
C408 C406 1.395 1_554 S
C408 C411 1.403 . S
C409 C406 1.403 . S
C409 C410 1.524 . S
C409 C413 1.400 . S
C410 H395 0.960 . S
C410 H396 0.960 . S
C410 H397 0.960 . S
C410 C409 1.524 . S
C411 C408 1.403 . S
C411 C412 1.392 . S
C411 C415 1.495 . S
C412 C411 1.392 . S
C412 C413 1.385 1_554 S
C412 C414 1.478 . S
C413 H407 0.930 . S
C413 C409 1.400 . S
C413 C412 1.385 1_556 S
C414 C412 1.478 . S
C414 C416 1.381 . S
C414 C420 1.383 . S
C415 C411 1.495 . S
C415 H421 0.959 . S
C415 H422 0.961 . S
C415 H423 0.960 . S
C416 C414 1.381 . S
C416 C417 1.394 . S
C416 H424 0.930 . S
C417 C416 1.394 . S
C417 C418 1.383 . S
C417 H425 0.929 . S
C418 C417 1.383 . S
C418 C419 1.377 . S
C419 H403 0.930 . S
C419 C418 1.377 . S
C419 C420 1.379 . S
C420 H404 0.931 . S
C420 C414 1.383 . S
C420 C419 1.379 . S
H421 C415 0.959 . S
H422 C415 0.961 . S
H423 C415 0.960 . S
H424 C416 0.930 . S
H425 C417 0.929 . S
H426 C434 0.929 . S
H427 C436 0.930 . S
H428 C438 0.930 . S
H429 C441 0.929 . S
H430 C444 0.930 . S
H431 C446 0.960 1_565 S
H432 C446 0.960 . S
H433 C446 0.960 . S
C434 H426 0.929 . S
C434 C435 1.377 . S
C434 C436 1.384 . S
C435 C434 1.377 . S
C435 C441 1.390 . S
C436 H427 0.930 . S
C436 C434 1.384 . S
C436 C437 1.372 . S
C437 C436 1.372 . S
C437 C438 1.400 . S
C437 C442 1.490 . S
C438 H428 0.930 . S
C438 C437 1.400 . S
C438 C441 1.386 . S
H439 C455 0.930 . S
H440 C456 0.931 . S
C441 H429 0.929 . S
C441 C435 1.390 . S
C441 C438 1.386 . S
C442 C437 1.490 . S
C442 C444 1.395 . S
C442 C445 1.403 . S
H443 C449 0.930 . S
C444 H430 0.930 . S
C444 C442 1.395 . S
C444 C447 1.403 1_545 S
C445 C442 1.403 . S
C445 C446 1.524 . S
C445 C449 1.400 1_545 S
C446 H431 0.960 1_545 S
C446 H432 0.960 . S
C446 H433 0.960 . S
C446 C445 1.524 . S
C447 C444 1.403 1_565 S
C447 C448 1.392 . S
C447 C451 1.495 . S
C448 C447 1.392 . S
C448 C449 1.385 . S
C448 C450 1.478 . S
C449 H443 0.930 . S
C449 C445 1.400 1_565 S
C449 C448 1.385 . S
C450 C448 1.478 . S
C450 C452 1.381 . S
C450 C456 1.383 . S
C451 C447 1.495 . S
C451 H457 0.959 1_565 S
C451 H458 0.961 . S
C451 H459 0.960 . S
C452 C450 1.381 . S
C452 C453 1.394 . S
C452 H460 0.930 . S
C453 C452 1.394 . S
C453 C454 1.383 . S
C453 H461 0.929 . S
C454 C453 1.383 . S
C454 C455 1.377 . S
C455 H439 0.930 . S
C455 C454 1.377 . S
C455 C456 1.379 . S
C456 H440 0.931 . S
C456 C450 1.383 . S
C456 C455 1.379 . S
H457 C451 0.959 1_545 S
H458 C451 0.961 . S
H459 C451 0.960 . S
H460 C452 0.930 . S
H461 C453 0.929 . S
H462 C470 0.929 . S
H463 C472 0.930 . S
H464 C474 0.930 . S
H465 C477 0.929 . S
H466 C480 0.930 . S
H467 C482 0.960 . S
H468 C482 0.960 . S
H469 C482 0.960 . S
C470 H462 0.929 . S
C470 C471 1.377 . S
C470 C472 1.384 . S
C471 C470 1.377 . S
C471 C477 1.390 . S
C472 H463 0.930 . S
C472 C470 1.384 . S
C472 C473 1.372 . S
C473 C472 1.372 . S
C473 C474 1.400 . S
C473 C478 1.490 . S
C474 H464 0.930 . S
C474 C473 1.400 . S
C474 C477 1.386 . S
H475 C491 0.930 . S
H476 C492 0.931 . S
C477 H465 0.929 . S
C477 C471 1.390 . S
C477 C474 1.386 . S
C478 C473 1.490 . S
C478 C480 1.395 . S
C478 C481 1.403 . S
H479 C485 0.930 . S
C480 H466 0.930 . S
C480 C478 1.395 . S
C480 C483 1.403 1_655 S
C481 C478 1.403 . S
C481 C482 1.524 . S
C481 C485 1.400 1_655 S
C482 H467 0.960 . S
C482 H468 0.960 . S
C482 H469 0.960 . S
C482 C481 1.524 . S
C483 C480 1.403 1_455 S
C483 C484 1.392 . S
C483 C487 1.495 . S
C484 C483 1.392 . S
C484 C485 1.385 . S
C484 C486 1.478 . S
C485 H479 0.930 . S
C485 C481 1.400 1_455 S
C485 C484 1.385 . S
C486 C484 1.478 . S
C486 C488 1.381 . S
C486 C492 1.383 . S
C487 C483 1.495 . S
C487 H493 0.959 . S
C487 H494 0.961 . S
C487 H495 0.960 . S
C488 C486 1.381 . S
C488 C489 1.394 . S
C488 H496 0.930 . S
C489 C488 1.394 . S
C489 C490 1.383 . S
C489 H497 0.929 . S
C490 C489 1.383 . S
C490 C491 1.377 . S
C491 H475 0.930 . S
C491 C490 1.377 . S
C491 C492 1.379 . S
C492 H476 0.931 . S
C492 C486 1.383 . S
C492 C491 1.379 . S
H493 C487 0.959 . S
H494 C487 0.961 . S
H495 C487 0.960 . S
H496 C488 0.930 . S
H497 C489 0.929 . S
H498 C506 0.929 . S
H499 C508 0.930 . S
H500 C510 0.930 . S
H501 C513 0.929 . S
H502 C516 0.930 . S
H503 C518 0.968 . S
H504 C518 0.960 . S
H505 C518 0.960 . S
C506 H498 0.929 . S
C506 C507 1.377 . S
C506 C508 1.384 . S
C507 C506 1.377 . S
C507 C513 1.390 . S
C508 H499 0.930 . S
C508 C506 1.384 . S
C508 C509 1.372 . S
C509 C508 1.372 . S
C509 C510 1.400 . S
C509 C514 1.490 . S
C510 H500 0.930 . S
C510 C509 1.400 . S
C510 C513 1.386 . S
H511 C527 0.930 . S
H512 C528 0.931 . S
C513 H501 0.929 . S
C513 C507 1.390 . S
C513 C510 1.386 . S
C514 C509 1.490 . S
C514 C516 1.395 . S
C514 C517 1.403 . S
H515 C521 0.930 . S
C516 H502 0.930 . S
C516 C514 1.395 . S
C516 C519 1.403 1_655 S
C517 C514 1.403 . S
C517 C518 1.524 . S
C517 C521 1.400 1_655 S
C518 H503 0.968 . S
C518 H504 0.960 . S
C518 H505 0.960 . S
C518 C517 1.524 . S
C519 C516 1.403 1_455 S
C519 C520 1.392 . S
C519 C523 1.495 . S
C520 C519 1.392 . S
C520 C521 1.385 . S
C520 C522 1.478 . S
C521 H515 0.930 . S
C521 C517 1.400 1_455 S
C521 C520 1.385 . S
C522 C520 1.478 . S
C522 C524 1.381 . S
C522 C528 1.383 . S
C523 C519 1.495 . S
C523 H529 0.959 . S
C523 H530 0.961 . S
C523 H531 0.960 . S
C524 C522 1.381 . S
C524 C525 1.394 . S
C524 H532 0.930 . S
C525 C524 1.394 . S
C525 C526 1.383 . S
C525 H533 0.929 . S
C526 C525 1.383 . S
C526 C527 1.377 . S
C527 H511 0.930 . S
C527 C526 1.377 . S
C527 C528 1.379 . S
C528 H512 0.931 . S
C528 C522 1.383 . S
C528 C527 1.379 . S
H529 C523 0.959 . S
H530 C523 0.961 . S
H531 C523 0.960 . S
H532 C524 0.930 . S
H533 C525 0.929 . S
H534 C542 0.929 . S
H535 C544 0.930 . S
H536 C546 0.930 . S
H537 C549 0.929 . S
H538 C552 0.930 . S
H539 C554 0.960 . S
H540 C554 0.960 . S
H541 C554 0.960 . S
C542 H534 0.929 . S
C542 C543 1.377 . S
C542 C544 1.384 . S
C543 C542 1.377 . S
C543 C549 1.390 . S
C544 H535 0.930 . S
C544 C542 1.384 . S
C544 C545 1.372 . S
C545 C544 1.372 . S
C545 C546 1.400 . S
C545 C550 1.490 . S
C546 H536 0.930 . S
C546 C545 1.400 . S
C546 C549 1.386 . S
H547 C563 0.930 . S
H548 C564 0.931 . S
C549 H537 0.929 . S
C549 C543 1.390 . S
C549 C546 1.386 . S
C550 C545 1.490 . S
C550 C552 1.395 . S
C550 C553 1.403 . S
H551 C557 0.930 . S
C552 H538 0.930 . S
C552 C550 1.395 . S
C552 C555 1.403 1_556 S
C553 C550 1.403 . S
C553 C554 1.524 . S
C553 C557 1.400 1_556 S
C554 H539 0.960 . S
C554 H540 0.960 . S
C554 H541 0.960 . S
C554 C553 1.524 . S
C555 C552 1.403 1_554 S
C555 C556 1.392 . S
C555 C559 1.495 . S
C556 C555 1.392 . S
C556 C557 1.385 . S
C556 C558 1.478 . S
C557 H551 0.930 . S
C557 C553 1.400 1_554 S
C557 C556 1.385 . S
C558 C556 1.478 . S
C558 C560 1.381 . S
C558 C564 1.383 . S
C559 C555 1.495 . S
C559 H565 0.959 . S
C559 H566 0.961 . S
C559 H567 0.960 . S
C560 C558 1.381 . S
C560 C561 1.394 . S
C560 H568 0.930 . S
C561 C560 1.394 . S
C561 C562 1.383 . S
C561 H569 0.929 . S
C562 C561 1.383 . S
C562 C563 1.377 . S
C563 H547 0.930 . S
C563 C562 1.377 . S
C563 C564 1.379 . S
C564 H548 0.931 . S
C564 C558 1.383 . S
C564 C563 1.379 . S
H565 C559 0.959 . S
H566 C559 0.961 . S
H567 C559 0.960 . S
H568 C560 0.930 . S
H569 C561 0.929 . S
H570 C578 0.929 . S
H571 C580 0.930 . S
H572 C582 0.930 . S
H573 C585 0.929 . S
H574 C588 0.930 . S
H575 C590 0.960 . S
H576 C590 0.960 1_545 S
H577 C590 0.955 . S
C578 H570 0.929 . S
C578 C579 1.377 . S
C578 C580 1.384 . S
C579 C578 1.377 . S
C579 C585 1.390 . S
C580 H571 0.930 . S
C580 C578 1.384 . S
C580 C581 1.372 . S
C581 C580 1.372 . S
C581 C582 1.400 . S
C581 C586 1.490 . S
C582 H572 0.930 . S
C582 C581 1.400 . S
C582 C585 1.386 . S
H583 C599 0.930 . S
H584 C600 0.931 . S
C585 H573 0.929 . S
C585 C579 1.390 . S
C585 C582 1.386 . S
C586 C581 1.490 . S
C586 C588 1.395 . S
C586 C589 1.403 . S
H587 C593 0.930 . S
C588 H574 0.930 . S
C588 C586 1.395 . S
C588 C591 1.403 . S
C589 C586 1.403 . S
C589 C590 1.524 1_545 S
C589 C593 1.400 1_545 S
C590 H575 0.960 . S
C590 H576 0.960 1_565 S
C590 H577 0.955 . S
C590 C589 1.524 1_565 S
C591 C588 1.403 . S
C591 C592 1.392 1_545 S
C591 C595 1.495 . S
C592 C591 1.392 1_565 S
C592 C593 1.385 . S
C592 C594 1.478 . S
C593 H587 0.930 . S
C593 C589 1.400 1_565 S
C593 C592 1.385 . S
C594 C592 1.478 . S
C594 C596 1.381 . S
C594 C600 1.383 . S
C595 C591 1.495 . S
C595 H601 0.959 . S
C595 H602 0.961 1_545 S
C595 H603 0.960 . S
C596 C594 1.381 . S
C596 C597 1.394 . S
C596 H604 0.930 . S
C597 C596 1.394 . S
C597 C598 1.383 . S
C597 H605 0.929 . S
C598 C597 1.383 . S
C598 C599 1.377 . S
C599 H583 0.930 . S
C599 C598 1.377 . S
C599 C600 1.379 . S
C600 H584 0.931 . S
C600 C594 1.383 . S
C600 C599 1.379 . S
H601 C595 0.959 . S
H602 C595 0.961 1_565 S
H603 C595 0.960 . S
H604 C596 0.930 . S
H605 C597 0.929 . S
H606 C614 0.929 1_554 S
H607 C616 0.930 . S
H608 C618 0.930 . S
H609 C621 0.929 . S
H610 C624 0.930 . S
H611 C626 0.960 . S
H612 C626 0.960 . S
H613 C626 0.960 . S
C614 H606 0.929 1_556 S
C614 C615 1.377 . S
C614 C616 1.384 . S
C615 C614 1.377 . S
C615 C621 1.390 . S
C616 H607 0.930 . S
C616 C614 1.384 . S
C616 C617 1.372 . S
C617 C616 1.372 . S
C617 C618 1.400 . S
C617 C622 1.490 . S
C618 H608 0.930 . S
C618 C617 1.400 . S
C618 C621 1.386 . S
H619 C635 0.930 . S
H620 C636 0.931 . S
C621 H609 0.929 . S
C621 C615 1.390 . S
C621 C618 1.386 . S
C622 C617 1.490 . S
C622 C624 1.395 . S
C622 C625 1.403 . S
H623 C629 0.930 . S
C624 H610 0.930 . S
C624 C622 1.395 . S
C624 C627 1.403 . S
C625 C622 1.403 . S
C625 C626 1.524 . S
C625 C629 1.400 . S
C626 H611 0.960 . S
C626 H612 0.960 . S
C626 H613 0.960 . S
C626 C625 1.524 . S
C627 C624 1.403 . S
C627 C628 1.392 . S
C627 C631 1.495 . S
C628 C627 1.392 . S
C628 C629 1.385 . S
C628 C630 1.478 . S
C629 H623 0.930 . S
C629 C625 1.400 . S
C629 C628 1.385 . S
C630 C628 1.478 . S
C630 C632 1.381 . S
C630 C636 1.383 . S
C631 C627 1.495 . S
C631 H637 0.959 . S
C631 H638 0.961 . S
C631 H639 0.960 . S
C632 C630 1.381 . S
C632 C633 1.394 . S
C632 H640 0.930 . S
C633 C632 1.394 . S
C633 C634 1.383 . S
C633 H641 0.929 . S
C634 C633 1.383 . S
C634 C635 1.377 . S
C635 H619 0.930 . S
C635 C634 1.377 . S
C635 C636 1.379 . S
C636 H620 0.931 . S
C636 C630 1.383 . S
C636 C635 1.379 . S
H637 C631 0.959 . S
H638 C631 0.961 . S
H639 C631 0.960 . S
H640 C632 0.930 . S
H641 C633 0.929 . S
H642 C650 0.929 . S
H643 C652 0.930 . S
H644 C654 0.930 . S
H645 C657 0.929 . S
H646 C660 0.930 . S
H647 C662 0.960 . S
H648 C662 0.960 . S
H649 C662 0.960 . S
C650 H642 0.929 . S
C650 C651 1.377 . S
C650 C652 1.384 . S
C651 C650 1.377 . S
C651 C657 1.390 . S
C652 H643 0.930 . S
C652 C650 1.384 . S
C652 C653 1.372 . S
C653 C652 1.372 . S
C653 C654 1.400 . S
C653 C658 1.490 . S
C654 H644 0.930 . S
C654 C653 1.400 . S
C654 C657 1.386 . S
H655 C671 0.930 . S
H656 C672 0.931 . S
C657 H645 0.929 . S
C657 C651 1.390 . S
C657 C654 1.386 . S
C658 C653 1.490 . S
C658 C660 1.395 . S
C658 C661 1.403 . S
H659 C665 0.930 . S
C660 H646 0.930 . S
C660 C658 1.395 . S
C660 C663 1.403 . S
C661 C658 1.403 . S
C661 C662 1.524 . S
C661 C665 1.400 . S
C662 H647 0.960 . S
C662 H648 0.960 . S
C662 H649 0.960 . S
C662 C661 1.524 . S
C663 C660 1.403 . S
C663 C664 1.392 . S
C663 C667 1.495 . S
C664 C663 1.392 . S
C664 C665 1.385 . S
C664 C666 1.478 . S
C665 H659 0.930 . S
C665 C661 1.400 . S
C665 C664 1.385 . S
C666 C664 1.478 . S
C666 C668 1.381 . S
C666 C672 1.383 . S
C667 C663 1.495 . S
C667 H673 0.959 . S
C667 H674 0.961 . S
C667 H675 0.960 . S
C668 C666 1.381 . S
C668 C669 1.394 . S
C668 H676 0.930 . S
C669 C668 1.394 . S
C669 C670 1.383 . S
C669 H677 0.929 . S
C670 C669 1.383 . S
C670 C671 1.377 . S
C671 H655 0.930 . S
C671 C670 1.377 . S
C671 C672 1.379 . S
C672 H656 0.931 . S
C672 C666 1.383 . S
C672 C671 1.379 . S
H673 C667 0.959 . S
H674 C667 0.961 . S
H675 C667 0.960 . S
H676 C668 0.930 . S
H677 C669 0.929 . S
H678 C686 0.929 . S
H679 C688 0.930 . S
H680 C690 0.930 . S
H681 C693 0.929 . S
H682 C696 0.930 . S
H683 C698 0.960 . S
H684 C698 0.960 . S
H685 C698 0.960 . S
C686 H678 0.929 . S
C686 C687 1.377 . S
C686 C688 1.384 . S
C687 C686 1.377 . S
C687 C693 1.390 . S
C688 H679 0.930 . S
C688 C686 1.384 . S
C688 C689 1.372 . S
C689 C688 1.372 . S
C689 C690 1.400 . S
C689 C694 1.490 . S
C690 H680 0.930 . S
C690 C689 1.400 . S
C690 C693 1.386 . S
H691 C707 0.930 . S
H692 C708 0.931 . S
C693 H681 0.929 . S
C693 C687 1.390 . S
C693 C690 1.386 . S
C694 C689 1.490 . S
C694 C696 1.395 . S
C694 C697 1.403 . S
H695 C701 0.930 . S
C696 H682 0.930 . S
C696 C694 1.395 . S
C696 C699 1.403 . S
C697 C694 1.403 . S
C697 C698 1.524 . S
C697 C701 1.400 . S
C698 H683 0.960 . S
C698 H684 0.960 . S
C698 H685 0.960 . S
C698 C697 1.524 . S
C699 C696 1.403 . S
C699 C700 1.392 . S
C699 C703 1.495 . S
C700 C699 1.392 . S
C700 C701 1.385 . S
C700 C702 1.478 . S
C701 H695 0.930 . S
C701 C697 1.400 . S
C701 C700 1.385 . S
C702 C700 1.478 . S
C702 C704 1.381 . S
C702 C708 1.383 . S
C703 C699 1.495 . S
C703 H709 0.959 . S
C703 H710 0.961 . S
C703 H711 0.960 . S
C704 C702 1.381 . S
C704 C705 1.394 . S
C704 H712 0.930 . S
C705 C704 1.394 . S
C705 C706 1.383 . S
C705 H713 0.929 . S
C706 C705 1.383 . S
C706 C707 1.377 . S
C707 H691 0.930 . S
C707 C706 1.377 . S
C707 C708 1.379 . S
C708 H692 0.931 . S
C708 C702 1.383 . S
C708 C707 1.379 . S
H709 C703 0.959 . S
H710 C703 0.961 . S
H711 C703 0.960 . S
H712 C704 0.930 . S
H713 C705 0.929 . S
H714 C722 0.929 . S
H715 C724 0.930 . S
H716 C726 0.930 . S
H717 C729 0.929 1_556 S
H718 C732 0.930 . S
H719 C734 0.960 . S
H720 C734 0.960 . S
H721 C734 0.960 . S
C722 H714 0.929 . S
C722 C723 1.377 . S
C722 C724 1.384 . S
C723 C722 1.377 . S
C723 C729 1.390 . S
C724 H715 0.930 . S
C724 C722 1.384 . S
C724 C725 1.372 . S
C725 C724 1.372 . S
C725 C726 1.400 . S
C725 C730 1.490 . S
C726 H716 0.930 . S
C726 C725 1.400 . S
C726 C729 1.386 . S
H727 C743 0.930 . S
H728 C744 0.931 . S
C729 H717 0.929 1_554 S
C729 C723 1.390 . S
C729 C726 1.386 . S
C730 C725 1.490 . S
C730 C732 1.395 . S
C730 C733 1.403 . S
H731 C737 0.930 . S
C732 H718 0.930 . S
C732 C730 1.395 . S
C732 C735 1.403 . S
C733 C730 1.403 . S
C733 C734 1.524 . S
C733 C737 1.400 . S
C734 H719 0.960 . S
C734 H720 0.960 . S
C734 H721 0.960 . S
C734 C733 1.524 . S
C735 C732 1.403 . S
C735 C736 1.392 . S
C735 C739 1.495 . S
C736 C735 1.392 . S
C736 C737 1.385 . S
C736 C738 1.478 . S
C737 H731 0.930 . S
C737 C733 1.400 . S
C737 C736 1.385 . S
C738 C736 1.478 . S
C738 C740 1.381 . S
C738 C744 1.383 . S
C739 C735 1.495 . S
C739 H745 0.959 . S
C739 H746 0.961 . S
C739 H747 0.960 . S
C740 C738 1.381 . S
C740 C741 1.394 . S
C740 H748 0.930 . S
C741 C740 1.394 . S
C741 C742 1.383 . S
C741 H749 0.929 . S
C742 C741 1.383 . S
C742 C743 1.377 . S
C743 H727 0.930 . S
C743 C742 1.377 . S
C743 C744 1.379 . S
C744 H728 0.931 . S
C744 C738 1.383 . S
C744 C743 1.379 . S
H745 C739 0.959 . S
H746 C739 0.961 . S
H747 C739 0.960 . S
H748 C740 0.930 . S
H749 C741 0.929 . S
H750 C758 0.929 . S
H751 C760 0.930 . S
H752 C762 0.930 . S
H753 C765 0.929 . S
H754 C768 0.930 . S
H755 C770 0.960 . S
H756 C770 0.960 . S
H757 C770 0.960 . S
C758 H750 0.929 . S
C758 C759 1.377 . S
C758 C760 1.384 . S
C759 C758 1.377 . S
C759 C765 1.390 . S
C760 H751 0.930 . S
C760 C758 1.384 . S
C760 C761 1.372 . S
C761 C760 1.372 . S
C761 C762 1.400 . S
C761 C766 1.490 . S
C762 H752 0.930 . S
C762 C761 1.400 . S
C762 C765 1.386 . S
H763 C779 0.930 . S
H764 C780 0.931 . S
C765 H753 0.929 . S
C765 C759 1.390 . S
C765 C762 1.386 . S
C766 C761 1.490 . S
C766 C768 1.395 . S
C766 C769 1.403 . S
H767 C773 0.930 . S
C768 H754 0.930 . S
C768 C766 1.395 . S
C768 C771 1.403 . S
C769 C766 1.403 . S
C769 C770 1.524 . S
C769 C773 1.400 . S
C770 H755 0.960 . S
C770 H756 0.960 . S
C770 H757 0.960 . S
C770 C769 1.524 . S
C771 C768 1.403 . S
C771 C772 1.392 . S
C771 C775 1.495 . S
C772 C771 1.392 . S
C772 C773 1.385 . S
C772 C774 1.478 . S
C773 H767 0.930 . S
C773 C769 1.400 . S
C773 C772 1.385 . S
C774 C772 1.478 . S
C774 C776 1.381 . S
C774 C780 1.383 . S
C775 C771 1.495 . S
C775 H781 0.959 . S
C775 H782 0.961 . S
C775 H783 0.960 . S
C776 C774 1.381 . S
C776 C777 1.394 . S
C776 H784 0.930 . S
C777 C776 1.394 . S
C777 C778 1.383 . S
C777 H785 0.929 . S
C778 C777 1.383 . S
C778 C779 1.377 . S
C779 H763 0.930 . S
C779 C778 1.377 . S
C779 C780 1.379 . S
C780 H764 0.931 . S
C780 C774 1.383 . S
C780 C779 1.379 . S
H781 C775 0.959 . S
H782 C775 0.961 . S
H783 C775 0.960 . S
H784 C776 0.930 . S
H785 C777 0.929 . S
H786 C794 0.929 . S
H787 C796 0.930 . S
H788 C798 0.930 . S
H789 C801 0.929 . S
H790 C804 0.930 . S
H791 C806 0.960 . S
H792 C806 0.960 . S
H793 C806 0.960 . S
C794 H786 0.929 . S
C794 C795 1.377 . S
C794 C796 1.384 . S
C795 C794 1.377 . S
C795 C801 1.390 . S
C796 H787 0.930 . S
C796 C794 1.384 . S
C796 C797 1.372 . S
C797 C796 1.372 . S
C797 C798 1.400 . S
C797 C802 1.490 . S
C798 H788 0.930 . S
C798 C797 1.400 . S
C798 C801 1.386 . S
H799 C815 0.930 . S
H800 C816 0.931 . S
C801 H789 0.929 . S
C801 C795 1.390 . S
C801 C798 1.386 . S
C802 C797 1.490 . S
C802 C804 1.395 . S
C802 C805 1.403 . S
H803 C809 0.930 . S
C804 H790 0.930 . S
C804 C802 1.395 . S
C804 C807 1.403 . S
C805 C802 1.403 . S
C805 C806 1.524 . S
C805 C809 1.400 . S
C806 H791 0.960 . S
C806 H792 0.960 . S
C806 H793 0.960 . S
C806 C805 1.524 . S
C807 C804 1.403 . S
C807 C808 1.392 . S
C807 C811 1.495 . S
C808 C807 1.392 . S
C808 C809 1.385 . S
C808 C810 1.478 . S
C809 H803 0.930 . S
C809 C805 1.400 . S
C809 C808 1.385 . S
C810 C808 1.478 . S
C810 C812 1.381 . S
C810 C816 1.383 . S
C811 C807 1.495 . S
C811 H817 0.959 . S
C811 H818 0.961 . S
C811 H819 0.960 . S
C812 C810 1.381 . S
C812 C813 1.394 . S
C812 H820 0.930 . S
C813 C812 1.394 . S
C813 C814 1.383 . S
C813 H821 0.929 . S
C814 C813 1.383 . S
C814 C815 1.377 . S
C815 H799 0.930 . S
C815 C814 1.377 . S
C815 C816 1.379 . S
C816 H800 0.931 . S
C816 C810 1.383 . S
C816 C815 1.379 . S
H817 C811 0.959 . S
H818 C811 0.961 . S
H819 C811 0.960 . S
H820 C812 0.930 . S
H821 C813 0.929 . S
H822 C830 0.929 . S
H823 C832 0.930 . S
H824 C834 0.930 . S
H825 C837 0.929 . S
H826 C840 0.930 . S
H827 C842 0.960 . S
H828 C842 0.960 . S
H829 C842 0.960 . S
C830 H822 0.929 . S
C830 C831 1.377 . S
C830 C832 1.384 . S
C831 C830 1.377 . S
C831 C837 1.390 . S
C832 H823 0.930 . S
C832 C830 1.384 . S
C832 C833 1.372 . S
C833 C832 1.372 . S
C833 C834 1.400 . S
C833 C838 1.490 . S
C834 H824 0.930 . S
C834 C833 1.400 . S
C834 C837 1.386 . S
H835 C851 0.930 . S
H836 C852 0.931 . S
C837 H825 0.929 . S
C837 C831 1.390 . S
C837 C834 1.386 . S
C838 C833 1.490 . S
C838 C840 1.395 1_655 S
C838 C841 1.403 . S
H839 C845 0.930 . S
C840 H826 0.930 . S
C840 C838 1.395 1_455 S
C840 C843 1.403 . S
C841 C838 1.403 . S
C841 C842 1.524 . S
C841 C845 1.400 . S
C842 H827 0.960 . S
C842 H828 0.960 . S
C842 H829 0.960 . S
C842 C841 1.524 . S
C843 C840 1.403 . S
C843 C844 1.392 . S
C843 C847 1.495 . S
C844 C843 1.392 . S
C844 C845 1.385 1_455 S
C844 C846 1.478 . S
C845 H839 0.930 . S
C845 C841 1.400 . S
C845 C844 1.385 1_655 S
C846 C844 1.478 . S
C846 C848 1.381 . S
C846 C852 1.383 . S
C847 C843 1.495 . S
C847 H853 0.959 . S
C847 H854 0.961 . S
C847 H855 0.960 . S
C848 C846 1.381 . S
C848 C849 1.394 . S
C848 H856 0.930 . S
C849 C848 1.394 . S
C849 C850 1.383 . S
C849 H857 0.929 . S
C850 C849 1.383 . S
C850 C851 1.377 . S
C851 H835 0.930 . S
C851 C850 1.377 . S
C851 C852 1.379 . S
C852 H836 0.931 . S
C852 C846 1.383 . S
C852 C851 1.379 . S
H853 C847 0.959 . S
H854 C847 0.961 . S
H855 C847 0.960 . S
H856 C848 0.930 . S
H857 C849 0.929 . S
H858 C866 0.929 . S
H859 C868 0.930 . S
H860 C870 0.930 . S
H861 C873 0.929 . S
H862 C876 0.930 . S
H863 C878 0.960 . S
H864 C878 0.960 . S
H865 C878 0.960 . S
C866 H858 0.929 . S
C866 C867 1.377 . S
C866 C868 1.384 . S
C867 C866 1.377 . S
C867 C873 1.390 . S
C868 H859 0.930 . S
C868 C866 1.384 . S
C868 C869 1.372 . S
C869 C868 1.372 . S
C869 C870 1.400 . S
C869 C874 1.490 . S
C870 H860 0.930 . S
C870 C869 1.400 . S
C870 C873 1.386 . S
H871 C887 0.930 . S
H872 C888 0.931 . S
C873 H861 0.929 . S
C873 C867 1.390 . S
C873 C870 1.386 . S
C874 C869 1.490 . S
C874 C876 1.395 . S
C874 C877 1.403 . S
H875 C881 0.930 . S
C876 H862 0.930 . S
C876 C874 1.395 . S
C876 C879 1.403 . S
C877 C874 1.403 . S
C877 C878 1.524 . S
C877 C881 1.400 . S
C878 H863 0.960 . S
C878 H864 0.960 . S
C878 H865 0.960 . S
C878 C877 1.524 . S
C879 C876 1.403 . S
C879 C880 1.392 . S
C879 C883 1.495 . S
C880 C879 1.392 . S
C880 C881 1.385 . S
C880 C882 1.478 . S
C881 H875 0.930 . S
C881 C877 1.400 . S
C881 C880 1.385 . S
C882 C880 1.478 . S
C882 C884 1.381 . S
C882 C888 1.383 . S
C883 C879 1.495 . S
C883 H889 0.959 . S
C883 H890 0.961 . S
C883 H891 0.960 . S
C884 C882 1.381 . S
C884 C885 1.394 . S
C884 H892 0.930 . S
C885 C884 1.394 . S
C885 C886 1.383 . S
C885 H893 0.929 . S
C886 C885 1.383 . S
C886 C887 1.377 . S
C887 H871 0.930 . S
C887 C886 1.377 . S
C887 C888 1.379 . S
C888 H872 0.931 . S
C888 C882 1.383 . S
C888 C887 1.379 . S
H889 C883 0.959 . S
H890 C883 0.961 . S
H891 C883 0.960 . S
H892 C884 0.930 . S
H893 C885 0.929 . S
H894 C902 0.929 . S
H895 C904 0.930 . S
H896 C906 0.930 . S
H897 C909 0.929 . S
H898 C912 0.930 . S
H899 C914 0.960 . S
H900 C914 0.960 . S
H901 C914 0.960 . S
C902 H894 0.929 . S
C902 C903 1.377 . S
C902 C904 1.384 . S
C903 C902 1.377 . S
C903 C909 1.390 . S
C904 H895 0.930 . S
C904 C902 1.384 . S
C904 C905 1.372 . S
C905 C904 1.372 . S
C905 C906 1.400 . S
C905 C910 1.490 . S
C906 H896 0.930 . S
C906 C905 1.400 . S
C906 C909 1.386 . S
H907 C923 0.930 . S
H908 C924 0.931 . S
C909 H897 0.929 . S
C909 C903 1.390 . S
C909 C906 1.386 . S
C910 C905 1.490 . S
C910 C912 1.395 1_545 S
C910 C913 1.403 . S
H911 C917 0.930 . S
C912 H898 0.930 . S
C912 C910 1.395 1_565 S
C912 C915 1.403 . S
C913 C910 1.403 . S
C913 C914 1.524 . S
C913 C917 1.400 . S
C914 H899 0.960 . S
C914 H900 0.960 . S
C914 H901 0.960 . S
C914 C913 1.524 . S
C915 C912 1.403 . S
C915 C916 1.392 . S
C915 C919 1.495 . S
C916 C915 1.392 . S
C916 C917 1.385 1_565 S
C916 C918 1.478 . S
C917 H911 0.930 . S
C917 C913 1.400 . S
C917 C916 1.385 1_545 S
C918 C916 1.478 . S
C918 C920 1.381 . S
C918 C924 1.383 . S
C919 C915 1.495 . S
C919 H925 0.959 . S
C919 H926 0.961 . S
C919 H927 0.960 . S
C920 C918 1.381 . S
C920 C921 1.394 . S
C920 H928 0.930 . S
C921 C920 1.394 . S
C921 C922 1.383 . S
C921 H929 0.929 . S
C922 C921 1.383 . S
C922 C923 1.377 . S
C923 H907 0.930 . S
C923 C922 1.377 . S
C923 C924 1.379 . S
C924 H908 0.931 . S
C924 C918 1.383 . S
C924 C923 1.379 . S
H925 C919 0.959 . S
H926 C919 0.961 . S
H927 C919 0.960 . S
H928 C920 0.930 . S
H929 C921 0.929 . S
C183 C160 1.466 . S
C202 C21 1.394 . S
C219 C50 1.423 . S
C238 C102 1.473 . S
C255 C79 1.428 . S
C274 C131 1.453 . S
C291 C44 1.467 . S
C310 C108 1.434 . S
C327 C73 1.466 . S
C346 C137 1.395 . S
C363 C15 1.464 . S
C382 C166 1.447 . S
C399 C92 2.515 . S
C418 C5 2.506 . S
C435 C121 2.516 . S
C454 C34 2.503 . S
C471 C150 2.519 . S
C490 C63 2.522 . S
C507 C124 1.855 . S
C526 C8 1.840 . S
C543 C37 1.854 . S
C562 C153 1.840 . S
C579 C95 1.853 . S
C598 C66 1.857 . S
C615 C3 0.793 . S
C634 C39 0.839 . S
C651 C68 0.815 . S
C670 C32 0.762 . S
C687 C10 0.807 . S
C706 C61 0.816 . S
C723 C90 0.814 . S
C742 C155 0.760 . S
C759 C119 0.792 . S
C778 C97 0.848 . S
C795 C126 0.810 . S
C814 C148 0.769 . S
C831 C129 1.397 . S
C850 C13 1.435 . S
C867 C42 1.402 . S
C886 C158 1.423 . S
C903 C100 1.400 . S
C922 C71 1.427 . S
