# Generated by pormake.
# Topology umd, (4)-cn, num edge types: 1
# Building blocks:
#     Node 0, Type 0, BuildingBlock: ICAMEG_clean_sbu_1, # of connection points: 4
#     Node 1, Type 0, BuildingBlock: ICAMEG_clean_sbu_1, # of connection points: 4
#     Node 2, Type 0, BuildingBlock: ICAMEG_clean_sbu_1, # of connection points: 4
#     Node 3, Type 0, BuildingBlock: ICAMEG_clean_sbu_1, # of connection points: 4
#     Node 4, Type 0, BuildingBlock: ICAMEG_clean_sbu_1, # of connection points: 4
#     Node 5, Type 0, BuildingBlock: ICAMEG_clean_sbu_1, # of connection points: 4
#     Node 6, Type 0, BuildingBlock: ICAMEG_clean_sbu_1, # of connection points: 4
#     Node 7, Type 0, BuildingBlock: ICAMEG_clean_sbu_1, # of connection points: 4
#     Node 8, Type 0, BuildingBlock: ICAMEG_clean_sbu_1, # of connection points: 4
#     Node 9, Type 0, BuildingBlock: ICAMEG_clean_sbu_1, # of connection points: 4
#     Node 10, Type 0, BuildingBlock: ICAMEG_clean_sbu_1, # of connection points: 4
#     Node 11, Type 0, BuildingBlock: ICAMEG_clean_sbu_1, # of connection points: 4
#     Node 12, Type 0, BuildingBlock: ICAMEG_clean_sbu_1, # of connection points: 4
#     Node 13, Type 0, BuildingBlock: ICAMEG_clean_sbu_1, # of connection points: 4
#     Node 14, Type 0, BuildingBlock: ICAMEG_clean_sbu_1, # of connection points: 4
#     Node 15, Type 0, BuildingBlock: ICAMEG_clean_sbu_1, # of connection points: 4
#     Edge 16, Type (0, 0), BuildingBlock: OJICUG_clean_linker_0, # of connection points: 2
#     Edge 17, Type (0, 0), BuildingBlock: OJICUG_clean_linker_0, # of connection points: 2
#     Edge 18, Type (0, 0), BuildingBlock: OJICUG_clean_linker_0, # of connection points: 2
#     Edge 19, Type (0, 0), BuildingBlock: OJICUG_clean_linker_0, # of connection points: 2
#     Edge 20, Type (0, 0), BuildingBlock: OJICUG_clean_linker_0, # of connection points: 2
#     Edge 21, Type (0, 0), BuildingBlock: OJICUG_clean_linker_0, # of connection points: 2
#     Edge 22, Type (0, 0), BuildingBlock: OJICUG_clean_linker_0, # of connection points: 2
#     Edge 23, Type (0, 0), BuildingBlock: OJICUG_clean_linker_0, # of connection points: 2
#     Edge 24, Type (0, 0), BuildingBlock: OJICUG_clean_linker_0, # of connection points: 2
#     Edge 25, Type (0, 0), BuildingBlock: OJICUG_clean_linker_0, # of connection points: 2
#     Edge 26, Type (0, 0), BuildingBlock: OJICUG_clean_linker_0, # of connection points: 2
#     Edge 27, Type (0, 0), BuildingBlock: OJICUG_clean_linker_0, # of connection points: 2
#     Edge 28, Type (0, 0), BuildingBlock: OJICUG_clean_linker_0, # of connection points: 2
#     Edge 29, Type (0, 0), BuildingBlock: OJICUG_clean_linker_0, # of connection points: 2
#     Edge 30, Type (0, 0), BuildingBlock: OJICUG_clean_linker_0, # of connection points: 2
#     Edge 31, Type (0, 0), BuildingBlock: OJICUG_clean_linker_0, # of connection points: 2
#     Edge 32, Type (0, 0), BuildingBlock: OJICUG_clean_linker_0, # of connection points: 2
#     Edge 33, Type (0, 0), BuildingBlock: OJICUG_clean_linker_0, # of connection points: 2
#     Edge 34, Type (0, 0), BuildingBlock: OJICUG_clean_linker_0, # of connection points: 2
#     Edge 35, Type (0, 0), BuildingBlock: OJICUG_clean_linker_0, # of connection points: 2
#     Edge 36, Type (0, 0), BuildingBlock: OJICUG_clean_linker_0, # of connection points: 2
#     Edge 37, Type (0, 0), BuildingBlock: OJICUG_clean_linker_0, # of connection points: 2
#     Edge 38, Type (0, 0), BuildingBlock: OJICUG_clean_linker_0, # of connection points: 2
#     Edge 39, Type (0, 0), BuildingBlock: OJICUG_clean_linker_0, # of connection points: 2
#     Edge 40, Type (0, 0), BuildingBlock: OJICUG_clean_linker_0, # of connection points: 2
#     Edge 41, Type (0, 0), BuildingBlock: OJICUG_clean_linker_0, # of connection points: 2
#     Edge 42, Type (0, 0), BuildingBlock: OJICUG_clean_linker_0, # of connection points: 2
#     Edge 43, Type (0, 0), BuildingBlock: OJICUG_clean_linker_0, # of connection points: 2
#     Edge 44, Type (0, 0), BuildingBlock: OJICUG_clean_linker_0, # of connection points: 2
#     Edge 45, Type (0, 0), BuildingBlock: OJICUG_clean_linker_0, # of connection points: 2
#     Edge 46, Type (0, 0), BuildingBlock: OJICUG_clean_linker_0, # of connection points: 2
#     Edge 47, Type (0, 0), BuildingBlock: OJICUG_clean_linker_0, # of connection points: 2
# Relax obj value: 0.056
# Max RMSD: 0.154
# Mean RMSD: 0.154
data_MOF--net-umd--node1-ICAMEG_clean_sbu_1--edge1-OJICUG_clean_linker_0
_symmetry_space_group_name_H-M    P1
_symmetry_Int_Tables_number       1
_symmetry_cell_setting            triclinic
loop_
_symmetry_equiv_pos_as_xyz
'x, y, z'
_cell_length_a     31.147719
_cell_length_b     31.147528
_cell_length_c     45.047615
_cell_angle_alpha  89.999683
_cell_angle_beta   90.000106
_cell_angle_gamma 90.000188
loop_
_atom_site_label
_atom_site_type_symbol
_atom_site_fract_x
_atom_site_fract_y
_atom_site_fract_z
_atom_type_partial_charge
Co0 Co 0.18078 0.49348 0.12859 0.0
Co1 Co 0.14708 0.39524 0.15578 0.0
O2 O 0.18076 0.43085 0.12892 0.0
C3 C 0.1521 0.46806 0.06907 0.0
O4 O 0.12575 0.44211 0.083 0.0
C5 C 0.23681 0.36796 0.16548 0.0
O6 O 0.24694 0.40879 0.16727 0.0
O7 O 0.16538 0.43009 0.19059 0.0
O8 O 0.1837 0.49526 0.173 0.0
H9 H 0.0432 0.36751 0.23894 0.0
H10 H 0.24365 0.44569 0.09176 0.0
O11 O 0.17721 0.49224 0.08395 0.0
H12 H 0.33048 0.53319 0.16046 0.0
H13 H 0.22421 0.63804 0.08872 0.0
H14 H 0.13836 0.56164 0.16402 0.0
H15 H 0.25138 0.53686 0.16166 0.0
H16 H 0.22371 0.55885 0.09053 0.0
O17 O 0.19792 0.35677 0.16137 0.0
H18 H 0.08542 0.41235 0.20448 0.0
H19 H 0.13884 0.30073 0.16489 0.0
H20 H 0.13817 0.64083 0.16317 0.0
H21 H 0.32267 0.44122 0.08967 0.0
H22 H 0.18134 0.67955 0.12531 0.0
H23 H 0.36662 0.4851 0.12426 0.0
O24 O 0.11701 0.49584 0.13094 0.0
H25 H 0.17043 0.31545 0.06018 0.0
H26 H 0.06308 0.3616 0.13401 0.0
H27 H 0.03955 0.32122 0.08981 0.0
H28 H 0.09344 0.2979 0.05249 0.0
H29 H 0.19245 0.35623 0.10457 0.0
H30 H 0.09752 0.25468 0.1991 0.0
H31 H 0.04911 0.28808 0.23636 0.0
O32 O 0.09567 0.43288 0.15049 0.0
C33 C 0.17751 0.46888 0.19431 0.0
C34 C 0.06407 0.35258 0.22274 0.0
C35 C 0.0946 0.28925 0.2004 0.0
N36 N 0.11425 0.35916 0.18254 0.0
C37 C 0.08794 0.37779 0.20311 0.0
C38 C 0.118 0.31549 0.18114 0.0
C39 C 0.06744 0.30801 0.2213 0.0
C40 C 0.26258 0.4652 0.10668 0.0
N41 N 0.24296 0.4917 0.12668 0.0
C42 C 0.3073 0.46239 0.10548 0.0
C43 C 0.33194 0.48698 0.12492 0.0
C44 C 0.31168 0.51395 0.14525 0.0
C45 C 0.26689 0.51585 0.14586 0.0
C46 C 0.20535 0.62154 0.10536 0.0
C47 C 0.15745 0.57828 0.14761 0.0
C48 C 0.20488 0.57672 0.10646 0.0
N49 N 0.18133 0.5557 0.12753 0.0
C50 C 0.15711 0.62311 0.14718 0.0
C51 C 0.1813 0.64481 0.12591 0.0
C52 C 0.08802 0.47053 0.14064 0.0
C53 C 0.14665 0.32538 0.0763 0.0
C54 C 0.08666 0.35169 0.11783 0.0
C55 C 0.07318 0.32872 0.09289 0.0
C56 C 0.10344 0.3156 0.07198 0.0
N57 N 0.12907 0.36129 0.12187 0.0
C58 C 0.15895 0.34834 0.10154 0.0
Co59 Co 0.50604 0.18061 0.62859 0.0
Co60 Co 0.60431 0.14698 0.65578 0.0
O61 O 0.56868 0.18064 0.62892 0.0
C62 C 0.53148 0.15195 0.56907 0.0
O63 O 0.55746 0.12562 0.583 0.0
C64 C 0.6315 0.23673 0.6655 0.0
O65 O 0.59066 0.24681 0.66728 0.0
O66 O 0.56944 0.16522 0.69059 0.0
O67 O 0.50426 0.18353 0.673 0.0
H68 H 0.63213 0.04308 0.73892 0.0
H69 H 0.55379 0.24352 0.59176 0.0
O70 O 0.50729 0.17704 0.58395 0.0
H71 H 0.46622 0.33029 0.66045 0.0
H72 H 0.36146 0.22392 0.58872 0.0
H73 H 0.43792 0.13815 0.66403 0.0
H74 H 0.46261 0.25118 0.66166 0.0
H75 H 0.44065 0.22348 0.59053 0.0
O76 O 0.64273 0.19785 0.66138 0.0
H77 H 0.58725 0.08527 0.70447 0.0
H78 H 0.69882 0.13882 0.66489 0.0
H79 H 0.35873 0.13789 0.66318 0.0
H80 H 0.5582 0.32254 0.58967 0.0
H81 H 0.31998 0.18103 0.62531 0.0
H82 H 0.51429 0.36646 0.62425 0.0
O83 O 0.50373 0.11684 0.63095 0.0
H84 H 0.6841 0.17043 0.56019 0.0
H85 H 0.638 0.063 0.63399 0.0
H86 H 0.67841 0.03953 0.58978 0.0
H87 H 0.70171 0.09346 0.55249 0.0
H88 H 0.6433 0.1924 0.60459 0.0
H89 H 0.74491 0.09752 0.69909 0.0
H90 H 0.71155 0.04906 0.73634 0.0
O91 O 0.56671 0.09554 0.65047 0.0
C92 C 0.53064 0.17734 0.69431 0.0
C93 C 0.64704 0.06397 0.72272 0.0
C94 C 0.71034 0.09457 0.70039 0.0
N95 N 0.64042 0.11416 0.68253 0.0
C96 C 0.62181 0.08783 0.7031 0.0
C97 C 0.68409 0.11795 0.68113 0.0
C98 C 0.6916 0.06738 0.72128 0.0
C99 C 0.53427 0.26243 0.60668 0.0
N100 N 0.50778 0.24279 0.62668 0.0
C101 C 0.53704 0.30715 0.60548 0.0
C102 C 0.51243 0.33177 0.62492 0.0
C103 C 0.48548 0.3115 0.64525 0.0
C104 C 0.48361 0.2667 0.64586 0.0
C105 C 0.37797 0.20508 0.60536 0.0
C106 C 0.42127 0.15722 0.64762 0.0
C107 C 0.42279 0.20465 0.60646 0.0
N108 N 0.44382 0.18111 0.62753 0.0
C109 C 0.37644 0.15684 0.64718 0.0
C110 C 0.35472 0.18101 0.62591 0.0
C111 C 0.52907 0.08786 0.64063 0.0
C112 C 0.67418 0.14664 0.5763 0.0
C113 C 0.64791 0.08661 0.61782 0.0
C114 C 0.6709 0.07316 0.59287 0.0
C115 C 0.684 0.10344 0.57197 0.0
N116 N 0.63828 0.129 0.62186 0.0
C117 C 0.65121 0.15891 0.60155 0.0
Co118 Co 0.81918 0.50618 0.12857 0.0
Co119 Co 0.85278 0.60446 0.15576 0.0
O120 O 0.81915 0.56881 0.1289 0.0
C121 C 0.84792 0.5316 0.06907 0.0
O122 O 0.87423 0.55759 0.08301 0.0
C123 C 0.76301 0.63158 0.16546 0.0
O124 O 0.75296 0.59073 0.16724 0.0
O125 O 0.83453 0.56958 0.19057 0.0
O126 O 0.81619 0.50442 0.17298 0.0
H127 H 0.95664 0.63233 0.23892 0.0
H128 H 0.75633 0.55391 0.09169 0.0
O129 O 0.82282 0.50741 0.08394 0.0
H130 H 0.66946 0.46636 0.16033 0.0
H131 H 0.77596 0.36157 0.0887 0.0
H132 H 0.86159 0.43808 0.16406 0.0
H133 H 0.74856 0.46275 0.1616 0.0
H134 H 0.77638 0.44076 0.0905 0.0
O135 O 0.80188 0.64285 0.16135 0.0
H136 H 0.91448 0.58743 0.20446 0.0
H137 H 0.86088 0.69897 0.16488 0.0
H138 H 0.86186 0.35889 0.16323 0.0
H139 H 0.67731 0.55832 0.08954 0.0
H140 H 0.8188 0.32012 0.12533 0.0
H141 H 0.63334 0.51441 0.12409 0.0
O142 O 0.88295 0.50388 0.13098 0.0
H143 H 0.82934 0.68424 0.06017 0.0
H144 H 0.93675 0.6382 0.13399 0.0
H145 H 0.96022 0.67861 0.08979 0.0
H146 H 0.9063 0.70188 0.05248 0.0
H147 H 0.80736 0.64343 0.10456 0.0
H148 H 0.90215 0.74509 0.19908 0.0
H149 H 0.95062 0.71175 0.23633 0.0
O150 O 0.90424 0.56689 0.15047 0.0
C151 C 0.82238 0.53079 0.1943 0.0
C152 C 0.93575 0.64723 0.22272 0.0
C153 C 0.90512 0.71052 0.20038 0.0
N154 N 0.88556 0.64058 0.18253 0.0
C155 C 0.9119 0.62199 0.20309 0.0
C156 C 0.88175 0.68425 0.18112 0.0
C157 C 0.93231 0.6918 0.22127 0.0
C158 C 0.7374 0.53439 0.1066 0.0
N159 N 0.75701 0.50791 0.12661 0.0
C160 C 0.69268 0.53716 0.10536 0.0
C161 C 0.66802 0.51256 0.12479 0.0
C162 C 0.68827 0.48561 0.14513 0.0
C163 C 0.73306 0.48374 0.14578 0.0
C164 C 0.79477 0.37809 0.10536 0.0
C165 C 0.84255 0.42142 0.14764 0.0
C166 C 0.79519 0.42291 0.10645 0.0
N167 N 0.81869 0.44396 0.12753 0.0
C168 C 0.84293 0.37659 0.14721 0.0
C169 C 0.81881 0.35485 0.12593 0.0
C170 C 0.91192 0.52923 0.14065 0.0
C171 C 0.85313 0.67433 0.07629 0.0
C172 C 0.91315 0.64809 0.11782 0.0
C173 C 0.9266 0.67108 0.09288 0.0
C174 C 0.89632 0.68417 0.07197 0.0
N175 N 0.87075 0.63844 0.12186 0.0
C176 C 0.84085 0.65136 0.10153 0.0
Co177 Co 0.49336 0.81901 0.62858 0.0
Co178 Co 0.3951 0.85266 0.65576 0.0
O179 O 0.43073 0.81902 0.6289 0.0
C180 C 0.46797 0.84777 0.56907 0.0
O181 O 0.442 0.87409 0.58301 0.0
C182 C 0.36789 0.76291 0.66544 0.0
O183 O 0.40873 0.75282 0.66722 0.0
O184 O 0.42996 0.83437 0.69057 0.0
O185 O 0.49512 0.81602 0.67298 0.0
H186 H 0.3673 0.95651 0.73894 0.0
H187 H 0.44559 0.75619 0.59169 0.0
O188 O 0.49214 0.82264 0.58394 0.0
H189 H 0.53308 0.66926 0.66034 0.0
H190 H 0.63795 0.77568 0.58871 0.0
H191 H 0.56149 0.86138 0.66406 0.0
H192 H 0.53674 0.74836 0.66161 0.0
H193 H 0.55876 0.77616 0.5905 0.0
O194 O 0.35666 0.8018 0.66134 0.0
H195 H 0.41217 0.91432 0.70448 0.0
H196 H 0.30059 0.86084 0.66487 0.0
H197 H 0.64067 0.86159 0.66324 0.0
H198 H 0.44114 0.67717 0.58954 0.0
H199 H 0.67943 0.81849 0.62535 0.0
H200 H 0.48501 0.63317 0.6241 0.0
O201 O 0.49571 0.88278 0.63098 0.0
H202 H 0.31534 0.82932 0.56015 0.0
H203 H 0.36142 0.93666 0.63401 0.0
H204 H 0.32104 0.96019 0.58981 0.0
H205 H 0.29776 0.9063 0.55248 0.0
H206 H 0.35612 0.80729 0.60454 0.0
H207 H 0.2545 0.90213 0.69908 0.0
H208 H 0.28787 0.95055 0.73634 0.0
O209 O 0.43271 0.9041 0.65048 0.0
C210 C 0.46874 0.8222 0.6943 0.0
C211 C 0.35238 0.93563 0.72273 0.0
C212 C 0.28908 0.90507 0.70038 0.0
N213 N 0.359 0.88546 0.68253 0.0
C214 C 0.37761 0.91178 0.7031 0.0
C215 C 0.31533 0.88169 0.68112 0.0
C216 C 0.30782 0.93224 0.72128 0.0
C217 C 0.4651 0.73724 0.6066 0.0
N218 N 0.49159 0.75684 0.62662 0.0
C219 C 0.46231 0.69252 0.60536 0.0
C220 C 0.48689 0.66785 0.62479 0.0
C221 C 0.51384 0.68809 0.64514 0.0
C222 C 0.51574 0.73288 0.64579 0.0
C223 C 0.62143 0.79451 0.60537 0.0
C224 C 0.57814 0.84232 0.64765 0.0
C225 C 0.57662 0.79496 0.60645 0.0
N226 N 0.55558 0.81847 0.62753 0.0
C227 C 0.62297 0.84268 0.64722 0.0
C228 C 0.64469 0.81853 0.62594 0.0
C229 C 0.47037 0.91176 0.64065 0.0
C230 C 0.32526 0.8531 0.57628 0.0
C231 C 0.35152 0.91308 0.61783 0.0
C232 C 0.32855 0.92656 0.59288 0.0
C233 C 0.31545 0.8963 0.57197 0.0
N234 N 0.36115 0.87068 0.62185 0.0
C235 C 0.34821 0.8408 0.60152 0.0
Co236 Co 0.18051 0.50614 0.381 0.0
Co237 Co 0.14686 0.60441 0.35381 0.0
O238 O 0.1805 0.56878 0.38068 0.0
C239 C 0.15175 0.53153 0.44051 0.0
O240 O 0.12542 0.5575 0.42657 0.0
C241 C 0.23661 0.63162 0.34414 0.0
O242 O 0.2467 0.59078 0.34236 0.0
O243 O 0.16515 0.56955 0.31901 0.0
O244 O 0.18351 0.50439 0.3366 0.0
H245 H 0.04301 0.6322 0.27064 0.0
H246 H 0.24333 0.55391 0.41789 0.0
O247 O 0.17688 0.50736 0.42563 0.0
H248 H 0.33026 0.46642 0.34924 0.0
H249 H 0.22384 0.36155 0.42086 0.0
H250 H 0.13814 0.43801 0.34551 0.0
H251 H 0.25116 0.46277 0.34797 0.0
H252 H 0.22336 0.44075 0.41907 0.0
O253 O 0.19772 0.64284 0.34824 0.0
H254 H 0.0852 0.58733 0.3051 0.0
H255 H 0.13868 0.69891 0.34471 0.0
H256 H 0.13793 0.35883 0.34634 0.0
H257 H 0.32235 0.55836 0.42004 0.0
H258 H 0.18103 0.32008 0.38423 0.0
H259 H 0.36635 0.51449 0.38548 0.0
O260 O 0.11674 0.50379 0.3786 0.0
H261 H 0.17019 0.68416 0.44943 0.0
H262 H 0.06286 0.63808 0.37556 0.0
H263 H 0.03932 0.67846 0.41976 0.0
H264 H 0.09321 0.70174 0.4571 0.0
H265 H 0.19222 0.64338 0.40503 0.0
H266 H 0.09739 0.745 0.3105 0.0
H267 H 0.04897 0.71163 0.27323 0.0
O268 O 0.09543 0.56679 0.35909 0.0
C269 C 0.17732 0.53077 0.31528 0.0
C270 C 0.06389 0.64712 0.28685 0.0
C271 C 0.09445 0.71043 0.30919 0.0
N272 N 0.11406 0.64051 0.32705 0.0
C273 C 0.08775 0.62189 0.30647 0.0
C274 C 0.11783 0.68418 0.32846 0.0
C275 C 0.06728 0.69169 0.28829 0.0
C276 C 0.26228 0.5344 0.40298 0.0
N277 N 0.24268 0.50791 0.38296 0.0
C278 C 0.307 0.5372 0.40422 0.0
C279 C 0.33166 0.51262 0.38479 0.0
C280 C 0.31144 0.48566 0.36444 0.0
C281 C 0.26664 0.48377 0.36379 0.0
C282 C 0.20501 0.37807 0.40421 0.0
C283 C 0.1572 0.42136 0.36193 0.0
C284 C 0.20456 0.42288 0.40312 0.0
N285 N 0.18105 0.44392 0.38204 0.0
C286 C 0.15685 0.37653 0.36235 0.0
C287 C 0.181 0.35481 0.38364 0.0
C288 C 0.08776 0.52913 0.36892 0.0
C289 C 0.14641 0.67424 0.4333 0.0
C290 C 0.08644 0.64798 0.39175 0.0
C291 C 0.07296 0.67095 0.41669 0.0
C292 C 0.10321 0.68405 0.43761 0.0
N293 N 0.12884 0.63836 0.38772 0.0
C294 C 0.15872 0.65129 0.40806 0.0
Co295 Co 0.49336 0.18036 0.881 0.0
Co296 Co 0.39508 0.14676 0.85381 0.0
O297 O 0.43073 0.18039 0.88068 0.0
C298 C 0.46794 0.15161 0.94051 0.0
O299 O 0.44195 0.12531 0.92657 0.0
C300 C 0.36796 0.23653 0.84412 0.0
O301 O 0.40881 0.24658 0.84234 0.0
O302 O 0.42997 0.16501 0.81901 0.0
O303 O 0.49513 0.18335 0.8366 0.0
H304 H 0.36721 0.0429 0.77065 0.0
H305 H 0.44563 0.24321 0.91788 0.0
O306 O 0.49213 0.17672 0.92564 0.0
H307 H 0.5332 0.33008 0.84925 0.0
H308 H 0.63798 0.22357 0.92088 0.0
H309 H 0.56147 0.13794 0.84552 0.0
H310 H 0.5368 0.25097 0.84798 0.0
H311 H 0.55878 0.22316 0.91908 0.0
O312 O 0.35669 0.19766 0.84823 0.0
H313 H 0.41211 0.08507 0.80511 0.0
H314 H 0.30057 0.13866 0.8447 0.0
H315 H 0.64065 0.13767 0.84635 0.0
H316 H 0.44123 0.32223 0.92003 0.0
H317 H 0.67943 0.18073 0.88425 0.0
H318 H 0.48515 0.3662 0.88548 0.0
O319 O 0.49567 0.11659 0.8786 0.0
H320 H 0.3153 0.1702 0.9494 0.0
H321 H 0.36135 0.06279 0.87558 0.0
H322 H 0.32093 0.03931 0.91978 0.0
H323 H 0.29766 0.09323 0.95709 0.0
H324 H 0.35612 0.19218 0.90502 0.0
H325 H 0.25446 0.0974 0.81049 0.0
H326 H 0.28779 0.04893 0.77324 0.0
O327 O 0.43266 0.0953 0.85911 0.0
C328 C 0.46875 0.17716 0.81528 0.0
C329 C 0.35231 0.0638 0.78686 0.0
C330 C 0.28903 0.09443 0.80919 0.0
N331 N 0.35896 0.11398 0.82705 0.0
C332 C 0.37756 0.08764 0.80648 0.0
C333 C 0.31529 0.11779 0.82845 0.0
C334 C 0.30775 0.06723 0.7883 0.0
C335 C 0.46515 0.26214 0.90298 0.0
N336 N 0.49163 0.24253 0.88296 0.0
C337 C 0.46239 0.30686 0.90421 0.0
C338 C 0.48699 0.33151 0.88479 0.0
C339 C 0.51394 0.31126 0.86444 0.0
C340 C 0.5158 0.26647 0.8638 0.0
C341 C 0.62145 0.20476 0.90422 0.0
C342 C 0.57813 0.15698 0.86194 0.0
C343 C 0.57663 0.20434 0.90313 0.0
N344 N 0.55558 0.18085 0.88205 0.0
C345 C 0.62296 0.1566 0.86237 0.0
C346 C 0.64469 0.18072 0.88365 0.0
C347 C 0.47031 0.08762 0.86893 0.0
C348 C 0.32521 0.14641 0.93329 0.0
C349 C 0.35146 0.08639 0.89176 0.0
C350 C 0.32846 0.07294 0.9167 0.0
C351 C 0.31538 0.10321 0.93761 0.0
N352 N 0.36111 0.12878 0.88772 0.0
C353 C 0.34819 0.15868 0.90805 0.0
Co354 Co 0.81891 0.49346 0.38099 0.0
Co355 Co 0.85254 0.3952 0.35379 0.0
O356 O 0.81888 0.43083 0.38065 0.0
C357 C 0.84757 0.46801 0.44051 0.0
O358 O 0.8739 0.44203 0.42657 0.0
C359 C 0.76279 0.36802 0.34407 0.0
O360 O 0.75271 0.40886 0.34229 0.0
O361 O 0.83429 0.43008 0.31898 0.0
O362 O 0.816 0.49526 0.33658 0.0
H363 H 0.95643 0.36741 0.27063 0.0
H364 H 0.756 0.44571 0.41781 0.0
O365 O 0.82248 0.4922 0.42563 0.0
H366 H 0.66925 0.5333 0.34912 0.0
H367 H 0.77561 0.63804 0.42088 0.0
H368 H 0.86139 0.5616 0.34556 0.0
H369 H 0.74835 0.53691 0.34792 0.0
H370 H 0.77604 0.55885 0.41905 0.0
O371 O 0.80167 0.35678 0.34819 0.0
H372 H 0.91424 0.41227 0.30509 0.0
H373 H 0.8607 0.30069 0.34466 0.0
H374 H 0.86165 0.64078 0.34642 0.0
H375 H 0.67698 0.4413 0.41989 0.0
H376 H 0.81852 0.67953 0.3843 0.0
H377 H 0.63307 0.48523 0.38531 0.0
O378 O 0.88269 0.49577 0.37863 0.0
H379 H 0.8291 0.31538 0.44936 0.0
H380 H 0.93651 0.3615 0.37557 0.0
H381 H 0.95999 0.32108 0.41976 0.0
H382 H 0.90607 0.29777 0.45706 0.0
H383 H 0.80712 0.3562 0.40497 0.0
H384 H 0.90198 0.25461 0.31045 0.0
H385 H 0.95044 0.28798 0.2732 0.0
O386 O 0.90398 0.4328 0.35909 0.0
C387 C 0.82218 0.46888 0.31526 0.0
C388 C 0.93554 0.35249 0.28683 0.0
C389 C 0.90494 0.28918 0.30915 0.0
N390 N 0.88535 0.3591 0.32702 0.0
C391 C 0.91168 0.37772 0.30646 0.0
C392 C 0.88156 0.31543 0.32842 0.0
C393 C 0.93212 0.30792 0.28827 0.0
C394 C 0.73709 0.46524 0.40289 0.0
N395 N 0.75674 0.49173 0.3829 0.0
C396 C 0.69237 0.46247 0.40409 0.0
C397 C 0.66775 0.48708 0.38465 0.0
C398 C 0.68803 0.51404 0.36433 0.0
C399 C 0.73283 0.51591 0.36372 0.0
C400 C 0.79446 0.62153 0.40423 0.0
C401 C 0.84231 0.57824 0.36197 0.0
C402 C 0.79488 0.57672 0.40312 0.0
N403 N 0.81841 0.55568 0.38205 0.0
C404 C 0.84269 0.62308 0.36241 0.0
C405 C 0.81853 0.64479 0.38369 0.0
C406 C 0.91166 0.47044 0.36894 0.0
C407 C 0.85289 0.32531 0.43325 0.0
C408 C 0.91292 0.35159 0.39173 0.0
C409 C 0.92637 0.32859 0.41667 0.0
C410 C 0.89609 0.31549 0.43758 0.0
N411 N 0.87052 0.36123 0.38769 0.0
C412 C 0.84062 0.34828 0.40801 0.0
Co413 Co 0.50606 0.81875 0.88099 0.0
Co414 Co 0.6043 0.85245 0.85379 0.0
O415 O 0.56869 0.81877 0.88065 0.0
C416 C 0.53148 0.84744 0.94051 0.0
O417 O 0.55744 0.87379 0.92657 0.0
C418 C 0.63157 0.76272 0.84409 0.0
O419 O 0.59074 0.75259 0.8423 0.0
O420 O 0.56943 0.83415 0.81898 0.0
O421 O 0.50426 0.81584 0.83658 0.0
H422 H 0.632 0.95632 0.77061 0.0
H423 H 0.55385 0.75588 0.91781 0.0
O424 O 0.50731 0.82232 0.92563 0.0
H425 H 0.46633 0.66906 0.84912 0.0
H426 H 0.36151 0.77533 0.92087 0.0
H427 H 0.43789 0.86118 0.84556 0.0
H428 H 0.46267 0.74816 0.84792 0.0
H429 H 0.4407 0.77583 0.91905 0.0
O430 O 0.64276 0.80161 0.8482 0.0
H431 H 0.58717 0.91411 0.80508 0.0
H432 H 0.6988 0.86069 0.84467 0.0
H433 H 0.35871 0.86137 0.84642 0.0
H434 H 0.55832 0.67686 0.9199 0.0
H435 H 0.31999 0.8182 0.88429 0.0
H436 H 0.51443 0.63291 0.88532 0.0
O437 O 0.5037 0.88253 0.87864 0.0
H438 H 0.68411 0.82912 0.94938 0.0
H439 H 0.63793 0.93646 0.87555 0.0
H440 H 0.67832 0.95999 0.91974 0.0
H441 H 0.70166 0.90611 0.95706 0.0
H442 H 0.64331 0.80709 0.90499 0.0
H443 H 0.74484 0.90201 0.81045 0.0
H444 H 0.71143 0.95041 0.77319 0.0
O445 O 0.56665 0.90386 0.85908 0.0
C446 C 0.53064 0.82202 0.81526 0.0
C447 C 0.64693 0.93545 0.78682 0.0
C448 C 0.71027 0.90492 0.80915 0.0
N449 N 0.64037 0.88528 0.82702 0.0
C450 C 0.62173 0.91158 0.80645 0.0
C451 C 0.68404 0.88153 0.82842 0.0
C452 C 0.6915 0.93208 0.78825 0.0
C453 C 0.53434 0.73696 0.9029 0.0
N454 N 0.50784 0.75658 0.8829 0.0
C455 C 0.53714 0.69223 0.90409 0.0
C456 C 0.51255 0.6676 0.88465 0.0
C457 C 0.48558 0.68786 0.86433 0.0
C458 C 0.48368 0.73265 0.86372 0.0
C459 C 0.37801 0.79419 0.90423 0.0
C460 C 0.42126 0.84209 0.86197 0.0
C461 C 0.42282 0.79466 0.90312 0.0
N462 N 0.44384 0.81821 0.88205 0.0
C463 C 0.37643 0.84243 0.86241 0.0
C464 C 0.35473 0.81824 0.88368 0.0
C465 C 0.52901 0.91151 0.86894 0.0
C466 C 0.67417 0.8529 0.93326 0.0
C467 C 0.64785 0.91288 0.89172 0.0
C468 C 0.67083 0.92636 0.91666 0.0
C469 C 0.68395 0.8961 0.93757 0.0
N470 N 0.63825 0.87047 0.88769 0.0
C471 C 0.65121 0.84059 0.90802 0.0
Co472 Co 0.81918 0.50618 0.881 0.0
Co473 Co 0.85278 0.60446 0.85381 0.0
O474 O 0.81915 0.56881 0.88068 0.0
C475 C 0.84793 0.5316 0.94051 0.0
O476 O 0.87423 0.55759 0.92657 0.0
C477 C 0.76301 0.63158 0.84411 0.0
O478 O 0.75296 0.59073 0.84234 0.0
O479 O 0.83453 0.56958 0.819 0.0
O480 O 0.81619 0.50442 0.8366 0.0
H481 H 0.95664 0.63233 0.77066 0.0
H482 H 0.75633 0.55391 0.91788 0.0
O483 O 0.82282 0.50741 0.92563 0.0
H484 H 0.66946 0.46635 0.84925 0.0
H485 H 0.77596 0.36157 0.92088 0.0
H486 H 0.86159 0.43807 0.84551 0.0
H487 H 0.74856 0.46275 0.84798 0.0
H488 H 0.77638 0.44076 0.91908 0.0
O489 O 0.80188 0.64285 0.84822 0.0
H490 H 0.91448 0.58743 0.80511 0.0
H491 H 0.86088 0.69897 0.8447 0.0
H492 H 0.86186 0.35889 0.84635 0.0
H493 H 0.67731 0.55831 0.92004 0.0
H494 H 0.8188 0.32011 0.88424 0.0
H495 H 0.63334 0.5144 0.88548 0.0
O496 O 0.88295 0.50387 0.8786 0.0
H497 H 0.82934 0.68424 0.9494 0.0
H498 H 0.93675 0.63819 0.87558 0.0
H499 H 0.96023 0.67861 0.91978 0.0
H500 H 0.9063 0.70188 0.95709 0.0
H501 H 0.80736 0.64343 0.90501 0.0
H502 H 0.90215 0.74509 0.81049 0.0
H503 H 0.95062 0.71175 0.77324 0.0
O504 O 0.90424 0.56689 0.85911 0.0
C505 C 0.82238 0.53079 0.81528 0.0
C506 C 0.93575 0.64723 0.78686 0.0
C507 C 0.90511 0.71052 0.80919 0.0
N508 N 0.88556 0.64058 0.82705 0.0
C509 C 0.9119 0.62198 0.80648 0.0
C510 C 0.88175 0.68425 0.82845 0.0
C511 C 0.93231 0.6918 0.7883 0.0
C512 C 0.7374 0.53439 0.90298 0.0
N513 N 0.75701 0.50791 0.88296 0.0
C514 C 0.69268 0.53715 0.90421 0.0
C515 C 0.66803 0.51255 0.88479 0.0
C516 C 0.68827 0.48561 0.86444 0.0
C517 C 0.73307 0.48374 0.8638 0.0
C518 C 0.79478 0.37809 0.90422 0.0
C519 C 0.84255 0.42142 0.86193 0.0
C520 C 0.7952 0.42291 0.90313 0.0
N521 N 0.81869 0.44396 0.88205 0.0
C522 C 0.84294 0.37658 0.86236 0.0
C523 C 0.81881 0.35485 0.88365 0.0
C524 C 0.91192 0.52923 0.86893 0.0
C525 C 0.85313 0.67433 0.93328 0.0
C526 C 0.91315 0.64809 0.89176 0.0
C527 C 0.9266 0.67108 0.9167 0.0
C528 C 0.89633 0.68416 0.93761 0.0
N529 N 0.87075 0.63843 0.88772 0.0
C530 C 0.84085 0.65136 0.90805 0.0
Co531 Co 0.49336 0.81901 0.381 0.0
Co532 Co 0.39509 0.85266 0.35382 0.0
O533 O 0.43072 0.81902 0.38068 0.0
C534 C 0.46797 0.84777 0.44051 0.0
O535 O 0.44199 0.87409 0.42657 0.0
C536 C 0.36789 0.76291 0.34414 0.0
O537 O 0.40873 0.75282 0.34236 0.0
O538 O 0.42996 0.83437 0.31901 0.0
O539 O 0.49512 0.81602 0.3366 0.0
H540 H 0.3673 0.95651 0.27064 0.0
H541 H 0.44559 0.75619 0.41789 0.0
O542 O 0.49213 0.82264 0.42563 0.0
H543 H 0.53308 0.66926 0.34924 0.0
H544 H 0.63795 0.77568 0.42086 0.0
H545 H 0.56149 0.86138 0.34552 0.0
H546 H 0.53674 0.74836 0.34797 0.0
H547 H 0.55875 0.77616 0.41907 0.0
O548 O 0.35666 0.8018 0.34824 0.0
H549 H 0.41217 0.91432 0.3051 0.0
H550 H 0.30059 0.86084 0.34471 0.0
H551 H 0.64067 0.86159 0.34634 0.0
H552 H 0.44114 0.67717 0.42004 0.0
H553 H 0.67942 0.81849 0.38423 0.0
H554 H 0.48501 0.63317 0.38548 0.0
O555 O 0.49571 0.88278 0.3786 0.0
H556 H 0.31534 0.82932 0.44942 0.0
H557 H 0.36142 0.93666 0.37557 0.0
H558 H 0.32104 0.96019 0.41977 0.0
H559 H 0.29775 0.9063 0.4571 0.0
H560 H 0.35612 0.80729 0.40503 0.0
H561 H 0.2545 0.90213 0.3105 0.0
H562 H 0.28787 0.95056 0.27323 0.0
O563 O 0.43271 0.9041 0.3591 0.0
C564 C 0.46874 0.82221 0.31528 0.0
C565 C 0.35238 0.93564 0.28685 0.0
C566 C 0.28908 0.90507 0.30919 0.0
N567 N 0.35899 0.88546 0.32705 0.0
C568 C 0.37761 0.91178 0.30648 0.0
C569 C 0.31532 0.88169 0.32846 0.0
C570 C 0.30781 0.93224 0.2883 0.0
C571 C 0.4651 0.73724 0.40298 0.0
N572 N 0.49159 0.75684 0.38296 0.0
C573 C 0.4623 0.69252 0.40421 0.0
C574 C 0.48688 0.66786 0.38478 0.0
C575 C 0.51384 0.68809 0.36443 0.0
C576 C 0.51574 0.73288 0.36379 0.0
C577 C 0.62143 0.79451 0.40421 0.0
C578 C 0.57814 0.84232 0.36193 0.0
C579 C 0.57661 0.79496 0.40312 0.0
N580 N 0.55558 0.81847 0.38204 0.0
C581 C 0.62297 0.84267 0.36236 0.0
C582 C 0.64469 0.81853 0.38364 0.0
C583 C 0.47037 0.91176 0.36892 0.0
C584 C 0.32526 0.8531 0.4333 0.0
C585 C 0.35152 0.91308 0.39175 0.0
C586 C 0.32855 0.92656 0.41669 0.0
C587 C 0.31545 0.8963 0.43761 0.0
N588 N 0.36114 0.87068 0.38772 0.0
C589 C 0.34821 0.84079 0.40806 0.0
Co590 Co 0.18078 0.49348 0.88099 0.0
Co591 Co 0.14709 0.39523 0.8538 0.0
O592 O 0.18076 0.43085 0.88065 0.0
C593 C 0.1521 0.46806 0.94051 0.0
O594 O 0.12575 0.44211 0.92657 0.0
C595 C 0.23682 0.36796 0.84409 0.0
O596 O 0.24694 0.40879 0.84231 0.0
O597 O 0.16538 0.43009 0.81899 0.0
O598 O 0.1837 0.49526 0.83658 0.0
H599 H 0.0432 0.36751 0.77063 0.0
H600 H 0.24365 0.44569 0.91782 0.0
O601 O 0.17722 0.49224 0.92562 0.0
H602 H 0.33048 0.53319 0.84912 0.0
H603 H 0.22421 0.63804 0.92085 0.0
H604 H 0.13836 0.56164 0.84555 0.0
H605 H 0.25138 0.53686 0.84791 0.0
H606 H 0.22371 0.55885 0.91904 0.0
O607 O 0.19792 0.35677 0.84821 0.0
H608 H 0.08542 0.41235 0.80509 0.0
H609 H 0.13884 0.30073 0.84469 0.0
H610 H 0.13817 0.64083 0.8464 0.0
H611 H 0.32267 0.44122 0.9199 0.0
H612 H 0.18135 0.67955 0.88426 0.0
H613 H 0.36662 0.4851 0.88532 0.0
O614 O 0.11701 0.49584 0.87863 0.0
H615 H 0.17043 0.31544 0.94939 0.0
H616 H 0.06308 0.3616 0.87556 0.0
H617 H 0.03955 0.32122 0.91977 0.0
H618 H 0.09344 0.2979 0.95708 0.0
H619 H 0.19246 0.35623 0.905 0.0
H620 H 0.09752 0.25468 0.81048 0.0
H621 H 0.04911 0.28808 0.77322 0.0
O622 O 0.09568 0.43288 0.85909 0.0
C623 C 0.17751 0.46888 0.81526 0.0
C624 C 0.06407 0.35258 0.78684 0.0
C625 C 0.09461 0.28925 0.80917 0.0
N626 N 0.11425 0.35916 0.82704 0.0
C627 C 0.08795 0.37779 0.80647 0.0
C628 C 0.118 0.31548 0.82844 0.0
C629 C 0.06744 0.30801 0.78828 0.0
C630 C 0.26258 0.4652 0.9029 0.0
N631 N 0.24296 0.4917 0.8829 0.0
C632 C 0.3073 0.46239 0.9041 0.0
C633 C 0.33194 0.48698 0.88465 0.0
C634 C 0.31168 0.51395 0.86432 0.0
C635 C 0.26689 0.51585 0.86372 0.0
C636 C 0.20535 0.62154 0.90421 0.0
C637 C 0.15745 0.57828 0.86196 0.0
C638 C 0.20488 0.57672 0.90311 0.0
N639 N 0.18133 0.5557 0.88204 0.0
C640 C 0.15711 0.62311 0.86239 0.0
C641 C 0.1813 0.64481 0.88366 0.0
C642 C 0.08802 0.47053 0.86894 0.0
C643 C 0.14665 0.32538 0.93327 0.0
C644 C 0.08666 0.35169 0.89174 0.0
C645 C 0.07319 0.32871 0.91668 0.0
C646 C 0.10344 0.3156 0.9376 0.0
N647 N 0.12907 0.36129 0.88771 0.0
C648 C 0.15895 0.34834 0.90803 0.0
Co649 Co 0.50604 0.18061 0.38099 0.0
Co650 Co 0.60431 0.14698 0.3538 0.0
O651 O 0.56868 0.18064 0.38066 0.0
C652 C 0.53148 0.15195 0.44051 0.0
O653 O 0.55746 0.12562 0.42657 0.0
C654 C 0.6315 0.23673 0.34408 0.0
O655 O 0.59065 0.24681 0.3423 0.0
O656 O 0.56944 0.16522 0.31899 0.0
O657 O 0.50426 0.18353 0.33658 0.0
H658 H 0.63212 0.04308 0.27066 0.0
H659 H 0.55379 0.24352 0.41782 0.0
O660 O 0.50729 0.17704 0.42563 0.0
H661 H 0.46622 0.33029 0.34912 0.0
H662 H 0.36145 0.22392 0.42086 0.0
H663 H 0.43791 0.13815 0.34555 0.0
H664 H 0.46261 0.25118 0.34792 0.0
H665 H 0.44065 0.22348 0.41905 0.0
O666 O 0.64273 0.19785 0.3482 0.0
H667 H 0.58725 0.08527 0.30511 0.0
H668 H 0.69882 0.13882 0.34469 0.0
H669 H 0.35873 0.13789 0.3464 0.0
H670 H 0.5582 0.32254 0.41991 0.0
H671 H 0.31998 0.18103 0.38427 0.0
H672 H 0.51429 0.36646 0.38533 0.0
O673 O 0.50373 0.11684 0.37863 0.0
H674 H 0.6841 0.17043 0.44938 0.0
H675 H 0.638 0.06301 0.37559 0.0
H676 H 0.67841 0.03953 0.41979 0.0
H677 H 0.70171 0.09346 0.45709 0.0
H678 H 0.6433 0.1924 0.40499 0.0
H679 H 0.74491 0.09752 0.31049 0.0
H680 H 0.71155 0.04906 0.27324 0.0
O681 O 0.56671 0.09554 0.3591 0.0
C682 C 0.53064 0.17734 0.31527 0.0
C683 C 0.64704 0.06397 0.28686 0.0
C684 C 0.71034 0.09457 0.30919 0.0
N685 N 0.64042 0.11416 0.32705 0.0
C686 C 0.6218 0.08783 0.30648 0.0
C687 C 0.68409 0.11795 0.32845 0.0
C688 C 0.6916 0.06738 0.2883 0.0
C689 C 0.53427 0.26243 0.4029 0.0
N690 N 0.50778 0.24279 0.3829 0.0
C691 C 0.53704 0.30715 0.4041 0.0
C692 C 0.51243 0.33177 0.38466 0.0
C693 C 0.48548 0.3115 0.36433 0.0
C694 C 0.48361 0.2667 0.36372 0.0
C695 C 0.37797 0.20508 0.40421 0.0
C696 C 0.42127 0.15722 0.36196 0.0
C697 C 0.42279 0.20465 0.40312 0.0
N698 N 0.44382 0.18111 0.38205 0.0
C699 C 0.37643 0.15684 0.3624 0.0
C700 C 0.35472 0.18101 0.38367 0.0
C701 C 0.52906 0.08786 0.36895 0.0
C702 C 0.67418 0.14664 0.43327 0.0
C703 C 0.64791 0.08661 0.39176 0.0
C704 C 0.6709 0.07316 0.4167 0.0
C705 C 0.684 0.10344 0.43761 0.0
N706 N 0.63827 0.129 0.38771 0.0
C707 C 0.65121 0.15891 0.40803 0.0
Co708 Co 0.81891 0.49346 0.62859 0.0
Co709 Co 0.85254 0.3952 0.65579 0.0
O710 O 0.81888 0.43083 0.62893 0.0
C711 C 0.84757 0.46801 0.56907 0.0
O712 O 0.8739 0.44203 0.583 0.0
C713 C 0.76279 0.36802 0.66551 0.0
O714 O 0.75271 0.40886 0.66729 0.0
O715 O 0.83429 0.43008 0.69059 0.0
O716 O 0.816 0.49526 0.673 0.0
H717 H 0.95643 0.36741 0.73894 0.0
H718 H 0.756 0.44571 0.59177 0.0
O719 O 0.82248 0.4922 0.58395 0.0
H720 H 0.66925 0.5333 0.66045 0.0
H721 H 0.77561 0.63804 0.5887 0.0
H722 H 0.86139 0.5616 0.66401 0.0
H723 H 0.74835 0.53691 0.66166 0.0
H724 H 0.77604 0.55885 0.59052 0.0
O725 O 0.80167 0.35678 0.66139 0.0
H726 H 0.91424 0.41227 0.70448 0.0
H727 H 0.8607 0.30069 0.66491 0.0
H728 H 0.86165 0.64078 0.66315 0.0
H729 H 0.67698 0.4413 0.58968 0.0
H730 H 0.81852 0.67953 0.62528 0.0
H731 H 0.63307 0.48523 0.62426 0.0
O732 O 0.88269 0.49577 0.63094 0.0
H733 H 0.8291 0.31538 0.56022 0.0
H734 H 0.93652 0.3615 0.63401 0.0
H735 H 0.95999 0.32108 0.58981 0.0
H736 H 0.90607 0.29777 0.55252 0.0
H737 H 0.80712 0.3562 0.6046 0.0
H738 H 0.90199 0.25461 0.69913 0.0
H739 H 0.95044 0.28798 0.73637 0.0
O740 O 0.90398 0.4328 0.65048 0.0
C741 C 0.82218 0.46888 0.69432 0.0
C742 C 0.93554 0.35249 0.72274 0.0
C743 C 0.90494 0.28918 0.70042 0.0
N744 N 0.88535 0.3591 0.68255 0.0
C745 C 0.91168 0.37772 0.70311 0.0
C746 C 0.88156 0.31543 0.68116 0.0
C747 C 0.93213 0.30792 0.72131 0.0
C748 C 0.73709 0.46524 0.60668 0.0
N749 N 0.75674 0.49173 0.62668 0.0
C750 C 0.69237 0.46247 0.60549 0.0
C751 C 0.66775 0.48708 0.62492 0.0
C752 C 0.68803 0.51404 0.64525 0.0
C753 C 0.73283 0.51591 0.64586 0.0
C754 C 0.79446 0.62153 0.60534 0.0
C755 C 0.84231 0.57824 0.64761 0.0
C756 C 0.79488 0.57672 0.60645 0.0
N757 N 0.81842 0.55568 0.62752 0.0
C758 C 0.84269 0.62307 0.64716 0.0
C759 C 0.81853 0.64479 0.62588 0.0
C760 C 0.91166 0.47044 0.64063 0.0
C761 C 0.85289 0.32531 0.57633 0.0
C762 C 0.91292 0.35159 0.61784 0.0
C763 C 0.92637 0.32859 0.5929 0.0
C764 C 0.89609 0.31549 0.572 0.0
N765 N 0.87052 0.36123 0.62188 0.0
C766 C 0.84062 0.34828 0.60156 0.0
Co767 Co 0.50605 0.81876 0.12859 0.0
Co768 Co 0.60429 0.85245 0.15579 0.0
O769 O 0.56869 0.81877 0.12893 0.0
C770 C 0.53148 0.84744 0.06907 0.0
O771 O 0.55743 0.87379 0.083 0.0
C772 C 0.63157 0.76272 0.16549 0.0
O773 O 0.59074 0.75259 0.16727 0.0
O774 O 0.56943 0.83415 0.19059 0.0
O775 O 0.50426 0.81584 0.173 0.0
H776 H 0.632 0.95632 0.23897 0.0
H777 H 0.55385 0.75588 0.09177 0.0
O778 O 0.50731 0.82232 0.08395 0.0
H779 H 0.46633 0.66906 0.16046 0.0
H780 H 0.36151 0.77533 0.08871 0.0
H781 H 0.43789 0.86118 0.16401 0.0
H782 H 0.46266 0.74816 0.16166 0.0
H783 H 0.4407 0.77583 0.09053 0.0
O784 O 0.64276 0.80161 0.16138 0.0
H785 H 0.58717 0.91411 0.2045 0.0
H786 H 0.69879 0.86069 0.16491 0.0
H787 H 0.3587 0.86138 0.16316 0.0
H788 H 0.55832 0.67686 0.08968 0.0
H789 H 0.31999 0.8182 0.12529 0.0
H790 H 0.51443 0.63291 0.12426 0.0
O791 O 0.50369 0.88253 0.13094 0.0
H792 H 0.6841 0.82912 0.0602 0.0
H793 H 0.63793 0.93646 0.13403 0.0
H794 H 0.67832 0.96 0.08984 0.0
H795 H 0.70165 0.90611 0.05252 0.0
H796 H 0.64331 0.80709 0.10459 0.0
H797 H 0.74484 0.90201 0.19913 0.0
H798 H 0.71143 0.95041 0.23639 0.0
O799 O 0.56665 0.90386 0.1505 0.0
C800 C 0.53064 0.82202 0.19432 0.0
C801 C 0.64693 0.93545 0.22276 0.0
C802 C 0.71027 0.90492 0.20043 0.0
N803 N 0.64037 0.88528 0.18256 0.0
C804 C 0.62173 0.91158 0.20313 0.0
C805 C 0.68404 0.88154 0.18116 0.0
C806 C 0.6915 0.93209 0.22132 0.0
C807 C 0.53434 0.73696 0.10668 0.0
N808 N 0.50783 0.75658 0.12668 0.0
C809 C 0.53714 0.69224 0.10549 0.0
C810 C 0.51255 0.6676 0.12493 0.0
C811 C 0.48558 0.68786 0.14525 0.0
C812 C 0.48368 0.73265 0.14586 0.0
C813 C 0.378 0.79419 0.10535 0.0
C814 C 0.42126 0.84209 0.14761 0.0
C815 C 0.42282 0.79466 0.10646 0.0
N816 N 0.44384 0.81821 0.12752 0.0
C817 C 0.37642 0.84243 0.14716 0.0
C818 C 0.35473 0.81824 0.12589 0.0
C819 C 0.52901 0.91151 0.14064 0.0
C820 C 0.67416 0.8529 0.07632 0.0
C821 C 0.64785 0.91288 0.11786 0.0
C822 C 0.67083 0.92636 0.09292 0.0
C823 C 0.68395 0.89611 0.072 0.0
N824 N 0.63824 0.87047 0.12189 0.0
C825 C 0.6512 0.84059 0.10156 0.0
Co826 Co 0.18052 0.50614 0.62857 0.0
Co827 Co 0.14686 0.60441 0.65576 0.0
O828 O 0.18051 0.56877 0.62889 0.0
C829 C 0.15175 0.53153 0.56907 0.0
O830 O 0.12543 0.5575 0.58301 0.0
C831 C 0.23661 0.63162 0.66543 0.0
O832 O 0.2467 0.59077 0.66721 0.0
O833 O 0.16515 0.56955 0.69057 0.0
O834 O 0.18351 0.50438 0.67298 0.0
H835 H 0.04302 0.6322 0.73894 0.0
H836 H 0.24333 0.55391 0.59169 0.0
O837 O 0.17688 0.50736 0.58394 0.0
H838 H 0.33026 0.46642 0.66033 0.0
H839 H 0.22384 0.36155 0.58871 0.0
H840 H 0.13814 0.43801 0.66406 0.0
H841 H 0.25116 0.46276 0.6616 0.0
H842 H 0.22336 0.44074 0.5905 0.0
O843 O 0.19772 0.64284 0.66133 0.0
H844 H 0.0852 0.58733 0.70448 0.0
H845 H 0.13868 0.69891 0.66486 0.0
H846 H 0.13793 0.35883 0.66324 0.0
H847 H 0.32235 0.55836 0.58953 0.0
H848 H 0.18103 0.32007 0.62535 0.0
H849 H 0.36635 0.51449 0.62409 0.0
O850 O 0.11674 0.50379 0.63097 0.0
H851 H 0.17019 0.68416 0.56015 0.0
H852 H 0.06286 0.63808 0.63401 0.0
H853 H 0.03933 0.67846 0.58981 0.0
H854 H 0.09321 0.70174 0.55248 0.0
H855 H 0.19222 0.64338 0.60454 0.0
H856 H 0.09739 0.745 0.69908 0.0
H857 H 0.04897 0.71163 0.73634 0.0
O858 O 0.09543 0.56679 0.65048 0.0
C859 C 0.17732 0.53077 0.69429 0.0
C860 C 0.06389 0.64712 0.72273 0.0
C861 C 0.09446 0.71043 0.70038 0.0
N862 N 0.11406 0.64051 0.68252 0.0
C863 C 0.08775 0.62189 0.7031 0.0
C864 C 0.11783 0.68418 0.68112 0.0
C865 C 0.06729 0.69169 0.72128 0.0
C866 C 0.26228 0.5344 0.60659 0.0
N867 N 0.24269 0.50791 0.62661 0.0
C868 C 0.307 0.53719 0.60536 0.0
C869 C 0.33167 0.51262 0.62479 0.0
C870 C 0.31144 0.48566 0.64514 0.0
C871 C 0.26664 0.48376 0.64578 0.0
C872 C 0.20501 0.37807 0.60537 0.0
C873 C 0.1572 0.42136 0.64765 0.0
C874 C 0.20456 0.42288 0.60645 0.0
N875 N 0.18105 0.44392 0.62753 0.0
C876 C 0.15685 0.37653 0.64722 0.0
C877 C 0.181 0.35481 0.62594 0.0
C878 C 0.08777 0.52913 0.64065 0.0
C879 C 0.14642 0.67424 0.57627 0.0
C880 C 0.08644 0.64798 0.61783 0.0
C881 C 0.07296 0.67095 0.59288 0.0
C882 C 0.10321 0.68405 0.57196 0.0
N883 N 0.12884 0.63835 0.62185 0.0
C884 C 0.15872 0.65129 0.60151 0.0
Co885 Co 0.49336 0.18036 0.12858 0.0
Co886 Co 0.39508 0.14676 0.15576 0.0
O887 O 0.43073 0.18039 0.1289 0.0
C888 C 0.46794 0.15162 0.06907 0.0
O889 O 0.44195 0.12531 0.08301 0.0
C890 C 0.36796 0.23653 0.16546 0.0
O891 O 0.40881 0.24658 0.16724 0.0
O892 O 0.42996 0.16501 0.19057 0.0
O893 O 0.49513 0.18335 0.17298 0.0
H894 H 0.36721 0.0429 0.23893 0.0
H895 H 0.44563 0.24321 0.09169 0.0
O896 O 0.49213 0.17672 0.08394 0.0
H897 H 0.53319 0.33008 0.16033 0.0
H898 H 0.63797 0.22357 0.0887 0.0
H899 H 0.56147 0.13794 0.16406 0.0
H900 H 0.53679 0.25097 0.1616 0.0
H901 H 0.55878 0.22316 0.0905 0.0
O902 O 0.35669 0.19766 0.16135 0.0
H903 H 0.41211 0.08507 0.20447 0.0
H904 H 0.30057 0.13866 0.16488 0.0
H905 H 0.64065 0.13767 0.16323 0.0
H906 H 0.44123 0.32223 0.08954 0.0
H907 H 0.67943 0.18073 0.12533 0.0
H908 H 0.48514 0.3662 0.1241 0.0
O909 O 0.49566 0.11659 0.13098 0.0
H910 H 0.3153 0.1702 0.06017 0.0
H911 H 0.36135 0.06279 0.134 0.0
H912 H 0.32093 0.03931 0.0898 0.0
H913 H 0.29766 0.09323 0.05249 0.0
H914 H 0.35612 0.19218 0.10456 0.0
H915 H 0.25446 0.09739 0.19909 0.0
H916 H 0.28779 0.04893 0.23634 0.0
O917 O 0.43265 0.0953 0.15047 0.0
C918 C 0.46875 0.17716 0.1943 0.0
C919 C 0.35231 0.0638 0.22272 0.0
C920 C 0.28903 0.09443 0.20039 0.0
N921 N 0.35896 0.11398 0.18253 0.0
C922 C 0.37756 0.08764 0.2031 0.0
C923 C 0.31529 0.11779 0.18113 0.0
C924 C 0.30775 0.06723 0.22128 0.0
C925 C 0.46515 0.26214 0.1066 0.0
N926 N 0.49163 0.24253 0.12662 0.0
C927 C 0.46239 0.30686 0.10536 0.0
C928 C 0.48699 0.33151 0.12479 0.0
C929 C 0.51394 0.31127 0.14514 0.0
C930 C 0.5158 0.26647 0.14578 0.0
C931 C 0.62145 0.20476 0.10536 0.0
C932 C 0.57812 0.15699 0.14764 0.0
C933 C 0.57663 0.20434 0.10645 0.0
N934 N 0.55558 0.18085 0.12753 0.0
C935 C 0.62296 0.1566 0.14721 0.0
C936 C 0.64469 0.18073 0.12592 0.0
C937 C 0.47031 0.08762 0.14065 0.0
C938 C 0.32521 0.14641 0.07629 0.0
C939 C 0.35145 0.08639 0.11782 0.0
C940 C 0.32846 0.07294 0.09288 0.0
C941 C 0.31538 0.10321 0.07197 0.0
N942 N 0.36111 0.12879 0.12186 0.0
C943 C 0.34818 0.15868 0.10153 0.0
C944 C 0.00891 0.45592 0.14043 0.0
C945 C 0.04298 0.48552 0.14025 0.0
H946 H 0.94087 0.44649 0.14021 0.0
C947 C 0.03357 0.52965 0.14003 0.0
H948 H 0.01503 0.42173 0.1406 0.0
C949 C 0.99103 0.54385 0.14036 0.0
C950 C 0.95697 0.51425 0.14027 0.0
H951 H 0.05908 0.55328 0.14005 0.0
H952 H 0.98491 0.57805 0.14045 0.0
C953 C 0.96637 0.47013 0.14012 0.0
C954 C 0.45576 0.99087 0.64038 0.0
C955 C 0.48536 0.9568 0.64027 0.0
H956 H 0.44632 0.05891 0.64009 0.0
C957 C 0.52949 0.96621 0.6401 0.0
H958 H 0.42157 0.98475 0.6405 0.0
C959 C 0.54369 0.00875 0.64041 0.0
C960 C 0.51408 0.04281 0.64025 0.0
H961 H 0.55312 0.9407 0.64018 0.0
H962 H 0.57788 0.01487 0.64055 0.0
C963 C 0.46996 0.03341 0.64005 0.0
C964 C 0.03331 0.47002 0.36947 0.0
C965 C 0.04272 0.51414 0.3693 0.0
H966 H 0.98465 0.42162 0.36901 0.0
C967 C 0.00865 0.54374 0.3692 0.0
H968 H 0.05882 0.44638 0.36938 0.0
C969 C 0.96612 0.52954 0.36953 0.0
C970 C 0.95671 0.48542 0.36932 0.0
H971 H 0.01478 0.57794 0.36909 0.0
H972 H 0.94061 0.55318 0.3695 0.0
C973 C 0.99077 0.45582 0.36915 0.0
C974 C 0.46989 0.96597 0.86955 0.0
C975 C 0.51402 0.95656 0.86932 0.0
H976 H 0.4215 0.01463 0.86913 0.0
C977 C 0.54362 0.99062 0.86913 0.0
H978 H 0.44625 0.94046 0.86953 0.0
C979 C 0.52942 0.03316 0.86945 0.0
C980 C 0.48529 0.04257 0.86931 0.0
H981 H 0.57781 0.98451 0.86897 0.0
H982 H 0.55305 0.05867 0.86936 0.0
C983 C 0.45569 0.00851 0.86922 0.0
C984 C 0.99103 0.54385 0.86922 0.0
C985 C 0.95697 0.51425 0.86931 0.0
H986 H 0.05908 0.55328 0.86952 0.0
C987 C 0.96638 0.47012 0.86946 0.0
H988 H 0.98491 0.57804 0.86912 0.0
C989 C 0.00891 0.45592 0.86914 0.0
C990 C 0.04298 0.48552 0.86932 0.0
H991 H 0.94087 0.44649 0.86936 0.0
H992 H 0.01503 0.42173 0.86898 0.0
C993 C 0.03357 0.52965 0.86955 0.0
C994 C 0.54368 0.00875 0.36917 0.0
C995 C 0.51408 0.04281 0.36933 0.0
H996 H 0.55312 0.9407 0.3694 0.0
C997 C 0.46996 0.03341 0.36953 0.0
H998 H 0.57788 0.01487 0.36902 0.0
C999 C 0.45576 0.99087 0.3692 0.0
C1000 C 0.48536 0.95681 0.36931 0.0
H1001 H 0.44632 0.05891 0.36949 0.0
H1002 H 0.42156 0.98475 0.36908 0.0
C1003 C 0.52948 0.96621 0.36948 0.0
C1004 C 0.99077 0.45582 0.64042 0.0
C1005 C 0.95671 0.48542 0.64025 0.0
H1006 H 0.05882 0.44638 0.64019 0.0
C1007 C 0.96612 0.52954 0.64004 0.0
H1008 H 0.98465 0.42162 0.64057 0.0
C1009 C 0.00866 0.54374 0.64037 0.0
C1010 C 0.04272 0.51414 0.64027 0.0
H1011 H 0.94061 0.55318 0.64008 0.0
H1012 H 0.01478 0.57794 0.64048 0.0
C1013 C 0.03331 0.47002 0.64011 0.0
C1014 C 0.52941 0.03316 0.14012 0.0
C1015 C 0.48529 0.04257 0.14027 0.0
H1016 H 0.57781 0.98451 0.14061 0.0
C1017 C 0.45569 0.00851 0.14036 0.0
H1018 H 0.55305 0.05867 0.14022 0.0
C1019 C 0.46989 0.96597 0.14003 0.0
C1020 C 0.51401 0.95656 0.14026 0.0
H1021 H 0.42149 0.01463 0.14045 0.0
H1022 H 0.44625 0.94046 0.14005 0.0
C1023 C 0.54361 0.99063 0.14044 0.0
C1024 C 0.18305 0.54395 0.26046 0.0
C1025 C 0.18227 0.51498 0.28441 0.0
H1026 H 0.18295 0.55224 0.21333 0.0
C1027 C 0.18343 0.47069 0.2784 0.0
H1028 H 0.18249 0.57829 0.26426 0.0
C1029 C 0.18317 0.45572 0.24914 0.0
C1030 C 0.18238 0.48469 0.22519 0.0
H1031 H 0.18298 0.44743 0.29627 0.0
H1032 H 0.1827 0.42138 0.24533 0.0
C1033 C 0.18342 0.52898 0.2312 0.0
C1034 C 0.5438 0.18299 0.74914 0.0
C1035 C 0.51484 0.1822 0.72519 0.0
H1036 H 0.55209 0.18279 0.79627 0.0
C1037 C 0.47054 0.18325 0.7312 0.0
H1038 H 0.57814 0.18251 0.74534 0.0
C1039 C 0.45558 0.18289 0.76046 0.0
C1040 C 0.48454 0.1821 0.78441 0.0
H1041 H 0.44729 0.18279 0.71333 0.0
H1042 H 0.42124 0.18234 0.76426 0.0
C1043 C 0.52884 0.18325 0.7784 0.0
C1044 C 0.81667 0.54396 0.24912 0.0
C1045 C 0.81743 0.515 0.22517 0.0
H1046 H 0.81677 0.55224 0.29625 0.0
C1047 C 0.81627 0.47071 0.23117 0.0
H1048 H 0.81723 0.5783 0.24532 0.0
C1049 C 0.81652 0.45573 0.26043 0.0
C1050 C 0.81732 0.48469 0.28439 0.0
H1051 H 0.81671 0.44746 0.2133 0.0
H1052 H 0.81699 0.42139 0.26423 0.0
C1053 C 0.8163 0.52899 0.27838 0.0
C1054 C 0.54379 0.81635 0.76043 0.0
C1055 C 0.51483 0.81715 0.78439 0.0
H1056 H 0.55208 0.81653 0.71331 0.0
C1057 C 0.47053 0.81612 0.77838 0.0
H1058 H 0.57813 0.81681 0.76424 0.0
C1059 C 0.45557 0.81648 0.74912 0.0
C1060 C 0.48453 0.81725 0.72517 0.0
H1061 H 0.44728 0.8166 0.79625 0.0
H1062 H 0.42123 0.81705 0.74532 0.0
C1063 C 0.52882 0.81609 0.73118 0.0
C1064 C 0.81627 0.47071 0.7784 0.0
C1065 C 0.81743 0.515 0.78441 0.0
H1066 H 0.81699 0.42139 0.74534 0.0
C1067 C 0.81667 0.54396 0.76045 0.0
H1068 H 0.81671 0.44745 0.79627 0.0
C1069 C 0.8163 0.52899 0.7312 0.0
C1070 C 0.81732 0.48469 0.72519 0.0
H1071 H 0.81723 0.5783 0.76425 0.0
H1072 H 0.81677 0.55224 0.71332 0.0
C1073 C 0.81652 0.45573 0.74915 0.0
C1074 C 0.52882 0.81609 0.2784 0.0
C1075 C 0.48453 0.81726 0.28441 0.0
H1076 H 0.57813 0.81681 0.24534 0.0
C1077 C 0.45556 0.81649 0.26045 0.0
H1078 H 0.55207 0.81653 0.29627 0.0
C1079 C 0.47053 0.81612 0.2312 0.0
C1080 C 0.51483 0.81715 0.22519 0.0
H1081 H 0.42122 0.81705 0.26426 0.0
H1082 H 0.44728 0.8166 0.21333 0.0
C1083 C 0.54379 0.81635 0.24915 0.0
C1084 C 0.18317 0.45572 0.76043 0.0
C1085 C 0.18238 0.48469 0.78439 0.0
H1086 H 0.18298 0.44743 0.71331 0.0
C1087 C 0.18342 0.52898 0.77838 0.0
H1088 H 0.1827 0.42138 0.76424 0.0
C1089 C 0.18306 0.54395 0.74912 0.0
C1090 C 0.18228 0.51498 0.72517 0.0
H1091 H 0.18295 0.55223 0.79624 0.0
H1092 H 0.1825 0.57828 0.74531 0.0
C1093 C 0.18343 0.47068 0.73118 0.0
C1094 C 0.5438 0.18299 0.26043 0.0
C1095 C 0.51484 0.18221 0.28439 0.0
H1096 H 0.55209 0.18279 0.21331 0.0
C1097 C 0.47054 0.18325 0.27838 0.0
H1098 H 0.57814 0.18251 0.26424 0.0
C1099 C 0.45557 0.18289 0.24912 0.0
C1100 C 0.48454 0.1821 0.22517 0.0
H1101 H 0.44729 0.18279 0.29625 0.0
H1102 H 0.42124 0.18233 0.24532 0.0
C1103 C 0.52883 0.18325 0.23118 0.0
C1104 C 0.17921 0.49697 0.98923 0.0
C1105 C 0.15266 0.4685 0.97339 0.0
H1106 H 0.1999 0.51931 0.03196 0.0
C1107 C 0.12637 0.43995 0.9893 0.0
H1108 H 0.1999 0.51931 0.97762 0.0
C1109 C 0.12637 0.43995 0.02027 0.0
C1110 C 0.15266 0.4685 0.03618 0.0
H1111 H 0.10569 0.4174 0.97787 0.0
H1112 H 0.10569 0.4174 0.03171 0.0
C1113 C 0.17921 0.49697 0.02035 0.0
C1114 C 0.50255 0.17903 0.48923 0.0
C1115 C 0.53105 0.15251 0.47339 0.0
H1116 H 0.4802 0.1997 0.53196 0.0
C1117 C 0.55962 0.12624 0.48931 0.0
H1118 H 0.48019 0.1997 0.47762 0.0
C1119 C 0.55962 0.12624 0.52027 0.0
C1120 C 0.53105 0.15251 0.53619 0.0
H1121 H 0.58219 0.10558 0.47787 0.0
H1122 H 0.58219 0.10558 0.53171 0.0
C1123 C 0.50255 0.17903 0.52035 0.0
C1124 C 0.87367 0.55971 0.02027 0.0
C1125 C 0.84739 0.53116 0.03618 0.0
H1126 H 0.89434 0.58227 0.97787 0.0
C1127 C 0.82086 0.50267 0.02035 0.0
H1128 H 0.89434 0.58228 0.03171 0.0
C1129 C 0.82086 0.50267 0.98923 0.0
C1130 C 0.84739 0.53115 0.97339 0.0
H1131 H 0.80017 0.48032 0.03196 0.0
H1132 H 0.80017 0.48032 0.97762 0.0
C1133 C 0.87367 0.55971 0.9893 0.0
C1134 C 0.49688 0.82068 0.52035 0.0
C1135 C 0.46841 0.84723 0.53619 0.0
H1136 H 0.51921 0.79997 0.47762 0.0
C1137 C 0.43988 0.87354 0.52027 0.0
H1138 H 0.51921 0.79997 0.53196 0.0
C1139 C 0.43988 0.87354 0.4893 0.0
C1140 C 0.46841 0.84723 0.47339 0.0
H1141 H 0.41733 0.89422 0.53171 0.0
H1142 H 0.41733 0.89422 0.47787 0.0
C1143 C 0.49688 0.82068 0.48923 0.0
C1144 C 0.17884 0.50262 0.48923 0.0
C1145 C 0.15229 0.53109 0.47339 0.0
H1146 H 0.19955 0.48029 0.53196 0.0
C1147 C 0.12598 0.55962 0.4893 0.0
H1148 H 0.19955 0.48029 0.47762 0.0
C1149 C 0.12598 0.55962 0.52027 0.0
C1150 C 0.15229 0.53109 0.53618 0.0
H1151 H 0.1053 0.58217 0.47786 0.0
H1152 H 0.1053 0.58217 0.53171 0.0
C1153 C 0.17884 0.50262 0.52034 0.0
C1154 C 0.43983 0.12587 0.98931 0.0
C1155 C 0.46839 0.15215 0.97339 0.0
H1156 H 0.41726 0.10521 0.03171 0.0
C1157 C 0.49688 0.17868 0.98923 0.0
H1158 H 0.41727 0.1052 0.97787 0.0
C1159 C 0.49688 0.17868 0.02035 0.0
C1160 C 0.46839 0.15215 0.03619 0.0
H1161 H 0.51923 0.19937 0.97762 0.0
H1162 H 0.51922 0.19937 0.03196 0.0
C1163 C 0.43983 0.12587 0.02027 0.0
C1164 C 0.82049 0.49694 0.48923 0.0
C1165 C 0.84701 0.46844 0.47339 0.0
H1166 H 0.79982 0.5193 0.53196 0.0
C1167 C 0.87327 0.43987 0.4893 0.0
H1168 H 0.79982 0.5193 0.47762 0.0
C1169 C 0.87327 0.43987 0.52027 0.0
C1170 C 0.84701 0.46844 0.53618 0.0
H1171 H 0.89393 0.41729 0.47787 0.0
H1172 H 0.89393 0.41729 0.53171 0.0
C1173 C 0.82049 0.49694 0.52035 0.0
C1174 C 0.5596 0.87317 0.02027 0.0
C1175 C 0.53105 0.84687 0.03619 0.0
H1176 H 0.58216 0.89384 0.97787 0.0
C1177 C 0.50258 0.82033 0.02035 0.0
H1178 H 0.58215 0.89384 0.03171 0.0
C1179 C 0.50258 0.82033 0.98923 0.0
C1180 C 0.53105 0.84687 0.97339 0.0
H1181 H 0.48024 0.79963 0.03196 0.0
H1182 H 0.48024 0.79963 0.97762 0.0
C1183 C 0.5596 0.87317 0.98931 0.0
C1184 C 0.25938 0.29096 0.16551 0.0
C1185 C 0.27061 0.33462 0.16682 0.0
H1186 H 0.2811 0.22597 0.1642 0.0
C1187 C 0.31427 0.34585 0.16853 0.0
H1188 H 0.22607 0.28113 0.16421 0.0
C1189 C 0.34602 0.31403 0.16852 0.0
C1190 C 0.33469 0.2704 0.1668 0.0
H1191 H 0.32399 0.37922 0.16947 0.0
H1192 H 0.3794 0.32368 0.16946 0.0
C1193 C 0.291 0.25926 0.16551 0.0
C1194 C 0.74014 0.29104 0.66555 0.0
C1195 C 0.72896 0.33471 0.66685 0.0
H1196 H 0.71834 0.22608 0.66424 0.0
C1197 C 0.68531 0.34599 0.66856 0.0
H1198 H 0.77344 0.28117 0.66424 0.0
C1199 C 0.65352 0.31421 0.66856 0.0
C1200 C 0.6648 0.27056 0.66684 0.0
H1201 H 0.67563 0.37937 0.6695 0.0
H1202 H 0.62015 0.32389 0.66949 0.0
C1203 C 0.70848 0.25938 0.66555 0.0
C1204 C 0.74027 0.70854 0.16551 0.0
C1205 C 0.72914 0.66485 0.16681 0.0
H1206 H 0.7184 0.77347 0.16421 0.0
C1207 C 0.68551 0.65352 0.16853 0.0
H1208 H 0.77356 0.71844 0.1642 0.0
C1209 C 0.65369 0.68527 0.16853 0.0
C1210 C 0.66491 0.72893 0.16682 0.0
H1211 H 0.67586 0.62013 0.16946 0.0
H1212 H 0.62032 0.67554 0.16947 0.0
C1213 C 0.70858 0.74016 0.16552 0.0
C1214 C 0.31408 0.65365 0.66849 0.0
C1215 C 0.27044 0.66492 0.66677 0.0
H1216 H 0.37924 0.67575 0.66942 0.0
C1217 C 0.25925 0.7086 0.66547 0.0
H1218 H 0.32377 0.62027 0.66942 0.0
C1219 C 0.29091 0.74026 0.66547 0.0
C1220 C 0.33459 0.72908 0.66677 0.0
H1221 H 0.22595 0.71846 0.66416 0.0
H1222 H 0.28105 0.77356 0.66416 0.0
C1223 C 0.34587 0.68543 0.66849 0.0
C1224 C 0.34587 0.68544 0.34109 0.0
C1225 C 0.33458 0.72908 0.3428 0.0
H1226 H 0.32377 0.62027 0.34015 0.0
C1227 C 0.29091 0.74026 0.34411 0.0
H1228 H 0.37924 0.67575 0.34015 0.0
C1229 C 0.25925 0.7086 0.34411 0.0
C1230 C 0.27044 0.66493 0.34281 0.0
H1231 H 0.28104 0.77356 0.34542 0.0
H1232 H 0.22595 0.71846 0.34542 0.0
C1233 C 0.31408 0.65365 0.34109 0.0
C1234 C 0.34602 0.31403 0.84105 0.0
C1235 C 0.33469 0.2704 0.84277 0.0
H1236 H 0.32399 0.37922 0.84011 0.0
C1237 C 0.29101 0.25926 0.84407 0.0
H1238 H 0.3794 0.32368 0.84012 0.0
C1239 C 0.25938 0.29096 0.84406 0.0
C1240 C 0.27061 0.33462 0.84276 0.0
H1241 H 0.2811 0.22597 0.84538 0.0
H1242 H 0.22607 0.28113 0.84537 0.0
C1243 C 0.31427 0.34585 0.84105 0.0
C1244 C 0.65352 0.31421 0.34102 0.0
C1245 C 0.6648 0.27056 0.34273 0.0
H1246 H 0.67563 0.37937 0.34008 0.0
C1247 C 0.70848 0.25938 0.34403 0.0
H1248 H 0.62015 0.32389 0.34008 0.0
C1249 C 0.74014 0.29104 0.34403 0.0
C1250 C 0.72896 0.33471 0.34273 0.0
H1251 H 0.71834 0.22608 0.34534 0.0
H1252 H 0.77344 0.28117 0.34533 0.0
C1253 C 0.68531 0.34599 0.34101 0.0
C1254 C 0.68551 0.65352 0.84105 0.0
C1255 C 0.72914 0.66485 0.84277 0.0
H1256 H 0.62032 0.67554 0.84011 0.0
C1257 C 0.74028 0.70853 0.84406 0.0
H1258 H 0.67586 0.62013 0.84012 0.0
C1259 C 0.70858 0.74016 0.84406 0.0
C1260 C 0.66491 0.72893 0.84275 0.0
H1261 H 0.77356 0.71844 0.84537 0.0
H1262 H 0.7184 0.77347 0.84536 0.0
C1263 C 0.65369 0.68527 0.84104 0.0
loop_
_geom_bond_atom_site_label_1
_geom_bond_atom_site_label_2
_geom_bond_distance
_geom_bond_site_symmetry_2
_ccdc_geom_bond_type
Co0 O2 2.143 . S
Co0 O8 2.074 . S
Co0 O11 2.093 . S
Co0 O24 2.097 . S
Co0 N41 2.151 . S
Co0 N49 2.214 . S
Co1 O2 2.160 . S
Co1 O7 2.058 . S
Co1 O17 2.057 . S
Co1 O32 2.037 . S
Co1 N36 2.145 . S
Co1 N57 2.257 . S
O2 Co0 2.143 . S
O2 Co1 2.160 . S
C3 O4 1.278 . S
C3 O11 1.224 . S
O4 C3 1.278 . S
C5 O6 1.245 . S
C5 O17 1.232 . S
O6 C5 1.245 . S
O7 Co1 2.058 . S
O7 C33 1.269 . S
O8 Co0 2.074 . S
O8 C33 1.257 . S
H9 C34 0.930 . S
H10 C40 0.930 . S
O11 Co0 2.093 . S
O11 C3 1.224 . S
H12 C44 0.929 . S
H13 C46 0.930 . S
H14 C47 0.930 . S
H15 C45 0.929 . S
H16 C48 0.928 . S
O17 Co1 2.057 . S
O17 C5 1.232 . S
H18 C37 0.929 . S
H19 C38 0.929 . S
H20 C50 0.931 . S
H21 C42 0.929 . S
H22 C51 0.930 . S
H23 C43 0.931 . S
O24 Co0 2.097 . S
O24 C52 1.214 . S
H25 C53 0.929 . S
H26 C54 0.929 . S
H27 C55 0.930 . S
H28 C56 0.929 . S
H29 C58 0.930 . S
H30 C35 0.930 . S
H31 C39 0.930 . S
O32 Co1 2.037 . S
O32 C52 1.234 . S
C33 O7 1.269 . S
C33 O8 1.257 . S
C34 H9 0.930 . S
C34 C37 1.388 . S
C34 C39 1.418 . S
C35 H30 0.930 . S
C35 C38 1.404 . S
C35 C39 1.353 . S
N36 Co1 2.145 . S
N36 C37 1.397 . S
N36 C38 1.334 . S
C37 H18 0.929 . S
C37 C34 1.388 . S
C37 N36 1.397 . S
C38 H19 0.929 . S
C38 C35 1.404 . S
C38 N36 1.334 . S
C39 H31 0.930 . S
C39 C34 1.418 . S
C39 C35 1.353 . S
C40 H10 0.930 . S
C40 N41 1.330 . S
C40 C42 1.446 . S
N41 Co0 2.151 . S
N41 C40 1.330 . S
N41 C45 1.418 . S
C42 H21 0.929 . S
C42 C40 1.446 . S
C42 C43 1.332 . S
C43 H23 0.931 . S
C43 C42 1.332 . S
C43 C44 1.267 . S
C44 H12 0.929 . S
C44 C43 1.267 . S
C44 C45 1.251 . S
C45 H15 0.929 . S
C45 N41 1.418 . S
C45 C44 1.251 . S
C46 H13 0.930 . S
C46 C48 1.406 . S
C46 C51 1.261 . S
C47 H14 0.930 . S
C47 N49 1.325 . S
C47 C50 1.357 . S
C48 H16 0.928 . S
C48 C46 1.406 . S
C48 N49 1.261 . S
N49 Co0 2.214 . S
N49 C47 1.325 . S
N49 C48 1.261 . S
C50 H20 0.931 . S
C50 C47 1.357 . S
C50 C51 1.312 . S
C51 H22 0.930 . S
C51 C46 1.261 . S
C51 C50 1.312 . S
C52 O24 1.214 . S
C52 O32 1.234 . S
C53 H25 0.929 . S
C53 C56 1.391 . S
C53 C58 1.391 . S
C54 H26 0.929 . S
C54 C55 1.390 . S
C54 N57 1.391 . S
C55 H27 0.930 . S
C55 C54 1.390 . S
C55 C56 1.392 . S
C56 H28 0.929 . S
C56 C53 1.391 . S
C56 C55 1.392 . S
N57 Co1 2.257 . S
N57 C54 1.391 . S
N57 C58 1.388 . S
C58 H29 0.930 . S
C58 C53 1.391 . S
C58 N57 1.388 . S
Co59 O61 2.143 . S
Co59 O67 2.074 . S
Co59 O70 2.093 . S
Co59 O83 2.097 . S
Co59 N100 2.151 . S
Co59 N108 2.214 . S
Co60 O61 2.160 . S
Co60 O66 2.058 . S
Co60 O76 2.057 . S
Co60 O91 2.037 . S
Co60 N95 2.145 . S
Co60 N116 2.257 . S
O61 Co59 2.143 . S
O61 Co60 2.160 . S
C62 O63 1.278 . S
C62 O70 1.224 . S
O63 C62 1.278 . S
C64 O65 1.245 . S
C64 O76 1.232 . S
O65 C64 1.245 . S
O66 Co60 2.058 . S
O66 C92 1.269 . S
O67 Co59 2.074 . S
O67 C92 1.257 . S
H68 C93 0.930 . S
H69 C99 0.930 . S
O70 Co59 2.093 . S
O70 C62 1.224 . S
H71 C103 0.929 . S
H72 C105 0.930 . S
H73 C106 0.930 . S
H74 C104 0.929 . S
H75 C107 0.928 . S
O76 Co60 2.057 . S
O76 C64 1.232 . S
H77 C96 0.929 . S
H78 C97 0.929 . S
H79 C109 0.931 . S
H80 C101 0.929 . S
H81 C110 0.930 . S
H82 C102 0.931 . S
O83 Co59 2.097 . S
O83 C111 1.214 . S
H84 C112 0.929 . S
H85 C113 0.929 . S
H86 C114 0.930 . S
H87 C115 0.929 . S
H88 C117 0.930 . S
H89 C94 0.930 . S
H90 C98 0.930 . S
O91 Co60 2.037 . S
O91 C111 1.234 . S
C92 O66 1.269 . S
C92 O67 1.257 . S
C93 H68 0.930 . S
C93 C96 1.388 . S
C93 C98 1.418 . S
C94 H89 0.930 . S
C94 C97 1.404 . S
C94 C98 1.353 . S
N95 Co60 2.145 . S
N95 C96 1.397 . S
N95 C97 1.334 . S
C96 H77 0.929 . S
C96 C93 1.388 . S
C96 N95 1.397 . S
C97 H78 0.929 . S
C97 C94 1.404 . S
C97 N95 1.334 . S
C98 H90 0.930 . S
C98 C93 1.418 . S
C98 C94 1.353 . S
C99 H69 0.930 . S
C99 N100 1.330 . S
C99 C101 1.446 . S
N100 Co59 2.151 . S
N100 C99 1.330 . S
N100 C104 1.418 . S
C101 H80 0.929 . S
C101 C99 1.446 . S
C101 C102 1.332 . S
C102 H82 0.931 . S
C102 C101 1.332 . S
C102 C103 1.267 . S
C103 H71 0.929 . S
C103 C102 1.267 . S
C103 C104 1.251 . S
C104 H74 0.929 . S
C104 N100 1.418 . S
C104 C103 1.251 . S
C105 H72 0.930 . S
C105 C107 1.406 . S
C105 C110 1.261 . S
C106 H73 0.930 . S
C106 N108 1.325 . S
C106 C109 1.357 . S
C107 H75 0.928 . S
C107 C105 1.406 . S
C107 N108 1.261 . S
N108 Co59 2.214 . S
N108 C106 1.325 . S
N108 C107 1.261 . S
C109 H79 0.931 . S
C109 C106 1.357 . S
C109 C110 1.312 . S
C110 H81 0.930 . S
C110 C105 1.261 . S
C110 C109 1.312 . S
C111 O83 1.214 . S
C111 O91 1.234 . S
C112 H84 0.929 . S
C112 C115 1.391 . S
C112 C117 1.391 . S
C113 H85 0.929 . S
C113 C114 1.390 . S
C113 N116 1.391 . S
C114 H86 0.930 . S
C114 C113 1.390 . S
C114 C115 1.392 . S
C115 H87 0.929 . S
C115 C112 1.391 . S
C115 C114 1.392 . S
N116 Co60 2.257 . S
N116 C113 1.391 . S
N116 C117 1.388 . S
C117 H88 0.930 . S
C117 C112 1.391 . S
C117 N116 1.388 . S
Co118 O120 2.143 . S
Co118 O126 2.074 . S
Co118 O129 2.093 . S
Co118 O142 2.097 . S
Co118 N159 2.151 . S
Co118 N167 2.214 . S
Co119 O120 2.160 . S
Co119 O125 2.058 . S
Co119 O135 2.057 . S
Co119 O150 2.037 . S
Co119 N154 2.145 . S
Co119 N175 2.257 . S
O120 Co118 2.143 . S
O120 Co119 2.160 . S
C121 O122 1.278 . S
C121 O129 1.224 . S
O122 C121 1.278 . S
C123 O124 1.245 . S
C123 O135 1.232 . S
O124 C123 1.245 . S
O125 Co119 2.058 . S
O125 C151 1.269 . S
O126 Co118 2.074 . S
O126 C151 1.257 . S
H127 C152 0.930 . S
H128 C158 0.930 . S
O129 Co118 2.093 . S
O129 C121 1.224 . S
H130 C162 0.929 . S
H131 C164 0.930 . S
H132 C165 0.930 . S
H133 C163 0.929 . S
H134 C166 0.928 . S
O135 Co119 2.057 . S
O135 C123 1.232 . S
H136 C155 0.929 . S
H137 C156 0.929 . S
H138 C168 0.931 . S
H139 C160 0.929 . S
H140 C169 0.930 . S
H141 C161 0.931 . S
O142 Co118 2.097 . S
O142 C170 1.214 . S
H143 C171 0.929 . S
H144 C172 0.929 . S
H145 C173 0.930 . S
H146 C174 0.929 . S
H147 C176 0.930 . S
H148 C153 0.930 . S
H149 C157 0.930 . S
O150 Co119 2.037 . S
O150 C170 1.234 . S
C151 O125 1.269 . S
C151 O126 1.257 . S
C152 H127 0.930 . S
C152 C155 1.388 . S
C152 C157 1.418 . S
C153 H148 0.930 . S
C153 C156 1.404 . S
C153 C157 1.353 . S
N154 Co119 2.145 . S
N154 C155 1.397 . S
N154 C156 1.334 . S
C155 H136 0.929 . S
C155 C152 1.388 . S
C155 N154 1.397 . S
C156 H137 0.929 . S
C156 C153 1.404 . S
C156 N154 1.334 . S
C157 H149 0.930 . S
C157 C152 1.418 . S
C157 C153 1.353 . S
C158 H128 0.930 . S
C158 N159 1.330 . S
C158 C160 1.446 . S
N159 Co118 2.151 . S
N159 C158 1.330 . S
N159 C163 1.418 . S
C160 H139 0.929 . S
C160 C158 1.446 . S
C160 C161 1.332 . S
C161 H141 0.931 . S
C161 C160 1.332 . S
C161 C162 1.267 . S
C162 H130 0.929 . S
C162 C161 1.267 . S
C162 C163 1.251 . S
C163 H133 0.929 . S
C163 N159 1.418 . S
C163 C162 1.251 . S
C164 H131 0.930 . S
C164 C166 1.406 . S
C164 C169 1.261 . S
C165 H132 0.930 . S
C165 N167 1.325 . S
C165 C168 1.357 . S
C166 H134 0.928 . S
C166 C164 1.406 . S
C166 N167 1.261 . S
N167 Co118 2.214 . S
N167 C165 1.325 . S
N167 C166 1.261 . S
C168 H138 0.931 . S
C168 C165 1.357 . S
C168 C169 1.312 . S
C169 H140 0.930 . S
C169 C164 1.261 . S
C169 C168 1.312 . S
C170 O142 1.214 . S
C170 O150 1.234 . S
C171 H143 0.929 . S
C171 C174 1.391 . S
C171 C176 1.391 . S
C172 H144 0.929 . S
C172 C173 1.390 . S
C172 N175 1.391 . S
C173 H145 0.930 . S
C173 C172 1.390 . S
C173 C174 1.392 . S
C174 H146 0.929 . S
C174 C171 1.391 . S
C174 C173 1.392 . S
N175 Co119 2.257 . S
N175 C172 1.391 . S
N175 C176 1.388 . S
C176 H147 0.930 . S
C176 C171 1.391 . S
C176 N175 1.388 . S
Co177 O179 2.143 . S
Co177 O185 2.074 . S
Co177 O188 2.093 . S
Co177 O201 2.097 . S
Co177 N218 2.151 . S
Co177 N226 2.214 . S
Co178 O179 2.160 . S
Co178 O184 2.058 . S
Co178 O194 2.057 . S
Co178 O209 2.037 . S
Co178 N213 2.145 . S
Co178 N234 2.257 . S
O179 Co177 2.143 . S
O179 Co178 2.160 . S
C180 O181 1.278 . S
C180 O188 1.224 . S
O181 C180 1.278 . S
C182 O183 1.245 . S
C182 O194 1.232 . S
O183 C182 1.245 . S
O184 Co178 2.058 . S
O184 C210 1.269 . S
O185 Co177 2.074 . S
O185 C210 1.257 . S
H186 C211 0.930 . S
H187 C217 0.930 . S
O188 Co177 2.093 . S
O188 C180 1.224 . S
H189 C221 0.929 . S
H190 C223 0.930 . S
H191 C224 0.930 . S
H192 C222 0.929 . S
H193 C225 0.928 . S
O194 Co178 2.057 . S
O194 C182 1.232 . S
H195 C214 0.929 . S
H196 C215 0.929 . S
H197 C227 0.931 . S
H198 C219 0.929 . S
H199 C228 0.930 . S
H200 C220 0.931 . S
O201 Co177 2.097 . S
O201 C229 1.214 . S
H202 C230 0.929 . S
H203 C231 0.929 . S
H204 C232 0.930 . S
H205 C233 0.929 . S
H206 C235 0.930 . S
H207 C212 0.930 . S
H208 C216 0.930 . S
O209 Co178 2.037 . S
O209 C229 1.234 . S
C210 O184 1.269 . S
C210 O185 1.257 . S
C211 H186 0.930 . S
C211 C214 1.388 . S
C211 C216 1.418 . S
C212 H207 0.930 . S
C212 C215 1.404 . S
C212 C216 1.353 . S
N213 Co178 2.145 . S
N213 C214 1.397 . S
N213 C215 1.334 . S
C214 H195 0.929 . S
C214 C211 1.388 . S
C214 N213 1.397 . S
C215 H196 0.929 . S
C215 C212 1.404 . S
C215 N213 1.334 . S
C216 H208 0.930 . S
C216 C211 1.418 . S
C216 C212 1.353 . S
C217 H187 0.930 . S
C217 N218 1.330 . S
C217 C219 1.446 . S
N218 Co177 2.151 . S
N218 C217 1.330 . S
N218 C222 1.418 . S
C219 H198 0.929 . S
C219 C217 1.446 . S
C219 C220 1.332 . S
C220 H200 0.931 . S
C220 C219 1.332 . S
C220 C221 1.267 . S
C221 H189 0.929 . S
C221 C220 1.267 . S
C221 C222 1.251 . S
C222 H192 0.929 . S
C222 N218 1.418 . S
C222 C221 1.251 . S
C223 H190 0.930 . S
C223 C225 1.406 . S
C223 C228 1.261 . S
C224 H191 0.930 . S
C224 N226 1.325 . S
C224 C227 1.357 . S
C225 H193 0.928 . S
C225 C223 1.406 . S
C225 N226 1.261 . S
N226 Co177 2.214 . S
N226 C224 1.325 . S
N226 C225 1.261 . S
C227 H197 0.931 . S
C227 C224 1.357 . S
C227 C228 1.312 . S
C228 H199 0.930 . S
C228 C223 1.261 . S
C228 C227 1.312 . S
C229 O201 1.214 . S
C229 O209 1.234 . S
C230 H202 0.929 . S
C230 C233 1.391 . S
C230 C235 1.391 . S
C231 H203 0.929 . S
C231 C232 1.390 . S
C231 N234 1.391 . S
C232 H204 0.930 . S
C232 C231 1.390 . S
C232 C233 1.392 . S
C233 H205 0.929 . S
C233 C230 1.391 . S
C233 C232 1.392 . S
N234 Co178 2.257 . S
N234 C231 1.391 . S
N234 C235 1.388 . S
C235 H206 0.930 . S
C235 C230 1.391 . S
C235 N234 1.388 . S
Co236 O238 2.143 . S
Co236 O244 2.074 . S
Co236 O247 2.093 . S
Co236 O260 2.097 . S
Co236 N277 2.151 . S
Co236 N285 2.214 . S
Co237 O238 2.160 . S
Co237 O243 2.058 . S
Co237 O253 2.057 . S
Co237 O268 2.037 . S
Co237 N272 2.145 . S
Co237 N293 2.257 . S
O238 Co236 2.143 . S
O238 Co237 2.160 . S
C239 O240 1.278 . S
C239 O247 1.224 . S
O240 C239 1.278 . S
C241 O242 1.245 . S
C241 O253 1.232 . S
O242 C241 1.245 . S
O243 Co237 2.058 . S
O243 C269 1.269 . S
O244 Co236 2.074 . S
O244 C269 1.257 . S
H245 C270 0.930 . S
H246 C276 0.930 . S
O247 Co236 2.093 . S
O247 C239 1.224 . S
H248 C280 0.929 . S
H249 C282 0.930 . S
H250 C283 0.930 . S
H251 C281 0.929 . S
H252 C284 0.928 . S
O253 Co237 2.057 . S
O253 C241 1.232 . S
H254 C273 0.929 . S
H255 C274 0.929 . S
H256 C286 0.931 . S
H257 C278 0.929 . S
H258 C287 0.930 . S
H259 C279 0.931 . S
O260 Co236 2.097 . S
O260 C288 1.214 . S
H261 C289 0.929 . S
H262 C290 0.929 . S
H263 C291 0.930 . S
H264 C292 0.929 . S
H265 C294 0.930 . S
H266 C271 0.930 . S
H267 C275 0.930 . S
O268 Co237 2.037 . S
O268 C288 1.234 . S
C269 O243 1.269 . S
C269 O244 1.257 . S
C270 H245 0.930 . S
C270 C273 1.388 . S
C270 C275 1.418 . S
C271 H266 0.930 . S
C271 C274 1.404 . S
C271 C275 1.353 . S
N272 Co237 2.145 . S
N272 C273 1.397 . S
N272 C274 1.334 . S
C273 H254 0.929 . S
C273 C270 1.388 . S
C273 N272 1.397 . S
C274 H255 0.929 . S
C274 C271 1.404 . S
C274 N272 1.334 . S
C275 H267 0.930 . S
C275 C270 1.418 . S
C275 C271 1.353 . S
C276 H246 0.930 . S
C276 N277 1.330 . S
C276 C278 1.446 . S
N277 Co236 2.151 . S
N277 C276 1.330 . S
N277 C281 1.418 . S
C278 H257 0.929 . S
C278 C276 1.446 . S
C278 C279 1.332 . S
C279 H259 0.931 . S
C279 C278 1.332 . S
C279 C280 1.267 . S
C280 H248 0.929 . S
C280 C279 1.267 . S
C280 C281 1.251 . S
C281 H251 0.929 . S
C281 N277 1.418 . S
C281 C280 1.251 . S
C282 H249 0.930 . S
C282 C284 1.406 . S
C282 C287 1.261 . S
C283 H250 0.930 . S
C283 N285 1.325 . S
C283 C286 1.357 . S
C284 H252 0.928 . S
C284 C282 1.406 . S
C284 N285 1.261 . S
N285 Co236 2.214 . S
N285 C283 1.325 . S
N285 C284 1.261 . S
C286 H256 0.931 . S
C286 C283 1.357 . S
C286 C287 1.312 . S
C287 H258 0.930 . S
C287 C282 1.261 . S
C287 C286 1.312 . S
C288 O260 1.214 . S
C288 O268 1.234 . S
C289 H261 0.929 . S
C289 C292 1.391 . S
C289 C294 1.391 . S
C290 H262 0.929 . S
C290 C291 1.390 . S
C290 N293 1.391 . S
C291 H263 0.930 . S
C291 C290 1.390 . S
C291 C292 1.392 . S
C292 H264 0.929 . S
C292 C289 1.391 . S
C292 C291 1.392 . S
N293 Co237 2.257 . S
N293 C290 1.391 . S
N293 C294 1.388 . S
C294 H265 0.930 . S
C294 C289 1.391 . S
C294 N293 1.388 . S
Co295 O297 2.143 . S
Co295 O303 2.074 . S
Co295 O306 2.093 . S
Co295 O319 2.097 . S
Co295 N336 2.151 . S
Co295 N344 2.214 . S
Co296 O297 2.160 . S
Co296 O302 2.058 . S
Co296 O312 2.057 . S
Co296 O327 2.037 . S
Co296 N331 2.145 . S
Co296 N352 2.257 . S
O297 Co295 2.143 . S
O297 Co296 2.160 . S
C298 O299 1.278 . S
C298 O306 1.224 . S
O299 C298 1.278 . S
C300 O301 1.245 . S
C300 O312 1.232 . S
O301 C300 1.245 . S
O302 Co296 2.058 . S
O302 C328 1.269 . S
O303 Co295 2.074 . S
O303 C328 1.257 . S
H304 C329 0.930 . S
H305 C335 0.930 . S
O306 Co295 2.093 . S
O306 C298 1.224 . S
H307 C339 0.929 . S
H308 C341 0.930 . S
H309 C342 0.930 . S
H310 C340 0.929 . S
H311 C343 0.928 . S
O312 Co296 2.057 . S
O312 C300 1.232 . S
H313 C332 0.929 . S
H314 C333 0.929 . S
H315 C345 0.931 . S
H316 C337 0.929 . S
H317 C346 0.930 . S
H318 C338 0.931 . S
O319 Co295 2.097 . S
O319 C347 1.214 . S
H320 C348 0.929 . S
H321 C349 0.929 . S
H322 C350 0.930 . S
H323 C351 0.929 . S
H324 C353 0.930 . S
H325 C330 0.930 . S
H326 C334 0.930 . S
O327 Co296 2.037 . S
O327 C347 1.234 . S
C328 O302 1.269 . S
C328 O303 1.257 . S
C329 H304 0.930 . S
C329 C332 1.388 . S
C329 C334 1.418 . S
C330 H325 0.930 . S
C330 C333 1.404 . S
C330 C334 1.353 . S
N331 Co296 2.145 . S
N331 C332 1.397 . S
N331 C333 1.334 . S
C332 H313 0.929 . S
C332 C329 1.388 . S
C332 N331 1.397 . S
C333 H314 0.929 . S
C333 C330 1.404 . S
C333 N331 1.334 . S
C334 H326 0.930 . S
C334 C329 1.418 . S
C334 C330 1.353 . S
C335 H305 0.930 . S
C335 N336 1.330 . S
C335 C337 1.446 . S
N336 Co295 2.151 . S
N336 C335 1.330 . S
N336 C340 1.418 . S
C337 H316 0.929 . S
C337 C335 1.446 . S
C337 C338 1.332 . S
C338 H318 0.931 . S
C338 C337 1.332 . S
C338 C339 1.267 . S
C339 H307 0.929 . S
C339 C338 1.267 . S
C339 C340 1.251 . S
C340 H310 0.929 . S
C340 N336 1.418 . S
C340 C339 1.251 . S
C341 H308 0.930 . S
C341 C343 1.406 . S
C341 C346 1.261 . S
C342 H309 0.930 . S
C342 N344 1.325 . S
C342 C345 1.357 . S
C343 H311 0.928 . S
C343 C341 1.406 . S
C343 N344 1.261 . S
N344 Co295 2.214 . S
N344 C342 1.325 . S
N344 C343 1.261 . S
C345 H315 0.931 . S
C345 C342 1.357 . S
C345 C346 1.312 . S
C346 H317 0.930 . S
C346 C341 1.261 . S
C346 C345 1.312 . S
C347 O319 1.214 . S
C347 O327 1.234 . S
C348 H320 0.929 . S
C348 C351 1.391 . S
C348 C353 1.391 . S
C349 H321 0.929 . S
C349 C350 1.390 . S
C349 N352 1.391 . S
C350 H322 0.930 . S
C350 C349 1.390 . S
C350 C351 1.392 . S
C351 H323 0.929 . S
C351 C348 1.391 . S
C351 C350 1.392 . S
N352 Co296 2.257 . S
N352 C349 1.391 . S
N352 C353 1.388 . S
C353 H324 0.930 . S
C353 C348 1.391 . S
C353 N352 1.388 . S
Co354 O356 2.143 . S
Co354 O362 2.074 . S
Co354 O365 2.093 . S
Co354 O378 2.097 . S
Co354 N395 2.151 . S
Co354 N403 2.214 . S
Co355 O356 2.160 . S
Co355 O361 2.058 . S
Co355 O371 2.057 . S
Co355 O386 2.037 . S
Co355 N390 2.145 . S
Co355 N411 2.257 . S
O356 Co354 2.143 . S
O356 Co355 2.160 . S
C357 O358 1.278 . S
C357 O365 1.224 . S
O358 C357 1.278 . S
C359 O360 1.245 . S
C359 O371 1.232 . S
O360 C359 1.245 . S
O361 Co355 2.058 . S
O361 C387 1.269 . S
O362 Co354 2.074 . S
O362 C387 1.257 . S
H363 C388 0.930 . S
H364 C394 0.930 . S
O365 Co354 2.093 . S
O365 C357 1.224 . S
H366 C398 0.929 . S
H367 C400 0.930 . S
H368 C401 0.930 . S
H369 C399 0.929 . S
H370 C402 0.928 . S
O371 Co355 2.057 . S
O371 C359 1.232 . S
H372 C391 0.929 . S
H373 C392 0.929 . S
H374 C404 0.931 . S
H375 C396 0.929 . S
H376 C405 0.930 . S
H377 C397 0.931 . S
O378 Co354 2.097 . S
O378 C406 1.214 . S
H379 C407 0.929 . S
H380 C408 0.929 . S
H381 C409 0.930 . S
H382 C410 0.929 . S
H383 C412 0.930 . S
H384 C389 0.930 . S
H385 C393 0.930 . S
O386 Co355 2.037 . S
O386 C406 1.234 . S
C387 O361 1.269 . S
C387 O362 1.257 . S
C388 H363 0.930 . S
C388 C391 1.388 . S
C388 C393 1.418 . S
C389 H384 0.930 . S
C389 C392 1.404 . S
C389 C393 1.353 . S
N390 Co355 2.145 . S
N390 C391 1.397 . S
N390 C392 1.334 . S
C391 H372 0.929 . S
C391 C388 1.388 . S
C391 N390 1.397 . S
C392 H373 0.929 . S
C392 C389 1.404 . S
C392 N390 1.334 . S
C393 H385 0.930 . S
C393 C388 1.418 . S
C393 C389 1.353 . S
C394 H364 0.930 . S
C394 N395 1.330 . S
C394 C396 1.446 . S
N395 Co354 2.151 . S
N395 C394 1.330 . S
N395 C399 1.418 . S
C396 H375 0.929 . S
C396 C394 1.446 . S
C396 C397 1.332 . S
C397 H377 0.931 . S
C397 C396 1.332 . S
C397 C398 1.267 . S
C398 H366 0.929 . S
C398 C397 1.267 . S
C398 C399 1.251 . S
C399 H369 0.929 . S
C399 N395 1.418 . S
C399 C398 1.251 . S
C400 H367 0.930 . S
C400 C402 1.406 . S
C400 C405 1.261 . S
C401 H368 0.930 . S
C401 N403 1.325 . S
C401 C404 1.357 . S
C402 H370 0.928 . S
C402 C400 1.406 . S
C402 N403 1.261 . S
N403 Co354 2.214 . S
N403 C401 1.325 . S
N403 C402 1.261 . S
C404 H374 0.931 . S
C404 C401 1.357 . S
C404 C405 1.312 . S
C405 H376 0.930 . S
C405 C400 1.261 . S
C405 C404 1.312 . S
C406 O378 1.214 . S
C406 O386 1.234 . S
C407 H379 0.929 . S
C407 C410 1.391 . S
C407 C412 1.391 . S
C408 H380 0.929 . S
C408 C409 1.390 . S
C408 N411 1.391 . S
C409 H381 0.930 . S
C409 C408 1.390 . S
C409 C410 1.392 . S
C410 H382 0.929 . S
C410 C407 1.391 . S
C410 C409 1.392 . S
N411 Co355 2.257 . S
N411 C408 1.391 . S
N411 C412 1.388 . S
C412 H383 0.930 . S
C412 C407 1.391 . S
C412 N411 1.388 . S
Co413 O415 2.143 . S
Co413 O421 2.074 . S
Co413 O424 2.093 . S
Co413 O437 2.097 . S
Co413 N454 2.151 . S
Co413 N462 2.214 . S
Co414 O415 2.160 . S
Co414 O420 2.058 . S
Co414 O430 2.057 . S
Co414 O445 2.037 . S
Co414 N449 2.145 . S
Co414 N470 2.257 . S
O415 Co413 2.143 . S
O415 Co414 2.160 . S
C416 O417 1.278 . S
C416 O424 1.224 . S
O417 C416 1.278 . S
C418 O419 1.245 . S
C418 O430 1.232 . S
O419 C418 1.245 . S
O420 Co414 2.058 . S
O420 C446 1.269 . S
O421 Co413 2.074 . S
O421 C446 1.257 . S
H422 C447 0.930 . S
H423 C453 0.930 . S
O424 Co413 2.093 . S
O424 C416 1.224 . S
H425 C457 0.929 . S
H426 C459 0.930 . S
H427 C460 0.930 . S
H428 C458 0.929 . S
H429 C461 0.928 . S
O430 Co414 2.057 . S
O430 C418 1.232 . S
H431 C450 0.929 . S
H432 C451 0.929 . S
H433 C463 0.931 . S
H434 C455 0.929 . S
H435 C464 0.930 . S
H436 C456 0.931 . S
O437 Co413 2.097 . S
O437 C465 1.214 . S
H438 C466 0.929 . S
H439 C467 0.929 . S
H440 C468 0.930 . S
H441 C469 0.929 . S
H442 C471 0.930 . S
H443 C448 0.930 . S
H444 C452 0.930 . S
O445 Co414 2.037 . S
O445 C465 1.234 . S
C446 O420 1.269 . S
C446 O421 1.257 . S
C447 H422 0.930 . S
C447 C450 1.388 . S
C447 C452 1.418 . S
C448 H443 0.930 . S
C448 C451 1.404 . S
C448 C452 1.353 . S
N449 Co414 2.145 . S
N449 C450 1.397 . S
N449 C451 1.334 . S
C450 H431 0.929 . S
C450 C447 1.388 . S
C450 N449 1.397 . S
C451 H432 0.929 . S
C451 C448 1.404 . S
C451 N449 1.334 . S
C452 H444 0.930 . S
C452 C447 1.418 . S
C452 C448 1.353 . S
C453 H423 0.930 . S
C453 N454 1.330 . S
C453 C455 1.446 . S
N454 Co413 2.151 . S
N454 C453 1.330 . S
N454 C458 1.418 . S
C455 H434 0.929 . S
C455 C453 1.446 . S
C455 C456 1.332 . S
C456 H436 0.931 . S
C456 C455 1.332 . S
C456 C457 1.267 . S
C457 H425 0.929 . S
C457 C456 1.267 . S
C457 C458 1.251 . S
C458 H428 0.929 . S
C458 N454 1.418 . S
C458 C457 1.251 . S
C459 H426 0.930 . S
C459 C461 1.406 . S
C459 C464 1.261 . S
C460 H427 0.930 . S
C460 N462 1.325 . S
C460 C463 1.357 . S
C461 H429 0.928 . S
C461 C459 1.406 . S
C461 N462 1.261 . S
N462 Co413 2.214 . S
N462 C460 1.325 . S
N462 C461 1.261 . S
C463 H433 0.931 . S
C463 C460 1.357 . S
C463 C464 1.312 . S
C464 H435 0.930 . S
C464 C459 1.261 . S
C464 C463 1.312 . S
C465 O437 1.214 . S
C465 O445 1.234 . S
C466 H438 0.929 . S
C466 C469 1.391 . S
C466 C471 1.391 . S
C467 H439 0.929 . S
C467 C468 1.390 . S
C467 N470 1.391 . S
C468 H440 0.930 . S
C468 C467 1.390 . S
C468 C469 1.392 . S
C469 H441 0.929 . S
C469 C466 1.391 . S
C469 C468 1.392 . S
N470 Co414 2.257 . S
N470 C467 1.391 . S
N470 C471 1.388 . S
C471 H442 0.930 . S
C471 C466 1.391 . S
C471 N470 1.388 . S
Co472 O474 2.143 . S
Co472 O480 2.074 . S
Co472 O483 2.093 . S
Co472 O496 2.097 . S
Co472 N513 2.151 . S
Co472 N521 2.214 . S
Co473 O474 2.160 . S
Co473 O479 2.058 . S
Co473 O489 2.057 . S
Co473 O504 2.037 . S
Co473 N508 2.145 . S
Co473 N529 2.257 . S
O474 Co472 2.143 . S
O474 Co473 2.160 . S
C475 O476 1.278 . S
C475 O483 1.224 . S
O476 C475 1.278 . S
C477 O478 1.245 . S
C477 O489 1.232 . S
O478 C477 1.245 . S
O479 Co473 2.058 . S
O479 C505 1.269 . S
O480 Co472 2.074 . S
O480 C505 1.257 . S
H481 C506 0.930 . S
H482 C512 0.930 . S
O483 Co472 2.093 . S
O483 C475 1.224 . S
H484 C516 0.929 . S
H485 C518 0.930 . S
H486 C519 0.930 . S
H487 C517 0.929 . S
H488 C520 0.928 . S
O489 Co473 2.057 . S
O489 C477 1.232 . S
H490 C509 0.929 . S
H491 C510 0.929 . S
H492 C522 0.931 . S
H493 C514 0.929 . S
H494 C523 0.930 . S
H495 C515 0.931 . S
O496 Co472 2.097 . S
O496 C524 1.214 . S
H497 C525 0.929 . S
H498 C526 0.929 . S
H499 C527 0.930 . S
H500 C528 0.929 . S
H501 C530 0.930 . S
H502 C507 0.930 . S
H503 C511 0.930 . S
O504 Co473 2.037 . S
O504 C524 1.234 . S
C505 O479 1.269 . S
C505 O480 1.257 . S
C506 H481 0.930 . S
C506 C509 1.388 . S
C506 C511 1.418 . S
C507 H502 0.930 . S
C507 C510 1.404 . S
C507 C511 1.353 . S
N508 Co473 2.145 . S
N508 C509 1.397 . S
N508 C510 1.334 . S
C509 H490 0.929 . S
C509 C506 1.388 . S
C509 N508 1.397 . S
C510 H491 0.929 . S
C510 C507 1.404 . S
C510 N508 1.334 . S
C511 H503 0.930 . S
C511 C506 1.418 . S
C511 C507 1.353 . S
C512 H482 0.930 . S
C512 N513 1.330 . S
C512 C514 1.446 . S
N513 Co472 2.151 . S
N513 C512 1.330 . S
N513 C517 1.418 . S
C514 H493 0.929 . S
C514 C512 1.446 . S
C514 C515 1.332 . S
C515 H495 0.931 . S
C515 C514 1.332 . S
C515 C516 1.267 . S
C516 H484 0.929 . S
C516 C515 1.267 . S
C516 C517 1.251 . S
C517 H487 0.929 . S
C517 N513 1.418 . S
C517 C516 1.251 . S
C518 H485 0.930 . S
C518 C520 1.406 . S
C518 C523 1.261 . S
C519 H486 0.930 . S
C519 N521 1.325 . S
C519 C522 1.357 . S
C520 H488 0.928 . S
C520 C518 1.406 . S
C520 N521 1.261 . S
N521 Co472 2.214 . S
N521 C519 1.325 . S
N521 C520 1.261 . S
C522 H492 0.931 . S
C522 C519 1.357 . S
C522 C523 1.312 . S
C523 H494 0.930 . S
C523 C518 1.261 . S
C523 C522 1.312 . S
C524 O496 1.214 . S
C524 O504 1.234 . S
C525 H497 0.929 . S
C525 C528 1.391 . S
C525 C530 1.391 . S
C526 H498 0.929 . S
C526 C527 1.390 . S
C526 N529 1.391 . S
C527 H499 0.930 . S
C527 C526 1.390 . S
C527 C528 1.392 . S
C528 H500 0.929 . S
C528 C525 1.391 . S
C528 C527 1.392 . S
N529 Co473 2.257 . S
N529 C526 1.391 . S
N529 C530 1.388 . S
C530 H501 0.930 . S
C530 C525 1.391 . S
C530 N529 1.388 . S
Co531 O533 2.143 . S
Co531 O539 2.074 . S
Co531 O542 2.093 . S
Co531 O555 2.097 . S
Co531 N572 2.151 . S
Co531 N580 2.214 . S
Co532 O533 2.160 . S
Co532 O538 2.058 . S
Co532 O548 2.057 . S
Co532 O563 2.037 . S
Co532 N567 2.145 . S
Co532 N588 2.257 . S
O533 Co531 2.143 . S
O533 Co532 2.160 . S
C534 O535 1.278 . S
C534 O542 1.224 . S
O535 C534 1.278 . S
C536 O537 1.245 . S
C536 O548 1.232 . S
O537 C536 1.245 . S
O538 Co532 2.058 . S
O538 C564 1.269 . S
O539 Co531 2.074 . S
O539 C564 1.257 . S
H540 C565 0.930 . S
H541 C571 0.930 . S
O542 Co531 2.093 . S
O542 C534 1.224 . S
H543 C575 0.929 . S
H544 C577 0.930 . S
H545 C578 0.930 . S
H546 C576 0.929 . S
H547 C579 0.928 . S
O548 Co532 2.057 . S
O548 C536 1.232 . S
H549 C568 0.929 . S
H550 C569 0.929 . S
H551 C581 0.931 . S
H552 C573 0.929 . S
H553 C582 0.930 . S
H554 C574 0.931 . S
O555 Co531 2.097 . S
O555 C583 1.214 . S
H556 C584 0.929 . S
H557 C585 0.929 . S
H558 C586 0.930 . S
H559 C587 0.929 . S
H560 C589 0.930 . S
H561 C566 0.930 . S
H562 C570 0.930 . S
O563 Co532 2.037 . S
O563 C583 1.234 . S
C564 O538 1.269 . S
C564 O539 1.257 . S
C565 H540 0.930 . S
C565 C568 1.388 . S
C565 C570 1.418 . S
C566 H561 0.930 . S
C566 C569 1.404 . S
C566 C570 1.353 . S
N567 Co532 2.145 . S
N567 C568 1.397 . S
N567 C569 1.334 . S
C568 H549 0.929 . S
C568 C565 1.388 . S
C568 N567 1.397 . S
C569 H550 0.929 . S
C569 C566 1.404 . S
C569 N567 1.334 . S
C570 H562 0.930 . S
C570 C565 1.418 . S
C570 C566 1.353 . S
C571 H541 0.930 . S
C571 N572 1.330 . S
C571 C573 1.446 . S
N572 Co531 2.151 . S
N572 C571 1.330 . S
N572 C576 1.418 . S
C573 H552 0.929 . S
C573 C571 1.446 . S
C573 C574 1.332 . S
C574 H554 0.931 . S
C574 C573 1.332 . S
C574 C575 1.267 . S
C575 H543 0.929 . S
C575 C574 1.267 . S
C575 C576 1.251 . S
C576 H546 0.929 . S
C576 N572 1.418 . S
C576 C575 1.251 . S
C577 H544 0.930 . S
C577 C579 1.406 . S
C577 C582 1.261 . S
C578 H545 0.930 . S
C578 N580 1.325 . S
C578 C581 1.357 . S
C579 H547 0.928 . S
C579 C577 1.406 . S
C579 N580 1.261 . S
N580 Co531 2.214 . S
N580 C578 1.325 . S
N580 C579 1.261 . S
C581 H551 0.931 . S
C581 C578 1.357 . S
C581 C582 1.312 . S
C582 H553 0.930 . S
C582 C577 1.261 . S
C582 C581 1.312 . S
C583 O555 1.214 . S
C583 O563 1.234 . S
C584 H556 0.929 . S
C584 C587 1.391 . S
C584 C589 1.391 . S
C585 H557 0.929 . S
C585 C586 1.390 . S
C585 N588 1.391 . S
C586 H558 0.930 . S
C586 C585 1.390 . S
C586 C587 1.392 . S
C587 H559 0.929 . S
C587 C584 1.391 . S
C587 C586 1.392 . S
N588 Co532 2.257 . S
N588 C585 1.391 . S
N588 C589 1.388 . S
C589 H560 0.930 . S
C589 C584 1.391 . S
C589 N588 1.388 . S
Co590 O592 2.143 . S
Co590 O598 2.074 . S
Co590 O601 2.093 . S
Co590 O614 2.097 . S
Co590 N631 2.151 . S
Co590 N639 2.214 . S
Co591 O592 2.160 . S
Co591 O597 2.058 . S
Co591 O607 2.057 . S
Co591 O622 2.037 . S
Co591 N626 2.145 . S
Co591 N647 2.257 . S
O592 Co590 2.143 . S
O592 Co591 2.160 . S
C593 O594 1.278 . S
C593 O601 1.224 . S
O594 C593 1.278 . S
C595 O596 1.245 . S
C595 O607 1.232 . S
O596 C595 1.245 . S
O597 Co591 2.058 . S
O597 C623 1.269 . S
O598 Co590 2.074 . S
O598 C623 1.257 . S
H599 C624 0.930 . S
H600 C630 0.930 . S
O601 Co590 2.093 . S
O601 C593 1.224 . S
H602 C634 0.929 . S
H603 C636 0.930 . S
H604 C637 0.930 . S
H605 C635 0.929 . S
H606 C638 0.928 . S
O607 Co591 2.057 . S
O607 C595 1.232 . S
H608 C627 0.929 . S
H609 C628 0.929 . S
H610 C640 0.931 . S
H611 C632 0.929 . S
H612 C641 0.930 . S
H613 C633 0.931 . S
O614 Co590 2.097 . S
O614 C642 1.214 . S
H615 C643 0.929 . S
H616 C644 0.929 . S
H617 C645 0.930 . S
H618 C646 0.929 . S
H619 C648 0.930 . S
H620 C625 0.930 . S
H621 C629 0.930 . S
O622 Co591 2.037 . S
O622 C642 1.234 . S
C623 O597 1.269 . S
C623 O598 1.257 . S
C624 H599 0.930 . S
C624 C627 1.388 . S
C624 C629 1.418 . S
C625 H620 0.930 . S
C625 C628 1.404 . S
C625 C629 1.353 . S
N626 Co591 2.145 . S
N626 C627 1.397 . S
N626 C628 1.334 . S
C627 H608 0.929 . S
C627 C624 1.388 . S
C627 N626 1.397 . S
C628 H609 0.929 . S
C628 C625 1.404 . S
C628 N626 1.334 . S
C629 H621 0.930 . S
C629 C624 1.418 . S
C629 C625 1.353 . S
C630 H600 0.930 . S
C630 N631 1.330 . S
C630 C632 1.446 . S
N631 Co590 2.151 . S
N631 C630 1.330 . S
N631 C635 1.418 . S
C632 H611 0.929 . S
C632 C630 1.446 . S
C632 C633 1.332 . S
C633 H613 0.931 . S
C633 C632 1.332 . S
C633 C634 1.267 . S
C634 H602 0.929 . S
C634 C633 1.267 . S
C634 C635 1.251 . S
C635 H605 0.929 . S
C635 N631 1.418 . S
C635 C634 1.251 . S
C636 H603 0.930 . S
C636 C638 1.406 . S
C636 C641 1.261 . S
C637 H604 0.930 . S
C637 N639 1.325 . S
C637 C640 1.357 . S
C638 H606 0.928 . S
C638 C636 1.406 . S
C638 N639 1.261 . S
N639 Co590 2.214 . S
N639 C637 1.325 . S
N639 C638 1.261 . S
C640 H610 0.931 . S
C640 C637 1.357 . S
C640 C641 1.312 . S
C641 H612 0.930 . S
C641 C636 1.261 . S
C641 C640 1.312 . S
C642 O614 1.214 . S
C642 O622 1.234 . S
C643 H615 0.929 . S
C643 C646 1.391 . S
C643 C648 1.391 . S
C644 H616 0.929 . S
C644 C645 1.390 . S
C644 N647 1.391 . S
C645 H617 0.930 . S
C645 C644 1.390 . S
C645 C646 1.392 . S
C646 H618 0.929 . S
C646 C643 1.391 . S
C646 C645 1.392 . S
N647 Co591 2.257 . S
N647 C644 1.391 . S
N647 C648 1.388 . S
C648 H619 0.930 . S
C648 C643 1.391 . S
C648 N647 1.388 . S
Co649 O651 2.143 . S
Co649 O657 2.074 . S
Co649 O660 2.093 . S
Co649 O673 2.097 . S
Co649 N690 2.151 . S
Co649 N698 2.214 . S
Co650 O651 2.160 . S
Co650 O656 2.058 . S
Co650 O666 2.057 . S
Co650 O681 2.037 . S
Co650 N685 2.145 . S
Co650 N706 2.257 . S
O651 Co649 2.143 . S
O651 Co650 2.160 . S
C652 O653 1.278 . S
C652 O660 1.224 . S
O653 C652 1.278 . S
C654 O655 1.245 . S
C654 O666 1.232 . S
O655 C654 1.245 . S
O656 Co650 2.058 . S
O656 C682 1.269 . S
O657 Co649 2.074 . S
O657 C682 1.257 . S
H658 C683 0.930 . S
H659 C689 0.930 . S
O660 Co649 2.093 . S
O660 C652 1.224 . S
H661 C693 0.929 . S
H662 C695 0.930 . S
H663 C696 0.930 . S
H664 C694 0.929 . S
H665 C697 0.928 . S
O666 Co650 2.057 . S
O666 C654 1.232 . S
H667 C686 0.929 . S
H668 C687 0.929 . S
H669 C699 0.931 . S
H670 C691 0.929 . S
H671 C700 0.930 . S
H672 C692 0.931 . S
O673 Co649 2.097 . S
O673 C701 1.214 . S
H674 C702 0.929 . S
H675 C703 0.929 . S
H676 C704 0.930 . S
H677 C705 0.929 . S
H678 C707 0.930 . S
H679 C684 0.930 . S
H680 C688 0.930 . S
O681 Co650 2.037 . S
O681 C701 1.234 . S
C682 O656 1.269 . S
C682 O657 1.257 . S
C683 H658 0.930 . S
C683 C686 1.388 . S
C683 C688 1.418 . S
C684 H679 0.930 . S
C684 C687 1.404 . S
C684 C688 1.353 . S
N685 Co650 2.145 . S
N685 C686 1.397 . S
N685 C687 1.334 . S
C686 H667 0.929 . S
C686 C683 1.388 . S
C686 N685 1.397 . S
C687 H668 0.929 . S
C687 C684 1.404 . S
C687 N685 1.334 . S
C688 H680 0.930 . S
C688 C683 1.418 . S
C688 C684 1.353 . S
C689 H659 0.930 . S
C689 N690 1.330 . S
C689 C691 1.446 . S
N690 Co649 2.151 . S
N690 C689 1.330 . S
N690 C694 1.418 . S
C691 H670 0.929 . S
C691 C689 1.446 . S
C691 C692 1.332 . S
C692 H672 0.931 . S
C692 C691 1.332 . S
C692 C693 1.267 . S
C693 H661 0.929 . S
C693 C692 1.267 . S
C693 C694 1.251 . S
C694 H664 0.929 . S
C694 N690 1.418 . S
C694 C693 1.251 . S
C695 H662 0.930 . S
C695 C697 1.406 . S
C695 C700 1.261 . S
C696 H663 0.930 . S
C696 N698 1.325 . S
C696 C699 1.357 . S
C697 H665 0.928 . S
C697 C695 1.406 . S
C697 N698 1.261 . S
N698 Co649 2.214 . S
N698 C696 1.325 . S
N698 C697 1.261 . S
C699 H669 0.931 . S
C699 C696 1.357 . S
C699 C700 1.312 . S
C700 H671 0.930 . S
C700 C695 1.261 . S
C700 C699 1.312 . S
C701 O673 1.214 . S
C701 O681 1.234 . S
C702 H674 0.929 . S
C702 C705 1.391 . S
C702 C707 1.391 . S
C703 H675 0.929 . S
C703 C704 1.390 . S
C703 N706 1.391 . S
C704 H676 0.930 . S
C704 C703 1.390 . S
C704 C705 1.392 . S
C705 H677 0.929 . S
C705 C702 1.391 . S
C705 C704 1.392 . S
N706 Co650 2.257 . S
N706 C703 1.391 . S
N706 C707 1.388 . S
C707 H678 0.930 . S
C707 C702 1.391 . S
C707 N706 1.388 . S
Co708 O710 2.143 . S
Co708 O716 2.074 . S
Co708 O719 2.093 . S
Co708 O732 2.097 . S
Co708 N749 2.151 . S
Co708 N757 2.214 . S
Co709 O710 2.160 . S
Co709 O715 2.058 . S
Co709 O725 2.057 . S
Co709 O740 2.037 . S
Co709 N744 2.145 . S
Co709 N765 2.257 . S
O710 Co708 2.143 . S
O710 Co709 2.160 . S
C711 O712 1.278 . S
C711 O719 1.224 . S
O712 C711 1.278 . S
C713 O714 1.245 . S
C713 O725 1.232 . S
O714 C713 1.245 . S
O715 Co709 2.058 . S
O715 C741 1.269 . S
O716 Co708 2.074 . S
O716 C741 1.257 . S
H717 C742 0.930 . S
H718 C748 0.930 . S
O719 Co708 2.093 . S
O719 C711 1.224 . S
H720 C752 0.929 . S
H721 C754 0.930 . S
H722 C755 0.930 . S
H723 C753 0.929 . S
H724 C756 0.928 . S
O725 Co709 2.057 . S
O725 C713 1.232 . S
H726 C745 0.929 . S
H727 C746 0.929 . S
H728 C758 0.931 . S
H729 C750 0.929 . S
H730 C759 0.930 . S
H731 C751 0.931 . S
O732 Co708 2.097 . S
O732 C760 1.214 . S
H733 C761 0.929 . S
H734 C762 0.929 . S
H735 C763 0.930 . S
H736 C764 0.929 . S
H737 C766 0.930 . S
H738 C743 0.930 . S
H739 C747 0.930 . S
O740 Co709 2.037 . S
O740 C760 1.234 . S
C741 O715 1.269 . S
C741 O716 1.257 . S
C742 H717 0.930 . S
C742 C745 1.388 . S
C742 C747 1.418 . S
C743 H738 0.930 . S
C743 C746 1.404 . S
C743 C747 1.353 . S
N744 Co709 2.145 . S
N744 C745 1.397 . S
N744 C746 1.334 . S
C745 H726 0.929 . S
C745 C742 1.388 . S
C745 N744 1.397 . S
C746 H727 0.929 . S
C746 C743 1.404 . S
C746 N744 1.334 . S
C747 H739 0.930 . S
C747 C742 1.418 . S
C747 C743 1.353 . S
C748 H718 0.930 . S
C748 N749 1.330 . S
C748 C750 1.446 . S
N749 Co708 2.151 . S
N749 C748 1.330 . S
N749 C753 1.418 . S
C750 H729 0.929 . S
C750 C748 1.446 . S
C750 C751 1.332 . S
C751 H731 0.931 . S
C751 C750 1.332 . S
C751 C752 1.267 . S
C752 H720 0.929 . S
C752 C751 1.267 . S
C752 C753 1.251 . S
C753 H723 0.929 . S
C753 N749 1.418 . S
C753 C752 1.251 . S
C754 H721 0.930 . S
C754 C756 1.406 . S
C754 C759 1.261 . S
C755 H722 0.930 . S
C755 N757 1.325 . S
C755 C758 1.357 . S
C756 H724 0.928 . S
C756 C754 1.406 . S
C756 N757 1.261 . S
N757 Co708 2.214 . S
N757 C755 1.325 . S
N757 C756 1.261 . S
C758 H728 0.931 . S
C758 C755 1.357 . S
C758 C759 1.312 . S
C759 H730 0.930 . S
C759 C754 1.261 . S
C759 C758 1.312 . S
C760 O732 1.214 . S
C760 O740 1.234 . S
C761 H733 0.929 . S
C761 C764 1.391 . S
C761 C766 1.391 . S
C762 H734 0.929 . S
C762 C763 1.390 . S
C762 N765 1.391 . S
C763 H735 0.930 . S
C763 C762 1.390 . S
C763 C764 1.392 . S
C764 H736 0.929 . S
C764 C761 1.391 . S
C764 C763 1.392 . S
N765 Co709 2.257 . S
N765 C762 1.391 . S
N765 C766 1.388 . S
C766 H737 0.930 . S
C766 C761 1.391 . S
C766 N765 1.388 . S
Co767 O769 2.143 . S
Co767 O775 2.074 . S
Co767 O778 2.093 . S
Co767 O791 2.097 . S
Co767 N808 2.151 . S
Co767 N816 2.214 . S
Co768 O769 2.160 . S
Co768 O774 2.058 . S
Co768 O784 2.057 . S
Co768 O799 2.037 . S
Co768 N803 2.145 . S
Co768 N824 2.257 . S
O769 Co767 2.143 . S
O769 Co768 2.160 . S
C770 O771 1.278 . S
C770 O778 1.224 . S
O771 C770 1.278 . S
C772 O773 1.245 . S
C772 O784 1.232 . S
O773 C772 1.245 . S
O774 Co768 2.058 . S
O774 C800 1.269 . S
O775 Co767 2.074 . S
O775 C800 1.257 . S
H776 C801 0.930 . S
H777 C807 0.930 . S
O778 Co767 2.093 . S
O778 C770 1.224 . S
H779 C811 0.929 . S
H780 C813 0.930 . S
H781 C814 0.930 . S
H782 C812 0.929 . S
H783 C815 0.928 . S
O784 Co768 2.057 . S
O784 C772 1.232 . S
H785 C804 0.929 . S
H786 C805 0.929 . S
H787 C817 0.931 . S
H788 C809 0.929 . S
H789 C818 0.930 . S
H790 C810 0.931 . S
O791 Co767 2.097 . S
O791 C819 1.214 . S
H792 C820 0.929 . S
H793 C821 0.929 . S
H794 C822 0.930 . S
H795 C823 0.929 . S
H796 C825 0.930 . S
H797 C802 0.930 . S
H798 C806 0.930 . S
O799 Co768 2.037 . S
O799 C819 1.234 . S
C800 O774 1.269 . S
C800 O775 1.257 . S
C801 H776 0.930 . S
C801 C804 1.388 . S
C801 C806 1.418 . S
C802 H797 0.930 . S
C802 C805 1.404 . S
C802 C806 1.353 . S
N803 Co768 2.145 . S
N803 C804 1.397 . S
N803 C805 1.334 . S
C804 H785 0.929 . S
C804 C801 1.388 . S
C804 N803 1.397 . S
C805 H786 0.929 . S
C805 C802 1.404 . S
C805 N803 1.334 . S
C806 H798 0.930 . S
C806 C801 1.418 . S
C806 C802 1.353 . S
C807 H777 0.930 . S
C807 N808 1.330 . S
C807 C809 1.446 . S
N808 Co767 2.151 . S
N808 C807 1.330 . S
N808 C812 1.418 . S
C809 H788 0.929 . S
C809 C807 1.446 . S
C809 C810 1.332 . S
C810 H790 0.931 . S
C810 C809 1.332 . S
C810 C811 1.267 . S
C811 H779 0.929 . S
C811 C810 1.267 . S
C811 C812 1.251 . S
C812 H782 0.929 . S
C812 N808 1.418 . S
C812 C811 1.251 . S
C813 H780 0.930 . S
C813 C815 1.406 . S
C813 C818 1.261 . S
C814 H781 0.930 . S
C814 N816 1.325 . S
C814 C817 1.357 . S
C815 H783 0.928 . S
C815 C813 1.406 . S
C815 N816 1.261 . S
N816 Co767 2.214 . S
N816 C814 1.325 . S
N816 C815 1.261 . S
C817 H787 0.931 . S
C817 C814 1.357 . S
C817 C818 1.312 . S
C818 H789 0.930 . S
C818 C813 1.261 . S
C818 C817 1.312 . S
C819 O791 1.214 . S
C819 O799 1.234 . S
C820 H792 0.929 . S
C820 C823 1.391 . S
C820 C825 1.391 . S
C821 H793 0.929 . S
C821 C822 1.390 . S
C821 N824 1.391 . S
C822 H794 0.930 . S
C822 C821 1.390 . S
C822 C823 1.392 . S
C823 H795 0.929 . S
C823 C820 1.391 . S
C823 C822 1.392 . S
N824 Co768 2.257 . S
N824 C821 1.391 . S
N824 C825 1.388 . S
C825 H796 0.930 . S
C825 C820 1.391 . S
C825 N824 1.388 . S
Co826 O828 2.143 . S
Co826 O834 2.074 . S
Co826 O837 2.093 . S
Co826 O850 2.097 . S
Co826 N867 2.151 . S
Co826 N875 2.214 . S
Co827 O828 2.160 . S
Co827 O833 2.058 . S
Co827 O843 2.057 . S
Co827 O858 2.037 . S
Co827 N862 2.145 . S
Co827 N883 2.257 . S
O828 Co826 2.143 . S
O828 Co827 2.160 . S
C829 O830 1.278 . S
C829 O837 1.224 . S
O830 C829 1.278 . S
C831 O832 1.245 . S
C831 O843 1.232 . S
O832 C831 1.245 . S
O833 Co827 2.058 . S
O833 C859 1.269 . S
O834 Co826 2.074 . S
O834 C859 1.257 . S
H835 C860 0.930 . S
H836 C866 0.930 . S
O837 Co826 2.093 . S
O837 C829 1.224 . S
H838 C870 0.929 . S
H839 C872 0.930 . S
H840 C873 0.930 . S
H841 C871 0.929 . S
H842 C874 0.928 . S
O843 Co827 2.057 . S
O843 C831 1.232 . S
H844 C863 0.929 . S
H845 C864 0.929 . S
H846 C876 0.931 . S
H847 C868 0.929 . S
H848 C877 0.930 . S
H849 C869 0.931 . S
O850 Co826 2.097 . S
O850 C878 1.214 . S
H851 C879 0.929 . S
H852 C880 0.929 . S
H853 C881 0.930 . S
H854 C882 0.929 . S
H855 C884 0.930 . S
H856 C861 0.930 . S
H857 C865 0.930 . S
O858 Co827 2.037 . S
O858 C878 1.234 . S
C859 O833 1.269 . S
C859 O834 1.257 . S
C860 H835 0.930 . S
C860 C863 1.388 . S
C860 C865 1.418 . S
C861 H856 0.930 . S
C861 C864 1.404 . S
C861 C865 1.353 . S
N862 Co827 2.145 . S
N862 C863 1.397 . S
N862 C864 1.334 . S
C863 H844 0.929 . S
C863 C860 1.388 . S
C863 N862 1.397 . S
C864 H845 0.929 . S
C864 C861 1.404 . S
C864 N862 1.334 . S
C865 H857 0.930 . S
C865 C860 1.418 . S
C865 C861 1.353 . S
C866 H836 0.930 . S
C866 N867 1.330 . S
C866 C868 1.446 . S
N867 Co826 2.151 . S
N867 C866 1.330 . S
N867 C871 1.418 . S
C868 H847 0.929 . S
C868 C866 1.446 . S
C868 C869 1.332 . S
C869 H849 0.931 . S
C869 C868 1.332 . S
C869 C870 1.267 . S
C870 H838 0.929 . S
C870 C869 1.267 . S
C870 C871 1.251 . S
C871 H841 0.929 . S
C871 N867 1.418 . S
C871 C870 1.251 . S
C872 H839 0.930 . S
C872 C874 1.406 . S
C872 C877 1.261 . S
C873 H840 0.930 . S
C873 N875 1.325 . S
C873 C876 1.357 . S
C874 H842 0.928 . S
C874 C872 1.406 . S
C874 N875 1.261 . S
N875 Co826 2.214 . S
N875 C873 1.325 . S
N875 C874 1.261 . S
C876 H846 0.931 . S
C876 C873 1.357 . S
C876 C877 1.312 . S
C877 H848 0.930 . S
C877 C872 1.261 . S
C877 C876 1.312 . S
C878 O850 1.214 . S
C878 O858 1.234 . S
C879 H851 0.929 . S
C879 C882 1.391 . S
C879 C884 1.391 . S
C880 H852 0.929 . S
C880 C881 1.390 . S
C880 N883 1.391 . S
C881 H853 0.930 . S
C881 C880 1.390 . S
C881 C882 1.392 . S
C882 H854 0.929 . S
C882 C879 1.391 . S
C882 C881 1.392 . S
N883 Co827 2.257 . S
N883 C880 1.391 . S
N883 C884 1.388 . S
C884 H855 0.930 . S
C884 C879 1.391 . S
C884 N883 1.388 . S
Co885 O887 2.143 . S
Co885 O893 2.074 . S
Co885 O896 2.093 . S
Co885 O909 2.097 . S
Co885 N926 2.151 . S
Co885 N934 2.214 . S
Co886 O887 2.160 . S
Co886 O892 2.058 . S
Co886 O902 2.057 . S
Co886 O917 2.037 . S
Co886 N921 2.145 . S
Co886 N942 2.257 . S
O887 Co885 2.143 . S
O887 Co886 2.160 . S
C888 O889 1.278 . S
C888 O896 1.224 . S
O889 C888 1.278 . S
C890 O891 1.245 . S
C890 O902 1.232 . S
O891 C890 1.245 . S
O892 Co886 2.058 . S
O892 C918 1.269 . S
O893 Co885 2.074 . S
O893 C918 1.257 . S
H894 C919 0.930 . S
H895 C925 0.930 . S
O896 Co885 2.093 . S
O896 C888 1.224 . S
H897 C929 0.929 . S
H898 C931 0.930 . S
H899 C932 0.930 . S
H900 C930 0.929 . S
H901 C933 0.928 . S
O902 Co886 2.057 . S
O902 C890 1.232 . S
H903 C922 0.929 . S
H904 C923 0.929 . S
H905 C935 0.931 . S
H906 C927 0.929 . S
H907 C936 0.930 . S
H908 C928 0.931 . S
O909 Co885 2.097 . S
O909 C937 1.214 . S
H910 C938 0.929 . S
H911 C939 0.929 . S
H912 C940 0.930 . S
H913 C941 0.929 . S
H914 C943 0.930 . S
H915 C920 0.930 . S
H916 C924 0.930 . S
O917 Co886 2.037 . S
O917 C937 1.234 . S
C918 O892 1.269 . S
C918 O893 1.257 . S
C919 H894 0.930 . S
C919 C922 1.388 . S
C919 C924 1.418 . S
C920 H915 0.930 . S
C920 C923 1.404 . S
C920 C924 1.353 . S
N921 Co886 2.145 . S
N921 C922 1.397 . S
N921 C923 1.334 . S
C922 H903 0.929 . S
C922 C919 1.388 . S
C922 N921 1.397 . S
C923 H904 0.929 . S
C923 C920 1.404 . S
C923 N921 1.334 . S
C924 H916 0.930 . S
C924 C919 1.418 . S
C924 C920 1.353 . S
C925 H895 0.930 . S
C925 N926 1.330 . S
C925 C927 1.446 . S
N926 Co885 2.151 . S
N926 C925 1.330 . S
N926 C930 1.418 . S
C927 H906 0.929 . S
C927 C925 1.446 . S
C927 C928 1.332 . S
C928 H908 0.931 . S
C928 C927 1.332 . S
C928 C929 1.267 . S
C929 H897 0.929 . S
C929 C928 1.267 . S
C929 C930 1.251 . S
C930 H900 0.929 . S
C930 N926 1.418 . S
C930 C929 1.251 . S
C931 H898 0.930 . S
C931 C933 1.406 . S
C931 C936 1.261 . S
C932 H899 0.930 . S
C932 N934 1.325 . S
C932 C935 1.357 . S
C933 H901 0.928 . S
C933 C931 1.406 . S
C933 N934 1.261 . S
N934 Co885 2.214 . S
N934 C932 1.325 . S
N934 C933 1.261 . S
C935 H905 0.931 . S
C935 C932 1.357 . S
C935 C936 1.312 . S
C936 H907 0.930 . S
C936 C931 1.261 . S
C936 C935 1.312 . S
C937 O909 1.214 . S
C937 O917 1.234 . S
C938 H910 0.929 . S
C938 C941 1.391 . S
C938 C943 1.391 . S
C939 H911 0.929 . S
C939 C940 1.390 . S
C939 N942 1.391 . S
C940 H912 0.930 . S
C940 C939 1.390 . S
C940 C941 1.392 . S
C941 H913 0.929 . S
C941 C938 1.391 . S
C941 C940 1.392 . S
N942 Co886 2.257 . S
N942 C939 1.391 . S
N942 C943 1.388 . S
C943 H914 0.930 . S
C943 C938 1.391 . S
C943 N942 1.388 . S
C944 C945 1.387 . S
C944 H948 0.950 . S
C944 C953 1.390 1_455 S
C945 C944 1.387 . S
C945 C947 1.387 . S
H946 C953 0.950 . S
C947 C945 1.387 . S
C947 C949 1.390 1_455 S
C947 H951 0.950 . S
H948 C944 0.950 . S
C949 C947 1.390 1_655 S
C949 C950 1.387 . S
C949 H952 0.950 . S
C950 C949 1.387 . S
C950 C953 1.387 . S
H951 C947 0.950 . S
H952 C949 0.950 . S
C953 C944 1.390 1_655 S
C953 H946 0.950 . S
C953 C950 1.387 . S
C954 C955 1.387 . S
C954 H958 0.950 . S
C954 C963 1.390 1_565 S
C955 C954 1.387 . S
C955 C957 1.387 . S
H956 C963 0.950 . S
C957 C955 1.387 . S
C957 C959 1.390 1_565 S
C957 H961 0.950 . S
H958 C954 0.950 . S
C959 C957 1.390 1_545 S
C959 C960 1.387 . S
C959 H962 0.950 . S
C960 C959 1.387 . S
C960 C963 1.387 . S
H961 C957 0.950 . S
H962 C959 0.950 . S
C963 C954 1.390 1_545 S
C963 H956 0.950 . S
C963 C960 1.387 . S
C964 C965 1.387 . S
C964 H968 0.950 . S
C964 C973 1.390 1_455 S
C965 C964 1.387 . S
C965 C967 1.387 . S
H966 C973 0.950 . S
C967 C965 1.387 . S
C967 C969 1.390 1_455 S
C967 H971 0.950 . S
H968 C964 0.950 . S
C969 C967 1.390 1_655 S
C969 C970 1.387 . S
C969 H972 0.950 . S
C970 C969 1.387 . S
C970 C973 1.387 . S
H971 C967 0.950 . S
H972 C969 0.950 . S
C973 C964 1.390 1_655 S
C973 H966 0.950 . S
C973 C970 1.387 . S
C974 C975 1.387 . S
C974 H978 0.950 . S
C974 C983 1.390 1_565 S
C975 C974 1.387 . S
C975 C977 1.387 . S
H976 C983 0.950 . S
C977 C975 1.387 . S
C977 C979 1.390 1_565 S
C977 H981 0.950 . S
H978 C974 0.950 . S
C979 C977 1.390 1_545 S
C979 C980 1.387 . S
C979 H982 0.950 . S
C980 C979 1.387 . S
C980 C983 1.387 . S
H981 C977 0.950 . S
H982 C979 0.950 . S
C983 C974 1.390 1_545 S
C983 H976 0.950 . S
C983 C980 1.387 . S
C984 C985 1.387 . S
C984 H988 0.950 . S
C984 C993 1.390 1_655 S
C985 C984 1.387 . S
C985 C987 1.387 . S
H986 C993 0.950 . S
C987 C985 1.387 . S
C987 C989 1.390 1_655 S
C987 H991 0.950 . S
H988 C984 0.950 . S
C989 C987 1.390 1_455 S
C989 C990 1.387 . S
C989 H992 0.950 . S
C990 C989 1.387 . S
C990 C993 1.387 . S
H991 C987 0.950 . S
H992 C989 0.950 . S
C993 C984 1.390 1_455 S
C993 H986 0.950 . S
C993 C990 1.387 . S
C994 C995 1.387 . S
C994 H998 0.950 . S
C994 C1003 1.390 1_545 S
C995 C994 1.387 . S
C995 C997 1.387 . S
H996 C1003 0.950 . S
C997 C995 1.387 . S
C997 C999 1.390 1_545 S
C997 H1001 0.950 . S
H998 C994 0.950 . S
C999 C997 1.390 1_565 S
C999 C1000 1.387 . S
C999 H1002 0.950 . S
C1000 C999 1.387 . S
C1000 C1003 1.387 . S
H1001 C997 0.950 . S
H1002 C999 0.950 . S
C1003 C994 1.390 1_565 S
C1003 H996 0.950 . S
C1003 C1000 1.387 . S
C1004 C1005 1.387 . S
C1004 H1008 0.950 . S
C1004 C1013 1.390 1_655 S
C1005 C1004 1.387 . S
C1005 C1007 1.387 . S
H1006 C1013 0.950 . S
C1007 C1005 1.387 . S
C1007 C1009 1.390 1_655 S
C1007 H1011 0.950 . S
H1008 C1004 0.950 . S
C1009 C1007 1.390 1_455 S
C1009 C1010 1.387 . S
C1009 H1012 0.950 . S
C1010 C1009 1.387 . S
C1010 C1013 1.387 . S
H1011 C1007 0.950 . S
H1012 C1009 0.950 . S
C1013 C1004 1.390 1_455 S
C1013 H1006 0.950 . S
C1013 C1010 1.387 . S
C1014 C1015 1.387 . S
C1014 H1018 0.950 . S
C1014 C1023 1.390 1_545 S
C1015 C1014 1.387 . S
C1015 C1017 1.387 . S
H1016 C1023 0.950 . S
C1017 C1015 1.387 . S
C1017 C1019 1.390 1_545 S
C1017 H1021 0.950 . S
H1018 C1014 0.950 . S
C1019 C1017 1.390 1_565 S
C1019 C1020 1.387 . S
C1019 H1022 0.950 . S
C1020 C1019 1.387 . S
C1020 C1023 1.387 . S
H1021 C1017 0.950 . S
H1022 C1019 0.950 . S
C1023 C1014 1.390 1_565 S
C1023 H1016 0.950 . S
C1023 C1020 1.387 . S
C1024 C1025 1.387 . S
C1024 H1028 0.950 . S
C1024 C1033 1.390 . S
C1025 C1024 1.387 . S
C1025 C1027 1.387 . S
H1026 C1033 0.950 . S
C1027 C1025 1.387 . S
C1027 C1029 1.390 . S
C1027 H1031 0.950 . S
H1028 C1024 0.950 . S
C1029 C1027 1.390 . S
C1029 C1030 1.387 . S
C1029 H1032 0.950 . S
C1030 C1029 1.387 . S
C1030 C1033 1.387 . S
H1031 C1027 0.950 . S
H1032 C1029 0.950 . S
C1033 C1024 1.390 . S
C1033 H1026 0.950 . S
C1033 C1030 1.387 . S
C1034 C1035 1.387 . S
C1034 H1038 0.950 . S
C1034 C1043 1.390 . S
C1035 C1034 1.387 . S
C1035 C1037 1.387 . S
H1036 C1043 0.950 . S
C1037 C1035 1.387 . S
C1037 C1039 1.390 . S
C1037 H1041 0.950 . S
H1038 C1034 0.950 . S
C1039 C1037 1.390 . S
C1039 C1040 1.387 . S
C1039 H1042 0.950 . S
C1040 C1039 1.387 . S
C1040 C1043 1.387 . S
H1041 C1037 0.950 . S
H1042 C1039 0.950 . S
C1043 C1034 1.390 . S
C1043 H1036 0.950 . S
C1043 C1040 1.387 . S
C1044 C1045 1.387 . S
C1044 H1048 0.950 . S
C1044 C1053 1.390 . S
C1045 C1044 1.387 . S
C1045 C1047 1.387 . S
H1046 C1053 0.950 . S
C1047 C1045 1.387 . S
C1047 C1049 1.390 . S
C1047 H1051 0.950 . S
H1048 C1044 0.950 . S
C1049 C1047 1.390 . S
C1049 C1050 1.387 . S
C1049 H1052 0.950 . S
C1050 C1049 1.387 . S
C1050 C1053 1.387 . S
H1051 C1047 0.950 . S
H1052 C1049 0.950 . S
C1053 C1044 1.390 . S
C1053 H1046 0.950 . S
C1053 C1050 1.387 . S
C1054 C1055 1.387 . S
C1054 H1058 0.950 . S
C1054 C1063 1.390 . S
C1055 C1054 1.387 . S
C1055 C1057 1.387 . S
H1056 C1063 0.950 . S
C1057 C1055 1.387 . S
C1057 C1059 1.390 . S
C1057 H1061 0.950 . S
H1058 C1054 0.950 . S
C1059 C1057 1.390 . S
C1059 C1060 1.387 . S
C1059 H1062 0.950 . S
C1060 C1059 1.387 . S
C1060 C1063 1.387 . S
H1061 C1057 0.950 . S
H1062 C1059 0.950 . S
C1063 C1054 1.390 . S
C1063 H1056 0.950 . S
C1063 C1060 1.387 . S
C1064 C1065 1.387 . S
C1064 H1068 0.950 . S
C1064 C1073 1.390 . S
C1065 C1064 1.387 . S
C1065 C1067 1.387 . S
H1066 C1073 0.950 . S
C1067 C1065 1.387 . S
C1067 C1069 1.390 . S
C1067 H1071 0.950 . S
H1068 C1064 0.950 . S
C1069 C1067 1.390 . S
C1069 C1070 1.387 . S
C1069 H1072 0.950 . S
C1070 C1069 1.387 . S
C1070 C1073 1.387 . S
H1071 C1067 0.950 . S
H1072 C1069 0.950 . S
C1073 C1064 1.390 . S
C1073 H1066 0.950 . S
C1073 C1070 1.387 . S
C1074 C1075 1.387 . S
C1074 H1078 0.950 . S
C1074 C1083 1.390 . S
C1075 C1074 1.387 . S
C1075 C1077 1.387 . S
H1076 C1083 0.950 . S
C1077 C1075 1.387 . S
C1077 C1079 1.390 . S
C1077 H1081 0.950 . S
H1078 C1074 0.950 . S
C1079 C1077 1.390 . S
C1079 C1080 1.387 . S
C1079 H1082 0.950 . S
C1080 C1079 1.387 . S
C1080 C1083 1.387 . S
H1081 C1077 0.950 . S
H1082 C1079 0.950 . S
C1083 C1074 1.390 . S
C1083 H1076 0.950 . S
C1083 C1080 1.387 . S
C1084 C1085 1.387 . S
C1084 H1088 0.950 . S
C1084 C1093 1.390 . S
C1085 C1084 1.387 . S
C1085 C1087 1.387 . S
H1086 C1093 0.950 . S
C1087 C1085 1.387 . S
C1087 C1089 1.390 . S
C1087 H1091 0.950 . S
H1088 C1084 0.950 . S
C1089 C1087 1.390 . S
C1089 C1090 1.387 . S
C1089 H1092 0.950 . S
C1090 C1089 1.387 . S
C1090 C1093 1.387 . S
H1091 C1087 0.950 . S
H1092 C1089 0.950 . S
C1093 C1084 1.390 . S
C1093 H1086 0.950 . S
C1093 C1090 1.387 . S
C1094 C1095 1.387 . S
C1094 H1098 0.950 . S
C1094 C1103 1.390 . S
C1095 C1094 1.387 . S
C1095 C1097 1.387 . S
H1096 C1103 0.950 . S
C1097 C1095 1.387 . S
C1097 C1099 1.390 . S
C1097 H1101 0.950 . S
H1098 C1094 0.950 . S
C1099 C1097 1.390 . S
C1099 C1100 1.387 . S
C1099 H1102 0.950 . S
C1100 C1099 1.387 . S
C1100 C1103 1.387 . S
H1101 C1097 0.950 . S
H1102 C1099 0.950 . S
C1103 C1094 1.390 . S
C1103 H1096 0.950 . S
C1103 C1100 1.387 . S
C1104 C1105 1.387 . S
C1104 H1108 0.950 . S
C1104 C1113 1.390 1_556 S
C1105 C1104 1.387 . S
C1105 C1107 1.387 . S
H1106 C1113 0.950 . S
C1107 C1105 1.387 . S
C1107 C1109 1.390 1_556 S
C1107 H1111 0.950 . S
H1108 C1104 0.950 . S
C1109 C1107 1.390 1_554 S
C1109 C1110 1.387 . S
C1109 H1112 0.950 . S
C1110 C1109 1.387 . S
C1110 C1113 1.387 . S
H1111 C1107 0.950 . S
H1112 C1109 0.950 . S
C1113 C1104 1.390 1_554 S
C1113 H1106 0.950 . S
C1113 C1110 1.387 . S
C1114 C1115 1.387 . S
C1114 H1118 0.950 . S
C1114 C1123 1.390 . S
C1115 C1114 1.387 . S
C1115 C1117 1.387 . S
H1116 C1123 0.950 . S
C1117 C1115 1.387 . S
C1117 C1119 1.390 . S
C1117 H1121 0.950 . S
H1118 C1114 0.950 . S
C1119 C1117 1.390 . S
C1119 C1120 1.387 . S
C1119 H1122 0.950 . S
C1120 C1119 1.387 . S
C1120 C1123 1.387 . S
H1121 C1117 0.950 . S
H1122 C1119 0.950 . S
C1123 C1114 1.390 . S
C1123 H1116 0.950 . S
C1123 C1120 1.387 . S
C1124 C1125 1.387 . S
C1124 H1128 0.950 . S
C1124 C1133 1.390 1_554 S
C1125 C1124 1.387 . S
C1125 C1127 1.387 . S
H1126 C1133 0.950 . S
C1127 C1125 1.387 . S
C1127 C1129 1.390 1_554 S
C1127 H1131 0.950 . S
H1128 C1124 0.950 . S
C1129 C1127 1.390 1_556 S
C1129 C1130 1.387 . S
C1129 H1132 0.950 . S
C1130 C1129 1.387 . S
C1130 C1133 1.387 . S
H1131 C1127 0.950 . S
H1132 C1129 0.950 . S
C1133 C1124 1.390 1_556 S
C1133 H1126 0.950 . S
C1133 C1130 1.387 . S
C1134 C1135 1.387 . S
C1134 H1138 0.950 . S
C1134 C1143 1.390 . S
C1135 C1134 1.387 . S
C1135 C1137 1.387 . S
H1136 C1143 0.950 . S
C1137 C1135 1.387 . S
C1137 C1139 1.390 . S
C1137 H1141 0.950 . S
H1138 C1134 0.950 . S
C1139 C1137 1.390 . S
C1139 C1140 1.387 . S
C1139 H1142 0.950 . S
C1140 C1139 1.387 . S
C1140 C1143 1.387 . S
H1141 C1137 0.950 . S
H1142 C1139 0.950 . S
C1143 C1134 1.390 . S
C1143 H1136 0.950 . S
C1143 C1140 1.387 . S
C1144 C1145 1.387 . S
C1144 H1148 0.950 . S
C1144 C1153 1.390 . S
C1145 C1144 1.387 . S
C1145 C1147 1.387 . S
H1146 C1153 0.950 . S
C1147 C1145 1.387 . S
C1147 C1149 1.390 . S
C1147 H1151 0.950 . S
H1148 C1144 0.950 . S
C1149 C1147 1.390 . S
C1149 C1150 1.387 . S
C1149 H1152 0.950 . S
C1150 C1149 1.387 . S
C1150 C1153 1.387 . S
H1151 C1147 0.950 . S
H1152 C1149 0.950 . S
C1153 C1144 1.390 . S
C1153 H1146 0.950 . S
C1153 C1150 1.387 . S
C1154 C1155 1.387 . S
C1154 H1158 0.950 . S
C1154 C1163 1.390 1_556 S
C1155 C1154 1.387 . S
C1155 C1157 1.387 . S
H1156 C1163 0.950 . S
C1157 C1155 1.387 . S
C1157 C1159 1.390 1_556 S
C1157 H1161 0.950 . S
H1158 C1154 0.950 . S
C1159 C1157 1.390 1_554 S
C1159 C1160 1.387 . S
C1159 H1162 0.950 . S
C1160 C1159 1.387 . S
C1160 C1163 1.387 . S
H1161 C1157 0.950 . S
H1162 C1159 0.950 . S
C1163 C1154 1.390 1_554 S
C1163 H1156 0.950 . S
C1163 C1160 1.387 . S
C1164 C1165 1.387 . S
C1164 H1168 0.950 . S
C1164 C1173 1.390 . S
C1165 C1164 1.387 . S
C1165 C1167 1.387 . S
H1166 C1173 0.950 . S
C1167 C1165 1.387 . S
C1167 C1169 1.390 . S
C1167 H1171 0.950 . S
H1168 C1164 0.950 . S
C1169 C1167 1.390 . S
C1169 C1170 1.387 . S
C1169 H1172 0.950 . S
C1170 C1169 1.387 . S
C1170 C1173 1.387 . S
H1171 C1167 0.950 . S
H1172 C1169 0.950 . S
C1173 C1164 1.390 . S
C1173 H1166 0.950 . S
C1173 C1170 1.387 . S
C1174 C1175 1.387 . S
C1174 H1178 0.950 . S
C1174 C1183 1.390 1_554 S
C1175 C1174 1.387 . S
C1175 C1177 1.387 . S
H1176 C1183 0.950 . S
C1177 C1175 1.387 . S
C1177 C1179 1.390 1_554 S
C1177 H1181 0.950 . S
H1178 C1174 0.950 . S
C1179 C1177 1.390 1_556 S
C1179 C1180 1.387 . S
C1179 H1182 0.950 . S
C1180 C1179 1.387 . S
C1180 C1183 1.387 . S
H1181 C1177 0.950 . S
H1182 C1179 0.950 . S
C1183 C1174 1.390 1_556 S
C1183 H1176 0.950 . S
C1183 C1180 1.387 . S
C1184 C1185 1.387 . S
C1184 H1188 0.950 . S
C1184 C1193 1.390 . S
C1185 C1184 1.387 . S
C1185 C1187 1.387 . S
H1186 C1193 0.950 . S
C1187 C1185 1.387 . S
C1187 C1189 1.390 . S
C1187 H1191 0.950 . S
H1188 C1184 0.950 . S
C1189 C1187 1.390 . S
C1189 C1190 1.387 . S
C1189 H1192 0.950 . S
C1190 C1189 1.387 . S
C1190 C1193 1.387 . S
H1191 C1187 0.950 . S
H1192 C1189 0.950 . S
C1193 C1184 1.390 . S
C1193 H1186 0.950 . S
C1193 C1190 1.387 . S
C1194 C1195 1.387 . S
C1194 H1198 0.950 . S
C1194 C1203 1.390 . S
C1195 C1194 1.387 . S
C1195 C1197 1.387 . S
H1196 C1203 0.950 . S
C1197 C1195 1.387 . S
C1197 C1199 1.390 . S
C1197 H1201 0.950 . S
H1198 C1194 0.950 . S
C1199 C1197 1.390 . S
C1199 C1200 1.387 . S
C1199 H1202 0.950 . S
C1200 C1199 1.387 . S
C1200 C1203 1.387 . S
H1201 C1197 0.950 . S
H1202 C1199 0.950 . S
C1203 C1194 1.390 . S
C1203 H1196 0.950 . S
C1203 C1200 1.387 . S
C1204 C1205 1.387 . S
C1204 H1208 0.950 . S
C1204 C1213 1.390 . S
C1205 C1204 1.387 . S
C1205 C1207 1.387 . S
H1206 C1213 0.950 . S
C1207 C1205 1.387 . S
C1207 C1209 1.390 . S
C1207 H1211 0.950 . S
H1208 C1204 0.950 . S
C1209 C1207 1.390 . S
C1209 C1210 1.387 . S
C1209 H1212 0.950 . S
C1210 C1209 1.387 . S
C1210 C1213 1.387 . S
H1211 C1207 0.950 . S
H1212 C1209 0.950 . S
C1213 C1204 1.390 . S
C1213 H1206 0.950 . S
C1213 C1210 1.387 . S
C1214 C1215 1.387 . S
C1214 H1218 0.950 . S
C1214 C1223 1.390 . S
C1215 C1214 1.387 . S
C1215 C1217 1.387 . S
H1216 C1223 0.950 . S
C1217 C1215 1.387 . S
C1217 C1219 1.390 . S
C1217 H1221 0.950 . S
H1218 C1214 0.950 . S
C1219 C1217 1.390 . S
C1219 C1220 1.387 . S
C1219 H1222 0.950 . S
C1220 C1219 1.387 . S
C1220 C1223 1.387 . S
H1221 C1217 0.950 . S
H1222 C1219 0.950 . S
C1223 C1214 1.390 . S
C1223 H1216 0.950 . S
C1223 C1220 1.387 . S
C1224 C1225 1.387 . S
C1224 H1228 0.950 . S
C1224 C1233 1.390 . S
C1225 C1224 1.387 . S
C1225 C1227 1.387 . S
H1226 C1233 0.950 . S
C1227 C1225 1.387 . S
C1227 C1229 1.390 . S
C1227 H1231 0.950 . S
H1228 C1224 0.950 . S
C1229 C1227 1.390 . S
C1229 C1230 1.387 . S
C1229 H1232 0.950 . S
C1230 C1229 1.387 . S
C1230 C1233 1.387 . S
H1231 C1227 0.950 . S
H1232 C1229 0.950 . S
C1233 C1224 1.390 . S
C1233 H1226 0.950 . S
C1233 C1230 1.387 . S
C1234 C1235 1.387 . S
C1234 H1238 0.950 . S
C1234 C1243 1.390 . S
C1235 C1234 1.387 . S
C1235 C1237 1.387 . S
H1236 C1243 0.950 . S
C1237 C1235 1.387 . S
C1237 C1239 1.390 . S
C1237 H1241 0.950 . S
H1238 C1234 0.950 . S
C1239 C1237 1.390 . S
C1239 C1240 1.387 . S
C1239 H1242 0.950 . S
C1240 C1239 1.387 . S
C1240 C1243 1.387 . S
H1241 C1237 0.950 . S
H1242 C1239 0.950 . S
C1243 C1234 1.390 . S
C1243 H1236 0.950 . S
C1243 C1240 1.387 . S
C1244 C1245 1.387 . S
C1244 H1248 0.950 . S
C1244 C1253 1.390 . S
C1245 C1244 1.387 . S
C1245 C1247 1.387 . S
H1246 C1253 0.950 . S
C1247 C1245 1.387 . S
C1247 C1249 1.390 . S
C1247 H1251 0.950 . S
H1248 C1244 0.950 . S
C1249 C1247 1.390 . S
C1249 C1250 1.387 . S
C1249 H1252 0.950 . S
C1250 C1249 1.387 . S
C1250 C1253 1.387 . S
H1251 C1247 0.950 . S
H1252 C1249 0.950 . S
C1253 C1244 1.390 . S
C1253 H1246 0.950 . S
C1253 C1250 1.387 . S
C1254 C1255 1.387 . S
C1254 H1258 0.950 . S
C1254 C1263 1.390 . S
C1255 C1254 1.387 . S
C1255 C1257 1.387 . S
H1256 C1263 0.950 . S
C1257 C1255 1.387 . S
C1257 C1259 1.390 . S
C1257 H1261 0.950 . S
H1258 C1254 0.950 . S
C1259 C1257 1.390 . S
C1259 C1260 1.387 . S
C1259 H1262 0.950 . S
C1260 C1259 1.387 . S
C1260 C1263 1.387 . S
H1261 C1257 0.950 . S
H1262 C1259 0.950 . S
C1263 C1254 1.390 . S
C1263 H1256 0.950 . S
C1263 C1260 1.387 . S
C945 C52 1.444 . S
C950 C170 1.444 . S
C955 C229 1.443 . S
C960 C111 1.443 . S
C965 C288 1.444 . S
C970 C406 1.444 . S
C975 C465 1.443 . S
C980 C347 1.443 . S
C985 C524 1.444 . S
C990 C642 1.444 . S
C995 C701 1.443 . S
C1000 C583 1.443 . S
C1005 C760 1.443 . S
C1010 C878 1.443 . S
C1015 C937 1.443 . S
C1020 C819 1.443 . S
C1025 C269 1.382 . S
C1030 C33 1.382 . S
C1035 C92 1.379 . S
C1040 C328 1.379 . S
C1045 C151 1.382 . S
C1050 C387 1.382 . S
C1055 C446 1.379 . S
C1060 C210 1.379 . S
C1065 C505 1.382 . S
C1070 C741 1.382 . S
C1075 C564 1.382 . S
C1080 C800 1.382 . S
C1085 C623 1.382 . S
C1090 C859 1.382 . S
C1095 C682 1.382 . S
C1100 C918 1.382 . S
C1105 C593 1.442 . S
C1110 C3 1.440 . S
C1115 C652 1.442 . S
C1120 C62 1.440 . S
C1125 C121 1.442 . S
C1130 C475 1.440 . S
C1135 C180 1.441 . S
C1140 C534 1.441 . S
C1145 C239 1.440 . S
C1150 C829 1.442 . S
C1155 C298 1.441 . S
C1160 C888 1.442 . S
C1165 C357 1.440 . S
C1170 C711 1.442 . S
C1175 C770 1.442 . S
C1180 C416 1.441 . S
C1185 C5 1.465 . S
C1190 C890 1.465 . S
C1195 C713 1.465 . S
C1200 C64 1.465 . S
C1205 C123 1.465 . S
C1210 C772 1.465 . S
C1215 C831 1.465 . S
C1220 C182 1.465 . S
C1225 C536 1.465 . S
C1230 C241 1.465 . S
C1235 C300 1.465 . S
C1240 C595 1.465 . S
C1245 C654 1.465 . S
C1250 C359 1.465 . S
C1255 C477 1.465 . S
C1260 C418 1.465 . S
