# Generated by pormake.
# Topology upc, (4)-cn, num edge types: 1
# Building blocks:
#     Node 0, Type 0, BuildingBlock: QUQFOY_clean_sbu_1, # of connection points: 4
#     Node 1, Type 0, BuildingBlock: QUQFOY_clean_sbu_1, # of connection points: 4
#     Node 2, Type 0, BuildingBlock: QUQFOY_clean_sbu_1, # of connection points: 4
#     Node 3, Type 0, BuildingBlock: QUQFOY_clean_sbu_1, # of connection points: 4
#     Node 4, Type 0, BuildingBlock: QUQFOY_clean_sbu_1, # of connection points: 4
#     Node 5, Type 0, BuildingBlock: QUQFOY_clean_sbu_1, # of connection points: 4
#     Node 6, Type 0, BuildingBlock: QUQFOY_clean_sbu_1, # of connection points: 4
#     Node 7, Type 0, BuildingBlock: QUQFOY_clean_sbu_1, # of connection points: 4
#     Node 8, Type 0, BuildingBlock: QUQFOY_clean_sbu_1, # of connection points: 4
#     Node 9, Type 0, BuildingBlock: QUQFOY_clean_sbu_1, # of connection points: 4
#     Node 10, Type 0, BuildingBlock: QUQFOY_clean_sbu_1, # of connection points: 4
#     Node 11, Type 0, BuildingBlock: QUQFOY_clean_sbu_1, # of connection points: 4
#     Node 12, Type 0, BuildingBlock: QUQFOY_clean_sbu_1, # of connection points: 4
#     Node 13, Type 0, BuildingBlock: QUQFOY_clean_sbu_1, # of connection points: 4
#     Node 14, Type 0, BuildingBlock: QUQFOY_clean_sbu_1, # of connection points: 4
#     Node 15, Type 0, BuildingBlock: QUQFOY_clean_sbu_1, # of connection points: 4
#     Edge 16, Type (0, 0), BuildingBlock: AJUNOK_clean_linker_0, # of connection points: 2
#     Edge 17, Type (0, 0), BuildingBlock: AJUNOK_clean_linker_0, # of connection points: 2
#     Edge 18, Type (0, 0), BuildingBlock: AJUNOK_clean_linker_0, # of connection points: 2
#     Edge 19, Type (0, 0), BuildingBlock: AJUNOK_clean_linker_0, # of connection points: 2
#     Edge 20, Type (0, 0), BuildingBlock: AJUNOK_clean_linker_0, # of connection points: 2
#     Edge 21, Type (0, 0), BuildingBlock: AJUNOK_clean_linker_0, # of connection points: 2
#     Edge 22, Type (0, 0), BuildingBlock: AJUNOK_clean_linker_0, # of connection points: 2
#     Edge 23, Type (0, 0), BuildingBlock: AJUNOK_clean_linker_0, # of connection points: 2
#     Edge 24, Type (0, 0), BuildingBlock: AJUNOK_clean_linker_0, # of connection points: 2
#     Edge 25, Type (0, 0), BuildingBlock: AJUNOK_clean_linker_0, # of connection points: 2
#     Edge 26, Type (0, 0), BuildingBlock: AJUNOK_clean_linker_0, # of connection points: 2
#     Edge 27, Type (0, 0), BuildingBlock: AJUNOK_clean_linker_0, # of connection points: 2
#     Edge 28, Type (0, 0), BuildingBlock: AJUNOK_clean_linker_0, # of connection points: 2
#     Edge 29, Type (0, 0), BuildingBlock: AJUNOK_clean_linker_0, # of connection points: 2
#     Edge 30, Type (0, 0), BuildingBlock: AJUNOK_clean_linker_0, # of connection points: 2
#     Edge 31, Type (0, 0), BuildingBlock: AJUNOK_clean_linker_0, # of connection points: 2
#     Edge 32, Type (0, 0), BuildingBlock: AJUNOK_clean_linker_0, # of connection points: 2
#     Edge 33, Type (0, 0), BuildingBlock: AJUNOK_clean_linker_0, # of connection points: 2
#     Edge 34, Type (0, 0), BuildingBlock: AJUNOK_clean_linker_0, # of connection points: 2
#     Edge 35, Type (0, 0), BuildingBlock: AJUNOK_clean_linker_0, # of connection points: 2
#     Edge 36, Type (0, 0), BuildingBlock: AJUNOK_clean_linker_0, # of connection points: 2
#     Edge 37, Type (0, 0), BuildingBlock: AJUNOK_clean_linker_0, # of connection points: 2
#     Edge 38, Type (0, 0), BuildingBlock: AJUNOK_clean_linker_0, # of connection points: 2
#     Edge 39, Type (0, 0), BuildingBlock: AJUNOK_clean_linker_0, # of connection points: 2
#     Edge 40, Type (0, 0), BuildingBlock: AJUNOK_clean_linker_0, # of connection points: 2
#     Edge 41, Type (0, 0), BuildingBlock: AJUNOK_clean_linker_0, # of connection points: 2
#     Edge 42, Type (0, 0), BuildingBlock: AJUNOK_clean_linker_0, # of connection points: 2
#     Edge 43, Type (0, 0), BuildingBlock: AJUNOK_clean_linker_0, # of connection points: 2
#     Edge 44, Type (0, 0), BuildingBlock: AJUNOK_clean_linker_0, # of connection points: 2
#     Edge 45, Type (0, 0), BuildingBlock: AJUNOK_clean_linker_0, # of connection points: 2
#     Edge 46, Type (0, 0), BuildingBlock: AJUNOK_clean_linker_0, # of connection points: 2
#     Edge 47, Type (0, 0), BuildingBlock: AJUNOK_clean_linker_0, # of connection points: 2
# Relax obj value: 0.078
# Max RMSD: 0.195
# Mean RMSD: 0.195
data_MOF--net-upc--node1-QUQFOY_clean_sbu_1--edge1-AJUNOK_clean_linker_0
_symmetry_space_group_name_H-M    P1
_symmetry_Int_Tables_number       1
_symmetry_cell_setting            triclinic
loop_
_symmetry_equiv_pos_as_xyz
'x, y, z'
_cell_length_a     27.034264
_cell_length_b     27.072749
_cell_length_c     32.457873
_cell_angle_alpha  89.93395
_cell_angle_beta   89.643228
_cell_angle_gamma 91.323058
loop_
_atom_site_label
_atom_site_type_symbol
_atom_site_fract_x
_atom_site_fract_y
_atom_site_fract_z
_atom_type_partial_charge
O0 O 0.07957 0.53007 0.19287 0.0
Cd1 Cd 0.07038 0.59021 0.1548 0.0
Cd2 Cd 0.1497 0.61081 0.19873 0.0
O3 O 0.15821 0.53694 0.20961 0.0
O4 O 1.01436 0.56609 0.11989 0.0
O5 O 0.09015 0.57853 0.09575 0.0
C6 C 0.04551 0.5619 0.08994 0.0
C7 C 0.20799 0.66985 0.17817 0.0
C8 C 0.11809 0.51172 0.20847 0.0
C9 C 0.06369 0.66817 0.21759 0.0
O10 O 0.09686 0.6431 0.23461 0.0
O11 O 0.05164 0.65852 0.18051 0.0
O12 O 0.20975 0.64947 0.21407 0.0
O13 O 0.17626 0.65271 0.15187 0.0
O14 O 0.93714 0.06626 0.16715 0.0
Cd15 Cd 0.87568 0.06376 0.12999 0.0
Cd16 Cd 0.86422 0.14391 0.17431 0.0
O17 O 0.93899 0.14478 0.18449 0.0
O18 O 0.89607 1.01229 0.08999 0.0
O19 O 0.88644 0.09017 0.07201 0.0
C20 C 0.90129 0.04655 0.06258 0.0
C21 C 0.81791 0.21366 0.16038 0.0
C22 C 0.95947 0.1031 0.18337 0.0
C23 C 0.80264 0.05491 0.19595 0.0
O24 O 0.82596 0.0927 0.20936 0.0
O25 O 0.80988 0.0402 0.15915 0.0
O26 O 0.83969 0.20788 0.1952 0.0
O27 O 0.825 0.18106 0.13203 0.0
O28 O 0.45109 1.00054 0.18919 0.0
Cd29 Cd 0.46882 0.94119 0.15315 0.0
Cd30 Cd 0.383 0.91108 0.18965 0.0
O31 O 0.37228 0.98469 0.20243 0.0
O32 O 0.52048 0.97043 0.11539 0.0
O33 O 0.44654 0.9456 0.09421 0.0
C34 C 0.48833 0.96792 0.08622 0.0
C35 C 0.31927 0.85427 0.17364 0.0
C36 C 0.40966 0.01396 0.20347 0.0
C37 C 0.47636 0.86462 0.2173 0.0
O38 O 0.43329 0.87806 0.2271 0.0
O39 O 0.49677 0.87981 0.18396 0.0
O40 O 0.32089 0.87733 0.20822 0.0
O41 O 0.35202 0.86643 0.14609 0.0
O42 O 0.54436 0.49741 0.17653 0.0
Cd43 Cd 0.60559 0.49149 0.13903 0.0
Cd44 Cd 0.6093 0.41581 0.18496 0.0
O45 O 0.53391 0.41889 0.19257 0.0
O46 O 0.59108 0.53724 0.09276 0.0
O47 O 0.58967 0.45578 0.08665 0.0
C48 C 0.58013 0.49853 0.07112 0.0
C49 C 0.65768 0.35054 0.16534 0.0
C50 C 0.5173 0.46235 0.19092 0.0
C51 C 0.68155 0.49297 0.20234 0.0
O52 O 0.64959 0.46506 0.21989 0.0
O53 O 0.67632 0.50336 0.16431 0.0
O54 O 0.63656 0.35139 0.20111 0.0
O55 O 0.64712 0.38431 0.13882 0.0
O56 O 0.04582 0.98918 0.31819 0.0
Cd57 Cd 0.05373 0.93398 0.36148 0.0
Cd58 Cd 0.13513 0.92941 0.31856 0.0
O59 O 0.12432 1.00101 0.30159 0.0
O60 O 1.00629 0.9506 0.4066 0.0
O61 O 0.08753 0.95471 0.41388 0.0
C62 C 0.04401 0.96284 0.42888 0.0
C63 C 0.21113 0.89513 0.33378 0.0
C64 C 0.07971 0.01436 0.3 0.0
C65 C 0.05887 0.8513 0.30443 0.0
O66 O 0.09129 0.87939 0.28762 0.0
O67 O 0.0429 0.86127 0.34043 0.0
O68 O 0.20207 0.9132 0.29796 0.0
O69 O 0.17852 0.90102 0.36253 0.0
O70 O 0.51386 0.07536 0.33678 0.0
Cd71 Cd 0.57337 0.05996 0.37381 0.0
Cd72 Cd 0.59881 0.14214 0.33356 0.0
O73 O 0.52518 0.15495 0.32497 0.0
O74 O 0.54524 1.00848 0.4121 0.0
O75 O 0.56796 0.08341 0.43244 0.0
C76 C 0.54692 0.04121 0.44096 0.0
C77 C 0.66147 0.20178 0.34405 0.0
C78 C 0.49809 0.11606 0.32297 0.0
C79 C 0.64457 0.04921 0.3074 0.0
O80 O 0.6242 0.08822 0.29531 0.0
O81 O 0.63684 0.03377 0.34404 0.0
O82 O 0.63682 0.19947 0.31026 0.0
O83 O 0.64734 0.17321 0.374 0.0
O84 O 0.44437 0.56858 0.33428 0.0
Cd85 Cd 0.4716 0.61779 0.3772 0.0
Cd86 Cd 0.41625 0.68221 0.32277 0.0
O87 O 0.40292 0.61661 0.29175 0.0
O88 O 0.52098 0.58419 0.41147 0.0
O89 O 0.44698 0.6062 0.43435 0.0
C90 C 0.48769 0.58296 0.44036 0.0
C91 C 0.36053 0.74516 0.33068 0.0
C92 C 0.4189 0.57425 0.30174 0.0
C93 C 0.52501 0.72184 0.34128 0.0
O94 O 0.49032 0.69057 0.34819 0.0
O95 O 0.49146 0.68923 0.34926 0.0
O96 O 0.38956 0.74357 0.29887 0.0
O97 O 0.36247 0.70972 0.3574 0.0
O98 O 0.98814 0.45188 0.33026 0.0
Cd99 Cd 0.92668 0.46534 0.36602 0.0
Cd100 Cd 0.9031 0.38231 0.32544 0.0
O101 O 0.97756 0.37268 0.31658 0.0
O102 O 0.95225 0.51782 0.40413 0.0
O103 O 0.93162 0.44232 0.42477 0.0
C104 C 0.95124 0.48514 0.43309 0.0
C105 C 0.84455 0.31949 0.33996 0.0
C106 C 1.00473 0.41156 0.31641 0.0
C107 C 0.85355 0.47396 0.30028 0.0
O108 O 0.87322 0.43463 0.28774 0.0
O109 O 0.86316 0.4901 0.33629 0.0
O110 O 0.86873 0.32125 0.30564 0.0
O111 O 0.85701 0.35108 0.36807 0.0
O112 O 0.95924 0.48307 0.8389 0.0
Cd113 Cd 0.97611 0.42355 0.87476 0.0
Cd114 Cd 0.89086 0.39546 0.84121 0.0
O115 O 0.88001 0.46882 0.82738 0.0
O116 O 0.02959 0.4518 0.91044 0.0
O117 O 0.95598 0.42851 0.9343 0.0
C118 C 0.99846 0.44997 0.9407 0.0
C119 C 0.83322 0.34045 0.87112 0.0
C120 C 0.91803 0.49719 0.82516 0.0
C121 C 0.98224 0.34833 0.8099 0.0
O122 O 0.93892 0.3621 0.80131 0.0
O123 O 1.00276 0.36226 0.84331 0.0
O124 O 0.8264 0.35893 0.83502 0.0
O125 O 0.87146 0.35546 0.8917 0.0
O126 O 0.09709 0.91212 0.86206 0.0
Cd127 Cd 0.08841 0.98707 0.87249 0.0
Cd128 Cd 0.19357 0.88751 0.85108 0.0
O129 O 0.13273 0.86603 0.81654 0.0
O130 O 0.02258 0.01723 0.88556 0.0
O131 O 0.07746 0.99624 0.93261 0.0
C132 C 0.03428 1.01284 0.92395 0.0
C133 C 0.26247 0.83944 0.85731 0.0
C134 C 0.0962 0.89241 0.82651 0.0
C135 C 0.18732 0.9967 0.85005 0.0
O136 O 0.1835 0.95859 0.87304 0.0
O137 O 0.15039 0.02511 0.84878 0.0
O138 O 0.25891 0.87096 0.82749 0.0
O139 O 0.22685 0.83621 0.88417 0.0
O140 O 0.56789 0.04205 0.83186 0.0
Cd141 Cd 0.5537 0.10212 0.86741 0.0
Cd142 Cd 0.6463 0.12363 0.84293 0.0
O143 O 0.6485 0.05095 0.82265 0.0
O144 O 0.49814 0.0778 0.90347 0.0
O145 O 0.57286 0.0962 0.92697 0.0
C146 C 0.52906 0.07746 0.9336 0.0
C147 C 0.70841 0.16923 0.87614 0.0
C148 C 0.60851 0.02584 0.81832 0.0
C149 C 0.56393 0.18339 0.80698 0.0
O150 O 0.60839 0.1695 0.8046 0.0
O151 O 0.53426 0.1645 0.83366 0.0
O152 O 0.71517 0.1511 0.83993 0.0
O153 O 0.6681 0.15705 0.89559 0.0
O154 O 0.49592 0.52385 0.81718 0.0
Cd155 Cd 0.43621 0.53452 0.85509 0.0
Cd156 Cd 0.43674 0.61444 0.8102 0.0
O157 O 0.50987 0.60073 0.79743 0.0
O158 O 0.44817 0.48598 0.89998 0.0
O159 O 0.45448 0.56687 0.90865 0.0
C160 C 0.46139 0.5229 0.92284 0.0
C161 C 0.40583 0.68745 0.83625 0.0
C162 C 0.52383 0.55641 0.80023 0.0
C163 C 0.35594 0.54145 0.79432 0.0
O164 O 0.38494 0.57348 0.77785 0.0
O165 O 0.3654 0.52474 0.83012 0.0
O166 O 0.4227 0.68503 0.79903 0.0
O167 O 0.40985 0.64917 0.85976 0.0
O168 O 0.03634 0.04733 0.69202 0.0
Cd169 Cd 0.02196 0.10273 0.65024 0.0
Cd170 Cd 0.94474 0.10149 0.69605 0.0
O171 O 0.95881 0.02906 0.70786 0.0
O172 O 0.06442 0.08891 0.60122 0.0
O173 O 0.98283 0.08004 0.60121 0.0
C174 C 0.0247 0.07415 0.58251 0.0
C175 C 0.86761 0.13606 0.68615 0.0
C176 C 1.00434 0.01868 0.70909 0.0
C177 C 0.01622 0.18226 0.70902 0.0
O178 O 0.9898 0.14984 0.7274 0.0
O179 O 0.02788 0.17583 0.67135 0.0
O180 O 0.8796 0.11659 0.72082 0.0
O181 O 0.89762 0.1311 0.65535 0.0
O182 O 0.47693 0.96956 0.69557 0.0
Cd183 Cd 0.41409 0.97866 0.66108 0.0
Cd184 Cd 0.40033 0.8904 0.6946 0.0
O185 O 0.47582 0.88868 0.70329 0.0
O186 O 0.43548 0.03381 0.62369 0.0
O187 O 0.42125 0.9575 0.60197 0.0
C188 C 0.43799 1.00177 0.5944 0.0
C189 C 0.34782 0.82302 0.67977 0.0
C190 C 0.49837 0.93023 0.70607 0.0
C191 C 0.341 0.97375 0.72726 0.0
O192 O 0.36445 0.93497 0.73548 0.0
O193 O 0.34889 0.99599 0.69313 0.0
O194 O 0.37342 0.82529 0.713 0.0
O195 O 0.35634 0.85654 0.6521 0.0
O196 O 0.58073 0.42815 0.67243 0.0
Cd197 Cd 0.52974 0.39571 0.63211 0.0
Cd198 Cd 0.64526 0.33198 0.67178 0.0
O199 O 0.65174 0.4012 0.69823 0.0
O200 O 0.48482 0.44645 0.6101 0.0
O201 O 0.54318 0.41035 0.57307 0.0
C202 C 0.50952 0.44351 0.57592 0.0
C203 C 0.70551 0.27302 0.67426 0.0
C204 C 0.61936 0.43457 0.69443 0.0
C205 C 0.53686 0.30691 0.66486 0.0
O206 O 0.57698 0.32159 0.64783 0.0
O207 O 0.49838 0.32892 0.65361 0.0
O208 O 0.67353 0.27731 0.70378 0.0
O209 O 0.70275 0.30222 0.64275 0.0
O210 O 0.03342 0.55822 0.69019 0.0
Cd211 Cd 0.09163 0.54958 0.64921 0.0
Cd212 Cd 0.11496 0.62981 0.69316 0.0
O213 O 0.04103 0.63733 0.70505 0.0
O214 O 0.06597 0.4952 0.61305 0.0
O215 O 0.07792 0.57182 0.59121 0.0
C216 C 0.06119 0.5275 0.58422 0.0
C217 C 0.17237 0.69414 0.68154 0.0
C218 C 0.01597 0.59712 0.70612 0.0
C219 C 0.17172 0.54208 0.70896 0.0
O220 O 0.14731 0.57531 0.72673 0.0
O221 O 0.16152 0.53069 0.67185 0.0
O222 O 0.14986 0.68853 0.7164 0.0
O223 O 0.15862 0.66594 0.65142 0.0
C224 C 0.27118 0.72618 0.14361 0.0
C225 C 0.23241 0.71848 0.17205 0.0
C226 C 0.29733 0.77182 0.14205 0.0
C227 C 0.28516 0.81093 0.16875 0.0
H228 H 0.28271 0.69625 0.1239 0.0
H229 H 0.32887 0.77551 0.12144 0.0
S230 S 0.18106 0.81049 0.24393 0.0
N231 N 0.17956 0.75444 0.22404 0.0
N232 N 0.22759 0.84004 0.22081 0.0
C233 C 0.2441 0.80424 0.19518 0.0
C234 C 0.21804 0.75799 0.19693 0.0
C235 C 0.7391 0.24553 0.13092 0.0
C236 C 0.78139 0.2532 0.15559 0.0
C237 C 0.69924 0.2781 0.13265 0.0
C238 C 0.70071 0.31906 0.15912 0.0
H239 H 0.7356 0.21281 0.11189 0.0
H240 H 0.66645 0.27009 0.11461 0.0
S241 S 0.80561 0.36022 0.2244 0.0
N242 N 0.82435 0.3085 0.20308 0.0
N243 N 0.74937 0.36885 0.20669 0.0
C244 C 0.74381 0.32876 0.18182 0.0
C245 C 0.78425 0.29606 0.17993 0.0
C246 C 0.29104 0.86231 0.30841 0.0
C247 C 0.254 0.86252 0.33902 0.0
C248 C 0.32597 0.82498 0.30667 0.0
C249 C 0.32564 0.78638 0.33574 0.0
H250 H 0.29188 0.89029 0.28456 0.0
H251 H 0.35261 0.82583 0.28159 0.0
S252 S 0.24049 0.77345 0.42562 0.0
N253 N 0.22194 0.82338 0.4015 0.0
N254 N 0.28806 0.75351 0.39874 0.0
C255 C 0.29089 0.78794 0.36826 0.0
C256 C 0.25509 0.82602 0.36988 0.0
C257 C 0.78125 0.26316 0.30849 0.0
C258 C 0.80006 0.28639 0.34406 0.0
C259 C 0.73615 0.2369 0.30909 0.0
C260 C 0.70825 0.23135 0.34555 0.0
H261 H 0.80085 0.2661 0.2794 0.0
H262 H 0.72336 0.22028 0.2806 0.0
S263 S 0.74207 0.28152 0.44806 0.0
N264 N 0.7877 0.30062 0.41742 0.0
N265 N 0.70356 0.24902 0.41881 0.0
C266 C 0.72725 0.25251 0.38186 0.0
C267 C 0.77294 0.28054 0.38106 0.0
C268 C 0.82177 0.25147 0.88915 0.0
C269 C 0.80142 0.29865 0.88529 0.0
C270 C 0.79118 0.20869 0.89026 0.0
C271 C 0.73938 0.21204 0.889 0.0
H272 H 0.8615 0.24728 0.88744 0.0
H273 H 0.80814 0.17284 0.88919 0.0
S274 S 0.66819 0.32714 0.88419 0.0
N275 N 0.72665 0.34633 0.8834 0.0
N276 N 0.66921 0.26633 0.88768 0.0
C277 C 0.71877 0.2592 0.889 0.0
C278 C 0.74981 0.30249 0.88651 0.0
C279 C 0.33313 0.7217 0.87314 0.0
C280 C 0.37589 0.72992 0.84894 0.0
C281 C 0.2978 0.75849 0.87775 0.0
C282 C 0.30408 0.80478 0.85838 0.0
H283 H 0.32524 0.68558 0.88636 0.0
H284 H 0.26408 0.74951 0.89462 0.0
S285 S 0.41545 0.8485 0.8005 0.0
N286 N 0.42645 0.79013 0.81122 0.0
N287 N 0.36035 0.8595 0.82021 0.0
C288 C 0.34873 0.8148 0.83719 0.0
C289 C 0.38457 0.77729 0.83238 0.0
C290 C 0.76556 0.21484 0.642 0.0
C291 C 0.74534 0.23668 0.67744 0.0
C292 C 0.80413 0.18101 0.64494 0.0
C293 C 0.82383 0.16801 0.68343 0.0
H294 H 0.75152 0.22393 0.6118 0.0
H295 H 0.81893 0.16538 0.61687 0.0
S296 S 0.7877 0.22013 0.78473 0.0
N297 N 0.75007 0.2458 0.75165 0.0
N298 N 0.82239 0.18291 0.75738 0.0
C299 C 0.80412 0.19022 0.71898 0.0
C300 C 0.76493 0.22438 0.71594 0.0
C301 C 0.242 0.73949 0.71509 0.0
C302 C 0.21657 0.72752 0.67864 0.0
C303 C 0.28534 0.76852 0.71446 0.0
C304 C 0.30499 0.78787 0.67741 0.0
H305 H 0.22874 0.72579 0.74464 0.0
H306 H 0.3028 0.77685 0.74369 0.0
S307 S 0.25316 0.76718 0.57309 0.0
N308 N 0.21488 0.73617 0.60407 0.0
N309 N 0.29591 0.79262 0.60302 0.0
C310 C 0.28016 0.77627 0.64054 0.0
C311 C 0.23617 0.7456 0.64112 0.0
C312 C 0.08893 0.44635 0.30494 0.0
C313 C 0.05028 0.41477 0.29143 0.0
C314 C 0.11926 0.47197 0.27657 0.0
C315 C 0.11072 0.46736 0.2341 0.0
H316 H 0.09153 0.4562 0.33722 0.0
H317 H 0.14393 0.50088 0.28802 0.0
S318 S 0.02408 0.37897 0.18358 0.0
N319 N 1.01329 0.37144 0.23337 0.0
N320 N 0.06933 0.42084 0.18001 0.0
C321 C 0.07816 0.42972 0.22054 0.0
C322 C 0.04796 0.40297 0.24938 0.0
C323 C 1.00577 0.11189 0.24886 0.0
C324 C 1.00348 0.09348 0.20837 0.0
C325 C 0.03525 0.08922 0.27851 0.0
C326 C 0.06449 0.0489 0.268 0.0
H327 H 0.98067 0.14018 0.25886 0.0
H328 H 0.03214 0.10068 0.31038 0.0
S329 S 0.07682 0.99165 0.16501 0.0
N330 N 0.03674 0.03607 0.15841 0.0
N331 N 0.09346 0.99482 0.21382 0.0
C332 C 0.06665 0.03385 0.22671 0.0
C333 C 0.03582 0.05597 0.19685 0.0
C334 C 0.41777 0.0785 0.30299 0.0
C335 C 0.45637 0.11271 0.29408 0.0
C336 C 0.39453 0.05158 0.27139 0.0
C337 C 0.41009 0.05779 0.23029 0.0
H338 H 0.41043 0.06749 0.3346 0.0
H339 H 0.37014 0.02085 0.27988 0.0
S340 S 0.49788 0.15352 0.19031 0.0
N341 N 0.49954 0.16027 0.24086 0.0
N342 N 0.45679 0.10872 0.18155 0.0
C343 C 0.44184 0.098 0.22067 0.0
C344 C 0.46481 0.12596 0.25274 0.0
C345 C 0.46562 0.45945 0.2541 0.0
C346 C 0.47206 0.47564 0.21331 0.0
C347 C 0.43979 0.48822 0.28251 0.0
C348 C 0.42013 0.53398 0.2708 0.0
H349 H 0.48601 0.4283 0.26546 0.0
H350 H 0.44096 0.47771 0.31471 0.0
S351 S 0.41078 0.58105 0.16381 0.0
N352 N 0.4449 0.53144 0.15989 0.0
N353 N 0.3957 0.58537 0.21305 0.0
C354 C 0.41789 0.54484 0.22846 0.0
C355 C 0.44443 0.5157 0.19968 0.0
C356 C 0.93625 0.55541 0.7242 0.0
C357 C 0.97306 0.591 0.73407 0.0
C358 C 0.90944 0.5305 0.75528 0.0
C359 C 0.91983 0.53973 0.79696 0.0
H360 H 0.93245 0.54254 0.69275 0.0
H361 H 0.88644 0.4989 0.74666 0.0
S362 S 1.00206 0.63878 0.83824 0.0
N363 N 1.00963 0.6423 0.78777 0.0
N364 N 0.96044 0.5941 0.84621 0.0
C365 C 0.95021 0.58075 0.80677 0.0
C366 C 0.97677 0.60679 0.77516 0.0
C367 C 0.09093 0.92735 0.75573 0.0
C368 C 0.06785 0.91605 0.79362 0.0
C369 C 0.06834 0.95806 0.72714 0.0
C370 C 0.02168 0.97799 0.73517 0.0
H371 H 0.12802 0.91509 0.74916 0.0
H372 H 0.08861 0.9681 0.69935 0.0
S373 S 0.94304 0.95347 0.82741 0.0
N374 N 0.99397 0.92259 0.83599 0.0
N375 N 0.95098 0.98005 0.78195 0.0
C376 C 0.99658 0.96379 0.77154 0.0
C377 C 0.01992 0.93298 0.80092 0.0
C378 C 0.57486 0.94355 0.79968 0.0
C379 C 0.60466 0.98489 0.78872 0.0
C380 C 0.54566 0.91894 0.7702 0.0
C381 C 0.54479 0.93589 0.7293 0.0
H382 H 0.56902 0.93446 0.83189 0.0
H383 H 0.51872 0.89146 0.78074 0.0
S384 S 0.62556 0.03388 0.6834 0.0
N385 N 0.63971 0.03427 0.73284 0.0
N386 N 0.58358 0.98915 0.67768 0.0
C387 C 0.58013 0.97184 0.71695 0.0
C388 C 0.61064 0.99607 0.74674 0.0
C389 C 0.5981 0.5212 0.7087 0.0
C390 C 0.61867 0.47696 0.72275 0.0
C391 C 0.57305 0.5523 0.73582 0.0
C392 C 0.56748 0.53944 0.77751 0.0
H393 H 0.59605 0.52863 0.67594 0.0
H394 H 0.55264 0.58267 0.72308 0.0
S395 S 0.62598 0.4354 0.83119 0.0
N396 N 0.64122 0.42803 0.78226 0.0
N397 N 0.59338 0.48617 0.83317 0.0
C398 C 0.59441 0.49975 0.79284 0.0
C399 C 0.62049 0.46852 0.76537 0.0
C400 C 0.04641 0.71474 0.28238 0.0
C401 C 0.04759 0.71352 0.23892 0.0
C402 C 0.04474 0.75967 0.30397 0.0
C403 C 0.04519 0.80491 0.28276 0.0
H404 H 0.04989 0.68088 0.29985 0.0
H405 H 0.04738 0.75905 0.33725 0.0
S406 S 0.04248 0.82195 0.16936 0.0
N407 N 0.04401 0.76147 0.17575 0.0
N408 N 0.0418 0.84575 0.21617 0.0
C409 C 0.04251 0.80401 0.23946 0.0
C410 C 0.04341 0.75833 0.21754 0.0
C411 C 0.71451 0.0308 0.20894 0.0
C412 C 0.76354 0.03322 0.22283 0.0
C413 C 0.67492 0.02922 0.23718 0.0
C414 C 0.68318 0.02922 0.28007 0.0
H415 H 0.70659 0.03567 0.17652 0.0
H416 H 0.63772 0.03283 0.22548 0.0
S417 S 0.80497 0.02477 0.33126 0.0
N418 N 0.81839 0.02776 0.28157 0.0
N419 N 0.74394 0.02388 0.33451 0.0
C420 C 0.73192 0.02515 0.29395 0.0
C421 C 0.77219 0.02752 0.26528 0.0
C422 C 0.53016 0.80787 0.31293 0.0
C423 C 0.51919 0.75742 0.30702 0.0
C424 C 0.51962 0.84276 0.28219 0.0
C425 C 0.49949 0.82796 0.24414 0.0
H426 H 0.54437 0.82073 0.34225 0.0
H427 H 0.52515 0.88168 0.28889 0.0
S428 S 0.4698 0.69978 0.21152 0.0
N429 N 0.49135 0.69401 0.25874 0.0
N430 N 0.47193 0.75957 0.20128 0.0
C431 C 0.49131 0.77744 0.23696 0.0
C432 C 0.50129 0.74208 0.26827 0.0
C433 C 0.72572 0.50995 0.26825 0.0
C434 C 0.72781 0.50442 0.22507 0.0
C435 C 0.7682 0.50576 0.29259 0.0
C436 C 0.81405 0.4949 0.27462 0.0
H437 H 0.69036 0.5141 0.2836 0.0
H438 H 0.76413 0.50644 0.32582 0.0
S439 S 0.84085 0.48405 0.16278 0.0
N440 N 0.78079 0.4937 0.16518 0.0
N441 N 0.86041 0.48491 0.21089 0.0
C442 C 0.81748 0.49377 0.23131 0.0
C443 C 0.77439 0.49882 0.2065 0.0
C444 C 0.0349 0.22847 0.77326 0.0
C445 C 0.02464 0.22955 0.73074 0.0
C446 C 0.02603 0.26939 0.79853 0.0
C447 C 1.00553 0.31227 0.78215 0.0
H448 H 0.04621 0.19442 0.78763 0.0
H449 H 0.03091 0.2657 0.83149 0.0
S450 S 0.9795 0.33663 0.67196 0.0
N451 N 0.99935 0.27937 0.67267 0.0
N452 N 0.98156 0.35601 0.72019 0.0
C453 C 0.99945 0.31542 0.73918 0.0
C454 C 1.00942 0.2741 0.71338 0.0
C455 C 0.3119 0.97885 0.7998 0.0
C456 C 0.30387 0.99002 0.75802 0.0
C457 C 0.27452 0.98358 0.82941 0.0
C458 C 0.22742 0.99991 0.81868 0.0
H459 H 0.34697 0.96435 0.80956 0.0
H460 H 0.28206 0.97257 0.86083 0.0
S461 S 0.18801 0.03792 0.71422 0.0
N462 N 0.246 0.02127 0.70782 0.0
N463 N 0.17547 0.03066 0.7638 0.0
C464 C 0.21953 0.01429 0.77753 0.0
C465 C 0.25785 1.00926 0.74712 0.0
C466 C 0.57607 0.26336 0.77049 0.0
C467 C 0.54768 0.21973 0.77623 0.0
C468 C 0.57012 0.29293 0.73547 0.0
C469 C 0.53692 0.27903 0.70416 0.0
H470 H 0.60446 0.27371 0.7925 0.0
H471 H 0.59275 0.3262 0.73243 0.0
S472 S 0.45096 0.17043 0.70603 0.0
N473 N 0.48218 0.16615 0.74947 0.0
N474 N 0.47202 0.22121 0.68289 0.0
C475 C 0.50606 0.23724 0.71073 0.0
C476 C 0.51144 0.20752 0.74687 0.0
C477 C 0.30781 0.53109 0.7292 0.0
C478 C 0.30933 0.52811 0.77258 0.0
C479 C 0.26272 0.52965 0.70792 0.0
C480 C 0.21749 0.52614 0.72934 0.0
H481 H 0.34163 0.5373 0.71168 0.0
H482 H 0.26324 0.53574 0.67491 0.0
S483 S 0.20105 0.51049 0.84217 0.0
N484 N 0.26161 0.5154 0.83558 0.0
N485 N 0.1769 0.51413 0.79568 0.0
C486 C 0.2186 0.51918 0.7723 0.0
C487 C 0.26452 0.51974 0.79392 0.0
C488 C 0.06704 0.52849 0.02016 0.0
C489 C 0.03174 0.53464 0.05168 0.0
C490 C 0.05631 0.49999 0.9851 0.0
C491 C 1.00986 0.47614 0.97999 0.0
H492 H 0.10351 0.5456 0.02258 0.0
H493 H 0.08477 0.49702 0.96165 0.0
S494 S 0.90425 0.47999 0.05359 0.0
N495 N 0.94811 0.51408 0.07547 0.0
N496 N 0.92815 0.46063 0.00974 0.0
C497 C 0.9742 0.48175 0.01134 0.0
C498 C 0.98504 0.51098 0.04703 0.0
C499 C 0.99919 0.9927 0.99306 0.0
C500 C 0.99818 0.02227 0.9575 0.0
C501 C 0.96599 0.99962 0.02567 0.0
C502 C 0.93092 0.03727 0.02471 0.0
H503 H 0.02583 0.96358 0.99574 0.0
H504 H 0.96913 0.97613 0.05253 0.0
S505 S 0.9125 0.1248 0.93835 0.0
N506 N 0.95819 0.08986 0.92247 0.0
N507 N 0.89686 0.10439 0.98477 0.0
C508 C 0.9292 0.06713 0.98921 0.0
C509 C 0.96245 0.05919 0.95534 0.0
C510 C 0.54356 0.01895 0.03954 0.0
C511 C 0.49786 0.99406 0.04634 0.0
C512 C 0.55269 0.04695 1.00373 0.0
C513 C 0.5165 0.05152 0.97303 0.0
H514 H 0.57273 0.01707 0.06218 0.0
H515 H 0.58876 0.0647 0.99997 0.0
S516 S 0.3901 0.99439 0.97587 0.0
N517 N 0.41563 0.9764 0.01927 0.0
N518 N 0.43263 0.02888 0.95216 0.0
C519 C 0.47043 0.02708 0.97951 0.0
C520 C 0.4612 0.99839 0.01598 0.0
C521 C 0.50778 0.55623 0.98385 0.0
C522 C 0.48925 0.5152 0.96172 0.0
C523 C 0.53835 0.55041 0.01822 0.0
C524 C 0.55193 0.50329 0.03206 0.0
H525 H 0.49909 0.59339 0.97437 0.0
H526 H 0.55104 0.58335 0.03427 0.0
S527 S 0.51335 0.38348 0.98514 0.0
N528 N 0.48679 0.42545 0.95636 0.0
N529 N 0.54412 0.41462 0.02079 0.0
C530 C 0.53368 0.46184 0.01025 0.0
C531 C 0.50236 0.46776 0.97526 0.0
C532 C 0.07945 1.00896 0.48936 0.0
C533 C 0.03773 0.98939 0.46877 0.0
C534 C 0.07467 0.03726 0.52533 0.0
C535 C 0.02795 0.04727 0.5425 0.0
H536 H 0.11631 1.00287 0.47743 0.0
H537 H 0.10815 0.05102 0.53995 0.0
S538 S 0.90669 1.00432 0.50092 0.0
N539 N 0.9478 0.98195 0.46854 0.0
N540 N 0.93891 0.03488 0.53604 0.0
C541 C 0.98583 0.02787 0.52231 0.0
C542 C 0.99068 0.99901 0.48559 0.0
C543 C 0.49359 0.98746 0.48703 0.0
C544 C 0.52118 0.03176 0.48109 0.0
C545 C 0.46582 0.97871 0.52313 0.0
C546 C 0.46417 0.01392 0.55495 0.0
H547 H 0.49298 0.9592 0.46343 0.0
H548 H 0.44571 0.94381 0.52613 0.0
S549 S 0.53081 0.13567 0.55547 0.0
N550 N 0.54565 0.11105 0.5107 0.0
N551 N 0.49364 0.09479 0.57835 0.0
C552 C 0.49171 0.05841 0.54952 0.0
C553 C 0.52017 0.06724 0.51276 0.0
C554 C 0.53641 0.48169 0.50901 0.0
C555 C 0.50234 0.47952 0.54195 0.0
C556 C 0.53242 0.51659 0.47739 0.0
C557 C 0.49392 0.55074 0.47703 0.0
H558 H 0.56678 0.45632 0.50758 0.0
H559 H 0.5593 0.51593 0.45252 0.0
S560 S 0.39552 0.56178 0.55664 0.0
N561 N 0.42925 0.51562 0.5728 0.0
N562 N 0.42147 0.58089 0.51311 0.0
C563 C 0.45981 0.54947 0.51001 0.0
C564 C 0.46405 0.51399 0.54246 0.0
C565 C 0.99999 0.54172 0.47958 0.0
C566 C 0.97649 0.49539 0.473 0.0
C567 C 0.02793 0.55138 0.51511 0.0
C568 C 0.0338 0.51513 0.54569 0.0
H569 H 0.99734 0.57086 0.45686 0.0
H570 H 0.04496 0.58773 0.51857 0.0
S571 S 0.97926 0.38777 0.54399 0.0
N572 N 0.9606 0.41292 0.5006 0.0
N573 N 1.01294 0.43093 0.56721 0.0
C574 C 1.01026 0.46865 0.53969 0.0
C575 C 0.98164 0.45887 0.5035 0.0
loop_
_geom_bond_atom_site_label_1
_geom_bond_atom_site_label_2
_geom_bond_distance
_geom_bond_site_symmetry_2
_ccdc_geom_bond_type
O0 Cd1 2.223 . S
O0 C8 1.315 . S
Cd1 O0 2.223 . S
Cd1 O4 2.297 . S
Cd1 O5 2.439 1_655 S
Cd1 O11 2.240 1_655 S
Cd2 O3 2.240 . S
Cd2 O10 2.223 . S
Cd2 O12 2.297 . S
Cd2 O13 2.439 . S
O3 Cd2 2.240 . S
O3 C8 1.279 1_455 S
O4 Cd1 2.297 . S
O4 C6 1.247 . S
O5 Cd1 2.439 1_455 S
O5 C6 1.208 1_455 S
C6 O4 1.247 . S
C6 O5 1.208 1_655 S
C7 O12 1.247 . S
C7 O13 1.208 . S
C8 O0 1.315 . S
C8 O3 1.279 1_655 S
C9 O10 1.315 . S
C9 O11 1.279 . S
O10 Cd2 2.223 . S
O10 C9 1.315 . S
O11 Cd1 2.240 1_455 S
O11 C9 1.279 . S
O12 Cd2 2.297 . S
O12 C7 1.247 . S
O13 Cd2 2.439 . S
O13 C7 1.208 . S
O14 Cd15 2.223 . S
O14 C22 1.315 . S
Cd15 O14 2.223 . S
Cd15 O18 2.297 . S
Cd15 O19 2.439 1_565 S
Cd15 O25 2.240 1_565 S
Cd16 O17 2.240 . S
Cd16 O24 2.223 . S
Cd16 O26 2.297 . S
Cd16 O27 2.439 . S
O17 Cd16 2.240 . S
O17 C22 1.279 1_545 S
O18 Cd15 2.297 . S
O18 C20 1.247 . S
O19 Cd15 2.439 1_545 S
O19 C20 1.208 1_545 S
C20 O18 1.247 . S
C20 O19 1.208 1_565 S
C21 O26 1.247 . S
C21 O27 1.208 . S
C22 O14 1.315 . S
C22 O17 1.279 1_565 S
C23 O24 1.315 . S
C23 O25 1.279 . S
O24 Cd16 2.223 . S
O24 C23 1.315 . S
O25 Cd15 2.240 1_545 S
O25 C23 1.279 . S
O26 Cd16 2.297 . S
O26 C21 1.247 . S
O27 Cd16 2.439 . S
O27 C21 1.208 . S
O28 Cd29 2.223 . S
O28 C36 1.315 . S
Cd29 O28 2.223 . S
Cd29 O32 2.297 . S
Cd29 O33 2.439 . S
Cd29 O39 2.240 . S
Cd30 O31 2.240 . S
Cd30 O38 2.223 . S
Cd30 O40 2.297 . S
Cd30 O41 2.439 . S
O31 Cd30 2.240 . S
O31 C36 1.279 . S
O32 Cd29 2.297 . S
O32 C34 1.247 . S
O33 Cd29 2.439 . S
O33 C34 1.208 . S
C34 O32 1.247 . S
C34 O33 1.208 . S
C35 O40 1.247 . S
C35 O41 1.208 . S
C36 O28 1.315 . S
C36 O31 1.279 . S
C37 O38 1.315 . S
C37 O39 1.279 . S
O38 Cd30 2.223 . S
O38 C37 1.315 . S
O39 Cd29 2.240 . S
O39 C37 1.279 . S
O40 Cd30 2.297 . S
O40 C35 1.247 . S
O41 Cd30 2.439 . S
O41 C35 1.208 . S
O42 Cd43 2.223 . S
O42 C50 1.315 . S
Cd43 O42 2.223 . S
Cd43 O46 2.297 . S
Cd43 O47 2.439 . S
Cd43 O53 2.240 . S
Cd44 O45 2.240 . S
Cd44 O52 2.223 . S
Cd44 O54 2.297 . S
Cd44 O55 2.439 . S
O45 Cd44 2.240 . S
O45 C50 1.279 . S
O46 Cd43 2.297 . S
O46 C48 1.247 . S
O47 Cd43 2.439 . S
O47 C48 1.208 . S
C48 O46 1.247 . S
C48 O47 1.208 . S
C49 O54 1.247 . S
C49 O55 1.208 . S
C50 O42 1.315 . S
C50 O45 1.279 . S
C51 O52 1.315 . S
C51 O53 1.279 . S
O52 Cd44 2.223 . S
O52 C51 1.315 . S
O53 Cd43 2.240 . S
O53 C51 1.279 . S
O54 Cd44 2.297 . S
O54 C49 1.247 . S
O55 Cd44 2.439 . S
O55 C49 1.208 . S
O56 Cd57 2.223 . S
O56 C64 1.315 . S
Cd57 O56 2.223 . S
Cd57 O60 2.297 . S
Cd57 O61 2.439 1_655 S
Cd57 O67 2.240 1_655 S
Cd58 O59 2.240 . S
Cd58 O66 2.223 . S
Cd58 O68 2.297 . S
Cd58 O69 2.439 . S
O59 Cd58 2.240 . S
O59 C64 1.279 1_455 S
O60 Cd57 2.297 . S
O60 C62 1.247 . S
O61 Cd57 2.439 1_455 S
O61 C62 1.208 1_455 S
C62 O60 1.247 . S
C62 O61 1.208 1_655 S
C63 O68 1.247 . S
C63 O69 1.208 . S
C64 O56 1.315 . S
C64 O59 1.279 1_655 S
C65 O66 1.315 . S
C65 O67 1.279 . S
O66 Cd58 2.223 . S
O66 C65 1.315 . S
O67 Cd57 2.240 1_455 S
O67 C65 1.279 . S
O68 Cd58 2.297 . S
O68 C63 1.247 . S
O69 Cd58 2.439 . S
O69 C63 1.208 . S
O70 Cd71 2.223 . S
O70 C78 1.315 . S
Cd71 O70 2.223 . S
Cd71 O74 2.297 . S
Cd71 O75 2.439 1_565 S
Cd71 O81 2.240 1_565 S
Cd72 O73 2.240 . S
Cd72 O80 2.223 . S
Cd72 O82 2.297 . S
Cd72 O83 2.439 . S
O73 Cd72 2.240 . S
O73 C78 1.279 1_545 S
O74 Cd71 2.297 . S
O74 C76 1.247 . S
O75 Cd71 2.439 1_545 S
O75 C76 1.208 1_545 S
C76 O74 1.247 . S
C76 O75 1.208 1_565 S
C77 O82 1.247 . S
C77 O83 1.208 . S
C78 O70 1.315 . S
C78 O73 1.279 1_565 S
C79 O80 1.315 . S
C79 O81 1.279 . S
O80 Cd72 2.223 . S
O80 C79 1.315 . S
O81 Cd71 2.240 1_545 S
O81 C79 1.279 . S
O82 Cd72 2.297 . S
O82 C77 1.247 . S
O83 Cd72 2.439 . S
O83 C77 1.208 . S
O84 Cd85 2.223 . S
O84 C92 1.315 . S
Cd85 O84 2.223 . S
Cd85 O88 2.297 . S
Cd85 O89 2.439 . S
Cd85 O95 2.240 . S
Cd86 O87 2.240 . S
Cd86 O94 2.223 . S
Cd86 O96 2.297 . S
Cd86 O97 2.439 . S
O87 Cd86 2.240 . S
O87 C92 1.279 . S
O88 Cd85 2.297 . S
O88 C90 1.247 . S
O89 Cd85 2.439 . S
O89 C90 1.208 . S
C90 O88 1.247 . S
C90 O89 1.208 . S
C91 O96 1.247 . S
C91 O97 1.208 . S
C92 O84 1.315 . S
C92 O87 1.279 . S
C93 O94 1.315 . S
C93 O95 1.279 . S
O94 Cd86 2.223 . S
O94 C93 1.315 . S
O95 Cd85 2.240 . S
O95 C93 1.279 . S
O96 Cd86 2.297 . S
O96 C91 1.247 . S
O97 Cd86 2.439 . S
O97 C91 1.208 . S
O98 Cd99 2.223 . S
O98 C106 1.315 . S
Cd99 O98 2.223 . S
Cd99 O102 2.297 . S
Cd99 O103 2.439 . S
Cd99 O109 2.240 . S
Cd100 O101 2.240 . S
Cd100 O108 2.223 . S
Cd100 O110 2.297 . S
Cd100 O111 2.439 . S
O101 Cd100 2.240 . S
O101 C106 1.279 . S
O102 Cd99 2.297 . S
O102 C104 1.247 . S
O103 Cd99 2.439 . S
O103 C104 1.208 . S
C104 O102 1.247 . S
C104 O103 1.208 . S
C105 O110 1.247 . S
C105 O111 1.208 . S
C106 O98 1.315 . S
C106 O101 1.279 . S
C107 O108 1.315 . S
C107 O109 1.279 . S
O108 Cd100 2.223 . S
O108 C107 1.315 . S
O109 Cd99 2.240 . S
O109 C107 1.279 . S
O110 Cd100 2.297 . S
O110 C105 1.247 . S
O111 Cd100 2.439 . S
O111 C105 1.208 . S
O112 Cd113 2.223 . S
O112 C120 1.315 . S
Cd113 O112 2.223 . S
Cd113 O116 2.297 . S
Cd113 O117 2.439 1_455 S
Cd113 O123 2.240 1_455 S
Cd114 O115 2.240 . S
Cd114 O122 2.223 . S
Cd114 O124 2.297 . S
Cd114 O125 2.439 . S
O115 Cd114 2.240 . S
O115 C120 1.279 1_655 S
O116 Cd113 2.297 . S
O116 C118 1.247 . S
O117 Cd113 2.439 1_655 S
O117 C118 1.208 1_655 S
C118 O116 1.247 . S
C118 O117 1.208 1_455 S
C119 O124 1.247 . S
C119 O125 1.208 . S
C120 O112 1.315 . S
C120 O115 1.279 1_455 S
C121 O122 1.315 . S
C121 O123 1.279 . S
O122 Cd114 2.223 . S
O122 C121 1.315 . S
O123 Cd113 2.240 1_655 S
O123 C121 1.279 . S
O124 Cd114 2.297 . S
O124 C119 1.247 . S
O125 Cd114 2.439 . S
O125 C119 1.208 . S
O126 Cd127 2.223 . S
O126 C134 1.315 . S
Cd127 O126 2.223 . S
Cd127 O130 2.297 . S
Cd127 O131 2.439 1_545 S
Cd127 O137 2.240 1_545 S
Cd128 O129 2.240 . S
Cd128 O136 2.223 . S
Cd128 O138 2.297 . S
Cd128 O139 2.439 . S
O129 Cd128 2.240 . S
O129 C134 1.279 1_565 S
O130 Cd127 2.297 . S
O130 C132 1.247 . S
O131 Cd127 2.439 1_565 S
O131 C132 1.208 1_565 S
C132 O130 1.247 . S
C132 O131 1.208 1_545 S
C133 O138 1.247 . S
C133 O139 1.208 . S
C134 O126 1.315 . S
C134 O129 1.279 1_545 S
C135 O136 1.315 . S
C135 O137 1.279 . S
O136 Cd128 2.223 . S
O136 C135 1.315 . S
O137 Cd127 2.240 1_565 S
O137 C135 1.279 . S
O138 Cd128 2.297 . S
O138 C133 1.247 . S
O139 Cd128 2.439 . S
O139 C133 1.208 . S
O140 Cd141 2.223 . S
O140 C148 1.315 . S
Cd141 O140 2.223 . S
Cd141 O144 2.297 . S
Cd141 O145 2.439 . S
Cd141 O151 2.240 . S
Cd142 O143 2.240 . S
Cd142 O150 2.223 . S
Cd142 O152 2.297 . S
Cd142 O153 2.439 . S
O143 Cd142 2.240 . S
O143 C148 1.279 . S
O144 Cd141 2.297 . S
O144 C146 1.247 . S
O145 Cd141 2.439 . S
O145 C146 1.208 . S
C146 O144 1.247 . S
C146 O145 1.208 . S
C147 O152 1.247 . S
C147 O153 1.208 . S
C148 O140 1.315 . S
C148 O143 1.279 . S
C149 O150 1.315 . S
C149 O151 1.279 . S
O150 Cd142 2.223 . S
O150 C149 1.315 . S
O151 Cd141 2.240 . S
O151 C149 1.279 . S
O152 Cd142 2.297 . S
O152 C147 1.247 . S
O153 Cd142 2.439 . S
O153 C147 1.208 . S
O154 Cd155 2.223 . S
O154 C162 1.315 . S
Cd155 O154 2.223 . S
Cd155 O158 2.297 . S
Cd155 O159 2.439 . S
Cd155 O165 2.240 . S
Cd156 O157 2.240 . S
Cd156 O164 2.223 . S
Cd156 O166 2.297 . S
Cd156 O167 2.439 . S
O157 Cd156 2.240 . S
O157 C162 1.279 . S
O158 Cd155 2.297 . S
O158 C160 1.247 . S
O159 Cd155 2.439 . S
O159 C160 1.208 . S
C160 O158 1.247 . S
C160 O159 1.208 . S
C161 O166 1.247 . S
C161 O167 1.208 . S
C162 O154 1.315 . S
C162 O157 1.279 . S
C163 O164 1.315 . S
C163 O165 1.279 . S
O164 Cd156 2.223 . S
O164 C163 1.315 . S
O165 Cd155 2.240 . S
O165 C163 1.279 . S
O166 Cd156 2.297 . S
O166 C161 1.247 . S
O167 Cd156 2.439 . S
O167 C161 1.208 . S
O168 Cd169 2.223 . S
O168 C176 1.315 . S
Cd169 O168 2.223 . S
Cd169 O172 2.297 . S
Cd169 O173 2.439 1_455 S
Cd169 O179 2.240 1_455 S
Cd170 O171 2.240 . S
Cd170 O178 2.223 . S
Cd170 O180 2.297 . S
Cd170 O181 2.439 . S
O171 Cd170 2.240 . S
O171 C176 1.279 1_655 S
O172 Cd169 2.297 . S
O172 C174 1.247 . S
O173 Cd169 2.439 1_655 S
O173 C174 1.208 1_655 S
C174 O172 1.247 . S
C174 O173 1.208 1_455 S
C175 O180 1.247 . S
C175 O181 1.208 . S
C176 O168 1.315 . S
C176 O171 1.279 1_455 S
C177 O178 1.315 . S
C177 O179 1.279 . S
O178 Cd170 2.223 . S
O178 C177 1.315 . S
O179 Cd169 2.240 1_655 S
O179 C177 1.279 . S
O180 Cd170 2.297 . S
O180 C175 1.247 . S
O181 Cd170 2.439 . S
O181 C175 1.208 . S
O182 Cd183 2.223 . S
O182 C190 1.315 . S
Cd183 O182 2.223 . S
Cd183 O186 2.297 . S
Cd183 O187 2.439 1_545 S
Cd183 O193 2.240 1_545 S
Cd184 O185 2.240 . S
Cd184 O192 2.223 . S
Cd184 O194 2.297 . S
Cd184 O195 2.439 . S
O185 Cd184 2.240 . S
O185 C190 1.279 1_565 S
O186 Cd183 2.297 . S
O186 C188 1.247 . S
O187 Cd183 2.439 1_565 S
O187 C188 1.208 1_565 S
C188 O186 1.247 . S
C188 O187 1.208 1_545 S
C189 O194 1.247 . S
C189 O195 1.208 . S
C190 O182 1.315 . S
C190 O185 1.279 1_545 S
C191 O192 1.315 . S
C191 O193 1.279 . S
O192 Cd184 2.223 . S
O192 C191 1.315 . S
O193 Cd183 2.240 1_565 S
O193 C191 1.279 . S
O194 Cd184 2.297 . S
O194 C189 1.247 . S
O195 Cd184 2.439 . S
O195 C189 1.208 . S
O196 Cd197 2.223 . S
O196 C204 1.315 . S
Cd197 O196 2.223 . S
Cd197 O200 2.297 . S
Cd197 O201 2.439 . S
Cd197 O207 2.240 . S
Cd198 O199 2.240 . S
Cd198 O206 2.223 . S
Cd198 O208 2.297 . S
Cd198 O209 2.439 . S
O199 Cd198 2.240 . S
O199 C204 1.279 . S
O200 Cd197 2.297 . S
O200 C202 1.247 . S
O201 Cd197 2.439 . S
O201 C202 1.208 . S
C202 O200 1.247 . S
C202 O201 1.208 . S
C203 O208 1.247 . S
C203 O209 1.208 . S
C204 O196 1.315 . S
C204 O199 1.279 . S
C205 O206 1.315 . S
C205 O207 1.279 . S
O206 Cd198 2.223 . S
O206 C205 1.315 . S
O207 Cd197 2.240 . S
O207 C205 1.279 . S
O208 Cd198 2.297 . S
O208 C203 1.247 . S
O209 Cd198 2.439 . S
O209 C203 1.208 . S
O210 Cd211 2.223 . S
O210 C218 1.315 . S
Cd211 O210 2.223 . S
Cd211 O214 2.297 . S
Cd211 O215 2.439 . S
Cd211 O221 2.240 . S
Cd212 O213 2.240 . S
Cd212 O220 2.223 . S
Cd212 O222 2.297 . S
Cd212 O223 2.439 . S
O213 Cd212 2.240 . S
O213 C218 1.279 . S
O214 Cd211 2.297 . S
O214 C216 1.247 . S
O215 Cd211 2.439 . S
O215 C216 1.208 . S
C216 O214 1.247 . S
C216 O215 1.208 . S
C217 O222 1.247 . S
C217 O223 1.208 . S
C218 O210 1.315 . S
C218 O213 1.279 . S
C219 O220 1.315 . S
C219 O221 1.279 . S
O220 Cd212 2.223 . S
O220 C219 1.315 . S
O221 Cd211 2.240 . S
O221 C219 1.279 . S
O222 Cd212 2.297 . S
O222 C217 1.247 . S
O223 Cd212 2.439 . S
O223 C217 1.208 . S
C224 C225 1.369 . S
C224 C226 1.419 . S
C224 H228 0.930 . S
C225 C224 1.369 . S
C225 C234 1.429 . S
C226 C224 1.419 . S
C226 C227 1.363 . S
C226 H229 0.929 . S
C227 C226 1.363 . S
C227 C233 1.428 . S
H228 C224 0.930 . S
H229 C226 0.929 . S
S230 N231 1.613 . S
S230 N232 1.610 . S
N231 S230 1.613 . S
N231 C234 1.350 . S
N232 S230 1.610 . S
N232 C233 1.351 . S
C233 C227 1.428 . S
C233 N232 1.351 . S
C233 C234 1.434 . S
C234 C225 1.429 . S
C234 N231 1.350 . S
C234 C233 1.434 . S
C235 C236 1.369 . S
C235 C237 1.419 . S
C235 H239 0.930 . S
C236 C235 1.369 . S
C236 C245 1.429 . S
C237 C235 1.419 . S
C237 C238 1.363 . S
C237 H240 0.929 . S
C238 C237 1.363 . S
C238 C244 1.428 . S
H239 C235 0.930 . S
H240 C237 0.929 . S
S241 N242 1.613 . S
S241 N243 1.610 . S
N242 S241 1.613 . S
N242 C245 1.350 . S
N243 S241 1.610 . S
N243 C244 1.351 . S
C244 C238 1.428 . S
C244 N243 1.351 . S
C244 C245 1.434 . S
C245 C236 1.429 . S
C245 N242 1.350 . S
C245 C244 1.434 . S
C246 C247 1.369 . S
C246 C248 1.419 . S
C246 H250 0.930 . S
C247 C246 1.369 . S
C247 C256 1.429 . S
C248 C246 1.419 . S
C248 C249 1.363 . S
C248 H251 0.929 . S
C249 C248 1.363 . S
C249 C255 1.428 . S
H250 C246 0.930 . S
H251 C248 0.929 . S
S252 N253 1.613 . S
S252 N254 1.610 . S
N253 S252 1.613 . S
N253 C256 1.350 . S
N254 S252 1.610 . S
N254 C255 1.351 . S
C255 C249 1.428 . S
C255 N254 1.351 . S
C255 C256 1.434 . S
C256 C247 1.429 . S
C256 N253 1.350 . S
C256 C255 1.434 . S
C257 C258 1.369 . S
C257 C259 1.419 . S
C257 H261 0.930 . S
C258 C257 1.369 . S
C258 C267 1.429 . S
C259 C257 1.419 . S
C259 C260 1.363 . S
C259 H262 0.929 . S
C260 C259 1.363 . S
C260 C266 1.428 . S
H261 C257 0.930 . S
H262 C259 0.929 . S
S263 N264 1.613 . S
S263 N265 1.610 . S
N264 S263 1.613 . S
N264 C267 1.350 . S
N265 S263 1.610 . S
N265 C266 1.351 . S
C266 C260 1.428 . S
C266 N265 1.351 . S
C266 C267 1.434 . S
C267 C258 1.429 . S
C267 N264 1.350 . S
C267 C266 1.434 . S
C268 C269 1.369 . S
C268 C270 1.419 . S
C268 H272 0.930 . S
C269 C268 1.369 . S
C269 C278 1.429 . S
C270 C268 1.419 . S
C270 C271 1.363 . S
C270 H273 0.929 . S
C271 C270 1.363 . S
C271 C277 1.428 . S
H272 C268 0.930 . S
H273 C270 0.929 . S
S274 N275 1.613 . S
S274 N276 1.610 . S
N275 S274 1.613 . S
N275 C278 1.350 . S
N276 S274 1.610 . S
N276 C277 1.351 . S
C277 C271 1.428 . S
C277 N276 1.351 . S
C277 C278 1.434 . S
C278 C269 1.429 . S
C278 N275 1.350 . S
C278 C277 1.434 . S
C279 C280 1.369 . S
C279 C281 1.419 . S
C279 H283 0.930 . S
C280 C279 1.369 . S
C280 C289 1.429 . S
C281 C279 1.419 . S
C281 C282 1.363 . S
C281 H284 0.929 . S
C282 C281 1.363 . S
C282 C288 1.428 . S
H283 C279 0.930 . S
H284 C281 0.929 . S
S285 N286 1.613 . S
S285 N287 1.610 . S
N286 S285 1.613 . S
N286 C289 1.350 . S
N287 S285 1.610 . S
N287 C288 1.351 . S
C288 C282 1.428 . S
C288 N287 1.351 . S
C288 C289 1.434 . S
C289 C280 1.429 . S
C289 N286 1.350 . S
C289 C288 1.434 . S
C290 C291 1.369 . S
C290 C292 1.419 . S
C290 H294 0.930 . S
C291 C290 1.369 . S
C291 C300 1.429 . S
C292 C290 1.419 . S
C292 C293 1.363 . S
C292 H295 0.929 . S
C293 C292 1.363 . S
C293 C299 1.428 . S
H294 C290 0.930 . S
H295 C292 0.929 . S
S296 N297 1.613 . S
S296 N298 1.610 . S
N297 S296 1.613 . S
N297 C300 1.350 . S
N298 S296 1.610 . S
N298 C299 1.351 . S
C299 C293 1.428 . S
C299 N298 1.351 . S
C299 C300 1.434 . S
C300 C291 1.429 . S
C300 N297 1.350 . S
C300 C299 1.434 . S
C301 C302 1.369 . S
C301 C303 1.419 . S
C301 H305 0.930 . S
C302 C301 1.369 . S
C302 C311 1.429 . S
C303 C301 1.419 . S
C303 C304 1.363 . S
C303 H306 0.929 . S
C304 C303 1.363 . S
C304 C310 1.428 . S
H305 C301 0.930 . S
H306 C303 0.929 . S
S307 N308 1.613 . S
S307 N309 1.610 . S
N308 S307 1.613 . S
N308 C311 1.350 . S
N309 S307 1.610 . S
N309 C310 1.351 . S
C310 C304 1.428 . S
C310 N309 1.351 . S
C310 C311 1.434 . S
C311 C302 1.429 . S
C311 N308 1.350 . S
C311 C310 1.434 . S
C312 C313 1.369 . S
C312 C314 1.419 . S
C312 H316 0.930 . S
C313 C312 1.369 . S
C313 C322 1.429 . S
C314 C312 1.419 . S
C314 C315 1.363 . S
C314 H317 0.936 . S
C315 C314 1.363 . S
C315 C321 1.428 . S
H316 C312 0.930 . S
H317 C314 0.936 . S
S318 N319 1.613 . S
S318 N320 1.610 . S
N319 S318 1.613 . S
N319 C322 1.350 . S
N320 S318 1.610 . S
N320 C321 1.351 . S
C321 C315 1.428 . S
C321 N320 1.351 . S
C321 C322 1.434 . S
C322 C313 1.429 . S
C322 N319 1.350 . S
C322 C321 1.434 . S
C323 C324 1.369 . S
C323 C325 1.419 . S
C323 H327 0.930 1_565 S
C324 C323 1.369 . S
C324 C333 1.429 . S
C325 C323 1.419 . S
C325 C326 1.363 . S
C325 H328 0.929 1_655 S
C326 C325 1.363 . S
C326 C332 1.428 . S
H327 C323 0.930 1_545 S
H328 C325 0.929 1_455 S
S329 N330 1.613 . S
S329 N331 1.610 . S
N330 S329 1.613 . S
N330 C333 1.350 . S
N331 S329 1.610 . S
N331 C332 1.351 . S
C332 C326 1.428 . S
C332 N331 1.351 . S
C332 C333 1.434 . S
C333 C324 1.429 . S
C333 N330 1.350 . S
C333 C332 1.434 . S
C334 C335 1.369 . S
C334 C336 1.419 . S
C334 H338 0.930 . S
C335 C334 1.369 . S
C335 C344 1.429 . S
C336 C334 1.419 . S
C336 C337 1.363 . S
C336 H339 0.929 . S
C337 C336 1.363 . S
C337 C343 1.428 . S
H338 C334 0.930 . S
H339 C336 0.929 . S
S340 N341 1.613 . S
S340 N342 1.610 1_545 S
N341 S340 1.613 . S
N341 C344 1.350 1_545 S
N342 S340 1.610 1_565 S
N342 C343 1.351 . S
C343 C337 1.428 . S
C343 N342 1.351 . S
C343 C344 1.434 . S
C344 C335 1.429 . S
C344 N341 1.350 1_565 S
C344 C343 1.434 . S
C345 C346 1.369 . S
C345 C347 1.419 . S
C345 H349 0.930 . S
C346 C345 1.369 . S
C346 C355 1.429 . S
C347 C345 1.419 . S
C347 C348 1.363 . S
C347 H350 0.929 . S
C348 C347 1.363 . S
C348 C354 1.428 . S
H349 C345 0.930 . S
H350 C347 0.929 . S
S351 N352 1.613 . S
S351 N353 1.610 . S
N352 S351 1.613 . S
N352 C355 1.350 . S
N353 S351 1.610 . S
N353 C354 1.351 . S
C354 C348 1.428 . S
C354 N353 1.351 . S
C354 C355 1.434 . S
C355 C346 1.429 . S
C355 N352 1.350 . S
C355 C354 1.434 . S
C356 C357 1.369 . S
C356 C358 1.419 . S
C356 H360 0.930 . S
C357 C356 1.369 . S
C357 C366 1.429 . S
C358 C356 1.419 . S
C358 C359 1.363 . S
C358 H361 0.929 . S
C359 C358 1.363 . S
C359 C365 1.428 . S
H360 C356 0.930 . S
H361 C358 0.929 . S
S362 N363 1.613 . S
S362 N364 1.610 . S
N363 S362 1.613 . S
N363 C366 1.350 . S
N364 S362 1.610 . S
N364 C365 1.351 . S
C365 C359 1.428 . S
C365 N364 1.351 . S
C365 C366 1.434 . S
C366 C357 1.429 . S
C366 N363 1.350 . S
C366 C365 1.434 . S
C367 C368 1.369 . S
C367 C369 1.419 . S
C367 H371 0.930 1_545 S
C368 C367 1.369 . S
C368 C377 1.429 . S
C369 C367 1.419 . S
C369 C370 1.363 . S
C369 H372 0.929 . S
C370 C369 1.363 . S
C370 C376 1.428 . S
H371 C367 0.930 1_565 S
H372 C369 0.929 . S
S373 N374 1.613 . S
S373 N375 1.610 . S
N374 S373 1.613 . S
N374 C377 1.350 . S
N375 S373 1.610 . S
N375 C376 1.351 . S
C376 C370 1.428 . S
C376 N375 1.351 . S
C376 C377 1.434 . S
C377 C368 1.429 . S
C377 N374 1.350 . S
C377 C376 1.434 . S
C378 C379 1.369 . S
C378 C380 1.419 . S
C378 H382 0.930 . S
C379 C378 1.369 . S
C379 C388 1.429 . S
C380 C378 1.419 . S
C380 C381 1.363 . S
C380 H383 0.929 . S
C381 C380 1.363 . S
C381 C387 1.428 . S
H382 C378 0.930 . S
H383 C380 0.929 . S
S384 N385 1.613 . S
S384 N386 1.610 . S
N385 S384 1.613 . S
N385 C388 1.350 . S
N386 S384 1.610 . S
N386 C387 1.351 . S
C387 C381 1.428 . S
C387 N386 1.351 . S
C387 C388 1.434 . S
C388 C379 1.429 . S
C388 N385 1.350 . S
C388 C387 1.434 . S
C389 C390 1.369 . S
C389 C391 1.419 . S
C389 H393 0.930 . S
C390 C389 1.369 . S
C390 C399 1.429 . S
C391 C389 1.419 . S
C391 C392 1.363 . S
C391 H394 0.929 . S
C392 C391 1.363 . S
C392 C398 1.428 . S
H393 C389 0.930 . S
H394 C391 0.929 . S
S395 N396 1.613 . S
S395 N397 1.610 . S
N396 S395 1.613 . S
N396 C399 1.350 . S
N397 S395 1.610 . S
N397 C398 1.351 . S
C398 C392 1.428 . S
C398 N397 1.351 . S
C398 C399 1.434 . S
C399 C390 1.429 . S
C399 N396 1.350 . S
C399 C398 1.434 . S
C400 C401 1.369 1_655 S
C400 C402 1.419 . S
C400 H404 0.930 . S
C401 C400 1.369 1_455 S
C401 C410 1.429 . S
C402 C400 1.419 . S
C402 C403 1.363 1_655 S
C402 H405 0.929 . S
C403 C402 1.363 1_455 S
C403 C409 1.428 . S
H404 C400 0.930 . S
H405 C402 0.929 . S
S406 N407 1.613 . S
S406 N408 1.610 . S
N407 S406 1.613 . S
N407 C410 1.350 . S
N408 S406 1.610 . S
N408 C409 1.351 . S
C409 C403 1.428 . S
C409 N408 1.351 . S
C409 C410 1.434 . S
C410 C401 1.429 . S
C410 N407 1.350 . S
C410 C409 1.434 . S
C411 C412 1.369 1_565 S
C411 C413 1.419 . S
C411 H415 0.930 . S
C412 C411 1.369 1_545 S
C412 C421 1.429 . S
C413 C411 1.419 . S
C413 C414 1.363 1_565 S
C413 H416 0.929 . S
C414 C413 1.363 1_545 S
C414 C420 1.428 . S
H415 C411 0.930 . S
H416 C413 0.929 . S
S417 N418 1.613 . S
S417 N419 1.610 . S
N418 S417 1.613 . S
N418 C421 1.350 . S
N419 S417 1.610 . S
N419 C420 1.351 . S
C420 C414 1.428 . S
C420 N419 1.351 . S
C420 C421 1.434 . S
C421 C412 1.429 . S
C421 N418 1.350 . S
C421 C420 1.434 . S
C422 C423 1.369 . S
C422 C424 1.419 . S
C422 H426 0.930 . S
C423 C422 1.369 . S
C423 C432 1.429 . S
C424 C422 1.419 . S
C424 C425 1.363 . S
C424 H427 0.929 . S
C425 C424 1.363 . S
C425 C431 1.428 . S
H426 C422 0.930 . S
H427 C424 0.929 . S
S428 N429 1.613 . S
S428 N430 1.610 . S
N429 S428 1.613 . S
N429 C432 1.350 . S
N430 S428 1.610 . S
N430 C431 1.351 . S
C431 C425 1.428 . S
C431 N430 1.351 . S
C431 C432 1.434 . S
C432 C423 1.429 . S
C432 N429 1.350 . S
C432 C431 1.434 . S
C433 C434 1.369 . S
C433 C435 1.419 . S
C433 H437 0.930 . S
C434 C433 1.369 . S
C434 C443 1.429 . S
C435 C433 1.419 . S
C435 C436 1.363 . S
C435 H438 0.929 . S
C436 C435 1.363 . S
C436 C442 1.428 . S
H437 C433 0.930 . S
H438 C435 0.929 . S
S439 N440 1.613 . S
S439 N441 1.610 . S
N440 S439 1.613 . S
N440 C443 1.350 . S
N441 S439 1.610 . S
N441 C442 1.351 . S
C442 C436 1.428 . S
C442 N441 1.351 . S
C442 C443 1.434 . S
C443 C434 1.429 . S
C443 N440 1.350 . S
C443 C442 1.434 . S
C444 C445 1.369 1_455 S
C444 C446 1.419 . S
C444 H448 0.930 . S
C445 C444 1.369 1_655 S
C445 C454 1.429 . S
C446 C444 1.419 . S
C446 C447 1.363 1_455 S
C446 H449 0.929 . S
C447 C446 1.363 1_655 S
C447 C453 1.428 . S
H448 C444 0.930 . S
H449 C446 0.929 . S
S450 N451 1.613 . S
S450 N452 1.610 . S
N451 S450 1.613 . S
N451 C454 1.350 . S
N452 S450 1.610 . S
N452 C453 1.351 . S
C453 C447 1.428 . S
C453 N452 1.351 . S
C453 C454 1.434 . S
C454 C445 1.429 . S
C454 N451 1.350 . S
C454 C453 1.434 . S
C455 C456 1.369 1_545 S
C455 C457 1.419 . S
C455 H459 0.930 . S
C456 C455 1.369 1_565 S
C456 C465 1.429 . S
C457 C455 1.419 . S
C457 C458 1.363 1_545 S
C457 H460 0.929 . S
C458 C457 1.363 1_565 S
C458 C464 1.428 . S
H459 C455 0.930 . S
H460 C457 0.929 . S
S461 N462 1.613 . S
S461 N463 1.610 . S
N462 S461 1.613 . S
N462 C465 1.350 . S
N463 S461 1.610 . S
N463 C464 1.351 . S
C464 C458 1.428 . S
C464 N463 1.351 . S
C464 C465 1.434 . S
C465 C456 1.429 . S
C465 N462 1.350 . S
C465 C464 1.434 . S
C466 C467 1.369 . S
C466 C468 1.419 . S
C466 H470 0.930 . S
C467 C466 1.369 . S
C467 C476 1.429 . S
C468 C466 1.419 . S
C468 C469 1.363 . S
C468 H471 0.929 . S
C469 C468 1.363 . S
C469 C475 1.428 . S
H470 C466 0.930 . S
H471 C468 0.929 . S
S472 N473 1.613 . S
S472 N474 1.610 . S
N473 S472 1.613 . S
N473 C476 1.350 . S
N474 S472 1.610 . S
N474 C475 1.351 . S
C475 C469 1.428 . S
C475 N474 1.351 . S
C475 C476 1.434 . S
C476 C467 1.429 . S
C476 N473 1.350 . S
C476 C475 1.434 . S
C477 C478 1.369 . S
C477 C479 1.419 . S
C477 H481 0.930 . S
C478 C477 1.369 . S
C478 C487 1.429 . S
C479 C477 1.419 . S
C479 C480 1.363 . S
C479 H482 0.929 . S
C480 C479 1.363 . S
C480 C486 1.428 . S
H481 C477 0.930 . S
H482 C479 0.929 . S
S483 N484 1.613 . S
S483 N485 1.610 . S
N484 S483 1.613 . S
N484 C487 1.350 . S
N485 S483 1.610 . S
N485 C486 1.351 . S
C486 C480 1.428 . S
C486 N485 1.351 . S
C486 C487 1.434 . S
C487 C478 1.429 . S
C487 N484 1.350 . S
C487 C486 1.434 . S
C488 C489 1.369 1_455 S
C488 C490 1.419 . S
C488 H492 0.930 . S
C489 C488 1.369 1_655 S
C489 C498 1.429 1_554 S
C490 C488 1.419 . S
C490 C491 1.363 1_554 S
C490 H493 0.929 . S
C491 C490 1.363 1_556 S
C491 C497 1.428 1_455 S
H492 C488 0.930 . S
H493 C490 0.929 . S
S494 N495 1.613 . S
S494 N496 1.610 . S
N495 S494 1.613 . S
N495 C498 1.350 . S
N496 S494 1.610 . S
N496 C497 1.351 . S
C497 C491 1.428 1_655 S
C497 N496 1.351 . S
C497 C498 1.434 . S
C498 C489 1.429 1_556 S
C498 N495 1.350 . S
C498 C497 1.434 . S
C499 C500 1.369 1_565 S
C499 C501 1.419 1_455 S
C499 H503 0.930 . S
C500 C499 1.369 1_545 S
C500 C509 1.429 1_556 S
C501 C499 1.419 1_655 S
C501 C502 1.363 1_556 S
C501 H504 0.929 . S
C502 C501 1.363 1_554 S
C502 C508 1.428 1_565 S
H503 C499 0.930 . S
H504 C501 0.929 . S
S505 N506 1.613 . S
S505 N507 1.610 1_455 S
N506 S505 1.613 . S
N506 C509 1.350 . S
N507 S505 1.610 1_655 S
N507 C508 1.351 . S
C508 C502 1.428 1_545 S
C508 N507 1.351 . S
C508 C509 1.434 1_655 S
C509 C500 1.429 1_554 S
C509 N506 1.350 . S
C509 C508 1.434 1_455 S
C510 C511 1.369 1_556 S
C510 C512 1.419 1_565 S
C510 H514 0.930 . S
C511 C510 1.369 1_554 S
C511 C520 1.429 . S
C512 C510 1.419 1_545 S
C512 C513 1.363 . S
C512 H515 0.929 . S
C513 C512 1.363 . S
C513 C519 1.428 1_556 S
H514 C510 0.930 . S
H515 C512 0.929 . S
S516 N517 1.613 1_545 S
S516 N518 1.610 . S
N517 S516 1.613 1_565 S
N517 C520 1.350 . S
N518 S516 1.610 . S
N518 C519 1.351 . S
C519 C513 1.428 1_554 S
C519 N518 1.351 . S
C519 C520 1.434 1_545 S
C520 C511 1.429 . S
C520 N517 1.350 . S
C520 C519 1.434 1_565 S
C521 C522 1.369 . S
C521 C523 1.419 . S
C521 H525 0.930 . S
C522 C521 1.369 . S
C522 C531 1.429 1_556 S
C523 C521 1.419 . S
C523 C524 1.363 1_556 S
C523 H526 0.929 . S
C524 C523 1.363 1_554 S
C524 C530 1.428 . S
H525 C521 0.930 . S
H526 C523 0.929 . S
S527 N528 1.613 . S
S527 N529 1.610 . S
N528 S527 1.613 . S
N528 C531 1.350 . S
N529 S527 1.610 . S
N529 C530 1.351 . S
C530 C524 1.428 . S
C530 N529 1.351 . S
C530 C531 1.434 . S
C531 C522 1.429 1_554 S
C531 N528 1.350 . S
C531 C530 1.434 . S
C532 C533 1.369 1_455 S
C532 C534 1.419 1_565 S
C532 H536 0.930 . S
C533 C532 1.369 1_655 S
C533 C542 1.429 . S
C534 C532 1.419 1_545 S
C534 C535 1.363 . S
C534 H537 0.929 . S
C535 C534 1.363 . S
C535 C541 1.428 1_455 S
H536 C532 0.930 . S
H537 C534 0.929 . S
S538 N539 1.613 1_545 S
S538 N540 1.610 . S
N539 S538 1.613 1_565 S
N539 C542 1.350 . S
N540 S538 1.610 . S
N540 C541 1.351 . S
C541 C535 1.428 1_655 S
C541 N540 1.351 . S
C541 C542 1.434 1_545 S
C542 C533 1.429 . S
C542 N539 1.350 . S
C542 C541 1.434 1_565 S
C543 C544 1.369 . S
C543 C545 1.419 . S
C543 H547 0.930 . S
C544 C543 1.369 . S
C544 C553 1.429 1_565 S
C545 C543 1.419 . S
C545 C546 1.363 1_565 S
C545 H548 0.929 . S
C546 C545 1.363 1_545 S
C546 C552 1.428 . S
H547 C543 0.930 . S
H548 C545 0.929 . S
S549 N550 1.613 . S
S549 N551 1.610 . S
N550 S549 1.613 . S
N550 C553 1.350 . S
N551 S549 1.610 . S
N551 C552 1.351 . S
C552 C546 1.428 . S
C552 N551 1.351 . S
C552 C553 1.434 . S
C553 C544 1.429 1_545 S
C553 N550 1.350 . S
C553 C552 1.434 . S
C554 C555 1.369 . S
C554 C556 1.419 . S
C554 H558 0.930 . S
C555 C554 1.369 . S
C555 C564 1.429 . S
C556 C554 1.419 . S
C556 C557 1.363 . S
C556 H559 0.929 . S
C557 C556 1.363 . S
C557 C563 1.428 . S
H558 C554 0.930 . S
H559 C556 0.929 . S
S560 N561 1.613 . S
S560 N562 1.610 . S
N561 S560 1.613 . S
N561 C564 1.350 . S
N562 S560 1.610 . S
N562 C563 1.351 . S
C563 C557 1.428 . S
C563 N562 1.351 . S
C563 C564 1.434 . S
C564 C555 1.429 . S
C564 N561 1.350 . S
C564 C563 1.434 . S
C565 C566 1.369 . S
C565 C567 1.419 1_655 S
C565 H569 0.930 . S
C566 C565 1.369 . S
C566 C575 1.429 . S
C567 C565 1.419 1_455 S
C567 C568 1.363 . S
C567 H570 0.929 . S
C568 C567 1.363 . S
C568 C574 1.428 . S
H569 C565 0.930 . S
H570 C567 0.929 . S
S571 N572 1.613 . S
S571 N573 1.610 1_655 S
N572 S571 1.613 . S
N572 C575 1.350 . S
N573 S571 1.610 1_455 S
N573 C574 1.351 . S
C574 C568 1.428 . S
C574 N573 1.351 . S
C574 C575 1.434 1_455 S
C575 C566 1.429 . S
C575 N572 1.350 . S
C575 C574 1.434 1_655 S
C225 C7 1.536 . S
C227 C35 1.537 . S
C236 C21 1.535 . S
C238 C49 1.535 . S
C247 C63 1.542 . S
C249 C91 1.541 . S
C258 C105 1.540 . S
C260 C77 1.540 . S
C269 C119 1.540 . S
C271 C147 1.538 . S
C280 C161 1.540 . S
C282 C133 1.538 . S
C291 C203 1.535 . S
C293 C175 1.535 . S
C302 C217 1.538 . S
C304 C189 1.539 . S
C313 C106 1.605 . S
C315 C8 1.603 . S
C324 C22 1.602 . S
C326 C64 1.602 . S
C335 C78 1.605 . S
C337 C36 1.604 . S
C346 C50 1.601 . S
C348 C92 1.603 . S
C357 C218 1.604 . S
C359 C120 1.603 . S
C368 C134 1.602 . S
C370 C176 1.603 . S
C379 C148 1.605 . S
C381 C190 1.604 . S
C390 C204 1.603 . S
C392 C162 1.602 . S
C401 C9 1.129 . S
C403 C65 1.126 . S
C412 C23 1.126 . S
C414 C79 1.141 . S
C423 C93 1.122 . S
C425 C37 1.136 . S
C434 C51 1.132 . S
C436 C107 1.125 . S
C445 C177 1.143 . S
C447 C121 1.127 . S
C456 C191 1.140 . S
C458 C135 1.125 . S
C467 C149 1.126 . S
C469 C205 1.141 . S
C478 C163 1.144 . S
C480 C219 1.130 . S
C489 C6 1.904 . S
C491 C118 1.898 . S
C500 C132 1.904 . S
C502 C20 1.898 . S
C511 C34 1.899 . S
C513 C146 1.901 . S
C522 C160 1.904 . S
C524 C48 1.898 . S
C533 C62 1.900 . S
C535 C174 1.901 . S
C544 C76 1.904 . S
C546 C188 1.898 . S
C555 C202 1.898 . S
C557 C90 1.902 . S
C566 C104 1.900 . S
C568 C216 1.900 . S
