# Generated by pormake.
# Topology uox, (4)-cn, num edge types: 1
# Building blocks:
#     Node 0, Type 0, BuildingBlock: UXUYUI_clean_sbu_0, # of connection points: 4
#     Node 1, Type 0, BuildingBlock: UXUYUI_clean_sbu_0, # of connection points: 4
#     Node 2, Type 0, BuildingBlock: UXUYUI_clean_sbu_0, # of connection points: 4
#     Node 3, Type 0, BuildingBlock: UXUYUI_clean_sbu_0, # of connection points: 4
#     Node 4, Type 0, BuildingBlock: UXUYUI_clean_sbu_0, # of connection points: 4
#     Node 5, Type 0, BuildingBlock: UXUYUI_clean_sbu_0, # of connection points: 4
#     Node 6, Type 0, BuildingBlock: UXUYUI_clean_sbu_0, # of connection points: 4
#     Node 7, Type 0, BuildingBlock: UXUYUI_clean_sbu_0, # of connection points: 4
#     Node 8, Type 0, BuildingBlock: UXUYUI_clean_sbu_0, # of connection points: 4
#     Node 9, Type 0, BuildingBlock: UXUYUI_clean_sbu_0, # of connection points: 4
#     Node 10, Type 0, BuildingBlock: UXUYUI_clean_sbu_0, # of connection points: 4
#     Node 11, Type 0, BuildingBlock: UXUYUI_clean_sbu_0, # of connection points: 4
#     Node 12, Type 0, BuildingBlock: UXUYUI_clean_sbu_0, # of connection points: 4
#     Node 13, Type 0, BuildingBlock: UXUYUI_clean_sbu_0, # of connection points: 4
#     Node 14, Type 0, BuildingBlock: UXUYUI_clean_sbu_0, # of connection points: 4
#     Node 15, Type 0, BuildingBlock: UXUYUI_clean_sbu_0, # of connection points: 4
#     Node 16, Type 0, BuildingBlock: UXUYUI_clean_sbu_0, # of connection points: 4
#     Node 17, Type 0, BuildingBlock: UXUYUI_clean_sbu_0, # of connection points: 4
#     Node 18, Type 0, BuildingBlock: UXUYUI_clean_sbu_0, # of connection points: 4
#     Node 19, Type 0, BuildingBlock: UXUYUI_clean_sbu_0, # of connection points: 4
#     Node 20, Type 0, BuildingBlock: UXUYUI_clean_sbu_0, # of connection points: 4
#     Node 21, Type 0, BuildingBlock: UXUYUI_clean_sbu_0, # of connection points: 4
#     Node 22, Type 0, BuildingBlock: UXUYUI_clean_sbu_0, # of connection points: 4
#     Node 23, Type 0, BuildingBlock: UXUYUI_clean_sbu_0, # of connection points: 4
#     Node 24, Type 0, BuildingBlock: UXUYUI_clean_sbu_0, # of connection points: 4
#     Node 25, Type 0, BuildingBlock: UXUYUI_clean_sbu_0, # of connection points: 4
#     Node 26, Type 0, BuildingBlock: UXUYUI_clean_sbu_0, # of connection points: 4
#     Node 27, Type 0, BuildingBlock: UXUYUI_clean_sbu_0, # of connection points: 4
#     Node 28, Type 0, BuildingBlock: UXUYUI_clean_sbu_0, # of connection points: 4
#     Node 29, Type 0, BuildingBlock: UXUYUI_clean_sbu_0, # of connection points: 4
#     Node 30, Type 0, BuildingBlock: UXUYUI_clean_sbu_0, # of connection points: 4
#     Node 31, Type 0, BuildingBlock: UXUYUI_clean_sbu_0, # of connection points: 4
#     Edge 32, Type (0, 0), None
#     Edge 33, Type (0, 0), None
#     Edge 34, Type (0, 0), None
#     Edge 35, Type (0, 0), None
#     Edge 36, Type (0, 0), None
#     Edge 37, Type (0, 0), None
#     Edge 38, Type (0, 0), None
#     Edge 39, Type (0, 0), None
#     Edge 40, Type (0, 0), None
#     Edge 41, Type (0, 0), None
#     Edge 42, Type (0, 0), None
#     Edge 43, Type (0, 0), None
#     Edge 44, Type (0, 0), None
#     Edge 45, Type (0, 0), None
#     Edge 46, Type (0, 0), None
#     Edge 47, Type (0, 0), None
#     Edge 48, Type (0, 0), None
#     Edge 49, Type (0, 0), None
#     Edge 50, Type (0, 0), None
#     Edge 51, Type (0, 0), None
#     Edge 52, Type (0, 0), None
#     Edge 53, Type (0, 0), None
#     Edge 54, Type (0, 0), None
#     Edge 55, Type (0, 0), None
#     Edge 56, Type (0, 0), None
#     Edge 57, Type (0, 0), None
#     Edge 58, Type (0, 0), None
#     Edge 59, Type (0, 0), None
#     Edge 60, Type (0, 0), None
#     Edge 61, Type (0, 0), None
#     Edge 62, Type (0, 0), None
#     Edge 63, Type (0, 0), None
#     Edge 64, Type (0, 0), None
#     Edge 65, Type (0, 0), None
#     Edge 66, Type (0, 0), None
#     Edge 67, Type (0, 0), None
#     Edge 68, Type (0, 0), None
#     Edge 69, Type (0, 0), None
#     Edge 70, Type (0, 0), None
#     Edge 71, Type (0, 0), None
#     Edge 72, Type (0, 0), None
#     Edge 73, Type (0, 0), None
#     Edge 74, Type (0, 0), None
#     Edge 75, Type (0, 0), None
#     Edge 76, Type (0, 0), None
#     Edge 77, Type (0, 0), None
#     Edge 78, Type (0, 0), None
#     Edge 79, Type (0, 0), None
#     Edge 80, Type (0, 0), None
#     Edge 81, Type (0, 0), None
#     Edge 82, Type (0, 0), None
#     Edge 83, Type (0, 0), None
#     Edge 84, Type (0, 0), None
#     Edge 85, Type (0, 0), None
#     Edge 86, Type (0, 0), None
#     Edge 87, Type (0, 0), None
#     Edge 88, Type (0, 0), None
#     Edge 89, Type (0, 0), None
#     Edge 90, Type (0, 0), None
#     Edge 91, Type (0, 0), None
#     Edge 92, Type (0, 0), None
#     Edge 93, Type (0, 0), None
#     Edge 94, Type (0, 0), None
#     Edge 95, Type (0, 0), None
# Relax obj value: 0.188
# Max RMSD: 0.179
# Mean RMSD: 0.179
data_MOF--net-uox--node1-UXUYUI_clean_sbu_0--edge1-none
_symmetry_space_group_name_H-M    P1
_symmetry_Int_Tables_number       1
_symmetry_cell_setting            triclinic
loop_
_symmetry_equiv_pos_as_xyz
'x, y, z'
_cell_length_a     41.298473
_cell_length_b     41.298533
_cell_length_c     73.275706
_cell_angle_alpha  90.000004
_cell_angle_beta   89.999995
_cell_angle_gamma 89.999996
loop_
_atom_site_label
_atom_site_type_symbol
_atom_site_fract_x
_atom_site_fract_y
_atom_site_fract_z
_atom_type_partial_charge
Li0 Li 0.45237 0.05356 0.15215 0.0
Li1 Li 0.42244 0.03994 0.18047 0.0
Li2 Li 0.40743 0.01601 0.15117 0.0
Li3 Li 0.39762 0.07389 0.15702 0.0
C4 C 0.45516 0.97894 0.16334 0.0
N5 N 0.46495 0.91301 0.16027 0.0
C6 C 0.45116 0.95889 0.17854 0.0
C7 C 0.46445 0.96554 0.14663 0.0
C8 C 0.45616 0.92559 0.1767 0.0
C9 C 0.46917 0.93212 0.14534 0.0
C10 C 0.44928 0.09714 0.18684 0.0
C11 C 0.44234 0.12276 0.21615 0.0
N12 N 0.47504 0.12336 0.21834 0.0
C13 C 0.48282 0.09802 0.18936 0.0
C14 C 0.42885 0.10966 0.2003 0.0
C15 C 0.49537 0.11141 0.20538 0.0
C16 C 0.49562 0.10018 0.14017 0.0
N17 N 0.49245 0.06755 0.14169 0.0
C18 C 0.5441 0.05961 0.12758 0.0
C19 C 0.5159 0.04714 0.13557 0.0
C20 C 0.54812 0.09334 0.12596 0.0
C21 C 0.52326 0.11363 0.13231 0.0
H22 H 0.47643 0.11582 0.14499 0.0
H23 H 0.51273 0.02126 0.13688 0.0
C24 C 0.39702 0.01599 0.21314 0.0
N25 N 0.42433 0.02908 0.2059 0.0
C26 C 0.39675 0.00461 0.23108 0.0
C27 C 0.45276 0.02056 0.23398 0.0
C28 C 0.45206 0.03122 0.21584 0.0
C29 C 0.42484 0.00683 0.24187 0.0
H30 H 0.37556 0.01356 0.20482 0.0
H31 H 0.47382 0.04066 0.20963 0.0
C32 C 0.4293 0.06286 0.1191 0.0
N33 N 0.46065 0.08387 0.08798 0.0
C34 C 0.42939 0.09574 0.11458 0.0
C35 C 0.4449 0.04063 0.10773 0.0
C36 C 0.44543 0.10588 0.0988 0.0
C37 C 0.46069 0.05174 0.09208 0.0
C38 C 0.34736 0.04481 0.17094 0.0
C39 C 0.32507 0.03372 0.15803 0.0
C40 C 0.33724 0.06597 0.18469 0.0
C41 C 0.29295 0.0442 0.15902 0.0
C42 C 0.30492 0.07591 0.1852 0.0
N43 N 0.28364 0.06492 0.17246 0.0
C44 C 0.37858 0.9548 0.15325 0.0
C45 C 0.37814 0.97759 0.12358 0.0
C46 C 0.3591 0.92915 0.14749 0.0
N47 N 0.3875 0.97839 0.14133 0.0
C48 C 0.35818 0.95265 0.11729 0.0
C49 C 0.34782 0.92824 0.1294 0.0
H50 H 0.38544 0.95664 0.16744 0.0
H51 H 0.38469 0.99724 0.11455 0.0
C52 C 0.37625 0.13906 0.1586 0.0
N53 N 0.37046 0.10966 0.15096 0.0
C54 C 0.36047 0.16661 0.15203 0.0
C55 C 0.33236 0.133 0.13017 0.0
C56 C 0.34876 0.1061 0.13714 0.0
C57 C 0.33861 0.16394 0.13736 0.0
H58 H 0.39429 0.14138 0.16921 0.0
H59 H 0.34524 0.08254 0.13101 0.0
O60 O 0.45003 0.01154 0.16482 0.0
O61 O 0.43649 0.08401 0.1713 0.0
O62 O 0.41454 0.05255 0.13477 0.0
O63 O 0.37904 0.03538 0.17001 0.0
H64 H 0.44406 0.96888 0.19159 0.0
H65 H 0.46767 0.98073 0.13476 0.0
H66 H 0.45299 0.90975 0.18832 0.0
H67 H 0.47616 0.92138 0.13247 0.0
H68 H 0.42681 0.13242 0.22672 0.0
H69 H 0.499 0.0882 0.17916 0.0
H70 H 0.40284 0.10909 0.19857 0.0
H71 H 0.52127 0.11217 0.20754 0.0
H72 H 0.56276 0.04306 0.12302 0.0
H73 H 0.52496 0.1397 0.13108 0.0
H74 H 0.37485 0.9935 0.23623 0.0
H75 H 0.47496 0.02312 0.2417 0.0
H76 H 0.41764 0.11332 0.1233 0.0
H77 H 0.44502 0.0151 0.11103 0.0
H78 H 0.4459 0.13128 0.09519 0.0
H79 H 0.47303 0.03483 0.0832 0.0
H80 H 0.33252 0.01743 0.14726 0.0
H81 H 0.35422 0.07473 0.19479 0.0
H82 H 0.27545 0.03593 0.14907 0.0
H83 H 0.29677 0.09239 0.19571 0.0
H84 H 0.35216 0.91082 0.1573 0.0
H85 H 0.34962 0.95356 0.10334 0.0
H86 H 0.36662 0.18996 0.15779 0.0
H87 H 0.31558 0.12969 0.11897 0.0
Li88 Li 0.198 0.20234 0.40215 0.0
Li89 Li 0.21162 0.17241 0.43046 0.0
Li90 Li 0.23555 0.1574 0.40117 0.0
Li91 Li 0.17767 0.14759 0.40702 0.0
C92 C 0.27261 0.20513 0.41334 0.0
N93 N 0.33855 0.21493 0.41027 0.0
C94 C 0.29267 0.20114 0.42854 0.0
C95 C 0.28602 0.21443 0.39663 0.0
C96 C 0.32596 0.20614 0.4267 0.0
C97 C 0.31944 0.21916 0.39534 0.0
C98 C 0.15442 0.19927 0.43683 0.0
C99 C 0.12881 0.19234 0.46615 0.0
N100 N 0.1282 0.22505 0.46832 0.0
C101 C 0.15354 0.23281 0.43934 0.0
C102 C 0.1419 0.17884 0.4503 0.0
C103 C 0.14016 0.24537 0.45536 0.0
C104 C 0.15137 0.24557 0.39015 0.0
N105 N 0.18401 0.24241 0.39168 0.0
C106 C 0.19194 0.29407 0.37758 0.0
C107 C 0.20441 0.26587 0.38557 0.0
C108 C 0.1582 0.29807 0.37594 0.0
C109 C 0.13792 0.2732 0.38228 0.0
H110 H 0.13573 0.22637 0.39496 0.0
H111 H 0.23029 0.26271 0.38688 0.0
C112 C 0.23557 0.147 0.46314 0.0
N113 N 0.22248 0.17432 0.4559 0.0
C114 C 0.24695 0.14674 0.48108 0.0
C115 C 0.23099 0.20274 0.48398 0.0
C116 C 0.22034 0.20205 0.46584 0.0
C117 C 0.24473 0.17483 0.49187 0.0
H118 H 0.238 0.12555 0.45482 0.0
H119 H 0.21089 0.2238 0.45963 0.0
C120 C 0.18871 0.17925 0.3691 0.0
N121 N 0.16771 0.21058 0.33797 0.0
C122 C 0.15583 0.17933 0.36457 0.0
C123 C 0.21094 0.19486 0.35773 0.0
C124 C 0.14569 0.19536 0.34878 0.0
C125 C 0.19983 0.21064 0.34207 0.0
C126 C 0.20675 0.09733 0.42095 0.0
C127 C 0.21785 0.07504 0.40803 0.0
C128 C 0.18559 0.08722 0.43469 0.0
C129 C 0.20737 0.04292 0.40902 0.0
C130 C 0.17565 0.0549 0.4352 0.0
N131 N 0.18664 0.03361 0.42246 0.0
C132 C 0.29677 0.12856 0.40325 0.0
C133 C 0.27398 0.12811 0.37358 0.0
C134 C 0.32242 0.10908 0.39749 0.0
N135 N 0.27318 0.13747 0.39133 0.0
C136 C 0.29892 0.10816 0.36729 0.0
C137 C 0.32333 0.0978 0.3794 0.0
H138 H 0.29492 0.13542 0.41744 0.0
H139 H 0.25432 0.13466 0.36455 0.0
C140 C 0.1125 0.12622 0.40861 0.0
N141 N 0.1419 0.12042 0.40096 0.0
C142 C 0.08495 0.11044 0.40203 0.0
C143 C 0.11855 0.08233 0.38018 0.0
C144 C 0.14546 0.09873 0.38715 0.0
C145 C 0.08761 0.08858 0.38737 0.0
H146 H 0.11019 0.14426 0.41921 0.0
H147 H 0.16901 0.0952 0.38101 0.0
O148 O 0.24001 0.2 0.41481 0.0
O149 O 0.16755 0.18646 0.4213 0.0
O150 O 0.19901 0.1645 0.38476 0.0
O151 O 0.21618 0.12901 0.42001 0.0
H152 H 0.28268 0.19403 0.44158 0.0
H153 H 0.27083 0.21765 0.38475 0.0
H154 H 0.34181 0.20298 0.43832 0.0
H155 H 0.33018 0.22615 0.38247 0.0
H156 H 0.11914 0.17682 0.47672 0.0
H157 H 0.16336 0.24897 0.42914 0.0
H158 H 0.14247 0.15283 0.44858 0.0
H159 H 0.1394 0.27127 0.45752 0.0
H160 H 0.20849 0.31273 0.37302 0.0
H161 H 0.11185 0.27488 0.38104 0.0
H162 H 0.25806 0.12484 0.48623 0.0
H163 H 0.22843 0.22494 0.49169 0.0
H164 H 0.13825 0.16758 0.37328 0.0
H165 H 0.23647 0.19498 0.36103 0.0
H166 H 0.1203 0.19582 0.34517 0.0
H167 H 0.21674 0.22298 0.3332 0.0
H168 H 0.23414 0.08249 0.39726 0.0
H169 H 0.17683 0.1042 0.44479 0.0
H170 H 0.21564 0.02542 0.39908 0.0
H171 H 0.15917 0.04675 0.44572 0.0
H172 H 0.34075 0.10215 0.4073 0.0
H173 H 0.29801 0.0996 0.35334 0.0
H174 H 0.06161 0.1166 0.4078 0.0
H175 H 0.12186 0.06555 0.36898 0.0
Li176 Li 0.04921 0.948 0.65215 0.0
Li177 Li 0.07913 0.96162 0.68047 0.0
Li178 Li 0.09415 0.98556 0.65117 0.0
Li179 Li 0.10395 0.92768 0.65702 0.0
C180 C 0.04642 0.02262 0.66334 0.0
N181 N 0.03662 0.08856 0.66027 0.0
C182 C 0.05041 0.04267 0.67854 0.0
C183 C 0.03712 0.03603 0.64663 0.0
C184 C 0.04541 0.07597 0.6767 0.0
C185 C 0.03239 0.06944 0.64534 0.0
C186 C 0.05229 0.90443 0.68684 0.0
C187 C 0.05922 0.87881 0.71615 0.0
N188 N 0.02652 0.87821 0.71833 0.0
C189 C 0.01875 0.90354 0.68935 0.0
C190 C 0.07272 0.89191 0.7003 0.0
C191 C 0.00619 0.89016 0.70537 0.0
C192 C 0.00596 0.90137 0.64016 0.0
N193 N 0.00913 0.93401 0.64169 0.0
C194 C 0.95747 0.94195 0.62758 0.0
C195 C 0.98568 0.95442 0.63557 0.0
C196 C 0.95347 0.90821 0.62595 0.0
C197 C 0.97833 0.88792 0.6323 0.0
H198 H 0.02517 0.88574 0.64498 0.0
H199 H 0.98884 0.9803 0.63688 0.0
C200 C 0.10455 0.98557 0.71314 0.0
N201 N 0.07724 0.97248 0.7059 0.0
C202 C 0.10482 0.99695 0.73108 0.0
C203 C 0.04881 0.981 0.73398 0.0
C204 C 0.0495 0.97035 0.71584 0.0
C205 C 0.07673 0.99474 0.74187 0.0
H206 H 0.12601 0.988 0.70482 0.0
H207 H 0.02775 0.9609 0.70963 0.0
C208 C 0.07229 0.93871 0.6191 0.0
N209 N 0.04095 0.9177 0.58797 0.0
C210 C 0.0722 0.90583 0.61458 0.0
C211 C 0.05668 0.96094 0.60773 0.0
C212 C 0.05617 0.89568 0.59879 0.0
C213 C 0.0409 0.94982 0.59207 0.0
C214 C 0.15422 0.95675 0.67095 0.0
C215 C 0.17651 0.96785 0.65803 0.0
C216 C 0.16433 0.93559 0.68469 0.0
C217 C 0.20862 0.95737 0.65902 0.0
C218 C 0.19665 0.92565 0.6852 0.0
N219 N 0.21794 0.93664 0.67246 0.0
C220 C 0.12299 0.04677 0.65325 0.0
C221 C 0.12343 0.02397 0.62358 0.0
C222 C 0.14247 0.07241 0.64749 0.0
N223 N 0.11407 0.02317 0.64133 0.0
C224 C 0.14339 0.04892 0.61729 0.0
C225 C 0.15375 0.07333 0.6294 0.0
H226 H 0.11613 0.04493 0.66744 0.0
H227 H 0.11688 0.00432 0.61455 0.0
C228 C 0.12532 0.86251 0.65861 0.0
N229 N 0.13112 0.8919 0.65097 0.0
C230 C 0.14111 0.83495 0.65203 0.0
C231 C 0.16922 0.86856 0.63018 0.0
C232 C 0.15282 0.89546 0.63715 0.0
C233 C 0.16297 0.83762 0.63737 0.0
H234 H 0.10729 0.86019 0.66921 0.0
H235 H 0.15635 0.91902 0.63102 0.0
O236 O 0.05154 0.99002 0.66482 0.0
O237 O 0.06509 0.91755 0.6713 0.0
O238 O 0.08704 0.94901 0.63477 0.0
O239 O 0.12254 0.96618 0.67001 0.0
H240 H 0.05752 0.03269 0.69158 0.0
H241 H 0.0339 0.02083 0.63476 0.0
H242 H 0.04858 0.09181 0.68832 0.0
H243 H 0.0254 0.08018 0.63247 0.0
H244 H 0.07474 0.86914 0.72672 0.0
H245 H 0.00258 0.91336 0.67915 0.0
H246 H 0.09872 0.89247 0.69858 0.0
H247 H 0.98029 0.8894 0.70753 0.0
H248 H 0.93881 0.95849 0.62302 0.0
H249 H 0.97664 0.86185 0.63106 0.0
H250 H 0.12672 0.00807 0.73623 0.0
H251 H 0.02661 0.97844 0.7417 0.0
H252 H 0.08395 0.88825 0.62329 0.0
H253 H 0.05656 0.98646 0.61103 0.0
H254 H 0.0557 0.87029 0.59518 0.0
H255 H 0.02855 0.96673 0.5832 0.0
H256 H 0.16906 0.98414 0.64726 0.0
H257 H 0.14735 0.92684 0.69479 0.0
H258 H 0.22612 0.96564 0.64907 0.0
H259 H 0.2048 0.90918 0.69572 0.0
H260 H 0.1494 0.09075 0.6573 0.0
H261 H 0.15195 0.04801 0.60334 0.0
H262 H 0.13495 0.81161 0.6578 0.0
H263 H 0.186 0.87187 0.61898 0.0
Li264 Li 0.28994 0.82913 0.93047 0.0
Li265 Li 0.30356 0.7992 0.90216 0.0
Li266 Li 0.32388 0.85395 0.90702 0.0
Li267 Li 0.266 0.84415 0.90117 0.0
C268 C 0.34713 0.80229 0.93684 0.0
N269 N 0.37335 0.77652 0.96834 0.0
C270 C 0.34802 0.76875 0.93936 0.0
C271 C 0.35966 0.82272 0.95031 0.0
C272 C 0.3614 0.75619 0.95538 0.0
C273 C 0.37275 0.80922 0.96615 0.0
C274 C 0.22894 0.79641 0.91334 0.0
C275 C 0.18212 0.78239 0.89534 0.0
N276 N 0.163 0.78662 0.91027 0.0
C277 C 0.20889 0.80041 0.92854 0.0
C278 C 0.21553 0.78712 0.89663 0.0
C279 C 0.17559 0.79541 0.9267 0.0
C280 C 0.26599 0.85455 0.96314 0.0
N281 N 0.27908 0.82724 0.9559 0.0
C282 C 0.27056 0.79882 0.98399 0.0
C283 C 0.28121 0.79951 0.96585 0.0
C284 C 0.25682 0.82673 0.99187 0.0
C285 C 0.2546 0.85482 0.98108 0.0
H286 H 0.26355 0.87601 0.95482 0.0
H287 H 0.29066 0.77775 0.95964 0.0
C288 C 0.35019 0.75596 0.89017 0.0
N289 N 0.31755 0.75913 0.89169 0.0
C290 C 0.36363 0.72833 0.88231 0.0
C291 C 0.30961 0.70747 0.87758 0.0
C292 C 0.29714 0.73567 0.88557 0.0
C293 C 0.34335 0.70346 0.87595 0.0
H294 H 0.36582 0.77516 0.89498 0.0
H295 H 0.27126 0.73884 0.88688 0.0
C296 C 0.29481 0.90422 0.92095 0.0
N297 N 0.31492 0.96793 0.92246 0.0
C298 C 0.28371 0.9265 0.90803 0.0
C299 C 0.31597 0.91433 0.93469 0.0
C300 C 0.29419 0.95862 0.90902 0.0
C301 C 0.32591 0.94665 0.9352 0.0
C302 C 0.31285 0.82228 0.8691 0.0
C303 C 0.34574 0.82219 0.86458 0.0
C304 C 0.29062 0.80667 0.85773 0.0
C305 C 0.35588 0.80616 0.8488 0.0
C306 C 0.30174 0.79089 0.84208 0.0
N307 N 0.33386 0.79094 0.83798 0.0
C308 C 0.38906 0.87532 0.90861 0.0
C309 C 0.3561 0.90281 0.88715 0.0
C310 C 0.41661 0.89111 0.90203 0.0
N311 N 0.35966 0.88112 0.90097 0.0
C312 C 0.383 0.91921 0.88017 0.0
C313 C 0.41394 0.91296 0.88736 0.0
H314 H 0.39137 0.85729 0.91921 0.0
H315 H 0.33254 0.90634 0.88102 0.0
C316 C 0.20479 0.87298 0.90325 0.0
N317 N 0.22839 0.86407 0.89133 0.0
C318 C 0.17915 0.89247 0.89749 0.0
C319 C 0.20264 0.89339 0.86729 0.0
C320 C 0.22759 0.87343 0.87358 0.0
C321 C 0.17823 0.90375 0.8794 0.0
H322 H 0.20664 0.86613 0.91744 0.0
H323 H 0.24724 0.86688 0.86455 0.0
O324 O 0.33401 0.81508 0.9213 0.0
O325 O 0.26154 0.80154 0.91482 0.0
O326 O 0.28538 0.87253 0.92001 0.0
O327 O 0.30255 0.83703 0.88477 0.0
H328 H 0.33819 0.75257 0.92915 0.0
H329 H 0.35909 0.84873 0.94858 0.0
H330 H 0.36216 0.73029 0.95754 0.0
H331 H 0.38242 0.82475 0.97672 0.0
H332 H 0.17138 0.7754 0.88247 0.0
H333 H 0.21887 0.80752 0.94159 0.0
H334 H 0.23073 0.7839 0.88476 0.0
H335 H 0.15975 0.79857 0.93832 0.0
H336 H 0.27312 0.77662 0.9917 0.0
H337 H 0.24349 0.87672 0.98623 0.0
H338 H 0.38971 0.72663 0.88107 0.0
H339 H 0.29306 0.68881 0.87302 0.0
H340 H 0.26743 0.91905 0.89726 0.0
H341 H 0.32472 0.89735 0.94479 0.0
H342 H 0.28592 0.97612 0.89907 0.0
H343 H 0.34238 0.9548 0.94572 0.0
H344 H 0.36331 0.83394 0.87329 0.0
H345 H 0.2651 0.80656 0.86103 0.0
H346 H 0.38127 0.80569 0.84519 0.0
H347 H 0.28483 0.77855 0.8332 0.0
H348 H 0.43995 0.88495 0.90779 0.0
H349 H 0.37969 0.93599 0.86898 0.0
H350 H 0.16081 0.8994 0.9073 0.0
H351 H 0.20356 0.90194 0.85334 0.0
Li352 Li 0.40742 0.98555 0.35181 0.0
Li353 Li 0.39761 0.92767 0.34596 0.0
Li354 Li 0.45236 0.94799 0.35083 0.0
Li355 Li 0.42243 0.96161 0.32251 0.0
C356 C 0.42928 0.9387 0.38388 0.0
N357 N 0.46063 0.91769 0.415 0.0
C358 C 0.42938 0.90582 0.3884 0.0
C359 C 0.44489 0.96093 0.39525 0.0
C360 C 0.44541 0.89567 0.40419 0.0
C361 C 0.46067 0.94981 0.41091 0.0
C362 C 0.34735 0.95675 0.33203 0.0
C363 C 0.30492 0.92565 0.31778 0.0
N364 N 0.28363 0.93664 0.33052 0.0
C365 C 0.32506 0.96784 0.34495 0.0
C366 C 0.33724 0.93559 0.31829 0.0
C367 C 0.29294 0.95736 0.34396 0.0
C368 C 0.37858 0.04676 0.34973 0.0
N369 N 0.3875 0.02317 0.36165 0.0
C370 C 0.35818 0.04891 0.38569 0.0
C371 C 0.37813 0.02397 0.3794 0.0
C372 C 0.34782 0.07332 0.37358 0.0
C373 C 0.3591 0.07241 0.35549 0.0
H374 H 0.38544 0.04492 0.33554 0.0
H375 H 0.38468 0.00431 0.38843 0.0
C376 C 0.37624 0.8625 0.34438 0.0
N377 N 0.37044 0.89189 0.35202 0.0
C378 C 0.36046 0.83494 0.35095 0.0
C379 C 0.33235 0.86855 0.37281 0.0
C380 C 0.34875 0.89546 0.36583 0.0
C381 C 0.3386 0.83761 0.36562 0.0
H382 H 0.39428 0.86018 0.33377 0.0
H383 H 0.34522 0.91901 0.37197 0.0
C384 C 0.45515 0.02261 0.33964 0.0
N385 N 0.46495 0.08855 0.34271 0.0
C386 C 0.45116 0.04266 0.32444 0.0
C387 C 0.46444 0.03602 0.35635 0.0
C388 C 0.45616 0.07596 0.32628 0.0
C389 C 0.46917 0.06943 0.35764 0.0
C390 C 0.44928 0.90442 0.31614 0.0
C391 C 0.48282 0.90353 0.31363 0.0
C392 C 0.42884 0.8919 0.30268 0.0
C393 C 0.49537 0.89014 0.29761 0.0
C394 C 0.44234 0.8788 0.28683 0.0
N395 N 0.47504 0.87819 0.28465 0.0
C396 C 0.49561 0.90137 0.36281 0.0
C397 C 0.51589 0.95441 0.36741 0.0
C398 C 0.52324 0.88792 0.37068 0.0
N399 N 0.49244 0.93401 0.36129 0.0
C400 C 0.54409 0.94194 0.3754 0.0
C401 C 0.54811 0.90821 0.37703 0.0
H402 H 0.47641 0.88573 0.358 0.0
H403 H 0.51272 0.98029 0.3661 0.0
C404 C 0.39702 0.98557 0.28984 0.0
N405 N 0.42433 0.97247 0.29708 0.0
C406 C 0.39675 0.99695 0.2719 0.0
C407 C 0.45275 0.98099 0.269 0.0
C408 C 0.45206 0.97034 0.28714 0.0
C409 C 0.42484 0.99473 0.26111 0.0
H410 H 0.37556 0.98801 0.29816 0.0
H411 H 0.47382 0.96088 0.29335 0.0
O412 O 0.41453 0.94901 0.36821 0.0
O413 O 0.37903 0.96617 0.33297 0.0
O414 O 0.45002 0.99001 0.33816 0.0
O415 O 0.43648 0.91754 0.33168 0.0
H416 H 0.41763 0.88824 0.37969 0.0
H417 H 0.44501 0.98645 0.39195 0.0
H418 H 0.44588 0.87028 0.40779 0.0
H419 H 0.47302 0.96672 0.41978 0.0
H420 H 0.29676 0.90918 0.30726 0.0
H421 H 0.33251 0.98413 0.35572 0.0
H422 H 0.35422 0.92683 0.30819 0.0
H423 H 0.27545 0.96564 0.35391 0.0
H424 H 0.34962 0.048 0.39964 0.0
H425 H 0.35217 0.09074 0.34568 0.0
H426 H 0.36661 0.8116 0.34519 0.0
H427 H 0.31557 0.87187 0.384 0.0
H428 H 0.44406 0.03268 0.31139 0.0
H429 H 0.46766 0.02082 0.36822 0.0
H430 H 0.453 0.09181 0.31466 0.0
H431 H 0.47616 0.08018 0.37051 0.0
H432 H 0.49899 0.91335 0.32383 0.0
H433 H 0.40284 0.89246 0.30441 0.0
H434 H 0.52127 0.88938 0.29544 0.0
H435 H 0.42681 0.86913 0.27626 0.0
H436 H 0.52494 0.86185 0.37191 0.0
H437 H 0.56275 0.95849 0.37996 0.0
H438 H 0.37485 0.00807 0.26675 0.0
H439 H 0.47495 0.97842 0.26128 0.0
Li440 Li 0.26601 0.15741 0.60181 0.0
Li441 Li 0.32389 0.1476 0.59596 0.0
Li442 Li 0.30357 0.20235 0.60083 0.0
Li443 Li 0.28994 0.17242 0.57251 0.0
C444 C 0.31286 0.17927 0.63388 0.0
N445 N 0.33386 0.2106 0.66501 0.0
C446 C 0.34574 0.17935 0.6384 0.0
C447 C 0.29063 0.19487 0.64525 0.0
C448 C 0.35588 0.19538 0.65419 0.0
C449 C 0.30174 0.21066 0.6609 0.0
C450 C 0.29481 0.09734 0.58203 0.0
C451 C 0.32591 0.05491 0.56777 0.0
N452 N 0.31492 0.03362 0.58051 0.0
C453 C 0.28371 0.07505 0.59495 0.0
C454 C 0.31597 0.08723 0.56829 0.0
C455 C 0.29419 0.04293 0.59395 0.0
C456 C 0.20479 0.12857 0.59973 0.0
N457 N 0.22839 0.13749 0.61164 0.0
C458 C 0.20264 0.10817 0.63569 0.0
C459 C 0.22759 0.12812 0.6294 0.0
C460 C 0.17823 0.09781 0.62358 0.0
C461 C 0.17915 0.10909 0.60549 0.0
H462 H 0.20664 0.13543 0.58554 0.0
H463 H 0.24724 0.13467 0.63843 0.0
C464 C 0.38906 0.12623 0.59437 0.0
N465 N 0.35966 0.12043 0.60201 0.0
C466 C 0.41661 0.11045 0.60094 0.0
C467 C 0.38301 0.08234 0.6228 0.0
C468 C 0.3561 0.09874 0.61583 0.0
C469 C 0.41395 0.08859 0.61561 0.0
H470 H 0.39137 0.14427 0.58377 0.0
H471 H 0.33254 0.09521 0.62196 0.0
C472 C 0.22895 0.20514 0.58964 0.0
N473 N 0.16301 0.21494 0.59271 0.0
C474 C 0.20889 0.20115 0.57444 0.0
C475 C 0.21554 0.21444 0.60635 0.0
C476 C 0.1756 0.20615 0.57628 0.0
C477 C 0.18212 0.21917 0.60764 0.0
C478 C 0.34714 0.19927 0.56614 0.0
C479 C 0.34802 0.23281 0.56363 0.0
C480 C 0.35966 0.17884 0.55267 0.0
C481 C 0.36141 0.24537 0.54761 0.0
C482 C 0.37276 0.19234 0.53683 0.0
N483 N 0.37336 0.22504 0.53465 0.0
C484 C 0.35019 0.24559 0.61282 0.0
C485 C 0.29715 0.26588 0.61741 0.0
C486 C 0.36364 0.27322 0.62068 0.0
N487 N 0.31755 0.24242 0.61129 0.0
C488 C 0.30962 0.29408 0.6254 0.0
C489 C 0.34336 0.29809 0.62703 0.0
H490 H 0.36583 0.22639 0.60801 0.0
H491 H 0.27127 0.26272 0.6161 0.0
C492 C 0.26599 0.14701 0.53984 0.0
N493 N 0.27908 0.17432 0.54708 0.0
C494 C 0.2546 0.14674 0.5219 0.0
C495 C 0.27057 0.20274 0.51899 0.0
C496 C 0.28122 0.20205 0.53713 0.0
C497 C 0.25682 0.17483 0.51111 0.0
H498 H 0.26355 0.12555 0.54816 0.0
H499 H 0.29067 0.22381 0.54334 0.0
O500 O 0.30255 0.16452 0.61821 0.0
O501 O 0.28538 0.12902 0.58297 0.0
O502 O 0.26155 0.20001 0.58816 0.0
O503 O 0.33401 0.18647 0.58168 0.0
H504 H 0.36331 0.1676 0.62969 0.0
H505 H 0.2651 0.195 0.64195 0.0
H506 H 0.38128 0.19585 0.65779 0.0
H507 H 0.28483 0.223 0.66978 0.0
H508 H 0.34238 0.04676 0.55726 0.0
H509 H 0.26743 0.0825 0.60572 0.0
H510 H 0.32472 0.10421 0.55819 0.0
H511 H 0.28592 0.02543 0.6039 0.0
H512 H 0.20355 0.09961 0.64964 0.0
H513 H 0.16081 0.10216 0.59568 0.0
H514 H 0.43995 0.1166 0.59518 0.0
H515 H 0.37969 0.06555 0.634 0.0
H516 H 0.21888 0.19404 0.56139 0.0
H517 H 0.23074 0.21766 0.61822 0.0
H518 H 0.15975 0.20299 0.56466 0.0
H519 H 0.17138 0.22616 0.62051 0.0
H520 H 0.3382 0.24898 0.57383 0.0
H521 H 0.35909 0.15283 0.5544 0.0
H522 H 0.36217 0.27127 0.54545 0.0
H523 H 0.38242 0.17682 0.52626 0.0
H524 H 0.38972 0.27491 0.62192 0.0
H525 H 0.29307 0.31274 0.62996 0.0
H526 H 0.24348 0.12484 0.51675 0.0
H527 H 0.27313 0.22494 0.51128 0.0
Li528 Li 0.10397 0.07389 0.84596 0.0
Li529 Li 0.09416 0.01601 0.85181 0.0
Li530 Li 0.07914 0.03995 0.82251 0.0
Li531 Li 0.04922 0.05357 0.85083 0.0
C532 C 0.15423 0.04481 0.83203 0.0
N533 N 0.21795 0.06492 0.83051 0.0
C534 C 0.17652 0.03371 0.84495 0.0
C535 C 0.16434 0.06597 0.81829 0.0
C536 C 0.20863 0.04419 0.84395 0.0
C537 C 0.19666 0.07591 0.81777 0.0
C538 C 0.07231 0.06286 0.88388 0.0
C539 C 0.04092 0.05174 0.91091 0.0
N540 N 0.04097 0.08387 0.91501 0.0
C541 C 0.07222 0.09574 0.88841 0.0
C542 C 0.0567 0.04063 0.89525 0.0
C543 C 0.0562 0.10588 0.90419 0.0
C544 C 0.12534 0.13906 0.84437 0.0
N545 N 0.13114 0.10966 0.85201 0.0
C546 C 0.16923 0.13301 0.8728 0.0
C547 C 0.15283 0.10611 0.86583 0.0
C548 C 0.16298 0.16395 0.86561 0.0
C549 C 0.14112 0.16662 0.85094 0.0
H550 H 0.1073 0.14137 0.83377 0.0
H551 H 0.15636 0.08255 0.87196 0.0
C552 C 0.12299 0.9548 0.84973 0.0
N553 N 0.11408 0.97839 0.86165 0.0
C554 C 0.14247 0.92915 0.85549 0.0
C555 C 0.1434 0.95264 0.88569 0.0
C556 C 0.12344 0.97759 0.8794 0.0
C557 C 0.15375 0.92823 0.87358 0.0
H558 H 0.11613 0.95664 0.83554 0.0
H559 H 0.1169 0.99724 0.88843 0.0
C560 C 0.05229 0.09714 0.81614 0.0
N561 N 0.02651 0.12336 0.78465 0.0
C562 C 0.01875 0.09803 0.81363 0.0
C563 C 0.07272 0.10966 0.80268 0.0
C564 C 0.00619 0.11141 0.79762 0.0
C565 C 0.05922 0.12276 0.78683 0.0
C566 C 0.04642 0.97895 0.83964 0.0
C567 C 0.05042 0.9589 0.82444 0.0
C568 C 0.03713 0.96554 0.85635 0.0
C569 C 0.04541 0.9256 0.82629 0.0
C570 C 0.0324 0.93213 0.85764 0.0
N571 N 0.03662 0.91301 0.84271 0.0
C572 C 0.10455 0.01599 0.78984 0.0
C573 C 0.04951 0.03123 0.78714 0.0
C574 C 0.10482 0.00461 0.7719 0.0
N575 N 0.07724 0.02909 0.79708 0.0
C576 C 0.04882 0.02057 0.769 0.0
C577 C 0.07673 0.00683 0.76111 0.0
H578 H 0.12601 0.01355 0.79816 0.0
H579 H 0.02775 0.04068 0.79335 0.0
C580 C 0.00598 0.1002 0.86283 0.0
N581 N 0.00915 0.06756 0.8613 0.0
C582 C 0.97836 0.11365 0.87069 0.0
C583 C 0.95749 0.05963 0.8754 0.0
C584 C 0.98569 0.04716 0.86741 0.0
C585 C 0.95348 0.09336 0.87704 0.0
H586 H 0.02519 0.11583 0.85802 0.0
H587 H 0.98884 0.02128 0.8661 0.0
O588 O 0.12254 0.03538 0.83297 0.0
O589 O 0.08705 0.05255 0.86821 0.0
O590 O 0.0651 0.08402 0.83168 0.0
O591 O 0.05155 0.01155 0.83816 0.0
H592 H 0.16907 0.01743 0.85572 0.0
H593 H 0.14735 0.07473 0.80819 0.0
H594 H 0.22613 0.03592 0.8539 0.0
H595 H 0.20481 0.09238 0.80726 0.0
H596 H 0.02857 0.03483 0.91978 0.0
H597 H 0.08397 0.11332 0.87969 0.0
H598 H 0.05657 0.01511 0.89195 0.0
H599 H 0.05573 0.13128 0.9078 0.0
H600 H 0.18602 0.1297 0.884 0.0
H601 H 0.13496 0.18996 0.84518 0.0
H602 H 0.1494 0.91081 0.84568 0.0
H603 H 0.15195 0.95355 0.89964 0.0
H604 H 0.00258 0.08821 0.82384 0.0
H605 H 0.09873 0.10909 0.8044 0.0
H606 H 0.98029 0.11218 0.79546 0.0
H607 H 0.07474 0.13242 0.77626 0.0
H608 H 0.05752 0.96888 0.8114 0.0
H609 H 0.03391 0.98074 0.86823 0.0
H610 H 0.04857 0.90976 0.81467 0.0
H611 H 0.02541 0.92139 0.87051 0.0
H612 H 0.12671 0.99349 0.76675 0.0
H613 H 0.02662 0.02314 0.76128 0.0
H614 H 0.97667 0.13972 0.87193 0.0
H615 H 0.93882 0.04308 0.87996 0.0
Li616 Li 0.17767 0.85398 0.09596 0.0
Li617 Li 0.23555 0.84417 0.10181 0.0
Li618 Li 0.21161 0.82915 0.07252 0.0
Li619 Li 0.19799 0.79923 0.10083 0.0
C620 C 0.20675 0.90424 0.08203 0.0
N621 N 0.18664 0.96796 0.08051 0.0
C622 C 0.21785 0.92653 0.09495 0.0
C623 C 0.18559 0.91435 0.06829 0.0
C624 C 0.20737 0.95864 0.09395 0.0
C625 C 0.17565 0.94667 0.06778 0.0
C626 C 0.1887 0.82232 0.13388 0.0
C627 C 0.19983 0.79094 0.16091 0.0
N628 N 0.16771 0.79099 0.16502 0.0
C629 C 0.15583 0.82224 0.13841 0.0
C630 C 0.21094 0.80671 0.14525 0.0
C631 C 0.14569 0.80622 0.1542 0.0
C632 C 0.1125 0.87535 0.09437 0.0
N633 N 0.1419 0.88115 0.10201 0.0
C634 C 0.11855 0.91924 0.1228 0.0
C635 C 0.14545 0.90284 0.11583 0.0
C636 C 0.08761 0.91299 0.11561 0.0
C637 C 0.08494 0.89113 0.10094 0.0
H638 H 0.11019 0.85731 0.08377 0.0
H639 H 0.16901 0.90638 0.12196 0.0
C640 C 0.29677 0.873 0.09973 0.0
N641 N 0.27317 0.86409 0.11165 0.0
C642 C 0.32241 0.89248 0.10549 0.0
C643 C 0.29892 0.89341 0.13569 0.0
C644 C 0.27397 0.87346 0.1294 0.0
C645 C 0.32333 0.90376 0.12358 0.0
H646 H 0.29492 0.86614 0.08554 0.0
H647 H 0.25432 0.86691 0.13843 0.0
C648 C 0.15442 0.8023 0.06615 0.0
N649 N 0.1282 0.77651 0.03466 0.0
C650 C 0.15353 0.76876 0.06364 0.0
C651 C 0.1419 0.82272 0.05268 0.0
C652 C 0.14015 0.75619 0.04762 0.0
C653 C 0.1288 0.80922 0.03683 0.0
C654 C 0.27261 0.79643 0.08965 0.0
C655 C 0.29266 0.80043 0.07444 0.0
C656 C 0.28602 0.78714 0.10635 0.0
C657 C 0.32596 0.79542 0.07629 0.0
C658 C 0.31943 0.7824 0.10764 0.0
N659 N 0.33855 0.78663 0.09271 0.0
C660 C 0.23557 0.85456 0.03984 0.0
C661 C 0.22033 0.79952 0.03714 0.0
C662 C 0.24695 0.85482 0.0219 0.0
N663 N 0.22247 0.82725 0.04708 0.0
C664 C 0.23099 0.79882 0.019 0.0
C665 C 0.24473 0.82673 0.01111 0.0
H666 H 0.238 0.87602 0.04816 0.0
H667 H 0.21088 0.77776 0.04335 0.0
C668 C 0.15136 0.756 0.11284 0.0
N669 N 0.184 0.75916 0.1113 0.0
C670 C 0.13791 0.72838 0.1207 0.0
C671 C 0.19193 0.7075 0.12541 0.0
C672 C 0.2044 0.7357 0.11741 0.0
C673 C 0.1582 0.7035 0.12704 0.0
H674 H 0.13573 0.77521 0.10803 0.0
H675 H 0.23028 0.73885 0.11609 0.0
O676 O 0.21618 0.87255 0.08297 0.0
O677 O 0.19901 0.83707 0.11822 0.0
O678 O 0.16754 0.81511 0.08168 0.0
O679 O 0.24001 0.80156 0.08817 0.0
H680 H 0.23413 0.91908 0.10572 0.0
H681 H 0.17683 0.89736 0.05819 0.0
H682 H 0.21564 0.97614 0.1039 0.0
H683 H 0.15917 0.95482 0.05726 0.0
H684 H 0.21674 0.77859 0.16978 0.0
H685 H 0.13825 0.83399 0.1297 0.0
H686 H 0.23646 0.80659 0.14195 0.0
H687 H 0.12029 0.80576 0.15781 0.0
H688 H 0.12186 0.93603 0.134 0.0
H689 H 0.0616 0.88497 0.09518 0.0
H690 H 0.34075 0.89941 0.09568 0.0
H691 H 0.29801 0.90197 0.14964 0.0
H692 H 0.16335 0.75259 0.07385 0.0
H693 H 0.14247 0.84873 0.0544 0.0
H694 H 0.13939 0.73029 0.04547 0.0
H695 H 0.11914 0.82474 0.02626 0.0
H696 H 0.28268 0.80753 0.0614 0.0
H697 H 0.27082 0.78392 0.11823 0.0
H698 H 0.3418 0.79858 0.06466 0.0
H699 H 0.33017 0.77541 0.12051 0.0
H700 H 0.25807 0.87672 0.01675 0.0
H701 H 0.22842 0.77662 0.01129 0.0
H702 H 0.11184 0.72669 0.12195 0.0
H703 H 0.20848 0.68883 0.12996 0.0
Li704 Li 0.57524 0.96074 0.82214 0.0
Li705 Li 0.59452 0.9821 0.85115 0.0
Li706 Li 0.59567 0.92437 0.84671 0.0
Li707 Li 0.54311 0.95251 0.85202 0.0
C708 C 0.64211 0.94439 0.82134 0.0
N709 N 0.68739 0.91766 0.79803 0.0
C710 C 0.67491 0.95182 0.82339 0.0
C711 C 0.6323 0.92346 0.80741 0.0
C712 C 0.69745 0.938 0.81149 0.0
C713 C 0.65556 0.9102 0.79576 0.0
C714 C 0.54165 0.02321 0.83915 0.0
C715 C 0.51055 0.06459 0.85435 0.0
N716 N 0.5177 0.08558 0.84063 0.0
C717 C 0.54847 0.04507 0.8251 0.0
C718 C 0.52233 0.03289 0.85382 0.0
C719 C 0.53622 0.07655 0.82614 0.0
C720 C 0.54591 0.96659 0.78648 0.0
N721 N 0.5725 0.97264 0.7969 0.0
C722 C 0.59777 0.00098 0.77226 0.0
C723 C 0.59796 0.98984 0.79022 0.0
C724 C 0.5708 0.99508 0.7611 0.0
C725 C 0.54447 0.97782 0.76842 0.0
H726 H 0.52574 0.95336 0.79223 0.0
H727 H 0.61836 0.99525 0.79894 0.0
C728 C 0.64954 0.00655 0.86743 0.0
N729 N 0.62045 0.01652 0.86087 0.0
C730 C 0.67186 0.02888 0.87412 0.0
C731 C 0.63465 0.07182 0.86641 0.0
C732 C 0.61259 0.04848 0.86038 0.0
C733 C 0.66494 0.06222 0.87338 0.0
H734 H 0.65552 0.98107 0.86733 0.0
H735 H 0.58962 0.05619 0.855 0.0
C736 C 0.54665 0.88849 0.8312 0.0
N737 N 0.53157 0.82334 0.82975 0.0
C738 C 0.53286 0.87312 0.84632 0.0
C739 C 0.55239 0.87081 0.81526 0.0
C740 C 0.52553 0.84015 0.84534 0.0
C741 C 0.54468 0.83787 0.81482 0.0
C742 C 0.59227 0.95949 0.88467 0.0
C743 C 0.61913 0.94494 0.8929 0.0
C744 C 0.57809 0.98666 0.89278 0.0
C745 C 0.63142 0.95792 0.90909 0.0
C746 C 0.59113 0.99893 0.90895 0.0
N747 N 0.61731 0.98443 0.9167 0.0
C748 C 0.64385 0.87174 0.84583 0.0
C749 C 0.60297 0.87012 0.86844 0.0
C750 C 0.65788 0.84347 0.85285 0.0
N751 N 0.61679 0.88448 0.85367 0.0
C752 C 0.6161 0.84193 0.87586 0.0
C753 C 0.64398 0.82817 0.86809 0.0
H754 H 0.65494 0.88344 0.83429 0.0
H755 H 0.58194 0.881 0.87473 0.0
C756 C 0.47558 0.93961 0.85196 0.0
N757 N 0.50143 0.94652 0.86275 0.0
C758 C 0.44624 0.92985 0.85976 0.0
C759 C 0.47035 0.93573 0.88961 0.0
C760 C 0.49922 0.94518 0.88125 0.0
C761 C 0.44353 0.92712 0.87885 0.0
H762 H 0.47824 0.9402 0.83727 0.0
H763 H 0.52026 0.95013 0.88953 0.0
O764 O 0.61976 0.95814 0.83272 0.0
O765 O 0.5532 0.99226 0.83831 0.0
O766 O 0.55418 0.92073 0.83195 0.0
O767 O 0.58022 0.94751 0.86864 0.0
H768 H 0.68286 0.96812 0.83406 0.0
H769 H 0.60705 0.91755 0.80562 0.0
H770 H 0.72293 0.94349 0.81293 0.0
H771 H 0.64831 0.89395 0.78492 0.0
H772 H 0.49566 0.07248 0.86566 0.0
H773 H 0.56323 0.03787 0.8136 0.0
H774 H 0.51645 0.0161 0.86466 0.0
H775 H 0.54144 0.09381 0.81543 0.0
H776 H 0.61835 0.01458 0.76722 0.0
H777 H 0.52327 0.97273 0.76021 0.0
H778 H 0.69429 0.01982 0.87977 0.0
H779 H 0.62814 0.09709 0.86515 0.0
H780 H 0.52819 0.8864 0.85876 0.0
H781 H 0.56248 0.88238 0.80331 0.0
H782 H 0.51508 0.82792 0.85699 0.0
H783 H 0.54907 0.82387 0.80259 0.0
H784 H 0.63066 0.92413 0.88674 0.0
H785 H 0.55749 0.99839 0.88652 0.0
H786 H 0.65229 0.947 0.91555 0.0
H787 H 0.58051 0.02005 0.91531 0.0
H788 H 0.67924 0.8336 0.84632 0.0
H789 H 0.60485 0.83143 0.88782 0.0
H790 H 0.42646 0.92296 0.85087 0.0
H791 H 0.46936 0.93436 0.90436 0.0
Li792 Li 0.82719 0.84567 0.59671 0.0
Li793 Li 0.79905 0.79311 0.60202 0.0
Li794 Li 0.79082 0.82524 0.57215 0.0
Li795 Li 0.76945 0.84453 0.60115 0.0
C796 C 0.86307 0.79665 0.5812 0.0
N797 N 0.92821 0.78158 0.57975 0.0
C798 C 0.87844 0.78286 0.59632 0.0
C799 C 0.88075 0.80239 0.56526 0.0
C800 C 0.91141 0.77553 0.59534 0.0
C801 C 0.91369 0.7947 0.56482 0.0
C802 C 0.79207 0.84227 0.63468 0.0
C803 C 0.75264 0.84114 0.65896 0.0
N804 N 0.76715 0.86731 0.66671 0.0
C805 C 0.80663 0.86913 0.6429 0.0
C806 C 0.7649 0.8281 0.64278 0.0
C807 C 0.79366 0.88142 0.65909 0.0
C808 C 0.87982 0.89385 0.59583 0.0
N809 N 0.86708 0.86679 0.60367 0.0
C810 C 0.90963 0.8661 0.62585 0.0
C811 C 0.88145 0.85297 0.61844 0.0
C812 C 0.92339 0.89398 0.61808 0.0
C813 C 0.90809 0.90788 0.60285 0.0
H814 H 0.86812 0.90494 0.58429 0.0
H815 H 0.87057 0.83194 0.62473 0.0
C816 C 0.81194 0.72559 0.60196 0.0
N817 N 0.80503 0.75144 0.61276 0.0
C818 C 0.8217 0.69624 0.60976 0.0
C819 C 0.81583 0.72035 0.63962 0.0
C820 C 0.80638 0.74923 0.63125 0.0
C821 C 0.82442 0.69353 0.62886 0.0
H822 H 0.81135 0.72824 0.58728 0.0
H823 H 0.80143 0.77026 0.63953 0.0
C824 C 0.80716 0.89211 0.57134 0.0
N825 N 0.83389 0.9374 0.54804 0.0
C826 C 0.79973 0.92491 0.5734 0.0
C827 C 0.82809 0.88232 0.55741 0.0
C828 C 0.81355 0.94746 0.5615 0.0
C829 C 0.84135 0.90557 0.54576 0.0
C830 C 0.72835 0.79165 0.58915 0.0
C831 C 0.70649 0.79846 0.57511 0.0
C832 C 0.71867 0.77233 0.60383 0.0
C833 C 0.67501 0.7862 0.57614 0.0
C834 C 0.68698 0.76055 0.60436 0.0
N835 N 0.66598 0.76769 0.59063 0.0
C836 C 0.78497 0.79591 0.53648 0.0
C837 C 0.76172 0.84796 0.54022 0.0
C838 C 0.77374 0.79447 0.51843 0.0
N839 N 0.77891 0.8225 0.5469 0.0
C840 C 0.75057 0.84777 0.52226 0.0
C841 C 0.75648 0.8208 0.51111 0.0
H842 H 0.7982 0.77574 0.54224 0.0
H843 H 0.7563 0.86836 0.54894 0.0
C844 C 0.74501 0.89954 0.61744 0.0
N845 N 0.73504 0.87046 0.61087 0.0
C846 C 0.72268 0.92186 0.62413 0.0
C847 C 0.67974 0.88466 0.6164 0.0
C848 C 0.70307 0.8626 0.61038 0.0
C849 C 0.68933 0.91495 0.62338 0.0
H850 H 0.77049 0.90552 0.61734 0.0
H851 H 0.69537 0.83963 0.60499 0.0
O852 O 0.83083 0.80418 0.58195 0.0
O853 O 0.80405 0.83023 0.61864 0.0
O854 O 0.79342 0.86976 0.58272 0.0
O855 O 0.7593 0.80321 0.58832 0.0
H856 H 0.86515 0.77819 0.60876 0.0
H857 H 0.86917 0.81249 0.55331 0.0
H858 H 0.92364 0.76508 0.60699 0.0
H859 H 0.92768 0.79908 0.55259 0.0
H860 H 0.73152 0.83051 0.66532 0.0
H861 H 0.82744 0.88066 0.63674 0.0
H862 H 0.75317 0.8075 0.63653 0.0
H863 H 0.80459 0.90228 0.66556 0.0
H864 H 0.92014 0.85484 0.63781 0.0
H865 H 0.91795 0.92924 0.59632 0.0
H866 H 0.82859 0.67647 0.60087 0.0
H867 H 0.8172 0.71936 0.65436 0.0
H868 H 0.78344 0.93286 0.58407 0.0
H869 H 0.834 0.85706 0.55562 0.0
H870 H 0.80806 0.97294 0.56294 0.0
H871 H 0.8576 0.89833 0.53492 0.0
H872 H 0.71369 0.81321 0.5636 0.0
H873 H 0.73546 0.76646 0.61467 0.0
H874 H 0.65775 0.79141 0.56543 0.0
H875 H 0.67909 0.74567 0.61567 0.0
H876 H 0.77883 0.77327 0.51022 0.0
H877 H 0.73698 0.86835 0.51722 0.0
H878 H 0.73173 0.94429 0.62979 0.0
H879 H 0.65447 0.87815 0.61514 0.0
Li880 Li 0.90589 0.07721 0.3467 0.0
Li881 Li 0.95844 0.04906 0.35202 0.0
Li882 Li 0.92631 0.04084 0.32214 0.0
Li883 Li 0.90702 0.01947 0.35115 0.0
C884 C 0.95487 0.11309 0.33119 0.0
N885 N 0.96984 0.17826 0.32971 0.0
C886 C 0.9687 0.12848 0.34628 0.0
C887 C 0.94903 0.13076 0.31525 0.0
C888 C 0.97597 0.16146 0.3453 0.0
C889 C 0.95667 0.16371 0.3148 0.0
C890 C 0.90929 0.04212 0.38468 0.0
C891 C 0.91042 0.00272 0.40898 0.0
N892 N 0.88429 0.01727 0.41674 0.0
C893 C 0.88247 0.05673 0.39292 0.0
C894 C 0.92344 0.01495 0.39279 0.0
C895 C 0.87019 0.0438 0.40913 0.0
C896 C 0.85771 0.12984 0.34582 0.0
N897 N 0.88478 0.1171 0.35366 0.0
C898 C 0.88549 0.15967 0.37583 0.0
C899 C 0.89862 0.13148 0.36842 0.0
C900 C 0.8576 0.17342 0.36807 0.0
C901 C 0.84369 0.15811 0.35284 0.0
H902 H 0.84661 0.11813 0.33429 0.0
H903 H 0.91966 0.12061 0.3747 0.0
C904 C 0.02597 0.06195 0.35196 0.0
N905 N 1.00012 0.05504 0.36275 0.0
C906 C 0.05532 0.0717 0.35976 0.0
C907 C 0.0312 0.06582 0.38961 0.0
C908 C 0.00233 0.05638 0.38125 0.0
C909 C 0.05803 0.07442 0.37885 0.0
H910 H 0.02331 0.06135 0.33727 0.0
H911 H 0.98129 0.05143 0.38953 0.0
C912 C 0.85939 0.05715 0.32136 0.0
N913 N 0.81399 0.08382 0.29811 0.0
C914 C 0.8266 0.04972 0.32347 0.0
C915 C 0.86912 0.07805 0.3074 0.0
C916 C 0.804 0.06351 0.3116 0.0
C917 C 0.8458 0.09128 0.29578 0.0
C918 C 0.95993 0.97838 0.33915 0.0
C919 C 0.9532 0.95653 0.32509 0.0
C920 C 0.97921 0.9687 0.35384 0.0
C921 C 0.9655 0.92506 0.32612 0.0
C922 C 0.99104 0.93702 0.35437 0.0
N923 N 0.98397 0.91604 0.34063 0.0
C924 C 0.95564 0.03498 0.28647 0.0
C925 C 0.90359 0.01173 0.29022 0.0
C926 C 0.95708 0.02374 0.26842 0.0
N927 N 0.92905 0.02893 0.2969 0.0
C928 C 0.90378 1.00058 0.27226 0.0
C929 C 0.93075 0.00649 0.2611 0.0
H930 H 0.97582 0.04821 0.29223 0.0
H931 H 0.88319 0.00632 0.29894 0.0
C932 C 0.85204 0.99502 0.36749 0.0
N933 N 0.88108 0.98505 0.36087 0.0
C934 C 0.82973 0.97268 0.37419 0.0
C935 C 0.86685 0.92974 0.36633 0.0
C936 C 0.8889 0.95308 0.36031 0.0
C937 C 0.83661 0.93933 0.37338 0.0
H938 H 0.84608 0.02051 0.36744 0.0
H939 H 0.91183 0.94538 0.35486 0.0
O940 O 0.94738 0.08084 0.33194 0.0
O941 O 0.92132 0.05407 0.36863 0.0
O942 O 0.8818 0.04343 0.33272 0.0
O943 O 0.94833 0.00931 0.33831 0.0
H944 H 0.97345 0.1152 0.35872 0.0
H945 H 0.9389 0.11917 0.30331 0.0
H946 H 0.98646 0.17371 0.35693 0.0
H947 H 0.95221 0.1777 0.30257 0.0
H948 H 0.92103 0.9816 0.41534 0.0
H949 H 0.87095 0.07755 0.38676 0.0
H950 H 0.94401 0.00318 0.38653 0.0
H951 H 0.84936 0.05476 0.4156 0.0
H952 H 0.89675 0.17018 0.38779 0.0
H953 H 0.82232 0.16797 0.34632 0.0
H954 H 0.07509 0.07858 0.35087 0.0
H955 H 0.0322 0.06719 0.40436 0.0
H956 H 0.81871 0.03346 0.33417 0.0
H957 H 0.89437 0.08396 0.30556 0.0
H958 H 0.77853 0.05803 0.31309 0.0
H959 H 0.853 0.1075 0.28492 0.0
H960 H 0.93848 0.96372 0.31356 0.0
H961 H 0.98502 0.98548 0.3647 0.0
H962 H 0.96035 0.90782 0.31539 0.0
H963 H 0.00589 0.92914 0.36569 0.0
H964 H 0.97828 0.02883 0.26021 0.0
H965 H 0.8832 0.98699 0.26722 0.0
H966 H 0.80734 0.98173 0.37989 0.0
H967 H 0.87332 0.90447 0.36502 0.0
Li968 Li 0.67439 0.15589 0.09671 0.0
Li969 Li 0.70252 0.20846 0.10202 0.0
Li970 Li 0.71076 0.17632 0.07214 0.0
Li971 Li 0.73212 0.15705 0.10114 0.0
C972 C 0.63851 0.20494 0.08121 0.0
N973 N 0.57338 0.22011 0.07977 0.0
C974 C 0.62316 0.21869 0.09634 0.0
C975 C 0.62082 0.19928 0.06526 0.0
C976 C 0.5902 0.22607 0.09538 0.0
C977 C 0.58789 0.20703 0.06483 0.0
C978 C 0.70954 0.15929 0.13466 0.0
C979 C 0.749 0.16043 0.15893 0.0
N980 N 0.73454 0.13423 0.16667 0.0
C981 C 0.69503 0.1324 0.14288 0.0
C982 C 0.7367 0.17348 0.14277 0.0
C983 C 0.70803 0.12009 0.15906 0.0
C984 C 0.62176 0.10771 0.09583 0.0
N985 N 0.63451 0.13476 0.10368 0.0
C986 C 0.59197 0.13544 0.12587 0.0
C987 C 0.62015 0.14857 0.11845 0.0
C988 C 0.57819 0.10757 0.11809 0.0
C989 C 0.59349 0.09368 0.10285 0.0
H990 H 0.63345 0.09662 0.08428 0.0
H991 H 0.63104 0.16959 0.12475 0.0
C992 C 0.68962 0.27598 0.10195 0.0
N993 N 0.69653 0.25013 0.11275 0.0
C994 C 0.67985 0.30533 0.10975 0.0
C995 C 0.68573 0.28121 0.13961 0.0
C996 C 0.69518 0.25234 0.13124 0.0
C997 C 0.67713 0.30803 0.12885 0.0
H998 H 0.69021 0.27333 0.08727 0.0
H999 H 0.70013 0.23131 0.13952 0.0
C1000 C 0.69438 0.1095 0.07132 0.0
N1001 N 0.6676 0.06431 0.04797 0.0
C1002 C 0.70181 0.07668 0.07332 0.0
C1003 C 0.67342 0.11935 0.05741 0.0
C1004 C 0.68797 0.05419 0.0614 0.0
C1005 C 0.66014 0.09614 0.04574 0.0
C1006 C 0.77323 0.20989 0.08914 0.0
C1007 C 0.79511 0.20299 0.07512 0.0
C1008 C 0.78292 0.22924 0.1038 0.0
C1009 C 0.8266 0.21521 0.07615 0.0
C1010 C 0.81463 0.24098 0.10433 0.0
N1011 N 0.83564 0.23376 0.09062 0.0
C1012 C 0.7166 0.20565 0.03648 0.0
C1013 C 0.73985 0.1536 0.04022 0.0
C1014 C 0.72783 0.20709 0.01842 0.0
N1015 N 0.72266 0.17906 0.0469 0.0
C1016 C 0.75099 0.15379 0.02225 0.0
C1017 C 0.74508 0.18076 0.0111 0.0
H1018 H 0.70337 0.22583 0.04223 0.0
H1019 H 0.74527 0.1332 0.04894 0.0
C1020 C 0.75656 0.102 0.11737 0.0
N1021 N 0.76654 0.13112 0.11087 0.0
C1022 C 0.77888 0.07967 0.12407 0.0
C1023 C 0.82182 0.11695 0.11646 0.0
C1024 C 0.79849 0.13902 0.11044 0.0
C1025 C 0.81222 0.08662 0.12338 0.0
H1026 H 0.73108 0.096 0.11724 0.0
H1027 H 0.8062 0.16202 0.1051 0.0
O1028 O 0.67074 0.19737 0.08195 0.0
O1029 O 0.69752 0.17135 0.11864 0.0
O1030 O 0.70816 0.13179 0.08272 0.0
O1031 O 0.74227 0.19837 0.08831 0.0
H1032 H 0.63645 0.22331 0.10879 0.0
H1033 H 0.63238 0.18922 0.0533 0.0
H1034 H 0.57798 0.2365 0.10704 0.0
H1035 H 0.57389 0.2027 0.05259 0.0
H1036 H 0.77011 0.17107 0.16528 0.0
H1037 H 0.67422 0.12085 0.13672 0.0
H1038 H 0.7484 0.19411 0.13651 0.0
H1039 H 0.69714 0.09921 0.16551 0.0
H1040 H 0.58147 0.14668 0.13783 0.0
H1041 H 0.58362 0.07233 0.09632 0.0
H1042 H 0.67296 0.3251 0.10086 0.0
H1043 H 0.68436 0.2822 0.15435 0.0
H1044 H 0.71813 0.06869 0.08397 0.0
H1045 H 0.66751 0.14461 0.05566 0.0
H1046 H 0.69346 0.0287 0.06281 0.0
H1047 H 0.64387 0.10344 0.03492 0.0
H1048 H 0.7879 0.18821 0.06362 0.0
H1049 H 0.76613 0.23518 0.11463 0.0
H1050 H 0.84386 0.20993 0.06545 0.0
H1051 H 0.82253 0.25589 0.11563 0.0
H1052 H 0.72274 0.22829 0.01021 0.0
H1053 H 0.76459 0.13321 0.01721 0.0
H1054 H 0.76982 0.05721 0.12968 0.0
H1055 H 0.84709 0.1235 0.11526 0.0
Li1056 Li 0.54311 0.04906 0.65096 0.0
Li1057 Li 0.59566 0.0772 0.65628 0.0
Li1058 Li 0.59453 0.01946 0.65183 0.0
Li1059 Li 0.57524 0.04083 0.68084 0.0
C1060 C 0.59227 0.0421 0.6183 0.0
N1061 N 0.61728 0.01722 0.58625 0.0
C1062 C 0.6191 0.05669 0.61006 0.0
C1063 C 0.57811 0.01493 0.61019 0.0
C1064 C 0.63138 0.04374 0.59387 0.0
C1065 C 0.59113 0.00268 0.59401 0.0
C1066 C 0.54668 0.11308 0.67179 0.0
C1067 C 0.54484 0.16371 0.68817 0.0
N1068 N 0.53169 0.17825 0.67325 0.0
C1069 C 0.53286 0.12846 0.65668 0.0
C1070 C 0.55249 0.13076 0.68772 0.0
C1071 C 0.52558 0.16145 0.65767 0.0
C1072 C 0.47559 0.06195 0.65102 0.0
N1073 N 0.50144 0.05504 0.64022 0.0
C1074 C 0.47036 0.06583 0.61336 0.0
C1075 C 0.49923 0.05638 0.62173 0.0
C1076 C 0.44353 0.07443 0.62412 0.0
C1077 C 0.44624 0.0717 0.64322 0.0
H1078 H 0.47824 0.06135 0.6657 0.0
H1079 H 0.52026 0.05143 0.61345 0.0
C1080 C 0.64384 0.12983 0.65716 0.0
N1081 N 0.61678 0.11709 0.64932 0.0
C1082 C 0.65787 0.1581 0.65014 0.0
C1083 C 0.61608 0.15965 0.62714 0.0
C1084 C 0.60295 0.13146 0.63455 0.0
C1085 C 0.64396 0.17341 0.6349 0.0
H1086 H 0.65494 0.11813 0.6687 0.0
H1087 H 0.58192 0.12059 0.62826 0.0
C1088 C 0.54163 0.97837 0.66383 0.0
N1089 N 0.51762 0.91602 0.66236 0.0
C1090 C 0.5484 0.95651 0.67789 0.0
C1091 C 0.52234 0.96869 0.64914 0.0
C1092 C 0.53611 0.92504 0.67686 0.0
C1093 C 0.51053 0.937 0.64862 0.0
C1094 C 0.64214 0.05716 0.68163 0.0
C1095 C 0.67494 0.04973 0.67953 0.0
C1096 C 0.6324 0.07806 0.69558 0.0
C1097 C 0.69752 0.06353 0.69141 0.0
C1098 C 0.6557 0.0913 0.70721 0.0
N1099 N 0.68751 0.08385 0.70489 0.0
C1100 C 0.64953 0.99501 0.63551 0.0
C1101 C 0.61263 0.95308 0.64265 0.0
C1102 C 0.67184 0.97268 0.62881 0.0
N1103 N 0.62047 0.98504 0.64211 0.0
C1104 C 0.63469 0.92974 0.63663 0.0
C1105 C 0.66495 0.93933 0.6296 0.0
H1106 H 0.65549 0.0205 0.63557 0.0
H1107 H 0.58969 0.94538 0.64808 0.0
C1108 C 0.54591 0.03497 0.7165 0.0
N1109 N 0.5725 0.02892 0.70608 0.0
C1110 C 0.54447 0.02374 0.73456 0.0
C1111 C 0.59777 1.00058 0.73072 0.0
C1112 C 0.59796 0.01173 0.71276 0.0
C1113 C 0.5708 0.00649 0.74188 0.0
H1114 H 0.52573 0.0482 0.71075 0.0
H1115 H 0.61836 0.00632 0.70404 0.0
O1116 O 0.58023 0.05406 0.63434 0.0
O1117 O 0.55417 0.08084 0.67103 0.0
O1118 O 0.55322 0.0093 0.66467 0.0
O1119 O 0.61976 0.04343 0.67026 0.0
H1120 H 0.63063 0.0775 0.61622 0.0
H1121 H 0.55752 0.00317 0.61646 0.0
H1122 H 0.65222 0.05469 0.58739 0.0
H1123 H 0.58052 0.98156 0.58765 0.0
H1124 H 0.54928 0.1777 0.7004 0.0
H1125 H 0.52814 0.11519 0.64425 0.0
H1126 H 0.56261 0.11918 0.69966 0.0
H1127 H 0.5151 0.17369 0.64603 0.0
H1128 H 0.46936 0.0672 0.59862 0.0
H1129 H 0.42647 0.07859 0.65211 0.0
H1130 H 0.67923 0.16797 0.65666 0.0
H1131 H 0.60482 0.17016 0.61518 0.0
H1132 H 0.56313 0.96371 0.68941 0.0
H1133 H 0.5165 0.98547 0.6383 0.0
H1134 H 0.54128 0.9078 0.68758 0.0
H1135 H 0.49567 0.92912 0.6373 0.0
H1136 H 0.68285 0.03345 0.66884 0.0
H1137 H 0.60715 0.08397 0.6974 0.0
H1138 H 0.723 0.05804 0.68993 0.0
H1139 H 0.64849 0.10753 0.71806 0.0
H1140 H 0.69425 0.98173 0.62313 0.0
H1141 H 0.62821 0.90446 0.63792 0.0
H1142 H 0.52327 0.02883 0.74277 0.0
H1143 H 0.61835 0.98699 0.73576 0.0
Li1144 Li 0.73211 0.84452 0.40183 0.0
Li1145 Li 0.71075 0.82524 0.43084 0.0
Li1146 Li 0.70252 0.79311 0.40096 0.0
Li1147 Li 0.67438 0.84567 0.40628 0.0
C1148 C 0.77322 0.79166 0.41383 0.0
N1149 N 0.8356 0.76774 0.41236 0.0
C1150 C 0.79509 0.79851 0.42787 0.0
C1151 C 0.78291 0.77233 0.39917 0.0
C1152 C 0.82657 0.78626 0.42684 0.0
C1153 C 0.81461 0.76056 0.39864 0.0
C1154 C 0.69439 0.8921 0.43165 0.0
C1155 C 0.66019 0.90553 0.45723 0.0
N1156 N 0.66765 0.93736 0.45496 0.0
C1157 C 0.70182 0.92491 0.42961 0.0
C1158 C 0.67346 0.88229 0.44558 0.0
C1159 C 0.68799 0.94743 0.44151 0.0
C1160 C 0.75656 0.89955 0.38557 0.0
N1161 N 0.76653 0.87045 0.39211 0.0
C1162 C 0.82182 0.88464 0.38656 0.0
C1163 C 0.79849 0.86258 0.39258 0.0
C1164 C 0.81223 0.91495 0.3796 0.0
C1165 C 0.77888 0.92187 0.37887 0.0
H1166 H 0.73107 0.90554 0.38568 0.0
H1167 H 0.8062 0.8396 0.39796 0.0
C1168 C 0.7166 0.79591 0.4665 0.0
N1169 N 0.72265 0.8225 0.45608 0.0
C1170 C 0.72783 0.79447 0.48456 0.0
C1171 C 0.75099 0.84777 0.48073 0.0
C1172 C 0.73984 0.84796 0.46277 0.0
C1173 C 0.74508 0.8208 0.49188 0.0
H1174 H 0.70337 0.77574 0.46075 0.0
H1175 H 0.74526 0.86836 0.45404 0.0
C1176 C 0.70951 0.84227 0.36831 0.0
N1177 N 0.73447 0.86732 0.33629 0.0
C1178 C 0.69497 0.86914 0.36009 0.0
C1179 C 0.73668 0.82809 0.36021 0.0
C1180 C 0.70796 0.88144 0.3439 0.0
C1181 C 0.74896 0.84113 0.34404 0.0
C1182 C 0.6385 0.79664 0.42178 0.0
C1183 C 0.62314 0.78287 0.40665 0.0
C1184 C 0.62081 0.80237 0.43772 0.0
C1185 C 0.59017 0.77553 0.40763 0.0
C1186 C 0.58788 0.79466 0.43816 0.0
N1187 N 0.57336 0.78155 0.42322 0.0
C1188 C 0.68962 0.72559 0.40102 0.0
C1189 C 0.69518 0.74922 0.37174 0.0
C1190 C 0.67986 0.69624 0.39323 0.0
N1191 N 0.69653 0.75144 0.39023 0.0
C1192 C 0.68573 0.72035 0.36337 0.0
C1193 C 0.67713 0.69353 0.37413 0.0
H1194 H 0.69021 0.72824 0.41571 0.0
H1195 H 0.70014 0.77026 0.36345 0.0
C1196 C 0.62175 0.89385 0.40715 0.0
N1197 N 0.6345 0.86679 0.39931 0.0
C1198 C 0.59348 0.90788 0.40014 0.0
C1199 C 0.59195 0.86611 0.37712 0.0
C1200 C 0.62013 0.85298 0.38454 0.0
C1201 C 0.57818 0.89398 0.3849 0.0
H1202 H 0.63344 0.90494 0.4187 0.0
H1203 H 0.63101 0.83195 0.37824 0.0
O1204 O 0.74227 0.8032 0.41467 0.0
O1205 O 0.70815 0.86977 0.42026 0.0
O1206 O 0.69752 0.83022 0.38435 0.0
O1207 O 0.67074 0.80419 0.42103 0.0
H1208 H 0.78788 0.81327 0.43938 0.0
H1209 H 0.76612 0.76643 0.38833 0.0
H1210 H 0.84383 0.7915 0.43755 0.0
H1211 H 0.8225 0.74567 0.38733 0.0
H1212 H 0.64394 0.89827 0.46806 0.0
H1213 H 0.71812 0.93286 0.41894 0.0
H1214 H 0.66755 0.85703 0.44736 0.0
H1215 H 0.69348 0.97292 0.44008 0.0
H1216 H 0.8471 0.87812 0.3878 0.0
H1217 H 0.76982 0.94432 0.37324 0.0
H1218 H 0.72273 0.77327 0.49277 0.0
H1219 H 0.76458 0.86835 0.48577 0.0
H1220 H 0.67416 0.88068 0.36624 0.0
H1221 H 0.7484 0.80748 0.36646 0.0
H1222 H 0.69704 0.90231 0.33744 0.0
H1223 H 0.77007 0.8305 0.33768 0.0
H1224 H 0.63642 0.77821 0.39421 0.0
H1225 H 0.63238 0.81245 0.44967 0.0
H1226 H 0.57794 0.76508 0.39598 0.0
H1227 H 0.57388 0.79903 0.45039 0.0
H1228 H 0.67297 0.67647 0.40212 0.0
H1229 H 0.68436 0.71936 0.34862 0.0
H1230 H 0.58361 0.92923 0.40666 0.0
H1231 H 0.58145 0.85486 0.36516 0.0
Li1232 Li 0.907 0.98209 0.15182 0.0
Li1233 Li 0.92631 0.96071 0.18084 0.0
Li1234 Li 0.95844 0.9525 0.15096 0.0
Li1235 Li 0.9059 0.92435 0.15628 0.0
C1236 C 0.95995 0.02317 0.16383 0.0
N1237 N 0.98403 0.08549 0.16235 0.0
C1238 C 0.95326 0.04501 0.17791 0.0
C1239 C 0.9792 0.03284 0.14913 0.0
C1240 C 0.96559 0.07647 0.17687 0.0
C1241 C 0.99105 0.06451 0.1486 0.0
C1242 C 0.85936 0.94442 0.1816 0.0
C1243 C 0.84569 0.91033 0.20719 0.0
N1244 N 0.81388 0.91779 0.20482 0.0
C1245 C 0.82657 0.95184 0.17945 0.0
C1246 C 0.86904 0.92354 0.19559 0.0
C1247 C 0.80394 0.93807 0.19131 0.0
C1248 C 0.85205 0.00654 0.13545 0.0
N1249 N 0.88107 0.01651 0.14211 0.0
C1250 C 0.86681 0.07182 0.13669 0.0
C1251 C 0.88886 0.04848 0.14271 0.0
C1252 C 0.8366 0.06223 0.1296 0.0
C1253 C 0.82975 0.02888 0.12875 0.0
H1254 H 0.8461 0.98104 0.13547 0.0
H1255 H 0.91176 0.05618 0.14819 0.0
C1256 C 0.95564 0.96658 0.21651 0.0
N1257 N 0.92905 0.97263 0.20608 0.0
C1258 C 0.95708 0.97782 0.23456 0.0
C1259 C 0.90378 0.00097 0.23072 0.0
C1260 C 0.90359 0.98982 0.21276 0.0
C1261 C 0.93075 0.99507 0.24188 0.0
H1262 H 0.97582 0.95335 0.21075 0.0
H1263 H 0.88319 0.99523 0.20404 0.0
C1264 C 0.90929 0.95941 0.11829 0.0
N1265 N 0.8843 0.98421 0.08622 0.0
C1266 C 0.88249 0.94477 0.11004 0.0
C1267 C 0.92343 0.98659 0.11018 0.0
C1268 C 0.87022 0.95768 0.09383 0.0
C1269 C 0.91042 0.99879 0.09399 0.0
C1270 C 0.95484 0.88846 0.1718 0.0
C1271 C 0.9687 0.87306 0.15672 0.0
C1272 C 0.94894 0.87079 0.18773 0.0
C1273 C 0.97594 0.84007 0.15771 0.0
C1274 C 0.95655 0.83784 0.18819 0.0
N1275 N 0.96974 0.82328 0.17329 0.0
C1276 C 0.02596 0.93962 0.15102 0.0
C1277 C 0.00232 0.94519 0.12173 0.0
C1278 C 0.05531 0.92987 0.14322 0.0
N1279 N 1.00011 0.94653 0.14022 0.0
C1280 C 0.0312 0.93575 0.11336 0.0
C1281 C 0.05802 0.92715 0.12412 0.0
H1282 H 0.02331 0.94021 0.1657 0.0
H1283 H 0.98129 0.95013 0.11345 0.0
C1284 C 0.85772 0.87172 0.15716 0.0
N1285 N 0.88479 0.88445 0.14933 0.0
C1286 C 0.84369 0.84344 0.15015 0.0
C1287 C 0.88551 0.84187 0.12716 0.0
C1288 C 0.89863 0.87006 0.13457 0.0
C1289 C 0.85761 0.82812 0.13492 0.0
H1290 H 0.84661 0.88343 0.1687 0.0
H1291 H 0.91968 0.88092 0.12829 0.0
O1292 O 0.94832 0.99225 0.16466 0.0
O1293 O 0.8818 0.95812 0.17026 0.0
O1294 O 0.92132 0.94748 0.13435 0.0
O1295 O 0.94739 0.92072 0.17104 0.0
H1296 H 0.93857 0.03782 0.18944 0.0
H1297 H 0.98497 0.01607 0.13826 0.0
H1298 H 0.96048 0.09371 0.18761 0.0
H1299 H 0.00588 0.07239 0.13727 0.0
H1300 H 0.85285 0.89413 0.21807 0.0
H1301 H 0.81872 0.9681 0.16874 0.0
H1302 H 0.89428 0.91764 0.19745 0.0
H1303 H 0.77847 0.94356 0.1898 0.0
H1304 H 0.87326 0.0971 0.13803 0.0
H1305 H 0.80738 0.01983 0.12302 0.0
H1306 H 0.97828 0.97273 0.24277 0.0
H1307 H 0.8832 0.01457 0.23576 0.0
H1308 H 0.87098 0.92395 0.11621 0.0
H1309 H 0.94398 0.99838 0.11645 0.0
H1310 H 0.84941 0.9467 0.08735 0.0
H1311 H 0.92102 0.01992 0.08762 0.0
H1312 H 0.97349 0.88633 0.14429 0.0
H1313 H 0.93879 0.88239 0.19966 0.0
H1314 H 0.98645 0.82781 0.14609 0.0
H1315 H 0.95204 0.82385 0.20041 0.0
H1316 H 0.07509 0.92299 0.15211 0.0
H1317 H 0.03219 0.93438 0.09862 0.0
H1318 H 0.82232 0.83359 0.15666 0.0
H1319 H 0.89678 0.83135 0.11521 0.0
Li1320 Li 0.76946 0.15702 0.90182 0.0
Li1321 Li 0.79083 0.17632 0.93084 0.0
Li1322 Li 0.79905 0.20845 0.90095 0.0
Li1323 Li 0.8272 0.15589 0.90628 0.0
C1324 C 0.72837 0.20993 0.91383 0.0
N1325 N 0.66602 0.23395 0.91235 0.0
C1326 C 0.70651 0.20318 0.92789 0.0
C1327 C 0.71869 0.22922 0.89914 0.0
C1328 C 0.67504 0.21547 0.92685 0.0
C1329 C 0.68701 0.24103 0.89861 0.0
C1330 C 0.80715 0.10941 0.93162 0.0
C1331 C 0.84129 0.09585 0.95721 0.0
N1332 N 0.83383 0.06404 0.95489 0.0
C1333 C 0.79972 0.07662 0.92952 0.0
C1334 C 0.82805 0.11915 0.94558 0.0
C1335 C 0.81352 0.05403 0.9414 0.0
C1336 C 0.74501 0.10203 0.8855 0.0
N1337 N 0.73504 0.13109 0.89211 0.0
C1338 C 0.67973 0.11686 0.88663 0.0
C1339 C 0.70307 0.13892 0.89265 0.0
C1340 C 0.68933 0.0866 0.8796 0.0
C1341 C 0.72268 0.07972 0.8788 0.0
H1342 H 0.7705 0.09607 0.88556 0.0
H1343 H 0.69537 0.16185 0.89809 0.0
C1344 C 0.78497 0.20565 0.9665 0.0
N1345 N 0.77892 0.17906 0.95608 0.0
C1346 C 0.77374 0.20709 0.98455 0.0
C1347 C 0.75058 0.15379 0.98072 0.0
C1348 C 0.76173 0.1536 0.96276 0.0
C1349 C 0.75649 0.18076 0.99187 0.0
H1350 H 0.7982 0.22582 0.96075 0.0
H1351 H 0.75631 0.1332 0.95404 0.0
C1352 C 0.79211 0.15929 0.8683 0.0
N1353 N 0.76724 0.13427 0.83624 0.0
C1354 C 0.8067 0.13246 0.86006 0.0
C1355 C 0.76493 0.17345 0.86019 0.0
C1356 C 0.79376 0.12018 0.84386 0.0
C1357 C 0.7527 0.16042 0.844 0.0
C1358 C 0.86308 0.20488 0.92178 0.0
C1359 C 0.87846 0.2187 0.90668 0.0
C1360 C 0.88076 0.19906 0.93772 0.0
C1361 C 0.91144 0.22599 0.90767 0.0
C1362 C 0.9137 0.20672 0.93817 0.0
N1363 N 0.92824 0.21987 0.92326 0.0
C1364 C 0.81194 0.27597 0.90101 0.0
C1365 C 0.80637 0.25233 0.87173 0.0
C1366 C 0.82169 0.30532 0.89322 0.0
N1367 N 0.80503 0.25012 0.89022 0.0
C1368 C 0.81582 0.2812 0.86336 0.0
C1369 C 0.82441 0.30803 0.87412 0.0
H1370 H 0.81134 0.27332 0.9157 0.0
H1371 H 0.80143 0.23129 0.86345 0.0
C1372 C 0.87983 0.10771 0.90716 0.0
N1373 N 0.86709 0.13478 0.89932 0.0
C1374 C 0.9081 0.09369 0.90014 0.0
C1375 C 0.90966 0.13548 0.87714 0.0
C1376 C 0.88147 0.14861 0.88456 0.0
C1377 C 0.92341 0.1076 0.88491 0.0
H1378 H 0.86812 0.09662 0.91869 0.0
H1379 H 0.8706 0.16965 0.87827 0.0
O1380 O 0.7593 0.19834 0.91466 0.0
O1381 O 0.79343 0.1318 0.92026 0.0
O1382 O 0.80406 0.17133 0.88434 0.0
O1383 O 0.83083 0.19739 0.92103 0.0
H1384 H 0.71371 0.18845 0.9394 0.0
H1385 H 0.73547 0.23504 0.88829 0.0
H1386 H 0.6578 0.21031 0.93758 0.0
H1387 H 0.67912 0.25589 0.88729 0.0
H1388 H 0.85752 0.10306 0.96806 0.0
H1389 H 0.78345 0.06871 0.91883 0.0
H1390 H 0.83396 0.1444 0.9474 0.0
H1391 H 0.80803 0.02855 0.93992 0.0
H1392 H 0.65446 0.12334 0.88793 0.0
H1393 H 0.73173 0.05732 0.87311 0.0
H1394 H 0.77883 0.22829 0.99276 0.0
H1395 H 0.73698 0.13322 0.98576 0.0
H1396 H 0.82752 0.12094 0.86622 0.0
H1397 H 0.75317 0.19402 0.86645 0.0
H1398 H 0.80471 0.09934 0.83739 0.0
H1399 H 0.73157 0.17103 0.83764 0.0
H1400 H 0.86519 0.22343 0.89425 0.0
H1401 H 0.86917 0.18894 0.94966 0.0
H1402 H 0.92369 0.23647 0.89603 0.0
H1403 H 0.92769 0.20228 0.9504 0.0
H1404 H 0.82857 0.32509 0.90211 0.0
H1405 H 0.81719 0.2822 0.84861 0.0
H1406 H 0.91796 0.07232 0.90666 0.0
H1407 H 0.92017 0.14674 0.86518 0.0
Li1408 Li 0.92242 0.53994 0.68047 0.0
Li1409 Li 0.95235 0.55356 0.65215 0.0
Li1410 Li 0.8976 0.57388 0.65702 0.0
Li1411 Li 0.90741 0.516 0.65117 0.0
C1412 C 0.94927 0.59713 0.68684 0.0
N1413 N 0.97505 0.62335 0.71833 0.0
C1414 C 0.98281 0.59802 0.68935 0.0
C1415 C 0.92884 0.60966 0.7003 0.0
C1416 C 0.99537 0.6114 0.70537 0.0
C1417 C 0.94235 0.62275 0.71615 0.0
C1418 C 0.95514 0.47894 0.66334 0.0
C1419 C 0.96917 0.43212 0.64534 0.0
N1420 N 0.96494 0.41301 0.66027 0.0
C1421 C 0.95114 0.45889 0.67854 0.0
C1422 C 0.96444 0.46554 0.64663 0.0
C1423 C 0.95615 0.42559 0.6767 0.0
C1424 C 0.89701 0.51599 0.71314 0.0
N1425 N 0.92432 0.52908 0.7059 0.0
C1426 C 0.95275 0.52056 0.73398 0.0
C1427 C 0.95205 0.53121 0.71584 0.0
C1428 C 0.92483 0.50682 0.74187 0.0
C1429 C 0.89674 0.50461 0.73108 0.0
H1430 H 0.87555 0.51356 0.70482 0.0
H1431 H 0.97381 0.54066 0.70963 0.0
C1432 C 0.99558 0.60019 0.64016 0.0
N1433 N 0.99242 0.56755 0.64169 0.0
C1434 C 0.02321 0.61364 0.63229 0.0
C1435 C 0.04408 0.55962 0.62758 0.0
C1436 C 0.01588 0.54715 0.63557 0.0
C1437 C 0.04808 0.59335 0.62595 0.0
H1438 H 0.97638 0.61582 0.64497 0.0
H1439 H 0.01272 0.52127 0.63688 0.0
C1440 C 0.84734 0.54481 0.67095 0.0
N1441 N 0.78362 0.56492 0.67246 0.0
C1442 C 0.82505 0.53371 0.65803 0.0
C1443 C 0.83723 0.56597 0.68469 0.0
C1444 C 0.79293 0.54419 0.65902 0.0
C1445 C 0.80491 0.57591 0.6852 0.0
C1446 C 0.92926 0.56285 0.6191 0.0
C1447 C 0.92935 0.59573 0.61457 0.0
C1448 C 0.94487 0.54062 0.60773 0.0
C1449 C 0.94538 0.60587 0.59879 0.0
C1450 C 0.96065 0.55173 0.59207 0.0
N1451 N 0.9606 0.58385 0.58797 0.0
C1452 C 0.87623 0.63905 0.65861 0.0
C1453 C 0.84874 0.6061 0.63715 0.0
C1454 C 0.86045 0.66661 0.65203 0.0
N1455 N 0.87043 0.60966 0.65097 0.0
C1456 C 0.83234 0.633 0.63018 0.0
C1457 C 0.83859 0.66394 0.63737 0.0
H1458 H 0.89427 0.64137 0.66921 0.0
H1459 H 0.84521 0.58254 0.63102 0.0
C1460 C 0.87857 0.45479 0.65325 0.0
N1461 N 0.88748 0.47838 0.64133 0.0
C1462 C 0.85909 0.42915 0.64749 0.0
C1463 C 0.85817 0.45264 0.61729 0.0
C1464 C 0.87812 0.47759 0.62358 0.0
C1465 C 0.84781 0.42823 0.6294 0.0
H1466 H 0.88543 0.45663 0.66744 0.0
H1467 H 0.88467 0.49724 0.61455 0.0
O1468 O 0.93647 0.58401 0.6713 0.0
O1469 O 0.95001 0.51154 0.66482 0.0
O1470 O 0.87902 0.53538 0.67001 0.0
O1471 O 0.91451 0.55255 0.63477 0.0
H1472 H 0.99898 0.58819 0.67914 0.0
H1473 H 0.90284 0.60909 0.69858 0.0
H1474 H 0.02127 0.61216 0.70753 0.0
H1475 H 0.92682 0.63242 0.72672 0.0
H1476 H 0.97616 0.42138 0.63247 0.0
H1477 H 0.94404 0.46888 0.69158 0.0
H1478 H 0.96766 0.48073 0.63476 0.0
H1479 H 0.95298 0.40975 0.68832 0.0
H1480 H 0.97495 0.52312 0.7417 0.0
H1481 H 0.87484 0.49349 0.73623 0.0
H1482 H 0.0249 0.63971 0.63105 0.0
H1483 H 0.06274 0.54307 0.62302 0.0
H1484 H 0.8325 0.51742 0.64726 0.0
H1485 H 0.85421 0.57473 0.69479 0.0
H1486 H 0.77543 0.53591 0.64908 0.0
H1487 H 0.79676 0.59239 0.69572 0.0
H1488 H 0.9176 0.61331 0.62329 0.0
H1489 H 0.945 0.5151 0.61103 0.0
H1490 H 0.94584 0.63127 0.59518 0.0
H1491 H 0.973 0.53482 0.5832 0.0
H1492 H 0.86661 0.68995 0.6578 0.0
H1493 H 0.81555 0.62969 0.61898 0.0
H1494 H 0.85215 0.41081 0.6573 0.0
H1495 H 0.84961 0.45355 0.60334 0.0
Li1496 Li 0.698 0.70236 0.90216 0.0
Li1497 Li 0.71162 0.67243 0.93047 0.0
Li1498 Li 0.73555 0.65742 0.90117 0.0
Li1499 Li 0.67767 0.64761 0.90702 0.0
C1500 C 0.77262 0.70515 0.91334 0.0
N1501 N 0.83856 0.71494 0.91027 0.0
C1502 C 0.79267 0.70115 0.92854 0.0
C1503 C 0.78602 0.71444 0.89664 0.0
C1504 C 0.82597 0.70615 0.9267 0.0
C1505 C 0.81944 0.71917 0.89535 0.0
C1506 C 0.65443 0.69928 0.93684 0.0
C1507 C 0.62881 0.69234 0.96615 0.0
N1508 N 0.62821 0.72504 0.96834 0.0
C1509 C 0.65355 0.73282 0.93936 0.0
C1510 C 0.6419 0.67884 0.95031 0.0
C1511 C 0.64016 0.74537 0.95538 0.0
C1512 C 0.65137 0.7456 0.89017 0.0
N1513 N 0.68401 0.74243 0.89169 0.0
C1514 C 0.69194 0.79409 0.87758 0.0
C1515 C 0.70442 0.76589 0.88557 0.0
C1516 C 0.65821 0.7981 0.87595 0.0
C1517 C 0.63792 0.77323 0.8823 0.0
H1518 H 0.63574 0.7264 0.89498 0.0
H1519 H 0.73029 0.76272 0.88688 0.0
C1520 C 0.73557 0.64701 0.96315 0.0
N1521 N 0.72248 0.67432 0.9559 0.0
C1522 C 0.74696 0.64674 0.98108 0.0
C1523 C 0.73101 0.70274 0.98399 0.0
C1524 C 0.72035 0.70205 0.96585 0.0
C1525 C 0.74474 0.67483 0.99187 0.0
H1526 H 0.738 0.62555 0.95482 0.0
H1527 H 0.7109 0.72381 0.95964 0.0
C1528 C 0.6887 0.67928 0.86911 0.0
N1529 N 0.6677 0.71062 0.83798 0.0
C1530 C 0.65582 0.67937 0.86458 0.0
C1531 C 0.71093 0.69489 0.85773 0.0
C1532 C 0.64568 0.6954 0.8488 0.0
C1533 C 0.69982 0.71067 0.84208 0.0
C1534 C 0.70675 0.59734 0.92095 0.0
C1535 C 0.71785 0.57506 0.90803 0.0
C1536 C 0.68559 0.58723 0.93469 0.0
C1537 C 0.70737 0.54294 0.90902 0.0
C1538 C 0.67565 0.55491 0.9352 0.0
N1539 N 0.68664 0.53363 0.92246 0.0
C1540 C 0.79677 0.62858 0.90325 0.0
C1541 C 0.77397 0.62813 0.87358 0.0
C1542 C 0.82241 0.60909 0.89749 0.0
N1543 N 0.77317 0.63749 0.89133 0.0
C1544 C 0.79892 0.60817 0.86729 0.0
C1545 C 0.82333 0.59782 0.8794 0.0
H1546 H 0.79492 0.63544 0.91744 0.0
H1547 H 0.75432 0.63468 0.86455 0.0
C1548 C 0.6125 0.62624 0.90861 0.0
N1549 N 0.6419 0.62044 0.90097 0.0
C1550 C 0.58495 0.61046 0.90203 0.0
C1551 C 0.61856 0.58235 0.88018 0.0
C1552 C 0.64546 0.59875 0.88715 0.0
C1553 C 0.58762 0.5886 0.88737 0.0
H1554 H 0.61019 0.64427 0.91921 0.0
H1555 H 0.66902 0.59522 0.88102 0.0
O1556 O 0.74002 0.70002 0.91482 0.0
O1557 O 0.66755 0.68648 0.92131 0.0
O1558 O 0.69901 0.66453 0.88477 0.0
O1559 O 0.71618 0.62903 0.92001 0.0
H1560 H 0.78269 0.69404 0.94159 0.0
H1561 H 0.77083 0.71766 0.88476 0.0
H1562 H 0.84181 0.70299 0.93832 0.0
H1563 H 0.83018 0.72616 0.88247 0.0
H1564 H 0.61914 0.67682 0.97672 0.0
H1565 H 0.66337 0.74899 0.92915 0.0
H1566 H 0.64247 0.65284 0.94858 0.0
H1567 H 0.6394 0.77127 0.95754 0.0
H1568 H 0.70849 0.81275 0.87302 0.0
H1569 H 0.61185 0.77492 0.88107 0.0
H1570 H 0.75807 0.62484 0.98624 0.0
H1571 H 0.72844 0.72494 0.9917 0.0
H1572 H 0.63825 0.66762 0.87329 0.0
H1573 H 0.73646 0.69501 0.86103 0.0
H1574 H 0.62028 0.69587 0.84519 0.0
H1575 H 0.71673 0.72301 0.8332 0.0
H1576 H 0.73413 0.58251 0.89726 0.0
H1577 H 0.67683 0.60421 0.94479 0.0
H1578 H 0.71564 0.52544 0.89907 0.0
H1579 H 0.65917 0.54676 0.94572 0.0
H1580 H 0.84075 0.60216 0.9073 0.0
H1581 H 0.798 0.59962 0.85334 0.0
H1582 H 0.56161 0.61661 0.9078 0.0
H1583 H 0.62187 0.56557 0.86898 0.0
Li1584 Li 0.57913 0.46162 0.18047 0.0
Li1585 Li 0.5492 0.448 0.15215 0.0
Li1586 Li 0.60395 0.42767 0.15702 0.0
Li1587 Li 0.59414 0.48555 0.15117 0.0
C1588 C 0.55228 0.40442 0.18684 0.0
N1589 N 0.52652 0.3782 0.21833 0.0
C1590 C 0.51874 0.40354 0.18936 0.0
C1591 C 0.57272 0.3919 0.2003 0.0
C1592 C 0.50619 0.39015 0.20538 0.0
C1593 C 0.55922 0.3788 0.21615 0.0
C1594 C 0.54641 0.52262 0.16334 0.0
C1595 C 0.53239 0.56944 0.14534 0.0
N1596 N 0.53662 0.58855 0.16027 0.0
C1597 C 0.55041 0.54267 0.17854 0.0
C1598 C 0.53712 0.53602 0.14663 0.0
C1599 C 0.54541 0.57597 0.1767 0.0
C1600 C 0.60455 0.48557 0.21314 0.0
N1601 N 0.57723 0.47248 0.2059 0.0
C1602 C 0.54881 0.481 0.23398 0.0
C1603 C 0.5495 0.47034 0.21584 0.0
C1604 C 0.57672 0.49474 0.24187 0.0
C1605 C 0.60482 0.49695 0.23108 0.0
H1606 H 0.626 0.488 0.20482 0.0
H1607 H 0.52775 0.46089 0.20963 0.0
C1608 C 0.50595 0.40137 0.14017 0.0
N1609 N 0.50912 0.43401 0.14169 0.0
C1610 C 0.47832 0.38793 0.1323 0.0
C1611 C 0.45747 0.44195 0.12758 0.0
C1612 C 0.48567 0.45442 0.13557 0.0
C1613 C 0.45346 0.40821 0.12595 0.0
H1614 H 0.52515 0.38574 0.14498 0.0
H1615 H 0.48884 0.4803 0.13688 0.0
C1616 C 0.65421 0.45675 0.17094 0.0
N1617 N 0.71793 0.43664 0.17246 0.0
C1618 C 0.6765 0.46785 0.15803 0.0
C1619 C 0.66433 0.43559 0.18469 0.0
C1620 C 0.70862 0.45737 0.15902 0.0
C1621 C 0.69664 0.42565 0.1852 0.0
C1622 C 0.57228 0.4387 0.1191 0.0
C1623 C 0.57218 0.40582 0.11458 0.0
C1624 C 0.55667 0.46093 0.10773 0.0
C1625 C 0.55615 0.39568 0.09879 0.0
C1626 C 0.54088 0.44982 0.09208 0.0
N1627 N 0.54093 0.4177 0.08798 0.0
C1628 C 0.62532 0.3625 0.1586 0.0
C1629 C 0.65281 0.39546 0.13715 0.0
C1630 C 0.6411 0.33495 0.15203 0.0
N1631 N 0.63112 0.3919 0.15096 0.0
C1632 C 0.66921 0.36856 0.13017 0.0
C1633 C 0.66296 0.33762 0.13736 0.0
H1634 H 0.60728 0.36018 0.16921 0.0
H1635 H 0.65634 0.41902 0.13101 0.0
C1636 C 0.62298 0.54677 0.15325 0.0
N1637 N 0.61407 0.52317 0.14133 0.0
C1638 C 0.64247 0.57241 0.14749 0.0
C1639 C 0.64339 0.54891 0.11729 0.0
C1640 C 0.62343 0.52397 0.12358 0.0
C1641 C 0.65375 0.57332 0.1294 0.0
H1642 H 0.61612 0.54492 0.16744 0.0
H1643 H 0.61688 0.50432 0.11455 0.0
O1644 O 0.56508 0.41755 0.1713 0.0
O1645 O 0.55154 0.49002 0.16482 0.0
O1646 O 0.62253 0.46618 0.17001 0.0
O1647 O 0.58703 0.44901 0.13477 0.0
H1648 H 0.50257 0.41336 0.17915 0.0
H1649 H 0.59872 0.39246 0.19857 0.0
H1650 H 0.48029 0.38939 0.20754 0.0
H1651 H 0.57475 0.36913 0.22672 0.0
H1652 H 0.5254 0.58018 0.13247 0.0
H1653 H 0.55751 0.53268 0.19159 0.0
H1654 H 0.5339 0.52083 0.13476 0.0
H1655 H 0.54857 0.59181 0.18832 0.0
H1656 H 0.52661 0.47843 0.2417 0.0
H1657 H 0.62671 0.50807 0.23623 0.0
H1658 H 0.47663 0.36185 0.13107 0.0
H1659 H 0.43881 0.4585 0.12302 0.0
H1660 H 0.66905 0.48413 0.14726 0.0
H1661 H 0.64734 0.42683 0.19479 0.0
H1662 H 0.72612 0.46564 0.14907 0.0
H1663 H 0.7048 0.40917 0.19572 0.0
H1664 H 0.58393 0.38825 0.12329 0.0
H1665 H 0.55655 0.48646 0.11103 0.0
H1666 H 0.55568 0.37028 0.09519 0.0
H1667 H 0.52854 0.46673 0.0832 0.0
H1668 H 0.63495 0.31161 0.15779 0.0
H1669 H 0.68599 0.37187 0.11897 0.0
H1670 H 0.6494 0.59074 0.1573 0.0
H1671 H 0.65194 0.548 0.10334 0.0
Li1672 Li 0.78995 0.32915 0.43047 0.0
Li1673 Li 0.80357 0.29923 0.40215 0.0
Li1674 Li 0.82389 0.35397 0.40702 0.0
Li1675 Li 0.76601 0.34417 0.40117 0.0
C1676 C 0.84714 0.3023 0.43684 0.0
N1677 N 0.87336 0.27652 0.46833 0.0
C1678 C 0.84803 0.26876 0.43935 0.0
C1679 C 0.85966 0.32272 0.4503 0.0
C1680 C 0.86141 0.25619 0.45536 0.0
C1681 C 0.87276 0.30922 0.46615 0.0
C1682 C 0.72896 0.29643 0.41334 0.0
C1683 C 0.68213 0.2824 0.39534 0.0
N1684 N 0.66302 0.28662 0.41027 0.0
C1685 C 0.7089 0.30042 0.42854 0.0
C1686 C 0.71555 0.28713 0.39663 0.0
C1687 C 0.6756 0.29542 0.4267 0.0
C1688 C 0.766 0.35456 0.46314 0.0
N1689 N 0.77909 0.32725 0.4559 0.0
C1690 C 0.77057 0.29882 0.48398 0.0
C1691 C 0.78122 0.29951 0.46584 0.0
C1692 C 0.75683 0.32673 0.49187 0.0
C1693 C 0.75461 0.35483 0.48108 0.0
H1694 H 0.76356 0.37602 0.45482 0.0
H1695 H 0.79067 0.27776 0.45963 0.0
C1696 C 0.8502 0.25599 0.39015 0.0
N1697 N 0.81756 0.25915 0.39168 0.0
C1698 C 0.86365 0.22837 0.38228 0.0
C1699 C 0.80963 0.20749 0.37758 0.0
C1700 C 0.79716 0.23569 0.38557 0.0
C1701 C 0.84337 0.20349 0.37594 0.0
H1702 H 0.86584 0.2752 0.39496 0.0
H1703 H 0.77128 0.23885 0.38689 0.0
C1704 C 0.79481 0.40423 0.42095 0.0
N1705 N 0.81493 0.46795 0.42246 0.0
C1706 C 0.78371 0.42652 0.40803 0.0
C1707 C 0.81598 0.41434 0.43469 0.0
C1708 C 0.7942 0.45864 0.40902 0.0
C1709 C 0.82592 0.44666 0.4352 0.0
C1710 C 0.81286 0.32231 0.3691 0.0
C1711 C 0.84574 0.32223 0.36457 0.0
C1712 C 0.79063 0.3067 0.35773 0.0
C1713 C 0.85588 0.3062 0.34878 0.0
C1714 C 0.80174 0.29092 0.34207 0.0
N1715 N 0.83386 0.29098 0.33797 0.0
C1716 C 0.88906 0.37534 0.40861 0.0
C1717 C 0.85611 0.40284 0.38715 0.0
C1718 C 0.91662 0.39112 0.40203 0.0
N1719 N 0.85967 0.38114 0.40097 0.0
C1720 C 0.88301 0.41924 0.38018 0.0
C1721 C 0.91395 0.41298 0.38737 0.0
H1722 H 0.89138 0.35731 0.41921 0.0
H1723 H 0.83255 0.40637 0.38102 0.0
C1724 C 0.7048 0.373 0.40325 0.0
N1725 N 0.72839 0.36409 0.39133 0.0
C1726 C 0.67915 0.39248 0.39749 0.0
C1727 C 0.70265 0.3934 0.36729 0.0
C1728 C 0.72759 0.37345 0.37358 0.0
C1729 C 0.67823 0.40376 0.3794 0.0
H1730 H 0.70664 0.36614 0.41744 0.0
H1731 H 0.74725 0.3669 0.36455 0.0
O1732 O 0.83402 0.3151 0.4213 0.0
O1733 O 0.76155 0.30156 0.41481 0.0
O1734 O 0.78539 0.37255 0.42001 0.0
O1735 O 0.80256 0.33706 0.38477 0.0
H1736 H 0.83821 0.25259 0.42914 0.0
H1737 H 0.8591 0.34873 0.44858 0.0
H1738 H 0.86217 0.23029 0.45752 0.0
H1739 H 0.88242 0.32474 0.47672 0.0
H1740 H 0.67139 0.27541 0.38247 0.0
H1741 H 0.71889 0.30753 0.44158 0.0
H1742 H 0.73074 0.28391 0.38475 0.0
H1743 H 0.65976 0.29858 0.43832 0.0
H1744 H 0.77313 0.27662 0.49169 0.0
H1745 H 0.7435 0.37672 0.48623 0.0
H1746 H 0.88972 0.22668 0.38104 0.0
H1747 H 0.79309 0.18883 0.37303 0.0
H1748 H 0.76743 0.41907 0.39726 0.0
H1749 H 0.82474 0.39736 0.44479 0.0
H1750 H 0.78592 0.47614 0.39908 0.0
H1751 H 0.8424 0.45481 0.44572 0.0
H1752 H 0.86332 0.33398 0.37328 0.0
H1753 H 0.76511 0.30658 0.36103 0.0
H1754 H 0.88127 0.30574 0.34517 0.0
H1755 H 0.78483 0.27858 0.3332 0.0
H1756 H 0.93996 0.38497 0.4078 0.0
H1757 H 0.8797 0.43602 0.36898 0.0
H1758 H 0.66081 0.39941 0.4073 0.0
H1759 H 0.70356 0.40196 0.35334 0.0
Li1760 Li 0.9074 0.48555 0.85181 0.0
Li1761 Li 0.89759 0.42767 0.84596 0.0
Li1762 Li 0.95234 0.44799 0.85083 0.0
Li1763 Li 0.92242 0.46161 0.82251 0.0
C1764 C 0.92925 0.4387 0.88388 0.0
N1765 N 0.96058 0.4177 0.91501 0.0
C1766 C 0.92933 0.40582 0.88841 0.0
C1767 C 0.94486 0.46093 0.89525 0.0
C1768 C 0.94536 0.39568 0.90419 0.0
C1769 C 0.96064 0.44982 0.91091 0.0
C1770 C 0.84733 0.45675 0.83203 0.0
C1771 C 0.8049 0.42565 0.81777 0.0
N1772 N 0.78361 0.43665 0.83051 0.0
C1773 C 0.82504 0.46785 0.84494 0.0
C1774 C 0.83722 0.43559 0.81829 0.0
C1775 C 0.79292 0.45737 0.84395 0.0
C1776 C 0.87857 0.54677 0.84973 0.0
N1777 N 0.88748 0.52317 0.86165 0.0
C1778 C 0.85816 0.54892 0.88569 0.0
C1779 C 0.87811 0.52397 0.8794 0.0
C1780 C 0.84781 0.57333 0.87358 0.0
C1781 C 0.85909 0.57241 0.85549 0.0
H1782 H 0.88543 0.54492 0.83554 0.0
H1783 H 0.88466 0.50432 0.88843 0.0
C1784 C 0.87622 0.3625 0.84437 0.0
N1785 N 0.87042 0.3919 0.85201 0.0
C1786 C 0.86044 0.33495 0.85094 0.0
C1787 C 0.83232 0.36855 0.8728 0.0
C1788 C 0.84872 0.39546 0.86583 0.0
C1789 C 0.83858 0.33761 0.86561 0.0
H1790 H 0.89426 0.36019 0.83377 0.0
H1791 H 0.84519 0.41901 0.87196 0.0
C1792 C 0.95514 0.52261 0.83964 0.0
N1793 N 0.96494 0.58855 0.84271 0.0
C1794 C 0.95114 0.54266 0.82444 0.0
C1795 C 0.96443 0.53602 0.85635 0.0
C1796 C 0.95615 0.57596 0.82629 0.0
C1797 C 0.96916 0.56943 0.85764 0.0
C1798 C 0.94927 0.40442 0.81614 0.0
C1799 C 0.98281 0.40353 0.81363 0.0
C1800 C 0.92884 0.3919 0.80268 0.0
C1801 C 0.99537 0.39015 0.79762 0.0
C1802 C 0.94234 0.3788 0.78683 0.0
N1803 N 0.97505 0.3782 0.78465 0.0
C1804 C 0.99557 0.40136 0.86283 0.0
C1805 C 0.01587 0.4544 0.86741 0.0
C1806 C 0.0232 0.38791 0.87069 0.0
N1807 N 0.99241 0.434 0.8613 0.0
C1808 C 0.04407 0.44193 0.8754 0.0
C1809 C 0.04807 0.4082 0.87704 0.0
H1810 H 0.97637 0.38573 0.85802 0.0
H1811 H 0.01271 0.48028 0.8661 0.0
C1812 C 0.89701 0.48557 0.78984 0.0
N1813 N 0.92432 0.47248 0.79708 0.0
C1814 C 0.89674 0.49696 0.7719 0.0
C1815 C 0.95274 0.48099 0.769 0.0
C1816 C 0.95205 0.47034 0.78714 0.0
C1817 C 0.92483 0.49473 0.76111 0.0
H1818 H 0.87555 0.48801 0.79816 0.0
H1819 H 0.9738 0.46088 0.79335 0.0
O1820 O 0.9145 0.44901 0.86821 0.0
O1821 O 0.87901 0.46618 0.83297 0.0
O1822 O 0.95001 0.49001 0.83816 0.0
O1823 O 0.93646 0.41754 0.83168 0.0
H1824 H 0.91758 0.38825 0.87969 0.0
H1825 H 0.94499 0.48646 0.89195 0.0
H1826 H 0.94582 0.37028 0.9078 0.0
H1827 H 0.97298 0.46673 0.91978 0.0
H1828 H 0.79675 0.40918 0.80725 0.0
H1829 H 0.83249 0.48414 0.85571 0.0
H1830 H 0.85421 0.42683 0.80819 0.0
H1831 H 0.77542 0.46565 0.8539 0.0
H1832 H 0.8496 0.54801 0.89964 0.0
H1833 H 0.85216 0.59075 0.84568 0.0
H1834 H 0.86659 0.31161 0.84518 0.0
H1835 H 0.81554 0.37186 0.884 0.0
H1836 H 0.94404 0.53268 0.8114 0.0
H1837 H 0.96765 0.52082 0.86823 0.0
H1838 H 0.95298 0.5918 0.81466 0.0
H1839 H 0.97615 0.58017 0.87051 0.0
H1840 H 0.99897 0.41335 0.82384 0.0
H1841 H 0.90283 0.39247 0.8044 0.0
H1842 H 0.02127 0.38939 0.79546 0.0
H1843 H 0.92682 0.36914 0.77626 0.0
H1844 H 0.02488 0.36184 0.87194 0.0
H1845 H 0.06273 0.45848 0.87996 0.0
H1846 H 0.87484 0.50808 0.76675 0.0
H1847 H 0.97494 0.47842 0.76128 0.0
Li1848 Li 0.8239 0.64758 0.09596 0.0
Li1849 Li 0.76602 0.65739 0.10181 0.0
Li1850 Li 0.78996 0.67241 0.07252 0.0
Li1851 Li 0.80358 0.70233 0.10083 0.0
C1852 C 0.79482 0.59732 0.08203 0.0
N1853 N 0.81492 0.5336 0.08051 0.0
C1854 C 0.78372 0.57503 0.09494 0.0
C1855 C 0.81598 0.58721 0.06829 0.0
C1856 C 0.7942 0.54291 0.09395 0.0
C1857 C 0.82592 0.55489 0.06777 0.0
C1858 C 0.81286 0.67923 0.13388 0.0
C1859 C 0.80174 0.71062 0.16091 0.0
N1860 N 0.83386 0.71056 0.16502 0.0
C1861 C 0.84574 0.67931 0.13841 0.0
C1862 C 0.79063 0.69484 0.14525 0.0
C1863 C 0.85588 0.69533 0.1542 0.0
C1864 C 0.88907 0.62621 0.09437 0.0
N1865 N 0.85967 0.62041 0.10201 0.0
C1866 C 0.88302 0.58231 0.1228 0.0
C1867 C 0.85611 0.59871 0.11583 0.0
C1868 C 0.91396 0.58857 0.11561 0.0
C1869 C 0.91662 0.61043 0.10094 0.0
H1870 H 0.89138 0.64424 0.08377 0.0
H1871 H 0.83256 0.59518 0.12196 0.0
C1872 C 0.7048 0.62856 0.09973 0.0
N1873 N 0.7284 0.63747 0.11165 0.0
C1874 C 0.67915 0.60908 0.10549 0.0
C1875 C 0.70265 0.60815 0.13569 0.0
C1876 C 0.7276 0.62811 0.1294 0.0
C1877 C 0.67824 0.5978 0.12358 0.0
H1878 H 0.70665 0.63542 0.08554 0.0
H1879 H 0.74725 0.63465 0.13843 0.0
C1880 C 0.84715 0.69926 0.06615 0.0
N1881 N 0.87337 0.72505 0.03466 0.0
C1882 C 0.84804 0.7328 0.06364 0.0
C1883 C 0.85967 0.67884 0.05268 0.0
C1884 C 0.86142 0.74537 0.04762 0.0
C1885 C 0.87277 0.69234 0.03683 0.0
C1886 C 0.72896 0.70513 0.08965 0.0
C1887 C 0.70891 0.70114 0.07444 0.0
C1888 C 0.71555 0.71443 0.10635 0.0
C1889 C 0.67561 0.70614 0.07629 0.0
C1890 C 0.68214 0.71916 0.10764 0.0
N1891 N 0.66302 0.71494 0.09271 0.0
C1892 C 0.766 0.647 0.03984 0.0
C1893 C 0.78123 0.70204 0.03714 0.0
C1894 C 0.75461 0.64674 0.02191 0.0
N1895 N 0.77909 0.67431 0.04708 0.0
C1896 C 0.77058 0.70274 0.019 0.0
C1897 C 0.75683 0.67483 0.01111 0.0
H1898 H 0.76356 0.62554 0.04816 0.0
H1899 H 0.79069 0.7238 0.04335 0.0
C1900 C 0.85021 0.74555 0.11284 0.0
N1901 N 0.81757 0.74239 0.1113 0.0
C1902 C 0.86366 0.77318 0.12071 0.0
C1903 C 0.80964 0.79406 0.12541 0.0
C1904 C 0.79717 0.76586 0.11741 0.0
C1905 C 0.84338 0.79805 0.12705 0.0
H1906 H 0.86584 0.72635 0.10803 0.0
H1907 H 0.77129 0.76271 0.11609 0.0
O1908 O 0.78539 0.629 0.08297 0.0
O1909 O 0.80256 0.66449 0.11822 0.0
O1910 O 0.83403 0.68645 0.08168 0.0
O1911 O 0.76156 0.7 0.08817 0.0
H1912 H 0.76743 0.58248 0.10571 0.0
H1913 H 0.82474 0.6042 0.05819 0.0
H1914 H 0.78592 0.52541 0.1039 0.0
H1915 H 0.84239 0.54674 0.05726 0.0
H1916 H 0.78483 0.72296 0.16978 0.0
H1917 H 0.86332 0.66756 0.1297 0.0
H1918 H 0.76511 0.69497 0.14195 0.0
H1919 H 0.88128 0.69579 0.15781 0.0
H1920 H 0.87971 0.56553 0.134 0.0
H1921 H 0.93996 0.61659 0.09518 0.0
H1922 H 0.66081 0.60215 0.09568 0.0
H1923 H 0.70356 0.5996 0.14964 0.0
H1924 H 0.83822 0.74897 0.07385 0.0
H1925 H 0.8591 0.65283 0.0544 0.0
H1926 H 0.86218 0.77127 0.04547 0.0
H1927 H 0.88243 0.67683 0.02626 0.0
H1928 H 0.71889 0.69403 0.0614 0.0
H1929 H 0.73075 0.71765 0.11823 0.0
H1930 H 0.65977 0.70298 0.06467 0.0
H1931 H 0.6714 0.72615 0.12051 0.0
H1932 H 0.74349 0.62484 0.01675 0.0
H1933 H 0.77315 0.72494 0.01129 0.0
H1934 H 0.88973 0.77486 0.12195 0.0
H1935 H 0.7931 0.81272 0.12996 0.0
Li1936 Li 0.60395 0.57389 0.34596 0.0
Li1937 Li 0.59415 0.51601 0.35181 0.0
Li1938 Li 0.57913 0.53995 0.32251 0.0
Li1939 Li 0.54921 0.55357 0.35083 0.0
C1940 C 0.65422 0.54481 0.33203 0.0
N1941 N 0.71794 0.56492 0.33052 0.0
C1942 C 0.67651 0.53371 0.34495 0.0
C1943 C 0.66433 0.56597 0.31829 0.0
C1944 C 0.70862 0.54419 0.34396 0.0
C1945 C 0.69665 0.57591 0.31778 0.0
C1946 C 0.57229 0.56286 0.38388 0.0
C1947 C 0.5409 0.55174 0.41091 0.0
N1948 N 0.54095 0.58387 0.41501 0.0
C1949 C 0.5722 0.59574 0.3884 0.0
C1950 C 0.55668 0.54063 0.39525 0.0
C1951 C 0.55617 0.60588 0.40419 0.0
C1952 C 0.62532 0.63906 0.34438 0.0
N1953 N 0.63112 0.60966 0.35202 0.0
C1954 C 0.66922 0.63301 0.37281 0.0
C1955 C 0.65282 0.6061 0.36583 0.0
C1956 C 0.66297 0.66395 0.36562 0.0
C1957 C 0.64111 0.66662 0.35095 0.0
H1958 H 0.60729 0.64138 0.33377 0.0
H1959 H 0.65635 0.58254 0.37196 0.0
C1960 C 0.62299 0.4548 0.34973 0.0
N1961 N 0.61407 0.47839 0.36165 0.0
C1962 C 0.64247 0.42915 0.35549 0.0
C1963 C 0.64339 0.45265 0.38569 0.0
C1964 C 0.62343 0.47759 0.3794 0.0
C1965 C 0.65375 0.42824 0.37358 0.0
H1966 H 0.61612 0.45664 0.33554 0.0
H1967 H 0.61688 0.49724 0.38843 0.0
C1968 C 0.55229 0.59714 0.31614 0.0
N1969 N 0.52652 0.62337 0.28465 0.0
C1970 C 0.51875 0.59803 0.31363 0.0
C1971 C 0.57272 0.60966 0.30268 0.0
C1972 C 0.50619 0.61141 0.29761 0.0
C1973 C 0.55922 0.62276 0.28683 0.0
C1974 C 0.54641 0.47895 0.33964 0.0
C1975 C 0.55041 0.4589 0.32444 0.0
C1976 C 0.53712 0.46554 0.35635 0.0
C1977 C 0.54541 0.4256 0.32628 0.0
C1978 C 0.53239 0.43212 0.35764 0.0
N1979 N 0.53662 0.41301 0.34271 0.0
C1980 C 0.60455 0.51599 0.28984 0.0
C1981 C 0.5495 0.53122 0.28714 0.0
C1982 C 0.60482 0.50461 0.2719 0.0
N1983 N 0.57723 0.52909 0.29708 0.0
C1984 C 0.54881 0.52057 0.269 0.0
C1985 C 0.57672 0.50683 0.26111 0.0
H1986 H 0.626 0.51356 0.29816 0.0
H1987 H 0.52775 0.54067 0.29335 0.0
C1988 C 0.50596 0.60019 0.36282 0.0
N1989 N 0.50913 0.56755 0.36129 0.0
C1990 C 0.47833 0.61364 0.37068 0.0
C1991 C 0.45747 0.55962 0.3754 0.0
C1992 C 0.48568 0.54715 0.36741 0.0
C1993 C 0.45347 0.59335 0.37703 0.0
H1994 H 0.52516 0.61583 0.358 0.0
H1995 H 0.48884 0.52127 0.3661 0.0
O1996 O 0.62253 0.53538 0.33297 0.0
O1997 O 0.58704 0.55255 0.36821 0.0
O1998 O 0.56509 0.58402 0.33168 0.0
O1999 O 0.55154 0.51155 0.33816 0.0
H2000 H 0.66906 0.51743 0.35572 0.0
H2001 H 0.64735 0.57473 0.30819 0.0
H2002 H 0.72612 0.53592 0.3539 0.0
H2003 H 0.7048 0.59239 0.30726 0.0
H2004 H 0.52855 0.53483 0.41978 0.0
H2005 H 0.58395 0.61332 0.37969 0.0
H2006 H 0.55656 0.5151 0.39195 0.0
H2007 H 0.5557 0.63128 0.40779 0.0
H2008 H 0.686 0.62969 0.384 0.0
H2009 H 0.63495 0.68996 0.34519 0.0
H2010 H 0.6494 0.41082 0.34568 0.0
H2011 H 0.65195 0.45356 0.39964 0.0
H2012 H 0.50258 0.5882 0.32383 0.0
H2013 H 0.59873 0.6091 0.3044 0.0
H2014 H 0.48029 0.61217 0.29545 0.0
H2015 H 0.57475 0.63243 0.27626 0.0
H2016 H 0.55751 0.46888 0.31139 0.0
H2017 H 0.5339 0.48073 0.36822 0.0
H2018 H 0.54857 0.40976 0.31466 0.0
H2019 H 0.5254 0.42138 0.37051 0.0
H2020 H 0.62671 0.49349 0.26675 0.0
H2021 H 0.52661 0.52313 0.26128 0.0
H2022 H 0.47664 0.63971 0.37192 0.0
H2023 H 0.43882 0.54307 0.37996 0.0
Li2024 Li 0.73555 0.34415 0.60181 0.0
Li2025 Li 0.67767 0.35396 0.59596 0.0
Li2026 Li 0.69799 0.29921 0.60083 0.0
Li2027 Li 0.71161 0.32914 0.57251 0.0
C2028 C 0.6887 0.3223 0.63388 0.0
N2029 N 0.66769 0.29096 0.66501 0.0
C2030 C 0.65582 0.32221 0.6384 0.0
C2031 C 0.71093 0.30669 0.64525 0.0
C2032 C 0.64567 0.30619 0.65419 0.0
C2033 C 0.69981 0.29091 0.6609 0.0
C2034 C 0.70675 0.40422 0.58203 0.0
C2035 C 0.67565 0.44665 0.56777 0.0
N2036 N 0.68664 0.46794 0.58051 0.0
C2037 C 0.71785 0.42651 0.59494 0.0
C2038 C 0.68559 0.41433 0.56829 0.0
C2039 C 0.70737 0.45863 0.59395 0.0
C2040 C 0.79676 0.37299 0.59973 0.0
N2041 N 0.77317 0.36408 0.61164 0.0
C2042 C 0.79891 0.39339 0.63569 0.0
C2043 C 0.77397 0.37344 0.6294 0.0
C2044 C 0.82332 0.40375 0.62358 0.0
C2045 C 0.82241 0.39247 0.60549 0.0
H2046 H 0.79492 0.36613 0.58554 0.0
H2047 H 0.75431 0.36689 0.63843 0.0
C2048 C 0.6125 0.37533 0.59437 0.0
N2049 N 0.6419 0.38113 0.60201 0.0
C2050 C 0.58494 0.39112 0.60094 0.0
C2051 C 0.61855 0.41923 0.6228 0.0
C2052 C 0.64546 0.40283 0.61583 0.0
C2053 C 0.58761 0.41298 0.61561 0.0
H2054 H 0.61018 0.3573 0.58377 0.0
H2055 H 0.66901 0.40636 0.62196 0.0
C2056 C 0.77261 0.29642 0.58964 0.0
N2057 N 0.83855 0.28661 0.59271 0.0
C2058 C 0.79266 0.30041 0.57444 0.0
C2059 C 0.78601 0.28712 0.60635 0.0
C2060 C 0.82596 0.29541 0.57628 0.0
C2061 C 0.81943 0.28239 0.60764 0.0
C2062 C 0.65442 0.30229 0.56614 0.0
C2063 C 0.65353 0.26875 0.56363 0.0
C2064 C 0.6419 0.32272 0.55267 0.0
C2065 C 0.64015 0.25619 0.54761 0.0
C2066 C 0.6288 0.30922 0.53683 0.0
N2067 N 0.6282 0.27652 0.53465 0.0
C2068 C 0.65136 0.25598 0.61282 0.0
C2069 C 0.7044 0.23569 0.61741 0.0
C2070 C 0.63791 0.22835 0.62069 0.0
N2071 N 0.684 0.25914 0.61129 0.0
C2072 C 0.69193 0.20748 0.6254 0.0
C2073 C 0.6582 0.20348 0.62703 0.0
H2074 H 0.63573 0.27518 0.60801 0.0
H2075 H 0.73028 0.23884 0.6161 0.0
C2076 C 0.73557 0.35455 0.53984 0.0
N2077 N 0.72248 0.32724 0.54708 0.0
C2078 C 0.74696 0.35482 0.5219 0.0
C2079 C 0.73099 0.29882 0.51899 0.0
C2080 C 0.72034 0.29951 0.53713 0.0
C2081 C 0.74474 0.32673 0.51111 0.0
H2082 H 0.73801 0.37601 0.54816 0.0
H2083 H 0.71088 0.27776 0.54334 0.0
O2084 O 0.699 0.33705 0.61821 0.0
O2085 O 0.71618 0.37254 0.58297 0.0
O2086 O 0.74001 0.30155 0.58816 0.0
O2087 O 0.66754 0.31509 0.58168 0.0
H2088 H 0.63824 0.33396 0.62969 0.0
H2089 H 0.73645 0.30657 0.64195 0.0
H2090 H 0.62028 0.30572 0.6578 0.0
H2091 H 0.71672 0.27857 0.66978 0.0
H2092 H 0.65918 0.45481 0.55726 0.0
H2093 H 0.73413 0.41906 0.60571 0.0
H2094 H 0.67683 0.39735 0.55819 0.0
H2095 H 0.71564 0.47613 0.6039 0.0
H2096 H 0.798 0.40195 0.64964 0.0
H2097 H 0.84075 0.3994 0.59568 0.0
H2098 H 0.5616 0.38496 0.59518 0.0
H2099 H 0.62186 0.43601 0.634 0.0
H2100 H 0.78268 0.30752 0.56139 0.0
H2101 H 0.77082 0.2839 0.61822 0.0
H2102 H 0.8418 0.29857 0.56466 0.0
H2103 H 0.83017 0.2754 0.62051 0.0
H2104 H 0.66335 0.25258 0.57383 0.0
H2105 H 0.64246 0.34873 0.5544 0.0
H2106 H 0.63939 0.23029 0.54545 0.0
H2107 H 0.61914 0.32474 0.52626 0.0
H2108 H 0.61184 0.22666 0.62193 0.0
H2109 H 0.70848 0.18882 0.62996 0.0
H2110 H 0.75808 0.37672 0.51675 0.0
H2111 H 0.72843 0.27662 0.51128 0.0
Li2112 Li 0.07525 0.46073 0.32214 0.0
Li2113 Li 0.09455 0.48209 0.35115 0.0
Li2114 Li 0.09568 0.42436 0.3467 0.0
Li2115 Li 0.04312 0.4525 0.35202 0.0
C2116 C 0.14216 0.4444 0.32135 0.0
N2117 N 0.18754 0.41772 0.29809 0.0
C2118 C 0.17496 0.45183 0.32345 0.0
C2119 C 0.13242 0.4235 0.3074 0.0
C2120 C 0.19754 0.43804 0.31157 0.0
C2121 C 0.15572 0.41026 0.29577 0.0
C2122 C 0.04164 0.52319 0.33915 0.0
C2123 C 0.01054 0.56454 0.35437 0.0
N2124 N 0.01762 0.58553 0.34063 0.0
C2125 C 0.04839 0.54504 0.32509 0.0
C2126 C 0.02235 0.53286 0.35384 0.0
C2127 C 0.0361 0.57651 0.32613 0.0
C2128 C 0.04593 0.46658 0.28647 0.0
N2129 N 0.07252 0.47264 0.2969 0.0
C2130 C 0.09779 0.50098 0.27226 0.0
C2131 C 0.09797 0.48983 0.29022 0.0
C2132 C 0.07082 0.49507 0.2611 0.0
C2133 C 0.04449 0.47782 0.26842 0.0
H2134 H 0.02575 0.45336 0.29223 0.0
H2135 H 0.11837 0.49524 0.29894 0.0
C2136 C 0.14954 0.50654 0.36748 0.0
N2137 N 0.12048 0.51651 0.36087 0.0
C2138 C 0.17184 0.52888 0.37418 0.0
C2139 C 0.13471 0.57182 0.36635 0.0
C2140 C 0.11265 0.54848 0.36033 0.0
C2141 C 0.16496 0.56223 0.37338 0.0
H2142 H 0.1555 0.48105 0.36742 0.0
H2143 H 0.08972 0.55618 0.35489 0.0
C2144 C 0.04669 0.38848 0.33119 0.0
N2145 N 0.03169 0.32331 0.32971 0.0
C2146 C 0.03287 0.37309 0.34629 0.0
C2147 C 0.0525 0.3708 0.31525 0.0
C2148 C 0.02558 0.34011 0.3453 0.0
C2149 C 0.04484 0.33786 0.3148 0.0
C2150 C 0.09228 0.45944 0.38468 0.0
C2151 C 0.11911 0.44485 0.39292 0.0
C2152 C 0.07812 0.48662 0.39279 0.0
C2153 C 0.13139 0.45779 0.40912 0.0
C2154 C 0.09115 0.49885 0.40897 0.0
N2155 N 0.1173 0.48431 0.41673 0.0
C2156 C 0.14386 0.37173 0.34582 0.0
C2157 C 0.10295 0.37008 0.36842 0.0
C2158 C 0.15788 0.34346 0.35284 0.0
N2159 N 0.11679 0.38446 0.35366 0.0
C2160 C 0.11608 0.3419 0.37583 0.0
C2161 C 0.14397 0.32814 0.36807 0.0
H2162 H 0.15496 0.38344 0.33429 0.0
H2163 H 0.08192 0.38095 0.37471 0.0
C2164 C 0.9756 0.43962 0.35196 0.0
N2165 N 0.00145 0.44652 0.36275 0.0
C2166 C 0.94625 0.42986 0.35976 0.0
C2167 C 0.97037 0.43574 0.38962 0.0
C2168 C 0.99924 0.44518 0.38125 0.0
C2169 C 0.94354 0.42714 0.37886 0.0
H2170 H 0.97825 0.44021 0.33727 0.0
H2171 H 0.02027 0.45013 0.38953 0.0
O2172 O 0.11977 0.45813 0.33272 0.0
O2173 O 0.05323 0.49225 0.33831 0.0
O2174 O 0.05418 0.42072 0.33194 0.0
O2175 O 0.08024 0.44749 0.36863 0.0
H2176 H 0.18286 0.46811 0.33415 0.0
H2177 H 0.10717 0.41759 0.30558 0.0
H2178 H 0.22302 0.44353 0.31305 0.0
H2179 H 0.14852 0.39404 0.28492 0.0
H2180 H 0.99568 0.57243 0.36569 0.0
H2181 H 0.06311 0.53784 0.31357 0.0
H2182 H 0.01653 0.51608 0.36469 0.0
H2183 H 0.04125 0.59376 0.3154 0.0
H2184 H 0.11836 0.51458 0.26722 0.0
H2185 H 0.02329 0.47273 0.26021 0.0
H2186 H 0.19425 0.51982 0.37987 0.0
H2187 H 0.12823 0.59709 0.36505 0.0
H2188 H 0.02814 0.38637 0.35873 0.0
H2189 H 0.06263 0.38239 0.30331 0.0
H2190 H 0.01509 0.32786 0.35694 0.0
H2191 H 0.04929 0.32387 0.30257 0.0
H2192 H 0.13063 0.42403 0.38676 0.0
H2193 H 0.05755 0.49838 0.38653 0.0
H2194 H 0.15223 0.44683 0.41559 0.0
H2195 H 0.08054 0.51997 0.41534 0.0
H2196 H 0.17925 0.3336 0.34632 0.0
H2197 H 0.10482 0.33138 0.38779 0.0
H2198 H 0.92648 0.42298 0.35087 0.0
H2199 H 0.96937 0.43437 0.40436 0.0
Li2200 Li 0.32718 0.34567 0.0967 0.0
Li2201 Li 0.29905 0.29311 0.10202 0.0
Li2202 Li 0.29081 0.32524 0.07214 0.0
Li2203 Li 0.26945 0.34452 0.10115 0.0
C2204 C 0.36307 0.29664 0.0812 0.0
N2205 N 0.4282 0.28152 0.07976 0.0
C2206 C 0.37842 0.28287 0.09633 0.0
C2207 C 0.38075 0.30234 0.06526 0.0
C2208 C 0.41139 0.27552 0.09535 0.0
C2209 C 0.41368 0.29462 0.06482 0.0
C2210 C 0.29205 0.34227 0.13467 0.0
C2211 C 0.2526 0.34113 0.15894 0.0
N2212 N 0.26709 0.36732 0.16669 0.0
C2213 C 0.30659 0.36914 0.14289 0.0
C2214 C 0.26489 0.32809 0.14277 0.0
C2215 C 0.29359 0.38144 0.15907 0.0
C2216 C 0.37981 0.39385 0.09583 0.0
N2217 N 0.36707 0.3668 0.10367 0.0
C2218 C 0.40961 0.36611 0.12586 0.0
C2219 C 0.38143 0.35298 0.11844 0.0
C2220 C 0.42338 0.39398 0.11809 0.0
C2221 C 0.40808 0.40788 0.10284 0.0
H2222 H 0.36812 0.40494 0.08428 0.0
H2223 H 0.37055 0.33195 0.12474 0.0
C2224 C 0.31196 0.22558 0.10195 0.0
N2225 N 0.30504 0.25143 0.11275 0.0
C2226 C 0.32172 0.19624 0.10975 0.0
C2227 C 0.31584 0.22035 0.13961 0.0
C2228 C 0.30639 0.24922 0.13124 0.0
C2229 C 0.32445 0.19353 0.12885 0.0
H2230 H 0.31136 0.22824 0.08727 0.0
H2231 H 0.30143 0.27026 0.13952 0.0
C2232 C 0.30718 0.39209 0.07133 0.0
N2233 N 0.33393 0.43733 0.048 0.0
C2234 C 0.29974 0.4249 0.07336 0.0
C2235 C 0.32812 0.38226 0.0574 0.0
C2236 C 0.31358 0.44741 0.06145 0.0
C2237 C 0.34139 0.4055 0.04575 0.0
C2238 C 0.22834 0.29166 0.08915 0.0
C2239 C 0.20647 0.29852 0.07511 0.0
C2240 C 0.21866 0.27232 0.10381 0.0
C2241 C 0.17499 0.28629 0.07615 0.0
C2242 C 0.18696 0.26056 0.10434 0.0
N2243 N 0.16596 0.26775 0.09062 0.0
C2244 C 0.28497 0.29591 0.03647 0.0
C2245 C 0.26172 0.34796 0.04022 0.0
C2246 C 0.27374 0.29448 0.01842 0.0
N2247 N 0.27891 0.3225 0.0469 0.0
C2248 C 0.25057 0.34777 0.02225 0.0
C2249 C 0.25648 0.3208 0.0111 0.0
H2250 H 0.29819 0.27574 0.04223 0.0
H2251 H 0.2563 0.36836 0.04894 0.0
C2252 C 0.24501 0.39955 0.1174 0.0
N2253 N 0.23504 0.37044 0.11087 0.0
C2254 C 0.22269 0.42187 0.1241 0.0
C2255 C 0.17975 0.38463 0.11643 0.0
C2256 C 0.20308 0.36257 0.11041 0.0
C2257 C 0.18934 0.41494 0.12338 0.0
H2258 H 0.2705 0.40554 0.11728 0.0
H2259 H 0.19537 0.33958 0.10504 0.0
O2260 O 0.33083 0.30419 0.08194 0.0
O2261 O 0.30405 0.33022 0.11863 0.0
O2262 O 0.29341 0.36977 0.08272 0.0
O2263 O 0.2593 0.3032 0.08831 0.0
H2264 H 0.36514 0.27822 0.10877 0.0
H2265 H 0.36918 0.31242 0.0533 0.0
H2266 H 0.42362 0.26508 0.10701 0.0
H2267 H 0.42768 0.29898 0.05259 0.0
H2268 H 0.23149 0.3305 0.16529 0.0
H2269 H 0.32739 0.38069 0.13673 0.0
H2270 H 0.25317 0.30747 0.13652 0.0
H2271 H 0.3045 0.40232 0.16553 0.0
H2272 H 0.42012 0.35486 0.13782 0.0
H2273 H 0.41795 0.42924 0.09632 0.0
H2274 H 0.32861 0.17647 0.10086 0.0
H2275 H 0.31721 0.21936 0.15436 0.0
H2276 H 0.28344 0.43286 0.08402 0.0
H2277 H 0.33403 0.35701 0.05563 0.0
H2278 H 0.30809 0.4729 0.06288 0.0
H2279 H 0.35765 0.39823 0.03492 0.0
H2280 H 0.21368 0.31329 0.06361 0.0
H2281 H 0.23545 0.26642 0.11464 0.0
H2282 H 0.15773 0.29153 0.06544 0.0
H2283 H 0.17906 0.24567 0.11564 0.0
H2284 H 0.27883 0.27327 0.01021 0.0
H2285 H 0.23698 0.36835 0.01721 0.0
H2286 H 0.23175 0.44432 0.12973 0.0
H2287 H 0.15448 0.37811 0.1152 0.0
Li2288 Li 0.40589 0.57719 0.84671 0.0
Li2289 Li 0.45845 0.54905 0.85202 0.0
Li2290 Li 0.42632 0.54082 0.82214 0.0
Li2291 Li 0.40704 0.51945 0.85115 0.0
C2292 C 0.45492 0.61307 0.8312 0.0
N2293 N 0.47001 0.67821 0.82975 0.0
C2294 C 0.46869 0.62843 0.84632 0.0
C2295 C 0.44919 0.63075 0.81526 0.0
C2296 C 0.47603 0.6614 0.84535 0.0
C2297 C 0.4569 0.66369 0.81482 0.0
C2298 C 0.40929 0.54206 0.88467 0.0
C2299 C 0.41042 0.50262 0.90895 0.0
N2300 N 0.38425 0.51711 0.9167 0.0
C2301 C 0.38242 0.5566 0.8929 0.0
C2302 C 0.42347 0.51489 0.89278 0.0
C2303 C 0.37012 0.54362 0.90908 0.0
C2304 C 0.35771 0.62982 0.84583 0.0
N2305 N 0.38477 0.61707 0.85367 0.0
C2306 C 0.38545 0.65962 0.87586 0.0
C2307 C 0.39859 0.63144 0.86844 0.0
C2308 C 0.35758 0.67339 0.86809 0.0
C2309 C 0.34368 0.65809 0.85285 0.0
H2310 H 0.34662 0.61812 0.83428 0.0
H2311 H 0.41961 0.62056 0.87473 0.0
C2312 C 0.52597 0.56195 0.85196 0.0
N2313 N 0.50013 0.55504 0.86275 0.0
C2314 C 0.55532 0.57171 0.85976 0.0
C2315 C 0.53121 0.56583 0.88961 0.0
C2316 C 0.50234 0.55639 0.88125 0.0
C2317 C 0.55803 0.57444 0.87885 0.0
H2318 H 0.52332 0.56136 0.83727 0.0
H2319 H 0.4813 0.55143 0.88953 0.0
C2320 C 0.35946 0.55717 0.82133 0.0
N2321 N 0.3142 0.58391 0.79802 0.0
C2322 C 0.32666 0.54974 0.82338 0.0
C2323 C 0.36927 0.57811 0.80741 0.0
C2324 C 0.30413 0.56357 0.81147 0.0
C2325 C 0.34603 0.59138 0.79575 0.0
C2326 C 0.45991 0.47835 0.83915 0.0
C2327 C 0.45307 0.45648 0.82511 0.0
C2328 C 0.47923 0.46867 0.85382 0.0
C2329 C 0.46531 0.425 0.82614 0.0
C2330 C 0.49101 0.43697 0.85435 0.0
N2331 N 0.48384 0.41597 0.84063 0.0
C2332 C 0.45565 0.53497 0.78648 0.0
C2333 C 0.4036 0.51172 0.79022 0.0
C2334 C 0.45709 0.52374 0.76842 0.0
N2335 N 0.42906 0.52891 0.7969 0.0
C2336 C 0.40379 0.50058 0.77226 0.0
C2337 C 0.43076 0.50648 0.7611 0.0
H2338 H 0.47582 0.5482 0.79223 0.0
H2339 H 0.3832 0.5063 0.79894 0.0
C2340 C 0.35201 0.49501 0.86742 0.0
N2341 N 0.38111 0.48504 0.86087 0.0
C2342 C 0.3297 0.47269 0.87411 0.0
C2343 C 0.36692 0.42974 0.86642 0.0
C2344 C 0.38898 0.45308 0.8604 0.0
C2345 C 0.33662 0.43934 0.87338 0.0
H2346 H 0.34603 0.52049 0.86731 0.0
H2347 H 0.41196 0.44537 0.85502 0.0
O2348 O 0.44737 0.58083 0.83195 0.0
O2349 O 0.42134 0.55405 0.86864 0.0
O2350 O 0.3818 0.54342 0.83272 0.0
O2351 O 0.44836 0.5093 0.83831 0.0
H2352 H 0.47335 0.61515 0.85877 0.0
H2353 H 0.43911 0.61918 0.80331 0.0
H2354 H 0.48648 0.67363 0.857 0.0
H2355 H 0.45253 0.67769 0.80259 0.0
H2356 H 0.42105 0.4815 0.9153 0.0
H2357 H 0.37088 0.57741 0.88674 0.0
H2358 H 0.44407 0.50317 0.88652 0.0
H2359 H 0.34926 0.55454 0.91554 0.0
H2360 H 0.3967 0.67012 0.88782 0.0
H2361 H 0.32232 0.66796 0.84632 0.0
H2362 H 0.57509 0.5786 0.85087 0.0
H2363 H 0.5322 0.5672 0.90436 0.0
H2364 H 0.3187 0.53344 0.83404 0.0
H2365 H 0.39453 0.58402 0.80563 0.0
H2366 H 0.27864 0.55808 0.81291 0.0
H2367 H 0.35329 0.60763 0.78492 0.0
H2368 H 0.43831 0.46369 0.81361 0.0
H2369 H 0.48512 0.48545 0.86466 0.0
H2370 H 0.46009 0.40774 0.81543 0.0
H2371 H 0.50589 0.42908 0.86565 0.0
H2372 H 0.47829 0.52883 0.76021 0.0
H2373 H 0.38321 0.48698 0.76722 0.0
H2374 H 0.30725 0.48174 0.87975 0.0
H2375 H 0.37344 0.40447 0.86518 0.0
Li2376 Li 0.20251 0.70845 0.60202 0.0
Li2377 Li 0.17437 0.65589 0.5967 0.0
Li2378 Li 0.2321 0.65703 0.60115 0.0
Li2379 Li 0.21074 0.67632 0.57214 0.0
C2380 C 0.20947 0.65929 0.63468 0.0
N2381 N 0.23436 0.63426 0.66672 0.0
C2382 C 0.19489 0.63245 0.64291 0.0
C2383 C 0.23664 0.67346 0.64279 0.0
C2384 C 0.20785 0.62016 0.65911 0.0
C2385 C 0.24889 0.66042 0.65897 0.0
C2386 C 0.13848 0.7049 0.5812 0.0
C2387 C 0.08787 0.7068 0.56481 0.0
N2388 N 0.07333 0.71993 0.57973 0.0
C2389 C 0.12311 0.7187 0.59631 0.0
C2390 C 0.12081 0.69912 0.56526 0.0
C2391 C 0.09013 0.72601 0.59532 0.0
C2392 C 0.18961 0.77597 0.60196 0.0
N2393 N 0.19652 0.75012 0.61276 0.0
C2394 C 0.18573 0.78121 0.63962 0.0
C2395 C 0.19518 0.75233 0.63125 0.0
C2396 C 0.17713 0.80803 0.62886 0.0
C2397 C 0.17985 0.80532 0.60976 0.0
H2398 H 0.19021 0.77332 0.58728 0.0
H2399 H 0.20013 0.7313 0.63953 0.0
C2400 C 0.12174 0.60771 0.59583 0.0
N2401 N 0.13447 0.63477 0.60367 0.0
C2402 C 0.09347 0.59368 0.60284 0.0
C2403 C 0.09191 0.63547 0.62584 0.0
C2404 C 0.1201 0.6486 0.61843 0.0
C2405 C 0.07815 0.60759 0.61808 0.0
H2406 H 0.13344 0.59661 0.58429 0.0
H2407 H 0.13097 0.66964 0.62472 0.0
C2408 C 0.2732 0.70992 0.58915 0.0
N2409 N 0.33556 0.73391 0.59063 0.0
C2410 C 0.29506 0.70314 0.5751 0.0
C2411 C 0.28287 0.72922 0.60384 0.0
C2412 C 0.32653 0.71541 0.57614 0.0
C2413 C 0.31456 0.74102 0.60437 0.0
C2414 C 0.1944 0.60943 0.57135 0.0
C2415 C 0.20183 0.57663 0.57342 0.0
C2416 C 0.17348 0.6192 0.5574 0.0
C2417 C 0.18803 0.55407 0.56153 0.0
C2418 C 0.16024 0.59592 0.54576 0.0
N2419 N 0.1677 0.5641 0.54806 0.0
C2420 C 0.25655 0.60203 0.61746 0.0
C2421 C 0.29848 0.63895 0.61036 0.0
C2422 C 0.27887 0.57972 0.62416 0.0
N2423 N 0.26652 0.6311 0.61088 0.0
C2424 C 0.32182 0.61688 0.61638 0.0
C2425 C 0.31223 0.58661 0.62338 0.0
H2426 H 0.23106 0.59605 0.61738 0.0
H2427 H 0.30618 0.6619 0.60494 0.0
C2428 C 0.21659 0.70565 0.53648 0.0
N2429 N 0.22264 0.67906 0.5469 0.0
C2430 C 0.22782 0.70709 0.51843 0.0
C2431 C 0.25099 0.65379 0.52226 0.0
C2432 C 0.23984 0.6536 0.54022 0.0
C2433 C 0.24508 0.68076 0.51111 0.0
H2434 H 0.20336 0.72582 0.54223 0.0
H2435 H 0.24525 0.6332 0.54894 0.0
O2436 O 0.1975 0.67133 0.61864 0.0
O2437 O 0.17073 0.69738 0.58195 0.0
O2438 O 0.24226 0.69835 0.58832 0.0
O2439 O 0.20814 0.6318 0.58272 0.0
H2440 H 0.17408 0.62092 0.63675 0.0
H2441 H 0.24839 0.69404 0.63653 0.0
H2442 H 0.19691 0.59931 0.66557 0.0
H2443 H 0.27 0.67104 0.66533 0.0
H2444 H 0.07387 0.70239 0.55258 0.0
H2445 H 0.13638 0.7234 0.60874 0.0
H2446 H 0.13239 0.68901 0.55331 0.0
H2447 H 0.07789 0.73648 0.60696 0.0
H2448 H 0.18436 0.7822 0.65436 0.0
H2449 H 0.17297 0.82509 0.60087 0.0
H2450 H 0.0836 0.57232 0.59632 0.0
H2451 H 0.0814 0.64673 0.6378 0.0
H2452 H 0.28786 0.6884 0.56359 0.0
H2453 H 0.26609 0.73507 0.61468 0.0
H2454 H 0.34378 0.71023 0.56542 0.0
H2455 H 0.32245 0.75589 0.61568 0.0
H2456 H 0.21812 0.56871 0.58411 0.0
H2457 H 0.16757 0.64445 0.5556 0.0
H2458 H 0.19352 0.52859 0.56299 0.0
H2459 H 0.144 0.60315 0.53492 0.0
H2460 H 0.26982 0.5573 0.62982 0.0
H2461 H 0.34709 0.62338 0.6151 0.0
H2462 H 0.22273 0.72829 0.51022 0.0
H2463 H 0.26458 0.63321 0.51722 0.0
Li2464 Li 0.09568 0.57721 0.15628 0.0
Li2465 Li 0.04313 0.54906 0.15096 0.0
Li2466 Li 0.07525 0.54084 0.18084 0.0
Li2467 Li 0.09456 0.51947 0.15183 0.0
C2468 C 0.0467 0.61309 0.17179 0.0
N2469 N 0.03174 0.67826 0.17328 0.0
C2470 C 0.03286 0.62848 0.1567 0.0
C2471 C 0.05256 0.63076 0.18773 0.0
C2472 C 0.0256 0.66147 0.15769 0.0
C2473 C 0.04492 0.66371 0.18818 0.0
C2474 C 0.09228 0.54213 0.1183 0.0
C2475 C 0.09116 0.50274 0.094 0.0
N2476 N 0.11729 0.5173 0.08623 0.0
C2477 C 0.1191 0.55675 0.11006 0.0
C2478 C 0.07814 0.51495 0.11019 0.0
C2479 C 0.13137 0.54382 0.09385 0.0
C2480 C 0.14385 0.62984 0.15716 0.0
N2481 N 0.11679 0.61711 0.14932 0.0
C2482 C 0.11607 0.65968 0.12715 0.0
C2483 C 0.10294 0.63149 0.13457 0.0
C2484 C 0.14396 0.67343 0.13491 0.0
C2485 C 0.15788 0.65811 0.15014 0.0
H2486 H 0.15496 0.61813 0.16869 0.0
H2487 H 0.0819 0.62062 0.12828 0.0
C2488 C 0.97561 0.56194 0.15102 0.0
N2489 N 0.00146 0.55503 0.14022 0.0
C2490 C 0.94625 0.57169 0.14322 0.0
C2491 C 0.97037 0.56581 0.11336 0.0
C2492 C 0.99924 0.55637 0.12173 0.0
C2493 C 0.94355 0.57441 0.12412 0.0
H2494 H 0.97826 0.56135 0.1657 0.0
H2495 H 0.02028 0.55142 0.11345 0.0
C2496 C 0.14218 0.55715 0.18162 0.0
N2497 N 0.1876 0.58381 0.20486 0.0
C2498 C 0.17497 0.54972 0.1795 0.0
C2499 C 0.13246 0.57804 0.19559 0.0
C2500 C 0.19758 0.56351 0.19137 0.0
C2501 C 0.15579 0.59127 0.2072 0.0
C2502 C 0.04163 0.47838 0.16383 0.0
C2503 C 0.04835 0.45653 0.1779 0.0
C2504 C 0.02236 0.46871 0.14913 0.0
C2505 C 0.03604 0.42507 0.17686 0.0
C2506 C 0.01053 0.43703 0.1486 0.0
N2507 N 0.01758 0.41605 0.16235 0.0
C2508 C 0.04593 0.53498 0.21651 0.0
C2509 C 0.09797 0.51174 0.21276 0.0
C2510 C 0.04449 0.52374 0.23456 0.0
N2511 N 0.07252 0.52893 0.20608 0.0
C2512 C 0.09779 0.50059 0.23072 0.0
C2513 C 0.07082 0.50649 0.24188 0.0
H2514 H 0.02575 0.54821 0.21075 0.0
H2515 H 0.11837 0.50632 0.20404 0.0
C2516 C 0.14953 0.49502 0.13548 0.0
N2517 N 0.12049 0.48505 0.14211 0.0
C2518 C 0.17183 0.47268 0.12878 0.0
C2519 C 0.13473 0.42974 0.13666 0.0
C2520 C 0.11268 0.45308 0.14268 0.0
C2521 C 0.16497 0.43933 0.1296 0.0
H2522 H 0.15549 0.52051 0.13552 0.0
H2523 H 0.08976 0.44538 0.14814 0.0
O2524 O 0.05418 0.58084 0.17104 0.0
O2525 O 0.08025 0.55408 0.13435 0.0
O2526 O 0.11977 0.54344 0.17026 0.0
O2527 O 0.05324 0.50931 0.16467 0.0
H2528 H 0.02811 0.61521 0.14427 0.0
H2529 H 0.06269 0.61917 0.19966 0.0
H2530 H 0.0151 0.67372 0.14606 0.0
H2531 H 0.04939 0.6777 0.20041 0.0
H2532 H 0.08055 0.48161 0.08764 0.0
H2533 H 0.13061 0.57757 0.11622 0.0
H2534 H 0.05757 0.50317 0.11645 0.0
H2535 H 0.1522 0.55479 0.08738 0.0
H2536 H 0.10481 0.6702 0.1152 0.0
H2537 H 0.17925 0.66797 0.15666 0.0
H2538 H 0.92648 0.57857 0.15211 0.0
H2539 H 0.96938 0.56718 0.09862 0.0
H2540 H 0.18285 0.53346 0.16879 0.0
H2541 H 0.10722 0.58395 0.19742 0.0
H2542 H 0.22306 0.55802 0.18987 0.0
H2543 H 0.1486 0.60749 0.21807 0.0
H2544 H 0.06306 0.46373 0.18942 0.0
H2545 H 0.01656 0.48549 0.13828 0.0
H2546 H 0.04117 0.40783 0.18759 0.0
H2547 H 0.99569 0.42915 0.13728 0.0
H2548 H 0.02328 0.52883 0.24277 0.0
H2549 H 0.11836 0.48699 0.23576 0.0
H2550 H 0.19422 0.48173 0.12307 0.0
H2551 H 0.12827 0.40447 0.13798 0.0
Li2552 Li 0.2321 0.34454 0.90182 0.0
Li2553 Li 0.21073 0.32524 0.93084 0.0
Li2554 Li 0.2025 0.29312 0.90096 0.0
Li2555 Li 0.17436 0.34567 0.90628 0.0
C2556 C 0.27319 0.29163 0.91383 0.0
N2557 N 0.33553 0.2676 0.91235 0.0
C2558 C 0.29504 0.29837 0.92789 0.0
C2559 C 0.28286 0.27235 0.89913 0.0
C2560 C 0.3265 0.28607 0.92686 0.0
C2561 C 0.31454 0.26053 0.8986 0.0
C2562 C 0.19441 0.39216 0.93162 0.0
C2563 C 0.16028 0.40574 0.9572 0.0
N2564 N 0.16774 0.43756 0.95487 0.0
C2565 C 0.20184 0.42496 0.92951 0.0
C2566 C 0.17351 0.38243 0.94558 0.0
C2567 C 0.18805 0.44755 0.94138 0.0
C2568 C 0.25654 0.39953 0.88549 0.0
N2569 N 0.26651 0.37048 0.89211 0.0
C2570 C 0.32182 0.38471 0.88664 0.0
C2571 C 0.29848 0.36265 0.89266 0.0
C2572 C 0.31223 0.41496 0.8796 0.0
C2573 C 0.27888 0.42183 0.87879 0.0
H2574 H 0.23105 0.40549 0.88554 0.0
H2575 H 0.30618 0.33973 0.89811 0.0
C2576 C 0.21658 0.29591 0.9665 0.0
N2577 N 0.22264 0.3225 0.95608 0.0
C2578 C 0.22782 0.29448 0.98455 0.0
C2579 C 0.25098 0.34778 0.98072 0.0
C2580 C 0.23983 0.34796 0.96276 0.0
C2581 C 0.24507 0.3208 0.99187 0.0
H2582 H 0.20336 0.27574 0.96075 0.0
H2583 H 0.24524 0.36836 0.95404 0.0
C2584 C 0.20944 0.34227 0.86829 0.0
N2585 N 0.2343 0.36728 0.83624 0.0
C2586 C 0.19484 0.36909 0.86006 0.0
C2587 C 0.23662 0.32812 0.86019 0.0
C2588 C 0.20778 0.38138 0.84385 0.0
C2589 C 0.24885 0.34114 0.844 0.0
C2590 C 0.13847 0.29669 0.92179 0.0
C2591 C 0.12309 0.28286 0.90669 0.0
C2592 C 0.1208 0.30253 0.93772 0.0
C2593 C 0.0901 0.27559 0.90768 0.0
C2594 C 0.08785 0.29488 0.93817 0.0
N2595 N 0.07331 0.28172 0.92326 0.0
C2596 C 0.18962 0.2256 0.90102 0.0
C2597 C 0.19518 0.24923 0.87173 0.0
C2598 C 0.17986 0.19625 0.89322 0.0
N2599 N 0.19653 0.25145 0.89022 0.0
C2600 C 0.18574 0.22036 0.86336 0.0
C2601 C 0.17714 0.19354 0.87412 0.0
H2602 H 0.19021 0.22825 0.9157 0.0
H2603 H 0.20013 0.27027 0.86345 0.0
C2604 C 0.12173 0.39385 0.90716 0.0
N2605 N 0.13446 0.36678 0.89932 0.0
C2606 C 0.09346 0.40787 0.90014 0.0
C2607 C 0.0919 0.36608 0.87714 0.0
C2608 C 0.12008 0.35295 0.88456 0.0
C2609 C 0.07814 0.39396 0.88491 0.0
H2610 H 0.13343 0.40495 0.91869 0.0
H2611 H 0.13095 0.33191 0.87827 0.0
O2612 O 0.24226 0.30323 0.91466 0.0
O2613 O 0.20813 0.36976 0.92026 0.0
O2614 O 0.19749 0.33024 0.88434 0.0
O2615 O 0.17072 0.30418 0.92103 0.0
H2616 H 0.28784 0.31308 0.93941 0.0
H2617 H 0.26608 0.26653 0.88828 0.0
H2618 H 0.34375 0.29122 0.93758 0.0
H2619 H 0.32243 0.24568 0.88728 0.0
H2620 H 0.14406 0.39855 0.96806 0.0
H2621 H 0.21811 0.43285 0.91881 0.0
H2622 H 0.16761 0.35719 0.94741 0.0
H2623 H 0.19353 0.47303 0.9399 0.0
H2624 H 0.3471 0.37824 0.88795 0.0
H2625 H 0.26983 0.44423 0.8731 0.0
H2626 H 0.22273 0.27327 0.99276 0.0
H2627 H 0.26458 0.36835 0.98576 0.0
H2628 H 0.17402 0.38062 0.86622 0.0
H2629 H 0.24839 0.30755 0.86645 0.0
H2630 H 0.19682 0.40221 0.83738 0.0
H2631 H 0.26997 0.33053 0.83764 0.0
H2632 H 0.13636 0.27812 0.89426 0.0
H2633 H 0.13239 0.31265 0.94966 0.0
H2634 H 0.07785 0.2651 0.89604 0.0
H2635 H 0.07386 0.29934 0.9504 0.0
H2636 H 0.17298 0.17647 0.90211 0.0
H2637 H 0.18437 0.21937 0.84861 0.0
H2638 H 0.08359 0.42924 0.90666 0.0
H2639 H 0.08138 0.35481 0.86519 0.0
Li2640 Li 0.42632 0.46074 0.68084 0.0
Li2641 Li 0.40703 0.4821 0.65183 0.0
Li2642 Li 0.40589 0.42437 0.65628 0.0
Li2643 Li 0.45845 0.45251 0.65096 0.0
C2644 C 0.35943 0.4444 0.68164 0.0
N2645 N 0.31411 0.41769 0.70492 0.0
C2646 C 0.32663 0.45183 0.67956 0.0
C2647 C 0.36921 0.42348 0.69558 0.0
C2648 C 0.30407 0.43801 0.69145 0.0
C2649 C 0.34593 0.41023 0.70722 0.0
C2650 C 0.45992 0.5232 0.66383 0.0
C2651 C 0.49102 0.56457 0.64862 0.0
N2652 N 0.4839 0.58556 0.66235 0.0
C2653 C 0.45313 0.54506 0.67788 0.0
C2654 C 0.47922 0.53288 0.64915 0.0
C2655 C 0.4654 0.57653 0.67685 0.0
C2656 C 0.45565 0.46659 0.7165 0.0
N2657 N 0.42906 0.47264 0.70608 0.0
C2658 C 0.40379 0.50098 0.73072 0.0
C2659 C 0.4036 0.48983 0.71276 0.0
C2660 C 0.43076 0.49507 0.74188 0.0
C2661 C 0.45709 0.47782 0.73456 0.0
H2662 H 0.47582 0.45336 0.71075 0.0
H2663 H 0.3832 0.49525 0.70404 0.0
C2664 C 0.35202 0.50655 0.63553 0.0
N2665 N 0.3811 0.51652 0.64211 0.0
C2666 C 0.32971 0.52888 0.62883 0.0
C2667 C 0.36688 0.57182 0.6366 0.0
C2668 C 0.38894 0.54849 0.64262 0.0
C2669 C 0.33661 0.56223 0.6296 0.0
H2670 H 0.34605 0.48106 0.63561 0.0
H2671 H 0.4119 0.55619 0.64804 0.0
C2672 C 0.45489 0.38848 0.67178 0.0
N2673 N 0.46993 0.32333 0.67324 0.0
C2674 C 0.4687 0.37311 0.65667 0.0
C2675 C 0.44912 0.3708 0.68772 0.0
C2676 C 0.476 0.34013 0.65765 0.0
C2677 C 0.4568 0.33786 0.68816 0.0
C2678 C 0.40928 0.45948 0.6183 0.0
C2679 C 0.38244 0.4449 0.61007 0.0
C2680 C 0.42345 0.48665 0.6102 0.0
C2681 C 0.37015 0.45787 0.59388 0.0
C2682 C 0.41042 0.4989 0.59402 0.0
N2683 N 0.38426 0.48438 0.58626 0.0
C2684 C 0.35771 0.37174 0.65716 0.0
C2685 C 0.3986 0.37011 0.63455 0.0
C2686 C 0.34368 0.34347 0.65014 0.0
N2687 N 0.38477 0.38448 0.64931 0.0
C2688 C 0.38547 0.34192 0.62713 0.0
C2689 C 0.35759 0.32816 0.6349 0.0
H2690 H 0.34662 0.38344 0.6687 0.0
H2691 H 0.41963 0.38098 0.62826 0.0
C2692 C 0.52597 0.43962 0.65102 0.0
N2693 N 0.50012 0.44653 0.64023 0.0
C2694 C 0.55532 0.42986 0.64322 0.0
C2695 C 0.5312 0.43574 0.61336 0.0
C2696 C 0.50233 0.44518 0.62173 0.0
C2697 C 0.55802 0.42714 0.62412 0.0
H2698 H 0.52332 0.44021 0.6657 0.0
H2699 H 0.48129 0.45013 0.61345 0.0
O2700 O 0.3818 0.45814 0.67026 0.0
O2701 O 0.44835 0.49226 0.66467 0.0
O2702 O 0.44738 0.42073 0.67103 0.0
O2703 O 0.42133 0.4475 0.63434 0.0
H2704 H 0.31871 0.46811 0.66888 0.0
H2705 H 0.39446 0.41757 0.69738 0.0
H2706 H 0.27859 0.4435 0.68999 0.0
H2707 H 0.35316 0.39399 0.71806 0.0
H2708 H 0.50589 0.57246 0.63731 0.0
H2709 H 0.43839 0.53786 0.68939 0.0
H2710 H 0.48507 0.5161 0.63831 0.0
H2711 H 0.46021 0.59378 0.68757 0.0
H2712 H 0.38321 0.51458 0.73576 0.0
H2713 H 0.47829 0.47273 0.74277 0.0
H2714 H 0.30729 0.51983 0.62317 0.0
H2715 H 0.37338 0.59709 0.63788 0.0
H2716 H 0.47339 0.38639 0.64423 0.0
H2717 H 0.43901 0.38238 0.69967 0.0
H2718 H 0.48647 0.32789 0.64601 0.0
H2719 H 0.45239 0.32387 0.70039 0.0
H2720 H 0.37091 0.42409 0.61623 0.0
H2721 H 0.44404 0.49839 0.61646 0.0
H2722 H 0.3493 0.44693 0.58741 0.0
H2723 H 0.42104 0.52002 0.58766 0.0
H2724 H 0.32232 0.3336 0.65666 0.0
H2725 H 0.39672 0.33141 0.61517 0.0
H2726 H 0.57509 0.42297 0.65211 0.0
H2727 H 0.53219 0.43437 0.59862 0.0
Li2728 Li 0.26946 0.65704 0.40183 0.0
Li2729 Li 0.29082 0.67632 0.43084 0.0
Li2730 Li 0.29905 0.70845 0.40096 0.0
Li2731 Li 0.32719 0.65589 0.40628 0.0
C2732 C 0.22835 0.70991 0.41383 0.0
N2733 N 0.16598 0.73385 0.41236 0.0
C2734 C 0.20649 0.70308 0.42788 0.0
C2735 C 0.21867 0.72923 0.39916 0.0
C2736 C 0.175 0.71533 0.42684 0.0
C2737 C 0.18697 0.741 0.39863 0.0
C2738 C 0.30717 0.60945 0.43165 0.0
C2739 C 0.34136 0.596 0.45723 0.0
N2740 N 0.3339 0.56417 0.45495 0.0
C2741 C 0.29974 0.57665 0.42959 0.0
C2742 C 0.3281 0.61925 0.44558 0.0
C2743 C 0.31356 0.55411 0.44149 0.0
C2744 C 0.24501 0.60201 0.38556 0.0
N2745 N 0.23504 0.63111 0.39211 0.0
C2746 C 0.17974 0.61691 0.38657 0.0
C2747 C 0.20308 0.63897 0.3926 0.0
C2748 C 0.18934 0.58661 0.3796 0.0
C2749 C 0.22269 0.5797 0.37886 0.0
H2750 H 0.2705 0.59603 0.38566 0.0
H2751 H 0.19537 0.66194 0.39798 0.0
C2752 C 0.28497 0.70565 0.46651 0.0
N2753 N 0.27892 0.67906 0.45608 0.0
C2754 C 0.27374 0.70709 0.48456 0.0
C2755 C 0.25058 0.65379 0.48073 0.0
C2756 C 0.26172 0.6536 0.46277 0.0
C2757 C 0.25649 0.68076 0.49188 0.0
H2758 H 0.2982 0.72582 0.46075 0.0
H2759 H 0.25631 0.6332 0.45404 0.0
C2760 C 0.29207 0.65929 0.36831 0.0
N2761 N 0.26713 0.63425 0.33628 0.0
C2762 C 0.30662 0.63243 0.36008 0.0
C2763 C 0.2649 0.67346 0.3602 0.0
C2764 C 0.29364 0.62013 0.3439 0.0
C2765 C 0.25263 0.66042 0.34403 0.0
C2766 C 0.36307 0.70491 0.42178 0.0
C2767 C 0.37844 0.7187 0.40666 0.0
C2768 C 0.38075 0.69917 0.43772 0.0
C2769 C 0.41141 0.72602 0.40764 0.0
C2770 C 0.41369 0.70687 0.43816 0.0
N2771 N 0.42822 0.71999 0.42324 0.0
C2772 C 0.31195 0.77597 0.40102 0.0
C2773 C 0.30638 0.75233 0.37174 0.0
C2774 C 0.32171 0.80532 0.39323 0.0
N2775 N 0.30504 0.75012 0.39023 0.0
C2776 C 0.31583 0.7812 0.36337 0.0
C2777 C 0.32444 0.80803 0.37413 0.0
H2778 H 0.31136 0.77332 0.41571 0.0
H2779 H 0.30143 0.7313 0.36346 0.0
C2780 C 0.37982 0.60771 0.40716 0.0
N2781 N 0.36708 0.63477 0.39931 0.0
C2782 C 0.40809 0.59368 0.40014 0.0
C2783 C 0.40963 0.63546 0.37713 0.0
C2784 C 0.38144 0.64859 0.38455 0.0
C2785 C 0.42339 0.60759 0.3849 0.0
H2786 H 0.36812 0.59662 0.4187 0.0
H2787 H 0.37057 0.66962 0.37825 0.0
O2788 O 0.2593 0.69836 0.41467 0.0
O2789 O 0.29342 0.63179 0.42027 0.0
O2790 O 0.30406 0.67134 0.38435 0.0
O2791 O 0.33083 0.69738 0.42104 0.0
H2792 H 0.21369 0.68832 0.43938 0.0
H2793 H 0.23546 0.73511 0.38832 0.0
H2794 H 0.15775 0.71011 0.43755 0.0
H2795 H 0.17908 0.75589 0.38732 0.0
H2796 H 0.35761 0.60325 0.46806 0.0
H2797 H 0.28344 0.5687 0.41892 0.0
H2798 H 0.33401 0.64451 0.44737 0.0
H2799 H 0.30807 0.52863 0.44005 0.0
H2800 H 0.15447 0.62342 0.38782 0.0
H2801 H 0.23174 0.55726 0.37321 0.0
H2802 H 0.27883 0.72829 0.49277 0.0
H2803 H 0.23698 0.63321 0.48577 0.0
H2804 H 0.32743 0.62089 0.36624 0.0
H2805 H 0.25317 0.69406 0.36646 0.0
H2806 H 0.30457 0.59927 0.33743 0.0
H2807 H 0.23151 0.67105 0.33768 0.0
H2808 H 0.36516 0.72337 0.39422 0.0
H2809 H 0.36918 0.68908 0.44968 0.0
H2810 H 0.42364 0.73648 0.39599 0.0
H2811 H 0.42769 0.70249 0.4504 0.0
H2812 H 0.3286 0.82509 0.40212 0.0
H2813 H 0.3172 0.7822 0.34862 0.0
H2814 H 0.41796 0.57232 0.40666 0.0
H2815 H 0.42013 0.64671 0.36517 0.0
loop_
_geom_bond_atom_site_label_1
_geom_bond_atom_site_label_2
_geom_bond_distance
_geom_bond_site_symmetry_2
_ccdc_geom_bond_type
Li0 N17 1.990 . S
Li0 O60 1.956 1_545 S
Li0 O61 1.970 . S
Li0 O62 1.961 . S
Li1 N25 1.990 . S
Li1 O60 1.970 1_545 S
Li1 O61 1.956 . S
Li1 O63 1.961 . S
Li2 N47 1.990 1_545 S
Li2 O60 1.961 1_545 S
Li2 O62 1.956 . S
Li2 O63 1.970 . S
Li3 N53 1.990 . S
Li3 O61 1.961 . S
Li3 O62 1.970 . S
Li3 O63 1.956 . S
C4 C6 1.348 . S
C4 C7 1.356 . S
C4 O60 1.325 . S
N5 C8 1.314 . S
N5 C9 1.279 . S
C6 C4 1.348 . S
C6 C8 1.353 . S
C6 H64 0.929 . S
C7 C4 1.356 . S
C7 C9 1.358 . S
C7 H65 0.930 . S
C8 N5 1.314 . S
C8 C6 1.353 . S
C8 H66 0.930 . S
C9 N5 1.279 . S
C9 C7 1.358 . S
C9 H67 0.930 . S
C10 C13 1.348 . S
C10 C14 1.356 . S
C10 O61 1.325 . S
C11 N12 1.279 . S
C11 C14 1.358 . S
C11 H68 0.930 . S
N12 C11 1.279 . S
N12 C15 1.314 . S
C13 C10 1.348 . S
C13 C15 1.353 . S
C13 H69 0.929 . S
C14 C10 1.356 . S
C14 C11 1.358 . S
C14 H70 0.930 . S
C15 N12 1.314 . S
C15 C13 1.353 . S
C15 H71 0.930 . S
C16 N17 1.314 . S
C16 C21 1.353 . S
C16 H22 0.930 . S
N17 Li0 1.990 . S
N17 C16 1.314 . S
N17 C19 1.279 . S
C18 C19 1.358 . S
C18 C20 1.356 . S
C18 H72 0.930 . S
C19 N17 1.279 . S
C19 C18 1.358 . S
C19 H23 0.930 . S
C20 C18 1.356 . S
C20 C21 1.348 . S
C21 C16 1.353 . S
C21 C20 1.348 . S
C21 H73 0.929 . S
H22 C16 0.930 . S
H23 C19 0.930 . S
C24 N25 1.314 . S
C24 C26 1.353 1_545 S
C24 H30 0.930 1_545 S
N25 Li1 1.990 . S
N25 C24 1.314 . S
N25 C28 1.279 . S
C26 C24 1.353 1_565 S
C26 C29 1.348 1_565 S
C26 H74 0.929 . S
C27 C28 1.358 . S
C27 C29 1.356 . S
C27 H75 0.930 . S
C28 N25 1.279 . S
C28 C27 1.358 . S
C28 H31 0.930 . S
C29 C26 1.348 1_545 S
C29 C27 1.356 . S
H30 C24 0.930 1_565 S
H31 C28 0.930 . S
C32 C34 1.348 . S
C32 C35 1.356 . S
C32 O62 1.325 . S
N33 C36 1.314 . S
N33 C37 1.279 . S
C34 C32 1.348 . S
C34 C36 1.353 . S
C34 H76 0.929 . S
C35 C32 1.356 . S
C35 C37 1.358 . S
C35 H77 0.930 . S
C36 N33 1.314 . S
C36 C34 1.353 . S
C36 H78 0.930 . S
C37 N33 1.279 . S
C37 C35 1.358 . S
C37 H79 0.930 . S
C38 C39 1.348 . S
C38 C40 1.356 . S
C38 O63 1.325 . S
C39 C38 1.348 . S
C39 C41 1.353 . S
C39 H80 0.929 . S
C40 C38 1.356 . S
C40 C42 1.358 . S
C40 H81 0.930 . S
C41 C39 1.353 . S
C41 N43 1.314 . S
C41 H82 0.930 . S
C42 C40 1.358 . S
C42 N43 1.279 . S
C42 H83 0.930 . S
N43 C41 1.314 . S
N43 C42 1.279 . S
C44 C46 1.353 . S
C44 N47 1.314 . S
C44 H50 0.930 . S
C45 N47 1.279 . S
C45 C48 1.358 . S
C45 H51 0.930 . S
C46 C44 1.353 . S
C46 C49 1.348 . S
C46 H84 0.929 . S
N47 Li2 1.990 1_565 S
N47 C44 1.314 . S
N47 C45 1.279 . S
C48 C45 1.358 . S
C48 C49 1.356 . S
C48 H85 0.930 . S
C49 C46 1.348 . S
C49 C48 1.356 . S
H50 C44 0.930 . S
H51 C45 0.930 . S
C52 N53 1.314 . S
C52 C54 1.353 . S
C52 H58 0.930 . S
N53 Li3 1.990 . S
N53 C52 1.314 . S
N53 C56 1.279 . S
C54 C52 1.353 . S
C54 C57 1.348 . S
C54 H86 0.929 . S
C55 C56 1.358 . S
C55 C57 1.356 . S
C55 H87 0.930 . S
C56 N53 1.279 . S
C56 C55 1.358 . S
C56 H59 0.930 . S
C57 C54 1.348 . S
C57 C55 1.356 . S
H58 C52 0.930 . S
H59 C56 0.930 . S
O60 Li0 1.956 1_565 S
O60 Li1 1.970 1_565 S
O60 Li2 1.961 1_565 S
O60 C4 1.325 . S
O61 Li0 1.970 . S
O61 Li1 1.956 . S
O61 Li3 1.961 . S
O61 C10 1.325 . S
O62 Li0 1.961 . S
O62 Li2 1.956 . S
O62 Li3 1.970 . S
O62 C32 1.325 . S
O63 Li1 1.961 . S
O63 Li2 1.970 . S
O63 Li3 1.956 . S
O63 C38 1.325 . S
H64 C6 0.929 . S
H65 C7 0.930 . S
H66 C8 0.930 . S
H67 C9 0.930 . S
H68 C11 0.930 . S
H69 C13 0.929 . S
H70 C14 0.930 . S
H71 C15 0.930 . S
H72 C18 0.930 . S
H73 C21 0.929 . S
H74 C26 0.929 . S
H75 C27 0.930 . S
H76 C34 0.929 . S
H77 C35 0.930 . S
H78 C36 0.930 . S
H79 C37 0.930 . S
H80 C39 0.929 . S
H81 C40 0.930 . S
H82 C41 0.930 . S
H83 C42 0.930 . S
H84 C46 0.929 . S
H85 C48 0.930 . S
H86 C54 0.929 . S
H87 C55 0.930 . S
Li88 N105 1.990 . S
Li88 O148 1.956 . S
Li88 O149 1.970 . S
Li88 O150 1.961 . S
Li89 N113 1.990 . S
Li89 O148 1.970 . S
Li89 O149 1.956 . S
Li89 O151 1.961 . S
Li90 N135 1.990 . S
Li90 O148 1.961 . S
Li90 O150 1.956 . S
Li90 O151 1.970 . S
Li91 N141 1.990 . S
Li91 O149 1.961 . S
Li91 O150 1.970 . S
Li91 O151 1.956 . S
C92 C94 1.348 . S
C92 C95 1.356 . S
C92 O148 1.325 . S
N93 C96 1.314 . S
N93 C97 1.279 . S
C94 C92 1.348 . S
C94 C96 1.353 . S
C94 H152 0.929 . S
C95 C92 1.356 . S
C95 C97 1.358 . S
C95 H153 0.930 . S
C96 N93 1.314 . S
C96 C94 1.353 . S
C96 H154 0.930 . S
C97 N93 1.279 . S
C97 C95 1.358 . S
C97 H155 0.930 . S
C98 C101 1.348 . S
C98 C102 1.356 . S
C98 O149 1.325 . S
C99 N100 1.279 . S
C99 C102 1.358 . S
C99 H156 0.930 . S
N100 C99 1.279 . S
N100 C103 1.314 . S
C101 C98 1.348 . S
C101 C103 1.353 . S
C101 H157 0.929 . S
C102 C98 1.356 . S
C102 C99 1.358 . S
C102 H158 0.930 . S
C103 N100 1.314 . S
C103 C101 1.353 . S
C103 H159 0.930 . S
C104 N105 1.314 . S
C104 C109 1.353 . S
C104 H110 0.930 . S
N105 Li88 1.990 . S
N105 C104 1.314 . S
N105 C107 1.279 . S
C106 C107 1.358 . S
C106 C108 1.356 . S
C106 H160 0.930 . S
C107 N105 1.279 . S
C107 C106 1.358 . S
C107 H111 0.930 . S
C108 C106 1.356 . S
C108 C109 1.348 . S
C109 C104 1.353 . S
C109 C108 1.348 . S
C109 H161 0.929 . S
H110 C104 0.930 . S
H111 C107 0.930 . S
C112 N113 1.314 . S
C112 C114 1.353 . S
C112 H118 0.930 . S
N113 Li89 1.990 . S
N113 C112 1.314 . S
N113 C116 1.279 . S
C114 C112 1.353 . S
C114 C117 1.348 . S
C114 H162 0.929 . S
C115 C116 1.358 . S
C115 C117 1.356 . S
C115 H163 0.930 . S
C116 N113 1.279 . S
C116 C115 1.358 . S
C116 H119 0.930 . S
C117 C114 1.348 . S
C117 C115 1.356 . S
H118 C112 0.930 . S
H119 C116 0.930 . S
C120 C122 1.348 . S
C120 C123 1.356 . S
C120 O150 1.325 . S
N121 C124 1.314 . S
N121 C125 1.279 . S
C122 C120 1.348 . S
C122 C124 1.353 . S
C122 H164 0.929 . S
C123 C120 1.356 . S
C123 C125 1.358 . S
C123 H165 0.930 . S
C124 N121 1.314 . S
C124 C122 1.353 . S
C124 H166 0.930 . S
C125 N121 1.279 . S
C125 C123 1.358 . S
C125 H167 0.930 . S
C126 C127 1.348 . S
C126 C128 1.356 . S
C126 O151 1.325 . S
C127 C126 1.348 . S
C127 C129 1.353 . S
C127 H168 0.929 . S
C128 C126 1.356 . S
C128 C130 1.358 . S
C128 H169 0.930 . S
C129 C127 1.353 . S
C129 N131 1.314 . S
C129 H170 0.930 . S
C130 C128 1.358 . S
C130 N131 1.279 . S
C130 H171 0.930 . S
N131 C129 1.314 . S
N131 C130 1.279 . S
C132 C134 1.353 . S
C132 N135 1.314 . S
C132 H138 0.930 . S
C133 N135 1.279 . S
C133 C136 1.358 . S
C133 H139 0.930 . S
C134 C132 1.353 . S
C134 C137 1.348 . S
C134 H172 0.929 . S
N135 Li90 1.990 . S
N135 C132 1.314 . S
N135 C133 1.279 . S
C136 C133 1.358 . S
C136 C137 1.356 . S
C136 H173 0.930 . S
C137 C134 1.348 . S
C137 C136 1.356 . S
H138 C132 0.930 . S
H139 C133 0.930 . S
C140 N141 1.314 . S
C140 C142 1.353 . S
C140 H146 0.930 . S
N141 Li91 1.990 . S
N141 C140 1.314 . S
N141 C144 1.279 . S
C142 C140 1.353 . S
C142 C145 1.348 . S
C142 H174 0.929 . S
C143 C144 1.358 . S
C143 C145 1.356 . S
C143 H175 0.930 . S
C144 N141 1.279 . S
C144 C143 1.358 . S
C144 H147 0.930 . S
C145 C142 1.348 . S
C145 C143 1.356 . S
H146 C140 0.930 . S
H147 C144 0.930 . S
O148 Li88 1.956 . S
O148 Li89 1.970 . S
O148 Li90 1.961 . S
O148 C92 1.325 . S
O149 Li88 1.970 . S
O149 Li89 1.956 . S
O149 Li91 1.961 . S
O149 C98 1.325 . S
O150 Li88 1.961 . S
O150 Li90 1.956 . S
O150 Li91 1.970 . S
O150 C120 1.325 . S
O151 Li89 1.961 . S
O151 Li90 1.970 . S
O151 Li91 1.956 . S
O151 C126 1.325 . S
H152 C94 0.929 . S
H153 C95 0.930 . S
H154 C96 0.930 . S
H155 C97 0.930 . S
H156 C99 0.930 . S
H157 C101 0.929 . S
H158 C102 0.930 . S
H159 C103 0.930 . S
H160 C106 0.930 . S
H161 C109 0.929 . S
H162 C114 0.929 . S
H163 C115 0.930 . S
H164 C122 0.929 . S
H165 C123 0.930 . S
H166 C124 0.930 . S
H167 C125 0.930 . S
H168 C127 0.929 . S
H169 C128 0.930 . S
H170 C129 0.930 . S
H171 C130 0.930 . S
H172 C134 0.929 . S
H173 C136 0.930 . S
H174 C142 0.929 . S
H175 C143 0.930 . S
Li176 N193 2.012 . S
Li176 O236 1.956 1_565 S
Li176 O237 1.970 . S
Li176 O238 1.961 . S
Li177 N201 1.990 . S
Li177 O236 1.970 1_565 S
Li177 O237 1.956 . S
Li177 O239 1.961 . S
Li178 N223 1.990 1_565 S
Li178 O236 1.961 1_565 S
Li178 O238 1.956 . S
Li178 O239 1.970 . S
Li179 N229 1.990 . S
Li179 O237 1.961 . S
Li179 O238 1.970 . S
Li179 O239 1.956 . S
C180 C182 1.348 . S
C180 C183 1.356 . S
C180 O236 1.325 . S
N181 C184 1.314 . S
N181 C185 1.279 . S
C182 C180 1.348 . S
C182 C184 1.353 . S
C182 H240 0.929 . S
C183 C180 1.356 . S
C183 C185 1.358 . S
C183 H241 0.930 . S
C184 N181 1.314 . S
C184 C182 1.353 . S
C184 H242 0.930 . S
C185 N181 1.279 . S
C185 C183 1.358 . S
C185 H243 0.930 . S
C186 C189 1.348 . S
C186 C190 1.356 . S
C186 O237 1.325 . S
C187 N188 1.279 . S
C187 C190 1.358 . S
C187 H244 0.930 . S
N188 C187 1.279 . S
N188 C191 1.314 . S
C189 C186 1.348 . S
C189 C191 1.353 . S
C189 H245 0.929 . S
C190 C186 1.356 . S
C190 C187 1.358 . S
C190 H246 0.930 . S
C191 N188 1.314 . S
C191 C189 1.353 . S
C191 H247 0.930 1_455 S
C192 N193 1.308 1_655 S
C192 C197 1.353 . S
C192 H198 0.930 1_655 S
N193 Li176 2.012 . S
N193 C192 1.308 1_455 S
N193 C195 1.261 1_455 S
C194 C195 1.358 . S
C194 C196 1.356 . S
C194 H248 0.930 . S
C195 N193 1.261 1_655 S
C195 C194 1.358 . S
C195 H199 0.930 . S
C196 C194 1.356 . S
C196 C197 1.348 . S
C197 C192 1.353 . S
C197 C196 1.348 . S
C197 H249 0.929 . S
H198 C192 0.930 1_455 S
H199 C195 0.930 . S
C200 N201 1.314 . S
C200 C202 1.353 1_565 S
C200 H206 0.930 1_565 S
N201 Li177 1.990 . S
N201 C200 1.314 . S
N201 C204 1.279 . S
C202 C200 1.353 1_545 S
C202 C205 1.348 1_545 S
C202 H250 0.929 . S
C203 C204 1.358 . S
C203 C205 1.356 . S
C203 H251 0.930 . S
C204 N201 1.279 . S
C204 C203 1.358 . S
C204 H207 0.930 . S
C205 C202 1.348 1_565 S
C205 C203 1.356 . S
H206 C200 0.930 1_545 S
H207 C204 0.930 . S
C208 C210 1.348 . S
C208 C211 1.356 . S
C208 O238 1.325 . S
N209 C212 1.314 . S
N209 C213 1.279 . S
C210 C208 1.348 . S
C210 C212 1.353 . S
C210 H252 0.929 . S
C211 C208 1.356 . S
C211 C213 1.358 . S
C211 H253 0.930 . S
C212 N209 1.314 . S
C212 C210 1.353 . S
C212 H254 0.930 . S
C213 N209 1.279 . S
C213 C211 1.358 . S
C213 H255 0.930 . S
C214 C215 1.348 . S
C214 C216 1.356 . S
C214 O239 1.325 . S
C215 C214 1.348 . S
C215 C217 1.353 . S
C215 H256 0.929 . S
C216 C214 1.356 . S
C216 C218 1.358 . S
C216 H257 0.930 . S
C217 C215 1.353 . S
C217 N219 1.314 . S
C217 H258 0.930 . S
C218 C216 1.358 . S
C218 N219 1.279 . S
C218 H259 0.930 . S
N219 C217 1.314 . S
N219 C218 1.279 . S
C220 C222 1.353 . S
C220 N223 1.314 . S
C220 H226 0.930 . S
C221 N223 1.279 . S
C221 C224 1.358 . S
C221 H227 0.930 . S
C222 C220 1.353 . S
C222 C225 1.348 . S
C222 H260 0.929 . S
N223 Li178 1.990 1_545 S
N223 C220 1.314 . S
N223 C221 1.279 . S
C224 C221 1.358 . S
C224 C225 1.356 . S
C224 H261 0.930 . S
C225 C222 1.348 . S
C225 C224 1.356 . S
H226 C220 0.930 . S
H227 C221 0.930 . S
C228 N229 1.314 . S
C228 C230 1.353 . S
C228 H234 0.930 . S
N229 Li179 1.990 . S
N229 C228 1.314 . S
N229 C232 1.279 . S
C230 C228 1.353 . S
C230 C233 1.348 . S
C230 H262 0.929 . S
C231 C232 1.358 . S
C231 C233 1.356 . S
C231 H263 0.930 . S
C232 N229 1.279 . S
C232 C231 1.358 . S
C232 H235 0.930 . S
C233 C230 1.348 . S
C233 C231 1.356 . S
H234 C228 0.930 . S
H235 C232 0.930 . S
O236 Li176 1.956 1_545 S
O236 Li177 1.970 1_545 S
O236 Li178 1.961 1_545 S
O236 C180 1.325 . S
O237 Li176 1.970 . S
O237 Li177 1.956 . S
O237 Li179 1.961 . S
O237 C186 1.325 . S
O238 Li176 1.961 . S
O238 Li178 1.956 . S
O238 Li179 1.970 . S
O238 C208 1.325 . S
O239 Li177 1.961 . S
O239 Li178 1.970 . S
O239 Li179 1.956 . S
O239 C214 1.325 . S
H240 C182 0.929 . S
H241 C183 0.930 . S
H242 C184 0.930 . S
H243 C185 0.930 . S
H244 C187 0.930 . S
H245 C189 0.929 . S
H246 C190 0.930 . S
H247 C191 0.930 1_655 S
H248 C194 0.930 . S
H249 C197 0.929 . S
H250 C202 0.929 . S
H251 C203 0.930 . S
H252 C210 0.929 . S
H253 C211 0.930 . S
H254 C212 0.930 . S
H255 C213 0.930 . S
H256 C215 0.929 . S
H257 C216 0.930 . S
H258 C217 0.930 . S
H259 C218 0.930 . S
H260 C222 0.929 . S
H261 C224 0.930 . S
H262 C230 0.929 . S
H263 C231 0.930 . S
Li264 N281 1.990 . S
Li264 O324 1.956 . S
Li264 O325 1.970 . S
Li264 O326 1.961 . S
Li265 N289 1.990 . S
Li265 O324 1.970 . S
Li265 O325 1.956 . S
Li265 O327 1.961 . S
Li266 N311 1.990 . S
Li266 O324 1.961 . S
Li266 O326 1.956 . S
Li266 O327 1.970 . S
Li267 N317 1.990 . S
Li267 O325 1.961 . S
Li267 O326 1.970 . S
Li267 O327 1.956 . S
C268 C270 1.348 . S
C268 C271 1.356 . S
C268 O324 1.325 . S
N269 C272 1.314 . S
N269 C273 1.279 . S
C270 C268 1.348 . S
C270 C272 1.353 . S
C270 H328 0.929 . S
C271 C268 1.356 . S
C271 C273 1.358 . S
C271 H329 0.930 . S
C272 N269 1.314 . S
C272 C270 1.353 . S
C272 H330 0.930 . S
C273 N269 1.279 . S
C273 C271 1.358 . S
C273 H331 0.930 . S
C274 C277 1.348 . S
C274 C278 1.356 . S
C274 O325 1.325 . S
C275 N276 1.279 . S
C275 C278 1.358 . S
C275 H332 0.930 . S
N276 C275 1.279 . S
N276 C279 1.314 . S
C277 C274 1.348 . S
C277 C279 1.353 . S
C277 H333 0.929 . S
C278 C274 1.356 . S
C278 C275 1.358 . S
C278 H334 0.930 . S
C279 N276 1.314 . S
C279 C277 1.353 . S
C279 H335 0.930 . S
C280 N281 1.314 . S
C280 C285 1.353 . S
C280 H286 0.930 . S
N281 Li264 1.990 . S
N281 C280 1.314 . S
N281 C283 1.279 . S
C282 C283 1.358 . S
C282 C284 1.356 . S
C282 H336 0.930 . S
C283 N281 1.279 . S
C283 C282 1.358 . S
C283 H287 0.930 . S
C284 C282 1.356 . S
C284 C285 1.348 . S
C285 C280 1.353 . S
C285 C284 1.348 . S
C285 H337 0.929 . S
H286 C280 0.930 . S
H287 C283 0.930 . S
C288 N289 1.314 . S
C288 C290 1.353 . S
C288 H294 0.930 . S
N289 Li265 1.990 . S
N289 C288 1.314 . S
N289 C292 1.279 . S
C290 C288 1.353 . S
C290 C293 1.348 . S
C290 H338 0.929 . S
C291 C292 1.358 . S
C291 C293 1.356 . S
C291 H339 0.930 . S
C292 N289 1.279 . S
C292 C291 1.358 . S
C292 H295 0.930 . S
C293 C290 1.348 . S
C293 C291 1.356 . S
H294 C288 0.930 . S
H295 C292 0.930 . S
C296 C298 1.348 . S
C296 C299 1.356 . S
C296 O326 1.325 . S
N297 C300 1.314 . S
N297 C301 1.279 . S
C298 C296 1.348 . S
C298 C300 1.353 . S
C298 H340 0.929 . S
C299 C296 1.356 . S
C299 C301 1.358 . S
C299 H341 0.930 . S
C300 N297 1.314 . S
C300 C298 1.353 . S
C300 H342 0.930 . S
C301 N297 1.279 . S
C301 C299 1.358 . S
C301 H343 0.930 . S
C302 C303 1.348 . S
C302 C304 1.356 . S
C302 O327 1.325 . S
C303 C302 1.348 . S
C303 C305 1.353 . S
C303 H344 0.929 . S
C304 C302 1.356 . S
C304 C306 1.358 . S
C304 H345 0.930 . S
C305 C303 1.353 . S
C305 N307 1.314 . S
C305 H346 0.930 . S
C306 C304 1.358 . S
C306 N307 1.279 . S
C306 H347 0.930 . S
N307 C305 1.314 . S
N307 C306 1.279 . S
C308 C310 1.353 . S
C308 N311 1.314 . S
C308 H314 0.930 . S
C309 N311 1.279 . S
C309 C312 1.358 . S
C309 H315 0.930 . S
C310 C308 1.353 . S
C310 C313 1.348 . S
C310 H348 0.929 . S
N311 Li266 1.990 . S
N311 C308 1.314 . S
N311 C309 1.279 . S
C312 C309 1.358 . S
C312 C313 1.356 . S
C312 H349 0.930 . S
C313 C310 1.348 . S
C313 C312 1.356 . S
H314 C308 0.930 . S
H315 C309 0.930 . S
C316 N317 1.314 . S
C316 C318 1.353 . S
C316 H322 0.930 . S
N317 Li267 1.990 . S
N317 C316 1.314 . S
N317 C320 1.279 . S
C318 C316 1.353 . S
C318 C321 1.348 . S
C318 H350 0.929 . S
C319 C320 1.358 . S
C319 C321 1.356 . S
C319 H351 0.930 . S
C320 N317 1.279 . S
C320 C319 1.358 . S
C320 H323 0.930 . S
C321 C318 1.348 . S
C321 C319 1.356 . S
H322 C316 0.930 . S
H323 C320 0.930 . S
O324 Li264 1.956 . S
O324 Li265 1.970 . S
O324 Li266 1.961 . S
O324 C268 1.325 . S
O325 Li264 1.970 . S
O325 Li265 1.956 . S
O325 Li267 1.961 . S
O325 C274 1.325 . S
O326 Li264 1.961 . S
O326 Li266 1.956 . S
O326 Li267 1.970 . S
O326 C296 1.325 . S
O327 Li265 1.961 . S
O327 Li266 1.970 . S
O327 Li267 1.956 . S
O327 C302 1.325 . S
H328 C270 0.929 . S
H329 C271 0.930 . S
H330 C272 0.930 . S
H331 C273 0.930 . S
H332 C275 0.930 . S
H333 C277 0.929 . S
H334 C278 0.930 . S
H335 C279 0.930 . S
H336 C282 0.930 . S
H337 C285 0.929 . S
H338 C290 0.929 . S
H339 C291 0.930 . S
H340 C298 0.929 . S
H341 C299 0.930 . S
H342 C300 0.930 . S
H343 C301 0.930 . S
H344 C303 0.929 . S
H345 C304 0.930 . S
H346 C305 0.930 . S
H347 C306 0.930 . S
H348 C310 0.929 . S
H349 C312 0.930 . S
H350 C318 0.929 . S
H351 C319 0.930 . S
Li352 N369 1.990 1_565 S
Li352 O412 1.956 . S
Li352 O413 1.970 . S
Li352 O414 1.961 1_565 S
Li353 N377 1.990 . S
Li353 O412 1.970 . S
Li353 O413 1.956 . S
Li353 O415 1.961 . S
Li354 N399 1.990 . S
Li354 O412 1.961 . S
Li354 O414 1.956 1_565 S
Li354 O415 1.970 . S
Li355 N405 1.990 . S
Li355 O413 1.961 . S
Li355 O414 1.970 1_565 S
Li355 O415 1.956 . S
C356 C358 1.348 . S
C356 C359 1.356 . S
C356 O412 1.325 . S
N357 C360 1.314 . S
N357 C361 1.279 . S
C358 C356 1.348 . S
C358 C360 1.353 . S
C358 H416 0.929 . S
C359 C356 1.356 . S
C359 C361 1.358 . S
C359 H417 0.930 . S
C360 N357 1.314 . S
C360 C358 1.353 . S
C360 H418 0.930 . S
C361 N357 1.279 . S
C361 C359 1.358 . S
C361 H419 0.930 . S
C362 C365 1.348 . S
C362 C366 1.356 . S
C362 O413 1.325 . S
C363 N364 1.279 . S
C363 C366 1.358 . S
C363 H420 0.930 . S
N364 C363 1.279 . S
N364 C367 1.314 . S
C365 C362 1.348 . S
C365 C367 1.353 . S
C365 H421 0.929 . S
C366 C362 1.356 . S
C366 C363 1.358 . S
C366 H422 0.930 . S
C367 N364 1.314 . S
C367 C365 1.353 . S
C367 H423 0.930 . S
C368 N369 1.314 . S
C368 C373 1.353 . S
C368 H374 0.930 . S
N369 Li352 1.990 1_545 S
N369 C368 1.314 . S
N369 C371 1.279 . S
C370 C371 1.358 . S
C370 C372 1.356 . S
C370 H424 0.930 . S
C371 N369 1.279 . S
C371 C370 1.358 . S
C371 H375 0.930 . S
C372 C370 1.356 . S
C372 C373 1.348 . S
C373 C368 1.353 . S
C373 C372 1.348 . S
C373 H425 0.929 . S
H374 C368 0.930 . S
H375 C371 0.930 . S
C376 N377 1.314 . S
C376 C378 1.353 . S
C376 H382 0.930 . S
N377 Li353 1.990 . S
N377 C376 1.314 . S
N377 C380 1.279 . S
C378 C376 1.353 . S
C378 C381 1.348 . S
C378 H426 0.929 . S
C379 C380 1.358 . S
C379 C381 1.356 . S
C379 H427 0.930 . S
C380 N377 1.279 . S
C380 C379 1.358 . S
C380 H383 0.930 . S
C381 C378 1.348 . S
C381 C379 1.356 . S
H382 C376 0.930 . S
H383 C380 0.930 . S
C384 C386 1.348 . S
C384 C387 1.356 . S
C384 O414 1.325 . S
N385 C388 1.314 . S
N385 C389 1.279 . S
C386 C384 1.348 . S
C386 C388 1.353 . S
C386 H428 0.929 . S
C387 C384 1.356 . S
C387 C389 1.358 . S
C387 H429 0.930 . S
C388 N385 1.314 . S
C388 C386 1.353 . S
C388 H430 0.930 . S
C389 N385 1.279 . S
C389 C387 1.358 . S
C389 H431 0.930 . S
C390 C391 1.348 . S
C390 C392 1.356 . S
C390 O415 1.325 . S
C391 C390 1.348 . S
C391 C393 1.353 . S
C391 H432 0.929 . S
C392 C390 1.356 . S
C392 C394 1.358 . S
C392 H433 0.930 . S
C393 C391 1.353 . S
C393 N395 1.314 . S
C393 H434 0.930 . S
C394 C392 1.358 . S
C394 N395 1.279 . S
C394 H435 0.930 . S
N395 C393 1.314 . S
N395 C394 1.279 . S
C396 C398 1.353 . S
C396 N399 1.314 . S
C396 H402 0.930 . S
C397 N399 1.279 . S
C397 C400 1.358 . S
C397 H403 0.930 . S
C398 C396 1.353 . S
C398 C401 1.348 . S
C398 H436 0.929 . S
N399 Li354 1.990 . S
N399 C396 1.314 . S
N399 C397 1.279 . S
C400 C397 1.358 . S
C400 C401 1.356 . S
C400 H437 0.930 . S
C401 C398 1.348 . S
C401 C400 1.356 . S
H402 C396 0.930 . S
H403 C397 0.930 . S
C404 N405 1.314 . S
C404 C406 1.353 1_565 S
C404 H410 0.930 1_565 S
N405 Li355 1.990 . S
N405 C404 1.314 . S
N405 C408 1.279 . S
C406 C404 1.353 1_545 S
C406 C409 1.348 1_545 S
C406 H438 0.929 . S
C407 C408 1.358 . S
C407 C409 1.356 . S
C407 H439 0.930 . S
C408 N405 1.279 . S
C408 C407 1.358 . S
C408 H411 0.930 . S
C409 C406 1.348 1_565 S
C409 C407 1.356 . S
H410 C404 0.930 1_545 S
H411 C408 0.930 . S
O412 Li352 1.956 . S
O412 Li353 1.970 . S
O412 Li354 1.961 . S
O412 C356 1.325 . S
O413 Li352 1.970 . S
O413 Li353 1.956 . S
O413 Li355 1.961 . S
O413 C362 1.325 . S
O414 Li352 1.961 1_545 S
O414 Li354 1.956 1_545 S
O414 Li355 1.970 1_545 S
O414 C384 1.325 . S
O415 Li353 1.961 . S
O415 Li354 1.970 . S
O415 Li355 1.956 . S
O415 C390 1.325 . S
H416 C358 0.929 . S
H417 C359 0.930 . S
H418 C360 0.930 . S
H419 C361 0.930 . S
H420 C363 0.930 . S
H421 C365 0.929 . S
H422 C366 0.930 . S
H423 C367 0.930 . S
H424 C370 0.930 . S
H425 C373 0.929 . S
H426 C378 0.929 . S
H427 C379 0.930 . S
H428 C386 0.929 . S
H429 C387 0.930 . S
H430 C388 0.930 . S
H431 C389 0.930 . S
H432 C391 0.929 . S
H433 C392 0.930 . S
H434 C393 0.930 . S
H435 C394 0.930 . S
H436 C398 0.929 . S
H437 C400 0.930 . S
H438 C406 0.929 . S
H439 C407 0.930 . S
Li440 N457 1.990 . S
Li440 O500 1.956 . S
Li440 O501 1.970 . S
Li440 O502 1.961 . S
Li441 N465 1.990 . S
Li441 O500 1.970 . S
Li441 O501 1.956 . S
Li441 O503 1.961 . S
Li442 N487 1.990 . S
Li442 O500 1.961 . S
Li442 O502 1.956 . S
Li442 O503 1.970 . S
Li443 N493 1.990 . S
Li443 O501 1.961 . S
Li443 O502 1.970 . S
Li443 O503 1.956 . S
C444 C446 1.348 . S
C444 C447 1.356 . S
C444 O500 1.325 . S
N445 C448 1.314 . S
N445 C449 1.279 . S
C446 C444 1.348 . S
C446 C448 1.353 . S
C446 H504 0.929 . S
C447 C444 1.356 . S
C447 C449 1.358 . S
C447 H505 0.930 . S
C448 N445 1.314 . S
C448 C446 1.353 . S
C448 H506 0.930 . S
C449 N445 1.279 . S
C449 C447 1.358 . S
C449 H507 0.930 . S
C450 C453 1.348 . S
C450 C454 1.356 . S
C450 O501 1.325 . S
C451 N452 1.279 . S
C451 C454 1.358 . S
C451 H508 0.930 . S
N452 C451 1.279 . S
N452 C455 1.314 . S
C453 C450 1.348 . S
C453 C455 1.353 . S
C453 H509 0.929 . S
C454 C450 1.356 . S
C454 C451 1.358 . S
C454 H510 0.930 . S
C455 N452 1.314 . S
C455 C453 1.353 . S
C455 H511 0.930 . S
C456 N457 1.314 . S
C456 C461 1.353 . S
C456 H462 0.930 . S
N457 Li440 1.990 . S
N457 C456 1.314 . S
N457 C459 1.279 . S
C458 C459 1.358 . S
C458 C460 1.356 . S
C458 H512 0.930 . S
C459 N457 1.279 . S
C459 C458 1.358 . S
C459 H463 0.930 . S
C460 C458 1.356 . S
C460 C461 1.348 . S
C461 C456 1.353 . S
C461 C460 1.348 . S
C461 H513 0.929 . S
H462 C456 0.930 . S
H463 C459 0.930 . S
C464 N465 1.314 . S
C464 C466 1.353 . S
C464 H470 0.930 . S
N465 Li441 1.990 . S
N465 C464 1.314 . S
N465 C468 1.279 . S
C466 C464 1.353 . S
C466 C469 1.348 . S
C466 H514 0.929 . S
C467 C468 1.358 . S
C467 C469 1.356 . S
C467 H515 0.930 . S
C468 N465 1.279 . S
C468 C467 1.358 . S
C468 H471 0.930 . S
C469 C466 1.348 . S
C469 C467 1.356 . S
H470 C464 0.930 . S
H471 C468 0.930 . S
C472 C474 1.348 . S
C472 C475 1.356 . S
C472 O502 1.325 . S
N473 C476 1.314 . S
N473 C477 1.279 . S
C474 C472 1.348 . S
C474 C476 1.353 . S
C474 H516 0.929 . S
C475 C472 1.356 . S
C475 C477 1.358 . S
C475 H517 0.930 . S
C476 N473 1.314 . S
C476 C474 1.353 . S
C476 H518 0.930 . S
C477 N473 1.279 . S
C477 C475 1.358 . S
C477 H519 0.930 . S
C478 C479 1.348 . S
C478 C480 1.356 . S
C478 O503 1.325 . S
C479 C478 1.348 . S
C479 C481 1.353 . S
C479 H520 0.929 . S
C480 C478 1.356 . S
C480 C482 1.358 . S
C480 H521 0.930 . S
C481 C479 1.353 . S
C481 N483 1.314 . S
C481 H522 0.930 . S
C482 C480 1.358 . S
C482 N483 1.279 . S
C482 H523 0.930 . S
N483 C481 1.314 . S
N483 C482 1.279 . S
C484 C486 1.353 . S
C484 N487 1.314 . S
C484 H490 0.930 . S
C485 N487 1.279 . S
C485 C488 1.358 . S
C485 H491 0.930 . S
C486 C484 1.353 . S
C486 C489 1.348 . S
C486 H524 0.929 . S
N487 Li442 1.990 . S
N487 C484 1.314 . S
N487 C485 1.279 . S
C488 C485 1.358 . S
C488 C489 1.356 . S
C488 H525 0.930 . S
C489 C486 1.348 . S
C489 C488 1.356 . S
H490 C484 0.930 . S
H491 C485 0.930 . S
C492 N493 1.314 . S
C492 C494 1.353 . S
C492 H498 0.930 . S
N493 Li443 1.990 . S
N493 C492 1.314 . S
N493 C496 1.279 . S
C494 C492 1.353 . S
C494 C497 1.348 . S
C494 H526 0.929 . S
C495 C496 1.358 . S
C495 C497 1.356 . S
C495 H527 0.930 . S
C496 N493 1.279 . S
C496 C495 1.358 . S
C496 H499 0.930 . S
C497 C494 1.348 . S
C497 C495 1.356 . S
H498 C492 0.930 . S
H499 C496 0.930 . S
O500 Li440 1.956 . S
O500 Li441 1.970 . S
O500 Li442 1.961 . S
O500 C444 1.325 . S
O501 Li440 1.970 . S
O501 Li441 1.956 . S
O501 Li443 1.961 . S
O501 C450 1.325 . S
O502 Li440 1.961 . S
O502 Li442 1.956 . S
O502 Li443 1.970 . S
O502 C472 1.325 . S
O503 Li441 1.961 . S
O503 Li442 1.970 . S
O503 Li443 1.956 . S
O503 C478 1.325 . S
H504 C446 0.929 . S
H505 C447 0.930 . S
H506 C448 0.930 . S
H507 C449 0.930 . S
H508 C451 0.930 . S
H509 C453 0.929 . S
H510 C454 0.930 . S
H511 C455 0.930 . S
H512 C458 0.930 . S
H513 C461 0.929 . S
H514 C466 0.929 . S
H515 C467 0.930 . S
H516 C474 0.929 . S
H517 C475 0.930 . S
H518 C476 0.930 . S
H519 C477 0.930 . S
H520 C479 0.929 . S
H521 C480 0.930 . S
H522 C481 0.930 . S
H523 C482 0.930 . S
H524 C486 0.929 . S
H525 C488 0.930 . S
H526 C494 0.929 . S
H527 C495 0.930 . S
Li528 N545 1.990 . S
Li528 O588 1.956 . S
Li528 O589 1.970 . S
Li528 O590 1.961 . S
Li529 N553 1.990 1_545 S
Li529 O588 1.970 . S
Li529 O589 1.956 . S
Li529 O591 1.961 1_545 S
Li530 N575 1.990 . S
Li530 O588 1.961 . S
Li530 O590 1.956 . S
Li530 O591 1.970 1_545 S
Li531 N581 2.012 . S
Li531 O589 1.961 . S
Li531 O590 1.970 . S
Li531 O591 1.956 1_545 S
C532 C534 1.348 . S
C532 C535 1.356 . S
C532 O588 1.325 . S
N533 C536 1.314 . S
N533 C537 1.279 . S
C534 C532 1.348 . S
C534 C536 1.353 . S
C534 H592 0.929 . S
C535 C532 1.356 . S
C535 C537 1.358 . S
C535 H593 0.930 . S
C536 N533 1.314 . S
C536 C534 1.353 . S
C536 H594 0.930 . S
C537 N533 1.279 . S
C537 C535 1.358 . S
C537 H595 0.930 . S
C538 C541 1.348 . S
C538 C542 1.356 . S
C538 O589 1.325 . S
C539 N540 1.279 . S
C539 C542 1.358 . S
C539 H596 0.930 . S
N540 C539 1.279 . S
N540 C543 1.314 . S
C541 C538 1.348 . S
C541 C543 1.353 . S
C541 H597 0.929 . S
C542 C538 1.356 . S
C542 C539 1.358 . S
C542 H598 0.930 . S
C543 N540 1.314 . S
C543 C541 1.353 . S
C543 H599 0.930 . S
C544 N545 1.314 . S
C544 C549 1.353 . S
C544 H550 0.930 . S
N545 Li528 1.990 . S
N545 C544 1.314 . S
N545 C547 1.279 . S
C546 C547 1.358 . S
C546 C548 1.356 . S
C546 H600 0.930 . S
C547 N545 1.279 . S
C547 C546 1.358 . S
C547 H551 0.930 . S
C548 C546 1.356 . S
C548 C549 1.348 . S
C549 C544 1.353 . S
C549 C548 1.348 . S
C549 H601 0.929 . S
H550 C544 0.930 . S
H551 C547 0.930 . S
C552 N553 1.314 . S
C552 C554 1.353 . S
C552 H558 0.930 . S
N553 Li529 1.990 1_565 S
N553 C552 1.314 . S
N553 C556 1.279 . S
C554 C552 1.353 . S
C554 C557 1.348 . S
C554 H602 0.929 . S
C555 C556 1.358 . S
C555 C557 1.356 . S
C555 H603 0.930 . S
C556 N553 1.279 . S
C556 C555 1.358 . S
C556 H559 0.930 . S
C557 C554 1.348 . S
C557 C555 1.356 . S
H558 C552 0.930 . S
H559 C556 0.930 . S
C560 C562 1.348 . S
C560 C563 1.356 . S
C560 O590 1.325 . S
N561 C564 1.314 . S
N561 C565 1.279 . S
C562 C560 1.348 . S
C562 C564 1.353 . S
C562 H604 0.929 . S
C563 C560 1.356 . S
C563 C565 1.358 . S
C563 H605 0.930 . S
C564 N561 1.314 . S
C564 C562 1.353 . S
C564 H606 0.930 1_455 S
C565 N561 1.279 . S
C565 C563 1.358 . S
C565 H607 0.930 . S
C566 C567 1.348 . S
C566 C568 1.356 . S
C566 O591 1.325 . S
C567 C566 1.348 . S
C567 C569 1.353 . S
C567 H608 0.929 . S
C568 C566 1.356 . S
C568 C570 1.358 . S
C568 H609 0.930 . S
C569 C567 1.353 . S
C569 N571 1.314 . S
C569 H610 0.930 . S
C570 C568 1.358 . S
C570 N571 1.279 . S
C570 H611 0.930 . S
N571 C569 1.314 . S
N571 C570 1.279 . S
C572 C574 1.353 1_545 S
C572 N575 1.314 . S
C572 H578 0.930 1_545 S
C573 N575 1.279 . S
C573 C576 1.358 . S
C573 H579 0.930 . S
C574 C572 1.353 1_565 S
C574 C577 1.348 1_565 S
C574 H612 0.929 . S
N575 Li530 1.990 . S
N575 C572 1.314 . S
N575 C573 1.279 . S
C576 C573 1.358 . S
C576 C577 1.356 . S
C576 H613 0.930 . S
C577 C574 1.348 1_545 S
C577 C576 1.356 . S
H578 C572 0.930 1_565 S
H579 C573 0.930 . S
C580 N581 1.308 1_655 S
C580 C582 1.353 . S
C580 H586 0.930 1_655 S
N581 Li531 2.012 . S
N581 C580 1.308 1_455 S
N581 C584 1.261 1_455 S
C582 C580 1.353 . S
C582 C585 1.348 . S
C582 H614 0.929 . S
C583 C584 1.358 . S
C583 C585 1.356 . S
C583 H615 0.930 . S
C584 N581 1.261 1_655 S
C584 C583 1.358 . S
C584 H587 0.930 . S
C585 C582 1.348 . S
C585 C583 1.356 . S
H586 C580 0.930 1_455 S
H587 C584 0.930 . S
O588 Li528 1.956 . S
O588 Li529 1.970 . S
O588 Li530 1.961 . S
O588 C532 1.325 . S
O589 Li528 1.970 . S
O589 Li529 1.956 . S
O589 Li531 1.961 . S
O589 C538 1.325 . S
O590 Li528 1.961 . S
O590 Li530 1.956 . S
O590 Li531 1.970 . S
O590 C560 1.325 . S
O591 Li529 1.961 1_565 S
O591 Li530 1.970 1_565 S
O591 Li531 1.956 1_565 S
O591 C566 1.325 . S
H592 C534 0.929 . S
H593 C535 0.930 . S
H594 C536 0.930 . S
H595 C537 0.930 . S
H596 C539 0.930 . S
H597 C541 0.929 . S
H598 C542 0.930 . S
H599 C543 0.930 . S
H600 C546 0.930 . S
H601 C549 0.929 . S
H602 C554 0.929 . S
H603 C555 0.930 . S
H604 C562 0.929 . S
H605 C563 0.930 . S
H606 C564 0.930 1_655 S
H607 C565 0.930 . S
H608 C567 0.929 . S
H609 C568 0.930 . S
H610 C569 0.930 . S
H611 C570 0.930 . S
H612 C574 0.929 . S
H613 C576 0.930 . S
H614 C582 0.929 . S
H615 C583 0.930 . S
Li616 N633 1.990 . S
Li616 O676 1.956 . S
Li616 O677 1.970 . S
Li616 O678 1.961 . S
Li617 N641 1.990 . S
Li617 O676 1.970 . S
Li617 O677 1.956 . S
Li617 O679 1.961 . S
Li618 N663 1.990 . S
Li618 O676 1.961 . S
Li618 O678 1.956 . S
Li618 O679 1.970 . S
Li619 N669 1.990 . S
Li619 O677 1.961 . S
Li619 O678 1.970 . S
Li619 O679 1.956 . S
C620 C622 1.348 . S
C620 C623 1.356 . S
C620 O676 1.325 . S
N621 C624 1.314 . S
N621 C625 1.279 . S
C622 C620 1.348 . S
C622 C624 1.353 . S
C622 H680 0.929 . S
C623 C620 1.356 . S
C623 C625 1.358 . S
C623 H681 0.930 . S
C624 N621 1.314 . S
C624 C622 1.353 . S
C624 H682 0.930 . S
C625 N621 1.279 . S
C625 C623 1.358 . S
C625 H683 0.930 . S
C626 C629 1.348 . S
C626 C630 1.356 . S
C626 O677 1.325 . S
C627 N628 1.279 . S
C627 C630 1.358 . S
C627 H684 0.930 . S
N628 C627 1.279 . S
N628 C631 1.314 . S
C629 C626 1.348 . S
C629 C631 1.353 . S
C629 H685 0.929 . S
C630 C626 1.356 . S
C630 C627 1.358 . S
C630 H686 0.930 . S
C631 N628 1.314 . S
C631 C629 1.353 . S
C631 H687 0.930 . S
C632 N633 1.314 . S
C632 C637 1.353 . S
C632 H638 0.930 . S
N633 Li616 1.990 . S
N633 C632 1.314 . S
N633 C635 1.279 . S
C634 C635 1.358 . S
C634 C636 1.356 . S
C634 H688 0.930 . S
C635 N633 1.279 . S
C635 C634 1.358 . S
C635 H639 0.930 . S
C636 C634 1.356 . S
C636 C637 1.348 . S
C637 C632 1.353 . S
C637 C636 1.348 . S
C637 H689 0.929 . S
H638 C632 0.930 . S
H639 C635 0.930 . S
C640 N641 1.314 . S
C640 C642 1.353 . S
C640 H646 0.930 . S
N641 Li617 1.990 . S
N641 C640 1.314 . S
N641 C644 1.279 . S
C642 C640 1.353 . S
C642 C645 1.348 . S
C642 H690 0.929 . S
C643 C644 1.358 . S
C643 C645 1.356 . S
C643 H691 0.930 . S
C644 N641 1.279 . S
C644 C643 1.358 . S
C644 H647 0.930 . S
C645 C642 1.348 . S
C645 C643 1.356 . S
H646 C640 0.930 . S
H647 C644 0.930 . S
C648 C650 1.348 . S
C648 C651 1.356 . S
C648 O678 1.325 . S
N649 C652 1.314 . S
N649 C653 1.279 . S
C650 C648 1.348 . S
C650 C652 1.353 . S
C650 H692 0.929 . S
C651 C648 1.356 . S
C651 C653 1.358 . S
C651 H693 0.930 . S
C652 N649 1.314 . S
C652 C650 1.353 . S
C652 H694 0.930 . S
C653 N649 1.279 . S
C653 C651 1.358 . S
C653 H695 0.930 . S
C654 C655 1.348 . S
C654 C656 1.356 . S
C654 O679 1.325 . S
C655 C654 1.348 . S
C655 C657 1.353 . S
C655 H696 0.929 . S
C656 C654 1.356 . S
C656 C658 1.358 . S
C656 H697 0.930 . S
C657 C655 1.353 . S
C657 N659 1.314 . S
C657 H698 0.930 . S
C658 C656 1.358 . S
C658 N659 1.279 . S
C658 H699 0.930 . S
N659 C657 1.314 . S
N659 C658 1.279 . S
C660 C662 1.353 . S
C660 N663 1.314 . S
C660 H666 0.930 . S
C661 N663 1.279 . S
C661 C664 1.358 . S
C661 H667 0.930 . S
C662 C660 1.353 . S
C662 C665 1.348 . S
C662 H700 0.929 . S
N663 Li618 1.990 . S
N663 C660 1.314 . S
N663 C661 1.279 . S
C664 C661 1.358 . S
C664 C665 1.356 . S
C664 H701 0.930 . S
C665 C662 1.348 . S
C665 C664 1.356 . S
H666 C660 0.930 . S
H667 C661 0.930 . S
C668 N669 1.314 . S
C668 C670 1.353 . S
C668 H674 0.930 . S
N669 Li619 1.990 . S
N669 C668 1.314 . S
N669 C672 1.279 . S
C670 C668 1.353 . S
C670 C673 1.348 . S
C670 H702 0.929 . S
C671 C672 1.358 . S
C671 C673 1.356 . S
C671 H703 0.930 . S
C672 N669 1.279 . S
C672 C671 1.358 . S
C672 H675 0.930 . S
C673 C670 1.348 . S
C673 C671 1.356 . S
H674 C668 0.930 . S
H675 C672 0.930 . S
O676 Li616 1.956 . S
O676 Li617 1.970 . S
O676 Li618 1.961 . S
O676 C620 1.325 . S
O677 Li616 1.970 . S
O677 Li617 1.956 . S
O677 Li619 1.961 . S
O677 C626 1.325 . S
O678 Li616 1.961 . S
O678 Li618 1.956 . S
O678 Li619 1.970 . S
O678 C648 1.325 . S
O679 Li617 1.961 . S
O679 Li618 1.970 . S
O679 Li619 1.956 . S
O679 C654 1.325 . S
H680 C622 0.929 . S
H681 C623 0.930 . S
H682 C624 0.930 . S
H683 C625 0.930 . S
H684 C627 0.930 . S
H685 C629 0.929 . S
H686 C630 0.930 . S
H687 C631 0.930 . S
H688 C634 0.930 . S
H689 C637 0.929 . S
H690 C642 0.929 . S
H691 C643 0.930 . S
H692 C650 0.929 . S
H693 C651 0.930 . S
H694 C652 0.930 . S
H695 C653 0.930 . S
H696 C655 0.929 . S
H697 C656 0.930 . S
H698 C657 0.930 . S
H699 C658 0.930 . S
H700 C662 0.929 . S
H701 C664 0.930 . S
H702 C670 0.929 . S
H703 C671 0.930 . S
Li704 N721 1.990 . S
Li704 O764 1.956 . S
Li704 O765 1.965 1_565 S
Li704 O766 1.961 . S
Li705 N729 1.990 1_565 S
Li705 O764 1.970 . S
Li705 O765 1.955 1_565 S
Li705 O767 1.961 . S
Li706 N751 1.990 . S
Li706 O764 1.961 . S
Li706 O766 1.956 . S
Li706 O767 1.970 . S
Li707 N757 1.990 . S
Li707 O765 1.954 1_565 S
Li707 O766 1.970 . S
Li707 O767 1.956 . S
C708 C710 1.348 . S
C708 C711 1.356 . S
C708 O764 1.325 . S
N709 C712 1.314 . S
N709 C713 1.279 . S
C710 C708 1.348 . S
C710 C712 1.353 . S
C710 H768 0.929 1_565 S
C711 C708 1.356 . S
C711 C713 1.358 . S
C711 H769 0.930 . S
C712 N709 1.314 . S
C712 C710 1.353 . S
C712 H770 0.930 1_565 S
C713 N709 1.279 . S
C713 C711 1.358 . S
C713 H771 0.930 . S
C714 C717 1.348 . S
C714 C718 1.356 . S
C714 O765 1.332 . S
C715 N716 1.279 . S
C715 C718 1.358 . S
C715 H772 0.930 . S
N716 C715 1.279 . S
N716 C719 1.314 . S
C717 C714 1.348 . S
C717 C719 1.353 . S
C717 H773 0.929 . S
C718 C714 1.356 . S
C718 C715 1.358 . S
C718 H774 0.930 . S
C719 N716 1.314 . S
C719 C717 1.353 . S
C719 H775 0.930 . S
C720 N721 1.314 . S
C720 C725 1.353 . S
C720 H726 0.930 . S
N721 Li704 1.990 . S
N721 C720 1.314 . S
N721 C723 1.279 . S
C722 C723 1.358 . S
C722 C724 1.356 . S
C722 H776 0.925 1_565 S
C723 N721 1.279 . S
C723 C722 1.358 . S
C723 H727 0.930 . S
C724 C722 1.356 . S
C724 C725 1.348 . S
C725 C720 1.353 . S
C725 C724 1.348 . S
C725 H777 0.929 . S
H726 C720 0.930 . S
H727 C723 0.930 . S
C728 N729 1.314 . S
C728 C730 1.353 . S
C728 H734 0.930 . S
N729 Li705 1.990 1_545 S
N729 C728 1.314 . S
N729 C732 1.279 . S
C730 C728 1.353 . S
C730 C733 1.348 . S
C730 H778 0.929 . S
C731 C732 1.358 . S
C731 C733 1.356 . S
C731 H779 0.930 . S
C732 N729 1.279 . S
C732 C731 1.358 . S
C732 H735 0.930 . S
C733 C730 1.348 . S
C733 C731 1.356 . S
H734 C728 0.930 . S
H735 C732 0.930 . S
C736 C738 1.348 . S
C736 C739 1.356 . S
C736 O766 1.325 . S
N737 C740 1.314 . S
N737 C741 1.279 . S
C738 C736 1.348 . S
C738 C740 1.353 . S
C738 H780 0.929 . S
C739 C736 1.356 . S
C739 C741 1.358 . S
C739 H781 0.930 . S
C740 N737 1.314 . S
C740 C738 1.353 . S
C740 H782 0.930 . S
C741 N737 1.279 . S
C741 C739 1.358 . S
C741 H783 0.930 . S
C742 C743 1.348 . S
C742 C744 1.356 . S
C742 O767 1.325 . S
C743 C742 1.348 . S
C743 C745 1.353 . S
C743 H784 0.929 . S
C744 C742 1.356 . S
C744 C746 1.358 . S
C744 H785 0.930 . S
C745 C743 1.353 . S
C745 N747 1.314 . S
C745 H786 0.930 . S
C746 C744 1.358 . S
C746 N747 1.279 . S
C746 H787 0.930 . S
N747 C745 1.314 . S
N747 C746 1.279 . S
C748 C750 1.353 . S
C748 N751 1.314 . S
C748 H754 0.930 . S
C749 N751 1.279 . S
C749 C752 1.358 . S
C749 H755 0.930 . S
C750 C748 1.353 . S
C750 C753 1.348 . S
C750 H788 0.929 . S
N751 Li706 1.990 . S
N751 C748 1.314 . S
N751 C749 1.279 . S
C752 C749 1.358 . S
C752 C753 1.356 . S
C752 H789 0.930 . S
C753 C750 1.348 . S
C753 C752 1.356 . S
H754 C748 0.930 . S
H755 C749 0.930 . S
C756 N757 1.314 . S
C756 C758 1.353 . S
C756 H762 0.930 . S
N757 Li707 1.990 . S
N757 C756 1.314 . S
N757 C760 1.279 . S
C758 C756 1.353 . S
C758 C761 1.348 . S
C758 H790 0.929 . S
C759 C760 1.358 . S
C759 C761 1.356 . S
C759 H791 0.930 . S
C760 N757 1.279 . S
C760 C759 1.358 . S
C760 H763 0.930 . S
C761 C758 1.348 . S
C761 C759 1.356 . S
H762 C756 0.930 . S
H763 C760 0.930 . S
O764 Li704 1.956 . S
O764 Li705 1.970 . S
O764 Li706 1.961 . S
O764 C708 1.325 . S
O765 Li704 1.965 1_545 S
O765 Li705 1.955 1_545 S
O765 Li707 1.954 1_545 S
O765 C714 1.332 . S
O766 Li704 1.961 . S
O766 Li706 1.956 . S
O766 Li707 1.970 . S
O766 C736 1.325 . S
O767 Li705 1.961 . S
O767 Li706 1.970 . S
O767 Li707 1.956 . S
O767 C742 1.325 . S
H768 C710 0.929 1_545 S
H769 C711 0.930 . S
H770 C712 0.930 1_545 S
H771 C713 0.930 . S
H772 C715 0.930 . S
H773 C717 0.929 . S
H774 C718 0.930 . S
H775 C719 0.930 . S
H776 C722 0.925 1_545 S
H777 C725 0.929 . S
H778 C730 0.929 . S
H779 C731 0.930 . S
H780 C738 0.929 . S
H781 C739 0.930 . S
H782 C740 0.930 . S
H783 C741 0.930 . S
H784 C743 0.929 . S
H785 C744 0.930 . S
H786 C745 0.930 . S
H787 C746 0.930 . S
H788 C750 0.929 . S
H789 C752 0.930 . S
H790 C758 0.929 . S
H791 C759 0.930 . S
Li792 N809 1.990 . S
Li792 O852 1.956 . S
Li792 O853 1.970 . S
Li792 O854 1.961 . S
Li793 N817 1.990 . S
Li793 O852 1.970 . S
Li793 O853 1.956 . S
Li793 O855 1.961 . S
Li794 N839 1.990 . S
Li794 O852 1.961 . S
Li794 O854 1.956 . S
Li794 O855 1.970 . S
Li795 N845 1.990 . S
Li795 O853 1.961 . S
Li795 O854 1.970 . S
Li795 O855 1.956 . S
C796 C798 1.348 . S
C796 C799 1.356 . S
C796 O852 1.325 . S
N797 C800 1.314 . S
N797 C801 1.279 . S
C798 C796 1.348 . S
C798 C800 1.353 . S
C798 H856 0.929 . S
C799 C796 1.356 . S
C799 C801 1.358 . S
C799 H857 0.930 . S
C800 N797 1.314 . S
C800 C798 1.353 . S
C800 H858 0.930 . S
C801 N797 1.279 . S
C801 C799 1.358 . S
C801 H859 0.930 . S
C802 C805 1.348 . S
C802 C806 1.356 . S
C802 O853 1.325 . S
C803 N804 1.279 . S
C803 C806 1.358 . S
C803 H860 0.930 . S
N804 C803 1.279 . S
N804 C807 1.314 . S
C805 C802 1.348 . S
C805 C807 1.353 . S
C805 H861 0.929 . S
C806 C802 1.356 . S
C806 C803 1.358 . S
C806 H862 0.930 . S
C807 N804 1.314 . S
C807 C805 1.353 . S
C807 H863 0.930 . S
C808 N809 1.314 . S
C808 C813 1.353 . S
C808 H814 0.930 . S
N809 Li792 1.990 . S
N809 C808 1.314 . S
N809 C811 1.279 . S
C810 C811 1.358 . S
C810 C812 1.356 . S
C810 H864 0.930 . S
C811 N809 1.279 . S
C811 C810 1.358 . S
C811 H815 0.930 . S
C812 C810 1.356 . S
C812 C813 1.348 . S
C813 C808 1.353 . S
C813 C812 1.348 . S
C813 H865 0.929 . S
H814 C808 0.930 . S
H815 C811 0.930 . S
C816 N817 1.314 . S
C816 C818 1.353 . S
C816 H822 0.930 . S
N817 Li793 1.990 . S
N817 C816 1.314 . S
N817 C820 1.279 . S
C818 C816 1.353 . S
C818 C821 1.348 . S
C818 H866 0.929 . S
C819 C820 1.358 . S
C819 C821 1.356 . S
C819 H867 0.930 . S
C820 N817 1.279 . S
C820 C819 1.358 . S
C820 H823 0.930 . S
C821 C818 1.348 . S
C821 C819 1.356 . S
H822 C816 0.930 . S
H823 C820 0.930 . S
C824 C826 1.348 . S
C824 C827 1.356 . S
C824 O854 1.325 . S
N825 C828 1.314 . S
N825 C829 1.279 . S
C826 C824 1.348 . S
C826 C828 1.353 . S
C826 H868 0.929 . S
C827 C824 1.356 . S
C827 C829 1.358 . S
C827 H869 0.930 . S
C828 N825 1.314 . S
C828 C826 1.353 . S
C828 H870 0.930 . S
C829 N825 1.279 . S
C829 C827 1.358 . S
C829 H871 0.930 . S
C830 C831 1.348 . S
C830 C832 1.356 . S
C830 O855 1.325 . S
C831 C830 1.348 . S
C831 C833 1.353 . S
C831 H872 0.929 . S
C832 C830 1.356 . S
C832 C834 1.358 . S
C832 H873 0.930 . S
C833 C831 1.353 . S
C833 N835 1.314 . S
C833 H874 0.930 . S
C834 C832 1.358 . S
C834 N835 1.279 . S
C834 H875 0.930 . S
N835 C833 1.314 . S
N835 C834 1.279 . S
C836 C838 1.353 . S
C836 N839 1.314 . S
C836 H842 0.930 . S
C837 N839 1.279 . S
C837 C840 1.358 . S
C837 H843 0.930 . S
C838 C836 1.353 . S
C838 C841 1.348 . S
C838 H876 0.929 . S
N839 Li794 1.990 . S
N839 C836 1.314 . S
N839 C837 1.279 . S
C840 C837 1.358 . S
C840 C841 1.356 . S
C840 H877 0.930 . S
C841 C838 1.348 . S
C841 C840 1.356 . S
H842 C836 0.930 . S
H843 C837 0.930 . S
C844 N845 1.314 . S
C844 C846 1.353 . S
C844 H850 0.930 . S
N845 Li795 1.990 . S
N845 C844 1.314 . S
N845 C848 1.279 . S
C846 C844 1.353 . S
C846 C849 1.348 . S
C846 H878 0.929 . S
C847 C848 1.358 . S
C847 C849 1.356 . S
C847 H879 0.930 . S
C848 N845 1.279 . S
C848 C847 1.358 . S
C848 H851 0.930 . S
C849 C846 1.348 . S
C849 C847 1.356 . S
H850 C844 0.930 . S
H851 C848 0.930 . S
O852 Li792 1.956 . S
O852 Li793 1.970 . S
O852 Li794 1.961 . S
O852 C796 1.325 . S
O853 Li792 1.970 . S
O853 Li793 1.956 . S
O853 Li795 1.961 . S
O853 C802 1.325 . S
O854 Li792 1.961 . S
O854 Li794 1.956 . S
O854 Li795 1.970 . S
O854 C824 1.325 . S
O855 Li793 1.961 . S
O855 Li794 1.970 . S
O855 Li795 1.956 . S
O855 C830 1.325 . S
H856 C798 0.929 . S
H857 C799 0.930 . S
H858 C800 0.930 . S
H859 C801 0.930 . S
H860 C803 0.930 . S
H861 C805 0.929 . S
H862 C806 0.930 . S
H863 C807 0.930 . S
H864 C810 0.930 . S
H865 C813 0.929 . S
H866 C818 0.929 . S
H867 C819 0.930 . S
H868 C826 0.929 . S
H869 C827 0.930 . S
H870 C828 0.930 . S
H871 C829 0.930 . S
H872 C831 0.929 . S
H873 C832 0.930 . S
H874 C833 0.930 . S
H875 C834 0.930 . S
H876 C838 0.929 . S
H877 C840 0.930 . S
H878 C846 0.929 . S
H879 C847 0.930 . S
Li880 N897 1.990 . S
Li880 O940 1.956 . S
Li880 O941 1.970 . S
Li880 O942 1.961 . S
Li881 N905 1.990 . S
Li881 O940 1.970 . S
Li881 O941 1.956 . S
Li881 O943 1.954 1_545 S
Li882 N927 1.990 . S
Li882 O940 1.961 . S
Li882 O942 1.956 . S
Li882 O943 1.965 1_545 S
Li883 N933 1.990 1_545 S
Li883 O941 1.961 . S
Li883 O942 1.970 . S
Li883 O943 1.955 1_545 S
C884 C886 1.348 . S
C884 C887 1.356 . S
C884 O940 1.325 . S
N885 C888 1.314 . S
N885 C889 1.279 . S
C886 C884 1.348 . S
C886 C888 1.353 . S
C886 H944 0.929 . S
C887 C884 1.356 . S
C887 C889 1.358 . S
C887 H945 0.930 . S
C888 N885 1.314 . S
C888 C886 1.353 . S
C888 H946 0.930 1_655 S
C889 N885 1.279 . S
C889 C887 1.358 . S
C889 H947 0.930 . S
C890 C893 1.348 . S
C890 C894 1.356 . S
C890 O941 1.325 . S
C891 N892 1.279 . S
C891 C894 1.358 . S
C891 H948 0.930 . S
N892 C891 1.279 . S
N892 C895 1.314 . S
C893 C890 1.348 . S
C893 C895 1.353 . S
C893 H949 0.929 . S
C894 C890 1.356 . S
C894 C891 1.358 . S
C894 H950 0.930 . S
C895 N892 1.314 . S
C895 C893 1.353 . S
C895 H951 0.930 . S
C896 N897 1.314 . S
C896 C901 1.353 . S
C896 H902 0.930 . S
N897 Li880 1.990 . S
N897 C896 1.314 . S
N897 C899 1.279 . S
C898 C899 1.358 . S
C898 C900 1.356 . S
C898 H952 0.930 . S
C899 N897 1.279 . S
C899 C898 1.358 . S
C899 H903 0.930 . S
C900 C898 1.356 . S
C900 C901 1.348 . S
C901 C896 1.353 . S
C901 C900 1.348 . S
C901 H953 0.929 . S
H902 C896 0.930 . S
H903 C899 0.930 . S
C904 N905 1.314 1_455 S
C904 C906 1.353 . S
C904 H910 0.930 . S
N905 Li881 1.990 . S
N905 C904 1.314 1_655 S
N905 C908 1.279 1_655 S
C906 C904 1.353 . S
C906 C909 1.348 . S
C906 H954 0.929 . S
C907 C908 1.358 . S
C907 C909 1.356 . S
C907 H955 0.930 . S
C908 N905 1.279 1_455 S
C908 C907 1.358 . S
C908 H911 0.930 1_455 S
C909 C906 1.348 . S
C909 C907 1.356 . S
H910 C904 0.930 . S
H911 C908 0.930 1_655 S
C912 C914 1.348 . S
C912 C915 1.356 . S
C912 O942 1.325 . S
N913 C916 1.314 . S
N913 C917 1.279 . S
C914 C912 1.348 . S
C914 C916 1.353 . S
C914 H956 0.929 1_545 S
C915 C912 1.356 . S
C915 C917 1.358 . S
C915 H957 0.930 . S
C916 N913 1.314 . S
C916 C914 1.353 . S
C916 H958 0.930 1_545 S
C917 N913 1.279 . S
C917 C915 1.358 . S
C917 H959 0.930 . S
C918 C919 1.348 . S
C918 C920 1.356 . S
C918 O943 1.332 . S
C919 C918 1.348 . S
C919 C921 1.353 . S
C919 H960 0.929 . S
C920 C918 1.356 . S
C920 C922 1.358 . S
C920 H961 0.930 . S
C921 C919 1.353 . S
C921 N923 1.314 . S
C921 H962 0.930 . S
C922 C920 1.358 . S
C922 N923 1.279 . S
C922 H963 0.926 1_655 S
N923 C921 1.314 . S
N923 C922 1.279 . S
C924 C926 1.353 . S
C924 N927 1.314 . S
C924 H930 0.930 . S
C925 N927 1.279 . S
C925 C928 1.358 . S
C925 H931 0.930 . S
C926 C924 1.353 . S
C926 C929 1.348 . S
C926 H964 0.929 . S
N927 Li882 1.990 . S
N927 C924 1.314 . S
N927 C925 1.279 . S
C928 C925 1.358 . S
C928 C929 1.356 . S
C928 H965 0.925 1_545 S
C929 C926 1.348 . S
C929 C928 1.356 . S
H930 C924 0.930 . S
H931 C925 0.930 . S
C932 N933 1.314 . S
C932 C934 1.353 . S
C932 H938 0.930 . S
N933 Li883 1.990 1_565 S
N933 C932 1.314 . S
N933 C936 1.279 . S
C934 C932 1.353 . S
C934 C937 1.348 . S
C934 H966 0.929 . S
C935 C936 1.358 . S
C935 C937 1.356 . S
C935 H967 0.930 . S
C936 N933 1.279 . S
C936 C935 1.358 . S
C936 H939 0.930 . S
C937 C934 1.348 . S
C937 C935 1.356 . S
H938 C932 0.930 . S
H939 C936 0.930 . S
O940 Li880 1.956 . S
O940 Li881 1.970 . S
O940 Li882 1.961 . S
O940 C884 1.325 . S
O941 Li880 1.970 . S
O941 Li881 1.956 . S
O941 Li883 1.961 . S
O941 C890 1.325 . S
O942 Li880 1.961 . S
O942 Li882 1.956 . S
O942 Li883 1.970 . S
O942 C912 1.325 . S
O943 Li881 1.954 1_565 S
O943 Li882 1.965 1_565 S
O943 Li883 1.955 1_565 S
O943 C918 1.332 . S
H944 C886 0.929 . S
H945 C887 0.930 . S
H946 C888 0.930 1_455 S
H947 C889 0.930 . S
H948 C891 0.930 . S
H949 C893 0.929 . S
H950 C894 0.930 . S
H951 C895 0.930 . S
H952 C898 0.930 . S
H953 C901 0.929 . S
H954 C906 0.929 . S
H955 C907 0.930 . S
H956 C914 0.929 1_565 S
H957 C915 0.930 . S
H958 C916 0.930 1_565 S
H959 C917 0.930 . S
H960 C919 0.929 . S
H961 C920 0.930 . S
H962 C921 0.930 . S
H963 C922 0.926 1_455 S
H964 C926 0.929 . S
H965 C928 0.925 1_565 S
H966 C934 0.929 . S
H967 C935 0.930 . S
Li968 N985 1.990 . S
Li968 O1028 1.956 . S
Li968 O1029 1.970 . S
Li968 O1030 1.961 . S
Li969 N993 1.990 . S
Li969 O1028 1.970 . S
Li969 O1029 1.956 . S
Li969 O1031 1.961 . S
Li970 N1015 1.990 . S
Li970 O1028 1.961 . S
Li970 O1030 1.956 . S
Li970 O1031 1.970 . S
Li971 N1021 1.990 . S
Li971 O1029 1.961 . S
Li971 O1030 1.970 . S
Li971 O1031 1.956 . S
C972 C974 1.348 . S
C972 C975 1.356 . S
C972 O1028 1.325 . S
N973 C976 1.314 . S
N973 C977 1.279 . S
C974 C972 1.348 . S
C974 C976 1.353 . S
C974 H1032 0.929 . S
C975 C972 1.356 . S
C975 C977 1.358 . S
C975 H1033 0.930 . S
C976 N973 1.314 . S
C976 C974 1.353 . S
C976 H1034 0.930 . S
C977 N973 1.279 . S
C977 C975 1.358 . S
C977 H1035 0.930 . S
C978 C981 1.348 . S
C978 C982 1.356 . S
C978 O1029 1.325 . S
C979 N980 1.279 . S
C979 C982 1.358 . S
C979 H1036 0.930 . S
N980 C979 1.279 . S
N980 C983 1.314 . S
C981 C978 1.348 . S
C981 C983 1.353 . S
C981 H1037 0.929 . S
C982 C978 1.356 . S
C982 C979 1.358 . S
C982 H1038 0.930 . S
C983 N980 1.314 . S
C983 C981 1.353 . S
C983 H1039 0.930 . S
C984 N985 1.314 . S
C984 C989 1.353 . S
C984 H990 0.930 . S
N985 Li968 1.990 . S
N985 C984 1.314 . S
N985 C987 1.279 . S
C986 C987 1.358 . S
C986 C988 1.356 . S
C986 H1040 0.930 . S
C987 N985 1.279 . S
C987 C986 1.358 . S
C987 H991 0.930 . S
C988 C986 1.356 . S
C988 C989 1.348 . S
C989 C984 1.353 . S
C989 C988 1.348 . S
C989 H1041 0.929 . S
H990 C984 0.930 . S
H991 C987 0.930 . S
C992 N993 1.314 . S
C992 C994 1.353 . S
C992 H998 0.930 . S
N993 Li969 1.990 . S
N993 C992 1.314 . S
N993 C996 1.279 . S
C994 C992 1.353 . S
C994 C997 1.348 . S
C994 H1042 0.929 . S
C995 C996 1.358 . S
C995 C997 1.356 . S
C995 H1043 0.930 . S
C996 N993 1.279 . S
C996 C995 1.358 . S
C996 H999 0.930 . S
C997 C994 1.348 . S
C997 C995 1.356 . S
H998 C992 0.930 . S
H999 C996 0.930 . S
C1000 C1002 1.348 . S
C1000 C1003 1.356 . S
C1000 O1030 1.325 . S
N1001 C1004 1.314 . S
N1001 C1005 1.279 . S
C1002 C1000 1.348 . S
C1002 C1004 1.353 . S
C1002 H1044 0.929 . S
C1003 C1000 1.356 . S
C1003 C1005 1.358 . S
C1003 H1045 0.930 . S
C1004 N1001 1.314 . S
C1004 C1002 1.353 . S
C1004 H1046 0.930 . S
C1005 N1001 1.279 . S
C1005 C1003 1.358 . S
C1005 H1047 0.930 . S
C1006 C1007 1.348 . S
C1006 C1008 1.356 . S
C1006 O1031 1.325 . S
C1007 C1006 1.348 . S
C1007 C1009 1.353 . S
C1007 H1048 0.929 . S
C1008 C1006 1.356 . S
C1008 C1010 1.358 . S
C1008 H1049 0.930 . S
C1009 C1007 1.353 . S
C1009 N1011 1.314 . S
C1009 H1050 0.930 . S
C1010 C1008 1.358 . S
C1010 N1011 1.279 . S
C1010 H1051 0.930 . S
N1011 C1009 1.314 . S
N1011 C1010 1.279 . S
C1012 C1014 1.353 . S
C1012 N1015 1.314 . S
C1012 H1018 0.930 . S
C1013 N1015 1.279 . S
C1013 C1016 1.358 . S
C1013 H1019 0.930 . S
C1014 C1012 1.353 . S
C1014 C1017 1.348 . S
C1014 H1052 0.929 . S
N1015 Li970 1.990 . S
N1015 C1012 1.314 . S
N1015 C1013 1.279 . S
C1016 C1013 1.358 . S
C1016 C1017 1.356 . S
C1016 H1053 0.930 . S
C1017 C1014 1.348 . S
C1017 C1016 1.356 . S
H1018 C1012 0.930 . S
H1019 C1013 0.930 . S
C1020 N1021 1.314 . S
C1020 C1022 1.353 . S
C1020 H1026 0.930 . S
N1021 Li971 1.990 . S
N1021 C1020 1.314 . S
N1021 C1024 1.279 . S
C1022 C1020 1.353 . S
C1022 C1025 1.348 . S
C1022 H1054 0.929 . S
C1023 C1024 1.358 . S
C1023 C1025 1.356 . S
C1023 H1055 0.930 . S
C1024 N1021 1.279 . S
C1024 C1023 1.358 . S
C1024 H1027 0.930 . S
C1025 C1022 1.348 . S
C1025 C1023 1.356 . S
H1026 C1020 0.930 . S
H1027 C1024 0.930 . S
O1028 Li968 1.956 . S
O1028 Li969 1.970 . S
O1028 Li970 1.961 . S
O1028 C972 1.325 . S
O1029 Li968 1.970 . S
O1029 Li969 1.956 . S
O1029 Li971 1.961 . S
O1029 C978 1.325 . S
O1030 Li968 1.961 . S
O1030 Li970 1.956 . S
O1030 Li971 1.970 . S
O1030 C1000 1.325 . S
O1031 Li969 1.961 . S
O1031 Li970 1.970 . S
O1031 Li971 1.956 . S
O1031 C1006 1.325 . S
H1032 C974 0.929 . S
H1033 C975 0.930 . S
H1034 C976 0.930 . S
H1035 C977 0.930 . S
H1036 C979 0.930 . S
H1037 C981 0.929 . S
H1038 C982 0.930 . S
H1039 C983 0.930 . S
H1040 C986 0.930 . S
H1041 C989 0.929 . S
H1042 C994 0.929 . S
H1043 C995 0.930 . S
H1044 C1002 0.929 . S
H1045 C1003 0.930 . S
H1046 C1004 0.930 . S
H1047 C1005 0.930 . S
H1048 C1007 0.929 . S
H1049 C1008 0.930 . S
H1050 C1009 0.930 . S
H1051 C1010 0.930 . S
H1052 C1014 0.929 . S
H1053 C1016 0.930 . S
H1054 C1022 0.929 . S
H1055 C1023 0.930 . S
Li1056 N1073 1.990 . S
Li1056 O1116 1.956 . S
Li1056 O1117 1.970 . S
Li1056 O1118 1.954 1_545 S
Li1057 N1081 1.990 . S
Li1057 O1116 1.970 . S
Li1057 O1117 1.956 . S
Li1057 O1119 1.961 . S
Li1058 N1103 1.990 1_545 S
Li1058 O1116 1.961 . S
Li1058 O1118 1.955 1_545 S
Li1058 O1119 1.970 . S
Li1059 N1109 1.990 . S
Li1059 O1117 1.961 . S
Li1059 O1118 1.965 1_545 S
Li1059 O1119 1.956 . S
C1060 C1062 1.348 . S
C1060 C1063 1.356 . S
C1060 O1116 1.325 . S
N1061 C1064 1.314 . S
N1061 C1065 1.279 . S
C1062 C1060 1.348 . S
C1062 C1064 1.353 . S
C1062 H1120 0.929 . S
C1063 C1060 1.356 . S
C1063 C1065 1.358 . S
C1063 H1121 0.930 . S
C1064 N1061 1.314 . S
C1064 C1062 1.353 . S
C1064 H1122 0.930 . S
C1065 N1061 1.279 . S
C1065 C1063 1.358 . S
C1065 H1123 0.930 . S
C1066 C1069 1.348 . S
C1066 C1070 1.356 . S
C1066 O1117 1.325 . S
C1067 N1068 1.279 . S
C1067 C1070 1.358 . S
C1067 H1124 0.930 . S
N1068 C1067 1.279 . S
N1068 C1071 1.314 . S
C1069 C1066 1.348 . S
C1069 C1071 1.353 . S
C1069 H1125 0.929 . S
C1070 C1066 1.356 . S
C1070 C1067 1.358 . S
C1070 H1126 0.930 . S
C1071 N1068 1.314 . S
C1071 C1069 1.353 . S
C1071 H1127 0.930 . S
C1072 N1073 1.314 . S
C1072 C1077 1.353 . S
C1072 H1078 0.930 . S
N1073 Li1056 1.990 . S
N1073 C1072 1.314 . S
N1073 C1075 1.279 . S
C1074 C1075 1.358 . S
C1074 C1076 1.356 . S
C1074 H1128 0.930 . S
C1075 N1073 1.279 . S
C1075 C1074 1.358 . S
C1075 H1079 0.930 . S
C1076 C1074 1.356 . S
C1076 C1077 1.348 . S
C1077 C1072 1.353 . S
C1077 C1076 1.348 . S
C1077 H1129 0.929 . S
H1078 C1072 0.930 . S
H1079 C1075 0.930 . S
C1080 N1081 1.314 . S
C1080 C1082 1.353 . S
C1080 H1086 0.930 . S
N1081 Li1057 1.990 . S
N1081 C1080 1.314 . S
N1081 C1084 1.279 . S
C1082 C1080 1.353 . S
C1082 C1085 1.348 . S
C1082 H1130 0.929 . S
C1083 C1084 1.358 . S
C1083 C1085 1.356 . S
C1083 H1131 0.930 . S
C1084 N1081 1.279 . S
C1084 C1083 1.358 . S
C1084 H1087 0.930 . S
C1085 C1082 1.348 . S
C1085 C1083 1.356 . S
H1086 C1080 0.930 . S
H1087 C1084 0.930 . S
C1088 C1090 1.348 . S
C1088 C1091 1.356 . S
C1088 O1118 1.332 . S
N1089 C1092 1.314 . S
N1089 C1093 1.279 . S
C1090 C1088 1.348 . S
C1090 C1092 1.353 . S
C1090 H1132 0.929 . S
C1091 C1088 1.356 . S
C1091 C1093 1.358 . S
C1091 H1133 0.930 . S
C1092 N1089 1.314 . S
C1092 C1090 1.353 . S
C1092 H1134 0.930 . S
C1093 N1089 1.279 . S
C1093 C1091 1.358 . S
C1093 H1135 0.930 . S
C1094 C1095 1.348 . S
C1094 C1096 1.356 . S
C1094 O1119 1.325 . S
C1095 C1094 1.348 . S
C1095 C1097 1.353 . S
C1095 H1136 0.929 1_545 S
C1096 C1094 1.356 . S
C1096 C1098 1.358 . S
C1096 H1137 0.930 . S
C1097 C1095 1.353 . S
C1097 N1099 1.314 . S
C1097 H1138 0.930 1_545 S
C1098 C1096 1.358 . S
C1098 N1099 1.279 . S
C1098 H1139 0.930 . S
N1099 C1097 1.314 . S
N1099 C1098 1.279 . S
C1100 C1102 1.353 . S
C1100 N1103 1.314 . S
C1100 H1106 0.930 . S
C1101 N1103 1.279 . S
C1101 C1104 1.358 . S
C1101 H1107 0.930 . S
C1102 C1100 1.353 . S
C1102 C1105 1.348 . S
C1102 H1140 0.929 . S
N1103 Li1058 1.990 1_565 S
N1103 C1100 1.314 . S
N1103 C1101 1.279 . S
C1104 C1101 1.358 . S
C1104 C1105 1.356 . S
C1104 H1141 0.930 . S
C1105 C1102 1.348 . S
C1105 C1104 1.356 . S
H1106 C1100 0.930 . S
H1107 C1101 0.930 . S
C1108 N1109 1.314 . S
C1108 C1110 1.353 . S
C1108 H1114 0.930 . S
N1109 Li1059 1.990 . S
N1109 C1108 1.314 . S
N1109 C1112 1.279 . S
C1110 C1108 1.353 . S
C1110 C1113 1.348 . S
C1110 H1142 0.929 . S
C1111 C1112 1.358 . S
C1111 C1113 1.356 . S
C1111 H1143 0.925 1_545 S
C1112 N1109 1.279 . S
C1112 C1111 1.358 . S
C1112 H1115 0.930 . S
C1113 C1110 1.348 . S
C1113 C1111 1.356 . S
H1114 C1108 0.930 . S
H1115 C1112 0.930 . S
O1116 Li1056 1.956 . S
O1116 Li1057 1.970 . S
O1116 Li1058 1.961 . S
O1116 C1060 1.325 . S
O1117 Li1056 1.970 . S
O1117 Li1057 1.956 . S
O1117 Li1059 1.961 . S
O1117 C1066 1.325 . S
O1118 Li1056 1.954 1_565 S
O1118 Li1058 1.955 1_565 S
O1118 Li1059 1.965 1_565 S
O1118 C1088 1.332 . S
O1119 Li1057 1.961 . S
O1119 Li1058 1.970 . S
O1119 Li1059 1.956 . S
O1119 C1094 1.325 . S
H1120 C1062 0.929 . S
H1121 C1063 0.930 . S
H1122 C1064 0.930 . S
H1123 C1065 0.930 . S
H1124 C1067 0.930 . S
H1125 C1069 0.929 . S
H1126 C1070 0.930 . S
H1127 C1071 0.930 . S
H1128 C1074 0.930 . S
H1129 C1077 0.929 . S
H1130 C1082 0.929 . S
H1131 C1083 0.930 . S
H1132 C1090 0.929 . S
H1133 C1091 0.930 . S
H1134 C1092 0.930 . S
H1135 C1093 0.930 . S
H1136 C1095 0.929 1_565 S
H1137 C1096 0.930 . S
H1138 C1097 0.930 1_565 S
H1139 C1098 0.930 . S
H1140 C1102 0.929 . S
H1141 C1104 0.930 . S
H1142 C1110 0.929 . S
H1143 C1111 0.925 1_565 S
Li1144 N1161 1.990 . S
Li1144 O1204 1.956 . S
Li1144 O1205 1.970 . S
Li1144 O1206 1.961 . S
Li1145 N1169 1.990 . S
Li1145 O1204 1.970 . S
Li1145 O1205 1.956 . S
Li1145 O1207 1.961 . S
Li1146 N1191 1.990 . S
Li1146 O1204 1.961 . S
Li1146 O1206 1.956 . S
Li1146 O1207 1.970 . S
Li1147 N1197 1.990 . S
Li1147 O1205 1.961 . S
Li1147 O1206 1.970 . S
Li1147 O1207 1.956 . S
C1148 C1150 1.348 . S
C1148 C1151 1.356 . S
C1148 O1204 1.325 . S
N1149 C1152 1.314 . S
N1149 C1153 1.279 . S
C1150 C1148 1.348 . S
C1150 C1152 1.353 . S
C1150 H1208 0.929 . S
C1151 C1148 1.356 . S
C1151 C1153 1.358 . S
C1151 H1209 0.930 . S
C1152 N1149 1.314 . S
C1152 C1150 1.353 . S
C1152 H1210 0.930 . S
C1153 N1149 1.279 . S
C1153 C1151 1.358 . S
C1153 H1211 0.930 . S
C1154 C1157 1.348 . S
C1154 C1158 1.356 . S
C1154 O1205 1.325 . S
C1155 N1156 1.279 . S
C1155 C1158 1.358 . S
C1155 H1212 0.930 . S
N1156 C1155 1.279 . S
N1156 C1159 1.314 . S
C1157 C1154 1.348 . S
C1157 C1159 1.353 . S
C1157 H1213 0.929 . S
C1158 C1154 1.356 . S
C1158 C1155 1.358 . S
C1158 H1214 0.930 . S
C1159 N1156 1.314 . S
C1159 C1157 1.353 . S
C1159 H1215 0.930 . S
C1160 N1161 1.314 . S
C1160 C1165 1.353 . S
C1160 H1166 0.930 . S
N1161 Li1144 1.990 . S
N1161 C1160 1.314 . S
N1161 C1163 1.279 . S
C1162 C1163 1.358 . S
C1162 C1164 1.356 . S
C1162 H1216 0.930 . S
C1163 N1161 1.279 . S
C1163 C1162 1.358 . S
C1163 H1167 0.930 . S
C1164 C1162 1.356 . S
C1164 C1165 1.348 . S
C1165 C1160 1.353 . S
C1165 C1164 1.348 . S
C1165 H1217 0.929 . S
H1166 C1160 0.930 . S
H1167 C1163 0.930 . S
C1168 N1169 1.314 . S
C1168 C1170 1.353 . S
C1168 H1174 0.930 . S
N1169 Li1145 1.990 . S
N1169 C1168 1.314 . S
N1169 C1172 1.279 . S
C1170 C1168 1.353 . S
C1170 C1173 1.348 . S
C1170 H1218 0.929 . S
C1171 C1172 1.358 . S
C1171 C1173 1.356 . S
C1171 H1219 0.930 . S
C1172 N1169 1.279 . S
C1172 C1171 1.358 . S
C1172 H1175 0.930 . S
C1173 C1170 1.348 . S
C1173 C1171 1.356 . S
H1174 C1168 0.930 . S
H1175 C1172 0.930 . S
C1176 C1178 1.348 . S
C1176 C1179 1.356 . S
C1176 O1206 1.325 . S
N1177 C1180 1.314 . S
N1177 C1181 1.279 . S
C1178 C1176 1.348 . S
C1178 C1180 1.353 . S
C1178 H1220 0.929 . S
C1179 C1176 1.356 . S
C1179 C1181 1.358 . S
C1179 H1221 0.930 . S
C1180 N1177 1.314 . S
C1180 C1178 1.353 . S
C1180 H1222 0.930 . S
C1181 N1177 1.279 . S
C1181 C1179 1.358 . S
C1181 H1223 0.930 . S
C1182 C1183 1.348 . S
C1182 C1184 1.356 . S
C1182 O1207 1.325 . S
C1183 C1182 1.348 . S
C1183 C1185 1.353 . S
C1183 H1224 0.929 . S
C1184 C1182 1.356 . S
C1184 C1186 1.358 . S
C1184 H1225 0.930 . S
C1185 C1183 1.353 . S
C1185 N1187 1.314 . S
C1185 H1226 0.930 . S
C1186 C1184 1.358 . S
C1186 N1187 1.279 . S
C1186 H1227 0.930 . S
N1187 C1185 1.314 . S
N1187 C1186 1.279 . S
C1188 C1190 1.353 . S
C1188 N1191 1.314 . S
C1188 H1194 0.930 . S
C1189 N1191 1.279 . S
C1189 C1192 1.358 . S
C1189 H1195 0.930 . S
C1190 C1188 1.353 . S
C1190 C1193 1.348 . S
C1190 H1228 0.929 . S
N1191 Li1146 1.990 . S
N1191 C1188 1.314 . S
N1191 C1189 1.279 . S
C1192 C1189 1.358 . S
C1192 C1193 1.356 . S
C1192 H1229 0.930 . S
C1193 C1190 1.348 . S
C1193 C1192 1.356 . S
H1194 C1188 0.930 . S
H1195 C1189 0.930 . S
C1196 N1197 1.314 . S
C1196 C1198 1.353 . S
C1196 H1202 0.930 . S
N1197 Li1147 1.990 . S
N1197 C1196 1.314 . S
N1197 C1200 1.279 . S
C1198 C1196 1.353 . S
C1198 C1201 1.348 . S
C1198 H1230 0.929 . S
C1199 C1200 1.358 . S
C1199 C1201 1.356 . S
C1199 H1231 0.930 . S
C1200 N1197 1.279 . S
C1200 C1199 1.358 . S
C1200 H1203 0.930 . S
C1201 C1198 1.348 . S
C1201 C1199 1.356 . S
H1202 C1196 0.930 . S
H1203 C1200 0.930 . S
O1204 Li1144 1.956 . S
O1204 Li1145 1.970 . S
O1204 Li1146 1.961 . S
O1204 C1148 1.325 . S
O1205 Li1144 1.970 . S
O1205 Li1145 1.956 . S
O1205 Li1147 1.961 . S
O1205 C1154 1.325 . S
O1206 Li1144 1.961 . S
O1206 Li1146 1.956 . S
O1206 Li1147 1.970 . S
O1206 C1176 1.325 . S
O1207 Li1145 1.961 . S
O1207 Li1146 1.970 . S
O1207 Li1147 1.956 . S
O1207 C1182 1.325 . S
H1208 C1150 0.929 . S
H1209 C1151 0.930 . S
H1210 C1152 0.930 . S
H1211 C1153 0.930 . S
H1212 C1155 0.930 . S
H1213 C1157 0.929 . S
H1214 C1158 0.930 . S
H1215 C1159 0.930 . S
H1216 C1162 0.930 . S
H1217 C1165 0.929 . S
H1218 C1170 0.929 . S
H1219 C1171 0.930 . S
H1220 C1178 0.929 . S
H1221 C1179 0.930 . S
H1222 C1180 0.930 . S
H1223 C1181 0.930 . S
H1224 C1183 0.929 . S
H1225 C1184 0.930 . S
H1226 C1185 0.930 . S
H1227 C1186 0.930 . S
H1228 C1190 0.929 . S
H1229 C1192 0.930 . S
H1230 C1198 0.929 . S
H1231 C1199 0.930 . S
Li1232 N1249 1.990 1_565 S
Li1232 O1292 1.955 1_565 S
Li1232 O1293 1.970 . S
Li1232 O1294 1.961 . S
Li1233 N1257 1.990 . S
Li1233 O1292 1.965 1_565 S
Li1233 O1293 1.956 . S
Li1233 O1295 1.961 . S
Li1234 N1279 1.990 . S
Li1234 O1292 1.954 1_565 S
Li1234 O1294 1.956 . S
Li1234 O1295 1.970 . S
Li1235 N1285 1.990 . S
Li1235 O1293 1.961 . S
Li1235 O1294 1.970 . S
Li1235 O1295 1.956 . S
C1236 C1238 1.348 . S
C1236 C1239 1.356 . S
C1236 O1292 1.332 . S
N1237 C1240 1.314 . S
N1237 C1241 1.279 . S
C1238 C1236 1.348 . S
C1238 C1240 1.353 . S
C1238 H1296 0.929 . S
C1239 C1236 1.356 . S
C1239 C1241 1.358 . S
C1239 H1297 0.930 . S
C1240 N1237 1.314 . S
C1240 C1238 1.353 . S
C1240 H1298 0.930 . S
C1241 N1237 1.279 . S
C1241 C1239 1.358 . S
C1241 H1299 0.926 1_655 S
C1242 C1245 1.348 . S
C1242 C1246 1.356 . S
C1242 O1293 1.325 . S
C1243 N1244 1.279 . S
C1243 C1246 1.358 . S
C1243 H1300 0.930 . S
N1244 C1243 1.279 . S
N1244 C1247 1.314 . S
C1245 C1242 1.348 . S
C1245 C1247 1.353 . S
C1245 H1301 0.929 1_565 S
C1246 C1242 1.356 . S
C1246 C1243 1.358 . S
C1246 H1302 0.930 . S
C1247 N1244 1.314 . S
C1247 C1245 1.353 . S
C1247 H1303 0.930 1_565 S
C1248 N1249 1.314 . S
C1248 C1253 1.353 . S
C1248 H1254 0.930 . S
N1249 Li1232 1.990 1_545 S
N1249 C1248 1.314 . S
N1249 C1251 1.279 . S
C1250 C1251 1.358 . S
C1250 C1252 1.356 . S
C1250 H1304 0.930 . S
C1251 N1249 1.279 . S
C1251 C1250 1.358 . S
C1251 H1255 0.930 . S
C1252 C1250 1.356 . S
C1252 C1253 1.348 . S
C1253 C1248 1.353 . S
C1253 C1252 1.348 . S
C1253 H1305 0.929 . S
H1254 C1248 0.930 . S
H1255 C1251 0.930 . S
C1256 N1257 1.314 . S
C1256 C1258 1.353 . S
C1256 H1262 0.930 . S
N1257 Li1233 1.990 . S
N1257 C1256 1.314 . S
N1257 C1260 1.279 . S
C1258 C1256 1.353 . S
C1258 C1261 1.348 . S
C1258 H1306 0.929 . S
C1259 C1260 1.358 . S
C1259 C1261 1.356 . S
C1259 H1307 0.925 1_565 S
C1260 N1257 1.279 . S
C1260 C1259 1.358 . S
C1260 H1263 0.930 . S
C1261 C1258 1.348 . S
C1261 C1259 1.356 . S
H1262 C1256 0.930 . S
H1263 C1260 0.930 . S
C1264 C1266 1.348 . S
C1264 C1267 1.356 . S
C1264 O1294 1.325 . S
N1265 C1268 1.314 . S
N1265 C1269 1.279 . S
C1266 C1264 1.348 . S
C1266 C1268 1.353 . S
C1266 H1308 0.929 . S
C1267 C1264 1.356 . S
C1267 C1269 1.358 . S
C1267 H1309 0.930 . S
C1268 N1265 1.314 . S
C1268 C1266 1.353 . S
C1268 H1310 0.930 . S
C1269 N1265 1.279 . S
C1269 C1267 1.358 . S
C1269 H1311 0.930 . S
C1270 C1271 1.348 . S
C1270 C1272 1.356 . S
C1270 O1295 1.325 . S
C1271 C1270 1.348 . S
C1271 C1273 1.353 . S
C1271 H1312 0.929 . S
C1272 C1270 1.356 . S
C1272 C1274 1.358 . S
C1272 H1313 0.930 . S
C1273 C1271 1.353 . S
C1273 N1275 1.314 . S
C1273 H1314 0.930 1_655 S
C1274 C1272 1.358 . S
C1274 N1275 1.279 . S
C1274 H1315 0.930 . S
N1275 C1273 1.314 . S
N1275 C1274 1.279 . S
C1276 C1278 1.353 . S
C1276 N1279 1.314 1_455 S
C1276 H1282 0.930 . S
C1277 N1279 1.279 1_455 S
C1277 C1280 1.358 . S
C1277 H1283 0.930 1_455 S
C1278 C1276 1.353 . S
C1278 C1281 1.348 . S
C1278 H1316 0.929 . S
N1279 Li1234 1.990 . S
N1279 C1276 1.314 1_655 S
N1279 C1277 1.279 1_655 S
C1280 C1277 1.358 . S
C1280 C1281 1.356 . S
C1280 H1317 0.930 . S
C1281 C1278 1.348 . S
C1281 C1280 1.356 . S
H1282 C1276 0.930 . S
H1283 C1277 0.930 1_655 S
C1284 N1285 1.314 . S
C1284 C1286 1.353 . S
C1284 H1290 0.930 . S
N1285 Li1235 1.990 . S
N1285 C1284 1.314 . S
N1285 C1288 1.279 . S
C1286 C1284 1.353 . S
C1286 C1289 1.348 . S
C1286 H1318 0.929 . S
C1287 C1288 1.358 . S
C1287 C1289 1.356 . S
C1287 H1319 0.930 . S
C1288 N1285 1.279 . S
C1288 C1287 1.358 . S
C1288 H1291 0.930 . S
C1289 C1286 1.348 . S
C1289 C1287 1.356 . S
H1290 C1284 0.930 . S
H1291 C1288 0.930 . S
O1292 Li1232 1.955 1_545 S
O1292 Li1233 1.965 1_545 S
O1292 Li1234 1.954 1_545 S
O1292 C1236 1.332 . S
O1293 Li1232 1.970 . S
O1293 Li1233 1.956 . S
O1293 Li1235 1.961 . S
O1293 C1242 1.325 . S
O1294 Li1232 1.961 . S
O1294 Li1234 1.956 . S
O1294 Li1235 1.970 . S
O1294 C1264 1.325 . S
O1295 Li1233 1.961 . S
O1295 Li1234 1.970 . S
O1295 Li1235 1.956 . S
O1295 C1270 1.325 . S
H1296 C1238 0.929 . S
H1297 C1239 0.930 . S
H1298 C1240 0.930 . S
H1299 C1241 0.926 1_455 S
H1300 C1243 0.930 . S
H1301 C1245 0.929 1_545 S
H1302 C1246 0.930 . S
H1303 C1247 0.930 1_545 S
H1304 C1250 0.930 . S
H1305 C1253 0.929 . S
H1306 C1258 0.929 . S
H1307 C1259 0.925 1_545 S
H1308 C1266 0.929 . S
H1309 C1267 0.930 . S
H1310 C1268 0.930 . S
H1311 C1269 0.930 . S
H1312 C1271 0.929 . S
H1313 C1272 0.930 . S
H1314 C1273 0.930 1_455 S
H1315 C1274 0.930 . S
H1316 C1278 0.929 . S
H1317 C1280 0.930 . S
H1318 C1286 0.929 . S
H1319 C1287 0.930 . S
Li1320 N1337 1.990 . S
Li1320 O1380 1.956 . S
Li1320 O1381 1.970 . S
Li1320 O1382 1.961 . S
Li1321 N1345 1.990 . S
Li1321 O1380 1.970 . S
Li1321 O1381 1.956 . S
Li1321 O1383 1.961 . S
Li1322 N1367 1.990 . S
Li1322 O1380 1.961 . S
Li1322 O1382 1.956 . S
Li1322 O1383 1.970 . S
Li1323 N1373 1.990 . S
Li1323 O1381 1.961 . S
Li1323 O1382 1.970 . S
Li1323 O1383 1.956 . S
C1324 C1326 1.348 . S
C1324 C1327 1.356 . S
C1324 O1380 1.325 . S
N1325 C1328 1.314 . S
N1325 C1329 1.279 . S
C1326 C1324 1.348 . S
C1326 C1328 1.353 . S
C1326 H1384 0.929 . S
C1327 C1324 1.356 . S
C1327 C1329 1.358 . S
C1327 H1385 0.930 . S
C1328 N1325 1.314 . S
C1328 C1326 1.353 . S
C1328 H1386 0.930 . S
C1329 N1325 1.279 . S
C1329 C1327 1.358 . S
C1329 H1387 0.930 . S
C1330 C1333 1.348 . S
C1330 C1334 1.356 . S
C1330 O1381 1.325 . S
C1331 N1332 1.279 . S
C1331 C1334 1.358 . S
C1331 H1388 0.930 . S
N1332 C1331 1.279 . S
N1332 C1335 1.314 . S
C1333 C1330 1.348 . S
C1333 C1335 1.353 . S
C1333 H1389 0.929 . S
C1334 C1330 1.356 . S
C1334 C1331 1.358 . S
C1334 H1390 0.930 . S
C1335 N1332 1.314 . S
C1335 C1333 1.353 . S
C1335 H1391 0.930 . S
C1336 N1337 1.314 . S
C1336 C1341 1.353 . S
C1336 H1342 0.930 . S
N1337 Li1320 1.990 . S
N1337 C1336 1.314 . S
N1337 C1339 1.279 . S
C1338 C1339 1.358 . S
C1338 C1340 1.356 . S
C1338 H1392 0.930 . S
C1339 N1337 1.279 . S
C1339 C1338 1.358 . S
C1339 H1343 0.930 . S
C1340 C1338 1.356 . S
C1340 C1341 1.348 . S
C1341 C1336 1.353 . S
C1341 C1340 1.348 . S
C1341 H1393 0.929 . S
H1342 C1336 0.930 . S
H1343 C1339 0.930 . S
C1344 N1345 1.314 . S
C1344 C1346 1.353 . S
C1344 H1350 0.930 . S
N1345 Li1321 1.990 . S
N1345 C1344 1.314 . S
N1345 C1348 1.279 . S
C1346 C1344 1.353 . S
C1346 C1349 1.348 . S
C1346 H1394 0.929 . S
C1347 C1348 1.358 . S
C1347 C1349 1.356 . S
C1347 H1395 0.930 . S
C1348 N1345 1.279 . S
C1348 C1347 1.358 . S
C1348 H1351 0.930 . S
C1349 C1346 1.348 . S
C1349 C1347 1.356 . S
H1350 C1344 0.930 . S
H1351 C1348 0.930 . S
C1352 C1354 1.348 . S
C1352 C1355 1.356 . S
C1352 O1382 1.325 . S
N1353 C1356 1.314 . S
N1353 C1357 1.279 . S
C1354 C1352 1.348 . S
C1354 C1356 1.353 . S
C1354 H1396 0.929 . S
C1355 C1352 1.356 . S
C1355 C1357 1.358 . S
C1355 H1397 0.930 . S
C1356 N1353 1.314 . S
C1356 C1354 1.353 . S
C1356 H1398 0.930 . S
C1357 N1353 1.279 . S
C1357 C1355 1.358 . S
C1357 H1399 0.930 . S
C1358 C1359 1.348 . S
C1358 C1360 1.356 . S
C1358 O1383 1.325 . S
C1359 C1358 1.348 . S
C1359 C1361 1.353 . S
C1359 H1400 0.929 . S
C1360 C1358 1.356 . S
C1360 C1362 1.358 . S
C1360 H1401 0.930 . S
C1361 C1359 1.353 . S
C1361 N1363 1.314 . S
C1361 H1402 0.930 . S
C1362 C1360 1.358 . S
C1362 N1363 1.279 . S
C1362 H1403 0.930 . S
N1363 C1361 1.314 . S
N1363 C1362 1.279 . S
C1364 C1366 1.353 . S
C1364 N1367 1.314 . S
C1364 H1370 0.930 . S
C1365 N1367 1.279 . S
C1365 C1368 1.358 . S
C1365 H1371 0.930 . S
C1366 C1364 1.353 . S
C1366 C1369 1.348 . S
C1366 H1404 0.929 . S
N1367 Li1322 1.990 . S
N1367 C1364 1.314 . S
N1367 C1365 1.279 . S
C1368 C1365 1.358 . S
C1368 C1369 1.356 . S
C1368 H1405 0.930 . S
C1369 C1366 1.348 . S
C1369 C1368 1.356 . S
H1370 C1364 0.930 . S
H1371 C1365 0.930 . S
C1372 N1373 1.314 . S
C1372 C1374 1.353 . S
C1372 H1378 0.930 . S
N1373 Li1323 1.990 . S
N1373 C1372 1.314 . S
N1373 C1376 1.279 . S
C1374 C1372 1.353 . S
C1374 C1377 1.348 . S
C1374 H1406 0.929 . S
C1375 C1376 1.358 . S
C1375 C1377 1.356 . S
C1375 H1407 0.930 . S
C1376 N1373 1.279 . S
C1376 C1375 1.358 . S
C1376 H1379 0.930 . S
C1377 C1374 1.348 . S
C1377 C1375 1.356 . S
H1378 C1372 0.930 . S
H1379 C1376 0.930 . S
O1380 Li1320 1.956 . S
O1380 Li1321 1.970 . S
O1380 Li1322 1.961 . S
O1380 C1324 1.325 . S
O1381 Li1320 1.970 . S
O1381 Li1321 1.956 . S
O1381 Li1323 1.961 . S
O1381 C1330 1.325 . S
O1382 Li1320 1.961 . S
O1382 Li1322 1.956 . S
O1382 Li1323 1.970 . S
O1382 C1352 1.325 . S
O1383 Li1321 1.961 . S
O1383 Li1322 1.970 . S
O1383 Li1323 1.956 . S
O1383 C1358 1.325 . S
H1384 C1326 0.929 . S
H1385 C1327 0.930 . S
H1386 C1328 0.930 . S
H1387 C1329 0.930 . S
H1388 C1331 0.930 . S
H1389 C1333 0.929 . S
H1390 C1334 0.930 . S
H1391 C1335 0.930 . S
H1392 C1338 0.930 . S
H1393 C1341 0.929 . S
H1394 C1346 0.929 . S
H1395 C1347 0.930 . S
H1396 C1354 0.929 . S
H1397 C1355 0.930 . S
H1398 C1356 0.930 . S
H1399 C1357 0.930 . S
H1400 C1359 0.929 . S
H1401 C1360 0.930 . S
H1402 C1361 0.930 . S
H1403 C1362 0.930 . S
H1404 C1366 0.929 . S
H1405 C1368 0.930 . S
H1406 C1374 0.929 . S
H1407 C1375 0.930 . S
Li1408 N1425 1.990 . S
Li1408 O1468 1.956 . S
Li1408 O1469 1.970 . S
Li1408 O1470 1.961 . S
Li1409 N1433 2.013 . S
Li1409 O1468 1.970 . S
Li1409 O1469 1.956 . S
Li1409 O1471 1.961 . S
Li1410 N1455 1.990 . S
Li1410 O1468 1.961 . S
Li1410 O1470 1.956 . S
Li1410 O1471 1.970 . S
Li1411 N1461 1.990 . S
Li1411 O1469 1.961 . S
Li1411 O1470 1.970 . S
Li1411 O1471 1.956 . S
C1412 C1414 1.348 . S
C1412 C1415 1.356 . S
C1412 O1468 1.325 . S
N1413 C1416 1.314 . S
N1413 C1417 1.279 . S
C1414 C1412 1.348 . S
C1414 C1416 1.353 . S
C1414 H1472 0.929 . S
C1415 C1412 1.356 . S
C1415 C1417 1.358 . S
C1415 H1473 0.930 . S
C1416 N1413 1.314 . S
C1416 C1414 1.353 . S
C1416 H1474 0.930 1_655 S
C1417 N1413 1.279 . S
C1417 C1415 1.358 . S
C1417 H1475 0.930 . S
C1418 C1421 1.348 . S
C1418 C1422 1.356 . S
C1418 O1469 1.325 . S
C1419 N1420 1.279 . S
C1419 C1422 1.358 . S
C1419 H1476 0.930 . S
N1420 C1419 1.279 . S
N1420 C1423 1.314 . S
C1421 C1418 1.348 . S
C1421 C1423 1.353 . S
C1421 H1477 0.929 . S
C1422 C1418 1.356 . S
C1422 C1419 1.358 . S
C1422 H1478 0.930 . S
C1423 N1420 1.314 . S
C1423 C1421 1.353 . S
C1423 H1479 0.930 . S
C1424 N1425 1.314 . S
C1424 C1429 1.353 . S
C1424 H1430 0.930 . S
N1425 Li1408 1.990 . S
N1425 C1424 1.314 . S
N1425 C1427 1.279 . S
C1426 C1427 1.358 . S
C1426 C1428 1.356 . S
C1426 H1480 0.930 . S
C1427 N1425 1.279 . S
C1427 C1426 1.358 . S
C1427 H1431 0.930 . S
C1428 C1426 1.356 . S
C1428 C1429 1.348 . S
C1429 C1424 1.353 . S
C1429 C1428 1.348 . S
C1429 H1481 0.929 . S
H1430 C1424 0.930 . S
H1431 C1427 0.930 . S
C1432 N1433 1.307 1_455 S
C1432 C1434 1.353 . S
C1432 H1438 0.930 1_455 S
N1433 Li1409 2.013 . S
N1433 C1432 1.307 1_655 S
N1433 C1436 1.261 1_655 S
C1434 C1432 1.353 . S
C1434 C1437 1.348 . S
C1434 H1482 0.929 . S
C1435 C1436 1.358 . S
C1435 C1437 1.356 . S
C1435 H1483 0.930 . S
C1436 N1433 1.261 1_455 S
C1436 C1435 1.358 . S
C1436 H1439 0.930 . S
C1437 C1434 1.348 . S
C1437 C1435 1.356 . S
H1438 C1432 0.930 1_655 S
H1439 C1436 0.930 . S
C1440 C1442 1.348 . S
C1440 C1443 1.356 . S
C1440 O1470 1.325 . S
N1441 C1444 1.314 . S
N1441 C1445 1.279 . S
C1442 C1440 1.348 . S
C1442 C1444 1.353 . S
C1442 H1484 0.929 . S
C1443 C1440 1.356 . S
C1443 C1445 1.358 . S
C1443 H1485 0.930 . S
C1444 N1441 1.314 . S
C1444 C1442 1.353 . S
C1444 H1486 0.930 . S
C1445 N1441 1.279 . S
C1445 C1443 1.358 . S
C1445 H1487 0.930 . S
C1446 C1447 1.348 . S
C1446 C1448 1.356 . S
C1446 O1471 1.325 . S
C1447 C1446 1.348 . S
C1447 C1449 1.353 . S
C1447 H1488 0.929 . S
C1448 C1446 1.356 . S
C1448 C1450 1.358 . S
C1448 H1489 0.930 . S
C1449 C1447 1.353 . S
C1449 N1451 1.314 . S
C1449 H1490 0.930 . S
C1450 C1448 1.358 . S
C1450 N1451 1.279 . S
C1450 H1491 0.930 . S
N1451 C1449 1.314 . S
N1451 C1450 1.279 . S
C1452 C1454 1.353 . S
C1452 N1455 1.314 . S
C1452 H1458 0.930 . S
C1453 N1455 1.279 . S
C1453 C1456 1.358 . S
C1453 H1459 0.930 . S
C1454 C1452 1.353 . S
C1454 C1457 1.348 . S
C1454 H1492 0.929 . S
N1455 Li1410 1.990 . S
N1455 C1452 1.314 . S
N1455 C1453 1.279 . S
C1456 C1453 1.358 . S
C1456 C1457 1.356 . S
C1456 H1493 0.930 . S
C1457 C1454 1.348 . S
C1457 C1456 1.356 . S
H1458 C1452 0.930 . S
H1459 C1453 0.930 . S
C1460 N1461 1.314 . S
C1460 C1462 1.353 . S
C1460 H1466 0.930 . S
N1461 Li1411 1.990 . S
N1461 C1460 1.314 . S
N1461 C1464 1.279 . S
C1462 C1460 1.353 . S
C1462 C1465 1.348 . S
C1462 H1494 0.929 . S
C1463 C1464 1.358 . S
C1463 C1465 1.356 . S
C1463 H1495 0.930 . S
C1464 N1461 1.279 . S
C1464 C1463 1.358 . S
C1464 H1467 0.930 . S
C1465 C1462 1.348 . S
C1465 C1463 1.356 . S
H1466 C1460 0.930 . S
H1467 C1464 0.930 . S
O1468 Li1408 1.956 . S
O1468 Li1409 1.970 . S
O1468 Li1410 1.961 . S
O1468 C1412 1.325 . S
O1469 Li1408 1.970 . S
O1469 Li1409 1.956 . S
O1469 Li1411 1.961 . S
O1469 C1418 1.325 . S
O1470 Li1408 1.961 . S
O1470 Li1410 1.956 . S
O1470 Li1411 1.970 . S
O1470 C1440 1.325 . S
O1471 Li1409 1.961 . S
O1471 Li1410 1.970 . S
O1471 Li1411 1.956 . S
O1471 C1446 1.325 . S
H1472 C1414 0.929 . S
H1473 C1415 0.930 . S
H1474 C1416 0.930 1_455 S
H1475 C1417 0.930 . S
H1476 C1419 0.930 . S
H1477 C1421 0.929 . S
H1478 C1422 0.930 . S
H1479 C1423 0.930 . S
H1480 C1426 0.930 . S
H1481 C1429 0.929 . S
H1482 C1434 0.929 . S
H1483 C1435 0.930 . S
H1484 C1442 0.929 . S
H1485 C1443 0.930 . S
H1486 C1444 0.930 . S
H1487 C1445 0.930 . S
H1488 C1447 0.929 . S
H1489 C1448 0.930 . S
H1490 C1449 0.930 . S
H1491 C1450 0.930 . S
H1492 C1454 0.929 . S
H1493 C1456 0.930 . S
H1494 C1462 0.929 . S
H1495 C1463 0.930 . S
Li1496 N1513 1.990 . S
Li1496 O1556 1.956 . S
Li1496 O1557 1.970 . S
Li1496 O1558 1.961 . S
Li1497 N1521 1.990 . S
Li1497 O1556 1.970 . S
Li1497 O1557 1.956 . S
Li1497 O1559 1.961 . S
Li1498 N1543 1.990 . S
Li1498 O1556 1.961 . S
Li1498 O1558 1.956 . S
Li1498 O1559 1.970 . S
Li1499 N1549 1.990 . S
Li1499 O1557 1.961 . S
Li1499 O1558 1.970 . S
Li1499 O1559 1.956 . S
C1500 C1502 1.348 . S
C1500 C1503 1.356 . S
C1500 O1556 1.325 . S
N1501 C1504 1.314 . S
N1501 C1505 1.279 . S
C1502 C1500 1.348 . S
C1502 C1504 1.353 . S
C1502 H1560 0.929 . S
C1503 C1500 1.356 . S
C1503 C1505 1.358 . S
C1503 H1561 0.930 . S
C1504 N1501 1.314 . S
C1504 C1502 1.353 . S
C1504 H1562 0.930 . S
C1505 N1501 1.279 . S
C1505 C1503 1.358 . S
C1505 H1563 0.930 . S
C1506 C1509 1.348 . S
C1506 C1510 1.356 . S
C1506 O1557 1.325 . S
C1507 N1508 1.279 . S
C1507 C1510 1.358 . S
C1507 H1564 0.930 . S
N1508 C1507 1.279 . S
N1508 C1511 1.314 . S
C1509 C1506 1.348 . S
C1509 C1511 1.353 . S
C1509 H1565 0.929 . S
C1510 C1506 1.356 . S
C1510 C1507 1.358 . S
C1510 H1566 0.930 . S
C1511 N1508 1.314 . S
C1511 C1509 1.353 . S
C1511 H1567 0.930 . S
C1512 N1513 1.314 . S
C1512 C1517 1.353 . S
C1512 H1518 0.930 . S
N1513 Li1496 1.990 . S
N1513 C1512 1.314 . S
N1513 C1515 1.279 . S
C1514 C1515 1.358 . S
C1514 C1516 1.356 . S
C1514 H1568 0.930 . S
C1515 N1513 1.279 . S
C1515 C1514 1.358 . S
C1515 H1519 0.930 . S
C1516 C1514 1.356 . S
C1516 C1517 1.348 . S
C1517 C1512 1.353 . S
C1517 C1516 1.348 . S
C1517 H1569 0.929 . S
H1518 C1512 0.930 . S
H1519 C1515 0.930 . S
C1520 N1521 1.314 . S
C1520 C1522 1.353 . S
C1520 H1526 0.930 . S
N1521 Li1497 1.990 . S
N1521 C1520 1.314 . S
N1521 C1524 1.279 . S
C1522 C1520 1.353 . S
C1522 C1525 1.348 . S
C1522 H1570 0.929 . S
C1523 C1524 1.358 . S
C1523 C1525 1.356 . S
C1523 H1571 0.930 . S
C1524 N1521 1.279 . S
C1524 C1523 1.358 . S
C1524 H1527 0.930 . S
C1525 C1522 1.348 . S
C1525 C1523 1.356 . S
H1526 C1520 0.930 . S
H1527 C1524 0.930 . S
C1528 C1530 1.348 . S
C1528 C1531 1.356 . S
C1528 O1558 1.325 . S
N1529 C1532 1.314 . S
N1529 C1533 1.279 . S
C1530 C1528 1.348 . S
C1530 C1532 1.353 . S
C1530 H1572 0.929 . S
C1531 C1528 1.356 . S
C1531 C1533 1.358 . S
C1531 H1573 0.930 . S
C1532 N1529 1.314 . S
C1532 C1530 1.353 . S
C1532 H1574 0.930 . S
C1533 N1529 1.279 . S
C1533 C1531 1.358 . S
C1533 H1575 0.930 . S
C1534 C1535 1.348 . S
C1534 C1536 1.356 . S
C1534 O1559 1.325 . S
C1535 C1534 1.348 . S
C1535 C1537 1.353 . S
C1535 H1576 0.929 . S
C1536 C1534 1.356 . S
C1536 C1538 1.358 . S
C1536 H1577 0.930 . S
C1537 C1535 1.353 . S
C1537 N1539 1.314 . S
C1537 H1578 0.930 . S
C1538 C1536 1.358 . S
C1538 N1539 1.279 . S
C1538 H1579 0.930 . S
N1539 C1537 1.314 . S
N1539 C1538 1.279 . S
C1540 C1542 1.353 . S
C1540 N1543 1.314 . S
C1540 H1546 0.930 . S
C1541 N1543 1.279 . S
C1541 C1544 1.358 . S
C1541 H1547 0.930 . S
C1542 C1540 1.353 . S
C1542 C1545 1.348 . S
C1542 H1580 0.929 . S
N1543 Li1498 1.990 . S
N1543 C1540 1.314 . S
N1543 C1541 1.279 . S
C1544 C1541 1.358 . S
C1544 C1545 1.356 . S
C1544 H1581 0.930 . S
C1545 C1542 1.348 . S
C1545 C1544 1.356 . S
H1546 C1540 0.930 . S
H1547 C1541 0.930 . S
C1548 N1549 1.314 . S
C1548 C1550 1.353 . S
C1548 H1554 0.930 . S
N1549 Li1499 1.990 . S
N1549 C1548 1.314 . S
N1549 C1552 1.279 . S
C1550 C1548 1.353 . S
C1550 C1553 1.348 . S
C1550 H1582 0.929 . S
C1551 C1552 1.358 . S
C1551 C1553 1.356 . S
C1551 H1583 0.930 . S
C1552 N1549 1.279 . S
C1552 C1551 1.358 . S
C1552 H1555 0.930 . S
C1553 C1550 1.348 . S
C1553 C1551 1.356 . S
H1554 C1548 0.930 . S
H1555 C1552 0.930 . S
O1556 Li1496 1.956 . S
O1556 Li1497 1.970 . S
O1556 Li1498 1.961 . S
O1556 C1500 1.325 . S
O1557 Li1496 1.970 . S
O1557 Li1497 1.956 . S
O1557 Li1499 1.961 . S
O1557 C1506 1.325 . S
O1558 Li1496 1.961 . S
O1558 Li1498 1.956 . S
O1558 Li1499 1.970 . S
O1558 C1528 1.325 . S
O1559 Li1497 1.961 . S
O1559 Li1498 1.970 . S
O1559 Li1499 1.956 . S
O1559 C1534 1.325 . S
H1560 C1502 0.929 . S
H1561 C1503 0.930 . S
H1562 C1504 0.930 . S
H1563 C1505 0.930 . S
H1564 C1507 0.930 . S
H1565 C1509 0.929 . S
H1566 C1510 0.930 . S
H1567 C1511 0.930 . S
H1568 C1514 0.930 . S
H1569 C1517 0.929 . S
H1570 C1522 0.929 . S
H1571 C1523 0.930 . S
H1572 C1530 0.929 . S
H1573 C1531 0.930 . S
H1574 C1532 0.930 . S
H1575 C1533 0.930 . S
H1576 C1535 0.929 . S
H1577 C1536 0.930 . S
H1578 C1537 0.930 . S
H1579 C1538 0.930 . S
H1580 C1542 0.929 . S
H1581 C1544 0.930 . S
H1582 C1550 0.929 . S
H1583 C1551 0.930 . S
Li1584 N1601 1.990 . S
Li1584 O1644 1.956 . S
Li1584 O1645 1.970 . S
Li1584 O1646 1.961 . S
Li1585 N1609 1.990 . S
Li1585 O1644 1.970 . S
Li1585 O1645 1.956 . S
Li1585 O1647 1.961 . S
Li1586 N1631 1.990 . S
Li1586 O1644 1.961 . S
Li1586 O1646 1.956 . S
Li1586 O1647 1.970 . S
Li1587 N1637 1.990 . S
Li1587 O1645 1.961 . S
Li1587 O1646 1.970 . S
Li1587 O1647 1.956 . S
C1588 C1590 1.348 . S
C1588 C1591 1.356 . S
C1588 O1644 1.325 . S
N1589 C1592 1.314 . S
N1589 C1593 1.279 . S
C1590 C1588 1.348 . S
C1590 C1592 1.353 . S
C1590 H1648 0.929 . S
C1591 C1588 1.356 . S
C1591 C1593 1.358 . S
C1591 H1649 0.930 . S
C1592 N1589 1.314 . S
C1592 C1590 1.353 . S
C1592 H1650 0.930 . S
C1593 N1589 1.279 . S
C1593 C1591 1.358 . S
C1593 H1651 0.930 . S
C1594 C1597 1.348 . S
C1594 C1598 1.356 . S
C1594 O1645 1.325 . S
C1595 N1596 1.279 . S
C1595 C1598 1.358 . S
C1595 H1652 0.930 . S
N1596 C1595 1.279 . S
N1596 C1599 1.314 . S
C1597 C1594 1.348 . S
C1597 C1599 1.353 . S
C1597 H1653 0.929 . S
C1598 C1594 1.356 . S
C1598 C1595 1.358 . S
C1598 H1654 0.930 . S
C1599 N1596 1.314 . S
C1599 C1597 1.353 . S
C1599 H1655 0.930 . S
C1600 N1601 1.314 . S
C1600 C1605 1.353 . S
C1600 H1606 0.930 . S
N1601 Li1584 1.990 . S
N1601 C1600 1.314 . S
N1601 C1603 1.279 . S
C1602 C1603 1.358 . S
C1602 C1604 1.356 . S
C1602 H1656 0.930 . S
C1603 N1601 1.279 . S
C1603 C1602 1.358 . S
C1603 H1607 0.930 . S
C1604 C1602 1.356 . S
C1604 C1605 1.348 . S
C1605 C1600 1.353 . S
C1605 C1604 1.348 . S
C1605 H1657 0.929 . S
H1606 C1600 0.930 . S
H1607 C1603 0.930 . S
C1608 N1609 1.314 . S
C1608 C1610 1.353 . S
C1608 H1614 0.930 . S
N1609 Li1585 1.990 . S
N1609 C1608 1.314 . S
N1609 C1612 1.279 . S
C1610 C1608 1.353 . S
C1610 C1613 1.348 . S
C1610 H1658 0.929 . S
C1611 C1612 1.358 . S
C1611 C1613 1.356 . S
C1611 H1659 0.930 . S
C1612 N1609 1.279 . S
C1612 C1611 1.358 . S
C1612 H1615 0.930 . S
C1613 C1610 1.348 . S
C1613 C1611 1.356 . S
H1614 C1608 0.930 . S
H1615 C1612 0.930 . S
C1616 C1618 1.348 . S
C1616 C1619 1.356 . S
C1616 O1646 1.325 . S
N1617 C1620 1.314 . S
N1617 C1621 1.279 . S
C1618 C1616 1.348 . S
C1618 C1620 1.353 . S
C1618 H1660 0.929 . S
C1619 C1616 1.356 . S
C1619 C1621 1.358 . S
C1619 H1661 0.930 . S
C1620 N1617 1.314 . S
C1620 C1618 1.353 . S
C1620 H1662 0.930 . S
C1621 N1617 1.279 . S
C1621 C1619 1.358 . S
C1621 H1663 0.930 . S
C1622 C1623 1.348 . S
C1622 C1624 1.356 . S
C1622 O1647 1.325 . S
C1623 C1622 1.348 . S
C1623 C1625 1.353 . S
C1623 H1664 0.929 . S
C1624 C1622 1.356 . S
C1624 C1626 1.358 . S
C1624 H1665 0.930 . S
C1625 C1623 1.353 . S
C1625 N1627 1.314 . S
C1625 H1666 0.930 . S
C1626 C1624 1.358 . S
C1626 N1627 1.279 . S
C1626 H1667 0.930 . S
N1627 C1625 1.314 . S
N1627 C1626 1.279 . S
C1628 C1630 1.353 . S
C1628 N1631 1.314 . S
C1628 H1634 0.930 . S
C1629 N1631 1.279 . S
C1629 C1632 1.358 . S
C1629 H1635 0.930 . S
C1630 C1628 1.353 . S
C1630 C1633 1.348 . S
C1630 H1668 0.929 . S
N1631 Li1586 1.990 . S
N1631 C1628 1.314 . S
N1631 C1629 1.279 . S
C1632 C1629 1.358 . S
C1632 C1633 1.356 . S
C1632 H1669 0.930 . S
C1633 C1630 1.348 . S
C1633 C1632 1.356 . S
H1634 C1628 0.930 . S
H1635 C1629 0.930 . S
C1636 N1637 1.314 . S
C1636 C1638 1.353 . S
C1636 H1642 0.930 . S
N1637 Li1587 1.990 . S
N1637 C1636 1.314 . S
N1637 C1640 1.279 . S
C1638 C1636 1.353 . S
C1638 C1641 1.348 . S
C1638 H1670 0.929 . S
C1639 C1640 1.358 . S
C1639 C1641 1.356 . S
C1639 H1671 0.930 . S
C1640 N1637 1.279 . S
C1640 C1639 1.358 . S
C1640 H1643 0.930 . S
C1641 C1638 1.348 . S
C1641 C1639 1.356 . S
H1642 C1636 0.930 . S
H1643 C1640 0.930 . S
O1644 Li1584 1.956 . S
O1644 Li1585 1.970 . S
O1644 Li1586 1.961 . S
O1644 C1588 1.325 . S
O1645 Li1584 1.970 . S
O1645 Li1585 1.956 . S
O1645 Li1587 1.961 . S
O1645 C1594 1.325 . S
O1646 Li1584 1.961 . S
O1646 Li1586 1.956 . S
O1646 Li1587 1.970 . S
O1646 C1616 1.325 . S
O1647 Li1585 1.961 . S
O1647 Li1586 1.970 . S
O1647 Li1587 1.956 . S
O1647 C1622 1.325 . S
H1648 C1590 0.929 . S
H1649 C1591 0.930 . S
H1650 C1592 0.930 . S
H1651 C1593 0.930 . S
H1652 C1595 0.930 . S
H1653 C1597 0.929 . S
H1654 C1598 0.930 . S
H1655 C1599 0.930 . S
H1656 C1602 0.930 . S
H1657 C1605 0.929 . S
H1658 C1610 0.929 . S
H1659 C1611 0.930 . S
H1660 C1618 0.929 . S
H1661 C1619 0.930 . S
H1662 C1620 0.930 . S
H1663 C1621 0.930 . S
H1664 C1623 0.929 . S
H1665 C1624 0.930 . S
H1666 C1625 0.930 . S
H1667 C1626 0.930 . S
H1668 C1630 0.929 . S
H1669 C1632 0.930 . S
H1670 C1638 0.929 . S
H1671 C1639 0.930 . S
Li1672 N1689 1.990 . S
Li1672 O1732 1.956 . S
Li1672 O1733 1.970 . S
Li1672 O1734 1.961 . S
Li1673 N1697 1.990 . S
Li1673 O1732 1.970 . S
Li1673 O1733 1.956 . S
Li1673 O1735 1.961 . S
Li1674 N1719 1.990 . S
Li1674 O1732 1.961 . S
Li1674 O1734 1.956 . S
Li1674 O1735 1.970 . S
Li1675 N1725 1.990 . S
Li1675 O1733 1.961 . S
Li1675 O1734 1.970 . S
Li1675 O1735 1.956 . S
C1676 C1678 1.348 . S
C1676 C1679 1.356 . S
C1676 O1732 1.325 . S
N1677 C1680 1.314 . S
N1677 C1681 1.279 . S
C1678 C1676 1.348 . S
C1678 C1680 1.353 . S
C1678 H1736 0.929 . S
C1679 C1676 1.356 . S
C1679 C1681 1.358 . S
C1679 H1737 0.930 . S
C1680 N1677 1.314 . S
C1680 C1678 1.353 . S
C1680 H1738 0.930 . S
C1681 N1677 1.279 . S
C1681 C1679 1.358 . S
C1681 H1739 0.930 . S
C1682 C1685 1.348 . S
C1682 C1686 1.356 . S
C1682 O1733 1.325 . S
C1683 N1684 1.279 . S
C1683 C1686 1.358 . S
C1683 H1740 0.930 . S
N1684 C1683 1.279 . S
N1684 C1687 1.314 . S
C1685 C1682 1.348 . S
C1685 C1687 1.353 . S
C1685 H1741 0.929 . S
C1686 C1682 1.356 . S
C1686 C1683 1.358 . S
C1686 H1742 0.930 . S
C1687 N1684 1.314 . S
C1687 C1685 1.353 . S
C1687 H1743 0.930 . S
C1688 N1689 1.314 . S
C1688 C1693 1.353 . S
C1688 H1694 0.930 . S
N1689 Li1672 1.990 . S
N1689 C1688 1.314 . S
N1689 C1691 1.279 . S
C1690 C1691 1.358 . S
C1690 C1692 1.356 . S
C1690 H1744 0.930 . S
C1691 N1689 1.279 . S
C1691 C1690 1.358 . S
C1691 H1695 0.930 . S
C1692 C1690 1.356 . S
C1692 C1693 1.348 . S
C1693 C1688 1.353 . S
C1693 C1692 1.348 . S
C1693 H1745 0.929 . S
H1694 C1688 0.930 . S
H1695 C1691 0.930 . S
C1696 N1697 1.314 . S
C1696 C1698 1.353 . S
C1696 H1702 0.930 . S
N1697 Li1673 1.990 . S
N1697 C1696 1.314 . S
N1697 C1700 1.279 . S
C1698 C1696 1.353 . S
C1698 C1701 1.348 . S
C1698 H1746 0.929 . S
C1699 C1700 1.358 . S
C1699 C1701 1.356 . S
C1699 H1747 0.930 . S
C1700 N1697 1.279 . S
C1700 C1699 1.358 . S
C1700 H1703 0.930 . S
C1701 C1698 1.348 . S
C1701 C1699 1.356 . S
H1702 C1696 0.930 . S
H1703 C1700 0.930 . S
C1704 C1706 1.348 . S
C1704 C1707 1.356 . S
C1704 O1734 1.325 . S
N1705 C1708 1.314 . S
N1705 C1709 1.279 . S
C1706 C1704 1.348 . S
C1706 C1708 1.353 . S
C1706 H1748 0.929 . S
C1707 C1704 1.356 . S
C1707 C1709 1.358 . S
C1707 H1749 0.930 . S
C1708 N1705 1.314 . S
C1708 C1706 1.353 . S
C1708 H1750 0.930 . S
C1709 N1705 1.279 . S
C1709 C1707 1.358 . S
C1709 H1751 0.930 . S
C1710 C1711 1.348 . S
C1710 C1712 1.356 . S
C1710 O1735 1.325 . S
C1711 C1710 1.348 . S
C1711 C1713 1.353 . S
C1711 H1752 0.929 . S
C1712 C1710 1.356 . S
C1712 C1714 1.358 . S
C1712 H1753 0.930 . S
C1713 C1711 1.353 . S
C1713 N1715 1.314 . S
C1713 H1754 0.930 . S
C1714 C1712 1.358 . S
C1714 N1715 1.279 . S
C1714 H1755 0.930 . S
N1715 C1713 1.314 . S
N1715 C1714 1.279 . S
C1716 C1718 1.353 . S
C1716 N1719 1.314 . S
C1716 H1722 0.930 . S
C1717 N1719 1.279 . S
C1717 C1720 1.358 . S
C1717 H1723 0.930 . S
C1718 C1716 1.353 . S
C1718 C1721 1.348 . S
C1718 H1756 0.929 . S
N1719 Li1674 1.990 . S
N1719 C1716 1.314 . S
N1719 C1717 1.279 . S
C1720 C1717 1.358 . S
C1720 C1721 1.356 . S
C1720 H1757 0.930 . S
C1721 C1718 1.348 . S
C1721 C1720 1.356 . S
H1722 C1716 0.930 . S
H1723 C1717 0.930 . S
C1724 N1725 1.314 . S
C1724 C1726 1.353 . S
C1724 H1730 0.930 . S
N1725 Li1675 1.990 . S
N1725 C1724 1.314 . S
N1725 C1728 1.279 . S
C1726 C1724 1.353 . S
C1726 C1729 1.348 . S
C1726 H1758 0.929 . S
C1727 C1728 1.358 . S
C1727 C1729 1.356 . S
C1727 H1759 0.930 . S
C1728 N1725 1.279 . S
C1728 C1727 1.358 . S
C1728 H1731 0.930 . S
C1729 C1726 1.348 . S
C1729 C1727 1.356 . S
H1730 C1724 0.930 . S
H1731 C1728 0.930 . S
O1732 Li1672 1.956 . S
O1732 Li1673 1.970 . S
O1732 Li1674 1.961 . S
O1732 C1676 1.325 . S
O1733 Li1672 1.970 . S
O1733 Li1673 1.956 . S
O1733 Li1675 1.961 . S
O1733 C1682 1.325 . S
O1734 Li1672 1.961 . S
O1734 Li1674 1.956 . S
O1734 Li1675 1.970 . S
O1734 C1704 1.325 . S
O1735 Li1673 1.961 . S
O1735 Li1674 1.970 . S
O1735 Li1675 1.956 . S
O1735 C1710 1.325 . S
H1736 C1678 0.929 . S
H1737 C1679 0.930 . S
H1738 C1680 0.930 . S
H1739 C1681 0.930 . S
H1740 C1683 0.930 . S
H1741 C1685 0.929 . S
H1742 C1686 0.930 . S
H1743 C1687 0.930 . S
H1744 C1690 0.930 . S
H1745 C1693 0.929 . S
H1746 C1698 0.929 . S
H1747 C1699 0.930 . S
H1748 C1706 0.929 . S
H1749 C1707 0.930 . S
H1750 C1708 0.930 . S
H1751 C1709 0.930 . S
H1752 C1711 0.929 . S
H1753 C1712 0.930 . S
H1754 C1713 0.930 . S
H1755 C1714 0.930 . S
H1756 C1718 0.929 . S
H1757 C1720 0.930 . S
H1758 C1726 0.929 . S
H1759 C1727 0.930 . S
Li1760 N1777 1.990 . S
Li1760 O1820 1.956 . S
Li1760 O1821 1.970 . S
Li1760 O1822 1.961 . S
Li1761 N1785 1.990 . S
Li1761 O1820 1.970 . S
Li1761 O1821 1.956 . S
Li1761 O1823 1.961 . S
Li1762 N1807 2.013 . S
Li1762 O1820 1.961 . S
Li1762 O1822 1.956 . S
Li1762 O1823 1.970 . S
Li1763 N1813 1.990 . S
Li1763 O1821 1.961 . S
Li1763 O1822 1.970 . S
Li1763 O1823 1.956 . S
C1764 C1766 1.348 . S
C1764 C1767 1.356 . S
C1764 O1820 1.325 . S
N1765 C1768 1.314 . S
N1765 C1769 1.279 . S
C1766 C1764 1.348 . S
C1766 C1768 1.353 . S
C1766 H1824 0.929 . S
C1767 C1764 1.356 . S
C1767 C1769 1.358 . S
C1767 H1825 0.930 . S
C1768 N1765 1.314 . S
C1768 C1766 1.353 . S
C1768 H1826 0.930 . S
C1769 N1765 1.279 . S
C1769 C1767 1.358 . S
C1769 H1827 0.930 . S
C1770 C1773 1.348 . S
C1770 C1774 1.356 . S
C1770 O1821 1.325 . S
C1771 N1772 1.279 . S
C1771 C1774 1.358 . S
C1771 H1828 0.930 . S
N1772 C1771 1.279 . S
N1772 C1775 1.314 . S
C1773 C1770 1.348 . S
C1773 C1775 1.353 . S
C1773 H1829 0.929 . S
C1774 C1770 1.356 . S
C1774 C1771 1.358 . S
C1774 H1830 0.930 . S
C1775 N1772 1.314 . S
C1775 C1773 1.353 . S
C1775 H1831 0.930 . S
C1776 N1777 1.314 . S
C1776 C1781 1.353 . S
C1776 H1782 0.930 . S
N1777 Li1760 1.990 . S
N1777 C1776 1.314 . S
N1777 C1779 1.279 . S
C1778 C1779 1.358 . S
C1778 C1780 1.356 . S
C1778 H1832 0.930 . S
C1779 N1777 1.279 . S
C1779 C1778 1.358 . S
C1779 H1783 0.930 . S
C1780 C1778 1.356 . S
C1780 C1781 1.348 . S
C1781 C1776 1.353 . S
C1781 C1780 1.348 . S
C1781 H1833 0.929 . S
H1782 C1776 0.930 . S
H1783 C1779 0.930 . S
C1784 N1785 1.314 . S
C1784 C1786 1.353 . S
C1784 H1790 0.930 . S
N1785 Li1761 1.990 . S
N1785 C1784 1.314 . S
N1785 C1788 1.279 . S
C1786 C1784 1.353 . S
C1786 C1789 1.348 . S
C1786 H1834 0.929 . S
C1787 C1788 1.358 . S
C1787 C1789 1.356 . S
C1787 H1835 0.930 . S
C1788 N1785 1.279 . S
C1788 C1787 1.358 . S
C1788 H1791 0.930 . S
C1789 C1786 1.348 . S
C1789 C1787 1.356 . S
H1790 C1784 0.930 . S
H1791 C1788 0.930 . S
C1792 C1794 1.348 . S
C1792 C1795 1.356 . S
C1792 O1822 1.325 . S
N1793 C1796 1.314 . S
N1793 C1797 1.279 . S
C1794 C1792 1.348 . S
C1794 C1796 1.353 . S
C1794 H1836 0.929 . S
C1795 C1792 1.356 . S
C1795 C1797 1.358 . S
C1795 H1837 0.930 . S
C1796 N1793 1.314 . S
C1796 C1794 1.353 . S
C1796 H1838 0.930 . S
C1797 N1793 1.279 . S
C1797 C1795 1.358 . S
C1797 H1839 0.930 . S
C1798 C1799 1.348 . S
C1798 C1800 1.356 . S
C1798 O1823 1.325 . S
C1799 C1798 1.348 . S
C1799 C1801 1.353 . S
C1799 H1840 0.929 . S
C1800 C1798 1.356 . S
C1800 C1802 1.358 . S
C1800 H1841 0.930 . S
C1801 C1799 1.353 . S
C1801 N1803 1.314 . S
C1801 H1842 0.930 1_655 S
C1802 C1800 1.358 . S
C1802 N1803 1.279 . S
C1802 H1843 0.930 . S
N1803 C1801 1.314 . S
N1803 C1802 1.279 . S
C1804 C1806 1.353 . S
C1804 N1807 1.307 1_455 S
C1804 H1810 0.930 1_455 S
C1805 N1807 1.261 1_455 S
C1805 C1808 1.358 . S
C1805 H1811 0.930 . S
C1806 C1804 1.353 . S
C1806 C1809 1.348 . S
C1806 H1844 0.929 . S
N1807 Li1762 2.013 . S
N1807 C1804 1.307 1_655 S
N1807 C1805 1.261 1_655 S
C1808 C1805 1.358 . S
C1808 C1809 1.356 . S
C1808 H1845 0.930 . S
C1809 C1806 1.348 . S
C1809 C1808 1.356 . S
H1810 C1804 0.930 1_655 S
H1811 C1805 0.930 . S
C1812 N1813 1.314 . S
C1812 C1814 1.353 . S
C1812 H1818 0.930 . S
N1813 Li1763 1.990 . S
N1813 C1812 1.314 . S
N1813 C1816 1.279 . S
C1814 C1812 1.353 . S
C1814 C1817 1.348 . S
C1814 H1846 0.929 . S
C1815 C1816 1.358 . S
C1815 C1817 1.356 . S
C1815 H1847 0.930 . S
C1816 N1813 1.279 . S
C1816 C1815 1.358 . S
C1816 H1819 0.930 . S
C1817 C1814 1.348 . S
C1817 C1815 1.356 . S
H1818 C1812 0.930 . S
H1819 C1816 0.930 . S
O1820 Li1760 1.956 . S
O1820 Li1761 1.970 . S
O1820 Li1762 1.961 . S
O1820 C1764 1.325 . S
O1821 Li1760 1.970 . S
O1821 Li1761 1.956 . S
O1821 Li1763 1.961 . S
O1821 C1770 1.325 . S
O1822 Li1760 1.961 . S
O1822 Li1762 1.956 . S
O1822 Li1763 1.970 . S
O1822 C1792 1.325 . S
O1823 Li1761 1.961 . S
O1823 Li1762 1.970 . S
O1823 Li1763 1.956 . S
O1823 C1798 1.325 . S
H1824 C1766 0.929 . S
H1825 C1767 0.930 . S
H1826 C1768 0.930 . S
H1827 C1769 0.930 . S
H1828 C1771 0.930 . S
H1829 C1773 0.929 . S
H1830 C1774 0.930 . S
H1831 C1775 0.930 . S
H1832 C1778 0.930 . S
H1833 C1781 0.929 . S
H1834 C1786 0.929 . S
H1835 C1787 0.930 . S
H1836 C1794 0.929 . S
H1837 C1795 0.930 . S
H1838 C1796 0.930 . S
H1839 C1797 0.930 . S
H1840 C1799 0.929 . S
H1841 C1800 0.930 . S
H1842 C1801 0.930 1_455 S
H1843 C1802 0.930 . S
H1844 C1806 0.929 . S
H1845 C1808 0.930 . S
H1846 C1814 0.929 . S
H1847 C1815 0.930 . S
Li1848 N1865 1.990 . S
Li1848 O1908 1.956 . S
Li1848 O1909 1.970 . S
Li1848 O1910 1.961 . S
Li1849 N1873 1.990 . S
Li1849 O1908 1.970 . S
Li1849 O1909 1.956 . S
Li1849 O1911 1.961 . S
Li1850 N1895 1.990 . S
Li1850 O1908 1.961 . S
Li1850 O1910 1.956 . S
Li1850 O1911 1.970 . S
Li1851 N1901 1.990 . S
Li1851 O1909 1.961 . S
Li1851 O1910 1.970 . S
Li1851 O1911 1.956 . S
C1852 C1854 1.348 . S
C1852 C1855 1.356 . S
C1852 O1908 1.325 . S
N1853 C1856 1.314 . S
N1853 C1857 1.279 . S
C1854 C1852 1.348 . S
C1854 C1856 1.353 . S
C1854 H1912 0.929 . S
C1855 C1852 1.356 . S
C1855 C1857 1.358 . S
C1855 H1913 0.930 . S
C1856 N1853 1.314 . S
C1856 C1854 1.353 . S
C1856 H1914 0.930 . S
C1857 N1853 1.279 . S
C1857 C1855 1.358 . S
C1857 H1915 0.930 . S
C1858 C1861 1.348 . S
C1858 C1862 1.356 . S
C1858 O1909 1.325 . S
C1859 N1860 1.279 . S
C1859 C1862 1.358 . S
C1859 H1916 0.930 . S
N1860 C1859 1.279 . S
N1860 C1863 1.314 . S
C1861 C1858 1.348 . S
C1861 C1863 1.353 . S
C1861 H1917 0.929 . S
C1862 C1858 1.356 . S
C1862 C1859 1.358 . S
C1862 H1918 0.930 . S
C1863 N1860 1.314 . S
C1863 C1861 1.353 . S
C1863 H1919 0.930 . S
C1864 N1865 1.314 . S
C1864 C1869 1.353 . S
C1864 H1870 0.930 . S
N1865 Li1848 1.990 . S
N1865 C1864 1.314 . S
N1865 C1867 1.279 . S
C1866 C1867 1.358 . S
C1866 C1868 1.356 . S
C1866 H1920 0.930 . S
C1867 N1865 1.279 . S
C1867 C1866 1.358 . S
C1867 H1871 0.930 . S
C1868 C1866 1.356 . S
C1868 C1869 1.348 . S
C1869 C1864 1.353 . S
C1869 C1868 1.348 . S
C1869 H1921 0.929 . S
H1870 C1864 0.930 . S
H1871 C1867 0.930 . S
C1872 N1873 1.314 . S
C1872 C1874 1.353 . S
C1872 H1878 0.930 . S
N1873 Li1849 1.990 . S
N1873 C1872 1.314 . S
N1873 C1876 1.279 . S
C1874 C1872 1.353 . S
C1874 C1877 1.348 . S
C1874 H1922 0.929 . S
C1875 C1876 1.358 . S
C1875 C1877 1.356 . S
C1875 H1923 0.930 . S
C1876 N1873 1.279 . S
C1876 C1875 1.358 . S
C1876 H1879 0.930 . S
C1877 C1874 1.348 . S
C1877 C1875 1.356 . S
H1878 C1872 0.930 . S
H1879 C1876 0.930 . S
C1880 C1882 1.348 . S
C1880 C1883 1.356 . S
C1880 O1910 1.325 . S
N1881 C1884 1.314 . S
N1881 C1885 1.279 . S
C1882 C1880 1.348 . S
C1882 C1884 1.353 . S
C1882 H1924 0.929 . S
C1883 C1880 1.356 . S
C1883 C1885 1.358 . S
C1883 H1925 0.930 . S
C1884 N1881 1.314 . S
C1884 C1882 1.353 . S
C1884 H1926 0.930 . S
C1885 N1881 1.279 . S
C1885 C1883 1.358 . S
C1885 H1927 0.930 . S
C1886 C1887 1.348 . S
C1886 C1888 1.356 . S
C1886 O1911 1.325 . S
C1887 C1886 1.348 . S
C1887 C1889 1.353 . S
C1887 H1928 0.929 . S
C1888 C1886 1.356 . S
C1888 C1890 1.358 . S
C1888 H1929 0.930 . S
C1889 C1887 1.353 . S
C1889 N1891 1.314 . S
C1889 H1930 0.930 . S
C1890 C1888 1.358 . S
C1890 N1891 1.279 . S
C1890 H1931 0.930 . S
N1891 C1889 1.314 . S
N1891 C1890 1.279 . S
C1892 C1894 1.353 . S
C1892 N1895 1.314 . S
C1892 H1898 0.930 . S
C1893 N1895 1.279 . S
C1893 C1896 1.358 . S
C1893 H1899 0.930 . S
C1894 C1892 1.353 . S
C1894 C1897 1.348 . S
C1894 H1932 0.929 . S
N1895 Li1850 1.990 . S
N1895 C1892 1.314 . S
N1895 C1893 1.279 . S
C1896 C1893 1.358 . S
C1896 C1897 1.356 . S
C1896 H1933 0.930 . S
C1897 C1894 1.348 . S
C1897 C1896 1.356 . S
H1898 C1892 0.930 . S
H1899 C1893 0.930 . S
C1900 N1901 1.314 . S
C1900 C1902 1.353 . S
C1900 H1906 0.930 . S
N1901 Li1851 1.990 . S
N1901 C1900 1.314 . S
N1901 C1904 1.279 . S
C1902 C1900 1.353 . S
C1902 C1905 1.348 . S
C1902 H1934 0.929 . S
C1903 C1904 1.358 . S
C1903 C1905 1.356 . S
C1903 H1935 0.930 . S
C1904 N1901 1.279 . S
C1904 C1903 1.358 . S
C1904 H1907 0.930 . S
C1905 C1902 1.348 . S
C1905 C1903 1.356 . S
H1906 C1900 0.930 . S
H1907 C1904 0.930 . S
O1908 Li1848 1.956 . S
O1908 Li1849 1.970 . S
O1908 Li1850 1.961 . S
O1908 C1852 1.325 . S
O1909 Li1848 1.970 . S
O1909 Li1849 1.956 . S
O1909 Li1851 1.961 . S
O1909 C1858 1.325 . S
O1910 Li1848 1.961 . S
O1910 Li1850 1.956 . S
O1910 Li1851 1.970 . S
O1910 C1880 1.325 . S
O1911 Li1849 1.961 . S
O1911 Li1850 1.970 . S
O1911 Li1851 1.956 . S
O1911 C1886 1.325 . S
H1912 C1854 0.929 . S
H1913 C1855 0.930 . S
H1914 C1856 0.930 . S
H1915 C1857 0.930 . S
H1916 C1859 0.930 . S
H1917 C1861 0.929 . S
H1918 C1862 0.930 . S
H1919 C1863 0.930 . S
H1920 C1866 0.930 . S
H1921 C1869 0.929 . S
H1922 C1874 0.929 . S
H1923 C1875 0.930 . S
H1924 C1882 0.929 . S
H1925 C1883 0.930 . S
H1926 C1884 0.930 . S
H1927 C1885 0.930 . S
H1928 C1887 0.929 . S
H1929 C1888 0.930 . S
H1930 C1889 0.930 . S
H1931 C1890 0.930 . S
H1932 C1894 0.929 . S
H1933 C1896 0.930 . S
H1934 C1902 0.929 . S
H1935 C1903 0.930 . S
Li1936 N1953 1.990 . S
Li1936 O1996 1.956 . S
Li1936 O1997 1.970 . S
Li1936 O1998 1.961 . S
Li1937 N1961 1.990 . S
Li1937 O1996 1.970 . S
Li1937 O1997 1.956 . S
Li1937 O1999 1.961 . S
Li1938 N1983 1.990 . S
Li1938 O1996 1.961 . S
Li1938 O1998 1.956 . S
Li1938 O1999 1.970 . S
Li1939 N1989 1.990 . S
Li1939 O1997 1.961 . S
Li1939 O1998 1.970 . S
Li1939 O1999 1.956 . S
C1940 C1942 1.348 . S
C1940 C1943 1.356 . S
C1940 O1996 1.325 . S
N1941 C1944 1.314 . S
N1941 C1945 1.279 . S
C1942 C1940 1.348 . S
C1942 C1944 1.353 . S
C1942 H2000 0.929 . S
C1943 C1940 1.356 . S
C1943 C1945 1.358 . S
C1943 H2001 0.930 . S
C1944 N1941 1.314 . S
C1944 C1942 1.353 . S
C1944 H2002 0.930 . S
C1945 N1941 1.279 . S
C1945 C1943 1.358 . S
C1945 H2003 0.930 . S
C1946 C1949 1.348 . S
C1946 C1950 1.356 . S
C1946 O1997 1.325 . S
C1947 N1948 1.279 . S
C1947 C1950 1.358 . S
C1947 H2004 0.930 . S
N1948 C1947 1.279 . S
N1948 C1951 1.314 . S
C1949 C1946 1.348 . S
C1949 C1951 1.353 . S
C1949 H2005 0.929 . S
C1950 C1946 1.356 . S
C1950 C1947 1.358 . S
C1950 H2006 0.930 . S
C1951 N1948 1.314 . S
C1951 C1949 1.353 . S
C1951 H2007 0.930 . S
C1952 N1953 1.314 . S
C1952 C1957 1.353 . S
C1952 H1958 0.930 . S
N1953 Li1936 1.990 . S
N1953 C1952 1.314 . S
N1953 C1955 1.279 . S
C1954 C1955 1.358 . S
C1954 C1956 1.356 . S
C1954 H2008 0.930 . S
C1955 N1953 1.279 . S
C1955 C1954 1.358 . S
C1955 H1959 0.930 . S
C1956 C1954 1.356 . S
C1956 C1957 1.348 . S
C1957 C1952 1.353 . S
C1957 C1956 1.348 . S
C1957 H2009 0.929 . S
H1958 C1952 0.930 . S
H1959 C1955 0.930 . S
C1960 N1961 1.314 . S
C1960 C1962 1.353 . S
C1960 H1966 0.930 . S
N1961 Li1937 1.990 . S
N1961 C1960 1.314 . S
N1961 C1964 1.279 . S
C1962 C1960 1.353 . S
C1962 C1965 1.348 . S
C1962 H2010 0.929 . S
C1963 C1964 1.358 . S
C1963 C1965 1.356 . S
C1963 H2011 0.930 . S
C1964 N1961 1.279 . S
C1964 C1963 1.358 . S
C1964 H1967 0.930 . S
C1965 C1962 1.348 . S
C1965 C1963 1.356 . S
H1966 C1960 0.930 . S
H1967 C1964 0.930 . S
C1968 C1970 1.348 . S
C1968 C1971 1.356 . S
C1968 O1998 1.325 . S
N1969 C1972 1.314 . S
N1969 C1973 1.279 . S
C1970 C1968 1.348 . S
C1970 C1972 1.353 . S
C1970 H2012 0.929 . S
C1971 C1968 1.356 . S
C1971 C1973 1.358 . S
C1971 H2013 0.930 . S
C1972 N1969 1.314 . S
C1972 C1970 1.353 . S
C1972 H2014 0.930 . S
C1973 N1969 1.279 . S
C1973 C1971 1.358 . S
C1973 H2015 0.930 . S
C1974 C1975 1.348 . S
C1974 C1976 1.356 . S
C1974 O1999 1.325 . S
C1975 C1974 1.348 . S
C1975 C1977 1.353 . S
C1975 H2016 0.929 . S
C1976 C1974 1.356 . S
C1976 C1978 1.358 . S
C1976 H2017 0.930 . S
C1977 C1975 1.353 . S
C1977 N1979 1.314 . S
C1977 H2018 0.930 . S
C1978 C1976 1.358 . S
C1978 N1979 1.279 . S
C1978 H2019 0.930 . S
N1979 C1977 1.314 . S
N1979 C1978 1.279 . S
C1980 C1982 1.353 . S
C1980 N1983 1.314 . S
C1980 H1986 0.930 . S
C1981 N1983 1.279 . S
C1981 C1984 1.358 . S
C1981 H1987 0.930 . S
C1982 C1980 1.353 . S
C1982 C1985 1.348 . S
C1982 H2020 0.929 . S
N1983 Li1938 1.990 . S
N1983 C1980 1.314 . S
N1983 C1981 1.279 . S
C1984 C1981 1.358 . S
C1984 C1985 1.356 . S
C1984 H2021 0.930 . S
C1985 C1982 1.348 . S
C1985 C1984 1.356 . S
H1986 C1980 0.930 . S
H1987 C1981 0.930 . S
C1988 N1989 1.314 . S
C1988 C1990 1.353 . S
C1988 H1994 0.930 . S
N1989 Li1939 1.990 . S
N1989 C1988 1.314 . S
N1989 C1992 1.279 . S
C1990 C1988 1.353 . S
C1990 C1993 1.348 . S
C1990 H2022 0.929 . S
C1991 C1992 1.358 . S
C1991 C1993 1.356 . S
C1991 H2023 0.930 . S
C1992 N1989 1.279 . S
C1992 C1991 1.358 . S
C1992 H1995 0.930 . S
C1993 C1990 1.348 . S
C1993 C1991 1.356 . S
H1994 C1988 0.930 . S
H1995 C1992 0.930 . S
O1996 Li1936 1.956 . S
O1996 Li1937 1.970 . S
O1996 Li1938 1.961 . S
O1996 C1940 1.325 . S
O1997 Li1936 1.970 . S
O1997 Li1937 1.956 . S
O1997 Li1939 1.961 . S
O1997 C1946 1.325 . S
O1998 Li1936 1.961 . S
O1998 Li1938 1.956 . S
O1998 Li1939 1.970 . S
O1998 C1968 1.325 . S
O1999 Li1937 1.961 . S
O1999 Li1938 1.970 . S
O1999 Li1939 1.956 . S
O1999 C1974 1.325 . S
H2000 C1942 0.929 . S
H2001 C1943 0.930 . S
H2002 C1944 0.930 . S
H2003 C1945 0.930 . S
H2004 C1947 0.930 . S
H2005 C1949 0.929 . S
H2006 C1950 0.930 . S
H2007 C1951 0.930 . S
H2008 C1954 0.930 . S
H2009 C1957 0.929 . S
H2010 C1962 0.929 . S
H2011 C1963 0.930 . S
H2012 C1970 0.929 . S
H2013 C1971 0.930 . S
H2014 C1972 0.930 . S
H2015 C1973 0.930 . S
H2016 C1975 0.929 . S
H2017 C1976 0.930 . S
H2018 C1977 0.930 . S
H2019 C1978 0.930 . S
H2020 C1982 0.929 . S
H2021 C1984 0.930 . S
H2022 C1990 0.929 . S
H2023 C1991 0.930 . S
Li2024 N2041 1.990 . S
Li2024 O2084 1.956 . S
Li2024 O2085 1.970 . S
Li2024 O2086 1.961 . S
Li2025 N2049 1.990 . S
Li2025 O2084 1.970 . S
Li2025 O2085 1.956 . S
Li2025 O2087 1.961 . S
Li2026 N2071 1.990 . S
Li2026 O2084 1.961 . S
Li2026 O2086 1.956 . S
Li2026 O2087 1.970 . S
Li2027 N2077 1.990 . S
Li2027 O2085 1.961 . S
Li2027 O2086 1.970 . S
Li2027 O2087 1.956 . S
C2028 C2030 1.348 . S
C2028 C2031 1.356 . S
C2028 O2084 1.325 . S
N2029 C2032 1.314 . S
N2029 C2033 1.279 . S
C2030 C2028 1.348 . S
C2030 C2032 1.353 . S
C2030 H2088 0.929 . S
C2031 C2028 1.356 . S
C2031 C2033 1.358 . S
C2031 H2089 0.930 . S
C2032 N2029 1.314 . S
C2032 C2030 1.353 . S
C2032 H2090 0.930 . S
C2033 N2029 1.279 . S
C2033 C2031 1.358 . S
C2033 H2091 0.930 . S
C2034 C2037 1.348 . S
C2034 C2038 1.356 . S
C2034 O2085 1.325 . S
C2035 N2036 1.279 . S
C2035 C2038 1.358 . S
C2035 H2092 0.930 . S
N2036 C2035 1.279 . S
N2036 C2039 1.314 . S
C2037 C2034 1.348 . S
C2037 C2039 1.353 . S
C2037 H2093 0.929 . S
C2038 C2034 1.356 . S
C2038 C2035 1.358 . S
C2038 H2094 0.930 . S
C2039 N2036 1.314 . S
C2039 C2037 1.353 . S
C2039 H2095 0.930 . S
C2040 N2041 1.314 . S
C2040 C2045 1.353 . S
C2040 H2046 0.930 . S
N2041 Li2024 1.990 . S
N2041 C2040 1.314 . S
N2041 C2043 1.279 . S
C2042 C2043 1.358 . S
C2042 C2044 1.356 . S
C2042 H2096 0.930 . S
C2043 N2041 1.279 . S
C2043 C2042 1.358 . S
C2043 H2047 0.930 . S
C2044 C2042 1.356 . S
C2044 C2045 1.348 . S
C2045 C2040 1.353 . S
C2045 C2044 1.348 . S
C2045 H2097 0.929 . S
H2046 C2040 0.930 . S
H2047 C2043 0.930 . S
C2048 N2049 1.314 . S
C2048 C2050 1.353 . S
C2048 H2054 0.930 . S
N2049 Li2025 1.990 . S
N2049 C2048 1.314 . S
N2049 C2052 1.279 . S
C2050 C2048 1.353 . S
C2050 C2053 1.348 . S
C2050 H2098 0.929 . S
C2051 C2052 1.358 . S
C2051 C2053 1.356 . S
C2051 H2099 0.930 . S
C2052 N2049 1.279 . S
C2052 C2051 1.358 . S
C2052 H2055 0.930 . S
C2053 C2050 1.348 . S
C2053 C2051 1.356 . S
H2054 C2048 0.930 . S
H2055 C2052 0.930 . S
C2056 C2058 1.348 . S
C2056 C2059 1.356 . S
C2056 O2086 1.325 . S
N2057 C2060 1.314 . S
N2057 C2061 1.279 . S
C2058 C2056 1.348 . S
C2058 C2060 1.353 . S
C2058 H2100 0.929 . S
C2059 C2056 1.356 . S
C2059 C2061 1.358 . S
C2059 H2101 0.930 . S
C2060 N2057 1.314 . S
C2060 C2058 1.353 . S
C2060 H2102 0.930 . S
C2061 N2057 1.279 . S
C2061 C2059 1.358 . S
C2061 H2103 0.930 . S
C2062 C2063 1.348 . S
C2062 C2064 1.356 . S
C2062 O2087 1.325 . S
C2063 C2062 1.348 . S
C2063 C2065 1.353 . S
C2063 H2104 0.929 . S
C2064 C2062 1.356 . S
C2064 C2066 1.358 . S
C2064 H2105 0.930 . S
C2065 C2063 1.353 . S
C2065 N2067 1.314 . S
C2065 H2106 0.930 . S
C2066 C2064 1.358 . S
C2066 N2067 1.279 . S
C2066 H2107 0.930 . S
N2067 C2065 1.314 . S
N2067 C2066 1.279 . S
C2068 C2070 1.353 . S
C2068 N2071 1.314 . S
C2068 H2074 0.930 . S
C2069 N2071 1.279 . S
C2069 C2072 1.358 . S
C2069 H2075 0.930 . S
C2070 C2068 1.353 . S
C2070 C2073 1.348 . S
C2070 H2108 0.929 . S
N2071 Li2026 1.990 . S
N2071 C2068 1.314 . S
N2071 C2069 1.279 . S
C2072 C2069 1.358 . S
C2072 C2073 1.356 . S
C2072 H2109 0.930 . S
C2073 C2070 1.348 . S
C2073 C2072 1.356 . S
H2074 C2068 0.930 . S
H2075 C2069 0.930 . S
C2076 N2077 1.314 . S
C2076 C2078 1.353 . S
C2076 H2082 0.930 . S
N2077 Li2027 1.990 . S
N2077 C2076 1.314 . S
N2077 C2080 1.279 . S
C2078 C2076 1.353 . S
C2078 C2081 1.348 . S
C2078 H2110 0.929 . S
C2079 C2080 1.358 . S
C2079 C2081 1.356 . S
C2079 H2111 0.930 . S
C2080 N2077 1.279 . S
C2080 C2079 1.358 . S
C2080 H2083 0.930 . S
C2081 C2078 1.348 . S
C2081 C2079 1.356 . S
H2082 C2076 0.930 . S
H2083 C2080 0.930 . S
O2084 Li2024 1.956 . S
O2084 Li2025 1.970 . S
O2084 Li2026 1.961 . S
O2084 C2028 1.325 . S
O2085 Li2024 1.970 . S
O2085 Li2025 1.956 . S
O2085 Li2027 1.961 . S
O2085 C2034 1.325 . S
O2086 Li2024 1.961 . S
O2086 Li2026 1.956 . S
O2086 Li2027 1.970 . S
O2086 C2056 1.325 . S
O2087 Li2025 1.961 . S
O2087 Li2026 1.970 . S
O2087 Li2027 1.956 . S
O2087 C2062 1.325 . S
H2088 C2030 0.929 . S
H2089 C2031 0.930 . S
H2090 C2032 0.930 . S
H2091 C2033 0.930 . S
H2092 C2035 0.930 . S
H2093 C2037 0.929 . S
H2094 C2038 0.930 . S
H2095 C2039 0.930 . S
H2096 C2042 0.930 . S
H2097 C2045 0.929 . S
H2098 C2050 0.929 . S
H2099 C2051 0.930 . S
H2100 C2058 0.929 . S
H2101 C2059 0.930 . S
H2102 C2060 0.930 . S
H2103 C2061 0.930 . S
H2104 C2063 0.929 . S
H2105 C2064 0.930 . S
H2106 C2065 0.930 . S
H2107 C2066 0.930 . S
H2108 C2070 0.929 . S
H2109 C2072 0.930 . S
H2110 C2078 0.929 . S
H2111 C2079 0.930 . S
Li2112 N2129 1.990 . S
Li2112 O2172 1.956 . S
Li2112 O2173 1.970 . S
Li2112 O2174 1.961 . S
Li2113 N2137 1.990 . S
Li2113 O2172 1.970 . S
Li2113 O2173 1.956 . S
Li2113 O2175 1.961 . S
Li2114 N2159 1.990 . S
Li2114 O2172 1.961 . S
Li2114 O2174 1.956 . S
Li2114 O2175 1.970 . S
Li2115 N2165 1.990 . S
Li2115 O2173 1.961 . S
Li2115 O2174 1.970 . S
Li2115 O2175 1.956 . S
C2116 C2118 1.348 . S
C2116 C2119 1.356 . S
C2116 O2172 1.325 . S
N2117 C2120 1.314 . S
N2117 C2121 1.279 . S
C2118 C2116 1.348 . S
C2118 C2120 1.353 . S
C2118 H2176 0.929 . S
C2119 C2116 1.356 . S
C2119 C2121 1.358 . S
C2119 H2177 0.930 . S
C2120 N2117 1.314 . S
C2120 C2118 1.353 . S
C2120 H2178 0.930 . S
C2121 N2117 1.279 . S
C2121 C2119 1.358 . S
C2121 H2179 0.930 . S
C2122 C2125 1.348 . S
C2122 C2126 1.356 . S
C2122 O2173 1.325 . S
C2123 N2124 1.279 . S
C2123 C2126 1.358 . S
C2123 H2180 0.926 1_455 S
N2124 C2123 1.279 . S
N2124 C2127 1.314 . S
C2125 C2122 1.348 . S
C2125 C2127 1.353 . S
C2125 H2181 0.929 . S
C2126 C2122 1.356 . S
C2126 C2123 1.358 . S
C2126 H2182 0.930 . S
C2127 N2124 1.314 . S
C2127 C2125 1.353 . S
C2127 H2183 0.930 . S
C2128 N2129 1.314 . S
C2128 C2133 1.353 . S
C2128 H2134 0.930 . S
N2129 Li2112 1.990 . S
N2129 C2128 1.314 . S
N2129 C2131 1.279 . S
C2130 C2131 1.358 . S
C2130 C2132 1.356 . S
C2130 H2184 0.930 . S
C2131 N2129 1.279 . S
C2131 C2130 1.358 . S
C2131 H2135 0.930 . S
C2132 C2130 1.356 . S
C2132 C2133 1.348 . S
C2133 C2128 1.353 . S
C2133 C2132 1.348 . S
C2133 H2185 0.929 . S
H2134 C2128 0.930 . S
H2135 C2131 0.930 . S
C2136 N2137 1.314 . S
C2136 C2138 1.353 . S
C2136 H2142 0.930 . S
N2137 Li2113 1.990 . S
N2137 C2136 1.314 . S
N2137 C2140 1.279 . S
C2138 C2136 1.353 . S
C2138 C2141 1.348 . S
C2138 H2186 0.929 . S
C2139 C2140 1.358 . S
C2139 C2141 1.356 . S
C2139 H2187 0.930 . S
C2140 N2137 1.279 . S
C2140 C2139 1.358 . S
C2140 H2143 0.930 . S
C2141 C2138 1.348 . S
C2141 C2139 1.356 . S
H2142 C2136 0.930 . S
H2143 C2140 0.930 . S
C2144 C2146 1.348 . S
C2144 C2147 1.356 . S
C2144 O2174 1.325 . S
N2145 C2148 1.314 . S
N2145 C2149 1.279 . S
C2146 C2144 1.348 . S
C2146 C2148 1.353 . S
C2146 H2188 0.929 . S
C2147 C2144 1.356 . S
C2147 C2149 1.358 . S
C2147 H2189 0.930 . S
C2148 N2145 1.314 . S
C2148 C2146 1.353 . S
C2148 H2190 0.930 1_455 S
C2149 N2145 1.279 . S
C2149 C2147 1.358 . S
C2149 H2191 0.930 . S
C2150 C2151 1.348 . S
C2150 C2152 1.356 . S
C2150 O2175 1.325 . S
C2151 C2150 1.348 . S
C2151 C2153 1.353 . S
C2151 H2192 0.929 . S
C2152 C2150 1.356 . S
C2152 C2154 1.358 . S
C2152 H2193 0.930 . S
C2153 C2151 1.353 . S
C2153 N2155 1.314 . S
C2153 H2194 0.930 . S
C2154 C2152 1.358 . S
C2154 N2155 1.279 . S
C2154 H2195 0.930 . S
N2155 C2153 1.314 . S
N2155 C2154 1.279 . S
C2156 C2158 1.353 . S
C2156 N2159 1.314 . S
C2156 H2162 0.930 . S
C2157 N2159 1.279 . S
C2157 C2160 1.358 . S
C2157 H2163 0.930 . S
C2158 C2156 1.353 . S
C2158 C2161 1.348 . S
C2158 H2196 0.929 . S
N2159 Li2114 1.990 . S
N2159 C2156 1.314 . S
N2159 C2157 1.279 . S
C2160 C2157 1.358 . S
C2160 C2161 1.356 . S
C2160 H2197 0.930 . S
C2161 C2158 1.348 . S
C2161 C2160 1.356 . S
H2162 C2156 0.930 . S
H2163 C2157 0.930 . S
C2164 N2165 1.314 1_655 S
C2164 C2166 1.353 . S
C2164 H2170 0.930 . S
N2165 Li2115 1.990 . S
N2165 C2164 1.314 1_455 S
N2165 C2168 1.279 1_455 S
C2166 C2164 1.353 . S
C2166 C2169 1.348 . S
C2166 H2198 0.929 . S
C2167 C2168 1.358 . S
C2167 C2169 1.356 . S
C2167 H2199 0.930 . S
C2168 N2165 1.279 1_655 S
C2168 C2167 1.358 . S
C2168 H2171 0.930 1_655 S
C2169 C2166 1.348 . S
C2169 C2167 1.356 . S
H2170 C2164 0.930 . S
H2171 C2168 0.930 1_455 S
O2172 Li2112 1.956 . S
O2172 Li2113 1.970 . S
O2172 Li2114 1.961 . S
O2172 C2116 1.325 . S
O2173 Li2112 1.970 . S
O2173 Li2113 1.956 . S
O2173 Li2115 1.961 . S
O2173 C2122 1.325 . S
O2174 Li2112 1.961 . S
O2174 Li2114 1.956 . S
O2174 Li2115 1.970 . S
O2174 C2144 1.325 . S
O2175 Li2113 1.961 . S
O2175 Li2114 1.970 . S
O2175 Li2115 1.956 . S
O2175 C2150 1.325 . S
H2176 C2118 0.929 . S
H2177 C2119 0.930 . S
H2178 C2120 0.930 . S
H2179 C2121 0.930 . S
H2180 C2123 0.926 1_655 S
H2181 C2125 0.929 . S
H2182 C2126 0.930 . S
H2183 C2127 0.930 . S
H2184 C2130 0.930 . S
H2185 C2133 0.929 . S
H2186 C2138 0.929 . S
H2187 C2139 0.930 . S
H2188 C2146 0.929 . S
H2189 C2147 0.930 . S
H2190 C2148 0.930 1_655 S
H2191 C2149 0.930 . S
H2192 C2151 0.929 . S
H2193 C2152 0.930 . S
H2194 C2153 0.930 . S
H2195 C2154 0.930 . S
H2196 C2158 0.929 . S
H2197 C2160 0.930 . S
H2198 C2166 0.929 . S
H2199 C2167 0.930 . S
Li2200 N2217 1.990 . S
Li2200 O2260 1.956 . S
Li2200 O2261 1.970 . S
Li2200 O2262 1.961 . S
Li2201 N2225 1.990 . S
Li2201 O2260 1.970 . S
Li2201 O2261 1.956 . S
Li2201 O2263 1.961 . S
Li2202 N2247 1.990 . S
Li2202 O2260 1.961 . S
Li2202 O2262 1.956 . S
Li2202 O2263 1.970 . S
Li2203 N2253 1.990 . S
Li2203 O2261 1.961 . S
Li2203 O2262 1.970 . S
Li2203 O2263 1.956 . S
C2204 C2206 1.348 . S
C2204 C2207 1.356 . S
C2204 O2260 1.325 . S
N2205 C2208 1.314 . S
N2205 C2209 1.279 . S
C2206 C2204 1.348 . S
C2206 C2208 1.353 . S
C2206 H2264 0.929 . S
C2207 C2204 1.356 . S
C2207 C2209 1.358 . S
C2207 H2265 0.930 . S
C2208 N2205 1.314 . S
C2208 C2206 1.353 . S
C2208 H2266 0.930 . S
C2209 N2205 1.279 . S
C2209 C2207 1.358 . S
C2209 H2267 0.930 . S
C2210 C2213 1.348 . S
C2210 C2214 1.356 . S
C2210 O2261 1.325 . S
C2211 N2212 1.279 . S
C2211 C2214 1.358 . S
C2211 H2268 0.930 . S
N2212 C2211 1.279 . S
N2212 C2215 1.314 . S
C2213 C2210 1.348 . S
C2213 C2215 1.353 . S
C2213 H2269 0.929 . S
C2214 C2210 1.356 . S
C2214 C2211 1.358 . S
C2214 H2270 0.930 . S
C2215 N2212 1.314 . S
C2215 C2213 1.353 . S
C2215 H2271 0.930 . S
C2216 N2217 1.314 . S
C2216 C2221 1.353 . S
C2216 H2222 0.930 . S
N2217 Li2200 1.990 . S
N2217 C2216 1.314 . S
N2217 C2219 1.279 . S
C2218 C2219 1.358 . S
C2218 C2220 1.356 . S
C2218 H2272 0.930 . S
C2219 N2217 1.279 . S
C2219 C2218 1.358 . S
C2219 H2223 0.930 . S
C2220 C2218 1.356 . S
C2220 C2221 1.348 . S
C2221 C2216 1.353 . S
C2221 C2220 1.348 . S
C2221 H2273 0.929 . S
H2222 C2216 0.930 . S
H2223 C2219 0.930 . S
C2224 N2225 1.314 . S
C2224 C2226 1.353 . S
C2224 H2230 0.930 . S
N2225 Li2201 1.990 . S
N2225 C2224 1.314 . S
N2225 C2228 1.279 . S
C2226 C2224 1.353 . S
C2226 C2229 1.348 . S
C2226 H2274 0.929 . S
C2227 C2228 1.358 . S
C2227 C2229 1.356 . S
C2227 H2275 0.930 . S
C2228 N2225 1.279 . S
C2228 C2227 1.358 . S
C2228 H2231 0.930 . S
C2229 C2226 1.348 . S
C2229 C2227 1.356 . S
H2230 C2224 0.930 . S
H2231 C2228 0.930 . S
C2232 C2234 1.348 . S
C2232 C2235 1.356 . S
C2232 O2262 1.325 . S
N2233 C2236 1.314 . S
N2233 C2237 1.279 . S
C2234 C2232 1.348 . S
C2234 C2236 1.353 . S
C2234 H2276 0.929 . S
C2235 C2232 1.356 . S
C2235 C2237 1.358 . S
C2235 H2277 0.930 . S
C2236 N2233 1.314 . S
C2236 C2234 1.353 . S
C2236 H2278 0.930 . S
C2237 N2233 1.279 . S
C2237 C2235 1.358 . S
C2237 H2279 0.930 . S
C2238 C2239 1.348 . S
C2238 C2240 1.356 . S
C2238 O2263 1.325 . S
C2239 C2238 1.348 . S
C2239 C2241 1.353 . S
C2239 H2280 0.929 . S
C2240 C2238 1.356 . S
C2240 C2242 1.358 . S
C2240 H2281 0.930 . S
C2241 C2239 1.353 . S
C2241 N2243 1.314 . S
C2241 H2282 0.930 . S
C2242 C2240 1.358 . S
C2242 N2243 1.279 . S
C2242 H2283 0.930 . S
N2243 C2241 1.314 . S
N2243 C2242 1.279 . S
C2244 C2246 1.353 . S
C2244 N2247 1.314 . S
C2244 H2250 0.930 . S
C2245 N2247 1.279 . S
C2245 C2248 1.358 . S
C2245 H2251 0.930 . S
C2246 C2244 1.353 . S
C2246 C2249 1.348 . S
C2246 H2284 0.929 . S
N2247 Li2202 1.990 . S
N2247 C2244 1.314 . S
N2247 C2245 1.279 . S
C2248 C2245 1.358 . S
C2248 C2249 1.356 . S
C2248 H2285 0.930 . S
C2249 C2246 1.348 . S
C2249 C2248 1.356 . S
H2250 C2244 0.930 . S
H2251 C2245 0.930 . S
C2252 N2253 1.314 . S
C2252 C2254 1.353 . S
C2252 H2258 0.930 . S
N2253 Li2203 1.990 . S
N2253 C2252 1.314 . S
N2253 C2256 1.279 . S
C2254 C2252 1.353 . S
C2254 C2257 1.348 . S
C2254 H2286 0.929 . S
C2255 C2256 1.358 . S
C2255 C2257 1.356 . S
C2255 H2287 0.930 . S
C2256 N2253 1.279 . S
C2256 C2255 1.358 . S
C2256 H2259 0.930 . S
C2257 C2254 1.348 . S
C2257 C2255 1.356 . S
H2258 C2252 0.930 . S
H2259 C2256 0.930 . S
O2260 Li2200 1.956 . S
O2260 Li2201 1.970 . S
O2260 Li2202 1.961 . S
O2260 C2204 1.325 . S
O2261 Li2200 1.970 . S
O2261 Li2201 1.956 . S
O2261 Li2203 1.961 . S
O2261 C2210 1.325 . S
O2262 Li2200 1.961 . S
O2262 Li2202 1.956 . S
O2262 Li2203 1.970 . S
O2262 C2232 1.325 . S
O2263 Li2201 1.961 . S
O2263 Li2202 1.970 . S
O2263 Li2203 1.956 . S
O2263 C2238 1.325 . S
H2264 C2206 0.929 . S
H2265 C2207 0.930 . S
H2266 C2208 0.930 . S
H2267 C2209 0.930 . S
H2268 C2211 0.930 . S
H2269 C2213 0.929 . S
H2270 C2214 0.930 . S
H2271 C2215 0.930 . S
H2272 C2218 0.930 . S
H2273 C2221 0.929 . S
H2274 C2226 0.929 . S
H2275 C2227 0.930 . S
H2276 C2234 0.929 . S
H2277 C2235 0.930 . S
H2278 C2236 0.930 . S
H2279 C2237 0.930 . S
H2280 C2239 0.929 . S
H2281 C2240 0.930 . S
H2282 C2241 0.930 . S
H2283 C2242 0.930 . S
H2284 C2246 0.929 . S
H2285 C2248 0.930 . S
H2286 C2254 0.929 . S
H2287 C2255 0.930 . S
Li2288 N2305 1.990 . S
Li2288 O2348 1.956 . S
Li2288 O2349 1.970 . S
Li2288 O2350 1.961 . S
Li2289 N2313 1.990 . S
Li2289 O2348 1.970 . S
Li2289 O2349 1.956 . S
Li2289 O2351 1.961 . S
Li2290 N2335 1.990 . S
Li2290 O2348 1.961 . S
Li2290 O2350 1.956 . S
Li2290 O2351 1.970 . S
Li2291 N2341 1.990 . S
Li2291 O2349 1.961 . S
Li2291 O2350 1.970 . S
Li2291 O2351 1.956 . S
C2292 C2294 1.348 . S
C2292 C2295 1.356 . S
C2292 O2348 1.325 . S
N2293 C2296 1.314 . S
N2293 C2297 1.279 . S
C2294 C2292 1.348 . S
C2294 C2296 1.353 . S
C2294 H2352 0.929 . S
C2295 C2292 1.356 . S
C2295 C2297 1.358 . S
C2295 H2353 0.930 . S
C2296 N2293 1.314 . S
C2296 C2294 1.353 . S
C2296 H2354 0.930 . S
C2297 N2293 1.279 . S
C2297 C2295 1.358 . S
C2297 H2355 0.930 . S
C2298 C2301 1.348 . S
C2298 C2302 1.356 . S
C2298 O2349 1.325 . S
C2299 N2300 1.279 . S
C2299 C2302 1.358 . S
C2299 H2356 0.930 . S
N2300 C2299 1.279 . S
N2300 C2303 1.314 . S
C2301 C2298 1.348 . S
C2301 C2303 1.353 . S
C2301 H2357 0.929 . S
C2302 C2298 1.356 . S
C2302 C2299 1.358 . S
C2302 H2358 0.930 . S
C2303 N2300 1.314 . S
C2303 C2301 1.353 . S
C2303 H2359 0.930 . S
C2304 N2305 1.314 . S
C2304 C2309 1.353 . S
C2304 H2310 0.930 . S
N2305 Li2288 1.990 . S
N2305 C2304 1.314 . S
N2305 C2307 1.279 . S
C2306 C2307 1.358 . S
C2306 C2308 1.356 . S
C2306 H2360 0.930 . S
C2307 N2305 1.279 . S
C2307 C2306 1.358 . S
C2307 H2311 0.930 . S
C2308 C2306 1.356 . S
C2308 C2309 1.348 . S
C2309 C2304 1.353 . S
C2309 C2308 1.348 . S
C2309 H2361 0.929 . S
H2310 C2304 0.930 . S
H2311 C2307 0.930 . S
C2312 N2313 1.314 . S
C2312 C2314 1.353 . S
C2312 H2318 0.930 . S
N2313 Li2289 1.990 . S
N2313 C2312 1.314 . S
N2313 C2316 1.279 . S
C2314 C2312 1.353 . S
C2314 C2317 1.348 . S
C2314 H2362 0.929 . S
C2315 C2316 1.358 . S
C2315 C2317 1.356 . S
C2315 H2363 0.930 . S
C2316 N2313 1.279 . S
C2316 C2315 1.358 . S
C2316 H2319 0.930 . S
C2317 C2314 1.348 . S
C2317 C2315 1.356 . S
H2318 C2312 0.930 . S
H2319 C2316 0.930 . S
C2320 C2322 1.348 . S
C2320 C2323 1.356 . S
C2320 O2350 1.325 . S
N2321 C2324 1.314 . S
N2321 C2325 1.279 . S
C2322 C2320 1.348 . S
C2322 C2324 1.353 . S
C2322 H2364 0.929 . S
C2323 C2320 1.356 . S
C2323 C2325 1.358 . S
C2323 H2365 0.930 . S
C2324 N2321 1.314 . S
C2324 C2322 1.353 . S
C2324 H2366 0.930 . S
C2325 N2321 1.279 . S
C2325 C2323 1.358 . S
C2325 H2367 0.930 . S
C2326 C2327 1.348 . S
C2326 C2328 1.356 . S
C2326 O2351 1.325 . S
C2327 C2326 1.348 . S
C2327 C2329 1.353 . S
C2327 H2368 0.929 . S
C2328 C2326 1.356 . S
C2328 C2330 1.358 . S
C2328 H2369 0.930 . S
C2329 C2327 1.353 . S
C2329 N2331 1.314 . S
C2329 H2370 0.930 . S
C2330 C2328 1.358 . S
C2330 N2331 1.279 . S
C2330 H2371 0.930 . S
N2331 C2329 1.314 . S
N2331 C2330 1.279 . S
C2332 C2334 1.353 . S
C2332 N2335 1.314 . S
C2332 H2338 0.930 . S
C2333 N2335 1.279 . S
C2333 C2336 1.358 . S
C2333 H2339 0.930 . S
C2334 C2332 1.353 . S
C2334 C2337 1.348 . S
C2334 H2372 0.929 . S
N2335 Li2290 1.990 . S
N2335 C2332 1.314 . S
N2335 C2333 1.279 . S
C2336 C2333 1.358 . S
C2336 C2337 1.356 . S
C2336 H2373 0.930 . S
C2337 C2334 1.348 . S
C2337 C2336 1.356 . S
H2338 C2332 0.930 . S
H2339 C2333 0.930 . S
C2340 N2341 1.314 . S
C2340 C2342 1.353 . S
C2340 H2346 0.930 . S
N2341 Li2291 1.990 . S
N2341 C2340 1.314 . S
N2341 C2344 1.279 . S
C2342 C2340 1.353 . S
C2342 C2345 1.348 . S
C2342 H2374 0.929 . S
C2343 C2344 1.358 . S
C2343 C2345 1.356 . S
C2343 H2375 0.930 . S
C2344 N2341 1.279 . S
C2344 C2343 1.358 . S
C2344 H2347 0.930 . S
C2345 C2342 1.348 . S
C2345 C2343 1.356 . S
H2346 C2340 0.930 . S
H2347 C2344 0.930 . S
O2348 Li2288 1.956 . S
O2348 Li2289 1.970 . S
O2348 Li2290 1.961 . S
O2348 C2292 1.325 . S
O2349 Li2288 1.970 . S
O2349 Li2289 1.956 . S
O2349 Li2291 1.961 . S
O2349 C2298 1.325 . S
O2350 Li2288 1.961 . S
O2350 Li2290 1.956 . S
O2350 Li2291 1.970 . S
O2350 C2320 1.325 . S
O2351 Li2289 1.961 . S
O2351 Li2290 1.970 . S
O2351 Li2291 1.956 . S
O2351 C2326 1.325 . S
H2352 C2294 0.929 . S
H2353 C2295 0.930 . S
H2354 C2296 0.930 . S
H2355 C2297 0.930 . S
H2356 C2299 0.930 . S
H2357 C2301 0.929 . S
H2358 C2302 0.930 . S
H2359 C2303 0.930 . S
H2360 C2306 0.930 . S
H2361 C2309 0.929 . S
H2362 C2314 0.929 . S
H2363 C2315 0.930 . S
H2364 C2322 0.929 . S
H2365 C2323 0.930 . S
H2366 C2324 0.930 . S
H2367 C2325 0.930 . S
H2368 C2327 0.929 . S
H2369 C2328 0.930 . S
H2370 C2329 0.930 . S
H2371 C2330 0.930 . S
H2372 C2334 0.929 . S
H2373 C2336 0.930 . S
H2374 C2342 0.929 . S
H2375 C2343 0.930 . S
Li2376 N2393 1.990 . S
Li2376 O2436 1.956 . S
Li2376 O2437 1.970 . S
Li2376 O2438 1.961 . S
Li2377 N2401 1.990 . S
Li2377 O2436 1.970 . S
Li2377 O2437 1.956 . S
Li2377 O2439 1.961 . S
Li2378 N2423 1.990 . S
Li2378 O2436 1.961 . S
Li2378 O2438 1.956 . S
Li2378 O2439 1.970 . S
Li2379 N2429 1.990 . S
Li2379 O2437 1.961 . S
Li2379 O2438 1.970 . S
Li2379 O2439 1.956 . S
C2380 C2382 1.348 . S
C2380 C2383 1.356 . S
C2380 O2436 1.325 . S
N2381 C2384 1.314 . S
N2381 C2385 1.279 . S
C2382 C2380 1.348 . S
C2382 C2384 1.353 . S
C2382 H2440 0.929 . S
C2383 C2380 1.356 . S
C2383 C2385 1.358 . S
C2383 H2441 0.930 . S
C2384 N2381 1.314 . S
C2384 C2382 1.353 . S
C2384 H2442 0.930 . S
C2385 N2381 1.279 . S
C2385 C2383 1.358 . S
C2385 H2443 0.930 . S
C2386 C2389 1.348 . S
C2386 C2390 1.356 . S
C2386 O2437 1.325 . S
C2387 N2388 1.279 . S
C2387 C2390 1.358 . S
C2387 H2444 0.930 . S
N2388 C2387 1.279 . S
N2388 C2391 1.314 . S
C2389 C2386 1.348 . S
C2389 C2391 1.353 . S
C2389 H2445 0.929 . S
C2390 C2386 1.356 . S
C2390 C2387 1.358 . S
C2390 H2446 0.930 . S
C2391 N2388 1.314 . S
C2391 C2389 1.353 . S
C2391 H2447 0.930 . S
C2392 N2393 1.314 . S
C2392 C2397 1.353 . S
C2392 H2398 0.930 . S
N2393 Li2376 1.990 . S
N2393 C2392 1.314 . S
N2393 C2395 1.279 . S
C2394 C2395 1.358 . S
C2394 C2396 1.356 . S
C2394 H2448 0.930 . S
C2395 N2393 1.279 . S
C2395 C2394 1.358 . S
C2395 H2399 0.930 . S
C2396 C2394 1.356 . S
C2396 C2397 1.348 . S
C2397 C2392 1.353 . S
C2397 C2396 1.348 . S
C2397 H2449 0.929 . S
H2398 C2392 0.930 . S
H2399 C2395 0.930 . S
C2400 N2401 1.314 . S
C2400 C2402 1.353 . S
C2400 H2406 0.930 . S
N2401 Li2377 1.990 . S
N2401 C2400 1.314 . S
N2401 C2404 1.279 . S
C2402 C2400 1.353 . S
C2402 C2405 1.348 . S
C2402 H2450 0.929 . S
C2403 C2404 1.358 . S
C2403 C2405 1.356 . S
C2403 H2451 0.930 . S
C2404 N2401 1.279 . S
C2404 C2403 1.358 . S
C2404 H2407 0.930 . S
C2405 C2402 1.348 . S
C2405 C2403 1.356 . S
H2406 C2400 0.930 . S
H2407 C2404 0.930 . S
C2408 C2410 1.348 . S
C2408 C2411 1.356 . S
C2408 O2438 1.325 . S
N2409 C2412 1.314 . S
N2409 C2413 1.279 . S
C2410 C2408 1.348 . S
C2410 C2412 1.353 . S
C2410 H2452 0.929 . S
C2411 C2408 1.356 . S
C2411 C2413 1.358 . S
C2411 H2453 0.930 . S
C2412 N2409 1.314 . S
C2412 C2410 1.353 . S
C2412 H2454 0.930 . S
C2413 N2409 1.279 . S
C2413 C2411 1.358 . S
C2413 H2455 0.930 . S
C2414 C2415 1.348 . S
C2414 C2416 1.356 . S
C2414 O2439 1.325 . S
C2415 C2414 1.348 . S
C2415 C2417 1.353 . S
C2415 H2456 0.929 . S
C2416 C2414 1.356 . S
C2416 C2418 1.358 . S
C2416 H2457 0.930 . S
C2417 C2415 1.353 . S
C2417 N2419 1.314 . S
C2417 H2458 0.930 . S
C2418 C2416 1.358 . S
C2418 N2419 1.279 . S
C2418 H2459 0.930 . S
N2419 C2417 1.314 . S
N2419 C2418 1.279 . S
C2420 C2422 1.353 . S
C2420 N2423 1.314 . S
C2420 H2426 0.930 . S
C2421 N2423 1.279 . S
C2421 C2424 1.358 . S
C2421 H2427 0.930 . S
C2422 C2420 1.353 . S
C2422 C2425 1.348 . S
C2422 H2460 0.929 . S
N2423 Li2378 1.990 . S
N2423 C2420 1.314 . S
N2423 C2421 1.279 . S
C2424 C2421 1.358 . S
C2424 C2425 1.356 . S
C2424 H2461 0.930 . S
C2425 C2422 1.348 . S
C2425 C2424 1.356 . S
H2426 C2420 0.930 . S
H2427 C2421 0.930 . S
C2428 N2429 1.314 . S
C2428 C2430 1.353 . S
C2428 H2434 0.930 . S
N2429 Li2379 1.990 . S
N2429 C2428 1.314 . S
N2429 C2432 1.279 . S
C2430 C2428 1.353 . S
C2430 C2433 1.348 . S
C2430 H2462 0.929 . S
C2431 C2432 1.358 . S
C2431 C2433 1.356 . S
C2431 H2463 0.930 . S
C2432 N2429 1.279 . S
C2432 C2431 1.358 . S
C2432 H2435 0.930 . S
C2433 C2430 1.348 . S
C2433 C2431 1.356 . S
H2434 C2428 0.930 . S
H2435 C2432 0.930 . S
O2436 Li2376 1.956 . S
O2436 Li2377 1.970 . S
O2436 Li2378 1.961 . S
O2436 C2380 1.325 . S
O2437 Li2376 1.970 . S
O2437 Li2377 1.956 . S
O2437 Li2379 1.961 . S
O2437 C2386 1.325 . S
O2438 Li2376 1.961 . S
O2438 Li2378 1.956 . S
O2438 Li2379 1.970 . S
O2438 C2408 1.325 . S
O2439 Li2377 1.961 . S
O2439 Li2378 1.970 . S
O2439 Li2379 1.956 . S
O2439 C2414 1.325 . S
H2440 C2382 0.929 . S
H2441 C2383 0.930 . S
H2442 C2384 0.930 . S
H2443 C2385 0.930 . S
H2444 C2387 0.930 . S
H2445 C2389 0.929 . S
H2446 C2390 0.930 . S
H2447 C2391 0.930 . S
H2448 C2394 0.930 . S
H2449 C2397 0.929 . S
H2450 C2402 0.929 . S
H2451 C2403 0.930 . S
H2452 C2410 0.929 . S
H2453 C2411 0.930 . S
H2454 C2412 0.930 . S
H2455 C2413 0.930 . S
H2456 C2415 0.929 . S
H2457 C2416 0.930 . S
H2458 C2417 0.930 . S
H2459 C2418 0.930 . S
H2460 C2422 0.929 . S
H2461 C2424 0.930 . S
H2462 C2430 0.929 . S
H2463 C2431 0.930 . S
Li2464 N2481 1.990 . S
Li2464 O2524 1.956 . S
Li2464 O2525 1.970 . S
Li2464 O2526 1.961 . S
Li2465 N2489 1.990 . S
Li2465 O2524 1.970 . S
Li2465 O2525 1.956 . S
Li2465 O2527 1.961 . S
Li2466 N2511 1.990 . S
Li2466 O2524 1.961 . S
Li2466 O2526 1.956 . S
Li2466 O2527 1.970 . S
Li2467 N2517 1.990 . S
Li2467 O2525 1.961 . S
Li2467 O2526 1.970 . S
Li2467 O2527 1.956 . S
C2468 C2470 1.348 . S
C2468 C2471 1.356 . S
C2468 O2524 1.325 . S
N2469 C2472 1.314 . S
N2469 C2473 1.279 . S
C2470 C2468 1.348 . S
C2470 C2472 1.353 . S
C2470 H2528 0.929 . S
C2471 C2468 1.356 . S
C2471 C2473 1.358 . S
C2471 H2529 0.930 . S
C2472 N2469 1.314 . S
C2472 C2470 1.353 . S
C2472 H2530 0.930 1_455 S
C2473 N2469 1.279 . S
C2473 C2471 1.358 . S
C2473 H2531 0.930 . S
C2474 C2477 1.348 . S
C2474 C2478 1.356 . S
C2474 O2525 1.325 . S
C2475 N2476 1.279 . S
C2475 C2478 1.358 . S
C2475 H2532 0.930 . S
N2476 C2475 1.279 . S
N2476 C2479 1.314 . S
C2477 C2474 1.348 . S
C2477 C2479 1.353 . S
C2477 H2533 0.929 . S
C2478 C2474 1.356 . S
C2478 C2475 1.358 . S
C2478 H2534 0.930 . S
C2479 N2476 1.314 . S
C2479 C2477 1.353 . S
C2479 H2535 0.930 . S
C2480 N2481 1.314 . S
C2480 C2485 1.353 . S
C2480 H2486 0.930 . S
N2481 Li2464 1.990 . S
N2481 C2480 1.314 . S
N2481 C2483 1.279 . S
C2482 C2483 1.358 . S
C2482 C2484 1.356 . S
C2482 H2536 0.930 . S
C2483 N2481 1.279 . S
C2483 C2482 1.358 . S
C2483 H2487 0.930 . S
C2484 C2482 1.356 . S
C2484 C2485 1.348 . S
C2485 C2480 1.353 . S
C2485 C2484 1.348 . S
C2485 H2537 0.929 . S
H2486 C2480 0.930 . S
H2487 C2483 0.930 . S
C2488 N2489 1.314 1_655 S
C2488 C2490 1.353 . S
C2488 H2494 0.930 . S
N2489 Li2465 1.990 . S
N2489 C2488 1.314 1_455 S
N2489 C2492 1.279 1_455 S
C2490 C2488 1.353 . S
C2490 C2493 1.348 . S
C2490 H2538 0.929 . S
C2491 C2492 1.358 . S
C2491 C2493 1.356 . S
C2491 H2539 0.930 . S
C2492 N2489 1.279 1_655 S
C2492 C2491 1.358 . S
C2492 H2495 0.930 1_655 S
C2493 C2490 1.348 . S
C2493 C2491 1.356 . S
H2494 C2488 0.930 . S
H2495 C2492 0.930 1_455 S
C2496 C2498 1.348 . S
C2496 C2499 1.356 . S
C2496 O2526 1.325 . S
N2497 C2500 1.314 . S
N2497 C2501 1.279 . S
C2498 C2496 1.348 . S
C2498 C2500 1.353 . S
C2498 H2540 0.929 . S
C2499 C2496 1.356 . S
C2499 C2501 1.358 . S
C2499 H2541 0.930 . S
C2500 N2497 1.314 . S
C2500 C2498 1.353 . S
C2500 H2542 0.930 . S
C2501 N2497 1.279 . S
C2501 C2499 1.358 . S
C2501 H2543 0.930 . S
C2502 C2503 1.348 . S
C2502 C2504 1.356 . S
C2502 O2527 1.325 . S
C2503 C2502 1.348 . S
C2503 C2505 1.353 . S
C2503 H2544 0.929 . S
C2504 C2502 1.356 . S
C2504 C2506 1.358 . S
C2504 H2545 0.930 . S
C2505 C2503 1.353 . S
C2505 N2507 1.314 . S
C2505 H2546 0.930 . S
C2506 C2504 1.358 . S
C2506 N2507 1.279 . S
C2506 H2547 0.926 1_455 S
N2507 C2505 1.314 . S
N2507 C2506 1.279 . S
C2508 C2510 1.353 . S
C2508 N2511 1.314 . S
C2508 H2514 0.930 . S
C2509 N2511 1.279 . S
C2509 C2512 1.358 . S
C2509 H2515 0.930 . S
C2510 C2508 1.353 . S
C2510 C2513 1.348 . S
C2510 H2548 0.929 . S
N2511 Li2466 1.990 . S
N2511 C2508 1.314 . S
N2511 C2509 1.279 . S
C2512 C2509 1.358 . S
C2512 C2513 1.356 . S
C2512 H2549 0.930 . S
C2513 C2510 1.348 . S
C2513 C2512 1.356 . S
H2514 C2508 0.930 . S
H2515 C2509 0.930 . S
C2516 N2517 1.314 . S
C2516 C2518 1.353 . S
C2516 H2522 0.930 . S
N2517 Li2467 1.990 . S
N2517 C2516 1.314 . S
N2517 C2520 1.279 . S
C2518 C2516 1.353 . S
C2518 C2521 1.348 . S
C2518 H2550 0.929 . S
C2519 C2520 1.358 . S
C2519 C2521 1.356 . S
C2519 H2551 0.930 . S
C2520 N2517 1.279 . S
C2520 C2519 1.358 . S
C2520 H2523 0.930 . S
C2521 C2518 1.348 . S
C2521 C2519 1.356 . S
H2522 C2516 0.930 . S
H2523 C2520 0.930 . S
O2524 Li2464 1.956 . S
O2524 Li2465 1.970 . S
O2524 Li2466 1.961 . S
O2524 C2468 1.325 . S
O2525 Li2464 1.970 . S
O2525 Li2465 1.956 . S
O2525 Li2467 1.961 . S
O2525 C2474 1.325 . S
O2526 Li2464 1.961 . S
O2526 Li2466 1.956 . S
O2526 Li2467 1.970 . S
O2526 C2496 1.325 . S
O2527 Li2465 1.961 . S
O2527 Li2466 1.970 . S
O2527 Li2467 1.956 . S
O2527 C2502 1.325 . S
H2528 C2470 0.929 . S
H2529 C2471 0.930 . S
H2530 C2472 0.930 1_655 S
H2531 C2473 0.930 . S
H2532 C2475 0.930 . S
H2533 C2477 0.929 . S
H2534 C2478 0.930 . S
H2535 C2479 0.930 . S
H2536 C2482 0.930 . S
H2537 C2485 0.929 . S
H2538 C2490 0.929 . S
H2539 C2491 0.930 . S
H2540 C2498 0.929 . S
H2541 C2499 0.930 . S
H2542 C2500 0.930 . S
H2543 C2501 0.930 . S
H2544 C2503 0.929 . S
H2545 C2504 0.930 . S
H2546 C2505 0.930 . S
H2547 C2506 0.926 1_655 S
H2548 C2510 0.929 . S
H2549 C2512 0.930 . S
H2550 C2518 0.929 . S
H2551 C2519 0.930 . S
Li2552 N2569 1.990 . S
Li2552 O2612 1.956 . S
Li2552 O2613 1.970 . S
Li2552 O2614 1.961 . S
Li2553 N2577 1.990 . S
Li2553 O2612 1.970 . S
Li2553 O2613 1.956 . S
Li2553 O2615 1.961 . S
Li2554 N2599 1.990 . S
Li2554 O2612 1.961 . S
Li2554 O2614 1.956 . S
Li2554 O2615 1.970 . S
Li2555 N2605 1.990 . S
Li2555 O2613 1.961 . S
Li2555 O2614 1.970 . S
Li2555 O2615 1.956 . S
C2556 C2558 1.348 . S
C2556 C2559 1.356 . S
C2556 O2612 1.325 . S
N2557 C2560 1.314 . S
N2557 C2561 1.279 . S
C2558 C2556 1.348 . S
C2558 C2560 1.353 . S
C2558 H2616 0.929 . S
C2559 C2556 1.356 . S
C2559 C2561 1.358 . S
C2559 H2617 0.930 . S
C2560 N2557 1.314 . S
C2560 C2558 1.353 . S
C2560 H2618 0.930 . S
C2561 N2557 1.279 . S
C2561 C2559 1.358 . S
C2561 H2619 0.930 . S
C2562 C2565 1.348 . S
C2562 C2566 1.356 . S
C2562 O2613 1.325 . S
C2563 N2564 1.279 . S
C2563 C2566 1.358 . S
C2563 H2620 0.930 . S
N2564 C2563 1.279 . S
N2564 C2567 1.314 . S
C2565 C2562 1.348 . S
C2565 C2567 1.353 . S
C2565 H2621 0.929 . S
C2566 C2562 1.356 . S
C2566 C2563 1.358 . S
C2566 H2622 0.930 . S
C2567 N2564 1.314 . S
C2567 C2565 1.353 . S
C2567 H2623 0.930 . S
C2568 N2569 1.314 . S
C2568 C2573 1.353 . S
C2568 H2574 0.930 . S
N2569 Li2552 1.990 . S
N2569 C2568 1.314 . S
N2569 C2571 1.279 . S
C2570 C2571 1.358 . S
C2570 C2572 1.356 . S
C2570 H2624 0.930 . S
C2571 N2569 1.279 . S
C2571 C2570 1.358 . S
C2571 H2575 0.930 . S
C2572 C2570 1.356 . S
C2572 C2573 1.348 . S
C2573 C2568 1.353 . S
C2573 C2572 1.348 . S
C2573 H2625 0.929 . S
H2574 C2568 0.930 . S
H2575 C2571 0.930 . S
C2576 N2577 1.314 . S
C2576 C2578 1.353 . S
C2576 H2582 0.930 . S
N2577 Li2553 1.990 . S
N2577 C2576 1.314 . S
N2577 C2580 1.279 . S
C2578 C2576 1.353 . S
C2578 C2581 1.348 . S
C2578 H2626 0.929 . S
C2579 C2580 1.358 . S
C2579 C2581 1.356 . S
C2579 H2627 0.930 . S
C2580 N2577 1.279 . S
C2580 C2579 1.358 . S
C2580 H2583 0.930 . S
C2581 C2578 1.348 . S
C2581 C2579 1.356 . S
H2582 C2576 0.930 . S
H2583 C2580 0.930 . S
C2584 C2586 1.348 . S
C2584 C2587 1.356 . S
C2584 O2614 1.325 . S
N2585 C2588 1.314 . S
N2585 C2589 1.279 . S
C2586 C2584 1.348 . S
C2586 C2588 1.353 . S
C2586 H2628 0.929 . S
C2587 C2584 1.356 . S
C2587 C2589 1.358 . S
C2587 H2629 0.930 . S
C2588 N2585 1.314 . S
C2588 C2586 1.353 . S
C2588 H2630 0.930 . S
C2589 N2585 1.279 . S
C2589 C2587 1.358 . S
C2589 H2631 0.930 . S
C2590 C2591 1.348 . S
C2590 C2592 1.356 . S
C2590 O2615 1.325 . S
C2591 C2590 1.348 . S
C2591 C2593 1.353 . S
C2591 H2632 0.929 . S
C2592 C2590 1.356 . S
C2592 C2594 1.358 . S
C2592 H2633 0.930 . S
C2593 C2591 1.353 . S
C2593 N2595 1.314 . S
C2593 H2634 0.930 . S
C2594 C2592 1.358 . S
C2594 N2595 1.279 . S
C2594 H2635 0.930 . S
N2595 C2593 1.314 . S
N2595 C2594 1.279 . S
C2596 C2598 1.353 . S
C2596 N2599 1.314 . S
C2596 H2602 0.930 . S
C2597 N2599 1.279 . S
C2597 C2600 1.358 . S
C2597 H2603 0.930 . S
C2598 C2596 1.353 . S
C2598 C2601 1.348 . S
C2598 H2636 0.929 . S
N2599 Li2554 1.990 . S
N2599 C2596 1.314 . S
N2599 C2597 1.279 . S
C2600 C2597 1.358 . S
C2600 C2601 1.356 . S
C2600 H2637 0.930 . S
C2601 C2598 1.348 . S
C2601 C2600 1.356 . S
H2602 C2596 0.930 . S
H2603 C2597 0.930 . S
C2604 N2605 1.314 . S
C2604 C2606 1.353 . S
C2604 H2610 0.930 . S
N2605 Li2555 1.990 . S
N2605 C2604 1.314 . S
N2605 C2608 1.279 . S
C2606 C2604 1.353 . S
C2606 C2609 1.348 . S
C2606 H2638 0.929 . S
C2607 C2608 1.358 . S
C2607 C2609 1.356 . S
C2607 H2639 0.930 . S
C2608 N2605 1.279 . S
C2608 C2607 1.358 . S
C2608 H2611 0.930 . S
C2609 C2606 1.348 . S
C2609 C2607 1.356 . S
H2610 C2604 0.930 . S
H2611 C2608 0.930 . S
O2612 Li2552 1.956 . S
O2612 Li2553 1.970 . S
O2612 Li2554 1.961 . S
O2612 C2556 1.325 . S
O2613 Li2552 1.970 . S
O2613 Li2553 1.956 . S
O2613 Li2555 1.961 . S
O2613 C2562 1.325 . S
O2614 Li2552 1.961 . S
O2614 Li2554 1.956 . S
O2614 Li2555 1.970 . S
O2614 C2584 1.325 . S
O2615 Li2553 1.961 . S
O2615 Li2554 1.970 . S
O2615 Li2555 1.956 . S
O2615 C2590 1.325 . S
H2616 C2558 0.929 . S
H2617 C2559 0.930 . S
H2618 C2560 0.930 . S
H2619 C2561 0.930 . S
H2620 C2563 0.930 . S
H2621 C2565 0.929 . S
H2622 C2566 0.930 . S
H2623 C2567 0.930 . S
H2624 C2570 0.930 . S
H2625 C2573 0.929 . S
H2626 C2578 0.929 . S
H2627 C2579 0.930 . S
H2628 C2586 0.929 . S
H2629 C2587 0.930 . S
H2630 C2588 0.930 . S
H2631 C2589 0.930 . S
H2632 C2591 0.929 . S
H2633 C2592 0.930 . S
H2634 C2593 0.930 . S
H2635 C2594 0.930 . S
H2636 C2598 0.929 . S
H2637 C2600 0.930 . S
H2638 C2606 0.929 . S
H2639 C2607 0.930 . S
Li2640 N2657 1.990 . S
Li2640 O2700 1.956 . S
Li2640 O2701 1.970 . S
Li2640 O2702 1.961 . S
Li2641 N2665 1.990 . S
Li2641 O2700 1.970 . S
Li2641 O2701 1.956 . S
Li2641 O2703 1.961 . S
Li2642 N2687 1.990 . S
Li2642 O2700 1.961 . S
Li2642 O2702 1.956 . S
Li2642 O2703 1.970 . S
Li2643 N2693 1.990 . S
Li2643 O2701 1.961 . S
Li2643 O2702 1.970 . S
Li2643 O2703 1.956 . S
C2644 C2646 1.348 . S
C2644 C2647 1.356 . S
C2644 O2700 1.325 . S
N2645 C2648 1.314 . S
N2645 C2649 1.279 . S
C2646 C2644 1.348 . S
C2646 C2648 1.353 . S
C2646 H2704 0.929 . S
C2647 C2644 1.356 . S
C2647 C2649 1.358 . S
C2647 H2705 0.930 . S
C2648 N2645 1.314 . S
C2648 C2646 1.353 . S
C2648 H2706 0.930 . S
C2649 N2645 1.279 . S
C2649 C2647 1.358 . S
C2649 H2707 0.930 . S
C2650 C2653 1.348 . S
C2650 C2654 1.356 . S
C2650 O2701 1.325 . S
C2651 N2652 1.279 . S
C2651 C2654 1.358 . S
C2651 H2708 0.930 . S
N2652 C2651 1.279 . S
N2652 C2655 1.314 . S
C2653 C2650 1.348 . S
C2653 C2655 1.353 . S
C2653 H2709 0.929 . S
C2654 C2650 1.356 . S
C2654 C2651 1.358 . S
C2654 H2710 0.930 . S
C2655 N2652 1.314 . S
C2655 C2653 1.353 . S
C2655 H2711 0.930 . S
C2656 N2657 1.314 . S
C2656 C2661 1.353 . S
C2656 H2662 0.930 . S
N2657 Li2640 1.990 . S
N2657 C2656 1.314 . S
N2657 C2659 1.279 . S
C2658 C2659 1.358 . S
C2658 C2660 1.356 . S
C2658 H2712 0.930 . S
C2659 N2657 1.279 . S
C2659 C2658 1.358 . S
C2659 H2663 0.930 . S
C2660 C2658 1.356 . S
C2660 C2661 1.348 . S
C2661 C2656 1.353 . S
C2661 C2660 1.348 . S
C2661 H2713 0.929 . S
H2662 C2656 0.930 . S
H2663 C2659 0.930 . S
C2664 N2665 1.314 . S
C2664 C2666 1.353 . S
C2664 H2670 0.930 . S
N2665 Li2641 1.990 . S
N2665 C2664 1.314 . S
N2665 C2668 1.279 . S
C2666 C2664 1.353 . S
C2666 C2669 1.348 . S
C2666 H2714 0.929 . S
C2667 C2668 1.358 . S
C2667 C2669 1.356 . S
C2667 H2715 0.930 . S
C2668 N2665 1.279 . S
C2668 C2667 1.358 . S
C2668 H2671 0.930 . S
C2669 C2666 1.348 . S
C2669 C2667 1.356 . S
H2670 C2664 0.930 . S
H2671 C2668 0.930 . S
C2672 C2674 1.348 . S
C2672 C2675 1.356 . S
C2672 O2702 1.325 . S
N2673 C2676 1.314 . S
N2673 C2677 1.279 . S
C2674 C2672 1.348 . S
C2674 C2676 1.353 . S
C2674 H2716 0.929 . S
C2675 C2672 1.356 . S
C2675 C2677 1.358 . S
C2675 H2717 0.930 . S
C2676 N2673 1.314 . S
C2676 C2674 1.353 . S
C2676 H2718 0.930 . S
C2677 N2673 1.279 . S
C2677 C2675 1.358 . S
C2677 H2719 0.930 . S
C2678 C2679 1.348 . S
C2678 C2680 1.356 . S
C2678 O2703 1.325 . S
C2679 C2678 1.348 . S
C2679 C2681 1.353 . S
C2679 H2720 0.929 . S
C2680 C2678 1.356 . S
C2680 C2682 1.358 . S
C2680 H2721 0.930 . S
C2681 C2679 1.353 . S
C2681 N2683 1.314 . S
C2681 H2722 0.930 . S
C2682 C2680 1.358 . S
C2682 N2683 1.279 . S
C2682 H2723 0.930 . S
N2683 C2681 1.314 . S
N2683 C2682 1.279 . S
C2684 C2686 1.353 . S
C2684 N2687 1.314 . S
C2684 H2690 0.930 . S
C2685 N2687 1.279 . S
C2685 C2688 1.358 . S
C2685 H2691 0.930 . S
C2686 C2684 1.353 . S
C2686 C2689 1.348 . S
C2686 H2724 0.929 . S
N2687 Li2642 1.990 . S
N2687 C2684 1.314 . S
N2687 C2685 1.279 . S
C2688 C2685 1.358 . S
C2688 C2689 1.356 . S
C2688 H2725 0.930 . S
C2689 C2686 1.348 . S
C2689 C2688 1.356 . S
H2690 C2684 0.930 . S
H2691 C2685 0.930 . S
C2692 N2693 1.314 . S
C2692 C2694 1.353 . S
C2692 H2698 0.930 . S
N2693 Li2643 1.990 . S
N2693 C2692 1.314 . S
N2693 C2696 1.279 . S
C2694 C2692 1.353 . S
C2694 C2697 1.348 . S
C2694 H2726 0.929 . S
C2695 C2696 1.358 . S
C2695 C2697 1.356 . S
C2695 H2727 0.930 . S
C2696 N2693 1.279 . S
C2696 C2695 1.358 . S
C2696 H2699 0.930 . S
C2697 C2694 1.348 . S
C2697 C2695 1.356 . S
H2698 C2692 0.930 . S
H2699 C2696 0.930 . S
O2700 Li2640 1.956 . S
O2700 Li2641 1.970 . S
O2700 Li2642 1.961 . S
O2700 C2644 1.325 . S
O2701 Li2640 1.970 . S
O2701 Li2641 1.956 . S
O2701 Li2643 1.961 . S
O2701 C2650 1.325 . S
O2702 Li2640 1.961 . S
O2702 Li2642 1.956 . S
O2702 Li2643 1.970 . S
O2702 C2672 1.325 . S
O2703 Li2641 1.961 . S
O2703 Li2642 1.970 . S
O2703 Li2643 1.956 . S
O2703 C2678 1.325 . S
H2704 C2646 0.929 . S
H2705 C2647 0.930 . S
H2706 C2648 0.930 . S
H2707 C2649 0.930 . S
H2708 C2651 0.930 . S
H2709 C2653 0.929 . S
H2710 C2654 0.930 . S
H2711 C2655 0.930 . S
H2712 C2658 0.930 . S
H2713 C2661 0.929 . S
H2714 C2666 0.929 . S
H2715 C2667 0.930 . S
H2716 C2674 0.929 . S
H2717 C2675 0.930 . S
H2718 C2676 0.930 . S
H2719 C2677 0.930 . S
H2720 C2679 0.929 . S
H2721 C2680 0.930 . S
H2722 C2681 0.930 . S
H2723 C2682 0.930 . S
H2724 C2686 0.929 . S
H2725 C2688 0.930 . S
H2726 C2694 0.929 . S
H2727 C2695 0.930 . S
Li2728 N2745 1.990 . S
Li2728 O2788 1.956 . S
Li2728 O2789 1.970 . S
Li2728 O2790 1.961 . S
Li2729 N2753 1.990 . S
Li2729 O2788 1.970 . S
Li2729 O2789 1.956 . S
Li2729 O2791 1.961 . S
Li2730 N2775 1.990 . S
Li2730 O2788 1.961 . S
Li2730 O2790 1.956 . S
Li2730 O2791 1.970 . S
Li2731 N2781 1.990 . S
Li2731 O2789 1.961 . S
Li2731 O2790 1.970 . S
Li2731 O2791 1.956 . S
C2732 C2734 1.348 . S
C2732 C2735 1.356 . S
C2732 O2788 1.325 . S
N2733 C2736 1.314 . S
N2733 C2737 1.279 . S
C2734 C2732 1.348 . S
C2734 C2736 1.353 . S
C2734 H2792 0.929 . S
C2735 C2732 1.356 . S
C2735 C2737 1.358 . S
C2735 H2793 0.930 . S
C2736 N2733 1.314 . S
C2736 C2734 1.353 . S
C2736 H2794 0.930 . S
C2737 N2733 1.279 . S
C2737 C2735 1.358 . S
C2737 H2795 0.930 . S
C2738 C2741 1.348 . S
C2738 C2742 1.356 . S
C2738 O2789 1.325 . S
C2739 N2740 1.279 . S
C2739 C2742 1.358 . S
C2739 H2796 0.930 . S
N2740 C2739 1.279 . S
N2740 C2743 1.314 . S
C2741 C2738 1.348 . S
C2741 C2743 1.353 . S
C2741 H2797 0.929 . S
C2742 C2738 1.356 . S
C2742 C2739 1.358 . S
C2742 H2798 0.930 . S
C2743 N2740 1.314 . S
C2743 C2741 1.353 . S
C2743 H2799 0.930 . S
C2744 N2745 1.314 . S
C2744 C2749 1.353 . S
C2744 H2750 0.930 . S
N2745 Li2728 1.990 . S
N2745 C2744 1.314 . S
N2745 C2747 1.279 . S
C2746 C2747 1.358 . S
C2746 C2748 1.356 . S
C2746 H2800 0.930 . S
C2747 N2745 1.279 . S
C2747 C2746 1.358 . S
C2747 H2751 0.930 . S
C2748 C2746 1.356 . S
C2748 C2749 1.348 . S
C2749 C2744 1.353 . S
C2749 C2748 1.348 . S
C2749 H2801 0.929 . S
H2750 C2744 0.930 . S
H2751 C2747 0.930 . S
C2752 N2753 1.314 . S
C2752 C2754 1.353 . S
C2752 H2758 0.930 . S
N2753 Li2729 1.990 . S
N2753 C2752 1.314 . S
N2753 C2756 1.279 . S
C2754 C2752 1.353 . S
C2754 C2757 1.348 . S
C2754 H2802 0.929 . S
C2755 C2756 1.358 . S
C2755 C2757 1.356 . S
C2755 H2803 0.930 . S
C2756 N2753 1.279 . S
C2756 C2755 1.358 . S
C2756 H2759 0.930 . S
C2757 C2754 1.348 . S
C2757 C2755 1.356 . S
H2758 C2752 0.930 . S
H2759 C2756 0.930 . S
C2760 C2762 1.348 . S
C2760 C2763 1.356 . S
C2760 O2790 1.325 . S
N2761 C2764 1.314 . S
N2761 C2765 1.279 . S
C2762 C2760 1.348 . S
C2762 C2764 1.353 . S
C2762 H2804 0.929 . S
C2763 C2760 1.356 . S
C2763 C2765 1.358 . S
C2763 H2805 0.930 . S
C2764 N2761 1.314 . S
C2764 C2762 1.353 . S
C2764 H2806 0.930 . S
C2765 N2761 1.279 . S
C2765 C2763 1.358 . S
C2765 H2807 0.930 . S
C2766 C2767 1.348 . S
C2766 C2768 1.356 . S
C2766 O2791 1.325 . S
C2767 C2766 1.348 . S
C2767 C2769 1.353 . S
C2767 H2808 0.929 . S
C2768 C2766 1.356 . S
C2768 C2770 1.358 . S
C2768 H2809 0.930 . S
C2769 C2767 1.353 . S
C2769 N2771 1.314 . S
C2769 H2810 0.930 . S
C2770 C2768 1.358 . S
C2770 N2771 1.279 . S
C2770 H2811 0.930 . S
N2771 C2769 1.314 . S
N2771 C2770 1.279 . S
C2772 C2774 1.353 . S
C2772 N2775 1.314 . S
C2772 H2778 0.930 . S
C2773 N2775 1.279 . S
C2773 C2776 1.358 . S
C2773 H2779 0.930 . S
C2774 C2772 1.353 . S
C2774 C2777 1.348 . S
C2774 H2812 0.929 . S
N2775 Li2730 1.990 . S
N2775 C2772 1.314 . S
N2775 C2773 1.279 . S
C2776 C2773 1.358 . S
C2776 C2777 1.356 . S
C2776 H2813 0.930 . S
C2777 C2774 1.348 . S
C2777 C2776 1.356 . S
H2778 C2772 0.930 . S
H2779 C2773 0.930 . S
C2780 N2781 1.314 . S
C2780 C2782 1.353 . S
C2780 H2786 0.930 . S
N2781 Li2731 1.990 . S
N2781 C2780 1.314 . S
N2781 C2784 1.279 . S
C2782 C2780 1.353 . S
C2782 C2785 1.348 . S
C2782 H2814 0.929 . S
C2783 C2784 1.358 . S
C2783 C2785 1.356 . S
C2783 H2815 0.930 . S
C2784 N2781 1.279 . S
C2784 C2783 1.358 . S
C2784 H2787 0.930 . S
C2785 C2782 1.348 . S
C2785 C2783 1.356 . S
H2786 C2780 0.930 . S
H2787 C2784 0.930 . S
O2788 Li2728 1.956 . S
O2788 Li2729 1.970 . S
O2788 Li2730 1.961 . S
O2788 C2732 1.325 . S
O2789 Li2728 1.970 . S
O2789 Li2729 1.956 . S
O2789 Li2731 1.961 . S
O2789 C2738 1.325 . S
O2790 Li2728 1.961 . S
O2790 Li2730 1.956 . S
O2790 Li2731 1.970 . S
O2790 C2760 1.325 . S
O2791 Li2729 1.961 . S
O2791 Li2730 1.970 . S
O2791 Li2731 1.956 . S
O2791 C2766 1.325 . S
H2792 C2734 0.929 . S
H2793 C2735 0.930 . S
H2794 C2736 0.930 . S
H2795 C2737 0.930 . S
H2796 C2739 0.930 . S
H2797 C2741 0.929 . S
H2798 C2742 0.930 . S
H2799 C2743 0.930 . S
H2800 C2746 0.930 . S
H2801 C2749 0.929 . S
H2802 C2754 0.929 . S
H2803 C2755 0.930 . S
H2804 C2762 0.929 . S
H2805 C2763 0.930 . S
H2806 C2764 0.930 . S
H2807 C2765 0.930 . S
H2808 C2767 0.929 . S
H2809 C2768 0.930 . S
H2810 C2769 0.930 . S
H2811 C2770 0.930 . S
H2812 C2774 0.929 . S
H2813 C2776 0.930 . S
H2814 C2782 0.929 . S
H2815 C2783 0.930 . S
C409 C29 1.594 1_565 S
C497 C117 1.594 . S
C577 C205 1.594 1_545 S
C284 C665 1.594 1_556 S
C724 C1113 1.581 1_565 S
C1173 C841 1.581 . S
C929 C1261 1.581 1_545 S
C1349 C1017 1.581 1_556 S
C1428 C1817 1.594 . S
C1897 C1525 1.594 1_554 S
C1985 C1604 1.594 . S
C2081 C1692 1.594 . S
C2132 C2513 1.581 . S
C2249 C2581 1.581 1_554 S
C2337 C2660 1.581 . S
C2433 C2757 1.581 . S
C49 C645 1.662 . S
C137 C372 1.662 . S
C225 C460 1.662 . S
C557 C321 1.662 . S
C1340 C733 1.649 . S
C1105 C849 1.649 . S
C1164 C937 1.649 . S
C1025 C1252 1.649 . S
C2044 C1465 1.662 . S
C1780 C1545 1.662 . S
C1877 C1641 1.662 . S
C1729 C1965 1.662 . S
C2141 C2748 1.649 . S
C2257 C2521 1.649 . S
C2345 C2572 1.649 . S
C2669 C2425 1.649 . S
C57 C2229 2.155 . S
C145 C909 2.155 . S
C233 C2396 2.155 . S
C761 C313 2.155 . S
C2777 C381 2.155 . S
C469 C1076 2.155 . S
C548 C2601 2.155 . S
C636 C1281 2.155 . S
C1516 C753 2.166 . S
C196 C812 2.166 . S
C1701 C900 2.166 . S
C988 C20 2.166 . S
C2073 C1085 2.166 . S
C401 C1201 2.166 . S
C1905 C1289 2.166 . S
C585 C1377 2.166 . S
C821 C1457 2.155 . S
C1553 C2317 2.155 . S
C1633 C997 2.155 . S
C1721 C2169 2.155 . S
C1789 C1369 2.155 . S
C2493 C1868 2.155 . S
C1956 C1193 2.155 . S
C2053 C2697 2.155 . S
C2161 C108 2.166 . S
C2220 C1613 2.166 . S
C293 C2308 2.166 . S
C1437 C2405 2.166 . S
C2484 C673 2.166 . S
C2609 C1809 2.166 . S
C489 C2689 2.166 . S
C1993 C2785 2.166 . S
