# Generated by pormake.
# Topology tfs, (6)-cn, num edge types: 1
# Building blocks:
#     Node 0, Type 0, BuildingBlock: VOLQOD_clean_sbu_1, # of connection points: 6
#     Node 1, Type 0, BuildingBlock: VOLQOD_clean_sbu_1, # of connection points: 6
#     Node 2, Type 0, BuildingBlock: VOLQOD_clean_sbu_1, # of connection points: 6
#     Node 3, Type 0, BuildingBlock: VOLQOD_clean_sbu_1, # of connection points: 6
#     Node 4, Type 0, BuildingBlock: VOLQOD_clean_sbu_1, # of connection points: 6
#     Node 5, Type 0, BuildingBlock: VOLQOD_clean_sbu_1, # of connection points: 6
#     Edge 6, Type (0, 0), BuildingBlock: UVAHIK_clean_linker_0, # of connection points: 2
#     Edge 7, Type (0, 0), BuildingBlock: UVAHIK_clean_linker_0, # of connection points: 2
#     Edge 8, Type (0, 0), BuildingBlock: UVAHIK_clean_linker_0, # of connection points: 2
#     Edge 9, Type (0, 0), BuildingBlock: UVAHIK_clean_linker_0, # of connection points: 2
#     Edge 10, Type (0, 0), BuildingBlock: UVAHIK_clean_linker_0, # of connection points: 2
#     Edge 11, Type (0, 0), BuildingBlock: UVAHIK_clean_linker_0, # of connection points: 2
#     Edge 12, Type (0, 0), BuildingBlock: UVAHIK_clean_linker_0, # of connection points: 2
#     Edge 13, Type (0, 0), BuildingBlock: UVAHIK_clean_linker_0, # of connection points: 2
#     Edge 14, Type (0, 0), BuildingBlock: UVAHIK_clean_linker_0, # of connection points: 2
#     Edge 15, Type (0, 0), BuildingBlock: UVAHIK_clean_linker_0, # of connection points: 2
#     Edge 16, Type (0, 0), BuildingBlock: UVAHIK_clean_linker_0, # of connection points: 2
#     Edge 17, Type (0, 0), BuildingBlock: UVAHIK_clean_linker_0, # of connection points: 2
#     Edge 18, Type (0, 0), BuildingBlock: UVAHIK_clean_linker_0, # of connection points: 2
#     Edge 19, Type (0, 0), BuildingBlock: UVAHIK_clean_linker_0, # of connection points: 2
#     Edge 20, Type (0, 0), BuildingBlock: UVAHIK_clean_linker_0, # of connection points: 2
#     Edge 21, Type (0, 0), BuildingBlock: UVAHIK_clean_linker_0, # of connection points: 2
#     Edge 22, Type (0, 0), BuildingBlock: UVAHIK_clean_linker_0, # of connection points: 2
#     Edge 23, Type (0, 0), BuildingBlock: UVAHIK_clean_linker_0, # of connection points: 2
# Relax obj value: 0.115
# Max RMSD: 0.091
# Mean RMSD: 0.091
data_MOF--net-tfs--node1-VOLQOD_clean_sbu_1--edge1-UVAHIK_clean_linker_0
_symmetry_space_group_name_H-M    P1
_symmetry_Int_Tables_number       1
_symmetry_cell_setting            triclinic
loop_
_symmetry_equiv_pos_as_xyz
'x, y, z'
_cell_length_a     58.044229
_cell_length_b     58.016799
_cell_length_c     21.667645
_cell_angle_alpha  90.034541
_cell_angle_beta   90.041343
_cell_angle_gamma 120.00538
loop_
_atom_site_label
_atom_site_type_symbol
_atom_site_fract_x
_atom_site_fract_y
_atom_site_fract_z
_atom_type_partial_charge
O0 O 0.2411 0.46364 0.93927 0.0
Zn1 Zn 0.20159 0.44525 0.92597 0.0
O2 O 0.1825 0.41568 0.98214 0.0
Zn3 Zn 0.16475 0.38238 0.935 0.0
Zn4 Zn 0.20799 0.41494 0.03891 0.0
Zn5 Zn 0.15636 0.4206 0.02857 0.0
O6 O 0.12554 0.36279 0.95209 0.0
O7 O 0.1194 0.39092 0.0099 0.0
O8 O 0.19379 0.43344 0.83829 0.0
O9 O 0.16858 0.38951 0.84364 0.0
O10 O 0.17948 0.35829 0.95556 0.0
O11 O 0.20865 0.3812 0.02924 0.0
O12 O 0.19815 0.41628 0.12637 0.0
O13 O 0.19068 0.47249 0.93821 0.0
O14 O 0.16161 0.41931 0.12004 0.0
O15 O 0.15904 0.45601 0.00955 0.0
C16 C 0.25552 0.46193 0.98124 0.0
C17 C 0.11026 0.36896 0.98083 0.0
C18 C 0.19678 0.36068 -0.00487 0.0
C19 C 0.18047 0.41087 0.81226 0.0
C20 C 0.17915 0.41764 0.1519 0.0
C21 C 0.17386 0.47444 0.97211 0.0
O22 O 0.24533 0.44476 0.02413 0.0
O23 O 0.75692 0.23661 0.93961 0.0
Zn24 Zn 0.74007 0.19694 0.93014 0.0
O25 O 0.75476 0.18212 -0.01223 0.0
Zn26 Zn 0.77305 0.16683 0.94151 0.0
Zn27 Zn 0.78012 0.21044 0.04085 0.0
Zn28 Zn 0.72602 0.15521 0.03869 0.0
O29 O 0.75734 0.12812 0.96265 0.0
O30 O 0.72442 0.12005 0.02778 0.0
O31 O 0.74443 0.18872 0.84309 0.0
O32 O 0.76865 0.16893 0.84995 0.0
O33 O 0.81263 0.18619 0.95896 0.0
O34 O 0.81646 0.21637 0.02732 0.0
O35 O 0.7719 0.2016 0.13005 0.0
O36 O 0.70126 0.18146 0.94375 0.0
O37 O 0.73305 0.16398 0.1288 0.0
O38 O 0.69024 0.15184 0.01899 0.0
C39 C 0.77258 0.25292 0.97987 0.0
C40 C 0.73814 0.11239 -0.00274 0.0
C41 C 0.82679 0.20575 -0.00547 0.0
C42 C 0.75635 0.17779 0.81805 0.0
C43 C 0.75236 0.18268 0.15804 0.0
C44 C 0.68397 0.16401 0.97941 0.0
O45 O 0.78208 0.24531 0.02308 0.0
O46 O 0.51614 0.76214 0.95375 0.0
Zn47 Zn 0.5375 0.7438 0.94095 0.0
O48 O 0.56778 0.75747 -0.00364 0.0
Zn49 Zn 0.60085 0.7769 0.94915 0.0
Zn50 Zn 0.56536 0.78169 0.05404 0.0
Zn51 Zn 0.56694 0.72783 0.0414 0.0
O52 O 0.62481 0.7621 0.96698 0.0
O53 O 0.5992 0.72498 0.01972 0.0
O54 O 0.54925 0.74783 0.8531 0.0
O55 O 0.59333 0.77241 0.85755 0.0
O56 O 0.62065 0.81626 0.96837 0.0
O57 O 0.59468 0.81873 0.04004 0.0
O58 O 0.56813 0.77218 0.14131 0.0
O59 O 0.51314 0.70491 0.95451 0.0
O60 O 0.56804 0.73393 0.13334 0.0
O61 O 0.53358 0.69285 0.02294 0.0
C62 C 0.51541 0.77618 -0.00187 0.0
C63 C 0.62101 0.74076 -0.00727 0.0
C64 C 0.61511 0.82974 0.00564 0.0
C65 C 0.57184 0.75978 0.82677 0.0
C66 C 0.56884 0.75262 0.16583 0.0
C67 C 0.51397 0.68716 -0.0127 0.0
O68 O 0.53198 0.78339 0.04248 0.0
O69 O 0.74293 0.52542 0.92761 0.0
Zn70 Zn 0.7821 0.54423 0.91197 0.0
O71 O 0.80137 0.57424 0.96724 0.0
Zn72 Zn 0.81951 0.60704 0.91869 0.0
Zn73 Zn 0.77593 0.5756 0.02379 0.0
Zn74 Zn 0.82762 0.56972 0.01403 0.0
O75 O 0.85872 0.6273 0.93708 0.0
O76 O 0.86452 0.59951 -0.00326 0.0
O77 O 0.78812 0.55553 0.8238 0.0
O78 O 0.816 0.59914 0.82767 0.0
O79 O 0.80411 0.63073 0.93612 0.0
O80 O 0.77596 0.60987 0.01312 0.0
O81 O 0.78522 0.57337 0.11157 0.0
O82 O 0.7938 0.51742 0.92325 0.0
O83 O 0.82205 0.57076 0.10518 0.0
O84 O 0.82547 0.53465 -0.00541 0.0
C85 C 0.72835 0.52769 0.96817 0.0
C86 C 0.87383 0.62135 0.96734 0.0
C87 C 0.78748 0.62946 0.97621 0.0
C88 C 0.80242 0.57775 0.79714 0.0
C89 C 0.80421 0.5719 0.13691 0.0
C90 C 0.81093 0.516 0.95724 0.0
O91 O 0.73833 0.54574 0.00934 0.0
O92 O 0.22717 0.75425 0.93774 0.0
Zn93 Zn 0.24401 0.79367 0.9259 0.0
O94 O 0.22979 0.80925 0.98251 0.0
Zn95 Zn 0.211 0.82372 0.93575 0.0
Zn96 Zn 0.20517 0.78161 0.03805 0.0
Zn97 Zn 0.25891 0.83736 0.0301 0.0
O98 O 0.22535 0.86221 0.95693 0.0
O99 O 0.2611 0.87248 0.01398 0.0
O100 O 0.23913 0.8009 0.83847 0.0
O101 O 0.21635 0.82218 0.84441 0.0
O102 O 0.17144 0.8033 0.9523 0.0
O103 O 0.16837 0.77481 0.02453 0.0
O104 O 0.21449 0.79214 0.12633 0.0
O105 O 0.28291 0.80888 0.93931 0.0
O106 O 0.25208 0.83088 0.12092 0.0
O107 O 0.29426 0.83962 0.0121 0.0
C108 C 0.21243 0.73852 0.97986 0.0
C109 C 0.24586 0.87912 -0.01343 0.0
C110 C 0.15761 0.78435 -0.01046 0.0
C111 C 0.22798 0.8125 0.81279 0.0
C112 C 0.23365 0.81228 0.15231 0.0
C113 C 0.30032 0.82668 0.97429 0.0
O114 O 0.20361 0.74666 0.02344 0.0
O115 O 0.46442 0.22439 0.95014 0.0
Zn116 Zn 0.44378 0.24326 0.93745 0.0
O117 O 0.41347 0.22982 -0.00788 0.0
Zn118 Zn 0.38095 0.2119 0.94264 0.0
Zn119 Zn 0.41442 0.20418 0.0484 0.0
Zn120 Zn 0.41516 0.25964 0.0389 0.0
O121 O 0.35805 0.22775 0.96033 0.0
O122 O 0.38216 0.26202 0.02268 0.0
O123 O 0.43287 0.23983 0.84921 0.0
O124 O 0.38876 0.21627 0.85165 0.0
O125 O 0.3595 0.17273 0.96114 0.0
O126 O 0.3826 0.16815 0.03687 0.0
O127 O 0.41406 0.2145 0.13615 0.0
O128 O 0.46833 0.28188 0.9516 0.0
O129 O 0.41582 0.25359 0.13007 0.0
O130 O 0.44839 0.29484 0.01927 0.0
C131 C 0.46382 0.20849 -0.00859 0.0
C132 C 0.36101 0.24759 -0.00824 0.0
C133 C 0.36264 0.15835 0.00078 0.0
C134 C 0.4105 0.22847 0.82187 0.0
C135 C 0.41485 0.23463 0.16164 0.0
C136 C 0.46783 0.3 0.98361 0.0
O137 O 0.44642 0.20003 0.03405 0.0
C138 C 0.31778 0.24105 0.95125 0.0
C139 C 0.33906 0.25351 -0.0068 0.0
C140 C 0.29685 0.24637 0.95287 0.0
C141 C 0.26351 0.27165 0.05314 0.0
H142 H 0.24581 0.29451 0.90103 0.0
C143 C 0.22148 0.34156 0.04819 0.0
C144 C 0.20458 0.34011 5e-05 0.0
C145 C 0.23168 0.32438 0.0496 0.0
C146 C 0.24994 0.28752 0.94366 0.0
H147 H 0.35491 0.28106 0.07021 0.0
H148 H 0.3183 0.29031 0.07298 0.0
H149 H 0.2764 0.27726 0.89864 0.0
H150 H 0.18376 0.31838 0.91766 0.0
H151 H 0.2016 0.28809 0.92036 0.0
H152 H 0.23758 0.28247 0.09847 0.0
C153 C 0.3178 0.27632 0.03913 0.0
C154 C 0.26757 0.27776 0.94228 0.0
C155 C 0.33887 0.27122 0.03714 0.0
C156 C 0.19689 0.32009 0.95513 0.0
C157 C 0.20717 0.30284 0.95652 0.0
C158 C 0.24571 0.28118 0.05447 0.0
C159 C 0.29667 0.264 -0.0031 0.0
C160 C 0.27517 0.27061 -0.00272 0.0
C161 C 0.22518 0.30526 0.00301 0.0
C162 C 0.2395 0.29012 6e-05 0.0
H163 H 0.31733 0.22728 0.91681 0.0
H164 H 0.28075 0.23661 0.91991 0.0
H165 H 0.26871 0.26577 0.09601 0.0
H166 H 0.22764 0.3566 0.08387 0.0
H167 H 0.24576 0.32707 0.08561 0.0
C168 C 0.06434 0.3552 0.01737 0.0
C169 C 0.08127 0.35024 0.98043 0.0
C170 C 0.03696 0.33776 0.01669 0.0
C171 C 0.98541 0.26924 0.97635 0.0
H172 H 0.93964 0.3001 0.9818 0.0
C173 C 0.86936 0.2106 0.95222 0.0
C174 C 0.85605 0.2179 -0.00462 0.0
C175 C 0.89719 0.22471 0.94908 0.0
C176 C 0.9522 0.29121 0.98054 0.0
H177 H 0.0827 0.32293 0.91403 0.0
H178 H 0.03472 0.29268 0.91216 0.0
H179 H 0.98761 0.32916 0.97709 0.0
H180 H 0.86156 0.24456 0.07166 0.0
H181 H 0.90972 0.26894 0.06585 0.0
H182 H 0.94959 0.23117 0.97944 0.0
C183 C 0.04274 0.30989 0.94225 0.0
C184 C 0.97965 0.30783 0.97805 0.0
C185 C 0.0702 0.32731 0.94312 0.0
C186 C 0.8711 0.23861 0.03723 0.0
C187 C 0.89871 0.25267 0.03388 0.0
C188 C 0.95779 0.25254 0.97843 0.0
C189 C 0.02582 0.31504 0.97875 0.0
C190 C -0.00339 0.29708 0.97717 0.0
C191 C 0.91198 0.24634 -0.01119 0.0
C192 C 0.94104 0.26346 0.9818 0.0
H193 H 0.07221 0.37253 0.04707 0.0
H194 H 0.02451 0.34201 0.0463 0.0
H195 H -0.00201 0.26038 0.97599 0.0
H196 H 0.85832 0.19468 0.9195 0.0
H197 H 0.90706 0.21946 0.914 0.0
C198 C 0.73114 0.07022 0.94996 0.0
C199 C 0.73157 0.08454 0.00247 0.0
C200 C 0.72288 0.04317 0.95447 0.0
C201 C 0.68441 0.98587 0.05985 0.0
H202 H 0.70438 0.94944 0.93983 0.0
C203 C 0.62006 0.87415 0.02441 0.0
C204 C 0.6317 0.85894 0.00753 0.0
C205 C 0.63519 0.90176 0.02659 0.0
C206 C 0.6989 0.95928 0.97448 0.0
H207 H 0.72569 0.08277 0.10131 0.0
H208 H 0.71312 0.03615 0.11035 0.0
H209 H 0.72749 -0.00221 0.94109 0.0
H210 H 0.66832 0.86055 0.97975 0.0
H211 H 0.69533 0.9091 -0.01371 0.0
H212 H 0.65687 0.9476 0.09539 0.0
C213 C 0.71762 0.04511 0.06495 0.0
C214 C 0.71186 0.98709 0.97452 0.0
C215 C 0.72502 0.07189 0.06003 0.0
C216 C 0.65888 0.87189 -0.00723 0.0
C217 C 0.67427 0.89967 -0.00374 0.0
C218 C 0.67199 0.95822 0.06081 0.0
C219 C 0.71564 0.03011 0.01199 0.0
C220 C 0.70427 0.00075 0.01614 0.0
C221 C 0.66257 0.91494 0.01343 0.0
C222 C 0.67839 0.94448 0.01685 0.0
H223 H 0.73609 0.07968 0.90503 0.0
H224 H 0.72125 0.03239 0.91241 0.0
H225 H 0.67759 -0.00464 0.09225 0.0
H226 H 0.59903 0.86472 0.03497 0.0
H227 H 0.62519 0.91274 0.03788 0.0
C228 C 0.78038 0.6636 0.92301 0.0
C229 C 0.77958 0.64995 0.97723 0.0
C230 C 0.76871 0.67961 0.92161 0.0
C231 C 0.7196 0.68635 0.92744 0.0
H232 H 0.72671 0.73766 0.05189 0.0
C233 C 0.63599 0.70725 -0.00629 0.0
C234 C 0.64226 0.73393 -0.01013 0.0
C235 C 0.65596 0.70067 -0.01163 0.0
C236 C 0.72476 0.72356 0.01659 0.0
H237 H 0.76801 0.64396 0.07361 0.0
H238 H 0.74814 0.67239 0.07139 0.0
H239 H 0.75859 0.72153 0.04948 0.0
H240 H 0.67432 0.77469 0.97904 0.0
H241 H 0.70942 0.76307 0.97175 0.0
H242 H 0.68495 0.68721 0.89675 0.0
C243 C 0.75752 0.6705 0.02998 0.0
C244 C 0.74288 0.71437 0.01524 0.0
C245 C 0.7687 0.65411 0.0311 0.0
C246 C 0.66893 0.75395 0.98186 0.0
C247 C 0.68899 0.74738 0.97786 0.0
C248 C 0.70123 0.69514 0.92957 0.0
C249 C 0.75664 0.68264 0.97474 0.0
C250 C 0.74018 0.69541 0.97117 0.0
C251 C 0.68256 0.72068 0.98038 0.0
C252 C 0.70343 0.71345 0.97475 0.0
H253 H 0.78862 0.66071 0.88081 0.0
H254 H 0.76825 0.68885 0.87854 0.0
H255 H 0.71695 0.67148 0.89353 0.0
H256 H 0.61561 0.69142 -0.00039 0.0
H257 H 0.65067 0.67994 -0.00912 0.0
C258 C 0.1133 0.75081 0.03112 0.0
C259 C 0.12829 0.77171 -0.01022 0.0
C260 C 0.08567 0.73664 0.02753 0.0
C261 C 0.02667 0.73719 0.97092 0.0
H262 H -0.00381 0.66049 0.9713 0.0
C263 C 0.91432 0.66294 0.93094 0.0
C264 C 0.90282 0.64011 0.96846 0.0
C265 C 0.94183 0.68026 0.93144 0.0
C266 C 0.00433 0.68185 0.97179 0.0
H267 H 0.12588 0.79502 0.91433 0.0
H268 H 0.07722 0.77007 0.90835 0.0
H269 H 0.04418 0.68919 0.97742 0.0
H270 H 0.91113 0.61795 0.03704 0.0
H271 H 0.95883 0.64827 0.03859 0.0
H272 H 0.98663 0.72973 0.96631 0.0
C273 C 0.08709 0.76476 0.9433 0.0
C274 C 0.03181 0.69827 0.97516 0.0
C275 C 0.1149 0.77896 0.94669 0.0
C276 C 0.91933 0.63519 0.00709 0.0
C277 C 0.94673 0.65252 0.00776 0.0
C278 C -0.00097 0.72069 0.96791 0.0
C279 C 0.07233 0.74305 0.98272 0.0
C280 C 0.04322 0.72606 0.97569 0.0
C281 C 0.95833 0.67509 0.96953 0.0
C282 C 0.98759 0.69284 0.96924 0.0
H283 H 0.12289 0.74485 0.06539 0.0
H284 H 0.0747 0.72031 0.05927 0.0
H285 H 0.03504 0.75858 0.97138 0.0
H286 H 0.90215 0.66728 0.9006 0.0
H287 H 0.95021 0.69738 0.90113 0.0
C288 C 0.27092 0.92467 0.03241 0.0
C289 C 0.25194 0.90703 -0.00994 0.0
C290 C 0.27679 0.95105 0.03586 0.0
C291 C 0.27781 0.0036 0.94348 0.0
H292 H 0.28869 0.03894 0.10168 0.0
C293 C 0.32241 0.11723 0.96116 0.0
C294 C 0.34338 0.12951 0.0039 0.0
C295 C 0.30556 0.08963 0.96182 0.0
C296 C 0.28572 0.02934 0.05715 0.0
H297 H 0.2241 0.90319 0.9183 0.0
H298 H 0.23474 0.94958 0.92388 0.0
H299 H 0.26985 0.99077 0.09797 0.0
H300 H 0.36242 0.12255 0.08235 0.0
H301 H 0.33348 0.0747 0.08278 0.0
H302 H 0.29487 0.04224 0.90272 0.0
C303 C 0.24493 0.94283 0.95446 0.0
C304 C 0.27492 0.00182 0.05508 0.0
C305 C 0.23884 0.91631 0.95141 0.0
C306 C 0.34654 0.11377 0.04859 0.0
C307 C 0.32975 0.08629 0.04925 0.0
C308 C 0.28878 0.03118 0.94556 0.0
C309 C 0.26396 0.96041 -0.00327 0.0
C310 C 0.27161 0.98882 -0.00165 0.0
C311 C 0.30932 0.07385 0.00535 0.0
C312 C 0.29359 0.04441 0.00255 0.0
H313 H 0.2813 0.91815 0.06299 0.0
H314 H 0.29184 0.96431 0.06825 0.0
H315 H 0.2756 0.99405 0.89916 0.0
H316 H 0.31935 0.12882 0.92634 0.0
H317 H 0.28982 0.08059 0.92776 0.0
C318 C 0.21527 0.70108 0.93033 0.0
C319 C 0.2057 0.71034 0.97827 0.0
C320 C 0.20959 0.67472 0.92942 0.0
C321 C 0.1642 0.60773 -0.00937 0.0
H322 H 0.22246 0.59579 0.95002 0.0
C323 C 0.16009 0.50583 0.01604 0.0
C324 C 0.1728 0.49935 0.96957 0.0
C325 C 0.16182 0.53077 0.01648 0.0
C326 C 0.20589 0.59874 0.96071 0.0
H327 H 0.18222 0.69898 0.06233 0.0
H328 H 0.17254 0.6529 0.06088 0.0
H329 H 0.23005 0.64094 0.95249 0.0
H330 H 0.1958 0.51327 0.88503 0.0
H331 H 0.19844 0.55636 0.88545 0.0
H332 H 0.14008 0.56533 -0.00101 0.0
C333 C 0.18424 0.66607 0.02379 0.0
C334 C 0.21025 0.62462 0.96215 0.0
C335 C 0.18994 0.69249 0.02476 0.0
C336 C 0.18612 0.51775 0.92206 0.0
C337 C 0.18775 0.54252 0.92239 0.0
C338 C 0.15982 0.58173 -0.01084 0.0
C339 C 0.19425 0.657 0.97642 0.0
C340 C 0.18943 0.6294 0.97656 0.0
C341 C 0.17623 0.54958 0.9704 0.0
C342 C 0.18058 0.57699 0.97356 0.0
H343 H 0.22731 0.7142 0.89354 0.0
H344 H 0.21722 0.66819 0.89175 0.0
H345 H 0.14775 0.61084 0.00153 0.0
H346 H 0.14965 0.49205 0.05325 0.0
H347 H 0.1528 0.53571 0.05416 0.0
C348 C 0.48649 0.18557 0.03895 0.0
C349 C 0.48377 0.19975 -0.01049 0.0
C350 C 0.50599 0.17815 0.03749 0.0
C351 C 0.57001 0.19718 0.9627 0.0
H352 H 0.55846 0.12923 0.0229 0.0
C353 C 0.64841 0.16775 0.92431 0.0
C354 C 0.65668 0.15973 0.97698 0.0
C355 C 0.62482 0.1685 0.92484 0.0
C356 C 0.56193 0.1483 0.00627 0.0
H357 H 0.49876 0.21634 0.89881 0.0
H358 H 0.5323 0.20305 0.89587 0.0
H359 H 0.52201 0.13907 0.02616 0.0
H360 H 0.64575 0.14426 0.06996 0.0
H361 H 0.60431 0.14583 0.07105 0.0
H362 H 0.60973 0.20652 0.94275 0.0
C363 C 0.51983 0.1982 0.93644 0.0
C364 C 0.54114 0.15398 0.00824 0.0
C365 C 0.50051 0.20575 0.93804 0.0
C366 C 0.63986 0.15057 0.02875 0.0
C367 C 0.61618 0.15145 0.02936 0.0
C368 C 0.5906 0.19148 0.96047 0.0
C369 C 0.52309 0.18468 -0.01352 0.0
C370 C 0.54495 0.17842 -0.01407 0.0
C371 C 0.60902 0.16141 0.97816 0.0
C372 C 0.58675 0.16693 0.98163 0.0
H373 H 0.47387 0.18062 0.07928 0.0
H374 H 0.50814 0.16793 0.07697 0.0
H375 H 0.57385 0.21647 0.94672 0.0
H376 H 0.6607 0.17448 0.8833 0.0
H377 H 0.61945 0.17564 0.88419 0.0
C378 C 0.47232 0.65229 0.93708 0.0
C379 C 0.49124 0.65964 -0.01545 0.0
C380 C 0.4498 0.62704 0.93612 0.0
C381 C 0.40554 0.57389 0.03937 0.0
H382 H 0.37527 0.5362 0.88604 0.0
C383 C 0.30093 0.48032 0.02826 0.0
C384 C 0.28458 0.48059 0.98061 0.0
C385 C 0.3282 0.49872 0.02869 0.0
C386 C 0.38346 0.5465 0.92923 0.0
H387 H 0.50173 0.64591 0.06732 0.0
H388 H 0.462 0.6016 0.06584 0.0
H389 H 0.42017 0.57463 0.8867 0.0
H390 H 0.28425 0.50007 0.89536 0.0
H391 H 0.33157 0.53221 0.89655 0.0
H392 H 0.36847 0.5464 0.08147 0.0
C393 C 0.46474 0.61555 0.02949 0.0
C394 C 0.40916 0.56845 0.92962 0.0
C395 C 0.48749 0.64085 0.03017 0.0
C396 C 0.29621 0.49928 0.9328 0.0
C397 C 0.32342 0.51759 0.93319 0.0
C398 C 0.37979 0.55194 0.03897 0.0
C399 C 0.44554 0.60853 0.98276 0.0
C400 C 0.42017 0.58283 -0.01567 0.0
C401 C 0.33969 0.51768 0.98137 0.0
C402 C 0.3682 0.5385 0.98352 0.0
H403 H 0.47464 0.66622 0.90102 0.0
H404 H 0.43521 0.62237 0.89997 0.0
H405 H 0.41341 0.58473 0.08212 0.0
H406 H 0.29264 0.46612 0.0657 0.0
H407 H 0.34027 0.49818 0.06618 0.0
C408 C 0.82817 0.48704 -0.00139 0.0
C409 C 0.81287 0.49153 0.95505 0.0
C410 C 0.82803 0.46287 -0.00066 0.0
C411 C 0.81047 0.4028 0.90594 0.0
H412 H 0.79843 0.36789 0.06482 0.0
C413 C 0.7696 0.29018 0.92936 0.0
C414 C 0.78009 0.2813 0.9761 0.0
C415 C 0.77668 0.31695 0.92582 0.0
C416 C 0.80221 0.37752 0.02021 0.0
H417 H 0.78627 0.47452 0.87658 0.0
H418 H 0.78595 0.43251 0.8782 0.0
H419 H 0.80646 0.41328 0.05952 0.0
H420 H 0.80649 0.29372 0.05549 0.0
H421 H 0.81892 0.34045 0.04897 0.0
H422 H 0.80572 0.36685 0.86653 0.0
C423 C 0.79818 0.44768 0.91153 0.0
C424 C 0.80685 0.40354 0.01719 0.0
C425 C 0.79822 0.47173 0.91094 0.0
C426 C 0.79793 0.29984 0.01905 0.0
C427 C 0.805 0.32662 0.01548 0.0
C428 C 0.80585 0.37679 0.90896 0.0
C429 C 0.81273 0.44281 0.9563 0.0
C430 C 0.81059 0.41629 0.95993 0.0
C431 C 0.79441 0.33545 0.9689 0.0
C432 C 0.80124 0.36371 0.96604 0.0
H433 H 0.83973 0.50191 0.03312 0.0
H434 H 0.83966 0.45977 0.03399 0.0
H435 H 0.81368 0.41227 0.86124 0.0
H436 H 0.75577 0.27645 0.89558 0.0
H437 H 0.76786 0.32306 0.88994 0.0
C438 C 0.34511 0.84288 0.02311 0.0
C439 C 0.32754 0.83063 0.97344 0.0
C440 C 0.36924 0.84295 0.02576 0.0
C441 C 0.41574 0.83057 0.93263 0.0
H442 H 0.42799 0.80445 0.08677 0.0
C443 C 0.47838 0.77928 0.94661 0.0
C444 C 0.49569 0.78526 -0.00291 0.0
C445 C 0.46048 0.7887 0.94463 0.0
C446 C 0.42513 0.81216 0.04371 0.0
H447 H 0.32227 0.81046 0.88574 0.0
H448 H 0.36404 0.81052 0.8905 0.0
H449 H 0.39319 0.81622 0.08084 0.0
H450 H 0.50761 0.80576 0.08529 0.0
H451 H 0.47631 0.82214 0.08168 0.0
H452 H 0.44716 0.82575 0.89504 0.0
C453 C 0.35935 0.82012 0.92736 0.0
C454 C 0.40525 0.819 0.04036 0.0
C455 C 0.33526 0.81989 0.92489 0.0
C456 C 0.49452 0.80071 0.04576 0.0
C457 C 0.47655 0.81006 0.04383 0.0
C458 C 0.43557 0.8237 0.93596 0.0
C459 C 0.37631 0.83102 0.97851 0.0
C460 C 0.39994 0.82769 -0.0156 0.0
C461 C 0.45942 0.80426 -0.00688 0.0
C462 C 0.44007 0.81385 -0.00885 0.0
H463 H 0.33973 0.85135 0.06118 0.0
H464 H 0.38207 0.85175 0.06545 0.0
H465 H 0.41238 0.83761 0.88912 0.0
H466 H 0.47872 0.76742 0.90836 0.0
H467 H 0.44721 0.78352 0.9054 0.0
C468 C 0.68817 0.48987 0.91976 0.0
C469 C 0.69952 0.50809 0.96863 0.0
C470 C 0.66163 0.46977 0.92204 0.0
C471 C 0.59691 0.44675 -0.00216 0.0
H472 H 0.5858 0.37747 0.95023 0.0
C473 C 0.49751 0.34551 0.0287 0.0
C474 C 0.49107 0.32717 0.98016 0.0
C475 C 0.52166 0.3697 0.02807 0.0
C476 C 0.58848 0.39671 0.96303 0.0
H477 H 0.69146 0.52022 0.05703 0.0
H478 H 0.64489 0.4847 0.06119 0.0
H479 H 0.63033 0.41581 0.94777 0.0
H480 H 0.5037 0.3207 0.89072 0.0
H481 H 0.54524 0.36274 0.88924 0.0
H482 H 0.55472 0.42723 0.0132 0.0
C483 C 0.65665 0.48618 0.02104 0.0
C484 C 0.61402 0.4187 0.96161 0.0
C485 C 0.68333 0.50643 0.01871 0.0
C486 C 0.50831 0.33416 0.9294 0.0
C487 C 0.53218 0.35823 0.92861 0.0
C488 C 0.57116 0.42459 -0.00075 0.0
C489 C 0.64576 0.46728 0.97333 0.0
C490 C 0.6185 0.44403 0.97796 0.0
C491 C 0.53957 0.37585 0.9788 0.0
C492 C 0.56669 0.39944 0.98078 0.0
H493 H 0.69992 0.49076 0.88005 0.0
H494 H 0.65361 0.45585 0.88393 0.0
H495 H 0.59983 0.46607 0.01075 0.0
H496 H 0.48455 0.34064 0.06837 0.0
H497 H 0.52686 0.38294 0.06734 0.0
C498 C 0.16347 0.38521 0.71355 0.0
C499 C 0.17806 0.40971 0.74433 0.0
C500 C 0.16072 0.38441 0.64942 0.0
C501 C 0.16519 0.42589 0.51615 0.0
H502 H 0.17737 0.37604 0.42233 0.0
C503 C 0.19539 0.41276 0.25508 0.0
C504 C 0.17698 0.41619 0.21986 0.0
C505 C 0.19296 0.41037 0.31901 0.0
C506 C 0.17393 0.39007 0.44799 0.0
H507 H 0.20125 0.45257 0.7318 0.0
H508 H 0.19664 0.45106 0.62023 0.0
H509 H 0.1779 0.37489 0.53484 0.0
H510 H 0.14166 0.42 0.22432 0.0
H511 H 0.1375 0.41586 0.33647 0.0
H512 H 0.16208 0.44163 0.42926 0.0
C513 C 0.18703 0.43253 0.64571 0.0
C514 C 0.17396 0.38923 0.5123 0.0
C515 C 0.18985 0.43334 0.70964 0.0
C516 C 0.15621 0.41743 0.25013 0.0
C517 C 0.15384 0.41512 0.31429 0.0
C518 C 0.16509 0.42669 0.45182 0.0
C519 C 0.17241 0.40808 0.61498 0.0
C520 C 0.17006 0.40744 0.54698 0.0
C521 C 0.17212 0.4114 0.34923 0.0
C522 C 0.16994 0.4091 0.41717 0.0
H523 H 0.15406 0.36665 0.73894 0.0
H524 H 0.14921 0.36529 0.62684 0.0
H525 H 0.16179 0.43995 0.54182 0.0
H526 H 0.21167 0.41177 0.23334 0.0
H527 H 0.20762 0.408 0.3449 0.0
C528 C 0.77699 0.17569 0.71864 0.0
C529 C 0.75578 0.17542 0.75045 0.0
C530 C 0.77693 0.17496 0.65422 0.0
C531 C 0.73574 0.15271 0.51951 0.0
H532 H 0.78971 0.2158 0.436 0.0
C533 C 0.72903 0.16832 0.25943 0.0
C534 C 0.75281 0.18173 0.22584 0.0
C535 C 0.72964 0.16692 0.32366 0.0
C536 C 0.7748 0.19778 0.45827 0.0
H537 H 0.71747 0.17309 0.74057 0.0
H538 H 0.71707 0.17094 0.6278 0.0
H539 H 0.79078 0.21289 0.54804 0.0
H540 H 0.79584 0.20372 0.23247 0.0
H541 H 0.79702 0.20025 0.34399 0.0
H542 H 0.72009 0.13704 0.43032 0.0
C543 C 0.73381 0.17214 0.65281 0.0
C544 C 0.7754 0.19624 0.52241 0.0
C545 C 0.73414 0.17352 0.71704 0.0
C546 C 0.77719 0.19356 0.25741 0.0
C547 C 0.77783 0.19166 0.32143 0.0
C548 C 0.73544 0.15394 0.45523 0.0
C549 C 0.75535 0.17323 0.62108 0.0
C550 C 0.75573 0.17384 0.55333 0.0
C551 C 0.75407 0.17839 0.35547 0.0
C552 C 0.7548 0.17664 0.42379 0.0
H553 H 0.79391 0.17723 0.74345 0.0
H554 H 0.79372 0.17584 0.63021 0.0
H555 H 0.72044 0.13522 0.54287 0.0
H556 H 0.70996 0.15916 0.2361 0.0
H557 H 0.71092 0.15705 0.34827 0.0
C558 C 0.55323 0.73559 0.72801 0.0
C559 C 0.57297 0.75803 0.75913 0.0
C560 C 0.55407 0.7336 0.66402 0.0
C561 C 0.59843 0.76421 0.5276 0.0
H562 H 0.53132 0.72901 0.43904 0.0
C563 C 0.58333 0.7758 0.26729 0.0
C564 C 0.57095 0.75192 0.23347 0.0
C565 C 0.58505 0.77533 0.33144 0.0
C566 C 0.55016 0.73867 0.46341 0.0
H567 H 0.60902 0.79607 0.74813 0.0
H568 H 0.60976 0.79344 0.6359 0.0
H569 H 0.53126 0.73134 0.55121 0.0
H570 H 0.55069 0.70888 0.23989 0.0
H571 H 0.55282 0.70812 0.35297 0.0
H572 H 0.61707 0.77279 0.43854 0.0
C573 C 0.59411 0.77683 0.66085 0.0
C574 C 0.55022 0.73991 0.52771 0.0
C575 C 0.59361 0.7785 0.72515 0.0
C576 C 0.56039 0.72755 0.26492 0.0
C577 C 0.56156 0.72709 0.32931 0.0
C578 C 0.59832 0.76347 0.46315 0.0
C579 C 0.5743 0.75435 0.62938 0.0
C580 C 0.57436 0.7527 0.56078 0.0
C581 C 0.57391 0.75099 0.36286 0.0
C582 C 0.57418 0.75069 0.43077 0.0
H583 H 0.53731 0.71931 0.75326 0.0
H584 H 0.53887 0.71566 0.64192 0.0
H585 H 0.61741 0.77375 0.55124 0.0
H586 H 0.59179 0.79486 0.24412 0.0
H587 H 0.59452 0.79396 0.35667 0.0
C588 C 0.82651 0.59759 0.69859 0.0
C589 C 0.80365 0.57838 0.72932 0.0
C590 C 0.82818 0.59698 0.63436 0.0
C591 C 0.79607 0.55175 0.50036 0.0
H592 H 0.83288 0.61717 0.40611 0.0
C593 C 0.78234 0.56205 0.23993 0.0
C594 C 0.80567 0.57186 0.20466 0.0
C595 C 0.78365 0.5624 0.30417 0.0
C596 C 0.82276 0.59881 0.43218 0.0
H597 H 0.76423 0.54419 0.71744 0.0
H598 H 0.76648 0.54391 0.60555 0.0
H599 H 0.83155 0.61927 0.51855 0.0
H600 H 0.84861 0.58991 0.20846 0.0
H601 H 0.85089 0.59133 0.32159 0.0
H602 H 0.78615 0.53154 0.41319 0.0
C603 C 0.78365 0.55877 0.63069 0.0
C604 C 0.82207 0.59993 0.49648 0.0
C605 C 0.78222 0.55905 0.69483 0.0
C606 C 0.83034 0.5821 0.2347 0.0
C607 C 0.83169 0.58303 0.29907 0.0
C608 C 0.7963 0.55071 0.43612 0.0
C609 C 0.8068 0.57745 0.59963 0.0
C610 C 0.80851 0.5764 0.53137 0.0
C611 C 0.80833 0.57311 0.33403 0.0
C612 C 0.80952 0.57422 0.40174 0.0
H613 H 0.8434 0.61259 0.72428 0.0
H614 H 0.84646 0.61147 0.61221 0.0
H615 H 0.78606 0.53319 0.52559 0.0
H616 H 0.76308 0.55395 0.21785 0.0
H617 H 0.76545 0.55476 0.33062 0.0
C618 C 0.21332 0.79462 0.25558 0.0
C619 C 0.23401 0.81448 0.22024 0.0
C620 C 0.21319 0.797 0.31957 0.0
C621 C 0.25709 0.82928 0.45146 0.0
H622 H 0.19087 0.80898 0.53669 0.0
C623 C 0.2164 0.82707 0.7143 0.0
C624 C 0.2291 0.81511 0.74493 0.0
C625 C 0.21772 0.82954 0.6501 0.0
C626 C 0.20956 0.81502 0.5135 0.0
H627 H 0.27085 0.85242 0.22446 0.0
H628 H 0.27053 0.85653 0.3364 0.0
H629 H 0.19174 0.80887 0.4241 0.0
H630 H 0.25323 0.79647 0.73214 0.0
H631 H 0.25526 0.80058 0.6205 0.0
H632 H 0.2749 0.83537 0.54083 0.0
C633 C 0.25453 0.83906 0.31443 0.0
C634 C 0.21 0.81467 0.44916 0.0
C635 C 0.25466 0.83672 0.25034 0.0
C636 C 0.24322 0.8058 0.71009 0.0
C637 C 0.24459 0.80834 0.64611 0.0
C638 C 0.25663 0.82956 0.51578 0.0
C639 C 0.23374 0.81926 0.3496 0.0
C640 C 0.23368 0.82142 0.41757 0.0
C641 C 0.23185 0.82021 0.61547 0.0
C642 C 0.23278 0.82204 0.5474 0.0
H643 H 0.19713 0.77722 0.23391 0.0
H644 H 0.19714 0.78122 0.34563 0.0
H645 H 0.27559 0.83443 0.42834 0.0
H646 H 0.20543 0.83451 0.73983 0.0
H647 H 0.20786 0.83892 0.6276 0.0
C648 C 0.43035 0.25239 0.72376 0.0
C649 C 0.40992 0.2303 0.75427 0.0
C650 C 0.43004 0.25439 0.65973 0.0
C651 C 0.38618 0.22507 0.5222 0.0
H652 H 0.45376 0.25724 0.43592 0.0
C653 C 0.40117 0.21175 0.2633 0.0
C654 C 0.41381 0.23554 0.22936 0.0
C655 C 0.39979 0.21241 0.32743 0.0
C656 C 0.43482 0.24843 0.45969 0.0
H657 H 0.3732 0.19292 0.74231 0.0
H658 H 0.3733 0.19557 0.63005 0.0
H659 H 0.45312 0.25515 0.54822 0.0
H660 H 0.43507 0.27863 0.23547 0.0
H661 H 0.4335 0.2797 0.34856 0.0
H662 H 0.36807 0.21708 0.43254 0.0
C663 C 0.38911 0.2119 0.65546 0.0
C664 C 0.43437 0.24734 0.52397 0.0
C665 C 0.38912 0.21022 0.71975 0.0
C666 C 0.42517 0.26003 0.26064 0.0
C667 C 0.42433 0.26067 0.325 0.0
C668 C 0.38666 0.22565 0.45781 0.0
C669 C 0.40961 0.23402 0.62461 0.0
C670 C 0.41003 0.23562 0.55613 0.0
C671 C 0.41151 0.23685 0.3586 0.0
C672 C 0.41098 0.23732 0.42633 0.0
H673 H 0.44643 0.26837 0.74949 0.0
H674 H 0.44579 0.27204 0.63794 0.0
H675 H 0.36711 0.2164 0.54522 0.0
H676 H 0.39208 0.19261 0.24023 0.0
H677 H 0.38996 0.19385 0.35282 0.0
loop_
_geom_bond_atom_site_label_1
_geom_bond_atom_site_label_2
_geom_bond_distance
_geom_bond_site_symmetry_2
_ccdc_geom_bond_type
O0 Zn1 1.953 . S
O0 C16 1.225 . S
Zn1 O0 1.953 . S
Zn1 O2 1.949 1_556 S
Zn1 O8 1.919 . S
Zn1 O13 1.924 . S
O2 Zn1 1.949 1_554 S
O2 Zn3 1.923 1_554 S
O2 Zn4 1.950 . S
O2 Zn5 1.945 . S
Zn3 O2 1.923 1_556 S
Zn3 O6 1.933 . S
Zn3 O9 1.941 . S
Zn3 O10 1.965 . S
Zn4 O2 1.950 . S
Zn4 O11 1.938 . S
Zn4 O12 1.906 . S
Zn4 O22 1.953 . S
Zn5 O2 1.945 . S
Zn5 O7 1.932 . S
Zn5 O14 1.977 . S
Zn5 O15 1.910 . S
O6 Zn3 1.933 . S
O6 C17 1.229 . S
O7 Zn5 1.932 . S
O7 C17 1.304 1_554 S
O8 Zn1 1.919 . S
O8 C19 1.253 . S
O9 Zn3 1.941 . S
O9 C19 1.283 . S
O10 Zn3 1.965 . S
O10 C18 1.303 1_556 S
O11 Zn4 1.938 . S
O11 C18 1.247 . S
O12 Zn4 1.906 . S
O12 C20 1.304 . S
O13 Zn1 1.924 . S
O13 C21 1.311 . S
O14 Zn5 1.977 . S
O14 C20 1.272 . S
O15 Zn5 1.910 . S
O15 C21 1.231 1_554 S
C16 O0 1.225 . S
C16 O22 1.298 1_556 S
C17 O6 1.229 . S
C17 O7 1.304 1_556 S
C18 O10 1.303 1_554 S
C18 O11 1.247 . S
C19 O8 1.253 . S
C19 O9 1.283 . S
C20 O12 1.304 . S
C20 O14 1.272 . S
C21 O13 1.311 . S
C21 O15 1.231 1_556 S
O22 Zn4 1.953 . S
O22 C16 1.298 1_554 S
O23 Zn24 1.953 . S
O23 C39 1.225 . S
Zn24 O23 1.953 . S
Zn24 O25 1.949 1_556 S
Zn24 O31 1.919 . S
Zn24 O36 1.924 . S
O25 Zn24 1.949 1_554 S
O25 Zn26 1.923 1_554 S
O25 Zn27 1.950 . S
O25 Zn28 1.945 . S
Zn26 O25 1.923 1_556 S
Zn26 O29 1.933 . S
Zn26 O32 1.941 . S
Zn26 O33 1.965 . S
Zn27 O25 1.950 . S
Zn27 O34 1.938 . S
Zn27 O35 1.906 . S
Zn27 O45 1.953 . S
Zn28 O25 1.945 . S
Zn28 O30 1.932 . S
Zn28 O37 1.977 . S
Zn28 O38 1.910 . S
O29 Zn26 1.933 . S
O29 C40 1.229 . S
O30 Zn28 1.932 . S
O30 C40 1.304 1_554 S
O31 Zn24 1.919 . S
O31 C42 1.253 . S
O32 Zn26 1.941 . S
O32 C42 1.283 . S
O33 Zn26 1.965 . S
O33 C41 1.303 1_556 S
O34 Zn27 1.938 . S
O34 C41 1.247 . S
O35 Zn27 1.906 . S
O35 C43 1.304 . S
O36 Zn24 1.924 . S
O36 C44 1.311 . S
O37 Zn28 1.977 . S
O37 C43 1.272 . S
O38 Zn28 1.910 . S
O38 C44 1.231 1_554 S
C39 O23 1.225 . S
C39 O45 1.298 1_556 S
C40 O29 1.229 . S
C40 O30 1.304 1_556 S
C41 O33 1.303 1_554 S
C41 O34 1.247 . S
C42 O31 1.253 . S
C42 O32 1.283 . S
C43 O35 1.304 . S
C43 O37 1.272 . S
C44 O36 1.311 . S
C44 O38 1.231 1_556 S
O45 Zn27 1.953 . S
O45 C39 1.298 1_554 S
O46 Zn47 1.953 . S
O46 C62 1.225 . S
Zn47 O46 1.953 . S
Zn47 O48 1.949 1_556 S
Zn47 O54 1.919 . S
Zn47 O59 1.924 . S
O48 Zn47 1.949 1_554 S
O48 Zn49 1.923 1_554 S
O48 Zn50 1.950 . S
O48 Zn51 1.945 . S
Zn49 O48 1.923 1_556 S
Zn49 O52 1.933 . S
Zn49 O55 1.941 . S
Zn49 O56 1.965 . S
Zn50 O48 1.950 . S
Zn50 O57 1.938 . S
Zn50 O58 1.906 . S
Zn50 O68 1.953 . S
Zn51 O48 1.945 . S
Zn51 O53 1.932 . S
Zn51 O60 1.977 . S
Zn51 O61 1.910 . S
O52 Zn49 1.933 . S
O52 C63 1.229 . S
O53 Zn51 1.932 . S
O53 C63 1.304 1_554 S
O54 Zn47 1.919 . S
O54 C65 1.253 . S
O55 Zn49 1.941 . S
O55 C65 1.283 . S
O56 Zn49 1.965 . S
O56 C64 1.303 1_556 S
O57 Zn50 1.938 . S
O57 C64 1.247 . S
O58 Zn50 1.906 . S
O58 C66 1.304 . S
O59 Zn47 1.924 . S
O59 C67 1.311 . S
O60 Zn51 1.977 . S
O60 C66 1.272 . S
O61 Zn51 1.910 . S
O61 C67 1.231 1_554 S
C62 O46 1.225 . S
C62 O68 1.298 1_556 S
C63 O52 1.229 . S
C63 O53 1.304 1_556 S
C64 O56 1.303 1_554 S
C64 O57 1.247 . S
C65 O54 1.253 . S
C65 O55 1.283 . S
C66 O58 1.304 . S
C66 O60 1.272 . S
C67 O59 1.311 . S
C67 O61 1.231 1_556 S
O68 Zn50 1.953 . S
O68 C62 1.298 1_554 S
O69 Zn70 1.953 . S
O69 C85 1.225 . S
Zn70 O69 1.953 . S
Zn70 O71 1.949 1_556 S
Zn70 O77 1.919 . S
Zn70 O82 1.924 . S
O71 Zn70 1.949 1_554 S
O71 Zn72 1.923 1_554 S
O71 Zn73 1.950 . S
O71 Zn74 1.945 . S
Zn72 O71 1.923 1_556 S
Zn72 O75 1.933 . S
Zn72 O78 1.941 . S
Zn72 O79 1.965 . S
Zn73 O71 1.950 . S
Zn73 O80 1.938 . S
Zn73 O81 1.906 . S
Zn73 O91 1.953 . S
Zn74 O71 1.945 . S
Zn74 O76 1.932 . S
Zn74 O83 1.977 . S
Zn74 O84 1.910 . S
O75 Zn72 1.933 . S
O75 C86 1.229 . S
O76 Zn74 1.932 . S
O76 C86 1.304 1_554 S
O77 Zn70 1.919 . S
O77 C88 1.253 . S
O78 Zn72 1.941 . S
O78 C88 1.283 . S
O79 Zn72 1.965 . S
O79 C87 1.303 1_556 S
O80 Zn73 1.938 . S
O80 C87 1.247 . S
O81 Zn73 1.906 . S
O81 C89 1.304 . S
O82 Zn70 1.924 . S
O82 C90 1.311 . S
O83 Zn74 1.977 . S
O83 C89 1.272 . S
O84 Zn74 1.910 . S
O84 C90 1.231 1_554 S
C85 O69 1.225 . S
C85 O91 1.298 1_556 S
C86 O75 1.229 . S
C86 O76 1.304 1_556 S
C87 O79 1.303 1_554 S
C87 O80 1.247 . S
C88 O77 1.253 . S
C88 O78 1.283 . S
C89 O81 1.304 . S
C89 O83 1.272 . S
C90 O82 1.311 . S
C90 O84 1.231 1_556 S
O91 Zn73 1.953 . S
O91 C85 1.298 1_554 S
O92 Zn93 1.953 . S
O92 C108 1.225 . S
Zn93 O92 1.953 . S
Zn93 O94 1.949 1_556 S
Zn93 O100 1.919 . S
Zn93 O105 1.924 . S
O94 Zn93 1.949 1_554 S
O94 Zn95 1.923 1_554 S
O94 Zn96 1.950 . S
O94 Zn97 1.945 . S
Zn95 O94 1.923 1_556 S
Zn95 O98 1.933 . S
Zn95 O101 1.941 . S
Zn95 O102 1.965 . S
Zn96 O94 1.950 . S
Zn96 O103 1.938 . S
Zn96 O104 1.906 . S
Zn96 O114 1.953 . S
Zn97 O94 1.945 . S
Zn97 O99 1.932 . S
Zn97 O106 1.977 . S
Zn97 O107 1.910 . S
O98 Zn95 1.933 . S
O98 C109 1.229 . S
O99 Zn97 1.932 . S
O99 C109 1.304 1_554 S
O100 Zn93 1.919 . S
O100 C111 1.253 . S
O101 Zn95 1.941 . S
O101 C111 1.283 . S
O102 Zn95 1.965 . S
O102 C110 1.303 1_556 S
O103 Zn96 1.938 . S
O103 C110 1.247 . S
O104 Zn96 1.906 . S
O104 C112 1.304 . S
O105 Zn93 1.924 . S
O105 C113 1.311 . S
O106 Zn97 1.977 . S
O106 C112 1.272 . S
O107 Zn97 1.910 . S
O107 C113 1.231 1_554 S
C108 O92 1.225 . S
C108 O114 1.298 1_556 S
C109 O98 1.229 . S
C109 O99 1.304 1_556 S
C110 O102 1.303 1_554 S
C110 O103 1.247 . S
C111 O100 1.253 . S
C111 O101 1.283 . S
C112 O104 1.304 . S
C112 O106 1.272 . S
C113 O105 1.311 . S
C113 O107 1.231 1_556 S
O114 Zn96 1.953 . S
O114 C108 1.298 1_554 S
O115 Zn116 1.953 . S
O115 C131 1.225 . S
Zn116 O115 1.953 . S
Zn116 O117 1.949 1_556 S
Zn116 O123 1.919 . S
Zn116 O128 1.924 . S
O117 Zn116 1.949 1_554 S
O117 Zn118 1.923 1_554 S
O117 Zn119 1.950 . S
O117 Zn120 1.945 . S
Zn118 O117 1.923 1_556 S
Zn118 O121 1.933 . S
Zn118 O124 1.941 . S
Zn118 O125 1.965 . S
Zn119 O117 1.950 . S
Zn119 O126 1.938 . S
Zn119 O127 1.906 . S
Zn119 O137 1.953 . S
Zn120 O117 1.945 . S
Zn120 O122 1.932 . S
Zn120 O129 1.977 . S
Zn120 O130 1.910 . S
O121 Zn118 1.933 . S
O121 C132 1.229 . S
O122 Zn120 1.932 . S
O122 C132 1.304 1_554 S
O123 Zn116 1.919 . S
O123 C134 1.253 . S
O124 Zn118 1.941 . S
O124 C134 1.283 . S
O125 Zn118 1.965 . S
O125 C133 1.303 1_556 S
O126 Zn119 1.938 . S
O126 C133 1.247 . S
O127 Zn119 1.906 . S
O127 C135 1.304 . S
O128 Zn116 1.924 . S
O128 C136 1.311 . S
O129 Zn120 1.977 . S
O129 C135 1.272 . S
O130 Zn120 1.910 . S
O130 C136 1.231 1_554 S
C131 O115 1.225 . S
C131 O137 1.298 1_556 S
C132 O121 1.229 . S
C132 O122 1.304 1_556 S
C133 O125 1.303 1_554 S
C133 O126 1.247 . S
C134 O123 1.253 . S
C134 O124 1.283 . S
C135 O127 1.304 . S
C135 O129 1.272 . S
C136 O128 1.311 . S
C136 O130 1.231 1_556 S
O137 Zn119 1.953 . S
O137 C131 1.298 1_554 S
C138 C139 1.349 . S
C138 C140 1.327 . S
C138 H163 0.950 . S
C139 C138 1.349 . S
C139 C155 1.349 1_556 S
C140 C138 1.327 . S
C140 C159 1.429 . S
C140 H164 0.950 . S
C141 C158 1.574 . S
C141 C160 1.368 1_554 S
C141 H165 0.949 . S
H142 C146 0.949 . S
C143 C144 1.349 1_554 S
C143 C145 1.327 . S
C143 H166 0.950 . S
C144 C143 1.349 1_556 S
C144 C156 1.349 . S
C145 C143 1.327 . S
C145 C161 1.429 1_554 S
C145 H167 0.950 . S
C146 H142 0.949 . S
C146 C154 1.574 . S
C146 C162 1.368 . S
H147 C155 0.950 . S
H148 C153 0.950 . S
H149 C154 0.949 . S
H150 C156 0.950 . S
H151 C157 0.950 . S
H152 C158 0.949 . S
C153 H148 0.950 . S
C153 C155 1.327 . S
C153 C159 1.429 1_554 S
C154 C146 1.574 . S
C154 H149 0.949 . S
C154 C160 1.368 . S
C155 C139 1.349 1_554 S
C155 H147 0.950 . S
C155 C153 1.327 . S
C156 C144 1.349 . S
C156 H150 0.950 . S
C156 C157 1.327 . S
C157 H151 0.950 . S
C157 C156 1.327 . S
C157 C161 1.429 . S
C158 C141 1.574 . S
C158 H152 0.949 . S
C158 C162 1.368 1_554 S
C159 C140 1.429 . S
C159 C153 1.429 1_556 S
C159 C160 1.523 . S
C160 C141 1.368 1_556 S
C160 C154 1.368 . S
C160 C159 1.523 . S
C161 C145 1.429 1_556 S
C161 C157 1.429 . S
C161 C162 1.523 . S
C162 C146 1.368 . S
C162 C158 1.368 1_556 S
C162 C161 1.523 . S
H163 C138 0.950 . S
H164 C140 0.950 . S
H165 C141 0.949 . S
H166 C143 0.950 . S
H167 C145 0.950 . S
C168 C169 1.349 1_554 S
C168 C170 1.327 . S
C168 H193 0.950 . S
C169 C168 1.349 1_556 S
C169 C185 1.349 . S
C170 C168 1.327 . S
C170 C189 1.429 1_554 S
C170 H194 0.950 . S
C171 C188 1.574 . S
C171 C190 1.368 1_655 S
C171 H195 0.949 1_655 S
H172 C176 0.949 . S
C173 C174 1.349 . S
C173 C175 1.327 . S
C173 H196 0.950 . S
C174 C173 1.349 . S
C174 C186 1.349 1_556 S
C175 C173 1.327 . S
C175 C191 1.429 . S
C175 H197 0.950 . S
C176 H172 0.949 . S
C176 C184 1.574 . S
C176 C192 1.368 1_554 S
H177 C185 0.950 . S
H178 C183 0.950 . S
H179 C184 0.949 1_455 S
H180 C186 0.950 . S
H181 C187 0.950 . S
H182 C188 0.949 . S
C183 H178 0.950 . S
C183 C185 1.327 . S
C183 C189 1.429 . S
C184 C176 1.574 . S
C184 H179 0.949 1_655 S
C184 C190 1.368 1_654 S
C185 C169 1.349 . S
C185 H177 0.950 . S
C185 C183 1.327 . S
C186 C174 1.349 1_554 S
C186 H180 0.950 . S
C186 C187 1.327 . S
C187 H181 0.950 . S
C187 C186 1.327 . S
C187 C191 1.429 1_554 S
C188 C171 1.574 . S
C188 H182 0.949 . S
C188 C192 1.368 . S
C189 C170 1.429 1_556 S
C189 C183 1.429 . S
C189 C190 1.523 . S
C190 C171 1.368 1_455 S
C190 C184 1.368 1_456 S
C190 C189 1.523 . S
C191 C175 1.429 . S
C191 C187 1.429 1_556 S
C191 C192 1.523 . S
C192 C176 1.368 1_556 S
C192 C188 1.368 . S
C192 C191 1.523 . S
H193 C168 0.950 . S
H194 C170 0.950 . S
H195 C171 0.949 1_455 S
H196 C173 0.950 . S
H197 C175 0.950 . S
C198 C199 1.349 . S
C198 C200 1.327 . S
C198 H223 0.950 . S
C199 C198 1.349 . S
C199 C215 1.349 1_556 S
C200 C198 1.327 . S
C200 C219 1.429 . S
C200 H224 0.950 . S
C201 C218 1.574 . S
C201 C220 1.368 1_564 S
C201 H225 0.949 1_565 S
H202 C206 0.949 . S
C203 C204 1.349 1_554 S
C203 C205 1.327 . S
C203 H226 0.950 . S
C204 C203 1.349 1_556 S
C204 C216 1.349 . S
C205 C203 1.327 . S
C205 C221 1.429 1_554 S
C205 H227 0.950 . S
C206 H202 0.949 . S
C206 C214 1.574 . S
C206 C222 1.368 . S
H207 C215 0.950 . S
H208 C213 0.950 . S
H209 C214 0.949 1_545 S
H210 C216 0.950 . S
H211 C217 0.950 . S
H212 C218 0.949 . S
C213 H208 0.950 . S
C213 C215 1.327 . S
C213 C219 1.429 1_554 S
C214 C206 1.574 . S
C214 H209 0.949 1_565 S
C214 C220 1.368 1_565 S
C215 C199 1.349 1_554 S
C215 H207 0.950 . S
C215 C213 1.327 . S
C216 C204 1.349 . S
C216 H210 0.950 . S
C216 C217 1.327 . S
C217 H211 0.950 . S
C217 C216 1.327 . S
C217 C221 1.429 . S
C218 C201 1.574 . S
C218 H212 0.949 . S
C218 C222 1.368 1_554 S
C219 C200 1.429 . S
C219 C213 1.429 1_556 S
C219 C220 1.523 . S
C220 C201 1.368 1_546 S
C220 C214 1.368 1_545 S
C220 C219 1.523 . S
C221 C205 1.429 1_556 S
C221 C217 1.429 . S
C221 C222 1.523 . S
C222 C206 1.368 . S
C222 C218 1.368 1_556 S
C222 C221 1.523 . S
H223 C198 0.950 . S
H224 C200 0.950 . S
H225 C201 0.949 1_545 S
H226 C203 0.950 . S
H227 C205 0.950 . S
C228 C229 1.349 1_554 S
C228 C230 1.327 . S
C228 H253 0.950 . S
C229 C228 1.349 1_556 S
C229 C245 1.349 . S
C230 C228 1.327 . S
C230 C249 1.429 1_554 S
C230 H254 0.950 . S
C231 C248 1.574 . S
C231 C250 1.368 . S
C231 H255 0.949 . S
H232 C236 0.949 . S
C233 C234 1.349 . S
C233 C235 1.327 . S
C233 H256 0.950 . S
C234 C233 1.349 . S
C234 C246 1.349 1_556 S
C235 C233 1.327 . S
C235 C251 1.429 . S
C235 H257 0.950 . S
C236 H232 0.949 . S
C236 C244 1.574 . S
C236 C252 1.368 1_554 S
H237 C245 0.950 . S
H238 C243 0.950 . S
H239 C244 0.949 . S
H240 C246 0.950 . S
H241 C247 0.950 . S
H242 C248 0.949 . S
C243 H238 0.950 . S
C243 C245 1.327 . S
C243 C249 1.429 . S
C244 C236 1.574 . S
C244 H239 0.949 . S
C244 C250 1.368 1_554 S
C245 C229 1.349 . S
C245 H237 0.950 . S
C245 C243 1.327 . S
C246 C234 1.349 1_554 S
C246 H240 0.950 . S
C246 C247 1.327 . S
C247 H241 0.950 . S
C247 C246 1.327 . S
C247 C251 1.429 1_554 S
C248 C231 1.574 . S
C248 H242 0.949 . S
C248 C252 1.368 . S
C249 C230 1.429 1_556 S
C249 C243 1.429 . S
C249 C250 1.523 . S
C250 C231 1.368 . S
C250 C244 1.368 1_556 S
C250 C249 1.523 . S
C251 C235 1.429 . S
C251 C247 1.429 1_556 S
C251 C252 1.523 . S
C252 C236 1.368 1_556 S
C252 C248 1.368 . S
C252 C251 1.523 . S
H253 C228 0.950 . S
H254 C230 0.950 . S
H255 C231 0.949 . S
H256 C233 0.950 . S
H257 C235 0.950 . S
C258 C259 1.349 . S
C258 C260 1.327 . S
C258 H283 0.950 . S
C259 C258 1.349 . S
C259 C275 1.349 1_556 S
C260 C258 1.327 . S
C260 C279 1.429 . S
C260 H284 0.950 . S
C261 C278 1.574 . S
C261 C280 1.368 1_554 S
C261 H285 0.949 . S
H262 C266 0.949 1_655 S
C263 C264 1.349 1_554 S
C263 C265 1.327 . S
C263 H286 0.950 . S
C264 C263 1.349 1_556 S
C264 C276 1.349 . S
C265 C263 1.327 . S
C265 C281 1.429 1_554 S
C265 H287 0.950 . S
C266 H262 0.949 1_455 S
C266 C274 1.574 . S
C266 C282 1.368 1_455 S
H267 C275 0.950 . S
H268 C273 0.950 . S
H269 C274 0.949 . S
H270 C276 0.950 . S
H271 C277 0.950 . S
H272 C278 0.949 1_655 S
C273 H268 0.950 . S
C273 C275 1.327 . S
C273 C279 1.429 1_554 S
C274 C266 1.574 . S
C274 H269 0.949 . S
C274 C280 1.368 . S
C275 C259 1.349 1_554 S
C275 H267 0.950 . S
C275 C273 1.327 . S
C276 C264 1.349 . S
C276 H270 0.950 . S
C276 C277 1.327 . S
C277 H271 0.950 . S
C277 C276 1.327 . S
C277 C281 1.429 . S
C278 C261 1.574 . S
C278 H272 0.949 1_455 S
C278 C282 1.368 1_454 S
C279 C260 1.429 . S
C279 C273 1.429 1_556 S
C279 C280 1.523 . S
C280 C261 1.368 1_556 S
C280 C274 1.368 . S
C280 C279 1.523 . S
C281 C265 1.429 1_556 S
C281 C277 1.429 . S
C281 C282 1.523 . S
C282 C266 1.368 1_655 S
C282 C278 1.368 1_656 S
C282 C281 1.523 . S
H283 C258 0.950 . S
H284 C260 0.950 . S
H285 C261 0.949 . S
H286 C263 0.950 . S
H287 C265 0.950 . S
C288 C289 1.349 1_554 S
C288 C290 1.327 . S
C288 H313 0.950 . S
C289 C288 1.349 1_556 S
C289 C305 1.349 . S
C290 C288 1.327 . S
C290 C309 1.429 1_554 S
C290 H314 0.950 . S
C291 C308 1.574 . S
C291 C310 1.368 1_545 S
C291 H315 0.949 1_545 S
H292 C296 0.949 . S
C293 C294 1.349 . S
C293 C295 1.327 . S
C293 H316 0.950 . S
C294 C293 1.349 . S
C294 C306 1.349 1_556 S
C295 C293 1.327 . S
C295 C311 1.429 . S
C295 H317 0.950 . S
C296 H292 0.949 . S
C296 C304 1.574 . S
C296 C312 1.368 1_554 S
H297 C305 0.950 . S
H298 C303 0.950 . S
H299 C304 0.949 1_565 S
H300 C306 0.950 . S
H301 C307 0.950 . S
H302 C308 0.949 . S
C303 H298 0.950 . S
C303 C305 1.327 . S
C303 C309 1.429 . S
C304 C296 1.574 . S
C304 H299 0.949 1_545 S
C304 C310 1.368 1_544 S
C305 C289 1.349 . S
C305 H297 0.950 . S
C305 C303 1.327 . S
C306 C294 1.349 1_554 S
C306 H300 0.950 . S
C306 C307 1.327 . S
C307 H301 0.950 . S
C307 C306 1.327 . S
C307 C311 1.429 1_554 S
C308 C291 1.574 . S
C308 H302 0.949 . S
C308 C312 1.368 . S
C309 C290 1.429 1_556 S
C309 C303 1.429 . S
C309 C310 1.523 . S
C310 C291 1.368 1_565 S
C310 C304 1.368 1_566 S
C310 C309 1.523 . S
C311 C295 1.429 . S
C311 C307 1.429 1_556 S
C311 C312 1.523 . S
C312 C296 1.368 1_556 S
C312 C308 1.368 . S
C312 C311 1.523 . S
H313 C288 0.950 . S
H314 C290 0.950 . S
H315 C291 0.949 1_565 S
H316 C293 0.950 . S
H317 C295 0.950 . S
C318 C319 1.349 . S
C318 C320 1.327 . S
C318 H343 0.950 . S
C319 C318 1.349 . S
C319 C335 1.349 1_556 S
C320 C318 1.327 . S
C320 C339 1.434 . S
C320 H344 0.950 . S
C321 C338 1.574 . S
C321 C340 1.370 1_554 S
C321 H345 0.949 . S
H322 C326 0.949 . S
C323 C324 1.349 . S
C323 C325 1.327 . S
C323 H346 0.950 . S
C324 C323 1.349 . S
C324 C336 1.349 1_554 S
C325 C323 1.327 . S
C325 C341 1.429 . S
C325 H347 0.950 . S
C326 H322 0.949 . S
C326 C334 1.574 . S
C326 C342 1.358 1_556 S
H327 C335 0.950 . S
H328 C333 0.950 . S
H329 C334 0.949 . S
H330 C336 0.950 . S
H331 C337 0.950 . S
H332 C338 0.949 . S
C333 H328 0.950 . S
C333 C335 1.327 . S
C333 C339 1.423 1_554 S
C334 C326 1.574 . S
C334 H329 0.949 . S
C334 C340 1.367 . S
C335 C319 1.349 1_554 S
C335 H327 0.950 . S
C335 C333 1.327 . S
C336 C324 1.349 1_556 S
C336 H330 0.950 . S
C336 C337 1.327 . S
C337 H331 0.950 . S
C337 C336 1.327 . S
C337 C341 1.429 1_556 S
C338 C321 1.574 . S
C338 H332 0.949 . S
C338 C342 1.379 . S
C339 C320 1.434 . S
C339 C333 1.423 1_556 S
C339 C340 1.523 . S
C340 C321 1.370 1_556 S
C340 C334 1.367 . S
C340 C339 1.523 . S
C341 C325 1.429 . S
C341 C337 1.429 1_554 S
C341 C342 1.523 . S
C342 C326 1.358 1_554 S
C342 C338 1.379 . S
C342 C341 1.523 . S
H343 C318 0.950 . S
H344 C320 0.950 . S
H345 C321 0.949 . S
H346 C323 0.950 . S
H347 C325 0.950 . S
C348 C349 1.349 1_554 S
C348 C350 1.327 . S
C348 H373 0.950 . S
C349 C348 1.349 1_556 S
C349 C365 1.349 . S
C350 C348 1.327 . S
C350 C369 1.423 1_554 S
C350 H374 0.950 . S
C351 C368 1.574 . S
C351 C370 1.367 . S
C351 H375 0.949 . S
H352 C356 0.949 . S
C353 C354 1.349 1_556 S
C353 C355 1.327 . S
C353 H376 0.950 . S
C354 C353 1.349 1_554 S
C354 C366 1.349 . S
C355 C353 1.327 . S
C355 C371 1.429 1_556 S
C355 H377 0.950 . S
C356 H352 0.949 . S
C356 C364 1.574 . S
C356 C372 1.379 . S
H357 C365 0.950 . S
H358 C363 0.950 . S
H359 C364 0.949 . S
H360 C366 0.950 . S
H361 C367 0.950 . S
H362 C368 0.949 . S
C363 H358 0.950 . S
C363 C365 1.327 . S
C363 C369 1.434 . S
C364 C356 1.574 . S
C364 H359 0.949 . S
C364 C370 1.370 1_554 S
C365 C349 1.349 . S
C365 H357 0.950 . S
C365 C363 1.327 . S
C366 C354 1.349 . S
C366 H360 0.950 . S
C366 C367 1.327 . S
C367 H361 0.950 . S
C367 C366 1.327 . S
C367 C371 1.429 . S
C368 C351 1.574 . S
C368 H362 0.949 . S
C368 C372 1.358 1_556 S
C369 C350 1.423 1_556 S
C369 C363 1.434 . S
C369 C370 1.523 . S
C370 C351 1.367 . S
C370 C364 1.370 1_556 S
C370 C369 1.523 . S
C371 C355 1.429 1_554 S
C371 C367 1.429 . S
C371 C372 1.523 . S
C372 C356 1.379 . S
C372 C368 1.358 1_554 S
C372 C371 1.523 . S
H373 C348 0.950 . S
H374 C350 0.950 . S
H375 C351 0.949 . S
H376 C353 0.950 . S
H377 C355 0.950 . S
C378 C379 1.349 1_556 S
C378 C380 1.327 . S
C378 H403 0.950 . S
C379 C378 1.349 1_554 S
C379 C395 1.349 . S
C380 C378 1.327 . S
C380 C399 1.429 1_556 S
C380 H404 0.950 . S
C381 C398 1.574 . S
C381 C400 1.379 . S
C381 H405 0.949 . S
H382 C386 0.949 . S
C383 C384 1.349 1_554 S
C383 C385 1.327 . S
C383 H406 0.950 . S
C384 C383 1.349 1_556 S
C384 C396 1.349 . S
C385 C383 1.327 . S
C385 C401 1.423 1_554 S
C385 H407 0.950 . S
C386 H382 0.949 . S
C386 C394 1.574 . S
C386 C402 1.367 . S
H387 C395 0.950 . S
H388 C393 0.950 . S
H389 C394 0.949 . S
H390 C396 0.950 . S
H391 C397 0.950 . S
H392 C398 0.949 . S
C393 H388 0.950 . S
C393 C395 1.327 . S
C393 C399 1.429 . S
C394 C386 1.574 . S
C394 H389 0.949 . S
C394 C400 1.358 1_556 S
C395 C379 1.349 . S
C395 H387 0.950 . S
C395 C393 1.327 . S
C396 C384 1.349 . S
C396 H390 0.950 . S
C396 C397 1.327 . S
C397 H391 0.950 . S
C397 C396 1.327 . S
C397 C401 1.434 . S
C398 C381 1.574 . S
C398 H392 0.949 . S
C398 C402 1.370 1_554 S
C399 C380 1.429 1_554 S
C399 C393 1.429 . S
C399 C400 1.523 . S
C400 C381 1.379 . S
C400 C394 1.358 1_554 S
C400 C399 1.523 . S
C401 C385 1.423 1_556 S
C401 C397 1.434 . S
C401 C402 1.523 . S
C402 C386 1.367 . S
C402 C398 1.370 1_556 S
C402 C401 1.523 . S
H403 C378 0.950 . S
H404 C380 0.950 . S
H405 C381 0.949 . S
H406 C383 0.950 . S
H407 C385 0.950 . S
C408 C409 1.349 . S
C408 C410 1.327 . S
C408 H433 0.950 . S
C409 C408 1.349 . S
C409 C425 1.349 1_554 S
C410 C408 1.327 . S
C410 C429 1.429 . S
C410 H434 0.950 . S
C411 C428 1.574 . S
C411 C430 1.358 1_556 S
C411 H435 0.949 . S
H412 C416 0.949 . S
C413 C414 1.349 . S
C413 C415 1.327 . S
C413 H436 0.950 . S
C414 C413 1.349 . S
C414 C426 1.349 1_556 S
C415 C413 1.327 . S
C415 C431 1.434 . S
C415 H437 0.950 . S
C416 H412 0.949 . S
C416 C424 1.574 . S
C416 C432 1.370 1_554 S
H417 C425 0.950 . S
H418 C423 0.950 . S
H419 C424 0.949 . S
H420 C426 0.950 . S
H421 C427 0.950 . S
H422 C428 0.949 . S
C423 H418 0.950 . S
C423 C425 1.327 . S
C423 C429 1.429 1_556 S
C424 C416 1.574 . S
C424 H419 0.949 . S
C424 C430 1.379 . S
C425 C409 1.349 1_556 S
C425 H417 0.950 . S
C425 C423 1.327 . S
C426 C414 1.349 1_554 S
C426 H420 0.950 . S
C426 C427 1.327 . S
C427 H421 0.950 . S
C427 C426 1.327 . S
C427 C431 1.423 1_554 S
C428 C411 1.574 . S
C428 H422 0.949 . S
C428 C432 1.367 . S
C429 C410 1.429 . S
C429 C423 1.429 1_554 S
C429 C430 1.523 . S
C430 C411 1.358 1_554 S
C430 C424 1.379 . S
C430 C429 1.523 . S
C431 C415 1.434 . S
C431 C427 1.423 1_556 S
C431 C432 1.523 . S
C432 C416 1.370 1_556 S
C432 C428 1.367 . S
C432 C431 1.523 . S
H433 C408 0.950 . S
H434 C410 0.950 . S
H435 C411 0.949 . S
H436 C413 0.950 . S
H437 C415 0.950 . S
C438 C439 1.349 . S
C438 C440 1.327 . S
C438 H463 0.950 . S
C439 C438 1.349 . S
C439 C455 1.349 1_554 S
C440 C438 1.327 . S
C440 C459 1.429 . S
C440 H464 0.950 . S
C441 C458 1.574 . S
C441 C460 1.358 1_556 S
C441 H465 0.949 . S
H442 C446 0.949 . S
C443 C444 1.349 . S
C443 C445 1.327 . S
C443 H466 0.950 . S
C444 C443 1.349 . S
C444 C456 1.349 1_556 S
C445 C443 1.327 . S
C445 C461 1.434 . S
C445 H467 0.950 . S
C446 H442 0.949 . S
C446 C454 1.574 . S
C446 C462 1.370 1_554 S
H447 C455 0.950 . S
H448 C453 0.950 . S
H449 C454 0.949 . S
H450 C456 0.950 . S
H451 C457 0.950 . S
H452 C458 0.949 . S
C453 H448 0.950 . S
C453 C455 1.327 . S
C453 C459 1.429 1_556 S
C454 C446 1.574 . S
C454 H449 0.949 . S
C454 C460 1.378 . S
C455 C439 1.349 1_556 S
C455 H447 0.950 . S
C455 C453 1.327 . S
C456 C444 1.349 1_554 S
C456 H450 0.950 . S
C456 C457 1.327 . S
C457 H451 0.950 . S
C457 C456 1.327 . S
C457 C461 1.423 1_554 S
C458 C441 1.574 . S
C458 H452 0.949 . S
C458 C462 1.367 . S
C459 C440 1.429 . S
C459 C453 1.429 1_554 S
C459 C460 1.523 . S
C460 C441 1.358 1_554 S
C460 C454 1.378 . S
C460 C459 1.523 . S
C461 C445 1.434 . S
C461 C457 1.423 1_556 S
C461 C462 1.523 . S
C462 C446 1.370 1_556 S
C462 C458 1.367 . S
C462 C461 1.523 . S
H463 C438 0.950 . S
H464 C440 0.950 . S
H465 C441 0.949 . S
H466 C443 0.950 . S
H467 C445 0.950 . S
C468 C469 1.349 . S
C468 C470 1.327 . S
C468 H493 0.950 . S
C469 C468 1.349 . S
C469 C485 1.349 1_556 S
C470 C468 1.327 . S
C470 C489 1.434 . S
C470 H494 0.950 . S
C471 C488 1.574 . S
C471 C490 1.370 1_554 S
C471 H495 0.949 . S
H472 C476 0.949 . S
C473 C474 1.349 . S
C473 C475 1.327 . S
C473 H496 0.950 . S
C474 C473 1.349 . S
C474 C486 1.349 1_554 S
C475 C473 1.327 . S
C475 C491 1.429 . S
C475 H497 0.950 . S
C476 H472 0.949 . S
C476 C484 1.574 . S
C476 C492 1.358 1_556 S
H477 C485 0.950 . S
H478 C483 0.950 . S
H479 C484 0.949 . S
H480 C486 0.950 . S
H481 C487 0.950 . S
H482 C488 0.949 . S
C483 H478 0.950 . S
C483 C485 1.327 . S
C483 C489 1.423 1_554 S
C484 C476 1.574 . S
C484 H479 0.949 . S
C484 C490 1.367 . S
C485 C469 1.349 1_554 S
C485 H477 0.950 . S
C485 C483 1.327 . S
C486 C474 1.349 1_556 S
C486 H480 0.950 . S
C486 C487 1.327 . S
C487 H481 0.950 . S
C487 C486 1.327 . S
C487 C491 1.429 1_556 S
C488 C471 1.574 . S
C488 H482 0.949 . S
C488 C492 1.379 . S
C489 C470 1.434 . S
C489 C483 1.423 1_556 S
C489 C490 1.523 . S
C490 C471 1.370 1_556 S
C490 C484 1.367 . S
C490 C489 1.523 . S
C491 C475 1.429 . S
C491 C487 1.429 1_554 S
C491 C492 1.523 . S
C492 C476 1.358 1_554 S
C492 C488 1.379 . S
C492 C491 1.523 . S
H493 C468 0.950 . S
H494 C470 0.950 . S
H495 C471 0.949 . S
H496 C473 0.950 . S
H497 C475 0.950 . S
C498 C499 1.349 . S
C498 C500 1.327 . S
C498 H523 0.950 . S
C499 C498 1.349 . S
C499 C515 1.349 . S
C500 C498 1.327 . S
C500 C519 1.429 . S
C500 H524 0.950 . S
C501 C518 1.574 . S
C501 C520 1.368 . S
C501 H525 0.949 . S
H502 C506 0.949 . S
C503 C504 1.349 . S
C503 C505 1.327 . S
C503 H526 0.950 . S
C504 C503 1.349 . S
C504 C516 1.349 . S
C505 C503 1.327 . S
C505 C521 1.429 . S
C505 H527 0.950 . S
C506 H502 0.949 . S
C506 C514 1.574 . S
C506 C522 1.368 . S
H507 C515 0.950 . S
H508 C513 0.950 . S
H509 C514 0.949 . S
H510 C516 0.950 . S
H511 C517 0.950 . S
H512 C518 0.949 . S
C513 H508 0.950 . S
C513 C515 1.327 . S
C513 C519 1.429 . S
C514 C506 1.574 . S
C514 H509 0.949 . S
C514 C520 1.368 . S
C515 C499 1.349 . S
C515 H507 0.950 . S
C515 C513 1.327 . S
C516 C504 1.349 . S
C516 H510 0.950 . S
C516 C517 1.327 . S
C517 H511 0.950 . S
C517 C516 1.327 . S
C517 C521 1.429 . S
C518 C501 1.574 . S
C518 H512 0.949 . S
C518 C522 1.368 . S
C519 C500 1.429 . S
C519 C513 1.429 . S
C519 C520 1.523 . S
C520 C501 1.368 . S
C520 C514 1.368 . S
C520 C519 1.523 . S
C521 C505 1.429 . S
C521 C517 1.429 . S
C521 C522 1.523 . S
C522 C506 1.368 . S
C522 C518 1.368 . S
C522 C521 1.523 . S
H523 C498 0.950 . S
H524 C500 0.950 . S
H525 C501 0.949 . S
H526 C503 0.950 . S
H527 C505 0.950 . S
C528 C529 1.349 . S
C528 C530 1.327 . S
C528 H553 0.950 . S
C529 C528 1.349 . S
C529 C545 1.349 . S
C530 C528 1.327 . S
C530 C549 1.429 . S
C530 H554 0.950 . S
C531 C548 1.574 . S
C531 C550 1.368 . S
C531 H555 0.949 . S
H532 C536 0.949 . S
C533 C534 1.349 . S
C533 C535 1.327 . S
C533 H556 0.950 . S
C534 C533 1.349 . S
C534 C546 1.349 . S
C535 C533 1.327 . S
C535 C551 1.429 . S
C535 H557 0.950 . S
C536 H532 0.949 . S
C536 C544 1.574 . S
C536 C552 1.368 . S
H537 C545 0.950 . S
H538 C543 0.950 . S
H539 C544 0.949 . S
H540 C546 0.950 . S
H541 C547 0.950 . S
H542 C548 0.949 . S
C543 H538 0.950 . S
C543 C545 1.327 . S
C543 C549 1.429 . S
C544 C536 1.574 . S
C544 H539 0.949 . S
C544 C550 1.368 . S
C545 C529 1.349 . S
C545 H537 0.950 . S
C545 C543 1.327 . S
C546 C534 1.349 . S
C546 H540 0.950 . S
C546 C547 1.327 . S
C547 H541 0.950 . S
C547 C546 1.327 . S
C547 C551 1.429 . S
C548 C531 1.574 . S
C548 H542 0.949 . S
C548 C552 1.368 . S
C549 C530 1.429 . S
C549 C543 1.429 . S
C549 C550 1.523 . S
C550 C531 1.368 . S
C550 C544 1.368 . S
C550 C549 1.523 . S
C551 C535 1.429 . S
C551 C547 1.429 . S
C551 C552 1.523 . S
C552 C536 1.368 . S
C552 C548 1.368 . S
C552 C551 1.523 . S
H553 C528 0.950 . S
H554 C530 0.950 . S
H555 C531 0.949 . S
H556 C533 0.950 . S
H557 C535 0.950 . S
C558 C559 1.349 . S
C558 C560 1.327 . S
C558 H583 0.950 . S
C559 C558 1.349 . S
C559 C575 1.349 . S
C560 C558 1.327 . S
C560 C579 1.429 . S
C560 H584 0.950 . S
C561 C578 1.574 . S
C561 C580 1.368 . S
C561 H585 0.949 . S
H562 C566 0.949 . S
C563 C564 1.349 . S
C563 C565 1.327 . S
C563 H586 0.950 . S
C564 C563 1.349 . S
C564 C576 1.349 . S
C565 C563 1.327 . S
C565 C581 1.429 . S
C565 H587 0.950 . S
C566 H562 0.949 . S
C566 C574 1.574 . S
C566 C582 1.368 . S
H567 C575 0.950 . S
H568 C573 0.950 . S
H569 C574 0.949 . S
H570 C576 0.950 . S
H571 C577 0.950 . S
H572 C578 0.949 . S
C573 H568 0.950 . S
C573 C575 1.327 . S
C573 C579 1.429 . S
C574 C566 1.574 . S
C574 H569 0.949 . S
C574 C580 1.368 . S
C575 C559 1.349 . S
C575 H567 0.950 . S
C575 C573 1.327 . S
C576 C564 1.349 . S
C576 H570 0.950 . S
C576 C577 1.327 . S
C577 H571 0.950 . S
C577 C576 1.327 . S
C577 C581 1.429 . S
C578 C561 1.574 . S
C578 H572 0.949 . S
C578 C582 1.368 . S
C579 C560 1.429 . S
C579 C573 1.429 . S
C579 C580 1.523 . S
C580 C561 1.368 . S
C580 C574 1.368 . S
C580 C579 1.523 . S
C581 C565 1.429 . S
C581 C577 1.429 . S
C581 C582 1.523 . S
C582 C566 1.368 . S
C582 C578 1.368 . S
C582 C581 1.523 . S
H583 C558 0.950 . S
H584 C560 0.950 . S
H585 C561 0.949 . S
H586 C563 0.950 . S
H587 C565 0.950 . S
C588 C589 1.349 . S
C588 C590 1.327 . S
C588 H613 0.950 . S
C589 C588 1.349 . S
C589 C605 1.349 . S
C590 C588 1.327 . S
C590 C609 1.429 . S
C590 H614 0.950 . S
C591 C608 1.574 . S
C591 C610 1.368 . S
C591 H615 0.949 . S
H592 C596 0.949 . S
C593 C594 1.349 . S
C593 C595 1.327 . S
C593 H616 0.950 . S
C594 C593 1.349 . S
C594 C606 1.349 . S
C595 C593 1.327 . S
C595 C611 1.429 . S
C595 H617 0.950 . S
C596 H592 0.949 . S
C596 C604 1.574 . S
C596 C612 1.368 . S
H597 C605 0.950 . S
H598 C603 0.950 . S
H599 C604 0.949 . S
H600 C606 0.950 . S
H601 C607 0.950 . S
H602 C608 0.949 . S
C603 H598 0.950 . S
C603 C605 1.327 . S
C603 C609 1.429 . S
C604 C596 1.574 . S
C604 H599 0.949 . S
C604 C610 1.368 . S
C605 C589 1.349 . S
C605 H597 0.950 . S
C605 C603 1.327 . S
C606 C594 1.349 . S
C606 H600 0.950 . S
C606 C607 1.327 . S
C607 H601 0.950 . S
C607 C606 1.327 . S
C607 C611 1.429 . S
C608 C591 1.574 . S
C608 H602 0.949 . S
C608 C612 1.368 . S
C609 C590 1.429 . S
C609 C603 1.429 . S
C609 C610 1.523 . S
C610 C591 1.368 . S
C610 C604 1.368 . S
C610 C609 1.523 . S
C611 C595 1.429 . S
C611 C607 1.429 . S
C611 C612 1.523 . S
C612 C596 1.368 . S
C612 C608 1.368 . S
C612 C611 1.523 . S
H613 C588 0.950 . S
H614 C590 0.950 . S
H615 C591 0.949 . S
H616 C593 0.950 . S
H617 C595 0.950 . S
C618 C619 1.349 . S
C618 C620 1.327 . S
C618 H643 0.950 . S
C619 C618 1.349 . S
C619 C635 1.349 . S
C620 C618 1.327 . S
C620 C639 1.429 . S
C620 H644 0.950 . S
C621 C638 1.574 . S
C621 C640 1.368 . S
C621 H645 0.949 . S
H622 C626 0.949 . S
C623 C624 1.349 . S
C623 C625 1.327 . S
C623 H646 0.950 . S
C624 C623 1.349 . S
C624 C636 1.349 . S
C625 C623 1.327 . S
C625 C641 1.429 . S
C625 H647 0.950 . S
C626 H622 0.949 . S
C626 C634 1.574 . S
C626 C642 1.368 . S
H627 C635 0.950 . S
H628 C633 0.950 . S
H629 C634 0.949 . S
H630 C636 0.950 . S
H631 C637 0.950 . S
H632 C638 0.949 . S
C633 H628 0.950 . S
C633 C635 1.327 . S
C633 C639 1.429 . S
C634 C626 1.574 . S
C634 H629 0.949 . S
C634 C640 1.368 . S
C635 C619 1.349 . S
C635 H627 0.950 . S
C635 C633 1.327 . S
C636 C624 1.349 . S
C636 H630 0.950 . S
C636 C637 1.327 . S
C637 H631 0.950 . S
C637 C636 1.327 . S
C637 C641 1.429 . S
C638 C621 1.574 . S
C638 H632 0.949 . S
C638 C642 1.368 . S
C639 C620 1.429 . S
C639 C633 1.429 . S
C639 C640 1.523 . S
C640 C621 1.368 . S
C640 C634 1.368 . S
C640 C639 1.523 . S
C641 C625 1.429 . S
C641 C637 1.429 . S
C641 C642 1.523 . S
C642 C626 1.368 . S
C642 C638 1.368 . S
C642 C641 1.523 . S
H643 C618 0.950 . S
H644 C620 0.950 . S
H645 C621 0.949 . S
H646 C623 0.950 . S
H647 C625 0.950 . S
C648 C649 1.349 . S
C648 C650 1.327 . S
C648 H673 0.950 . S
C649 C648 1.349 . S
C649 C665 1.349 . S
C650 C648 1.327 . S
C650 C669 1.429 . S
C650 H674 0.950 . S
C651 C668 1.574 . S
C651 C670 1.368 . S
C651 H675 0.949 . S
H652 C656 0.949 . S
C653 C654 1.349 . S
C653 C655 1.327 . S
C653 H676 0.950 . S
C654 C653 1.349 . S
C654 C666 1.349 . S
C655 C653 1.327 . S
C655 C671 1.429 . S
C655 H677 0.950 . S
C656 H652 0.949 . S
C656 C664 1.574 . S
C656 C672 1.368 . S
H657 C665 0.950 . S
H658 C663 0.950 . S
H659 C664 0.949 . S
H660 C666 0.950 . S
H661 C667 0.950 . S
H662 C668 0.949 . S
C663 H658 0.950 . S
C663 C665 1.327 . S
C663 C669 1.429 . S
C664 C656 1.574 . S
C664 H659 0.949 . S
C664 C670 1.368 . S
C665 C649 1.349 . S
C665 H657 0.950 . S
C665 C663 1.327 . S
C666 C654 1.349 . S
C666 H660 0.950 . S
C666 C667 1.327 . S
C667 H661 0.950 . S
C667 C666 1.327 . S
C667 C671 1.429 . S
C668 C651 1.574 . S
C668 H662 0.949 . S
C668 C672 1.368 . S
C669 C650 1.429 . S
C669 C663 1.429 . S
C669 C670 1.523 . S
C670 C651 1.368 . S
C670 C664 1.368 . S
C670 C669 1.523 . S
C671 C655 1.429 . S
C671 C667 1.429 . S
C671 C672 1.523 . S
C672 C656 1.368 . S
C672 C668 1.368 . S
C672 C671 1.523 . S
H673 C648 0.950 . S
H674 C650 0.950 . S
H675 C651 0.949 . S
H676 C653 0.950 . S
H677 C655 0.950 . S
C139 C132 1.462 . S
C144 C18 1.446 1_556 S
C169 C17 1.461 . S
C174 C41 1.445 1_556 S
C199 C40 1.461 . S
C204 C64 1.445 1_556 S
C229 C87 1.446 1_556 S
C234 C63 1.462 . S
C259 C110 1.445 1_556 S
C264 C86 1.461 . S
C289 C109 1.461 . S
C294 C133 1.445 1_556 S
C319 C108 1.434 . S
C324 C21 1.437 1_554 S
C349 C131 1.434 . S
C354 C44 1.437 1_554 S
C379 C67 1.437 1_554 S
C384 C16 1.434 . S
C409 C90 1.437 1_554 S
C414 C39 1.434 . S
C439 C113 1.437 1_554 S
C444 C62 1.434 . S
C469 C85 1.434 . S
C474 C136 1.437 1_554 S
C499 C19 1.419 . S
C504 C20 1.429 . S
C529 C42 1.419 . S
C534 C43 1.429 . S
C559 C65 1.419 . S
C564 C66 1.429 . S
C589 C88 1.419 . S
C594 C89 1.429 . S
C619 C112 1.429 . S
C624 C111 1.419 . S
C649 C134 1.419 . S
C654 C135 1.429 . S
