# Generated by pormake.
# Topology wgm, (5)-cn, num edge types: 1
# Building blocks:
#     Node 0, Type 0, BuildingBlock: BEQFEK_clean_sbu_0, # of connection points: 5
#     Node 1, Type 0, BuildingBlock: BEQFEK_clean_sbu_0, # of connection points: 5
#     Node 2, Type 0, BuildingBlock: BEQFEK_clean_sbu_0, # of connection points: 5
#     Node 3, Type 0, BuildingBlock: BEQFEK_clean_sbu_0, # of connection points: 5
#     Node 4, Type 0, BuildingBlock: BEQFEK_clean_sbu_0, # of connection points: 5
#     Node 5, Type 0, BuildingBlock: BEQFEK_clean_sbu_0, # of connection points: 5
#     Node 6, Type 0, BuildingBlock: BEQFEK_clean_sbu_0, # of connection points: 5
#     Node 7, Type 0, BuildingBlock: BEQFEK_clean_sbu_0, # of connection points: 5
#     Node 8, Type 0, BuildingBlock: BEQFEK_clean_sbu_0, # of connection points: 5
#     Node 9, Type 0, BuildingBlock: BEQFEK_clean_sbu_0, # of connection points: 5
#     Node 10, Type 0, BuildingBlock: BEQFEK_clean_sbu_0, # of connection points: 5
#     Node 11, Type 0, BuildingBlock: BEQFEK_clean_sbu_0, # of connection points: 5
#     Node 12, Type 0, BuildingBlock: BEQFEK_clean_sbu_0, # of connection points: 5
#     Node 13, Type 0, BuildingBlock: BEQFEK_clean_sbu_0, # of connection points: 5
#     Node 14, Type 0, BuildingBlock: BEQFEK_clean_sbu_0, # of connection points: 5
#     Node 15, Type 0, BuildingBlock: BEQFEK_clean_sbu_0, # of connection points: 5
#     Node 16, Type 0, BuildingBlock: BEQFEK_clean_sbu_0, # of connection points: 5
#     Node 17, Type 0, BuildingBlock: BEQFEK_clean_sbu_0, # of connection points: 5
#     Node 18, Type 0, BuildingBlock: BEQFEK_clean_sbu_0, # of connection points: 5
#     Node 19, Type 0, BuildingBlock: BEQFEK_clean_sbu_0, # of connection points: 5
#     Node 20, Type 0, BuildingBlock: BEQFEK_clean_sbu_0, # of connection points: 5
#     Node 21, Type 0, BuildingBlock: BEQFEK_clean_sbu_0, # of connection points: 5
#     Node 22, Type 0, BuildingBlock: BEQFEK_clean_sbu_0, # of connection points: 5
#     Node 23, Type 0, BuildingBlock: BEQFEK_clean_sbu_0, # of connection points: 5
#     Node 24, Type 0, BuildingBlock: BEQFEK_clean_sbu_0, # of connection points: 5
#     Node 25, Type 0, BuildingBlock: BEQFEK_clean_sbu_0, # of connection points: 5
#     Node 26, Type 0, BuildingBlock: BEQFEK_clean_sbu_0, # of connection points: 5
#     Node 27, Type 0, BuildingBlock: BEQFEK_clean_sbu_0, # of connection points: 5
#     Node 28, Type 0, BuildingBlock: BEQFEK_clean_sbu_0, # of connection points: 5
#     Node 29, Type 0, BuildingBlock: BEQFEK_clean_sbu_0, # of connection points: 5
#     Node 30, Type 0, BuildingBlock: BEQFEK_clean_sbu_0, # of connection points: 5
#     Node 31, Type 0, BuildingBlock: BEQFEK_clean_sbu_0, # of connection points: 5
#     Edge 32, Type (0, 0), BuildingBlock: XIVTED_clean_linker_0, # of connection points: 2
#     Edge 33, Type (0, 0), BuildingBlock: XIVTED_clean_linker_0, # of connection points: 2
#     Edge 34, Type (0, 0), BuildingBlock: XIVTED_clean_linker_0, # of connection points: 2
#     Edge 35, Type (0, 0), BuildingBlock: XIVTED_clean_linker_0, # of connection points: 2
#     Edge 36, Type (0, 0), BuildingBlock: XIVTED_clean_linker_0, # of connection points: 2
#     Edge 37, Type (0, 0), BuildingBlock: XIVTED_clean_linker_0, # of connection points: 2
#     Edge 38, Type (0, 0), BuildingBlock: XIVTED_clean_linker_0, # of connection points: 2
#     Edge 39, Type (0, 0), BuildingBlock: XIVTED_clean_linker_0, # of connection points: 2
#     Edge 40, Type (0, 0), BuildingBlock: XIVTED_clean_linker_0, # of connection points: 2
#     Edge 41, Type (0, 0), BuildingBlock: XIVTED_clean_linker_0, # of connection points: 2
#     Edge 42, Type (0, 0), BuildingBlock: XIVTED_clean_linker_0, # of connection points: 2
#     Edge 43, Type (0, 0), BuildingBlock: XIVTED_clean_linker_0, # of connection points: 2
#     Edge 44, Type (0, 0), BuildingBlock: XIVTED_clean_linker_0, # of connection points: 2
#     Edge 45, Type (0, 0), BuildingBlock: XIVTED_clean_linker_0, # of connection points: 2
#     Edge 46, Type (0, 0), BuildingBlock: XIVTED_clean_linker_0, # of connection points: 2
#     Edge 47, Type (0, 0), BuildingBlock: XIVTED_clean_linker_0, # of connection points: 2
#     Edge 48, Type (0, 0), BuildingBlock: XIVTED_clean_linker_0, # of connection points: 2
#     Edge 49, Type (0, 0), BuildingBlock: XIVTED_clean_linker_0, # of connection points: 2
#     Edge 50, Type (0, 0), BuildingBlock: XIVTED_clean_linker_0, # of connection points: 2
#     Edge 51, Type (0, 0), BuildingBlock: XIVTED_clean_linker_0, # of connection points: 2
#     Edge 52, Type (0, 0), BuildingBlock: XIVTED_clean_linker_0, # of connection points: 2
#     Edge 53, Type (0, 0), BuildingBlock: XIVTED_clean_linker_0, # of connection points: 2
#     Edge 54, Type (0, 0), BuildingBlock: XIVTED_clean_linker_0, # of connection points: 2
#     Edge 55, Type (0, 0), BuildingBlock: XIVTED_clean_linker_0, # of connection points: 2
#     Edge 56, Type (0, 0), BuildingBlock: XIVTED_clean_linker_0, # of connection points: 2
#     Edge 57, Type (0, 0), BuildingBlock: XIVTED_clean_linker_0, # of connection points: 2
#     Edge 58, Type (0, 0), BuildingBlock: XIVTED_clean_linker_0, # of connection points: 2
#     Edge 59, Type (0, 0), BuildingBlock: XIVTED_clean_linker_0, # of connection points: 2
#     Edge 60, Type (0, 0), BuildingBlock: XIVTED_clean_linker_0, # of connection points: 2
#     Edge 61, Type (0, 0), BuildingBlock: XIVTED_clean_linker_0, # of connection points: 2
#     Edge 62, Type (0, 0), BuildingBlock: XIVTED_clean_linker_0, # of connection points: 2
#     Edge 63, Type (0, 0), BuildingBlock: XIVTED_clean_linker_0, # of connection points: 2
#     Edge 64, Type (0, 0), BuildingBlock: XIVTED_clean_linker_0, # of connection points: 2
#     Edge 65, Type (0, 0), BuildingBlock: XIVTED_clean_linker_0, # of connection points: 2
#     Edge 66, Type (0, 0), BuildingBlock: XIVTED_clean_linker_0, # of connection points: 2
#     Edge 67, Type (0, 0), BuildingBlock: XIVTED_clean_linker_0, # of connection points: 2
#     Edge 68, Type (0, 0), BuildingBlock: XIVTED_clean_linker_0, # of connection points: 2
#     Edge 69, Type (0, 0), BuildingBlock: XIVTED_clean_linker_0, # of connection points: 2
#     Edge 70, Type (0, 0), BuildingBlock: XIVTED_clean_linker_0, # of connection points: 2
#     Edge 71, Type (0, 0), BuildingBlock: XIVTED_clean_linker_0, # of connection points: 2
#     Edge 72, Type (0, 0), BuildingBlock: XIVTED_clean_linker_0, # of connection points: 2
#     Edge 73, Type (0, 0), BuildingBlock: XIVTED_clean_linker_0, # of connection points: 2
#     Edge 74, Type (0, 0), BuildingBlock: XIVTED_clean_linker_0, # of connection points: 2
#     Edge 75, Type (0, 0), BuildingBlock: XIVTED_clean_linker_0, # of connection points: 2
#     Edge 76, Type (0, 0), BuildingBlock: XIVTED_clean_linker_0, # of connection points: 2
#     Edge 77, Type (0, 0), BuildingBlock: XIVTED_clean_linker_0, # of connection points: 2
#     Edge 78, Type (0, 0), BuildingBlock: XIVTED_clean_linker_0, # of connection points: 2
#     Edge 79, Type (0, 0), BuildingBlock: XIVTED_clean_linker_0, # of connection points: 2
#     Edge 80, Type (0, 0), BuildingBlock: XIVTED_clean_linker_0, # of connection points: 2
#     Edge 81, Type (0, 0), BuildingBlock: XIVTED_clean_linker_0, # of connection points: 2
#     Edge 82, Type (0, 0), BuildingBlock: XIVTED_clean_linker_0, # of connection points: 2
#     Edge 83, Type (0, 0), BuildingBlock: XIVTED_clean_linker_0, # of connection points: 2
#     Edge 84, Type (0, 0), BuildingBlock: XIVTED_clean_linker_0, # of connection points: 2
#     Edge 85, Type (0, 0), BuildingBlock: XIVTED_clean_linker_0, # of connection points: 2
#     Edge 86, Type (0, 0), BuildingBlock: XIVTED_clean_linker_0, # of connection points: 2
#     Edge 87, Type (0, 0), BuildingBlock: XIVTED_clean_linker_0, # of connection points: 2
#     Edge 88, Type (0, 0), BuildingBlock: XIVTED_clean_linker_0, # of connection points: 2
#     Edge 89, Type (0, 0), BuildingBlock: XIVTED_clean_linker_0, # of connection points: 2
#     Edge 90, Type (0, 0), BuildingBlock: XIVTED_clean_linker_0, # of connection points: 2
#     Edge 91, Type (0, 0), BuildingBlock: XIVTED_clean_linker_0, # of connection points: 2
#     Edge 92, Type (0, 0), BuildingBlock: XIVTED_clean_linker_0, # of connection points: 2
#     Edge 93, Type (0, 0), BuildingBlock: XIVTED_clean_linker_0, # of connection points: 2
#     Edge 94, Type (0, 0), BuildingBlock: XIVTED_clean_linker_0, # of connection points: 2
#     Edge 95, Type (0, 0), BuildingBlock: XIVTED_clean_linker_0, # of connection points: 2
#     Edge 96, Type (0, 0), BuildingBlock: XIVTED_clean_linker_0, # of connection points: 2
#     Edge 97, Type (0, 0), BuildingBlock: XIVTED_clean_linker_0, # of connection points: 2
#     Edge 98, Type (0, 0), BuildingBlock: XIVTED_clean_linker_0, # of connection points: 2
#     Edge 99, Type (0, 0), BuildingBlock: XIVTED_clean_linker_0, # of connection points: 2
#     Edge 100, Type (0, 0), BuildingBlock: XIVTED_clean_linker_0, # of connection points: 2
#     Edge 101, Type (0, 0), BuildingBlock: XIVTED_clean_linker_0, # of connection points: 2
#     Edge 102, Type (0, 0), BuildingBlock: XIVTED_clean_linker_0, # of connection points: 2
#     Edge 103, Type (0, 0), BuildingBlock: XIVTED_clean_linker_0, # of connection points: 2
#     Edge 104, Type (0, 0), BuildingBlock: XIVTED_clean_linker_0, # of connection points: 2
#     Edge 105, Type (0, 0), BuildingBlock: XIVTED_clean_linker_0, # of connection points: 2
#     Edge 106, Type (0, 0), BuildingBlock: XIVTED_clean_linker_0, # of connection points: 2
#     Edge 107, Type (0, 0), BuildingBlock: XIVTED_clean_linker_0, # of connection points: 2
#     Edge 108, Type (0, 0), BuildingBlock: XIVTED_clean_linker_0, # of connection points: 2
#     Edge 109, Type (0, 0), BuildingBlock: XIVTED_clean_linker_0, # of connection points: 2
#     Edge 110, Type (0, 0), BuildingBlock: XIVTED_clean_linker_0, # of connection points: 2
#     Edge 111, Type (0, 0), BuildingBlock: XIVTED_clean_linker_0, # of connection points: 2
# Relax obj value: 0.070
# Max RMSD: 0.115
# Mean RMSD: 0.115
data_MOF--net-wgm--node1-BEQFEK_clean_sbu_0--edge1-XIVTED_clean_linker_0
_symmetry_space_group_name_H-M    P1
_symmetry_Int_Tables_number       1
_symmetry_cell_setting            triclinic
loop_
_symmetry_equiv_pos_as_xyz
'x, y, z'
_cell_length_a     48.525066
_cell_length_b     48.508029
_cell_length_c     83.762751
_cell_angle_alpha  89.994161
_cell_angle_beta   89.985118
_cell_angle_gamma 90.035285
loop_
_atom_site_label
_atom_site_type_symbol
_atom_site_fract_x
_atom_site_fract_y
_atom_site_fract_z
_atom_type_partial_charge
Co0 Co 0.19573 0.10429 0.30912 0.0
Co1 Co 0.20077 0.15282 0.33357 0.0
C2 C 0.14876 0.11972 0.33014 0.0
O3 O 0.15881 0.10555 0.31878 0.0
O4 O 0.1629 0.13831 0.33708 0.0
C5 C 0.1754 0.07511 0.2817 0.0
O6 O 0.15663 0.09458 0.28115 0.0
C7 C 0.18578 0.20434 0.34954 0.0
C8 C 0.22459 0.21546 0.3618 0.0
C9 C 0.19762 0.22393 0.35951 0.0
N10 N 0.20503 0.1854 0.34601 0.0
N11 N 0.22816 0.19214 0.35336 0.0
C12 C 0.15621 0.20165 0.34465 0.0
H13 H 0.15502 0.19687 0.33171 0.0
H14 H 0.14392 0.22025 0.34738 0.0
H15 H 0.14692 0.1841 0.35121 0.0
C16 C 0.21386 0.14878 0.28681 0.0
N17 N 0.20649 0.13952 0.30137 0.0
N18 N 0.20772 0.16007 0.31163 0.0
C19 C 0.21557 0.18312 0.30389 0.0
C20 C 0.21967 0.17676 0.28791 0.0
C21 C 0.21446 0.13129 0.27209 0.0
H22 H 0.19306 0.12797 0.2679 0.0
H23 H 0.22613 0.14114 0.26226 0.0
H24 H 0.22369 0.11094 0.27486 0.0
O25 O 0.22219 0.09061 0.32519 0.0
O26 O 0.22779 0.12591 0.34178 0.0
H27 H 0.22956 0.22565 0.30352 0.0
H28 H 0.2012 0.21822 0.31686 0.0
C29 C 0.22081 0.21022 0.31187 0.0
H30 H 0.23546 0.20724 0.32187 0.0
H31 H 0.2463 0.18064 0.35275 0.0
O32 O 0.1942 0.07601 0.29222 0.0
C33 C 0.23353 0.1015 0.33735 0.0
Co34 Co 0.13154 0.94756 0.56016 0.0
Co35 Co 0.08251 0.94976 0.58461 0.0
C36 C 0.1197 0.90101 0.58291 0.0
O37 O 0.13382 0.91206 0.57181 0.0
O38 O 0.09896 0.91323 0.58893 0.0
C39 C 0.16547 0.92374 0.53592 0.0
O40 O 0.15291 0.9009 0.5402 0.0
C41 C 0.03189 0.93409 0.60152 0.0
C42 C 0.01722 0.97436 0.61051 0.0
C43 C 0.01086 0.94653 0.61015 0.0
N44 N 0.04962 0.95378 0.59682 0.0
N45 N 0.0408 0.97777 0.60227 0.0
C46 C 0.03654 0.90397 0.59869 0.0
H47 H 0.05567 0.89769 0.60491 0.0
H48 H 0.03961 0.90023 0.58574 0.0
H49 H 0.01953 0.89099 0.60326 0.0
C50 C 0.08618 0.95934 0.53755 0.0
N51 N 0.09561 0.95377 0.55232 0.0
N52 N 0.07494 0.95446 0.56249 0.0
C53 C 0.05159 0.96027 0.55446 0.0
C54 C 0.05794 0.96367 0.53841 0.0
C55 C 0.10438 0.96269 0.52325 0.0
H56 H 0.12281 0.97499 0.52651 0.0
H57 H 0.11149 0.94207 0.51927 0.0
H58 H 0.0935 0.973 0.51325 0.0
O59 O 0.14247 0.9778 0.57458 0.0
O60 O 0.10835 0.97843 0.59226 0.0
H61 H 0.02277 0.98026 0.5699 0.0
H62 H 0.00704 0.96332 0.55296 0.0
C63 C 0.02367 0.96193 0.562 0.0
H64 H 0.02009 0.94333 0.56938 0.0
H65 H 0.05089 -0.00351 0.60035 0.0
O66 O 0.1589 0.94629 0.54263 0.0
C67 C 0.13126 0.9876 0.58709 0.0
Co68 Co 0.29448 0.88506 0.81051 0.0
Co69 Co 0.29249 0.8377 0.83605 0.0
C70 C 0.34258 0.87286 0.83185 0.0
O71 O 0.33095 0.88649 0.82077 0.0
O72 O 0.33029 0.85303 0.83885 0.0
C73 C 0.31658 0.91717 0.78482 0.0
O74 O 0.33966 0.90469 0.78866 0.0
C75 C 0.30743 0.78694 0.85308 0.0
C76 C 0.26862 0.77728 0.8657 0.0
C77 C 0.29542 0.76805 0.86351 0.0
N78 N 0.28857 0.8062 0.84941 0.0
N79 N 0.26547 0.80039 0.85704 0.0
C80 C 0.33551 0.78603 0.84569 0.0
H81 H 0.33595 0.79835 0.83453 0.0
H82 H 0.34155 0.76446 0.84302 0.0
H83 H 0.35067 0.79504 0.85413 0.0
C84 C 0.27907 0.83871 0.78933 0.0
N85 N 0.28579 0.84887 0.80376 0.0
N86 N 0.28517 0.82883 0.81436 0.0
C87 C 0.27803 0.80518 0.80697 0.0
C88 C 0.27397 0.81066 0.79085 0.0
C89 C 0.27595 0.85603 0.77465 0.0
H90 H 0.26447 0.87512 0.77761 0.0
H91 H 0.29668 0.86207 0.77028 0.0
H92 H 0.26486 0.84488 0.76504 0.0
O93 O 0.26722 0.8987 0.82599 0.0
O94 O 0.26516 0.86492 0.84387 0.0
H95 H 0.25978 0.77871 0.82445 0.0
H96 H 0.27146 0.76084 0.80672 0.0
C97 C 0.27604 0.77782 0.81516 0.0
H98 H 0.29587 0.77323 0.82111 0.0
H99 H 0.24752 0.81215 0.85627 0.0
O100 O 0.29464 0.91128 0.79237 0.0
C101 C 0.25747 0.88839 0.83876 0.0
Co102 Co 0.36041 0.04131 0.05876 0.0
Co103 Co 0.40955 0.04234 0.08316 0.0
C104 C 0.37012 0.08887 0.08139 0.0
O105 O 0.35625 0.07638 0.0707 0.0
O106 O 0.39202 0.07847 0.08718 0.0
C107 C 0.32609 0.06426 0.03453 0.0
O108 O 0.33834 0.08727 0.03881 0.0
C109 C 0.45874 0.05907 0.10129 0.0
C110 C 0.47613 0.01866 0.10817 0.0
C111 C 0.48051 0.0468 0.10935 0.0
N112 N 0.44249 0.03904 0.09543 0.0
N113 N 0.45292 0.01496 0.09965 0.0
C114 C 0.45193 0.0891 0.10018 0.0
H115 H 0.43197 0.09271 0.10627 0.0
H116 H 0.44943 0.09499 0.08746 0.0
H117 H 0.46761 0.10235 0.10595 0.0
C118 C 0.40647 0.03181 0.03617 0.0
N119 N 0.39667 0.03703 0.05091 0.0
N120 N 0.41734 0.03783 0.06107 0.0
C121 C 0.44104 0.03357 0.05307 0.0
C122 C 0.43495 0.02942 0.03704 0.0
C123 C 0.38854 0.02696 0.02191 0.0
H124 H 0.37047 0.01429 0.02537 0.0
H125 H 0.38084 0.04708 0.01746 0.0
H126 H 0.3999 0.0164 0.01218 0.0
O127 O 0.35094 0.01045 0.07299 0.0
O128 O 0.38459 0.01281 0.0909 0.0
H129 H 0.47197 0.01526 0.06779 0.0
H130 H 0.48558 0.03546 0.05146 0.0
C131 C 0.46903 0.03419 0.06056 0.0
H132 H 0.47068 0.05229 0.06857 0.0
H133 H 0.44421 -0.00403 0.09665 0.0
O134 O 0.33303 0.04179 0.04122 0.0
C135 C 0.36246 0.00193 0.08571 0.0
Co136 Co 0.20031 0.88705 0.17883 0.0
Co137 Co 0.20091 0.83655 0.15572 0.0
C138 C 0.15263 0.8738 0.15708 0.0
O139 O 0.16478 0.88882 0.16735 0.0
O140 O 0.16386 0.85207 0.15163 0.0
C141 C 0.17831 0.91836 0.20467 0.0
O142 O 0.15857 0.89983 0.2043 0.0
C143 C 0.18524 0.78375 0.14141 0.0
C144 C 0.22281 0.77318 0.12783 0.0
C145 C 0.19636 0.76398 0.13121 0.0
N146 N 0.20423 0.8035 0.14376 0.0
N147 N 0.22661 0.7971 0.1356 0.0
C148 C 0.15783 0.78361 0.14959 0.0
H149 H 0.15837 0.797 0.16034 0.0
H150 H 0.15199 0.76233 0.1531 0.0
H151 H 0.14198 0.79188 0.14134 0.0
C152 C 0.21303 0.84301 0.2025 0.0
N153 N 0.2067 0.85157 0.18763 0.0
N154 N 0.20695 0.83025 0.17789 0.0
C155 C 0.2133 0.8074 0.18628 0.0
C156 C 0.21723 0.8147 0.20215 0.0
C157 C 0.21464 0.86166 0.21671 0.0
H158 H 0.22619 0.88064 0.21356 0.0
H159 H 0.19349 0.86768 0.22027 0.0
H160 H 0.2245 0.85156 0.22709 0.0
O161 O 0.2305 0.89678 0.16415 0.0
O162 O 0.22929 0.86186 0.14706 0.0
H163 H 0.23109 0.78161 0.16827 0.0
H164 H 0.228 0.76522 0.18749 0.0
C165 C 0.21792 0.77959 0.17901 0.0
H166 H 0.19783 0.77076 0.17533 0.0
H167 H 0.24445 0.80912 0.13531 0.0
O168 O 0.19866 0.91622 0.19522 0.0
C169 C 0.23939 0.88471 0.1517 0.0
Co170 Co 0.35669 0.94405 0.43331 0.0
Co171 Co 0.4037 0.94832 0.40766 0.0
C172 C 0.36959 0.8972 0.41138 0.0
O173 O 0.35588 0.90784 0.42276 0.0
O174 O 0.38888 0.91043 0.40447 0.0
C175 C 0.32241 0.92112 0.45798 0.0
O176 O 0.33246 0.89748 0.45302 0.0
C177 C 0.45465 0.93378 0.39096 0.0
C178 C 0.46368 0.97203 0.37763 0.0
C179 C 0.47329 0.94547 0.38026 0.0
N180 N 0.43514 0.95255 0.39432 0.0
N181 N 0.44059 0.97533 0.38629 0.0
C182 C 0.45593 0.90609 0.39882 0.0
H183 H 0.44371 0.90611 0.41002 0.0
H184 H 0.47758 0.90042 0.40153 0.0
H185 H 0.447 0.8904 0.39069 0.0
C186 C 0.40281 0.9596 0.45455 0.0
N187 N 0.39271 0.95324 0.44006 0.0
N188 N 0.41256 0.9551 0.42939 0.0
C189 C 0.43598 0.96291 0.43678 0.0
C190 C 0.43057 0.96594 0.45298 0.0
C191 C 0.38559 0.96124 0.46935 0.0
H192 H 0.3668 0.97354 0.46689 0.0
H193 H 0.37896 0.94017 0.47279 0.0
H194 H 0.39697 0.97079 0.47941 0.0
O195 O 0.34249 0.97148 0.41806 0.0
O196 O 0.37609 0.97547 0.40018 0.0
H197 H 0.46083 0.98253 0.419 0.0
H198 H 0.47965 0.97294 0.43682 0.0
C199 C 0.46304 0.96674 0.42848 0.0
H200 H 0.46913 0.94711 0.42275 0.0
H201 H 0.42854 0.99312 0.38674 0.0
O202 O 0.33058 0.94336 0.4515 0.0
C203 C 0.35243 0.98217 0.40544 0.0
Co204 Co 0.29198 0.10667 0.68093 0.0
Co205 Co 0.29185 0.15459 0.6558 0.0
C206 C 0.33993 0.11722 0.65885 0.0
O207 O 0.32756 0.10324 0.66953 0.0
O208 O 0.32891 0.13846 0.65265 0.0
C209 C 0.31461 0.07116 0.70484 0.0
O210 O 0.33811 0.08087 0.69944 0.0
C211 C 0.30764 0.20645 0.64038 0.0
C212 C 0.27114 0.21494 0.62541 0.0
C213 C 0.29692 0.2252 0.62942 0.0
N214 N 0.28903 0.18629 0.6426 0.0
N215 N 0.26732 0.19141 0.63358 0.0
C216 C 0.33417 0.20802 0.64943 0.0
H217 H 0.33313 0.19501 0.66032 0.0
H218 H 0.33879 0.22965 0.65283 0.0
H219 H 0.35113 0.20015 0.6418 0.0
C220 C 0.28023 0.15326 0.70269 0.0
N221 N 0.28611 0.14317 0.68812 0.0
N222 N 0.28541 0.16336 0.67761 0.0
C223 C 0.27878 0.18697 0.68519 0.0
C224 C 0.2754 0.18136 0.70133 0.0
C225 C 0.27958 0.13616 0.71755 0.0
H226 H 0.29897 0.12418 0.71847 0.0
H227 H 0.27725 0.14899 0.72842 0.0
H228 H 0.26227 0.12126 0.7168 0.0
O229 O 0.26192 0.09553 0.66643 0.0
O230 O 0.2637 0.12836 0.64799 0.0
H231 H 0.26126 0.2101 0.66588 0.0
H232 H 0.26147 0.22814 0.68469 0.0
C233 C 0.2732 0.21378 0.67694 0.0
H234 H 0.29306 0.2236 0.67368 0.0
H235 H 0.24986 0.17887 0.63305 0.0
O236 O 0.29216 0.08006 0.69895 0.0
C237 C 0.25343 0.10612 0.65344 0.0
Co238 Co 0.13315 0.04688 0.93322 0.0
Co239 Co 0.08584 0.0405 0.90785 0.0
C240 C 0.12065 0.09171 0.91001 0.0
O241 O 0.134 0.08264 0.92198 0.0
O242 O 0.10187 0.07739 0.90337 0.0
C243 C 0.16798 0.07057 0.95745 0.0
O244 O 0.15791 0.09411 0.95236 0.0
C245 C 0.03606 0.05512 0.88997 0.0
C246 C 0.0225 0.01466 0.88069 0.0
C247 C 0.01576 0.0424 0.88091 0.0
N248 N 0.05374 0.03569 0.89503 0.0
N249 N 0.04558 0.01157 0.88942 0.0
C250 C 0.04021 0.08531 0.89286 0.0
H251 H 0.04341 0.08902 0.9058 0.0
H252 H 0.02292 0.09803 0.88841 0.0
H253 H 0.05912 0.09202 0.88654 0.0
C254 C 0.08692 0.03361 0.95505 0.0
N255 N 0.09711 0.03859 0.94038 0.0
N256 N 0.07714 0.03649 0.92982 0.0
C257 C 0.0535 0.03027 0.93746 0.0
C258 C 0.05892 0.02813 0.95369 0.0
C259 C 0.10423 0.03234 0.96982 0.0
H260 H 0.12301 0.01999 0.96744 0.0
H261 H 0.11085 0.05351 0.97306 0.0
H262 H 0.09289 0.02306 0.97998 0.0
O263 O 0.14678 0.01824 0.91844 0.0
O264 O 0.1125 0.01193 0.90124 0.0
H265 H 0.02636 0.0089 0.92162 0.0
H266 H 0.00899 0.02569 0.93807 0.0
C267 C 0.02613 0.02741 0.92938 0.0
H268 H 0.02239 0.04571 0.92178 0.0
H269 H 0.0558 0.99301 0.89153 0.0
O270 O 0.15961 0.04819 0.95122 0.0
C271 C 0.13639 0.00598 0.90644 0.0
Co272 Co 0.79042 0.88078 0.68057 0.0
Co273 Co 0.79037 0.83178 0.65601 0.0
C274 C 0.83795 0.87039 0.65829 0.0
O275 O 0.82615 0.88407 0.6693 0.0
O276 O 0.82655 0.84934 0.65208 0.0
C277 C 0.81295 0.91419 0.70529 0.0
O278 O 0.83568 0.90097 0.70155 0.0
C279 C 0.80787 0.78215 0.63857 0.0
C280 C 0.768 0.76583 0.62996 0.0
C281 C 0.79609 0.76079 0.62988 0.0
N282 N 0.78758 0.79881 0.64369 0.0
N283 N 0.76382 0.78897 0.63848 0.0
C284 C 0.83784 0.78821 0.64099 0.0
H285 H 0.84206 0.79082 0.65392 0.0
H286 H 0.85141 0.77211 0.63592 0.0
H287 H 0.84286 0.80794 0.635 0.0
C288 C 0.77908 0.83507 0.70298 0.0
N289 N 0.78491 0.84467 0.68828 0.0
N290 N 0.78521 0.824 0.67811 0.0
C291 C 0.77988 0.80045 0.68608 0.0
C292 C 0.7757 0.80669 0.70209 0.0
C293 C 0.7745 0.85316 0.71721 0.0
H294 H 0.76237 0.87154 0.71367 0.0
H295 H 0.79473 0.86033 0.72176 0.0
H296 H 0.76345 0.84214 0.72689 0.0
O297 O 0.7604 0.8909 0.66588 0.0
O298 O 0.76128 0.85695 0.64808 0.0
H299 H 0.76094 0.77069 0.6708 0.0
H300 H 0.779 0.75583 0.68761 0.0
C301 C 0.7794 0.77248 0.67854 0.0
H302 H 0.79795 0.76983 0.67099 0.0
H303 H 0.74475 0.79812 0.64072 0.0
O304 O 0.7907 0.90817 0.69809 0.0
C305 C 0.75133 0.87955 0.65323 0.0
Co306 Co 0.85585 0.04168 0.43057 0.0
Co307 Co 0.90465 0.04118 0.40583 0.0
C308 C 0.86621 0.08913 0.40845 0.0
O309 O 0.8525 0.07775 0.4196 0.0
O310 O 0.88681 0.07717 0.40213 0.0
C311 C 0.82228 0.06356 0.45555 0.0
O312 O 0.83446 0.08675 0.45154 0.0
C313 C 0.95617 0.05882 0.38993 0.0
C314 C 0.96663 0.02134 0.37622 0.0
C315 C 0.97524 0.04807 0.37923 0.0
N316 N 0.9373 0.03922 0.39313 0.0
N317 N 0.94377 0.01686 0.38494 0.0
C318 C 0.95512 0.08761 0.39638 0.0
H319 H 0.93468 0.09236 0.40148 0.0
H320 H 0.9705 0.08983 0.40608 0.0
H321 H 0.96022 0.10269 0.38686 0.0
C322 C 0.90181 0.02962 0.45273 0.0
N323 N 0.89213 0.03578 0.4381 0.0
N324 N 0.91262 0.03542 0.4278 0.0
C325 C 0.93606 0.02895 0.43557 0.0
C326 C 0.92999 0.02509 0.45163 0.0
C327 C 0.88389 0.02579 0.46711 0.0
H328 H 0.86576 0.013 0.46391 0.0
H329 H 0.87627 0.04621 0.47112 0.0
H330 H 0.89513 0.01575 0.47706 0.0
O331 O 0.84537 0.01187 0.41567 0.0
O332 O 0.87947 0.01215 0.39795 0.0
H333 H 0.96304 0.01039 0.41848 0.0
H334 H 0.98032 0.0222 0.43639 0.0
C335 C 0.96369 0.02675 0.42772 0.0
H336 H 0.96857 0.04651 0.42175 0.0
H337 H 0.93231 -0.00134 0.3851 0.0
O338 O 0.82885 0.04145 0.44835 0.0
C339 C 0.8567 0.00254 0.40306 0.0
Co340 Co 0.69914 0.111 0.18196 0.0
Co341 Co 0.70055 0.15925 0.15695 0.0
C342 C 0.65197 0.12205 0.15944 0.0
O343 O 0.6634 0.10832 0.17057 0.0
O344 O 0.66391 0.14269 0.15308 0.0
C345 C 0.67592 0.07869 0.20713 0.0
O346 O 0.65321 0.09178 0.20321 0.0
C347 C 0.68574 0.20896 0.1387 0.0
C348 C 0.72667 0.22352 0.13069 0.0
C349 C 0.69883 0.22968 0.13012 0.0
N350 N 0.70506 0.19161 0.14427 0.0
N351 N 0.72945 0.20036 0.13939 0.0
C352 C 0.65544 0.20429 0.14072 0.0
H353 H 0.65035 0.20355 0.15363 0.0
H354 H 0.64285 0.22021 0.13468 0.0
H355 H 0.65001 0.18404 0.1355 0.0
C356 C 0.71098 0.15728 0.20396 0.0
N357 N 0.70545 0.14725 0.18932 0.0
N358 N 0.70551 0.16761 0.17894 0.0
C359 C 0.71067 0.19139 0.1867 0.0
C360 C 0.71444 0.18563 0.2028 0.0
C361 C 0.71492 0.13964 0.21844 0.0
H362 H 0.72661 0.12082 0.21521 0.0
H363 H 0.69445 0.1332 0.22303 0.0
H364 H 0.72616 0.15078 0.228 0.0
O365 O 0.72904 0.09947 0.16752 0.0
O366 O 0.72895 0.13302 0.14949 0.0
H367 H 0.72968 0.22106 0.17138 0.0
H368 H 0.71071 0.23607 0.18781 0.0
C369 C 0.71096 0.21916 0.1789 0.0
H370 H 0.69265 0.22129 0.17111 0.0
H371 H 0.74802 0.19052 0.14203 0.0
O372 O 0.69817 0.08431 0.19982 0.0
C373 C 0.73838 0.11032 0.15479 0.0
Co374 Co 0.63761 0.95111 0.92906 0.0
Co375 Co 0.58907 0.95178 0.90443 0.0
C376 C 0.62397 0.90191 0.90875 0.0
O377 O 0.63835 0.91381 0.91942 0.0
O378 O 0.60404 0.91424 0.90197 0.0
C379 C 0.66608 0.93343 0.95745 0.0
O380 O 0.64585 0.91558 0.95884 0.0
C381 C 0.5378 0.93498 0.8887 0.0
C382 C 0.5275 0.97226 0.87479 0.0
C383 C 0.51861 0.9456 0.87797 0.0
N384 N 0.5569 0.95444 0.89157 0.0
N385 N 0.55068 0.97663 0.8832 0.0
C386 C 0.53751 0.90765 0.897 0.0
H387 H 0.55015 0.90849 0.90803 0.0
H388 H 0.51611 0.9016 0.90012 0.0
H389 H 0.54647 0.89179 0.889 0.0
C390 C 0.59229 0.96873 0.95083 0.0
N391 N 0.60185 0.96041 0.93652 0.0
N392 N 0.58136 0.96031 0.92619 0.0
C393 C 0.55807 0.96825 0.93367 0.0
C394 C 0.56423 0.97379 0.94954 0.0
C395 C 0.61003 0.9741 0.96511 0.0
H396 H 0.63061 0.98154 0.96131 0.0
H397 H 0.6126 0.95467 0.97192 0.0
H398 H 0.60047 0.98965 0.9731 0.0
O399 O 0.64978 0.97865 0.91324 0.0
O400 O 0.61584 0.97839 0.89547 0.0
H401 H 0.53104 0.98533 0.9161 0.0
H402 H 0.51379 0.97501 0.93432 0.0
C403 C 0.53042 0.96975 0.92579 0.0
H404 H 0.52551 0.94953 0.92038 0.0
H405 H 0.56232 0.99473 0.88319 0.0
O406 O 0.66584 0.95079 0.9461 0.0
C407 C 0.63905 0.98728 0.90031 0.0
Co408 Co 0.79931 0.10823 0.80626 0.0
Co409 Co 0.79734 0.15576 0.83177 0.0
C410 C 0.84569 0.11771 0.82922 0.0
O411 O 0.83483 0.10455 0.81769 0.0
O412 O 0.83345 0.13803 0.8357 0.0
C413 C 0.82143 0.07239 0.78225 0.0
O414 O 0.84519 0.08148 0.78762 0.0
C415 C 0.81313 0.20735 0.8481 0.0
C416 C 0.7761 0.21503 0.8628 0.0
C417 C 0.8021 0.2253 0.85938 0.0
N418 N 0.7944 0.18757 0.84504 0.0
N419 N 0.77231 0.19238 0.85383 0.0
C420 C 0.84143 0.20793 0.84099 0.0
H421 H 0.84674 0.18779 0.83561 0.0
H422 H 0.84215 0.22363 0.83138 0.0
H423 H 0.8569 0.21351 0.8502 0.0
C424 C 0.788 0.15522 0.7847 0.0
N425 N 0.79361 0.14488 0.79925 0.0
N426 N 0.79229 0.16481 0.80988 0.0
C427 C 0.78544 0.18848 0.80244 0.0
C428 C 0.78258 0.1832 0.78622 0.0
C429 C 0.78786 0.1384 0.76972 0.0
H430 H 0.77015 0.12393 0.77003 0.0
H431 H 0.80701 0.12599 0.76909 0.0
H432 H 0.78646 0.15153 0.75891 0.0
O433 O 0.76904 0.09673 0.82065 0.0
O434 O 0.7684 0.13 0.83885 0.0
H435 H 0.76581 0.2104 0.82151 0.0
H436 H 0.76771 0.22953 0.80311 0.0
C437 C 0.7788 0.21481 0.81093 0.0
H438 H 0.7982 0.22452 0.81508 0.0
H439 H 0.75476 0.17993 0.85387 0.0
O440 O 0.79923 0.08185 0.78816 0.0
C441 C 0.7592 0.10737 0.83333 0.0
Co442 Co 0.63428 0.04324 0.5602 0.0
Co443 Co 0.58583 0.0411 0.58497 0.0
C444 C 0.62281 0.08999 0.58285 0.0
O445 O 0.63684 0.07891 0.57172 0.0
O446 O 0.60222 0.07771 0.58902 0.0
C447 C 0.6687 0.0664 0.53579 0.0
O448 O 0.65767 0.08975 0.54051 0.0
C449 C 0.53488 0.05692 0.60133 0.0
C450 C 0.52384 0.01827 0.61374 0.0
C451 C 0.5154 0.04534 0.61156 0.0
N452 N 0.55372 0.03757 0.59779 0.0
N453 N 0.54707 0.01455 0.60527 0.0
C454 C 0.53508 0.08511 0.59407 0.0
H455 H 0.54783 0.08532 0.58306 0.0
H456 H 0.51381 0.09181 0.59113 0.0
H457 H 0.5442 0.09992 0.60267 0.0
C458 C 0.58837 0.03149 0.53795 0.0
N459 N 0.59808 0.03706 0.55265 0.0
N460 N 0.57767 0.03595 0.56299 0.0
C461 C 0.55426 0.02951 0.55517 0.0
C462 C 0.56026 0.02651 0.53905 0.0
C463 C 0.60622 0.02874 0.52346 0.0
H464 H 0.62425 0.01558 0.5263 0.0
H465 H 0.61404 0.04941 0.52003 0.0
H466 H 0.59489 0.01963 0.51325 0.0
O467 O 0.64548 0.01286 0.57457 0.0
O468 O 0.61163 0.01246 0.5924 0.0
H469 H 0.52777 0.00982 0.57212 0.0
H470 H 0.51016 0.02176 0.55436 0.0
C471 C 0.52672 0.02644 0.56305 0.0
H472 H 0.52141 0.04589 0.56923 0.0
H473 H 0.5584 -0.00368 0.60459 0.0
O474 O 0.66114 0.04401 0.54236 0.0
C475 C 0.63435 0.0031 0.58712 0.0
Co476 Co 0.69574 0.88564 0.30904 0.0
Co477 Co 0.69621 0.83669 0.33363 0.0
C478 C 0.64871 0.87541 0.33177 0.0
O479 O 0.66059 0.88935 0.32088 0.0
O480 O 0.65987 0.85399 0.33768 0.0
C481 C 0.67334 0.92281 0.28584 0.0
O482 O 0.64966 0.91397 0.29147 0.0
C483 C 0.68114 0.78423 0.34943 0.0
C484 C 0.71925 0.77567 0.363 0.0
C485 C 0.69303 0.76561 0.36002 0.0
N486 N 0.69963 0.80421 0.34631 0.0
N487 N 0.72236 0.79887 0.35442 0.0
C488 C 0.65232 0.78401 0.34305 0.0
H489 H 0.64651 0.80447 0.33831 0.0
H490 H 0.65091 0.769 0.3331 0.0
H491 H 0.6376 0.77767 0.35251 0.0
C492 C 0.70614 0.83968 0.28662 0.0
N493 N 0.70069 0.84931 0.30135 0.0
N494 N 0.70132 0.82873 0.31159 0.0
C495 C 0.70741 0.80531 0.30368 0.0
C496 C 0.71057 0.81146 0.28759 0.0
C497 C 0.70711 0.85737 0.27199 0.0
H498 H 0.72473 0.87187 0.27293 0.0
H499 H 0.68797 0.86978 0.27126 0.0
H500 H 0.70916 0.84492 0.26095 0.0
O501 O 0.72645 0.8958 0.32333 0.0
O502 O 0.72525 0.86211 0.34125 0.0
H503 H 0.72657 0.78132 0.32205 0.0
H504 H 0.72276 0.76329 0.30337 0.0
C505 C 0.71289 0.7782 0.31161 0.0
H506 H 0.69315 0.7694 0.31591 0.0
H507 H 0.73993 0.81129 0.35425 0.0
O508 O 0.69562 0.91282 0.29133 0.0
C509 C 0.73548 0.88451 0.336 0.0
Co510 Co 0.85501 0.94806 0.0612 0.0
Co511 Co 0.9047 0.94908 0.08508 0.0
C512 C 0.86918 0.89948 0.08202 0.0
O513 O 0.85445 0.91121 0.07144 0.0
O514 O 0.88963 0.91174 0.08835 0.0
C515 C 0.82518 0.93005 0.03324 0.0
O516 O 0.84518 0.91204 0.03158 0.0
C517 C 0.95679 0.9338 0.1006 0.0
C518 C 0.96783 0.97272 0.11271 0.0
C519 C 0.97665 0.94581 0.1104 0.0
N520 N 0.9374 0.95279 0.09739 0.0
N521 N 0.94405 0.97595 0.10472 0.0
C522 C 0.95683 0.90558 0.09337 0.0
H523 H 0.94367 0.9051 0.08254 0.0
H524 H 0.9781 0.89926 0.09017 0.0
H525 H 0.94832 0.89065 0.10212 0.0
C526 C 0.89954 0.96456 0.03856 0.0
N527 N 0.89052 0.95667 0.05308 0.0
N528 N 0.91145 0.95658 0.06311 0.0
C529 C 0.93448 0.96409 0.05523 0.0
C530 C 0.92768 0.96938 0.03943 0.0
C531 C 0.88126 0.96991 0.02451 0.0
H532 H 0.86092 0.97757 0.02856 0.0
H533 H 0.87825 0.95041 0.01782 0.0
H534 H 0.89066 0.98525 0.01632 0.0
O535 O 0.84382 0.97646 0.07674 0.0
O536 O 0.87855 0.97623 0.09397 0.0
H537 H 0.96267 0.98192 0.07192 0.0
H538 H 0.97884 0.9698 0.05375 0.0
C539 C 0.96249 0.96556 0.06266 0.0
H540 H 0.9672 0.94567 0.06852 0.0
H541 H 0.93238 0.99399 0.10421 0.0
O542 O 0.82606 0.94742 0.04457 0.0
C543 C 0.85531 0.98537 0.08938 0.0
Co544 Co 0.69628 0.6063 0.81083 0.0
Co545 Co 0.69781 0.65514 0.83545 0.0
C546 C 0.64868 0.61839 0.83272 0.0
O547 O 0.66002 0.6042 0.82174 0.0
O548 O 0.66094 0.63889 0.83902 0.0
C549 C 0.67431 0.57275 0.78569 0.0
O550 O 0.65099 0.58474 0.78957 0.0
C551 C 0.68192 0.70546 0.85272 0.0
C552 C 0.72215 0.71993 0.86187 0.0
C553 C 0.69432 0.72626 0.86157 0.0
N554 N 0.70161 0.68788 0.84787 0.0
N555 N 0.72558 0.6966 0.85341 0.0
C556 C 0.65182 0.70081 0.84987 0.0
H557 H 0.648 0.69854 0.83688 0.0
H558 H 0.63878 0.71744 0.85484 0.0
H559 H 0.64569 0.68127 0.85571 0.0
C560 C 0.70952 0.65178 0.78856 0.0
N561 N 0.70332 0.64228 0.80323 0.0
N562 N 0.70368 0.66289 0.81345 0.0
C563 C 0.70982 0.6863 0.80554 0.0
C564 C 0.71382 0.68003 0.78952 0.0
C565 C 0.7134 0.63366 0.77427 0.0
H566 H 0.72546 0.61516 0.77767 0.0
H567 H 0.69294 0.62669 0.76996 0.0
H568 H 0.72426 0.64455 0.76447 0.0
O569 O 0.7256 0.595 0.82574 0.0
O570 O 0.72583 0.62899 0.84351 0.0
H571 H 0.72923 0.71532 0.8211 0.0
H572 H 0.71229 0.73089 0.80411 0.0
C573 C 0.71101 0.71421 0.81313 0.0
H574 H 0.69229 0.71746 0.82046 0.0
H575 H 0.74429 0.68658 0.85142 0.0
O576 O 0.69621 0.57931 0.79309 0.0
C577 C 0.73495 0.60602 0.83842 0.0
Co578 Co 0.63378 0.44935 0.05858 0.0
Co579 Co 0.58518 0.45023 0.08335 0.0
C580 C 0.62359 0.40247 0.08137 0.0
O581 O 0.63721 0.41377 0.07014 0.0
O582 O 0.60273 0.41426 0.08753 0.0
C583 C 0.66604 0.42639 0.03342 0.0
O584 O 0.65256 0.40381 0.03721 0.0
C585 C 0.53577 0.43309 0.101 0.0
C586 C 0.52039 0.47293 0.11022 0.0
C587 C 0.51493 0.4449 0.11007 0.0
N588 N 0.55256 0.45331 0.09591 0.0
N589 N 0.54329 0.47705 0.10146 0.0
C590 C 0.54134 0.40312 0.09822 0.0
H591 H 0.56039 0.39737 0.10469 0.0
H592 H 0.54501 0.39947 0.08531 0.0
H593 H 0.52452 0.38966 0.10257 0.0
C594 C 0.58757 0.46067 0.03639 0.0
N595 N 0.59747 0.45483 0.05102 0.0
N596 N 0.57701 0.45473 0.06134 0.0
C597 C 0.55334 0.46015 0.05356 0.0
C598 C 0.55924 0.46426 0.03751 0.0
C599 C 0.60535 0.46519 0.02202 0.0
H600 H 0.62393 0.47715 0.02542 0.0
H601 H 0.61222 0.44491 0.01737 0.0
H602 H 0.59419 0.47636 0.01245 0.0
O603 O 0.64435 0.47984 0.07295 0.0
O604 O 0.61037 0.47963 0.09072 0.0
H605 H 0.52418 0.47933 0.06912 0.0
H606 H 0.50869 0.46145 0.05243 0.0
C607 C 0.52558 0.46089 0.06134 0.0
H608 H 0.5229 0.44231 0.06887 0.0
H609 H 0.55268 0.49605 0.09934 0.0
O610 O 0.66069 0.44862 0.04082 0.0
C611 C 0.63298 0.48939 0.08548 0.0
Co612 Co 0.79037 0.38721 0.3125 0.0
Co613 Co 0.79247 0.3366 0.33576 0.0
C614 C 0.8402 0.37405 0.33289 0.0
O615 O 0.8269 0.38886 0.32299 0.0
O616 O 0.82974 0.35225 0.33879 0.0
C617 C 0.80797 0.4167 0.28461 0.0
O618 O 0.82539 0.39619 0.28291 0.0
C619 C 0.80769 0.28624 0.35352 0.0
C620 C 0.76654 0.26929 0.35925 0.0
C621 C 0.79447 0.26435 0.361 0.0
N622 N 0.78837 0.30309 0.34744 0.0
N623 N 0.76385 0.29291 0.35098 0.0
C624 C 0.83789 0.29252 0.3532 0.0
H625 H 0.84135 0.31324 0.3584 0.0
H626 H 0.84515 0.29301 0.34063 0.0
H627 H 0.85014 0.27747 0.36015 0.0
C628 C 0.77538 0.3429 0.28947 0.0
N629 N 0.78324 0.35174 0.30403 0.0
N630 N 0.78523 0.33041 0.31369 0.0
C631 C 0.77957 0.30724 0.30543 0.0
C632 C 0.77298 0.31441 0.28986 0.0
C633 C 0.76756 0.36149 0.27595 0.0
H634 H 0.75983 0.38145 0.28056 0.0
H635 H 0.78593 0.36531 0.26838 0.0
H636 H 0.75144 0.35181 0.26839 0.0
O637 O 0.76158 0.39678 0.32791 0.0
O638 O 0.76475 0.36209 0.3451 0.0
H639 H 0.76283 0.27435 0.31935 0.0
H640 H 0.78327 0.26306 0.30258 0.0
C641 C 0.78154 0.27874 0.31217 0.0
H642 H 0.79982 0.27716 0.32004 0.0
H643 H 0.74525 0.30209 0.34771 0.0
O644 O 0.79078 0.4164 0.29604 0.0
C645 C 0.75402 0.38477 0.34066 0.0
Co646 Co 0.86013 0.5416 0.55832 0.0
Co647 Co 0.90888 0.54085 0.58288 0.0
C648 C 0.87229 0.58975 0.57992 0.0
O649 O 0.85807 0.57793 0.56914 0.0
O650 O 0.89298 0.5779 0.58624 0.0
C651 C 0.82684 0.56392 0.5333 0.0
O652 O 0.83973 0.58687 0.53699 0.0
C653 C 0.95976 0.55687 0.59933 0.0
C654 C 0.97092 0.51812 0.61159 0.0
C655 C 0.97917 0.5453 0.60958 0.0
N656 N 0.94108 0.53743 0.59563 0.0
N657 N 0.94783 0.51435 0.60301 0.0
C658 C 0.95955 0.58515 0.59219 0.0
H659 H 0.94743 0.58529 0.58096 0.0
H660 H 0.98086 0.59225 0.5897 0.0
H661 H 0.9497 0.59967 0.60069 0.0
C662 C 0.90566 0.52802 0.53612 0.0
N663 N 0.89614 0.53453 0.55073 0.0
N664 N 0.9167 0.53413 0.56098 0.0
C665 C 0.94002 0.52732 0.55319 0.0
C666 C 0.9338 0.52323 0.53717 0.0
C667 C 0.88763 0.52438 0.52177 0.0
H668 H 0.86909 0.51227 0.52507 0.0
H669 H 0.88068 0.54493 0.51757 0.0
H670 H 0.89858 0.51374 0.51192 0.0
O671 O 0.84869 0.51242 0.57341 0.0
O672 O 0.88264 0.51322 0.59116 0.0
H673 H 0.96734 0.50846 0.56997 0.0
H674 H 0.98433 0.52115 0.55217 0.0
C675 C 0.96773 0.5252 0.56095 0.0
H676 H 0.97242 0.54477 0.56718 0.0
H677 H 0.93661 0.49604 0.60221 0.0
O678 O 0.83295 0.54185 0.54067 0.0
C679 C 0.85976 0.50368 0.58622 0.0
Co680 Co 0.69874 0.38634 0.68016 0.0
Co681 Co 0.69919 0.33716 0.65567 0.0
C682 C 0.65163 0.37573 0.65756 0.0
O683 O 0.66357 0.38976 0.66837 0.0
O684 O 0.66276 0.35427 0.65168 0.0
C685 C 0.6754 0.42182 0.70376 0.0
O686 O 0.6522 0.41134 0.69844 0.0
C687 C 0.68387 0.28449 0.6403 0.0
C688 C 0.72136 0.27596 0.62616 0.0
C689 C 0.69533 0.2658 0.62959 0.0
N690 N 0.7024 0.30459 0.64305 0.0
N691 N 0.72477 0.29928 0.6346 0.0
C692 C 0.65538 0.28424 0.64716 0.0
H693 H 0.64976 0.3047 0.65198 0.0
H694 H 0.65449 0.26926 0.65715 0.0
H695 H 0.6402 0.27786 0.63796 0.0
C696 C 0.70966 0.34054 0.70263 0.0
N697 N 0.70396 0.35005 0.6879 0.0
N698 N 0.70472 0.32943 0.67769 0.0
C699 C 0.71127 0.30613 0.6856 0.0
C700 C 0.7145 0.31238 0.70168 0.0
C701 C 0.7103 0.35827 0.71725 0.0
H702 H 0.72757 0.37318 0.71627 0.0
H703 H 0.69087 0.3702 0.71802 0.0
H704 H 0.71265 0.34591 0.7283 0.0
O705 O 0.72926 0.39662 0.66569 0.0
O706 O 0.72792 0.36272 0.64789 0.0
H707 H 0.73031 0.28258 0.66699 0.0
H708 H 0.72802 0.26465 0.68576 0.0
C709 C 0.71724 0.27914 0.67765 0.0
H710 H 0.6976 0.26965 0.67373 0.0
H711 H 0.74227 0.31179 0.63444 0.0
O712 O 0.6981 0.41351 0.69789 0.0
C713 C 0.7381 0.38524 0.65299 0.0
Co714 Co 0.85878 0.44577 0.93127 0.0
Co715 Co 0.90698 0.4505 0.90646 0.0
C716 C 0.87236 0.39967 0.90871 0.0
O717 O 0.85785 0.40994 0.91989 0.0
O718 O 0.89223 0.41306 0.90251 0.0
C719 C 0.82118 0.42253 0.95423 0.0
O720 O 0.82909 0.3989 0.94811 0.0
C721 C 0.95907 0.43653 0.89101 0.0
C722 C 0.96731 0.47381 0.87662 0.0
C723 C 0.97762 0.44783 0.88014 0.0
N724 N 0.93888 0.45491 0.89359 0.0
N725 N 0.94388 0.47714 0.88496 0.0
C726 C 0.9608 0.40953 0.89959 0.0
H727 H 0.94852 0.41025 0.91077 0.0
H728 H 0.98254 0.40442 0.90243 0.0
H729 H 0.95211 0.39307 0.89189 0.0
C730 C 0.90425 0.45876 0.95357 0.0
N731 N 0.89469 0.45356 0.93879 0.0
N732 N 0.91494 0.45617 0.92844 0.0
C733 C 0.93804 0.46349 0.93631 0.0
C734 C 0.93206 0.46528 0.95251 0.0
C735 C 0.88705 0.45675 0.96835 0.0
H736 H 0.87518 0.43722 0.96817 0.0
H737 H 0.89983 0.45736 0.97933 0.0
H738 H 0.8721 0.47405 0.96856 0.0
O739 O 0.84623 0.47539 0.91671 0.0
O740 O 0.87996 0.47777 0.89886 0.0
H741 H 0.97834 0.4828 0.93639 0.0
H742 H 0.97539 0.45175 0.92466 0.0
C743 C 0.96465 0.47089 0.92833 0.0
H744 H 0.96052 0.48336 0.91751 0.0
H745 H 0.93122 0.49452 0.88472 0.0
O746 O 0.83181 0.44479 0.94909 0.0
C747 C 0.85674 0.48577 0.90415 0.0
Co748 Co 0.79017 0.60577 0.18123 0.0
Co749 Co 0.7912 0.65544 0.15732 0.0
C750 C 0.83907 0.61762 0.16007 0.0
O751 O 0.82644 0.60319 0.17045 0.0
O752 O 0.82814 0.63909 0.15406 0.0
C753 C 0.80901 0.57513 0.20842 0.0
O754 O 0.8288 0.5936 0.20888 0.0
C755 C 0.80826 0.706 0.14068 0.0
C756 C 0.76874 0.72021 0.13044 0.0
C757 C 0.79651 0.7266 0.13139 0.0
N758 N 0.78822 0.68846 0.14512 0.0
N759 N 0.76468 0.69704 0.13895 0.0
C760 C 0.83816 0.70097 0.14394 0.0
H761 H 0.84468 0.68247 0.13717 0.0
H762 H 0.84115 0.69658 0.15683 0.0
H763 H 0.85146 0.71834 0.1402 0.0
C764 C 0.77606 0.651 0.20389 0.0
N765 N 0.78349 0.64167 0.18936 0.0
N766 N 0.78446 0.66257 0.17933 0.0
C767 C 0.77823 0.68594 0.18725 0.0
C768 C 0.77268 0.67939 0.20306 0.0
C769 C 0.77234 0.63297 0.21825 0.0
H770 H 0.76138 0.61379 0.21483 0.0
H771 H 0.79289 0.62728 0.22297 0.0
H772 H 0.76087 0.64352 0.22791 0.0
O773 O 0.7609 0.59579 0.16606 0.0
O774 O 0.76297 0.63007 0.14854 0.0
H775 H 0.75936 0.71251 0.17012 0.0
H776 H 0.76969 0.7299 0.18811 0.0
C777 C 0.77547 0.71359 0.17948 0.0
H778 H 0.79524 0.71919 0.17367 0.0
H779 H 0.74587 0.68694 0.14045 0.0
O780 O 0.79012 0.57713 0.198 0.0
C781 C 0.75263 0.6074 0.15332 0.0
Co782 Co 0.63295 0.54538 0.43224 0.0
Co783 Co 0.58403 0.54225 0.4077 0.0
C784 C 0.62187 0.59083 0.4088 0.0
O785 O 0.63579 0.58041 0.42017 0.0
O786 O 0.60122 0.57828 0.40289 0.0
C787 C 0.66997 0.56869 0.45531 0.0
O788 O 0.66076 0.5922 0.44965 0.0
C789 C 0.5337 0.55858 0.39085 0.0
C790 C 0.52084 0.51931 0.37969 0.0
C791 C 0.51385 0.5469 0.38099 0.0
N792 N 0.55141 0.53868 0.39523 0.0
N793 N 0.54361 0.51527 0.38854 0.0
C794 C 0.53792 0.58839 0.3948 0.0
H795 H 0.54215 0.5906 0.40776 0.0
H796 H 0.52023 0.60145 0.39134 0.0
H797 H 0.55629 0.59598 0.38827 0.0
C798 C 0.58718 0.53529 0.45484 0.0
N799 N 0.59676 0.5401 0.44003 0.0
N800 N 0.57622 0.53861 0.42981 0.0
C801 C 0.55285 0.53268 0.4378 0.0
C802 C 0.55903 0.53037 0.45394 0.0
C803 C 0.60485 0.53538 0.46948 0.0
H804 H 0.61718 0.55462 0.4698 0.0
H805 H 0.59238 0.53401 0.48056 0.0
H806 H 0.6194 0.51776 0.46895 0.0
O807 O 0.64347 0.51428 0.41821 0.0
O808 O 0.60915 0.51277 0.40071 0.0
H809 H 0.51027 0.51875 0.43839 0.0
H810 H 0.51803 0.54563 0.42412 0.0
C811 C 0.52588 0.52659 0.42986 0.0
H812 H 0.52903 0.5109 0.42042 0.0
H813 H 0.55407 0.49662 0.38985 0.0
O814 O 0.66024 0.54622 0.44989 0.0
C815 C 0.63198 0.50372 0.40599 0.0
Co816 Co 0.2962 0.38179 0.18082 0.0
Co817 Co 0.29303 0.33357 0.15599 0.0
C818 C 0.34349 0.36828 0.15905 0.0
O819 O 0.33255 0.38257 0.1701 0.0
O820 O 0.33056 0.34841 0.15254 0.0
C821 C 0.31025 0.43122 0.19645 0.0
O822 O 0.32241 0.43565 0.18267 0.0
C823 C 0.3076 0.28163 0.14053 0.0
C824 C 0.27053 0.27311 0.12604 0.0
C825 C 0.29654 0.263 0.12963 0.0
N826 N 0.28905 0.30168 0.14307 0.0
N827 N 0.26695 0.29652 0.13437 0.0
C828 C 0.33452 0.28008 0.1492 0.0
H829 H 0.33357 0.29227 0.1604 0.0
H830 H 0.3398 0.25836 0.15201 0.0
H831 H 0.35097 0.28898 0.14157 0.0
C832 C 0.28256 0.33623 0.20296 0.0
N833 N 0.2882 0.34588 0.18826 0.0
N834 N 0.28646 0.32555 0.17789 0.0
C835 C 0.27932 0.3023 0.18569 0.0
C836 C 0.27672 0.30828 0.20184 0.0
C837 C 0.28352 0.35352 0.21775 0.0
H838 H 0.30254 0.36621 0.21772 0.0
H839 H 0.28311 0.34069 0.22872 0.0
H840 H 0.26562 0.36774 0.21781 0.0
O841 O 0.26725 0.39439 0.16585 0.0
O842 O 0.26605 0.36057 0.14802 0.0
H843 H 0.2613 0.2614 0.18562 0.0
H844 H 0.29251 0.26533 0.17413 0.0
C845 C 0.27296 0.27547 0.17766 0.0
H846 H 0.26063 0.27922 0.16674 0.0
H847 H 0.24947 0.30904 0.13409 0.0
O848 O 0.29731 0.40872 0.1986 0.0
C849 C 0.25763 0.38377 0.15312 0.0
Co850 Co 0.35393 0.54165 0.93128 0.0
Co851 Co 0.40296 0.54317 0.90679 0.0
C852 C 0.36463 0.59047 0.90967 0.0
O853 O 0.35047 0.5776 0.92009 0.0
O854 O 0.38626 0.57994 0.9036 0.0
C855 C 0.32099 0.56343 0.95656 0.0
O856 O 0.3338 0.58643 0.95287 0.0
C857 C 0.45236 0.5591 0.88843 0.0
C858 C 0.46834 0.5183 0.88117 0.0
C859 C 0.47357 0.5463 0.88012 0.0
N860 N 0.43562 0.53947 0.8943 0.0
N861 N 0.44522 0.51516 0.88985 0.0
C862 C 0.44657 0.58931 0.88981 0.0
H863 H 0.42608 0.5936 0.88453 0.0
H864 H 0.44572 0.59519 0.90261 0.0
H865 H 0.46199 0.60209 0.88347 0.0
C866 C 0.39993 0.52962 0.95347 0.0
N867 N 0.39018 0.53608 0.9389 0.0
N868 N 0.41082 0.53714 0.92871 0.0
C869 C 0.43446 0.5318 0.93655 0.0
C870 C 0.42835 0.52668 0.95247 0.0
C871 C 0.382 0.52412 0.96766 0.0
H872 H 0.36362 0.51213 0.96396 0.0
H873 H 0.37482 0.54406 0.97265 0.0
H874 H 0.39317 0.51257 0.97708 0.0
O875 O 0.34378 0.51171 0.91657 0.0
O876 O 0.37744 0.51453 0.89869 0.0
H877 H 0.4651 0.51369 0.92154 0.0
H878 H 0.47901 0.53307 0.9381 0.0
C879 C 0.46242 0.53238 0.92901 0.0
H880 H 0.46427 0.55075 0.92122 0.0
H881 H 0.43598 0.4964 0.89278 0.0
O882 O 0.3269 0.54147 0.94903 0.0
C883 C 0.3552 0.50365 0.90372 0.0
Co884 Co 0.19947 0.60746 0.68184 0.0
Co885 Co 0.19833 0.65764 0.65829 0.0
C886 C 0.15113 0.61923 0.66008 0.0
O887 O 0.16381 0.60482 0.67043 0.0
O888 O 0.16168 0.64114 0.65439 0.0
C889 C 0.1806 0.5777 0.70941 0.0
O890 O 0.16284 0.59795 0.71089 0.0
C891 C 0.18239 0.70764 0.6406 0.0
C892 C 0.22314 0.72462 0.63401 0.0
C893 C 0.1951 0.72937 0.6327 0.0
N894 N 0.2021 0.69104 0.64649 0.0
N895 N 0.22638 0.70126 0.64246 0.0
C896 C 0.15227 0.70115 0.64147 0.0
H897 H 0.1461 0.69853 0.65414 0.0
H898 H 0.13934 0.71711 0.63571 0.0
H899 H 0.14849 0.68133 0.63526 0.0
C900 C 0.21226 0.65237 0.70497 0.0
N901 N 0.20538 0.64319 0.69032 0.0
N902 N 0.20394 0.66431 0.68047 0.0
C903 C 0.20908 0.68766 0.68866 0.0
C904 C 0.21468 0.68086 0.70443 0.0
C905 C 0.21936 0.6341 0.71877 0.0
H906 H 0.2275 0.6141 0.71446 0.0
H907 H 0.20056 0.6303 0.72598 0.0
H908 H 0.23494 0.64401 0.7266 0.0
O909 O 0.22943 0.59812 0.66712 0.0
O910 O 0.2271 0.63251 0.64968 0.0
H911 H 0.22671 0.71958 0.67436 0.0
H912 H 0.2066 0.73205 0.691 0.0
C913 C 0.20792 0.71598 0.68161 0.0
H914 H 0.18968 0.71776 0.67373 0.0
H915 H 0.24518 0.69222 0.64547 0.0
O916 O 0.19841 0.57837 0.69831 0.0
C917 C 0.23774 0.61 0.65447 0.0
Co918 Co 0.13603 0.44518 0.42977 0.0
Co919 Co 0.08882 0.44718 0.40426 0.0
C920 C 0.12417 0.39736 0.40805 0.0
O921 O 0.13797 0.40864 0.4192 0.0
O922 O 0.1043 0.40988 0.40129 0.0
C923 C 0.16874 0.42321 0.45533 0.0
O924 O 0.15729 0.39972 0.45119 0.0
C925 C 0.03802 0.43181 0.38761 0.0
C926 C 0.02845 0.47006 0.37441 0.0
C927 C 0.01913 0.4434 0.37704 0.0
N928 N 0.05737 0.45078 0.39093 0.0
N929 N 0.05163 0.47354 0.38295 0.0
C930 C 0.03708 0.40407 0.39541 0.0
H931 H 0.04953 0.40411 0.40653 0.0
H932 H 0.01553 0.39821 0.39826 0.0
H933 H 0.04593 0.3885 0.38718 0.0
C934 C 0.08957 0.45957 0.4511 0.0
N935 N 0.09977 0.45311 0.43663 0.0
N936 N 0.07984 0.45418 0.42599 0.0
C937 C 0.05625 0.46146 0.43337 0.0
C938 C 0.06163 0.46505 0.44954 0.0
C939 C 0.10683 0.46236 0.46582 0.0
H940 H 0.12552 0.47466 0.46307 0.0
H941 H 0.1136 0.44159 0.46973 0.0
H942 H 0.0954 0.47247 0.47567 0.0
O943 O 0.14897 0.47387 0.41478 0.0
O944 O 0.11598 0.47425 0.39643 0.0
H945 H 0.03075 0.48016 0.41558 0.0
H946 H 0.01228 0.47008 0.43344 0.0
C947 C 0.02906 0.46436 0.4251 0.0
H948 H 0.02357 0.4445 0.41943 0.0
H949 H 0.06349 0.49148 0.3834 0.0
O950 O 0.16208 0.44512 0.44797 0.0
C951 C 0.13888 0.48302 0.4018 0.0
Co952 Co 0.29641 0.60874 0.30721 0.0
Co953 Co 0.29369 0.65536 0.333 0.0
C954 C 0.34414 0.62081 0.32876 0.0
O955 O 0.33321 0.60697 0.3175 0.0
O956 O 0.33114 0.64025 0.33562 0.0
C957 C 0.31744 0.57826 0.28047 0.0
O958 O 0.34011 0.59232 0.28319 0.0
C959 C 0.30921 0.70631 0.34925 0.0
C960 C 0.27358 0.71299 0.36521 0.0
C961 C 0.29911 0.72379 0.36109 0.0
N962 N 0.29058 0.6863 0.34672 0.0
N963 N 0.26934 0.69037 0.35628 0.0
C964 C 0.33528 0.7088 0.33982 0.0
H965 H 0.33362 0.69699 0.32851 0.0
H966 H 0.33979 0.73074 0.33711 0.0
H967 H 0.35258 0.70006 0.34684 0.0
C968 C 0.28096 0.6556 0.28624 0.0
N969 N 0.28775 0.64512 0.30059 0.0
N970 N 0.28626 0.66475 0.31142 0.0
C971 C 0.27833 0.68836 0.30429 0.0
C972 C 0.27479 0.68336 0.2881 0.0
C973 C 0.28115 0.63932 0.27107 0.0
H974 H 0.26657 0.62178 0.27213 0.0
H975 H 0.30205 0.63074 0.26916 0.0
H976 H 0.27562 0.65205 0.26056 0.0
O977 O 0.26813 0.5951 0.32232 0.0
O978 O 0.26703 0.62789 0.34078 0.0
H979 H 0.26046 0.71 0.32405 0.0
H980 H 0.25996 0.72901 0.30553 0.0
C981 C 0.27214 0.71459 0.313 0.0
H982 H 0.29177 0.72472 0.31638 0.0
H983 H 0.25207 0.67758 0.3568 0.0
O984 O 0.29628 0.58271 0.28902 0.0
C985 C 0.25874 0.60487 0.33534 0.0
Co986 Co 0.1326 0.54321 0.06122 0.0
Co987 Co 0.08443 0.54107 0.08623 0.0
C988 C 0.12069 0.59021 0.0837 0.0
O989 O 0.13499 0.57855 0.0729 0.0
O990 O 0.09967 0.57848 0.08974 0.0
C991 C 0.16896 0.56668 0.03783 0.0
O992 O 0.16014 0.59012 0.04378 0.0
C993 C 0.03254 0.55534 0.10206 0.0
C994 C 0.02452 0.51793 0.11639 0.0
C995 C 0.01411 0.54391 0.11297 0.0
N996 N 0.05273 0.53699 0.09934 0.0
N997 N 0.04786 0.51471 0.10795 0.0
C998 C 0.03064 0.58238 0.09354 0.0
H999 H 0.043 0.58186 0.08239 0.0
H1000 H 0.00887 0.58733 0.09067 0.0
H1001 H 0.03912 0.59886 0.10131 0.0
C1002 C 0.08652 0.53114 0.03921 0.0
N1003 N 0.09634 0.53656 0.0539 0.0
N1004 N 0.0761 0.53489 0.06432 0.0
C1005 C 0.05273 0.52796 0.05659 0.0
C1006 C 0.05855 0.52543 0.0404 0.0
C1007 C 0.10369 0.53209 0.02437 0.0
H1008 H 0.11578 0.55148 0.02419 0.0
H1009 H 0.09089 0.53107 0.01342 0.0
H1010 H 0.11844 0.51462 0.02448 0.0
O1011 O 0.14448 0.51332 0.07565 0.0
O1012 O 0.11145 0.51372 0.09399 0.0
H1013 H 0.01188 0.50985 0.05679 0.0
H1014 H 0.01587 0.54105 0.06828 0.0
C1015 C 0.026 0.52152 0.06471 0.0
H1016 H 0.02988 0.50917 0.0756 0.0
H1017 H 0.06051 0.49732 0.10808 0.0
O1018 O 0.15934 0.54415 0.04324 0.0
C1019 C 0.13409 0.50435 0.0886 0.0
Co1020 Co 0.19873 0.38454 0.80983 0.0
Co1021 Co 0.19849 0.33437 0.83334 0.0
C1022 C 0.15081 0.37249 0.83169 0.0
O1023 O 0.16309 0.38702 0.82121 0.0
O1024 O 0.16179 0.35079 0.83737 0.0
C1025 C 0.17863 0.41634 0.78338 0.0
O1026 O 0.15852 0.39821 0.78309 0.0
C1027 C 0.18207 0.28328 0.84956 0.0
C1028 C 0.22157 0.26996 0.86025 0.0
C1029 C 0.19395 0.26307 0.85907 0.0
N1030 N 0.20189 0.30116 0.84527 0.0
N1031 N 0.22543 0.29305 0.85164 0.0
C1032 C 0.15217 0.28766 0.84599 0.0
H1033 H 0.14968 0.29438 0.83341 0.0
H1034 H 0.13957 0.26907 0.84827 0.0
H1035 H 0.1444 0.30444 0.85377 0.0
C1036 C 0.21109 0.33976 0.78655 0.0
N1037 N 0.2047 0.34883 0.80131 0.0
N1038 N 0.20414 0.32771 0.81119 0.0
C1039 C 0.20968 0.30447 0.80298 0.0
C1040 C 0.21426 0.31133 0.78711 0.0
C1041 C 0.21385 0.35807 0.77225 0.0
H1042 H 0.22534 0.37703 0.7755 0.0
H1043 H 0.19301 0.36416 0.76816 0.0
H1044 H 0.22435 0.34761 0.76219 0.0
O1045 O 0.22871 0.39406 0.8246 0.0
O1046 O 0.22718 0.35942 0.84188 0.0
H1047 H 0.22863 0.27759 0.81994 0.0
H1048 H 0.21873 0.26065 0.80171 0.0
C1049 C 0.21267 0.27663 0.81049 0.0
H1050 H 0.19289 0.27065 0.81615 0.0
H1051 H 0.24407 0.30355 0.85031 0.0
O1052 O 0.19813 0.41364 0.79336 0.0
C1053 C 0.23743 0.38214 0.83714 0.0
Co1054 Co 0.35538 0.44955 0.56041 0.0
Co1055 Co 0.40392 0.45102 0.5851 0.0
C1056 C 0.36648 0.40271 0.58314 0.0
O1057 O 0.35228 0.41452 0.57237 0.0
O1058 O 0.38782 0.4141 0.58901 0.0
C1059 C 0.32006 0.42548 0.53692 0.0
O1060 O 0.33044 0.40237 0.54244 0.0
C1061 C 0.4561 0.4357 0.60016 0.0
C1062 C 0.465 0.47248 0.61484 0.0
C1063 C 0.47507 0.44657 0.61094 0.0
N1064 N 0.43596 0.45431 0.59796 0.0
N1065 N 0.44134 0.47621 0.60679 0.0
C1066 C 0.45738 0.40897 0.59128 0.0
H1067 H 0.44432 0.40992 0.58041 0.0
H1068 H 0.47894 0.40412 0.58787 0.0
H1069 H 0.44938 0.39222 0.59902 0.0
C1070 C 0.40127 0.46092 0.53812 0.0
N1071 N 0.39166 0.45518 0.55282 0.0
N1072 N 0.41209 0.4565 0.56314 0.0
C1073 C 0.43536 0.46347 0.55532 0.0
C1074 C 0.42929 0.4664 0.5392 0.0
C1075 C 0.38375 0.4611 0.52342 0.0
H1076 H 0.37187 0.4416 0.52277 0.0
H1077 H 0.39626 0.46322 0.51241 0.0
H1078 H 0.36879 0.47835 0.52417 0.0
O1079 O 0.34458 0.48034 0.57452 0.0
O1080 O 0.37802 0.47963 0.5926 0.0
H1081 H 0.47604 0.48202 0.55541 0.0
H1082 H 0.4725 0.45072 0.56684 0.0
C1083 C 0.46211 0.47016 0.56336 0.0
H1084 H 0.45822 0.48242 0.57428 0.0
H1085 H 0.42887 0.4937 0.6073 0.0
O1086 O 0.32842 0.44831 0.5426 0.0
C1087 C 0.35563 0.48961 0.58721 0.0
H1088 H 0.16487 0.26283 0.34531 0.0
H1089 H 0.1616 0.36168 0.4212 0.0
H1090 H 0.20317 0.24172 0.39011 0.0
H1091 H 0.10629 0.37071 0.38115 0.0
H1092 H 0.17819 0.31841 0.40981 0.0
H1093 H 0.14447 0.30346 0.35789 0.0
C1094 C 0.16843 0.26642 0.3579 0.0
C1095 C 0.1849 0.24845 0.36686 0.0
C1096 C 0.16228 0.32977 0.40358 0.0
C1097 C 0.16267 0.29544 0.38115 0.0
C1098 C 0.1528 0.35449 0.41007 0.0
C1099 C 0.13262 0.36995 0.40208 0.0
C1100 C 0.15175 0.32059 0.38891 0.0
C1101 C 0.1219 0.35953 0.38772 0.0
C1102 C 0.15703 0.28975 0.36503 0.0
C1103 C 0.19026 0.25494 0.38287 0.0
N1104 N 0.13178 0.33562 0.38153 0.0
N1105 N 0.17916 0.27793 0.38952 0.0
H1106 H 0.97582 0.90864 0.59695 0.0
H1107 H 0.87173 0.91006 0.67088 0.0
H1108 H 0.98912 0.95701 0.63943 0.0
H1109 H 0.86521 0.85313 0.63142 0.0
H1110 H 0.91456 0.92777 0.65953 0.0
H1111 H 0.93491 0.88833 0.60929 0.0
C1112 C 0.97041 0.91453 0.60902 0.0
C1113 C 0.98628 0.93382 0.61742 0.0
C1114 C 0.90384 0.91128 0.65341 0.0
C1115 C 0.939 0.91152 0.63139 0.0
C1116 C 0.87936 0.90116 0.65988 0.0
C1117 C 0.8648 0.88006 0.65209 0.0
C1118 C 0.91377 0.90039 0.63899 0.0
C1119 C 0.87576 0.86929 0.63789 0.0
C1120 C 0.94692 0.90315 0.616 0.0
C1121 C 0.97757 0.94189 0.63267 0.0
N1122 N 0.8995 0.87969 0.63175 0.0
N1123 N 0.95452 0.93066 0.6392 0.0
H1124 H 0.31321 0.61272 0.91277 0.0
H1125 H 0.34971 0.75586 0.87132 0.0
H1126 H 0.39404 0.63022 0.89372 0.0
H1127 H 0.26719 0.72259 0.87316 0.0
H1128 H 0.36708 0.7131 0.88286 0.0
H1129 H 0.29685 0.65663 0.90212 0.0
C1130 C 0.32758 0.62586 0.90643 0.0
C1131 C 0.355 0.61768 0.90402 0.0
C1132 C 0.34521 0.71517 0.8806 0.0
C1133 C 0.33639 0.66798 0.89187 0.0
C1134 C 0.33525 0.73948 0.87378 0.0
C1135 C 0.30697 0.7426 0.8707 0.0
C1136 C 0.3267 0.69412 0.88472 0.0
C1137 C 0.28918 0.72107 0.87516 0.0
C1138 C 0.31818 0.65084 0.90029 0.0
C1139 C 0.37267 0.63557 0.8957 0.0
N1140 N 0.29932 0.69778 0.88194 0.0
N1141 N 0.36307 0.65994 0.88993 0.0
H1142 H 0.61821 0.08172 0.17141 0.0
H1143 H 0.51259 0.08907 0.09827 0.0
H1144 H 0.62423 0.14109 0.13314 0.0
H1145 H 0.50343 0.03304 0.13788 0.0
H1146 H 0.55273 0.10946 0.11134 0.0
H1147 H 0.57529 0.06468 0.15986 0.0
C1148 C 0.61045 0.09131 0.16064 0.0
C1149 C 0.62495 0.11286 0.15322 0.0
C1150 C 0.54179 0.09292 0.11729 0.0
C1151 C 0.57584 0.0933 0.13988 0.0
C1152 C 0.51871 0.08149 0.1099 0.0
C1153 C 0.50428 0.05992 0.11726 0.0
C1154 C 0.55073 0.08241 0.13203 0.0
C1155 C 0.51388 0.04989 0.13193 0.0
C1156 C 0.58592 0.08155 0.15405 0.0
C1157 C 0.61379 0.12452 0.13931 0.0
N1158 N 0.5365 0.06124 0.13886 0.0
N1159 N 0.59 0.11449 0.13305 0.0
H1160 H 0.09183 0.62697 0.10227 0.0
H1161 H 0.22367 0.71817 0.12149 0.0
H1162 H 0.171 0.61434 0.07985 0.0
H1163 H 0.14136 0.7514 0.12534 0.0
H1164 H 0.20453 0.67655 0.10957 0.0
H1165 H 0.10943 0.66986 0.11405 0.0
C1166 C 0.11282 0.63326 0.09977 0.0
C1167 C 0.12999 0.61705 0.09007 0.0
C1168 C 0.19067 0.69292 0.11314 0.0
C1169 C 0.1502 0.66559 0.10367 0.0
C1170 C 0.20154 0.7167 0.11999 0.0
C1171 C 0.18413 0.73825 0.12479 0.0
C1172 C 0.16209 0.6905 0.11113 0.0
C1173 C 0.15561 0.73508 0.12246 0.0
C1174 C 0.12279 0.6577 0.10647 0.0
C1175 C 0.15699 0.62619 0.0872 0.0
N1176 N 0.14545 0.71156 0.11585 0.0
N1177 N 0.16633 0.6497 0.09409 0.0
H1178 H 0.48584 0.89083 0.37341 0.0
H1179 H 0.62526 0.92617 0.32801 0.0
H1180 H 0.51815 0.97355 0.36959 0.0
H1181 H 0.61129 0.84679 0.34995 0.0
H1182 H 0.58209 0.94265 0.33953 0.0
H1183 H 0.52828 0.87322 0.36163 0.0
C1184 C 0.50196 0.90531 0.37049 0.0
C1185 C 0.49865 0.93374 0.37306 0.0
C1186 C 0.58849 0.92162 0.3418 0.0
C1187 C 0.54672 0.91367 0.35873 0.0
C1188 C 0.61304 0.91213 0.33517 0.0
C1189 C 0.62196 0.88507 0.33808 0.0
C1190 C 0.57249 0.90385 0.35122 0.0
C1191 C 0.60527 0.86785 0.34748 0.0
C1192 C 0.52609 0.8952 0.36353 0.0
C1193 C 0.51982 0.95147 0.368 0.0
N1194 N 0.58124 0.87751 0.35369 0.0
N1195 N 0.5429 0.94116 0.36107 0.0
H1196 H 0.35188 0.23982 0.62519 0.0
H1197 H 0.31653 0.37808 0.57862 0.0
H1198 H 0.26887 0.26954 0.6182 0.0
H1199 H 0.39496 0.36607 0.60197 0.0
H1200 H 0.30036 0.33471 0.58993 0.0
H1201 H 0.3695 0.28293 0.61417 0.0
C1202 C 0.3373 0.2555 0.62173 0.0
C1203 C 0.30875 0.2512 0.62309 0.0
C1204 C 0.32111 0.34156 0.59258 0.0
C1205 C 0.32892 0.30006 0.6097 0.0
C1206 C 0.33043 0.36626 0.58606 0.0
C1207 C 0.35712 0.37579 0.5894 0.0
C1208 C 0.33867 0.32603 0.60238 0.0
C1209 C 0.37417 0.35956 0.59916 0.0
C1210 C 0.34744 0.28002 0.61522 0.0
C1211 C 0.29102 0.27191 0.61748 0.0
N1212 N 0.36467 0.33537 0.60529 0.0
N1213 N 0.30137 0.29536 0.61101 0.0
H1214 H 0.8797 0.0773 0.81758 0.0
H1215 H 0.97928 0.07954 0.89342 0.0
H1216 H 0.87231 0.13626 0.85599 0.0
H1217 H -0.00376 0.03199 0.85107 0.0
H1218 H 0.93922 0.09971 0.88015 0.0
H1219 H 0.92188 0.05975 0.82978 0.0
C1220 C 0.887 0.08668 0.82853 0.0
C1221 C 0.87233 0.10822 0.83581 0.0
C1222 C 0.95186 0.08511 0.87367 0.0
C1223 C 0.92051 0.08804 0.84989 0.0
C1224 C 0.97486 0.07382 0.88119 0.0
C1225 C 0.99154 0.05483 0.87309 0.0
C1226 C 0.94521 0.07694 0.85805 0.0
C1227 C 0.98405 0.04689 0.85761 0.0
C1228 C 0.91111 0.07663 0.83548 0.0
C1229 C 0.88287 0.11959 0.84996 0.0
N1230 N 0.96143 0.05803 0.85055 0.0
N1231 N 0.90621 0.10923 0.85659 0.0
H1232 H 0.83662 0.7273 0.6418 0.0
H1233 H 0.83159 0.62313 0.5681 0.0
H1234 H 0.78483 0.73948 0.60059 0.0
H1235 H 0.89257 0.61847 0.60556 0.0
H1236 H 0.81459 0.66607 0.57961 0.0
H1237 H 0.85767 0.68753 0.62866 0.0
C1238 C 0.83015 0.72195 0.62983 0.0
C1239 C 0.80959 0.73714 0.62204 0.0
C1240 C 0.83181 0.65575 0.58526 0.0
C1241 C 0.83275 0.69108 0.60718 0.0
C1242 C 0.84155 0.63121 0.57869 0.0
C1243 C 0.86344 0.61703 0.58593 0.0
C1244 C 0.84387 0.66613 0.59926 0.0
C1245 C 0.87559 0.62861 0.59959 0.0
C1246 C 0.84195 0.69909 0.62239 0.0
C1247 C 0.80087 0.72845 0.6069 0.0
N1248 N 0.86549 0.65237 0.60588 0.0
N1249 N 0.8125 0.70599 0.59995 0.0
H1250 H 0.01165 0.08539 0.3924 0.0
H1251 H 0.11037 0.08612 0.31625 0.0
H1252 H 0.99434 0.04062 0.34904 0.0
H1253 H 0.12373 0.13739 0.35769 0.0
H1254 H 0.06658 0.07112 0.32756 0.0
H1255 H 0.05152 0.10635 0.37952 0.0
C1256 C 0.01579 0.08043 0.38006 0.0
C1257 C -0.00078 0.06168 0.37167 0.0
C1258 C 0.07896 0.08582 0.33413 0.0
C1259 C 0.04551 0.0849 0.35699 0.0
C1260 C 0.104 0.09442 0.32768 0.0
C1261 C 0.12088 0.11291 0.33608 0.0
C1262 C 0.07077 0.09557 0.34918 0.0
C1263 C 0.11142 0.12309 0.35079 0.0
C1264 C 0.03881 0.0922 0.37275 0.0
C1265 C 0.00652 0.05505 0.35593 0.0
N1266 N 0.08711 0.11409 0.35694 0.0
N1267 N 0.02913 0.06661 0.34911 0.0
H1268 H 0.71219 0.2511 0.10111 0.0
H1269 H 0.60492 0.37581 0.10808 0.0
H1270 H 0.65934 0.26451 0.14175 0.0
H1271 H 0.66394 0.36832 0.06973 0.0
H1272 H 0.62215 0.33296 0.11944 0.0
H1273 H 0.69291 0.29238 0.08848 0.0
C1274 C 0.69632 0.26264 0.10729 0.0
C1275 C 0.68673 0.25403 0.12226 0.0
C1276 C 0.63128 0.34062 0.10851 0.0
C1277 C 0.66481 0.30126 0.10805 0.0
C1278 C 0.62133 0.36505 0.10195 0.0
C1279 C 0.63295 0.37573 0.0879 0.0
C1280 C 0.65304 0.32667 0.10099 0.0
C1281 C 0.6544 0.36093 0.0806 0.0
C1282 C 0.68533 0.28614 0.1001 0.0
C1283 C 0.66651 0.26986 0.12991 0.0
N1284 N 0.66379 0.33717 0.08725 0.0
N1285 N 0.65617 0.29268 0.1227 0.0
H1286 H 0.36879 0.92117 0.82506 0.0
H1287 H 0.5064 0.89015 0.87276 0.0
H1288 H 0.3789 0.84531 0.85144 0.0
H1289 H 0.47359 0.97222 0.86647 0.0
H1290 H 0.46412 0.87124 0.8614 0.0
H1291 H 0.41231 0.93772 0.83591 0.0
C1292 C 0.38027 0.90784 0.83302 0.0
C1293 C 0.37006 0.88184 0.83743 0.0
C1294 C 0.46622 0.89336 0.86268 0.0
C1295 C 0.42001 0.90079 0.84985 0.0
C1296 C 0.49023 0.90426 0.86939 0.0
C1297 C 0.49337 0.93292 0.87113 0.0
C1298 C 0.44559 0.91126 0.85724 0.0
C1299 C 0.47212 0.95001 0.86552 0.0
C1300 C 0.40504 0.91742 0.83928 0.0
C1301 C 0.38592 0.86556 0.84782 0.0
N1302 N 0.44922 0.93894 0.8588 0.0
N1303 N 0.4102 0.8753 0.85369 0.0
H1304 H 0.79334 0.24338 0.88965 0.0
H1305 H 0.89345 0.37387 0.88224 0.0
H1306 H 0.83865 0.26338 0.84684 0.0
H1307 H 0.83437 0.363 0.92032 0.0
H1308 H 0.87834 0.33014 0.87067 0.0
H1309 H 0.8125 0.2843 0.90246 0.0
C1310 C 0.80751 0.25624 0.88297 0.0
C1311 C 0.81477 0.24956 0.86722 0.0
C1312 C 0.86879 0.33731 0.88159 0.0
C1313 C 0.83677 0.29653 0.88183 0.0
C1314 C 0.87745 0.36222 0.88825 0.0
C1315 C 0.86501 0.37226 0.90223 0.0
C1316 C 0.84767 0.32222 0.88902 0.0
C1317 C 0.84443 0.35621 0.90948 0.0
C1318 C 0.81846 0.27958 0.89031 0.0
C1319 C 0.83316 0.26704 0.85914 0.0
N1320 N 0.83637 0.33204 0.90276 0.0
N1321 N 0.84352 0.28973 0.86654 0.0
H1322 H 0.50421 0.10011 0.61907 0.0
H1323 H 0.36318 0.06654 0.66306 0.0
H1324 H 0.46947 0.01818 0.6214 0.0
H1325 H 0.37819 0.1458 0.64121 0.0
H1326 H 0.40654 0.04979 0.65195 0.0
H1327 H 0.46193 0.11839 0.63073 0.0
C1328 C 0.48762 0.08596 0.62164 0.0
C1329 C 0.49021 0.05755 0.61869 0.0
C1330 C 0.40035 0.07086 0.64963 0.0
C1331 C 0.44235 0.07835 0.63289 0.0
C1332 C 0.37569 0.08051 0.65603 0.0
C1333 C 0.36698 0.10758 0.65298 0.0
C1334 C 0.41666 0.0885 0.64031 0.0
C1335 C 0.38405 0.12472 0.64375 0.0
C1336 C 0.46359 0.09645 0.62853 0.0
C1337 C 0.46841 0.04023 0.6233 0.0
N1338 N 0.40817 0.1149 0.63776 0.0
N1339 N 0.44546 0.05088 0.63019 0.0
H1340 H 0.60284 0.61595 0.38163 0.0
H1341 H 0.70353 0.74582 0.38973 0.0
H1342 H 0.66067 0.6267 0.42032 0.0
H1343 H 0.65622 0.72802 0.34734 0.0
H1344 H 0.68505 0.7042 0.40212 0.0
H1345 H 0.61877 0.6593 0.37003 0.0
C1346 C 0.61874 0.62749 0.38776 0.0
C1347 C 0.63044 0.61762 0.40198 0.0
C1348 C 0.67852 0.70953 0.39015 0.0
C1349 C 0.64885 0.66721 0.3887 0.0
C1350 C 0.68908 0.73328 0.38306 0.0
C1351 C 0.68098 0.7408 0.36758 0.0
C1352 C 0.6598 0.69303 0.38169 0.0
C1353 C 0.66231 0.7237 0.35948 0.0
C1354 C 0.62791 0.6522 0.38108 0.0
C1355 C 0.65111 0.63342 0.40932 0.0
N1356 N 0.65234 0.7006 0.36663 0.0
N1357 N 0.65966 0.65741 0.40258 0.0
H1358 H 0.02288 0.97392 0.11864 0.0
H1359 H 0.11465 0.84355 0.14014 0.0
H1360 H 0.98919 0.89148 0.11812 0.0
H1361 H 0.12939 0.92477 0.15947 0.0
H1362 H 0.07114 0.86029 0.12873 0.0
H1363 H 0.0651 0.9558 0.13034 0.0
C1364 C 0.02436 0.95197 0.12085 0.0
C1365 C 0.00252 0.93418 0.117 0.0
C1366 C 0.08392 0.8743 0.13556 0.0
C1367 C 0.05099 0.9133 0.1304 0.0
C1368 C 0.10872 0.86483 0.14203 0.0
C1369 C 0.12567 0.8828 0.15077 0.0
C1370 C 0.07638 0.90202 0.1376 0.0
C1371 C 0.11695 0.91015 0.15288 0.0
C1372 C 0.04849 0.94167 0.12755 0.0
C1373 C 0.00572 0.90592 0.12023 0.0
N1374 N 0.09305 0.91896 0.14623 0.0
N1375 N 0.02959 0.89632 0.12666 0.0
H1376 H 0.65595 0.76132 0.84887 0.0
H1377 H 0.66325 0.86763 0.92136 0.0
H1378 H 0.70539 0.74763 0.89088 0.0
H1379 H 0.60278 0.87262 0.88363 0.0
H1380 H 0.67878 0.82352 0.91059 0.0
H1381 H 0.63618 0.80222 0.86145 0.0
C1382 C 0.66214 0.76659 0.86091 0.0
C1383 C 0.68164 0.75065 0.86908 0.0
C1384 C 0.66198 0.83417 0.90474 0.0
C1385 C 0.65999 0.79799 0.88331 0.0
C1386 C 0.65309 0.85938 0.91088 0.0
C1387 C 0.63181 0.87399 0.90332 0.0
C1388 C 0.64967 0.82359 0.89086 0.0
C1389 C 0.61933 0.86217 0.88983 0.0
C1390 C 0.65107 0.79008 0.86803 0.0
C1391 C 0.69012 0.75924 0.88428 0.0
N1392 N 0.62861 0.83779 0.88396 0.0
N1393 N 0.67925 0.78236 0.89093 0.0
H1394 H 0.37107 0.34737 0.13315 0.0
H1395 H 0.49579 0.4549 0.13998 0.0
H1396 H 0.37847 0.40757 0.17092 0.0
H1397 H 0.47987 0.40575 0.0981 0.0
H1398 H 0.45573 0.43394 0.15298 0.0
H1399 H 0.41438 0.3641 0.12184 0.0
C1400 C 0.38189 0.36393 0.13915 0.0
C1401 C 0.37096 0.37624 0.15294 0.0
C1402 C 0.46118 0.4275 0.14102 0.0
C1403 C 0.42049 0.39551 0.14 0.0
C1404 C 0.48398 0.43945 0.13361 0.0
C1405 C 0.49149 0.43146 0.11814 0.0
C1406 C 0.44563 0.40759 0.13281 0.0
C1407 C 0.47537 0.41168 0.11028 0.0
C1408 C 0.40657 0.37353 0.13264 0.0
C1409 C 0.38598 0.39758 0.16021 0.0
N1410 N 0.45319 0.40038 0.11771 0.0
N1411 N 0.4099 0.4066 0.15361 0.0
H1412 H 0.88926 0.11899 0.3841 0.0
H1413 H 0.77715 0.23979 0.38838 0.0
H1414 H 0.82326 0.12134 0.4187 0.0
H1415 H 0.83792 0.23267 0.35105 0.0
H1416 H 0.79574 0.1981 0.40083 0.0
H1417 H 0.87307 0.16268 0.37318 0.0
C1418 C 0.87142 0.12872 0.38946 0.0
C1419 C 0.85749 0.11634 0.40229 0.0
C1420 C 0.80521 0.20581 0.39001 0.0
C1421 C 0.83883 0.16642 0.38979 0.0
C1422 C 0.79462 0.22956 0.38292 0.0
C1423 C 0.80651 0.24002 0.36892 0.0
C1424 C 0.82769 0.19227 0.38293 0.0
C1425 C 0.82882 0.22585 0.36216 0.0
C1426 C 0.86217 0.15367 0.38319 0.0
C1427 C 0.83457 0.13002 0.40876 0.0
N1428 N 0.83871 0.20269 0.36924 0.0
N1429 N 0.82591 0.15428 0.4024 0.0
H1430 H 0.98883 0.59985 0.61804 0.0
H1431 H 0.12997 0.56727 0.66232 0.0
H1432 H 0.02556 0.51879 0.61924 0.0
H1433 H 0.1117 0.64811 0.64351 0.0
H1434 H 0.08754 0.54991 0.65036 0.0
H1435 H 0.0302 0.61858 0.63054 0.0
C1436 C 0.0057 0.58602 0.62054 0.0
C1437 C 0.00393 0.55774 0.61706 0.0
C1438 C 0.09281 0.57146 0.64888 0.0
C1439 C 0.05075 0.57897 0.63218 0.0
C1440 C 0.11693 0.58145 0.65578 0.0
C1441 C 0.12449 0.60917 0.65382 0.0
C1442 C 0.07588 0.58937 0.64013 0.0
C1443 C 0.10679 0.62654 0.64518 0.0
C1444 C 0.0292 0.59674 0.6279 0.0
C1445 C 0.02602 0.54074 0.62156 0.0
N1446 N 0.08323 0.61636 0.63866 0.0
N1447 N 0.04846 0.55159 0.6289 0.0
H1448 H 0.70513 0.24538 0.59992 0.0
H1449 H 0.60245 0.1173 0.60897 0.0
H1450 H 0.65863 0.22852 0.64276 0.0
H1451 H 0.66264 0.12462 0.57119 0.0
H1452 H 0.61874 0.16097 0.62005 0.0
H1453 H 0.68614 0.20366 0.58791 0.0
C1454 C 0.69075 0.23304 0.60678 0.0
C1455 C 0.68303 0.24088 0.62227 0.0
C1456 C 0.62832 0.15302 0.60931 0.0
C1457 C 0.66122 0.19303 0.60857 0.0
C1458 C 0.61898 0.12813 0.60294 0.0
C1459 C 0.63131 0.11717 0.58917 0.0
C1460 C 0.64999 0.16715 0.6018 0.0
C1461 C 0.65262 0.13218 0.58187 0.0
C1462 C 0.6799 0.20924 0.59989 0.0
C1463 C 0.66443 0.224 0.6306 0.0
N1464 N 0.6613 0.15638 0.5883 0.0
N1465 N 0.65413 0.20088 0.62364 0.0
H1466 H 0.11281 0.34347 0.84927 0.0
H1467 H 0.02239 0.47582 0.86934 0.0
H1468 H 0.12812 0.42372 0.82879 0.0
H1469 H 0.99059 0.39309 0.87421 0.0
H1470 H 0.06387 0.45707 0.85701 0.0
H1471 H 0.07014 0.36122 0.86105 0.0
C1472 C 0.10718 0.36476 0.84721 0.0
C1473 C 0.1241 0.38214 0.83807 0.0
C1474 C 0.04785 0.44302 0.86088 0.0
C1475 C 0.07561 0.40258 0.85162 0.0
C1476 C 0.02417 0.45369 0.86796 0.0
C1477 C 0.00314 0.43602 0.87323 0.0
C1478 C 0.05065 0.41442 0.85907 0.0
C1479 C 0.00659 0.40752 0.871 0.0
C1480 C 0.08282 0.37484 0.8539 0.0
C1481 C 0.1157 0.40953 0.83571 0.0
N1482 N 0.02997 0.39758 0.86416 0.0
N1483 N 0.09218 0.41896 0.84256 0.0
H1484 H 0.83426 0.76241 0.14412 0.0
H1485 H 0.83 0.86476 0.06976 0.0
H1486 H 0.7874 0.746 0.10143 0.0
H1487 H 0.88989 0.87132 0.10771 0.0
H1488 H 0.81412 0.82121 0.08111 0.0
H1489 H 0.85482 0.80255 0.13106 0.0
C1490 C 0.82884 0.76689 0.13185 0.0
C1491 C 0.80981 0.75044 0.12363 0.0
C1492 C 0.83088 0.83207 0.08688 0.0
C1493 C 0.83229 0.7969 0.10886 0.0
C1494 C 0.83996 0.85696 0.08041 0.0
C1495 C 0.86118 0.87185 0.08786 0.0
C1496 C 0.84291 0.8221 0.10099 0.0
C1497 C 0.8734 0.86062 0.10159 0.0
C1498 C 0.84034 0.78996 0.12446 0.0
C1499 C 0.80227 0.75804 0.10809 0.0
N1500 N 0.86391 0.83655 0.1078 0.0
N1501 N 0.81352 0.78075 0.1012 0.0
H1502 H 0.37981 0.5823 0.31655 0.0
H1503 H 0.47641 0.58329 0.39345 0.0
H1504 H 0.37081 0.64063 0.35517 0.0
H1505 H 0.4969 0.53909 0.3504 0.0
H1506 H 0.43722 0.60416 0.37969 0.0
H1507 H 0.42264 0.56598 0.32864 0.0
C1508 C 0.38693 0.59185 0.32749 0.0
C1509 C 0.37154 0.61272 0.33492 0.0
C1510 C 0.4505 0.5902 0.37316 0.0
C1511 C 0.42038 0.59394 0.34888 0.0
C1512 C 0.47303 0.57852 0.38097 0.0
C1513 C 0.49039 0.56019 0.37286 0.0
C1514 C 0.44496 0.583 0.35723 0.0
C1515 C 0.48414 0.55343 0.35699 0.0
C1516 C 0.41139 0.58251 0.33438 0.0
C1517 C 0.38189 0.62441 0.34904 0.0
N1518 N 0.46191 0.56482 0.34968 0.0
N1519 N 0.40551 0.61467 0.35564 0.0
H1520 H 0.3514 0.25068 0.12375 0.0
H1521 H 0.31829 0.1102 0.07852 0.0
H1522 H 0.26909 0.21789 0.11879 0.0
H1523 H 0.39829 0.12789 0.09862 0.0
H1524 H 0.30076 0.15288 0.09014 0.0
H1525 H 0.36972 0.20853 0.112 0.0
C1526 C 0.33715 0.23447 0.12058 0.0
C1527 C 0.30863 0.23758 0.12277 0.0
C1528 C 0.32215 0.1474 0.09201 0.0
C1529 C 0.32951 0.1898 0.10855 0.0
C1530 C 0.33223 0.12312 0.0853 0.0
C1531 C 0.35978 0.11536 0.08769 0.0
C1532 C 0.33982 0.16425 0.101 0.0
C1533 C 0.37686 0.13292 0.09662 0.0
C1534 C 0.34767 0.21051 0.11365 0.0
C1535 C 0.29122 0.21633 0.11747 0.0
N1536 N 0.36661 0.1566 0.10293 0.0
N1537 N 0.30193 0.19338 0.1106 0.0
H1538 H 0.62097 0.6388 0.85866 0.0
H1539 H 0.49599 0.53178 0.85159 0.0
H1540 H 0.61402 0.57865 0.82086 0.0
H1541 H 0.50685 0.58776 0.89106 0.0
H1542 H 0.53746 0.55082 0.83907 0.0
H1543 H 0.57711 0.62298 0.86943 0.0
C1544 C 0.61013 0.62246 0.85251 0.0
C1545 C 0.62128 0.61006 0.83882 0.0
C1546 C 0.53061 0.55917 0.85039 0.0
C1547 C 0.57104 0.59159 0.85125 0.0
C1548 C 0.50698 0.54831 0.85751 0.0
C1549 C 0.49766 0.55874 0.87215 0.0
C1550 C 0.54518 0.58038 0.85808 0.0
C1551 C 0.51279 0.57986 0.87948 0.0
C1552 C 0.58509 0.61333 0.85874 0.0
C1553 C 0.6063 0.58876 0.83148 0.0
N1554 N 0.53581 0.58999 0.87236 0.0
N1555 N 0.582 0.58014 0.83782 0.0
H1556 H 0.20972 0.75153 0.60414 0.0
H1557 H 0.09943 0.8739 0.60914 0.0
H1558 H 0.15299 0.76215 0.64327 0.0
H1559 H 0.16032 0.86685 0.57175 0.0
H1560 H 0.11629 0.83095 0.62068 0.0
H1561 H 0.18992 0.79215 0.59115 0.0
C1562 C 0.19289 0.76232 0.6099 0.0
C1563 C 0.18246 0.75316 0.62456 0.0
C1564 C 0.12588 0.83873 0.6099 0.0
C1565 C 0.1599 0.79969 0.60993 0.0
C1566 C 0.11617 0.86322 0.60325 0.0
C1567 C 0.12849 0.87408 0.58945 0.0
C1568 C 0.14809 0.82495 0.60272 0.0
C1569 C 0.15026 0.85935 0.58244 0.0
C1570 C 0.18159 0.78545 0.6025 0.0
C1571 C 0.16093 0.76799 0.63168 0.0
N1572 N 0.15941 0.8356 0.58918 0.0
N1573 N 0.15033 0.79054 0.62428 0.0
H1574 H 0.86318 0.42496 0.32905 0.0
H1575 H 0.00652 0.38879 0.37011 0.0
H1576 H 0.8799 0.34449 0.34886 0.0
H1577 H 0.9737 0.4714 0.36731 0.0
H1578 H 0.96345 0.37113 0.35906 0.0
H1579 H 0.90741 0.4411 0.33921 0.0
C1580 C 0.87622 0.4106 0.33544 0.0
C1581 C 0.86772 0.38335 0.33821 0.0
C1582 C 0.9657 0.39309 0.36101 0.0
C1583 C 0.91843 0.40177 0.34984 0.0
C1584 C 0.99018 0.40322 0.36754 0.0
C1585 C 0.99352 0.43163 0.37018 0.0
C1586 C 0.94471 0.41154 0.35675 0.0
C1587 C 0.97203 0.44933 0.36563 0.0
C1588 C 0.90141 0.4199 0.34131 0.0
C1589 C 0.88552 0.36572 0.3466 0.0
N1590 N 0.94859 0.43901 0.35914 0.0
N1591 N 0.91011 0.37523 0.35212 0.0
H1592 H 0.35444 0.73812 0.36441 0.0
H1593 H 0.32294 0.86846 0.4187 0.0
H1594 H 0.27206 0.76595 0.3755 0.0
H1595 H 0.39689 0.86369 0.3901 0.0
H1596 H 0.30702 0.82551 0.40681 0.0
H1597 H 0.37288 0.77959 0.37694 0.0
C1598 C 0.34011 0.75308 0.36908 0.0
C1599 C 0.31148 0.74878 0.36838 0.0
C1600 C 0.32677 0.83382 0.40318 0.0
C1601 C 0.33273 0.79555 0.38356 0.0
C1602 C 0.336 0.85826 0.41003 0.0
C1603 C 0.36124 0.86983 0.4053 0.0
C1604 C 0.34299 0.82058 0.39165 0.0
C1605 C 0.37722 0.8556 0.394 0.0
C1606 C 0.35077 0.77661 0.37646 0.0
C1607 C 0.29424 0.76838 0.37561 0.0
N1608 N 0.36781 0.83164 0.38753 0.0
N1609 N 0.30512 0.79083 0.38292 0.0
H1610 H 0.87801 0.64718 0.14352 0.0
H1611 H 0.96961 0.51548 0.12376 0.0
H1612 H 0.8618 0.56638 0.16301 0.0
H1613 H 0.00059 0.59853 0.11895 0.0
H1614 H 0.92786 0.53379 0.136 0.0
H1615 H 0.9212 0.62982 0.13227 0.0
C1616 C 0.88353 0.62584 0.14547 0.0
C1617 C 0.86617 0.60818 0.15415 0.0
C1618 C 0.94376 0.548 0.13217 0.0
C1619 C 0.91538 0.58819 0.14122 0.0
C1620 C 0.9676 0.53759 0.12515 0.0
C1621 C 0.98848 0.55547 0.1199 0.0
C1622 C 0.94064 0.57658 0.13396 0.0
C1623 C 0.98473 0.58393 0.12213 0.0
C1624 C 0.90822 0.61598 0.13909 0.0
C1625 C 0.87454 0.58076 0.15643 0.0
N1626 N 0.96119 0.59362 0.12892 0.0
N1627 N 0.89841 0.57155 0.14988 0.0
H1628 H 0.10394 0.11421 0.88157 0.0
H1629 H 0.20121 0.24677 0.88976 0.0
H1630 H 0.15513 0.13071 0.92266 0.0
H1631 H 0.15823 0.22505 0.84651 0.0
H1632 H 0.18111 0.20649 0.90293 0.0
H1633 H 0.1196 0.15734 0.86961 0.0
C1634 C 0.11822 0.12702 0.88817 0.0
C1635 C 0.12827 0.11875 0.90314 0.0
C1636 C 0.1758 0.21068 0.89061 0.0
C1637 C 0.14649 0.16805 0.88942 0.0
C1638 C 0.18727 0.23362 0.88311 0.0
C1639 C 0.18077 0.23954 0.86718 0.0
C1640 C 0.15793 0.19335 0.88205 0.0
C1641 C 0.16292 0.22175 0.85899 0.0
C1642 C 0.12727 0.15159 0.88128 0.0
C1643 C 0.14693 0.13614 0.91106 0.0
N1644 N 0.1521 0.19942 0.86653 0.0
N1645 N 0.15551 0.15991 0.90407 0.0
H1646 H 0.48904 0.39157 0.61558 0.0
H1647 H 0.62778 0.42614 0.66183 0.0
H1648 H 0.5198 0.47444 0.62186 0.0
H1649 H 0.61462 0.34749 0.63889 0.0
H1650 H 0.58466 0.44273 0.6504 0.0
H1651 H 0.53193 0.37374 0.62669 0.0
C1652 C 0.50492 0.40608 0.6189 0.0
C1653 C 0.50097 0.43464 0.61731 0.0
C1654 C 0.59121 0.42184 0.64787 0.0
C1655 C 0.5496 0.41423 0.6308 0.0
C1656 C 0.61575 0.41228 0.65446 0.0
C1657 C 0.62488 0.38539 0.65126 0.0
C1658 C 0.57544 0.40431 0.63817 0.0
C1659 C 0.60842 0.36841 0.64159 0.0
C1660 C 0.52931 0.39581 0.62545 0.0
C1661 C 0.52191 0.45228 0.62275 0.0
N1662 N 0.5844 0.37814 0.63541 0.0
N1663 N 0.54525 0.44181 0.62928 0.0
H1664 H 0.18765 0.02154 0.28778 0.0
H1665 H 0.19556 0.97096 0.19952 0.0
H1666 H 0.16132 0.07616 0.25013 0.0
H1667 H 0.15771 0.91873 0.23498 0.0
H1668 H 0.19297 0.00986 0.21825 0.0
H1669 H 0.18657 0.98291 0.26885 0.0
C1670 C 0.18172 0.02534 0.27551 0.0
C1671 C 0.17453 0.05192 0.27043 0.0
C1672 C 0.18519 0.98987 0.22184 0.0
C1673 C 0.17385 0.00827 0.24885 0.0
C1674 C 0.18681 0.96772 0.21127 0.0
C1675 C 0.17682 0.94174 0.2158 0.0
C1676 C 0.17435 0.98566 0.23715 0.0
C1677 C 0.1655 0.93854 0.23108 0.0
C1678 C 0.18097 0.00337 0.26481 0.0
C1679 C 0.16685 0.05587 0.25446 0.0
N1680 N 0.16492 0.96022 0.24136 0.0
N1681 N 0.16709 0.03427 0.24411 0.0
H1682 H 0.18807 0.87857 0.52133 0.0
H1683 H 0.2985 0.9664 0.4717 0.0
H1684 H 0.19466 0.96725 0.52374 0.0
H1685 H 0.29583 0.87742 0.47186 0.0
H1686 H 0.26021 0.96711 0.4906 0.0
H1687 H 0.22685 0.87776 0.50273 0.0
C1688 C 0.19758 0.89789 0.5179 0.0
C1689 C 0.18811 0.92302 0.52412 0.0
C1690 C 0.26804 0.94742 0.48654 0.0
C1691 C 0.23261 0.92222 0.50288 0.0
C1692 C 0.28994 0.94699 0.47575 0.0
C1693 C 0.30035 0.9218 0.47014 0.0
C1694 C 0.25637 0.92249 0.49174 0.0
C1695 C 0.28847 0.89732 0.47586 0.0
C1696 C 0.2198 0.8974 0.50732 0.0
C1697 C 0.20129 0.94739 0.51927 0.0
N1698 N 0.26704 0.89828 0.48629 0.0
N1699 N 0.22287 0.94637 0.50895 0.0
H1700 H 0.26992 0.0475 0.71947 0.0
H1701 H 0.36048 0.93825 0.7683 0.0
H1702 H 0.35879 0.04424 0.71779 0.0
H1703 H 0.27228 0.94603 0.77335 0.0
H1704 H 0.35999 0.97588 0.74893 0.0
H1705 H 0.27014 0.00955 0.73868 0.0
C1706 C 0.28948 0.03887 0.72317 0.0
C1707 C 0.31438 0.04906 0.717 0.0
C1708 C 0.34073 0.96934 0.75426 0.0
C1709 C 0.31476 0.00551 0.73891 0.0
C1710 C 0.34099 0.94778 0.76529 0.0
C1711 C 0.31639 0.93901 0.7725 0.0
C1712 C 0.3157 0.98221 0.75037 0.0
C1713 C 0.29175 0.95216 0.76813 0.0
C1714 C 0.28959 0.01718 0.73413 0.0
C1715 C 0.3391 0.03708 0.72224 0.0
N1716 N 0.29203 0.97312 0.75737 0.0
N1717 N 0.33866 0.01591 0.73285 0.0
H1718 H 0.2971 0.02046 0.02252 0.0
H1719 H 0.19457 0.11451 0.97108 0.0
H1720 H 0.30288 0.10918 0.02001 0.0
H1721 H 0.19242 0.02552 0.97112 0.0
H1722 H 0.23318 0.11307 0.98978 0.0
H1723 H 0.25805 0.02197 0.00416 0.0
C1724 C 0.29022 0.04026 0.01807 0.0
C1725 C 0.30328 0.06474 0.02283 0.0
C1726 C 0.22423 0.09386 0.98572 0.0
C1727 C 0.25845 0.06663 0.00185 0.0
C1728 C 0.2021 0.09466 0.97508 0.0
C1729 C 0.19028 0.07009 0.96948 0.0
C1730 C 0.23458 0.0683 0.99083 0.0
C1731 C 0.20095 0.04498 0.97507 0.0
C1732 C 0.26789 0.04111 0.00759 0.0
C1733 C 0.29347 0.08979 0.01666 0.0
N1734 N 0.22251 0.04474 0.98541 0.0
N1735 N 0.27161 0.09009 0.00653 0.0
H1736 H 0.7696 0.9448 0.71646 0.0
H1737 H 0.86481 0.04433 0.76915 0.0
H1738 H 0.85782 0.93576 0.72066 0.0
H1739 H 0.77598 0.04932 0.76814 0.0
H1740 H 0.86273 0.0057 0.75051 0.0
H1741 H 0.77155 0.98388 0.73482 0.0
C1742 C 0.78937 0.95096 0.72128 0.0
C1743 C 0.81359 0.93699 0.717 0.0
C1744 C 0.84369 0.01527 0.75434 0.0
C1745 C 0.81598 0.98182 0.73796 0.0
C1746 C 0.84486 0.03741 0.76495 0.0
C1747 C 0.82052 0.05005 0.77026 0.0
C1748 C 0.818 0.00569 0.74896 0.0
C1749 C 0.79527 0.04016 0.76441 0.0
C1750 C 0.79047 0.97331 0.73176 0.0
C1751 C 0.83862 0.94589 0.72363 0.0
N1752 N 0.79467 0.01854 0.7541 0.0
N1753 N 0.83917 0.96778 0.73374 0.0
H1754 H 0.7946 0.01907 0.4678 0.0
H1755 H 0.69352 0.11075 0.52155 0.0
H1756 H 0.79949 0.10778 0.47096 0.0
H1757 H 0.69412 0.02175 0.52223 0.0
H1758 H 0.73112 0.11006 0.50217 0.0
H1759 H 0.75689 0.01961 0.48713 0.0
C1760 C 0.7878 0.03866 0.47259 0.0
C1761 C 0.80021 0.06343 0.46773 0.0
C1762 C 0.72302 0.09068 0.50655 0.0
C1763 C 0.75694 0.06419 0.48981 0.0
C1764 C 0.70147 0.09105 0.51758 0.0
C1765 C 0.69067 0.06627 0.52356 0.0
C1766 C 0.73382 0.06534 0.50139 0.0
C1767 C 0.70185 0.04136 0.51799 0.0
C1768 C 0.76625 0.03895 0.48362 0.0
C1769 C 0.79056 0.08818 0.47436 0.0
N1770 N 0.72281 0.04154 0.50722 0.0
N1771 N 0.76945 0.08794 0.48502 0.0
H1772 H 0.63124 0.05837 0.22329 0.0
H1773 H 0.71851 0.94507 0.27102 0.0
H1774 H 0.71927 0.0484 0.21852 0.0
H1775 H 0.62988 0.95173 0.27348 0.0
H1776 H 0.71932 0.98343 0.25214 0.0
H1777 H 0.63052 0.02025 0.24234 0.0
C1778 C 0.65044 0.04825 0.2263 0.0
C1779 C 0.67534 0.05656 0.21926 0.0
C1780 C 0.69969 0.97647 0.25678 0.0
C1781 C 0.67465 0.0128 0.24102 0.0
C1782 C 0.69921 0.95454 0.26756 0.0
C1783 C 0.67409 0.94518 0.27386 0.0
C1784 C 0.67489 0.98922 0.2523 0.0
C1785 C 0.64973 0.95823 0.26892 0.0
C1786 C 0.65 0.02642 0.23714 0.0
C1787 C 0.69958 0.04265 0.22361 0.0
N1788 N 0.65074 0.97962 0.25846 0.0
N1789 N 0.69861 0.02145 0.23419 0.0
H1790 H 0.71942 0.94702 0.9512 0.0
H1791 H 0.77212 0.94412 0.0399 0.0
H1792 H 0.66607 0.91833 0.98891 0.0
H1793 H 0.82457 0.91605 0.00163 0.0
H1794 H 0.73284 0.94407 0.02145 0.0
H1795 H 0.75857 0.94517 0.9697 0.0
C1796 C 0.71596 0.94048 0.9634 0.0
C1797 C 0.68956 0.93279 0.96859 0.0
C1798 C 0.75296 0.93788 0.01715 0.0
C1799 C 0.73395 0.93109 0.98972 0.0
C1800 C 0.77534 0.93805 0.02759 0.0
C1801 C 0.80153 0.93005 0.02222 0.0
C1802 C 0.75703 0.93044 0.00116 0.0
C1803 C 0.80464 0.9222 0.00621 0.0
C1804 C 0.73827 0.93927 0.97387 0.0
C1805 C 0.68616 0.92429 0.98447 0.0
N1806 N 0.78266 0.92292 -0.00385 0.0
N1807 N 0.7081 0.92396 0.99457 0.0
H1808 H 0.71936 0.54574 0.77373 0.0
H1809 H 0.63047 0.44689 0.71709 0.0
H1810 H 0.63081 0.55028 0.76942 0.0
H1811 H 0.71942 0.44666 0.71843 0.0
H1812 H 0.6302 0.4839 0.73682 0.0
H1813 H 0.71981 0.50886 0.75388 0.0
C1814 C 0.7 0.53903 0.76859 0.0
C1815 C 0.67499 0.55109 0.77328 0.0
C1816 C 0.64978 0.47576 0.73281 0.0
C1817 C 0.67537 0.50879 0.75057 0.0
C1818 C 0.64997 0.45456 0.72157 0.0
C1819 C 0.67502 0.44366 0.71608 0.0
C1820 C 0.67484 0.48614 0.73867 0.0
C1821 C 0.69962 0.45446 0.7223 0.0
C1822 C 0.70029 0.51796 0.75725 0.0
C1823 C 0.65057 0.54159 0.76617 0.0
N1824 N 0.69891 0.47511 0.73327 0.0
N1825 N 0.65138 0.52096 0.75521 0.0
H1826 H 0.80068 0.46764 0.96992 0.0
H1827 H 0.68529 0.38169 0.01687 0.0
H1828 H 0.79105 0.37939 0.96608 0.0
H1829 H 0.69749 0.46934 0.02249 0.0
H1830 H 0.72333 0.38061 -0.00222 0.0
H1831 H 0.76264 0.46875 0.98901 0.0
C1832 C 0.79063 0.44847 0.97312 0.0
C1833 C 0.79905 0.42338 0.96636 0.0
C1834 C 0.71767 0.40009 0.00317 0.0
C1835 C 0.75537 0.42453 0.98817 0.0
C1836 C 0.69589 0.40074 0.01405 0.0
C1837 C 0.68821 0.42564 0.02132 0.0
C1838 C 0.73189 0.42452 -0.00049 0.0
C1839 C 0.70273 0.44966 0.0172 0.0
C1840 C 0.76888 0.44913 0.98402 0.0
C1841 C 0.78528 0.3992 0.97099 0.0
N1842 N 0.72388 0.44849 0.00659 0.0
N1843 N 0.76408 0.4004 0.98157 0.0
H1844 H 0.79089 0.52295 0.2028 0.0
H1845 H 0.79678 0.47041 0.29131 0.0
H1846 H 0.82714 0.57415 0.2393 0.0
H1847 H 0.82027 0.41628 0.25279 0.0
H1848 H 0.79793 0.50953 0.2727 0.0
H1849 H 0.79155 0.48383 0.22139 0.0
C1850 C 0.79884 0.52595 0.21476 0.0
C1851 C 0.80901 0.5517 0.21959 0.0
C1852 C 0.80285 0.48906 0.26839 0.0
C1853 C 0.80932 0.50745 0.24081 0.0
C1854 C 0.80206 0.4668 0.27892 0.0
C1855 C 0.80848 0.4402 0.27351 0.0
C1856 C 0.80929 0.48447 0.2523 0.0
C1857 C 0.81535 0.43655 0.25739 0.0
C1858 C 0.79935 0.50366 0.22527 0.0
C1859 C 0.81926 0.55454 0.23515 0.0
N1860 N 0.81524 0.45845 0.24726 0.0
N1861 N 0.81885 0.5327 0.24532 0.0
H1862 H 0.69821 0.61267 0.46762 0.0
H1863 H 0.79691 0.51997 0.52226 0.0
H1864 H 0.69314 0.5239 0.47006 0.0
H1865 H 0.80536 0.60817 0.51729 0.0
H1866 H 0.75842 0.52102 0.50348 0.0
H1867 H 0.73667 0.61151 0.4864 0.0
C1868 C 0.7051 0.59293 0.47215 0.0
C1869 C 0.69245 0.56834 0.46723 0.0
C1870 C 0.76873 0.54014 0.50646 0.0
C1871 C 0.73659 0.56685 0.4887 0.0
C1872 C 0.79074 0.53956 0.51718 0.0
C1873 C 0.80437 0.56404 0.52138 0.0
C1874 C 0.7602 0.56539 0.49992 0.0
C1875 C 0.79548 0.58879 0.5144 0.0
C1876 C 0.72714 0.59228 0.48284 0.0
C1877 C 0.7023 0.54337 0.47349 0.0
N1878 N 0.77391 0.58884 0.50406 0.0
N1879 N 0.7238 0.54327 0.48389 0.0
H1880 H 0.35528 0.56886 0.25682 0.0
H1881 H 0.28048 0.43332 0.22424 0.0
H1882 H 0.27774 0.53919 0.2754 0.0
H1883 H 0.34258 0.47732 0.19749 0.0
H1884 H 0.28216 0.46929 0.24472 0.0
H1885 H 0.35379 0.53281 0.2364 0.0
C1886 C 0.33794 0.55479 0.2566 0.0
C1887 C 0.3166 0.55704 0.26782 0.0
C1888 C 0.29538 0.47105 0.23435 0.0
C1889 C 0.31489 0.51567 0.2446 0.0
C1890 C 0.29451 0.45049 0.22269 0.0
C1891 C 0.31135 0.45238 0.20912 0.0
C1892 C 0.31347 0.49345 0.2325 0.0
C1893 C 0.32913 0.4751 0.20773 0.0
C1894 C 0.33708 0.53427 0.24493 0.0
C1895 C 0.29461 0.53827 0.26696 0.0
N1896 N 0.32979 0.4947 0.2193 0.0
N1897 N 0.29439 0.51828 0.2556 0.0
H1898 H 0.29147 0.51928 0.96776 0.0
H1899 H 0.1966 0.61084 0.02527 0.0
H1900 H 0.30036 0.60734 0.97325 0.0
H1901 H 0.19112 0.52214 0.02229 0.0
H1902 H 0.23377 0.61002 0.00564 0.0
H1903 H 0.25414 0.51993 0.98734 0.0
C1904 C 0.28563 0.53875 0.97311 0.0
C1905 C 0.29906 0.56331 0.96883 0.0
C1906 C 0.22443 0.59073 0.00926 0.0
C1907 C 0.25624 0.5642 0.99122 0.0
C1908 C 0.20313 0.59118 0.02045 0.0
C1909 C 0.19074 0.56651 0.02547 0.0
C1910 C 0.23341 0.56543 0.00299 0.0
C1911 C 0.20011 0.54166 0.0188 0.0
C1912 C 0.26429 0.5391 0.98428 0.0
C1913 C 0.29062 0.58791 0.97618 0.0
N1914 N 0.22089 0.54176 0.00792 0.0
N1915 N 0.26971 0.58773 0.98697 0.0
H1916 H 0.19162 0.52422 0.70215 0.0
H1917 H 0.19688 0.4682 0.78967 0.0
H1918 H 0.16724 0.57704 0.7411 0.0
H1919 H 0.15959 0.41875 0.75272 0.0
H1920 H 0.19598 0.50812 0.77166 0.0
H1921 H 0.18973 0.48444 0.72025 0.0
C1922 C 0.18598 0.5274 0.71453 0.0
C1923 C 0.17955 0.55382 0.72022 0.0
C1924 C 0.18797 0.48851 0.76757 0.0
C1925 C 0.17791 0.50879 0.74084 0.0
C1926 C 0.18862 0.46577 0.77774 0.0
C1927 C 0.17828 0.44027 0.7726 0.0
C1928 C 0.17769 0.48541 0.75204 0.0
C1929 C 0.16763 0.43815 0.7571 0.0
C1930 C 0.18476 0.50476 0.72476 0.0
C1931 C 0.1722 0.55692 0.7363 0.0
N1932 N 0.16794 0.46042 0.74723 0.0
N1933 N 0.17193 0.53464 0.74616 0.0
H1934 H 0.29499 0.38028 0.52384 0.0
H1935 H 0.19501 0.46848 0.46757 0.0
H1936 H 0.29501 0.46925 0.52217 0.0
H1937 H 0.19154 0.37979 0.47153 0.0
H1938 H 0.23191 0.46918 0.48737 0.0
H1939 H 0.2577 0.37968 0.50429 0.0
C1940 C 0.28722 0.3997 0.51933 0.0
C1941 C 0.29814 0.42486 0.52467 0.0
C1942 C 0.22304 0.44957 0.48394 0.0
C1943 C 0.25534 0.42431 0.5023 0.0
C1944 C 0.20195 0.44914 0.47263 0.0
C1945 C 0.1902 0.42402 0.46784 0.0
C1946 C 0.23255 0.42468 0.4905 0.0
C1947 C 0.19998 0.39964 0.47486 0.0
C1948 C 0.26586 0.39934 0.50819 0.0
C1949 C 0.2872 0.44937 0.51841 0.0
N1950 N 0.22064 0.40058 0.48579 0.0
N1951 N 0.2664 0.44848 0.50756 0.0
H1952 H 0.29662 0.98215 0.40298 0.0
H1953 H 0.2784 0.1191 0.35429 0.0
H1954 H 0.36921 0.02518 0.3866 0.0
H1955 H 0.23149 0.04627 0.34254 0.0
H1956 H 0.30867 0.09066 0.3712 0.0
H1957 H 0.26825 0.01195 0.38606 0.0
C1958 C 0.30653 -0.00191 0.39597 0.0
C1959 C 0.33524 0.00126 0.39612 0.0
C1960 C 0.29177 0.08106 0.36482 0.0
C1961 C 0.303 0.03539 0.37704 0.0
C1962 C 0.27454 0.09716 0.35527 0.0
C1963 C 0.25258 0.08489 0.34702 0.0
C1964 C 0.2863 0.05283 0.36646 0.0
C1965 C 0.24836 0.05643 0.34862 0.0
C1966 C 0.29038 0.01488 0.38628 0.0
C1967 C 0.34711 0.02207 0.38671 0.0
N1968 N 0.26487 0.04137 0.35835 0.0
N1969 N 0.33086 0.0386 0.37759 0.0
H1970 H 0.21756 0.06626 0.66364 0.0
H1971 H 0.17247 0.0218 0.57687 0.0
H1972 H 0.24094 0.11295 0.62187 0.0
H1973 H 0.12394 0.00138 0.61844 0.0
H1974 H 0.19954 0.05375 0.59313 0.0
H1975 H 0.18468 0.04035 0.64734 0.0
C1976 C 0.21567 0.07116 0.65107 0.0
C1977 C 0.23211 0.09166 0.64407 0.0
C1978 C 0.18276 0.04249 0.59863 0.0
C1979 C 0.19483 0.06198 0.6254 0.0
C1980 C 0.16739 0.0242 0.58939 0.0
C1981 C 0.14604 0.00882 0.59635 0.0
C1982 C 0.17709 0.04498 0.615 0.0
C1983 C 0.14022 0.01284 0.6126 0.0
C1984 C 0.19683 0.05647 0.64181 0.0
C1985 C 0.22868 0.09729 0.62775 0.0
N1986 N 0.15593 0.03027 0.62144 0.0
N1987 N 0.21066 0.08227 0.61891 0.0
H1988 H 0.1194 0.96071 0.88953 0.0
H1989 H 0.25661 0.94407 0.8418 0.0
H1990 H 0.19197 0.00678 0.90283 0.0
H1991 H 0.21525 0.87026 0.85778 0.0
H1992 H 0.22659 0.97145 0.85914 0.0
H1993 H 0.14852 0.93023 0.87314 0.0
C1994 C 0.14143 0.96427 0.88906 0.0
C1995 C 0.15341 0.98616 0.89753 0.0
C1996 C 0.2241 0.94926 0.85876 0.0
C1997 C 0.18623 0.95223 0.87864 0.0
C1998 C 0.24099 0.93369 0.84882 0.0
C1999 C 0.23832 0.90493 0.84842 0.0
C2000 C 0.20396 0.93603 0.86798 0.0
C2001 C 0.21794 0.89242 0.85786 0.0
C2002 C 0.15791 0.94692 0.87979 0.0
C2003 C 0.182 0.98999 0.89656 0.0
N2004 N 0.20124 0.90812 0.8672 0.0
N2005 N 0.19743 0.97344 0.88706 0.0
H2006 H 0.25285 0.87468 0.12052 0.0
H2007 H 0.37061 0.98951 0.1172 0.0
H2008 H 0.27537 0.92503 0.16098 0.0
H2009 H 0.32289 0.96539 0.07599 0.0
H2010 H 0.34382 0.95733 0.13351 0.0
H2011 H 0.28656 0.89964 0.10424 0.0
C2012 C 0.26508 0.89077 0.12602 0.0
C2013 C 0.26112 0.89803 0.14208 0.0
C2014 C 0.33945 0.95895 0.12086 0.0
C2015 C 0.29973 0.92632 0.1236 0.0
C2016 C 0.35478 0.97717 0.11153 0.0
C2017 C 0.34873 0.98033 0.09525 0.0
C2018 C 0.31825 0.94352 0.1138 0.0
C2019 C 0.328 0.96382 0.08854 0.0
C2020 C 0.2842 0.90502 0.11672 0.0
C2021 C 0.27754 0.91902 0.1486 0.0
N2022 N 0.31341 0.94615 0.09786 0.0
N2023 N 0.29613 0.93247 0.13932 0.0
H2024 H 0.67611 0.96935 0.577 0.0
H2025 H 0.71471 0.9184 0.66351 0.0
H2026 H 0.62522 0.9874 0.61799 0.0
H2027 H 0.74011 0.87379 0.62141 0.0
H2028 H 0.6831 0.9455 0.64709 0.0
H2029 H 0.70153 0.93568 0.59302 0.0
C2030 C 0.67019 0.96613 0.58933 0.0
C2031 C 0.64866 0.98133 0.59621 0.0
C2032 C 0.69536 0.92955 0.64149 0.0
C2033 C 0.67773 0.94314 0.61456 0.0
C2034 C 0.71345 0.91416 0.65083 0.0
C2035 C 0.73014 0.89396 0.64378 0.0
C2036 C 0.6944 0.92508 0.62495 0.0
C2037 C 0.72759 0.88918 0.62732 0.0
C2038 C 0.6846 0.94683 0.59842 0.0
C2039 C 0.64172 0.97618 0.61221 0.0
N2040 N 0.71033 0.90494 0.61839 0.0
N2041 N 0.65646 0.95776 0.62091 0.0
H2042 H 0.77111 0.92475 0.32601 0.0
H2043 H 0.81607 0.96739 0.41302 0.0
H2044 H 0.74888 0.87635 0.36733 0.0
H2045 H 0.86422 0.98959 0.3716 0.0
H2046 H 0.78959 0.93531 0.39652 0.0
H2047 H 0.80399 0.95042 0.34244 0.0
C2048 C 0.77328 0.9194 0.3385 0.0
C2049 C 0.75712 0.89853 0.34535 0.0
C2050 C 0.80616 0.94699 0.3911 0.0
C2051 C 0.79436 0.92795 0.36418 0.0
C2052 C 0.82119 0.96537 0.40048 0.0
C2053 C 0.84225 0.98129 0.39364 0.0
C2054 C 0.81187 0.94496 0.37472 0.0
C2055 C 0.84814 0.97772 0.37736 0.0
C2056 C 0.79211 0.93396 0.34784 0.0
C2057 C 0.76091 0.89232 0.36157 0.0
N2058 N 0.83275 0.9602 0.36838 0.0
N2059 N 0.77888 0.90724 0.3705 0.0
H2060 H 0.75162 0.1176 0.12337 0.0
H2061 H 0.86371 -0.00239 0.12087 0.0
H2062 H 0.77244 0.06879 0.16477 0.0
H2063 H 0.81463 0.02077 0.08002 0.0
H2064 H 0.8381 0.03088 0.1371 0.0
H2065 H 0.78294 0.08944 0.10734 0.0
C2066 C 0.76303 0.1012 0.12913 0.0
C2067 C 0.75925 0.09534 0.1454 0.0
C2068 C 0.83311 0.02871 0.12456 0.0
C2069 C 0.79508 0.06328 0.12716 0.0
C2070 C 0.84771 0.00984 0.11529 0.0
C2071 C 0.84109 0.0063 0.09911 0.0
C2072 C 0.81212 0.04442 0.11752 0.0
C2073 C 0.82018 0.02266 0.09248 0.0
C2074 C 0.78075 0.08509 0.11996 0.0
C2075 C 0.77455 0.07381 0.15223 0.0
N2076 N 0.80644 0.04107 0.10173 0.0
N2077 N 0.79181 0.0585 0.14306 0.0
H2078 H 0.67955 0.02258 0.91 0.0
H2079 H 0.72623 0.06498 0.8231 0.0
H2080 H 0.63323 -0.00218 0.8684 0.0
H2081 H 0.74419 0.11513 0.86441 0.0
H2082 H 0.69421 0.03773 0.83931 0.0
H2083 H 0.70615 0.0543 0.89336 0.0
C2084 C 0.67493 0.02389 0.89737 0.0
C2085 C 0.65425 0.0075 0.89054 0.0
C2086 C 0.70498 0.0549 0.84474 0.0
C2087 C 0.68472 0.04348 0.87146 0.0
C2088 C 0.7233 0.07038 0.83553 0.0
C2089 C 0.738 0.09225 0.84244 0.0
C2090 C 0.70181 0.06104 0.86101 0.0
C2091 C 0.7333 0.09844 0.85859 0.0
C2092 C 0.69 0.04208 0.88791 0.0
C2093 C 0.64899 0.01014 0.87413 0.0
N2094 N 0.71587 0.08268 0.86738 0.0
N2095 N 0.66438 0.02757 0.86509 0.0
H2096 H 0.81381 0.51779 0.91448 0.0
H2097 H 0.77047 0.56616 0.82811 0.0
H2098 H 0.86396 0.50087 0.87302 0.0
H2099 H 0.74668 0.61176 0.87017 0.0
H2100 H 0.8026 0.53932 0.84436 0.0
H2101 H 0.78639 0.54994 0.89849 0.0
C2102 C 0.81913 0.52094 0.90205 0.0
C2103 C 0.8411 0.50656 0.89504 0.0
C2104 C 0.79052 0.55539 0.84998 0.0
C2105 C 0.80972 0.54293 0.87673 0.0
C2106 C 0.77213 0.57061 0.84074 0.0
C2107 C 0.75585 0.59112 0.84783 0.0
C2108 C 0.79219 0.56034 0.86646 0.0
C2109 C 0.75891 0.59616 0.86423 0.0
C2110 C 0.80357 0.53935 0.89297 0.0
C2111 C 0.8472 0.51153 0.87891 0.0
N2112 N 0.77649 0.5806 0.87306 0.0
N2113 N 0.83137 0.52906 0.87024 0.0
H2114 H 0.6747 0.52344 0.07562 0.0
H2115 H 0.71536 0.56857 0.16287 0.0
H2116 H 0.62391 0.50427 0.11649 0.0
H2117 H 0.74191 0.61469 0.12154 0.0
H2118 H 0.68293 0.54326 0.14604 0.0
H2119 H 0.70094 0.55583 0.09208 0.0
C2120 C 0.66893 0.52621 0.08801 0.0
C2121 C 0.64724 0.51099 0.09474 0.0
C2122 C 0.69565 0.55913 0.14069 0.0
C2123 C 0.6773 0.54766 0.1136 0.0
C2124 C 0.71424 0.57347 0.15027 0.0
C2125 C 0.73145 0.59361 0.14355 0.0
C2126 C 0.69467 0.56458 0.12425 0.0
C2127 C 0.72901 0.5993 0.12718 0.0
C2128 C 0.68383 0.54476 0.09736 0.0
C2129 C 0.64052 0.51553 0.11083 0.0
N2130 N 0.71121 0.58456 0.11802 0.0
N2131 N 0.65576 0.53318 0.11978 0.0
H2132 H 0.62093 0.48531 0.37586 0.0
H2133 H 0.74554 0.37824 0.37276 0.0
H2134 H 0.6756 0.47204 0.41582 0.0
H2135 H 0.71455 0.42132 0.33139 0.0
H2136 H 0.71256 0.40354 0.38945 0.0
H2137 H 0.64775 0.45231 0.36027 0.0
C2138 C 0.63837 0.47522 0.38143 0.0
C2139 C 0.64628 0.4817 0.3971 0.0
C2140 C 0.71291 0.4072 0.3767 0.0
C2141 C 0.67683 0.44389 0.37935 0.0
C2142 C 0.73159 0.39276 0.36718 0.0
C2143 C 0.7329 0.39796 0.35071 0.0
C2144 C 0.69519 0.42649 0.36961 0.0
C2145 C 0.71442 0.41697 0.34407 0.0
C2146 C 0.65368 0.45649 0.3725 0.0
C2147 C 0.669 0.4679 0.40371 0.0
N2148 N 0.6963 0.43057 0.35355 0.0
N2149 N 0.68359 0.44967 0.39476 0.0
H2150 H 0.86759 0.492 0.61781 0.0
H2151 H 0.75115 0.37623 0.62169 0.0
H2152 H 0.8185 0.46863 0.577 0.0
H2153 H 0.77336 0.42632 0.66233 0.0
H2154 H 0.78359 0.40247 0.6053 0.0
H2155 H 0.84066 0.46031 0.63436 0.0
C2156 C 0.85135 0.48 0.61229 0.0
C2157 C 0.8451 0.48309 0.59603 0.0
C2158 C 0.78145 0.40753 0.61783 0.0
C2159 C 0.81452 0.44678 0.61485 0.0
C2160 C 0.76307 0.39253 0.62722 0.0
C2161 C 0.75939 0.39928 0.64338 0.0
C2162 C 0.79655 0.42912 0.62471 0.0
C2163 C 0.77537 0.42061 0.64989 0.0
C2164 C 0.83596 0.46205 0.62176 0.0
C2165 C 0.82382 0.46706 0.58951 0.0
N2166 N 0.79329 0.43482 0.64052 0.0
N2167 N 0.80926 0.44955 0.59896 0.0
H2168 H 0.12814 0.49243 0.12029 0.0
H2169 H 0.24402 0.37625 0.12179 0.0
H2170 H 0.17503 0.4697 0.07849 0.0
H2171 H 0.22444 0.42614 0.16295 0.0
H2172 H 0.2116 0.40346 0.10594 0.0
H2173 H 0.15628 0.46093 0.13625 0.0
C2174 C 0.14415 0.4806 0.11444 0.0
C2175 C 0.14941 0.48379 0.09806 0.0
C2176 C 0.21436 0.40831 0.11846 0.0
C2177 C 0.18139 0.44774 0.11621 0.0
C2178 C 0.23274 0.39277 0.12753 0.0
C2179 C 0.23703 0.39909 0.14369 0.0
C2180 C 0.19987 0.42998 0.12567 0.0
C2181 C 0.2219 0.42075 0.1505 0.0
C2182 C 0.16024 0.46278 0.12357 0.0
C2183 C 0.17045 0.46801 0.09111 0.0
N2184 N 0.20391 0.43542 0.14145 0.0
N2185 N 0.18569 0.45061 0.10023 0.0
H2186 H 0.36446 0.49106 0.87236 0.0
H2187 H 0.2497 0.37329 0.86859 0.0
H2188 H 0.31532 0.46713 0.91308 0.0
H2189 H 0.27355 0.42225 0.8278 0.0
H2190 H 0.28195 0.39969 0.8851 0.0
H2191 H 0.33921 0.45779 0.85601 0.0
C2192 C 0.34858 0.47862 0.87791 0.0
C2193 C 0.34175 0.48207 0.89406 0.0
C2194 C 0.28023 0.40442 0.8725 0.0
C2195 C 0.31307 0.44396 0.87546 0.0
C2196 C 0.26197 0.38934 0.86307 0.0
C2197 C 0.25876 0.39583 0.84685 0.0
C2198 C 0.29564 0.4258 0.86559 0.0
C2199 C 0.27517 0.41681 0.8403 0.0
C2200 C 0.33416 0.45973 0.86855 0.0
C2201 C 0.32101 0.46536 0.90062 0.0
N2202 N 0.29288 0.43111 0.84971 0.0
N2203 N 0.30733 0.44703 0.89127 0.0
H2204 H 0.2759 0.57238 0.66426 0.0
H2205 H 0.31381 0.52348 0.57728 0.0
H2206 H 0.2479 0.61651 0.62255 0.0
H2207 H 0.36524 0.50535 0.61803 0.0
H2208 H 0.28832 0.55679 0.5935 0.0
H2209 H 0.30798 0.54655 0.6475 0.0
C2210 C 0.27668 0.57677 0.65159 0.0
C2211 C 0.25911 0.59644 0.64475 0.0
C2212 C 0.3054 0.54572 0.59881 0.0
C2213 C 0.29545 0.56677 0.62551 0.0
C2214 C 0.31985 0.52663 0.58959 0.0
C2215 C 0.34151 0.51143 0.59636 0.0
C2216 C 0.31235 0.54924 0.61494 0.0
C2217 C 0.34862 0.51652 0.61233 0.0
C2218 C 0.29505 0.56212 0.64205 0.0
C2219 C 0.2611 0.60149 0.62829 0.0
N2220 N 0.33382 0.53473 0.62115 0.0
N2221 N 0.27867 0.58641 0.61916 0.0
H2222 H 0.2261 0.5623 0.32514 0.0
H2223 H 0.18049 0.51682 0.41197 0.0
H2224 H 0.24616 0.61037 0.36695 0.0
H2225 H 0.13334 0.49505 0.3701 0.0
H2226 H 0.20802 0.54836 0.39564 0.0
H2227 H 0.19492 0.53423 0.34141 0.0
C2228 C 0.22387 0.567 0.33771 0.0
C2229 C 0.23876 0.58864 0.34472 0.0
C2230 C 0.1915 0.53681 0.39009 0.0
C2231 C 0.2035 0.55653 0.36335 0.0
C2232 C 0.17588 0.51875 0.39936 0.0
C2233 C 0.15466 0.50328 0.39236 0.0
C2234 C 0.18619 0.53895 0.37366 0.0
C2235 C 0.14947 0.50666 0.37599 0.0
C2236 C 0.20602 0.55108 0.34696 0.0
C2237 C 0.23501 0.59392 0.36106 0.0
N2238 N 0.16534 0.52393 0.36714 0.0
N2239 N 0.21796 0.57777 0.36987 0.0
H2240 H 0.23562 0.31537 0.22363 0.0
H2241 H 0.26458 0.17237 0.26848 0.0
H2242 H 0.29891 0.25828 0.2092 0.0
H2243 H 0.19473 0.22429 0.2786 0.0
H2244 H 0.27878 0.20444 0.2474 0.0
H2245 H 0.22172 0.28338 0.24478 0.0
C2246 C 0.24665 0.29611 0.22502 0.0
C2247 C 0.26842 0.28935 0.21477 0.0
C2248 C 0.26029 0.2088 0.25418 0.0
C2249 C 0.25264 0.25263 0.23876 0.0
C2250 C 0.25215 0.19045 0.26612 0.0
C2251 C 0.22835 0.19569 0.27507 0.0
C2252 C 0.24458 0.23262 0.2513 0.0
C2253 C 0.21321 0.21963 0.27188 0.0
C2254 C 0.23865 0.27781 0.23701 0.0
C2255 C 0.2819 0.26408 0.21687 0.0
N2256 N 0.22158 0.23726 0.26024 0.0
N2257 N 0.27382 0.24661 0.22866 0.0
H2258 H 0.05055 0.9393 0.50939 0.0
H2259 H 0.93843 0.04991 0.48035 0.0
H2260 H 0.02334 0.00782 0.53807 0.0
H2261 H 0.96385 0.98026 0.45204 0.0
H2262 H 0.96965 0.03496 0.50164 0.0
H2263 H 0.01942 0.95422 0.488 0.0
C2264 C 0.03798 0.95751 0.51112 0.0
C2265 C 0.03928 0.97232 0.52544 0.0
C2266 C 0.96848 0.02294 0.49077 0.0
C2267 C 0.00371 0.98949 0.50122 0.0
C2268 C 0.95066 0.03145 0.47867 0.0
C2269 C 0.94885 0.01634 0.46448 0.0
C2270 C 0.98453 -0.00089 0.48862 0.0
C2271 C 0.96503 0.99262 0.46278 0.0
C2272 C 0.0202 0.96598 0.49898 0.0
C2273 C 0.02262 0.9957 0.52722 0.0
N2274 N 0.98225 0.98472 0.47472 0.0
N2275 N 0.0055 0.00358 0.51525 0.0
H2276 H 0.29904 0.80219 0.7622 0.0
H2277 H 0.19406 0.68381 0.73467 0.0
H2278 H 0.23009 0.77541 0.7907 0.0
H2279 H 0.25519 0.71977 0.70366 0.0
H2280 H 0.20873 0.71506 0.75605 0.0
H2281 H 0.28486 0.77024 0.7411 0.0
C2282 C 0.28089 0.78953 0.76396 0.0
C2283 C 0.26573 0.79123 0.77816 0.0
C2284 C 0.2189 0.71617 0.74456 0.0
C2285 C 0.24945 0.75462 0.75423 0.0
C2286 C 0.21061 0.6983 0.73242 0.0
C2287 C 0.22334 0.69948 0.71743 0.0
C2288 C 0.24022 0.73516 0.74168 0.0
C2289 C 0.24462 0.71858 0.71502 0.0
C2290 C 0.27282 0.7713 0.75197 0.0
C2291 C 0.24248 0.77437 0.77997 0.0
N2292 N 0.25242 0.73568 0.72704 0.0
N2293 N 0.23504 0.75671 0.76814 0.0
H2294 H 0.47272 0.98807 0.03759 0.0
H2295 H 0.52853 0.01737 0.94913 0.0
H2296 H 0.44057 0.05244 0.00743 0.0
H2297 H 0.55752 0.95105 0.97894 0.0
H2298 H 0.49678 0.03138 0.97042 0.0
H2299 H 0.50477 0.975 0.01638 0.0
C2300 C 0.47258 -0.00048 0.02648 0.0
C2301 C 0.4542 0.02141 0.02421 0.0
C2302 C 0.51006 0.01375 0.97231 0.0
C2303 C 0.49052 0.00651 -0.00016 0.0
C2304 C 0.52804 0.00571 0.96016 0.0
C2305 C 0.54534 0.98289 0.9623 0.0
C2306 C 0.50953 -0.00112 0.98671 0.0
C2307 C 0.54446 0.96878 0.97688 0.0
C2308 C 0.49076 0.99201 0.01436 0.0
C2309 C 0.45444 0.03536 0.00956 0.0
N2310 N 0.52679 0.97695 0.98852 0.0
N2311 N 0.47238 0.0277 -0.00209 0.0
H2312 H 0.26208 0.81922 0.22161 0.0
H2313 H 0.23122 0.67795 0.26783 0.0
H2314 H 0.19107 0.76833 0.21234 0.0
H2315 H 0.29709 0.73327 0.28066 0.0
H2316 H 0.21651 0.71047 0.24714 0.0
H2317 H 0.27561 0.78786 0.24316 0.0
C2318 C 0.24921 0.80156 0.22428 0.0
C2319 C 0.2253 0.7964 0.21541 0.0
C2320 C 0.23417 0.71556 0.25447 0.0
C2321 C 0.24081 0.76021 0.23971 0.0
C2322 C 0.2426 0.69697 0.2662 0.0
C2323 C 0.26548 0.70298 0.27577 0.0
C2324 C 0.2488 0.74029 0.25232 0.0
C2325 C 0.27934 0.72799 0.27345 0.0
C2326 C 0.25697 0.78361 0.23649 0.0
C2327 C 0.20963 0.77295 0.219 0.0
N2328 N 0.27086 0.74573 0.26189 0.0
N2329 N 0.21767 0.75567 0.23088 0.0
H2330 H 0.55038 0.05264 0.51085 0.0
H2331 H 0.44208 0.93909 0.48069 0.0
H2332 H 0.52797 0.98064 0.53805 0.0
H2333 H 0.46225 0.01235 0.45403 0.0
H2334 H 0.47388 0.95372 0.50176 0.0
H2335 H 0.51891 0.03792 0.48959 0.0
C2336 C 0.53877 0.03372 0.51228 0.0
C2337 C 0.54146 0.01788 0.52616 0.0
C2338 C 0.47143 0.96661 0.4913 0.0
C2339 C 0.50557 0.00089 0.50207 0.0
C2340 C 0.45327 0.95828 0.47933 0.0
C2341 C 0.4498 0.97453 0.46567 0.0
C2342 C 0.48615 0.9914 0.48956 0.0
C2343 C 0.46471 -0.00084 0.46436 0.0
C2344 C 0.52081 0.02534 0.50021 0.0
C2345 C 0.5261 0.99354 0.52755 0.0
N2346 N 0.48229 0.00687 0.47617 0.0
N2347 N 0.50877 0.98578 0.51565 0.0
H2348 H 0.18668 0.2663 0.77621 0.0
H2349 H 0.29893 0.23046 0.70917 0.0
H2350 H 0.26071 0.3137 0.76886 0.0
H2351 H 0.23204 0.17622 0.72181 0.0
H2352 H 0.28374 0.26284 0.72985 0.0
H2353 H 0.20139 0.2344 0.75516 0.0
C2354 C 0.20599 0.26996 0.77006 0.0
C2355 C 0.22246 0.29262 0.77408 0.0
C2356 C 0.27242 0.24383 0.72815 0.0
C2357 C 0.23945 0.25647 0.75011 0.0
C2358 C 0.28105 0.22545 0.71636 0.0
C2359 C 0.26676 0.20072 0.71395 0.0
C2360 C 0.2492 0.23744 0.73748 0.0
C2361 C 0.24375 0.195 0.72349 0.0
C2362 C 0.2144 0.25182 0.7581 0.0
C2363 C 0.24729 0.29662 0.76588 0.0
N2364 N 0.23563 0.21327 0.73484 0.0
N2365 N 0.25505 0.27872 0.75425 0.0
H2366 H 0.93391 0.94645 0.01003 0.0
H2367 H 0.04899 0.0547 0.98182 0.0
H2368 H 0.96279 0.01334 0.03946 0.0
H2369 H 0.0251 0.98339 0.95443 0.0
H2370 H 0.01634 0.04106 0.00274 0.0
H2371 H 0.96551 0.96115 0.98887 0.0
C2372 C 0.94691 0.9643 0.01196 0.0
C2373 C 0.94609 0.97859 0.02647 0.0
C2374 C 0.01821 0.02839 0.99216 0.0
C2375 C 0.98224 0.99552 0.00248 0.0
C2376 C 0.03686 0.03613 0.98028 0.0
C2377 C 0.03954 0.02014 0.96645 0.0
C2378 C 0.00217 0.00451 0.99012 0.0
C2379 C 0.02334 -0.00362 0.96489 0.0
C2380 C 0.96499 0.97263 -5e-05 0.0
C2381 C 0.96323 0.00158 0.02848 0.0
N2382 N 0.0053 0.98928 0.97658 0.0
N2383 N 0.98069 0.00933 0.01661 0.0
H2384 H 0.79887 0.80091 0.73154 0.0
H2385 H 0.69021 0.68653 0.76025 0.0
H2386 H 0.73311 0.77006 0.70194 0.0
H2387 H 0.7572 0.71578 0.78947 0.0
H2388 H 0.70544 0.71718 0.73873 0.0
H2389 H 0.78375 0.77017 0.75306 0.0
C2390 C 0.78124 0.78759 0.72962 0.0
C2391 C 0.76723 0.78781 0.71501 0.0
C2392 C 0.71681 0.71696 0.74985 0.0
C2393 C 0.74982 0.75268 0.73942 0.0
C2394 C 0.70815 0.69946 0.76208 0.0
C2395 C 0.72247 0.6988 0.77658 0.0
C2396 C 0.73999 0.73389 0.75217 0.0
C2397 C 0.74546 0.71598 0.77848 0.0
C2398 C 0.77265 0.77004 0.74185 0.0
C2399 C 0.74461 0.77019 0.71301 0.0
N2400 N 0.75354 0.73284 0.7664 0.0
N2401 N 0.73657 0.75333 0.72509 0.0
H2402 H 0.79217 0.31305 0.2593 0.0
H2403 H 0.69064 0.19144 0.23211 0.0
H2404 H 0.73353 0.27435 0.29081 0.0
H2405 H 0.75594 0.2235 0.20256 0.0
H2406 H 0.70443 0.22322 0.25341 0.0
H2407 H 0.77734 0.28225 0.23779 0.0
C2408 C 0.7761 0.29808 0.26163 0.0
C2409 C 0.76412 0.29602 0.27679 0.0
C2410 C 0.71573 0.22335 0.24226 0.0
C2411 C 0.7471 0.26074 0.25239 0.0
C2412 C 0.7079 0.20521 0.23016 0.0
C2413 C 0.72218 0.20501 0.21563 0.0
C2414 C 0.73797 0.24142 0.23976 0.0
C2415 C 0.74424 0.22332 0.21356 0.0
C2416 C 0.76772 0.28044 0.24941 0.0
C2417 C 0.74351 0.27625 0.2793 0.0
N2418 N 0.75148 0.24081 0.2255 0.0
N2419 N 0.73562 0.25934 0.26721 0.0
H2420 H 0.80336 0.23385 0.77892 0.0
H2421 H 0.69237 0.26282 0.71 0.0
H2422 H 0.73986 0.17622 0.76549 0.0
H2423 H 0.7576 0.31934 0.7222 0.0
H2424 H 0.70889 0.23112 0.73066 0.0
H2425 H 0.78642 0.26599 0.75857 0.0
C2426 C 0.78586 0.22803 0.77163 0.0
C2427 C 0.77302 0.20243 0.77374 0.0
C2428 C 0.71957 0.25048 0.72888 0.0
C2429 C 0.75351 0.23885 0.75054 0.0
C2430 C 0.71015 0.26851 0.7171 0.0
C2431 C 0.72363 0.29364 0.71452 0.0
C2432 C 0.74268 0.25769 0.73809 0.0
C2433 C 0.74649 0.30023 0.724 0.0
C2434 C 0.77621 0.24629 0.76003 0.0
C2435 C 0.75049 0.19569 0.76404 0.0
N2436 N 0.75534 0.28233 0.73538 0.0
N2437 N 0.74141 0.21381 0.75286 0.0
H2438 H 0.75457 0.81723 0.26767 0.0
H2439 H 0.72482 0.67712 0.22004 0.0
H2440 H 0.6869 0.76291 0.27868 0.0
H2441 H 0.79914 0.72477 0.21444 0.0
H2442 H 0.70926 0.70941 0.24067 0.0
H2443 H 0.76981 0.78503 0.24694 0.0
C2444 C 0.74285 0.79856 0.26559 0.0
C2445 C 0.71944 0.79262 0.27475 0.0
C2446 C 0.72903 0.71277 0.235 0.0
C2447 C 0.73675 0.75566 0.25127 0.0
C2448 C 0.73793 0.6943 0.22331 0.0
C2449 C 0.76335 0.69829 0.21575 0.0
C2450 C 0.74563 0.73549 0.239 0.0
C2451 C 0.7794 0.72109 0.22009 0.0
C2452 C 0.7516 0.78013 0.25386 0.0
C2453 C 0.7051 0.76808 0.27182 0.0
N2454 N 0.77026 0.73889 0.23143 0.0
N2455 N 0.71395 0.75047 0.26029 0.0
H2456 H 0.43399 0.54815 0.98238 0.0
H2457 H 0.55239 0.44164 0.00797 0.0
H2458 H 0.46585 0.48499 0.95126 0.0
H2459 H 0.52303 0.50712 0.03829 0.0
H2460 H 0.5205 0.45686 0.98705 0.0
H2461 H 0.46589 0.5329 0.00327 0.0
C2462 C 0.44773 0.53103 0.98001 0.0
C2463 C 0.44749 0.51782 0.96515 0.0
C2464 C 0.52099 0.4679 -0.00172 0.0
C2465 C 0.48398 0.50032 0.98882 0.0
C2466 C 0.53919 0.45925 0.01016 0.0
C2467 C 0.5401 0.4731 0.02482 0.0
C2468 C 0.50363 0.49057 0.00113 0.0
C2469 C 0.52261 0.4957 0.02719 0.0
C2470 C 0.46596 0.52239 0.99187 0.0
C2471 C 0.46571 0.49587 0.96255 0.0
N2472 N 0.50505 0.50374 0.01546 0.0
N2473 N 0.48323 0.48777 0.97428 0.0
H2474 H 0.02873 0.51059 0.44998 0.0
H2475 H 0.96745 0.47831 0.53688 0.0
H2476 H 0.05122 0.43936 0.4778 0.0
H2477 H 0.94222 0.54769 0.50829 0.0
H2478 H -0.00137 0.46388 0.51547 0.0
H2479 H -0.00299 0.52474 0.47121 0.0
C2480 C 0.02678 0.49788 0.46056 0.0
C2481 C 0.04233 0.47373 0.46218 0.0
C2482 C 0.98631 0.48227 0.51385 0.0
C2483 C 0.00652 0.48982 0.48655 0.0
C2484 C 0.96865 0.49054 0.52608 0.0
C2485 C 0.95253 0.51427 0.5243 0.0
C2486 C 0.9878 0.49789 0.49974 0.0
C2487 C 0.95439 0.52923 0.51004 0.0
C2488 C 0.00881 0.50597 0.47268 0.0
C2489 C 0.03953 0.45815 0.47617 0.0
N2490 N 0.97178 0.52083 0.49829 0.0
N2491 N 0.02194 0.46646 0.48783 0.0
H2492 H 0.00804 0.54671 0.03328 0.0
H2493 H 0.9829 0.44467 0.95937 0.0
H2494 H 0.06611 0.48456 0.0185 0.0
H2495 H 0.92365 0.50505 0.975 0.0
H2496 H 0.01397 0.45929 0.98081 0.0
H2497 H 0.97678 0.53193 0.01195 0.0
C2498 C 0.01412 0.52992 0.02551 0.0
C2499 C 0.03961 0.51686 0.02753 0.0
C2500 C 0.99415 0.46933 0.9796 0.0
C2501 C 0.00423 0.4999 0.00314 0.0
C2502 C 0.97651 0.46103 0.96735 0.0
C2503 C 0.95077 0.47366 0.96553 0.0
C2504 C 0.98595 0.49047 0.99005 0.0
C2505 C 0.94327 0.49463 0.97617 0.0
C2506 C -0.00364 0.52152 0.01334 0.0
C2507 C 0.04671 0.49533 0.01717 0.0
N2508 N 0.9608 0.50242 0.98799 0.0
N2509 N 0.02911 0.48751 0.0054 0.0
H2510 H 0.56646 0.48748 0.47443 0.0
H2511 H 0.42157 0.50915 0.51857 0.0
H2512 H 0.50959 0.5525 0.46256 0.0
H2513 H 0.47945 0.44543 0.53117 0.0
H2514 H 0.45328 0.52517 0.4978 0.0
H2515 H 0.53494 0.47181 0.49537 0.0
C2516 C 0.54737 0.49854 0.47637 0.0
C2517 C 0.54051 0.5213 0.46688 0.0
C2518 C 0.45906 0.50765 0.50507 0.0
C2519 C 0.50425 0.50343 0.49059 0.0
C2520 C 0.44092 0.49844 0.51683 0.0
C2521 C 0.44796 0.47588 0.52643 0.0
C2522 C 0.48443 0.49418 0.50294 0.0
C2523 C 0.47339 0.46294 0.52397 0.0
C2524 C 0.52933 0.48955 0.48824 0.0
C2525 C 0.51545 0.53477 0.46964 0.0
N2526 N 0.49074 0.47226 0.51244 0.0
N2527 N 0.49816 0.52561 0.48125 0.0
loop_
_geom_bond_atom_site_label_1
_geom_bond_atom_site_label_2
_geom_bond_distance
_geom_bond_site_symmetry_2
_ccdc_geom_bond_type
Co0 O3 1.970 . S
Co0 N17 1.989 . S
Co0 O25 1.967 . S
Co0 O32 1.920 . S
Co1 O4 1.966 . S
Co1 N10 2.022 . S
Co1 N18 1.993 . S
Co1 O26 1.941 . S
C2 O3 1.258 . S
C2 O4 1.263 . S
O3 Co0 1.970 . S
O3 C2 1.258 . S
O4 Co1 1.966 . S
O4 C2 1.263 . S
C5 O6 1.235 . S
C5 O32 1.289 . S
O6 C5 1.235 . S
C7 C9 1.400 . S
C7 N10 1.351 . S
C7 C12 1.501 . S
C8 C9 1.387 . S
C8 N11 1.341 . S
C9 C7 1.400 . S
C9 C8 1.387 . S
N10 Co1 2.022 . S
N10 C7 1.351 . S
N10 N11 1.365 . S
N11 C8 1.341 . S
N11 N10 1.365 . S
N11 H31 0.862 . S
C12 C7 1.501 . S
C12 H13 0.961 . S
C12 H14 0.961 . S
C12 H15 0.960 . S
H13 C12 0.961 . S
H14 C12 0.961 . S
H15 C12 0.960 . S
C16 N17 1.342 . S
C16 C20 1.401 . S
C16 C21 1.499 . S
N17 Co0 1.989 . S
N17 C16 1.342 . S
N17 N18 1.388 . S
N18 Co1 1.993 . S
N18 N17 1.388 . S
N18 C19 1.346 . S
C19 N18 1.346 . S
C19 C20 1.396 . S
C19 C29 1.510 . S
C20 C16 1.401 . S
C20 C19 1.396 . S
C21 C16 1.499 . S
C21 H22 0.959 . S
C21 H23 0.960 . S
C21 H24 0.961 . S
H22 C21 0.959 . S
H23 C21 0.960 . S
H24 C21 0.961 . S
O25 Co0 1.967 . S
O25 C33 1.258 . S
O26 Co1 1.941 . S
O26 C33 1.266 . S
H27 C29 0.959 . S
H28 C29 0.961 . S
C29 C19 1.510 . S
C29 H27 0.959 . S
C29 H28 0.961 . S
C29 H30 0.960 . S
H30 C29 0.960 . S
H31 N11 0.862 . S
O32 Co0 1.920 . S
O32 C5 1.289 . S
C33 O25 1.258 . S
C33 O26 1.266 . S
Co34 O37 1.970 . S
Co34 N51 1.989 . S
Co34 O59 1.967 . S
Co34 O66 1.920 . S
Co35 O38 1.966 . S
Co35 N44 2.022 . S
Co35 N52 1.993 . S
Co35 O60 1.941 . S
C36 O37 1.258 . S
C36 O38 1.263 . S
O37 Co34 1.970 . S
O37 C36 1.258 . S
O38 Co35 1.966 . S
O38 C36 1.263 . S
C39 O40 1.235 . S
C39 O66 1.289 . S
O40 C39 1.235 . S
C41 C43 1.400 . S
C41 N44 1.351 . S
C41 C46 1.501 . S
C42 C43 1.387 . S
C42 N45 1.341 . S
C43 C41 1.400 . S
C43 C42 1.387 . S
N44 Co35 2.022 . S
N44 C41 1.351 . S
N44 N45 1.365 . S
N45 C42 1.341 . S
N45 N44 1.365 . S
N45 H65 0.862 . S
C46 C41 1.501 . S
C46 H47 0.961 . S
C46 H48 0.961 . S
C46 H49 0.960 . S
H47 C46 0.961 . S
H48 C46 0.961 . S
H49 C46 0.960 . S
C50 N51 1.342 . S
C50 C54 1.401 . S
C50 C55 1.499 . S
N51 Co34 1.989 . S
N51 C50 1.342 . S
N51 N52 1.388 . S
N52 Co35 1.993 . S
N52 N51 1.388 . S
N52 C53 1.346 . S
C53 N52 1.346 . S
C53 C54 1.396 . S
C53 C63 1.510 . S
C54 C50 1.401 . S
C54 C53 1.396 . S
C55 C50 1.499 . S
C55 H56 0.959 . S
C55 H57 0.960 . S
C55 H58 0.961 1_565 S
H56 C55 0.959 . S
H57 C55 0.960 . S
H58 C55 0.961 1_545 S
O59 Co34 1.967 . S
O59 C67 1.258 . S
O60 Co35 1.941 . S
O60 C67 1.266 . S
H61 C63 0.959 . S
H62 C63 0.961 . S
C63 C53 1.510 . S
C63 H61 0.959 . S
C63 H62 0.961 . S
C63 H64 0.960 . S
H64 C63 0.960 . S
H65 N45 0.862 . S
O66 Co34 1.920 . S
O66 C39 1.289 . S
C67 O59 1.258 . S
C67 O60 1.266 . S
Co68 O71 1.970 . S
Co68 N85 1.989 . S
Co68 O93 1.967 . S
Co68 O100 1.920 . S
Co69 O72 1.966 . S
Co69 N78 2.022 . S
Co69 N86 1.993 . S
Co69 O94 1.941 . S
C70 O71 1.258 . S
C70 O72 1.263 . S
O71 Co68 1.970 . S
O71 C70 1.258 . S
O72 Co69 1.966 . S
O72 C70 1.263 . S
C73 O74 1.235 . S
C73 O100 1.289 . S
O74 C73 1.235 . S
C75 C77 1.400 . S
C75 N78 1.351 . S
C75 C80 1.501 . S
C76 C77 1.387 . S
C76 N79 1.341 . S
C77 C75 1.400 . S
C77 C76 1.387 . S
N78 Co69 2.022 . S
N78 C75 1.351 . S
N78 N79 1.365 . S
N79 C76 1.341 . S
N79 N78 1.365 . S
N79 H99 0.862 . S
C80 C75 1.501 . S
C80 H81 0.961 . S
C80 H82 0.961 . S
C80 H83 0.960 . S
H81 C80 0.961 . S
H82 C80 0.961 . S
H83 C80 0.960 . S
C84 N85 1.342 . S
C84 C88 1.401 . S
C84 C89 1.499 . S
N85 Co68 1.989 . S
N85 C84 1.342 . S
N85 N86 1.388 . S
N86 Co69 1.993 . S
N86 N85 1.388 . S
N86 C87 1.346 . S
C87 N86 1.346 . S
C87 C88 1.396 . S
C87 C97 1.510 . S
C88 C84 1.401 . S
C88 C87 1.396 . S
C89 C84 1.499 . S
C89 H90 0.959 . S
C89 H91 0.960 . S
C89 H92 0.961 . S
H90 C89 0.959 . S
H91 C89 0.960 . S
H92 C89 0.961 . S
O93 Co68 1.967 . S
O93 C101 1.258 . S
O94 Co69 1.941 . S
O94 C101 1.266 . S
H95 C97 0.959 . S
H96 C97 0.961 . S
C97 C87 1.510 . S
C97 H95 0.959 . S
C97 H96 0.961 . S
C97 H98 0.960 . S
H98 C97 0.960 . S
H99 N79 0.862 . S
O100 Co68 1.920 . S
O100 C73 1.289 . S
C101 O93 1.258 . S
C101 O94 1.266 . S
Co102 O105 1.970 . S
Co102 N119 1.989 . S
Co102 O127 1.967 . S
Co102 O134 1.920 . S
Co103 O106 1.966 . S
Co103 N112 2.022 . S
Co103 N120 1.993 . S
Co103 O128 1.941 . S
C104 O105 1.258 . S
C104 O106 1.263 . S
O105 Co102 1.970 . S
O105 C104 1.258 . S
O106 Co103 1.966 . S
O106 C104 1.263 . S
C107 O108 1.235 . S
C107 O134 1.289 . S
O108 C107 1.235 . S
C109 C111 1.400 . S
C109 N112 1.351 . S
C109 C114 1.501 . S
C110 C111 1.387 . S
C110 N113 1.341 . S
C111 C109 1.400 . S
C111 C110 1.387 . S
N112 Co103 2.022 . S
N112 C109 1.351 . S
N112 N113 1.365 . S
N113 C110 1.341 . S
N113 N112 1.365 . S
N113 H133 0.862 . S
C114 C109 1.501 . S
C114 H115 0.961 . S
C114 H116 0.961 . S
C114 H117 0.960 . S
H115 C114 0.961 . S
H116 C114 0.961 . S
H117 C114 0.960 . S
C118 N119 1.342 . S
C118 C122 1.401 . S
C118 C123 1.499 . S
N119 Co102 1.989 . S
N119 C118 1.342 . S
N119 N120 1.388 . S
N120 Co103 1.993 . S
N120 N119 1.388 . S
N120 C121 1.346 . S
C121 N120 1.346 . S
C121 C122 1.396 . S
C121 C131 1.510 . S
C122 C118 1.401 . S
C122 C121 1.396 . S
C123 C118 1.499 . S
C123 H124 0.959 . S
C123 H125 0.960 . S
C123 H126 0.961 1_545 S
H124 C123 0.959 . S
H125 C123 0.960 . S
H126 C123 0.961 1_565 S
O127 Co102 1.967 . S
O127 C135 1.258 . S
O128 Co103 1.941 . S
O128 C135 1.266 . S
H129 C131 0.959 . S
H130 C131 0.961 . S
C131 C121 1.510 . S
C131 H129 0.959 . S
C131 H130 0.961 . S
C131 H132 0.960 . S
H132 C131 0.960 . S
H133 N113 0.862 . S
O134 Co102 1.920 . S
O134 C107 1.289 . S
C135 O127 1.258 . S
C135 O128 1.266 . S
Co136 O139 1.970 . S
Co136 N153 1.989 . S
Co136 O161 1.967 . S
Co136 O168 1.920 . S
Co137 O140 1.966 . S
Co137 N146 2.022 . S
Co137 N154 1.993 . S
Co137 O162 1.941 . S
C138 O139 1.258 . S
C138 O140 1.263 . S
O139 Co136 1.970 . S
O139 C138 1.258 . S
O140 Co137 1.966 . S
O140 C138 1.263 . S
C141 O142 1.235 . S
C141 O168 1.289 . S
O142 C141 1.235 . S
C143 C145 1.400 . S
C143 N146 1.351 . S
C143 C148 1.501 . S
C144 C145 1.387 . S
C144 N147 1.341 . S
C145 C143 1.400 . S
C145 C144 1.387 . S
N146 Co137 2.022 . S
N146 C143 1.351 . S
N146 N147 1.365 . S
N147 C144 1.341 . S
N147 N146 1.365 . S
N147 H167 0.862 . S
C148 C143 1.501 . S
C148 H149 0.961 . S
C148 H150 0.961 . S
C148 H151 0.960 . S
H149 C148 0.961 . S
H150 C148 0.961 . S
H151 C148 0.960 . S
C152 N153 1.342 . S
C152 C156 1.401 . S
C152 C157 1.499 . S
N153 Co136 1.989 . S
N153 C152 1.342 . S
N153 N154 1.388 . S
N154 Co137 1.993 . S
N154 N153 1.388 . S
N154 C155 1.346 . S
C155 N154 1.346 . S
C155 C156 1.396 . S
C155 C165 1.510 . S
C156 C152 1.401 . S
C156 C155 1.396 . S
C157 C152 1.499 . S
C157 H158 0.959 . S
C157 H159 0.960 . S
C157 H160 0.961 . S
H158 C157 0.959 . S
H159 C157 0.960 . S
H160 C157 0.961 . S
O161 Co136 1.967 . S
O161 C169 1.258 . S
O162 Co137 1.941 . S
O162 C169 1.266 . S
H163 C165 0.959 . S
H164 C165 0.961 . S
C165 C155 1.510 . S
C165 H163 0.959 . S
C165 H164 0.961 . S
C165 H166 0.960 . S
H166 C165 0.960 . S
H167 N147 0.862 . S
O168 Co136 1.920 . S
O168 C141 1.289 . S
C169 O161 1.258 . S
C169 O162 1.266 . S
Co170 O173 1.970 . S
Co170 N187 1.989 . S
Co170 O195 1.967 . S
Co170 O202 1.920 . S
Co171 O174 1.966 . S
Co171 N180 2.022 . S
Co171 N188 1.993 . S
Co171 O196 1.941 . S
C172 O173 1.258 . S
C172 O174 1.263 . S
O173 Co170 1.970 . S
O173 C172 1.258 . S
O174 Co171 1.966 . S
O174 C172 1.263 . S
C175 O176 1.235 . S
C175 O202 1.289 . S
O176 C175 1.235 . S
C177 C179 1.400 . S
C177 N180 1.351 . S
C177 C182 1.501 . S
C178 C179 1.387 . S
C178 N181 1.341 . S
C179 C177 1.400 . S
C179 C178 1.387 . S
N180 Co171 2.022 . S
N180 C177 1.351 . S
N180 N181 1.365 . S
N181 C178 1.341 . S
N181 N180 1.365 . S
N181 H201 0.862 . S
C182 C177 1.501 . S
C182 H183 0.961 . S
C182 H184 0.961 . S
C182 H185 0.960 . S
H183 C182 0.961 . S
H184 C182 0.961 . S
H185 C182 0.960 . S
C186 N187 1.342 . S
C186 C190 1.401 . S
C186 C191 1.499 . S
N187 Co170 1.989 . S
N187 C186 1.342 . S
N187 N188 1.388 . S
N188 Co171 1.993 . S
N188 N187 1.388 . S
N188 C189 1.346 . S
C189 N188 1.346 . S
C189 C190 1.396 . S
C189 C199 1.510 . S
C190 C186 1.401 . S
C190 C189 1.396 . S
C191 C186 1.499 . S
C191 H192 0.959 . S
C191 H193 0.960 . S
C191 H194 0.961 1_565 S
H192 C191 0.959 . S
H193 C191 0.960 . S
H194 C191 0.961 1_545 S
O195 Co170 1.967 . S
O195 C203 1.258 . S
O196 Co171 1.941 . S
O196 C203 1.266 . S
H197 C199 0.959 . S
H198 C199 0.961 . S
C199 C189 1.510 . S
C199 H197 0.959 . S
C199 H198 0.961 . S
C199 H200 0.960 . S
H200 C199 0.960 . S
H201 N181 0.862 . S
O202 Co170 1.920 . S
O202 C175 1.289 . S
C203 O195 1.258 . S
C203 O196 1.266 . S
Co204 O207 1.970 . S
Co204 N221 1.989 . S
Co204 O229 1.967 . S
Co204 O236 1.920 . S
Co205 O208 1.966 . S
Co205 N214 2.022 . S
Co205 N222 1.993 . S
Co205 O230 1.941 . S
C206 O207 1.258 . S
C206 O208 1.263 . S
O207 Co204 1.970 . S
O207 C206 1.258 . S
O208 Co205 1.966 . S
O208 C206 1.263 . S
C209 O210 1.235 . S
C209 O236 1.289 . S
O210 C209 1.235 . S
C211 C213 1.400 . S
C211 N214 1.351 . S
C211 C216 1.501 . S
C212 C213 1.387 . S
C212 N215 1.341 . S
C213 C211 1.400 . S
C213 C212 1.387 . S
N214 Co205 2.022 . S
N214 C211 1.351 . S
N214 N215 1.365 . S
N215 C212 1.341 . S
N215 N214 1.365 . S
N215 H235 0.862 . S
C216 C211 1.501 . S
C216 H217 0.961 . S
C216 H218 0.961 . S
C216 H219 0.960 . S
H217 C216 0.961 . S
H218 C216 0.961 . S
H219 C216 0.960 . S
C220 N221 1.342 . S
C220 C224 1.401 . S
C220 C225 1.499 . S
N221 Co204 1.989 . S
N221 C220 1.342 . S
N221 N222 1.388 . S
N222 Co205 1.993 . S
N222 N221 1.388 . S
N222 C223 1.346 . S
C223 N222 1.346 . S
C223 C224 1.396 . S
C223 C233 1.510 . S
C224 C220 1.401 . S
C224 C223 1.396 . S
C225 C220 1.499 . S
C225 H226 0.959 . S
C225 H227 0.960 . S
C225 H228 0.961 . S
H226 C225 0.959 . S
H227 C225 0.960 . S
H228 C225 0.961 . S
O229 Co204 1.967 . S
O229 C237 1.258 . S
O230 Co205 1.941 . S
O230 C237 1.266 . S
H231 C233 0.959 . S
H232 C233 0.961 . S
C233 C223 1.510 . S
C233 H231 0.959 . S
C233 H232 0.961 . S
C233 H234 0.960 . S
H234 C233 0.960 . S
H235 N215 0.862 . S
O236 Co204 1.920 . S
O236 C209 1.289 . S
C237 O229 1.258 . S
C237 O230 1.266 . S
Co238 O241 1.970 . S
Co238 N255 1.989 . S
Co238 O263 1.967 . S
Co238 O270 1.920 . S
Co239 O242 1.966 . S
Co239 N248 2.022 . S
Co239 N256 1.993 . S
Co239 O264 1.941 . S
C240 O241 1.258 . S
C240 O242 1.263 . S
O241 Co238 1.970 . S
O241 C240 1.258 . S
O242 Co239 1.966 . S
O242 C240 1.263 . S
C243 O244 1.235 . S
C243 O270 1.289 . S
O244 C243 1.235 . S
C245 C247 1.400 . S
C245 N248 1.351 . S
C245 C250 1.501 . S
C246 C247 1.387 . S
C246 N249 1.341 . S
C247 C245 1.400 . S
C247 C246 1.387 . S
N248 Co239 2.022 . S
N248 C245 1.351 . S
N248 N249 1.365 . S
N249 C246 1.341 . S
N249 N248 1.365 . S
N249 H269 0.862 . S
C250 C245 1.501 . S
C250 H251 0.961 . S
C250 H252 0.961 . S
C250 H253 0.960 . S
H251 C250 0.961 . S
H252 C250 0.961 . S
H253 C250 0.960 . S
C254 N255 1.342 . S
C254 C258 1.401 . S
C254 C259 1.499 . S
N255 Co238 1.989 . S
N255 C254 1.342 . S
N255 N256 1.388 . S
N256 Co239 1.993 . S
N256 N255 1.388 . S
N256 C257 1.346 . S
C257 N256 1.346 . S
C257 C258 1.396 . S
C257 C267 1.510 . S
C258 C254 1.401 . S
C258 C257 1.396 . S
C259 C254 1.499 . S
C259 H260 0.959 . S
C259 H261 0.960 . S
C259 H262 0.961 1_545 S
H260 C259 0.959 . S
H261 C259 0.960 . S
H262 C259 0.961 1_565 S
O263 Co238 1.967 . S
O263 C271 1.258 . S
O264 Co239 1.941 . S
O264 C271 1.266 . S
H265 C267 0.959 . S
H266 C267 0.961 . S
C267 C257 1.510 . S
C267 H265 0.959 . S
C267 H266 0.961 . S
C267 H268 0.960 . S
H268 C267 0.960 . S
H269 N249 0.862 . S
O270 Co238 1.920 . S
O270 C243 1.289 . S
C271 O263 1.258 . S
C271 O264 1.266 . S
Co272 O275 1.970 . S
Co272 N289 1.989 . S
Co272 O297 1.967 . S
Co272 O304 1.920 . S
Co273 O276 1.966 . S
Co273 N282 2.022 . S
Co273 N290 1.993 . S
Co273 O298 1.941 . S
C274 O275 1.258 . S
C274 O276 1.263 . S
O275 Co272 1.970 . S
O275 C274 1.258 . S
O276 Co273 1.966 . S
O276 C274 1.263 . S
C277 O278 1.235 . S
C277 O304 1.289 . S
O278 C277 1.235 . S
C279 C281 1.400 . S
C279 N282 1.351 . S
C279 C284 1.501 . S
C280 C281 1.387 . S
C280 N283 1.341 . S
C281 C279 1.400 . S
C281 C280 1.387 . S
N282 Co273 2.022 . S
N282 C279 1.351 . S
N282 N283 1.365 . S
N283 C280 1.341 . S
N283 N282 1.365 . S
N283 H303 0.862 . S
C284 C279 1.501 . S
C284 H285 0.961 . S
C284 H286 0.961 . S
C284 H287 0.960 . S
H285 C284 0.961 . S
H286 C284 0.961 . S
H287 C284 0.960 . S
C288 N289 1.342 . S
C288 C292 1.401 . S
C288 C293 1.499 . S
N289 Co272 1.989 . S
N289 C288 1.342 . S
N289 N290 1.388 . S
N290 Co273 1.993 . S
N290 N289 1.388 . S
N290 C291 1.346 . S
C291 N290 1.346 . S
C291 C292 1.396 . S
C291 C301 1.510 . S
C292 C288 1.401 . S
C292 C291 1.396 . S
C293 C288 1.499 . S
C293 H294 0.959 . S
C293 H295 0.960 . S
C293 H296 0.961 . S
H294 C293 0.959 . S
H295 C293 0.960 . S
H296 C293 0.961 . S
O297 Co272 1.967 . S
O297 C305 1.258 . S
O298 Co273 1.941 . S
O298 C305 1.266 . S
H299 C301 0.959 . S
H300 C301 0.961 . S
C301 C291 1.510 . S
C301 H299 0.959 . S
C301 H300 0.961 . S
C301 H302 0.960 . S
H302 C301 0.960 . S
H303 N283 0.862 . S
O304 Co272 1.920 . S
O304 C277 1.289 . S
C305 O297 1.258 . S
C305 O298 1.266 . S
Co306 O309 1.970 . S
Co306 N323 1.989 . S
Co306 O331 1.967 . S
Co306 O338 1.920 . S
Co307 O310 1.966 . S
Co307 N316 2.022 . S
Co307 N324 1.993 . S
Co307 O332 1.941 . S
C308 O309 1.258 . S
C308 O310 1.263 . S
O309 Co306 1.970 . S
O309 C308 1.258 . S
O310 Co307 1.966 . S
O310 C308 1.263 . S
C311 O312 1.235 . S
C311 O338 1.289 . S
O312 C311 1.235 . S
C313 C315 1.400 . S
C313 N316 1.351 . S
C313 C318 1.501 . S
C314 C315 1.387 . S
C314 N317 1.341 . S
C315 C313 1.400 . S
C315 C314 1.387 . S
N316 Co307 2.022 . S
N316 C313 1.351 . S
N316 N317 1.365 . S
N317 C314 1.341 . S
N317 N316 1.365 . S
N317 H337 0.862 . S
C318 C313 1.501 . S
C318 H319 0.961 . S
C318 H320 0.961 . S
C318 H321 0.960 . S
H319 C318 0.961 . S
H320 C318 0.961 . S
H321 C318 0.960 . S
C322 N323 1.342 . S
C322 C326 1.401 . S
C322 C327 1.499 . S
N323 Co306 1.989 . S
N323 C322 1.342 . S
N323 N324 1.388 . S
N324 Co307 1.993 . S
N324 N323 1.388 . S
N324 C325 1.346 . S
C325 N324 1.346 . S
C325 C326 1.396 . S
C325 C335 1.510 . S
C326 C322 1.401 . S
C326 C325 1.396 . S
C327 C322 1.499 . S
C327 H328 0.959 . S
C327 H329 0.960 . S
C327 H330 0.961 1_545 S
H328 C327 0.959 . S
H329 C327 0.960 . S
H330 C327 0.961 1_565 S
O331 Co306 1.967 . S
O331 C339 1.258 . S
O332 Co307 1.941 . S
O332 C339 1.266 . S
H333 C335 0.959 . S
H334 C335 0.961 . S
C335 C325 1.510 . S
C335 H333 0.959 . S
C335 H334 0.961 . S
C335 H336 0.960 . S
H336 C335 0.960 . S
H337 N317 0.862 . S
O338 Co306 1.920 . S
O338 C311 1.289 . S
C339 O331 1.258 . S
C339 O332 1.266 . S
Co340 O343 1.970 . S
Co340 N357 1.989 . S
Co340 O365 1.967 . S
Co340 O372 1.920 . S
Co341 O344 1.966 . S
Co341 N350 2.022 . S
Co341 N358 1.993 . S
Co341 O366 1.941 . S
C342 O343 1.258 . S
C342 O344 1.263 . S
O343 Co340 1.970 . S
O343 C342 1.258 . S
O344 Co341 1.966 . S
O344 C342 1.263 . S
C345 O346 1.235 . S
C345 O372 1.289 . S
O346 C345 1.235 . S
C347 C349 1.400 . S
C347 N350 1.351 . S
C347 C352 1.501 . S
C348 C349 1.387 . S
C348 N351 1.341 . S
C349 C347 1.400 . S
C349 C348 1.387 . S
N350 Co341 2.022 . S
N350 C347 1.351 . S
N350 N351 1.365 . S
N351 C348 1.341 . S
N351 N350 1.365 . S
N351 H371 0.862 . S
C352 C347 1.501 . S
C352 H353 0.961 . S
C352 H354 0.961 . S
C352 H355 0.960 . S
H353 C352 0.961 . S
H354 C352 0.961 . S
H355 C352 0.960 . S
C356 N357 1.342 . S
C356 C360 1.401 . S
C356 C361 1.499 . S
N357 Co340 1.989 . S
N357 C356 1.342 . S
N357 N358 1.388 . S
N358 Co341 1.993 . S
N358 N357 1.388 . S
N358 C359 1.346 . S
C359 N358 1.346 . S
C359 C360 1.396 . S
C359 C369 1.510 . S
C360 C356 1.401 . S
C360 C359 1.396 . S
C361 C356 1.499 . S
C361 H362 0.959 . S
C361 H363 0.960 . S
C361 H364 0.961 . S
H362 C361 0.959 . S
H363 C361 0.960 . S
H364 C361 0.961 . S
O365 Co340 1.967 . S
O365 C373 1.258 . S
O366 Co341 1.941 . S
O366 C373 1.266 . S
H367 C369 0.959 . S
H368 C369 0.961 . S
C369 C359 1.510 . S
C369 H367 0.959 . S
C369 H368 0.961 . S
C369 H370 0.960 . S
H370 C369 0.960 . S
H371 N351 0.862 . S
O372 Co340 1.920 . S
O372 C345 1.289 . S
C373 O365 1.258 . S
C373 O366 1.266 . S
Co374 O377 1.970 . S
Co374 N391 1.989 . S
Co374 O399 1.967 . S
Co374 O406 1.920 . S
Co375 O378 1.966 . S
Co375 N384 2.022 . S
Co375 N392 1.993 . S
Co375 O400 1.941 . S
C376 O377 1.258 . S
C376 O378 1.263 . S
O377 Co374 1.970 . S
O377 C376 1.258 . S
O378 Co375 1.966 . S
O378 C376 1.263 . S
C379 O380 1.235 . S
C379 O406 1.289 . S
O380 C379 1.235 . S
C381 C383 1.400 . S
C381 N384 1.351 . S
C381 C386 1.501 . S
C382 C383 1.387 . S
C382 N385 1.341 . S
C383 C381 1.400 . S
C383 C382 1.387 . S
N384 Co375 2.022 . S
N384 C381 1.351 . S
N384 N385 1.365 . S
N385 C382 1.341 . S
N385 N384 1.365 . S
N385 H405 0.862 . S
C386 C381 1.501 . S
C386 H387 0.961 . S
C386 H388 0.961 . S
C386 H389 0.960 . S
H387 C386 0.961 . S
H388 C386 0.961 . S
H389 C386 0.960 . S
C390 N391 1.342 . S
C390 C394 1.401 . S
C390 C395 1.499 . S
N391 Co374 1.989 . S
N391 C390 1.342 . S
N391 N392 1.388 . S
N392 Co375 1.993 . S
N392 N391 1.388 . S
N392 C393 1.346 . S
C393 N392 1.346 . S
C393 C394 1.396 . S
C393 C403 1.510 . S
C394 C390 1.401 . S
C394 C393 1.396 . S
C395 C390 1.499 . S
C395 H396 0.959 . S
C395 H397 0.960 . S
C395 H398 0.961 1_565 S
H396 C395 0.959 . S
H397 C395 0.960 . S
H398 C395 0.961 1_545 S
O399 Co374 1.967 . S
O399 C407 1.258 . S
O400 Co375 1.941 . S
O400 C407 1.266 . S
H401 C403 0.959 . S
H402 C403 0.961 . S
C403 C393 1.510 . S
C403 H401 0.959 . S
C403 H402 0.961 . S
C403 H404 0.960 . S
H404 C403 0.960 . S
H405 N385 0.862 . S
O406 Co374 1.920 . S
O406 C379 1.289 . S
C407 O399 1.258 . S
C407 O400 1.266 . S
Co408 O411 1.970 . S
Co408 N425 1.989 . S
Co408 O433 1.967 . S
Co408 O440 1.920 . S
Co409 O412 1.966 . S
Co409 N418 2.022 . S
Co409 N426 1.993 . S
Co409 O434 1.941 . S
C410 O411 1.258 . S
C410 O412 1.263 . S
O411 Co408 1.970 . S
O411 C410 1.258 . S
O412 Co409 1.966 . S
O412 C410 1.263 . S
C413 O414 1.235 . S
C413 O440 1.289 . S
O414 C413 1.235 . S
C415 C417 1.400 . S
C415 N418 1.351 . S
C415 C420 1.501 . S
C416 C417 1.387 . S
C416 N419 1.341 . S
C417 C415 1.400 . S
C417 C416 1.387 . S
N418 Co409 2.022 . S
N418 C415 1.351 . S
N418 N419 1.365 . S
N419 C416 1.341 . S
N419 N418 1.365 . S
N419 H439 0.862 . S
C420 C415 1.501 . S
C420 H421 0.961 . S
C420 H422 0.961 . S
C420 H423 0.960 . S
H421 C420 0.961 . S
H422 C420 0.961 . S
H423 C420 0.960 . S
C424 N425 1.342 . S
C424 C428 1.401 . S
C424 C429 1.499 . S
N425 Co408 1.989 . S
N425 C424 1.342 . S
N425 N426 1.388 . S
N426 Co409 1.993 . S
N426 N425 1.388 . S
N426 C427 1.346 . S
C427 N426 1.346 . S
C427 C428 1.396 . S
C427 C437 1.510 . S
C428 C424 1.401 . S
C428 C427 1.396 . S
C429 C424 1.499 . S
C429 H430 0.959 . S
C429 H431 0.960 . S
C429 H432 0.961 . S
H430 C429 0.959 . S
H431 C429 0.960 . S
H432 C429 0.961 . S
O433 Co408 1.967 . S
O433 C441 1.258 . S
O434 Co409 1.941 . S
O434 C441 1.266 . S
H435 C437 0.959 . S
H436 C437 0.961 . S
C437 C427 1.510 . S
C437 H435 0.959 . S
C437 H436 0.961 . S
C437 H438 0.960 . S
H438 C437 0.960 . S
H439 N419 0.862 . S
O440 Co408 1.920 . S
O440 C413 1.289 . S
C441 O433 1.258 . S
C441 O434 1.266 . S
Co442 O445 1.970 . S
Co442 N459 1.989 . S
Co442 O467 1.967 . S
Co442 O474 1.920 . S
Co443 O446 1.966 . S
Co443 N452 2.022 . S
Co443 N460 1.993 . S
Co443 O468 1.941 . S
C444 O445 1.258 . S
C444 O446 1.263 . S
O445 Co442 1.970 . S
O445 C444 1.258 . S
O446 Co443 1.966 . S
O446 C444 1.263 . S
C447 O448 1.235 . S
C447 O474 1.289 . S
O448 C447 1.235 . S
C449 C451 1.400 . S
C449 N452 1.351 . S
C449 C454 1.501 . S
C450 C451 1.387 . S
C450 N453 1.341 . S
C451 C449 1.400 . S
C451 C450 1.387 . S
N452 Co443 2.022 . S
N452 C449 1.351 . S
N452 N453 1.365 . S
N453 C450 1.341 . S
N453 N452 1.365 . S
N453 H473 0.862 . S
C454 C449 1.501 . S
C454 H455 0.961 . S
C454 H456 0.961 . S
C454 H457 0.960 . S
H455 C454 0.961 . S
H456 C454 0.961 . S
H457 C454 0.960 . S
C458 N459 1.342 . S
C458 C462 1.401 . S
C458 C463 1.499 . S
N459 Co442 1.989 . S
N459 C458 1.342 . S
N459 N460 1.388 . S
N460 Co443 1.993 . S
N460 N459 1.388 . S
N460 C461 1.346 . S
C461 N460 1.346 . S
C461 C462 1.396 . S
C461 C471 1.510 . S
C462 C458 1.401 . S
C462 C461 1.396 . S
C463 C458 1.499 . S
C463 H464 0.959 . S
C463 H465 0.960 . S
C463 H466 0.961 1_545 S
H464 C463 0.959 . S
H465 C463 0.960 . S
H466 C463 0.961 1_565 S
O467 Co442 1.967 . S
O467 C475 1.258 . S
O468 Co443 1.941 . S
O468 C475 1.266 . S
H469 C471 0.959 . S
H470 C471 0.961 . S
C471 C461 1.510 . S
C471 H469 0.959 . S
C471 H470 0.961 . S
C471 H472 0.960 . S
H472 C471 0.960 . S
H473 N453 0.862 . S
O474 Co442 1.920 . S
O474 C447 1.289 . S
C475 O467 1.258 . S
C475 O468 1.266 . S
Co476 O479 1.970 . S
Co476 N493 1.989 . S
Co476 O501 1.967 . S
Co476 O508 1.920 . S
Co477 O480 1.966 . S
Co477 N486 2.022 . S
Co477 N494 1.993 . S
Co477 O502 1.941 . S
C478 O479 1.258 . S
C478 O480 1.263 . S
O479 Co476 1.970 . S
O479 C478 1.258 . S
O480 Co477 1.966 . S
O480 C478 1.263 . S
C481 O482 1.235 . S
C481 O508 1.289 . S
O482 C481 1.235 . S
C483 C485 1.400 . S
C483 N486 1.351 . S
C483 C488 1.501 . S
C484 C485 1.387 . S
C484 N487 1.341 . S
C485 C483 1.400 . S
C485 C484 1.387 . S
N486 Co477 2.022 . S
N486 C483 1.351 . S
N486 N487 1.365 . S
N487 C484 1.341 . S
N487 N486 1.365 . S
N487 H507 0.862 . S
C488 C483 1.501 . S
C488 H489 0.961 . S
C488 H490 0.961 . S
C488 H491 0.960 . S
H489 C488 0.961 . S
H490 C488 0.961 . S
H491 C488 0.960 . S
C492 N493 1.342 . S
C492 C496 1.401 . S
C492 C497 1.499 . S
N493 Co476 1.989 . S
N493 C492 1.342 . S
N493 N494 1.388 . S
N494 Co477 1.993 . S
N494 N493 1.388 . S
N494 C495 1.346 . S
C495 N494 1.346 . S
C495 C496 1.396 . S
C495 C505 1.510 . S
C496 C492 1.401 . S
C496 C495 1.396 . S
C497 C492 1.499 . S
C497 H498 0.959 . S
C497 H499 0.960 . S
C497 H500 0.961 . S
H498 C497 0.959 . S
H499 C497 0.960 . S
H500 C497 0.961 . S
O501 Co476 1.967 . S
O501 C509 1.258 . S
O502 Co477 1.941 . S
O502 C509 1.266 . S
H503 C505 0.959 . S
H504 C505 0.961 . S
C505 C495 1.510 . S
C505 H503 0.959 . S
C505 H504 0.961 . S
C505 H506 0.960 . S
H506 C505 0.960 . S
H507 N487 0.862 . S
O508 Co476 1.920 . S
O508 C481 1.289 . S
C509 O501 1.258 . S
C509 O502 1.266 . S
Co510 O513 1.970 . S
Co510 N527 1.989 . S
Co510 O535 1.967 . S
Co510 O542 1.920 . S
Co511 O514 1.966 . S
Co511 N520 2.022 . S
Co511 N528 1.993 . S
Co511 O536 1.941 . S
C512 O513 1.258 . S
C512 O514 1.263 . S
O513 Co510 1.970 . S
O513 C512 1.258 . S
O514 Co511 1.966 . S
O514 C512 1.263 . S
C515 O516 1.235 . S
C515 O542 1.289 . S
O516 C515 1.235 . S
C517 C519 1.400 . S
C517 N520 1.351 . S
C517 C522 1.501 . S
C518 C519 1.387 . S
C518 N521 1.341 . S
C519 C517 1.400 . S
C519 C518 1.387 . S
N520 Co511 2.022 . S
N520 C517 1.351 . S
N520 N521 1.365 . S
N521 C518 1.341 . S
N521 N520 1.365 . S
N521 H541 0.862 . S
C522 C517 1.501 . S
C522 H523 0.961 . S
C522 H524 0.961 . S
C522 H525 0.960 . S
H523 C522 0.961 . S
H524 C522 0.961 . S
H525 C522 0.960 . S
C526 N527 1.342 . S
C526 C530 1.401 . S
C526 C531 1.499 . S
N527 Co510 1.989 . S
N527 C526 1.342 . S
N527 N528 1.388 . S
N528 Co511 1.993 . S
N528 N527 1.388 . S
N528 C529 1.346 . S
C529 N528 1.346 . S
C529 C530 1.396 . S
C529 C539 1.510 . S
C530 C526 1.401 . S
C530 C529 1.396 . S
C531 C526 1.499 . S
C531 H532 0.959 . S
C531 H533 0.960 . S
C531 H534 0.961 1_565 S
H532 C531 0.959 . S
H533 C531 0.960 . S
H534 C531 0.961 1_545 S
O535 Co510 1.967 . S
O535 C543 1.258 . S
O536 Co511 1.941 . S
O536 C543 1.266 . S
H537 C539 0.959 . S
H538 C539 0.961 . S
C539 C529 1.510 . S
C539 H537 0.959 . S
C539 H538 0.961 . S
C539 H540 0.960 . S
H540 C539 0.960 . S
H541 N521 0.862 . S
O542 Co510 1.920 . S
O542 C515 1.289 . S
C543 O535 1.258 . S
C543 O536 1.266 . S
Co544 O547 1.970 . S
Co544 N561 1.989 . S
Co544 O569 1.967 . S
Co544 O576 1.920 . S
Co545 O548 1.966 . S
Co545 N554 2.022 . S
Co545 N562 1.993 . S
Co545 O570 1.941 . S
C546 O547 1.258 . S
C546 O548 1.263 . S
O547 Co544 1.970 . S
O547 C546 1.258 . S
O548 Co545 1.966 . S
O548 C546 1.263 . S
C549 O550 1.235 . S
C549 O576 1.289 . S
O550 C549 1.235 . S
C551 C553 1.400 . S
C551 N554 1.351 . S
C551 C556 1.501 . S
C552 C553 1.387 . S
C552 N555 1.341 . S
C553 C551 1.400 . S
C553 C552 1.387 . S
N554 Co545 2.022 . S
N554 C551 1.351 . S
N554 N555 1.365 . S
N555 C552 1.341 . S
N555 N554 1.365 . S
N555 H575 0.862 . S
C556 C551 1.501 . S
C556 H557 0.961 . S
C556 H558 0.961 . S
C556 H559 0.960 . S
H557 C556 0.961 . S
H558 C556 0.961 . S
H559 C556 0.960 . S
C560 N561 1.342 . S
C560 C564 1.401 . S
C560 C565 1.499 . S
N561 Co544 1.989 . S
N561 C560 1.342 . S
N561 N562 1.388 . S
N562 Co545 1.993 . S
N562 N561 1.388 . S
N562 C563 1.346 . S
C563 N562 1.346 . S
C563 C564 1.396 . S
C563 C573 1.510 . S
C564 C560 1.401 . S
C564 C563 1.396 . S
C565 C560 1.499 . S
C565 H566 0.959 . S
C565 H567 0.960 . S
C565 H568 0.961 . S
H566 C565 0.959 . S
H567 C565 0.960 . S
H568 C565 0.961 . S
O569 Co544 1.967 . S
O569 C577 1.258 . S
O570 Co545 1.941 . S
O570 C577 1.266 . S
H571 C573 0.959 . S
H572 C573 0.961 . S
C573 C563 1.510 . S
C573 H571 0.959 . S
C573 H572 0.961 . S
C573 H574 0.960 . S
H574 C573 0.960 . S
H575 N555 0.862 . S
O576 Co544 1.920 . S
O576 C549 1.289 . S
C577 O569 1.258 . S
C577 O570 1.266 . S
Co578 O581 1.970 . S
Co578 N595 1.989 . S
Co578 O603 1.967 . S
Co578 O610 1.920 . S
Co579 O582 1.966 . S
Co579 N588 2.022 . S
Co579 N596 1.993 . S
Co579 O604 1.941 . S
C580 O581 1.258 . S
C580 O582 1.263 . S
O581 Co578 1.970 . S
O581 C580 1.258 . S
O582 Co579 1.966 . S
O582 C580 1.263 . S
C583 O584 1.235 . S
C583 O610 1.289 . S
O584 C583 1.235 . S
C585 C587 1.400 . S
C585 N588 1.351 . S
C585 C590 1.501 . S
C586 C587 1.387 . S
C586 N589 1.341 . S
C587 C585 1.400 . S
C587 C586 1.387 . S
N588 Co579 2.022 . S
N588 C585 1.351 . S
N588 N589 1.365 . S
N589 C586 1.341 . S
N589 N588 1.365 . S
N589 H609 0.862 . S
C590 C585 1.501 . S
C590 H591 0.961 . S
C590 H592 0.961 . S
C590 H593 0.960 . S
H591 C590 0.961 . S
H592 C590 0.961 . S
H593 C590 0.960 . S
C594 N595 1.342 . S
C594 C598 1.401 . S
C594 C599 1.499 . S
N595 Co578 1.989 . S
N595 C594 1.342 . S
N595 N596 1.388 . S
N596 Co579 1.993 . S
N596 N595 1.388 . S
N596 C597 1.346 . S
C597 N596 1.346 . S
C597 C598 1.396 . S
C597 C607 1.510 . S
C598 C594 1.401 . S
C598 C597 1.396 . S
C599 C594 1.499 . S
C599 H600 0.959 . S
C599 H601 0.960 . S
C599 H602 0.961 . S
H600 C599 0.959 . S
H601 C599 0.960 . S
H602 C599 0.961 . S
O603 Co578 1.967 . S
O603 C611 1.258 . S
O604 Co579 1.941 . S
O604 C611 1.266 . S
H605 C607 0.959 . S
H606 C607 0.961 . S
C607 C597 1.510 . S
C607 H605 0.959 . S
C607 H606 0.961 . S
C607 H608 0.960 . S
H608 C607 0.960 . S
H609 N589 0.862 . S
O610 Co578 1.920 . S
O610 C583 1.289 . S
C611 O603 1.258 . S
C611 O604 1.266 . S
Co612 O615 1.970 . S
Co612 N629 1.989 . S
Co612 O637 1.967 . S
Co612 O644 1.920 . S
Co613 O616 1.966 . S
Co613 N622 2.022 . S
Co613 N630 1.993 . S
Co613 O638 1.941 . S
C614 O615 1.258 . S
C614 O616 1.263 . S
O615 Co612 1.970 . S
O615 C614 1.258 . S
O616 Co613 1.966 . S
O616 C614 1.263 . S
C617 O618 1.235 . S
C617 O644 1.289 . S
O618 C617 1.235 . S
C619 C621 1.400 . S
C619 N622 1.351 . S
C619 C624 1.501 . S
C620 C621 1.387 . S
C620 N623 1.341 . S
C621 C619 1.400 . S
C621 C620 1.387 . S
N622 Co613 2.022 . S
N622 C619 1.351 . S
N622 N623 1.365 . S
N623 C620 1.341 . S
N623 N622 1.365 . S
N623 H643 0.862 . S
C624 C619 1.501 . S
C624 H625 0.961 . S
C624 H626 0.961 . S
C624 H627 0.960 . S
H625 C624 0.961 . S
H626 C624 0.961 . S
H627 C624 0.960 . S
C628 N629 1.342 . S
C628 C632 1.401 . S
C628 C633 1.499 . S
N629 Co612 1.989 . S
N629 C628 1.342 . S
N629 N630 1.388 . S
N630 Co613 1.993 . S
N630 N629 1.388 . S
N630 C631 1.346 . S
C631 N630 1.346 . S
C631 C632 1.396 . S
C631 C641 1.510 . S
C632 C628 1.401 . S
C632 C631 1.396 . S
C633 C628 1.499 . S
C633 H634 0.959 . S
C633 H635 0.960 . S
C633 H636 0.961 . S
H634 C633 0.959 . S
H635 C633 0.960 . S
H636 C633 0.961 . S
O637 Co612 1.967 . S
O637 C645 1.258 . S
O638 Co613 1.941 . S
O638 C645 1.266 . S
H639 C641 0.959 . S
H640 C641 0.961 . S
C641 C631 1.510 . S
C641 H639 0.959 . S
C641 H640 0.961 . S
C641 H642 0.960 . S
H642 C641 0.960 . S
H643 N623 0.862 . S
O644 Co612 1.920 . S
O644 C617 1.289 . S
C645 O637 1.258 . S
C645 O638 1.266 . S
Co646 O649 1.970 . S
Co646 N663 1.989 . S
Co646 O671 1.967 . S
Co646 O678 1.920 . S
Co647 O650 1.966 . S
Co647 N656 2.022 . S
Co647 N664 1.993 . S
Co647 O672 1.941 . S
C648 O649 1.258 . S
C648 O650 1.263 . S
O649 Co646 1.970 . S
O649 C648 1.258 . S
O650 Co647 1.966 . S
O650 C648 1.263 . S
C651 O652 1.235 . S
C651 O678 1.289 . S
O652 C651 1.235 . S
C653 C655 1.400 . S
C653 N656 1.351 . S
C653 C658 1.501 . S
C654 C655 1.387 . S
C654 N657 1.341 . S
C655 C653 1.400 . S
C655 C654 1.387 . S
N656 Co647 2.022 . S
N656 C653 1.351 . S
N656 N657 1.365 . S
N657 C654 1.341 . S
N657 N656 1.365 . S
N657 H677 0.862 . S
C658 C653 1.501 . S
C658 H659 0.961 . S
C658 H660 0.961 . S
C658 H661 0.960 . S
H659 C658 0.961 . S
H660 C658 0.961 . S
H661 C658 0.960 . S
C662 N663 1.342 . S
C662 C666 1.401 . S
C662 C667 1.499 . S
N663 Co646 1.989 . S
N663 C662 1.342 . S
N663 N664 1.388 . S
N664 Co647 1.993 . S
N664 N663 1.388 . S
N664 C665 1.346 . S
C665 N664 1.346 . S
C665 C666 1.396 . S
C665 C675 1.510 . S
C666 C662 1.401 . S
C666 C665 1.396 . S
C667 C662 1.499 . S
C667 H668 0.959 . S
C667 H669 0.960 . S
C667 H670 0.961 . S
H668 C667 0.959 . S
H669 C667 0.960 . S
H670 C667 0.961 . S
O671 Co646 1.967 . S
O671 C679 1.258 . S
O672 Co647 1.941 . S
O672 C679 1.266 . S
H673 C675 0.959 . S
H674 C675 0.961 . S
C675 C665 1.510 . S
C675 H673 0.959 . S
C675 H674 0.961 . S
C675 H676 0.960 . S
H676 C675 0.960 . S
H677 N657 0.862 . S
O678 Co646 1.920 . S
O678 C651 1.289 . S
C679 O671 1.258 . S
C679 O672 1.266 . S
Co680 O683 1.970 . S
Co680 N697 1.989 . S
Co680 O705 1.967 . S
Co680 O712 1.920 . S
Co681 O684 1.966 . S
Co681 N690 2.022 . S
Co681 N698 1.993 . S
Co681 O706 1.941 . S
C682 O683 1.258 . S
C682 O684 1.263 . S
O683 Co680 1.970 . S
O683 C682 1.258 . S
O684 Co681 1.966 . S
O684 C682 1.263 . S
C685 O686 1.235 . S
C685 O712 1.289 . S
O686 C685 1.235 . S
C687 C689 1.400 . S
C687 N690 1.351 . S
C687 C692 1.501 . S
C688 C689 1.387 . S
C688 N691 1.341 . S
C689 C687 1.400 . S
C689 C688 1.387 . S
N690 Co681 2.022 . S
N690 C687 1.351 . S
N690 N691 1.365 . S
N691 C688 1.341 . S
N691 N690 1.365 . S
N691 H711 0.862 . S
C692 C687 1.501 . S
C692 H693 0.961 . S
C692 H694 0.961 . S
C692 H695 0.960 . S
H693 C692 0.961 . S
H694 C692 0.961 . S
H695 C692 0.960 . S
C696 N697 1.342 . S
C696 C700 1.401 . S
C696 C701 1.499 . S
N697 Co680 1.989 . S
N697 C696 1.342 . S
N697 N698 1.388 . S
N698 Co681 1.993 . S
N698 N697 1.388 . S
N698 C699 1.346 . S
C699 N698 1.346 . S
C699 C700 1.396 . S
C699 C709 1.510 . S
C700 C696 1.401 . S
C700 C699 1.396 . S
C701 C696 1.499 . S
C701 H702 0.959 . S
C701 H703 0.960 . S
C701 H704 0.961 . S
H702 C701 0.959 . S
H703 C701 0.960 . S
H704 C701 0.961 . S
O705 Co680 1.967 . S
O705 C713 1.258 . S
O706 Co681 1.941 . S
O706 C713 1.266 . S
H707 C709 0.959 . S
H708 C709 0.961 . S
C709 C699 1.510 . S
C709 H707 0.959 . S
C709 H708 0.961 . S
C709 H710 0.960 . S
H710 C709 0.960 . S
H711 N691 0.862 . S
O712 Co680 1.920 . S
O712 C685 1.289 . S
C713 O705 1.258 . S
C713 O706 1.266 . S
Co714 O717 1.970 . S
Co714 N731 1.989 . S
Co714 O739 1.967 . S
Co714 O746 1.920 . S
Co715 O718 1.966 . S
Co715 N724 2.022 . S
Co715 N732 1.993 . S
Co715 O740 1.941 . S
C716 O717 1.258 . S
C716 O718 1.263 . S
O717 Co714 1.970 . S
O717 C716 1.258 . S
O718 Co715 1.966 . S
O718 C716 1.263 . S
C719 O720 1.235 . S
C719 O746 1.289 . S
O720 C719 1.235 . S
C721 C723 1.400 . S
C721 N724 1.351 . S
C721 C726 1.501 . S
C722 C723 1.387 . S
C722 N725 1.341 . S
C723 C721 1.400 . S
C723 C722 1.387 . S
N724 Co715 2.022 . S
N724 C721 1.351 . S
N724 N725 1.365 . S
N725 C722 1.341 . S
N725 N724 1.365 . S
N725 H745 0.862 . S
C726 C721 1.501 . S
C726 H727 0.961 . S
C726 H728 0.961 . S
C726 H729 0.960 . S
H727 C726 0.961 . S
H728 C726 0.961 . S
H729 C726 0.960 . S
C730 N731 1.342 . S
C730 C734 1.401 . S
C730 C735 1.499 . S
N731 Co714 1.989 . S
N731 C730 1.342 . S
N731 N732 1.388 . S
N732 Co715 1.993 . S
N732 N731 1.388 . S
N732 C733 1.346 . S
C733 N732 1.346 . S
C733 C734 1.396 . S
C733 C743 1.510 . S
C734 C730 1.401 . S
C734 C733 1.396 . S
C735 C730 1.499 . S
C735 H736 0.959 . S
C735 H737 0.960 . S
C735 H738 0.961 . S
H736 C735 0.959 . S
H737 C735 0.960 . S
H738 C735 0.961 . S
O739 Co714 1.967 . S
O739 C747 1.258 . S
O740 Co715 1.941 . S
O740 C747 1.266 . S
H741 C743 0.959 . S
H742 C743 0.961 . S
C743 C733 1.510 . S
C743 H741 0.959 . S
C743 H742 0.961 . S
C743 H744 0.960 . S
H744 C743 0.960 . S
H745 N725 0.862 . S
O746 Co714 1.920 . S
O746 C719 1.289 . S
C747 O739 1.258 . S
C747 O740 1.266 . S
Co748 O751 1.970 . S
Co748 N765 1.989 . S
Co748 O773 1.967 . S
Co748 O780 1.920 . S
Co749 O752 1.966 . S
Co749 N758 2.022 . S
Co749 N766 1.993 . S
Co749 O774 1.941 . S
C750 O751 1.258 . S
C750 O752 1.263 . S
O751 Co748 1.970 . S
O751 C750 1.258 . S
O752 Co749 1.966 . S
O752 C750 1.263 . S
C753 O754 1.235 . S
C753 O780 1.289 . S
O754 C753 1.235 . S
C755 C757 1.400 . S
C755 N758 1.351 . S
C755 C760 1.501 . S
C756 C757 1.387 . S
C756 N759 1.341 . S
C757 C755 1.400 . S
C757 C756 1.387 . S
N758 Co749 2.022 . S
N758 C755 1.351 . S
N758 N759 1.365 . S
N759 C756 1.341 . S
N759 N758 1.365 . S
N759 H779 0.862 . S
C760 C755 1.501 . S
C760 H761 0.961 . S
C760 H762 0.961 . S
C760 H763 0.960 . S
H761 C760 0.961 . S
H762 C760 0.961 . S
H763 C760 0.960 . S
C764 N765 1.342 . S
C764 C768 1.401 . S
C764 C769 1.499 . S
N765 Co748 1.989 . S
N765 C764 1.342 . S
N765 N766 1.388 . S
N766 Co749 1.993 . S
N766 N765 1.388 . S
N766 C767 1.346 . S
C767 N766 1.346 . S
C767 C768 1.396 . S
C767 C777 1.510 . S
C768 C764 1.401 . S
C768 C767 1.396 . S
C769 C764 1.499 . S
C769 H770 0.959 . S
C769 H771 0.960 . S
C769 H772 0.961 . S
H770 C769 0.959 . S
H771 C769 0.960 . S
H772 C769 0.961 . S
O773 Co748 1.967 . S
O773 C781 1.258 . S
O774 Co749 1.941 . S
O774 C781 1.266 . S
H775 C777 0.959 . S
H776 C777 0.961 . S
C777 C767 1.510 . S
C777 H775 0.959 . S
C777 H776 0.961 . S
C777 H778 0.960 . S
H778 C777 0.960 . S
H779 N759 0.862 . S
O780 Co748 1.920 . S
O780 C753 1.289 . S
C781 O773 1.258 . S
C781 O774 1.266 . S
Co782 O785 1.970 . S
Co782 N799 1.989 . S
Co782 O807 1.967 . S
Co782 O814 1.920 . S
Co783 O786 1.966 . S
Co783 N792 2.022 . S
Co783 N800 1.993 . S
Co783 O808 1.941 . S
C784 O785 1.258 . S
C784 O786 1.263 . S
O785 Co782 1.970 . S
O785 C784 1.258 . S
O786 Co783 1.966 . S
O786 C784 1.263 . S
C787 O788 1.235 . S
C787 O814 1.289 . S
O788 C787 1.235 . S
C789 C791 1.400 . S
C789 N792 1.351 . S
C789 C794 1.501 . S
C790 C791 1.387 . S
C790 N793 1.341 . S
C791 C789 1.400 . S
C791 C790 1.387 . S
N792 Co783 2.022 . S
N792 C789 1.351 . S
N792 N793 1.365 . S
N793 C790 1.341 . S
N793 N792 1.365 . S
N793 H813 0.862 . S
C794 C789 1.501 . S
C794 H795 0.961 . S
C794 H796 0.961 . S
C794 H797 0.960 . S
H795 C794 0.961 . S
H796 C794 0.961 . S
H797 C794 0.960 . S
C798 N799 1.342 . S
C798 C802 1.401 . S
C798 C803 1.499 . S
N799 Co782 1.989 . S
N799 C798 1.342 . S
N799 N800 1.388 . S
N800 Co783 1.993 . S
N800 N799 1.388 . S
N800 C801 1.346 . S
C801 N800 1.346 . S
C801 C802 1.396 . S
C801 C811 1.510 . S
C802 C798 1.401 . S
C802 C801 1.396 . S
C803 C798 1.499 . S
C803 H804 0.959 . S
C803 H805 0.960 . S
C803 H806 0.961 . S
H804 C803 0.959 . S
H805 C803 0.960 . S
H806 C803 0.961 . S
O807 Co782 1.967 . S
O807 C815 1.258 . S
O808 Co783 1.941 . S
O808 C815 1.266 . S
H809 C811 0.959 . S
H810 C811 0.961 . S
C811 C801 1.510 . S
C811 H809 0.959 . S
C811 H810 0.961 . S
C811 H812 0.960 . S
H812 C811 0.960 . S
H813 N793 0.862 . S
O814 Co782 1.920 . S
O814 C787 1.289 . S
C815 O807 1.258 . S
C815 O808 1.266 . S
Co816 O819 1.970 . S
Co816 N833 1.989 . S
Co816 O841 1.967 . S
Co816 O848 1.920 . S
Co817 O820 1.966 . S
Co817 N826 2.022 . S
Co817 N834 1.993 . S
Co817 O842 1.941 . S
C818 O819 1.258 . S
C818 O820 1.263 . S
O819 Co816 1.970 . S
O819 C818 1.258 . S
O820 Co817 1.966 . S
O820 C818 1.263 . S
C821 O822 1.235 . S
C821 O848 1.289 . S
O822 C821 1.235 . S
C823 C825 1.400 . S
C823 N826 1.351 . S
C823 C828 1.501 . S
C824 C825 1.387 . S
C824 N827 1.341 . S
C825 C823 1.400 . S
C825 C824 1.387 . S
N826 Co817 2.022 . S
N826 C823 1.351 . S
N826 N827 1.365 . S
N827 C824 1.341 . S
N827 N826 1.365 . S
N827 H847 0.862 . S
C828 C823 1.501 . S
C828 H829 0.961 . S
C828 H830 0.961 . S
C828 H831 0.960 . S
H829 C828 0.961 . S
H830 C828 0.961 . S
H831 C828 0.960 . S
C832 N833 1.342 . S
C832 C836 1.401 . S
C832 C837 1.499 . S
N833 Co816 1.989 . S
N833 C832 1.342 . S
N833 N834 1.388 . S
N834 Co817 1.993 . S
N834 N833 1.388 . S
N834 C835 1.346 . S
C835 N834 1.346 . S
C835 C836 1.396 . S
C835 C845 1.510 . S
C836 C832 1.401 . S
C836 C835 1.396 . S
C837 C832 1.499 . S
C837 H838 0.959 . S
C837 H839 0.960 . S
C837 H840 0.961 . S
H838 C837 0.959 . S
H839 C837 0.960 . S
H840 C837 0.961 . S
O841 Co816 1.967 . S
O841 C849 1.258 . S
O842 Co817 1.941 . S
O842 C849 1.266 . S
H843 C845 0.959 . S
H844 C845 0.961 . S
C845 C835 1.510 . S
C845 H843 0.959 . S
C845 H844 0.961 . S
C845 H846 0.960 . S
H846 C845 0.960 . S
H847 N827 0.862 . S
O848 Co816 1.920 . S
O848 C821 1.289 . S
C849 O841 1.258 . S
C849 O842 1.266 . S
Co850 O853 1.970 . S
Co850 N867 1.989 . S
Co850 O875 1.967 . S
Co850 O882 1.920 . S
Co851 O854 1.966 . S
Co851 N860 2.022 . S
Co851 N868 1.993 . S
Co851 O876 1.941 . S
C852 O853 1.258 . S
C852 O854 1.263 . S
O853 Co850 1.970 . S
O853 C852 1.258 . S
O854 Co851 1.966 . S
O854 C852 1.263 . S
C855 O856 1.235 . S
C855 O882 1.289 . S
O856 C855 1.235 . S
C857 C859 1.400 . S
C857 N860 1.351 . S
C857 C862 1.501 . S
C858 C859 1.387 . S
C858 N861 1.341 . S
C859 C857 1.400 . S
C859 C858 1.387 . S
N860 Co851 2.022 . S
N860 C857 1.351 . S
N860 N861 1.365 . S
N861 C858 1.341 . S
N861 N860 1.365 . S
N861 H881 0.862 . S
C862 C857 1.501 . S
C862 H863 0.961 . S
C862 H864 0.961 . S
C862 H865 0.960 . S
H863 C862 0.961 . S
H864 C862 0.961 . S
H865 C862 0.960 . S
C866 N867 1.342 . S
C866 C870 1.401 . S
C866 C871 1.499 . S
N867 Co850 1.989 . S
N867 C866 1.342 . S
N867 N868 1.388 . S
N868 Co851 1.993 . S
N868 N867 1.388 . S
N868 C869 1.346 . S
C869 N868 1.346 . S
C869 C870 1.396 . S
C869 C879 1.510 . S
C870 C866 1.401 . S
C870 C869 1.396 . S
C871 C866 1.499 . S
C871 H872 0.959 . S
C871 H873 0.960 . S
C871 H874 0.961 . S
H872 C871 0.959 . S
H873 C871 0.960 . S
H874 C871 0.961 . S
O875 Co850 1.967 . S
O875 C883 1.258 . S
O876 Co851 1.941 . S
O876 C883 1.266 . S
H877 C879 0.959 . S
H878 C879 0.961 . S
C879 C869 1.510 . S
C879 H877 0.959 . S
C879 H878 0.961 . S
C879 H880 0.960 . S
H880 C879 0.960 . S
H881 N861 0.862 . S
O882 Co850 1.920 . S
O882 C855 1.289 . S
C883 O875 1.258 . S
C883 O876 1.266 . S
Co884 O887 1.970 . S
Co884 N901 1.989 . S
Co884 O909 1.967 . S
Co884 O916 1.920 . S
Co885 O888 1.966 . S
Co885 N894 2.022 . S
Co885 N902 1.993 . S
Co885 O910 1.941 . S
C886 O887 1.258 . S
C886 O888 1.263 . S
O887 Co884 1.970 . S
O887 C886 1.258 . S
O888 Co885 1.966 . S
O888 C886 1.263 . S
C889 O890 1.235 . S
C889 O916 1.289 . S
O890 C889 1.235 . S
C891 C893 1.400 . S
C891 N894 1.351 . S
C891 C896 1.501 . S
C892 C893 1.387 . S
C892 N895 1.341 . S
C893 C891 1.400 . S
C893 C892 1.387 . S
N894 Co885 2.022 . S
N894 C891 1.351 . S
N894 N895 1.365 . S
N895 C892 1.341 . S
N895 N894 1.365 . S
N895 H915 0.862 . S
C896 C891 1.501 . S
C896 H897 0.961 . S
C896 H898 0.961 . S
C896 H899 0.960 . S
H897 C896 0.961 . S
H898 C896 0.961 . S
H899 C896 0.960 . S
C900 N901 1.342 . S
C900 C904 1.401 . S
C900 C905 1.499 . S
N901 Co884 1.989 . S
N901 C900 1.342 . S
N901 N902 1.388 . S
N902 Co885 1.993 . S
N902 N901 1.388 . S
N902 C903 1.346 . S
C903 N902 1.346 . S
C903 C904 1.396 . S
C903 C913 1.510 . S
C904 C900 1.401 . S
C904 C903 1.396 . S
C905 C900 1.499 . S
C905 H906 0.959 . S
C905 H907 0.960 . S
C905 H908 0.961 . S
H906 C905 0.959 . S
H907 C905 0.960 . S
H908 C905 0.961 . S
O909 Co884 1.967 . S
O909 C917 1.258 . S
O910 Co885 1.941 . S
O910 C917 1.266 . S
H911 C913 0.959 . S
H912 C913 0.961 . S
C913 C903 1.510 . S
C913 H911 0.959 . S
C913 H912 0.961 . S
C913 H914 0.960 . S
H914 C913 0.960 . S
H915 N895 0.862 . S
O916 Co884 1.920 . S
O916 C889 1.289 . S
C917 O909 1.258 . S
C917 O910 1.266 . S
Co918 O921 1.970 . S
Co918 N935 1.989 . S
Co918 O943 1.967 . S
Co918 O950 1.920 . S
Co919 O922 1.966 . S
Co919 N928 2.022 . S
Co919 N936 1.993 . S
Co919 O944 1.941 . S
C920 O921 1.258 . S
C920 O922 1.263 . S
O921 Co918 1.970 . S
O921 C920 1.258 . S
O922 Co919 1.966 . S
O922 C920 1.263 . S
C923 O924 1.235 . S
C923 O950 1.289 . S
O924 C923 1.235 . S
C925 C927 1.400 . S
C925 N928 1.351 . S
C925 C930 1.501 . S
C926 C927 1.387 . S
C926 N929 1.341 . S
C927 C925 1.400 . S
C927 C926 1.387 . S
N928 Co919 2.022 . S
N928 C925 1.351 . S
N928 N929 1.365 . S
N929 C926 1.341 . S
N929 N928 1.365 . S
N929 H949 0.862 . S
C930 C925 1.501 . S
C930 H931 0.961 . S
C930 H932 0.961 . S
C930 H933 0.960 . S
H931 C930 0.961 . S
H932 C930 0.961 . S
H933 C930 0.960 . S
C934 N935 1.342 . S
C934 C938 1.401 . S
C934 C939 1.499 . S
N935 Co918 1.989 . S
N935 C934 1.342 . S
N935 N936 1.388 . S
N936 Co919 1.993 . S
N936 N935 1.388 . S
N936 C937 1.346 . S
C937 N936 1.346 . S
C937 C938 1.396 . S
C937 C947 1.510 . S
C938 C934 1.401 . S
C938 C937 1.396 . S
C939 C934 1.499 . S
C939 H940 0.959 . S
C939 H941 0.960 . S
C939 H942 0.961 . S
H940 C939 0.959 . S
H941 C939 0.960 . S
H942 C939 0.961 . S
O943 Co918 1.967 . S
O943 C951 1.258 . S
O944 Co919 1.941 . S
O944 C951 1.266 . S
H945 C947 0.959 . S
H946 C947 0.961 . S
C947 C937 1.510 . S
C947 H945 0.959 . S
C947 H946 0.961 . S
C947 H948 0.960 . S
H948 C947 0.960 . S
H949 N929 0.862 . S
O950 Co918 1.920 . S
O950 C923 1.289 . S
C951 O943 1.258 . S
C951 O944 1.266 . S
Co952 O955 1.970 . S
Co952 N969 1.989 . S
Co952 O977 1.967 . S
Co952 O984 1.920 . S
Co953 O956 1.966 . S
Co953 N962 2.022 . S
Co953 N970 1.993 . S
Co953 O978 1.941 . S
C954 O955 1.258 . S
C954 O956 1.263 . S
O955 Co952 1.970 . S
O955 C954 1.258 . S
O956 Co953 1.966 . S
O956 C954 1.263 . S
C957 O958 1.235 . S
C957 O984 1.289 . S
O958 C957 1.235 . S
C959 C961 1.400 . S
C959 N962 1.351 . S
C959 C964 1.501 . S
C960 C961 1.387 . S
C960 N963 1.341 . S
C961 C959 1.400 . S
C961 C960 1.387 . S
N962 Co953 2.022 . S
N962 C959 1.351 . S
N962 N963 1.365 . S
N963 C960 1.341 . S
N963 N962 1.365 . S
N963 H983 0.862 . S
C964 C959 1.501 . S
C964 H965 0.961 . S
C964 H966 0.961 . S
C964 H967 0.960 . S
H965 C964 0.961 . S
H966 C964 0.961 . S
H967 C964 0.960 . S
C968 N969 1.342 . S
C968 C972 1.401 . S
C968 C973 1.499 . S
N969 Co952 1.989 . S
N969 C968 1.342 . S
N969 N970 1.388 . S
N970 Co953 1.993 . S
N970 N969 1.388 . S
N970 C971 1.346 . S
C971 N970 1.346 . S
C971 C972 1.396 . S
C971 C981 1.510 . S
C972 C968 1.401 . S
C972 C971 1.396 . S
C973 C968 1.499 . S
C973 H974 0.959 . S
C973 H975 0.960 . S
C973 H976 0.961 . S
H974 C973 0.959 . S
H975 C973 0.960 . S
H976 C973 0.961 . S
O977 Co952 1.967 . S
O977 C985 1.258 . S
O978 Co953 1.941 . S
O978 C985 1.266 . S
H979 C981 0.959 . S
H980 C981 0.961 . S
C981 C971 1.510 . S
C981 H979 0.959 . S
C981 H980 0.961 . S
C981 H982 0.960 . S
H982 C981 0.960 . S
H983 N963 0.862 . S
O984 Co952 1.920 . S
O984 C957 1.289 . S
C985 O977 1.258 . S
C985 O978 1.266 . S
Co986 O989 1.970 . S
Co986 N1003 1.989 . S
Co986 O1011 1.967 . S
Co986 O1018 1.920 . S
Co987 O990 1.966 . S
Co987 N996 2.022 . S
Co987 N1004 1.993 . S
Co987 O1012 1.941 . S
C988 O989 1.258 . S
C988 O990 1.263 . S
O989 Co986 1.970 . S
O989 C988 1.258 . S
O990 Co987 1.966 . S
O990 C988 1.263 . S
C991 O992 1.235 . S
C991 O1018 1.289 . S
O992 C991 1.235 . S
C993 C995 1.400 . S
C993 N996 1.351 . S
C993 C998 1.501 . S
C994 C995 1.387 . S
C994 N997 1.341 . S
C995 C993 1.400 . S
C995 C994 1.387 . S
N996 Co987 2.022 . S
N996 C993 1.351 . S
N996 N997 1.365 . S
N997 C994 1.341 . S
N997 N996 1.365 . S
N997 H1017 0.862 . S
C998 C993 1.501 . S
C998 H999 0.961 . S
C998 H1000 0.961 . S
C998 H1001 0.960 . S
H999 C998 0.961 . S
H1000 C998 0.961 . S
H1001 C998 0.960 . S
C1002 N1003 1.342 . S
C1002 C1006 1.401 . S
C1002 C1007 1.499 . S
N1003 Co986 1.989 . S
N1003 C1002 1.342 . S
N1003 N1004 1.388 . S
N1004 Co987 1.993 . S
N1004 N1003 1.388 . S
N1004 C1005 1.346 . S
C1005 N1004 1.346 . S
C1005 C1006 1.396 . S
C1005 C1015 1.510 . S
C1006 C1002 1.401 . S
C1006 C1005 1.396 . S
C1007 C1002 1.499 . S
C1007 H1008 0.959 . S
C1007 H1009 0.960 . S
C1007 H1010 0.961 . S
H1008 C1007 0.959 . S
H1009 C1007 0.960 . S
H1010 C1007 0.961 . S
O1011 Co986 1.967 . S
O1011 C1019 1.258 . S
O1012 Co987 1.941 . S
O1012 C1019 1.266 . S
H1013 C1015 0.959 . S
H1014 C1015 0.961 . S
C1015 C1005 1.510 . S
C1015 H1013 0.959 . S
C1015 H1014 0.961 . S
C1015 H1016 0.960 . S
H1016 C1015 0.960 . S
H1017 N997 0.862 . S
O1018 Co986 1.920 . S
O1018 C991 1.289 . S
C1019 O1011 1.258 . S
C1019 O1012 1.266 . S
Co1020 O1023 1.970 . S
Co1020 N1037 1.989 . S
Co1020 O1045 1.967 . S
Co1020 O1052 1.920 . S
Co1021 O1024 1.966 . S
Co1021 N1030 2.022 . S
Co1021 N1038 1.993 . S
Co1021 O1046 1.941 . S
C1022 O1023 1.258 . S
C1022 O1024 1.263 . S
O1023 Co1020 1.970 . S
O1023 C1022 1.258 . S
O1024 Co1021 1.966 . S
O1024 C1022 1.263 . S
C1025 O1026 1.235 . S
C1025 O1052 1.289 . S
O1026 C1025 1.235 . S
C1027 C1029 1.400 . S
C1027 N1030 1.351 . S
C1027 C1032 1.501 . S
C1028 C1029 1.387 . S
C1028 N1031 1.341 . S
C1029 C1027 1.400 . S
C1029 C1028 1.387 . S
N1030 Co1021 2.022 . S
N1030 C1027 1.351 . S
N1030 N1031 1.365 . S
N1031 C1028 1.341 . S
N1031 N1030 1.365 . S
N1031 H1051 0.862 . S
C1032 C1027 1.501 . S
C1032 H1033 0.961 . S
C1032 H1034 0.961 . S
C1032 H1035 0.960 . S
H1033 C1032 0.961 . S
H1034 C1032 0.961 . S
H1035 C1032 0.960 . S
C1036 N1037 1.342 . S
C1036 C1040 1.401 . S
C1036 C1041 1.499 . S
N1037 Co1020 1.989 . S
N1037 C1036 1.342 . S
N1037 N1038 1.388 . S
N1038 Co1021 1.993 . S
N1038 N1037 1.388 . S
N1038 C1039 1.346 . S
C1039 N1038 1.346 . S
C1039 C1040 1.396 . S
C1039 C1049 1.510 . S
C1040 C1036 1.401 . S
C1040 C1039 1.396 . S
C1041 C1036 1.499 . S
C1041 H1042 0.959 . S
C1041 H1043 0.960 . S
C1041 H1044 0.961 . S
H1042 C1041 0.959 . S
H1043 C1041 0.960 . S
H1044 C1041 0.961 . S
O1045 Co1020 1.967 . S
O1045 C1053 1.258 . S
O1046 Co1021 1.941 . S
O1046 C1053 1.266 . S
H1047 C1049 0.959 . S
H1048 C1049 0.961 . S
C1049 C1039 1.510 . S
C1049 H1047 0.959 . S
C1049 H1048 0.961 . S
C1049 H1050 0.960 . S
H1050 C1049 0.960 . S
H1051 N1031 0.862 . S
O1052 Co1020 1.920 . S
O1052 C1025 1.289 . S
C1053 O1045 1.258 . S
C1053 O1046 1.266 . S
Co1054 O1057 1.970 . S
Co1054 N1071 1.989 . S
Co1054 O1079 1.967 . S
Co1054 O1086 1.920 . S
Co1055 O1058 1.966 . S
Co1055 N1064 2.022 . S
Co1055 N1072 1.993 . S
Co1055 O1080 1.941 . S
C1056 O1057 1.258 . S
C1056 O1058 1.263 . S
O1057 Co1054 1.970 . S
O1057 C1056 1.258 . S
O1058 Co1055 1.966 . S
O1058 C1056 1.263 . S
C1059 O1060 1.235 . S
C1059 O1086 1.289 . S
O1060 C1059 1.235 . S
C1061 C1063 1.400 . S
C1061 N1064 1.351 . S
C1061 C1066 1.501 . S
C1062 C1063 1.387 . S
C1062 N1065 1.341 . S
C1063 C1061 1.400 . S
C1063 C1062 1.387 . S
N1064 Co1055 2.022 . S
N1064 C1061 1.351 . S
N1064 N1065 1.365 . S
N1065 C1062 1.341 . S
N1065 N1064 1.365 . S
N1065 H1085 0.862 . S
C1066 C1061 1.501 . S
C1066 H1067 0.961 . S
C1066 H1068 0.961 . S
C1066 H1069 0.960 . S
H1067 C1066 0.961 . S
H1068 C1066 0.961 . S
H1069 C1066 0.960 . S
C1070 N1071 1.342 . S
C1070 C1074 1.401 . S
C1070 C1075 1.499 . S
N1071 Co1054 1.989 . S
N1071 C1070 1.342 . S
N1071 N1072 1.388 . S
N1072 Co1055 1.993 . S
N1072 N1071 1.388 . S
N1072 C1073 1.346 . S
C1073 N1072 1.346 . S
C1073 C1074 1.396 . S
C1073 C1083 1.510 . S
C1074 C1070 1.401 . S
C1074 C1073 1.396 . S
C1075 C1070 1.499 . S
C1075 H1076 0.959 . S
C1075 H1077 0.960 . S
C1075 H1078 0.961 . S
H1076 C1075 0.959 . S
H1077 C1075 0.960 . S
H1078 C1075 0.961 . S
O1079 Co1054 1.967 . S
O1079 C1087 1.258 . S
O1080 Co1055 1.941 . S
O1080 C1087 1.266 . S
H1081 C1083 0.959 . S
H1082 C1083 0.961 . S
C1083 C1073 1.510 . S
C1083 H1081 0.959 . S
C1083 H1082 0.961 . S
C1083 H1084 0.960 . S
H1084 C1083 0.960 . S
H1085 N1065 0.862 . S
O1086 Co1054 1.920 . S
O1086 C1059 1.289 . S
C1087 O1079 1.258 . S
C1087 O1080 1.266 . S
H1088 C1094 0.930 . S
H1089 C1098 0.930 . S
H1090 C1103 0.929 . S
H1091 C1101 0.929 . S
H1092 C1096 0.929 . S
H1093 C1102 0.929 . S
C1094 H1088 0.930 . S
C1094 C1095 1.367 . S
C1094 C1102 1.378 . S
C1095 C1094 1.367 . S
C1095 C1103 1.433 . S
C1096 H1092 0.929 . S
C1096 C1098 1.378 . S
C1096 C1100 1.350 . S
C1097 C1100 1.463 . S
C1097 C1102 1.350 . S
C1097 N1105 1.427 . S
C1098 H1089 0.930 . S
C1098 C1096 1.378 . S
C1098 C1099 1.367 . S
C1099 C1098 1.367 . S
C1099 C1101 1.433 . S
C1100 C1096 1.350 . S
C1100 C1097 1.463 . S
C1100 N1104 1.427 . S
C1101 H1091 0.929 . S
C1101 C1099 1.433 . S
C1101 N1104 1.384 . S
C1102 H1093 0.929 . S
C1102 C1094 1.378 . S
C1102 C1097 1.350 . S
C1103 H1090 0.929 . S
C1103 C1095 1.433 . S
C1103 N1105 1.384 . S
N1104 C1100 1.427 . S
N1104 C1101 1.384 . S
N1105 C1097 1.427 . S
N1105 C1103 1.384 . S
H1106 C1112 0.930 . S
H1107 C1116 0.930 . S
H1108 C1121 0.929 . S
H1109 C1119 0.929 . S
H1110 C1114 0.929 . S
H1111 C1120 0.929 . S
C1112 H1106 0.930 . S
C1112 C1113 1.367 . S
C1112 C1120 1.378 . S
C1113 C1112 1.367 . S
C1113 C1121 1.433 . S
C1114 H1110 0.929 . S
C1114 C1116 1.378 . S
C1114 C1118 1.350 . S
C1115 C1118 1.463 . S
C1115 C1120 1.350 . S
C1115 N1123 1.427 . S
C1116 H1107 0.930 . S
C1116 C1114 1.378 . S
C1116 C1117 1.367 . S
C1117 C1116 1.367 . S
C1117 C1119 1.433 . S
C1118 C1114 1.350 . S
C1118 C1115 1.463 . S
C1118 N1122 1.427 . S
C1119 H1109 0.929 . S
C1119 C1117 1.433 . S
C1119 N1122 1.384 . S
C1120 H1111 0.929 . S
C1120 C1112 1.378 . S
C1120 C1115 1.350 . S
C1121 H1108 0.929 . S
C1121 C1113 1.433 . S
C1121 N1123 1.384 . S
N1122 C1118 1.427 . S
N1122 C1119 1.384 . S
N1123 C1115 1.427 . S
N1123 C1121 1.384 . S
H1124 C1130 0.930 . S
H1125 C1134 0.930 . S
H1126 C1139 0.929 . S
H1127 C1137 0.929 . S
H1128 C1132 0.929 . S
H1129 C1138 0.929 . S
C1130 H1124 0.930 . S
C1130 C1131 1.367 . S
C1130 C1138 1.378 . S
C1131 C1130 1.367 . S
C1131 C1139 1.433 . S
C1132 H1128 0.929 . S
C1132 C1134 1.378 . S
C1132 C1136 1.350 . S
C1133 C1136 1.463 . S
C1133 C1138 1.350 . S
C1133 N1141 1.427 . S
C1134 H1125 0.930 . S
C1134 C1132 1.378 . S
C1134 C1135 1.367 . S
C1135 C1134 1.367 . S
C1135 C1137 1.433 . S
C1136 C1132 1.350 . S
C1136 C1133 1.463 . S
C1136 N1140 1.427 . S
C1137 H1127 0.929 . S
C1137 C1135 1.433 . S
C1137 N1140 1.384 . S
C1138 H1129 0.929 . S
C1138 C1130 1.378 . S
C1138 C1133 1.350 . S
C1139 H1126 0.929 . S
C1139 C1131 1.433 . S
C1139 N1141 1.384 . S
N1140 C1136 1.427 . S
N1140 C1137 1.384 . S
N1141 C1133 1.427 . S
N1141 C1139 1.384 . S
H1142 C1148 0.930 . S
H1143 C1152 0.930 . S
H1144 C1157 0.929 . S
H1145 C1155 0.929 . S
H1146 C1150 0.929 . S
H1147 C1156 0.929 . S
C1148 H1142 0.930 . S
C1148 C1149 1.367 . S
C1148 C1156 1.378 . S
C1149 C1148 1.367 . S
C1149 C1157 1.433 . S
C1150 H1146 0.929 . S
C1150 C1152 1.378 . S
C1150 C1154 1.350 . S
C1151 C1154 1.463 . S
C1151 C1156 1.350 . S
C1151 N1159 1.427 . S
C1152 H1143 0.930 . S
C1152 C1150 1.378 . S
C1152 C1153 1.367 . S
C1153 C1152 1.367 . S
C1153 C1155 1.433 . S
C1154 C1150 1.350 . S
C1154 C1151 1.463 . S
C1154 N1158 1.427 . S
C1155 H1145 0.929 . S
C1155 C1153 1.433 . S
C1155 N1158 1.384 . S
C1156 H1147 0.929 . S
C1156 C1148 1.378 . S
C1156 C1151 1.350 . S
C1157 H1144 0.929 . S
C1157 C1149 1.433 . S
C1157 N1159 1.384 . S
N1158 C1154 1.427 . S
N1158 C1155 1.384 . S
N1159 C1151 1.427 . S
N1159 C1157 1.384 . S
H1160 C1166 0.930 . S
H1161 C1170 0.930 . S
H1162 C1175 0.929 . S
H1163 C1173 0.929 . S
H1164 C1168 0.929 . S
H1165 C1174 0.929 . S
C1166 H1160 0.930 . S
C1166 C1167 1.367 . S
C1166 C1174 1.378 . S
C1167 C1166 1.367 . S
C1167 C1175 1.433 . S
C1168 H1164 0.929 . S
C1168 C1170 1.378 . S
C1168 C1172 1.350 . S
C1169 C1172 1.463 . S
C1169 C1174 1.350 . S
C1169 N1177 1.427 . S
C1170 H1161 0.930 . S
C1170 C1168 1.378 . S
C1170 C1171 1.367 . S
C1171 C1170 1.367 . S
C1171 C1173 1.433 . S
C1172 C1168 1.350 . S
C1172 C1169 1.463 . S
C1172 N1176 1.427 . S
C1173 H1163 0.929 . S
C1173 C1171 1.433 . S
C1173 N1176 1.384 . S
C1174 H1165 0.929 . S
C1174 C1166 1.378 . S
C1174 C1169 1.350 . S
C1175 H1162 0.929 . S
C1175 C1167 1.433 . S
C1175 N1177 1.384 . S
N1176 C1172 1.427 . S
N1176 C1173 1.384 . S
N1177 C1169 1.427 . S
N1177 C1175 1.384 . S
H1178 C1184 0.930 . S
H1179 C1188 0.930 . S
H1180 C1193 0.929 . S
H1181 C1191 0.929 . S
H1182 C1186 0.929 . S
H1183 C1192 0.929 . S
C1184 H1178 0.930 . S
C1184 C1185 1.367 . S
C1184 C1192 1.378 . S
C1185 C1184 1.367 . S
C1185 C1193 1.433 . S
C1186 H1182 0.929 . S
C1186 C1188 1.378 . S
C1186 C1190 1.350 . S
C1187 C1190 1.463 . S
C1187 C1192 1.350 . S
C1187 N1195 1.427 . S
C1188 H1179 0.930 . S
C1188 C1186 1.378 . S
C1188 C1189 1.367 . S
C1189 C1188 1.367 . S
C1189 C1191 1.433 . S
C1190 C1186 1.350 . S
C1190 C1187 1.463 . S
C1190 N1194 1.427 . S
C1191 H1181 0.929 . S
C1191 C1189 1.433 . S
C1191 N1194 1.384 . S
C1192 H1183 0.929 . S
C1192 C1184 1.378 . S
C1192 C1187 1.350 . S
C1193 H1180 0.929 . S
C1193 C1185 1.433 . S
C1193 N1195 1.384 . S
N1194 C1190 1.427 . S
N1194 C1191 1.384 . S
N1195 C1187 1.427 . S
N1195 C1193 1.384 . S
H1196 C1202 0.930 . S
H1197 C1206 0.930 . S
H1198 C1211 0.929 . S
H1199 C1209 0.929 . S
H1200 C1204 0.929 . S
H1201 C1210 0.929 . S
C1202 H1196 0.930 . S
C1202 C1203 1.367 . S
C1202 C1210 1.378 . S
C1203 C1202 1.367 . S
C1203 C1211 1.433 . S
C1204 H1200 0.929 . S
C1204 C1206 1.378 . S
C1204 C1208 1.350 . S
C1205 C1208 1.463 . S
C1205 C1210 1.350 . S
C1205 N1213 1.427 . S
C1206 H1197 0.930 . S
C1206 C1204 1.378 . S
C1206 C1207 1.367 . S
C1207 C1206 1.367 . S
C1207 C1209 1.433 . S
C1208 C1204 1.350 . S
C1208 C1205 1.463 . S
C1208 N1212 1.427 . S
C1209 H1199 0.929 . S
C1209 C1207 1.433 . S
C1209 N1212 1.384 . S
C1210 H1201 0.929 . S
C1210 C1202 1.378 . S
C1210 C1205 1.350 . S
C1211 H1198 0.929 . S
C1211 C1203 1.433 . S
C1211 N1213 1.384 . S
N1212 C1208 1.427 . S
N1212 C1209 1.384 . S
N1213 C1205 1.427 . S
N1213 C1211 1.384 . S
H1214 C1220 0.930 . S
H1215 C1224 0.930 . S
H1216 C1229 0.929 . S
H1217 C1227 0.916 1_455 S
H1218 C1222 0.929 . S
H1219 C1228 0.929 . S
C1220 H1214 0.930 . S
C1220 C1221 1.367 . S
C1220 C1228 1.378 . S
C1221 C1220 1.367 . S
C1221 C1229 1.433 . S
C1222 H1218 0.929 . S
C1222 C1224 1.378 . S
C1222 C1226 1.350 . S
C1223 C1226 1.463 . S
C1223 C1228 1.350 . S
C1223 N1231 1.427 . S
C1224 H1215 0.930 . S
C1224 C1222 1.378 . S
C1224 C1225 1.367 . S
C1225 C1224 1.367 . S
C1225 C1227 1.433 . S
C1226 C1222 1.350 . S
C1226 C1223 1.463 . S
C1226 N1230 1.427 . S
C1227 H1217 0.916 1_655 S
C1227 C1225 1.433 . S
C1227 N1230 1.384 . S
C1228 H1219 0.929 . S
C1228 C1220 1.378 . S
C1228 C1223 1.350 . S
C1229 H1216 0.929 . S
C1229 C1221 1.433 . S
C1229 N1231 1.384 . S
N1230 C1226 1.427 . S
N1230 C1227 1.384 . S
N1231 C1223 1.427 . S
N1231 C1229 1.384 . S
H1232 C1238 0.930 . S
H1233 C1242 0.930 . S
H1234 C1247 0.929 . S
H1235 C1245 0.929 . S
H1236 C1240 0.929 . S
H1237 C1246 0.929 . S
C1238 H1232 0.930 . S
C1238 C1239 1.367 . S
C1238 C1246 1.378 . S
C1239 C1238 1.367 . S
C1239 C1247 1.433 . S
C1240 H1236 0.929 . S
C1240 C1242 1.378 . S
C1240 C1244 1.350 . S
C1241 C1244 1.463 . S
C1241 C1246 1.350 . S
C1241 N1249 1.427 . S
C1242 H1233 0.930 . S
C1242 C1240 1.378 . S
C1242 C1243 1.367 . S
C1243 C1242 1.367 . S
C1243 C1245 1.433 . S
C1244 C1240 1.350 . S
C1244 C1241 1.463 . S
C1244 N1248 1.427 . S
C1245 H1235 0.929 . S
C1245 C1243 1.433 . S
C1245 N1248 1.384 . S
C1246 H1237 0.929 . S
C1246 C1238 1.378 . S
C1246 C1241 1.350 . S
C1247 H1234 0.929 . S
C1247 C1239 1.433 . S
C1247 N1249 1.384 . S
N1248 C1244 1.427 . S
N1248 C1245 1.384 . S
N1249 C1241 1.427 . S
N1249 C1247 1.384 . S
H1250 C1256 0.930 . S
H1251 C1260 0.930 . S
H1252 C1265 0.929 . S
H1253 C1263 0.929 . S
H1254 C1258 0.929 . S
H1255 C1264 0.929 . S
C1256 H1250 0.930 . S
C1256 C1257 1.367 . S
C1256 C1264 1.378 . S
C1257 C1256 1.367 . S
C1257 C1265 1.433 . S
C1258 H1254 0.929 . S
C1258 C1260 1.378 . S
C1258 C1262 1.350 . S
C1259 C1262 1.463 . S
C1259 C1264 1.350 . S
C1259 N1267 1.427 . S
C1260 H1251 0.930 . S
C1260 C1258 1.378 . S
C1260 C1261 1.367 . S
C1261 C1260 1.367 . S
C1261 C1263 1.433 . S
C1262 C1258 1.350 . S
C1262 C1259 1.463 . S
C1262 N1266 1.427 . S
C1263 H1253 0.929 . S
C1263 C1261 1.433 . S
C1263 N1266 1.384 . S
C1264 H1255 0.929 . S
C1264 C1256 1.378 . S
C1264 C1259 1.350 . S
C1265 H1252 0.929 . S
C1265 C1257 1.433 . S
C1265 N1267 1.384 . S
N1266 C1262 1.427 . S
N1266 C1263 1.384 . S
N1267 C1259 1.427 . S
N1267 C1265 1.384 . S
H1268 C1274 0.930 . S
H1269 C1278 0.930 . S
H1270 C1283 0.929 . S
H1271 C1281 0.929 . S
H1272 C1276 0.929 . S
H1273 C1282 0.929 . S
C1274 H1268 0.930 . S
C1274 C1275 1.367 . S
C1274 C1282 1.378 . S
C1275 C1274 1.367 . S
C1275 C1283 1.433 . S
C1276 H1272 0.929 . S
C1276 C1278 1.378 . S
C1276 C1280 1.350 . S
C1277 C1280 1.463 . S
C1277 C1282 1.350 . S
C1277 N1285 1.427 . S
C1278 H1269 0.930 . S
C1278 C1276 1.378 . S
C1278 C1279 1.367 . S
C1279 C1278 1.367 . S
C1279 C1281 1.433 . S
C1280 C1276 1.350 . S
C1280 C1277 1.463 . S
C1280 N1284 1.427 . S
C1281 H1271 0.929 . S
C1281 C1279 1.433 . S
C1281 N1284 1.384 . S
C1282 H1273 0.929 . S
C1282 C1274 1.378 . S
C1282 C1277 1.350 . S
C1283 H1270 0.929 . S
C1283 C1275 1.433 . S
C1283 N1285 1.384 . S
N1284 C1280 1.427 . S
N1284 C1281 1.384 . S
N1285 C1277 1.427 . S
N1285 C1283 1.384 . S
H1286 C1292 0.930 . S
H1287 C1296 0.930 . S
H1288 C1301 0.929 . S
H1289 C1299 0.929 . S
H1290 C1294 0.929 . S
H1291 C1300 0.929 . S
C1292 H1286 0.930 . S
C1292 C1293 1.367 . S
C1292 C1300 1.378 . S
C1293 C1292 1.367 . S
C1293 C1301 1.433 . S
C1294 H1290 0.929 . S
C1294 C1296 1.378 . S
C1294 C1298 1.350 . S
C1295 C1298 1.463 . S
C1295 C1300 1.350 . S
C1295 N1303 1.427 . S
C1296 H1287 0.930 . S
C1296 C1294 1.378 . S
C1296 C1297 1.367 . S
C1297 C1296 1.367 . S
C1297 C1299 1.433 . S
C1298 C1294 1.350 . S
C1298 C1295 1.463 . S
C1298 N1302 1.427 . S
C1299 H1289 0.929 . S
C1299 C1297 1.433 . S
C1299 N1302 1.384 . S
C1300 H1291 0.929 . S
C1300 C1292 1.378 . S
C1300 C1295 1.350 . S
C1301 H1288 0.929 . S
C1301 C1293 1.433 . S
C1301 N1303 1.384 . S
N1302 C1298 1.427 . S
N1302 C1299 1.384 . S
N1303 C1295 1.427 . S
N1303 C1301 1.384 . S
H1304 C1310 0.930 . S
H1305 C1314 0.930 . S
H1306 C1319 0.929 . S
H1307 C1317 0.929 . S
H1308 C1312 0.929 . S
H1309 C1318 0.929 . S
C1310 H1304 0.930 . S
C1310 C1311 1.367 . S
C1310 C1318 1.378 . S
C1311 C1310 1.367 . S
C1311 C1319 1.433 . S
C1312 H1308 0.929 . S
C1312 C1314 1.378 . S
C1312 C1316 1.350 . S
C1313 C1316 1.463 . S
C1313 C1318 1.350 . S
C1313 N1321 1.427 . S
C1314 H1305 0.930 . S
C1314 C1312 1.378 . S
C1314 C1315 1.367 . S
C1315 C1314 1.367 . S
C1315 C1317 1.433 . S
C1316 C1312 1.350 . S
C1316 C1313 1.463 . S
C1316 N1320 1.427 . S
C1317 H1307 0.929 . S
C1317 C1315 1.433 . S
C1317 N1320 1.384 . S
C1318 H1309 0.929 . S
C1318 C1310 1.378 . S
C1318 C1313 1.350 . S
C1319 H1306 0.929 . S
C1319 C1311 1.433 . S
C1319 N1321 1.384 . S
N1320 C1316 1.427 . S
N1320 C1317 1.384 . S
N1321 C1313 1.427 . S
N1321 C1319 1.384 . S
H1322 C1328 0.930 . S
H1323 C1332 0.930 . S
H1324 C1337 0.929 . S
H1325 C1335 0.929 . S
H1326 C1330 0.929 . S
H1327 C1336 0.929 . S
C1328 H1322 0.930 . S
C1328 C1329 1.367 . S
C1328 C1336 1.378 . S
C1329 C1328 1.367 . S
C1329 C1337 1.433 . S
C1330 H1326 0.929 . S
C1330 C1332 1.378 . S
C1330 C1334 1.350 . S
C1331 C1334 1.463 . S
C1331 C1336 1.350 . S
C1331 N1339 1.427 . S
C1332 H1323 0.930 . S
C1332 C1330 1.378 . S
C1332 C1333 1.367 . S
C1333 C1332 1.367 . S
C1333 C1335 1.433 . S
C1334 C1330 1.350 . S
C1334 C1331 1.463 . S
C1334 N1338 1.427 . S
C1335 H1325 0.929 . S
C1335 C1333 1.433 . S
C1335 N1338 1.384 . S
C1336 H1327 0.929 . S
C1336 C1328 1.378 . S
C1336 C1331 1.350 . S
C1337 H1324 0.929 . S
C1337 C1329 1.433 . S
C1337 N1339 1.384 . S
N1338 C1334 1.427 . S
N1338 C1335 1.384 . S
N1339 C1331 1.427 . S
N1339 C1337 1.384 . S
H1340 C1346 0.930 . S
H1341 C1350 0.930 . S
H1342 C1355 0.929 . S
H1343 C1353 0.929 . S
H1344 C1348 0.929 . S
H1345 C1354 0.929 . S
C1346 H1340 0.930 . S
C1346 C1347 1.367 . S
C1346 C1354 1.378 . S
C1347 C1346 1.367 . S
C1347 C1355 1.433 . S
C1348 H1344 0.929 . S
C1348 C1350 1.378 . S
C1348 C1352 1.350 . S
C1349 C1352 1.463 . S
C1349 C1354 1.350 . S
C1349 N1357 1.427 . S
C1350 H1341 0.930 . S
C1350 C1348 1.378 . S
C1350 C1351 1.367 . S
C1351 C1350 1.367 . S
C1351 C1353 1.433 . S
C1352 C1348 1.350 . S
C1352 C1349 1.463 . S
C1352 N1356 1.427 . S
C1353 H1343 0.929 . S
C1353 C1351 1.433 . S
C1353 N1356 1.384 . S
C1354 H1345 0.929 . S
C1354 C1346 1.378 . S
C1354 C1349 1.350 . S
C1355 H1342 0.929 . S
C1355 C1347 1.433 . S
C1355 N1357 1.384 . S
N1356 C1352 1.427 . S
N1356 C1353 1.384 . S
N1357 C1349 1.427 . S
N1357 C1355 1.384 . S
H1358 C1364 0.930 . S
H1359 C1368 0.930 . S
H1360 C1373 0.900 1_655 S
H1361 C1371 0.929 . S
H1362 C1366 0.929 . S
H1363 C1372 0.929 . S
C1364 H1358 0.930 . S
C1364 C1365 1.367 . S
C1364 C1372 1.378 . S
C1365 C1364 1.367 . S
C1365 C1373 1.433 . S
C1366 H1362 0.929 . S
C1366 C1368 1.378 . S
C1366 C1370 1.350 . S
C1367 C1370 1.463 . S
C1367 C1372 1.350 . S
C1367 N1375 1.427 . S
C1368 H1359 0.930 . S
C1368 C1366 1.378 . S
C1368 C1369 1.367 . S
C1369 C1368 1.367 . S
C1369 C1371 1.433 . S
C1370 C1366 1.350 . S
C1370 C1367 1.463 . S
C1370 N1374 1.427 . S
C1371 H1361 0.929 . S
C1371 C1369 1.433 . S
C1371 N1374 1.384 . S
C1372 H1363 0.929 . S
C1372 C1364 1.378 . S
C1372 C1367 1.350 . S
C1373 H1360 0.900 1_455 S
C1373 C1365 1.433 . S
C1373 N1375 1.384 . S
N1374 C1370 1.427 . S
N1374 C1371 1.384 . S
N1375 C1367 1.427 . S
N1375 C1373 1.384 . S
H1376 C1382 0.930 . S
H1377 C1386 0.930 . S
H1378 C1391 0.929 . S
H1379 C1389 0.929 . S
H1380 C1384 0.929 . S
H1381 C1390 0.929 . S
C1382 H1376 0.930 . S
C1382 C1383 1.367 . S
C1382 C1390 1.378 . S
C1383 C1382 1.367 . S
C1383 C1391 1.433 . S
C1384 H1380 0.929 . S
C1384 C1386 1.378 . S
C1384 C1388 1.350 . S
C1385 C1388 1.463 . S
C1385 C1390 1.350 . S
C1385 N1393 1.427 . S
C1386 H1377 0.930 . S
C1386 C1384 1.378 . S
C1386 C1387 1.367 . S
C1387 C1386 1.367 . S
C1387 C1389 1.433 . S
C1388 C1384 1.350 . S
C1388 C1385 1.463 . S
C1388 N1392 1.427 . S
C1389 H1379 0.929 . S
C1389 C1387 1.433 . S
C1389 N1392 1.384 . S
C1390 H1381 0.929 . S
C1390 C1382 1.378 . S
C1390 C1385 1.350 . S
C1391 H1378 0.929 . S
C1391 C1383 1.433 . S
C1391 N1393 1.384 . S
N1392 C1388 1.427 . S
N1392 C1389 1.384 . S
N1393 C1385 1.427 . S
N1393 C1391 1.384 . S
H1394 C1400 0.930 . S
H1395 C1404 0.930 . S
H1396 C1409 0.929 . S
H1397 C1407 0.929 . S
H1398 C1402 0.929 . S
H1399 C1408 0.929 . S
C1400 H1394 0.930 . S
C1400 C1401 1.367 . S
C1400 C1408 1.378 . S
C1401 C1400 1.367 . S
C1401 C1409 1.433 . S
C1402 H1398 0.929 . S
C1402 C1404 1.378 . S
C1402 C1406 1.350 . S
C1403 C1406 1.463 . S
C1403 C1408 1.350 . S
C1403 N1411 1.427 . S
C1404 H1395 0.930 . S
C1404 C1402 1.378 . S
C1404 C1405 1.367 . S
C1405 C1404 1.367 . S
C1405 C1407 1.433 . S
C1406 C1402 1.350 . S
C1406 C1403 1.463 . S
C1406 N1410 1.427 . S
C1407 H1397 0.929 . S
C1407 C1405 1.433 . S
C1407 N1410 1.384 . S
C1408 H1399 0.929 . S
C1408 C1400 1.378 . S
C1408 C1403 1.350 . S
C1409 H1396 0.929 . S
C1409 C1401 1.433 . S
C1409 N1411 1.384 . S
N1410 C1406 1.427 . S
N1410 C1407 1.384 . S
N1411 C1403 1.427 . S
N1411 C1409 1.384 . S
H1412 C1418 0.930 . S
H1413 C1422 0.930 . S
H1414 C1427 0.929 . S
H1415 C1425 0.929 . S
H1416 C1420 0.929 . S
H1417 C1426 0.929 . S
C1418 H1412 0.930 . S
C1418 C1419 1.367 . S
C1418 C1426 1.378 . S
C1419 C1418 1.367 . S
C1419 C1427 1.433 . S
C1420 H1416 0.929 . S
C1420 C1422 1.378 . S
C1420 C1424 1.350 . S
C1421 C1424 1.463 . S
C1421 C1426 1.350 . S
C1421 N1429 1.427 . S
C1422 H1413 0.930 . S
C1422 C1420 1.378 . S
C1422 C1423 1.367 . S
C1423 C1422 1.367 . S
C1423 C1425 1.433 . S
C1424 C1420 1.350 . S
C1424 C1421 1.463 . S
C1424 N1428 1.427 . S
C1425 H1415 0.929 . S
C1425 C1423 1.433 . S
C1425 N1428 1.384 . S
C1426 H1417 0.929 . S
C1426 C1418 1.378 . S
C1426 C1421 1.350 . S
C1427 H1414 0.929 . S
C1427 C1419 1.433 . S
C1427 N1429 1.384 . S
N1428 C1424 1.427 . S
N1428 C1425 1.384 . S
N1429 C1421 1.427 . S
N1429 C1427 1.384 . S
H1430 C1436 0.930 . S
H1431 C1440 0.930 . S
H1432 C1445 0.929 . S
H1433 C1443 0.929 . S
H1434 C1438 0.929 . S
H1435 C1444 0.929 . S
C1436 H1430 0.930 . S
C1436 C1437 1.367 . S
C1436 C1444 1.378 . S
C1437 C1436 1.367 . S
C1437 C1445 1.433 . S
C1438 H1434 0.929 . S
C1438 C1440 1.378 . S
C1438 C1442 1.350 . S
C1439 C1442 1.463 . S
C1439 C1444 1.350 . S
C1439 N1447 1.427 . S
C1440 H1431 0.930 . S
C1440 C1438 1.378 . S
C1440 C1441 1.367 . S
C1441 C1440 1.367 . S
C1441 C1443 1.433 . S
C1442 C1438 1.350 . S
C1442 C1439 1.463 . S
C1442 N1446 1.427 . S
C1443 H1433 0.929 . S
C1443 C1441 1.433 . S
C1443 N1446 1.384 . S
C1444 H1435 0.929 . S
C1444 C1436 1.378 . S
C1444 C1439 1.350 . S
C1445 H1432 0.929 . S
C1445 C1437 1.433 . S
C1445 N1447 1.384 . S
N1446 C1442 1.427 . S
N1446 C1443 1.384 . S
N1447 C1439 1.427 . S
N1447 C1445 1.384 . S
H1448 C1454 0.930 . S
H1449 C1458 0.930 . S
H1450 C1463 0.929 . S
H1451 C1461 0.929 . S
H1452 C1456 0.929 . S
H1453 C1462 0.929 . S
C1454 H1448 0.930 . S
C1454 C1455 1.367 . S
C1454 C1462 1.378 . S
C1455 C1454 1.367 . S
C1455 C1463 1.433 . S
C1456 H1452 0.929 . S
C1456 C1458 1.378 . S
C1456 C1460 1.350 . S
C1457 C1460 1.463 . S
C1457 C1462 1.350 . S
C1457 N1465 1.427 . S
C1458 H1449 0.930 . S
C1458 C1456 1.378 . S
C1458 C1459 1.367 . S
C1459 C1458 1.367 . S
C1459 C1461 1.433 . S
C1460 C1456 1.350 . S
C1460 C1457 1.463 . S
C1460 N1464 1.427 . S
C1461 H1451 0.929 . S
C1461 C1459 1.433 . S
C1461 N1464 1.384 . S
C1462 H1453 0.929 . S
C1462 C1454 1.378 . S
C1462 C1457 1.350 . S
C1463 H1450 0.929 . S
C1463 C1455 1.433 . S
C1463 N1465 1.384 . S
N1464 C1460 1.427 . S
N1464 C1461 1.384 . S
N1465 C1457 1.427 . S
N1465 C1463 1.384 . S
H1466 C1472 0.930 . S
H1467 C1476 0.930 . S
H1468 C1481 0.929 . S
H1469 C1479 0.914 1_655 S
H1470 C1474 0.929 . S
H1471 C1480 0.929 . S
C1472 H1466 0.930 . S
C1472 C1473 1.367 . S
C1472 C1480 1.378 . S
C1473 C1472 1.367 . S
C1473 C1481 1.433 . S
C1474 H1470 0.929 . S
C1474 C1476 1.378 . S
C1474 C1478 1.350 . S
C1475 C1478 1.463 . S
C1475 C1480 1.350 . S
C1475 N1483 1.427 . S
C1476 H1467 0.930 . S
C1476 C1474 1.378 . S
C1476 C1477 1.367 . S
C1477 C1476 1.367 . S
C1477 C1479 1.433 . S
C1478 C1474 1.350 . S
C1478 C1475 1.463 . S
C1478 N1482 1.427 . S
C1479 H1469 0.914 1_455 S
C1479 C1477 1.433 . S
C1479 N1482 1.384 . S
C1480 H1471 0.929 . S
C1480 C1472 1.378 . S
C1480 C1475 1.350 . S
C1481 H1468 0.929 . S
C1481 C1473 1.433 . S
C1481 N1483 1.384 . S
N1482 C1478 1.427 . S
N1482 C1479 1.384 . S
N1483 C1475 1.427 . S
N1483 C1481 1.384 . S
H1484 C1490 0.930 . S
H1485 C1494 0.930 . S
H1486 C1499 0.929 . S
H1487 C1497 0.929 . S
H1488 C1492 0.929 . S
H1489 C1498 0.929 . S
C1490 H1484 0.930 . S
C1490 C1491 1.367 . S
C1490 C1498 1.378 . S
C1491 C1490 1.367 . S
C1491 C1499 1.433 . S
C1492 H1488 0.929 . S
C1492 C1494 1.378 . S
C1492 C1496 1.350 . S
C1493 C1496 1.463 . S
C1493 C1498 1.350 . S
C1493 N1501 1.427 . S
C1494 H1485 0.930 . S
C1494 C1492 1.378 . S
C1494 C1495 1.367 . S
C1495 C1494 1.367 . S
C1495 C1497 1.433 . S
C1496 C1492 1.350 . S
C1496 C1493 1.463 . S
C1496 N1500 1.427 . S
C1497 H1487 0.929 . S
C1497 C1495 1.433 . S
C1497 N1500 1.384 . S
C1498 H1489 0.929 . S
C1498 C1490 1.378 . S
C1498 C1493 1.350 . S
C1499 H1486 0.929 . S
C1499 C1491 1.433 . S
C1499 N1501 1.384 . S
N1500 C1496 1.427 . S
N1500 C1497 1.384 . S
N1501 C1493 1.427 . S
N1501 C1499 1.384 . S
H1502 C1508 0.930 . S
H1503 C1512 0.930 . S
H1504 C1517 0.929 . S
H1505 C1515 0.929 . S
H1506 C1510 0.929 . S
H1507 C1516 0.929 . S
C1508 H1502 0.930 . S
C1508 C1509 1.367 . S
C1508 C1516 1.378 . S
C1509 C1508 1.367 . S
C1509 C1517 1.433 . S
C1510 H1506 0.929 . S
C1510 C1512 1.378 . S
C1510 C1514 1.350 . S
C1511 C1514 1.463 . S
C1511 C1516 1.350 . S
C1511 N1519 1.427 . S
C1512 H1503 0.930 . S
C1512 C1510 1.378 . S
C1512 C1513 1.367 . S
C1513 C1512 1.367 . S
C1513 C1515 1.433 . S
C1514 C1510 1.350 . S
C1514 C1511 1.463 . S
C1514 N1518 1.427 . S
C1515 H1505 0.929 . S
C1515 C1513 1.433 . S
C1515 N1518 1.384 . S
C1516 H1507 0.929 . S
C1516 C1508 1.378 . S
C1516 C1511 1.350 . S
C1517 H1504 0.929 . S
C1517 C1509 1.433 . S
C1517 N1519 1.384 . S
N1518 C1514 1.427 . S
N1518 C1515 1.384 . S
N1519 C1511 1.427 . S
N1519 C1517 1.384 . S
H1520 C1526 0.930 . S
H1521 C1530 0.930 . S
H1522 C1535 0.929 . S
H1523 C1533 0.929 . S
H1524 C1528 0.929 . S
H1525 C1534 0.929 . S
C1526 H1520 0.930 . S
C1526 C1527 1.367 . S
C1526 C1534 1.378 . S
C1527 C1526 1.367 . S
C1527 C1535 1.433 . S
C1528 H1524 0.929 . S
C1528 C1530 1.378 . S
C1528 C1532 1.350 . S
C1529 C1532 1.463 . S
C1529 C1534 1.350 . S
C1529 N1537 1.427 . S
C1530 H1521 0.930 . S
C1530 C1528 1.378 . S
C1530 C1531 1.367 . S
C1531 C1530 1.367 . S
C1531 C1533 1.433 . S
C1532 C1528 1.350 . S
C1532 C1529 1.463 . S
C1532 N1536 1.427 . S
C1533 H1523 0.929 . S
C1533 C1531 1.433 . S
C1533 N1536 1.384 . S
C1534 H1525 0.929 . S
C1534 C1526 1.378 . S
C1534 C1529 1.350 . S
C1535 H1522 0.929 . S
C1535 C1527 1.433 . S
C1535 N1537 1.384 . S
N1536 C1532 1.427 . S
N1536 C1533 1.384 . S
N1537 C1529 1.427 . S
N1537 C1535 1.384 . S
H1538 C1544 0.930 . S
H1539 C1548 0.930 . S
H1540 C1553 0.929 . S
H1541 C1551 0.929 . S
H1542 C1546 0.929 . S
H1543 C1552 0.929 . S
C1544 H1538 0.930 . S
C1544 C1545 1.367 . S
C1544 C1552 1.378 . S
C1545 C1544 1.367 . S
C1545 C1553 1.433 . S
C1546 H1542 0.929 . S
C1546 C1548 1.378 . S
C1546 C1550 1.350 . S
C1547 C1550 1.463 . S
C1547 C1552 1.350 . S
C1547 N1555 1.427 . S
C1548 H1539 0.930 . S
C1548 C1546 1.378 . S
C1548 C1549 1.367 . S
C1549 C1548 1.367 . S
C1549 C1551 1.433 . S
C1550 C1546 1.350 . S
C1550 C1547 1.463 . S
C1550 N1554 1.427 . S
C1551 H1541 0.929 . S
C1551 C1549 1.433 . S
C1551 N1554 1.384 . S
C1552 H1543 0.929 . S
C1552 C1544 1.378 . S
C1552 C1547 1.350 . S
C1553 H1540 0.929 . S
C1553 C1545 1.433 . S
C1553 N1555 1.384 . S
N1554 C1550 1.427 . S
N1554 C1551 1.384 . S
N1555 C1547 1.427 . S
N1555 C1553 1.384 . S
H1556 C1562 0.930 . S
H1557 C1566 0.930 . S
H1558 C1571 0.929 . S
H1559 C1569 0.929 . S
H1560 C1564 0.929 . S
H1561 C1570 0.929 . S
C1562 H1556 0.930 . S
C1562 C1563 1.367 . S
C1562 C1570 1.378 . S
C1563 C1562 1.367 . S
C1563 C1571 1.433 . S
C1564 H1560 0.929 . S
C1564 C1566 1.378 . S
C1564 C1568 1.350 . S
C1565 C1568 1.463 . S
C1565 C1570 1.350 . S
C1565 N1573 1.427 . S
C1566 H1557 0.930 . S
C1566 C1564 1.378 . S
C1566 C1567 1.367 . S
C1567 C1566 1.367 . S
C1567 C1569 1.433 . S
C1568 C1564 1.350 . S
C1568 C1565 1.463 . S
C1568 N1572 1.427 . S
C1569 H1559 0.929 . S
C1569 C1567 1.433 . S
C1569 N1572 1.384 . S
C1570 H1561 0.929 . S
C1570 C1562 1.378 . S
C1570 C1565 1.350 . S
C1571 H1558 0.929 . S
C1571 C1563 1.433 . S
C1571 N1573 1.384 . S
N1572 C1568 1.427 . S
N1572 C1569 1.384 . S
N1573 C1565 1.427 . S
N1573 C1571 1.384 . S
H1574 C1580 0.930 . S
H1575 C1584 0.930 . S
H1576 C1589 0.929 . S
H1577 C1587 0.929 . S
H1578 C1582 0.929 . S
H1579 C1588 0.929 . S
C1580 H1574 0.930 . S
C1580 C1581 1.367 . S
C1580 C1588 1.378 . S
C1581 C1580 1.367 . S
C1581 C1589 1.433 . S
C1582 H1578 0.929 . S
C1582 C1584 1.378 . S
C1582 C1586 1.350 . S
C1583 C1586 1.463 . S
C1583 C1588 1.350 . S
C1583 N1591 1.427 . S
C1584 H1575 0.930 . S
C1584 C1582 1.378 . S
C1584 C1585 1.367 . S
C1585 C1584 1.367 . S
C1585 C1587 1.433 . S
C1586 C1582 1.350 . S
C1586 C1583 1.463 . S
C1586 N1590 1.427 . S
C1587 H1577 0.929 . S
C1587 C1585 1.433 . S
C1587 N1590 1.384 . S
C1588 H1579 0.929 . S
C1588 C1580 1.378 . S
C1588 C1583 1.350 . S
C1589 H1576 0.929 . S
C1589 C1581 1.433 . S
C1589 N1591 1.384 . S
N1590 C1586 1.427 . S
N1590 C1587 1.384 . S
N1591 C1583 1.427 . S
N1591 C1589 1.384 . S
H1592 C1598 0.930 . S
H1593 C1602 0.930 . S
H1594 C1607 0.929 . S
H1595 C1605 0.929 . S
H1596 C1600 0.929 . S
H1597 C1606 0.929 . S
C1598 H1592 0.930 . S
C1598 C1599 1.367 . S
C1598 C1606 1.378 . S
C1599 C1598 1.367 . S
C1599 C1607 1.433 . S
C1600 H1596 0.929 . S
C1600 C1602 1.378 . S
C1600 C1604 1.350 . S
C1601 C1604 1.463 . S
C1601 C1606 1.350 . S
C1601 N1609 1.427 . S
C1602 H1593 0.930 . S
C1602 C1600 1.378 . S
C1602 C1603 1.367 . S
C1603 C1602 1.367 . S
C1603 C1605 1.433 . S
C1604 C1600 1.350 . S
C1604 C1601 1.463 . S
C1604 N1608 1.427 . S
C1605 H1595 0.929 . S
C1605 C1603 1.433 . S
C1605 N1608 1.384 . S
C1606 H1597 0.929 . S
C1606 C1598 1.378 . S
C1606 C1601 1.350 . S
C1607 H1594 0.929 . S
C1607 C1599 1.433 . S
C1607 N1609 1.384 . S
N1608 C1604 1.427 . S
N1608 C1605 1.384 . S
N1609 C1601 1.427 . S
N1609 C1607 1.384 . S
H1610 C1616 0.930 . S
H1611 C1620 0.930 . S
H1612 C1625 0.929 . S
H1613 C1623 0.929 . S
H1614 C1618 0.929 . S
H1615 C1624 0.929 . S
C1616 H1610 0.930 . S
C1616 C1617 1.367 . S
C1616 C1624 1.378 . S
C1617 C1616 1.367 . S
C1617 C1625 1.433 . S
C1618 H1614 0.929 . S
C1618 C1620 1.378 . S
C1618 C1622 1.350 . S
C1619 C1622 1.463 . S
C1619 C1624 1.350 . S
C1619 N1627 1.427 . S
C1620 H1611 0.930 . S
C1620 C1618 1.378 . S
C1620 C1621 1.367 . S
C1621 C1620 1.367 . S
C1621 C1623 1.433 . S
C1622 C1618 1.350 . S
C1622 C1619 1.463 . S
C1622 N1626 1.427 . S
C1623 H1613 0.929 . S
C1623 C1621 1.433 . S
C1623 N1626 1.384 . S
C1624 H1615 0.929 . S
C1624 C1616 1.378 . S
C1624 C1619 1.350 . S
C1625 H1612 0.929 . S
C1625 C1617 1.433 . S
C1625 N1627 1.384 . S
N1626 C1622 1.427 . S
N1626 C1623 1.384 . S
N1627 C1619 1.427 . S
N1627 C1625 1.384 . S
H1628 C1634 0.930 . S
H1629 C1638 0.930 . S
H1630 C1643 0.929 . S
H1631 C1641 0.929 . S
H1632 C1636 0.929 . S
H1633 C1642 0.929 . S
C1634 H1628 0.930 . S
C1634 C1635 1.367 . S
C1634 C1642 1.378 . S
C1635 C1634 1.367 . S
C1635 C1643 1.433 . S
C1636 H1632 0.929 . S
C1636 C1638 1.378 . S
C1636 C1640 1.350 . S
C1637 C1640 1.463 . S
C1637 C1642 1.350 . S
C1637 N1645 1.427 . S
C1638 H1629 0.930 . S
C1638 C1636 1.378 . S
C1638 C1639 1.367 . S
C1639 C1638 1.367 . S
C1639 C1641 1.433 . S
C1640 C1636 1.350 . S
C1640 C1637 1.463 . S
C1640 N1644 1.427 . S
C1641 H1631 0.929 . S
C1641 C1639 1.433 . S
C1641 N1644 1.384 . S
C1642 H1633 0.929 . S
C1642 C1634 1.378 . S
C1642 C1637 1.350 . S
C1643 H1630 0.929 . S
C1643 C1635 1.433 . S
C1643 N1645 1.384 . S
N1644 C1640 1.427 . S
N1644 C1641 1.384 . S
N1645 C1637 1.427 . S
N1645 C1643 1.384 . S
H1646 C1652 0.930 . S
H1647 C1656 0.930 . S
H1648 C1661 0.929 . S
H1649 C1659 0.929 . S
H1650 C1654 0.929 . S
H1651 C1660 0.929 . S
C1652 H1646 0.930 . S
C1652 C1653 1.367 . S
C1652 C1660 1.378 . S
C1653 C1652 1.367 . S
C1653 C1661 1.433 . S
C1654 H1650 0.929 . S
C1654 C1656 1.378 . S
C1654 C1658 1.350 . S
C1655 C1658 1.463 . S
C1655 C1660 1.350 . S
C1655 N1663 1.427 . S
C1656 H1647 0.930 . S
C1656 C1654 1.378 . S
C1656 C1657 1.367 . S
C1657 C1656 1.367 . S
C1657 C1659 1.433 . S
C1658 C1654 1.350 . S
C1658 C1655 1.463 . S
C1658 N1662 1.427 . S
C1659 H1649 0.929 . S
C1659 C1657 1.433 . S
C1659 N1662 1.384 . S
C1660 H1651 0.929 . S
C1660 C1652 1.378 . S
C1660 C1655 1.350 . S
C1661 H1648 0.929 . S
C1661 C1653 1.433 . S
C1661 N1663 1.384 . S
N1662 C1658 1.427 . S
N1662 C1659 1.384 . S
N1663 C1655 1.427 . S
N1663 C1661 1.384 . S
H1664 C1670 0.930 . S
H1665 C1674 0.930 . S
H1666 C1679 0.929 . S
H1667 C1677 0.929 . S
H1668 C1672 0.929 1_545 S
H1669 C1678 0.929 1_565 S
C1670 H1664 0.930 . S
C1670 C1671 1.367 . S
C1670 C1678 1.378 . S
C1671 C1670 1.367 . S
C1671 C1679 1.433 . S
C1672 H1668 0.929 1_565 S
C1672 C1674 1.378 . S
C1672 C1676 1.350 . S
C1673 C1676 1.463 1_545 S
C1673 C1678 1.350 . S
C1673 N1681 1.427 . S
C1674 H1665 0.930 . S
C1674 C1672 1.378 . S
C1674 C1675 1.367 . S
C1675 C1674 1.367 . S
C1675 C1677 1.433 . S
C1676 C1672 1.350 . S
C1676 C1673 1.463 1_565 S
C1676 N1680 1.427 . S
C1677 H1667 0.929 . S
C1677 C1675 1.433 . S
C1677 N1680 1.384 . S
C1678 H1669 0.929 1_545 S
C1678 C1670 1.378 . S
C1678 C1673 1.350 . S
C1679 H1666 0.929 . S
C1679 C1671 1.433 . S
C1679 N1681 1.384 . S
N1680 C1676 1.427 . S
N1680 C1677 1.384 . S
N1681 C1673 1.427 . S
N1681 C1679 1.384 . S
H1682 C1688 0.930 . S
H1683 C1692 0.930 . S
H1684 C1697 0.929 . S
H1685 C1695 0.929 . S
H1686 C1690 0.929 . S
H1687 C1696 0.929 . S
C1688 H1682 0.930 . S
C1688 C1689 1.367 . S
C1688 C1696 1.378 . S
C1689 C1688 1.367 . S
C1689 C1697 1.433 . S
C1690 H1686 0.929 . S
C1690 C1692 1.378 . S
C1690 C1694 1.350 . S
C1691 C1694 1.463 . S
C1691 C1696 1.350 . S
C1691 N1699 1.427 . S
C1692 H1683 0.930 . S
C1692 C1690 1.378 . S
C1692 C1693 1.367 . S
C1693 C1692 1.367 . S
C1693 C1695 1.433 . S
C1694 C1690 1.350 . S
C1694 C1691 1.463 . S
C1694 N1698 1.427 . S
C1695 H1685 0.929 . S
C1695 C1693 1.433 . S
C1695 N1698 1.384 . S
C1696 H1687 0.929 . S
C1696 C1688 1.378 . S
C1696 C1691 1.350 . S
C1697 H1684 0.929 . S
C1697 C1689 1.433 . S
C1697 N1699 1.384 . S
N1698 C1694 1.427 . S
N1698 C1695 1.384 . S
N1699 C1691 1.427 . S
N1699 C1697 1.384 . S
H1700 C1706 0.930 . S
H1701 C1710 0.930 . S
H1702 C1715 0.929 . S
H1703 C1713 0.929 . S
H1704 C1708 0.929 1_545 S
H1705 C1714 0.929 1_565 S
C1706 H1700 0.930 . S
C1706 C1707 1.367 . S
C1706 C1714 1.378 . S
C1707 C1706 1.367 . S
C1707 C1715 1.433 . S
C1708 H1704 0.929 1_565 S
C1708 C1710 1.378 . S
C1708 C1712 1.350 . S
C1709 C1712 1.463 1_545 S
C1709 C1714 1.350 . S
C1709 N1717 1.427 . S
C1710 H1701 0.930 . S
C1710 C1708 1.378 . S
C1710 C1711 1.367 . S
C1711 C1710 1.367 . S
C1711 C1713 1.433 . S
C1712 C1708 1.350 . S
C1712 C1709 1.463 1_565 S
C1712 N1716 1.427 . S
C1713 H1703 0.929 . S
C1713 C1711 1.433 . S
C1713 N1716 1.384 . S
C1714 H1705 0.929 1_545 S
C1714 C1706 1.378 . S
C1714 C1709 1.350 . S
C1715 H1702 0.929 . S
C1715 C1707 1.433 . S
C1715 N1717 1.384 . S
N1716 C1712 1.427 . S
N1716 C1713 1.384 . S
N1717 C1709 1.427 . S
N1717 C1715 1.384 . S
H1718 C1724 0.930 . S
H1719 C1728 0.930 . S
H1720 C1733 0.929 . S
H1721 C1731 0.929 . S
H1722 C1726 0.929 . S
H1723 C1732 0.929 . S
C1724 H1718 0.930 . S
C1724 C1725 1.367 . S
C1724 C1732 1.378 . S
C1725 C1724 1.367 . S
C1725 C1733 1.433 . S
C1726 H1722 0.929 . S
C1726 C1728 1.378 . S
C1726 C1730 1.350 . S
C1727 C1730 1.463 1_554 S
C1727 C1732 1.350 . S
C1727 N1735 1.427 . S
C1728 H1719 0.930 . S
C1728 C1726 1.378 . S
C1728 C1729 1.367 . S
C1729 C1728 1.367 . S
C1729 C1731 1.433 . S
C1730 C1726 1.350 . S
C1730 C1727 1.463 1_556 S
C1730 N1734 1.427 . S
C1731 H1721 0.929 . S
C1731 C1729 1.433 . S
C1731 N1734 1.384 . S
C1732 H1723 0.929 . S
C1732 C1724 1.378 . S
C1732 C1727 1.350 . S
C1733 H1720 0.929 . S
C1733 C1725 1.433 . S
C1733 N1735 1.384 . S
N1734 C1730 1.427 . S
N1734 C1731 1.384 . S
N1735 C1727 1.427 . S
N1735 C1733 1.384 . S
H1736 C1742 0.930 . S
H1737 C1746 0.930 . S
H1738 C1751 0.929 . S
H1739 C1749 0.929 . S
H1740 C1744 0.929 1_565 S
H1741 C1750 0.929 1_545 S
C1742 H1736 0.930 . S
C1742 C1743 1.367 . S
C1742 C1750 1.378 . S
C1743 C1742 1.367 . S
C1743 C1751 1.433 . S
C1744 H1740 0.929 1_545 S
C1744 C1746 1.378 . S
C1744 C1748 1.350 . S
C1745 C1748 1.463 1_565 S
C1745 C1750 1.350 . S
C1745 N1753 1.427 . S
C1746 H1737 0.930 . S
C1746 C1744 1.378 . S
C1746 C1747 1.367 . S
C1747 C1746 1.367 . S
C1747 C1749 1.433 . S
C1748 C1744 1.350 . S
C1748 C1745 1.463 1_545 S
C1748 N1752 1.427 . S
C1749 H1739 0.929 . S
C1749 C1747 1.433 . S
C1749 N1752 1.384 . S
C1750 H1741 0.929 1_565 S
C1750 C1742 1.378 . S
C1750 C1745 1.350 . S
C1751 H1738 0.929 . S
C1751 C1743 1.433 . S
C1751 N1753 1.384 . S
N1752 C1748 1.427 . S
N1752 C1749 1.384 . S
N1753 C1745 1.427 . S
N1753 C1751 1.384 . S
H1754 C1760 0.930 . S
H1755 C1764 0.930 . S
H1756 C1769 0.929 . S
H1757 C1767 0.929 . S
H1758 C1762 0.929 . S
H1759 C1768 0.929 . S
C1760 H1754 0.930 . S
C1760 C1761 1.367 . S
C1760 C1768 1.378 . S
C1761 C1760 1.367 . S
C1761 C1769 1.433 . S
C1762 H1758 0.929 . S
C1762 C1764 1.378 . S
C1762 C1766 1.350 . S
C1763 C1766 1.463 . S
C1763 C1768 1.350 . S
C1763 N1771 1.427 . S
C1764 H1755 0.930 . S
C1764 C1762 1.378 . S
C1764 C1765 1.367 . S
C1765 C1764 1.367 . S
C1765 C1767 1.433 . S
C1766 C1762 1.350 . S
C1766 C1763 1.463 . S
C1766 N1770 1.427 . S
C1767 H1757 0.929 . S
C1767 C1765 1.433 . S
C1767 N1770 1.384 . S
C1768 H1759 0.929 . S
C1768 C1760 1.378 . S
C1768 C1763 1.350 . S
C1769 H1756 0.929 . S
C1769 C1761 1.433 . S
C1769 N1771 1.384 . S
N1770 C1766 1.427 . S
N1770 C1767 1.384 . S
N1771 C1763 1.427 . S
N1771 C1769 1.384 . S
H1772 C1778 0.930 . S
H1773 C1782 0.930 . S
H1774 C1787 0.929 . S
H1775 C1785 0.929 . S
H1776 C1780 0.929 . S
H1777 C1786 0.929 . S
C1778 H1772 0.930 . S
C1778 C1779 1.367 . S
C1778 C1786 1.378 . S
C1779 C1778 1.367 . S
C1779 C1787 1.433 . S
C1780 H1776 0.929 . S
C1780 C1782 1.378 . S
C1780 C1784 1.350 . S
C1781 C1784 1.463 1_545 S
C1781 C1786 1.350 . S
C1781 N1789 1.427 . S
C1782 H1773 0.930 . S
C1782 C1780 1.378 . S
C1782 C1783 1.367 . S
C1783 C1782 1.367 . S
C1783 C1785 1.433 . S
C1784 C1780 1.350 . S
C1784 C1781 1.463 1_565 S
C1784 N1788 1.427 . S
C1785 H1775 0.929 . S
C1785 C1783 1.433 . S
C1785 N1788 1.384 . S
C1786 H1777 0.929 . S
C1786 C1778 1.378 . S
C1786 C1781 1.350 . S
C1787 H1774 0.929 . S
C1787 C1779 1.433 . S
C1787 N1789 1.384 . S
N1788 C1784 1.427 . S
N1788 C1785 1.384 . S
N1789 C1781 1.427 . S
N1789 C1787 1.384 . S
H1790 C1796 0.930 . S
H1791 C1800 0.930 . S
H1792 C1805 0.929 . S
H1793 C1803 0.929 . S
H1794 C1798 0.929 . S
H1795 C1804 0.929 . S
C1796 H1790 0.930 . S
C1796 C1797 1.367 . S
C1796 C1804 1.378 . S
C1797 C1796 1.367 . S
C1797 C1805 1.433 . S
C1798 H1794 0.929 . S
C1798 C1800 1.378 . S
C1798 C1802 1.350 . S
C1799 C1802 1.463 1_556 S
C1799 C1804 1.350 . S
C1799 N1807 1.427 . S
C1800 H1791 0.930 . S
C1800 C1798 1.378 . S
C1800 C1801 1.367 . S
C1801 C1800 1.367 . S
C1801 C1803 1.433 . S
C1802 C1798 1.350 . S
C1802 C1799 1.463 1_554 S
C1802 N1806 1.427 . S
C1803 H1793 0.929 . S
C1803 C1801 1.433 . S
C1803 N1806 1.384 . S
C1804 H1795 0.929 . S
C1804 C1796 1.378 . S
C1804 C1799 1.350 . S
C1805 H1792 0.929 . S
C1805 C1797 1.433 . S
C1805 N1807 1.384 . S
N1806 C1802 1.427 . S
N1806 C1803 1.384 . S
N1807 C1799 1.427 . S
N1807 C1805 1.384 . S
H1808 C1814 0.930 . S
H1809 C1818 0.930 . S
H1810 C1823 0.929 . S
H1811 C1821 0.929 . S
H1812 C1816 0.929 . S
H1813 C1822 0.929 . S
C1814 H1808 0.930 . S
C1814 C1815 1.367 . S
C1814 C1822 1.378 . S
C1815 C1814 1.367 . S
C1815 C1823 1.433 . S
C1816 H1812 0.929 . S
C1816 C1818 1.378 . S
C1816 C1820 1.350 . S
C1817 C1820 1.463 . S
C1817 C1822 1.350 . S
C1817 N1825 1.427 . S
C1818 H1809 0.930 . S
C1818 C1816 1.378 . S
C1818 C1819 1.367 . S
C1819 C1818 1.367 . S
C1819 C1821 1.433 . S
C1820 C1816 1.350 . S
C1820 C1817 1.463 . S
C1820 N1824 1.427 . S
C1821 H1811 0.929 . S
C1821 C1819 1.433 . S
C1821 N1824 1.384 . S
C1822 H1813 0.929 . S
C1822 C1814 1.378 . S
C1822 C1817 1.350 . S
C1823 H1810 0.929 . S
C1823 C1815 1.433 . S
C1823 N1825 1.384 . S
N1824 C1820 1.427 . S
N1824 C1821 1.384 . S
N1825 C1817 1.427 . S
N1825 C1823 1.384 . S
H1826 C1832 0.930 . S
H1827 C1836 0.930 . S
H1828 C1841 0.929 . S
H1829 C1839 0.929 . S
H1830 C1834 0.929 . S
H1831 C1840 0.929 . S
C1832 H1826 0.930 . S
C1832 C1833 1.367 . S
C1832 C1840 1.378 . S
C1833 C1832 1.367 . S
C1833 C1841 1.433 . S
C1834 H1830 0.929 . S
C1834 C1836 1.378 . S
C1834 C1838 1.350 . S
C1835 C1838 1.463 1_556 S
C1835 C1840 1.350 . S
C1835 N1843 1.427 . S
C1836 H1827 0.930 . S
C1836 C1834 1.378 . S
C1836 C1837 1.367 . S
C1837 C1836 1.367 . S
C1837 C1839 1.433 . S
C1838 C1834 1.350 . S
C1838 C1835 1.463 1_554 S
C1838 N1842 1.427 . S
C1839 H1829 0.929 . S
C1839 C1837 1.433 . S
C1839 N1842 1.384 . S
C1840 H1831 0.929 . S
C1840 C1832 1.378 . S
C1840 C1835 1.350 . S
C1841 H1828 0.929 . S
C1841 C1833 1.433 . S
C1841 N1843 1.384 . S
N1842 C1838 1.427 . S
N1842 C1839 1.384 . S
N1843 C1835 1.427 . S
N1843 C1841 1.384 . S
H1844 C1850 0.930 . S
H1845 C1854 0.930 . S
H1846 C1859 0.929 . S
H1847 C1857 0.929 . S
H1848 C1852 0.929 . S
H1849 C1858 0.929 . S
C1850 H1844 0.930 . S
C1850 C1851 1.367 . S
C1850 C1858 1.378 . S
C1851 C1850 1.367 . S
C1851 C1859 1.433 . S
C1852 H1848 0.929 . S
C1852 C1854 1.378 . S
C1852 C1856 1.350 . S
C1853 C1856 1.463 . S
C1853 C1858 1.350 . S
C1853 N1861 1.427 . S
C1854 H1845 0.930 . S
C1854 C1852 1.378 . S
C1854 C1855 1.367 . S
C1855 C1854 1.367 . S
C1855 C1857 1.433 . S
C1856 C1852 1.350 . S
C1856 C1853 1.463 . S
C1856 N1860 1.427 . S
C1857 H1847 0.929 . S
C1857 C1855 1.433 . S
C1857 N1860 1.384 . S
C1858 H1849 0.929 . S
C1858 C1850 1.378 . S
C1858 C1853 1.350 . S
C1859 H1846 0.929 . S
C1859 C1851 1.433 . S
C1859 N1861 1.384 . S
N1860 C1856 1.427 . S
N1860 C1857 1.384 . S
N1861 C1853 1.427 . S
N1861 C1859 1.384 . S
H1862 C1868 0.930 . S
H1863 C1872 0.930 . S
H1864 C1877 0.929 . S
H1865 C1875 0.929 . S
H1866 C1870 0.929 . S
H1867 C1876 0.929 . S
C1868 H1862 0.930 . S
C1868 C1869 1.367 . S
C1868 C1876 1.378 . S
C1869 C1868 1.367 . S
C1869 C1877 1.433 . S
C1870 H1866 0.929 . S
C1870 C1872 1.378 . S
C1870 C1874 1.350 . S
C1871 C1874 1.463 . S
C1871 C1876 1.350 . S
C1871 N1879 1.427 . S
C1872 H1863 0.930 . S
C1872 C1870 1.378 . S
C1872 C1873 1.367 . S
C1873 C1872 1.367 . S
C1873 C1875 1.433 . S
C1874 C1870 1.350 . S
C1874 C1871 1.463 . S
C1874 N1878 1.427 . S
C1875 H1865 0.929 . S
C1875 C1873 1.433 . S
C1875 N1878 1.384 . S
C1876 H1867 0.929 . S
C1876 C1868 1.378 . S
C1876 C1871 1.350 . S
C1877 H1864 0.929 . S
C1877 C1869 1.433 . S
C1877 N1879 1.384 . S
N1878 C1874 1.427 . S
N1878 C1875 1.384 . S
N1879 C1871 1.427 . S
N1879 C1877 1.384 . S
H1880 C1886 0.930 . S
H1881 C1890 0.930 . S
H1882 C1895 0.929 . S
H1883 C1893 0.929 . S
H1884 C1888 0.929 . S
H1885 C1894 0.929 . S
C1886 H1880 0.930 . S
C1886 C1887 1.367 . S
C1886 C1894 1.378 . S
C1887 C1886 1.367 . S
C1887 C1895 1.433 . S
C1888 H1884 0.929 . S
C1888 C1890 1.378 . S
C1888 C1892 1.350 . S
C1889 C1892 1.463 . S
C1889 C1894 1.350 . S
C1889 N1897 1.427 . S
C1890 H1881 0.930 . S
C1890 C1888 1.378 . S
C1890 C1891 1.367 . S
C1891 C1890 1.367 . S
C1891 C1893 1.433 . S
C1892 C1888 1.350 . S
C1892 C1889 1.463 . S
C1892 N1896 1.427 . S
C1893 H1883 0.929 . S
C1893 C1891 1.433 . S
C1893 N1896 1.384 . S
C1894 H1885 0.929 . S
C1894 C1886 1.378 . S
C1894 C1889 1.350 . S
C1895 H1882 0.929 . S
C1895 C1887 1.433 . S
C1895 N1897 1.384 . S
N1896 C1892 1.427 . S
N1896 C1893 1.384 . S
N1897 C1889 1.427 . S
N1897 C1895 1.384 . S
H1898 C1904 0.930 . S
H1899 C1908 0.930 . S
H1900 C1913 0.929 . S
H1901 C1911 0.929 . S
H1902 C1906 0.929 1_556 S
H1903 C1912 0.929 1_554 S
C1904 H1898 0.930 . S
C1904 C1905 1.367 . S
C1904 C1912 1.378 . S
C1905 C1904 1.367 . S
C1905 C1913 1.433 . S
C1906 H1902 0.929 1_554 S
C1906 C1908 1.378 . S
C1906 C1910 1.350 . S
C1907 C1910 1.463 1_556 S
C1907 C1912 1.350 . S
C1907 N1915 1.427 . S
C1908 H1899 0.930 . S
C1908 C1906 1.378 . S
C1908 C1909 1.367 . S
C1909 C1908 1.367 . S
C1909 C1911 1.433 . S
C1910 C1906 1.350 . S
C1910 C1907 1.463 1_554 S
C1910 N1914 1.427 . S
C1911 H1901 0.929 . S
C1911 C1909 1.433 . S
C1911 N1914 1.384 . S
C1912 H1903 0.929 1_556 S
C1912 C1904 1.378 . S
C1912 C1907 1.350 . S
C1913 H1900 0.929 . S
C1913 C1905 1.433 . S
C1913 N1915 1.384 . S
N1914 C1910 1.427 . S
N1914 C1911 1.384 . S
N1915 C1907 1.427 . S
N1915 C1913 1.384 . S
H1916 C1922 0.930 . S
H1917 C1926 0.930 . S
H1918 C1931 0.929 . S
H1919 C1929 0.929 . S
H1920 C1924 0.929 . S
H1921 C1930 0.929 . S
C1922 H1916 0.930 . S
C1922 C1923 1.367 . S
C1922 C1930 1.378 . S
C1923 C1922 1.367 . S
C1923 C1931 1.433 . S
C1924 H1920 0.929 . S
C1924 C1926 1.378 . S
C1924 C1928 1.350 . S
C1925 C1928 1.463 . S
C1925 C1930 1.350 . S
C1925 N1933 1.427 . S
C1926 H1917 0.930 . S
C1926 C1924 1.378 . S
C1926 C1927 1.367 . S
C1927 C1926 1.367 . S
C1927 C1929 1.433 . S
C1928 C1924 1.350 . S
C1928 C1925 1.463 . S
C1928 N1932 1.427 . S
C1929 H1919 0.929 . S
C1929 C1927 1.433 . S
C1929 N1932 1.384 . S
C1930 H1921 0.929 . S
C1930 C1922 1.378 . S
C1930 C1925 1.350 . S
C1931 H1918 0.929 . S
C1931 C1923 1.433 . S
C1931 N1933 1.384 . S
N1932 C1928 1.427 . S
N1932 C1929 1.384 . S
N1933 C1925 1.427 . S
N1933 C1931 1.384 . S
H1934 C1940 0.930 . S
H1935 C1944 0.930 . S
H1936 C1949 0.929 . S
H1937 C1947 0.929 . S
H1938 C1942 0.929 . S
H1939 C1948 0.929 . S
C1940 H1934 0.930 . S
C1940 C1941 1.367 . S
C1940 C1948 1.378 . S
C1941 C1940 1.367 . S
C1941 C1949 1.433 . S
C1942 H1938 0.929 . S
C1942 C1944 1.378 . S
C1942 C1946 1.350 . S
C1943 C1946 1.463 . S
C1943 C1948 1.350 . S
C1943 N1951 1.427 . S
C1944 H1935 0.930 . S
C1944 C1942 1.378 . S
C1944 C1945 1.367 . S
C1945 C1944 1.367 . S
C1945 C1947 1.433 . S
C1946 C1942 1.350 . S
C1946 C1943 1.463 . S
C1946 N1950 1.427 . S
C1947 H1937 0.929 . S
C1947 C1945 1.433 . S
C1947 N1950 1.384 . S
C1948 H1939 0.929 . S
C1948 C1940 1.378 . S
C1948 C1943 1.350 . S
C1949 H1936 0.929 . S
C1949 C1941 1.433 . S
C1949 N1951 1.384 . S
N1950 C1946 1.427 . S
N1950 C1947 1.384 . S
N1951 C1943 1.427 . S
N1951 C1949 1.384 . S
H1952 C1958 0.930 1_565 S
H1953 C1962 0.930 . S
H1954 C1967 0.929 . S
H1955 C1965 0.929 . S
H1956 C1960 0.929 . S
H1957 C1966 0.929 . S
C1958 H1952 0.930 1_545 S
C1958 C1959 1.367 . S
C1958 C1966 1.378 . S
C1959 C1958 1.367 . S
C1959 C1967 1.433 . S
C1960 H1956 0.929 . S
C1960 C1962 1.378 . S
C1960 C1964 1.350 . S
C1961 C1964 1.463 . S
C1961 C1966 1.350 . S
C1961 N1969 1.427 . S
C1962 H1953 0.930 . S
C1962 C1960 1.378 . S
C1962 C1963 1.367 . S
C1963 C1962 1.367 . S
C1963 C1965 1.433 . S
C1964 C1960 1.350 . S
C1964 C1961 1.463 . S
C1964 N1968 1.427 . S
C1965 H1955 0.929 . S
C1965 C1963 1.433 . S
C1965 N1968 1.384 . S
C1966 H1957 0.929 . S
C1966 C1958 1.378 . S
C1966 C1961 1.350 . S
C1967 H1954 0.929 . S
C1967 C1959 1.433 . S
C1967 N1969 1.384 . S
N1968 C1964 1.427 . S
N1968 C1965 1.384 . S
N1969 C1961 1.427 . S
N1969 C1967 1.384 . S
H1970 C1976 0.930 . S
H1971 C1980 0.930 . S
H1972 C1985 0.929 . S
H1973 C1983 0.929 . S
H1974 C1978 0.929 . S
H1975 C1984 0.929 . S
C1976 H1970 0.930 . S
C1976 C1977 1.367 . S
C1976 C1984 1.378 . S
C1977 C1976 1.367 . S
C1977 C1985 1.433 . S
C1978 H1974 0.929 . S
C1978 C1980 1.378 . S
C1978 C1982 1.350 . S
C1979 C1982 1.463 . S
C1979 C1984 1.350 . S
C1979 N1987 1.427 . S
C1980 H1971 0.930 . S
C1980 C1978 1.378 . S
C1980 C1981 1.367 . S
C1981 C1980 1.367 . S
C1981 C1983 1.433 . S
C1982 C1978 1.350 . S
C1982 C1979 1.463 . S
C1982 N1986 1.427 . S
C1983 H1973 0.929 . S
C1983 C1981 1.433 . S
C1983 N1986 1.384 . S
C1984 H1975 0.929 . S
C1984 C1976 1.378 . S
C1984 C1979 1.350 . S
C1985 H1972 0.929 . S
C1985 C1977 1.433 . S
C1985 N1987 1.384 . S
N1986 C1982 1.427 . S
N1986 C1983 1.384 . S
N1987 C1979 1.427 . S
N1987 C1985 1.384 . S
H1988 C1994 0.930 . S
H1989 C1998 0.930 . S
H1990 C2003 0.929 1_545 S
H1991 C2001 0.929 . S
H1992 C1996 0.929 . S
H1993 C2002 0.929 . S
C1994 H1988 0.930 . S
C1994 C1995 1.367 . S
C1994 C2002 1.378 . S
C1995 C1994 1.367 . S
C1995 C2003 1.433 . S
C1996 H1992 0.929 . S
C1996 C1998 1.378 . S
C1996 C2000 1.350 . S
C1997 C2000 1.463 . S
C1997 C2002 1.350 . S
C1997 N2005 1.427 . S
C1998 H1989 0.930 . S
C1998 C1996 1.378 . S
C1998 C1999 1.367 . S
C1999 C1998 1.367 . S
C1999 C2001 1.433 . S
C2000 C1996 1.350 . S
C2000 C1997 1.463 . S
C2000 N2004 1.427 . S
C2001 H1991 0.929 . S
C2001 C1999 1.433 . S
C2001 N2004 1.384 . S
C2002 H1993 0.929 . S
C2002 C1994 1.378 . S
C2002 C1997 1.350 . S
C2003 H1990 0.929 1_565 S
C2003 C1995 1.433 . S
C2003 N2005 1.384 . S
N2004 C2000 1.427 . S
N2004 C2001 1.384 . S
N2005 C1997 1.427 . S
N2005 C2003 1.384 . S
H2006 C2012 0.930 . S
H2007 C2016 0.930 . S
H2008 C2021 0.929 . S
H2009 C2019 0.929 . S
H2010 C2014 0.929 . S
H2011 C2020 0.929 . S
C2012 H2006 0.930 . S
C2012 C2013 1.367 . S
C2012 C2020 1.378 . S
C2013 C2012 1.367 . S
C2013 C2021 1.433 . S
C2014 H2010 0.929 . S
C2014 C2016 1.378 . S
C2014 C2018 1.350 . S
C2015 C2018 1.463 . S
C2015 C2020 1.350 . S
C2015 N2023 1.427 . S
C2016 H2007 0.930 . S
C2016 C2014 1.378 . S
C2016 C2017 1.367 . S
C2017 C2016 1.367 . S
C2017 C2019 1.433 . S
C2018 C2014 1.350 . S
C2018 C2015 1.463 . S
C2018 N2022 1.427 . S
C2019 H2009 0.929 . S
C2019 C2017 1.433 . S
C2019 N2022 1.384 . S
C2020 H2011 0.929 . S
C2020 C2012 1.378 . S
C2020 C2015 1.350 . S
C2021 H2008 0.929 . S
C2021 C2013 1.433 . S
C2021 N2023 1.384 . S
N2022 C2018 1.427 . S
N2022 C2019 1.384 . S
N2023 C2015 1.427 . S
N2023 C2021 1.384 . S
H2024 C2030 0.930 . S
H2025 C2034 0.930 . S
H2026 C2039 0.929 1_545 S
H2027 C2037 0.929 . S
H2028 C2032 0.929 . S
H2029 C2038 0.929 . S
C2030 H2024 0.930 . S
C2030 C2031 1.367 . S
C2030 C2038 1.378 . S
C2031 C2030 1.367 . S
C2031 C2039 1.433 . S
C2032 H2028 0.929 . S
C2032 C2034 1.378 . S
C2032 C2036 1.350 . S
C2033 C2036 1.463 . S
C2033 C2038 1.350 . S
C2033 N2041 1.427 . S
C2034 H2025 0.930 . S
C2034 C2032 1.378 . S
C2034 C2035 1.367 . S
C2035 C2034 1.367 . S
C2035 C2037 1.433 . S
C2036 C2032 1.350 . S
C2036 C2033 1.463 . S
C2036 N2040 1.427 . S
C2037 H2027 0.929 . S
C2037 C2035 1.433 . S
C2037 N2040 1.384 . S
C2038 H2029 0.929 . S
C2038 C2030 1.378 . S
C2038 C2033 1.350 . S
C2039 H2026 0.929 1_565 S
C2039 C2031 1.433 . S
C2039 N2041 1.384 . S
N2040 C2036 1.427 . S
N2040 C2037 1.384 . S
N2041 C2033 1.427 . S
N2041 C2039 1.384 . S
H2042 C2048 0.930 . S
H2043 C2052 0.930 . S
H2044 C2057 0.929 . S
H2045 C2055 0.929 1_545 S
H2046 C2050 0.929 . S
H2047 C2056 0.929 . S
C2048 H2042 0.930 . S
C2048 C2049 1.367 . S
C2048 C2056 1.378 . S
C2049 C2048 1.367 . S
C2049 C2057 1.433 . S
C2050 H2046 0.929 . S
C2050 C2052 1.378 . S
C2050 C2054 1.350 . S
C2051 C2054 1.463 . S
C2051 C2056 1.350 . S
C2051 N2059 1.427 . S
C2052 H2043 0.930 . S
C2052 C2050 1.378 . S
C2052 C2053 1.367 . S
C2053 C2052 1.367 . S
C2053 C2055 1.433 . S
C2054 C2050 1.350 . S
C2054 C2051 1.463 . S
C2054 N2058 1.427 . S
C2055 H2045 0.929 1_565 S
C2055 C2053 1.433 . S
C2055 N2058 1.384 . S
C2056 H2047 0.929 . S
C2056 C2048 1.378 . S
C2056 C2051 1.350 . S
C2057 H2044 0.929 . S
C2057 C2049 1.433 . S
C2057 N2059 1.384 . S
N2058 C2054 1.427 . S
N2058 C2055 1.384 . S
N2059 C2051 1.427 . S
N2059 C2057 1.384 . S
H2060 C2066 0.930 . S
H2061 C2070 0.930 1_565 S
H2062 C2075 0.929 . S
H2063 C2073 0.929 . S
H2064 C2068 0.929 . S
H2065 C2074 0.929 . S
C2066 H2060 0.930 . S
C2066 C2067 1.367 . S
C2066 C2074 1.378 . S
C2067 C2066 1.367 . S
C2067 C2075 1.433 . S
C2068 H2064 0.929 . S
C2068 C2070 1.378 . S
C2068 C2072 1.350 . S
C2069 C2072 1.463 . S
C2069 C2074 1.350 . S
C2069 N2077 1.427 . S
C2070 H2061 0.930 1_545 S
C2070 C2068 1.378 . S
C2070 C2071 1.367 . S
C2071 C2070 1.367 . S
C2071 C2073 1.433 . S
C2072 C2068 1.350 . S
C2072 C2069 1.463 . S
C2072 N2076 1.427 . S
C2073 H2063 0.929 . S
C2073 C2071 1.433 . S
C2073 N2076 1.384 . S
C2074 H2065 0.929 . S
C2074 C2066 1.378 . S
C2074 C2069 1.350 . S
C2075 H2062 0.929 . S
C2075 C2067 1.433 . S
C2075 N2077 1.384 . S
N2076 C2072 1.427 . S
N2076 C2073 1.384 . S
N2077 C2069 1.427 . S
N2077 C2075 1.384 . S
H2078 C2084 0.930 . S
H2079 C2088 0.930 . S
H2080 C2093 0.929 . S
H2081 C2091 0.929 . S
H2082 C2086 0.929 . S
H2083 C2092 0.929 . S
C2084 H2078 0.930 . S
C2084 C2085 1.367 . S
C2084 C2092 1.378 . S
C2085 C2084 1.367 . S
C2085 C2093 1.433 . S
C2086 H2082 0.929 . S
C2086 C2088 1.378 . S
C2086 C2090 1.350 . S
C2087 C2090 1.463 . S
C2087 C2092 1.350 . S
C2087 N2095 1.427 . S
C2088 H2079 0.930 . S
C2088 C2086 1.378 . S
C2088 C2089 1.367 . S
C2089 C2088 1.367 . S
C2089 C2091 1.433 . S
C2090 C2086 1.350 . S
C2090 C2087 1.463 . S
C2090 N2094 1.427 . S
C2091 H2081 0.929 . S
C2091 C2089 1.433 . S
C2091 N2094 1.384 . S
C2092 H2083 0.929 . S
C2092 C2084 1.378 . S
C2092 C2087 1.350 . S
C2093 H2080 0.929 . S
C2093 C2085 1.433 . S
C2093 N2095 1.384 . S
N2094 C2090 1.427 . S
N2094 C2091 1.384 . S
N2095 C2087 1.427 . S
N2095 C2093 1.384 . S
H2096 C2102 0.930 . S
H2097 C2106 0.930 . S
H2098 C2111 0.929 . S
H2099 C2109 0.929 . S
H2100 C2104 0.929 . S
H2101 C2110 0.929 . S
C2102 H2096 0.930 . S
C2102 C2103 1.367 . S
C2102 C2110 1.378 . S
C2103 C2102 1.367 . S
C2103 C2111 1.433 . S
C2104 H2100 0.929 . S
C2104 C2106 1.378 . S
C2104 C2108 1.350 . S
C2105 C2108 1.463 . S
C2105 C2110 1.350 . S
C2105 N2113 1.427 . S
C2106 H2097 0.930 . S
C2106 C2104 1.378 . S
C2106 C2107 1.367 . S
C2107 C2106 1.367 . S
C2107 C2109 1.433 . S
C2108 C2104 1.350 . S
C2108 C2105 1.463 . S
C2108 N2112 1.427 . S
C2109 H2099 0.929 . S
C2109 C2107 1.433 . S
C2109 N2112 1.384 . S
C2110 H2101 0.929 . S
C2110 C2102 1.378 . S
C2110 C2105 1.350 . S
C2111 H2098 0.929 . S
C2111 C2103 1.433 . S
C2111 N2113 1.384 . S
N2112 C2108 1.427 . S
N2112 C2109 1.384 . S
N2113 C2105 1.427 . S
N2113 C2111 1.384 . S
H2114 C2120 0.930 . S
H2115 C2124 0.930 . S
H2116 C2129 0.929 . S
H2117 C2127 0.929 . S
H2118 C2122 0.929 . S
H2119 C2128 0.929 . S
C2120 H2114 0.930 . S
C2120 C2121 1.367 . S
C2120 C2128 1.378 . S
C2121 C2120 1.367 . S
C2121 C2129 1.433 . S
C2122 H2118 0.929 . S
C2122 C2124 1.378 . S
C2122 C2126 1.350 . S
C2123 C2126 1.463 . S
C2123 C2128 1.350 . S
C2123 N2131 1.427 . S
C2124 H2115 0.930 . S
C2124 C2122 1.378 . S
C2124 C2125 1.367 . S
C2125 C2124 1.367 . S
C2125 C2127 1.433 . S
C2126 C2122 1.350 . S
C2126 C2123 1.463 . S
C2126 N2130 1.427 . S
C2127 H2117 0.929 . S
C2127 C2125 1.433 . S
C2127 N2130 1.384 . S
C2128 H2119 0.929 . S
C2128 C2120 1.378 . S
C2128 C2123 1.350 . S
C2129 H2116 0.929 . S
C2129 C2121 1.433 . S
C2129 N2131 1.384 . S
N2130 C2126 1.427 . S
N2130 C2127 1.384 . S
N2131 C2123 1.427 . S
N2131 C2129 1.384 . S
H2132 C2138 0.930 . S
H2133 C2142 0.930 . S
H2134 C2147 0.929 . S
H2135 C2145 0.929 . S
H2136 C2140 0.929 . S
H2137 C2146 0.929 . S
C2138 H2132 0.930 . S
C2138 C2139 1.367 . S
C2138 C2146 1.378 . S
C2139 C2138 1.367 . S
C2139 C2147 1.433 . S
C2140 H2136 0.929 . S
C2140 C2142 1.378 . S
C2140 C2144 1.350 . S
C2141 C2144 1.463 . S
C2141 C2146 1.350 . S
C2141 N2149 1.427 . S
C2142 H2133 0.930 . S
C2142 C2140 1.378 . S
C2142 C2143 1.367 . S
C2143 C2142 1.367 . S
C2143 C2145 1.433 . S
C2144 C2140 1.350 . S
C2144 C2141 1.463 . S
C2144 N2148 1.427 . S
C2145 H2135 0.929 . S
C2145 C2143 1.433 . S
C2145 N2148 1.384 . S
C2146 H2137 0.929 . S
C2146 C2138 1.378 . S
C2146 C2141 1.350 . S
C2147 H2134 0.929 . S
C2147 C2139 1.433 . S
C2147 N2149 1.384 . S
N2148 C2144 1.427 . S
N2148 C2145 1.384 . S
N2149 C2141 1.427 . S
N2149 C2147 1.384 . S
H2150 C2156 0.930 . S
H2151 C2160 0.930 . S
H2152 C2165 0.929 . S
H2153 C2163 0.929 . S
H2154 C2158 0.929 . S
H2155 C2164 0.929 . S
C2156 H2150 0.930 . S
C2156 C2157 1.367 . S
C2156 C2164 1.378 . S
C2157 C2156 1.367 . S
C2157 C2165 1.433 . S
C2158 H2154 0.929 . S
C2158 C2160 1.378 . S
C2158 C2162 1.350 . S
C2159 C2162 1.463 . S
C2159 C2164 1.350 . S
C2159 N2167 1.427 . S
C2160 H2151 0.930 . S
C2160 C2158 1.378 . S
C2160 C2161 1.367 . S
C2161 C2160 1.367 . S
C2161 C2163 1.433 . S
C2162 C2158 1.350 . S
C2162 C2159 1.463 . S
C2162 N2166 1.427 . S
C2163 H2153 0.929 . S
C2163 C2161 1.433 . S
C2163 N2166 1.384 . S
C2164 H2155 0.929 . S
C2164 C2156 1.378 . S
C2164 C2159 1.350 . S
C2165 H2152 0.929 . S
C2165 C2157 1.433 . S
C2165 N2167 1.384 . S
N2166 C2162 1.427 . S
N2166 C2163 1.384 . S
N2167 C2159 1.427 . S
N2167 C2165 1.384 . S
H2168 C2174 0.930 . S
H2169 C2178 0.930 . S
H2170 C2183 0.929 . S
H2171 C2181 0.929 . S
H2172 C2176 0.929 . S
H2173 C2182 0.929 . S
C2174 H2168 0.930 . S
C2174 C2175 1.367 . S
C2174 C2182 1.378 . S
C2175 C2174 1.367 . S
C2175 C2183 1.433 . S
C2176 H2172 0.929 . S
C2176 C2178 1.378 . S
C2176 C2180 1.350 . S
C2177 C2180 1.463 . S
C2177 C2182 1.350 . S
C2177 N2185 1.427 . S
C2178 H2169 0.930 . S
C2178 C2176 1.378 . S
C2178 C2179 1.367 . S
C2179 C2178 1.367 . S
C2179 C2181 1.433 . S
C2180 C2176 1.350 . S
C2180 C2177 1.463 . S
C2180 N2184 1.427 . S
C2181 H2171 0.929 . S
C2181 C2179 1.433 . S
C2181 N2184 1.384 . S
C2182 H2173 0.929 . S
C2182 C2174 1.378 . S
C2182 C2177 1.350 . S
C2183 H2170 0.929 . S
C2183 C2175 1.433 . S
C2183 N2185 1.384 . S
N2184 C2180 1.427 . S
N2184 C2181 1.384 . S
N2185 C2177 1.427 . S
N2185 C2183 1.384 . S
H2186 C2192 0.930 . S
H2187 C2196 0.930 . S
H2188 C2201 0.929 . S
H2189 C2199 0.929 . S
H2190 C2194 0.929 . S
H2191 C2200 0.929 . S
C2192 H2186 0.930 . S
C2192 C2193 1.367 . S
C2192 C2200 1.378 . S
C2193 C2192 1.367 . S
C2193 C2201 1.433 . S
C2194 H2190 0.929 . S
C2194 C2196 1.378 . S
C2194 C2198 1.350 . S
C2195 C2198 1.463 . S
C2195 C2200 1.350 . S
C2195 N2203 1.427 . S
C2196 H2187 0.930 . S
C2196 C2194 1.378 . S
C2196 C2197 1.367 . S
C2197 C2196 1.367 . S
C2197 C2199 1.433 . S
C2198 C2194 1.350 . S
C2198 C2195 1.463 . S
C2198 N2202 1.427 . S
C2199 H2189 0.929 . S
C2199 C2197 1.433 . S
C2199 N2202 1.384 . S
C2200 H2191 0.929 . S
C2200 C2192 1.378 . S
C2200 C2195 1.350 . S
C2201 H2188 0.929 . S
C2201 C2193 1.433 . S
C2201 N2203 1.384 . S
N2202 C2198 1.427 . S
N2202 C2199 1.384 . S
N2203 C2195 1.427 . S
N2203 C2201 1.384 . S
H2204 C2210 0.930 . S
H2205 C2214 0.930 . S
H2206 C2219 0.929 . S
H2207 C2217 0.929 . S
H2208 C2212 0.929 . S
H2209 C2218 0.929 . S
C2210 H2204 0.930 . S
C2210 C2211 1.367 . S
C2210 C2218 1.378 . S
C2211 C2210 1.367 . S
C2211 C2219 1.433 . S
C2212 H2208 0.929 . S
C2212 C2214 1.378 . S
C2212 C2216 1.350 . S
C2213 C2216 1.463 . S
C2213 C2218 1.350 . S
C2213 N2221 1.427 . S
C2214 H2205 0.930 . S
C2214 C2212 1.378 . S
C2214 C2215 1.367 . S
C2215 C2214 1.367 . S
C2215 C2217 1.433 . S
C2216 C2212 1.350 . S
C2216 C2213 1.463 . S
C2216 N2220 1.427 . S
C2217 H2207 0.929 . S
C2217 C2215 1.433 . S
C2217 N2220 1.384 . S
C2218 H2209 0.929 . S
C2218 C2210 1.378 . S
C2218 C2213 1.350 . S
C2219 H2206 0.929 . S
C2219 C2211 1.433 . S
C2219 N2221 1.384 . S
N2220 C2216 1.427 . S
N2220 C2217 1.384 . S
N2221 C2213 1.427 . S
N2221 C2219 1.384 . S
H2222 C2228 0.930 . S
H2223 C2232 0.930 . S
H2224 C2237 0.929 . S
H2225 C2235 0.929 . S
H2226 C2230 0.929 . S
H2227 C2236 0.929 . S
C2228 H2222 0.930 . S
C2228 C2229 1.367 . S
C2228 C2236 1.378 . S
C2229 C2228 1.367 . S
C2229 C2237 1.433 . S
C2230 H2226 0.929 . S
C2230 C2232 1.378 . S
C2230 C2234 1.350 . S
C2231 C2234 1.463 . S
C2231 C2236 1.350 . S
C2231 N2239 1.427 . S
C2232 H2223 0.930 . S
C2232 C2230 1.378 . S
C2232 C2233 1.367 . S
C2233 C2232 1.367 . S
C2233 C2235 1.433 . S
C2234 C2230 1.350 . S
C2234 C2231 1.463 . S
C2234 N2238 1.427 . S
C2235 H2225 0.929 . S
C2235 C2233 1.433 . S
C2235 N2238 1.384 . S
C2236 H2227 0.929 . S
C2236 C2228 1.378 . S
C2236 C2231 1.350 . S
C2237 H2224 0.929 . S
C2237 C2229 1.433 . S
C2237 N2239 1.384 . S
N2238 C2234 1.427 . S
N2238 C2235 1.384 . S
N2239 C2231 1.427 . S
N2239 C2237 1.384 . S
H2240 C2246 0.930 . S
H2241 C2250 0.930 . S
H2242 C2255 0.929 . S
H2243 C2253 0.929 . S
H2244 C2248 0.929 . S
H2245 C2254 0.929 . S
C2246 H2240 0.930 . S
C2246 C2247 1.367 . S
C2246 C2254 1.378 . S
C2247 C2246 1.367 . S
C2247 C2255 1.433 . S
C2248 H2244 0.929 . S
C2248 C2250 1.378 . S
C2248 C2252 1.350 . S
C2249 C2252 1.463 . S
C2249 C2254 1.350 . S
C2249 N2257 1.427 . S
C2250 H2241 0.930 . S
C2250 C2248 1.378 . S
C2250 C2251 1.367 . S
C2251 C2250 1.367 . S
C2251 C2253 1.433 . S
C2252 C2248 1.350 . S
C2252 C2249 1.463 . S
C2252 N2256 1.427 . S
C2253 H2243 0.929 . S
C2253 C2251 1.433 . S
C2253 N2256 1.384 . S
C2254 H2245 0.929 . S
C2254 C2246 1.378 . S
C2254 C2249 1.350 . S
C2255 H2242 0.929 . S
C2255 C2247 1.433 . S
C2255 N2257 1.384 . S
N2256 C2252 1.427 . S
N2256 C2253 1.384 . S
N2257 C2249 1.427 . S
N2257 C2255 1.384 . S
H2258 C2264 0.930 . S
H2259 C2268 0.930 . S
H2260 C2273 0.929 . S
H2261 C2271 0.929 . S
H2262 C2266 0.929 . S
H2263 C2272 0.929 . S
C2264 H2258 0.930 . S
C2264 C2265 1.367 . S
C2264 C2272 1.378 . S
C2265 C2264 1.367 . S
C2265 C2273 1.433 1_565 S
C2266 H2262 0.929 . S
C2266 C2268 1.378 . S
C2266 C2270 1.350 . S
C2267 C2270 1.463 1_465 S
C2267 C2272 1.350 . S
C2267 N2275 1.427 1_565 S
C2268 H2259 0.930 . S
C2268 C2266 1.378 . S
C2268 C2269 1.367 . S
C2269 C2268 1.367 . S
C2269 C2271 1.433 1_545 S
C2270 C2266 1.350 . S
C2270 C2267 1.463 1_645 S
C2270 N2274 1.427 1_545 S
C2271 H2261 0.929 . S
C2271 C2269 1.433 1_565 S
C2271 N2274 1.384 . S
C2272 H2263 0.929 . S
C2272 C2264 1.378 . S
C2272 C2267 1.350 . S
C2273 H2260 0.929 . S
C2273 C2265 1.433 1_545 S
C2273 N2275 1.384 . S
N2274 C2270 1.427 1_565 S
N2274 C2271 1.384 . S
N2275 C2267 1.427 1_545 S
N2275 C2273 1.384 . S
H2276 C2282 0.930 . S
H2277 C2286 0.930 . S
H2278 C2291 0.929 . S
H2279 C2289 0.929 . S
H2280 C2284 0.929 . S
H2281 C2290 0.929 . S
C2282 H2276 0.930 . S
C2282 C2283 1.367 . S
C2282 C2290 1.378 . S
C2283 C2282 1.367 . S
C2283 C2291 1.433 . S
C2284 H2280 0.929 . S
C2284 C2286 1.378 . S
C2284 C2288 1.350 . S
C2285 C2288 1.463 . S
C2285 C2290 1.350 . S
C2285 N2293 1.427 . S
C2286 H2277 0.930 . S
C2286 C2284 1.378 . S
C2286 C2287 1.367 . S
C2287 C2286 1.367 . S
C2287 C2289 1.433 . S
C2288 C2284 1.350 . S
C2288 C2285 1.463 . S
C2288 N2292 1.427 . S
C2289 H2279 0.929 . S
C2289 C2287 1.433 . S
C2289 N2292 1.384 . S
C2290 H2281 0.929 . S
C2290 C2282 1.378 . S
C2290 C2285 1.350 . S
C2291 H2278 0.929 . S
C2291 C2283 1.433 . S
C2291 N2293 1.384 . S
N2292 C2288 1.427 . S
N2292 C2289 1.384 . S
N2293 C2285 1.427 . S
N2293 C2291 1.384 . S
H2294 C2300 0.930 . S
H2295 C2304 0.930 . S
H2296 C2309 0.929 . S
H2297 C2307 0.929 . S
H2298 C2302 0.929 . S
H2299 C2308 0.929 . S
C2300 H2294 0.930 . S
C2300 C2301 1.367 1_565 S
C2300 C2308 1.378 . S
C2301 C2300 1.367 1_545 S
C2301 C2309 1.433 . S
C2302 H2298 0.929 . S
C2302 C2304 1.378 . S
C2302 C2306 1.350 1_545 S
C2303 C2306 1.463 1_544 S
C2303 C2308 1.350 1_545 S
C2303 N2311 1.427 . S
C2304 H2295 0.930 . S
C2304 C2302 1.378 . S
C2304 C2305 1.367 1_545 S
C2305 C2304 1.367 1_565 S
C2305 C2307 1.433 . S
C2306 C2302 1.350 1_565 S
C2306 C2303 1.463 1_566 S
C2306 N2310 1.427 . S
C2307 H2297 0.929 . S
C2307 C2305 1.433 . S
C2307 N2310 1.384 . S
C2308 H2299 0.929 . S
C2308 C2300 1.378 . S
C2308 C2303 1.350 1_565 S
C2309 H2296 0.929 . S
C2309 C2301 1.433 . S
C2309 N2311 1.384 . S
N2310 C2306 1.427 . S
N2310 C2307 1.384 . S
N2311 C2303 1.427 . S
N2311 C2309 1.384 . S
H2312 C2318 0.930 . S
H2313 C2322 0.930 . S
H2314 C2327 0.929 . S
H2315 C2325 0.929 . S
H2316 C2320 0.929 . S
H2317 C2326 0.929 . S
C2318 H2312 0.930 . S
C2318 C2319 1.367 . S
C2318 C2326 1.378 . S
C2319 C2318 1.367 . S
C2319 C2327 1.433 . S
C2320 H2316 0.929 . S
C2320 C2322 1.378 . S
C2320 C2324 1.350 . S
C2321 C2324 1.463 . S
C2321 C2326 1.350 . S
C2321 N2329 1.427 . S
C2322 H2313 0.930 . S
C2322 C2320 1.378 . S
C2322 C2323 1.367 . S
C2323 C2322 1.367 . S
C2323 C2325 1.433 . S
C2324 C2320 1.350 . S
C2324 C2321 1.463 . S
C2324 N2328 1.427 . S
C2325 H2315 0.929 . S
C2325 C2323 1.433 . S
C2325 N2328 1.384 . S
C2326 H2317 0.929 . S
C2326 C2318 1.378 . S
C2326 C2321 1.350 . S
C2327 H2314 0.929 . S
C2327 C2319 1.433 . S
C2327 N2329 1.384 . S
N2328 C2324 1.427 . S
N2328 C2325 1.384 . S
N2329 C2321 1.427 . S
N2329 C2327 1.384 . S
H2330 C2336 0.930 . S
H2331 C2340 0.930 . S
H2332 C2345 0.929 . S
H2333 C2343 0.929 . S
H2334 C2338 0.929 . S
H2335 C2344 0.929 . S
C2336 H2330 0.930 . S
C2336 C2337 1.367 . S
C2336 C2344 1.378 . S
C2337 C2336 1.367 . S
C2337 C2345 1.433 1_545 S
C2338 H2334 0.929 . S
C2338 C2340 1.378 . S
C2338 C2342 1.350 . S
C2339 C2342 1.463 1_545 S
C2339 C2344 1.350 . S
C2339 N2347 1.427 1_545 S
C2340 H2331 0.930 . S
C2340 C2338 1.378 . S
C2340 C2341 1.367 . S
C2341 C2340 1.367 . S
C2341 C2343 1.433 1_565 S
C2342 C2338 1.350 . S
C2342 C2339 1.463 1_565 S
C2342 N2346 1.427 1_565 S
C2343 H2333 0.929 . S
C2343 C2341 1.433 1_545 S
C2343 N2346 1.384 . S
C2344 H2335 0.929 . S
C2344 C2336 1.378 . S
C2344 C2339 1.350 . S
C2345 H2332 0.929 . S
C2345 C2337 1.433 1_565 S
C2345 N2347 1.384 . S
N2346 C2342 1.427 1_545 S
N2346 C2343 1.384 . S
N2347 C2339 1.427 1_565 S
N2347 C2345 1.384 . S
H2348 C2354 0.930 . S
H2349 C2358 0.930 . S
H2350 C2363 0.929 . S
H2351 C2361 0.929 . S
H2352 C2356 0.929 . S
H2353 C2362 0.929 . S
C2354 H2348 0.930 . S
C2354 C2355 1.367 . S
C2354 C2362 1.378 . S
C2355 C2354 1.367 . S
C2355 C2363 1.433 . S
C2356 H2352 0.929 . S
C2356 C2358 1.378 . S
C2356 C2360 1.350 . S
C2357 C2360 1.463 . S
C2357 C2362 1.350 . S
C2357 N2365 1.427 . S
C2358 H2349 0.930 . S
C2358 C2356 1.378 . S
C2358 C2359 1.367 . S
C2359 C2358 1.367 . S
C2359 C2361 1.433 . S
C2360 C2356 1.350 . S
C2360 C2357 1.463 . S
C2360 N2364 1.427 . S
C2361 H2351 0.929 . S
C2361 C2359 1.433 . S
C2361 N2364 1.384 . S
C2362 H2353 0.929 . S
C2362 C2354 1.378 . S
C2362 C2357 1.350 . S
C2363 H2350 0.929 . S
C2363 C2355 1.433 . S
C2363 N2365 1.384 . S
N2364 C2360 1.427 . S
N2364 C2361 1.384 . S
N2365 C2357 1.427 . S
N2365 C2363 1.384 . S
H2366 C2372 0.930 . S
H2367 C2376 0.930 . S
H2368 C2381 0.929 . S
H2369 C2379 0.929 . S
H2370 C2374 0.929 1_554 S
H2371 C2380 0.929 1_556 S
C2372 H2366 0.930 . S
C2372 C2373 1.367 . S
C2372 C2380 1.378 . S
C2373 C2372 1.367 . S
C2373 C2381 1.433 1_565 S
C2374 H2370 0.929 1_556 S
C2374 C2376 1.378 . S
C2374 C2378 1.350 . S
C2375 C2378 1.463 1_664 S
C2375 C2380 1.350 . S
C2375 N2383 1.427 1_565 S
C2376 H2367 0.930 . S
C2376 C2374 1.378 . S
C2376 C2377 1.367 . S
C2377 C2376 1.367 . S
C2377 C2379 1.433 1_545 S
C2378 C2374 1.350 . S
C2378 C2375 1.463 1_446 S
C2378 N2382 1.427 1_545 S
C2379 H2369 0.929 . S
C2379 C2377 1.433 1_565 S
C2379 N2382 1.384 . S
C2380 H2371 0.929 1_554 S
C2380 C2372 1.378 . S
C2380 C2375 1.350 . S
C2381 H2368 0.929 . S
C2381 C2373 1.433 1_545 S
C2381 N2383 1.384 . S
N2382 C2378 1.427 1_565 S
N2382 C2379 1.384 . S
N2383 C2375 1.427 1_545 S
N2383 C2381 1.384 . S
H2384 C2390 0.930 . S
H2385 C2394 0.930 . S
H2386 C2399 0.929 . S
H2387 C2397 0.929 . S
H2388 C2392 0.929 . S
H2389 C2398 0.929 . S
C2390 H2384 0.930 . S
C2390 C2391 1.367 . S
C2390 C2398 1.378 . S
C2391 C2390 1.367 . S
C2391 C2399 1.433 . S
C2392 H2388 0.929 . S
C2392 C2394 1.378 . S
C2392 C2396 1.350 . S
C2393 C2396 1.463 . S
C2393 C2398 1.350 . S
C2393 N2401 1.427 . S
C2394 H2385 0.930 . S
C2394 C2392 1.378 . S
C2394 C2395 1.367 . S
C2395 C2394 1.367 . S
C2395 C2397 1.433 . S
C2396 C2392 1.350 . S
C2396 C2393 1.463 . S
C2396 N2400 1.427 . S
C2397 H2387 0.929 . S
C2397 C2395 1.433 . S
C2397 N2400 1.384 . S
C2398 H2389 0.929 . S
C2398 C2390 1.378 . S
C2398 C2393 1.350 . S
C2399 H2386 0.929 . S
C2399 C2391 1.433 . S
C2399 N2401 1.384 . S
N2400 C2396 1.427 . S
N2400 C2397 1.384 . S
N2401 C2393 1.427 . S
N2401 C2399 1.384 . S
H2402 C2408 0.930 . S
H2403 C2412 0.930 . S
H2404 C2417 0.929 . S
H2405 C2415 0.929 . S
H2406 C2410 0.929 . S
H2407 C2416 0.929 . S
C2408 H2402 0.930 . S
C2408 C2409 1.367 . S
C2408 C2416 1.378 . S
C2409 C2408 1.367 . S
C2409 C2417 1.433 . S
C2410 H2406 0.929 . S
C2410 C2412 1.378 . S
C2410 C2414 1.350 . S
C2411 C2414 1.463 . S
C2411 C2416 1.350 . S
C2411 N2419 1.427 . S
C2412 H2403 0.930 . S
C2412 C2410 1.378 . S
C2412 C2413 1.367 . S
C2413 C2412 1.367 . S
C2413 C2415 1.433 . S
C2414 C2410 1.350 . S
C2414 C2411 1.463 . S
C2414 N2418 1.427 . S
C2415 H2405 0.929 . S
C2415 C2413 1.433 . S
C2415 N2418 1.384 . S
C2416 H2407 0.929 . S
C2416 C2408 1.378 . S
C2416 C2411 1.350 . S
C2417 H2404 0.929 . S
C2417 C2409 1.433 . S
C2417 N2419 1.384 . S
N2418 C2414 1.427 . S
N2418 C2415 1.384 . S
N2419 C2411 1.427 . S
N2419 C2417 1.384 . S
H2420 C2426 0.930 . S
H2421 C2430 0.930 . S
H2422 C2435 0.929 . S
H2423 C2433 0.929 . S
H2424 C2428 0.929 . S
H2425 C2434 0.929 . S
C2426 H2420 0.930 . S
C2426 C2427 1.367 . S
C2426 C2434 1.378 . S
C2427 C2426 1.367 . S
C2427 C2435 1.433 . S
C2428 H2424 0.929 . S
C2428 C2430 1.378 . S
C2428 C2432 1.350 . S
C2429 C2432 1.463 . S
C2429 C2434 1.350 . S
C2429 N2437 1.427 . S
C2430 H2421 0.930 . S
C2430 C2428 1.378 . S
C2430 C2431 1.367 . S
C2431 C2430 1.367 . S
C2431 C2433 1.433 . S
C2432 C2428 1.350 . S
C2432 C2429 1.463 . S
C2432 N2436 1.427 . S
C2433 H2423 0.929 . S
C2433 C2431 1.433 . S
C2433 N2436 1.384 . S
C2434 H2425 0.929 . S
C2434 C2426 1.378 . S
C2434 C2429 1.350 . S
C2435 H2422 0.929 . S
C2435 C2427 1.433 . S
C2435 N2437 1.384 . S
N2436 C2432 1.427 . S
N2436 C2433 1.384 . S
N2437 C2429 1.427 . S
N2437 C2435 1.384 . S
H2438 C2444 0.930 . S
H2439 C2448 0.930 . S
H2440 C2453 0.929 . S
H2441 C2451 0.929 . S
H2442 C2446 0.929 . S
H2443 C2452 0.929 . S
C2444 H2438 0.930 . S
C2444 C2445 1.367 . S
C2444 C2452 1.378 . S
C2445 C2444 1.367 . S
C2445 C2453 1.433 . S
C2446 H2442 0.929 . S
C2446 C2448 1.378 . S
C2446 C2450 1.350 . S
C2447 C2450 1.463 . S
C2447 C2452 1.350 . S
C2447 N2455 1.427 . S
C2448 H2439 0.930 . S
C2448 C2446 1.378 . S
C2448 C2449 1.367 . S
C2449 C2448 1.367 . S
C2449 C2451 1.433 . S
C2450 C2446 1.350 . S
C2450 C2447 1.463 . S
C2450 N2454 1.427 . S
C2451 H2441 0.929 . S
C2451 C2449 1.433 . S
C2451 N2454 1.384 . S
C2452 H2443 0.929 . S
C2452 C2444 1.378 . S
C2452 C2447 1.350 . S
C2453 H2440 0.929 . S
C2453 C2445 1.433 . S
C2453 N2455 1.384 . S
N2454 C2450 1.427 . S
N2454 C2451 1.384 . S
N2455 C2447 1.427 . S
N2455 C2453 1.384 . S
H2456 C2462 0.930 . S
H2457 C2466 0.930 . S
H2458 C2471 0.929 . S
H2459 C2469 0.929 . S
H2460 C2464 0.929 1_556 S
H2461 C2470 0.929 1_554 S
C2462 H2456 0.930 . S
C2462 C2463 1.367 . S
C2462 C2470 1.378 . S
C2463 C2462 1.367 . S
C2463 C2471 1.433 . S
C2464 H2460 0.929 1_554 S
C2464 C2466 1.378 . S
C2464 C2468 1.350 . S
C2465 C2468 1.463 1_556 S
C2465 C2470 1.350 . S
C2465 N2473 1.427 . S
C2466 H2457 0.930 . S
C2466 C2464 1.378 . S
C2466 C2467 1.367 . S
C2467 C2466 1.367 . S
C2467 C2469 1.433 . S
C2468 C2464 1.350 . S
C2468 C2465 1.463 1_554 S
C2468 N2472 1.427 . S
C2469 H2459 0.929 . S
C2469 C2467 1.433 . S
C2469 N2472 1.384 . S
C2470 H2461 0.929 1_556 S
C2470 C2462 1.378 . S
C2470 C2465 1.350 . S
C2471 H2458 0.929 . S
C2471 C2463 1.433 . S
C2471 N2473 1.384 . S
N2472 C2468 1.427 . S
N2472 C2469 1.384 . S
N2473 C2465 1.427 . S
N2473 C2471 1.384 . S
H2474 C2480 0.930 . S
H2475 C2484 0.930 . S
H2476 C2489 0.929 . S
H2477 C2487 0.929 . S
H2478 C2482 0.929 . S
H2479 C2488 0.929 . S
C2480 H2474 0.930 . S
C2480 C2481 1.367 . S
C2480 C2488 1.378 1_455 S
C2481 C2480 1.367 . S
C2481 C2489 1.433 . S
C2482 H2478 0.929 . S
C2482 C2484 1.378 1_455 S
C2482 C2486 1.350 1_455 S
C2483 C2486 1.463 1_455 S
C2483 C2488 1.350 1_455 S
C2483 N2491 1.427 . S
C2484 H2475 0.930 . S
C2484 C2482 1.378 1_655 S
C2484 C2485 1.367 . S
C2485 C2484 1.367 . S
C2485 C2487 1.433 . S
C2486 C2482 1.350 1_655 S
C2486 C2483 1.463 1_655 S
C2486 N2490 1.427 . S
C2487 H2477 0.929 . S
C2487 C2485 1.433 . S
C2487 N2490 1.384 . S
C2488 H2479 0.929 . S
C2488 C2480 1.378 1_655 S
C2488 C2483 1.350 1_655 S
C2489 H2476 0.929 . S
C2489 C2481 1.433 . S
C2489 N2491 1.384 . S
N2490 C2486 1.427 . S
N2490 C2487 1.384 . S
N2491 C2483 1.427 . S
N2491 C2489 1.384 . S
H2492 C2498 0.930 . S
H2493 C2502 0.930 . S
H2494 C2507 0.929 . S
H2495 C2505 0.929 . S
H2496 C2500 0.929 . S
H2497 C2506 0.929 . S
C2498 H2492 0.930 . S
C2498 C2499 1.367 . S
C2498 C2506 1.378 1_455 S
C2499 C2498 1.367 . S
C2499 C2507 1.433 . S
C2500 H2496 0.929 . S
C2500 C2502 1.378 1_455 S
C2500 C2504 1.350 1_455 S
C2501 C2504 1.463 1_454 S
C2501 C2506 1.350 1_455 S
C2501 N2509 1.427 . S
C2502 H2493 0.930 . S
C2502 C2500 1.378 1_655 S
C2502 C2503 1.367 . S
C2503 C2502 1.367 . S
C2503 C2505 1.433 . S
C2504 C2500 1.350 1_655 S
C2504 C2501 1.463 1_656 S
C2504 N2508 1.427 . S
C2505 H2495 0.929 . S
C2505 C2503 1.433 . S
C2505 N2508 1.384 . S
C2506 H2497 0.929 . S
C2506 C2498 1.378 1_655 S
C2506 C2501 1.350 1_655 S
C2507 H2494 0.929 . S
C2507 C2499 1.433 . S
C2507 N2509 1.384 . S
N2508 C2504 1.427 . S
N2508 C2505 1.384 . S
N2509 C2501 1.427 . S
N2509 C2507 1.384 . S
H2510 C2516 0.930 . S
H2511 C2520 0.930 . S
H2512 C2525 0.929 . S
H2513 C2523 0.929 . S
H2514 C2518 0.929 . S
H2515 C2524 0.929 . S
C2516 H2510 0.930 . S
C2516 C2517 1.367 . S
C2516 C2524 1.378 . S
C2517 C2516 1.367 . S
C2517 C2525 1.433 . S
C2518 H2514 0.929 . S
C2518 C2520 1.378 . S
C2518 C2522 1.350 . S
C2519 C2522 1.463 . S
C2519 C2524 1.350 . S
C2519 N2527 1.427 . S
C2520 H2511 0.930 . S
C2520 C2518 1.378 . S
C2520 C2521 1.367 . S
C2521 C2520 1.367 . S
C2521 C2523 1.433 . S
C2522 C2518 1.350 . S
C2522 C2519 1.463 . S
C2522 N2526 1.427 . S
C2523 H2513 0.929 . S
C2523 C2521 1.433 . S
C2523 N2526 1.384 . S
C2524 H2515 0.929 . S
C2524 C2516 1.378 . S
C2524 C2519 1.350 . S
C2525 H2512 0.929 . S
C2525 C2517 1.433 . S
C2525 N2527 1.384 . S
N2526 C2522 1.427 . S
N2526 C2523 1.384 . S
N2527 C2519 1.427 . S
N2527 C2525 1.384 . S
C1095 C9 1.471 . S
C1099 C920 1.499 . S
C1113 C43 1.473 1_655 S
C1117 C274 1.499 . S
C1131 C852 1.500 . S
C1135 C77 1.474 . S
C1149 C342 1.500 . S
C1153 C111 1.476 . S
C1167 C988 1.499 . S
C1171 C145 1.468 . S
C1185 C179 1.476 . S
C1189 C478 1.500 . S
C1203 C213 1.472 . S
C1207 C1056 1.500 . S
C1221 C410 1.499 . S
C1225 C247 1.471 1_655 S
C1239 C281 1.472 . S
C1243 C648 1.499 . S
C1257 C315 1.475 1_455 S
C1261 C2 1.499 . S
C1275 C349 1.471 . S
C1279 C580 1.500 . S
C1293 C70 1.500 . S
C1297 C383 1.474 . S
C1311 C417 1.469 . S
C1315 C716 1.500 . S
C1329 C451 1.475 . S
C1333 C206 1.500 . S
C1347 C784 1.500 . S
C1351 C485 1.465 . S
C1365 C519 1.470 1_455 S
C1369 C138 1.499 . S
C1383 C553 1.474 . S
C1387 C376 1.499 . S
C1401 C818 1.500 . S
C1405 C587 1.465 . S
C1419 C308 1.500 . S
C1423 C621 1.467 . S
C1437 C655 1.476 1_455 S
C1441 C886 1.500 . S
C1455 C689 1.466 . S
C1459 C444 1.500 . S
C1473 C1022 1.499 . S
C1477 C723 1.469 1_455 S
C1491 C757 1.476 . S
C1495 C512 1.500 . S
C1509 C954 1.499 . S
C1513 C791 1.470 . S
C1527 C825 1.473 . S
C1531 C104 1.500 . S
C1545 C546 1.500 . S
C1549 C859 1.465 . S
C1563 C893 1.471 . S
C1567 C36 1.500 . S
C1581 C614 1.500 . S
C1585 C927 1.476 1_655 S
C1599 C961 1.473 . S
C1603 C172 1.500 . S
C1617 C750 1.499 . S
C1621 C995 1.467 1_655 S
C1635 C240 1.500 . S
C1639 C1029 1.468 . S
C1653 C1063 1.473 . S
C1657 C682 1.500 . S
C1671 C5 1.602 . S
C1675 C141 1.602 . S
C1689 C39 1.597 . S
C1693 C175 1.602 . S
C1707 C209 1.603 . S
C1711 C73 1.598 . S
C1725 C107 1.602 . S
C1729 C243 1.597 . S
C1743 C277 1.603 . S
C1747 C413 1.599 . S
C1761 C311 1.602 . S
C1765 C447 1.597 . S
C1779 C345 1.595 . S
C1783 C481 1.600 . S
C1797 C379 1.601 . S
C1801 C515 1.602 . S
C1815 C549 1.599 . S
C1819 C685 1.596 . S
C1833 C719 1.603 . S
C1837 C583 1.599 . S
C1851 C753 1.600 . S
C1855 C617 1.602 . S
C1869 C787 1.596 . S
C1873 C651 1.601 . S
C1887 C957 1.596 . S
C1891 C821 1.598 . S
C1905 C855 1.600 . S
C1909 C991 1.595 . S
C1923 C889 1.601 . S
C1927 C1025 1.602 . S
C1941 C1059 1.596 . S
C1945 C923 1.602 . S
C1959 C203 1.334 1_545 S
C1963 C33 1.338 . S
C1977 C237 1.336 . S
C1981 C67 1.335 1_545 S
C1995 C271 1.338 1_565 S
C1999 C101 1.334 . S
C2013 C169 1.336 . S
C2017 C135 1.337 1_565 S
C2031 C475 1.336 1_565 S
C2035 C305 1.335 . S
C2049 C509 1.334 . S
C2053 C339 1.337 1_565 S
C2067 C373 1.338 . S
C2071 C543 1.334 1_545 S
C2085 C407 1.335 1_545 S
C2089 C441 1.336 . S
C2103 C747 1.334 . S
C2107 C577 1.337 . S
C2121 C611 1.336 . S
C2125 C781 1.334 . S
C2139 C815 1.334 . S
C2143 C645 1.338 . S
C2157 C679 1.334 . S
C2161 C713 1.337 . S
C2175 C1019 1.335 . S
C2179 C849 1.337 . S
C2193 C883 1.336 . S
C2197 C1053 1.336 . S
C2211 C917 1.334 . S
C2215 C1087 1.337 . S
C2229 C985 1.334 . S
C2233 C951 1.337 . S
C2247 C836 1.323 . S
C2251 C20 1.323 . S
C2265 C54 1.318 . S
C2269 C326 1.318 . S
C2283 C88 1.318 . S
C2287 C904 1.318 . S
C2301 C122 1.325 . S
C2305 C394 1.325 . S
C2319 C156 1.324 . S
C2323 C972 1.324 . S
C2337 C462 1.319 . S
C2341 C190 1.319 . S
C2355 C1040 1.318 . S
C2359 C224 1.318 . S
C2373 C530 1.319 . S
C2377 C258 1.319 . S
C2391 C292 1.321 . S
C2395 C564 1.321 . S
C2409 C632 1.319 . S
C2413 C360 1.319 . S
C2427 C428 1.318 . S
C2431 C700 1.318 . S
C2445 C496 1.325 . S
C2449 C768 1.325 . S
C2463 C870 1.318 . S
C2467 C598 1.318 . S
C2481 C938 1.321 . S
C2485 C666 1.321 . S
C2499 C1006 1.320 . S
C2503 C734 1.320 . S
C2517 C802 1.323 . S
C2521 C1074 1.323 . S
