# Generated by pormake.
# Topology lcy-a, (4)-cn, num edge types: 1
# Building blocks:
#     Node 0, Type 0, BuildingBlock: GALJAG_clean_sbu_0, # of connection points: 4
#     Node 1, Type 0, BuildingBlock: GALJAG_clean_sbu_0, # of connection points: 4
#     Node 2, Type 0, BuildingBlock: GALJAG_clean_sbu_0, # of connection points: 4
#     Node 3, Type 0, BuildingBlock: GALJAG_clean_sbu_0, # of connection points: 4
#     Node 4, Type 0, BuildingBlock: GALJAG_clean_sbu_0, # of connection points: 4
#     Node 5, Type 0, BuildingBlock: GALJAG_clean_sbu_0, # of connection points: 4
#     Node 6, Type 0, BuildingBlock: GALJAG_clean_sbu_0, # of connection points: 4
#     Node 7, Type 0, BuildingBlock: GALJAG_clean_sbu_0, # of connection points: 4
#     Node 8, Type 0, BuildingBlock: GALJAG_clean_sbu_0, # of connection points: 4
#     Node 9, Type 0, BuildingBlock: GALJAG_clean_sbu_0, # of connection points: 4
#     Node 10, Type 0, BuildingBlock: GALJAG_clean_sbu_0, # of connection points: 4
#     Node 11, Type 0, BuildingBlock: GALJAG_clean_sbu_0, # of connection points: 4
#     Node 12, Type 0, BuildingBlock: GALJAG_clean_sbu_0, # of connection points: 4
#     Node 13, Type 0, BuildingBlock: GALJAG_clean_sbu_0, # of connection points: 4
#     Node 14, Type 0, BuildingBlock: GALJAG_clean_sbu_0, # of connection points: 4
#     Node 15, Type 0, BuildingBlock: GALJAG_clean_sbu_0, # of connection points: 4
#     Node 16, Type 0, BuildingBlock: GALJAG_clean_sbu_0, # of connection points: 4
#     Node 17, Type 0, BuildingBlock: GALJAG_clean_sbu_0, # of connection points: 4
#     Node 18, Type 0, BuildingBlock: GALJAG_clean_sbu_0, # of connection points: 4
#     Node 19, Type 0, BuildingBlock: GALJAG_clean_sbu_0, # of connection points: 4
#     Node 20, Type 0, BuildingBlock: GALJAG_clean_sbu_0, # of connection points: 4
#     Node 21, Type 0, BuildingBlock: GALJAG_clean_sbu_0, # of connection points: 4
#     Node 22, Type 0, BuildingBlock: GALJAG_clean_sbu_0, # of connection points: 4
#     Node 23, Type 0, BuildingBlock: GALJAG_clean_sbu_0, # of connection points: 4
#     Edge 24, Type (0, 0), BuildingBlock: EZIPEK_clean_linker_0, # of connection points: 2
#     Edge 25, Type (0, 0), BuildingBlock: EZIPEK_clean_linker_0, # of connection points: 2
#     Edge 26, Type (0, 0), BuildingBlock: EZIPEK_clean_linker_0, # of connection points: 2
#     Edge 27, Type (0, 0), BuildingBlock: EZIPEK_clean_linker_0, # of connection points: 2
#     Edge 28, Type (0, 0), BuildingBlock: EZIPEK_clean_linker_0, # of connection points: 2
#     Edge 29, Type (0, 0), BuildingBlock: EZIPEK_clean_linker_0, # of connection points: 2
#     Edge 30, Type (0, 0), BuildingBlock: EZIPEK_clean_linker_0, # of connection points: 2
#     Edge 31, Type (0, 0), BuildingBlock: EZIPEK_clean_linker_0, # of connection points: 2
#     Edge 32, Type (0, 0), BuildingBlock: EZIPEK_clean_linker_0, # of connection points: 2
#     Edge 33, Type (0, 0), BuildingBlock: EZIPEK_clean_linker_0, # of connection points: 2
#     Edge 34, Type (0, 0), BuildingBlock: EZIPEK_clean_linker_0, # of connection points: 2
#     Edge 35, Type (0, 0), BuildingBlock: EZIPEK_clean_linker_0, # of connection points: 2
#     Edge 36, Type (0, 0), BuildingBlock: EZIPEK_clean_linker_0, # of connection points: 2
#     Edge 37, Type (0, 0), BuildingBlock: EZIPEK_clean_linker_0, # of connection points: 2
#     Edge 38, Type (0, 0), BuildingBlock: EZIPEK_clean_linker_0, # of connection points: 2
#     Edge 39, Type (0, 0), BuildingBlock: EZIPEK_clean_linker_0, # of connection points: 2
#     Edge 40, Type (0, 0), BuildingBlock: EZIPEK_clean_linker_0, # of connection points: 2
#     Edge 41, Type (0, 0), BuildingBlock: EZIPEK_clean_linker_0, # of connection points: 2
#     Edge 42, Type (0, 0), BuildingBlock: EZIPEK_clean_linker_0, # of connection points: 2
#     Edge 43, Type (0, 0), BuildingBlock: EZIPEK_clean_linker_0, # of connection points: 2
#     Edge 44, Type (0, 0), BuildingBlock: EZIPEK_clean_linker_0, # of connection points: 2
#     Edge 45, Type (0, 0), BuildingBlock: EZIPEK_clean_linker_0, # of connection points: 2
#     Edge 46, Type (0, 0), BuildingBlock: EZIPEK_clean_linker_0, # of connection points: 2
#     Edge 47, Type (0, 0), BuildingBlock: EZIPEK_clean_linker_0, # of connection points: 2
#     Edge 48, Type (0, 0), BuildingBlock: EZIPEK_clean_linker_0, # of connection points: 2
#     Edge 49, Type (0, 0), BuildingBlock: EZIPEK_clean_linker_0, # of connection points: 2
#     Edge 50, Type (0, 0), BuildingBlock: EZIPEK_clean_linker_0, # of connection points: 2
#     Edge 51, Type (0, 0), BuildingBlock: EZIPEK_clean_linker_0, # of connection points: 2
#     Edge 52, Type (0, 0), BuildingBlock: EZIPEK_clean_linker_0, # of connection points: 2
#     Edge 53, Type (0, 0), BuildingBlock: EZIPEK_clean_linker_0, # of connection points: 2
#     Edge 54, Type (0, 0), BuildingBlock: EZIPEK_clean_linker_0, # of connection points: 2
#     Edge 55, Type (0, 0), BuildingBlock: EZIPEK_clean_linker_0, # of connection points: 2
#     Edge 56, Type (0, 0), BuildingBlock: EZIPEK_clean_linker_0, # of connection points: 2
#     Edge 57, Type (0, 0), BuildingBlock: EZIPEK_clean_linker_0, # of connection points: 2
#     Edge 58, Type (0, 0), BuildingBlock: EZIPEK_clean_linker_0, # of connection points: 2
#     Edge 59, Type (0, 0), BuildingBlock: EZIPEK_clean_linker_0, # of connection points: 2
#     Edge 60, Type (0, 0), BuildingBlock: EZIPEK_clean_linker_0, # of connection points: 2
#     Edge 61, Type (0, 0), BuildingBlock: EZIPEK_clean_linker_0, # of connection points: 2
#     Edge 62, Type (0, 0), BuildingBlock: EZIPEK_clean_linker_0, # of connection points: 2
#     Edge 63, Type (0, 0), BuildingBlock: EZIPEK_clean_linker_0, # of connection points: 2
#     Edge 64, Type (0, 0), BuildingBlock: EZIPEK_clean_linker_0, # of connection points: 2
#     Edge 65, Type (0, 0), BuildingBlock: EZIPEK_clean_linker_0, # of connection points: 2
#     Edge 66, Type (0, 0), BuildingBlock: EZIPEK_clean_linker_0, # of connection points: 2
#     Edge 67, Type (0, 0), BuildingBlock: EZIPEK_clean_linker_0, # of connection points: 2
#     Edge 68, Type (0, 0), BuildingBlock: EZIPEK_clean_linker_0, # of connection points: 2
#     Edge 69, Type (0, 0), BuildingBlock: EZIPEK_clean_linker_0, # of connection points: 2
#     Edge 70, Type (0, 0), BuildingBlock: EZIPEK_clean_linker_0, # of connection points: 2
#     Edge 71, Type (0, 0), BuildingBlock: EZIPEK_clean_linker_0, # of connection points: 2
# Relax obj value: 0.436
# Max RMSD: 0.150
# Mean RMSD: 0.150
data_MOF--net-lcy-a--node1-GALJAG_clean_sbu_0--edge1-EZIPEK_clean_linker_0
_symmetry_space_group_name_H-M    P1
_symmetry_Int_Tables_number       1
_symmetry_cell_setting            triclinic
loop_
_symmetry_equiv_pos_as_xyz
'x, y, z'
_cell_length_a     41.307178
_cell_length_b     41.392254
_cell_length_c     41.33319
_cell_angle_alpha  89.718209
_cell_angle_beta   90.058214
_cell_angle_gamma 90.07409
loop_
_atom_site_label
_atom_site_type_symbol
_atom_site_fract_x
_atom_site_fract_y
_atom_site_fract_z
_atom_type_partial_charge
In0 In 0.19629 0.28213 0.39293 0.0
O1 O 0.23935 0.30375 0.41836 0.0
O2 O 0.19252 0.31855 0.43413 0.0
C3 C 0.24056 0.25716 0.35361 0.0
C4 C 0.17147 0.23658 0.43119 0.0
C5 C 0.16106 0.31095 0.34577 0.0
O6 O 0.21761 0.24041 0.36481 0.0
O7 O 0.24125 0.28635 0.36221 0.0
O8 O 0.16209 0.28076 0.34963 0.0
O9 O 0.17574 0.32641 0.36754 0.0
C10 C 0.22285 0.32081 0.43735 0.0
O11 O 0.15414 0.2589 0.4195 0.0
O12 O 0.20098 0.23734 0.42377 0.0
In13 In 0.92616 0.92541 0.61812 0.0
O14 O 0.93854 0.87285 0.62916 0.0
O15 O 0.96132 0.91033 0.65654 0.0
C16 C 0.88419 0.9246 0.56905 0.0
C17 C 0.88902 0.95166 0.66374 0.0
C18 C 0.97645 0.9527 0.58753 0.0
O19 O 0.89479 0.89848 0.58101 0.0
O20 O 0.89426 0.95007 0.58214 0.0
O21 O 0.96159 0.96637 0.61032 0.0
O22 O 0.96638 0.92484 0.58041 0.0
C23 C 0.95841 0.88057 0.65111 0.0
O24 O 0.91127 0.967 0.64952 0.0
O25 O 0.8853 0.92263 0.6552 0.0
In26 In 0.26443 0.72412 0.90363 0.0
O27 O 0.3087 0.74416 0.92813 0.0
O28 O 0.26236 0.7554 0.94831 0.0
C29 C 0.29209 0.68804 0.8578 0.0
C30 C 0.23774 0.67798 0.94068 0.0
C31 C 0.23465 0.77113 0.86982 0.0
O32 O 0.30887 0.70429 0.87735 0.0
O33 O 0.2619 0.6904 0.86103 0.0
O34 O 0.2195 0.74886 0.88426 0.0
O35 O 0.26501 0.7701 0.87272 0.0
C36 C 0.29271 0.7584 0.94981 0.0
O37 O 0.22096 0.69657 0.92315 0.0
O38 O 0.2679 0.68236 0.93935 0.0
In39 In 0.53054 0.0322 0.14526 0.0
O40 O 0.52459 0.07916 0.17171 0.0
O41 O 0.51195 0.03605 0.19673 0.0
C42 C 0.55924 0.05984 0.09388 0.0
C43 C 0.57397 0.99016 0.16947 0.0
C44 C 0.47321 0.01447 0.12117 0.0
O45 O 0.56056 0.07209 0.1217 0.0
O46 O 0.54348 0.03376 0.0922 0.0
O47 O 0.49693 -0.0046 0.12329 0.0
O48 O 0.4782 0.04286 0.13087 0.0
C49 C 0.51396 0.06637 0.19734 0.0
O50 O 0.5443 0.98346 0.16738 0.0
O51 O 0.58185 0.0175 0.15852 0.0
In52 In 0.72611 0.22215 0.59193 0.0
O53 O 0.76511 0.2065 0.55688 0.0
O54 O 0.72788 0.17262 0.5686 0.0
C55 C 0.75838 0.27722 0.60404 0.0
C56 C 0.67147 0.23471 0.55969 0.0
C57 C 0.7314 0.19593 0.65093 0.0
O58 O 0.76488 0.25891 0.58062 0.0
O59 O 0.73425 0.26826 0.62056 0.0
O60 O 0.70702 0.2126 0.64302 0.0
O61 O 0.75251 0.1925 0.62926 0.0
C62 C 0.75328 0.17874 0.55279 0.0
O63 O 0.67264 0.21296 0.58107 0.0
O64 O 0.69718 0.25046 0.55549 0.0
In65 In 0.00909 0.4713 0.83344 0.0
O66 O 0.03358 0.50895 0.80138 0.0
O67 O 0.0609 0.46765 0.81582 0.0
C68 C 0.95196 0.49978 0.84595 0.0
C69 C 0.99169 0.41848 0.80139 0.0
C70 C 0.03388 0.47656 0.89276 0.0
O71 O 0.97115 0.50999 0.82437 0.0
O72 O 0.96149 0.47453 0.86023 0.0
O73 O 0.02668 0.44936 0.881 0.0
O74 O 0.02827 0.50064 0.87485 0.0
C75 C 0.06039 0.49435 0.80105 0.0
O76 O 0.00565 0.41708 0.82851 0.0
O77 O 0.98683 0.44647 0.79026 0.0
In78 In 0.79112 0.7824 0.11204 0.0
O79 O 0.83055 0.78953 0.07485 0.0
O80 O 0.81787 0.74128 0.0884 0.0
C81 C 0.82477 0.79618 0.16597 0.0
C82 C 0.75735 0.8248 0.07694 0.0
C83 C 0.73973 0.7524 0.13724 0.0
O84 O 0.81593 0.76788 0.15909 0.0
O85 O 0.81808 0.81692 0.14449 0.0
O86 O 0.74829 0.78041 0.14555 0.0
O87 O 0.75733 0.73894 0.11624 0.0
C88 C 0.83503 0.75974 0.07116 0.0
O89 O 0.75559 0.79481 0.07205 0.0
O90 O 0.7763 0.83352 0.09921 0.0
In91 In 0.45913 0.50164 0.33641 0.0
O92 O 0.4534 0.5377 0.29515 0.0
O93 O 0.48695 0.54839 0.33291 0.0
C94 C 0.4305 0.516 0.3927 0.0
C95 C 0.41696 0.46557 0.30221 0.0
C96 C 0.51608 0.47201 0.34705 0.0
O97 O 0.43668 0.53735 0.37176 0.0
O98 O 0.43895 0.48767 0.38553 0.0
O99 O 0.50984 0.48597 0.32061 0.0
O100 O 0.49369 0.47281 0.36771 0.0
C101 C 0.47428 0.55684 0.30644 0.0
O102 O 0.44696 0.46008 0.30182 0.0
O103 O 0.40847 0.48889 0.31964 0.0
In104 In 0.4048 0.22094 0.24501 0.0
O105 O 0.44801 0.25461 0.25321 0.0
O106 O 0.42321 0.23494 0.29409 0.0
C107 C 0.38104 0.24188 0.188 0.0
C108 C 0.439 0.16667 0.24013 0.0
C109 C 0.34851 0.22377 0.27572 0.0
O110 O 0.39966 0.25884 0.20532 0.0
O111 O 0.3759 0.21391 0.19905 0.0
O112 O 0.35878 0.19763 0.26387 0.0
O113 O 0.36638 0.2482 0.27168 0.0
C114 C 0.44612 0.25213 0.28366 0.0
O115 O 0.41799 0.17052 0.26182 0.0
O116 O 0.44207 0.18977 0.22037 0.0
In117 In 0.04313 0.1115 0.51379 0.0
O118 O 0.00434 0.14669 0.53015 0.0
O119 O 0.03782 0.12959 0.56548 0.0
C120 C 0.00456 0.10366 0.46242 0.0
C121 C 0.09623 0.14531 0.49847 0.0
C122 C 0.04938 0.04918 0.53274 0.0
O123 O -0.00599 0.10352 0.49107 0.0
O124 O 0.03464 0.10798 0.45939 0.0
O125 O 0.05081 0.05799 0.50361 0.0
O126 O 0.04563 0.07214 0.5523 0.0
C127 C 0.01361 0.14712 0.55922 0.0
O128 O 0.09821 0.11738 0.51058 0.0
O129 O 0.06803 0.15611 0.49515 0.0
In130 In 0.09326 0.7807 0.76462 0.0
O131 O 0.07136 0.8247 0.73989 0.0
O132 O 0.04855 0.77901 0.73296 0.0
C133 C 0.13955 0.81622 0.7944 0.0
C134 C 0.05828 0.75 0.80978 0.0
C135 C 0.1301 0.7392 0.73177 0.0
O136 O 0.14054 0.80931 0.76477 0.0
O137 O 0.11406 0.80676 0.80824 0.0
O138 O 0.12594 0.73732 0.76193 0.0
O139 O 0.11562 0.76211 0.71769 0.0
C140 C 0.04865 0.80885 0.72711 0.0
O141 O 0.07332 0.73509 0.78791 0.0
O142 O 0.06053 0.78041 0.80877 0.0
In143 In 0.42615 0.86563 0.0516 0.0
O144 O 0.45125 0.81869 0.06598 0.0
O145 O 0.44524 0.85481 0.10205 0.0
C146 C 0.47534 0.88459 0.01366 0.0
C147 C 0.37657 0.83109 0.02904 0.0
C148 C 0.40331 0.92376 0.06975 0.0
O149 O 0.47842 0.87987 0.04362 0.0
O150 O 0.44742 0.87954 0.00235 0.0
O151 O 0.41091 0.91727 0.041 0.0
O152 O 0.40623 0.90023 0.08905 0.0
C153 C 0.45597 0.82728 0.09483 0.0
O154 O 0.37459 0.84636 0.05522 0.0
O155 O 0.40335 0.83286 0.01469 0.0
In156 In 0.91808 0.259 0.70104 0.0
O157 O 0.91423 0.3028 0.73269 0.0
O158 O 0.96135 0.28866 0.71654 0.0
C159 C 0.86884 0.28553 0.66788 0.0
C160 C 0.94884 0.22395 0.6558 0.0
C161 C 0.9087 0.22061 0.75264 0.0
O162 O 0.89689 0.29746 0.66744 0.0
O163 O 0.86561 0.26055 0.68515 0.0
O164 O 0.93609 0.23231 0.74592 0.0
O165 O 0.88612 0.22859 0.73362 0.0
C166 C 0.94429 0.30817 0.73257 0.0
O167 O 0.92739 0.21218 0.67396 0.0
O168 O 0.95496 0.25339 0.66039 0.0
In169 In 0.95383 0.64951 0.95436 0.0
O170 O 0.90654 0.66899 0.97311 0.0
O171 O 0.94939 0.69692 0.98102 0.0
C172 C 0.92923 0.60051 0.91989 0.0
C173 C 0.98713 0.68182 0.90876 0.0
C174 C 0.9809 0.62478 0.00814 0.0
O175 O 0.91336 0.62592 0.92498 0.0
O176 O 0.95682 0.59945 0.93287 0.0
O177 O -0.00272 0.63685 0.98532 0.0
O178 O 0.95073 0.62424 0.0035 0.0
C179 C 0.91936 0.69373 0.98538 0.0
O180 O 0.00084 0.66444 0.9298 0.0
O181 O 0.95671 0.68301 0.91064 0.0
In182 In 0.56495 0.72116 0.23113 0.0
O183 O 0.53693 0.7651 0.21413 0.0
O184 O 0.53783 0.7239 0.18328 0.0
C185 C 0.58661 0.74387 0.28826 0.0
C186 C 0.52938 0.67104 0.25078 0.0
C187 C 0.62071 0.72065 0.19827 0.0
O188 O 0.56443 0.75752 0.27219 0.0
O189 O 0.59682 0.71814 0.27574 0.0
O190 O 0.60432 0.6952 0.20246 0.0
O191 O 0.60893 0.74593 0.21028 0.0
C192 C 0.52835 0.75248 0.18776 0.0
O193 O 0.55681 0.66759 0.23791 0.0
O194 O 0.51947 0.69973 0.25303 0.0
In195 In 0.55652 0.33297 0.43329 0.0
O196 O 0.51386 0.32895 0.39938 0.0
O197 O 0.55385 0.29708 0.39203 0.0
C198 C 0.51508 0.35616 0.47689 0.0
C199 C 0.58666 0.28826 0.46875 0.0
C200 C 0.58627 0.38382 0.40461 0.0
O201 O 0.50594 0.34464 0.45019 0.0
O202 O 0.54521 0.3558 0.48187 0.0
O203 O 0.58709 0.35571 0.39315 0.0
O204 O 0.57259 0.38536 0.43175 0.0
C205 C 0.52621 0.30653 0.38294 0.0
O206 O 0.60149 0.31208 0.45662 0.0
O207 O 0.55713 0.28599 0.46162 0.0
In208 In 0.26389 0.37568 0.20112 0.0
O209 O 0.29732 0.38016 0.24501 0.0
O210 O 0.30866 0.40742 0.20277 0.0
C211 C 0.21374 0.35554 0.23727 0.0
C212 C 0.23432 0.42568 0.17304 0.0
C213 C 0.29104 0.32751 0.16632 0.0
O214 O 0.24071 0.36365 0.24913 0.0
O215 O 0.212 0.35683 0.20678 0.0
O216 O 0.27455 0.32252 0.19151 0.0
O217 O 0.29315 0.35681 0.15852 0.0
C218 C 0.31595 0.40028 0.23152 0.0
O219 O 0.23983 0.39977 0.15807 0.0
O220 O 0.24368 0.42648 0.20202 0.0
In221 In 0.80727 0.08034 0.79493 0.0
O222 O 0.79785 0.04452 0.75445 0.0
O223 O 0.8441 0.04374 0.77718 0.0
C224 C 0.77593 0.12281 0.7574 0.0
C225 C 0.77623 0.04913 0.8422 0.0
C226 C 0.85227 0.12234 0.81627 0.0
O227 O 0.80263 0.11047 0.74947 0.0
O228 O 0.7649 0.11409 0.78453 0.0
O229 O 0.82239 0.126 0.82141 0.0
O230 O 0.85915 0.09656 0.80165 0.0
C231 C 0.82582 0.03247 0.75556 0.0
O232 O 0.80558 0.05694 0.84491 0.0
O233 O 0.76274 0.05709 0.81612 0.0
In234 In 0.12875 0.54903 0.05448 0.0
O235 O 0.16967 0.5558 0.01806 0.0
O236 O 0.15128 0.59753 0.04167 0.0
C237 C 0.09722 0.51767 0.00757 0.0
C238 C 0.16472 0.51811 0.09859 0.0
C239 C 0.07511 0.57548 0.08028 0.0
O240 O 0.10538 0.54691 0.00517 0.0
O241 O 0.10482 0.5039 0.0338 0.0
O242 O 0.07858 0.54545 0.0768 0.0
O243 O 0.09988 0.59174 0.07276 0.0
C244 C 0.17043 0.5861 0.02094 0.0
O245 O 0.15323 0.54575 0.10398 0.0
O246 O 0.15849 0.50656 0.07123 0.0
In247 In 0.70863 0.88059 0.27701 0.0
O248 O 0.68607 0.89357 0.22822 0.0
O249 O 0.66373 0.91134 0.27102 0.0
C250 C 0.76215 0.85023 0.25727 0.0
C251 C 0.73639 0.93293 0.30192 0.0
C252 C 0.67365 0.83415 0.30567 0.0
O253 O 0.74069 0.86033 0.23801 0.0
O254 O 0.75656 0.85478 0.2869 0.0
O255 O 0.68498 0.85754 0.32153 0.0
O256 O 0.68066 0.83384 0.27601 0.0
C257 C 0.6638 0.91031 0.24055 0.0
O258 O 0.72097 0.91301 0.31931 0.0
O259 O 0.73773 0.92649 0.27222 0.0
In260 In 0.34873 0.44083 0.53972 0.0
O261 O 0.33918 0.43538 0.59354 0.0
O262 O 0.31921 0.47604 0.56861 0.0
C263 C 0.40489 0.40874 0.53642 0.0
C264 C 0.30326 0.4019 0.51485 0.0
C265 C 0.36653 0.4939 0.50598 0.0
O266 O 0.3981 0.42648 0.56014 0.0
O267 O 0.3829 0.40588 0.51552 0.0
O268 O 0.38236 0.48305 0.52973 0.0
O269 O 0.3409 0.47833 0.50014 0.0
C270 C 0.32275 0.46095 0.59491 0.0
O271 O 0.31544 0.42515 0.49926 0.0
O272 O 0.31368 0.39834 0.54335 0.0
In273 In 0.23369 0.57613 0.7305 0.0
O274 O 0.24956 0.55697 0.68223 0.0
O275 O 0.26048 0.52887 0.72444 0.0
C276 C 0.20593 0.63151 0.71287 0.0
C277 C 0.17995 0.5471 0.75226 0.0
C278 C 0.28393 0.60009 0.76425 0.0
O279 O 0.21763 0.61261 0.69203 0.0
O280 O 0.20866 0.62265 0.74194 0.0
O281 O 0.2646 0.57928 0.77572 0.0
O282 O 0.2781 0.60798 0.73533 0.0
C283 C 0.26223 0.53189 0.69414 0.0
O284 O 0.20203 0.55659 0.77109 0.0
O285 O 0.18528 0.55146 0.72256 0.0
In286 In 0.65071 0.96699 0.97804 0.0
O287 O 0.6725 0.94443 0.02303 0.0
O288 O 0.67857 0.9199 0.978 0.0
C289 C 0.6321 0.02515 -0.00033 0.0
C290 C 0.6931 0.98844 0.93485 0.0
C291 C 0.59372 0.93706 0.97341 0.0
O292 O 0.65164 0.00718 0.01492 0.0
O293 O 0.62178 0.01331 0.97356 0.0
O294 O 0.61078 0.94243 0.94855 0.0
O295 O 0.60545 0.94646 -0.00013 0.0
C296 C 0.68386 0.9205 0.00805 0.0
O297 O 0.667 0.97496 0.92623 0.0
O298 O 0.6979 0.99032 0.96489 0.0
In299 In 0.83747 0.04325 0.42692 0.0
O300 O 0.80344 0.05245 0.38427 0.0
O301 O 0.82543 0.0062 0.38973 0.0
C302 C 0.89399 0.06741 0.40422 0.0
C303 C 0.81069 0.08572 0.46734 0.0
C304 C 0.83793 0.9921 0.46712 0.0
O305 O 0.88927 0.03776 0.40939 0.0
O306 O 0.86964 0.08473 0.40995 0.0
O307 O 0.81236 0.0015 0.45332 0.0
O308 O 0.86293 0.00838 0.46055 0.0
C309 C 0.80593 0.02382 0.3743 0.0
O310 O 0.83828 0.07371 0.47233 0.0
O311 O 0.7965 0.07638 0.44202 0.0
C312 C 0.13887 0.15517 0.45744 0.0
C313 C 0.1241 0.16412 0.48694 0.0
C314 C 0.14848 0.21787 0.48355 0.0
C315 C 0.15807 0.21075 0.45151 0.0
N316 N 0.16331 0.17333 0.40724 0.0
N317 N 0.11678 0.20176 0.53037 0.0
C318 C 0.15419 0.17936 0.43845 0.0
C319 C 0.12992 0.19475 0.5009 0.0
N320 N 0.1376 0.12377 0.44741 0.0
N321 N 0.15753 0.2465 0.49729 0.0
H322 H 0.10549 0.18415 0.54456 0.0
H323 H 0.11646 0.22473 0.54047 0.0
H324 H 0.17128 0.26382 0.48502 0.0
H325 H 0.15358 0.25225 0.52144 0.0
H326 H 0.15031 0.11503 0.42757 0.0
H327 H 0.12613 0.1056 0.46064 0.0
H328 H 0.15773 0.15216 0.39495 0.0
H329 H 0.17489 0.19039 0.39262 0.0
C330 C 0.01274 0.85595 0.65747 0.0
C331 C 0.97985 0.85727 0.66713 0.0
C332 C 0.99161 0.82524 0.71548 0.0
C333 C 0.02453 0.8239 0.70576 0.0
N334 N 0.06527 0.8309 0.66457 0.0
N335 N 0.93622 0.83886 0.70105 0.0
C336 C 0.03479 0.83716 0.67584 0.0
C337 C 0.96867 0.84028 0.69471 0.0
N338 N 0.02302 0.87341 0.63122 0.0
N339 N 0.9827 0.8137 0.74525 0.0
H340 H 0.91899 0.85025 0.68648 0.0
H341 H 0.92609 0.82443 0.71909 0.0
H342 H -0.00115 0.80255 0.76116 0.0
H343 H 0.95985 0.81704 0.75527 0.0
H344 H 0.0473 0.877 0.62549 0.0
H345 H 0.0072 0.88576 0.61587 0.0
H346 H 0.07311 0.83708 0.64143 0.0
H347 H 0.08202 0.81694 0.67734 0.0
C348 C 0.30503 0.81054 0.97732 0.0
C349 C 0.30883 0.77655 0.97555 0.0
C350 C 0.35281 0.77796 0.01491 0.0
C351 C 0.34987 0.81201 0.01575 0.0
N352 N 0.31891 0.86021 0.00503 0.0
N353 N 0.32918 0.72696 -0.00152 0.0
C354 C 0.32428 0.82811 -0.00042 0.0
C355 C 0.33047 0.75992 -0.00369 0.0
N356 N 0.28478 0.82618 0.95624 0.0
N357 N 0.37759 0.7631 0.03111 0.0
H358 H 0.31263 0.71316 0.98535 0.0
H359 H 0.3423 0.71349 0.01528 0.0
H360 H 0.39322 0.77551 0.04653 0.0
H361 H 0.38356 0.73885 0.02829 0.0
H362 H 0.28386 0.85119 0.95372 0.0
H363 H 0.27021 0.81418 0.93956 0.0
H364 H 0.29875 0.87262 -0.00362 0.0
H365 H 0.33323 0.87395 0.02056 0.0
C366 C 0.51433 0.11707 0.22859 0.0
C367 C 0.50016 0.08649 0.22322 0.0
C368 C 0.44695 0.10669 0.23763 0.0
C369 C 0.46026 0.13828 0.2391 0.0
N370 N 0.50728 0.17225 0.24666 0.0
N371 N 0.4581 0.04927 0.2389 0.0
C372 C 0.49432 0.14305 0.23825 0.0
C373 C 0.46816 0.08023 0.23345 0.0
N374 N 0.54667 0.12116 0.22295 0.0
N375 N 0.41418 0.10205 0.23772 0.0
H376 H 0.474 0.02975 0.23833 0.0
H377 H 0.43542 0.04353 0.24833 0.0
H378 H 0.39751 0.12077 0.2399 0.0
H379 H 0.40341 0.0798 0.23294 0.0
H380 H 0.55825 0.14349 0.22243 0.0
H381 H 0.56182 0.10158 0.21812 0.0
H382 H 0.53199 0.17652 0.24897 0.0
H383 H 0.49316 0.1918 0.25381 0.0
C384 C 0.61627 0.25607 0.549 0.0
C385 C 0.64377 0.23922 0.53792 0.0
C386 C 0.62598 0.24492 0.48177 0.0
C387 C 0.60212 0.26682 0.49247 0.0
N388 N 0.57179 0.2919 0.53548 0.0
N389 N 0.67295 0.21231 0.49557 0.0
C390 C 0.59586 0.27138 0.52594 0.0
C391 C 0.64776 0.2316 0.50477 0.0
N392 N 0.61021 0.2578 0.58145 0.0
N393 N 0.62751 0.23706 0.44971 0.0
H394 H 0.68754 0.20028 0.51236 0.0
H395 H 0.67965 0.2082 0.4717 0.0
H396 H 0.61129 0.24635 0.43266 0.0
H397 H 0.64316 0.21996 0.44012 0.0
H398 H 0.58923 0.26752 0.5913 0.0
H399 H 0.62522 0.24707 0.59871 0.0
H400 H 0.56833 0.29937 0.55921 0.0
H401 H 0.5556 0.30258 0.51934 0.0
C402 C 0.95179 0.33814 0.78396 0.0
C403 C 0.95834 0.33527 0.75047 0.0
C404 C 0.99101 0.38438 0.75183 0.0
C405 C 0.98096 0.38942 0.7842 0.0
N406 N 0.94675 0.37437 0.82929 0.0
N407 N 0.97951 0.35822 0.70093 0.0
C408 C 0.96006 0.36715 0.79992 0.0
C409 C 0.97681 0.35899 0.7339 0.0
N410 N 0.93854 0.31282 0.80074 0.0
N411 N 0.01481 0.40317 0.73855 0.0
H412 H 0.96894 0.34035 0.6867 0.0
H413 H 0.98971 0.37695 0.68743 0.0
H414 H 0.02621 0.4217 0.75118 0.0
H415 H 0.0254 0.39838 0.71622 0.0
H416 H 0.93626 0.31253 0.82584 0.0
H417 H 0.93286 0.29075 0.79003 0.0
H418 H 0.92869 0.36044 0.84008 0.0
H419 H 0.95127 0.39591 0.84147 0.0
C420 C 0.85382 0.74925 0.01495 0.0
C421 C 0.85924 0.74722 0.04877 0.0
C422 C 0.90625 0.71281 0.04077 0.0
C423 C 0.90108 0.71494 0.00688 0.0
N424 N 0.87513 0.74005 0.96107 0.0
N425 N 0.8944 0.73475 0.09364 0.0
C426 C 0.87647 0.73481 -0.00627 0.0
C427 C 0.88674 0.73145 0.06161 0.0
N428 N 0.82635 0.76362 0.00329 0.0
N429 N 0.92843 0.6916 0.05316 0.0
H430 H 0.88049 0.7484 0.10961 0.0
H431 H 0.91602 0.72658 0.10372 0.0
H432 H 0.94327 0.67739 0.03876 0.0
H433 H 0.93047 0.68622 0.07771 0.0
H434 H 0.81922 0.76267 0.97915 0.0
H435 H 0.80943 0.77492 0.01813 0.0
H436 H 0.85968 0.7567 0.95016 0.0
H437 H 0.89156 0.72968 0.945 0.0
C438 C 0.50109 0.64305 0.29649 0.0
C439 C 0.51106 0.64337 0.26365 0.0
C440 C 0.49522 0.58682 0.2579 0.0
C441 C 0.48361 0.58712 0.29019 0.0
N442 N 0.46684 0.61782 0.33672 0.0
N443 N 0.50967 0.61876 0.21087 0.0
C444 C 0.48374 0.61603 0.30837 0.0
C445 C 0.50557 0.61624 0.2436 0.0
N446 N 0.5099 0.6674 0.31695 0.0
N447 N 0.49831 0.55838 0.24152 0.0
H448 H 0.51652 0.64027 0.1995 0.0
H449 H 0.50304 0.60059 0.19482 0.0
H450 H 0.49185 0.53601 0.25123 0.0
H451 H 0.51005 0.55662 0.2193 0.0
H452 H 0.50614 0.66634 0.34186 0.0
H453 H 0.5238 0.68722 0.30983 0.0
H454 H 0.46369 0.63929 0.34937 0.0
H455 H 0.45301 0.59866 0.34568 0.0
C456 C 0.18538 0.46006 0.16566 0.0
C457 C 0.21798 0.45314 0.15762 0.0
C458 C 0.21729 0.49375 0.11459 0.0
C459 C 0.18444 0.50011 0.12207 0.0
N460 N 0.13899 0.49526 0.15836 0.0
N461 N 0.26747 0.46757 0.13036 0.0
C462 C 0.16914 0.48538 0.14905 0.0
C463 C 0.23477 0.47134 0.13388 0.0
N464 N 0.16944 0.44116 0.18777 0.0
N465 N 0.23142 0.50866 0.08857 0.0
H466 H 0.28093 0.45132 0.1443 0.0
H467 H 0.28178 0.48216 0.11561 0.0
H468 H 0.22001 0.52696 0.07538 0.0
H469 H 0.25388 0.5022 0.07924 0.0
H470 H 0.14467 0.44246 0.19208 0.0
H471 H 0.18062 0.42246 0.20054 0.0
H472 H 0.12785 0.48779 0.1797 0.0
H473 H 0.12594 0.513 0.14604 0.0
C474 C 0.72179 0.03702 0.91392 0.0
C475 C 0.71552 0.00338 0.91171 0.0
C476 C 0.75063 -0.00063 0.86441 0.0
C477 C 0.75823 0.03257 0.86783 0.0
N478 N 0.75631 0.08187 0.8986 0.0
N479 N 0.72807 0.9512 0.88927 0.0
C480 C 0.74563 0.051 0.89364 0.0
C481 C 0.73105 0.9841 0.88815 0.0
N482 N 0.70363 0.05594 0.934 0.0
N483 N 0.76178 0.98264 0.83824 0.0
H484 H 0.71412 0.93918 0.90659 0.0
H485 H 0.74147 0.93563 0.87483 0.0
H486 H 0.77765 0.99263 0.82128 0.0
H487 H 0.75395 0.95949 0.83231 0.0
H488 H 0.70475 0.08107 0.93405 0.0
H489 H 0.68508 0.0469 0.94856 0.0
H490 H 0.75064 0.09523 0.91911 0.0
H491 H 0.77309 0.0933 0.88355 0.0
C492 C 0.78725 0.96346 0.31253 0.0
C493 C 0.75318 0.96095 0.31559 0.0
C494 C 0.75221 0.00789 0.3511 0.0
C495 C 0.78639 0.01002 0.34809 0.0
N496 N 0.83433 -0.00207 0.31764 0.0
N497 N 0.70229 0.98549 0.32985 0.0
C498 C 0.80304 0.9907 0.32555 0.0
C499 C 0.73529 0.98483 0.33222 0.0
N500 N 0.80484 0.9386 0.29991 0.0
N501 N 0.73616 0.02604 0.37345 0.0
H502 H 0.68921 0.96873 0.31631 0.0
H503 H 0.6882 0.00426 0.33884 0.0
H504 H 0.74719 0.0441 0.38698 0.0
H505 H 0.71203 0.02213 0.37968 0.0
H506 H 0.83006 0.93813 0.29985 0.0
H507 H 0.79439 0.91683 0.29291 0.0
H508 H 0.847 0.9861 0.29943 0.0
H509 H 0.84621 0.01809 0.32711 0.0
C510 C 0.31199 0.50552 0.67308 0.0
C511 C 0.27777 0.50777 0.67363 0.0
C512 C 0.27318 0.47315 0.6263 0.0
C513 C 0.30744 0.47222 0.62472 0.0
N514 N 0.35953 0.48034 0.64985 0.0
N515 N 0.22551 0.48806 0.65708 0.0
C516 C 0.32689 0.48579 0.64943 0.0
C517 C 0.25823 0.48967 0.6522 0.0
N518 N 0.33016 0.52384 0.69376 0.0
N519 N 0.25513 0.45889 0.60253 0.0
H520 H 0.21404 0.49984 0.67616 0.0
H521 H 0.21003 0.47312 0.64407 0.0
H522 H 0.26532 0.44459 0.58448 0.0
H523 H 0.23027 0.462 0.59991 0.0
H524 H 0.35516 0.5264 0.69206 0.0
H525 H 0.32004 0.53816 0.71181 0.0
H526 H 0.37459 0.48685 0.66894 0.0
H527 H 0.37143 0.46702 0.63215 0.0
C528 C 0.25171 0.39398 0.48452 0.0
C529 C 0.27908 0.38025 0.50007 0.0
C530 C 0.26196 0.32658 0.4826 0.0
C531 C 0.23862 0.34106 0.46202 0.0
N532 N 0.21278 0.38918 0.44106 0.0
N533 N 0.31263 0.3335 0.51091 0.0
C534 C 0.23348 0.37492 0.46262 0.0
C535 C 0.28469 0.34646 0.49877 0.0
N536 N 0.24287 0.42507 0.49111 0.0
N537 N 0.26214 0.29382 0.48692 0.0
H538 H 0.3306 0.34711 0.52215 0.0
H539 H 0.31938 0.30956 0.5072 0.0
H540 H 0.24521 0.27863 0.47598 0.0
H541 H 0.27671 0.28221 0.50396 0.0
H542 H 0.22142 0.43538 0.48276 0.0
H543 H 0.25528 0.43942 0.50772 0.0
H544 H 0.21109 0.41412 0.43801 0.0
H545 H 0.19912 0.37624 0.42433 0.0
C546 C 0.84875 -0.00585 0.6756 0.0
C547 C 0.86758 0.9679 0.68689 0.0
C548 C 0.85142 0.97943 0.74252 0.0
C549 C 0.83741 0.00883 0.73166 0.0
N550 N 0.8262 0.04639 0.68791 0.0
N551 N 0.88849 0.93561 0.73086 0.0
C552 C 0.83652 0.01665 0.69816 0.0
C553 C 0.86907 0.96021 0.72028 0.0
N554 N 0.84242 -0.00262 0.64327 0.0
N555 N 0.84727 0.96965 0.77388 0.0
H556 H 0.90123 0.92062 0.71516 0.0
H557 H 0.89358 0.93131 0.75518 0.0
H558 H 0.83399 0.98299 0.79061 0.0
H559 H 0.85431 0.94705 0.7825 0.0
H560 H 0.82617 0.01423 0.63389 0.0
H561 H 0.85082 0.98095 0.62614 0.0
H562 H 0.82862 0.05449 0.66414 0.0
H563 H 0.81798 0.06429 0.70346 0.0
C564 C 0.22614 0.65421 -0.00473 0.0
C565 C 0.22304 0.6527 0.96113 0.0
C566 C 0.18622 0.60668 0.96595 0.0
C567 C 0.1905 0.60714 8e-05 0.0
N568 N 0.21995 0.62626 0.04658 0.0
N569 N 0.20689 0.62325 0.9136 0.0
C570 C 0.21214 0.6294 0.01457 0.0
C571 C 0.20514 0.6276 0.94634 0.0
N572 N 0.24111 0.68008 0.00934 0.0
N573 N 0.16287 0.58767 0.95229 0.0
H574 H 0.22081 0.63797 0.89847 0.0
H575 H 0.19713 0.60325 0.90188 0.0
H576 H 0.14813 0.5721 0.96554 0.0
H577 H 0.15618 0.58934 0.92804 0.0
H578 H 0.24093 0.68426 0.03416 0.0
H579 H 0.25149 0.6989 -0.00392 0.0
H580 H 0.23804 0.63975 0.05777 0.0
H581 H 0.21054 0.60796 0.06127 0.0
C582 C 0.61534 0.98256 0.2128 0.0
C583 C 0.59716 0.9693 0.18693 0.0
C584 C 0.62116 0.91614 0.19742 0.0
C585 C 0.64164 0.93037 0.22099 0.0
N586 N 0.66397 0.97866 0.24495 0.0
N587 N 0.58651 0.92487 0.1508 0.0
C588 C 0.64043 0.96404 0.22689 0.0
C589 C 0.60107 0.93643 0.17812 0.0
N590 N 0.60767 0.01219 0.22513 0.0
N591 N 0.61997 0.8833 0.19432 0.0
H592 H 0.57202 0.93915 0.13581 0.0
H593 H 0.59111 0.90202 0.14142 0.0
H594 H 0.63414 0.86767 0.20821 0.0
H595 H 0.603 0.87143 0.17997 0.0
H596 H 0.61816 0.02133 0.24613 0.0
H597 H 0.5884 0.02614 0.21669 0.0
H598 H 0.66586 0.00365 0.24728 0.0
H599 H 0.6837 0.96622 0.25461 0.0
C600 C 0.77925 0.12513 0.54372 0.0
C601 C 0.76823 0.15505 0.53103 0.0
C602 C 0.78842 0.14075 0.47738 0.0
C603 C 0.79632 0.10958 0.48933 0.0
N604 N 0.79526 0.0701 0.5325 0.0
N605 N 0.75772 0.18984 0.48513 0.0
C606 C 0.79071 0.10119 0.52216 0.0
C607 C 0.77158 0.16251 0.49767 0.0
N608 N 0.78002 0.12009 0.57645 0.0
N609 N 0.79829 0.1501 0.44716 0.0
H610 H 0.7454 0.20666 0.49918 0.0
H611 H 0.75605 0.19452 0.46041 0.0
H612 H 0.81126 0.13506 0.43171 0.0
H613 H 0.79633 0.1737 0.43854 0.0
H614 H 0.79111 0.1002 0.58725 0.0
H615 H 0.7722 0.13721 0.59312 0.0
H616 H 0.78805 0.0617 0.55517 0.0
H617 H 0.8038 0.05186 0.51748 0.0
C618 C 0.139 0.50256 0.75446 0.0
C619 C 0.14906 0.53381 0.76414 0.0
C620 C 0.10154 0.5387 0.79897 0.0
C621 C 0.09002 0.50866 0.78715 0.0
N622 N 0.09455 0.46472 0.74936 0.0
N623 N 0.13649 0.58468 0.78961 0.0
C624 C 0.10784 0.49133 0.76363 0.0
C625 C 0.12937 0.5528 0.78469 0.0
N626 N 0.15969 0.48313 0.73762 0.0
N627 N 0.08699 0.55304 0.8249 0.0
H628 H 0.15633 0.59623 0.77908 0.0
H629 H 0.12096 0.60046 0.80152 0.0
H630 H 0.06694 0.54331 0.83673 0.0
H631 H 0.09672 0.57303 0.83668 0.0
H632 H 0.15497 0.45889 0.73285 0.0
H633 H 0.18295 0.49033 0.73089 0.0
H634 H 0.10493 0.45302 0.72969 0.0
H635 H 0.07156 0.45613 0.75521 0.0
C636 C 0.68607 0.87281 0.04495 0.0
C637 C 0.70243 0.8951 0.02458 0.0
C638 C 0.7541 0.86839 0.0354 0.0
C639 C 0.73825 0.84816 0.05816 0.0
N640 N 0.69023 0.83251 0.08753 0.0
N641 N 0.7519 0.91702 0.00256 0.0
C642 C 0.70446 0.8506 0.06365 0.0
C643 C 0.73643 0.89362 0.02023 0.0
N644 N 0.65295 0.87237 0.04568 0.0
N645 N 0.78578 0.86279 0.02763 0.0
H646 H 0.73969 0.93569 0.9907 0.0
H647 H 0.77697 0.91941 0.00153 0.0
H648 H 0.7995 0.8445 0.03837 0.0
H649 H 0.79777 0.87442 0.00873 0.0
H650 H 0.63947 0.85449 0.05728 0.0
H651 H 0.63872 0.88855 0.03248 0.0
H652 H 0.66647 0.83577 0.09521 0.0
H653 H 0.70285 0.8156 0.10143 0.0
C654 C 0.34466 0.45059 0.24858 0.0
C655 C 0.34284 0.41635 0.24876 0.0
C656 C 0.39007 0.4138 0.28466 0.0
C657 C 0.39333 0.44787 0.28208 0.0
N658 N 0.37917 0.49733 0.25431 0.0
N659 N 0.36772 0.36501 0.26127 0.0
C660 C 0.37228 0.46585 0.2618 0.0
C661 C 0.36669 0.39777 0.26516 0.0
N662 N 0.31931 0.46873 0.23742 0.0
N663 N 0.40816 0.39691 0.30666 0.0
H664 H 0.35144 0.35249 0.24664 0.0
H665 H 0.38653 0.35067 0.27003 0.0
H666 H 0.42537 0.40772 0.32157 0.0
H667 H 0.40419 0.37261 0.31204 0.0
H668 H 0.31828 0.49375 0.23988 0.0
H669 H 0.29774 0.45877 0.22899 0.0
H670 H 0.36627 0.51052 0.23707 0.0
H671 H 0.39992 0.50912 0.26253 0.0
C672 C 0.4979 0.31236 0.32984 0.0
C673 C 0.50896 0.29213 0.35536 0.0
C674 C 0.48528 0.24514 0.32886 0.0
C675 C 0.47012 0.26598 0.30607 0.0
N676 N 0.4587 0.31998 0.28687 0.0
N677 N 0.50925 0.23999 0.38195 0.0
C678 C 0.47574 0.29977 0.30682 0.0
C679 C 0.50191 0.25863 0.35552 0.0
N680 N 0.50914 0.34335 0.32721 0.0
N681 N 0.48424 0.21238 0.32475 0.0
H682 H 0.52079 0.24891 0.40249 0.0
H683 H 0.50119 0.21629 0.38481 0.0
H684 H 0.47221 0.20137 0.30556 0.0
H685 H 0.49789 0.19629 0.33859 0.0
H686 H 0.50427 0.35825 0.30743 0.0
H687 H 0.52594 0.35317 0.34329 0.0
H688 H 0.45916 0.34505 0.28895 0.0
H689 H 0.44199 0.31178 0.26987 0.0
C690 C 0.963 0.16471 0.58754 0.0
C691 C -0.00287 0.16669 0.58411 0.0
C692 C -0.00021 0.20364 0.63011 0.0
C693 C 0.96548 0.20458 0.63096 0.0
N694 N 0.91436 0.19149 0.60571 0.0
N695 N 0.04729 0.19358 0.59766 0.0
C696 C 0.947 0.18665 0.60833 0.0
C697 C 0.01539 0.18768 0.60416 0.0
N698 N 0.94593 0.14101 0.5721 0.0
N699 N 0.01755 0.21675 0.65471 0.0
H700 H 0.05942 0.18327 0.57822 0.0
H701 H 0.06074 0.21127 0.6095 0.0
H702 H 0.00712 0.22781 0.67476 0.0
H703 H 0.0425 0.21371 0.65684 0.0
H704 H 0.92147 0.1366 0.57641 0.0
H705 H 0.9568 0.12353 0.55766 0.0
H706 H 0.90037 0.18139 0.58736 0.0
H707 H 0.9018 0.20822 0.61968 0.0
C708 C -0.00089 0.69273 0.85045 0.0
C709 C 0.00538 0.69931 0.8835 0.0
C710 C 0.04844 0.73702 0.86814 0.0
C711 C 0.03984 0.73293 0.83517 0.0
N712 N 0.0032 0.71156 0.79507 0.0
N713 N 0.03187 0.73174 0.92409 0.0
C714 C 0.01411 0.71206 0.82631 0.0
C715 C 0.02893 0.72256 0.89248 0.0
N716 N 0.97996 0.66713 0.84207 0.0
N717 N 0.07597 0.75353 0.87619 0.0
H718 H 0.01774 0.72202 0.94264 0.0
H719 H 0.0462 0.75107 0.9315 0.0
H720 H 0.0913 0.76403 0.85906 0.0
H721 H 0.08527 0.75426 0.8996 0.0
H722 H 0.97725 0.65916 0.81836 0.0
H723 H 0.9693 0.65181 0.8591 0.0
H724 H 0.98232 0.69936 0.78797 0.0
H725 H 0.01319 0.72582 0.77674 0.0
C726 C 0.47845 0.76077 0.15438 0.0
C727 C 0.51013 0.77071 0.16309 0.0
C728 C 0.50578 0.81827 0.12797 0.0
C729 C 0.47469 0.80752 0.11796 0.0
N730 N 0.43266 0.767 0.11807 0.0
N731 N 0.55667 0.80478 0.1539 0.0
C732 C 0.46148 0.77815 0.12994 0.0
C733 C 0.52454 0.7984 0.14879 0.0
N734 N 0.46402 0.73571 0.1706 0.0
N735 N 0.51737 0.84753 0.11763 0.0
H736 H 0.57143 0.79043 0.16856 0.0
H737 H 0.56957 0.82251 0.14144 0.0
H738 H 0.50554 0.86192 0.10059 0.0
H739 H 0.53784 0.85856 0.12733 0.0
H740 H 0.43975 0.72948 0.16798 0.0
H741 H 0.47569 0.72245 0.18869 0.0
H742 H 0.42361 0.74399 0.12285 0.0
H743 H 0.41848 0.78008 0.10177 0.0
C744 C 0.15979 0.35948 0.31012 0.0
C745 C 0.1541 0.32606 0.31375 0.0
C746 C 0.17226 0.31626 0.25858 0.0
C747 C 0.18594 0.34774 0.25842 0.0
N748 N 0.18588 0.40213 0.27889 0.0
N749 N 0.13686 0.27813 0.28643 0.0
C750 C 0.17683 0.37053 0.28233 0.0
C751 C 0.15404 0.30627 0.28602 0.0
N752 N 0.14937 0.37991 0.33372 0.0
N753 N 0.17884 0.29528 0.23407 0.0
H754 H 0.12233 0.27185 0.30616 0.0
H755 H 0.13419 0.2632 0.2664 0.0
H756 H 0.1917 0.302 0.21343 0.0
H757 H 0.17276 0.27087 0.23479 0.0
H758 H 0.15189 0.40489 0.33293 0.0
H759 H 0.13587 0.37134 0.35334 0.0
H760 H 0.1824 0.41974 0.2964 0.0
H761 H 0.19707 0.41079 0.25794 0.0
C762 C 0.86418 0.9407 0.48299 0.0
C763 C 0.83963 0.96374 0.48891 0.0
C764 C 0.83353 0.94309 0.54401 0.0
C765 C 0.8633 0.9268 0.54034 0.0
N766 N 0.90518 0.90557 0.50615 0.0
N767 N 0.79649 0.98345 0.52287 0.0
C768 C 0.87752 0.92329 0.50946 0.0
C769 C 0.82219 0.96323 0.51848 0.0
N770 N 0.87483 0.9361 0.45208 0.0
N771 N 0.81707 0.93992 0.57249 0.0
H772 H 0.78642 -0.00295 0.50417 0.0
H773 H 0.78533 0.98725 0.54507 0.0
H774 H 0.82562 0.92514 0.5912 0.0
H775 H 0.79419 0.9495 0.57668 0.0
H776 H 0.89118 0.91818 0.44554 0.0
H777 H 0.8648 0.94854 0.43244 0.0
H778 H 0.91923 0.9054 0.48527 0.0
H779 H 0.9146 0.8916 0.52499 0.0
C780 C 0.31202 0.65192 0.77731 0.0
C781 C 0.30531 0.61944 0.78566 0.0
C782 C 0.30881 0.63252 0.84297 0.0
C783 C 0.3061 0.66558 0.83429 0.0
N784 N 0.30952 0.7079 0.79431 0.0
N785 N 0.31366 0.57698 0.82422 0.0
C786 C 0.30997 0.67573 0.80177 0.0
C787 C 0.30949 0.60911 0.81799 0.0
N788 N 0.32061 0.65959 0.74636 0.0
N789 N 0.30835 0.62375 0.87488 0.0
H790 H 0.31532 0.56024 0.80545 0.0
H791 H 0.31815 0.56735 0.84708 0.0
H792 H 0.30887 0.64075 0.89345 0.0
H793 H 0.30701 0.59998 0.88305 0.0
H794 H 0.32732 0.68272 0.73898 0.0
H795 H 0.32476 0.64174 0.72909 0.0
H796 H 0.30823 0.71681 0.77074 0.0
H797 H 0.30929 0.72571 0.81211 0.0
C798 C 0.61149 0.07718 0.0688 0.0
C799 C 0.57774 0.07198 0.06573 0.0
C800 C 0.58465 0.06124 0.00828 0.0
C801 C 0.61734 0.05387 0.01508 0.0
N802 N 0.6648 0.06674 0.04584 0.0
N803 N 0.53113 0.06928 0.03112 0.0
C804 C 0.63186 0.06649 0.04333 0.0
C805 C 0.56395 0.06811 0.03464 0.0
N806 N 0.62366 0.09139 0.09593 0.0
N807 N 0.57383 0.06135 0.97711 0.0
H808 H 0.51614 0.07625 0.05017 0.0
H809 H 0.51905 0.06297 0.00994 0.0
H810 H 0.58971 0.05878 0.95767 0.0
H811 H 0.55034 0.06764 0.97048 0.0
H812 H 0.6481 0.09626 0.09955 0.0
H813 H 0.60871 0.10138 0.11351 0.0
H814 H 0.67742 0.07273 0.06676 0.0
H815 H 0.67946 0.06088 0.02614 0.0
C816 C 0.76367 0.19376 0.70167 0.0
C817 C 0.73662 0.1827 0.68364 0.0
C818 C 0.73074 0.13579 0.71928 0.0
C819 C 0.75909 0.1457 0.73593 0.0
N820 N 0.79781 0.18706 0.74918 0.0
N821 N 0.68941 0.14875 0.67948 0.0
C822 C 0.774 0.1758 0.72913 0.0
C823 C 0.71827 0.15569 0.6941 0.0
N824 N 0.77984 0.22095 0.69185 0.0
N825 N 0.71717 0.10635 0.726 0.0
H826 H 0.68011 0.16237 0.66035 0.0
H827 H 0.67335 0.13124 0.68788 0.0
H828 H 0.7253 0.09132 0.74462 0.0
H829 H 0.69898 0.09585 0.71214 0.0
H830 H 0.80192 0.22846 0.70136 0.0
H831 H 0.77139 0.23587 0.67325 0.0
H832 H 0.80832 0.20984 0.74717 0.0
H833 H 0.80544 0.1744 0.76971 0.0
C834 C 0.0931 0.47735 0.96295 0.0
C835 C 0.07843 0.5017 0.98196 0.0
C836 C 0.0305 0.50093 0.94722 0.0
C837 C 0.04734 0.48076 0.92541 0.0
N838 N 0.09523 0.45083 0.91085 0.0
N839 N 0.0336 0.53744 0.9926 0.0
C840 C 0.07855 0.46864 0.93307 0.0
C841 C 0.0471 0.51353 0.97436 0.0
N842 N 0.12125 0.46317 0.97305 0.0
N843 N -0.0016 0.50742 0.9422 0.0
H844 H 0.04386 0.54561 0.01412 0.0
H845 H 0.01316 0.55037 0.9855 0.0
H846 H 0.98541 0.49787 0.9228 0.0
H847 H 0.98391 0.51959 0.95873 0.0
H848 H 0.13126 0.44295 0.96204 0.0
H849 H 0.13343 0.47001 -0.00597 0.0
H850 H 0.11955 0.44473 0.9133 0.0
H851 H 0.08547 0.44385 0.88869 0.0
C852 C 0.79686 0.80192 0.24713 0.0
C853 C 0.7923 0.83586 0.24512 0.0
C854 C 0.83501 0.83965 0.2046 0.0
C855 C 0.83134 0.80631 0.19967 0.0
N856 N 0.82553 0.75505 0.22587 0.0
N857 N 0.81022 0.88806 0.22579 0.0
C858 C 0.81825 0.78714 0.22473 0.0
C859 C 0.81324 0.85522 0.22582 0.0
N860 N 0.77887 0.78394 0.2683 0.0
N861 N 0.85754 0.85607 0.18692 0.0
H862 H 0.79399 0.90001 0.24082 0.0
H863 H 0.82265 0.90331 0.21001 0.0
H864 H 0.87268 0.84391 0.17081 0.0
H865 H 0.86286 0.88044 0.19011 0.0
H866 H 0.77871 0.75881 0.2688 0.0
H867 H 0.76346 0.79444 0.28521 0.0
H868 H 0.81781 0.73942 0.24408 0.0
H869 H 0.84188 0.745 0.20949 0.0
C870 C 0.4147 0.52207 0.48231 0.0
C871 C 0.38095 0.51646 0.4818 0.0
C872 C 0.37959 0.52608 0.42352 0.0
C873 C 0.41382 0.52315 0.42325 0.0
N874 N 0.46478 0.52223 0.4517 0.0
N875 N 0.33068 0.52982 0.45617 0.0
C876 C 0.43172 0.52302 0.45253 0.0
C877 C 0.36311 0.52413 0.45362 0.0
N878 N 0.42994 0.52734 0.5111 0.0
N879 N 0.36296 0.5284 0.395 0.0
H880 H 0.31916 0.53013 0.47865 0.0
H881 H 0.31609 0.53732 0.43703 0.0
H882 H 0.3745 0.53065 0.37266 0.0
H883 H 0.33787 0.52702 0.39323 0.0
H884 H 0.45433 0.53336 0.51313 0.0
H885 H 0.41699 0.5295 0.53266 0.0
H886 H 0.47913 0.5182 0.47205 0.0
H887 H 0.47786 0.52435 0.43019 0.0
C888 C 0.26618 0.25497 0.29939 0.0
C889 C 0.26502 0.24377 0.3318 0.0
C890 C 0.31388 0.21156 0.32361 0.0
C891 C 0.31751 0.22641 0.29283 0.0
N892 N 0.29738 0.26062 0.24996 0.0
N893 N 0.28734 0.21261 0.37592 0.0
C894 C 0.29354 0.24747 0.28017 0.0
C895 C 0.28837 0.22185 0.34409 0.0
N896 N 0.24075 0.27224 0.28702 0.0
N897 N 0.33513 0.18818 0.33347 0.0
H898 H 0.26885 0.21939 0.39163 0.0
H899 H 0.30575 0.19991 0.38752 0.0
H900 H 0.35512 0.18112 0.31991 0.0
H901 H 0.33178 0.17398 0.35405 0.0
H902 H 0.23872 0.27911 0.26287 0.0
H903 H 0.2202 0.27776 0.30054 0.0
H904 H 0.28314 0.27918 0.2407 0.0
H905 H 0.31574 0.25352 0.2342 0.0
C906 C 0.02908 0.98197 0.58967 0.0
C907 C 0.00367 0.96871 0.5708 0.0
C908 C 0.0266 -0.00574 0.52268 0.0
C909 C 0.04452 0.01503 0.54301 0.0
N910 N 0.0706 0.02345 0.59418 0.0
N911 N 0.97831 0.96169 0.51836 0.0
C912 C 0.04865 0.00679 0.57603 0.0
C913 C 0.00286 0.97392 0.53682 0.0
N914 N 0.0343 0.97067 0.62036 0.0
N915 N 0.03231 -0.0061 0.49019 0.0
H916 H 0.95994 0.9471 0.52758 0.0
H917 H 0.97486 0.96813 0.4942 0.0
H918 H 0.05169 0.00641 0.47989 0.0
H919 H 0.02102 0.97779 0.4745 0.0
H920 H 0.05359 0.97785 0.63486 0.0
H921 H 0.0207 0.95181 0.63032 0.0
H922 H 0.07248 0.02157 0.61922 0.0
H923 H 0.08696 0.03962 0.58362 0.0
C924 C 0.22297 0.80105 0.8178 0.0
C925 C 0.2173 0.7965 0.85143 0.0
C926 C 0.16662 0.82677 0.84732 0.0
C927 C 0.16911 0.8244 0.81332 0.0
N928 N 0.20569 0.82837 0.76851 0.0
N929 N 0.19055 0.81434 0.89984 0.0
C930 C 0.19959 0.81818 0.79932 0.0
C931 C 0.19139 0.81286 0.86682 0.0
N932 N 0.24899 0.78706 0.8031 0.0
N933 N 0.14008 0.84138 0.86032 0.0
H934 H 0.2093 0.80525 0.91418 0.0
H935 H 0.17255 0.82582 0.91303 0.0
H936 H 0.12331 0.85343 0.84568 0.0
H937 H 0.13503 0.84247 0.88492 0.0
H938 H 0.25221 0.78683 0.77813 0.0
H939 H 0.2668 0.77439 0.81564 0.0
H940 H 0.2282 0.8263 0.75739 0.0
H941 H 0.18894 0.84235 0.7557 0.0
C942 C 0.42153 0.98512 0.12941 0.0
C943 C 0.44185 0.00343 0.1087 0.0
C944 C 0.41375 0.9823 0.06153 0.0
C945 C 0.40148 0.95749 0.08161 0.0
N946 N 0.37876 0.94459 0.13328 0.0
N947 N 0.4538 0.02493 0.05586 0.0
C948 C 0.39999 0.96243 0.11532 0.0
C949 C 0.43613 0.0045 0.07495 0.0
N950 N 0.4247 0.98801 0.16216 0.0
N951 N 0.40435 0.98383 0.02993 0.0
H952 H 0.46947 0.04209 0.06566 0.0
H953 H 0.45351 0.02436 0.03069 0.0
H954 H 0.38677 0.96814 0.02081 0.0
H955 H 0.41133 0.00214 0.01405 0.0
H956 H 0.41273 0.97343 0.17888 0.0
H957 H 0.43984 0.00533 0.17256 0.0
H958 H 0.37545 0.94724 0.15807 0.0
H959 H 0.36257 0.92865 0.12223 0.0
C960 C 0.78267 0.30786 0.6497 0.0
C961 C 0.78291 0.30026 0.61651 0.0
C962 C 0.84177 0.30089 0.61559 0.0
C963 C 0.84125 0.29947 0.64996 0.0
N964 N 0.81313 0.30923 0.70002 0.0
N965 N 0.81029 0.30846 0.56626 0.0
C966 C 0.81226 0.30615 0.66714 0.0
C967 C 0.81189 0.30366 0.59888 0.0
N968 N 0.75422 0.31646 0.66396 0.0
N969 N 0.87002 0.29653 0.59902 0.0
H970 H 0.788 0.31079 0.55449 0.0
H971 H 0.83037 0.3132 0.55179 0.0
H972 H 0.8925 0.29468 0.61027 0.0
H973 H 0.87109 0.29344 0.57407 0.0
H974 H 0.75206 0.32342 0.68801 0.0
H975 H 0.73312 0.31946 0.65033 0.0
H976 H 0.79264 0.3108 0.71453 0.0
H977 H 0.83488 0.30991 0.7129 0.0
C978 C 0.91679 0.51566 0.89208 0.0
C979 C 0.92627 0.52074 0.85966 0.0
C980 C 0.91692 0.57855 0.86506 0.0
C981 C 0.91767 0.57408 0.89915 0.0
N982 N 0.9121 0.53915 0.94553 0.0
N983 N 0.9187 0.55287 0.81205 0.0
C984 C 0.91478 0.54276 0.91279 0.0
C985 C 0.92038 0.551 0.84497 0.0
N986 N 0.90994 0.48514 0.9026 0.0
N987 N 0.91554 0.609 0.85227 0.0
H988 H 0.92017 0.53213 0.79782 0.0
H989 H 0.91325 0.57383 0.7992 0.0
H990 H 0.91183 0.6294 0.86645 0.0
H991 H 0.91834 0.61426 0.8278 0.0
H992 H 0.90136 0.47982 0.9257 0.0
H993 H 0.90953 0.46565 0.88665 0.0
H994 H 0.91373 0.51697 0.9574 0.0
H995 H 0.90913 0.55888 0.9609 0.0
C996 C 0.68055 0.72689 0.20148 0.0
C997 C 0.65259 0.72109 0.18243 0.0
C998 C 0.68334 0.73048 0.13274 0.0
C999 C 0.71117 0.73685 0.15184 0.0
N1000 N 0.73891 0.73335 0.20301 0.0
N1001 N 0.62829 0.70992 0.13067 0.0
C1002 C 0.71058 0.73254 0.18585 0.0
C1003 C 0.6544 0.72013 0.14824 0.0
N1004 N 0.67813 0.7279 0.23446 0.0
N1005 N 0.68388 0.73652 0.10018 0.0
H1006 H 0.60643 0.70314 0.14133 0.0
H1007 H 0.62907 0.70564 0.10589 0.0
H1008 H 0.7046 0.74401 0.08787 0.0
H1009 H 0.66333 0.73621 0.08558 0.0
H1010 H 0.69651 0.73623 0.24954 0.0
H1011 H 0.65702 0.72168 0.24684 0.0
H1012 H 0.74063 0.72757 0.22748 0.0
H1013 H 0.76138 0.73693 0.19204 0.0
C1014 C 0.56348 0.46597 0.38361 0.0
C1015 C 0.54756 0.45686 0.3546 0.0
C1016 C 0.58271 0.40979 0.35071 0.0
C1017 C 0.58934 0.41313 0.38399 0.0
N1018 N 0.59845 0.44898 0.4282 0.0
N1019 N 0.54526 0.42251 0.30744 0.0
C1020 C 0.5845 0.44337 0.39882 0.0
C1021 C 0.5589 0.43007 0.33654 0.0
N1022 N 0.55753 0.49563 0.39666 0.0
N1023 N 0.59845 0.38668 0.33343 0.0
H1024 H 0.52797 0.43694 0.2961 0.0
H1025 H 0.55015 0.40115 0.29517 0.0
H1026 H 0.61669 0.37267 0.34395 0.0
H1027 H 0.59602 0.384 0.3085 0.0
H1028 H 0.56835 0.50423 0.41765 0.0
H1029 H 0.54277 0.51259 0.38508 0.0
H1030 H 0.59453 0.46949 0.44207 0.0
H1031 H 0.61465 0.43242 0.43836 0.0
C1032 C 0.32799 0.2457 0.15929 0.0
C1033 C 0.36025 0.25675 0.1626 0.0
C1034 C 0.34348 0.30941 0.14191 0.0
C1035 C 0.31155 0.30181 0.15198 0.0
N1036 N 0.27121 0.26074 0.16051 0.0
N1037 N 0.40049 0.29556 0.1467 0.0
C1038 C 0.30297 0.26904 0.15692 0.0
C1039 C 0.36865 0.28741 0.14987 0.0
N1040 N 0.32159 0.2134 0.15844 0.0
N1041 N 0.34944 0.33707 0.12488 0.0
H1042 H 0.41885 0.27857 0.15021 0.0
H1043 H 0.4085 0.3188 0.14116 0.0
H1044 H 0.33075 0.35164 0.11621 0.0
H1045 H 0.37214 0.34325 0.11584 0.0
H1046 H 0.29855 0.2039 0.15471 0.0
H1047 H 0.34016 0.19636 0.1574 0.0
H1048 H 0.26355 0.23794 0.16809 0.0
H1049 H 0.25262 0.27732 0.15631 0.0
C1050 C 0.8639 0.18137 0.82167 0.0
C1051 C 0.87565 0.14965 0.8177 0.0
C1052 C 0.91931 0.16895 0.78316 0.0
C1053 C 0.90282 0.199 0.78057 0.0
N1054 N 0.86465 0.23704 0.8025 0.0
N1055 N 0.92333 0.11754 0.81166 0.0
C1056 C 0.87705 0.20644 0.80203 0.0
C1057 C 0.90664 0.14503 0.80431 0.0
N1058 N 0.84065 0.18706 0.84436 0.0
N1059 N 0.94494 0.16207 0.7635 0.0
H1060 H 0.9141 0.10057 0.82803 0.0
H1061 H 0.94715 0.11342 0.80457 0.0
H1062 H 0.95519 0.17873 0.74759 0.0
H1063 H 0.95509 0.13914 0.7617 0.0
H1064 H 0.83117 0.20972 0.84948 0.0
H1065 H 0.83304 0.16889 0.86026 0.0
H1066 H 0.84392 0.24361 0.8151 0.0
H1067 H 0.87538 0.25613 0.78985 0.0
C1068 C 0.0179 0.63672 0.05435 0.0
C1069 C -0.00371 0.61482 0.03893 0.0
C1070 C 0.01535 0.57145 0.07438 0.0
C1071 C 0.04259 0.5907 0.0815 0.0
N1072 N 0.06115 0.64381 0.094 0.0
N1073 N 0.97055 0.56221 0.03772 0.0
C1074 C 0.04066 0.62436 0.07698 0.0
C1075 C 0.99292 0.58268 0.05082 0.0
N1076 N 0.01752 0.66873 0.0461 0.0
N1077 N 0.0117 0.54247 0.08978 0.0
H1078 H 0.95366 0.56941 0.02043 0.0
H1079 H 0.96975 0.53756 0.04277 0.0
H1080 H 0.02786 0.53511 0.10782 0.0
H1081 H 0.99138 0.52778 0.0873 0.0
H1082 H 0.03443 0.68553 0.05411 0.0
H1083 H 9e-05 0.67861 0.0307 0.0
H1084 H 0.06083 0.66892 0.09311 0.0
H1085 H 0.077 0.63414 0.11122 0.0
C1086 C 0.66172 0.7771 0.31991 0.0
C1087 C 0.65162 0.80977 0.31944 0.0
C1088 C 0.59509 0.79278 0.32197 0.0
C1089 C 0.60535 0.76151 0.31332 0.0
N1090 N 0.64536 0.72067 0.323 0.0
N1091 N 0.60961 0.84944 0.32678 0.0
C1092 C 0.63783 0.75249 0.31892 0.0
C1093 C 0.61853 0.81783 0.32381 0.0
N1094 N 0.69398 0.76999 0.31915 0.0
N1095 N 0.563 0.79806 0.3276 0.0
H1096 H 0.62648 0.86805 0.32902 0.0
H1097 H 0.58571 0.85734 0.32653 0.0
H1098 H 0.54631 0.77908 0.327 0.0
H1099 H 0.55353 0.81992 0.33547 0.0
H1100 H 0.70307 0.74682 0.31573 0.0
H1101 H 0.71168 0.7879 0.32125 0.0
H1102 H 0.66849 0.71236 0.32856 0.0
H1103 H 0.62733 0.70299 0.32415 0.0
C1104 C 0.44027 0.36103 0.52904 0.0
C1105 C 0.43725 0.39499 0.531 0.0
C1106 C 0.49124 0.40217 0.5076 0.0
C1107 C 0.49162 0.3687 0.50048 0.0
N1108 N 0.46957 0.3152 0.5072 0.0
N1109 N 0.45951 0.44849 0.52383 0.0
C1110 C 0.46717 0.34771 0.51244 0.0
C1111 C 0.46303 0.41573 0.52161 0.0
N1112 N 0.41727 0.34184 0.54321 0.0
N1113 N 0.51745 0.42109 0.50031 0.0
H1114 H 0.44019 0.45936 0.53564 0.0
H1115 H 0.47499 0.46514 0.51295 0.0
H1116 H 0.53791 0.41254 0.48844 0.0
H1117 H 0.52013 0.44482 0.50805 0.0
H1118 H 0.41858 0.31679 0.54462 0.0
H1119 H 0.39767 0.35139 0.55589 0.0
H1120 H 0.45119 0.29867 0.512 0.0
H1121 H 0.4902 0.30458 0.49731 0.0
C1122 C 0.1575 0.66209 0.69409 0.0
C1123 C 0.19008 0.66223 0.70483 0.0
C1124 C 0.18546 0.71817 0.72236 0.0
C1125 C 0.15197 0.71679 0.71513 0.0
N1126 N 0.10786 0.6926 0.68591 0.0
N1127 N 0.23788 0.69158 0.71988 0.0
C1128 C 0.13867 0.69053 0.6978 0.0
C1129 C 0.20506 0.69094 0.71562 0.0
N1130 N 0.14412 0.63414 0.68271 0.0
N1131 N 0.19794 0.74501 0.73695 0.0
H1132 H 0.25245 0.67168 0.71463 0.0
H1133 H 0.25099 0.71212 0.72608 0.0
H1134 H 0.18435 0.76595 0.74033 0.0
H1135 H 0.22129 0.74647 0.74625 0.0
H1136 H 0.11955 0.63112 0.67807 0.0
H1137 H 0.15772 0.6133 0.67885 0.0
H1138 H 0.09737 0.67529 0.67103 0.0
H1139 H 0.09358 0.71314 0.68884 0.0
C1140 C 0.52951 0.8747 0.98978 0.0
C1141 C 0.50279 0.8957 -0.00618 0.0
C1142 C 0.53394 0.94058 0.97089 0.0
C1143 C 0.56198 0.92106 0.97257 0.0
N1144 N 0.5875 0.86963 0.9817 0.0
N1145 N 0.4783 0.94827 0.98794 0.0
C1146 C 0.55996 0.8879 0.98086 0.0
C1147 C 0.50434 0.92842 0.98354 0.0
N1148 N 0.52553 0.84223 -0.00542 0.0
N1149 N 0.536 0.9709 0.95779 0.0
H1150 H 0.456 0.93996 -0.00365 0.0
H1151 H 0.47905 0.97322 0.98476 0.0
H1152 H 0.55764 0.98024 0.94863 0.0
H1153 H 0.51609 0.98568 0.95347 0.0
H1154 H 0.54328 0.82514 0.98967 0.0
H1155 H 0.50326 0.83208 0.00096 0.0
H1156 H 0.58862 0.84639 0.99133 0.0
H1157 H 0.60983 0.8784 0.9737 0.0
C1158 C 0.93235 0.11397 0.40808 0.0
C1159 C 0.92719 0.08101 0.40109 0.0
C1160 C 0.98146 0.06767 0.41998 0.0
C1161 C 0.9828 0.0985 0.43475 0.0
N1162 N 0.96324 0.1531 0.43901 0.0
N1163 N 0.95212 0.03188 0.38367 0.0
C1164 C 0.95971 0.12263 0.42694 0.0
C1165 C 0.95377 0.05959 0.40133 0.0
N1166 N 0.91133 0.13652 0.39626 0.0
N1167 N 0.00528 0.04553 0.42586 0.0
H1168 H 0.93228 0.027 0.36877 0.0
H1169 H 0.97127 0.01578 0.38114 0.0
H1170 H 0.02629 0.05116 0.43866 0.0
H1171 H 0.00383 0.0214 0.41903 0.0
H1172 H 0.91439 0.16131 0.39903 0.0
H1173 H 0.89266 0.13018 0.38046 0.0
H1174 H 0.94553 0.17088 0.43731 0.0
H1175 H 0.98393 0.16025 0.45165 0.0
loop_
_geom_bond_atom_site_label_1
_geom_bond_atom_site_label_2
_geom_bond_distance
_geom_bond_site_symmetry_2
_ccdc_geom_bond_type
In0 O1 2.294 . S
In0 O2 2.326 . S
In0 O6 2.266 . S
In0 O7 2.326 . S
In0 O8 2.266 . S
In0 O9 2.326 . S
In0 O11 2.294 . S
In0 O12 2.326 . S
O1 In0 2.294 . S
O1 C10 1.240 . S
O2 In0 2.326 . S
O2 C10 1.252 . S
C3 O6 1.252 . S
C3 O7 1.260 . S
C4 O11 1.240 . S
C4 O12 1.252 . S
C5 O8 1.252 . S
C5 O9 1.260 . S
O6 In0 2.266 . S
O6 C3 1.252 . S
O7 In0 2.326 . S
O7 C3 1.260 . S
O8 In0 2.266 . S
O8 C5 1.252 . S
O9 In0 2.326 . S
O9 C5 1.260 . S
C10 O1 1.240 . S
C10 O2 1.252 . S
O11 In0 2.294 . S
O11 C4 1.240 . S
O12 In0 2.326 . S
O12 C4 1.252 . S
In13 O14 2.294 . S
In13 O15 2.326 . S
In13 O19 2.266 . S
In13 O20 2.326 . S
In13 O21 2.266 . S
In13 O22 2.326 . S
In13 O24 2.294 . S
In13 O25 2.326 . S
O14 In13 2.294 . S
O14 C23 1.240 . S
O15 In13 2.326 . S
O15 C23 1.252 . S
C16 O19 1.252 . S
C16 O20 1.260 . S
C17 O24 1.240 . S
C17 O25 1.252 . S
C18 O21 1.252 . S
C18 O22 1.260 . S
O19 In13 2.266 . S
O19 C16 1.252 . S
O20 In13 2.326 . S
O20 C16 1.260 . S
O21 In13 2.266 . S
O21 C18 1.252 . S
O22 In13 2.326 . S
O22 C18 1.260 . S
C23 O14 1.240 . S
C23 O15 1.252 . S
O24 In13 2.294 . S
O24 C17 1.240 . S
O25 In13 2.326 . S
O25 C17 1.252 . S
In26 O27 2.294 . S
In26 O28 2.326 . S
In26 O32 2.266 . S
In26 O33 2.326 . S
In26 O34 2.266 . S
In26 O35 2.326 . S
In26 O37 2.294 . S
In26 O38 2.326 . S
O27 In26 2.294 . S
O27 C36 1.240 . S
O28 In26 2.326 . S
O28 C36 1.252 . S
C29 O32 1.252 . S
C29 O33 1.260 . S
C30 O37 1.240 . S
C30 O38 1.252 . S
C31 O34 1.252 . S
C31 O35 1.260 . S
O32 In26 2.266 . S
O32 C29 1.252 . S
O33 In26 2.326 . S
O33 C29 1.260 . S
O34 In26 2.266 . S
O34 C31 1.252 . S
O35 In26 2.326 . S
O35 C31 1.260 . S
C36 O27 1.240 . S
C36 O28 1.252 . S
O37 In26 2.294 . S
O37 C30 1.240 . S
O38 In26 2.326 . S
O38 C30 1.252 . S
In39 O40 2.294 . S
In39 O41 2.326 . S
In39 O45 2.266 . S
In39 O46 2.326 . S
In39 O47 2.266 . S
In39 O48 2.326 . S
In39 O50 2.294 . S
In39 O51 2.326 . S
O40 In39 2.294 . S
O40 C49 1.240 . S
O41 In39 2.326 . S
O41 C49 1.252 . S
C42 O45 1.252 . S
C42 O46 1.260 . S
C43 O50 1.240 . S
C43 O51 1.252 . S
C44 O47 1.252 . S
C44 O48 1.260 . S
O45 In39 2.266 . S
O45 C42 1.252 . S
O46 In39 2.326 . S
O46 C42 1.260 . S
O47 In39 2.266 . S
O47 C44 1.252 . S
O48 In39 2.326 . S
O48 C44 1.260 . S
C49 O40 1.240 . S
C49 O41 1.252 . S
O50 In39 2.294 . S
O50 C43 1.240 . S
O51 In39 2.326 . S
O51 C43 1.252 . S
In52 O53 2.294 . S
In52 O54 2.326 . S
In52 O58 2.266 . S
In52 O59 2.326 . S
In52 O60 2.266 . S
In52 O61 2.326 . S
In52 O63 2.294 . S
In52 O64 2.326 . S
O53 In52 2.294 . S
O53 C62 1.240 . S
O54 In52 2.326 . S
O54 C62 1.252 . S
C55 O58 1.252 . S
C55 O59 1.260 . S
C56 O63 1.240 . S
C56 O64 1.252 . S
C57 O60 1.252 . S
C57 O61 1.260 . S
O58 In52 2.266 . S
O58 C55 1.252 . S
O59 In52 2.326 . S
O59 C55 1.260 . S
O60 In52 2.266 . S
O60 C57 1.252 . S
O61 In52 2.326 . S
O61 C57 1.260 . S
C62 O53 1.240 . S
C62 O54 1.252 . S
O63 In52 2.294 . S
O63 C56 1.240 . S
O64 In52 2.326 . S
O64 C56 1.252 . S
In65 O66 2.294 . S
In65 O67 2.326 . S
In65 O71 2.266 . S
In65 O72 2.326 . S
In65 O73 2.266 . S
In65 O74 2.326 . S
In65 O76 2.294 . S
In65 O77 2.326 . S
O66 In65 2.294 . S
O66 C75 1.240 . S
O67 In65 2.326 . S
O67 C75 1.252 . S
C68 O71 1.252 . S
C68 O72 1.260 . S
C69 O76 1.240 . S
C69 O77 1.252 . S
C70 O73 1.252 . S
C70 O74 1.260 . S
O71 In65 2.266 . S
O71 C68 1.252 . S
O72 In65 2.326 . S
O72 C68 1.260 . S
O73 In65 2.266 . S
O73 C70 1.252 . S
O74 In65 2.326 . S
O74 C70 1.260 . S
C75 O66 1.240 . S
C75 O67 1.252 . S
O76 In65 2.294 . S
O76 C69 1.240 . S
O77 In65 2.326 . S
O77 C69 1.252 . S
In78 O79 2.294 . S
In78 O80 2.326 . S
In78 O84 2.266 . S
In78 O85 2.326 . S
In78 O86 2.266 . S
In78 O87 2.326 . S
In78 O89 2.294 . S
In78 O90 2.326 . S
O79 In78 2.294 . S
O79 C88 1.240 . S
O80 In78 2.326 . S
O80 C88 1.252 . S
C81 O84 1.252 . S
C81 O85 1.260 . S
C82 O89 1.240 . S
C82 O90 1.252 . S
C83 O86 1.252 . S
C83 O87 1.260 . S
O84 In78 2.266 . S
O84 C81 1.252 . S
O85 In78 2.326 . S
O85 C81 1.260 . S
O86 In78 2.266 . S
O86 C83 1.252 . S
O87 In78 2.326 . S
O87 C83 1.260 . S
C88 O79 1.240 . S
C88 O80 1.252 . S
O89 In78 2.294 . S
O89 C82 1.240 . S
O90 In78 2.326 . S
O90 C82 1.252 . S
In91 O92 2.294 . S
In91 O93 2.326 . S
In91 O97 2.266 . S
In91 O98 2.326 . S
In91 O99 2.266 . S
In91 O100 2.326 . S
In91 O102 2.294 . S
In91 O103 2.326 . S
O92 In91 2.294 . S
O92 C101 1.240 . S
O93 In91 2.326 . S
O93 C101 1.252 . S
C94 O97 1.252 . S
C94 O98 1.260 . S
C95 O102 1.240 . S
C95 O103 1.252 . S
C96 O99 1.252 . S
C96 O100 1.260 . S
O97 In91 2.266 . S
O97 C94 1.252 . S
O98 In91 2.326 . S
O98 C94 1.260 . S
O99 In91 2.266 . S
O99 C96 1.252 . S
O100 In91 2.326 . S
O100 C96 1.260 . S
C101 O92 1.240 . S
C101 O93 1.252 . S
O102 In91 2.294 . S
O102 C95 1.240 . S
O103 In91 2.326 . S
O103 C95 1.252 . S
In104 O105 2.294 . S
In104 O106 2.326 . S
In104 O110 2.266 . S
In104 O111 2.326 . S
In104 O112 2.266 . S
In104 O113 2.326 . S
In104 O115 2.294 . S
In104 O116 2.326 . S
O105 In104 2.294 . S
O105 C114 1.240 . S
O106 In104 2.326 . S
O106 C114 1.252 . S
C107 O110 1.252 . S
C107 O111 1.260 . S
C108 O115 1.240 . S
C108 O116 1.252 . S
C109 O112 1.252 . S
C109 O113 1.260 . S
O110 In104 2.266 . S
O110 C107 1.252 . S
O111 In104 2.326 . S
O111 C107 1.260 . S
O112 In104 2.266 . S
O112 C109 1.252 . S
O113 In104 2.326 . S
O113 C109 1.260 . S
C114 O105 1.240 . S
C114 O106 1.252 . S
O115 In104 2.294 . S
O115 C108 1.240 . S
O116 In104 2.326 . S
O116 C108 1.252 . S
In117 O118 2.294 . S
In117 O119 2.326 . S
In117 O123 2.266 . S
In117 O124 2.326 . S
In117 O125 2.266 . S
In117 O126 2.326 . S
In117 O128 2.294 . S
In117 O129 2.326 . S
O118 In117 2.294 . S
O118 C127 1.240 . S
O119 In117 2.326 . S
O119 C127 1.252 . S
C120 O123 1.252 . S
C120 O124 1.260 . S
C121 O128 1.240 . S
C121 O129 1.252 . S
C122 O125 1.252 . S
C122 O126 1.260 . S
O123 In117 2.266 . S
O123 C120 1.252 . S
O124 In117 2.326 . S
O124 C120 1.260 . S
O125 In117 2.266 . S
O125 C122 1.252 . S
O126 In117 2.326 . S
O126 C122 1.260 . S
C127 O118 1.240 . S
C127 O119 1.252 . S
O128 In117 2.294 . S
O128 C121 1.240 . S
O129 In117 2.326 . S
O129 C121 1.252 . S
In130 O131 2.294 . S
In130 O132 2.326 . S
In130 O136 2.266 . S
In130 O137 2.326 . S
In130 O138 2.266 . S
In130 O139 2.326 . S
In130 O141 2.294 . S
In130 O142 2.326 . S
O131 In130 2.294 . S
O131 C140 1.240 . S
O132 In130 2.326 . S
O132 C140 1.252 . S
C133 O136 1.252 . S
C133 O137 1.260 . S
C134 O141 1.240 . S
C134 O142 1.252 . S
C135 O138 1.252 . S
C135 O139 1.260 . S
O136 In130 2.266 . S
O136 C133 1.252 . S
O137 In130 2.326 . S
O137 C133 1.260 . S
O138 In130 2.266 . S
O138 C135 1.252 . S
O139 In130 2.326 . S
O139 C135 1.260 . S
C140 O131 1.240 . S
C140 O132 1.252 . S
O141 In130 2.294 . S
O141 C134 1.240 . S
O142 In130 2.326 . S
O142 C134 1.252 . S
In143 O144 2.294 . S
In143 O145 2.326 . S
In143 O149 2.266 . S
In143 O150 2.326 . S
In143 O151 2.266 . S
In143 O152 2.326 . S
In143 O154 2.294 . S
In143 O155 2.326 . S
O144 In143 2.294 . S
O144 C153 1.240 . S
O145 In143 2.326 . S
O145 C153 1.252 . S
C146 O149 1.252 . S
C146 O150 1.260 . S
C147 O154 1.240 . S
C147 O155 1.252 . S
C148 O151 1.252 . S
C148 O152 1.260 . S
O149 In143 2.266 . S
O149 C146 1.252 . S
O150 In143 2.326 . S
O150 C146 1.260 . S
O151 In143 2.266 . S
O151 C148 1.252 . S
O152 In143 2.326 . S
O152 C148 1.260 . S
C153 O144 1.240 . S
C153 O145 1.252 . S
O154 In143 2.294 . S
O154 C147 1.240 . S
O155 In143 2.326 . S
O155 C147 1.252 . S
In156 O157 2.294 . S
In156 O158 2.326 . S
In156 O162 2.266 . S
In156 O163 2.326 . S
In156 O164 2.266 . S
In156 O165 2.326 . S
In156 O167 2.294 . S
In156 O168 2.326 . S
O157 In156 2.294 . S
O157 C166 1.240 . S
O158 In156 2.326 . S
O158 C166 1.252 . S
C159 O162 1.252 . S
C159 O163 1.260 . S
C160 O167 1.240 . S
C160 O168 1.252 . S
C161 O164 1.252 . S
C161 O165 1.260 . S
O162 In156 2.266 . S
O162 C159 1.252 . S
O163 In156 2.326 . S
O163 C159 1.260 . S
O164 In156 2.266 . S
O164 C161 1.252 . S
O165 In156 2.326 . S
O165 C161 1.260 . S
C166 O157 1.240 . S
C166 O158 1.252 . S
O167 In156 2.294 . S
O167 C160 1.240 . S
O168 In156 2.326 . S
O168 C160 1.252 . S
In169 O170 2.294 . S
In169 O171 2.326 . S
In169 O175 2.266 . S
In169 O176 2.326 . S
In169 O177 2.266 . S
In169 O178 2.326 . S
In169 O180 2.294 . S
In169 O181 2.326 . S
O170 In169 2.294 . S
O170 C179 1.240 . S
O171 In169 2.326 . S
O171 C179 1.252 . S
C172 O175 1.252 . S
C172 O176 1.260 . S
C173 O180 1.240 . S
C173 O181 1.252 . S
C174 O177 1.252 . S
C174 O178 1.260 . S
O175 In169 2.266 . S
O175 C172 1.252 . S
O176 In169 2.326 . S
O176 C172 1.260 . S
O177 In169 2.266 . S
O177 C174 1.252 . S
O178 In169 2.326 . S
O178 C174 1.260 . S
C179 O170 1.240 . S
C179 O171 1.252 . S
O180 In169 2.294 . S
O180 C173 1.240 . S
O181 In169 2.326 . S
O181 C173 1.252 . S
In182 O183 2.294 . S
In182 O184 2.326 . S
In182 O188 2.266 . S
In182 O189 2.326 . S
In182 O190 2.266 . S
In182 O191 2.326 . S
In182 O193 2.294 . S
In182 O194 2.326 . S
O183 In182 2.294 . S
O183 C192 1.240 . S
O184 In182 2.326 . S
O184 C192 1.252 . S
C185 O188 1.252 . S
C185 O189 1.260 . S
C186 O193 1.240 . S
C186 O194 1.252 . S
C187 O190 1.252 . S
C187 O191 1.260 . S
O188 In182 2.266 . S
O188 C185 1.252 . S
O189 In182 2.326 . S
O189 C185 1.260 . S
O190 In182 2.266 . S
O190 C187 1.252 . S
O191 In182 2.326 . S
O191 C187 1.260 . S
C192 O183 1.240 . S
C192 O184 1.252 . S
O193 In182 2.294 . S
O193 C186 1.240 . S
O194 In182 2.326 . S
O194 C186 1.252 . S
In195 O196 2.294 . S
In195 O197 2.326 . S
In195 O201 2.266 . S
In195 O202 2.326 . S
In195 O203 2.266 . S
In195 O204 2.326 . S
In195 O206 2.294 . S
In195 O207 2.326 . S
O196 In195 2.294 . S
O196 C205 1.240 . S
O197 In195 2.326 . S
O197 C205 1.252 . S
C198 O201 1.252 . S
C198 O202 1.260 . S
C199 O206 1.240 . S
C199 O207 1.252 . S
C200 O203 1.252 . S
C200 O204 1.260 . S
O201 In195 2.266 . S
O201 C198 1.252 . S
O202 In195 2.326 . S
O202 C198 1.260 . S
O203 In195 2.266 . S
O203 C200 1.252 . S
O204 In195 2.326 . S
O204 C200 1.260 . S
C205 O196 1.240 . S
C205 O197 1.252 . S
O206 In195 2.294 . S
O206 C199 1.240 . S
O207 In195 2.326 . S
O207 C199 1.252 . S
In208 O209 2.294 . S
In208 O210 2.326 . S
In208 O214 2.266 . S
In208 O215 2.326 . S
In208 O216 2.266 . S
In208 O217 2.326 . S
In208 O219 2.294 . S
In208 O220 2.326 . S
O209 In208 2.294 . S
O209 C218 1.240 . S
O210 In208 2.326 . S
O210 C218 1.252 . S
C211 O214 1.252 . S
C211 O215 1.260 . S
C212 O219 1.240 . S
C212 O220 1.252 . S
C213 O216 1.252 . S
C213 O217 1.260 . S
O214 In208 2.266 . S
O214 C211 1.252 . S
O215 In208 2.326 . S
O215 C211 1.260 . S
O216 In208 2.266 . S
O216 C213 1.252 . S
O217 In208 2.326 . S
O217 C213 1.260 . S
C218 O209 1.240 . S
C218 O210 1.252 . S
O219 In208 2.294 . S
O219 C212 1.240 . S
O220 In208 2.326 . S
O220 C212 1.252 . S
In221 O222 2.294 . S
In221 O223 2.326 . S
In221 O227 2.266 . S
In221 O228 2.326 . S
In221 O229 2.266 . S
In221 O230 2.326 . S
In221 O232 2.294 . S
In221 O233 2.326 . S
O222 In221 2.294 . S
O222 C231 1.240 . S
O223 In221 2.326 . S
O223 C231 1.252 . S
C224 O227 1.252 . S
C224 O228 1.260 . S
C225 O232 1.240 . S
C225 O233 1.252 . S
C226 O229 1.252 . S
C226 O230 1.260 . S
O227 In221 2.266 . S
O227 C224 1.252 . S
O228 In221 2.326 . S
O228 C224 1.260 . S
O229 In221 2.266 . S
O229 C226 1.252 . S
O230 In221 2.326 . S
O230 C226 1.260 . S
C231 O222 1.240 . S
C231 O223 1.252 . S
O232 In221 2.294 . S
O232 C225 1.240 . S
O233 In221 2.326 . S
O233 C225 1.252 . S
In234 O235 2.294 . S
In234 O236 2.326 . S
In234 O240 2.266 . S
In234 O241 2.326 . S
In234 O242 2.266 . S
In234 O243 2.326 . S
In234 O245 2.294 . S
In234 O246 2.326 . S
O235 In234 2.294 . S
O235 C244 1.240 . S
O236 In234 2.326 . S
O236 C244 1.252 . S
C237 O240 1.252 . S
C237 O241 1.260 . S
C238 O245 1.240 . S
C238 O246 1.252 . S
C239 O242 1.252 . S
C239 O243 1.260 . S
O240 In234 2.266 . S
O240 C237 1.252 . S
O241 In234 2.326 . S
O241 C237 1.260 . S
O242 In234 2.266 . S
O242 C239 1.252 . S
O243 In234 2.326 . S
O243 C239 1.260 . S
C244 O235 1.240 . S
C244 O236 1.252 . S
O245 In234 2.294 . S
O245 C238 1.240 . S
O246 In234 2.326 . S
O246 C238 1.252 . S
In247 O248 2.294 . S
In247 O249 2.326 . S
In247 O253 2.266 . S
In247 O254 2.326 . S
In247 O255 2.266 . S
In247 O256 2.326 . S
In247 O258 2.294 . S
In247 O259 2.326 . S
O248 In247 2.294 . S
O248 C257 1.240 . S
O249 In247 2.326 . S
O249 C257 1.252 . S
C250 O253 1.252 . S
C250 O254 1.260 . S
C251 O258 1.240 . S
C251 O259 1.252 . S
C252 O255 1.252 . S
C252 O256 1.260 . S
O253 In247 2.266 . S
O253 C250 1.252 . S
O254 In247 2.326 . S
O254 C250 1.260 . S
O255 In247 2.266 . S
O255 C252 1.252 . S
O256 In247 2.326 . S
O256 C252 1.260 . S
C257 O248 1.240 . S
C257 O249 1.252 . S
O258 In247 2.294 . S
O258 C251 1.240 . S
O259 In247 2.326 . S
O259 C251 1.252 . S
In260 O261 2.294 . S
In260 O262 2.326 . S
In260 O266 2.266 . S
In260 O267 2.326 . S
In260 O268 2.266 . S
In260 O269 2.326 . S
In260 O271 2.294 . S
In260 O272 2.326 . S
O261 In260 2.294 . S
O261 C270 1.240 . S
O262 In260 2.326 . S
O262 C270 1.252 . S
C263 O266 1.252 . S
C263 O267 1.260 . S
C264 O271 1.240 . S
C264 O272 1.252 . S
C265 O268 1.252 . S
C265 O269 1.260 . S
O266 In260 2.266 . S
O266 C263 1.252 . S
O267 In260 2.326 . S
O267 C263 1.260 . S
O268 In260 2.266 . S
O268 C265 1.252 . S
O269 In260 2.326 . S
O269 C265 1.260 . S
C270 O261 1.240 . S
C270 O262 1.252 . S
O271 In260 2.294 . S
O271 C264 1.240 . S
O272 In260 2.326 . S
O272 C264 1.252 . S
In273 O274 2.294 . S
In273 O275 2.326 . S
In273 O279 2.266 . S
In273 O280 2.326 . S
In273 O281 2.266 . S
In273 O282 2.326 . S
In273 O284 2.294 . S
In273 O285 2.326 . S
O274 In273 2.294 . S
O274 C283 1.240 . S
O275 In273 2.326 . S
O275 C283 1.252 . S
C276 O279 1.252 . S
C276 O280 1.260 . S
C277 O284 1.240 . S
C277 O285 1.252 . S
C278 O281 1.252 . S
C278 O282 1.260 . S
O279 In273 2.266 . S
O279 C276 1.252 . S
O280 In273 2.326 . S
O280 C276 1.260 . S
O281 In273 2.266 . S
O281 C278 1.252 . S
O282 In273 2.326 . S
O282 C278 1.260 . S
C283 O274 1.240 . S
C283 O275 1.252 . S
O284 In273 2.294 . S
O284 C277 1.240 . S
O285 In273 2.326 . S
O285 C277 1.252 . S
In286 O287 2.294 . S
In286 O288 2.326 . S
In286 O292 2.266 . S
In286 O293 2.326 . S
In286 O294 2.266 . S
In286 O295 2.326 . S
In286 O297 2.294 . S
In286 O298 2.326 . S
O287 In286 2.294 . S
O287 C296 1.240 . S
O288 In286 2.326 . S
O288 C296 1.252 . S
C289 O292 1.252 . S
C289 O293 1.260 . S
C290 O297 1.240 . S
C290 O298 1.252 . S
C291 O294 1.252 . S
C291 O295 1.260 . S
O292 In286 2.266 . S
O292 C289 1.252 . S
O293 In286 2.326 . S
O293 C289 1.260 . S
O294 In286 2.266 . S
O294 C291 1.252 . S
O295 In286 2.326 . S
O295 C291 1.260 . S
C296 O287 1.240 . S
C296 O288 1.252 . S
O297 In286 2.294 . S
O297 C290 1.240 . S
O298 In286 2.326 . S
O298 C290 1.252 . S
In299 O300 2.294 . S
In299 O301 2.326 . S
In299 O305 2.266 . S
In299 O306 2.326 . S
In299 O307 2.266 . S
In299 O308 2.326 . S
In299 O310 2.294 . S
In299 O311 2.326 . S
O300 In299 2.294 . S
O300 C309 1.240 . S
O301 In299 2.326 . S
O301 C309 1.252 . S
C302 O305 1.252 . S
C302 O306 1.260 . S
C303 O310 1.240 . S
C303 O311 1.252 . S
C304 O307 1.252 . S
C304 O308 1.260 . S
O305 In299 2.266 . S
O305 C302 1.252 . S
O306 In299 2.326 . S
O306 C302 1.260 . S
O307 In299 2.266 . S
O307 C304 1.252 . S
O308 In299 2.326 . S
O308 C304 1.260 . S
C309 O300 1.240 . S
C309 O301 1.252 . S
O310 In299 2.294 . S
O310 C303 1.240 . S
O311 In299 2.326 . S
O311 C303 1.252 . S
C312 C313 1.363 . S
C312 C318 1.379 . S
C312 N320 1.356 . S
C313 C312 1.363 . S
C313 C319 1.363 . S
C314 C315 1.363 . S
C314 C319 1.379 . S
C314 N321 1.356 . S
C315 C314 1.363 . S
C315 C318 1.363 . S
N316 C318 1.356 . S
N316 H328 0.984 . S
N316 H329 0.985 . S
N317 C319 1.356 . S
N317 H322 0.984 . S
N317 H323 0.985 . S
C318 C312 1.379 . S
C318 C315 1.363 . S
C318 N316 1.356 . S
C319 C313 1.363 . S
C319 C314 1.379 . S
C319 N317 1.356 . S
N320 C312 1.356 . S
N320 H326 0.984 . S
N320 H327 0.984 . S
N321 C314 1.356 . S
N321 H324 0.984 . S
N321 H325 0.985 . S
H322 N317 0.984 . S
H323 N317 0.985 . S
H324 N321 0.984 . S
H325 N321 0.985 . S
H326 N320 0.984 . S
H327 N320 0.984 . S
H328 N316 0.984 . S
H329 N316 0.985 . S
C330 C331 1.363 1_455 S
C330 C336 1.379 . S
C330 N338 1.356 . S
C331 C330 1.363 1_655 S
C331 C337 1.363 . S
C332 C333 1.363 . S
C332 C337 1.379 1_455 S
C332 N339 1.356 . S
C333 C332 1.363 . S
C333 C336 1.363 . S
N334 C336 1.356 . S
N334 H346 0.984 . S
N334 H347 0.985 . S
N335 C337 1.356 . S
N335 H340 0.984 . S
N335 H341 0.985 . S
C336 C330 1.379 . S
C336 C333 1.363 . S
C336 N334 1.356 . S
C337 C331 1.363 . S
C337 C332 1.379 1_655 S
C337 N335 1.356 . S
N338 C330 1.356 . S
N338 H344 0.984 . S
N338 H345 0.984 . S
N339 C332 1.356 . S
N339 H342 0.984 . S
N339 H343 0.984 1_455 S
H340 N335 0.984 . S
H341 N335 0.985 . S
H342 N339 0.984 . S
H343 N339 0.984 1_655 S
H344 N338 0.984 . S
H345 N338 0.984 . S
H346 N334 0.984 . S
H347 N334 0.985 . S
C348 C349 1.363 . S
C348 C354 1.379 . S
C348 N356 1.356 . S
C349 C348 1.363 . S
C349 C355 1.363 . S
C350 C351 1.363 . S
C350 C355 1.379 1_554 S
C350 N357 1.356 . S
C351 C350 1.363 . S
C351 C354 1.363 1_554 S
N352 C354 1.356 . S
N352 H364 0.984 . S
N352 H365 0.985 . S
N353 C355 1.356 . S
N353 H358 0.984 . S
N353 H359 0.968 1_556 S
C354 C348 1.379 . S
C354 C351 1.363 1_556 S
C354 N352 1.356 . S
C355 C349 1.363 . S
C355 C350 1.379 1_556 S
C355 N353 1.356 . S
N356 C348 1.356 . S
N356 H362 0.984 . S
N356 H363 0.984 . S
N357 C350 1.356 . S
N357 H360 0.984 . S
N357 H361 0.985 . S
H358 N353 0.984 . S
H359 N353 0.968 1_554 S
H360 N357 0.984 . S
H361 N357 0.985 . S
H362 N356 0.984 . S
H363 N356 0.984 . S
H364 N352 0.984 . S
H365 N352 0.985 . S
C366 C367 1.363 . S
C366 C372 1.379 . S
C366 N374 1.356 . S
C367 C366 1.363 . S
C367 C373 1.363 . S
C368 C369 1.363 . S
C368 C373 1.379 . S
C368 N375 1.356 . S
C369 C368 1.363 . S
C369 C372 1.363 . S
N370 C372 1.356 . S
N370 H382 0.984 . S
N370 H383 0.985 . S
N371 C373 1.356 . S
N371 H376 0.984 . S
N371 H377 0.985 . S
C372 C366 1.379 . S
C372 C369 1.363 . S
C372 N370 1.356 . S
C373 C367 1.363 . S
C373 C368 1.379 . S
C373 N371 1.356 . S
N374 C366 1.356 . S
N374 H380 0.984 . S
N374 H381 0.984 . S
N375 C368 1.356 . S
N375 H378 0.984 . S
N375 H379 0.985 . S
H376 N371 0.984 . S
H377 N371 0.985 . S
H378 N375 0.984 . S
H379 N375 0.985 . S
H380 N374 0.984 . S
H381 N374 0.984 . S
H382 N370 0.984 . S
H383 N370 0.985 . S
C384 C385 1.363 . S
C384 C390 1.379 . S
C384 N392 1.356 . S
C385 C384 1.363 . S
C385 C391 1.363 . S
C386 C387 1.363 . S
C386 C391 1.379 . S
C386 N393 1.356 . S
C387 C386 1.363 . S
C387 C390 1.363 . S
N388 C390 1.356 . S
N388 H400 0.984 . S
N388 H401 0.985 . S
N389 C391 1.356 . S
N389 H394 0.984 . S
N389 H395 0.985 . S
C390 C384 1.379 . S
C390 C387 1.363 . S
C390 N388 1.356 . S
C391 C385 1.363 . S
C391 C386 1.379 . S
C391 N389 1.356 . S
N392 C384 1.356 . S
N392 H398 0.984 . S
N392 H399 0.984 . S
N393 C386 1.356 . S
N393 H396 0.984 . S
N393 H397 0.985 . S
H394 N389 0.984 . S
H395 N389 0.985 . S
H396 N393 0.984 . S
H397 N393 0.985 . S
H398 N392 0.984 . S
H399 N392 0.984 . S
H400 N388 0.984 . S
H401 N388 0.985 . S
C402 C403 1.363 . S
C402 C408 1.379 . S
C402 N410 1.356 . S
C403 C402 1.363 . S
C403 C409 1.363 . S
C404 C405 1.363 . S
C404 C409 1.379 1_455 S
C404 N411 1.356 . S
C405 C404 1.363 . S
C405 C408 1.363 1_455 S
N406 C408 1.356 . S
N406 H418 0.984 . S
N406 H419 0.985 1_655 S
N407 C409 1.356 . S
N407 H412 0.984 . S
N407 H413 0.985 . S
C408 C402 1.379 . S
C408 C405 1.363 1_655 S
C408 N406 1.356 . S
C409 C403 1.363 . S
C409 C404 1.379 1_655 S
C409 N407 1.356 . S
N410 C402 1.356 . S
N410 H416 0.984 . S
N410 H417 0.984 . S
N411 C404 1.356 . S
N411 H414 0.984 . S
N411 H415 0.985 . S
H412 N407 0.984 . S
H413 N407 0.985 . S
H414 N411 0.984 . S
H415 N411 0.985 . S
H416 N410 0.984 . S
H417 N410 0.984 . S
H418 N406 0.984 . S
H419 N406 0.985 1_455 S
C420 C421 1.363 . S
C420 C426 1.367 1_554 S
C420 N428 1.356 . S
C421 C420 1.363 . S
C421 C427 1.363 . S
C422 C423 1.363 1_554 S
C422 C427 1.379 . S
C422 N429 1.356 . S
C423 C422 1.363 1_556 S
C423 C426 1.365 . S
N424 C426 1.369 . S
N424 H436 0.984 . S
N424 H437 0.985 . S
N425 C427 1.356 . S
N425 H430 0.984 . S
N425 H431 0.985 . S
C426 C420 1.367 1_556 S
C426 C423 1.365 . S
C426 N424 1.369 . S
C427 C421 1.363 . S
C427 C422 1.379 . S
C427 N425 1.356 . S
N428 C420 1.356 . S
N428 H434 0.984 . S
N428 H435 0.984 . S
N429 C422 1.356 . S
N429 H432 0.984 1_554 S
N429 H433 0.985 . S
H430 N425 0.984 . S
H431 N425 0.985 . S
H432 N429 0.984 1_556 S
H433 N429 0.985 . S
H434 N428 0.984 . S
H435 N428 0.984 . S
H436 N424 0.984 . S
H437 N424 0.985 . S
C438 C439 1.363 . S
C438 C444 1.379 . S
C438 N446 1.356 . S
C439 C438 1.363 . S
C439 C445 1.363 . S
C440 C441 1.363 . S
C440 C445 1.379 . S
C440 N447 1.356 . S
C441 C440 1.363 . S
C441 C444 1.363 . S
N442 C444 1.356 . S
N442 H454 0.984 . S
N442 H455 0.985 . S
N443 C445 1.356 . S
N443 H448 0.984 . S
N443 H449 0.985 . S
C444 C438 1.379 . S
C444 C441 1.363 . S
C444 N442 1.356 . S
C445 C439 1.363 . S
C445 C440 1.379 . S
C445 N443 1.356 . S
N446 C438 1.356 . S
N446 H452 0.984 . S
N446 H453 0.984 . S
N447 C440 1.356 . S
N447 H450 0.984 . S
N447 H451 0.985 . S
H448 N443 0.984 . S
H449 N443 0.985 . S
H450 N447 0.984 . S
H451 N447 0.985 . S
H452 N446 0.984 . S
H453 N446 0.984 . S
H454 N442 0.984 . S
H455 N442 0.985 . S
C456 C457 1.363 . S
C456 C462 1.379 . S
C456 N464 1.356 . S
C457 C456 1.363 . S
C457 C463 1.363 . S
C458 C459 1.363 . S
C458 C463 1.379 . S
C458 N465 1.356 . S
C459 C458 1.363 . S
C459 C462 1.363 . S
N460 C462 1.356 . S
N460 H472 0.984 . S
N460 H473 0.985 . S
N461 C463 1.356 . S
N461 H466 0.984 . S
N461 H467 0.985 . S
C462 C456 1.379 . S
C462 C459 1.363 . S
C462 N460 1.356 . S
C463 C457 1.363 . S
C463 C458 1.379 . S
C463 N461 1.356 . S
N464 C456 1.356 . S
N464 H470 0.984 . S
N464 H471 0.984 . S
N465 C458 1.356 . S
N465 H468 0.984 . S
N465 H469 0.985 . S
H466 N461 0.984 . S
H467 N461 0.985 . S
H468 N465 0.984 . S
H469 N465 0.985 . S
H470 N464 0.984 . S
H471 N464 0.984 . S
H472 N460 0.984 . S
H473 N460 0.985 . S
C474 C475 1.363 1_545 S
C474 C480 1.379 . S
C474 N482 1.356 . S
C475 C474 1.363 1_565 S
C475 C481 1.363 . S
C476 C477 1.363 . S
C476 C481 1.379 1_545 S
C476 N483 1.356 . S
C477 C476 1.363 . S
C477 C480 1.363 . S
N478 C480 1.356 . S
N478 H490 0.984 . S
N478 H491 0.985 . S
N479 C481 1.356 . S
N479 H484 0.984 . S
N479 H485 0.985 . S
C480 C474 1.379 . S
C480 C477 1.363 . S
C480 N478 1.356 . S
C481 C475 1.363 . S
C481 C476 1.379 1_565 S
C481 N479 1.356 . S
N482 C474 1.356 . S
N482 H488 0.984 . S
N482 H489 0.984 . S
N483 C476 1.356 . S
N483 H486 0.984 . S
N483 H487 0.985 1_545 S
H484 N479 0.984 . S
H485 N479 0.985 . S
H486 N483 0.984 . S
H487 N483 0.985 1_565 S
H488 N482 0.984 . S
H489 N482 0.984 . S
H490 N478 0.984 . S
H491 N478 0.985 . S
C492 C493 1.363 . S
C492 C498 1.379 . S
C492 N500 1.356 . S
C493 C492 1.363 . S
C493 C499 1.363 . S
C494 C495 1.363 1_565 S
C494 C499 1.376 . S
C494 N501 1.359 1_565 S
C495 C494 1.363 1_545 S
C495 C498 1.363 1_545 S
N496 C498 1.356 . S
N496 H508 0.984 . S
N496 H509 0.985 1_565 S
N497 C499 1.356 . S
N497 H502 0.984 . S
N497 H503 0.985 . S
C498 C492 1.379 . S
C498 C495 1.363 1_565 S
C498 N496 1.356 . S
C499 C493 1.363 . S
C499 C494 1.376 . S
C499 N497 1.356 . S
N500 C492 1.356 . S
N500 H506 0.984 . S
N500 H507 0.984 . S
N501 C494 1.359 1_545 S
N501 H504 0.984 . S
N501 H505 0.985 . S
H502 N497 0.984 . S
H503 N497 0.985 . S
H504 N501 0.984 . S
H505 N501 0.985 . S
H506 N500 0.984 . S
H507 N500 0.984 . S
H508 N496 0.984 . S
H509 N496 0.985 1_545 S
C510 C511 1.363 . S
C510 C516 1.379 . S
C510 N518 1.356 . S
C511 C510 1.363 . S
C511 C517 1.363 . S
C512 C513 1.363 . S
C512 C517 1.379 . S
C512 N519 1.356 . S
C513 C512 1.363 . S
C513 C516 1.363 . S
N514 C516 1.356 . S
N514 H526 0.984 . S
N514 H527 0.985 . S
N515 C517 1.356 . S
N515 H520 0.984 . S
N515 H521 0.985 . S
C516 C510 1.379 . S
C516 C513 1.363 . S
C516 N514 1.356 . S
C517 C511 1.363 . S
C517 C512 1.379 . S
C517 N515 1.356 . S
N518 C510 1.356 . S
N518 H524 0.984 . S
N518 H525 0.984 . S
N519 C512 1.356 . S
N519 H522 0.984 . S
N519 H523 0.985 . S
H520 N515 0.984 . S
H521 N515 0.985 . S
H522 N519 0.984 . S
H523 N519 0.985 . S
H524 N518 0.984 . S
H525 N518 0.984 . S
H526 N514 0.984 . S
H527 N514 0.985 . S
C528 C529 1.363 . S
C528 C534 1.379 . S
C528 N536 1.356 . S
C529 C528 1.363 . S
C529 C535 1.363 . S
C530 C531 1.363 . S
C530 C535 1.379 . S
C530 N537 1.356 . S
C531 C530 1.363 . S
C531 C534 1.363 . S
N532 C534 1.356 . S
N532 H544 0.984 . S
N532 H545 0.985 . S
N533 C535 1.356 . S
N533 H538 0.984 . S
N533 H539 0.985 . S
C534 C528 1.379 . S
C534 C531 1.363 . S
C534 N532 1.356 . S
C535 C529 1.363 . S
C535 C530 1.379 . S
C535 N533 1.356 . S
N536 C528 1.356 . S
N536 H542 0.984 . S
N536 H543 0.984 . S
N537 C530 1.356 . S
N537 H540 0.984 . S
N537 H541 0.985 . S
H538 N533 0.984 . S
H539 N533 0.985 . S
H540 N537 0.984 . S
H541 N537 0.985 . S
H542 N536 0.984 . S
H543 N536 0.984 . S
H544 N532 0.984 . S
H545 N532 0.985 . S
C546 C547 1.355 1_545 S
C546 C552 1.385 . S
C546 N554 1.355 1_545 S
C547 C546 1.355 1_565 S
C547 C553 1.363 . S
C548 C549 1.363 1_565 S
C548 C553 1.379 . S
C548 N555 1.356 . S
C549 C548 1.363 1_545 S
C549 C552 1.363 . S
N550 C552 1.356 . S
N550 H562 0.984 . S
N550 H563 0.985 . S
N551 C553 1.356 . S
N551 H556 0.984 . S
N551 H557 0.985 . S
C552 C546 1.385 . S
C552 C549 1.363 . S
C552 N550 1.356 . S
C553 C547 1.363 . S
C553 C548 1.379 . S
C553 N551 1.356 . S
N554 C546 1.355 1_565 S
N554 H560 0.984 1_565 S
N554 H561 0.984 . S
N555 C548 1.356 . S
N555 H558 0.984 1_565 S
N555 H559 0.985 . S
H556 N551 0.984 . S
H557 N551 0.985 . S
H558 N555 0.984 1_545 S
H559 N555 0.985 . S
H560 N554 0.984 1_545 S
H561 N554 0.984 . S
H562 N550 0.984 . S
H563 N550 0.985 . S
C564 C565 1.363 1_554 S
C564 C570 1.379 . S
C564 N572 1.356 . S
C565 C564 1.363 1_556 S
C565 C571 1.363 . S
C566 C567 1.363 1_556 S
C566 C571 1.379 . S
C566 N573 1.356 . S
C567 C566 1.363 1_554 S
C567 C570 1.363 . S
N568 C570 1.356 . S
N568 H580 0.984 . S
N568 H581 0.985 . S
N569 C571 1.356 . S
N569 H574 0.984 . S
N569 H575 0.985 . S
C570 C564 1.379 . S
C570 C567 1.363 . S
C570 N568 1.356 . S
C571 C565 1.363 . S
C571 C566 1.379 . S
C571 N569 1.356 . S
N572 C564 1.356 . S
N572 H578 0.984 . S
N572 H579 0.984 1_554 S
N573 C566 1.356 . S
N573 H576 0.984 1_556 S
N573 H577 0.985 . S
H574 N569 0.984 . S
H575 N569 0.985 . S
H576 N573 0.984 1_554 S
H577 N573 0.985 . S
H578 N572 0.984 . S
H579 N572 0.984 1_556 S
H580 N568 0.984 . S
H581 N568 0.985 . S
C582 C583 1.363 . S
C582 C588 1.379 . S
C582 N590 1.356 . S
C583 C582 1.363 . S
C583 C589 1.363 1_545 S
C584 C585 1.363 . S
C584 C589 1.379 . S
C584 N591 1.356 . S
C585 C584 1.363 . S
C585 C588 1.363 1_565 S
N586 C588 1.356 . S
N586 H598 0.984 . S
N586 H599 0.985 1_545 S
N587 C589 1.356 . S
N587 H592 0.984 1_565 S
N587 H593 0.985 . S
C588 C582 1.379 . S
C588 C585 1.363 1_545 S
C588 N586 1.356 . S
C589 C583 1.363 1_565 S
C589 C584 1.379 . S
C589 N587 1.356 . S
N590 C582 1.356 . S
N590 H596 0.984 . S
N590 H597 0.984 . S
N591 C584 1.356 . S
N591 H594 0.984 . S
N591 H595 0.985 . S
H592 N587 0.984 1_545 S
H593 N587 0.985 . S
H594 N591 0.984 . S
H595 N591 0.985 . S
H596 N590 0.984 . S
H597 N590 0.984 . S
H598 N586 0.984 . S
H599 N586 0.985 1_565 S
C600 C601 1.363 . S
C600 C606 1.379 . S
C600 N608 1.356 . S
C601 C600 1.363 . S
C601 C607 1.363 . S
C602 C603 1.363 . S
C602 C607 1.379 . S
C602 N609 1.356 . S
C603 C602 1.363 . S
C603 C606 1.363 . S
N604 C606 1.356 . S
N604 H616 0.984 . S
N604 H617 0.985 . S
N605 C607 1.356 . S
N605 H610 0.984 . S
N605 H611 0.985 . S
C606 C600 1.379 . S
C606 C603 1.363 . S
C606 N604 1.356 . S
C607 C601 1.363 . S
C607 C602 1.379 . S
C607 N605 1.356 . S
N608 C600 1.356 . S
N608 H614 0.984 . S
N608 H615 0.984 . S
N609 C602 1.356 . S
N609 H612 0.984 . S
N609 H613 0.985 . S
H610 N605 0.984 . S
H611 N605 0.985 . S
H612 N609 0.984 . S
H613 N609 0.985 . S
H614 N608 0.984 . S
H615 N608 0.984 . S
H616 N604 0.984 . S
H617 N604 0.985 . S
C618 C619 1.363 . S
C618 C624 1.379 . S
C618 N626 1.356 . S
C619 C618 1.363 . S
C619 C625 1.363 . S
C620 C621 1.363 . S
C620 C625 1.379 . S
C620 N627 1.356 . S
C621 C620 1.363 . S
C621 C624 1.363 . S
N622 C624 1.356 . S
N622 H634 0.984 . S
N622 H635 0.985 . S
N623 C625 1.356 . S
N623 H628 0.984 . S
N623 H629 0.985 . S
C624 C618 1.379 . S
C624 C621 1.363 . S
C624 N622 1.356 . S
C625 C619 1.363 . S
C625 C620 1.379 . S
C625 N623 1.356 . S
N626 C618 1.356 . S
N626 H632 0.984 . S
N626 H633 0.984 . S
N627 C620 1.356 . S
N627 H630 0.984 . S
N627 H631 0.985 . S
H628 N623 0.984 . S
H629 N623 0.985 . S
H630 N627 0.984 . S
H631 N627 0.985 . S
H632 N626 0.984 . S
H633 N626 0.984 . S
H634 N622 0.984 . S
H635 N622 0.985 . S
C636 C637 1.372 . S
C636 C642 1.371 1_556 S
C636 N644 1.358 . S
C637 C636 1.372 . S
C637 C643 1.363 . S
C638 C639 1.363 1_556 S
C638 C643 1.379 . S
C638 N645 1.356 . S
C639 C638 1.363 1_554 S
C639 C642 1.363 . S
N640 C642 1.356 . S
N640 H652 0.984 . S
N640 H653 0.985 . S
N641 C643 1.356 . S
N641 H646 0.984 . S
N641 H647 0.985 . S
C642 C636 1.371 1_554 S
C642 C639 1.363 . S
C642 N640 1.356 . S
C643 C637 1.363 . S
C643 C638 1.379 . S
C643 N641 1.356 . S
N644 C636 1.358 . S
N644 H650 0.984 1_556 S
N644 H651 0.984 . S
N645 C638 1.356 . S
N645 H648 0.984 1_556 S
N645 H649 0.985 . S
H646 N641 0.984 . S
H647 N641 0.985 . S
H648 N645 0.984 1_554 S
H649 N645 0.985 . S
H650 N644 0.984 1_554 S
H651 N644 0.984 . S
H652 N640 0.984 . S
H653 N640 0.985 . S
C654 C655 1.363 . S
C654 C660 1.379 . S
C654 N662 1.356 . S
C655 C654 1.363 . S
C655 C661 1.363 . S
C656 C657 1.363 . S
C656 C661 1.379 . S
C656 N663 1.356 . S
C657 C656 1.363 . S
C657 C660 1.363 . S
N658 C660 1.356 . S
N658 H670 0.984 . S
N658 H671 0.985 . S
N659 C661 1.356 . S
N659 H664 0.984 . S
N659 H665 0.985 . S
C660 C654 1.379 . S
C660 C657 1.363 . S
C660 N658 1.356 . S
C661 C655 1.363 . S
C661 C656 1.379 . S
C661 N659 1.356 . S
N662 C654 1.356 . S
N662 H668 0.984 . S
N662 H669 0.984 . S
N663 C656 1.356 . S
N663 H666 0.984 . S
N663 H667 0.985 . S
H664 N659 0.984 . S
H665 N659 0.985 . S
H666 N663 0.984 . S
H667 N663 0.985 . S
H668 N662 0.984 . S
H669 N662 0.984 . S
H670 N658 0.984 . S
H671 N658 0.985 . S
C672 C673 1.363 . S
C672 C678 1.379 . S
C672 N680 1.356 . S
C673 C672 1.363 . S
C673 C679 1.363 . S
C674 C675 1.363 . S
C674 C679 1.379 . S
C674 N681 1.356 . S
C675 C674 1.363 . S
C675 C678 1.363 . S
N676 C678 1.356 . S
N676 H688 0.984 . S
N676 H689 0.985 . S
N677 C679 1.356 . S
N677 H682 0.984 . S
N677 H683 0.985 . S
C678 C672 1.379 . S
C678 C675 1.363 . S
C678 N676 1.356 . S
C679 C673 1.363 . S
C679 C674 1.379 . S
C679 N677 1.356 . S
N680 C672 1.356 . S
N680 H686 0.984 . S
N680 H687 0.984 . S
N681 C674 1.356 . S
N681 H684 0.984 . S
N681 H685 0.985 . S
H682 N677 0.984 . S
H683 N677 0.985 . S
H684 N681 0.984 . S
H685 N681 0.985 . S
H686 N680 0.984 . S
H687 N680 0.984 . S
H688 N676 0.984 . S
H689 N676 0.985 . S
C690 C691 1.363 1_655 S
C690 C696 1.379 . S
C690 N698 1.356 . S
C691 C690 1.363 1_455 S
C691 C697 1.363 . S
C692 C693 1.363 1_455 S
C692 C697 1.379 . S
C692 N699 1.356 . S
C693 C692 1.363 1_655 S
C693 C696 1.363 . S
N694 C696 1.356 . S
N694 H706 0.984 . S
N694 H707 0.985 . S
N695 C697 1.356 . S
N695 H700 0.984 . S
N695 H701 0.985 . S
C696 C690 1.379 . S
C696 C693 1.363 . S
C696 N694 1.356 . S
C697 C691 1.363 . S
C697 C692 1.379 . S
C697 N695 1.356 . S
N698 C690 1.356 . S
N698 H704 0.984 . S
N698 H705 0.984 1_655 S
N699 C692 1.356 . S
N699 H702 0.984 1_455 S
N699 H703 0.985 . S
H700 N695 0.984 . S
H701 N695 0.985 . S
H702 N699 0.984 1_655 S
H703 N699 0.985 . S
H704 N698 0.984 . S
H705 N698 0.984 1_455 S
H706 N694 0.984 . S
H707 N694 0.985 . S
C708 C709 1.363 . S
C708 C714 1.379 . S
C708 N716 1.356 . S
C709 C708 1.363 . S
C709 C715 1.363 . S
C710 C711 1.363 . S
C710 C715 1.379 1_455 S
C710 N717 1.356 . S
C711 C710 1.363 . S
C711 C714 1.363 1_455 S
N712 C714 1.353 1_455 S
N712 H724 0.973 1_455 S
N712 H725 1.000 . S
N713 C715 1.356 . S
N713 H718 0.984 . S
N713 H719 0.985 1_655 S
C714 C708 1.379 . S
C714 C711 1.363 1_655 S
C714 N712 1.353 1_655 S
C715 C709 1.363 . S
C715 C710 1.379 1_655 S
C715 N713 1.356 . S
N716 C708 1.356 . S
N716 H722 0.984 . S
N716 H723 0.984 . S
N717 C710 1.356 . S
N717 H720 0.984 . S
N717 H721 0.985 . S
H718 N713 0.984 . S
H719 N713 0.985 1_455 S
H720 N717 0.984 . S
H721 N717 0.985 . S
H722 N716 0.984 . S
H723 N716 0.984 . S
H724 N712 0.973 1_655 S
H725 N712 1.000 . S
C726 C727 1.363 . S
C726 C732 1.379 . S
C726 N734 1.356 . S
C727 C726 1.363 . S
C727 C733 1.363 . S
C728 C729 1.363 . S
C728 C733 1.379 . S
C728 N735 1.356 . S
C729 C728 1.363 . S
C729 C732 1.363 . S
N730 C732 1.356 . S
N730 H742 0.984 . S
N730 H743 0.985 . S
N731 C733 1.356 . S
N731 H736 0.984 . S
N731 H737 0.985 . S
C732 C726 1.379 . S
C732 C729 1.363 . S
C732 N730 1.356 . S
C733 C727 1.363 . S
C733 C728 1.379 . S
C733 N731 1.356 . S
N734 C726 1.356 . S
N734 H740 0.984 . S
N734 H741 0.984 . S
N735 C728 1.356 . S
N735 H738 0.984 . S
N735 H739 0.985 . S
H736 N731 0.984 . S
H737 N731 0.985 . S
H738 N735 0.984 . S
H739 N735 0.985 . S
H740 N734 0.984 . S
H741 N734 0.984 . S
H742 N730 0.984 . S
H743 N730 0.985 . S
C744 C745 1.363 . S
C744 C750 1.379 . S
C744 N752 1.356 . S
C745 C744 1.363 . S
C745 C751 1.363 . S
C746 C747 1.363 . S
C746 C751 1.379 . S
C746 N753 1.356 . S
C747 C746 1.363 . S
C747 C750 1.363 . S
N748 C750 1.356 . S
N748 H760 0.984 . S
N748 H761 0.985 . S
N749 C751 1.356 . S
N749 H754 0.984 . S
N749 H755 0.985 . S
C750 C744 1.379 . S
C750 C747 1.363 . S
C750 N748 1.356 . S
C751 C745 1.363 . S
C751 C746 1.379 . S
C751 N749 1.356 . S
N752 C744 1.356 . S
N752 H758 0.984 . S
N752 H759 0.984 . S
N753 C746 1.356 . S
N753 H756 0.984 . S
N753 H757 0.985 . S
H754 N749 0.984 . S
H755 N749 0.985 . S
H756 N753 0.984 . S
H757 N753 0.985 . S
H758 N752 0.984 . S
H759 N752 0.984 . S
H760 N748 0.984 . S
H761 N748 0.985 . S
C762 C763 1.363 . S
C762 C768 1.379 . S
C762 N770 1.356 . S
C763 C762 1.363 . S
C763 C769 1.362 1_565 S
C764 C765 1.363 . S
C764 C769 1.378 1_565 S
C764 N771 1.356 . S
C765 C764 1.363 . S
C765 C768 1.363 . S
N766 C768 1.356 . S
N766 H778 0.984 . S
N766 H779 0.985 . S
N767 C769 1.358 . S
N767 H772 0.984 . S
N767 H773 0.985 . S
C768 C762 1.379 . S
C768 C765 1.363 . S
C768 N766 1.356 . S
C769 C763 1.362 1_545 S
C769 C764 1.378 1_545 S
C769 N767 1.358 . S
N770 C762 1.356 . S
N770 H776 0.984 . S
N770 H777 0.984 . S
N771 C764 1.356 . S
N771 H774 0.984 . S
N771 H775 0.985 1_565 S
H772 N767 0.984 . S
H773 N767 0.985 . S
H774 N771 0.984 . S
H775 N771 0.985 1_545 S
H776 N770 0.984 . S
H777 N770 0.984 . S
H778 N766 0.984 . S
H779 N766 0.985 . S
C780 C781 1.363 . S
C780 C786 1.379 . S
C780 N788 1.356 . S
C781 C780 1.363 . S
C781 C787 1.363 . S
C782 C783 1.363 . S
C782 C787 1.379 . S
C782 N789 1.356 . S
C783 C782 1.363 . S
C783 C786 1.363 . S
N784 C786 1.356 . S
N784 H796 0.984 . S
N784 H797 0.985 . S
N785 C787 1.356 . S
N785 H790 0.984 . S
N785 H791 0.985 . S
C786 C780 1.379 . S
C786 C783 1.363 . S
C786 N784 1.356 . S
C787 C781 1.363 . S
C787 C782 1.379 . S
C787 N785 1.356 . S
N788 C780 1.356 . S
N788 H794 0.984 . S
N788 H795 0.984 . S
N789 C782 1.356 . S
N789 H792 0.984 . S
N789 H793 0.985 . S
H790 N785 0.984 . S
H791 N785 0.985 . S
H792 N789 0.984 . S
H793 N789 0.985 . S
H794 N788 0.984 . S
H795 N788 0.984 . S
H796 N784 0.984 . S
H797 N784 0.985 . S
C798 C799 1.363 . S
C798 C804 1.388 . S
C798 N806 1.356 . S
C799 C798 1.363 . S
C799 C805 1.363 . S
C800 C801 1.363 . S
C800 C805 1.379 . S
C800 N807 1.356 1_554 S
C801 C800 1.363 . S
C801 C804 1.390 . S
N802 C804 1.339 1_565 S
N802 H814 0.984 . S
N802 H815 0.985 1_554 S
N803 C805 1.356 . S
N803 H808 0.984 . S
N803 H809 0.985 . S
C804 C798 1.388 . S
C804 C801 1.390 . S
C804 N802 1.339 1_545 S
C805 C799 1.363 . S
C805 C800 1.379 . S
C805 N803 1.356 . S
N806 C798 1.356 . S
N806 H812 0.984 1_545 S
N806 H813 0.984 . S
N807 C800 1.356 1_556 S
N807 H810 0.984 . S
N807 H811 0.985 . S
H808 N803 0.984 . S
H809 N803 0.985 . S
H810 N807 0.984 . S
H811 N807 0.985 . S
H812 N806 0.984 1_565 S
H813 N806 0.984 . S
H814 N802 0.984 . S
H815 N802 0.985 1_556 S
C816 C817 1.363 . S
C816 C822 1.379 . S
C816 N824 1.356 . S
C817 C816 1.363 . S
C817 C823 1.363 . S
C818 C819 1.363 . S
C818 C823 1.379 . S
C818 N825 1.356 . S
C819 C818 1.363 . S
C819 C822 1.363 . S
N820 C822 1.356 . S
N820 H832 0.984 . S
N820 H833 0.985 . S
N821 C823 1.356 . S
N821 H826 0.984 . S
N821 H827 0.985 . S
C822 C816 1.379 . S
C822 C819 1.363 . S
C822 N820 1.356 . S
C823 C817 1.363 . S
C823 C818 1.379 . S
C823 N821 1.356 . S
N824 C816 1.356 . S
N824 H830 0.984 . S
N824 H831 0.984 . S
N825 C818 1.356 . S
N825 H828 0.984 . S
N825 H829 0.985 . S
H826 N821 0.984 . S
H827 N821 0.985 . S
H828 N825 0.984 . S
H829 N825 0.985 . S
H830 N824 0.984 . S
H831 N824 0.984 . S
H832 N820 0.984 . S
H833 N820 0.985 . S
C834 C835 1.369 . S
C834 C840 1.379 . S
C834 N842 1.356 1_556 S
C835 C834 1.369 . S
C835 C841 1.376 . S
C836 C837 1.363 . S
C836 C841 1.379 . S
C836 N843 1.356 . S
C837 C836 1.363 . S
C837 C840 1.363 . S
N838 C840 1.356 . S
N838 H850 0.984 . S
N838 H851 0.985 . S
N839 C841 1.356 . S
N839 H844 0.984 1_556 S
N839 H845 0.985 . S
C840 C834 1.379 . S
C840 C837 1.363 . S
C840 N838 1.356 . S
C841 C835 1.376 . S
C841 C836 1.379 . S
C841 N839 1.356 . S
N842 C834 1.356 1_554 S
N842 H848 0.984 . S
N842 H849 0.984 . S
N843 C836 1.356 . S
N843 H846 0.984 . S
N843 H847 0.985 . S
H844 N839 0.984 1_554 S
H845 N839 0.985 . S
H846 N843 0.984 . S
H847 N843 0.985 . S
H848 N842 0.984 . S
H849 N842 0.984 . S
H850 N838 0.984 . S
H851 N838 0.985 . S
C852 C853 1.363 . S
C852 C858 1.379 . S
C852 N860 1.356 . S
C853 C852 1.363 . S
C853 C859 1.363 . S
C854 C855 1.363 . S
C854 C859 1.379 . S
C854 N861 1.356 . S
C855 C854 1.363 . S
C855 C858 1.363 . S
N856 C858 1.356 . S
N856 H868 0.984 . S
N856 H869 0.985 . S
N857 C859 1.356 . S
N857 H862 0.984 . S
N857 H863 0.985 . S
C858 C852 1.379 . S
C858 C855 1.363 . S
C858 N856 1.356 . S
C859 C853 1.363 . S
C859 C854 1.379 . S
C859 N857 1.356 . S
N860 C852 1.356 . S
N860 H866 0.984 . S
N860 H867 0.984 . S
N861 C854 1.356 . S
N861 H864 0.984 . S
N861 H865 0.985 . S
H862 N857 0.984 . S
H863 N857 0.985 . S
H864 N861 0.984 . S
H865 N861 0.985 . S
H866 N860 0.984 . S
H867 N860 0.984 . S
H868 N856 0.984 . S
H869 N856 0.985 . S
C870 C871 1.363 . S
C870 C876 1.379 . S
C870 N878 1.356 . S
C871 C870 1.363 . S
C871 C877 1.363 . S
C872 C873 1.363 . S
C872 C877 1.379 . S
C872 N879 1.356 . S
C873 C872 1.363 . S
C873 C876 1.363 . S
N874 C876 1.356 . S
N874 H886 0.984 . S
N874 H887 0.985 . S
N875 C877 1.356 . S
N875 H880 0.984 . S
N875 H881 0.985 . S
C876 C870 1.379 . S
C876 C873 1.363 . S
C876 N874 1.356 . S
C877 C871 1.363 . S
C877 C872 1.379 . S
C877 N875 1.356 . S
N878 C870 1.356 . S
N878 H884 0.984 . S
N878 H885 0.984 . S
N879 C872 1.356 . S
N879 H882 0.984 . S
N879 H883 0.985 . S
H880 N875 0.984 . S
H881 N875 0.985 . S
H882 N879 0.984 . S
H883 N879 0.985 . S
H884 N878 0.984 . S
H885 N878 0.984 . S
H886 N874 0.984 . S
H887 N874 0.985 . S
C888 C889 1.363 . S
C888 C894 1.379 . S
C888 N896 1.356 . S
C889 C888 1.363 . S
C889 C895 1.363 . S
C890 C891 1.363 . S
C890 C895 1.379 . S
C890 N897 1.356 . S
C891 C890 1.363 . S
C891 C894 1.363 . S
N892 C894 1.356 . S
N892 H904 0.984 . S
N892 H905 0.985 . S
N893 C895 1.356 . S
N893 H898 0.984 . S
N893 H899 0.985 . S
C894 C888 1.379 . S
C894 C891 1.363 . S
C894 N892 1.356 . S
C895 C889 1.363 . S
C895 C890 1.379 . S
C895 N893 1.356 . S
N896 C888 1.356 . S
N896 H902 0.984 . S
N896 H903 0.984 . S
N897 C890 1.356 . S
N897 H900 0.984 . S
N897 H901 0.985 . S
H898 N893 0.984 . S
H899 N893 0.985 . S
H900 N897 0.984 . S
H901 N897 0.985 . S
H902 N896 0.984 . S
H903 N896 0.984 . S
H904 N892 0.984 . S
H905 N892 0.985 . S
C906 C907 1.377 . S
C906 C912 1.379 . S
C906 N914 1.347 1_455 S
C907 C906 1.377 . S
C907 C913 1.368 . S
C908 C909 1.363 . S
C908 C913 1.379 . S
C908 N915 1.356 . S
C909 C908 1.363 . S
C909 C912 1.363 . S
N910 C912 1.356 . S
N910 H922 0.984 . S
N910 H923 0.985 . S
N911 C913 1.356 1_565 S
N911 H916 0.984 . S
N911 H917 0.985 . S
C912 C906 1.379 . S
C912 C909 1.363 . S
C912 N910 1.356 . S
C913 C907 1.368 . S
C913 C908 1.379 . S
C913 N911 1.356 1_545 S
N914 C906 1.347 1_655 S
N914 H920 0.987 . S
N914 H921 0.992 1_545 S
N915 C908 1.356 . S
N915 H918 0.984 . S
N915 H919 0.985 . S
H916 N911 0.984 . S
H917 N911 0.985 . S
H918 N915 0.984 . S
H919 N915 0.985 . S
H920 N914 0.987 . S
H921 N914 0.992 1_565 S
H922 N910 0.984 . S
H923 N910 0.985 . S
C924 C925 1.363 . S
C924 C930 1.379 . S
C924 N932 1.356 . S
C925 C924 1.363 . S
C925 C931 1.363 . S
C926 C927 1.363 . S
C926 C931 1.379 . S
C926 N933 1.356 . S
C927 C926 1.363 . S
C927 C930 1.363 . S
N928 C930 1.356 . S
N928 H940 0.984 . S
N928 H941 0.985 . S
N929 C931 1.356 . S
N929 H934 0.984 . S
N929 H935 0.985 . S
C930 C924 1.379 . S
C930 C927 1.363 . S
C930 N928 1.356 . S
C931 C925 1.363 . S
C931 C926 1.379 . S
C931 N929 1.356 . S
N932 C924 1.356 . S
N932 H938 0.984 . S
N932 H939 0.984 . S
N933 C926 1.356 . S
N933 H936 0.984 . S
N933 H937 0.985 . S
H934 N929 0.984 . S
H935 N929 0.985 . S
H936 N933 0.984 . S
H937 N933 0.985 . S
H938 N932 0.984 . S
H939 N932 0.984 . S
H940 N928 0.984 . S
H941 N928 0.985 . S
C942 C943 1.379 . S
C942 C948 1.379 . S
C942 N950 1.356 . S
C943 C942 1.379 . S
C943 C949 1.366 . S
C944 C945 1.363 . S
C944 C949 1.379 . S
C944 N951 1.356 . S
C945 C944 1.363 . S
C945 C948 1.363 . S
N946 C948 1.356 . S
N946 H958 0.984 . S
N946 H959 0.985 . S
N947 C949 1.356 1_545 S
N947 H952 0.984 . S
N947 H953 0.985 . S
C948 C942 1.379 . S
C948 C945 1.363 . S
C948 N946 1.356 . S
C949 C943 1.366 . S
C949 C944 1.379 . S
C949 N947 1.356 1_565 S
N950 C942 1.356 . S
N950 H956 0.984 . S
N950 H957 0.984 1_565 S
N951 C944 1.356 . S
N951 H954 0.984 . S
N951 H955 0.985 . S
H952 N947 0.984 . S
H953 N947 0.985 . S
H954 N951 0.984 . S
H955 N951 0.985 . S
H956 N950 0.984 . S
H957 N950 0.984 1_545 S
H958 N946 0.984 . S
H959 N946 0.985 . S
C960 C961 1.363 . S
C960 C966 1.379 . S
C960 N968 1.356 . S
C961 C960 1.363 . S
C961 C967 1.363 . S
C962 C963 1.363 . S
C962 C967 1.379 . S
C962 N969 1.356 . S
C963 C962 1.363 . S
C963 C966 1.363 . S
N964 C966 1.356 . S
N964 H976 0.984 . S
N964 H977 0.985 . S
N965 C967 1.356 . S
N965 H970 0.984 . S
N965 H971 0.985 . S
C966 C960 1.379 . S
C966 C963 1.363 . S
C966 N964 1.356 . S
C967 C961 1.363 . S
C967 C962 1.379 . S
C967 N965 1.356 . S
N968 C960 1.356 . S
N968 H974 0.984 . S
N968 H975 0.984 . S
N969 C962 1.356 . S
N969 H972 0.984 . S
N969 H973 0.985 . S
H970 N965 0.984 . S
H971 N965 0.985 . S
H972 N969 0.984 . S
H973 N969 0.985 . S
H974 N968 0.984 . S
H975 N968 0.984 . S
H976 N964 0.984 . S
H977 N964 0.985 . S
C978 C979 1.363 . S
C978 C984 1.379 . S
C978 N986 1.356 . S
C979 C978 1.363 . S
C979 C985 1.363 . S
C980 C981 1.363 . S
C980 C985 1.379 . S
C980 N987 1.356 . S
C981 C980 1.363 . S
C981 C984 1.363 . S
N982 C984 1.356 . S
N982 H994 0.984 . S
N982 H995 0.985 . S
N983 C985 1.356 1_455 S
N983 H988 0.984 . S
N983 H989 0.985 . S
C984 C978 1.379 . S
C984 C981 1.363 . S
C984 N982 1.356 . S
C985 C979 1.363 . S
C985 C980 1.379 . S
C985 N983 1.356 1_655 S
N986 C978 1.356 . S
N986 H992 0.984 . S
N986 H993 0.984 . S
N987 C980 1.356 . S
N987 H990 0.984 . S
N987 H991 0.985 . S
H988 N983 0.984 . S
H989 N983 0.985 . S
H990 N987 0.984 . S
H991 N987 0.985 . S
H992 N986 0.984 . S
H993 N986 0.984 . S
H994 N982 0.984 . S
H995 N982 0.985 . S
C996 C997 1.363 . S
C996 C1002 1.379 . S
C996 N1004 1.356 . S
C997 C996 1.363 . S
C997 C1003 1.363 . S
C998 C999 1.363 . S
C998 C1003 1.379 . S
C998 N1005 1.356 . S
C999 C998 1.363 . S
C999 C1002 1.363 . S
N1000 C1002 1.356 . S
N1000 H1012 0.984 . S
N1000 H1013 0.985 . S
N1001 C1003 1.356 . S
N1001 H1006 0.984 . S
N1001 H1007 0.985 . S
C1002 C996 1.379 . S
C1002 C999 1.363 . S
C1002 N1000 1.356 . S
C1003 C997 1.363 . S
C1003 C998 1.379 . S
C1003 N1001 1.356 . S
N1004 C996 1.356 . S
N1004 H1010 0.984 . S
N1004 H1011 0.984 . S
N1005 C998 1.356 . S
N1005 H1008 0.984 . S
N1005 H1009 0.985 . S
H1006 N1001 0.984 . S
H1007 N1001 0.985 . S
H1008 N1005 0.984 . S
H1009 N1005 0.985 . S
H1010 N1004 0.984 . S
H1011 N1004 0.984 . S
H1012 N1000 0.984 . S
H1013 N1000 0.985 . S
C1014 C1015 1.363 . S
C1014 C1020 1.379 . S
C1014 N1022 1.356 . S
C1015 C1014 1.363 . S
C1015 C1021 1.363 . S
C1016 C1017 1.363 . S
C1016 C1021 1.379 . S
C1016 N1023 1.356 . S
C1017 C1016 1.363 . S
C1017 C1020 1.363 . S
N1018 C1020 1.356 . S
N1018 H1030 0.984 . S
N1018 H1031 0.985 . S
N1019 C1021 1.356 . S
N1019 H1024 0.984 . S
N1019 H1025 0.985 . S
C1020 C1014 1.379 . S
C1020 C1017 1.363 . S
C1020 N1018 1.356 . S
C1021 C1015 1.363 . S
C1021 C1016 1.379 . S
C1021 N1019 1.356 . S
N1022 C1014 1.356 . S
N1022 H1028 0.984 . S
N1022 H1029 0.984 . S
N1023 C1016 1.356 . S
N1023 H1026 0.984 . S
N1023 H1027 0.985 . S
H1024 N1019 0.984 . S
H1025 N1019 0.985 . S
H1026 N1023 0.984 . S
H1027 N1023 0.985 . S
H1028 N1022 0.984 . S
H1029 N1022 0.984 . S
H1030 N1018 0.984 . S
H1031 N1018 0.985 . S
C1032 C1033 1.363 . S
C1032 C1038 1.379 . S
C1032 N1040 1.356 . S
C1033 C1032 1.363 . S
C1033 C1039 1.363 . S
C1034 C1035 1.363 . S
C1034 C1039 1.379 . S
C1034 N1041 1.356 . S
C1035 C1034 1.363 . S
C1035 C1038 1.363 . S
N1036 C1038 1.356 . S
N1036 H1048 0.984 . S
N1036 H1049 0.985 . S
N1037 C1039 1.356 . S
N1037 H1042 0.984 . S
N1037 H1043 0.985 . S
C1038 C1032 1.379 . S
C1038 C1035 1.363 . S
C1038 N1036 1.356 . S
C1039 C1033 1.363 . S
C1039 C1034 1.379 . S
C1039 N1037 1.356 . S
N1040 C1032 1.356 . S
N1040 H1046 0.984 . S
N1040 H1047 0.984 . S
N1041 C1034 1.356 . S
N1041 H1044 0.984 . S
N1041 H1045 0.985 . S
H1042 N1037 0.984 . S
H1043 N1037 0.985 . S
H1044 N1041 0.984 . S
H1045 N1041 0.985 . S
H1046 N1040 0.984 . S
H1047 N1040 0.984 . S
H1048 N1036 0.984 . S
H1049 N1036 0.985 . S
C1050 C1051 1.363 . S
C1050 C1056 1.379 . S
C1050 N1058 1.356 . S
C1051 C1050 1.363 . S
C1051 C1057 1.363 . S
C1052 C1053 1.363 . S
C1052 C1057 1.379 . S
C1052 N1059 1.356 . S
C1053 C1052 1.363 . S
C1053 C1056 1.363 . S
N1054 C1056 1.356 . S
N1054 H1066 0.984 . S
N1054 H1067 0.985 . S
N1055 C1057 1.356 . S
N1055 H1060 0.984 . S
N1055 H1061 0.985 . S
C1056 C1050 1.379 . S
C1056 C1053 1.363 . S
C1056 N1054 1.356 . S
C1057 C1051 1.363 . S
C1057 C1052 1.379 . S
C1057 N1055 1.356 . S
N1058 C1050 1.356 . S
N1058 H1064 0.984 . S
N1058 H1065 0.984 . S
N1059 C1052 1.356 . S
N1059 H1062 0.984 . S
N1059 H1063 0.985 . S
H1060 N1055 0.984 . S
H1061 N1055 0.985 . S
H1062 N1059 0.984 . S
H1063 N1059 0.985 . S
H1064 N1058 0.984 . S
H1065 N1058 0.984 . S
H1066 N1054 0.984 . S
H1067 N1054 0.985 . S
C1068 C1069 1.378 . S
C1068 C1074 1.379 . S
C1068 N1076 1.356 1_554 S
C1069 C1068 1.378 . S
C1069 C1075 1.366 . S
C1070 C1071 1.363 . S
C1070 C1075 1.379 . S
C1070 N1077 1.356 . S
C1071 C1070 1.363 . S
C1071 C1074 1.363 . S
N1072 C1074 1.356 . S
N1072 H1084 0.984 . S
N1072 H1085 0.985 . S
N1073 C1075 1.356 1_655 S
N1073 H1078 0.984 . S
N1073 H1079 0.985 . S
C1074 C1068 1.379 . S
C1074 C1071 1.363 . S
C1074 N1072 1.356 . S
C1075 C1069 1.366 . S
C1075 C1070 1.379 . S
C1075 N1073 1.356 1_455 S
N1076 C1068 1.356 1_556 S
N1076 H1082 0.984 . S
N1076 H1083 0.984 1_455 S
N1077 C1070 1.356 . S
N1077 H1080 0.984 . S
N1077 H1081 0.985 . S
H1078 N1073 0.984 . S
H1079 N1073 0.985 . S
H1080 N1077 0.984 . S
H1081 N1077 0.985 . S
H1082 N1076 0.984 . S
H1083 N1076 0.984 1_655 S
H1084 N1072 0.984 . S
H1085 N1072 0.985 . S
C1086 C1087 1.363 . S
C1086 C1092 1.379 . S
C1086 N1094 1.356 . S
C1087 C1086 1.363 . S
C1087 C1093 1.363 . S
C1088 C1089 1.363 . S
C1088 C1093 1.379 . S
C1088 N1095 1.356 . S
C1089 C1088 1.363 . S
C1089 C1092 1.363 . S
N1090 C1092 1.356 . S
N1090 H1102 0.984 . S
N1090 H1103 0.985 . S
N1091 C1093 1.356 . S
N1091 H1096 0.984 . S
N1091 H1097 0.985 . S
C1092 C1086 1.379 . S
C1092 C1089 1.363 . S
C1092 N1090 1.356 . S
C1093 C1087 1.363 . S
C1093 C1088 1.379 . S
C1093 N1091 1.356 . S
N1094 C1086 1.356 . S
N1094 H1100 0.984 . S
N1094 H1101 0.984 . S
N1095 C1088 1.356 . S
N1095 H1098 0.984 . S
N1095 H1099 0.985 . S
H1096 N1091 0.984 . S
H1097 N1091 0.985 . S
H1098 N1095 0.984 . S
H1099 N1095 0.985 . S
H1100 N1094 0.984 . S
H1101 N1094 0.984 . S
H1102 N1090 0.984 . S
H1103 N1090 0.985 . S
C1104 C1105 1.363 . S
C1104 C1110 1.379 . S
C1104 N1112 1.356 . S
C1105 C1104 1.363 . S
C1105 C1111 1.363 . S
C1106 C1107 1.363 . S
C1106 C1111 1.379 . S
C1106 N1113 1.356 . S
C1107 C1106 1.363 . S
C1107 C1110 1.363 . S
N1108 C1110 1.356 . S
N1108 H1120 0.984 . S
N1108 H1121 0.985 . S
N1109 C1111 1.356 . S
N1109 H1114 0.984 . S
N1109 H1115 0.985 . S
C1110 C1104 1.379 . S
C1110 C1107 1.363 . S
C1110 N1108 1.356 . S
C1111 C1105 1.363 . S
C1111 C1106 1.379 . S
C1111 N1109 1.356 . S
N1112 C1104 1.356 . S
N1112 H1118 0.984 . S
N1112 H1119 0.984 . S
N1113 C1106 1.356 . S
N1113 H1116 0.984 . S
N1113 H1117 0.985 . S
H1114 N1109 0.984 . S
H1115 N1109 0.985 . S
H1116 N1113 0.984 . S
H1117 N1113 0.985 . S
H1118 N1112 0.984 . S
H1119 N1112 0.984 . S
H1120 N1108 0.984 . S
H1121 N1108 0.985 . S
C1122 C1123 1.363 . S
C1122 C1128 1.379 . S
C1122 N1130 1.356 . S
C1123 C1122 1.363 . S
C1123 C1129 1.363 . S
C1124 C1125 1.363 . S
C1124 C1129 1.379 . S
C1124 N1131 1.356 . S
C1125 C1124 1.363 . S
C1125 C1128 1.363 . S
N1126 C1128 1.356 . S
N1126 H1138 0.984 . S
N1126 H1139 0.985 . S
N1127 C1129 1.356 . S
N1127 H1132 0.984 . S
N1127 H1133 0.985 . S
C1128 C1122 1.379 . S
C1128 C1125 1.363 . S
C1128 N1126 1.356 . S
C1129 C1123 1.363 . S
C1129 C1124 1.379 . S
C1129 N1127 1.356 . S
N1130 C1122 1.356 . S
N1130 H1136 0.984 . S
N1130 H1137 0.984 . S
N1131 C1124 1.356 . S
N1131 H1134 0.984 . S
N1131 H1135 0.985 . S
H1132 N1127 0.984 . S
H1133 N1127 0.985 . S
H1134 N1131 0.984 . S
H1135 N1131 0.985 . S
H1136 N1130 0.984 . S
H1137 N1130 0.984 . S
H1138 N1126 0.984 . S
H1139 N1126 0.985 . S
C1140 C1141 1.363 . S
C1140 C1146 1.379 . S
C1140 N1148 1.356 . S
C1141 C1140 1.363 . S
C1141 C1147 1.363 . S
C1142 C1143 1.363 . S
C1142 C1147 1.379 . S
C1142 N1149 1.356 . S
C1143 C1142 1.363 . S
C1143 C1146 1.363 . S
N1144 C1146 1.356 . S
N1144 H1156 0.984 . S
N1144 H1157 0.985 . S
N1145 C1147 1.356 . S
N1145 H1150 0.984 . S
N1145 H1151 0.985 . S
C1146 C1140 1.379 . S
C1146 C1143 1.363 . S
C1146 N1144 1.356 . S
C1147 C1141 1.363 . S
C1147 C1142 1.379 . S
C1147 N1145 1.356 . S
N1148 C1140 1.356 . S
N1148 H1154 0.984 . S
N1148 H1155 0.984 1_556 S
N1149 C1142 1.356 . S
N1149 H1152 0.984 . S
N1149 H1153 0.985 . S
H1150 N1145 0.984 . S
H1151 N1145 0.985 . S
H1152 N1149 0.984 . S
H1153 N1149 0.985 . S
H1154 N1148 0.984 . S
H1155 N1148 0.984 1_554 S
H1156 N1144 0.984 . S
H1157 N1144 0.985 . S
C1158 C1159 1.363 . S
C1158 C1164 1.379 . S
C1158 N1166 1.356 . S
C1159 C1158 1.363 . S
C1159 C1165 1.363 . S
C1160 C1161 1.377 . S
C1160 C1165 1.379 . S
C1160 N1167 1.356 . S
C1161 C1160 1.377 . S
C1161 C1164 1.368 . S
N1162 C1164 1.356 1_455 S
N1162 H1174 0.984 . S
N1162 H1175 0.985 . S
N1163 C1165 1.356 . S
N1163 H1168 0.984 . S
N1163 H1169 0.985 . S
C1164 C1158 1.379 . S
C1164 C1161 1.368 . S
C1164 N1162 1.356 1_655 S
C1165 C1159 1.363 . S
C1165 C1160 1.379 . S
C1165 N1163 1.356 . S
N1166 C1158 1.356 . S
N1166 H1172 0.984 . S
N1166 H1173 0.984 . S
N1167 C1160 1.356 . S
N1167 H1170 0.984 1_655 S
N1167 H1171 0.985 . S
H1168 N1163 0.984 . S
H1169 N1163 0.985 . S
H1170 N1167 0.984 1_455 S
H1171 N1167 0.985 . S
H1172 N1166 0.984 . S
H1173 N1166 0.984 . S
H1174 N1162 0.984 . S
H1175 N1162 0.985 . S
C313 C121 1.345 . S
C315 C4 1.345 . S
C331 C23 1.345 . S
C333 C140 1.345 . S
C349 C36 1.345 . S
C351 C147 1.345 . S
C367 C49 1.345 . S
C369 C108 1.345 . S
C385 C56 1.345 . S
C387 C199 1.345 . S
C403 C166 1.345 . S
C405 C69 1.345 . S
C421 C88 1.345 . S
C423 C179 1.345 . S
C439 C186 1.345 . S
C441 C101 1.345 . S
C457 C212 1.345 . S
C459 C238 1.345 . S
C475 C290 1.345 . S
C477 C225 1.345 . S
C493 C251 1.345 . S
C495 C309 1.345 . S
C511 C283 1.345 . S
C513 C270 1.345 . S
C529 C264 1.884 . S
C531 C10 1.884 . S
C547 C17 1.884 . S
C549 C231 1.884 . S
C565 C30 1.884 . S
C567 C244 1.884 . S
C583 C43 1.884 . S
C585 C257 1.884 . S
C601 C62 1.884 . S
C603 C303 1.884 . S
C619 C277 1.884 . S
C621 C75 1.884 . S
C637 C296 1.884 . S
C639 C82 1.884 . S
C655 C218 1.884 . S
C657 C95 1.884 . S
C673 C205 1.884 . S
C675 C114 1.884 . S
C691 C127 1.884 . S
C693 C160 1.884 . S
C709 C173 1.884 . S
C711 C134 1.884 . S
C727 C192 1.884 . S
C729 C153 1.884 . S
C745 C5 1.427 . S
C747 C211 1.473 . S
C763 C304 1.473 1_565 S
C765 C16 1.427 . S
C781 C278 1.473 . S
C783 C29 1.427 . S
C799 C42 1.427 . S
C801 C289 1.458 1_544 S
C817 C57 1.427 . S
C819 C224 1.473 . S
C835 C237 1.458 1_556 S
C837 C70 1.427 . S
C853 C250 1.473 . S
C855 C81 1.427 . S
C871 C265 1.473 . S
C873 C94 1.427 . S
C889 C3 1.473 . S
C891 C109 1.427 . S
C907 C18 1.458 1_445 S
C909 C122 1.427 . S
C925 C31 1.473 . S
C927 C133 1.427 . S
C943 C44 1.458 1_565 S
C945 C148 1.427 . S
C961 C55 1.473 . S
C963 C159 1.427 . S
C979 C68 1.473 1_655 S
C981 C172 1.427 . S
C997 C187 1.427 . S
C999 C83 1.473 . S
C1015 C96 1.473 . S
C1017 C200 1.427 . S
C1033 C107 1.473 . S
C1035 C213 1.427 . S
C1051 C226 1.427 . S
C1053 C161 1.473 . S
C1069 C174 1.458 1_454 S
C1071 C239 1.427 . S
C1087 C252 1.427 . S
C1089 C185 1.473 . S
C1105 C263 1.427 . S
C1107 C198 1.473 . S
C1123 C276 1.427 . S
C1125 C135 1.473 . S
C1141 C146 1.473 1_556 S
C1143 C291 1.427 . S
C1159 C302 1.427 . S
C1161 C120 1.458 1_655 S
