# Generated by pormake.
# Topology yfg, (5)-cn, num edge types: 1
# Building blocks:
#     Node 0, Type 0, BuildingBlock: XOMCOT_clean_sbu_1, # of connection points: 5
#     Node 1, Type 0, BuildingBlock: XOMCOT_clean_sbu_1, # of connection points: 5
#     Node 2, Type 0, BuildingBlock: XOMCOT_clean_sbu_1, # of connection points: 5
#     Node 3, Type 0, BuildingBlock: XOMCOT_clean_sbu_1, # of connection points: 5
#     Node 4, Type 0, BuildingBlock: XOMCOT_clean_sbu_1, # of connection points: 5
#     Node 5, Type 0, BuildingBlock: XOMCOT_clean_sbu_1, # of connection points: 5
#     Node 6, Type 0, BuildingBlock: XOMCOT_clean_sbu_1, # of connection points: 5
#     Node 7, Type 0, BuildingBlock: XOMCOT_clean_sbu_1, # of connection points: 5
#     Edge 8, Type (0, 0), BuildingBlock: KIFKEQ_clean_linker_1, # of connection points: 2
#     Edge 9, Type (0, 0), BuildingBlock: KIFKEQ_clean_linker_1, # of connection points: 2
#     Edge 10, Type (0, 0), BuildingBlock: KIFKEQ_clean_linker_1, # of connection points: 2
#     Edge 11, Type (0, 0), BuildingBlock: KIFKEQ_clean_linker_1, # of connection points: 2
#     Edge 12, Type (0, 0), BuildingBlock: KIFKEQ_clean_linker_1, # of connection points: 2
#     Edge 13, Type (0, 0), BuildingBlock: KIFKEQ_clean_linker_1, # of connection points: 2
#     Edge 14, Type (0, 0), BuildingBlock: KIFKEQ_clean_linker_1, # of connection points: 2
#     Edge 15, Type (0, 0), BuildingBlock: KIFKEQ_clean_linker_1, # of connection points: 2
#     Edge 16, Type (0, 0), BuildingBlock: KIFKEQ_clean_linker_1, # of connection points: 2
#     Edge 17, Type (0, 0), BuildingBlock: KIFKEQ_clean_linker_1, # of connection points: 2
#     Edge 18, Type (0, 0), BuildingBlock: KIFKEQ_clean_linker_1, # of connection points: 2
#     Edge 19, Type (0, 0), BuildingBlock: KIFKEQ_clean_linker_1, # of connection points: 2
#     Edge 20, Type (0, 0), BuildingBlock: KIFKEQ_clean_linker_1, # of connection points: 2
#     Edge 21, Type (0, 0), BuildingBlock: KIFKEQ_clean_linker_1, # of connection points: 2
#     Edge 22, Type (0, 0), BuildingBlock: KIFKEQ_clean_linker_1, # of connection points: 2
#     Edge 23, Type (0, 0), BuildingBlock: KIFKEQ_clean_linker_1, # of connection points: 2
#     Edge 24, Type (0, 0), BuildingBlock: KIFKEQ_clean_linker_1, # of connection points: 2
#     Edge 25, Type (0, 0), BuildingBlock: KIFKEQ_clean_linker_1, # of connection points: 2
#     Edge 26, Type (0, 0), BuildingBlock: KIFKEQ_clean_linker_1, # of connection points: 2
#     Edge 27, Type (0, 0), BuildingBlock: KIFKEQ_clean_linker_1, # of connection points: 2
# Relax obj value: 0.434
# Max RMSD: 0.202
# Mean RMSD: 0.202
data_MOF--net-yfg--node1-XOMCOT_clean_sbu_1--edge1-KIFKEQ_clean_linker_1
_symmetry_space_group_name_H-M    P1
_symmetry_Int_Tables_number       1
_symmetry_cell_setting            triclinic
loop_
_symmetry_equiv_pos_as_xyz
'x, y, z'
_cell_length_a     36.117053
_cell_length_b     36.106524
_cell_length_c     40.315564
_cell_angle_alpha  90.093807
_cell_angle_beta   90.026269
_cell_angle_gamma 90.247201
loop_
_atom_site_label
_atom_site_type_symbol
_atom_site_fract_x
_atom_site_fract_y
_atom_site_fract_z
_atom_type_partial_charge
C0 C 0.19044 0.53202 0.07904 0.0
C1 C 0.17994 0.53505 0.11166 0.0
N2 N 0.20836 0.52385 0.13082 0.0
N3 N 0.2252 0.51873 0.07761 0.0
C4 C 0.23549 0.51411 0.10952 0.0
H5 H 0.17397 0.53932 0.05763 0.0
Co6 Co 0.25167 0.51264 0.03867 0.0
C7 C 0.29248 0.44147 0.05443 0.0
O8 O 0.2788 0.42285 0.02926 0.0
N9 N 0.27828 0.50824 0.99848 0.0
C10 C 0.30085 0.49144 0.94922 0.0
C11 C 0.28012 0.48033 0.97612 0.0
C12 C 0.29741 0.53619 0.98403 0.0
N13 N 0.31155 0.52672 0.95424 0.0
O14 O 0.28656 0.54837 0.05449 0.0
H15 H 0.26544 0.45434 0.97788 0.0
H16 H 0.30027 0.56348 0.99473 0.0
O17 O 0.2826 0.47492 0.05957 0.0
C18 C 0.27778 0.58231 0.05753 0.0
O19 O 0.24517 0.59328 0.04704 0.0
N20 N 0.21547 0.47867 0.02413 0.0
C21 C 0.14608 0.44689 0.01266 0.0
C22 C 0.16868 0.43408 0.03847 0.0
C23 C 0.2032 0.45051 0.04395 0.0
C24 C 0.19489 0.48988 0.99765 0.0
C25 C 0.16025 0.47401 0.9912 0.0
H26 H 0.21823 0.44313 0.06613 0.0
H27 H 0.20394 0.51339 0.98311 0.0
H28 H 0.26272 0.50492 0.11696 0.0
H29 H 0.15338 0.54464 0.12053 0.0
H30 H 0.30587 0.47549 0.92692 0.0
H31 H 0.15867 0.41334 0.0557 0.0
H32 H 0.14343 0.48523 0.9714 0.0
C33 C 0.47041 0.1912 0.3293 0.0
C34 C 0.46513 0.18189 0.36196 0.0
N35 N 0.47475 0.21121 0.38087 0.0
N36 N 0.48371 0.22608 0.3276 0.0
C37 C 0.4861 0.23758 0.3594 0.0
H38 H 0.46381 0.17409 0.30804 0.0
Co39 Co 0.48957 0.25295 0.28865 0.0
C40 C 0.56462 0.28848 0.30339 0.0
O41 O 0.58211 0.27396 0.27802 0.0
N42 N 0.49359 0.28004 0.24889 0.0
C43 C 0.50867 0.3025 0.19923 0.0
C44 C 0.52062 0.2817 0.22577 0.0
C45 C 0.46547 0.29963 0.23551 0.0
N46 N 0.47389 0.31382 0.2055 0.0
O47 O 0.45764 0.28976 0.30628 0.0
H48 H 0.54651 0.26697 0.2269 0.0
H49 H 0.43843 0.30186 0.24675 0.0
O50 O 0.53058 0.28068 0.30847 0.0
C51 C 0.42389 0.28157 0.3116 0.0
O52 O 0.41135 0.24882 0.30266 0.0
N53 N 0.51938 0.21482 0.2718 0.0
C54 C 0.5382 0.14124 0.25999 0.0
C55 C 0.55645 0.16177 0.28471 0.0
C56 C 0.54671 0.19872 0.2902 0.0
C57 C 0.5037 0.19623 0.24586 0.0
C58 C 0.51308 0.1595 0.23923 0.0
H59 H 0.5577 0.21263 0.31183 0.0
H60 H 0.48093 0.20854 0.23244 0.0
H61 H 0.49379 0.26548 0.3665 0.0
H62 H 0.4543 0.1558 0.37099 0.0
H63 H 0.52411 0.30805 0.17677 0.0
H64 H 0.57597 0.14858 0.30127 0.0
H65 H 0.49801 0.14454 0.22018 0.0
C66 C 0.81917 0.47588 0.57431 0.0
C67 C 0.83074 0.47569 0.60678 0.0
N68 N 0.80304 0.48882 0.62583 0.0
N69 N 0.78449 0.48934 0.57285 0.0
C70 C 0.77526 0.49674 0.60458 0.0
H71 H 0.83496 0.46681 0.55302 0.0
Co72 Co 0.75662 0.49344 0.53442 0.0
C73 C 0.71952 0.56732 0.54969 0.0
O74 O 0.73385 0.58507 0.52436 0.0
N75 N 0.72843 0.49537 0.49494 0.0
C76 C 0.70331 0.50853 0.44583 0.0
C77 C 0.72368 0.52229 0.47208 0.0
C78 C 0.711 0.46556 0.48166 0.0
N79 N 0.69527 0.47275 0.452 0.0
O80 O 0.72169 0.45962 0.55281 0.0
H81 H 0.73594 0.54954 0.47317 0.0
H82 H 0.71131 0.43835 0.49274 0.0
O83 O 0.72742 0.53329 0.55454 0.0
C84 C 0.72986 0.42573 0.55715 0.0
O85 O 0.76228 0.41363 0.54719 0.0
N86 N 0.79294 0.52578 0.51696 0.0
C87 C 0.86244 0.55521 0.50039 0.0
C88 C 0.84277 0.56839 0.52805 0.0
C89 C 0.80808 0.55346 0.53581 0.0
C90 C 0.8105 0.51411 0.48895 0.0
C91 C 0.84476 0.52905 0.47979 0.0
H92 H 0.79525 0.56153 0.55891 0.0
H93 H 0.7992 0.49124 0.47479 0.0
H94 H 0.74837 0.50683 0.612 0.0
H95 H 0.85759 0.46686 0.61558 0.0
H96 H 0.69565 0.52355 0.42367 0.0
H97 H 0.85508 0.58791 0.54525 0.0
H98 H 0.85807 0.51853 0.45768 0.0
C99 C 0.47277 0.80682 0.82939 0.0
C100 C 0.47019 0.81335 0.86289 0.0
N101 N 0.48134 0.78279 0.87898 0.0
N102 N 0.48652 0.77253 0.8242 0.0
C103 C 0.49003 0.75815 0.85508 0.0
H104 H 0.46571 0.82656 0.81044 0.0
Co105 Co 0.49975 0.74911 0.78392 0.0
C106 C 0.4429 0.70212 0.80042 0.0
O107 O 0.42367 0.72911 0.78711 0.0
N108 N 0.51155 0.72565 0.74425 0.0
C109 C 0.5038 0.70383 0.69324 0.0
C110 C 0.48684 0.72103 0.71959 0.0
C111 C 0.54342 0.711 0.73248 0.0
N112 N 0.53944 0.69751 0.70131 0.0
O113 O 0.54642 0.73305 0.8034 0.0
H114 H 0.45829 0.72984 0.72071 0.0
H115 H 0.56922 0.71093 0.74613 0.0
O116 O 0.47806 0.70438 0.80014 0.0
C117 C 0.56831 0.74621 0.82543 0.0
O118 O 0.56326 0.77983 0.83713 0.0
N119 N 0.5191 0.79378 0.76686 0.0
C120 C 0.53321 0.86748 0.7509 0.0
C121 C 0.49845 0.85164 0.74451 0.0
C122 C 0.49214 0.81451 0.75238 0.0
C123 C 0.55455 0.80703 0.76836 0.0
C124 C 0.56198 0.84433 0.76149 0.0
H125 H 0.46459 0.80301 0.74967 0.0
H126 H 0.57716 0.78954 0.77569 0.0
H127 H 0.50131 0.73098 0.86003 0.0
H128 H 0.46179 0.839 0.87456 0.0
H129 H 0.49072 0.69625 0.67003 0.0
H130 H 0.4756 0.86836 0.73579 0.0
H131 H 0.58967 0.8552 0.76522 0.0
C132 C 0.18421 0.50404 0.43039 0.0
C133 C 0.17408 0.5022 0.39756 0.0
N134 N 0.20322 0.51296 0.37899 0.0
N135 N 0.21944 0.51624 0.43253 0.0
C136 C 0.23039 0.5212 0.40085 0.0
H137 H 0.16717 0.49657 0.45142 0.0
Co138 Co 0.24616 0.52137 0.47167 0.0
C139 C 0.28909 0.59206 0.45549 0.0
O140 O 0.27759 0.61113 0.48121 0.0
N141 N 0.27302 0.52478 0.51185 0.0
C142 C 0.29475 0.53982 0.56191 0.0
C143 C 0.27479 0.55198 0.5349 0.0
C144 C 0.29193 0.49643 0.5257 0.0
N145 N 0.30559 0.50482 0.55597 0.0
O146 O 0.28018 0.48565 0.45556 0.0
H147 H 0.26082 0.57829 0.53324 0.0
H148 H 0.2941 0.46925 0.51465 0.0
O149 O 0.27757 0.55897 0.45094 0.0
C150 C 0.2693 0.45242 0.4515 0.0
O151 O 0.23572 0.44299 0.46086 0.0
N152 N 0.21053 0.55524 0.48673 0.0
C153 C 0.13892 0.58199 0.49548 0.0
C154 C 0.1622 0.59721 0.47117 0.0
C155 C 0.19808 0.58349 0.46721 0.0
C156 C 0.18939 0.54237 0.51228 0.0
C157 C 0.1536 0.55575 0.51739 0.0
H158 H 0.21383 0.59231 0.44585 0.0
H159 H 0.19876 0.51889 0.52659 0.0
H160 H 0.25778 0.53053 0.39399 0.0
H161 H 0.14759 0.49279 0.38815 0.0
H162 H 0.30016 0.55528 0.58444 0.0
H163 H 0.15176 0.61735 0.45366 0.0
H164 H 0.13636 0.54287 0.53612 0.0
C165 C 0.44056 0.20609 0.67985 0.0
C166 C 0.43347 0.19725 0.64733 0.0
N167 N 0.44988 0.22281 0.62798 0.0
N168 N 0.46226 0.23662 0.68123 0.0
C169 C 0.46611 0.2469 0.64914 0.0
H170 H 0.42959 0.19129 0.70086 0.0
Co171 Co 0.47976 0.26207 0.7189 0.0
C172 C 0.4243 0.31387 0.70269 0.0
O173 O 0.40212 0.29135 0.71889 0.0
N174 N 0.49544 0.28768 0.75624 0.0
C175 C 0.49195 0.31806 0.80397 0.0
C176 C 0.47208 0.29976 0.77986 0.0
C177 C 0.52944 0.29856 0.76654 0.0
N178 N 0.52806 0.31731 0.79558 0.0
O179 O 0.52524 0.2757 0.69591 0.0
H180 H 0.44244 0.29545 0.77951 0.0
H181 H 0.55466 0.2933 0.75287 0.0
O182 O 0.4587 0.30654 0.70131 0.0
C183 C 0.54653 0.26086 0.67441 0.0
O184 O 0.5407 0.22658 0.66459 0.0
N185 N 0.49978 0.21792 0.7368 0.0
C186 C 0.51895 0.14547 0.75289 0.0
C187 C 0.4831 0.15855 0.75908 0.0
C188 C 0.47433 0.19523 0.75137 0.0
C189 C 0.53609 0.20746 0.73586 0.0
C190 C 0.54608 0.17092 0.74279 0.0
H191 H 0.44629 0.2049 0.75488 0.0
H192 H 0.55758 0.22668 0.72893 0.0
H193 H 0.48128 0.27129 0.6414 0.0
H194 H 0.41709 0.17401 0.63866 0.0
H195 H 0.48069 0.33051 0.82621 0.0
H196 H 0.46149 0.14012 0.76782 0.0
H197 H 0.57457 0.1624 0.73947 0.0
C198 C 0.82215 0.52494 0.92512 0.0
C199 C 0.83305 0.52831 0.89255 0.0
N200 N 0.80566 0.51499 0.87311 0.0
N201 N 0.78829 0.50917 0.92612 0.0
C202 C 0.77882 0.50374 0.89412 0.0
H203 H 0.83778 0.53347 0.94673 0.0
Co204 Co 0.76052 0.49971 0.96391 0.0
C205 C 0.72851 0.42568 0.94013 0.0
O206 O 0.74671 0.40414 0.96059 0.0
N207 N 0.73199 0.4917 0.00222 0.0
C208 C 0.70405 0.46941 0.04726 0.0
C209 C 0.72602 0.46083 0.02038 0.0
C210 C 0.71354 0.51853 0.01865 0.0
N211 N 0.69608 0.50576 0.04593 0.0
O212 O 0.72439 0.53351 0.94791 0.0
H213 H 0.7378 0.43403 0.01529 0.0
H214 H 0.71379 0.54732 0.01136 0.0
O215 O 0.7334 0.46071 0.94087 0.0
C216 C 0.73255 0.56782 0.9477 0.0
O217 O 0.76401 0.5787 0.96098 0.0
N218 N 0.79818 0.46803 0.97937 0.0
C219 C 0.86908 0.44328 0.99619 0.0
C220 C 0.85205 0.4319 0.96649 0.0
C221 C 0.81654 0.44443 0.95863 0.0
C222 C 0.81322 0.47741 0.00925 0.0
C223 C 0.8481 0.46456 0.01851 0.0
H224 H 0.80551 0.43824 0.9343 0.0
H225 H 0.79944 0.49724 0.02507 0.0
H226 H 0.75279 0.49157 0.88639 0.0
H227 H 0.85884 0.54018 0.88388 0.0
H228 H 0.69479 0.45042 0.0663 0.0
H229 H 0.86695 0.41601 0.9481 0.0
H230 H 0.85936 0.47331 0.04215 0.0
C231 C 0.5625 0.79216 0.16988 0.0
C232 C 0.56383 0.799 0.13642 0.0
N233 N 0.54511 0.77192 0.12074 0.0
N234 N 0.542 0.76138 0.17557 0.0
C235 C 0.53308 0.74895 0.14481 0.0
H236 H 0.57529 0.80936 0.18852 0.0
Co237 Co 0.52716 0.74046 0.21645 0.0
C238 C 0.57257 0.68204 0.20175 0.0
O239 O 0.59606 0.70237 0.21885 0.0
N240 N 0.51343 0.71933 0.2568 0.0
C241 C 0.51863 0.69928 0.30861 0.0
C242 C 0.53746 0.71326 0.28173 0.0
C243 C 0.48008 0.70878 0.26901 0.0
N244 N 0.48248 0.69648 0.30064 0.0
O245 O 0.47726 0.73303 0.1994 0.0
H246 H 0.5668 0.71916 0.28054 0.0
H247 H 0.45436 0.71103 0.25543 0.0
O248 O 0.53923 0.69286 0.19912 0.0
C249 C 0.45575 0.74925 0.17894 0.0
O250 O 0.46491 0.78175 0.16668 0.0
N251 N 0.5178 0.78761 0.23438 0.0
C252 C 0.52041 0.86222 0.25167 0.0
C253 C 0.5517 0.83981 0.25529 0.0
C254 C 0.54952 0.80236 0.24713 0.0
C255 C 0.48574 0.8075 0.2352 0.0
C256 C 0.48656 0.84529 0.24332 0.0
H257 H 0.57427 0.78561 0.2481 0.0
H258 H 0.45961 0.79493 0.22878 0.0
H259 H 0.51596 0.72479 0.14022 0.0
H260 H 0.57672 0.82262 0.12452 0.0
H261 H 0.53072 0.69161 0.33218 0.0
H262 H 0.57806 0.85147 0.2629 0.0
H263 H 0.46143 0.8614 0.2414 0.0
H264 H 0.26449 0.50753 0.34022 0.0
H265 H 0.14594 0.52251 0.33659 0.0
H266 H 0.26722 0.51137 0.27988 0.0
H267 H 0.14848 0.5248 0.27638 0.0
H268 H 0.17033 0.56808 0.17283 0.0
H269 H 0.1703 0.56587 0.2331 0.0
H270 H 0.24905 0.47618 0.23045 0.0
H271 H 0.24915 0.47852 0.16991 0.0
C272 C 0.23903 0.51172 0.32661 0.0
C273 C 0.20498 0.51481 0.34331 0.0
C274 C 0.24056 0.51348 0.292 0.0
C275 C 0.20808 0.51846 0.27333 0.0
C276 C 0.17407 0.52143 0.29004 0.0
C277 C 0.17255 0.51966 0.32457 0.0
C278 C 0.18745 0.54771 0.18505 0.0
C279 C 0.20949 0.52326 0.16654 0.0
C280 C 0.18745 0.54645 0.21962 0.0
C281 C 0.20944 0.52065 0.23658 0.0
C282 C 0.23207 0.49663 0.21813 0.0
C283 C 0.23212 0.49795 0.18345 0.0
H284 H 0.51451 0.25491 0.42264 0.0
H285 H 0.42451 0.17585 0.41932 0.0
H286 H 0.50771 0.25944 0.48287 0.0
H287 H 0.4176 0.18045 0.47909 0.0
H288 H 0.44628 0.16301 0.58769 0.0
H289 H 0.45202 0.16184 0.52773 0.0
H290 H 0.4654 0.28079 0.52682 0.0
H291 H 0.45965 0.28197 0.58721 0.0
C292 C 0.49313 0.23875 0.43472 0.0
C293 C 0.47038 0.21467 0.41625 0.0
C294 C 0.48916 0.2414 0.46917 0.0
C295 C 0.46231 0.22006 0.48578 0.0
C296 C 0.43909 0.19665 0.46715 0.0
C297 C 0.44311 0.19395 0.43285 0.0
C298 C 0.44989 0.18901 0.57476 0.0
C299 C 0.45222 0.22261 0.59229 0.0
C300 C 0.45326 0.18833 0.54033 0.0
C301 C 0.45897 0.22124 0.52247 0.0
C302 C 0.4614 0.25492 0.53992 0.0
C303 C 0.45805 0.25559 0.57449 0.0
H304 H 0.8443 0.45072 0.67026 0.0
H305 H 0.76168 0.53646 0.66231 0.0
H306 H 0.84489 0.45823 0.73022 0.0
H307 H 0.76215 0.5438 0.72243 0.0
H308 H 0.74542 0.51585 0.83296 0.0
H309 H 0.74453 0.50954 0.77277 0.0
H310 H 0.86399 0.50396 0.77195 0.0
H311 H 0.8648 0.50899 0.83224 0.0
C312 C 0.8265 0.4714 0.68122 0.0
C313 C 0.80303 0.49305 0.66138 0.0
C314 C 0.82684 0.4757 0.71563 0.0
C315 C 0.80367 0.5017 0.73104 0.0
C316 C 0.78002 0.52322 0.71129 0.0
C317 C 0.77972 0.51897 0.67683 0.0
C318 C 0.77147 0.51299 0.81998 0.0
C319 C 0.80519 0.51273 0.83744 0.0
C320 C 0.77098 0.50981 0.78545 0.0
C321 C 0.80418 0.50617 0.76763 0.0
C322 C 0.83791 0.50629 0.78503 0.0
C323 C 0.83841 0.5096 0.81954 0.0
H324 H 0.51218 0.83514 0.91754 0.0
H325 H 0.4698 0.72343 0.91867 0.0
H326 H 0.52778 0.83064 0.97589 0.0
H327 H 0.4834 0.71913 0.97814 0.0
H328 H 0.54486 0.71349 0.07862 0.0
H329 H 0.52904 0.71452 0.01943 0.0
H330 H 0.50214 0.83085 0.0279 0.0
H331 H 0.52015 0.8298 0.08591 0.0
C332 C 0.50551 0.80982 0.93063 0.0
C333 C 0.48932 0.77984 0.91383 0.0
C334 C 0.51429 0.80718 0.96421 0.0
C335 C 0.50634 0.77471 0.98221 0.0
C336 C 0.49028 0.74449 0.9652 0.0
C337 C 0.48221 0.74694 0.93124 0.0
C338 C 0.53566 0.73913 0.06747 0.0
C339 C 0.53438 0.77173 0.08642 0.0
C340 C 0.52633 0.73978 0.03369 0.0
C341 C 0.51478 0.77294 0.01847 0.0
C342 C 0.51213 0.80508 0.03816 0.0
C343 C 0.52224 0.80454 0.07152 0.0
H344 H 0.10376 0.42849 0.9583 0.0
H345 H 0.09793 0.44419 0.06441 0.0
H346 H 0.03615 0.42136 0.95632 0.0
H347 H 0.03082 0.43715 0.06231 0.0
H348 H 0.9182 0.48936 0.02808 0.0
H349 H 0.98451 0.48273 0.03379 0.0
H350 H 0.98024 0.37929 0.98033 0.0
H351 H 0.91284 0.38443 0.9761 0.0
C352 C 0.08814 0.42971 0.9812 0.0
C353 C 0.10617 0.4368 0.0115 0.0
C354 C 0.04957 0.42542 0.98009 0.0
C355 C 0.02839 0.42882 0.00917 0.0
C356 C 0.04654 0.43446 0.03955 0.0
C357 C 0.085 0.4382 0.04074 0.0
C358 C 0.93077 0.46442 0.01844 0.0
C359 C 0.90956 0.43726 0.00187 0.0
C360 C 0.96905 0.46088 0.0215 0.0
C361 C 0.98743 0.4305 0.00754 0.0
C362 C 0.96664 0.40309 0.99117 0.0
C363 C 0.92804 0.40621 0.98867 0.0
H364 H 0.54715 0.09599 0.20593 0.0
H365 H 0.53252 0.09389 0.31219 0.0
H366 H 0.54336 0.02823 0.20449 0.0
H367 H 0.52874 0.02632 0.31074 0.0
H368 H 0.4759 0.91143 0.28494 0.0
H369 H 0.48249 0.97906 0.28731 0.0
H370 H 0.57963 0.97264 0.22526 0.0
H371 H 0.57308 0.90539 0.22286 0.0
C372 C 0.54361 0.081 0.22898 0.0
C373 C 0.54052 0.10019 0.25918 0.0
C374 C 0.54146 0.04228 0.22818 0.0
C375 C 0.53554 0.02204 0.25751 0.0
C376 C 0.53298 0.04122 0.28774 0.0
C377 C 0.53567 0.07985 0.2886 0.0
C378 C 0.49863 0.92455 0.27188 0.0
C379 C 0.52413 0.90314 0.25396 0.0
C380 C 0.50255 0.96315 0.27338 0.0
C381 C 0.53164 0.98108 0.2565 0.0
C382 C 0.55688 0.95963 0.23838 0.0
C383 C 0.55329 0.92112 0.23727 0.0
H384 H 0.0944 0.57707 0.44137 0.0
H385 H 0.09156 0.59811 0.54678 0.0
H386 H 0.02678 0.57587 0.43994 0.0
H387 H 0.02356 0.59745 0.54516 0.0
H388 H 0.89889 0.62061 0.51651 0.0
H389 H 0.96549 0.63289 0.51467 0.0
H390 H 0.98341 0.52583 0.47021 0.0
H391 H 0.91781 0.51213 0.47394 0.0
C392 C 0.07931 0.58258 0.46405 0.0
C393 C 0.09826 0.58791 0.49418 0.0
C394 C 0.04064 0.5816 0.46324 0.0
C395 C 0.02006 0.58654 0.49242 0.0
C396 C 0.03885 0.59386 0.52228 0.0
C397 C 0.07765 0.59414 0.52323 0.0
C398 C 0.91688 0.59947 0.50652 0.0
C399 C 0.90239 0.56524 0.49543 0.0
C400 C 0.95503 0.60671 0.50532 0.0
C401 C 0.97945 0.58035 0.49222 0.0
C402 C 0.96507 0.54684 0.48005 0.0
C403 C 0.9272 0.53921 0.48193 0.0
H404 H 0.50125 0.09588 0.80195 0.0
H405 H 0.55404 0.10407 0.70617 0.0
H406 H 0.50971 0.02855 0.80098 0.0
H407 H 0.56215 0.03686 0.70509 0.0
H408 H 0.5625 0.9123 0.79854 0.0
H409 H 0.5632 0.98012 0.79986 0.0
H410 H 0.51467 0.98255 0.70205 0.0
H411 H 0.51357 0.9147 0.70087 0.0
C412 C 0.51496 0.08331 0.78089 0.0
C413 C 0.52709 0.10521 0.75421 0.0
C414 C 0.51995 0.04487 0.78038 0.0
C415 C 0.53652 0.02753 0.75291 0.0
C416 C 0.54918 0.0495 0.7265 0.0
C417 C 0.54479 0.08795 0.72727 0.0
C418 C 0.55265 0.92736 0.77708 0.0
C419 C 0.53811 0.90828 0.74953 0.0
C420 C 0.55273 0.9661 0.77799 0.0
C421 C 0.53889 0.98654 0.75112 0.0
C422 C 0.52571 0.96747 0.72302 0.0
C423 C 0.52499 0.92872 0.72237 0.0
H424 H 0.41231 0.76827 0.12601 0.0
H425 H 0.42897 0.68196 0.19865 0.0
H426 H 0.3678 0.72891 0.09695 0.0
H427 H 0.38412 0.64298 0.16987 0.0
H428 H 0.3447 0.56737 0.08595 0.0
H429 H 0.38449 0.60958 0.11698 0.0
H430 H 0.30687 0.69838 0.10046 0.0
H431 H 0.26721 0.65624 0.0689 0.0
C432 C 0.40594 0.74123 0.13618 0.0
C433 C 0.42443 0.72816 0.16451 0.0
C434 C 0.38041 0.71868 0.11951 0.0
C435 C 0.37287 0.68262 0.13084 0.0
C436 C 0.38996 0.67033 0.16012 0.0
C437 C 0.41544 0.69282 0.17676 0.0
C438 C 0.33617 0.59593 0.08876 0.0
C439 C 0.30279 0.60844 0.07493 0.0
C440 C 0.35881 0.62005 0.10682 0.0
C441 C 0.34865 0.65725 0.11146 0.0
C442 C 0.31555 0.66993 0.09719 0.0
C443 C 0.29281 0.64575 0.07916 0.0
H444 H 0.43193 0.35616 0.31938 0.0
H445 H 0.3636 0.26329 0.34836 0.0
H446 H 0.39441 0.39718 0.35362 0.0
H447 H 0.32733 0.30359 0.38394 0.0
H448 H 0.24632 0.39105 0.41821 0.0
H449 H 0.28317 0.35043 0.38345 0.0
H450 H 0.38157 0.41309 0.40893 0.0
H451 H 0.34406 0.45495 0.44233 0.0
C452 C 0.40893 0.34457 0.3332 0.0
C453 C 0.40044 0.30669 0.33108 0.0
C454 C 0.38763 0.36794 0.35308 0.0
C455 C 0.35785 0.35374 0.37171 0.0
C456 C 0.34954 0.31571 0.36949 0.0
C457 C 0.37039 0.29253 0.34916 0.0
C458 C 0.27588 0.39593 0.41657 0.0
C459 C 0.29239 0.42608 0.43294 0.0
C460 C 0.29709 0.37256 0.39671 0.0
C461 C 0.33543 0.37842 0.39327 0.0
C462 C 0.35203 0.40817 0.4104 0.0
C463 C 0.33065 0.43195 0.4298 0.0
H464 H 0.5681 0.33096 0.69111 0.0
H465 H 0.59165 0.24177 0.62271 0.0
H466 H 0.61352 0.36988 0.66316 0.0
H467 H 0.63668 0.28107 0.59437 0.0
H468 H 0.73938 0.35251 0.57186 0.0
H469 H 0.69683 0.31171 0.60153 0.0
H470 H 0.61833 0.40121 0.60979 0.0
H471 H 0.66104 0.44217 0.58073 0.0
C472 C 0.58305 0.3196 0.67018 0.0
C473 C 0.57615 0.28332 0.65903 0.0
C474 C 0.60891 0.342 0.65403 0.0
C475 C 0.62841 0.32867 0.62636 0.0
C476 C 0.62228 0.29204 0.61577 0.0
C477 C 0.59641 0.26957 0.63196 0.0
C478 C 0.71301 0.36345 0.57995 0.0
C479 C 0.7036 0.40059 0.574 0.0
C480 C 0.68859 0.34003 0.59684 0.0
C481 C 0.65432 0.35329 0.60815 0.0
C482 C 0.6448 0.39033 0.60189 0.0
C483 C 0.66917 0.41373 0.58501 0.0
H484 H 0.66597 0.55476 0.91742 0.0
H485 H 0.74551 0.64151 0.93831 0.0
H486 H 0.62815 0.59875 0.88671 0.0
H487 H 0.70825 0.68516 0.90691 0.0
H488 H 0.61029 0.76037 0.88033 0.0
H489 H 0.65014 0.71749 0.90992 0.0
H490 H 0.62894 0.6338 0.83545 0.0
H491 H 0.58827 0.67644 0.80621 0.0
C492 C 0.67536 0.5832 0.91548 0.0
C493 C 0.70866 0.59468 0.93038 0.0
C494 C 0.65388 0.60833 0.89762 0.0
C495 C 0.6653 0.64542 0.8942 0.0
C496 C 0.69846 0.6569 0.90936 0.0
C497 C 0.71987 0.63183 0.9273 0.0
C498 C 0.61447 0.73299 0.87001 0.0
C499 C 0.59602 0.72178 0.84097 0.0
C500 C 0.63739 0.70841 0.88697 0.0
C501 C 0.64249 0.67212 0.87519 0.0
C502 C 0.62501 0.66133 0.84552 0.0
C503 C 0.60197 0.68588 0.82861 0.0
H504 H 0.32199 0.37213 0.04908 0.0
H505 H 0.32426 0.4701 0.1108 0.0
H506 H 0.36668 0.34261 0.08564 0.0
H507 H 0.36931 0.44058 0.14722 0.0
H508 H 0.41691 0.35803 0.22363 0.0
H509 H 0.37322 0.3894 0.18721 0.0
H510 H 0.43201 0.34786 0.10172 0.0
H511 H 0.47505 0.31561 0.13816 0.0
C512 C 0.33202 0.38743 0.07042 0.0
C513 C 0.31942 0.4235 0.077 0.0
C514 C 0.35788 0.37056 0.09126 0.0
C515 C 0.3717 0.38927 0.11929 0.0
C516 C 0.35897 0.42527 0.126 0.0
C517 C 0.33322 0.44224 0.10505 0.0
C518 C 0.42043 0.35545 0.19708 0.0
C519 C 0.4494 0.33409 0.18386 0.0
C520 C 0.3956 0.37376 0.17619 0.0
C521 C 0.39902 0.37104 0.14154 0.0
C522 C 0.42833 0.35016 0.12831 0.0
C523 C 0.45327 0.332 0.1492 0.0
H524 H 0.53926 0.31891 0.36141 0.0
H525 H 0.63409 0.31821 0.29611 0.0
H526 H 0.57053 0.36363 0.39728 0.0
H527 H 0.66537 0.36286 0.33213 0.0
H528 H 0.69147 0.47339 0.3847 0.0
H529 H 0.65971 0.42867 0.34901 0.0
H530 H 0.62402 0.36778 0.43545 0.0
H531 H 0.65516 0.41287 0.47111 0.0
C532 C 0.56683 0.32812 0.35475 0.0
C533 C 0.58413 0.31486 0.32583 0.0
C534 C 0.58483 0.3537 0.37542 0.0
C535 C 0.62044 0.36693 0.36756 0.0
C536 C 0.63778 0.35359 0.3387 0.0
C537 C 0.61992 0.32777 0.31817 0.0
C538 C 0.67658 0.45068 0.3961 0.0
C539 C 0.67592 0.44675 0.4308 0.0
C540 C 0.65869 0.4248 0.37563 0.0
C541 C 0.6394 0.39455 0.38934 0.0
C542 C 0.6384 0.39087 0.42405 0.0
C543 C 0.65654 0.41655 0.4445 0.0
H544 H 0.54279 0.69871 0.63426 0.0
H545 H 0.59886 0.65704 0.72099 0.0
H546 H 0.58731 0.66746 0.59874 0.0
H547 H 0.64415 0.62614 0.68526 0.0
H548 H 0.68829 0.54118 0.60732 0.0
H549 H 0.64658 0.57369 0.64502 0.0
H550 H 0.65274 0.67086 0.58296 0.0
H551 H 0.69424 0.63847 0.54525 0.0
C552 C 0.56465 0.68286 0.64578 0.0
C553 C 0.56709 0.68026 0.68052 0.0
C554 C 0.59045 0.66522 0.62538 0.0
C555 C 0.61937 0.64428 0.6391 0.0
C556 C 0.62204 0.64181 0.67388 0.0
C557 C 0.59632 0.65979 0.69436 0.0
C558 C 0.68091 0.56954 0.60176 0.0
C559 C 0.69463 0.58712 0.57312 0.0
C560 C 0.65713 0.58824 0.62351 0.0
C561 C 0.6462 0.62487 0.617 0.0
C562 C 0.66021 0.64252 0.58853 0.0
C563 C 0.68416 0.62395 0.56695 0.0
H564 H 0.36362 0.50651 0.9094 0.0
H565 H 0.30364 0.60079 0.94706 0.0
H566 H 0.39591 0.54685 0.86994 0.0
H567 H 0.33611 0.64097 0.9082 0.0
H568 H 0.3687 0.69418 0.81071 0.0
H569 H 0.33743 0.65016 0.84691 0.0
H570 H 0.44235 0.59983 0.87062 0.0
H571 H 0.47391 0.64401 0.83423 0.0
C572 C 0.35733 0.53579 0.90921 0.0
C573 C 0.33111 0.55044 0.93137 0.0
C574 C 0.37599 0.55889 0.88683 0.0
C575 C 0.36841 0.59703 0.88587 0.0
C576 C 0.34225 0.61163 0.90808 0.0
C577 C 0.32394 0.58866 0.93062 0.0
C578 C 0.38516 0.67354 0.82334 0.0
C579 C 0.42385 0.67275 0.81966 0.0
C580 C 0.36722 0.64845 0.84425 0.0
C581 C 0.38746 0.62178 0.86186 0.0
C582 C 0.426 0.61999 0.85726 0.0
C583 C 0.44406 0.64533 0.83646 0.0
H584 H 0.321 0.66106 0.4579 0.0
H585 H 0.31765 0.56116 0.39881 0.0
H586 H 0.36578 0.68794 0.41944 0.0
H587 H 0.36234 0.5881 0.36042 0.0
H588 H 0.4187 0.66195 0.28214 0.0
H589 H 0.36993 0.63819 0.31865 0.0
H590 H 0.43088 0.67753 0.40396 0.0
H591 H 0.47904 0.70172 0.36758 0.0
C592 C 0.32964 0.64485 0.43668 0.0
C593 C 0.31558 0.60891 0.43153 0.0
C594 C 0.35546 0.66023 0.41467 0.0
C595 C 0.36771 0.64019 0.38682 0.0
C596 C 0.35319 0.6045 0.38137 0.0
C597 C 0.3276 0.58899 0.40351 0.0
C598 C 0.42145 0.66584 0.30865 0.0
C599 C 0.4529 0.68359 0.32191 0.0
C600 C 0.39368 0.65195 0.3296 0.0
C601 C 0.3965 0.65589 0.36427 0.0
C602 C 0.42762 0.67427 0.3774 0.0
C603 C 0.45547 0.68781 0.35654 0.0
H604 H 0.30319 0.50408 0.62326 0.0
H605 H 0.35199 0.44938 0.53876 0.0
H606 H 0.33389 0.46029 0.66034 0.0
H607 H 0.38233 0.40538 0.57573 0.0
H608 H 0.45843 0.35436 0.65407 0.0
H609 H 0.43147 0.40284 0.61953 0.0
H610 H 0.32822 0.39239 0.67269 0.0
H611 H 0.3551 0.34392 0.70724 0.0
C612 C 0.32075 0.48295 0.61262 0.0
C613 C 0.32507 0.48016 0.57804 0.0
C614 C 0.33807 0.45767 0.63384 0.0
C615 C 0.3605 0.42932 0.62098 0.0
C616 C 0.36548 0.42707 0.58645 0.0
C617 C 0.34783 0.45206 0.56525 0.0
C618 C 0.4301 0.36268 0.65865 0.0
C619 C 0.40891 0.34525 0.68343 0.0
C620 C 0.41459 0.39027 0.63869 0.0
C621 C 0.37768 0.4014 0.64331 0.0
C622 C 0.35683 0.38468 0.66869 0.0
C623 C 0.37219 0.35677 0.68839 0.0
H624 H 0.71294 0.35231 0.92869 0.0
H625 H 0.68236 0.46265 0.89791 0.0
H626 H 0.666 0.32632 0.89159 0.0
H627 H 0.63577 0.43661 0.8608 0.0
H628 H 0.52589 0.37817 0.83465 0.0
H629 H 0.57603 0.40406 0.86792 0.0
H630 H 0.64969 0.31937 0.83146 0.0
H631 H 0.59904 0.29299 0.79844 0.0
C632 C 0.69641 0.37102 0.9139 0.0
C633 C 0.70129 0.40958 0.9165 0.0
C634 C 0.66966 0.35609 0.89248 0.0
C635 C 0.64703 0.3794 0.87337 0.0
C636 C 0.65242 0.41791 0.87551 0.0
C637 C 0.67927 0.43282 0.89672 0.0
C638 C 0.55272 0.36497 0.83379 0.0
C639 C 0.5584 0.3334 0.81402 0.0
C640 C 0.58158 0.38004 0.8526 0.0
C641 C 0.61687 0.3638 0.85233 0.0
C642 C 0.62273 0.33236 0.83237 0.0
C643 C 0.59385 0.31745 0.81325 0.0
H644 H 0.53948 0.64893 0.1482 0.0
H645 H 0.63716 0.64444 0.20992 0.0
H646 H 0.56631 0.60242 0.11125 0.0
H647 H 0.66385 0.59803 0.17307 0.0
H648 H 0.68953 0.49453 0.11215 0.0
H649 H 0.65563 0.53295 0.15182 0.0
H650 H 0.62042 0.6041 0.07192 0.0
H651 H 0.65393 0.56553 0.03235 0.0
C652 C 0.56635 0.63753 0.15422 0.0
C653 C 0.58627 0.65041 0.18193 0.0
C654 C 0.58181 0.61112 0.13293 0.0
C655 C 0.61725 0.59671 0.13918 0.0
C656 C 0.63638 0.60838 0.16773 0.0
C657 C 0.62115 0.63509 0.18875 0.0
C658 C 0.67415 0.51808 0.10305 0.0
C659 C 0.67458 0.52714 0.06916 0.0
C660 C 0.65495 0.5402 0.12577 0.0
C661 C 0.63538 0.57154 0.11498 0.0
C662 C 0.63495 0.57995 0.08096 0.0
C663 C 0.65447 0.55811 0.05835 0.0
loop_
_geom_bond_atom_site_label_1
_geom_bond_atom_site_label_2
_geom_bond_distance
_geom_bond_site_symmetry_2
_ccdc_geom_bond_type
C0 C1 1.351 . S
C0 N3 1.368 . S
C0 H5 0.931 . S
C1 C0 1.351 . S
C1 N2 1.373 . S
C1 H29 0.930 . S
N2 C1 1.373 . S
N2 C4 1.340 . S
N3 C0 1.368 . S
N3 C4 1.321 . S
N3 Co6 2.135 . S
C4 N2 1.340 . S
C4 N3 1.321 . S
C4 H28 0.930 . S
H5 C0 0.931 . S
Co6 N3 2.135 . S
Co6 N9 2.121 . S
Co6 O14 2.055 . S
Co6 O17 2.039 . S
Co6 N20 2.140 . S
C7 O8 1.227 . S
C7 O17 1.265 . S
O8 C7 1.227 . S
N9 Co6 2.121 . S
N9 C11 1.375 1_554 S
N9 C12 1.313 1_554 S
C10 C11 1.338 . S
C10 N13 1.377 . S
C10 H30 0.930 . S
C11 N9 1.375 1_556 S
C11 C10 1.338 . S
C11 H15 0.939 . S
C12 N9 1.313 1_556 S
C12 N13 1.344 . S
C12 H16 0.930 1_556 S
N13 C10 1.377 . S
N13 C12 1.344 . S
O14 Co6 2.055 . S
O14 C18 1.253 . S
H15 C11 0.939 . S
H16 C12 0.930 1_554 S
O17 Co6 2.039 . S
O17 C7 1.265 . S
C18 O14 1.253 . S
C18 O19 1.227 . S
O19 C18 1.227 . S
N20 Co6 2.140 . S
N20 C23 1.346 . S
N20 C24 1.345 . S
C21 C22 1.387 . S
C21 C25 1.391 . S
C22 C21 1.387 . S
C22 C23 1.369 . S
C22 H31 0.929 . S
C23 N20 1.346 . S
C23 C22 1.369 . S
C23 H26 0.928 . S
C24 N20 1.345 . S
C24 C25 1.371 . S
C24 H27 0.931 . S
C25 C21 1.391 . S
C25 C24 1.371 . S
C25 H32 0.930 1_554 S
H26 C23 0.928 . S
H27 C24 0.931 . S
H28 C4 0.930 . S
H29 C1 0.930 . S
H30 C10 0.930 . S
H31 C22 0.929 . S
H32 C25 0.930 1_556 S
C33 C34 1.351 . S
C33 N36 1.368 . S
C33 H38 0.931 . S
C34 C33 1.351 . S
C34 N35 1.373 . S
C34 H62 0.930 . S
N35 C34 1.373 . S
N35 C37 1.340 . S
N36 C33 1.368 . S
N36 C37 1.321 . S
N36 Co39 2.135 . S
C37 N35 1.340 . S
C37 N36 1.321 . S
C37 H61 0.930 . S
H38 C33 0.931 . S
Co39 N36 2.135 . S
Co39 N42 2.121 . S
Co39 O47 2.055 . S
Co39 O50 2.039 . S
Co39 N53 2.140 . S
C40 O41 1.227 . S
C40 O50 1.265 . S
O41 C40 1.227 . S
N42 Co39 2.121 . S
N42 C44 1.375 . S
N42 C45 1.313 . S
C43 C44 1.338 . S
C43 N46 1.377 . S
C43 H63 0.930 . S
C44 N42 1.375 . S
C44 C43 1.338 . S
C44 H48 0.931 . S
C45 N42 1.313 . S
C45 N46 1.344 . S
C45 H49 0.930 . S
N46 C43 1.377 . S
N46 C45 1.344 . S
O47 Co39 2.055 . S
O47 C51 1.253 . S
H48 C44 0.931 . S
H49 C45 0.930 . S
O50 Co39 2.039 . S
O50 C40 1.265 . S
C51 O47 1.253 . S
C51 O52 1.227 . S
O52 C51 1.227 . S
N53 Co39 2.140 . S
N53 C56 1.346 . S
N53 C57 1.345 . S
C54 C55 1.387 . S
C54 C58 1.391 . S
C55 C54 1.387 . S
C55 C56 1.369 . S
C55 H64 0.929 . S
C56 N53 1.346 . S
C56 C55 1.369 . S
C56 H59 0.928 . S
C57 N53 1.345 . S
C57 C58 1.371 . S
C57 H60 0.931 . S
C58 C54 1.391 . S
C58 C57 1.371 . S
C58 H65 0.930 . S
H59 C56 0.928 . S
H60 C57 0.931 . S
H61 C37 0.930 . S
H62 C34 0.930 . S
H63 C43 0.930 . S
H64 C55 0.929 . S
H65 C58 0.930 . S
C66 C67 1.351 . S
C66 N69 1.368 . S
C66 H71 0.931 . S
C67 C66 1.351 . S
C67 N68 1.373 . S
C67 H95 0.930 . S
N68 C67 1.373 . S
N68 C70 1.340 . S
N69 C66 1.368 . S
N69 C70 1.321 . S
N69 Co72 2.135 . S
C70 N68 1.340 . S
C70 N69 1.321 . S
C70 H94 0.930 . S
H71 C66 0.931 . S
Co72 N69 2.135 . S
Co72 N75 2.121 . S
Co72 O80 2.055 . S
Co72 O83 2.039 . S
Co72 N86 2.140 . S
C73 O74 1.227 . S
C73 O83 1.265 . S
O74 C73 1.227 . S
N75 Co72 2.121 . S
N75 C77 1.375 . S
N75 C78 1.313 . S
C76 C77 1.338 . S
C76 N79 1.377 . S
C76 H96 0.930 . S
C77 N75 1.375 . S
C77 C76 1.338 . S
C77 H81 0.931 . S
C78 N75 1.313 . S
C78 N79 1.344 . S
C78 H82 0.930 . S
N79 C76 1.377 . S
N79 C78 1.344 . S
O80 Co72 2.055 . S
O80 C84 1.253 . S
H81 C77 0.931 . S
H82 C78 0.930 . S
O83 Co72 2.039 . S
O83 C73 1.265 . S
C84 O80 1.253 . S
C84 O85 1.227 . S
O85 C84 1.227 . S
N86 Co72 2.140 . S
N86 C89 1.346 . S
N86 C90 1.345 . S
C87 C88 1.387 . S
C87 C91 1.391 . S
C88 C87 1.387 . S
C88 C89 1.369 . S
C88 H97 0.929 . S
C89 N86 1.346 . S
C89 C88 1.369 . S
C89 H92 0.928 . S
C90 N86 1.345 . S
C90 C91 1.371 . S
C90 H93 0.931 . S
C91 C87 1.391 . S
C91 C90 1.371 . S
C91 H98 0.930 . S
H92 C89 0.928 . S
H93 C90 0.931 . S
H94 C70 0.930 . S
H95 C67 0.930 . S
H96 C76 0.930 . S
H97 C88 0.929 . S
H98 C91 0.930 . S
C99 C100 1.351 . S
C99 N102 1.368 . S
C99 H104 0.931 . S
C100 C99 1.351 . S
C100 N101 1.373 . S
C100 H128 0.930 . S
N101 C100 1.373 . S
N101 C103 1.340 . S
N102 C99 1.368 . S
N102 C103 1.321 . S
N102 Co105 2.135 . S
C103 N101 1.340 . S
C103 N102 1.321 . S
C103 H127 0.930 . S
H104 C99 0.931 . S
Co105 N102 2.135 . S
Co105 N108 2.121 . S
Co105 O113 2.055 . S
Co105 O116 2.039 . S
Co105 N119 2.140 . S
C106 O107 1.227 . S
C106 O116 1.265 . S
O107 C106 1.227 . S
N108 Co105 2.121 . S
N108 C110 1.375 . S
N108 C111 1.313 . S
C109 C110 1.338 . S
C109 N112 1.377 . S
C109 H129 0.930 . S
C110 N108 1.375 . S
C110 C109 1.338 . S
C110 H114 0.931 . S
C111 N108 1.313 . S
C111 N112 1.344 . S
C111 H115 0.930 . S
N112 C109 1.377 . S
N112 C111 1.344 . S
O113 Co105 2.055 . S
O113 C117 1.253 . S
H114 C110 0.931 . S
H115 C111 0.930 . S
O116 Co105 2.039 . S
O116 C106 1.265 . S
C117 O113 1.253 . S
C117 O118 1.227 . S
O118 C117 1.227 . S
N119 Co105 2.140 . S
N119 C122 1.346 . S
N119 C123 1.345 . S
C120 C121 1.387 . S
C120 C124 1.391 . S
C121 C120 1.387 . S
C121 C122 1.369 . S
C121 H130 0.929 . S
C122 N119 1.346 . S
C122 C121 1.369 . S
C122 H125 0.928 . S
C123 N119 1.345 . S
C123 C124 1.371 . S
C123 H126 0.931 . S
C124 C120 1.391 . S
C124 C123 1.371 . S
C124 H131 0.930 . S
H125 C122 0.928 . S
H126 C123 0.931 . S
H127 C103 0.930 . S
H128 C100 0.930 . S
H129 C109 0.930 . S
H130 C121 0.929 . S
H131 C124 0.930 . S
C132 C133 1.351 . S
C132 N135 1.368 . S
C132 H137 0.931 . S
C133 C132 1.351 . S
C133 N134 1.373 . S
C133 H161 0.930 . S
N134 C133 1.373 . S
N134 C136 1.340 . S
N135 C132 1.368 . S
N135 C136 1.321 . S
N135 Co138 2.135 . S
C136 N134 1.340 . S
C136 N135 1.321 . S
C136 H160 0.930 . S
H137 C132 0.931 . S
Co138 N135 2.135 . S
Co138 N141 2.121 . S
Co138 O146 2.055 . S
Co138 O149 2.039 . S
Co138 N152 2.140 . S
C139 O140 1.227 . S
C139 O149 1.265 . S
O140 C139 1.227 . S
N141 Co138 2.121 . S
N141 C143 1.375 . S
N141 C144 1.313 . S
C142 C143 1.338 . S
C142 N145 1.377 . S
C142 H162 0.930 . S
C143 N141 1.375 . S
C143 C142 1.338 . S
C143 H147 0.931 . S
C144 N141 1.313 . S
C144 N145 1.344 . S
C144 H148 0.930 . S
N145 C142 1.377 . S
N145 C144 1.344 . S
O146 Co138 2.055 . S
O146 C150 1.253 . S
H147 C143 0.931 . S
H148 C144 0.930 . S
O149 Co138 2.039 . S
O149 C139 1.265 . S
C150 O146 1.253 . S
C150 O151 1.227 . S
O151 C150 1.227 . S
N152 Co138 2.140 . S
N152 C155 1.346 . S
N152 C156 1.345 . S
C153 C154 1.387 . S
C153 C157 1.391 . S
C154 C153 1.387 . S
C154 C155 1.369 . S
C154 H163 0.929 . S
C155 N152 1.346 . S
C155 C154 1.369 . S
C155 H158 0.928 . S
C156 N152 1.345 . S
C156 C157 1.371 . S
C156 H159 0.931 . S
C157 C153 1.391 . S
C157 C156 1.371 . S
C157 H164 0.930 . S
H158 C155 0.928 . S
H159 C156 0.931 . S
H160 C136 0.930 . S
H161 C133 0.930 . S
H162 C142 0.930 . S
H163 C154 0.929 . S
H164 C157 0.930 . S
C165 C166 1.351 . S
C165 N168 1.368 . S
C165 H170 0.931 . S
C166 C165 1.351 . S
C166 N167 1.373 . S
C166 H194 0.930 . S
N167 C166 1.373 . S
N167 C169 1.340 . S
N168 C165 1.368 . S
N168 C169 1.321 . S
N168 Co171 2.135 . S
C169 N167 1.340 . S
C169 N168 1.321 . S
C169 H193 0.930 . S
H170 C165 0.931 . S
Co171 N168 2.135 . S
Co171 N174 2.121 . S
Co171 O179 2.055 . S
Co171 O182 2.039 . S
Co171 N185 2.140 . S
C172 O173 1.227 . S
C172 O182 1.265 . S
O173 C172 1.227 . S
N174 Co171 2.121 . S
N174 C176 1.375 . S
N174 C177 1.313 . S
C175 C176 1.338 . S
C175 N178 1.377 . S
C175 H195 0.930 . S
C176 N174 1.375 . S
C176 C175 1.338 . S
C176 H180 0.931 . S
C177 N174 1.313 . S
C177 N178 1.344 . S
C177 H181 0.930 . S
N178 C175 1.377 . S
N178 C177 1.344 . S
O179 Co171 2.055 . S
O179 C183 1.253 . S
H180 C176 0.931 . S
H181 C177 0.930 . S
O182 Co171 2.039 . S
O182 C172 1.265 . S
C183 O179 1.253 . S
C183 O184 1.227 . S
O184 C183 1.227 . S
N185 Co171 2.140 . S
N185 C188 1.346 . S
N185 C189 1.345 . S
C186 C187 1.387 . S
C186 C190 1.391 . S
C187 C186 1.387 . S
C187 C188 1.369 . S
C187 H196 0.929 . S
C188 N185 1.346 . S
C188 C187 1.369 . S
C188 H191 0.928 . S
C189 N185 1.345 . S
C189 C190 1.371 . S
C189 H192 0.931 . S
C190 C186 1.391 . S
C190 C189 1.371 . S
C190 H197 0.930 . S
H191 C188 0.928 . S
H192 C189 0.931 . S
H193 C169 0.930 . S
H194 C166 0.930 . S
H195 C175 0.930 . S
H196 C187 0.929 . S
H197 C190 0.930 . S
C198 C199 1.351 . S
C198 N201 1.368 . S
C198 H203 0.931 . S
C199 C198 1.351 . S
C199 N200 1.373 . S
C199 H227 0.930 . S
N200 C199 1.373 . S
N200 C202 1.340 . S
N201 C198 1.368 . S
N201 C202 1.321 . S
N201 Co204 2.135 . S
C202 N200 1.340 . S
C202 N201 1.321 . S
C202 H226 0.930 . S
H203 C198 0.931 . S
Co204 N201 2.135 . S
Co204 N207 2.121 . S
Co204 O212 2.055 . S
Co204 O215 2.039 . S
Co204 N218 2.140 . S
C205 O206 1.227 . S
C205 O215 1.265 . S
O206 C205 1.227 . S
N207 Co204 2.121 . S
N207 C209 1.375 1_556 S
N207 C210 1.313 1_556 S
C208 C209 1.338 . S
C208 N211 1.377 . S
C208 H228 0.930 . S
C209 N207 1.375 1_554 S
C209 C208 1.338 . S
C209 H213 0.939 . S
C210 N207 1.313 1_554 S
C210 N211 1.344 . S
C210 H214 0.930 1_554 S
N211 C208 1.377 . S
N211 C210 1.344 . S
O212 Co204 2.055 . S
O212 C216 1.253 . S
H213 C209 0.939 . S
H214 C210 0.930 1_556 S
O215 Co204 2.039 . S
O215 C205 1.265 . S
C216 O212 1.253 . S
C216 O217 1.227 . S
O217 C216 1.227 . S
N218 Co204 2.140 . S
N218 C221 1.346 . S
N218 C222 1.345 . S
C219 C220 1.387 . S
C219 C223 1.391 . S
C220 C219 1.387 . S
C220 C221 1.369 . S
C220 H229 0.929 . S
C221 N218 1.346 . S
C221 C220 1.369 . S
C221 H224 0.928 . S
C222 N218 1.345 . S
C222 C223 1.371 . S
C222 H225 0.931 . S
C223 C219 1.391 . S
C223 C222 1.371 . S
C223 H230 0.930 1_556 S
H224 C221 0.928 . S
H225 C222 0.931 . S
H226 C202 0.930 . S
H227 C199 0.930 . S
H228 C208 0.930 . S
H229 C220 0.929 . S
H230 C223 0.930 1_554 S
C231 C232 1.351 . S
C231 N234 1.368 . S
C231 H236 0.931 . S
C232 C231 1.351 . S
C232 N233 1.373 . S
C232 H260 0.930 . S
N233 C232 1.373 . S
N233 C235 1.340 . S
N234 C231 1.368 . S
N234 C235 1.321 . S
N234 Co237 2.135 . S
C235 N233 1.340 . S
C235 N234 1.321 . S
C235 H259 0.930 . S
H236 C231 0.931 . S
Co237 N234 2.135 . S
Co237 N240 2.121 . S
Co237 O245 2.055 . S
Co237 O248 2.039 . S
Co237 N251 2.140 . S
C238 O239 1.227 . S
C238 O248 1.265 . S
O239 C238 1.227 . S
N240 Co237 2.121 . S
N240 C242 1.375 . S
N240 C243 1.313 . S
C241 C242 1.338 . S
C241 N244 1.377 . S
C241 H261 0.930 . S
C242 N240 1.375 . S
C242 C241 1.338 . S
C242 H246 0.931 . S
C243 N240 1.313 . S
C243 N244 1.344 . S
C243 H247 0.930 . S
N244 C241 1.377 . S
N244 C243 1.344 . S
O245 Co237 2.055 . S
O245 C249 1.253 . S
H246 C242 0.931 . S
H247 C243 0.930 . S
O248 Co237 2.039 . S
O248 C238 1.265 . S
C249 O245 1.253 . S
C249 O250 1.227 . S
O250 C249 1.227 . S
N251 Co237 2.140 . S
N251 C254 1.346 . S
N251 C255 1.345 . S
C252 C253 1.387 . S
C252 C256 1.391 . S
C253 C252 1.387 . S
C253 C254 1.369 . S
C253 H262 0.929 . S
C254 N251 1.346 . S
C254 C253 1.369 . S
C254 H257 0.928 . S
C255 N251 1.345 . S
C255 C256 1.371 . S
C255 H258 0.931 . S
C256 C252 1.391 . S
C256 C255 1.371 . S
C256 H263 0.930 . S
H257 C254 0.928 . S
H258 C255 0.931 . S
H259 C235 0.930 . S
H260 C232 0.930 . S
H261 C241 0.930 . S
H262 C253 0.929 . S
H263 C256 0.930 . S
H264 C272 0.950 . S
H265 C277 0.950 . S
H266 C274 0.950 . S
H267 C276 0.950 . S
H268 C278 0.950 . S
H269 C280 0.950 . S
H270 C282 0.950 . S
H271 C283 0.950 . S
C272 H264 0.950 . S
C272 C273 1.386 . S
C272 C274 1.391 . S
C273 C272 1.386 . S
C273 C277 1.393 . S
C274 H266 0.950 . S
C274 C272 1.391 . S
C274 C275 1.400 . S
C275 C274 1.400 . S
C275 C276 1.398 . S
C275 C281 1.491 . S
C276 H267 0.950 . S
C276 C275 1.398 . S
C276 C277 1.391 . S
C277 H265 0.950 . S
C277 C273 1.393 . S
C277 C276 1.391 . S
C278 H268 0.950 . S
C278 C279 1.386 . S
C278 C280 1.391 . S
C279 C278 1.386 . S
C279 C283 1.393 . S
C280 H269 0.950 . S
C280 C278 1.391 . S
C280 C281 1.400 . S
C281 C275 1.491 . S
C281 C280 1.400 . S
C281 C282 1.398 . S
C282 H270 0.950 . S
C282 C281 1.398 . S
C282 C283 1.391 . S
C283 H271 0.950 . S
C283 C279 1.393 . S
C283 C282 1.391 . S
H284 C292 0.950 . S
H285 C297 0.950 . S
H286 C294 0.950 . S
H287 C296 0.950 . S
H288 C298 0.950 . S
H289 C300 0.950 . S
H290 C302 0.950 . S
H291 C303 0.950 . S
C292 H284 0.950 . S
C292 C293 1.386 . S
C292 C294 1.391 . S
C293 C292 1.386 . S
C293 C297 1.393 . S
C294 H286 0.950 . S
C294 C292 1.391 . S
C294 C295 1.400 . S
C295 C294 1.400 . S
C295 C296 1.398 . S
C295 C301 1.491 . S
C296 H287 0.950 . S
C296 C295 1.398 . S
C296 C297 1.391 . S
C297 H285 0.950 . S
C297 C293 1.393 . S
C297 C296 1.391 . S
C298 H288 0.950 . S
C298 C299 1.386 . S
C298 C300 1.391 . S
C299 C298 1.386 . S
C299 C303 1.393 . S
C300 H289 0.950 . S
C300 C298 1.391 . S
C300 C301 1.400 . S
C301 C295 1.491 . S
C301 C300 1.400 . S
C301 C302 1.398 . S
C302 H290 0.950 . S
C302 C301 1.398 . S
C302 C303 1.391 . S
C303 H291 0.950 . S
C303 C299 1.393 . S
C303 C302 1.391 . S
H304 C312 0.950 . S
H305 C317 0.950 . S
H306 C314 0.950 . S
H307 C316 0.950 . S
H308 C318 0.950 . S
H309 C320 0.950 . S
H310 C322 0.950 . S
H311 C323 0.950 . S
C312 H304 0.950 . S
C312 C313 1.386 . S
C312 C314 1.391 . S
C313 C312 1.386 . S
C313 C317 1.393 . S
C314 H306 0.950 . S
C314 C312 1.391 . S
C314 C315 1.400 . S
C315 C314 1.400 . S
C315 C316 1.398 . S
C315 C321 1.491 . S
C316 H307 0.950 . S
C316 C315 1.398 . S
C316 C317 1.391 . S
C317 H305 0.950 . S
C317 C313 1.393 . S
C317 C316 1.391 . S
C318 H308 0.950 . S
C318 C319 1.386 . S
C318 C320 1.391 . S
C319 C318 1.386 . S
C319 C323 1.393 . S
C320 H309 0.950 . S
C320 C318 1.391 . S
C320 C321 1.400 . S
C321 C315 1.491 . S
C321 C320 1.400 . S
C321 C322 1.398 . S
C322 H310 0.950 . S
C322 C321 1.398 . S
C322 C323 1.391 . S
C323 H311 0.950 . S
C323 C319 1.393 . S
C323 C322 1.391 . S
H324 C332 0.950 . S
H325 C337 0.950 . S
H326 C334 0.950 . S
H327 C336 0.950 . S
H328 C338 0.950 . S
H329 C340 0.950 . S
H330 C342 0.950 . S
H331 C343 0.950 . S
C332 H324 0.950 . S
C332 C333 1.386 . S
C332 C334 1.391 . S
C333 C332 1.386 . S
C333 C337 1.393 . S
C334 H326 0.950 . S
C334 C332 1.391 . S
C334 C335 1.400 . S
C335 C334 1.400 . S
C335 C336 1.398 . S
C335 C341 1.491 1_556 S
C336 H327 0.950 . S
C336 C335 1.398 . S
C336 C337 1.391 . S
C337 H325 0.950 . S
C337 C333 1.393 . S
C337 C336 1.391 . S
C338 H328 0.950 . S
C338 C339 1.386 . S
C338 C340 1.391 . S
C339 C338 1.386 . S
C339 C343 1.393 . S
C340 H329 0.950 . S
C340 C338 1.391 . S
C340 C341 1.400 . S
C341 C335 1.491 1_554 S
C341 C340 1.400 . S
C341 C342 1.398 . S
C342 H330 0.950 . S
C342 C341 1.398 . S
C342 C343 1.391 . S
C343 H331 0.950 . S
C343 C339 1.393 . S
C343 C342 1.391 . S
H344 C352 0.950 . S
H345 C357 0.950 . S
H346 C354 0.950 . S
H347 C356 0.950 . S
H348 C358 0.950 . S
H349 C360 0.950 . S
H350 C362 0.950 . S
H351 C363 0.950 . S
C352 H344 0.950 . S
C352 C353 1.386 1_556 S
C352 C354 1.391 . S
C353 C352 1.386 1_554 S
C353 C357 1.393 . S
C354 H346 0.950 . S
C354 C352 1.391 . S
C354 C355 1.400 1_556 S
C355 C354 1.400 1_554 S
C355 C356 1.398 . S
C355 C361 1.491 1_454 S
C356 H347 0.950 . S
C356 C355 1.398 . S
C356 C357 1.391 . S
C357 H345 0.950 . S
C357 C353 1.393 . S
C357 C356 1.391 . S
C358 H348 0.950 . S
C358 C359 1.386 1_554 S
C358 C360 1.391 . S
C359 C358 1.386 1_556 S
C359 C363 1.393 . S
C360 H349 0.950 . S
C360 C358 1.391 . S
C360 C361 1.400 1_554 S
C361 C355 1.491 1_656 S
C361 C360 1.400 1_556 S
C361 C362 1.398 . S
C362 H350 0.950 . S
C362 C361 1.398 . S
C362 C363 1.391 . S
C363 H351 0.950 . S
C363 C359 1.393 . S
C363 C362 1.391 . S
H364 C372 0.950 . S
H365 C377 0.950 . S
H366 C374 0.950 . S
H367 C376 0.950 . S
H368 C378 0.950 . S
H369 C380 0.950 . S
H370 C382 0.950 . S
H371 C383 0.950 . S
C372 H364 0.950 . S
C372 C373 1.386 . S
C372 C374 1.391 . S
C373 C372 1.386 . S
C373 C377 1.393 . S
C374 H366 0.950 . S
C374 C372 1.391 . S
C374 C375 1.400 . S
C375 C374 1.400 . S
C375 C376 1.398 . S
C375 C381 1.491 1_545 S
C376 H367 0.950 . S
C376 C375 1.398 . S
C376 C377 1.391 . S
C377 H365 0.950 . S
C377 C373 1.393 . S
C377 C376 1.391 . S
C378 H368 0.950 . S
C378 C379 1.386 . S
C378 C380 1.391 . S
C379 C378 1.386 . S
C379 C383 1.393 . S
C380 H369 0.950 . S
C380 C378 1.391 . S
C380 C381 1.400 . S
C381 C375 1.491 1_565 S
C381 C380 1.400 . S
C381 C382 1.398 . S
C382 H370 0.950 . S
C382 C381 1.398 . S
C382 C383 1.391 . S
C383 H371 0.950 . S
C383 C379 1.393 . S
C383 C382 1.391 . S
H384 C392 0.950 . S
H385 C397 0.950 . S
H386 C394 0.950 . S
H387 C396 0.950 . S
H388 C398 0.950 . S
H389 C400 0.950 . S
H390 C402 0.950 . S
H391 C403 0.950 . S
C392 H384 0.950 . S
C392 C393 1.386 . S
C392 C394 1.391 . S
C393 C392 1.386 . S
C393 C397 1.393 . S
C394 H386 0.950 . S
C394 C392 1.391 . S
C394 C395 1.400 . S
C395 C394 1.400 . S
C395 C396 1.398 . S
C395 C401 1.491 1_455 S
C396 H387 0.950 . S
C396 C395 1.398 . S
C396 C397 1.391 . S
C397 H385 0.950 . S
C397 C393 1.393 . S
C397 C396 1.391 . S
C398 H388 0.950 . S
C398 C399 1.386 . S
C398 C400 1.391 . S
C399 C398 1.386 . S
C399 C403 1.393 . S
C400 H389 0.950 . S
C400 C398 1.391 . S
C400 C401 1.400 . S
C401 C395 1.491 1_655 S
C401 C400 1.400 . S
C401 C402 1.398 . S
C402 H390 0.950 . S
C402 C401 1.398 . S
C402 C403 1.391 . S
C403 H391 0.950 . S
C403 C399 1.393 . S
C403 C402 1.391 . S
H404 C412 0.950 . S
H405 C417 0.950 . S
H406 C414 0.950 . S
H407 C416 0.950 . S
H408 C418 0.950 . S
H409 C420 0.950 . S
H410 C422 0.950 . S
H411 C423 0.950 . S
C412 H404 0.950 . S
C412 C413 1.386 . S
C412 C414 1.391 . S
C413 C412 1.386 . S
C413 C417 1.393 . S
C414 H406 0.950 . S
C414 C412 1.391 . S
C414 C415 1.400 . S
C415 C414 1.400 . S
C415 C416 1.398 . S
C415 C421 1.491 1_545 S
C416 H407 0.950 . S
C416 C415 1.398 . S
C416 C417 1.391 . S
C417 H405 0.950 . S
C417 C413 1.393 . S
C417 C416 1.391 . S
C418 H408 0.950 . S
C418 C419 1.386 . S
C418 C420 1.391 . S
C419 C418 1.386 . S
C419 C423 1.393 . S
C420 H409 0.950 . S
C420 C418 1.391 . S
C420 C421 1.400 . S
C421 C415 1.491 1_565 S
C421 C420 1.400 . S
C421 C422 1.398 . S
C422 H410 0.950 . S
C422 C421 1.398 . S
C422 C423 1.391 . S
C423 H411 0.950 . S
C423 C419 1.393 . S
C423 C422 1.391 . S
H424 C432 0.950 . S
H425 C437 0.950 . S
H426 C434 0.950 . S
H427 C436 0.950 . S
H428 C438 0.950 . S
H429 C440 0.950 . S
H430 C442 0.950 . S
H431 C443 0.950 . S
C432 H424 0.950 . S
C432 C433 1.386 . S
C432 C434 1.391 . S
C433 C432 1.386 . S
C433 C437 1.393 . S
C434 H426 0.950 . S
C434 C432 1.391 . S
C434 C435 1.400 . S
C435 C434 1.400 . S
C435 C436 1.398 . S
C435 C441 1.491 . S
C436 H427 0.950 . S
C436 C435 1.398 . S
C436 C437 1.391 . S
C437 H425 0.950 . S
C437 C433 1.393 . S
C437 C436 1.391 . S
C438 H428 0.950 . S
C438 C439 1.386 . S
C438 C440 1.391 . S
C439 C438 1.386 . S
C439 C443 1.393 . S
C440 H429 0.950 . S
C440 C438 1.391 . S
C440 C441 1.400 . S
C441 C435 1.491 . S
C441 C440 1.400 . S
C441 C442 1.398 . S
C442 H430 0.950 . S
C442 C441 1.398 . S
C442 C443 1.391 . S
C443 H431 0.950 . S
C443 C439 1.393 . S
C443 C442 1.391 . S
H444 C452 0.950 . S
H445 C457 0.950 . S
H446 C454 0.950 . S
H447 C456 0.950 . S
H448 C458 0.950 . S
H449 C460 0.950 . S
H450 C462 0.950 . S
H451 C463 0.950 . S
C452 H444 0.950 . S
C452 C453 1.386 . S
C452 C454 1.391 . S
C453 C452 1.386 . S
C453 C457 1.393 . S
C454 H446 0.950 . S
C454 C452 1.391 . S
C454 C455 1.400 . S
C455 C454 1.400 . S
C455 C456 1.398 . S
C455 C461 1.491 . S
C456 H447 0.950 . S
C456 C455 1.398 . S
C456 C457 1.391 . S
C457 H445 0.950 . S
C457 C453 1.393 . S
C457 C456 1.391 . S
C458 H448 0.950 . S
C458 C459 1.386 . S
C458 C460 1.391 . S
C459 C458 1.386 . S
C459 C463 1.393 . S
C460 H449 0.950 . S
C460 C458 1.391 . S
C460 C461 1.400 . S
C461 C455 1.491 . S
C461 C460 1.400 . S
C461 C462 1.398 . S
C462 H450 0.950 . S
C462 C461 1.398 . S
C462 C463 1.391 . S
C463 H451 0.950 . S
C463 C459 1.393 . S
C463 C462 1.391 . S
H464 C472 0.950 . S
H465 C477 0.950 . S
H466 C474 0.950 . S
H467 C476 0.950 . S
H468 C478 0.950 . S
H469 C480 0.950 . S
H470 C482 0.950 . S
H471 C483 0.950 . S
C472 H464 0.950 . S
C472 C473 1.386 . S
C472 C474 1.391 . S
C473 C472 1.386 . S
C473 C477 1.393 . S
C474 H466 0.950 . S
C474 C472 1.391 . S
C474 C475 1.400 . S
C475 C474 1.400 . S
C475 C476 1.398 . S
C475 C481 1.491 . S
C476 H467 0.950 . S
C476 C475 1.398 . S
C476 C477 1.391 . S
C477 H465 0.950 . S
C477 C473 1.393 . S
C477 C476 1.391 . S
C478 H468 0.950 . S
C478 C479 1.386 . S
C478 C480 1.391 . S
C479 C478 1.386 . S
C479 C483 1.393 . S
C480 H469 0.950 . S
C480 C478 1.391 . S
C480 C481 1.400 . S
C481 C475 1.491 . S
C481 C480 1.400 . S
C481 C482 1.398 . S
C482 H470 0.950 . S
C482 C481 1.398 . S
C482 C483 1.391 . S
C483 H471 0.950 . S
C483 C479 1.393 . S
C483 C482 1.391 . S
H484 C492 0.950 . S
H485 C497 0.950 . S
H486 C494 0.950 . S
H487 C496 0.950 . S
H488 C498 0.950 . S
H489 C500 0.950 . S
H490 C502 0.950 . S
H491 C503 0.950 . S
C492 H484 0.950 . S
C492 C493 1.386 . S
C492 C494 1.391 . S
C493 C492 1.386 . S
C493 C497 1.393 . S
C494 H486 0.950 . S
C494 C492 1.391 . S
C494 C495 1.400 . S
C495 C494 1.400 . S
C495 C496 1.398 . S
C495 C501 1.491 . S
C496 H487 0.950 . S
C496 C495 1.398 . S
C496 C497 1.391 . S
C497 H485 0.950 . S
C497 C493 1.393 . S
C497 C496 1.391 . S
C498 H488 0.950 . S
C498 C499 1.386 . S
C498 C500 1.391 . S
C499 C498 1.386 . S
C499 C503 1.393 . S
C500 H489 0.950 . S
C500 C498 1.391 . S
C500 C501 1.400 . S
C501 C495 1.491 . S
C501 C500 1.400 . S
C501 C502 1.398 . S
C502 H490 0.950 . S
C502 C501 1.398 . S
C502 C503 1.391 . S
C503 H491 0.950 . S
C503 C499 1.393 . S
C503 C502 1.391 . S
H504 C512 0.950 . S
H505 C517 0.950 . S
H506 C514 0.950 . S
H507 C516 0.950 . S
H508 C518 0.950 . S
H509 C520 0.950 . S
H510 C522 0.950 . S
H511 C523 0.950 . S
C512 H504 0.950 . S
C512 C513 1.386 . S
C512 C514 1.391 . S
C513 C512 1.386 . S
C513 C517 1.393 . S
C514 H506 0.950 . S
C514 C512 1.391 . S
C514 C515 1.400 . S
C515 C514 1.400 . S
C515 C516 1.398 . S
C515 C521 1.491 . S
C516 H507 0.950 . S
C516 C515 1.398 . S
C516 C517 1.391 . S
C517 H505 0.950 . S
C517 C513 1.393 . S
C517 C516 1.391 . S
C518 H508 0.950 . S
C518 C519 1.386 . S
C518 C520 1.391 . S
C519 C518 1.386 . S
C519 C523 1.393 . S
C520 H509 0.950 . S
C520 C518 1.391 . S
C520 C521 1.400 . S
C521 C515 1.491 . S
C521 C520 1.400 . S
C521 C522 1.398 . S
C522 H510 0.950 . S
C522 C521 1.398 . S
C522 C523 1.391 . S
C523 H511 0.950 . S
C523 C519 1.393 . S
C523 C522 1.391 . S
H524 C532 0.950 . S
H525 C537 0.950 . S
H526 C534 0.950 . S
H527 C536 0.950 . S
H528 C538 0.950 . S
H529 C540 0.950 . S
H530 C542 0.950 . S
H531 C543 0.950 . S
C532 H524 0.950 . S
C532 C533 1.386 . S
C532 C534 1.391 . S
C533 C532 1.386 . S
C533 C537 1.393 . S
C534 H526 0.950 . S
C534 C532 1.391 . S
C534 C535 1.400 . S
C535 C534 1.400 . S
C535 C536 1.398 . S
C535 C541 1.491 . S
C536 H527 0.950 . S
C536 C535 1.398 . S
C536 C537 1.391 . S
C537 H525 0.950 . S
C537 C533 1.393 . S
C537 C536 1.391 . S
C538 H528 0.950 . S
C538 C539 1.386 . S
C538 C540 1.391 . S
C539 C538 1.386 . S
C539 C543 1.393 . S
C540 H529 0.950 . S
C540 C538 1.391 . S
C540 C541 1.400 . S
C541 C535 1.491 . S
C541 C540 1.400 . S
C541 C542 1.398 . S
C542 H530 0.950 . S
C542 C541 1.398 . S
C542 C543 1.391 . S
C543 H531 0.950 . S
C543 C539 1.393 . S
C543 C542 1.391 . S
H544 C552 0.950 . S
H545 C557 0.950 . S
H546 C554 0.950 . S
H547 C556 0.950 . S
H548 C558 0.950 . S
H549 C560 0.950 . S
H550 C562 0.950 . S
H551 C563 0.950 . S
C552 H544 0.950 . S
C552 C553 1.386 . S
C552 C554 1.391 . S
C553 C552 1.386 . S
C553 C557 1.393 . S
C554 H546 0.950 . S
C554 C552 1.391 . S
C554 C555 1.400 . S
C555 C554 1.400 . S
C555 C556 1.398 . S
C555 C561 1.491 . S
C556 H547 0.950 . S
C556 C555 1.398 . S
C556 C557 1.391 . S
C557 H545 0.950 . S
C557 C553 1.393 . S
C557 C556 1.391 . S
C558 H548 0.950 . S
C558 C559 1.386 . S
C558 C560 1.391 . S
C559 C558 1.386 . S
C559 C563 1.393 . S
C560 H549 0.950 . S
C560 C558 1.391 . S
C560 C561 1.400 . S
C561 C555 1.491 . S
C561 C560 1.400 . S
C561 C562 1.398 . S
C562 H550 0.950 . S
C562 C561 1.398 . S
C562 C563 1.391 . S
C563 H551 0.950 . S
C563 C559 1.393 . S
C563 C562 1.391 . S
H564 C572 0.950 . S
H565 C577 0.950 . S
H566 C574 0.950 . S
H567 C576 0.950 . S
H568 C578 0.950 . S
H569 C580 0.950 . S
H570 C582 0.950 . S
H571 C583 0.950 . S
C572 H564 0.950 . S
C572 C573 1.386 . S
C572 C574 1.391 . S
C573 C572 1.386 . S
C573 C577 1.393 . S
C574 H566 0.950 . S
C574 C572 1.391 . S
C574 C575 1.400 . S
C575 C574 1.400 . S
C575 C576 1.398 . S
C575 C581 1.491 . S
C576 H567 0.950 . S
C576 C575 1.398 . S
C576 C577 1.391 . S
C577 H565 0.950 . S
C577 C573 1.393 . S
C577 C576 1.391 . S
C578 H568 0.950 . S
C578 C579 1.386 . S
C578 C580 1.391 . S
C579 C578 1.386 . S
C579 C583 1.393 . S
C580 H569 0.950 . S
C580 C578 1.391 . S
C580 C581 1.400 . S
C581 C575 1.491 . S
C581 C580 1.400 . S
C581 C582 1.398 . S
C582 H570 0.950 . S
C582 C581 1.398 . S
C582 C583 1.391 . S
C583 H571 0.950 . S
C583 C579 1.393 . S
C583 C582 1.391 . S
H584 C592 0.950 . S
H585 C597 0.950 . S
H586 C594 0.950 . S
H587 C596 0.950 . S
H588 C598 0.950 . S
H589 C600 0.950 . S
H590 C602 0.950 . S
H591 C603 0.950 . S
C592 H584 0.950 . S
C592 C593 1.386 . S
C592 C594 1.391 . S
C593 C592 1.386 . S
C593 C597 1.393 . S
C594 H586 0.950 . S
C594 C592 1.391 . S
C594 C595 1.400 . S
C595 C594 1.400 . S
C595 C596 1.398 . S
C595 C601 1.491 . S
C596 H587 0.950 . S
C596 C595 1.398 . S
C596 C597 1.391 . S
C597 H585 0.950 . S
C597 C593 1.393 . S
C597 C596 1.391 . S
C598 H588 0.950 . S
C598 C599 1.386 . S
C598 C600 1.391 . S
C599 C598 1.386 . S
C599 C603 1.393 . S
C600 H589 0.950 . S
C600 C598 1.391 . S
C600 C601 1.400 . S
C601 C595 1.491 . S
C601 C600 1.400 . S
C601 C602 1.398 . S
C602 H590 0.950 . S
C602 C601 1.398 . S
C602 C603 1.391 . S
C603 H591 0.950 . S
C603 C599 1.393 . S
C603 C602 1.391 . S
H604 C612 0.950 . S
H605 C617 0.950 . S
H606 C614 0.950 . S
H607 C616 0.950 . S
H608 C618 0.950 . S
H609 C620 0.950 . S
H610 C622 0.950 . S
H611 C623 0.950 . S
C612 H604 0.950 . S
C612 C613 1.386 . S
C612 C614 1.391 . S
C613 C612 1.386 . S
C613 C617 1.393 . S
C614 H606 0.950 . S
C614 C612 1.391 . S
C614 C615 1.400 . S
C615 C614 1.400 . S
C615 C616 1.398 . S
C615 C621 1.491 . S
C616 H607 0.950 . S
C616 C615 1.398 . S
C616 C617 1.391 . S
C617 H605 0.950 . S
C617 C613 1.393 . S
C617 C616 1.391 . S
C618 H608 0.950 . S
C618 C619 1.386 . S
C618 C620 1.391 . S
C619 C618 1.386 . S
C619 C623 1.393 . S
C620 H609 0.950 . S
C620 C618 1.391 . S
C620 C621 1.400 . S
C621 C615 1.491 . S
C621 C620 1.400 . S
C621 C622 1.398 . S
C622 H610 0.950 . S
C622 C621 1.398 . S
C622 C623 1.391 . S
C623 H611 0.950 . S
C623 C619 1.393 . S
C623 C622 1.391 . S
H624 C632 0.950 . S
H625 C637 0.950 . S
H626 C634 0.950 . S
H627 C636 0.950 . S
H628 C638 0.950 . S
H629 C640 0.950 . S
H630 C642 0.950 . S
H631 C643 0.950 . S
C632 H624 0.950 . S
C632 C633 1.386 . S
C632 C634 1.391 . S
C633 C632 1.386 . S
C633 C637 1.393 . S
C634 H626 0.950 . S
C634 C632 1.391 . S
C634 C635 1.400 . S
C635 C634 1.400 . S
C635 C636 1.398 . S
C635 C641 1.491 . S
C636 H627 0.950 . S
C636 C635 1.398 . S
C636 C637 1.391 . S
C637 H625 0.950 . S
C637 C633 1.393 . S
C637 C636 1.391 . S
C638 H628 0.950 . S
C638 C639 1.386 . S
C638 C640 1.391 . S
C639 C638 1.386 . S
C639 C643 1.393 . S
C640 H629 0.950 . S
C640 C638 1.391 . S
C640 C641 1.400 . S
C641 C635 1.491 . S
C641 C640 1.400 . S
C641 C642 1.398 . S
C642 H630 0.950 . S
C642 C641 1.398 . S
C642 C643 1.391 . S
C643 H631 0.950 . S
C643 C639 1.393 . S
C643 C642 1.391 . S
H644 C652 0.950 . S
H645 C657 0.950 . S
H646 C654 0.950 . S
H647 C656 0.950 . S
H648 C658 0.950 . S
H649 C660 0.950 . S
H650 C662 0.950 . S
H651 C663 0.950 . S
C652 H644 0.950 . S
C652 C653 1.386 . S
C652 C654 1.391 . S
C653 C652 1.386 . S
C653 C657 1.393 . S
C654 H646 0.950 . S
C654 C652 1.391 . S
C654 C655 1.400 . S
C655 C654 1.400 . S
C655 C656 1.398 . S
C655 C661 1.491 . S
C656 H647 0.950 . S
C656 C655 1.398 . S
C656 C657 1.391 . S
C657 H645 0.950 . S
C657 C653 1.393 . S
C657 C656 1.391 . S
C658 H648 0.950 . S
C658 C659 1.386 . S
C658 C660 1.391 . S
C659 C658 1.386 . S
C659 C663 1.393 . S
C660 H649 0.950 . S
C660 C658 1.391 . S
C660 C661 1.400 . S
C661 C655 1.491 . S
C661 C660 1.400 . S
C661 C662 1.398 . S
C662 H650 0.950 . S
C662 C661 1.398 . S
C662 C663 1.391 . S
C663 H651 0.950 . S
C663 C659 1.393 . S
C663 C662 1.391 . S
C273 N134 0.514 . S
C279 N2 0.482 . S
C293 N35 0.511 . S
C299 N167 0.483 . S
C313 N68 0.567 . S
C319 N200 0.530 . S
C333 N101 0.565 . S
C339 N233 0.519 . S
C353 C21 0.978 . S
C359 C219 0.977 . S
C373 C54 0.980 . S
C379 C252 0.979 . S
C393 C153 0.997 . S
C399 C87 0.998 . S
C413 C186 0.980 . S
C419 C120 0.981 . S
C433 C249 0.361 . S
C439 C18 0.362 . S
C453 C51 0.434 . S
C459 C150 0.429 . S
C473 C183 0.429 . S
C479 C84 0.434 . S
C493 C216 0.439 . S
C499 C117 0.416 . S
C513 C7 1.885 . S
C519 N46 1.953 . S
C533 C40 1.885 . S
C539 N79 1.951 . S
C553 N112 1.956 . S
C559 C73 1.879 . S
C573 N13 1.957 . S
C579 C106 1.876 . S
C593 C139 1.879 . S
C599 N244 1.956 . S
C613 N145 1.956 . S
C619 C172 1.878 . S
C633 C205 1.892 . S
C639 N178 1.949 . S
C653 C238 1.881 . S
C659 N211 1.953 . S
