# Generated by pormake.
# Topology smd, (6)-cn, num edge types: 1
# Building blocks:
#     Node 0, Type 0, BuildingBlock: IZENUY_clean_sbu_0, # of connection points: 6
#     Node 1, Type 0, BuildingBlock: IZENUY_clean_sbu_0, # of connection points: 6
#     Node 2, Type 0, BuildingBlock: IZENUY_clean_sbu_0, # of connection points: 6
#     Node 3, Type 0, BuildingBlock: IZENUY_clean_sbu_0, # of connection points: 6
#     Node 4, Type 0, BuildingBlock: IZENUY_clean_sbu_0, # of connection points: 6
#     Node 5, Type 0, BuildingBlock: IZENUY_clean_sbu_0, # of connection points: 6
#     Node 6, Type 0, BuildingBlock: IZENUY_clean_sbu_0, # of connection points: 6
#     Node 7, Type 0, BuildingBlock: IZENUY_clean_sbu_0, # of connection points: 6
#     Node 8, Type 0, BuildingBlock: IZENUY_clean_sbu_0, # of connection points: 6
#     Node 9, Type 0, BuildingBlock: IZENUY_clean_sbu_0, # of connection points: 6
#     Node 10, Type 0, BuildingBlock: IZENUY_clean_sbu_0, # of connection points: 6
#     Node 11, Type 0, BuildingBlock: IZENUY_clean_sbu_0, # of connection points: 6
#     Node 12, Type 0, BuildingBlock: IZENUY_clean_sbu_0, # of connection points: 6
#     Node 13, Type 0, BuildingBlock: IZENUY_clean_sbu_0, # of connection points: 6
#     Node 14, Type 0, BuildingBlock: IZENUY_clean_sbu_0, # of connection points: 6
#     Node 15, Type 0, BuildingBlock: IZENUY_clean_sbu_0, # of connection points: 6
#     Node 16, Type 0, BuildingBlock: IZENUY_clean_sbu_0, # of connection points: 6
#     Node 17, Type 0, BuildingBlock: IZENUY_clean_sbu_0, # of connection points: 6
#     Edge 18, Type (0, 0), None
#     Edge 19, Type (0, 0), None
#     Edge 20, Type (0, 0), None
#     Edge 21, Type (0, 0), None
#     Edge 22, Type (0, 0), None
#     Edge 23, Type (0, 0), None
#     Edge 24, Type (0, 0), None
#     Edge 25, Type (0, 0), None
#     Edge 26, Type (0, 0), None
#     Edge 27, Type (0, 0), None
#     Edge 28, Type (0, 0), None
#     Edge 29, Type (0, 0), None
#     Edge 30, Type (0, 0), None
#     Edge 31, Type (0, 0), None
#     Edge 32, Type (0, 0), None
#     Edge 33, Type (0, 0), None
#     Edge 34, Type (0, 0), None
#     Edge 35, Type (0, 0), None
#     Edge 36, Type (0, 0), None
#     Edge 37, Type (0, 0), None
#     Edge 38, Type (0, 0), None
#     Edge 39, Type (0, 0), None
#     Edge 40, Type (0, 0), None
#     Edge 41, Type (0, 0), None
#     Edge 42, Type (0, 0), None
#     Edge 43, Type (0, 0), None
#     Edge 44, Type (0, 0), None
#     Edge 45, Type (0, 0), None
#     Edge 46, Type (0, 0), None
#     Edge 47, Type (0, 0), None
#     Edge 48, Type (0, 0), None
#     Edge 49, Type (0, 0), None
#     Edge 50, Type (0, 0), None
#     Edge 51, Type (0, 0), None
#     Edge 52, Type (0, 0), None
#     Edge 53, Type (0, 0), None
#     Edge 54, Type (0, 0), None
#     Edge 55, Type (0, 0), None
#     Edge 56, Type (0, 0), None
#     Edge 57, Type (0, 0), None
#     Edge 58, Type (0, 0), None
#     Edge 59, Type (0, 0), None
#     Edge 60, Type (0, 0), None
#     Edge 61, Type (0, 0), None
#     Edge 62, Type (0, 0), None
#     Edge 63, Type (0, 0), None
#     Edge 64, Type (0, 0), None
#     Edge 65, Type (0, 0), None
#     Edge 66, Type (0, 0), None
#     Edge 67, Type (0, 0), None
#     Edge 68, Type (0, 0), None
#     Edge 69, Type (0, 0), None
#     Edge 70, Type (0, 0), None
#     Edge 71, Type (0, 0), None
# Relax obj value: 0.180
# Max RMSD: 0.221
# Mean RMSD: 0.218
data_MOF--net-smd--node1-IZENUY_clean_sbu_0--edge1-none
_symmetry_space_group_name_H-M    P1
_symmetry_Int_Tables_number       1
_symmetry_cell_setting            triclinic
loop_
_symmetry_equiv_pos_as_xyz
'x, y, z'
_cell_length_a     34.649684
_cell_length_b     34.670276
_cell_length_c     7.0510834
_cell_angle_alpha  90.032191
_cell_angle_beta   89.936436
_cell_angle_gamma 120.05706
loop_
_atom_site_label
_atom_site_type_symbol
_atom_site_fract_x
_atom_site_fract_y
_atom_site_fract_z
_atom_type_partial_charge
Fe0 Fe 0.08555 0.2979 0.68147 0.0
Fe1 Fe 0.04777 0.20146 0.53832 0.0
O2 O 0.04778 0.25257 0.53846 0.0
Fe3 Fe 1.01002 0.26012 0.39567 0.0
O4 O 0.98403 0.26738 0.59902 0.0
O5 O 0.04699 0.32112 0.71209 0.0
O6 O 0.06198 0.26696 0.88477 0.0
C7 C 0.05411 0.22891 0.93453 0.0
C8 C 0.09069 0.34598 0.38953 0.0
O9 O 0.05355 0.20111 0.81064 0.0
C10 C 0.04142 0.22255 0.14227 0.0
O11 O 0.13068 0.28415 0.68779 0.0
O12 O 0.10636 0.22786 0.49292 0.0
O13 O 0.04866 0.32194 0.36511 0.0
O14 O 0.11159 0.33117 0.47824 0.0
C15 C 0.95807 0.16864 0.49214 0.0
O16 O 0.04198 0.19532 0.26599 0.0
O17 O 1.03351 0.25271 0.19218 0.0
C18 C 0.13744 0.25829 0.58533 0.0
O19 O 0.98919 0.16924 0.58376 0.0
O20 O 0.96484 0.20122 0.38952 0.0
C21 C 1.00495 0.30311 0.6878 0.0
Fe22 Fe 0.88314 0.87159 0.53934 0.0
Fe23 Fe 0.8243 0.77511 0.39645 0.0
O24 O 0.83192 0.82047 0.53943 0.0
Fe25 Fe 0.78655 0.81292 0.68246 0.0
O26 O 0.81744 0.82044 0.88603 0.0
O27 O 0.8835 0.87771 0.81169 0.0
O28 O 0.91528 0.8452 0.58444 0.0
C29 C 0.91574 0.81456 0.4931 0.0
C30 C 0.8262 0.90435 0.58546 0.0
O31 O 0.88318 0.78881 0.39011 0.0
C32 C 0.73845 0.76984 0.39068 0.0
O33 O 0.88925 0.87193 0.26695 0.0
O34 O 0.83179 0.806 0.1929 0.0
O35 O 0.80032 0.87178 0.68821 0.0
O36 O 0.85688 0.90386 0.49431 0.0
C37 C 0.78127 0.72709 0.68883 0.0
O38 O 0.76245 0.75185 0.36617 0.0
O39 O 0.75334 0.8056 0.47922 0.0
C40 C 0.86199 0.84411 0.14316 0.0
O41 O 0.81699 0.7419 0.59975 0.0
O42 O 0.76329 0.75111 0.71328 0.0
C43 C 0.85559 0.85055 0.93564 0.0
Fe44 Fe 0.21263 0.0362 0.54116 0.0
Fe45 Fe 0.27142 0.99858 0.68371 0.0
O46 O 0.26382 0.03632 0.54094 0.0
Fe47 Fe 0.30919 0.07416 0.39791 0.0
O48 O 0.27828 0.05071 0.19442 0.0
O49 O 0.21227 0.04198 0.26885 0.0
O50 O 0.18049 0.97765 0.49579 0.0
C51 C 0.17998 0.94654 0.58703 0.0
C52 C 0.26949 0.12591 0.49477 0.0
O53 O 0.21253 0.95336 0.68999 0.0
C54 C 0.3573 0.07924 0.68958 0.0
O55 O 0.2065 0.03041 0.81353 0.0
O56 O 0.26396 1.022 0.88735 0.0
O57 O 0.29541 0.11924 0.39215 0.0
O58 O 0.23892 0.09476 0.58644 0.0
C59 C 0.31444 0.99362 0.3912 0.0
O60 O 0.33327 0.03723 0.714 0.0
O61 O 0.34243 0.10011 0.60114 0.0
C62 C 0.23376 0.02988 0.93724 0.0
O63 O 0.27872 0.97268 0.48028 0.0
O64 O 0.33244 0.03564 0.36693 0.0
C65 C 0.24015 0.04269 0.14484 0.0
Fe66 Fe 1.00997 0.77476 0.39691 0.0
Fe67 Fe 0.04788 0.87124 0.53989 0.0
O68 O 0.04778 0.82009 0.5398 0.0
Fe69 Fe 0.08552 0.8125 0.68265 0.0
O70 O 0.11152 0.80526 0.4793 0.0
O71 O 0.04855 0.75156 0.36601 0.0
O72 O 1.03346 0.80567 0.19345 0.0
C73 C 0.04142 0.84375 0.1437 0.0
C74 C 1.00486 0.72666 0.68867 0.0
O75 O 0.0421 0.8716 0.26759 0.0
C76 C 0.05414 0.85009 0.93597 0.0
O77 O 0.96485 0.78852 0.39104 0.0
O78 O 0.98929 0.84493 0.58533 0.0
O79 O 0.0469 0.75069 0.71301 0.0
O80 O 0.98397 0.74151 0.60019 0.0
C81 C 0.13754 0.90398 0.58639 0.0
O82 O 0.05367 0.87737 0.81224 0.0
O83 O 0.06198 0.81989 0.88609 0.0
C84 C 0.95815 0.81442 0.49354 0.0
O85 O 0.10646 0.90338 0.49439 0.0
O86 O 0.13071 0.8714 0.68912 0.0
C87 C 0.09058 0.76956 0.39029 0.0
Fe88 Fe 0.21245 0.20103 0.54102 0.0
Fe89 Fe 0.27121 0.29755 0.68376 0.0
O90 O 0.26363 0.25219 0.54089 0.0
Fe91 Fe 0.30901 0.25977 0.39781 0.0
O92 O 0.27812 0.25228 0.19429 0.0
O93 O 0.21211 0.19491 0.26866 0.0
O94 O 0.18025 0.22734 0.49588 0.0
C95 C 0.1798 0.25807 0.58662 0.0
C96 C 0.26942 0.16834 0.4946 0.0
O97 O 0.21234 0.28385 0.68966 0.0
C98 C 0.35708 0.30281 0.6898 0.0
O99 O 0.20633 0.20068 0.81339 0.0
O100 O 0.26368 0.26668 0.88746 0.0
O101 O 0.29526 0.20091 0.39176 0.0
O102 O 0.23879 0.16884 0.58611 0.0
C103 C 0.3143 0.34558 0.39154 0.0
O104 O 0.33306 0.32079 0.71431 0.0
O105 O 0.34223 0.26708 0.60105 0.0
C106 C 0.23354 0.22855 0.9372 0.0
O107 O 0.27855 0.33074 0.4804 0.0
O108 O 0.3323 0.32158 0.36717 0.0
C109 C 0.23998 0.22212 0.1447 0.0
Fe110 Fe 0.78639 0.99852 0.68147 0.0
Fe111 Fe 0.88295 0.03645 0.53815 0.0
O112 O 0.83175 0.03634 0.53837 0.0
Fe113 Fe 0.82414 0.07406 0.39554 0.0
O114 O 0.81686 0.09999 0.5989 0.0
O115 O 0.76314 0.03704 0.71236 0.0
O116 O 0.81731 1.022 0.88484 0.0
C117 C 0.85543 0.02999 0.93445 0.0
C118 C 0.73826 0.9934 0.38983 0.0
O119 O 0.88331 0.03069 0.81047 0.0
C120 C 0.86179 0.04275 0.1421 0.0
O121 O 0.80018 0.95344 0.68737 0.0
O122 O 0.85665 0.97789 0.49299 0.0
O123 O 0.76229 0.03542 0.36532 0.0
O124 O 0.75313 0.97254 0.4783 0.0
C125 C 0.9156 0.1261 0.49196 0.0
O126 O 0.88907 0.04224 0.26578 0.0
O127 O 0.83159 0.05061 0.192 0.0
C128 C 0.8261 0.94676 0.58485 0.0
O129 O 0.91509 0.09501 0.58341 0.0
O130 O 0.88304 0.11927 0.3891 0.0
C131 C 0.78113 0.07906 0.68799 0.0
Fe132 Fe 0.67668 0.59347 0.73008 0.0
Fe133 Fe 0.75227 0.63124 1.01571 0.0
O134 O 0.71444 0.5859 0.87285 0.0
Fe135 Fe 0.71436 0.53475 0.87277 0.0
O136 O 0.65578 0.50261 0.91839 0.0
O137 O 0.63149 0.53457 0.72378 0.0
O138 O 0.65071 0.60072 0.93349 0.0
C139 C 0.67165 0.63643 1.02245 0.0
C140 C 0.70805 0.55589 0.47667 0.0
O141 O 0.71369 0.65444 0.04665 0.0
C142 C 0.80407 0.59157 0.91901 0.0
O143 O 0.71531 0.6553 0.69962 0.0
O144 O 0.77825 0.66449 0.8124 0.0
O145 O 0.70855 0.52862 0.60042 0.0
O146 O 0.70019 0.58607 0.52654 0.0
C147 C 0.72081 0.56225 0.26896 0.0
O148 O 0.79739 0.61748 1.0215 0.0
O149 O 0.77293 0.56106 0.82723 0.0
C150 C 0.75735 0.67933 0.72391 0.0
O151 O 0.72879 0.60033 0.21923 0.0
O152 O 0.72015 0.5344 0.14507 0.0
C153 C 0.62468 0.50201 0.82661 0.0
Fe154 Fe 0.49096 0.10844 0.72984 0.0
Fe155 Fe 0.45322 0.14624 1.01593 0.0
O156 O 0.49859 0.1538 0.87284 0.0
Fe157 Fe 0.5498 0.20492 0.87277 0.0
O158 O 0.58194 0.17852 0.91776 0.0
O159 O 0.54984 0.12214 0.72342 0.0
O160 O 0.48367 0.07524 0.93312 0.0
C161 C 0.44795 0.06043 1.02221 0.0
C162 C 0.52865 0.17744 0.47659 0.0
O163 O 0.42996 0.08443 0.04667 0.0
C164 C 0.49288 0.23769 0.91921 0.0
O165 O 0.42911 0.08518 0.69959 0.0
O166 O 0.41999 0.13892 0.81275 0.0
O167 O 0.55591 0.20526 0.60037 0.0
O168 O 0.49844 0.13934 0.52634 0.0
C169 C 0.52227 0.18386 0.26904 0.0
O170 O 0.46698 0.20509 1.02182 0.0
O171 O 0.52354 0.23719 0.82787 0.0
C172 C 0.40511 0.10316 0.72414 0.0
O173 O 0.48412 0.15374 0.21942 0.0
O174 O 0.55017 0.21104 0.14511 0.0
C175 C 0.5824 0.14788 0.82639 0.0
Fe176 Fe 0.93811 0.33195 1.01574 0.0
Fe177 Fe 0.87928 0.36951 0.87308 0.0
O178 O 0.9305 0.36967 0.8729 0.0
Fe179 Fe 0.97586 0.40751 0.72987 0.0
O180 O 1.00913 0.43346 0.93307 0.0
O181 O 0.99997 0.37057 0.04586 0.0
O182 O 0.93069 0.35543 0.21927 0.0
C183 C 0.90044 0.36323 0.26919 0.0
C184 C 0.98107 0.32695 0.72314 0.0
O185 O 0.87316 0.36372 0.14547 0.0
C186 C 0.90681 0.37601 0.47682 0.0
O187 O 0.87922 0.28674 1.02234 0.0
O188 O 0.84718 0.31095 0.82775 0.0
O189 O 0.99908 0.36897 0.69881 0.0
O190 O 0.94536 0.30601 0.81233 0.0
C191 C 0.93613 0.45924 0.82678 0.0
O192 O 0.87891 0.37528 0.60078 0.0
O193 O 0.94495 0.38409 0.52638 0.0
C194 C 0.84666 0.27988 0.91939 0.0
O195 O 0.90552 0.42806 0.91827 0.0
O196 O 0.96208 0.45259 0.72428 0.0
C197 C 1.02401 0.41259 1.02145 0.0
Fe198 Fe 0.75222 0.14587 1.01574 0.0
Fe199 Fe 0.71451 0.20456 0.87309 0.0
O200 O 0.71445 0.15342 0.87298 0.0
Fe201 Fe 0.67663 0.10808 0.73009 0.0
O202 O 0.65065 0.07482 0.9334 0.0
O203 O 0.71359 0.08404 0.04623 0.0
O204 O 0.72872 0.15327 0.21929 0.0
C205 C 0.72086 0.18346 0.26919 0.0
C206 C 0.75726 0.1029 0.72344 0.0
O207 O 0.72031 0.2107 0.14543 0.0
C208 C 0.70811 0.17709 0.4769 0.0
O209 O 0.79741 0.20477 1.02197 0.0
O210 O 0.77309 0.23673 0.82748 0.0
O211 O 0.71522 0.08488 0.6992 0.0
O212 O 0.77819 0.13862 0.81232 0.0
C213 C 0.6248 0.14771 0.82684 0.0
O214 O 0.70872 0.20491 0.60079 0.0
O215 O 0.70013 0.139 0.5266 0.0
C216 C 0.80419 0.23734 0.91923 0.0
O217 O 0.65594 0.17822 0.91864 0.0
O218 O 0.6315 0.12184 0.72423 0.0
C219 C 0.67155 0.06 1.02197 0.0
Fe220 Fe 0.93792 0.63088 1.01595 0.0
Fe221 Fe 0.8791 0.53439 0.87306 0.0
O222 O 0.93031 0.58553 0.87296 0.0
Fe223 Fe 0.97568 0.5931 0.72986 0.0
O224 O 1.00892 0.60042 0.93303 0.0
O225 O 0.99977 0.65414 0.04623 0.0
O226 O 0.93044 0.59999 0.21947 0.0
C227 C 0.90023 0.56189 0.26926 0.0
C228 C 0.98094 0.6789 0.72364 0.0
O229 O 0.87299 0.53405 0.14545 0.0
C230 C 0.90662 0.55548 0.4768 0.0
O231 O 0.87905 0.61717 1.02232 0.0
O232 O 0.84694 0.56077 0.82808 0.0
O233 O 0.99894 0.6549 0.69915 0.0
O234 O 0.94521 0.66408 0.81267 0.0
C235 C 0.93606 0.50166 0.82664 0.0
O236 O 0.87874 0.52828 0.60072 0.0
O237 O 0.94478 0.5856 0.52639 0.0
C238 C 0.84648 0.59141 0.91942 0.0
O239 O 0.9054 0.50215 0.91799 0.0
O240 O 0.96192 0.53424 0.72391 0.0
C241 C 1.02379 0.63617 1.02172 0.0
Fe242 Fe 0.45304 0.33181 1.01597 0.0
Fe243 Fe 0.54963 0.36985 0.87281 0.0
O244 O 0.4984 0.36966 0.87296 0.0
Fe245 Fe 0.49077 0.40737 0.7301 0.0
O246 O 0.48352 0.43331 0.9335 0.0
O247 O 0.42982 0.37035 0.04709 0.0
O248 O 0.48394 0.35522 0.21948 0.0
C249 C 0.52208 0.36329 0.2691 0.0
C250 C 0.40489 0.32673 0.72447 0.0
O251 O 0.55 0.36408 0.14511 0.0
C252 C 0.52843 0.37607 0.47672 0.0
O253 O 0.46683 0.28673 1.02148 0.0
O254 O 0.52342 0.31129 0.82764 0.0
O255 O 0.42891 0.36875 0.70003 0.0
O256 O 0.41978 0.30586 0.81277 0.0
C257 C 0.58221 0.45947 0.82648 0.0
O258 O 0.55575 0.37564 0.60042 0.0
O259 O 0.49819 0.38388 0.52659 0.0
C260 C 0.49281 0.28011 0.91906 0.0
O261 O 0.5817 0.42841 0.91816 0.0
O262 O 0.54966 0.45259 0.72342 0.0
C263 C 0.44782 0.41237 1.02277 0.0
Fe264 Fe 0.38102 0.86809 0.20603 0.0
Fe265 Fe 0.34337 0.92682 0.06329 0.0
O266 O 0.38111 0.91924 0.20613 0.0
Fe267 Fe 0.41893 0.96457 0.34901 0.0
O268 O 0.39544 0.93367 0.55249 0.0
O269 O 0.3868 0.86774 0.47833 0.0
O270 O 0.32243 0.83595 0.25151 0.0
C271 C 0.29136 0.83534 0.15953 0.0
C272 C 0.47075 0.92492 0.25241 0.0
O273 O 0.29818 0.86793 0.05685 0.0
C274 C 0.42403 1.01266 0.05721 0.0
O275 O 0.37523 0.86197 0.93369 0.0
O276 O 0.3669 0.91944 0.85983 0.0
O277 O 0.46406 0.95082 0.35489 0.0
O278 O 0.43961 0.89441 0.16061 0.0
C279 C 0.33831 0.96977 0.35568 0.0
O280 O 0.38199 0.98864 1.03291 0.0
O281 O 0.44492 0.99783 0.14572 0.0
C282 C 0.37474 0.88924 0.80995 0.0
O283 O 0.31738 0.93407 0.26665 0.0
O284 O 0.38035 0.98778 0.37991 0.0
C285 C 0.38748 0.89558 0.60223 0.0
Fe286 Fe 0.15768 0.44177 0.06224 0.0
Fe287 Fe 0.11987 0.47955 0.34818 0.0
O288 O 0.16525 0.48713 0.2051 0.0
Fe289 Fe 0.21643 0.53829 0.20497 0.0
O290 O 0.24864 0.51198 0.25011 0.0
O291 O 0.21656 0.45547 0.05634 0.0
O292 O 0.15034 0.40858 0.2656 0.0
C293 C 0.11459 0.39375 0.35449 0.0
C294 C 0.19534 0.51077 0.80879 0.0
O295 O 0.09659 0.41774 0.37882 0.0
C296 C 0.15946 0.57099 0.25139 0.0
O297 O 0.09583 0.41853 1.03168 0.0
O298 O 0.08666 0.47224 0.14493 0.0
O299 O 0.22255 0.53864 0.9326 0.0
O300 O 0.16521 0.47263 0.85853 0.0
C301 C 0.18891 0.51719 0.60129 0.0
O302 O 0.13362 0.53841 0.35421 0.0
O303 O 0.19009 0.57048 0.15989 0.0
C304 C 0.07181 0.43651 0.05614 0.0
O305 O 0.15077 0.48704 0.55171 0.0
O306 O 0.21677 0.54441 0.47733 0.0
C307 C 0.24909 0.48126 0.15936 0.0
Fe308 Fe 0.64251 0.74081 0.0645 0.0
Fe309 Fe 0.54595 0.70287 0.20781 0.0
O310 O 0.59715 0.70299 0.20759 0.0
Fe311 Fe 0.60476 0.66526 0.35042 0.0
O312 O 0.61204 0.63933 0.14706 0.0
O313 O 0.66577 0.70229 1.0336 0.0
O314 O 0.61159 0.71733 0.86111 0.0
C315 C 0.57347 0.70933 0.81151 0.0
C316 C 0.69064 0.74592 0.35616 0.0
O317 O 0.54559 0.70863 0.9355 0.0
C318 C 0.56711 0.69658 0.60387 0.0
O319 O 0.62872 0.78588 0.05861 0.0
O320 O 0.57225 0.76143 0.25296 0.0
O321 O 0.66661 0.70391 0.38064 0.0
O322 O 0.67577 0.76679 0.26768 0.0
C323 C 0.5133 0.61322 0.25402 0.0
O324 O 0.53983 0.69709 0.48019 0.0
O325 O 0.59731 0.68871 0.55397 0.0
C326 C 0.6028 0.79257 0.1611 0.0
O327 O 0.51381 0.64431 0.16257 0.0
O328 O 0.54587 0.62005 0.35686 0.0
C329 C 0.64776 0.66027 0.05792 0.0
Fe330 Fe 0.34334 0.44142 0.06453 0.0
Fe331 Fe 0.38113 0.53786 0.20768 0.0
O332 O 0.38111 0.48675 0.20754 0.0
Fe333 Fe 0.41888 0.4792 0.35032 0.0
O334 O 0.44486 0.47194 0.14698 0.0
O335 O 0.3819 0.41819 1.0339 0.0
O336 O 0.36691 0.47236 0.86122 0.0
C337 C 0.37478 0.51041 0.81147 0.0
C338 C 0.3382 0.39335 0.3565 0.0
O339 O 0.37535 0.53821 0.93535 0.0
C340 C 0.38748 0.51677 0.60372 0.0
O341 O 0.29822 0.45517 0.05821 0.0
O342 O 0.32253 0.51146 0.25307 0.0
O343 O 0.38024 0.41738 0.38088 0.0
O344 O 0.3173 0.40815 0.26776 0.0
C345 C 0.47083 0.57068 0.25383 0.0
O346 O 0.38691 0.544 0.48 0.0
O347 O 0.39539 0.48662 0.55382 0.0
C348 C 0.29146 0.48103 0.16068 0.0
O349 O 0.43971 0.57009 0.16224 0.0
O350 O 0.46406 0.5381 0.35647 0.0
C351 C 0.42394 0.43621 0.05816 0.0
Fe352 Fe 0.54576 0.86774 0.20661 0.0
Fe353 Fe 0.6046 0.96423 0.3495 0.0
O354 O 0.59698 0.91886 0.20652 0.0
Fe355 Fe 0.64235 0.92641 0.0635 0.0
O356 O 0.61147 0.91889 0.85992 0.0
O357 O 0.5454 0.86162 0.93427 0.0
O358 O 0.51362 0.89414 0.16152 0.0
C359 C 0.51316 0.92478 0.25284 0.0
C360 C 0.6027 0.83498 0.16051 0.0
O361 O 0.54572 0.95053 0.35583 0.0
C362 C 0.69045 0.96949 0.35531 0.0
O363 O 0.53965 0.86741 0.479 0.0
O364 O 0.59711 0.93333 0.55306 0.0
O365 O 0.62858 0.86755 0.05776 0.0
O366 O 0.57201 0.83547 0.25164 0.0
C367 C 0.64763 1.01223 0.05708 0.0
O368 O 0.66645 0.98748 0.37978 0.0
O369 O 0.67557 0.93373 0.26674 0.0
C370 C 0.56691 0.89522 0.6028 0.0
O371 O 0.61191 0.99743 0.1462 0.0
O372 O 0.66562 0.98822 1.03267 0.0
C373 C 0.57331 0.88878 0.81031 0.0
Fe374 Fe 0.1197 0.66516 0.34804 0.0
Fe375 Fe 0.21626 0.70312 0.20478 0.0
O376 O 0.16506 0.703 0.205 0.0
Fe377 Fe 0.15747 0.74075 0.06223 0.0
O378 O 0.15018 0.76665 0.26566 0.0
O379 O 0.09645 0.70369 0.379 0.0
O380 O 0.1506 0.68861 0.55152 0.0
C381 C 0.18873 0.69664 0.6011 0.0
C382 C 0.07159 0.66008 0.05631 0.0
O383 O 0.21661 0.69735 0.4771 0.0
C384 C 0.19512 0.70944 0.80871 0.0
O385 O 0.13348 0.62008 0.3538 0.0
O386 O 0.18997 0.64456 0.15951 0.0
O387 O 0.09562 0.7021 1.03193 0.0
O388 O 0.08646 0.63921 0.1448 0.0
C389 C 0.24891 0.79279 0.15892 0.0
O390 O 0.22238 0.70891 0.93241 0.0
O391 O 0.16493 0.71733 0.85859 0.0
C392 C 0.15939 0.61341 0.25118 0.0
O393 O 0.2484 0.76167 0.25015 0.0
O394 O 0.21636 0.78597 0.05595 0.0
C395 C 0.11446 0.74571 0.35477 0.0
loop_
_geom_bond_atom_site_label_1
_geom_bond_atom_site_label_2
_geom_bond_distance
_geom_bond_site_symmetry_2
_ccdc_geom_bond_type
Fe0 O2 1.918 . S
Fe0 O5 1.997 . S
Fe0 O6 2.002 . S
Fe0 O11 1.976 . S
Fe0 O14 1.996 . S
Fe1 O2 1.918 . S
Fe1 O9 1.997 . S
Fe1 O12 1.996 . S
Fe1 O16 1.976 . S
Fe1 O19 2.002 1_455 S
O2 Fe0 1.918 . S
O2 Fe1 1.918 . S
O2 Fe3 1.918 1_455 S
Fe3 O2 1.918 1_655 S
Fe3 O4 2.002 . S
Fe3 O13 1.976 1_655 S
Fe3 O17 1.996 . S
Fe3 O20 1.997 . S
O4 Fe3 2.002 . S
O4 C21 1.295 . S
O5 Fe0 1.997 . S
O5 C21 1.235 1_455 S
O6 Fe0 2.002 . S
O6 C7 1.295 . S
C7 O6 1.295 . S
C7 O9 1.235 . S
C8 O13 1.287 . S
C8 O14 1.255 . S
O9 Fe1 1.997 . S
O9 C7 1.235 . S
C10 O16 1.287 . S
C10 O17 1.255 1_455 S
O11 Fe0 1.976 . S
O11 C18 1.287 . S
O12 Fe1 1.996 . S
O12 C18 1.255 . S
O13 Fe3 1.976 1_455 S
O13 C8 1.287 . S
O14 Fe0 1.996 . S
O14 C8 1.255 . S
C15 O19 1.295 . S
C15 O20 1.235 . S
O16 Fe1 1.976 . S
O16 C10 1.287 . S
O17 Fe3 1.996 . S
O17 C10 1.255 1_655 S
C18 O11 1.287 . S
C18 O12 1.255 . S
O19 Fe1 2.002 1_655 S
O19 C15 1.295 . S
O20 Fe3 1.997 . S
O20 C15 1.235 . S
C21 O4 1.295 . S
C21 O5 1.235 1_655 S
Fe22 O24 1.918 . S
Fe22 O27 1.997 . S
Fe22 O28 2.002 . S
Fe22 O33 1.976 . S
Fe22 O36 1.996 . S
Fe23 O24 1.918 . S
Fe23 O31 1.997 . S
Fe23 O34 1.996 . S
Fe23 O38 1.976 . S
Fe23 O41 2.002 . S
O24 Fe22 1.918 . S
O24 Fe23 1.918 . S
O24 Fe25 1.918 . S
Fe25 O24 1.918 . S
Fe25 O26 2.002 . S
Fe25 O35 1.976 . S
Fe25 O39 1.996 . S
Fe25 O42 1.997 . S
O26 Fe25 2.002 . S
O26 C43 1.295 . S
O27 Fe22 1.997 . S
O27 C43 1.235 . S
O28 Fe22 2.002 . S
O28 C29 1.295 . S
C29 O28 1.295 . S
C29 O31 1.235 . S
C30 O35 1.287 . S
C30 O36 1.255 . S
O31 Fe23 1.997 . S
O31 C29 1.235 . S
C32 O38 1.287 . S
C32 O39 1.255 . S
O33 Fe22 1.976 . S
O33 C40 1.287 . S
O34 Fe23 1.996 . S
O34 C40 1.255 . S
O35 Fe25 1.976 . S
O35 C30 1.287 . S
O36 Fe22 1.996 . S
O36 C30 1.255 . S
C37 O41 1.295 . S
C37 O42 1.235 . S
O38 Fe23 1.976 . S
O38 C32 1.287 . S
O39 Fe25 1.996 . S
O39 C32 1.255 . S
C40 O33 1.287 . S
C40 O34 1.255 . S
O41 Fe23 2.002 . S
O41 C37 1.295 . S
O42 Fe25 1.997 . S
O42 C37 1.235 . S
C43 O26 1.295 . S
C43 O27 1.235 . S
Fe44 O46 1.918 . S
Fe44 O49 1.997 . S
Fe44 O50 2.002 1_545 S
Fe44 O55 1.976 . S
Fe44 O58 1.996 . S
Fe45 O46 1.918 1_565 S
Fe45 O53 1.997 . S
Fe45 O56 1.996 . S
Fe45 O60 1.976 1_565 S
Fe45 O63 2.002 . S
O46 Fe44 1.918 . S
O46 Fe45 1.918 1_545 S
O46 Fe47 1.918 . S
Fe47 O46 1.918 . S
Fe47 O48 2.002 . S
Fe47 O57 1.976 . S
Fe47 O61 1.996 . S
Fe47 O64 1.997 . S
O48 Fe47 2.002 . S
O48 C65 1.295 . S
O49 Fe44 1.997 . S
O49 C65 1.235 . S
O50 Fe44 2.002 1_565 S
O50 C51 1.295 . S
C51 O50 1.295 . S
C51 O53 1.235 . S
C52 O57 1.287 . S
C52 O58 1.255 . S
O53 Fe45 1.997 . S
O53 C51 1.235 . S
C54 O60 1.287 . S
C54 O61 1.255 . S
O55 Fe44 1.976 . S
O55 C62 1.287 . S
O56 Fe45 1.996 . S
O56 C62 1.255 1_565 S
O57 Fe47 1.976 . S
O57 C52 1.287 . S
O58 Fe44 1.996 . S
O58 C52 1.255 . S
C59 O63 1.295 . S
C59 O64 1.235 1_565 S
O60 Fe45 1.976 1_545 S
O60 C54 1.287 . S
O61 Fe47 1.996 . S
O61 C54 1.255 . S
C62 O55 1.287 . S
C62 O56 1.255 1_545 S
O63 Fe45 2.002 . S
O63 C59 1.295 . S
O64 Fe47 1.997 . S
O64 C59 1.235 1_545 S
C65 O48 1.295 . S
C65 O49 1.235 . S
Fe66 O68 1.918 1_655 S
Fe66 O71 1.997 1_655 S
Fe66 O72 2.002 . S
Fe66 O77 1.976 . S
Fe66 O80 1.996 . S
Fe67 O68 1.918 . S
Fe67 O75 1.997 . S
Fe67 O78 1.996 1_455 S
Fe67 O82 1.976 . S
Fe67 O85 2.002 . S
O68 Fe66 1.918 1_455 S
O68 Fe67 1.918 . S
O68 Fe69 1.918 . S
Fe69 O68 1.918 . S
Fe69 O70 2.002 . S
Fe69 O79 1.976 . S
Fe69 O83 1.996 . S
Fe69 O86 1.997 . S
O70 Fe69 2.002 . S
O70 C87 1.295 . S
O71 Fe66 1.997 1_455 S
O71 C87 1.235 . S
O72 Fe66 2.002 . S
O72 C73 1.295 1_655 S
C73 O72 1.295 1_455 S
C73 O75 1.235 . S
C74 O79 1.287 1_655 S
C74 O80 1.255 . S
O75 Fe67 1.997 . S
O75 C73 1.235 . S
C76 O82 1.287 . S
C76 O83 1.255 . S
O77 Fe66 1.976 . S
O77 C84 1.287 . S
O78 Fe67 1.996 1_655 S
O78 C84 1.255 . S
O79 Fe69 1.976 . S
O79 C74 1.287 1_455 S
O80 Fe66 1.996 . S
O80 C74 1.255 . S
C81 O85 1.295 . S
C81 O86 1.235 . S
O82 Fe67 1.976 . S
O82 C76 1.287 . S
O83 Fe69 1.996 . S
O83 C76 1.255 . S
C84 O77 1.287 . S
C84 O78 1.255 . S
O85 Fe67 2.002 . S
O85 C81 1.295 . S
O86 Fe69 1.997 . S
O86 C81 1.235 . S
C87 O70 1.295 . S
C87 O71 1.235 . S
Fe88 O90 1.918 . S
Fe88 O93 1.997 . S
Fe88 O94 2.002 . S
Fe88 O99 1.976 . S
Fe88 O102 1.996 . S
Fe89 O90 1.918 . S
Fe89 O97 1.997 . S
Fe89 O100 1.996 . S
Fe89 O104 1.976 . S
Fe89 O107 2.002 . S
O90 Fe88 1.918 . S
O90 Fe89 1.918 . S
O90 Fe91 1.918 . S
Fe91 O90 1.918 . S
Fe91 O92 2.002 . S
Fe91 O101 1.976 . S
Fe91 O105 1.996 . S
Fe91 O108 1.997 . S
O92 Fe91 2.002 . S
O92 C109 1.295 . S
O93 Fe88 1.997 . S
O93 C109 1.235 . S
O94 Fe88 2.002 . S
O94 C95 1.295 . S
C95 O94 1.295 . S
C95 O97 1.235 . S
C96 O101 1.287 . S
C96 O102 1.255 . S
O97 Fe89 1.997 . S
O97 C95 1.235 . S
C98 O104 1.287 . S
C98 O105 1.255 . S
O99 Fe88 1.976 . S
O99 C106 1.287 . S
O100 Fe89 1.996 . S
O100 C106 1.255 . S
O101 Fe91 1.976 . S
O101 C96 1.287 . S
O102 Fe88 1.996 . S
O102 C96 1.255 . S
C103 O107 1.295 . S
C103 O108 1.235 . S
O104 Fe89 1.976 . S
O104 C98 1.287 . S
O105 Fe91 1.996 . S
O105 C98 1.255 . S
C106 O99 1.287 . S
C106 O100 1.255 . S
O107 Fe89 2.002 . S
O107 C103 1.295 . S
O108 Fe91 1.997 . S
O108 C103 1.235 . S
C109 O92 1.295 . S
C109 O93 1.235 . S
Fe110 O112 1.918 1_565 S
Fe110 O115 1.997 1_565 S
Fe110 O116 2.002 . S
Fe110 O121 1.976 . S
Fe110 O124 1.996 . S
Fe111 O112 1.918 . S
Fe111 O119 1.997 . S
Fe111 O122 1.996 1_545 S
Fe111 O126 1.976 . S
Fe111 O129 2.002 . S
O112 Fe110 1.918 1_545 S
O112 Fe111 1.918 . S
O112 Fe113 1.918 . S
Fe113 O112 1.918 . S
Fe113 O114 2.002 . S
Fe113 O123 1.976 . S
Fe113 O127 1.996 . S
Fe113 O130 1.997 . S
O114 Fe113 2.002 . S
O114 C131 1.295 . S
O115 Fe110 1.997 1_545 S
O115 C131 1.235 . S
O116 Fe110 2.002 . S
O116 C117 1.295 1_565 S
C117 O116 1.295 1_545 S
C117 O119 1.235 . S
C118 O123 1.287 1_565 S
C118 O124 1.255 . S
O119 Fe111 1.997 . S
O119 C117 1.235 . S
C120 O126 1.287 . S
C120 O127 1.255 . S
O121 Fe110 1.976 . S
O121 C128 1.287 . S
O122 Fe111 1.996 1_565 S
O122 C128 1.255 . S
O123 Fe113 1.976 . S
O123 C118 1.287 1_545 S
O124 Fe110 1.996 . S
O124 C118 1.255 . S
C125 O129 1.295 . S
C125 O130 1.235 . S
O126 Fe111 1.976 . S
O126 C120 1.287 . S
O127 Fe113 1.996 . S
O127 C120 1.255 . S
C128 O121 1.287 . S
C128 O122 1.255 . S
O129 Fe111 2.002 . S
O129 C125 1.295 . S
O130 Fe113 1.997 . S
O130 C125 1.235 . S
C131 O114 1.295 . S
C131 O115 1.235 . S
Fe132 O134 1.918 . S
Fe132 O137 1.997 . S
Fe132 O138 2.002 . S
Fe132 O143 1.976 . S
Fe132 O146 1.996 . S
Fe133 O134 1.918 . S
Fe133 O141 1.997 1_556 S
Fe133 O144 1.996 . S
Fe133 O148 1.976 . S
Fe133 O151 2.002 1_556 S
O134 Fe132 1.918 . S
O134 Fe133 1.918 . S
O134 Fe135 1.918 . S
Fe135 O134 1.918 . S
Fe135 O136 2.002 . S
Fe135 O145 1.976 . S
Fe135 O149 1.996 . S
Fe135 O152 1.997 1_556 S
O136 Fe135 2.002 . S
O136 C153 1.295 . S
O137 Fe132 1.997 . S
O137 C153 1.235 . S
O138 Fe132 2.002 . S
O138 C139 1.295 . S
C139 O138 1.295 . S
C139 O141 1.235 1_556 S
C140 O145 1.287 . S
C140 O146 1.255 . S
O141 Fe133 1.997 1_554 S
O141 C139 1.235 1_554 S
C142 O148 1.287 . S
C142 O149 1.255 . S
O143 Fe132 1.976 . S
O143 C150 1.287 . S
O144 Fe133 1.996 . S
O144 C150 1.255 . S
O145 Fe135 1.976 . S
O145 C140 1.287 . S
O146 Fe132 1.996 . S
O146 C140 1.255 . S
C147 O151 1.295 . S
C147 O152 1.235 . S
O148 Fe133 1.976 . S
O148 C142 1.287 . S
O149 Fe135 1.996 . S
O149 C142 1.255 . S
C150 O143 1.287 . S
C150 O144 1.255 . S
O151 Fe133 2.002 1_554 S
O151 C147 1.295 . S
O152 Fe135 1.997 1_554 S
O152 C147 1.235 . S
C153 O136 1.295 . S
C153 O137 1.235 . S
Fe154 O156 1.918 . S
Fe154 O159 1.997 . S
Fe154 O160 2.002 . S
Fe154 O165 1.976 . S
Fe154 O168 1.996 . S
Fe155 O156 1.918 . S
Fe155 O163 1.997 1_556 S
Fe155 O166 1.996 . S
Fe155 O170 1.976 . S
Fe155 O173 2.002 1_556 S
O156 Fe154 1.918 . S
O156 Fe155 1.918 . S
O156 Fe157 1.918 . S
Fe157 O156 1.918 . S
Fe157 O158 2.002 . S
Fe157 O167 1.976 . S
Fe157 O171 1.996 . S
Fe157 O174 1.997 1_556 S
O158 Fe157 2.002 . S
O158 C175 1.295 . S
O159 Fe154 1.997 . S
O159 C175 1.235 . S
O160 Fe154 2.002 . S
O160 C161 1.295 . S
C161 O160 1.295 . S
C161 O163 1.235 1_556 S
C162 O167 1.287 . S
C162 O168 1.255 . S
O163 Fe155 1.997 1_554 S
O163 C161 1.235 1_554 S
C164 O170 1.287 . S
C164 O171 1.255 . S
O165 Fe154 1.976 . S
O165 C172 1.287 . S
O166 Fe155 1.996 . S
O166 C172 1.255 . S
O167 Fe157 1.976 . S
O167 C162 1.287 . S
O168 Fe154 1.996 . S
O168 C162 1.255 . S
C169 O173 1.295 . S
C169 O174 1.235 . S
O170 Fe155 1.976 . S
O170 C164 1.287 . S
O171 Fe157 1.996 . S
O171 C164 1.255 . S
C172 O165 1.287 . S
C172 O166 1.255 . S
O173 Fe155 2.002 1_554 S
O173 C169 1.295 . S
O174 Fe157 1.997 1_554 S
O174 C169 1.235 . S
C175 O158 1.295 . S
C175 O159 1.235 . S
Fe176 O178 1.918 . S
Fe176 O181 1.997 1_556 S
Fe176 O182 2.002 1_556 S
Fe176 O187 1.976 . S
Fe176 O190 1.996 . S
Fe177 O178 1.918 . S
Fe177 O185 1.997 1_556 S
Fe177 O188 1.996 . S
Fe177 O192 1.976 . S
Fe177 O195 2.002 . S
O178 Fe176 1.918 . S
O178 Fe177 1.918 . S
O178 Fe179 1.918 . S
Fe179 O178 1.918 . S
Fe179 O180 2.002 . S
Fe179 O189 1.976 . S
Fe179 O193 1.996 . S
Fe179 O196 1.997 . S
O180 Fe179 2.002 . S
O180 C197 1.295 . S
O181 Fe176 1.997 1_554 S
O181 C197 1.235 1_554 S
O182 Fe176 2.002 1_554 S
O182 C183 1.295 . S
C183 O182 1.295 . S
C183 O185 1.235 . S
C184 O189 1.287 . S
C184 O190 1.255 . S
O185 Fe177 1.997 1_554 S
O185 C183 1.235 . S
C186 O192 1.287 . S
C186 O193 1.255 . S
O187 Fe176 1.976 . S
O187 C194 1.287 . S
O188 Fe177 1.996 . S
O188 C194 1.255 . S
O189 Fe179 1.976 . S
O189 C184 1.287 . S
O190 Fe176 1.996 . S
O190 C184 1.255 . S
C191 O195 1.295 . S
C191 O196 1.235 . S
O192 Fe177 1.976 . S
O192 C186 1.287 . S
O193 Fe179 1.996 . S
O193 C186 1.255 . S
C194 O187 1.287 . S
C194 O188 1.255 . S
O195 Fe177 2.002 . S
O195 C191 1.295 . S
O196 Fe179 1.997 . S
O196 C191 1.235 . S
C197 O180 1.295 . S
C197 O181 1.235 1_556 S
Fe198 O200 1.918 . S
Fe198 O203 1.997 1_556 S
Fe198 O204 2.002 1_556 S
Fe198 O209 1.976 . S
Fe198 O212 1.996 . S
Fe199 O200 1.918 . S
Fe199 O207 1.997 1_556 S
Fe199 O210 1.996 . S
Fe199 O214 1.976 . S
Fe199 O217 2.002 . S
O200 Fe198 1.918 . S
O200 Fe199 1.918 . S
O200 Fe201 1.918 . S
Fe201 O200 1.918 . S
Fe201 O202 2.002 . S
Fe201 O211 1.976 . S
Fe201 O215 1.996 . S
Fe201 O218 1.997 . S
O202 Fe201 2.002 . S
O202 C219 1.295 . S
O203 Fe198 1.997 1_554 S
O203 C219 1.235 1_554 S
O204 Fe198 2.002 1_554 S
O204 C205 1.295 . S
C205 O204 1.295 . S
C205 O207 1.235 . S
C206 O211 1.287 . S
C206 O212 1.255 . S
O207 Fe199 1.997 1_554 S
O207 C205 1.235 . S
C208 O214 1.287 . S
C208 O215 1.255 . S
O209 Fe198 1.976 . S
O209 C216 1.287 . S
O210 Fe199 1.996 . S
O210 C216 1.255 . S
O211 Fe201 1.976 . S
O211 C206 1.287 . S
O212 Fe198 1.996 . S
O212 C206 1.255 . S
C213 O217 1.295 . S
C213 O218 1.235 . S
O214 Fe199 1.976 . S
O214 C208 1.287 . S
O215 Fe201 1.996 . S
O215 C208 1.255 . S
C216 O209 1.287 . S
C216 O210 1.255 . S
O217 Fe199 2.002 . S
O217 C213 1.295 . S
O218 Fe201 1.997 . S
O218 C213 1.235 . S
C219 O202 1.295 . S
C219 O203 1.235 1_556 S
Fe220 O222 1.918 . S
Fe220 O225 1.997 1_556 S
Fe220 O226 2.002 1_556 S
Fe220 O231 1.976 . S
Fe220 O234 1.996 . S
Fe221 O222 1.918 . S
Fe221 O229 1.997 1_556 S
Fe221 O232 1.996 . S
Fe221 O236 1.976 . S
Fe221 O239 2.002 . S
O222 Fe220 1.918 . S
O222 Fe221 1.918 . S
O222 Fe223 1.918 . S
Fe223 O222 1.918 . S
Fe223 O224 2.002 . S
Fe223 O233 1.976 . S
Fe223 O237 1.996 . S
Fe223 O240 1.997 . S
O224 Fe223 2.002 . S
O224 C241 1.295 . S
O225 Fe220 1.997 1_554 S
O225 C241 1.235 1_554 S
O226 Fe220 2.002 1_554 S
O226 C227 1.295 . S
C227 O226 1.295 . S
C227 O229 1.235 . S
C228 O233 1.287 . S
C228 O234 1.255 . S
O229 Fe221 1.997 1_554 S
O229 C227 1.235 . S
C230 O236 1.287 . S
C230 O237 1.255 . S
O231 Fe220 1.976 . S
O231 C238 1.287 . S
O232 Fe221 1.996 . S
O232 C238 1.255 . S
O233 Fe223 1.976 . S
O233 C228 1.287 . S
O234 Fe220 1.996 . S
O234 C228 1.255 . S
C235 O239 1.295 . S
C235 O240 1.235 . S
O236 Fe221 1.976 . S
O236 C230 1.287 . S
O237 Fe223 1.996 . S
O237 C230 1.255 . S
C238 O231 1.287 . S
C238 O232 1.255 . S
O239 Fe221 2.002 . S
O239 C235 1.295 . S
O240 Fe223 1.997 . S
O240 C235 1.235 . S
C241 O224 1.295 . S
C241 O225 1.235 1_556 S
Fe242 O244 1.918 . S
Fe242 O247 1.997 1_556 S
Fe242 O248 2.002 1_556 S
Fe242 O253 1.976 . S
Fe242 O256 1.996 . S
Fe243 O244 1.918 . S
Fe243 O251 1.997 1_556 S
Fe243 O254 1.996 . S
Fe243 O258 1.976 . S
Fe243 O261 2.002 . S
O244 Fe242 1.918 . S
O244 Fe243 1.918 . S
O244 Fe245 1.918 . S
Fe245 O244 1.918 . S
Fe245 O246 2.002 . S
Fe245 O255 1.976 . S
Fe245 O259 1.996 . S
Fe245 O262 1.997 . S
O246 Fe245 2.002 . S
O246 C263 1.295 . S
O247 Fe242 1.997 1_554 S
O247 C263 1.235 1_554 S
O248 Fe242 2.002 1_554 S
O248 C249 1.295 . S
C249 O248 1.295 . S
C249 O251 1.235 . S
C250 O255 1.287 . S
C250 O256 1.255 . S
O251 Fe243 1.997 1_554 S
O251 C249 1.235 . S
C252 O258 1.287 . S
C252 O259 1.255 . S
O253 Fe242 1.976 . S
O253 C260 1.287 . S
O254 Fe243 1.996 . S
O254 C260 1.255 . S
O255 Fe245 1.976 . S
O255 C250 1.287 . S
O256 Fe242 1.996 . S
O256 C250 1.255 . S
C257 O261 1.295 . S
C257 O262 1.235 . S
O258 Fe243 1.976 . S
O258 C252 1.287 . S
O259 Fe245 1.996 . S
O259 C252 1.255 . S
C260 O253 1.287 . S
C260 O254 1.255 . S
O261 Fe243 2.002 . S
O261 C257 1.295 . S
O262 Fe245 1.997 . S
O262 C257 1.235 . S
C263 O246 1.295 . S
C263 O247 1.235 1_556 S
Fe264 O266 1.918 . S
Fe264 O269 1.997 . S
Fe264 O270 2.002 . S
Fe264 O275 1.976 1_554 S
Fe264 O278 1.996 . S
Fe265 O266 1.918 1_556 S
Fe265 O273 1.997 1_556 S
Fe265 O276 1.996 . S
Fe265 O280 1.976 . S
Fe265 O283 2.002 1_556 S
O266 Fe264 1.918 . S
O266 Fe265 1.918 1_554 S
O266 Fe267 1.918 . S
Fe267 O266 1.918 . S
Fe267 O268 2.002 . S
Fe267 O277 1.976 . S
Fe267 O281 1.996 . S
Fe267 O284 1.997 . S
O268 Fe267 2.002 . S
O268 C285 1.295 . S
O269 Fe264 1.997 . S
O269 C285 1.235 . S
O270 Fe264 2.002 . S
O270 C271 1.295 . S
C271 O270 1.295 . S
C271 O273 1.235 . S
C272 O277 1.287 . S
C272 O278 1.255 . S
O273 Fe265 1.997 1_554 S
O273 C271 1.235 . S
C274 O280 1.288 . S
C274 O281 1.252 1_556 S
O275 Fe264 1.976 1_556 S
O275 C282 1.287 . S
O276 Fe265 1.996 . S
O276 C282 1.255 . S
O277 Fe267 1.976 . S
O277 C272 1.287 . S
O278 Fe264 1.996 . S
O278 C272 1.255 . S
C279 O283 1.295 . S
C279 O284 1.235 . S
O280 Fe265 1.976 . S
O280 C274 1.288 . S
O281 Fe267 1.996 . S
O281 C274 1.252 1_554 S
C282 O275 1.287 . S
C282 O276 1.255 . S
O283 Fe265 2.002 1_554 S
O283 C279 1.295 . S
O284 Fe267 1.997 . S
O284 C279 1.235 . S
C285 O268 1.295 . S
C285 O269 1.235 . S
Fe286 O288 1.918 1_556 S
Fe286 O291 1.997 1_556 S
Fe286 O292 2.002 1_556 S
Fe286 O297 1.976 . S
Fe286 O300 1.996 . S
Fe287 O288 1.918 . S
Fe287 O295 1.997 . S
Fe287 O298 1.996 . S
Fe287 O302 1.976 . S
Fe287 O305 2.002 . S
O288 Fe286 1.918 1_554 S
O288 Fe287 1.918 . S
O288 Fe289 1.918 . S
Fe289 O288 1.918 . S
Fe289 O290 2.002 . S
Fe289 O299 1.976 1_554 S
Fe289 O303 1.996 . S
Fe289 O306 1.997 . S
O290 Fe289 2.002 . S
O290 C307 1.295 . S
O291 Fe286 1.997 1_554 S
O291 C307 1.235 . S
O292 Fe286 2.002 1_554 S
O292 C293 1.295 . S
C293 O292 1.295 . S
C293 O295 1.235 . S
C294 O299 1.287 . S
C294 O300 1.255 . S
O295 Fe287 1.997 . S
O295 C293 1.235 . S
C296 O302 1.287 . S
C296 O303 1.255 . S
O297 Fe286 1.976 . S
O297 C304 1.287 . S
O298 Fe287 1.996 . S
O298 C304 1.255 1_554 S
O299 Fe289 1.976 1_556 S
O299 C294 1.287 . S
O300 Fe286 1.996 . S
O300 C294 1.255 . S
C301 O305 1.295 . S
C301 O306 1.235 . S
O302 Fe287 1.976 . S
O302 C296 1.287 . S
O303 Fe289 1.996 . S
O303 C296 1.255 . S
C304 O297 1.287 . S
C304 O298 1.255 1_556 S
O305 Fe287 2.002 . S
O305 C301 1.295 . S
O306 Fe289 1.997 . S
O306 C301 1.235 . S
C307 O290 1.295 . S
C307 O291 1.235 . S
Fe308 O310 1.918 . S
Fe308 O313 1.997 1_554 S
Fe308 O314 2.002 1_554 S
Fe308 O319 1.976 . S
Fe308 O322 1.996 . S
Fe309 O310 1.918 . S
Fe309 O317 1.997 1_554 S
Fe309 O320 1.996 . S
Fe309 O324 1.976 . S
Fe309 O327 2.002 . S
O310 Fe308 1.918 . S
O310 Fe309 1.918 . S
O310 Fe311 1.918 . S
Fe311 O310 1.918 . S
Fe311 O312 2.002 . S
Fe311 O321 1.976 . S
Fe311 O325 1.996 . S
Fe311 O328 1.997 . S
O312 Fe311 2.002 . S
O312 C329 1.295 . S
O313 Fe308 1.997 1_556 S
O313 C329 1.235 1_556 S
O314 Fe308 2.002 1_556 S
O314 C315 1.295 . S
C315 O314 1.295 . S
C315 O317 1.235 . S
C316 O321 1.287 . S
C316 O322 1.255 . S
O317 Fe309 1.997 1_556 S
O317 C315 1.235 . S
C318 O324 1.287 . S
C318 O325 1.255 . S
O319 Fe308 1.976 . S
O319 C326 1.287 . S
O320 Fe309 1.996 . S
O320 C326 1.255 . S
O321 Fe311 1.976 . S
O321 C316 1.287 . S
O322 Fe308 1.996 . S
O322 C316 1.255 . S
C323 O327 1.295 . S
C323 O328 1.235 . S
O324 Fe309 1.976 . S
O324 C318 1.287 . S
O325 Fe311 1.996 . S
O325 C318 1.255 . S
C326 O319 1.287 . S
C326 O320 1.255 . S
O327 Fe309 2.002 . S
O327 C323 1.295 . S
O328 Fe311 1.997 . S
O328 C323 1.235 . S
C329 O312 1.295 . S
C329 O313 1.235 1_554 S
Fe330 O332 1.918 . S
Fe330 O335 1.997 1_554 S
Fe330 O336 2.002 1_554 S
Fe330 O341 1.976 . S
Fe330 O344 1.996 . S
Fe331 O332 1.918 . S
Fe331 O339 1.997 1_554 S
Fe331 O342 1.996 . S
Fe331 O346 1.976 . S
Fe331 O349 2.002 . S
O332 Fe330 1.918 . S
O332 Fe331 1.918 . S
O332 Fe333 1.918 . S
Fe333 O332 1.918 . S
Fe333 O334 2.002 . S
Fe333 O343 1.976 . S
Fe333 O347 1.996 . S
Fe333 O350 1.997 . S
O334 Fe333 2.002 . S
O334 C351 1.295 . S
O335 Fe330 1.997 1_556 S
O335 C351 1.235 1_556 S
O336 Fe330 2.002 1_556 S
O336 C337 1.295 . S
C337 O336 1.295 . S
C337 O339 1.235 . S
C338 O343 1.287 . S
C338 O344 1.255 . S
O339 Fe331 1.997 1_556 S
O339 C337 1.235 . S
C340 O346 1.287 . S
C340 O347 1.255 . S
O341 Fe330 1.976 . S
O341 C348 1.287 . S
O342 Fe331 1.996 . S
O342 C348 1.255 . S
O343 Fe333 1.976 . S
O343 C338 1.287 . S
O344 Fe330 1.996 . S
O344 C338 1.255 . S
C345 O349 1.295 . S
C345 O350 1.235 . S
O346 Fe331 1.976 . S
O346 C340 1.287 . S
O347 Fe333 1.996 . S
O347 C340 1.255 . S
C348 O341 1.287 . S
C348 O342 1.255 . S
O349 Fe331 2.002 . S
O349 C345 1.295 . S
O350 Fe333 1.997 . S
O350 C345 1.235 . S
C351 O334 1.295 . S
C351 O335 1.235 1_554 S
Fe352 O354 1.918 . S
Fe352 O357 1.997 1_554 S
Fe352 O358 2.002 . S
Fe352 O363 1.976 . S
Fe352 O366 1.996 . S
Fe353 O354 1.918 . S
Fe353 O361 1.997 . S
Fe353 O364 1.996 . S
Fe353 O368 1.976 . S
Fe353 O371 2.002 . S
O354 Fe352 1.918 . S
O354 Fe353 1.918 . S
O354 Fe355 1.918 . S
Fe355 O354 1.918 . S
Fe355 O356 2.002 1_554 S
Fe355 O365 1.976 . S
Fe355 O369 1.996 . S
Fe355 O372 1.997 1_554 S
O356 Fe355 2.002 1_556 S
O356 C373 1.295 . S
O357 Fe352 1.997 1_556 S
O357 C373 1.235 . S
O358 Fe352 2.002 . S
O358 C359 1.295 . S
C359 O358 1.295 . S
C359 O361 1.235 . S
C360 O365 1.287 . S
C360 O366 1.255 . S
O361 Fe353 1.997 . S
O361 C359 1.235 . S
C362 O368 1.287 . S
C362 O369 1.255 . S
O363 Fe352 1.976 . S
O363 C370 1.287 . S
O364 Fe353 1.996 . S
O364 C370 1.255 . S
O365 Fe355 1.976 . S
O365 C360 1.287 . S
O366 Fe352 1.996 . S
O366 C360 1.255 . S
C367 O371 1.295 . S
C367 O372 1.235 1_554 S
O368 Fe353 1.976 . S
O368 C362 1.287 . S
O369 Fe355 1.996 . S
O369 C362 1.255 . S
C370 O363 1.287 . S
C370 O364 1.255 . S
O371 Fe353 2.002 . S
O371 C367 1.295 . S
O372 Fe355 1.997 1_556 S
O372 C367 1.235 1_556 S
C373 O356 1.295 . S
C373 O357 1.235 . S
Fe374 O376 1.918 . S
Fe374 O379 1.997 . S
Fe374 O380 2.002 . S
Fe374 O385 1.976 . S
Fe374 O388 1.996 . S
Fe375 O376 1.918 . S
Fe375 O383 1.997 . S
Fe375 O386 1.996 . S
Fe375 O390 1.976 1_554 S
Fe375 O393 2.002 . S
O376 Fe374 1.918 . S
O376 Fe375 1.918 . S
O376 Fe377 1.918 1_554 S
Fe377 O376 1.918 1_556 S
Fe377 O378 2.002 1_556 S
Fe377 O387 1.976 . S
Fe377 O391 1.996 . S
Fe377 O394 1.997 1_556 S
O378 Fe377 2.002 1_554 S
O378 C395 1.295 . S
O379 Fe374 1.997 . S
O379 C395 1.235 . S
O380 Fe374 2.002 . S
O380 C381 1.295 . S
C381 O380 1.295 . S
C381 O383 1.235 . S
C382 O387 1.287 1_554 S
C382 O388 1.255 . S
O383 Fe375 1.997 . S
O383 C381 1.235 . S
C384 O390 1.287 . S
C384 O391 1.255 . S
O385 Fe374 1.976 . S
O385 C392 1.287 . S
O386 Fe375 1.996 . S
O386 C392 1.255 . S
O387 Fe377 1.976 . S
O387 C382 1.287 1_556 S
O388 Fe374 1.996 . S
O388 C382 1.255 . S
C389 O393 1.295 . S
C389 O394 1.235 . S
O390 Fe375 1.976 1_556 S
O390 C384 1.287 . S
O391 Fe377 1.996 . S
O391 C384 1.255 . S
C392 O385 1.287 . S
C392 O386 1.255 . S
O393 Fe375 2.002 . S
O393 C389 1.295 . S
O394 Fe377 1.997 1_554 S
O394 C389 1.235 . S
C395 O378 1.295 . S
C395 O379 1.235 . S
C293 C8 1.282 . S
C32 C316 1.282 . S
C59 C279 1.284 . S
C54 C172 1.267 . S
C184 C21 1.274 . S
C37 C150 1.295 . S
C74 C228 1.248 . S
C98 C250 1.269 . S
C206 C131 1.277 . S
C362 C118 1.281 . S
C87 C395 1.284 . S
C338 C103 1.282 . S
C197 C304 1.290 1_655 S
C139 C329 1.299 1_556 S
C161 C274 1.270 1_545 S
C219 C367 1.317 1_546 S
C382 C241 1.290 1_454 S
C351 C263 1.298 1_554 S
C18 C95 1.547 . S
C128 C30 1.565 . S
C81 C51 1.524 . S
C96 C52 1.561 . S
C125 C15 1.583 . S
C84 C29 1.573 . S
C238 C142 1.560 . S
C260 C164 1.581 . S
C216 C194 1.538 . S
C235 C191 1.577 . S
C257 C153 1.535 . S
C213 C175 1.557 . S
C359 C272 1.545 . S
C392 C296 1.532 . S
C323 C345 1.555 . S
C326 C360 1.590 . S
C271 C389 1.551 . S
C348 C307 1.573 . S
C10 C7 1.774 1_554 S
C40 C43 1.784 1_554 S
C65 C62 1.779 1_554 S
C76 C73 1.774 1_556 S
C109 C106 1.784 1_554 S
C120 C117 1.779 1_554 S
C147 C140 1.774 . S
C162 C169 1.783 . S
C183 C186 1.778 . S
C205 C208 1.773 . S
C227 C230 1.783 . S
C249 C252 1.778 . S
C285 C282 1.772 . S
C294 C301 1.782 . S
C315 C318 1.777 . S
C337 C340 1.772 . S
C373 C370 1.782 . S
C381 C384 1.777 . S
