# Generated by pormake.
# Topology sth, (5)-cn, num edge types: 1
# Building blocks:
#     Node 0, Type 0, BuildingBlock: XOMCOT_clean_sbu_1, # of connection points: 5
#     Node 1, Type 0, BuildingBlock: XOMCOT_clean_sbu_1, # of connection points: 5
#     Node 2, Type 0, BuildingBlock: XOMCOT_clean_sbu_1, # of connection points: 5
#     Node 3, Type 0, BuildingBlock: XOMCOT_clean_sbu_1, # of connection points: 5
#     Node 4, Type 0, BuildingBlock: XOMCOT_clean_sbu_1, # of connection points: 5
#     Node 5, Type 0, BuildingBlock: XOMCOT_clean_sbu_1, # of connection points: 5
#     Node 6, Type 0, BuildingBlock: XOMCOT_clean_sbu_1, # of connection points: 5
#     Node 7, Type 0, BuildingBlock: XOMCOT_clean_sbu_1, # of connection points: 5
#     Node 8, Type 0, BuildingBlock: XOMCOT_clean_sbu_1, # of connection points: 5
#     Node 9, Type 0, BuildingBlock: XOMCOT_clean_sbu_1, # of connection points: 5
#     Node 10, Type 0, BuildingBlock: XOMCOT_clean_sbu_1, # of connection points: 5
#     Node 11, Type 0, BuildingBlock: XOMCOT_clean_sbu_1, # of connection points: 5
#     Node 12, Type 0, BuildingBlock: XOMCOT_clean_sbu_1, # of connection points: 5
#     Node 13, Type 0, BuildingBlock: XOMCOT_clean_sbu_1, # of connection points: 5
#     Node 14, Type 0, BuildingBlock: XOMCOT_clean_sbu_1, # of connection points: 5
#     Node 15, Type 0, BuildingBlock: XOMCOT_clean_sbu_1, # of connection points: 5
#     Node 16, Type 0, BuildingBlock: XOMCOT_clean_sbu_1, # of connection points: 5
#     Node 17, Type 0, BuildingBlock: XOMCOT_clean_sbu_1, # of connection points: 5
#     Edge 18, Type (0, 0), None
#     Edge 19, Type (0, 0), None
#     Edge 20, Type (0, 0), None
#     Edge 21, Type (0, 0), None
#     Edge 22, Type (0, 0), None
#     Edge 23, Type (0, 0), None
#     Edge 24, Type (0, 0), None
#     Edge 25, Type (0, 0), None
#     Edge 26, Type (0, 0), None
#     Edge 27, Type (0, 0), None
#     Edge 28, Type (0, 0), None
#     Edge 29, Type (0, 0), None
#     Edge 30, Type (0, 0), None
#     Edge 31, Type (0, 0), None
#     Edge 32, Type (0, 0), None
#     Edge 33, Type (0, 0), None
#     Edge 34, Type (0, 0), None
#     Edge 35, Type (0, 0), None
#     Edge 36, Type (0, 0), None
#     Edge 37, Type (0, 0), None
#     Edge 38, Type (0, 0), None
#     Edge 39, Type (0, 0), None
#     Edge 40, Type (0, 0), None
#     Edge 41, Type (0, 0), None
#     Edge 42, Type (0, 0), None
#     Edge 43, Type (0, 0), None
#     Edge 44, Type (0, 0), None
#     Edge 45, Type (0, 0), None
#     Edge 46, Type (0, 0), None
#     Edge 47, Type (0, 0), None
#     Edge 48, Type (0, 0), None
#     Edge 49, Type (0, 0), None
#     Edge 50, Type (0, 0), None
#     Edge 51, Type (0, 0), None
#     Edge 52, Type (0, 0), None
#     Edge 53, Type (0, 0), None
#     Edge 54, Type (0, 0), None
#     Edge 55, Type (0, 0), None
#     Edge 56, Type (0, 0), None
#     Edge 57, Type (0, 0), None
#     Edge 58, Type (0, 0), None
#     Edge 59, Type (0, 0), None
#     Edge 60, Type (0, 0), None
#     Edge 61, Type (0, 0), None
#     Edge 62, Type (0, 0), None
# Relax obj value: 0.185
# Max RMSD: 0.181
# Mean RMSD: 0.181
data_MOF--net-sth--node1-XOMCOT_clean_sbu_1--edge1-none
_symmetry_space_group_name_H-M    P1
_symmetry_Int_Tables_number       1
_symmetry_cell_setting            triclinic
loop_
_symmetry_equiv_pos_as_xyz
'x, y, z'
_cell_length_a     20.801007
_cell_length_b     20.80306
_cell_length_c     41.038556
_cell_angle_alpha  90.000937
_cell_angle_beta   89.999025
_cell_angle_gamma 120.00222
loop_
_atom_site_label
_atom_site_type_symbol
_atom_site_fract_x
_atom_site_fract_y
_atom_site_fract_z
_atom_type_partial_charge
C0 C 0.27991 0.38589 0.22062 0.0
C1 C 0.34881 0.42418 0.20674 0.0
N2 N 0.34111 0.40594 0.17524 0.0
N3 N 0.22827 0.34239 0.19806 0.0
C4 C 0.26816 0.35717 0.17024 0.0
H5 H 0.27096 0.38672 0.24643 0.0
Co6 Co 0.12575 0.26959 0.20402 0.0
C7 C 0.07637 0.38669 0.18095 0.0
O8 O 0.05574 0.41833 0.20308 0.0
N9 N 1.02469 0.19874 0.21079 0.0
C10 C 0.91306 0.15464 0.23326 0.0
C11 C 0.97738 0.21734 0.22479 0.0
C12 C 0.98629 0.12332 0.21017 0.0
N13 N 0.91833 0.0954 0.22413 0.0
O14 O 0.15387 0.1936 0.21358 0.0
H15 H 0.9904 0.27324 0.23057 0.0
H16 H 1.00911 0.08974 0.20146 0.0
O17 O 0.09603 0.34013 0.18971 0.0
C18 C 0.20902 0.19594 0.22838 0.0
O19 O 0.253 0.25412 0.24602 0.0
N20 N 0.1299 0.29879 0.24838 0.0
C21 C 0.13928 0.34357 0.31317 0.0
C22 C 0.14817 0.392 0.28773 0.0
C23 C 0.14355 0.36875 0.25566 0.0
C24 C 0.11511 0.24896 0.27292 0.0
C25 C 0.12108 0.2706 0.30543 0.0
H26 H 0.15685 0.40957 0.23687 0.0
H27 H 0.09935 0.19215 0.26754 0.0
H28 H 0.24467 0.33099 0.1471 0.0
H29 H 0.40047 0.46187 0.21879 0.0
H30 H 0.866 0.15284 0.24546 0.0
H31 H 0.16043 0.44825 0.29237 0.0
H32 H 0.11338 0.23076 0.32417 0.0
C33 C 0.67393 0.9045 0.22061 0.0
C34 C 0.63564 0.93511 0.20673 0.0
N35 N 0.65391 0.94565 0.17523 0.0
N36 N 0.71743 0.89636 0.19805 0.0
C37 C 0.70267 0.92148 0.17023 0.0
H38 H 0.67309 0.89471 0.24642 0.0
Co39 Co 0.79022 0.86664 0.20401 0.0
C40 C 0.67302 0.70018 0.18093 0.0
O41 O 0.64104 0.64794 0.20305 0.0
N42 N 0.86107 0.83641 0.21077 0.0
C43 C 0.90516 0.7689 0.23324 0.0
C44 C 0.84245 0.7705 0.22476 0.0
C45 C 0.9365 0.87346 0.21017 0.0
N46 N 0.96442 0.83342 0.22413 0.0
O47 O 0.86625 0.97074 0.21355 0.0
H48 H 0.78655 0.72761 0.23053 0.0
H49 H 0.97009 0.92986 0.20147 0.0
O50 O 0.71962 0.76637 0.18972 0.0
C51 C 0.86391 1.02354 0.22836 0.0
O52 O 0.80573 1.00933 0.24601 0.0
N53 N 0.76106 0.84162 0.24837 0.0
C54 C 0.71631 0.80624 0.31317 0.0
C55 C 0.66785 0.7667 0.28773 0.0
C56 C 0.69108 0.78531 0.25566 0.0
C57 C 0.81091 0.87665 0.2729 0.0
C58 C 0.78928 0.861 0.30542 0.0
H59 H 0.65023 0.7578 0.23688 0.0
H60 H 0.86772 0.91769 0.26752 0.0
H61 H 0.72886 0.92417 0.14709 0.0
H62 H 0.59795 0.94908 0.21878 0.0
H63 H 0.90695 0.72364 0.24545 0.0
H64 H 0.61159 0.72272 0.29238 0.0
H65 H 0.82915 0.89314 0.32415 0.0
C66 C 0.15534 0.77998 0.22064 0.0
C67 C 0.12476 0.71109 0.20675 0.0
N68 N 0.11425 0.71879 0.17525 0.0
N69 N 0.1635 0.83161 0.19807 0.0
C70 C 0.13843 0.79173 0.17025 0.0
H71 H 0.16511 0.78893 0.24645 0.0
Co72 Co 0.19322 0.93412 0.20403 0.0
C73 C 0.35972 0.98344 0.18094 0.0
O74 O 0.41197 1.00385 0.20307 0.0
N75 N 0.22345 0.03518 0.21079 0.0
C76 C 0.29099 0.1468 0.23325 0.0
C77 C 0.28938 0.08249 0.22478 0.0
C78 C 0.18641 0.07357 0.21018 0.0
N79 N 0.22647 0.14153 0.22413 0.0
O80 O 0.0891 0.90602 0.21358 0.0
H81 H 0.33226 0.06947 0.23055 0.0
H82 H 0.13 0.05075 0.20148 0.0
O83 O 0.2935 0.96381 0.18972 0.0
C84 C 1.03628 0.85088 0.22838 0.0
O85 O 0.05048 0.80691 0.24603 0.0
N86 N 0.21826 0.92998 0.24839 0.0
C87 C 0.25368 0.92062 0.31318 0.0
C88 C 0.29322 0.91172 0.28774 0.0
C89 C 0.27458 0.91633 0.25567 0.0
C90 C 0.18323 0.94478 0.27293 0.0
C91 C 0.1989 0.93882 0.30544 0.0
H92 H 0.30209 0.90301 0.23688 0.0
H93 H 0.14218 0.96054 0.26755 0.0
H94 H 0.13576 0.81522 0.1471 0.0
H95 H 0.11079 0.65943 0.21881 0.0
H96 H 0.33626 0.19385 0.24546 0.0
H97 H 0.33721 0.89946 0.29238 0.0
H98 H 0.16677 0.94654 0.32418 0.0
C99 C 0.39895 0.26699 0.77328 0.0
C100 C 0.43723 0.33588 0.78717 0.0
N101 N 0.41897 0.32817 0.81867 0.0
N102 N 0.35544 0.21535 0.79584 0.0
C103 C 0.37021 0.25523 0.82366 0.0
H104 H 0.39979 0.25805 0.74747 0.0
Co105 Co 0.28265 0.11284 0.78988 0.0
C106 C 0.39986 0.06358 0.81297 0.0
O107 O 0.43189 0.04334 0.79086 0.0
N108 N 0.2118 1.01177 0.78312 0.0
C109 C 0.1677 0.90016 0.76064 0.0
C110 C 0.23041 0.96446 0.76912 0.0
C111 C 0.13637 0.97339 0.78372 0.0
N112 N 0.10845 0.90544 0.76976 0.0
O113 O 0.20662 0.14092 0.78035 0.0
H114 H 0.28632 0.97748 0.76335 0.0
H115 H 0.10278 0.9962 0.79242 0.0
O116 O 0.35327 0.08317 0.80415 0.0
C117 C 0.20895 0.19606 0.76555 0.0
O118 O 0.26714 0.24003 0.7479 0.0
N119 N 0.31181 0.117 0.74551 0.0
C120 C 0.35654 0.12635 0.68072 0.0
C121 C 0.405 0.13526 0.70615 0.0
C122 C 0.38178 0.13065 0.73822 0.0
C123 C 0.26195 0.10218 0.72098 0.0
C124 C 0.28357 0.10815 0.68847 0.0
H125 H 0.42263 0.14398 0.757 0.0
H126 H 0.20514 0.08641 0.72637 0.0
H127 H 0.34401 0.23173 0.8468 0.0
H128 H 0.47492 0.38754 0.77512 0.0
H129 H 0.16591 0.85312 0.74843 0.0
H130 H 0.46126 0.14752 0.7015 0.0
H131 H 0.2437 0.10043 0.66974 0.0
C132 C 0.79294 0.14238 0.77327 0.0
C133 C 0.72404 0.11179 0.78716 0.0
N134 N 0.73174 0.10125 0.81866 0.0
N135 N 0.84457 0.15052 0.79583 0.0
C136 C 0.80468 0.12542 0.82366 0.0
H137 H 0.80189 0.15217 0.74746 0.0
Co138 Co 0.9471 0.18025 0.78988 0.0
C139 C 0.99646 0.34673 0.81295 0.0
O140 O 1.01708 0.39896 0.7908 0.0
N141 N 0.04817 0.21047 0.78311 0.0
C142 C 0.1598 0.27801 0.76065 0.0
C143 C 0.09548 0.27639 0.76912 0.0
C144 C 0.08657 0.17345 0.78373 0.0
N145 N 0.15453 0.2135 0.76978 0.0
O146 O 0.91899 0.07616 0.7803 0.0
H147 H 0.08245 0.31926 0.76334 0.0
H148 H 0.06375 0.11705 0.79244 0.0
O149 O 0.97681 0.28049 0.80421 0.0
C150 C 0.86385 1.02335 0.7655 0.0
O151 O 0.81986 0.03754 0.74786 0.0
N152 N 0.94296 0.20532 0.74552 0.0
C153 C 0.93358 0.24074 0.68073 0.0
C154 C 0.92467 0.28027 0.70618 0.0
C155 C 0.9293 0.26164 0.73824 0.0
C156 C 0.95776 0.1703 0.72098 0.0
C157 C 0.95179 0.18597 0.68847 0.0
H158 H 0.91598 0.28914 0.75704 0.0
H159 H 0.97353 0.12926 0.72635 0.0
H160 H 0.82817 0.12274 0.8468 0.0
H161 H 0.67238 0.09782 0.7751 0.0
H162 H 0.20686 0.32327 0.74845 0.0
H163 H 0.9124 0.32424 0.70154 0.0
H164 H 0.9595 0.15384 0.66973 0.0
C165 C 0.91753 0.66109 0.77326 0.0
C166 C 0.94811 0.62278 0.78714 0.0
N167 N 0.95862 0.64099 0.81865 0.0
N168 N 0.90938 0.70456 0.79582 0.0
C169 C 0.93445 0.68975 0.82365 0.0
H170 H 0.90776 0.66027 0.74745 0.0
Co171 Co 0.87965 0.77734 0.78987 0.0
C172 C 0.71316 0.66019 0.81296 0.0
O173 O 0.66091 0.6284 0.79082 0.0
N174 N 0.84942 0.84817 0.78311 0.0
C175 C 0.78187 0.89224 0.76064 0.0
C176 C 0.78349 0.82955 0.76912 0.0
C177 C 0.88645 0.9236 0.78371 0.0
N178 N 0.8464 0.95149 0.76975 0.0
O179 O 0.98377 0.85336 0.78031 0.0
H180 H 0.7406 0.77365 0.76335 0.0
H181 H 0.94286 0.95719 0.79241 0.0
O182 O 0.77938 0.70677 0.80419 0.0
C183 C 1.03659 0.85103 0.76551 0.0
O184 O 1.02238 0.79286 0.74786 0.0
N185 N 0.85459 0.74815 0.74551 0.0
C186 C 0.81917 0.70336 0.68072 0.0
C187 C 0.77963 0.65492 0.70617 0.0
C188 C 0.79827 0.67817 0.73823 0.0
C189 C 0.88962 0.79797 0.72097 0.0
C190 C 0.87394 0.77633 0.68846 0.0
H191 H 0.77077 0.63735 0.75702 0.0
H192 H 0.93067 0.85479 0.72635 0.0
H193 H 0.93711 0.71591 0.84679 0.0
H194 H 0.96209 0.5851 0.77509 0.0
H195 H 0.7366 0.89402 0.74843 0.0
H196 H 0.73565 0.59867 0.70153 0.0
H197 H 0.90607 0.81618 0.66972 0.0
C198 C 0.94658 0.71921 0.55396 0.0
C199 C 1.01548 0.75751 0.54007 0.0
N200 N 1.00777 0.73926 0.50857 0.0
N201 N 0.89494 0.67571 0.5314 0.0
C202 C 0.93483 0.6905 0.50357 0.0
H203 H 0.93763 0.72004 0.57976 0.0
Co204 Co 0.79242 0.60291 0.53736 0.0
C205 C 0.74304 0.72002 0.51428 0.0
O206 O 0.72241 0.75164 0.53642 0.0
N207 N 0.69136 0.53207 0.54412 0.0
C208 C 0.57973 0.48797 0.56659 0.0
C209 C 0.64405 0.55068 0.55812 0.0
C210 C 0.65296 0.45665 0.54351 0.0
N211 N 0.585 0.42873 0.55746 0.0
O212 O 0.82053 0.52692 0.54692 0.0
H213 H 0.65706 0.60657 0.5639 0.0
H214 H 0.67578 0.42306 0.5348 0.0
O215 O 0.7627 0.67345 0.52303 0.0
C216 C 0.87568 0.52926 0.56172 0.0
O217 O 0.91967 0.58744 0.57936 0.0
N218 N 0.79657 0.63212 0.58171 0.0
C219 C 0.80595 0.67692 0.6465 0.0
C220 C 0.81484 0.72535 0.62106 0.0
C221 C 0.81022 0.70209 0.58899 0.0
C222 C 0.78178 0.58231 0.60625 0.0
C223 C 0.78775 0.60395 0.63876 0.0
H224 H 0.82352 0.74291 0.5702 0.0
H225 H 0.76601 0.52549 0.60088 0.0
H226 H 0.91134 0.66432 0.48043 0.0
H227 H 0.06714 0.7952 0.55212 0.0
H228 H 0.53267 0.48618 0.5788 0.0
H229 H 0.82711 0.7816 0.6257 0.0
H230 H 0.78004 0.56411 0.6575 0.0
C231 C 0.3406 0.23784 0.55395 0.0
C232 C 0.30232 0.26845 0.54006 0.0
N233 N 0.32058 0.27899 0.50856 0.0
N234 N 0.38411 0.22971 0.53139 0.0
C235 C 0.36934 0.25482 0.50356 0.0
H236 H 0.33976 0.22805 0.57975 0.0
Co237 Co 0.45689 0.19998 0.53734 0.0
C238 C 0.33969 0.03352 0.51426 0.0
O239 O 0.30772 0.98129 0.53639 0.0
N240 N 0.52773 0.16975 0.5441 0.0
C241 C 0.57182 0.10223 0.56658 0.0
C242 C 0.50912 0.10383 0.55809 0.0
C243 C 0.60317 0.20679 0.5435 0.0
N244 N 0.63108 0.16676 0.55746 0.0
O245 O 0.53292 0.30407 0.54689 0.0
H246 H 0.45321 0.06094 0.56386 0.0
H247 H 0.63676 0.2632 0.53481 0.0
O248 O 0.38629 0.09971 0.52304 0.0
C249 C 0.53058 0.35688 0.5617 0.0
O250 O 0.4724 0.34266 0.57935 0.0
N251 N 0.42772 0.17495 0.5817 0.0
C252 C 0.38296 0.13956 0.6465 0.0
C253 C 0.3345 0.10002 0.62106 0.0
C254 C 0.35773 0.11864 0.58899 0.0
C255 C 0.47756 0.20997 0.60624 0.0
C256 C 0.45594 0.19432 0.63875 0.0
H257 H 0.31689 0.09114 0.5702 0.0
H258 H 0.53438 0.25101 0.60085 0.0
H259 H 0.39553 0.25751 0.48043 0.0
H260 H 0.26463 0.28242 0.55211 0.0
H261 H 0.57361 0.05697 0.57878 0.0
H262 H 0.27824 0.05605 0.6257 0.0
H263 H 0.4958 0.22645 0.65748 0.0
C264 C 0.822 0.11331 0.55397 0.0
C265 C 0.79142 0.04442 0.54009 0.0
N266 N 0.78091 0.05213 0.50858 0.0
N267 N 0.83015 0.16494 0.53141 0.0
C268 C 0.80508 0.12506 0.50358 0.0
H269 H 0.83176 0.12226 0.57978 0.0
Co270 Co 0.85988 0.26745 0.53736 0.0
C271 C 1.02637 0.31677 0.51427 0.0
O272 O 0.07861 0.33718 0.5364 0.0
N273 N 0.89011 0.36851 0.54412 0.0
C274 C 0.95766 0.48013 0.56659 0.0
C275 C 0.95604 0.41582 0.55811 0.0
C276 C 0.85307 0.4069 0.54352 0.0
N277 N 0.89313 0.47485 0.55747 0.0
O278 O 0.75576 0.23935 0.54692 0.0
H279 H 0.99893 0.4028 0.56388 0.0
H280 H 0.79666 0.38408 0.53482 0.0
O281 O 0.96015 0.29714 0.52304 0.0
C282 C 0.70294 0.18421 0.56172 0.0
O283 O 0.71714 0.14024 0.57937 0.0
N284 N 0.88493 0.26331 0.58172 0.0
C285 C 0.92035 0.25395 0.64651 0.0
C286 C 0.95989 0.24505 0.62107 0.0
C287 C 0.94125 0.24965 0.589 0.0
C288 C 0.8499 0.27811 0.60626 0.0
C289 C 0.86558 0.27215 0.63877 0.0
H290 H 0.96875 0.23633 0.57021 0.0
H291 H 0.80886 0.29388 0.60088 0.0
H292 H 0.80242 0.14855 0.48044 0.0
H293 H 0.77744 0.99276 0.55214 0.0
H294 H 1.00293 0.52718 0.57879 0.0
H295 H 1.00388 0.23278 0.62571 0.0
H296 H 0.83345 0.27988 0.65751 0.0
C297 C 0.06562 0.60033 0.10662 0.0
C298 C 0.10391 0.66921 0.12051 0.0
N299 N 0.08565 0.66149 0.15201 0.0
N300 N 1.02212 0.54868 0.12918 0.0
C301 C 1.03688 0.58855 0.157 0.0
H302 H 0.06646 0.59139 0.08081 0.0
Co303 Co 0.94932 0.44617 0.12322 0.0
C304 C 0.06652 0.3969 0.1463 0.0
O305 O 0.09854 0.37665 0.12419 0.0
N306 N 0.87847 0.3451 0.11645 0.0
C307 C 0.83437 0.2335 0.09397 0.0
C308 C 0.89708 0.2978 0.10245 0.0
C309 C 0.80304 0.30672 0.11705 0.0
N310 N 0.77512 0.23877 0.10309 0.0
O311 O 0.87329 0.47426 0.11368 0.0
H312 H 0.95298 0.31082 0.09668 0.0
H313 H 0.76945 0.32953 0.12576 0.0
O314 O 1.01993 0.41649 0.13748 0.0
C315 C 0.87563 0.5294 0.09888 0.0
O316 O 0.93381 0.57337 0.08124 0.0
N317 N 0.97848 0.45034 0.07885 0.0
C318 C 1.02321 0.4597 0.01405 0.0
C319 C 0.07167 0.4686 0.03948 0.0
C320 C 0.04845 0.46399 0.07155 0.0
C321 C 0.92862 0.43553 0.05432 0.0
C322 C 0.95024 0.4415 0.0218 0.0
H323 H 0.0893 0.47732 0.09034 0.0
H324 H 0.87181 0.41975 0.05971 0.0
H325 H 1.01068 0.56505 0.18014 0.0
H326 H 0.14158 0.72088 0.10846 0.0
H327 H 0.83258 0.18645 0.08176 0.0
H328 H 0.12792 0.48087 0.03483 0.0
H329 H 0.91037 0.43377 0.00307 0.0
C330 C 0.4596 0.47572 0.10661 0.0
C331 C 0.39071 0.44513 0.1205 0.0
N332 N 0.39842 0.43462 0.152 0.0
N333 N 0.51124 0.48387 0.12917 0.0
C334 C 0.47136 0.45878 0.157 0.0
H335 H 0.46855 0.4855 0.0808 0.0
Co336 Co 0.61377 0.51358 0.12321 0.0
C337 C 0.66314 0.68007 0.14628 0.0
O338 O 0.68377 0.73231 0.12413 0.0
N339 N 0.71483 0.5438 0.11645 0.0
C340 C 0.82647 0.61134 0.09398 0.0
C341 C 0.76214 0.60972 0.10245 0.0
C342 C 0.75324 0.50678 0.11707 0.0
N343 N 0.8212 0.54683 0.10312 0.0
O344 O 0.58566 0.40949 0.11364 0.0
H345 H 0.74912 0.65259 0.09666 0.0
H346 H 0.73042 0.45039 0.12578 0.0
O347 O 0.64348 0.61384 0.13754 0.0
C348 C 0.53051 0.35668 0.09884 0.0
O349 O 0.48653 0.37088 0.0812 0.0
N350 N 0.60962 0.53865 0.07885 0.0
C351 C 0.60023 0.57406 0.01406 0.0
C352 C 0.59133 0.61359 0.03951 0.0
C353 C 0.59596 0.59496 0.07157 0.0
C354 C 0.62442 0.50363 0.05431 0.0
C355 C 0.61844 0.51929 0.0218 0.0
H356 H 0.58265 0.62247 0.09037 0.0
H357 H 0.64019 0.46259 0.05969 0.0
H358 H 0.49486 0.45608 0.18013 0.0
H359 H 0.33904 0.43115 0.10845 0.0
H360 H 0.87353 0.6566 0.08178 0.0
H361 H 0.57905 0.65757 0.03487 0.0
H362 H 0.62616 0.48716 0.00306 0.0
C363 C 0.58419 0.99441 0.1066 0.0
C364 C 0.61477 0.9561 0.12049 0.0
N365 N 0.62525 0.97431 0.15199 0.0
N366 N 0.57603 0.03789 0.12916 0.0
C367 C 0.60109 1.02308 0.15699 0.0
H368 H 0.57444 0.99361 0.08079 0.0
Co369 Co 0.54631 0.11068 0.1232 0.0
C370 C 0.37981 0.99352 0.14629 0.0
O371 O 0.32756 0.96174 0.12416 0.0
N372 N 0.51608 0.18151 0.11644 0.0
C373 C 0.44854 0.22558 0.09397 0.0
C374 C 0.45016 0.16288 0.10245 0.0
C375 C 0.55312 0.25693 0.11704 0.0
N376 N 0.51307 0.28483 0.10309 0.0
O377 O 0.65043 0.18669 0.11364 0.0
H378 H 0.40727 0.10698 0.09667 0.0
H379 H 0.60953 0.29052 0.12574 0.0
O380 O 0.44603 0.04011 0.13752 0.0
C381 C 0.70325 0.18436 0.09884 0.0
O382 O 0.68905 0.12619 0.08119 0.0
N383 N 0.52126 0.08148 0.07884 0.0
C384 C 0.48585 0.03669 0.01405 0.0
C385 C 0.44631 0.98825 0.0395 0.0
C386 C 0.46494 1.0115 0.07156 0.0
C387 C 0.55629 0.13131 0.05431 0.0
C388 C 0.54062 0.10967 0.02179 0.0
H389 H 0.43744 0.97068 0.09036 0.0
H390 H 0.59734 0.18812 0.05968 0.0
H391 H 0.60377 0.04924 0.18013 0.0
H392 H 0.62876 0.91843 0.10843 0.0
H393 H 0.40327 0.22736 0.08176 0.0
H394 H 0.40233 0.932 0.03486 0.0
H395 H 0.57275 0.14951 0.00306 0.0
C396 C 0.61325 0.05255 0.88728 0.0
C397 C 0.68214 0.09085 0.87339 0.0
N398 N 0.67442 0.07262 0.84189 0.0
N399 N 0.56161 1.00905 0.86472 0.0
C400 C 0.60148 1.02384 0.8369 0.0
H401 H 0.6043 0.05338 0.91309 0.0
Co402 Co 0.45909 0.93625 0.87069 0.0
C403 C 0.4097 0.05335 0.84762 0.0
O404 O 0.38905 0.08497 0.86975 0.0
N405 N 0.35802 0.86541 0.87746 0.0
C406 C 0.2464 0.82131 0.89993 0.0
C407 C 0.31072 0.88401 0.89146 0.0
C408 C 0.31963 0.78998 0.87684 0.0
N409 N 0.25167 0.76207 0.8908 0.0
O410 O 0.4872 0.86026 0.88025 0.0
H411 H 0.32374 0.9399 0.89724 0.0
H412 H 0.34244 0.7564 0.86813 0.0
O413 O 0.42936 1.00679 0.85637 0.0
C414 C 0.54236 0.8626 0.89505 0.0
O415 O 0.58634 0.92079 0.91269 0.0
N416 N 0.46325 0.96546 0.91505 0.0
C417 C 0.47263 1.01026 0.97984 0.0
C418 C 0.48152 0.05869 0.95439 0.0
C419 C 0.47689 0.03543 0.92233 0.0
C420 C 0.44845 0.91564 0.93959 0.0
C421 C 0.45443 0.93729 0.9721 0.0
H422 H 0.49019 0.07625 0.90353 0.0
H423 H 0.43269 0.85883 0.93421 0.0
H424 H 0.57799 0.99765 0.81376 0.0
H425 H 0.73381 0.12853 0.88544 0.0
H426 H 0.19934 0.81951 0.91213 0.0
H427 H 0.49379 0.11494 0.95903 0.0
H428 H 0.44672 0.89744 0.99084 0.0
C429 C 1.00727 0.57117 0.88727 0.0
C430 C 0.96898 0.60177 0.87338 0.0
N431 N 0.98723 0.61229 0.84188 0.0
N432 N 0.05077 0.56303 0.86472 0.0
C433 C 1.036 0.58813 0.83689 0.0
H434 H 1.00643 0.5614 0.91308 0.0
Co435 Co 0.12356 0.53331 0.87067 0.0
C436 C 1.00636 0.36684 0.84759 0.0
O437 O 0.9744 0.31461 0.86972 0.0
N438 N 0.1944 0.50308 0.87743 0.0
C439 C 0.2385 0.43556 0.89991 0.0
C440 C 0.17579 0.43717 0.89143 0.0
C441 C 0.26984 0.54013 0.87683 0.0
N442 N 0.29775 0.50009 0.8908 0.0
O443 O 0.19958 0.63741 0.88022 0.0
H444 H 0.11988 0.39428 0.8972 0.0
H445 H 0.30343 0.59653 0.86813 0.0
O446 O 0.05296 0.43304 0.85638 0.0
C447 C 0.19725 0.69021 0.89503 0.0
O448 O 0.13906 0.676 0.91268 0.0
N449 N 0.09438 0.50829 0.91504 0.0
C450 C 0.04962 0.47291 0.97983 0.0
C451 C 1.00117 0.43337 0.95439 0.0
C452 C 1.0244 0.45198 0.92233 0.0
C453 C 0.14423 0.54332 0.93957 0.0
C454 C 0.1226 0.52767 0.97208 0.0
H455 H 0.98356 0.42448 0.90354 0.0
H456 H 0.20105 0.58435 0.93419 0.0
H457 H 0.0622 0.59083 0.81375 0.0
H458 H 0.9313 0.61575 0.88543 0.0
H459 H 0.24028 0.39031 0.91212 0.0
H460 H 0.94491 0.38939 0.95904 0.0
H461 H 0.16247 0.5598 0.99081 0.0
C462 C 0.48867 0.44664 0.8873 0.0
C463 C 0.4581 0.37776 0.87341 0.0
N464 N 0.44762 0.38547 0.8419 0.0
N465 N 0.49683 0.49828 0.86473 0.0
C466 C 0.47177 0.45841 0.83691 0.0
H467 H 0.49842 0.45559 0.91311 0.0
Co468 Co 0.52655 0.60079 0.87069 0.0
C469 C 0.69305 0.65011 0.84761 0.0
O470 O 0.7453 0.67053 0.86974 0.0
N471 N 0.55678 0.70185 0.87745 0.0
C472 C 0.62432 0.81346 0.89992 0.0
C473 C 0.62271 0.74915 0.89145 0.0
C474 C 0.51975 0.74024 0.87685 0.0
N475 N 0.5598 0.80819 0.8908 0.0
O476 O 0.42243 0.57268 0.88025 0.0
H477 H 0.66559 0.73613 0.89722 0.0
H478 H 0.46334 0.71742 0.86815 0.0
O479 O 0.62683 0.63048 0.85638 0.0
C480 C 0.36961 0.51754 0.89505 0.0
O481 O 0.38381 0.47357 0.9127 0.0
N482 N 0.55159 0.59664 0.91505 0.0
C483 C 0.58701 0.58727 0.97985 0.0
C484 C 0.62655 0.57837 0.9544 0.0
C485 C 0.60791 0.58298 0.92234 0.0
C486 C 0.51657 0.61144 0.93959 0.0
C487 C 0.53224 0.60548 0.9721 0.0
H488 H 0.63542 0.56966 0.90354 0.0
H489 H 0.47552 0.62721 0.93421 0.0
H490 H 0.4691 0.4819 0.81376 0.0
H491 H 0.44411 0.3261 0.88546 0.0
H492 H 0.66959 0.86051 0.91213 0.0
H493 H 0.67053 0.5661 0.95904 0.0
H494 H 0.50011 0.6132 0.99084 0.0
C495 C 0.73228 0.93366 0.43995 0.0
C496 C 0.77056 1.00255 0.45385 0.0
N497 N 0.75231 0.99482 0.48535 0.0
N498 N 0.68877 0.88201 0.46251 0.0
C499 C 0.70354 0.92188 0.49034 0.0
H500 H 0.73311 0.92472 0.41415 0.0
Co501 Co 0.61598 0.7795 0.45655 0.0
C502 C 0.73318 0.73023 0.47963 0.0
O503 O 0.76519 0.70999 0.45752 0.0
N504 N 0.54513 0.67844 0.44978 0.0
C505 C 0.50104 0.56683 0.4273 0.0
C506 C 0.56375 0.63113 0.43579 0.0
C507 C 0.4697 0.64005 0.45039 0.0
N508 N 0.44178 0.57211 0.43642 0.0
O509 O 0.53995 0.80759 0.44701 0.0
H510 H 0.61965 0.64415 0.43001 0.0
H511 H 0.43611 0.66287 0.45909 0.0
O512 O 0.68659 0.74983 0.47082 0.0
C513 C 0.54229 0.86273 0.43221 0.0
O514 O 0.60047 0.9067 0.41456 0.0
N515 N 0.64515 0.78367 0.41218 0.0
C516 C 0.68989 0.79304 0.34739 0.0
C517 C 0.73835 0.80194 0.37282 0.0
C518 C 0.71512 0.79733 0.40489 0.0
C519 C 0.5953 0.76886 0.38765 0.0
C520 C 0.61692 0.77483 0.35514 0.0
H521 H 0.75597 0.81066 0.42368 0.0
H522 H 0.53848 0.75308 0.39304 0.0
H523 H 0.67733 0.89838 0.51347 0.0
H524 H 0.80824 0.05421 0.4418 0.0
H525 H 0.49925 0.51979 0.41509 0.0
H526 H 0.79461 0.81422 0.36818 0.0
H527 H 0.57705 0.7671 0.33641 0.0
C528 C 0.12627 0.80904 0.43995 0.0
C529 C 0.05737 0.77845 0.45383 0.0
N530 N 0.06509 0.76794 0.48534 0.0
N531 N 0.17791 0.81719 0.4625 0.0
C532 C 0.13803 0.7921 0.49033 0.0
H533 H 0.13521 0.81882 0.41414 0.0
Co534 Co 0.28043 0.84691 0.45654 0.0
C535 C 0.3298 1.01339 0.47961 0.0
O536 O 0.35044 0.06562 0.45746 0.0
N537 N 0.3815 0.87713 0.44978 0.0
C538 C 0.49313 0.94467 0.42732 0.0
C539 C 0.4288 0.94305 0.43578 0.0
C540 C 0.4199 0.84011 0.4504 0.0
N541 N 0.48786 0.88016 0.43645 0.0
O542 O 0.25232 0.74282 0.44697 0.0
H543 H 0.41578 0.98592 0.43 0.0
H544 H 0.39709 0.78371 0.45911 0.0
O545 O 0.31014 0.94715 0.47088 0.0
C546 C 0.19717 0.69001 0.43217 0.0
O547 O 0.15319 0.70421 0.41453 0.0
N548 N 0.27628 0.87198 0.41219 0.0
C549 C 0.26689 0.9074 0.3474 0.0
C550 C 0.25798 0.94693 0.37285 0.0
C551 C 0.26262 0.9283 0.40491 0.0
C552 C 0.29108 0.83697 0.38765 0.0
C553 C 0.28511 0.85264 0.35514 0.0
H554 H 0.2493 0.9558 0.42371 0.0
H555 H 0.30686 0.79593 0.39302 0.0
H556 H 0.16152 0.78941 0.51347 0.0
H557 H 1.00571 0.76447 0.44178 0.0
H558 H 0.54019 0.98993 0.41511 0.0
H559 H 0.24571 0.9909 0.36821 0.0
H560 H 0.29283 0.82052 0.3364 0.0
C561 C 0.25087 0.32775 0.43993 0.0
C562 C 0.28144 0.28944 0.45382 0.0
N563 N 0.29192 0.30764 0.48532 0.0
N564 N 0.24271 0.37123 0.46249 0.0
C565 C 0.26777 0.35642 0.49032 0.0
H566 H 0.24111 0.32695 0.41412 0.0
Co567 Co 0.21298 0.44401 0.45654 0.0
C568 C 0.04649 0.32686 0.47962 0.0
O569 O 0.99424 0.29509 0.45749 0.0
N570 N 0.18275 0.51484 0.44977 0.0
C571 C 0.1152 0.55891 0.4273 0.0
C572 C 0.11682 0.49621 0.43578 0.0
C573 C 0.21979 0.59026 0.45037 0.0
N574 N 0.17973 0.61816 0.43642 0.0
O575 O 0.3171 0.52002 0.44697 0.0
H576 H 0.07394 0.44031 0.43001 0.0
H577 H 0.2762 0.62386 0.45907 0.0
O578 O 0.11271 0.37344 0.47086 0.0
C579 C 0.36992 0.5177 0.43217 0.0
O580 O 0.35572 0.45953 0.41452 0.0
N581 N 0.18792 0.4148 0.41218 0.0
C582 C 0.1525 0.37001 0.34739 0.0
C583 C 0.11297 0.32157 0.37284 0.0
C584 C 0.13161 0.34483 0.4049 0.0
C585 C 0.22295 0.46463 0.38764 0.0
C586 C 0.20727 0.44299 0.35513 0.0
H587 H 0.1041 0.30401 0.4237 0.0
H588 H 0.26399 0.52144 0.39301 0.0
H589 H 0.27044 0.38258 0.51346 0.0
H590 H 0.29543 0.25177 0.44177 0.0
H591 H 0.06993 0.56068 0.41509 0.0
H592 H 0.06899 0.26532 0.3682 0.0
H593 H 0.2394 0.48283 0.33639 0.0
loop_
_geom_bond_atom_site_label_1
_geom_bond_atom_site_label_2
_geom_bond_distance
_geom_bond_site_symmetry_2
_ccdc_geom_bond_type
C0 C1 1.351 . S
C0 N3 1.368 . S
C0 H5 0.931 . S
C1 C0 1.351 . S
C1 N2 1.373 . S
C1 H29 0.930 . S
N2 C1 1.373 . S
N2 C4 1.340 . S
N3 C0 1.368 . S
N3 C4 1.321 . S
N3 Co6 2.135 . S
C4 N2 1.340 . S
C4 N3 1.321 . S
C4 H28 0.930 . S
H5 C0 0.931 . S
Co6 N3 2.135 . S
Co6 N9 2.121 1_455 S
Co6 O14 2.055 . S
Co6 O17 2.039 . S
Co6 N20 2.140 . S
C7 O8 1.227 . S
C7 O17 1.265 . S
O8 C7 1.227 . S
N9 Co6 2.121 1_655 S
N9 C11 1.375 . S
N9 C12 1.313 . S
C10 C11 1.338 . S
C10 N13 1.377 . S
C10 H30 0.930 . S
C11 N9 1.375 . S
C11 C10 1.338 . S
C11 H15 0.931 . S
C12 N9 1.313 . S
C12 N13 1.344 . S
C12 H16 0.930 . S
N13 C10 1.377 . S
N13 C12 1.344 . S
O14 Co6 2.055 . S
O14 C18 1.253 . S
H15 C11 0.931 . S
H16 C12 0.930 . S
O17 Co6 2.039 . S
O17 C7 1.265 . S
C18 O14 1.253 . S
C18 O19 1.227 . S
O19 C18 1.227 . S
N20 Co6 2.140 . S
N20 C23 1.346 . S
N20 C24 1.345 . S
C21 C22 1.387 . S
C21 C25 1.391 . S
C22 C21 1.387 . S
C22 C23 1.369 . S
C22 H31 0.929 . S
C23 N20 1.346 . S
C23 C22 1.369 . S
C23 H26 0.928 . S
C24 N20 1.345 . S
C24 C25 1.371 . S
C24 H27 0.931 . S
C25 C21 1.391 . S
C25 C24 1.371 . S
C25 H32 0.930 . S
H26 C23 0.928 . S
H27 C24 0.931 . S
H28 C4 0.930 . S
H29 C1 0.930 . S
H30 C10 0.930 . S
H31 C22 0.929 . S
H32 C25 0.930 . S
C33 C34 1.351 . S
C33 N36 1.368 . S
C33 H38 0.931 . S
C34 C33 1.351 . S
C34 N35 1.373 . S
C34 H62 0.930 . S
N35 C34 1.373 . S
N35 C37 1.340 . S
N36 C33 1.368 . S
N36 C37 1.321 . S
N36 Co39 2.135 . S
C37 N35 1.340 . S
C37 N36 1.321 . S
C37 H61 0.930 . S
H38 C33 0.931 . S
Co39 N36 2.135 . S
Co39 N42 2.121 . S
Co39 O47 2.055 . S
Co39 O50 2.039 . S
Co39 N53 2.140 . S
C40 O41 1.227 . S
C40 O50 1.265 . S
O41 C40 1.227 . S
N42 Co39 2.121 . S
N42 C44 1.375 . S
N42 C45 1.313 . S
C43 C44 1.338 . S
C43 N46 1.377 . S
C43 H63 0.930 . S
C44 N42 1.375 . S
C44 C43 1.338 . S
C44 H48 0.931 . S
C45 N42 1.313 . S
C45 N46 1.344 . S
C45 H49 0.930 . S
N46 C43 1.377 . S
N46 C45 1.344 . S
O47 Co39 2.055 . S
O47 C51 1.253 . S
H48 C44 0.931 . S
H49 C45 0.930 . S
O50 Co39 2.039 . S
O50 C40 1.265 . S
C51 O47 1.253 . S
C51 O52 1.227 . S
O52 C51 1.227 . S
N53 Co39 2.140 . S
N53 C56 1.346 . S
N53 C57 1.345 . S
C54 C55 1.387 . S
C54 C58 1.391 . S
C55 C54 1.387 . S
C55 C56 1.369 . S
C55 H64 0.929 . S
C56 N53 1.346 . S
C56 C55 1.369 . S
C56 H59 0.928 . S
C57 N53 1.345 . S
C57 C58 1.371 . S
C57 H60 0.931 . S
C58 C54 1.391 . S
C58 C57 1.371 . S
C58 H65 0.930 . S
H59 C56 0.928 . S
H60 C57 0.931 . S
H61 C37 0.930 . S
H62 C34 0.930 . S
H63 C43 0.930 . S
H64 C55 0.929 . S
H65 C58 0.930 . S
C66 C67 1.351 . S
C66 N69 1.368 . S
C66 H71 0.931 . S
C67 C66 1.351 . S
C67 N68 1.373 . S
C67 H95 0.930 . S
N68 C67 1.373 . S
N68 C70 1.340 . S
N69 C66 1.368 . S
N69 C70 1.321 . S
N69 Co72 2.135 . S
C70 N68 1.340 . S
C70 N69 1.321 . S
C70 H94 0.930 . S
H71 C66 0.931 . S
Co72 N69 2.135 . S
Co72 N75 2.121 1_565 S
Co72 O80 2.055 . S
Co72 O83 2.039 . S
Co72 N86 2.140 . S
C73 O74 1.227 . S
C73 O83 1.265 . S
O74 C73 1.227 . S
N75 Co72 2.121 1_545 S
N75 C77 1.375 . S
N75 C78 1.313 . S
C76 C77 1.338 . S
C76 N79 1.377 . S
C76 H96 0.930 . S
C77 N75 1.375 . S
C77 C76 1.338 . S
C77 H81 0.931 . S
C78 N75 1.313 . S
C78 N79 1.344 . S
C78 H82 0.930 . S
N79 C76 1.377 . S
N79 C78 1.344 . S
O80 Co72 2.055 . S
O80 C84 1.253 . S
H81 C77 0.931 . S
H82 C78 0.930 . S
O83 Co72 2.039 . S
O83 C73 1.265 . S
C84 O80 1.253 . S
C84 O85 1.227 . S
O85 C84 1.227 . S
N86 Co72 2.140 . S
N86 C89 1.346 . S
N86 C90 1.345 . S
C87 C88 1.387 . S
C87 C91 1.391 . S
C88 C87 1.387 . S
C88 C89 1.369 . S
C88 H97 0.929 . S
C89 N86 1.346 . S
C89 C88 1.369 . S
C89 H92 0.928 . S
C90 N86 1.345 . S
C90 C91 1.371 . S
C90 H93 0.931 . S
C91 C87 1.391 . S
C91 C90 1.371 . S
C91 H98 0.930 . S
H92 C89 0.928 . S
H93 C90 0.931 . S
H94 C70 0.930 . S
H95 C67 0.930 . S
H96 C76 0.930 . S
H97 C88 0.929 . S
H98 C91 0.930 . S
C99 C100 1.351 . S
C99 N102 1.368 . S
C99 H104 0.931 . S
C100 C99 1.351 . S
C100 N101 1.373 . S
C100 H128 0.930 . S
N101 C100 1.373 . S
N101 C103 1.340 . S
N102 C99 1.368 . S
N102 C103 1.321 . S
N102 Co105 2.135 . S
C103 N101 1.340 . S
C103 N102 1.321 . S
C103 H127 0.930 . S
H104 C99 0.931 . S
Co105 N102 2.135 . S
Co105 N108 2.121 1_545 S
Co105 O113 2.055 . S
Co105 O116 2.039 . S
Co105 N119 2.140 . S
C106 O107 1.227 . S
C106 O116 1.265 . S
O107 C106 1.227 . S
N108 Co105 2.121 1_565 S
N108 C110 1.375 . S
N108 C111 1.313 . S
C109 C110 1.338 . S
C109 N112 1.377 . S
C109 H129 0.930 . S
C110 N108 1.375 . S
C110 C109 1.338 . S
C110 H114 0.931 . S
C111 N108 1.313 . S
C111 N112 1.344 . S
C111 H115 0.930 . S
N112 C109 1.377 . S
N112 C111 1.344 . S
O113 Co105 2.055 . S
O113 C117 1.253 . S
H114 C110 0.931 . S
H115 C111 0.930 . S
O116 Co105 2.039 . S
O116 C106 1.265 . S
C117 O113 1.253 . S
C117 O118 1.227 . S
O118 C117 1.227 . S
N119 Co105 2.140 . S
N119 C122 1.346 . S
N119 C123 1.345 . S
C120 C121 1.387 . S
C120 C124 1.391 . S
C121 C120 1.387 . S
C121 C122 1.369 . S
C121 H130 0.929 . S
C122 N119 1.346 . S
C122 C121 1.369 . S
C122 H125 0.928 . S
C123 N119 1.345 . S
C123 C124 1.371 . S
C123 H126 0.931 . S
C124 C120 1.391 . S
C124 C123 1.371 . S
C124 H131 0.930 . S
H125 C122 0.928 . S
H126 C123 0.931 . S
H127 C103 0.930 . S
H128 C100 0.930 . S
H129 C109 0.930 . S
H130 C121 0.929 . S
H131 C124 0.930 . S
C132 C133 1.351 . S
C132 N135 1.368 . S
C132 H137 0.931 . S
C133 C132 1.351 . S
C133 N134 1.373 . S
C133 H161 0.930 . S
N134 C133 1.373 . S
N134 C136 1.340 . S
N135 C132 1.368 . S
N135 C136 1.321 . S
N135 Co138 2.135 . S
C136 N134 1.340 . S
C136 N135 1.321 . S
C136 H160 0.930 . S
H137 C132 0.931 . S
Co138 N135 2.135 . S
Co138 N141 2.121 1_655 S
Co138 O146 2.055 . S
Co138 O149 2.039 . S
Co138 N152 2.140 . S
C139 O140 1.227 . S
C139 O149 1.265 . S
O140 C139 1.227 . S
N141 Co138 2.121 1_455 S
N141 C143 1.375 . S
N141 C144 1.313 . S
C142 C143 1.338 . S
C142 N145 1.377 . S
C142 H162 0.930 . S
C143 N141 1.375 . S
C143 C142 1.338 . S
C143 H147 0.931 . S
C144 N141 1.313 . S
C144 N145 1.344 . S
C144 H148 0.930 . S
N145 C142 1.377 . S
N145 C144 1.344 . S
O146 Co138 2.055 . S
O146 C150 1.253 . S
H147 C143 0.931 . S
H148 C144 0.930 . S
O149 Co138 2.039 . S
O149 C139 1.265 . S
C150 O146 1.253 . S
C150 O151 1.227 . S
O151 C150 1.227 . S
N152 Co138 2.140 . S
N152 C155 1.346 . S
N152 C156 1.345 . S
C153 C154 1.387 . S
C153 C157 1.391 . S
C154 C153 1.387 . S
C154 C155 1.369 . S
C154 H163 0.929 . S
C155 N152 1.346 . S
C155 C154 1.369 . S
C155 H158 0.928 . S
C156 N152 1.345 . S
C156 C157 1.371 . S
C156 H159 0.931 . S
C157 C153 1.391 . S
C157 C156 1.371 . S
C157 H164 0.930 . S
H158 C155 0.928 . S
H159 C156 0.931 . S
H160 C136 0.930 . S
H161 C133 0.930 . S
H162 C142 0.930 . S
H163 C154 0.929 . S
H164 C157 0.930 . S
C165 C166 1.351 . S
C165 N168 1.368 . S
C165 H170 0.931 . S
C166 C165 1.351 . S
C166 N167 1.373 . S
C166 H194 0.930 . S
N167 C166 1.373 . S
N167 C169 1.340 . S
N168 C165 1.368 . S
N168 C169 1.321 . S
N168 Co171 2.135 . S
C169 N167 1.340 . S
C169 N168 1.321 . S
C169 H193 0.930 . S
H170 C165 0.931 . S
Co171 N168 2.135 . S
Co171 N174 2.121 . S
Co171 O179 2.055 . S
Co171 O182 2.039 . S
Co171 N185 2.140 . S
C172 O173 1.227 . S
C172 O182 1.265 . S
O173 C172 1.227 . S
N174 Co171 2.121 . S
N174 C176 1.375 . S
N174 C177 1.313 . S
C175 C176 1.338 . S
C175 N178 1.377 . S
C175 H195 0.930 . S
C176 N174 1.375 . S
C176 C175 1.338 . S
C176 H180 0.931 . S
C177 N174 1.313 . S
C177 N178 1.344 . S
C177 H181 0.930 . S
N178 C175 1.377 . S
N178 C177 1.344 . S
O179 Co171 2.055 . S
O179 C183 1.253 . S
H180 C176 0.931 . S
H181 C177 0.930 . S
O182 Co171 2.039 . S
O182 C172 1.265 . S
C183 O179 1.253 . S
C183 O184 1.227 . S
O184 C183 1.227 . S
N185 Co171 2.140 . S
N185 C188 1.346 . S
N185 C189 1.345 . S
C186 C187 1.387 . S
C186 C190 1.391 . S
C187 C186 1.387 . S
C187 C188 1.369 . S
C187 H196 0.929 . S
C188 N185 1.346 . S
C188 C187 1.369 . S
C188 H191 0.928 . S
C189 N185 1.345 . S
C189 C190 1.371 . S
C189 H192 0.931 . S
C190 C186 1.391 . S
C190 C189 1.371 . S
C190 H197 0.930 . S
H191 C188 0.928 . S
H192 C189 0.931 . S
H193 C169 0.930 . S
H194 C166 0.930 . S
H195 C175 0.930 . S
H196 C187 0.929 . S
H197 C190 0.930 . S
C198 C199 1.351 . S
C198 N201 1.368 . S
C198 H203 0.931 . S
C199 C198 1.351 . S
C199 N200 1.373 . S
C199 H227 0.930 1_655 S
N200 C199 1.373 . S
N200 C202 1.340 . S
N201 C198 1.368 . S
N201 C202 1.321 . S
N201 Co204 2.135 . S
C202 N200 1.340 . S
C202 N201 1.321 . S
C202 H226 0.930 . S
H203 C198 0.931 . S
Co204 N201 2.135 . S
Co204 N207 2.121 . S
Co204 O212 2.055 . S
Co204 O215 2.039 . S
Co204 N218 2.140 . S
C205 O206 1.227 . S
C205 O215 1.265 . S
O206 C205 1.227 . S
N207 Co204 2.121 . S
N207 C209 1.375 . S
N207 C210 1.313 . S
C208 C209 1.338 . S
C208 N211 1.377 . S
C208 H228 0.930 . S
C209 N207 1.375 . S
C209 C208 1.338 . S
C209 H213 0.931 . S
C210 N207 1.313 . S
C210 N211 1.344 . S
C210 H214 0.930 . S
N211 C208 1.377 . S
N211 C210 1.344 . S
O212 Co204 2.055 . S
O212 C216 1.253 . S
H213 C209 0.931 . S
H214 C210 0.930 . S
O215 Co204 2.039 . S
O215 C205 1.265 . S
C216 O212 1.253 . S
C216 O217 1.227 . S
O217 C216 1.227 . S
N218 Co204 2.140 . S
N218 C221 1.346 . S
N218 C222 1.345 . S
C219 C220 1.387 . S
C219 C223 1.391 . S
C220 C219 1.387 . S
C220 C221 1.369 . S
C220 H229 0.929 . S
C221 N218 1.346 . S
C221 C220 1.369 . S
C221 H224 0.928 . S
C222 N218 1.345 . S
C222 C223 1.371 . S
C222 H225 0.931 . S
C223 C219 1.391 . S
C223 C222 1.371 . S
C223 H230 0.930 . S
H224 C221 0.928 . S
H225 C222 0.931 . S
H226 C202 0.930 . S
H227 C199 0.930 1_455 S
H228 C208 0.930 . S
H229 C220 0.929 . S
H230 C223 0.930 . S
C231 C232 1.351 . S
C231 N234 1.368 . S
C231 H236 0.931 . S
C232 C231 1.351 . S
C232 N233 1.373 . S
C232 H260 0.930 . S
N233 C232 1.373 . S
N233 C235 1.340 . S
N234 C231 1.368 . S
N234 C235 1.321 . S
N234 Co237 2.135 . S
C235 N233 1.340 . S
C235 N234 1.321 . S
C235 H259 0.930 . S
H236 C231 0.931 . S
Co237 N234 2.135 . S
Co237 N240 2.121 . S
Co237 O245 2.055 . S
Co237 O248 2.039 . S
Co237 N251 2.140 . S
C238 O239 1.227 . S
C238 O248 1.265 . S
O239 C238 1.227 . S
N240 Co237 2.121 . S
N240 C242 1.375 . S
N240 C243 1.313 . S
C241 C242 1.338 . S
C241 N244 1.377 . S
C241 H261 0.930 . S
C242 N240 1.375 . S
C242 C241 1.338 . S
C242 H246 0.931 . S
C243 N240 1.313 . S
C243 N244 1.344 . S
C243 H247 0.930 . S
N244 C241 1.377 . S
N244 C243 1.344 . S
O245 Co237 2.055 . S
O245 C249 1.253 . S
H246 C242 0.931 . S
H247 C243 0.930 . S
O248 Co237 2.039 . S
O248 C238 1.265 . S
C249 O245 1.253 . S
C249 O250 1.227 . S
O250 C249 1.227 . S
N251 Co237 2.140 . S
N251 C254 1.346 . S
N251 C255 1.345 . S
C252 C253 1.387 . S
C252 C256 1.391 . S
C253 C252 1.387 . S
C253 C254 1.369 . S
C253 H262 0.929 . S
C254 N251 1.346 . S
C254 C253 1.369 . S
C254 H257 0.928 . S
C255 N251 1.345 . S
C255 C256 1.371 . S
C255 H258 0.931 . S
C256 C252 1.391 . S
C256 C255 1.371 . S
C256 H263 0.930 . S
H257 C254 0.928 . S
H258 C255 0.931 . S
H259 C235 0.930 . S
H260 C232 0.930 . S
H261 C241 0.930 . S
H262 C253 0.929 . S
H263 C256 0.930 . S
C264 C265 1.351 . S
C264 N267 1.368 . S
C264 H269 0.931 . S
C265 C264 1.351 . S
C265 N266 1.373 . S
C265 H293 0.930 1_545 S
N266 C265 1.373 . S
N266 C268 1.340 . S
N267 C264 1.368 . S
N267 C268 1.321 . S
N267 Co270 2.135 . S
C268 N266 1.340 . S
C268 N267 1.321 . S
C268 H292 0.930 . S
H269 C264 0.931 . S
Co270 N267 2.135 . S
Co270 N273 2.121 . S
Co270 O278 2.055 . S
Co270 O281 2.039 . S
Co270 N284 2.140 . S
C271 O272 1.227 . S
C271 O281 1.265 . S
O272 C271 1.227 . S
N273 Co270 2.121 . S
N273 C275 1.375 . S
N273 C276 1.313 . S
C274 C275 1.338 . S
C274 N277 1.377 . S
C274 H294 0.930 . S
C275 N273 1.375 . S
C275 C274 1.338 . S
C275 H279 0.931 . S
C276 N273 1.313 . S
C276 N277 1.344 . S
C276 H280 0.930 . S
N277 C274 1.377 . S
N277 C276 1.344 . S
O278 Co270 2.055 . S
O278 C282 1.253 . S
H279 C275 0.931 . S
H280 C276 0.930 . S
O281 Co270 2.039 . S
O281 C271 1.265 . S
C282 O278 1.253 . S
C282 O283 1.227 . S
O283 C282 1.227 . S
N284 Co270 2.140 . S
N284 C287 1.346 . S
N284 C288 1.345 . S
C285 C286 1.387 . S
C285 C289 1.391 . S
C286 C285 1.387 . S
C286 C287 1.369 . S
C286 H295 0.929 . S
C287 N284 1.346 . S
C287 C286 1.369 . S
C287 H290 0.928 . S
C288 N284 1.345 . S
C288 C289 1.371 . S
C288 H291 0.931 . S
C289 C285 1.391 . S
C289 C288 1.371 . S
C289 H296 0.930 . S
H290 C287 0.928 . S
H291 C288 0.931 . S
H292 C268 0.930 . S
H293 C265 0.930 1_565 S
H294 C274 0.930 . S
H295 C286 0.929 . S
H296 C289 0.930 . S
C297 C298 1.351 1_655 S
C297 N300 1.368 . S
C297 H302 0.931 . S
C298 C297 1.351 1_455 S
C298 N299 1.373 . S
C298 H326 0.930 . S
N299 C298 1.373 . S
N299 C301 1.340 . S
N300 C297 1.368 . S
N300 C301 1.321 1_655 S
N300 Co303 2.135 . S
C301 N299 1.340 . S
C301 N300 1.321 1_455 S
C301 H325 0.930 . S
H302 C297 0.931 . S
Co303 N300 2.135 . S
Co303 N306 2.121 . S
Co303 O311 2.055 . S
Co303 O314 2.039 . S
Co303 N317 2.140 . S
C304 O305 1.227 1_655 S
C304 O314 1.265 . S
O305 C304 1.227 1_455 S
N306 Co303 2.121 . S
N306 C308 1.375 . S
N306 C309 1.313 . S
C307 C308 1.338 . S
C307 N310 1.377 . S
C307 H327 0.930 . S
C308 N306 1.375 . S
C308 C307 1.338 . S
C308 H312 0.931 . S
C309 N306 1.313 . S
C309 N310 1.344 . S
C309 H313 0.930 . S
N310 C307 1.377 . S
N310 C309 1.344 . S
O311 Co303 2.055 . S
O311 C315 1.253 . S
H312 C308 0.931 . S
H313 C309 0.930 . S
O314 Co303 2.039 . S
O314 C304 1.265 . S
C315 O311 1.253 . S
C315 O316 1.227 . S
O316 C315 1.227 . S
N317 Co303 2.140 . S
N317 C320 1.346 1_655 S
N317 C321 1.345 . S
C318 C319 1.387 . S
C318 C322 1.391 1_455 S
C319 C318 1.387 . S
C319 C320 1.369 . S
C319 H328 0.929 . S
C320 N317 1.346 1_455 S
C320 C319 1.369 . S
C320 H323 0.928 . S
C321 N317 1.345 . S
C321 C322 1.371 . S
C321 H324 0.931 . S
C322 C318 1.391 1_655 S
C322 C321 1.371 . S
C322 H329 0.930 . S
H323 C320 0.928 . S
H324 C321 0.931 . S
H325 C301 0.930 . S
H326 C298 0.930 . S
H327 C307 0.930 . S
H328 C319 0.929 . S
H329 C322 0.930 . S
C330 C331 1.351 . S
C330 N333 1.368 . S
C330 H335 0.931 . S
C331 C330 1.351 . S
C331 N332 1.373 . S
C331 H359 0.930 . S
N332 C331 1.373 . S
N332 C334 1.340 . S
N333 C330 1.368 . S
N333 C334 1.321 . S
N333 Co336 2.135 . S
C334 N332 1.340 . S
C334 N333 1.321 . S
C334 H358 0.930 . S
H335 C330 0.931 . S
Co336 N333 2.135 . S
Co336 N339 2.121 . S
Co336 O344 2.055 . S
Co336 O347 2.039 . S
Co336 N350 2.140 . S
C337 O338 1.227 . S
C337 O347 1.265 . S
O338 C337 1.227 . S
N339 Co336 2.121 . S
N339 C341 1.375 . S
N339 C342 1.313 . S
C340 C341 1.338 . S
C340 N343 1.377 . S
C340 H360 0.930 . S
C341 N339 1.375 . S
C341 C340 1.338 . S
C341 H345 0.931 . S
C342 N339 1.313 . S
C342 N343 1.344 . S
C342 H346 0.930 . S
N343 C340 1.377 . S
N343 C342 1.344 . S
O344 Co336 2.055 . S
O344 C348 1.253 . S
H345 C341 0.931 . S
H346 C342 0.930 . S
O347 Co336 2.039 . S
O347 C337 1.265 . S
C348 O344 1.253 . S
C348 O349 1.227 . S
O349 C348 1.227 . S
N350 Co336 2.140 . S
N350 C353 1.346 . S
N350 C354 1.345 . S
C351 C352 1.387 . S
C351 C355 1.391 . S
C352 C351 1.387 . S
C352 C353 1.369 . S
C352 H361 0.929 . S
C353 N350 1.346 . S
C353 C352 1.369 . S
C353 H356 0.928 . S
C354 N350 1.345 . S
C354 C355 1.371 . S
C354 H357 0.931 . S
C355 C351 1.391 . S
C355 C354 1.371 . S
C355 H362 0.930 . S
H356 C353 0.928 . S
H357 C354 0.931 . S
H358 C334 0.930 . S
H359 C331 0.930 . S
H360 C340 0.930 . S
H361 C352 0.929 . S
H362 C355 0.930 . S
C363 C364 1.351 1_545 S
C363 N366 1.368 . S
C363 H368 0.931 . S
C364 C363 1.351 1_565 S
C364 N365 1.373 . S
C364 H392 0.930 . S
N365 C364 1.373 . S
N365 C367 1.340 . S
N366 C363 1.368 . S
N366 C367 1.321 1_545 S
N366 Co369 2.135 . S
C367 N365 1.340 . S
C367 N366 1.321 1_565 S
C367 H391 0.930 . S
H368 C363 0.931 . S
Co369 N366 2.135 . S
Co369 N372 2.121 . S
Co369 O377 2.055 . S
Co369 O380 2.039 . S
Co369 N383 2.140 . S
C370 O371 1.226 . S
C370 O380 1.266 1_565 S
O371 C370 1.226 . S
N372 Co369 2.121 . S
N372 C374 1.375 . S
N372 C375 1.313 . S
C373 C374 1.338 . S
C373 N376 1.377 . S
C373 H393 0.930 . S
C374 N372 1.375 . S
C374 C373 1.338 . S
C374 H378 0.931 . S
C375 N372 1.313 . S
C375 N376 1.344 . S
C375 H379 0.930 . S
N376 C373 1.377 . S
N376 C375 1.344 . S
O377 Co369 2.055 . S
O377 C381 1.253 . S
H378 C374 0.931 . S
H379 C375 0.930 . S
O380 Co369 2.039 . S
O380 C370 1.266 1_545 S
C381 O377 1.253 . S
C381 O382 1.227 . S
O382 C381 1.227 . S
N383 Co369 2.140 . S
N383 C386 1.346 1_545 S
N383 C387 1.345 . S
C384 C385 1.387 . S
C384 C388 1.391 1_565 S
C385 C384 1.387 . S
C385 C386 1.369 . S
C385 H394 0.929 . S
C386 N383 1.346 1_565 S
C386 C385 1.369 . S
C386 H389 0.928 . S
C387 N383 1.345 . S
C387 C388 1.371 . S
C387 H390 0.931 . S
C388 C384 1.391 1_545 S
C388 C387 1.371 . S
C388 H395 0.930 . S
H389 C386 0.928 . S
H390 C387 0.931 . S
H391 C367 0.930 . S
H392 C364 0.930 . S
H393 C373 0.930 . S
H394 C385 0.929 . S
H395 C388 0.930 . S
C396 C397 1.351 1_565 S
C396 N399 1.368 . S
C396 H401 0.931 . S
C397 C396 1.351 1_545 S
C397 N398 1.373 . S
C397 H425 0.930 . S
N398 C397 1.373 . S
N398 C400 1.340 . S
N399 C396 1.368 . S
N399 C400 1.321 1_565 S
N399 Co402 2.135 . S
C400 N398 1.340 . S
C400 N399 1.321 1_545 S
C400 H424 0.930 . S
H401 C396 0.931 . S
Co402 N399 2.135 . S
Co402 N405 2.121 . S
Co402 O410 2.055 . S
Co402 O413 2.039 . S
Co402 N416 2.140 . S
C403 O404 1.227 1_565 S
C403 O413 1.265 . S
O404 C403 1.227 1_545 S
N405 Co402 2.121 . S
N405 C407 1.375 . S
N405 C408 1.313 . S
C406 C407 1.338 . S
C406 N409 1.377 . S
C406 H426 0.930 . S
C407 N405 1.375 . S
C407 C406 1.338 . S
C407 H411 0.931 . S
C408 N405 1.313 . S
C408 N409 1.344 . S
C408 H412 0.930 . S
N409 C406 1.377 . S
N409 C408 1.344 . S
O410 Co402 2.055 . S
O410 C414 1.253 . S
H411 C407 0.931 . S
H412 C408 0.930 . S
O413 Co402 2.039 . S
O413 C403 1.265 . S
C414 O410 1.253 . S
C414 O415 1.227 . S
O415 C414 1.227 . S
N416 Co402 2.140 . S
N416 C419 1.346 1_565 S
N416 C420 1.345 . S
C417 C418 1.387 . S
C417 C421 1.391 1_545 S
C418 C417 1.387 . S
C418 C419 1.369 . S
C418 H427 0.929 . S
C419 N416 1.346 1_545 S
C419 C418 1.369 . S
C419 H422 0.928 . S
C420 N416 1.345 . S
C420 C421 1.371 . S
C420 H423 0.931 . S
C421 C417 1.391 1_565 S
C421 C420 1.371 . S
C421 H428 0.930 . S
H422 C419 0.928 . S
H423 C420 0.931 . S
H424 C400 0.930 . S
H425 C397 0.930 . S
H426 C406 0.930 . S
H427 C418 0.929 . S
H428 C421 0.930 . S
C429 C430 1.351 1_455 S
C429 N432 1.368 . S
C429 H434 0.931 . S
C430 C429 1.351 1_655 S
C430 N431 1.373 . S
C430 H458 0.930 . S
N431 C430 1.373 . S
N431 C433 1.340 . S
N432 C429 1.368 . S
N432 C433 1.321 1_455 S
N432 Co435 2.135 . S
C433 N431 1.340 . S
C433 N432 1.321 1_655 S
C433 H457 0.930 . S
H434 C429 0.931 . S
Co435 N432 2.135 . S
Co435 N438 2.121 . S
Co435 O443 2.055 . S
Co435 O446 2.039 . S
Co435 N449 2.140 . S
C436 O437 1.226 . S
C436 O446 1.266 1_655 S
O437 C436 1.226 . S
N438 Co435 2.121 . S
N438 C440 1.375 . S
N438 C441 1.313 . S
C439 C440 1.338 . S
C439 N442 1.377 . S
C439 H459 0.930 . S
C440 N438 1.375 . S
C440 C439 1.338 . S
C440 H444 0.931 . S
C441 N438 1.313 . S
C441 N442 1.344 . S
C441 H445 0.930 . S
N442 C439 1.377 . S
N442 C441 1.344 . S
O443 Co435 2.055 . S
O443 C447 1.253 . S
H444 C440 0.931 . S
H445 C441 0.930 . S
O446 Co435 2.039 . S
O446 C436 1.266 1_455 S
C447 O443 1.253 . S
C447 O448 1.227 . S
O448 C447 1.227 . S
N449 Co435 2.140 . S
N449 C452 1.346 1_455 S
N449 C453 1.345 . S
C450 C451 1.387 . S
C450 C454 1.391 1_655 S
C451 C450 1.387 . S
C451 C452 1.369 . S
C451 H460 0.929 . S
C452 N449 1.346 1_655 S
C452 C451 1.369 . S
C452 H455 0.928 . S
C453 N449 1.345 . S
C453 C454 1.371 . S
C453 H456 0.931 . S
C454 C450 1.391 1_455 S
C454 C453 1.371 . S
C454 H461 0.930 . S
H455 C452 0.928 . S
H456 C453 0.931 . S
H457 C433 0.930 . S
H458 C430 0.930 . S
H459 C439 0.930 . S
H460 C451 0.929 . S
H461 C454 0.930 . S
C462 C463 1.351 . S
C462 N465 1.368 . S
C462 H467 0.931 . S
C463 C462 1.351 . S
C463 N464 1.373 . S
C463 H491 0.930 . S
N464 C463 1.373 . S
N464 C466 1.340 . S
N465 C462 1.368 . S
N465 C466 1.321 . S
N465 Co468 2.135 . S
C466 N464 1.340 . S
C466 N465 1.321 . S
C466 H490 0.930 . S
H467 C462 0.931 . S
Co468 N465 2.135 . S
Co468 N471 2.121 . S
Co468 O476 2.055 . S
Co468 O479 2.039 . S
Co468 N482 2.140 . S
C469 O470 1.227 . S
C469 O479 1.265 . S
O470 C469 1.227 . S
N471 Co468 2.121 . S
N471 C473 1.375 . S
N471 C474 1.313 . S
C472 C473 1.338 . S
C472 N475 1.377 . S
C472 H492 0.930 . S
C473 N471 1.375 . S
C473 C472 1.338 . S
C473 H477 0.931 . S
C474 N471 1.313 . S
C474 N475 1.344 . S
C474 H478 0.930 . S
N475 C472 1.377 . S
N475 C474 1.344 . S
O476 Co468 2.055 . S
O476 C480 1.253 . S
H477 C473 0.931 . S
H478 C474 0.930 . S
O479 Co468 2.039 . S
O479 C469 1.265 . S
C480 O476 1.253 . S
C480 O481 1.227 . S
O481 C480 1.227 . S
N482 Co468 2.140 . S
N482 C485 1.346 . S
N482 C486 1.345 . S
C483 C484 1.387 . S
C483 C487 1.391 . S
C484 C483 1.387 . S
C484 C485 1.369 . S
C484 H493 0.929 . S
C485 N482 1.346 . S
C485 C484 1.369 . S
C485 H488 0.928 . S
C486 N482 1.345 . S
C486 C487 1.371 . S
C486 H489 0.931 . S
C487 C483 1.391 . S
C487 C486 1.371 . S
C487 H494 0.930 . S
H488 C485 0.928 . S
H489 C486 0.931 . S
H490 C466 0.930 . S
H491 C463 0.930 . S
H492 C472 0.930 . S
H493 C484 0.929 . S
H494 C487 0.930 . S
C495 C496 1.351 . S
C495 N498 1.368 . S
C495 H500 0.931 . S
C496 C495 1.351 . S
C496 N497 1.373 . S
C496 H524 0.930 1_565 S
N497 C496 1.373 . S
N497 C499 1.340 . S
N498 C495 1.368 . S
N498 C499 1.321 . S
N498 Co501 2.135 . S
C499 N497 1.340 . S
C499 N498 1.321 . S
C499 H523 0.930 . S
H500 C495 0.931 . S
Co501 N498 2.135 . S
Co501 N504 2.121 . S
Co501 O509 2.055 . S
Co501 O512 2.039 . S
Co501 N515 2.140 . S
C502 O503 1.227 . S
C502 O512 1.265 . S
O503 C502 1.227 . S
N504 Co501 2.121 . S
N504 C506 1.375 . S
N504 C507 1.313 . S
C505 C506 1.338 . S
C505 N508 1.377 . S
C505 H525 0.930 . S
C506 N504 1.375 . S
C506 C505 1.338 . S
C506 H510 0.931 . S
C507 N504 1.313 . S
C507 N508 1.344 . S
C507 H511 0.930 . S
N508 C505 1.377 . S
N508 C507 1.344 . S
O509 Co501 2.055 . S
O509 C513 1.253 . S
H510 C506 0.931 . S
H511 C507 0.930 . S
O512 Co501 2.039 . S
O512 C502 1.265 . S
C513 O509 1.253 . S
C513 O514 1.227 . S
O514 C513 1.227 . S
N515 Co501 2.140 . S
N515 C518 1.346 . S
N515 C519 1.345 . S
C516 C517 1.387 . S
C516 C520 1.391 . S
C517 C516 1.387 . S
C517 C518 1.369 . S
C517 H526 0.929 . S
C518 N515 1.346 . S
C518 C517 1.369 . S
C518 H521 0.928 . S
C519 N515 1.345 . S
C519 C520 1.371 . S
C519 H522 0.931 . S
C520 C516 1.391 . S
C520 C519 1.371 . S
C520 H527 0.930 . S
H521 C518 0.928 . S
H522 C519 0.931 . S
H523 C499 0.930 . S
H524 C496 0.930 1_545 S
H525 C505 0.930 . S
H526 C517 0.929 . S
H527 C520 0.930 . S
C528 C529 1.351 . S
C528 N531 1.368 . S
C528 H533 0.931 . S
C529 C528 1.351 . S
C529 N530 1.373 . S
C529 H557 0.930 1_455 S
N530 C529 1.373 . S
N530 C532 1.340 . S
N531 C528 1.368 . S
N531 C532 1.321 . S
N531 Co534 2.135 . S
C532 N530 1.340 . S
C532 N531 1.321 . S
C532 H556 0.930 . S
H533 C528 0.931 . S
Co534 N531 2.135 . S
Co534 N537 2.121 . S
Co534 O542 2.055 . S
Co534 O545 2.039 . S
Co534 N548 2.140 . S
C535 O536 1.227 . S
C535 O545 1.265 . S
O536 C535 1.227 . S
N537 Co534 2.121 . S
N537 C539 1.375 . S
N537 C540 1.313 . S
C538 C539 1.338 . S
C538 N541 1.377 . S
C538 H558 0.930 . S
C539 N537 1.375 . S
C539 C538 1.338 . S
C539 H543 0.931 . S
C540 N537 1.313 . S
C540 N541 1.344 . S
C540 H544 0.930 . S
N541 C538 1.377 . S
N541 C540 1.344 . S
O542 Co534 2.055 . S
O542 C546 1.253 . S
H543 C539 0.931 . S
H544 C540 0.930 . S
O545 Co534 2.039 . S
O545 C535 1.265 . S
C546 O542 1.253 . S
C546 O547 1.227 . S
O547 C546 1.227 . S
N548 Co534 2.140 . S
N548 C551 1.346 . S
N548 C552 1.345 . S
C549 C550 1.387 . S
C549 C553 1.391 . S
C550 C549 1.387 . S
C550 C551 1.369 . S
C550 H559 0.929 . S
C551 N548 1.346 . S
C551 C550 1.369 . S
C551 H554 0.928 . S
C552 N548 1.345 . S
C552 C553 1.371 . S
C552 H555 0.931 . S
C553 C549 1.391 . S
C553 C552 1.371 . S
C553 H560 0.930 . S
H554 C551 0.928 . S
H555 C552 0.931 . S
H556 C532 0.930 . S
H557 C529 0.930 1_655 S
H558 C538 0.930 . S
H559 C550 0.929 . S
H560 C553 0.930 . S
C561 C562 1.351 . S
C561 N564 1.368 . S
C561 H566 0.931 . S
C562 C561 1.351 . S
C562 N563 1.373 . S
C562 H590 0.930 . S
N563 C562 1.373 . S
N563 C565 1.340 . S
N564 C561 1.368 . S
N564 C565 1.321 . S
N564 Co567 2.135 . S
C565 N563 1.340 . S
C565 N564 1.321 . S
C565 H589 0.930 . S
H566 C561 0.931 . S
Co567 N564 2.135 . S
Co567 N570 2.121 . S
Co567 O575 2.055 . S
Co567 O578 2.039 . S
Co567 N581 2.140 . S
C568 O569 1.227 . S
C568 O578 1.265 . S
O569 C568 1.227 . S
N570 Co567 2.121 . S
N570 C572 1.375 . S
N570 C573 1.313 . S
C571 C572 1.338 . S
C571 N574 1.377 . S
C571 H591 0.930 . S
C572 N570 1.375 . S
C572 C571 1.338 . S
C572 H576 0.931 . S
C573 N570 1.313 . S
C573 N574 1.344 . S
C573 H577 0.930 . S
N574 C571 1.377 . S
N574 C573 1.344 . S
O575 Co567 2.055 . S
O575 C579 1.253 . S
H576 C572 0.931 . S
H577 C573 0.930 . S
O578 Co567 2.039 . S
O578 C568 1.265 . S
C579 O575 1.253 . S
C579 O580 1.227 . S
O580 C579 1.227 . S
N581 Co567 2.140 . S
N581 C584 1.346 . S
N581 C585 1.345 . S
C582 C583 1.387 . S
C582 C586 1.391 . S
C583 C582 1.387 . S
C583 C584 1.369 . S
C583 H592 0.929 . S
C584 N581 1.346 . S
C584 C583 1.369 . S
C584 H587 0.928 . S
C585 N581 1.345 . S
C585 C586 1.371 . S
C585 H588 0.931 . S
C586 C582 1.391 . S
C586 C585 1.371 . S
C586 H593 0.930 . S
H587 C584 0.928 . S
H588 C585 0.931 . S
H589 C565 0.930 . S
H590 C562 0.930 . S
H591 C571 0.930 . S
H592 C583 0.929 . S
H593 C586 0.930 . S
N332 N2 1.554 . S
N35 N365 1.554 . S
N299 N68 1.554 . S
N464 N101 1.554 . S
N134 N398 1.554 . S
N431 N167 1.554 . S
C172 C469 2.171 . S
C403 C106 2.171 1_565 S
C436 C139 2.171 . S
C40 C337 2.171 . S
C73 C370 2.171 . S
C7 C304 2.171 1_455 S
N530 N200 1.554 1_455 S
N563 N233 1.554 . S
N497 N266 1.554 1_565 S
C238 C535 2.171 1_545 S
C568 C271 2.171 1_455 S
C205 C502 2.171 . S
C21 C582 1.671 . S
C54 C516 1.671 . S
C87 C549 1.671 . S
C252 C120 1.671 . S
C153 C285 1.671 . S
C186 C219 1.671 . S
C318 C450 1.671 1_454 S
C351 C483 1.671 1_554 S
C384 C417 1.671 1_564 S
N79 C18 2.318 . S
C51 N13 2.318 1_565 S
N46 C84 2.318 1_655 S
N145 C117 2.318 . S
C150 N178 2.318 1_545 S
N112 C183 2.318 1_455 S
C216 N277 2.318 . S
N211 C249 2.318 . S
C282 N244 2.318 . S
C315 N343 2.317 . S
N376 C348 2.317 . S
C381 N310 2.318 . S
C414 N475 2.317 . S
N409 C447 2.318 . S
C480 N442 2.317 . S
C513 N541 2.318 . S
N574 C546 2.318 . S
N508 C579 2.318 . S
