# Generated by pormake.
# Topology snk, (6)-cn, num edge types: 1
# Building blocks:
#     Node 0, Type 0, BuildingBlock: FUNLAD_clean_sbu_0, # of connection points: 6
#     Node 1, Type 0, BuildingBlock: FUNLAD_clean_sbu_0, # of connection points: 6
#     Node 2, Type 0, BuildingBlock: FUNLAD_clean_sbu_0, # of connection points: 6
#     Node 3, Type 0, BuildingBlock: FUNLAD_clean_sbu_0, # of connection points: 6
#     Node 4, Type 0, BuildingBlock: FUNLAD_clean_sbu_0, # of connection points: 6
#     Node 5, Type 0, BuildingBlock: FUNLAD_clean_sbu_0, # of connection points: 6
#     Node 6, Type 0, BuildingBlock: FUNLAD_clean_sbu_0, # of connection points: 6
#     Node 7, Type 0, BuildingBlock: FUNLAD_clean_sbu_0, # of connection points: 6
#     Edge 8, Type (0, 0), BuildingBlock: TEMPAE_clean_linker_10, # of connection points: 2
#     Edge 9, Type (0, 0), BuildingBlock: TEMPAE_clean_linker_10, # of connection points: 2
#     Edge 10, Type (0, 0), BuildingBlock: TEMPAE_clean_linker_10, # of connection points: 2
#     Edge 11, Type (0, 0), BuildingBlock: TEMPAE_clean_linker_10, # of connection points: 2
#     Edge 12, Type (0, 0), BuildingBlock: TEMPAE_clean_linker_10, # of connection points: 2
#     Edge 13, Type (0, 0), BuildingBlock: TEMPAE_clean_linker_10, # of connection points: 2
#     Edge 14, Type (0, 0), BuildingBlock: TEMPAE_clean_linker_10, # of connection points: 2
#     Edge 15, Type (0, 0), BuildingBlock: TEMPAE_clean_linker_10, # of connection points: 2
#     Edge 16, Type (0, 0), BuildingBlock: TEMPAE_clean_linker_10, # of connection points: 2
#     Edge 17, Type (0, 0), BuildingBlock: TEMPAE_clean_linker_10, # of connection points: 2
#     Edge 18, Type (0, 0), BuildingBlock: TEMPAE_clean_linker_10, # of connection points: 2
#     Edge 19, Type (0, 0), BuildingBlock: TEMPAE_clean_linker_10, # of connection points: 2
#     Edge 20, Type (0, 0), BuildingBlock: TEMPAE_clean_linker_10, # of connection points: 2
#     Edge 21, Type (0, 0), BuildingBlock: TEMPAE_clean_linker_10, # of connection points: 2
#     Edge 22, Type (0, 0), BuildingBlock: TEMPAE_clean_linker_10, # of connection points: 2
#     Edge 23, Type (0, 0), BuildingBlock: TEMPAE_clean_linker_10, # of connection points: 2
#     Edge 24, Type (0, 0), BuildingBlock: TEMPAE_clean_linker_10, # of connection points: 2
#     Edge 25, Type (0, 0), BuildingBlock: TEMPAE_clean_linker_10, # of connection points: 2
#     Edge 26, Type (0, 0), BuildingBlock: TEMPAE_clean_linker_10, # of connection points: 2
#     Edge 27, Type (0, 0), BuildingBlock: TEMPAE_clean_linker_10, # of connection points: 2
#     Edge 28, Type (0, 0), BuildingBlock: TEMPAE_clean_linker_10, # of connection points: 2
#     Edge 29, Type (0, 0), BuildingBlock: TEMPAE_clean_linker_10, # of connection points: 2
#     Edge 30, Type (0, 0), BuildingBlock: TEMPAE_clean_linker_10, # of connection points: 2
#     Edge 31, Type (0, 0), BuildingBlock: TEMPAE_clean_linker_10, # of connection points: 2
# Relax obj value: 0.241
# Max RMSD: 0.120
# Mean RMSD: 0.089
data_MOF--net-snk--node1-FUNLAD_clean_sbu_0--edge1-TEMPAE_clean_linker_10
_symmetry_space_group_name_H-M    P1
_symmetry_Int_Tables_number       1
_symmetry_cell_setting            triclinic
loop_
_symmetry_equiv_pos_as_xyz
'x, y, z'
_cell_length_a     50.283824
_cell_length_b     50.424241
_cell_length_c     15.228234
_cell_angle_alpha  81.763266
_cell_angle_beta   81.616411
_cell_angle_gamma 94.388636
loop_
_atom_site_label
_atom_site_type_symbol
_atom_site_fract_x
_atom_site_fract_y
_atom_site_fract_z
_atom_type_partial_charge
C0 C 1.02568 0.03042 0.6596 0.0
N1 N 0.07179 0.98309 0.50894 0.0
C2 C 0.09141 0.98849 0.5586 0.0
C3 C 0.10857 0.96904 0.5825 0.0
C4 C 0.10575 0.94368 0.55481 0.0
C5 C 0.08588 0.93894 0.50121 0.0
C6 C 0.06898 0.95894 0.47935 0.0
Zn7 Zn 0.04415 1.01096 0.48883 0.0
C8 C 0.98397 0.98102 0.52883 0.0
N9 N 0.98598 0.06885 0.46066 0.0
C10 C 0.98832 0.09277 0.49194 0.0
C11 C 0.96649 0.06342 0.41058 0.0
C12 C 0.94882 0.08255 0.38854 0.0
C13 C 0.95106 0.10765 0.4183 0.0
C14 C 0.97096 0.11247 0.47175 0.0
Zn15 Zn 1.01368 0.04109 0.48039 0.0
O16 O 0.04126 1.0156 0.6209 0.0
C17 C 0.07384 0.07107 0.44021 0.0
O18 O 1.00996 0.04385 0.61697 0.0
H19 H 0.96494 0.04436 0.38605 0.0
H20 H 0.09337 1.00775 0.58173 0.0
H21 H 1.00405 0.09683 0.53108 0.0
O22 O 0.07853 0.04616 0.45332 0.0
O23 O 0.04876 0.07539 0.44748 0.0
H24 H 0.05315 0.9549 0.44059 0.0
O25 O 1.01823 0.03815 0.34663 0.0
O26 O 0.04672 1.00707 0.35338 0.0
O27 O 0.97939 1.00585 0.51119 0.0
O28 O 1.00896 0.97675 0.52627 0.0
C29 C 0.03313 1.02262 0.30867 0.0
H30 H 0.12383 0.97376 0.62278 0.0
H31 H 0.08281 0.91966 0.47884 0.0
H32 H 0.93358 0.07773 0.34834 0.0
H33 H 0.97362 0.13158 0.4956 0.0
C34 C 0.26067 0.76931 0.94881 0.0
N35 N 0.31006 0.8005 0.70617 0.0
C36 C 0.3128 0.82565 0.72768 0.0
C37 C 0.33528 0.84332 0.68766 0.0
C38 C 0.35508 0.835 0.6249 0.0
C39 C 0.35146 0.80911 0.60278 0.0
C40 C 0.32864 0.79209 0.64444 0.0
Zn41 Zn 0.27678 0.77534 0.75954 0.0
C42 C 0.29324 0.71894 0.80954 0.0
N43 N 0.20798 0.71974 0.84588 0.0
C44 C 0.18803 0.7307 0.89509 0.0
C45 C 0.20275 0.69709 0.81029 0.0
C46 C 0.17609 0.68693 0.8123 0.0
C47 C 0.15497 0.70059 0.85022 0.0
C48 C 0.1611 0.72136 0.89803 0.0
Zn49 Zn 0.2426 0.74393 0.79822 0.0
O50 O 0.27947 0.78234 0.89028 0.0
C51 C 0.22698 0.80101 0.74551 0.0
O52 O 0.24333 0.75319 0.92596 0.0
H53 H 0.21895 0.68883 0.77138 0.0
H54 H 0.29766 0.83187 0.77656 0.0
H55 H 0.19264 0.74878 0.9227 0.0
O56 O 0.25214 0.80736 0.74004 0.0
O57 O 0.21793 0.77634 0.7678 0.0
H58 H 0.32584 0.77206 0.62761 0.0
O59 O 0.24185 0.73494 0.66776 0.0
O60 O 0.27356 0.7687 0.6311 0.0
O61 O 0.26787 0.71194 0.82682 0.0
O62 O 0.30144 0.74342 0.77885 0.0
C63 C 0.25777 0.75114 0.60835 0.0
H64 H 0.33768 0.86289 0.70866 0.0
H65 H 0.36637 0.80194 0.5553 0.0
H66 H 0.17218 0.67091 0.77407 0.0
H67 H 0.14533 0.73227 0.92809 0.0
C68 C 0.52953 0.03864 0.77421 0.0
N69 N 0.48358 0.98223 0.9698 0.0
C70 C 0.46525 0.98892 0.91502 0.0
C71 C 0.45377 0.96959 0.87196 0.0
C72 C 0.46111 0.94337 0.88672 0.0
C73 C 0.47712 0.93609 0.95234 0.0
C74 C 0.48824 0.95617 -0.00586 0.0
Zn75 Zn 0.51234 1.01212 0.97185 0.0
C76 C 0.56689 0.99296 0.92255 0.0
N77 N 0.57431 0.0746 0.93742 0.0
C78 C 0.56897 0.10074 0.92086 0.0
C79 C 0.59423 0.06714 -0.01543 0.0
C80 C 0.60687 0.08554 0.02855 0.0
C81 C 0.59877 0.11153 0.02316 0.0
C82 C 0.58089 0.11977 0.9648 0.0
Zn83 Zn 0.54478 0.0453 0.93659 0.0
O84 O 0.51576 1.02001 0.83113 0.0
C85 C 0.49016 0.06449 -0.01323 0.0
O86 O 0.54454 0.05635 0.7999 0.0
H87 H 0.59778 0.0462 -0.00159 0.0
H88 H 0.4622 1.00976 0.89515 0.0
H89 H 0.5531 0.10617 0.88284 0.0
O90 O 0.48247 0.03977 -0.01065 0.0
O91 O 0.51523 0.07219 0.96765 0.0
H92 H 0.50292 0.95139 0.0378 0.0
O93 O 0.54495 0.03404 0.07615 0.0
O94 O 0.50955 1.00404 0.10941 0.0
O95 O 0.57388 1.0181 0.90407 0.0
O96 O 0.54259 0.98468 0.95644 0.0
C97 C 0.52851 1.01775 0.13406 0.0
H98 H 0.44123 0.97553 0.82178 0.0
H99 H 0.48282 0.91577 0.96509 0.0
H100 H 0.6206 0.07879 0.07378 0.0
H101 H 0.57442 0.13986 0.95981 0.0
C102 C 0.27521 0.28085 0.05719 0.0
N103 N 0.32042 0.23277 0.20842 0.0
C104 C 0.31381 0.21368 0.15834 0.0
C105 C 0.33186 0.19509 0.13595 0.0
C106 C 0.35705 0.19595 0.1655 0.0
C107 C 0.36313 0.21543 0.21902 0.0
C108 C 0.34448 0.23381 0.23947 0.0
Zn109 Zn 0.29377 0.26122 0.22881 0.0
C110 C 0.32481 0.32034 0.18766 0.0
N111 N 0.23775 0.32095 0.25661 0.0
C112 C 0.2134 0.3203 0.22741 0.0
C113 C 0.24574 0.34093 0.30135 0.0
C114 C 0.22905 0.36106 0.31906 0.0
C115 C 0.20369 0.36086 0.29065 0.0
C116 C 0.19602 0.34017 0.24361 0.0
Zn117 Zn 0.26393 0.29182 0.2372 0.0
O118 O 0.29071 0.26595 0.09505 0.0
C119 C 0.233 0.23241 0.27831 0.0
O120 O 0.25968 0.29448 0.10206 0.0
H121 H 0.26514 0.34122 0.32405 0.0
H122 H 0.29463 0.21315 0.13415 0.0
H123 H 0.20736 0.30426 0.19212 0.0
O124 O 0.25788 0.22781 0.2602 0.0
O125 O 0.22875 0.25737 0.27587 0.0
H126 H 0.34943 0.24921 0.27875 0.0
O127 O 0.26882 0.28889 0.36918 0.0
O128 O 0.29674 0.25732 0.36518 0.0
O129 O 0.29991 0.32519 0.20045 0.0
O130 O 0.32898 0.29531 0.19544 0.0
C131 C 0.28352 0.27321 0.40783 0.0
H132 H 0.32614 0.1802 0.09567 0.0
H133 H 0.38239 0.21694 0.24272 0.0
H134 H 0.23606 0.37676 0.35429 0.0
H135 H 0.17656 0.33903 0.22111 0.0
C136 C 0.79182 0.29793 0.38124 0.0
N137 N 0.84312 0.32904 0.14472 0.0
C138 C 0.84794 0.35137 0.18244 0.0
C139 C 0.87445 0.36204 0.18017 0.0
C140 C 0.89582 0.34918 0.13987 0.0
C141 C 0.89005 0.32867 0.09063 0.0
C142 C 0.86325 0.31889 0.09362 0.0
Zn143 Zn 0.80894 0.30417 0.19087 0.0
C144 C 0.82518 0.24761 0.24463 0.0
N145 N 0.74158 0.24688 0.27959 0.0
C146 C 0.72137 0.25519 0.33582 0.0
C147 C 0.74013 0.22161 0.25858 0.0
C148 C 0.71718 0.20385 0.29197 0.0
C149 C 0.69552 0.21226 0.34722 0.0
C150 C 0.69799 0.2381 0.37057 0.0
Zn151 Zn 0.77477 0.27261 0.23022 0.0
O152 O 0.81007 0.31148 0.3222 0.0
C153 C 0.75804 0.32872 0.17743 0.0
O154 O 0.77501 0.28121 0.35883 0.0
H155 H 0.75652 0.21548 0.21412 0.0
H156 H 0.83159 0.35897 0.22289 0.0
H157 H 0.72314 0.27533 0.35242 0.0
O158 O 0.78329 0.33599 0.16755 0.0
O159 O 0.7498 0.30396 0.20275 0.0
H160 H 0.85891 0.30108 0.06421 0.0
O161 O 0.77452 0.26423 0.09886 0.0
O162 O 0.80739 0.2971 0.06207 0.0
O163 O 0.79984 0.24129 0.25763 0.0
O164 O 0.83412 0.272 0.21529 0.0
C165 C 0.79127 0.27972 0.03959 0.0
H166 H 0.87814 0.3778 0.21963 0.0
H167 H 0.90606 0.31836 0.05892 0.0
H168 H 0.7158 0.18432 0.27026 0.0
H169 H 0.68163 0.24532 0.41233 0.0
C170 C 0.77624 0.7804 0.55269 0.0
N171 N 0.82038 0.73159 0.71009 0.0
C172 C 0.81591 0.71465 0.65059 0.0
C173 C 0.83325 0.69497 0.63392 0.0
C174 C 0.85516 0.69166 0.68109 0.0
C175 C 0.85899 0.70917 0.74363 0.0
C176 C 0.84152 0.7292 0.75632 0.0
Zn177 Zn 0.79375 0.76065 0.72733 0.0
C178 C 0.82442 0.82014 0.6873 0.0
N179 N 0.73665 0.81989 0.74828 0.0
C180 C 0.71553 0.82155 0.70171 0.0
C181 C 0.7403 0.8368 0.80855 0.0
C182 C 0.72204 0.85564 0.82588 0.0
C183 C 0.70004 0.85808 0.77861 0.0
C184 C 0.6972 0.84073 0.71495 0.0
Zn185 Zn 0.76364 0.79131 0.73112 0.0
O186 O 0.79082 0.76484 0.59247 0.0
C187 C 0.73286 0.73201 0.77146 0.0
O188 O 0.7613 0.79489 0.5956 0.0
H189 H 0.75731 0.83557 0.84438 0.0
H190 H 0.79884 0.71639 0.61517 0.0
H191 H 0.71287 0.80799 0.654 0.0
O192 O 0.75782 0.72719 0.76223 0.0
O193 O 0.72861 0.75704 0.76085 0.0
H194 H 0.84481 0.74272 0.80363 0.0
O195 O 0.76667 0.78724 0.86574 0.0
O196 O 0.79647 0.75742 0.86262 0.0
O197 O 0.79944 0.8248 0.70121 0.0
O198 O 0.82879 0.79513 0.69286 0.0
C199 C 0.78184 0.77228 0.90508 0.0
H200 H 0.82949 0.68274 0.58335 0.0
H201 H 0.87511 0.70738 0.78335 0.0
H202 H 0.7251 0.86784 0.87715 0.0
H203 H 0.6811 0.84194 0.67496 0.0
C204 C 0.52491 0.52976 0.15523 0.0
N205 N 0.5744 0.48609 -0.001 0.0
C206 C 0.59425 0.49461 0.04346 0.0
C207 C 0.61499 0.47862 0.06041 0.0
C208 C 0.61555 0.45338 0.03166 0.0
C209 C 0.59495 0.44514 -0.01504 0.0
C210 C 0.57446 0.46184 0.96944 0.0
Zn211 Zn 0.54435 0.51145 -0.01873 0.0
C212 C 0.4855 0.47967 0.02572 0.0
N213 N 0.4828 0.56617 0.96063 0.0
C214 C 0.48208 0.59003 -0.00746 0.0
C215 C 0.46307 0.55753 0.91582 0.0
C216 C 0.44169 0.57291 0.90156 0.0
C217 C 0.44035 0.59769 0.93318 0.0
C218 C 0.46097 0.60616 -0.02047 0.0
Zn219 Zn 0.51303 0.54092 0.97793 0.0
O220 O 0.54067 0.51531 0.11524 0.0
C221 C 0.57194 0.5727 0.93323 0.0
O222 O 0.50987 0.54418 0.1129 0.0
H223 H 0.46381 0.53853 0.89093 0.0
H224 H 0.59397 0.51391 0.06654 0.0
H225 H 0.4979 0.59661 0.02798 0.0
O226 O 0.57699 0.54792 0.94282 0.0
O227 O 0.54675 0.57673 0.9447 0.0
H228 H 0.5585 0.45534 0.93443 0.0
O229 O 0.51663 0.53698 0.84403 0.0
O230 O 0.54715 0.50782 0.84668 0.0
O231 O 0.48045 0.50441 0.01159 0.0
O232 O 0.51067 0.4757 0.01913 0.0
C233 C 0.53177 0.52188 0.80467 0.0
H234 H 0.63057 0.48609 0.09534 0.0
H235 H 0.59434 0.42575 0.96218 0.0
H236 H 0.42616 0.56522 0.86684 0.0
H237 H 0.46102 0.62523 0.00441 0.0
C238 C 1.02007 0.52742 0.31303 0.0
N239 N 0.99225 0.47275 0.54617 0.0
C240 C 0.96929 0.46728 0.51229 0.0
C241 C 0.9591 0.44065 0.51543 0.0
C242 C 0.97306 0.41974 0.55242 0.0
C243 C 0.99473 0.42605 0.59633 0.0
C244 C 1.00397 0.45297 0.59289 0.0
Zn245 Zn 1.01436 0.50873 0.50527 0.0
C246 C 0.07276 0.49694 0.4455 0.0
N247 N 0.06651 0.58041 0.42291 0.0
C248 C 0.05491 0.60024 0.37599 0.0
C249 C 0.08916 0.58589 0.45847 0.0
C250 C 0.09893 0.61253 0.45754 0.0
C251 C 0.0849 0.63344 0.42084 0.0
C252 C 0.06379 0.62716 0.37444 0.0
Zn253 Zn 0.04427 0.54442 0.46349 0.0
O254 O 1.00705 0.50896 0.37264 0.0
C255 C 0.9857 0.55576 0.52342 0.0
O256 O 0.03672 0.54455 0.33431 0.0
H257 H 0.09794 0.56977 0.49556 0.0
H258 H 0.96045 0.48336 0.47528 0.0
H259 H 0.03692 0.59538 0.34795 0.0
O260 O 0.98039 0.53033 0.53636 0.0
O261 O 1.00974 0.56598 0.49327 0.0
H262 H 1.02219 0.45784 0.61961 0.0
O263 O 0.05144 0.54427 0.59663 0.0
O264 O 1.02133 0.50899 0.63435 0.0
O265 O 0.07853 0.52236 0.4336 0.0
O266 O 0.04848 0.48738 0.47463 0.0
C267 C 0.03753 0.52639 0.65616 0.0
H268 H 0.94248 0.43655 0.47977 0.0
H269 H 1.00596 0.41042 0.62512 0.0
H270 H 0.11516 0.61654 0.49492 0.0
H271 H 0.05256 0.64277 0.34548 0.0
C272 C 0.09445 0.11983 0.36484 0.0
C273 C 0.09719 0.09475 0.41652 0.0
C274 C 0.1159 0.14155 0.34049 0.0
C275 C 0.14148 0.13988 0.37149 0.0
C276 C 0.14401 0.11471 0.42594 0.0
C277 C 0.12267 0.09284 0.44512 0.0
C278 C 0.11062 0.16629 0.27985 0.0
C279 C 0.16927 0.11032 0.46629 0.0
C280 C 0.2114 0.18403 0.26925 0.0
C281 C 0.20946 0.2089 0.30182 0.0
C282 C 0.18986 0.16237 0.28864 0.0
C283 C 0.16507 0.16387 0.34729 0.0
C284 C 0.16337 0.18883 0.38219 0.0
C285 C 0.18472 0.21067 0.35769 0.0
C286 C 0.19418 0.13789 0.24399 0.0
C287 C 0.13903 0.19301 0.4473 0.0
H288 H 0.07543 0.12242 0.3407 0.0
H289 H 0.12589 0.07417 0.48536 0.0
H290 H 0.09925 0.17942 0.321 0.0
H291 H 0.12949 0.17797 0.24262 0.0
H292 H 0.09784 0.1607 0.23035 0.0
H293 H 0.16422 0.09802 0.53421 0.0
H294 H 0.18239 0.09886 0.42374 0.0
H295 H 0.18081 0.12947 0.47201 0.0
H296 H 0.22983 0.18155 0.22583 0.0
H297 H 0.18214 0.22917 0.38505 0.0
H298 H 0.17493 0.12635 0.23893 0.0
H299 H 0.20623 0.12453 0.28322 0.0
H300 H 0.20593 0.14376 0.17533 0.0
H301 H 0.12522 0.20465 0.41004 0.0
H302 H 0.14511 0.20504 0.49807 0.0
H303 H 0.12783 0.17377 0.48304 0.0
C304 C 0.13426 0.90606 0.52307 0.0
C305 C 0.12296 0.92219 0.58377 0.0
C306 C 0.15076 0.88599 0.54964 0.0
C307 C 0.15595 0.88171 0.63938 0.0
C308 C 0.14429 0.89767 0.70124 0.0
C309 C 0.12807 0.91772 0.67268 0.0
C310 C 0.16294 0.86961 0.4813 0.0
C311 C 0.14901 0.89361 0.79772 0.0
C312 C 0.18073 0.81481 0.72849 0.0
C313 C 0.20862 0.8218 0.72164 0.0
C314 C 0.16335 0.83404 0.70235 0.0
C315 C 0.17406 0.86098 0.6681 0.0
C316 C 0.20217 0.86817 0.66143 0.0
C317 C 0.21905 0.84857 0.6884 0.0
C318 C 0.13353 0.82548 0.71097 0.0
C319 C 0.21449 0.89658 0.62491 0.0
H320 H 0.13062 0.90948 0.45412 0.0
H321 H 0.11909 0.92975 0.7205 0.0
H322 H 0.18531 0.87264 0.47306 0.0
H323 H 0.1569 0.84785 0.50513 0.0
H324 H 0.15666 0.87511 0.41462 0.0
H325 H 0.13801 0.90724 0.838 0.0
H326 H 0.14243 0.87248 0.82949 0.0
H327 H 0.1709 0.89727 0.80028 0.0
H328 H 0.17242 0.7942 0.75386 0.0
H329 H 0.24056 0.8542 0.68235 0.0
H330 H 0.12705 0.82901 0.64403 0.0
H331 H 0.12178 0.83779 0.75437 0.0
H332 H 0.12833 0.80387 0.73985 0.0
H333 H 0.21033 0.90241 0.55554 0.0
H334 H 0.23669 0.89893 0.62377 0.0
H335 H 0.20516 0.91082 0.66642 0.0
C336 C 0.40511 0.84049 0.60765 0.0
C337 C 0.38102 0.85183 0.5955 0.0
C338 C 0.42733 0.85659 0.62325 0.0
C339 C 0.42461 0.88397 0.62889 0.0
C340 C 0.40296 0.8963 0.5958 0.0
C341 C 0.38119 0.87989 0.57895 0.0
C342 C 0.45151 0.84345 0.6497 0.0
C343 C 0.40044 0.92596 0.59427 0.0
C344 C 0.43337 0.90514 0.85105 0.0
C345 C 0.45485 0.92509 0.82488 0.0
C346 C 0.42422 0.89065 0.78791 0.0
C347 C 0.43732 0.89622 0.69691 0.0
C348 C 0.46033 0.9152 0.67191 0.0
C349 C 0.46865 0.92974 0.73644 0.0
C350 C 0.39953 0.87053 0.81801 0.0
C351 C 0.47548 0.92138 0.57709 0.0
H352 H 0.4055 0.81882 0.61731 0.0
H353 H 0.36297 0.88873 0.56489 0.0
H354 H 0.47014 0.85764 0.62997 0.0
H355 H 0.44841 0.83741 0.72376 0.0
H356 H 0.45435 0.8251 0.61821 0.0
H357 H 0.38519 0.9331 0.55278 0.0
H358 H 0.39413 0.92983 0.66388 0.0
H359 H 0.42014 0.93785 0.56746 0.0
H360 H 0.42291 0.90191 0.9198 0.0
H361 H 0.48541 0.94537 0.71712 0.0
H362 H 0.40425 0.85035 0.80324 0.0
H363 H 0.38299 0.87668 0.78104 0.0
H364 H 0.39199 0.86871 0.89114 0.0
H365 H 0.49756 0.92443 0.57783 0.0
H366 H 0.4695 0.94048 0.54322 0.0
H367 H 0.47153 0.90524 0.53685 0.0
C368 C 0.4431 0.07513 0.04059 0.0
C369 C 0.47046 0.08395 0.00954 0.0
C370 C 0.42457 0.09322 0.06626 0.0
C371 C 0.43352 0.12085 0.06033 0.0
C372 C 0.46104 0.12992 0.02813 0.0
C373 C 0.47916 0.11139 0.0034 0.0
C374 C 0.39542 0.08271 0.10051 0.0
C375 C 0.4714 0.15921 0.02017 0.0
C376 C 0.38123 0.17153 0.05014 0.0
C377 C 0.37694 0.17694 0.13875 0.0
C378 C 0.39964 0.15346 0.02369 0.0
C379 C 0.41408 0.14029 0.08743 0.0
C380 C 0.40993 0.14572 0.17694 0.0
C381 C 0.39151 0.16405 0.20142 0.0
C382 C 0.40366 0.1485 0.92739 0.0
C383 C 0.42481 0.132 0.24705 0.0
H384 H 0.43618 0.05398 0.04594 0.0
H385 H 0.50024 0.11844 -0.02043 0.0
H386 H 0.38953 0.08704 0.16973 0.0
H387 H 0.38211 0.09315 0.05781 0.0
H388 H 0.39167 0.06068 0.10122 0.0
H389 H 0.49331 0.16308 -0.00707 0.0
H390 H 0.46015 0.17186 0.97558 0.0
H391 H 0.46792 0.16577 0.08706 0.0
H392 H 0.37038 0.18172 0.00093 0.0
H393 H 0.38814 0.16794 0.27015 0.0
H394 H 0.39859 0.12684 0.92501 0.0
H395 H 0.42518 0.15367 0.89679 0.0
H396 H 0.39102 0.16047 0.88592 0.0
H397 H 0.42019 0.10984 0.25466 0.0
H398 H 0.41937 0.13842 0.31362 0.0
H399 H 0.44693 0.1365 0.22534 0.0
C400 C 0.93552 0.95905 0.52031 0.0
C401 C 0.96056 0.9574 0.55213 0.0
C402 C 0.91413 0.93723 0.53917 0.0
C403 C 0.91614 0.91242 0.59641 0.0
C404 C 0.94125 0.91102 0.6306 0.0
C405 C 0.9628 0.93265 0.60666 0.0
C406 C 0.88941 0.94127 0.49544 0.0
C407 C 0.94593 0.88668 0.69427 0.0
C408 C 0.84568 0.86879 0.69467 0.0
C409 C 0.84798 0.84361 0.66453 0.0
C410 C 0.86725 0.89041 0.6758 0.0
C411 C 0.89248 0.8885 0.6201 0.0
C412 C 0.89457 0.86322 0.58761 0.0
C413 C 0.87314 0.84146 0.61162 0.0
C414 C 0.86248 0.9153 0.71774 0.0
C415 C 0.91942 0.85859 0.52561 0.0
H416 H 0.9327 0.97745 0.47784 0.0
H417 H 0.98147 0.93027 0.6333 0.0
H418 H 0.87807 0.92198 0.48999 0.0
H419 H 0.87587 0.953 0.53554 0.0
H420 H 0.89507 0.95317 0.42703 0.0
H421 H 0.95813 0.89269 0.74473 0.0
H422 H 0.92681 0.87523 0.73043 0.0
H423 H 0.95766 0.87318 0.65572 0.0
H424 H 0.82691 0.87156 0.73577 0.0
H425 H 0.876 0.82271 0.58617 0.0
H426 H 0.85085 0.92839 0.67593 0.0
H427 H 0.88156 0.92694 0.72394 0.0
H428 H 0.85013 0.90989 0.78563 0.0
H429 H 0.93084 0.87766 0.48927 0.0
H430 H 0.91391 0.84609 0.47533 0.0
H431 H 0.93284 0.84726 0.56554 0.0
C432 C 0.92185 0.1444 0.45442 0.0
C433 C 0.9331 0.12874 0.39205 0.0
C434 C 0.90464 0.16405 0.4305 0.0
C435 C 0.89855 0.16833 0.34185 0.0
C436 C 0.91007 0.1528 0.27833 0.0
C437 C 0.92712 0.13323 0.30416 0.0
C438 C 0.8927 0.18005 0.50045 0.0
C439 C 0.90435 0.15683 0.18296 0.0
C440 C 0.83417 0.2003 0.30106 0.0
C441 C 0.84403 0.22716 0.26691 0.0
C442 C 0.85166 0.18102 0.32561 0.0
C443 C 0.87977 0.18868 0.31588 0.0
C444 C 0.88989 0.21574 0.28103 0.0
C445 C 0.87194 0.2346 0.25697 0.0
C446 C 0.83999 0.15244 0.36254 0.0
C447 C 0.91968 0.22482 0.26953 0.0
H448 H 0.92612 0.14095 0.52264 0.0
H449 H 0.93604 0.1216 0.25498 0.0
H450 H 0.89814 0.2019 0.4767 0.0
H451 H 0.87033 0.17649 0.51115 0.0
H452 H 0.89977 0.17466 0.56591 0.0
H453 H 0.91517 0.14343 0.14129 0.0
H454 H 0.88235 0.15284 0.18282 0.0
H455 H 0.91042 0.17804 0.1511 0.0
H456 H 0.81267 0.19432 0.30927 0.0
H457 H 0.87982 0.2553 0.23095 0.0
H458 H 0.8449 0.14663 0.43097 0.0
H459 H 0.84919 0.13843 0.31978 0.0
H460 H 0.81771 0.14969 0.36606 0.0
H461 H 0.92689 0.22114 0.33526 0.0
H462 H 0.92433 0.24655 0.24149 0.0
H463 H 0.93125 0.21294 0.2241 0.0
C464 C 0.66795 0.16793 0.38079 0.0
C465 C 0.66909 0.19608 0.36362 0.0
C466 C 0.64787 0.15221 0.35161 0.0
C467 C 0.62905 0.16529 0.30474 0.0
C468 C 0.62653 0.1929 0.30678 0.0
C469 C 0.64686 0.20821 0.33621 0.0
C470 C 0.64983 0.12236 0.35635 0.0
C471 C 0.60542 0.2071 0.26285 0.0
C472 C 0.62919 0.14412 0.077 0.0
C473 C 0.60497 0.12773 0.09089 0.0
C474 C 0.63679 0.15704 0.14604 0.0
C475 C 0.61962 0.15315 0.23074 0.0
C476 C 0.59465 0.13712 0.24385 0.0
C477 C 0.58767 0.1244 0.17339 0.0
C478 C 0.66365 0.17412 0.12889 0.0
C479 C 0.57582 0.13227 0.33252 0.0
H480 H 0.68463 0.15849 0.40572 0.0
H481 H 0.6472 0.22997 0.32522 0.0
H482 H 0.62945 0.11118 0.36801 0.0
H483 H 0.66072 0.1184 0.29143 0.0
H484 H 0.66107 0.11454 0.41061 0.0
H485 H 0.61258 0.21218 0.1894 0.0
H486 H 0.58611 0.19399 0.27328 0.0
H487 H 0.60169 0.22611 0.28946 0.0
H488 H 0.64245 0.1462 0.01298 0.0
H489 H 0.56905 0.11118 0.18353 0.0
H490 H 0.67713 0.16542 0.17453 0.0
H491 H 0.6607 0.1948 0.14261 0.0
H492 H 0.67404 0.17554 0.05857 0.0
H493 H 0.57774 0.14925 0.37088 0.0
H494 H 0.58066 0.11386 0.37397 0.0
H495 H 0.55447 0.12891 0.32224 0.0
C496 C 0.68841 0.90243 0.82618 0.0
C497 C 0.68028 0.87835 0.79644 0.0
C498 C 0.66992 0.92094 0.84769 0.0
C499 C 0.64272 0.91606 0.83556 0.0
C500 C 0.63444 0.89237 0.80281 0.0
C501 C 0.6531 0.87361 0.78541 0.0
C502 C 0.67949 0.94563 0.88452 0.0
C503 C 0.6058 0.88677 0.78627 0.0
C504 C 0.58822 0.95078 0.96367 0.0
C505 C 0.58641 0.97352 0.90108 0.0
C506 C 0.60674 0.93211 0.94376 0.0
C507 C 0.62295 0.93571 0.85773 0.0
C508 C 0.62057 0.95835 0.79348 0.0
C509 C 0.60273 0.97729 0.81665 0.0
C510 C 0.60927 0.90881 0.01526 0.0
C511 C 0.6366 0.96238 0.69988 0.0
H512 H 0.70934 0.90704 0.83274 0.0
H513 H 0.64613 0.85505 0.76426 0.0
H514 H 0.67726 0.96407 0.83803 0.0
H515 H 0.66684 0.9466 0.9499 0.0
H516 H 0.70095 0.94581 0.89448 0.0
H517 H 0.60307 0.86851 0.75419 0.0
H518 H 0.59167 0.88394 0.85072 0.0
H519 H 0.60002 0.90422 0.7424 0.0
H520 H 0.57555 0.94793 0.02898 0.0
H521 H 0.60095 0.99469 0.76779 0.0
H522 H 0.63047 0.90908 0.02792 0.0
H523 H 0.60417 0.88947 -0.00797 0.0
H524 H 0.59586 0.90939 0.07961 0.0
H525 H 0.65851 0.96517 0.70299 0.0
H526 H 0.63122 0.98013 0.65625 0.0
H527 H 0.63303 0.94422 0.66812 0.0
C528 C 0.62028 0.59406 0.85546 0.0
C529 C 0.59525 0.59637 0.90884 0.0
C530 C 0.64182 0.61566 0.83095 0.0
C531 C 0.64006 0.64091 0.86374 0.0
C532 C 0.61494 0.64302 0.91986 0.0
C533 C 0.59318 0.62157 0.93901 0.0
C534 C 0.66643 0.61085 0.76816 0.0
C535 C 0.61051 0.66789 0.96221 0.0
C536 C 0.71118 0.68378 0.84825 0.0
C537 C 0.70912 0.70876 0.79491 0.0
C538 C 0.68931 0.6625 0.87274 0.0
C539 C 0.66401 0.66453 0.84003 0.0
C540 C 0.66218 0.68959 0.78388 0.0
C541 C 0.6839 0.71107 0.76477 0.0
C542 C 0.69384 0.6379 0.93551 0.0
C543 C 0.63731 0.69427 0.74156 0.0
H544 H 0.62295 0.57526 0.83013 0.0
H545 H 0.57454 0.62442 -0.01934 0.0
H546 H 0.67806 0.62984 0.73209 0.0
H547 H 0.67976 0.59915 0.80736 0.0
H548 H 0.66058 0.59862 0.71761 0.0
H549 H 0.59852 0.66245 0.03065 0.0
H550 H 0.62971 0.67952 0.96731 0.0
H551 H 0.59864 0.681 0.92143 0.0
H552 H 0.72997 0.68095 0.8737 0.0
H553 H 0.68122 0.72971 0.72329 0.0
H554 H 0.70554 0.62452 0.89636 0.0
H555 H 0.67469 0.62645 0.97136 0.0
H556 H 0.70607 0.64365 -0.01375 0.0
H557 H 0.62551 0.67522 0.73621 0.0
H558 H 0.64289 0.70624 0.67324 0.0
H559 H 0.62425 0.70618 0.78253 0.0
C560 C 0.71033 0.33946 0.17404 0.0
C561 C 0.73808 0.34823 0.15725 0.0
C562 C 0.69094 0.35692 0.15273 0.0
C563 C 0.69931 0.38399 0.11335 0.0
C564 C 0.72726 0.3931 0.09663 0.0
C565 C 0.7463 0.37514 0.11884 0.0
C566 C 0.66142 0.34631 0.17213 0.0
C567 C 0.73703 0.42179 0.05478 0.0
C568 C 0.64929 0.4211 -0.01252 0.0
C569 C 0.6373 0.4358 0.05167 0.0
C570 C 0.66984 0.40463 0.00587 0.0
C571 C 0.67866 0.40266 0.09067 0.0
C572 C 0.66675 0.41755 0.15551 0.0
C573 C 0.64628 0.43385 0.13534 0.0
C574 C 0.68198 0.38913 0.93477 0.0
C575 C 0.67532 0.41591 0.24698 0.0
H576 H 0.70364 0.31875 0.20376 0.0
H577 H 0.76764 0.38211 0.10525 0.0
H578 H 0.65009 0.35821 0.21806 0.0
H579 H 0.65267 0.34854 0.10899 0.0
H580 H 0.65821 0.32476 0.20324 0.0
H581 H 0.75937 0.4258 0.04617 0.0
H582 H 0.73056 0.42628 -0.01192 0.0
H583 H 0.72783 0.43587 0.09726 0.0
H584 H 0.6428 0.42269 0.92228 0.0
H585 H 0.63694 0.44475 0.18605 0.0
H586 H 0.67809 0.36719 0.95973 0.0
H587 H 0.70421 0.39409 0.9201 0.0
H588 H 0.67361 0.39352 0.87122 0.0
H589 H 0.67083 0.39498 0.28335 0.0
H590 H 0.66491 0.42957 0.2886 0.0
H591 H 0.69745 0.42114 0.23977 0.0
C592 C 0.99169 0.38494 0.46943 0.0
C593 C 0.96962 0.39339 0.52233 0.0
C594 C 0.9875 0.36887 0.40401 0.0
C595 C 0.96076 0.36143 0.39237 0.0
C596 C 0.93884 0.36537 0.4577 0.0
C597 C 0.94359 0.38153 0.52223 0.0
C598 C 1.01148 0.36349 0.33951 0.0
C599 C 0.90996 0.35637 0.45082 0.0
C600 C 0.9337 0.37736 0.17856 0.0
C601 C 0.92197 0.35183 0.17224 0.0
C602 C 0.95031 0.38052 0.24312 0.0
C603 C 0.95488 0.3575 0.30246 0.0
C604 C 0.947 0.33149 0.28541 0.0
C605 C 0.93051 0.32892 0.21994 0.0
C606 C 0.95948 0.40875 0.25618 0.0
C607 C 0.95268 0.3064 0.34358 0.0
H608 H 1.012 0.39372 0.47046 0.0
H609 H 0.92666 0.3876 0.56491 0.0
H610 H 1.00726 0.34493 0.31054 0.0
H611 H 1.01641 0.38065 0.28352 0.0
H612 H 0.02952 0.36159 0.37342 0.0
H613 H 0.89592 0.35762 0.51325 0.0
H614 H 0.90351 0.36938 0.39416 0.0
H615 H 0.90812 0.33534 0.43729 0.0
H616 H 0.92743 0.39497 0.14021 0.0
H617 H 0.9217 0.30903 0.21447 0.0
H618 H 0.98089 0.41027 0.26635 0.0
H619 H 0.94712 0.41382 0.31695 0.0
H620 H 0.95738 0.42397 0.19781 0.0
H621 H 0.97078 0.30991 0.37579 0.0
H622 H 0.95561 0.28983 0.30336 0.0
H623 H 0.93506 0.29963 0.39723 0.0
C624 C 0.90117 0.67384 0.6742 0.0
C625 C 0.8738 0.67031 0.66414 0.0
C626 C 0.91887 0.65428 0.65592 0.0
C627 C 0.90938 0.63093 0.62346 0.0
C628 C 0.88189 0.62712 0.6133 0.0
C629 C 0.8644 0.64644 0.63556 0.0
C630 C 0.94786 0.65879 0.6703 0.0
C631 C 0.87104 0.60289 0.57672 0.0
C632 C 0.96229 0.59673 0.48648 0.0
C633 C 0.96477 0.57368 0.54684 0.0
C634 C 0.94383 0.61511 0.50974 0.0
C635 C 0.92837 0.61097 0.59706 0.0
C636 C 0.93112 0.58781 0.65871 0.0
C637 C 0.94891 0.56914 0.63216 0.0
C638 C 0.94092 0.63897 0.44083 0.0
C639 C 0.91592 0.58319 0.75355 0.0
H640 H 0.90909 0.69215 0.69477 0.0
H641 H 0.84328 0.64272 0.63001 0.0
H642 H 0.9536 0.64069 0.71109 0.0
H643 H 0.96147 0.6621 0.60469 0.0
H644 H 0.95139 0.67645 0.7046 0.0
H645 H 0.8493 0.60316 0.5708 0.0
H646 H 0.8826 0.6022 0.50932 0.0
H647 H 0.87366 0.58411 0.62089 0.0
H648 H 0.97472 0.60027 0.42065 0.0
H649 H 0.95129 0.55157 0.67942 0.0
H650 H 0.94747 0.65792 0.46404 0.0
H651 H 0.9194 0.63965 0.43257 0.0
H652 H 0.95308 0.6383 0.37427 0.0
H653 H 0.92075 0.60065 0.78731 0.0
H654 H 0.92094 0.56464 0.79406 0.0
H655 H 0.89385 0.58153 0.75274 0.0
C656 C 0.34664 0.36881 0.19391 0.0
C657 C 0.34856 0.34355 0.16411 0.0
C658 C 0.36849 0.39013 0.17472 0.0
C659 C 0.39359 0.38782 0.11897 0.0
C660 C 0.39528 0.36246 0.0868 0.0
C661 C 0.3736 0.34099 0.11123 0.0
C662 C 0.36414 0.41513 0.21646 0.0
C663 C 0.41997 0.35745 0.02476 0.0
C664 C 0.43711 0.45787 0.01789 0.0
C665 C 0.46221 0.456 0.04913 0.0
C666 C 0.41558 0.43624 0.0372 0.0
C667 C 0.41748 0.41145 0.09457 0.0
C668 C 0.44268 0.4098 0.12815 0.0
C669 C 0.4644 0.43125 0.10359 0.0
C670 C 0.39081 0.44048 -0.00611 0.0
C671 C 0.44725 0.38543 0.19188 0.0
H672 H 0.32798 0.37185 0.23508 0.0
H673 H 0.37615 0.32213 0.08616 0.0
H674 H 0.38338 0.42666 0.22176 0.0
H675 H 0.35244 0.42828 0.17512 0.0
H676 H 0.35202 0.40986 0.28473 0.0
H677 H 0.41423 0.34487 0.97497 0.0
H678 H 0.43153 0.37637 -0.01217 0.0
H679 H 0.43333 0.34607 0.06477 0.0
H680 H 0.43435 0.47632 0.97554 0.0
H681 H 0.48311 0.42876 0.12987 0.0
H682 H 0.37745 0.45234 0.03407 0.0
H683 H 0.37928 0.42126 -0.01128 0.0
H684 H 0.39645 0.45231 0.92538 0.0
H685 H 0.4281 0.37407 0.22811 0.0
H686 H 0.4595 0.39141 0.24227 0.0
H687 H 0.4589 0.37188 0.15337 0.0
C688 C 0.40573 0.6285 -0.01667 0.0
C689 C 0.41767 0.61447 0.91701 0.0
C690 C 0.38436 0.64425 0.96852 0.0
C691 C 0.37456 0.64608 0.88537 0.0
C692 C 0.3863 0.63176 0.81857 0.0
C693 C 0.40767 0.61626 0.83502 0.0
C694 C 0.37251 0.65924 0.0415 0.0
C695 C 0.37665 0.63323 0.72879 0.0
C696 C 0.30591 0.67263 0.86616 0.0
C697 C 0.31357 0.6996 0.82734 0.0
C698 C 0.32546 0.65492 0.88552 0.0
C699 C 0.35333 0.6644 0.8658 0.0
C700 C 0.3611 0.69154 0.82623 0.0
C701 C 0.34125 0.70869 0.80747 0.0
C702 C 0.31633 0.6261 0.92735 0.0
C703 C 0.3905 0.70258 0.80395 0.0
H704 H 0.41294 0.627 0.04736 0.0
H705 H 0.41692 0.60591 0.78261 0.0
H706 H 0.37583 0.68124 0.01727 0.0
H707 H 0.35036 0.65381 0.05831 0.0
H708 H 0.38156 0.65487 0.10369 0.0
H709 H 0.38676 0.61968 0.68598 0.0
H710 H 0.35451 0.62775 0.73866 0.0
H711 H 0.38065 0.65417 0.69229 0.0
H712 H 0.28465 0.66539 0.88198 0.0
H713 H 0.34755 0.72946 0.77751 0.0
H714 H 0.32353 0.62161 -0.00713 0.0
H715 H 0.32533 0.61225 0.88354 0.0
H716 H 0.294 0.62178 0.9383 0.0
H717 H 0.39993 0.70033 0.86572 0.0
H718 H 0.39321 0.72419 0.77353 0.0
H719 H 0.40157 0.69099 0.75636 0.0
C720 C 0.11717 0.67321 0.8077 0.0
C721 C 0.12903 0.6985 0.81607 0.0
C722 C 0.10146 0.67056 0.74029 0.0
C723 C 0.09781 0.69388 0.68064 0.0
C724 C 0.10538 0.71966 0.70018 0.0
C725 C 0.12106 0.72171 0.76816 0.0
C726 C 0.0925 0.64256 0.72466 0.0
C727 C 0.10041 0.74506 0.64212 0.0
C728 C 0.11308 0.67131 0.45932 0.0
C729 C 0.08745 0.65948 0.45376 0.0
C730 C 0.11648 0.68693 0.52645 0.0
C731 C 0.09359 0.69049 0.58856 0.0
C732 C 0.0674 0.6832 0.57139 0.0
C733 C 0.06458 0.66758 0.50369 0.0
C734 C 0.14486 0.69576 0.53931 0.0
C735 C 0.04245 0.6883 0.63208 0.0
H736 H 0.12285 0.65535 0.84645 0.0
H737 H 0.12984 0.74146 0.77535 0.0
H738 H 0.0714 0.64134 0.71121 0.0
H739 H 0.10556 0.63766 0.66501 0.0
H740 H 0.09378 0.62705 0.78319 0.0
H741 H 0.09679 0.76131 0.68328 0.0
H742 H 0.1186 0.75212 0.59109 0.0
H743 H 0.08293 0.74183 0.6067 0.0
H744 H 0.13067 0.66559 0.41883 0.0
H745 H 0.04457 0.6589 0.49843 0.0
H746 H 0.15032 0.68249 0.59735 0.0
H747 H 0.14628 0.71667 0.55397 0.0
H748 H 0.15991 0.69473 0.47903 0.0
H749 H 0.03633 0.67065 0.68573 0.0
H750 H 1.02537 0.691 0.59391 0.0
H751 H 0.04606 0.70633 0.66442 0.0
C752 C 0.18283 0.39048 0.39585 0.0
C753 C 0.18538 0.3819 0.31147 0.0
C754 C 0.16567 0.41019 0.41698 0.0
C755 C 0.15058 0.42173 0.35231 0.0
C756 C 0.15322 0.41338 0.26671 0.0
C757 C 0.17051 0.39356 0.24741 0.0
C758 C 0.1633 0.41827 0.50932 0.0
C759 C 0.13753 0.42518 0.19579 0.0
C760 C 0.08554 0.45026 0.43765 0.0
C761 C 0.09328 0.47813 0.42324 0.0
C762 C 0.10392 0.43185 0.41461 0.0
C763 C 0.13091 0.44136 0.37618 0.0
C764 C 0.13898 0.46943 0.36172 0.0
C765 C 0.12008 0.4875 0.38542 0.0
C766 C 0.09435 0.40215 0.43132 0.0
C767 C 0.16757 0.48037 0.32086 0.0
H768 H 0.19389 0.38136 0.44635 0.0
H769 H 0.17258 0.38736 0.18168 0.0
H770 H 0.16763 0.44041 0.50364 0.0
H771 H 0.14232 0.41286 0.54524 0.0
H772 H 0.1773 0.40833 0.55058 0.0
H773 H 0.14264 0.41738 0.1314 0.0
H774 H 0.11555 0.42037 0.21994 0.0
H775 H 0.14164 0.44744 0.18294 0.0
H776 H 0.06491 0.44268 0.4667 0.0
H777 H 0.12625 0.50894 0.37372 0.0
H778 H 0.10639 0.39113 0.47734 0.0
H779 H 0.09743 0.39387 0.36731 0.0
H780 H 0.07264 0.39805 0.46116 0.0
H781 H 0.1819 0.47164 0.36318 0.0
H782 H 0.17068 0.50267 0.31371 0.0
H783 H 0.17266 0.47436 0.25358 0.0
C784 C 0.05218 0.03199 0.78148 0.0
C785 C 1.02698 0.03213 0.753 0.0
C786 C 0.05419 0.03084 0.87199 0.0
C787 C 0.03028 0.0292 0.93467 0.0
C788 C 1.00475 0.02978 0.90611 0.0
C789 C 1.00342 0.03162 0.81447 0.0
C790 C 0.08176 0.0311 0.90053 0.0
C791 C 0.97893 0.02773 0.97237 0.0
C792 C 0.03408 1.0004 0.17403 0.0
C793 C 0.03487 1.0239 0.21241 0.0
C794 C 0.03234 1.00177 0.0828 0.0
C795 C 0.03216 0.02728 0.03024 0.0
C796 C 0.03409 0.0511 0.06845 0.0
C797 C 0.03511 0.04907 0.15986 0.0
C798 C 0.02996 0.97605 0.04324 0.0
C799 C 0.03478 0.07863 0.01317 0.0
H800 H 0.07035 0.0326 0.73273 0.0
H801 H 0.98401 0.03149 0.79132 0.0
H802 H 0.08483 0.0478 0.93933 0.0
H803 H 0.08323 1.01205 0.94528 0.0
H804 H 0.09834 0.03349 0.84231 0.0
H805 H 0.96075 0.02822 0.93879 0.0
H806 H 0.97701 1.0087 0.02055 0.0
H807 H 0.97944 0.04454 0.01196 0.0
H808 H 0.03367 0.98103 0.21597 0.0
H809 H 0.03595 0.06718 0.19063 0.0
H810 H 0.04682 0.97634 -0.01278 0.0
H811 H 1.01088 0.97439 0.01492 0.0
H812 H 0.03019 0.95788 0.09381 0.0
H813 H 0.05154 0.08145 0.95555 0.0
H814 H 0.03744 0.09514 0.05318 0.0
H815 H 1.01572 0.0804 -0.01488 0.0
C816 C 0.25452 0.7304 0.47115 0.0
C817 C 0.25554 0.75312 0.51361 0.0
C818 C 0.25496 0.73338 0.37801 0.0
C819 C 0.2557 0.75956 0.32861 0.0
C820 C 0.25547 0.78236 0.37254 0.0
C821 C 0.25569 0.77885 0.46467 0.0
C822 C 0.25545 0.70875 0.33216 0.0
C823 C 0.2554 0.81046 0.3222 0.0
C824 C 0.28344 0.77257 0.08088 0.0
C825 C 0.2596 0.77055 0.04423 0.0
C826 C 0.28248 0.76872 0.17412 0.0
C827 C 0.25707 0.76338 0.23055 0.0
C828 C 0.23292 0.76254 0.19351 0.0
C829 C 0.23451 0.76592 0.10036 0.0
C830 C 0.30857 0.76957 0.21224 0.0
C831 C 0.2055 0.75767 0.25214 0.0
H832 H 0.25442 0.7106 0.50999 0.0
H833 H 0.25604 0.79632 0.49878 0.0
H834 H 0.23818 0.70736 0.29474 0.0
H835 H 0.27421 0.71042 0.28243 0.0
H836 H 0.25451 0.68986 0.38057 0.0
H837 H 0.25367 0.8258 0.36782 0.0
H838 H 0.27431 0.81595 0.27325 0.0
H839 H 0.23834 0.81128 0.28349 0.0
H840 H 0.30279 0.77577 0.03691 0.0
H841 H 0.21611 0.76444 0.07124 0.0
H842 H 0.30978 0.75009 0.2551 0.0
H843 H 0.30916 0.78545 0.25554 0.0
H844 H 0.32662 0.77359 0.15888 0.0
H845 H 0.20338 0.73766 0.29504 0.0
H846 H 0.1887 0.75844 0.21211 0.0
H847 H 0.20341 0.77296 0.29768 0.0
C848 C 0.52785 0.05794 0.61565 0.0
C849 C 0.53125 0.03623 0.67954 0.0
C850 C 0.5278 0.05444 0.52602 0.0
C851 C 0.53204 0.02889 0.50092 0.0
C852 C 0.53645 1.00724 0.56521 0.0
C853 C 0.53562 1.01111 0.65428 0.0
C854 C 0.52213 0.07765 0.4593 0.0
C855 C 0.54192 0.98001 0.54009 0.0
C856 C 0.50679 1.01054 0.2938 0.0
C857 C 0.53008 1.01743 0.22941 0.0
C858 C 0.50713 1.01425 0.38291 0.0
C859 C 0.53147 1.02453 0.40765 0.0
C860 C 0.55531 0.03044 0.34365 0.0
C861 C 0.55426 0.02702 0.2548 0.0
C862 C 0.48126 1.00815 0.44967 0.0
C863 C 0.58171 0.04093 0.36857 0.0
H864 H 0.5243 0.07723 0.63638 0.0
H865 H 0.53857 0.99449 0.7045 0.0
H866 H 0.53654 0.07982 0.39566 0.0
H867 H 0.50157 0.07359 0.44287 0.0
H868 H 0.52322 0.09701 0.48607 0.0
H869 H 0.56009 0.9822 0.48764 0.0
H870 H 0.54519 0.96541 0.59856 0.0
H871 H 0.52475 0.9715 0.51131 0.0
H872 H 0.48802 1.00346 0.27372 0.0
H873 H 0.57228 0.03231 0.20475 0.0
H874 H 0.47557 0.0269 0.47459 0.0
H875 H 0.48418 0.99368 0.50873 0.0
H876 H 0.46425 0.99962 0.41995 0.0
H877 H 0.57967 0.06068 0.39158 0.0
H878 H 0.59862 0.04347 0.31133 0.0
H879 H 0.58696 0.02692 0.42515 0.0
C880 C 0.25307 0.28197 0.9223 0.0
C881 C 0.27658 0.2826 0.96086 0.0
C882 C 0.25453 0.28021 0.83102 0.0
C883 C 0.28014 0.27984 0.77859 0.0
C884 C 0.30398 0.28161 0.81699 0.0
C885 C 0.30185 0.28267 0.90842 0.0
C886 C 0.22879 0.27802 0.79125 0.0
C887 C 0.33163 0.28207 0.76189 0.0
C888 C 0.2845 0.25105 0.56274 0.0
C889 C 0.28525 0.27453 0.50123 0.0
C890 C 0.28259 0.25242 0.6544 0.0
C891 C 0.28216 0.27792 0.68297 0.0
C892 C 0.28406 0.30173 0.62026 0.0
C893 C 0.28529 0.29969 0.52972 0.0
C894 C 0.28028 0.22671 0.72067 0.0
C895 C 0.28449 0.32925 0.64879 0.0
H896 H 0.23362 0.2817 0.96413 0.0
H897 H 0.31998 0.28338 0.93931 0.0
H898 H 0.22927 0.29481 0.73518 0.0
H899 H 0.22701 0.25898 0.76296 0.0
H900 H 0.21054 0.27843 0.84169 0.0
H901 H 0.34815 0.28463 0.80203 0.0
H902 H 0.3333 0.26304 0.73387 0.0
H903 H 0.33463 0.29876 0.70425 0.0
H904 H 0.28423 0.23168 0.5396 0.0
H905 H 0.28609 0.31779 0.48096 0.0
H906 H 0.26114 0.22494 0.76868 0.0
H907 H 0.29706 0.22711 0.76046 0.0
H908 H 0.2807 0.20855 0.68708 0.0
H909 H 0.26537 0.33087 0.6934 0.0
H910 H 0.28708 0.34576 0.59056 0.0
H911 H 0.3012 0.3322 0.68773 0.0
C912 C 0.78709 0.30722 0.89788 0.0
C913 C 0.78919 0.28172 0.94489 0.0
C914 C 0.78699 0.31096 0.80565 0.0
C915 C 0.78967 0.28867 0.75977 0.0
C916 C 0.7915 0.26271 0.80718 0.0
C917 C 0.79087 0.25943 0.90042 0.0
C918 C 0.78421 0.33874 0.75741 0.0
C919 C 0.79469 0.23867 0.75918 0.0
C920 C 0.76657 0.29237 0.5349 0.0
C921 C 0.7911 0.29924 0.47651 0.0
C922 C 0.76579 0.28922 0.62769 0.0
C923 C 0.79021 0.29265 0.66206 0.0
C924 C 0.81499 0.3004 0.60338 0.0
C925 C 0.8151 0.3039 0.51056 0.0
C926 C 0.73895 0.28174 0.68877 0.0
C927 C 0.84139 0.30412 0.63854 0.0
H928 H 0.78554 0.32431 0.93367 0.0
H929 H 0.79265 0.23984 0.93784 0.0
H930 H 0.80251 0.3459 0.70699 0.0
H931 H 0.76675 0.33803 0.72058 0.0
H932 H 0.78134 0.35366 0.80419 0.0
H933 H 0.7961 0.21997 0.80596 0.0
H934 H 0.77732 0.23536 0.72341 0.0
H935 H 0.81319 0.24254 0.70779 0.0
H936 H 0.74802 0.28892 0.50788 0.0
H937 H 0.83406 0.30893 0.46487 0.0
H938 H 0.73561 0.2966 0.73541 0.0
H939 H 0.73899 0.26181 0.73042 0.0
H940 H 0.72174 0.28084 0.65071 0.0
H941 H 0.84046 0.31969 0.68318 0.0
H942 H 0.85884 0.31019 0.58361 0.0
H943 H 0.84499 0.28506 0.67937 0.0
C944 C 0.75364 0.78148 0.41942 0.0
C945 C 0.77736 0.78152 0.45684 0.0
C946 C 0.75454 0.77963 0.32851 0.0
C947 C 0.77986 0.77872 0.27512 0.0
C948 C 0.80395 0.7798 0.31237 0.0
C949 C 0.80234 0.78078 0.40377 0.0
C950 C 0.72851 0.77798 0.29016 0.0
C951 C 0.83131 0.77977 0.256 0.0
C952 C 0.78231 0.75003 0.0598 0.0
C953 C 0.78306 0.77357 -0.0014 0.0
C954 C 0.78094 0.75136 0.15125 0.0
C955 C 0.78124 0.77687 0.17974 0.0
C956 C 0.78301 0.80073 0.11728 0.0
C957 C 0.7835 0.79873 0.02698 0.0
C958 C 0.77852 0.72559 0.21736 0.0
C959 C 0.78426 0.82825 0.14577 0.0
H960 H 0.73441 0.78179 0.4619 0.0
H961 H 0.8206 0.781 0.43394 0.0
H962 H 0.72894 0.79496 0.2348 0.0
H963 H 0.72625 0.75908 0.26127 0.0
H964 H 0.71052 0.77847 0.3416 0.0
H965 H 0.8481 0.78193 0.29525 0.0
H966 H 0.83239 0.76072 0.22777 0.0
H967 H 0.83436 0.7965 0.19848 0.0
H968 H 0.78176 0.73068 0.03653 0.0
H969 H 0.78433 0.81684 0.97825 0.0
H970 H 0.75976 0.72423 0.26693 0.0
H971 H 0.79573 0.72555 0.2554 0.0
H972 H 0.77811 0.70743 0.18383 0.0
H973 H 0.7655 0.83022 0.1916 0.0
H974 H 0.78679 0.84478 0.0876 0.0
H975 H 0.80135 0.83085 0.18338 0.0
C976 C 0.55425 0.52141 0.64987 0.0
C977 C 0.53057 0.52064 0.71101 0.0
C978 C 0.5531 0.52325 0.55818 0.0
C979 C 0.52761 0.52344 0.52922 0.0
C980 C 0.50359 0.52161 0.59155 0.0
C981 C 0.50542 0.52061 0.68218 0.0
C982 C 0.57904 0.52567 0.49232 0.0
C983 C 0.47608 0.52088 0.56254 0.0
C984 C 0.52384 0.55194 0.28973 0.0
C985 C 0.52366 0.52845 0.25124 0.0
C986 C 0.52543 0.55067 0.38098 0.0
C987 C 0.52596 0.52524 0.43355 0.0
C988 C 0.52473 0.5014 0.39513 0.0
C989 C 0.524 0.50337 0.30352 0.0
C990 C 0.52723 0.57642 0.4206 0.0
C991 C 0.52437 0.47394 0.45046 0.0
H992 H 0.5736 0.52168 0.67339 0.0
H993 H 0.48719 0.51982 0.73076 0.0
H994 H 0.579 0.50874 0.45315 0.0
H995 H 0.58068 0.54458 0.4437 0.0
H996 H 0.59717 0.52567 0.5262 0.0
H997 H 0.4594 0.51829 0.62054 0.0
H998 H 0.47439 0.53982 0.5176 0.0
H999 H 0.47338 0.5041 0.5238 0.0
H1000 H 0.52381 0.57124 0.24788 0.0
H1001 H 0.52364 0.48529 0.27254 0.0
H1002 H 0.54612 0.57835 0.44988 0.0
H1003 H 0.51012 0.57596 0.4759 0.0
H1004 H 0.52697 0.59453 0.36982 0.0
H1005 H 0.54337 0.4725 0.47904 0.0
H1006 H 0.52212 0.45739 0.41034 0.0
H1007 H 0.50747 0.47089 0.50773 0.0
C1008 C 0.05754 0.52803 0.7951 0.0
C1009 C 0.03523 0.52887 0.75053 0.0
C1010 C 0.05407 0.52797 0.88807 0.0
C1011 C 0.02787 0.52952 0.93504 0.0
C1012 C 1.00555 0.53149 0.88887 0.0
C1013 C 1.0095 0.5308 0.79692 0.0
C1014 C 0.07817 0.52561 0.93631 0.0
C1015 C 0.97752 0.53401 0.93653 0.0
C1016 C 1.01355 0.50415 0.18414 0.0
C1017 C 1.01811 0.52811 0.2182 0.0
C1018 C 1.01654 0.5043 0.09134 0.0
C1019 C 1.02368 0.52907 0.03273 0.0
C1020 C 1.02682 0.55347 0.0672 0.0
C1021 C 1.02419 0.55265 0.15996 0.0
C1022 C 1.01315 0.47793 0.05606 0.0
C1023 C 0.03364 0.58028 0.00621 0.0
H1024 H 0.07732 0.52647 0.758 0.0
H1025 H 0.99241 0.53173 0.76089 0.0
H1026 H 0.081 0.54316 0.97153 0.0
H1027 H 0.07461 0.50731 -0.01185 0.0
H1028 H 0.0971 0.52447 0.88977 0.0
H1029 H 0.96273 0.53688 0.88925 0.0
H1030 H 0.97032 0.51565 -0.01373 0.0
H1031 H 0.97791 0.55131 0.97406 0.0
H1032 H 1.0091 0.4852 0.22967 0.0
H1033 H 0.0275 0.57118 0.18701 0.0
H1034 H 0.03246 0.47445 0.01586 0.0
H1035 H 0.99773 0.47869 0.01082 0.0
H1036 H 1.00701 0.46055 0.11092 0.0
H1037 H 0.05381 0.58081 0.96486 0.0
H1038 H 0.03385 0.59748 0.04437 0.0
H1039 H 1.0188 0.58306 0.95926 0.0
loop_
_geom_bond_atom_site_label_1
_geom_bond_atom_site_label_2
_geom_bond_distance
_geom_bond_site_symmetry_2
_ccdc_geom_bond_type
C0 O16 1.251 1_645 S
C0 O18 1.254 . S
N1 C2 1.333 . S
N1 C6 1.307 . S
N1 Zn7 2.020 . S
C2 N1 1.333 . S
C2 C3 1.379 . S
C2 H20 0.952 . S
C3 C2 1.379 . S
C3 C4 1.390 . S
C3 H30 0.949 . S
C4 C3 1.390 . S
C4 C5 1.357 . S
C5 C4 1.357 . S
C5 C6 1.370 . S
C5 H31 0.950 . S
C6 N1 1.307 . S
C6 C5 1.370 . S
C6 H24 0.948 . S
Zn7 N1 2.020 . S
Zn7 O16 2.039 . S
Zn7 O22 2.034 1_565 S
Zn7 O26 2.025 . S
Zn7 O28 2.024 1_455 S
C8 O27 1.246 . S
C8 O28 1.249 . S
N9 C10 1.307 . S
N9 C11 1.333 . S
N9 Zn15 2.020 . S
C10 N9 1.307 . S
C10 C14 1.370 . S
C10 H21 0.948 . S
C11 N9 1.333 . S
C11 C12 1.379 . S
C11 H19 0.952 . S
C12 C11 1.379 . S
C12 C13 1.390 . S
C12 H32 0.949 . S
C13 C12 1.390 . S
C13 C14 1.357 . S
C14 C10 1.370 . S
C14 C13 1.357 . S
C14 H33 0.950 . S
Zn15 N9 2.020 . S
Zn15 O18 2.025 . S
Zn15 O23 2.024 1_655 S
Zn15 O25 2.039 . S
Zn15 O27 2.034 1_545 S
O16 C0 1.251 1_465 S
O16 Zn7 2.039 . S
C17 O22 1.246 . S
C17 O23 1.249 . S
O18 C0 1.254 . S
O18 Zn15 2.025 . S
H19 C11 0.952 . S
H20 C2 0.952 . S
H21 C10 0.948 . S
O22 Zn7 2.034 1_545 S
O22 C17 1.246 . S
O23 Zn15 2.024 1_455 S
O23 C17 1.249 . S
H24 C6 0.948 . S
O25 Zn15 2.039 . S
O25 C29 1.251 1_645 S
O26 Zn7 2.025 . S
O26 C29 1.254 . S
O27 C8 1.246 . S
O27 Zn15 2.034 1_565 S
O28 Zn7 2.024 1_655 S
O28 C8 1.249 . S
C29 O25 1.251 1_465 S
C29 O26 1.254 . S
H30 C3 0.949 . S
H31 C5 0.950 . S
H32 C12 0.949 . S
H33 C14 0.950 . S
C34 O50 1.251 . S
C34 O52 1.254 . S
N35 C36 1.333 . S
N35 C40 1.307 . S
N35 Zn41 2.020 . S
C36 N35 1.333 . S
C36 C37 1.379 . S
C36 H54 0.952 . S
C37 C36 1.379 . S
C37 C38 1.390 . S
C37 H64 0.949 . S
C38 C37 1.390 . S
C38 C39 1.357 . S
C39 C38 1.357 . S
C39 C40 1.370 . S
C39 H65 0.950 . S
C40 N35 1.307 . S
C40 C39 1.370 . S
C40 H58 0.948 . S
Zn41 N35 2.020 . S
Zn41 O50 2.039 . S
Zn41 O56 2.034 . S
Zn41 O60 2.025 . S
Zn41 O62 2.024 . S
C42 O61 1.246 . S
C42 O62 1.249 . S
N43 C44 1.307 . S
N43 C45 1.333 . S
N43 Zn49 2.020 . S
C44 N43 1.307 . S
C44 C48 1.370 . S
C44 H55 0.948 . S
C45 N43 1.333 . S
C45 C46 1.379 . S
C45 H53 0.952 . S
C46 C45 1.379 . S
C46 C47 1.390 . S
C46 H66 0.949 . S
C47 C46 1.390 . S
C47 C48 1.357 . S
C48 C44 1.370 . S
C48 C47 1.357 . S
C48 H67 0.950 . S
Zn49 N43 2.020 . S
Zn49 O52 2.025 . S
Zn49 O57 2.024 . S
Zn49 O59 2.039 . S
Zn49 O61 2.034 . S
O50 C34 1.251 . S
O50 Zn41 2.039 . S
C51 O56 1.246 . S
C51 O57 1.249 . S
O52 C34 1.254 . S
O52 Zn49 2.025 . S
H53 C45 0.952 . S
H54 C36 0.952 . S
H55 C44 0.948 . S
O56 Zn41 2.034 . S
O56 C51 1.246 . S
O57 Zn49 2.024 . S
O57 C51 1.249 . S
H58 C40 0.948 . S
O59 Zn49 2.039 . S
O59 C63 1.251 . S
O60 Zn41 2.025 . S
O60 C63 1.254 . S
O61 C42 1.246 . S
O61 Zn49 2.034 . S
O62 Zn41 2.024 . S
O62 C42 1.249 . S
C63 O59 1.251 . S
C63 O60 1.254 . S
H64 C37 0.949 . S
H65 C39 0.950 . S
H66 C46 0.949 . S
H67 C48 0.950 . S
C68 O84 1.251 1_545 S
C68 O86 1.254 . S
N69 C70 1.333 1_554 S
N69 C74 1.307 . S
N69 Zn75 2.020 . S
C70 N69 1.333 1_556 S
C70 C71 1.379 . S
C70 H88 0.952 . S
C71 C70 1.379 . S
C71 C72 1.390 . S
C71 H98 0.949 . S
C72 C71 1.390 . S
C72 C73 1.357 1_556 S
C73 C72 1.357 1_554 S
C73 C74 1.370 . S
C73 H99 0.950 . S
C74 N69 1.307 . S
C74 C73 1.370 . S
C74 H92 0.948 . S
Zn75 N69 2.020 . S
Zn75 O84 2.039 1_554 S
Zn75 O90 2.034 1_565 S
Zn75 O94 2.025 . S
Zn75 O96 2.024 1_554 S
C76 O95 1.246 . S
C76 O96 1.249 . S
N77 C78 1.307 . S
N77 C79 1.333 1_556 S
N77 Zn83 2.020 . S
C78 N77 1.307 . S
C78 C82 1.370 . S
C78 H89 0.948 . S
C79 N77 1.333 1_554 S
C79 C80 1.379 . S
C79 H87 0.952 . S
C80 C79 1.379 . S
C80 C81 1.390 . S
C80 H100 0.949 . S
C81 C80 1.390 . S
C81 C82 1.357 1_554 S
C82 C78 1.370 . S
C82 C81 1.357 1_556 S
C82 H101 0.950 . S
Zn83 N77 2.020 . S
Zn83 O86 2.025 . S
Zn83 O91 2.024 1_556 S
Zn83 O93 2.039 1_556 S
Zn83 O95 2.034 1_545 S
O84 C68 1.251 1_565 S
O84 Zn75 2.039 1_556 S
C85 O90 1.246 . S
C85 O91 1.249 . S
O86 C68 1.254 . S
O86 Zn83 2.025 . S
H87 C79 0.952 . S
H88 C70 0.952 . S
H89 C78 0.948 . S
O90 Zn75 2.034 1_545 S
O90 C85 1.246 . S
O91 Zn83 2.024 1_554 S
O91 C85 1.249 . S
H92 C74 0.948 . S
O93 Zn83 2.039 1_554 S
O93 C97 1.251 1_545 S
O94 Zn75 2.025 . S
O94 C97 1.254 . S
O95 C76 1.246 . S
O95 Zn83 2.034 1_565 S
O96 Zn75 2.024 1_556 S
O96 C76 1.249 . S
C97 O93 1.251 1_565 S
C97 O94 1.254 . S
H98 C71 0.949 . S
H99 C73 0.950 . S
H100 C80 0.949 . S
H101 C82 0.950 . S
C102 O118 1.251 . S
C102 O120 1.254 . S
N103 C104 1.333 . S
N103 C108 1.307 . S
N103 Zn109 2.020 . S
C104 N103 1.333 . S
C104 C105 1.379 . S
C104 H122 0.952 . S
C105 C104 1.379 . S
C105 C106 1.390 . S
C105 H132 0.949 . S
C106 C105 1.390 . S
C106 C107 1.357 . S
C107 C106 1.357 . S
C107 C108 1.370 . S
C107 H133 0.950 . S
C108 N103 1.307 . S
C108 C107 1.370 . S
C108 H126 0.948 . S
Zn109 N103 2.020 . S
Zn109 O118 2.039 . S
Zn109 O124 2.034 . S
Zn109 O128 2.025 . S
Zn109 O130 2.024 . S
C110 O129 1.246 . S
C110 O130 1.249 . S
N111 C112 1.307 . S
N111 C113 1.333 . S
N111 Zn117 2.020 . S
C112 N111 1.307 . S
C112 C116 1.370 . S
C112 H123 0.948 . S
C113 N111 1.333 . S
C113 C114 1.379 . S
C113 H121 0.952 . S
C114 C113 1.379 . S
C114 C115 1.390 . S
C114 H134 0.949 . S
C115 C114 1.390 . S
C115 C116 1.357 . S
C116 C112 1.370 . S
C116 C115 1.357 . S
C116 H135 0.950 . S
Zn117 N111 2.020 . S
Zn117 O120 2.025 . S
Zn117 O125 2.024 . S
Zn117 O127 2.039 . S
Zn117 O129 2.034 . S
O118 C102 1.251 . S
O118 Zn109 2.039 . S
C119 O124 1.246 . S
C119 O125 1.249 . S
O120 C102 1.254 . S
O120 Zn117 2.025 . S
H121 C113 0.952 . S
H122 C104 0.952 . S
H123 C112 0.948 . S
O124 Zn109 2.034 . S
O124 C119 1.246 . S
O125 Zn117 2.024 . S
O125 C119 1.249 . S
H126 C108 0.948 . S
O127 Zn117 2.039 . S
O127 C131 1.251 . S
O128 Zn109 2.025 . S
O128 C131 1.254 . S
O129 C110 1.246 . S
O129 Zn117 2.034 . S
O130 Zn109 2.024 . S
O130 C110 1.249 . S
C131 O127 1.251 . S
C131 O128 1.254 . S
H132 C105 0.949 . S
H133 C107 0.950 . S
H134 C114 0.949 . S
H135 C116 0.950 . S
C136 O152 1.251 . S
C136 O154 1.254 . S
N137 C138 1.333 . S
N137 C142 1.307 . S
N137 Zn143 2.020 . S
C138 N137 1.333 . S
C138 C139 1.379 . S
C138 H156 0.952 . S
C139 C138 1.379 . S
C139 C140 1.390 . S
C139 H166 0.949 . S
C140 C139 1.390 . S
C140 C141 1.357 . S
C141 C140 1.357 . S
C141 C142 1.370 . S
C141 H167 0.950 . S
C142 N137 1.307 . S
C142 C141 1.370 . S
C142 H160 0.948 . S
Zn143 N137 2.020 . S
Zn143 O152 2.039 . S
Zn143 O158 2.034 . S
Zn143 O162 2.025 . S
Zn143 O164 2.024 . S
C144 O163 1.246 . S
C144 O164 1.249 . S
N145 C146 1.307 . S
N145 C147 1.333 . S
N145 Zn151 2.020 . S
C146 N145 1.307 . S
C146 C150 1.370 . S
C146 H157 0.948 . S
C147 N145 1.333 . S
C147 C148 1.379 . S
C147 H155 0.952 . S
C148 C147 1.379 . S
C148 C149 1.390 . S
C148 H168 0.949 . S
C149 C148 1.390 . S
C149 C150 1.357 . S
C150 C146 1.370 . S
C150 C149 1.357 . S
C150 H169 0.950 . S
Zn151 N145 2.020 . S
Zn151 O154 2.025 . S
Zn151 O159 2.024 . S
Zn151 O161 2.039 . S
Zn151 O163 2.034 . S
O152 C136 1.251 . S
O152 Zn143 2.039 . S
C153 O158 1.246 . S
C153 O159 1.249 . S
O154 C136 1.254 . S
O154 Zn151 2.025 . S
H155 C147 0.952 . S
H156 C138 0.952 . S
H157 C146 0.948 . S
O158 Zn143 2.034 . S
O158 C153 1.246 . S
O159 Zn151 2.024 . S
O159 C153 1.249 . S
H160 C142 0.948 . S
O161 Zn151 2.039 . S
O161 C165 1.251 . S
O162 Zn143 2.025 . S
O162 C165 1.254 . S
O163 C144 1.246 . S
O163 Zn151 2.034 . S
O164 Zn143 2.024 . S
O164 C144 1.249 . S
C165 O161 1.251 . S
C165 O162 1.254 . S
H166 C139 0.949 . S
H167 C141 0.950 . S
H168 C148 0.949 . S
H169 C150 0.950 . S
C170 O186 1.251 . S
C170 O188 1.254 . S
N171 C172 1.333 . S
N171 C176 1.307 . S
N171 Zn177 2.020 . S
C172 N171 1.333 . S
C172 C173 1.379 . S
C172 H190 0.952 . S
C173 C172 1.379 . S
C173 C174 1.390 . S
C173 H200 0.949 . S
C174 C173 1.390 . S
C174 C175 1.357 . S
C175 C174 1.357 . S
C175 C176 1.370 . S
C175 H201 0.950 . S
C176 N171 1.307 . S
C176 C175 1.370 . S
C176 H194 0.948 . S
Zn177 N171 2.020 . S
Zn177 O186 2.039 . S
Zn177 O192 2.034 . S
Zn177 O196 2.025 . S
Zn177 O198 2.024 . S
C178 O197 1.246 . S
C178 O198 1.249 . S
N179 C180 1.307 . S
N179 C181 1.333 . S
N179 Zn185 2.020 . S
C180 N179 1.307 . S
C180 C184 1.370 . S
C180 H191 0.948 . S
C181 N179 1.333 . S
C181 C182 1.379 . S
C181 H189 0.952 . S
C182 C181 1.379 . S
C182 C183 1.390 . S
C182 H202 0.949 . S
C183 C182 1.390 . S
C183 C184 1.357 . S
C184 C180 1.370 . S
C184 C183 1.357 . S
C184 H203 0.950 . S
Zn185 N179 2.020 . S
Zn185 O188 2.025 . S
Zn185 O193 2.024 . S
Zn185 O195 2.039 . S
Zn185 O197 2.034 . S
O186 C170 1.251 . S
O186 Zn177 2.039 . S
C187 O192 1.246 . S
C187 O193 1.249 . S
O188 C170 1.254 . S
O188 Zn185 2.025 . S
H189 C181 0.952 . S
H190 C172 0.952 . S
H191 C180 0.948 . S
O192 Zn177 2.034 . S
O192 C187 1.246 . S
O193 Zn185 2.024 . S
O193 C187 1.249 . S
H194 C176 0.948 . S
O195 Zn185 2.039 . S
O195 C199 1.251 . S
O196 Zn177 2.025 . S
O196 C199 1.254 . S
O197 C178 1.246 . S
O197 Zn185 2.034 . S
O198 Zn177 2.024 . S
O198 C178 1.249 . S
C199 O195 1.251 . S
C199 O196 1.254 . S
H200 C173 0.949 . S
H201 C175 0.950 . S
H202 C182 0.949 . S
H203 C184 0.950 . S
C204 O220 1.251 . S
C204 O222 1.254 . S
N205 C206 1.333 . S
N205 C210 1.307 1_554 S
N205 Zn211 2.020 . S
C206 N205 1.333 . S
C206 C207 1.379 . S
C206 H224 0.952 . S
C207 C206 1.379 . S
C207 C208 1.390 . S
C207 H234 0.949 . S
C208 C207 1.390 . S
C208 C209 1.357 1_554 S
C209 C208 1.357 1_556 S
C209 C210 1.370 . S
C209 H235 0.950 . S
C210 N205 1.307 1_556 S
C210 C209 1.370 . S
C210 H228 0.948 . S
Zn211 N205 2.020 . S
Zn211 O220 2.039 . S
Zn211 O226 2.034 1_554 S
Zn211 O230 2.025 1_554 S
Zn211 O232 2.024 . S
C212 O231 1.246 . S
C212 O232 1.249 . S
N213 C214 1.307 1_556 S
N213 C215 1.333 . S
N213 Zn219 2.020 . S
C214 N213 1.307 1_554 S
C214 C218 1.370 . S
C214 H225 0.948 . S
C215 N213 1.333 . S
C215 C216 1.379 . S
C215 H223 0.952 . S
C216 C215 1.379 . S
C216 C217 1.390 . S
C216 H236 0.949 . S
C217 C216 1.390 . S
C217 C218 1.357 1_556 S
C218 C214 1.370 . S
C218 C217 1.357 1_554 S
C218 H237 0.950 . S
Zn219 N213 2.020 . S
Zn219 O222 2.025 1_556 S
Zn219 O227 2.024 . S
Zn219 O229 2.039 . S
Zn219 O231 2.034 1_556 S
O220 C204 1.251 . S
O220 Zn211 2.039 . S
C221 O226 1.246 . S
C221 O227 1.249 . S
O222 C204 1.254 . S
O222 Zn219 2.025 1_554 S
H223 C215 0.952 . S
H224 C206 0.952 . S
H225 C214 0.948 . S
O226 Zn211 2.034 1_556 S
O226 C221 1.246 . S
O227 Zn219 2.024 . S
O227 C221 1.249 . S
H228 C210 0.948 . S
O229 Zn219 2.039 . S
O229 C233 1.251 . S
O230 Zn211 2.025 1_556 S
O230 C233 1.254 . S
O231 C212 1.246 . S
O231 Zn219 2.034 1_554 S
O232 Zn211 2.024 . S
O232 C212 1.249 . S
C233 O229 1.251 . S
C233 O230 1.254 . S
H234 C207 0.949 . S
H235 C209 0.950 . S
H236 C216 0.949 . S
H237 C218 0.950 . S
C238 O254 1.251 1_455 S
C238 O256 1.254 . S
N239 C240 1.333 . S
N239 C244 1.307 . S
N239 Zn245 2.020 . S
C240 N239 1.333 . S
C240 C241 1.379 . S
C240 H258 0.952 . S
C241 C240 1.379 . S
C241 C242 1.390 . S
C241 H268 0.949 . S
C242 C241 1.390 . S
C242 C243 1.357 . S
C243 C242 1.357 . S
C243 C244 1.370 . S
C243 H269 0.950 . S
C244 N239 1.307 . S
C244 C243 1.370 . S
C244 H262 0.948 . S
Zn245 N239 2.020 . S
Zn245 O254 2.039 . S
Zn245 O260 2.034 . S
Zn245 O264 2.025 . S
Zn245 O266 2.024 1_655 S
C246 O265 1.246 . S
C246 O266 1.249 . S
N247 C248 1.307 . S
N247 C249 1.333 . S
N247 Zn253 2.020 . S
C248 N247 1.307 . S
C248 C252 1.370 . S
C248 H259 0.948 . S
C249 N247 1.333 . S
C249 C250 1.379 . S
C249 H257 0.952 . S
C250 C249 1.379 . S
C250 C251 1.390 . S
C250 H270 0.949 . S
C251 C250 1.390 . S
C251 C252 1.357 . S
C252 C248 1.370 . S
C252 C251 1.357 . S
C252 H271 0.950 . S
Zn253 N247 2.020 . S
Zn253 O256 2.025 . S
Zn253 O261 2.024 1_455 S
Zn253 O263 2.039 . S
Zn253 O265 2.034 . S
O254 C238 1.251 1_655 S
O254 Zn245 2.039 . S
C255 O260 1.246 . S
C255 O261 1.249 . S
O256 C238 1.254 . S
O256 Zn253 2.025 . S
H257 C249 0.952 . S
H258 C240 0.952 . S
H259 C248 0.948 . S
O260 Zn245 2.034 . S
O260 C255 1.246 . S
O261 Zn253 2.024 1_655 S
O261 C255 1.249 . S
H262 C244 0.948 . S
O263 Zn253 2.039 . S
O263 C267 1.251 1_455 S
O264 Zn245 2.025 . S
O264 C267 1.254 . S
O265 C246 1.246 . S
O265 Zn253 2.034 . S
O266 Zn245 2.024 1_455 S
O266 C246 1.249 . S
C267 O263 1.251 1_655 S
C267 O264 1.254 . S
H268 C241 0.949 . S
H269 C243 0.950 . S
H270 C250 0.949 . S
H271 C252 0.950 . S
C272 C273 1.391 . S
C272 C274 1.394 . S
C272 H288 0.931 . S
C273 C272 1.391 . S
C273 C277 1.376 . S
C274 C272 1.394 . S
C274 C275 1.369 . S
C274 C278 1.531 . S
C275 C274 1.369 . S
C275 C276 1.410 . S
C275 C283 1.503 . S
C276 C275 1.410 . S
C276 C277 1.392 . S
C276 C279 1.511 . S
C277 C273 1.376 . S
C277 C276 1.392 . S
C277 H289 0.929 . S
C278 C274 1.531 . S
C278 H290 0.960 . S
C278 H291 0.962 . S
C278 H292 0.960 . S
C279 C276 1.511 . S
C279 H293 0.961 . S
C279 H294 0.961 . S
C279 H295 0.961 . S
C280 C281 1.370 . S
C280 C282 1.363 . S
C280 H296 0.931 . S
C281 C280 1.370 . S
C281 C285 1.408 . S
C282 C280 1.363 . S
C282 C283 1.370 . S
C282 C286 1.524 . S
C283 C275 1.503 . S
C283 C282 1.370 . S
C283 C284 1.403 . S
C284 C283 1.403 . S
C284 C285 1.404 . S
C284 C287 1.539 . S
C285 C281 1.408 . S
C285 C284 1.404 . S
C285 H297 0.930 . S
C286 C282 1.524 . S
C286 H298 0.956 . S
C286 H299 0.961 . S
C286 H300 0.961 . S
C287 C284 1.539 . S
C287 H301 0.958 . S
C287 H302 0.961 . S
C287 H303 0.960 . S
H288 C272 0.931 . S
H289 C277 0.929 . S
H290 C278 0.960 . S
H291 C278 0.962 . S
H292 C278 0.960 . S
H293 C279 0.961 . S
H294 C279 0.961 . S
H295 C279 0.961 . S
H296 C280 0.931 . S
H297 C285 0.930 . S
H298 C286 0.956 . S
H299 C286 0.961 . S
H300 C286 0.961 . S
H301 C287 0.958 . S
H302 C287 0.961 . S
H303 C287 0.960 . S
C304 C305 1.391 . S
C304 C306 1.394 . S
C304 H320 0.931 . S
C305 C304 1.391 . S
C305 C309 1.376 . S
C306 C304 1.394 . S
C306 C307 1.369 . S
C306 C310 1.531 . S
C307 C306 1.369 . S
C307 C308 1.410 . S
C307 C315 1.503 . S
C308 C307 1.410 . S
C308 C309 1.392 . S
C308 C311 1.511 . S
C309 C305 1.376 . S
C309 C308 1.392 . S
C309 H321 0.929 . S
C310 C306 1.531 . S
C310 H322 0.960 . S
C310 H323 0.962 . S
C310 H324 0.960 . S
C311 C308 1.511 . S
C311 H325 0.961 . S
C311 H326 0.961 . S
C311 H327 0.961 . S
C312 C313 1.370 . S
C312 C314 1.363 . S
C312 H328 0.931 . S
C313 C312 1.370 . S
C313 C317 1.408 . S
C314 C312 1.363 . S
C314 C315 1.370 . S
C314 C318 1.524 . S
C315 C307 1.503 . S
C315 C314 1.370 . S
C315 C316 1.403 . S
C316 C315 1.403 . S
C316 C317 1.404 . S
C316 C319 1.539 . S
C317 C313 1.408 . S
C317 C316 1.404 . S
C317 H329 0.930 . S
C318 C314 1.524 . S
C318 H330 0.956 . S
C318 H331 0.961 . S
C318 H332 0.961 . S
C319 C316 1.539 . S
C319 H333 0.958 . S
C319 H334 0.961 . S
C319 H335 0.960 . S
H320 C304 0.931 . S
H321 C309 0.929 . S
H322 C310 0.960 . S
H323 C310 0.962 . S
H324 C310 0.960 . S
H325 C311 0.961 . S
H326 C311 0.961 . S
H327 C311 0.961 . S
H328 C312 0.931 . S
H329 C317 0.930 . S
H330 C318 0.956 . S
H331 C318 0.961 . S
H332 C318 0.961 . S
H333 C319 0.958 . S
H334 C319 0.961 . S
H335 C319 0.960 . S
C336 C337 1.391 . S
C336 C338 1.394 . S
C336 H352 0.931 . S
C337 C336 1.391 . S
C337 C341 1.376 . S
C338 C336 1.394 . S
C338 C339 1.369 . S
C338 C342 1.531 . S
C339 C338 1.369 . S
C339 C340 1.410 . S
C339 C347 1.503 . S
C340 C339 1.410 . S
C340 C341 1.392 . S
C340 C343 1.511 . S
C341 C337 1.376 . S
C341 C340 1.392 . S
C341 H353 0.929 . S
C342 C338 1.531 . S
C342 H354 0.960 . S
C342 H355 0.962 . S
C342 H356 0.960 . S
C343 C340 1.511 . S
C343 H357 0.961 . S
C343 H358 0.961 . S
C343 H359 0.961 . S
C344 C345 1.370 1_554 S
C344 C346 1.363 1_554 S
C344 H360 0.931 . S
C345 C344 1.370 1_556 S
C345 C349 1.408 . S
C346 C344 1.363 1_556 S
C346 C347 1.370 . S
C346 C350 1.524 . S
C347 C339 1.503 . S
C347 C346 1.370 . S
C347 C348 1.403 . S
C348 C347 1.403 . S
C348 C349 1.404 . S
C348 C351 1.539 . S
C349 C345 1.408 . S
C349 C348 1.404 . S
C349 H361 0.930 . S
C350 C346 1.524 . S
C350 H362 0.956 . S
C350 H363 0.961 . S
C350 H364 0.961 1_556 S
C351 C348 1.539 . S
C351 H365 0.958 . S
C351 H366 0.961 . S
C351 H367 0.960 . S
H352 C336 0.931 . S
H353 C341 0.929 . S
H354 C342 0.960 . S
H355 C342 0.962 . S
H356 C342 0.960 . S
H357 C343 0.961 . S
H358 C343 0.961 . S
H359 C343 0.961 . S
H360 C344 0.931 . S
H361 C349 0.930 . S
H362 C350 0.956 . S
H363 C350 0.961 . S
H364 C350 0.961 1_554 S
H365 C351 0.958 . S
H366 C351 0.961 . S
H367 C351 0.960 . S
C368 C369 1.391 . S
C368 C370 1.394 . S
C368 H384 0.931 . S
C369 C368 1.391 . S
C369 C373 1.376 . S
C370 C368 1.394 . S
C370 C371 1.369 . S
C370 C374 1.531 . S
C371 C370 1.369 . S
C371 C372 1.410 . S
C371 C379 1.503 . S
C372 C371 1.410 . S
C372 C373 1.392 . S
C372 C375 1.511 . S
C373 C369 1.376 . S
C373 C372 1.392 . S
C373 H385 0.929 . S
C374 C370 1.531 . S
C374 H386 0.960 . S
C374 H387 0.962 . S
C374 H388 0.960 . S
C375 C372 1.511 . S
C375 H389 0.961 . S
C375 H390 0.961 . S
C375 H391 0.961 . S
C376 C377 1.370 . S
C376 C378 1.363 . S
C376 H392 0.931 . S
C377 C376 1.370 . S
C377 C381 1.408 . S
C378 C376 1.363 . S
C378 C379 1.370 . S
C378 C382 1.524 1_554 S
C379 C371 1.503 . S
C379 C378 1.370 . S
C379 C380 1.403 . S
C380 C379 1.403 . S
C380 C381 1.404 . S
C380 C383 1.539 . S
C381 C377 1.408 . S
C381 C380 1.404 . S
C381 H393 0.930 . S
C382 C378 1.524 1_556 S
C382 H394 0.956 . S
C382 H395 0.961 . S
C382 H396 0.961 . S
C383 C380 1.539 . S
C383 H397 0.958 . S
C383 H398 0.961 . S
C383 H399 0.960 . S
H384 C368 0.931 . S
H385 C373 0.929 . S
H386 C374 0.960 . S
H387 C374 0.962 . S
H388 C374 0.960 . S
H389 C375 0.961 . S
H390 C375 0.961 . S
H391 C375 0.961 . S
H392 C376 0.931 . S
H393 C381 0.930 . S
H394 C382 0.956 . S
H395 C382 0.961 . S
H396 C382 0.961 . S
H397 C383 0.958 . S
H398 C383 0.961 . S
H399 C383 0.960 . S
C400 C401 1.391 . S
C400 C402 1.394 . S
C400 H416 0.931 . S
C401 C400 1.391 . S
C401 C405 1.376 . S
C402 C400 1.394 . S
C402 C403 1.369 . S
C402 C406 1.531 . S
C403 C402 1.369 . S
C403 C404 1.410 . S
C403 C411 1.503 . S
C404 C403 1.410 . S
C404 C405 1.392 . S
C404 C407 1.511 . S
C405 C401 1.376 . S
C405 C404 1.392 . S
C405 H417 0.929 . S
C406 C402 1.531 . S
C406 H418 0.960 . S
C406 H419 0.962 . S
C406 H420 0.960 . S
C407 C404 1.511 . S
C407 H421 0.961 . S
C407 H422 0.961 . S
C407 H423 0.961 . S
C408 C409 1.370 . S
C408 C410 1.363 . S
C408 H424 0.931 . S
C409 C408 1.370 . S
C409 C413 1.408 . S
C410 C408 1.363 . S
C410 C411 1.370 . S
C410 C414 1.524 . S
C411 C403 1.503 . S
C411 C410 1.370 . S
C411 C412 1.403 . S
C412 C411 1.403 . S
C412 C413 1.404 . S
C412 C415 1.539 . S
C413 C409 1.408 . S
C413 C412 1.404 . S
C413 H425 0.930 . S
C414 C410 1.524 . S
C414 H426 0.956 . S
C414 H427 0.961 . S
C414 H428 0.961 . S
C415 C412 1.539 . S
C415 H429 0.958 . S
C415 H430 0.961 . S
C415 H431 0.960 . S
H416 C400 0.931 . S
H417 C405 0.929 . S
H418 C406 0.960 . S
H419 C406 0.962 . S
H420 C406 0.960 . S
H421 C407 0.961 . S
H422 C407 0.961 . S
H423 C407 0.961 . S
H424 C408 0.931 . S
H425 C413 0.930 . S
H426 C414 0.956 . S
H427 C414 0.961 . S
H428 C414 0.961 . S
H429 C415 0.958 . S
H430 C415 0.961 . S
H431 C415 0.960 . S
C432 C433 1.391 . S
C432 C434 1.394 . S
C432 H448 0.931 . S
C433 C432 1.391 . S
C433 C437 1.376 . S
C434 C432 1.394 . S
C434 C435 1.369 . S
C434 C438 1.531 . S
C435 C434 1.369 . S
C435 C436 1.410 . S
C435 C443 1.503 . S
C436 C435 1.410 . S
C436 C437 1.392 . S
C436 C439 1.511 . S
C437 C433 1.376 . S
C437 C436 1.392 . S
C437 H449 0.929 . S
C438 C434 1.531 . S
C438 H450 0.960 . S
C438 H451 0.962 . S
C438 H452 0.960 . S
C439 C436 1.511 . S
C439 H453 0.961 . S
C439 H454 0.961 . S
C439 H455 0.961 . S
C440 C441 1.370 . S
C440 C442 1.363 . S
C440 H456 0.931 . S
C441 C440 1.370 . S
C441 C445 1.408 . S
C442 C440 1.363 . S
C442 C443 1.370 . S
C442 C446 1.524 . S
C443 C435 1.503 . S
C443 C442 1.370 . S
C443 C444 1.403 . S
C444 C443 1.403 . S
C444 C445 1.404 . S
C444 C447 1.539 . S
C445 C441 1.408 . S
C445 C444 1.404 . S
C445 H457 0.930 . S
C446 C442 1.524 . S
C446 H458 0.956 . S
C446 H459 0.961 . S
C446 H460 0.961 . S
C447 C444 1.539 . S
C447 H461 0.958 . S
C447 H462 0.961 . S
C447 H463 0.960 . S
H448 C432 0.931 . S
H449 C437 0.929 . S
H450 C438 0.960 . S
H451 C438 0.962 . S
H452 C438 0.960 . S
H453 C439 0.961 . S
H454 C439 0.961 . S
H455 C439 0.961 . S
H456 C440 0.931 . S
H457 C445 0.930 . S
H458 C446 0.956 . S
H459 C446 0.961 . S
H460 C446 0.961 . S
H461 C447 0.958 . S
H462 C447 0.961 . S
H463 C447 0.960 . S
C464 C465 1.391 . S
C464 C466 1.394 . S
C464 H480 0.931 . S
C465 C464 1.391 . S
C465 C469 1.376 . S
C466 C464 1.394 . S
C466 C467 1.369 . S
C466 C470 1.531 . S
C467 C466 1.369 . S
C467 C468 1.410 . S
C467 C475 1.503 . S
C468 C467 1.410 . S
C468 C469 1.392 . S
C468 C471 1.511 . S
C469 C465 1.376 . S
C469 C468 1.392 . S
C469 H481 0.929 . S
C470 C466 1.531 . S
C470 H482 0.960 . S
C470 H483 0.962 1_554 S
C470 H484 0.960 . S
C471 C468 1.511 . S
C471 H485 0.961 . S
C471 H486 0.961 . S
C471 H487 0.961 . S
C472 C473 1.370 . S
C472 C474 1.363 . S
C472 H488 0.931 1_554 S
C473 C472 1.370 . S
C473 C477 1.408 . S
C474 C472 1.363 . S
C474 C475 1.370 . S
C474 C478 1.524 . S
C475 C467 1.503 . S
C475 C474 1.370 . S
C475 C476 1.403 . S
C476 C475 1.403 . S
C476 C477 1.404 . S
C476 C479 1.539 . S
C477 C473 1.408 . S
C477 C476 1.404 . S
C477 H489 0.930 . S
C478 C474 1.524 . S
C478 H490 0.956 . S
C478 H491 0.961 . S
C478 H492 0.961 . S
C479 C476 1.539 . S
C479 H493 0.958 . S
C479 H494 0.961 . S
C479 H495 0.960 . S
H480 C464 0.931 . S
H481 C469 0.929 . S
H482 C470 0.960 . S
H483 C470 0.962 1_556 S
H484 C470 0.960 . S
H485 C471 0.961 . S
H486 C471 0.961 . S
H487 C471 0.961 . S
H488 C472 0.931 1_556 S
H489 C477 0.930 . S
H490 C478 0.956 . S
H491 C478 0.961 . S
H492 C478 0.961 . S
H493 C479 0.958 . S
H494 C479 0.961 . S
H495 C479 0.960 . S
C496 C497 1.391 . S
C496 C498 1.394 . S
C496 H512 0.931 . S
C497 C496 1.391 . S
C497 C501 1.376 . S
C498 C496 1.394 . S
C498 C499 1.369 . S
C498 C502 1.531 . S
C499 C498 1.369 . S
C499 C500 1.410 . S
C499 C507 1.503 . S
C500 C499 1.410 . S
C500 C501 1.392 . S
C500 C503 1.511 . S
C501 C497 1.376 . S
C501 C500 1.392 . S
C501 H513 0.929 . S
C502 C498 1.531 . S
C502 H514 0.960 . S
C502 H515 0.962 . S
C502 H516 0.960 . S
C503 C500 1.511 . S
C503 H517 0.961 . S
C503 H518 0.961 . S
C503 H519 0.961 . S
C504 C505 1.370 1_554 S
C504 C506 1.363 1_554 S
C504 H520 0.931 . S
C505 C504 1.370 1_556 S
C505 C509 1.408 . S
C506 C504 1.363 1_556 S
C506 C507 1.370 . S
C506 C510 1.524 1_556 S
C507 C499 1.503 . S
C507 C506 1.370 . S
C507 C508 1.403 . S
C508 C507 1.403 . S
C508 C509 1.404 . S
C508 C511 1.539 . S
C509 C505 1.408 . S
C509 C508 1.404 . S
C509 H521 0.930 . S
C510 C506 1.524 1_554 S
C510 H522 0.956 . S
C510 H523 0.961 . S
C510 H524 0.961 . S
C511 C508 1.539 . S
C511 H525 0.958 . S
C511 H526 0.961 . S
C511 H527 0.960 . S
H512 C496 0.931 . S
H513 C501 0.929 . S
H514 C502 0.960 . S
H515 C502 0.962 . S
H516 C502 0.960 . S
H517 C503 0.961 . S
H518 C503 0.961 . S
H519 C503 0.961 . S
H520 C504 0.931 . S
H521 C509 0.930 . S
H522 C510 0.956 . S
H523 C510 0.961 . S
H524 C510 0.961 . S
H525 C511 0.958 . S
H526 C511 0.961 . S
H527 C511 0.960 . S
C528 C529 1.391 . S
C528 C530 1.394 . S
C528 H544 0.931 . S
C529 C528 1.391 . S
C529 C533 1.376 . S
C530 C528 1.394 . S
C530 C531 1.369 . S
C530 C534 1.531 . S
C531 C530 1.369 . S
C531 C532 1.410 . S
C531 C539 1.503 . S
C532 C531 1.410 . S
C532 C533 1.392 . S
C532 C535 1.511 1_556 S
C533 C529 1.376 . S
C533 C532 1.392 . S
C533 H545 0.929 1_556 S
C534 C530 1.531 . S
C534 H546 0.960 . S
C534 H547 0.962 . S
C534 H548 0.960 . S
C535 C532 1.511 1_554 S
C535 H549 0.961 . S
C535 H550 0.961 . S
C535 H551 0.961 . S
C536 C537 1.370 . S
C536 C538 1.363 . S
C536 H552 0.931 . S
C537 C536 1.370 . S
C537 C541 1.408 . S
C538 C536 1.363 . S
C538 C539 1.370 . S
C538 C542 1.524 . S
C539 C531 1.503 . S
C539 C538 1.370 . S
C539 C540 1.403 . S
C540 C539 1.403 . S
C540 C541 1.404 . S
C540 C543 1.539 . S
C541 C537 1.408 . S
C541 C540 1.404 . S
C541 H553 0.930 . S
C542 C538 1.524 . S
C542 H554 0.956 . S
C542 H555 0.961 . S
C542 H556 0.961 . S
C543 C540 1.539 . S
C543 H557 0.958 . S
C543 H558 0.961 . S
C543 H559 0.960 . S
H544 C528 0.931 . S
H545 C533 0.929 1_554 S
H546 C534 0.960 . S
H547 C534 0.962 . S
H548 C534 0.960 . S
H549 C535 0.961 . S
H550 C535 0.961 . S
H551 C535 0.961 . S
H552 C536 0.931 . S
H553 C541 0.930 . S
H554 C542 0.956 . S
H555 C542 0.961 . S
H556 C542 0.961 . S
H557 C543 0.958 . S
H558 C543 0.961 . S
H559 C543 0.960 . S
C560 C561 1.391 . S
C560 C562 1.394 . S
C560 H576 0.931 . S
C561 C560 1.391 . S
C561 C565 1.376 . S
C562 C560 1.394 . S
C562 C563 1.369 . S
C562 C566 1.531 . S
C563 C562 1.369 . S
C563 C564 1.410 . S
C563 C571 1.503 . S
C564 C563 1.410 . S
C564 C565 1.392 . S
C564 C567 1.511 . S
C565 C561 1.376 . S
C565 C564 1.392 . S
C565 H577 0.929 . S
C566 C562 1.531 . S
C566 H578 0.960 . S
C566 H579 0.962 . S
C566 H580 0.960 . S
C567 C564 1.511 . S
C567 H581 0.961 . S
C567 H582 0.961 . S
C567 H583 0.961 . S
C568 C569 1.370 . S
C568 C570 1.363 . S
C568 H584 0.931 1_554 S
C569 C568 1.370 . S
C569 C573 1.408 . S
C570 C568 1.363 . S
C570 C571 1.370 . S
C570 C574 1.524 1_554 S
C571 C563 1.503 . S
C571 C570 1.370 . S
C571 C572 1.403 . S
C572 C571 1.403 . S
C572 C573 1.404 . S
C572 C575 1.539 . S
C573 C569 1.408 . S
C573 C572 1.404 . S
C573 H585 0.930 . S
C574 C570 1.524 1_556 S
C574 H586 0.956 . S
C574 H587 0.961 . S
C574 H588 0.961 . S
C575 C572 1.539 . S
C575 H589 0.958 . S
C575 H590 0.961 . S
C575 H591 0.960 . S
H576 C560 0.931 . S
H577 C565 0.929 . S
H578 C566 0.960 . S
H579 C566 0.962 . S
H580 C566 0.960 . S
H581 C567 0.961 . S
H582 C567 0.961 . S
H583 C567 0.961 . S
H584 C568 0.931 1_556 S
H585 C573 0.930 . S
H586 C574 0.956 . S
H587 C574 0.961 . S
H588 C574 0.961 . S
H589 C575 0.958 . S
H590 C575 0.961 . S
H591 C575 0.960 . S
C592 C593 1.391 . S
C592 C594 1.394 . S
C592 H608 0.931 . S
C593 C592 1.391 . S
C593 C597 1.376 . S
C594 C592 1.394 . S
C594 C595 1.369 . S
C594 C598 1.531 . S
C595 C594 1.369 . S
C595 C596 1.410 . S
C595 C603 1.503 . S
C596 C595 1.410 . S
C596 C597 1.392 . S
C596 C599 1.511 . S
C597 C593 1.376 . S
C597 C596 1.392 . S
C597 H609 0.929 . S
C598 C594 1.531 . S
C598 H610 0.960 . S
C598 H611 0.962 . S
C598 H612 0.960 . S
C599 C596 1.511 . S
C599 H613 0.961 . S
C599 H614 0.961 . S
C599 H615 0.961 . S
C600 C601 1.370 . S
C600 C602 1.363 . S
C600 H616 0.931 . S
C601 C600 1.370 . S
C601 C605 1.408 . S
C602 C600 1.363 . S
C602 C603 1.370 . S
C602 C606 1.524 . S
C603 C595 1.503 . S
C603 C602 1.370 . S
C603 C604 1.403 . S
C604 C603 1.403 . S
C604 C605 1.404 . S
C604 C607 1.539 . S
C605 C601 1.408 . S
C605 C604 1.404 . S
C605 H617 0.930 . S
C606 C602 1.524 . S
C606 H618 0.956 . S
C606 H619 0.961 . S
C606 H620 0.961 . S
C607 C604 1.539 . S
C607 H621 0.958 . S
C607 H622 0.961 . S
C607 H623 0.960 . S
H608 C592 0.931 . S
H609 C597 0.929 . S
H610 C598 0.960 . S
H611 C598 0.962 . S
H612 C598 0.960 . S
H613 C599 0.961 . S
H614 C599 0.961 . S
H615 C599 0.961 . S
H616 C600 0.931 . S
H617 C605 0.930 . S
H618 C606 0.956 . S
H619 C606 0.961 . S
H620 C606 0.961 . S
H621 C607 0.958 . S
H622 C607 0.961 . S
H623 C607 0.960 . S
C624 C625 1.391 . S
C624 C626 1.394 . S
C624 H640 0.931 . S
C625 C624 1.391 . S
C625 C629 1.376 . S
C626 C624 1.394 . S
C626 C627 1.369 . S
C626 C630 1.531 . S
C627 C626 1.369 . S
C627 C628 1.410 . S
C627 C635 1.503 . S
C628 C627 1.410 . S
C628 C629 1.392 . S
C628 C631 1.511 . S
C629 C625 1.376 . S
C629 C628 1.392 . S
C629 H641 0.929 . S
C630 C626 1.531 . S
C630 H642 0.960 . S
C630 H643 0.962 . S
C630 H644 0.960 . S
C631 C628 1.511 . S
C631 H645 0.961 . S
C631 H646 0.961 . S
C631 H647 0.961 . S
C632 C633 1.370 . S
C632 C634 1.363 . S
C632 H648 0.931 . S
C633 C632 1.370 . S
C633 C637 1.408 . S
C634 C632 1.363 . S
C634 C635 1.370 . S
C634 C638 1.524 . S
C635 C627 1.503 . S
C635 C634 1.370 . S
C635 C636 1.403 . S
C636 C635 1.403 . S
C636 C637 1.404 . S
C636 C639 1.539 . S
C637 C633 1.408 . S
C637 C636 1.404 . S
C637 H649 0.930 . S
C638 C634 1.524 . S
C638 H650 0.956 . S
C638 H651 0.961 . S
C638 H652 0.961 . S
C639 C636 1.539 . S
C639 H653 0.958 . S
C639 H654 0.961 . S
C639 H655 0.960 . S
H640 C624 0.931 . S
H641 C629 0.929 . S
H642 C630 0.960 . S
H643 C630 0.962 . S
H644 C630 0.960 . S
H645 C631 0.961 . S
H646 C631 0.961 . S
H647 C631 0.961 . S
H648 C632 0.931 . S
H649 C637 0.930 . S
H650 C638 0.956 . S
H651 C638 0.961 . S
H652 C638 0.961 . S
H653 C639 0.958 . S
H654 C639 0.961 . S
H655 C639 0.960 . S
C656 C657 1.391 . S
C656 C658 1.394 . S
C656 H672 0.931 . S
C657 C656 1.391 . S
C657 C661 1.376 . S
C658 C656 1.394 . S
C658 C659 1.369 . S
C658 C662 1.531 . S
C659 C658 1.369 . S
C659 C660 1.410 . S
C659 C667 1.503 . S
C660 C659 1.410 . S
C660 C661 1.392 . S
C660 C663 1.511 1_554 S
C661 C657 1.376 . S
C661 C660 1.392 . S
C661 H673 0.929 . S
C662 C658 1.531 . S
C662 H674 0.960 . S
C662 H675 0.962 . S
C662 H676 0.960 . S
C663 C660 1.511 1_556 S
C663 H677 0.961 . S
C663 H678 0.961 . S
C663 H679 0.961 . S
C664 C665 1.370 . S
C664 C666 1.363 . S
C664 H680 0.931 . S
C665 C664 1.370 . S
C665 C669 1.408 . S
C666 C664 1.363 . S
C666 C667 1.370 . S
C666 C670 1.524 . S
C667 C659 1.503 . S
C667 C666 1.370 . S
C667 C668 1.403 . S
C668 C667 1.403 . S
C668 C669 1.404 . S
C668 C671 1.539 . S
C669 C665 1.408 . S
C669 C668 1.404 . S
C669 H681 0.930 . S
C670 C666 1.524 . S
C670 H682 0.956 . S
C670 H683 0.961 . S
C670 H684 0.961 . S
C671 C668 1.539 . S
C671 H685 0.958 . S
C671 H686 0.961 . S
C671 H687 0.960 . S
H672 C656 0.931 . S
H673 C661 0.929 . S
H674 C662 0.960 . S
H675 C662 0.962 . S
H676 C662 0.960 . S
H677 C663 0.961 . S
H678 C663 0.961 . S
H679 C663 0.961 . S
H680 C664 0.931 . S
H681 C669 0.930 . S
H682 C670 0.956 . S
H683 C670 0.961 . S
H684 C670 0.961 . S
H685 C671 0.958 . S
H686 C671 0.961 . S
H687 C671 0.960 . S
C688 C689 1.391 . S
C688 C690 1.394 . S
C688 H704 0.931 1_556 S
C689 C688 1.391 . S
C689 C693 1.376 . S
C690 C688 1.394 . S
C690 C691 1.369 . S
C690 C694 1.531 1_556 S
C691 C690 1.369 . S
C691 C692 1.410 . S
C691 C699 1.503 . S
C692 C691 1.410 . S
C692 C693 1.392 . S
C692 C695 1.511 . S
C693 C689 1.376 . S
C693 C692 1.392 . S
C693 H705 0.929 . S
C694 C690 1.531 1_554 S
C694 H706 0.960 . S
C694 H707 0.962 . S
C694 H708 0.960 . S
C695 C692 1.511 . S
C695 H709 0.961 . S
C695 H710 0.961 . S
C695 H711 0.961 . S
C696 C697 1.370 . S
C696 C698 1.363 . S
C696 H712 0.931 . S
C697 C696 1.370 . S
C697 C701 1.408 . S
C698 C696 1.363 . S
C698 C699 1.370 . S
C698 C702 1.524 . S
C699 C691 1.503 . S
C699 C698 1.370 . S
C699 C700 1.403 . S
C700 C699 1.403 . S
C700 C701 1.404 . S
C700 C703 1.539 . S
C701 C697 1.408 . S
C701 C700 1.404 . S
C701 H713 0.930 . S
C702 C698 1.524 . S
C702 H714 0.956 . S
C702 H715 0.961 . S
C702 H716 0.961 . S
C703 C700 1.539 . S
C703 H717 0.958 . S
C703 H718 0.961 . S
C703 H719 0.960 . S
H704 C688 0.931 1_554 S
H705 C693 0.929 . S
H706 C694 0.960 . S
H707 C694 0.962 . S
H708 C694 0.960 . S
H709 C695 0.961 . S
H710 C695 0.961 . S
H711 C695 0.961 . S
H712 C696 0.931 . S
H713 C701 0.930 . S
H714 C702 0.956 . S
H715 C702 0.961 . S
H716 C702 0.961 . S
H717 C703 0.958 . S
H718 C703 0.961 . S
H719 C703 0.960 . S
C720 C721 1.391 . S
C720 C722 1.394 . S
C720 H736 0.931 . S
C721 C720 1.391 . S
C721 C725 1.376 . S
C722 C720 1.394 . S
C722 C723 1.369 . S
C722 C726 1.531 . S
C723 C722 1.369 . S
C723 C724 1.410 . S
C723 C731 1.503 . S
C724 C723 1.410 . S
C724 C725 1.392 . S
C724 C727 1.511 . S
C725 C721 1.376 . S
C725 C724 1.392 . S
C725 H737 0.929 . S
C726 C722 1.531 . S
C726 H738 0.960 . S
C726 H739 0.962 . S
C726 H740 0.960 . S
C727 C724 1.511 . S
C727 H741 0.961 . S
C727 H742 0.961 . S
C727 H743 0.961 . S
C728 C729 1.370 . S
C728 C730 1.363 . S
C728 H744 0.931 . S
C729 C728 1.370 . S
C729 C733 1.408 . S
C730 C728 1.363 . S
C730 C731 1.370 . S
C730 C734 1.524 . S
C731 C723 1.503 . S
C731 C730 1.370 . S
C731 C732 1.403 . S
C732 C731 1.403 . S
C732 C733 1.404 . S
C732 C735 1.539 . S
C733 C729 1.408 . S
C733 C732 1.404 . S
C733 H745 0.930 . S
C734 C730 1.524 . S
C734 H746 0.956 . S
C734 H747 0.961 . S
C734 H748 0.961 . S
C735 C732 1.539 . S
C735 H749 0.958 . S
C735 H750 0.961 . S
C735 H751 0.960 . S
H736 C720 0.931 . S
H737 C725 0.929 . S
H738 C726 0.960 . S
H739 C726 0.962 . S
H740 C726 0.960 . S
H741 C727 0.961 . S
H742 C727 0.961 . S
H743 C727 0.961 . S
H744 C728 0.931 . S
H745 C733 0.930 . S
H746 C734 0.956 . S
H747 C734 0.961 . S
H748 C734 0.961 . S
H749 C735 0.958 . S
H750 C735 0.961 . S
H751 C735 0.960 . S
C752 C753 1.391 . S
C752 C754 1.394 . S
C752 H768 0.931 . S
C753 C752 1.391 . S
C753 C757 1.376 . S
C754 C752 1.394 . S
C754 C755 1.369 . S
C754 C758 1.531 . S
C755 C754 1.369 . S
C755 C756 1.410 . S
C755 C763 1.503 . S
C756 C755 1.410 . S
C756 C757 1.392 . S
C756 C759 1.511 . S
C757 C753 1.376 . S
C757 C756 1.392 . S
C757 H769 0.929 . S
C758 C754 1.531 . S
C758 H770 0.960 . S
C758 H771 0.962 . S
C758 H772 0.960 . S
C759 C756 1.511 . S
C759 H773 0.961 . S
C759 H774 0.961 . S
C759 H775 0.961 . S
C760 C761 1.370 . S
C760 C762 1.363 . S
C760 H776 0.931 . S
C761 C760 1.370 . S
C761 C765 1.408 . S
C762 C760 1.363 . S
C762 C763 1.370 . S
C762 C766 1.524 . S
C763 C755 1.503 . S
C763 C762 1.370 . S
C763 C764 1.403 . S
C764 C763 1.403 . S
C764 C765 1.404 . S
C764 C767 1.539 . S
C765 C761 1.408 . S
C765 C764 1.404 . S
C765 H777 0.930 . S
C766 C762 1.524 . S
C766 H778 0.956 . S
C766 H779 0.961 . S
C766 H780 0.961 . S
C767 C764 1.539 . S
C767 H781 0.958 . S
C767 H782 0.961 . S
C767 H783 0.960 . S
H768 C752 0.931 . S
H769 C757 0.929 . S
H770 C758 0.960 . S
H771 C758 0.962 . S
H772 C758 0.960 . S
H773 C759 0.961 . S
H774 C759 0.961 . S
H775 C759 0.961 . S
H776 C760 0.931 . S
H777 C765 0.930 . S
H778 C766 0.956 . S
H779 C766 0.961 . S
H780 C766 0.961 . S
H781 C767 0.958 . S
H782 C767 0.961 . S
H783 C767 0.960 . S
C784 C785 1.391 1_455 S
C784 C786 1.394 . S
C784 H800 0.931 . S
C785 C784 1.391 1_655 S
C785 C789 1.376 1_545 S
C786 C784 1.394 . S
C786 C787 1.369 1_455 S
C786 C790 1.531 . S
C787 C786 1.369 1_655 S
C787 C788 1.410 1_545 S
C787 C795 1.510 1_556 S
C788 C787 1.410 1_565 S
C788 C789 1.392 . S
C788 C791 1.511 . S
C789 C785 1.376 1_565 S
C789 C788 1.392 . S
C789 H801 0.929 . S
C790 C786 1.531 . S
C790 H802 0.960 . S
C790 H803 0.962 . S
C790 H804 0.960 . S
C791 C788 1.511 . S
C791 H805 0.961 . S
C791 H806 0.961 1_556 S
C791 H807 0.958 1_565 S
C792 C793 1.389 . S
C792 C794 1.363 . S
C792 H808 0.931 . S
C793 C792 1.389 . S
C793 C797 1.390 1_465 S
C794 C792 1.363 . S
C794 C795 1.355 1_465 S
C794 C798 1.524 . S
C795 C787 1.510 1_554 S
C795 C794 1.355 1_645 S
C795 C796 1.412 . S
C796 C795 1.412 . S
C796 C797 1.404 . S
C796 C799 1.539 . S
C797 C793 1.390 1_645 S
C797 C796 1.404 . S
C797 H809 0.930 . S
C798 C794 1.524 . S
C798 H810 0.956 1_554 S
C798 H811 0.961 . S
C798 H812 0.961 . S
C799 C796 1.539 . S
C799 H813 0.958 . S
C799 H814 0.961 . S
C799 H815 0.960 . S
H800 C784 0.931 . S
H801 C789 0.929 . S
H802 C790 0.960 . S
H803 C790 0.962 . S
H804 C790 0.960 . S
H805 C791 0.961 . S
H806 C791 0.961 1_554 S
H807 C791 0.958 1_545 S
H808 C792 0.931 . S
H809 C797 0.930 . S
H810 C798 0.956 1_556 S
H811 C798 0.961 . S
H812 C798 0.961 . S
H813 C799 0.958 . S
H814 C799 0.961 . S
H815 C799 0.960 . S
C816 C817 1.391 . S
C816 C818 1.394 . S
C816 H832 0.931 . S
C817 C816 1.391 . S
C817 C821 1.376 . S
C818 C816 1.394 . S
C818 C819 1.369 . S
C818 C822 1.531 . S
C819 C818 1.369 . S
C819 C820 1.410 . S
C819 C827 1.503 . S
C820 C819 1.410 . S
C820 C821 1.392 . S
C820 C823 1.511 . S
C821 C817 1.376 . S
C821 C820 1.392 . S
C821 H833 0.929 . S
C822 C818 1.531 . S
C822 H834 0.960 . S
C822 H835 0.962 . S
C822 H836 0.960 . S
C823 C820 1.511 . S
C823 H837 0.961 . S
C823 H838 0.961 . S
C823 H839 0.961 . S
C824 C825 1.370 . S
C824 C826 1.363 . S
C824 H840 0.931 . S
C825 C824 1.370 . S
C825 C829 1.408 . S
C826 C824 1.363 . S
C826 C827 1.370 . S
C826 C830 1.524 . S
C827 C819 1.503 . S
C827 C826 1.370 . S
C827 C828 1.403 . S
C828 C827 1.403 . S
C828 C829 1.404 . S
C828 C831 1.539 . S
C829 C825 1.408 . S
C829 C828 1.404 . S
C829 H841 0.930 . S
C830 C826 1.524 . S
C830 H842 0.956 . S
C830 H843 0.961 . S
C830 H844 0.961 . S
C831 C828 1.539 . S
C831 H845 0.958 . S
C831 H846 0.961 . S
C831 H847 0.960 . S
H832 C816 0.931 . S
H833 C821 0.929 . S
H834 C822 0.960 . S
H835 C822 0.962 . S
H836 C822 0.960 . S
H837 C823 0.961 . S
H838 C823 0.961 . S
H839 C823 0.961 . S
H840 C824 0.931 . S
H841 C829 0.930 . S
H842 C830 0.956 . S
H843 C830 0.961 . S
H844 C830 0.961 . S
H845 C831 0.958 . S
H846 C831 0.961 . S
H847 C831 0.960 . S
C848 C849 1.391 . S
C848 C850 1.394 . S
C848 H864 0.931 . S
C849 C848 1.391 . S
C849 C853 1.376 1_545 S
C850 C848 1.394 . S
C850 C851 1.369 . S
C850 C854 1.531 . S
C851 C850 1.369 . S
C851 C852 1.410 1_545 S
C851 C859 1.503 . S
C852 C851 1.410 1_565 S
C852 C853 1.392 . S
C852 C855 1.511 . S
C853 C849 1.376 1_565 S
C853 C852 1.392 . S
C853 H865 0.929 . S
C854 C850 1.531 . S
C854 H866 0.960 . S
C854 H867 0.962 . S
C854 H868 0.960 . S
C855 C852 1.511 . S
C855 H869 0.961 . S
C855 H870 0.961 . S
C855 H871 0.961 . S
C856 C857 1.370 . S
C856 C858 1.363 . S
C856 H872 0.931 . S
C857 C856 1.370 . S
C857 C861 1.408 1_565 S
C858 C856 1.363 . S
C858 C859 1.370 1_565 S
C858 C862 1.524 . S
C859 C851 1.503 . S
C859 C858 1.370 1_545 S
C859 C860 1.403 . S
C860 C859 1.403 . S
C860 C861 1.404 . S
C860 C863 1.539 . S
C861 C857 1.408 1_545 S
C861 C860 1.404 . S
C861 H873 0.930 . S
C862 C858 1.524 . S
C862 H874 0.956 . S
C862 H875 0.961 . S
C862 H876 0.961 . S
C863 C860 1.539 . S
C863 H877 0.958 . S
C863 H878 0.961 . S
C863 H879 0.960 . S
H864 C848 0.931 . S
H865 C853 0.929 . S
H866 C854 0.960 . S
H867 C854 0.962 . S
H868 C854 0.960 . S
H869 C855 0.961 . S
H870 C855 0.961 . S
H871 C855 0.961 . S
H872 C856 0.931 . S
H873 C861 0.930 . S
H874 C862 0.956 . S
H875 C862 0.961 . S
H876 C862 0.961 . S
H877 C863 0.958 . S
H878 C863 0.961 . S
H879 C863 0.960 . S
C880 C881 1.391 . S
C880 C882 1.394 . S
C880 H896 0.931 . S
C881 C880 1.391 . S
C881 C885 1.376 . S
C882 C880 1.394 . S
C882 C883 1.369 . S
C882 C886 1.531 . S
C883 C882 1.369 . S
C883 C884 1.410 . S
C883 C891 1.503 . S
C884 C883 1.410 . S
C884 C885 1.392 . S
C884 C887 1.511 . S
C885 C881 1.376 . S
C885 C884 1.392 . S
C885 H897 0.929 . S
C886 C882 1.531 . S
C886 H898 0.960 . S
C886 H899 0.962 . S
C886 H900 0.960 . S
C887 C884 1.511 . S
C887 H901 0.961 . S
C887 H902 0.961 . S
C887 H903 0.961 . S
C888 C889 1.370 . S
C888 C890 1.363 . S
C888 H904 0.931 . S
C889 C888 1.370 . S
C889 C893 1.408 . S
C890 C888 1.363 . S
C890 C891 1.370 . S
C890 C894 1.524 . S
C891 C883 1.503 . S
C891 C890 1.370 . S
C891 C892 1.403 . S
C892 C891 1.403 . S
C892 C893 1.404 . S
C892 C895 1.539 . S
C893 C889 1.408 . S
C893 C892 1.404 . S
C893 H905 0.930 . S
C894 C890 1.524 . S
C894 H906 0.956 . S
C894 H907 0.961 . S
C894 H908 0.961 . S
C895 C892 1.539 . S
C895 H909 0.958 . S
C895 H910 0.961 . S
C895 H911 0.960 . S
H896 C880 0.931 . S
H897 C885 0.929 . S
H898 C886 0.960 . S
H899 C886 0.962 . S
H900 C886 0.960 . S
H901 C887 0.961 . S
H902 C887 0.961 . S
H903 C887 0.961 . S
H904 C888 0.931 . S
H905 C893 0.930 . S
H906 C894 0.956 . S
H907 C894 0.961 . S
H908 C894 0.961 . S
H909 C895 0.958 . S
H910 C895 0.961 . S
H911 C895 0.960 . S
C912 C913 1.391 . S
C912 C914 1.394 . S
C912 H928 0.931 . S
C913 C912 1.391 . S
C913 C917 1.376 . S
C914 C912 1.394 . S
C914 C915 1.369 . S
C914 C918 1.531 . S
C915 C914 1.369 . S
C915 C916 1.410 . S
C915 C923 1.503 . S
C916 C915 1.410 . S
C916 C917 1.392 . S
C916 C919 1.511 . S
C917 C913 1.376 . S
C917 C916 1.392 . S
C917 H929 0.929 . S
C918 C914 1.531 . S
C918 H930 0.960 . S
C918 H931 0.962 . S
C918 H932 0.960 . S
C919 C916 1.511 . S
C919 H933 0.961 . S
C919 H934 0.961 . S
C919 H935 0.961 . S
C920 C921 1.370 . S
C920 C922 1.363 . S
C920 H936 0.931 . S
C921 C920 1.370 . S
C921 C925 1.408 . S
C922 C920 1.363 . S
C922 C923 1.370 . S
C922 C926 1.524 . S
C923 C915 1.503 . S
C923 C922 1.370 . S
C923 C924 1.403 . S
C924 C923 1.403 . S
C924 C925 1.404 . S
C924 C927 1.539 . S
C925 C921 1.408 . S
C925 C924 1.404 . S
C925 H937 0.930 . S
C926 C922 1.524 . S
C926 H938 0.956 . S
C926 H939 0.961 . S
C926 H940 0.961 . S
C927 C924 1.539 . S
C927 H941 0.958 . S
C927 H942 0.961 . S
C927 H943 0.960 . S
H928 C912 0.931 . S
H929 C917 0.929 . S
H930 C918 0.960 . S
H931 C918 0.962 . S
H932 C918 0.960 . S
H933 C919 0.961 . S
H934 C919 0.961 . S
H935 C919 0.961 . S
H936 C920 0.931 . S
H937 C925 0.930 . S
H938 C926 0.956 . S
H939 C926 0.961 . S
H940 C926 0.961 . S
H941 C927 0.958 . S
H942 C927 0.961 . S
H943 C927 0.960 . S
C944 C945 1.391 . S
C944 C946 1.394 . S
C944 H960 0.931 . S
C945 C944 1.391 . S
C945 C949 1.376 . S
C946 C944 1.394 . S
C946 C947 1.369 . S
C946 C950 1.531 . S
C947 C946 1.369 . S
C947 C948 1.410 . S
C947 C955 1.503 . S
C948 C947 1.410 . S
C948 C949 1.392 . S
C948 C951 1.511 . S
C949 C945 1.376 . S
C949 C948 1.392 . S
C949 H961 0.929 . S
C950 C946 1.531 . S
C950 H962 0.960 . S
C950 H963 0.962 . S
C950 H964 0.960 . S
C951 C948 1.511 . S
C951 H965 0.961 . S
C951 H966 0.961 . S
C951 H967 0.961 . S
C952 C953 1.370 . S
C952 C954 1.363 . S
C952 H968 0.931 . S
C953 C952 1.370 . S
C953 C957 1.408 . S
C954 C952 1.363 . S
C954 C955 1.370 . S
C954 C958 1.524 . S
C955 C947 1.503 . S
C955 C954 1.370 . S
C955 C956 1.403 . S
C956 C955 1.403 . S
C956 C957 1.404 . S
C956 C959 1.539 . S
C957 C953 1.408 . S
C957 C956 1.404 . S
C957 H969 0.930 1_554 S
C958 C954 1.524 . S
C958 H970 0.956 . S
C958 H971 0.961 . S
C958 H972 0.961 . S
C959 C956 1.539 . S
C959 H973 0.958 . S
C959 H974 0.961 . S
C959 H975 0.960 . S
H960 C944 0.931 . S
H961 C949 0.929 . S
H962 C950 0.960 . S
H963 C950 0.962 . S
H964 C950 0.960 . S
H965 C951 0.961 . S
H966 C951 0.961 . S
H967 C951 0.961 . S
H968 C952 0.931 . S
H969 C957 0.930 1_556 S
H970 C958 0.956 . S
H971 C958 0.961 . S
H972 C958 0.961 . S
H973 C959 0.958 . S
H974 C959 0.961 . S
H975 C959 0.960 . S
C976 C977 1.391 . S
C976 C978 1.394 . S
C976 H992 0.931 . S
C977 C976 1.391 . S
C977 C981 1.376 . S
C978 C976 1.394 . S
C978 C979 1.369 . S
C978 C982 1.531 . S
C979 C978 1.369 . S
C979 C980 1.410 . S
C979 C987 1.503 . S
C980 C979 1.410 . S
C980 C981 1.392 . S
C980 C983 1.511 . S
C981 C977 1.376 . S
C981 C980 1.392 . S
C981 H993 0.929 . S
C982 C978 1.531 . S
C982 H994 0.960 . S
C982 H995 0.962 . S
C982 H996 0.960 . S
C983 C980 1.511 . S
C983 H997 0.961 . S
C983 H998 0.961 . S
C983 H999 0.961 . S
C984 C985 1.370 . S
C984 C986 1.363 . S
C984 H1000 0.931 . S
C985 C984 1.370 . S
C985 C989 1.408 . S
C986 C984 1.363 . S
C986 C987 1.370 . S
C986 C990 1.524 . S
C987 C979 1.503 . S
C987 C986 1.370 . S
C987 C988 1.403 . S
C988 C987 1.403 . S
C988 C989 1.404 . S
C988 C991 1.539 . S
C989 C985 1.408 . S
C989 C988 1.404 . S
C989 H1001 0.930 . S
C990 C986 1.524 . S
C990 H1002 0.956 . S
C990 H1003 0.961 . S
C990 H1004 0.961 . S
C991 C988 1.539 . S
C991 H1005 0.958 . S
C991 H1006 0.961 . S
C991 H1007 0.960 . S
H992 C976 0.931 . S
H993 C981 0.929 . S
H994 C982 0.960 . S
H995 C982 0.962 . S
H996 C982 0.960 . S
H997 C983 0.961 . S
H998 C983 0.961 . S
H999 C983 0.961 . S
H1000 C984 0.931 . S
H1001 C989 0.930 . S
H1002 C990 0.956 . S
H1003 C990 0.961 . S
H1004 C990 0.961 . S
H1005 C991 0.958 . S
H1006 C991 0.961 . S
H1007 C991 0.960 . S
C1008 C1009 1.391 1_455 S
C1008 C1010 1.394 . S
C1008 H1024 0.931 . S
C1009 C1008 1.391 1_655 S
C1009 C1013 1.376 . S
C1010 C1008 1.394 . S
C1010 C1011 1.369 . S
C1010 C1014 1.531 . S
C1011 C1010 1.369 . S
C1011 C1012 1.410 1_455 S
C1011 C1019 1.503 1_556 S
C1012 C1011 1.410 1_655 S
C1012 C1013 1.392 . S
C1012 C1015 1.511 . S
C1013 C1009 1.376 . S
C1013 C1012 1.392 . S
C1013 H1025 0.929 . S
C1014 C1010 1.531 . S
C1014 H1026 0.960 1_556 S
C1014 H1027 0.962 1_556 S
C1014 H1028 0.960 . S
C1015 C1012 1.511 . S
C1015 H1029 0.961 . S
C1015 H1030 0.961 . S
C1015 H1031 0.961 1_655 S
C1016 C1017 1.370 1_655 S
C1016 C1018 1.363 . S
C1016 H1032 0.931 . S
C1017 C1016 1.370 1_455 S
C1017 C1021 1.408 . S
C1018 C1016 1.363 . S
C1018 C1019 1.370 1_655 S
C1018 C1022 1.524 . S
C1019 C1011 1.503 1_554 S
C1019 C1018 1.370 1_455 S
C1019 C1020 1.403 . S
C1020 C1019 1.403 . S
C1020 C1021 1.404 . S
C1020 C1023 1.539 . S
C1021 C1017 1.408 . S
C1021 C1020 1.404 . S
C1021 H1033 0.930 . S
C1022 C1018 1.524 . S
C1022 H1034 0.956 . S
C1022 H1035 0.961 . S
C1022 H1036 0.961 . S
C1023 C1020 1.539 . S
C1023 H1037 0.958 . S
C1023 H1038 0.961 . S
C1023 H1039 0.960 1_554 S
H1024 C1008 0.931 . S
H1025 C1013 0.929 . S
H1026 C1014 0.960 1_554 S
H1027 C1014 0.962 1_554 S
H1028 C1014 0.960 . S
H1029 C1015 0.961 . S
H1030 C1015 0.961 . S
H1031 C1015 0.961 1_455 S
H1032 C1016 0.931 . S
H1033 C1021 0.930 . S
H1034 C1022 0.956 . S
H1035 C1022 0.961 . S
H1036 C1022 0.961 . S
H1037 C1023 0.958 . S
H1038 C1023 0.961 . S
H1039 C1023 0.960 1_556 S
C273 C17 3.232 . S
C281 C119 3.242 . S
C305 C4 1.517 . S
C313 C51 1.524 . S
C337 C38 0.446 . S
C345 C72 0.369 . S
C369 C85 1.514 . S
C377 C106 1.520 . S
C401 C8 3.232 . S
C409 C178 3.244 . S
C433 C13 1.518 . S
C441 C144 1.516 . S
C465 C149 0.430 . S
C473 C81 0.365 . S
C497 C183 1.519 . S
C505 C76 1.521 . S
C529 C221 3.236 . S
C537 C187 3.241 . S
C561 C153 1.517 . S
C569 C208 1.520 . S
C593 C242 0.461 . S
C601 C140 0.349 . S
C625 C174 1.519 . S
C633 C255 1.520 . S
C657 C110 3.234 . S
C665 C212 3.241 . S
C689 C217 1.518 . S
C697 C42 1.518 . S
C721 C47 0.434 . S
C729 C251 0.367 . S
C753 C115 1.516 . S
C761 C246 1.522 . S
C785 C0 1.149 . S
C793 C29 1.141 . S
C817 C63 1.166 . S
C825 C34 1.194 1_554 S
C849 C68 1.201 . S
C857 C97 1.179 . S
C881 C102 1.152 1_556 S
C889 C131 1.142 . S
C913 C165 1.197 1_556 S
C921 C136 1.180 . S
C945 C170 1.153 . S
C953 C199 1.142 1_554 S
C977 C233 1.140 . S
C985 C204 1.148 . S
C1009 C267 1.169 . S
C1017 C238 1.193 . S
