# Generated by pormake.
# Topology vbm, (6)-cn, num edge types: 1
# Building blocks:
#     Node 0, Type 0, BuildingBlock: BETDIP_clean_sbu_0, # of connection points: 6
#     Node 1, Type 0, BuildingBlock: BETDIP_clean_sbu_0, # of connection points: 6
#     Node 2, Type 0, BuildingBlock: BETDIP_clean_sbu_0, # of connection points: 6
#     Node 3, Type 0, BuildingBlock: BETDIP_clean_sbu_0, # of connection points: 6
#     Node 4, Type 0, BuildingBlock: BETDIP_clean_sbu_0, # of connection points: 6
#     Node 5, Type 0, BuildingBlock: BETDIP_clean_sbu_0, # of connection points: 6
#     Node 6, Type 0, BuildingBlock: BETDIP_clean_sbu_0, # of connection points: 6
#     Node 7, Type 0, BuildingBlock: BETDIP_clean_sbu_0, # of connection points: 6
#     Node 8, Type 0, BuildingBlock: BETDIP_clean_sbu_0, # of connection points: 6
#     Node 9, Type 0, BuildingBlock: BETDIP_clean_sbu_0, # of connection points: 6
#     Node 10, Type 0, BuildingBlock: BETDIP_clean_sbu_0, # of connection points: 6
#     Node 11, Type 0, BuildingBlock: BETDIP_clean_sbu_0, # of connection points: 6
#     Node 12, Type 0, BuildingBlock: BETDIP_clean_sbu_0, # of connection points: 6
#     Node 13, Type 0, BuildingBlock: BETDIP_clean_sbu_0, # of connection points: 6
#     Node 14, Type 0, BuildingBlock: BETDIP_clean_sbu_0, # of connection points: 6
#     Node 15, Type 0, BuildingBlock: BETDIP_clean_sbu_0, # of connection points: 6
#     Edge 16, Type (0, 0), BuildingBlock: KIFKEQ_clean_linker_1, # of connection points: 2
#     Edge 17, Type (0, 0), BuildingBlock: KIFKEQ_clean_linker_1, # of connection points: 2
#     Edge 18, Type (0, 0), BuildingBlock: KIFKEQ_clean_linker_1, # of connection points: 2
#     Edge 19, Type (0, 0), BuildingBlock: KIFKEQ_clean_linker_1, # of connection points: 2
#     Edge 20, Type (0, 0), BuildingBlock: KIFKEQ_clean_linker_1, # of connection points: 2
#     Edge 21, Type (0, 0), BuildingBlock: KIFKEQ_clean_linker_1, # of connection points: 2
#     Edge 22, Type (0, 0), BuildingBlock: KIFKEQ_clean_linker_1, # of connection points: 2
#     Edge 23, Type (0, 0), BuildingBlock: KIFKEQ_clean_linker_1, # of connection points: 2
#     Edge 24, Type (0, 0), BuildingBlock: KIFKEQ_clean_linker_1, # of connection points: 2
#     Edge 25, Type (0, 0), BuildingBlock: KIFKEQ_clean_linker_1, # of connection points: 2
#     Edge 26, Type (0, 0), BuildingBlock: KIFKEQ_clean_linker_1, # of connection points: 2
#     Edge 27, Type (0, 0), BuildingBlock: KIFKEQ_clean_linker_1, # of connection points: 2
#     Edge 28, Type (0, 0), BuildingBlock: KIFKEQ_clean_linker_1, # of connection points: 2
#     Edge 29, Type (0, 0), BuildingBlock: KIFKEQ_clean_linker_1, # of connection points: 2
#     Edge 30, Type (0, 0), BuildingBlock: KIFKEQ_clean_linker_1, # of connection points: 2
#     Edge 31, Type (0, 0), BuildingBlock: KIFKEQ_clean_linker_1, # of connection points: 2
#     Edge 32, Type (0, 0), BuildingBlock: KIFKEQ_clean_linker_1, # of connection points: 2
#     Edge 33, Type (0, 0), BuildingBlock: KIFKEQ_clean_linker_1, # of connection points: 2
#     Edge 34, Type (0, 0), BuildingBlock: KIFKEQ_clean_linker_1, # of connection points: 2
#     Edge 35, Type (0, 0), BuildingBlock: KIFKEQ_clean_linker_1, # of connection points: 2
#     Edge 36, Type (0, 0), BuildingBlock: KIFKEQ_clean_linker_1, # of connection points: 2
#     Edge 37, Type (0, 0), BuildingBlock: KIFKEQ_clean_linker_1, # of connection points: 2
#     Edge 38, Type (0, 0), BuildingBlock: KIFKEQ_clean_linker_1, # of connection points: 2
#     Edge 39, Type (0, 0), BuildingBlock: KIFKEQ_clean_linker_1, # of connection points: 2
#     Edge 40, Type (0, 0), BuildingBlock: KIFKEQ_clean_linker_1, # of connection points: 2
#     Edge 41, Type (0, 0), BuildingBlock: KIFKEQ_clean_linker_1, # of connection points: 2
#     Edge 42, Type (0, 0), BuildingBlock: KIFKEQ_clean_linker_1, # of connection points: 2
#     Edge 43, Type (0, 0), BuildingBlock: KIFKEQ_clean_linker_1, # of connection points: 2
#     Edge 44, Type (0, 0), BuildingBlock: KIFKEQ_clean_linker_1, # of connection points: 2
#     Edge 45, Type (0, 0), BuildingBlock: KIFKEQ_clean_linker_1, # of connection points: 2
#     Edge 46, Type (0, 0), BuildingBlock: KIFKEQ_clean_linker_1, # of connection points: 2
#     Edge 47, Type (0, 0), BuildingBlock: KIFKEQ_clean_linker_1, # of connection points: 2
#     Edge 48, Type (0, 0), BuildingBlock: KIFKEQ_clean_linker_1, # of connection points: 2
#     Edge 49, Type (0, 0), BuildingBlock: KIFKEQ_clean_linker_1, # of connection points: 2
#     Edge 50, Type (0, 0), BuildingBlock: KIFKEQ_clean_linker_1, # of connection points: 2
#     Edge 51, Type (0, 0), BuildingBlock: KIFKEQ_clean_linker_1, # of connection points: 2
#     Edge 52, Type (0, 0), BuildingBlock: KIFKEQ_clean_linker_1, # of connection points: 2
#     Edge 53, Type (0, 0), BuildingBlock: KIFKEQ_clean_linker_1, # of connection points: 2
#     Edge 54, Type (0, 0), BuildingBlock: KIFKEQ_clean_linker_1, # of connection points: 2
#     Edge 55, Type (0, 0), BuildingBlock: KIFKEQ_clean_linker_1, # of connection points: 2
#     Edge 56, Type (0, 0), BuildingBlock: KIFKEQ_clean_linker_1, # of connection points: 2
#     Edge 57, Type (0, 0), BuildingBlock: KIFKEQ_clean_linker_1, # of connection points: 2
#     Edge 58, Type (0, 0), BuildingBlock: KIFKEQ_clean_linker_1, # of connection points: 2
#     Edge 59, Type (0, 0), BuildingBlock: KIFKEQ_clean_linker_1, # of connection points: 2
#     Edge 60, Type (0, 0), BuildingBlock: KIFKEQ_clean_linker_1, # of connection points: 2
#     Edge 61, Type (0, 0), BuildingBlock: KIFKEQ_clean_linker_1, # of connection points: 2
#     Edge 62, Type (0, 0), BuildingBlock: KIFKEQ_clean_linker_1, # of connection points: 2
#     Edge 63, Type (0, 0), BuildingBlock: KIFKEQ_clean_linker_1, # of connection points: 2
# Relax obj value: 0.070
# Max RMSD: 0.145
# Mean RMSD: 0.145
data_MOF--net-vbm--node1-BETDIP_clean_sbu_0--edge1-KIFKEQ_clean_linker_1
_symmetry_space_group_name_H-M    P1
_symmetry_Int_Tables_number       1
_symmetry_cell_setting            triclinic
loop_
_symmetry_equiv_pos_as_xyz
'x, y, z'
_cell_length_a     56.256779
_cell_length_b     25.78654
_cell_length_c     55.305208
_cell_angle_alpha  89.902279
_cell_angle_beta   89.974299
_cell_angle_gamma 90.106692
loop_
_atom_site_label
_atom_site_type_symbol
_atom_site_fract_x
_atom_site_fract_y
_atom_site_fract_z
_atom_type_partial_charge
Tb0 Tb 0.13243 0.09167 0.16644 0.0
Tb1 Tb 0.10754 0.19289 0.16765 0.0
C2 C 0.14647 1.0002 0.17395 0.0
C3 C 0.13937 0.94527 0.17056 0.0
C4 C 0.12531 0.91946 0.18785 0.0
C5 C 0.12122 0.86602 0.18608 0.0
C6 C 0.13122 0.8371 0.16707 0.0
C7 C 0.14474 0.86327 0.14946 0.0
C8 C 0.14885 0.91661 0.15124 0.0
C9 C 0.13307 0.14264 0.12493 0.0
C10 C 0.07614 0.09816 0.15745 0.0
C11 C 0.09328 0.28473 0.16209 0.0
C12 C 0.1019 0.33902 0.16255 0.0
C13 C 0.10077 0.36896 0.14136 0.0
C14 C 0.10612 0.42192 0.14184 0.0
C15 C 0.11254 0.44628 0.16362 0.0
C16 C 0.11433 0.41598 0.18472 0.0
C17 C 0.10909 0.36291 0.1842 0.0
C18 C 0.10703 0.13911 0.20843 0.0
C19 C 0.16334 0.18889 0.17539 0.0
O20 O 0.13476 1.02771 0.18985 0.0
O21 O 0.15166 1.02698 0.15454 0.0
O22 O 0.11569 0.13917 0.13928 0.0
O23 O 0.15045 0.1151 0.13329 0.0
O24 O 0.09463 0.06873 0.16328 0.0
O25 O 0.07809 0.14861 0.15455 0.0
O26 O 0.10056 0.2554 0.14427 0.0
O27 O 0.09239 0.25961 0.18264 0.0
O28 O 0.12431 0.14493 0.19428 0.0
O29 O 0.08911 0.16535 0.20036 0.0
O30 O 0.14488 0.2161 0.16789 0.0
O31 O 0.16155 0.13874 0.17992 0.0
H32 H 0.11802 0.94016 0.20318 0.0
H33 H 0.11095 0.84708 0.20012 0.0
H34 H 0.15243 0.84241 0.13439 0.0
H35 H 0.15999 0.93516 0.13778 0.0
H36 H 0.09503 0.35168 0.12449 0.0
H37 H 0.10432 0.44419 0.12532 0.0
H38 H 0.11952 0.43344 0.20171 0.0
H39 H 0.11011 0.34101 0.20089 0.0
Tb40 Tb 0.85457 0.97071 0.16893 0.0
Tb41 Tb 0.87837 0.86042 0.17029 0.0
C42 C 0.84091 0.05771 0.18373 0.0
C43 C 0.84358 0.11326 0.17817 0.0
C44 C 0.83967 0.1494 0.19661 0.0
C45 C 0.84168 0.20251 0.19199 0.0
C46 C 0.84762 0.22068 0.16875 0.0
C47 C 0.85174 0.18416 0.15029 0.0
C48 C 0.84975 0.13086 0.15497 0.0
C49 C 0.85917 0.9325 0.12459 0.0
C50 C 0.91028 0.95545 0.15888 0.0
C51 C 0.89123 0.76765 0.1662 0.0
C52 C 0.8825 0.71503 0.1605 0.0
C53 C 0.89655 0.68297 0.14589 0.0
C54 C 0.89088 0.63055 0.14304 0.0
C55 C 0.87106 0.60889 0.15488 0.0
C56 C 0.85628 0.64176 0.16854 0.0
C57 C 0.86194 0.69436 0.17133 0.0
C58 C 0.87905 0.91702 0.21024 0.0
C59 C 0.82228 0.87146 0.17244 0.0
O60 O 0.8599 0.03411 0.192 0.0
O61 O 0.82899 1.02954 0.1681 0.0
O62 O 0.86536 0.913 0.14441 0.0
O63 O 0.84951 0.977 0.12939 0.0
O64 O 0.89282 0.98726 0.16547 0.0
O65 O 0.9076 0.90485 0.15645 0.0
O66 O 0.89249 0.80133 0.14841 0.0
O67 O 0.88397 0.78837 0.18655 0.0
O68 O 0.86232 0.91303 0.19531 0.0
O69 O 0.89633 0.88725 0.20343 0.0
O70 O 0.84079 0.84231 0.16675 0.0
O71 O 0.82412 0.92164 0.17727 0.0
H72 H 0.83505 0.1365 0.21468 0.0
H73 H 0.83887 0.22932 0.20677 0.0
H74 H 0.85619 0.19675 0.13215 0.0
H75 H 0.8529 0.10347 0.14049 0.0
H76 H 0.91247 0.69809 0.13735 0.0
H77 H 0.90238 0.60669 0.13199 0.0
H78 H 0.84095 0.62641 0.178 0.0
H79 H 0.85075 0.71829 0.18268 0.0
Tb80 Tb 0.13103 0.96379 0.40222 0.0
Tb81 Tb 0.10599 0.86252 0.40111 0.0
C82 C 0.14513 0.05542 0.39489 0.0
C83 C 0.13719 0.11018 0.39595 0.0
C84 C 0.13357 0.13788 0.37437 0.0
C85 C 0.12912 0.19123 0.37482 0.0
C86 C 0.12836 0.21832 0.39687 0.0
C87 C 0.13128 0.19026 0.41851 0.0
C88 C 0.1357 0.13686 0.41806 0.0
C89 C 0.13158 0.91256 0.44369 0.0
C90 C 0.0749 0.95733 0.41154 0.0
C91 C 0.09135 0.7708 0.40668 0.0
C92 C 0.09894 0.71624 0.40369 0.0
C93 C 0.11748 0.69467 0.41746 0.0
C94 C 0.12257 0.64159 0.41595 0.0
C95 C 0.10929 0.60909 0.4006 0.0
C96 C 0.09117 0.63111 0.38643 0.0
C97 C 0.08602 0.68398 0.38804 0.0
C98 C 0.10578 0.91599 0.3602 0.0
C99 C 0.16199 0.8666 0.39306 0.0
O100 O 0.13589 1.02596 0.37808 0.0
O101 O 0.14788 0.03059 0.41534 0.0
O102 O 0.1142 0.91629 0.42939 0.0
O103 O 0.1491 0.93974 0.43525 0.0
O104 O 0.0931 0.98603 0.40404 0.0
O105 O 0.07729 0.90734 0.41569 0.0
O106 O 0.10133 0.79813 0.42385 0.0
O107 O 0.08812 0.7978 0.38693 0.0
O108 O 0.12293 0.91026 0.37447 0.0
O109 O 0.08776 0.88984 0.36823 0.0
O110 O 0.14333 0.83887 0.39983 0.0
O111 O 0.16047 0.91712 0.3894 0.0
H112 H 0.13482 0.11853 0.35704 0.0
H113 H 0.12658 0.21137 0.35782 0.0
H114 H 0.13108 0.20986 0.43581 0.0
H115 H 0.13867 0.11691 0.43504 0.0
H116 H 0.12778 0.71849 0.42973 0.0
H117 H 0.13681 0.62592 0.42691 0.0
H118 H 0.0804 0.60715 0.37466 0.0
H119 H 0.07147 0.69948 0.37744 0.0
Tb120 Tb 0.85326 0.09622 0.40246 0.0
Tb121 Tb 0.87881 0.19701 0.40162 0.0
C122 C 0.83896 1.00484 0.39494 0.0
C123 C 0.84697 0.95018 0.39573 0.0
C124 C 0.8449 0.91969 0.37484 0.0
C125 C 0.84984 0.86656 0.37555 0.0
C126 C 0.85684 0.84255 0.39726 0.0
C127 C 0.85948 0.87341 0.41807 0.0
C128 C 0.85463 0.92666 0.41733 0.0
C129 C 0.85265 0.14695 0.44401 0.0
C130 C 0.90937 0.10149 0.41216 0.0
C131 C 0.89353 0.28865 0.40743 0.0
C132 C 0.886 0.34349 0.40457 0.0
C133 C 0.87281 0.36878 0.42266 0.0
C134 C 0.86836 0.42213 0.42115 0.0
C135 C 0.87711 0.45156 0.40161 0.0
C136 C 0.88971 0.42587 0.38321 0.0
C137 C 0.89419 0.37262 0.38474 0.0
C138 C 0.87919 0.14385 0.36069 0.0
C139 C 0.82283 0.19432 0.39324 0.0
O140 O 0.84808 0.03458 0.37812 0.0
O141 O 0.83646 1.02919 0.41551 0.0
O142 O 0.8701 0.14307 0.42979 0.0
O143 O 0.83506 0.12023 0.43543 0.0
O144 O 0.8911 0.07332 0.40444 0.0
O145 O 0.90718 0.15146 0.4164 0.0
O146 O 0.88347 0.26106 0.42452 0.0
O147 O 0.8969 0.26175 0.38769 0.0
O148 O 0.86191 0.14982 0.3748 0.0
O149 O 0.89723 0.16959 0.3689 0.0
O150 O 0.84163 0.22144 0.40004 0.0
O151 O 0.82402 0.14373 0.38968 0.0
H152 H 0.83881 0.93675 0.35803 0.0
H153 H 0.84736 0.84398 0.35925 0.0
H154 H 0.86516 0.85631 0.43501 0.0
H155 H 0.8564 0.94909 0.43377 0.0
H156 H 0.86649 0.34773 0.43837 0.0
H157 H 0.85881 0.44062 0.43578 0.0
H158 H 0.89639 0.44703 0.3677 0.0
H159 H 0.90461 0.3545 0.37062 0.0
Tb160 Tb 0.87729 0.86683 0.9031 0.0
Tb161 Tb 0.85342 0.97657 0.90126 0.0
C162 C 0.89006 0.77427 0.90932 0.0
C163 C 0.88092 0.72135 0.91386 0.0
C164 C 0.89398 0.68825 0.92895 0.0
C165 C 0.88817 0.63561 0.93069 0.0
C166 C 0.8692 0.61474 0.91724 0.0
C167 C 0.85535 0.64861 0.90306 0.0
C168 C 0.86115 0.70142 0.90138 0.0
C169 C 0.87813 0.91869 0.86151 0.0
C170 C 0.82139 0.87613 0.89863 0.0
C171 C 0.84047 0.06302 0.88484 0.0
C172 C 0.84239 0.1187 0.89052 0.0
C173 C 0.83938 0.15492 0.87187 0.0
C174 C 0.84115 0.20806 0.87651 0.0
C175 C 0.84597 0.22626 0.9 0.0
C176 C 0.84909 0.18964 0.91869 0.0
C177 C 0.84734 0.13632 0.91399 0.0
C178 C 0.85687 0.94444 0.9468 0.0
C179 C 0.90909 0.96218 0.91251 0.0
O180 O 0.88879 0.80813 0.92694 0.0
O181 O 0.88536 0.7947 0.88815 0.0
O182 O 0.86144 0.91644 0.87654 0.0
O183 O 0.8954 0.88984 0.86924 0.0
O184 O 0.83983 0.84802 0.90547 0.0
O185 O 0.82316 0.92611 0.89303 0.0
O186 O 0.86026 0.03994 0.87849 0.0
O187 O 0.82739 0.03449 0.89938 0.0
O188 O 0.86368 0.92188 0.92785 0.0
O189 O 0.84756 0.98819 0.94015 0.0
O190 O 0.8919 0.99253 0.90393 0.0
O191 O 0.90598 0.9124 0.91704 0.0
H192 H 0.90928 0.70275 0.93875 0.0
H193 H 0.89892 0.611 0.94218 0.0
H194 H 0.84069 0.63397 0.89237 0.0
H195 H 0.85076 0.72614 0.88959 0.0
H196 H 0.83574 0.14203 0.85359 0.0
H197 H 0.83911 0.23488 0.86157 0.0
H198 H 0.85263 0.20218 0.93702 0.0
H199 H 0.84981 0.10891 0.92864 0.0
Tb200 Tb 0.10926 0.18746 0.90282 0.0
Tb201 Tb 0.13341 0.08446 0.90074 0.0
C202 C 0.0958 0.27849 0.91202 0.0
C203 C 0.10415 0.33273 0.91138 0.0
C204 C 0.09723 0.36619 0.93004 0.0
C205 C 0.10294 0.41891 0.92909 0.0
C206 C 0.11568 0.4394 0.90936 0.0
C207 C 0.12319 0.40545 0.89096 0.0
C208 C 0.11754 0.35252 0.89199 0.0
C209 C 0.10862 0.13985 0.86028 0.0
C210 C 0.16467 0.18296 0.89325 0.0
C211 C 0.14606 0.9936 0.88984 0.0
C212 C 0.13979 0.9384 0.89376 0.0
C213 C 0.13278 0.9082 0.8739 0.0
C214 C 0.12915 0.8548 0.8764 0.0
C215 C 0.13261 0.8302 0.89885 0.0
C216 C 0.13915 0.86067 0.91887 0.0
C217 C 0.14271 0.91419 0.91637 0.0
C218 C 0.13485 0.12893 0.94374 0.0
C219 C 0.07734 0.09243 0.91166 0.0
O220 O 0.10562 0.24789 0.92802 0.0
O221 O 0.09234 0.2554 0.89127 0.0
O222 O 0.1256 0.14224 0.87495 0.0
O223 O 0.09112 0.16693 0.86872 0.0
O224 O 0.1466 0.20964 0.90196 0.0
O225 O 0.16245 0.1333 0.88756 0.0
O226 O 0.13136 1.02131 0.87689 0.0
O227 O 0.15473 1.01968 0.9081 0.0
O228 O 0.11748 0.12925 0.92929 0.0
O229 O 0.15135 0.09973 0.93482 0.0
O230 O 0.09533 0.06325 0.90412 0.0
O231 O 0.08002 0.14225 0.91598 0.0
H232 H 0.08682 0.35173 0.94512 0.0
H233 H 0.09664 0.44393 0.94342 0.0
H234 H 0.13329 0.41987 0.87568 0.0
H235 H 0.12322 0.32736 0.87744 0.0
H236 H 0.13071 0.92571 0.85619 0.0
H237 H 0.12443 0.83253 0.86052 0.0
H238 H 0.14167 0.84309 0.93648 0.0
H239 H 0.14821 0.9363 0.93204 0.0
Tb240 Tb 0.87598 0.19176 0.66758 0.0
Tb241 Tb 0.85232 0.08869 0.66826 0.0
C242 C 0.88965 0.2835 0.66019 0.0
C243 C 0.8809 0.33726 0.65812 0.0
C244 C 0.88886 0.36783 0.63874 0.0
C245 C 0.88368 0.42076 0.63785 0.0
C246 C 0.87054 0.44441 0.65645 0.0
C247 C 0.86165 0.41318 0.67532 0.0
C248 C 0.86677 0.36007 0.67615 0.0
C249 C 0.87652 0.14197 0.70963 0.0
C250 C 0.82052 0.18565 0.67502 0.0
C251 C 0.83957 0.99722 0.67813 0.0
C252 C 0.84579 0.94241 0.67324 0.0
C253 C 0.85776 0.91322 0.69091 0.0
C254 C 0.86143 0.86004 0.68777 0.0
C255 C 0.85304 0.83466 0.66696 0.0
C256 C 0.84146 0.86405 0.64907 0.0
C257 C 0.83783 0.91729 0.65218 0.0
C258 C 0.85125 0.13465 0.62551 0.0
C259 C 0.90873 0.09826 0.65947 0.0
O260 O 0.88404 0.2513 0.64282 0.0
O261 O 0.88884 0.26173 0.68155 0.0
O262 O 0.85951 0.14482 0.69496 0.0
O263 O 0.89401 0.16953 0.70142 0.0
O264 O 0.83856 0.21253 0.66631 0.0
O265 O 0.82299 0.13639 0.68126 0.0
O266 O 0.85439 1.02418 0.69134 0.0
O267 O 0.83074 1.02454 0.66034 0.0
O268 O 0.86853 0.13494 0.64015 0.0
O269 O 0.83472 0.10504 0.63418 0.0
O270 O 0.89035 0.06787 0.66479 0.0
O271 O 0.90644 0.14857 0.65649 0.0
H272 H 0.89975 0.35105 0.62462 0.0
H273 H 0.89038 0.44337 0.6228 0.0
H274 H 0.85159 0.4301 0.69001 0.0
H275 H 0.86036 0.33735 0.69131 0.0
H276 H 0.86374 0.93122 0.70753 0.0
H277 H 0.87013 0.8385 0.70206 0.0
H278 H 0.83501 0.84583 0.6327 0.0
H279 H 0.82832 0.93844 0.6383 0.0
Tb280 Tb 0.10856 0.86662 0.66694 0.0
Tb281 Tb 0.13224 0.97015 0.66763 0.0
C282 C 0.09492 0.7749 0.65952 0.0
C283 C 0.10372 0.72131 0.65687 0.0
C284 C 0.09396 0.69004 0.63869 0.0
C285 C 0.09935 0.63723 0.63755 0.0
C286 C 0.11455 0.61438 0.65471 0.0
C287 C 0.12519 0.64636 0.67229 0.0
C288 C 0.11984 0.69935 0.67336 0.0
C289 C 0.10853 0.91577 0.70907 0.0
C290 C 0.16407 0.87287 0.67371 0.0
C291 C 0.14508 0.0612 0.67803 0.0
C292 C 0.1392 0.11634 0.67381 0.0
C293 C 0.13555 0.14864 0.69384 0.0
C294 C 0.13238 0.20199 0.6908 0.0
C295 C 0.13292 0.22439 0.66759 0.0
C296 C 0.13592 0.19174 0.64744 0.0
C297 C 0.13907 0.13824 0.65051 0.0
C298 C 0.13304 0.92484 0.62486 0.0
C299 C 0.07572 0.96034 0.65939 0.0
O300 O 0.09985 0.80773 0.64214 0.0
O301 O 0.09646 0.79598 0.68096 0.0
O302 O 0.12531 0.91325 0.69413 0.0
O303 O 0.09095 0.88819 0.7011 0.0
O304 O 0.14598 0.84624 0.665 0.0
O305 O 0.16163 0.92197 0.68021 0.0
O306 O 0.13008 0.03413 0.691 0.0
O307 O 0.15374 0.0346 0.65996 0.0
O308 O 0.11587 0.92409 0.63965 0.0
O309 O 0.14952 0.95479 0.63333 0.0
O310 O 0.09417 0.9908 0.66435 0.0
O311 O 0.07791 0.90999 0.65653 0.0
H312 H 0.08153 0.70618 0.62575 0.0
H313 H 0.09124 0.61407 0.62346 0.0
H314 H 0.13687 0.63009 0.68588 0.0
H315 H 0.12767 0.72268 0.68756 0.0
H316 H 0.13564 0.13271 0.71199 0.0
H317 H 0.12967 0.22575 0.70668 0.0
H318 H 0.1366 0.20771 0.62933 0.0
H319 H 0.14193 0.11433 0.6347 0.0
Tb320 Tb 0.63087 0.5998 0.16062 0.0
Tb321 Tb 0.60622 0.70106 0.16459 0.0
C322 C 0.64518 0.50802 0.16658 0.0
C323 C 0.63769 0.45323 0.16354 0.0
C324 C 0.62734 0.42592 0.1829 0.0
C325 C 0.62309 0.37258 0.18119 0.0
C326 C 0.62923 0.34516 0.16012 0.0
C327 C 0.63901 0.37277 0.14053 0.0
C328 C 0.64327 0.4261 0.14225 0.0
C329 C 0.62887 0.6528 0.11958 0.0
C330 C 0.57411 0.60669 0.15533 0.0
C331 C 0.5917 0.79309 0.16089 0.0
C332 C 0.6005 0.84714 0.1596 0.0
C333 C 0.5951 0.87732 0.13919 0.0
C334 C 0.60063 0.93019 0.13861 0.0
C335 C 0.61151 0.95419 0.15857 0.0
C336 C 0.61759 0.92361 0.17872 0.0
C337 C 0.61218 0.87061 0.17924 0.0
C338 C 0.60752 0.6447 0.20458 0.0
C339 C 0.66228 0.69647 0.16877 0.0
O340 O 0.6346 0.53519 0.1834 0.0
O341 O 0.64914 0.53529 0.14702 0.0
O342 O 0.61259 0.6488 0.1352 0.0
O343 O 0.64672 0.62478 0.12648 0.0
O344 O 0.593 0.57692 0.15906 0.0
O345 O 0.57568 0.65746 0.15365 0.0
O346 O 0.59594 0.76317 0.14227 0.0
O347 O 0.59399 0.76851 0.18147 0.0
O348 O 0.62416 0.65119 0.18966 0.0
O349 O 0.58937 0.67188 0.19781 0.0
O350 O 0.64355 0.72402 0.16235 0.0
O351 O 0.66064 0.64619 0.17295 0.0
H352 H 0.6232 0.4454 0.19972 0.0
H353 H 0.61582 0.35252 0.19675 0.0
H354 H 0.64367 0.35304 0.12393 0.0
H355 H 0.65153 0.44576 0.12709 0.0
H356 H 0.5859 0.86031 0.12392 0.0
H357 H 0.59549 0.95269 0.12292 0.0
H358 H 0.62627 0.94081 0.19424 0.0
H359 H 0.61661 0.84846 0.19526 0.0
Tb360 Tb 0.35289 0.46463 0.16076 0.0
Tb361 Tb 0.37791 0.36317 0.16242 0.0
C362 C 0.33845 0.55584 0.16786 0.0
C363 C 0.34648 0.61038 0.16784 0.0
C364 C 0.33935 0.64266 0.18687 0.0
C365 C 0.34456 0.69566 0.18642 0.0
C366 C 0.35697 0.71765 0.16684 0.0
C367 C 0.36466 0.68493 0.14804 0.0
C368 C 0.35951 0.63174 0.14854 0.0
C369 C 0.35246 0.41271 0.11959 0.0
C370 C 0.40914 0.45819 0.15249 0.0
C371 C 0.39234 0.27149 0.15662 0.0
C372 C 0.38449 0.21672 0.15887 0.0
C373 C 0.37724 0.18898 0.13827 0.0
C374 C 0.37276 0.13564 0.13961 0.0
C375 C 0.37563 0.10865 0.16154 0.0
C376 C 0.38224 0.13669 0.18227 0.0
C377 C 0.38669 0.19001 0.18095 0.0
C378 C 0.37807 0.41708 0.20309 0.0
C379 C 0.32193 0.36716 0.17035 0.0
O380 O 0.34667 0.52585 0.18503 0.0
O381 O 0.33719 0.5321 0.14702 0.0
O382 O 0.3698 0.41674 0.13395 0.0
O383 O 0.33488 0.43982 0.12785 0.0
O384 O 0.39079 0.48717 0.15914 0.0
O385 O 0.40696 0.40809 0.14864 0.0
O386 O 0.38288 0.29949 0.13935 0.0
O387 O 0.39523 0.29796 0.17656 0.0
O388 O 0.36099 0.41139 0.18872 0.0
O389 O 0.39597 0.39026 0.19541 0.0
O390 O 0.34062 0.33936 0.16395 0.0
O391 O 0.32334 0.41785 0.17342 0.0
H392 H 0.32917 0.62706 0.20186 0.0
H393 H 0.33812 0.71969 0.20106 0.0
H394 H 0.37454 0.70051 0.13285 0.0
H395 H 0.36532 0.60763 0.13366 0.0
H396 H 0.37575 0.20817 0.1209 0.0
H397 H 0.36796 0.11522 0.12322 0.0
H398 H 0.3843 0.11728 0.19952 0.0
H399 H 0.39246 0.20997 0.19713 0.0
Tb400 Tb 0.63293 0.47314 0.3975 0.0
Tb401 Tb 0.60885 0.37079 0.39828 0.0
C402 C 0.64624 0.56405 0.38743 0.0
C403 C 0.63839 0.61855 0.38873 0.0
C404 C 0.64153 0.65042 0.3684 0.0
C405 C 0.63657 0.70342 0.36961 0.0
C406 C 0.62842 0.72579 0.39125 0.0
C407 C 0.62466 0.6935 0.41145 0.0
C408 C 0.62955 0.64033 0.4102 0.0
C409 C 0.63355 0.42717 0.44025 0.0
C410 C 0.57673 0.46478 0.4065 0.0
C411 C 0.59496 0.27907 0.4056 0.0
C412 C 0.60238 0.22436 0.40232 0.0
C413 C 0.61419 0.19756 0.42093 0.0
C414 C 0.61841 0.14423 0.41906 0.0
C415 C 0.61075 0.11639 0.39863 0.0
C416 C 0.59957 0.14356 0.37974 0.0
C417 C 0.59535 0.1968 0.3816 0.0
C418 C 0.60906 0.41993 0.3561 0.0
C419 C 0.6648 0.37593 0.39075 0.0
O420 O 0.63513 0.53389 0.37215 0.0
O421 O 0.65106 0.54054 0.40781 0.0
O422 O 0.61628 0.42746 0.42561 0.0
O423 O 0.65052 0.4555 0.43149 0.0
O424 O 0.59483 0.49422 0.39937 0.0
O425 O 0.57948 0.41527 0.41146 0.0
O426 O 0.60624 0.30689 0.42174 0.0
O427 O 0.59003 0.30573 0.38611 0.0
O428 O 0.62591 0.41644 0.37088 0.0
O429 O 0.59116 0.39376 0.36436 0.0
O430 O 0.64621 0.3482 0.39762 0.0
O431 O 0.66298 0.42608 0.38611 0.0
H432 H 0.64846 0.6345 0.35171 0.0
H433 H 0.6399 0.72718 0.3538 0.0
H434 H 0.61809 0.7094 0.42828 0.0
H435 H 0.62687 0.61656 0.42614 0.0
H436 H 0.61951 0.21742 0.4373 0.0
H437 H 0.62684 0.12447 0.43406 0.0
H438 H 0.59376 0.12351 0.36359 0.0
H439 H 0.58599 0.21605 0.36703 0.0
Tb440 Tb 0.35314 0.59473 0.39716 0.0
Tb441 Tb 0.37771 0.69642 0.39453 0.0
C442 C 0.33869 0.50324 0.3907 0.0
C443 C 0.34679 0.44882 0.39067 0.0
C444 C 0.34066 0.41715 0.37104 0.0
C445 C 0.34575 0.36416 0.37142 0.0
C446 C 0.357 0.34157 0.39154 0.0
C447 C 0.36372 0.37365 0.41095 0.0
C448 C 0.35871 0.42682 0.41052 0.0
C449 C 0.35308 0.64744 0.43808 0.0
C450 C 0.40958 0.60252 0.40415 0.0
C451 C 0.39223 0.78843 0.39911 0.0
C452 C 0.38418 0.84301 0.39723 0.0
C453 C 0.37535 0.86934 0.41758 0.0
C454 C 0.37082 0.92266 0.41657 0.0
C455 C 0.37521 0.95093 0.39525 0.0
C456 C 0.38332 0.92423 0.3747 0.0
C457 C 0.38785 0.871 0.37571 0.0
C458 C 0.37748 0.64156 0.35415 0.0
C459 C 0.32153 0.6913 0.38853 0.0
O460 O 0.34643 0.53313 0.37324 0.0
O461 O 0.33787 0.52725 0.4115 0.0
O462 O 0.37029 0.64354 0.42353 0.0
O463 O 0.33551 0.61973 0.4302 0.0
O464 O 0.39115 0.57278 0.39838 0.0
O465 O 0.40738 0.65274 0.40753 0.0
O466 O 0.38408 0.7604 0.41707 0.0
O467 O 0.39373 0.7619 0.37903 0.0
O468 O 0.36051 0.64728 0.36869 0.0
O469 O 0.39543 0.66864 0.36155 0.0
O470 O 0.34033 0.71949 0.39429 0.0
O471 O 0.32304 0.64067 0.38532 0.0
H472 H 0.33131 0.43321 0.35563 0.0
H473 H 0.34009 0.34056 0.35629 0.0
H474 H 0.37271 0.35756 0.42657 0.0
H475 H 0.36371 0.45039 0.4259 0.0
H476 H 0.37266 0.84914 0.43455 0.0
H477 H 0.3648 0.94208 0.4328 0.0
H478 H 0.38655 0.94464 0.35788 0.0
H479 H 0.39488 0.85211 0.35976 0.0
Tb480 Tb 0.37622 0.36811 0.89665 0.0
Tb481 Tb 0.35191 0.47091 0.89561 0.0
C482 C 0.38996 0.27686 0.90508 0.0
C483 C 0.38132 0.22278 0.9055 0.0
C484 C 0.38948 0.18951 0.92376 0.0
C485 C 0.38379 0.13673 0.92337 0.0
C486 C 0.36987 0.11598 0.90459 0.0
C487 C 0.36105 0.14977 0.88669 0.0
C488 C 0.36667 0.20274 0.88717 0.0
C489 C 0.37613 0.41678 0.85434 0.0
C490 C 0.3206 0.37252 0.88863 0.0
C491 C 0.3389 0.56203 0.8855 0.0
C492 C 0.34542 0.61709 0.88931 0.0
C493 C 0.35135 0.64783 0.86921 0.0
C494 C 0.35519 0.70113 0.87175 0.0
C495 C 0.35305 0.72511 0.89447 0.0
C496 C 0.34761 0.69408 0.91471 0.0
C497 C 0.34382 0.64065 0.91217 0.0
C498 C 0.35122 0.42521 0.93838 0.0
C499 C 0.40836 0.46314 0.9042 0.0
O500 O 0.3819 0.30806 0.92181 0.0
O501 O 0.39157 0.29949 0.88396 0.0
O502 O 0.35935 0.4141 0.86929 0.0
O503 O 0.39371 0.3893 0.86233 0.0
O504 O 0.33891 0.34586 0.89683 0.0
O505 O 0.3226 0.4223 0.88302 0.0
O506 O 0.35303 0.5345 0.87185 0.0
O507 O 0.33094 0.53562 0.90403 0.0
O508 O 0.36848 0.42546 0.9237 0.0
O509 O 0.33447 0.45414 0.92974 0.0
O510 O 0.38987 0.49272 0.89856 0.0
O511 O 0.40631 0.41291 0.90778 0.0
H512 H 0.40088 0.20413 0.938 0.0
H513 H 0.39108 0.11183 0.93729 0.0
H514 H 0.35002 0.13516 0.87217 0.0
H515 H 0.36002 0.2277 0.87294 0.0
H516 H 0.3524 0.63082 0.85134 0.0
H517 H 0.35904 0.72383 0.85572 0.0
H518 H 0.34612 0.71115 0.93252 0.0
H519 H 0.3392 0.6181 0.92803 0.0
Tb520 Tb 0.60755 0.70002 0.89641 0.0
Tb521 Tb 0.63122 0.58891 0.89694 0.0
C522 C 0.59465 0.79225 0.90278 0.0
C523 C 0.60438 0.84465 0.90693 0.0
C524 C 0.59101 0.88013 0.92042 0.0
C525 C 0.59785 0.93222 0.92172 0.0
C526 C 0.61824 0.94996 0.90946 0.0
C527 C 0.63225 0.91369 0.89687 0.0
C528 C 0.6254 0.86151 0.89563 0.0
C529 C 0.60845 0.64703 0.85535 0.0
C530 C 0.66374 0.68954 0.8951 0.0
C531 C 0.64598 0.50305 0.88179 0.0
C532 C 0.64346 0.44706 0.88643 0.0
C533 C 0.64731 0.41253 0.86732 0.0
C534 C 0.64489 0.35914 0.87083 0.0
C535 C 0.63852 0.33903 0.8936 0.0
C536 C 0.63475 0.37385 0.91283 0.0
C537 C 0.63711 0.42749 0.90925 0.0
C538 C 0.62339 0.62298 0.94159 0.0
C539 C 0.57511 0.60407 0.90399 0.0
O540 O 0.59635 0.75839 0.92044 0.0
O541 O 0.59878 0.77182 0.8815 0.0
O542 O 0.62442 0.64861 0.87127 0.0
O543 O 0.59134 0.67779 0.8617 0.0
O544 O 0.64493 0.71897 0.89908 0.0
O545 O 0.66235 0.63869 0.8914 0.0
O546 O 0.62711 0.52645 0.87317 0.0
O547 O 0.65716 0.53074 0.89818 0.0
O548 O 0.61983 0.64523 0.92171 0.0
O549 O 0.63175 0.57734 0.93658 0.0
O550 O 0.59277 0.57293 0.89727 0.0
O551 O 0.57779 0.6542 0.90807 0.0
H552 H 0.57467 0.86798 0.92916 0.0
H553 H 0.58651 0.95903 0.93137 0.0
H554 H 0.64825 0.92587 0.88754 0.0
H555 H 0.63606 0.83479 0.88514 0.0
H556 H 0.65222 0.42694 0.84958 0.0
H557 H 0.64827 0.33353 0.85571 0.0
H558 H 0.62959 0.3597 0.93052 0.0
H559 H 0.6339 0.45362 0.92422 0.0
Tb560 Tb 0.37681 0.69238 0.66122 0.0
Tb561 Tb 0.3522 0.59008 0.66112 0.0
C562 C 0.39068 0.78399 0.65365 0.0
C563 C 0.38286 0.83854 0.6564 0.0
C564 C 0.37201 0.86475 0.63702 0.0
C565 C 0.3672 0.91785 0.63851 0.0
C566 C 0.37324 0.94608 0.65937 0.0
C567 C 0.38356 0.9196 0.67897 0.0
C568 C 0.3884 0.86653 0.67746 0.0
C569 C 0.37684 0.64172 0.70301 0.0
C570 C 0.32102 0.68801 0.66978 0.0
C571 C 0.33803 0.49887 0.66932 0.0
C572 C 0.34567 0.44416 0.66881 0.0
C573 C 0.3413 0.41313 0.68917 0.0
C574 C 0.34576 0.35989 0.68857 0.0
C575 C 0.35462 0.33639 0.66748 0.0
C576 C 0.35982 0.3679 0.64733 0.0
C577 C 0.35537 0.42132 0.64797 0.0
C578 C 0.35116 0.63926 0.61918 0.0
C579 C 0.40842 0.59783 0.65239 0.0
O580 O 0.37982 0.75556 0.63745 0.0
O581 O 0.39534 0.7579 0.67339 0.0
O582 O 0.35999 0.64517 0.6882 0.0
O583 O 0.39442 0.66961 0.69523 0.0
O584 O 0.33962 0.7157 0.66294 0.0
O585 O 0.32254 0.6374 0.67347 0.0
O586 O 0.3477 0.52861 0.6857 0.0
O587 O 0.3353 0.52275 0.64863 0.0
O588 O 0.36868 0.63702 0.63347 0.0
O589 O 0.33398 0.61159 0.62799 0.0
O590 O 0.39023 0.56857 0.65944 0.0
O591 O 0.40591 0.64756 0.64781 0.0
H592 H 0.36775 0.84453 0.62042 0.0
H593 H 0.35897 0.93693 0.6232 0.0
H594 H 0.38873 0.94024 0.69517 0.0
H595 H 0.39713 0.8478 0.69258 0.0
H596 H 0.33384 0.42992 0.70544 0.0
H597 H 0.342 0.33701 0.70456 0.0
H598 H 0.36652 0.35105 0.63076 0.0
H599 H 0.35891 0.44438 0.63198 0.0
Tb600 Tb 0.60706 0.36277 0.6654 0.0
Tb601 Tb 0.63153 0.46497 0.6624 0.0
C602 C 0.59262 0.27086 0.66037 0.0
C603 C 0.60121 0.2171 0.65788 0.0
C604 C 0.58935 0.18379 0.6419 0.0
C605 C 0.59516 0.13118 0.6409 0.0
C606 C 0.61294 0.11063 0.65598 0.0
C607 C 0.6254 0.14449 0.67143 0.0
C608 C 0.61963 0.19731 0.67234 0.0
C609 C 0.60766 0.41743 0.70593 0.0
C610 C 0.66286 0.36797 0.67112 0.0
C611 C 0.64581 0.55683 0.66863 0.0
C612 C 0.6385 0.61172 0.66615 0.0
C613 C 0.63705 0.64262 0.68698 0.0
C614 C 0.63287 0.6959 0.68517 0.0
C615 C 0.63015 0.71971 0.66244 0.0
C616 C 0.63104 0.68852 0.64159 0.0
C617 C 0.63518 0.63509 0.64341 0.0
C618 C 0.63122 0.41214 0.62147 0.0
C619 C 0.57479 0.45685 0.65651 0.0
O620 O 0.59648 0.30239 0.64221 0.0
O621 O 0.59566 0.29336 0.68133 0.0
O622 O 0.62436 0.41267 0.69096 0.0
O623 O 0.58998 0.38882 0.69904 0.0
O624 O 0.64438 0.34053 0.66387 0.0
O625 O 0.66107 0.41823 0.67546 0.0
O626 O 0.63517 0.52933 0.68532 0.0
O627 O 0.6496 0.53016 0.64891 0.0
O628 O 0.61419 0.41596 0.63628 0.0
O629 O 0.64876 0.44022 0.62912 0.0
O630 O 0.5936 0.487 0.66026 0.0
O631 O 0.57643 0.40615 0.65489 0.0
H632 H 0.57502 0.19822 0.63067 0.0
H633 H 0.58504 0.10622 0.62899 0.0
H634 H 0.63941 0.13003 0.68304 0.0
H635 H 0.62916 0.22232 0.68473 0.0
H636 H 0.63985 0.62576 0.70471 0.0
H637 H 0.63262 0.71871 0.70159 0.0
H638 H 0.62872 0.70547 0.62382 0.0
H639 H 0.63628 0.61242 0.62698 0.0
H640 H 0.20531 0.1479 0.19161 0.0
H641 H 0.1736 0.29002 0.16551 0.0
H642 H 0.24387 0.19114 0.19377 0.0
H643 H 0.21207 0.33249 0.16701 0.0
H644 H 0.28086 0.40797 0.18863 0.0
H645 H 0.24265 0.3645 0.19348 0.0
H646 H 0.27293 0.22308 0.16521 0.0
H647 H 0.31121 0.26595 0.16101 0.0
C648 C 0.20653 0.18834 0.18642 0.0
C649 C 0.18643 0.21542 0.17826 0.0
C650 C 0.22863 0.21303 0.18754 0.0
C651 C 0.23105 0.26518 0.18047 0.0
C652 C 0.21078 0.29252 0.17292 0.0
C653 C 0.18873 0.26797 0.17189 0.0
C654 C 0.27939 0.36751 0.1836 0.0
C655 C 0.29902 0.34051 0.17429 0.0
C656 C 0.25748 0.34266 0.18631 0.0
C657 C 0.25473 0.2904 0.17963 0.0
C658 C 0.27452 0.26314 0.17084 0.0
C659 C 0.29644 0.28788 0.16826 0.0
H660 H 0.77997 0.9139 0.18695 0.0
H661 H 0.81121 0.77184 0.16031 0.0
H662 H 0.74113 0.87174 0.1882 0.0
H663 H 0.77247 0.7305 0.16096 0.0
H664 H 0.70402 0.65546 0.18528 0.0
H665 H 0.74247 0.69858 0.18825 0.0
H666 H 0.71146 0.83973 0.16033 0.0
H667 H 0.67292 0.79719 0.15801 0.0
C668 C 0.77857 0.8738 0.18131 0.0
C669 C 0.79869 0.84631 0.17351 0.0
C670 C 0.75631 0.84973 0.18193 0.0
C671 C 0.75373 0.79776 0.1747 0.0
C672 C 0.7739 0.77029 0.16704 0.0
C673 C 0.79611 0.79421 0.16651 0.0
C674 C 0.70538 0.69576 0.17989 0.0
C675 C 0.68545 0.72281 0.1713 0.0
C676 C 0.72744 0.7204 0.18149 0.0
C677 C 0.73004 0.77251 0.17442 0.0
C678 C 0.70999 0.79976 0.16622 0.0
C679 C 0.68793 0.77522 0.16473 0.0
H680 H 0.31109 0.79254 0.39794 0.0
H681 H 0.27923 0.64881 0.37398 0.0
H682 H 0.27242 0.83416 0.39685 0.0
H683 H 0.24052 0.69107 0.37224 0.0
H684 H 0.17299 0.76601 0.40364 0.0
H685 H 0.21146 0.72385 0.40023 0.0
H686 H 0.2415 0.86465 0.37058 0.0
H687 H 0.20312 0.90742 0.37464 0.0
C688 C 0.29588 0.76994 0.39213 0.0
C689 C 0.29824 0.71724 0.38617 0.0
C690 C 0.2737 0.79397 0.39135 0.0
C691 C 0.25335 0.76596 0.38448 0.0
C692 C 0.2558 0.71354 0.37795 0.0
C693 C 0.278 0.6894 0.37883 0.0
C694 C 0.18775 0.78795 0.39625 0.0
C695 C 0.18503 0.84021 0.38956 0.0
C696 C 0.20979 0.76362 0.39415 0.0
C697 C 0.22959 0.79089 0.38518 0.0
C698 C 0.2267 0.84279 0.37791 0.0
C699 C 0.20467 0.86724 0.38014 0.0
H700 H 0.78105 0.15492 0.37563 0.0
H701 H 0.81299 0.29577 0.40293 0.0
H702 H 0.74305 0.19948 0.3718 0.0
H703 H 0.77496 0.33969 0.39975 0.0
H704 H 0.70707 0.41691 0.37486 0.0
H705 H 0.74544 0.37315 0.37226 0.0
H706 H 0.71316 0.23187 0.39881 0.0
H707 H 0.67491 0.27485 0.40077 0.0
C708 C 0.77999 0.19535 0.38078 0.0
C709 C 0.80002 0.22167 0.38971 0.0
C710 C 0.75819 0.22085 0.37868 0.0
C711 C 0.75593 0.2731 0.38558 0.0
C712 C 0.77613 0.29968 0.39396 0.0
C713 C 0.79792 0.2743 0.39595 0.0
C714 C 0.70816 0.37641 0.37995 0.0
C715 C 0.68794 0.34948 0.38808 0.0
C716 C 0.73015 0.3514 0.37857 0.0
C717 C 0.73238 0.29901 0.38536 0.0
C718 C 0.71204 0.27197 0.39307 0.0
C719 C 0.6901 0.29684 0.39437 0.0
H720 H 0.67312 0.79057 0.90588 0.0
H721 H 0.70722 0.64902 0.88251 0.0
H722 H 0.71098 0.83519 0.90499 0.0
H723 H 0.74536 0.69452 0.88115 0.0
H724 H 0.81129 0.77653 0.91166 0.0
H725 H 0.77359 0.73141 0.90916 0.0
H726 H 0.74124 0.86799 0.87809 0.0
H727 H 0.77911 0.91408 0.88113 0.0
C728 C 0.68867 0.76892 0.90033 0.0
C729 C 0.68709 0.71601 0.89428 0.0
C730 C 0.71041 0.79481 0.89966 0.0
C731 C 0.73118 0.76858 0.8929 0.0
C732 C 0.72967 0.71572 0.88668 0.0
C733 C 0.70783 0.68965 0.8874 0.0
C734 C 0.79621 0.79717 0.90423 0.0
C735 C 0.79823 0.84918 0.89669 0.0
C736 C 0.77459 0.77096 0.90261 0.0
C737 C 0.75442 0.79596 0.89336 0.0
C738 C 0.75643 0.84782 0.88557 0.0
C739 C 0.77812 0.87421 0.88726 0.0
H740 H 0.27782 0.4117 0.87318 0.0
H741 H 0.31185 0.27012 0.89677 0.0
H742 H 0.23996 0.36545 0.87028 0.0
H743 H 0.2742 0.22477 0.89453 0.0
H744 H 0.20604 0.14519 0.87366 0.0
H745 H 0.24359 0.19166 0.86835 0.0
H746 H 0.21191 0.32955 0.89871 0.0
H747 H 0.1745 0.28403 0.90338 0.0
C748 C 0.27726 0.37081 0.87765 0.0
C749 C 0.2978 0.34481 0.88541 0.0
C750 C 0.25558 0.34434 0.87608 0.0
C751 C 0.25405 0.29143 0.88227 0.0
C752 C 0.27477 0.26526 0.88931 0.0
C753 C 0.29637 0.29156 0.89082 0.0
C754 C 0.20709 0.18551 0.87902 0.0
C755 C 0.18733 0.2107 0.8891 0.0
C756 C 0.2286 0.21211 0.87604 0.0
C757 C 0.23075 0.26433 0.88314 0.0
C758 C 0.2108 0.28968 0.89269 0.0
C759 C 0.18937 0.26325 0.89559 0.0
H760 H 0.67292 0.26668 0.66155 0.0
H761 H 0.70453 0.40793 0.68883 0.0
H762 H 0.7108 0.22265 0.66553 0.0
H763 H 0.74244 0.36317 0.69346 0.0
H764 H 0.81063 0.28669 0.66505 0.0
H765 H 0.77255 0.33005 0.66685 0.0
H766 H 0.73989 0.18943 0.69369 0.0
H767 H 0.7782 0.14513 0.69124 0.0
C768 C 0.6879 0.28828 0.66864 0.0
C769 C 0.68576 0.34104 0.67466 0.0
C770 C 0.7096 0.26279 0.67113 0.0
C771 C 0.72967 0.28935 0.67979 0.0
C772 C 0.72739 0.34179 0.6864 0.0
C773 C 0.70566 0.36742 0.68382 0.0
C774 C 0.79541 0.26486 0.67146 0.0
C775 C 0.79743 0.21221 0.67781 0.0
C776 C 0.77356 0.29001 0.6727 0.0
C777 C 0.75316 0.26327 0.68042 0.0
C778 C 0.75525 0.21093 0.68738 0.0
C779 C 0.77719 0.18561 0.68609 0.0
H780 H 0.20619 0.91177 0.69121 0.0
H781 H 0.17398 0.77265 0.66231 0.0
H782 H 0.2443 0.86668 0.69396 0.0
H783 H 0.21186 0.72857 0.66442 0.0
H784 H 0.27896 0.64775 0.68656 0.0
H785 H 0.24118 0.69302 0.69129 0.0
H786 H 0.27392 0.83488 0.66604 0.0
H787 H 0.31163 0.79033 0.66196 0.0
C788 C 0.20721 0.87168 0.68551 0.0
C789 C 0.18709 0.84599 0.67642 0.0
C790 C 0.22903 0.8459 0.68699 0.0
C791 C 0.23112 0.79401 0.67939 0.0
C792 C 0.21084 0.7682 0.6708 0.0
C793 C 0.18911 0.79379 0.66938 0.0
C794 C 0.27811 0.68867 0.6822 0.0
C795 C 0.29826 0.71527 0.67372 0.0
C796 C 0.25646 0.71459 0.68484 0.0
C797 C 0.25452 0.76755 0.67895 0.0
C798 C 0.27485 0.79433 0.67107 0.0
C799 C 0.29646 0.76854 0.66852 0.0
H800 H 0.06866 0.96752 0.33973 0.0
H801 H 0.14352 0.93824 0.33113 0.0
H802 H 0.06908 1.02279 0.30406 0.0
H803 H 0.14389 0.98924 0.29412 0.0
H804 H 0.1444 0.1164 0.23789 0.0
H805 H 0.14414 0.06526 0.27488 0.0
H806 H 0.06938 0.03209 0.26395 0.0
H807 H 0.06957 0.0875 0.22833 0.0
C808 C 0.08516 0.97234 0.32986 0.0
C809 C 0.10603 0.94861 0.33814 0.0
C810 C 0.08545 1.00375 0.30913 0.0
C811 C 0.10651 1.01095 0.29557 0.0
C812 C 0.12735 0.98632 0.30399 0.0
C813 C 0.12718 0.95637 0.32518 0.0
C814 C 0.12793 0.09829 0.24362 0.0
C815 C 0.10698 0.10622 0.23041 0.0
C816 C 0.12774 0.06828 0.26479 0.0
C817 C 0.10671 0.04375 0.27293 0.0
C818 C 0.08586 0.05106 0.2591 0.0
C819 C 0.08593 0.08254 0.2384 0.0
H820 H 0.91602 0.08877 0.34181 0.0
H821 H 0.84217 0.12461 0.33027 0.0
H822 H 0.91588 0.03301 0.30641 0.0
H823 H 0.84222 0.0733 0.29345 0.0
H824 H 0.84112 0.9461 0.23755 0.0
H825 H 0.84103 0.99819 0.2741 0.0
H826 H 0.91703 1.02107 0.26666 0.0
H827 H 0.91697 0.96452 0.23152 0.0
C828 C 0.89983 0.0853 0.33133 0.0
C829 C 0.87913 0.11097 0.33874 0.0
C830 C 0.89972 0.05359 0.31073 0.0
C831 C 0.87907 0.04806 0.29639 0.0
C832 C 0.85842 0.07477 0.30392 0.0
C833 C 0.85837 0.10493 0.32501 0.0
C834 C 0.85777 0.96218 0.24394 0.0
C835 C 0.87906 0.95098 0.23184 0.0
C836 C 0.85779 0.99278 0.26488 0.0
C837 C 0.87905 1.01474 0.27391 0.0
C838 C 0.90029 1.00421 0.26116 0.0
C839 C 0.90032 0.97207 0.2407 0.0
H840 H 0.84007 0.08574 0.72926 0.0
H841 H 0.91359 0.12624 0.74079 0.0
H842 H 0.84082 0.03057 0.76504 0.0
H843 H 0.91417 0.07319 0.77743 0.0
H844 H 0.91469 0.93498 0.82955 0.0
H845 H 0.91439 0.98807 0.79286 0.0
H846 H 0.84136 1.0301 0.80712 0.0
H847 H 0.84146 0.97494 0.84287 0.0
C848 C 0.8564 0.08303 0.73956 0.0
C849 C 0.87682 0.11002 0.73205 0.0
C850 C 0.8568 0.05171 0.7603 0.0
C851 C 0.87757 0.04708 0.77442 0.0
C852 C 0.89794 0.07479 0.76696 0.0
C853 C 0.89758 0.1057 0.74603 0.0
C854 C 0.89858 0.95545 0.82471 0.0
C855 C 0.87816 0.95101 0.83921 0.0
C856 C 0.89842 0.98635 0.80376 0.0
C857 C 0.87786 1.01386 0.7968 0.0
C858 C 0.85745 1.00911 0.81145 0.0
C859 C 0.85756 0.97781 0.83218 0.0
H860 H 0.14547 0.08614 0.84048 0.0
H861 H 0.07158 0.1229 0.82904 0.0
H862 H 0.14515 0.03068 0.80498 0.0
H863 H 0.07145 0.06982 0.79245 0.0
H864 H 0.07186 0.93164 0.74075 0.0
H865 H 0.07175 0.98528 0.77712 0.0
H866 H 0.14485 1.02821 0.76326 0.0
H867 H 0.14519 0.97212 0.72794 0.0
C868 C 0.12914 0.08259 0.83023 0.0
C869 C 0.10848 0.10844 0.83776 0.0
C870 C 0.129 0.05112 0.80961 0.0
C871 C 0.10827 0.04536 0.79554 0.0
C872 C 0.08767 0.07222 0.80291 0.0
C873 C 0.08776 0.10319 0.82379 0.0
C874 C 0.08792 0.95233 0.74564 0.0
C875 C 0.10848 0.94787 0.73138 0.0
C876 C 0.08783 0.98364 0.7664 0.0
C877 C 0.10826 1.01168 0.77336 0.0
C878 C 0.12883 1.00685 0.75895 0.0
C879 C 0.12899 0.97501 0.73844 0.0
H880 H 0.57159 0.46991 0.33552 0.0
H881 H 0.64662 0.4431 0.3268 0.0
H882 H 0.57153 0.52493 0.29983 0.0
H883 H 0.64655 0.49384 0.28967 0.0
H884 H 0.64575 0.62078 0.23289 0.0
H885 H 0.64631 0.56875 0.26965 0.0
H886 H 0.57141 0.53513 0.26 0.0
H887 H 0.57082 0.5914 0.22475 0.0
C888 C 0.58803 0.47515 0.32559 0.0
C889 C 0.60908 0.45218 0.33387 0.0
C890 C 0.58805 0.50644 0.30481 0.0
C891 C 0.60901 0.51427 0.29114 0.0
C892 C 0.63005 0.49039 0.29956 0.0
C893 C 0.63013 0.46059 0.32083 0.0
C894 C 0.62945 0.60231 0.23885 0.0
C895 C 0.60821 0.61049 0.22615 0.0
C896 C 0.62971 0.57181 0.25991 0.0
C897 C 0.60886 0.54704 0.26843 0.0
C898 C 0.58778 0.55434 0.25496 0.0
C899 C 0.5874 0.5863 0.23443 0.0
H900 H 0.4147 0.58984 0.33425 0.0
H901 H 0.33976 0.61756 0.32525 0.0
H902 H 0.41467 0.53397 0.29892 0.0
H903 H 0.33978 0.56597 0.28846 0.0
H904 H 0.34029 0.43943 0.23207 0.0
H905 H 0.33997 0.49048 0.269 0.0
H906 H 0.41484 0.52413 0.25899 0.0
H907 H 0.4152 0.46874 0.22347 0.0
C908 C 0.39825 0.5845 0.32436 0.0
C909 C 0.37726 0.60802 0.33243 0.0
C910 C 0.3982 0.55276 0.3038 0.0
C911 C 0.37726 0.54506 0.29014 0.0
C912 C 0.35625 0.56932 0.29839 0.0
C913 C 0.3562 0.59958 0.31946 0.0
C914 C 0.35666 0.4576 0.238 0.0
C915 C 0.3778 0.44981 0.22508 0.0
C916 C 0.35651 0.48757 0.25915 0.0
C917 C 0.37739 0.51223 0.26754 0.0
C918 C 0.39844 0.50504 0.25398 0.0
C919 C 0.3987 0.47358 0.23332 0.0
H920 H 0.33941 0.47249 0.83522 0.0
H921 H 0.41271 0.43234 0.8225 0.0
H922 H 0.33981 0.52866 0.79985 0.0
H923 H 0.41284 0.48567 0.78599 0.0
H924 H 0.41375 0.62273 0.73398 0.0
H925 H 0.41356 0.56937 0.77048 0.0
H926 H 0.3394 0.53327 0.75838 0.0
H927 H 0.33939 0.58962 0.72307 0.0
C928 C 0.35562 0.47548 0.82472 0.0
C929 C 0.37612 0.44856 0.83188 0.0
C930 C 0.35581 0.50731 0.80416 0.0
C931 C 0.37638 0.51222 0.78974 0.0
C932 C 0.39677 0.48412 0.79673 0.0
C933 C 0.39666 0.45295 0.81757 0.0
C934 C 0.3974 0.60362 0.73929 0.0
C935 C 0.37667 0.60989 0.72545 0.0
C936 C 0.3973 0.57243 0.76013 0.0
C937 C 0.3765 0.54622 0.76759 0.0
C938 C 0.35574 0.55306 0.75367 0.0
C939 C 0.35577 0.5849 0.73311 0.0
H940 H 0.6452 0.58912 0.83745 0.0
H941 H 0.57236 0.63096 0.82324 0.0
H942 H 0.64508 0.53238 0.80218 0.0
H943 H 0.57245 0.57659 0.78719 0.0
H944 H 0.5713 0.43649 0.73735 0.0
H945 H 0.57174 0.49079 0.77342 0.0
H946 H 0.64546 0.52873 0.7599 0.0
H947 H 0.64519 0.47201 0.72464 0.0
C948 C 0.62916 0.58626 0.82671 0.0
C949 C 0.60868 0.61391 0.83336 0.0
C950 C 0.62913 0.5541 0.80626 0.0
C951 C 0.60872 0.54938 0.79162 0.0
C952 C 0.58838 0.57807 0.79814 0.0
C953 C 0.58836 0.60975 0.81874 0.0
C954 C 0.58762 0.45628 0.74219 0.0
C955 C 0.60814 0.45033 0.72799 0.0
C956 C 0.58785 0.48794 0.76279 0.0
C957 C 0.6086 0.51486 0.76973 0.0
C958 C 0.62919 0.5084 0.75549 0.0
C959 C 0.62899 0.47629 0.73503 0.0
H960 H 0.16929 0.11307 0.97692 0.0
H961 H 0.09809 0.17303 0.96971 0.0
H962 H 0.16753 0.12508 1.02019 0.0
H963 H 0.09656 0.18768 1.01356 0.0
H964 H 0.09383 0.13865 0.09545 0.0
H965 H 0.09348 0.14356 0.05123 0.0
H966 H 0.16824 0.18295 0.05189 0.0
H967 H 0.16867 0.17471 0.09573 0.0
C968 C 0.15333 0.12978 0.9846 0.0
C969 C 0.13381 0.14191 0.96986 0.0
C970 C 0.15238 0.13723 1.00956 0.0
C971 C 0.13196 0.15784 1.02068 0.0
C972 C 0.11252 0.17125 1.0058 0.0
C973 C 0.11343 0.16329 0.98063 0.0
C974 C 0.11003 0.14919 0.08605 0.0
C975 C 0.13135 0.15572 0.09893 0.0
C976 C 0.10987 0.15216 0.06067 0.0
C977 C 0.13097 0.16253 0.04771 0.0
C978 C 0.1518 0.17307 0.06099 0.0
C979 C 0.15205 0.16897 0.0862 0.0
H980 H 0.88737 0.87479 0.96951 0.0
H981 H 0.82715 0.97472 0.9817 0.0
H982 H 0.88886 0.85553 1.01332 0.0
H983 H 0.82851 0.95601 1.0245 0.0
H984 H 0.82222 0.90066 0.0976 0.0
H985 H 0.82187 0.88765 0.05391 0.0
H986 H 0.89814 0.90641 0.05203 0.0
H987 H 0.89838 0.91761 0.09619 0.0
C988 C 0.87422 0.8917 0.98142 0.0
C989 C 0.85709 0.92609 0.97221 0.0
C990 C 0.87516 0.88105 1.00646 0.0
C991 C 0.85865 0.90381 1.02248 0.0
C992 C 0.84121 0.93685 1.01283 0.0
C993 C 0.84053 0.94792 0.9882 0.0
C994 C 0.83898 0.89984 0.08795 0.0
C995 C 0.86032 0.90964 0.10019 0.0
C996 C 0.83881 0.89291 0.06289 0.0
C997 C 0.85993 0.89701 0.04933 0.0
C998 C 0.88158 0.90272 0.06188 0.0
C999 C 0.88175 0.90904 0.08715 0.0
H1000 H 0.16693 0.87949 0.47291 0.0
H1001 H 0.0923 0.917 0.47311 0.0
H1002 H 0.16625 0.87027 0.51671 0.0
H1003 H 0.09173 0.91128 0.5173 0.0
H1004 H 0.09588 0.88153 0.59887 0.0
H1005 H 0.09434 0.86705 0.55497 0.0
H1006 H 0.16585 0.92742 0.54854 0.0
H1007 H 0.1676 0.93914 0.59175 0.0
C1008 C 0.15031 0.88541 0.48242 0.0
C1009 C 0.12975 0.89932 0.46968 0.0
C1010 C 0.14991 0.88073 0.5076 0.0
C1011 C 0.12908 0.89145 0.52087 0.0
C1012 C 0.10811 0.90252 0.50788 0.0
C1013 C 0.10841 0.906 0.48252 0.0
C1014 C 0.11132 0.89075 0.58797 0.0
C1015 C 0.13184 0.91151 0.59878 0.0
C1016 C 0.11042 0.8829 0.56278 0.0
C1017 C 0.13001 0.89578 0.54793 0.0
C1018 C 0.15056 0.91566 0.55911 0.0
C1019 C 0.1515 0.92298 0.58406 0.0
H1020 H 0.88833 0.17772 0.59921 0.0
H1021 H 0.81665 0.11978 0.59251 0.0
H1022 H 0.88979 0.19176 0.55526 0.0
H1023 H 0.81832 0.13105 0.54923 0.0
H1024 H 0.81714 0.17885 0.47335 0.0
H1025 H 0.81777 0.1876 0.51715 0.0
H1026 H 0.89242 0.14784 0.51767 0.0
H1027 H 0.89189 0.14256 0.47349 0.0
C1028 C 0.87288 0.1683 0.58839 0.0
C1029 C 0.85239 0.14761 0.59935 0.0
C1030 C 0.87374 0.1759 0.56316 0.0
C1031 C 0.85414 0.16281 0.5484 0.0
C1032 C 0.83362 0.14296 0.55971 0.0
C1033 C 0.83272 0.13591 0.58471 0.0
C1034 C 0.83378 0.17306 0.48284 0.0
C1035 C 0.85439 0.15968 0.47006 0.0
C1036 C 0.83414 0.17747 0.50804 0.0
C1037 C 0.85501 0.16703 0.5213 0.0
C1038 C 0.87601 0.15638 0.50828 0.0
C1039 C 0.87573 0.15315 0.48291 0.0
H1040 H 0.66205 0.67714 0.08567 0.0
H1041 H 0.58663 0.6539 0.09492 0.0
H1042 H 0.65658 0.68266 0.04179 0.0
H1043 H 0.58126 0.65783 0.05091 0.0
H1044 H 0.60113 0.56858 0.97645 0.0
H1045 H 0.59903 0.58868 1.01955 0.0
H1046 H 0.63343 0.73569 1.00627 0.0
H1047 H 0.63463 0.71616 0.96263 0.0
C1048 C 0.64425 0.67432 0.07833 0.0
C1049 C 0.62479 0.66498 0.09369 0.0
C1050 C 0.6411 0.67769 0.05323 0.0
C1051 C 0.61849 0.67066 0.04293 0.0
C1052 C 0.59887 0.66352 0.05838 0.0
C1053 C 0.60194 0.66139 0.08355 0.0
C1054 C 0.60749 0.60596 0.98264 0.0
C1055 C 0.61781 0.64105 0.96627 0.0
C1056 C 0.6063 0.61747 1.0073 0.0
C1057 C 0.61608 0.66372 1.0163 0.0
C1058 C 0.62568 0.69983 0.9998 0.0
C1059 C 0.62622 0.68889 0.97488 0.0
H1060 H 0.31649 0.43821 0.9714 0.0
H1061 H 0.38856 0.38322 0.96451 0.0
H1062 H 0.31821 0.42643 1.01464 0.0
H1063 H 0.39009 0.36867 1.00843 0.0
H1064 H 0.39175 0.41822 0.09023 0.0
H1065 H 0.3924 0.41264 0.04605 0.0
H1066 H 0.31807 0.36944 0.04659 0.0
H1067 H 0.3173 0.37854 0.09038 0.0
C1068 C 0.33266 0.42261 0.97915 0.0
C1069 C 0.35242 0.4119 0.96449 0.0
C1070 C 0.33359 0.41525 1.00412 0.0
C1071 C 0.35424 0.39609 1.01537 0.0
C1072 C 0.37393 0.38397 1.00057 0.0
C1073 C 0.37304 0.39187 0.97537 0.0
C1074 C 0.3757 0.40675 0.08081 0.0
C1075 C 0.35438 0.39942 0.09364 0.0
C1076 C 0.37605 0.40336 0.05545 0.0
C1077 C 0.35515 0.39173 0.04244 0.0
C1078 C 0.33435 0.38035 0.0557 0.0
C1079 C 0.33391 0.38494 0.08088 0.0
H1080 H 0.66801 0.44016 0.47371 0.0
H1081 H 0.59588 0.38557 0.46602 0.0
H1082 H 0.66578 0.42777 0.51698 0.0
H1083 H 0.59379 0.3708 0.50989 0.0
H1084 H 0.59189 0.4195 0.59209 0.0
H1085 H 0.59143 0.41504 0.54782 0.0
H1086 H 0.66525 0.36864 0.54844 0.0
H1087 H 0.66585 0.37623 0.59229 0.0
C1088 C 0.65172 0.42459 0.48128 0.0
C1089 C 0.63211 0.41404 0.46639 0.0
C1090 C 0.65048 0.41694 0.50624 0.0
C1091 C 0.62965 0.39776 0.51724 0.0
C1092 C 0.61008 0.38604 0.50222 0.0
C1093 C 0.6113 0.3941 0.47705 0.0
C1094 C 0.60782 0.40738 0.58267 0.0
C1095 C 0.62898 0.39865 0.59555 0.0
C1096 C 0.6076 0.40474 0.55726 0.0
C1097 C 0.62847 0.39263 0.54428 0.0
C1098 C 0.64903 0.37987 0.55756 0.0
C1099 C 0.64935 0.38356 0.58278 0.0
H1100 H 0.38888 0.67919 0.59296 0.0
H1101 H 0.31612 0.6281 0.58624 0.0
H1102 H 0.39069 0.6929 0.54903 0.0
H1103 H 0.31808 0.63902 0.54294 0.0
H1104 H 0.31823 0.68431 0.46683 0.0
H1105 H 0.31884 0.69468 0.51055 0.0
H1106 H 0.39266 0.64808 0.51175 0.0
H1107 H 0.39221 0.64126 0.46761 0.0
C1108 C 0.37326 0.67124 0.58213 0.0
C1109 C 0.35238 0.6525 0.59307 0.0
C1110 C 0.37431 0.67865 0.55692 0.0
C1111 C 0.35452 0.66727 0.54214 0.0
C1112 C 0.33358 0.64955 0.55344 0.0
C1113 C 0.33249 0.64271 0.57844 0.0
C1114 C 0.33471 0.67748 0.47645 0.0
C1115 C 0.35509 0.66172 0.4639 0.0
C1116 C 0.33505 0.68278 0.5016 0.0
C1117 C 0.35563 0.67082 0.51504 0.0
C1118 C 0.37648 0.65787 0.50222 0.0
C1119 C 0.37625 0.65379 0.47687 0.0
H1120 H 0.92359 0.05226 0.14368 0.0
H1121 H 0.9514 0.9044 0.16695 0.0
H1122 H 0.96409 0.08527 0.13939 0.0
H1123 H 0.99154 0.9378 0.16425 0.0
H1124 H 0.06363 0.99931 0.14405 0.0
H1125 H 0.02326 0.96463 0.1404 0.0
H1126 H -0.00504 0.11221 0.16391 0.0
H1127 H 0.03476 0.14699 0.16602 0.0
C1128 C 0.93838 1.02704 0.14798 0.0
C1129 C 0.93444 0.97596 0.15563 0.0
C1130 C 0.96158 0.04585 0.14566 0.0
C1131 C 0.9812 1.0143 0.15162 0.0
C1132 C 0.97705 0.96296 0.159 0.0
C1133 C 0.95396 0.94391 0.16076 0.0
C1134 C 0.04866 1.02411 0.1482 0.0
C1135 C 0.05223 0.07575 0.15514 0.0
C1136 C 0.02555 1.00438 0.14623 0.0
C1137 C 0.00573 0.03568 0.15176 0.0
C1138 C 0.00959 0.08728 0.15881 0.0
C1139 C 0.0325 0.10714 0.16025 0.0
H1140 H 0.94877 0.14744 0.431 0.0
H1141 H 0.92376 1.00326 0.40017 0.0
H1142 H 0.98889 0.11314 0.4327 0.0
H1143 H 0.96424 0.96904 0.40178 0.0
H1144 H 0.03541 0.90975 0.42942 0.0
H1145 H -0.00474 0.94373 0.43149 0.0
H1146 H 0.01986 0.09001 0.40257 0.0
H1147 H 0.06037 0.05612 0.40059 0.0
C1148 C 0.95178 0.10825 0.42469 0.0
C1149 C 0.93307 0.07809 0.41531 0.0
C1150 C 0.97483 0.08882 0.42556 0.0
C1151 C 0.97971 0.03873 0.41717 0.0
C1152 C 0.96092 1.00779 0.40851 0.0
C1153 C 0.93777 1.02733 0.40757 0.0
C1154 C 0.03238 0.94934 0.42362 0.0
C1155 C 0.0511 0.98025 0.41472 0.0
C1156 C 0.00931 0.96859 0.42469 0.0
C1157 C 0.00441 1.01925 0.41701 0.0
C1158 C 0.02319 0.05082 0.40877 0.0
C1159 C 0.04636 0.03146 0.40761 0.0
H1160 H 0.03902 0.14018 0.93153 0.0
H1161 H 0.06118 0.99537 0.89928 0.0
H1162 H -0.00161 0.10897 0.93346 0.0
H1163 H 0.02008 0.96413 0.90125 0.0
H1164 H 0.92575 0.05954 0.90143 0.0
H1165 H 0.96697 0.0894 0.90294 0.0
H1166 H 0.98863 0.94097 0.93162 0.0
H1167 H 0.94775 0.91097 0.93014 0.0
C1168 C 0.03528 0.10148 0.92495 0.0
C1169 C 0.05335 0.07031 0.91506 0.0
C1170 C 0.01192 0.08382 0.92597 0.0
C1171 C 0.00606 0.03449 0.91725 0.0
C1172 C 0.02419 1.00237 0.90817 0.0
C1173 C 0.04768 1.02018 0.90705 0.0
C1174 C 0.93925 0.03351 0.9083 0.0
C1175 C 0.93342 0.98286 0.91554 0.0
C1176 C 0.96284 0.05057 0.90918 0.0
C1177 C 0.98098 1.01722 0.91721 0.0
C1178 C 0.97506 0.96713 0.92499 0.0
C1179 C 0.95156 0.9502 0.92426 0.0
H1180 H 0.94963 0.14958 0.66809 0.0
H1181 H 0.92238 0.99962 0.64704 0.0
H1182 H 0.98981 0.11685 0.66655 0.0
H1183 H 0.96308 0.96701 0.64405 0.0
H1184 H 0.03499 0.91013 0.67001 0.0
H1185 H -0.00522 0.94282 0.66843 0.0
H1186 H 0.02123 0.09041 0.64234 0.0
H1187 H 0.06196 0.05797 0.64538 0.0
C1188 C 0.95231 0.10965 0.66269 0.0
C1189 C 0.93291 0.07704 0.65764 0.0
C1190 C 0.97545 0.09096 0.6616 0.0
C1191 C 0.97985 0.03934 0.65502 0.0
C1192 C 0.96037 1.00682 0.64957 0.0
C1193 C 0.93706 1.02537 0.65116 0.0
C1194 C 0.03222 0.94957 0.66384 0.0
C1195 C 0.05155 0.98162 0.65777 0.0
C1196 C 0.00907 0.9682 0.66272 0.0
C1197 C 0.00459 1.01917 0.65508 0.0
C1198 C 0.024 0.05115 0.64868 0.0
C1199 C 0.04733 0.03269 0.6503 0.0
H1200 H 0.4215 0.55924 0.14337 0.0
H1201 H 0.45074 0.40737 0.15745 0.0
H1202 H 0.46174 0.59484 0.14106 0.0
H1203 H 0.49052 0.44286 0.15665 0.0
H1204 H 0.56159 0.51142 0.13754 0.0
H1205 H 0.52132 0.47667 0.13351 0.0
H1206 H 0.4932 0.61586 0.16645 0.0
H1207 H 0.53301 0.65118 0.169 0.0
C1208 C 0.43653 0.53365 0.14606 0.0
C1209 C 0.43307 0.48068 0.15049 0.0
C1210 C 0.45957 0.55392 0.14489 0.0
C1211 C 0.47947 0.52173 0.14873 0.0
C1212 C 0.47579 0.46868 0.15303 0.0
C1213 C 0.45289 0.44836 0.15368 0.0
C1214 C 0.54669 0.53433 0.14379 0.0
C1215 C 0.55028 0.58388 0.15345 0.0
C1216 C 0.52364 0.51455 0.14158 0.0
C1217 C 0.5039 0.54356 0.14957 0.0
C1218 C 0.50777 0.59294 0.15948 0.0
C1219 C 0.53065 0.61301 0.16117 0.0
H1220 H 0.45013 0.65113 0.39172 0.0
H1221 H 0.42329 0.50594 0.41958 0.0
H1222 H 0.49035 0.61834 0.39345 0.0
H1223 H 0.46401 0.47358 0.42296 0.0
H1224 H 0.53594 0.41164 0.39997 0.0
H1225 H 0.49567 0.44418 0.40034 0.0
H1226 H 0.52215 0.59735 0.41783 0.0
H1227 H 0.56287 0.56477 0.4158 0.0
C1228 C 0.45296 0.61226 0.39861 0.0
C1229 C 0.43369 0.58098 0.40558 0.0
C1230 C 0.47611 0.59358 0.39983 0.0
C1231 C 0.48065 0.54342 0.40857 0.0
C1232 C 0.46124 0.51216 0.41576 0.0
C1233 C 0.43792 0.53057 0.41396 0.0
C1234 C 0.53315 0.45229 0.40401 0.0
C1235 C 0.55249 0.48579 0.40789 0.0
C1236 C 0.50996 0.47091 0.40442 0.0
C1237 C 0.50545 0.52342 0.40922 0.0
C1238 C 0.52489 0.55683 0.4136 0.0
C1239 C 0.54823 0.53829 0.41261 0.0
H1240 H 0.44936 0.41382 0.89432 0.0
H1241 H 0.42156 0.56193 0.917 0.0
H1242 H 0.48937 0.44797 0.89549 0.0
H1243 H 0.4621 0.59593 0.91972 0.0
H1244 H 0.53432 0.6557 0.89483 0.0
H1245 H 0.49399 0.62263 0.89613 0.0
H1246 H 0.52054 0.47351 0.91985 0.0
H1247 H 0.56119 0.50627 0.91696 0.0
C1248 C 0.45191 0.45364 0.90001 0.0
C1249 C 0.43241 0.48528 0.90567 0.0
C1250 C 0.47494 0.47316 0.90088 0.0
C1251 C 0.47916 0.52464 0.90794 0.0
C1252 C 0.45956 0.55628 0.91386 0.0
C1253 C 0.43634 0.53691 0.91245 0.0
C1254 C 0.5315 0.61585 0.9004 0.0
C1255 C 0.55081 0.58337 0.90573 0.0
C1256 C 0.50831 0.59697 0.90135 0.0
C1257 C 0.50384 0.54535 0.90814 0.0
C1258 C 0.52327 0.51318 0.91404 0.0
C1259 C 0.54656 0.53185 0.91253 0.0
H1260 H 0.44964 0.65109 0.65591 0.0
H1261 H 0.42173 0.49653 0.64552 0.0
H1262 H 0.48972 0.61765 0.65572 0.0
H1263 H 0.46228 0.46284 0.64384 0.0
H1264 H 0.53422 0.41233 0.6719 0.0
H1265 H 0.49413 0.44574 0.66925 0.0
H1266 H 0.52082 0.5834 0.63338 0.0
H1267 H 0.56141 0.55063 0.63749 0.0
C1268 C 0.45213 0.60988 0.65308 0.0
C1269 C 0.43257 0.5763 0.65074 0.0
C1270 C 0.47522 0.59072 0.65279 0.0
C1271 C 0.4794 0.53752 0.64971 0.0
C1272 C 0.45976 0.50397 0.64672 0.0
C1273 C 0.43652 0.52314 0.64753 0.0
C1274 C 0.5315 0.44978 0.66343 0.0
C1275 C 0.55082 0.47902 0.65486 0.0
C1276 C 0.50844 0.46875 0.66168 0.0
C1277 C 0.50406 0.51707 0.65086 0.0
C1278 C 0.52351 0.54631 0.64214 0.0
C1279 C 0.54675 0.52767 0.6444 0.0
H1280 H 0.16481 0.7648 0.15511 0.0
H1281 H 0.09146 0.77908 0.17725 0.0
H1282 H 0.16067 0.67077 0.15432 0.0
H1283 H 0.08739 0.68483 0.1766 0.0
H1284 H 0.09663 0.51428 0.19788 0.0
H1285 H 0.1014 0.60829 0.19871 0.0
H1286 H 0.14064 0.60195 0.13164 0.0
H1287 H 0.13645 0.50769 0.13117 0.0
C1288 C 0.1477 0.74796 0.15953 0.0
C1289 C 0.12844 0.77964 0.16616 0.0
C1290 C 0.14536 0.69398 0.15912 0.0
C1291 C 0.12371 0.67023 0.16542 0.0
C1292 C 0.10442 0.70184 0.172 0.0
C1293 C 0.10675 0.75588 0.17236 0.0
C1294 C 0.10655 0.53286 0.18347 0.0
C1295 C 0.11622 0.50343 0.16449 0.0
C1296 C 0.10902 0.58683 0.18379 0.0
C1297 C 0.12131 0.61271 0.16519 0.0
C1298 C 0.13122 0.58322 0.14635 0.0
C1299 C 0.12865 0.52925 0.14596 0.0
H1300 H 0.88086 0.27154 0.14108 0.0
H1301 H 0.81916 0.2987 0.18581 0.0
H1302 H 0.88537 0.36476 0.13511 0.0
H1303 H 0.82429 0.39185 0.18072 0.0
H1304 H 0.82849 0.55668 0.15119 0.0
H1305 H 0.8219 0.463 0.15226 0.0
H1306 H 0.89756 0.43845 0.15885 0.0
H1307 H 0.90412 0.53157 0.15776 0.0
C1308 C 0.86815 0.29731 0.1495 0.0
C1309 C 0.84974 0.27749 0.16406 0.0
C1310 C 0.87089 0.35085 0.14631 0.0
C1311 C 0.8553 0.38597 0.15757 0.0
C1312 C 0.83652 0.36606 0.1716 0.0
C1313 C 0.83377 0.31256 0.17478 0.0
C1314 C 0.8437 0.53124 0.15287 0.0
C1315 C 0.86684 0.55178 0.1543 0.0
C1316 C 0.83993 0.47753 0.15349 0.0
C1317 C 0.8592 0.44305 0.1556 0.0
C1318 C 0.88233 0.46366 0.15674 0.0
C1319 C 0.88609 0.51722 0.1561 0.0
H1320 H 0.14837 0.28969 0.36621 0.0
H1321 H 0.10232 0.2775 0.42852 0.0
H1322 H 0.14457 0.38374 0.36715 0.0
H1323 H 0.09868 0.37177 0.42954 0.0
H1324 H 0.11735 0.54362 0.43877 0.0
H1325 H 0.12245 0.44963 0.43787 0.0
H1326 H 0.11505 0.45145 0.36014 0.0
H1327 H 0.11062 0.54552 0.36099 0.0
C1328 C 0.1372 0.30697 0.37995 0.0
C1329 C 0.12557 0.27584 0.39724 0.0
C1330 C 0.13508 0.36099 0.38052 0.0
C1331 C 0.12134 0.38537 0.39843 0.0
C1332 C 0.1097 0.35431 0.41572 0.0
C1333 C 0.11177 0.30023 0.41512 0.0
C1334 C 0.11715 0.52404 0.42146 0.0
C1335 C 0.11358 0.55212 0.39995 0.0
C1336 C 0.11978 0.47008 0.42097 0.0
C1337 C 0.11904 0.44292 0.39895 0.0
C1338 C 0.11588 0.47114 0.3774 0.0
C1339 C 0.11313 0.52503 0.3779 0.0
H1340 H 0.83786 0.50867 0.41451 0.0
H1341 H 0.90948 0.52497 0.38729 0.0
H1342 H 0.83327 0.6028 0.41377 0.0
H1343 H 0.90483 0.61879 0.38643 0.0
H1344 H 0.87901 0.78044 0.36398 0.0
H1345 H 0.8834 0.68637 0.36484 0.0
H1346 H 0.8478 0.68094 0.43401 0.0
H1347 H 0.84274 0.77488 0.43279 0.0
C1348 C 0.85267 0.53226 0.40849 0.0
C1349 C 0.874 0.50904 0.40085 0.0
C1350 C 0.85005 0.58628 0.40809 0.0
C1351 C 0.86868 0.61845 0.40001 0.0
C1352 C 0.88998 0.59522 0.39238 0.0
C1353 C 0.89262 0.5413 0.39283 0.0
C1354 C 0.87201 0.75917 0.37932 0.0
C1355 C 0.86052 0.78532 0.39831 0.0
C1356 C 0.87472 0.70524 0.37993 0.0
C1357 C 0.86594 0.67598 0.39949 0.0
C1358 C 0.85455 0.70215 0.41854 0.0
C1359 C 0.85193 0.75612 0.41798 0.0
H1360 H 0.87774 0.27664 0.92953 0.0
H1361 H 0.81894 0.30506 0.88111 0.0
H1362 H 0.88213 0.36971 0.93584 0.0
H1363 H 0.82401 0.39811 0.88658 0.0
H1364 H 0.82646 0.56241 0.91714 0.0
H1365 H 0.81991 0.46885 0.91481 0.0
H1366 H 0.89583 0.44419 0.91361 0.0
H1367 H 0.90234 0.53722 0.91596 0.0
C1368 C 0.86563 0.30264 0.92035 0.0
C1369 C 0.84805 0.28313 0.90471 0.0
C1370 C 0.86834 0.35615 0.92374 0.0
C1371 C 0.85354 0.39165 0.9116 0.0
C1372 C 0.83562 0.37208 0.8964 0.0
C1373 C 0.83291 0.3186 0.89301 0.0
C1374 C 0.84174 0.537 0.91635 0.0
C1375 C 0.86493 0.55754 0.91685 0.0
C1376 C 0.838 0.48331 0.915 0.0
C1377 C 0.85734 0.44876 0.91406 0.0
C1378 C 0.88049 0.46937 0.91478 0.0
C1379 C 0.88423 0.52292 0.91614 0.0
H1380 H 0.12925 0.50614 0.94538 0.0
H1381 H 0.11164 0.50162 0.86941 0.0
H1382 H 0.13326 0.60025 0.94315 0.0
H1383 H 0.11641 0.59552 0.86699 0.0
H1384 H 0.09882 0.76719 0.87846 0.0
H1385 H 0.09583 0.67297 0.8808 0.0
H1386 H 0.15812 0.6688 0.92639 0.0
H1387 H 0.16112 0.76304 0.92403 0.0
C1388 C 0.12636 0.52521 0.92817 0.0
C1389 C 0.12004 0.4963 0.90759 0.0
C1390 C 0.12887 0.57914 0.92684 0.0
C1391 C 0.12504 0.60556 0.90492 0.0
C1392 C 0.11917 0.57653 0.88424 0.0
C1393 C 0.11674 0.52258 0.88555 0.0
C1394 C 0.11196 0.74617 0.88888 0.0
C1395 C 0.13021 0.77279 0.90105 0.0
C1396 C 0.11028 0.6921 0.89018 0.0
C1397 C 0.1268 0.6632 0.90369 0.0
C1398 C 0.14492 0.68984 0.91606 0.0
C1399 C 0.14661 0.74394 0.91475 0.0
H1400 H 0.8202 0.76503 0.65006 0.0
H1401 H 0.89166 0.77476 0.67824 0.0
H1402 H 0.82417 0.67117 0.6465 0.0
H1403 H 0.89532 0.68078 0.67554 0.0
H1404 H 0.90319 0.51888 0.64453 0.0
H1405 H 0.89866 0.61259 0.64584 0.0
H1406 H 0.82672 0.5941 0.67185 0.0
H1407 H 0.83091 0.49999 0.66956 0.0
C1408 C 0.83681 0.74719 0.65537 0.0
C1409 C 0.85565 0.77749 0.66436 0.0
C1410 C 0.83897 0.69329 0.65362 0.0
C1411 C 0.86005 0.66836 0.66076 0.0
C1412 C 0.87892 0.69872 0.66963 0.0
C1413 C 0.87675 0.75258 0.67141 0.0
C1414 C 0.88625 0.53468 0.65016 0.0
C1415 C 0.86737 0.50176 0.65682 0.0
C1416 C 0.88377 0.58852 0.65123 0.0
C1417 C 0.86237 0.61096 0.65906 0.0
C1418 C 0.84339 0.57813 0.66553 0.0
C1419 C 0.84587 0.52416 0.66446 0.0
H1420 H 0.10831 0.27855 0.63292 0.0
H1421 H 0.15331 0.30015 0.69539 0.0
H1422 H 0.10513 0.37244 0.6283 0.0
H1423 H 0.14937 0.39378 0.69134 0.0
H1424 H 0.15571 0.56026 0.66373 0.0
H1425 H 0.16087 0.46633 0.66574 0.0
H1426 H 0.08656 0.44503 0.64877 0.0
H1427 H 0.08139 0.53854 0.64684 0.0
C1428 C 0.11757 0.30327 0.64563 0.0
C1429 C 0.13096 0.28169 0.66459 0.0
C1430 C 0.11556 0.35713 0.64313 0.0
C1431 C 0.12694 0.39074 0.65949 0.0
C1432 C 0.14056 0.36914 0.67826 0.0
C1433 C 0.14255 0.31535 0.68078 0.0
C1434 C 0.14047 0.53553 0.6605 0.0
C1435 C 0.11816 0.5571 0.65505 0.0
C1436 C 0.14342 0.48166 0.66165 0.0
C1437 C 0.12413 0.44804 0.6574 0.0
C1438 C 0.1019 0.46965 0.65173 0.0
C1439 C 0.09895 0.5234 0.6506 0.0
H1440 H 0.6283 1.01616 0.12198 0.0
H1441 H 0.60289 1.02158 0.19563 0.0
H1442 H 0.63224 0.11053 0.1218 0.0
H1443 H 0.60742 0.11565 0.19568 0.0
H1444 H 0.59235 0.28586 0.17737 0.0
H1445 H 0.58865 0.19158 0.17695 0.0
H1446 H 0.65612 0.18002 0.14008 0.0
H1447 H 0.65993 0.27419 0.14064 0.0
C1448 C 0.62364 0.03748 0.13815 0.0
C1449 C 0.61529 1.01133 0.15882 0.0
C1450 C 0.62607 0.09151 0.13812 0.0
C1451 C 0.62006 0.12067 0.1587 0.0
C1452 C 0.61193 0.09443 0.17943 0.0
C1453 C 0.60963 0.04043 0.17951 0.0
C1454 C 0.60646 0.26322 0.16929 0.0
C1455 C 0.62643 0.28772 0.15903 0.0
C1456 C 0.60435 0.20916 0.16907 0.0
C1457 C 0.62213 0.17823 0.15855 0.0
C1458 C 0.64196 0.20271 0.14805 0.0
C1459 C 0.6441 0.25676 0.14832 0.0
H1460 H 0.37014 0.7827 0.20364 0.0
H1461 H 0.35264 0.782 0.1276 0.0
H1462 H 0.37421 0.87678 0.20244 0.0
H1463 H 0.35755 0.876 0.1262 0.0
H1464 H 0.34167 0.04844 0.1395 0.0
H1465 H 0.33783 0.95414 0.1405 0.0
H1466 H 0.39968 0.94453 0.18654 0.0
H1467 H 0.40349 0.0386 0.18556 0.0
C1468 C 0.36725 0.8026 0.18663 0.0
C1469 C 0.36101 0.77473 0.16573 0.0
C1470 C 0.36981 0.85654 0.18589 0.0
C1471 C 0.36616 0.88407 0.16423 0.0
C1472 C 0.3602 0.85614 0.14325 0.0
C1473 C 0.3577 0.80214 0.14399 0.0
C1474 C 0.35451 1.02617 0.14974 0.0
C1475 C 0.37282 0.05119 0.16253 0.0
C1476 C 0.35234 0.97208 0.15027 0.0
C1477 C 0.36845 0.94166 0.16359 0.0
C1478 C 0.38673 0.96673 0.17641 0.0
C1479 C 0.38889 1.02075 0.17588 0.0
H1480 H 0.64886 0.05722 0.41275 0.0
H1481 H 0.5784 0.04541 0.38219 0.0
H1482 H 0.65264 0.96294 0.41137 0.0
H1483 H 0.5822 0.95143 0.38077 0.0
H1484 H 0.60789 0.79015 0.35781 0.0
H1485 H 0.60404 0.88425 0.35949 0.0
H1486 H 0.63646 0.88468 0.43028 0.0
H1487 H 0.64102 0.7907 0.42825 0.0
C1488 C 0.63413 0.03453 0.40586 0.0
C1489 C 0.61338 0.05897 0.39747 0.0
C1490 C 0.63628 0.98048 0.4051 0.0
C1491 C 0.61772 0.94958 0.39594 0.0
C1492 C 0.59699 0.97405 0.38757 0.0
C1493 C 0.59484 1.02801 0.38834 0.0
C1494 C 0.61428 0.81034 0.3737 0.0
C1495 C 0.62478 0.78285 0.39289 0.0
C1496 C 0.61188 0.86426 0.37476 0.0
C1497 C 0.61998 0.89208 0.39501 0.0
C1498 C 0.63028 0.86454 0.4143 0.0
C1499 C 0.63261 0.81058 0.41327 0.0
H1500 H 0.33973 1.00985 0.41538 0.0
H1501 H 0.40479 1.02214 0.37422 0.0
H1502 H 0.33588 0.10419 0.41486 0.0
H1503 H 0.40094 0.11614 0.37369 0.0
H1504 H 0.37231 0.27765 0.35525 0.0
H1505 H 0.37625 0.18354 0.35617 0.0
H1506 H 0.35472 0.1822 0.43116 0.0
H1507 H 0.35 0.27624 0.42999 0.0
C1508 C 0.35327 0.03266 0.40633 0.0
C1509 C 0.37249 1.00836 0.39472 0.0
C1510 C 0.35109 0.08673 0.40607 0.0
C1511 C 0.36809 0.11776 0.3942 0.0
C1512 C 0.38731 0.09342 0.38265 0.0
C1513 C 0.38949 0.03945 0.38291 0.0
C1514 C 0.36832 0.25726 0.37191 0.0
C1515 C 0.36082 0.28451 0.39254 0.0
C1516 C 0.37079 0.20334 0.37251 0.0
C1517 C 0.36577 0.17526 0.39373 0.0
C1518 C 0.35847 0.20255 0.41444 0.0
C1519 C 0.35607 0.25653 0.41386 0.0
H1520 H 0.38565 0.7886 0.87233 0.0
H1521 H 0.32613 0.79167 0.92168 0.0
H1522 H 0.38875 0.88277 0.87477 0.0
H1523 H 0.32927 0.88587 0.92415 0.0
H1524 H 0.35891 0.04869 0.94144 0.0
H1525 H 0.35506 0.9545 0.93943 0.0
H1526 H 0.36715 0.96015 0.86234 0.0
H1527 H 0.37173 0.05409 0.86448 0.0
C1528 C 0.37315 0.80936 0.88362 0.0
C1529 C 0.35563 0.78245 0.89679 0.0
C1530 C 0.3749 0.86341 0.88498 0.0
C1531 C 0.35919 0.892 0.89957 0.0
C1532 C 0.34185 0.86507 0.91297 0.0
C1533 C 0.34008 0.81099 0.91159 0.0
C1534 C 0.36079 1.0298 0.92407 0.0
C1535 C 0.36568 0.05899 0.90313 0.0
C1536 C 0.35838 0.97583 0.92288 0.0
C1537 C 0.36091 0.94965 0.90074 0.0
C1538 C 0.36541 0.97895 0.87974 0.0
C1539 C 0.36772 0.03292 0.88092 0.0
H1540 H 0.6175 0.26963 0.86295 0.0
H1541 H 0.65316 0.27915 0.93195 0.0
H1542 H 0.61412 0.17604 0.86752 0.0
H1543 H 0.64977 0.18509 0.93654 0.0
H1544 H 0.61532 1.0221 0.94589 0.0
H1545 H 0.62047 0.11595 0.94272 0.0
H1546 H 0.63908 0.09951 0.86734 0.0
H1547 H 0.63313 1.00619 0.87029 0.0
C1548 C 0.6248 0.25169 0.87903 0.0
C1549 C 0.63575 0.28197 0.89701 0.0
C1550 C 0.6229 0.19794 0.88164 0.0
C1551 C 0.63188 0.17287 0.9023 0.0
C1552 C 0.64249 0.20316 0.92049 0.0
C1553 C 0.64441 0.25709 0.91787 0.0
C1554 C 0.62052 0.03855 0.92865 0.0
C1555 C 0.62371 1.00652 0.90833 0.0
C1556 C 0.62368 0.09233 0.92688 0.0
C1557 C 0.63 0.1154 0.90472 0.0
C1558 C 0.63384 0.08318 0.8846 0.0
C1559 C 0.63075 1.02949 0.88638 0.0
H1560 H 0.38178 1.01729 0.62362 0.0
H1561 H 0.35713 1.00444 0.69737 0.0
H1562 H 0.37702 0.11116 0.6254 0.0
H1563 H 0.35319 0.09851 0.69944 0.0
H1564 H 0.32462 0.26202 0.68533 0.0
H1565 H 0.32885 0.16821 0.68328 0.0
H1566 H 0.39508 0.18665 0.64464 0.0
H1567 H 0.39087 0.28078 0.64673 0.0
C1568 C 0.37521 0.03445 0.64018 0.0
C1569 C 0.36976 1.00327 0.66033 0.0
C1570 C 0.37279 0.08836 0.6413 0.0
C1571 C 0.36481 0.11243 0.66259 0.0
C1572 C 0.35918 0.08122 0.68269 0.0
C1573 C 0.36166 1.02732 0.68158 0.0
C1574 C 0.34025 0.24615 0.67664 0.0
C1575 C 0.35748 0.27903 0.6663 0.0
C1576 C 0.34265 0.1923 0.67544 0.0
C1577 C 0.36232 0.16985 0.66383 0.0
C1578 C 0.37954 0.20266 0.65343 0.0
C1579 C 0.37714 0.25662 0.65464 0.0
H1580 H 0.60341 0.78365 0.69117 0.0
H1581 H 0.65074 0.78588 0.62964 0.0
H1582 H 0.60039 0.87786 0.68936 0.0
H1583 H 0.64765 0.88016 0.6278 0.0
H1584 H 0.61553 0.04366 0.61757 0.0
H1585 H 0.61946 0.94943 0.61869 0.0
H1586 H 0.62478 0.9546 0.69656 0.0
H1587 H 0.6201 0.04856 0.69548 0.0
C1588 C 0.61326 0.80423 0.67732 0.0
C1589 C 0.62735 0.77707 0.66058 0.0
C1590 C 0.61157 0.8583 0.67631 0.0
C1591 C 0.62389 0.88668 0.65853 0.0
C1592 C 0.63771 0.85951 0.64157 0.0
C1593 C 0.63943 0.8054 0.64259 0.0
C1594 C 0.61751 1.02466 0.63493 0.0
C1595 C 0.61742 0.05371 0.65644 0.0
C1596 C 0.61997 0.97067 0.63556 0.0
C1597 C 0.62229 0.94435 0.65773 0.0
C1598 C 0.62269 0.97352 0.6792 0.0
C1599 C 0.62033 1.02751 0.67856 0.0
loop_
_geom_bond_atom_site_label_1
_geom_bond_atom_site_label_2
_geom_bond_distance
_geom_bond_site_symmetry_2
_ccdc_geom_bond_type
Tb0 C2 2.809 1_545 S
Tb0 O20 2.484 1_545 S
Tb0 O21 2.440 1_545 S
Tb0 O22 2.658 . S
Tb0 O23 2.409 . S
Tb0 O24 2.378 . S
Tb0 O28 2.325 . S
Tb0 O31 2.341 . S
Tb1 C11 2.809 . S
Tb1 O22 2.325 . S
Tb1 O25 2.341 . S
Tb1 O26 2.484 . S
Tb1 O27 2.440 . S
Tb1 O28 2.658 . S
Tb1 O29 2.409 . S
Tb1 O30 2.378 . S
C2 Tb0 2.809 1_565 S
C2 C3 1.514 . S
C2 O20 1.248 . S
C2 O21 1.266 . S
C3 C2 1.514 . S
C3 C4 1.359 . S
C3 C8 1.348 . S
C4 C3 1.359 . S
C4 C5 1.380 . S
C4 H32 0.929 . S
C5 C4 1.380 . S
C5 C6 1.347 . S
C5 H33 0.931 . S
C6 C5 1.347 . S
C6 C7 1.369 . S
C7 C6 1.369 . S
C7 C8 1.408 . S
C7 H34 0.930 . S
C8 C3 1.348 . S
C8 C7 1.408 . S
C8 H35 0.930 . S
C9 O22 1.281 . S
C9 O23 1.254 . S
C10 O24 1.236 . S
C10 O25 1.266 . S
C11 Tb1 2.809 . S
C11 C12 1.514 . S
C11 O26 1.248 . S
C11 O27 1.266 . S
C12 C11 1.514 . S
C12 C13 1.359 . S
C12 C17 1.348 . S
C13 C12 1.359 . S
C13 C14 1.380 . S
C13 H36 0.929 . S
C14 C13 1.380 . S
C14 C15 1.347 . S
C14 H37 0.931 . S
C15 C14 1.347 . S
C15 C16 1.369 . S
C16 C15 1.369 . S
C16 C17 1.408 . S
C16 H38 0.930 . S
C17 C12 1.348 . S
C17 C16 1.408 . S
C17 H39 0.930 . S
C18 O28 1.281 . S
C18 O29 1.254 . S
C19 O30 1.236 . S
C19 O31 1.266 . S
O20 Tb0 2.484 1_565 S
O20 C2 1.248 . S
O21 Tb0 2.440 1_565 S
O21 C2 1.266 . S
O22 Tb0 2.658 . S
O22 Tb1 2.325 . S
O22 C9 1.281 . S
O23 Tb0 2.409 . S
O23 C9 1.254 . S
O24 Tb0 2.378 . S
O24 C10 1.236 . S
O25 Tb1 2.341 . S
O25 C10 1.266 . S
O26 Tb1 2.484 . S
O26 C11 1.248 . S
O27 Tb1 2.440 . S
O27 C11 1.266 . S
O28 Tb0 2.325 . S
O28 Tb1 2.658 . S
O28 C18 1.281 . S
O29 Tb1 2.409 . S
O29 C18 1.254 . S
O30 Tb1 2.378 . S
O30 C19 1.236 . S
O31 Tb0 2.341 . S
O31 C19 1.266 . S
H32 C4 0.929 . S
H33 C5 0.931 . S
H34 C7 0.930 . S
H35 C8 0.930 . S
H36 C13 0.929 . S
H37 C14 0.931 . S
H38 C16 0.930 . S
H39 C17 0.930 . S
Tb40 C42 2.809 1_565 S
Tb40 O60 2.484 1_565 S
Tb40 O61 2.440 1_565 S
Tb40 O62 2.658 . S
Tb40 O63 2.409 . S
Tb40 O64 2.378 . S
Tb40 O68 2.325 . S
Tb40 O71 2.341 . S
Tb41 C51 2.809 . S
Tb41 O62 2.325 . S
Tb41 O65 2.341 . S
Tb41 O66 2.484 . S
Tb41 O67 2.440 . S
Tb41 O68 2.658 . S
Tb41 O69 2.409 . S
Tb41 O70 2.378 . S
C42 Tb40 2.809 1_545 S
C42 C43 1.514 . S
C42 O60 1.248 . S
C42 O61 1.266 . S
C43 C42 1.514 . S
C43 C44 1.359 . S
C43 C48 1.348 . S
C44 C43 1.359 . S
C44 C45 1.380 . S
C44 H72 0.929 . S
C45 C44 1.380 . S
C45 C46 1.347 . S
C45 H73 0.931 . S
C46 C45 1.347 . S
C46 C47 1.369 . S
C47 C46 1.369 . S
C47 C48 1.408 . S
C47 H74 0.930 . S
C48 C43 1.348 . S
C48 C47 1.408 . S
C48 H75 0.930 . S
C49 O62 1.281 . S
C49 O63 1.254 . S
C50 O64 1.236 . S
C50 O65 1.266 . S
C51 Tb41 2.809 . S
C51 C52 1.514 . S
C51 O66 1.248 . S
C51 O67 1.266 . S
C52 C51 1.514 . S
C52 C53 1.359 . S
C52 C57 1.348 . S
C53 C52 1.359 . S
C53 C54 1.380 . S
C53 H76 0.929 . S
C54 C53 1.380 . S
C54 C55 1.347 . S
C54 H77 0.931 . S
C55 C54 1.347 . S
C55 C56 1.369 . S
C56 C55 1.369 . S
C56 C57 1.408 . S
C56 H78 0.930 . S
C57 C52 1.348 . S
C57 C56 1.408 . S
C57 H79 0.930 . S
C58 O68 1.281 . S
C58 O69 1.254 . S
C59 O70 1.236 . S
C59 O71 1.266 . S
O60 Tb40 2.484 1_545 S
O60 C42 1.248 . S
O61 Tb40 2.440 1_545 S
O61 C42 1.266 . S
O62 Tb40 2.658 . S
O62 Tb41 2.325 . S
O62 C49 1.281 . S
O63 Tb40 2.409 . S
O63 C49 1.254 . S
O64 Tb40 2.378 . S
O64 C50 1.236 . S
O65 Tb41 2.341 . S
O65 C50 1.266 . S
O66 Tb41 2.484 . S
O66 C51 1.248 . S
O67 Tb41 2.440 . S
O67 C51 1.266 . S
O68 Tb40 2.325 . S
O68 Tb41 2.658 . S
O68 C58 1.281 . S
O69 Tb41 2.409 . S
O69 C58 1.254 . S
O70 Tb41 2.378 . S
O70 C59 1.236 . S
O71 Tb40 2.341 . S
O71 C59 1.266 . S
H72 C44 0.929 . S
H73 C45 0.931 . S
H74 C47 0.930 . S
H75 C48 0.930 . S
H76 C53 0.929 . S
H77 C54 0.931 . S
H78 C56 0.930 . S
H79 C57 0.930 . S
Tb80 C82 2.809 1_565 S
Tb80 O100 2.484 1_565 S
Tb80 O101 2.440 1_565 S
Tb80 O102 2.658 . S
Tb80 O103 2.409 . S
Tb80 O104 2.378 . S
Tb80 O108 2.325 . S
Tb80 O111 2.341 . S
Tb81 C91 2.809 . S
Tb81 O102 2.325 . S
Tb81 O105 2.341 . S
Tb81 O106 2.484 . S
Tb81 O107 2.440 . S
Tb81 O108 2.658 . S
Tb81 O109 2.409 . S
Tb81 O110 2.378 . S
C82 Tb80 2.809 1_545 S
C82 C83 1.514 . S
C82 O100 1.248 . S
C82 O101 1.266 . S
C83 C82 1.514 . S
C83 C84 1.359 . S
C83 C88 1.348 . S
C84 C83 1.359 . S
C84 C85 1.380 . S
C84 H112 0.929 . S
C85 C84 1.380 . S
C85 C86 1.347 . S
C85 H113 0.931 . S
C86 C85 1.347 . S
C86 C87 1.369 . S
C87 C86 1.369 . S
C87 C88 1.408 . S
C87 H114 0.930 . S
C88 C83 1.348 . S
C88 C87 1.408 . S
C88 H115 0.930 . S
C89 O102 1.281 . S
C89 O103 1.254 . S
C90 O104 1.236 . S
C90 O105 1.266 . S
C91 Tb81 2.809 . S
C91 C92 1.514 . S
C91 O106 1.248 . S
C91 O107 1.266 . S
C92 C91 1.514 . S
C92 C93 1.359 . S
C92 C97 1.348 . S
C93 C92 1.359 . S
C93 C94 1.380 . S
C93 H116 0.929 . S
C94 C93 1.380 . S
C94 C95 1.347 . S
C94 H117 0.931 . S
C95 C94 1.347 . S
C95 C96 1.369 . S
C96 C95 1.369 . S
C96 C97 1.408 . S
C96 H118 0.930 . S
C97 C92 1.348 . S
C97 C96 1.408 . S
C97 H119 0.930 . S
C98 O108 1.281 . S
C98 O109 1.254 . S
C99 O110 1.236 . S
C99 O111 1.266 . S
O100 Tb80 2.484 1_545 S
O100 C82 1.248 . S
O101 Tb80 2.440 1_545 S
O101 C82 1.266 . S
O102 Tb80 2.658 . S
O102 Tb81 2.325 . S
O102 C89 1.281 . S
O103 Tb80 2.409 . S
O103 C89 1.254 . S
O104 Tb80 2.378 . S
O104 C90 1.236 . S
O105 Tb81 2.341 . S
O105 C90 1.266 . S
O106 Tb81 2.484 . S
O106 C91 1.248 . S
O107 Tb81 2.440 . S
O107 C91 1.266 . S
O108 Tb80 2.325 . S
O108 Tb81 2.658 . S
O108 C98 1.281 . S
O109 Tb81 2.409 . S
O109 C98 1.254 . S
O110 Tb81 2.378 . S
O110 C99 1.236 . S
O111 Tb80 2.341 . S
O111 C99 1.266 . S
H112 C84 0.929 . S
H113 C85 0.931 . S
H114 C87 0.930 . S
H115 C88 0.930 . S
H116 C93 0.929 . S
H117 C94 0.931 . S
H118 C96 0.930 . S
H119 C97 0.930 . S
Tb120 C122 2.809 1_545 S
Tb120 O140 2.484 1_545 S
Tb120 O141 2.440 1_545 S
Tb120 O142 2.658 . S
Tb120 O143 2.409 . S
Tb120 O144 2.378 . S
Tb120 O148 2.325 . S
Tb120 O151 2.341 . S
Tb121 C131 2.809 . S
Tb121 O142 2.325 . S
Tb121 O145 2.341 . S
Tb121 O146 2.484 . S
Tb121 O147 2.440 . S
Tb121 O148 2.658 . S
Tb121 O149 2.409 . S
Tb121 O150 2.378 . S
C122 Tb120 2.809 1_565 S
C122 C123 1.514 . S
C122 O140 1.248 . S
C122 O141 1.266 . S
C123 C122 1.514 . S
C123 C124 1.359 . S
C123 C128 1.348 . S
C124 C123 1.359 . S
C124 C125 1.380 . S
C124 H152 0.929 . S
C125 C124 1.380 . S
C125 C126 1.347 . S
C125 H153 0.931 . S
C126 C125 1.347 . S
C126 C127 1.369 . S
C127 C126 1.369 . S
C127 C128 1.408 . S
C127 H154 0.930 . S
C128 C123 1.348 . S
C128 C127 1.408 . S
C128 H155 0.930 . S
C129 O142 1.281 . S
C129 O143 1.254 . S
C130 O144 1.236 . S
C130 O145 1.266 . S
C131 Tb121 2.809 . S
C131 C132 1.514 . S
C131 O146 1.248 . S
C131 O147 1.266 . S
C132 C131 1.514 . S
C132 C133 1.359 . S
C132 C137 1.348 . S
C133 C132 1.359 . S
C133 C134 1.380 . S
C133 H156 0.929 . S
C134 C133 1.380 . S
C134 C135 1.347 . S
C134 H157 0.931 . S
C135 C134 1.347 . S
C135 C136 1.369 . S
C136 C135 1.369 . S
C136 C137 1.408 . S
C136 H158 0.930 . S
C137 C132 1.348 . S
C137 C136 1.408 . S
C137 H159 0.930 . S
C138 O148 1.281 . S
C138 O149 1.254 . S
C139 O150 1.236 . S
C139 O151 1.266 . S
O140 Tb120 2.484 1_565 S
O140 C122 1.248 . S
O141 Tb120 2.440 1_565 S
O141 C122 1.266 . S
O142 Tb120 2.658 . S
O142 Tb121 2.325 . S
O142 C129 1.281 . S
O143 Tb120 2.409 . S
O143 C129 1.254 . S
O144 Tb120 2.378 . S
O144 C130 1.236 . S
O145 Tb121 2.341 . S
O145 C130 1.266 . S
O146 Tb121 2.484 . S
O146 C131 1.248 . S
O147 Tb121 2.440 . S
O147 C131 1.266 . S
O148 Tb120 2.325 . S
O148 Tb121 2.658 . S
O148 C138 1.281 . S
O149 Tb121 2.409 . S
O149 C138 1.254 . S
O150 Tb121 2.378 . S
O150 C139 1.236 . S
O151 Tb120 2.341 . S
O151 C139 1.266 . S
H152 C124 0.929 . S
H153 C125 0.931 . S
H154 C127 0.930 . S
H155 C128 0.930 . S
H156 C133 0.929 . S
H157 C134 0.931 . S
H158 C136 0.930 . S
H159 C137 0.930 . S
Tb160 C162 2.809 . S
Tb160 O180 2.484 . S
Tb160 O181 2.440 . S
Tb160 O182 2.658 . S
Tb160 O183 2.409 . S
Tb160 O184 2.378 . S
Tb160 O188 2.325 . S
Tb160 O191 2.341 . S
Tb161 C171 2.809 1_565 S
Tb161 O182 2.325 . S
Tb161 O185 2.341 . S
Tb161 O186 2.484 1_565 S
Tb161 O187 2.440 1_565 S
Tb161 O188 2.658 . S
Tb161 O189 2.409 . S
Tb161 O190 2.378 . S
C162 Tb160 2.809 . S
C162 C163 1.514 . S
C162 O180 1.248 . S
C162 O181 1.266 . S
C163 C162 1.514 . S
C163 C164 1.359 . S
C163 C168 1.348 . S
C164 C163 1.359 . S
C164 C165 1.380 . S
C164 H192 0.929 . S
C165 C164 1.380 . S
C165 C166 1.347 . S
C165 H193 0.931 . S
C166 C165 1.347 . S
C166 C167 1.369 . S
C167 C166 1.369 . S
C167 C168 1.408 . S
C167 H194 0.930 . S
C168 C163 1.348 . S
C168 C167 1.408 . S
C168 H195 0.930 . S
C169 O182 1.281 . S
C169 O183 1.254 . S
C170 O184 1.236 . S
C170 O185 1.266 . S
C171 Tb161 2.809 1_545 S
C171 C172 1.514 . S
C171 O186 1.248 . S
C171 O187 1.266 . S
C172 C171 1.514 . S
C172 C173 1.359 . S
C172 C177 1.348 . S
C173 C172 1.359 . S
C173 C174 1.380 . S
C173 H196 0.929 . S
C174 C173 1.380 . S
C174 C175 1.347 . S
C174 H197 0.931 . S
C175 C174 1.347 . S
C175 C176 1.369 . S
C176 C175 1.369 . S
C176 C177 1.408 . S
C176 H198 0.930 . S
C177 C172 1.348 . S
C177 C176 1.408 . S
C177 H199 0.930 . S
C178 O188 1.281 . S
C178 O189 1.254 . S
C179 O190 1.236 . S
C179 O191 1.266 . S
O180 Tb160 2.484 . S
O180 C162 1.248 . S
O181 Tb160 2.440 . S
O181 C162 1.266 . S
O182 Tb160 2.658 . S
O182 Tb161 2.325 . S
O182 C169 1.281 . S
O183 Tb160 2.409 . S
O183 C169 1.254 . S
O184 Tb160 2.378 . S
O184 C170 1.236 . S
O185 Tb161 2.341 . S
O185 C170 1.266 . S
O186 Tb161 2.484 1_545 S
O186 C171 1.248 . S
O187 Tb161 2.440 1_545 S
O187 C171 1.266 . S
O188 Tb160 2.325 . S
O188 Tb161 2.658 . S
O188 C178 1.281 . S
O189 Tb161 2.409 . S
O189 C178 1.254 . S
O190 Tb161 2.378 . S
O190 C179 1.236 . S
O191 Tb160 2.341 . S
O191 C179 1.266 . S
H192 C164 0.929 . S
H193 C165 0.931 . S
H194 C167 0.930 . S
H195 C168 0.930 . S
H196 C173 0.929 . S
H197 C174 0.931 . S
H198 C176 0.930 . S
H199 C177 0.930 . S
Tb200 C202 2.809 . S
Tb200 O220 2.484 . S
Tb200 O221 2.440 . S
Tb200 O222 2.658 . S
Tb200 O223 2.409 . S
Tb200 O224 2.378 . S
Tb200 O228 2.325 . S
Tb200 O231 2.341 . S
Tb201 C211 2.809 1_545 S
Tb201 O222 2.325 . S
Tb201 O225 2.341 . S
Tb201 O226 2.484 1_545 S
Tb201 O227 2.440 1_545 S
Tb201 O228 2.658 . S
Tb201 O229 2.409 . S
Tb201 O230 2.378 . S
C202 Tb200 2.809 . S
C202 C203 1.514 . S
C202 O220 1.248 . S
C202 O221 1.266 . S
C203 C202 1.514 . S
C203 C204 1.359 . S
C203 C208 1.348 . S
C204 C203 1.359 . S
C204 C205 1.380 . S
C204 H232 0.929 . S
C205 C204 1.380 . S
C205 C206 1.347 . S
C205 H233 0.931 . S
C206 C205 1.347 . S
C206 C207 1.369 . S
C207 C206 1.369 . S
C207 C208 1.408 . S
C207 H234 0.930 . S
C208 C203 1.348 . S
C208 C207 1.408 . S
C208 H235 0.930 . S
C209 O222 1.281 . S
C209 O223 1.254 . S
C210 O224 1.236 . S
C210 O225 1.266 . S
C211 Tb201 2.809 1_565 S
C211 C212 1.514 . S
C211 O226 1.248 . S
C211 O227 1.266 . S
C212 C211 1.514 . S
C212 C213 1.359 . S
C212 C217 1.348 . S
C213 C212 1.359 . S
C213 C214 1.380 . S
C213 H236 0.929 . S
C214 C213 1.380 . S
C214 C215 1.347 . S
C214 H237 0.931 . S
C215 C214 1.347 . S
C215 C216 1.369 . S
C216 C215 1.369 . S
C216 C217 1.408 . S
C216 H238 0.930 . S
C217 C212 1.348 . S
C217 C216 1.408 . S
C217 H239 0.930 . S
C218 O228 1.281 . S
C218 O229 1.254 . S
C219 O230 1.236 . S
C219 O231 1.266 . S
O220 Tb200 2.484 . S
O220 C202 1.248 . S
O221 Tb200 2.440 . S
O221 C202 1.266 . S
O222 Tb200 2.658 . S
O222 Tb201 2.325 . S
O222 C209 1.281 . S
O223 Tb200 2.409 . S
O223 C209 1.254 . S
O224 Tb200 2.378 . S
O224 C210 1.236 . S
O225 Tb201 2.341 . S
O225 C210 1.266 . S
O226 Tb201 2.484 1_565 S
O226 C211 1.248 . S
O227 Tb201 2.440 1_565 S
O227 C211 1.266 . S
O228 Tb200 2.325 . S
O228 Tb201 2.658 . S
O228 C218 1.281 . S
O229 Tb201 2.409 . S
O229 C218 1.254 . S
O230 Tb201 2.378 . S
O230 C219 1.236 . S
O231 Tb200 2.341 . S
O231 C219 1.266 . S
H232 C204 0.929 . S
H233 C205 0.931 . S
H234 C207 0.930 . S
H235 C208 0.930 . S
H236 C213 0.929 . S
H237 C214 0.931 . S
H238 C216 0.930 . S
H239 C217 0.930 . S
Tb240 C242 2.809 . S
Tb240 O260 2.484 . S
Tb240 O261 2.440 . S
Tb240 O262 2.658 . S
Tb240 O263 2.409 . S
Tb240 O264 2.378 . S
Tb240 O268 2.325 . S
Tb240 O271 2.341 . S
Tb241 C251 2.809 1_545 S
Tb241 O262 2.325 . S
Tb241 O265 2.341 . S
Tb241 O266 2.484 1_545 S
Tb241 O267 2.440 1_545 S
Tb241 O268 2.658 . S
Tb241 O269 2.409 . S
Tb241 O270 2.378 . S
C242 Tb240 2.809 . S
C242 C243 1.514 . S
C242 O260 1.248 . S
C242 O261 1.266 . S
C243 C242 1.514 . S
C243 C244 1.359 . S
C243 C248 1.348 . S
C244 C243 1.359 . S
C244 C245 1.380 . S
C244 H272 0.929 . S
C245 C244 1.380 . S
C245 C246 1.347 . S
C245 H273 0.931 . S
C246 C245 1.347 . S
C246 C247 1.369 . S
C247 C246 1.369 . S
C247 C248 1.408 . S
C247 H274 0.930 . S
C248 C243 1.348 . S
C248 C247 1.408 . S
C248 H275 0.930 . S
C249 O262 1.281 . S
C249 O263 1.254 . S
C250 O264 1.236 . S
C250 O265 1.266 . S
C251 Tb241 2.809 1_565 S
C251 C252 1.514 . S
C251 O266 1.248 . S
C251 O267 1.266 . S
C252 C251 1.514 . S
C252 C253 1.359 . S
C252 C257 1.348 . S
C253 C252 1.359 . S
C253 C254 1.380 . S
C253 H276 0.929 . S
C254 C253 1.380 . S
C254 C255 1.347 . S
C254 H277 0.931 . S
C255 C254 1.347 . S
C255 C256 1.369 . S
C256 C255 1.369 . S
C256 C257 1.408 . S
C256 H278 0.930 . S
C257 C252 1.348 . S
C257 C256 1.408 . S
C257 H279 0.930 . S
C258 O268 1.281 . S
C258 O269 1.254 . S
C259 O270 1.236 . S
C259 O271 1.266 . S
O260 Tb240 2.484 . S
O260 C242 1.248 . S
O261 Tb240 2.440 . S
O261 C242 1.266 . S
O262 Tb240 2.658 . S
O262 Tb241 2.325 . S
O262 C249 1.281 . S
O263 Tb240 2.409 . S
O263 C249 1.254 . S
O264 Tb240 2.378 . S
O264 C250 1.236 . S
O265 Tb241 2.341 . S
O265 C250 1.266 . S
O266 Tb241 2.484 1_565 S
O266 C251 1.248 . S
O267 Tb241 2.440 1_565 S
O267 C251 1.266 . S
O268 Tb240 2.325 . S
O268 Tb241 2.658 . S
O268 C258 1.281 . S
O269 Tb241 2.409 . S
O269 C258 1.254 . S
O270 Tb241 2.378 . S
O270 C259 1.236 . S
O271 Tb240 2.341 . S
O271 C259 1.266 . S
H272 C244 0.929 . S
H273 C245 0.931 . S
H274 C247 0.930 . S
H275 C248 0.930 . S
H276 C253 0.929 . S
H277 C254 0.931 . S
H278 C256 0.930 . S
H279 C257 0.930 . S
Tb280 C282 2.809 . S
Tb280 O300 2.484 . S
Tb280 O301 2.440 . S
Tb280 O302 2.658 . S
Tb280 O303 2.409 . S
Tb280 O304 2.378 . S
Tb280 O308 2.325 . S
Tb280 O311 2.341 . S
Tb281 C291 2.809 1_565 S
Tb281 O302 2.325 . S
Tb281 O305 2.341 . S
Tb281 O306 2.484 1_565 S
Tb281 O307 2.440 1_565 S
Tb281 O308 2.658 . S
Tb281 O309 2.409 . S
Tb281 O310 2.378 . S
C282 Tb280 2.809 . S
C282 C283 1.514 . S
C282 O300 1.248 . S
C282 O301 1.266 . S
C283 C282 1.514 . S
C283 C284 1.359 . S
C283 C288 1.348 . S
C284 C283 1.359 . S
C284 C285 1.380 . S
C284 H312 0.929 . S
C285 C284 1.380 . S
C285 C286 1.347 . S
C285 H313 0.931 . S
C286 C285 1.347 . S
C286 C287 1.369 . S
C287 C286 1.369 . S
C287 C288 1.408 . S
C287 H314 0.930 . S
C288 C283 1.348 . S
C288 C287 1.408 . S
C288 H315 0.930 . S
C289 O302 1.281 . S
C289 O303 1.254 . S
C290 O304 1.236 . S
C290 O305 1.266 . S
C291 Tb281 2.809 1_545 S
C291 C292 1.514 . S
C291 O306 1.248 . S
C291 O307 1.266 . S
C292 C291 1.514 . S
C292 C293 1.359 . S
C292 C297 1.348 . S
C293 C292 1.359 . S
C293 C294 1.380 . S
C293 H316 0.929 . S
C294 C293 1.380 . S
C294 C295 1.347 . S
C294 H317 0.931 . S
C295 C294 1.347 . S
C295 C296 1.369 . S
C296 C295 1.369 . S
C296 C297 1.408 . S
C296 H318 0.930 . S
C297 C292 1.348 . S
C297 C296 1.408 . S
C297 H319 0.930 . S
C298 O308 1.281 . S
C298 O309 1.254 . S
C299 O310 1.236 . S
C299 O311 1.266 . S
O300 Tb280 2.484 . S
O300 C282 1.248 . S
O301 Tb280 2.440 . S
O301 C282 1.266 . S
O302 Tb280 2.658 . S
O302 Tb281 2.325 . S
O302 C289 1.281 . S
O303 Tb280 2.409 . S
O303 C289 1.254 . S
O304 Tb280 2.378 . S
O304 C290 1.236 . S
O305 Tb281 2.341 . S
O305 C290 1.266 . S
O306 Tb281 2.484 1_545 S
O306 C291 1.248 . S
O307 Tb281 2.440 1_545 S
O307 C291 1.266 . S
O308 Tb280 2.325 . S
O308 Tb281 2.658 . S
O308 C298 1.281 . S
O309 Tb281 2.409 . S
O309 C298 1.254 . S
O310 Tb281 2.378 . S
O310 C299 1.236 . S
O311 Tb280 2.341 . S
O311 C299 1.266 . S
H312 C284 0.929 . S
H313 C285 0.931 . S
H314 C287 0.930 . S
H315 C288 0.930 . S
H316 C293 0.929 . S
H317 C294 0.931 . S
H318 C296 0.930 . S
H319 C297 0.930 . S
Tb320 C322 2.809 . S
Tb320 O340 2.484 . S
Tb320 O341 2.440 . S
Tb320 O342 2.658 . S
Tb320 O343 2.409 . S
Tb320 O344 2.378 . S
Tb320 O348 2.325 . S
Tb320 O351 2.341 . S
Tb321 C331 2.809 . S
Tb321 O342 2.325 . S
Tb321 O345 2.341 . S
Tb321 O346 2.484 . S
Tb321 O347 2.440 . S
Tb321 O348 2.658 . S
Tb321 O349 2.409 . S
Tb321 O350 2.378 . S
C322 Tb320 2.809 . S
C322 C323 1.514 . S
C322 O340 1.248 . S
C322 O341 1.266 . S
C323 C322 1.514 . S
C323 C324 1.359 . S
C323 C328 1.348 . S
C324 C323 1.359 . S
C324 C325 1.380 . S
C324 H352 0.929 . S
C325 C324 1.380 . S
C325 C326 1.347 . S
C325 H353 0.931 . S
C326 C325 1.347 . S
C326 C327 1.369 . S
C327 C326 1.369 . S
C327 C328 1.408 . S
C327 H354 0.930 . S
C328 C323 1.348 . S
C328 C327 1.408 . S
C328 H355 0.930 . S
C329 O342 1.281 . S
C329 O343 1.254 . S
C330 O344 1.236 . S
C330 O345 1.266 . S
C331 Tb321 2.809 . S
C331 C332 1.514 . S
C331 O346 1.248 . S
C331 O347 1.266 . S
C332 C331 1.514 . S
C332 C333 1.359 . S
C332 C337 1.348 . S
C333 C332 1.359 . S
C333 C334 1.380 . S
C333 H356 0.929 . S
C334 C333 1.380 . S
C334 C335 1.347 . S
C334 H357 0.931 . S
C335 C334 1.347 . S
C335 C336 1.369 . S
C336 C335 1.369 . S
C336 C337 1.408 . S
C336 H358 0.930 . S
C337 C332 1.348 . S
C337 C336 1.408 . S
C337 H359 0.930 . S
C338 O348 1.281 . S
C338 O349 1.254 . S
C339 O350 1.236 . S
C339 O351 1.266 . S
O340 Tb320 2.484 . S
O340 C322 1.248 . S
O341 Tb320 2.440 . S
O341 C322 1.266 . S
O342 Tb320 2.658 . S
O342 Tb321 2.325 . S
O342 C329 1.281 . S
O343 Tb320 2.409 . S
O343 C329 1.254 . S
O344 Tb320 2.378 . S
O344 C330 1.236 . S
O345 Tb321 2.341 . S
O345 C330 1.266 . S
O346 Tb321 2.484 . S
O346 C331 1.248 . S
O347 Tb321 2.440 . S
O347 C331 1.266 . S
O348 Tb320 2.325 . S
O348 Tb321 2.658 . S
O348 C338 1.281 . S
O349 Tb321 2.409 . S
O349 C338 1.254 . S
O350 Tb321 2.378 . S
O350 C339 1.236 . S
O351 Tb320 2.341 . S
O351 C339 1.266 . S
H352 C324 0.929 . S
H353 C325 0.931 . S
H354 C327 0.930 . S
H355 C328 0.930 . S
H356 C333 0.929 . S
H357 C334 0.931 . S
H358 C336 0.930 . S
H359 C337 0.930 . S
Tb360 C362 2.809 . S
Tb360 O380 2.484 . S
Tb360 O381 2.440 . S
Tb360 O382 2.658 . S
Tb360 O383 2.409 . S
Tb360 O384 2.378 . S
Tb360 O388 2.325 . S
Tb360 O391 2.341 . S
Tb361 C371 2.809 . S
Tb361 O382 2.325 . S
Tb361 O385 2.341 . S
Tb361 O386 2.484 . S
Tb361 O387 2.440 . S
Tb361 O388 2.658 . S
Tb361 O389 2.409 . S
Tb361 O390 2.378 . S
C362 Tb360 2.809 . S
C362 C363 1.514 . S
C362 O380 1.248 . S
C362 O381 1.266 . S
C363 C362 1.514 . S
C363 C364 1.359 . S
C363 C368 1.348 . S
C364 C363 1.359 . S
C364 C365 1.380 . S
C364 H392 0.929 . S
C365 C364 1.380 . S
C365 C366 1.347 . S
C365 H393 0.931 . S
C366 C365 1.347 . S
C366 C367 1.369 . S
C367 C366 1.369 . S
C367 C368 1.408 . S
C367 H394 0.930 . S
C368 C363 1.348 . S
C368 C367 1.408 . S
C368 H395 0.930 . S
C369 O382 1.281 . S
C369 O383 1.254 . S
C370 O384 1.236 . S
C370 O385 1.266 . S
C371 Tb361 2.809 . S
C371 C372 1.514 . S
C371 O386 1.248 . S
C371 O387 1.266 . S
C372 C371 1.514 . S
C372 C373 1.359 . S
C372 C377 1.348 . S
C373 C372 1.359 . S
C373 C374 1.380 . S
C373 H396 0.929 . S
C374 C373 1.380 . S
C374 C375 1.347 . S
C374 H397 0.931 . S
C375 C374 1.347 . S
C375 C376 1.369 . S
C376 C375 1.369 . S
C376 C377 1.408 . S
C376 H398 0.930 . S
C377 C372 1.348 . S
C377 C376 1.408 . S
C377 H399 0.930 . S
C378 O388 1.281 . S
C378 O389 1.254 . S
C379 O390 1.236 . S
C379 O391 1.266 . S
O380 Tb360 2.484 . S
O380 C362 1.248 . S
O381 Tb360 2.440 . S
O381 C362 1.266 . S
O382 Tb360 2.658 . S
O382 Tb361 2.325 . S
O382 C369 1.281 . S
O383 Tb360 2.409 . S
O383 C369 1.254 . S
O384 Tb360 2.378 . S
O384 C370 1.236 . S
O385 Tb361 2.341 . S
O385 C370 1.266 . S
O386 Tb361 2.484 . S
O386 C371 1.248 . S
O387 Tb361 2.440 . S
O387 C371 1.266 . S
O388 Tb360 2.325 . S
O388 Tb361 2.658 . S
O388 C378 1.281 . S
O389 Tb361 2.409 . S
O389 C378 1.254 . S
O390 Tb361 2.378 . S
O390 C379 1.236 . S
O391 Tb360 2.341 . S
O391 C379 1.266 . S
H392 C364 0.929 . S
H393 C365 0.931 . S
H394 C367 0.930 . S
H395 C368 0.930 . S
H396 C373 0.929 . S
H397 C374 0.931 . S
H398 C376 0.930 . S
H399 C377 0.930 . S
Tb400 C402 2.809 . S
Tb400 O420 2.484 . S
Tb400 O421 2.440 . S
Tb400 O422 2.658 . S
Tb400 O423 2.409 . S
Tb400 O424 2.378 . S
Tb400 O428 2.325 . S
Tb400 O431 2.341 . S
Tb401 C411 2.809 . S
Tb401 O422 2.325 . S
Tb401 O425 2.341 . S
Tb401 O426 2.484 . S
Tb401 O427 2.440 . S
Tb401 O428 2.658 . S
Tb401 O429 2.409 . S
Tb401 O430 2.378 . S
C402 Tb400 2.809 . S
C402 C403 1.514 . S
C402 O420 1.248 . S
C402 O421 1.266 . S
C403 C402 1.514 . S
C403 C404 1.359 . S
C403 C408 1.348 . S
C404 C403 1.359 . S
C404 C405 1.380 . S
C404 H432 0.929 . S
C405 C404 1.380 . S
C405 C406 1.347 . S
C405 H433 0.931 . S
C406 C405 1.347 . S
C406 C407 1.369 . S
C407 C406 1.369 . S
C407 C408 1.408 . S
C407 H434 0.930 . S
C408 C403 1.348 . S
C408 C407 1.408 . S
C408 H435 0.930 . S
C409 O422 1.281 . S
C409 O423 1.254 . S
C410 O424 1.236 . S
C410 O425 1.266 . S
C411 Tb401 2.809 . S
C411 C412 1.514 . S
C411 O426 1.248 . S
C411 O427 1.266 . S
C412 C411 1.514 . S
C412 C413 1.359 . S
C412 C417 1.348 . S
C413 C412 1.359 . S
C413 C414 1.380 . S
C413 H436 0.929 . S
C414 C413 1.380 . S
C414 C415 1.347 . S
C414 H437 0.931 . S
C415 C414 1.347 . S
C415 C416 1.369 . S
C416 C415 1.369 . S
C416 C417 1.408 . S
C416 H438 0.930 . S
C417 C412 1.348 . S
C417 C416 1.408 . S
C417 H439 0.930 . S
C418 O428 1.281 . S
C418 O429 1.254 . S
C419 O430 1.236 . S
C419 O431 1.266 . S
O420 Tb400 2.484 . S
O420 C402 1.248 . S
O421 Tb400 2.440 . S
O421 C402 1.266 . S
O422 Tb400 2.658 . S
O422 Tb401 2.325 . S
O422 C409 1.281 . S
O423 Tb400 2.409 . S
O423 C409 1.254 . S
O424 Tb400 2.378 . S
O424 C410 1.236 . S
O425 Tb401 2.341 . S
O425 C410 1.266 . S
O426 Tb401 2.484 . S
O426 C411 1.248 . S
O427 Tb401 2.440 . S
O427 C411 1.266 . S
O428 Tb400 2.325 . S
O428 Tb401 2.658 . S
O428 C418 1.281 . S
O429 Tb401 2.409 . S
O429 C418 1.254 . S
O430 Tb401 2.378 . S
O430 C419 1.236 . S
O431 Tb400 2.341 . S
O431 C419 1.266 . S
H432 C404 0.929 . S
H433 C405 0.931 . S
H434 C407 0.930 . S
H435 C408 0.930 . S
H436 C413 0.929 . S
H437 C414 0.931 . S
H438 C416 0.930 . S
H439 C417 0.930 . S
Tb440 C442 2.809 . S
Tb440 O460 2.484 . S
Tb440 O461 2.440 . S
Tb440 O462 2.658 . S
Tb440 O463 2.409 . S
Tb440 O464 2.378 . S
Tb440 O468 2.325 . S
Tb440 O471 2.341 . S
Tb441 C451 2.809 . S
Tb441 O462 2.325 . S
Tb441 O465 2.341 . S
Tb441 O466 2.484 . S
Tb441 O467 2.440 . S
Tb441 O468 2.658 . S
Tb441 O469 2.409 . S
Tb441 O470 2.378 . S
C442 Tb440 2.809 . S
C442 C443 1.514 . S
C442 O460 1.248 . S
C442 O461 1.266 . S
C443 C442 1.514 . S
C443 C444 1.359 . S
C443 C448 1.348 . S
C444 C443 1.359 . S
C444 C445 1.380 . S
C444 H472 0.929 . S
C445 C444 1.380 . S
C445 C446 1.347 . S
C445 H473 0.931 . S
C446 C445 1.347 . S
C446 C447 1.369 . S
C447 C446 1.369 . S
C447 C448 1.408 . S
C447 H474 0.930 . S
C448 C443 1.348 . S
C448 C447 1.408 . S
C448 H475 0.930 . S
C449 O462 1.281 . S
C449 O463 1.254 . S
C450 O464 1.236 . S
C450 O465 1.266 . S
C451 Tb441 2.809 . S
C451 C452 1.514 . S
C451 O466 1.248 . S
C451 O467 1.266 . S
C452 C451 1.514 . S
C452 C453 1.359 . S
C452 C457 1.348 . S
C453 C452 1.359 . S
C453 C454 1.380 . S
C453 H476 0.929 . S
C454 C453 1.380 . S
C454 C455 1.347 . S
C454 H477 0.931 . S
C455 C454 1.347 . S
C455 C456 1.369 . S
C456 C455 1.369 . S
C456 C457 1.408 . S
C456 H478 0.930 . S
C457 C452 1.348 . S
C457 C456 1.408 . S
C457 H479 0.930 . S
C458 O468 1.281 . S
C458 O469 1.254 . S
C459 O470 1.236 . S
C459 O471 1.266 . S
O460 Tb440 2.484 . S
O460 C442 1.248 . S
O461 Tb440 2.440 . S
O461 C442 1.266 . S
O462 Tb440 2.658 . S
O462 Tb441 2.325 . S
O462 C449 1.281 . S
O463 Tb440 2.409 . S
O463 C449 1.254 . S
O464 Tb440 2.378 . S
O464 C450 1.236 . S
O465 Tb441 2.341 . S
O465 C450 1.266 . S
O466 Tb441 2.484 . S
O466 C451 1.248 . S
O467 Tb441 2.440 . S
O467 C451 1.266 . S
O468 Tb440 2.325 . S
O468 Tb441 2.658 . S
O468 C458 1.281 . S
O469 Tb441 2.409 . S
O469 C458 1.254 . S
O470 Tb441 2.378 . S
O470 C459 1.236 . S
O471 Tb440 2.341 . S
O471 C459 1.266 . S
H472 C444 0.929 . S
H473 C445 0.931 . S
H474 C447 0.930 . S
H475 C448 0.930 . S
H476 C453 0.929 . S
H477 C454 0.931 . S
H478 C456 0.930 . S
H479 C457 0.930 . S
Tb480 C482 2.809 . S
Tb480 O500 2.484 . S
Tb480 O501 2.440 . S
Tb480 O502 2.658 . S
Tb480 O503 2.409 . S
Tb480 O504 2.378 . S
Tb480 O508 2.325 . S
Tb480 O511 2.341 . S
Tb481 C491 2.809 . S
Tb481 O502 2.325 . S
Tb481 O505 2.341 . S
Tb481 O506 2.484 . S
Tb481 O507 2.440 . S
Tb481 O508 2.658 . S
Tb481 O509 2.409 . S
Tb481 O510 2.378 . S
C482 Tb480 2.809 . S
C482 C483 1.514 . S
C482 O500 1.248 . S
C482 O501 1.266 . S
C483 C482 1.514 . S
C483 C484 1.359 . S
C483 C488 1.348 . S
C484 C483 1.359 . S
C484 C485 1.380 . S
C484 H512 0.929 . S
C485 C484 1.380 . S
C485 C486 1.347 . S
C485 H513 0.931 . S
C486 C485 1.347 . S
C486 C487 1.369 . S
C487 C486 1.369 . S
C487 C488 1.408 . S
C487 H514 0.930 . S
C488 C483 1.348 . S
C488 C487 1.408 . S
C488 H515 0.930 . S
C489 O502 1.281 . S
C489 O503 1.254 . S
C490 O504 1.236 . S
C490 O505 1.266 . S
C491 Tb481 2.809 . S
C491 C492 1.514 . S
C491 O506 1.248 . S
C491 O507 1.266 . S
C492 C491 1.514 . S
C492 C493 1.359 . S
C492 C497 1.348 . S
C493 C492 1.359 . S
C493 C494 1.380 . S
C493 H516 0.929 . S
C494 C493 1.380 . S
C494 C495 1.347 . S
C494 H517 0.931 . S
C495 C494 1.347 . S
C495 C496 1.369 . S
C496 C495 1.369 . S
C496 C497 1.408 . S
C496 H518 0.930 . S
C497 C492 1.348 . S
C497 C496 1.408 . S
C497 H519 0.930 . S
C498 O508 1.281 . S
C498 O509 1.254 . S
C499 O510 1.236 . S
C499 O511 1.266 . S
O500 Tb480 2.484 . S
O500 C482 1.248 . S
O501 Tb480 2.440 . S
O501 C482 1.266 . S
O502 Tb480 2.658 . S
O502 Tb481 2.325 . S
O502 C489 1.281 . S
O503 Tb480 2.409 . S
O503 C489 1.254 . S
O504 Tb480 2.378 . S
O504 C490 1.236 . S
O505 Tb481 2.341 . S
O505 C490 1.266 . S
O506 Tb481 2.484 . S
O506 C491 1.248 . S
O507 Tb481 2.440 . S
O507 C491 1.266 . S
O508 Tb480 2.325 . S
O508 Tb481 2.658 . S
O508 C498 1.281 . S
O509 Tb481 2.409 . S
O509 C498 1.254 . S
O510 Tb481 2.378 . S
O510 C499 1.236 . S
O511 Tb480 2.341 . S
O511 C499 1.266 . S
H512 C484 0.929 . S
H513 C485 0.931 . S
H514 C487 0.930 . S
H515 C488 0.930 . S
H516 C493 0.929 . S
H517 C494 0.931 . S
H518 C496 0.930 . S
H519 C497 0.930 . S
Tb520 C522 2.809 . S
Tb520 O540 2.484 . S
Tb520 O541 2.440 . S
Tb520 O542 2.658 . S
Tb520 O543 2.409 . S
Tb520 O544 2.378 . S
Tb520 O548 2.325 . S
Tb520 O551 2.341 . S
Tb521 C531 2.809 . S
Tb521 O542 2.325 . S
Tb521 O545 2.341 . S
Tb521 O546 2.484 . S
Tb521 O547 2.440 . S
Tb521 O548 2.658 . S
Tb521 O549 2.409 . S
Tb521 O550 2.378 . S
C522 Tb520 2.809 . S
C522 C523 1.514 . S
C522 O540 1.248 . S
C522 O541 1.266 . S
C523 C522 1.514 . S
C523 C524 1.359 . S
C523 C528 1.348 . S
C524 C523 1.359 . S
C524 C525 1.380 . S
C524 H552 0.929 . S
C525 C524 1.380 . S
C525 C526 1.347 . S
C525 H553 0.931 . S
C526 C525 1.347 . S
C526 C527 1.369 . S
C527 C526 1.369 . S
C527 C528 1.408 . S
C527 H554 0.930 . S
C528 C523 1.348 . S
C528 C527 1.408 . S
C528 H555 0.930 . S
C529 O542 1.281 . S
C529 O543 1.254 . S
C530 O544 1.236 . S
C530 O545 1.266 . S
C531 Tb521 2.809 . S
C531 C532 1.514 . S
C531 O546 1.248 . S
C531 O547 1.266 . S
C532 C531 1.514 . S
C532 C533 1.359 . S
C532 C537 1.348 . S
C533 C532 1.359 . S
C533 C534 1.380 . S
C533 H556 0.929 . S
C534 C533 1.380 . S
C534 C535 1.347 . S
C534 H557 0.931 . S
C535 C534 1.347 . S
C535 C536 1.369 . S
C536 C535 1.369 . S
C536 C537 1.408 . S
C536 H558 0.930 . S
C537 C532 1.348 . S
C537 C536 1.408 . S
C537 H559 0.930 . S
C538 O548 1.281 . S
C538 O549 1.254 . S
C539 O550 1.236 . S
C539 O551 1.266 . S
O540 Tb520 2.484 . S
O540 C522 1.248 . S
O541 Tb520 2.440 . S
O541 C522 1.266 . S
O542 Tb520 2.658 . S
O542 Tb521 2.325 . S
O542 C529 1.281 . S
O543 Tb520 2.409 . S
O543 C529 1.254 . S
O544 Tb520 2.378 . S
O544 C530 1.236 . S
O545 Tb521 2.341 . S
O545 C530 1.266 . S
O546 Tb521 2.484 . S
O546 C531 1.248 . S
O547 Tb521 2.440 . S
O547 C531 1.266 . S
O548 Tb520 2.325 . S
O548 Tb521 2.658 . S
O548 C538 1.281 . S
O549 Tb521 2.409 . S
O549 C538 1.254 . S
O550 Tb521 2.378 . S
O550 C539 1.236 . S
O551 Tb520 2.341 . S
O551 C539 1.266 . S
H552 C524 0.929 . S
H553 C525 0.931 . S
H554 C527 0.930 . S
H555 C528 0.930 . S
H556 C533 0.929 . S
H557 C534 0.931 . S
H558 C536 0.930 . S
H559 C537 0.930 . S
Tb560 C562 2.809 . S
Tb560 O580 2.484 . S
Tb560 O581 2.440 . S
Tb560 O582 2.658 . S
Tb560 O583 2.409 . S
Tb560 O584 2.378 . S
Tb560 O588 2.325 . S
Tb560 O591 2.341 . S
Tb561 C571 2.809 . S
Tb561 O582 2.325 . S
Tb561 O585 2.341 . S
Tb561 O586 2.484 . S
Tb561 O587 2.440 . S
Tb561 O588 2.658 . S
Tb561 O589 2.409 . S
Tb561 O590 2.378 . S
C562 Tb560 2.809 . S
C562 C563 1.514 . S
C562 O580 1.248 . S
C562 O581 1.266 . S
C563 C562 1.514 . S
C563 C564 1.359 . S
C563 C568 1.348 . S
C564 C563 1.359 . S
C564 C565 1.380 . S
C564 H592 0.929 . S
C565 C564 1.380 . S
C565 C566 1.347 . S
C565 H593 0.931 . S
C566 C565 1.347 . S
C566 C567 1.369 . S
C567 C566 1.369 . S
C567 C568 1.408 . S
C567 H594 0.930 . S
C568 C563 1.348 . S
C568 C567 1.408 . S
C568 H595 0.930 . S
C569 O582 1.281 . S
C569 O583 1.254 . S
C570 O584 1.236 . S
C570 O585 1.266 . S
C571 Tb561 2.809 . S
C571 C572 1.514 . S
C571 O586 1.248 . S
C571 O587 1.266 . S
C572 C571 1.514 . S
C572 C573 1.359 . S
C572 C577 1.348 . S
C573 C572 1.359 . S
C573 C574 1.380 . S
C573 H596 0.929 . S
C574 C573 1.380 . S
C574 C575 1.347 . S
C574 H597 0.931 . S
C575 C574 1.347 . S
C575 C576 1.369 . S
C576 C575 1.369 . S
C576 C577 1.408 . S
C576 H598 0.930 . S
C577 C572 1.348 . S
C577 C576 1.408 . S
C577 H599 0.930 . S
C578 O588 1.281 . S
C578 O589 1.254 . S
C579 O590 1.236 . S
C579 O591 1.266 . S
O580 Tb560 2.484 . S
O580 C562 1.248 . S
O581 Tb560 2.440 . S
O581 C562 1.266 . S
O582 Tb560 2.658 . S
O582 Tb561 2.325 . S
O582 C569 1.281 . S
O583 Tb560 2.409 . S
O583 C569 1.254 . S
O584 Tb560 2.378 . S
O584 C570 1.236 . S
O585 Tb561 2.341 . S
O585 C570 1.266 . S
O586 Tb561 2.484 . S
O586 C571 1.248 . S
O587 Tb561 2.440 . S
O587 C571 1.266 . S
O588 Tb560 2.325 . S
O588 Tb561 2.658 . S
O588 C578 1.281 . S
O589 Tb561 2.409 . S
O589 C578 1.254 . S
O590 Tb561 2.378 . S
O590 C579 1.236 . S
O591 Tb560 2.341 . S
O591 C579 1.266 . S
H592 C564 0.929 . S
H593 C565 0.931 . S
H594 C567 0.930 . S
H595 C568 0.930 . S
H596 C573 0.929 . S
H597 C574 0.931 . S
H598 C576 0.930 . S
H599 C577 0.930 . S
Tb600 C602 2.809 . S
Tb600 O620 2.484 . S
Tb600 O621 2.440 . S
Tb600 O622 2.658 . S
Tb600 O623 2.409 . S
Tb600 O624 2.378 . S
Tb600 O628 2.325 . S
Tb600 O631 2.341 . S
Tb601 C611 2.809 . S
Tb601 O622 2.325 . S
Tb601 O625 2.341 . S
Tb601 O626 2.484 . S
Tb601 O627 2.440 . S
Tb601 O628 2.658 . S
Tb601 O629 2.409 . S
Tb601 O630 2.378 . S
C602 Tb600 2.809 . S
C602 C603 1.514 . S
C602 O620 1.248 . S
C602 O621 1.266 . S
C603 C602 1.514 . S
C603 C604 1.359 . S
C603 C608 1.348 . S
C604 C603 1.359 . S
C604 C605 1.380 . S
C604 H632 0.929 . S
C605 C604 1.380 . S
C605 C606 1.347 . S
C605 H633 0.931 . S
C606 C605 1.347 . S
C606 C607 1.369 . S
C607 C606 1.369 . S
C607 C608 1.408 . S
C607 H634 0.930 . S
C608 C603 1.348 . S
C608 C607 1.408 . S
C608 H635 0.930 . S
C609 O622 1.281 . S
C609 O623 1.254 . S
C610 O624 1.236 . S
C610 O625 1.266 . S
C611 Tb601 2.809 . S
C611 C612 1.514 . S
C611 O626 1.248 . S
C611 O627 1.266 . S
C612 C611 1.514 . S
C612 C613 1.359 . S
C612 C617 1.348 . S
C613 C612 1.359 . S
C613 C614 1.380 . S
C613 H636 0.929 . S
C614 C613 1.380 . S
C614 C615 1.347 . S
C614 H637 0.931 . S
C615 C614 1.347 . S
C615 C616 1.369 . S
C616 C615 1.369 . S
C616 C617 1.408 . S
C616 H638 0.930 . S
C617 C612 1.348 . S
C617 C616 1.408 . S
C617 H639 0.930 . S
C618 O628 1.281 . S
C618 O629 1.254 . S
C619 O630 1.236 . S
C619 O631 1.266 . S
O620 Tb600 2.484 . S
O620 C602 1.248 . S
O621 Tb600 2.440 . S
O621 C602 1.266 . S
O622 Tb600 2.658 . S
O622 Tb601 2.325 . S
O622 C609 1.281 . S
O623 Tb600 2.409 . S
O623 C609 1.254 . S
O624 Tb600 2.378 . S
O624 C610 1.236 . S
O625 Tb601 2.341 . S
O625 C610 1.266 . S
O626 Tb601 2.484 . S
O626 C611 1.248 . S
O627 Tb601 2.440 . S
O627 C611 1.266 . S
O628 Tb600 2.325 . S
O628 Tb601 2.658 . S
O628 C618 1.281 . S
O629 Tb601 2.409 . S
O629 C618 1.254 . S
O630 Tb601 2.378 . S
O630 C619 1.236 . S
O631 Tb600 2.341 . S
O631 C619 1.266 . S
H632 C604 0.929 . S
H633 C605 0.931 . S
H634 C607 0.930 . S
H635 C608 0.930 . S
H636 C613 0.929 . S
H637 C614 0.931 . S
H638 C616 0.930 . S
H639 C617 0.930 . S
H640 C648 0.950 . S
H641 C653 0.950 . S
H642 C650 0.950 . S
H643 C652 0.950 . S
H644 C654 0.950 . S
H645 C656 0.950 . S
H646 C658 0.950 . S
H647 C659 0.950 . S
C648 H640 0.950 . S
C648 C649 1.386 . S
C648 C650 1.391 . S
C649 C648 1.386 . S
C649 C653 1.393 . S
C650 H642 0.950 . S
C650 C648 1.391 . S
C650 C651 1.400 . S
C651 C650 1.400 . S
C651 C652 1.398 . S
C651 C657 1.491 . S
C652 H643 0.950 . S
C652 C651 1.398 . S
C652 C653 1.391 . S
C653 H641 0.950 . S
C653 C649 1.393 . S
C653 C652 1.391 . S
C654 H644 0.950 . S
C654 C655 1.386 . S
C654 C656 1.391 . S
C655 C654 1.386 . S
C655 C659 1.393 . S
C656 H645 0.950 . S
C656 C654 1.391 . S
C656 C657 1.400 . S
C657 C651 1.491 . S
C657 C656 1.400 . S
C657 C658 1.398 . S
C658 H646 0.950 . S
C658 C657 1.398 . S
C658 C659 1.391 . S
C659 H647 0.950 . S
C659 C655 1.393 . S
C659 C658 1.391 . S
H660 C668 0.950 . S
H661 C673 0.950 . S
H662 C670 0.950 . S
H663 C672 0.950 . S
H664 C674 0.950 . S
H665 C676 0.950 . S
H666 C678 0.950 . S
H667 C679 0.950 . S
C668 H660 0.950 . S
C668 C669 1.386 . S
C668 C670 1.391 . S
C669 C668 1.386 . S
C669 C673 1.393 . S
C670 H662 0.950 . S
C670 C668 1.391 . S
C670 C671 1.400 . S
C671 C670 1.400 . S
C671 C672 1.398 . S
C671 C677 1.491 . S
C672 H663 0.950 . S
C672 C671 1.398 . S
C672 C673 1.391 . S
C673 H661 0.950 . S
C673 C669 1.393 . S
C673 C672 1.391 . S
C674 H664 0.950 . S
C674 C675 1.386 . S
C674 C676 1.391 . S
C675 C674 1.386 . S
C675 C679 1.393 . S
C676 H665 0.950 . S
C676 C674 1.391 . S
C676 C677 1.400 . S
C677 C671 1.491 . S
C677 C676 1.400 . S
C677 C678 1.398 . S
C678 H666 0.950 . S
C678 C677 1.398 . S
C678 C679 1.391 . S
C679 H667 0.950 . S
C679 C675 1.393 . S
C679 C678 1.391 . S
H680 C688 0.950 . S
H681 C693 0.950 . S
H682 C690 0.950 . S
H683 C692 0.950 . S
H684 C694 0.950 . S
H685 C696 0.950 . S
H686 C698 0.950 . S
H687 C699 0.950 . S
C688 H680 0.950 . S
C688 C689 1.386 . S
C688 C690 1.391 . S
C689 C688 1.386 . S
C689 C693 1.393 . S
C690 H682 0.950 . S
C690 C688 1.391 . S
C690 C691 1.400 . S
C691 C690 1.400 . S
C691 C692 1.398 . S
C691 C697 1.491 . S
C692 H683 0.950 . S
C692 C691 1.398 . S
C692 C693 1.391 . S
C693 H681 0.950 . S
C693 C689 1.393 . S
C693 C692 1.391 . S
C694 H684 0.950 . S
C694 C695 1.386 . S
C694 C696 1.391 . S
C695 C694 1.386 . S
C695 C699 1.393 . S
C696 H685 0.950 . S
C696 C694 1.391 . S
C696 C697 1.400 . S
C697 C691 1.491 . S
C697 C696 1.400 . S
C697 C698 1.398 . S
C698 H686 0.950 . S
C698 C697 1.398 . S
C698 C699 1.391 . S
C699 H687 0.950 . S
C699 C695 1.393 . S
C699 C698 1.391 . S
H700 C708 0.950 . S
H701 C713 0.950 . S
H702 C710 0.950 . S
H703 C712 0.950 . S
H704 C714 0.950 . S
H705 C716 0.950 . S
H706 C718 0.950 . S
H707 C719 0.950 . S
C708 H700 0.950 . S
C708 C709 1.386 . S
C708 C710 1.391 . S
C709 C708 1.386 . S
C709 C713 1.393 . S
C710 H702 0.950 . S
C710 C708 1.391 . S
C710 C711 1.400 . S
C711 C710 1.400 . S
C711 C712 1.398 . S
C711 C717 1.491 . S
C712 H703 0.950 . S
C712 C711 1.398 . S
C712 C713 1.391 . S
C713 H701 0.950 . S
C713 C709 1.393 . S
C713 C712 1.391 . S
C714 H704 0.950 . S
C714 C715 1.386 . S
C714 C716 1.391 . S
C715 C714 1.386 . S
C715 C719 1.393 . S
C716 H705 0.950 . S
C716 C714 1.391 . S
C716 C717 1.400 . S
C717 C711 1.491 . S
C717 C716 1.400 . S
C717 C718 1.398 . S
C718 H706 0.950 . S
C718 C717 1.398 . S
C718 C719 1.391 . S
C719 H707 0.950 . S
C719 C715 1.393 . S
C719 C718 1.391 . S
H720 C728 0.950 . S
H721 C733 0.950 . S
H722 C730 0.950 . S
H723 C732 0.950 . S
H724 C734 0.950 . S
H725 C736 0.950 . S
H726 C738 0.950 . S
H727 C739 0.950 . S
C728 H720 0.950 . S
C728 C729 1.386 . S
C728 C730 1.391 . S
C729 C728 1.386 . S
C729 C733 1.393 . S
C730 H722 0.950 . S
C730 C728 1.391 . S
C730 C731 1.400 . S
C731 C730 1.400 . S
C731 C732 1.398 . S
C731 C737 1.491 . S
C732 H723 0.950 . S
C732 C731 1.398 . S
C732 C733 1.391 . S
C733 H721 0.950 . S
C733 C729 1.393 . S
C733 C732 1.391 . S
C734 H724 0.950 . S
C734 C735 1.386 . S
C734 C736 1.391 . S
C735 C734 1.386 . S
C735 C739 1.393 . S
C736 H725 0.950 . S
C736 C734 1.391 . S
C736 C737 1.400 . S
C737 C731 1.491 . S
C737 C736 1.400 . S
C737 C738 1.398 . S
C738 H726 0.950 . S
C738 C737 1.398 . S
C738 C739 1.391 . S
C739 H727 0.950 . S
C739 C735 1.393 . S
C739 C738 1.391 . S
H740 C748 0.950 . S
H741 C753 0.950 . S
H742 C750 0.950 . S
H743 C752 0.950 . S
H744 C754 0.950 . S
H745 C756 0.950 . S
H746 C758 0.950 . S
H747 C759 0.950 . S
C748 H740 0.950 . S
C748 C749 1.386 . S
C748 C750 1.391 . S
C749 C748 1.386 . S
C749 C753 1.393 . S
C750 H742 0.950 . S
C750 C748 1.391 . S
C750 C751 1.400 . S
C751 C750 1.400 . S
C751 C752 1.398 . S
C751 C757 1.491 . S
C752 H743 0.950 . S
C752 C751 1.398 . S
C752 C753 1.391 . S
C753 H741 0.950 . S
C753 C749 1.393 . S
C753 C752 1.391 . S
C754 H744 0.950 . S
C754 C755 1.386 . S
C754 C756 1.391 . S
C755 C754 1.386 . S
C755 C759 1.393 . S
C756 H745 0.950 . S
C756 C754 1.391 . S
C756 C757 1.400 . S
C757 C751 1.491 . S
C757 C756 1.400 . S
C757 C758 1.398 . S
C758 H746 0.950 . S
C758 C757 1.398 . S
C758 C759 1.391 . S
C759 H747 0.950 . S
C759 C755 1.393 . S
C759 C758 1.391 . S
H760 C768 0.950 . S
H761 C773 0.950 . S
H762 C770 0.950 . S
H763 C772 0.950 . S
H764 C774 0.950 . S
H765 C776 0.950 . S
H766 C778 0.950 . S
H767 C779 0.950 . S
C768 H760 0.950 . S
C768 C769 1.386 . S
C768 C770 1.391 . S
C769 C768 1.386 . S
C769 C773 1.393 . S
C770 H762 0.950 . S
C770 C768 1.391 . S
C770 C771 1.400 . S
C771 C770 1.400 . S
C771 C772 1.398 . S
C771 C777 1.491 . S
C772 H763 0.950 . S
C772 C771 1.398 . S
C772 C773 1.391 . S
C773 H761 0.950 . S
C773 C769 1.393 . S
C773 C772 1.391 . S
C774 H764 0.950 . S
C774 C775 1.386 . S
C774 C776 1.391 . S
C775 C774 1.386 . S
C775 C779 1.393 . S
C776 H765 0.950 . S
C776 C774 1.391 . S
C776 C777 1.400 . S
C777 C771 1.491 . S
C777 C776 1.400 . S
C777 C778 1.398 . S
C778 H766 0.950 . S
C778 C777 1.398 . S
C778 C779 1.391 . S
C779 H767 0.950 . S
C779 C775 1.393 . S
C779 C778 1.391 . S
H780 C788 0.950 . S
H781 C793 0.950 . S
H782 C790 0.950 . S
H783 C792 0.950 . S
H784 C794 0.950 . S
H785 C796 0.950 . S
H786 C798 0.950 . S
H787 C799 0.950 . S
C788 H780 0.950 . S
C788 C789 1.386 . S
C788 C790 1.391 . S
C789 C788 1.386 . S
C789 C793 1.393 . S
C790 H782 0.950 . S
C790 C788 1.391 . S
C790 C791 1.400 . S
C791 C790 1.400 . S
C791 C792 1.398 . S
C791 C797 1.491 . S
C792 H783 0.950 . S
C792 C791 1.398 . S
C792 C793 1.391 . S
C793 H781 0.950 . S
C793 C789 1.393 . S
C793 C792 1.391 . S
C794 H784 0.950 . S
C794 C795 1.386 . S
C794 C796 1.391 . S
C795 C794 1.386 . S
C795 C799 1.393 . S
C796 H785 0.950 . S
C796 C794 1.391 . S
C796 C797 1.400 . S
C797 C791 1.491 . S
C797 C796 1.400 . S
C797 C798 1.398 . S
C798 H786 0.950 . S
C798 C797 1.398 . S
C798 C799 1.391 . S
C799 H787 0.950 . S
C799 C795 1.393 . S
C799 C798 1.391 . S
H800 C808 0.950 1_545 S
H801 C813 0.950 . S
H802 C810 0.950 . S
H803 C812 0.950 . S
H804 C814 0.950 1_565 S
H805 C816 0.950 . S
H806 C818 0.950 . S
H807 C819 0.950 . S
C808 H800 0.950 1_565 S
C808 C809 1.386 . S
C808 C810 1.391 1_565 S
C809 C808 1.386 . S
C809 C813 1.393 . S
C810 H802 0.950 . S
C810 C808 1.391 1_545 S
C810 C811 1.400 1_545 S
C811 C810 1.400 1_565 S
C811 C812 1.398 . S
C811 C817 1.491 1_565 S
C812 H803 0.950 . S
C812 C811 1.398 . S
C812 C813 1.391 . S
C813 H801 0.950 . S
C813 C809 1.393 . S
C813 C812 1.391 . S
C814 H804 0.950 1_545 S
C814 C815 1.386 . S
C814 C816 1.391 1_545 S
C815 C814 1.386 . S
C815 C819 1.393 . S
C816 H805 0.950 . S
C816 C814 1.391 1_565 S
C816 C817 1.400 1_565 S
C817 C811 1.491 1_545 S
C817 C816 1.400 1_545 S
C817 C818 1.398 . S
C818 H806 0.950 . S
C818 C817 1.398 . S
C818 C819 1.391 . S
C819 H807 0.950 . S
C819 C815 1.393 . S
C819 C818 1.391 . S
H820 C828 0.950 1_565 S
H821 C833 0.950 . S
H822 C830 0.950 . S
H823 C832 0.950 . S
H824 C834 0.950 1_545 S
H825 C836 0.950 . S
H826 C838 0.950 . S
H827 C839 0.950 . S
C828 H820 0.950 1_545 S
C828 C829 1.386 . S
C828 C830 1.391 1_545 S
C829 C828 1.386 . S
C829 C833 1.393 . S
C830 H822 0.950 . S
C830 C828 1.391 1_565 S
C830 C831 1.400 1_565 S
C831 C830 1.400 1_545 S
C831 C832 1.398 . S
C831 C837 1.491 1_545 S
C832 H823 0.950 . S
C832 C831 1.398 . S
C832 C833 1.391 . S
C833 H821 0.950 . S
C833 C829 1.393 . S
C833 C832 1.391 . S
C834 H824 0.950 1_565 S
C834 C835 1.386 . S
C834 C836 1.391 1_565 S
C835 C834 1.386 . S
C835 C839 1.393 . S
C836 H825 0.950 . S
C836 C834 1.391 1_545 S
C836 C837 1.400 1_545 S
C837 C831 1.491 1_565 S
C837 C836 1.400 1_565 S
C837 C838 1.398 . S
C838 H826 0.950 . S
C838 C837 1.398 . S
C838 C839 1.391 . S
C839 H827 0.950 . S
C839 C835 1.393 . S
C839 C838 1.391 . S
H840 C848 0.950 . S
H841 C853 0.950 . S
H842 C850 0.950 . S
H843 C852 0.950 . S
H844 C854 0.950 . S
H845 C856 0.950 . S
H846 C858 0.950 . S
H847 C859 0.950 . S
C848 H840 0.950 . S
C848 C849 1.386 . S
C848 C850 1.391 . S
C849 C848 1.386 . S
C849 C853 1.393 . S
C850 H842 0.950 . S
C850 C848 1.391 . S
C850 C851 1.400 . S
C851 C850 1.400 . S
C851 C852 1.398 1_545 S
C851 C857 1.491 1_545 S
C852 H843 0.950 . S
C852 C851 1.398 1_565 S
C852 C853 1.391 1_565 S
C853 H841 0.950 . S
C853 C849 1.393 . S
C853 C852 1.391 1_545 S
C854 H844 0.950 . S
C854 C855 1.386 . S
C854 C856 1.391 . S
C855 C854 1.386 . S
C855 C859 1.393 . S
C856 H845 0.950 . S
C856 C854 1.391 . S
C856 C857 1.400 . S
C857 C851 1.491 1_565 S
C857 C856 1.400 . S
C857 C858 1.398 1_565 S
C858 H846 0.950 . S
C858 C857 1.398 1_545 S
C858 C859 1.391 1_545 S
C859 H847 0.950 . S
C859 C855 1.393 . S
C859 C858 1.391 1_565 S
H860 C868 0.950 . S
H861 C873 0.950 . S
H862 C870 0.950 . S
H863 C872 0.950 . S
H864 C874 0.950 . S
H865 C876 0.950 . S
H866 C878 0.950 . S
H867 C879 0.950 . S
C868 H860 0.950 . S
C868 C869 1.386 . S
C868 C870 1.391 . S
C869 C868 1.386 . S
C869 C873 1.393 . S
C870 H862 0.950 . S
C870 C868 1.391 . S
C870 C871 1.400 . S
C871 C870 1.400 . S
C871 C872 1.398 . S
C871 C877 1.491 1_545 S
C872 H863 0.950 . S
C872 C871 1.398 . S
C872 C873 1.391 . S
C873 H861 0.950 . S
C873 C869 1.393 . S
C873 C872 1.391 . S
C874 H864 0.950 . S
C874 C875 1.386 . S
C874 C876 1.391 . S
C875 C874 1.386 . S
C875 C879 1.393 . S
C876 H865 0.950 . S
C876 C874 1.391 . S
C876 C877 1.400 . S
C877 C871 1.491 1_565 S
C877 C876 1.400 . S
C877 C878 1.398 . S
C878 H866 0.950 . S
C878 C877 1.398 . S
C878 C879 1.391 . S
C879 H867 0.950 . S
C879 C875 1.393 . S
C879 C878 1.391 . S
H880 C888 0.950 . S
H881 C893 0.950 . S
H882 C890 0.950 . S
H883 C892 0.950 . S
H884 C894 0.950 . S
H885 C896 0.950 . S
H886 C898 0.950 . S
H887 C899 0.950 . S
C888 H880 0.950 . S
C888 C889 1.386 . S
C888 C890 1.391 . S
C889 C888 1.386 . S
C889 C893 1.393 . S
C890 H882 0.950 . S
C890 C888 1.391 . S
C890 C891 1.400 . S
C891 C890 1.400 . S
C891 C892 1.398 . S
C891 C897 1.491 . S
C892 H883 0.950 . S
C892 C891 1.398 . S
C892 C893 1.391 . S
C893 H881 0.950 . S
C893 C889 1.393 . S
C893 C892 1.391 . S
C894 H884 0.950 . S
C894 C895 1.386 . S
C894 C896 1.391 . S
C895 C894 1.386 . S
C895 C899 1.393 . S
C896 H885 0.950 . S
C896 C894 1.391 . S
C896 C897 1.400 . S
C897 C891 1.491 . S
C897 C896 1.400 . S
C897 C898 1.398 . S
C898 H886 0.950 . S
C898 C897 1.398 . S
C898 C899 1.391 . S
C899 H887 0.950 . S
C899 C895 1.393 . S
C899 C898 1.391 . S
H900 C908 0.950 . S
H901 C913 0.950 . S
H902 C910 0.950 . S
H903 C912 0.950 . S
H904 C914 0.950 . S
H905 C916 0.950 . S
H906 C918 0.950 . S
H907 C919 0.950 . S
C908 H900 0.950 . S
C908 C909 1.386 . S
C908 C910 1.391 . S
C909 C908 1.386 . S
C909 C913 1.393 . S
C910 H902 0.950 . S
C910 C908 1.391 . S
C910 C911 1.400 . S
C911 C910 1.400 . S
C911 C912 1.398 . S
C911 C917 1.491 . S
C912 H903 0.950 . S
C912 C911 1.398 . S
C912 C913 1.391 . S
C913 H901 0.950 . S
C913 C909 1.393 . S
C913 C912 1.391 . S
C914 H904 0.950 . S
C914 C915 1.386 . S
C914 C916 1.391 . S
C915 C914 1.386 . S
C915 C919 1.393 . S
C916 H905 0.950 . S
C916 C914 1.391 . S
C916 C917 1.400 . S
C917 C911 1.491 . S
C917 C916 1.400 . S
C917 C918 1.398 . S
C918 H906 0.950 . S
C918 C917 1.398 . S
C918 C919 1.391 . S
C919 H907 0.950 . S
C919 C915 1.393 . S
C919 C918 1.391 . S
H920 C928 0.950 . S
H921 C933 0.950 . S
H922 C930 0.950 . S
H923 C932 0.950 . S
H924 C934 0.950 . S
H925 C936 0.950 . S
H926 C938 0.950 . S
H927 C939 0.950 . S
C928 H920 0.950 . S
C928 C929 1.386 . S
C928 C930 1.391 . S
C929 C928 1.386 . S
C929 C933 1.393 . S
C930 H922 0.950 . S
C930 C928 1.391 . S
C930 C931 1.400 . S
C931 C930 1.400 . S
C931 C932 1.398 . S
C931 C937 1.491 . S
C932 H923 0.950 . S
C932 C931 1.398 . S
C932 C933 1.391 . S
C933 H921 0.950 . S
C933 C929 1.393 . S
C933 C932 1.391 . S
C934 H924 0.950 . S
C934 C935 1.386 . S
C934 C936 1.391 . S
C935 C934 1.386 . S
C935 C939 1.393 . S
C936 H925 0.950 . S
C936 C934 1.391 . S
C936 C937 1.400 . S
C937 C931 1.491 . S
C937 C936 1.400 . S
C937 C938 1.398 . S
C938 H926 0.950 . S
C938 C937 1.398 . S
C938 C939 1.391 . S
C939 H927 0.950 . S
C939 C935 1.393 . S
C939 C938 1.391 . S
H940 C948 0.950 . S
H941 C953 0.950 . S
H942 C950 0.950 . S
H943 C952 0.950 . S
H944 C954 0.950 . S
H945 C956 0.950 . S
H946 C958 0.950 . S
H947 C959 0.950 . S
C948 H940 0.950 . S
C948 C949 1.386 . S
C948 C950 1.391 . S
C949 C948 1.386 . S
C949 C953 1.393 . S
C950 H942 0.950 . S
C950 C948 1.391 . S
C950 C951 1.400 . S
C951 C950 1.400 . S
C951 C952 1.398 . S
C951 C957 1.491 . S
C952 H943 0.950 . S
C952 C951 1.398 . S
C952 C953 1.391 . S
C953 H941 0.950 . S
C953 C949 1.393 . S
C953 C952 1.391 . S
C954 H944 0.950 . S
C954 C955 1.386 . S
C954 C956 1.391 . S
C955 C954 1.386 . S
C955 C959 1.393 . S
C956 H945 0.950 . S
C956 C954 1.391 . S
C956 C957 1.400 . S
C957 C951 1.491 . S
C957 C956 1.400 . S
C957 C958 1.398 . S
C958 H946 0.950 . S
C958 C957 1.398 . S
C958 C959 1.391 . S
C959 H947 0.950 . S
C959 C955 1.393 . S
C959 C958 1.391 . S
H960 C968 0.950 . S
H961 C973 0.950 . S
H962 C970 0.950 . S
H963 C972 0.950 . S
H964 C974 0.950 . S
H965 C976 0.950 . S
H966 C978 0.950 . S
H967 C979 0.950 . S
C968 H960 0.950 . S
C968 C969 1.386 . S
C968 C970 1.391 . S
C969 C968 1.386 . S
C969 C973 1.393 . S
C970 H962 0.950 . S
C970 C968 1.391 . S
C970 C971 1.400 . S
C971 C970 1.400 . S
C971 C972 1.398 . S
C971 C977 1.491 1_556 S
C972 H963 0.950 . S
C972 C971 1.398 . S
C972 C973 1.391 . S
C973 H961 0.950 . S
C973 C969 1.393 . S
C973 C972 1.391 . S
C974 H964 0.950 . S
C974 C975 1.386 . S
C974 C976 1.391 . S
C975 C974 1.386 . S
C975 C979 1.393 . S
C976 H965 0.950 . S
C976 C974 1.391 . S
C976 C977 1.400 . S
C977 C971 1.491 1_554 S
C977 C976 1.400 . S
C977 C978 1.398 . S
C978 H966 0.950 . S
C978 C977 1.398 . S
C978 C979 1.391 . S
C979 H967 0.950 . S
C979 C975 1.393 . S
C979 C978 1.391 . S
H980 C988 0.950 . S
H981 C993 0.950 . S
H982 C990 0.950 . S
H983 C992 0.950 . S
H984 C994 0.950 . S
H985 C996 0.950 . S
H986 C998 0.950 . S
H987 C999 0.950 . S
C988 H980 0.950 . S
C988 C989 1.386 . S
C988 C990 1.391 . S
C989 C988 1.386 . S
C989 C993 1.393 . S
C990 H982 0.950 . S
C990 C988 1.391 . S
C990 C991 1.400 . S
C991 C990 1.400 . S
C991 C992 1.398 . S
C991 C997 1.491 1_556 S
C992 H983 0.950 . S
C992 C991 1.398 . S
C992 C993 1.391 . S
C993 H981 0.950 . S
C993 C989 1.393 . S
C993 C992 1.391 . S
C994 H984 0.950 . S
C994 C995 1.386 . S
C994 C996 1.391 . S
C995 C994 1.386 . S
C995 C999 1.393 . S
C996 H985 0.950 . S
C996 C994 1.391 . S
C996 C997 1.400 . S
C997 C991 1.491 1_554 S
C997 C996 1.400 . S
C997 C998 1.398 . S
C998 H986 0.950 . S
C998 C997 1.398 . S
C998 C999 1.391 . S
C999 H987 0.950 . S
C999 C995 1.393 . S
C999 C998 1.391 . S
H1000 C1008 0.950 . S
H1001 C1013 0.950 . S
H1002 C1010 0.950 . S
H1003 C1012 0.950 . S
H1004 C1014 0.950 . S
H1005 C1016 0.950 . S
H1006 C1018 0.950 . S
H1007 C1019 0.950 . S
C1008 H1000 0.950 . S
C1008 C1009 1.386 . S
C1008 C1010 1.391 . S
C1009 C1008 1.386 . S
C1009 C1013 1.393 . S
C1010 H1002 0.950 . S
C1010 C1008 1.391 . S
C1010 C1011 1.400 . S
C1011 C1010 1.400 . S
C1011 C1012 1.398 . S
C1011 C1017 1.491 . S
C1012 H1003 0.950 . S
C1012 C1011 1.398 . S
C1012 C1013 1.391 . S
C1013 H1001 0.950 . S
C1013 C1009 1.393 . S
C1013 C1012 1.391 . S
C1014 H1004 0.950 . S
C1014 C1015 1.386 . S
C1014 C1016 1.391 . S
C1015 C1014 1.386 . S
C1015 C1019 1.393 . S
C1016 H1005 0.950 . S
C1016 C1014 1.391 . S
C1016 C1017 1.400 . S
C1017 C1011 1.491 . S
C1017 C1016 1.400 . S
C1017 C1018 1.398 . S
C1018 H1006 0.950 . S
C1018 C1017 1.398 . S
C1018 C1019 1.391 . S
C1019 H1007 0.950 . S
C1019 C1015 1.393 . S
C1019 C1018 1.391 . S
H1020 C1028 0.950 . S
H1021 C1033 0.950 . S
H1022 C1030 0.950 . S
H1023 C1032 0.950 . S
H1024 C1034 0.950 . S
H1025 C1036 0.950 . S
H1026 C1038 0.950 . S
H1027 C1039 0.950 . S
C1028 H1020 0.950 . S
C1028 C1029 1.386 . S
C1028 C1030 1.391 . S
C1029 C1028 1.386 . S
C1029 C1033 1.393 . S
C1030 H1022 0.950 . S
C1030 C1028 1.391 . S
C1030 C1031 1.400 . S
C1031 C1030 1.400 . S
C1031 C1032 1.398 . S
C1031 C1037 1.491 . S
C1032 H1023 0.950 . S
C1032 C1031 1.398 . S
C1032 C1033 1.391 . S
C1033 H1021 0.950 . S
C1033 C1029 1.393 . S
C1033 C1032 1.391 . S
C1034 H1024 0.950 . S
C1034 C1035 1.386 . S
C1034 C1036 1.391 . S
C1035 C1034 1.386 . S
C1035 C1039 1.393 . S
C1036 H1025 0.950 . S
C1036 C1034 1.391 . S
C1036 C1037 1.400 . S
C1037 C1031 1.491 . S
C1037 C1036 1.400 . S
C1037 C1038 1.398 . S
C1038 H1026 0.950 . S
C1038 C1037 1.398 . S
C1038 C1039 1.391 . S
C1039 H1027 0.950 . S
C1039 C1035 1.393 . S
C1039 C1038 1.391 . S
H1040 C1048 0.950 . S
H1041 C1053 0.950 . S
H1042 C1050 0.950 . S
H1043 C1052 0.950 . S
H1044 C1054 0.950 . S
H1045 C1056 0.950 . S
H1046 C1058 0.950 . S
H1047 C1059 0.950 . S
C1048 H1040 0.950 . S
C1048 C1049 1.386 . S
C1048 C1050 1.391 . S
C1049 C1048 1.386 . S
C1049 C1053 1.393 . S
C1050 H1042 0.950 . S
C1050 C1048 1.391 . S
C1050 C1051 1.400 . S
C1051 C1050 1.400 . S
C1051 C1052 1.398 . S
C1051 C1057 1.491 1_554 S
C1052 H1043 0.950 . S
C1052 C1051 1.398 . S
C1052 C1053 1.391 . S
C1053 H1041 0.950 . S
C1053 C1049 1.393 . S
C1053 C1052 1.391 . S
C1054 H1044 0.950 . S
C1054 C1055 1.386 . S
C1054 C1056 1.391 . S
C1055 C1054 1.386 . S
C1055 C1059 1.393 . S
C1056 H1045 0.950 . S
C1056 C1054 1.391 . S
C1056 C1057 1.400 . S
C1057 C1051 1.491 1_556 S
C1057 C1056 1.400 . S
C1057 C1058 1.398 . S
C1058 H1046 0.950 . S
C1058 C1057 1.398 . S
C1058 C1059 1.391 . S
C1059 H1047 0.950 . S
C1059 C1055 1.393 . S
C1059 C1058 1.391 . S
H1060 C1068 0.950 . S
H1061 C1073 0.950 . S
H1062 C1070 0.950 . S
H1063 C1072 0.950 . S
H1064 C1074 0.950 . S
H1065 C1076 0.950 . S
H1066 C1078 0.950 . S
H1067 C1079 0.950 . S
C1068 H1060 0.950 . S
C1068 C1069 1.386 . S
C1068 C1070 1.391 . S
C1069 C1068 1.386 . S
C1069 C1073 1.393 . S
C1070 H1062 0.950 . S
C1070 C1068 1.391 . S
C1070 C1071 1.400 . S
C1071 C1070 1.400 . S
C1071 C1072 1.398 . S
C1071 C1077 1.491 1_556 S
C1072 H1063 0.950 . S
C1072 C1071 1.398 . S
C1072 C1073 1.391 . S
C1073 H1061 0.950 . S
C1073 C1069 1.393 . S
C1073 C1072 1.391 . S
C1074 H1064 0.950 . S
C1074 C1075 1.386 . S
C1074 C1076 1.391 . S
C1075 C1074 1.386 . S
C1075 C1079 1.393 . S
C1076 H1065 0.950 . S
C1076 C1074 1.391 . S
C1076 C1077 1.400 . S
C1077 C1071 1.491 1_554 S
C1077 C1076 1.400 . S
C1077 C1078 1.398 . S
C1078 H1066 0.950 . S
C1078 C1077 1.398 . S
C1078 C1079 1.391 . S
C1079 H1067 0.950 . S
C1079 C1075 1.393 . S
C1079 C1078 1.391 . S
H1080 C1088 0.950 . S
H1081 C1093 0.950 . S
H1082 C1090 0.950 . S
H1083 C1092 0.950 . S
H1084 C1094 0.950 . S
H1085 C1096 0.950 . S
H1086 C1098 0.950 . S
H1087 C1099 0.950 . S
C1088 H1080 0.950 . S
C1088 C1089 1.386 . S
C1088 C1090 1.391 . S
C1089 C1088 1.386 . S
C1089 C1093 1.393 . S
C1090 H1082 0.950 . S
C1090 C1088 1.391 . S
C1090 C1091 1.400 . S
C1091 C1090 1.400 . S
C1091 C1092 1.398 . S
C1091 C1097 1.491 . S
C1092 H1083 0.950 . S
C1092 C1091 1.398 . S
C1092 C1093 1.391 . S
C1093 H1081 0.950 . S
C1093 C1089 1.393 . S
C1093 C1092 1.391 . S
C1094 H1084 0.950 . S
C1094 C1095 1.386 . S
C1094 C1096 1.391 . S
C1095 C1094 1.386 . S
C1095 C1099 1.393 . S
C1096 H1085 0.950 . S
C1096 C1094 1.391 . S
C1096 C1097 1.400 . S
C1097 C1091 1.491 . S
C1097 C1096 1.400 . S
C1097 C1098 1.398 . S
C1098 H1086 0.950 . S
C1098 C1097 1.398 . S
C1098 C1099 1.391 . S
C1099 H1087 0.950 . S
C1099 C1095 1.393 . S
C1099 C1098 1.391 . S
H1100 C1108 0.950 . S
H1101 C1113 0.950 . S
H1102 C1110 0.950 . S
H1103 C1112 0.950 . S
H1104 C1114 0.950 . S
H1105 C1116 0.950 . S
H1106 C1118 0.950 . S
H1107 C1119 0.950 . S
C1108 H1100 0.950 . S
C1108 C1109 1.386 . S
C1108 C1110 1.391 . S
C1109 C1108 1.386 . S
C1109 C1113 1.393 . S
C1110 H1102 0.950 . S
C1110 C1108 1.391 . S
C1110 C1111 1.400 . S
C1111 C1110 1.400 . S
C1111 C1112 1.398 . S
C1111 C1117 1.491 . S
C1112 H1103 0.950 . S
C1112 C1111 1.398 . S
C1112 C1113 1.391 . S
C1113 H1101 0.950 . S
C1113 C1109 1.393 . S
C1113 C1112 1.391 . S
C1114 H1104 0.950 . S
C1114 C1115 1.386 . S
C1114 C1116 1.391 . S
C1115 C1114 1.386 . S
C1115 C1119 1.393 . S
C1116 H1105 0.950 . S
C1116 C1114 1.391 . S
C1116 C1117 1.400 . S
C1117 C1111 1.491 . S
C1117 C1116 1.400 . S
C1117 C1118 1.398 . S
C1118 H1106 0.950 . S
C1118 C1117 1.398 . S
C1118 C1119 1.391 . S
C1119 H1107 0.950 . S
C1119 C1115 1.393 . S
C1119 C1118 1.391 . S
H1120 C1128 0.950 . S
H1121 C1133 0.950 . S
H1122 C1130 0.950 . S
H1123 C1132 0.950 . S
H1124 C1134 0.950 . S
H1125 C1136 0.950 . S
H1126 C1138 0.950 . S
H1127 C1139 0.950 . S
C1128 H1120 0.950 . S
C1128 C1129 1.386 1_545 S
C1128 C1130 1.391 . S
C1129 C1128 1.386 1_565 S
C1129 C1133 1.393 . S
C1130 H1122 0.950 . S
C1130 C1128 1.391 . S
C1130 C1131 1.400 1_545 S
C1131 C1130 1.400 1_565 S
C1131 C1132 1.398 . S
C1131 C1137 1.491 1_665 S
C1132 H1123 0.950 . S
C1132 C1131 1.398 . S
C1132 C1133 1.391 . S
C1133 H1121 0.950 . S
C1133 C1129 1.393 . S
C1133 C1132 1.391 . S
C1134 H1124 0.950 . S
C1134 C1135 1.386 1_565 S
C1134 C1136 1.391 . S
C1135 C1134 1.386 1_545 S
C1135 C1139 1.393 . S
C1136 H1125 0.950 . S
C1136 C1134 1.391 . S
C1136 C1137 1.400 1_565 S
C1137 C1131 1.491 1_445 S
C1137 C1136 1.400 1_545 S
C1137 C1138 1.398 . S
C1138 H1126 0.950 . S
C1138 C1137 1.398 . S
C1138 C1139 1.391 . S
C1139 H1127 0.950 . S
C1139 C1135 1.393 . S
C1139 C1138 1.391 . S
H1140 C1148 0.950 . S
H1141 C1153 0.950 . S
H1142 C1150 0.950 . S
H1143 C1152 0.950 . S
H1144 C1154 0.950 . S
H1145 C1156 0.950 . S
H1146 C1158 0.950 . S
H1147 C1159 0.950 . S
C1148 H1140 0.950 . S
C1148 C1149 1.386 . S
C1148 C1150 1.391 . S
C1149 C1148 1.386 . S
C1149 C1153 1.393 1_545 S
C1150 H1142 0.950 . S
C1150 C1148 1.391 . S
C1150 C1151 1.400 . S
C1151 C1150 1.400 . S
C1151 C1152 1.398 1_545 S
C1151 C1157 1.491 1_645 S
C1152 H1143 0.950 . S
C1152 C1151 1.398 1_565 S
C1152 C1153 1.391 . S
C1153 H1141 0.950 . S
C1153 C1149 1.393 1_565 S
C1153 C1152 1.391 . S
C1154 H1144 0.950 . S
C1154 C1155 1.386 . S
C1154 C1156 1.391 . S
C1155 C1154 1.386 . S
C1155 C1159 1.393 1_565 S
C1156 H1145 0.950 . S
C1156 C1154 1.391 . S
C1156 C1157 1.400 . S
C1157 C1151 1.491 1_465 S
C1157 C1156 1.400 . S
C1157 C1158 1.398 1_565 S
C1158 H1146 0.950 . S
C1158 C1157 1.398 1_545 S
C1158 C1159 1.391 . S
C1159 H1147 0.950 . S
C1159 C1155 1.393 1_545 S
C1159 C1158 1.391 . S
H1160 C1168 0.950 . S
H1161 C1173 0.950 . S
H1162 C1170 0.950 . S
H1163 C1172 0.950 . S
H1164 C1174 0.950 . S
H1165 C1176 0.950 . S
H1166 C1178 0.950 . S
H1167 C1179 0.950 . S
C1168 H1160 0.950 . S
C1168 C1169 1.386 . S
C1168 C1170 1.391 . S
C1169 C1168 1.386 . S
C1169 C1173 1.393 . S
C1170 H1162 0.950 . S
C1170 C1168 1.391 . S
C1170 C1171 1.400 . S
C1171 C1170 1.400 . S
C1171 C1172 1.398 . S
C1171 C1177 1.491 1_445 S
C1172 H1163 0.950 . S
C1172 C1171 1.398 . S
C1172 C1173 1.391 . S
C1173 H1161 0.950 . S
C1173 C1169 1.393 . S
C1173 C1172 1.391 . S
C1174 H1164 0.950 . S
C1174 C1175 1.386 . S
C1174 C1176 1.391 . S
C1175 C1174 1.386 . S
C1175 C1179 1.393 . S
C1176 H1165 0.950 . S
C1176 C1174 1.391 . S
C1176 C1177 1.400 . S
C1177 C1171 1.491 1_665 S
C1177 C1176 1.400 . S
C1177 C1178 1.398 . S
C1178 H1166 0.950 . S
C1178 C1177 1.398 . S
C1178 C1179 1.391 . S
C1179 H1167 0.950 . S
C1179 C1175 1.393 . S
C1179 C1178 1.391 . S
H1180 C1188 0.950 . S
H1181 C1193 0.950 . S
H1182 C1190 0.950 . S
H1183 C1192 0.950 . S
H1184 C1194 0.950 . S
H1185 C1196 0.950 . S
H1186 C1198 0.950 . S
H1187 C1199 0.950 . S
C1188 H1180 0.950 . S
C1188 C1189 1.386 . S
C1188 C1190 1.391 . S
C1189 C1188 1.386 . S
C1189 C1193 1.393 1_545 S
C1190 H1182 0.950 . S
C1190 C1188 1.391 . S
C1190 C1191 1.400 . S
C1191 C1190 1.400 . S
C1191 C1192 1.398 1_545 S
C1191 C1197 1.491 1_645 S
C1192 H1183 0.950 . S
C1192 C1191 1.398 1_565 S
C1192 C1193 1.391 . S
C1193 H1181 0.950 . S
C1193 C1189 1.393 1_565 S
C1193 C1192 1.391 . S
C1194 H1184 0.950 . S
C1194 C1195 1.386 . S
C1194 C1196 1.391 . S
C1195 C1194 1.386 . S
C1195 C1199 1.393 1_565 S
C1196 H1185 0.950 . S
C1196 C1194 1.391 . S
C1196 C1197 1.400 . S
C1197 C1191 1.491 1_465 S
C1197 C1196 1.400 . S
C1197 C1198 1.398 1_565 S
C1198 H1186 0.950 . S
C1198 C1197 1.398 1_545 S
C1198 C1199 1.391 . S
C1199 H1187 0.950 . S
C1199 C1195 1.393 1_545 S
C1199 C1198 1.391 . S
H1200 C1208 0.950 . S
H1201 C1213 0.950 . S
H1202 C1210 0.950 . S
H1203 C1212 0.950 . S
H1204 C1214 0.950 . S
H1205 C1216 0.950 . S
H1206 C1218 0.950 . S
H1207 C1219 0.950 . S
C1208 H1200 0.950 . S
C1208 C1209 1.386 . S
C1208 C1210 1.391 . S
C1209 C1208 1.386 . S
C1209 C1213 1.393 . S
C1210 H1202 0.950 . S
C1210 C1208 1.391 . S
C1210 C1211 1.400 . S
C1211 C1210 1.400 . S
C1211 C1212 1.398 . S
C1211 C1217 1.491 . S
C1212 H1203 0.950 . S
C1212 C1211 1.398 . S
C1212 C1213 1.391 . S
C1213 H1201 0.950 . S
C1213 C1209 1.393 . S
C1213 C1212 1.391 . S
C1214 H1204 0.950 . S
C1214 C1215 1.386 . S
C1214 C1216 1.391 . S
C1215 C1214 1.386 . S
C1215 C1219 1.393 . S
C1216 H1205 0.950 . S
C1216 C1214 1.391 . S
C1216 C1217 1.400 . S
C1217 C1211 1.491 . S
C1217 C1216 1.400 . S
C1217 C1218 1.398 . S
C1218 H1206 0.950 . S
C1218 C1217 1.398 . S
C1218 C1219 1.391 . S
C1219 H1207 0.950 . S
C1219 C1215 1.393 . S
C1219 C1218 1.391 . S
H1220 C1228 0.950 . S
H1221 C1233 0.950 . S
H1222 C1230 0.950 . S
H1223 C1232 0.950 . S
H1224 C1234 0.950 . S
H1225 C1236 0.950 . S
H1226 C1238 0.950 . S
H1227 C1239 0.950 . S
C1228 H1220 0.950 . S
C1228 C1229 1.386 . S
C1228 C1230 1.391 . S
C1229 C1228 1.386 . S
C1229 C1233 1.393 . S
C1230 H1222 0.950 . S
C1230 C1228 1.391 . S
C1230 C1231 1.400 . S
C1231 C1230 1.400 . S
C1231 C1232 1.398 . S
C1231 C1237 1.491 . S
C1232 H1223 0.950 . S
C1232 C1231 1.398 . S
C1232 C1233 1.391 . S
C1233 H1221 0.950 . S
C1233 C1229 1.393 . S
C1233 C1232 1.391 . S
C1234 H1224 0.950 . S
C1234 C1235 1.386 . S
C1234 C1236 1.391 . S
C1235 C1234 1.386 . S
C1235 C1239 1.393 . S
C1236 H1225 0.950 . S
C1236 C1234 1.391 . S
C1236 C1237 1.400 . S
C1237 C1231 1.491 . S
C1237 C1236 1.400 . S
C1237 C1238 1.398 . S
C1238 H1226 0.950 . S
C1238 C1237 1.398 . S
C1238 C1239 1.391 . S
C1239 H1227 0.950 . S
C1239 C1235 1.393 . S
C1239 C1238 1.391 . S
H1240 C1248 0.950 . S
H1241 C1253 0.950 . S
H1242 C1250 0.950 . S
H1243 C1252 0.950 . S
H1244 C1254 0.950 . S
H1245 C1256 0.950 . S
H1246 C1258 0.950 . S
H1247 C1259 0.950 . S
C1248 H1240 0.950 . S
C1248 C1249 1.386 . S
C1248 C1250 1.391 . S
C1249 C1248 1.386 . S
C1249 C1253 1.393 . S
C1250 H1242 0.950 . S
C1250 C1248 1.391 . S
C1250 C1251 1.400 . S
C1251 C1250 1.400 . S
C1251 C1252 1.398 . S
C1251 C1257 1.491 . S
C1252 H1243 0.950 . S
C1252 C1251 1.398 . S
C1252 C1253 1.391 . S
C1253 H1241 0.950 . S
C1253 C1249 1.393 . S
C1253 C1252 1.391 . S
C1254 H1244 0.950 . S
C1254 C1255 1.386 . S
C1254 C1256 1.391 . S
C1255 C1254 1.386 . S
C1255 C1259 1.393 . S
C1256 H1245 0.950 . S
C1256 C1254 1.391 . S
C1256 C1257 1.400 . S
C1257 C1251 1.491 . S
C1257 C1256 1.400 . S
C1257 C1258 1.398 . S
C1258 H1246 0.950 . S
C1258 C1257 1.398 . S
C1258 C1259 1.391 . S
C1259 H1247 0.950 . S
C1259 C1255 1.393 . S
C1259 C1258 1.391 . S
H1260 C1268 0.950 . S
H1261 C1273 0.950 . S
H1262 C1270 0.950 . S
H1263 C1272 0.950 . S
H1264 C1274 0.950 . S
H1265 C1276 0.950 . S
H1266 C1278 0.950 . S
H1267 C1279 0.950 . S
C1268 H1260 0.950 . S
C1268 C1269 1.386 . S
C1268 C1270 1.391 . S
C1269 C1268 1.386 . S
C1269 C1273 1.393 . S
C1270 H1262 0.950 . S
C1270 C1268 1.391 . S
C1270 C1271 1.400 . S
C1271 C1270 1.400 . S
C1271 C1272 1.398 . S
C1271 C1277 1.491 . S
C1272 H1263 0.950 . S
C1272 C1271 1.398 . S
C1272 C1273 1.391 . S
C1273 H1261 0.950 . S
C1273 C1269 1.393 . S
C1273 C1272 1.391 . S
C1274 H1264 0.950 . S
C1274 C1275 1.386 . S
C1274 C1276 1.391 . S
C1275 C1274 1.386 . S
C1275 C1279 1.393 . S
C1276 H1265 0.950 . S
C1276 C1274 1.391 . S
C1276 C1277 1.400 . S
C1277 C1271 1.491 . S
C1277 C1276 1.400 . S
C1277 C1278 1.398 . S
C1278 H1266 0.950 . S
C1278 C1277 1.398 . S
C1278 C1279 1.391 . S
C1279 H1267 0.950 . S
C1279 C1275 1.393 . S
C1279 C1278 1.391 . S
H1280 C1288 0.950 . S
H1281 C1293 0.950 . S
H1282 C1290 0.950 . S
H1283 C1292 0.950 . S
H1284 C1294 0.950 . S
H1285 C1296 0.950 . S
H1286 C1298 0.950 . S
H1287 C1299 0.950 . S
C1288 H1280 0.950 . S
C1288 C1289 1.386 . S
C1288 C1290 1.391 . S
C1289 C1288 1.386 . S
C1289 C1293 1.393 . S
C1290 H1282 0.950 . S
C1290 C1288 1.391 . S
C1290 C1291 1.400 . S
C1291 C1290 1.400 . S
C1291 C1292 1.398 . S
C1291 C1297 1.491 . S
C1292 H1283 0.950 . S
C1292 C1291 1.398 . S
C1292 C1293 1.391 . S
C1293 H1281 0.950 . S
C1293 C1289 1.393 . S
C1293 C1292 1.391 . S
C1294 H1284 0.950 . S
C1294 C1295 1.386 . S
C1294 C1296 1.391 . S
C1295 C1294 1.386 . S
C1295 C1299 1.393 . S
C1296 H1285 0.950 . S
C1296 C1294 1.391 . S
C1296 C1297 1.400 . S
C1297 C1291 1.491 . S
C1297 C1296 1.400 . S
C1297 C1298 1.398 . S
C1298 H1286 0.950 . S
C1298 C1297 1.398 . S
C1298 C1299 1.391 . S
C1299 H1287 0.950 . S
C1299 C1295 1.393 . S
C1299 C1298 1.391 . S
H1300 C1308 0.950 . S
H1301 C1313 0.950 . S
H1302 C1310 0.950 . S
H1303 C1312 0.950 . S
H1304 C1314 0.950 . S
H1305 C1316 0.950 . S
H1306 C1318 0.950 . S
H1307 C1319 0.950 . S
C1308 H1300 0.950 . S
C1308 C1309 1.386 . S
C1308 C1310 1.391 . S
C1309 C1308 1.386 . S
C1309 C1313 1.393 . S
C1310 H1302 0.950 . S
C1310 C1308 1.391 . S
C1310 C1311 1.400 . S
C1311 C1310 1.400 . S
C1311 C1312 1.398 . S
C1311 C1317 1.491 . S
C1312 H1303 0.950 . S
C1312 C1311 1.398 . S
C1312 C1313 1.391 . S
C1313 H1301 0.950 . S
C1313 C1309 1.393 . S
C1313 C1312 1.391 . S
C1314 H1304 0.950 . S
C1314 C1315 1.386 . S
C1314 C1316 1.391 . S
C1315 C1314 1.386 . S
C1315 C1319 1.393 . S
C1316 H1305 0.950 . S
C1316 C1314 1.391 . S
C1316 C1317 1.400 . S
C1317 C1311 1.491 . S
C1317 C1316 1.400 . S
C1317 C1318 1.398 . S
C1318 H1306 0.950 . S
C1318 C1317 1.398 . S
C1318 C1319 1.391 . S
C1319 H1307 0.950 . S
C1319 C1315 1.393 . S
C1319 C1318 1.391 . S
H1320 C1328 0.950 . S
H1321 C1333 0.950 . S
H1322 C1330 0.950 . S
H1323 C1332 0.950 . S
H1324 C1334 0.950 . S
H1325 C1336 0.950 . S
H1326 C1338 0.950 . S
H1327 C1339 0.950 . S
C1328 H1320 0.950 . S
C1328 C1329 1.386 . S
C1328 C1330 1.391 . S
C1329 C1328 1.386 . S
C1329 C1333 1.393 . S
C1330 H1322 0.950 . S
C1330 C1328 1.391 . S
C1330 C1331 1.400 . S
C1331 C1330 1.400 . S
C1331 C1332 1.398 . S
C1331 C1337 1.491 . S
C1332 H1323 0.950 . S
C1332 C1331 1.398 . S
C1332 C1333 1.391 . S
C1333 H1321 0.950 . S
C1333 C1329 1.393 . S
C1333 C1332 1.391 . S
C1334 H1324 0.950 . S
C1334 C1335 1.386 . S
C1334 C1336 1.391 . S
C1335 C1334 1.386 . S
C1335 C1339 1.393 . S
C1336 H1325 0.950 . S
C1336 C1334 1.391 . S
C1336 C1337 1.400 . S
C1337 C1331 1.491 . S
C1337 C1336 1.400 . S
C1337 C1338 1.398 . S
C1338 H1326 0.950 . S
C1338 C1337 1.398 . S
C1338 C1339 1.391 . S
C1339 H1327 0.950 . S
C1339 C1335 1.393 . S
C1339 C1338 1.391 . S
H1340 C1348 0.950 . S
H1341 C1353 0.950 . S
H1342 C1350 0.950 . S
H1343 C1352 0.950 . S
H1344 C1354 0.950 . S
H1345 C1356 0.950 . S
H1346 C1358 0.950 . S
H1347 C1359 0.950 . S
C1348 H1340 0.950 . S
C1348 C1349 1.386 . S
C1348 C1350 1.391 . S
C1349 C1348 1.386 . S
C1349 C1353 1.393 . S
C1350 H1342 0.950 . S
C1350 C1348 1.391 . S
C1350 C1351 1.400 . S
C1351 C1350 1.400 . S
C1351 C1352 1.398 . S
C1351 C1357 1.491 . S
C1352 H1343 0.950 . S
C1352 C1351 1.398 . S
C1352 C1353 1.391 . S
C1353 H1341 0.950 . S
C1353 C1349 1.393 . S
C1353 C1352 1.391 . S
C1354 H1344 0.950 . S
C1354 C1355 1.386 . S
C1354 C1356 1.391 . S
C1355 C1354 1.386 . S
C1355 C1359 1.393 . S
C1356 H1345 0.950 . S
C1356 C1354 1.391 . S
C1356 C1357 1.400 . S
C1357 C1351 1.491 . S
C1357 C1356 1.400 . S
C1357 C1358 1.398 . S
C1358 H1346 0.950 . S
C1358 C1357 1.398 . S
C1358 C1359 1.391 . S
C1359 H1347 0.950 . S
C1359 C1355 1.393 . S
C1359 C1358 1.391 . S
H1360 C1368 0.950 . S
H1361 C1373 0.950 . S
H1362 C1370 0.950 . S
H1363 C1372 0.950 . S
H1364 C1374 0.950 . S
H1365 C1376 0.950 . S
H1366 C1378 0.950 . S
H1367 C1379 0.950 . S
C1368 H1360 0.950 . S
C1368 C1369 1.386 . S
C1368 C1370 1.391 . S
C1369 C1368 1.386 . S
C1369 C1373 1.393 . S
C1370 H1362 0.950 . S
C1370 C1368 1.391 . S
C1370 C1371 1.400 . S
C1371 C1370 1.400 . S
C1371 C1372 1.398 . S
C1371 C1377 1.491 . S
C1372 H1363 0.950 . S
C1372 C1371 1.398 . S
C1372 C1373 1.391 . S
C1373 H1361 0.950 . S
C1373 C1369 1.393 . S
C1373 C1372 1.391 . S
C1374 H1364 0.950 . S
C1374 C1375 1.386 . S
C1374 C1376 1.391 . S
C1375 C1374 1.386 . S
C1375 C1379 1.393 . S
C1376 H1365 0.950 . S
C1376 C1374 1.391 . S
C1376 C1377 1.400 . S
C1377 C1371 1.491 . S
C1377 C1376 1.400 . S
C1377 C1378 1.398 . S
C1378 H1366 0.950 . S
C1378 C1377 1.398 . S
C1378 C1379 1.391 . S
C1379 H1367 0.950 . S
C1379 C1375 1.393 . S
C1379 C1378 1.391 . S
H1380 C1388 0.950 . S
H1381 C1393 0.950 . S
H1382 C1390 0.950 . S
H1383 C1392 0.950 . S
H1384 C1394 0.950 . S
H1385 C1396 0.950 . S
H1386 C1398 0.950 . S
H1387 C1399 0.950 . S
C1388 H1380 0.950 . S
C1388 C1389 1.386 . S
C1388 C1390 1.391 . S
C1389 C1388 1.386 . S
C1389 C1393 1.393 . S
C1390 H1382 0.950 . S
C1390 C1388 1.391 . S
C1390 C1391 1.400 . S
C1391 C1390 1.400 . S
C1391 C1392 1.398 . S
C1391 C1397 1.491 . S
C1392 H1383 0.950 . S
C1392 C1391 1.398 . S
C1392 C1393 1.391 . S
C1393 H1381 0.950 . S
C1393 C1389 1.393 . S
C1393 C1392 1.391 . S
C1394 H1384 0.950 . S
C1394 C1395 1.386 . S
C1394 C1396 1.391 . S
C1395 C1394 1.386 . S
C1395 C1399 1.393 . S
C1396 H1385 0.950 . S
C1396 C1394 1.391 . S
C1396 C1397 1.400 . S
C1397 C1391 1.491 . S
C1397 C1396 1.400 . S
C1397 C1398 1.398 . S
C1398 H1386 0.950 . S
C1398 C1397 1.398 . S
C1398 C1399 1.391 . S
C1399 H1387 0.950 . S
C1399 C1395 1.393 . S
C1399 C1398 1.391 . S
H1400 C1408 0.950 . S
H1401 C1413 0.950 . S
H1402 C1410 0.950 . S
H1403 C1412 0.950 . S
H1404 C1414 0.950 . S
H1405 C1416 0.950 . S
H1406 C1418 0.950 . S
H1407 C1419 0.950 . S
C1408 H1400 0.950 . S
C1408 C1409 1.386 . S
C1408 C1410 1.391 . S
C1409 C1408 1.386 . S
C1409 C1413 1.393 . S
C1410 H1402 0.950 . S
C1410 C1408 1.391 . S
C1410 C1411 1.400 . S
C1411 C1410 1.400 . S
C1411 C1412 1.398 . S
C1411 C1417 1.491 . S
C1412 H1403 0.950 . S
C1412 C1411 1.398 . S
C1412 C1413 1.391 . S
C1413 H1401 0.950 . S
C1413 C1409 1.393 . S
C1413 C1412 1.391 . S
C1414 H1404 0.950 . S
C1414 C1415 1.386 . S
C1414 C1416 1.391 . S
C1415 C1414 1.386 . S
C1415 C1419 1.393 . S
C1416 H1405 0.950 . S
C1416 C1414 1.391 . S
C1416 C1417 1.400 . S
C1417 C1411 1.491 . S
C1417 C1416 1.400 . S
C1417 C1418 1.398 . S
C1418 H1406 0.950 . S
C1418 C1417 1.398 . S
C1418 C1419 1.391 . S
C1419 H1407 0.950 . S
C1419 C1415 1.393 . S
C1419 C1418 1.391 . S
H1420 C1428 0.950 . S
H1421 C1433 0.950 . S
H1422 C1430 0.950 . S
H1423 C1432 0.950 . S
H1424 C1434 0.950 . S
H1425 C1436 0.950 . S
H1426 C1438 0.950 . S
H1427 C1439 0.950 . S
C1428 H1420 0.950 . S
C1428 C1429 1.386 . S
C1428 C1430 1.391 . S
C1429 C1428 1.386 . S
C1429 C1433 1.393 . S
C1430 H1422 0.950 . S
C1430 C1428 1.391 . S
C1430 C1431 1.400 . S
C1431 C1430 1.400 . S
C1431 C1432 1.398 . S
C1431 C1437 1.491 . S
C1432 H1423 0.950 . S
C1432 C1431 1.398 . S
C1432 C1433 1.391 . S
C1433 H1421 0.950 . S
C1433 C1429 1.393 . S
C1433 C1432 1.391 . S
C1434 H1424 0.950 . S
C1434 C1435 1.386 . S
C1434 C1436 1.391 . S
C1435 C1434 1.386 . S
C1435 C1439 1.393 . S
C1436 H1425 0.950 . S
C1436 C1434 1.391 . S
C1436 C1437 1.400 . S
C1437 C1431 1.491 . S
C1437 C1436 1.400 . S
C1437 C1438 1.398 . S
C1438 H1426 0.950 . S
C1438 C1437 1.398 . S
C1438 C1439 1.391 . S
C1439 H1427 0.950 . S
C1439 C1435 1.393 . S
C1439 C1438 1.391 . S
H1440 C1448 0.950 . S
H1441 C1453 0.950 . S
H1442 C1450 0.950 . S
H1443 C1452 0.950 . S
H1444 C1454 0.950 . S
H1445 C1456 0.950 . S
H1446 C1458 0.950 . S
H1447 C1459 0.950 . S
C1448 H1440 0.950 . S
C1448 C1449 1.386 . S
C1448 C1450 1.391 1_565 S
C1449 C1448 1.386 . S
C1449 C1453 1.393 . S
C1450 H1442 0.950 . S
C1450 C1448 1.391 1_545 S
C1450 C1451 1.400 . S
C1451 C1450 1.400 . S
C1451 C1452 1.398 . S
C1451 C1457 1.491 . S
C1452 H1443 0.950 . S
C1452 C1451 1.398 . S
C1452 C1453 1.391 1_545 S
C1453 H1441 0.950 . S
C1453 C1449 1.393 . S
C1453 C1452 1.391 1_565 S
C1454 H1444 0.950 . S
C1454 C1455 1.386 . S
C1454 C1456 1.391 . S
C1455 C1454 1.386 . S
C1455 C1459 1.393 . S
C1456 H1445 0.950 . S
C1456 C1454 1.391 . S
C1456 C1457 1.400 . S
C1457 C1451 1.491 . S
C1457 C1456 1.400 . S
C1457 C1458 1.398 . S
C1458 H1446 0.950 . S
C1458 C1457 1.398 . S
C1458 C1459 1.391 . S
C1459 H1447 0.950 . S
C1459 C1455 1.393 . S
C1459 C1458 1.391 . S
H1460 C1468 0.950 . S
H1461 C1473 0.950 . S
H1462 C1470 0.950 . S
H1463 C1472 0.950 . S
H1464 C1474 0.950 . S
H1465 C1476 0.950 . S
H1466 C1478 0.950 . S
H1467 C1479 0.950 . S
C1468 H1460 0.950 . S
C1468 C1469 1.386 . S
C1468 C1470 1.391 . S
C1469 C1468 1.386 . S
C1469 C1473 1.393 . S
C1470 H1462 0.950 . S
C1470 C1468 1.391 . S
C1470 C1471 1.400 . S
C1471 C1470 1.400 . S
C1471 C1472 1.398 . S
C1471 C1477 1.491 . S
C1472 H1463 0.950 . S
C1472 C1471 1.398 . S
C1472 C1473 1.391 . S
C1473 H1461 0.950 . S
C1473 C1469 1.393 . S
C1473 C1472 1.391 . S
C1474 H1464 0.950 . S
C1474 C1475 1.386 . S
C1474 C1476 1.391 1_545 S
C1475 C1474 1.386 . S
C1475 C1479 1.393 . S
C1476 H1465 0.950 . S
C1476 C1474 1.391 1_565 S
C1476 C1477 1.400 . S
C1477 C1471 1.491 . S
C1477 C1476 1.400 . S
C1477 C1478 1.398 . S
C1478 H1466 0.950 . S
C1478 C1477 1.398 . S
C1478 C1479 1.391 1_565 S
C1479 H1467 0.950 . S
C1479 C1475 1.393 . S
C1479 C1478 1.391 1_545 S
H1480 C1488 0.950 . S
H1481 C1493 0.950 . S
H1482 C1490 0.950 . S
H1483 C1492 0.950 . S
H1484 C1494 0.950 . S
H1485 C1496 0.950 . S
H1486 C1498 0.950 . S
H1487 C1499 0.950 . S
C1488 H1480 0.950 . S
C1488 C1489 1.386 . S
C1488 C1490 1.391 1_545 S
C1489 C1488 1.386 . S
C1489 C1493 1.393 . S
C1490 H1482 0.950 . S
C1490 C1488 1.391 1_565 S
C1490 C1491 1.400 . S
C1491 C1490 1.400 . S
C1491 C1492 1.398 . S
C1491 C1497 1.491 . S
C1492 H1483 0.950 . S
C1492 C1491 1.398 . S
C1492 C1493 1.391 1_565 S
C1493 H1481 0.950 . S
C1493 C1489 1.393 . S
C1493 C1492 1.391 1_545 S
C1494 H1484 0.950 . S
C1494 C1495 1.386 . S
C1494 C1496 1.391 . S
C1495 C1494 1.386 . S
C1495 C1499 1.393 . S
C1496 H1485 0.950 . S
C1496 C1494 1.391 . S
C1496 C1497 1.400 . S
C1497 C1491 1.491 . S
C1497 C1496 1.400 . S
C1497 C1498 1.398 . S
C1498 H1486 0.950 . S
C1498 C1497 1.398 . S
C1498 C1499 1.391 . S
C1499 H1487 0.950 . S
C1499 C1495 1.393 . S
C1499 C1498 1.391 . S
H1500 C1508 0.950 . S
H1501 C1513 0.950 . S
H1502 C1510 0.950 . S
H1503 C1512 0.950 . S
H1504 C1514 0.950 . S
H1505 C1516 0.950 . S
H1506 C1518 0.950 . S
H1507 C1519 0.950 . S
C1508 H1500 0.950 . S
C1508 C1509 1.386 . S
C1508 C1510 1.391 1_565 S
C1509 C1508 1.386 . S
C1509 C1513 1.393 . S
C1510 H1502 0.950 . S
C1510 C1508 1.391 1_545 S
C1510 C1511 1.400 . S
C1511 C1510 1.400 . S
C1511 C1512 1.398 . S
C1511 C1517 1.491 . S
C1512 H1503 0.950 . S
C1512 C1511 1.398 . S
C1512 C1513 1.391 1_545 S
C1513 H1501 0.950 . S
C1513 C1509 1.393 . S
C1513 C1512 1.391 1_565 S
C1514 H1504 0.950 . S
C1514 C1515 1.386 . S
C1514 C1516 1.391 . S
C1515 C1514 1.386 . S
C1515 C1519 1.393 . S
C1516 H1505 0.950 . S
C1516 C1514 1.391 . S
C1516 C1517 1.400 . S
C1517 C1511 1.491 . S
C1517 C1516 1.400 . S
C1517 C1518 1.398 . S
C1518 H1506 0.950 . S
C1518 C1517 1.398 . S
C1518 C1519 1.391 . S
C1519 H1507 0.950 . S
C1519 C1515 1.393 . S
C1519 C1518 1.391 . S
H1520 C1528 0.950 . S
H1521 C1533 0.950 . S
H1522 C1530 0.950 . S
H1523 C1532 0.950 . S
H1524 C1534 0.950 . S
H1525 C1536 0.950 . S
H1526 C1538 0.950 . S
H1527 C1539 0.950 . S
C1528 H1520 0.950 . S
C1528 C1529 1.386 . S
C1528 C1530 1.391 . S
C1529 C1528 1.386 . S
C1529 C1533 1.393 . S
C1530 H1522 0.950 . S
C1530 C1528 1.391 . S
C1530 C1531 1.400 . S
C1531 C1530 1.400 . S
C1531 C1532 1.398 . S
C1531 C1537 1.491 . S
C1532 H1523 0.950 . S
C1532 C1531 1.398 . S
C1532 C1533 1.391 . S
C1533 H1521 0.950 . S
C1533 C1529 1.393 . S
C1533 C1532 1.391 . S
C1534 H1524 0.950 . S
C1534 C1535 1.386 . S
C1534 C1536 1.391 1_545 S
C1535 C1534 1.386 . S
C1535 C1539 1.393 . S
C1536 H1525 0.950 . S
C1536 C1534 1.391 1_565 S
C1536 C1537 1.400 . S
C1537 C1531 1.491 . S
C1537 C1536 1.400 . S
C1537 C1538 1.398 . S
C1538 H1526 0.950 . S
C1538 C1537 1.398 . S
C1538 C1539 1.391 1_565 S
C1539 H1527 0.950 . S
C1539 C1535 1.393 . S
C1539 C1538 1.391 1_545 S
H1540 C1548 0.950 . S
H1541 C1553 0.950 . S
H1542 C1550 0.950 . S
H1543 C1552 0.950 . S
H1544 C1554 0.950 . S
H1545 C1556 0.950 . S
H1546 C1558 0.950 . S
H1547 C1559 0.950 . S
C1548 H1540 0.950 . S
C1548 C1549 1.386 . S
C1548 C1550 1.391 . S
C1549 C1548 1.386 . S
C1549 C1553 1.393 . S
C1550 H1542 0.950 . S
C1550 C1548 1.391 . S
C1550 C1551 1.400 . S
C1551 C1550 1.400 . S
C1551 C1552 1.398 . S
C1551 C1557 1.491 . S
C1552 H1543 0.950 . S
C1552 C1551 1.398 . S
C1552 C1553 1.391 . S
C1553 H1541 0.950 . S
C1553 C1549 1.393 . S
C1553 C1552 1.391 . S
C1554 H1544 0.950 . S
C1554 C1555 1.386 . S
C1554 C1556 1.391 1_565 S
C1555 C1554 1.386 . S
C1555 C1559 1.393 . S
C1556 H1545 0.950 . S
C1556 C1554 1.391 1_545 S
C1556 C1557 1.400 . S
C1557 C1551 1.491 . S
C1557 C1556 1.400 . S
C1557 C1558 1.398 . S
C1558 H1546 0.950 . S
C1558 C1557 1.398 . S
C1558 C1559 1.391 1_545 S
C1559 H1547 0.950 . S
C1559 C1555 1.393 . S
C1559 C1558 1.391 1_565 S
H1560 C1568 0.950 . S
H1561 C1573 0.950 . S
H1562 C1570 0.950 . S
H1563 C1572 0.950 . S
H1564 C1574 0.950 . S
H1565 C1576 0.950 . S
H1566 C1578 0.950 . S
H1567 C1579 0.950 . S
C1568 H1560 0.950 . S
C1568 C1569 1.386 . S
C1568 C1570 1.391 1_565 S
C1569 C1568 1.386 . S
C1569 C1573 1.393 . S
C1570 H1562 0.950 . S
C1570 C1568 1.391 1_545 S
C1570 C1571 1.400 . S
C1571 C1570 1.400 . S
C1571 C1572 1.398 . S
C1571 C1577 1.491 . S
C1572 H1563 0.950 . S
C1572 C1571 1.398 . S
C1572 C1573 1.391 1_545 S
C1573 H1561 0.950 . S
C1573 C1569 1.393 . S
C1573 C1572 1.391 1_565 S
C1574 H1564 0.950 . S
C1574 C1575 1.386 . S
C1574 C1576 1.391 . S
C1575 C1574 1.386 . S
C1575 C1579 1.393 . S
C1576 H1565 0.950 . S
C1576 C1574 1.391 . S
C1576 C1577 1.400 . S
C1577 C1571 1.491 . S
C1577 C1576 1.400 . S
C1577 C1578 1.398 . S
C1578 H1566 0.950 . S
C1578 C1577 1.398 . S
C1578 C1579 1.391 . S
C1579 H1567 0.950 . S
C1579 C1575 1.393 . S
C1579 C1578 1.391 . S
H1580 C1588 0.950 . S
H1581 C1593 0.950 . S
H1582 C1590 0.950 . S
H1583 C1592 0.950 . S
H1584 C1594 0.950 . S
H1585 C1596 0.950 . S
H1586 C1598 0.950 . S
H1587 C1599 0.950 . S
C1588 H1580 0.950 . S
C1588 C1589 1.386 . S
C1588 C1590 1.391 . S
C1589 C1588 1.386 . S
C1589 C1593 1.393 . S
C1590 H1582 0.950 . S
C1590 C1588 1.391 . S
C1590 C1591 1.400 . S
C1591 C1590 1.400 . S
C1591 C1592 1.398 . S
C1591 C1597 1.491 . S
C1592 H1583 0.950 . S
C1592 C1591 1.398 . S
C1592 C1593 1.391 . S
C1593 H1581 0.950 . S
C1593 C1589 1.393 . S
C1593 C1592 1.391 . S
C1594 H1584 0.950 . S
C1594 C1595 1.386 . S
C1594 C1596 1.391 1_545 S
C1595 C1594 1.386 . S
C1595 C1599 1.393 . S
C1596 H1585 0.950 . S
C1596 C1594 1.391 1_565 S
C1596 C1597 1.400 . S
C1597 C1591 1.491 . S
C1597 C1596 1.400 . S
C1597 C1598 1.398 . S
C1598 H1586 0.950 . S
C1598 C1597 1.398 . S
C1598 C1599 1.391 1_565 S
C1599 H1587 0.950 . S
C1599 C1595 1.393 . S
C1599 C1598 1.391 1_545 S
C649 C19 1.556 . S
C655 C379 1.549 . S
C669 C59 1.556 . S
C675 C339 1.548 . S
C689 C459 1.551 . S
C695 C99 1.553 . S
C709 C139 1.555 . S
C715 C419 1.549 . S
C729 C530 1.557 . S
C735 C170 1.548 . S
C749 C490 1.551 . S
C755 C210 1.553 . S
C769 C610 1.553 . S
C775 C250 1.551 . S
C789 C290 1.549 . S
C795 C570 1.556 . S
C809 C98 1.674 . S
C815 C18 1.660 . S
C829 C138 1.674 . S
C835 C58 1.661 . S
C849 C249 1.672 . S
C855 C169 1.665 . S
C869 C209 1.668 . S
C875 C289 1.669 . S
C889 C418 1.674 . S
C895 C338 1.660 . S
C909 C458 1.674 . S
C915 C378 1.660 . S
C929 C489 1.671 . S
C935 C569 1.666 . S
C949 C529 1.671 . S
C955 C609 1.666 . S
C969 C218 1.526 . S
C975 C9 1.505 . S
C989 C178 1.510 . S
C995 C49 1.522 . S
C1009 C89 1.501 . S
C1015 C298 1.530 . S
C1029 C258 1.503 . S
C1035 C129 1.528 . S
C1049 C329 1.508 . S
C1055 C538 1.524 . S
C1069 C498 1.524 . S
C1075 C369 1.508 . S
C1089 C409 1.507 . S
C1095 C618 1.524 . S
C1109 C578 1.502 . S
C1115 C449 1.529 . S
C1129 C50 1.626 . S
C1135 C10 1.621 . S
C1149 C130 1.625 . S
C1155 C90 1.633 . S
C1169 C219 1.621 . S
C1175 C179 1.620 . S
C1189 C259 1.641 . S
C1195 C299 1.637 . S
C1209 C370 1.627 . S
C1215 C330 1.621 . S
C1229 C450 1.639 . S
C1235 C410 1.641 . S
C1249 C499 1.639 . S
C1255 C539 1.633 . S
C1269 C579 1.640 . S
C1275 C619 1.634 . S
C1289 C6 1.647 . S
C1295 C15 1.647 . S
C1309 C46 1.640 . S
C1315 C55 1.640 . S
C1329 C86 1.654 . S
C1335 C95 1.654 . S
C1349 C135 1.642 . S
C1355 C126 1.642 . S
C1369 C175 1.653 . S
C1375 C166 1.653 . S
C1389 C206 1.648 . S
C1395 C215 1.648 . S
C1409 C255 1.646 . S
C1415 C246 1.646 . S
C1429 C295 1.652 . S
C1435 C286 1.652 . S
C1449 C335 1.644 . S
C1455 C326 1.644 . S
C1469 C366 1.653 . S
C1475 C375 1.653 . S
C1489 C415 1.641 . S
C1495 C406 1.641 . S
C1509 C455 1.639 . S
C1515 C446 1.639 . S
C1529 C495 1.642 . S
C1535 C486 1.642 . S
C1549 C535 1.639 . S
C1555 C526 1.639 . S
C1569 C566 1.648 . S
C1575 C575 1.648 . S
C1589 C615 1.640 . S
C1595 C606 1.640 . S
