# Generated by pormake.
# Topology snl, (6)-cn, num edge types: 1
# Building blocks:
#     Node 0, Type 0, BuildingBlock: CUKXOW_clean_sbu_0, # of connection points: 6
#     Node 1, Type 0, BuildingBlock: CUKXOW_clean_sbu_0, # of connection points: 6
#     Node 2, Type 0, BuildingBlock: CUKXOW_clean_sbu_0, # of connection points: 6
#     Node 3, Type 0, BuildingBlock: CUKXOW_clean_sbu_0, # of connection points: 6
#     Node 4, Type 0, BuildingBlock: CUKXOW_clean_sbu_0, # of connection points: 6
#     Node 5, Type 0, BuildingBlock: CUKXOW_clean_sbu_0, # of connection points: 6
#     Node 6, Type 0, BuildingBlock: CUKXOW_clean_sbu_0, # of connection points: 6
#     Node 7, Type 0, BuildingBlock: CUKXOW_clean_sbu_0, # of connection points: 6
#     Node 8, Type 0, BuildingBlock: CUKXOW_clean_sbu_0, # of connection points: 6
#     Node 9, Type 0, BuildingBlock: CUKXOW_clean_sbu_0, # of connection points: 6
#     Node 10, Type 0, BuildingBlock: CUKXOW_clean_sbu_0, # of connection points: 6
#     Node 11, Type 0, BuildingBlock: CUKXOW_clean_sbu_0, # of connection points: 6
#     Node 12, Type 0, BuildingBlock: CUKXOW_clean_sbu_0, # of connection points: 6
#     Node 13, Type 0, BuildingBlock: CUKXOW_clean_sbu_0, # of connection points: 6
#     Node 14, Type 0, BuildingBlock: CUKXOW_clean_sbu_0, # of connection points: 6
#     Node 15, Type 0, BuildingBlock: CUKXOW_clean_sbu_0, # of connection points: 6
#     Edge 16, Type (0, 0), BuildingBlock: XUDNAN_clean_linker_2, # of connection points: 2
#     Edge 17, Type (0, 0), BuildingBlock: XUDNAN_clean_linker_2, # of connection points: 2
#     Edge 18, Type (0, 0), BuildingBlock: XUDNAN_clean_linker_2, # of connection points: 2
#     Edge 19, Type (0, 0), BuildingBlock: XUDNAN_clean_linker_2, # of connection points: 2
#     Edge 20, Type (0, 0), BuildingBlock: XUDNAN_clean_linker_2, # of connection points: 2
#     Edge 21, Type (0, 0), BuildingBlock: XUDNAN_clean_linker_2, # of connection points: 2
#     Edge 22, Type (0, 0), BuildingBlock: XUDNAN_clean_linker_2, # of connection points: 2
#     Edge 23, Type (0, 0), BuildingBlock: XUDNAN_clean_linker_2, # of connection points: 2
#     Edge 24, Type (0, 0), BuildingBlock: XUDNAN_clean_linker_2, # of connection points: 2
#     Edge 25, Type (0, 0), BuildingBlock: XUDNAN_clean_linker_2, # of connection points: 2
#     Edge 26, Type (0, 0), BuildingBlock: XUDNAN_clean_linker_2, # of connection points: 2
#     Edge 27, Type (0, 0), BuildingBlock: XUDNAN_clean_linker_2, # of connection points: 2
#     Edge 28, Type (0, 0), BuildingBlock: XUDNAN_clean_linker_2, # of connection points: 2
#     Edge 29, Type (0, 0), BuildingBlock: XUDNAN_clean_linker_2, # of connection points: 2
#     Edge 30, Type (0, 0), BuildingBlock: XUDNAN_clean_linker_2, # of connection points: 2
#     Edge 31, Type (0, 0), BuildingBlock: XUDNAN_clean_linker_2, # of connection points: 2
#     Edge 32, Type (0, 0), BuildingBlock: XUDNAN_clean_linker_2, # of connection points: 2
#     Edge 33, Type (0, 0), BuildingBlock: XUDNAN_clean_linker_2, # of connection points: 2
#     Edge 34, Type (0, 0), BuildingBlock: XUDNAN_clean_linker_2, # of connection points: 2
#     Edge 35, Type (0, 0), BuildingBlock: XUDNAN_clean_linker_2, # of connection points: 2
#     Edge 36, Type (0, 0), BuildingBlock: XUDNAN_clean_linker_2, # of connection points: 2
#     Edge 37, Type (0, 0), BuildingBlock: XUDNAN_clean_linker_2, # of connection points: 2
#     Edge 38, Type (0, 0), BuildingBlock: XUDNAN_clean_linker_2, # of connection points: 2
#     Edge 39, Type (0, 0), BuildingBlock: XUDNAN_clean_linker_2, # of connection points: 2
#     Edge 40, Type (0, 0), BuildingBlock: XUDNAN_clean_linker_2, # of connection points: 2
#     Edge 41, Type (0, 0), BuildingBlock: XUDNAN_clean_linker_2, # of connection points: 2
#     Edge 42, Type (0, 0), BuildingBlock: XUDNAN_clean_linker_2, # of connection points: 2
#     Edge 43, Type (0, 0), BuildingBlock: XUDNAN_clean_linker_2, # of connection points: 2
#     Edge 44, Type (0, 0), BuildingBlock: XUDNAN_clean_linker_2, # of connection points: 2
#     Edge 45, Type (0, 0), BuildingBlock: XUDNAN_clean_linker_2, # of connection points: 2
#     Edge 46, Type (0, 0), BuildingBlock: XUDNAN_clean_linker_2, # of connection points: 2
#     Edge 47, Type (0, 0), BuildingBlock: XUDNAN_clean_linker_2, # of connection points: 2
#     Edge 48, Type (0, 0), BuildingBlock: XUDNAN_clean_linker_2, # of connection points: 2
#     Edge 49, Type (0, 0), BuildingBlock: XUDNAN_clean_linker_2, # of connection points: 2
#     Edge 50, Type (0, 0), BuildingBlock: XUDNAN_clean_linker_2, # of connection points: 2
#     Edge 51, Type (0, 0), BuildingBlock: XUDNAN_clean_linker_2, # of connection points: 2
#     Edge 52, Type (0, 0), BuildingBlock: XUDNAN_clean_linker_2, # of connection points: 2
#     Edge 53, Type (0, 0), BuildingBlock: XUDNAN_clean_linker_2, # of connection points: 2
#     Edge 54, Type (0, 0), BuildingBlock: XUDNAN_clean_linker_2, # of connection points: 2
#     Edge 55, Type (0, 0), BuildingBlock: XUDNAN_clean_linker_2, # of connection points: 2
#     Edge 56, Type (0, 0), BuildingBlock: XUDNAN_clean_linker_2, # of connection points: 2
#     Edge 57, Type (0, 0), BuildingBlock: XUDNAN_clean_linker_2, # of connection points: 2
#     Edge 58, Type (0, 0), BuildingBlock: XUDNAN_clean_linker_2, # of connection points: 2
#     Edge 59, Type (0, 0), BuildingBlock: XUDNAN_clean_linker_2, # of connection points: 2
#     Edge 60, Type (0, 0), BuildingBlock: XUDNAN_clean_linker_2, # of connection points: 2
#     Edge 61, Type (0, 0), BuildingBlock: XUDNAN_clean_linker_2, # of connection points: 2
#     Edge 62, Type (0, 0), BuildingBlock: XUDNAN_clean_linker_2, # of connection points: 2
#     Edge 63, Type (0, 0), BuildingBlock: XUDNAN_clean_linker_2, # of connection points: 2
# Relax obj value: 0.193
# Max RMSD: 0.285
# Mean RMSD: 0.225
data_MOF--net-snl--node1-CUKXOW_clean_sbu_0--edge1-XUDNAN_clean_linker_2
_symmetry_space_group_name_H-M    P1
_symmetry_Int_Tables_number       1
_symmetry_cell_setting            triclinic
loop_
_symmetry_equiv_pos_as_xyz
'x, y, z'
_cell_length_a     66.742392
_cell_length_b     64.371609
_cell_length_c     14.418483
_cell_angle_alpha  94.381853
_cell_angle_beta   94.658832
_cell_angle_gamma 90.081754
loop_
_atom_site_label
_atom_site_type_symbol
_atom_site_fract_x
_atom_site_fract_y
_atom_site_fract_z
_atom_type_partial_charge
Tb0 Tb 0.11553 0.62024 0.11343 0.0
C1 C 0.13852 0.66067 0.18598 0.0
Tb2 Tb 0.15976 0.61706 0.15436 0.0
O3 O 0.10959 0.6313 0.25311 0.0
O4 O 0.13445 0.61187 0.23327 0.0
O5 O 0.12242 0.65305 0.13528 0.0
C6 C 0.19942 0.62013 0.19727 0.0
O7 O 0.15423 0.64905 0.20991 0.0
C8 C 0.14689 0.61567 0.97505 0.0
C9 C 0.13559 0.57591 0.11362 0.0
O10 O 0.18906 0.63001 0.13525 0.0
O11 O 0.18733 0.60861 0.23819 0.0
O12 O 0.16196 0.60509 1.00772 0.0
O13 O 0.14062 0.62686 0.04161 0.0
O14 O 0.15236 0.58425 0.15607 0.0
O15 O 0.12071 0.58733 0.07912 0.0
C16 C 0.07881 0.62032 1.02588 0.0
O17 O 0.08402 0.61033 0.09875 0.0
O18 O 0.09425 0.63028 1.00229 0.0
C19 C 0.1257 0.62347 0.2929 0.0
Tb20 Tb 0.60328 0.88235 0.45134 0.0
C21 C 0.62327 0.83762 0.4578 0.0
Tb22 Tb 0.65008 0.87761 0.44356 0.0
O23 O 0.59893 0.87118 0.30583 0.0
O24 O 0.62517 0.88693 0.35125 0.0
O25 O 0.60914 0.85039 0.48958 0.0
C26 C 0.68871 0.8779 0.40036 0.0
O27 O 0.63962 0.84488 0.42283 0.0
C28 C 0.63898 0.87647 0.61649 0.0
C29 C 0.63079 0.92329 0.47351 0.0
O30 O 0.67401 0.86798 0.3501 0.0
O31 O 0.68141 0.88734 0.47264 0.0
O32 O 0.65743 0.87441 0.59528 0.0
O33 O 0.62865 0.87815 0.54102 0.0
O34 O 0.64645 0.91161 0.45093 0.0
O35 O 0.6125 0.9153 0.47911 0.0
C36 C 0.56378 0.88755 0.47771 0.0
O37 O 0.57141 0.87309 0.42426 0.0
O38 O 0.57853 0.89902 0.51833 0.0
C39 C 0.6162 0.87676 0.28141 0.0
Tb40 Tb 0.40984 0.37214 0.67602 0.0
C41 C 0.3828 0.3336 0.705 0.0
Tb42 Tb 0.36412 0.37844 0.69845 0.0
O43 O 0.41526 0.36395 0.82266 0.0
O44 O 0.3915 0.38285 0.78321 0.0
O45 O 0.39923 0.33982 0.66812 0.0
C46 C 0.32821 0.38628 0.7603 0.0
O47 O 0.36839 0.34645 0.73023 0.0
C48 C 0.3707 0.37308 0.51724 0.0
C49 C 0.39135 0.41731 0.68709 0.0
O50 O 0.339 0.37001 0.77785 0.0
O51 O 0.33774 0.398 0.70906 0.0
O52 O 0.35328 0.37583 0.54966 0.0
O53 O 0.383 0.37252 0.58825 0.0
O54 O 0.37581 0.40978 0.72555 0.0
O55 O 0.40525 0.40512 0.65084 0.0
C56 C 0.44597 0.37061 0.60985 0.0
O57 O 0.44122 0.38235 0.68199 0.0
O58 O 0.43045 0.35952 0.57573 0.0
C59 C 0.39915 0.3731 0.84988 0.0
Tb60 Tb 0.88677 0.15301 0.91218 0.0
C61 C 0.92664 0.12586 0.91692 0.0
Tb62 Tb 0.88324 0.10379 0.92115 0.0
O63 O 0.88681 0.16073 0.06598 0.0
O64 O 0.88495 0.13092 1.00984 0.0
O65 O 0.91813 0.14378 0.89437 0.0
C66 C 0.88426 0.0649 0.98171 0.0
O67 O 0.91595 0.10965 0.93986 0.0
C68 C 0.87808 0.1174 0.75151 0.0
C69 C 0.84332 0.13068 0.90495 0.0
O70 O 0.8922 0.07051 0.90781 0.0
O71 O 0.87577 0.08117 1.02029 0.0
O72 O 0.87067 0.10019 0.77715 0.0
O73 O 0.88956 0.12529 0.81977 0.0
O74 O 0.85155 0.11266 0.92704 0.0
O75 O 0.85412 0.14736 0.88952 0.0
C76 C 0.88633 0.19294 0.8659 0.0
O77 O 0.87521 0.17772 0.82485 0.0
O78 O 0.89827 0.1854 0.93064 0.0
C79 C 0.88569 0.14154 0.08652 0.0
Tb80 Tb 0.10864 0.38068 0.03744 0.0
C81 C 0.1307 0.3407 0.9641 0.0
Tb82 Tb 0.15475 0.38343 1.01551 0.0
O83 O 0.09757 0.38427 0.89167 0.0
O84 O 0.12764 0.38541 0.92995 0.0
O85 O 0.11497 0.34809 1.00651 0.0
C86 C 0.19037 0.38672 0.9477 0.0
O87 O 0.14694 0.35206 0.95322 0.0
C88 C 0.14478 0.38251 0.1909 0.0
C89 C 0.13129 0.42349 0.073 0.0
O90 O 0.18569 0.3727 1.00296 0.0
O91 O 0.17504 0.3986 0.93091 0.0
O92 O 0.16186 0.3896 0.16872 0.0
O93 O 0.13574 0.37426 0.11682 0.0
O94 O 0.14639 0.41606 1.02672 0.0
O95 O 0.11722 0.41139 0.10022 0.0
C96 C 0.07251 0.38009 0.10346 0.0
O97 O 0.08104 0.39611 0.07371 0.0
O98 O 0.08441 0.36417 0.09673 0.0
C99 C 0.11505 0.38629 0.85989 0.0
Tb100 Tb 0.91118 0.872 0.1373 0.0
C101 C 0.88639 0.83032 0.14126 0.0
Tb102 Tb 0.86603 0.87543 0.15162 0.0
O103 O 0.91442 0.86142 0.28034 0.0
O104 O 0.89201 0.8818 0.24295 0.0
O105 O 0.90325 0.83857 0.11596 0.0
C106 C 0.82922 0.87619 0.21805 0.0
O107 O 0.87114 0.84217 0.16643 0.0
C108 C 0.8767 0.8789 0.98187 0.0
C109 C 0.89004 0.91663 0.13328 0.0
O110 O 0.83305 0.86969 0.13372 0.0
O111 O 0.84607 0.88208 0.26378 0.0
O112 O 0.86074 0.88709 1.01522 0.0
O113 O 0.88506 0.86707 0.04037 0.0
O114 O 0.87425 0.90833 0.1677 0.0
O115 O 0.90527 0.90491 0.10515 0.0
C116 C 0.95099 0.87247 0.11096 0.0
O117 O 0.94217 0.8839 0.1733 0.0
O118 O 0.93722 0.86119 0.06146 0.0
C119 C 0.89882 0.87123 0.30812 0.0
Tb120 Tb 0.38322 0.64262 0.4029 0.0
C121 C 0.42485 0.62302 0.46969 0.0
Tb122 Tb 0.38551 0.59482 0.41665 0.0
O123 O 0.36703 0.64668 0.52782 0.0
O124 O 0.38672 0.62203 0.51377 0.0
O125 O 0.41477 0.6401 0.44976 0.0
C126 C 0.38486 0.55847 0.49111 0.0
O127 O 0.4166 0.60406 0.46325 0.0
C128 C 0.3872 0.60505 0.24057 0.0
C129 C 0.34507 0.615 0.34382 0.0
O130 O 0.397 0.56333 0.42997 0.0
O131 O 0.37292 0.57393 0.50893 0.0
O132 O 0.38756 0.58589 0.26386 0.0
O133 O 0.38629 0.61597 0.3159 0.0
O134 O 0.35301 0.59977 0.39185 0.0
O135 O 0.35557 0.63155 0.32681 0.0
C136 C 0.38711 0.68013 0.34124 0.0
O137 O 0.3732 0.67463 0.39248 0.0
O138 O 0.39913 0.66466 0.32621 0.0
C139 C 0.37378 0.63005 0.56532 0.0
Tb140 Tb 0.60888 0.1176 0.63316 0.0
C141 C 0.6308 0.1624 0.65933 0.0
Tb142 Tb 0.65717 0.12158 0.68322 0.0
O143 O 0.60077 0.11416 0.77425 0.0
O144 O 0.63038 0.11793 0.75229 0.0
O145 O 0.61524 0.15072 0.6217 0.0
C146 C 0.69499 0.12465 0.76738 0.0
O147 O 0.64802 0.15449 0.6945 0.0
C148 C 0.64609 0.12247 0.50152 0.0
C149 C 0.63527 0.07675 0.63442 0.0
O150 O 0.67995 0.1367 0.78644 0.0
O151 O 0.68849 0.11053 0.70262 0.0
O152 O 0.6647 0.12337 0.53606 0.0
O153 O 0.63572 0.12159 0.5698 0.0
O154 O 0.65062 0.08781 0.67984 0.0
O155 O 0.61813 0.08535 0.60212 0.0
C156 C 0.56954 0.11995 0.57509 0.0
O157 O 0.58204 0.10611 0.5425 0.0
O158 O 0.57953 0.13261 0.63625 0.0
C159 C 0.61858 0.1165 0.81599 0.0
Tb160 Tb 0.8485 0.38907 0.88844 0.0
C161 C 0.87002 0.43378 0.9187 0.0
Tb162 Tb 0.89445 0.3918 0.94301 0.0
O163 O 0.84347 0.3784 1.02801 0.0
O164 O 0.86778 0.3971 1.00989 0.0
O165 O 0.85459 0.42229 0.87831 0.0
C166 C 0.9291 0.39091 0.04763 0.0
O167 O 0.88646 0.42517 0.95846 0.0
C168 C 0.88757 0.38982 0.75819 0.0
C169 C 0.87319 0.34713 0.89241 0.0
O170 O 0.92449 0.40425 0.9862 0.0
O171 O 0.91411 0.37818 0.05064 0.0
O172 O 0.90529 0.39139 0.80293 0.0
O173 O 0.87517 0.38915 0.81968 0.0
O174 O 0.88899 0.35767 0.93492 0.0
O175 O 0.85651 0.35654 0.86213 0.0
C176 C 0.8125 0.38848 0.79403 0.0
O177 O 0.82824 0.37861 0.76807 0.0
O178 O 0.81695 0.3989 0.87398 0.0
C179 C 0.86003 0.38674 0.06845 0.0
Tb180 Tb 0.34008 0.14181 0.699 0.0
C181 C 0.35827 0.09754 0.664 0.0
Tb182 Tb 0.38542 0.13873 0.68004 0.0
O183 O 0.33417 0.13248 0.54786 0.0
O184 O 0.36019 0.14855 0.59727 0.0
O185 O 0.34269 0.10845 0.69052 0.0
C186 C 0.42292 0.13277 0.62329 0.0
O187 O 0.37602 0.10602 0.65322 0.0
C188 C 0.37578 0.14297 0.85451 0.0
C189 C 0.36656 0.18261 0.71373 0.0
O190 O 0.40622 0.1264 0.57708 0.0
O191 O 0.4184 0.14254 0.7007 0.0
O192 O 0.39268 0.14857 0.82545 0.0
O193 O 0.3657 0.13278 0.78715 0.0
O194 O 0.38039 0.17198 0.66881 0.0
O195 O 0.35061 0.17339 0.74255 0.0
C196 C 0.30273 0.14497 0.75925 0.0
O197 O 0.30819 0.15158 0.68203 0.0
O198 O 0.31842 0.13716 0.80268 0.0
C199 C 0.35132 0.13929 0.52532 0.0
Tb200 Tb 0.65105 0.64253 0.45996 0.0
C201 C 0.63177 0.5967 0.44666 0.0
Tb202 Tb 0.60539 0.637 0.4719 0.0
O203 O 0.65423 0.65456 0.60869 0.0
O204 O 0.63179 0.63338 0.55944 0.0
O205 O 0.64649 0.6088 0.42313 0.0
C206 C 0.56952 0.6332 0.5368 0.0
O207 O 0.61522 0.6047 0.48007 0.0
C208 C 0.61279 0.63916 0.29475 0.0
C209 C 0.62454 0.68291 0.47297 0.0
O210 O 0.57678 0.62076 0.47311 0.0
O211 O 0.58252 0.64789 0.56454 0.0
O212 O 0.59508 0.63673 0.32356 0.0
O213 O 0.62502 0.64059 0.36651 0.0
O214 O 0.60958 0.67099 0.49575 0.0
O215 O 0.64178 0.67492 0.44704 0.0
C216 C 0.68892 0.64005 0.41553 0.0
O217 O 0.67468 0.64972 0.36983 0.0
O218 O 0.68185 0.63208 0.4861 0.0
C219 C 0.63842 0.64474 0.6301 0.0
Tb220 Tb 0.14107 0.8972 0.24421 0.0
C221 C 0.18268 0.8754 0.2954 0.0
Tb222 Tb 0.14268 0.84962 0.25483 0.0
O223 O 0.1409 0.90599 0.39745 0.0
O224 O 0.14195 0.8759 0.34505 0.0
O225 O 0.17385 0.89125 0.25411 0.0
C226 C 0.14093 0.81026 0.29839 0.0
O227 O 0.172 0.85963 0.32056 0.0
C228 C 0.1502 0.86243 0.09101 0.0
C229 C 0.1 0.87067 0.208 0.0
O230 O 0.15346 0.8177 0.24538 0.0
O231 O 0.12909 0.82497 0.3269 0.0
O232 O 0.15765 0.84608 0.12755 0.0
O233 O 0.13766 0.87037 0.14488 0.0
O234 O 0.11023 0.85328 0.22273 0.0
O235 O 0.10889 0.88934 0.21058 0.0
C236 C 0.14082 0.93538 0.18722 0.0
O237 O 0.13236 0.92972 0.25901 0.0
O238 O 0.14953 0.91955 0.14649 0.0
C239 C 0.14155 0.88688 0.42016 0.0
Tb240 Tb 0.85147 0.63254 0.05206 0.0
C241 C 0.87223 0.58897 1.00356 0.0
Tb242 Tb 0.89882 0.63134 0.0307 0.0
O243 O 0.84248 0.6335 0.89856 0.0
O244 O 0.87162 0.63172 0.94999 0.0
O245 O 0.85628 0.59903 0.03343 0.0
C246 C 0.93467 0.62884 0.96307 0.0
O247 O 0.88942 0.59857 0.98998 0.0
C248 C 0.89105 0.63113 0.2093 0.0
C249 C 0.87736 0.67498 0.07487 0.0
O250 O 0.92714 0.61554 1.014 0.0
O251 O 0.92191 0.6438 0.94941 0.0
O252 O 0.90888 0.6309 0.17922 0.0
O253 O 0.87887 0.63189 0.1376 0.0
O254 O 0.89331 0.66535 0.04114 0.0
O255 O 0.86083 0.66478 0.09271 0.0
C256 C 0.81775 0.62989 0.13599 0.0
O257 O 0.82077 0.6428 0.07318 0.0
O258 O 0.8336 0.61859 0.15064 0.0
C259 C 0.86093 0.63249 0.87484 0.0
Tb260 Tb 0.11822 0.10599 0.85046 0.0
C261 C 0.15696 0.13428 0.83893 0.0
Tb262 Tb 0.11337 0.15363 0.83805 0.0
O263 O 0.11882 0.09701 0.6978 0.0
O264 O 0.11521 0.12708 0.74859 0.0
O265 O 0.14944 0.11681 0.8656 0.0
C266 C 0.10779 0.19299 0.79718 0.0
O267 O 0.14538 0.14997 0.81305 0.0
C268 C 0.12277 0.14146 1.00841 0.0
C269 C 0.07414 0.12509 0.84417 0.0
O270 O 0.1176 0.17911 0.74949 0.0
O271 O 0.10062 0.18449 0.8664 0.0
O272 O 0.12819 0.15892 0.97818 0.0
O273 O 0.11146 0.13215 0.94351 0.0
O274 O 0.08141 0.14327 0.82145 0.0
O275 O 0.08606 0.10922 0.8654 0.0
C276 C 0.12657 0.07109 0.93145 0.0
O277 O 0.11405 0.07234 0.85803 0.0
O278 O 0.13419 0.08929 0.95821 0.0
C279 C 0.11625 0.11597 0.67389 0.0
Tb280 Tb 0.62853 0.40452 0.54071 0.0
C281 C 0.6697 0.38111 0.5854 0.0
Tb282 Tb 0.62952 0.35423 0.55834 0.0
O283 O 0.62735 0.41377 0.68885 0.0
O284 O 0.6288 0.38271 0.64537 0.0
O285 O 0.66069 0.398 0.55461 0.0
C286 C 0.62857 0.31532 0.61566 0.0
O287 O 0.66028 0.36374 0.60233 0.0
C288 C 0.62947 0.36546 0.38279 0.0
C289 C 0.58827 0.37727 0.5149 0.0
O290 O 0.64222 0.32273 0.56755 0.0
O291 O 0.61571 0.33004 0.6331 0.0
O292 O 0.63004 0.34623 0.40453 0.0
O293 O 0.6291 0.37621 0.45882 0.0
O294 O 0.59754 0.36064 0.54661 0.0
O295 O 0.59744 0.39486 0.49795 0.0
C296 C 0.63005 0.44327 0.48123 0.0
O297 O 0.61675 0.4364 0.53266 0.0
O298 O 0.64218 0.42804 0.46094 0.0
C299 C 0.62754 0.39512 0.71734 0.0
Tb300 Tb 0.37113 0.91181 0.38882 0.0
C301 C 0.33225 0.88296 0.35091 0.0
Tb302 Tb 0.37626 0.86471 0.34678 0.0
O303 O 0.38468 0.91845 0.26298 0.0
O304 O 0.36906 0.89069 0.26452 0.0
O305 O 0.33991 0.90081 0.39145 0.0
C306 C 0.37893 0.82646 0.26581 0.0
O307 O 0.34381 0.86787 0.31699 0.0
C308 C 0.37512 0.87453 0.52971 0.0
C309 C 0.41473 0.89258 0.40868 0.0
O310 O 0.365 0.8331 0.31798 0.0
O311 O 0.39159 0.8415 0.25846 0.0
O312 O 0.37785 0.85569 0.49447 0.0
O313 O 0.37359 0.88549 0.46175 0.0
O314 O 0.40764 0.87557 0.35835 0.0
O315 O 0.40259 0.90747 0.43998 0.0
C316 C 0.36252 0.95008 0.4551 0.0
O317 O 0.35155 0.93894 0.3916 0.0
O318 O 0.37839 0.93979 0.48114 0.0
C319 C 0.38 0.90091 0.216 0.0
H320 H 0.15914 0.59323 0.81738 0.0
H321 H 0.12459 0.6471 0.90755 0.0
H322 H 0.11777 0.65535 0.74437 0.0
H323 H 0.18113 0.61634 0.62564 0.0
H324 H 0.17907 0.59301 0.54792 0.0
H325 H 0.18197 0.59115 0.67241 0.0
H326 H 0.14951 0.56878 0.66309 0.0
H327 H 0.1466 0.57042 0.53855 0.0
H328 H 0.12649 0.57857 0.60895 0.0
H329 H 0.11473 0.65842 0.57598 0.0
H330 H 0.11254 0.65449 0.40523 0.0
H331 H 0.1481 0.59812 0.41358 0.0
C332 C 0.15015 0.60674 0.80235 0.0
C333 C 0.14239 0.61956 0.8754 0.0
C334 C 0.1306 0.63701 0.85309 0.0
C335 C 0.12675 0.64191 0.7605 0.0
C336 C 0.1347 0.62917 0.69034 0.0
C337 C 0.14595 0.6118 0.70934 0.0
C338 C 0.15192 0.60044 0.61899 0.0
C339 C 0.17489 0.60023 0.6161 0.0
C340 C 0.1431 0.57824 0.60668 0.0
C341 C 0.14212 0.61414 0.54667 0.0
C342 C 0.13252 0.63071 0.59052 0.0
C343 C 0.12214 0.64551 0.54075 0.0
C344 C 0.12101 0.6431 0.44347 0.0
C345 C 0.13009 0.62599 0.39575 0.0
C346 C 0.14116 0.61145 0.4481 0.0
H347 H 0.64882 0.87149 0.17367 0.0
H348 H 0.58664 0.8913 0.16613 0.0
H349 H 0.58607 0.89406 0.99695 0.0
H350 H 0.66376 0.90483 0.99049 0.0
H351 H 0.67987 0.88522 0.94097 0.0
H352 H 0.67612 0.88641 0.06364 0.0
H353 H 0.66455 0.84784 0.04574 0.0
H354 H 0.66801 0.84657 0.92287 0.0
H355 H 0.64398 0.83988 0.96158 0.0
H356 H 0.59071 0.89164 0.82773 0.0
H357 H 0.6017 0.88712 0.66776 0.0
H358 H 0.66103 0.8697 0.78 0.0
C359 C 0.63532 0.8769 0.13645 0.0
C360 C 0.6178 0.88125 0.18308 0.0
C361 C 0.60024 0.88787 0.13183 0.0
C362 C 0.59973 0.88949 0.03557 0.0
C363 C 0.61695 0.88449 0.99083 0.0
C364 C 0.63453 0.87859 0.03925 0.0
C365 C 0.65059 0.87341 0.97238 0.0
C366 C 0.66866 0.88836 0.99311 0.0
C367 C 0.65716 0.85056 0.97589 0.0
C368 C 0.63913 0.87705 0.8795 0.0
C369 C 0.61973 0.88338 0.89205 0.0
C370 C 0.60595 0.88694 0.81689 0.0
C371 C 0.61226 0.88425 0.7263 0.0
C372 C 0.63216 0.87818 0.71172 0.0
C373 C 0.64572 0.87448 0.78937 0.0
H374 H 0.40226 0.3588 0.40751 0.0
H375 H 0.34626 0.39313 0.39889 0.0
H376 H 0.34804 0.3969 0.23223 0.0
H377 H 0.42624 0.38845 0.23609 0.0
H378 H 0.43775 0.36596 0.18075 0.0
H379 H 0.43307 0.36651 0.3023 0.0
H380 H 0.41276 0.33213 0.26973 0.0
H381 H 0.41728 0.33152 0.14802 0.0
H382 H 0.3919 0.33054 0.18172 0.0
H383 H 0.35453 0.39679 0.06679 0.0
H384 H 0.366 0.39278 0.90843 0.0
H385 H 0.4175 0.3577 1.01169 0.0
C386 C 0.39058 0.36732 0.37053 0.0
C387 C 0.37411 0.37573 0.41735 0.0
C388 C 0.359 0.38648 0.36554 0.0
C389 C 0.35985 0.38877 0.27028 0.0
C390 C 0.37589 0.38012 0.22571 0.0
C391 C 0.39106 0.3696 0.27337 0.0
C392 C 0.40617 0.36138 0.2055 0.0
C393 C 0.42705 0.37116 0.2328 0.0
C394 C 0.40708 0.33747 0.201 0.0
C395 C 0.39699 0.36891 0.11331 0.0
C396 C 0.37955 0.37976 0.12757 0.0
C397 C 0.36818 0.38833 0.05462 0.0
C398 C 0.37479 0.38591 0.96453 0.0
C399 C 0.39257 0.37486 0.9469 0.0
C400 C 0.4038 0.36619 1.02269 0.0
H401 H 0.87444 0.15107 0.64084 0.0
H402 H 0.89054 0.08578 0.63724 0.0
H403 H 0.89496 0.08513 0.46913 0.0
H404 H 0.84567 0.14709 0.41965 0.0
H405 H 0.85356 0.17188 0.38436 0.0
H406 H 0.85298 0.16795 0.50648 0.0
H407 H 0.89046 0.17874 0.5356 0.0
H408 H 0.89114 0.18285 0.41363 0.0
H409 H 0.9088 0.16544 0.46802 0.0
H410 H 0.89692 0.09089 0.30063 0.0
H411 H 0.89626 0.10311 0.142 0.0
H412 H 0.87745 0.16413 0.2483 0.0
C413 C 0.87921 0.13679 0.60463 0.0
C414 C 0.88225 0.11848 0.65228 0.0
C415 C 0.88813 0.09998 0.60224 0.0
C416 C 0.89071 0.09945 0.50661 0.0
C417 C 0.88725 0.11754 0.46099 0.0
C418 C 0.88167 0.13592 0.50798 0.0
C419 C 0.87817 0.15284 0.44044 0.0
C420 C 0.85629 0.16038 0.43758 0.0
C421 C 0.89303 0.17105 0.46596 0.0
C422 C 0.88253 0.14103 0.34871 0.0
C423 C 0.88783 0.12071 0.36251 0.0
C424 C 0.89258 0.10673 0.2888 0.0
C425 C 0.89185 0.11366 0.1985 0.0
C426 C 0.88615 0.13426 0.18206 0.0
C427 C 0.88164 0.14817 0.25859 0.0
H428 H 0.16708 0.38433 0.36439 0.0
H429 H 0.10613 0.38276 0.23553 0.0
H430 H 0.09303 0.38444 0.39071 0.0
H431 H 0.15651 0.35127 0.55116 0.0
H432 H 0.17342 0.36502 0.63886 0.0
H433 H 0.17841 0.36433 0.51767 0.0
H434 H 0.17962 0.40461 0.52821 0.0
H435 H 0.17457 0.40536 0.64936 0.0
H436 H 0.15852 0.41914 0.56854 0.0
H437 H 0.08619 0.38704 0.55636 0.0
H438 H 0.08519 0.38781 0.72551 0.0
H439 H 0.15043 0.38583 0.75982 0.0
C440 C 0.15098 0.3844 0.36924 0.0
C441 C 0.13752 0.38339 0.28689 0.0
C442 C 0.11664 0.38329 0.29656 0.0
C443 C 0.10909 0.38438 0.38488 0.0
C444 C 0.1226 0.38527 0.46424 0.0
C445 C 0.14312 0.38505 0.45796 0.0
C446 C 0.15407 0.38528 0.55581 0.0
C447 C 0.16633 0.36529 0.56649 0.0
C448 C 0.16749 0.40476 0.5767 0.0
C449 C 0.13646 0.38598 0.61764 0.0
C450 C 0.11855 0.38608 0.56214 0.0
C451 C 0.1001 0.38684 0.60038 0.0
C452 C 0.09976 0.38729 0.69738 0.0
C453 C 0.11767 0.38683 0.75742 0.0
C454 C 0.13642 0.38625 0.71657 0.0
H455 H 0.89865 0.85313 0.8593 0.0
H456 H 0.86456 0.91043 0.88113 0.0
H457 H 0.86689 0.91442 0.71456 0.0
H458 H 0.93229 0.87085 0.68638 0.0
H459 H 0.93276 0.84567 0.6227 0.0
H460 H 0.92953 0.84752 0.74598 0.0
H461 H 0.89674 0.82574 0.71409 0.0
H462 H 0.89975 0.82401 0.59069 0.0
H463 H 0.8769 0.83435 0.6338 0.0
H464 H 0.8699 0.91129 0.54478 0.0
H465 H 0.87688 0.90304 0.38103 0.0
H466 H 0.91037 0.84853 0.46038 0.0
C467 C 0.89205 0.86667 0.82907 0.0
C468 C 0.8813 0.88143 0.88372 0.0
C469 C 0.87271 0.89882 0.84107 0.0
C470 C 0.87393 0.90126 0.74613 0.0
C471 C 0.88396 0.88626 0.69342 0.0
C472 C 0.89318 0.86944 0.73295 0.0
C473 C 0.90279 0.85562 0.65819 0.0
C474 C 0.9257 0.85487 0.6796 0.0
C475 C 0.89349 0.83363 0.64866 0.0
C476 C 0.89723 0.86721 0.5712 0.0
C477 C 0.88625 0.88477 0.59383 0.0
C478 C 0.87868 0.8977 0.52623 0.0
C479 C 0.88262 0.8928 0.43305 0.0
C480 C 0.89419 0.87519 0.40744 0.0
C481 C 0.90157 0.86219 0.4778 0.0
H482 H 0.38787 0.59796 0.67593 0.0
H483 H 0.36002 0.65895 0.69066 0.0
H484 H 0.3616 0.65928 0.86121 0.0
H485 H 0.36082 0.57851 0.86328 0.0
H486 H 0.38164 0.56381 0.91122 0.0
H487 H 0.37939 0.56804 0.78887 0.0
H488 H 0.41488 0.58422 0.80218 0.0
H489 H 0.41757 0.57999 0.92468 0.0
H490 H 0.42103 0.60575 0.88729 0.0
H491 H 0.36795 0.65468 0.03081 0.0
H492 H 0.37435 0.64305 0.18912 0.0
H493 H 0.39486 0.58344 0.07277 0.0
C494 C 0.38202 0.6113 0.71516 0.0
C495 C 0.37395 0.62853 0.66877 0.0
C496 C 0.36635 0.64557 0.72336 0.0
C497 C 0.36723 0.64598 0.82093 0.0
C498 C 0.37541 0.62903 0.86453 0.0
C499 C 0.38233 0.61178 0.81384 0.0
C500 C 0.38961 0.59538 0.87975 0.0
C501 C 0.3771 0.57524 0.8596 0.0
C502 C 0.41211 0.59108 0.87306 0.0
C503 C 0.38575 0.60622 0.97457 0.0
C504 C 0.37787 0.62578 0.96362 0.0
C505 C 0.37382 0.63926 0.04017 0.0
C506 C 0.37755 0.6325 0.13027 0.0
C507 C 0.38483 0.61223 0.14403 0.0
C508 C 0.38907 0.59896 0.06467 0.0
H509 H 0.65352 0.11366 0.94223 0.0
H510 H 0.58959 0.12735 0.92526 0.0
H511 H 0.59014 0.13049 0.09458 0.0
H512 H 0.65334 0.083 0.14042 0.0
H513 H 0.67689 0.09278 0.1973 0.0
H514 H 0.67246 0.09235 0.0722 0.0
H515 H 0.68007 0.13189 0.07921 0.0
H516 H 0.68468 0.13241 0.20431 0.0
H517 H 0.66634 0.1496 0.15313 0.0
H518 H 0.59577 0.12982 0.26328 0.0
H519 H 0.60785 0.12842 0.42909 0.0
H520 H 0.66833 0.11677 0.34871 0.0
C521 C 0.6398 0.1176 0.97455 0.0
C522 C 0.62148 0.12007 0.91948 0.0
C523 C 0.60382 0.12511 0.9649 0.0
C524 C 0.60388 0.12699 0.06171 0.0
C525 C 0.62179 0.12396 0.11411 0.0
C526 C 0.63955 0.11964 0.07317 0.0
C527 C 0.6565 0.11701 0.14873 0.0
C528 C 0.66532 0.09497 0.13906 0.0
C529 C 0.67287 0.13373 0.14618 0.0
C530 C 0.64528 0.12032 0.23687 0.0
C531 C 0.62523 0.12419 0.21444 0.0
C532 C 0.6115 0.12702 0.28226 0.0
C533 C 0.61844 0.12611 0.3762 0.0
C534 C 0.63895 0.12259 0.40165 0.0
C535 C 0.65255 0.11964 0.331 0.0
H536 H 0.84127 0.37143 0.21742 0.0
H537 H 0.89283 0.40716 0.15236 0.0
H538 H 0.90396 0.41217 0.31912 0.0
H539 H 0.83209 0.40317 0.43146 0.0
H540 H 0.82513 0.38153 0.49472 0.0
H541 H 0.82078 0.38015 0.36933 0.0
H542 H 0.8413 0.34614 0.35666 0.0
H543 H 0.84559 0.34737 0.482 0.0
H544 H 0.86661 0.34581 0.41079 0.0
H545 H 0.91021 0.41338 0.48924 0.0
H546 H 0.91188 0.41035 0.65803 0.0
H547 H 0.85608 0.3748 0.62583 0.0
C548 C 0.85493 0.38022 0.23858 0.0
C549 C 0.86631 0.38872 0.17087 0.0
C550 C 0.88398 0.40027 0.20187 0.0
C551 C 0.89039 0.40332 0.29691 0.0
C552 C 0.87892 0.39491 0.36161 0.0
C553 C 0.86156 0.3836 0.33456 0.0
C554 C 0.85227 0.37642 0.42057 0.0
C555 C 0.83132 0.38588 0.42952 0.0
C556 C 0.8514 0.35251 0.41728 0.0
C557 C 0.86727 0.38534 0.49943 0.0
C558 C 0.88243 0.39596 0.46262 0.0
C559 C 0.89839 0.4052 0.51892 0.0
C560 C 0.89918 0.40336 0.61516 0.0
C561 C 0.88409 0.39249 0.65603 0.0
C562 C 0.86769 0.38352 0.59719 0.0
H563 H 0.33299 0.12217 0.35446 0.0
H564 H 0.38314 0.16089 0.47639 0.0
H565 H 0.39303 0.16634 0.31963 0.0
H566 H 0.35996 0.09731 0.16486 0.0
H567 H 0.33867 0.09665 0.07932 0.0
H568 H 0.33483 0.09578 0.20127 0.0
H569 H 0.31168 0.12789 0.19241 0.0
H570 H 0.31557 0.12892 0.07057 0.0
H571 H 0.32101 0.15146 0.15072 0.0
H572 H 0.39725 0.16906 0.15438 0.0
H573 H 0.39813 0.16631 0.98503 0.0
H574 H 0.3466 0.12427 0.95703 0.0
C575 C 0.34606 0.13175 0.34778 0.0
C576 C 0.35722 0.14124 0.42845 0.0
C577 C 0.37429 0.15352 0.41651 0.0
C578 C 0.38002 0.15677 0.32738 0.0
C579 C 0.36869 0.1475 0.2497 0.0
C580 C 0.35221 0.13502 0.25817 0.0
C581 C 0.34326 0.12656 0.1614 0.0
C582 C 0.34424 0.10265 0.15112 0.0
C583 C 0.32159 0.13416 0.1427 0.0
C584 C 0.35732 0.1363 0.09785 0.0
C585 C 0.37166 0.14846 0.15153 0.0
C586 C 0.38623 0.15944 0.11165 0.0
C587 C 0.38656 0.15771 1.01466 0.0
C588 C 0.3726 0.14491 0.95655 0.0
C589 C 0.35751 0.13418 0.99897 0.0
H590 H 0.64277 0.65675 0.19664 0.0
H591 H 0.59068 0.61557 0.16483 0.0
H592 H 0.59229 0.61258 0.99525 0.0
H593 H 0.62911 0.68437 0.99505 0.0
H594 H 0.65417 0.68675 0.95873 0.0
H595 H 0.65047 0.68476 0.08016 0.0
H596 H 0.674 0.65288 0.08428 0.0
H597 H 0.67795 0.6549 0.96308 0.0
H598 H 0.66895 0.63079 1.00097 0.0
H599 H 0.59744 0.61508 0.83089 0.0
H600 H 0.60733 0.62167 0.67532 0.0
H601 H 0.65613 0.66165 0.80198 0.0
C602 C 0.63204 0.64679 0.15374 0.0
C603 C 0.61662 0.63628 0.19437 0.0
C604 C 0.6026 0.62376 0.1357 0.0
C605 C 0.60336 0.62193 0.03894 0.0
C606 C 0.61824 0.6328 1.00051 0.0
C607 C 0.63247 0.64489 0.05528 0.0
C608 C 0.64632 0.65539 0.9933 0.0
C609 C 0.64493 0.67923 1.0077 0.0
C610 C 0.6681 0.64805 1.0115 0.0
C611 C 0.63738 0.64742 0.89607 0.0
C612 C 0.62122 0.63438 0.90291 0.0
C613 C 0.61015 0.62517 0.82438 0.0
C614 C 0.61584 0.62911 0.73605 0.0
C615 C 0.63244 0.64221 0.72595 0.0
C616 C 0.64332 0.6516 0.80737 0.0
H617 H 0.13547 0.90966 0.58566 0.0
H618 H 0.15046 0.84794 0.4703 0.0
H619 H 0.1537 0.83566 0.62859 0.0
H620 H 0.16889 0.91039 0.79509 0.0
H621 H 0.15173 0.92353 0.86974 0.0
H622 H 0.15032 0.92782 0.74739 0.0
H623 H 0.11283 0.91681 0.73066 0.0
H624 H 0.11416 0.91259 0.85312 0.0
H625 H 0.10568 0.8919 0.76751 0.0
H626 H 0.15719 0.83034 0.79589 0.0
H627 H 0.15856 0.83095 0.96594 0.0
H628 H 0.13932 0.89552 0.98129 0.0
C629 C 0.13935 0.89355 0.59409 0.0
C630 C 0.14273 0.87968 0.51563 0.0
C631 C 0.14772 0.85874 0.5291 0.0
C632 C 0.14965 0.85166 0.61885 0.0
C633 C 0.14633 0.86566 0.69466 0.0
C634 C 0.14109 0.88611 0.68374 0.0
C635 C 0.13819 0.89768 0.7781 0.0
C636 C 0.15318 0.91593 0.79877 0.0
C637 C 0.11642 0.90518 0.78258 0.0
C638 C 0.14286 0.88051 0.84352 0.0
C639 C 0.14764 0.8623 0.79304 0.0
C640 C 0.15329 0.84442 0.83615 0.0
C641 C 0.15407 0.84501 0.93337 0.0
C642 C 0.14897 0.86327 0.98776 0.0
C643 C 0.14315 0.88129 0.9419 0.0
H644 H 0.83986 0.64063 0.70609 0.0
H645 H 0.89777 0.62077 0.82565 0.0
H646 H 0.91038 0.61777 0.6695 0.0
H647 H 0.83885 0.60699 0.48934 0.0
H648 H 0.82752 0.62629 0.41786 0.0
H649 H 0.8227 0.62657 0.53899 0.0
H650 H 0.83503 0.66493 0.56285 0.0
H651 H 0.83999 0.66437 0.44167 0.0
H652 H 0.85974 0.67147 0.53138 0.0
H653 H 0.91706 0.61663 0.50467 0.0
H654 H 0.91857 0.61854 0.33694 0.0
H655 H 0.85661 0.6394 0.31152 0.0
C656 C 0.85519 0.63567 0.699 0.0
C657 C 0.86795 0.63111 0.77879 0.0
C658 C 0.88786 0.62467 0.76648 0.0
C659 C 0.89511 0.62277 0.67765 0.0
C660 C 0.8823 0.62738 0.60076 0.0
C661 C 0.86279 0.6338 0.60984 0.0
C662 C 0.85255 0.63809 0.51432 0.0
C663 C 0.83432 0.6236 0.48869 0.0
C664 C 0.84647 0.66109 0.51248 0.0
C665 C 0.86936 0.63295 0.45044 0.0
C666 C 0.88628 0.62679 0.50304 0.0
C667 C 0.90393 0.62143 0.46281 0.0
C668 C 0.90459 0.62261 0.36676 0.0
C669 C 0.88775 0.62909 0.30984 0.0
C670 C 0.8697 0.63418 0.35242 0.0
H671 H 0.12471 0.09351 0.51074 0.0
H672 H 0.10488 0.15399 0.61865 0.0
H673 H 0.10443 0.16668 0.46127 0.0
H674 H 0.15662 0.11175 0.34512 0.0
H675 H 0.15016 0.09132 0.2553 0.0
H676 H 0.14889 0.08651 0.37605 0.0
H677 H 0.11178 0.07508 0.34399 0.0
H678 H 0.11251 0.0796 0.22254 0.0
H679 H 0.09388 0.09234 0.29006 0.0
H680 H 0.1073 0.17328 0.29458 0.0
H681 H 0.1116 0.17317 0.12653 0.0
H682 H 0.12755 0.10781 0.11922 0.0
C683 C 0.12025 0.10941 0.50096 0.0
C684 C 0.11533 0.12302 0.57774 0.0
C685 C 0.10938 0.1436 0.5619 0.0
C686 C 0.10887 0.15084 0.47235 0.0
C687 C 0.11408 0.1372 0.39847 0.0
C688 C 0.11947 0.11685 0.41129 0.0
C689 C 0.12426 0.10547 0.31921 0.0
C690 C 0.14628 0.09834 0.32423 0.0
C691 C 0.10975 0.08703 0.29238 0.0
C692 C 0.12073 0.12264 0.25281 0.0
C693 C 0.115 0.14082 0.30068 0.0
C694 C 0.11161 0.15909 0.25628 0.0
C695 C 0.11416 0.15887 0.16066 0.0
C696 C 0.11983 0.14047 0.10927 0.0
C697 C 0.12299 0.12204 0.1561 0.0
H698 H 0.63735 0.34362 0.21676 0.0
H699 H 0.61791 0.40374 0.33239 0.0
H700 H 0.61396 0.41609 0.17419 0.0
H701 H 0.66628 0.36409 0.04009 0.0
H702 H 0.6597 0.34317 0.9525 0.0
H703 H 0.66056 0.33854 0.07444 0.0
H704 H 0.62388 0.32485 0.05123 0.0
H705 H 0.62287 0.3296 0.92932 0.0
H706 H 0.60446 0.34112 1.00194 0.0
H707 H 0.61133 0.42194 1.00784 0.0
H708 H 0.6132 0.42306 0.84015 0.0
H709 H 0.63579 0.3597 0.82143 0.0
C710 C 0.63227 0.35939 0.20838 0.0
C711 C 0.62794 0.37281 0.28715 0.0
C712 C 0.62146 0.39331 0.27359 0.0
C713 C 0.61904 0.40039 0.18377 0.0
C714 C 0.6233 0.38683 0.10775 0.0
C715 C 0.63002 0.36685 0.11856 0.0
C716 C 0.63422 0.35596 1.02409 0.0
C717 C 0.65652 0.35009 1.02272 0.0
C718 C 0.62054 0.33674 1.00026 0.0
C719 C 0.6288 0.37301 0.95867 0.0
C720 C 0.62235 0.3905 1.00953 0.0
C721 C 0.61646 0.4084 0.96744 0.0
C722 C 0.61761 0.40881 0.87143 0.0
C723 C 0.62474 0.39153 0.81665 0.0
C724 C 0.63015 0.37313 0.86084 0.0
H725 H 0.37853 0.86601 0.08733 0.0
H726 H 0.3779 0.93368 0.10953 0.0
H727 H 0.37564 0.93377 0.93914 0.0
H728 H 0.40992 0.86148 0.89326 0.0
H729 H 0.39722 0.83874 0.83559 0.0
H730 H 0.39769 0.84346 0.96056 0.0
H731 H 0.35883 0.84164 0.95012 0.0
H732 H 0.35823 0.8369 0.82509 0.0
H733 H 0.34444 0.85838 0.87562 0.0
H734 H 0.37315 0.92738 0.76806 0.0
H735 H 0.37264 0.91441 0.60267 0.0
H736 H 0.37693 0.85095 0.68296 0.0
C737 C 0.37777 0.88077 0.05592 0.0
C738 C 0.37831 0.89984 0.11223 0.0
C739 C 0.37757 0.91885 0.06848 0.0
C740 C 0.37621 0.91912 0.97136 0.0
C741 C 0.37585 0.90023 0.91779 0.0
C742 C 0.37678 0.88136 0.95785 0.0
C743 C 0.37703 0.86346 0.88246 0.0
C744 C 0.39663 0.85105 0.89365 0.0
C745 C 0.35853 0.84926 0.8834 0.0
C746 C 0.37607 0.87532 0.79462 0.0
C747 C 0.3752 0.89651 0.81728 0.0
C748 C 0.37396 0.91082 0.7493 0.0
C749 C 0.37372 0.90334 0.6554 0.0
C750 C 0.37498 0.88179 0.62984 0.0
C751 C 0.37609 0.86756 0.70055 0.0
H752 H 0.16694 0.69156 0.19286 0.0
H753 H 0.10708 0.67789 0.26863 0.0
H754 H 0.10353 0.71434 0.33102 0.0
H755 H 0.18106 0.73246 0.38595 0.0
H756 H 0.19336 0.74832 0.30948 0.0
H757 H 0.19291 0.72036 0.28779 0.0
H758 H 0.17682 0.72396 0.12002 0.0
H759 H 0.17727 0.75184 0.14113 0.0
H760 H 0.1539 0.73851 0.10366 0.0
H761 H 0.10493 0.75256 0.37043 0.0
H762 H 0.10992 0.79064 0.36919 0.0
H763 H 0.16781 0.78004 0.25816 0.0
C764 C 0.15336 0.69624 0.22492 0.0
C765 C 0.13737 0.68208 0.22738 0.0
C766 C 0.1195 0.68866 0.26685 0.0
C767 C 0.11742 0.70924 0.30306 0.0
C768 C 0.13327 0.72306 0.29813 0.0
C769 C 0.15084 0.71692 0.25927 0.0
C770 C 0.16432 0.73545 0.25034 0.0
C771 C 0.18408 0.73406 0.3121 0.0
C772 C 0.1683 0.73756 0.14772 0.0
C773 C 0.15129 0.75293 0.28721 0.0
C774 C 0.13369 0.74541 0.31686 0.0
C775 C 0.11876 0.75867 0.34859 0.0
C776 C 0.12169 0.78021 0.3477 0.0
C777 C 0.13921 0.78809 0.31363 0.0
C778 C 0.15434 0.77432 0.28515 0.0
H779 H 0.53208 0.86426 0.39043 0.0
H780 H 0.54579 0.91925 0.57782 0.0
H781 H 0.50936 0.92629 0.58201 0.0
H782 H 0.49051 0.88552 0.25697 0.0
H783 H 0.47594 0.86173 0.24398 0.0
H784 H 0.50297 0.8607 0.25791 0.0
H785 H 0.50109 0.83877 0.40028 0.0
H786 H 0.47404 0.83969 0.38656 0.0
H787 H 0.48725 0.84854 0.49652 0.0
H788 H 0.47115 0.92788 0.5615 0.0
H789 H 0.43464 0.92354 0.52204 0.0
H790 H 0.44551 0.8672 0.34857 0.0
C791 C 0.5274 0.87771 0.43294 0.0
C792 C 0.54184 0.8912 0.48414 0.0
C793 C 0.53506 0.90866 0.53841 0.0
C794 C 0.51437 0.91279 0.54102 0.0
C795 C 0.50054 0.89929 0.48918 0.0
C796 C 0.50678 0.88202 0.43648 0.0
C797 C 0.48886 0.87006 0.38652 0.0
C798 C 0.48962 0.86948 0.28004 0.0
C799 C 0.48775 0.84795 0.41946 0.0
C800 C 0.47154 0.88334 0.41868 0.0
C801 C 0.47861 0.90013 0.47786 0.0
C802 C 0.46549 0.91473 0.51551 0.0
C803 C 0.44469 0.91213 0.49242 0.0
C804 C 0.43697 0.89501 0.43211 0.0
C805 C 0.45075 0.88044 0.39508 0.0
H806 H 0.39974 0.29837 0.62131 0.0
H807 H 0.36023 0.31928 0.83434 0.0
H808 H 0.35378 0.28306 0.86484 0.0
H809 H 0.3702 0.25489 0.52893 0.0
H810 H 0.39098 0.23778 0.50804 0.0
H811 H 0.39422 0.26553 0.50703 0.0
H812 H 0.42404 0.26464 0.6334 0.0
H813 H 0.42093 0.23684 0.63457 0.0
H814 H 0.42047 0.25327 0.74137 0.0
H815 H 0.34928 0.24546 0.86597 0.0
H816 H 0.34745 0.20732 0.83915 0.0
H817 H 0.38986 0.2094 0.62666 0.0
C818 C 0.39 0.29526 0.67523 0.0
C819 C 0.38041 0.31164 0.72496 0.0
C820 C 0.36758 0.307 0.79444 0.0
C821 C 0.36389 0.28646 0.81289 0.0
C822 C 0.37317 0.27066 0.76161 0.0
C823 C 0.38603 0.27467 0.69448 0.0
C824 C 0.39314 0.2545 0.64669 0.0
C825 C 0.38674 0.2531 0.54144 0.0
C826 C 0.41601 0.25218 0.66514 0.0
C827 C 0.38188 0.23871 0.69624 0.0
C828 C 0.37059 0.24849 0.76263 0.0
C829 C 0.35818 0.23752 0.81487 0.0
C830 C 0.35717 0.21587 0.7987 0.0
C831 C 0.3685 0.20541 0.73085 0.0
C832 C 0.38118 0.21699 0.67962 0.0
H833 H 0.95613 0.15445 0.87762 0.0
H834 H 0.94793 0.09021 0.94123 0.0
H835 H 0.98371 0.08369 0.92543 0.0
H836 H 0.99253 0.14409 0.70661 0.0
H837 H 0.00778 0.16686 0.74277 0.0
H838 H 0.98127 0.1671 0.75887 0.0
H839 H 0.98909 0.17729 0.93514 0.0
H840 H 0.01561 0.17719 0.9195 0.0
H841 H 0.00582 0.16136 1.00351 0.0
H842 H 0.01986 0.08318 0.90013 0.0
H843 H 0.0552 0.08911 0.87602 0.0
H844 H 0.04242 0.15398 0.83149 0.0
C845 C 0.96187 0.13904 0.88858 0.0
C846 C 0.94887 0.12286 0.91078 0.0
C847 C 0.95724 0.10296 0.92444 0.0
C848 C 0.97768 0.09903 0.91532 0.0
C849 C 0.98994 0.11512 0.89285 0.0
C850 C 0.98251 0.1348 0.88032 0.0
C851 C 0.9994 0.14923 0.85788 0.0
C852 C 0.99497 0.1573 0.76075 0.0
C853 C 1.00267 0.16734 0.93352 0.0
C854 C 0.01734 0.1345 0.85958 0.0
C855 C 0.01132 0.11491 0.87953 0.0
C856 C 0.02477 0.09848 0.88488 0.0
C857 C 0.04498 0.1021 0.87086 0.0
C858 C 0.05197 0.12207 0.85188 0.0
C859 C 0.03775 0.1385 0.8455 0.0
H860 H 0.1069 0.3094 1.01181 0.0
H861 H 0.15121 0.32335 0.82066 0.0
H862 H 0.14702 0.28774 0.74383 0.0
H863 H 0.12303 0.25778 0.043 0.0
H864 H 0.09802 0.24781 0.05098 0.0
H865 H 0.10378 0.27472 0.08579 0.0
H866 H 0.07457 0.28579 0.97057 0.0
H867 H 0.06895 0.25886 0.93425 0.0
H868 H 0.07409 0.2768 0.84889 0.0
H869 H 0.1384 0.25039 0.69038 0.0
H870 H 0.12936 0.21295 0.67762 0.0
H871 H 0.0912 0.22367 0.9058 0.0
C872 C 0.11566 0.30502 0.9535 0.0
C873 C 0.12933 0.31911 0.92192 0.0
C874 C 0.14074 0.31271 0.8463 0.0
C875 C 0.1383 0.29262 0.80164 0.0
C876 C 0.12448 0.27919 0.83385 0.0
C877 C 0.11356 0.28505 0.90886 0.0
C878 C 0.10073 0.2673 0.93426 0.0
C879 C 0.10676 0.26156 0.0344 0.0
C880 C 0.07825 0.27251 0.92117 0.0
C881 C 0.10633 0.25039 0.86262 0.0
C882 C 0.11978 0.25763 0.80425 0.0
C883 C 0.12778 0.24457 0.73524 0.0
C884 C 0.12249 0.22339 0.72818 0.0
C885 C 0.10954 0.21557 0.79052 0.0
C886 C 0.10093 0.22935 0.85654 0.0
H887 H 0.06881 0.89747 0.25255 0.0
H888 H 0.08119 0.83878 0.10036 0.0
H889 H 0.04502 0.83412 0.0522 0.0
H890 H 0.02329 0.87944 0.34072 0.0
H891 H 0.01035 0.9039 0.3334 0.0
H892 H 0.03738 0.90354 0.35061 0.0
H893 H 0.03974 0.92409 0.20436 0.0
H894 H 0.0127 0.92444 0.18653 0.0
H895 H 0.02734 0.91402 0.09431 0.0
H896 H 0.0074 0.83579 1.01828 0.0
H897 H 0.97078 0.84178 1.01519 0.0
H898 H 0.98157 0.89788 0.19899 0.0
C899 C 0.06388 0.88375 0.20837 0.0
C900 C 0.07797 0.86855 0.1796 0.0
C901 C 0.07079 0.85063 0.12338 0.0
C902 C 0.05023 0.84789 0.09523 0.0
C903 C 0.03674 0.86302 0.12491 0.0
C904 C 0.0432 0.88048 0.18134 0.0
C905 C 0.02528 0.89363 0.20824 0.0
C906 C 0.024 0.89522 0.31455 0.0
C907 C 0.02633 0.91533 0.17114 0.0
C908 C 0.00783 0.88085 0.15814 0.0
C909 C 0.01486 0.86343 0.10928 0.0
C910 C 1.00174 0.84934 0.05663 0.0
C911 C 0.98092 0.85292 0.05497 0.0
C912 C 0.97321 0.87026 0.10673 0.0
C913 C 0.98696 0.88447 0.15856 0.0
H914 H 0.35886 0.71012 0.34254 0.0
H915 H 0.41828 0.69593 0.25546 0.0
H916 H 0.42074 0.73135 0.20039 0.0
H917 H 0.34306 0.74353 0.15032 0.0
H918 H 0.3296 0.76083 0.22715 0.0
H919 H 0.33166 0.73359 0.24725 0.0
H920 H 0.34705 0.74327 0.41615 0.0
H921 H 0.34489 0.77042 0.39677 0.0
H922 H 0.36897 0.75995 0.4344 0.0
H923 H 0.41834 0.76991 0.17669 0.0
H924 H 0.41145 0.80784 0.18946 0.0
H925 H 0.353 0.79539 0.28477 0.0
C926 C 0.37225 0.71437 0.31042 0.0
C927 C 0.38842 0.70053 0.30331 0.0
C928 C 0.40574 0.70649 0.26126 0.0
C929 C 0.4072 0.72647 0.22939 0.0
C930 C 0.39103 0.73996 0.23862 0.0
C931 C 0.37381 0.73403 0.27743 0.0
C932 C 0.3592 0.75176 0.28693 0.0
C933 C 0.33973 0.74715 0.22413 0.0
C934 C 0.35479 0.75664 0.38961 0.0
C935 C 0.37125 0.76893 0.25174 0.0
C936 C 0.38945 0.76187 0.22272 0.0
C937 C 0.40394 0.77553 0.19707 0.0
C938 C 0.39993 0.797 0.20433 0.0
C939 C 0.38168 0.80435 0.2375 0.0
C940 C 0.36696 0.79009 0.25788 0.0
H941 H 0.54308 0.14371 0.67115 0.0
H942 H 0.54521 0.09558 0.44507 0.0
H943 H 0.50784 0.09446 0.42753 0.0
H944 H 0.50222 0.12212 0.77522 0.0
H945 H 0.49148 0.14695 0.80924 0.0
H946 H 0.5181 0.14492 0.79843 0.0
H947 H 0.51604 0.17366 0.6818 0.0
H948 H 0.4894 0.17583 0.69244 0.0
H949 H 0.49868 0.1706 0.5791 0.0
H950 H 0.46947 0.09858 0.43815 0.0
H951 H 0.43474 0.10621 0.47974 0.0
H952 H 0.45829 0.15035 0.70419 0.0
C953 C 0.53572 0.13311 0.61696 0.0
C954 C 0.54714 0.11987 0.55864 0.0
C955 C 0.53684 0.10599 0.48992 0.0
C956 C 0.51559 0.10526 0.47963 0.0
C957 C 0.5048 0.11841 0.53908 0.0
C958 C 0.51461 0.13202 0.60665 0.0
C959 C 0.49976 0.14385 0.66489 0.0
C960 C 0.50309 0.13917 0.76804 0.0
C961 C 0.50105 0.16738 0.65387 0.0
C962 C 0.47997 0.13473 0.62039 0.0
C963 C 0.48311 0.12024 0.54717 0.0
C964 C 0.46696 0.10989 0.49543 0.0
C965 C 0.44724 0.11434 0.51944 0.0
C966 C 0.44374 0.12883 0.59532 0.0
C967 C 0.46042 0.13915 0.64595 0.0
H968 H 0.90552 0.22745 0.96261 0.0
H969 H 0.86058 0.20966 0.73593 0.0
H970 H 0.85344 0.24677 0.71662 0.0
H971 H 0.87884 0.27055 0.06258 0.0
H972 H 0.90063 0.28703 0.09233 0.0
H973 H 0.90319 0.25912 0.08615 0.0
H974 H 0.9299 0.26122 0.96673 0.0
H975 H 0.92749 0.28917 0.9729 0.0
H976 H 0.92391 0.27425 0.86177 0.0
H977 H 0.8495 0.28545 0.72718 0.0
H978 H 0.84989 0.32342 0.7612 0.0
H979 H 0.89795 0.31781 0.97954 0.0
C980 C 0.89439 0.23141 0.90803 0.0
C981 C 0.88365 0.21552 0.85032 0.0
C982 C 0.86906 0.22142 0.78059 0.0
C983 C 0.86487 0.24252 0.76922 0.0
C984 C 0.87545 0.25776 0.82782 0.0
C985 C 0.89004 0.25256 0.89544 0.0
C986 C 0.89886 0.27218 0.95006 0.0
C987 C 0.89516 0.27222 0.05394 0.0
C988 C 0.92138 0.27433 0.93708 0.0
C989 C 0.88677 0.28917 0.90331 0.0
C990 C 0.87336 0.28035 0.83308 0.0
C991 C 0.86005 0.29251 0.78156 0.0
C992 C 0.86035 0.31418 0.80193 0.0
C993 C 0.87394 0.32387 0.87319 0.0
C994 C 0.88747 0.31105 0.92413 0.0
H995 H 0.64897 0.80457 0.41173 0.0
H996 H 0.5913 0.81814 0.52173 0.0
H997 H 0.58594 0.78088 0.53696 0.0
H998 H 0.63335 0.75614 0.27859 0.0
H999 H 0.65674 0.74297 0.30395 0.0
H1000 H 0.65644 0.7709 0.30091 0.0
H1001 H 0.67381 0.7749 0.46845 0.0
H1002 H 0.67415 0.74698 0.47201 0.0
H1003 H 0.6626 0.76291 0.5609 0.0
H1004 H 0.58624 0.74225 0.54108 0.0
H1005 H 0.59224 0.70455 0.53383 0.0
H1006 H 0.64977 0.71425 0.42203 0.0
C1007 C 0.63521 0.79971 0.43896 0.0
C1008 C 0.62059 0.81462 0.46551 0.0
C1009 C 0.60283 0.80735 0.50085 0.0
C1010 C 0.59959 0.78608 0.50985 0.0
C1011 C 0.6142 0.77189 0.48343 0.0
C1012 C 0.63168 0.77831 0.44867 0.0
C1013 C 0.64486 0.75954 0.42578 0.0
C1014 C 0.64803 0.75725 0.32108 0.0
C1015 C 0.66506 0.76119 0.48534 0.0
C1016 C 0.63202 0.74169 0.45313 0.0
C1017 C 0.61439 0.74931 0.48611 0.0
C1018 C 0.6 0.73611 0.51539 0.0
C1019 C 0.60359 0.71458 0.5109 0.0
C1020 C 0.6215 0.70611 0.47742 0.0
C1021 C 0.63593 0.72004 0.44827 0.0
H1022 H 0.90301 0.70595 1.01962 0.0
H1023 H 0.85189 0.69717 0.18155 0.0
H1024 H 0.84998 0.73484 0.21702 0.0
H1025 H 0.9255 0.75004 0.17151 0.0
H1026 H 0.93322 0.764 0.07654 0.0
H1027 H 0.9315 0.73595 0.06451 0.0
H1028 H 0.90738 0.73775 0.91564 0.0
H1029 H 0.90901 0.76578 0.92727 0.0
H1030 H 0.88482 0.75303 0.92071 0.0
H1031 H 0.85219 0.77303 0.23325 0.0
H1032 H 0.85848 0.81041 0.22976 0.0
H1033 H 0.90837 0.79728 0.05891 0.0
C1034 C 0.89154 0.71197 0.06313 0.0
C1035 C 0.87756 0.69823 0.09726 0.0
C1036 C 0.86273 0.707 0.1535 0.0
C1037 C 0.86152 0.72854 0.17458 0.0
C1038 C 0.87522 0.74156 0.13939 0.0
C1039 C 0.89001 0.73377 0.08498 0.0
C1040 C 0.90245 0.75175 0.05516 0.0
C1041 C 0.92448 0.75035 0.09426 0.0
C1042 C 0.90081 0.75209 0.94834 0.0
C1043 C 0.89216 0.77068 0.10081 0.0
C1044 C 0.87654 0.76418 0.14909 0.0
C1045 C 0.86441 0.77832 0.19585 0.0
C1046 C 0.86813 0.79968 0.1931 0.0
C1047 C 0.88392 0.80713 0.14395 0.0
C1048 C 0.89625 0.79226 0.09765 0.0
H1049 H 0.65784 0.19364 0.62726 0.0
H1050 H 0.59711 0.18327 0.70099 0.0
H1051 H 0.59091 0.2211 0.70685 0.0
H1052 H 0.6673 0.24346 0.76507 0.0
H1053 H 0.68051 0.25484 0.67701 0.0
H1054 H 0.68096 0.22705 0.68551 0.0
H1055 H 0.6673 0.22123 0.51223 0.0
H1056 H 0.66684 0.24898 0.50318 0.0
H1057 H 0.64429 0.23368 0.47314 0.0
H1058 H 0.59099 0.26002 0.7052 0.0
H1059 H 0.59625 0.29715 0.68127 0.0
H1060 H 0.65595 0.28314 0.59651 0.0
C1061 C 0.64336 0.19942 0.64578 0.0
C1062 C 0.628 0.18545 0.66469 0.0
C1063 C 0.6091 0.19361 0.68645 0.0
C1064 C 0.60545 0.21512 0.69032 0.0
C1065 C 0.62075 0.22848 0.67075 0.0
C1066 C 0.63926 0.22099 0.64775 0.0
C1067 C 0.65253 0.23876 0.62352 0.0
C1068 C 0.67145 0.24117 0.69186 0.0
C1069 C 0.65806 0.23546 0.52198 0.0
C1070 C 0.63857 0.2573 0.63643 0.0
C1071 C 0.62043 0.25097 0.66513 0.0
C1072 C 0.60512 0.26513 0.68247 0.0
C1073 C 0.60827 0.28625 0.66891 0.0
C1074 C 0.62646 0.29312 0.63691 0.0
C1075 C 0.64186 0.27839 0.62105 0.0
H1076 H 0.96079 0.41748 0.05099 0.0
H1077 H 0.94308 0.35804 0.14224 0.0
H1078 H 0.97861 0.3507 0.19072 0.0
H1079 H 1.00181 0.40083 0.94777 0.0
H1080 H 0.01744 0.42346 0.98125 0.0
H1081 H 0.99058 0.42591 0.97219 0.0
H1082 H 0.99178 0.44191 0.14309 0.0
H1083 H 0.01878 0.43972 0.1525 0.0
H1084 H 1.00423 0.42808 0.2352 0.0
H1085 H 0.01625 0.34698 0.19859 0.0
H1086 H 0.05261 0.3484 0.17506 0.0
H1087 H 0.04536 0.41088 0.08535 0.0
C1088 C 0.96435 0.40326 0.08427 0.0
C1089 C 0.94935 0.38833 0.09326 0.0
C1090 C 0.95446 0.36974 0.13559 0.0
C1091 C 0.97457 0.36546 0.16334 0.0
C1092 C 0.98922 0.38015 0.14987 0.0
C1093 C 0.98428 0.39889 0.11302 0.0
C1094 C 1.00284 0.41115 0.09685 0.0
C1095 C 1.00317 0.41557 0.99341 0.0
C1096 C 1.0045 0.43141 0.16075 0.0
C1097 C 0.01897 0.39591 0.12525 0.0
C1098 C 0.01091 0.3782 0.15679 0.0
C1099 C 0.0228 0.36101 0.17663 0.0
C1100 C 0.04337 0.36188 0.16276 0.0
C1101 C 0.05168 0.37981 0.12942 0.0
C1102 C 0.03941 0.39714 0.11273 0.0
H1103 H 0.45631 0.59675 0.44107 0.0
H1104 H 0.44073 0.65584 0.58102 0.0
H1105 H 0.47636 0.6621 0.63595 0.0
H1106 H 0.4992 0.58363 0.61027 0.0
H1107 H 0.51383 0.57321 0.518 0.0
H1108 H 0.48677 0.57145 0.50422 0.0
H1109 H 0.48654 0.59013 0.35107 0.0
H1110 H 0.51351 0.59188 0.36429 0.0
H1111 H 0.49881 0.61514 0.35267 0.0
H1112 H 0.51362 0.66389 0.66117 0.0
H1113 H 0.55014 0.66234 0.64342 0.0
H1114 H 0.54176 0.60289 0.48188 0.0
C1115 C 0.46041 0.6107 0.4854 0.0
C1116 C 0.44589 0.62575 0.50756 0.0
C1117 C 0.45174 0.64414 0.56335 0.0
C1118 C 0.47188 0.64775 0.59557 0.0
C1119 C 0.48597 0.63284 0.57097 0.0
C1120 C 0.48055 0.61472 0.51675 0.0
C1121 C 0.49888 0.60257 0.49001 0.0
C1122 C 0.49971 0.58146 0.53324 0.0
C1123 C 0.49946 0.59978 0.38321 0.0
C1124 C 0.5154 0.61709 0.5346 0.0
C1125 C 0.50765 0.63419 0.58303 0.0
C1126 C 0.51991 0.65043 0.62468 0.0
C1127 C 0.5406 0.64944 0.61432 0.0
C1128 C 0.54863 0.63249 0.56158 0.0
C1129 C 0.53596 0.61591 0.52343 0.0
H1130 H 0.47769 0.39704 0.66008 0.0
H1131 H 0.45902 0.34284 0.47595 0.0
H1132 H 0.49299 0.34077 0.41891 0.0
H1133 H 0.51048 0.41969 0.49869 0.0
H1134 H 0.5287 0.42896 0.59184 0.0
H1135 H 0.50254 0.42702 0.61315 0.0
H1136 H 0.51188 0.40366 0.74863 0.0
H1137 H 0.53801 0.40558 0.72795 0.0
H1138 H 0.52622 0.38034 0.72665 0.0
H1139 H 0.52983 0.34205 0.39715 0.0
H1140 H 0.56666 0.34771 0.40614 0.0
H1141 H 0.56087 0.40264 0.59476 0.0
C1142 C 0.48073 0.38489 0.607 0.0
C1143 C 0.46587 0.37001 0.57258 0.0
C1144 C 0.47028 0.35434 0.50317 0.0
C1145 C 0.48948 0.35309 0.47024 0.0
C1146 C 0.50392 0.36787 0.50634 0.0
C1147 C 0.49971 0.38362 0.5724 0.0
C1148 C 0.51808 0.3971 0.60222 0.0
C1149 C 0.51475 0.41952 0.57481 0.0
C1150 C 0.52388 0.39662 0.70758 0.0
C1151 C 0.53347 0.38606 0.54496 0.0
C1152 C 0.52497 0.36925 0.48996 0.0
C1153 C 0.53656 0.35546 0.43797 0.0
C1154 C 0.5574 0.35876 0.44343 0.0
C1155 C 0.56631 0.37587 0.49916 0.0
C1156 C 0.55419 0.38988 0.54916 0.0
H1157 H 0.0471 0.59571 0.0519 0.0
H1158 H 0.06411 0.64881 0.90736 0.0
H1159 H 0.02837 0.65426 0.85481 0.0
H1160 H 1.00434 0.57761 0.87836 0.0
H1161 H 0.98975 0.56984 0.96992 0.0
H1162 H 0.01679 0.56836 0.98285 0.0
H1163 H 0.01727 0.59134 0.1388 0.0
H1164 H 0.99034 0.59297 0.12621 0.0
H1165 H 1.00534 0.61648 0.14046 0.0
H1166 H 0.99046 0.65724 0.84164 0.0
H1167 H 0.95396 0.65637 0.86329 0.0
H1168 H 0.96246 0.60027 1.00958 0.0
C1169 C 0.04331 0.60814 1.00711 0.0
C1170 C 0.05817 0.62186 0.98347 0.0
C1171 C 0.05281 0.63807 0.92554 0.0
C1172 C 0.0326 0.64125 0.89533 0.0
C1173 C 0.01813 0.62776 0.92214 0.0
C1174 C 0.02333 0.6113 0.97542 0.0
C1175 C 1.00498 0.6 1.00122 0.0
C1176 C 1.00391 0.57763 0.95531 0.0
C1177 C 1.00446 0.60024 0.10796 0.0
C1178 C 0.98863 0.61333 0.95863 0.0
C1179 C 0.9964 0.62914 0.9122 0.0
C1180 C 0.98416 0.64462 0.87569 0.0
C1181 C 0.96351 0.64406 0.88839 0.0
C1182 C 0.95551 0.62817 0.93731 0.0
C1183 C 0.96817 0.6124 0.97052 0.0
H1184 H 0.16292 0.54399 0.09825 0.0
H1185 H 0.0999 0.5573 0.12801 0.0
H1186 H 0.09278 0.51987 0.13026 0.0
H1187 H 0.15366 0.49852 0.94019 0.0
H1188 H 0.17495 0.48428 0.98658 0.0
H1189 H 0.17566 0.51233 0.99389 0.0
H1190 H 0.18355 0.51302 0.17308 0.0
H1191 H 0.18279 0.48495 0.16632 0.0
H1192 H 0.16692 0.49975 0.24189 0.0
H1193 H 0.09213 0.48186 0.13072 0.0
H1194 H 0.09718 0.44405 0.11255 0.0
H1195 H 0.16017 0.45414 0.07155 0.0
C1196 C 0.1477 0.53893 0.1058 0.0
C1197 C 0.13195 0.55342 0.11315 0.0
C1198 C 0.11214 0.54637 0.12165 0.0
C1199 C 0.10795 0.52518 0.12371 0.0
C1200 C 0.12371 0.51125 0.11604 0.0
C1201 C 0.14314 0.51768 0.10596 0.0
C1202 C 0.15691 0.49914 0.093 0.0
C1203 C 0.16581 0.49854 0.99774 0.0
C1204 C 0.17352 0.49923 0.17338 0.0
C1205 C 0.14209 0.48141 0.09694 0.0
C1206 C 0.12314 0.48887 0.11194 0.0
C1207 C 0.10688 0.47574 0.11884 0.0
C1208 C 0.10994 0.45428 0.10875 0.0
C1209 C 0.12907 0.44617 0.09056 0.0
C1210 C 0.14538 0.45993 0.08516 0.0
H1211 H 0.70862 0.86328 0.24317 0.0
H1212 H 0.71839 0.89412 0.5218 0.0
H1213 H 0.75453 0.89639 0.50403 0.0
H1214 H 0.75513 0.83326 0.25166 0.0
H1215 H 0.75996 0.83637 0.13229 0.0
H1216 H 0.73449 0.83658 0.16548 0.0
H1217 H 0.7289 0.87253 0.09911 0.0
H1218 H 0.75434 0.87242 0.06565 0.0
H1219 H 0.74573 0.89383 0.13977 0.0
H1220 H 0.78941 0.89555 0.4604 0.0
H1221 H 0.82172 0.8924 0.39004 0.0
H1222 H 0.79142 0.86289 0.1359 0.0
C1223 C 0.71843 0.87041 0.3003 0.0
C1224 C 0.71053 0.87847 0.38425 0.0
C1225 C 0.72392 0.88782 0.45695 0.0
C1226 C 0.74457 0.88919 0.44766 0.0
C1227 C 0.75192 0.88123 0.36477 0.0
C1228 C 0.73938 0.87207 0.29192 0.0
C1229 C 0.7516 0.86518 0.21 0.0
C1230 C 0.75021 0.84143 0.18861 0.0
C1231 C 0.74473 0.87668 0.1235 0.0
C1232 C 0.7728 0.87192 0.24874 0.0
C1233 C 0.77246 0.88105 0.33844 0.0
C1234 C 0.78989 0.88846 0.39012 0.0
C1235 C 0.80823 0.88658 0.34942 0.0
C1236 C 0.80921 0.87745 0.25743 0.0
C1237 C 0.79118 0.86999 0.20633 0.0
H1238 H 0.41057 0.43977 0.56513 0.0
H1239 H 0.37395 0.44615 0.80114 0.0
H1240 H 0.37058 0.48363 0.78268 0.0
H1241 H 0.43586 0.49227 0.61034 0.0
H1242 H 0.43536 0.49591 0.48746 0.0
H1243 H 0.43743 0.47006 0.52721 0.0
H1244 H 0.40608 0.45853 0.41752 0.0
H1245 H 0.40369 0.48437 0.37853 0.0
H1246 H 0.38287 0.47252 0.42744 0.0
H1247 H 0.36664 0.51854 0.72595 0.0
H1248 H 0.36525 0.55053 0.64185 0.0
H1249 H 0.40544 0.52282 0.44603 0.0
C1250 C 0.40241 0.44922 0.61461 0.0
C1251 C 0.39251 0.44009 0.68442 0.0
C1252 C 0.38158 0.45282 0.74678 0.0
C1253 C 0.37962 0.47414 0.73715 0.0
C1254 C 0.38882 0.48255 0.66534 0.0
C1255 C 0.40028 0.47065 0.60594 0.0
C1256 C 0.40734 0.48344 0.5306 0.0
C1257 C 0.43037 0.48555 0.53948 0.0
C1258 C 0.39952 0.47416 0.43277 0.0
C1259 C 0.39743 0.50408 0.55531 0.0
C1260 C 0.3869 0.50318 0.63354 0.0
C1261 C 0.37521 0.51966 0.66593 0.0
C1262 C 0.37444 0.5377 0.61762 0.0
C1263 C 0.38545 0.53913 0.5387 0.0
C1264 C 0.39712 0.52215 0.5072 0.0
H1265 H 0.81422 0.10144 0.83346 0.0
H1266 H 0.8216 0.16474 0.95789 0.0
H1267 H 0.78473 0.1692 0.9442 0.0
H1268 H 0.77416 0.1135 0.66353 0.0
H1269 H 0.76078 0.08929 0.66748 0.0
H1270 H 0.78763 0.09038 0.69356 0.0
H1271 H 0.7836 0.07576 0.85336 0.0
H1272 H 0.75671 0.07466 0.82781 0.0
H1273 H 0.7674 0.08888 0.9328 0.0
H1274 H 0.7468 0.16684 0.9184 0.0
H1275 H 0.71109 0.15915 0.86809 0.0
H1276 H 0.72766 0.0984 0.748 0.0
C1277 C 0.80802 0.11613 0.85887 0.0
C1278 C 0.82089 0.13268 0.89801 0.0
C1279 C 0.81215 0.15182 0.92812 0.0
C1280 C 0.79116 0.15448 0.92087 0.0
C1281 C 0.77891 0.13797 0.88167 0.0
C1282 C 0.787 0.11924 0.84996 0.0
C1283 C 0.77044 0.10455 0.80486 0.0
C1284 C 0.77343 0.09911 0.70121 0.0
C1285 C 0.76948 0.08479 0.85789 0.0
C1286 C 0.75183 0.11791 0.81639 0.0
C1287 C 0.75708 0.13702 0.8622 0.0
C1288 C 0.74257 0.15195 0.88214 0.0
C1289 C 0.72226 0.14741 0.85351 0.0
C1290 C 0.71646 0.12821 0.80396 0.0
C1291 C 0.73155 0.11324 0.78572 0.0
H1292 H 0.90012 0.5566 1.02362 0.0
H1293 H 0.83823 0.56919 0.9292 0.0
H1294 H 0.8319 0.53166 0.89423 0.0
H1295 H 0.90739 0.51184 0.85518 0.0
H1296 H 0.92192 0.49714 0.93805 0.0
H1297 H 0.92238 0.52522 0.95122 0.0
H1298 H 0.91136 0.52431 0.11877 0.0
H1299 H 0.91082 0.49624 0.10602 0.0
H1300 H 0.88876 0.51037 0.13748 0.0
H1301 H 0.8315 0.49322 0.87082 0.0
H1302 H 0.83656 0.45549 0.86495 0.0
H1303 H 0.89838 0.4654 0.98006 0.0
C1304 C 0.88534 0.55141 0.99442 0.0
C1305 C 0.86968 0.56602 0.97873 0.0
C1306 C 0.85046 0.55847 0.94211 0.0
C1307 C 0.84671 0.5371 0.9217 0.0
C1308 C 0.86223 0.52313 0.93897 0.0
C1309 C 0.88117 0.52983 0.97489 0.0
C1310 C 0.89474 0.51108 0.99048 0.0
C1311 C 0.91267 0.51134 0.93013 0.0
C1312 C 0.90184 0.51047 0.09437 0.0
C1313 C 0.88042 0.49295 0.95768 0.0
C1314 C 0.86183 0.50047 0.92772 0.0
C1315 C 0.84601 0.48714 0.89408 0.0
C1316 C 0.8491 0.46557 0.89099 0.0
C1317 C 0.86789 0.45711 0.92191 0.0
C1318 C 0.88381 0.47117 0.95581 0.0
H1319 H 0.18128 0.15385 0.7219 0.0
H1320 H 0.18341 0.1186 0.96722 0.0
H1321 H 0.2204 0.11955 0.97723 0.0
H1322 H 0.22264 0.12754 0.62113 0.0
H1323 H 0.23262 0.15025 0.57467 0.0
H1324 H 0.20617 0.14852 0.59004 0.0
H1325 H 0.20829 0.18348 0.69177 0.0
H1326 H 0.23477 0.18532 0.67671 0.0
H1327 H 0.22623 0.18646 0.79241 0.0
H1328 H 0.257 0.12339 0.96086 0.0
H1329 H 0.29123 0.12799 0.913 0.0
H1330 H 0.26694 0.15926 0.67287 0.0
C1331 C 0.18959 0.14663 0.77838 0.0
C1332 C 0.17935 0.13627 0.84433 0.0
C1333 C 0.19082 0.12661 0.91593 0.0
C1334 C 0.21189 0.12713 0.92246 0.0
C1335 C 0.22155 0.13718 0.85621 0.0
C1336 C 0.21087 0.14665 0.785 0.0
C1337 C 0.22524 0.15523 0.71993 0.0
C1338 C 0.22144 0.14476 0.62055 0.0
C1339 C 0.22353 0.17904 0.72024 0.0
C1340 C 0.24555 0.14895 0.7655 0.0
C1341 C 0.24294 0.13879 0.84475 0.0
C1342 C 0.25922 0.13134 0.89897 0.0
C1343 C 0.27867 0.13406 0.87121 0.0
C1344 C 0.28188 0.14399 0.7893 0.0
C1345 C 0.26502 0.15168 0.73608 0.0
H1346 H 0.60809 0.56647 0.51248 0.0
H1347 H 0.66106 0.57402 0.36202 0.0
H1348 H 0.66552 0.53586 0.34932 0.0
H1349 H 0.62747 0.52494 0.64532 0.0
H1350 H 0.60375 0.51132 0.64084 0.0
H1351 H 0.60424 0.53916 0.635 0.0
H1352 H 0.58175 0.53538 0.47962 0.0
H1353 H 0.58122 0.5075 0.48487 0.0
H1354 H 0.58958 0.5186 0.38351 0.0
H1355 H 0.66458 0.49645 0.35474 0.0
H1356 H 0.65891 0.45952 0.38273 0.0
H1357 H 0.60692 0.47725 0.5316 0.0
C1358 C 0.62057 0.56014 0.47624 0.0
C1359 C 0.63417 0.57347 0.4379 0.0
C1360 C 0.65039 0.56434 0.39201 0.0
C1361 C 0.65304 0.54259 0.38425 0.0
C1362 C 0.63942 0.52995 0.42294 0.0
C1363 C 0.62352 0.5384 0.46834 0.0
C1364 C 0.61136 0.52139 0.5062 0.0
C1365 C 0.61174 0.52439 0.61319 0.0
C1366 C 0.58969 0.52068 0.46082 0.0
C1367 C 0.62292 0.50205 0.47538 0.0
C1368 C 0.639 0.50734 0.42695 0.0
C1369 C 0.652 0.49219 0.3924 0.0
C1370 C 0.64864 0.4712 0.40848 0.0
C1371 C 0.63244 0.46539 0.45898 0.0
C1372 C 0.61937 0.48112 0.49219 0.0
H1373 H 0.30033 0.91109 0.33719 0.0
H1374 H 0.31389 0.84546 0.35318 0.0
H1375 H 0.27774 0.83732 0.34513 0.0
H1376 H 0.25618 0.9123 0.47124 0.0
H1377 H 0.24205 0.92951 0.39813 0.0
H1378 H 0.26913 0.93079 0.40916 0.0
H1379 H 0.26956 0.92504 0.22978 0.0
H1380 H 0.24249 0.92376 0.21821 0.0
H1381 H 0.25689 0.90261 0.16897 0.0
H1382 H 0.24068 0.8358 0.33894 0.0
H1383 H 0.20417 0.84033 0.32202 0.0
H1384 H 0.21243 0.90664 0.29828 0.0
C1385 C 0.29563 0.89505 0.33954 0.0
C1386 C 0.3101 0.8789 0.34631 0.0
C1387 C 0.30325 0.85809 0.34777 0.0
C1388 C 0.28269 0.8533 0.34359 0.0
C1389 C 0.26886 0.86941 0.33652 0.0
C1390 C 0.27491 0.88986 0.33336 0.0
C1391 C 0.25658 0.90389 0.3212 0.0
C1392 C 0.25595 0.92008 0.40493 0.0
C1393 C 0.25637 0.91445 0.22905 0.0
C1394 C 0.23939 0.8881 0.31855 0.0
C1395 C 0.24703 0.86838 0.3287 0.0
C1396 C 0.23452 0.85115 0.33057 0.0
C1397 C 0.21367 0.85396 0.32123 0.0
C1398 C 0.20515 0.87386 0.30886 0.0
C1399 C 0.21834 0.8912 0.30734 0.0
H1400 H 0.60334 0.95622 0.4875 0.0
H1401 H 0.66717 0.94254 0.51474 0.0
H1402 H 0.67466 0.97942 0.56059 0.0
H1403 H 0.60908 0.00644 0.38948 0.0
H1404 H 0.58907 0.01875 0.44958 0.0
H1405 H 0.58832 0.99105 0.41968 0.0
H1406 H 0.58501 0.98462 0.59277 0.0
H1407 H 0.58584 0.0123 0.62324 0.0
H1408 H 0.60358 0.99549 0.68105 0.0
H1409 H 0.67574 0.0175 0.60959 0.0
H1410 H 0.67042 0.05497 0.64577 0.0
H1411 H 0.60618 0.0459 0.58059 0.0
C1412 C 0.61888 0.961 0.50283 0.0
C1413 C 0.63463 0.94619 0.49707 0.0
C1414 C 0.65476 0.95333 0.51764 0.0
C1415 C 0.65923 0.97435 0.54438 0.0
C1416 C 0.64348 0.98845 0.54973 0.0
C1417 C 0.62371 0.98221 0.52853 0.0
C1418 C 0.6098 1.00092 0.53788 0.0
C1419 C 0.59839 1.0045 0.44353 0.0
C1420 C 0.59519 0.99816 0.61322 0.0
C1421 C 0.62485 0.0185 0.56812 0.0
C1422 C 0.64417 0.01081 0.57524 0.0
C1423 C 0.66067 0.02372 0.60374 0.0
C1424 C 0.65746 0.04508 0.62463 0.0
C1425 C 0.63789 0.05365 0.61626 0.0
C1426 C 0.62136 0.04001 0.58753 0.0
H1427 H 0.22383 0.36205 0.96772 0.0
H1428 H 0.20137 0.41827 0.84855 0.0
H1429 H 0.2346 0.42467 0.79283 0.0
H1430 H 0.27369 0.38126 0.04392 0.0
H1431 H 0.28598 0.3571 1.01295 0.0
H1432 H 0.26046 0.35686 0.04513 0.0
H1433 H 0.24911 0.33609 0.88854 0.0
H1434 H 0.27461 0.33615 0.85616 0.0
H1435 H 0.25474 0.34621 0.78033 0.0
H1436 H 0.26983 0.42543 0.75196 0.0
H1437 H 0.30506 0.41929 0.71849 0.0
H1438 H 0.30508 0.36214 0.85995 0.0
C1439 C 0.22598 0.37568 0.9299 0.0
C1440 C 0.21016 0.38975 0.91271 0.0
C1441 C 0.21337 0.40735 0.86252 0.0
C1442 C 0.23218 0.41114 0.83081 0.0
C1443 C 0.24755 0.39711 0.84943 0.0
C1444 C 0.24469 0.37963 0.89697 0.0
C1445 C 0.26371 0.36681 0.90514 0.0
C1446 C 0.27141 0.36544 1.00791 0.0
C1447 C 0.26034 0.34503 0.85451 0.0
C1448 C 0.27766 0.3799 0.85508 0.0
C1449 C 0.26799 0.39735 0.82408 0.0
C1450 C 0.27759 0.41182 0.77567 0.0
C1451 C 0.29758 0.40822 0.75718 0.0
C1452 C 0.30769 0.39027 0.78671 0.0
C1453 C 0.29766 0.37602 0.83695 0.0
H1454 H 0.905 0.94069 0.99929 0.0
H1455 H 0.87428 0.94513 0.25392 0.0
H1456 H 0.87064 0.98293 0.24375 0.0
H1457 H 0.93158 0.99148 0.04021 0.0
H1458 H 0.92824 0.99731 0.91965 0.0
H1459 H 0.92983 0.97061 0.94906 0.0
H1460 H 0.89567 0.9625 0.8551 0.0
H1461 H 0.89393 0.98919 0.82571 0.0
H1462 H 0.87398 0.97774 0.88232 0.0
H1463 H 0.86886 0.0199 0.20529 0.0
H1464 H 0.86912 0.05418 0.14032 0.0
H1465 H 0.90029 0.02759 0.90709 0.0
C1466 C 0.89788 0.94974 0.05375 0.0
C1467 C 0.89008 0.93981 0.12813 0.0
C1468 C 0.88041 0.95222 0.1965 0.0
C1469 C 0.87828 0.97379 0.19139 0.0
C1470 C 0.88574 0.98305 0.11692 0.0
C1471 C 0.89538 0.97153 0.04912 0.0
C1472 C 0.90113 0.98556 0.97447 0.0
C1473 C 0.92406 0.98628 0.97064 0.0
C1474 C 0.89054 0.97831 0.87872 0.0
C1475 C 0.89315 0.00662 1.011 0.0
C1476 C 0.88441 1.00466 0.09358 0.0
C1477 C 0.87572 0.02162 0.1408 0.0
C1478 C 0.87591 0.0411 0.10311 0.0
C1479 C 0.88469 0.04373 1.01853 0.0
C1480 C 0.89349 0.02616 0.97197 0.0
H1481 H 0.22517 0.60247 0.33031 0.0
H1482 H 0.22357 0.63758 0.08423 0.0
H1483 H 0.26036 0.63672 0.08895 0.0
H1484 H 0.26889 0.62877 0.44735 0.0
H1485 H 0.2793 0.60593 0.49747 0.0
H1486 H 0.25253 0.60799 0.47263 0.0
H1487 H 0.25225 0.57293 0.37164 0.0
H1488 H 0.27908 0.57088 0.39545 0.0
H1489 H 0.26821 0.56981 0.27657 0.0
H1490 H 0.29641 0.63299 0.11809 0.0
H1491 H 0.33142 0.62974 0.18111 0.0
H1492 H 0.31164 0.5979 0.41288 0.0
C1493 C 0.23266 0.6099 0.27763 0.0
C1494 C 0.22155 0.62002 0.20662 0.0
C1495 C 0.23178 0.62975 0.13922 0.0
C1496 C 0.25268 0.62924 0.14083 0.0
C1497 C 0.26323 0.61905 0.21075 0.0
C1498 C 0.25375 0.60977 0.27883 0.0
C1499 C 0.26913 0.60105 0.34907 0.0
C1500 C 0.26735 0.61157 0.44745 0.0
C1501 C 0.26704 0.57725 0.34809 0.0
C1502 C 0.2886 0.60718 0.31 0.0
C1503 C 0.28463 0.61726 0.22934 0.0
C1504 C 0.29979 0.6251 0.18109 0.0
C1505 C 0.31962 0.62321 0.21762 0.0
C1506 C 0.32419 0.61364 0.30191 0.0
C1507 C 0.30853 0.60504 0.34768 0.0
H1508 H 0.38873 0.97966 0.53746 0.0
H1509 H 0.32572 0.96794 0.45068 0.0
H1510 H 0.31764 1.00394 0.50713 0.0
H1511 H 0.38198 0.01475 0.74458 0.0
H1512 H 0.40245 0.03165 0.72397 0.0
H1513 H 0.40305 1.00435 0.68595 0.0
H1514 H 0.40768 0.01371 0.51725 0.0
H1515 H 0.40709 0.04101 0.55469 0.0
H1516 H 0.38972 0.03048 0.4605 0.0
H1517 H 0.31651 0.04082 0.56849 0.0
H1518 H 0.32243 0.07783 0.61838 0.0
H1519 H 0.38667 0.06664 0.6556 0.0
C1520 C 0.37322 0.98466 0.53181 0.0
C1521 C 0.35775 0.97119 0.49099 0.0
C1522 C 0.33769 0.97818 0.4823 0.0
C1523 C 0.33297 0.99849 0.51447 0.0
C1524 C 0.34858 0.01153 0.55383 0.0
C1525 C 0.36833 1.00502 0.56175 0.0
C1526 C 0.38241 0.0227 0.59948 0.0
C1527 C 0.3931 0.01808 0.69413 0.0
C1528 C 0.39761 0.02724 0.52874 0.0
C1529 C 0.3675 0.04021 0.61035 0.0
C1530 C 0.34805 0.03327 0.58528 0.0
C1531 C 0.33164 0.04647 0.58861 0.0
C1532 C 0.33519 0.06745 0.61733 0.0
C1533 C 0.35503 0.07507 0.64093 0.0
C1534 C 0.37137 0.06123 0.63785 0.0
H1535 H 0.78243 0.65135 0.10969 0.0
H1536 H 0.81236 0.60543 0.27649 0.0
H1537 H 0.78299 0.60407 0.36901 0.0
H1538 H 0.75762 0.67887 0.29356 0.0
H1539 H 0.73466 0.68283 0.22245 0.0
H1540 H 0.75819 0.68063 0.1696 0.0
H1541 H 0.74353 0.65031 0.05539 0.0
H1542 H 0.71993 0.6525 0.10758 0.0
H1543 H 0.73281 0.62791 0.10129 0.0
H1544 H 0.75119 0.60812 0.44534 0.0
H1545 H 0.71722 0.61536 0.49466 0.0
H1546 H 0.70673 0.65736 0.27439 0.0
C1547 C 0.78271 0.64101 0.1656 0.0
C1548 C 0.79967 0.62866 0.18701 0.0
C1549 C 0.79953 0.61515 0.25981 0.0
C1550 C 0.78295 0.61427 0.31269 0.0
C1551 C 0.76653 0.62678 0.29073 0.0
C1552 C 0.7661 0.6397 0.21832 0.0
C1553 C 0.74624 0.65104 0.20809 0.0
C1554 C 0.74938 0.67475 0.22442 0.0
C1555 C 0.73496 0.64508 0.11241 0.0
C1556 C 0.73568 0.64249 0.2863 0.0
C1557 C 0.74777 0.62866 0.3334 0.0
C1558 C 0.74152 0.61885 0.4089 0.0
C1559 C 0.72225 0.6231 0.4365 0.0
C1560 C 0.70947 0.63688 0.38815 0.0
C1561 C 0.71628 0.64676 0.31239 0.0
H1562 H 0.12297 0.02994 0.86442 0.0
H1563 H 0.1399 0.07062 0.11219 0.0
H1564 H 0.14639 0.04011 0.20303 0.0
H1565 H 0.0988 0.99012 0.97431 0.0
H1566 H 0.10854 0.96875 0.90359 0.0
H1567 H 0.10504 0.99381 0.8573 0.0
H1568 H 0.14247 0.99432 0.82145 0.0
H1569 H 0.14602 0.96925 0.86791 0.0
H1570 H 0.16179 0.99102 0.91391 0.0
H1571 H 0.14811 0.006 0.26943 0.0
H1572 H 0.14831 0.96916 0.30628 0.0
H1573 H 0.13435 0.94972 1.01355 0.0
C1574 C 0.12807 0.03228 0.93773 0.0
C1575 C 0.13074 0.0525 0.98221 0.0
C1576 C 0.13768 0.05518 0.07759 0.0
C1577 C 0.14143 0.03798 0.12956 0.0
C1578 C 0.13866 0.01822 0.08415 0.0
C1579 C 0.13248 0.01518 0.99019 0.0
C1580 C 0.13116 0.99215 0.95884 0.0
C1581 C 0.1096 0.98584 0.92133 0.0
C1582 C 0.14626 0.98635 0.88623 0.0
C1583 C 0.13708 0.98284 0.05046 0.0
C1584 C 0.14115 0.99824 0.12177 0.0
C1585 C 0.14538 0.99374 0.21414 0.0
C1586 C 0.14542 0.97287 0.2344 0.0
C1587 C 0.1417 0.95689 0.16236 0.0
C1588 C 0.13772 0.96182 0.06913 0.0
H1589 H 0.69465 0.40808 0.69685 0.0
H1590 H 0.69385 0.35322 0.5026 0.0
H1591 H 0.7309 0.35128 0.52515 0.0
H1592 H 0.74277 0.4305 0.64112 0.0
H1593 H 0.75037 0.43861 0.76125 0.0
H1594 H 0.72406 0.43738 0.7213 0.0
H1595 H 0.7175 0.41285 0.85017 0.0
H1596 H 0.74375 0.414 0.89041 0.0
H1597 H 0.73169 0.38914 0.85781 0.0
H1598 H 0.76737 0.35458 0.5708 0.0
H1599 H 0.80129 0.36056 0.64937 0.0
H1600 H 0.77868 0.4115 0.82542 0.0
C1601 C 0.70244 0.39596 0.65804 0.0
C1602 C 0.69169 0.38095 0.59699 0.0
C1603 C 0.70205 0.36488 0.54908 0.0
C1604 C 0.72301 0.36374 0.56111 0.0
C1605 C 0.73327 0.37861 0.62247 0.0
C1606 C 0.72339 0.39428 0.67111 0.0
C1607 C 0.73791 0.40698 0.73951 0.0
C1608 C 0.73883 0.42972 0.71425 0.0
C1609 C 0.73238 0.40565 0.84044 0.0
C1610 C 0.75739 0.39576 0.72265 0.0
C1611 C 0.75437 0.37976 0.65329 0.0
C1612 C 0.76996 0.36705 0.6252 0.0
C1613 C 0.78915 0.37057 0.67021 0.0
C1614 C 0.79248 0.38639 0.74358 0.0
C1615 C 0.77645 0.39927 0.76958 0.0
loop_
_geom_bond_atom_site_label_1
_geom_bond_atom_site_label_2
_geom_bond_distance
_geom_bond_site_symmetry_2
_ccdc_geom_bond_type
Tb0 O3 2.453 . S
Tb0 O4 2.596 . S
Tb0 O5 2.374 . S
Tb0 O13 2.343 . S
Tb0 O15 2.353 . S
Tb0 O17 2.427 . S
Tb0 O18 2.513 . S
C1 O5 1.251 . S
C1 O7 1.263 . S
Tb2 O4 2.343 . S
Tb2 O7 2.353 . S
Tb2 O10 2.427 . S
Tb2 O11 2.513 . S
Tb2 O12 2.453 1_554 S
Tb2 O13 2.596 . S
Tb2 O14 2.374 . S
O3 Tb0 2.453 . S
O3 C19 1.245 . S
O4 Tb0 2.596 . S
O4 Tb2 2.343 . S
O4 C19 1.259 . S
O5 Tb0 2.374 . S
O5 C1 1.251 . S
C6 O10 1.275 . S
C6 O11 1.246 . S
O7 C1 1.263 . S
O7 Tb2 2.353 . S
C8 O12 1.245 . S
C8 O13 1.259 1_556 S
C9 O14 1.250 . S
C9 O15 1.263 . S
O10 Tb2 2.427 . S
O10 C6 1.275 . S
O11 Tb2 2.513 . S
O11 C6 1.246 . S
O12 Tb2 2.453 1_556 S
O12 C8 1.245 . S
O13 Tb0 2.343 . S
O13 Tb2 2.596 . S
O13 C8 1.259 1_554 S
O14 Tb2 2.374 . S
O14 C9 1.250 . S
O15 Tb0 2.353 . S
O15 C9 1.263 . S
C16 O17 1.275 . S
C16 O18 1.246 . S
O17 Tb0 2.427 . S
O17 C16 1.275 . S
O18 Tb0 2.513 . S
O18 C16 1.246 . S
C19 O3 1.245 . S
C19 O4 1.259 . S
Tb20 O23 2.453 . S
Tb20 O24 2.596 . S
Tb20 O25 2.374 . S
Tb20 O33 2.343 . S
Tb20 O35 2.353 . S
Tb20 O37 2.427 . S
Tb20 O38 2.513 . S
C21 O25 1.251 . S
C21 O27 1.263 . S
Tb22 O24 2.343 . S
Tb22 O27 2.353 . S
Tb22 O30 2.427 . S
Tb22 O31 2.513 . S
Tb22 O32 2.453 . S
Tb22 O33 2.596 . S
Tb22 O34 2.374 . S
O23 Tb20 2.453 . S
O23 C39 1.245 . S
O24 Tb20 2.596 . S
O24 Tb22 2.343 . S
O24 C39 1.259 . S
O25 Tb20 2.374 . S
O25 C21 1.251 . S
C26 O30 1.275 . S
C26 O31 1.246 . S
O27 C21 1.263 . S
O27 Tb22 2.353 . S
C28 O32 1.245 . S
C28 O33 1.259 . S
C29 O34 1.250 . S
C29 O35 1.263 . S
O30 Tb22 2.427 . S
O30 C26 1.275 . S
O31 Tb22 2.513 . S
O31 C26 1.246 . S
O32 Tb22 2.453 . S
O32 C28 1.245 . S
O33 Tb20 2.343 . S
O33 Tb22 2.596 . S
O33 C28 1.259 . S
O34 Tb22 2.374 . S
O34 C29 1.250 . S
O35 Tb20 2.353 . S
O35 C29 1.263 . S
C36 O37 1.275 . S
C36 O38 1.246 . S
O37 Tb20 2.427 . S
O37 C36 1.275 . S
O38 Tb20 2.513 . S
O38 C36 1.246 . S
C39 O23 1.245 . S
C39 O24 1.259 . S
Tb40 O43 2.453 . S
Tb40 O44 2.596 . S
Tb40 O45 2.374 . S
Tb40 O53 2.343 . S
Tb40 O55 2.353 . S
Tb40 O57 2.427 . S
Tb40 O58 2.513 . S
C41 O45 1.251 . S
C41 O47 1.263 . S
Tb42 O44 2.343 . S
Tb42 O47 2.353 . S
Tb42 O50 2.427 . S
Tb42 O51 2.513 . S
Tb42 O52 2.453 . S
Tb42 O53 2.596 . S
Tb42 O54 2.374 . S
O43 Tb40 2.453 . S
O43 C59 1.245 . S
O44 Tb40 2.596 . S
O44 Tb42 2.343 . S
O44 C59 1.259 . S
O45 Tb40 2.374 . S
O45 C41 1.251 . S
C46 O50 1.275 . S
C46 O51 1.246 . S
O47 C41 1.263 . S
O47 Tb42 2.353 . S
C48 O52 1.245 . S
C48 O53 1.259 . S
C49 O54 1.250 . S
C49 O55 1.263 . S
O50 Tb42 2.427 . S
O50 C46 1.275 . S
O51 Tb42 2.513 . S
O51 C46 1.246 . S
O52 Tb42 2.453 . S
O52 C48 1.245 . S
O53 Tb40 2.343 . S
O53 Tb42 2.596 . S
O53 C48 1.259 . S
O54 Tb42 2.374 . S
O54 C49 1.250 . S
O55 Tb40 2.353 . S
O55 C49 1.263 . S
C56 O57 1.275 . S
C56 O58 1.246 . S
O57 Tb40 2.427 . S
O57 C56 1.275 . S
O58 Tb40 2.513 . S
O58 C56 1.246 . S
C59 O43 1.245 . S
C59 O44 1.259 . S
Tb60 O63 2.453 1_556 S
Tb60 O64 2.593 1_556 S
Tb60 O65 2.374 . S
Tb60 O73 2.343 . S
Tb60 O75 2.353 . S
Tb60 O77 2.427 . S
Tb60 O78 2.513 . S
C61 O65 1.251 . S
C61 O67 1.263 . S
Tb62 O64 2.336 1_556 S
Tb62 O67 2.353 . S
Tb62 O70 2.427 . S
Tb62 O71 2.513 . S
Tb62 O72 2.453 . S
Tb62 O73 2.596 . S
Tb62 O74 2.374 . S
O63 Tb60 2.453 1_554 S
O63 C79 1.245 . S
O64 Tb60 2.593 1_554 S
O64 Tb62 2.336 1_554 S
O64 C79 1.267 . S
O65 Tb60 2.374 . S
O65 C61 1.251 . S
C66 O70 1.275 . S
C66 O71 1.246 . S
O67 C61 1.263 . S
O67 Tb62 2.353 . S
C68 O72 1.245 . S
C68 O73 1.259 . S
C69 O74 1.250 . S
C69 O75 1.263 . S
O70 Tb62 2.427 . S
O70 C66 1.275 . S
O71 Tb62 2.513 . S
O71 C66 1.246 . S
O72 Tb62 2.453 . S
O72 C68 1.245 . S
O73 Tb60 2.343 . S
O73 Tb62 2.596 . S
O73 C68 1.259 . S
O74 Tb62 2.374 . S
O74 C69 1.250 . S
O75 Tb60 2.353 . S
O75 C69 1.263 . S
C76 O77 1.275 . S
C76 O78 1.246 . S
O77 Tb60 2.427 . S
O77 C76 1.275 . S
O78 Tb60 2.513 . S
O78 C76 1.246 . S
C79 O63 1.245 . S
C79 O64 1.267 . S
Tb80 O83 2.453 . S
Tb80 O84 2.596 . S
Tb80 O85 2.374 . S
Tb80 O93 2.343 1_556 S
Tb80 O95 2.353 . S
Tb80 O97 2.427 . S
Tb80 O98 2.513 . S
C81 O85 1.251 . S
C81 O87 1.263 . S
Tb82 O84 2.343 . S
Tb82 O87 2.353 . S
Tb82 O90 2.427 . S
Tb82 O91 2.513 . S
Tb82 O92 2.453 1_556 S
Tb82 O93 2.596 1_556 S
Tb82 O94 2.374 . S
O83 Tb80 2.453 . S
O83 C99 1.245 . S
O84 Tb80 2.596 . S
O84 Tb82 2.343 . S
O84 C99 1.259 . S
O85 Tb80 2.374 . S
O85 C81 1.251 . S
C86 O90 1.275 . S
C86 O91 1.246 . S
O87 C81 1.263 . S
O87 Tb82 2.353 . S
C88 O92 1.245 . S
C88 O93 1.259 . S
C89 O94 1.250 . S
C89 O95 1.263 . S
O90 Tb82 2.427 . S
O90 C86 1.275 . S
O91 Tb82 2.513 . S
O91 C86 1.246 . S
O92 Tb82 2.453 1_554 S
O92 C88 1.245 . S
O93 Tb80 2.343 1_554 S
O93 Tb82 2.596 1_554 S
O93 C88 1.259 . S
O94 Tb82 2.374 . S
O94 C89 1.250 . S
O95 Tb80 2.353 . S
O95 C89 1.263 . S
C96 O97 1.275 1_554 S
C96 O98 1.246 1_554 S
O97 Tb80 2.427 . S
O97 C96 1.275 1_556 S
O98 Tb80 2.513 . S
O98 C96 1.246 1_556 S
C99 O83 1.245 . S
C99 O84 1.259 . S
Tb100 O103 2.453 . S
Tb100 O104 2.596 . S
Tb100 O105 2.374 . S
Tb100 O113 2.343 . S
Tb100 O115 2.353 . S
Tb100 O117 2.427 . S
Tb100 O118 2.513 . S
C101 O105 1.251 . S
C101 O107 1.263 . S
Tb102 O104 2.343 . S
Tb102 O107 2.353 . S
Tb102 O110 2.427 . S
Tb102 O111 2.513 . S
Tb102 O112 2.453 1_554 S
Tb102 O113 2.596 . S
Tb102 O114 2.374 . S
O103 Tb100 2.453 . S
O103 C119 1.245 . S
O104 Tb100 2.596 . S
O104 Tb102 2.343 . S
O104 C119 1.259 . S
O105 Tb100 2.374 . S
O105 C101 1.251 . S
C106 O110 1.275 . S
C106 O111 1.246 . S
O107 C101 1.263 . S
O107 Tb102 2.353 . S
C108 O112 1.245 . S
C108 O113 1.259 1_556 S
C109 O114 1.250 . S
C109 O115 1.263 . S
O110 Tb102 2.427 . S
O110 C106 1.275 . S
O111 Tb102 2.513 . S
O111 C106 1.246 . S
O112 Tb102 2.453 1_556 S
O112 C108 1.245 . S
O113 Tb100 2.343 . S
O113 Tb102 2.596 . S
O113 C108 1.259 1_554 S
O114 Tb102 2.374 . S
O114 C109 1.250 . S
O115 Tb100 2.353 . S
O115 C109 1.263 . S
C116 O117 1.275 . S
C116 O118 1.246 . S
O117 Tb100 2.427 . S
O117 C116 1.275 . S
O118 Tb100 2.513 . S
O118 C116 1.246 . S
C119 O103 1.245 . S
C119 O104 1.259 . S
Tb120 O123 2.453 . S
Tb120 O124 2.596 . S
Tb120 O125 2.374 . S
Tb120 O133 2.343 . S
Tb120 O135 2.353 . S
Tb120 O137 2.427 . S
Tb120 O138 2.513 . S
C121 O125 1.251 . S
C121 O127 1.263 . S
Tb122 O124 2.343 . S
Tb122 O127 2.353 . S
Tb122 O130 2.427 . S
Tb122 O131 2.513 . S
Tb122 O132 2.453 . S
Tb122 O133 2.596 . S
Tb122 O134 2.374 . S
O123 Tb120 2.453 . S
O123 C139 1.245 . S
O124 Tb120 2.596 . S
O124 Tb122 2.343 . S
O124 C139 1.259 . S
O125 Tb120 2.374 . S
O125 C121 1.251 . S
C126 O130 1.275 . S
C126 O131 1.246 . S
O127 C121 1.263 . S
O127 Tb122 2.353 . S
C128 O132 1.245 . S
C128 O133 1.259 . S
C129 O134 1.250 . S
C129 O135 1.263 . S
O130 Tb122 2.427 . S
O130 C126 1.275 . S
O131 Tb122 2.513 . S
O131 C126 1.246 . S
O132 Tb122 2.453 . S
O132 C128 1.245 . S
O133 Tb120 2.343 . S
O133 Tb122 2.596 . S
O133 C128 1.259 . S
O134 Tb122 2.374 . S
O134 C129 1.250 . S
O135 Tb120 2.353 . S
O135 C129 1.263 . S
C136 O137 1.275 . S
C136 O138 1.246 . S
O137 Tb120 2.427 . S
O137 C136 1.275 . S
O138 Tb120 2.513 . S
O138 C136 1.246 . S
C139 O123 1.245 . S
C139 O124 1.259 . S
Tb140 O143 2.453 . S
Tb140 O144 2.596 . S
Tb140 O145 2.374 . S
Tb140 O153 2.343 . S
Tb140 O155 2.353 . S
Tb140 O157 2.427 . S
Tb140 O158 2.513 . S
C141 O145 1.251 . S
C141 O147 1.263 . S
Tb142 O144 2.343 . S
Tb142 O147 2.353 . S
Tb142 O150 2.427 . S
Tb142 O151 2.513 . S
Tb142 O152 2.453 . S
Tb142 O153 2.596 . S
Tb142 O154 2.374 . S
O143 Tb140 2.453 . S
O143 C159 1.245 . S
O144 Tb140 2.596 . S
O144 Tb142 2.343 . S
O144 C159 1.259 . S
O145 Tb140 2.374 . S
O145 C141 1.251 . S
C146 O150 1.275 . S
C146 O151 1.246 . S
O147 C141 1.263 . S
O147 Tb142 2.353 . S
C148 O152 1.245 . S
C148 O153 1.259 . S
C149 O154 1.250 . S
C149 O155 1.263 . S
O150 Tb142 2.427 . S
O150 C146 1.275 . S
O151 Tb142 2.513 . S
O151 C146 1.246 . S
O152 Tb142 2.453 . S
O152 C148 1.245 . S
O153 Tb140 2.343 . S
O153 Tb142 2.596 . S
O153 C148 1.259 . S
O154 Tb142 2.374 . S
O154 C149 1.250 . S
O155 Tb140 2.353 . S
O155 C149 1.263 . S
C156 O157 1.275 . S
C156 O158 1.246 . S
O157 Tb140 2.427 . S
O157 C156 1.275 . S
O158 Tb140 2.513 . S
O158 C156 1.246 . S
C159 O143 1.245 . S
C159 O144 1.259 . S
Tb160 O163 2.453 1_556 S
Tb160 O164 2.596 . S
Tb160 O165 2.374 . S
Tb160 O173 2.343 . S
Tb160 O175 2.353 . S
Tb160 O177 2.427 . S
Tb160 O178 2.513 . S
C161 O165 1.251 . S
C161 O167 1.263 . S
Tb162 O164 2.343 . S
Tb162 O167 2.353 . S
Tb162 O170 2.427 . S
Tb162 O171 2.513 . S
Tb162 O172 2.453 . S
Tb162 O173 2.596 . S
Tb162 O174 2.374 . S
O163 Tb160 2.453 1_554 S
O163 C179 1.245 . S
O164 Tb160 2.596 . S
O164 Tb162 2.343 . S
O164 C179 1.259 1_556 S
O165 Tb160 2.374 . S
O165 C161 1.251 . S
C166 O170 1.275 . S
C166 O171 1.246 . S
O167 C161 1.263 . S
O167 Tb162 2.353 . S
C168 O172 1.245 . S
C168 O173 1.259 . S
C169 O174 1.250 . S
C169 O175 1.263 . S
O170 Tb162 2.427 . S
O170 C166 1.275 . S
O171 Tb162 2.513 . S
O171 C166 1.246 . S
O172 Tb162 2.453 . S
O172 C168 1.245 . S
O173 Tb160 2.343 . S
O173 Tb162 2.596 . S
O173 C168 1.259 . S
O174 Tb162 2.374 . S
O174 C169 1.250 . S
O175 Tb160 2.353 . S
O175 C169 1.263 . S
C176 O177 1.275 . S
C176 O178 1.246 . S
O177 Tb160 2.427 . S
O177 C176 1.275 . S
O178 Tb160 2.513 . S
O178 C176 1.246 . S
C179 O163 1.245 . S
C179 O164 1.259 1_554 S
Tb180 O183 2.453 . S
Tb180 O184 2.596 . S
Tb180 O185 2.374 . S
Tb180 O193 2.343 . S
Tb180 O195 2.353 . S
Tb180 O197 2.427 . S
Tb180 O198 2.513 . S
C181 O185 1.251 . S
C181 O187 1.263 . S
Tb182 O184 2.343 . S
Tb182 O187 2.353 . S
Tb182 O190 2.427 . S
Tb182 O191 2.513 . S
Tb182 O192 2.453 . S
Tb182 O193 2.596 . S
Tb182 O194 2.374 . S
O183 Tb180 2.453 . S
O183 C199 1.245 . S
O184 Tb180 2.596 . S
O184 Tb182 2.343 . S
O184 C199 1.259 . S
O185 Tb180 2.374 . S
O185 C181 1.251 . S
C186 O190 1.275 . S
C186 O191 1.246 . S
O187 C181 1.263 . S
O187 Tb182 2.353 . S
C188 O192 1.245 . S
C188 O193 1.259 . S
C189 O194 1.250 . S
C189 O195 1.263 . S
O190 Tb182 2.427 . S
O190 C186 1.275 . S
O191 Tb182 2.513 . S
O191 C186 1.246 . S
O192 Tb182 2.453 . S
O192 C188 1.245 . S
O193 Tb180 2.343 . S
O193 Tb182 2.596 . S
O193 C188 1.259 . S
O194 Tb182 2.374 . S
O194 C189 1.250 . S
O195 Tb180 2.353 . S
O195 C189 1.263 . S
C196 O197 1.275 . S
C196 O198 1.246 . S
O197 Tb180 2.427 . S
O197 C196 1.275 . S
O198 Tb180 2.513 . S
O198 C196 1.246 . S
C199 O183 1.245 . S
C199 O184 1.259 . S
Tb200 O203 2.453 . S
Tb200 O204 2.596 . S
Tb200 O205 2.374 . S
Tb200 O213 2.343 . S
Tb200 O215 2.353 . S
Tb200 O217 2.427 . S
Tb200 O218 2.513 . S
C201 O205 1.251 . S
C201 O207 1.263 . S
Tb202 O204 2.343 . S
Tb202 O207 2.353 . S
Tb202 O210 2.427 . S
Tb202 O211 2.513 . S
Tb202 O212 2.453 . S
Tb202 O213 2.596 . S
Tb202 O214 2.374 . S
O203 Tb200 2.453 . S
O203 C219 1.245 . S
O204 Tb200 2.596 . S
O204 Tb202 2.343 . S
O204 C219 1.259 . S
O205 Tb200 2.374 . S
O205 C201 1.251 . S
C206 O210 1.275 . S
C206 O211 1.246 . S
O207 C201 1.263 . S
O207 Tb202 2.353 . S
C208 O212 1.245 . S
C208 O213 1.259 . S
C209 O214 1.250 . S
C209 O215 1.263 . S
O210 Tb202 2.427 . S
O210 C206 1.275 . S
O211 Tb202 2.513 . S
O211 C206 1.246 . S
O212 Tb202 2.453 . S
O212 C208 1.245 . S
O213 Tb200 2.343 . S
O213 Tb202 2.596 . S
O213 C208 1.259 . S
O214 Tb202 2.374 . S
O214 C209 1.250 . S
O215 Tb200 2.353 . S
O215 C209 1.263 . S
C216 O217 1.275 . S
C216 O218 1.246 . S
O217 Tb200 2.427 . S
O217 C216 1.275 . S
O218 Tb200 2.513 . S
O218 C216 1.246 . S
C219 O203 1.245 . S
C219 O204 1.259 . S
Tb220 O223 2.453 . S
Tb220 O224 2.596 . S
Tb220 O225 2.374 . S
Tb220 O233 2.343 . S
Tb220 O235 2.353 . S
Tb220 O237 2.427 . S
Tb220 O238 2.513 . S
C221 O225 1.251 . S
C221 O227 1.263 . S
Tb222 O224 2.343 . S
Tb222 O227 2.353 . S
Tb222 O230 2.427 . S
Tb222 O231 2.513 . S
Tb222 O232 2.453 1_554 S
Tb222 O233 2.596 . S
Tb222 O234 2.374 . S
O223 Tb220 2.453 . S
O223 C239 1.245 . S
O224 Tb220 2.596 . S
O224 Tb222 2.343 . S
O224 C239 1.259 . S
O225 Tb220 2.374 . S
O225 C221 1.251 . S
C226 O230 1.275 . S
C226 O231 1.246 . S
O227 C221 1.263 . S
O227 Tb222 2.353 . S
C228 O232 1.245 . S
C228 O233 1.259 1_556 S
C229 O234 1.250 . S
C229 O235 1.263 . S
O230 Tb222 2.427 . S
O230 C226 1.275 . S
O231 Tb222 2.513 . S
O231 C226 1.246 . S
O232 Tb222 2.453 1_556 S
O232 C228 1.245 . S
O233 Tb220 2.343 . S
O233 Tb222 2.596 . S
O233 C228 1.259 1_554 S
O234 Tb222 2.374 . S
O234 C229 1.250 . S
O235 Tb220 2.353 . S
O235 C229 1.263 . S
C236 O237 1.275 . S
C236 O238 1.246 . S
O237 Tb220 2.427 . S
O237 C236 1.275 . S
O238 Tb220 2.513 . S
O238 C236 1.246 . S
C239 O223 1.245 . S
C239 O224 1.259 . S
Tb240 O243 2.453 . S
Tb240 O244 2.596 . S
Tb240 O245 2.374 . S
Tb240 O253 2.343 1_556 S
Tb240 O255 2.353 1_556 S
Tb240 O257 2.427 1_556 S
Tb240 O258 2.513 1_556 S
C241 O245 1.251 . S
C241 O247 1.263 1_556 S
Tb242 O244 2.343 1_554 S
Tb242 O247 2.353 . S
Tb242 O250 2.427 1_554 S
Tb242 O251 2.513 1_554 S
Tb242 O252 2.453 . S
Tb242 O253 2.596 . S
Tb242 O254 2.374 . S
O243 Tb240 2.453 . S
O243 C259 1.245 . S
O244 Tb240 2.596 . S
O244 Tb242 2.343 1_556 S
O244 C259 1.259 . S
O245 Tb240 2.374 . S
O245 C241 1.251 . S
C246 O250 1.275 . S
C246 O251 1.246 . S
O247 C241 1.263 1_554 S
O247 Tb242 2.353 . S
C248 O252 1.245 . S
C248 O253 1.259 . S
C249 O254 1.250 . S
C249 O255 1.263 . S
O250 Tb242 2.427 1_556 S
O250 C246 1.275 . S
O251 Tb242 2.513 1_556 S
O251 C246 1.246 . S
O252 Tb242 2.453 . S
O252 C248 1.245 . S
O253 Tb240 2.343 1_554 S
O253 Tb242 2.596 . S
O253 C248 1.259 . S
O254 Tb242 2.374 . S
O254 C249 1.250 . S
O255 Tb240 2.353 1_554 S
O255 C249 1.263 . S
C256 O257 1.275 . S
C256 O258 1.246 . S
O257 Tb240 2.427 1_554 S
O257 C256 1.275 . S
O258 Tb240 2.513 1_554 S
O258 C256 1.246 . S
C259 O243 1.245 . S
C259 O244 1.259 . S
Tb260 O263 2.453 . S
Tb260 O264 2.596 . S
Tb260 O265 2.374 . S
Tb260 O273 2.343 . S
Tb260 O275 2.353 . S
Tb260 O277 2.427 . S
Tb260 O278 2.513 . S
C261 O265 1.251 . S
C261 O267 1.263 . S
Tb262 O264 2.343 . S
Tb262 O267 2.353 . S
Tb262 O270 2.427 . S
Tb262 O271 2.513 . S
Tb262 O272 2.453 1_556 S
Tb262 O273 2.596 . S
Tb262 O274 2.374 . S
O263 Tb260 2.453 . S
O263 C279 1.245 . S
O264 Tb260 2.596 . S
O264 Tb262 2.343 . S
O264 C279 1.259 . S
O265 Tb260 2.374 . S
O265 C261 1.251 . S
C266 O270 1.275 . S
C266 O271 1.246 . S
O267 C261 1.263 . S
O267 Tb262 2.353 . S
C268 O272 1.245 . S
C268 O273 1.259 1_554 S
C269 O274 1.250 . S
C269 O275 1.263 . S
O270 Tb262 2.427 . S
O270 C266 1.275 . S
O271 Tb262 2.513 . S
O271 C266 1.246 . S
O272 Tb262 2.453 1_554 S
O272 C268 1.245 . S
O273 Tb260 2.343 . S
O273 Tb262 2.596 . S
O273 C268 1.259 1_556 S
O274 Tb262 2.374 . S
O274 C269 1.250 . S
O275 Tb260 2.353 . S
O275 C269 1.263 . S
C276 O277 1.275 . S
C276 O278 1.246 . S
O277 Tb260 2.427 . S
O277 C276 1.275 . S
O278 Tb260 2.513 . S
O278 C276 1.246 . S
C279 O263 1.245 . S
C279 O264 1.259 . S
Tb280 O283 2.453 . S
Tb280 O284 2.596 . S
Tb280 O285 2.374 . S
Tb280 O293 2.343 . S
Tb280 O295 2.353 . S
Tb280 O297 2.427 . S
Tb280 O298 2.513 . S
C281 O285 1.251 . S
C281 O287 1.263 . S
Tb282 O284 2.343 . S
Tb282 O287 2.353 . S
Tb282 O290 2.427 . S
Tb282 O291 2.513 . S
Tb282 O292 2.453 . S
Tb282 O293 2.596 . S
Tb282 O294 2.374 . S
O283 Tb280 2.453 . S
O283 C299 1.245 . S
O284 Tb280 2.596 . S
O284 Tb282 2.343 . S
O284 C299 1.259 . S
O285 Tb280 2.374 . S
O285 C281 1.251 . S
C286 O290 1.275 . S
C286 O291 1.246 . S
O287 C281 1.263 . S
O287 Tb282 2.353 . S
C288 O292 1.245 . S
C288 O293 1.259 . S
C289 O294 1.250 . S
C289 O295 1.263 . S
O290 Tb282 2.427 . S
O290 C286 1.275 . S
O291 Tb282 2.513 . S
O291 C286 1.246 . S
O292 Tb282 2.453 . S
O292 C288 1.245 . S
O293 Tb280 2.343 . S
O293 Tb282 2.596 . S
O293 C288 1.259 . S
O294 Tb282 2.374 . S
O294 C289 1.250 . S
O295 Tb280 2.353 . S
O295 C289 1.263 . S
C296 O297 1.275 . S
C296 O298 1.246 . S
O297 Tb280 2.427 . S
O297 C296 1.275 . S
O298 Tb280 2.513 . S
O298 C296 1.246 . S
C299 O283 1.245 . S
C299 O284 1.259 . S
Tb300 O303 2.453 . S
Tb300 O304 2.596 . S
Tb300 O305 2.374 . S
Tb300 O313 2.343 . S
Tb300 O315 2.353 . S
Tb300 O317 2.427 . S
Tb300 O318 2.513 . S
C301 O305 1.251 . S
C301 O307 1.263 . S
Tb302 O304 2.343 . S
Tb302 O307 2.353 . S
Tb302 O310 2.427 . S
Tb302 O311 2.513 . S
Tb302 O312 2.453 . S
Tb302 O313 2.596 . S
Tb302 O314 2.374 . S
O303 Tb300 2.453 . S
O303 C319 1.245 . S
O304 Tb300 2.596 . S
O304 Tb302 2.343 . S
O304 C319 1.259 . S
O305 Tb300 2.374 . S
O305 C301 1.251 . S
C306 O310 1.275 . S
C306 O311 1.246 . S
O307 C301 1.263 . S
O307 Tb302 2.353 . S
C308 O312 1.245 . S
C308 O313 1.259 . S
C309 O314 1.250 . S
C309 O315 1.263 . S
O310 Tb302 2.427 . S
O310 C306 1.275 . S
O311 Tb302 2.513 . S
O311 C306 1.246 . S
O312 Tb302 2.453 . S
O312 C308 1.245 . S
O313 Tb300 2.343 . S
O313 Tb302 2.596 . S
O313 C308 1.259 . S
O314 Tb302 2.374 . S
O314 C309 1.250 . S
O315 Tb300 2.353 . S
O315 C309 1.263 . S
C316 O317 1.275 . S
C316 O318 1.246 . S
O317 Tb300 2.427 . S
O317 C316 1.275 . S
O318 Tb300 2.513 . S
O318 C316 1.246 . S
C319 O303 1.245 . S
C319 O304 1.259 . S
H320 C332 0.930 . S
H321 C334 0.930 . S
H322 C335 0.930 . S
H323 C339 0.959 . S
H324 C339 0.959 . S
H325 C339 0.961 . S
H326 C340 0.960 . S
H327 C340 0.961 . S
H328 C340 0.959 . S
H329 C343 0.929 . S
H330 C344 0.931 . S
H331 C346 0.930 . S
C332 H320 0.930 . S
C332 C333 1.399 . S
C332 C337 1.399 . S
C333 C332 1.399 . S
C333 C334 1.376 . S
C334 H321 0.930 . S
C334 C333 1.376 . S
C334 C335 1.388 . S
C335 H322 0.930 . S
C335 C334 1.388 . S
C335 C336 1.390 . S
C336 C335 1.390 . S
C336 C337 1.394 . S
C336 C342 1.465 . S
C337 C332 1.399 . S
C337 C336 1.394 . S
C337 C338 1.516 . S
C338 C337 1.516 . S
C338 C339 1.502 . S
C338 C340 1.561 . S
C338 C341 1.526 . S
C339 H323 0.959 . S
C339 H324 0.959 . S
C339 H325 0.961 . S
C339 C338 1.502 . S
C340 H326 0.960 . S
C340 H327 0.961 . S
C340 H328 0.959 . S
C340 C338 1.561 . S
C341 C338 1.526 . S
C341 C342 1.396 . S
C341 C346 1.390 . S
C342 C336 1.465 . S
C342 C341 1.396 . S
C342 C343 1.399 . S
C343 H329 0.929 . S
C343 C342 1.399 . S
C343 C344 1.385 . S
C344 H330 0.931 . S
C344 C343 1.385 . S
C344 C345 1.389 . S
C345 C344 1.389 . S
C345 C346 1.387 . S
C346 H331 0.930 . S
C346 C341 1.390 . S
C346 C345 1.387 . S
H347 C359 0.930 . S
H348 C361 0.930 . S
H349 C362 0.930 . S
H350 C366 0.959 . S
H351 C366 0.959 . S
H352 C366 0.961 . S
H353 C367 0.960 . S
H354 C367 0.961 . S
H355 C367 0.959 . S
H356 C370 0.929 . S
H357 C371 0.931 . S
H358 C373 0.930 . S
C359 H347 0.930 . S
C359 C360 1.399 . S
C359 C364 1.399 . S
C360 C359 1.399 . S
C360 C361 1.376 . S
C361 H348 0.930 . S
C361 C360 1.376 . S
C361 C362 1.388 . S
C362 H349 0.930 . S
C362 C361 1.388 . S
C362 C363 1.390 1_554 S
C363 C362 1.390 1_556 S
C363 C364 1.394 1_556 S
C363 C369 1.465 . S
C364 C359 1.399 . S
C364 C363 1.394 1_554 S
C364 C365 1.516 1_554 S
C365 C364 1.516 1_556 S
C365 C366 1.502 . S
C365 C367 1.561 . S
C365 C368 1.526 . S
C366 H350 0.959 . S
C366 H351 0.959 . S
C366 H352 0.961 . S
C366 C365 1.502 . S
C367 H353 0.960 . S
C367 H354 0.961 . S
C367 H355 0.959 . S
C367 C365 1.561 . S
C368 C365 1.526 . S
C368 C369 1.396 . S
C368 C373 1.390 . S
C369 C363 1.465 . S
C369 C368 1.396 . S
C369 C370 1.399 . S
C370 H356 0.929 . S
C370 C369 1.399 . S
C370 C371 1.385 . S
C371 H357 0.931 . S
C371 C370 1.385 . S
C371 C372 1.389 . S
C372 C371 1.389 . S
C372 C373 1.387 . S
C373 H358 0.930 . S
C373 C368 1.390 . S
C373 C372 1.387 . S
H374 C386 0.930 . S
H375 C388 0.930 . S
H376 C389 0.930 . S
H377 C393 0.959 . S
H378 C393 0.959 . S
H379 C393 0.961 . S
H380 C394 0.960 . S
H381 C394 0.961 . S
H382 C394 0.959 . S
H383 C397 0.929 . S
H384 C398 0.931 . S
H385 C400 0.930 . S
C386 H374 0.930 . S
C386 C387 1.399 . S
C386 C391 1.399 . S
C387 C386 1.399 . S
C387 C388 1.376 . S
C388 H375 0.930 . S
C388 C387 1.376 . S
C388 C389 1.388 . S
C389 H376 0.930 . S
C389 C388 1.388 . S
C389 C390 1.390 . S
C390 C389 1.390 . S
C390 C391 1.394 . S
C390 C396 1.465 . S
C391 C386 1.399 . S
C391 C390 1.394 . S
C391 C392 1.516 . S
C392 C391 1.516 . S
C392 C393 1.502 . S
C392 C394 1.561 . S
C392 C395 1.526 . S
C393 H377 0.959 . S
C393 H378 0.959 . S
C393 H379 0.961 . S
C393 C392 1.502 . S
C394 H380 0.960 . S
C394 H381 0.961 . S
C394 H382 0.959 . S
C394 C392 1.561 . S
C395 C392 1.526 . S
C395 C396 1.396 . S
C395 C400 1.390 1_554 S
C396 C390 1.465 . S
C396 C395 1.396 . S
C396 C397 1.399 . S
C397 H383 0.929 . S
C397 C396 1.399 . S
C397 C398 1.385 1_554 S
C398 H384 0.931 . S
C398 C397 1.385 1_556 S
C398 C399 1.389 . S
C399 C398 1.389 . S
C399 C400 1.387 . S
C400 H385 0.930 . S
C400 C395 1.390 1_556 S
C400 C399 1.387 . S
H401 C413 0.930 . S
H402 C415 0.930 . S
H403 C416 0.930 . S
H404 C420 0.959 . S
H405 C420 0.959 . S
H406 C420 0.961 . S
H407 C421 0.960 . S
H408 C421 0.961 . S
H409 C421 0.959 . S
H410 C424 0.929 . S
H411 C425 0.931 . S
H412 C427 0.930 . S
C413 H401 0.930 . S
C413 C414 1.399 . S
C413 C418 1.399 . S
C414 C413 1.399 . S
C414 C415 1.376 . S
C415 H402 0.930 . S
C415 C414 1.376 . S
C415 C416 1.388 . S
C416 H403 0.930 . S
C416 C415 1.388 . S
C416 C417 1.390 . S
C417 C416 1.390 . S
C417 C418 1.394 . S
C417 C423 1.465 . S
C418 C413 1.399 . S
C418 C417 1.394 . S
C418 C419 1.516 . S
C419 C418 1.516 . S
C419 C420 1.502 . S
C419 C421 1.561 . S
C419 C422 1.526 . S
C420 H404 0.959 . S
C420 H405 0.959 . S
C420 H406 0.961 . S
C420 C419 1.502 . S
C421 H407 0.960 . S
C421 H408 0.961 . S
C421 H409 0.959 . S
C421 C419 1.561 . S
C422 C419 1.526 . S
C422 C423 1.396 . S
C422 C427 1.390 . S
C423 C417 1.465 . S
C423 C422 1.396 . S
C423 C424 1.399 . S
C424 H410 0.929 . S
C424 C423 1.399 . S
C424 C425 1.385 . S
C425 H411 0.931 . S
C425 C424 1.385 . S
C425 C426 1.389 . S
C426 C425 1.389 . S
C426 C427 1.387 . S
C427 H412 0.930 . S
C427 C422 1.390 . S
C427 C426 1.387 . S
H428 C440 0.930 . S
H429 C442 0.930 . S
H430 C443 0.930 . S
H431 C447 0.959 . S
H432 C447 0.959 . S
H433 C447 0.961 . S
H434 C448 0.960 . S
H435 C448 0.961 . S
H436 C448 0.959 . S
H437 C451 0.929 . S
H438 C452 0.931 . S
H439 C454 0.930 . S
C440 H428 0.930 . S
C440 C441 1.399 . S
C440 C445 1.399 . S
C441 C440 1.399 . S
C441 C442 1.376 . S
C442 H429 0.930 . S
C442 C441 1.376 . S
C442 C443 1.388 . S
C443 H430 0.930 . S
C443 C442 1.388 . S
C443 C444 1.390 . S
C444 C443 1.390 . S
C444 C445 1.394 . S
C444 C450 1.465 . S
C445 C440 1.399 . S
C445 C444 1.394 . S
C445 C446 1.516 . S
C446 C445 1.516 . S
C446 C447 1.502 . S
C446 C448 1.561 . S
C446 C449 1.526 . S
C447 H431 0.959 . S
C447 H432 0.959 . S
C447 H433 0.961 . S
C447 C446 1.502 . S
C448 H434 0.960 . S
C448 H435 0.961 . S
C448 H436 0.959 . S
C448 C446 1.561 . S
C449 C446 1.526 . S
C449 C450 1.396 . S
C449 C454 1.390 . S
C450 C444 1.465 . S
C450 C449 1.396 . S
C450 C451 1.399 . S
C451 H437 0.929 . S
C451 C450 1.399 . S
C451 C452 1.385 . S
C452 H438 0.931 . S
C452 C451 1.385 . S
C452 C453 1.389 . S
C453 C452 1.389 . S
C453 C454 1.387 . S
C454 H439 0.930 . S
C454 C449 1.390 . S
C454 C453 1.387 . S
H455 C467 0.930 . S
H456 C469 0.930 . S
H457 C470 0.930 . S
H458 C474 0.959 . S
H459 C474 0.959 . S
H460 C474 0.961 . S
H461 C475 0.960 . S
H462 C475 0.961 . S
H463 C475 0.959 . S
H464 C478 0.929 . S
H465 C479 0.931 . S
H466 C481 0.930 . S
C467 H455 0.930 . S
C467 C468 1.399 . S
C467 C472 1.399 . S
C468 C467 1.399 . S
C468 C469 1.376 . S
C469 H456 0.930 . S
C469 C468 1.376 . S
C469 C470 1.388 . S
C470 H457 0.930 . S
C470 C469 1.388 . S
C470 C471 1.390 . S
C471 C470 1.390 . S
C471 C472 1.394 . S
C471 C477 1.465 . S
C472 C467 1.399 . S
C472 C471 1.394 . S
C472 C473 1.516 . S
C473 C472 1.516 . S
C473 C474 1.502 . S
C473 C475 1.561 . S
C473 C476 1.526 . S
C474 H458 0.959 . S
C474 H459 0.959 . S
C474 H460 0.961 . S
C474 C473 1.502 . S
C475 H461 0.960 . S
C475 H462 0.961 . S
C475 H463 0.959 . S
C475 C473 1.561 . S
C476 C473 1.526 . S
C476 C477 1.396 . S
C476 C481 1.390 . S
C477 C471 1.465 . S
C477 C476 1.396 . S
C477 C478 1.399 . S
C478 H464 0.929 . S
C478 C477 1.399 . S
C478 C479 1.385 . S
C479 H465 0.931 . S
C479 C478 1.385 . S
C479 C480 1.389 . S
C480 C479 1.389 . S
C480 C481 1.387 . S
C481 H466 0.930 . S
C481 C476 1.390 . S
C481 C480 1.387 . S
H482 C494 0.930 . S
H483 C496 0.930 . S
H484 C497 0.930 . S
H485 C501 0.959 . S
H486 C501 0.959 . S
H487 C501 0.961 . S
H488 C502 0.960 . S
H489 C502 0.961 . S
H490 C502 0.959 . S
H491 C505 0.929 . S
H492 C506 0.931 . S
H493 C508 0.930 . S
C494 H482 0.930 . S
C494 C495 1.399 . S
C494 C499 1.399 . S
C495 C494 1.399 . S
C495 C496 1.376 . S
C496 H483 0.930 . S
C496 C495 1.376 . S
C496 C497 1.388 . S
C497 H484 0.930 . S
C497 C496 1.388 . S
C497 C498 1.390 . S
C498 C497 1.390 . S
C498 C499 1.394 . S
C498 C504 1.465 . S
C499 C494 1.399 . S
C499 C498 1.394 . S
C499 C500 1.516 . S
C500 C499 1.516 . S
C500 C501 1.502 . S
C500 C502 1.561 . S
C500 C503 1.526 . S
C501 H485 0.959 . S
C501 H486 0.959 . S
C501 H487 0.961 . S
C501 C500 1.502 . S
C502 H488 0.960 . S
C502 H489 0.961 . S
C502 H490 0.959 . S
C502 C500 1.561 . S
C503 C500 1.526 . S
C503 C504 1.396 . S
C503 C508 1.390 1_556 S
C504 C498 1.465 . S
C504 C503 1.396 . S
C504 C505 1.399 1_556 S
C505 H491 0.929 . S
C505 C504 1.399 1_554 S
C505 C506 1.385 . S
C506 H492 0.931 . S
C506 C505 1.385 . S
C506 C507 1.389 . S
C507 C506 1.389 . S
C507 C508 1.387 . S
C508 H493 0.930 . S
C508 C503 1.390 1_554 S
C508 C507 1.387 . S
H509 C521 0.930 . S
H510 C523 0.930 . S
H511 C524 0.930 . S
H512 C528 0.959 . S
H513 C528 0.959 . S
H514 C528 0.961 . S
H515 C529 0.960 . S
H516 C529 0.961 . S
H517 C529 0.959 . S
H518 C532 0.929 . S
H519 C533 0.931 . S
H520 C535 0.930 . S
C521 H509 0.930 . S
C521 C522 1.399 . S
C521 C526 1.399 1_556 S
C522 C521 1.399 . S
C522 C523 1.376 . S
C523 H510 0.930 . S
C523 C522 1.376 . S
C523 C524 1.388 1_556 S
C524 H511 0.930 . S
C524 C523 1.388 1_554 S
C524 C525 1.390 . S
C525 C524 1.390 . S
C525 C526 1.394 . S
C525 C531 1.465 . S
C526 C521 1.399 1_554 S
C526 C525 1.394 . S
C526 C527 1.516 . S
C527 C526 1.516 . S
C527 C528 1.502 . S
C527 C529 1.561 . S
C527 C530 1.526 . S
C528 H512 0.959 . S
C528 H513 0.959 . S
C528 H514 0.961 . S
C528 C527 1.502 . S
C529 H515 0.960 . S
C529 H516 0.961 . S
C529 H517 0.959 . S
C529 C527 1.561 . S
C530 C527 1.526 . S
C530 C531 1.396 . S
C530 C535 1.390 . S
C531 C525 1.465 . S
C531 C530 1.396 . S
C531 C532 1.399 . S
C532 H518 0.929 . S
C532 C531 1.399 . S
C532 C533 1.385 . S
C533 H519 0.931 . S
C533 C532 1.385 . S
C533 C534 1.389 . S
C534 C533 1.389 . S
C534 C535 1.387 . S
C535 H520 0.930 . S
C535 C530 1.390 . S
C535 C534 1.387 . S
H536 C548 0.930 . S
H537 C550 0.930 . S
H538 C551 0.930 . S
H539 C555 0.959 . S
H540 C555 0.959 . S
H541 C555 0.961 . S
H542 C556 0.960 . S
H543 C556 0.961 . S
H544 C556 0.959 . S
H545 C559 0.929 . S
H546 C560 0.931 . S
H547 C562 0.930 . S
C548 H536 0.930 . S
C548 C549 1.399 . S
C548 C553 1.399 . S
C549 C548 1.399 . S
C549 C550 1.376 . S
C550 H537 0.930 . S
C550 C549 1.376 . S
C550 C551 1.388 . S
C551 H538 0.930 . S
C551 C550 1.388 . S
C551 C552 1.390 . S
C552 C551 1.390 . S
C552 C553 1.394 . S
C552 C558 1.465 . S
C553 C548 1.399 . S
C553 C552 1.394 . S
C553 C554 1.516 . S
C554 C553 1.516 . S
C554 C555 1.502 . S
C554 C556 1.561 . S
C554 C557 1.526 . S
C555 H539 0.959 . S
C555 H540 0.959 . S
C555 H541 0.961 . S
C555 C554 1.502 . S
C556 H542 0.960 . S
C556 H543 0.961 . S
C556 H544 0.959 . S
C556 C554 1.561 . S
C557 C554 1.526 . S
C557 C558 1.396 . S
C557 C562 1.390 . S
C558 C552 1.465 . S
C558 C557 1.396 . S
C558 C559 1.399 . S
C559 H545 0.929 . S
C559 C558 1.399 . S
C559 C560 1.385 . S
C560 H546 0.931 . S
C560 C559 1.385 . S
C560 C561 1.389 . S
C561 C560 1.389 . S
C561 C562 1.387 . S
C562 H547 0.930 . S
C562 C557 1.390 . S
C562 C561 1.387 . S
H563 C575 0.930 . S
H564 C577 0.930 . S
H565 C578 0.930 . S
H566 C582 0.959 . S
H567 C582 0.959 . S
H568 C582 0.961 . S
H569 C583 0.960 . S
H570 C583 0.961 . S
H571 C583 0.959 . S
H572 C586 0.929 . S
H573 C587 0.931 . S
H574 C589 0.930 . S
C575 H563 0.930 . S
C575 C576 1.399 . S
C575 C580 1.399 . S
C576 C575 1.399 . S
C576 C577 1.376 . S
C577 H564 0.930 . S
C577 C576 1.376 . S
C577 C578 1.388 . S
C578 H565 0.930 . S
C578 C577 1.388 . S
C578 C579 1.390 . S
C579 C578 1.390 . S
C579 C580 1.394 . S
C579 C585 1.465 . S
C580 C575 1.399 . S
C580 C579 1.394 . S
C580 C581 1.516 . S
C581 C580 1.516 . S
C581 C582 1.502 . S
C581 C583 1.561 . S
C581 C584 1.526 . S
C582 H566 0.959 . S
C582 H567 0.959 . S
C582 H568 0.961 . S
C582 C581 1.502 . S
C583 H569 0.960 . S
C583 H570 0.961 . S
C583 H571 0.959 . S
C583 C581 1.561 . S
C584 C581 1.526 . S
C584 C585 1.396 . S
C584 C589 1.390 1_554 S
C585 C579 1.465 . S
C585 C584 1.396 . S
C585 C586 1.399 . S
C586 H572 0.929 . S
C586 C585 1.399 . S
C586 C587 1.385 1_554 S
C587 H573 0.931 . S
C587 C586 1.385 1_556 S
C587 C588 1.389 . S
C588 C587 1.389 . S
C588 C589 1.387 . S
C589 H574 0.930 . S
C589 C584 1.390 1_556 S
C589 C588 1.387 . S
H590 C602 0.930 . S
H591 C604 0.930 . S
H592 C605 0.930 . S
H593 C609 0.959 . S
H594 C609 0.959 . S
H595 C609 0.961 . S
H596 C610 0.960 . S
H597 C610 0.961 . S
H598 C610 0.959 . S
H599 C613 0.929 . S
H600 C614 0.931 . S
H601 C616 0.930 . S
C602 H590 0.930 . S
C602 C603 1.399 . S
C602 C607 1.399 1_554 S
C603 C602 1.399 . S
C603 C604 1.376 . S
C604 H591 0.930 . S
C604 C603 1.376 . S
C604 C605 1.388 1_554 S
C605 H592 0.930 . S
C605 C604 1.388 1_556 S
C605 C606 1.390 . S
C606 C605 1.390 . S
C606 C607 1.394 . S
C606 C612 1.465 . S
C607 C602 1.399 1_556 S
C607 C606 1.394 . S
C607 C608 1.516 . S
C608 C607 1.516 . S
C608 C609 1.502 . S
C608 C610 1.561 . S
C608 C611 1.526 . S
C609 H593 0.959 . S
C609 H594 0.959 . S
C609 H595 0.961 . S
C609 C608 1.502 . S
C610 H596 0.960 . S
C610 H597 0.961 . S
C610 H598 0.959 . S
C610 C608 1.561 . S
C611 C608 1.526 . S
C611 C612 1.396 . S
C611 C616 1.390 . S
C612 C606 1.465 . S
C612 C611 1.396 . S
C612 C613 1.399 . S
C613 H599 0.929 . S
C613 C612 1.399 . S
C613 C614 1.385 . S
C614 H600 0.931 . S
C614 C613 1.385 . S
C614 C615 1.389 . S
C615 C614 1.389 . S
C615 C616 1.387 . S
C616 H601 0.930 . S
C616 C611 1.390 . S
C616 C615 1.387 . S
H617 C629 0.930 . S
H618 C631 0.930 . S
H619 C632 0.930 . S
H620 C636 0.959 . S
H621 C636 0.959 . S
H622 C636 0.961 . S
H623 C637 0.960 . S
H624 C637 0.961 . S
H625 C637 0.959 . S
H626 C640 0.929 . S
H627 C641 0.931 . S
H628 C643 0.930 . S
C629 H617 0.930 . S
C629 C630 1.399 . S
C629 C634 1.399 . S
C630 C629 1.399 . S
C630 C631 1.376 . S
C631 H618 0.930 . S
C631 C630 1.376 . S
C631 C632 1.388 . S
C632 H619 0.930 . S
C632 C631 1.388 . S
C632 C633 1.390 . S
C633 C632 1.390 . S
C633 C634 1.394 . S
C633 C639 1.465 . S
C634 C629 1.399 . S
C634 C633 1.394 . S
C634 C635 1.516 . S
C635 C634 1.516 . S
C635 C636 1.502 . S
C635 C637 1.561 . S
C635 C638 1.526 . S
C636 H620 0.959 . S
C636 H621 0.959 . S
C636 H622 0.961 . S
C636 C635 1.502 . S
C637 H623 0.960 . S
C637 H624 0.961 . S
C637 H625 0.959 . S
C637 C635 1.561 . S
C638 C635 1.526 . S
C638 C639 1.396 . S
C638 C643 1.390 . S
C639 C633 1.465 . S
C639 C638 1.396 . S
C639 C640 1.399 . S
C640 H626 0.929 . S
C640 C639 1.399 . S
C640 C641 1.385 . S
C641 H627 0.931 . S
C641 C640 1.385 . S
C641 C642 1.389 . S
C642 C641 1.389 . S
C642 C643 1.387 . S
C643 H628 0.930 . S
C643 C638 1.390 . S
C643 C642 1.387 . S
H644 C656 0.930 . S
H645 C658 0.930 . S
H646 C659 0.930 . S
H647 C663 0.959 . S
H648 C663 0.959 . S
H649 C663 0.961 . S
H650 C664 0.960 . S
H651 C664 0.961 . S
H652 C664 0.959 . S
H653 C667 0.929 . S
H654 C668 0.931 . S
H655 C670 0.930 . S
C656 H644 0.930 . S
C656 C657 1.399 . S
C656 C661 1.399 . S
C657 C656 1.399 . S
C657 C658 1.376 . S
C658 H645 0.930 . S
C658 C657 1.376 . S
C658 C659 1.388 . S
C659 H646 0.930 . S
C659 C658 1.388 . S
C659 C660 1.390 . S
C660 C659 1.390 . S
C660 C661 1.394 . S
C660 C666 1.465 . S
C661 C656 1.399 . S
C661 C660 1.394 . S
C661 C662 1.516 . S
C662 C661 1.516 . S
C662 C663 1.502 . S
C662 C664 1.561 . S
C662 C665 1.526 . S
C663 H647 0.959 . S
C663 H648 0.959 . S
C663 H649 0.961 . S
C663 C662 1.502 . S
C664 H650 0.960 . S
C664 H651 0.961 . S
C664 H652 0.959 . S
C664 C662 1.561 . S
C665 C662 1.526 . S
C665 C666 1.396 . S
C665 C670 1.390 . S
C666 C660 1.465 . S
C666 C665 1.396 . S
C666 C667 1.399 . S
C667 H653 0.929 . S
C667 C666 1.399 . S
C667 C668 1.385 . S
C668 H654 0.931 . S
C668 C667 1.385 . S
C668 C669 1.389 . S
C669 C668 1.389 . S
C669 C670 1.387 . S
C670 H655 0.930 . S
C670 C665 1.390 . S
C670 C669 1.387 . S
H671 C683 0.930 . S
H672 C685 0.930 . S
H673 C686 0.930 . S
H674 C690 0.959 . S
H675 C690 0.959 . S
H676 C690 0.961 . S
H677 C691 0.960 . S
H678 C691 0.961 . S
H679 C691 0.959 . S
H680 C694 0.929 . S
H681 C695 0.931 . S
H682 C697 0.930 . S
C683 H671 0.930 . S
C683 C684 1.399 . S
C683 C688 1.399 . S
C684 C683 1.399 . S
C684 C685 1.376 . S
C685 H672 0.930 . S
C685 C684 1.376 . S
C685 C686 1.388 . S
C686 H673 0.930 . S
C686 C685 1.388 . S
C686 C687 1.390 . S
C687 C686 1.390 . S
C687 C688 1.394 . S
C687 C693 1.465 . S
C688 C683 1.399 . S
C688 C687 1.394 . S
C688 C689 1.516 . S
C689 C688 1.516 . S
C689 C690 1.502 . S
C689 C691 1.561 . S
C689 C692 1.526 . S
C690 H674 0.959 . S
C690 H675 0.959 . S
C690 H676 0.961 . S
C690 C689 1.502 . S
C691 H677 0.960 . S
C691 H678 0.961 . S
C691 H679 0.959 . S
C691 C689 1.561 . S
C692 C689 1.526 . S
C692 C693 1.396 . S
C692 C697 1.390 . S
C693 C687 1.465 . S
C693 C692 1.396 . S
C693 C694 1.399 . S
C694 H680 0.929 . S
C694 C693 1.399 . S
C694 C695 1.385 . S
C695 H681 0.931 . S
C695 C694 1.385 . S
C695 C696 1.389 . S
C696 C695 1.389 . S
C696 C697 1.387 . S
C697 H682 0.930 . S
C697 C692 1.390 . S
C697 C696 1.387 . S
H698 C710 0.930 . S
H699 C712 0.930 . S
H700 C713 0.930 . S
H701 C717 0.959 . S
H702 C717 0.959 . S
H703 C717 0.961 . S
H704 C718 0.960 . S
H705 C718 0.961 . S
H706 C718 0.959 . S
H707 C721 0.929 . S
H708 C722 0.931 . S
H709 C724 0.930 . S
C710 H698 0.930 . S
C710 C711 1.399 . S
C710 C715 1.399 . S
C711 C710 1.399 . S
C711 C712 1.376 . S
C712 H699 0.930 . S
C712 C711 1.376 . S
C712 C713 1.388 . S
C713 H700 0.930 . S
C713 C712 1.388 . S
C713 C714 1.390 . S
C714 C713 1.390 . S
C714 C715 1.394 . S
C714 C720 1.465 1_554 S
C715 C710 1.399 . S
C715 C714 1.394 . S
C715 C716 1.516 . S
C716 C715 1.516 . S
C716 C717 1.502 . S
C716 C718 1.561 . S
C716 C719 1.526 1_554 S
C717 H701 0.959 . S
C717 H702 0.959 . S
C717 H703 0.961 . S
C717 C716 1.502 . S
C718 H704 0.960 . S
C718 H705 0.961 . S
C718 H706 0.959 . S
C718 C716 1.561 . S
C719 C716 1.526 1_556 S
C719 C720 1.396 . S
C719 C724 1.390 . S
C720 C714 1.465 1_556 S
C720 C719 1.396 . S
C720 C721 1.399 . S
C721 H707 0.929 . S
C721 C720 1.399 . S
C721 C722 1.385 . S
C722 H708 0.931 . S
C722 C721 1.385 . S
C722 C723 1.389 . S
C723 C722 1.389 . S
C723 C724 1.387 . S
C724 H709 0.930 . S
C724 C719 1.390 . S
C724 C723 1.387 . S
H725 C737 0.930 . S
H726 C739 0.930 . S
H727 C740 0.930 . S
H728 C744 0.959 . S
H729 C744 0.959 . S
H730 C744 0.961 . S
H731 C745 0.960 . S
H732 C745 0.961 . S
H733 C745 0.959 . S
H734 C748 0.929 . S
H735 C749 0.931 . S
H736 C751 0.930 . S
C737 H725 0.930 . S
C737 C738 1.399 . S
C737 C742 1.399 1_554 S
C738 C737 1.399 . S
C738 C739 1.376 . S
C739 H726 0.930 . S
C739 C738 1.376 . S
C739 C740 1.388 . S
C740 H727 0.930 . S
C740 C739 1.388 . S
C740 C741 1.390 1_554 S
C741 C740 1.390 1_556 S
C741 C742 1.394 . S
C741 C747 1.465 . S
C742 C737 1.399 1_556 S
C742 C741 1.394 . S
C742 C743 1.516 . S
C743 C742 1.516 . S
C743 C744 1.502 . S
C743 C745 1.561 . S
C743 C746 1.526 . S
C744 H728 0.959 . S
C744 H729 0.959 . S
C744 H730 0.961 . S
C744 C743 1.502 . S
C745 H731 0.960 . S
C745 H732 0.961 . S
C745 H733 0.959 . S
C745 C743 1.561 . S
C746 C743 1.526 . S
C746 C747 1.396 . S
C746 C751 1.390 . S
C747 C741 1.465 . S
C747 C746 1.396 . S
C747 C748 1.399 . S
C748 H734 0.929 . S
C748 C747 1.399 . S
C748 C749 1.385 . S
C749 H735 0.931 . S
C749 C748 1.385 . S
C749 C750 1.389 . S
C750 C749 1.389 . S
C750 C751 1.387 . S
C751 H736 0.930 . S
C751 C746 1.390 . S
C751 C750 1.387 . S
H752 C764 0.930 . S
H753 C766 0.930 . S
H754 C767 0.930 . S
H755 C771 0.959 . S
H756 C771 0.959 . S
H757 C771 0.961 . S
H758 C772 0.960 . S
H759 C772 0.961 . S
H760 C772 0.959 . S
H761 C775 0.929 . S
H762 C776 0.931 . S
H763 C778 0.930 . S
C764 H752 0.930 . S
C764 C765 1.399 . S
C764 C769 1.399 . S
C765 C764 1.399 . S
C765 C766 1.376 . S
C766 H753 0.930 . S
C766 C765 1.376 . S
C766 C767 1.388 . S
C767 H754 0.930 . S
C767 C766 1.388 . S
C767 C768 1.390 . S
C768 C767 1.390 . S
C768 C769 1.394 . S
C768 C774 1.465 . S
C769 C764 1.399 . S
C769 C768 1.394 . S
C769 C770 1.516 . S
C770 C769 1.516 . S
C770 C771 1.502 . S
C770 C772 1.561 . S
C770 C773 1.526 . S
C771 H755 0.959 . S
C771 H756 0.959 . S
C771 H757 0.961 . S
C771 C770 1.502 . S
C772 H758 0.960 . S
C772 H759 0.961 . S
C772 H760 0.959 . S
C772 C770 1.561 . S
C773 C770 1.526 . S
C773 C774 1.396 . S
C773 C778 1.390 . S
C774 C768 1.465 . S
C774 C773 1.396 . S
C774 C775 1.399 . S
C775 H761 0.929 . S
C775 C774 1.399 . S
C775 C776 1.385 . S
C776 H762 0.931 . S
C776 C775 1.385 . S
C776 C777 1.389 . S
C777 C776 1.389 . S
C777 C778 1.387 . S
C778 H763 0.930 . S
C778 C773 1.390 . S
C778 C777 1.387 . S
H779 C791 0.930 . S
H780 C793 0.930 . S
H781 C794 0.930 . S
H782 C798 0.959 . S
H783 C798 0.959 . S
H784 C798 0.961 . S
H785 C799 0.960 . S
H786 C799 0.961 . S
H787 C799 0.959 . S
H788 C802 0.929 . S
H789 C803 0.931 . S
H790 C805 0.930 . S
C791 H779 0.930 . S
C791 C792 1.399 . S
C791 C796 1.399 . S
C792 C791 1.399 . S
C792 C793 1.376 . S
C793 H780 0.930 . S
C793 C792 1.376 . S
C793 C794 1.388 . S
C794 H781 0.930 . S
C794 C793 1.388 . S
C794 C795 1.390 . S
C795 C794 1.390 . S
C795 C796 1.394 . S
C795 C801 1.465 . S
C796 C791 1.399 . S
C796 C795 1.394 . S
C796 C797 1.516 . S
C797 C796 1.516 . S
C797 C798 1.502 . S
C797 C799 1.561 . S
C797 C800 1.526 . S
C798 H782 0.959 . S
C798 H783 0.959 . S
C798 H784 0.961 . S
C798 C797 1.502 . S
C799 H785 0.960 . S
C799 H786 0.961 . S
C799 H787 0.959 . S
C799 C797 1.561 . S
C800 C797 1.526 . S
C800 C801 1.396 . S
C800 C805 1.390 . S
C801 C795 1.465 . S
C801 C800 1.396 . S
C801 C802 1.399 . S
C802 H788 0.929 . S
C802 C801 1.399 . S
C802 C803 1.385 . S
C803 H789 0.931 . S
C803 C802 1.385 . S
C803 C804 1.389 . S
C804 C803 1.389 . S
C804 C805 1.387 . S
C805 H790 0.930 . S
C805 C800 1.390 . S
C805 C804 1.387 . S
H806 C818 0.930 . S
H807 C820 0.930 . S
H808 C821 0.930 . S
H809 C825 0.959 . S
H810 C825 0.959 . S
H811 C825 0.961 . S
H812 C826 0.960 . S
H813 C826 0.961 . S
H814 C826 0.959 . S
H815 C829 0.929 . S
H816 C830 0.931 . S
H817 C832 0.930 . S
C818 H806 0.930 . S
C818 C819 1.399 . S
C818 C823 1.399 . S
C819 C818 1.399 . S
C819 C820 1.376 . S
C820 H807 0.930 . S
C820 C819 1.376 . S
C820 C821 1.388 . S
C821 H808 0.930 . S
C821 C820 1.388 . S
C821 C822 1.390 . S
C822 C821 1.390 . S
C822 C823 1.394 . S
C822 C828 1.465 . S
C823 C818 1.399 . S
C823 C822 1.394 . S
C823 C824 1.516 . S
C824 C823 1.516 . S
C824 C825 1.502 . S
C824 C826 1.561 . S
C824 C827 1.526 . S
C825 H809 0.959 . S
C825 H810 0.959 . S
C825 H811 0.961 . S
C825 C824 1.502 . S
C826 H812 0.960 . S
C826 H813 0.961 . S
C826 H814 0.959 . S
C826 C824 1.561 . S
C827 C824 1.526 . S
C827 C828 1.396 . S
C827 C832 1.390 . S
C828 C822 1.465 . S
C828 C827 1.396 . S
C828 C829 1.399 . S
C829 H815 0.929 . S
C829 C828 1.399 . S
C829 C830 1.385 . S
C830 H816 0.931 . S
C830 C829 1.385 . S
C830 C831 1.389 . S
C831 C830 1.389 . S
C831 C832 1.387 . S
C832 H817 0.930 . S
C832 C827 1.390 . S
C832 C831 1.387 . S
H833 C845 0.930 . S
H834 C847 0.930 . S
H835 C848 0.930 . S
H836 C852 0.961 1_655 S
H837 C852 0.975 . S
H838 C852 0.943 1_655 S
H839 C853 0.960 1_655 S
H840 C853 0.961 . S
H841 C853 0.959 . S
H842 C856 0.929 . S
H843 C857 0.931 . S
H844 C859 0.930 . S
C845 H833 0.930 . S
C845 C846 1.399 . S
C845 C850 1.399 . S
C846 C845 1.399 . S
C846 C847 1.376 . S
C847 H834 0.930 . S
C847 C846 1.376 . S
C847 C848 1.388 . S
C848 H835 0.930 . S
C848 C847 1.388 . S
C848 C849 1.390 . S
C849 C848 1.390 . S
C849 C850 1.394 . S
C849 C855 1.465 1_655 S
C850 C845 1.399 . S
C850 C849 1.394 . S
C850 C851 1.516 1_655 S
C851 C850 1.516 1_455 S
C851 C852 1.503 . S
C851 C853 1.561 1_556 S
C851 C854 1.526 . S
C852 H836 0.961 1_455 S
C852 H837 0.975 . S
C852 H838 0.943 1_455 S
C852 C851 1.503 . S
C853 H839 0.960 1_455 S
C853 H840 0.961 . S
C853 H841 0.959 . S
C853 C851 1.561 1_554 S
C854 C851 1.526 . S
C854 C855 1.396 . S
C854 C859 1.390 . S
C855 C849 1.465 1_455 S
C855 C854 1.396 . S
C855 C856 1.399 . S
C856 H842 0.929 . S
C856 C855 1.399 . S
C856 C857 1.385 . S
C857 H843 0.931 . S
C857 C856 1.385 . S
C857 C858 1.389 . S
C858 C857 1.389 . S
C858 C859 1.387 . S
C859 H844 0.930 . S
C859 C854 1.390 . S
C859 C858 1.387 . S
H860 C872 0.930 . S
H861 C874 0.930 . S
H862 C875 0.930 . S
H863 C879 0.959 . S
H864 C879 0.959 . S
H865 C879 0.961 . S
H866 C880 0.960 . S
H867 C880 0.961 . S
H868 C880 0.959 . S
H869 C883 0.929 . S
H870 C884 0.931 . S
H871 C886 0.930 . S
C872 H860 0.930 . S
C872 C873 1.399 . S
C872 C877 1.399 . S
C873 C872 1.399 . S
C873 C874 1.376 . S
C874 H861 0.930 . S
C874 C873 1.376 . S
C874 C875 1.388 . S
C875 H862 0.930 . S
C875 C874 1.388 . S
C875 C876 1.390 . S
C876 C875 1.390 . S
C876 C877 1.394 . S
C876 C882 1.465 . S
C877 C872 1.399 . S
C877 C876 1.394 . S
C877 C878 1.516 . S
C878 C877 1.516 . S
C878 C879 1.502 . S
C878 C880 1.561 . S
C878 C881 1.526 . S
C879 H863 0.959 . S
C879 H864 0.959 . S
C879 H865 0.961 . S
C879 C878 1.502 . S
C880 H866 0.960 . S
C880 H867 0.961 . S
C880 H868 0.959 . S
C880 C878 1.561 . S
C881 C878 1.526 . S
C881 C882 1.396 . S
C881 C886 1.390 . S
C882 C876 1.465 . S
C882 C881 1.396 . S
C882 C883 1.399 . S
C883 H869 0.929 . S
C883 C882 1.399 . S
C883 C884 1.385 . S
C884 H870 0.931 . S
C884 C883 1.385 . S
C884 C885 1.389 . S
C885 C884 1.389 . S
C885 C886 1.387 . S
C886 H871 0.930 . S
C886 C881 1.390 . S
C886 C885 1.387 . S
H887 C899 0.930 . S
H888 C901 0.930 . S
H889 C902 0.930 . S
H890 C906 0.959 . S
H891 C906 0.959 . S
H892 C906 0.961 . S
H893 C907 0.960 . S
H894 C907 0.961 . S
H895 C907 0.959 . S
H896 C910 0.929 . S
H897 C911 0.931 . S
H898 C913 0.930 . S
C899 H887 0.930 . S
C899 C900 1.399 . S
C899 C904 1.399 . S
C900 C899 1.399 . S
C900 C901 1.376 . S
C901 H888 0.930 . S
C901 C900 1.376 . S
C901 C902 1.388 . S
C902 H889 0.930 . S
C902 C901 1.388 . S
C902 C903 1.390 . S
C903 C902 1.390 . S
C903 C904 1.394 . S
C903 C909 1.465 . S
C904 C899 1.399 . S
C904 C903 1.394 . S
C904 C905 1.516 . S
C905 C904 1.516 . S
C905 C906 1.502 . S
C905 C907 1.561 1_554 S
C905 C908 1.526 1_455 S
C906 H890 0.959 . S
C906 H891 0.959 . S
C906 H892 0.961 . S
C906 C905 1.502 . S
C907 H893 0.960 . S
C907 H894 0.961 . S
C907 H895 0.959 . S
C907 C905 1.561 1_556 S
C908 C905 1.526 1_655 S
C908 C909 1.396 1_655 S
C908 C913 1.390 . S
C909 C903 1.465 . S
C909 C908 1.396 1_455 S
C909 C910 1.399 1_455 S
C910 H896 0.929 . S
C910 C909 1.399 1_655 S
C910 C911 1.385 . S
C911 H897 0.931 . S
C911 C910 1.385 . S
C911 C912 1.389 . S
C912 C911 1.389 . S
C912 C913 1.387 . S
C913 H898 0.930 . S
C913 C908 1.390 . S
C913 C912 1.387 . S
H914 C926 0.930 . S
H915 C928 0.930 . S
H916 C929 0.930 . S
H917 C933 0.959 . S
H918 C933 0.959 . S
H919 C933 0.961 . S
H920 C934 0.960 . S
H921 C934 0.961 . S
H922 C934 0.959 . S
H923 C937 0.929 . S
H924 C938 0.931 . S
H925 C940 0.930 . S
C926 H914 0.930 . S
C926 C927 1.399 . S
C926 C931 1.399 . S
C927 C926 1.399 . S
C927 C928 1.376 . S
C928 H915 0.930 . S
C928 C927 1.376 . S
C928 C929 1.388 . S
C929 H916 0.930 . S
C929 C928 1.388 . S
C929 C930 1.390 . S
C930 C929 1.390 . S
C930 C931 1.394 . S
C930 C936 1.465 . S
C931 C926 1.399 . S
C931 C930 1.394 . S
C931 C932 1.516 . S
C932 C931 1.516 . S
C932 C933 1.502 . S
C932 C934 1.561 . S
C932 C935 1.526 . S
C933 H917 0.959 . S
C933 H918 0.959 . S
C933 H919 0.961 . S
C933 C932 1.502 . S
C934 H920 0.960 . S
C934 H921 0.961 . S
C934 H922 0.959 . S
C934 C932 1.561 . S
C935 C932 1.526 . S
C935 C936 1.396 . S
C935 C940 1.390 . S
C936 C930 1.465 . S
C936 C935 1.396 . S
C936 C937 1.399 . S
C937 H923 0.929 . S
C937 C936 1.399 . S
C937 C938 1.385 . S
C938 H924 0.931 . S
C938 C937 1.385 . S
C938 C939 1.389 . S
C939 C938 1.389 . S
C939 C940 1.387 . S
C940 H925 0.930 . S
C940 C935 1.390 . S
C940 C939 1.387 . S
H941 C953 0.930 . S
H942 C955 0.930 . S
H943 C956 0.930 . S
H944 C960 0.959 . S
H945 C960 0.959 . S
H946 C960 0.961 . S
H947 C961 0.960 . S
H948 C961 0.961 . S
H949 C961 0.959 . S
H950 C964 0.929 . S
H951 C965 0.931 . S
H952 C967 0.930 . S
C953 H941 0.930 . S
C953 C954 1.399 . S
C953 C958 1.399 . S
C954 C953 1.399 . S
C954 C955 1.376 . S
C955 H942 0.930 . S
C955 C954 1.376 . S
C955 C956 1.388 . S
C956 H943 0.930 . S
C956 C955 1.388 . S
C956 C957 1.390 . S
C957 C956 1.390 . S
C957 C958 1.394 . S
C957 C963 1.465 . S
C958 C953 1.399 . S
C958 C957 1.394 . S
C958 C959 1.516 . S
C959 C958 1.516 . S
C959 C960 1.502 . S
C959 C961 1.561 . S
C959 C962 1.526 . S
C960 H944 0.959 . S
C960 H945 0.959 . S
C960 H946 0.961 . S
C960 C959 1.502 . S
C961 H947 0.960 . S
C961 H948 0.961 . S
C961 H949 0.959 . S
C961 C959 1.561 . S
C962 C959 1.526 . S
C962 C963 1.396 . S
C962 C967 1.390 . S
C963 C957 1.465 . S
C963 C962 1.396 . S
C963 C964 1.399 . S
C964 H950 0.929 . S
C964 C963 1.399 . S
C964 C965 1.385 . S
C965 H951 0.931 . S
C965 C964 1.385 . S
C965 C966 1.389 . S
C966 C965 1.389 . S
C966 C967 1.387 . S
C967 H952 0.930 . S
C967 C962 1.390 . S
C967 C966 1.387 . S
H968 C980 0.930 . S
H969 C982 0.930 . S
H970 C983 0.930 . S
H971 C987 0.959 . S
H972 C987 0.959 . S
H973 C987 0.961 . S
H974 C988 0.960 . S
H975 C988 0.961 . S
H976 C988 0.959 . S
H977 C991 0.929 . S
H978 C992 0.931 . S
H979 C994 0.930 . S
C980 H968 0.930 . S
C980 C981 1.399 . S
C980 C985 1.399 . S
C981 C980 1.399 . S
C981 C982 1.376 . S
C982 H969 0.930 . S
C982 C981 1.376 . S
C982 C983 1.388 . S
C983 H970 0.930 . S
C983 C982 1.388 . S
C983 C984 1.390 . S
C984 C983 1.390 . S
C984 C985 1.394 . S
C984 C990 1.465 . S
C985 C980 1.399 . S
C985 C984 1.394 . S
C985 C986 1.516 . S
C986 C985 1.516 . S
C986 C987 1.502 . S
C986 C988 1.561 . S
C986 C989 1.526 . S
C987 H971 0.959 . S
C987 H972 0.959 . S
C987 H973 0.961 . S
C987 C986 1.502 . S
C988 H974 0.960 . S
C988 H975 0.961 . S
C988 H976 0.959 . S
C988 C986 1.561 . S
C989 C986 1.526 . S
C989 C990 1.396 . S
C989 C994 1.390 . S
C990 C984 1.465 . S
C990 C989 1.396 . S
C990 C991 1.399 . S
C991 H977 0.929 . S
C991 C990 1.399 . S
C991 C992 1.385 . S
C992 H978 0.931 . S
C992 C991 1.385 . S
C992 C993 1.389 . S
C993 C992 1.389 . S
C993 C994 1.387 . S
C994 H979 0.930 . S
C994 C989 1.390 . S
C994 C993 1.387 . S
H995 C1007 0.930 . S
H996 C1009 0.930 . S
H997 C1010 0.930 . S
H998 C1014 0.959 . S
H999 C1014 0.959 . S
H1000 C1014 0.961 . S
H1001 C1015 0.960 . S
H1002 C1015 0.961 . S
H1003 C1015 0.959 . S
H1004 C1018 0.929 . S
H1005 C1019 0.931 . S
H1006 C1021 0.930 . S
C1007 H995 0.930 . S
C1007 C1008 1.399 . S
C1007 C1012 1.399 . S
C1008 C1007 1.399 . S
C1008 C1009 1.376 . S
C1009 H996 0.930 . S
C1009 C1008 1.376 . S
C1009 C1010 1.388 . S
C1010 H997 0.930 . S
C1010 C1009 1.388 . S
C1010 C1011 1.390 . S
C1011 C1010 1.390 . S
C1011 C1012 1.394 . S
C1011 C1017 1.465 . S
C1012 C1007 1.399 . S
C1012 C1011 1.394 . S
C1012 C1013 1.516 . S
C1013 C1012 1.516 . S
C1013 C1014 1.502 . S
C1013 C1015 1.561 . S
C1013 C1016 1.526 . S
C1014 H998 0.959 . S
C1014 H999 0.959 . S
C1014 H1000 0.961 . S
C1014 C1013 1.502 . S
C1015 H1001 0.960 . S
C1015 H1002 0.961 . S
C1015 H1003 0.959 . S
C1015 C1013 1.561 . S
C1016 C1013 1.526 . S
C1016 C1017 1.396 . S
C1016 C1021 1.390 . S
C1017 C1011 1.465 . S
C1017 C1016 1.396 . S
C1017 C1018 1.399 . S
C1018 H1004 0.929 . S
C1018 C1017 1.399 . S
C1018 C1019 1.385 . S
C1019 H1005 0.931 . S
C1019 C1018 1.385 . S
C1019 C1020 1.389 . S
C1020 C1019 1.389 . S
C1020 C1021 1.387 . S
C1021 H1006 0.930 . S
C1021 C1016 1.390 . S
C1021 C1020 1.387 . S
H1022 C1034 0.930 1_556 S
H1023 C1036 0.930 . S
H1024 C1037 0.930 . S
H1025 C1041 0.959 1_554 S
H1026 C1041 0.959 . S
H1027 C1041 0.961 . S
H1028 C1042 0.960 . S
H1029 C1042 0.961 . S
H1030 C1042 0.959 . S
H1031 C1045 0.929 . S
H1032 C1046 0.931 . S
H1033 C1048 0.930 . S
C1034 H1022 0.930 1_554 S
C1034 C1035 1.399 . S
C1034 C1039 1.399 . S
C1035 C1034 1.399 . S
C1035 C1036 1.376 . S
C1036 H1023 0.930 . S
C1036 C1035 1.376 . S
C1036 C1037 1.388 . S
C1037 H1024 0.930 . S
C1037 C1036 1.388 . S
C1037 C1038 1.390 . S
C1038 C1037 1.390 . S
C1038 C1039 1.394 . S
C1038 C1044 1.465 . S
C1039 C1034 1.399 . S
C1039 C1038 1.394 . S
C1039 C1040 1.516 . S
C1040 C1039 1.516 . S
C1040 C1041 1.502 1_554 S
C1040 C1042 1.561 1_554 S
C1040 C1043 1.526 . S
C1041 H1025 0.959 1_556 S
C1041 H1026 0.959 . S
C1041 H1027 0.961 . S
C1041 C1040 1.502 1_556 S
C1042 H1028 0.960 . S
C1042 H1029 0.961 . S
C1042 H1030 0.959 . S
C1042 C1040 1.561 1_556 S
C1043 C1040 1.526 . S
C1043 C1044 1.396 . S
C1043 C1048 1.390 . S
C1044 C1038 1.465 . S
C1044 C1043 1.396 . S
C1044 C1045 1.399 . S
C1045 H1031 0.929 . S
C1045 C1044 1.399 . S
C1045 C1046 1.385 . S
C1046 H1032 0.931 . S
C1046 C1045 1.385 . S
C1046 C1047 1.389 . S
C1047 C1046 1.389 . S
C1047 C1048 1.387 . S
C1048 H1033 0.930 . S
C1048 C1043 1.390 . S
C1048 C1047 1.387 . S
H1049 C1061 0.930 . S
H1050 C1063 0.930 . S
H1051 C1064 0.930 . S
H1052 C1068 0.959 . S
H1053 C1068 0.959 . S
H1054 C1068 0.961 . S
H1055 C1069 0.960 . S
H1056 C1069 0.961 . S
H1057 C1069 0.959 . S
H1058 C1072 0.929 . S
H1059 C1073 0.931 . S
H1060 C1075 0.930 . S
C1061 H1049 0.930 . S
C1061 C1062 1.399 . S
C1061 C1066 1.399 . S
C1062 C1061 1.399 . S
C1062 C1063 1.376 . S
C1063 H1050 0.930 . S
C1063 C1062 1.376 . S
C1063 C1064 1.388 . S
C1064 H1051 0.930 . S
C1064 C1063 1.388 . S
C1064 C1065 1.390 . S
C1065 C1064 1.390 . S
C1065 C1066 1.394 . S
C1065 C1071 1.465 . S
C1066 C1061 1.399 . S
C1066 C1065 1.394 . S
C1066 C1067 1.516 . S
C1067 C1066 1.516 . S
C1067 C1068 1.502 . S
C1067 C1069 1.561 . S
C1067 C1070 1.526 . S
C1068 H1052 0.959 . S
C1068 H1053 0.959 . S
C1068 H1054 0.961 . S
C1068 C1067 1.502 . S
C1069 H1055 0.960 . S
C1069 H1056 0.961 . S
C1069 H1057 0.959 . S
C1069 C1067 1.561 . S
C1070 C1067 1.526 . S
C1070 C1071 1.396 . S
C1070 C1075 1.390 . S
C1071 C1065 1.465 . S
C1071 C1070 1.396 . S
C1071 C1072 1.399 . S
C1072 H1058 0.929 . S
C1072 C1071 1.399 . S
C1072 C1073 1.385 . S
C1073 H1059 0.931 . S
C1073 C1072 1.385 . S
C1073 C1074 1.389 . S
C1074 C1073 1.389 . S
C1074 C1075 1.387 . S
C1075 H1060 0.930 . S
C1075 C1070 1.390 . S
C1075 C1074 1.387 . S
H1076 C1088 0.930 . S
H1077 C1090 0.930 . S
H1078 C1091 0.930 . S
H1079 C1095 0.954 . S
H1080 C1095 0.915 1_455 S
H1081 C1095 1.009 . S
H1082 C1096 0.992 . S
H1083 C1096 0.931 1_455 S
H1084 C1096 0.960 1_455 S
H1085 C1099 0.929 . S
H1086 C1100 0.931 . S
H1087 C1102 0.930 . S
C1088 H1076 0.930 . S
C1088 C1089 1.399 1_556 S
C1088 C1093 1.399 1_556 S
C1089 C1088 1.399 1_554 S
C1089 C1090 1.376 . S
C1090 H1077 0.930 . S
C1090 C1089 1.376 . S
C1090 C1091 1.388 . S
C1091 H1078 0.930 . S
C1091 C1090 1.388 . S
C1091 C1092 1.390 . S
C1092 C1091 1.390 . S
C1092 C1093 1.394 . S
C1092 C1098 1.465 1_655 S
C1093 C1088 1.399 1_554 S
C1093 C1092 1.394 . S
C1093 C1094 1.516 . S
C1094 C1093 1.516 . S
C1094 C1095 1.507 1_554 S
C1094 C1096 1.560 . S
C1094 C1097 1.526 1_655 S
C1095 H1079 0.954 . S
C1095 H1080 0.915 1_655 S
C1095 H1081 1.009 . S
C1095 C1094 1.507 1_556 S
C1096 H1082 0.992 . S
C1096 H1083 0.931 1_655 S
C1096 H1084 0.960 1_655 S
C1096 C1094 1.560 . S
C1097 C1094 1.526 1_455 S
C1097 C1098 1.396 . S
C1097 C1102 1.390 . S
C1098 C1092 1.465 1_455 S
C1098 C1097 1.396 . S
C1098 C1099 1.399 . S
C1099 H1085 0.929 . S
C1099 C1098 1.399 . S
C1099 C1100 1.385 . S
C1100 H1086 0.931 . S
C1100 C1099 1.385 . S
C1100 C1101 1.389 . S
C1101 C1100 1.389 . S
C1101 C1102 1.387 . S
C1102 H1087 0.930 . S
C1102 C1097 1.390 . S
C1102 C1101 1.387 . S
H1103 C1115 0.930 . S
H1104 C1117 0.930 . S
H1105 C1118 0.930 . S
H1106 C1122 0.959 . S
H1107 C1122 0.959 . S
H1108 C1122 0.961 . S
H1109 C1123 0.960 . S
H1110 C1123 0.961 . S
H1111 C1123 0.959 . S
H1112 C1126 0.929 . S
H1113 C1127 0.931 . S
H1114 C1129 0.930 . S
C1115 H1103 0.930 . S
C1115 C1116 1.399 . S
C1115 C1120 1.399 . S
C1116 C1115 1.399 . S
C1116 C1117 1.376 . S
C1117 H1104 0.930 . S
C1117 C1116 1.376 . S
C1117 C1118 1.388 . S
C1118 H1105 0.930 . S
C1118 C1117 1.388 . S
C1118 C1119 1.390 . S
C1119 C1118 1.390 . S
C1119 C1120 1.394 . S
C1119 C1125 1.465 . S
C1120 C1115 1.399 . S
C1120 C1119 1.394 . S
C1120 C1121 1.516 . S
C1121 C1120 1.516 . S
C1121 C1122 1.502 . S
C1121 C1123 1.561 . S
C1121 C1124 1.526 . S
C1122 H1106 0.959 . S
C1122 H1107 0.959 . S
C1122 H1108 0.961 . S
C1122 C1121 1.502 . S
C1123 H1109 0.960 . S
C1123 H1110 0.961 . S
C1123 H1111 0.959 . S
C1123 C1121 1.561 . S
C1124 C1121 1.526 . S
C1124 C1125 1.396 . S
C1124 C1129 1.390 . S
C1125 C1119 1.465 . S
C1125 C1124 1.396 . S
C1125 C1126 1.399 . S
C1126 H1112 0.929 . S
C1126 C1125 1.399 . S
C1126 C1127 1.385 . S
C1127 H1113 0.931 . S
C1127 C1126 1.385 . S
C1127 C1128 1.389 . S
C1128 C1127 1.389 . S
C1128 C1129 1.387 . S
C1129 H1114 0.930 . S
C1129 C1124 1.390 . S
C1129 C1128 1.387 . S
H1130 C1142 0.930 . S
H1131 C1144 0.930 . S
H1132 C1145 0.930 . S
H1133 C1149 0.959 . S
H1134 C1149 0.959 . S
H1135 C1149 0.961 . S
H1136 C1150 0.960 . S
H1137 C1150 0.961 . S
H1138 C1150 0.959 . S
H1139 C1153 0.929 . S
H1140 C1154 0.931 . S
H1141 C1156 0.930 . S
C1142 H1130 0.930 . S
C1142 C1143 1.399 . S
C1142 C1147 1.399 . S
C1143 C1142 1.399 . S
C1143 C1144 1.376 . S
C1144 H1131 0.930 . S
C1144 C1143 1.376 . S
C1144 C1145 1.388 . S
C1145 H1132 0.930 . S
C1145 C1144 1.388 . S
C1145 C1146 1.390 . S
C1146 C1145 1.390 . S
C1146 C1147 1.394 . S
C1146 C1152 1.465 . S
C1147 C1142 1.399 . S
C1147 C1146 1.394 . S
C1147 C1148 1.516 . S
C1148 C1147 1.516 . S
C1148 C1149 1.502 . S
C1148 C1150 1.561 . S
C1148 C1151 1.526 . S
C1149 H1133 0.959 . S
C1149 H1134 0.959 . S
C1149 H1135 0.961 . S
C1149 C1148 1.502 . S
C1150 H1136 0.960 . S
C1150 H1137 0.961 . S
C1150 H1138 0.959 . S
C1150 C1148 1.561 . S
C1151 C1148 1.526 . S
C1151 C1152 1.396 . S
C1151 C1156 1.390 . S
C1152 C1146 1.465 . S
C1152 C1151 1.396 . S
C1152 C1153 1.399 . S
C1153 H1139 0.929 . S
C1153 C1152 1.399 . S
C1153 C1154 1.385 . S
C1154 H1140 0.931 . S
C1154 C1153 1.385 . S
C1154 C1155 1.389 . S
C1155 C1154 1.389 . S
C1155 C1156 1.387 . S
C1156 H1141 0.930 . S
C1156 C1151 1.390 . S
C1156 C1155 1.387 . S
H1157 C1169 0.930 . S
H1158 C1171 0.930 . S
H1159 C1172 0.930 . S
H1160 C1176 0.959 . S
H1161 C1176 0.959 . S
H1162 C1176 0.961 1_455 S
H1163 C1177 0.960 1_455 S
H1164 C1177 0.961 . S
H1165 C1177 0.959 . S
H1166 C1180 0.929 . S
H1167 C1181 0.931 . S
H1168 C1183 0.930 . S
C1169 H1157 0.930 . S
C1169 C1170 1.399 . S
C1169 C1174 1.399 . S
C1170 C1169 1.399 . S
C1170 C1171 1.376 . S
C1171 H1158 0.930 . S
C1171 C1170 1.376 . S
C1171 C1172 1.388 . S
C1172 H1159 0.930 . S
C1172 C1171 1.388 . S
C1172 C1173 1.390 . S
C1173 C1172 1.390 . S
C1173 C1174 1.394 . S
C1173 C1179 1.465 1_455 S
C1174 C1169 1.399 . S
C1174 C1173 1.394 . S
C1174 C1175 1.480 1_455 S
C1175 C1174 1.480 1_655 S
C1175 C1176 1.501 . S
C1175 C1177 1.568 1_556 S
C1175 C1178 1.558 . S
C1176 H1160 0.959 . S
C1176 H1161 0.959 . S
C1176 H1162 0.961 1_655 S
C1176 C1175 1.501 . S
C1177 H1163 0.960 1_655 S
C1177 H1164 0.961 . S
C1177 H1165 0.959 . S
C1177 C1175 1.568 1_554 S
C1178 C1175 1.558 . S
C1178 C1179 1.396 . S
C1178 C1183 1.390 . S
C1179 C1173 1.465 1_655 S
C1179 C1178 1.396 . S
C1179 C1180 1.399 . S
C1180 H1166 0.929 . S
C1180 C1179 1.399 . S
C1180 C1181 1.385 . S
C1181 H1167 0.931 . S
C1181 C1180 1.385 . S
C1181 C1182 1.389 . S
C1182 C1181 1.389 . S
C1182 C1183 1.387 . S
C1183 H1168 0.930 . S
C1183 C1178 1.390 . S
C1183 C1182 1.387 . S
H1184 C1196 0.930 . S
H1185 C1198 0.930 . S
H1186 C1199 0.930 . S
H1187 C1203 0.959 . S
H1188 C1203 0.959 . S
H1189 C1203 0.961 . S
H1190 C1204 0.960 . S
H1191 C1204 0.961 . S
H1192 C1204 0.959 . S
H1193 C1207 0.929 . S
H1194 C1208 0.931 . S
H1195 C1210 0.930 . S
C1196 H1184 0.930 . S
C1196 C1197 1.399 . S
C1196 C1201 1.399 . S
C1197 C1196 1.399 . S
C1197 C1198 1.376 1_554 S
C1198 H1185 0.930 . S
C1198 C1197 1.376 1_556 S
C1198 C1199 1.388 . S
C1199 H1186 0.930 . S
C1199 C1198 1.388 . S
C1199 C1200 1.390 1_556 S
C1200 C1199 1.390 1_554 S
C1200 C1201 1.394 . S
C1200 C1206 1.465 1_554 S
C1201 C1196 1.399 . S
C1201 C1200 1.394 . S
C1201 C1202 1.516 . S
C1202 C1201 1.516 . S
C1202 C1203 1.502 . S
C1202 C1204 1.561 . S
C1202 C1205 1.526 . S
C1203 H1187 0.959 . S
C1203 H1188 0.959 . S
C1203 H1189 0.961 . S
C1203 C1202 1.502 . S
C1204 H1190 0.960 . S
C1204 H1191 0.961 . S
C1204 H1192 0.959 . S
C1204 C1202 1.561 . S
C1205 C1202 1.526 . S
C1205 C1206 1.396 1_554 S
C1205 C1210 1.390 . S
C1206 C1200 1.465 1_556 S
C1206 C1205 1.396 1_556 S
C1206 C1207 1.399 . S
C1207 H1193 0.929 . S
C1207 C1206 1.399 . S
C1207 C1208 1.385 . S
C1208 H1194 0.931 . S
C1208 C1207 1.385 . S
C1208 C1209 1.389 . S
C1209 C1208 1.389 . S
C1209 C1210 1.387 1_556 S
C1210 H1195 0.930 . S
C1210 C1205 1.390 . S
C1210 C1209 1.387 1_554 S
H1211 C1223 0.930 . S
H1212 C1225 0.930 . S
H1213 C1226 0.930 . S
H1214 C1230 0.959 . S
H1215 C1230 0.959 . S
H1216 C1230 0.961 . S
H1217 C1231 0.960 . S
H1218 C1231 0.961 . S
H1219 C1231 0.959 . S
H1220 C1234 0.929 . S
H1221 C1235 0.931 . S
H1222 C1237 0.930 . S
C1223 H1211 0.930 . S
C1223 C1224 1.399 . S
C1223 C1228 1.399 . S
C1224 C1223 1.399 . S
C1224 C1225 1.376 . S
C1225 H1212 0.930 . S
C1225 C1224 1.376 . S
C1225 C1226 1.388 . S
C1226 H1213 0.930 . S
C1226 C1225 1.388 . S
C1226 C1227 1.390 . S
C1227 C1226 1.390 . S
C1227 C1228 1.394 . S
C1227 C1233 1.465 . S
C1228 C1223 1.399 . S
C1228 C1227 1.394 . S
C1228 C1229 1.516 . S
C1229 C1228 1.516 . S
C1229 C1230 1.502 . S
C1229 C1231 1.561 . S
C1229 C1232 1.526 . S
C1230 H1214 0.959 . S
C1230 H1215 0.959 . S
C1230 H1216 0.961 . S
C1230 C1229 1.502 . S
C1231 H1217 0.960 . S
C1231 H1218 0.961 . S
C1231 H1219 0.959 . S
C1231 C1229 1.561 . S
C1232 C1229 1.526 . S
C1232 C1233 1.396 . S
C1232 C1237 1.390 . S
C1233 C1227 1.465 . S
C1233 C1232 1.396 . S
C1233 C1234 1.399 . S
C1234 H1220 0.929 . S
C1234 C1233 1.399 . S
C1234 C1235 1.385 . S
C1235 H1221 0.931 . S
C1235 C1234 1.385 . S
C1235 C1236 1.389 . S
C1236 C1235 1.389 . S
C1236 C1237 1.387 . S
C1237 H1222 0.930 . S
C1237 C1232 1.390 . S
C1237 C1236 1.387 . S
H1238 C1250 0.930 . S
H1239 C1252 0.930 . S
H1240 C1253 0.930 . S
H1241 C1257 0.959 . S
H1242 C1257 0.959 . S
H1243 C1257 0.961 . S
H1244 C1258 0.960 . S
H1245 C1258 0.961 . S
H1246 C1258 0.959 . S
H1247 C1261 0.929 . S
H1248 C1262 0.931 . S
H1249 C1264 0.930 . S
C1250 H1238 0.930 . S
C1250 C1251 1.399 . S
C1250 C1255 1.399 . S
C1251 C1250 1.399 . S
C1251 C1252 1.376 . S
C1252 H1239 0.930 . S
C1252 C1251 1.376 . S
C1252 C1253 1.388 . S
C1253 H1240 0.930 . S
C1253 C1252 1.388 . S
C1253 C1254 1.390 . S
C1254 C1253 1.390 . S
C1254 C1255 1.394 . S
C1254 C1260 1.465 . S
C1255 C1250 1.399 . S
C1255 C1254 1.394 . S
C1255 C1256 1.516 . S
C1256 C1255 1.516 . S
C1256 C1257 1.502 . S
C1256 C1258 1.561 . S
C1256 C1259 1.526 . S
C1257 H1241 0.959 . S
C1257 H1242 0.959 . S
C1257 H1243 0.961 . S
C1257 C1256 1.502 . S
C1258 H1244 0.960 . S
C1258 H1245 0.961 . S
C1258 H1246 0.959 . S
C1258 C1256 1.561 . S
C1259 C1256 1.526 . S
C1259 C1260 1.396 . S
C1259 C1264 1.390 . S
C1260 C1254 1.465 . S
C1260 C1259 1.396 . S
C1260 C1261 1.399 . S
C1261 H1247 0.929 . S
C1261 C1260 1.399 . S
C1261 C1262 1.385 . S
C1262 H1248 0.931 . S
C1262 C1261 1.385 . S
C1262 C1263 1.389 . S
C1263 C1262 1.389 . S
C1263 C1264 1.387 . S
C1264 H1249 0.930 . S
C1264 C1259 1.390 . S
C1264 C1263 1.387 . S
H1265 C1277 0.930 . S
H1266 C1279 0.930 . S
H1267 C1280 0.930 . S
H1268 C1284 0.959 . S
H1269 C1284 0.959 . S
H1270 C1284 0.961 . S
H1271 C1285 0.960 . S
H1272 C1285 0.961 . S
H1273 C1285 0.959 . S
H1274 C1288 0.929 . S
H1275 C1289 0.931 . S
H1276 C1291 0.930 . S
C1277 H1265 0.930 . S
C1277 C1278 1.399 . S
C1277 C1282 1.399 . S
C1278 C1277 1.399 . S
C1278 C1279 1.376 . S
C1279 H1266 0.930 . S
C1279 C1278 1.376 . S
C1279 C1280 1.388 . S
C1280 H1267 0.930 . S
C1280 C1279 1.388 . S
C1280 C1281 1.390 . S
C1281 C1280 1.390 . S
C1281 C1282 1.394 . S
C1281 C1287 1.465 . S
C1282 C1277 1.399 . S
C1282 C1281 1.394 . S
C1282 C1283 1.516 . S
C1283 C1282 1.516 . S
C1283 C1284 1.502 . S
C1283 C1285 1.561 . S
C1283 C1286 1.526 . S
C1284 H1268 0.959 . S
C1284 H1269 0.959 . S
C1284 H1270 0.961 . S
C1284 C1283 1.502 . S
C1285 H1271 0.960 . S
C1285 H1272 0.961 . S
C1285 H1273 0.959 . S
C1285 C1283 1.561 . S
C1286 C1283 1.526 . S
C1286 C1287 1.396 . S
C1286 C1291 1.390 . S
C1287 C1281 1.465 . S
C1287 C1286 1.396 . S
C1287 C1288 1.399 . S
C1288 H1274 0.929 . S
C1288 C1287 1.399 . S
C1288 C1289 1.385 . S
C1289 H1275 0.931 . S
C1289 C1288 1.385 . S
C1289 C1290 1.389 . S
C1290 C1289 1.389 . S
C1290 C1291 1.387 . S
C1291 H1276 0.930 . S
C1291 C1286 1.390 . S
C1291 C1290 1.387 . S
H1292 C1304 0.930 . S
H1293 C1306 0.930 . S
H1294 C1307 0.930 . S
H1295 C1311 0.959 1_556 S
H1296 C1311 0.959 . S
H1297 C1311 0.961 . S
H1298 C1312 0.960 . S
H1299 C1312 0.961 . S
H1300 C1312 0.959 . S
H1301 C1315 0.929 . S
H1302 C1316 0.931 . S
H1303 C1318 0.930 1_554 S
C1304 H1292 0.930 . S
C1304 C1305 1.399 1_554 S
C1304 C1309 1.399 1_554 S
C1305 C1304 1.399 1_556 S
C1305 C1306 1.376 . S
C1306 H1293 0.930 . S
C1306 C1305 1.376 . S
C1306 C1307 1.388 . S
C1307 H1294 0.930 . S
C1307 C1306 1.388 . S
C1307 C1308 1.390 . S
C1308 C1307 1.390 . S
C1308 C1309 1.394 . S
C1308 C1314 1.465 . S
C1309 C1304 1.399 1_556 S
C1309 C1308 1.394 . S
C1309 C1310 1.516 1_556 S
C1310 C1309 1.516 1_554 S
C1310 C1311 1.502 . S
C1310 C1312 1.561 . S
C1310 C1313 1.526 1_554 S
C1311 H1295 0.959 1_554 S
C1311 H1296 0.959 . S
C1311 H1297 0.961 . S
C1311 C1310 1.502 . S
C1312 H1298 0.960 . S
C1312 H1299 0.961 . S
C1312 H1300 0.959 . S
C1312 C1310 1.561 . S
C1313 C1310 1.526 1_556 S
C1313 C1314 1.396 . S
C1313 C1318 1.390 . S
C1314 C1308 1.465 . S
C1314 C1313 1.396 . S
C1314 C1315 1.399 . S
C1315 H1301 0.929 . S
C1315 C1314 1.399 . S
C1315 C1316 1.385 . S
C1316 H1302 0.931 . S
C1316 C1315 1.385 . S
C1316 C1317 1.389 . S
C1317 C1316 1.389 . S
C1317 C1318 1.387 . S
C1318 H1303 0.930 1_556 S
C1318 C1313 1.390 . S
C1318 C1317 1.387 . S
H1319 C1331 0.930 . S
H1320 C1333 0.930 . S
H1321 C1334 0.930 . S
H1322 C1338 0.959 . S
H1323 C1338 0.959 . S
H1324 C1338 0.961 . S
H1325 C1339 0.960 . S
H1326 C1339 0.961 . S
H1327 C1339 0.959 . S
H1328 C1342 0.929 . S
H1329 C1343 0.931 . S
H1330 C1345 0.930 . S
C1331 H1319 0.930 . S
C1331 C1332 1.399 . S
C1331 C1336 1.399 . S
C1332 C1331 1.399 . S
C1332 C1333 1.376 . S
C1333 H1320 0.930 . S
C1333 C1332 1.376 . S
C1333 C1334 1.388 . S
C1334 H1321 0.930 . S
C1334 C1333 1.388 . S
C1334 C1335 1.390 . S
C1335 C1334 1.390 . S
C1335 C1336 1.394 . S
C1335 C1341 1.465 . S
C1336 C1331 1.399 . S
C1336 C1335 1.394 . S
C1336 C1337 1.516 . S
C1337 C1336 1.516 . S
C1337 C1338 1.502 . S
C1337 C1339 1.561 . S
C1337 C1340 1.526 . S
C1338 H1322 0.959 . S
C1338 H1323 0.959 . S
C1338 H1324 0.961 . S
C1338 C1337 1.502 . S
C1339 H1325 0.960 . S
C1339 H1326 0.961 . S
C1339 H1327 0.959 . S
C1339 C1337 1.561 . S
C1340 C1337 1.526 . S
C1340 C1341 1.396 . S
C1340 C1345 1.390 . S
C1341 C1335 1.465 . S
C1341 C1340 1.396 . S
C1341 C1342 1.399 . S
C1342 H1328 0.929 . S
C1342 C1341 1.399 . S
C1342 C1343 1.385 . S
C1343 H1329 0.931 . S
C1343 C1342 1.385 . S
C1343 C1344 1.389 . S
C1344 C1343 1.389 . S
C1344 C1345 1.387 . S
C1345 H1330 0.930 . S
C1345 C1340 1.390 . S
C1345 C1344 1.387 . S
H1346 C1358 0.930 . S
H1347 C1360 0.930 . S
H1348 C1361 0.930 . S
H1349 C1365 0.959 . S
H1350 C1365 0.959 . S
H1351 C1365 0.961 . S
H1352 C1366 0.960 . S
H1353 C1366 0.961 . S
H1354 C1366 0.959 . S
H1355 C1369 0.929 . S
H1356 C1370 0.931 . S
H1357 C1372 0.930 . S
C1358 H1346 0.930 . S
C1358 C1359 1.399 . S
C1358 C1363 1.399 . S
C1359 C1358 1.399 . S
C1359 C1360 1.376 . S
C1360 H1347 0.930 . S
C1360 C1359 1.376 . S
C1360 C1361 1.388 . S
C1361 H1348 0.930 . S
C1361 C1360 1.388 . S
C1361 C1362 1.390 . S
C1362 C1361 1.390 . S
C1362 C1363 1.394 . S
C1362 C1368 1.465 . S
C1363 C1358 1.399 . S
C1363 C1362 1.394 . S
C1363 C1364 1.516 . S
C1364 C1363 1.516 . S
C1364 C1365 1.502 . S
C1364 C1366 1.561 . S
C1364 C1367 1.526 . S
C1365 H1349 0.959 . S
C1365 H1350 0.959 . S
C1365 H1351 0.961 . S
C1365 C1364 1.502 . S
C1366 H1352 0.960 . S
C1366 H1353 0.961 . S
C1366 H1354 0.959 . S
C1366 C1364 1.561 . S
C1367 C1364 1.526 . S
C1367 C1368 1.396 . S
C1367 C1372 1.390 . S
C1368 C1362 1.465 . S
C1368 C1367 1.396 . S
C1368 C1369 1.399 . S
C1369 H1355 0.929 . S
C1369 C1368 1.399 . S
C1369 C1370 1.385 . S
C1370 H1356 0.931 . S
C1370 C1369 1.385 . S
C1370 C1371 1.389 . S
C1371 C1370 1.389 . S
C1371 C1372 1.387 . S
C1372 H1357 0.930 . S
C1372 C1367 1.390 . S
C1372 C1371 1.387 . S
H1373 C1385 0.930 . S
H1374 C1387 0.930 . S
H1375 C1388 0.930 . S
H1376 C1392 0.959 . S
H1377 C1392 0.959 . S
H1378 C1392 0.961 . S
H1379 C1393 0.960 . S
H1380 C1393 0.961 . S
H1381 C1393 0.959 . S
H1382 C1396 0.929 . S
H1383 C1397 0.931 . S
H1384 C1399 0.930 . S
C1385 H1373 0.930 . S
C1385 C1386 1.399 . S
C1385 C1390 1.399 . S
C1386 C1385 1.399 . S
C1386 C1387 1.376 . S
C1387 H1374 0.930 . S
C1387 C1386 1.376 . S
C1387 C1388 1.388 . S
C1388 H1375 0.930 . S
C1388 C1387 1.388 . S
C1388 C1389 1.390 . S
C1389 C1388 1.390 . S
C1389 C1390 1.394 . S
C1389 C1395 1.465 . S
C1390 C1385 1.399 . S
C1390 C1389 1.394 . S
C1390 C1391 1.516 . S
C1391 C1390 1.516 . S
C1391 C1392 1.502 . S
C1391 C1393 1.561 . S
C1391 C1394 1.526 . S
C1392 H1376 0.959 . S
C1392 H1377 0.959 . S
C1392 H1378 0.961 . S
C1392 C1391 1.502 . S
C1393 H1379 0.960 . S
C1393 H1380 0.961 . S
C1393 H1381 0.959 . S
C1393 C1391 1.561 . S
C1394 C1391 1.526 . S
C1394 C1395 1.396 . S
C1394 C1399 1.390 . S
C1395 C1389 1.465 . S
C1395 C1394 1.396 . S
C1395 C1396 1.399 . S
C1396 H1382 0.929 . S
C1396 C1395 1.399 . S
C1396 C1397 1.385 . S
C1397 H1383 0.931 . S
C1397 C1396 1.385 . S
C1397 C1398 1.389 . S
C1398 C1397 1.389 . S
C1398 C1399 1.387 . S
C1399 H1384 0.930 . S
C1399 C1394 1.390 . S
C1399 C1398 1.387 . S
H1400 C1412 0.930 . S
H1401 C1414 0.930 . S
H1402 C1415 0.930 . S
H1403 C1419 0.959 . S
H1404 C1419 0.926 1_545 S
H1405 C1419 0.990 . S
H1406 C1420 0.929 1_565 S
H1407 C1420 0.997 . S
H1408 C1420 0.961 . S
H1409 C1423 0.929 . S
H1410 C1424 0.931 . S
H1411 C1426 0.930 . S
C1412 H1400 0.930 . S
C1412 C1413 1.399 . S
C1412 C1417 1.399 . S
C1413 C1412 1.399 . S
C1413 C1414 1.376 . S
C1414 H1401 0.930 . S
C1414 C1413 1.376 . S
C1414 C1415 1.388 . S
C1415 H1402 0.930 . S
C1415 C1414 1.388 . S
C1415 C1416 1.390 . S
C1416 C1415 1.390 . S
C1416 C1417 1.394 . S
C1416 C1422 1.465 1_565 S
C1417 C1412 1.399 . S
C1417 C1416 1.394 . S
C1417 C1418 1.516 . S
C1418 C1417 1.516 . S
C1418 C1419 1.505 . S
C1418 C1420 1.556 1_565 S
C1418 C1421 1.526 1_565 S
C1419 H1403 0.959 . S
C1419 H1404 0.926 1_565 S
C1419 H1405 0.990 . S
C1419 C1418 1.505 . S
C1420 H1406 0.929 1_545 S
C1420 H1407 0.997 . S
C1420 H1408 0.961 . S
C1420 C1418 1.556 1_545 S
C1421 C1418 1.526 1_545 S
C1421 C1422 1.396 . S
C1421 C1426 1.390 . S
C1422 C1416 1.465 1_545 S
C1422 C1421 1.396 . S
C1422 C1423 1.399 . S
C1423 H1409 0.929 . S
C1423 C1422 1.399 . S
C1423 C1424 1.385 . S
C1424 H1410 0.931 . S
C1424 C1423 1.385 . S
C1424 C1425 1.389 . S
C1425 C1424 1.389 . S
C1425 C1426 1.387 . S
C1426 H1411 0.930 . S
C1426 C1421 1.390 . S
C1426 C1425 1.387 . S
H1427 C1439 0.930 . S
H1428 C1441 0.930 . S
H1429 C1442 0.930 . S
H1430 C1446 0.959 . S
H1431 C1446 0.959 . S
H1432 C1446 0.961 . S
H1433 C1447 0.960 . S
H1434 C1447 0.961 . S
H1435 C1447 0.959 . S
H1436 C1450 0.929 . S
H1437 C1451 0.931 . S
H1438 C1453 0.930 . S
C1439 H1427 0.930 . S
C1439 C1440 1.399 . S
C1439 C1444 1.399 . S
C1440 C1439 1.399 . S
C1440 C1441 1.376 . S
C1441 H1428 0.930 . S
C1441 C1440 1.376 . S
C1441 C1442 1.388 . S
C1442 H1429 0.930 . S
C1442 C1441 1.388 . S
C1442 C1443 1.390 . S
C1443 C1442 1.390 . S
C1443 C1444 1.394 . S
C1443 C1449 1.465 . S
C1444 C1439 1.399 . S
C1444 C1443 1.394 . S
C1444 C1445 1.516 . S
C1445 C1444 1.516 . S
C1445 C1446 1.502 . S
C1445 C1447 1.561 . S
C1445 C1448 1.526 . S
C1446 H1430 0.959 . S
C1446 H1431 0.959 . S
C1446 H1432 0.961 . S
C1446 C1445 1.502 . S
C1447 H1433 0.960 . S
C1447 H1434 0.961 . S
C1447 H1435 0.959 . S
C1447 C1445 1.561 . S
C1448 C1445 1.526 . S
C1448 C1449 1.396 . S
C1448 C1453 1.390 . S
C1449 C1443 1.465 . S
C1449 C1448 1.396 . S
C1449 C1450 1.399 . S
C1450 H1436 0.929 . S
C1450 C1449 1.399 . S
C1450 C1451 1.385 . S
C1451 H1437 0.931 . S
C1451 C1450 1.385 . S
C1451 C1452 1.389 . S
C1452 C1451 1.389 . S
C1452 C1453 1.387 . S
C1453 H1438 0.930 . S
C1453 C1448 1.390 . S
C1453 C1452 1.387 . S
H1454 C1466 0.930 1_556 S
H1455 C1468 0.930 . S
H1456 C1469 0.930 . S
H1457 C1473 0.959 . S
H1458 C1473 0.959 . S
H1459 C1473 0.961 . S
H1460 C1474 0.960 . S
H1461 C1474 0.961 . S
H1462 C1474 0.959 . S
H1463 C1477 0.929 . S
H1464 C1478 0.931 . S
H1465 C1480 0.930 . S
C1466 H1454 0.930 1_554 S
C1466 C1467 1.399 . S
C1466 C1471 1.399 . S
C1467 C1466 1.399 . S
C1467 C1468 1.376 . S
C1468 H1455 0.930 . S
C1468 C1467 1.376 . S
C1468 C1469 1.388 . S
C1469 H1456 0.930 . S
C1469 C1468 1.388 . S
C1469 C1470 1.390 . S
C1470 C1469 1.390 . S
C1470 C1471 1.394 . S
C1470 C1476 1.465 1_565 S
C1471 C1466 1.399 . S
C1471 C1470 1.394 . S
C1471 C1472 1.516 1_554 S
C1472 C1471 1.516 1_556 S
C1472 C1473 1.502 . S
C1472 C1474 1.561 . S
C1472 C1475 1.526 1_566 S
C1473 H1457 0.959 . S
C1473 H1458 0.959 . S
C1473 H1459 0.961 . S
C1473 C1472 1.502 . S
C1474 H1460 0.960 . S
C1474 H1461 0.961 . S
C1474 H1462 0.959 . S
C1474 C1472 1.561 . S
C1475 C1472 1.526 1_544 S
C1475 C1476 1.396 . S
C1475 C1480 1.390 1_554 S
C1476 C1470 1.465 1_545 S
C1476 C1475 1.396 . S
C1476 C1477 1.399 . S
C1477 H1463 0.929 . S
C1477 C1476 1.399 . S
C1477 C1478 1.385 . S
C1478 H1464 0.931 . S
C1478 C1477 1.385 . S
C1478 C1479 1.389 . S
C1479 C1478 1.389 . S
C1479 C1480 1.387 1_554 S
C1480 H1465 0.930 . S
C1480 C1475 1.390 1_556 S
C1480 C1479 1.387 1_556 S
H1481 C1493 0.930 . S
H1482 C1495 0.930 . S
H1483 C1496 0.930 . S
H1484 C1500 0.959 . S
H1485 C1500 0.959 . S
H1486 C1500 0.961 . S
H1487 C1501 0.960 . S
H1488 C1501 0.961 . S
H1489 C1501 0.959 . S
H1490 C1504 0.929 . S
H1491 C1505 0.931 . S
H1492 C1507 0.930 . S
C1493 H1481 0.930 . S
C1493 C1494 1.399 . S
C1493 C1498 1.399 . S
C1494 C1493 1.399 . S
C1494 C1495 1.376 . S
C1495 H1482 0.930 . S
C1495 C1494 1.376 . S
C1495 C1496 1.388 . S
C1496 H1483 0.930 . S
C1496 C1495 1.388 . S
C1496 C1497 1.390 . S
C1497 C1496 1.390 . S
C1497 C1498 1.394 . S
C1497 C1503 1.465 . S
C1498 C1493 1.399 . S
C1498 C1497 1.394 . S
C1498 C1499 1.516 . S
C1499 C1498 1.516 . S
C1499 C1500 1.502 . S
C1499 C1501 1.561 . S
C1499 C1502 1.526 . S
C1500 H1484 0.959 . S
C1500 H1485 0.959 . S
C1500 H1486 0.961 . S
C1500 C1499 1.502 . S
C1501 H1487 0.960 . S
C1501 H1488 0.961 . S
C1501 H1489 0.959 . S
C1501 C1499 1.561 . S
C1502 C1499 1.526 . S
C1502 C1503 1.396 . S
C1502 C1507 1.390 . S
C1503 C1497 1.465 . S
C1503 C1502 1.396 . S
C1503 C1504 1.399 . S
C1504 H1490 0.929 . S
C1504 C1503 1.399 . S
C1504 C1505 1.385 . S
C1505 H1491 0.931 . S
C1505 C1504 1.385 . S
C1505 C1506 1.389 . S
C1506 C1505 1.389 . S
C1506 C1507 1.387 . S
C1507 H1492 0.930 . S
C1507 C1502 1.390 . S
C1507 C1506 1.387 . S
H1508 C1520 0.930 . S
H1509 C1522 0.930 . S
H1510 C1523 0.930 . S
H1511 C1527 0.959 . S
H1512 C1527 0.959 . S
H1513 C1527 0.961 . S
H1514 C1528 0.960 . S
H1515 C1528 0.961 . S
H1516 C1528 0.959 . S
H1517 C1531 0.929 . S
H1518 C1532 0.931 . S
H1519 C1534 0.930 . S
C1520 H1508 0.930 . S
C1520 C1521 1.399 . S
C1520 C1525 1.399 . S
C1521 C1520 1.399 . S
C1521 C1522 1.376 . S
C1522 H1509 0.930 . S
C1522 C1521 1.376 . S
C1522 C1523 1.388 . S
C1523 H1510 0.930 . S
C1523 C1522 1.388 . S
C1523 C1524 1.390 1_565 S
C1524 C1523 1.390 1_545 S
C1524 C1525 1.394 1_545 S
C1524 C1530 1.465 . S
C1525 C1520 1.399 . S
C1525 C1524 1.394 1_565 S
C1525 C1526 1.516 1_565 S
C1526 C1525 1.516 1_545 S
C1526 C1527 1.502 . S
C1526 C1528 1.561 . S
C1526 C1529 1.526 . S
C1527 H1511 0.959 . S
C1527 H1512 0.959 . S
C1527 H1513 0.961 . S
C1527 C1526 1.502 . S
C1528 H1514 0.960 . S
C1528 H1515 0.961 . S
C1528 H1516 0.959 . S
C1528 C1526 1.561 . S
C1529 C1526 1.526 . S
C1529 C1530 1.396 . S
C1529 C1534 1.390 . S
C1530 C1524 1.465 . S
C1530 C1529 1.396 . S
C1530 C1531 1.399 . S
C1531 H1517 0.929 . S
C1531 C1530 1.399 . S
C1531 C1532 1.385 . S
C1532 H1518 0.931 . S
C1532 C1531 1.385 . S
C1532 C1533 1.389 . S
C1533 C1532 1.389 . S
C1533 C1534 1.387 . S
C1534 H1519 0.930 . S
C1534 C1529 1.390 . S
C1534 C1533 1.387 . S
H1535 C1547 0.930 . S
H1536 C1549 0.930 . S
H1537 C1550 0.930 . S
H1538 C1554 0.959 . S
H1539 C1554 0.959 . S
H1540 C1554 0.961 . S
H1541 C1555 0.960 1_556 S
H1542 C1555 0.961 . S
H1543 C1555 0.959 . S
H1544 C1558 0.929 . S
H1545 C1559 0.931 . S
H1546 C1561 0.930 . S
C1547 H1535 0.930 . S
C1547 C1548 1.399 . S
C1547 C1552 1.399 . S
C1548 C1547 1.399 . S
C1548 C1549 1.376 . S
C1549 H1536 0.930 . S
C1549 C1548 1.376 . S
C1549 C1550 1.388 . S
C1550 H1537 0.930 . S
C1550 C1549 1.388 . S
C1550 C1551 1.390 . S
C1551 C1550 1.390 . S
C1551 C1552 1.394 . S
C1551 C1557 1.465 . S
C1552 C1547 1.399 . S
C1552 C1551 1.394 . S
C1552 C1553 1.516 . S
C1553 C1552 1.516 . S
C1553 C1554 1.502 . S
C1553 C1555 1.561 . S
C1553 C1556 1.526 . S
C1554 H1538 0.959 . S
C1554 H1539 0.959 . S
C1554 H1540 0.961 . S
C1554 C1553 1.502 . S
C1555 H1541 0.960 1_554 S
C1555 H1542 0.961 . S
C1555 H1543 0.959 . S
C1555 C1553 1.561 . S
C1556 C1553 1.526 . S
C1556 C1557 1.396 . S
C1556 C1561 1.390 . S
C1557 C1551 1.465 . S
C1557 C1556 1.396 . S
C1557 C1558 1.399 . S
C1558 H1544 0.929 . S
C1558 C1557 1.399 . S
C1558 C1559 1.385 . S
C1559 H1545 0.931 . S
C1559 C1558 1.385 . S
C1559 C1560 1.389 . S
C1560 C1559 1.389 . S
C1560 C1561 1.387 . S
C1561 H1546 0.930 . S
C1561 C1556 1.390 . S
C1561 C1560 1.387 . S
H1562 C1574 0.930 . S
H1563 C1576 0.930 . S
H1564 C1577 0.930 . S
H1565 C1581 0.959 . S
H1566 C1581 0.959 . S
H1567 C1581 0.961 1_545 S
H1568 C1582 0.960 1_545 S
H1569 C1582 0.961 . S
H1570 C1582 0.957 1_545 S
H1571 C1585 0.929 . S
H1572 C1586 0.931 . S
H1573 C1588 0.930 . S
C1574 H1562 0.930 . S
C1574 C1575 1.399 1_556 S
C1574 C1579 1.399 . S
C1575 C1574 1.399 1_554 S
C1575 C1576 1.376 . S
C1576 H1563 0.930 . S
C1576 C1575 1.376 . S
C1576 C1577 1.388 . S
C1577 H1564 0.930 . S
C1577 C1576 1.388 . S
C1577 C1578 1.390 . S
C1578 C1577 1.390 . S
C1578 C1579 1.394 1_554 S
C1578 C1584 1.465 1_545 S
C1579 C1574 1.399 . S
C1579 C1578 1.394 1_556 S
C1579 C1580 1.516 1_545 S
C1580 C1579 1.516 1_565 S
C1580 C1581 1.502 . S
C1580 C1582 1.561 . S
C1580 C1583 1.526 1_556 S
C1581 H1565 0.959 . S
C1581 H1566 0.959 . S
C1581 H1567 0.961 1_565 S
C1581 C1580 1.502 . S
C1582 H1568 0.960 1_565 S
C1582 H1569 0.961 . S
C1582 H1570 0.957 1_565 S
C1582 C1580 1.561 . S
C1583 C1580 1.526 1_554 S
C1583 C1584 1.396 . S
C1583 C1588 1.390 1_554 S
C1584 C1578 1.465 1_565 S
C1584 C1583 1.396 . S
C1584 C1585 1.399 . S
C1585 H1571 0.929 . S
C1585 C1584 1.399 . S
C1585 C1586 1.385 . S
C1586 H1572 0.931 . S
C1586 C1585 1.385 . S
C1586 C1587 1.389 . S
C1587 C1586 1.389 . S
C1587 C1588 1.387 1_554 S
C1588 H1573 0.930 . S
C1588 C1583 1.390 1_556 S
C1588 C1587 1.387 1_556 S
H1589 C1601 0.930 . S
H1590 C1603 0.930 . S
H1591 C1604 0.930 . S
H1592 C1608 0.959 . S
H1593 C1608 0.959 . S
H1594 C1608 0.961 . S
H1595 C1609 0.960 . S
H1596 C1609 0.961 . S
H1597 C1609 0.959 . S
H1598 C1612 0.929 . S
H1599 C1613 0.931 . S
H1600 C1615 0.930 . S
C1601 H1589 0.930 . S
C1601 C1602 1.399 . S
C1601 C1606 1.399 . S
C1602 C1601 1.399 . S
C1602 C1603 1.376 . S
C1603 H1590 0.930 . S
C1603 C1602 1.376 . S
C1603 C1604 1.388 . S
C1604 H1591 0.930 . S
C1604 C1603 1.388 . S
C1604 C1605 1.390 . S
C1605 C1604 1.390 . S
C1605 C1606 1.394 . S
C1605 C1611 1.465 . S
C1606 C1601 1.399 . S
C1606 C1605 1.394 . S
C1606 C1607 1.516 . S
C1607 C1606 1.516 . S
C1607 C1608 1.502 . S
C1607 C1609 1.561 . S
C1607 C1610 1.526 . S
C1608 H1592 0.959 . S
C1608 H1593 0.959 . S
C1608 H1594 0.961 . S
C1608 C1607 1.502 . S
C1609 H1595 0.960 . S
C1609 H1596 0.961 . S
C1609 H1597 0.959 . S
C1609 C1607 1.561 . S
C1610 C1607 1.526 . S
C1610 C1611 1.396 . S
C1610 C1615 1.390 . S
C1611 C1605 1.465 . S
C1611 C1610 1.396 . S
C1611 C1612 1.399 . S
C1612 H1598 0.929 . S
C1612 C1611 1.399 . S
C1612 C1613 1.385 . S
C1613 H1599 0.931 . S
C1613 C1612 1.385 . S
C1613 C1614 1.389 . S
C1614 C1613 1.389 . S
C1614 C1615 1.387 . S
C1615 H1600 0.930 . S
C1615 C1610 1.390 . S
C1615 C1614 1.387 . S
C333 C8 1.758 . S
C345 C19 1.728 . S
C360 C39 1.657 . S
C372 C28 1.755 . S
C387 C48 1.668 . S
C399 C59 1.696 . S
C414 C68 1.663 . S
C426 C79 1.761 . S
C441 C88 1.737 . S
C453 C99 1.706 . S
C468 C108 1.679 . S
C480 C119 1.709 . S
C495 C139 1.700 . S
C507 C128 1.743 . S
C522 C159 1.798 . S
C534 C148 1.742 . S
C549 C179 1.793 . S
C561 C168 1.706 . S
C576 C199 1.664 . S
C588 C188 1.753 . S
C603 C208 1.679 . S
C615 C219 1.688 . S
C630 C239 1.725 . S
C642 C228 1.685 . S
C657 C259 1.678 . S
C669 C248 1.733 . S
C684 C279 1.728 . S
C696 C268 1.669 . S
C711 C288 1.761 . S
C723 C299 1.661 . S
C738 C319 1.741 . S
C750 C308 1.785 . S
C765 C1 1.567 . S
C777 C226 1.497 . S
C792 C36 1.827 . S
C804 C309 1.918 . S
C819 C41 1.605 . S
C831 C189 1.551 . S
C846 C61 1.957 . S
C858 C269 1.990 . S
C873 C81 1.554 . S
C885 C266 1.407 . S
C900 C229 1.903 . S
C912 C116 1.784 . S
C927 C136 1.452 . S
C939 C306 1.415 . S
C954 C156 1.670 . S
C966 C186 1.720 . S
C981 C76 1.681 . S
C993 C169 1.750 . S
C1008 C21 1.895 . S
C1020 C209 1.903 . S
C1035 C249 1.804 . S
C1047 C101 1.793 . S
C1062 C141 1.623 . S
C1074 C286 1.619 . S
C1089 C166 1.518 1_554 S
C1101 C96 1.504 . S
C1116 C121 1.590 . S
C1128 C206 1.561 . S
C1143 C56 1.656 . S
C1155 C289 1.691 . S
C1170 C16 1.612 1_556 S
C1182 C246 1.591 . S
C1197 C9 1.333 . S
C1209 C89 1.294 . S
C1224 C26 1.671 . S
C1236 C106 1.653 . S
C1251 C49 1.366 . S
C1263 C126 1.390 . S
C1278 C69 1.665 . S
C1290 C146 1.649 . S
C1305 C241 1.630 . S
C1317 C161 1.618 . S
C1332 C261 1.722 . S
C1344 C196 1.692 . S
C1359 C201 1.684 . S
C1371 C296 1.669 . S
C1386 C301 1.701 . S
C1398 C221 1.692 . S
C1413 C29 1.707 . S
C1425 C149 1.676 . S
C1440 C86 1.416 . S
C1452 C46 1.342 . S
C1467 C109 1.735 . S
C1479 C66 1.730 1_554 S
C1494 C6 1.289 . S
C1506 C129 1.394 . S
C1521 C316 1.288 . S
C1533 C181 1.402 . S
C1548 C256 1.454 . S
C1560 C216 1.426 . S
C1575 C276 1.422 1_554 S
C1587 C236 1.344 . S
C1602 C281 1.451 . S
C1614 C176 1.371 . S
