# Generated by pormake.
# Topology uot, (4)-cn, num edge types: 1
# Building blocks:
#     Node 0, Type 0, BuildingBlock: TATPOV_clean_sbu_0, # of connection points: 4
#     Node 1, Type 0, BuildingBlock: TATPOV_clean_sbu_0, # of connection points: 4
#     Node 2, Type 0, BuildingBlock: TATPOV_clean_sbu_0, # of connection points: 4
#     Node 3, Type 0, BuildingBlock: TATPOV_clean_sbu_0, # of connection points: 4
#     Node 4, Type 0, BuildingBlock: TATPOV_clean_sbu_0, # of connection points: 4
#     Node 5, Type 0, BuildingBlock: TATPOV_clean_sbu_0, # of connection points: 4
#     Node 6, Type 0, BuildingBlock: TATPOV_clean_sbu_0, # of connection points: 4
#     Node 7, Type 0, BuildingBlock: TATPOV_clean_sbu_0, # of connection points: 4
#     Node 8, Type 0, BuildingBlock: TATPOV_clean_sbu_0, # of connection points: 4
#     Node 9, Type 0, BuildingBlock: TATPOV_clean_sbu_0, # of connection points: 4
#     Node 10, Type 0, BuildingBlock: TATPOV_clean_sbu_0, # of connection points: 4
#     Node 11, Type 0, BuildingBlock: TATPOV_clean_sbu_0, # of connection points: 4
#     Node 12, Type 0, BuildingBlock: TATPOV_clean_sbu_0, # of connection points: 4
#     Node 13, Type 0, BuildingBlock: TATPOV_clean_sbu_0, # of connection points: 4
#     Node 14, Type 0, BuildingBlock: TATPOV_clean_sbu_0, # of connection points: 4
#     Node 15, Type 0, BuildingBlock: TATPOV_clean_sbu_0, # of connection points: 4
#     Edge 16, Type (0, 0), BuildingBlock: UVAHIK_clean_linker_0, # of connection points: 2
#     Edge 17, Type (0, 0), BuildingBlock: UVAHIK_clean_linker_0, # of connection points: 2
#     Edge 18, Type (0, 0), BuildingBlock: UVAHIK_clean_linker_0, # of connection points: 2
#     Edge 19, Type (0, 0), BuildingBlock: UVAHIK_clean_linker_0, # of connection points: 2
#     Edge 20, Type (0, 0), BuildingBlock: UVAHIK_clean_linker_0, # of connection points: 2
#     Edge 21, Type (0, 0), BuildingBlock: UVAHIK_clean_linker_0, # of connection points: 2
#     Edge 22, Type (0, 0), BuildingBlock: UVAHIK_clean_linker_0, # of connection points: 2
#     Edge 23, Type (0, 0), BuildingBlock: UVAHIK_clean_linker_0, # of connection points: 2
#     Edge 24, Type (0, 0), BuildingBlock: UVAHIK_clean_linker_0, # of connection points: 2
#     Edge 25, Type (0, 0), BuildingBlock: UVAHIK_clean_linker_0, # of connection points: 2
#     Edge 26, Type (0, 0), BuildingBlock: UVAHIK_clean_linker_0, # of connection points: 2
#     Edge 27, Type (0, 0), BuildingBlock: UVAHIK_clean_linker_0, # of connection points: 2
#     Edge 28, Type (0, 0), BuildingBlock: UVAHIK_clean_linker_0, # of connection points: 2
#     Edge 29, Type (0, 0), BuildingBlock: UVAHIK_clean_linker_0, # of connection points: 2
#     Edge 30, Type (0, 0), BuildingBlock: UVAHIK_clean_linker_0, # of connection points: 2
#     Edge 31, Type (0, 0), BuildingBlock: UVAHIK_clean_linker_0, # of connection points: 2
#     Edge 32, Type (0, 0), BuildingBlock: UVAHIK_clean_linker_0, # of connection points: 2
#     Edge 33, Type (0, 0), BuildingBlock: UVAHIK_clean_linker_0, # of connection points: 2
#     Edge 34, Type (0, 0), BuildingBlock: UVAHIK_clean_linker_0, # of connection points: 2
#     Edge 35, Type (0, 0), BuildingBlock: UVAHIK_clean_linker_0, # of connection points: 2
#     Edge 36, Type (0, 0), BuildingBlock: UVAHIK_clean_linker_0, # of connection points: 2
#     Edge 37, Type (0, 0), BuildingBlock: UVAHIK_clean_linker_0, # of connection points: 2
#     Edge 38, Type (0, 0), BuildingBlock: UVAHIK_clean_linker_0, # of connection points: 2
#     Edge 39, Type (0, 0), BuildingBlock: UVAHIK_clean_linker_0, # of connection points: 2
#     Edge 40, Type (0, 0), BuildingBlock: UVAHIK_clean_linker_0, # of connection points: 2
#     Edge 41, Type (0, 0), BuildingBlock: UVAHIK_clean_linker_0, # of connection points: 2
#     Edge 42, Type (0, 0), BuildingBlock: UVAHIK_clean_linker_0, # of connection points: 2
#     Edge 43, Type (0, 0), BuildingBlock: UVAHIK_clean_linker_0, # of connection points: 2
#     Edge 44, Type (0, 0), BuildingBlock: UVAHIK_clean_linker_0, # of connection points: 2
#     Edge 45, Type (0, 0), BuildingBlock: UVAHIK_clean_linker_0, # of connection points: 2
#     Edge 46, Type (0, 0), BuildingBlock: UVAHIK_clean_linker_0, # of connection points: 2
#     Edge 47, Type (0, 0), BuildingBlock: UVAHIK_clean_linker_0, # of connection points: 2
# Relax obj value: 0.143
# Max RMSD: 0.189
# Mean RMSD: 0.189
data_MOF--net-uot--node1-TATPOV_clean_sbu_0--edge1-UVAHIK_clean_linker_0
_symmetry_space_group_name_H-M    P1
_symmetry_Int_Tables_number       1
_symmetry_cell_setting            triclinic
loop_
_symmetry_equiv_pos_as_xyz
'x, y, z'
_cell_length_a     56.159815
_cell_length_b     56.203393
_cell_length_c     53.761897
_cell_angle_alpha  90.065547
_cell_angle_beta   90.052324
_cell_angle_gamma 89.987019
loop_
_atom_site_label
_atom_site_type_symbol
_atom_site_fract_x
_atom_site_fract_y
_atom_site_fract_z
_atom_type_partial_charge
Zn0 Zn 0.16492 0.47564 0.3206 0.0
Zn1 Zn 0.2072 0.4553 0.31571 0.0
O2 O 0.18263 0.42935 0.30613 0.0
O3 O 0.14776 0.44461 0.31577 0.0
O4 O 0.23818 0.43763 0.31226 0.0
O5 O 0.17378 0.48647 0.35502 0.0
O6 O 0.20725 0.46628 0.3524 0.0
C7 C 0.16009 0.4273 0.30801 0.0
C8 C 0.19373 0.49622 0.28178 0.0
O9 O 0.20985 0.48255 0.29033 0.0
O10 O 0.17285 0.49575 0.2906 0.0
C11 C 0.24216 0.42568 0.2926 0.0
O12 O 0.22626 0.42592 0.27465 0.0
C13 C 0.19292 0.47921 0.36488 0.0
Zn14 Zn 0.43222 0.83503 0.62488 0.0
Zn15 Zn 0.42561 0.79663 0.65384 0.0
O16 O 0.39461 0.81609 0.65631 0.0
O17 O 0.39947 0.84759 0.63267 0.0
O18 O 0.41681 0.7669 0.67242 0.0
O19 O 0.43715 0.81393 0.59502 0.0
O20 O 0.43463 0.78283 0.61969 0.0
C21 C 0.38668 0.83552 0.64734 0.0
C22 C 0.46526 0.83082 0.66716 0.0
O23 O 0.45358 0.81204 0.67246 0.0
O24 O 0.45981 0.84292 0.64807 0.0
C25 C 0.40511 0.7672 0.69264 0.0
O26 O 0.40056 0.78772 0.70335 0.0
C27 C 0.43804 0.79164 0.59819 0.0
Zn28 Zn 0.83077 0.53866 0.35816 0.0
Zn29 Zn 0.79521 0.55906 0.33285 0.0
O30 O 0.82296 0.58309 0.32975 0.0
O31 O 0.85249 0.56589 0.34986 0.0
O32 O 0.76783 0.57593 0.3163 0.0
O33 O 0.81229 0.54037 0.38972 0.0
O34 O 0.78153 0.55344 0.36821 0.0
C35 C 0.84446 0.58323 0.33742 0.0
C36 C 0.81343 0.51057 0.31655 0.0
O37 O 0.80036 0.52865 0.3123 0.0
O38 O 0.82715 0.51017 0.33527 0.0
C39 C 0.76993 0.58919 0.29729 0.0
O40 O 0.79089 0.59147 0.28672 0.0
C41 C 0.79074 0.54678 0.38872 0.0
Zn42 Zn 0.56294 0.14885 0.64462 0.0
Zn43 Zn 0.57461 0.19108 0.66232 0.0
O44 O 0.60571 0.17137 0.66207 0.0
O45 O 0.5971 0.13853 0.6417 0.0
O46 O 0.58626 0.22263 0.67496 0.0
O47 O 0.54643 0.16481 0.61598 0.0
O48 O 0.55993 0.19961 0.62843 0.0
C49 C 0.61221 0.15165 0.6525 0.0
C50 C 0.54012 0.15986 0.69118 0.0
O51 O 0.54948 0.18024 0.68774 0.0
O52 O 0.54452 0.14288 0.67635 0.0
C53 C 0.59751 0.22404 0.69544 0.0
O54 O 0.60024 0.20476 0.70894 0.0
C55 C 0.54843 0.18703 0.61279 0.0
Zn56 Zn 0.15603 0.54394 0.66082 0.0
Zn57 Zn 0.19835 0.56053 0.67098 0.0
O58 O 0.17553 0.58938 0.67367 0.0
O59 O 0.14172 0.57661 0.65793 0.0
O60 O 0.22982 0.57571 0.67934 0.0
O61 O 0.16926 0.52757 0.63061 0.0
O62 O 0.20311 0.54672 0.63566 0.0
C63 C 0.15421 0.59337 0.66666 0.0
C64 C 0.17523 0.52445 0.70555 0.0
O65 O 0.19401 0.53497 0.69815 0.0
O66 O 0.15583 0.52698 0.69385 0.0
C67 C 0.23164 0.58693 0.69981 0.0
O68 O 0.21336 0.58723 0.71505 0.0
C69 C 0.18991 0.53282 0.62295 0.0
Zn70 Zn 0.55007 0.82752 0.36212 0.0
Zn71 Zn 0.5648 0.79024 0.33549 0.0
O72 O 0.59341 0.81346 0.3365 0.0
O73 O 0.58083 0.84489 0.35702 0.0
O74 O 0.57883 0.76216 0.31744 0.0
O75 O 0.5465 0.80655 0.39206 0.0
O76 O 0.55475 0.77527 0.36889 0.0
C77 C 0.59716 0.83421 0.34528 0.0
C78 C 0.52133 0.81799 0.31809 0.0
O79 O 0.5365 0.80152 0.31413 0.0
O80 O 0.5231 0.83094 0.33733 0.0
C81 C 0.59217 0.76466 0.29853 0.0
O82 O 0.59545 0.78605 0.28931 0.0
C83 C 0.54876 0.78426 0.38972 0.0
Zn84 Zn 0.83728 0.45161 0.64897 0.0
Zn85 Zn 0.79578 0.43694 0.6666 0.0
O86 O 0.81894 0.40844 0.66888 0.0
O87 O 0.85157 0.41877 0.64916 0.0
O88 O 0.76527 0.42223 0.67853 0.0
O89 O 0.82057 0.46497 0.61891 0.0
O90 O 0.78672 0.44979 0.63203 0.0
C91 C 0.83972 0.40333 0.66095 0.0
C92 C 0.82281 0.47482 0.69479 0.0
O93 O 0.80337 0.46354 0.69162 0.0
O94 O 0.84013 0.47177 0.68003 0.0
C95 C 0.76464 0.41087 0.69895 0.0
O96 O 0.78384 0.41014 0.71291 0.0
C97 C 0.79851 0.46133 0.61582 0.0
Zn98 Zn 0.4433 0.1573 0.34776 0.0
Zn99 Zn 0.4332 0.20043 0.32986 0.0
O100 O 0.40227 0.18066 0.32567 0.0
O101 O 0.40944 0.14669 0.34462 0.0
O102 O 0.42257 0.23291 0.31886 0.0
O103 O 0.4537 0.17162 0.38012 0.0
O104 O 0.44429 0.20707 0.36573 0.0
C105 C 0.39527 0.16032 0.33318 0.0
C106 C 0.47065 0.17072 0.30386 0.0
O107 O 0.46021 0.19073 0.30614 0.0
O108 O 0.4659 0.15376 0.31857 0.0
C109 C 0.41006 0.23604 0.29943 0.0
O110 O 0.40535 0.21774 0.28502 0.0
C111 C 0.4519 0.19386 0.38324 0.0
Zn112 Zn 0.66672 0.9868 0.83413 0.0
Zn113 Zn 0.69925 0.95349 0.82281 0.0
O114 O 0.66795 0.93722 0.81271 0.0
O115 O 0.6409 0.96393 0.82267 0.0
O116 O 0.72417 0.92859 0.81653 0.0
O117 O 0.6777 0.98783 0.86959 0.0
O118 O 0.70382 0.95994 0.86038 0.0
C119 C 0.64622 0.94368 0.81387 0.0
C120 C 0.70057 0.00186 0.79696 0.0
O121 O 0.70879 0.98087 0.79941 0.0
O122 O 0.6829 0.00864 0.80977 0.0
C123 C 0.72626 0.91697 0.79636 0.0
O124 O 0.71141 0.92115 0.77797 0.0
C125 C 0.6944 0.97408 0.8761 0.0
Zn126 Zn 0.95171 0.32783 0.13323 0.0
Zn127 Zn 0.93813 0.28955 0.15927 0.0
O128 O 0.91231 0.31478 0.16603 0.0
O129 O 0.92369 0.34686 0.14591 0.0
O130 O 0.9244 0.26001 0.17476 0.0
O131 O 0.94936 0.31001 0.10088 0.0
O132 O 0.94362 0.27784 0.12335 0.0
C133 C 0.90902 0.33648 0.1601 0.0
C134 C 0.98527 0.31178 0.17181 0.0
O135 O 0.96913 0.29689 0.17765 0.0
O136 O 0.98243 0.32573 0.1535 0.0
C137 C 0.91096 0.25996 0.19377 0.0
O138 O 0.90711 0.27999 0.20574 0.0
C139 C 0.94701 0.28767 0.10232 0.0
Zn140 Zn 0.32129 0.01959 0.83406 0.0
Zn141 Zn 0.28975 0.04877 0.81459 0.0
O142 O 0.32178 0.06626 0.80891 0.0
O143 O 0.34805 0.03949 0.82067 0.0
O144 O 0.26489 0.07147 0.80172 0.0
O145 O 0.30932 0.02596 0.86837 0.0
O146 O 0.27919 0.04504 0.85129 0.0
C147 C 0.34339 0.0597 0.81151 0.0
C148 C 0.29262 0.99753 0.79646 0.0
O149 O 0.2853 0.01873 0.79305 0.0
O150 O 0.30704 0.99289 0.8139 0.0
C151 C 0.26818 0.08706 0.78495 0.0
O152 O 0.28912 0.08872 0.77421 0.0
C153 C 0.28956 0.03654 0.87039 0.0
Zn154 Zn 0.04398 0.66364 0.14804 0.0
Zn155 Zn 0.06033 0.70483 0.1643 0.0
O156 O 0.08972 0.68266 0.16206 0.0
O157 O 0.07672 0.64979 0.14459 0.0
O158 O 0.07551 0.73568 0.1746 0.0
O159 O 0.02784 0.67989 0.11945 0.0
O160 O 0.04356 0.71387 0.13147 0.0
C161 C 0.09371 0.66188 0.1535 0.0
C162 C 0.0255 0.67702 0.19621 0.0
O163 O 0.03694 0.69629 0.19249 0.0
O164 O 0.02655 0.66024 0.18051 0.0
C165 C 0.09069 0.73634 0.19214 0.0
O166 O 0.09513 0.71681 0.20475 0.0
C167 C 0.03081 0.702 0.11627 0.0
Zn168 Zn 0.67032 0.00809 0.17559 0.0
Zn169 Zn 0.70624 0.03875 0.18109 0.0
O170 O 0.67648 0.05997 0.18538 0.0
O171 O 0.64698 0.03529 0.17769 0.0
O172 O 0.7335 0.06171 0.18468 0.0
O173 O 0.68373 0.99728 0.14279 0.0
O174 O 0.7111 0.02524 0.14574 0.0
C175 C 0.65425 0.05604 0.18291 0.0
C176 C 0.69983 0.9974 0.21746 0.0
O177 O 0.71219 0.0148 0.20956 0.0
O178 O 0.68069 0.99148 0.20673 0.0
C179 C 0.73422 0.0769 0.2022 0.0
O180 O 0.71669 0.07768 0.21836 0.0
C181 C 0.70129 0.00834 0.13368 0.0
Zn182 Zn 0.03441 0.32315 0.85273 0.0
Zn183 Zn 0.05799 0.28952 0.8288 0.0
O184 O 0.08064 0.31858 0.82799 0.0
O185 O 0.0593 0.34746 0.84424 0.0
O186 O 0.0775 0.26363 0.81286 0.0
O187 O 0.03695 0.30526 0.8848 0.0
O188 O 0.05047 0.27481 0.86322 0.0
C189 C 0.07835 0.34039 0.83407 0.0
C190 C 0.00904 0.30385 0.81039 0.0
O191 O 0.02856 0.29298 0.80632 0.0
O192 O 0.00662 0.31674 0.82957 0.0
C193 C 0.09205 0.26727 0.79516 0.0
O194 O 0.09403 0.28877 0.78582 0.0
C195 C 0.0433 0.28371 0.88369 0.0
Zn196 Zn 0.33817 0.97585 0.15043 0.0
Zn197 Zn 0.29978 0.95085 0.16258 0.0
O198 O 0.328 0.92807 0.16957 0.0
O199 O 0.35986 0.94888 0.16011 0.0
O200 O 0.27106 0.93068 0.16992 0.0
O201 O 0.32657 0.97973 0.11555 0.0
O202 O 0.2936 0.96128 0.12623 0.0
C203 C 0.35059 0.92981 0.16799 0.0
C204 C 0.30961 0.9975 0.18914 0.0
O205 O 0.29712 0.97867 0.18727 0.0
O206 O 0.32771 0.00046 0.17546 0.0
C207 C 0.27014 0.91669 0.18845 0.0
O208 O 0.28837 0.91555 0.20374 0.0
C209 C 0.30585 0.97255 0.11014 0.0
Zn210 Zn 0.97281 0.67816 0.842 0.0
Zn211 Zn 0.94541 0.71269 0.82468 0.0
O212 O 0.92496 0.68259 0.8191 0.0
O213 O 0.94918 0.65374 0.83027 0.0
O214 O 0.92348 0.73916 0.81451 0.0
O215 O 0.97016 0.69056 0.87676 0.0
O216 O 0.95176 0.72186 0.86135 0.0
C217 C 0.92928 0.66046 0.82169 0.0
C218 C 0.9947 0.70519 0.80257 0.0
O219 O 0.97432 0.71511 0.80125 0.0
O220 O 0.99887 0.68981 0.81922 0.0
C221 C 0.91035 0.73934 0.79526 0.0
O222 O 0.91148 0.72153 0.77945 0.0
C223 C 0.96082 0.71082 0.87974 0.0
C224 C 0.26578 0.39406 0.27096 0.0
C225 C 0.26341 0.4102 0.29079 0.0
C226 C 0.28482 0.37805 0.27027 0.0
C227 C 0.32747 0.34851 0.31223 0.0
H228 H 0.3568 0.32778 0.25062 0.0
C229 C 0.40148 0.27808 0.31205 0.0
C230 C 0.39825 0.25924 0.29514 0.0
C231 C 0.38803 0.29889 0.30994 0.0
C232 C 0.34872 0.33337 0.26795 0.0
H233 H 0.27975 0.42293 0.32487 0.0
H234 H 0.3132 0.39533 0.32341 0.0
H235 H 0.32778 0.36018 0.24999 0.0
H236 H 0.37929 0.24803 0.26196 0.0
H237 H 0.35575 0.28435 0.25836 0.0
H238 H 0.34811 0.32156 0.33015 0.0
C239 C 0.30006 0.39466 0.30867 0.0
C240 C 0.33207 0.35189 0.26761 0.0
C241 C 0.28095 0.41058 0.30944 0.0
C242 C 0.38217 0.26218 0.27533 0.0
C243 C 0.36875 0.28304 0.27319 0.0
C244 C 0.34416 0.33012 0.31258 0.0
C245 C 0.302 0.37791 0.28931 0.0
C246 C 0.32102 0.35949 0.28972 0.0
C247 C 0.37111 0.30137 0.29084 0.0
C248 C 0.35478 0.32215 0.29043 0.0
H249 H 0.25256 0.39327 0.25631 0.0
H250 H 0.28556 0.36523 0.25524 0.0
H251 H 0.31901 0.35356 0.32955 0.0
H252 H 0.41384 0.27649 0.32743 0.0
H253 H 0.39052 0.31286 0.32358 0.0
C254 C 0.37797 0.7457 0.72205 0.0
C255 C 0.39315 0.74523 0.70129 0.0
C256 C 0.36371 0.72604 0.72772 0.0
C257 C 0.35252 0.66224 0.71161 0.0
H258 H 0.28684 0.6792 0.72501 0.0
C259 C 0.2726 0.60138 0.689 0.0
C260 C 0.25309 0.60131 0.70536 0.0
C261 C 0.29187 0.61664 0.69308 0.0
C262 C 0.30517 0.67408 0.72172 0.0
H263 H 0.4064 0.72315 0.67117 0.0
H264 H 0.3813 0.68923 0.68069 0.0
H265 H 0.31716 0.71001 0.72466 0.0
H266 H 0.23902 0.61649 0.73946 0.0
H267 H 0.27263 0.64312 0.74651 0.0
H268 H 0.34014 0.62636 0.70761 0.0
C269 C 0.38052 0.70459 0.69284 0.0
C270 C 0.32262 0.69177 0.72159 0.0
C271 C 0.39485 0.72417 0.68727 0.0
C272 C 0.25369 0.61618 0.7264 0.0
C273 C 0.2729 0.63152 0.73041 0.0
C274 C 0.33501 0.64455 0.71159 0.0
C275 C 0.36424 0.70553 0.71268 0.0
C276 C 0.34644 0.68617 0.71605 0.0
C277 C 0.292 0.63223 0.71355 0.0
C278 C 0.31107 0.65036 0.71619 0.0
H279 H 0.37639 0.76157 0.73338 0.0
H280 H 0.35173 0.72719 0.74345 0.0
H281 H 0.37075 0.65724 0.70768 0.0
H282 H 0.27272 0.5901 0.67265 0.0
H283 H 0.3062 0.61692 0.67962 0.0
C284 C 0.62407 0.7476 0.27118 0.0
C285 C 0.60649 0.74429 0.28945 0.0
C286 C 0.63978 0.72917 0.26514 0.0
C287 C 0.65088 0.66426 0.2731 0.0
H288 H 0.71723 0.68331 0.27353 0.0
C289 C 0.72717 0.60136 0.30049 0.0
C290 C 0.74949 0.60383 0.28897 0.0
C291 C 0.70852 0.61684 0.2947 0.0
C292 C 0.69881 0.67766 0.27282 0.0
H293 H 0.59075 0.71859 0.31464 0.0
H294 H 0.61822 0.68665 0.30433 0.0
H295 H 0.68628 0.71356 0.27352 0.0
H296 H 0.76936 0.62377 0.2614 0.0
H297 H 0.7367 0.65078 0.25122 0.0
H298 H 0.66352 0.6283 0.27334 0.0
C299 C 0.61981 0.70338 0.29449 0.0
C300 C 0.68102 0.69503 0.27281 0.0
C301 C 0.60413 0.72178 0.30053 0.0
C302 C 0.75242 0.62146 0.27071 0.0
C303 C 0.73376 0.63701 0.26496 0.0
C304 C 0.66868 0.64687 0.27314 0.0
C305 C 0.63822 0.70704 0.27719 0.0
C306 C 0.65685 0.68855 0.27358 0.0
C307 C 0.71174 0.63518 0.27727 0.0
C308 C 0.69285 0.65338 0.27363 0.0
H309 H 0.62628 0.76468 0.26216 0.0
H310 H 0.65355 0.73245 0.25146 0.0
H311 H 0.63242 0.65868 0.27327 0.0
H312 H 0.72426 0.58793 0.31459 0.0
H313 H 0.69191 0.61507 0.30475 0.0
C314 C 0.60839 0.26644 0.68684 0.0
C315 C 0.60972 0.24641 0.70241 0.0
C316 C 0.62209 0.28664 0.69183 0.0
C317 C 0.67805 0.30317 0.7223 0.0
H318 H 0.6576 0.36739 0.70687 0.0
C319 C 0.74379 0.38146 0.72636 0.0
C320 C 0.74359 0.39623 0.70528 0.0
C321 C 0.72515 0.36552 0.73066 0.0
C322 C 0.66357 0.34955 0.71124 0.0
H323 H 0.6255 0.23239 0.73621 0.0
H324 H 0.64925 0.26776 0.74502 0.0
H325 H 0.62866 0.33496 0.70625 0.0
H326 H 0.72304 0.40671 0.67289 0.0
H327 H 0.69073 0.37877 0.68024 0.0
H328 H 0.71305 0.31752 0.72651 0.0
C329 C 0.63789 0.26767 0.72872 0.0
C330 C 0.647 0.33099 0.71088 0.0
C331 C 0.62419 0.24745 0.72374 0.0
C332 C 0.72379 0.39554 0.68928 0.0
C333 C 0.70516 0.37961 0.69359 0.0
C334 C 0.69459 0.32171 0.72266 0.0
C335 C 0.63741 0.28728 0.71251 0.0
C336 C 0.65417 0.3075 0.71589 0.0
C337 C 0.70589 0.36402 0.714 0.0
C338 C 0.68766 0.34503 0.71662 0.0
H339 H 0.59739 0.26626 0.67028 0.0
H340 H 0.62146 0.30131 0.6788 0.0
H341 H 0.68427 0.28525 0.72588 0.0
H342 H 0.7587 0.38166 0.73915 0.0
H343 H 0.72606 0.35399 0.74677 0.0
C344 C 0.74705 0.8846 0.77244 0.0
C345 C 0.74508 0.89865 0.794 0.0
C346 C 0.76459 0.86696 0.77072 0.0
C347 C 0.80364 0.8301 0.81049 0.0
H348 H 0.84044 0.82044 0.75029 0.0
C349 C 0.88954 0.77567 0.8109 0.0
C350 C 0.89237 0.7584 0.79221 0.0
C351 C 0.87138 0.7925 0.80937 0.0
C352 C 0.83011 0.8228 0.76712 0.0
H353 H 0.76031 0.90551 0.83044 0.0
H354 H 0.79089 0.87514 0.82731 0.0
H355 H 0.8087 0.85034 0.75094 0.0
H356 H 0.87883 0.74586 0.75673 0.0
H357 H 0.84702 0.77559 0.754 0.0
H358 H 0.8252 0.80293 0.82681 0.0
C359 C 0.77865 0.87736 0.8119 0.0
C360 C 0.81193 0.83987 0.7675 0.0
C361 C 0.76118 0.89491 0.81362 0.0
C362 C 0.87709 0.75889 0.77147 0.0
C363 C 0.85893 0.77593 0.76986 0.0
C364 C 0.82181 0.8132 0.81014 0.0
C365 C 0.78045 0.86301 0.79055 0.0
C366 C 0.79875 0.84395 0.78934 0.0
C367 C 0.85564 0.79259 0.78906 0.0
C368 C 0.83548 0.80962 0.7886 0.0
H369 H 0.73492 0.88705 0.75698 0.0
H370 H 0.76542 0.85611 0.75409 0.0
H371 H 0.79344 0.83235 0.82742 0.0
H372 H 0.90105 0.77593 0.82708 0.0
H373 H 0.86952 0.8054 0.82424 0.0
C374 C 0.75394 0.11253 0.22135 0.0
C375 C 0.75435 0.09381 0.20401 0.0
C376 C 0.77263 0.12895 0.2224 0.0
C377 C 0.8213 0.15305 0.18379 0.0
H378 H 0.84389 0.17951 0.24615 0.0
C379 C 0.9003 0.21738 0.18596 0.0
C380 C 0.8969 0.23841 0.19968 0.0
C381 C 0.88483 0.19815 0.18881 0.0
C382 C 0.83768 0.17234 0.2286 0.0
H383 H 0.77505 0.07722 0.17466 0.0
H384 H 0.80774 0.10555 0.17678 0.0
H385 H 0.81295 0.14891 0.24646 0.0
H386 H 0.87538 0.25518 0.22826 0.0
H387 H 0.84827 0.22158 0.23314 0.0
H388 H 0.84581 0.1765 0.1659 0.0
C389 C 0.79277 0.10789 0.18923 0.0
C390 C 0.81993 0.15486 0.22876 0.0
C391 C 0.77406 0.09157 0.1881 0.0
C392 C 0.87848 0.23926 0.21736 0.0
C393 C 0.86298 0.21997 0.22022 0.0
C394 C 0.83906 0.1704 0.18365 0.0
C395 C 0.79217 0.12695 0.20619 0.0
C396 C 0.81147 0.14507 0.20632 0.0
C397 C 0.86559 0.19948 0.20545 0.0
C398 C 0.84742 0.18029 0.20602 0.0
H399 H 0.739 0.11478 0.23385 0.0
H400 H 0.77145 0.14357 0.23549 0.0
H401 H 0.81488 0.1463 0.16614 0.0
H402 H 0.91445 0.21603 0.17234 0.0
H403 H 0.88759 0.18242 0.17752 0.0
C404 C 0.12683 0.25252 0.77025 0.0
C405 C 0.10804 0.24791 0.78682 0.0
C406 C 0.1432 0.23465 0.76424 0.0
C407 C 0.15313 0.16937 0.76696 0.0
H408 H 0.21975 0.18667 0.77264 0.0
C409 C 0.22636 0.10161 0.78983 0.0
C410 C 0.24896 0.10416 0.77896 0.0
C411 C 0.20863 0.11857 0.78574 0.0
C412 C 0.20126 0.18159 0.77049 0.0
H413 H 0.09117 0.22067 0.8093 0.0
H414 H 0.1197 0.18967 0.79897 0.0
H415 H 0.18936 0.21757 0.77427 0.0
H416 H 0.27043 0.12618 0.7546 0.0
H417 H 0.23935 0.15585 0.74743 0.0
H418 H 0.16502 0.1333 0.76393 0.0
C419 C 0.12174 0.20699 0.79044 0.0
C420 C 0.18382 0.19931 0.77142 0.0
C421 C 0.10546 0.22484 0.79651 0.0
C422 C 0.25322 0.12373 0.76331 0.0
C423 C 0.23547 0.14078 0.7593 0.0
C424 C 0.17055 0.15166 0.76602 0.0
C425 C 0.14103 0.21178 0.77457 0.0
C426 C 0.15954 0.19334 0.77028 0.0
C427 C 0.21307 0.13852 0.77072 0.0
C428 C 0.19479 0.15751 0.76839 0.0
H429 H 0.12929 0.27009 0.7624 0.0
H430 H 0.15774 0.23881 0.75175 0.0
H431 H 0.13458 0.16425 0.76557 0.0
H432 H 0.22244 0.08674 0.80196 0.0
H433 H 0.19169 0.11644 0.7951 0.0
C434 C 0.2292 0.90328 0.17646 0.0
C435 C 0.24928 0.90095 0.19189 0.0
C436 C 0.21004 0.8876 0.17868 0.0
C437 C 0.18274 0.84245 0.2202 0.0
H438 H 0.15589 0.81872 0.1585 0.0
C439 C 0.12419 0.75784 0.21327 0.0
C440 C 0.10534 0.75792 0.19604 0.0
C441 C 0.13977 0.77719 0.21482 0.0
C442 C 0.1629 0.82543 0.17593 0.0
H443 H 0.26474 0.88065 0.22216 0.0
H444 H 0.23147 0.853 0.22574 0.0
H445 H 0.18692 0.84882 0.15726 0.0
H446 H 0.08732 0.77892 0.16787 0.0
H447 H 0.11438 0.81268 0.17075 0.0
H448 H 0.15895 0.81852 0.23879 0.0
C449 C 0.23038 0.86717 0.21215 0.0
C450 C 0.18071 0.84272 0.17522 0.0
C451 C 0.24952 0.88294 0.21 0.0
C452 C 0.10176 0.77819 0.18122 0.0
C453 C 0.11735 0.7975 0.18275 0.0
C454 C 0.16492 0.82506 0.2209 0.0
C455 C 0.21054 0.86912 0.19629 0.0
C456 C 0.19094 0.85138 0.19732 0.0
C457 C 0.13684 0.79699 0.19916 0.0
C458 C 0.15488 0.8163 0.19875 0.0
H459 H 0.22835 0.91709 0.16245 0.0
H460 H 0.19486 0.88988 0.16647 0.0
H461 H 0.19002 0.84895 0.23758 0.0
H462 H 0.12743 0.74251 0.22498 0.0
H463 H 0.15471 0.77618 0.22754 0.0
C464 C 0.18463 0.51219 0.24006 0.0
C465 C 0.19883 0.51285 0.26147 0.0
C466 C 0.18584 0.5305 0.22265 0.0
C467 C 0.19062 0.59308 0.22344 0.0
H468 H 0.18272 0.58643 0.15213 0.0
C469 C 0.1352 0.66144 0.17109 0.0
C470 C 0.11731 0.65052 0.15675 0.0
C471 C 0.15537 0.64855 0.1784 0.0
C472 C 0.18499 0.58871 0.172 0.0
H473 H 0.22611 0.53235 0.28132 0.0
H474 H 0.22755 0.56524 0.25116 0.0
H475 H 0.20063 0.55411 0.17601 0.0
H476 H 0.10774 0.61834 0.13678 0.0
H477 H 0.14213 0.59586 0.14996 0.0
H478 H 0.17282 0.62643 0.22012 0.0
C479 C 0.21598 0.5502 0.24756 0.0
C480 C 0.19544 0.57026 0.18559 0.0
C481 C 0.2152 0.53146 0.26472 0.0
C482 C 0.12103 0.62724 0.14807 0.0
C483 C 0.14102 0.61437 0.15546 0.0
C484 C 0.17983 0.61136 0.20993 0.0
C485 C 0.20083 0.55014 0.22672 0.0
C486 C 0.1972 0.57182 0.21159 0.0
C487 C 0.15797 0.62448 0.17161 0.0
C488 C 0.17564 0.6088 0.18424 0.0
H489 H 0.1718 0.49802 0.23736 0.0
H490 H 0.1737 0.53016 0.20699 0.0
H491 H 0.19163 0.59468 0.2435 0.0
H492 H 0.13301 0.67947 0.17785 0.0
H493 H 0.16829 0.65708 0.19041 0.0
C494 C 0.49009 0.82784 0.70614 0.0
C495 C 0.48473 0.83933 0.68358 0.0
C496 C 0.50758 0.83705 0.72209 0.0
C497 C 0.55448 0.85486 0.74563 0.0
H498 H 0.55469 0.92344 0.75373 0.0
C499 C 0.63279 0.90799 0.78937 0.0
C500 C 0.62719 0.92833 0.80347 0.0
C501 C 0.61483 0.89509 0.77733 0.0
C502 C 0.55475 0.90425 0.75197 0.0
H503 H 0.49418 0.86906 0.65977 0.0
H504 H 0.52454 0.88485 0.68734 0.0
H505 H 0.52465 0.90484 0.72765 0.0
H506 H 0.59815 0.95018 0.81718 0.0
H507 H 0.56693 0.92756 0.79654 0.0
H508 H 0.58467 0.8544 0.77013 0.0
C509 C 0.515 0.869 0.69296 0.0
C510 C 0.53769 0.8936 0.73673 0.0
C511 C 0.49764 0.85983 0.67707 0.0
C512 C 0.60315 0.93478 0.80623 0.0
C513 C 0.58523 0.92187 0.7943 0.0
C514 C 0.57167 0.86557 0.76089 0.0
C515 C 0.51994 0.85797 0.71582 0.0
C516 C 0.5375 0.86884 0.73313 0.0
C517 C 0.59089 0.90223 0.7792 0.0
C518 C 0.57207 0.89042 0.7641 0.0
H519 H 0.48049 0.81201 0.7117 0.0
H520 H 0.51095 0.8282 0.73963 0.0
H521 H 0.55484 0.83574 0.74315 0.0
H522 H 0.65113 0.90251 0.78687 0.0
H523 H 0.61981 0.88014 0.76572 0.0
C524 C 0.8848 0.37375 0.16418 0.0
C525 C 0.88974 0.35039 0.17202 0.0
C526 C 0.86962 0.38834 0.17804 0.0
C527 C 0.85484 0.3977 0.24228 0.0
H528 H 0.80785 0.44258 0.21799 0.0
C529 C 0.81667 0.46711 0.30865 0.0
C530 C 0.81364 0.49019 0.29931 0.0
C531 C 0.82006 0.44796 0.29251 0.0
C532 C 0.82107 0.4303 0.22507 0.0
H533 H 0.88122 0.3235 0.19955 0.0
H534 H 0.85506 0.34916 0.22393 0.0
H535 H 0.82429 0.41258 0.18979 0.0
H536 H 0.81079 0.5114 0.26588 0.0
H537 H 0.8181 0.47823 0.23755 0.0
H538 H 0.8532 0.41599 0.27688 0.0
C539 C 0.86299 0.35612 0.20708 0.0
C540 C 0.83032 0.41303 0.20893 0.0
C541 C 0.87793 0.34143 0.19307 0.0
C542 C 0.81301 0.49369 0.27349 0.0
C543 C 0.81708 0.4746 0.25728 0.0
C544 C 0.84598 0.41513 0.25823 0.0
C545 C 0.8593 0.37992 0.20012 0.0
C546 C 0.84743 0.3967 0.21739 0.0
C547 C 0.82132 0.45155 0.26663 0.0
C548 C 0.82911 0.43185 0.24986 0.0
H549 H 0.89348 0.38113 0.14795 0.0
H550 H 0.86717 0.40666 0.17233 0.0
H551 H 0.86838 0.38564 0.24917 0.0
H552 H 0.81687 0.46393 0.32853 0.0
H553 H 0.82239 0.43043 0.30046 0.0
C554 C 0.5066 0.1741 0.71803 0.0
C555 C 0.52263 0.15603 0.71122 0.0
C556 C 0.48751 0.16906 0.73393 0.0
C557 C 0.44037 0.14326 0.74758 0.0
H558 H 0.44719 0.10634 0.80803 0.0
C559 C 0.38676 0.06667 0.80456 0.0
C560 C 0.3633 0.07535 0.80383 0.0
C561 C 0.40576 0.0809 0.79714 0.0
C562 C 0.44494 0.11657 0.79114 0.0
H563 H 0.53231 0.1191 0.71679 0.0
H564 H 0.49955 0.11055 0.74517 0.0
H565 H 0.48234 0.12371 0.78857 0.0
H566 H 0.34147 0.10605 0.79503 0.0
H567 H 0.3749 0.13118 0.78231 0.0
H568 H 0.40325 0.13481 0.74906 0.0
C569 C 0.5015 0.12847 0.73804 0.0
C570 C 0.46506 0.12665 0.78015 0.0
C571 C 0.52017 0.13333 0.72174 0.0
C572 C 0.35933 0.0988 0.79571 0.0
C573 C 0.37848 0.11317 0.78837 0.0
C574 C 0.42024 0.13288 0.75838 0.0
C575 C 0.48462 0.14608 0.74374 0.0
C576 C 0.46304 0.13948 0.75789 0.0
C577 C 0.40194 0.10434 0.78894 0.0
C578 C 0.42242 0.11871 0.77983 0.0
H579 H 0.50803 0.19171 0.71 0.0
H580 H 0.47469 0.18291 0.73808 0.0
H581 H 0.4384 0.15293 0.73028 0.0
H582 H 0.39052 0.04867 0.81057 0.0
H583 H 0.42344 0.07322 0.79724 0.0
C584 C 0.15623 0.50717 0.74303 0.0
C585 C 0.17582 0.5081 0.7269 0.0
C586 C 0.15452 0.4892 0.76079 0.0
C587 C 0.16646 0.42767 0.76609 0.0
H588 H 0.14338 0.43564 0.83353 0.0
C589 C 0.11849 0.35098 0.81642 0.0
C590 C 0.09724 0.3579 0.8282 0.0
C591 C 0.1352 0.36808 0.80906 0.0
C592 C 0.1498 0.43305 0.81473 0.0
H593 H 0.20945 0.49173 0.71713 0.0
H594 H 0.20594 0.45943 0.74776 0.0
H595 H 0.16049 0.46954 0.81155 0.0
H596 H 0.07739 0.38815 0.84239 0.0
H597 H 0.10584 0.41771 0.82904 0.0
H598 H 0.15392 0.39186 0.76824 0.0
C599 C 0.19224 0.47298 0.74694 0.0
C600 C 0.15979 0.45242 0.80229 0.0
C601 C 0.19427 0.49142 0.72955 0.0
C602 C 0.09353 0.38213 0.83333 0.0
C603 C 0.11007 0.39916 0.82588 0.0
C604 C 0.1561 0.40837 0.77838 0.0
C605 C 0.17208 0.47149 0.76233 0.0
C606 C 0.16736 0.45011 0.77754 0.0
C607 C 0.13095 0.39245 0.81326 0.0
C608 C 0.14669 0.41111 0.80247 0.0
H609 H 0.14179 0.51986 0.7413 0.0
H610 H 0.13867 0.48829 0.77223 0.0
H611 H 0.17198 0.4255 0.74692 0.0
H612 H 0.12197 0.33242 0.81236 0.0
H613 H 0.15122 0.36224 0.79966 0.0
C614 C 0.3911 0.9127 0.17539 0.0
C615 C 0.36623 0.91045 0.17718 0.0
C616 C 0.40612 0.89623 0.18682 0.0
C617 C 0.40627 0.8557 0.24006 0.0
H618 H 0.47 0.84176 0.21644 0.0
C619 C 0.50059 0.81102 0.27709 0.0
C620 C 0.50163 0.8225 0.30033 0.0
C621 C 0.48235 0.81641 0.26018 0.0
C622 C 0.45214 0.84508 0.22318 0.0
H623 H 0.33765 0.88819 0.1911 0.0
H624 H 0.36396 0.85922 0.21091 0.0
H625 H 0.44106 0.85979 0.18831 0.0
H626 H 0.48394 0.8482 0.3242 0.0
H627 H 0.45257 0.85762 0.29489 0.0
H628 H 0.41742 0.84134 0.27501 0.0
C629 C 0.37181 0.87401 0.20097 0.0
C630 C 0.43562 0.85566 0.20713 0.0
C631 C 0.35673 0.89055 0.18951 0.0
C632 C 0.48377 0.83902 0.30647 0.0
C633 C 0.46558 0.84428 0.28971 0.0
C634 C 0.42274 0.84509 0.25605 0.0
C635 C 0.39669 0.87701 0.20032 0.0
C636 C 0.41274 0.86185 0.21565 0.0
C637 C 0.4647 0.8332 0.2663 0.0
C638 C 0.44612 0.84044 0.24808 0.0
H639 H 0.39906 0.92773 0.16594 0.0
H640 H 0.42514 0.89932 0.18615 0.0
H641 H 0.38889 0.8603 0.24735 0.0
H642 H 0.51406 0.79819 0.2718 0.0
H643 H 0.48209 0.8075 0.24231 0.0
C644 C 0.84752 0.49362 0.72757 0.0
C645 C 0.82555 0.49197 0.71527 0.0
C646 C 0.8516 0.51166 0.74484 0.0
C647 C 0.83917 0.57257 0.7546 0.0
H648 H 0.87027 0.56263 0.81816 0.0
C649 C 0.88888 0.64882 0.80527 0.0
C650 C 0.91144 0.64233 0.81441 0.0
C651 C 0.87262 0.63134 0.79768 0.0
C652 C 0.86161 0.56575 0.80046 0.0
H653 H 0.79035 0.50735 0.71164 0.0
H654 H 0.79792 0.53985 0.74139 0.0
H655 H 0.85157 0.52912 0.79685 0.0
H656 H 0.93439 0.61236 0.82309 0.0
H657 H 0.90659 0.58226 0.80939 0.0
H658 H 0.85084 0.60872 0.75707 0.0
C659 C 0.8117 0.52677 0.73796 0.0
C660 C 0.85074 0.54661 0.78842 0.0
C661 C 0.80738 0.50823 0.72109 0.0
C662 C 0.91718 0.61806 0.81621 0.0
C663 C 0.90106 0.6007 0.80858 0.0
C664 C 0.85037 0.5917 0.76647 0.0
C665 C 0.83398 0.52874 0.74971 0.0
C666 C 0.84019 0.54969 0.765 0.0
C667 C 0.87862 0.60706 0.79907 0.0
C668 C 0.86258 0.58827 0.78905 0.0
H669 H 0.86177 0.48125 0.72338 0.0
H670 H 0.869 0.51297 0.75345 0.0
H671 H 0.8313 0.5753 0.73642 0.0
H672 H 0.88387 0.66737 0.80375 0.0
H673 H 0.85543 0.63685 0.79059 0.0
C674 C 0.61216 0.07022 0.18511 0.0
C675 C 0.63659 0.07515 0.18747 0.0
C676 C 0.59518 0.08719 0.19164 0.0
C677 C 0.58765 0.13889 0.23271 0.0
H678 H 0.52455 0.13809 0.20333 0.0
C679 C 0.50501 0.18443 0.27773 0.0
C680 C 0.48842 0.16676 0.28413 0.0
C681 C 0.52353 0.17926 0.26109 0.0
C682 C 0.54219 0.1388 0.21148 0.0
H683 H 0.66232 0.10233 0.19743 0.0
H684 H 0.6325 0.13223 0.20858 0.0
H685 H 0.55746 0.11852 0.18187 0.0
H686 H 0.47722 0.13045 0.2773 0.0
H687 H 0.5089 0.12174 0.24766 0.0
H688 H 0.57201 0.15876 0.26262 0.0
C689 C 0.62655 0.115 0.20202 0.0
C690 C 0.561 0.12744 0.19935 0.0
C691 C 0.64364 0.09791 0.19552 0.0
C692 C 0.48986 0.14434 0.27273 0.0
C693 C 0.50786 0.13941 0.25568 0.0
C694 C 0.56886 0.15059 0.24465 0.0
C695 C 0.60209 0.10968 0.20059 0.0
C696 C 0.5837 0.12632 0.21042 0.0
C697 C 0.52515 0.15661 0.2501 0.0
C698 C 0.54579 0.14973 0.23465 0.0
H699 H 0.60604 0.05292 0.17894 0.0
H700 H 0.57659 0.08217 0.19071 0.0
H701 H 0.60481 0.13832 0.2419 0.0
H702 H 0.5043 0.20181 0.28642 0.0
H703 H 0.53677 0.19274 0.2571 0.0
C704 C 0.71834 0.00952 0.75502 0.0
C705 C 0.71014 0.01817 0.77798 0.0
C706 C 0.72186 0.0252 0.73512 0.0
C707 C 0.72103 0.08942 0.71702 0.0
H708 H 0.67513 0.06793 0.66813 0.0
C709 C 0.64925 0.14927 0.67805 0.0
C710 C 0.63647 0.14238 0.6568 0.0
C711 C 0.66922 0.13632 0.68561 0.0
C712 C 0.68859 0.0743 0.68093 0.0
H713 H 0.70193 0.04994 0.79916 0.0
H714 H 0.70821 0.07717 0.76478 0.0
H715 H 0.69294 0.0395 0.69606 0.0
H716 H 0.6363 0.11874 0.62493 0.0
H717 H 0.67176 0.09681 0.63747 0.0
H718 H 0.71561 0.12452 0.70267 0.0
C719 C 0.71185 0.05844 0.76186 0.0
C720 C 0.69887 0.05782 0.69706 0.0
C721 C 0.70798 0.04281 0.78153 0.0
C722 C 0.64557 0.12411 0.64171 0.0
C723 C 0.66583 0.11148 0.64898 0.0
C724 C 0.71093 0.10593 0.70066 0.0
C725 C 0.7176 0.04972 0.73811 0.0
C726 C 0.714 0.06543 0.71628 0.0
C727 C 0.67703 0.11646 0.67183 0.0
C728 C 0.69338 0.09877 0.68349 0.0
H729 H 0.72019 0.99057 0.75186 0.0
H730 H 0.72641 0.01802 0.71703 0.0
H731 H 0.73298 0.09571 0.73142 0.0
H732 H 0.64269 0.16335 0.69001 0.0
H733 H 0.67717 0.14074 0.70338 0.0
C734 C 0.12478 0.40034 0.30712 0.0
C735 C 0.14782 0.40583 0.29869 0.0
C736 C 0.11133 0.38275 0.29531 0.0
C737 C 0.10158 0.36205 0.23374 0.0
H738 H 0.06146 0.31374 0.2635 0.0
C739 C 0.02898 0.3181 0.17509 0.0
C740 C 0.00711 0.31381 0.18681 0.0
C741 C 0.0493 0.32301 0.18916 0.0
C742 C 0.07236 0.3273 0.25488 0.0
H743 H 0.17539 0.39629 0.2723 0.0
H744 H 0.15146 0.36597 0.2511 0.0
H745 H 0.09175 0.33367 0.28871 0.0
H746 H 0.98928 0.31046 0.22227 0.0
H747 H 0.02426 0.32058 0.24694 0.0
H748 H 0.08133 0.35755 0.20064 0.0
C749 C 0.14403 0.37512 0.26705 0.0
C750 C 0.08986 0.33849 0.2693 0.0
C751 C 0.1577 0.39239 0.27921 0.0
C752 C 0.00603 0.3136 0.21285 0.0
C753 C 0.02621 0.31927 0.22696 0.0
C754 C 0.08381 0.35131 0.2195 0.0
C755 C 0.1205 0.37065 0.27458 0.0
C756 C 0.10439 0.35618 0.2589 0.0
C757 C 0.04803 0.32465 0.21527 0.0
C758 C 0.06863 0.33403 0.22992 0.0
H759 H 0.11678 0.41035 0.32218 0.0
H760 H 0.09317 0.37976 0.30134 0.0
H761 H 0.11227 0.37596 0.2254 0.0
H762 H 0.03027 0.31802 0.15498 0.0
H763 H 0.06584 0.32617 0.1794 0.0
C764 C 0.28704 0.98209 0.75335 0.0
C765 C 0.2862 0.97833 0.77911 0.0
C766 C 0.28696 0.96268 0.73702 0.0
C767 C 0.30608 0.90025 0.73946 0.0
H768 H 0.2922 0.90239 0.66887 0.0
C769 C 0.35109 0.83404 0.6754 0.0
C770 C 0.36391 0.84553 0.65645 0.0
C771 C 0.33253 0.84579 0.68759 0.0
C772 C 0.29598 0.90143 0.6886 0.0
H773 H 0.28169 0.95197 0.80803 0.0
H774 H 0.28006 0.91822 0.77961 0.0
H775 H 0.27468 0.93214 0.69661 0.0
H776 H 0.36561 0.87734 0.63366 0.0
H777 H 0.33365 0.89792 0.65518 0.0
H778 H 0.32811 0.87034 0.73152 0.0
C779 C 0.28198 0.93591 0.7719 0.0
C780 C 0.28603 0.91851 0.70448 0.0
C781 C 0.28272 0.95522 0.78819 0.0
C782 C 0.3563 0.86808 0.64839 0.0
C783 C 0.33778 0.87983 0.6606 0.0
C784 C 0.31582 0.88317 0.72369 0.0
C785 C 0.28556 0.93925 0.74624 0.0
C786 C 0.29169 0.91865 0.72999 0.0
C787 C 0.32645 0.86926 0.6811 0.0
C788 C 0.31163 0.88406 0.69796 0.0
H789 H 0.2898 -0.00019 0.74596 0.0
H790 H 0.28986 0.96604 0.71744 0.0
H791 H 0.31132 0.89988 0.75883 0.0
H792 H 0.35627 0.81652 0.68184 0.0
H793 H 0.32382 0.83702 0.70304 0.0
C794 C 0.85806 0.61498 0.30805 0.0
C795 C 0.86082 0.60269 0.33058 0.0
C796 C 0.87605 0.63016 0.29956 0.0
C797 C 0.94091 0.6358 0.30632 0.0
H798 H 0.93241 0.68667 0.25848 0.0
C799 C -0.00048 0.69347 0.23025 0.0
C800 C 0.01022 0.67395 0.2183 0.0
C801 C 0.98272 0.68979 0.24915 0.0
C802 C 0.93514 0.67284 0.27221 0.0
H803 H 0.88317 0.59851 0.36316 0.0
H804 H 0.91401 0.62568 0.34893 0.0
H805 H 0.89836 0.67283 0.28283 0.0
H806 H 0.01277 0.63544 0.21759 0.0
H807 H 0.98394 0.62909 0.25043 0.0
H808 H 0.97747 0.63541 0.29534 0.0
C809 C 0.89854 0.62292 0.33725 0.0
C810 C 0.91559 0.6647 0.28593 0.0
C811 C 0.88082 0.60743 0.34547 0.0
C812 C 0.00474 0.65085 0.22636 0.0
C813 C 0.98834 0.64721 0.24535 0.0
C814 C 0.96037 0.64398 0.29273 0.0
C815 C 0.89693 0.63361 0.31367 0.0
C816 C 0.91808 0.64548 0.3025 0.0
C817 C 0.97681 0.66656 0.25666 0.0
C818 C 0.95751 0.66189 0.27481 0.0
H819 H 0.8428 0.61164 0.29622 0.0
H820 H 0.87421 0.63792 0.28124 0.0
H821 H 0.94361 0.62084 0.31867 0.0
H822 H 0.00338 0.71147 0.2243 0.0
H823 H 0.97411 0.70502 0.25762 0.0
C824 C 0.69562 0.98598 0.26151 0.0
C825 C 0.70753 0.98324 0.23882 0.0
C826 C 0.69647 0.96794 0.27931 0.0
C827 C 0.69607 0.90435 0.27654 0.0
H828 H 0.68526 0.91024 0.34745 0.0
C829 C 0.63799 0.83598 0.3262 0.0
C830 C 0.61994 0.84665 0.34047 0.0
C831 C 0.6581 0.84906 0.31918 0.0
C832 C 0.68833 0.90821 0.32768 0.0
H833 H 0.73101 0.96074 0.21732 0.0
H834 H 0.73259 0.929 0.2485 0.0
H835 H 0.70587 0.94202 0.3252 0.0
H836 H 0.60968 0.87887 0.36003 0.0
H837 H 0.64401 0.9017 0.34725 0.0
H838 H 0.67683 0.87172 0.27835 0.0
C839 C 0.72273 0.94509 0.25268 0.0
C840 C 0.70026 0.92635 0.315 0.0
C841 C 0.72199 0.96326 0.23494 0.0
C842 C 0.62313 0.87012 0.34886 0.0
C843 C 0.64308 0.88319 0.34175 0.0
C844 C 0.68396 0.88636 0.28914 0.0
C845 C 0.70893 0.94672 0.27443 0.0
C846 C 0.70318 0.92512 0.28909 0.0
C847 C 0.66048 0.87309 0.32618 0.0
C848 C 0.67883 0.88866 0.31462 0.0
H849 H 0.68404 0.00112 0.26459 0.0
H850 H 0.68542 0.96966 0.29572 0.0
H851 H 0.69781 0.9029 0.25653 0.0
H852 H 0.63621 0.81782 0.31969 0.0
H853 H 0.67134 0.8406 0.30752 0.0
C854 C 0.8748 0.37582 0.66096 0.0
C855 C 0.85158 0.38111 0.66908 0.0
C856 C 0.88836 0.3585 0.67309 0.0
C857 C 0.89466 0.33805 0.73608 0.0
H858 H 0.94389 0.29693 0.70946 0.0
C859 C 0.96571 0.30182 0.80136 0.0
C860 C 0.98919 0.30239 0.79256 0.0
C861 C 0.94661 0.30386 0.78491 0.0
C862 C 0.93032 0.30843 0.71721 0.0
H863 H 0.8235 0.37053 0.69448 0.0
H864 H 0.84727 0.34039 0.71567 0.0
H865 H 0.91371 0.31359 0.68161 0.0
H866 H 0.01129 0.30437 0.75969 0.0
H867 H 0.97802 0.3094 0.73091 0.0
H868 H 0.91181 0.33464 0.77114 0.0
C869 C 0.85503 0.34986 0.70013 0.0
C870 C 0.91294 0.3178 0.70125 0.0
C871 C 0.84141 0.36708 0.68791 0.0
C872 C 0.99328 0.30383 0.76687 0.0
C873 C 0.97415 0.30657 0.7504 0.0
C874 C 0.91212 0.32903 0.75188 0.0
C875 C 0.879 0.34623 0.69362 0.0
C876 C 0.89518 0.33304 0.71051 0.0
C877 C 0.95055 0.30738 0.75932 0.0
C878 C 0.93048 0.31442 0.74266 0.0
H879 H 0.88309 0.38613 0.64634 0.0
H880 H 0.90679 0.35614 0.66767 0.0
H881 H 0.88155 0.35015 0.74371 0.0
H882 H 0.96213 0.30035 0.82111 0.0
H883 H 0.92874 0.30354 0.79245 0.0
C884 C 0.36191 0.15637 0.30284 0.0
C885 C 0.37164 0.15106 0.3262 0.0
C886 C 0.34302 0.14285 0.29349 0.0
C887 C 0.30309 0.11153 0.2753 0.0
H888 H 0.31813 0.0454 0.28847 0.0
C889 C 0.29305 0.01082 0.23021 0.0
C890 C 0.30334 0.01629 0.20711 0.0
C891 C 0.29052 0.02857 0.24835 0.0
C892 C 0.31308 0.0637 0.28499 0.0
H893 H 0.36747 0.12983 0.35951 0.0
H894 H 0.33371 0.1071 0.34381 0.0
H895 H 0.33383 0.07595 0.31551 0.0
H896 H 0.31702 0.04471 0.18396 0.0
H897 H 0.31235 0.07554 0.21528 0.0
H898 H 0.28419 0.09894 0.24321 0.0
C899 C 0.34127 0.12083 0.33212 0.0
C900 C 0.32209 0.08139 0.30059 0.0
C901 C 0.3605 0.13395 0.34121 0.0
C902 C 0.3093 0.03998 0.20174 0.0
C903 C 0.30634 0.0577 0.21958 0.0
C904 C 0.29432 0.0938 0.2595 0.0
C905 C 0.33326 0.12407 0.30756 0.0
C906 C 0.31827 0.10562 0.29521 0.0
C907 C 0.29771 0.05206 0.24335 0.0
C908 C 0.30028 0.06982 0.26354 0.0
H909 H 0.3702 0.1695 0.29091 0.0
H910 H 0.33754 0.1459 0.27445 0.0
H911 H 0.29919 0.12994 0.27098 0.0
H912 H 0.28826 0.99267 0.23473 0.0
H913 H 0.28387 0.02378 0.26657 0.0
C914 C 0.12343 0.62393 0.65668 0.0
C915 C 0.14296 0.61671 0.67113 0.0
C916 C 0.10985 0.64365 0.66368 0.0
C917 C 0.10476 0.69208 0.71192 0.0
H918 H 0.03788 0.67546 0.70798 0.0
C919 C 0.03709 0.70554 0.78924 0.0
C920 C 0.01302 0.70945 0.78344 0.0
C921 C 0.0541 0.7042 0.77043 0.0
C922 C 0.05638 0.68085 0.70875 0.0
H923 H 0.16468 0.62535 0.70319 0.0
H924 H 0.14041 0.6589 0.71624 0.0
H925 H 0.06643 0.65367 0.68328 0.0
H926 H 0.98811 0.71702 0.75369 0.0
H927 H 0.01792 0.7141 0.72054 0.0
H928 H 0.09448 0.71794 0.73927 0.0
C929 C 0.13579 0.64994 0.69907 0.0
C930 C 0.07291 0.66832 0.69449 0.0
C931 C 0.1497 0.63055 0.6917 0.0
C932 C 0.00656 0.71397 0.75865 0.0
C933 C 0.02358 0.71223 0.73971 0.0
C934 C 0.0882 0.70441 0.72648 0.0
C935 C 0.1151 0.65617 0.68571 0.0
C936 C 0.09745 0.67307 0.69662 0.0
C937 C 0.04733 0.70639 0.74538 0.0
C938 C 0.06396 0.69825 0.72573 0.0
H939 H 0.11809 0.61377 0.64047 0.0
H940 H 0.09454 0.64832 0.65245 0.0
H941 H 0.12341 0.6967 0.71358 0.0
H942 H 0.04257 0.70218 0.80825 0.0
H943 H 0.0722 0.69949 0.7754 0.0
C944 C 0.21391 0.53611 0.58369 0.0
C945 C 0.19766 0.52354 0.59857 0.0
C946 C 0.21785 0.52917 0.55898 0.0
C947 C 0.1847 0.49923 0.5095 0.0
H948 H 0.24332 0.5033 0.47166 0.0
C949 C 0.21694 0.47485 0.40425 0.0
C950 C 0.19786 0.48526 0.39121 0.0
C951 C 0.22002 0.47933 0.42971 0.0
C952 C 0.22689 0.50195 0.48209 0.0
H953 H 0.17466 0.4926 0.6002 0.0
H954 H 0.18195 0.48022 0.55756 0.0
H955 H 0.24409 0.5097 0.51689 0.0
H956 H 0.16793 0.50956 0.39438 0.0
H957 H 0.17339 0.51733 0.4384 0.0
H958 H 0.1674 0.49155 0.47507 0.0
C959 C 0.19105 0.49585 0.56456 0.0
C960 C 0.2273 0.50576 0.50788 0.0
C961 C 0.18692 0.50291 0.58901 0.0
C962 C 0.18262 0.50096 0.40387 0.0
C963 C 0.18569 0.50539 0.42915 0.0
C964 C 0.18428 0.49555 0.48391 0.0
C965 C 0.20574 0.50945 0.54894 0.0
C966 C 0.20615 0.50448 0.52181 0.0
C967 C 0.20404 0.49421 0.44248 0.0
C968 C 0.20527 0.49713 0.46986 0.0
H969 H 0.22246 0.55207 0.59064 0.0
H970 H 0.22926 0.54002 0.54738 0.0
H971 H 0.16801 0.49849 0.51956 0.0
H972 H 0.22905 0.46275 0.39499 0.0
H973 H 0.2343 0.47046 0.43958 0.0
C974 C 0.54769 0.77726 0.43519 0.0
C975 C 0.54286 0.76904 0.41109 0.0
C976 C 0.53805 0.76573 0.45576 0.0
C977 C 0.48303 0.73813 0.47089 0.0
H978 H 0.51089 0.73945 0.53689 0.0
C979 C 0.45654 0.75453 0.58096 0.0
C980 C 0.44463 0.77621 0.57706 0.0
C981 C 0.46628 0.74206 0.56082 0.0
C982 C 0.50277 0.73826 0.51865 0.0
H983 H 0.52563 0.74144 0.38944 0.0
H984 H 0.50795 0.72154 0.42565 0.0
H985 H 0.5367 0.73696 0.50055 0.0
H986 H 0.43173 0.80079 0.54909 0.0
H987 H 0.44837 0.77906 0.51411 0.0
H988 H 0.44921 0.7414 0.48893 0.0
C989 C 0.51951 0.73672 0.42856 0.0
C990 C 0.51758 0.73697 0.49783 0.0
C991 C 0.52963 0.74805 0.40791 0.0
C992 C 0.441 0.78423 0.55265 0.0
C993 C 0.45033 0.77161 0.53258 0.0
C994 C 0.46823 0.73953 0.4917 0.0
C995 C 0.523 0.74598 0.45261 0.0
C996 C 0.5079 0.73845 0.47377 0.0
C997 C 0.46378 0.75086 0.53649 0.0
C998 C 0.47807 0.74114 0.51567 0.0
H999 H 0.55794 0.79336 0.43808 0.0
H1000 H 0.54084 0.77351 0.47397 0.0
H1001 H 0.47504 0.73931 0.45259 0.0
H1002 H 0.45957 0.74794 0.59962 0.0
H1003 H 0.47657 0.72611 0.56433 0.0
C1004 C 0.75534 0.53286 0.41279 0.0
C1005 C 0.77667 0.54583 0.41169 0.0
C1006 C 0.74534 0.52714 0.43591 0.0
C1007 C 0.75042 0.53899 0.50392 0.0
H1008 H 0.75138 0.47027 0.51032 0.0
C1009 C 0.79683 0.49165 0.58225 0.0
C1010 C 0.78642 0.47201 0.59412 0.0
C1011 C 0.7857 0.50231 0.562 0.0
C1012 C 0.75032 0.48946 0.50888 0.0
H1013 H 0.80322 0.56472 0.43316 0.0
H1014 H 0.78565 0.55541 0.47323 0.0
H1015 H 0.74785 0.48824 0.46918 0.0
H1016 H 0.75608 0.44814 0.59416 0.0
H1017 H 0.73693 0.46644 0.55768 0.0
H1018 H 0.75512 0.54014 0.54342 0.0
C1019 C 0.77652 0.5495 0.45657 0.0
C1020 C 0.74822 0.49979 0.48532 0.0
C1021 C 0.78671 0.55474 0.43365 0.0
C1022 C 0.76449 0.46326 0.58532 0.0
C1023 C 0.75353 0.47371 0.56457 0.0
C1024 C 0.75262 0.52869 0.5274 0.0
C1025 C 0.75631 0.53482 0.45805 0.0
C1026 C 0.74978 0.52462 0.48253 0.0
C1027 C 0.76404 0.49342 0.55286 0.0
C1028 C 0.75403 0.50385 0.52988 0.0
H1029 H 0.74746 0.52565 0.39599 0.0
H1030 H 0.72978 0.51577 0.43655 0.0
H1031 H 0.75129 0.55819 0.50233 0.0
H1032 H 0.81361 0.49893 0.58868 0.0
H1033 H 0.79443 0.51719 0.55302 0.0
C1034 C 0.45471 0.19014 0.42905 0.0
C1035 C 0.45798 0.20403 0.40767 0.0
C1036 C 0.46137 0.19879 0.45227 0.0
C1037 C 0.50577 0.23276 0.48208 0.0
H1038 H 0.46583 0.22173 0.53974 0.0
C1039 C 0.54338 0.22052 0.58217 0.0
C1040 C 0.53636 0.19817 0.59137 0.0
C1041 C 0.53201 0.23027 0.5613 0.0
C1042 C 0.47712 0.22536 0.52386 0.0
H1043 H 0.47042 0.23797 0.39368 0.0
H1044 H 0.48317 0.25285 0.43474 0.0
H1045 H 0.44791 0.2231 0.49839 0.0
H1046 H 0.5115 0.16897 0.58658 0.0
H1047 H 0.49172 0.18594 0.55067 0.0
H1048 H 0.53527 0.23288 0.50742 0.0
C1049 C 0.47494 0.23547 0.43332 0.0
C1050 C 0.46687 0.2262 0.50027 0.0
C1051 C 0.46768 0.22699 0.40997 0.0
C1052 C 0.51744 0.18613 0.57985 0.0
C1053 C 0.5059 0.196 0.55944 0.0
C1054 C 0.51608 0.23184 0.50576 0.0
C1055 C 0.47184 0.22135 0.4546 0.0
C1056 C 0.48129 0.22852 0.47911 0.0
C1057 C 0.51313 0.21805 0.54983 0.0
C1058 C 0.50195 0.2267 0.52663 0.0
H1059 H 0.44714 0.17245 0.42781 0.0
H1060 H 0.45915 0.1874 0.46836 0.0
H1061 H 0.51723 0.23447 0.46598 0.0
H1062 H 0.55793 0.23017 0.59073 0.0
H1063 H 0.53798 0.24723 0.55407 0.0
C1064 C 0.71747 0.01944 0.09201 0.0
C1065 C 0.70963 0.00189 0.1086 0.0
C1066 C 0.72216 0.01363 0.06719 0.0
C1067 C 0.70657 0.96696 0.02087 0.0
H1068 H 0.74691 0.00526 0.97829 0.0
C1069 C 0.71165 0.9545 0.91393 0.0
C1070 C 0.70305 0.97499 0.90197 0.0
C1071 C 0.71789 0.95533 0.93914 0.0
C1072 C 0.73582 0.99425 0.99008 0.0
H1073 H 0.70241 0.9643 0.11307 0.0
H1074 H 0.712 0.95382 0.07033 0.0
H1075 H 0.74886 0.01053 0.02335 0.0
H1076 H 0.6955 0.0126 0.90637 0.0
H1077 H 0.7071 0.01415 0.95012 0.0
H1078 H 0.69369 0.95071 0.9874 0.0
C1079 C 0.7134 0.97228 0.07589 0.0
C1080 C 0.7367 0.99741 0.01586 0.0
C1081 C 0.70808 0.97822 0.10047 0.0
C1082 C 0.7019 0.9965 0.91523 0.0
C1083 C 0.70871 0.99746 0.94014 0.0
C1084 C 0.70612 0.96346 0.99517 0.0
C1085 C 0.71967 0.99003 0.05863 0.0
C1086 C 0.72151 0.98434 0.03158 0.0
C1087 C 0.7163 0.97681 0.95243 0.0
C1088 C 0.72021 0.97755 0.97956 0.0
H1089 H 0.71869 0.03785 0.09785 0.0
H1090 H 0.72661 0.02792 0.05454 0.0
H1091 H 0.69424 0.95682 0.0321 0.0
H1092 H 0.71266 0.93771 0.90408 0.0
H1093 H 0.72361 0.93918 0.94837 0.0
C1094 C 0.02743 0.24722 0.90417 0.0
C1095 C 0.03993 0.2688 0.90584 0.0
C1096 C 0.01857 0.2364 0.92573 0.0
C1097 C 0.01961 0.23806 0.99467 0.0
H1098 H 0.95083 0.24226 0.98974 0.0
C1099 C 0.94658 0.2828 0.0563 0.0
C1100 C 0.95104 0.27311 0.07988 0.0
C1101 C 0.95463 0.27124 0.03494 0.0
C1102 C 0.96997 0.24041 0.99137 0.0
H1103 H 0.05498 0.29486 0.93099 0.0
H1104 H 0.04033 0.27566 0.96856 0.0
H1105 H 0.9748 0.24069 0.95191 0.0
H1106 H 0.96606 0.24304 0.09965 0.0
H1107 H 0.98089 0.22313 0.06213 0.0
H1108 H 0.01488 0.23968 0.03411 0.0
C1109 C 0.03713 0.2671 0.9508 0.0
C1110 C 0.98369 0.23935 0.96974 0.0
C1111 C 0.04543 0.27818 0.92932 0.0
C1112 C 0.96232 0.25084 0.08166 0.0
C1113 C 0.97085 0.23949 0.06025 0.0
C1114 C 0.00588 0.23883 0.0163 0.0
C1115 C 0.02268 0.24676 0.94916 0.0
C1116 C 0.00868 0.23958 0.97122 0.0
C1117 C 0.96768 0.24998 0.03678 0.0
C1118 C 0.98102 0.24141 0.01479 0.0
H1119 H 0.02282 0.23982 0.88619 0.0
H1120 H 0.00741 0.22077 0.924 0.0
H1121 H 0.03885 0.23817 -0.00373 0.0
H1122 H 0.93785 0.29991 0.05443 0.0
H1123 H 0.95216 0.27989 0.01712 0.0
C1124 C 0.25624 0.02828 0.8998 0.0
C1125 C 0.27874 0.03819 0.89513 0.0
C1126 C 0.24861 0.02485 0.92435 0.0
C1127 C 0.26221 0.03998 0.98994 0.0
H1128 H 0.25654 0.97226 0.00264 0.0
C1129 C 0.30748 0.99605 0.07099 0.0
C1130 C 0.29531 0.97963 0.08601 0.0
C1131 C 0.29709 0.00482 0.04939 0.0
C1132 C 0.2574 0.99128 -0.00053 0.0
H1133 H 0.31014 0.05384 0.91172 0.0
H1134 H 0.29664 0.04868 0.95436 0.0
H1135 H 0.25143 0.98738 0.96032 0.0
H1136 H 0.26283 0.95902 0.08968 0.0
H1137 H 0.24485 0.974 0.05099 0.0
H1138 H 0.27006 0.04365 0.02869 0.0
C1139 C 0.28485 0.04342 0.93937 0.0
C1140 C 0.25441 -5e-05 0.97528 0.0
C1141 C 0.29266 0.0463 0.91501 0.0
C1142 C 0.27265 0.97165 0.07848 0.0
C1143 C 0.26233 0.98026 0.05648 0.0
C1144 C 0.2652 0.03133 0.01403 0.0
C1145 C 0.26318 0.03186 0.94434 0.0
C1146 C 0.25819 0.02419 0.97013 0.0
C1147 C 0.27434 0.99727 0.04206 0.0
C1148 C 0.2642 0.00676 0.0187 0.0
H1149 H 0.2454 0.02166 0.88462 0.0
H1150 H 0.2319 0.01581 0.92775 0.0
H1151 H 0.26492 0.05877 0.98648 0.0
H1152 H 0.32495 0.00261 0.07612 0.0
H1153 H 0.30698 0.01748 0.03828 0.0
C1154 C 0.95532 0.70637 0.92511 0.0
C1155 C 0.96034 0.72117 0.90483 0.0
C1156 C 0.95741 0.71494 0.9493 0.0
C1157 C 0.99494 0.75127 0.98522 0.0
H1158 H 0.95067 0.7347 0.03772 0.0
C1159 C 0.02603 0.73634 0.0866 0.0
C1160 C 0.01894 0.71374 0.09502 0.0
C1161 C 0.01532 0.74641 0.06553 0.0
C1162 C 0.96315 0.73977 0.02332 0.0
H1163 H 0.97082 0.75664 0.89358 0.0
H1164 H 0.97566 0.77148 0.93646 0.0
H1165 H 0.93684 0.73628 0.99469 0.0
H1166 H 0.99438 0.68453 0.0887 0.0
H1167 H 0.97598 0.70187 0.0523 0.0
H1168 H 0.02178 0.75249 0.01349 0.0
C1169 C 0.96951 0.75344 0.93343 0.0
C1170 C 0.95519 0.7408 -0.00123 0.0
C1171 C 0.96674 0.745 0.90905 0.0
C1172 C 0.00041 0.70188 0.08262 0.0
C1173 C 0.9896 0.712 0.06189 0.0
C1174 C 0.00298 0.75004 0.00981 0.0
C1175 C 0.96511 0.73833 0.95371 0.0
C1176 C 0.97132 0.74524 0.97941 0.0
C1177 C 0.9971 0.73421 0.05287 0.0
C1178 C 0.98743 0.74286 0.02885 0.0
H1179 H 0.95031 0.68794 0.92225 0.0
H1180 H 0.95427 0.70282 0.96461 0.0
H1181 H 0.00773 0.75461 0.97055 0.0
H1182 H 0.04024 0.74591 0.09586 0.0
H1183 H 0.02148 0.76354 0.05892 0.0
loop_
_geom_bond_atom_site_label_1
_geom_bond_atom_site_label_2
_geom_bond_distance
_geom_bond_site_symmetry_2
_ccdc_geom_bond_type
Zn0 O3 2.031 . S
Zn0 O5 2.049 . S
Zn0 O10 2.067 . S
Zn1 O2 1.962 . S
Zn1 O4 1.986 . S
Zn1 O6 1.996 . S
Zn1 O9 1.943 . S
O2 Zn1 1.962 . S
O2 C7 1.254 . S
O3 Zn0 2.031 . S
O3 C7 1.269 . S
O4 Zn1 1.986 . S
O4 C11 1.262 . S
O5 Zn0 2.049 . S
O5 C13 1.260 . S
O6 Zn1 1.996 . S
O6 C13 1.257 . S
C7 O2 1.254 . S
C7 O3 1.269 . S
C8 O9 1.249 . S
C8 O10 1.270 . S
O9 Zn1 1.943 . S
O9 C8 1.249 . S
O10 Zn0 2.067 . S
O10 C8 1.270 . S
C11 O4 1.262 . S
C11 O12 1.232 . S
O12 C11 1.232 . S
C13 O5 1.260 . S
C13 O6 1.257 . S
Zn14 O17 2.031 . S
Zn14 O19 2.049 . S
Zn14 O24 2.067 . S
Zn15 O16 1.962 . S
Zn15 O18 1.986 . S
Zn15 O20 1.996 . S
Zn15 O23 1.943 . S
O16 Zn15 1.962 . S
O16 C21 1.254 . S
O17 Zn14 2.031 . S
O17 C21 1.269 . S
O18 Zn15 1.986 . S
O18 C25 1.262 . S
O19 Zn14 2.049 . S
O19 C27 1.260 . S
O20 Zn15 1.996 . S
O20 C27 1.257 . S
C21 O16 1.254 . S
C21 O17 1.269 . S
C22 O23 1.249 . S
C22 O24 1.270 . S
O23 Zn15 1.943 . S
O23 C22 1.249 . S
O24 Zn14 2.067 . S
O24 C22 1.270 . S
C25 O18 1.262 . S
C25 O26 1.232 . S
O26 C25 1.232 . S
C27 O19 1.260 . S
C27 O20 1.257 . S
Zn28 O31 2.031 . S
Zn28 O33 2.049 . S
Zn28 O38 2.067 . S
Zn29 O30 1.962 . S
Zn29 O32 1.986 . S
Zn29 O34 1.996 . S
Zn29 O37 1.943 . S
O30 Zn29 1.962 . S
O30 C35 1.254 . S
O31 Zn28 2.031 . S
O31 C35 1.269 . S
O32 Zn29 1.986 . S
O32 C39 1.262 . S
O33 Zn28 2.049 . S
O33 C41 1.260 . S
O34 Zn29 1.996 . S
O34 C41 1.257 . S
C35 O30 1.254 . S
C35 O31 1.269 . S
C36 O37 1.249 . S
C36 O38 1.270 . S
O37 Zn29 1.943 . S
O37 C36 1.249 . S
O38 Zn28 2.067 . S
O38 C36 1.270 . S
C39 O32 1.262 . S
C39 O40 1.232 . S
O40 C39 1.232 . S
C41 O33 1.260 . S
C41 O34 1.257 . S
Zn42 O45 2.031 . S
Zn42 O47 2.049 . S
Zn42 O52 2.067 . S
Zn43 O44 1.962 . S
Zn43 O46 1.986 . S
Zn43 O48 1.996 . S
Zn43 O51 1.943 . S
O44 Zn43 1.962 . S
O44 C49 1.254 . S
O45 Zn42 2.031 . S
O45 C49 1.269 . S
O46 Zn43 1.986 . S
O46 C53 1.262 . S
O47 Zn42 2.049 . S
O47 C55 1.260 . S
O48 Zn43 1.996 . S
O48 C55 1.257 . S
C49 O44 1.254 . S
C49 O45 1.269 . S
C50 O51 1.249 . S
C50 O52 1.270 . S
O51 Zn43 1.943 . S
O51 C50 1.249 . S
O52 Zn42 2.067 . S
O52 C50 1.270 . S
C53 O46 1.262 . S
C53 O54 1.232 . S
O54 C53 1.232 . S
C55 O47 1.260 . S
C55 O48 1.257 . S
Zn56 O59 2.031 . S
Zn56 O61 2.049 . S
Zn56 O66 2.067 . S
Zn57 O58 1.962 . S
Zn57 O60 1.986 . S
Zn57 O62 1.996 . S
Zn57 O65 1.943 . S
O58 Zn57 1.962 . S
O58 C63 1.254 . S
O59 Zn56 2.031 . S
O59 C63 1.269 . S
O60 Zn57 1.986 . S
O60 C67 1.262 . S
O61 Zn56 2.049 . S
O61 C69 1.260 . S
O62 Zn57 1.996 . S
O62 C69 1.257 . S
C63 O58 1.254 . S
C63 O59 1.269 . S
C64 O65 1.249 . S
C64 O66 1.270 . S
O65 Zn57 1.943 . S
O65 C64 1.249 . S
O66 Zn56 2.067 . S
O66 C64 1.270 . S
C67 O60 1.262 . S
C67 O68 1.232 . S
O68 C67 1.232 . S
C69 O61 1.260 . S
C69 O62 1.257 . S
Zn70 O73 2.031 . S
Zn70 O75 2.049 . S
Zn70 O80 2.067 . S
Zn71 O72 1.962 . S
Zn71 O74 1.986 . S
Zn71 O76 1.996 . S
Zn71 O79 1.943 . S
O72 Zn71 1.962 . S
O72 C77 1.254 . S
O73 Zn70 2.031 . S
O73 C77 1.269 . S
O74 Zn71 1.986 . S
O74 C81 1.262 . S
O75 Zn70 2.049 . S
O75 C83 1.260 . S
O76 Zn71 1.996 . S
O76 C83 1.257 . S
C77 O72 1.254 . S
C77 O73 1.269 . S
C78 O79 1.249 . S
C78 O80 1.270 . S
O79 Zn71 1.943 . S
O79 C78 1.249 . S
O80 Zn70 2.067 . S
O80 C78 1.270 . S
C81 O74 1.262 . S
C81 O82 1.232 . S
O82 C81 1.232 . S
C83 O75 1.260 . S
C83 O76 1.257 . S
Zn84 O87 2.031 . S
Zn84 O89 2.049 . S
Zn84 O94 2.067 . S
Zn85 O86 1.962 . S
Zn85 O88 1.986 . S
Zn85 O90 1.996 . S
Zn85 O93 1.943 . S
O86 Zn85 1.962 . S
O86 C91 1.254 . S
O87 Zn84 2.031 . S
O87 C91 1.269 . S
O88 Zn85 1.986 . S
O88 C95 1.262 . S
O89 Zn84 2.049 . S
O89 C97 1.260 . S
O90 Zn85 1.996 . S
O90 C97 1.257 . S
C91 O86 1.254 . S
C91 O87 1.269 . S
C92 O93 1.249 . S
C92 O94 1.270 . S
O93 Zn85 1.943 . S
O93 C92 1.249 . S
O94 Zn84 2.067 . S
O94 C92 1.270 . S
C95 O88 1.262 . S
C95 O96 1.232 . S
O96 C95 1.232 . S
C97 O89 1.260 . S
C97 O90 1.257 . S
Zn98 O101 2.031 . S
Zn98 O103 2.049 . S
Zn98 O108 2.067 . S
Zn99 O100 1.962 . S
Zn99 O102 1.986 . S
Zn99 O104 1.996 . S
Zn99 O107 1.943 . S
O100 Zn99 1.962 . S
O100 C105 1.254 . S
O101 Zn98 2.031 . S
O101 C105 1.269 . S
O102 Zn99 1.986 . S
O102 C109 1.262 . S
O103 Zn98 2.049 . S
O103 C111 1.260 . S
O104 Zn99 1.996 . S
O104 C111 1.257 . S
C105 O100 1.254 . S
C105 O101 1.269 . S
C106 O107 1.249 . S
C106 O108 1.270 . S
O107 Zn99 1.943 . S
O107 C106 1.249 . S
O108 Zn98 2.067 . S
O108 C106 1.270 . S
C109 O102 1.262 . S
C109 O110 1.232 . S
O110 C109 1.232 . S
C111 O103 1.260 . S
C111 O104 1.257 . S
Zn112 O115 2.031 . S
Zn112 O117 2.049 . S
Zn112 O122 2.067 . S
Zn113 O114 1.962 . S
Zn113 O116 1.986 . S
Zn113 O118 1.996 . S
Zn113 O121 1.943 . S
O114 Zn113 1.962 . S
O114 C119 1.254 . S
O115 Zn112 2.031 . S
O115 C119 1.269 . S
O116 Zn113 1.986 . S
O116 C123 1.262 . S
O117 Zn112 2.049 . S
O117 C125 1.260 . S
O118 Zn113 1.996 . S
O118 C125 1.257 . S
C119 O114 1.254 . S
C119 O115 1.269 . S
C120 O121 1.249 . S
C120 O122 1.270 . S
O121 Zn113 1.943 . S
O121 C120 1.249 . S
O122 Zn112 2.067 . S
O122 C120 1.270 . S
C123 O116 1.262 . S
C123 O124 1.232 . S
O124 C123 1.232 . S
C125 O117 1.260 . S
C125 O118 1.257 . S
Zn126 O129 2.031 . S
Zn126 O131 2.049 . S
Zn126 O136 2.067 . S
Zn127 O128 1.962 . S
Zn127 O130 1.986 . S
Zn127 O132 1.996 . S
Zn127 O135 1.943 . S
O128 Zn127 1.962 . S
O128 C133 1.254 . S
O129 Zn126 2.031 . S
O129 C133 1.269 . S
O130 Zn127 1.986 . S
O130 C137 1.262 . S
O131 Zn126 2.049 . S
O131 C139 1.260 . S
O132 Zn127 1.996 . S
O132 C139 1.257 . S
C133 O128 1.254 . S
C133 O129 1.269 . S
C134 O135 1.249 . S
C134 O136 1.270 . S
O135 Zn127 1.943 . S
O135 C134 1.249 . S
O136 Zn126 2.067 . S
O136 C134 1.270 . S
C137 O130 1.262 . S
C137 O138 1.232 . S
O138 C137 1.232 . S
C139 O131 1.260 . S
C139 O132 1.257 . S
Zn140 O143 2.031 . S
Zn140 O145 2.049 . S
Zn140 O150 2.067 . S
Zn141 O142 1.962 . S
Zn141 O144 1.986 . S
Zn141 O146 1.996 . S
Zn141 O149 1.943 . S
O142 Zn141 1.962 . S
O142 C147 1.254 . S
O143 Zn140 2.031 . S
O143 C147 1.269 . S
O144 Zn141 1.986 . S
O144 C151 1.262 . S
O145 Zn140 2.049 . S
O145 C153 1.260 . S
O146 Zn141 1.996 . S
O146 C153 1.257 . S
C147 O142 1.254 . S
C147 O143 1.269 . S
C148 O149 1.249 . S
C148 O150 1.270 . S
O149 Zn141 1.943 . S
O149 C148 1.249 . S
O150 Zn140 2.067 . S
O150 C148 1.270 . S
C151 O144 1.262 . S
C151 O152 1.232 . S
O152 C151 1.232 . S
C153 O145 1.260 . S
C153 O146 1.257 . S
Zn154 O157 2.031 . S
Zn154 O159 2.049 . S
Zn154 O164 2.067 . S
Zn155 O156 1.962 . S
Zn155 O158 1.986 . S
Zn155 O160 1.996 . S
Zn155 O163 1.943 . S
O156 Zn155 1.962 . S
O156 C161 1.254 . S
O157 Zn154 2.031 . S
O157 C161 1.269 . S
O158 Zn155 1.986 . S
O158 C165 1.262 . S
O159 Zn154 2.049 . S
O159 C167 1.260 . S
O160 Zn155 1.996 . S
O160 C167 1.257 . S
C161 O156 1.254 . S
C161 O157 1.269 . S
C162 O163 1.249 . S
C162 O164 1.270 . S
O163 Zn155 1.943 . S
O163 C162 1.249 . S
O164 Zn154 2.067 . S
O164 C162 1.270 . S
C165 O158 1.262 . S
C165 O166 1.232 . S
O166 C165 1.232 . S
C167 O159 1.260 . S
C167 O160 1.257 . S
Zn168 O171 2.031 . S
Zn168 O173 2.049 . S
Zn168 O178 2.067 . S
Zn169 O170 1.962 . S
Zn169 O172 1.986 . S
Zn169 O174 1.996 . S
Zn169 O177 1.943 . S
O170 Zn169 1.962 . S
O170 C175 1.254 . S
O171 Zn168 2.031 . S
O171 C175 1.269 . S
O172 Zn169 1.986 . S
O172 C179 1.262 . S
O173 Zn168 2.049 . S
O173 C181 1.260 . S
O174 Zn169 1.996 . S
O174 C181 1.257 . S
C175 O170 1.254 . S
C175 O171 1.269 . S
C176 O177 1.249 . S
C176 O178 1.270 . S
O177 Zn169 1.943 . S
O177 C176 1.249 . S
O178 Zn168 2.067 . S
O178 C176 1.270 . S
C179 O172 1.262 . S
C179 O180 1.232 . S
O180 C179 1.232 . S
C181 O173 1.260 . S
C181 O174 1.257 . S
Zn182 O185 2.031 . S
Zn182 O187 2.049 . S
Zn182 O192 2.067 . S
Zn183 O184 1.962 . S
Zn183 O186 1.986 . S
Zn183 O188 1.996 . S
Zn183 O191 1.943 . S
O184 Zn183 1.962 . S
O184 C189 1.254 . S
O185 Zn182 2.031 . S
O185 C189 1.269 . S
O186 Zn183 1.986 . S
O186 C193 1.262 . S
O187 Zn182 2.049 . S
O187 C195 1.260 . S
O188 Zn183 1.996 . S
O188 C195 1.257 . S
C189 O184 1.254 . S
C189 O185 1.269 . S
C190 O191 1.249 . S
C190 O192 1.270 . S
O191 Zn183 1.943 . S
O191 C190 1.249 . S
O192 Zn182 2.067 . S
O192 C190 1.270 . S
C193 O186 1.262 . S
C193 O194 1.232 . S
O194 C193 1.232 . S
C195 O187 1.260 . S
C195 O188 1.257 . S
Zn196 O199 2.031 . S
Zn196 O201 2.049 . S
Zn196 O206 2.067 . S
Zn197 O198 1.962 . S
Zn197 O200 1.986 . S
Zn197 O202 1.996 . S
Zn197 O205 1.943 . S
O198 Zn197 1.962 . S
O198 C203 1.254 . S
O199 Zn196 2.031 . S
O199 C203 1.269 . S
O200 Zn197 1.986 . S
O200 C207 1.262 . S
O201 Zn196 2.049 . S
O201 C209 1.260 . S
O202 Zn197 1.996 . S
O202 C209 1.257 . S
C203 O198 1.254 . S
C203 O199 1.269 . S
C204 O205 1.249 . S
C204 O206 1.270 . S
O205 Zn197 1.943 . S
O205 C204 1.249 . S
O206 Zn196 2.067 . S
O206 C204 1.270 . S
C207 O200 1.262 . S
C207 O208 1.232 . S
O208 C207 1.232 . S
C209 O201 1.260 . S
C209 O202 1.257 . S
Zn210 O213 2.031 . S
Zn210 O215 2.049 . S
Zn210 O220 2.067 . S
Zn211 O212 1.962 . S
Zn211 O214 1.986 . S
Zn211 O216 1.996 . S
Zn211 O219 1.943 . S
O212 Zn211 1.962 . S
O212 C217 1.254 . S
O213 Zn210 2.031 . S
O213 C217 1.269 . S
O214 Zn211 1.986 . S
O214 C221 1.262 . S
O215 Zn210 2.049 . S
O215 C223 1.260 . S
O216 Zn211 1.996 . S
O216 C223 1.257 . S
C217 O212 1.254 . S
C217 O213 1.269 . S
C218 O219 1.249 . S
C218 O220 1.270 . S
O219 Zn211 1.943 . S
O219 C218 1.249 . S
O220 Zn210 2.067 . S
O220 C218 1.270 . S
C221 O214 1.262 . S
C221 O222 1.232 . S
O222 C221 1.232 . S
C223 O215 1.260 . S
C223 O216 1.257 . S
C224 C225 1.349 . S
C224 C226 1.327 . S
C224 H249 0.950 . S
C225 C224 1.349 . S
C225 C241 1.349 . S
C226 C224 1.327 . S
C226 C245 1.429 . S
C226 H250 0.950 . S
C227 C244 1.574 . S
C227 C246 1.368 . S
C227 H251 0.949 . S
H228 C232 0.949 . S
C229 C230 1.349 . S
C229 C231 1.327 . S
C229 H252 0.950 . S
C230 C229 1.349 . S
C230 C242 1.349 . S
C231 C229 1.327 . S
C231 C247 1.429 . S
C231 H253 0.950 . S
C232 H228 0.949 . S
C232 C240 1.574 . S
C232 C248 1.368 . S
H233 C241 0.950 . S
H234 C239 0.950 . S
H235 C240 0.949 . S
H236 C242 0.950 . S
H237 C243 0.950 . S
H238 C244 0.949 . S
C239 H234 0.950 . S
C239 C241 1.327 . S
C239 C245 1.429 . S
C240 C232 1.574 . S
C240 H235 0.949 . S
C240 C246 1.368 . S
C241 C225 1.349 . S
C241 H233 0.950 . S
C241 C239 1.327 . S
C242 C230 1.349 . S
C242 H236 0.950 . S
C242 C243 1.327 . S
C243 H237 0.950 . S
C243 C242 1.327 . S
C243 C247 1.429 . S
C244 C227 1.574 . S
C244 H238 0.949 . S
C244 C248 1.368 . S
C245 C226 1.429 . S
C245 C239 1.429 . S
C245 C246 1.523 . S
C246 C227 1.368 . S
C246 C240 1.368 . S
C246 C245 1.523 . S
C247 C231 1.429 . S
C247 C243 1.429 . S
C247 C248 1.523 . S
C248 C232 1.368 . S
C248 C244 1.368 . S
C248 C247 1.523 . S
H249 C224 0.950 . S
H250 C226 0.950 . S
H251 C227 0.949 . S
H252 C229 0.950 . S
H253 C231 0.950 . S
C254 C255 1.349 . S
C254 C256 1.327 . S
C254 H279 0.950 . S
C255 C254 1.349 . S
C255 C271 1.349 . S
C256 C254 1.327 . S
C256 C275 1.429 . S
C256 H280 0.950 . S
C257 C274 1.574 . S
C257 C276 1.368 . S
C257 H281 0.949 . S
H258 C262 0.949 . S
C259 C260 1.349 . S
C259 C261 1.327 . S
C259 H282 0.950 . S
C260 C259 1.349 . S
C260 C272 1.349 . S
C261 C259 1.327 . S
C261 C277 1.429 . S
C261 H283 0.950 . S
C262 H258 0.949 . S
C262 C270 1.574 . S
C262 C278 1.368 . S
H263 C271 0.950 . S
H264 C269 0.950 . S
H265 C270 0.949 . S
H266 C272 0.950 . S
H267 C273 0.950 . S
H268 C274 0.949 . S
C269 H264 0.950 . S
C269 C271 1.327 . S
C269 C275 1.429 . S
C270 C262 1.574 . S
C270 H265 0.949 . S
C270 C276 1.368 . S
C271 C255 1.349 . S
C271 H263 0.950 . S
C271 C269 1.327 . S
C272 C260 1.349 . S
C272 H266 0.950 . S
C272 C273 1.327 . S
C273 H267 0.950 . S
C273 C272 1.327 . S
C273 C277 1.429 . S
C274 C257 1.574 . S
C274 H268 0.949 . S
C274 C278 1.368 . S
C275 C256 1.429 . S
C275 C269 1.429 . S
C275 C276 1.523 . S
C276 C257 1.368 . S
C276 C270 1.368 . S
C276 C275 1.523 . S
C277 C261 1.429 . S
C277 C273 1.429 . S
C277 C278 1.523 . S
C278 C262 1.368 . S
C278 C274 1.368 . S
C278 C277 1.523 . S
H279 C254 0.950 . S
H280 C256 0.950 . S
H281 C257 0.949 . S
H282 C259 0.950 . S
H283 C261 0.950 . S
C284 C285 1.349 . S
C284 C286 1.327 . S
C284 H309 0.950 . S
C285 C284 1.349 . S
C285 C301 1.349 . S
C286 C284 1.327 . S
C286 C305 1.429 . S
C286 H310 0.950 . S
C287 C304 1.574 . S
C287 C306 1.368 . S
C287 H311 0.949 . S
H288 C292 0.949 . S
C289 C290 1.349 . S
C289 C291 1.327 . S
C289 H312 0.950 . S
C290 C289 1.349 . S
C290 C302 1.349 . S
C291 C289 1.327 . S
C291 C307 1.429 . S
C291 H313 0.950 . S
C292 H288 0.949 . S
C292 C300 1.574 . S
C292 C308 1.368 . S
H293 C301 0.950 . S
H294 C299 0.950 . S
H295 C300 0.949 . S
H296 C302 0.950 . S
H297 C303 0.950 . S
H298 C304 0.949 . S
C299 H294 0.950 . S
C299 C301 1.327 . S
C299 C305 1.429 . S
C300 C292 1.574 . S
C300 H295 0.949 . S
C300 C306 1.368 . S
C301 C285 1.349 . S
C301 H293 0.950 . S
C301 C299 1.327 . S
C302 C290 1.349 . S
C302 H296 0.950 . S
C302 C303 1.327 . S
C303 H297 0.950 . S
C303 C302 1.327 . S
C303 C307 1.429 . S
C304 C287 1.574 . S
C304 H298 0.949 . S
C304 C308 1.368 . S
C305 C286 1.429 . S
C305 C299 1.429 . S
C305 C306 1.523 . S
C306 C287 1.368 . S
C306 C300 1.368 . S
C306 C305 1.523 . S
C307 C291 1.429 . S
C307 C303 1.429 . S
C307 C308 1.523 . S
C308 C292 1.368 . S
C308 C304 1.368 . S
C308 C307 1.523 . S
H309 C284 0.950 . S
H310 C286 0.950 . S
H311 C287 0.949 . S
H312 C289 0.950 . S
H313 C291 0.950 . S
C314 C315 1.349 . S
C314 C316 1.327 . S
C314 H339 0.950 . S
C315 C314 1.349 . S
C315 C331 1.349 . S
C316 C314 1.327 . S
C316 C335 1.429 . S
C316 H340 0.950 . S
C317 C334 1.574 . S
C317 C336 1.368 . S
C317 H341 0.949 . S
H318 C322 0.949 . S
C319 C320 1.349 . S
C319 C321 1.327 . S
C319 H342 0.950 . S
C320 C319 1.349 . S
C320 C332 1.349 . S
C321 C319 1.327 . S
C321 C337 1.429 . S
C321 H343 0.950 . S
C322 H318 0.949 . S
C322 C330 1.574 . S
C322 C338 1.368 . S
H323 C331 0.950 . S
H324 C329 0.950 . S
H325 C330 0.949 . S
H326 C332 0.950 . S
H327 C333 0.950 . S
H328 C334 0.949 . S
C329 H324 0.950 . S
C329 C331 1.327 . S
C329 C335 1.429 . S
C330 C322 1.574 . S
C330 H325 0.949 . S
C330 C336 1.368 . S
C331 C315 1.349 . S
C331 H323 0.950 . S
C331 C329 1.327 . S
C332 C320 1.349 . S
C332 H326 0.950 . S
C332 C333 1.327 . S
C333 H327 0.950 . S
C333 C332 1.327 . S
C333 C337 1.429 . S
C334 C317 1.574 . S
C334 H328 0.949 . S
C334 C338 1.368 . S
C335 C316 1.429 . S
C335 C329 1.429 . S
C335 C336 1.523 . S
C336 C317 1.368 . S
C336 C330 1.368 . S
C336 C335 1.523 . S
C337 C321 1.429 . S
C337 C333 1.429 . S
C337 C338 1.523 . S
C338 C322 1.368 . S
C338 C334 1.368 . S
C338 C337 1.523 . S
H339 C314 0.950 . S
H340 C316 0.950 . S
H341 C317 0.949 . S
H342 C319 0.950 . S
H343 C321 0.950 . S
C344 C345 1.349 . S
C344 C346 1.327 . S
C344 H369 0.950 . S
C345 C344 1.349 . S
C345 C361 1.349 . S
C346 C344 1.327 . S
C346 C365 1.429 . S
C346 H370 0.950 . S
C347 C364 1.574 . S
C347 C366 1.368 . S
C347 H371 0.949 . S
H348 C352 0.949 . S
C349 C350 1.349 . S
C349 C351 1.327 . S
C349 H372 0.950 . S
C350 C349 1.349 . S
C350 C362 1.349 . S
C351 C349 1.327 . S
C351 C367 1.429 . S
C351 H373 0.950 . S
C352 H348 0.949 . S
C352 C360 1.574 . S
C352 C368 1.368 . S
H353 C361 0.950 . S
H354 C359 0.950 . S
H355 C360 0.949 . S
H356 C362 0.950 . S
H357 C363 0.950 . S
H358 C364 0.949 . S
C359 H354 0.950 . S
C359 C361 1.327 . S
C359 C365 1.429 . S
C360 C352 1.574 . S
C360 H355 0.949 . S
C360 C366 1.368 . S
C361 C345 1.349 . S
C361 H353 0.950 . S
C361 C359 1.327 . S
C362 C350 1.349 . S
C362 H356 0.950 . S
C362 C363 1.327 . S
C363 H357 0.950 . S
C363 C362 1.327 . S
C363 C367 1.429 . S
C364 C347 1.574 . S
C364 H358 0.949 . S
C364 C368 1.368 . S
C365 C346 1.429 . S
C365 C359 1.429 . S
C365 C366 1.523 . S
C366 C347 1.368 . S
C366 C360 1.368 . S
C366 C365 1.523 . S
C367 C351 1.429 . S
C367 C363 1.429 . S
C367 C368 1.523 . S
C368 C352 1.368 . S
C368 C364 1.368 . S
C368 C367 1.523 . S
H369 C344 0.950 . S
H370 C346 0.950 . S
H371 C347 0.949 . S
H372 C349 0.950 . S
H373 C351 0.950 . S
C374 C375 1.349 . S
C374 C376 1.327 . S
C374 H399 0.950 . S
C375 C374 1.349 . S
C375 C391 1.349 . S
C376 C374 1.327 . S
C376 C395 1.429 . S
C376 H400 0.950 . S
C377 C394 1.574 . S
C377 C396 1.368 . S
C377 H401 0.949 . S
H378 C382 0.949 . S
C379 C380 1.349 . S
C379 C381 1.327 . S
C379 H402 0.950 . S
C380 C379 1.349 . S
C380 C392 1.349 . S
C381 C379 1.327 . S
C381 C397 1.429 . S
C381 H403 0.950 . S
C382 H378 0.949 . S
C382 C390 1.574 . S
C382 C398 1.368 . S
H383 C391 0.950 . S
H384 C389 0.950 . S
H385 C390 0.949 . S
H386 C392 0.950 . S
H387 C393 0.950 . S
H388 C394 0.949 . S
C389 H384 0.950 . S
C389 C391 1.327 . S
C389 C395 1.429 . S
C390 C382 1.574 . S
C390 H385 0.949 . S
C390 C396 1.368 . S
C391 C375 1.349 . S
C391 H383 0.950 . S
C391 C389 1.327 . S
C392 C380 1.349 . S
C392 H386 0.950 . S
C392 C393 1.327 . S
C393 H387 0.950 . S
C393 C392 1.327 . S
C393 C397 1.429 . S
C394 C377 1.574 . S
C394 H388 0.949 . S
C394 C398 1.368 . S
C395 C376 1.429 . S
C395 C389 1.429 . S
C395 C396 1.523 . S
C396 C377 1.368 . S
C396 C390 1.368 . S
C396 C395 1.523 . S
C397 C381 1.429 . S
C397 C393 1.429 . S
C397 C398 1.523 . S
C398 C382 1.368 . S
C398 C394 1.368 . S
C398 C397 1.523 . S
H399 C374 0.950 . S
H400 C376 0.950 . S
H401 C377 0.949 . S
H402 C379 0.950 . S
H403 C381 0.950 . S
C404 C405 1.349 . S
C404 C406 1.327 . S
C404 H429 0.950 . S
C405 C404 1.349 . S
C405 C421 1.349 . S
C406 C404 1.327 . S
C406 C425 1.429 . S
C406 H430 0.950 . S
C407 C424 1.574 . S
C407 C426 1.368 . S
C407 H431 0.949 . S
H408 C412 0.949 . S
C409 C410 1.349 . S
C409 C411 1.327 . S
C409 H432 0.950 . S
C410 C409 1.349 . S
C410 C422 1.349 . S
C411 C409 1.327 . S
C411 C427 1.429 . S
C411 H433 0.950 . S
C412 H408 0.949 . S
C412 C420 1.574 . S
C412 C428 1.368 . S
H413 C421 0.950 . S
H414 C419 0.950 . S
H415 C420 0.949 . S
H416 C422 0.950 . S
H417 C423 0.950 . S
H418 C424 0.949 . S
C419 H414 0.950 . S
C419 C421 1.327 . S
C419 C425 1.429 . S
C420 C412 1.574 . S
C420 H415 0.949 . S
C420 C426 1.368 . S
C421 C405 1.349 . S
C421 H413 0.950 . S
C421 C419 1.327 . S
C422 C410 1.349 . S
C422 H416 0.950 . S
C422 C423 1.327 . S
C423 H417 0.950 . S
C423 C422 1.327 . S
C423 C427 1.429 . S
C424 C407 1.574 . S
C424 H418 0.949 . S
C424 C428 1.368 . S
C425 C406 1.429 . S
C425 C419 1.429 . S
C425 C426 1.523 . S
C426 C407 1.368 . S
C426 C420 1.368 . S
C426 C425 1.523 . S
C427 C411 1.429 . S
C427 C423 1.429 . S
C427 C428 1.523 . S
C428 C412 1.368 . S
C428 C424 1.368 . S
C428 C427 1.523 . S
H429 C404 0.950 . S
H430 C406 0.950 . S
H431 C407 0.949 . S
H432 C409 0.950 . S
H433 C411 0.950 . S
C434 C435 1.349 . S
C434 C436 1.327 . S
C434 H459 0.950 . S
C435 C434 1.349 . S
C435 C451 1.349 . S
C436 C434 1.327 . S
C436 C455 1.429 . S
C436 H460 0.950 . S
C437 C454 1.574 . S
C437 C456 1.368 . S
C437 H461 0.949 . S
H438 C442 0.949 . S
C439 C440 1.349 . S
C439 C441 1.327 . S
C439 H462 0.950 . S
C440 C439 1.349 . S
C440 C452 1.349 . S
C441 C439 1.327 . S
C441 C457 1.429 . S
C441 H463 0.950 . S
C442 H438 0.949 . S
C442 C450 1.574 . S
C442 C458 1.368 . S
H443 C451 0.950 . S
H444 C449 0.950 . S
H445 C450 0.949 . S
H446 C452 0.950 . S
H447 C453 0.950 . S
H448 C454 0.949 . S
C449 H444 0.950 . S
C449 C451 1.327 . S
C449 C455 1.429 . S
C450 C442 1.574 . S
C450 H445 0.949 . S
C450 C456 1.368 . S
C451 C435 1.349 . S
C451 H443 0.950 . S
C451 C449 1.327 . S
C452 C440 1.349 . S
C452 H446 0.950 . S
C452 C453 1.327 . S
C453 H447 0.950 . S
C453 C452 1.327 . S
C453 C457 1.429 . S
C454 C437 1.574 . S
C454 H448 0.949 . S
C454 C458 1.368 . S
C455 C436 1.429 . S
C455 C449 1.429 . S
C455 C456 1.523 . S
C456 C437 1.368 . S
C456 C450 1.368 . S
C456 C455 1.523 . S
C457 C441 1.429 . S
C457 C453 1.429 . S
C457 C458 1.523 . S
C458 C442 1.368 . S
C458 C454 1.368 . S
C458 C457 1.523 . S
H459 C434 0.950 . S
H460 C436 0.950 . S
H461 C437 0.949 . S
H462 C439 0.950 . S
H463 C441 0.950 . S
C464 C465 1.349 . S
C464 C466 1.327 . S
C464 H489 0.950 . S
C465 C464 1.349 . S
C465 C481 1.349 . S
C466 C464 1.327 . S
C466 C485 1.429 . S
C466 H490 0.950 . S
C467 C484 1.574 . S
C467 C486 1.368 . S
C467 H491 0.949 . S
H468 C472 0.949 . S
C469 C470 1.349 . S
C469 C471 1.327 . S
C469 H492 0.950 . S
C470 C469 1.349 . S
C470 C482 1.349 . S
C471 C469 1.327 . S
C471 C487 1.429 . S
C471 H493 0.950 . S
C472 H468 0.949 . S
C472 C480 1.574 . S
C472 C488 1.368 . S
H473 C481 0.950 . S
H474 C479 0.950 . S
H475 C480 0.949 . S
H476 C482 0.950 . S
H477 C483 0.950 . S
H478 C484 0.949 . S
C479 H474 0.950 . S
C479 C481 1.327 . S
C479 C485 1.429 . S
C480 C472 1.574 . S
C480 H475 0.949 . S
C480 C486 1.368 . S
C481 C465 1.349 . S
C481 H473 0.950 . S
C481 C479 1.327 . S
C482 C470 1.349 . S
C482 H476 0.950 . S
C482 C483 1.327 . S
C483 H477 0.950 . S
C483 C482 1.327 . S
C483 C487 1.429 . S
C484 C467 1.574 . S
C484 H478 0.949 . S
C484 C488 1.368 . S
C485 C466 1.429 . S
C485 C479 1.429 . S
C485 C486 1.523 . S
C486 C467 1.368 . S
C486 C480 1.368 . S
C486 C485 1.523 . S
C487 C471 1.429 . S
C487 C483 1.429 . S
C487 C488 1.523 . S
C488 C472 1.368 . S
C488 C484 1.368 . S
C488 C487 1.523 . S
H489 C464 0.950 . S
H490 C466 0.950 . S
H491 C467 0.949 . S
H492 C469 0.950 . S
H493 C471 0.950 . S
C494 C495 1.349 . S
C494 C496 1.327 . S
C494 H519 0.950 . S
C495 C494 1.349 . S
C495 C511 1.349 . S
C496 C494 1.327 . S
C496 C515 1.429 . S
C496 H520 0.950 . S
C497 C514 1.574 . S
C497 C516 1.368 . S
C497 H521 0.949 . S
H498 C502 0.949 . S
C499 C500 1.349 . S
C499 C501 1.327 . S
C499 H522 0.950 . S
C500 C499 1.349 . S
C500 C512 1.349 . S
C501 C499 1.327 . S
C501 C517 1.429 . S
C501 H523 0.950 . S
C502 H498 0.949 . S
C502 C510 1.574 . S
C502 C518 1.368 . S
H503 C511 0.950 . S
H504 C509 0.950 . S
H505 C510 0.949 . S
H506 C512 0.950 . S
H507 C513 0.950 . S
H508 C514 0.949 . S
C509 H504 0.950 . S
C509 C511 1.327 . S
C509 C515 1.429 . S
C510 C502 1.574 . S
C510 H505 0.949 . S
C510 C516 1.368 . S
C511 C495 1.349 . S
C511 H503 0.950 . S
C511 C509 1.327 . S
C512 C500 1.349 . S
C512 H506 0.950 . S
C512 C513 1.327 . S
C513 H507 0.950 . S
C513 C512 1.327 . S
C513 C517 1.429 . S
C514 C497 1.574 . S
C514 H508 0.949 . S
C514 C518 1.368 . S
C515 C496 1.429 . S
C515 C509 1.429 . S
C515 C516 1.523 . S
C516 C497 1.368 . S
C516 C510 1.368 . S
C516 C515 1.523 . S
C517 C501 1.429 . S
C517 C513 1.429 . S
C517 C518 1.523 . S
C518 C502 1.368 . S
C518 C514 1.368 . S
C518 C517 1.523 . S
H519 C494 0.950 . S
H520 C496 0.950 . S
H521 C497 0.949 . S
H522 C499 0.950 . S
H523 C501 0.950 . S
C524 C525 1.349 . S
C524 C526 1.327 . S
C524 H549 0.950 . S
C525 C524 1.349 . S
C525 C541 1.349 . S
C526 C524 1.327 . S
C526 C545 1.429 . S
C526 H550 0.950 . S
C527 C544 1.574 . S
C527 C546 1.368 . S
C527 H551 0.949 . S
H528 C532 0.949 . S
C529 C530 1.349 . S
C529 C531 1.327 . S
C529 H552 0.950 . S
C530 C529 1.349 . S
C530 C542 1.349 . S
C531 C529 1.327 . S
C531 C547 1.429 . S
C531 H553 0.950 . S
C532 H528 0.949 . S
C532 C540 1.574 . S
C532 C548 1.368 . S
H533 C541 0.950 . S
H534 C539 0.950 . S
H535 C540 0.949 . S
H536 C542 0.950 . S
H537 C543 0.950 . S
H538 C544 0.949 . S
C539 H534 0.950 . S
C539 C541 1.327 . S
C539 C545 1.429 . S
C540 C532 1.574 . S
C540 H535 0.949 . S
C540 C546 1.368 . S
C541 C525 1.349 . S
C541 H533 0.950 . S
C541 C539 1.327 . S
C542 C530 1.349 . S
C542 H536 0.950 . S
C542 C543 1.327 . S
C543 H537 0.950 . S
C543 C542 1.327 . S
C543 C547 1.429 . S
C544 C527 1.574 . S
C544 H538 0.949 . S
C544 C548 1.368 . S
C545 C526 1.429 . S
C545 C539 1.429 . S
C545 C546 1.523 . S
C546 C527 1.368 . S
C546 C540 1.368 . S
C546 C545 1.523 . S
C547 C531 1.429 . S
C547 C543 1.429 . S
C547 C548 1.523 . S
C548 C532 1.368 . S
C548 C544 1.368 . S
C548 C547 1.523 . S
H549 C524 0.950 . S
H550 C526 0.950 . S
H551 C527 0.949 . S
H552 C529 0.950 . S
H553 C531 0.950 . S
C554 C555 1.349 . S
C554 C556 1.327 . S
C554 H579 0.950 . S
C555 C554 1.349 . S
C555 C571 1.349 . S
C556 C554 1.327 . S
C556 C575 1.429 . S
C556 H580 0.950 . S
C557 C574 1.574 . S
C557 C576 1.368 . S
C557 H581 0.949 . S
H558 C562 0.949 . S
C559 C560 1.349 . S
C559 C561 1.327 . S
C559 H582 0.950 . S
C560 C559 1.349 . S
C560 C572 1.349 . S
C561 C559 1.327 . S
C561 C577 1.429 . S
C561 H583 0.950 . S
C562 H558 0.949 . S
C562 C570 1.574 . S
C562 C578 1.368 . S
H563 C571 0.950 . S
H564 C569 0.950 . S
H565 C570 0.949 . S
H566 C572 0.950 . S
H567 C573 0.950 . S
H568 C574 0.949 . S
C569 H564 0.950 . S
C569 C571 1.327 . S
C569 C575 1.429 . S
C570 C562 1.574 . S
C570 H565 0.949 . S
C570 C576 1.368 . S
C571 C555 1.349 . S
C571 H563 0.950 . S
C571 C569 1.327 . S
C572 C560 1.349 . S
C572 H566 0.950 . S
C572 C573 1.327 . S
C573 H567 0.950 . S
C573 C572 1.327 . S
C573 C577 1.429 . S
C574 C557 1.574 . S
C574 H568 0.949 . S
C574 C578 1.368 . S
C575 C556 1.429 . S
C575 C569 1.429 . S
C575 C576 1.523 . S
C576 C557 1.368 . S
C576 C570 1.368 . S
C576 C575 1.523 . S
C577 C561 1.429 . S
C577 C573 1.429 . S
C577 C578 1.523 . S
C578 C562 1.368 . S
C578 C574 1.368 . S
C578 C577 1.523 . S
H579 C554 0.950 . S
H580 C556 0.950 . S
H581 C557 0.949 . S
H582 C559 0.950 . S
H583 C561 0.950 . S
C584 C585 1.349 . S
C584 C586 1.327 . S
C584 H609 0.950 . S
C585 C584 1.349 . S
C585 C601 1.349 . S
C586 C584 1.327 . S
C586 C605 1.429 . S
C586 H610 0.950 . S
C587 C604 1.574 . S
C587 C606 1.368 . S
C587 H611 0.949 . S
H588 C592 0.949 . S
C589 C590 1.349 . S
C589 C591 1.327 . S
C589 H612 0.950 . S
C590 C589 1.349 . S
C590 C602 1.349 . S
C591 C589 1.327 . S
C591 C607 1.429 . S
C591 H613 0.950 . S
C592 H588 0.949 . S
C592 C600 1.574 . S
C592 C608 1.368 . S
H593 C601 0.950 . S
H594 C599 0.950 . S
H595 C600 0.949 . S
H596 C602 0.950 . S
H597 C603 0.950 . S
H598 C604 0.949 . S
C599 H594 0.950 . S
C599 C601 1.327 . S
C599 C605 1.429 . S
C600 C592 1.574 . S
C600 H595 0.949 . S
C600 C606 1.368 . S
C601 C585 1.349 . S
C601 H593 0.950 . S
C601 C599 1.327 . S
C602 C590 1.349 . S
C602 H596 0.950 . S
C602 C603 1.327 . S
C603 H597 0.950 . S
C603 C602 1.327 . S
C603 C607 1.429 . S
C604 C587 1.574 . S
C604 H598 0.949 . S
C604 C608 1.368 . S
C605 C586 1.429 . S
C605 C599 1.429 . S
C605 C606 1.523 . S
C606 C587 1.368 . S
C606 C600 1.368 . S
C606 C605 1.523 . S
C607 C591 1.429 . S
C607 C603 1.429 . S
C607 C608 1.523 . S
C608 C592 1.368 . S
C608 C604 1.368 . S
C608 C607 1.523 . S
H609 C584 0.950 . S
H610 C586 0.950 . S
H611 C587 0.949 . S
H612 C589 0.950 . S
H613 C591 0.950 . S
C614 C615 1.349 . S
C614 C616 1.327 . S
C614 H639 0.950 . S
C615 C614 1.349 . S
C615 C631 1.349 . S
C616 C614 1.327 . S
C616 C635 1.429 . S
C616 H640 0.950 . S
C617 C634 1.574 . S
C617 C636 1.368 . S
C617 H641 0.949 . S
H618 C622 0.949 . S
C619 C620 1.349 . S
C619 C621 1.327 . S
C619 H642 0.950 . S
C620 C619 1.349 . S
C620 C632 1.349 . S
C621 C619 1.327 . S
C621 C637 1.429 . S
C621 H643 0.950 . S
C622 H618 0.949 . S
C622 C630 1.574 . S
C622 C638 1.368 . S
H623 C631 0.950 . S
H624 C629 0.950 . S
H625 C630 0.949 . S
H626 C632 0.950 . S
H627 C633 0.950 . S
H628 C634 0.949 . S
C629 H624 0.950 . S
C629 C631 1.327 . S
C629 C635 1.429 . S
C630 C622 1.574 . S
C630 H625 0.949 . S
C630 C636 1.368 . S
C631 C615 1.349 . S
C631 H623 0.950 . S
C631 C629 1.327 . S
C632 C620 1.349 . S
C632 H626 0.950 . S
C632 C633 1.327 . S
C633 H627 0.950 . S
C633 C632 1.327 . S
C633 C637 1.429 . S
C634 C617 1.574 . S
C634 H628 0.949 . S
C634 C638 1.368 . S
C635 C616 1.429 . S
C635 C629 1.429 . S
C635 C636 1.523 . S
C636 C617 1.368 . S
C636 C630 1.368 . S
C636 C635 1.523 . S
C637 C621 1.429 . S
C637 C633 1.429 . S
C637 C638 1.523 . S
C638 C622 1.368 . S
C638 C634 1.368 . S
C638 C637 1.523 . S
H639 C614 0.950 . S
H640 C616 0.950 . S
H641 C617 0.949 . S
H642 C619 0.950 . S
H643 C621 0.950 . S
C644 C645 1.349 . S
C644 C646 1.327 . S
C644 H669 0.950 . S
C645 C644 1.349 . S
C645 C661 1.349 . S
C646 C644 1.327 . S
C646 C665 1.429 . S
C646 H670 0.950 . S
C647 C664 1.574 . S
C647 C666 1.368 . S
C647 H671 0.949 . S
H648 C652 0.949 . S
C649 C650 1.349 . S
C649 C651 1.327 . S
C649 H672 0.950 . S
C650 C649 1.349 . S
C650 C662 1.349 . S
C651 C649 1.327 . S
C651 C667 1.429 . S
C651 H673 0.950 . S
C652 H648 0.949 . S
C652 C660 1.574 . S
C652 C668 1.368 . S
H653 C661 0.950 . S
H654 C659 0.950 . S
H655 C660 0.949 . S
H656 C662 0.950 . S
H657 C663 0.950 . S
H658 C664 0.949 . S
C659 H654 0.950 . S
C659 C661 1.327 . S
C659 C665 1.429 . S
C660 C652 1.574 . S
C660 H655 0.949 . S
C660 C666 1.368 . S
C661 C645 1.349 . S
C661 H653 0.950 . S
C661 C659 1.327 . S
C662 C650 1.349 . S
C662 H656 0.950 . S
C662 C663 1.327 . S
C663 H657 0.950 . S
C663 C662 1.327 . S
C663 C667 1.429 . S
C664 C647 1.574 . S
C664 H658 0.949 . S
C664 C668 1.368 . S
C665 C646 1.429 . S
C665 C659 1.429 . S
C665 C666 1.523 . S
C666 C647 1.368 . S
C666 C660 1.368 . S
C666 C665 1.523 . S
C667 C651 1.429 . S
C667 C663 1.429 . S
C667 C668 1.523 . S
C668 C652 1.368 . S
C668 C664 1.368 . S
C668 C667 1.523 . S
H669 C644 0.950 . S
H670 C646 0.950 . S
H671 C647 0.949 . S
H672 C649 0.950 . S
H673 C651 0.950 . S
C674 C675 1.349 . S
C674 C676 1.327 . S
C674 H699 0.950 . S
C675 C674 1.349 . S
C675 C691 1.349 . S
C676 C674 1.327 . S
C676 C695 1.429 . S
C676 H700 0.950 . S
C677 C694 1.574 . S
C677 C696 1.368 . S
C677 H701 0.949 . S
H678 C682 0.949 . S
C679 C680 1.349 . S
C679 C681 1.327 . S
C679 H702 0.950 . S
C680 C679 1.349 . S
C680 C692 1.349 . S
C681 C679 1.327 . S
C681 C697 1.429 . S
C681 H703 0.950 . S
C682 H678 0.949 . S
C682 C690 1.574 . S
C682 C698 1.368 . S
H683 C691 0.950 . S
H684 C689 0.950 . S
H685 C690 0.949 . S
H686 C692 0.950 . S
H687 C693 0.950 . S
H688 C694 0.949 . S
C689 H684 0.950 . S
C689 C691 1.327 . S
C689 C695 1.429 . S
C690 C682 1.574 . S
C690 H685 0.949 . S
C690 C696 1.368 . S
C691 C675 1.349 . S
C691 H683 0.950 . S
C691 C689 1.327 . S
C692 C680 1.349 . S
C692 H686 0.950 . S
C692 C693 1.327 . S
C693 H687 0.950 . S
C693 C692 1.327 . S
C693 C697 1.429 . S
C694 C677 1.574 . S
C694 H688 0.949 . S
C694 C698 1.368 . S
C695 C676 1.429 . S
C695 C689 1.429 . S
C695 C696 1.523 . S
C696 C677 1.368 . S
C696 C690 1.368 . S
C696 C695 1.523 . S
C697 C681 1.429 . S
C697 C693 1.429 . S
C697 C698 1.523 . S
C698 C682 1.368 . S
C698 C694 1.368 . S
C698 C697 1.523 . S
H699 C674 0.950 . S
H700 C676 0.950 . S
H701 C677 0.949 . S
H702 C679 0.950 . S
H703 C681 0.950 . S
C704 C705 1.349 . S
C704 C706 1.327 . S
C704 H729 0.950 . S
C705 C704 1.349 . S
C705 C721 1.349 . S
C706 C704 1.327 . S
C706 C725 1.429 1_565 S
C706 H730 0.950 . S
C707 C724 1.574 . S
C707 C726 1.368 . S
C707 H731 0.949 . S
H708 C712 0.949 . S
C709 C710 1.349 . S
C709 C711 1.327 . S
C709 H732 0.950 . S
C710 C709 1.349 . S
C710 C722 1.349 . S
C711 C709 1.327 . S
C711 C727 1.429 . S
C711 H733 0.950 . S
C712 H708 0.949 . S
C712 C720 1.574 . S
C712 C728 1.368 . S
H713 C721 0.956 . S
H714 C719 0.950 . S
H715 C720 0.949 . S
H716 C722 0.950 . S
H717 C723 0.950 . S
H718 C724 0.949 . S
C719 H714 0.950 . S
C719 C721 1.327 1_545 S
C719 C725 1.429 . S
C720 C712 1.574 . S
C720 H715 0.949 . S
C720 C726 1.368 . S
C721 C705 1.349 . S
C721 H713 0.956 . S
C721 C719 1.327 1_565 S
C722 C710 1.349 . S
C722 H716 0.950 . S
C722 C723 1.327 . S
C723 H717 0.950 . S
C723 C722 1.327 . S
C723 C727 1.429 . S
C724 C707 1.574 . S
C724 H718 0.949 . S
C724 C728 1.368 . S
C725 C706 1.429 1_545 S
C725 C719 1.429 . S
C725 C726 1.523 . S
C726 C707 1.368 . S
C726 C720 1.368 . S
C726 C725 1.523 . S
C727 C711 1.429 . S
C727 C723 1.429 . S
C727 C728 1.523 . S
C728 C712 1.368 . S
C728 C724 1.368 . S
C728 C727 1.523 . S
H729 C704 0.950 . S
H730 C706 0.950 . S
H731 C707 0.949 . S
H732 C709 0.950 . S
H733 C711 0.950 . S
C734 C735 1.349 . S
C734 C736 1.327 . S
C734 H759 0.950 . S
C735 C734 1.349 . S
C735 C751 1.349 . S
C736 C734 1.327 . S
C736 C755 1.429 . S
C736 H760 0.950 . S
C737 C754 1.574 . S
C737 C756 1.368 . S
C737 H761 0.949 . S
H738 C742 0.949 . S
C739 C740 1.349 . S
C739 C741 1.327 1_655 S
C739 H762 0.950 . S
C740 C739 1.349 . S
C740 C752 1.349 . S
C741 C739 1.327 1_455 S
C741 C757 1.429 . S
C741 H763 0.950 . S
C742 H738 0.949 . S
C742 C750 1.574 . S
C742 C758 1.368 . S
H743 C751 0.950 . S
H744 C749 0.950 . S
H745 C750 0.949 . S
H746 C752 0.950 . S
H747 C753 0.950 . S
H748 C754 0.949 . S
C749 H744 0.950 . S
C749 C751 1.327 . S
C749 C755 1.429 . S
C750 C742 1.574 . S
C750 H745 0.949 . S
C750 C756 1.368 . S
C751 C735 1.349 . S
C751 H743 0.950 . S
C751 C749 1.327 . S
C752 C740 1.349 . S
C752 H746 0.950 . S
C752 C753 1.327 . S
C753 H747 0.950 . S
C753 C752 1.327 . S
C753 C757 1.429 1_655 S
C754 C737 1.574 . S
C754 H748 0.949 . S
C754 C758 1.368 . S
C755 C736 1.429 . S
C755 C749 1.429 . S
C755 C756 1.523 . S
C756 C737 1.368 . S
C756 C750 1.368 . S
C756 C755 1.523 . S
C757 C741 1.429 . S
C757 C753 1.429 1_455 S
C757 C758 1.523 . S
C758 C742 1.368 . S
C758 C754 1.368 . S
C758 C757 1.523 . S
H759 C734 0.950 . S
H760 C736 0.950 . S
H761 C737 0.949 . S
H762 C739 0.950 . S
H763 C741 0.950 . S
C764 C765 1.349 . S
C764 C766 1.327 . S
C764 H789 0.950 . S
C765 C764 1.349 . S
C765 C781 1.349 . S
C766 C764 1.327 . S
C766 C785 1.429 1_545 S
C766 H790 0.950 . S
C767 C784 1.574 . S
C767 C786 1.368 . S
C767 H791 0.949 . S
H768 C772 0.949 . S
C769 C770 1.349 . S
C769 C771 1.327 . S
C769 H792 0.950 . S
C770 C769 1.349 . S
C770 C782 1.349 . S
C771 C769 1.327 . S
C771 C787 1.429 . S
C771 H793 0.950 . S
C772 H768 0.949 . S
C772 C780 1.574 . S
C772 C788 1.368 . S
H773 C781 0.950 . S
H774 C779 0.950 . S
H775 C780 0.949 . S
H776 C782 0.950 . S
H777 C783 0.950 . S
H778 C784 0.949 . S
C779 H774 0.950 . S
C779 C781 1.327 1_565 S
C779 C785 1.429 . S
C780 C772 1.574 . S
C780 H775 0.949 . S
C780 C786 1.368 . S
C781 C765 1.349 . S
C781 H773 0.950 . S
C781 C779 1.327 1_545 S
C782 C770 1.349 . S
C782 H776 0.950 . S
C782 C783 1.327 . S
C783 H777 0.950 . S
C783 C782 1.327 . S
C783 C787 1.429 . S
C784 C767 1.574 . S
C784 H778 0.949 . S
C784 C788 1.368 . S
C785 C766 1.429 1_565 S
C785 C779 1.429 . S
C785 C786 1.523 . S
C786 C767 1.368 . S
C786 C780 1.368 . S
C786 C785 1.523 . S
C787 C771 1.429 . S
C787 C783 1.429 . S
C787 C788 1.523 . S
C788 C772 1.368 . S
C788 C784 1.368 . S
C788 C787 1.523 . S
H789 C764 0.950 . S
H790 C766 0.950 . S
H791 C767 0.949 . S
H792 C769 0.950 . S
H793 C771 0.950 . S
C794 C795 1.349 . S
C794 C796 1.327 . S
C794 H819 0.950 . S
C795 C794 1.349 . S
C795 C811 1.349 . S
C796 C794 1.327 . S
C796 C815 1.429 . S
C796 H820 0.950 . S
C797 C814 1.574 . S
C797 C816 1.368 . S
C797 H821 0.949 . S
H798 C802 0.949 . S
C799 C800 1.349 . S
C799 C801 1.327 1_455 S
C799 H822 0.950 . S
C800 C799 1.349 . S
C800 C812 1.349 . S
C801 C799 1.327 1_655 S
C801 C817 1.429 . S
C801 H823 0.950 . S
C802 H798 0.949 . S
C802 C810 1.574 . S
C802 C818 1.368 . S
H803 C811 0.950 . S
H804 C809 0.950 . S
H805 C810 0.949 . S
H806 C812 0.950 . S
H807 C813 0.950 . S
H808 C814 0.949 . S
C809 H804 0.950 . S
C809 C811 1.327 . S
C809 C815 1.429 . S
C810 C802 1.574 . S
C810 H805 0.949 . S
C810 C816 1.368 . S
C811 C795 1.349 . S
C811 H803 0.950 . S
C811 C809 1.327 . S
C812 C800 1.349 . S
C812 H806 0.950 . S
C812 C813 1.327 1_455 S
C813 H807 0.950 . S
C813 C812 1.327 1_655 S
C813 C817 1.429 . S
C814 C797 1.574 . S
C814 H808 0.949 . S
C814 C818 1.368 . S
C815 C796 1.429 . S
C815 C809 1.429 . S
C815 C816 1.523 . S
C816 C797 1.368 . S
C816 C810 1.368 . S
C816 C815 1.523 . S
C817 C801 1.429 . S
C817 C813 1.429 . S
C817 C818 1.523 . S
C818 C802 1.368 . S
C818 C814 1.368 . S
C818 C817 1.523 . S
H819 C794 0.950 . S
H820 C796 0.950 . S
H821 C797 0.949 . S
H822 C799 0.950 . S
H823 C801 0.950 . S
C824 C825 1.349 . S
C824 C826 1.327 . S
C824 H849 0.950 . S
C825 C824 1.349 . S
C825 C841 1.349 . S
C826 C824 1.327 . S
C826 C845 1.429 1_545 S
C826 H850 0.950 . S
C827 C844 1.574 . S
C827 C846 1.368 . S
C827 H851 0.949 . S
H828 C832 0.949 . S
C829 C830 1.349 . S
C829 C831 1.327 . S
C829 H852 0.950 . S
C830 C829 1.349 . S
C830 C842 1.349 . S
C831 C829 1.327 . S
C831 C847 1.429 . S
C831 H853 0.950 . S
C832 H828 0.949 . S
C832 C840 1.574 . S
C832 C848 1.368 . S
H833 C841 0.950 . S
H834 C839 0.950 . S
H835 C840 0.949 . S
H836 C842 0.950 . S
H837 C843 0.950 . S
H838 C844 0.949 . S
C839 H834 0.950 . S
C839 C841 1.327 1_565 S
C839 C845 1.429 . S
C840 C832 1.574 . S
C840 H835 0.949 . S
C840 C846 1.368 . S
C841 C825 1.349 . S
C841 H833 0.950 . S
C841 C839 1.327 1_545 S
C842 C830 1.349 . S
C842 H836 0.950 . S
C842 C843 1.327 . S
C843 H837 0.950 . S
C843 C842 1.327 . S
C843 C847 1.429 . S
C844 C827 1.574 . S
C844 H838 0.949 . S
C844 C848 1.368 . S
C845 C826 1.429 1_565 S
C845 C839 1.429 . S
C845 C846 1.523 . S
C846 C827 1.368 . S
C846 C840 1.368 . S
C846 C845 1.523 . S
C847 C831 1.429 . S
C847 C843 1.429 . S
C847 C848 1.523 . S
C848 C832 1.368 . S
C848 C844 1.368 . S
C848 C847 1.523 . S
H849 C824 0.950 . S
H850 C826 0.950 . S
H851 C827 0.949 . S
H852 C829 0.950 . S
H853 C831 0.950 . S
C854 C855 1.349 . S
C854 C856 1.327 . S
C854 H879 0.950 . S
C855 C854 1.349 . S
C855 C871 1.349 . S
C856 C854 1.327 . S
C856 C875 1.429 . S
C856 H880 0.950 . S
C857 C874 1.574 . S
C857 C876 1.368 . S
C857 H881 0.949 . S
H858 C862 0.949 . S
C859 C860 1.349 . S
C859 C861 1.327 1_455 S
C859 H882 0.950 . S
C860 C859 1.349 . S
C860 C872 1.349 . S
C861 C859 1.327 1_655 S
C861 C877 1.429 . S
C861 H883 0.950 . S
C862 H858 0.949 . S
C862 C870 1.574 . S
C862 C878 1.368 . S
H863 C871 0.950 . S
H864 C869 0.950 . S
H865 C870 0.949 . S
H866 C872 0.950 . S
H867 C873 0.950 . S
H868 C874 0.949 . S
C869 H864 0.950 . S
C869 C871 1.327 . S
C869 C875 1.429 . S
C870 C862 1.574 . S
C870 H865 0.949 . S
C870 C876 1.368 . S
C871 C855 1.349 . S
C871 H863 0.950 . S
C871 C869 1.327 . S
C872 C860 1.349 . S
C872 H866 0.950 . S
C872 C873 1.327 . S
C873 H867 0.950 . S
C873 C872 1.327 . S
C873 C877 1.429 1_455 S
C874 C857 1.574 . S
C874 H868 0.949 . S
C874 C878 1.368 . S
C875 C856 1.429 . S
C875 C869 1.429 . S
C875 C876 1.523 . S
C876 C857 1.368 . S
C876 C870 1.368 . S
C876 C875 1.523 . S
C877 C861 1.429 . S
C877 C873 1.429 1_655 S
C877 C878 1.523 . S
C878 C862 1.368 . S
C878 C874 1.368 . S
C878 C877 1.523 . S
H879 C854 0.950 . S
H880 C856 0.950 . S
H881 C857 0.949 . S
H882 C859 0.950 . S
H883 C861 0.950 . S
C884 C885 1.349 . S
C884 C886 1.327 . S
C884 H909 0.950 . S
C885 C884 1.349 . S
C885 C901 1.349 . S
C886 C884 1.327 . S
C886 C905 1.429 . S
C886 H910 0.950 . S
C887 C904 1.574 . S
C887 C906 1.368 . S
C887 H911 0.949 . S
H888 C892 0.949 . S
C889 C890 1.349 . S
C889 C891 1.345 . S
C889 H912 0.950 . S
C890 C889 1.349 . S
C890 C902 1.349 . S
C891 C889 1.345 . S
C891 C907 1.416 1_565 S
C891 H913 0.944 1_565 S
C892 H888 0.949 . S
C892 C900 1.574 . S
C892 C908 1.368 . S
H893 C901 0.950 . S
H894 C899 0.950 . S
H895 C900 0.949 . S
H896 C902 0.950 . S
H897 C903 0.950 . S
H898 C904 0.949 . S
C899 H894 0.950 . S
C899 C901 1.327 . S
C899 C905 1.429 . S
C900 C892 1.574 . S
C900 H895 0.949 . S
C900 C906 1.368 . S
C901 C885 1.349 . S
C901 H893 0.950 . S
C901 C899 1.327 . S
C902 C890 1.349 . S
C902 H896 0.950 . S
C902 C903 1.327 1_565 S
C903 H897 0.950 . S
C903 C902 1.327 1_545 S
C903 C907 1.429 . S
C904 C887 1.574 . S
C904 H898 0.949 . S
C904 C908 1.368 . S
C905 C886 1.429 . S
C905 C899 1.429 . S
C905 C906 1.523 . S
C906 C887 1.368 . S
C906 C900 1.368 . S
C906 C905 1.523 . S
C907 C891 1.416 1_545 S
C907 C903 1.429 . S
C907 C908 1.523 . S
C908 C892 1.368 . S
C908 C904 1.368 . S
C908 C907 1.523 . S
H909 C884 0.950 . S
H910 C886 0.950 . S
H911 C887 0.949 . S
H912 C889 0.950 . S
H913 C891 0.944 1_545 S
C914 C915 1.349 . S
C914 C916 1.327 . S
C914 H939 0.950 . S
C915 C914 1.349 . S
C915 C931 1.349 . S
C916 C914 1.327 . S
C916 C935 1.429 . S
C916 H940 0.950 . S
C917 C934 1.574 . S
C917 C936 1.368 . S
C917 H941 0.949 . S
H918 C922 0.949 . S
C919 C920 1.349 . S
C919 C921 1.327 1_655 S
C919 H942 0.950 . S
C920 C919 1.349 . S
C920 C932 1.349 . S
C921 C919 1.327 1_455 S
C921 C937 1.429 . S
C921 H943 0.950 . S
C922 H918 0.949 . S
C922 C930 1.574 . S
C922 C938 1.368 . S
H923 C931 0.950 . S
H924 C929 0.950 . S
H925 C930 0.949 . S
H926 C932 0.950 . S
H927 C933 0.950 . S
H928 C934 0.949 . S
C929 H924 0.950 . S
C929 C931 1.327 . S
C929 C935 1.429 . S
C930 C922 1.574 . S
C930 H925 0.949 . S
C930 C936 1.368 . S
C931 C915 1.349 . S
C931 H923 0.950 . S
C931 C929 1.327 . S
C932 C920 1.349 . S
C932 H926 0.950 . S
C932 C933 1.327 . S
C933 H927 0.950 . S
C933 C932 1.327 . S
C933 C937 1.429 1_655 S
C934 C917 1.574 . S
C934 H928 0.949 . S
C934 C938 1.368 . S
C935 C916 1.429 . S
C935 C929 1.429 . S
C935 C936 1.523 . S
C936 C917 1.368 . S
C936 C930 1.368 . S
C936 C935 1.523 . S
C937 C921 1.429 . S
C937 C933 1.429 1_455 S
C937 C938 1.523 . S
C938 C922 1.368 . S
C938 C934 1.368 . S
C938 C937 1.523 . S
H939 C914 0.950 . S
H940 C916 0.950 . S
H941 C917 0.949 . S
H942 C919 0.950 . S
H943 C921 0.950 . S
C944 C945 1.349 . S
C944 C946 1.327 . S
C944 H969 0.950 . S
C945 C944 1.349 . S
C945 C961 1.349 . S
C946 C944 1.327 . S
C946 C965 1.429 . S
C946 H970 0.950 . S
C947 C964 1.574 . S
C947 C966 1.368 . S
C947 H971 0.949 . S
H948 C952 0.949 . S
C949 C950 1.349 . S
C949 C951 1.327 . S
C949 H972 0.950 . S
C950 C949 1.349 . S
C950 C962 1.349 . S
C951 C949 1.327 . S
C951 C967 1.429 . S
C951 H973 0.950 . S
C952 H948 0.949 . S
C952 C960 1.574 . S
C952 C968 1.368 . S
H953 C961 0.950 . S
H954 C959 0.950 . S
H955 C960 0.949 . S
H956 C962 0.950 . S
H957 C963 0.950 . S
H958 C964 0.949 . S
C959 H954 0.950 . S
C959 C961 1.327 . S
C959 C965 1.429 . S
C960 C952 1.574 . S
C960 H955 0.949 . S
C960 C966 1.368 . S
C961 C945 1.349 . S
C961 H953 0.950 . S
C961 C959 1.327 . S
C962 C950 1.349 . S
C962 H956 0.950 . S
C962 C963 1.327 . S
C963 H957 0.950 . S
C963 C962 1.327 . S
C963 C967 1.429 . S
C964 C947 1.574 . S
C964 H958 0.949 . S
C964 C968 1.368 . S
C965 C946 1.429 . S
C965 C959 1.429 . S
C965 C966 1.523 . S
C966 C947 1.368 . S
C966 C960 1.368 . S
C966 C965 1.523 . S
C967 C951 1.429 . S
C967 C963 1.429 . S
C967 C968 1.523 . S
C968 C952 1.368 . S
C968 C964 1.368 . S
C968 C967 1.523 . S
H969 C944 0.950 . S
H970 C946 0.950 . S
H971 C947 0.949 . S
H972 C949 0.950 . S
H973 C951 0.950 . S
C974 C975 1.349 . S
C974 C976 1.327 . S
C974 H999 0.950 . S
C975 C974 1.349 . S
C975 C991 1.349 . S
C976 C974 1.327 . S
C976 C995 1.429 . S
C976 H1000 0.950 . S
C977 C994 1.574 . S
C977 C996 1.368 . S
C977 H1001 0.949 . S
H978 C982 0.949 . S
C979 C980 1.349 . S
C979 C981 1.327 . S
C979 H1002 0.950 . S
C980 C979 1.349 . S
C980 C992 1.349 . S
C981 C979 1.327 . S
C981 C997 1.429 . S
C981 H1003 0.950 . S
C982 H978 0.949 . S
C982 C990 1.574 . S
C982 C998 1.368 . S
H983 C991 0.950 . S
H984 C989 0.950 . S
H985 C990 0.949 . S
H986 C992 0.950 . S
H987 C993 0.950 . S
H988 C994 0.949 . S
C989 H984 0.950 . S
C989 C991 1.327 . S
C989 C995 1.429 . S
C990 C982 1.574 . S
C990 H985 0.949 . S
C990 C996 1.368 . S
C991 C975 1.349 . S
C991 H983 0.950 . S
C991 C989 1.327 . S
C992 C980 1.349 . S
C992 H986 0.950 . S
C992 C993 1.327 . S
C993 H987 0.950 . S
C993 C992 1.327 . S
C993 C997 1.429 . S
C994 C977 1.574 . S
C994 H988 0.949 . S
C994 C998 1.368 . S
C995 C976 1.429 . S
C995 C989 1.429 . S
C995 C996 1.523 . S
C996 C977 1.368 . S
C996 C990 1.368 . S
C996 C995 1.523 . S
C997 C981 1.429 . S
C997 C993 1.429 . S
C997 C998 1.523 . S
C998 C982 1.368 . S
C998 C994 1.368 . S
C998 C997 1.523 . S
H999 C974 0.950 . S
H1000 C976 0.950 . S
H1001 C977 0.949 . S
H1002 C979 0.950 . S
H1003 C981 0.950 . S
C1004 C1005 1.349 . S
C1004 C1006 1.327 . S
C1004 H1029 0.950 . S
C1005 C1004 1.349 . S
C1005 C1021 1.349 . S
C1006 C1004 1.327 . S
C1006 C1025 1.429 . S
C1006 H1030 0.950 . S
C1007 C1024 1.574 . S
C1007 C1026 1.368 . S
C1007 H1031 0.949 . S
H1008 C1012 0.949 . S
C1009 C1010 1.349 . S
C1009 C1011 1.327 . S
C1009 H1032 0.950 . S
C1010 C1009 1.349 . S
C1010 C1022 1.349 . S
C1011 C1009 1.327 . S
C1011 C1027 1.429 . S
C1011 H1033 0.950 . S
C1012 H1008 0.949 . S
C1012 C1020 1.574 . S
C1012 C1028 1.368 . S
H1013 C1021 0.950 . S
H1014 C1019 0.950 . S
H1015 C1020 0.949 . S
H1016 C1022 0.950 . S
H1017 C1023 0.950 . S
H1018 C1024 0.949 . S
C1019 H1014 0.950 . S
C1019 C1021 1.327 . S
C1019 C1025 1.429 . S
C1020 C1012 1.574 . S
C1020 H1015 0.949 . S
C1020 C1026 1.368 . S
C1021 C1005 1.349 . S
C1021 H1013 0.950 . S
C1021 C1019 1.327 . S
C1022 C1010 1.349 . S
C1022 H1016 0.950 . S
C1022 C1023 1.327 . S
C1023 H1017 0.950 . S
C1023 C1022 1.327 . S
C1023 C1027 1.429 . S
C1024 C1007 1.574 . S
C1024 H1018 0.949 . S
C1024 C1028 1.368 . S
C1025 C1006 1.429 . S
C1025 C1019 1.429 . S
C1025 C1026 1.523 . S
C1026 C1007 1.368 . S
C1026 C1020 1.368 . S
C1026 C1025 1.523 . S
C1027 C1011 1.429 . S
C1027 C1023 1.429 . S
C1027 C1028 1.523 . S
C1028 C1012 1.368 . S
C1028 C1024 1.368 . S
C1028 C1027 1.523 . S
H1029 C1004 0.950 . S
H1030 C1006 0.950 . S
H1031 C1007 0.949 . S
H1032 C1009 0.950 . S
H1033 C1011 0.950 . S
C1034 C1035 1.349 . S
C1034 C1036 1.327 . S
C1034 H1059 0.950 . S
C1035 C1034 1.349 . S
C1035 C1051 1.349 . S
C1036 C1034 1.327 . S
C1036 C1055 1.429 . S
C1036 H1060 0.950 . S
C1037 C1054 1.574 . S
C1037 C1056 1.368 . S
C1037 H1061 0.949 . S
H1038 C1042 0.949 . S
C1039 C1040 1.349 . S
C1039 C1041 1.327 . S
C1039 H1062 0.950 . S
C1040 C1039 1.349 . S
C1040 C1052 1.349 . S
C1041 C1039 1.327 . S
C1041 C1057 1.429 . S
C1041 H1063 0.950 . S
C1042 H1038 0.949 . S
C1042 C1050 1.574 . S
C1042 C1058 1.368 . S
H1043 C1051 0.950 . S
H1044 C1049 0.950 . S
H1045 C1050 0.949 . S
H1046 C1052 0.950 . S
H1047 C1053 0.950 . S
H1048 C1054 0.949 . S
C1049 H1044 0.950 . S
C1049 C1051 1.327 . S
C1049 C1055 1.429 . S
C1050 C1042 1.574 . S
C1050 H1045 0.949 . S
C1050 C1056 1.368 . S
C1051 C1035 1.349 . S
C1051 H1043 0.950 . S
C1051 C1049 1.327 . S
C1052 C1040 1.349 . S
C1052 H1046 0.950 . S
C1052 C1053 1.327 . S
C1053 H1047 0.950 . S
C1053 C1052 1.327 . S
C1053 C1057 1.429 . S
C1054 C1037 1.574 . S
C1054 H1048 0.949 . S
C1054 C1058 1.368 . S
C1055 C1036 1.429 . S
C1055 C1049 1.429 . S
C1055 C1056 1.523 . S
C1056 C1037 1.368 . S
C1056 C1050 1.368 . S
C1056 C1055 1.523 . S
C1057 C1041 1.429 . S
C1057 C1053 1.429 . S
C1057 C1058 1.523 . S
C1058 C1042 1.368 . S
C1058 C1054 1.368 . S
C1058 C1057 1.523 . S
H1059 C1034 0.950 . S
H1060 C1036 0.950 . S
H1061 C1037 0.949 . S
H1062 C1039 0.950 . S
H1063 C1041 0.950 . S
C1064 C1065 1.349 . S
C1064 C1066 1.327 . S
C1064 H1089 0.950 . S
C1065 C1064 1.349 . S
C1065 C1081 1.349 . S
C1066 C1064 1.327 . S
C1066 C1085 1.429 . S
C1066 H1090 0.950 . S
C1067 C1084 1.574 1_554 S
C1067 C1086 1.368 1_565 S
C1067 H1091 0.949 . S
H1068 C1072 0.949 . S
C1069 C1070 1.349 . S
C1069 C1071 1.327 . S
C1069 H1092 0.950 . S
C1070 C1069 1.349 . S
C1070 C1082 1.349 . S
C1071 C1069 1.327 . S
C1071 C1087 1.429 . S
C1071 H1093 0.950 . S
C1072 H1068 0.949 . S
C1072 C1080 1.574 1_556 S
C1072 C1088 1.368 1_545 S
H1073 C1081 0.950 . S
H1074 C1079 0.964 . S
H1075 C1080 0.949 . S
H1076 C1082 0.950 . S
H1077 C1083 0.964 . S
H1078 C1084 0.949 . S
C1079 H1074 0.964 . S
C1079 C1081 1.327 . S
C1079 C1085 1.429 . S
C1080 C1072 1.574 1_554 S
C1080 H1075 0.949 . S
C1080 C1086 1.368 . S
C1081 C1065 1.349 . S
C1081 H1073 0.950 . S
C1081 C1079 1.327 . S
C1082 C1070 1.349 . S
C1082 H1076 0.950 . S
C1082 C1083 1.327 . S
C1083 H1077 0.964 . S
C1083 C1082 1.327 . S
C1083 C1087 1.429 . S
C1084 C1067 1.574 1_556 S
C1084 H1078 0.949 . S
C1084 C1088 1.368 . S
C1085 C1066 1.429 . S
C1085 C1079 1.429 . S
C1085 C1086 1.523 . S
C1086 C1067 1.368 1_545 S
C1086 C1080 1.368 . S
C1086 C1085 1.523 . S
C1087 C1071 1.429 . S
C1087 C1083 1.429 . S
C1087 C1088 1.523 . S
C1088 C1072 1.368 1_565 S
C1088 C1084 1.368 . S
C1088 C1087 1.523 . S
H1089 C1064 0.950 . S
H1090 C1066 0.950 . S
H1091 C1067 0.949 . S
H1092 C1069 0.950 . S
H1093 C1071 0.950 . S
C1094 C1095 1.349 . S
C1094 C1096 1.327 . S
C1094 H1119 0.950 . S
C1095 C1094 1.349 . S
C1095 C1111 1.349 . S
C1096 C1094 1.327 . S
C1096 C1115 1.429 . S
C1096 H1120 0.950 . S
C1097 C1114 1.574 1_556 S
C1097 C1116 1.368 1_655 S
C1097 H1121 0.949 . S
H1098 C1102 0.949 . S
C1099 C1100 1.349 . S
C1099 C1101 1.327 . S
C1099 H1122 0.950 . S
C1100 C1099 1.349 . S
C1100 C1112 1.349 . S
C1101 C1099 1.327 . S
C1101 C1117 1.429 . S
C1101 H1123 0.950 . S
C1102 H1098 0.949 . S
C1102 C1110 1.574 1_554 S
C1102 C1118 1.368 1_455 S
H1103 C1111 0.950 . S
H1104 C1109 0.950 . S
H1105 C1110 0.949 . S
H1106 C1112 0.950 . S
H1107 C1113 0.950 . S
H1108 C1114 0.949 . S
C1109 H1104 0.950 . S
C1109 C1111 1.327 . S
C1109 C1115 1.429 . S
C1110 C1102 1.574 1_556 S
C1110 H1105 0.949 . S
C1110 C1116 1.368 . S
C1111 C1095 1.349 . S
C1111 H1103 0.950 . S
C1111 C1109 1.327 . S
C1112 C1100 1.349 . S
C1112 H1106 0.950 . S
C1112 C1113 1.327 . S
C1113 H1107 0.950 . S
C1113 C1112 1.327 . S
C1113 C1117 1.429 . S
C1114 C1097 1.574 1_554 S
C1114 H1108 0.949 . S
C1114 C1118 1.368 . S
C1115 C1096 1.429 . S
C1115 C1109 1.429 . S
C1115 C1116 1.523 . S
C1116 C1097 1.368 1_455 S
C1116 C1110 1.368 . S
C1116 C1115 1.523 . S
C1117 C1101 1.429 . S
C1117 C1113 1.429 . S
C1117 C1118 1.523 . S
C1118 C1102 1.368 1_655 S
C1118 C1114 1.368 . S
C1118 C1117 1.523 . S
H1119 C1094 0.950 . S
H1120 C1096 0.950 . S
H1121 C1097 0.949 . S
H1122 C1099 0.950 . S
H1123 C1101 0.950 . S
C1124 C1125 1.349 . S
C1124 C1126 1.327 . S
C1124 H1149 0.950 . S
C1125 C1124 1.349 . S
C1125 C1141 1.349 . S
C1126 C1124 1.327 . S
C1126 C1145 1.429 . S
C1126 H1150 0.950 . S
C1127 C1144 1.574 1_556 S
C1127 C1146 1.368 1_565 S
C1127 H1151 0.949 . S
H1128 C1132 0.949 . S
C1129 C1130 1.349 . S
C1129 C1131 1.327 . S
C1129 H1152 0.950 . S
C1130 C1129 1.349 . S
C1130 C1142 1.349 . S
C1131 C1129 1.327 . S
C1131 C1147 1.429 . S
C1131 H1153 0.950 . S
C1132 H1128 0.949 . S
C1132 C1140 1.574 1_554 S
C1132 C1148 1.368 1_545 S
H1133 C1141 0.950 . S
H1134 C1139 0.950 . S
H1135 C1140 0.949 . S
H1136 C1142 0.950 . S
H1137 C1143 0.950 . S
H1138 C1144 0.949 . S
C1139 H1134 0.950 . S
C1139 C1141 1.327 . S
C1139 C1145 1.429 . S
C1140 C1132 1.574 1_556 S
C1140 H1135 0.949 . S
C1140 C1146 1.368 . S
C1141 C1125 1.349 . S
C1141 H1133 0.950 . S
C1141 C1139 1.327 . S
C1142 C1130 1.349 . S
C1142 H1136 0.950 . S
C1142 C1143 1.327 . S
C1143 H1137 0.950 . S
C1143 C1142 1.327 . S
C1143 C1147 1.429 . S
C1144 C1127 1.574 1_554 S
C1144 H1138 0.949 . S
C1144 C1148 1.368 . S
C1145 C1126 1.429 . S
C1145 C1139 1.429 . S
C1145 C1146 1.523 . S
C1146 C1127 1.368 1_545 S
C1146 C1140 1.368 . S
C1146 C1145 1.523 . S
C1147 C1131 1.429 . S
C1147 C1143 1.429 . S
C1147 C1148 1.523 . S
C1148 C1132 1.368 1_565 S
C1148 C1144 1.368 . S
C1148 C1147 1.523 . S
H1149 C1124 0.950 . S
H1150 C1126 0.950 . S
H1151 C1127 0.949 . S
H1152 C1129 0.950 . S
H1153 C1131 0.950 . S
C1154 C1155 1.349 . S
C1154 C1156 1.327 . S
C1154 H1179 0.950 . S
C1155 C1154 1.349 . S
C1155 C1171 1.349 . S
C1156 C1154 1.327 . S
C1156 C1175 1.429 . S
C1156 H1180 0.950 . S
C1157 C1174 1.574 1_556 S
C1157 C1176 1.368 . S
C1157 H1181 0.949 . S
H1158 C1162 0.949 . S
C1159 C1160 1.349 . S
C1159 C1161 1.327 . S
C1159 H1182 0.950 . S
C1160 C1159 1.349 . S
C1160 C1172 1.349 . S
C1161 C1159 1.327 . S
C1161 C1177 1.429 . S
C1161 H1183 0.950 . S
C1162 H1158 0.949 . S
C1162 C1170 1.574 1_554 S
C1162 C1178 1.368 . S
H1163 C1171 0.950 . S
H1164 C1169 0.950 . S
H1165 C1170 0.949 . S
H1166 C1172 0.950 . S
H1167 C1173 0.950 . S
H1168 C1174 0.949 . S
C1169 H1164 0.950 . S
C1169 C1171 1.327 . S
C1169 C1175 1.429 . S
C1170 C1162 1.574 1_556 S
C1170 H1165 0.949 . S
C1170 C1176 1.368 1_455 S
C1171 C1155 1.349 . S
C1171 H1163 0.950 . S
C1171 C1169 1.327 . S
C1172 C1160 1.349 . S
C1172 H1166 0.950 . S
C1172 C1173 1.327 . S
C1173 H1167 0.950 . S
C1173 C1172 1.327 . S
C1173 C1177 1.429 . S
C1174 C1157 1.574 1_554 S
C1174 H1168 0.949 . S
C1174 C1178 1.368 1_655 S
C1175 C1156 1.429 . S
C1175 C1169 1.429 . S
C1175 C1176 1.523 . S
C1176 C1157 1.368 . S
C1176 C1170 1.368 1_655 S
C1176 C1175 1.523 . S
C1177 C1161 1.429 . S
C1177 C1173 1.429 . S
C1177 C1178 1.523 . S
C1178 C1162 1.368 . S
C1178 C1174 1.368 1_455 S
C1178 C1177 1.523 . S
H1179 C1154 0.950 . S
H1180 C1156 0.950 . S
H1181 C1157 0.949 . S
H1182 C1159 0.950 . S
H1183 C1161 0.950 . S
C225 C11 1.118 . S
C230 C109 1.118 . S
C255 C25 1.118 . S
C260 C67 1.118 . S
C285 C81 1.118 . S
C290 C39 1.118 . S
C315 C53 1.118 . S
C320 C95 1.118 . S
C345 C123 1.118 . S
C350 C221 1.118 . S
C375 C179 1.118 . S
C380 C137 1.118 . S
C405 C193 1.118 . S
C410 C151 1.118 . S
C435 C207 1.118 . S
C440 C165 1.118 . S
C465 C8 0.927 . S
C470 C161 0.964 . S
C495 C22 0.927 . S
C500 C119 0.964 . S
C525 C133 0.964 . S
C530 C36 0.927 . S
C555 C50 0.927 . S
C560 C147 0.964 . S
C585 C64 0.927 . S
C590 C189 0.964 . S
C615 C203 0.964 . S
C620 C78 0.927 . S
C645 C92 0.927 . S
C650 C217 0.964 . S
C675 C175 0.964 . S
C680 C106 0.927 . S
C705 C120 0.927 . S
C710 C49 0.964 . S
C735 C7 0.964 . S
C740 C134 0.927 . S
C765 C148 0.927 . S
C770 C21 0.964 . S
C795 C35 0.964 . S
C800 C162 0.927 . S
C825 C176 0.927 . S
C830 C77 0.964 . S
C855 C91 0.964 . S
C860 C190 0.927 . S
C885 C105 0.964 . S
C890 C204 0.927 . S
C915 C63 0.964 . S
C920 C218 0.927 . S
C945 C69 1.495 . S
C950 C13 1.495 . S
C975 C83 1.495 . S
C980 C27 1.495 . S
C1005 C41 1.495 . S
C1010 C97 1.495 . S
C1035 C111 1.495 . S
C1040 C55 1.495 . S
C1065 C181 1.495 . S
C1070 C125 1.495 . S
C1095 C195 1.495 . S
C1100 C139 1.495 . S
C1125 C153 1.495 . S
C1130 C209 1.495 . S
C1155 C223 1.495 . S
C1160 C167 1.495 . S
