# Generated by pormake.
# Topology upc, (4)-cn, num edge types: 1
# Building blocks:
#     Node 0, Type 0, BuildingBlock: ESEHIV_clean_sbu_0, # of connection points: 4
#     Node 1, Type 0, BuildingBlock: ESEHIV_clean_sbu_0, # of connection points: 4
#     Node 2, Type 0, BuildingBlock: ESEHIV_clean_sbu_0, # of connection points: 4
#     Node 3, Type 0, BuildingBlock: ESEHIV_clean_sbu_0, # of connection points: 4
#     Node 4, Type 0, BuildingBlock: ESEHIV_clean_sbu_0, # of connection points: 4
#     Node 5, Type 0, BuildingBlock: ESEHIV_clean_sbu_0, # of connection points: 4
#     Node 6, Type 0, BuildingBlock: ESEHIV_clean_sbu_0, # of connection points: 4
#     Node 7, Type 0, BuildingBlock: ESEHIV_clean_sbu_0, # of connection points: 4
#     Node 8, Type 0, BuildingBlock: ESEHIV_clean_sbu_0, # of connection points: 4
#     Node 9, Type 0, BuildingBlock: ESEHIV_clean_sbu_0, # of connection points: 4
#     Node 10, Type 0, BuildingBlock: ESEHIV_clean_sbu_0, # of connection points: 4
#     Node 11, Type 0, BuildingBlock: ESEHIV_clean_sbu_0, # of connection points: 4
#     Node 12, Type 0, BuildingBlock: ESEHIV_clean_sbu_0, # of connection points: 4
#     Node 13, Type 0, BuildingBlock: ESEHIV_clean_sbu_0, # of connection points: 4
#     Node 14, Type 0, BuildingBlock: ESEHIV_clean_sbu_0, # of connection points: 4
#     Node 15, Type 0, BuildingBlock: ESEHIV_clean_sbu_0, # of connection points: 4
#     Edge 16, Type (0, 0), BuildingBlock: KIFKEQ_clean_linker_1, # of connection points: 2
#     Edge 17, Type (0, 0), BuildingBlock: KIFKEQ_clean_linker_1, # of connection points: 2
#     Edge 18, Type (0, 0), BuildingBlock: KIFKEQ_clean_linker_1, # of connection points: 2
#     Edge 19, Type (0, 0), BuildingBlock: KIFKEQ_clean_linker_1, # of connection points: 2
#     Edge 20, Type (0, 0), BuildingBlock: KIFKEQ_clean_linker_1, # of connection points: 2
#     Edge 21, Type (0, 0), BuildingBlock: KIFKEQ_clean_linker_1, # of connection points: 2
#     Edge 22, Type (0, 0), BuildingBlock: KIFKEQ_clean_linker_1, # of connection points: 2
#     Edge 23, Type (0, 0), BuildingBlock: KIFKEQ_clean_linker_1, # of connection points: 2
#     Edge 24, Type (0, 0), BuildingBlock: KIFKEQ_clean_linker_1, # of connection points: 2
#     Edge 25, Type (0, 0), BuildingBlock: KIFKEQ_clean_linker_1, # of connection points: 2
#     Edge 26, Type (0, 0), BuildingBlock: KIFKEQ_clean_linker_1, # of connection points: 2
#     Edge 27, Type (0, 0), BuildingBlock: KIFKEQ_clean_linker_1, # of connection points: 2
#     Edge 28, Type (0, 0), BuildingBlock: KIFKEQ_clean_linker_1, # of connection points: 2
#     Edge 29, Type (0, 0), BuildingBlock: KIFKEQ_clean_linker_1, # of connection points: 2
#     Edge 30, Type (0, 0), BuildingBlock: KIFKEQ_clean_linker_1, # of connection points: 2
#     Edge 31, Type (0, 0), BuildingBlock: KIFKEQ_clean_linker_1, # of connection points: 2
#     Edge 32, Type (0, 0), BuildingBlock: KIFKEQ_clean_linker_1, # of connection points: 2
#     Edge 33, Type (0, 0), BuildingBlock: KIFKEQ_clean_linker_1, # of connection points: 2
#     Edge 34, Type (0, 0), BuildingBlock: KIFKEQ_clean_linker_1, # of connection points: 2
#     Edge 35, Type (0, 0), BuildingBlock: KIFKEQ_clean_linker_1, # of connection points: 2
#     Edge 36, Type (0, 0), BuildingBlock: KIFKEQ_clean_linker_1, # of connection points: 2
#     Edge 37, Type (0, 0), BuildingBlock: KIFKEQ_clean_linker_1, # of connection points: 2
#     Edge 38, Type (0, 0), BuildingBlock: KIFKEQ_clean_linker_1, # of connection points: 2
#     Edge 39, Type (0, 0), BuildingBlock: KIFKEQ_clean_linker_1, # of connection points: 2
#     Edge 40, Type (0, 0), BuildingBlock: KIFKEQ_clean_linker_1, # of connection points: 2
#     Edge 41, Type (0, 0), BuildingBlock: KIFKEQ_clean_linker_1, # of connection points: 2
#     Edge 42, Type (0, 0), BuildingBlock: KIFKEQ_clean_linker_1, # of connection points: 2
#     Edge 43, Type (0, 0), BuildingBlock: KIFKEQ_clean_linker_1, # of connection points: 2
#     Edge 44, Type (0, 0), BuildingBlock: KIFKEQ_clean_linker_1, # of connection points: 2
#     Edge 45, Type (0, 0), BuildingBlock: KIFKEQ_clean_linker_1, # of connection points: 2
#     Edge 46, Type (0, 0), BuildingBlock: KIFKEQ_clean_linker_1, # of connection points: 2
#     Edge 47, Type (0, 0), BuildingBlock: KIFKEQ_clean_linker_1, # of connection points: 2
# Relax obj value: 0.162
# Max RMSD: 0.211
# Mean RMSD: 0.186
data_MOF--net-upc--node1-ESEHIV_clean_sbu_0--edge1-KIFKEQ_clean_linker_1
_symmetry_space_group_name_H-M    P1
_symmetry_Int_Tables_number       1
_symmetry_cell_setting            triclinic
loop_
_symmetry_equiv_pos_as_xyz
'x, y, z'
_cell_length_a     34.992961
_cell_length_b     40.376812
_cell_length_c     45.775583
_cell_angle_alpha  89.416678
_cell_angle_beta   90.088439
_cell_angle_gamma 89.733001
loop_
_atom_site_label
_atom_site_type_symbol
_atom_site_fract_x
_atom_site_fract_y
_atom_site_fract_z
_atom_type_partial_charge
Cu0 Cu 0.17317 0.60939 0.15462 0.0
N1 N 0.1396 0.63858 0.17245 0.0
N2 N 0.11768 0.68174 0.19749 0.0
C3 C 0.14845 0.66753 0.18496 0.0
C4 C 0.08836 0.66088 0.19257 0.0
C5 C 0.10202 0.63425 0.17708 0.0
O6 O 0.22222 0.63207 0.15017 0.0
C7 C 0.16912 0.56653 0.20441 0.0
O8 O 0.17441 0.59361 0.21951 0.0
H9 H 0.17711 0.67744 0.18561 0.0
H10 H 0.08589 0.61296 0.17006 0.0
N11 N 0.15473 0.60078 0.11725 0.0
N12 N 0.11985 0.58077 0.08057 0.0
C13 C 0.12359 0.58319 0.10986 0.0
C14 C 0.17107 0.60994 0.09188 0.0
C15 C 0.14969 0.59759 0.06922 0.0
C16 C 0.24614 0.63954 0.17004 0.0
O17 O 0.24131 0.62802 0.1967 0.0
H18 H 0.10471 0.57168 0.12564 0.0
H19 H 0.19699 0.6243 0.09005 0.0
O20 O 0.17151 0.56782 0.17665 0.0
H21 H 0.05916 0.66457 0.19961 0.0
H22 H 0.1556 0.60082 0.04616 0.0
Cu23 Cu 0.93102 0.15908 0.13151 0.0
N24 N 0.90236 0.12177 0.14066 0.0
N25 N 0.87539 0.08172 0.16737 0.0
C26 C 0.89929 0.10783 0.16732 0.0
C27 C 0.86289 0.07916 0.13956 0.0
C28 C 0.8798 0.10386 0.12307 0.0
O29 O 0.89965 0.19769 0.14202 0.0
C30 C 0.98354 0.15912 0.18007 0.0
O31 O 0.95662 0.17477 0.19447 0.0
H32 H 0.91311 0.11752 0.18657 0.0
H33 H 0.87544 0.10882 0.10003 0.0
N34 N 0.94128 0.15813 0.09143 0.0
N35 N 0.96642 0.14267 0.04865 0.0
C36 C 0.96877 0.14031 0.07813 0.0
C37 C 0.92063 0.17207 0.06974 0.0
C38 C 0.93614 0.16276 0.04339 0.0
C39 C 0.90214 0.22655 0.13061 0.0
O40 O 0.92993 0.23275 0.11211 0.0
H41 H 0.98965 0.12552 0.08994 0.0
H42 H 0.89532 0.18709 0.07287 0.0
O43 O 0.97878 0.15326 0.15303 0.0
H44 H 0.84261 0.0611 0.13181 0.0
H45 H 0.92495 0.16927 0.02203 0.0
Cu46 Cu 0.39756 0.91484 0.16511 0.0
N47 N 0.34859 0.91838 0.18116 0.0
N48 N 0.29631 0.89721 0.20224 0.0
C49 C 0.32398 0.89286 0.18217 0.0
C50 C 0.30327 0.92716 0.21393 0.0
C51 C 0.33547 0.94021 0.20083 0.0
O52 O 0.40599 0.86677 0.1644 0.0
C53 C 0.43248 0.96972 0.19094 0.0
O54 O 0.40739 0.98528 0.17433 0.0
H55 H 0.32907 0.86966 0.17124 0.0
H56 H 0.35038 0.96225 0.20751 0.0
N57 N 0.39827 0.93417 0.12769 0.0
N58 N 0.41753 0.96285 0.08831 0.0
C59 C 0.42831 0.94759 0.11347 0.0
C60 C 0.36759 0.94098 0.1109 0.0
C61 C 0.37934 0.95863 0.08663 0.0
C62 C 0.39552 0.84942 0.14268 0.0
O63 O 0.38662 0.86454 0.11805 0.0
H64 H 0.45711 0.94763 0.12215 0.0
H65 H 0.33854 0.93439 0.11641 0.0
O66 O 0.43384 0.93814 0.19025 0.0
H67 H 0.28849 0.93738 0.23257 0.0
H68 H 0.36109 0.9681 0.06933 0.0
Cu69 Cu 0.65421 0.46045 0.13572 0.0
N70 N 0.68376 0.49831 0.132 0.0
N71 N 0.73099 0.53123 0.14652 0.0
C72 C 0.7202 0.49991 0.14106 0.0
C73 C 0.70019 0.55023 0.14027 0.0
C74 C 0.67108 0.52983 0.13113 0.0
O75 O 0.69077 0.42398 0.14219 0.0
C76 C 0.58447 0.46965 0.16824 0.0
O77 O 0.56716 0.45649 0.14572 0.0
H78 H 0.73648 0.47827 0.14785 0.0
H79 H 0.64157 0.53702 0.12784 0.0
N80 N 0.62647 0.45474 0.1012 0.0
N81 N 0.58901 0.4656 0.06256 0.0
C82 C 0.60431 0.47744 0.08748 0.0
C83 C 0.62533 0.42765 0.08437 0.0
C84 C 0.60225 0.43423 0.06057 0.0
C85 C 0.68413 0.39311 0.14509 0.0
O86 O 0.6486 0.38274 0.14539 0.0
H87 H 0.60001 0.50231 0.09545 0.0
H88 H 0.64048 0.40478 0.08893 0.0
O89 O 0.62088 0.47032 0.1689 0.0
H90 H 0.69755 0.57632 0.14519 0.0
H91 H 0.59561 0.41712 0.04327 0.0
Cu92 Cu 0.16386 0.97022 0.34858 0.0
N93 N 0.13125 0.93978 0.33166 0.0
N94 N 0.11171 0.895 0.30774 0.0
C95 C 0.14098 0.90969 0.32177 0.0
C96 C 0.08234 0.9168 0.3092 0.0
C97 C 0.09454 0.94441 0.32395 0.0
O98 O 0.21373 0.94817 0.35286 0.0
C99 C 0.15762 1.01024 0.2972 0.0
O100 O 0.16331 0.98224 0.2835 0.0
H101 H 0.16923 0.89915 0.32446 0.0
H102 H 0.0783 0.96679 0.32786 0.0
N103 N 0.14532 0.97956 0.38583 0.0
N104 N 0.11251 1.00253 0.42244 0.0
C105 C 0.11988 1.00312 0.39341 0.0
C106 C 0.15431 0.96344 0.41075 0.0
C107 C 0.1342 0.97752 0.43334 0.0
C108 C 0.23661 0.94037 0.33236 0.0
O109 O 0.23012 0.95155 0.30578 0.0
H110 H 0.10734 1.02043 0.37791 0.0
H111 H 0.17391 0.94269 0.41229 0.0
O112 O 0.16039 1.01075 0.32497 0.0
H113 H 0.05449 0.91374 0.29934 0.0
H114 H 0.13503 0.96946 0.45595 0.0
Cu115 Cu 0.66395 0.11138 0.36375 0.0
N116 N 0.6952 0.07411 0.36537 0.0
N117 N 0.74154 0.0422 0.34719 0.0
C118 C 0.72959 0.07336 0.35244 0.0
C119 C 0.71366 1.02241 0.35771 0.0
C120 C 0.68504 0.04222 0.36896 0.0
O121 O 0.69929 0.14833 0.35717 0.0
C122 C 0.59311 0.10144 0.3327 0.0
O123 O 0.57609 0.11183 0.35648 0.0
H124 H 0.74302 0.09526 0.34336 0.0
H125 H 0.65715 1.03405 0.37606 0.0
N126 N 0.63794 0.11623 0.39921 0.0
N127 N 0.60337 0.10537 0.4393 0.0
C128 C 0.61793 0.0932 0.4142 0.0
C129 C 0.63603 0.14383 0.41534 0.0
C130 C 0.61477 0.13726 0.44 0.0
C131 C 0.6923 0.17906 0.3533 0.0
O132 O 0.65668 0.18943 0.35226 0.0
H133 H 0.61451 0.06798 0.40697 0.0
H134 H 0.64929 0.16713 0.40962 0.0
O135 O 0.62944 0.10243 0.33108 0.0
H136 H 0.71236 0.99584 0.35496 0.0
H137 H 0.60796 0.1548 0.45696 0.0
Cu138 Cu 0.38698 0.66365 0.32955 0.0
N139 N 0.33794 0.66115 0.31342 0.0
N140 N 0.28683 0.68427 0.29172 0.0
C141 C 0.31419 0.68745 0.31226 0.0
C142 C 0.29298 0.65416 0.27997 0.0
C143 C 0.32449 0.63994 0.29341 0.0
O144 O 0.39582 0.7117 0.33048 0.0
C145 C 0.42097 0.60811 0.30375 0.0
O146 O 0.39501 0.59324 0.31985 0.0
H147 H 0.32001 0.7104 0.32335 0.0
H148 H 0.3389 0.61758 0.28664 0.0
N149 N 0.38771 0.64424 0.36695 0.0
N150 N 0.40673 0.61428 0.40591 0.0
C151 C 0.41662 0.62706 0.37952 0.0
C152 C 0.35851 0.64237 0.38592 0.0
C153 C 0.37015 0.62412 0.40997 0.0
C154 C 0.38802 0.72911 0.35284 0.0
O155 O 0.38231 0.71408 0.378 0.0
H156 H 0.44383 0.62306 0.36892 0.0
H157 H 0.33055 0.65321 0.38231 0.0
O158 O 0.42305 0.63966 0.30452 0.0
H159 H 0.27833 0.64462 0.261 0.0
H160 H 0.35275 0.61849 0.42887 0.0
Cu161 Cu 0.94311 0.40909 0.35821 0.0
N162 N 0.91813 0.44744 0.34593 0.0
N163 N 0.89132 0.48391 0.31503 0.0
C164 C 0.90063 0.45182 0.32005 0.0
C165 C 0.90312 0.50018 0.33904 0.0
C166 C 0.91981 0.47761 0.35799 0.0
O167 O 0.91019 0.37126 0.34914 0.0
C168 C 0.99578 0.40964 0.31068 0.0
O169 O 0.96657 0.40024 0.29477 0.0
H170 H 0.896 0.43182 0.30495 0.0
H171 H 0.9339 0.48305 0.37843 0.0
N172 N 0.95167 0.41256 0.39828 0.0
N173 N 0.97771 0.42903 0.4403 0.0
C174 C 0.98199 0.42692 0.41105 0.0
C175 C 0.92734 0.40531 0.42011 0.0
C176 C 0.94335 0.41537 0.44608 0.0
C177 C 0.9107 0.34384 0.36321 0.0
O178 O 0.93692 0.339 0.3834 0.0
H179 H 1.00581 0.43709 0.39892 0.0
H180 H 0.89943 0.3944 0.41721 0.0
O181 O 0.9922 0.41094 0.33832 0.0
H182 H 0.90153 0.52666 0.3422 0.0
H183 H 0.93041 0.41324 0.46748 0.0
Cu184 Cu 0.91068 0.41056 0.88498 0.0
N185 N 0.86967 0.41513 0.85932 0.0
N186 N 0.84299 0.40157 0.81667 0.0
C187 C 0.86267 0.39084 0.84028 0.0
C188 C 0.83661 0.43412 0.82135 0.0
C189 C 0.85314 0.44244 0.84777 0.0
O190 O 0.9121 0.36332 0.89408 0.0
C191 C 0.95585 0.45832 0.86001 0.0
O192 O 0.93017 0.47652 0.87335 0.0
H193 H 0.87658 0.36688 0.84177 0.0
H194 H 0.85646 0.46719 0.85618 0.0
N195 N 0.90647 0.43533 0.91913 0.0
N196 N 0.92648 0.46351 0.95808 0.0
C197 C 0.93637 0.44297 0.93622 0.0
C198 C 0.87631 0.45145 0.93046 0.0
C199 C 0.88857 0.46886 0.95456 0.0
C200 C 0.88647 0.35271 0.91151 0.0
O201 O 0.86544 0.37443 0.92546 0.0
H202 H 0.96522 0.43482 0.93164 0.0
H203 H 0.84774 0.45123 0.92142 0.0
O204 O 0.95438 0.42692 0.86299 0.0
H205 H 0.82393 0.45124 0.80574 0.0
H206 H 0.87097 0.48456 0.96809 0.0
Cu207 Cu 0.10894 0.97264 0.84461 0.0
N208 N 0.06826 0.96511 0.81929 0.0
N209 N 1.02215 0.97778 0.78722 0.0
C210 C 0.04338 0.9884 0.80988 0.0
C211 C 0.03407 0.94651 0.78223 0.0
C212 C 0.06252 0.93873 0.80214 0.0
O213 O 0.09209 1.00552 0.87276 0.0
C214 C 0.18556 0.98702 0.82637 0.0
O215 O 0.19601 0.97747 0.85273 0.0
H216 H 0.04299 1.01351 0.81798 0.0
H217 H 0.07946 0.91625 0.80287 0.0
N218 N 0.12343 0.93333 0.86379 0.0
N219 N 0.1574 0.88866 0.87721 0.0
C220 C 0.15101 0.91164 0.85608 0.0
C221 C 0.11152 0.92326 0.89035 0.0
C222 C 0.13257 0.89586 0.89877 0.0
C223 C 0.10875 1.01133 0.8969 0.0
O224 O 0.14087 0.99584 0.9032 0.0
H225 H 0.16755 0.91376 0.83619 0.0
H226 H 0.09014 0.93587 0.90322 0.0
O227 O 0.15023 0.98825 0.81992 0.0
H228 H 1.02409 0.93095 0.76471 0.0
H229 H 0.13047 0.88272 0.91943 0.0
Cu230 Cu 0.64611 0.13751 0.89178 0.0
N231 N 0.62107 0.17312 0.87363 0.0
N232 N 0.60544 0.21099 0.83961 0.0
C233 C 0.62785 0.18472 0.84645 0.0
C234 C 0.58346 0.21595 0.86341 0.0
C235 C 0.59325 0.19259 0.88439 0.0
O236 O 0.69793 0.15213 0.89983 0.0
C237 C 0.64483 0.07045 0.86915 0.0
O238 O 0.64874 0.0593 0.89604 0.0
H239 H 0.64842 0.17376 0.83178 0.0
H240 H 0.58109 0.19006 0.906 0.0
N241 N 0.62179 0.12768 0.9273 0.0
N242 N 0.58534 0.10592 0.96272 0.0
C243 C 0.59677 0.10356 0.93457 0.0
C244 C 0.62608 0.14576 0.95159 0.0
C245 C 0.60367 0.13251 0.97339 0.0
C246 C 0.72183 0.15826 0.87957 0.0
O247 O 0.71286 0.15099 0.85252 0.0
H248 H 0.58653 0.08513 0.9195 0.0
H249 H 0.64423 0.16728 0.95323 0.0
O250 O 0.64446 0.10148 0.86407 0.0
H251 H 0.5623 0.23538 0.86569 0.0
H252 H 0.6014 0.14149 0.99553 0.0
Cu253 Cu 0.41725 0.63094 0.86494 0.0
N254 N 0.45215 0.63876 0.83509 0.0
N255 N 0.49044 0.62573 0.79788 0.0
C256 C 0.47352 0.61502 0.82267 0.0
C257 C 0.47948 0.6577 0.79474 0.0
C258 C 0.45579 0.66567 0.81778 0.0
O259 O 0.44208 0.60282 0.89394 0.0
C260 C 0.3765 0.58015 0.8367 0.0
O261 O 0.40657 0.56177 0.84289 0.0
H262 H 0.47431 0.58968 0.83056 0.0
H263 H 0.44056 0.68876 0.82075 0.0
N264 N 0.40018 0.67051 0.88131 0.0
N265 N 0.36394 0.71506 0.8899 0.0
C266 C 0.37263 0.69088 0.87082 0.0
C267 C 0.40943 0.68239 0.90774 0.0
C268 C 0.387 0.7098 0.91315 0.0
C269 C 0.42698 0.59364 0.91792 0.0
O270 O 0.39187 0.60298 0.92396 0.0
H271 H 0.35798 0.68709 0.85028 0.0
H272 H 0.43007 0.67117 0.92246 0.0
O273 O 0.37452 0.60944 0.84655 0.0
H274 H 0.48684 0.6738 0.77658 0.0
H275 H 0.38713 0.7244 0.93286 0.0
Cu276 Cu 0.87458 0.17904 0.60625 0.0
N277 N 0.89932 0.21643 0.62052 0.0
N278 N 0.90674 0.26193 0.64726 0.0
C279 C 0.88178 0.24206 0.63357 0.0
C280 C 0.94154 0.24858 0.64221 0.0
C281 C 0.93688 0.22056 0.62554 0.0
O282 O 0.82123 0.19202 0.60192 0.0
C283 C 0.88977 0.14659 0.66025 0.0
O284 O 0.88756 0.17678 0.67052 0.0
H285 H 0.85111 0.24445 0.63537 0.0
H286 H 0.95893 0.20311 0.6194 0.0
N287 N 0.89436 0.16886 0.56954 0.0
N288 N 0.92914 0.14648 0.5337 0.0
C289 C 0.9223 0.14714 0.56281 0.0
C290 C 0.88311 0.18238 0.54399 0.0
C291 C 0.90442 0.16868 0.52188 0.0
C292 C 0.7989 0.19604 0.62355 0.0
O293 O 0.80951 0.18485 0.64936 0.0
H294 H 0.93751 0.13245 0.579 0.0
H295 H 0.8608 0.20086 0.54164 0.0
O296 O 0.88321 0.14185 0.63321 0.0
H297 H 0.96817 0.2573 0.65134 0.0
H298 H 0.90138 0.17429 0.49883 0.0
Cu299 Cu 0.44774 0.94148 0.64444 0.0
N300 N 0.4873 0.93184 0.67042 0.0
N301 N 0.52978 0.94074 0.706 0.0
C302 C 0.50039 0.95335 0.69022 0.0
C303 C 0.53516 0.90981 0.6957 0.0
C304 C 0.50891 0.90441 0.67365 0.0
O305 O 0.46823 0.9724 0.61567 0.0
C306 C 0.3723 0.96215 0.66186 0.0
O307 O 0.36026 0.95037 0.63685 0.0
H308 H 0.48817 0.97777 0.69302 0.0
H309 H 0.50599 0.88226 0.66076 0.0
N310 N 0.43063 0.90316 0.62592 0.0
N311 N 0.39515 0.85971 0.61329 0.0
C312 C 0.4027 0.88212 0.63422 0.0
C313 C 0.44143 0.89325 0.59919 0.0
C314 C 0.41943 0.86662 0.59125 0.0
C315 C 0.45202 0.98024 0.59165 0.0
O316 O 0.41798 0.96838 0.58581 0.0
H317 H 0.38696 0.88422 0.65447 0.0
H318 H 0.4629 0.90535 0.58595 0.0
O319 O 0.40778 0.96141 0.66785 0.0
H320 H 0.55692 0.89254 0.70312 0.0
H321 H 0.42068 0.85368 0.57068 0.0
Cu322 Cu 0.61334 0.42692 0.60639 0.0
N323 N 0.60477 0.38405 0.62072 0.0
N324 N 0.60096 0.34094 0.65161 0.0
C325 C 0.61311 0.37238 0.64769 0.0
C326 C 0.58433 0.33256 0.62614 0.0
C327 C 0.5867 0.35918 0.60716 0.0
O328 O 0.66737 0.4376 0.6036 0.0
C329 C 0.60882 0.46672 0.6561 0.0
O330 O 0.64254 0.4535 0.66138 0.0
H331 H 0.62678 0.38698 0.66437 0.0
H332 H 0.57542 0.36049 0.58518 0.0
N333 N 0.59118 0.43326 0.56951 0.0
N334 N 0.56097 0.45746 0.5317 0.0
C335 C 0.56942 0.45909 0.56051 0.0
C336 C 0.59665 0.41467 0.54564 0.0
C337 C 0.57803 0.42945 0.52235 0.0
C338 C 0.69728 0.42015 0.60796 0.0
O339 O 0.73066 0.43488 0.60723 0.0
H340 H 0.56115 0.47925 0.5746 0.0
H341 H 0.61359 0.39224 0.54508 0.0
O342 O 0.59069 0.45825 0.63326 0.0
H343 H 0.57113 0.30897 0.62162 0.0
H344 H 0.57726 0.42028 0.50023 0.0
Cu345 Cu 0.15937 0.59021 0.63094 0.0
N346 N 0.12664 0.59648 0.66241 0.0
N347 N 0.09396 0.58399 0.70288 0.0
C348 C 0.10931 0.5724 0.67795 0.0
C349 C 0.10145 0.61677 0.70275 0.0
C350 C 0.12166 0.62439 0.67776 0.0
O351 O 0.13584 0.55942 0.6041 0.0
C352 C 0.20919 0.54761 0.66288 0.0
O353 O 0.18051 0.52675 0.66316 0.0
H354 H 0.11012 0.54654 0.67202 0.0
H355 H 0.1337 0.64819 0.67198 0.0
N356 N 0.16997 0.63095 0.61311 0.0
N357 N 0.19959 0.67875 0.60361 0.0
C358 C 0.19573 0.65315 0.62254 0.0
C359 C 0.15677 0.64309 0.58751 0.0
C360 C 0.17521 0.67252 0.58149 0.0
C361 C 0.14745 0.55438 0.5782 0.0
O362 O 0.17816 0.56969 0.56874 0.0
H363 H 0.21245 0.64989 0.64229 0.0
H364 H 0.136 0.63094 0.57382 0.0
O365 O 0.20666 0.57399 0.64759 0.0
H366 H 0.09398 0.63384 0.71993 0.0
H367 H 0.17134 0.68795 0.56223 0.0
H368 H 0.30982 0.65487 0.20235 0.0
H369 H 0.24776 0.68381 0.12455 0.0
H370 H 0.3521 0.70256 0.19588 0.0
H371 H 0.28953 0.73121 0.11816 0.0
H372 H 0.38292 0.80328 0.10069 0.0
H373 H 0.35276 0.74933 0.10641 0.0
H374 H 0.34875 0.76275 0.19986 0.0
H375 H 0.38 0.81641 0.19413 0.0
C376 C 0.30542 0.67121 0.18372 0.0
C377 C 0.27517 0.66562 0.16415 0.0
C378 C 0.32956 0.69864 0.18007 0.0
C379 C 0.32427 0.72096 0.15655 0.0
C380 C 0.29494 0.71446 0.13633 0.0
C381 C 0.27084 0.68718 0.14003 0.0
C382 C 0.37639 0.79442 0.12252 0.0
C383 C 0.38396 0.81424 0.14692 0.0
C384 C 0.35872 0.76357 0.12581 0.0
C385 C 0.34776 0.75172 0.15357 0.0
C386 C 0.35709 0.77081 0.17816 0.0
C387 C 0.37509 0.80164 0.17488 0.0
H388 H 0.83857 0.22157 0.16569 0.0
H389 H 0.89635 0.28905 0.10701 0.0
H390 H 0.78696 0.26186 0.17155 0.0
H391 H 0.84449 0.32892 0.1123 0.0
H392 H 0.76104 0.4062 0.1454 0.0
H393 H 0.81407 0.36688 0.14453 0.0
H394 H 0.73408 0.28573 0.1452 0.0
H395 H 0.68104 0.32509 0.14675 0.0
C396 C 0.84041 0.24504 0.15412 0.0
C397 C 0.87179 0.25194 0.13587 0.0
C398 C 0.81057 0.26811 0.1573 0.0
C399 C 0.81123 0.29878 0.14234 0.0
C400 C 0.84302 0.30586 0.12453 0.0
C401 C 0.87282 0.28283 0.12136 0.0
C402 C 0.75469 0.37996 0.14556 0.0
C403 C 0.71658 0.36893 0.14608 0.0
C404 C 0.78521 0.35733 0.14485 0.0
C405 C 0.77862 0.32294 0.14461 0.0
C406 C 0.74048 0.31193 0.14571 0.0
C407 C 0.70993 0.33458 0.14644 0.0
H408 H 0.24132 0.89602 0.37784 0.0
H409 H 0.29807 0.92472 0.29795 0.0
H410 H 0.28347 0.84818 0.38252 0.0
H411 H 0.34092 0.87686 0.30281 0.0
H412 H 0.3696 0.76328 0.30235 0.0
H413 H 0.33814 0.81721 0.29833 0.0
H414 H 0.34684 0.82873 0.39182 0.0
H415 H 0.37751 0.7746 0.39585 0.0
C416 C 0.26336 0.89252 0.36155 0.0
C417 C 0.26605 0.91412 0.33736 0.0
C418 C 0.28769 0.865 0.36425 0.0
C419 C 0.31566 0.85835 0.34296 0.0
C420 C 0.31939 0.88079 0.31939 0.0
C421 C 0.29491 0.90832 0.31666 0.0
C422 C 0.36563 0.77765 0.32197 0.0
C423 C 0.37603 0.76444 0.34946 0.0
C424 C 0.34745 0.80866 0.31969 0.0
C425 C 0.3393 0.82731 0.34482 0.0
C426 C 0.35177 0.81485 0.37205 0.0
C427 C 0.36974 0.78386 0.37434 0.0
H428 H 0.84815 0.34752 0.32671 0.0
H429 H 0.90313 0.28348 0.39032 0.0
H430 H 0.79608 0.30773 0.32214 0.0
H431 H 0.85097 0.24417 0.38618 0.0
H432 H 0.76914 0.16559 0.35457 0.0
H433 H 0.82203 0.20456 0.35449 0.0
H434 H 0.74201 0.28617 0.34925 0.0
H435 H 0.68897 0.24705 0.34876 0.0
C436 C 0.84928 0.32491 0.33962 0.0
C437 C 0.88001 0.31879 0.35886 0.0
C438 C 0.81921 0.30216 0.33717 0.0
C439 C 0.81908 0.27261 0.35382 0.0
C440 C 0.85017 0.26634 0.37268 0.0
C441 C 0.88013 0.28906 0.37517 0.0
C442 C 0.76272 0.19184 0.35324 0.0
C443 C 0.7246 0.20308 0.35179 0.0
C444 C 0.79316 0.21427 0.35338 0.0
C445 C 0.78651 0.24867 0.35207 0.0
C446 C 0.7484 0.25991 0.34999 0.0
C447 C 0.71788 0.23743 0.34987 0.0
H448 H 0.90686 0.30352 0.87322 0.0
H449 H 0.83679 0.32284 0.94878 0.0
H450 H 0.87567 0.24991 0.86748 0.0
H451 H 0.8048 0.27041 0.94251 0.0
H452 H 0.75382 0.17197 0.93273 0.0
H453 H 0.80336 0.21245 0.94314 0.0
H454 H 0.81493 0.23277 0.85067 0.0
H455 H 0.7668 0.19134 0.84033 0.0
C456 C 0.88542 0.29605 0.88897 0.0
C457 C 0.87408 0.31762 0.9113 0.0
C458 C 0.86719 0.26546 0.8855 0.0
C459 C 0.83722 0.25583 0.90426 0.0
C460 C 0.82791 0.27655 0.92775 0.0
C461 C 0.84615 0.30692 0.93125 0.0
C462 C 0.76755 0.1846 0.91461 0.0
C463 C 0.75601 0.17868 0.88572 0.0
C464 C 0.79583 0.20801 0.92057 0.0
C465 C 0.81286 0.22646 0.89781 0.0
C466 C 0.8029 0.21897 0.86882 0.0
C467 C 0.77499 0.19525 0.86286 0.0
H468 H 0.31587 0.73481 0.93225 0.0
H469 H 0.3442 0.75036 0.84163 0.0
H470 H 0.26512 0.77592 0.92837 0.0
H471 H 0.29488 0.79328 0.83777 0.0
H472 H 0.18123 0.84957 0.83312 0.0
H473 H 0.23059 0.80653 0.83546 0.0
H474 H 0.25227 0.83132 0.92574 0.0
H475 H 0.20151 0.87252 0.92349 0.0
C476 C 0.31148 0.74752 0.91157 0.0
C477 C 0.33404 0.73958 0.8873 0.0
C478 C 0.2825 0.77134 0.90929 0.0
C479 C 0.27582 0.78856 0.88281 0.0
C480 C 0.29852 0.78041 0.85845 0.0
C481 C 0.327 0.75595 0.86061 0.0
C482 C 0.19665 0.84556 0.85338 0.0
C483 C 0.18731 0.86402 0.87821 0.0
C484 C 0.22516 0.82105 0.85477 0.0
C485 C 0.24559 0.81495 0.8809 0.0
C486 C 0.23665 0.83428 0.90545 0.0
C487 C 0.20764 0.85816 0.9042 0.0
H488 H 0.72752 0.38795 0.65449 0.0
H489 H 0.66745 0.37189 0.57371 0.0
H490 H 0.7395 0.32868 0.65942 0.0
H491 H 0.67854 0.31209 0.57872 0.0
H492 H 0.75496 0.22137 0.66763 0.0
H493 H 0.71715 0.27226 0.66591 0.0
H494 H 0.73712 0.28031 0.57302 0.0
H495 H 0.77412 0.22926 0.57459 0.0
C496 C 0.71575 0.37145 0.6383 0.0
C497 C 0.69621 0.38427 0.61391 0.0
C498 C 0.72238 0.33743 0.64116 0.0
C499 C 0.71011 0.31551 0.61939 0.0
C500 C 0.68863 0.32829 0.59575 0.0
C501 C 0.68191 0.36243 0.59298 0.0
C502 C 0.75033 0.23343 0.64668 0.0
C503 C 0.76818 0.22148 0.62133 0.0
C504 C 0.72884 0.26277 0.64574 0.0
C505 C 0.72465 0.28074 0.61944 0.0
C506 C 0.73954 0.26711 0.59366 0.0
C507 C 0.76101 0.23782 0.59459 0.0
H508 H 0.24084 0.70528 0.55963 0.0
H509 H 0.21921 0.71259 0.65196 0.0
H510 H 0.28789 0.7492 0.56277 0.0
H511 H 0.26458 0.75819 0.65521 0.0
H512 H 0.37553 0.81787 0.65713 0.0
H513 H 0.32778 0.77391 0.65533 0.0
H514 H 0.29792 0.80464 0.5673 0.0
H515 H 0.34736 0.84672 0.56886 0.0
C516 C 0.24576 0.71683 0.58054 0.0
C517 C 0.22638 0.70564 0.60552 0.0
C518 C 0.27263 0.74224 0.58242 0.0
C519 C 0.2802 0.75779 0.60925 0.0
C520 C 0.2603 0.74665 0.63423 0.0
C521 C 0.23405 0.72065 0.63242 0.0
C522 C 0.35855 0.81503 0.63753 0.0
C523 C 0.36529 0.83532 0.61304 0.0
C524 C 0.33097 0.78998 0.63645 0.0
C525 C 0.30885 0.7852 0.61103 0.0
C526 C 0.31494 0.80657 0.58696 0.0
C527 C 0.3431 0.83096 0.58785 0.0
H528 H 1.02391 0.39932 0.25567 0.0
H529 H 0.04174 0.45749 0.33297 0.0
H530 H 0.07271 0.43126 0.23012 0.0
H531 H 0.08808 0.49106 0.30719 0.0
H532 H 0.17992 0.54504 0.26064 0.0
H533 H 0.14539 0.50145 0.28645 0.0
H534 H 0.08232 0.48061 0.20735 0.0
H535 H 0.1191 0.52226 0.18141 0.0
C536 C 0.03849 0.41883 0.26725 0.0
C537 C 0.02899 0.42577 0.29635 0.0
C538 C 0.06623 0.43756 0.25249 0.0
C539 C 0.08445 0.46441 0.26619 0.0
C540 C 0.07564 0.47043 0.29573 0.0
C541 C 0.0487 0.45116 0.31065 0.0
C542 C 0.15927 0.5305 0.24872 0.0
C543 C 0.15232 0.53704 0.21901 0.0
C544 C 0.13896 0.5057 0.26359 0.0
C545 C 0.11019 0.48747 0.24939 0.0
C546 C 0.10443 0.49338 0.21926 0.0
C547 C 0.12551 0.51753 0.20424 0.0
H548 H 0.0274 0.10702 0.16246 0.0
H549 H 1.01175 0.17397 0.23438 0.0
H550 H 0.07343 0.07539 0.19085 0.0
H551 H 0.05999 0.14356 0.26248 0.0
H552 H 0.10725 0.0564 0.31762 0.0
H553 H 0.06955 0.09577 0.28905 0.0
H554 H 0.13216 0.0683 0.21144 0.0
H555 H 0.16777 1.02729 0.23994 0.0
C556 C 0.0346 0.11556 0.18413 0.0
C557 C 1.01573 0.14302 0.19614 0.0
C558 C 0.0614 0.09743 0.20052 0.0
C559 C 0.07083 0.10657 0.22928 0.0
C560 C 0.05311 0.13507 0.24076 0.0
C561 C 1.02564 0.15283 0.22452 0.0
C562 C 0.11338 0.05924 0.29453 0.0
C563 C 0.14037 0.03862 0.281 0.0
C564 C 0.09175 0.082 0.27801 0.0
C565 C 0.09708 0.08524 0.24757 0.0
C566 C 0.12607 0.06601 0.23454 0.0
C567 C 0.14698 0.04271 0.25095 0.0
H568 H 0.51558 0.10234 0.32489 0.0
H569 H 0.61933 0.06111 0.28908 0.0
H570 H 0.47796 0.07051 0.29018 0.0
H571 H 0.58154 1.02914 0.2544 0.0
H572 H 0.49482 0.9484 0.2231 0.0
H573 H 0.53463 0.98124 0.25601 0.0
H574 H 0.466 0.06778 0.23648 0.0
H575 H 0.42653 1.03531 0.20374 0.0
C576 C 0.53041 0.08674 0.30944 0.0
C577 C 0.57052 0.08446 0.30974 0.0
C578 C 0.50882 0.0685 0.2895 0.0
C579 C 0.52672 0.04715 0.26958 0.0
C580 C 0.56686 0.04509 0.26965 0.0
C581 C 0.58851 0.0637 0.28934 0.0
C582 C 0.48831 0.97444 0.2258 0.0
C583 C 0.4574 0.98914 0.21077 0.0
C584 C 0.51124 0.9933 0.24453 0.0
C585 C 0.50343 1.02714 0.24893 0.0
C586 C 0.47259 0.04174 0.23383 0.0
C587 C 0.45005 1.02307 0.21492 0.0
H588 H 0.5072 0.46789 0.17689 0.0
H589 H 0.61005 0.51353 0.20933 0.0
H590 H 0.46906 0.50152 0.20993 0.0
H591 H 0.57172 0.54721 0.24252 0.0
H592 H 0.48326 0.62818 0.27118 0.0
H593 H 0.52391 0.5939 0.23986 0.0
H594 H 0.45678 0.508 0.26252 0.0
H595 H 0.4164 0.54191 0.29347 0.0
C596 C 0.52175 0.48482 0.1913 0.0
C597 C 0.56176 0.48781 0.19049 0.0
C598 C 0.49985 0.50412 0.2103 0.0
C599 C 0.51728 0.52719 0.22886 0.0
C600 C 0.55734 0.52995 0.22832 0.0
C601 C 0.57933 0.51036 0.20949 0.0
C602 C 0.47724 0.60198 0.26947 0.0
C603 C 0.44642 0.5879 0.28481 0.0
C604 C 0.50067 0.58229 0.25167 0.0
C605 C 0.49354 0.54818 0.24858 0.0
C606 C 0.46285 0.53421 0.26407 0.0
C607 C 0.43976 0.55373 0.28197 0.0
H608 H 0.09698 0.59677 0.76077 0.0
H609 H 0.05432 0.52684 0.69808 0.0
H610 H 0.06932 0.5641 0.80032 0.0
H611 H 0.02598 0.49426 0.73765 0.0
H612 H 1.00084 0.42999 0.81758 0.0
H613 H 0.03845 0.45905 0.78024 0.0
H614 H 1.00684 0.55276 0.81832 0.0
H615 H 0.97057 0.524 0.85564 0.0
C616 C 0.08134 0.57459 0.75541 0.0
C617 C 0.07745 0.56462 0.72625 0.0
C618 C 0.06558 0.55575 0.7781 0.0
C619 C 0.04525 0.52659 0.7722 0.0
C620 C 0.04193 0.5163 0.74304 0.0
C621 C 0.05794 0.53507 0.72034 0.0
C622 C 1.00261 0.45674 0.81821 0.0
C623 C 0.98262 0.47468 0.83949 0.0
C624 C 1.02381 0.47342 0.79668 0.0
C625 C 1.02554 0.50828 0.79617 0.0
C626 C 1.00663 0.52594 0.81817 0.0
C627 C 0.98554 0.50938 0.83953 0.0
H628 H 0.97291 1.02451 0.80576 0.0
H629 H 1.01512 0.97683 0.72835 0.0
H630 H 0.93499 0.06248 0.7756 0.0
H631 H 0.97874 1.0156 0.69788 0.0
H632 H 0.89337 0.07985 0.64874 0.0
H633 H 0.91982 1.036 0.68006 0.0
H634 H 0.94568 0.10858 0.74595 0.0
H635 H 0.91789 0.15164 0.71545 0.0
C636 C 0.97394 1.0222 0.78222 0.0
C637 C 0.99702 0.99787 0.76939 0.0
C638 C 0.95244 0.04406 0.76487 0.0
C639 C 0.9541 0.04259 0.73415 0.0
C640 C 0.97624 1.01737 0.72138 0.0
C641 C 0.99724 0.99513 0.73882 0.0
C642 C 0.90429 0.08626 0.67009 0.0
C643 C 0.90345 0.11927 0.67957 0.0
C644 C 0.91973 0.06116 0.688 0.0
C645 C 0.93501 0.06856 0.71567 0.0
C646 C 0.93353 0.10158 0.72516 0.0
C647 C 0.91777 0.12648 0.70747 0.0
H648 H 0.65258 0.08244 0.81089 0.0
H649 H 0.61665 1.00725 0.87259 0.0
H650 H 0.63009 0.04868 0.77075 0.0
H651 H 0.59269 0.97381 0.83236 0.0
H652 H 0.57095 0.91263 0.75044 0.0
H653 H 0.60506 0.94136 0.78926 0.0
H654 H 0.56898 1.03536 0.75235 0.0
H655 H 0.53695 1.00699 0.71313 0.0
C656 C 0.64007 0.05854 0.81586 0.0
C657 C 0.63603 0.04766 0.84493 0.0
C658 C 0.62691 0.03925 0.79284 0.0
C659 C 0.60882 1.00877 0.79828 0.0
C660 C 0.60661 0.99706 0.82731 0.0
C661 C 0.62025 1.01626 0.85041 0.0
C662 C 0.5708 0.93943 0.7504 0.0
C663 C 0.5509 0.9574 0.72865 0.0
C664 C 0.59006 0.95591 0.77284 0.0
C665 C 0.58992 0.99073 0.77398 0.0
C666 C 0.57035 1.00857 0.75202 0.0
C667 C 0.55132 0.99219 0.72966 0.0
H668 H 0.64035 0.48925 0.70669 0.0
H669 H 0.5407 0.50025 0.65148 0.0
H670 H 0.61406 0.52975 0.74027 0.0
H671 H 0.51407 0.54044 0.68546 0.0
H672 H 0.49362 0.63371 0.73891 0.0
H673 H 0.52391 0.59659 0.704 0.0
H674 H 0.5622 0.53367 0.7752 0.0
H675 H 0.53304 0.57128 0.81002 0.0
C676 C 0.61277 0.50024 0.70172 0.0
C677 C 0.59258 0.49141 0.67642 0.0
C678 C 0.59764 0.52339 0.72107 0.0
C679 C 0.56194 0.53832 0.71559 0.0
C680 C 0.54186 0.52971 0.69014 0.0
C681 C 0.55699 0.50648 0.67078 0.0
C682 C 0.50908 0.6123 0.74713 0.0
C683 C 0.51083 0.60543 0.77728 0.0
C684 C 0.52602 0.59078 0.7271 0.0
C685 C 0.54528 0.56205 0.73679 0.0
C686 C 0.54786 0.5557 0.76698 0.0
C687 C 0.53084 0.57711 0.78695 0.0
H688 H 0.06948 0.69784 0.24138 0.0
H689 H 0.16409 0.73469 0.19026 0.0
H690 H 0.06831 0.74909 0.2689 0.0
H691 H 0.1626 0.78618 0.21734 0.0
H692 H 0.1745 0.86112 0.28913 0.0
H693 H 0.17578 0.80891 0.26369 0.0
H694 H 0.05244 0.80623 0.26442 0.0
H695 H 0.051 0.85759 0.29158 0.0
C696 C 0.08973 0.71704 0.23578 0.0
C697 C 0.11678 0.71221 0.21356 0.0
C698 C 0.08906 0.74647 0.25154 0.0
C699 C 0.11527 0.77187 0.24531 0.0
C700 C 0.14237 0.76698 0.22307 0.0
C701 C 0.14318 0.73747 0.20746 0.0
C702 C 0.14756 0.84931 0.2844 0.0
C703 C 0.11257 0.86379 0.29263 0.0
C704 C 0.14836 0.81945 0.26934 0.0
C705 C 0.11428 0.80335 0.26186 0.0
C706 C 0.0793 0.81771 0.27012 0.0
C707 C 0.07846 0.84748 0.28541 0.0
H708 H 0.91596 0.0676 0.21628 0.0
H709 H 0.80538 0.05531 0.17609 0.0
H710 H 0.89091 0.04579 0.26231 0.0
H711 H 0.78006 1.03413 0.22199 0.0
H712 H 0.73758 0.9957 0.30493 0.0
H713 H 0.77736 0.99396 0.2612 0.0
H714 H 0.84872 0.07086 0.29677 0.0
H715 H 0.80971 0.0716 0.34064 0.0
C716 C 0.8864 0.05985 0.21723 0.0
C717 C 0.86243 0.0637 0.19275 0.0
C718 C 0.87207 0.04731 0.24355 0.0
C719 C 0.83335 0.03859 0.24601 0.0
C720 C 0.81014 0.0402 0.22088 0.0
C721 C 0.82458 0.05251 0.19451 0.0
C722 C 0.76273 1.01116 0.3039 0.0
C723 C 0.77033 1.03415 0.32598 0.0
C724 C 0.78525 1.01049 0.27868 0.0
C725 C 0.81574 1.03276 0.27516 0.0
C726 C 0.82559 0.05324 0.29865 0.0
C727 C 0.80314 0.05386 0.32379 0.0
H728 H 0.27931 0.69695 0.2342 0.0
H729 H 0.25173 0.73509 0.31896 0.0
H730 H 0.26649 0.75032 0.21209 0.0
H731 H 0.23548 0.78858 0.29696 0.0
H732 H 0.28873 0.88412 0.25952 0.0
H733 H 0.27018 0.83197 0.28133 0.0
H734 H 0.23671 0.79663 0.19604 0.0
H735 H 0.25792 0.8489 0.17442 0.0
C736 C 0.26876 0.7165 0.24789 0.0
C737 C 0.26739 0.71204 0.27827 0.0
C738 C 0.26111 0.74743 0.23524 0.0
C739 C 0.25094 0.77463 0.25271 0.0
C740 C 0.24484 0.76885 0.28279 0.0
C741 C 0.25356 0.73805 0.29547 0.0
C742 C 0.27622 0.8656 0.2457 0.0
C743 C 0.27518 0.87042 0.21537 0.0
C744 C 0.26548 0.83536 0.25814 0.0
C745 C 0.25285 0.80916 0.24048 0.0
C746 C 0.24774 0.81549 0.21036 0.0
C747 C 0.25935 0.84561 0.1979 0.0
H748 H 0.8053 0.51652 0.14004 0.0
H749 H 0.72405 0.561 0.19846 0.0
H750 H 0.8525 0.51376 0.1794 0.0
H751 H 0.76976 0.55658 0.23835 0.0
H752 H 0.85666 0.54412 0.30839 0.0
H753 H 0.82618 0.56627 0.2645 0.0
H754 H 0.85592 0.47675 0.21855 0.0
H755 H 0.88852 0.45593 0.26129 0.0
C756 C 0.79814 0.52665 0.16116 0.0
C757 C 0.76131 0.53893 0.16636 0.0
C758 C 0.8248 0.52465 0.18384 0.0
C759 C 0.81462 0.53399 0.21237 0.0
C760 C 0.77886 0.54925 0.21677 0.0
C761 C 0.75255 0.55188 0.19388 0.0
C762 C 0.8574 0.52946 0.28876 0.0
C763 C 0.87464 0.49789 0.28875 0.0
C764 C 0.83961 0.5421 0.26359 0.0
C765 C 0.83834 0.52335 0.23787 0.0
C766 C 0.85673 0.49231 0.23765 0.0
C767 C 0.87484 0.47991 0.2626 0.0
H768 H 0.94181 0.27265 0.69886 0.0
H769 H 0.84809 0.3058 0.64437 0.0
H770 H 0.91958 0.30863 0.73794 0.0
H771 H 0.82605 0.34236 0.68364 0.0
H772 H 0.84772 0.42689 0.76133 0.0
H773 H 0.86023 0.39499 0.717 0.0
H774 H 0.84915 0.30411 0.76648 0.0
H775 H 0.83531 0.33567 0.81043 0.0
C776 C 0.91702 0.28822 0.69498 0.0
C777 C 0.89675 0.28651 0.66855 0.0
C778 C 0.90409 0.30853 0.71742 0.0
C779 C 0.87101 0.32795 0.71375 0.0
C780 C 0.85163 0.32755 0.68691 0.0
C781 C 0.8642 0.3067 0.66456 0.0
C782 C 0.84653 0.40014 0.76254 0.0
C783 C 0.84109 0.38378 0.78953 0.0
C784 C 0.85396 0.38194 0.73722 0.0
C785 C 0.85634 0.34724 0.73864 0.0
C786 C 0.84801 0.33091 0.76502 0.0
C787 C 0.84009 0.34896 0.79011 0.0
H788 H 0.38796 0.99141 0.7141 0.0
H789 H 0.29435 0.95644 0.66124 0.0
H790 H 0.34363 1.00352 0.75358 0.0
H791 H 0.25014 0.9677 0.70101 0.0
H792 H 0.1739 1.00927 0.77042 0.0
H793 H 0.21924 1.00903 0.73008 0.0
H794 H 0.30723 0.97225 0.78844 0.0
H795 H 0.26219 0.97334 0.82889 0.0
C796 C 0.35787 0.98649 0.71081 0.0
C797 C 0.34474 0.97274 0.68454 0.0
C798 C 0.33247 0.99326 0.73355 0.0
C799 C 0.29331 0.98633 0.73065 0.0
C800 C 0.28001 0.97373 0.70395 0.0
C801 C 0.30541 0.9671 0.68113 0.0
C802 C 0.20309 1.0016 0.77474 0.0
C803 C 0.21434 0.99112 0.80288 0.0
C804 C 0.22902 1.00124 0.75154 0.0
C805 C 0.26682 0.99027 0.75586 0.0
C806 C 0.27848 0.98118 0.7843 0.0
C807 C 0.25258 0.98168 0.80754 0.0
H808 H 0.66522 0.22119 0.80307 0.0
H809 H 0.54552 0.24357 0.81489 0.0
H810 H 0.66486 0.25219 0.75697 0.0
H811 H 0.5453 0.27508 0.76906 0.0
H812 H 0.54952 0.29575 0.67044 0.0
H813 H 0.55133 0.26391 0.71601 0.0
H814 H 0.65803 0.31039 0.73887 0.0
H815 H 0.65644 0.34191 0.69292 0.0
C816 C 0.6388 0.23263 0.79579 0.0
C817 C 0.60534 0.22979 0.81261 0.0
C818 C 0.6387 0.25067 0.76952 0.0
C819 C 0.60505 0.26604 0.75932 0.0
C820 C 0.57161 0.26325 0.77617 0.0
C821 C 0.5718 0.24547 0.80257 0.0
C822 C 0.57354 0.29892 0.68504 0.0
C823 C 0.60279 0.3214 0.67813 0.0
C824 C 0.57438 0.28095 0.7113 0.0
C825 C 0.60468 0.28477 0.73116 0.0
C826 C 0.63436 0.30679 0.72399 0.0
C827 C 0.63331 0.32504 0.69782 0.0
H828 H 0.31919 0.61701 0.81225 0.0
H829 H 0.37291 0.52045 0.80853 0.0
H830 H 0.28191 0.6042 0.76899 0.0
H831 H 0.33473 0.5076 0.7651 0.0
H832 H 0.2183 0.50003 0.70573 0.0
H833 H 0.25926 0.50368 0.74908 0.0
H834 H 0.30791 0.59417 0.71518 0.0
H835 H 0.26778 0.59058 0.67193 0.0
C836 C 0.32262 0.59282 0.80255 0.0
C837 C 0.34936 0.56987 0.81371 0.0
C838 C 0.30142 0.58562 0.77765 0.0
C839 C 0.30606 0.55518 0.76353 0.0
C840 C 0.33089 0.53131 0.7756 0.0
C841 C 0.35262 0.53869 0.80042 0.0
C842 C 0.23844 0.52024 0.70717 0.0
C843 C 0.23936 0.54527 0.68555 0.0
C844 C 0.26177 0.5223 0.73199 0.0
C845 C 0.28602 0.54954 0.73559 0.0
C846 C 0.2889 0.57322 0.71306 0.0
C847 C 0.26602 0.57101 0.68823 0.0
H848 H 0.12855 0.55005 0.02882 0.0
H849 H 0.04587 0.57115 0.09606 0.0
H850 H 0.07997 0.52067 0.0012 0.0
H851 H 0.99704 0.54133 0.06841 0.0
H852 H 0.91543 0.52062 0.98831 0.0
H853 H 0.96132 0.54806 0.02009 0.0
H854 H 0.04196 0.46852 0.00657 0.0
H855 H 0.9961 0.44072 0.97544 0.0
C856 C 0.09994 0.54849 0.03766 0.0
C857 C 0.09104 0.563 0.06459 0.0
C858 C 0.07219 0.53138 0.02197 0.0
C859 C 0.03472 0.52858 0.03269 0.0
C860 C 1.02565 0.5432 0.05957 0.0
C861 C 0.05363 0.56002 0.07548 0.0
C862 C 0.94264 0.50864 0.99246 0.0
C863 C 0.95211 0.47858 0.97886 0.0
C864 C 0.96896 0.52444 0.01068 0.0
C865 C 1.0054 0.51063 0.01553 0.0
C866 C 1.01437 0.48009 0.00279 0.0
C867 C 0.98804 0.4642 0.98483 0.0
H868 H 0.13309 1.02507 0.95242 0.0
H869 H 0.04237 0.04699 0.89098 0.0
H870 H 0.10081 0.05846 0.98914 0.0
H871 H 1.00988 0.07989 0.9278 0.0
H872 H 0.97806 0.16078 0.99205 0.0
H873 H 1.01432 0.1309 0.95529 0.0
H874 H 0.04369 0.0559 0.0195 0.0
H875 H 1.00734 0.08568 0.05625 0.0
C876 C 0.10637 0.03712 0.94667 0.0
C877 C 0.09035 1.03327 0.91871 0.0
C878 C 0.08771 0.05609 0.96782 0.0
C879 C 0.05264 0.07181 0.96151 0.0
C880 C 0.03704 0.06848 0.93335 0.0
C881 C 0.05562 0.04944 0.91224 0.0
C882 C 0.99206 0.13785 -0.00164 0.0
C883 C 0.98948 0.12567 0.02721 0.0
C884 C 1.01291 0.12069 0.97723 0.0
C885 C 0.03186 0.09089 0.98435 0.0
C886 C 0.02991 0.079 0.01331 0.0
C887 C 1.00899 0.09614 0.03445 0.0
H888 H 0.39644 1.01761 0.05766 0.0
H889 H 0.49196 0.95222 0.07463 0.0
H890 H 0.43624 0.05128 0.02535 0.0
H891 H 0.53201 0.98606 0.04215 0.0
H892 H 0.57756 0.03939 0.95776 0.0
H893 H 0.53629 1.00317 0.98732 0.0
H894 H 0.49372 0.08846 0.03337 0.0
H895 H 0.53488 0.12436 0.00405 0.0
C896 C 0.42585 1.01023 0.05426 0.0
C897 C 0.44104 0.98221 0.06871 0.0
C898 C 0.44872 1.02966 0.03591 0.0
C899 C 0.48725 1.02133 0.03121 0.0
C900 C 0.50234 0.99296 0.04519 0.0
C901 C 0.47955 0.97377 0.06396 0.0
C902 C 0.55908 0.05031 0.97401 0.0
C903 C 0.55947 0.08468 0.97865 0.0
C904 C 0.53575 1.02961 0.99108 0.0
C905 C 0.51181 0.04299 0.01269 0.0
C906 C 0.51166 0.07743 0.01679 0.0
C907 C 0.53538 0.09797 0.00014 0.0
H908 H 0.49895 0.56845 0.91095 0.0
H909 H 0.40627 0.57347 0.97305 0.0
H910 H 0.53705 0.53702 0.94615 0.0
H911 H 0.44434 0.54146 0.0082 0.0
H912 H 0.54138 0.51726 0.07373 0.0
H913 H 0.50143 0.54755 0.03876 0.0
H914 H 0.53987 0.48301 0.97001 0.0
H915 H 0.58075 0.45351 0.00469 0.0
C916 C 0.48658 0.56269 0.93206 0.0
C917 C 0.44952 0.57355 0.93916 0.0
C918 C 0.50839 0.54447 0.95221 0.0
C919 C 0.49377 0.53667 0.98001 0.0
C920 C 0.45662 0.54736 0.98709 0.0
C921 C 0.43471 0.56553 0.96687 0.0
C922 C 0.54155 0.50967 0.05113 0.0
C923 C 0.56449 0.48298 0.04206 0.0
C924 C 0.51828 0.52681 0.03113 0.0
C925 C 0.51746 0.51776 0.00155 0.0
C926 C 0.54012 0.49089 0.99255 0.0
C927 C 0.56329 0.47371 0.01254 0.0
H928 H 0.05123 0.03685 0.4012 0.0
H929 H 0.11486 1.01655 0.48038 0.0
H930 H 1.00741 0.0719 0.42845 0.0
H931 H 0.07097 0.05148 0.5076 0.0
H932 H 0.96018 0.0877 0.55147 0.0
H933 H 1.00499 0.05306 0.52463 0.0
H934 H 1.0053 0.12454 0.45381 0.0
H935 H 0.96071 0.15916 0.4806 0.0
C936 C 0.05617 0.04004 0.42434 0.0
C937 C 0.0867 1.02371 0.4385 0.0
C938 C 0.03097 0.06018 0.44001 0.0
C939 C 0.03559 0.06452 0.47027 0.0
C940 C 0.06616 0.04829 0.48442 0.0
C941 C 0.09138 1.0282 0.46875 0.0
C942 C 0.97006 0.09623 0.53033 0.0
C943 C 0.95654 0.12626 0.51823 0.0
C944 C 0.99579 0.07632 0.5149 0.0
C945 C 1.00866 0.0859 0.48696 0.0
C946 C 0.99546 0.11606 0.47502 0.0
C947 C 0.96981 0.13596 0.49044 0.0
H948 H 0.59708 0.11982 0.49689 0.0
H949 H 0.55825 0.05155 0.43128 0.0
H950 H 0.5588 0.0912 0.53347 0.0
H951 H 0.52094 1.02211 0.46821 0.0
H952 H 0.42893 0.99735 0.5362 0.0
H953 H 0.46463 1.02836 0.49927 0.0
H954 H 0.55834 0.039 0.55994 0.0
H955 H 0.52252 1.00859 0.59693 0.0
C956 C 0.58031 0.09877 0.49018 0.0
C957 C 0.58083 0.08808 0.46102 0.0
C958 C 0.55864 0.0821 0.51129 0.0
C959 C 0.53682 0.05427 0.50385 0.0
C960 C 0.53711 0.04365 0.47467 0.0
C961 C 0.55889 0.0603 0.45353 0.0
C962 C 0.45704 1.0065 0.54173 0.0
C963 C 0.4728 1.00047 0.56958 0.0
C964 C 0.47764 1.02407 0.52047 0.0
C965 C 0.51443 1.03613 0.52657 0.0
C966 C 0.52992 1.03045 0.55456 0.0
C967 C 0.5094 1.01284 0.57577 0.0
H968 H 0.50417 0.49837 0.54985 0.0
H969 H 0.56923 0.47056 0.47382 0.0
H970 H 0.4676 0.53794 0.5201 0.0
H971 H 0.53223 0.50947 0.44402 0.0
H972 H 0.4842 0.60649 0.4059 0.0
H973 H 0.5221 0.56951 0.43687 0.0
H974 H 0.41955 0.53687 0.48055 0.0
H975 H 0.38151 0.57333 0.44945 0.0
C976 C 0.51079 0.50078 0.52684 0.0
C977 C 0.53957 0.48116 0.51425 0.0
C978 C 0.48961 0.52324 0.50973 0.0
C979 C 0.49693 0.52686 0.47964 0.0
C980 C 0.52604 0.50754 0.46715 0.0
C981 C 0.54699 0.48492 0.4842 0.0
C982 C 0.46955 0.59133 0.4219 0.0
C983 C 0.42954 0.59307 0.42491 0.0
C984 C 0.49139 0.57011 0.43974 0.0
C985 C 0.47388 0.55019 0.46121 0.0
C986 C 0.43403 0.5522 0.46452 0.0
C987 C 0.41216 0.57324 0.44659 0.0
H988 H 0.05469 0.43454 0.43627 0.0
H989 H 0.95829 0.46001 0.4904 0.0
H990 H 0.09739 0.46263 0.47004 0.0
H991 H 1.00059 0.48863 0.52384 0.0
H992 H 0.08837 0.51322 0.59241 0.0
H993 H 0.0489 0.48082 0.55961 0.0
H994 H 0.11471 0.51646 0.48599 0.0
H995 H 0.15502 0.54796 0.519 0.0
C996 C 0.0426 0.4463 0.4553 0.0
C997 C 1.00308 0.44496 0.46065 0.0
C998 C 0.06705 0.46249 0.47466 0.0
C999 C 0.05255 0.47797 0.49977 0.0
C1000 C 1.01299 0.47648 0.5051 0.0
C1001 C 0.98862 0.46008 0.48587 0.0
C1002 C 0.0946 0.51397 0.56924 0.0
C1003 C 0.12482 0.53327 0.55833 0.0
C1004 C 0.07176 0.49554 0.55036 0.0
C1005 C 0.07831 0.49615 0.52004 0.0
C1006 C 0.10903 0.515 0.50922 0.0
C1007 C 0.13209 0.53323 0.52815 0.0
loop_
_geom_bond_atom_site_label_1
_geom_bond_atom_site_label_2
_geom_bond_distance
_geom_bond_site_symmetry_2
_ccdc_geom_bond_type
Cu0 N1 1.999 . S
Cu0 O6 1.974 . S
Cu0 N11 1.985 . S
Cu0 O20 1.959 . S
N1 Cu0 1.999 . S
N1 C3 1.263 . S
N1 C5 1.389 . S
N2 C3 1.358 . S
N2 C4 1.400 . S
C3 N1 1.263 . S
C3 N2 1.358 . S
C3 H9 0.930 . S
C4 N2 1.400 . S
C4 C5 1.351 . S
C4 H21 0.930 . S
C5 N1 1.389 . S
C5 C4 1.351 . S
C5 H10 0.930 . S
O6 Cu0 1.974 . S
O6 C16 1.282 . S
C7 O8 1.261 . S
C7 O20 1.251 . S
O8 C7 1.261 . S
H9 C3 0.930 . S
H10 C5 0.930 . S
N11 Cu0 1.985 . S
N11 C13 1.335 . S
N11 C14 1.390 . S
N12 C13 1.345 . S
N12 C15 1.336 . S
C13 N11 1.335 . S
C13 N12 1.345 . S
C13 H18 0.930 . S
C14 N11 1.390 . S
C14 C15 1.346 . S
C14 H19 0.930 . S
C15 N12 1.336 . S
C15 C14 1.346 . S
C15 H22 0.929 . S
C16 O6 1.282 . S
C16 O17 1.216 . S
O17 C16 1.216 . S
H18 C13 0.930 . S
H19 C14 0.930 . S
O20 Cu0 1.959 . S
O20 C7 1.251 . S
H21 C4 0.930 . S
H22 C15 0.929 . S
Cu23 N24 1.999 . S
Cu23 O29 1.974 . S
Cu23 N34 1.985 . S
Cu23 O43 1.959 . S
N24 Cu23 1.999 . S
N24 C26 1.263 . S
N24 C28 1.389 . S
N25 C26 1.358 . S
N25 C27 1.400 . S
C26 N24 1.263 . S
C26 N25 1.358 . S
C26 H32 0.930 . S
C27 N25 1.400 . S
C27 C28 1.351 . S
C27 H44 0.930 . S
C28 N24 1.389 . S
C28 C27 1.351 . S
C28 H33 0.930 . S
O29 Cu23 1.974 . S
O29 C39 1.282 . S
C30 O31 1.261 . S
C30 O43 1.251 . S
O31 C30 1.261 . S
H32 C26 0.930 . S
H33 C28 0.930 . S
N34 Cu23 1.985 . S
N34 C36 1.335 . S
N34 C37 1.390 . S
N35 C36 1.345 . S
N35 C38 1.336 . S
C36 N34 1.335 . S
C36 N35 1.345 . S
C36 H41 0.930 . S
C37 N34 1.390 . S
C37 C38 1.346 . S
C37 H42 0.930 . S
C38 N35 1.336 . S
C38 C37 1.346 . S
C38 H45 0.929 . S
C39 O29 1.282 . S
C39 O40 1.216 . S
O40 C39 1.216 . S
H41 C36 0.930 . S
H42 C37 0.930 . S
O43 Cu23 1.959 . S
O43 C30 1.251 . S
H44 C27 0.930 . S
H45 C38 0.929 . S
Cu46 N47 1.999 . S
Cu46 O52 1.974 . S
Cu46 N57 1.985 . S
Cu46 O66 1.959 . S
N47 Cu46 1.999 . S
N47 C49 1.263 . S
N47 C51 1.389 . S
N48 C49 1.358 . S
N48 C50 1.400 . S
C49 N47 1.263 . S
C49 N48 1.358 . S
C49 H55 0.930 . S
C50 N48 1.400 . S
C50 C51 1.351 . S
C50 H67 0.930 . S
C51 N47 1.389 . S
C51 C50 1.351 . S
C51 H56 0.930 . S
O52 Cu46 1.974 . S
O52 C62 1.282 . S
C53 O54 1.261 . S
C53 O66 1.251 . S
O54 C53 1.261 . S
H55 C49 0.930 . S
H56 C51 0.930 . S
N57 Cu46 1.985 . S
N57 C59 1.335 . S
N57 C60 1.390 . S
N58 C59 1.345 . S
N58 C61 1.336 . S
C59 N57 1.335 . S
C59 N58 1.345 . S
C59 H64 0.930 . S
C60 N57 1.390 . S
C60 C61 1.346 . S
C60 H65 0.930 . S
C61 N58 1.336 . S
C61 C60 1.346 . S
C61 H68 0.929 . S
C62 O52 1.282 . S
C62 O63 1.216 . S
O63 C62 1.216 . S
H64 C59 0.930 . S
H65 C60 0.930 . S
O66 Cu46 1.959 . S
O66 C53 1.251 . S
H67 C50 0.930 . S
H68 C61 0.929 . S
Cu69 N70 1.999 . S
Cu69 O75 1.974 . S
Cu69 N80 1.985 . S
Cu69 O89 1.959 . S
N70 Cu69 1.999 . S
N70 C72 1.263 . S
N70 C74 1.389 . S
N71 C72 1.358 . S
N71 C73 1.400 . S
C72 N70 1.263 . S
C72 N71 1.358 . S
C72 H78 0.930 . S
C73 N71 1.400 . S
C73 C74 1.351 . S
C73 H90 0.930 . S
C74 N70 1.389 . S
C74 C73 1.351 . S
C74 H79 0.930 . S
O75 Cu69 1.974 . S
O75 C85 1.282 . S
C76 O77 1.261 . S
C76 O89 1.251 . S
O77 C76 1.261 . S
H78 C72 0.930 . S
H79 C74 0.930 . S
N80 Cu69 1.985 . S
N80 C82 1.335 . S
N80 C83 1.390 . S
N81 C82 1.345 . S
N81 C84 1.336 . S
C82 N80 1.335 . S
C82 N81 1.345 . S
C82 H87 0.930 . S
C83 N80 1.390 . S
C83 C84 1.346 . S
C83 H88 0.930 . S
C84 N81 1.336 . S
C84 C83 1.346 . S
C84 H91 0.929 . S
C85 O75 1.282 . S
C85 O86 1.216 . S
O86 C85 1.216 . S
H87 C82 0.930 . S
H88 C83 0.930 . S
O89 Cu69 1.959 . S
O89 C76 1.251 . S
H90 C73 0.930 . S
H91 C84 0.929 . S
Cu92 N93 1.999 . S
Cu92 O98 1.974 . S
Cu92 N103 1.985 . S
Cu92 O112 1.959 . S
N93 Cu92 1.999 . S
N93 C95 1.263 . S
N93 C97 1.389 . S
N94 C95 1.358 . S
N94 C96 1.400 . S
C95 N93 1.263 . S
C95 N94 1.358 . S
C95 H101 0.930 . S
C96 N94 1.400 . S
C96 C97 1.351 . S
C96 H113 0.930 . S
C97 N93 1.389 . S
C97 C96 1.351 . S
C97 H102 0.930 . S
O98 Cu92 1.974 . S
O98 C108 1.282 . S
C99 O100 1.261 . S
C99 O112 1.251 . S
O100 C99 1.261 . S
H101 C95 0.930 . S
H102 C97 0.930 . S
N103 Cu92 1.985 . S
N103 C105 1.335 . S
N103 C106 1.390 . S
N104 C105 1.345 . S
N104 C107 1.336 . S
C105 N103 1.335 . S
C105 N104 1.345 . S
C105 H110 0.930 . S
C106 N103 1.390 . S
C106 C107 1.346 . S
C106 H111 0.930 . S
C107 N104 1.336 . S
C107 C106 1.346 . S
C107 H114 0.929 . S
C108 O98 1.282 . S
C108 O109 1.216 . S
O109 C108 1.216 . S
H110 C105 0.930 . S
H111 C106 0.930 . S
O112 Cu92 1.959 . S
O112 C99 1.251 . S
H113 C96 0.930 . S
H114 C107 0.929 . S
Cu115 N116 1.999 . S
Cu115 O121 1.974 . S
Cu115 N126 1.985 . S
Cu115 O135 1.959 . S
N116 Cu115 1.999 . S
N116 C118 1.263 . S
N116 C120 1.389 . S
N117 C118 1.358 . S
N117 C119 1.400 . S
C118 N116 1.263 . S
C118 N117 1.358 . S
C118 H124 0.930 . S
C119 N117 1.400 . S
C119 C120 1.351 . S
C119 H136 0.930 . S
C120 N116 1.389 . S
C120 C119 1.351 . S
C120 H125 0.930 . S
O121 Cu115 1.974 . S
O121 C131 1.282 . S
C122 O123 1.261 . S
C122 O135 1.251 . S
O123 C122 1.261 . S
H124 C118 0.930 . S
H125 C120 0.930 . S
N126 Cu115 1.985 . S
N126 C128 1.335 . S
N126 C129 1.390 . S
N127 C128 1.345 . S
N127 C130 1.336 . S
C128 N126 1.335 . S
C128 N127 1.345 . S
C128 H133 0.930 . S
C129 N126 1.390 . S
C129 C130 1.346 . S
C129 H134 0.930 . S
C130 N127 1.336 . S
C130 C129 1.346 . S
C130 H137 0.929 . S
C131 O121 1.282 . S
C131 O132 1.216 . S
O132 C131 1.216 . S
H133 C128 0.930 . S
H134 C129 0.930 . S
O135 Cu115 1.959 . S
O135 C122 1.251 . S
H136 C119 0.930 . S
H137 C130 0.929 . S
Cu138 N139 1.999 . S
Cu138 O144 1.974 . S
Cu138 N149 1.985 . S
Cu138 O158 1.959 . S
N139 Cu138 1.999 . S
N139 C141 1.263 . S
N139 C143 1.389 . S
N140 C141 1.358 . S
N140 C142 1.400 . S
C141 N139 1.263 . S
C141 N140 1.358 . S
C141 H147 0.930 . S
C142 N140 1.400 . S
C142 C143 1.351 . S
C142 H159 0.930 . S
C143 N139 1.389 . S
C143 C142 1.351 . S
C143 H148 0.930 . S
O144 Cu138 1.974 . S
O144 C154 1.282 . S
C145 O146 1.261 . S
C145 O158 1.251 . S
O146 C145 1.261 . S
H147 C141 0.930 . S
H148 C143 0.930 . S
N149 Cu138 1.985 . S
N149 C151 1.335 . S
N149 C152 1.390 . S
N150 C151 1.345 . S
N150 C153 1.336 . S
C151 N149 1.335 . S
C151 N150 1.345 . S
C151 H156 0.930 . S
C152 N149 1.390 . S
C152 C153 1.346 . S
C152 H157 0.930 . S
C153 N150 1.336 . S
C153 C152 1.346 . S
C153 H160 0.929 . S
C154 O144 1.282 . S
C154 O155 1.216 . S
O155 C154 1.216 . S
H156 C151 0.930 . S
H157 C152 0.930 . S
O158 Cu138 1.959 . S
O158 C145 1.251 . S
H159 C142 0.930 . S
H160 C153 0.929 . S
Cu161 N162 1.999 . S
Cu161 O167 1.974 . S
Cu161 N172 1.985 . S
Cu161 O181 1.959 . S
N162 Cu161 1.999 . S
N162 C164 1.263 . S
N162 C166 1.389 . S
N163 C164 1.358 . S
N163 C165 1.400 . S
C164 N162 1.263 . S
C164 N163 1.358 . S
C164 H170 0.930 . S
C165 N163 1.400 . S
C165 C166 1.351 . S
C165 H182 0.930 . S
C166 N162 1.389 . S
C166 C165 1.351 . S
C166 H171 0.930 . S
O167 Cu161 1.974 . S
O167 C177 1.282 . S
C168 O169 1.261 . S
C168 O181 1.251 . S
O169 C168 1.261 . S
H170 C164 0.930 . S
H171 C166 0.930 . S
N172 Cu161 1.985 . S
N172 C174 1.335 . S
N172 C175 1.390 . S
N173 C174 1.345 . S
N173 C176 1.336 . S
C174 N172 1.335 . S
C174 N173 1.345 . S
C174 H179 0.930 . S
C175 N172 1.390 . S
C175 C176 1.346 . S
C175 H180 0.930 . S
C176 N173 1.336 . S
C176 C175 1.346 . S
C176 H183 0.929 . S
C177 O167 1.282 . S
C177 O178 1.216 . S
O178 C177 1.216 . S
H179 C174 0.930 . S
H180 C175 0.930 . S
O181 Cu161 1.959 . S
O181 C168 1.251 . S
H182 C165 0.930 . S
H183 C176 0.929 . S
Cu184 N185 1.999 . S
Cu184 O190 1.974 . S
Cu184 N195 1.985 . S
Cu184 O204 1.959 . S
N185 Cu184 1.999 . S
N185 C187 1.263 . S
N185 C189 1.389 . S
N186 C187 1.358 . S
N186 C188 1.400 . S
C187 N185 1.263 . S
C187 N186 1.358 . S
C187 H193 0.930 . S
C188 N186 1.400 . S
C188 C189 1.351 . S
C188 H205 0.930 . S
C189 N185 1.389 . S
C189 C188 1.351 . S
C189 H194 0.930 . S
O190 Cu184 1.974 . S
O190 C200 1.282 . S
C191 O192 1.261 . S
C191 O204 1.251 . S
O192 C191 1.261 . S
H193 C187 0.930 . S
H194 C189 0.930 . S
N195 Cu184 1.985 . S
N195 C197 1.335 . S
N195 C198 1.390 . S
N196 C197 1.345 . S
N196 C199 1.336 . S
C197 N195 1.335 . S
C197 N196 1.345 . S
C197 H202 0.930 . S
C198 N195 1.390 . S
C198 C199 1.346 . S
C198 H203 0.930 . S
C199 N196 1.336 . S
C199 C198 1.346 . S
C199 H206 0.929 . S
C200 O190 1.282 . S
C200 O201 1.216 . S
O201 C200 1.216 . S
H202 C197 0.930 . S
H203 C198 0.930 . S
O204 Cu184 1.959 . S
O204 C191 1.251 . S
H205 C188 0.930 . S
H206 C199 0.929 . S
Cu207 N208 1.999 . S
Cu207 O213 1.974 . S
Cu207 N218 1.985 . S
Cu207 O227 1.959 . S
N208 Cu207 1.999 . S
N208 C210 1.263 . S
N208 C212 1.389 . S
N209 C210 1.358 . S
N209 C211 1.400 . S
C210 N208 1.263 . S
C210 N209 1.358 . S
C210 H216 0.930 . S
C211 N209 1.400 . S
C211 C212 1.351 . S
C211 H228 0.930 . S
C212 N208 1.389 . S
C212 C211 1.351 . S
C212 H217 0.930 . S
O213 Cu207 1.974 . S
O213 C223 1.282 . S
C214 O215 1.261 . S
C214 O227 1.251 . S
O215 C214 1.261 . S
H216 C210 0.930 . S
H217 C212 0.930 . S
N218 Cu207 1.985 . S
N218 C220 1.335 . S
N218 C221 1.390 . S
N219 C220 1.345 . S
N219 C222 1.336 . S
C220 N218 1.335 . S
C220 N219 1.345 . S
C220 H225 0.930 . S
C221 N218 1.390 . S
C221 C222 1.346 . S
C221 H226 0.930 . S
C222 N219 1.336 . S
C222 C221 1.346 . S
C222 H229 0.929 . S
C223 O213 1.282 . S
C223 O224 1.216 . S
O224 C223 1.216 . S
H225 C220 0.930 . S
H226 C221 0.930 . S
O227 Cu207 1.959 . S
O227 C214 1.251 . S
H228 C211 0.930 . S
H229 C222 0.929 . S
Cu230 N231 1.999 . S
Cu230 O236 1.974 . S
Cu230 N241 1.985 . S
Cu230 O250 1.959 . S
N231 Cu230 1.999 . S
N231 C233 1.263 . S
N231 C235 1.389 . S
N232 C233 1.358 . S
N232 C234 1.400 . S
C233 N231 1.263 . S
C233 N232 1.358 . S
C233 H239 0.930 . S
C234 N232 1.400 . S
C234 C235 1.351 . S
C234 H251 0.930 . S
C235 N231 1.389 . S
C235 C234 1.351 . S
C235 H240 0.930 . S
O236 Cu230 1.974 . S
O236 C246 1.282 . S
C237 O238 1.261 . S
C237 O250 1.251 . S
O238 C237 1.261 . S
H239 C233 0.930 . S
H240 C235 0.930 . S
N241 Cu230 1.985 . S
N241 C243 1.335 . S
N241 C244 1.390 . S
N242 C243 1.345 . S
N242 C245 1.336 . S
C243 N241 1.335 . S
C243 N242 1.345 . S
C243 H248 0.930 . S
C244 N241 1.390 . S
C244 C245 1.346 . S
C244 H249 0.930 . S
C245 N242 1.336 . S
C245 C244 1.346 . S
C245 H252 0.929 . S
C246 O236 1.282 . S
C246 O247 1.216 . S
O247 C246 1.216 . S
H248 C243 0.930 . S
H249 C244 0.930 . S
O250 Cu230 1.959 . S
O250 C237 1.251 . S
H251 C234 0.930 . S
H252 C245 0.929 . S
Cu253 N254 1.999 . S
Cu253 O259 1.974 . S
Cu253 N264 1.985 . S
Cu253 O273 1.959 . S
N254 Cu253 1.999 . S
N254 C256 1.263 . S
N254 C258 1.389 . S
N255 C256 1.358 . S
N255 C257 1.400 . S
C256 N254 1.263 . S
C256 N255 1.358 . S
C256 H262 0.930 . S
C257 N255 1.400 . S
C257 C258 1.351 . S
C257 H274 0.930 . S
C258 N254 1.389 . S
C258 C257 1.351 . S
C258 H263 0.930 . S
O259 Cu253 1.974 . S
O259 C269 1.282 . S
C260 O261 1.261 . S
C260 O273 1.251 . S
O261 C260 1.261 . S
H262 C256 0.930 . S
H263 C258 0.930 . S
N264 Cu253 1.985 . S
N264 C266 1.335 . S
N264 C267 1.390 . S
N265 C266 1.345 . S
N265 C268 1.336 . S
C266 N264 1.335 . S
C266 N265 1.345 . S
C266 H271 0.930 . S
C267 N264 1.390 . S
C267 C268 1.346 . S
C267 H272 0.930 . S
C268 N265 1.336 . S
C268 C267 1.346 . S
C268 H275 0.929 . S
C269 O259 1.282 . S
C269 O270 1.216 . S
O270 C269 1.216 . S
H271 C266 0.930 . S
H272 C267 0.930 . S
O273 Cu253 1.959 . S
O273 C260 1.251 . S
H274 C257 0.930 . S
H275 C268 0.929 . S
Cu276 N277 1.999 . S
Cu276 O282 1.974 . S
Cu276 N287 1.985 . S
Cu276 O296 1.959 . S
N277 Cu276 1.999 . S
N277 C279 1.263 . S
N277 C281 1.389 . S
N278 C279 1.358 . S
N278 C280 1.400 . S
C279 N277 1.263 . S
C279 N278 1.358 . S
C279 H285 0.930 . S
C280 N278 1.400 . S
C280 C281 1.351 . S
C280 H297 0.930 . S
C281 N277 1.389 . S
C281 C280 1.351 . S
C281 H286 0.930 . S
O282 Cu276 1.974 . S
O282 C292 1.282 . S
C283 O284 1.261 . S
C283 O296 1.251 . S
O284 C283 1.261 . S
H285 C279 0.930 . S
H286 C281 0.930 . S
N287 Cu276 1.985 . S
N287 C289 1.335 . S
N287 C290 1.390 . S
N288 C289 1.345 . S
N288 C291 1.336 . S
C289 N287 1.335 . S
C289 N288 1.345 . S
C289 H294 0.930 . S
C290 N287 1.390 . S
C290 C291 1.346 . S
C290 H295 0.930 . S
C291 N288 1.336 . S
C291 C290 1.346 . S
C291 H298 0.929 . S
C292 O282 1.282 . S
C292 O293 1.216 . S
O293 C292 1.216 . S
H294 C289 0.930 . S
H295 C290 0.930 . S
O296 Cu276 1.959 . S
O296 C283 1.251 . S
H297 C280 0.930 . S
H298 C291 0.929 . S
Cu299 N300 1.999 . S
Cu299 O305 1.974 . S
Cu299 N310 1.985 . S
Cu299 O319 1.959 . S
N300 Cu299 1.999 . S
N300 C302 1.263 . S
N300 C304 1.389 . S
N301 C302 1.358 . S
N301 C303 1.400 . S
C302 N300 1.263 . S
C302 N301 1.358 . S
C302 H308 0.930 . S
C303 N301 1.400 . S
C303 C304 1.351 . S
C303 H320 0.930 . S
C304 N300 1.389 . S
C304 C303 1.351 . S
C304 H309 0.930 . S
O305 Cu299 1.974 . S
O305 C315 1.282 . S
C306 O307 1.261 . S
C306 O319 1.251 . S
O307 C306 1.261 . S
H308 C302 0.930 . S
H309 C304 0.930 . S
N310 Cu299 1.985 . S
N310 C312 1.335 . S
N310 C313 1.390 . S
N311 C312 1.345 . S
N311 C314 1.336 . S
C312 N310 1.335 . S
C312 N311 1.345 . S
C312 H317 0.930 . S
C313 N310 1.390 . S
C313 C314 1.346 . S
C313 H318 0.930 . S
C314 N311 1.336 . S
C314 C313 1.346 . S
C314 H321 0.929 . S
C315 O305 1.282 . S
C315 O316 1.216 . S
O316 C315 1.216 . S
H317 C312 0.930 . S
H318 C313 0.930 . S
O319 Cu299 1.959 . S
O319 C306 1.251 . S
H320 C303 0.930 . S
H321 C314 0.929 . S
Cu322 N323 1.999 . S
Cu322 O328 1.974 . S
Cu322 N333 1.985 . S
Cu322 O342 1.959 . S
N323 Cu322 1.999 . S
N323 C325 1.263 . S
N323 C327 1.389 . S
N324 C325 1.358 . S
N324 C326 1.400 . S
C325 N323 1.263 . S
C325 N324 1.358 . S
C325 H331 0.930 . S
C326 N324 1.400 . S
C326 C327 1.351 . S
C326 H343 0.930 . S
C327 N323 1.389 . S
C327 C326 1.351 . S
C327 H332 0.930 . S
O328 Cu322 1.974 . S
O328 C338 1.282 . S
C329 O330 1.261 . S
C329 O342 1.251 . S
O330 C329 1.261 . S
H331 C325 0.930 . S
H332 C327 0.930 . S
N333 Cu322 1.985 . S
N333 C335 1.335 . S
N333 C336 1.390 . S
N334 C335 1.345 . S
N334 C337 1.336 . S
C335 N333 1.335 . S
C335 N334 1.345 . S
C335 H340 0.930 . S
C336 N333 1.390 . S
C336 C337 1.346 . S
C336 H341 0.930 . S
C337 N334 1.336 . S
C337 C336 1.346 . S
C337 H344 0.929 . S
C338 O328 1.282 . S
C338 O339 1.216 . S
O339 C338 1.216 . S
H340 C335 0.930 . S
H341 C336 0.930 . S
O342 Cu322 1.959 . S
O342 C329 1.251 . S
H343 C326 0.930 . S
H344 C337 0.929 . S
Cu345 N346 1.999 . S
Cu345 O351 1.974 . S
Cu345 N356 1.985 . S
Cu345 O365 1.959 . S
N346 Cu345 1.999 . S
N346 C348 1.263 . S
N346 C350 1.389 . S
N347 C348 1.358 . S
N347 C349 1.400 . S
C348 N346 1.263 . S
C348 N347 1.358 . S
C348 H354 0.930 . S
C349 N347 1.400 . S
C349 C350 1.351 . S
C349 H366 0.930 . S
C350 N346 1.389 . S
C350 C349 1.351 . S
C350 H355 0.930 . S
O351 Cu345 1.974 . S
O351 C361 1.282 . S
C352 O353 1.261 . S
C352 O365 1.251 . S
O353 C352 1.261 . S
H354 C348 0.930 . S
H355 C350 0.930 . S
N356 Cu345 1.985 . S
N356 C358 1.335 . S
N356 C359 1.390 . S
N357 C358 1.345 . S
N357 C360 1.336 . S
C358 N356 1.335 . S
C358 N357 1.345 . S
C358 H363 0.930 . S
C359 N356 1.390 . S
C359 C360 1.346 . S
C359 H364 0.930 . S
C360 N357 1.336 . S
C360 C359 1.346 . S
C360 H367 0.929 . S
C361 O351 1.282 . S
C361 O362 1.216 . S
O362 C361 1.216 . S
H363 C358 0.930 . S
H364 C359 0.930 . S
O365 Cu345 1.959 . S
O365 C352 1.251 . S
H366 C349 0.930 . S
H367 C360 0.929 . S
H368 C376 0.950 . S
H369 C381 0.950 . S
H370 C378 0.950 . S
H371 C380 0.950 . S
H372 C382 0.950 . S
H373 C384 0.950 . S
H374 C386 0.950 . S
H375 C387 0.950 . S
C376 H368 0.950 . S
C376 C377 1.386 . S
C376 C378 1.391 . S
C377 C376 1.386 . S
C377 C381 1.393 . S
C378 H370 0.950 . S
C378 C376 1.391 . S
C378 C379 1.400 . S
C379 C378 1.400 . S
C379 C380 1.398 . S
C379 C385 1.491 . S
C380 H371 0.950 . S
C380 C379 1.398 . S
C380 C381 1.391 . S
C381 H369 0.950 . S
C381 C377 1.393 . S
C381 C380 1.391 . S
C382 H372 0.950 . S
C382 C383 1.386 . S
C382 C384 1.391 . S
C383 C382 1.386 . S
C383 C387 1.393 . S
C384 H373 0.950 . S
C384 C382 1.391 . S
C384 C385 1.400 . S
C385 C379 1.491 . S
C385 C384 1.400 . S
C385 C386 1.398 . S
C386 H374 0.950 . S
C386 C385 1.398 . S
C386 C387 1.391 . S
C387 H375 0.950 . S
C387 C383 1.393 . S
C387 C386 1.391 . S
H388 C396 0.950 . S
H389 C401 0.950 . S
H390 C398 0.950 . S
H391 C400 0.950 . S
H392 C402 0.950 . S
H393 C404 0.950 . S
H394 C406 0.950 . S
H395 C407 0.950 . S
C396 H388 0.950 . S
C396 C397 1.386 . S
C396 C398 1.391 . S
C397 C396 1.386 . S
C397 C401 1.393 . S
C398 H390 0.950 . S
C398 C396 1.391 . S
C398 C399 1.400 . S
C399 C398 1.400 . S
C399 C400 1.398 . S
C399 C405 1.491 . S
C400 H391 0.950 . S
C400 C399 1.398 . S
C400 C401 1.391 . S
C401 H389 0.950 . S
C401 C397 1.393 . S
C401 C400 1.391 . S
C402 H392 0.950 . S
C402 C403 1.386 . S
C402 C404 1.391 . S
C403 C402 1.386 . S
C403 C407 1.393 . S
C404 H393 0.950 . S
C404 C402 1.391 . S
C404 C405 1.400 . S
C405 C399 1.491 . S
C405 C404 1.400 . S
C405 C406 1.398 . S
C406 H394 0.950 . S
C406 C405 1.398 . S
C406 C407 1.391 . S
C407 H395 0.950 . S
C407 C403 1.393 . S
C407 C406 1.391 . S
H408 C416 0.950 . S
H409 C421 0.950 . S
H410 C418 0.950 . S
H411 C420 0.950 . S
H412 C422 0.950 . S
H413 C424 0.950 . S
H414 C426 0.950 . S
H415 C427 0.950 . S
C416 H408 0.950 . S
C416 C417 1.386 . S
C416 C418 1.391 . S
C417 C416 1.386 . S
C417 C421 1.393 . S
C418 H410 0.950 . S
C418 C416 1.391 . S
C418 C419 1.400 . S
C419 C418 1.400 . S
C419 C420 1.398 . S
C419 C425 1.491 . S
C420 H411 0.950 . S
C420 C419 1.398 . S
C420 C421 1.391 . S
C421 H409 0.950 . S
C421 C417 1.393 . S
C421 C420 1.391 . S
C422 H412 0.950 . S
C422 C423 1.386 . S
C422 C424 1.391 . S
C423 C422 1.386 . S
C423 C427 1.393 . S
C424 H413 0.950 . S
C424 C422 1.391 . S
C424 C425 1.400 . S
C425 C419 1.491 . S
C425 C424 1.400 . S
C425 C426 1.398 . S
C426 H414 0.950 . S
C426 C425 1.398 . S
C426 C427 1.391 . S
C427 H415 0.950 . S
C427 C423 1.393 . S
C427 C426 1.391 . S
H428 C436 0.950 . S
H429 C441 0.950 . S
H430 C438 0.950 . S
H431 C440 0.950 . S
H432 C442 0.950 . S
H433 C444 0.950 . S
H434 C446 0.950 . S
H435 C447 0.950 . S
C436 H428 0.950 . S
C436 C437 1.386 . S
C436 C438 1.391 . S
C437 C436 1.386 . S
C437 C441 1.393 . S
C438 H430 0.950 . S
C438 C436 1.391 . S
C438 C439 1.400 . S
C439 C438 1.400 . S
C439 C440 1.398 . S
C439 C445 1.491 . S
C440 H431 0.950 . S
C440 C439 1.398 . S
C440 C441 1.391 . S
C441 H429 0.950 . S
C441 C437 1.393 . S
C441 C440 1.391 . S
C442 H432 0.950 . S
C442 C443 1.386 . S
C442 C444 1.391 . S
C443 C442 1.386 . S
C443 C447 1.393 . S
C444 H433 0.950 . S
C444 C442 1.391 . S
C444 C445 1.400 . S
C445 C439 1.491 . S
C445 C444 1.400 . S
C445 C446 1.398 . S
C446 H434 0.950 . S
C446 C445 1.398 . S
C446 C447 1.391 . S
C447 H435 0.950 . S
C447 C443 1.393 . S
C447 C446 1.391 . S
H448 C456 0.950 . S
H449 C461 0.950 . S
H450 C458 0.950 . S
H451 C460 0.950 . S
H452 C462 0.950 . S
H453 C464 0.950 . S
H454 C466 0.950 . S
H455 C467 0.950 . S
C456 H448 0.950 . S
C456 C457 1.386 . S
C456 C458 1.391 . S
C457 C456 1.386 . S
C457 C461 1.393 . S
C458 H450 0.950 . S
C458 C456 1.391 . S
C458 C459 1.400 . S
C459 C458 1.400 . S
C459 C460 1.398 . S
C459 C465 1.491 . S
C460 H451 0.950 . S
C460 C459 1.398 . S
C460 C461 1.391 . S
C461 H449 0.950 . S
C461 C457 1.393 . S
C461 C460 1.391 . S
C462 H452 0.950 . S
C462 C463 1.386 . S
C462 C464 1.391 . S
C463 C462 1.386 . S
C463 C467 1.393 . S
C464 H453 0.950 . S
C464 C462 1.391 . S
C464 C465 1.400 . S
C465 C459 1.491 . S
C465 C464 1.400 . S
C465 C466 1.398 . S
C466 H454 0.950 . S
C466 C465 1.398 . S
C466 C467 1.391 . S
C467 H455 0.950 . S
C467 C463 1.393 . S
C467 C466 1.391 . S
H468 C476 0.950 . S
H469 C481 0.950 . S
H470 C478 0.950 . S
H471 C480 0.950 . S
H472 C482 0.950 . S
H473 C484 0.950 . S
H474 C486 0.950 . S
H475 C487 0.950 . S
C476 H468 0.950 . S
C476 C477 1.386 . S
C476 C478 1.391 . S
C477 C476 1.386 . S
C477 C481 1.393 . S
C478 H470 0.950 . S
C478 C476 1.391 . S
C478 C479 1.400 . S
C479 C478 1.400 . S
C479 C480 1.398 . S
C479 C485 1.491 . S
C480 H471 0.950 . S
C480 C479 1.398 . S
C480 C481 1.391 . S
C481 H469 0.950 . S
C481 C477 1.393 . S
C481 C480 1.391 . S
C482 H472 0.950 . S
C482 C483 1.386 . S
C482 C484 1.391 . S
C483 C482 1.386 . S
C483 C487 1.393 . S
C484 H473 0.950 . S
C484 C482 1.391 . S
C484 C485 1.400 . S
C485 C479 1.491 . S
C485 C484 1.400 . S
C485 C486 1.398 . S
C486 H474 0.950 . S
C486 C485 1.398 . S
C486 C487 1.391 . S
C487 H475 0.950 . S
C487 C483 1.393 . S
C487 C486 1.391 . S
H488 C496 0.950 . S
H489 C501 0.950 . S
H490 C498 0.950 . S
H491 C500 0.950 . S
H492 C502 0.950 . S
H493 C504 0.950 . S
H494 C506 0.950 . S
H495 C507 0.950 . S
C496 H488 0.950 . S
C496 C497 1.386 . S
C496 C498 1.391 . S
C497 C496 1.386 . S
C497 C501 1.393 . S
C498 H490 0.950 . S
C498 C496 1.391 . S
C498 C499 1.400 . S
C499 C498 1.400 . S
C499 C500 1.398 . S
C499 C505 1.491 . S
C500 H491 0.950 . S
C500 C499 1.398 . S
C500 C501 1.391 . S
C501 H489 0.950 . S
C501 C497 1.393 . S
C501 C500 1.391 . S
C502 H492 0.950 . S
C502 C503 1.386 . S
C502 C504 1.391 . S
C503 C502 1.386 . S
C503 C507 1.393 . S
C504 H493 0.950 . S
C504 C502 1.391 . S
C504 C505 1.400 . S
C505 C499 1.491 . S
C505 C504 1.400 . S
C505 C506 1.398 . S
C506 H494 0.950 . S
C506 C505 1.398 . S
C506 C507 1.391 . S
C507 H495 0.950 . S
C507 C503 1.393 . S
C507 C506 1.391 . S
H508 C516 0.950 . S
H509 C521 0.950 . S
H510 C518 0.950 . S
H511 C520 0.950 . S
H512 C522 0.950 . S
H513 C524 0.950 . S
H514 C526 0.950 . S
H515 C527 0.950 . S
C516 H508 0.950 . S
C516 C517 1.386 . S
C516 C518 1.391 . S
C517 C516 1.386 . S
C517 C521 1.393 . S
C518 H510 0.950 . S
C518 C516 1.391 . S
C518 C519 1.400 . S
C519 C518 1.400 . S
C519 C520 1.398 . S
C519 C525 1.491 . S
C520 H511 0.950 . S
C520 C519 1.398 . S
C520 C521 1.391 . S
C521 H509 0.950 . S
C521 C517 1.393 . S
C521 C520 1.391 . S
C522 H512 0.950 . S
C522 C523 1.386 . S
C522 C524 1.391 . S
C523 C522 1.386 . S
C523 C527 1.393 . S
C524 H513 0.950 . S
C524 C522 1.391 . S
C524 C525 1.400 . S
C525 C519 1.491 . S
C525 C524 1.400 . S
C525 C526 1.398 . S
C526 H514 0.950 . S
C526 C525 1.398 . S
C526 C527 1.391 . S
C527 H515 0.950 . S
C527 C523 1.393 . S
C527 C526 1.391 . S
H528 C536 0.950 . S
H529 C541 0.950 . S
H530 C538 0.950 . S
H531 C540 0.950 . S
H532 C542 0.950 . S
H533 C544 0.950 . S
H534 C546 0.950 . S
H535 C547 0.950 . S
C536 H528 0.950 . S
C536 C537 1.386 . S
C536 C538 1.391 . S
C537 C536 1.386 . S
C537 C541 1.393 1_655 S
C538 H530 0.950 . S
C538 C536 1.391 . S
C538 C539 1.400 1_655 S
C539 C538 1.400 1_455 S
C539 C540 1.398 . S
C539 C545 1.491 . S
C540 H531 0.950 . S
C540 C539 1.398 . S
C540 C541 1.391 . S
C541 H529 0.950 . S
C541 C537 1.393 1_455 S
C541 C540 1.391 . S
C542 H532 0.950 . S
C542 C543 1.386 . S
C542 C544 1.391 . S
C543 C542 1.386 . S
C543 C547 1.393 . S
C544 H533 0.950 . S
C544 C542 1.391 . S
C544 C545 1.400 . S
C545 C539 1.491 . S
C545 C544 1.400 . S
C545 C546 1.398 . S
C546 H534 0.950 . S
C546 C545 1.398 . S
C546 C547 1.391 . S
C547 H535 0.950 . S
C547 C543 1.393 . S
C547 C546 1.391 . S
H548 C556 0.956 . S
H549 C561 0.950 . S
H550 C558 0.950 1_565 S
H551 C560 0.950 . S
H552 C562 0.950 . S
H553 C564 0.950 . S
H554 C566 0.950 . S
H555 C567 0.950 . S
C556 H548 0.956 . S
C556 C557 1.386 . S
C556 C558 1.384 1_655 S
C557 C556 1.386 . S
C557 C561 1.393 1_655 S
C558 H550 0.950 1_545 S
C558 C556 1.384 1_455 S
C558 C559 1.400 . S
C559 C558 1.400 . S
C559 C560 1.398 . S
C559 C565 1.491 . S
C560 H551 0.950 . S
C560 C559 1.398 . S
C560 C561 1.391 . S
C561 H549 0.950 . S
C561 C557 1.393 1_455 S
C561 C560 1.391 . S
C562 H552 0.950 . S
C562 C563 1.386 1_545 S
C562 C564 1.391 . S
C563 C562 1.386 1_565 S
C563 C567 1.393 . S
C564 H553 0.950 . S
C564 C562 1.391 . S
C564 C565 1.400 . S
C565 C559 1.491 . S
C565 C564 1.400 . S
C565 C566 1.398 1_545 S
C566 H554 0.950 . S
C566 C565 1.398 1_565 S
C566 C567 1.391 . S
C567 H555 0.950 . S
C567 C563 1.393 . S
C567 C566 1.391 . S
H568 C576 0.950 . S
H569 C581 0.950 . S
H570 C578 0.950 . S
H571 C580 0.950 . S
H572 C582 0.950 . S
H573 C584 0.950 . S
H574 C586 0.950 . S
H575 C587 0.950 . S
C576 H568 0.950 . S
C576 C577 1.386 . S
C576 C578 1.391 . S
C577 C576 1.386 . S
C577 C581 1.393 . S
C578 H570 0.950 . S
C578 C576 1.391 . S
C578 C579 1.400 . S
C579 C578 1.400 . S
C579 C580 1.398 . S
C579 C585 1.491 . S
C580 H571 0.950 . S
C580 C579 1.398 . S
C580 C581 1.391 . S
C581 H569 0.950 . S
C581 C577 1.393 . S
C581 C580 1.391 . S
C582 H572 0.950 . S
C582 C583 1.386 . S
C582 C584 1.391 1_565 S
C583 C582 1.386 . S
C583 C587 1.393 . S
C584 H573 0.950 . S
C584 C582 1.391 1_545 S
C584 C585 1.400 . S
C585 C579 1.491 . S
C585 C584 1.400 . S
C585 C586 1.398 1_545 S
C586 H574 0.950 . S
C586 C585 1.398 1_565 S
C586 C587 1.391 . S
C587 H575 0.950 . S
C587 C583 1.393 . S
C587 C586 1.391 . S
H588 C596 0.950 . S
H589 C601 0.950 . S
H590 C598 0.950 . S
H591 C600 0.950 . S
H592 C602 0.950 . S
H593 C604 0.950 . S
H594 C606 0.950 . S
H595 C607 0.950 . S
C596 H588 0.950 . S
C596 C597 1.386 . S
C596 C598 1.391 . S
C597 C596 1.386 . S
C597 C601 1.393 . S
C598 H590 0.950 . S
C598 C596 1.391 . S
C598 C599 1.400 . S
C599 C598 1.400 . S
C599 C600 1.398 . S
C599 C605 1.491 . S
C600 H591 0.950 . S
C600 C599 1.398 . S
C600 C601 1.391 . S
C601 H589 0.950 . S
C601 C597 1.393 . S
C601 C600 1.391 . S
C602 H592 0.950 . S
C602 C603 1.386 . S
C602 C604 1.391 . S
C603 C602 1.386 . S
C603 C607 1.393 . S
C604 H593 0.950 . S
C604 C602 1.391 . S
C604 C605 1.400 . S
C605 C599 1.491 . S
C605 C604 1.400 . S
C605 C606 1.398 . S
C606 H594 0.950 . S
C606 C605 1.398 . S
C606 C607 1.391 . S
C607 H595 0.950 . S
C607 C603 1.393 . S
C607 C606 1.391 . S
H608 C616 0.950 . S
H609 C621 0.950 . S
H610 C618 0.950 . S
H611 C620 0.950 1_455 S
H612 C622 0.950 . S
H613 C624 0.950 . S
H614 C626 0.950 . S
H615 C627 0.950 . S
C616 H608 0.950 . S
C616 C617 1.407 . S
C616 C618 1.391 . S
C617 C616 1.407 . S
C617 C621 1.383 1_655 S
C618 H610 0.950 . S
C618 C616 1.391 . S
C618 C619 1.400 . S
C619 C618 1.400 . S
C619 C620 1.398 . S
C619 C625 1.491 . S
C620 H611 0.950 1_655 S
C620 C619 1.398 . S
C620 C621 1.391 1_655 S
C621 H609 0.950 . S
C621 C617 1.383 1_455 S
C621 C620 1.391 1_455 S
C622 H612 0.950 . S
C622 C623 1.386 . S
C622 C624 1.391 . S
C623 C622 1.386 . S
C623 C627 1.393 . S
C624 H613 0.950 . S
C624 C622 1.391 . S
C624 C625 1.400 . S
C625 C619 1.491 . S
C625 C624 1.400 . S
C625 C626 1.398 . S
C626 H614 0.950 . S
C626 C625 1.398 . S
C626 C627 1.391 . S
C627 H615 0.950 . S
C627 C623 1.393 . S
C627 C626 1.391 . S
H628 C636 0.950 . S
H629 C641 0.950 . S
H630 C638 0.950 . S
H631 C640 0.950 1_455 S
H632 C642 0.950 . S
H633 C644 0.950 . S
H634 C646 0.950 . S
H635 C647 0.950 . S
C636 H628 0.950 . S
C636 C637 1.401 . S
C636 C638 1.391 1_565 S
C637 C636 1.401 . S
C637 C641 1.387 1_655 S
C638 H630 0.950 . S
C638 C636 1.391 1_545 S
C638 C639 1.400 . S
C639 C638 1.400 . S
C639 C640 1.398 1_545 S
C639 C645 1.491 . S
C640 H631 0.950 1_655 S
C640 C639 1.398 1_565 S
C640 C641 1.391 1_655 S
C641 H629 0.950 . S
C641 C637 1.387 1_455 S
C641 C640 1.391 1_455 S
C642 H632 0.950 . S
C642 C643 1.386 . S
C642 C644 1.391 . S
C643 C642 1.386 . S
C643 C647 1.393 . S
C644 H633 0.950 . S
C644 C642 1.391 . S
C644 C645 1.400 . S
C645 C639 1.491 . S
C645 C644 1.400 . S
C645 C646 1.398 . S
C646 H634 0.950 . S
C646 C645 1.398 . S
C646 C647 1.391 . S
C647 H635 0.950 . S
C647 C643 1.393 . S
C647 C646 1.391 . S
H648 C656 0.950 . S
H649 C661 0.950 1_565 S
H650 C658 0.950 . S
H651 C660 0.950 . S
H652 C662 0.950 . S
H653 C664 0.950 . S
H654 C666 0.950 . S
H655 C667 0.950 . S
C656 H648 0.950 . S
C656 C657 1.386 . S
C656 C658 1.391 . S
C657 C656 1.386 . S
C657 C661 1.393 . S
C658 H650 0.950 . S
C658 C656 1.391 . S
C658 C659 1.400 . S
C659 C658 1.400 . S
C659 C660 1.398 1_545 S
C659 C665 1.491 . S
C660 H651 0.950 . S
C660 C659 1.398 1_565 S
C660 C661 1.391 1_565 S
C661 H649 0.950 1_545 S
C661 C657 1.393 . S
C661 C660 1.391 1_545 S
C662 H652 0.950 . S
C662 C663 1.386 . S
C662 C664 1.391 . S
C663 C662 1.386 . S
C663 C667 1.393 1_565 S
C664 H653 0.950 . S
C664 C662 1.391 . S
C664 C665 1.400 1_565 S
C665 C659 1.491 . S
C665 C664 1.400 1_545 S
C665 C666 1.398 . S
C666 H654 0.950 . S
C666 C665 1.398 . S
C666 C667 1.391 . S
C667 H655 0.950 . S
C667 C663 1.393 1_545 S
C667 C666 1.391 . S
H668 C676 0.950 . S
H669 C681 0.950 . S
H670 C678 0.950 . S
H671 C680 0.950 . S
H672 C682 0.950 . S
H673 C684 0.950 . S
H674 C686 0.950 . S
H675 C687 0.950 . S
C676 H668 0.950 . S
C676 C677 1.386 . S
C676 C678 1.391 . S
C677 C676 1.386 . S
C677 C681 1.393 . S
C678 H670 0.950 . S
C678 C676 1.391 . S
C678 C679 1.400 . S
C679 C678 1.400 . S
C679 C680 1.398 . S
C679 C685 1.491 . S
C680 H671 0.950 . S
C680 C679 1.398 . S
C680 C681 1.391 . S
C681 H669 0.950 . S
C681 C677 1.393 . S
C681 C680 1.391 . S
C682 H672 0.950 . S
C682 C683 1.386 . S
C682 C684 1.391 . S
C683 C682 1.386 . S
C683 C687 1.393 . S
C684 H673 0.950 . S
C684 C682 1.391 . S
C684 C685 1.400 . S
C685 C679 1.491 . S
C685 C684 1.400 . S
C685 C686 1.398 . S
C686 H674 0.950 . S
C686 C685 1.398 . S
C686 C687 1.391 . S
C687 H675 0.950 . S
C687 C683 1.393 . S
C687 C686 1.391 . S
H688 C696 0.950 . S
H689 C701 0.950 . S
H690 C698 0.950 . S
H691 C700 0.950 . S
H692 C702 0.950 . S
H693 C704 0.950 . S
H694 C706 0.950 . S
H695 C707 0.950 . S
C696 H688 0.950 . S
C696 C697 1.386 . S
C696 C698 1.391 . S
C697 C696 1.386 . S
C697 C701 1.393 . S
C698 H690 0.950 . S
C698 C696 1.391 . S
C698 C699 1.400 . S
C699 C698 1.400 . S
C699 C700 1.398 . S
C699 C705 1.491 . S
C700 H691 0.950 . S
C700 C699 1.398 . S
C700 C701 1.391 . S
C701 H689 0.950 . S
C701 C697 1.393 . S
C701 C700 1.391 . S
C702 H692 0.950 . S
C702 C703 1.386 . S
C702 C704 1.391 . S
C703 C702 1.386 . S
C703 C707 1.393 . S
C704 H693 0.950 . S
C704 C702 1.391 . S
C704 C705 1.400 . S
C705 C699 1.491 . S
C705 C704 1.400 . S
C705 C706 1.398 . S
C706 H694 0.950 . S
C706 C705 1.398 . S
C706 C707 1.391 . S
C707 H695 0.950 . S
C707 C703 1.393 . S
C707 C706 1.391 . S
H708 C716 0.950 . S
H709 C721 0.950 . S
H710 C718 0.950 . S
H711 C720 0.950 . S
H712 C722 0.950 . S
H713 C724 0.950 . S
H714 C726 0.950 . S
H715 C727 0.950 . S
C716 H708 0.950 . S
C716 C717 1.386 . S
C716 C718 1.391 . S
C717 C716 1.386 . S
C717 C721 1.393 . S
C718 H710 0.950 . S
C718 C716 1.391 . S
C718 C719 1.400 . S
C719 C718 1.400 . S
C719 C720 1.398 . S
C719 C725 1.491 . S
C720 H711 0.950 . S
C720 C719 1.398 . S
C720 C721 1.391 . S
C721 H709 0.950 . S
C721 C717 1.393 . S
C721 C720 1.391 . S
C722 H712 0.950 . S
C722 C723 1.386 . S
C722 C724 1.391 . S
C723 C722 1.386 . S
C723 C727 1.393 . S
C724 H713 0.950 . S
C724 C722 1.391 . S
C724 C725 1.400 . S
C725 C719 1.491 . S
C725 C724 1.400 . S
C725 C726 1.398 . S
C726 H714 0.950 . S
C726 C725 1.398 . S
C726 C727 1.391 . S
C727 H715 0.950 . S
C727 C723 1.393 . S
C727 C726 1.391 . S
H728 C736 0.950 . S
H729 C741 0.950 . S
H730 C738 0.950 . S
H731 C740 0.950 . S
H732 C742 0.950 . S
H733 C744 0.950 . S
H734 C746 0.950 . S
H735 C747 0.950 . S
C736 H728 0.950 . S
C736 C737 1.386 . S
C736 C738 1.391 . S
C737 C736 1.386 . S
C737 C741 1.393 . S
C738 H730 0.950 . S
C738 C736 1.391 . S
C738 C739 1.400 . S
C739 C738 1.400 . S
C739 C740 1.398 . S
C739 C745 1.491 . S
C740 H731 0.950 . S
C740 C739 1.398 . S
C740 C741 1.391 . S
C741 H729 0.950 . S
C741 C737 1.393 . S
C741 C740 1.391 . S
C742 H732 0.950 . S
C742 C743 1.386 . S
C742 C744 1.391 . S
C743 C742 1.386 . S
C743 C747 1.393 . S
C744 H733 0.950 . S
C744 C742 1.391 . S
C744 C745 1.400 . S
C745 C739 1.491 . S
C745 C744 1.400 . S
C745 C746 1.398 . S
C746 H734 0.950 . S
C746 C745 1.398 . S
C746 C747 1.391 . S
C747 H735 0.950 . S
C747 C743 1.393 . S
C747 C746 1.391 . S
H748 C756 0.950 . S
H749 C761 0.950 . S
H750 C758 0.950 . S
H751 C760 0.950 . S
H752 C762 0.950 . S
H753 C764 0.950 . S
H754 C766 0.950 . S
H755 C767 0.950 . S
C756 H748 0.950 . S
C756 C757 1.386 . S
C756 C758 1.391 . S
C757 C756 1.386 . S
C757 C761 1.393 . S
C758 H750 0.950 . S
C758 C756 1.391 . S
C758 C759 1.400 . S
C759 C758 1.400 . S
C759 C760 1.398 . S
C759 C765 1.491 . S
C760 H751 0.950 . S
C760 C759 1.398 . S
C760 C761 1.391 . S
C761 H749 0.950 . S
C761 C757 1.393 . S
C761 C760 1.391 . S
C762 H752 0.950 . S
C762 C763 1.386 . S
C762 C764 1.391 . S
C763 C762 1.386 . S
C763 C767 1.393 . S
C764 H753 0.950 . S
C764 C762 1.391 . S
C764 C765 1.400 . S
C765 C759 1.491 . S
C765 C764 1.400 . S
C765 C766 1.398 . S
C766 H754 0.950 . S
C766 C765 1.398 . S
C766 C767 1.391 . S
C767 H755 0.950 . S
C767 C763 1.393 . S
C767 C766 1.391 . S
H768 C776 0.950 . S
H769 C781 0.950 . S
H770 C778 0.950 . S
H771 C780 0.950 . S
H772 C782 0.950 . S
H773 C784 0.950 . S
H774 C786 0.950 . S
H775 C787 0.950 . S
C776 H768 0.950 . S
C776 C777 1.386 . S
C776 C778 1.391 . S
C777 C776 1.386 . S
C777 C781 1.393 . S
C778 H770 0.950 . S
C778 C776 1.391 . S
C778 C779 1.400 . S
C779 C778 1.400 . S
C779 C780 1.398 . S
C779 C785 1.491 . S
C780 H771 0.950 . S
C780 C779 1.398 . S
C780 C781 1.391 . S
C781 H769 0.950 . S
C781 C777 1.393 . S
C781 C780 1.391 . S
C782 H772 0.950 . S
C782 C783 1.386 . S
C782 C784 1.391 . S
C783 C782 1.386 . S
C783 C787 1.393 . S
C784 H773 0.950 . S
C784 C782 1.391 . S
C784 C785 1.400 . S
C785 C779 1.491 . S
C785 C784 1.400 . S
C785 C786 1.398 . S
C786 H774 0.950 . S
C786 C785 1.398 . S
C786 C787 1.391 . S
C787 H775 0.950 . S
C787 C783 1.393 . S
C787 C786 1.391 . S
H788 C796 0.950 . S
H789 C801 0.950 . S
H790 C798 0.950 . S
H791 C800 0.950 . S
H792 C802 0.950 . S
H793 C804 0.950 . S
H794 C806 0.950 . S
H795 C807 0.950 . S
C796 H788 0.950 . S
C796 C797 1.386 . S
C796 C798 1.391 . S
C797 C796 1.386 . S
C797 C801 1.393 . S
C798 H790 0.950 . S
C798 C796 1.391 . S
C798 C799 1.400 . S
C799 C798 1.400 . S
C799 C800 1.398 . S
C799 C805 1.491 . S
C800 H791 0.950 . S
C800 C799 1.398 . S
C800 C801 1.391 . S
C801 H789 0.950 . S
C801 C797 1.393 . S
C801 C800 1.391 . S
C802 H792 0.950 . S
C802 C803 1.386 . S
C802 C804 1.391 . S
C803 C802 1.386 . S
C803 C807 1.393 . S
C804 H793 0.950 . S
C804 C802 1.391 . S
C804 C805 1.400 . S
C805 C799 1.491 . S
C805 C804 1.400 . S
C805 C806 1.398 . S
C806 H794 0.950 . S
C806 C805 1.398 . S
C806 C807 1.391 . S
C807 H795 0.950 . S
C807 C803 1.393 . S
C807 C806 1.391 . S
H808 C816 0.950 . S
H809 C821 0.950 . S
H810 C818 0.950 . S
H811 C820 0.950 . S
H812 C822 0.950 . S
H813 C824 0.950 . S
H814 C826 0.950 . S
H815 C827 0.950 . S
C816 H808 0.950 . S
C816 C817 1.386 . S
C816 C818 1.391 . S
C817 C816 1.386 . S
C817 C821 1.393 . S
C818 H810 0.950 . S
C818 C816 1.391 . S
C818 C819 1.400 . S
C819 C818 1.400 . S
C819 C820 1.398 . S
C819 C825 1.491 . S
C820 H811 0.950 . S
C820 C819 1.398 . S
C820 C821 1.391 . S
C821 H809 0.950 . S
C821 C817 1.393 . S
C821 C820 1.391 . S
C822 H812 0.950 . S
C822 C823 1.386 . S
C822 C824 1.391 . S
C823 C822 1.386 . S
C823 C827 1.393 . S
C824 H813 0.950 . S
C824 C822 1.391 . S
C824 C825 1.400 . S
C825 C819 1.491 . S
C825 C824 1.400 . S
C825 C826 1.398 . S
C826 H814 0.950 . S
C826 C825 1.398 . S
C826 C827 1.391 . S
C827 H815 0.950 . S
C827 C823 1.393 . S
C827 C826 1.391 . S
H828 C836 0.950 . S
H829 C841 0.950 . S
H830 C838 0.950 . S
H831 C840 0.950 . S
H832 C842 0.950 . S
H833 C844 0.950 . S
H834 C846 0.950 . S
H835 C847 0.950 . S
C836 H828 0.950 . S
C836 C837 1.386 . S
C836 C838 1.391 . S
C837 C836 1.386 . S
C837 C841 1.393 . S
C838 H830 0.950 . S
C838 C836 1.391 . S
C838 C839 1.400 . S
C839 C838 1.400 . S
C839 C840 1.398 . S
C839 C845 1.491 . S
C840 H831 0.950 . S
C840 C839 1.398 . S
C840 C841 1.391 . S
C841 H829 0.950 . S
C841 C837 1.393 . S
C841 C840 1.391 . S
C842 H832 0.950 . S
C842 C843 1.386 . S
C842 C844 1.391 . S
C843 C842 1.386 . S
C843 C847 1.393 . S
C844 H833 0.950 . S
C844 C842 1.391 . S
C844 C845 1.400 . S
C845 C839 1.491 . S
C845 C844 1.400 . S
C845 C846 1.398 . S
C846 H834 0.950 . S
C846 C845 1.398 . S
C846 C847 1.391 . S
C847 H835 0.950 . S
C847 C843 1.393 . S
C847 C846 1.391 . S
H848 C856 0.950 . S
H849 C861 0.950 . S
H850 C858 0.950 . S
H851 C860 0.950 1_655 S
H852 C862 0.950 . S
H853 C864 0.950 . S
H854 C866 0.950 1_455 S
H855 C867 0.950 . S
C856 H848 0.950 . S
C856 C857 1.386 . S
C856 C858 1.391 . S
C857 C856 1.386 . S
C857 C861 1.393 . S
C858 H850 0.950 . S
C858 C856 1.391 . S
C858 C859 1.400 . S
C859 C858 1.400 . S
C859 C860 1.398 . S
C859 C865 1.491 1_455 S
C860 H851 0.950 1_455 S
C860 C859 1.398 . S
C860 C861 1.391 . S
C861 H849 0.950 . S
C861 C857 1.393 . S
C861 C860 1.391 . S
C862 H852 0.950 . S
C862 C863 1.386 . S
C862 C864 1.391 1_556 S
C863 C862 1.386 . S
C863 C867 1.393 . S
C864 H853 0.950 . S
C864 C862 1.391 1_554 S
C864 C865 1.400 . S
C865 C859 1.491 1_655 S
C865 C864 1.400 . S
C865 C866 1.398 1_554 S
C866 H854 0.950 1_655 S
C866 C865 1.398 1_556 S
C866 C867 1.391 . S
C867 H855 0.950 . S
C867 C863 1.393 . S
C867 C866 1.391 . S
H868 C876 0.950 . S
H869 C881 0.950 . S
H870 C878 0.950 . S
H871 C880 0.950 . S
H872 C882 0.950 . S
H873 C884 0.950 . S
H874 C886 0.950 1_565 S
H875 C887 0.950 . S
C876 H868 0.950 . S
C876 C877 1.386 . S
C876 C878 1.391 . S
C877 C876 1.386 . S
C877 C881 1.393 . S
C878 H870 0.950 . S
C878 C876 1.391 . S
C878 C879 1.400 . S
C879 C878 1.400 . S
C879 C880 1.398 1_565 S
C879 C885 1.491 1_565 S
C880 H871 0.950 . S
C880 C879 1.398 1_545 S
C880 C881 1.391 1_545 S
C881 H869 0.950 . S
C881 C877 1.393 . S
C881 C880 1.391 1_565 S
C882 H872 0.950 . S
C882 C883 1.386 1_556 S
C882 C884 1.391 . S
C883 C882 1.386 1_554 S
C883 C887 1.393 1_655 S
C884 H873 0.950 . S
C884 C882 1.391 . S
C884 C885 1.400 1_655 S
C885 C879 1.491 1_545 S
C885 C884 1.400 1_455 S
C885 C886 1.398 1_556 S
C886 H874 0.950 1_545 S
C886 C885 1.398 1_554 S
C886 C887 1.391 . S
C887 H875 0.950 . S
C887 C883 1.393 1_455 S
C887 C886 1.391 . S
H888 C896 0.950 . S
H889 C901 0.950 . S
H890 C898 0.950 . S
H891 C900 0.950 . S
H892 C902 0.950 1_565 S
H893 C904 0.950 . S
H894 C906 0.942 1_554 S
H895 C907 0.950 . S
C896 H888 0.950 . S
C896 C897 1.386 1_545 S
C896 C898 1.391 . S
C897 C896 1.386 1_565 S
C897 C901 1.393 . S
C898 H890 0.950 . S
C898 C896 1.391 . S
C898 C899 1.400 . S
C899 C898 1.400 . S
C899 C900 1.398 1_545 S
C899 C905 1.491 . S
C900 H891 0.950 . S
C900 C899 1.398 1_565 S
C900 C901 1.391 . S
C901 H889 0.950 . S
C901 C897 1.393 . S
C901 C900 1.391 . S
C902 H892 0.950 1_545 S
C902 C903 1.386 . S
C902 C904 1.391 1_545 S
C903 C902 1.386 . S
C903 C907 1.393 . S
C904 H893 0.950 . S
C904 C902 1.391 1_565 S
C904 C905 1.400 1_566 S
C905 C899 1.491 . S
C905 C904 1.400 1_544 S
C905 C906 1.396 1_554 S
C906 H894 0.942 1_556 S
C906 C905 1.396 1_556 S
C906 C907 1.401 . S
C907 H895 0.950 . S
C907 C903 1.393 . S
C907 C906 1.401 . S
H908 C916 0.950 . S
H909 C921 0.950 . S
H910 C918 0.950 . S
H911 C920 0.950 . S
H912 C922 0.950 . S
H913 C924 0.950 . S
H914 C926 0.950 . S
H915 C927 0.950 . S
C916 H908 0.950 . S
C916 C917 1.386 . S
C916 C918 1.391 . S
C917 C916 1.386 . S
C917 C921 1.393 . S
C918 H910 0.950 . S
C918 C916 1.391 . S
C918 C919 1.400 . S
C919 C918 1.400 . S
C919 C920 1.398 . S
C919 C925 1.491 . S
C920 H911 0.950 . S
C920 C919 1.398 . S
C920 C921 1.391 . S
C921 H909 0.950 . S
C921 C917 1.393 . S
C921 C920 1.391 . S
C922 H912 0.950 . S
C922 C923 1.386 . S
C922 C924 1.391 . S
C923 C922 1.386 . S
C923 C927 1.393 1_554 S
C924 H913 0.950 . S
C924 C922 1.391 . S
C924 C925 1.400 1_554 S
C925 C919 1.491 . S
C925 C924 1.400 1_556 S
C925 C926 1.398 . S
C926 H914 0.950 . S
C926 C925 1.398 . S
C926 C927 1.391 . S
C927 H915 0.950 . S
C927 C923 1.393 1_556 S
C927 C926 1.391 . S
H928 C936 0.950 . S
H929 C941 0.950 . S
H930 C938 0.950 . S
H931 C940 0.950 . S
H932 C942 0.950 1_565 S
H933 C944 0.950 . S
H934 C946 0.950 . S
H935 C947 0.950 . S
C936 H928 0.950 . S
C936 C937 1.386 1_545 S
C936 C938 1.391 . S
C937 C936 1.386 1_565 S
C937 C941 1.393 . S
C938 H930 0.950 . S
C938 C936 1.391 . S
C938 C939 1.400 . S
C939 C938 1.400 . S
C939 C940 1.398 1_545 S
C939 C945 1.491 1_455 S
C940 H931 0.950 . S
C940 C939 1.398 1_565 S
C940 C941 1.391 . S
C941 H929 0.950 . S
C941 C937 1.393 . S
C941 C940 1.391 . S
C942 H932 0.950 1_545 S
C942 C943 1.386 . S
C942 C944 1.391 1_545 S
C943 C942 1.386 . S
C943 C947 1.393 . S
C944 H933 0.950 . S
C944 C942 1.391 1_565 S
C944 C945 1.400 1_565 S
C945 C939 1.491 1_655 S
C945 C944 1.400 1_545 S
C945 C946 1.398 . S
C946 H934 0.950 . S
C946 C945 1.398 . S
C946 C947 1.391 . S
C947 H935 0.950 . S
C947 C943 1.393 . S
C947 C946 1.391 . S
H948 C956 0.950 . S
H949 C961 0.950 . S
H950 C958 0.950 . S
H951 C960 0.950 . S
H952 C962 0.950 . S
H953 C964 0.950 . S
H954 C966 0.950 1_545 S
H955 C967 0.950 . S
C956 H948 0.950 . S
C956 C957 1.386 . S
C956 C958 1.391 . S
C957 C956 1.386 . S
C957 C961 1.393 . S
C958 H950 0.950 . S
C958 C956 1.391 . S
C958 C959 1.400 . S
C959 C958 1.400 . S
C959 C960 1.398 . S
C959 C965 1.491 1_545 S
C960 H951 0.950 . S
C960 C959 1.398 . S
C960 C961 1.391 . S
C961 H949 0.950 . S
C961 C957 1.393 . S
C961 C960 1.391 . S
C962 H952 0.950 . S
C962 C963 1.386 . S
C962 C964 1.391 . S
C963 C962 1.386 . S
C963 C967 1.393 . S
C964 H953 0.950 . S
C964 C962 1.391 . S
C964 C965 1.400 . S
C965 C959 1.491 1_565 S
C965 C964 1.400 . S
C965 C966 1.398 . S
C966 H954 0.950 1_565 S
C966 C965 1.398 . S
C966 C967 1.391 . S
C967 H955 0.950 . S
C967 C963 1.393 . S
C967 C966 1.391 . S
H968 C976 0.950 . S
H969 C981 0.950 . S
H970 C978 0.950 . S
H971 C980 0.950 . S
H972 C982 0.950 . S
H973 C984 0.950 . S
H974 C986 0.950 . S
H975 C987 0.950 . S
C976 H968 0.950 . S
C976 C977 1.386 . S
C976 C978 1.391 . S
C977 C976 1.386 . S
C977 C981 1.393 . S
C978 H970 0.950 . S
C978 C976 1.391 . S
C978 C979 1.400 . S
C979 C978 1.400 . S
C979 C980 1.398 . S
C979 C985 1.491 . S
C980 H971 0.950 . S
C980 C979 1.398 . S
C980 C981 1.391 . S
C981 H969 0.950 . S
C981 C977 1.393 . S
C981 C980 1.391 . S
C982 H972 0.950 . S
C982 C983 1.386 . S
C982 C984 1.391 . S
C983 C982 1.386 . S
C983 C987 1.393 . S
C984 H973 0.950 . S
C984 C982 1.391 . S
C984 C985 1.400 . S
C985 C979 1.491 . S
C985 C984 1.400 . S
C985 C986 1.398 . S
C986 H974 0.950 . S
C986 C985 1.398 . S
C986 C987 1.391 . S
C987 H975 0.950 . S
C987 C983 1.393 . S
C987 C986 1.391 . S
H988 C996 0.950 . S
H989 C1001 0.950 . S
H990 C998 0.950 . S
H991 C1000 0.950 . S
H992 C1002 0.950 1_655 S
H993 C1004 0.950 . S
H994 C1006 0.950 . S
H995 C1007 0.950 . S
C996 H988 0.950 . S
C996 C997 1.386 1_455 S
C996 C998 1.391 . S
C997 C996 1.386 1_655 S
C997 C1001 1.393 . S
C998 H990 0.950 . S
C998 C996 1.391 . S
C998 C999 1.400 . S
C999 C998 1.400 . S
C999 C1000 1.398 1_455 S
C999 C1005 1.491 . S
C1000 H991 0.950 . S
C1000 C999 1.398 1_655 S
C1000 C1001 1.391 . S
C1001 H989 0.950 . S
C1001 C997 1.393 . S
C1001 C1000 1.391 . S
C1002 H992 0.950 1_455 S
C1002 C1003 1.386 . S
C1002 C1004 1.391 1_455 S
C1003 C1002 1.386 . S
C1003 C1007 1.393 . S
C1004 H993 0.950 . S
C1004 C1002 1.391 1_655 S
C1004 C1005 1.400 1_655 S
C1005 C999 1.491 . S
C1005 C1004 1.400 1_455 S
C1005 C1006 1.398 . S
C1006 H994 0.950 . S
C1006 C1005 1.398 . S
C1006 C1007 1.391 . S
C1007 H995 0.950 . S
C1007 C1003 1.393 . S
C1007 C1006 1.391 . S
C377 C16 1.846 . S
C383 C62 1.831 . S
C397 C39 2.044 . S
C403 C85 2.054 . S
C417 C108 1.835 . S
C423 C154 1.845 . S
C437 C177 2.046 . S
C443 C131 2.053 . S
C457 C200 1.291 . S
C463 C246 1.274 . S
C477 N265 1.289 . S
C483 N219 1.290 . S
C497 C338 1.276 . S
C503 C292 1.290 . S
C517 N357 1.289 . S
C523 N311 1.290 . S
C537 C168 2.237 . S
C543 C7 2.254 . S
C557 C30 2.239 . S
C563 C99 2.252 . S
C577 C122 2.230 . S
C583 C53 2.244 . S
C597 C76 2.226 . S
C603 C145 2.242 . S
C617 N347 1.480 1_655 S
C623 C191 1.600 . S
C637 N209 1.480 1_655 S
C643 C283 1.599 . S
C657 C237 1.589 . S
C663 N301 1.472 . S
C677 C329 1.592 . S
C683 N255 1.478 . S
C697 N2 0.876 . S
C703 N94 0.836 . S
C717 N25 0.772 . S
C723 N117 0.739 . S
C737 N140 0.833 . S
C743 N48 0.840 . S
C757 N71 0.738 . S
C763 N163 0.773 . S
C777 N278 0.955 . S
C783 N186 0.968 . S
C797 C306 1.135 . S
C803 C214 1.153 . S
C817 N232 0.987 . S
C823 N324 0.940 . S
C837 C260 1.157 . S
C843 C352 1.147 . S
C857 N12 2.206 . S
C863 N196 2.216 . S
C877 C223 1.951 . S
C883 N35 2.049 . S
C897 N58 2.201 . S
C903 N242 2.211 . S
C917 C269 1.977 . S
C923 N81 2.063 . S
C937 N104 2.197 . S
C943 N288 2.207 . S
C957 N127 2.065 . S
C963 C315 1.978 . S
C977 N334 2.218 . S
C983 N150 2.209 . S
C997 N173 2.058 . S
C1003 C361 1.959 . S
