# Generated by pormake.
# Topology whz, (6)-cn, num edge types: 1
# Building blocks:
#     Node 0, Type 0, BuildingBlock: VOLQOD_clean_sbu_1, # of connection points: 6
#     Node 1, Type 0, BuildingBlock: VOLQOD_clean_sbu_1, # of connection points: 6
#     Node 2, Type 0, BuildingBlock: VOLQOD_clean_sbu_1, # of connection points: 6
#     Node 3, Type 0, BuildingBlock: VOLQOD_clean_sbu_1, # of connection points: 6
#     Node 4, Type 0, BuildingBlock: VOLQOD_clean_sbu_1, # of connection points: 6
#     Node 5, Type 0, BuildingBlock: VOLQOD_clean_sbu_1, # of connection points: 6
#     Node 6, Type 0, BuildingBlock: VOLQOD_clean_sbu_1, # of connection points: 6
#     Node 7, Type 0, BuildingBlock: VOLQOD_clean_sbu_1, # of connection points: 6
#     Node 8, Type 0, BuildingBlock: VOLQOD_clean_sbu_1, # of connection points: 6
#     Node 9, Type 0, BuildingBlock: VOLQOD_clean_sbu_1, # of connection points: 6
#     Node 10, Type 0, BuildingBlock: VOLQOD_clean_sbu_1, # of connection points: 6
#     Node 11, Type 0, BuildingBlock: VOLQOD_clean_sbu_1, # of connection points: 6
#     Node 12, Type 0, BuildingBlock: VOLQOD_clean_sbu_1, # of connection points: 6
#     Node 13, Type 0, BuildingBlock: VOLQOD_clean_sbu_1, # of connection points: 6
#     Node 14, Type 0, BuildingBlock: VOLQOD_clean_sbu_1, # of connection points: 6
#     Node 15, Type 0, BuildingBlock: VOLQOD_clean_sbu_1, # of connection points: 6
#     Edge 16, Type (0, 0), BuildingBlock: XUDNAN_clean_linker_2, # of connection points: 2
#     Edge 17, Type (0, 0), BuildingBlock: XUDNAN_clean_linker_2, # of connection points: 2
#     Edge 18, Type (0, 0), BuildingBlock: XUDNAN_clean_linker_2, # of connection points: 2
#     Edge 19, Type (0, 0), BuildingBlock: XUDNAN_clean_linker_2, # of connection points: 2
#     Edge 20, Type (0, 0), BuildingBlock: XUDNAN_clean_linker_2, # of connection points: 2
#     Edge 21, Type (0, 0), BuildingBlock: XUDNAN_clean_linker_2, # of connection points: 2
#     Edge 22, Type (0, 0), BuildingBlock: XUDNAN_clean_linker_2, # of connection points: 2
#     Edge 23, Type (0, 0), BuildingBlock: XUDNAN_clean_linker_2, # of connection points: 2
#     Edge 24, Type (0, 0), BuildingBlock: XUDNAN_clean_linker_2, # of connection points: 2
#     Edge 25, Type (0, 0), BuildingBlock: XUDNAN_clean_linker_2, # of connection points: 2
#     Edge 26, Type (0, 0), BuildingBlock: XUDNAN_clean_linker_2, # of connection points: 2
#     Edge 27, Type (0, 0), BuildingBlock: XUDNAN_clean_linker_2, # of connection points: 2
#     Edge 28, Type (0, 0), BuildingBlock: XUDNAN_clean_linker_2, # of connection points: 2
#     Edge 29, Type (0, 0), BuildingBlock: XUDNAN_clean_linker_2, # of connection points: 2
#     Edge 30, Type (0, 0), BuildingBlock: XUDNAN_clean_linker_2, # of connection points: 2
#     Edge 31, Type (0, 0), BuildingBlock: XUDNAN_clean_linker_2, # of connection points: 2
#     Edge 32, Type (0, 0), BuildingBlock: XUDNAN_clean_linker_2, # of connection points: 2
#     Edge 33, Type (0, 0), BuildingBlock: XUDNAN_clean_linker_2, # of connection points: 2
#     Edge 34, Type (0, 0), BuildingBlock: XUDNAN_clean_linker_2, # of connection points: 2
#     Edge 35, Type (0, 0), BuildingBlock: XUDNAN_clean_linker_2, # of connection points: 2
#     Edge 36, Type (0, 0), BuildingBlock: XUDNAN_clean_linker_2, # of connection points: 2
#     Edge 37, Type (0, 0), BuildingBlock: XUDNAN_clean_linker_2, # of connection points: 2
#     Edge 38, Type (0, 0), BuildingBlock: XUDNAN_clean_linker_2, # of connection points: 2
#     Edge 39, Type (0, 0), BuildingBlock: XUDNAN_clean_linker_2, # of connection points: 2
#     Edge 40, Type (0, 0), BuildingBlock: XUDNAN_clean_linker_2, # of connection points: 2
#     Edge 41, Type (0, 0), BuildingBlock: XUDNAN_clean_linker_2, # of connection points: 2
#     Edge 42, Type (0, 0), BuildingBlock: XUDNAN_clean_linker_2, # of connection points: 2
#     Edge 43, Type (0, 0), BuildingBlock: XUDNAN_clean_linker_2, # of connection points: 2
#     Edge 44, Type (0, 0), BuildingBlock: XUDNAN_clean_linker_2, # of connection points: 2
#     Edge 45, Type (0, 0), BuildingBlock: XUDNAN_clean_linker_2, # of connection points: 2
#     Edge 46, Type (0, 0), BuildingBlock: XUDNAN_clean_linker_2, # of connection points: 2
#     Edge 47, Type (0, 0), BuildingBlock: XUDNAN_clean_linker_2, # of connection points: 2
#     Edge 48, Type (0, 0), BuildingBlock: XUDNAN_clean_linker_2, # of connection points: 2
#     Edge 49, Type (0, 0), BuildingBlock: XUDNAN_clean_linker_2, # of connection points: 2
#     Edge 50, Type (0, 0), BuildingBlock: XUDNAN_clean_linker_2, # of connection points: 2
#     Edge 51, Type (0, 0), BuildingBlock: XUDNAN_clean_linker_2, # of connection points: 2
#     Edge 52, Type (0, 0), BuildingBlock: XUDNAN_clean_linker_2, # of connection points: 2
#     Edge 53, Type (0, 0), BuildingBlock: XUDNAN_clean_linker_2, # of connection points: 2
#     Edge 54, Type (0, 0), BuildingBlock: XUDNAN_clean_linker_2, # of connection points: 2
#     Edge 55, Type (0, 0), BuildingBlock: XUDNAN_clean_linker_2, # of connection points: 2
#     Edge 56, Type (0, 0), BuildingBlock: XUDNAN_clean_linker_2, # of connection points: 2
#     Edge 57, Type (0, 0), BuildingBlock: XUDNAN_clean_linker_2, # of connection points: 2
#     Edge 58, Type (0, 0), BuildingBlock: XUDNAN_clean_linker_2, # of connection points: 2
#     Edge 59, Type (0, 0), BuildingBlock: XUDNAN_clean_linker_2, # of connection points: 2
#     Edge 60, Type (0, 0), BuildingBlock: XUDNAN_clean_linker_2, # of connection points: 2
#     Edge 61, Type (0, 0), BuildingBlock: XUDNAN_clean_linker_2, # of connection points: 2
#     Edge 62, Type (0, 0), BuildingBlock: XUDNAN_clean_linker_2, # of connection points: 2
#     Edge 63, Type (0, 0), BuildingBlock: XUDNAN_clean_linker_2, # of connection points: 2
# Relax obj value: 0.426
# Max RMSD: 0.199
# Mean RMSD: 0.199
data_MOF--net-whz--node1-VOLQOD_clean_sbu_1--edge1-XUDNAN_clean_linker_2
_symmetry_space_group_name_H-M    P1
_symmetry_Int_Tables_number       1
_symmetry_cell_setting            triclinic
loop_
_symmetry_equiv_pos_as_xyz
'x, y, z'
_cell_length_a     36.752795
_cell_length_b     36.704645
_cell_length_c     54.879961
_cell_angle_alpha  89.97528
_cell_angle_beta   89.999132
_cell_angle_gamma 89.931545
loop_
_atom_site_label
_atom_site_type_symbol
_atom_site_fract_x
_atom_site_fract_y
_atom_site_fract_z
_atom_type_partial_charge
O0 O 0.24672 0.18675 0.1472 0.0
Zn1 Zn 0.25171 0.16393 0.11475 0.0
O2 O 0.30067 0.14544 0.11143 0.0
Zn3 Zn 0.29889 0.09341 0.10404 0.0
Zn4 Zn 0.3301 0.15621 0.13991 0.0
Zn5 Zn 0.32053 0.17153 0.08469 0.0
O6 O 0.30789 0.08495 0.06731 0.0
O7 O 0.31437 0.14232 0.05472 0.0
O8 O 0.21438 0.12485 0.11342 0.0
O9 O 0.24798 0.0747 0.11092 0.0
O10 O 0.33016 0.06482 0.12829 0.0
O11 O 0.34002 0.10804 0.15616 0.0
O12 O 0.37759 0.18236 0.13046 0.0
O13 O 0.23978 0.20502 0.09212 0.0
O14 O 0.37226 0.18348 0.09016 0.0
O15 O 0.29549 0.21962 0.08064 0.0
C16 C 0.26792 0.19565 0.16447 0.0
C17 C 0.3107 0.10853 0.05019 0.0
C18 C 0.34026 0.07467 0.14961 0.0
C19 C 0.21723 0.09034 0.11343 0.0
C20 C 0.39053 0.18964 0.1094 0.0
C21 C 0.26207 0.22774 0.08302 0.0
O22 O 0.3016 0.18718 0.16409 0.0
O23 O 0.55691 0.48545 0.39929 0.0
Zn24 Zn 0.58227 0.49601 0.36778 0.0
O25 O 0.60316 0.54457 0.3684 0.0
Zn26 Zn 0.65464 0.54315 0.36022 0.0
Zn27 Zn 0.59685 0.56602 0.39997 0.0
Zn28 Zn 0.57722 0.57273 0.34483 0.0
O29 O 0.66195 0.55759 0.32447 0.0
O30 O 0.60558 0.57362 0.31388 0.0
O31 O 0.6209 0.45806 0.36527 0.0
O32 O 0.67137 0.4913 0.36449 0.0
O33 O 0.6857 0.5703 0.38526 0.0
O34 O 0.64552 0.57012 0.41566 0.0
O35 O 0.57391 0.6156 0.39715 0.0
O36 O 0.54253 0.49054 0.34299 0.0
O37 O 0.56584 0.62276 0.3573 0.0
O38 O 0.5293 0.54899 0.33822 0.0
C39 C 0.55198 0.50336 0.41883 0.0
C40 C 0.6387 0.56746 0.30841 0.0
C41 C 0.67796 0.5736 0.40786 0.0
C42 C 0.65541 0.46058 0.3659 0.0
C43 C 0.56384 0.63484 0.37903 0.0
C44 C 0.52049 0.51557 0.33658 0.0
O45 O 0.56538 0.53506 0.42157 0.0
O46 O 0.24509 0.79745 0.6414 0.0
Zn47 Zn 0.24284 0.83098 0.61325 0.0
O48 O 0.19538 0.85223 0.61086 0.0
Zn49 Zn 0.20082 0.90271 0.60158 0.0
Zn50 Zn 0.17129 0.84817 0.64157 0.0
Zn51 Zn 0.17149 0.82275 0.58657 0.0
O52 O 0.19091 0.9066 0.56524 0.0
O53 O 0.17241 0.85077 0.55475 0.0
O54 O 0.27993 0.86868 0.61986 0.0
O55 O 0.25216 0.9195 0.60807 0.0
O56 O 0.17225 0.936 0.62443 0.0
O57 O 0.16285 0.89797 0.65555 0.0
O58 O 0.12357 0.82401 0.63655 0.0
O59 O 0.25519 0.80032 0.58443 0.0
O60 O 0.12062 0.80868 0.59741 0.0
O61 O 0.20048 0.77563 0.5829 0.0
C62 C 0.22716 0.79567 0.66112 0.0
C63 C 0.18098 0.88346 0.54911 0.0
C64 C 0.16244 0.92994 0.64643 0.0
C65 C 0.27977 0.90286 0.61649 0.0
C66 C 0.10665 0.80984 0.61869 0.0
C67 C 0.23481 0.77317 0.58 0.0
O68 O 0.19938 0.81579 0.66477 0.0
O69 O 0.90898 0.48121 0.92456 0.0
Zn70 Zn 0.89697 0.48949 0.88956 0.0
O71 O 0.88474 0.44483 0.87327 0.0
Zn72 Zn 0.83307 0.44663 0.86307 0.0
Zn73 Zn 0.89043 0.40502 0.89602 0.0
Zn74 Zn 0.91803 0.43585 0.84651 0.0
O75 O 0.82957 0.43414 0.82632 0.0
O76 O 0.88847 0.43448 0.81619 0.0
O77 O 0.85608 0.52425 0.8889 0.0
O78 O 0.81162 0.49735 0.86838 0.0
O79 O 0.80453 0.4164 0.88809 0.0
O80 O 0.84604 0.37435 0.89348 0.0
O81 O 0.93304 0.37378 0.88805 0.0
O82 O 0.93896 0.51374 0.87389 0.0
O83 O 0.94633 0.38846 0.84985 0.0
O84 O 0.9558 0.47606 0.84424 0.0
C85 C 0.90676 0.45377 0.93863 0.0
C86 C 0.85496 0.43286 0.81027 0.0
C87 C 0.81575 0.38828 0.89947 0.0
C88 C 0.82425 0.52468 0.87995 0.0
C89 C 0.9511 0.36868 0.86863 0.0
C90 C 0.95988 0.50539 0.85635 0.0
O91 O 0.89781 0.42255 0.93052 0.0
O92 O 0.75498 0.78476 0.86062 0.0
Zn93 Zn 0.75088 0.81668 0.8899 0.0
O94 O 0.70704 0.84563 0.88845 0.0
Zn95 Zn 0.71949 0.89612 0.8954 0.0
Zn96 Zn 0.68506 0.84115 0.85708 0.0
Zn97 Zn 0.67474 0.82433 0.91222 0.0
O98 O 0.7064 0.90532 0.93111 0.0
O99 O 0.67616 0.85521 0.94232 0.0
O100 O 0.79486 0.84764 0.8884 0.0
O101 O 0.77421 0.90435 0.88999 0.0
O102 O 0.69539 0.93025 0.87054 0.0
O103 O 0.68476 0.88971 0.84111 0.0
O104 O 0.63428 0.82165 0.8598 0.0
O105 O 0.75179 0.78267 0.91821 0.0
O106 O 0.62387 0.81676 0.89947 0.0
O107 O 0.69257 0.77332 0.91922 0.0
C108 C 0.7385 0.78445 0.84029 0.0
C109 C 0.68976 0.88635 0.94725 0.0
C110 C 0.68722 0.92249 0.84849 0.0
C111 C 0.80037 0.88177 0.88742 0.0
C112 C 0.61326 0.81374 0.87747 0.0
C113 C 0.7249 0.76178 0.92232 0.0
O114 O 0.71206 0.80591 0.83603 0.0
O115 O 0.42257 0.46799 0.58212 0.0
Zn116 Zn 0.40467 0.48075 0.61511 0.0
O117 O 0.3762 0.44149 0.62886 0.0
Zn118 Zn 0.32814 0.46139 0.63789 0.0
Zn119 Zn 0.37294 0.40131 0.60521 0.0
Zn120 Zn 0.40128 0.42367 0.65749 0.0
O121 O 0.31853 0.45498 0.67449 0.0
O122 O 0.37171 0.4328 0.68713 0.0
O123 O 0.37602 0.52594 0.611 0.0
O124 O 0.32295 0.51546 0.6287 0.0
O125 O 0.29019 0.43725 0.61696 0.0
O126 O 0.32051 0.39615 0.59496 0.0
O127 O 0.3952 0.35392 0.61801 0.0
O128 O 0.44869 0.49194 0.63468 0.0
O129 O 0.41225 0.37063 0.65514 0.0
O130 O 0.44985 0.44752 0.66203 0.0
C131 C 0.41913 0.44082 0.568 0.0
C132 C 0.33972 0.44429 0.69154 0.0
C133 C 0.29111 0.41282 0.60044 0.0
C134 C 0.34444 0.53655 0.61712 0.0
C135 C 0.4098 0.34664 0.63853 0.0
C136 C 0.46423 0.47523 0.65208 0.0
O137 O 0.40067 0.41304 0.57429 0.0
O138 O 0.7302 0.18686 0.35581 0.0
Zn139 Zn 0.73687 0.16174 0.38753 0.0
O140 O 0.7865 0.14459 0.39017 0.0
Zn141 Zn 0.78754 0.09257 0.3973 0.0
Zn142 Zn 0.81448 0.15682 0.36157 0.0
Zn143 Zn 0.80659 0.171 0.41639 0.0
O144 O 0.79959 0.08411 0.43361 0.0
O145 O 0.80336 0.14167 0.44622 0.0
O146 O 0.70165 0.12067 0.38762 0.0
O147 O 0.73726 0.07206 0.39125 0.0
O148 O 0.81841 0.06571 0.37198 0.0
O149 O 0.82371 0.11001 0.34432 0.0
O150 O 0.86273 0.1815 0.37002 0.0
O151 O 0.72407 0.201 0.41144 0.0
O152 O 0.85785 0.18359 0.41028 0.0
O153 O 0.78018 0.21798 0.4203 0.0
C154 C 0.75133 0.19688 0.33878 0.0
C155 C 0.80226 0.1077 0.45071 0.0
C156 C 0.82593 0.07656 0.3504 0.0
C157 C 0.706 0.08628 0.38797 0.0
C158 C 0.87609 0.18873 0.39093 0.0
C159 C 0.74638 0.22499 0.41894 0.0
O160 O 0.78503 0.18858 0.33885 0.0
O161 O 0.04836 0.49045 0.10405 0.0
Zn162 Zn 0.0831 0.4935 0.13188 0.0
O163 O 0.1003 0.5429 0.13529 0.0
Zn164 Zn 0.15309 0.54243 0.13928 0.0
Zn165 Zn 0.08587 0.57245 0.10755 0.0
Zn166 Zn 0.07661 0.56137 0.16371 0.0
O167 O 0.16641 0.55343 0.17478 0.0
O168 O 0.11195 0.56555 0.19073 0.0
O169 O 0.12351 0.45938 0.12471 0.0
O170 O 0.17313 0.49265 0.13038 0.0
O171 O 0.17697 0.57529 0.11413 0.0
O172 O 0.13103 0.58252 0.08799 0.0
O173 O 0.0617 0.62007 0.11809 0.0
O174 O 0.05514 0.47579 0.16079 0.0
O175 O 0.05628 0.61004 0.15776 0.0
O176 O 0.03521 0.52918 0.17395 0.0
C177 C 0.03771 0.51249 0.08765 0.0
C178 C 0.14623 0.56219 0.19285 0.0
C179 C 0.16483 0.58444 0.09318 0.0
C180 C 0.15791 0.46269 0.12466 0.0
C181 C 0.05159 0.63024 0.13926 0.0
C182 C 0.03284 0.49464 0.17322 0.0
O183 O 0.05 0.54493 0.08649 0.0
O184 O 0.7611 0.65262 0.67632 0.0
Zn185 Zn 0.75229 0.63753 0.64189 0.0
O186 O 0.79588 0.61692 0.62734 0.0
Zn187 Zn 0.78454 0.56879 0.61395 0.0
Zn188 Zn 0.83271 0.61098 0.65225 0.0
Zn189 Zn 0.81364 0.65069 0.60235 0.0
O190 O 0.79161 0.56939 0.57724 0.0
O191 O 0.81085 0.6259 0.56961 0.0
O192 O 0.71138 0.60227 0.64233 0.0
O193 O 0.73266 0.55558 0.62092 0.0
O194 O 0.81032 0.52787 0.63207 0.0
O195 O 0.84131 0.55864 0.65998 0.0
O196 O 0.87852 0.63623 0.64318 0.0
O197 O 0.73557 0.68172 0.6243 0.0
O198 O 0.86541 0.66648 0.6092 0.0
O199 O 0.78226 0.69671 0.60059 0.0
C200 C 0.78807 0.64901 0.69061 0.0
C201 C 0.80157 0.59423 0.56232 0.0
C202 C 0.83054 0.52866 0.65094 0.0
C203 C 0.70746 0.57086 0.63305 0.0
C204 C 0.88743 0.65819 0.62627 0.0
C205 C 0.75095 0.70342 0.60954 0.0
O206 O 0.8172 0.63348 0.68373 0.0
O207 O 0.06493 0.99624 0.90114 0.0
Zn208 Zn 0.0942 0.9956 0.87122 0.0
O209 O 0.11214 0.04303 0.8648 0.0
Zn210 Zn 0.16129 0.03816 0.85233 0.0
Zn211 Zn 0.11027 0.07139 0.89399 0.0
Zn212 Zn 0.07821 0.06212 0.84149 0.0
O213 O 0.16098 0.04806 0.81561 0.0
O214 O 0.10144 0.05542 0.8085 0.0
O215 O 0.13439 0.96091 0.87733 0.0
O216 O 0.18044 0.98707 0.8579 0.0
O217 O 0.1965 0.06643 0.87386 0.0
O218 O 0.1612 0.076 0.90644 0.0
O219 O 0.09201 0.12103 0.8856 0.0
O220 O 0.05996 0.97903 0.84538 0.0
O221 O 0.06826 0.11581 0.84848 0.0
O222 O 0.03147 0.032 0.8432 0.0
C223 C 0.06035 0.01805 0.91879 0.0
C224 C 0.13409 0.05152 0.80093 0.0
C225 C 0.19236 0.07543 0.8962 0.0
C226 C 0.16718 0.9608 0.87013 0.0
C227 C 0.07606 0.13496 0.8672 0.0
C228 C 0.03094 -0.00272 0.84198 0.0
O229 O 0.07673 0.04866 0.9195 0.0
O230 O 0.72062 0.31944 0.17343 0.0
Zn231 Zn 0.73827 0.33872 0.14217 0.0
O232 O 0.70251 0.37083 0.12787 0.0
Zn233 Zn 0.72681 0.41712 0.12136 0.0
Zn234 Zn 0.66123 0.37678 0.15014 0.0
Zn235 Zn 0.68581 0.34871 0.09766 0.0
O236 O 0.73527 0.4225 0.08494 0.0
O237 O 0.70289 0.37739 0.06867 0.0
O238 O 0.78454 0.36298 0.15048 0.0
O239 O 0.7765 0.4193 0.13728 0.0
O240 O 0.69981 0.45847 0.13753 0.0
O241 O 0.65757 0.4299 0.15954 0.0
O242 O 0.6144 0.35738 0.13517 0.0
O243 O 0.74962 0.29642 0.12138 0.0
O244 O 0.63196 0.34247 0.09772 0.0
O245 O 0.70638 0.29781 0.09325 0.0
C246 C 0.69396 0.32586 0.18747 0.0
C247 C 0.72361 0.40495 0.06644 0.0
C248 C 0.67436 0.45891 0.15335 0.0
C249 C 0.79577 0.39539 0.14805 0.0
C250 C 0.60736 0.34501 0.11396 0.0
C251 C 0.7334 0.28223 0.10335 0.0
O252 O 0.66899 0.34823 0.18147 0.0
O253 O 0.43791 0.01161 0.39543 0.0
Zn254 Zn 0.41215 0.00253 0.36379 0.0
O255 O 0.39047 0.95448 0.36374 0.0
Zn256 Zn 0.3401 0.95759 0.35443 0.0
Zn257 Zn 0.3938 0.93302 0.39527 0.0
Zn258 Zn 0.41717 0.92601 0.34052 0.0
O259 O 0.33665 0.94967 0.31778 0.0
O260 O 0.39174 0.92867 0.30797 0.0
O261 O 0.37441 0.04155 0.36116 0.0
O262 O 0.32369 0.00869 0.36053 0.0
O263 O 0.30705 0.9278 0.37697 0.0
O264 O 0.34376 0.92945 0.40928 0.0
O265 O 0.41523 0.88296 0.39254 0.0
O266 O 0.45156 0.00698 0.33888 0.0
O267 O 0.42537 0.87502 0.35293 0.0
O268 O 0.46673 0.94866 0.33757 0.0
C269 C 0.4411 0.99345 0.41504 0.0
C270 C 0.35995 0.93937 0.30188 0.0
C271 C 0.31235 0.92489 0.39993 0.0
C272 C 0.33989 0.03922 0.36194 0.0
C273 C 0.4256 0.86313 0.37478 0.0
C274 C 0.4753 0.98214 0.33565 0.0
O275 O 0.42554 0.96269 0.41762 0.0
O276 O 0.23105 0.33018 0.32727 0.0
Zn277 Zn 0.2393 0.34657 0.36156 0.0
O278 O 0.19498 0.36639 0.37554 0.0
Zn279 Zn 0.20283 0.4164 0.38699 0.0
Zn280 Zn 0.15648 0.36487 0.35145 0.0
Zn281 Zn 0.18105 0.33618 0.40226 0.0
O282 O 0.19566 0.42046 0.42399 0.0
O283 O 0.18951 0.36179 0.43342 0.0
O284 O 0.27915 0.38316 0.36107 0.0
O285 O 0.25435 0.43142 0.37905 0.0
O286 O 0.17401 0.45263 0.36676 0.0
O287 O 0.15147 0.41523 0.33864 0.0
O288 O 0.10914 0.34416 0.36461 0.0
O289 O 0.25553 0.30134 0.37854 0.0
O290 O 0.12867 0.3238 0.40038 0.0
O291 O 0.20855 0.28926 0.40251 0.0
C292 C 0.20248 0.32527 0.31466 0.0
C293 C 0.19314 0.3949 0.43975 0.0
C294 C 0.15879 0.44716 0.34621 0.0
C295 C 0.28103 0.41593 0.36844 0.0
C296 C 0.10339 0.32806 0.38483 0.0
C297 C 0.23871 0.28011 0.39296 0.0
O298 O 0.17135 0.33516 0.32239 0.0
O299 O 0.92335 0.99194 0.08202 0.0
Zn300 Zn 0.90739 -8e-05 0.1165 0.0
O301 O 0.88579 0.95579 0.12989 0.0
Zn302 Zn 0.83599 0.96528 0.14075 0.0
Zn303 Zn 0.88566 0.91807 0.1053 0.0
Zn304 Zn 0.91521 0.93945 0.15677 0.0
O305 O 0.83278 0.96281 0.17787 0.0
O306 O 0.88967 0.94853 0.1883 0.0
O307 O 0.87201 0.0415 0.11589 0.0
O308 O 0.82194 0.01589 0.13074 0.0
O309 O 0.79862 0.93504 0.12215 0.0
O310 O 0.83506 0.91295 0.09335 0.0
O311 O 0.90533 0.87011 0.11763 0.0
O312 O 0.95361 0.01311 0.13354 0.0
O313 O 0.92454 0.88623 0.15442 0.0
O314 O 0.96404 0.96442 0.1565 0.0
C315 C 0.92592 0.96367 0.06875 0.0
C316 C 0.8571 0.9567 0.19403 0.0
C317 C 0.80341 0.91938 0.10165 0.0
C318 C 0.83837 0.0429 0.12129 0.0
C319 C 0.91991 0.86225 0.13801 0.0
C320 C 0.97453 0.9944 0.14717 0.0
O321 O 0.9143 0.93289 0.07599 0.0
O322 O 0.26564 0.67317 0.8261 0.0
Zn323 Zn 0.26012 0.66617 0.86145 0.0
O324 O 0.29778 0.63479 0.87442 0.0
Zn325 Zn 0.27461 0.59017 0.88571 0.0
Zn326 Zn 0.33222 0.62365 0.84854 0.0
Zn327 Zn 0.32286 0.66016 0.90114 0.0
O328 O 0.2796 0.58648 0.92233 0.0
O329 O 0.31335 0.63435 0.93301 0.0
O330 O 0.20983 0.6471 0.86603 0.0
O331 O 0.22089 0.59088 0.87872 0.0
O332 O 0.29246 0.54622 0.86688 0.0
O333 O 0.33425 0.57004 0.84231 0.0
O334 O 0.38118 0.64416 0.8563 0.0
O335 O 0.26368 0.71546 0.87511 0.0
O336 O 0.37659 0.66629 0.89384 0.0
O337 O 0.30463 0.71217 0.90479 0.0
C338 C 0.28944 0.66448 0.81043 0.0
C339 C 0.29498 0.60606 0.93857 0.0
C340 C 0.31597 0.54289 0.84994 0.0
C341 C 0.19882 0.61544 0.8717 0.0
C342 C 0.3951 0.66027 0.8746 0.0
C343 C 0.28189 0.73014 0.89207 0.0
O344 O 0.31726 0.64581 0.81631 0.0
O345 O 0.57378 0.01511 0.5779 0.0
Zn346 Zn 0.58279 0.00243 0.61229 0.0
O347 O 0.60823 0.04052 0.62945 0.0
Zn348 Zn 0.65492 0.02023 0.64009 0.0
Zn349 Zn 0.61381 0.08239 0.60719 0.0
Zn350 Zn 0.57993 0.05516 0.6579 0.0
O351 O 0.66144 0.02576 0.67669 0.0
O352 O 0.60799 0.04772 0.68884 0.0
O353 O 0.60857 0.9547 0.61261 0.0
O354 O 0.66002 0.96631 0.63204 0.0
O355 O 0.69468 0.04427 0.62097 0.0
O356 O 0.66747 0.08874 0.60006 0.0
O357 O 0.58888 0.1282 0.62043 0.0
O358 O 0.53377 0.99602 0.62589 0.0
O359 O 0.56664 0.10772 0.6555 0.0
O360 O 0.53163 0.02885 0.65982 0.0
C361 C 0.57636 0.04394 0.56528 0.0
C362 C 0.63999 0.03643 0.69355 0.0
C363 C 0.69589 0.07056 0.60582 0.0
C364 C 0.63918 0.94429 0.6208 0.0
C365 C 0.57082 0.13318 0.64002 0.0
C366 C 0.51689 0.00738 0.64456 0.0
O367 O 0.59024 0.07281 0.57416 0.0
H368 H 0.30073 0.21452 0.20797 0.0
H369 H 0.19976 0.22468 0.16722 0.0
H370 H 0.17258 0.25899 0.20101 0.0
H371 H 0.25934 0.2023 0.26677 0.0
H372 H 0.29303 0.22864 0.28283 0.0
H373 H 0.3052 0.20499 0.25526 0.0
H374 H 0.32808 0.26555 0.23639 0.0
H375 H 0.316 0.28936 0.26392 0.0
H376 H 0.29788 0.30424 0.23506 0.0
H377 H 0.15547 0.29103 0.23908 0.0
H378 H 0.15012 0.32035 0.27935 0.0
H379 H 0.26197 0.29032 0.29551 0.0
C380 C 0.27296 0.22404 0.20614 0.0
C381 C 0.25242 0.21672 0.18495 0.0
C382 C 0.21609 0.22967 0.1833 0.0
C383 C 0.20032 0.24928 0.20239 0.0
C384 C 0.22115 0.2558 0.22304 0.0
C385 C 0.25666 0.2437 0.2251 0.0
C386 C 0.27285 0.25444 0.24944 0.0
C387 C 0.2832 0.22058 0.26446 0.0
C388 C 0.30564 0.27992 0.24599 0.0
C389 C 0.24083 0.27438 0.26062 0.0
C390 C 0.21129 0.27474 0.24509 0.0
C391 C 0.17841 0.29106 0.25144 0.0
C392 C 0.17562 0.30756 0.27436 0.0
C393 C 0.20561 0.3077 0.29056 0.0
C394 C 0.23861 0.29088 0.28349 0.0
H395 H 0.46278 0.49483 0.55045 0.0
H396 H 0.41565 0.3904 0.53083 0.0
H397 H 0.44495 0.39458 0.4903 0.0
H398 H 0.45189 0.53747 0.49272 0.0
H399 H 0.49424 0.56204 0.49459 0.0
H400 H 0.47008 0.55022 0.52201 0.0
H401 H 0.52746 0.51724 0.5385 0.0
H402 H 0.55183 0.52898 0.51115 0.0
H403 H 0.54852 0.482 0.52046 0.0
H404 H 0.47905 0.41115 0.45163 0.0
H405 H 0.51531 0.43819 0.41834 0.0
H406 H 0.53936 0.53152 0.46423 0.0
C407 C 0.45855 0.47269 0.53774 0.0
C408 C 0.43687 0.44226 0.54384 0.0
C409 C 0.43219 0.41396 0.52657 0.0
C410 C 0.44868 0.41611 0.50352 0.0
C411 C 0.46976 0.44666 0.49814 0.0
C412 C 0.47473 0.47436 0.51482 0.0
C413 C 0.49838 0.50442 0.5047 0.0
C414 C 0.47738 0.54067 0.50343 0.0
C415 C 0.53363 0.50837 0.51959 0.0
C416 C 0.50591 0.48945 0.47959 0.0
C417 C 0.48925 0.4561 0.4761 0.0
C418 C 0.49229 0.43719 0.4542 0.0
C419 C 0.51296 0.45279 0.43541 0.0
C420 C 0.53025 0.48699 0.43868 0.0
C421 C 0.52653 0.50538 0.4611 0.0
H422 H 0.20331 0.79079 0.7083 0.0
H423 H 0.27912 0.74261 0.65678 0.0
H424 H 0.30213 0.70178 0.68896 0.0
H425 H 0.26276 0.79122 0.75881 0.0
H426 H 0.22803 0.78018 0.78078 0.0
H427 H 0.21615 0.80417 0.75331 0.0
H428 H 0.1687 0.75431 0.74282 0.0
H429 H 0.18039 0.7302 0.77033 0.0
H430 H 0.18285 0.70731 0.74132 0.0
H431 H 0.31951 0.66878 0.72758 0.0
H432 H 0.32801 0.64484 0.76942 0.0
H433 H 0.2401 0.71447 0.79468 0.0
C434 C 0.2245 0.77143 0.7037 0.0
C435 C 0.23952 0.77003 0.68009 0.0
C436 C 0.26736 0.74438 0.67483 0.0
C437 C 0.28057 0.72099 0.69295 0.0
C438 C 0.26558 0.72352 0.71616 0.0
C439 C 0.23802 0.74795 0.72153 0.0
C440 C 0.22723 0.74597 0.74803 0.0
C441 C 0.23396 0.78255 0.76098 0.0
C442 C 0.18743 0.7337 0.75077 0.0
C443 C 0.2533 0.71695 0.75677 0.0
C444 C 0.27522 0.70424 0.73819 0.0
C445 C 0.30228 0.67826 0.74226 0.0
C446 C 0.30698 0.66492 0.76604 0.0
C447 C 0.28461 0.67762 0.78525 0.0
C448 C 0.25743 0.70385 0.78038 0.0
H449 H 0.93663 0.51383 0.96006 0.0
H450 H 0.90239 0.40295 0.97531 0.0
H451 H 0.92657 0.40853 0.01713 0.0
H452 H 0.01956 0.50799 0.9889 0.0
H453 H 0.01962 0.55387 0.00059 0.0
H454 H 0.99461 0.54335 0.97334 0.0
H455 H 0.93562 0.56895 0.99281 0.0
H456 H 0.96055 0.57987 0.02013 0.0
H457 H 0.92057 0.55158 0.02183 0.0
H458 H 0.96054 0.42381 0.0554 0.0
H459 H 0.00141 0.44739 0.08727 0.0
H460 H 0.01436 0.54797 0.04644 0.0
C461 C 0.93337 0.49096 0.97232 0.0
C462 C 0.91738 0.458 0.96444 0.0
C463 C 0.9143 0.42854 0.98099 0.0
C464 C 0.9279 0.43148 0.00478 0.0
C465 C 0.94441 0.46406 0.0117 0.0
C466 C 0.947 0.49334 0.99598 0.0
C467 C 0.9688 0.52414 0.00703 0.0
C468 C 0.00264 0.53282 0.99154 0.0
C469 C 0.94495 0.55815 0.01067 0.0
C470 C 0.97912 0.50718 0.03116 0.0
C471 C 0.96438 0.47274 0.03365 0.0
C472 C 0.97184 0.45093 0.05379 0.0
C473 C 0.99525 0.46454 0.07175 0.0
C474 C 0.01115 0.49957 0.06936 0.0
C475 C 0.00244 0.52124 0.04893 0.0
H476 H 0.70809 0.77452 0.79534 0.0
H477 H 0.79618 0.73697 0.84186 0.0
H478 H 0.81737 0.69617 0.80904 0.0
H479 H 0.68986 0.68748 0.76658 0.0
H480 H 0.68021 0.70785 0.73739 0.0
H481 H 0.67126 0.7329 0.76497 0.0
H482 H 0.71172 0.78586 0.74938 0.0
H483 H 0.72084 0.76098 0.7218 0.0
H484 H 0.75803 0.77664 0.74046 0.0
H485 H 0.83081 0.66221 0.77027 0.0
H486 H 0.83436 0.6361 0.72885 0.0
H487 H 0.73661 0.69545 0.70857 0.0
C488 C 0.73173 0.75759 0.79875 0.0
C489 C 0.75055 0.75902 0.82113 0.0
C490 C 0.78135 0.73637 0.82483 0.0
C491 C 0.79356 0.71309 0.80632 0.0
C492 C 0.77455 0.7127 0.78438 0.0
C493 C 0.74417 0.73419 0.78059 0.0
C494 C 0.72898 0.72931 0.75524 0.0
C495 C 0.69029 0.71343 0.75611 0.0
C496 C 0.72997 0.76533 0.74088 0.0
C497 C 0.75587 0.70205 0.7452 0.0
C498 C 0.78193 0.69276 0.76225 0.0
C499 C 0.81038 0.66902 0.75681 0.0
C500 C 0.81221 0.65445 0.73324 0.0
C501 C 0.78567 0.66365 0.71554 0.0
C502 C 0.75709 0.68759 0.72176 0.0
H503 H 0.74693 0.28244 0.20629 0.0
H504 H 0.64143 0.32943 0.22342 0.0
H505 H 0.64428 0.30107 0.2644 0.0
H506 H 0.73484 0.19741 0.23751 0.0
H507 H 0.7815 0.19557 0.24755 0.0
H508 H 0.7701 0.21854 0.21958 0.0
H509 H 0.80115 0.27734 0.23545 0.0
H510 H 0.81249 0.25465 0.26353 0.0
H511 H 0.78689 0.29656 0.26413 0.0
H512 H 0.65962 0.26763 0.30361 0.0
H513 H 0.68584 0.23236 0.33768 0.0
H514 H 0.78193 0.20977 0.29418 0.0
C515 C 0.72414 0.28669 0.21848 0.0
C516 C 0.69384 0.30808 0.21161 0.0
C517 C 0.66486 0.31306 0.22829 0.0
C518 C 0.66627 0.2971 0.25156 0.0
C519 C 0.69685 0.27648 0.25773 0.0
C520 C 0.72521 0.27131 0.24161 0.0
C521 C 0.75546 0.24877 0.2526 0.0
C522 C 0.76076 0.21295 0.23847 0.0
C523 C 0.79109 0.27065 0.25401 0.0
C524 C 0.73981 0.24199 0.27758 0.0
C525 C 0.70594 0.258 0.28021 0.0
C526 C 0.6861 0.25501 0.30172 0.0
C527 C 0.70124 0.23493 0.32094 0.0
C528 C 0.736 0.21845 0.31857 0.0
C529 C 0.75546 0.22226 0.29661 0.0
H530 H 0.96889 0.01882 0.05109 0.0
H531 H 0.91994 0.91526 0.03129 0.0
H532 H 0.94691 0.92008 0.99032 0.0
H533 H 0.95828 0.06281 0.99218 0.0
H534 H 0.00154 0.08578 0.99375 0.0
H535 H 0.97712 0.07528 0.02134 0.0
H536 H 0.03329 0.04052 0.03791 0.0
H537 H 0.05792 0.05093 0.01042 0.0
H538 H 0.05292 0.00425 0.02006 0.0
H539 H 0.97862 0.93536 0.95219 0.0
H540 H 0.01701 0.95806 0.91903 0.0
H541 H 0.04776 0.05135 0.9633 0.0
C542 C 0.96364 -0.0027 0.03806 0.0
C543 C 0.94222 0.96671 0.04431 0.0
C544 C 0.93635 0.93887 0.0269 0.0
C545 C 0.95139 0.94144 0.00357 0.0
C546 C 0.97234 0.97189 0.99802 0.0
C547 C 0.97875 -0.00076 0.01473 0.0
C548 C 0.00357 0.02827 0.00426 0.0
C549 C 0.98394 0.06522 0.0028 0.0
C550 C 0.03903 0.03114 0.01905 0.0
C551 C 0.01037 0.01268 0.97911 0.0
C552 C 0.99168 0.98037 0.97593 0.0
C553 C 0.99352 0.96055 0.95443 0.0
C554 C 0.01554 0.97375 0.93571 0.0
C555 C 0.03573 0.00642 0.93861 0.0
C556 C 0.03271 0.02634 0.96054 0.0
H557 H 0.45424 0.96228 0.45948 0.0
H558 H 0.47971 0.05758 0.41579 0.0
H559 H 0.51819 0.08125 0.44912 0.0
H560 H 0.44867 0.00807 0.51698 0.0
H561 H 0.46903 0.97089 0.53357 0.0
H562 H 0.44358 0.96196 0.5062 0.0
H563 H 0.49937 0.92836 0.48785 0.0
H564 H 0.52501 0.93735 0.51514 0.0
H565 H 0.54247 0.95161 0.48597 0.0
H566 H 0.55332 0.09485 0.4883 0.0
H567 H 0.58228 0.09617 0.52914 0.0
H568 H 0.53384 0.9911 0.54551 0.0
C569 C 0.4678 0.98818 0.45686 0.0
C570 C 0.46383 0.00808 0.43503 0.0
C571 C 0.48221 0.04184 0.43239 0.0
C572 C 0.50416 0.05552 0.45122 0.0
C573 C 0.50745 0.03512 0.47253 0.0
C574 C 0.48975 0.00215 0.47536 0.0
C575 C 0.49768 0.98528 0.49988 0.0
C576 C 0.46266 0.98134 0.51505 0.0
C577 C 0.51731 0.94848 0.49703 0.0
C578 C 0.5226 0.01387 0.51045 0.0
C579 C 0.52794 0.04254 0.49456 0.0
C580 C 0.54945 0.07244 0.50084 0.0
C581 C 0.56578 0.07297 0.52404 0.0
C582 C 0.56059 0.04367 0.54047 0.0
C583 C 0.53879 0.01382 0.53336 0.0
H584 H 0.21049 0.13305 0.92466 0.0
H585 H 0.24267 0.02334 0.90549 0.0
H586 H 0.28346 0.02109 0.94139 0.0
H587 H 0.30306 0.16129 0.95028 0.0
H588 H 0.28125 0.18864 0.97332 0.0
H589 H 0.26033 0.18345 0.94382 0.0
H590 H 0.20143 0.16049 0.96472 0.0
H591 H 0.22227 0.16482 0.99417 0.0
H592 H 0.20368 0.12162 0.98479 0.0
H593 H 0.30877 0.02632 0.98456 0.0
H594 H 0.32448 0.04262 0.02727 0.0
H595 H 0.28022 0.15073 0.01548 0.0
C596 C 0.22762 0.10936 0.9274 0.0
C597 C 0.22422 0.07869 0.91221 0.0
C598 C 0.24586 0.04748 0.91665 0.0
C599 C 0.26882 0.04587 0.9371 0.0
C600 C 0.27045 0.0761 0.95246 0.0
C601 C 0.25134 0.10775 0.94731 0.0
C602 C 0.25566 0.13555 0.96739 0.0
C603 C 0.27632 0.16922 0.95815 0.0
C604 C 0.21857 0.1462 0.97841 0.0
C605 C 0.27838 0.11396 0.98526 0.0
C606 C 0.28674 0.0797 0.97649 0.0
C607 C 0.30354 0.05355 0.99127 0.0
C608 C 0.31216 0.06287 0.01551 0.0
C609 C 0.30436 0.09815 0.02449 0.0
C610 C 0.28768 0.12391 0.00894 0.0
H611 H 0.59513 0.54453 0.27199 0.0
H612 H 0.70433 0.58321 0.28641 0.0
H613 H 0.72071 0.572 0.24318 0.0
H614 H 0.62234 0.4708 0.23997 0.0
H615 H 0.58468 0.4703 0.21893 0.0
H616 H 0.57914 0.49035 0.2485 0.0
H617 H 0.55842 0.5509 0.22845 0.0
H618 H 0.56414 0.53096 0.19867 0.0
H619 H 0.58728 0.57271 0.20626 0.0
H620 H 0.72686 0.54972 0.19998 0.0
H621 H 0.72641 0.50925 0.16419 0.0
H622 H 0.61471 0.4795 0.17984 0.0
C623 C 0.62208 0.55206 0.26581 0.0
C624 C 0.64825 0.56567 0.28229 0.0
C625 C 0.68378 0.57339 0.2739 0.0
C626 C 0.69315 0.56733 0.24937 0.0
C627 C 0.6668 0.55308 0.23367 0.0
C628 C 0.63208 0.54513 0.24172 0.0
C629 C 0.61083 0.52373 0.22293 0.0
C630 C 0.59857 0.48661 0.2332 0.0
C631 C 0.57824 0.54591 0.21352 0.0
C632 C 0.63948 0.51938 0.20338 0.0
C633 C 0.67107 0.53777 0.20943 0.0
C634 C 0.70212 0.53565 0.19493 0.0
C635 C 0.7015 0.51271 0.17449 0.0
C636 C 0.6704 0.49131 0.16918 0.0
C637 C 0.63862 0.49592 0.18328 0.0
H638 H 0.22359 0.93703 0.53008 0.0
H639 H 0.15206 0.84854 0.50918 0.0
H640 H 0.17158 0.85554 0.4663 0.0
H641 H 0.21773 0.99136 0.47195 0.0
H642 H 0.2654 0.00256 0.47373 0.0
H643 H 0.23934 0.99631 0.50125 0.0
H644 H 0.28572 0.94769 0.51577 0.0
H645 H 0.31157 0.95334 0.48828 0.0
H646 H 0.29504 0.90884 0.49665 0.0
H647 H 0.20579 0.86689 0.42642 0.0
H648 H 0.25254 0.8799 0.3948 0.0
H649 H 0.30348 0.95746 0.4435 0.0
C650 C 0.21078 0.92014 0.51637 0.0
C651 C 0.18587 0.8926 0.52297 0.0
C652 C 0.17087 0.87014 0.50452 0.0
C653 C 0.18179 0.87394 0.48009 0.0
C654 C 0.20778 0.90029 0.47439 0.0
C655 C 0.22189 0.92313 0.49209 0.0
C656 C 0.25303 0.94565 0.48228 0.0
C657 C 0.24328 0.98638 0.4823 0.0
C658 C 0.2884 0.93841 0.49659 0.0
C659 C 0.2553 0.93092 0.45662 0.0
C660 C 0.22848 0.90549 0.45205 0.0
C661 C 0.22661 0.8871 0.42975 0.0
C662 C 0.25319 0.89457 0.41191 0.0
C663 C 0.28161 0.91942 0.41687 0.0
C664 C 0.28209 0.93816 0.43931 0.0
H665 H 0.88833 0.50831 0.67869 0.0
H666 H 0.77746 0.47919 0.66074 0.0
H667 H 0.77362 0.44208 0.69818 0.0
H668 H 0.91235 0.4176 0.7109 0.0
H669 H 0.93987 0.44205 0.7326 0.0
H670 H 0.93657 0.45795 0.70158 0.0
H671 H 0.91589 0.52109 0.71747 0.0
H672 H 0.91809 0.50534 0.74837 0.0
H673 H 0.87624 0.52417 0.73673 0.0
H674 H 0.77662 0.42332 0.74279 0.0
H675 H 0.79016 0.41586 0.78686 0.0
H676 H 0.90028 0.45356 0.77386 0.0
C677 C 0.86407 0.4923 0.68194 0.0
C678 C 0.83343 0.49619 0.66671 0.0
C679 C 0.8016 0.47585 0.67185 0.0
C680 C 0.79905 0.45497 0.69326 0.0
C681 C 0.82896 0.45382 0.7089 0.0
C682 C 0.86139 0.47087 0.70296 0.0
C683 C 0.88828 0.46883 0.72377 0.0
C684 C 0.92121 0.44518 0.71679 0.0
C685 C 0.90028 0.50712 0.73206 0.0
C686 C 0.86517 0.45028 0.74288 0.0
C687 C 0.83109 0.44154 0.7341 0.0
C688 C 0.80369 0.42879 0.74962 0.0
C689 C 0.81148 0.42486 0.77465 0.0
C690 C 0.84643 0.43348 0.78381 0.0
C691 C 0.87355 0.44568 0.76746 0.0
H692 H 0.80262 0.95323 0.05878 0.0
H693 H 0.7381 0.88196 0.10436 0.0
H694 H 0.69355 0.87465 0.07049 0.0
H695 H 0.72481 0.99595 0.02433 0.0
H696 H 0.75142 -0.00276 0.99675 0.0
H697 H 0.77342 0.002 0.02594 0.0
H698 H 0.81618 0.94796 0.01549 0.0
H699 H 0.79441 0.94307 0.98642 0.0
H700 H 0.79665 0.90477 0.00694 0.0
H701 H 0.66322 0.86698 0.02926 0.0
H702 H 0.65013 0.85897 0.98549 0.0
H703 H 0.73444 0.9372 0.96775 0.0
C704 C 0.77852 0.93685 0.0618 0.0
C705 C 0.77349 0.91807 0.08394 0.0
C706 C 0.74203 0.89669 0.08747 0.0
C707 C 0.71671 0.89256 0.06838 0.0
C708 C 0.72313 0.91069 0.04633 0.0
C709 C 0.75314 0.93286 0.04319 0.0
C710 C 0.75645 0.94634 0.01726 0.0
C711 C 0.75119 0.98785 0.016 0.0
C712 C 0.79306 0.93482 0.00588 0.0
C713 C 0.72482 0.9266 0.00572 0.0
C714 C 0.70543 0.90674 0.0228 0.0
C715 C 0.67766 0.8831 0.01588 0.0
C716 C 0.67046 0.8787 0.99093 0.0
C717 C 0.69114 0.89765 0.97315 0.0
C718 C 0.71759 0.92296 0.98083 0.0
H719 H 0.37246 0.51311 0.82484 0.0
H720 H 0.25661 0.5029 0.83743 0.0
H721 H 0.2505 0.4674 0.79953 0.0
H722 H 0.36941 0.53151 0.76683 0.0
H723 H 0.40837 0.50585 0.75663 0.0
H724 H 0.406 0.52115 0.78762 0.0
H725 H 0.41371 0.45512 0.80344 0.0
H726 H 0.41733 0.43948 0.77239 0.0
H727 H 0.38387 0.41981 0.79246 0.0
H728 H 0.25457 0.45007 0.75509 0.0
H729 H 0.2709 0.44077 0.71162 0.0
H730 H 0.38445 0.45796 0.72952 0.0
C731 C 0.34624 0.50146 0.82033 0.0
C732 C 0.31512 0.51046 0.8341 0.0
C733 C 0.28096 0.4957 0.8274 0.0
C734 C 0.27717 0.47576 0.80573 0.0
C735 C 0.308 0.46984 0.79146 0.0
C736 C 0.34218 0.48098 0.79902 0.0
C737 C 0.37038 0.47468 0.77939 0.0
C738 C 0.38962 0.51042 0.77221 0.0
C739 C 0.39795 0.44553 0.7874 0.0
C740 C 0.34638 0.46083 0.75905 0.0
C741 C 0.31048 0.458 0.76626 0.0
C742 C 0.28279 0.45075 0.74948 0.0
C743 C 0.29219 0.44588 0.72482 0.0
C744 C 0.32895 0.44796 0.71736 0.0
C745 C 0.35621 0.45509 0.73483 0.0
H746 H 0.78053 0.1503 0.48808 0.0
H747 H 0.81639 0.04042 0.47162 0.0
H748 H 0.80591 0.0231 0.51479 0.0
H749 H 0.81172 0.15538 0.55305 0.0
H750 H 0.77115 0.17985 0.56164 0.0
H751 H 0.79012 0.18565 0.53158 0.0
H752 H 0.72822 0.16765 0.51235 0.0
H753 H 0.70915 0.16213 0.54219 0.0
H754 H 0.70753 0.12493 0.52077 0.0
H755 H 0.78436 0.01645 0.55818 0.0
H756 H 0.74452 0.01719 0.59423 0.0
H757 H 0.71822 0.13049 0.58039 0.0
C758 C 0.78748 0.12285 0.49364 0.0
C759 C 0.79994 0.09682 0.4766 0.0
C760 C 0.80723 0.06085 0.48446 0.0
C761 C 0.80165 0.05095 0.50897 0.0
C762 C 0.78863 0.07731 0.52519 0.0
C763 C 0.7813 0.11247 0.51766 0.0
C764 C 0.76141 0.13405 0.537 0.0
C765 C 0.78502 0.1656 0.54637 0.0
C766 C 0.7244 0.14795 0.52751 0.0
C767 C 0.75686 0.10505 0.55626 0.0
C768 C 0.77408 0.07297 0.5496 0.0
C769 C 0.77125 0.04154 0.56369 0.0
C770 C 0.74866 0.04233 0.58428 0.0
C771 C 0.7283 0.07401 0.59008 0.0
C772 C 0.73382 0.10612 0.57652 0.0
H773 H 0.19034 0.44073 0.30269 0.0
H774 H 0.13262 0.51798 0.34816 0.0
H775 H 0.13528 0.56358 0.31456 0.0
H776 H 0.24956 0.5092 0.27109 0.0
H777 H 0.24756 0.48387 0.24299 0.0
H778 H 0.24567 0.46026 0.27179 0.0
H779 H 0.18495 0.42967 0.2591 0.0
H780 H 0.18704 0.45262 0.23029 0.0
H781 H 0.14746 0.45789 0.24938 0.0
H782 H 0.13446 0.59493 0.27358 0.0
H783 H 0.12876 0.60859 0.22968 0.0
H784 H 0.19193 0.51249 0.21238 0.0
C785 C 0.17858 0.46746 0.30565 0.0
C786 C 0.16062 0.47591 0.32763 0.0
C787 C 0.14614 0.51113 0.33123 0.0
C788 C 0.14788 0.53712 0.31236 0.0
C789 C 0.16533 0.52757 0.29059 0.0
C790 C 0.18085 0.49363 0.28739 0.0
C791 C 0.19531 0.4885 0.26185 0.0
C792 C 0.23701 0.48528 0.26195 0.0
C793 C 0.1776 0.45525 0.24944 0.0
C794 C 0.18321 0.52393 0.25041 0.0
C795 C 0.16662 0.5465 0.26738 0.0
C796 C 0.14842 0.57812 0.26034 0.0
C797 C 0.14543 0.58576 0.23538 0.0
C798 C 0.1607 0.56197 0.21783 0.0
C799 C 0.18142 0.53185 0.22552 0.0
H800 H 0.75593 0.54611 0.54026 0.0
H801 H 0.83445 0.63106 0.52473 0.0
H802 H 0.81699 0.62941 0.48121 0.0
H803 H 0.76188 0.49679 0.48033 0.0
H804 H 0.71352 0.48865 0.48034 0.0
H805 H 0.73803 0.49082 0.50876 0.0
H806 H 0.69391 0.54114 0.52384 0.0
H807 H 0.66964 0.53953 0.49546 0.0
H808 H 0.68839 0.58205 0.50601 0.0
H809 H 0.78508 0.62358 0.44005 0.0
H810 H 0.74026 0.61574 0.40645 0.0
H811 H 0.68085 0.53824 0.45074 0.0
C812 C 0.77055 0.5633 0.52757 0.0
C813 C 0.79693 0.5883 0.53582 0.0
C814 C 0.81442 0.61138 0.51874 0.0
C815 C 0.80472 0.61059 0.49397 0.0
C816 C 0.7774 0.58667 0.4866 0.0
C817 C 0.76071 0.56333 0.50297 0.0
C818 C 0.7289 0.5438 0.49144 0.0
C819 C 0.73603 0.50257 0.49014 0.0
C820 C 0.69313 0.55216 0.50499 0.0
C821 C 0.72934 0.5608 0.46637 0.0
C822 C 0.758 0.58475 0.46355 0.0
C823 C 0.76276 0.6046 0.44201 0.0
C824 C 0.73726 0.60009 0.42307 0.0
C825 C 0.70707 0.57675 0.42622 0.0
C826 C 0.70358 0.55656 0.44798 0.0
H827 H 0.09367 0.00824 0.77189 0.0
H828 H 0.18864 0.07795 0.77144 0.0
H829 H 0.19969 0.06195 0.72807 0.0
H830 H 0.13537 0.93778 0.74086 0.0
H831 H 0.09518 0.92334 0.72473 0.0
H832 H 0.09088 0.94603 0.75358 0.0
H833 H 0.04908 0.99463 0.73374 0.0
H834 H 0.05347 0.97214 0.70469 0.0
H835 H 0.06495 0.01967 0.70755 0.0
H836 H 0.20214 0.0348 0.68542 0.0
H837 H 0.20256 0.99193 0.65059 0.0
H838 H 0.10994 0.93534 0.6813 0.0
C839 C 0.11613 0.02103 0.76239 0.0
C840 C 0.13979 0.04508 0.77466 0.0
C841 C 0.16991 0.05995 0.76212 0.0
C842 C 0.1762 0.05116 0.73751 0.0
C843 C 0.15247 0.02694 0.72595 0.0
C844 C 0.12336 0.01166 0.7382 0.0
C845 C 0.10521 0.98222 0.72321 0.0
C846 C 0.10679 0.94517 0.73638 0.0
C847 C 0.06584 0.99281 0.71692 0.0
C848 C 0.1291 0.98259 0.70077 0.0
C849 C 0.15546 0.00938 0.70229 0.0
C850 C 0.18143 0.01398 0.68399 0.0
C851 C 0.1813 0.98971 0.66418 0.0
C852 C 0.15602 0.96068 0.66322 0.0
C853 C 0.12916 0.95769 0.68146 0.0
H854 H 0.69603 0.42015 0.02052 0.0
H855 H 0.79488 0.3947 0.06024 0.0
H856 H 0.82703 0.3838 0.02152 0.0
H857 H 0.7049 0.35813 0.97257 0.0
H858 H 0.6904 0.38804 0.94839 0.0
H859 H 0.67435 0.39537 0.97901 0.0
H860 H 0.69884 0.46151 0.97838 0.0
H861 H 0.71402 0.45473 0.94749 0.0
H862 H 0.74575 0.46961 0.97045 0.0
H863 H 0.84465 0.36492 0.98016 0.0
H864 H 0.85593 0.3594 0.93641 0.0
H865 H 0.74997 0.40723 0.92127 0.0
C866 C 0.72472 0.41342 0.02088 0.0
C867 C 0.74323 0.40847 0.04324 0.0
C868 C 0.78056 0.39919 0.04323 0.0
C869 C 0.79887 0.39246 0.02139 0.0
C870 C 0.77968 0.3962 0.99968 0.0
C871 C 0.74403 0.40814 0.99905 0.0
C872 C 0.7309 0.41186 0.97287 0.0
C873 C 0.69819 0.38686 0.96794 0.0
C874 C 0.72185 0.4518 0.96695 0.0
C875 C 0.76444 0.39905 0.9591 0.0
C876 C 0.79168 0.38917 0.97514 0.0
C877 C 0.82412 0.37375 0.96731 0.0
C878 C 0.83002 0.37038 0.94229 0.0
C879 C 0.80415 0.3836 0.9252 0.0
C880 C 0.77044 0.39728 0.93381 0.0
H881 H 0.31862 0.07907 0.19654 0.0
H882 H 0.37282 0.00691 0.14563 0.0
H883 H 0.37955 0.96064 0.1785 0.0
H884 H 0.37 0.05859 0.24911 0.0
H885 H 0.33148 0.06083 0.26939 0.0
H886 H 0.33159 0.08715 0.24174 0.0
H887 H 0.27061 0.05719 0.22905 0.0
H888 H 0.27063 0.03032 0.25653 0.0
H889 H 0.26753 0.00824 0.22728 0.0
H890 H 0.38493 0.92514 0.2189 0.0
H891 H 0.38604 0.9031 0.26163 0.0
H892 H 0.32182 0.99649 0.28372 0.0
C893 C 0.33222 0.05364 0.19231 0.0
C894 C 0.34595 0.04678 0.16872 0.0
C895 C 0.36254 0.01278 0.1637 0.0
C896 C 0.3663 0.98639 0.18222 0.0
C897 C 0.35231 0.99412 0.20535 0.0
C898 C 0.33518 0.02684 0.21024 0.0
C899 C 0.32194 0.02874 0.23629 0.0
C900 C 0.33984 0.0607 0.24993 0.0
C901 C 0.2802 0.03126 0.23733 0.0
C902 C 0.33524 0.9924 0.24571 0.0
C903 C 0.35283 0.97273 0.22771 0.0
C904 C 0.37046 0.93993 0.23294 0.0
C905 C 0.37084 0.92752 0.25722 0.0
C906 C 0.35315 0.94754 0.27585 0.0
C907 C 0.33437 0.97984 0.26975 0.0
H908 H 0.27496 0.35675 0.56958 0.0
H909 H 0.24011 0.46506 0.59087 0.0
H910 H 0.20379 0.46998 0.55331 0.0
H911 H 0.29078 0.37407 0.51157 0.0
H912 H 0.27392 0.33222 0.49866 0.0
H913 H 0.28977 0.33298 0.52958 0.0
H914 H 0.22789 0.30825 0.54493 0.0
H915 H 0.21199 0.30637 0.51387 0.0
H916 H 0.18641 0.33124 0.53643 0.0
H917 H 0.18526 0.46937 0.50899 0.0
H918 H 0.17645 0.45806 0.46476 0.0
H919 H 0.21997 0.34904 0.47386 0.0
C920 C 0.25824 0.38073 0.56691 0.0
C921 C 0.26037 0.41042 0.58314 0.0
C922 C 0.23859 0.4417 0.57886 0.0
C923 C 0.21801 0.44489 0.55744 0.0
C924 C 0.21862 0.41614 0.54089 0.0
C925 C 0.23712 0.38408 0.54583 0.0
C926 C 0.23626 0.35854 0.52424 0.0
C927 C 0.27497 0.34893 0.51551 0.0
C928 C 0.21432 0.32406 0.53023 0.0
C929 C 0.21654 0.38213 0.50592 0.0
C930 C 0.20637 0.41523 0.51576 0.0
C931 C 0.1919 0.44305 0.50129 0.0
C932 C 0.18732 0.4366 0.47619 0.0
C933 C 0.19695 0.40252 0.46603 0.0
C934 C 0.2114 0.37504 0.48123 0.0
H935 H 0.8142 0.00973 0.21342 0.0
H936 H 0.88428 0.91936 0.23301 0.0
H937 H 0.87946 0.93654 0.27651 0.0
H938 H 0.85489 0.07136 0.25162 0.0
H939 H 0.81407 0.09586 0.25961 0.0
H940 H 0.8168 0.07241 0.23092 0.0
H941 H 0.75863 0.03572 0.24138 0.0
H942 H 0.75539 0.05951 0.27002 0.0
H943 H 0.75652 0.01043 0.26951 0.0
H944 H 0.87089 0.9672 0.3178 0.0
H945 H 0.86155 0.0102 0.35229 0.0
H946 H 0.80205 0.08254 0.30411 0.0
C947 C 0.82734 0.99277 0.22699 0.0
C948 C 0.84898 0.96283 0.22003 0.0
C949 C 0.86715 0.94214 0.23812 0.0
C950 C 0.86455 0.95167 0.26284 0.0
C951 C 0.84401 0.98221 0.26908 0.0
C952 C 0.82572 0.00244 0.25161 0.0
C953 C 0.8092 0.03647 0.26248 0.0
C954 C 0.82469 0.07104 0.25044 0.0
C955 C 0.76746 0.03545 0.26075 0.0
C956 C 0.82185 0.03277 0.28857 0.0
C957 C 0.84115 0.00096 0.29229 0.0
C958 C 0.85572 0.99216 0.31509 0.0
C959 C 0.85045 0.01667 0.33453 0.0
C960 C 0.83171 0.04985 0.33069 0.0
C961 C 0.81711 0.05764 0.30747 0.0
H962 H 0.15449 0.57142 0.04502 0.0
H963 H 0.23443 0.61207 0.09637 0.0
H964 H 0.27881 0.6191 0.06259 0.0
H965 H 0.21709 0.5182 0.01004 0.0
H966 H 0.19439 0.52698 0.98151 0.0
H967 H 0.1688 0.52687 0.00951 0.0
H968 H 0.14537 0.59218 0.00051 0.0
H969 H 0.17033 0.59222 0.97231 0.0
H970 H 0.17766 0.62794 0.9943 0.0
H971 H 0.31318 0.62402 0.02206 0.0
H972 H 0.33442 0.62528 0.97918 0.0
H973 H 0.23305 0.57561 0.95623 0.0
C974 C 0.18114 0.58237 0.04918 0.0
C975 C 0.19085 0.59187 0.07324 0.0
C976 C 0.22635 0.60503 0.07799 0.0
C977 C 0.25172 0.60894 0.05895 0.0
C978 C 0.24131 0.59878 0.03545 0.0
C979 C 0.20687 0.58555 0.03062 0.0
C980 C 0.20243 0.57549 0.00409 0.0
C981 C 0.19526 0.53445 0.00113 0.0
C982 C 0.17217 0.59833 0.9921 0.0
C983 C 0.23956 0.58574 0.9945 0.0
C984 C 0.26166 0.5993 0.01275 0.0
C985 C 0.29629 0.61291 0.00772 0.0
C986 C 0.30819 0.61341 0.98336 0.0
C987 C 0.28571 0.59985 0.96446 0.0
C988 C 0.25134 0.58515 0.97033 0.0
H989 H 0.6896 0.9888 0.71232 0.0
H990 H 0.61304 0.07319 0.73309 0.0
H991 H 0.62415 0.05933 0.77656 0.0
H992 H 0.65966 0.92616 0.75314 0.0
H993 H 0.70341 0.90623 0.75978 0.0
H994 H 0.69575 0.92798 0.73091 0.0
H995 H 0.7508 0.97063 0.7384 0.0
H996 H 0.75882 0.94877 0.76734 0.0
H997 H 0.75272 -0.00254 0.76588 0.0
H998 H 0.63807 0.03086 0.81776 0.0
H999 H 0.65067 0.98803 0.85189 0.0
H1000 H 0.71482 0.92094 0.80316 0.0
C1001 C 0.67621 0.00528 0.72601 0.0
C1002 C 0.65085 0.03236 0.71936 0.0
C1003 C 0.63283 0.05247 0.73783 0.0
C1004 C 0.63908 0.0449 0.76256 0.0
C1005 C 0.66336 0.01709 0.76853 0.0
C1006 C 0.68167 -0.00235 0.75071 0.0
C1007 C 0.70244 0.96596 0.7615 0.0
C1008 C 0.68952 0.92945 0.7507 0.0
C1009 C 0.74364 0.97103 0.75808 0.0
C1010 C 0.69178 0.96967 0.78798 0.0
C1011 C 0.67006 -0.00017 0.79193 0.0
C1012 C 0.65546 0.00743 0.81492 0.0
C1013 C 0.6627 0.9831 0.83418 0.0
C1014 C 0.6835 0.95132 0.82998 0.0
C1015 C 0.69875 0.94512 0.80677 0.0
H1016 H 0.43187 0.22441 0.14482 0.0
H1017 H 0.42746 0.20118 0.06719 0.0
H1018 H 0.47889 0.24231 0.06025 0.0
H1019 H 0.45464 0.31861 0.13982 0.0
H1020 H 0.4862 0.31898 0.16496 0.0
H1021 H 0.44911 0.28693 0.16466 0.0
H1022 H 0.49435 0.23318 0.16926 0.0
H1023 H 0.53148 0.26514 0.17013 0.0
H1024 H 0.53154 0.22883 0.14803 0.0
H1025 H 0.52786 0.28772 0.06069 0.0
H1026 H 0.57971 0.32784 0.06945 0.0
H1027 H 0.5555 0.32144 0.14684 0.0
C1028 C 0.44215 0.2275 0.12644 0.0
C1029 C 0.42529 0.20967 0.10655 0.0
C1030 C 0.43957 0.21464 0.08276 0.0
C1031 C 0.46874 0.23814 0.07854 0.0
C1032 C 0.48374 0.25636 0.0983 0.0
C1033 C 0.47166 0.25084 0.12185 0.0
C1034 C 0.4937 0.2734 0.13975 0.0
C1035 C 0.46945 0.30112 0.15308 0.0
C1036 C 0.51398 0.24866 0.15786 0.0
C1037 C 0.51988 0.29231 0.12246 0.0
C1038 C 0.51315 0.28233 0.09863 0.0
C1039 C 0.53364 0.29564 0.07928 0.0
C1040 C 0.56295 0.31858 0.08446 0.0
C1041 C 0.57177 0.3278 0.10882 0.0
C1042 C 0.54923 0.31528 0.12801 0.0
H1043 H 0.53953 0.68395 0.345 0.0
H1044 H 0.54631 0.66531 0.42307 0.0
H1045 H 0.50955 0.72048 0.43028 0.0
H1046 H 0.54539 0.78268 0.34784 0.0
H1047 H 0.51393 0.7891 0.32301 0.0
H1048 H 0.54181 0.74876 0.32421 0.0
H1049 H 0.4838 0.70883 0.32161 0.0
H1050 H 0.4557 0.74904 0.32083 0.0
H1051 H 0.44817 0.7148 0.34384 0.0
H1052 H 0.46967 0.77571 0.42896 0.0
H1053 H 0.43492 0.83134 0.4195 0.0
H1054 H 0.45468 0.81419 0.34226 0.0
C1055 C 0.5337 0.69165 0.36364 0.0
C1056 C 0.54579 0.67022 0.38346 0.0
C1057 C 0.53747 0.6813 0.40757 0.0
C1058 C 0.51642 0.71249 0.41187 0.0
C1059 C 0.5041 0.73235 0.39188 0.0
C1060 C 0.51285 0.7227 0.36827 0.0
C1061 C 0.49632 0.74885 0.35002 0.0
C1062 C 0.52614 0.76852 0.33542 0.0
C1063 C 0.4694 0.72919 0.33308 0.0
C1064 C 0.4768 0.77465 0.36709 0.0
C1065 C 0.48142 0.76447 0.39113 0.0
C1066 C 0.46599 0.78408 0.41021 0.0
C1067 C 0.44613 0.81556 0.40461 0.0
C1068 C 0.44208 0.82724 0.38011 0.0
C1069 C 0.45714 0.80601 0.36115 0.0
H1070 H 0.92707 0.69328 0.59048 0.0
H1071 H 0.92535 0.66895 0.66799 0.0
H1072 H 0.97906 0.70755 0.67404 0.0
H1073 H 0.02627 0.69157 0.58526 0.0
H1074 H 0.02768 0.72796 0.56321 0.0
H1075 H 0.98859 0.69849 0.56473 0.0
H1076 H 0.94695 0.75489 0.57033 0.0
H1077 H 0.98598 0.78449 0.56918 0.0
H1078 H 0.95569 0.7861 0.595 0.0
H1079 H 0.02926 0.75118 0.67272 0.0
H1080 H 0.08129 0.79034 0.66328 0.0
H1081 H 0.05518 0.78407 0.5861 0.0
C1082 C 0.93827 0.69589 0.60864 0.0
C1083 C 0.922 0.67817 0.62876 0.0
C1084 C 0.93747 0.68203 0.65226 0.0
C1085 C 0.96781 0.70415 0.65596 0.0
C1086 C 0.98275 0.72178 0.63592 0.0
C1087 C 0.9692 0.71736 0.61264 0.0
C1088 C 0.99177 0.73847 0.59428 0.0
C1089 C 0.00964 0.71258 0.57578 0.0
C1090 C 0.96871 0.76772 0.58144 0.0
C1091 C 0.01981 0.75554 0.61103 0.0
C1092 C 0.01349 0.74591 0.63498 0.0
C1093 C 0.03482 0.7587 0.65402 0.0
C1094 C 0.06422 0.78117 0.64842 0.0
C1095 C 0.07247 0.79022 0.6239 0.0
C1096 C 0.04962 0.77755 0.60498 0.0
H1097 H 0.96045 0.31345 0.83549 0.0
H1098 H 0.00252 0.35828 0.90288 0.0
H1099 H 0.04467 0.30625 0.90676 0.0
H1100 H 0.95725 0.22418 0.85597 0.0
H1101 H 0.97008 0.20289 0.82765 0.0
H1102 H 0.94793 0.24662 0.82741 0.0
H1103 H 0.00131 0.27385 0.80256 0.0
H1104 H 0.02358 0.23005 0.80258 0.0
H1105 H 0.04715 0.26961 0.81392 0.0
H1106 H 0.07688 0.24769 0.90602 0.0
H1107 H 0.09668 0.18417 0.90167 0.0
H1108 H 0.0324 0.17419 0.83552 0.0
C1109 C 0.97946 0.3127 0.85057 0.0
C1110 C 0.97892 0.33994 0.86871 0.0
C1111 C 0.003 0.3377 0.88873 0.0
C1112 C 0.02705 0.30838 0.89102 0.0
C1113 C 0.0264 0.28137 0.87323 0.0
C1114 C 0.00327 0.28309 0.85338 0.0
C1115 C 0.00524 0.24826 0.83851 0.0
C1116 C 0.96791 0.22938 0.83733 0.0
C1117 C 0.02022 0.25591 0.81287 0.0
C1118 C 0.03215 0.22641 0.85357 0.0
C1119 C 0.04442 0.24644 0.87323 0.0
C1120 C 0.06785 0.23181 0.89056 0.0
C1121 C 0.07878 0.19556 0.88795 0.0
C1122 C 0.06608 0.17404 0.86825 0.0
C1123 C 0.04285 0.18997 0.85064 0.0
H1124 H 0.55976 0.79249 0.9098 0.0
H1125 H 0.58917 0.79034 0.83309 0.0
H1126 H 0.5385 0.74848 0.82493 0.0
H1127 H 0.5353 0.70021 0.91539 0.0
H1128 H 0.49673 0.70772 0.93505 0.0
H1129 H 0.53417 0.73933 0.93524 0.0
H1130 H 0.49039 0.79276 0.92545 0.0
H1131 H 0.45268 0.76146 0.92584 0.0
H1132 H 0.46061 0.78956 0.89943 0.0
H1133 H 0.48917 0.70248 0.82548 0.0
H1134 H 0.43577 0.66393 0.83303 0.0
H1135 H 0.4354 0.69764 0.90897 0.0
C1136 C 0.55511 0.78383 0.89121 0.0
C1137 C 0.57866 0.79468 0.87213 0.0
C1138 C 0.57158 0.78259 0.84805 0.0
C1139 C 0.543 0.75852 0.84322 0.0
C1140 C 0.52136 0.74716 0.86256 0.0
C1141 C 0.52633 0.76009 0.88595 0.0
C1142 C 0.49862 0.7438 0.9033 0.0
C1143 C 0.51734 0.72144 0.92343 0.0
C1144 C 0.47412 0.77367 0.91414 0.0
C1145 C 0.47766 0.71941 0.88599 0.0
C1146 C 0.49166 0.72146 0.86268 0.0
C1147 C 0.47761 0.70096 0.84358 0.0
C1148 C 0.44738 0.67887 0.84816 0.0
C1149 C 0.43112 0.67781 0.8716 0.0
C1150 C 0.44711 0.69779 0.89087 0.0
H1151 H 0.44213 0.30157 0.60459 0.0
H1152 H 0.42176 0.31362 0.68209 0.0
H1153 H 0.4625 0.26181 0.69055 0.0
H1154 H 0.44874 0.20101 0.60455 0.0
H1155 H 0.48475 0.20062 0.58225 0.0
H1156 H 0.45157 0.2368 0.58212 0.0
H1157 H 0.50369 0.28405 0.58488 0.0
H1158 H 0.53698 0.24801 0.58559 0.0
H1159 H 0.53576 0.28136 0.60968 0.0
H1160 H 0.50763 0.21178 0.69118 0.0
H1161 H 0.55041 0.16134 0.68368 0.0
H1162 H 0.54354 0.18126 0.60582 0.0
C1163 C 0.44547 0.29259 0.62326 0.0
C1164 C 0.42853 0.31146 0.64269 0.0
C1165 C 0.43432 0.29949 0.66693 0.0
C1166 C 0.45755 0.2702 0.67194 0.0
C1167 C 0.47495 0.25313 0.65252 0.0
C1168 C 0.46892 0.26342 0.62863 0.0
C1169 C 0.49201 0.24084 0.61131 0.0
C1170 C 0.46782 0.21849 0.59404 0.0
C1171 C 0.51869 0.26502 0.59702 0.0
C1172 C 0.51201 0.21648 0.62926 0.0
C1173 C 0.50169 0.22423 0.65291 0.0
C1174 C 0.51586 0.20533 0.67275 0.0
C1175 C 0.54029 0.17684 0.66829 0.0
C1176 C 0.55051 0.16748 0.6442 0.0
C1177 C 0.53674 0.18817 0.62446 0.0
H1178 H 0.04888 0.30918 0.35247 0.0
H1179 H 0.0783 0.30724 0.42917 0.0
H1180 H 0.0243 0.27036 0.43815 0.0
H1181 H 0.94951 0.31401 0.36248 0.0
H1182 H 0.93943 0.285 0.33687 0.0
H1183 H 0.97939 0.31338 0.33643 0.0
H1184 H 0.01915 0.25637 0.32824 0.0
H1185 H 0.9794 0.22772 0.32911 0.0
H1186 H 0.01724 0.21842 0.34907 0.0
H1187 H 0.97118 0.23055 0.43893 0.0
H1188 H 0.91559 0.19506 0.43247 0.0
H1189 H 0.91782 0.22242 0.35538 0.0
C1190 C 0.04346 0.30165 0.3712 0.0
C1191 C 0.06789 0.31101 0.39011 0.0
C1192 C 0.06012 0.30025 0.41436 0.0
C1193 C 0.02955 0.27922 0.41967 0.0
C1194 C 0.00682 0.26928 0.40058 0.0
C1195 C 0.01284 0.28051 0.37689 0.0
C1196 C 0.98395 0.26533 0.35991 0.0
C1197 C 0.96175 0.29628 0.34824 0.0
C1198 C 0.00097 0.24049 0.34043 0.0
C1199 C 0.96117 0.2436 0.37782 0.0
C1200 C 0.97519 0.24627 0.4011 0.0
C1201 C 0.95961 0.22851 0.42085 0.0
C1202 C 0.92805 0.2083 0.41693 0.0
C1203 C 0.91215 0.2061 0.39343 0.0
C1204 C 0.92939 0.22346 0.37351 0.0
H1205 H 0.02274 0.677 0.1046 0.0
H1206 H 0.03668 0.66235 0.18269 0.0
H1207 H 0.00082 0.71746 0.1903 0.0
H1208 H 0.02999 0.77516 0.1053 0.0
H1209 H 0.99602 0.78196 0.08204 0.0
H1210 H 0.02257 0.7407 0.08244 0.0
H1211 H 0.96319 0.70272 0.08346 0.0
H1212 H 0.93646 0.74392 0.08341 0.0
H1213 H 0.93035 0.71074 0.10728 0.0
H1214 H 0.96451 0.77329 0.19019 0.0
H1215 H 0.93265 0.83098 0.18201 0.0
H1216 H 0.94099 0.81108 0.10418 0.0
C1217 C 0.01842 0.68557 0.12326 0.0
C1218 C 0.03242 0.66518 0.14301 0.0
C1219 C 0.0261 0.67728 0.1672 0.0
C1220 C 0.00564 0.70854 0.17178 0.0
C1221 C 0.99163 0.72754 0.15203 0.0
C1222 C -0.0021 0.71692 0.12824 0.0
C1223 C 0.98019 0.74318 0.11048 0.0
C1224 C 0.00891 0.76133 0.09411 0.0
C1225 C 0.9508 0.72398 0.09526 0.0
C1226 C 0.96346 0.77027 0.12811 0.0
C1227 C 0.97025 0.76038 0.15196 0.0
C1228 C 0.95884 0.78139 0.17161 0.0
C1229 C 0.94078 0.81408 0.16677 0.0
C1230 C 0.93431 0.8254 0.14249 0.0
C1231 C 0.94512 0.8028 0.12292 0.0
H1232 H 0.19435 0.25596 0.09111 0.0
H1233 H 0.30427 0.2866 0.07062 0.0
H1234 H 0.2887 0.35129 0.07704 0.0
H1235 H 0.14733 0.33786 0.06562 0.0
H1236 H 0.11585 0.33884 0.0908 0.0
H1237 H 0.1341 0.29601 0.08036 0.0
H1238 H 0.1567 0.28242 0.12418 0.0
H1239 H 0.13955 0.32555 0.13467 0.0
H1240 H 0.18684 0.31418 0.13898 0.0
H1241 H 0.2639 0.41147 0.09208 0.0
H1242 H 0.22919 0.46316 0.10943 0.0
H1243 H 0.13625 0.39202 0.12015 0.0
C1244 C 0.21485 0.27627 0.08709 0.0
C1245 C 0.25053 0.26613 0.08037 0.0
C1246 C 0.27665 0.29366 0.07566 0.0
C1247 C 0.26814 0.3305 0.07937 0.0
C1248 C 0.23332 0.33931 0.08751 0.0
C1249 C 0.20687 0.31301 0.09079 0.0
C1250 C 0.17246 0.32902 0.10141 0.0
C1251 C 0.14055 0.32522 0.08347 0.0
C1252 C 0.16339 0.31177 0.12627 0.0
C1253 C 0.18396 0.36828 0.10417 0.0
C1254 C 0.21909 0.37381 0.09605 0.0
C1255 C 0.23613 0.40761 0.0981 0.0
C1256 C 0.21637 0.43668 0.1082 0.0
C1257 C 0.18 0.43164 0.11605 0.0
C1258 C 0.16388 0.39687 0.1141 0.0
H1259 H 0.34996 0.39052 0.36086 0.0
H1260 H 0.28521 0.48947 0.36143 0.0
H1261 H 0.33846 0.52449 0.34706 0.0
H1262 H 0.43035 0.4316 0.38426 0.0
H1263 H 0.46058 0.40361 0.36641 0.0
H1264 H 0.41655 0.38657 0.37498 0.0
H1265 H 0.40217 0.3743 0.3294 0.0
H1266 H 0.44593 0.39219 0.32071 0.0
H1267 H 0.405 0.41116 0.30777 0.0
H1268 H 0.39868 0.54867 0.33331 0.0
H1269 H 0.46378 0.56241 0.32819 0.0
H1270 H 0.4895 0.44771 0.33766 0.0
C1271 C 0.347 0.41955 0.3579 0.0
C1272 C 0.31355 0.43735 0.36216 0.0
C1273 C 0.31075 0.47541 0.35843 0.0
C1274 C 0.34066 0.49541 0.34997 0.0
C1275 C 0.37311 0.47691 0.34553 0.0
C1276 C 0.37666 0.43997 0.34981 0.0
C1277 C 0.41529 0.42718 0.34565 0.0
C1278 C 0.43165 0.41133 0.36922 0.0
C1279 C 0.41719 0.39957 0.32463 0.0
C1280 C 0.43309 0.46283 0.33871 0.0
C1281 C 0.40814 0.49103 0.33824 0.0
C1282 C 0.41847 0.52682 0.33353 0.0
C1283 C 0.45556 0.5343 0.33052 0.0
C1284 C 0.48185 0.50616 0.33262 0.0
C1285 C 0.47016 0.4698 0.33572 0.0
H1286 H 0.21227 0.70891 0.60011 0.0
H1287 H 0.29822 0.75738 0.55678 0.0
H1288 H 0.33413 0.70071 0.5604 0.0
H1289 H 0.27012 0.66735 0.64202 0.0
H1290 H 0.24328 0.62679 0.64631 0.0
H1291 H 0.22158 0.66874 0.63743 0.0
H1292 H 0.19377 0.63714 0.59952 0.0
H1293 H 0.2149 0.59489 0.60851 0.0
H1294 H 0.22318 0.61335 0.57858 0.0
H1295 H 0.36319 0.64263 0.57222 0.0
H1296 H 0.3829 0.58393 0.58894 0.0
H1297 H 0.27879 0.57205 0.62572 0.0
C1298 C 0.238 0.70698 0.59057 0.0
C1299 C 0.25225 0.73715 0.57768 0.0
C1300 C 0.28669 0.73431 0.56636 0.0
C1301 C 0.30728 0.70233 0.56842 0.0
C1302 C 0.29313 0.6736 0.58204 0.0
C1303 C 0.25918 0.67538 0.59277 0.0
C1304 C 0.25178 0.64168 0.60806 0.0
C1305 C 0.24637 0.65175 0.63505 0.0
C1306 C 0.21896 0.62051 0.59806 0.0
C1307 C 0.28697 0.62078 0.60431 0.0
C1308 C 0.31033 0.63986 0.58925 0.0
C1309 C 0.34499 0.62718 0.58377 0.0
C1310 C 0.35597 0.59377 0.59354 0.0
C1311 C 0.33239 0.57308 0.60866 0.0
C1312 C 0.29743 0.58702 0.61419 0.0
H1313 H 0.02999 0.48386 0.85018 0.0
H1314 H 0.9609 0.57926 0.85538 0.0
H1315 H 0.01531 0.61874 0.8569 0.0
H1316 H 0.091 0.51195 0.89363 0.0
H1317 H 0.13121 0.4935 0.87942 0.0
H1318 H 0.08759 0.47307 0.87369 0.0
H1319 H 0.09612 0.4819 0.82719 0.0
H1320 H 0.14022 0.50168 0.83271 0.0
H1321 H 0.10667 0.52651 0.8154 0.0
H1322 H 0.07665 0.64702 0.86194 0.0
H1323 H 0.14101 0.66237 0.86994 0.0
H1324 H 0.16964 0.54785 0.86467 0.0
C1325 C 0.02648 0.51316 0.85058 0.0
C1326 C 0.99154 0.5288 0.85208 0.0
C1327 C 0.98765 0.56705 0.85379 0.0
C1328 C 0.01832 0.58959 0.8547 0.0
C1329 C 0.05254 0.57329 0.85419 0.0
C1330 C 0.05684 0.53595 0.85208 0.0
C1331 C 0.09635 0.525 0.85476 0.0
C1332 C 0.10183 0.49938 0.87668 0.0
C1333 C 0.11068 0.50777 0.8311 0.0
C1334 C 0.11341 0.56186 0.85927 0.0
C1335 C 0.0878 0.58941 0.85846 0.0
C1336 C 0.09703 0.62573 0.86244 0.0
C1337 C 0.13355 0.63415 0.86709 0.0
C1338 C 0.16017 0.60627 0.86812 0.0
C1339 C 0.14981 0.5697 0.86426 0.0
H1340 H 0.79069 0.72733 0.9235 0.0
H1341 H 0.6745 0.7064 0.92106 0.0
H1342 H 0.68681 0.64217 0.91043 0.0
H1343 H 0.8119 0.6784 0.8723 0.0
H1344 H 0.85488 0.66122 0.88321 0.0
H1345 H 0.83743 0.70369 0.89466 0.0
H1346 H 0.84105 0.67959 0.93906 0.0
H1347 H 0.85959 0.63738 0.92782 0.0
H1348 H 0.8195 0.637 0.94673 0.0
H1349 H 0.71239 0.58202 0.89435 0.0
H1350 H 0.74933 0.52956 0.88006 0.0
H1351 H 0.84767 0.59225 0.89229 0.0
C1352 C 0.76774 0.70907 0.92161 0.0
C1353 C 0.73163 0.72202 0.92315 0.0
C1354 C 0.70245 0.69713 0.92016 0.0
C1355 C 0.70916 0.66062 0.91391 0.0
C1356 C 0.74514 0.64945 0.91092 0.0
C1357 C 0.77391 0.67284 0.91518 0.0
C1358 C 0.80996 0.65524 0.90918 0.0
C1359 C 0.82967 0.67587 0.88862 0.0
C1360 C 0.83393 0.6521 0.93206 0.0
C1361 C 0.79705 0.61838 0.90065 0.0
C1362 C 0.75963 0.61537 0.90166 0.0
C1363 C 0.74175 0.58395 0.89379 0.0
C1364 C 0.76287 0.55448 0.88545 0.0
C1365 C 0.80133 0.55682 0.88514 0.0
C1366 C 0.81833 0.58948 0.89248 0.0
H1367 H 0.63847 0.59752 0.63489 0.0
H1368 H 0.70195 0.49871 0.6436 0.0
H1369 H 0.64641 0.46533 0.65586 0.0
H1370 H 0.57341 0.58238 0.684 0.0
H1371 H 0.5355 0.59981 0.6667 0.0
H1372 H 0.5807 0.61692 0.66116 0.0
H1373 H 0.57526 0.59998 0.61539 0.0
H1374 H 0.52989 0.58356 0.62075 0.0
H1375 H 0.56334 0.55401 0.60705 0.0
H1376 H 0.58416 0.44284 0.66655 0.0
H1377 H 0.51829 0.42961 0.66706 0.0
H1378 H 0.49533 0.54222 0.64852 0.0
C1379 C 0.64057 0.56891 0.63953 0.0
C1380 C 0.67418 0.55054 0.63848 0.0
C1381 C 0.67616 0.51302 0.64421 0.0
C1382 C 0.64495 0.49404 0.65149 0.0
C1383 C 0.61215 0.51303 0.65261 0.0
C1384 C 0.60962 0.54941 0.64627 0.0
C1385 C 0.57062 0.56245 0.64636 0.0
C1386 C 0.56473 0.59215 0.66571 0.0
C1387 C 0.55911 0.57576 0.62088 0.0
C1388 C 0.55152 0.52752 0.6533 0.0
C1389 C 0.576 0.49962 0.65754 0.0
C1390 C 0.56469 0.46448 0.66339 0.0
C1391 C 0.52727 0.45729 0.66382 0.0
C1392 C 0.50196 0.48497 0.65785 0.0
C1393 C 0.51423 0.5207 0.6533 0.0
H1394 H 0.68154 0.25332 0.40333 0.0
H1395 H 0.78617 0.28387 0.43392 0.0
H1396 H 0.77438 0.34794 0.42299 0.0
H1397 H 0.68614 0.30757 0.35288 0.0
H1398 H 0.6389 0.32075 0.35206 0.0
H1399 H 0.65188 0.27806 0.36564 0.0
H1400 H 0.62093 0.29558 0.40634 0.0
H1401 H 0.60627 0.33776 0.39269 0.0
H1402 H 0.63204 0.33837 0.42063 0.0
H1403 H 0.75542 0.40658 0.4034 0.0
H1404 H 0.72506 0.45864 0.38352 0.0
H1405 H 0.63296 0.38946 0.36578 0.0
C1406 C 0.7014 0.27359 0.40864 0.0
C1407 C 0.73482 0.26352 0.41946 0.0
C1408 C 0.76032 0.29093 0.42568 0.0
C1409 C 0.75401 0.32737 0.41938 0.0
C1410 C 0.72195 0.33591 0.40714 0.0
C1411 C 0.69561 0.31002 0.40243 0.0
C1412 C 0.6643 0.32595 0.38802 0.0
C1413 C 0.66009 0.30694 0.36318 0.0
C1414 C 0.62879 0.32434 0.40281 0.0
C1415 C 0.67748 0.36468 0.38501 0.0
C1416 C 0.71087 0.36981 0.39602 0.0
C1417 C 0.729 0.40306 0.39501 0.0
C1418 C 0.71172 0.43235 0.38339 0.0
C1419 C 0.67658 0.42815 0.37313 0.0
C1420 C 0.65978 0.39357 0.37348 0.0
H1421 H 0.8262 0.46347 0.15191 0.0
H1422 H 0.84623 0.34925 0.16776 0.0
H1423 H 0.90657 0.36481 0.18409 0.0
H1424 H 0.9118 0.48322 0.13044 0.0
H1425 H 0.91419 0.52837 0.14325 0.0
H1426 H 0.87073 0.5087 0.13626 0.0
H1427 H 0.85025 0.51934 0.18097 0.0
H1428 H 0.8941 0.53856 0.18812 0.0
H1429 H 0.87691 0.50069 0.20557 0.0
H1430 H 0.96753 0.39065 0.19218 0.0
H1431 H 0.02511 0.42518 0.19021 0.0
H1432 H 0.96498 0.52308 0.17193 0.0
C1433 C 0.84304 0.44181 0.15917 0.0
C1434 C 0.83147 0.40518 0.15851 0.0
C1435 C 0.85442 0.37757 0.16808 0.0
C1436 C 0.88868 0.38614 0.17759 0.0
C1437 C 0.8994 0.42248 0.17779 0.0
C1438 C 0.87722 0.44992 0.16894 0.0
C1439 C 0.89657 0.48626 0.16909 0.0
C1440 C 0.89845 0.50255 0.14323 0.0
C1441 C 0.87836 0.51278 0.18701 0.0
C1442 C 0.9337 0.47458 0.17814 0.0
C1443 C 0.93461 0.43776 0.18345 0.0
C1444 C 0.96703 0.41971 0.18882 0.0
C1445 C -0.00043 0.43947 0.18771 0.0
C1446 C -0.00076 0.47684 0.18145 0.0
C1447 C 0.96579 0.49486 0.17769 0.0
H1448 H 0.77472 0.77305 0.61705 0.0
H1449 H 0.68299 0.70968 0.59149 0.0
H1450 H 0.64559 0.76556 0.58924 0.0
H1451 H 0.72441 0.82755 0.65639 0.0
H1452 H 0.74966 0.86899 0.65152 0.0
H1453 H 0.77151 0.82554 0.64728 0.0
H1454 H 0.78927 0.84333 0.60318 0.0
H1455 H 0.76801 0.88716 0.60741 0.0
H1456 H 0.75451 0.85851 0.58232 0.0
H1457 H 0.6167 0.82616 0.59346 0.0
H1458 H 0.5977 0.88883 0.6029 0.0
H1459 H 0.70715 0.91362 0.6278 0.0
C1460 C 0.7472 0.77139 0.61008 0.0
C1461 C 0.73179 0.73747 0.60378 0.0
C1462 C 0.69526 0.7357 0.59586 0.0
C1463 C 0.67387 0.76721 0.59461 0.0
C1464 C 0.68937 0.80016 0.60167 0.0
C1465 C 0.72522 0.80263 0.60916 0.0
C1466 C 0.73397 0.84084 0.61793 0.0
C1467 C 0.74556 0.84069 0.64488 0.0
C1468 C 0.76317 0.8585 0.60174 0.0
C1469 C 0.6973 0.85918 0.61459 0.0
C1470 C 0.67216 0.83522 0.60496 0.0
C1471 C 0.6362 0.84531 0.60078 0.0
C1472 C 0.62566 0.88101 0.60631 0.0
C1473 C 0.65089 0.90626 0.61611 0.0
C1474 C 0.68718 0.89501 0.62038 0.0
H1475 H 0.82984 0.95169 0.88852 0.0
H1476 H 0.85365 0.83989 0.86765 0.0
H1477 H 0.9118 0.85928 0.85026 0.0
H1478 H 0.87084 0.99577 0.83657 0.0
H1479 H 0.89054 0.03266 0.85375 0.0
H1480 H 0.84953 0.01095 0.86436 0.0
H1481 H 0.88026 0.99667 0.90585 0.0
H1482 H 0.92102 0.019 0.89547 0.0
H1483 H 0.92309 0.97268 0.90628 0.0
H1484 H 0.96665 0.88928 0.83465 0.0
H1485 H 0.0202 0.92778 0.82681 0.0
H1486 H 0.96394 0.02053 0.85836 0.0
C1487 C 0.8474 0.93134 0.8804 0.0
C1488 C 0.8369 0.89425 0.87946 0.0
C1489 C 0.86088 0.86844 0.86878 0.0
C1490 C 0.89397 0.87918 0.8586 0.0
C1491 C 0.90319 0.91583 0.85938 0.0
C1492 C 0.88115 0.94152 0.8704 0.0
C1493 C 0.89909 0.97879 0.86988 0.0
C1494 C 0.87612 0.00616 0.85527 0.0
C1495 C 0.90629 0.99258 0.89592 0.0
C1496 C 0.9344 0.96982 0.85676 0.0
C1497 C 0.93582 0.93335 0.85067 0.0
C1498 C 0.96594 0.91793 0.83926 0.0
C1499 C -0.00384 0.94005 0.83479 0.0
C1500 C -0.00386 0.97716 0.84178 0.0
C1501 C 0.96443 0.99246 0.85231 0.0
H1502 H 0.86252 0.11307 0.11786 0.0
H1503 H 0.76641 0.04573 0.10943 0.0
H1504 H 0.73102 0.09976 0.09674 0.0
H1505 H 0.81715 0.18612 0.14519 0.0
H1506 H 0.84485 0.22083 0.13123 0.0
H1507 H 0.8633 0.1761 0.13628 0.0
H1508 H 0.87918 0.17144 0.0903 0.0
H1509 H 0.86012 0.21605 0.08509 0.0
H1510 H 0.84382 0.17756 0.0679 0.0
H1511 H 0.70533 0.16146 0.0872 0.0
H1512 H 0.68919 0.22694 0.08812 0.0
H1513 H 0.80134 0.25375 0.10467 0.0
C1514 C 0.83415 0.10969 0.11304 0.0
C1515 C 0.81717 0.07537 0.1145 0.0
C1516 C 0.77983 0.07196 0.10853 0.0
C1517 C 0.75965 0.10235 0.10101 0.0
C1518 C 0.7772 0.1359 0.0997 0.0
C1519 C 0.81348 0.13981 0.10591 0.0
C1520 C 0.82481 0.17936 0.10577 0.0
C1521 C 0.83829 0.19129 0.13112 0.0
C1522 C 0.85369 0.18651 0.08609 0.0
C1523 C 0.78898 0.19714 0.09927 0.0
C1524 C 0.76208 0.17162 0.09511 0.0
C1525 C 0.72623 0.18173 0.09016 0.0
C1526 C 0.71733 0.21892 0.09055 0.0
C1527 C 0.74411 0.24512 0.09639 0.0
C1528 C 0.7805 0.23413 0.09994 0.0
H1529 H 0.50351 0.04936 0.34513 0.0
H1530 H 0.53479 0.93752 0.32989 0.0
H1531 H 0.59803 0.95182 0.34177 0.0
H1532 H 0.58897 0.09333 0.32601 0.0
H1533 H 0.58629 0.12603 0.35045 0.0
H1534 H 0.54524 0.10775 0.33739 0.0
H1535 H 0.52459 0.08729 0.38048 0.0
H1536 H 0.56602 0.10446 0.39359 0.0
H1537 H 0.55347 0.05748 0.39805 0.0
H1538 H 0.65638 0.97704 0.35965 0.0
H1539 H 0.70668 0.01307 0.3773 0.0
H1540 H 0.6352 0.10715 0.38196 0.0
C1541 C 0.52379 0.02807 0.34343 0.0
C1542 C 0.51417 0.99234 0.33644 0.0
C1543 C 0.54156 0.96518 0.33503 0.0
C1544 C 0.5775 0.97297 0.3419 0.0
C1545 C 0.58549 0.00799 0.35009 0.0
C1546 C 0.55949 0.03522 0.35049 0.0
C1547 C 0.57421 0.06995 0.36146 0.0
C1548 C 0.57366 0.1011 0.3427 0.0
C1549 C 0.55333 0.08038 0.38477 0.0
C1550 C 0.61258 0.05804 0.36725 0.0
C1551 C 0.61864 0.02223 0.36066 0.0
C1552 C 0.65203 0.00522 0.36468 0.0
C1553 C 0.68032 0.02581 0.37493 0.0
C1554 C 0.67493 0.06297 0.381 0.0
C1555 C 0.64031 0.07885 0.37751 0.0
H1556 H 0.30266 0.25132 0.37618 0.0
H1557 H 0.20288 0.22295 0.41417 0.0
H1558 H 0.21842 0.15786 0.41047 0.0
H1559 H 0.29939 0.18235 0.33329 0.0
H1560 H 0.34759 0.1733 0.33276 0.0
H1561 H 0.33123 0.21797 0.34072 0.0
H1562 H 0.36606 0.21535 0.38178 0.0
H1563 H 0.38334 0.17102 0.37369 0.0
H1564 H 0.35913 0.17721 0.40196 0.0
H1565 H 0.24053 0.09638 0.39796 0.0
H1566 H 0.273 0.04179 0.38331 0.0
H1567 H 0.3591 0.11036 0.35449 0.0
C1568 C 0.28449 0.23152 0.38429 0.0
C1569 C 0.2515 0.24222 0.39539 0.0
C1570 C 0.22838 0.21542 0.40566 0.0
C1571 C 0.23685 0.17837 0.40352 0.0
C1572 C 0.26868 0.16875 0.39138 0.0
C1573 C 0.29257 0.19451 0.38243 0.0
C1574 C 0.32437 0.17695 0.36946 0.0
C1575 C 0.32569 0.18833 0.34246 0.0
C1576 C 0.36035 0.18564 0.38251 0.0
C1577 C 0.31428 0.13727 0.37217 0.0
C1578 C 0.28191 0.13316 0.38469 0.0
C1579 C 0.26618 0.09916 0.38846 0.0
C1580 C 0.28463 0.0684 0.37984 0.0
C1581 C 0.31857 0.07195 0.36784 0.0
C1582 C 0.3333 0.10688 0.36375 0.0
H1583 H 0.00542 0.05824 0.13201 0.0
H1584 H 0.0316 0.95347 0.16441 0.0
H1585 H 0.09706 0.96627 0.159 0.0
H1586 H 0.07135 0.0561 0.08652 0.0
H1587 H 0.0821 0.10395 0.08787 0.0
H1588 H 0.03747 0.0884 0.09643 0.0
H1589 H 0.04398 0.11892 0.13882 0.0
H1590 H 0.08831 0.13535 0.1302 0.0
H1591 H 0.08302 0.10851 0.15748 0.0
H1592 H 0.15946 0.988 0.14597 0.0
H1593 H 0.21425 0.02083 0.13171 0.0
H1594 H 0.14634 0.11122 0.10845 0.0
C1595 C 0.02485 0.03828 0.13851 0.0
C1596 C 0.01332 0.00485 0.14863 0.0
C1597 C 0.03974 0.97941 0.15676 0.0
C1598 C 0.07699 0.9863 0.15359 0.0
C1599 C 0.0873 0.01886 0.14251 0.0
C1600 C 0.062 0.04473 0.13556 0.0
C1601 C 0.07993 0.07712 0.12352 0.0
C1602 C 0.06693 0.08163 0.09702 0.0
C1603 C 0.07343 0.11203 0.1384 0.0
C1604 C 0.11929 0.06531 0.12456 0.0
C1605 C 0.12305 0.03153 0.1354 0.0
C1606 C 0.15688 0.01465 0.13769 0.0
C1607 C 0.18778 0.03333 0.12934 0.0
C1608 C 0.18453 0.06858 0.11904 0.0
C1609 C 0.14972 0.08439 0.11637 0.0
H1610 H 0.21329 0.91821 0.84342 0.0
H1611 H 0.17372 0.93783 0.91658 0.0
H1612 H 0.21078 0.88657 0.93196 0.0
H1613 H 0.20419 0.82571 0.84621 0.0
H1614 H 0.2437 0.81472 0.82818 0.0
H1615 H 0.22119 0.85769 0.82403 0.0
H1616 H 0.28197 0.89128 0.83244 0.0
H1617 H 0.30458 0.84816 0.83685 0.0
H1618 H 0.30636 0.88244 0.86033 0.0
H1619 H 0.24543 0.82918 0.93861 0.0
H1620 H 0.26836 0.76583 0.93488 0.0
H1621 H 0.28193 0.7814 0.85718 0.0
C1622 C 0.21342 0.91218 0.86274 0.0
C1623 C 0.19119 0.9318 0.87894 0.0
C1624 C 0.19082 0.92284 0.904 0.0
C1625 C 0.21204 0.89412 0.91292 0.0
C1626 C 0.23321 0.87454 0.89645 0.0
C1627 C 0.23381 0.88297 0.87183 0.0
C1628 C 0.25395 0.85423 0.85743 0.0
C1629 C 0.22928 0.83707 0.83784 0.0
C1630 C 0.28879 0.86998 0.8461 0.0
C1631 C 0.26281 0.82753 0.87759 0.0
C1632 C 0.25189 0.84031 0.90011 0.0
C1633 C 0.25472 0.81907 0.92117 0.0
C1634 C 0.26781 0.78328 0.91896 0.0
C1635 C 0.27686 0.76927 0.89581 0.0
C1636 C 0.27544 0.79196 0.8751 0.0
H1637 H 0.32888 0.9424 0.59045 0.0
H1638 H 0.29972 0.90855 0.66347 0.0
H1639 H 0.35425 0.93947 0.67991 0.0
H1640 H 0.42043 0.92344 0.59645 0.0
H1641 H 0.43647 0.96108 0.57829 0.0
H1642 H 0.39199 0.94248 0.57287 0.0
H1643 H 0.36325 0.00633 0.57917 0.0
H1644 H 0.40782 0.02515 0.58451 0.0
H1645 H 0.37235 0.03113 0.60685 0.0
H1646 H 0.4144 0.96944 0.68788 0.0
H1647 H 0.47819 0.99158 0.68609 0.0
H1648 H 0.4692 0.00164 0.60759 0.0
C1649 C 0.33368 0.94251 0.60993 0.0
C1650 C 0.31036 0.92384 0.62588 0.0
C1651 C 0.31755 0.92321 0.65117 0.0
C1652 C 0.3482 0.9408 0.66064 0.0
C1653 C 0.37133 0.95852 0.64444 0.0
C1654 C 0.36455 0.95933 0.61959 0.0
C1655 C 0.39586 0.97617 0.60581 0.0
C1656 C 0.41214 0.94917 0.58728 0.0
C1657 C 0.3841 0.01182 0.59336 0.0
C1658 C 0.42171 0.9834 0.62666 0.0
C1659 C 0.40679 0.97403 0.64888 0.0
C1660 C 0.42633 0.97718 0.67061 0.0
C1661 C 0.46238 0.98968 0.66948 0.0
C1662 C 0.47835 -0.0022 0.64672 0.0
C1663 C 0.45754 0.99524 0.62521 0.0
loop_
_geom_bond_atom_site_label_1
_geom_bond_atom_site_label_2
_geom_bond_distance
_geom_bond_site_symmetry_2
_ccdc_geom_bond_type
O0 Zn1 1.953 . S
O0 C16 1.225 . S
Zn1 O0 1.953 . S
Zn1 O2 1.949 . S
Zn1 O8 1.919 . S
Zn1 O13 1.924 . S
O2 Zn1 1.949 . S
O2 Zn3 1.923 . S
O2 Zn4 1.950 . S
O2 Zn5 1.945 . S
Zn3 O2 1.923 . S
Zn3 O6 1.933 . S
Zn3 O9 1.941 . S
Zn3 O10 1.965 . S
Zn4 O2 1.950 . S
Zn4 O11 1.938 . S
Zn4 O12 1.906 . S
Zn4 O22 1.953 . S
Zn5 O2 1.945 . S
Zn5 O7 1.932 . S
Zn5 O14 1.977 . S
Zn5 O15 1.910 . S
O6 Zn3 1.933 . S
O6 C17 1.226 . S
O7 Zn5 1.932 . S
O7 C17 1.307 . S
O8 Zn1 1.919 . S
O8 C19 1.253 . S
O9 Zn3 1.941 . S
O9 C19 1.283 . S
O10 Zn3 1.965 . S
O10 C18 1.303 . S
O11 Zn4 1.938 . S
O11 C18 1.247 . S
O12 Zn4 1.906 . S
O12 C20 1.304 . S
O13 Zn1 1.924 . S
O13 C21 1.311 . S
O14 Zn5 1.977 . S
O14 C20 1.272 . S
O15 Zn5 1.910 . S
O15 C21 1.231 . S
C16 O0 1.225 . S
C16 O22 1.298 . S
C17 O6 1.226 . S
C17 O7 1.307 . S
C18 O10 1.303 . S
C18 O11 1.247 . S
C19 O8 1.253 . S
C19 O9 1.283 . S
C20 O12 1.304 . S
C20 O14 1.272 . S
C21 O13 1.311 . S
C21 O15 1.231 . S
O22 Zn4 1.953 . S
O22 C16 1.298 . S
O23 Zn24 1.953 . S
O23 C39 1.225 . S
Zn24 O23 1.953 . S
Zn24 O25 1.949 . S
Zn24 O31 1.919 . S
Zn24 O36 1.924 . S
O25 Zn24 1.949 . S
O25 Zn26 1.923 . S
O25 Zn27 1.950 . S
O25 Zn28 1.945 . S
Zn26 O25 1.923 . S
Zn26 O29 1.933 . S
Zn26 O32 1.941 . S
Zn26 O33 1.965 . S
Zn27 O25 1.950 . S
Zn27 O34 1.938 . S
Zn27 O35 1.906 . S
Zn27 O45 1.953 . S
Zn28 O25 1.945 . S
Zn28 O30 1.932 . S
Zn28 O37 1.977 . S
Zn28 O38 1.910 . S
O29 Zn26 1.933 . S
O29 C40 1.226 . S
O30 Zn28 1.932 . S
O30 C40 1.307 . S
O31 Zn24 1.919 . S
O31 C42 1.253 . S
O32 Zn26 1.941 . S
O32 C42 1.283 . S
O33 Zn26 1.965 . S
O33 C41 1.303 . S
O34 Zn27 1.938 . S
O34 C41 1.247 . S
O35 Zn27 1.906 . S
O35 C43 1.304 . S
O36 Zn24 1.924 . S
O36 C44 1.311 . S
O37 Zn28 1.977 . S
O37 C43 1.272 . S
O38 Zn28 1.910 . S
O38 C44 1.231 . S
C39 O23 1.225 . S
C39 O45 1.298 . S
C40 O29 1.226 . S
C40 O30 1.307 . S
C41 O33 1.303 . S
C41 O34 1.247 . S
C42 O31 1.253 . S
C42 O32 1.283 . S
C43 O35 1.304 . S
C43 O37 1.272 . S
C44 O36 1.311 . S
C44 O38 1.231 . S
O45 Zn27 1.953 . S
O45 C39 1.298 . S
O46 Zn47 1.953 . S
O46 C62 1.225 . S
Zn47 O46 1.953 . S
Zn47 O48 1.949 . S
Zn47 O54 1.919 . S
Zn47 O59 1.924 . S
O48 Zn47 1.949 . S
O48 Zn49 1.923 . S
O48 Zn50 1.950 . S
O48 Zn51 1.945 . S
Zn49 O48 1.923 . S
Zn49 O52 1.933 . S
Zn49 O55 1.941 . S
Zn49 O56 1.965 . S
Zn50 O48 1.950 . S
Zn50 O57 1.938 . S
Zn50 O58 1.906 . S
Zn50 O68 1.953 . S
Zn51 O48 1.945 . S
Zn51 O53 1.932 . S
Zn51 O60 1.977 . S
Zn51 O61 1.910 . S
O52 Zn49 1.933 . S
O52 C63 1.226 . S
O53 Zn51 1.932 . S
O53 C63 1.307 . S
O54 Zn47 1.919 . S
O54 C65 1.253 . S
O55 Zn49 1.941 . S
O55 C65 1.283 . S
O56 Zn49 1.965 . S
O56 C64 1.303 . S
O57 Zn50 1.938 . S
O57 C64 1.247 . S
O58 Zn50 1.906 . S
O58 C66 1.304 . S
O59 Zn47 1.924 . S
O59 C67 1.311 . S
O60 Zn51 1.977 . S
O60 C66 1.272 . S
O61 Zn51 1.910 . S
O61 C67 1.231 . S
C62 O46 1.225 . S
C62 O68 1.298 . S
C63 O52 1.226 . S
C63 O53 1.307 . S
C64 O56 1.303 . S
C64 O57 1.247 . S
C65 O54 1.253 . S
C65 O55 1.283 . S
C66 O58 1.304 . S
C66 O60 1.272 . S
C67 O59 1.311 . S
C67 O61 1.231 . S
O68 Zn50 1.953 . S
O68 C62 1.298 . S
O69 Zn70 1.953 . S
O69 C85 1.225 . S
Zn70 O69 1.953 . S
Zn70 O71 1.949 . S
Zn70 O77 1.919 . S
Zn70 O82 1.924 . S
O71 Zn70 1.949 . S
O71 Zn72 1.923 . S
O71 Zn73 1.950 . S
O71 Zn74 1.945 . S
Zn72 O71 1.923 . S
Zn72 O75 1.933 . S
Zn72 O78 1.941 . S
Zn72 O79 1.965 . S
Zn73 O71 1.950 . S
Zn73 O80 1.938 . S
Zn73 O81 1.906 . S
Zn73 O91 1.953 . S
Zn74 O71 1.945 . S
Zn74 O76 1.932 . S
Zn74 O83 1.977 . S
Zn74 O84 1.910 . S
O75 Zn72 1.933 . S
O75 C86 1.226 . S
O76 Zn74 1.932 . S
O76 C86 1.307 . S
O77 Zn70 1.919 . S
O77 C88 1.253 . S
O78 Zn72 1.941 . S
O78 C88 1.283 . S
O79 Zn72 1.965 . S
O79 C87 1.303 . S
O80 Zn73 1.938 . S
O80 C87 1.247 . S
O81 Zn73 1.906 . S
O81 C89 1.304 . S
O82 Zn70 1.924 . S
O82 C90 1.311 . S
O83 Zn74 1.977 . S
O83 C89 1.272 . S
O84 Zn74 1.910 . S
O84 C90 1.231 . S
C85 O69 1.225 . S
C85 O91 1.298 . S
C86 O75 1.226 . S
C86 O76 1.307 . S
C87 O79 1.303 . S
C87 O80 1.247 . S
C88 O77 1.253 . S
C88 O78 1.283 . S
C89 O81 1.304 . S
C89 O83 1.272 . S
C90 O82 1.311 . S
C90 O84 1.231 . S
O91 Zn73 1.953 . S
O91 C85 1.298 . S
O92 Zn93 1.953 . S
O92 C108 1.225 . S
Zn93 O92 1.953 . S
Zn93 O94 1.949 . S
Zn93 O100 1.919 . S
Zn93 O105 1.924 . S
O94 Zn93 1.949 . S
O94 Zn95 1.923 . S
O94 Zn96 1.950 . S
O94 Zn97 1.945 . S
Zn95 O94 1.923 . S
Zn95 O98 1.933 . S
Zn95 O101 1.941 . S
Zn95 O102 1.965 . S
Zn96 O94 1.950 . S
Zn96 O103 1.938 . S
Zn96 O104 1.906 . S
Zn96 O114 1.953 . S
Zn97 O94 1.945 . S
Zn97 O99 1.932 . S
Zn97 O106 1.977 . S
Zn97 O107 1.910 . S
O98 Zn95 1.933 . S
O98 C109 1.226 . S
O99 Zn97 1.932 . S
O99 C109 1.307 . S
O100 Zn93 1.919 . S
O100 C111 1.253 . S
O101 Zn95 1.941 . S
O101 C111 1.283 . S
O102 Zn95 1.965 . S
O102 C110 1.303 . S
O103 Zn96 1.938 . S
O103 C110 1.247 . S
O104 Zn96 1.906 . S
O104 C112 1.304 . S
O105 Zn93 1.924 . S
O105 C113 1.311 . S
O106 Zn97 1.977 . S
O106 C112 1.272 . S
O107 Zn97 1.910 . S
O107 C113 1.231 . S
C108 O92 1.225 . S
C108 O114 1.298 . S
C109 O98 1.226 . S
C109 O99 1.307 . S
C110 O102 1.303 . S
C110 O103 1.247 . S
C111 O100 1.253 . S
C111 O101 1.283 . S
C112 O104 1.304 . S
C112 O106 1.272 . S
C113 O105 1.311 . S
C113 O107 1.231 . S
O114 Zn96 1.953 . S
O114 C108 1.298 . S
O115 Zn116 1.953 . S
O115 C131 1.225 . S
Zn116 O115 1.953 . S
Zn116 O117 1.949 . S
Zn116 O123 1.919 . S
Zn116 O128 1.924 . S
O117 Zn116 1.949 . S
O117 Zn118 1.923 . S
O117 Zn119 1.950 . S
O117 Zn120 1.945 . S
Zn118 O117 1.923 . S
Zn118 O121 1.933 . S
Zn118 O124 1.941 . S
Zn118 O125 1.965 . S
Zn119 O117 1.950 . S
Zn119 O126 1.938 . S
Zn119 O127 1.906 . S
Zn119 O137 1.953 . S
Zn120 O117 1.945 . S
Zn120 O122 1.932 . S
Zn120 O129 1.977 . S
Zn120 O130 1.910 . S
O121 Zn118 1.933 . S
O121 C132 1.226 . S
O122 Zn120 1.932 . S
O122 C132 1.307 . S
O123 Zn116 1.919 . S
O123 C134 1.253 . S
O124 Zn118 1.941 . S
O124 C134 1.283 . S
O125 Zn118 1.965 . S
O125 C133 1.303 . S
O126 Zn119 1.938 . S
O126 C133 1.247 . S
O127 Zn119 1.906 . S
O127 C135 1.304 . S
O128 Zn116 1.924 . S
O128 C136 1.311 . S
O129 Zn120 1.977 . S
O129 C135 1.272 . S
O130 Zn120 1.910 . S
O130 C136 1.231 . S
C131 O115 1.225 . S
C131 O137 1.298 . S
C132 O121 1.226 . S
C132 O122 1.307 . S
C133 O125 1.303 . S
C133 O126 1.247 . S
C134 O123 1.253 . S
C134 O124 1.283 . S
C135 O127 1.304 . S
C135 O129 1.272 . S
C136 O128 1.311 . S
C136 O130 1.231 . S
O137 Zn119 1.953 . S
O137 C131 1.298 . S
O138 Zn139 1.953 . S
O138 C154 1.225 . S
Zn139 O138 1.953 . S
Zn139 O140 1.949 . S
Zn139 O146 1.919 . S
Zn139 O151 1.924 . S
O140 Zn139 1.949 . S
O140 Zn141 1.923 . S
O140 Zn142 1.950 . S
O140 Zn143 1.945 . S
Zn141 O140 1.923 . S
Zn141 O144 1.933 . S
Zn141 O147 1.941 . S
Zn141 O148 1.965 . S
Zn142 O140 1.950 . S
Zn142 O149 1.938 . S
Zn142 O150 1.906 . S
Zn142 O160 1.953 . S
Zn143 O140 1.945 . S
Zn143 O145 1.932 . S
Zn143 O152 1.977 . S
Zn143 O153 1.910 . S
O144 Zn141 1.933 . S
O144 C155 1.226 . S
O145 Zn143 1.932 . S
O145 C155 1.307 . S
O146 Zn139 1.919 . S
O146 C157 1.253 . S
O147 Zn141 1.941 . S
O147 C157 1.283 . S
O148 Zn141 1.965 . S
O148 C156 1.303 . S
O149 Zn142 1.938 . S
O149 C156 1.247 . S
O150 Zn142 1.906 . S
O150 C158 1.304 . S
O151 Zn139 1.924 . S
O151 C159 1.311 . S
O152 Zn143 1.977 . S
O152 C158 1.272 . S
O153 Zn143 1.910 . S
O153 C159 1.231 . S
C154 O138 1.225 . S
C154 O160 1.298 . S
C155 O144 1.226 . S
C155 O145 1.307 . S
C156 O148 1.303 . S
C156 O149 1.247 . S
C157 O146 1.253 . S
C157 O147 1.283 . S
C158 O150 1.304 . S
C158 O152 1.272 . S
C159 O151 1.311 . S
C159 O153 1.231 . S
O160 Zn142 1.953 . S
O160 C154 1.298 . S
O161 Zn162 1.953 . S
O161 C177 1.225 . S
Zn162 O161 1.953 . S
Zn162 O163 1.949 . S
Zn162 O169 1.919 . S
Zn162 O174 1.924 . S
O163 Zn162 1.949 . S
O163 Zn164 1.923 . S
O163 Zn165 1.950 . S
O163 Zn166 1.945 . S
Zn164 O163 1.923 . S
Zn164 O167 1.933 . S
Zn164 O170 1.941 . S
Zn164 O171 1.965 . S
Zn165 O163 1.950 . S
Zn165 O172 1.938 . S
Zn165 O173 1.906 . S
Zn165 O183 1.953 . S
Zn166 O163 1.945 . S
Zn166 O168 1.932 . S
Zn166 O175 1.977 . S
Zn166 O176 1.910 . S
O167 Zn164 1.933 . S
O167 C178 1.226 . S
O168 Zn166 1.932 . S
O168 C178 1.307 . S
O169 Zn162 1.919 . S
O169 C180 1.253 . S
O170 Zn164 1.941 . S
O170 C180 1.283 . S
O171 Zn164 1.965 . S
O171 C179 1.303 . S
O172 Zn165 1.938 . S
O172 C179 1.247 . S
O173 Zn165 1.906 . S
O173 C181 1.304 . S
O174 Zn162 1.924 . S
O174 C182 1.311 . S
O175 Zn166 1.977 . S
O175 C181 1.272 . S
O176 Zn166 1.910 . S
O176 C182 1.231 . S
C177 O161 1.225 . S
C177 O183 1.298 . S
C178 O167 1.226 . S
C178 O168 1.307 . S
C179 O171 1.303 . S
C179 O172 1.247 . S
C180 O169 1.253 . S
C180 O170 1.283 . S
C181 O173 1.304 . S
C181 O175 1.272 . S
C182 O174 1.311 . S
C182 O176 1.231 . S
O183 Zn165 1.953 . S
O183 C177 1.298 . S
O184 Zn185 1.953 . S
O184 C200 1.225 . S
Zn185 O184 1.953 . S
Zn185 O186 1.949 . S
Zn185 O192 1.919 . S
Zn185 O197 1.924 . S
O186 Zn185 1.949 . S
O186 Zn187 1.923 . S
O186 Zn188 1.950 . S
O186 Zn189 1.945 . S
Zn187 O186 1.923 . S
Zn187 O190 1.933 . S
Zn187 O193 1.941 . S
Zn187 O194 1.965 . S
Zn188 O186 1.950 . S
Zn188 O195 1.938 . S
Zn188 O196 1.906 . S
Zn188 O206 1.953 . S
Zn189 O186 1.945 . S
Zn189 O191 1.932 . S
Zn189 O198 1.977 . S
Zn189 O199 1.910 . S
O190 Zn187 1.933 . S
O190 C201 1.226 . S
O191 Zn189 1.932 . S
O191 C201 1.307 . S
O192 Zn185 1.919 . S
O192 C203 1.253 . S
O193 Zn187 1.941 . S
O193 C203 1.283 . S
O194 Zn187 1.965 . S
O194 C202 1.303 . S
O195 Zn188 1.938 . S
O195 C202 1.247 . S
O196 Zn188 1.906 . S
O196 C204 1.304 . S
O197 Zn185 1.924 . S
O197 C205 1.311 . S
O198 Zn189 1.977 . S
O198 C204 1.272 . S
O199 Zn189 1.910 . S
O199 C205 1.231 . S
C200 O184 1.225 . S
C200 O206 1.298 . S
C201 O190 1.226 . S
C201 O191 1.307 . S
C202 O194 1.303 . S
C202 O195 1.247 . S
C203 O192 1.253 . S
C203 O193 1.283 . S
C204 O196 1.304 . S
C204 O198 1.272 . S
C205 O197 1.311 . S
C205 O199 1.231 . S
O206 Zn188 1.953 . S
O206 C200 1.298 . S
O207 Zn208 1.953 . S
O207 C223 1.225 . S
Zn208 O207 1.953 . S
Zn208 O209 1.949 . S
Zn208 O215 1.919 1_545 S
Zn208 O220 1.924 1_545 S
O209 Zn208 1.949 . S
O209 Zn210 1.923 . S
O209 Zn211 1.950 . S
O209 Zn212 1.945 . S
Zn210 O209 1.923 . S
Zn210 O213 1.933 . S
Zn210 O216 1.941 1_545 S
Zn210 O217 1.965 . S
Zn211 O209 1.950 . S
Zn211 O218 1.938 . S
Zn211 O219 1.906 . S
Zn211 O229 1.953 . S
Zn212 O209 1.945 . S
Zn212 O214 1.932 . S
Zn212 O221 1.977 . S
Zn212 O222 1.910 . S
O213 Zn210 1.933 . S
O213 C224 1.226 . S
O214 Zn212 1.932 . S
O214 C224 1.307 . S
O215 Zn208 1.919 1_565 S
O215 C226 1.253 . S
O216 Zn210 1.941 1_565 S
O216 C226 1.283 . S
O217 Zn210 1.965 . S
O217 C225 1.303 . S
O218 Zn211 1.938 . S
O218 C225 1.247 . S
O219 Zn211 1.906 . S
O219 C227 1.304 . S
O220 Zn208 1.924 1_565 S
O220 C228 1.311 1_565 S
O221 Zn212 1.977 . S
O221 C227 1.272 . S
O222 Zn212 1.910 . S
O222 C228 1.231 . S
C223 O207 1.225 . S
C223 O229 1.298 . S
C224 O213 1.226 . S
C224 O214 1.307 . S
C225 O217 1.303 . S
C225 O218 1.247 . S
C226 O215 1.253 . S
C226 O216 1.283 . S
C227 O219 1.304 . S
C227 O221 1.272 . S
C228 O220 1.311 1_545 S
C228 O222 1.231 . S
O229 Zn211 1.953 . S
O229 C223 1.298 . S
O230 Zn231 1.953 . S
O230 C246 1.225 . S
Zn231 O230 1.953 . S
Zn231 O232 1.949 . S
Zn231 O238 1.919 . S
Zn231 O243 1.924 . S
O232 Zn231 1.949 . S
O232 Zn233 1.923 . S
O232 Zn234 1.950 . S
O232 Zn235 1.945 . S
Zn233 O232 1.923 . S
Zn233 O236 1.933 . S
Zn233 O239 1.941 . S
Zn233 O240 1.965 . S
Zn234 O232 1.950 . S
Zn234 O241 1.938 . S
Zn234 O242 1.906 . S
Zn234 O252 1.953 . S
Zn235 O232 1.945 . S
Zn235 O237 1.932 . S
Zn235 O244 1.977 . S
Zn235 O245 1.910 . S
O236 Zn233 1.933 . S
O236 C247 1.226 . S
O237 Zn235 1.932 . S
O237 C247 1.307 . S
O238 Zn231 1.919 . S
O238 C249 1.253 . S
O239 Zn233 1.941 . S
O239 C249 1.283 . S
O240 Zn233 1.965 . S
O240 C248 1.303 . S
O241 Zn234 1.938 . S
O241 C248 1.247 . S
O242 Zn234 1.906 . S
O242 C250 1.304 . S
O243 Zn231 1.924 . S
O243 C251 1.311 . S
O244 Zn235 1.977 . S
O244 C250 1.272 . S
O245 Zn235 1.910 . S
O245 C251 1.231 . S
C246 O230 1.225 . S
C246 O252 1.298 . S
C247 O236 1.226 . S
C247 O237 1.307 . S
C248 O240 1.303 . S
C248 O241 1.247 . S
C249 O238 1.253 . S
C249 O239 1.283 . S
C250 O242 1.304 . S
C250 O244 1.272 . S
C251 O243 1.311 . S
C251 O245 1.231 . S
O252 Zn234 1.953 . S
O252 C246 1.298 . S
O253 Zn254 1.953 . S
O253 C269 1.225 . S
Zn254 O253 1.953 . S
Zn254 O255 1.949 . S
Zn254 O261 1.919 1_565 S
Zn254 O266 1.924 1_565 S
O255 Zn254 1.949 . S
O255 Zn256 1.923 . S
O255 Zn257 1.950 . S
O255 Zn258 1.945 . S
Zn256 O255 1.923 . S
Zn256 O259 1.933 . S
Zn256 O262 1.941 1_565 S
Zn256 O263 1.965 . S
Zn257 O255 1.950 . S
Zn257 O264 1.938 . S
Zn257 O265 1.906 . S
Zn257 O275 1.953 . S
Zn258 O255 1.945 . S
Zn258 O260 1.932 . S
Zn258 O267 1.977 . S
Zn258 O268 1.910 . S
O259 Zn256 1.933 . S
O259 C270 1.226 . S
O260 Zn258 1.932 . S
O260 C270 1.307 . S
O261 Zn254 1.919 1_545 S
O261 C272 1.253 . S
O262 Zn256 1.941 1_545 S
O262 C272 1.283 . S
O263 Zn256 1.965 . S
O263 C271 1.303 . S
O264 Zn257 1.938 . S
O264 C271 1.247 . S
O265 Zn257 1.906 . S
O265 C273 1.304 . S
O266 Zn254 1.924 1_545 S
O266 C274 1.311 1_545 S
O267 Zn258 1.977 . S
O267 C273 1.272 . S
O268 Zn258 1.910 . S
O268 C274 1.231 . S
C269 O253 1.225 . S
C269 O275 1.298 . S
C270 O259 1.226 . S
C270 O260 1.307 . S
C271 O263 1.303 . S
C271 O264 1.247 . S
C272 O261 1.253 . S
C272 O262 1.283 . S
C273 O265 1.304 . S
C273 O267 1.272 . S
C274 O266 1.311 1_565 S
C274 O268 1.231 . S
O275 Zn257 1.953 . S
O275 C269 1.298 . S
O276 Zn277 1.953 . S
O276 C292 1.225 . S
Zn277 O276 1.953 . S
Zn277 O278 1.949 . S
Zn277 O284 1.919 . S
Zn277 O289 1.924 . S
O278 Zn277 1.949 . S
O278 Zn279 1.923 . S
O278 Zn280 1.950 . S
O278 Zn281 1.945 . S
Zn279 O278 1.923 . S
Zn279 O282 1.933 . S
Zn279 O285 1.941 . S
Zn279 O286 1.965 . S
Zn280 O278 1.950 . S
Zn280 O287 1.938 . S
Zn280 O288 1.906 . S
Zn280 O298 1.953 . S
Zn281 O278 1.945 . S
Zn281 O283 1.932 . S
Zn281 O290 1.977 . S
Zn281 O291 1.910 . S
O282 Zn279 1.933 . S
O282 C293 1.226 . S
O283 Zn281 1.932 . S
O283 C293 1.307 . S
O284 Zn277 1.919 . S
O284 C295 1.253 . S
O285 Zn279 1.941 . S
O285 C295 1.283 . S
O286 Zn279 1.965 . S
O286 C294 1.303 . S
O287 Zn280 1.938 . S
O287 C294 1.247 . S
O288 Zn280 1.906 . S
O288 C296 1.304 . S
O289 Zn277 1.924 . S
O289 C297 1.311 . S
O290 Zn281 1.977 . S
O290 C296 1.272 . S
O291 Zn281 1.910 . S
O291 C297 1.231 . S
C292 O276 1.225 . S
C292 O298 1.298 . S
C293 O282 1.226 . S
C293 O283 1.307 . S
C294 O286 1.303 . S
C294 O287 1.247 . S
C295 O284 1.253 . S
C295 O285 1.283 . S
C296 O288 1.304 . S
C296 O290 1.272 . S
C297 O289 1.311 . S
C297 O291 1.231 . S
O298 Zn280 1.953 . S
O298 C292 1.298 . S
O299 Zn300 1.953 . S
O299 C315 1.225 . S
Zn300 O299 1.953 . S
Zn300 O301 1.949 . S
Zn300 O307 1.919 1_565 S
Zn300 O312 1.924 1_565 S
O301 Zn300 1.949 . S
O301 Zn302 1.923 . S
O301 Zn303 1.950 . S
O301 Zn304 1.945 . S
Zn302 O301 1.923 . S
Zn302 O305 1.933 . S
Zn302 O308 1.941 1_565 S
Zn302 O309 1.965 . S
Zn303 O301 1.950 . S
Zn303 O310 1.938 . S
Zn303 O311 1.906 . S
Zn303 O321 1.953 . S
Zn304 O301 1.945 . S
Zn304 O306 1.932 . S
Zn304 O313 1.977 . S
Zn304 O314 1.910 . S
O305 Zn302 1.933 . S
O305 C316 1.226 . S
O306 Zn304 1.932 . S
O306 C316 1.307 . S
O307 Zn300 1.919 1_545 S
O307 C318 1.253 . S
O308 Zn302 1.941 1_545 S
O308 C318 1.283 . S
O309 Zn302 1.965 . S
O309 C317 1.303 . S
O310 Zn303 1.938 . S
O310 C317 1.247 . S
O311 Zn303 1.906 . S
O311 C319 1.304 . S
O312 Zn300 1.924 1_545 S
O312 C320 1.311 1_545 S
O313 Zn304 1.977 . S
O313 C319 1.272 . S
O314 Zn304 1.910 . S
O314 C320 1.231 . S
C315 O299 1.225 . S
C315 O321 1.298 . S
C316 O305 1.226 . S
C316 O306 1.307 . S
C317 O309 1.303 . S
C317 O310 1.247 . S
C318 O307 1.253 . S
C318 O308 1.283 . S
C319 O311 1.304 . S
C319 O313 1.272 . S
C320 O312 1.311 1_565 S
C320 O314 1.231 . S
O321 Zn303 1.953 . S
O321 C315 1.298 . S
O322 Zn323 1.953 . S
O322 C338 1.225 . S
Zn323 O322 1.953 . S
Zn323 O324 1.949 . S
Zn323 O330 1.919 . S
Zn323 O335 1.924 . S
O324 Zn323 1.949 . S
O324 Zn325 1.923 . S
O324 Zn326 1.950 . S
O324 Zn327 1.945 . S
Zn325 O324 1.923 . S
Zn325 O328 1.933 . S
Zn325 O331 1.941 . S
Zn325 O332 1.965 . S
Zn326 O324 1.950 . S
Zn326 O333 1.938 . S
Zn326 O334 1.906 . S
Zn326 O344 1.953 . S
Zn327 O324 1.945 . S
Zn327 O329 1.932 . S
Zn327 O336 1.977 . S
Zn327 O337 1.910 . S
O328 Zn325 1.933 . S
O328 C339 1.226 . S
O329 Zn327 1.932 . S
O329 C339 1.307 . S
O330 Zn323 1.919 . S
O330 C341 1.253 . S
O331 Zn325 1.941 . S
O331 C341 1.283 . S
O332 Zn325 1.965 . S
O332 C340 1.303 . S
O333 Zn326 1.938 . S
O333 C340 1.247 . S
O334 Zn326 1.906 . S
O334 C342 1.304 . S
O335 Zn323 1.924 . S
O335 C343 1.311 . S
O336 Zn327 1.977 . S
O336 C342 1.272 . S
O337 Zn327 1.910 . S
O337 C343 1.231 . S
C338 O322 1.225 . S
C338 O344 1.298 . S
C339 O328 1.226 . S
C339 O329 1.307 . S
C340 O332 1.303 . S
C340 O333 1.247 . S
C341 O330 1.253 . S
C341 O331 1.283 . S
C342 O334 1.304 . S
C342 O336 1.272 . S
C343 O335 1.311 . S
C343 O337 1.231 . S
O344 Zn326 1.953 . S
O344 C338 1.298 . S
O345 Zn346 1.953 . S
O345 C361 1.225 . S
Zn346 O345 1.953 . S
Zn346 O347 1.949 . S
Zn346 O353 1.919 1_545 S
Zn346 O358 1.924 1_545 S
O347 Zn346 1.949 . S
O347 Zn348 1.923 . S
O347 Zn349 1.950 . S
O347 Zn350 1.945 . S
Zn348 O347 1.923 . S
Zn348 O351 1.933 . S
Zn348 O354 1.941 1_545 S
Zn348 O355 1.965 . S
Zn349 O347 1.950 . S
Zn349 O356 1.938 . S
Zn349 O357 1.906 . S
Zn349 O367 1.953 . S
Zn350 O347 1.945 . S
Zn350 O352 1.932 . S
Zn350 O359 1.977 . S
Zn350 O360 1.910 . S
O351 Zn348 1.933 . S
O351 C362 1.226 . S
O352 Zn350 1.932 . S
O352 C362 1.307 . S
O353 Zn346 1.919 1_565 S
O353 C364 1.253 . S
O354 Zn348 1.941 1_565 S
O354 C364 1.283 . S
O355 Zn348 1.965 . S
O355 C363 1.303 . S
O356 Zn349 1.938 . S
O356 C363 1.247 . S
O357 Zn349 1.906 . S
O357 C365 1.304 . S
O358 Zn346 1.924 1_565 S
O358 C366 1.311 1_565 S
O359 Zn350 1.977 . S
O359 C365 1.272 . S
O360 Zn350 1.910 . S
O360 C366 1.231 . S
C361 O345 1.225 . S
C361 O367 1.298 . S
C362 O351 1.226 . S
C362 O352 1.307 . S
C363 O355 1.303 . S
C363 O356 1.247 . S
C364 O353 1.253 . S
C364 O354 1.283 . S
C365 O357 1.304 . S
C365 O359 1.272 . S
C366 O358 1.311 1_545 S
C366 O360 1.231 . S
O367 Zn349 1.953 . S
O367 C361 1.298 . S
H368 C380 0.930 . S
H369 C382 0.930 . S
H370 C383 0.930 . S
H371 C387 0.959 . S
H372 C387 0.959 . S
H373 C387 0.961 . S
H374 C388 0.960 . S
H375 C388 0.961 . S
H376 C388 0.959 . S
H377 C391 0.929 . S
H378 C392 0.931 . S
H379 C394 0.930 . S
C380 H368 0.930 . S
C380 C381 1.399 . S
C380 C385 1.399 . S
C381 C380 1.399 . S
C381 C382 1.376 . S
C382 H369 0.930 . S
C382 C381 1.376 . S
C382 C383 1.388 . S
C383 H370 0.930 . S
C383 C382 1.388 . S
C383 C384 1.390 . S
C384 C383 1.390 . S
C384 C385 1.394 . S
C384 C390 1.465 . S
C385 C380 1.399 . S
C385 C384 1.394 . S
C385 C386 1.516 . S
C386 C385 1.516 . S
C386 C387 1.502 . S
C386 C388 1.561 . S
C386 C389 1.526 . S
C387 H371 0.959 . S
C387 H372 0.959 . S
C387 H373 0.961 . S
C387 C386 1.502 . S
C388 H374 0.960 . S
C388 H375 0.961 . S
C388 H376 0.959 . S
C388 C386 1.561 . S
C389 C386 1.526 . S
C389 C390 1.396 . S
C389 C394 1.390 . S
C390 C384 1.465 . S
C390 C389 1.396 . S
C390 C391 1.399 . S
C391 H377 0.929 . S
C391 C390 1.399 . S
C391 C392 1.385 . S
C392 H378 0.931 . S
C392 C391 1.385 . S
C392 C393 1.389 . S
C393 C392 1.389 . S
C393 C394 1.387 . S
C394 H379 0.930 . S
C394 C389 1.390 . S
C394 C393 1.387 . S
H395 C407 0.930 . S
H396 C409 0.930 . S
H397 C410 0.930 . S
H398 C414 0.959 . S
H399 C414 0.959 . S
H400 C414 0.961 . S
H401 C415 0.960 . S
H402 C415 0.961 . S
H403 C415 0.959 . S
H404 C418 0.929 . S
H405 C419 0.931 . S
H406 C421 0.930 . S
C407 H395 0.930 . S
C407 C408 1.399 . S
C407 C412 1.399 . S
C408 C407 1.399 . S
C408 C409 1.376 . S
C409 H396 0.930 . S
C409 C408 1.376 . S
C409 C410 1.388 . S
C410 H397 0.930 . S
C410 C409 1.388 . S
C410 C411 1.390 . S
C411 C410 1.390 . S
C411 C412 1.394 . S
C411 C417 1.465 . S
C412 C407 1.399 . S
C412 C411 1.394 . S
C412 C413 1.516 . S
C413 C412 1.516 . S
C413 C414 1.502 . S
C413 C415 1.561 . S
C413 C416 1.526 . S
C414 H398 0.959 . S
C414 H399 0.959 . S
C414 H400 0.961 . S
C414 C413 1.502 . S
C415 H401 0.960 . S
C415 H402 0.961 . S
C415 H403 0.959 . S
C415 C413 1.561 . S
C416 C413 1.526 . S
C416 C417 1.396 . S
C416 C421 1.390 . S
C417 C411 1.465 . S
C417 C416 1.396 . S
C417 C418 1.399 . S
C418 H404 0.929 . S
C418 C417 1.399 . S
C418 C419 1.385 . S
C419 H405 0.931 . S
C419 C418 1.385 . S
C419 C420 1.389 . S
C420 C419 1.389 . S
C420 C421 1.387 . S
C421 H406 0.930 . S
C421 C416 1.390 . S
C421 C420 1.387 . S
H422 C434 0.930 . S
H423 C436 0.930 . S
H424 C437 0.930 . S
H425 C441 0.959 . S
H426 C441 0.959 . S
H427 C441 0.961 . S
H428 C442 0.960 . S
H429 C442 0.961 . S
H430 C442 0.959 . S
H431 C445 0.929 . S
H432 C446 0.931 . S
H433 C448 0.930 . S
C434 H422 0.930 . S
C434 C435 1.399 . S
C434 C439 1.399 . S
C435 C434 1.399 . S
C435 C436 1.376 . S
C436 H423 0.930 . S
C436 C435 1.376 . S
C436 C437 1.388 . S
C437 H424 0.930 . S
C437 C436 1.388 . S
C437 C438 1.390 . S
C438 C437 1.390 . S
C438 C439 1.394 . S
C438 C444 1.465 . S
C439 C434 1.399 . S
C439 C438 1.394 . S
C439 C440 1.516 . S
C440 C439 1.516 . S
C440 C441 1.502 . S
C440 C442 1.561 . S
C440 C443 1.526 . S
C441 H425 0.959 . S
C441 H426 0.959 . S
C441 H427 0.961 . S
C441 C440 1.502 . S
C442 H428 0.960 . S
C442 H429 0.961 . S
C442 H430 0.959 . S
C442 C440 1.561 . S
C443 C440 1.526 . S
C443 C444 1.396 . S
C443 C448 1.390 . S
C444 C438 1.465 . S
C444 C443 1.396 . S
C444 C445 1.399 . S
C445 H431 0.929 . S
C445 C444 1.399 . S
C445 C446 1.385 . S
C446 H432 0.931 . S
C446 C445 1.385 . S
C446 C447 1.389 . S
C447 C446 1.389 . S
C447 C448 1.387 . S
C448 H433 0.930 . S
C448 C443 1.390 . S
C448 C447 1.387 . S
H449 C461 0.930 . S
H450 C463 0.930 . S
H451 C464 0.930 1_554 S
H452 C468 0.959 . S
H453 C468 0.959 . S
H454 C468 0.961 . S
H455 C469 0.960 . S
H456 C469 0.961 . S
H457 C469 0.959 . S
H458 C472 0.921 1_655 S
H459 C473 0.931 . S
H460 C475 0.930 . S
C461 H449 0.930 . S
C461 C462 1.399 . S
C461 C466 1.399 . S
C462 C461 1.399 . S
C462 C463 1.376 . S
C463 H450 0.930 . S
C463 C462 1.376 . S
C463 C464 1.388 . S
C464 H451 0.930 1_556 S
C464 C463 1.388 . S
C464 C465 1.390 . S
C465 C464 1.390 . S
C465 C466 1.394 . S
C465 C471 1.465 1_656 S
C466 C461 1.399 . S
C466 C465 1.394 . S
C466 C467 1.516 1_655 S
C467 C466 1.516 1_455 S
C467 C468 1.502 . S
C467 C469 1.561 1_455 S
C467 C470 1.526 1_556 S
C468 H452 0.959 . S
C468 H453 0.959 . S
C468 H454 0.961 . S
C468 C467 1.502 . S
C469 H455 0.960 . S
C469 H456 0.961 . S
C469 H457 0.959 . S
C469 C467 1.561 1_655 S
C470 C467 1.526 1_554 S
C470 C471 1.396 . S
C470 C475 1.390 . S
C471 C465 1.465 1_454 S
C471 C470 1.396 . S
C471 C472 1.399 . S
C472 H458 0.921 1_455 S
C472 C471 1.399 . S
C472 C473 1.385 . S
C473 H459 0.931 . S
C473 C472 1.385 . S
C473 C474 1.389 . S
C474 C473 1.389 . S
C474 C475 1.387 . S
C475 H460 0.930 . S
C475 C470 1.390 . S
C475 C474 1.387 . S
H476 C488 0.930 . S
H477 C490 0.930 . S
H478 C491 0.930 . S
H479 C495 0.959 . S
H480 C495 0.959 . S
H481 C495 0.961 . S
H482 C496 0.960 . S
H483 C496 0.961 . S
H484 C496 0.959 . S
H485 C499 0.929 . S
H486 C500 0.931 . S
H487 C502 0.930 . S
C488 H476 0.930 . S
C488 C489 1.399 . S
C488 C493 1.399 . S
C489 C488 1.399 . S
C489 C490 1.376 . S
C490 H477 0.930 . S
C490 C489 1.376 . S
C490 C491 1.388 . S
C491 H478 0.930 . S
C491 C490 1.388 . S
C491 C492 1.390 . S
C492 C491 1.390 . S
C492 C493 1.394 . S
C492 C498 1.465 . S
C493 C488 1.399 . S
C493 C492 1.394 . S
C493 C494 1.516 . S
C494 C493 1.516 . S
C494 C495 1.502 . S
C494 C496 1.561 . S
C494 C497 1.526 . S
C495 H479 0.959 . S
C495 H480 0.959 . S
C495 H481 0.961 . S
C495 C494 1.502 . S
C496 H482 0.960 . S
C496 H483 0.961 . S
C496 H484 0.959 . S
C496 C494 1.561 . S
C497 C494 1.526 . S
C497 C498 1.396 . S
C497 C502 1.390 . S
C498 C492 1.465 . S
C498 C497 1.396 . S
C498 C499 1.399 . S
C499 H485 0.929 . S
C499 C498 1.399 . S
C499 C500 1.385 . S
C500 H486 0.931 . S
C500 C499 1.385 . S
C500 C501 1.389 . S
C501 C500 1.389 . S
C501 C502 1.387 . S
C502 H487 0.930 . S
C502 C497 1.390 . S
C502 C501 1.387 . S
H503 C515 0.930 . S
H504 C517 0.930 . S
H505 C518 0.930 . S
H506 C522 0.959 . S
H507 C522 0.959 . S
H508 C522 0.961 . S
H509 C523 0.960 . S
H510 C523 0.961 . S
H511 C523 0.959 . S
H512 C526 0.929 . S
H513 C527 0.931 . S
H514 C529 0.930 . S
C515 H503 0.930 . S
C515 C516 1.399 . S
C515 C520 1.399 . S
C516 C515 1.399 . S
C516 C517 1.376 . S
C517 H504 0.930 . S
C517 C516 1.376 . S
C517 C518 1.388 . S
C518 H505 0.930 . S
C518 C517 1.388 . S
C518 C519 1.390 . S
C519 C518 1.390 . S
C519 C520 1.394 . S
C519 C525 1.465 . S
C520 C515 1.399 . S
C520 C519 1.394 . S
C520 C521 1.516 . S
C521 C520 1.516 . S
C521 C522 1.502 . S
C521 C523 1.561 . S
C521 C524 1.526 . S
C522 H506 0.959 . S
C522 H507 0.959 . S
C522 H508 0.961 . S
C522 C521 1.502 . S
C523 H509 0.960 . S
C523 H510 0.961 . S
C523 H511 0.959 . S
C523 C521 1.561 . S
C524 C521 1.526 . S
C524 C525 1.396 . S
C524 C529 1.390 . S
C525 C519 1.465 . S
C525 C524 1.396 . S
C525 C526 1.399 . S
C526 H512 0.929 . S
C526 C525 1.399 . S
C526 C527 1.385 . S
C527 H513 0.931 . S
C527 C526 1.385 . S
C527 C528 1.389 . S
C528 C527 1.389 . S
C528 C529 1.387 . S
C529 H514 0.930 . S
C529 C524 1.390 . S
C529 C528 1.387 . S
H530 C542 0.930 1_545 S
H531 C544 0.930 . S
H532 C545 0.930 . S
H533 C549 0.959 . S
H534 C549 0.959 . S
H535 C549 0.961 . S
H536 C550 0.960 . S
H537 C550 0.961 . S
H538 C550 0.959 1_455 S
H539 C553 0.929 . S
H540 C554 0.931 1_565 S
H541 C556 0.930 . S
C542 H530 0.930 1_565 S
C542 C543 1.399 . S
C542 C547 1.399 1_565 S
C543 C542 1.399 . S
C543 C544 1.376 . S
C544 H531 0.930 . S
C544 C543 1.376 . S
C544 C545 1.388 1_655 S
C545 H532 0.930 . S
C545 C544 1.388 1_455 S
C545 C546 1.390 . S
C546 C545 1.390 . S
C546 C547 1.394 1_465 S
C546 C552 1.465 1_554 S
C547 C542 1.399 1_545 S
C547 C546 1.394 1_645 S
C547 C548 1.530 . S
C548 C547 1.530 . S
C548 C549 1.491 1_554 S
C548 C550 1.573 . S
C548 C551 1.513 1_654 S
C549 H533 0.959 . S
C549 H534 0.959 . S
C549 H535 0.961 . S
C549 C548 1.491 1_556 S
C550 H536 0.960 . S
C550 H537 0.961 . S
C550 H538 0.959 1_655 S
C550 C548 1.573 . S
C551 C548 1.513 1_456 S
C551 C552 1.396 1_545 S
C551 C556 1.390 . S
C552 C546 1.465 1_556 S
C552 C551 1.396 1_565 S
C552 C553 1.399 . S
C553 H539 0.929 . S
C553 C552 1.399 . S
C553 C554 1.385 1_565 S
C554 H540 0.931 1_545 S
C554 C553 1.385 1_545 S
C554 C555 1.389 . S
C555 C554 1.389 . S
C555 C556 1.387 . S
C556 H541 0.930 . S
C556 C551 1.390 . S
C556 C555 1.387 . S
H557 C569 0.930 . S
H558 C571 0.931 1_545 S
H559 C572 0.930 . S
H560 C576 0.959 . S
H561 C576 0.959 . S
H562 C576 0.961 . S
H563 C577 0.960 . S
H564 C577 0.961 . S
H565 C577 0.959 . S
H566 C580 0.929 . S
H567 C581 0.931 . S
H568 C583 0.930 1_565 S
C569 H557 0.930 . S
C569 C570 1.399 . S
C569 C574 1.399 . S
C570 C569 1.399 . S
C570 C571 1.376 . S
C571 H558 0.931 1_565 S
C571 C570 1.376 . S
C571 C572 1.388 1_565 S
C572 H559 0.930 . S
C572 C571 1.388 1_545 S
C572 C573 1.390 . S
C573 C572 1.390 . S
C573 C574 1.394 1_545 S
C573 C579 1.465 . S
C574 C569 1.399 . S
C574 C573 1.394 1_565 S
C574 C575 1.516 . S
C575 C574 1.516 . S
C575 C576 1.502 . S
C575 C577 1.561 . S
C575 C578 1.526 . S
C576 H560 0.959 . S
C576 H561 0.959 . S
C576 H562 0.961 . S
C576 C575 1.502 . S
C577 H563 0.960 . S
C577 H564 0.961 . S
C577 H565 0.959 . S
C577 C575 1.561 . S
C578 C575 1.526 . S
C578 C579 1.396 1_565 S
C578 C583 1.390 1_565 S
C579 C573 1.465 . S
C579 C578 1.396 1_545 S
C579 C580 1.399 . S
C580 H566 0.929 . S
C580 C579 1.399 . S
C580 C581 1.385 . S
C581 H567 0.931 . S
C581 C580 1.385 . S
C581 C582 1.389 . S
C582 C581 1.389 . S
C582 C583 1.387 . S
C583 H568 0.930 1_545 S
C583 C578 1.390 1_545 S
C583 C582 1.387 . S
H584 C596 0.930 . S
H585 C598 0.930 . S
H586 C599 0.930 . S
H587 C603 0.959 . S
H588 C603 0.959 . S
H589 C603 0.961 . S
H590 C604 0.960 . S
H591 C604 0.978 . S
H592 C604 0.963 . S
H593 C607 0.929 . S
H594 C608 0.931 . S
H595 C610 0.930 . S
C596 H584 0.930 . S
C596 C597 1.399 . S
C596 C601 1.399 . S
C597 C596 1.399 . S
C597 C598 1.376 . S
C598 H585 0.930 . S
C598 C597 1.376 . S
C598 C599 1.388 . S
C599 H586 0.930 . S
C599 C598 1.388 . S
C599 C600 1.390 . S
C600 C599 1.390 . S
C600 C601 1.394 . S
C600 C606 1.465 1_556 S
C601 C596 1.399 . S
C601 C600 1.394 . S
C601 C602 1.516 . S
C602 C601 1.516 . S
C602 C603 1.502 . S
C602 C604 1.561 . S
C602 C605 1.526 1_556 S
C603 H587 0.959 . S
C603 H588 0.959 . S
C603 H589 0.961 . S
C603 C602 1.502 . S
C604 H590 0.960 . S
C604 H591 0.978 . S
C604 H592 0.963 . S
C604 C602 1.561 . S
C605 C602 1.526 1_554 S
C605 C606 1.396 . S
C605 C610 1.390 . S
C606 C600 1.465 1_554 S
C606 C605 1.396 . S
C606 C607 1.399 . S
C607 H593 0.929 . S
C607 C606 1.399 . S
C607 C608 1.385 . S
C608 H594 0.931 . S
C608 C607 1.385 . S
C608 C609 1.389 . S
C609 C608 1.389 . S
C609 C610 1.387 . S
C610 H595 0.930 . S
C610 C605 1.390 . S
C610 C609 1.387 . S
H611 C623 0.930 . S
H612 C625 0.930 . S
H613 C626 0.930 . S
H614 C630 0.959 . S
H615 C630 0.959 . S
H616 C630 0.961 . S
H617 C631 0.960 . S
H618 C631 0.961 . S
H619 C631 0.959 . S
H620 C634 0.929 . S
H621 C635 0.931 . S
H622 C637 0.930 . S
C623 H611 0.930 . S
C623 C624 1.399 . S
C623 C628 1.399 . S
C624 C623 1.399 . S
C624 C625 1.376 . S
C625 H612 0.930 . S
C625 C624 1.376 . S
C625 C626 1.388 . S
C626 H613 0.930 . S
C626 C625 1.388 . S
C626 C627 1.390 . S
C627 C626 1.390 . S
C627 C628 1.394 . S
C627 C633 1.465 . S
C628 C623 1.399 . S
C628 C627 1.394 . S
C628 C629 1.516 . S
C629 C628 1.516 . S
C629 C630 1.502 . S
C629 C631 1.561 . S
C629 C632 1.526 . S
C630 H614 0.959 . S
C630 H615 0.959 . S
C630 H616 0.961 . S
C630 C629 1.502 . S
C631 H617 0.960 . S
C631 H618 0.961 . S
C631 H619 0.959 . S
C631 C629 1.561 . S
C632 C629 1.526 . S
C632 C633 1.396 . S
C632 C637 1.390 . S
C633 C627 1.465 . S
C633 C632 1.396 . S
C633 C634 1.399 . S
C634 H620 0.929 . S
C634 C633 1.399 . S
C634 C635 1.385 . S
C635 H621 0.931 . S
C635 C634 1.385 . S
C635 C636 1.389 . S
C636 C635 1.389 . S
C636 C637 1.387 . S
C637 H622 0.930 . S
C637 C632 1.390 . S
C637 C636 1.387 . S
H638 C650 0.930 . S
H639 C652 0.930 . S
H640 C653 0.930 . S
H641 C657 0.959 . S
H642 C657 0.959 . S
H643 C657 0.961 . S
H644 C658 0.960 . S
H645 C658 0.961 . S
H646 C658 0.959 . S
H647 C661 0.929 . S
H648 C662 0.931 . S
H649 C664 0.930 . S
C650 H638 0.930 . S
C650 C651 1.399 . S
C650 C655 1.399 . S
C651 C650 1.399 . S
C651 C652 1.376 . S
C652 H639 0.930 . S
C652 C651 1.376 . S
C652 C653 1.388 . S
C653 H640 0.930 . S
C653 C652 1.388 . S
C653 C654 1.390 . S
C654 C653 1.390 . S
C654 C655 1.394 . S
C654 C660 1.465 . S
C655 C650 1.399 . S
C655 C654 1.394 . S
C655 C656 1.516 . S
C656 C655 1.516 . S
C656 C657 1.502 . S
C656 C658 1.561 . S
C656 C659 1.526 . S
C657 H641 0.959 . S
C657 H642 0.959 . S
C657 H643 0.961 . S
C657 C656 1.502 . S
C658 H644 0.960 . S
C658 H645 0.961 . S
C658 H646 0.959 . S
C658 C656 1.561 . S
C659 C656 1.526 . S
C659 C660 1.396 . S
C659 C664 1.390 . S
C660 C654 1.465 . S
C660 C659 1.396 . S
C660 C661 1.399 . S
C661 H647 0.929 . S
C661 C660 1.399 . S
C661 C662 1.385 . S
C662 H648 0.931 . S
C662 C661 1.385 . S
C662 C663 1.389 . S
C663 C662 1.389 . S
C663 C664 1.387 . S
C664 H649 0.930 . S
C664 C659 1.390 . S
C664 C663 1.387 . S
H665 C677 0.930 . S
H666 C679 0.930 . S
H667 C680 0.930 . S
H668 C684 0.959 . S
H669 C684 0.959 . S
H670 C684 0.961 . S
H671 C685 0.960 . S
H672 C685 0.961 . S
H673 C685 0.959 . S
H674 C688 0.929 . S
H675 C689 0.931 . S
H676 C691 0.930 . S
C677 H665 0.930 . S
C677 C678 1.399 . S
C677 C682 1.399 . S
C678 C677 1.399 . S
C678 C679 1.376 . S
C679 H666 0.930 . S
C679 C678 1.376 . S
C679 C680 1.388 . S
C680 H667 0.930 . S
C680 C679 1.388 . S
C680 C681 1.390 . S
C681 C680 1.390 . S
C681 C682 1.394 . S
C681 C687 1.465 . S
C682 C677 1.399 . S
C682 C681 1.394 . S
C682 C683 1.516 . S
C683 C682 1.516 . S
C683 C684 1.502 . S
C683 C685 1.561 . S
C683 C686 1.526 . S
C684 H668 0.959 . S
C684 H669 0.959 . S
C684 H670 0.961 . S
C684 C683 1.502 . S
C685 H671 0.960 . S
C685 H672 0.961 . S
C685 H673 0.959 . S
C685 C683 1.561 . S
C686 C683 1.526 . S
C686 C687 1.396 . S
C686 C691 1.390 . S
C687 C681 1.465 . S
C687 C686 1.396 . S
C687 C688 1.399 . S
C688 H674 0.929 . S
C688 C687 1.399 . S
C688 C689 1.385 . S
C689 H675 0.931 . S
C689 C688 1.385 . S
C689 C690 1.389 . S
C690 C689 1.389 . S
C690 C691 1.387 . S
C691 H676 0.930 . S
C691 C686 1.390 . S
C691 C690 1.387 . S
H692 C704 0.930 . S
H693 C706 0.930 . S
H694 C707 0.930 . S
H695 C711 0.959 . S
H696 C711 0.959 . S
H697 C711 0.961 . S
H698 C712 0.960 . S
H699 C712 0.961 1_556 S
H700 C712 0.959 1_556 S
H701 C715 0.929 . S
H702 C716 0.931 . S
H703 C718 0.930 . S
C704 H692 0.930 . S
C704 C705 1.399 . S
C704 C709 1.399 . S
C705 C704 1.399 . S
C705 C706 1.376 . S
C706 H693 0.930 . S
C706 C705 1.376 . S
C706 C707 1.388 . S
C707 H694 0.930 . S
C707 C706 1.388 . S
C707 C708 1.390 . S
C708 C707 1.390 . S
C708 C709 1.394 . S
C708 C714 1.438 1_554 S
C709 C704 1.399 . S
C709 C708 1.394 . S
C709 C710 1.516 . S
C710 C709 1.516 . S
C710 C711 1.502 . S
C710 C712 1.561 . S
C710 C713 1.526 1_554 S
C711 H695 0.959 . S
C711 H696 0.959 . S
C711 H697 0.961 . S
C711 C710 1.502 . S
C712 H698 0.960 . S
C712 H699 0.961 1_554 S
C712 H700 0.959 1_554 S
C712 C710 1.561 . S
C713 C710 1.526 1_556 S
C713 C714 1.401 . S
C713 C718 1.390 . S
C714 C708 1.438 1_556 S
C714 C713 1.401 . S
C714 C715 1.420 . S
C715 H701 0.929 . S
C715 C714 1.420 . S
C715 C716 1.385 . S
C716 H702 0.931 . S
C716 C715 1.385 . S
C716 C717 1.389 . S
C717 C716 1.389 . S
C717 C718 1.387 . S
C718 H703 0.930 . S
C718 C713 1.390 . S
C718 C717 1.387 . S
H719 C731 0.930 . S
H720 C733 0.930 . S
H721 C734 0.930 . S
H722 C738 0.959 . S
H723 C738 0.959 . S
H724 C738 0.961 . S
H725 C739 0.960 . S
H726 C739 0.961 . S
H727 C739 0.959 . S
H728 C742 0.929 . S
H729 C743 0.931 . S
H730 C745 0.930 . S
C731 H719 0.930 . S
C731 C732 1.399 . S
C731 C736 1.399 . S
C732 C731 1.399 . S
C732 C733 1.376 . S
C733 H720 0.930 . S
C733 C732 1.376 . S
C733 C734 1.388 . S
C734 H721 0.930 . S
C734 C733 1.388 . S
C734 C735 1.390 . S
C735 C734 1.390 . S
C735 C736 1.394 . S
C735 C741 1.465 . S
C736 C731 1.399 . S
C736 C735 1.394 . S
C736 C737 1.516 . S
C737 C736 1.516 . S
C737 C738 1.502 . S
C737 C739 1.561 . S
C737 C740 1.526 . S
C738 H722 0.959 . S
C738 H723 0.959 . S
C738 H724 0.961 . S
C738 C737 1.502 . S
C739 H725 0.960 . S
C739 H726 0.961 . S
C739 H727 0.959 . S
C739 C737 1.561 . S
C740 C737 1.526 . S
C740 C741 1.396 . S
C740 C745 1.390 . S
C741 C735 1.465 . S
C741 C740 1.396 . S
C741 C742 1.399 . S
C742 H728 0.929 . S
C742 C741 1.399 . S
C742 C743 1.385 . S
C743 H729 0.931 . S
C743 C742 1.385 . S
C743 C744 1.389 . S
C744 C743 1.389 . S
C744 C745 1.387 . S
C745 H730 0.930 . S
C745 C740 1.390 . S
C745 C744 1.387 . S
H746 C758 0.930 . S
H747 C760 0.930 . S
H748 C761 0.930 . S
H749 C765 0.959 . S
H750 C765 0.959 . S
H751 C765 0.961 . S
H752 C766 0.960 . S
H753 C766 0.961 . S
H754 C766 0.959 . S
H755 C769 0.929 . S
H756 C770 0.931 . S
H757 C772 0.930 . S
C758 H746 0.930 . S
C758 C759 1.399 . S
C758 C763 1.399 . S
C759 C758 1.399 . S
C759 C760 1.376 . S
C760 H747 0.930 . S
C760 C759 1.376 . S
C760 C761 1.388 . S
C761 H748 0.930 . S
C761 C760 1.388 . S
C761 C762 1.390 . S
C762 C761 1.390 . S
C762 C763 1.394 . S
C762 C768 1.465 . S
C763 C758 1.399 . S
C763 C762 1.394 . S
C763 C764 1.516 . S
C764 C763 1.516 . S
C764 C765 1.502 . S
C764 C766 1.561 . S
C764 C767 1.526 . S
C765 H749 0.959 . S
C765 H750 0.959 . S
C765 H751 0.961 . S
C765 C764 1.502 . S
C766 H752 0.960 . S
C766 H753 0.961 . S
C766 H754 0.959 . S
C766 C764 1.561 . S
C767 C764 1.526 . S
C767 C768 1.396 . S
C767 C772 1.390 . S
C768 C762 1.465 . S
C768 C767 1.396 . S
C768 C769 1.399 . S
C769 H755 0.929 . S
C769 C768 1.399 . S
C769 C770 1.385 . S
C770 H756 0.931 . S
C770 C769 1.385 . S
C770 C771 1.389 . S
C771 C770 1.389 . S
C771 C772 1.387 . S
C772 H757 0.930 . S
C772 C767 1.390 . S
C772 C771 1.387 . S
H773 C785 0.930 . S
H774 C787 0.930 . S
H775 C788 0.930 . S
H776 C792 0.959 . S
H777 C792 0.959 . S
H778 C792 0.961 . S
H779 C793 0.960 . S
H780 C793 0.961 . S
H781 C793 0.959 . S
H782 C796 0.929 . S
H783 C797 0.931 . S
H784 C799 0.930 . S
C785 H773 0.930 . S
C785 C786 1.399 . S
C785 C790 1.399 . S
C786 C785 1.399 . S
C786 C787 1.376 . S
C787 H774 0.930 . S
C787 C786 1.376 . S
C787 C788 1.388 . S
C788 H775 0.930 . S
C788 C787 1.388 . S
C788 C789 1.390 . S
C789 C788 1.390 . S
C789 C790 1.394 . S
C789 C795 1.465 . S
C790 C785 1.399 . S
C790 C789 1.394 . S
C790 C791 1.516 . S
C791 C790 1.516 . S
C791 C792 1.502 . S
C791 C793 1.561 . S
C791 C794 1.526 . S
C792 H776 0.959 . S
C792 H777 0.959 . S
C792 H778 0.961 . S
C792 C791 1.502 . S
C793 H779 0.960 . S
C793 H780 0.961 . S
C793 H781 0.959 . S
C793 C791 1.561 . S
C794 C791 1.526 . S
C794 C795 1.396 . S
C794 C799 1.390 . S
C795 C789 1.465 . S
C795 C794 1.396 . S
C795 C796 1.399 . S
C796 H782 0.929 . S
C796 C795 1.399 . S
C796 C797 1.385 . S
C797 H783 0.931 . S
C797 C796 1.385 . S
C797 C798 1.389 . S
C798 C797 1.389 . S
C798 C799 1.387 . S
C799 H784 0.930 . S
C799 C794 1.390 . S
C799 C798 1.387 . S
H800 C812 0.930 . S
H801 C814 0.930 . S
H802 C815 0.930 . S
H803 C819 0.959 . S
H804 C819 0.959 . S
H805 C819 0.961 . S
H806 C820 0.960 . S
H807 C820 0.961 . S
H808 C820 0.959 . S
H809 C823 0.929 . S
H810 C824 0.931 . S
H811 C826 0.930 . S
C812 H800 0.930 . S
C812 C813 1.399 . S
C812 C817 1.399 . S
C813 C812 1.399 . S
C813 C814 1.376 . S
C814 H801 0.930 . S
C814 C813 1.376 . S
C814 C815 1.388 . S
C815 H802 0.930 . S
C815 C814 1.388 . S
C815 C816 1.390 . S
C816 C815 1.390 . S
C816 C817 1.394 . S
C816 C822 1.465 . S
C817 C812 1.399 . S
C817 C816 1.394 . S
C817 C818 1.516 . S
C818 C817 1.516 . S
C818 C819 1.502 . S
C818 C820 1.561 . S
C818 C821 1.526 . S
C819 H803 0.959 . S
C819 H804 0.959 . S
C819 H805 0.961 . S
C819 C818 1.502 . S
C820 H806 0.960 . S
C820 H807 0.961 . S
C820 H808 0.959 . S
C820 C818 1.561 . S
C821 C818 1.526 . S
C821 C822 1.396 . S
C821 C826 1.390 . S
C822 C816 1.465 . S
C822 C821 1.396 . S
C822 C823 1.399 . S
C823 H809 0.929 . S
C823 C822 1.399 . S
C823 C824 1.385 . S
C824 H810 0.931 . S
C824 C823 1.385 . S
C824 C825 1.389 . S
C825 C824 1.389 . S
C825 C826 1.387 . S
C826 H811 0.930 . S
C826 C821 1.390 . S
C826 C825 1.387 . S
H827 C839 0.930 . S
H828 C841 0.930 1_565 S
H829 C842 0.930 . S
H830 C846 0.959 . S
H831 C846 0.959 . S
H832 C846 0.961 . S
H833 C847 0.960 . S
H834 C847 0.961 . S
H835 C847 0.959 . S
H836 C850 0.929 . S
H837 C851 0.931 . S
H838 C853 0.930 . S
C839 H827 0.930 . S
C839 C840 1.399 . S
C839 C844 1.399 . S
C840 C839 1.399 . S
C840 C841 1.376 . S
C841 H828 0.930 1_545 S
C841 C840 1.376 . S
C841 C842 1.388 1_545 S
C842 H829 0.930 . S
C842 C841 1.388 1_565 S
C842 C843 1.390 . S
C843 C842 1.390 . S
C843 C844 1.394 1_565 S
C843 C849 1.465 . S
C844 C839 1.399 . S
C844 C843 1.394 1_545 S
C844 C845 1.516 . S
C845 C844 1.516 . S
C845 C846 1.502 . S
C845 C847 1.561 . S
C845 C848 1.526 1_545 S
C846 H830 0.959 . S
C846 H831 0.959 . S
C846 H832 0.961 . S
C846 C845 1.502 . S
C847 H833 0.960 . S
C847 H834 0.961 . S
C847 H835 0.959 . S
C847 C845 1.561 . S
C848 C845 1.526 1_565 S
C848 C849 1.396 . S
C848 C853 1.390 . S
C849 C843 1.465 . S
C849 C848 1.396 . S
C849 C850 1.399 . S
C850 H836 0.929 . S
C850 C849 1.399 . S
C850 C851 1.385 . S
C851 H837 0.931 . S
C851 C850 1.385 . S
C851 C852 1.389 . S
C852 C851 1.389 . S
C852 C853 1.387 . S
C853 H838 0.930 . S
C853 C848 1.390 . S
C853 C852 1.387 . S
H854 C866 0.930 . S
H855 C868 0.930 . S
H856 C869 0.930 . S
H857 C873 0.959 . S
H858 C873 0.959 . S
H859 C873 0.961 . S
H860 C874 0.960 . S
H861 C874 0.961 . S
H862 C874 0.959 . S
H863 C877 0.929 . S
H864 C878 0.931 . S
H865 C880 0.930 . S
C866 H854 0.930 . S
C866 C867 1.399 . S
C866 C871 1.364 1_554 S
C867 C866 1.399 . S
C867 C868 1.376 . S
C868 H855 0.930 . S
C868 C867 1.376 . S
C868 C869 1.388 . S
C869 H856 0.930 . S
C869 C868 1.388 . S
C869 C870 1.390 . S
C870 C869 1.390 . S
C870 C871 1.384 1_554 S
C870 C876 1.465 1_554 S
C871 C866 1.364 1_556 S
C871 C870 1.384 1_556 S
C871 C872 1.564 . S
C872 C871 1.564 . S
C872 C873 1.502 . S
C872 C874 1.561 . S
C872 C875 1.526 . S
C873 H857 0.959 . S
C873 H858 0.959 . S
C873 H859 0.961 . S
C873 C872 1.502 . S
C874 H860 0.960 . S
C874 H861 0.961 . S
C874 H862 0.959 . S
C874 C872 1.561 . S
C875 C872 1.526 . S
C875 C876 1.396 . S
C875 C880 1.390 . S
C876 C870 1.465 1_556 S
C876 C875 1.396 . S
C876 C877 1.399 . S
C877 H863 0.929 . S
C877 C876 1.399 . S
C877 C878 1.385 . S
C878 H864 0.931 . S
C878 C877 1.385 . S
C878 C879 1.389 . S
C879 C878 1.389 . S
C879 C880 1.387 . S
C880 H865 0.930 . S
C880 C875 1.390 . S
C880 C879 1.387 . S
H881 C893 0.930 . S
H882 C895 0.930 . S
H883 C896 0.930 . S
H884 C900 0.959 . S
H885 C900 0.959 . S
H886 C900 0.961 . S
H887 C901 0.960 . S
H888 C901 0.961 . S
H889 C901 0.959 . S
H890 C904 0.929 . S
H891 C905 0.931 . S
H892 C907 0.930 1_545 S
C893 H881 0.930 . S
C893 C894 1.399 . S
C893 C898 1.399 . S
C894 C893 1.399 . S
C894 C895 1.376 . S
C895 H882 0.930 . S
C895 C894 1.376 . S
C895 C896 1.388 1_545 S
C896 H883 0.930 . S
C896 C895 1.388 1_565 S
C896 C897 1.390 1_565 S
C897 C896 1.390 1_545 S
C897 C898 1.394 . S
C897 C903 1.465 1_545 S
C898 C893 1.399 . S
C898 C897 1.394 . S
C898 C899 1.516 . S
C899 C898 1.516 . S
C899 C900 1.502 . S
C899 C901 1.561 . S
C899 C902 1.526 . S
C900 H884 0.959 . S
C900 H885 0.959 . S
C900 H886 0.961 . S
C900 C899 1.502 . S
C901 H887 0.960 . S
C901 H888 0.961 . S
C901 H889 0.959 . S
C901 C899 1.561 . S
C902 C899 1.526 . S
C902 C903 1.396 1_545 S
C902 C907 1.390 1_545 S
C903 C897 1.465 1_565 S
C903 C902 1.396 1_565 S
C903 C904 1.399 . S
C904 H890 0.929 . S
C904 C903 1.399 . S
C904 C905 1.385 . S
C905 H891 0.931 . S
C905 C904 1.385 . S
C905 C906 1.389 . S
C906 C905 1.389 . S
C906 C907 1.387 . S
C907 H892 0.930 1_565 S
C907 C902 1.390 1_565 S
C907 C906 1.387 . S
H908 C920 0.930 . S
H909 C922 0.930 . S
H910 C923 0.930 . S
H911 C927 0.959 . S
H912 C927 0.959 . S
H913 C927 0.961 . S
H914 C928 0.960 . S
H915 C928 0.961 . S
H916 C928 0.959 . S
H917 C931 0.929 . S
H918 C932 0.931 . S
H919 C934 0.930 . S
C920 H908 0.930 . S
C920 C921 1.399 . S
C920 C925 1.399 . S
C921 C920 1.399 . S
C921 C922 1.376 . S
C922 H909 0.930 . S
C922 C921 1.376 . S
C922 C923 1.388 . S
C923 H910 0.930 . S
C923 C922 1.388 . S
C923 C924 1.390 . S
C924 C923 1.390 . S
C924 C925 1.394 . S
C924 C930 1.465 . S
C925 C920 1.399 . S
C925 C924 1.394 . S
C925 C926 1.516 . S
C926 C925 1.516 . S
C926 C927 1.502 . S
C926 C928 1.561 . S
C926 C929 1.526 . S
C927 H911 0.959 . S
C927 H912 0.959 . S
C927 H913 0.961 . S
C927 C926 1.502 . S
C928 H914 0.960 . S
C928 H915 0.961 . S
C928 H916 0.959 . S
C928 C926 1.561 . S
C929 C926 1.526 . S
C929 C930 1.396 . S
C929 C934 1.390 . S
C930 C924 1.465 . S
C930 C929 1.396 . S
C930 C931 1.399 . S
C931 H917 0.929 . S
C931 C930 1.399 . S
C931 C932 1.385 . S
C932 H918 0.931 . S
C932 C931 1.385 . S
C932 C933 1.389 . S
C933 C932 1.389 . S
C933 C934 1.387 . S
C934 H919 0.930 . S
C934 C929 1.390 . S
C934 C933 1.387 . S
H935 C947 0.930 1_545 S
H936 C949 0.930 . S
H937 C950 0.930 . S
H938 C954 0.959 . S
H939 C954 0.959 . S
H940 C954 0.961 . S
H941 C955 0.960 . S
H942 C955 0.961 . S
H943 C955 0.959 . S
H944 C958 0.929 . S
H945 C959 0.931 . S
H946 C961 0.930 . S
C947 H935 0.930 1_565 S
C947 C948 1.399 . S
C947 C952 1.399 1_565 S
C948 C947 1.399 . S
C948 C949 1.376 . S
C949 H936 0.930 . S
C949 C948 1.376 . S
C949 C950 1.388 . S
C950 H937 0.930 . S
C950 C949 1.388 . S
C950 C951 1.390 . S
C951 C950 1.390 . S
C951 C952 1.394 1_565 S
C951 C957 1.456 1_565 S
C952 C947 1.399 1_545 S
C952 C951 1.394 1_545 S
C952 C953 1.516 . S
C953 C952 1.516 . S
C953 C954 1.502 . S
C953 C955 1.561 . S
C953 C956 1.526 . S
C954 H938 0.959 . S
C954 H939 0.959 . S
C954 H940 0.961 . S
C954 C953 1.502 . S
C955 H941 0.960 . S
C955 H942 0.961 . S
C955 H943 0.959 . S
C955 C953 1.561 . S
C956 C953 1.526 . S
C956 C957 1.412 . S
C956 C961 1.390 . S
C957 C951 1.456 1_545 S
C957 C956 1.412 . S
C957 C958 1.394 1_545 S
C958 H944 0.929 . S
C958 C957 1.394 1_565 S
C958 C959 1.385 1_565 S
C959 H945 0.931 . S
C959 C958 1.385 1_545 S
C959 C960 1.389 . S
C960 C959 1.389 . S
C960 C961 1.387 . S
C961 H946 0.930 . S
C961 C956 1.390 . S
C961 C960 1.387 . S
H962 C974 0.930 . S
H963 C976 0.930 . S
H964 C977 0.930 . S
H965 C981 0.959 . S
H966 C981 0.959 . S
H967 C981 0.961 . S
H968 C982 0.960 . S
H969 C982 0.961 1_556 S
H970 C982 0.959 1_556 S
H971 C985 0.929 . S
H972 C986 0.931 . S
H973 C988 0.930 . S
C974 H962 0.930 . S
C974 C975 1.399 . S
C974 C979 1.399 . S
C975 C974 1.399 . S
C975 C976 1.376 . S
C976 H963 0.930 . S
C976 C975 1.376 . S
C976 C977 1.388 . S
C977 H964 0.930 . S
C977 C976 1.388 . S
C977 C978 1.390 . S
C978 C977 1.390 . S
C978 C979 1.394 . S
C978 C984 1.438 1_554 S
C979 C974 1.399 . S
C979 C978 1.394 . S
C979 C980 1.516 . S
C980 C979 1.516 . S
C980 C981 1.502 . S
C980 C982 1.561 . S
C980 C983 1.526 1_554 S
C981 H965 0.959 . S
C981 H966 0.959 . S
C981 H967 0.961 . S
C981 C980 1.502 . S
C982 H968 0.960 . S
C982 H969 0.961 1_554 S
C982 H970 0.959 1_554 S
C982 C980 1.561 . S
C983 C980 1.526 1_556 S
C983 C984 1.401 . S
C983 C988 1.390 . S
C984 C978 1.438 1_556 S
C984 C983 1.401 . S
C984 C985 1.420 . S
C985 H971 0.929 . S
C985 C984 1.420 . S
C985 C986 1.385 . S
C986 H972 0.931 . S
C986 C985 1.385 . S
C986 C987 1.389 . S
C987 C986 1.389 . S
C987 C988 1.387 . S
C988 H973 0.930 . S
C988 C983 1.390 . S
C988 C987 1.387 . S
H989 C1001 0.930 1_565 S
H990 C1003 0.930 . S
H991 C1004 0.930 . S
H992 C1008 0.959 . S
H993 C1008 0.959 . S
H994 C1008 0.961 . S
H995 C1009 0.960 . S
H996 C1009 0.961 . S
H997 C1009 0.959 . S
H998 C1012 0.929 . S
H999 C1013 0.931 . S
H1000 C1015 0.930 . S
C1001 H989 0.930 1_545 S
C1001 C1002 1.399 . S
C1001 C1006 1.399 1_545 S
C1002 C1001 1.399 . S
C1002 C1003 1.376 . S
C1003 H990 0.930 . S
C1003 C1002 1.376 . S
C1003 C1004 1.388 . S
C1004 H991 0.930 . S
C1004 C1003 1.388 . S
C1004 C1005 1.390 . S
C1005 C1004 1.390 . S
C1005 C1006 1.394 1_545 S
C1005 C1011 1.457 1_545 S
C1006 C1001 1.399 1_565 S
C1006 C1005 1.394 1_565 S
C1006 C1007 1.516 . S
C1007 C1006 1.516 . S
C1007 C1008 1.502 . S
C1007 C1009 1.561 . S
C1007 C1010 1.526 . S
C1008 H992 0.959 . S
C1008 H993 0.959 . S
C1008 H994 0.961 . S
C1008 C1007 1.502 . S
C1009 H995 0.960 . S
C1009 H996 0.961 . S
C1009 H997 0.959 . S
C1009 C1007 1.561 . S
C1010 C1007 1.526 . S
C1010 C1011 1.412 . S
C1010 C1015 1.390 . S
C1011 C1005 1.457 1_565 S
C1011 C1010 1.412 . S
C1011 C1012 1.394 1_565 S
C1012 H998 0.929 . S
C1012 C1011 1.394 1_545 S
C1012 C1013 1.385 1_545 S
C1013 H999 0.931 . S
C1013 C1012 1.385 1_565 S
C1013 C1014 1.389 . S
C1014 C1013 1.389 . S
C1014 C1015 1.387 . S
C1015 H1000 0.930 . S
C1015 C1010 1.390 . S
C1015 C1014 1.387 . S
H1016 C1028 0.930 . S
H1017 C1030 0.930 . S
H1018 C1031 0.930 . S
H1019 C1035 0.959 . S
H1020 C1035 0.959 . S
H1021 C1035 0.961 . S
H1022 C1036 0.960 . S
H1023 C1036 0.961 . S
H1024 C1036 0.959 . S
H1025 C1039 0.929 . S
H1026 C1040 0.931 . S
H1027 C1042 0.930 . S
C1028 H1016 0.930 . S
C1028 C1029 1.399 . S
C1028 C1033 1.399 . S
C1029 C1028 1.399 . S
C1029 C1030 1.376 . S
C1030 H1017 0.930 . S
C1030 C1029 1.376 . S
C1030 C1031 1.388 . S
C1031 H1018 0.930 . S
C1031 C1030 1.388 . S
C1031 C1032 1.390 . S
C1032 C1031 1.390 . S
C1032 C1033 1.394 . S
C1032 C1038 1.465 . S
C1033 C1028 1.399 . S
C1033 C1032 1.394 . S
C1033 C1034 1.516 . S
C1034 C1033 1.516 . S
C1034 C1035 1.502 . S
C1034 C1036 1.561 . S
C1034 C1037 1.526 . S
C1035 H1019 0.959 . S
C1035 H1020 0.959 . S
C1035 H1021 0.961 . S
C1035 C1034 1.502 . S
C1036 H1022 0.960 . S
C1036 H1023 0.961 . S
C1036 H1024 0.959 . S
C1036 C1034 1.561 . S
C1037 C1034 1.526 . S
C1037 C1038 1.396 . S
C1037 C1042 1.390 . S
C1038 C1032 1.465 . S
C1038 C1037 1.396 . S
C1038 C1039 1.399 . S
C1039 H1025 0.929 . S
C1039 C1038 1.399 . S
C1039 C1040 1.385 . S
C1040 H1026 0.931 . S
C1040 C1039 1.385 . S
C1040 C1041 1.389 . S
C1041 C1040 1.389 . S
C1041 C1042 1.387 . S
C1042 H1027 0.930 . S
C1042 C1037 1.390 . S
C1042 C1041 1.387 . S
H1043 C1055 0.930 . S
H1044 C1057 0.930 . S
H1045 C1058 0.930 . S
H1046 C1062 0.959 . S
H1047 C1062 0.959 . S
H1048 C1062 0.961 . S
H1049 C1063 0.960 . S
H1050 C1063 0.961 . S
H1051 C1063 0.959 . S
H1052 C1066 0.929 . S
H1053 C1067 0.931 . S
H1054 C1069 0.930 . S
C1055 H1043 0.930 . S
C1055 C1056 1.399 . S
C1055 C1060 1.399 . S
C1056 C1055 1.399 . S
C1056 C1057 1.376 . S
C1057 H1044 0.930 . S
C1057 C1056 1.376 . S
C1057 C1058 1.388 . S
C1058 H1045 0.930 . S
C1058 C1057 1.388 . S
C1058 C1059 1.390 . S
C1059 C1058 1.390 . S
C1059 C1060 1.394 . S
C1059 C1065 1.465 . S
C1060 C1055 1.399 . S
C1060 C1059 1.394 . S
C1060 C1061 1.516 . S
C1061 C1060 1.516 . S
C1061 C1062 1.502 . S
C1061 C1063 1.561 . S
C1061 C1064 1.526 . S
C1062 H1046 0.959 . S
C1062 H1047 0.959 . S
C1062 H1048 0.961 . S
C1062 C1061 1.502 . S
C1063 H1049 0.960 . S
C1063 H1050 0.961 . S
C1063 H1051 0.959 . S
C1063 C1061 1.561 . S
C1064 C1061 1.526 . S
C1064 C1065 1.396 . S
C1064 C1069 1.390 . S
C1065 C1059 1.465 . S
C1065 C1064 1.396 . S
C1065 C1066 1.399 . S
C1066 H1052 0.929 . S
C1066 C1065 1.399 . S
C1066 C1067 1.385 . S
C1067 H1053 0.931 . S
C1067 C1066 1.385 . S
C1067 C1068 1.389 . S
C1068 C1067 1.389 . S
C1068 C1069 1.387 . S
C1069 H1054 0.930 . S
C1069 C1064 1.390 . S
C1069 C1068 1.387 . S
H1070 C1082 0.930 . S
H1071 C1084 0.930 . S
H1072 C1085 0.930 . S
H1073 C1089 0.959 . S
H1074 C1089 0.959 . S
H1075 C1089 0.961 . S
H1076 C1090 0.960 . S
H1077 C1090 0.961 1_455 S
H1078 C1090 0.959 . S
H1079 C1093 0.929 . S
H1080 C1094 0.931 . S
H1081 C1096 0.930 . S
C1082 H1070 0.930 . S
C1082 C1083 1.399 . S
C1082 C1087 1.399 . S
C1083 C1082 1.399 . S
C1083 C1084 1.376 . S
C1084 H1071 0.930 . S
C1084 C1083 1.376 . S
C1084 C1085 1.388 . S
C1085 H1072 0.930 . S
C1085 C1084 1.388 . S
C1085 C1086 1.390 . S
C1086 C1085 1.390 . S
C1086 C1087 1.394 . S
C1086 C1092 1.465 1_655 S
C1087 C1082 1.399 . S
C1087 C1086 1.394 . S
C1087 C1088 1.516 1_655 S
C1088 C1087 1.516 1_455 S
C1088 C1089 1.502 . S
C1088 C1090 1.561 1_455 S
C1088 C1091 1.526 . S
C1089 H1073 0.959 . S
C1089 H1074 0.959 . S
C1089 H1075 0.961 . S
C1089 C1088 1.502 . S
C1090 H1076 0.960 . S
C1090 H1077 0.961 1_655 S
C1090 H1078 0.959 . S
C1090 C1088 1.561 1_655 S
C1091 C1088 1.526 . S
C1091 C1092 1.396 . S
C1091 C1096 1.390 . S
C1092 C1086 1.465 1_455 S
C1092 C1091 1.396 . S
C1092 C1093 1.399 . S
C1093 H1079 0.929 . S
C1093 C1092 1.399 . S
C1093 C1094 1.385 . S
C1094 H1080 0.931 . S
C1094 C1093 1.385 . S
C1094 C1095 1.389 . S
C1095 C1094 1.389 . S
C1095 C1096 1.387 . S
C1096 H1081 0.930 . S
C1096 C1091 1.390 . S
C1096 C1095 1.387 . S
H1097 C1109 0.930 . S
H1098 C1111 0.930 . S
H1099 C1112 0.930 1_455 S
H1100 C1116 0.959 . S
H1101 C1116 0.959 . S
H1102 C1116 0.961 . S
H1103 C1117 0.960 1_655 S
H1104 C1117 0.961 . S
H1105 C1117 0.959 . S
H1106 C1120 0.929 . S
H1107 C1121 0.931 . S
H1108 C1123 0.930 . S
C1109 H1097 0.930 . S
C1109 C1110 1.399 . S
C1109 C1114 1.399 . S
C1110 C1109 1.399 . S
C1110 C1111 1.376 . S
C1111 H1098 0.930 . S
C1111 C1110 1.376 . S
C1111 C1112 1.388 . S
C1112 H1099 0.930 1_655 S
C1112 C1111 1.388 . S
C1112 C1113 1.390 . S
C1113 C1112 1.390 . S
C1113 C1114 1.394 . S
C1113 C1119 1.465 1_655 S
C1114 C1109 1.399 . S
C1114 C1113 1.394 . S
C1114 C1115 1.516 . S
C1115 C1114 1.516 . S
C1115 C1116 1.502 . S
C1115 C1117 1.561 1_655 S
C1115 C1118 1.526 1_655 S
C1116 H1100 0.959 . S
C1116 H1101 0.959 . S
C1116 H1102 0.961 . S
C1116 C1115 1.502 . S
C1117 H1103 0.960 1_455 S
C1117 H1104 0.961 . S
C1117 H1105 0.959 . S
C1117 C1115 1.561 1_455 S
C1118 C1115 1.526 1_455 S
C1118 C1119 1.396 . S
C1118 C1123 1.390 . S
C1119 C1113 1.465 1_455 S
C1119 C1118 1.396 . S
C1119 C1120 1.399 . S
C1120 H1106 0.929 . S
C1120 C1119 1.399 . S
C1120 C1121 1.385 . S
C1121 H1107 0.931 . S
C1121 C1120 1.385 . S
C1121 C1122 1.389 . S
C1122 C1121 1.389 . S
C1122 C1123 1.387 . S
C1123 H1108 0.930 . S
C1123 C1118 1.390 . S
C1123 C1122 1.387 . S
H1124 C1136 0.930 . S
H1125 C1138 0.930 . S
H1126 C1139 0.930 . S
H1127 C1143 0.959 . S
H1128 C1143 0.959 . S
H1129 C1143 0.961 . S
H1130 C1144 0.960 . S
H1131 C1144 0.961 . S
H1132 C1144 0.959 . S
H1133 C1147 0.929 . S
H1134 C1148 0.931 . S
H1135 C1150 0.930 . S
C1136 H1124 0.930 . S
C1136 C1137 1.399 . S
C1136 C1141 1.399 . S
C1137 C1136 1.399 . S
C1137 C1138 1.376 . S
C1138 H1125 0.930 . S
C1138 C1137 1.376 . S
C1138 C1139 1.388 . S
C1139 H1126 0.930 . S
C1139 C1138 1.388 . S
C1139 C1140 1.390 . S
C1140 C1139 1.390 . S
C1140 C1141 1.394 . S
C1140 C1146 1.465 . S
C1141 C1136 1.399 . S
C1141 C1140 1.394 . S
C1141 C1142 1.516 . S
C1142 C1141 1.516 . S
C1142 C1143 1.502 . S
C1142 C1144 1.561 . S
C1142 C1145 1.526 . S
C1143 H1127 0.959 . S
C1143 H1128 0.959 . S
C1143 H1129 0.961 . S
C1143 C1142 1.502 . S
C1144 H1130 0.960 . S
C1144 H1131 0.961 . S
C1144 H1132 0.959 . S
C1144 C1142 1.561 . S
C1145 C1142 1.526 . S
C1145 C1146 1.396 . S
C1145 C1150 1.390 . S
C1146 C1140 1.465 . S
C1146 C1145 1.396 . S
C1146 C1147 1.399 . S
C1147 H1133 0.929 . S
C1147 C1146 1.399 . S
C1147 C1148 1.385 . S
C1148 H1134 0.931 . S
C1148 C1147 1.385 . S
C1148 C1149 1.389 . S
C1149 C1148 1.389 . S
C1149 C1150 1.387 . S
C1150 H1135 0.930 . S
C1150 C1145 1.390 . S
C1150 C1149 1.387 . S
H1151 C1163 0.930 . S
H1152 C1165 0.930 . S
H1153 C1166 0.930 . S
H1154 C1170 0.959 . S
H1155 C1170 0.959 . S
H1156 C1170 0.961 . S
H1157 C1171 0.960 . S
H1158 C1171 0.961 . S
H1159 C1171 0.959 . S
H1160 C1174 0.929 . S
H1161 C1175 0.931 . S
H1162 C1177 0.930 . S
C1163 H1151 0.930 . S
C1163 C1164 1.399 . S
C1163 C1168 1.399 . S
C1164 C1163 1.399 . S
C1164 C1165 1.376 . S
C1165 H1152 0.930 . S
C1165 C1164 1.376 . S
C1165 C1166 1.388 . S
C1166 H1153 0.930 . S
C1166 C1165 1.388 . S
C1166 C1167 1.390 . S
C1167 C1166 1.390 . S
C1167 C1168 1.394 . S
C1167 C1173 1.465 . S
C1168 C1163 1.399 . S
C1168 C1167 1.394 . S
C1168 C1169 1.516 . S
C1169 C1168 1.516 . S
C1169 C1170 1.502 . S
C1169 C1171 1.561 . S
C1169 C1172 1.526 . S
C1170 H1154 0.959 . S
C1170 H1155 0.959 . S
C1170 H1156 0.961 . S
C1170 C1169 1.502 . S
C1171 H1157 0.960 . S
C1171 H1158 0.961 . S
C1171 H1159 0.959 . S
C1171 C1169 1.561 . S
C1172 C1169 1.526 . S
C1172 C1173 1.396 . S
C1172 C1177 1.390 . S
C1173 C1167 1.465 . S
C1173 C1172 1.396 . S
C1173 C1174 1.399 . S
C1174 H1160 0.929 . S
C1174 C1173 1.399 . S
C1174 C1175 1.385 . S
C1175 H1161 0.931 . S
C1175 C1174 1.385 . S
C1175 C1176 1.389 . S
C1176 C1175 1.389 . S
C1176 C1177 1.387 . S
C1177 H1162 0.930 . S
C1177 C1172 1.390 . S
C1177 C1176 1.387 . S
H1178 C1190 0.930 . S
H1179 C1192 0.930 . S
H1180 C1193 0.930 . S
H1181 C1197 0.959 . S
H1182 C1197 0.959 . S
H1183 C1197 0.947 1_455 S
H1184 C1198 0.960 . S
H1185 C1198 0.961 . S
H1186 C1198 0.959 . S
H1187 C1201 0.929 . S
H1188 C1202 0.931 . S
H1189 C1204 0.930 . S
C1190 H1178 0.930 . S
C1190 C1191 1.399 . S
C1190 C1195 1.399 . S
C1191 C1190 1.399 . S
C1191 C1192 1.376 . S
C1192 H1179 0.930 . S
C1192 C1191 1.376 . S
C1192 C1193 1.388 . S
C1193 H1180 0.930 . S
C1193 C1192 1.388 . S
C1193 C1194 1.390 . S
C1194 C1193 1.390 . S
C1194 C1195 1.394 . S
C1194 C1200 1.465 1_455 S
C1195 C1190 1.399 . S
C1195 C1194 1.394 . S
C1195 C1196 1.518 . S
C1196 C1195 1.518 . S
C1196 C1197 1.500 1_455 S
C1196 C1198 1.563 . S
C1196 C1199 1.524 1_455 S
C1197 H1181 0.959 . S
C1197 H1182 0.959 . S
C1197 H1183 0.947 1_655 S
C1197 C1196 1.500 1_655 S
C1198 H1184 0.960 . S
C1198 H1185 0.961 . S
C1198 H1186 0.959 . S
C1198 C1196 1.563 . S
C1199 C1196 1.524 1_655 S
C1199 C1200 1.396 . S
C1199 C1204 1.390 . S
C1200 C1194 1.465 1_655 S
C1200 C1199 1.396 . S
C1200 C1201 1.399 . S
C1201 H1187 0.929 . S
C1201 C1200 1.399 . S
C1201 C1202 1.385 . S
C1202 H1188 0.931 . S
C1202 C1201 1.385 . S
C1202 C1203 1.389 . S
C1203 C1202 1.389 . S
C1203 C1204 1.387 . S
C1204 H1189 0.930 . S
C1204 C1199 1.390 . S
C1204 C1203 1.387 . S
H1205 C1217 0.930 . S
H1206 C1219 0.930 . S
H1207 C1220 0.930 . S
H1208 C1224 0.959 . S
H1209 C1224 0.959 . S
H1210 C1224 0.961 . S
H1211 C1225 0.960 . S
H1212 C1225 0.965 . S
H1213 C1225 0.959 1_655 S
H1214 C1228 0.929 . S
H1215 C1229 0.931 . S
H1216 C1231 0.930 . S
C1217 H1205 0.930 . S
C1217 C1218 1.399 . S
C1217 C1222 1.399 . S
C1218 C1217 1.399 . S
C1218 C1219 1.376 . S
C1219 H1206 0.930 . S
C1219 C1218 1.376 . S
C1219 C1220 1.388 1_455 S
C1220 H1207 0.930 . S
C1220 C1219 1.388 1_655 S
C1220 C1221 1.390 . S
C1221 C1220 1.390 . S
C1221 C1222 1.394 1_655 S
C1221 C1227 1.465 . S
C1222 C1217 1.399 . S
C1222 C1221 1.394 1_455 S
C1222 C1223 1.516 . S
C1223 C1222 1.516 . S
C1223 C1224 1.502 . S
C1223 C1225 1.561 . S
C1223 C1226 1.526 1_455 S
C1224 H1208 0.959 . S
C1224 H1209 0.959 . S
C1224 H1210 0.961 . S
C1224 C1223 1.502 . S
C1225 H1211 0.960 . S
C1225 H1212 0.965 . S
C1225 H1213 0.959 1_455 S
C1225 C1223 1.561 . S
C1226 C1223 1.526 1_655 S
C1226 C1227 1.396 . S
C1226 C1231 1.390 . S
C1227 C1221 1.465 . S
C1227 C1226 1.396 . S
C1227 C1228 1.399 . S
C1228 H1214 0.929 . S
C1228 C1227 1.399 . S
C1228 C1229 1.385 . S
C1229 H1215 0.931 . S
C1229 C1228 1.385 . S
C1229 C1230 1.389 . S
C1230 C1229 1.389 . S
C1230 C1231 1.387 . S
C1231 H1216 0.930 . S
C1231 C1226 1.390 . S
C1231 C1230 1.387 . S
H1232 C1244 0.930 . S
H1233 C1246 0.930 . S
H1234 C1247 0.930 . S
H1235 C1251 0.959 . S
H1236 C1251 0.959 . S
H1237 C1251 0.961 . S
H1238 C1252 0.960 . S
H1239 C1252 0.961 . S
H1240 C1252 0.959 . S
H1241 C1255 0.929 . S
H1242 C1256 0.931 . S
H1243 C1258 0.930 . S
C1244 H1232 0.930 . S
C1244 C1245 1.399 . S
C1244 C1249 1.399 . S
C1245 C1244 1.399 . S
C1245 C1246 1.376 . S
C1246 H1233 0.930 . S
C1246 C1245 1.376 . S
C1246 C1247 1.388 . S
C1247 H1234 0.930 . S
C1247 C1246 1.388 . S
C1247 C1248 1.390 . S
C1248 C1247 1.390 . S
C1248 C1249 1.394 . S
C1248 C1254 1.465 . S
C1249 C1244 1.399 . S
C1249 C1248 1.394 . S
C1249 C1250 1.516 . S
C1250 C1249 1.516 . S
C1250 C1251 1.502 . S
C1250 C1252 1.561 . S
C1250 C1253 1.526 . S
C1251 H1235 0.959 . S
C1251 H1236 0.959 . S
C1251 H1237 0.961 . S
C1251 C1250 1.502 . S
C1252 H1238 0.960 . S
C1252 H1239 0.961 . S
C1252 H1240 0.959 . S
C1252 C1250 1.561 . S
C1253 C1250 1.526 . S
C1253 C1254 1.396 . S
C1253 C1258 1.390 . S
C1254 C1248 1.465 . S
C1254 C1253 1.396 . S
C1254 C1255 1.399 . S
C1255 H1241 0.929 . S
C1255 C1254 1.399 . S
C1255 C1256 1.385 . S
C1256 H1242 0.931 . S
C1256 C1255 1.385 . S
C1256 C1257 1.389 . S
C1257 C1256 1.389 . S
C1257 C1258 1.387 . S
C1258 H1243 0.930 . S
C1258 C1253 1.390 . S
C1258 C1257 1.387 . S
H1259 C1271 0.930 . S
H1260 C1273 0.930 . S
H1261 C1274 0.930 . S
H1262 C1278 0.959 . S
H1263 C1278 0.959 . S
H1264 C1278 0.961 . S
H1265 C1279 0.960 . S
H1266 C1279 0.961 . S
H1267 C1279 0.959 . S
H1268 C1282 0.929 . S
H1269 C1283 0.931 . S
H1270 C1285 0.930 . S
C1271 H1259 0.930 . S
C1271 C1272 1.399 . S
C1271 C1276 1.399 . S
C1272 C1271 1.399 . S
C1272 C1273 1.376 . S
C1273 H1260 0.930 . S
C1273 C1272 1.376 . S
C1273 C1274 1.388 . S
C1274 H1261 0.930 . S
C1274 C1273 1.388 . S
C1274 C1275 1.390 . S
C1275 C1274 1.390 . S
C1275 C1276 1.394 . S
C1275 C1281 1.465 . S
C1276 C1271 1.399 . S
C1276 C1275 1.394 . S
C1276 C1277 1.516 . S
C1277 C1276 1.516 . S
C1277 C1278 1.502 . S
C1277 C1279 1.561 . S
C1277 C1280 1.526 . S
C1278 H1262 0.959 . S
C1278 H1263 0.959 . S
C1278 H1264 0.961 . S
C1278 C1277 1.502 . S
C1279 H1265 0.960 . S
C1279 H1266 0.961 . S
C1279 H1267 0.959 . S
C1279 C1277 1.561 . S
C1280 C1277 1.526 . S
C1280 C1281 1.396 . S
C1280 C1285 1.390 . S
C1281 C1275 1.465 . S
C1281 C1280 1.396 . S
C1281 C1282 1.399 . S
C1282 H1268 0.929 . S
C1282 C1281 1.399 . S
C1282 C1283 1.385 . S
C1283 H1269 0.931 . S
C1283 C1282 1.385 . S
C1283 C1284 1.389 . S
C1284 C1283 1.389 . S
C1284 C1285 1.387 . S
C1285 H1270 0.930 . S
C1285 C1280 1.390 . S
C1285 C1284 1.387 . S
H1286 C1298 0.930 . S
H1287 C1300 0.930 . S
H1288 C1301 0.930 . S
H1289 C1305 0.959 . S
H1290 C1305 0.959 . S
H1291 C1305 0.961 . S
H1292 C1306 0.960 . S
H1293 C1306 0.961 . S
H1294 C1306 0.959 . S
H1295 C1309 0.929 . S
H1296 C1310 0.931 . S
H1297 C1312 0.930 . S
C1298 H1286 0.930 . S
C1298 C1299 1.399 . S
C1298 C1303 1.399 . S
C1299 C1298 1.399 . S
C1299 C1300 1.376 . S
C1300 H1287 0.930 . S
C1300 C1299 1.376 . S
C1300 C1301 1.388 . S
C1301 H1288 0.930 . S
C1301 C1300 1.388 . S
C1301 C1302 1.390 . S
C1302 C1301 1.390 . S
C1302 C1303 1.394 . S
C1302 C1308 1.465 . S
C1303 C1298 1.399 . S
C1303 C1302 1.394 . S
C1303 C1304 1.516 . S
C1304 C1303 1.516 . S
C1304 C1305 1.502 . S
C1304 C1306 1.561 . S
C1304 C1307 1.526 . S
C1305 H1289 0.959 . S
C1305 H1290 0.959 . S
C1305 H1291 0.961 . S
C1305 C1304 1.502 . S
C1306 H1292 0.960 . S
C1306 H1293 0.961 . S
C1306 H1294 0.959 . S
C1306 C1304 1.561 . S
C1307 C1304 1.526 . S
C1307 C1308 1.396 . S
C1307 C1312 1.390 . S
C1308 C1302 1.465 . S
C1308 C1307 1.396 . S
C1308 C1309 1.399 . S
C1309 H1295 0.929 . S
C1309 C1308 1.399 . S
C1309 C1310 1.385 . S
C1310 H1296 0.931 . S
C1310 C1309 1.385 . S
C1310 C1311 1.389 . S
C1311 C1310 1.389 . S
C1311 C1312 1.387 . S
C1312 H1297 0.930 . S
C1312 C1307 1.390 . S
C1312 C1311 1.387 . S
H1313 C1325 0.930 . S
H1314 C1327 0.930 1_655 S
H1315 C1328 0.930 . S
H1316 C1332 0.959 . S
H1317 C1332 0.959 . S
H1318 C1332 0.961 . S
H1319 C1333 0.960 . S
H1320 C1333 0.961 . S
H1321 C1333 0.959 . S
H1322 C1336 0.929 . S
H1323 C1337 0.931 . S
H1324 C1339 0.930 . S
C1325 H1313 0.930 . S
C1325 C1326 1.399 . S
C1325 C1330 1.399 . S
C1326 C1325 1.399 . S
C1326 C1327 1.376 . S
C1327 H1314 0.930 1_455 S
C1327 C1326 1.376 . S
C1327 C1328 1.388 . S
C1328 H1315 0.930 . S
C1328 C1327 1.388 . S
C1328 C1329 1.390 . S
C1329 C1328 1.390 . S
C1329 C1330 1.394 . S
C1329 C1335 1.465 . S
C1330 C1325 1.399 . S
C1330 C1329 1.394 . S
C1330 C1331 1.516 . S
C1331 C1330 1.516 . S
C1331 C1332 1.502 . S
C1331 C1333 1.561 . S
C1331 C1334 1.526 . S
C1332 H1316 0.959 . S
C1332 H1317 0.959 . S
C1332 H1318 0.961 . S
C1332 C1331 1.502 . S
C1333 H1319 0.960 . S
C1333 H1320 0.961 . S
C1333 H1321 0.959 . S
C1333 C1331 1.561 . S
C1334 C1331 1.526 . S
C1334 C1335 1.396 . S
C1334 C1339 1.390 . S
C1335 C1329 1.465 . S
C1335 C1334 1.396 . S
C1335 C1336 1.399 . S
C1336 H1322 0.929 . S
C1336 C1335 1.399 . S
C1336 C1337 1.385 . S
C1337 H1323 0.931 . S
C1337 C1336 1.385 . S
C1337 C1338 1.389 . S
C1338 C1337 1.389 . S
C1338 C1339 1.387 . S
C1339 H1324 0.930 . S
C1339 C1334 1.390 . S
C1339 C1338 1.387 . S
H1340 C1352 0.930 . S
H1341 C1354 0.930 . S
H1342 C1355 0.930 . S
H1343 C1359 0.959 . S
H1344 C1359 0.959 . S
H1345 C1359 0.961 . S
H1346 C1360 0.960 . S
H1347 C1360 0.961 . S
H1348 C1360 0.959 . S
H1349 C1363 0.929 . S
H1350 C1364 0.931 . S
H1351 C1366 0.930 . S
C1352 H1340 0.930 . S
C1352 C1353 1.399 . S
C1352 C1357 1.399 . S
C1353 C1352 1.399 . S
C1353 C1354 1.376 . S
C1354 H1341 0.930 . S
C1354 C1353 1.376 . S
C1354 C1355 1.388 . S
C1355 H1342 0.930 . S
C1355 C1354 1.388 . S
C1355 C1356 1.390 . S
C1356 C1355 1.390 . S
C1356 C1357 1.394 . S
C1356 C1362 1.465 . S
C1357 C1352 1.399 . S
C1357 C1356 1.394 . S
C1357 C1358 1.516 . S
C1358 C1357 1.516 . S
C1358 C1359 1.502 . S
C1358 C1360 1.561 . S
C1358 C1361 1.526 . S
C1359 H1343 0.959 . S
C1359 H1344 0.959 . S
C1359 H1345 0.961 . S
C1359 C1358 1.502 . S
C1360 H1346 0.960 . S
C1360 H1347 0.961 . S
C1360 H1348 0.959 . S
C1360 C1358 1.561 . S
C1361 C1358 1.526 . S
C1361 C1362 1.396 . S
C1361 C1366 1.390 . S
C1362 C1356 1.465 . S
C1362 C1361 1.396 . S
C1362 C1363 1.399 . S
C1363 H1349 0.929 . S
C1363 C1362 1.399 . S
C1363 C1364 1.385 . S
C1364 H1350 0.931 . S
C1364 C1363 1.385 . S
C1364 C1365 1.389 . S
C1365 C1364 1.389 . S
C1365 C1366 1.387 . S
C1366 H1351 0.930 . S
C1366 C1361 1.390 . S
C1366 C1365 1.387 . S
H1367 C1379 0.930 . S
H1368 C1381 0.930 . S
H1369 C1382 0.930 . S
H1370 C1386 0.959 . S
H1371 C1386 0.959 . S
H1372 C1386 0.961 . S
H1373 C1387 0.960 . S
H1374 C1387 0.961 . S
H1375 C1387 0.959 . S
H1376 C1390 0.929 . S
H1377 C1391 0.931 . S
H1378 C1393 0.930 . S
C1379 H1367 0.930 . S
C1379 C1380 1.399 . S
C1379 C1384 1.399 . S
C1380 C1379 1.399 . S
C1380 C1381 1.376 . S
C1381 H1368 0.930 . S
C1381 C1380 1.376 . S
C1381 C1382 1.388 . S
C1382 H1369 0.930 . S
C1382 C1381 1.388 . S
C1382 C1383 1.390 . S
C1383 C1382 1.390 . S
C1383 C1384 1.394 . S
C1383 C1389 1.465 . S
C1384 C1379 1.399 . S
C1384 C1383 1.394 . S
C1384 C1385 1.516 . S
C1385 C1384 1.516 . S
C1385 C1386 1.502 . S
C1385 C1387 1.561 . S
C1385 C1388 1.526 . S
C1386 H1370 0.959 . S
C1386 H1371 0.959 . S
C1386 H1372 0.961 . S
C1386 C1385 1.502 . S
C1387 H1373 0.960 . S
C1387 H1374 0.961 . S
C1387 H1375 0.959 . S
C1387 C1385 1.561 . S
C1388 C1385 1.526 . S
C1388 C1389 1.396 . S
C1388 C1393 1.390 . S
C1389 C1383 1.465 . S
C1389 C1388 1.396 . S
C1389 C1390 1.399 . S
C1390 H1376 0.929 . S
C1390 C1389 1.399 . S
C1390 C1391 1.385 . S
C1391 H1377 0.931 . S
C1391 C1390 1.385 . S
C1391 C1392 1.389 . S
C1392 C1391 1.389 . S
C1392 C1393 1.387 . S
C1393 H1378 0.930 . S
C1393 C1388 1.390 . S
C1393 C1392 1.387 . S
H1394 C1406 0.930 . S
H1395 C1408 0.930 . S
H1396 C1409 0.930 . S
H1397 C1413 0.959 . S
H1398 C1413 0.959 . S
H1399 C1413 0.961 . S
H1400 C1414 0.960 . S
H1401 C1414 0.961 . S
H1402 C1414 0.959 . S
H1403 C1417 0.929 . S
H1404 C1418 0.931 . S
H1405 C1420 0.930 . S
C1406 H1394 0.930 . S
C1406 C1407 1.399 . S
C1406 C1411 1.399 . S
C1407 C1406 1.399 . S
C1407 C1408 1.376 . S
C1408 H1395 0.930 . S
C1408 C1407 1.376 . S
C1408 C1409 1.388 . S
C1409 H1396 0.930 . S
C1409 C1408 1.388 . S
C1409 C1410 1.390 . S
C1410 C1409 1.390 . S
C1410 C1411 1.394 . S
C1410 C1416 1.465 . S
C1411 C1406 1.399 . S
C1411 C1410 1.394 . S
C1411 C1412 1.516 . S
C1412 C1411 1.516 . S
C1412 C1413 1.502 . S
C1412 C1414 1.561 . S
C1412 C1415 1.526 . S
C1413 H1397 0.959 . S
C1413 H1398 0.959 . S
C1413 H1399 0.961 . S
C1413 C1412 1.502 . S
C1414 H1400 0.960 . S
C1414 H1401 0.961 . S
C1414 H1402 0.959 . S
C1414 C1412 1.561 . S
C1415 C1412 1.526 . S
C1415 C1416 1.396 . S
C1415 C1420 1.390 . S
C1416 C1410 1.465 . S
C1416 C1415 1.396 . S
C1416 C1417 1.399 . S
C1417 H1403 0.929 . S
C1417 C1416 1.399 . S
C1417 C1418 1.385 . S
C1418 H1404 0.931 . S
C1418 C1417 1.385 . S
C1418 C1419 1.389 . S
C1419 C1418 1.389 . S
C1419 C1420 1.387 . S
C1420 H1405 0.930 . S
C1420 C1415 1.390 . S
C1420 C1419 1.387 . S
H1421 C1433 0.930 . S
H1422 C1435 0.930 . S
H1423 C1436 0.930 . S
H1424 C1440 0.959 . S
H1425 C1440 0.959 . S
H1426 C1440 0.961 . S
H1427 C1441 0.960 . S
H1428 C1441 0.961 . S
H1429 C1441 0.959 . S
H1430 C1444 0.929 . S
H1431 C1445 0.931 . S
H1432 C1447 0.930 . S
C1433 H1421 0.930 . S
C1433 C1434 1.399 . S
C1433 C1438 1.399 . S
C1434 C1433 1.399 . S
C1434 C1435 1.376 . S
C1435 H1422 0.930 . S
C1435 C1434 1.376 . S
C1435 C1436 1.388 . S
C1436 H1423 0.930 . S
C1436 C1435 1.388 . S
C1436 C1437 1.390 . S
C1437 C1436 1.390 . S
C1437 C1438 1.394 . S
C1437 C1443 1.465 . S
C1438 C1433 1.399 . S
C1438 C1437 1.394 . S
C1438 C1439 1.516 . S
C1439 C1438 1.516 . S
C1439 C1440 1.502 . S
C1439 C1441 1.561 . S
C1439 C1442 1.526 . S
C1440 H1424 0.959 . S
C1440 H1425 0.959 . S
C1440 H1426 0.961 . S
C1440 C1439 1.502 . S
C1441 H1427 0.960 . S
C1441 H1428 0.961 . S
C1441 H1429 0.959 . S
C1441 C1439 1.561 . S
C1442 C1439 1.526 . S
C1442 C1443 1.396 . S
C1442 C1447 1.390 . S
C1443 C1437 1.465 . S
C1443 C1442 1.396 . S
C1443 C1444 1.399 . S
C1444 H1430 0.929 . S
C1444 C1443 1.399 . S
C1444 C1445 1.385 . S
C1445 H1431 0.931 . S
C1445 C1444 1.385 . S
C1445 C1446 1.389 . S
C1446 C1445 1.389 . S
C1446 C1447 1.387 . S
C1447 H1432 0.930 . S
C1447 C1442 1.390 . S
C1447 C1446 1.387 . S
H1448 C1460 0.930 . S
H1449 C1462 0.930 . S
H1450 C1463 0.930 . S
H1451 C1467 0.959 . S
H1452 C1467 0.959 . S
H1453 C1467 0.961 . S
H1454 C1468 0.960 . S
H1455 C1468 0.961 . S
H1456 C1468 0.959 . S
H1457 C1471 0.929 . S
H1458 C1472 0.931 . S
H1459 C1474 0.930 . S
C1460 H1448 0.930 . S
C1460 C1461 1.399 . S
C1460 C1465 1.399 . S
C1461 C1460 1.399 . S
C1461 C1462 1.376 . S
C1462 H1449 0.930 . S
C1462 C1461 1.376 . S
C1462 C1463 1.388 . S
C1463 H1450 0.930 . S
C1463 C1462 1.388 . S
C1463 C1464 1.390 . S
C1464 C1463 1.390 . S
C1464 C1465 1.394 . S
C1464 C1470 1.465 . S
C1465 C1460 1.399 . S
C1465 C1464 1.394 . S
C1465 C1466 1.516 . S
C1466 C1465 1.516 . S
C1466 C1467 1.502 . S
C1466 C1468 1.561 . S
C1466 C1469 1.526 . S
C1467 H1451 0.959 . S
C1467 H1452 0.959 . S
C1467 H1453 0.961 . S
C1467 C1466 1.502 . S
C1468 H1454 0.960 . S
C1468 H1455 0.961 . S
C1468 H1456 0.959 . S
C1468 C1466 1.561 . S
C1469 C1466 1.526 . S
C1469 C1470 1.396 . S
C1469 C1474 1.390 . S
C1470 C1464 1.465 . S
C1470 C1469 1.396 . S
C1470 C1471 1.399 . S
C1471 H1457 0.929 . S
C1471 C1470 1.399 . S
C1471 C1472 1.385 . S
C1472 H1458 0.931 . S
C1472 C1471 1.385 . S
C1472 C1473 1.389 . S
C1473 C1472 1.389 . S
C1473 C1474 1.387 . S
C1474 H1459 0.930 . S
C1474 C1469 1.390 . S
C1474 C1473 1.387 . S
H1475 C1487 0.930 . S
H1476 C1489 0.930 . S
H1477 C1490 0.930 . S
H1478 C1494 0.959 . S
H1479 C1494 0.959 . S
H1480 C1494 0.961 . S
H1481 C1495 0.960 . S
H1482 C1495 0.961 . S
H1483 C1495 0.959 . S
H1484 C1498 0.929 . S
H1485 C1499 0.931 1_455 S
H1486 C1501 0.938 . S
C1487 H1475 0.930 . S
C1487 C1488 1.399 . S
C1487 C1492 1.399 . S
C1488 C1487 1.399 . S
C1488 C1489 1.376 . S
C1489 H1476 0.930 . S
C1489 C1488 1.376 . S
C1489 C1490 1.388 . S
C1490 H1477 0.930 . S
C1490 C1489 1.388 . S
C1490 C1491 1.390 . S
C1491 C1490 1.390 . S
C1491 C1492 1.394 . S
C1491 C1497 1.465 . S
C1492 C1487 1.399 . S
C1492 C1491 1.394 . S
C1492 C1493 1.516 . S
C1493 C1492 1.516 . S
C1493 C1494 1.502 1_565 S
C1493 C1495 1.561 . S
C1493 C1496 1.526 . S
C1494 H1478 0.959 . S
C1494 H1479 0.959 . S
C1494 H1480 0.961 . S
C1494 C1493 1.502 1_545 S
C1495 H1481 0.960 . S
C1495 H1482 0.961 . S
C1495 H1483 0.959 . S
C1495 C1493 1.561 . S
C1496 C1493 1.526 . S
C1496 C1497 1.396 . S
C1496 C1501 1.384 1_565 S
C1497 C1491 1.465 . S
C1497 C1496 1.396 . S
C1497 C1498 1.399 . S
C1498 H1484 0.929 . S
C1498 C1497 1.399 . S
C1498 C1499 1.385 . S
C1499 H1485 0.931 1_655 S
C1499 C1498 1.385 . S
C1499 C1500 1.389 . S
C1500 C1499 1.389 . S
C1500 C1501 1.384 1_565 S
C1501 H1486 0.938 . S
C1501 C1496 1.384 1_545 S
C1501 C1500 1.384 1_545 S
H1502 C1514 0.930 . S
H1503 C1516 0.930 . S
H1504 C1517 0.930 . S
H1505 C1521 0.959 . S
H1506 C1521 0.959 . S
H1507 C1521 0.961 . S
H1508 C1522 0.960 . S
H1509 C1522 0.961 . S
H1510 C1522 0.959 . S
H1511 C1525 0.929 . S
H1512 C1526 0.931 . S
H1513 C1528 0.930 . S
C1514 H1502 0.930 . S
C1514 C1515 1.399 . S
C1514 C1519 1.399 . S
C1515 C1514 1.399 . S
C1515 C1516 1.376 . S
C1516 H1503 0.930 . S
C1516 C1515 1.376 . S
C1516 C1517 1.388 . S
C1517 H1504 0.930 . S
C1517 C1516 1.388 . S
C1517 C1518 1.390 . S
C1518 C1517 1.390 . S
C1518 C1519 1.394 . S
C1518 C1524 1.465 . S
C1519 C1514 1.399 . S
C1519 C1518 1.394 . S
C1519 C1520 1.516 . S
C1520 C1519 1.516 . S
C1520 C1521 1.502 . S
C1520 C1522 1.561 . S
C1520 C1523 1.526 . S
C1521 H1505 0.959 . S
C1521 H1506 0.959 . S
C1521 H1507 0.961 . S
C1521 C1520 1.502 . S
C1522 H1508 0.960 . S
C1522 H1509 0.961 . S
C1522 H1510 0.959 . S
C1522 C1520 1.561 . S
C1523 C1520 1.526 . S
C1523 C1524 1.396 . S
C1523 C1528 1.390 . S
C1524 C1518 1.465 . S
C1524 C1523 1.396 . S
C1524 C1525 1.399 . S
C1525 H1511 0.929 . S
C1525 C1524 1.399 . S
C1525 C1526 1.385 . S
C1526 H1512 0.931 . S
C1526 C1525 1.385 . S
C1526 C1527 1.389 . S
C1527 C1526 1.389 . S
C1527 C1528 1.387 . S
C1528 H1513 0.930 . S
C1528 C1523 1.390 . S
C1528 C1527 1.387 . S
H1529 C1541 0.930 . S
H1530 C1543 0.930 . S
H1531 C1544 0.930 . S
H1532 C1548 0.959 . S
H1533 C1548 0.959 . S
H1534 C1548 0.961 . S
H1535 C1549 0.960 1_565 S
H1536 C1549 0.961 . S
H1537 C1549 0.959 1_565 S
H1538 C1552 0.929 . S
H1539 C1553 0.931 . S
H1540 C1555 0.930 . S
C1541 H1529 0.930 . S
C1541 C1542 1.399 . S
C1541 C1546 1.399 . S
C1542 C1541 1.399 . S
C1542 C1543 1.376 . S
C1543 H1530 0.930 . S
C1543 C1542 1.376 . S
C1543 C1544 1.388 . S
C1544 H1531 0.930 . S
C1544 C1543 1.388 . S
C1544 C1545 1.390 . S
C1545 C1544 1.390 . S
C1545 C1546 1.394 . S
C1545 C1551 1.465 . S
C1546 C1541 1.399 . S
C1546 C1545 1.394 . S
C1546 C1547 1.516 . S
C1547 C1546 1.516 . S
C1547 C1548 1.502 . S
C1547 C1549 1.561 . S
C1547 C1550 1.526 . S
C1548 H1532 0.959 . S
C1548 H1533 0.959 . S
C1548 H1534 0.961 . S
C1548 C1547 1.502 . S
C1549 H1535 0.960 1_545 S
C1549 H1536 0.961 . S
C1549 H1537 0.959 1_545 S
C1549 C1547 1.561 . S
C1550 C1547 1.526 . S
C1550 C1551 1.396 . S
C1550 C1555 1.390 . S
C1551 C1545 1.465 . S
C1551 C1550 1.396 . S
C1551 C1552 1.399 . S
C1552 H1538 0.929 . S
C1552 C1551 1.399 . S
C1552 C1553 1.385 . S
C1553 H1539 0.931 . S
C1553 C1552 1.385 . S
C1553 C1554 1.389 . S
C1554 C1553 1.389 . S
C1554 C1555 1.387 . S
C1555 H1540 0.930 . S
C1555 C1550 1.390 . S
C1555 C1554 1.387 . S
H1556 C1568 0.930 . S
H1557 C1570 0.930 . S
H1558 C1571 0.930 . S
H1559 C1575 0.959 . S
H1560 C1575 0.959 . S
H1561 C1575 0.961 . S
H1562 C1576 0.960 . S
H1563 C1576 0.961 . S
H1564 C1576 0.959 . S
H1565 C1579 0.929 . S
H1566 C1580 0.931 . S
H1567 C1582 0.930 . S
C1568 H1556 0.930 . S
C1568 C1569 1.399 . S
C1568 C1573 1.399 . S
C1569 C1568 1.399 . S
C1569 C1570 1.376 . S
C1570 H1557 0.930 . S
C1570 C1569 1.376 . S
C1570 C1571 1.388 . S
C1571 H1558 0.930 . S
C1571 C1570 1.388 . S
C1571 C1572 1.390 . S
C1572 C1571 1.390 . S
C1572 C1573 1.394 . S
C1572 C1578 1.465 . S
C1573 C1568 1.399 . S
C1573 C1572 1.394 . S
C1573 C1574 1.516 . S
C1574 C1573 1.516 . S
C1574 C1575 1.502 . S
C1574 C1576 1.561 . S
C1574 C1577 1.526 . S
C1575 H1559 0.959 . S
C1575 H1560 0.959 . S
C1575 H1561 0.961 . S
C1575 C1574 1.502 . S
C1576 H1562 0.960 . S
C1576 H1563 0.961 . S
C1576 H1564 0.959 . S
C1576 C1574 1.561 . S
C1577 C1574 1.526 . S
C1577 C1578 1.396 . S
C1577 C1582 1.390 . S
C1578 C1572 1.465 . S
C1578 C1577 1.396 . S
C1578 C1579 1.399 . S
C1579 H1565 0.929 . S
C1579 C1578 1.399 . S
C1579 C1580 1.385 . S
C1580 H1566 0.931 . S
C1580 C1579 1.385 . S
C1580 C1581 1.389 . S
C1581 C1580 1.389 . S
C1581 C1582 1.387 . S
C1582 H1567 0.930 . S
C1582 C1577 1.390 . S
C1582 C1581 1.387 . S
H1583 C1595 0.930 . S
H1584 C1597 0.930 . S
H1585 C1598 0.930 . S
H1586 C1602 0.959 . S
H1587 C1602 0.959 . S
H1588 C1602 0.961 . S
H1589 C1603 0.960 . S
H1590 C1603 0.961 . S
H1591 C1603 0.959 . S
H1592 C1606 0.929 . S
H1593 C1607 0.931 . S
H1594 C1609 0.930 . S
C1595 H1583 0.930 . S
C1595 C1596 1.399 . S
C1595 C1600 1.399 . S
C1596 C1595 1.399 . S
C1596 C1597 1.376 1_545 S
C1597 H1584 0.930 . S
C1597 C1596 1.376 1_565 S
C1597 C1598 1.388 . S
C1598 H1585 0.930 . S
C1598 C1597 1.388 . S
C1598 C1599 1.390 1_565 S
C1599 C1598 1.390 1_545 S
C1599 C1600 1.394 . S
C1599 C1605 1.465 . S
C1600 C1595 1.399 . S
C1600 C1599 1.394 . S
C1600 C1601 1.516 . S
C1601 C1600 1.516 . S
C1601 C1602 1.502 . S
C1601 C1603 1.561 . S
C1601 C1604 1.526 . S
C1602 H1586 0.959 . S
C1602 H1587 0.959 . S
C1602 H1588 0.961 . S
C1602 C1601 1.502 . S
C1603 H1589 0.960 . S
C1603 H1590 0.961 . S
C1603 H1591 0.959 . S
C1603 C1601 1.561 . S
C1604 C1601 1.526 . S
C1604 C1605 1.396 . S
C1604 C1609 1.390 . S
C1605 C1599 1.465 . S
C1605 C1604 1.396 . S
C1605 C1606 1.399 . S
C1606 H1592 0.929 . S
C1606 C1605 1.399 . S
C1606 C1607 1.385 . S
C1607 H1593 0.931 . S
C1607 C1606 1.385 . S
C1607 C1608 1.389 . S
C1608 C1607 1.389 . S
C1608 C1609 1.387 . S
C1609 H1594 0.930 . S
C1609 C1604 1.390 . S
C1609 C1608 1.387 . S
H1610 C1622 0.930 . S
H1611 C1624 0.930 . S
H1612 C1625 0.930 . S
H1613 C1629 0.959 . S
H1614 C1629 0.959 . S
H1615 C1629 0.961 . S
H1616 C1630 0.960 . S
H1617 C1630 0.961 . S
H1618 C1630 0.959 . S
H1619 C1633 0.929 . S
H1620 C1634 0.931 . S
H1621 C1636 0.930 . S
C1622 H1610 0.930 . S
C1622 C1623 1.399 . S
C1622 C1627 1.399 . S
C1623 C1622 1.399 . S
C1623 C1624 1.376 . S
C1624 H1611 0.930 . S
C1624 C1623 1.376 . S
C1624 C1625 1.388 . S
C1625 H1612 0.930 . S
C1625 C1624 1.388 . S
C1625 C1626 1.390 . S
C1626 C1625 1.390 . S
C1626 C1627 1.394 . S
C1626 C1632 1.465 . S
C1627 C1622 1.399 . S
C1627 C1626 1.394 . S
C1627 C1628 1.516 . S
C1628 C1627 1.516 . S
C1628 C1629 1.502 . S
C1628 C1630 1.561 . S
C1628 C1631 1.526 . S
C1629 H1613 0.959 . S
C1629 H1614 0.959 . S
C1629 H1615 0.961 . S
C1629 C1628 1.502 . S
C1630 H1616 0.960 . S
C1630 H1617 0.961 . S
C1630 H1618 0.959 . S
C1630 C1628 1.561 . S
C1631 C1628 1.526 . S
C1631 C1632 1.396 . S
C1631 C1636 1.390 . S
C1632 C1626 1.465 . S
C1632 C1631 1.396 . S
C1632 C1633 1.399 . S
C1633 H1619 0.929 . S
C1633 C1632 1.399 . S
C1633 C1634 1.385 . S
C1634 H1620 0.931 . S
C1634 C1633 1.385 . S
C1634 C1635 1.389 . S
C1635 C1634 1.389 . S
C1635 C1636 1.387 . S
C1636 H1621 0.930 . S
C1636 C1631 1.390 . S
C1636 C1635 1.387 . S
H1637 C1649 0.930 . S
H1638 C1651 0.930 . S
H1639 C1652 0.930 . S
H1640 C1656 0.959 . S
H1641 C1656 0.959 . S
H1642 C1656 0.961 . S
H1643 C1657 0.960 . S
H1644 C1657 0.961 . S
H1645 C1657 0.959 1_545 S
H1646 C1660 0.929 . S
H1647 C1661 0.931 1_545 S
H1648 C1663 0.930 . S
C1649 H1637 0.930 . S
C1649 C1650 1.399 . S
C1649 C1654 1.399 . S
C1650 C1649 1.399 . S
C1650 C1651 1.376 . S
C1651 H1638 0.930 . S
C1651 C1650 1.376 . S
C1651 C1652 1.388 . S
C1652 H1639 0.930 . S
C1652 C1651 1.388 . S
C1652 C1653 1.390 . S
C1653 C1652 1.390 . S
C1653 C1654 1.394 . S
C1653 C1659 1.465 . S
C1654 C1649 1.399 . S
C1654 C1653 1.394 . S
C1654 C1655 1.516 . S
C1655 C1654 1.516 . S
C1655 C1656 1.502 . S
C1655 C1657 1.561 . S
C1655 C1658 1.526 . S
C1656 H1640 0.959 . S
C1656 H1641 0.959 . S
C1656 H1642 0.961 . S
C1656 C1655 1.502 . S
C1657 H1643 0.960 . S
C1657 H1644 0.961 . S
C1657 H1645 0.959 1_565 S
C1657 C1655 1.561 . S
C1658 C1655 1.526 . S
C1658 C1659 1.396 . S
C1658 C1663 1.390 . S
C1659 C1653 1.465 . S
C1659 C1658 1.396 . S
C1659 C1660 1.399 . S
C1660 H1646 0.929 . S
C1660 C1659 1.399 . S
C1660 C1661 1.385 . S
C1661 H1647 0.931 1_565 S
C1661 C1660 1.385 . S
C1661 C1662 1.389 . S
C1662 C1661 1.389 . S
C1662 C1663 1.387 . S
C1663 H1648 0.930 . S
C1663 C1658 1.390 . S
C1663 C1662 1.387 . S
C381 C16 0.983 . S
C393 C292 0.996 . S
C408 C131 1.002 . S
C420 C39 0.953 . S
C435 C62 0.963 . S
C447 C338 1.013 . S
C462 C85 1.020 . S
C474 C177 0.941 . S
C489 C108 0.952 . S
C501 C200 1.002 . S
C516 C246 1.021 . S
C528 C154 0.952 . S
C543 C315 0.989 . S
C555 C223 0.965 . S
C570 C269 0.951 . S
C582 C361 1.021 . S
C597 C225 1.586 . S
C609 C17 1.539 . S
C624 C40 1.572 . S
C636 C248 1.611 . S
C651 C63 1.493 . S
C663 C271 1.588 . S
C678 C202 1.592 . S
C690 C86 1.556 . S
C705 C317 1.585 . S
C717 C109 1.498 . S
C732 C340 1.590 . S
C744 C132 1.527 . S
C759 C155 1.546 . S
C771 C363 1.598 . S
C786 C294 1.605 . S
C798 C178 1.547 . S
C813 C201 1.500 . S
C825 C41 1.596 . S
C840 C224 1.526 . S
C852 C64 1.584 . S
C867 C247 1.512 . S
C879 C87 1.582 . S
C894 C18 1.609 . S
C906 C270 1.574 . S
C921 C133 1.609 . S
C933 C293 1.569 . S
C948 C316 1.572 . S
C960 C156 1.613 . S
C975 C179 1.585 . S
C987 C339 1.498 . S
C1002 C362 1.574 . S
C1014 C110 1.613 . S
C1029 C20 1.410 . S
C1041 C250 1.386 . S
C1056 C43 1.322 . S
C1068 C273 1.358 . S
C1083 C204 1.322 . S
C1095 C66 1.361 . S
C1110 C89 1.321 . S
C1122 C227 1.362 . S
C1137 C112 1.364 . S
C1149 C342 1.331 . S
C1164 C135 1.359 . S
C1176 C365 1.409 . S
C1191 C296 1.374 . S
C1203 C158 1.402 . S
C1218 C181 1.349 . S
C1230 C319 1.412 . S
C1245 C21 1.286 . S
C1257 C180 1.213 . S
C1272 C295 1.225 . S
C1284 C44 1.283 . S
C1299 C67 1.245 . S
C1311 C134 1.271 . S
C1326 C90 1.249 1_455 S
C1338 C341 1.251 . S
C1353 C113 1.283 . S
C1365 C88 1.209 . S
C1380 C203 1.222 . S
C1392 C136 1.285 . S
C1407 C159 1.282 . S
C1419 C42 1.254 . S
C1434 C249 1.197 . S
C1446 C182 1.270 1_655 S
C1461 C205 1.246 . S
C1473 C364 1.264 . S
C1488 C111 1.228 . S
C1500 C228 1.257 1_665 S
C1515 C318 1.222 . S
C1527 C251 1.284 . S
C1542 C274 1.282 1_545 S
C1554 C157 1.198 . S
C1569 C297 1.264 . S
C1581 C272 1.200 . S
C1596 C320 1.278 1_445 S
C1608 C19 1.265 . S
C1623 C226 1.233 . S
C1635 C343 1.248 . S
C1650 C65 1.204 . S
C1662 C366 1.281 1_565 S
