# Generated by pormake.
# Topology sxm, (6)-cn, num edge types: 1
# Building blocks:
#     Node 0, Type 0, BuildingBlock: UKALOJ_clean_sbu_0, # of connection points: 6
#     Node 1, Type 0, BuildingBlock: UKALOJ_clean_sbu_0, # of connection points: 6
#     Node 2, Type 0, BuildingBlock: UKALOJ_clean_sbu_0, # of connection points: 6
#     Node 3, Type 0, BuildingBlock: UKALOJ_clean_sbu_0, # of connection points: 6
#     Node 4, Type 0, BuildingBlock: UKALOJ_clean_sbu_0, # of connection points: 6
#     Node 5, Type 0, BuildingBlock: UKALOJ_clean_sbu_0, # of connection points: 6
#     Node 6, Type 0, BuildingBlock: UKALOJ_clean_sbu_0, # of connection points: 6
#     Node 7, Type 0, BuildingBlock: UKALOJ_clean_sbu_0, # of connection points: 6
#     Node 8, Type 0, BuildingBlock: UKALOJ_clean_sbu_0, # of connection points: 6
#     Node 9, Type 0, BuildingBlock: UKALOJ_clean_sbu_0, # of connection points: 6
#     Node 10, Type 0, BuildingBlock: UKALOJ_clean_sbu_0, # of connection points: 6
#     Node 11, Type 0, BuildingBlock: UKALOJ_clean_sbu_0, # of connection points: 6
#     Node 12, Type 0, BuildingBlock: UKALOJ_clean_sbu_0, # of connection points: 6
#     Node 13, Type 0, BuildingBlock: UKALOJ_clean_sbu_0, # of connection points: 6
#     Node 14, Type 0, BuildingBlock: UKALOJ_clean_sbu_0, # of connection points: 6
#     Node 15, Type 0, BuildingBlock: UKALOJ_clean_sbu_0, # of connection points: 6
#     Node 16, Type 0, BuildingBlock: UKALOJ_clean_sbu_0, # of connection points: 6
#     Node 17, Type 0, BuildingBlock: UKALOJ_clean_sbu_0, # of connection points: 6
#     Node 18, Type 0, BuildingBlock: UKALOJ_clean_sbu_0, # of connection points: 6
#     Node 19, Type 0, BuildingBlock: UKALOJ_clean_sbu_0, # of connection points: 6
#     Node 20, Type 0, BuildingBlock: UKALOJ_clean_sbu_0, # of connection points: 6
#     Node 21, Type 0, BuildingBlock: UKALOJ_clean_sbu_0, # of connection points: 6
#     Node 22, Type 0, BuildingBlock: UKALOJ_clean_sbu_0, # of connection points: 6
#     Node 23, Type 0, BuildingBlock: UKALOJ_clean_sbu_0, # of connection points: 6
#     Node 24, Type 0, BuildingBlock: UKALOJ_clean_sbu_0, # of connection points: 6
#     Node 25, Type 0, BuildingBlock: UKALOJ_clean_sbu_0, # of connection points: 6
#     Node 26, Type 0, BuildingBlock: UKALOJ_clean_sbu_0, # of connection points: 6
#     Node 27, Type 0, BuildingBlock: UKALOJ_clean_sbu_0, # of connection points: 6
#     Node 28, Type 0, BuildingBlock: UKALOJ_clean_sbu_0, # of connection points: 6
#     Node 29, Type 0, BuildingBlock: UKALOJ_clean_sbu_0, # of connection points: 6
#     Node 30, Type 0, BuildingBlock: UKALOJ_clean_sbu_0, # of connection points: 6
#     Node 31, Type 0, BuildingBlock: UKALOJ_clean_sbu_0, # of connection points: 6
#     Node 32, Type 0, BuildingBlock: UKALOJ_clean_sbu_0, # of connection points: 6
#     Node 33, Type 0, BuildingBlock: UKALOJ_clean_sbu_0, # of connection points: 6
#     Node 34, Type 0, BuildingBlock: UKALOJ_clean_sbu_0, # of connection points: 6
#     Node 35, Type 0, BuildingBlock: UKALOJ_clean_sbu_0, # of connection points: 6
#     Node 36, Type 0, BuildingBlock: UKALOJ_clean_sbu_0, # of connection points: 6
#     Node 37, Type 0, BuildingBlock: UKALOJ_clean_sbu_0, # of connection points: 6
#     Node 38, Type 0, BuildingBlock: UKALOJ_clean_sbu_0, # of connection points: 6
#     Node 39, Type 0, BuildingBlock: UKALOJ_clean_sbu_0, # of connection points: 6
#     Node 40, Type 0, BuildingBlock: UKALOJ_clean_sbu_0, # of connection points: 6
#     Node 41, Type 0, BuildingBlock: UKALOJ_clean_sbu_0, # of connection points: 6
#     Node 42, Type 0, BuildingBlock: UKALOJ_clean_sbu_0, # of connection points: 6
#     Node 43, Type 0, BuildingBlock: UKALOJ_clean_sbu_0, # of connection points: 6
#     Node 44, Type 0, BuildingBlock: UKALOJ_clean_sbu_0, # of connection points: 6
#     Node 45, Type 0, BuildingBlock: UKALOJ_clean_sbu_0, # of connection points: 6
#     Node 46, Type 0, BuildingBlock: UKALOJ_clean_sbu_0, # of connection points: 6
#     Node 47, Type 0, BuildingBlock: UKALOJ_clean_sbu_0, # of connection points: 6
#     Node 48, Type 0, BuildingBlock: UKALOJ_clean_sbu_0, # of connection points: 6
#     Node 49, Type 0, BuildingBlock: UKALOJ_clean_sbu_0, # of connection points: 6
#     Node 50, Type 0, BuildingBlock: UKALOJ_clean_sbu_0, # of connection points: 6
#     Node 51, Type 0, BuildingBlock: UKALOJ_clean_sbu_0, # of connection points: 6
#     Node 52, Type 0, BuildingBlock: UKALOJ_clean_sbu_0, # of connection points: 6
#     Node 53, Type 0, BuildingBlock: UKALOJ_clean_sbu_0, # of connection points: 6
#     Node 54, Type 0, BuildingBlock: UKALOJ_clean_sbu_0, # of connection points: 6
#     Node 55, Type 0, BuildingBlock: UKALOJ_clean_sbu_0, # of connection points: 6
#     Node 56, Type 0, BuildingBlock: UKALOJ_clean_sbu_0, # of connection points: 6
#     Node 57, Type 0, BuildingBlock: UKALOJ_clean_sbu_0, # of connection points: 6
#     Node 58, Type 0, BuildingBlock: UKALOJ_clean_sbu_0, # of connection points: 6
#     Node 59, Type 0, BuildingBlock: UKALOJ_clean_sbu_0, # of connection points: 6
#     Node 60, Type 0, BuildingBlock: UKALOJ_clean_sbu_0, # of connection points: 6
#     Node 61, Type 0, BuildingBlock: UKALOJ_clean_sbu_0, # of connection points: 6
#     Node 62, Type 0, BuildingBlock: UKALOJ_clean_sbu_0, # of connection points: 6
#     Node 63, Type 0, BuildingBlock: UKALOJ_clean_sbu_0, # of connection points: 6
#     Node 64, Type 0, BuildingBlock: UKALOJ_clean_sbu_0, # of connection points: 6
#     Node 65, Type 0, BuildingBlock: UKALOJ_clean_sbu_0, # of connection points: 6
#     Node 66, Type 0, BuildingBlock: UKALOJ_clean_sbu_0, # of connection points: 6
#     Node 67, Type 0, BuildingBlock: UKALOJ_clean_sbu_0, # of connection points: 6
#     Node 68, Type 0, BuildingBlock: UKALOJ_clean_sbu_0, # of connection points: 6
#     Node 69, Type 0, BuildingBlock: UKALOJ_clean_sbu_0, # of connection points: 6
#     Node 70, Type 0, BuildingBlock: UKALOJ_clean_sbu_0, # of connection points: 6
#     Node 71, Type 0, BuildingBlock: UKALOJ_clean_sbu_0, # of connection points: 6
#     Node 72, Type 0, BuildingBlock: UKALOJ_clean_sbu_0, # of connection points: 6
#     Node 73, Type 0, BuildingBlock: UKALOJ_clean_sbu_0, # of connection points: 6
#     Node 74, Type 0, BuildingBlock: UKALOJ_clean_sbu_0, # of connection points: 6
#     Node 75, Type 0, BuildingBlock: UKALOJ_clean_sbu_0, # of connection points: 6
#     Node 76, Type 0, BuildingBlock: UKALOJ_clean_sbu_0, # of connection points: 6
#     Node 77, Type 0, BuildingBlock: UKALOJ_clean_sbu_0, # of connection points: 6
#     Node 78, Type 0, BuildingBlock: UKALOJ_clean_sbu_0, # of connection points: 6
#     Node 79, Type 0, BuildingBlock: UKALOJ_clean_sbu_0, # of connection points: 6
#     Node 80, Type 0, BuildingBlock: UKALOJ_clean_sbu_0, # of connection points: 6
#     Node 81, Type 0, BuildingBlock: UKALOJ_clean_sbu_0, # of connection points: 6
#     Node 82, Type 0, BuildingBlock: UKALOJ_clean_sbu_0, # of connection points: 6
#     Node 83, Type 0, BuildingBlock: UKALOJ_clean_sbu_0, # of connection points: 6
#     Node 84, Type 0, BuildingBlock: UKALOJ_clean_sbu_0, # of connection points: 6
#     Node 85, Type 0, BuildingBlock: UKALOJ_clean_sbu_0, # of connection points: 6
#     Node 86, Type 0, BuildingBlock: UKALOJ_clean_sbu_0, # of connection points: 6
#     Node 87, Type 0, BuildingBlock: UKALOJ_clean_sbu_0, # of connection points: 6
#     Node 88, Type 0, BuildingBlock: UKALOJ_clean_sbu_0, # of connection points: 6
#     Node 89, Type 0, BuildingBlock: UKALOJ_clean_sbu_0, # of connection points: 6
#     Node 90, Type 0, BuildingBlock: UKALOJ_clean_sbu_0, # of connection points: 6
#     Node 91, Type 0, BuildingBlock: UKALOJ_clean_sbu_0, # of connection points: 6
#     Node 92, Type 0, BuildingBlock: UKALOJ_clean_sbu_0, # of connection points: 6
#     Node 93, Type 0, BuildingBlock: UKALOJ_clean_sbu_0, # of connection points: 6
#     Node 94, Type 0, BuildingBlock: UKALOJ_clean_sbu_0, # of connection points: 6
#     Node 95, Type 0, BuildingBlock: UKALOJ_clean_sbu_0, # of connection points: 6
#     Node 96, Type 0, BuildingBlock: UKALOJ_clean_sbu_0, # of connection points: 6
#     Node 97, Type 0, BuildingBlock: UKALOJ_clean_sbu_0, # of connection points: 6
#     Node 98, Type 0, BuildingBlock: UKALOJ_clean_sbu_0, # of connection points: 6
#     Node 99, Type 0, BuildingBlock: UKALOJ_clean_sbu_0, # of connection points: 6
#     Node 100, Type 0, BuildingBlock: UKALOJ_clean_sbu_0, # of connection points: 6
#     Node 101, Type 0, BuildingBlock: UKALOJ_clean_sbu_0, # of connection points: 6
#     Node 102, Type 0, BuildingBlock: UKALOJ_clean_sbu_0, # of connection points: 6
#     Node 103, Type 0, BuildingBlock: UKALOJ_clean_sbu_0, # of connection points: 6
#     Node 104, Type 0, BuildingBlock: UKALOJ_clean_sbu_0, # of connection points: 6
#     Node 105, Type 0, BuildingBlock: UKALOJ_clean_sbu_0, # of connection points: 6
#     Node 106, Type 0, BuildingBlock: UKALOJ_clean_sbu_0, # of connection points: 6
#     Node 107, Type 0, BuildingBlock: UKALOJ_clean_sbu_0, # of connection points: 6
#     Node 108, Type 0, BuildingBlock: UKALOJ_clean_sbu_0, # of connection points: 6
#     Node 109, Type 0, BuildingBlock: UKALOJ_clean_sbu_0, # of connection points: 6
#     Node 110, Type 0, BuildingBlock: UKALOJ_clean_sbu_0, # of connection points: 6
#     Node 111, Type 0, BuildingBlock: UKALOJ_clean_sbu_0, # of connection points: 6
#     Node 112, Type 0, BuildingBlock: UKALOJ_clean_sbu_0, # of connection points: 6
#     Node 113, Type 0, BuildingBlock: UKALOJ_clean_sbu_0, # of connection points: 6
#     Node 114, Type 0, BuildingBlock: UKALOJ_clean_sbu_0, # of connection points: 6
#     Node 115, Type 0, BuildingBlock: UKALOJ_clean_sbu_0, # of connection points: 6
#     Node 116, Type 0, BuildingBlock: UKALOJ_clean_sbu_0, # of connection points: 6
#     Node 117, Type 0, BuildingBlock: UKALOJ_clean_sbu_0, # of connection points: 6
#     Node 118, Type 0, BuildingBlock: UKALOJ_clean_sbu_0, # of connection points: 6
#     Node 119, Type 0, BuildingBlock: UKALOJ_clean_sbu_0, # of connection points: 6
#     Node 120, Type 0, BuildingBlock: UKALOJ_clean_sbu_0, # of connection points: 6
#     Node 121, Type 0, BuildingBlock: UKALOJ_clean_sbu_0, # of connection points: 6
#     Node 122, Type 0, BuildingBlock: UKALOJ_clean_sbu_0, # of connection points: 6
#     Node 123, Type 0, BuildingBlock: UKALOJ_clean_sbu_0, # of connection points: 6
#     Node 124, Type 0, BuildingBlock: UKALOJ_clean_sbu_0, # of connection points: 6
#     Node 125, Type 0, BuildingBlock: UKALOJ_clean_sbu_0, # of connection points: 6
#     Node 126, Type 0, BuildingBlock: UKALOJ_clean_sbu_0, # of connection points: 6
#     Node 127, Type 0, BuildingBlock: UKALOJ_clean_sbu_0, # of connection points: 6
#     Node 128, Type 0, BuildingBlock: UKALOJ_clean_sbu_0, # of connection points: 6
#     Node 129, Type 0, BuildingBlock: UKALOJ_clean_sbu_0, # of connection points: 6
#     Node 130, Type 0, BuildingBlock: UKALOJ_clean_sbu_0, # of connection points: 6
#     Node 131, Type 0, BuildingBlock: UKALOJ_clean_sbu_0, # of connection points: 6
#     Node 132, Type 0, BuildingBlock: UKALOJ_clean_sbu_0, # of connection points: 6
#     Node 133, Type 0, BuildingBlock: UKALOJ_clean_sbu_0, # of connection points: 6
#     Node 134, Type 0, BuildingBlock: UKALOJ_clean_sbu_0, # of connection points: 6
#     Node 135, Type 0, BuildingBlock: UKALOJ_clean_sbu_0, # of connection points: 6
#     Node 136, Type 0, BuildingBlock: UKALOJ_clean_sbu_0, # of connection points: 6
#     Node 137, Type 0, BuildingBlock: UKALOJ_clean_sbu_0, # of connection points: 6
#     Node 138, Type 0, BuildingBlock: UKALOJ_clean_sbu_0, # of connection points: 6
#     Node 139, Type 0, BuildingBlock: UKALOJ_clean_sbu_0, # of connection points: 6
#     Node 140, Type 0, BuildingBlock: UKALOJ_clean_sbu_0, # of connection points: 6
#     Node 141, Type 0, BuildingBlock: UKALOJ_clean_sbu_0, # of connection points: 6
#     Node 142, Type 0, BuildingBlock: UKALOJ_clean_sbu_0, # of connection points: 6
#     Node 143, Type 0, BuildingBlock: UKALOJ_clean_sbu_0, # of connection points: 6
#     Node 144, Type 0, BuildingBlock: UKALOJ_clean_sbu_0, # of connection points: 6
#     Node 145, Type 0, BuildingBlock: UKALOJ_clean_sbu_0, # of connection points: 6
#     Node 146, Type 0, BuildingBlock: UKALOJ_clean_sbu_0, # of connection points: 6
#     Node 147, Type 0, BuildingBlock: UKALOJ_clean_sbu_0, # of connection points: 6
#     Node 148, Type 0, BuildingBlock: UKALOJ_clean_sbu_0, # of connection points: 6
#     Node 149, Type 0, BuildingBlock: UKALOJ_clean_sbu_0, # of connection points: 6
#     Node 150, Type 0, BuildingBlock: UKALOJ_clean_sbu_0, # of connection points: 6
#     Node 151, Type 0, BuildingBlock: UKALOJ_clean_sbu_0, # of connection points: 6
#     Node 152, Type 0, BuildingBlock: UKALOJ_clean_sbu_0, # of connection points: 6
#     Node 153, Type 0, BuildingBlock: UKALOJ_clean_sbu_0, # of connection points: 6
#     Node 154, Type 0, BuildingBlock: UKALOJ_clean_sbu_0, # of connection points: 6
#     Node 155, Type 0, BuildingBlock: UKALOJ_clean_sbu_0, # of connection points: 6
#     Node 156, Type 0, BuildingBlock: UKALOJ_clean_sbu_0, # of connection points: 6
#     Node 157, Type 0, BuildingBlock: UKALOJ_clean_sbu_0, # of connection points: 6
#     Node 158, Type 0, BuildingBlock: UKALOJ_clean_sbu_0, # of connection points: 6
#     Node 159, Type 0, BuildingBlock: UKALOJ_clean_sbu_0, # of connection points: 6
#     Node 160, Type 0, BuildingBlock: UKALOJ_clean_sbu_0, # of connection points: 6
#     Node 161, Type 0, BuildingBlock: UKALOJ_clean_sbu_0, # of connection points: 6
#     Node 162, Type 0, BuildingBlock: UKALOJ_clean_sbu_0, # of connection points: 6
#     Node 163, Type 0, BuildingBlock: UKALOJ_clean_sbu_0, # of connection points: 6
#     Node 164, Type 0, BuildingBlock: UKALOJ_clean_sbu_0, # of connection points: 6
#     Node 165, Type 0, BuildingBlock: UKALOJ_clean_sbu_0, # of connection points: 6
#     Node 166, Type 0, BuildingBlock: UKALOJ_clean_sbu_0, # of connection points: 6
#     Node 167, Type 0, BuildingBlock: UKALOJ_clean_sbu_0, # of connection points: 6
#     Node 168, Type 0, BuildingBlock: UKALOJ_clean_sbu_0, # of connection points: 6
#     Node 169, Type 0, BuildingBlock: UKALOJ_clean_sbu_0, # of connection points: 6
#     Node 170, Type 0, BuildingBlock: UKALOJ_clean_sbu_0, # of connection points: 6
#     Node 171, Type 0, BuildingBlock: UKALOJ_clean_sbu_0, # of connection points: 6
#     Node 172, Type 0, BuildingBlock: UKALOJ_clean_sbu_0, # of connection points: 6
#     Node 173, Type 0, BuildingBlock: UKALOJ_clean_sbu_0, # of connection points: 6
#     Node 174, Type 0, BuildingBlock: UKALOJ_clean_sbu_0, # of connection points: 6
#     Node 175, Type 0, BuildingBlock: UKALOJ_clean_sbu_0, # of connection points: 6
#     Node 176, Type 0, BuildingBlock: UKALOJ_clean_sbu_0, # of connection points: 6
#     Node 177, Type 0, BuildingBlock: UKALOJ_clean_sbu_0, # of connection points: 6
#     Node 178, Type 0, BuildingBlock: UKALOJ_clean_sbu_0, # of connection points: 6
#     Node 179, Type 0, BuildingBlock: UKALOJ_clean_sbu_0, # of connection points: 6
#     Node 180, Type 0, BuildingBlock: UKALOJ_clean_sbu_0, # of connection points: 6
#     Node 181, Type 0, BuildingBlock: UKALOJ_clean_sbu_0, # of connection points: 6
#     Node 182, Type 0, BuildingBlock: UKALOJ_clean_sbu_0, # of connection points: 6
#     Node 183, Type 0, BuildingBlock: UKALOJ_clean_sbu_0, # of connection points: 6
#     Node 184, Type 0, BuildingBlock: UKALOJ_clean_sbu_0, # of connection points: 6
#     Node 185, Type 0, BuildingBlock: UKALOJ_clean_sbu_0, # of connection points: 6
#     Node 186, Type 0, BuildingBlock: UKALOJ_clean_sbu_0, # of connection points: 6
#     Node 187, Type 0, BuildingBlock: UKALOJ_clean_sbu_0, # of connection points: 6
#     Node 188, Type 0, BuildingBlock: UKALOJ_clean_sbu_0, # of connection points: 6
#     Node 189, Type 0, BuildingBlock: UKALOJ_clean_sbu_0, # of connection points: 6
#     Node 190, Type 0, BuildingBlock: UKALOJ_clean_sbu_0, # of connection points: 6
#     Node 191, Type 0, BuildingBlock: UKALOJ_clean_sbu_0, # of connection points: 6
#     Edge 192, Type (0, 0), None
#     Edge 193, Type (0, 0), None
#     Edge 194, Type (0, 0), None
#     Edge 195, Type (0, 0), None
#     Edge 196, Type (0, 0), None
#     Edge 197, Type (0, 0), None
#     Edge 198, Type (0, 0), None
#     Edge 199, Type (0, 0), None
#     Edge 200, Type (0, 0), None
#     Edge 201, Type (0, 0), None
#     Edge 202, Type (0, 0), None
#     Edge 203, Type (0, 0), None
#     Edge 204, Type (0, 0), None
#     Edge 205, Type (0, 0), None
#     Edge 206, Type (0, 0), None
#     Edge 207, Type (0, 0), None
#     Edge 208, Type (0, 0), None
#     Edge 209, Type (0, 0), None
#     Edge 210, Type (0, 0), None
#     Edge 211, Type (0, 0), None
#     Edge 212, Type (0, 0), None
#     Edge 213, Type (0, 0), None
#     Edge 214, Type (0, 0), None
#     Edge 215, Type (0, 0), None
#     Edge 216, Type (0, 0), None
#     Edge 217, Type (0, 0), None
#     Edge 218, Type (0, 0), None
#     Edge 219, Type (0, 0), None
#     Edge 220, Type (0, 0), None
#     Edge 221, Type (0, 0), None
#     Edge 222, Type (0, 0), None
#     Edge 223, Type (0, 0), None
#     Edge 224, Type (0, 0), None
#     Edge 225, Type (0, 0), None
#     Edge 226, Type (0, 0), None
#     Edge 227, Type (0, 0), None
#     Edge 228, Type (0, 0), None
#     Edge 229, Type (0, 0), None
#     Edge 230, Type (0, 0), None
#     Edge 231, Type (0, 0), None
#     Edge 232, Type (0, 0), None
#     Edge 233, Type (0, 0), None
#     Edge 234, Type (0, 0), None
#     Edge 235, Type (0, 0), None
#     Edge 236, Type (0, 0), None
#     Edge 237, Type (0, 0), None
#     Edge 238, Type (0, 0), None
#     Edge 239, Type (0, 0), None
#     Edge 240, Type (0, 0), None
#     Edge 241, Type (0, 0), None
#     Edge 242, Type (0, 0), None
#     Edge 243, Type (0, 0), None
#     Edge 244, Type (0, 0), None
#     Edge 245, Type (0, 0), None
#     Edge 246, Type (0, 0), None
#     Edge 247, Type (0, 0), None
#     Edge 248, Type (0, 0), None
#     Edge 249, Type (0, 0), None
#     Edge 250, Type (0, 0), None
#     Edge 251, Type (0, 0), None
#     Edge 252, Type (0, 0), None
#     Edge 253, Type (0, 0), None
#     Edge 254, Type (0, 0), None
#     Edge 255, Type (0, 0), None
#     Edge 256, Type (0, 0), None
#     Edge 257, Type (0, 0), None
#     Edge 258, Type (0, 0), None
#     Edge 259, Type (0, 0), None
#     Edge 260, Type (0, 0), None
#     Edge 261, Type (0, 0), None
#     Edge 262, Type (0, 0), None
#     Edge 263, Type (0, 0), None
#     Edge 264, Type (0, 0), None
#     Edge 265, Type (0, 0), None
#     Edge 266, Type (0, 0), None
#     Edge 267, Type (0, 0), None
#     Edge 268, Type (0, 0), None
#     Edge 269, Type (0, 0), None
#     Edge 270, Type (0, 0), None
#     Edge 271, Type (0, 0), None
#     Edge 272, Type (0, 0), None
#     Edge 273, Type (0, 0), None
#     Edge 274, Type (0, 0), None
#     Edge 275, Type (0, 0), None
#     Edge 276, Type (0, 0), None
#     Edge 277, Type (0, 0), None
#     Edge 278, Type (0, 0), None
#     Edge 279, Type (0, 0), None
#     Edge 280, Type (0, 0), None
#     Edge 281, Type (0, 0), None
#     Edge 282, Type (0, 0), None
#     Edge 283, Type (0, 0), None
#     Edge 284, Type (0, 0), None
#     Edge 285, Type (0, 0), None
#     Edge 286, Type (0, 0), None
#     Edge 287, Type (0, 0), None
#     Edge 288, Type (0, 0), None
#     Edge 289, Type (0, 0), None
#     Edge 290, Type (0, 0), None
#     Edge 291, Type (0, 0), None
#     Edge 292, Type (0, 0), None
#     Edge 293, Type (0, 0), None
#     Edge 294, Type (0, 0), None
#     Edge 295, Type (0, 0), None
#     Edge 296, Type (0, 0), None
#     Edge 297, Type (0, 0), None
#     Edge 298, Type (0, 0), None
#     Edge 299, Type (0, 0), None
#     Edge 300, Type (0, 0), None
#     Edge 301, Type (0, 0), None
#     Edge 302, Type (0, 0), None
#     Edge 303, Type (0, 0), None
#     Edge 304, Type (0, 0), None
#     Edge 305, Type (0, 0), None
#     Edge 306, Type (0, 0), None
#     Edge 307, Type (0, 0), None
#     Edge 308, Type (0, 0), None
#     Edge 309, Type (0, 0), None
#     Edge 310, Type (0, 0), None
#     Edge 311, Type (0, 0), None
#     Edge 312, Type (0, 0), None
#     Edge 313, Type (0, 0), None
#     Edge 314, Type (0, 0), None
#     Edge 315, Type (0, 0), None
#     Edge 316, Type (0, 0), None
#     Edge 317, Type (0, 0), None
#     Edge 318, Type (0, 0), None
#     Edge 319, Type (0, 0), None
#     Edge 320, Type (0, 0), None
#     Edge 321, Type (0, 0), None
#     Edge 322, Type (0, 0), None
#     Edge 323, Type (0, 0), None
#     Edge 324, Type (0, 0), None
#     Edge 325, Type (0, 0), None
#     Edge 326, Type (0, 0), None
#     Edge 327, Type (0, 0), None
#     Edge 328, Type (0, 0), None
#     Edge 329, Type (0, 0), None
#     Edge 330, Type (0, 0), None
#     Edge 331, Type (0, 0), None
#     Edge 332, Type (0, 0), None
#     Edge 333, Type (0, 0), None
#     Edge 334, Type (0, 0), None
#     Edge 335, Type (0, 0), None
#     Edge 336, Type (0, 0), None
#     Edge 337, Type (0, 0), None
#     Edge 338, Type (0, 0), None
#     Edge 339, Type (0, 0), None
#     Edge 340, Type (0, 0), None
#     Edge 341, Type (0, 0), None
#     Edge 342, Type (0, 0), None
#     Edge 343, Type (0, 0), None
#     Edge 344, Type (0, 0), None
#     Edge 345, Type (0, 0), None
#     Edge 346, Type (0, 0), None
#     Edge 347, Type (0, 0), None
#     Edge 348, Type (0, 0), None
#     Edge 349, Type (0, 0), None
#     Edge 350, Type (0, 0), None
#     Edge 351, Type (0, 0), None
#     Edge 352, Type (0, 0), None
#     Edge 353, Type (0, 0), None
#     Edge 354, Type (0, 0), None
#     Edge 355, Type (0, 0), None
#     Edge 356, Type (0, 0), None
#     Edge 357, Type (0, 0), None
#     Edge 358, Type (0, 0), None
#     Edge 359, Type (0, 0), None
#     Edge 360, Type (0, 0), None
#     Edge 361, Type (0, 0), None
#     Edge 362, Type (0, 0), None
#     Edge 363, Type (0, 0), None
#     Edge 364, Type (0, 0), None
#     Edge 365, Type (0, 0), None
#     Edge 366, Type (0, 0), None
#     Edge 367, Type (0, 0), None
#     Edge 368, Type (0, 0), None
#     Edge 369, Type (0, 0), None
#     Edge 370, Type (0, 0), None
#     Edge 371, Type (0, 0), None
#     Edge 372, Type (0, 0), None
#     Edge 373, Type (0, 0), None
#     Edge 374, Type (0, 0), None
#     Edge 375, Type (0, 0), None
#     Edge 376, Type (0, 0), None
#     Edge 377, Type (0, 0), None
#     Edge 378, Type (0, 0), None
#     Edge 379, Type (0, 0), None
#     Edge 380, Type (0, 0), None
#     Edge 381, Type (0, 0), None
#     Edge 382, Type (0, 0), None
#     Edge 383, Type (0, 0), None
#     Edge 384, Type (0, 0), None
#     Edge 385, Type (0, 0), None
#     Edge 386, Type (0, 0), None
#     Edge 387, Type (0, 0), None
#     Edge 388, Type (0, 0), None
#     Edge 389, Type (0, 0), None
#     Edge 390, Type (0, 0), None
#     Edge 391, Type (0, 0), None
#     Edge 392, Type (0, 0), None
#     Edge 393, Type (0, 0), None
#     Edge 394, Type (0, 0), None
#     Edge 395, Type (0, 0), None
#     Edge 396, Type (0, 0), None
#     Edge 397, Type (0, 0), None
#     Edge 398, Type (0, 0), None
#     Edge 399, Type (0, 0), None
#     Edge 400, Type (0, 0), None
#     Edge 401, Type (0, 0), None
#     Edge 402, Type (0, 0), None
#     Edge 403, Type (0, 0), None
#     Edge 404, Type (0, 0), None
#     Edge 405, Type (0, 0), None
#     Edge 406, Type (0, 0), None
#     Edge 407, Type (0, 0), None
#     Edge 408, Type (0, 0), None
#     Edge 409, Type (0, 0), None
#     Edge 410, Type (0, 0), None
#     Edge 411, Type (0, 0), None
#     Edge 412, Type (0, 0), None
#     Edge 413, Type (0, 0), None
#     Edge 414, Type (0, 0), None
#     Edge 415, Type (0, 0), None
#     Edge 416, Type (0, 0), None
#     Edge 417, Type (0, 0), None
#     Edge 418, Type (0, 0), None
#     Edge 419, Type (0, 0), None
#     Edge 420, Type (0, 0), None
#     Edge 421, Type (0, 0), None
#     Edge 422, Type (0, 0), None
#     Edge 423, Type (0, 0), None
#     Edge 424, Type (0, 0), None
#     Edge 425, Type (0, 0), None
#     Edge 426, Type (0, 0), None
#     Edge 427, Type (0, 0), None
#     Edge 428, Type (0, 0), None
#     Edge 429, Type (0, 0), None
#     Edge 430, Type (0, 0), None
#     Edge 431, Type (0, 0), None
#     Edge 432, Type (0, 0), None
#     Edge 433, Type (0, 0), None
#     Edge 434, Type (0, 0), None
#     Edge 435, Type (0, 0), None
#     Edge 436, Type (0, 0), None
#     Edge 437, Type (0, 0), None
#     Edge 438, Type (0, 0), None
#     Edge 439, Type (0, 0), None
#     Edge 440, Type (0, 0), None
#     Edge 441, Type (0, 0), None
#     Edge 442, Type (0, 0), None
#     Edge 443, Type (0, 0), None
#     Edge 444, Type (0, 0), None
#     Edge 445, Type (0, 0), None
#     Edge 446, Type (0, 0), None
#     Edge 447, Type (0, 0), None
#     Edge 448, Type (0, 0), None
#     Edge 449, Type (0, 0), None
#     Edge 450, Type (0, 0), None
#     Edge 451, Type (0, 0), None
#     Edge 452, Type (0, 0), None
#     Edge 453, Type (0, 0), None
#     Edge 454, Type (0, 0), None
#     Edge 455, Type (0, 0), None
#     Edge 456, Type (0, 0), None
#     Edge 457, Type (0, 0), None
#     Edge 458, Type (0, 0), None
#     Edge 459, Type (0, 0), None
#     Edge 460, Type (0, 0), None
#     Edge 461, Type (0, 0), None
#     Edge 462, Type (0, 0), None
#     Edge 463, Type (0, 0), None
#     Edge 464, Type (0, 0), None
#     Edge 465, Type (0, 0), None
#     Edge 466, Type (0, 0), None
#     Edge 467, Type (0, 0), None
#     Edge 468, Type (0, 0), None
#     Edge 469, Type (0, 0), None
#     Edge 470, Type (0, 0), None
#     Edge 471, Type (0, 0), None
#     Edge 472, Type (0, 0), None
#     Edge 473, Type (0, 0), None
#     Edge 474, Type (0, 0), None
#     Edge 475, Type (0, 0), None
#     Edge 476, Type (0, 0), None
#     Edge 477, Type (0, 0), None
#     Edge 478, Type (0, 0), None
#     Edge 479, Type (0, 0), None
#     Edge 480, Type (0, 0), None
#     Edge 481, Type (0, 0), None
#     Edge 482, Type (0, 0), None
#     Edge 483, Type (0, 0), None
#     Edge 484, Type (0, 0), None
#     Edge 485, Type (0, 0), None
#     Edge 486, Type (0, 0), None
#     Edge 487, Type (0, 0), None
#     Edge 488, Type (0, 0), None
#     Edge 489, Type (0, 0), None
#     Edge 490, Type (0, 0), None
#     Edge 491, Type (0, 0), None
#     Edge 492, Type (0, 0), None
#     Edge 493, Type (0, 0), None
#     Edge 494, Type (0, 0), None
#     Edge 495, Type (0, 0), None
#     Edge 496, Type (0, 0), None
#     Edge 497, Type (0, 0), None
#     Edge 498, Type (0, 0), None
#     Edge 499, Type (0, 0), None
#     Edge 500, Type (0, 0), None
#     Edge 501, Type (0, 0), None
#     Edge 502, Type (0, 0), None
#     Edge 503, Type (0, 0), None
#     Edge 504, Type (0, 0), None
#     Edge 505, Type (0, 0), None
#     Edge 506, Type (0, 0), None
#     Edge 507, Type (0, 0), None
#     Edge 508, Type (0, 0), None
#     Edge 509, Type (0, 0), None
#     Edge 510, Type (0, 0), None
#     Edge 511, Type (0, 0), None
#     Edge 512, Type (0, 0), None
#     Edge 513, Type (0, 0), None
#     Edge 514, Type (0, 0), None
#     Edge 515, Type (0, 0), None
#     Edge 516, Type (0, 0), None
#     Edge 517, Type (0, 0), None
#     Edge 518, Type (0, 0), None
#     Edge 519, Type (0, 0), None
#     Edge 520, Type (0, 0), None
#     Edge 521, Type (0, 0), None
#     Edge 522, Type (0, 0), None
#     Edge 523, Type (0, 0), None
#     Edge 524, Type (0, 0), None
#     Edge 525, Type (0, 0), None
#     Edge 526, Type (0, 0), None
#     Edge 527, Type (0, 0), None
#     Edge 528, Type (0, 0), None
#     Edge 529, Type (0, 0), None
#     Edge 530, Type (0, 0), None
#     Edge 531, Type (0, 0), None
#     Edge 532, Type (0, 0), None
#     Edge 533, Type (0, 0), None
#     Edge 534, Type (0, 0), None
#     Edge 535, Type (0, 0), None
#     Edge 536, Type (0, 0), None
#     Edge 537, Type (0, 0), None
#     Edge 538, Type (0, 0), None
#     Edge 539, Type (0, 0), None
#     Edge 540, Type (0, 0), None
#     Edge 541, Type (0, 0), None
#     Edge 542, Type (0, 0), None
#     Edge 543, Type (0, 0), None
#     Edge 544, Type (0, 0), None
#     Edge 545, Type (0, 0), None
#     Edge 546, Type (0, 0), None
#     Edge 547, Type (0, 0), None
#     Edge 548, Type (0, 0), None
#     Edge 549, Type (0, 0), None
#     Edge 550, Type (0, 0), None
#     Edge 551, Type (0, 0), None
#     Edge 552, Type (0, 0), None
#     Edge 553, Type (0, 0), None
#     Edge 554, Type (0, 0), None
#     Edge 555, Type (0, 0), None
#     Edge 556, Type (0, 0), None
#     Edge 557, Type (0, 0), None
#     Edge 558, Type (0, 0), None
#     Edge 559, Type (0, 0), None
#     Edge 560, Type (0, 0), None
#     Edge 561, Type (0, 0), None
#     Edge 562, Type (0, 0), None
#     Edge 563, Type (0, 0), None
#     Edge 564, Type (0, 0), None
#     Edge 565, Type (0, 0), None
#     Edge 566, Type (0, 0), None
#     Edge 567, Type (0, 0), None
#     Edge 568, Type (0, 0), None
#     Edge 569, Type (0, 0), None
#     Edge 570, Type (0, 0), None
#     Edge 571, Type (0, 0), None
#     Edge 572, Type (0, 0), None
#     Edge 573, Type (0, 0), None
#     Edge 574, Type (0, 0), None
#     Edge 575, Type (0, 0), None
#     Edge 576, Type (0, 0), None
#     Edge 577, Type (0, 0), None
#     Edge 578, Type (0, 0), None
#     Edge 579, Type (0, 0), None
#     Edge 580, Type (0, 0), None
#     Edge 581, Type (0, 0), None
#     Edge 582, Type (0, 0), None
#     Edge 583, Type (0, 0), None
#     Edge 584, Type (0, 0), None
#     Edge 585, Type (0, 0), None
#     Edge 586, Type (0, 0), None
#     Edge 587, Type (0, 0), None
#     Edge 588, Type (0, 0), None
#     Edge 589, Type (0, 0), None
#     Edge 590, Type (0, 0), None
#     Edge 591, Type (0, 0), None
#     Edge 592, Type (0, 0), None
#     Edge 593, Type (0, 0), None
#     Edge 594, Type (0, 0), None
#     Edge 595, Type (0, 0), None
#     Edge 596, Type (0, 0), None
#     Edge 597, Type (0, 0), None
#     Edge 598, Type (0, 0), None
#     Edge 599, Type (0, 0), None
#     Edge 600, Type (0, 0), None
#     Edge 601, Type (0, 0), None
#     Edge 602, Type (0, 0), None
#     Edge 603, Type (0, 0), None
#     Edge 604, Type (0, 0), None
#     Edge 605, Type (0, 0), None
#     Edge 606, Type (0, 0), None
#     Edge 607, Type (0, 0), None
#     Edge 608, Type (0, 0), None
#     Edge 609, Type (0, 0), None
#     Edge 610, Type (0, 0), None
#     Edge 611, Type (0, 0), None
#     Edge 612, Type (0, 0), None
#     Edge 613, Type (0, 0), None
#     Edge 614, Type (0, 0), None
#     Edge 615, Type (0, 0), None
#     Edge 616, Type (0, 0), None
#     Edge 617, Type (0, 0), None
#     Edge 618, Type (0, 0), None
#     Edge 619, Type (0, 0), None
#     Edge 620, Type (0, 0), None
#     Edge 621, Type (0, 0), None
#     Edge 622, Type (0, 0), None
#     Edge 623, Type (0, 0), None
#     Edge 624, Type (0, 0), None
#     Edge 625, Type (0, 0), None
#     Edge 626, Type (0, 0), None
#     Edge 627, Type (0, 0), None
#     Edge 628, Type (0, 0), None
#     Edge 629, Type (0, 0), None
#     Edge 630, Type (0, 0), None
#     Edge 631, Type (0, 0), None
#     Edge 632, Type (0, 0), None
#     Edge 633, Type (0, 0), None
#     Edge 634, Type (0, 0), None
#     Edge 635, Type (0, 0), None
#     Edge 636, Type (0, 0), None
#     Edge 637, Type (0, 0), None
#     Edge 638, Type (0, 0), None
#     Edge 639, Type (0, 0), None
#     Edge 640, Type (0, 0), None
#     Edge 641, Type (0, 0), None
#     Edge 642, Type (0, 0), None
#     Edge 643, Type (0, 0), None
#     Edge 644, Type (0, 0), None
#     Edge 645, Type (0, 0), None
#     Edge 646, Type (0, 0), None
#     Edge 647, Type (0, 0), None
#     Edge 648, Type (0, 0), None
#     Edge 649, Type (0, 0), None
#     Edge 650, Type (0, 0), None
#     Edge 651, Type (0, 0), None
#     Edge 652, Type (0, 0), None
#     Edge 653, Type (0, 0), None
#     Edge 654, Type (0, 0), None
#     Edge 655, Type (0, 0), None
#     Edge 656, Type (0, 0), None
#     Edge 657, Type (0, 0), None
#     Edge 658, Type (0, 0), None
#     Edge 659, Type (0, 0), None
#     Edge 660, Type (0, 0), None
#     Edge 661, Type (0, 0), None
#     Edge 662, Type (0, 0), None
#     Edge 663, Type (0, 0), None
#     Edge 664, Type (0, 0), None
#     Edge 665, Type (0, 0), None
#     Edge 666, Type (0, 0), None
#     Edge 667, Type (0, 0), None
#     Edge 668, Type (0, 0), None
#     Edge 669, Type (0, 0), None
#     Edge 670, Type (0, 0), None
#     Edge 671, Type (0, 0), None
#     Edge 672, Type (0, 0), None
#     Edge 673, Type (0, 0), None
#     Edge 674, Type (0, 0), None
#     Edge 675, Type (0, 0), None
#     Edge 676, Type (0, 0), None
#     Edge 677, Type (0, 0), None
#     Edge 678, Type (0, 0), None
#     Edge 679, Type (0, 0), None
#     Edge 680, Type (0, 0), None
#     Edge 681, Type (0, 0), None
#     Edge 682, Type (0, 0), None
#     Edge 683, Type (0, 0), None
#     Edge 684, Type (0, 0), None
#     Edge 685, Type (0, 0), None
#     Edge 686, Type (0, 0), None
#     Edge 687, Type (0, 0), None
#     Edge 688, Type (0, 0), None
#     Edge 689, Type (0, 0), None
#     Edge 690, Type (0, 0), None
#     Edge 691, Type (0, 0), None
#     Edge 692, Type (0, 0), None
#     Edge 693, Type (0, 0), None
#     Edge 694, Type (0, 0), None
#     Edge 695, Type (0, 0), None
#     Edge 696, Type (0, 0), None
#     Edge 697, Type (0, 0), None
#     Edge 698, Type (0, 0), None
#     Edge 699, Type (0, 0), None
#     Edge 700, Type (0, 0), None
#     Edge 701, Type (0, 0), None
#     Edge 702, Type (0, 0), None
#     Edge 703, Type (0, 0), None
#     Edge 704, Type (0, 0), None
#     Edge 705, Type (0, 0), None
#     Edge 706, Type (0, 0), None
#     Edge 707, Type (0, 0), None
#     Edge 708, Type (0, 0), None
#     Edge 709, Type (0, 0), None
#     Edge 710, Type (0, 0), None
#     Edge 711, Type (0, 0), None
#     Edge 712, Type (0, 0), None
#     Edge 713, Type (0, 0), None
#     Edge 714, Type (0, 0), None
#     Edge 715, Type (0, 0), None
#     Edge 716, Type (0, 0), None
#     Edge 717, Type (0, 0), None
#     Edge 718, Type (0, 0), None
#     Edge 719, Type (0, 0), None
#     Edge 720, Type (0, 0), None
#     Edge 721, Type (0, 0), None
#     Edge 722, Type (0, 0), None
#     Edge 723, Type (0, 0), None
#     Edge 724, Type (0, 0), None
#     Edge 725, Type (0, 0), None
#     Edge 726, Type (0, 0), None
#     Edge 727, Type (0, 0), None
#     Edge 728, Type (0, 0), None
#     Edge 729, Type (0, 0), None
#     Edge 730, Type (0, 0), None
#     Edge 731, Type (0, 0), None
#     Edge 732, Type (0, 0), None
#     Edge 733, Type (0, 0), None
#     Edge 734, Type (0, 0), None
#     Edge 735, Type (0, 0), None
#     Edge 736, Type (0, 0), None
#     Edge 737, Type (0, 0), None
#     Edge 738, Type (0, 0), None
#     Edge 739, Type (0, 0), None
#     Edge 740, Type (0, 0), None
#     Edge 741, Type (0, 0), None
#     Edge 742, Type (0, 0), None
#     Edge 743, Type (0, 0), None
#     Edge 744, Type (0, 0), None
#     Edge 745, Type (0, 0), None
#     Edge 746, Type (0, 0), None
#     Edge 747, Type (0, 0), None
#     Edge 748, Type (0, 0), None
#     Edge 749, Type (0, 0), None
#     Edge 750, Type (0, 0), None
#     Edge 751, Type (0, 0), None
#     Edge 752, Type (0, 0), None
#     Edge 753, Type (0, 0), None
#     Edge 754, Type (0, 0), None
#     Edge 755, Type (0, 0), None
#     Edge 756, Type (0, 0), None
#     Edge 757, Type (0, 0), None
#     Edge 758, Type (0, 0), None
#     Edge 759, Type (0, 0), None
#     Edge 760, Type (0, 0), None
#     Edge 761, Type (0, 0), None
#     Edge 762, Type (0, 0), None
#     Edge 763, Type (0, 0), None
#     Edge 764, Type (0, 0), None
#     Edge 765, Type (0, 0), None
#     Edge 766, Type (0, 0), None
#     Edge 767, Type (0, 0), None
# Relax obj value: 0.919
# Max RMSD: 0.272
# Mean RMSD: 0.271
data_MOF--net-sxm--node1-UKALOJ_clean_sbu_0--edge1-none
_symmetry_space_group_name_H-M    P1
_symmetry_Int_Tables_number       1
_symmetry_cell_setting            triclinic
loop_
_symmetry_equiv_pos_as_xyz
'x, y, z'
_cell_length_a     43.407275
_cell_length_b     43.407298
_cell_length_c     43.407268
_cell_angle_alpha  90.000008
_cell_angle_beta   90.00002
_cell_angle_gamma 89.999989
loop_
_atom_site_label
_atom_site_type_symbol
_atom_site_fract_x
_atom_site_fract_y
_atom_site_fract_z
_atom_type_partial_charge
Zn0 Zn 0.04327 0.26152 0.12209 0.0
O1 O 0.09227 0.26036 0.10903 0.0
C2 C 0.08013 0.25654 0.17772 0.0
Zn3 Zn 0.05037 0.30894 0.13919 0.0
C4 C 0.10721 0.28426 0.11818 0.0
O5 O 0.09313 0.30976 0.11939 0.0
C6 C 0.9883 0.28752 0.1504 0.0
O7 O 0.02668 0.33166 0.10249 0.0
O8 O 0.0183 0.28689 0.08088 0.0
N9 N 0.06376 0.3488 0.16067 0.0
C10 C 0.04343 0.35473 0.18292 0.0
C11 C 0.08464 0.3408 0.20499 0.0
N12 N 0.09032 0.34303 0.17458 0.0
N13 N 0.05465 0.34637 0.21056 0.0
C14 C 0.02925 0.19743 0.12977 0.0
C15 C 0.98231 0.20692 0.12033 0.0
N16 N 0.02891 0.21801 0.10634 0.0
N17 N -0.00049 0.22107 0.09858 0.0
N18 N 0.00061 0.19387 0.14178 0.0
H19 H 0.07253 0.17746 0.116 0.0
H20 H 0.04001 0.15187 0.11491 0.0
H21 H 0.05572 0.16218 0.15105 0.0
C22 C 0.05095 0.17086 0.12795 0.0
C23 C 0.01887 0.37766 0.17784 0.0
H24 H 0.01043 0.37446 0.15423 0.0
H25 H 0.02839 0.40127 0.18035 0.0
H26 H 0.00025 0.37441 0.19424 0.0
O27 O 0.0053 0.30957 0.15916 0.0
O28 O 0.00065 0.26347 0.14042 0.0
C29 C 0.01228 0.31602 0.08218 0.0
O30 O 0.06472 0.23856 0.16078 0.0
O31 O 0.07405 0.285 0.17625 0.0
Zn32 Zn 0.23574 0.29327 0.37209 0.0
O33 O 0.2369 0.34227 0.35903 0.0
C34 C 0.24071 0.33013 0.42772 0.0
Zn35 Zn 0.18831 0.30037 0.38919 0.0
C36 C 0.213 0.3572 0.36818 0.0
O37 O 0.1875 0.34313 0.36938 0.0
C38 C 0.20973 0.2383 0.4004 0.0
O39 O 0.16559 0.27667 0.35249 0.0
O40 O 0.21036 0.26829 0.33088 0.0
N41 N 0.14846 0.31376 0.41067 0.0
C42 C 0.14252 0.29344 0.43292 0.0
C43 C 0.15645 0.33465 0.45499 0.0
N44 N 0.15423 0.34033 0.42458 0.0
N45 N 0.15088 0.30466 0.46056 0.0
C46 C 0.29982 0.27924 0.37977 0.0
C47 C 0.29033 0.2323 0.37034 0.0
N48 N 0.27924 0.2789 0.35634 0.0
N49 N 0.27618 0.2495 0.34858 0.0
N50 N 0.30338 0.2506 0.39178 0.0
H51 H 0.31979 0.32252 0.36599 0.0
H52 H 0.34539 0.29 0.36492 0.0
H53 H 0.33506 0.30572 0.40106 0.0
C54 C 0.32639 0.30094 0.37795 0.0
C55 C 0.1196 0.26887 0.42783 0.0
H56 H 0.12281 0.26043 0.40423 0.0
H57 H 0.09599 0.27839 0.43034 0.0
H58 H 0.12285 0.25026 0.44424 0.0
O59 O 0.18768 0.2553 0.40916 0.0
O60 O 0.23378 0.25065 0.39042 0.0
C61 C 0.18123 0.26227 0.33218 0.0
O62 O 0.2587 0.31472 0.41078 0.0
O63 O 0.21225 0.32405 0.42625 0.0
Zn64 Zn 0.20398 0.48573 0.62209 0.0
O65 O 0.15498 0.48689 0.60903 0.0
C66 C 0.16712 0.49071 0.67772 0.0
Zn67 Zn 0.19688 0.43831 0.63919 0.0
C68 C 0.14005 0.46299 0.61818 0.0
O69 O 0.15412 0.43749 0.61938 0.0
C70 C 0.25895 0.45973 0.6504 0.0
O71 O 0.22058 0.41559 0.60249 0.0
O72 O 0.22895 0.46036 0.58088 0.0
N73 N 0.18349 0.39846 0.66067 0.0
C74 C 0.20382 0.39252 0.68292 0.0
C75 C 0.16261 0.40645 0.70499 0.0
N76 N 0.15693 0.40423 0.67458 0.0
N77 N 0.1926 0.40088 0.71056 0.0
C78 C 0.218 0.54982 0.62976 0.0
C79 C 0.26494 0.54033 0.62033 0.0
N80 N 0.21834 0.52924 0.60634 0.0
N81 N 0.24774 0.52618 0.59857 0.0
N82 N 0.24664 0.55338 0.64178 0.0
H83 H 0.17473 0.5698 0.61599 0.0
H84 H 0.20724 0.59539 0.61492 0.0
H85 H 0.19152 0.58506 0.65105 0.0
C86 C 0.1963 0.57639 0.62795 0.0
C87 C 0.22838 0.36959 0.67783 0.0
H88 H 0.23682 0.37279 0.65423 0.0
H89 H 0.21885 0.34598 0.68034 0.0
H90 H 0.24699 0.37284 0.69424 0.0
O91 O 0.24194 0.43768 0.65916 0.0
O92 O 0.2466 0.48378 0.64042 0.0
C93 C 0.23498 0.43123 0.58218 0.0
O94 O 0.18253 0.50869 0.66078 0.0
O95 O 0.1732 0.46225 0.67625 0.0
Zn96 Zn 0.01152 0.45398 0.87209 0.0
O97 O 0.01037 0.40498 0.85903 0.0
C98 C 0.00654 0.41712 0.92772 0.0
Zn99 Zn 0.05895 0.44688 0.88919 0.0
C100 C 0.03427 0.39005 0.86818 0.0
O101 O 0.05976 0.40412 0.86939 0.0
C102 C 0.03752 0.50895 0.9004 0.0
O103 O 0.08167 0.47057 0.85249 0.0
O104 O 0.0369 0.47895 0.83088 0.0
N105 N 0.0988 0.43349 0.91067 0.0
C106 C 0.10473 0.45382 0.93292 0.0
C107 C 0.09081 0.41261 0.955 0.0
N108 N 0.09303 0.40693 0.92459 0.0
N109 N 0.09638 0.4426 0.96056 0.0
C110 C 0.94743 0.468 0.87976 0.0
C111 C 0.95692 0.51494 0.87033 0.0
N112 N 0.96802 0.46834 0.85634 0.0
N113 N 0.97107 0.49774 0.84858 0.0
N114 N 0.94387 0.49664 0.89177 0.0
H115 H 0.92746 0.42472 0.86599 0.0
H116 H 0.90187 0.45724 0.8649 0.0
H117 H 0.91218 0.44153 0.90104 0.0
C118 C 0.92087 0.4463 0.87794 0.0
C119 C 0.12766 0.47838 0.92783 0.0
H120 H 0.12445 0.48683 0.90423 0.0
H121 H 0.15127 0.46887 0.93034 0.0
H122 H 0.1244 0.497 0.94424 0.0
O123 O 0.05958 0.49195 0.90916 0.0
O124 O 0.01347 0.4966 0.89042 0.0
C125 C 0.06603 0.48497 0.83218 0.0
O126 O 0.98856 0.43253 0.91078 0.0
O127 O 0.03501 0.4232 0.92625 0.0
Zn128 Zn 0.05036 0.93831 0.10806 0.0
O129 O 0.02667 0.91559 0.14476 0.0
C130 C 0.9883 0.95973 0.09685 0.0
Zn131 Zn 0.04327 0.98574 0.12516 0.0
C132 C 0.01227 0.93123 0.16507 0.0
O133 O 0.01829 0.96036 0.16637 0.0
C134 C 0.08013 0.99071 0.06953 0.0
O135 O 0.09227 0.9869 0.13822 0.0
O136 O 0.09313 0.9375 0.12787 0.0
N137 N 0.0289 0.02924 0.1409 0.0
C138 C 0.02924 0.04982 0.11748 0.0
C139 C 0.9823 0.04033 0.12691 0.0
N140 N -0.00051 0.02618 0.14866 0.0
N141 N 0.00059 0.05337 0.10546 0.0
C142 C 0.04344 0.89252 0.06434 0.0
C143 C 0.08465 0.90644 0.04227 0.0
N144 N 0.06376 0.89846 0.08659 0.0
N145 N 0.09033 0.90423 0.07268 0.0
N146 N 0.05466 0.90087 0.03669 0.0
H147 H 0.01042 0.87282 0.09303 0.0
H148 H 0.02838 0.84599 0.06693 0.0
H149 H 0.00025 0.87286 0.05301 0.0
C150 C 0.01887 0.8696 0.06943 0.0
C151 C 0.05094 0.07638 0.11929 0.0
H152 H 0.07251 0.06979 0.13125 0.0
H153 H 0.04 0.09539 0.1323 0.0
H154 H 0.05572 0.08505 0.09618 0.0
O155 O 0.06472 0.00869 0.08647 0.0
O156 O 0.07405 0.96225 0.071 0.0
C157 C 0.1072 0.963 0.12908 0.0
O158 O 0.0053 0.93767 0.08809 0.0
O159 O 0.00064 0.98378 0.10683 0.0
Zn160 Zn 0.55895 0.30037 0.35806 0.0
O161 O 0.58166 0.27667 0.39477 0.0
C162 C 0.53753 0.23829 0.34685 0.0
Zn163 Zn 0.51152 0.29327 0.37516 0.0
C164 C 0.56602 0.26227 0.41507 0.0
O165 O 0.53689 0.26829 0.41637 0.0
C166 C 0.50655 0.33013 0.31953 0.0
O167 O 0.51036 0.34227 0.38822 0.0
O168 O 0.55975 0.34313 0.37787 0.0
N169 N 0.46801 0.2789 0.3909 0.0
C170 C 0.44743 0.27924 0.36747 0.0
C171 C 0.45692 0.2323 0.3769 0.0
N172 N 0.47107 0.2495 0.39866 0.0
N173 N 0.44388 0.2506 0.35546 0.0
C174 C 0.60474 0.29343 0.31434 0.0
C175 C 0.59082 0.33465 0.29227 0.0
N176 N 0.5988 0.31376 0.33659 0.0
N177 N 0.59304 0.34033 0.32268 0.0
N178 N 0.59638 0.30466 0.2867 0.0
H179 H 0.62445 0.26042 0.34303 0.0
H180 H 0.65127 0.27837 0.31692 0.0
H181 H 0.6244 0.25025 0.30301 0.0
C182 C 0.62766 0.26886 0.31943 0.0
C183 C 0.42086 0.30094 0.36929 0.0
H184 H 0.42746 0.32252 0.38124 0.0
H185 H 0.40187 0.29 0.38233 0.0
H186 H 0.41218 0.30571 0.34619 0.0
O187 O 0.48857 0.31471 0.33647 0.0
O188 O 0.53501 0.32405 0.321 0.0
C189 C 0.53426 0.3572 0.37907 0.0
O190 O 0.55958 0.2553 0.3381 0.0
O191 O 0.51348 0.25064 0.35683 0.0
Zn192 Zn 0.19689 0.80895 0.60806 0.0
O193 O 0.22058 0.83167 0.64476 0.0
C194 C 0.25896 0.78753 0.59685 0.0
Zn195 Zn 0.20398 0.76152 0.62516 0.0
C196 C 0.23498 0.81603 0.66507 0.0
O197 O 0.22896 0.7869 0.66637 0.0
C198 C 0.16712 0.75654 0.56953 0.0
O199 O 0.15499 0.76036 0.63822 0.0
O200 O 0.15413 0.80976 0.62787 0.0
N201 N 0.21836 0.71802 0.64091 0.0
C202 C 0.21801 0.69743 0.61748 0.0
C203 C 0.26495 0.70693 0.62691 0.0
N204 N 0.24776 0.72107 0.64867 0.0
N205 N 0.24666 0.69388 0.60546 0.0
C206 C 0.20381 0.85473 0.56433 0.0
C207 C 0.1626 0.84081 0.54227 0.0
N208 N 0.18349 0.8488 0.58658 0.0
N209 N 0.15692 0.84303 0.57267 0.0
N210 N 0.19259 0.84638 0.53669 0.0
H211 H 0.23683 0.87444 0.59303 0.0
H212 H 0.21887 0.90126 0.56691 0.0
H213 H 0.247 0.87439 0.55301 0.0
C214 C 0.22838 0.87765 0.56942 0.0
C215 C 0.19631 0.67087 0.61929 0.0
H216 H 0.17474 0.67746 0.63125 0.0
H217 H 0.20725 0.65187 0.63231 0.0
H218 H 0.19153 0.6622 0.59618 0.0
O219 O 0.18254 0.73856 0.58648 0.0
O220 O 0.1732 0.78501 0.571 0.0
C221 C 0.14005 0.78426 0.62908 0.0
O222 O 0.24195 0.80958 0.58809 0.0
O223 O 0.24661 0.76348 0.60683 0.0
Zn224 Zn 0.68831 0.44689 0.85807 0.0
O225 O 0.66559 0.47058 0.89477 0.0
C226 C 0.70972 0.50896 0.84685 0.0
Zn227 Zn 0.73574 0.45399 0.87516 0.0
C228 C 0.68123 0.48498 0.91507 0.0
O229 O 0.71036 0.47897 0.91637 0.0
C230 C 0.74071 0.41713 0.81953 0.0
O231 O 0.7369 0.40499 0.88822 0.0
O232 O 0.6875 0.40413 0.87787 0.0
N233 N 0.77924 0.46836 0.8909 0.0
C234 C 0.79982 0.46802 0.86748 0.0
C235 C 0.79032 0.51496 0.87691 0.0
N236 N 0.77618 0.49776 0.89867 0.0
N237 N 0.80337 0.49667 0.85546 0.0
C238 C 0.64252 0.45382 0.81434 0.0
C239 C 0.65644 0.4126 0.79227 0.0
N240 N 0.64846 0.43349 0.83659 0.0
N241 N 0.65422 0.40692 0.82268 0.0
N242 N 0.65088 0.44259 0.7867 0.0
H243 H 0.62283 0.48684 0.84303 0.0
H244 H 0.596 0.46889 0.81692 0.0
H245 H 0.62288 0.497 0.80301 0.0
C246 C 0.61961 0.47839 0.81942 0.0
C247 C 0.82638 0.44632 0.86928 0.0
H248 H 0.81979 0.42475 0.88125 0.0
H249 H 0.84539 0.45726 0.88229 0.0
H250 H 0.83504 0.44154 0.84617 0.0
O251 O 0.75869 0.43254 0.83648 0.0
O252 O 0.71225 0.42321 0.821 0.0
C253 C 0.713 0.39006 0.87908 0.0
O254 O 0.68767 0.49196 0.8381 0.0
O255 O 0.73378 0.49661 0.85683 0.0
Zn256 Zn 0.13919 0.05036 0.30895 0.0
O257 O 0.10249 0.02668 0.33167 0.0
C258 C 0.1504 0.98829 0.28753 0.0
Zn259 Zn 0.12209 0.04326 0.26152 0.0
C260 C 0.08218 0.01227 0.31602 0.0
O261 O 0.08088 0.01829 0.28689 0.0
C262 C 0.17772 0.08012 0.25654 0.0
O263 O 0.10904 0.09227 0.26036 0.0
O264 O 0.11939 0.09313 0.30975 0.0
N265 N 0.10635 0.02889 0.21801 0.0
C266 C 0.12977 0.02924 0.19743 0.0
C267 C 0.12034 0.9823 0.20693 0.0
N268 N 0.09859 -0.00051 0.22107 0.0
N269 N 0.14179 0.00059 0.19388 0.0
C270 C 0.18292 0.04344 0.35473 0.0
C271 C 0.20499 0.08465 0.34081 0.0
N272 N 0.16067 0.06376 0.3488 0.0
N273 N 0.17458 0.09033 0.34303 0.0
N274 N 0.21056 0.05466 0.34638 0.0
H275 H 0.15423 0.01041 0.37442 0.0
H276 H 0.18033 0.02836 0.40125 0.0
H277 H 0.19424 0.00025 0.37437 0.0
C278 C 0.17783 0.01886 0.37764 0.0
C279 C 0.12795 0.05093 0.17086 0.0
H280 H 0.116 0.07251 0.17745 0.0
H281 H 0.11492 0.03999 0.15187 0.0
H282 H 0.15106 0.05571 0.16218 0.0
O283 O 0.16078 0.06471 0.23856 0.0
O284 O 0.17625 0.07404 0.28501 0.0
C285 C 0.11818 0.1072 0.28426 0.0
O286 O 0.15915 0.00529 0.30958 0.0
O287 O 0.14042 0.00064 0.26348 0.0
Zn288 Zn 0.44689 0.38919 0.55895 0.0
O289 O 0.47058 0.35249 0.58166 0.0
C290 C 0.50896 0.4004 0.53753 0.0
Zn291 Zn 0.45399 0.37209 0.51152 0.0
C292 C 0.48498 0.33218 0.56602 0.0
O293 O 0.47896 0.33088 0.5369 0.0
C294 C 0.41713 0.42773 0.50654 0.0
O295 O 0.40498 0.35904 0.51036 0.0
O296 O 0.40412 0.36939 0.55976 0.0
N297 N 0.46835 0.35634 0.46802 0.0
C298 C 0.468 0.37976 0.44743 0.0
C299 C 0.51495 0.37034 0.45692 0.0
N300 N 0.49775 0.34858 0.47107 0.0
N301 N 0.49665 0.39178 0.44387 0.0
C302 C 0.45382 0.43292 0.60473 0.0
C303 C 0.41261 0.45499 0.59081 0.0
N304 N 0.4335 0.41067 0.5988 0.0
N305 N 0.40693 0.42458 0.59303 0.0
N306 N 0.4426 0.46056 0.59638 0.0
H307 H 0.48684 0.40423 0.62446 0.0
H308 H 0.46887 0.43035 0.65127 0.0
H309 H 0.497 0.44424 0.6244 0.0
C310 C 0.47839 0.42783 0.62766 0.0
C311 C 0.44631 0.37794 0.42086 0.0
H312 H 0.42473 0.36599 0.42746 0.0
H313 H 0.45725 0.36489 0.40188 0.0
H314 H 0.44154 0.40104 0.41217 0.0
O315 O 0.43255 0.41078 0.48856 0.0
O316 O 0.42321 0.42625 0.53501 0.0
C317 C 0.39005 0.36818 0.53426 0.0
O318 O 0.49196 0.40915 0.55958 0.0
O319 O 0.49661 0.39041 0.51348 0.0
Zn320 Zn 0.10806 0.69688 0.80895 0.0
O321 O 0.14476 0.72057 0.83166 0.0
C322 C 0.09686 0.75896 0.78753 0.0
Zn323 Zn 0.12516 0.70398 0.76152 0.0
C324 C 0.16507 0.73497 0.81602 0.0
O325 O 0.16637 0.72895 0.7869 0.0
C326 C 0.06953 0.66713 0.75654 0.0
O327 O 0.13821 0.65498 0.76036 0.0
O328 O 0.12787 0.65412 0.80975 0.0
N329 N 0.1409 0.71835 0.71801 0.0
C330 C 0.11748 0.71801 0.69743 0.0
C331 C 0.12691 0.76495 0.70693 0.0
N332 N 0.14867 0.74775 0.72107 0.0
N333 N 0.10546 0.74665 0.69388 0.0
C334 C 0.06434 0.70382 0.85473 0.0
C335 C 0.04226 0.6626 0.84081 0.0
N336 N 0.08658 0.68349 0.8488 0.0
N337 N 0.07267 0.65692 0.84303 0.0
N338 N 0.03669 0.69259 0.84638 0.0
H339 H 0.09303 0.73683 0.87443 0.0
H340 H 0.06693 0.71887 0.90127 0.0
H341 H 0.05301 0.747 0.8744 0.0
C342 C 0.06943 0.72838 0.87765 0.0
C343 C 0.1193 0.69631 0.67086 0.0
H344 H 0.13125 0.67474 0.67745 0.0
H345 H 0.13234 0.70726 0.65187 0.0
H346 H 0.0962 0.69154 0.66217 0.0
O347 O 0.08647 0.68254 0.73856 0.0
O348 O 0.071 0.67321 0.78501 0.0
C349 C 0.12907 0.64005 0.78426 0.0
O350 O 0.0881 0.74195 0.80958 0.0
O351 O 0.10683 0.74661 0.76348 0.0
Zn352 Zn 0.79327 0.37516 0.01152 0.0
O353 O 0.84227 0.38822 0.01036 0.0
C354 C 0.83013 0.31953 0.00654 0.0
Zn355 Zn 0.80037 0.35806 0.05895 0.0
C356 C 0.8572 0.37907 0.03426 0.0
O357 O 0.84313 0.37786 0.05975 0.0
C358 C 0.7383 0.34685 0.03753 0.0
O359 O 0.77668 0.39476 0.08167 0.0
O360 O 0.7683 0.41637 0.0369 0.0
N361 N 0.81377 0.33658 0.09879 0.0
C362 C 0.79344 0.31433 0.10473 0.0
C363 C 0.83465 0.29226 0.0908 0.0
N364 N 0.84033 0.32267 0.09302 0.0
N365 N 0.80466 0.28669 0.09637 0.0
C366 C 0.77924 0.36748 0.94743 0.0
C367 C 0.7323 0.37692 0.95693 0.0
N368 N 0.7789 0.39091 0.96801 0.0
N369 N 0.7495 0.39867 0.97107 0.0
N370 N 0.7506 0.35547 0.94388 0.0
H371 H 0.82252 0.38125 0.92745 0.0
H372 H 0.79 0.38234 0.90187 0.0
H373 H 0.80571 0.3462 0.91218 0.0
C374 C 0.80094 0.3693 0.92086 0.0
C375 C 0.76887 0.31943 0.12765 0.0
H376 H 0.76042 0.34303 0.12443 0.0
H377 H 0.77838 0.31692 0.15126 0.0
H378 H 0.75025 0.30301 0.12439 0.0
O379 O 0.7553 0.3381 0.05958 0.0
O380 O 0.75065 0.35683 0.01348 0.0
C381 C 0.76228 0.41507 0.06603 0.0
O382 O 0.81471 0.33647 0.98856 0.0
O383 O 0.82405 0.321 0.035 0.0
Zn384 Zn 0.13919 0.19688 0.93831 0.0
O385 O 0.10248 0.22057 0.91559 0.0
C386 C 0.1504 0.25896 0.95972 0.0
Zn387 Zn 0.12209 0.20398 0.98574 0.0
C388 C 0.08218 0.23497 0.93123 0.0
O389 O 0.08088 0.22895 0.96036 0.0
C390 C 0.17773 0.16713 0.99071 0.0
O391 O 0.10904 0.15498 0.9869 0.0
O392 O 0.11939 0.15412 0.9375 0.0
N393 N 0.10635 0.21835 0.02924 0.0
C394 C 0.12978 0.21801 0.04982 0.0
C395 C 0.12035 0.26495 0.04033 0.0
N396 N 0.09859 0.24775 0.02619 0.0
N397 N 0.14179 0.24665 0.05338 0.0
C398 C 0.18291 0.20381 0.89252 0.0
C399 C 0.20498 0.1626 0.90644 0.0
N400 N 0.16066 0.18349 0.89845 0.0
N401 N 0.17457 0.15692 0.90422 0.0
N402 N 0.21055 0.19258 0.90087 0.0
H403 H 0.15422 0.23683 0.87282 0.0
H404 H 0.18032 0.21888 0.84599 0.0
H405 H 0.19424 0.247 0.87286 0.0
C406 C 0.17782 0.22839 0.8696 0.0
C407 C 0.12796 0.19631 0.07639 0.0
H408 H 0.11601 0.17473 0.0698 0.0
H409 H 0.11492 0.20725 0.09538 0.0
H410 H 0.15106 0.19154 0.08508 0.0
O411 O 0.16078 0.18254 0.00869 0.0
O412 O 0.17625 0.17321 0.96224 0.0
C413 C 0.11818 0.14005 0.963 0.0
O414 O 0.15915 0.24195 0.93767 0.0
O415 O 0.14042 0.24661 0.98377 0.0
Zn416 Zn 0.30036 0.38919 0.18831 0.0
O417 O 0.27668 0.35249 0.1656 0.0
C418 C 0.23829 0.4004 0.20973 0.0
Zn419 Zn 0.29327 0.37209 0.23574 0.0
C420 C 0.26228 0.33218 0.18124 0.0
O421 O 0.26829 0.33088 0.21037 0.0
C422 C 0.33012 0.42773 0.24071 0.0
O423 O 0.34227 0.35904 0.2369 0.0
O424 O 0.34313 0.36939 0.18751 0.0
N425 N 0.2789 0.35635 0.27924 0.0
C426 C 0.27924 0.37978 0.29983 0.0
C427 C 0.2323 0.37035 0.29033 0.0
N428 N 0.2495 0.34859 0.27619 0.0
N429 N 0.25059 0.39179 0.30338 0.0
C430 C 0.29344 0.43291 0.14252 0.0
C431 C 0.33465 0.45498 0.15644 0.0
N432 N 0.31376 0.41066 0.14846 0.0
N433 N 0.34033 0.42457 0.15423 0.0
N434 N 0.30466 0.46056 0.15087 0.0
H435 H 0.26041 0.40422 0.12282 0.0
H436 H 0.27837 0.43033 0.09599 0.0
H437 H 0.25025 0.44424 0.12287 0.0
C438 C 0.26886 0.42782 0.11961 0.0
C439 C 0.30094 0.37796 0.32639 0.0
H440 H 0.32251 0.366 0.3198 0.0
H441 H 0.29 0.36493 0.34539 0.0
H442 H 0.30571 0.40107 0.33507 0.0
O443 O 0.31471 0.41078 0.25869 0.0
O444 O 0.32404 0.42625 0.21225 0.0
C445 C 0.3572 0.36818 0.213 0.0
O446 O 0.2553 0.40915 0.18767 0.0
O447 O 0.25064 0.39042 0.23378 0.0
Zn448 Zn 0.10806 0.55036 0.43831 0.0
O449 O 0.14476 0.52666 0.4156 0.0
C450 C 0.09685 0.48829 0.45973 0.0
Zn451 Zn 0.12516 0.54327 0.48574 0.0
C452 C 0.16507 0.51227 0.43124 0.0
O453 O 0.16638 0.51829 0.46037 0.0
C454 C 0.06953 0.58012 0.49071 0.0
O455 O 0.13822 0.59227 0.4869 0.0
O456 O 0.12787 0.59312 0.4375 0.0
N457 N 0.14091 0.5289 0.52925 0.0
C458 C 0.11748 0.52924 0.54983 0.0
C459 C 0.12691 0.4823 0.54033 0.0
N460 N 0.14867 0.4995 0.52619 0.0
N461 N 0.10547 0.5006 0.55338 0.0
C462 C 0.06434 0.54343 0.39252 0.0
C463 C 0.04227 0.58464 0.40645 0.0
N464 N 0.08659 0.56375 0.39846 0.0
N465 N 0.07268 0.59032 0.40423 0.0
N466 N 0.0367 0.55465 0.40088 0.0
H467 H 0.09302 0.51042 0.37278 0.0
H468 H 0.0669 0.5284 0.34598 0.0
H469 H 0.05301 0.50025 0.37284 0.0
C470 C 0.06942 0.51887 0.36958 0.0
C471 C 0.1193 0.55094 0.5764 0.0
H472 H 0.13126 0.57252 0.56981 0.0
H473 H 0.13233 0.54 0.59539 0.0
H474 H 0.0962 0.55571 0.58508 0.0
O475 O 0.08647 0.56471 0.5087 0.0
O476 O 0.071 0.57404 0.46225 0.0
C477 C 0.12907 0.6072 0.463 0.0
O478 O 0.08809 0.5053 0.43768 0.0
O479 O 0.10683 0.50064 0.48378 0.0
Zn480 Zn 0.95398 0.37516 0.73574 0.0
O481 O 0.90498 0.38822 0.7369 0.0
C482 C 0.91712 0.31953 0.74072 0.0
Zn483 Zn 0.94688 0.35806 0.68831 0.0
C484 C 0.89005 0.37907 0.713 0.0
O485 O 0.90412 0.37787 0.6875 0.0
C486 C 0.00895 0.34685 0.70973 0.0
O487 O 0.97057 0.39476 0.66559 0.0
O488 O 0.97895 0.41637 0.71036 0.0
N489 N 0.93349 0.33658 0.64846 0.0
C490 C 0.95382 0.31434 0.64252 0.0
C491 C 0.9126 0.29226 0.65645 0.0
N492 N 0.90692 0.32267 0.65423 0.0
N493 N 0.94259 0.28669 0.65088 0.0
C494 C 0.968 0.36748 0.79983 0.0
C495 C 0.01495 0.37692 0.79033 0.0
N496 N 0.96835 0.39091 0.77924 0.0
N497 N 0.99775 0.39867 0.77619 0.0
N498 N 0.99665 0.35547 0.80338 0.0
H499 H 0.92473 0.38126 0.8198 0.0
H500 H 0.95725 0.38234 0.84539 0.0
H501 H 0.94153 0.3462 0.83508 0.0
C502 C 0.94631 0.36931 0.82639 0.0
C503 C 0.97838 0.31943 0.61959 0.0
H504 H 0.98682 0.34303 0.62281 0.0
H505 H 0.96886 0.31693 0.59599 0.0
H506 H 0.99699 0.30302 0.62284 0.0
O507 O 0.99195 0.33809 0.68768 0.0
O508 O 0.99661 0.35683 0.73378 0.0
C509 C 0.98497 0.41507 0.68123 0.0
O510 O 0.93254 0.33647 0.7587 0.0
O511 O 0.9232 0.321 0.71225 0.0
Zn512 Zn 0.30894 0.13919 0.05037 0.0
O513 O 0.33166 0.10249 0.02668 0.0
C514 C 0.28752 0.1504 0.9883 0.0
Zn515 Zn 0.26151 0.12209 0.04327 0.0
C516 C 0.31602 0.08218 0.01227 0.0
O517 O 0.28689 0.08088 0.01829 0.0
C518 C 0.25654 0.17772 0.08013 0.0
O519 O 0.26036 0.10903 0.09227 0.0
O520 O 0.30975 0.11938 0.09313 0.0
N521 N 0.21802 0.10634 0.02889 0.0
C522 C 0.19743 0.12976 0.02924 0.0
C523 C 0.20692 0.12033 0.98229 0.0
N524 N 0.22108 0.09858 -0.00051 0.0
N525 N 0.19385 0.14176 0.00059 0.0
C526 C 0.35473 0.18292 0.04344 0.0
C527 C 0.3408 0.20499 0.08465 0.0
N528 N 0.34879 0.16067 0.06376 0.0
N529 N 0.34302 0.17458 0.09033 0.0
N530 N 0.34637 0.21056 0.05466 0.0
H531 H 0.37443 0.15423 0.01042 0.0
H532 H 0.40126 0.18033 0.02838 0.0
H533 H 0.37439 0.19424 0.00025 0.0
C534 C 0.37765 0.17783 0.01887 0.0
C535 C 0.17087 0.12795 0.05095 0.0
H536 H 0.17747 0.116 0.07252 0.0
H537 H 0.15186 0.11493 0.04002 0.0
H538 H 0.1622 0.15106 0.05573 0.0
O539 O 0.23855 0.16078 0.06472 0.0
O540 O 0.285 0.17625 0.07405 0.0
C541 C 0.28426 0.11818 0.1072 0.0
O542 O 0.30958 0.15915 0.0053 0.0
O543 O 0.26347 0.14043 0.00064 0.0
Zn544 Zn 0.76152 0.12516 0.70399 0.0
O545 O 0.76036 0.13822 0.65499 0.0
C546 C 0.75654 0.06953 0.66713 0.0
Zn547 Zn 0.80894 0.10806 0.69689 0.0
C548 C 0.78426 0.12907 0.64006 0.0
O549 O 0.80975 0.12787 0.65413 0.0
C550 C 0.78752 0.09685 0.75896 0.0
O551 O 0.83166 0.14476 0.72059 0.0
O552 O 0.78689 0.16637 0.72896 0.0
N553 N 0.8488 0.08658 0.6835 0.0
C554 C 0.85473 0.06433 0.70382 0.0
C555 C 0.84081 0.04227 0.66261 0.0
N556 N 0.84303 0.07268 0.65693 0.0
N557 N 0.84638 0.03669 0.6926 0.0
C558 C 0.69743 0.11747 0.71802 0.0
C559 C 0.70693 0.12691 0.76496 0.0
N560 N 0.71801 0.1409 0.71836 0.0
N561 N 0.72107 0.14867 0.74776 0.0
N562 N 0.69388 0.10546 0.74666 0.0
H563 H 0.67745 0.13124 0.67475 0.0
H564 H 0.65186 0.13229 0.70726 0.0
H565 H 0.6622 0.09617 0.69154 0.0
C566 C 0.67087 0.11928 0.69632 0.0
C567 C 0.87766 0.06942 0.72839 0.0
H568 H 0.87446 0.09302 0.73683 0.0
H569 H 0.90127 0.0669 0.71887 0.0
H570 H 0.8744 0.05301 0.747 0.0
O571 O 0.80958 0.08809 0.74196 0.0
O572 O 0.76347 0.10683 0.74661 0.0
C573 C 0.81602 0.16507 0.73499 0.0
O574 O 0.73856 0.08647 0.68254 0.0
O575 O 0.78501 0.071 0.67321 0.0
Zn576 Zn 0.3892 0.05895 0.94689 0.0
O577 O 0.3525 0.08166 0.97059 0.0
C578 C 0.40041 0.03752 0.00895 0.0
Zn579 Zn 0.37209 0.01152 0.95398 0.0
C580 C 0.33219 0.06602 0.98499 0.0
O581 O 0.33088 0.03689 0.97896 0.0
C582 C 0.42773 0.00654 0.91712 0.0
O583 O 0.35904 0.01036 0.90498 0.0
O584 O 0.36939 0.05976 0.90413 0.0
N585 N 0.35635 0.96801 0.96834 0.0
C586 C 0.37977 0.94743 0.968 0.0
C587 C 0.37034 0.95693 0.01495 0.0
N588 N 0.34858 0.97107 0.99774 0.0
N589 N 0.39178 0.94388 0.99665 0.0
C590 C 0.43292 0.10474 0.95383 0.0
C591 C 0.45499 0.09081 0.91261 0.0
N592 N 0.41067 0.0988 0.9335 0.0
N593 N 0.42458 0.09303 0.90693 0.0
N594 N 0.46056 0.09638 0.9426 0.0
H595 H 0.40423 0.12447 0.98683 0.0
H596 H 0.43035 0.15128 0.96886 0.0
H597 H 0.44424 0.12442 0.997 0.0
C598 C 0.42784 0.12767 0.97838 0.0
C599 C 0.37795 0.92086 0.94631 0.0
H600 H 0.366 0.92744 0.92474 0.0
H601 H 0.36492 0.90186 0.95726 0.0
H602 H 0.40106 0.91218 0.94154 0.0
O603 O 0.41078 0.98856 0.93254 0.0
O604 O 0.42625 0.03501 0.9232 0.0
C605 C 0.36818 0.03427 0.89005 0.0
O606 O 0.40917 0.05957 0.99195 0.0
O607 O 0.39042 0.01347 0.99661 0.0
Zn608 Zn 0.43831 0.63919 0.19689 0.0
O609 O 0.41559 0.60249 0.22058 0.0
C610 C 0.45973 0.6504 0.25896 0.0
Zn611 Zn 0.48574 0.62209 0.20398 0.0
C612 C 0.43123 0.58218 0.23498 0.0
O613 O 0.46036 0.58088 0.22896 0.0
C614 C 0.49071 0.67772 0.16713 0.0
O615 O 0.48689 0.60903 0.15498 0.0
O616 O 0.4375 0.61939 0.15413 0.0
N617 N 0.52924 0.60634 0.21835 0.0
C618 C 0.54982 0.62977 0.21801 0.0
C619 C 0.54033 0.62034 0.26495 0.0
N620 N 0.52619 0.59858 0.24775 0.0
N621 N 0.55338 0.64178 0.24665 0.0
C622 C 0.39252 0.68292 0.20382 0.0
C623 C 0.40645 0.70499 0.16261 0.0
N624 N 0.39846 0.66067 0.1835 0.0
N625 N 0.40423 0.67458 0.15693 0.0
N626 N 0.40088 0.71056 0.1926 0.0
H627 H 0.37278 0.65423 0.23683 0.0
H628 H 0.34598 0.68035 0.21886 0.0
H629 H 0.37284 0.69424 0.247 0.0
C630 C 0.36958 0.67783 0.22838 0.0
C631 C 0.57639 0.62796 0.19631 0.0
H632 H 0.5698 0.61599 0.17474 0.0
H633 H 0.59539 0.61493 0.20725 0.0
H634 H 0.58506 0.65106 0.19153 0.0
O635 O 0.50869 0.66078 0.18254 0.0
O636 O 0.46225 0.67625 0.17321 0.0
C637 C 0.46299 0.61818 0.14005 0.0
O638 O 0.43768 0.65916 0.24195 0.0
O639 O 0.48378 0.64042 0.24661 0.0
Zn640 Zn 0.37516 0.23574 0.45398 0.0
O641 O 0.38822 0.2369 0.40498 0.0
C642 C 0.31953 0.24071 0.41713 0.0
Zn643 Zn 0.35807 0.18831 0.44689 0.0
C644 C 0.37908 0.213 0.39005 0.0
O645 O 0.37787 0.1875 0.40412 0.0
C646 C 0.34686 0.20973 0.50895 0.0
O647 O 0.39477 0.16559 0.47058 0.0
O648 O 0.41638 0.21036 0.47896 0.0
N649 N 0.33659 0.14846 0.43349 0.0
C650 C 0.31434 0.14252 0.45382 0.0
C651 C 0.29227 0.15645 0.4126 0.0
N652 N 0.32268 0.15423 0.40692 0.0
N653 N 0.2867 0.15088 0.44259 0.0
C654 C 0.36749 0.29983 0.468 0.0
C655 C 0.37692 0.29033 0.51495 0.0
N656 N 0.39091 0.27924 0.46835 0.0
N657 N 0.39867 0.27619 0.49775 0.0
N658 N 0.35547 0.30338 0.49665 0.0
H659 H 0.38126 0.3198 0.42473 0.0
H660 H 0.38235 0.34538 0.45725 0.0
H661 H 0.3462 0.33508 0.44153 0.0
C662 C 0.36931 0.32639 0.44631 0.0
C663 C 0.31942 0.1196 0.47838 0.0
H664 H 0.34303 0.12281 0.48683 0.0
H665 H 0.31692 0.09599 0.46887 0.0
H666 H 0.30301 0.12285 0.497 0.0
O667 O 0.3381 0.18768 0.49195 0.0
O668 O 0.35684 0.23378 0.49661 0.0
C669 C 0.41507 0.18123 0.48498 0.0
O670 O 0.33648 0.2587 0.43254 0.0
O671 O 0.321 0.21225 0.42321 0.0
Zn672 Zn 0.9383 0.10807 0.05037 0.0
O673 O 0.91559 0.14477 0.02668 0.0
C674 C 0.95972 0.09686 0.98829 0.0
Zn675 Zn 0.98573 0.12516 0.04327 0.0
C676 C 0.93123 0.16508 0.01228 0.0
O677 O 0.96036 0.16638 0.0183 0.0
C678 C 0.99071 0.06953 0.08012 0.0
O679 O 0.9869 0.13822 0.09227 0.0
O680 O 0.9375 0.12787 0.09313 0.0
N681 N 0.02924 0.14091 0.0289 0.0
C682 C 0.04982 0.11749 0.02925 0.0
C683 C 0.04033 0.12691 0.98231 0.0
N684 N 0.02618 0.14867 -0.0005 0.0
N685 N 0.05338 0.10547 0.0006 0.0
C686 C 0.89252 0.06434 0.04344 0.0
C687 C 0.90644 0.04227 0.08465 0.0
N688 N 0.89846 0.08659 0.06376 0.0
N689 N 0.90422 0.07268 0.09033 0.0
N690 N 0.90087 0.03669 0.05466 0.0
H691 H 0.87283 0.09303 0.01041 0.0
H692 H 0.846 0.06692 0.02836 0.0
H693 H 0.87287 0.05301 0.00025 0.0
C694 C 0.86961 0.06943 0.01886 0.0
C695 C 0.07639 0.11931 0.05094 0.0
H696 H 0.06979 0.13125 0.07253 0.0
H697 H 0.09538 0.13236 0.04001 0.0
H698 H 0.08509 0.09621 0.05571 0.0
O699 O 0.00869 0.08647 0.06471 0.0
O700 O 0.96224 0.071 0.07404 0.0
C701 C 0.96299 0.12907 0.1072 0.0
O702 O 0.93767 0.0881 0.0053 0.0
O703 O 0.98377 0.10684 0.00064 0.0
Zn704 Zn 0.38919 0.68831 0.80037 0.0
O705 O 0.35249 0.66559 0.77668 0.0
C706 C 0.4004 0.70973 0.7383 0.0
Zn707 Zn 0.37209 0.73573 0.79327 0.0
C708 C 0.33218 0.68123 0.76227 0.0
O709 O 0.33088 0.71035 0.76829 0.0
C710 C 0.42772 0.74071 0.83013 0.0
O711 O 0.35903 0.73689 0.84227 0.0
O712 O 0.36939 0.6875 0.84313 0.0
N713 N 0.35634 0.77924 0.7789 0.0
C714 C 0.37977 0.79982 0.77925 0.0
C715 C 0.37034 0.79033 0.7323 0.0
N716 N 0.34858 0.77618 0.7495 0.0
N717 N 0.39178 0.80338 0.7506 0.0
C718 C 0.43292 0.64252 0.79344 0.0
C719 C 0.45499 0.65645 0.83465 0.0
N720 N 0.41067 0.64846 0.81376 0.0
N721 N 0.42458 0.65423 0.84033 0.0
N722 N 0.46056 0.65088 0.80466 0.0
H723 H 0.40423 0.62282 0.76043 0.0
H724 H 0.43034 0.59599 0.77838 0.0
H725 H 0.44424 0.62286 0.75025 0.0
C726 C 0.42783 0.6196 0.76887 0.0
C727 C 0.37795 0.82638 0.80094 0.0
H728 H 0.36599 0.81979 0.82252 0.0
H729 H 0.36491 0.84538 0.79001 0.0
H730 H 0.40105 0.83507 0.80572 0.0
O731 O 0.41078 0.75869 0.81471 0.0
O732 O 0.42625 0.71225 0.82405 0.0
C733 C 0.36818 0.71299 0.8572 0.0
O734 O 0.40916 0.68768 0.7553 0.0
O735 O 0.39042 0.73378 0.75064 0.0
Zn736 Zn 0.85806 0.05894 0.30037 0.0
O737 O 0.89475 0.08166 0.27667 0.0
C738 C 0.84684 0.03751 0.2383 0.0
Zn739 Zn 0.87516 0.01152 0.29328 0.0
C740 C 0.91506 0.06602 0.26227 0.0
O741 O 0.91637 0.0369 0.2683 0.0
C742 C 0.81953 0.00654 0.33014 0.0
O743 O 0.88822 0.01037 0.34227 0.0
O744 O 0.87787 0.05976 0.34313 0.0
N745 N 0.89091 0.96801 0.27891 0.0
C746 C 0.86749 0.94743 0.27926 0.0
C747 C 0.87693 0.95692 0.23232 0.0
N748 N 0.89868 0.97107 0.24951 0.0
N749 N 0.85548 0.94387 0.25061 0.0
C750 C 0.81433 0.10473 0.29343 0.0
C751 C 0.79226 0.0908 0.33464 0.0
N752 N 0.83658 0.09879 0.31376 0.0
N753 N 0.82266 0.09302 0.34032 0.0
N754 N 0.78669 0.09637 0.30465 0.0
H755 H 0.84302 0.12449 0.26044 0.0
H756 H 0.81688 0.15128 0.27841 0.0
H757 H 0.80301 0.12443 0.25026 0.0
C758 C 0.81941 0.12768 0.26888 0.0
C759 C 0.86931 0.92086 0.30095 0.0
H760 H 0.88126 0.92745 0.32253 0.0
H761 H 0.88235 0.90187 0.29001 0.0
H762 H 0.84621 0.91218 0.30573 0.0
O763 O 0.83648 0.98856 0.31472 0.0
O764 O 0.821 0.035 0.32406 0.0
C765 C 0.87907 0.03427 0.3572 0.0
O766 O 0.83808 0.05956 0.25531 0.0
O767 O 0.85683 0.01347 0.25065 0.0
Zn768 Zn 0.94465 0.68875 0.8574 0.0
O769 O 0.90384 0.68311 0.87905 0.0
C770 C 0.91909 0.74123 0.81938 0.0
Zn771 Zn 0.95723 0.73288 0.87563 0.0
C772 C 0.89007 0.70885 0.87886 0.0
O773 O 0.90586 0.73343 0.88385 0.0
C774 C 0.0086 0.70613 0.8462 0.0
O775 O 0.97744 0.71114 0.91987 0.0
O776 O 0.9728 0.66827 0.89367 0.0
N777 N 0.96496 0.77899 0.88768 0.0
C778 C 0.99197 0.78911 0.8757 0.0
C779 C 0.95637 0.8124 0.85186 0.0
N780 N 0.9432 0.79592 0.87468 0.0
N781 N 0.98698 0.8071 0.85044 0.0
C782 C 0.93238 0.65189 0.80827 0.0
C783 C 0.97722 0.63272 0.80834 0.0
N784 N 0.93995 0.64682 0.83769 0.0
N785 N 0.96698 0.63269 0.83759 0.0
N786 N 0.9565 0.6465 0.78972 0.0
H787 H 0.88393 0.65717 0.81781 0.0
H788 H 0.89334 0.63598 0.78319 0.0
H789 H 0.89893 0.67614 0.78364 0.0
C790 C 0.89996 0.65545 0.79795 0.0
C791 C 0.01913 0.79206 0.89673 0.0
H792 H 0.02376 0.76971 0.90815 0.0
H793 H 0.01287 0.80762 0.91595 0.0
H794 H 0.03972 0.80136 0.88525 0.0
O795 O 0.00321 0.72923 0.86287 0.0
O796 O 0.98621 0.69227 0.83387 0.0
C797 C 0.98542 0.68276 0.91599 0.0
O798 O 0.91598 0.71234 0.82126 0.0
O799 O 0.9418 0.75287 0.8334 0.0
Zn800 Zn 0.8085 0.69465 0.6074 0.0
O801 O 0.81414 0.65384 0.62906 0.0
C802 C 0.75601 0.66908 0.56938 0.0
Zn803 Zn 0.76437 0.70722 0.62563 0.0
C804 C 0.7884 0.64006 0.62886 0.0
O805 O 0.76382 0.65586 0.63385 0.0
C806 C 0.79112 0.7586 0.5962 0.0
O807 O 0.7861 0.72743 0.66988 0.0
O808 O 0.82898 0.7228 0.64368 0.0
N809 N 0.71825 0.71495 0.63768 0.0
C810 C 0.70814 0.74196 0.6257 0.0
C811 C 0.68485 0.70636 0.60186 0.0
N812 N 0.70133 0.69319 0.62468 0.0
N813 N 0.69014 0.73697 0.60044 0.0
C814 C 0.84536 0.68239 0.55827 0.0
C815 C 0.86453 0.72722 0.55835 0.0
N816 N 0.85043 0.68995 0.58769 0.0
N817 N 0.86456 0.71698 0.5876 0.0
N818 N 0.85075 0.7065 0.53972 0.0
H819 H 0.84009 0.63393 0.56781 0.0
H820 H 0.86127 0.64335 0.53319 0.0
H821 H 0.82111 0.64893 0.53364 0.0
C822 C 0.8418 0.64996 0.54795 0.0
C823 C 0.70519 0.76913 0.64673 0.0
H824 H 0.72754 0.77375 0.65815 0.0
H825 H 0.68963 0.76287 0.66595 0.0
H826 H 0.69589 0.78971 0.63525 0.0
O827 O 0.76801 0.75321 0.61287 0.0
O828 O 0.80498 0.73621 0.58388 0.0
C829 C 0.81449 0.73542 0.666 0.0
O830 O 0.78491 0.66597 0.57126 0.0
O831 O 0.74438 0.69179 0.5834 0.0
Zn832 Zn 0.79003 0.51437 0.37564 0.0
O833 O 0.76982 0.53611 0.41987 0.0
C834 C 0.73866 0.54112 0.3462 0.0
Zn835 Zn 0.8026 0.5585 0.3574 0.0
C836 C 0.76183 0.56449 0.41599 0.0
O837 O 0.77445 0.57898 0.39367 0.0
C838 C 0.82817 0.50601 0.31938 0.0
O839 O 0.84341 0.56415 0.37905 0.0
O840 O 0.8414 0.51382 0.38385 0.0
N841 N 0.8073 0.60043 0.33768 0.0
C842 C 0.81486 0.59535 0.30826 0.0
C843 C 0.77003 0.61452 0.30834 0.0
N844 N 0.78027 0.61455 0.33759 0.0
N845 N 0.79075 0.60074 0.28972 0.0
C846 C 0.7553 0.45814 0.37571 0.0
C847 C 0.79089 0.43485 0.35187 0.0
N848 N 0.7823 0.46826 0.38769 0.0
N849 N 0.80407 0.45133 0.37469 0.0
N850 N 0.76029 0.44014 0.35045 0.0
H851 H 0.72351 0.47754 0.40816 0.0
H852 H 0.73438 0.43963 0.41596 0.0
H853 H 0.70754 0.4459 0.38525 0.0
C854 C 0.72813 0.45519 0.39674 0.0
C855 C 0.84729 0.59179 0.29794 0.0
H856 H 0.86332 0.59009 0.3178 0.0
H857 H 0.8539 0.61126 0.28317 0.0
H858 H 0.84832 0.5711 0.28364 0.0
O859 O 0.83128 0.53491 0.32126 0.0
O860 O 0.80546 0.49438 0.33341 0.0
C861 C 0.85719 0.53841 0.37886 0.0
O862 O 0.74404 0.51801 0.36287 0.0
O863 O 0.76104 0.55497 0.33388 0.0
Zn864 Zn 0.98288 0.54003 0.12563 0.0
O865 O 0.96114 0.51982 0.16987 0.0
C866 C 0.95613 0.48865 0.0962 0.0
Zn867 Zn 0.93875 0.5526 0.1074 0.0
C868 C 0.93275 0.51183 0.16599 0.0
O869 O 0.91826 0.52445 0.14367 0.0
C870 C 0.99123 0.57816 0.06938 0.0
O871 O 0.9331 0.59341 0.12905 0.0
O872 O 0.98343 0.59139 0.13385 0.0
N873 N 0.89682 0.5573 0.08768 0.0
C874 C 0.90189 0.56486 0.05826 0.0
C875 C 0.88273 0.52003 0.05834 0.0
N876 N 0.88269 0.53027 0.08758 0.0
N877 N 0.89651 0.54075 0.03972 0.0
C878 C 0.03911 0.50529 0.12571 0.0
C879 C 0.0624 0.54089 0.10187 0.0
N880 N 0.02899 0.53229 0.13768 0.0
N881 N 0.04592 0.55406 0.12468 0.0
N882 N 0.05711 0.51028 0.10044 0.0
H883 H 0.01971 0.4735 0.15816 0.0
H884 H 0.05762 0.48438 0.16595 0.0
H885 H 0.05136 0.45754 0.13525 0.0
C886 C 0.04206 0.47812 0.14673 0.0
C887 C 0.90545 0.59729 0.04795 0.0
H888 H 0.90716 0.61332 0.06781 0.0
H889 H 0.88598 0.6039 0.03318 0.0
H890 H 0.92614 0.59832 0.03364 0.0
O891 O 0.96234 0.58127 0.07126 0.0
O892 O 0.00287 0.55545 0.0834 0.0
C893 C 0.95884 0.60719 0.12886 0.0
O894 O 0.97924 0.49404 0.11287 0.0
O895 O 0.94227 0.51104 0.08388 0.0
Zn896 Zn 0.95723 0.01437 0.87162 0.0
O897 O 0.97744 0.0361 0.82738 0.0
C898 C 0.0086 0.04113 0.90105 0.0
Zn899 Zn 0.94466 0.0585 0.88985 0.0
C900 C 0.98542 0.06449 0.83126 0.0
O901 O 0.9728 0.07898 0.85357 0.0
C902 C 0.91909 0.00603 0.92788 0.0
O903 O 0.90384 0.06414 0.8682 0.0
O904 O 0.90586 0.01382 0.86341 0.0
N905 N 0.93996 0.10044 0.90955 0.0
C906 C 0.93238 0.09539 0.93897 0.0
C907 C 0.97721 0.11456 0.9389 0.0
N908 N 0.96699 0.11456 0.90965 0.0
N909 N 0.95647 0.10081 0.95752 0.0
C910 C 0.99197 0.95814 0.87155 0.0
C911 C 0.95637 0.93486 0.8954 0.0
N912 N 0.96496 0.96826 0.85958 0.0
N913 N 0.9432 0.95133 0.87258 0.0
N914 N 0.98697 0.94015 0.89682 0.0
H915 H 0.02375 0.97754 0.8391 0.0
H916 H 0.01287 0.93964 0.8313 0.0
H917 H 0.03971 0.94589 0.86201 0.0
C918 C 0.01913 0.95519 0.85052 0.0
C919 C 0.89995 0.09182 0.94927 0.0
H920 H 0.88393 0.0901 0.9294 0.0
H921 H 0.89332 0.1113 0.96402 0.0
H922 H 0.89892 0.07114 0.96358 0.0
O923 O 0.91598 0.03492 0.926 0.0
O924 O 0.9418 0.99439 0.91386 0.0
C925 C 0.89007 0.0384 0.86839 0.0
O926 O 0.00321 0.01802 0.88439 0.0
O927 O 0.98621 0.05499 0.91337 0.0
Zn928 Zn 0.48288 0.70722 0.62162 0.0
O929 O 0.46114 0.72743 0.57738 0.0
C930 C 0.45612 0.7586 0.65105 0.0
Zn931 Zn 0.43875 0.69466 0.63985 0.0
C932 C 0.43276 0.73542 0.58126 0.0
O933 O 0.41827 0.7228 0.60357 0.0
C934 C 0.49123 0.66909 0.67788 0.0
O935 O 0.43311 0.65384 0.6182 0.0
O936 O 0.48343 0.65586 0.61341 0.0
N937 N 0.39681 0.68995 0.65956 0.0
C938 C 0.40187 0.68238 0.68897 0.0
C939 C 0.3827 0.72721 0.68891 0.0
N940 N 0.38269 0.71699 0.65965 0.0
N941 N 0.39646 0.70648 0.70753 0.0
C942 C 0.53911 0.74196 0.62155 0.0
C943 C 0.5624 0.70637 0.64539 0.0
N944 N 0.52899 0.71496 0.60958 0.0
N945 N 0.54592 0.69319 0.62258 0.0
N946 N 0.55711 0.73697 0.64682 0.0
H947 H 0.51971 0.77375 0.5891 0.0
H948 H 0.55762 0.76287 0.5813 0.0
H949 H 0.55136 0.78971 0.612 0.0
C950 C 0.54206 0.76913 0.60052 0.0
C951 C 0.40544 0.64995 0.69928 0.0
H952 H 0.40716 0.63393 0.67941 0.0
H953 H 0.38597 0.64333 0.71404 0.0
H954 H 0.42612 0.64892 0.71359 0.0
O955 O 0.46233 0.66598 0.676 0.0
O956 O 0.50286 0.6918 0.66385 0.0
C957 C 0.45885 0.64006 0.61839 0.0
O958 O 0.47923 0.75321 0.63439 0.0
O959 O 0.44226 0.73621 0.66338 0.0
Zn960 Zn 0.80259 0.18875 0.38985 0.0
O961 O 0.84341 0.1831 0.3682 0.0
C962 C 0.82816 0.24123 0.42787 0.0
Zn963 Zn 0.79002 0.23288 0.37162 0.0
C964 C 0.85719 0.20884 0.36839 0.0
O965 O 0.84139 0.23343 0.36341 0.0
C966 C 0.73865 0.20613 0.40105 0.0
O967 O 0.76982 0.21114 0.32738 0.0
O968 O 0.77445 0.16827 0.35358 0.0
N969 N 0.7823 0.27899 0.35957 0.0
C970 C 0.75529 0.28911 0.37155 0.0
C971 C 0.79089 0.3124 0.39539 0.0
N972 N 0.80406 0.29592 0.37257 0.0
N973 N 0.76029 0.30711 0.39682 0.0
C974 C 0.81486 0.15189 0.43899 0.0
C975 C 0.77003 0.13272 0.43892 0.0
N976 N 0.80729 0.14681 0.40957 0.0
N977 N 0.78026 0.13269 0.40967 0.0
N978 N 0.79075 0.1465 0.45754 0.0
H979 H 0.86331 0.15716 0.42943 0.0
H980 H 0.8539 0.13597 0.46406 0.0
H981 H 0.84832 0.17613 0.46361 0.0
C982 C 0.84729 0.15545 0.4493 0.0
C983 C 0.72812 0.29206 0.35052 0.0
H984 H 0.7235 0.26971 0.3391 0.0
H985 H 0.73438 0.30762 0.3313 0.0
H986 H 0.70754 0.30136 0.36201 0.0
O987 O 0.74404 0.22924 0.38438 0.0
O988 O 0.76104 0.19227 0.41337 0.0
C989 C 0.76183 0.18276 0.33126 0.0
O990 O 0.83127 0.21234 0.426 0.0
O991 O 0.80545 0.25286 0.41385 0.0
Zn992 Zn 0.26437 0.54002 0.12162 0.0
O993 O 0.28611 0.51981 0.07738 0.0
C994 C 0.29113 0.48865 0.15106 0.0
Zn995 Zn 0.30851 0.5526 0.13985 0.0
C996 C 0.31449 0.51183 0.08126 0.0
O997 O 0.32898 0.52445 0.10358 0.0
C998 C 0.25603 0.57816 0.17788 0.0
O999 O 0.31414 0.59341 0.1182 0.0
O1000 O 0.26382 0.59139 0.11341 0.0
N1001 N 0.35044 0.5573 0.15956 0.0
C1002 C 0.34537 0.56487 0.18898 0.0
C1003 C 0.36454 0.52004 0.18891 0.0
N1004 N 0.36457 0.53027 0.15966 0.0
N1005 N 0.35076 0.54076 0.20753 0.0
C1006 C 0.20814 0.50528 0.12156 0.0
C1007 C 0.18486 0.54088 0.1454 0.0
N1008 N 0.21826 0.53229 0.10958 0.0
N1009 N 0.20133 0.55405 0.12258 0.0
N1010 N 0.19015 0.51027 0.14682 0.0
H1011 H 0.22754 0.47349 0.08911 0.0
H1012 H 0.18964 0.48438 0.0813 0.0
H1013 H 0.19588 0.45754 0.11201 0.0
C1014 C 0.20519 0.47812 0.10053 0.0
C1015 C 0.34181 0.5973 0.19929 0.0
H1016 H 0.34009 0.61332 0.17942 0.0
H1017 H 0.36129 0.60392 0.21404 0.0
H1018 H 0.32113 0.59833 0.2136 0.0
O1019 O 0.28492 0.58127 0.176 0.0
O1020 O 0.24439 0.55545 0.16385 0.0
C1021 C 0.2884 0.60718 0.11839 0.0
O1022 O 0.26802 0.49404 0.13439 0.0
O1023 O 0.30499 0.51104 0.16338 0.0
Zn1024 Zn 0.87563 0.95723 0.73288 0.0
O1025 O 0.91987 0.97744 0.71114 0.0
C1026 C 0.84619 0.00859 0.70613 0.0
Zn1027 Zn 0.8574 0.94465 0.68875 0.0
C1028 C 0.91599 0.98542 0.68276 0.0
O1029 O 0.89367 0.9728 0.66827 0.0
C1030 C 0.81938 0.91909 0.74123 0.0
O1031 O 0.87906 0.90384 0.68311 0.0
O1032 O 0.88385 0.90586 0.73343 0.0
N1033 N 0.83769 0.93994 0.64681 0.0
C1034 C 0.80827 0.93238 0.65189 0.0
C1035 C 0.80834 0.97721 0.63272 0.0
N1036 N 0.83759 0.96698 0.63269 0.0
N1037 N 0.78972 0.95649 0.6465 0.0
C1038 C 0.8757 0.99197 0.78911 0.0
C1039 C 0.85186 0.95637 0.8124 0.0
N1040 N 0.88767 0.96496 0.77899 0.0
N1041 N 0.87467 0.9432 0.79592 0.0
N1042 N 0.85043 0.98697 0.80711 0.0
H1043 H 0.90815 0.02376 0.76972 0.0
H1044 H 0.91595 0.01287 0.80762 0.0
H1045 H 0.88525 0.03971 0.80137 0.0
C1046 C 0.89673 0.01913 0.79207 0.0
C1047 C 0.79796 0.89996 0.65545 0.0
H1048 H 0.81782 0.88393 0.65716 0.0
H1049 H 0.78319 0.89334 0.63598 0.0
H1050 H 0.78365 0.89893 0.67614 0.0
O1051 O 0.82126 0.91597 0.71234 0.0
O1052 O 0.8334 0.9418 0.75286 0.0
C1053 C 0.87886 0.89006 0.70885 0.0
O1054 O 0.86286 0.00321 0.72924 0.0
O1055 O 0.83387 0.98621 0.69226 0.0
Zn1056 Zn 0.55259 0.6074 0.43875 0.0
O1057 O 0.59341 0.62905 0.43311 0.0
C1058 C 0.57816 0.56938 0.49123 0.0
Zn1059 Zn 0.54002 0.62563 0.48288 0.0
C1060 C 0.60719 0.62886 0.45885 0.0
O1061 O 0.59139 0.63384 0.48343 0.0
C1062 C 0.48865 0.59621 0.45612 0.0
O1063 O 0.51982 0.66988 0.46114 0.0
O1064 O 0.52445 0.64368 0.41827 0.0
N1065 N 0.53229 0.63768 0.52899 0.0
C1066 C 0.50529 0.6257 0.53911 0.0
C1067 C 0.54089 0.60186 0.5624 0.0
N1068 N 0.55406 0.62468 0.54592 0.0
N1069 N 0.51028 0.60044 0.55711 0.0
C1070 C 0.56486 0.55827 0.40189 0.0
C1071 C 0.52003 0.55834 0.38272 0.0
N1072 N 0.5573 0.58769 0.39681 0.0
N1073 N 0.53026 0.58759 0.38269 0.0
N1074 N 0.54076 0.53972 0.3965 0.0
H1075 H 0.61332 0.56782 0.40716 0.0
H1076 H 0.60391 0.5332 0.38597 0.0
H1077 H 0.59832 0.53365 0.42613 0.0
C1078 C 0.59729 0.54796 0.40545 0.0
C1079 C 0.47812 0.64673 0.54206 0.0
H1080 H 0.4735 0.65815 0.51971 0.0
H1081 H 0.48438 0.66595 0.55762 0.0
H1082 H 0.45754 0.63525 0.55136 0.0
O1083 O 0.49404 0.61287 0.47924 0.0
O1084 O 0.51104 0.58388 0.44227 0.0
C1085 C 0.51183 0.666 0.43276 0.0
O1086 O 0.58127 0.57126 0.46234 0.0
O1087 O 0.55545 0.5834 0.50286 0.0
Zn1088 Zn 0.87162 0.29002 0.23288 0.0
O1089 O 0.82738 0.26981 0.21114 0.0
C1090 C 0.90105 0.23865 0.20612 0.0
Zn1091 Zn 0.88985 0.3026 0.18875 0.0
C1092 C 0.83126 0.26183 0.18276 0.0
O1093 O 0.85358 0.27445 0.16827 0.0
C1094 C 0.92787 0.32816 0.24123 0.0
O1095 O 0.8682 0.34341 0.18311 0.0
O1096 O 0.86341 0.34139 0.23343 0.0
N1097 N 0.90956 0.3073 0.14681 0.0
C1098 C 0.93898 0.31487 0.15187 0.0
C1099 C 0.93891 0.27004 0.1327 0.0
N1100 N 0.90966 0.28026 0.13269 0.0
N1101 N 0.95753 0.29077 0.14646 0.0
C1102 C 0.87155 0.25529 0.28911 0.0
C1103 C 0.89539 0.29088 0.3124 0.0
N1104 N 0.85958 0.28229 0.27899 0.0
N1105 N 0.87258 0.30406 0.29592 0.0
N1106 N 0.89682 0.26028 0.30711 0.0
H1107 H 0.8391 0.2235 0.26971 0.0
H1108 H 0.8313 0.23438 0.30762 0.0
H1109 H 0.862 0.20754 0.30136 0.0
C1110 C 0.85052 0.22812 0.29206 0.0
C1111 C 0.94929 0.3473 0.15544 0.0
H1112 H 0.92942 0.36332 0.15716 0.0
H1113 H 0.96405 0.35392 0.13597 0.0
H1114 H 0.96359 0.34832 0.17613 0.0
O1115 O 0.926 0.33127 0.21233 0.0
O1116 O 0.91385 0.30545 0.25286 0.0
C1117 C 0.86839 0.35718 0.20885 0.0
O1118 O 0.88439 0.24404 0.22923 0.0
O1119 O 0.91338 0.26104 0.19226 0.0
Zn1120 Zn 0.19466 0.63985 0.93875 0.0
O1121 O 0.15384 0.6182 0.93311 0.0
C1122 C 0.16909 0.67787 0.99123 0.0
Zn1123 Zn 0.20723 0.62162 0.98288 0.0
C1124 C 0.14007 0.61839 0.95885 0.0
O1125 O 0.15586 0.6134 0.98343 0.0
C1126 C 0.2586 0.65105 0.95612 0.0
O1127 O 0.22744 0.57738 0.96114 0.0
O1128 O 0.2228 0.60358 0.91826 0.0
N1129 N 0.21496 0.60957 0.02899 0.0
C1130 C 0.24197 0.62155 0.03911 0.0
C1131 C 0.20637 0.64539 0.0624 0.0
N1132 N 0.1932 0.62257 0.04592 0.0
N1133 N 0.23697 0.64681 0.05711 0.0
C1134 C 0.18239 0.68899 0.90189 0.0
C1135 C 0.22722 0.68891 0.88272 0.0
N1136 N 0.18995 0.65957 0.89681 0.0
N1137 N 0.21698 0.65966 0.88269 0.0
N1138 N 0.2065 0.70753 0.8965 0.0
H1139 H 0.13393 0.67944 0.90716 0.0
H1140 H 0.14335 0.71408 0.88598 0.0
H1141 H 0.14893 0.71361 0.92614 0.0
C1142 C 0.14996 0.6993 0.90545 0.0
C1143 C 0.26913 0.60052 0.04206 0.0
H1144 H 0.27376 0.5891 0.01971 0.0
H1145 H 0.26287 0.5813 0.05762 0.0
H1146 H 0.28972 0.612 0.05136 0.0
O1147 O 0.25321 0.63438 0.97924 0.0
O1148 O 0.23621 0.66337 0.94227 0.0
C1149 C 0.23542 0.58126 0.93275 0.0
O1150 O 0.16598 0.67599 0.96234 0.0
O1151 O 0.1918 0.66385 0.00287 0.0
Zn1152 Zn 0.8574 0.8026 0.0585 0.0
O1153 O 0.87905 0.84341 0.06414 0.0
C1154 C 0.81938 0.82817 0.00601 0.0
Zn1155 Zn 0.87563 0.79003 0.01437 0.0
C1156 C 0.87886 0.85719 0.0384 0.0
O1157 O 0.88385 0.8414 0.01382 0.0
C1158 C 0.8462 0.73866 0.04112 0.0
O1159 O 0.91987 0.76982 0.03611 0.0
O1160 O 0.89367 0.77445 0.07898 0.0
N1161 N 0.88768 0.7823 0.96826 0.0
C1162 C 0.87571 0.75529 0.95814 0.0
C1163 C 0.85187 0.79089 0.93485 0.0
N1164 N 0.87468 0.80406 0.95133 0.0
N1165 N 0.85044 0.76029 0.94014 0.0
C1166 C 0.80827 0.81487 0.09536 0.0
C1167 C 0.80833 0.77003 0.11452 0.0
N1168 N 0.83768 0.8073 0.10043 0.0
N1169 N 0.83758 0.78027 0.11455 0.0
N1170 N 0.78972 0.79076 0.10075 0.0
H1171 H 0.81782 0.86332 0.09009 0.0
H1172 H 0.7832 0.85391 0.11128 0.0
H1173 H 0.78364 0.84833 0.07111 0.0
C1174 C 0.79796 0.84729 0.0918 0.0
C1175 C 0.89674 0.72813 0.95519 0.0
H1176 H 0.90816 0.72351 0.97754 0.0
H1177 H 0.91595 0.73438 0.93963 0.0
H1178 H 0.88525 0.70754 0.9459 0.0
O1179 O 0.86287 0.74404 0.01801 0.0
O1180 O 0.83387 0.76104 0.05497 0.0
C1181 C 0.91599 0.76183 0.06449 0.0
O1182 O 0.82126 0.83128 0.03491 0.0
O1183 O 0.8334 0.80546 0.99438 0.0
Zn1184 Zn 0.69466 0.60741 0.80851 0.0
O1185 O 0.65384 0.62905 0.81414 0.0
C1186 C 0.6691 0.56938 0.75603 0.0
Zn1187 Zn 0.70723 0.62563 0.76437 0.0
C1188 C 0.64007 0.62886 0.7884 0.0
O1189 O 0.65587 0.63384 0.76382 0.0
C1190 C 0.75861 0.59621 0.79114 0.0
O1191 O 0.72744 0.66988 0.78611 0.0
O1192 O 0.7228 0.64369 0.82898 0.0
N1193 N 0.71497 0.63768 0.71826 0.0
C1194 C 0.74197 0.6257 0.70814 0.0
C1195 C 0.70638 0.60186 0.68486 0.0
N1196 N 0.6932 0.62467 0.70134 0.0
N1197 N 0.73698 0.60043 0.69015 0.0
C1198 C 0.68238 0.55829 0.84539 0.0
C1199 C 0.72722 0.55835 0.86455 0.0
N1200 N 0.68996 0.5877 0.85045 0.0
N1201 N 0.71699 0.5876 0.86457 0.0
N1202 N 0.70648 0.53973 0.8508 0.0
H1203 H 0.63393 0.56786 0.8401 0.0
H1204 H 0.64332 0.53323 0.86129 0.0
H1205 H 0.64892 0.53368 0.82114 0.0
C1206 C 0.64995 0.54799 0.84182 0.0
C1207 C 0.76914 0.64673 0.70519 0.0
H1208 H 0.77376 0.65815 0.72754 0.0
H1209 H 0.76287 0.66595 0.68964 0.0
H1210 H 0.78972 0.63525 0.69589 0.0
O1211 O 0.75322 0.61287 0.76802 0.0
O1212 O 0.73622 0.58389 0.805 0.0
C1213 C 0.73542 0.666 0.81449 0.0
O1214 O 0.66599 0.57126 0.78492 0.0
O1215 O 0.69181 0.5834 0.74439 0.0
Zn1216 Zn 0.88985 0.44466 0.5585 0.0
O1217 O 0.8682 0.40384 0.56414 0.0
C1218 C 0.92787 0.41909 0.50602 0.0
Zn1219 Zn 0.87162 0.45723 0.51437 0.0
C1220 C 0.86839 0.39007 0.5384 0.0
O1221 O 0.86341 0.40586 0.51381 0.0
C1222 C 0.90105 0.5086 0.54113 0.0
O1223 O 0.82738 0.47743 0.5361 0.0
O1224 O 0.85357 0.4728 0.57898 0.0
N1225 N 0.85958 0.46496 0.46826 0.0
C1226 C 0.87155 0.49197 0.45814 0.0
C1227 C 0.89539 0.45637 0.43485 0.0
N1228 N 0.87258 0.4432 0.45133 0.0
N1229 N 0.89682 0.48698 0.44015 0.0
C1230 C 0.93898 0.43238 0.59537 0.0
C1231 C 0.9389 0.47722 0.61453 0.0
N1232 N 0.90956 0.43995 0.60044 0.0
N1233 N 0.90965 0.46698 0.61456 0.0
N1234 N 0.95752 0.45649 0.60076 0.0
H1235 H 0.92943 0.38393 0.5901 0.0
H1236 H 0.96406 0.39335 0.61128 0.0
H1237 H 0.96359 0.39893 0.57112 0.0
C1238 C 0.94929 0.39996 0.59181 0.0
C1239 C 0.85052 0.51913 0.45519 0.0
H1240 H 0.8391 0.52376 0.47754 0.0
H1241 H 0.8313 0.51287 0.43964 0.0
H1242 H 0.86201 0.53972 0.44589 0.0
O1243 O 0.88438 0.50321 0.51802 0.0
O1244 O 0.91337 0.48621 0.55499 0.0
C1245 C 0.83125 0.48542 0.56449 0.0
O1246 O 0.926 0.41598 0.53491 0.0
O1247 O 0.91385 0.4418 0.49439 0.0
Zn1248 Zn 0.04003 0.62162 0.26437 0.0
O1249 O 0.01982 0.57738 0.28611 0.0
C1250 C 0.98865 0.65105 0.29112 0.0
Zn1251 Zn 0.0526 0.63985 0.3085 0.0
C1252 C 0.01184 0.58126 0.31449 0.0
O1253 O 0.02446 0.60358 0.32898 0.0
C1254 C 0.07816 0.67787 0.25601 0.0
O1255 O 0.09341 0.6182 0.31414 0.0
O1256 O 0.09139 0.6134 0.26382 0.0
N1257 N 0.0573 0.65957 0.35043 0.0
C1258 C 0.06486 0.68899 0.34535 0.0
C1259 C 0.02003 0.68891 0.36453 0.0
N1260 N 0.03027 0.65966 0.36456 0.0
N1261 N 0.04075 0.70753 0.35075 0.0
C1262 C 0.00529 0.62155 0.20814 0.0
C1263 C 0.04089 0.64539 0.18485 0.0
N1264 N 0.03229 0.60957 0.21826 0.0
N1265 N 0.05406 0.62257 0.20133 0.0
N1266 N 0.01028 0.64681 0.19014 0.0
H1267 H 0.9735 0.5891 0.22754 0.0
H1268 H 0.98438 0.5813 0.18963 0.0
H1269 H 0.95754 0.612 0.19589 0.0
C1270 C 0.97812 0.60052 0.20519 0.0
C1271 C 0.09729 0.69931 0.3418 0.0
H1272 H 0.11332 0.67945 0.3401 0.0
H1273 H 0.10389 0.71409 0.36126 0.0
H1274 H 0.09831 0.71361 0.3211 0.0
O1275 O 0.08128 0.67599 0.28491 0.0
O1276 O 0.05545 0.66385 0.24438 0.0
C1277 C 0.10719 0.61839 0.2884 0.0
O1278 O 0.99404 0.63438 0.26801 0.0
O1279 O 0.01104 0.66338 0.30498 0.0
Zn1280 Zn 0.73289 0.87563 0.95723 0.0
O1281 O 0.71114 0.91987 0.97743 0.0
C1282 C 0.70613 0.8462 0.0086 0.0
Zn1283 Zn 0.68876 0.8574 0.94466 0.0
C1284 C 0.68276 0.91599 0.98542 0.0
O1285 O 0.66827 0.89367 0.9728 0.0
C1286 C 0.74124 0.81938 0.91909 0.0
O1287 O 0.68311 0.87905 0.90384 0.0
O1288 O 0.73343 0.88385 0.90586 0.0
N1289 N 0.64683 0.83768 0.93995 0.0
C1290 C 0.6519 0.80826 0.93239 0.0
C1291 C 0.63273 0.80833 0.97722 0.0
N1292 N 0.6327 0.83758 0.96699 0.0
N1293 N 0.64651 0.78971 0.9565 0.0
C1294 C 0.78912 0.87571 0.99196 0.0
C1295 C 0.81241 0.85187 0.95636 0.0
N1296 N 0.779 0.88768 0.96496 0.0
N1297 N 0.79593 0.87468 0.94319 0.0
N1298 N 0.80712 0.85045 0.98697 0.0
H1299 H 0.76971 0.90816 0.02375 0.0
H1300 H 0.80761 0.91596 0.01287 0.0
H1301 H 0.80135 0.88525 0.03971 0.0
C1302 C 0.79206 0.89674 0.01913 0.0
C1303 C 0.65546 0.79794 0.89997 0.0
H1304 H 0.65717 0.8178 0.88394 0.0
H1305 H 0.63599 0.78318 0.89335 0.0
H1306 H 0.67615 0.78364 0.89894 0.0
O1307 O 0.71235 0.82126 0.91598 0.0
O1308 O 0.75287 0.8334 0.9418 0.0
C1309 C 0.70885 0.87886 0.89006 0.0
O1310 O 0.72924 0.86287 0.00321 0.0
O1311 O 0.69228 0.83387 0.98621 0.0
Zn1312 Zn 0.18874 0.88985 0.30259 0.0
O1313 O 0.18311 0.86819 0.34341 0.0
C1314 C 0.24122 0.92787 0.32815 0.0
Zn1315 Zn 0.23288 0.87162 0.29002 0.0
C1316 C 0.20885 0.86839 0.35718 0.0
O1317 O 0.23343 0.8634 0.34139 0.0
C1318 C 0.20611 0.90104 0.23865 0.0
O1319 O 0.21114 0.82737 0.26981 0.0
O1320 O 0.16827 0.85357 0.27445 0.0
N1321 N 0.27899 0.85958 0.28229 0.0
C1322 C 0.28911 0.87155 0.25528 0.0
C1323 C 0.31239 0.8954 0.29088 0.0
N1324 N 0.29592 0.87258 0.30405 0.0
N1325 N 0.3071 0.89682 0.26027 0.0
C1326 C 0.15186 0.93896 0.31488 0.0
C1327 C 0.1327 0.9389 0.27004 0.0
N1328 N 0.14681 0.90955 0.3073 0.0
N1329 N 0.13268 0.90965 0.28026 0.0
N1330 N 0.14645 0.95752 0.29078 0.0
H1331 H 0.15716 0.92939 0.36332 0.0
H1332 H 0.13596 0.96402 0.35393 0.0
H1333 H 0.17612 0.96357 0.34833 0.0
C1334 C 0.15543 0.94926 0.3473 0.0
C1335 C 0.29206 0.85052 0.22812 0.0
H1336 H 0.26971 0.8391 0.22349 0.0
H1337 H 0.30761 0.8313 0.23438 0.0
H1338 H 0.30136 0.862 0.20754 0.0
O1339 O 0.22923 0.88438 0.24404 0.0
O1340 O 0.19225 0.91337 0.26103 0.0
C1341 C 0.18276 0.83125 0.26183 0.0
O1342 O 0.21233 0.92599 0.33127 0.0
O1343 O 0.25286 0.91385 0.30545 0.0
Zn1344 Zn 0.62563 0.98288 0.04003 0.0
O1345 O 0.66987 0.96114 0.01982 0.0
C1346 C 0.5962 0.95613 0.98866 0.0
Zn1347 Zn 0.6074 0.93875 0.0526 0.0
C1348 C 0.66599 0.93276 0.01182 0.0
O1349 O 0.64367 0.91827 0.02445 0.0
C1350 C 0.56938 0.99123 0.07817 0.0
O1351 O 0.62906 0.93311 0.09341 0.0
O1352 O 0.63385 0.98343 0.09139 0.0
N1353 N 0.58769 0.89682 0.0573 0.0
C1354 C 0.55827 0.90189 0.06487 0.0
C1355 C 0.55834 0.88272 0.02003 0.0
N1356 N 0.58759 0.88269 0.03027 0.0
N1357 N 0.53972 0.8965 0.04076 0.0
C1358 C 0.62571 0.03911 0.00529 0.0
C1359 C 0.60186 0.0624 0.04089 0.0
N1360 N 0.63768 0.02899 0.0323 0.0
N1361 N 0.62468 0.04592 0.05406 0.0
N1362 N 0.60044 0.05711 0.01029 0.0
H1363 H 0.65816 0.01971 0.97351 0.0
H1364 H 0.66595 0.05762 0.98439 0.0
H1365 H 0.63525 0.05136 0.95754 0.0
C1366 C 0.64673 0.04206 0.97813 0.0
C1367 C 0.54795 0.90545 0.09729 0.0
H1368 H 0.56781 0.90715 0.11332 0.0
H1369 H 0.53318 0.88598 0.1039 0.0
H1370 H 0.53365 0.92614 0.09832 0.0
O1371 O 0.57126 0.96234 0.08128 0.0
O1372 O 0.5834 0.00287 0.05546 0.0
C1373 C 0.62886 0.95884 0.10719 0.0
O1374 O 0.61286 0.97924 0.99404 0.0
O1375 O 0.58387 0.94227 0.01104 0.0
Zn1376 Zn 0.5585 0.3574 0.8026 0.0
O1377 O 0.56414 0.37905 0.84341 0.0
C1378 C 0.50602 0.31938 0.82816 0.0
Zn1379 Zn 0.51437 0.37563 0.79003 0.0
C1380 C 0.5384 0.37886 0.85719 0.0
O1381 O 0.51382 0.38384 0.84139 0.0
C1382 C 0.54112 0.3462 0.73865 0.0
O1383 O 0.53611 0.41987 0.76982 0.0
O1384 O 0.57898 0.39367 0.77445 0.0
N1385 N 0.46826 0.38768 0.7823 0.0
C1386 C 0.45814 0.3757 0.75529 0.0
C1387 C 0.43485 0.35186 0.79089 0.0
N1388 N 0.45133 0.37468 0.80406 0.0
N1389 N 0.44014 0.35044 0.76028 0.0
C1390 C 0.59536 0.30826 0.81486 0.0
C1391 C 0.61453 0.30834 0.77003 0.0
N1392 N 0.60043 0.33768 0.8073 0.0
N1393 N 0.61456 0.33759 0.78027 0.0
N1394 N 0.60075 0.28972 0.79075 0.0
H1395 H 0.5901 0.3178 0.86332 0.0
H1396 H 0.61126 0.28316 0.85389 0.0
H1397 H 0.5711 0.28364 0.84831 0.0
C1398 C 0.5918 0.29794 0.84728 0.0
C1399 C 0.45519 0.39673 0.72812 0.0
H1400 H 0.47754 0.40815 0.7235 0.0
H1401 H 0.43964 0.41595 0.73438 0.0
H1402 H 0.44589 0.38525 0.70754 0.0
O1403 O 0.51801 0.36287 0.74404 0.0
O1404 O 0.55498 0.33388 0.76104 0.0
C1405 C 0.56449 0.41599 0.76183 0.0
O1406 O 0.53491 0.32125 0.83127 0.0
O1407 O 0.49438 0.3334 0.80545 0.0
Zn1408 Zn 0.62162 0.76437 0.54003 0.0
O1409 O 0.57738 0.78611 0.51982 0.0
C1410 C 0.65105 0.79112 0.48865 0.0
Zn1411 Zn 0.63985 0.8085 0.5526 0.0
C1412 C 0.58126 0.81449 0.51183 0.0
O1413 O 0.60358 0.82898 0.52445 0.0
C1414 C 0.67786 0.75601 0.57817 0.0
O1415 O 0.6182 0.81414 0.59341 0.0
O1416 O 0.6134 0.76382 0.59139 0.0
N1417 N 0.65957 0.85043 0.5573 0.0
C1418 C 0.68898 0.84536 0.56487 0.0
C1419 C 0.68892 0.86452 0.52003 0.0
N1420 N 0.65967 0.86455 0.53027 0.0
N1421 N 0.70753 0.85075 0.54076 0.0
C1422 C 0.62154 0.70814 0.50529 0.0
C1423 C 0.64538 0.68485 0.54089 0.0
N1424 N 0.60957 0.71826 0.53229 0.0
N1425 N 0.62257 0.70133 0.55406 0.0
N1426 N 0.64681 0.69014 0.51029 0.0
H1427 H 0.58909 0.72754 0.4735 0.0
H1428 H 0.5813 0.68963 0.48438 0.0
H1429 H 0.612 0.69589 0.45754 0.0
C1430 C 0.60052 0.70519 0.47812 0.0
C1431 C 0.6993 0.8418 0.59729 0.0
H1432 H 0.67943 0.84009 0.61332 0.0
H1433 H 0.71406 0.86128 0.60391 0.0
H1434 H 0.71361 0.82111 0.59832 0.0
O1435 O 0.676 0.78491 0.58128 0.0
O1436 O 0.66385 0.74438 0.55545 0.0
C1437 C 0.61839 0.7884 0.60719 0.0
O1438 O 0.63438 0.76801 0.49404 0.0
O1439 O 0.66338 0.80498 0.51104 0.0
Zn1440 Zn 0.01437 0.87162 0.95723 0.0
O1441 O 0.03611 0.82738 0.97744 0.0
C1442 C 0.04113 0.90105 0.0086 0.0
Zn1443 Zn 0.05851 0.88985 0.94465 0.0
C1444 C 0.0645 0.83126 0.98542 0.0
O1445 O 0.07899 0.85358 0.9728 0.0
C1446 C 0.00602 0.92787 0.91909 0.0
O1447 O 0.06414 0.8682 0.90384 0.0
O1448 O 0.01382 0.8634 0.90586 0.0
N1449 N 0.10044 0.90956 0.93995 0.0
C1450 C 0.09537 0.93898 0.93238 0.0
C1451 C 0.11454 0.93891 0.97721 0.0
N1452 N 0.11457 0.90966 0.96698 0.0
N1453 N 0.10076 0.95753 0.95649 0.0
C1454 C 0.95814 0.87155 0.99197 0.0
C1455 C 0.93486 0.89539 0.95637 0.0
N1456 N 0.96826 0.85958 0.96496 0.0
N1457 N 0.95133 0.87258 0.9432 0.0
N1458 N 0.94015 0.89682 0.98698 0.0
H1459 H 0.97754 0.8391 0.02376 0.0
H1460 H 0.93964 0.8313 0.01287 0.0
H1461 H 0.94589 0.862 0.03972 0.0
C1462 C 0.95519 0.85052 0.01913 0.0
C1463 C 0.09181 0.94929 0.89996 0.0
H1464 H 0.0901 0.92943 0.88393 0.0
H1465 H 0.11128 0.96406 0.89334 0.0
H1466 H 0.07112 0.9636 0.89893 0.0
O1467 O 0.03492 0.926 0.91598 0.0
O1468 O 0.99439 0.91385 0.9418 0.0
C1469 C 0.0384 0.86839 0.89006 0.0
O1470 O 0.01802 0.88438 0.00321 0.0
O1471 O 0.05499 0.91338 0.98621 0.0
Zn1472 Zn 0.62563 0.26438 0.20723 0.0
O1473 O 0.66987 0.28611 0.22744 0.0
C1474 C 0.5962 0.29113 0.2586 0.0
Zn1475 Zn 0.6074 0.30851 0.19466 0.0
C1476 C 0.66599 0.3145 0.23542 0.0
O1477 O 0.64368 0.32899 0.2228 0.0
C1478 C 0.56938 0.25603 0.1691 0.0
O1479 O 0.62905 0.31415 0.15384 0.0
O1480 O 0.63385 0.26382 0.15586 0.0
N1481 N 0.58769 0.35044 0.18995 0.0
C1482 C 0.55827 0.34537 0.18238 0.0
C1483 C 0.55834 0.36453 0.22722 0.0
N1484 N 0.58759 0.36457 0.21698 0.0
N1485 N 0.53972 0.35076 0.20649 0.0
C1486 C 0.6257 0.20814 0.24197 0.0
C1487 C 0.60186 0.18486 0.20637 0.0
N1488 N 0.63768 0.21826 0.21496 0.0
N1489 N 0.62467 0.20134 0.1932 0.0
N1490 N 0.60044 0.19015 0.23698 0.0
H1491 H 0.65815 0.22754 0.27376 0.0
H1492 H 0.66595 0.18964 0.26287 0.0
H1493 H 0.63525 0.19589 0.28972 0.0
C1494 C 0.64673 0.20519 0.26913 0.0
C1495 C 0.54796 0.34181 0.14996 0.0
H1496 H 0.56783 0.3401 0.13393 0.0
H1497 H 0.53321 0.36129 0.14334 0.0
H1498 H 0.53365 0.32112 0.14893 0.0
O1499 O 0.57126 0.28492 0.16598 0.0
O1500 O 0.5834 0.24439 0.1918 0.0
C1501 C 0.62886 0.28841 0.14007 0.0
O1502 O 0.61287 0.26802 0.25321 0.0
O1503 O 0.58388 0.30499 0.23621 0.0
Zn1504 Zn 0.13986 0.93876 0.69465 0.0
O1505 O 0.1182 0.93311 0.65384 0.0
C1506 C 0.17787 0.99124 0.66908 0.0
Zn1507 Zn 0.12162 0.98288 0.70722 0.0
C1508 C 0.11839 0.95884 0.64006 0.0
O1509 O 0.11341 0.98343 0.65586 0.0
C1510 C 0.15105 0.95614 0.7586 0.0
O1511 O 0.07738 0.96114 0.72743 0.0
O1512 O 0.10358 0.91827 0.7228 0.0
N1513 N 0.10956 0.029 0.71495 0.0
C1514 C 0.12154 0.03911 0.74196 0.0
C1515 C 0.14538 0.0624 0.70636 0.0
N1516 N 0.12257 0.04592 0.69319 0.0
N1517 N 0.1468 0.05711 0.73696 0.0
C1518 C 0.189 0.9019 0.68239 0.0
C1519 C 0.18892 0.88273 0.72722 0.0
N1520 N 0.15958 0.89682 0.68995 0.0
N1521 N 0.15967 0.8827 0.71698 0.0
N1522 N 0.20754 0.89651 0.7065 0.0
H1523 H 0.17945 0.90716 0.63393 0.0
H1524 H 0.21409 0.88599 0.64336 0.0
H1525 H 0.21362 0.92615 0.64894 0.0
C1526 C 0.19931 0.90546 0.64997 0.0
C1527 C 0.10051 0.04206 0.76912 0.0
H1528 H 0.08909 0.01971 0.77374 0.0
H1529 H 0.0813 0.05762 0.76287 0.0
H1530 H 0.112 0.05135 0.78971 0.0
O1531 O 0.13438 0.97924 0.75321 0.0
O1532 O 0.16338 0.94228 0.73621 0.0
C1533 C 0.08126 0.93276 0.73542 0.0
O1534 O 0.176 0.96235 0.66597 0.0
O1535 O 0.16385 0.00287 0.69179 0.0
Zn1536 Zn 0.04327 0.76152 0.62209 0.0
O1537 O 0.09227 0.76036 0.60903 0.0
C1538 C 0.08012 0.75654 0.67772 0.0
Zn1539 Zn 0.05036 0.80895 0.63919 0.0
C1540 C 0.1072 0.78426 0.61818 0.0
O1541 O 0.09313 0.80975 0.61939 0.0
C1542 C 0.98829 0.78752 0.6504 0.0
O1543 O 0.02668 0.83167 0.60249 0.0
O1544 O 0.0183 0.7869 0.58088 0.0
N1545 N 0.06376 0.84879 0.66067 0.0
C1546 C 0.04343 0.85473 0.68292 0.0
C1547 C 0.08465 0.8408 0.70499 0.0
N1548 N 0.09033 0.84303 0.67458 0.0
N1549 N 0.05466 0.84637 0.71056 0.0
C1550 C 0.02925 0.69743 0.62976 0.0
C1551 C 0.9823 0.70692 0.62033 0.0
N1552 N 0.0289 0.71801 0.60634 0.0
N1553 N -0.0005 0.72107 0.59858 0.0
N1554 N 0.0006 0.69388 0.64178 0.0
H1555 H 0.07252 0.67745 0.61598 0.0
H1556 H 0.04 0.65187 0.61491 0.0
H1557 H 0.05572 0.66218 0.65104 0.0
C1558 C 0.05094 0.67086 0.62794 0.0
C1559 C 0.01887 0.87765 0.67783 0.0
H1560 H 0.01042 0.87445 0.65423 0.0
H1561 H 0.02838 0.90126 0.68035 0.0
H1562 H 0.00025 0.87439 0.69424 0.0
O1563 O 0.0053 0.80958 0.65915 0.0
O1564 O 0.00064 0.76348 0.64041 0.0
C1565 C 0.01228 0.81603 0.58218 0.0
O1566 O 0.06471 0.73856 0.66078 0.0
O1567 O 0.07404 0.785 0.67625 0.0
Zn1568 Zn 0.18831 0.80036 0.8892 0.0
O1569 O 0.1656 0.77665 0.8525 0.0
C1570 C 0.20974 0.7383 0.90042 0.0
Zn1571 Zn 0.23574 0.79327 0.87209 0.0
C1572 C 0.18124 0.76225 0.8322 0.0
O1573 O 0.21037 0.76829 0.83088 0.0
C1574 C 0.24072 0.83013 0.92772 0.0
O1575 O 0.2369 0.84227 0.85903 0.0
O1576 O 0.1875 0.84312 0.86938 0.0
N1577 N 0.27925 0.7789 0.85635 0.0
C1578 C 0.29983 0.77924 0.87977 0.0
C1579 C 0.29033 0.7323 0.87034 0.0
N1580 N 0.27619 0.7495 0.84858 0.0
N1581 N 0.30338 0.7506 0.89179 0.0
C1582 C 0.14252 0.79343 0.93292 0.0
C1583 C 0.15645 0.83464 0.95499 0.0
N1584 N 0.14846 0.81375 0.91067 0.0
N1585 N 0.15423 0.84032 0.92458 0.0
N1586 N 0.15088 0.80465 0.96056 0.0
H1587 H 0.12278 0.76043 0.90423 0.0
H1588 H 0.09598 0.77841 0.93035 0.0
H1589 H 0.12283 0.75026 0.94424 0.0
C1590 C 0.11958 0.76888 0.92784 0.0
C1591 C 0.32639 0.80094 0.87796 0.0
H1592 H 0.3198 0.82252 0.866 0.0
H1593 H 0.34539 0.79 0.86493 0.0
H1594 H 0.33507 0.80571 0.90107 0.0
O1595 O 0.2587 0.81472 0.91078 0.0
O1596 O 0.21225 0.82406 0.92625 0.0
C1597 C 0.21299 0.85719 0.86817 0.0
O1598 O 0.18769 0.75531 0.90918 0.0
O1599 O 0.23379 0.75065 0.89042 0.0
Zn1600 Zn 0.20398 0.98573 0.12209 0.0
O1601 O 0.15498 0.9869 0.10904 0.0
C1602 C 0.16713 0.99071 0.17772 0.0
Zn1603 Zn 0.19689 0.9383 0.13919 0.0
C1604 C 0.14005 0.963 0.11818 0.0
O1605 O 0.15412 0.9375 0.11938 0.0
C1606 C 0.25896 0.95972 0.15039 0.0
O1607 O 0.22057 0.91559 0.10248 0.0
O1608 O 0.22895 0.96036 0.08087 0.0
N1609 N 0.18349 0.89846 0.16066 0.0
C1610 C 0.2038 0.89251 0.18291 0.0
C1611 C 0.16259 0.90642 0.20498 0.0
N1612 N 0.15692 0.90423 0.17457 0.0
N1613 N 0.19257 0.90083 0.21056 0.0
C1614 C 0.21801 0.04982 0.12977 0.0
C1615 C 0.26495 0.04032 0.12034 0.0
N1616 N 0.21835 0.02924 0.10634 0.0
N1617 N 0.24775 0.02618 0.09859 0.0
N1618 N 0.24665 0.05337 0.14179 0.0
H1619 H 0.17474 0.0698 0.11599 0.0
H1620 H 0.20726 0.09538 0.11492 0.0
H1621 H 0.19154 0.08507 0.15105 0.0
C1622 C 0.19631 0.07639 0.12795 0.0
C1623 C 0.22839 0.86961 0.17781 0.0
H1624 H 0.23684 0.87285 0.15421 0.0
H1625 H 0.21889 0.84599 0.18028 0.0
H1626 H 0.24699 0.87286 0.19423 0.0
O1627 O 0.24195 0.93766 0.15915 0.0
O1628 O 0.24661 0.98377 0.14042 0.0
C1629 C 0.23497 0.93123 0.08218 0.0
O1630 O 0.18255 0.00869 0.16078 0.0
O1631 O 0.17321 0.96224 0.17625 0.0
Zn1632 Zn 0.01152 0.95398 0.37209 0.0
O1633 O 0.01036 0.90498 0.35903 0.0
C1634 C 0.00654 0.91712 0.42772 0.0
Zn1635 Zn 0.05894 0.94688 0.3892 0.0
C1636 C 0.03427 0.89005 0.36818 0.0
O1637 O 0.05976 0.90412 0.36938 0.0
C1638 C 0.03752 0.00895 0.40041 0.0
O1639 O 0.08166 0.97059 0.3525 0.0
O1640 O 0.03689 0.97895 0.33088 0.0
N1641 N 0.0988 0.9335 0.41067 0.0
C1642 C 0.10473 0.95383 0.43292 0.0
C1643 C 0.0908 0.91262 0.45499 0.0
N1644 N 0.09303 0.90693 0.42459 0.0
N1645 N 0.09638 0.94261 0.46056 0.0
C1646 C 0.94742 0.968 0.37977 0.0
C1647 C 0.95692 0.01494 0.37033 0.0
N1648 N 0.96801 0.96834 0.35634 0.0
N1649 N 0.97107 0.99774 0.34858 0.0
N1650 N 0.94387 0.99664 0.39178 0.0
H1651 H 0.92744 0.92472 0.36599 0.0
H1652 H 0.90186 0.95725 0.36491 0.0
H1653 H 0.91217 0.94153 0.40105 0.0
C1654 C 0.92085 0.9463 0.37795 0.0
C1655 C 0.12768 0.97837 0.42783 0.0
H1656 H 0.12448 0.98682 0.40423 0.0
H1657 H 0.15128 0.96884 0.43035 0.0
H1658 H 0.12444 0.99699 0.44424 0.0
O1659 O 0.05956 0.99194 0.40917 0.0
O1660 O 0.01347 0.9966 0.39042 0.0
C1661 C 0.06601 0.98499 0.33219 0.0
O1662 O 0.98856 0.93253 0.41078 0.0
O1663 O 0.035 0.92319 0.42625 0.0
Zn1664 Zn 0.05036 0.43831 0.60806 0.0
O1665 O 0.02665 0.41559 0.64475 0.0
C1666 C 0.9883 0.45973 0.59684 0.0
Zn1667 Zn 0.04327 0.48574 0.62517 0.0
C1668 C 0.01226 0.43124 0.66506 0.0
O1669 O 0.01829 0.46036 0.66638 0.0
C1670 C 0.08012 0.49071 0.56954 0.0
O1671 O 0.09227 0.48689 0.63822 0.0
O1672 O 0.09312 0.4375 0.62787 0.0
N1673 N 0.0289 0.52924 0.64092 0.0
C1674 C 0.02924 0.54982 0.61749 0.0
C1675 C 0.9823 0.54033 0.62692 0.0
N1676 N -0.0005 0.52619 0.64868 0.0
N1677 N 0.0006 0.55337 0.60547 0.0
C1678 C 0.04343 0.39252 0.56433 0.0
C1679 C 0.08465 0.40645 0.54227 0.0
N1680 N 0.06375 0.39846 0.58658 0.0
N1681 N 0.09032 0.40423 0.57267 0.0
N1682 N 0.05466 0.40088 0.53669 0.0
H1683 H 0.01043 0.37279 0.59302 0.0
H1684 H 0.02839 0.34598 0.56689 0.0
H1685 H 0.00025 0.37285 0.553 0.0
C1686 C 0.01887 0.36959 0.56941 0.0
C1687 C 0.05094 0.57639 0.61931 0.0
H1688 H 0.07251 0.5698 0.63126 0.0
H1689 H 0.04 0.59539 0.63233 0.0
H1690 H 0.05572 0.58507 0.5962 0.0
O1691 O 0.06471 0.50869 0.58648 0.0
O1692 O 0.07404 0.46225 0.571 0.0
C1693 C 0.10719 0.46299 0.62908 0.0
O1694 O 0.0053 0.43768 0.58808 0.0
O1695 O 0.00064 0.48378 0.60684 0.0
Zn1696 Zn 0.55895 0.80037 0.85806 0.0
O1697 O 0.58167 0.77668 0.89476 0.0
C1698 C 0.53753 0.7383 0.84684 0.0
Zn1699 Zn 0.51152 0.79327 0.87515 0.0
C1700 C 0.56603 0.76228 0.91506 0.0
O1701 O 0.5369 0.76829 0.91636 0.0
C1702 C 0.50654 0.83013 0.81953 0.0
O1703 O 0.51036 0.84227 0.88822 0.0
O1704 O 0.55976 0.84313 0.87786 0.0
N1705 N 0.46802 0.7789 0.89091 0.0
C1706 C 0.44743 0.77924 0.86749 0.0
C1707 C 0.45692 0.7323 0.87692 0.0
N1708 N 0.47108 0.7495 0.89867 0.0
N1709 N 0.44385 0.75059 0.85549 0.0
C1710 C 0.60474 0.79344 0.81433 0.0
C1711 C 0.59081 0.83464 0.79226 0.0
N1712 N 0.5988 0.81376 0.83658 0.0
N1713 N 0.59303 0.84033 0.82267 0.0
N1714 N 0.59638 0.80466 0.78669 0.0
H1715 H 0.62446 0.76043 0.84303 0.0
H1716 H 0.65128 0.7784 0.81691 0.0
H1717 H 0.62442 0.75026 0.80301 0.0
C1718 C 0.62767 0.76888 0.81942 0.0
C1719 C 0.42087 0.80095 0.86931 0.0
H1720 H 0.42747 0.82253 0.88125 0.0
H1721 H 0.40188 0.79002 0.88235 0.0
H1722 H 0.41218 0.80572 0.8462 0.0
O1723 O 0.48856 0.81472 0.83647 0.0
O1724 O 0.535 0.82405 0.821 0.0
C1725 C 0.53426 0.8572 0.87907 0.0
O1726 O 0.55958 0.75531 0.83809 0.0
O1727 O 0.51347 0.75065 0.85682 0.0
Zn1728 Zn 0.1969 0.30894 0.10807 0.0
O1729 O 0.22059 0.33166 0.14476 0.0
C1730 C 0.25896 0.28752 0.09686 0.0
Zn1731 Zn 0.20399 0.26151 0.12517 0.0
C1732 C 0.23499 0.31601 0.16507 0.0
O1733 O 0.22896 0.28689 0.16638 0.0
C1734 C 0.16714 0.25654 0.06953 0.0
O1735 O 0.15499 0.26035 0.13822 0.0
O1736 O 0.15413 0.30975 0.12787 0.0
N1737 N 0.21836 0.21801 0.14091 0.0
C1738 C 0.21801 0.19742 0.1175 0.0
C1739 C 0.26496 0.20691 0.12693 0.0
N1740 N 0.24776 0.22107 0.14867 0.0
N1741 N 0.24666 0.19384 0.1055 0.0
C1742 C 0.20382 0.35473 0.06434 0.0
C1743 C 0.16261 0.3408 0.04227 0.0
N1744 N 0.1835 0.34879 0.08659 0.0
N1745 N 0.15693 0.34302 0.07268 0.0
N1746 N 0.1926 0.34637 0.0367 0.0
H1747 H 0.23684 0.37445 0.09302 0.0
H1748 H 0.21887 0.40126 0.06691 0.0
H1749 H 0.247 0.3744 0.05301 0.0
C1750 C 0.22839 0.37766 0.06942 0.0
C1751 C 0.1963 0.17086 0.11932 0.0
H1752 H 0.17473 0.17747 0.13127 0.0
H1753 H 0.20723 0.15187 0.13237 0.0
H1754 H 0.19153 0.16217 0.09622 0.0
O1755 O 0.18255 0.23855 0.08648 0.0
O1756 O 0.17321 0.285 0.07101 0.0
C1757 C 0.14006 0.28426 0.12907 0.0
O1758 O 0.24196 0.30957 0.0881 0.0
O1759 O 0.24662 0.26347 0.10684 0.0
Zn1760 Zn 0.73574 0.95398 0.37516 0.0
O1761 O 0.73689 0.90498 0.38823 0.0
C1762 C 0.74072 0.91711 0.31953 0.0
Zn1763 Zn 0.68831 0.94688 0.35806 0.0
C1764 C 0.71299 0.89005 0.37908 0.0
O1765 O 0.6875 0.90412 0.37787 0.0
C1766 C 0.70974 0.00895 0.34684 0.0
O1767 O 0.66559 0.97058 0.39475 0.0
O1768 O 0.71036 0.97896 0.41636 0.0
N1769 N 0.64846 0.93349 0.33657 0.0
C1770 C 0.64253 0.95382 0.31433 0.0
C1771 C 0.65646 0.91261 0.29225 0.0
N1772 N 0.65424 0.90693 0.32266 0.0
N1773 N 0.65089 0.9426 0.28668 0.0
C1774 C 0.79983 0.96801 0.3675 0.0
C1775 C 0.79033 0.01495 0.37693 0.0
N1776 N 0.77924 0.96835 0.39091 0.0
N1777 N 0.77618 0.99775 0.39868 0.0
N1778 N 0.80341 0.99666 0.3555 0.0
H1779 H 0.81978 0.92472 0.38126 0.0
H1780 H 0.84539 0.95723 0.38235 0.0
H1781 H 0.83506 0.94152 0.34621 0.0
C1782 C 0.82638 0.9463 0.36931 0.0
C1783 C 0.61957 0.97836 0.31941 0.0
H1784 H 0.62276 0.9868 0.34302 0.0
H1785 H 0.59597 0.96883 0.31689 0.0
H1786 H 0.62282 0.99699 0.30301 0.0
O1787 O 0.68769 0.99194 0.33808 0.0
O1788 O 0.73379 0.9966 0.35682 0.0
C1789 C 0.68123 0.98498 0.41506 0.0
O1790 O 0.7587 0.93253 0.33648 0.0
O1791 O 0.71226 0.92319 0.321 0.0
Zn1792 Zn 0.13919 0.55036 0.80894 0.0
O1793 O 0.10251 0.52666 0.83166 0.0
C1794 C 0.15041 0.4883 0.78751 0.0
Zn1795 Zn 0.12209 0.54327 0.76151 0.0
C1796 C 0.0822 0.51226 0.81602 0.0
O1797 O 0.08089 0.51829 0.78689 0.0
C1798 C 0.17772 0.58013 0.75653 0.0
O1799 O 0.10903 0.59227 0.76036 0.0
O1800 O 0.11938 0.59312 0.80975 0.0
N1801 N 0.10634 0.5289 0.71801 0.0
C1802 C 0.12975 0.52924 0.69742 0.0
C1803 C 0.12032 0.4823 0.70692 0.0
N1804 N 0.09857 0.4995 0.72107 0.0
N1805 N 0.14175 0.50059 0.69384 0.0
C1806 C 0.18292 0.54343 0.85472 0.0
C1807 C 0.205 0.58464 0.84079 0.0
N1808 N 0.16068 0.56376 0.84878 0.0
N1809 N 0.17459 0.59032 0.84301 0.0
N1810 N 0.21057 0.55465 0.84636 0.0
H1811 H 0.15423 0.51044 0.87447 0.0
H1812 H 0.18035 0.52841 0.90127 0.0
H1813 H 0.19424 0.50026 0.87442 0.0
C1814 C 0.17784 0.51888 0.87767 0.0
C1815 C 0.12794 0.55095 0.67087 0.0
H1816 H 0.11599 0.57253 0.67747 0.0
H1817 H 0.1149 0.54002 0.65186 0.0
H1818 H 0.15104 0.55573 0.66219 0.0
O1819 O 0.16077 0.56472 0.73854 0.0
O1820 O 0.17625 0.57405 0.78499 0.0
C1821 C 0.11817 0.6072 0.78426 0.0
O1822 O 0.15917 0.50531 0.80956 0.0
O1823 O 0.14043 0.50065 0.76346 0.0
Zn1824 Zn 0.45398 0.87209 0.01152 0.0
O1825 O 0.40498 0.85903 0.01036 0.0
C1826 C 0.41713 0.92772 0.00654 0.0
Zn1827 Zn 0.44689 0.8892 0.05894 0.0
C1828 C 0.39005 0.86818 0.03427 0.0
O1829 O 0.40412 0.86939 0.05976 0.0
C1830 C 0.50895 0.90041 0.03751 0.0
O1831 O 0.47059 0.8525 0.08166 0.0
O1832 O 0.47895 0.83088 0.03689 0.0
N1833 N 0.4335 0.91068 0.0988 0.0
C1834 C 0.45383 0.93293 0.10473 0.0
C1835 C 0.41261 0.955 0.0908 0.0
N1836 N 0.40693 0.92459 0.09303 0.0
N1837 N 0.4426 0.96057 0.09637 0.0
C1838 C 0.468 0.87976 0.94743 0.0
C1839 C 0.51494 0.87033 0.95692 0.0
N1840 N 0.46834 0.85634 0.96801 0.0
N1841 N 0.49774 0.84857 0.97107 0.0
N1842 N 0.49664 0.89178 0.94387 0.0
H1843 H 0.42473 0.86598 0.92745 0.0
H1844 H 0.45725 0.8649 0.90187 0.0
H1845 H 0.44153 0.90104 0.91217 0.0
C1846 C 0.44631 0.87794 0.92086 0.0
C1847 C 0.47837 0.92784 0.12768 0.0
H1848 H 0.48682 0.90424 0.12449 0.0
H1849 H 0.46885 0.93038 0.15128 0.0
H1850 H 0.497 0.94425 0.12442 0.0
O1851 O 0.49195 0.90917 0.05957 0.0
O1852 O 0.49661 0.89041 0.01347 0.0
C1853 C 0.48498 0.83219 0.06602 0.0
O1854 O 0.43254 0.91078 0.98856 0.0
O1855 O 0.4232 0.92625 0.035 0.0
Zn1856 Zn 0.12516 0.20398 0.26151 0.0
O1857 O 0.13822 0.15498 0.26036 0.0
C1858 C 0.06953 0.16712 0.25653 0.0
Zn1859 Zn 0.10806 0.19689 0.30894 0.0
C1860 C 0.12908 0.14005 0.28426 0.0
O1861 O 0.12787 0.15413 0.30975 0.0
C1862 C 0.09684 0.25895 0.28751 0.0
O1863 O 0.14475 0.22059 0.33166 0.0
O1864 O 0.16637 0.22896 0.28689 0.0
N1865 N 0.08658 0.18349 0.34879 0.0
C1866 C 0.06433 0.20382 0.35473 0.0
C1867 C 0.04226 0.16261 0.3408 0.0
N1868 N 0.07267 0.15693 0.34302 0.0
N1869 N 0.03669 0.1926 0.34637 0.0
C1870 C 0.11749 0.21801 0.19742 0.0
C1871 C 0.12693 0.26495 0.20692 0.0
N1872 N 0.14091 0.21835 0.21801 0.0
N1873 N 0.14868 0.24775 0.22107 0.0
N1874 N 0.1055 0.24666 0.19385 0.0
H1875 H 0.13126 0.17473 0.17747 0.0
H1876 H 0.13233 0.20723 0.15186 0.0
H1877 H 0.09619 0.19152 0.1622 0.0
C1878 C 0.1193 0.1963 0.17087 0.0
C1879 C 0.06942 0.22837 0.37767 0.0
H1880 H 0.09302 0.23682 0.37446 0.0
H1881 H 0.06691 0.21885 0.40127 0.0
H1882 H 0.05301 0.24699 0.37442 0.0
O1883 O 0.08809 0.24195 0.30956 0.0
O1884 O 0.10682 0.2466 0.26346 0.0
C1885 C 0.16506 0.23499 0.31601 0.0
O1886 O 0.08648 0.18253 0.23855 0.0
O1887 O 0.07101 0.1732 0.28499 0.0
Zn1888 Zn 0.80037 0.85805 0.55894 0.0
O1889 O 0.77667 0.89475 0.58166 0.0
C1890 C 0.73831 0.84684 0.53752 0.0
Zn1891 Zn 0.79328 0.87516 0.51152 0.0
C1892 C 0.76227 0.91506 0.56602 0.0
O1893 O 0.7683 0.91637 0.5369 0.0
C1894 C 0.83014 0.81953 0.50654 0.0
O1895 O 0.84227 0.88822 0.51036 0.0
O1896 O 0.84313 0.87787 0.55976 0.0
N1897 N 0.77891 0.89091 0.46801 0.0
C1898 C 0.77925 0.86748 0.44743 0.0
C1899 C 0.73231 0.87692 0.45693 0.0
N1900 N 0.74951 0.89867 0.47107 0.0
N1901 N 0.7506 0.85547 0.44388 0.0
C1902 C 0.79344 0.81433 0.60475 0.0
C1903 C 0.83466 0.79226 0.59082 0.0
N1904 N 0.81377 0.83658 0.59879 0.0
N1905 N 0.84033 0.82267 0.59302 0.0
N1906 N 0.80467 0.78669 0.59642 0.0
H1907 H 0.76043 0.84304 0.62444 0.0
H1908 H 0.77839 0.81695 0.65128 0.0
H1909 H 0.75026 0.80302 0.62443 0.0
C1910 C 0.76888 0.81944 0.62767 0.0
C1911 C 0.80094 0.8693 0.42086 0.0
H1912 H 0.82252 0.88126 0.42745 0.0
H1913 H 0.79 0.88232 0.40186 0.0
H1914 H 0.80572 0.84619 0.41219 0.0
O1915 O 0.81472 0.83647 0.48856 0.0
O1916 O 0.82406 0.821 0.53501 0.0
C1917 C 0.8572 0.87907 0.53426 0.0
O1918 O 0.75531 0.83808 0.55957 0.0
O1919 O 0.75065 0.85683 0.51347 0.0
Zn1920 Zn 0.1221 0.70398 0.48574 0.0
O1921 O 0.10903 0.65498 0.4869 0.0
C1922 C 0.17772 0.66712 0.49072 0.0
Zn1923 Zn 0.13919 0.69688 0.43831 0.0
C1924 C 0.11818 0.64005 0.463 0.0
O1925 O 0.11939 0.65412 0.4375 0.0
C1926 C 0.15041 0.75895 0.45973 0.0
O1927 O 0.1025 0.72057 0.41559 0.0
O1928 O 0.08089 0.72896 0.46035 0.0
N1929 N 0.16067 0.68349 0.39846 0.0
C1930 C 0.18292 0.70381 0.39252 0.0
C1931 C 0.205 0.6626 0.40646 0.0
N1932 N 0.17459 0.65692 0.40424 0.0
N1933 N 0.21057 0.69259 0.40088 0.0
C1934 C 0.12976 0.71801 0.54983 0.0
C1935 C 0.12033 0.76496 0.54033 0.0
N1936 N 0.10634 0.71836 0.52924 0.0
N1937 N 0.09858 0.74776 0.52617 0.0
N1938 N 0.14176 0.74666 0.55341 0.0
H1939 H 0.11599 0.67473 0.56978 0.0
H1940 H 0.11491 0.70724 0.59539 0.0
H1941 H 0.15105 0.69153 0.58506 0.0
C1942 C 0.12794 0.6963 0.57638 0.0
C1943 C 0.17783 0.72837 0.36959 0.0
H1944 H 0.15423 0.73681 0.3728 0.0
H1945 H 0.18034 0.71885 0.34599 0.0
H1946 H 0.19424 0.74699 0.37284 0.0
O1947 O 0.15916 0.74195 0.43768 0.0
O1948 O 0.14043 0.74661 0.48378 0.0
C1949 C 0.08219 0.73498 0.43123 0.0
O1950 O 0.16078 0.68254 0.5087 0.0
O1951 O 0.17625 0.6732 0.46226 0.0
Zn1952 Zn 0.29328 0.87209 0.73574 0.0
O1953 O 0.34228 0.85903 0.73689 0.0
C1954 C 0.33014 0.92772 0.74072 0.0
Zn1955 Zn 0.30037 0.8892 0.68831 0.0
C1956 C 0.3572 0.86818 0.71299 0.0
O1957 O 0.34313 0.86938 0.68749 0.0
C1958 C 0.23831 0.90042 0.70974 0.0
O1959 O 0.27666 0.85251 0.6656 0.0
O1960 O 0.2683 0.83088 0.71036 0.0
N1961 N 0.31376 0.91068 0.64846 0.0
C1962 C 0.29343 0.93292 0.64252 0.0
C1963 C 0.33464 0.955 0.65645 0.0
N1964 N 0.34033 0.92459 0.65423 0.0
N1965 N 0.30465 0.96057 0.65088 0.0
C1966 C 0.27926 0.87977 0.79983 0.0
C1967 C 0.23232 0.87033 0.79033 0.0
N1968 N 0.27892 0.85634 0.77924 0.0
N1969 N 0.24952 0.84858 0.77619 0.0
N1970 N 0.25061 0.89178 0.80338 0.0
H1971 H 0.32253 0.866 0.8198 0.0
H1972 H 0.29001 0.86491 0.84539 0.0
H1973 H 0.30572 0.90105 0.83508 0.0
C1974 C 0.30095 0.87795 0.82639 0.0
C1975 C 0.26889 0.92784 0.61957 0.0
H1976 H 0.26044 0.90423 0.62277 0.0
H1977 H 0.27842 0.93035 0.59597 0.0
H1978 H 0.25027 0.94424 0.62282 0.0
O1979 O 0.25532 0.90918 0.68769 0.0
O1980 O 0.25066 0.89042 0.73379 0.0
C1981 C 0.26226 0.8322 0.68124 0.0
O1982 O 0.31473 0.91078 0.7587 0.0
O1983 O 0.32407 0.92625 0.71225 0.0
Zn1984 Zn 0.12516 0.04327 0.98574 0.0
O1985 O 0.13823 0.09227 0.9869 0.0
C1986 C 0.06954 0.08013 0.99072 0.0
Zn1987 Zn 0.10806 0.05036 0.93831 0.0
C1988 C 0.12908 0.10719 0.963 0.0
O1989 O 0.12788 0.09312 0.93751 0.0
C1990 C 0.09684 0.9883 0.95973 0.0
O1991 O 0.14476 0.02666 0.91559 0.0
O1992 O 0.16637 0.01829 0.96036 0.0
N1993 N 0.08659 0.06376 0.89847 0.0
C1994 C 0.06434 0.04344 0.89251 0.0
C1995 C 0.04227 0.08466 0.90644 0.0
N1996 N 0.07268 0.09033 0.90424 0.0
N1997 N 0.03669 0.05468 0.90084 0.0
C1998 C 0.11749 0.02924 0.04983 0.0
C1999 C 0.12692 0.98229 0.04033 0.0
N2000 N 0.14091 0.02889 0.02924 0.0
N2001 N 0.14867 -0.00051 0.02618 0.0
N2002 N 0.1055 0.00059 0.05341 0.0
H2003 H 0.13127 0.07252 0.06978 0.0
H2004 H 0.13235 0.04002 0.09538 0.0
H2005 H 0.09621 0.05572 0.08507 0.0
C2006 C 0.11931 0.05095 0.07638 0.0
C2007 C 0.06944 0.01888 0.86959 0.0
H2008 H 0.09304 0.01043 0.87282 0.0
H2009 H 0.06695 0.02839 0.84598 0.0
H2010 H 0.05302 0.00027 0.87283 0.0
O2011 O 0.08808 0.0053 0.93768 0.0
O2012 O 0.10683 0.00064 0.98378 0.0
C2013 C 0.16507 0.01227 0.93123 0.0
O2014 O 0.08648 0.06471 0.0087 0.0
O2015 O 0.071 0.07405 0.96225 0.0
Zn2016 Zn 0.95398 0.87516 0.23573 0.0
O2017 O 0.90498 0.88822 0.23689 0.0
C2018 C 0.91712 0.81953 0.24071 0.0
Zn2019 Zn 0.94689 0.85806 0.18831 0.0
C2020 C 0.89005 0.87907 0.21298 0.0
O2021 O 0.90412 0.87787 0.18749 0.0
C2022 C 0.00895 0.84685 0.20973 0.0
O2023 O 0.97059 0.89475 0.16559 0.0
O2024 O 0.97895 0.91638 0.21036 0.0
N2025 N 0.9335 0.83658 0.14845 0.0
C2026 C 0.95382 0.81433 0.14252 0.0
C2027 C 0.91261 0.79226 0.15644 0.0
N2028 N 0.90693 0.82267 0.15422 0.0
N2029 N 0.9426 0.78669 0.15088 0.0
C2030 C 0.96799 0.86749 0.29983 0.0
C2031 C 0.01494 0.87692 0.29033 0.0
N2032 N 0.96834 0.89091 0.27924 0.0
N2033 N 0.99774 0.89867 0.27619 0.0
N2034 N 0.99664 0.85547 0.30338 0.0
H2035 H 0.92472 0.88126 0.3198 0.0
H2036 H 0.95724 0.88237 0.34538 0.0
H2037 H 0.94154 0.84622 0.3351 0.0
C2038 C 0.9463 0.86932 0.3264 0.0
C2039 C 0.97838 0.81942 0.11958 0.0
H2040 H 0.98683 0.84302 0.12279 0.0
H2041 H 0.96886 0.81691 0.09598 0.0
H2042 H 0.997 0.80301 0.12283 0.0
O2043 O 0.99195 0.83809 0.18768 0.0
O2044 O 0.99661 0.85684 0.23378 0.0
C2045 C 0.98499 0.91506 0.18124 0.0
O2046 O 0.93254 0.83647 0.25869 0.0
O2047 O 0.9232 0.821 0.21225 0.0
Zn2048 Zn 0.30895 0.63919 0.55036 0.0
O2049 O 0.33167 0.60249 0.52667 0.0
C2050 C 0.28752 0.6504 0.48829 0.0
Zn2051 Zn 0.26152 0.62209 0.54327 0.0
C2052 C 0.31602 0.58218 0.51227 0.0
O2053 O 0.2869 0.58088 0.51829 0.0
C2054 C 0.25654 0.67772 0.58012 0.0
O2055 O 0.26036 0.60904 0.59227 0.0
O2056 O 0.30976 0.61939 0.59313 0.0
N2057 N 0.21802 0.60634 0.5289 0.0
C2058 C 0.19742 0.62976 0.52925 0.0
C2059 C 0.20692 0.62033 0.4823 0.0
N2060 N 0.22108 0.59858 0.4995 0.0
N2061 N 0.19384 0.64176 0.5006 0.0
C2062 C 0.35473 0.68292 0.54343 0.0
C2063 C 0.34081 0.70499 0.58464 0.0
N2064 N 0.3488 0.66067 0.56375 0.0
N2065 N 0.34303 0.67458 0.59032 0.0
N2066 N 0.34638 0.71056 0.55466 0.0
H2067 H 0.37447 0.65424 0.51042 0.0
H2068 H 0.40127 0.68036 0.52839 0.0
H2069 H 0.37441 0.69425 0.50025 0.0
C2070 C 0.37766 0.67784 0.51887 0.0
C2071 C 0.17087 0.62793 0.55096 0.0
H2072 H 0.17747 0.61599 0.57254 0.0
H2073 H 0.15188 0.61487 0.54003 0.0
H2074 H 0.16216 0.65103 0.55572 0.0
O2075 O 0.23856 0.66078 0.56471 0.0
O2076 O 0.28501 0.67625 0.57404 0.0
C2077 C 0.28427 0.61818 0.6072 0.0
O2078 O 0.30958 0.65916 0.5053 0.0
O2079 O 0.26347 0.64042 0.50064 0.0
Zn2080 Zn 0.76152 0.62516 0.20398 0.0
O2081 O 0.76037 0.63823 0.15498 0.0
C2082 C 0.75654 0.56953 0.16711 0.0
Zn2083 Zn 0.80894 0.60805 0.19689 0.0
C2084 C 0.78427 0.62908 0.14005 0.0
O2085 O 0.80976 0.62787 0.15413 0.0
C2086 C 0.78751 0.59683 0.25894 0.0
O2087 O 0.83166 0.64474 0.22059 0.0
O2088 O 0.7869 0.66637 0.22896 0.0
N2089 N 0.84879 0.58657 0.1835 0.0
C2090 C 0.85473 0.56433 0.20382 0.0
C2091 C 0.8408 0.54225 0.16261 0.0
N2092 N 0.84302 0.57266 0.15693 0.0
N2093 N 0.84637 0.53668 0.1926 0.0
C2094 C 0.69743 0.61749 0.218 0.0
C2095 C 0.70692 0.62692 0.26494 0.0
N2096 N 0.71801 0.64091 0.21834 0.0
N2097 N 0.72107 0.64868 0.24774 0.0
N2098 N 0.69387 0.60548 0.24665 0.0
H2099 H 0.67746 0.63125 0.17472 0.0
H2100 H 0.65187 0.63234 0.20724 0.0
H2101 H 0.66218 0.5962 0.19153 0.0
C2102 C 0.67087 0.6193 0.1963 0.0
C2103 C 0.87768 0.56941 0.22837 0.0
H2104 H 0.8745 0.59302 0.23681 0.0
H2105 H 0.90128 0.56688 0.21883 0.0
H2106 H 0.87443 0.55301 0.24699 0.0
O2107 O 0.80956 0.58807 0.24194 0.0
O2108 O 0.76347 0.60683 0.2466 0.0
C2109 C 0.81603 0.66506 0.23499 0.0
O2110 O 0.73856 0.58648 0.18253 0.0
O2111 O 0.785 0.571 0.17319 0.0
Zn2112 Zn 0.38919 0.55894 0.44688 0.0
O2113 O 0.35249 0.58166 0.47058 0.0
C2114 C 0.40041 0.53752 0.50895 0.0
Zn2115 Zn 0.3721 0.51151 0.45398 0.0
C2116 C 0.33219 0.56601 0.48499 0.0
O2117 O 0.33089 0.53689 0.47896 0.0
C2118 C 0.42773 0.50654 0.41712 0.0
O2119 O 0.35903 0.51035 0.40498 0.0
O2120 O 0.36938 0.55975 0.40412 0.0
N2121 N 0.35635 0.46801 0.46836 0.0
C2122 C 0.37977 0.44742 0.46801 0.0
C2123 C 0.37034 0.45692 0.51496 0.0
N2124 N 0.34859 0.47108 0.49776 0.0
N2125 N 0.39177 0.44385 0.49666 0.0
C2126 C 0.43291 0.60475 0.45381 0.0
C2127 C 0.45499 0.59082 0.41259 0.0
N2128 N 0.41066 0.59879 0.43348 0.0
N2129 N 0.42457 0.59302 0.40692 0.0
N2130 N 0.46056 0.59642 0.44257 0.0
H2131 H 0.40421 0.6244 0.48684 0.0
H2132 H 0.43026 0.65127 0.46887 0.0
H2133 H 0.44423 0.62442 0.49699 0.0
C2134 C 0.4278 0.62766 0.47838 0.0
C2135 C 0.37796 0.42087 0.4463 0.0
H2136 H 0.36601 0.42747 0.42473 0.0
H2137 H 0.36493 0.40187 0.45723 0.0
H2138 H 0.40107 0.41219 0.44153 0.0
O2139 O 0.41078 0.48856 0.43253 0.0
O2140 O 0.42625 0.535 0.4232 0.0
C2141 C 0.36818 0.53425 0.39005 0.0
O2142 O 0.40916 0.55958 0.49195 0.0
O2143 O 0.39044 0.51347 0.4966 0.0
Zn2144 Zn 0.4383 0.13919 0.69688 0.0
O2145 O 0.41558 0.10249 0.72057 0.0
C2146 C 0.45973 0.1504 0.75895 0.0
Zn2147 Zn 0.48573 0.12209 0.70398 0.0
C2148 C 0.43122 0.08218 0.73497 0.0
O2149 O 0.46035 0.08088 0.72896 0.0
C2150 C 0.49071 0.17772 0.66713 0.0
O2151 O 0.48689 0.10903 0.65498 0.0
O2152 O 0.43749 0.11938 0.65412 0.0
N2153 N 0.52923 0.10633 0.71835 0.0
C2154 C 0.54982 0.12976 0.718 0.0
C2155 C 0.54033 0.12033 0.76494 0.0
N2156 N 0.52618 0.09858 0.74775 0.0
N2157 N 0.55338 0.14177 0.74664 0.0
C2158 C 0.39252 0.18292 0.70381 0.0
C2159 C 0.40645 0.20499 0.6626 0.0
N2160 N 0.39846 0.16067 0.68349 0.0
N2161 N 0.40423 0.17458 0.65692 0.0
N2162 N 0.40088 0.21056 0.69259 0.0
H2163 H 0.37281 0.15422 0.73682 0.0
H2164 H 0.34599 0.18033 0.71886 0.0
H2165 H 0.37285 0.19424 0.747 0.0
C2166 C 0.3696 0.17783 0.72838 0.0
C2167 C 0.57639 0.12793 0.6963 0.0
H2168 H 0.56979 0.11598 0.67473 0.0
H2169 H 0.59537 0.11488 0.70724 0.0
H2170 H 0.58508 0.15102 0.69153 0.0
O2171 O 0.50869 0.16077 0.68254 0.0
O2172 O 0.46225 0.17625 0.6732 0.0
C2173 C 0.46299 0.11818 0.64005 0.0
O2174 O 0.43768 0.15916 0.74195 0.0
O2175 O 0.48378 0.14042 0.74661 0.0
Zn2176 Zn 0.37517 0.73573 0.95398 0.0
O2177 O 0.38822 0.7369 0.90498 0.0
C2178 C 0.31953 0.74071 0.91713 0.0
Zn2179 Zn 0.35807 0.68831 0.94689 0.0
C2180 C 0.37907 0.71299 0.89005 0.0
O2181 O 0.37787 0.6875 0.90413 0.0
C2182 C 0.34686 0.70972 0.00896 0.0
O2183 O 0.39476 0.66559 0.97058 0.0
O2184 O 0.41638 0.71036 0.97896 0.0
N2185 N 0.33659 0.64846 0.93349 0.0
C2186 C 0.31434 0.64251 0.95381 0.0
C2187 C 0.29227 0.65643 0.91259 0.0
N2188 N 0.32268 0.65423 0.90692 0.0
N2189 N 0.28669 0.65083 0.94258 0.0
C2190 C 0.36749 0.79982 0.96801 0.0
C2191 C 0.37692 0.79033 0.01495 0.0
N2192 N 0.39092 0.77924 0.96835 0.0
N2193 N 0.39868 0.77618 0.99775 0.0
N2194 N 0.35548 0.80338 0.99665 0.0
H2195 H 0.38127 0.8198 0.92473 0.0
H2196 H 0.38236 0.84538 0.95725 0.0
H2197 H 0.34622 0.83508 0.94154 0.0
C2198 C 0.36932 0.82639 0.94631 0.0
C2199 C 0.31944 0.6196 0.97839 0.0
H2200 H 0.34304 0.62284 0.98685 0.0
H2201 H 0.31696 0.59598 0.96889 0.0
H2202 H 0.30302 0.62285 0.997 0.0
O2203 O 0.3381 0.68767 0.99195 0.0
O2204 O 0.35684 0.73377 0.99661 0.0
C2205 C 0.41508 0.68123 0.98498 0.0
O2206 O 0.33648 0.75869 0.93254 0.0
O2207 O 0.321 0.71225 0.92321 0.0
Zn2208 Zn 0.93831 0.60806 0.55037 0.0
O2209 O 0.91559 0.64476 0.52668 0.0
C2210 C 0.95973 0.59685 0.4883 0.0
Zn2211 Zn 0.98574 0.62516 0.54327 0.0
C2212 C 0.93123 0.66507 0.51228 0.0
O2213 O 0.96036 0.66637 0.5183 0.0
C2214 C 0.99071 0.56953 0.58013 0.0
O2215 O 0.9869 0.63822 0.59227 0.0
O2216 O 0.9375 0.62787 0.59314 0.0
N2217 N 0.02924 0.6409 0.5289 0.0
C2218 C 0.04983 0.61749 0.52924 0.0
C2219 C 0.04033 0.62692 0.4823 0.0
N2220 N 0.02618 0.64867 0.4995 0.0
N2221 N 0.0534 0.60549 0.50059 0.0
C2222 C 0.89251 0.56434 0.54345 0.0
C2223 C 0.90643 0.54226 0.58466 0.0
N2224 N 0.89846 0.58659 0.56377 0.0
N2225 N 0.90423 0.57268 0.59034 0.0
N2226 N 0.90083 0.53669 0.55468 0.0
H2227 H 0.87285 0.59304 0.51041 0.0
H2228 H 0.84599 0.56697 0.52837 0.0
H2229 H 0.87284 0.55302 0.50026 0.0
C2230 C 0.8696 0.56945 0.51887 0.0
C2231 C 0.07639 0.6193 0.55095 0.0
H2232 H 0.06979 0.63125 0.57253 0.0
H2233 H 0.09538 0.63234 0.54002 0.0
H2234 H 0.08507 0.5962 0.55572 0.0
O2235 O 0.00869 0.58647 0.56471 0.0
O2236 O 0.96225 0.571 0.57405 0.0
C2237 C 0.963 0.62907 0.60721 0.0
O2238 O 0.93767 0.5881 0.5053 0.0
O2239 O 0.98378 0.60682 0.50065 0.0
Zn2240 Zn 0.38919 0.18831 0.30036 0.0
O2241 O 0.35248 0.16559 0.27667 0.0
C2242 C 0.40039 0.20973 0.23829 0.0
Zn2243 Zn 0.37208 0.23574 0.29327 0.0
C2244 C 0.33217 0.18123 0.26227 0.0
O2245 O 0.33087 0.21036 0.2683 0.0
C2246 C 0.42772 0.24071 0.33012 0.0
O2247 O 0.35903 0.2369 0.34227 0.0
O2248 O 0.36938 0.1875 0.34312 0.0
N2249 N 0.35634 0.27924 0.2789 0.0
C2250 C 0.37976 0.29983 0.27925 0.0
C2251 C 0.37033 0.29033 0.2323 0.0
N2252 N 0.34858 0.27619 0.2495 0.0
N2253 N 0.39178 0.30338 0.2506 0.0
C2254 C 0.43292 0.14252 0.29343 0.0
C2255 C 0.45498 0.15645 0.33465 0.0
N2256 N 0.41066 0.14846 0.31375 0.0
N2257 N 0.42457 0.15423 0.34032 0.0
N2258 N 0.46056 0.15088 0.30466 0.0
H2259 H 0.40423 0.12282 0.26041 0.0
H2260 H 0.43034 0.09599 0.27837 0.0
H2261 H 0.44424 0.12287 0.25025 0.0
C2262 C 0.42783 0.11961 0.26886 0.0
C2263 C 0.37793 0.32639 0.30094 0.0
H2264 H 0.36598 0.3198 0.32252 0.0
H2265 H 0.36488 0.34538 0.29001 0.0
H2266 H 0.40103 0.33509 0.30571 0.0
O2267 O 0.41078 0.25869 0.3147 0.0
O2268 O 0.42625 0.21225 0.32404 0.0
C2269 C 0.36818 0.213 0.3572 0.0
O2270 O 0.40915 0.18768 0.25529 0.0
O2271 O 0.39041 0.23378 0.25064 0.0
Zn2272 Zn 0.85807 0.55895 0.80037 0.0
O2273 O 0.89477 0.58166 0.77668 0.0
C2274 C 0.84686 0.53754 0.73829 0.0
Zn2275 Zn 0.87516 0.51152 0.79327 0.0
C2276 C 0.91508 0.56602 0.76228 0.0
O2277 O 0.91638 0.53689 0.7683 0.0
C2278 C 0.81953 0.50655 0.83012 0.0
O2279 O 0.88821 0.51035 0.84227 0.0
O2280 O 0.87787 0.55975 0.84313 0.0
N2281 N 0.8909 0.46801 0.7789 0.0
C2282 C 0.86748 0.44743 0.77925 0.0
C2283 C 0.8769 0.45692 0.7323 0.0
N2284 N 0.89866 0.47107 0.7495 0.0
N2285 N 0.85546 0.44388 0.7506 0.0
C2286 C 0.81435 0.60475 0.79345 0.0
C2287 C 0.79228 0.59084 0.83467 0.0
N2288 N 0.8366 0.5988 0.81376 0.0
N2289 N 0.82269 0.59303 0.84034 0.0
N2290 N 0.7867 0.59643 0.80468 0.0
H2291 H 0.84304 0.6244 0.7604 0.0
H2292 H 0.81698 0.65127 0.77835 0.0
H2293 H 0.80302 0.6244 0.75025 0.0
C2294 C 0.81945 0.62765 0.76886 0.0
C2295 C 0.8693 0.42086 0.80094 0.0
H2296 H 0.88125 0.42746 0.82252 0.0
H2297 H 0.88236 0.40188 0.79 0.0
H2298 H 0.8462 0.41216 0.80571 0.0
O2299 O 0.83647 0.48857 0.8147 0.0
O2300 O 0.821 0.53502 0.82404 0.0
C2301 C 0.87907 0.53426 0.8572 0.0
O2302 O 0.83811 0.55959 0.7553 0.0
O2303 O 0.85684 0.51349 0.75064 0.0
Zn2304 Zn 0.95722 0.23288 0.37564 0.0
O2305 O 0.97743 0.21114 0.41988 0.0
C2306 C 0.00859 0.20613 0.34619 0.0
Zn2307 Zn 0.94465 0.18875 0.3574 0.0
C2308 C 0.98542 0.18276 0.41599 0.0
O2309 O 0.9728 0.16827 0.39367 0.0
C2310 C 0.91908 0.24123 0.31939 0.0
O2311 O 0.90384 0.1831 0.37905 0.0
O2312 O 0.90586 0.23343 0.38385 0.0
N2313 N 0.93995 0.14681 0.33768 0.0
C2314 C 0.93239 0.15189 0.30827 0.0
C2315 C 0.97722 0.13272 0.30834 0.0
N2316 N 0.96698 0.13269 0.33759 0.0
N2317 N 0.9565 0.1465 0.28972 0.0
C2318 C 0.99196 0.28911 0.37571 0.0
C2319 C 0.95637 0.3124 0.35187 0.0
N2320 N 0.96496 0.27899 0.38768 0.0
N2321 N 0.94319 0.29592 0.37468 0.0
N2322 N 0.98697 0.3071 0.35044 0.0
H2323 H 0.02375 0.26971 0.40816 0.0
H2324 H 0.01287 0.30762 0.41595 0.0
H2325 H 0.03971 0.30136 0.38525 0.0
C2326 C 0.01913 0.29206 0.39674 0.0
C2327 C 0.89996 0.15545 0.29795 0.0
H2328 H 0.88393 0.15716 0.31782 0.0
H2329 H 0.89335 0.13597 0.28319 0.0
H2330 H 0.89893 0.17614 0.28364 0.0
O2331 O 0.91597 0.21234 0.32126 0.0
O2332 O 0.94179 0.25286 0.33341 0.0
C2333 C 0.89007 0.20884 0.37886 0.0
O2334 O 0.00321 0.22923 0.36287 0.0
O2335 O 0.98621 0.19227 0.33387 0.0
Zn2336 Zn 0.8085 0.19465 0.1074 0.0
O2337 O 0.81414 0.15384 0.12906 0.0
C2338 C 0.75602 0.16909 0.06938 0.0
Zn2339 Zn 0.76437 0.20723 0.12563 0.0
C2340 C 0.7884 0.14007 0.12886 0.0
O2341 O 0.76382 0.15586 0.13385 0.0
C2342 C 0.79113 0.25859 0.09619 0.0
O2343 O 0.78611 0.22744 0.16987 0.0
O2344 O 0.82898 0.2228 0.14367 0.0
N2345 N 0.71826 0.21496 0.13767 0.0
C2346 C 0.70814 0.24197 0.1257 0.0
C2347 C 0.68485 0.20637 0.10185 0.0
N2348 N 0.70133 0.1932 0.12467 0.0
N2349 N 0.69015 0.23698 0.10043 0.0
C2350 C 0.84536 0.18238 0.05826 0.0
C2351 C 0.86453 0.22722 0.05834 0.0
N2352 N 0.85044 0.18994 0.08768 0.0
N2353 N 0.86456 0.21697 0.08759 0.0
N2354 N 0.85075 0.2065 0.03972 0.0
H2355 H 0.84009 0.13393 0.0678 0.0
H2356 H 0.86127 0.14335 0.03317 0.0
H2357 H 0.82111 0.14894 0.03364 0.0
C2358 C 0.8418 0.14996 0.04794 0.0
C2359 C 0.70519 0.26913 0.14673 0.0
H2360 H 0.72754 0.27376 0.15814 0.0
H2361 H 0.68964 0.26287 0.16595 0.0
H2362 H 0.69588 0.28971 0.13524 0.0
O2363 O 0.76802 0.25321 0.11286 0.0
O2364 O 0.80498 0.2362 0.08387 0.0
C2365 C 0.81449 0.23543 0.16598 0.0
O2366 O 0.78491 0.16597 0.07126 0.0
O2367 O 0.74439 0.1918 0.0834 0.0
Zn2368 Zn 0.79003 0.01437 0.87564 0.0
O2369 O 0.76982 0.03611 0.91988 0.0
C2370 C 0.73865 0.04113 0.84621 0.0
Zn2371 Zn 0.8026 0.0585 0.8574 0.0
C2372 C 0.76183 0.06449 0.916 0.0
O2373 O 0.77445 0.07898 0.89368 0.0
C2374 C 0.82816 0.00602 0.81939 0.0
O2375 O 0.84341 0.06414 0.87906 0.0
O2376 O 0.84139 0.01382 0.88385 0.0
N2377 N 0.8073 0.10044 0.8377 0.0
C2378 C 0.81487 0.09538 0.80828 0.0
C2379 C 0.77004 0.11455 0.80835 0.0
N2380 N 0.78027 0.11456 0.8376 0.0
N2381 N 0.79077 0.10079 0.78973 0.0
C2382 C 0.75528 0.95814 0.8757 0.0
C2383 C 0.79088 0.93485 0.85186 0.0
N2384 N 0.78229 0.96826 0.88768 0.0
N2385 N 0.80405 0.95133 0.87468 0.0
N2386 N 0.76028 0.94015 0.85044 0.0
H2387 H 0.72349 0.97754 0.90815 0.0
H2388 H 0.73438 0.93964 0.91595 0.0
H2389 H 0.70754 0.94589 0.88525 0.0
C2390 C 0.72812 0.95519 0.89673 0.0
C2391 C 0.8473 0.09181 0.79798 0.0
H2392 H 0.86332 0.09009 0.81784 0.0
H2393 H 0.85393 0.11128 0.78322 0.0
H2394 H 0.84833 0.07112 0.78367 0.0
O2395 O 0.83127 0.03492 0.82126 0.0
O2396 O 0.80545 0.99439 0.83341 0.0
C2397 C 0.85719 0.0384 0.87886 0.0
O2398 O 0.74404 0.01802 0.86287 0.0
O2399 O 0.76104 0.05499 0.83388 0.0
Zn2400 Zn 0.93875 0.0526 0.6074 0.0
O2401 O 0.93311 0.09341 0.62905 0.0
C2402 C 0.99124 0.07817 0.56938 0.0
Zn2403 Zn 0.98288 0.04003 0.62563 0.0
C2404 C 0.95885 0.10719 0.62886 0.0
O2405 O 0.98343 0.0914 0.63385 0.0
C2406 C 0.95613 0.98866 0.5962 0.0
O2407 O 0.96114 0.01982 0.66987 0.0
O2408 O 0.91827 0.02445 0.64367 0.0
N2409 N 0.029 0.0323 0.63768 0.0
C2410 C 0.03911 0.0053 0.62571 0.0
C2411 C 0.0624 0.04089 0.60187 0.0
N2412 N 0.04592 0.05407 0.62468 0.0
N2413 N 0.05711 0.01029 0.60044 0.0
C2414 C 0.9019 0.06486 0.55826 0.0
C2415 C 0.88273 0.02003 0.55834 0.0
N2416 N 0.89682 0.05731 0.58768 0.0
N2417 N 0.8827 0.03028 0.58759 0.0
N2418 N 0.89651 0.04075 0.53972 0.0
H2419 H 0.90715 0.11332 0.56779 0.0
H2420 H 0.88599 0.10389 0.53316 0.0
H2421 H 0.92615 0.09832 0.53364 0.0
C2422 C 0.90545 0.09729 0.54794 0.0
C2423 C 0.04206 0.97813 0.64673 0.0
H2424 H 0.01971 0.97351 0.65816 0.0
H2425 H 0.05762 0.98439 0.66595 0.0
H2426 H 0.05135 0.95754 0.63525 0.0
O2427 O 0.97924 0.99404 0.61287 0.0
O2428 O 0.94228 0.01105 0.58387 0.0
C2429 C 0.93276 0.01183 0.66598 0.0
O2430 O 0.96234 0.08128 0.57126 0.0
O2431 O 0.00287 0.05546 0.5834 0.0
Zn2432 Zn 0.95723 0.51437 0.37162 0.0
O2433 O 0.97744 0.53611 0.32738 0.0
C2434 C 0.0086 0.54112 0.40106 0.0
Zn2435 Zn 0.94466 0.5585 0.38985 0.0
C2436 C 0.98543 0.56449 0.33126 0.0
O2437 O 0.97281 0.57898 0.35358 0.0
C2438 C 0.91909 0.50602 0.42787 0.0
O2439 O 0.90385 0.56415 0.3682 0.0
O2440 O 0.90586 0.51382 0.3634 0.0
N2441 N 0.93996 0.60044 0.40956 0.0
C2442 C 0.93238 0.59538 0.43898 0.0
C2443 C 0.97721 0.61455 0.43891 0.0
N2444 N 0.96699 0.61456 0.40966 0.0
N2445 N 0.95648 0.6008 0.45753 0.0
C2446 C 0.99197 0.45814 0.37155 0.0
C2447 C 0.95637 0.43486 0.39539 0.0
N2448 N 0.96496 0.46826 0.35957 0.0
N2449 N 0.9432 0.45133 0.37257 0.0
N2450 N 0.98697 0.44015 0.39681 0.0
H2451 H 0.02375 0.47754 0.33909 0.0
H2452 H 0.01287 0.43963 0.3313 0.0
H2453 H 0.03971 0.44589 0.362 0.0
C2454 C 0.01913 0.45519 0.35051 0.0
C2455 C 0.89995 0.59181 0.44928 0.0
H2456 H 0.88393 0.59008 0.42941 0.0
H2457 H 0.89332 0.61129 0.46402 0.0
H2458 H 0.89893 0.57113 0.46359 0.0
O2459 O 0.91598 0.53492 0.426 0.0
O2460 O 0.9418 0.49439 0.41385 0.0
C2461 C 0.89007 0.53841 0.36839 0.0
O2462 O 0.00321 0.51802 0.38439 0.0
O2463 O 0.98621 0.55499 0.41338 0.0
Zn2464 Zn 0.48288 0.20723 0.12162 0.0
O2465 O 0.46115 0.22744 0.07738 0.0
C2466 C 0.45612 0.2586 0.15105 0.0
Zn2467 Zn 0.43875 0.19466 0.13985 0.0
C2468 C 0.43277 0.23542 0.08125 0.0
O2469 O 0.41827 0.2228 0.10357 0.0
C2470 C 0.49123 0.1691 0.17788 0.0
O2471 O 0.43311 0.15384 0.1182 0.0
O2472 O 0.48344 0.15586 0.11341 0.0
N2473 N 0.39681 0.18995 0.15955 0.0
C2474 C 0.40186 0.18238 0.18897 0.0
C2475 C 0.38269 0.22721 0.1889 0.0
N2476 N 0.38269 0.21699 0.15964 0.0
N2477 N 0.39645 0.20648 0.20752 0.0
C2478 C 0.53911 0.24197 0.12156 0.0
C2479 C 0.5624 0.20637 0.1454 0.0
N2480 N 0.52899 0.21496 0.10958 0.0
N2481 N 0.54592 0.1932 0.12258 0.0
N2482 N 0.55711 0.23698 0.14682 0.0
H2483 H 0.5197 0.27376 0.08911 0.0
H2484 H 0.55761 0.26287 0.0813 0.0
H2485 H 0.55136 0.28972 0.11201 0.0
C2486 C 0.54206 0.26914 0.10053 0.0
C2487 C 0.40543 0.14995 0.19927 0.0
H2488 H 0.40716 0.13393 0.1794 0.0
H2489 H 0.38596 0.14332 0.21403 0.0
H2490 H 0.42612 0.14893 0.21358 0.0
O2491 O 0.46233 0.16598 0.176 0.0
O2492 O 0.50286 0.19181 0.16386 0.0
C2493 C 0.45885 0.14007 0.11839 0.0
O2494 O 0.47923 0.25321 0.13439 0.0
O2495 O 0.44226 0.23621 0.16337 0.0
Zn2496 Zn 0.8026 0.68876 0.88985 0.0
O2497 O 0.84341 0.68311 0.8682 0.0
C2498 C 0.82817 0.74124 0.92786 0.0
Zn2499 Zn 0.79003 0.73289 0.87162 0.0
C2500 C 0.85719 0.70885 0.86839 0.0
O2501 O 0.8414 0.73344 0.8634 0.0
C2502 C 0.73866 0.70614 0.90105 0.0
O2503 O 0.76982 0.71115 0.82738 0.0
O2504 O 0.77445 0.66828 0.85358 0.0
N2505 N 0.7823 0.779 0.85957 0.0
C2506 C 0.7553 0.78912 0.87155 0.0
C2507 C 0.79089 0.81241 0.89539 0.0
N2508 N 0.80407 0.79593 0.87257 0.0
N2509 N 0.76029 0.80712 0.89681 0.0
C2510 C 0.81486 0.6519 0.93898 0.0
C2511 C 0.77003 0.63273 0.93891 0.0
N2512 N 0.8073 0.64683 0.90957 0.0
N2513 N 0.78027 0.6327 0.90966 0.0
N2514 N 0.79075 0.64651 0.95753 0.0
H2515 H 0.86332 0.65716 0.92944 0.0
H2516 H 0.8539 0.63598 0.96406 0.0
H2517 H 0.84832 0.67614 0.96361 0.0
C2518 C 0.84729 0.65545 0.9493 0.0
C2519 C 0.72813 0.79206 0.85052 0.0
H2520 H 0.72352 0.76971 0.8391 0.0
H2521 H 0.73438 0.80762 0.8313 0.0
H2522 H 0.70754 0.80135 0.862 0.0
O2523 O 0.74404 0.72925 0.88438 0.0
O2524 O 0.76105 0.69229 0.91338 0.0
C2525 C 0.76183 0.68278 0.83126 0.0
O2526 O 0.83128 0.71234 0.926 0.0
O2527 O 0.80546 0.75287 0.91385 0.0
Zn2528 Zn 0.26437 0.04003 0.62162 0.0
O2529 O 0.28611 0.01982 0.57738 0.0
C2530 C 0.29112 0.98866 0.65106 0.0
Zn2531 Zn 0.3085 0.0526 0.63986 0.0
C2532 C 0.31449 0.01183 0.58127 0.0
O2533 O 0.32898 0.02445 0.60359 0.0
C2534 C 0.25601 0.07817 0.67787 0.0
O2535 O 0.31415 0.09341 0.6182 0.0
O2536 O 0.26382 0.09139 0.6134 0.0
N2537 N 0.35043 0.05731 0.65958 0.0
C2538 C 0.34535 0.06486 0.689 0.0
C2539 C 0.36452 0.02003 0.68892 0.0
N2540 N 0.36456 0.03028 0.65967 0.0
N2541 N 0.35074 0.04074 0.70754 0.0
C2542 C 0.20814 0.00529 0.62154 0.0
C2543 C 0.18485 0.04089 0.64538 0.0
N2544 N 0.21826 0.0323 0.60957 0.0
N2545 N 0.20133 0.05407 0.62257 0.0
N2546 N 0.19013 0.01029 0.6468 0.0
H2547 H 0.22754 0.97351 0.58909 0.0
H2548 H 0.18963 0.98439 0.5813 0.0
H2549 H 0.1959 0.95754 0.612 0.0
C2550 C 0.20519 0.97813 0.60052 0.0
C2551 C 0.34179 0.09728 0.69933 0.0
H2552 H 0.34009 0.11332 0.67947 0.0
H2553 H 0.36125 0.10389 0.71411 0.0
H2554 H 0.32109 0.09831 0.71363 0.0
O2555 O 0.28491 0.08129 0.676 0.0
O2556 O 0.24438 0.05546 0.66385 0.0
C2557 C 0.28841 0.10719 0.61839 0.0
O2558 O 0.26801 0.99405 0.63439 0.0
O2559 O 0.30497 0.01105 0.66339 0.0
Zn2560 Zn 0.85739 0.44465 0.18876 0.0
O2561 O 0.87905 0.40384 0.18311 0.0
C2562 C 0.81938 0.41908 0.24124 0.0
Zn2563 Zn 0.87563 0.45722 0.23289 0.0
C2564 C 0.87886 0.39006 0.20885 0.0
O2565 O 0.88385 0.40586 0.23343 0.0
C2566 C 0.84619 0.50859 0.20614 0.0
O2567 O 0.91987 0.47743 0.21114 0.0
O2568 O 0.89366 0.4728 0.16827 0.0
N2569 N 0.88768 0.46495 0.279 0.0
C2570 C 0.87571 0.49196 0.28912 0.0
C2571 C 0.85187 0.45636 0.31241 0.0
N2572 N 0.87468 0.44319 0.29592 0.0
N2573 N 0.85045 0.48696 0.30712 0.0
C2574 C 0.80825 0.43239 0.1519 0.0
C2575 C 0.80834 0.47722 0.13273 0.0
N2576 N 0.83767 0.43994 0.14682 0.0
N2577 N 0.83758 0.46697 0.1327 0.0
N2578 N 0.78971 0.4565 0.14651 0.0
H2579 H 0.81778 0.38393 0.15716 0.0
H2580 H 0.78315 0.39336 0.136 0.0
H2581 H 0.78363 0.39894 0.17616 0.0
C2582 C 0.79793 0.39997 0.15546 0.0
C2583 C 0.89674 0.51912 0.29206 0.0
H2584 H 0.90816 0.52374 0.26971 0.0
H2585 H 0.91596 0.51286 0.30762 0.0
H2586 H 0.88526 0.53971 0.30136 0.0
O2587 O 0.86286 0.5032 0.22925 0.0
O2588 O 0.83386 0.4862 0.19228 0.0
C2589 C 0.91598 0.48543 0.18277 0.0
O2590 O 0.82126 0.41596 0.21235 0.0
O2591 O 0.8334 0.44179 0.25287 0.0
Zn2592 Zn 0.5526 0.1074 0.93875 0.0
O2593 O 0.59341 0.12905 0.93311 0.0
C2594 C 0.57817 0.06939 0.99124 0.0
Zn2595 Zn 0.54003 0.12564 0.98288 0.0
C2596 C 0.60719 0.12887 0.95885 0.0
O2597 O 0.59139 0.13386 0.98343 0.0
C2598 C 0.48866 0.0962 0.95613 0.0
O2599 O 0.51982 0.16988 0.96114 0.0
O2600 O 0.52445 0.14367 0.91827 0.0
N2601 N 0.5323 0.13769 0.029 0.0
C2602 C 0.50529 0.12571 0.03911 0.0
C2603 C 0.54089 0.10187 0.0624 0.0
N2604 N 0.55406 0.12469 0.04592 0.0
N2605 N 0.51028 0.10045 0.05711 0.0
C2606 C 0.56487 0.05826 0.9019 0.0
C2607 C 0.52004 0.05834 0.88273 0.0
N2608 N 0.55731 0.08768 0.89682 0.0
N2609 N 0.53028 0.08759 0.8827 0.0
N2610 N 0.54075 0.03972 0.89651 0.0
H2611 H 0.61332 0.0678 0.90717 0.0
H2612 H 0.6039 0.03318 0.88599 0.0
H2613 H 0.59832 0.03364 0.92615 0.0
C2614 C 0.59729 0.04794 0.90546 0.0
C2615 C 0.47813 0.14674 0.04207 0.0
H2616 H 0.47351 0.15817 0.01972 0.0
H2617 H 0.48439 0.16596 0.05762 0.0
H2618 H 0.45754 0.13526 0.05136 0.0
O2619 O 0.49405 0.11287 0.97924 0.0
O2620 O 0.51105 0.08387 0.94228 0.0
C2621 C 0.51183 0.16599 0.93276 0.0
O2622 O 0.58128 0.07126 0.96234 0.0
O2623 O 0.55546 0.08341 0.00287 0.0
Zn2624 Zn 0.87162 0.79003 0.73288 0.0
O2625 O 0.82738 0.76981 0.71115 0.0
C2626 C 0.90105 0.73865 0.70613 0.0
Zn2627 Zn 0.88985 0.80259 0.68875 0.0
C2628 C 0.83126 0.76182 0.68277 0.0
O2629 O 0.85357 0.77445 0.66827 0.0
C2630 C 0.92788 0.82816 0.74123 0.0
O2631 O 0.8682 0.84341 0.68311 0.0
O2632 O 0.8634 0.84139 0.73343 0.0
N2633 N 0.90955 0.80729 0.64681 0.0
C2634 C 0.93897 0.81487 0.65187 0.0
C2635 C 0.9389 0.77004 0.6327 0.0
N2636 N 0.90965 0.78026 0.63269 0.0
N2637 N 0.95753 0.79077 0.64645 0.0
C2638 C 0.87155 0.75529 0.78911 0.0
C2639 C 0.89539 0.79089 0.8124 0.0
N2640 N 0.85958 0.7823 0.779 0.0
N2641 N 0.87258 0.80406 0.79592 0.0
N2642 N 0.89681 0.76028 0.80712 0.0
H2643 H 0.8391 0.72351 0.76971 0.0
H2644 H 0.8313 0.73438 0.80762 0.0
H2645 H 0.862 0.70754 0.80136 0.0
C2646 C 0.85052 0.72813 0.79206 0.0
C2647 C 0.94927 0.8473 0.65543 0.0
H2648 H 0.92941 0.86332 0.65715 0.0
H2649 H 0.96403 0.85392 0.63596 0.0
H2650 H 0.96358 0.84833 0.67612 0.0
O2651 O 0.926 0.83127 0.71233 0.0
O2652 O 0.91385 0.80545 0.75286 0.0
C2653 C 0.86839 0.85718 0.70885 0.0
O2654 O 0.88439 0.74404 0.72924 0.0
O2655 O 0.91337 0.76104 0.69227 0.0
Zn2656 Zn 0.20723 0.12162 0.48288 0.0
O2657 O 0.22744 0.07738 0.46114 0.0
C2658 C 0.2586 0.15106 0.45612 0.0
Zn2659 Zn 0.19466 0.13985 0.43875 0.0
C2660 C 0.23542 0.08126 0.43276 0.0
O2661 O 0.2228 0.10358 0.41827 0.0
C2662 C 0.16909 0.17788 0.49123 0.0
O2663 O 0.15384 0.1182 0.43311 0.0
O2664 O 0.15586 0.11341 0.48343 0.0
N2665 N 0.18995 0.15956 0.39681 0.0
C2666 C 0.18238 0.18898 0.40187 0.0
C2667 C 0.22721 0.18891 0.3827 0.0
N2668 N 0.21698 0.15965 0.38269 0.0
N2669 N 0.20648 0.20753 0.39645 0.0
C2670 C 0.24197 0.12155 0.53911 0.0
C2671 C 0.20637 0.1454 0.56239 0.0
N2672 N 0.21496 0.10958 0.52899 0.0
N2673 N 0.1932 0.12258 0.54592 0.0
N2674 N 0.23698 0.14682 0.5571 0.0
H2675 H 0.27376 0.0891 0.51971 0.0
H2676 H 0.26287 0.0813 0.55762 0.0
H2677 H 0.28972 0.112 0.55136 0.0
C2678 C 0.26913 0.10052 0.54206 0.0
C2679 C 0.14995 0.19928 0.40544 0.0
H2680 H 0.13393 0.17942 0.40716 0.0
H2681 H 0.14332 0.21404 0.38597 0.0
H2682 H 0.14893 0.21359 0.42613 0.0
O2683 O 0.16598 0.176 0.46233 0.0
O2684 O 0.1918 0.16385 0.50286 0.0
C2685 C 0.14007 0.11839 0.45885 0.0
O2686 O 0.25321 0.13439 0.47923 0.0
O2687 O 0.23621 0.16338 0.44226 0.0
Zn2688 Zn 0.8574 0.3026 0.5585 0.0
O2689 O 0.87905 0.34341 0.56414 0.0
C2690 C 0.81938 0.32816 0.50601 0.0
Zn2691 Zn 0.87563 0.29003 0.51437 0.0
C2692 C 0.87886 0.35719 0.5384 0.0
O2693 O 0.88385 0.34139 0.51381 0.0
C2694 C 0.8462 0.23865 0.54112 0.0
O2695 O 0.91987 0.26982 0.5361 0.0
O2696 O 0.89367 0.27445 0.57898 0.0
N2697 N 0.88768 0.28229 0.46825 0.0
C2698 C 0.8757 0.25529 0.45814 0.0
C2699 C 0.85186 0.29088 0.43485 0.0
N2700 N 0.87468 0.30406 0.45133 0.0
N2701 N 0.85044 0.26028 0.44013 0.0
C2702 C 0.80827 0.31487 0.59536 0.0
C2703 C 0.80834 0.27004 0.61453 0.0
N2704 N 0.83769 0.3073 0.60043 0.0
N2705 N 0.83759 0.28027 0.61456 0.0
N2706 N 0.78972 0.29076 0.60075 0.0
H2707 H 0.81782 0.36332 0.59008 0.0
H2708 H 0.7832 0.35391 0.61128 0.0
H2709 H 0.78364 0.34832 0.57111 0.0
C2710 C 0.79796 0.34729 0.5918 0.0
C2711 C 0.89673 0.22812 0.45519 0.0
H2712 H 0.90815 0.2235 0.47755 0.0
H2713 H 0.91595 0.23437 0.43964 0.0
H2714 H 0.88525 0.20754 0.4459 0.0
O2715 O 0.86287 0.24404 0.51801 0.0
O2716 O 0.83387 0.26104 0.55498 0.0
C2717 C 0.91599 0.26183 0.56449 0.0
O2718 O 0.82126 0.33128 0.53491 0.0
O2719 O 0.8334 0.30545 0.49438 0.0
Zn2720 Zn 0.69465 0.10739 0.3085 0.0
O2721 O 0.65384 0.12905 0.31414 0.0
C2722 C 0.66908 0.06938 0.25601 0.0
Zn2723 Zn 0.70722 0.12563 0.26437 0.0
C2724 C 0.64006 0.12886 0.2884 0.0
O2725 O 0.65586 0.13385 0.26382 0.0
C2726 C 0.75859 0.09619 0.29112 0.0
O2727 O 0.72743 0.16987 0.28611 0.0
O2728 O 0.7228 0.14367 0.32898 0.0
N2729 N 0.71495 0.13768 0.21826 0.0
C2730 C 0.74196 0.12571 0.20814 0.0
C2731 C 0.70636 0.10187 0.18485 0.0
N2732 N 0.69319 0.12468 0.20133 0.0
N2733 N 0.73697 0.10044 0.19014 0.0
C2734 C 0.68238 0.05826 0.34537 0.0
C2735 C 0.72721 0.05834 0.36454 0.0
N2736 N 0.68995 0.08768 0.35043 0.0
N2737 N 0.71698 0.08759 0.36455 0.0
N2738 N 0.70649 0.03971 0.35078 0.0
H2739 H 0.63393 0.06781 0.34008 0.0
H2740 H 0.64334 0.03317 0.36126 0.0
H2741 H 0.64894 0.03364 0.3211 0.0
C2742 C 0.64996 0.04794 0.34179 0.0
C2743 C 0.76912 0.14674 0.20519 0.0
H2744 H 0.77374 0.15817 0.22754 0.0
H2745 H 0.76287 0.16596 0.18963 0.0
H2746 H 0.78971 0.13525 0.1959 0.0
O2747 O 0.7532 0.11286 0.26801 0.0
O2748 O 0.7362 0.08386 0.30498 0.0
C2749 C 0.73543 0.16598 0.31449 0.0
O2750 O 0.66597 0.07126 0.28491 0.0
O2751 O 0.69179 0.08341 0.24438 0.0
Zn2752 Zn 0.88985 0.94466 0.05851 0.0
O2753 O 0.8682 0.90384 0.06414 0.0
C2754 C 0.92787 0.91909 0.00603 0.0
Zn2755 Zn 0.87162 0.95723 0.01437 0.0
C2756 C 0.86839 0.89007 0.0384 0.0
O2757 O 0.8634 0.90586 0.01382 0.0
C2758 C 0.90106 0.0086 0.04113 0.0
O2759 O 0.82738 0.97744 0.03611 0.0
O2760 O 0.85358 0.9728 0.07898 0.0
N2761 N 0.85958 0.96497 0.96826 0.0
C2762 C 0.87155 0.99197 0.95814 0.0
C2763 C 0.89539 0.95638 0.93485 0.0
N2764 N 0.87258 0.9432 0.95133 0.0
N2765 N 0.89681 0.98698 0.94014 0.0
C2766 C 0.93897 0.93237 0.09539 0.0
C2767 C 0.93891 0.97721 0.11455 0.0
N2768 N 0.90956 0.93995 0.10044 0.0
N2769 N 0.90965 0.96698 0.11457 0.0
N2770 N 0.95753 0.95647 0.1008 0.0
H2771 H 0.92941 0.88393 0.09009 0.0
H2772 H 0.96403 0.89332 0.11129 0.0
H2773 H 0.96359 0.89892 0.07113 0.0
C2774 C 0.94928 0.89995 0.09181 0.0
C2775 C 0.85052 0.01914 0.95519 0.0
H2776 H 0.8391 0.02376 0.97755 0.0
H2777 H 0.8313 0.01287 0.93965 0.0
H2778 H 0.862 0.03972 0.94589 0.0
O2779 O 0.88439 0.00321 0.01802 0.0
O2780 O 0.91338 0.98621 0.055 0.0
C2781 C 0.83126 0.98542 0.06449 0.0
O2782 O 0.926 0.91598 0.03492 0.0
O2783 O 0.91385 0.9418 0.99439 0.0
Zn2784 Zn 0.04002 0.12162 0.76437 0.0
O2785 O 0.01982 0.07738 0.7861 0.0
C2786 C 0.98865 0.15105 0.79112 0.0
Zn2787 Zn 0.05259 0.13985 0.8085 0.0
C2788 C 0.01183 0.08126 0.81448 0.0
O2789 O 0.02445 0.10357 0.82898 0.0
C2790 C 0.07816 0.17787 0.75602 0.0
O2791 O 0.09341 0.1182 0.81414 0.0
O2792 O 0.09139 0.11341 0.76382 0.0
N2793 N 0.0573 0.15956 0.85043 0.0
C2794 C 0.06486 0.18898 0.84536 0.0
C2795 C 0.02003 0.1889 0.86453 0.0
N2796 N 0.03027 0.15966 0.86456 0.0
N2797 N 0.04075 0.20753 0.85075 0.0
C2798 C 0.00529 0.12155 0.70814 0.0
C2799 C 0.04088 0.14539 0.68485 0.0
N2800 N 0.03229 0.10958 0.71825 0.0
N2801 N 0.05406 0.12258 0.70133 0.0
N2802 N 0.01028 0.14682 0.69014 0.0
H2803 H 0.9735 0.0891 0.72754 0.0
H2804 H 0.98438 0.0813 0.68963 0.0
H2805 H 0.95754 0.11201 0.69589 0.0
C2806 C 0.97812 0.10052 0.70519 0.0
C2807 C 0.09729 0.1993 0.84181 0.0
H2808 H 0.11332 0.17943 0.8401 0.0
H2809 H 0.1039 0.21407 0.86127 0.0
H2810 H 0.09832 0.2136 0.82111 0.0
O2811 O 0.08127 0.17599 0.78491 0.0
O2812 O 0.05545 0.16385 0.74439 0.0
C2813 C 0.10718 0.11839 0.7884 0.0
O2814 O 0.99404 0.13438 0.76801 0.0
O2815 O 0.01104 0.16337 0.80498 0.0
Zn2816 Zn 0.73289 0.37564 0.45723 0.0
O2817 O 0.71115 0.41988 0.47744 0.0
C2818 C 0.70614 0.3462 0.5086 0.0
Zn2819 Zn 0.68876 0.3574 0.44466 0.0
C2820 C 0.68277 0.416 0.48542 0.0
O2821 O 0.66828 0.39368 0.4728 0.0
C2822 C 0.74124 0.31939 0.41909 0.0
O2823 O 0.68311 0.37905 0.40384 0.0
O2824 O 0.73343 0.38385 0.40586 0.0
N2825 N 0.64682 0.33769 0.43996 0.0
C2826 C 0.65189 0.30827 0.43239 0.0
C2827 C 0.63273 0.30834 0.47722 0.0
N2828 N 0.6327 0.33759 0.46699 0.0
N2829 N 0.64651 0.28972 0.4565 0.0
C2830 C 0.78912 0.37571 0.49196 0.0
C2831 C 0.81241 0.35187 0.45636 0.0
N2832 N 0.779 0.38768 0.46496 0.0
N2833 N 0.79593 0.37468 0.44319 0.0
N2834 N 0.80712 0.35045 0.48697 0.0
H2835 H 0.76971 0.40816 0.52374 0.0
H2836 H 0.80762 0.41595 0.51287 0.0
H2837 H 0.80135 0.38525 0.53971 0.0
C2838 C 0.79206 0.39673 0.51913 0.0
C2839 C 0.65545 0.29796 0.39996 0.0
H2840 H 0.65717 0.31783 0.38394 0.0
H2841 H 0.63598 0.2832 0.39334 0.0
H2842 H 0.67614 0.28365 0.39893 0.0
O2843 O 0.71234 0.32126 0.41598 0.0
O2844 O 0.75287 0.33341 0.4418 0.0
C2845 C 0.70885 0.37886 0.39007 0.0
O2846 O 0.72925 0.36287 0.50321 0.0
O2847 O 0.69228 0.33388 0.48621 0.0
Zn2848 Zn 0.18875 0.38985 0.8026 0.0
O2849 O 0.18311 0.3682 0.84341 0.0
C2850 C 0.24123 0.42787 0.82817 0.0
Zn2851 Zn 0.23288 0.37162 0.79003 0.0
C2852 C 0.20885 0.36839 0.85719 0.0
O2853 O 0.23343 0.3634 0.84139 0.0
C2854 C 0.20613 0.40106 0.73866 0.0
O2855 O 0.21114 0.32738 0.76982 0.0
O2856 O 0.16827 0.35358 0.77445 0.0
N2857 N 0.27899 0.35957 0.78229 0.0
C2858 C 0.28911 0.37154 0.75529 0.0
C2859 C 0.3124 0.39539 0.79089 0.0
N2860 N 0.29592 0.37257 0.80406 0.0
N2861 N 0.30711 0.39681 0.76028 0.0
C2862 C 0.15188 0.43899 0.81487 0.0
C2863 C 0.13271 0.43891 0.77004 0.0
N2864 N 0.14682 0.40957 0.8073 0.0
N2865 N 0.13269 0.40966 0.78027 0.0
N2866 N 0.14647 0.45753 0.79077 0.0
H2867 H 0.15717 0.42944 0.86332 0.0
H2868 H 0.13599 0.46407 0.85392 0.0
H2869 H 0.17614 0.46361 0.84831 0.0
C2870 C 0.15545 0.4493 0.84729 0.0
C2871 C 0.29206 0.35051 0.72812 0.0
H2872 H 0.26971 0.33909 0.7235 0.0
H2873 H 0.30762 0.3313 0.73438 0.0
H2874 H 0.30136 0.362 0.70754 0.0
O2875 O 0.22924 0.38438 0.74404 0.0
O2876 O 0.19227 0.41338 0.76105 0.0
C2877 C 0.18276 0.33126 0.76183 0.0
O2878 O 0.21234 0.42599 0.83128 0.0
O2879 O 0.25287 0.41385 0.80546 0.0
Zn2880 Zn 0.6074 0.43875 0.5526 0.0
O2881 O 0.62906 0.43311 0.59341 0.0
C2882 C 0.56938 0.49123 0.57817 0.0
Zn2883 Zn 0.62563 0.48288 0.54003 0.0
C2884 C 0.62886 0.45885 0.60719 0.0
O2885 O 0.63385 0.48344 0.59139 0.0
C2886 C 0.5962 0.45612 0.48866 0.0
O2887 O 0.66987 0.46115 0.51982 0.0
O2888 O 0.64368 0.41827 0.52445 0.0
N2889 N 0.63767 0.529 0.53229 0.0
C2890 C 0.6257 0.53911 0.50529 0.0
C2891 C 0.60185 0.5624 0.54088 0.0
N2892 N 0.62467 0.54592 0.55406 0.0
N2893 N 0.60044 0.55712 0.51028 0.0
C2894 C 0.55828 0.40187 0.56488 0.0
C2895 C 0.55835 0.3827 0.52005 0.0
N2896 N 0.5877 0.39681 0.5573 0.0
N2897 N 0.58761 0.38269 0.53027 0.0
N2898 N 0.53973 0.39645 0.54078 0.0
H2899 H 0.56784 0.40716 0.61333 0.0
H2900 H 0.53322 0.38597 0.60393 0.0
H2901 H 0.53367 0.42613 0.59833 0.0
C2902 C 0.54798 0.40544 0.5973 0.0
C2903 C 0.64673 0.54206 0.47812 0.0
H2904 H 0.65815 0.51971 0.4735 0.0
H2905 H 0.66595 0.55761 0.48438 0.0
H2906 H 0.63525 0.55136 0.45754 0.0
O2907 O 0.61286 0.47924 0.49405 0.0
O2908 O 0.58387 0.44226 0.51105 0.0
C2909 C 0.66599 0.43277 0.51183 0.0
O2910 O 0.57126 0.46233 0.58128 0.0
O2911 O 0.5834 0.50286 0.55546 0.0
Zn2912 Zn 0.55851 0.8574 0.3026 0.0
O2913 O 0.56415 0.87905 0.34341 0.0
C2914 C 0.50602 0.81938 0.32816 0.0
Zn2915 Zn 0.51438 0.87563 0.29002 0.0
C2916 C 0.53841 0.87886 0.35719 0.0
O2917 O 0.51382 0.88384 0.34139 0.0
C2918 C 0.54113 0.8462 0.23865 0.0
O2919 O 0.53612 0.91987 0.26982 0.0
O2920 O 0.57899 0.89368 0.27445 0.0
N2921 N 0.46826 0.88768 0.28229 0.0
C2922 C 0.45815 0.8757 0.25529 0.0
C2923 C 0.43486 0.85186 0.29088 0.0
N2924 N 0.45134 0.87468 0.30406 0.0
N2925 N 0.44015 0.85044 0.26028 0.0
C2926 C 0.59537 0.80827 0.31487 0.0
C2927 C 0.61454 0.80834 0.27004 0.0
N2928 N 0.60044 0.83769 0.3073 0.0
N2929 N 0.61457 0.83759 0.28027 0.0
N2930 N 0.60076 0.78972 0.29076 0.0
H2931 H 0.59011 0.81782 0.36332 0.0
H2932 H 0.61128 0.78318 0.3539 0.0
H2933 H 0.57112 0.78366 0.34833 0.0
C2934 C 0.59181 0.79796 0.34729 0.0
C2935 C 0.45519 0.89673 0.22812 0.0
H2936 H 0.47755 0.90815 0.22349 0.0
H2937 H 0.43964 0.91595 0.23438 0.0
H2938 H 0.44589 0.88525 0.20754 0.0
O2939 O 0.51802 0.86287 0.24404 0.0
O2940 O 0.55499 0.83388 0.26104 0.0
C2941 C 0.5645 0.91599 0.26183 0.0
O2942 O 0.53492 0.82126 0.33127 0.0
O2943 O 0.49439 0.8334 0.30545 0.0
Zn2944 Zn 0.62161 0.26437 0.04003 0.0
O2945 O 0.57737 0.28611 0.01982 0.0
C2946 C 0.65104 0.29113 0.98865 0.0
Zn2947 Zn 0.63985 0.3085 0.05259 0.0
C2948 C 0.58125 0.31449 0.01183 0.0
O2949 O 0.60357 0.32898 0.02445 0.0
C2950 C 0.67786 0.25602 0.07816 0.0
O2951 O 0.6182 0.31415 0.09341 0.0
O2952 O 0.6134 0.26382 0.09139 0.0
N2953 N 0.65956 0.35044 0.05729 0.0
C2954 C 0.68897 0.34538 0.06487 0.0
C2955 C 0.68891 0.36455 0.02004 0.0
N2956 N 0.65965 0.36456 0.03026 0.0
N2957 N 0.70753 0.3508 0.04077 0.0
C2958 C 0.62155 0.20814 0.00528 0.0
C2959 C 0.64539 0.18486 0.04088 0.0
N2960 N 0.60957 0.21826 0.03229 0.0
N2961 N 0.62257 0.20133 0.05405 0.0
N2962 N 0.64681 0.19015 0.01028 0.0
H2963 H 0.5891 0.22755 0.97349 0.0
H2964 H 0.5813 0.18964 0.98438 0.0
H2965 H 0.612 0.1959 0.95754 0.0
C2966 C 0.60052 0.2052 0.97812 0.0
C2967 C 0.69927 0.34182 0.0973 0.0
H2968 H 0.67941 0.34009 0.11332 0.0
H2969 H 0.71403 0.36129 0.10393 0.0
H2970 H 0.71358 0.32113 0.09833 0.0
O2971 O 0.676 0.28492 0.08127 0.0
O2972 O 0.66384 0.24439 0.05545 0.0
C2973 C 0.61839 0.28841 0.10719 0.0
O2974 O 0.63438 0.26802 0.99404 0.0
O2975 O 0.66337 0.30499 0.01104 0.0
Zn2976 Zn 0.01437 0.37162 0.45722 0.0
O2977 O 0.03611 0.32738 0.47744 0.0
C2978 C 0.04113 0.40106 0.50859 0.0
Zn2979 Zn 0.0585 0.38985 0.44465 0.0
C2980 C 0.06449 0.33126 0.48542 0.0
O2981 O 0.07898 0.35358 0.4728 0.0
C2982 C 0.00602 0.42787 0.41908 0.0
O2983 O 0.06414 0.3682 0.40384 0.0
O2984 O 0.01382 0.3634 0.40586 0.0
N2985 N 0.10044 0.40956 0.43994 0.0
C2986 C 0.09538 0.43898 0.43237 0.0
C2987 C 0.11455 0.4389 0.47721 0.0
N2988 N 0.11457 0.40965 0.46697 0.0
N2989 N 0.1008 0.45753 0.45648 0.0
C2990 C 0.95814 0.37155 0.49196 0.0
C2991 C 0.93485 0.39539 0.45637 0.0
N2992 N 0.96826 0.35958 0.46496 0.0
N2993 N 0.95133 0.37258 0.44319 0.0
N2994 N 0.94014 0.39681 0.48697 0.0
H2995 H 0.97754 0.3391 0.52375 0.0
H2996 H 0.93963 0.3313 0.51287 0.0
H2997 H 0.94589 0.362 0.53971 0.0
C2998 C 0.95519 0.35052 0.51913 0.0
C2999 C 0.09181 0.44929 0.39995 0.0
H3000 H 0.09009 0.42942 0.38392 0.0
H3001 H 0.11128 0.46405 0.39332 0.0
H3002 H 0.07112 0.4636 0.39893 0.0
O3003 O 0.03492 0.426 0.41597 0.0
O3004 O 0.99439 0.41385 0.44179 0.0
C3005 C 0.0384 0.36839 0.39006 0.0
O3006 O 0.01802 0.38439 0.5032 0.0
O3007 O 0.05499 0.41338 0.4862 0.0
Zn3008 Zn 0.62564 0.76437 0.70722 0.0
O3009 O 0.66988 0.78611 0.72743 0.0
C3010 C 0.5962 0.79112 0.75859 0.0
Zn3011 Zn 0.6074 0.8085 0.69465 0.0
C3012 C 0.666 0.81449 0.73542 0.0
O3013 O 0.64367 0.82898 0.7228 0.0
C3014 C 0.56939 0.75602 0.66909 0.0
O3015 O 0.62906 0.81414 0.65384 0.0
O3016 O 0.63385 0.76382 0.65586 0.0
N3017 N 0.58769 0.85043 0.68995 0.0
C3018 C 0.55827 0.84536 0.68238 0.0
C3019 C 0.55834 0.86453 0.72722 0.0
N3020 N 0.58759 0.86456 0.71698 0.0
N3021 N 0.53972 0.85075 0.70649 0.0
C3022 C 0.62571 0.70814 0.74196 0.0
C3023 C 0.60186 0.68485 0.70637 0.0
N3024 N 0.63768 0.71826 0.71496 0.0
N3025 N 0.62468 0.70133 0.69319 0.0
N3026 N 0.60044 0.69015 0.73697 0.0
H3027 H 0.65816 0.72754 0.77375 0.0
H3028 H 0.66595 0.68963 0.76287 0.0
H3029 H 0.63525 0.69589 0.78971 0.0
C3030 C 0.64674 0.70519 0.76913 0.0
C3031 C 0.54796 0.84181 0.64996 0.0
H3032 H 0.56782 0.84009 0.63393 0.0
H3033 H 0.5332 0.86128 0.64334 0.0
H3034 H 0.53365 0.82112 0.64893 0.0
O3035 O 0.57126 0.78491 0.66597 0.0
O3036 O 0.58341 0.74439 0.6918 0.0
C3037 C 0.62886 0.7884 0.64007 0.0
O3038 O 0.61287 0.76801 0.75321 0.0
O3039 O 0.58387 0.80498 0.7362 0.0
Zn3040 Zn 0.13985 0.43874 0.19466 0.0
O3041 O 0.1182 0.43311 0.15384 0.0
C3042 C 0.17787 0.49122 0.1691 0.0
Zn3043 Zn 0.12162 0.48288 0.20723 0.0
C3044 C 0.11839 0.45885 0.14007 0.0
O3045 O 0.11341 0.48343 0.15586 0.0
C3046 C 0.15105 0.45611 0.25861 0.0
O3047 O 0.07738 0.46114 0.22744 0.0
O3048 O 0.10357 0.41827 0.2228 0.0
N3049 N 0.10958 0.52899 0.21497 0.0
C3050 C 0.12156 0.53911 0.24197 0.0
C3051 C 0.1454 0.56239 0.20638 0.0
N3052 N 0.12258 0.54592 0.1932 0.0
N3053 N 0.14682 0.5571 0.23698 0.0
C3054 C 0.18897 0.40186 0.18238 0.0
C3055 C 0.1889 0.3827 0.22721 0.0
N3056 N 0.15955 0.39681 0.18996 0.0
N3057 N 0.15965 0.38268 0.21699 0.0
N3058 N 0.20752 0.39645 0.20648 0.0
H3059 H 0.1794 0.40716 0.13393 0.0
H3060 H 0.21402 0.38596 0.14332 0.0
H3061 H 0.21358 0.42612 0.14892 0.0
C3062 C 0.19927 0.40543 0.14995 0.0
C3063 C 0.10053 0.54206 0.26914 0.0
H3064 H 0.08911 0.51971 0.27377 0.0
H3065 H 0.08131 0.55761 0.26287 0.0
H3066 H 0.11201 0.55137 0.28972 0.0
O3067 O 0.13438 0.47923 0.25321 0.0
O3068 O 0.16337 0.44225 0.23622 0.0
C3069 C 0.08125 0.43276 0.23542 0.0
O3070 O 0.176 0.46233 0.16599 0.0
O3071 O 0.16385 0.50286 0.19181 0.0
Zn3072 Zn 0.54327 0.26151 0.62209 0.0
O3073 O 0.59227 0.26035 0.60903 0.0
C3074 C 0.58014 0.25654 0.67772 0.0
Zn3075 Zn 0.55037 0.30894 0.63919 0.0
C3076 C 0.6072 0.28426 0.61817 0.0
O3077 O 0.59313 0.30975 0.61938 0.0
C3078 C 0.4883 0.28752 0.65041 0.0
O3079 O 0.52667 0.33166 0.6025 0.0
O3080 O 0.51829 0.28689 0.58088 0.0
N3081 N 0.56377 0.34879 0.66067 0.0
C3082 C 0.54344 0.35474 0.68291 0.0
C3083 C 0.58466 0.34082 0.70499 0.0
N3084 N 0.59033 0.34302 0.67458 0.0
N3085 N 0.55467 0.34642 0.71056 0.0
C3086 C 0.52924 0.19742 0.62977 0.0
C3087 C 0.4823 0.20692 0.62033 0.0
N3088 N 0.5289 0.21801 0.60635 0.0
N3089 N 0.4995 0.22107 0.59859 0.0
N3090 N 0.5006 0.19384 0.64176 0.0
H3091 H 0.57253 0.17747 0.61601 0.0
H3092 H 0.54003 0.15187 0.6149 0.0
H3093 H 0.55572 0.16217 0.65105 0.0
C3094 C 0.55095 0.17086 0.62795 0.0
C3095 C 0.51887 0.37766 0.67781 0.0
H3096 H 0.51042 0.37441 0.65421 0.0
H3097 H 0.52839 0.40127 0.68028 0.0
H3098 H 0.50027 0.37443 0.69423 0.0
O3099 O 0.50531 0.30957 0.65917 0.0
O3100 O 0.50065 0.26347 0.64043 0.0
C3101 C 0.51226 0.31601 0.58219 0.0
O3102 O 0.56472 0.23855 0.66078 0.0
O3103 O 0.57406 0.285 0.67625 0.0
Zn3104 Zn 0.73573 0.29328 0.87209 0.0
O3105 O 0.7369 0.34228 0.85903 0.0
C3106 C 0.74071 0.33013 0.92772 0.0
Zn3107 Zn 0.68831 0.30037 0.88919 0.0
C3108 C 0.713 0.35721 0.86818 0.0
O3109 O 0.6875 0.34313 0.86938 0.0
C3110 C 0.70972 0.2383 0.9004 0.0
O3111 O 0.66559 0.27668 0.85249 0.0
O3112 O 0.71036 0.2683 0.83087 0.0
N3113 N 0.64846 0.31377 0.91066 0.0
C3114 C 0.64251 0.29345 0.93291 0.0
C3115 C 0.65643 0.33466 0.95499 0.0
N3116 N 0.65423 0.34034 0.92457 0.0
N3117 N 0.65083 0.30468 0.96056 0.0
C3118 C 0.79982 0.27925 0.87976 0.0
C3119 C 0.79033 0.23231 0.87034 0.0
N3120 N 0.77924 0.27891 0.85634 0.0
N3121 N 0.77618 0.24951 0.84858 0.0
N3122 N 0.80338 0.25061 0.89178 0.0
H3123 H 0.8198 0.32252 0.86599 0.0
H3124 H 0.84538 0.29 0.86491 0.0
H3125 H 0.83507 0.30572 0.90104 0.0
C3126 C 0.82639 0.30095 0.87794 0.0
C3127 C 0.61961 0.26887 0.9278 0.0
H3128 H 0.62286 0.26041 0.90421 0.0
H3129 H 0.59599 0.27837 0.93027 0.0
H3130 H 0.62285 0.25026 0.94423 0.0
O3131 O 0.68767 0.2553 0.90916 0.0
O3132 O 0.73377 0.25065 0.89041 0.0
C3133 C 0.68123 0.26228 0.83218 0.0
O3134 O 0.75869 0.31471 0.91078 0.0
O3135 O 0.71225 0.32405 0.92626 0.0
Zn3136 Zn 0.70398 0.48574 0.12209 0.0
O3137 O 0.65498 0.48689 0.10902 0.0
C3138 C 0.66711 0.49072 0.17772 0.0
Zn3139 Zn 0.69689 0.43832 0.1392 0.0
C3140 C 0.64005 0.46298 0.11817 0.0
O3141 O 0.65413 0.43749 0.11938 0.0
C3142 C 0.75894 0.45975 0.15043 0.0
O3143 O 0.7206 0.41559 0.10251 0.0
O3144 O 0.72896 0.46036 0.08088 0.0
N3145 N 0.6835 0.39847 0.16068 0.0
C3146 C 0.70383 0.39253 0.18293 0.0
C3147 C 0.66262 0.40646 0.205 0.0
N3148 N 0.65693 0.40424 0.17459 0.0
N3149 N 0.69261 0.40089 0.21057 0.0
C3150 C 0.718 0.54983 0.12975 0.0
C3151 C 0.76495 0.54034 0.12031 0.0
N3152 N 0.71835 0.52924 0.10634 0.0
N3153 N 0.74775 0.52618 0.09857 0.0
N3154 N 0.74665 0.55341 0.14175 0.0
H3155 H 0.67472 0.56979 0.11598 0.0
H3156 H 0.70723 0.59539 0.11492 0.0
H3157 H 0.69152 0.58505 0.15105 0.0
C3158 C 0.69629 0.57639 0.12794 0.0
C3159 C 0.72836 0.36956 0.17785 0.0
H3160 H 0.7368 0.37274 0.15424 0.0
H3161 H 0.71881 0.34597 0.18037 0.0
H3162 H 0.74699 0.3728 0.19424 0.0
O3163 O 0.74194 0.4377 0.15919 0.0
O3164 O 0.7466 0.4838 0.14043 0.0
C3165 C 0.735 0.43124 0.0822 0.0
O3166 O 0.68252 0.50871 0.16077 0.0
O3167 O 0.67319 0.46226 0.17625 0.0
Zn3168 Zn 0.51151 0.45398 0.37209 0.0
O3169 O 0.51036 0.40498 0.35903 0.0
C3170 C 0.50653 0.41712 0.42772 0.0
Zn3171 Zn 0.55894 0.44689 0.38919 0.0
C3172 C 0.53426 0.39005 0.36818 0.0
O3173 O 0.55975 0.40413 0.36938 0.0
C3174 C 0.53752 0.50895 0.40041 0.0
O3175 O 0.58166 0.47059 0.3525 0.0
O3176 O 0.5369 0.47896 0.33088 0.0
N3177 N 0.59879 0.43349 0.41067 0.0
C3178 C 0.60474 0.45381 0.43292 0.0
C3179 C 0.59081 0.41259 0.45499 0.0
N3180 N 0.59301 0.40692 0.42458 0.0
N3181 N 0.59641 0.44257 0.46057 0.0
C3182 C 0.44743 0.46801 0.37976 0.0
C3183 C 0.45692 0.51496 0.37032 0.0
N3184 N 0.46802 0.46836 0.35634 0.0
N3185 N 0.47108 0.49776 0.34858 0.0
N3186 N 0.44385 0.49666 0.39175 0.0
H3187 H 0.42747 0.42473 0.36599 0.0
H3188 H 0.40187 0.45723 0.36491 0.0
H3189 H 0.4122 0.44152 0.40105 0.0
C3190 C 0.42087 0.4463 0.37794 0.0
C3191 C 0.62766 0.47838 0.42782 0.0
H3192 H 0.62443 0.48683 0.40422 0.0
H3193 H 0.65127 0.46886 0.43031 0.0
H3194 H 0.62441 0.49699 0.44424 0.0
O3195 O 0.55957 0.49195 0.40917 0.0
O3196 O 0.51347 0.4966 0.39043 0.0
C3197 C 0.56602 0.48498 0.33219 0.0
O3198 O 0.48855 0.43254 0.41077 0.0
O3199 O 0.535 0.4232 0.42625 0.0
Zn3200 Zn 0.55037 0.93831 0.60806 0.0
O3201 O 0.52667 0.91559 0.64475 0.0
C3202 C 0.4883 0.95973 0.59684 0.0
Zn3203 Zn 0.54328 0.98574 0.62516 0.0
C3204 C 0.51227 0.93123 0.66506 0.0
O3205 O 0.5183 0.96036 0.66637 0.0
C3206 C 0.58014 0.99071 0.56953 0.0
O3207 O 0.59227 0.98689 0.63822 0.0
O3208 O 0.59313 0.9375 0.62786 0.0
N3209 N 0.52891 0.02924 0.6409 0.0
C3210 C 0.52925 0.04982 0.61748 0.0
C3211 C 0.48231 0.04033 0.62691 0.0
N3212 N 0.49951 0.02619 0.64867 0.0
N3213 N 0.5006 0.05338 0.60547 0.0
C3214 C 0.54343 0.89252 0.56433 0.0
C3215 C 0.58464 0.90645 0.54226 0.0
N3216 N 0.56376 0.89846 0.58658 0.0
N3217 N 0.59033 0.90423 0.57267 0.0
N3218 N 0.55465 0.90088 0.53669 0.0
H3219 H 0.51044 0.87278 0.59302 0.0
H3220 H 0.52841 0.84597 0.5669 0.0
H3221 H 0.50026 0.87283 0.55301 0.0
C3222 C 0.51888 0.86958 0.56942 0.0
C3223 C 0.55095 0.07639 0.61929 0.0
H3224 H 0.57252 0.0698 0.63125 0.0
H3225 H 0.54 0.09539 0.63232 0.0
H3226 H 0.55572 0.08507 0.59619 0.0
O3227 O 0.56472 0.00869 0.58647 0.0
O3228 O 0.57406 0.96225 0.571 0.0
C3229 C 0.60721 0.96299 0.62907 0.0
O3230 O 0.50531 0.93768 0.58809 0.0
O3231 O 0.50065 0.98378 0.60682 0.0
Zn3232 Zn 0.05894 0.30036 0.85806 0.0
O3233 O 0.08165 0.27665 0.89475 0.0
C3234 C 0.03751 0.2383 0.84684 0.0
Zn3235 Zn 0.01151 0.29327 0.87517 0.0
C3236 C 0.06601 0.26225 0.91506 0.0
O3237 O 0.03689 0.26829 0.91638 0.0
C3238 C 0.00654 0.33013 0.81954 0.0
O3239 O 0.01036 0.34227 0.88823 0.0
O3240 O 0.05975 0.34312 0.87788 0.0
N3241 N 0.96801 0.2789 0.89092 0.0
C3242 C 0.94743 0.27924 0.86749 0.0
C3243 C 0.95692 0.2323 0.87692 0.0
N3244 N 0.97106 0.2495 0.89868 0.0
N3245 N 0.94387 0.2506 0.85547 0.0
C3246 C 0.10473 0.29343 0.81433 0.0
C3247 C 0.0908 0.33464 0.79227 0.0
N3248 N 0.09879 0.31375 0.83658 0.0
N3249 N 0.09302 0.34032 0.82268 0.0
N3250 N 0.09637 0.30466 0.78669 0.0
H3251 H 0.12447 0.26043 0.84302 0.0
H3252 H 0.15127 0.2784 0.81689 0.0
H3253 H 0.12441 0.25025 0.80301 0.0
C3254 C 0.12767 0.26887 0.81941 0.0
C3255 C 0.92086 0.30094 0.8693 0.0
H3256 H 0.92745 0.32252 0.88126 0.0
H3257 H 0.90186 0.29 0.88233 0.0
H3258 H 0.91219 0.30572 0.8462 0.0
O3259 O 0.98855 0.31471 0.83648 0.0
O3260 O 0.035 0.32405 0.821 0.0
C3261 C 0.03426 0.35719 0.87908 0.0
O3262 O 0.05956 0.2553 0.83808 0.0
O3263 O 0.01347 0.25064 0.85684 0.0
Zn3264 Zn 0.69688 0.80894 0.10806 0.0
O3265 O 0.72058 0.83166 0.14475 0.0
C3266 C 0.75894 0.78752 0.09683 0.0
Zn3267 Zn 0.70397 0.76152 0.12516 0.0
C3268 C 0.73498 0.81603 0.16506 0.0
O3269 O 0.72895 0.7869 0.16637 0.0
C3270 C 0.66712 0.75654 0.06953 0.0
O3271 O 0.65498 0.76036 0.13822 0.0
O3272 O 0.65412 0.80975 0.12787 0.0
N3273 N 0.71834 0.71802 0.14091 0.0
C3274 C 0.718 0.69743 0.11748 0.0
C3275 C 0.76494 0.70693 0.12692 0.0
N3276 N 0.74774 0.72107 0.14867 0.0
N3277 N 0.74665 0.69388 0.10547 0.0
C3278 C 0.7038 0.85475 0.06434 0.0
C3279 C 0.66259 0.84082 0.04225 0.0
N3280 N 0.68348 0.84879 0.08658 0.0
N3281 N 0.65691 0.84302 0.07266 0.0
N3282 N 0.69258 0.84642 0.03669 0.0
H3283 H 0.73682 0.87441 0.09304 0.0
H3284 H 0.71886 0.90128 0.06698 0.0
H3285 H 0.74698 0.87444 0.05303 0.0
C3286 C 0.72837 0.87766 0.06945 0.0
C3287 C 0.69631 0.67087 0.1193 0.0
H3288 H 0.67473 0.67746 0.13125 0.0
H3289 H 0.70725 0.65187 0.13234 0.0
H3290 H 0.69153 0.66218 0.0962 0.0
O3291 O 0.68253 0.73856 0.08648 0.0
O3292 O 0.67319 0.785 0.071 0.0
C3293 C 0.64005 0.78426 0.12907 0.0
O3294 O 0.74194 0.80957 0.08808 0.0
O3295 O 0.7466 0.76348 0.10683 0.0
Zn3296 Zn 0.18831 0.44689 0.35807 0.0
O3297 O 0.16559 0.47058 0.39477 0.0
C3298 C 0.20972 0.50896 0.34686 0.0
Zn3299 Zn 0.23574 0.45398 0.37517 0.0
C3300 C 0.18124 0.48498 0.41507 0.0
O3301 O 0.21036 0.47895 0.41638 0.0
C3302 C 0.24071 0.41714 0.31953 0.0
O3303 O 0.2369 0.40498 0.38822 0.0
O3304 O 0.1875 0.40413 0.37787 0.0
N3305 N 0.27924 0.46835 0.39091 0.0
C3306 C 0.29982 0.46801 0.36749 0.0
C3307 C 0.29033 0.51495 0.37691 0.0
N3308 N 0.27618 0.49775 0.39867 0.0
N3309 N 0.30338 0.49665 0.35547 0.0
C3310 C 0.14251 0.45381 0.31434 0.0
C3311 C 0.15642 0.41259 0.29228 0.0
N3312 N 0.14846 0.43349 0.3366 0.0
N3313 N 0.15423 0.40692 0.32269 0.0
N3314 N 0.15083 0.44257 0.2867 0.0
H3315 H 0.12288 0.48686 0.34304 0.0
H3316 H 0.096 0.46891 0.31699 0.0
H3317 H 0.12287 0.497 0.30302 0.0
C3318 C 0.11962 0.4784 0.31945 0.0
C3319 C 0.32639 0.44631 0.36931 0.0
H3320 H 0.3198 0.42474 0.38126 0.0
H3321 H 0.34539 0.45726 0.38234 0.0
H3322 H 0.33507 0.44154 0.3462 0.0
O3323 O 0.25869 0.43255 0.33648 0.0
O3324 O 0.21224 0.42322 0.321 0.0
C3325 C 0.213 0.39005 0.37907 0.0
O3326 O 0.18767 0.49196 0.3381 0.0
O3327 O 0.23377 0.49661 0.35684 0.0
Zn3328 Zn 0.63919 0.05037 0.80895 0.0
O3329 O 0.60248 0.02668 0.83167 0.0
C3330 C 0.65039 0.98829 0.78754 0.0
Zn3331 Zn 0.62209 0.04327 0.76152 0.0
C3332 C 0.58217 0.01228 0.81603 0.0
O3333 O 0.58087 0.0183 0.7869 0.0
C3334 C 0.67773 0.08012 0.75655 0.0
O3335 O 0.60904 0.09227 0.76036 0.0
O3336 O 0.61939 0.09313 0.80976 0.0
N3337 N 0.60635 0.02891 0.71802 0.0
C3338 C 0.62977 0.02925 0.69743 0.0
C3339 C 0.62034 0.98231 0.70693 0.0
N3340 N 0.59859 -0.0005 0.72107 0.0
N3341 N 0.64178 0.00061 0.69388 0.0
C3342 C 0.68291 0.04344 0.85475 0.0
C3343 C 0.70498 0.08466 0.84083 0.0
N3344 N 0.66066 0.06376 0.8488 0.0
N3345 N 0.67457 0.09033 0.84303 0.0
N3346 N 0.71056 0.05468 0.84643 0.0
H3347 H 0.65421 0.0104 0.8744 0.0
H3348 H 0.68028 0.02835 0.90127 0.0
H3349 H 0.69423 0.00025 0.87439 0.0
C3350 C 0.67781 0.01886 0.87765 0.0
C3351 C 0.62794 0.05094 0.67086 0.0
H3352 H 0.616 0.07252 0.67746 0.0
H3353 H 0.61488 0.04 0.65188 0.0
H3354 H 0.65104 0.05571 0.66216 0.0
O3355 O 0.66078 0.0647 0.73857 0.0
O3356 O 0.67626 0.07404 0.78502 0.0
C3357 C 0.61819 0.10721 0.78426 0.0
O3358 O 0.65915 0.0053 0.80959 0.0
O3359 O 0.64041 0.00064 0.76349 0.0
Zn3360 Zn 0.94689 0.38919 0.05894 0.0
O3361 O 0.97059 0.3525 0.08166 0.0
C3362 C 0.00895 0.40041 0.03752 0.0
Zn3363 Zn 0.95398 0.37209 0.01151 0.0
C3364 C 0.98499 0.33219 0.06602 0.0
O3365 O 0.97896 0.33088 0.03689 0.0
C3366 C 0.91712 0.42772 0.00653 0.0
O3367 O 0.90499 0.35903 0.01035 0.0
O3368 O 0.90413 0.36937 0.05975 0.0
N3369 N 0.96836 0.35634 0.96801 0.0
C3370 C 0.96801 0.37976 0.94742 0.0
C3371 C 0.01496 0.37033 0.95692 0.0
N3372 N 0.99776 0.34858 0.97108 0.0
N3373 N 0.99666 0.39176 0.94385 0.0
C3374 C 0.95381 0.43291 0.10474 0.0
C3375 C 0.9126 0.45499 0.09082 0.0
N3376 N 0.93349 0.41067 0.09879 0.0
N3377 N 0.90692 0.42458 0.09301 0.0
N3378 N 0.94258 0.46056 0.09642 0.0
H3379 H 0.98683 0.40421 0.12442 0.0
H3380 H 0.96886 0.43028 0.15127 0.0
H3381 H 0.99699 0.44423 0.12443 0.0
C3382 C 0.97838 0.42781 0.12766 0.0
C3383 C 0.9463 0.37795 0.92087 0.0
H3384 H 0.92473 0.366 0.92747 0.0
H3385 H 0.95723 0.36491 0.90187 0.0
H3386 H 0.94153 0.40105 0.91219 0.0
O3387 O 0.93253 0.41078 0.98855 0.0
O3388 O 0.9232 0.42625 0.035 0.0
C3389 C 0.89006 0.36817 0.03426 0.0
O3390 O 0.99195 0.40917 0.05957 0.0
O3391 O 0.99661 0.39043 0.01347 0.0
Zn3392 Zn 0.60806 0.69689 0.30894 0.0
O3393 O 0.64476 0.72059 0.33166 0.0
C3394 C 0.59684 0.75895 0.28752 0.0
Zn3395 Zn 0.62517 0.70398 0.26152 0.0
C3396 C 0.66507 0.73498 0.31602 0.0
O3397 O 0.66638 0.72896 0.28689 0.0
C3398 C 0.56953 0.66713 0.25654 0.0
O3399 O 0.63822 0.65498 0.26036 0.0
O3400 O 0.62787 0.65413 0.30976 0.0
N3401 N 0.64091 0.71835 0.21801 0.0
C3402 C 0.61749 0.71801 0.19743 0.0
C3403 C 0.62692 0.76495 0.20692 0.0
N3404 N 0.64867 0.74775 0.22107 0.0
N3405 N 0.60547 0.74665 0.19387 0.0
C3406 C 0.56433 0.70382 0.35473 0.0
C3407 C 0.54226 0.6626 0.3408 0.0
N3408 N 0.58658 0.6835 0.34879 0.0
N3409 N 0.57267 0.65693 0.34303 0.0
N3410 N 0.53669 0.69259 0.34637 0.0
H3411 H 0.59302 0.73682 0.37447 0.0
H3412 H 0.56689 0.71886 0.40127 0.0
H3413 H 0.55301 0.747 0.3744 0.0
C3414 C 0.56941 0.72838 0.37767 0.0
C3415 C 0.61931 0.69631 0.17086 0.0
H3416 H 0.63126 0.67473 0.17745 0.0
H3417 H 0.63235 0.70725 0.15187 0.0
H3418 H 0.5962 0.69154 0.16218 0.0
O3419 O 0.58648 0.68254 0.23856 0.0
O3420 O 0.571 0.6732 0.285 0.0
C3421 C 0.62908 0.64005 0.28426 0.0
O3422 O 0.58808 0.74195 0.30957 0.0
O3423 O 0.60684 0.74661 0.26347 0.0
Zn3424 Zn 0.30036 0.35807 0.55894 0.0
O3425 O 0.27667 0.39476 0.58166 0.0
C3426 C 0.2383 0.34685 0.53752 0.0
Zn3427 Zn 0.29327 0.37516 0.51151 0.0
C3428 C 0.26226 0.41506 0.56602 0.0
O3429 O 0.26829 0.41637 0.53689 0.0
C3430 C 0.33013 0.31954 0.50653 0.0
O3431 O 0.34227 0.38822 0.51036 0.0
O3432 O 0.34313 0.37788 0.55975 0.0
N3433 N 0.2789 0.39091 0.46801 0.0
C3434 C 0.27924 0.36749 0.44742 0.0
C3435 C 0.2323 0.37693 0.45692 0.0
N3436 N 0.2495 0.39867 0.47107 0.0
N3437 N 0.25059 0.3555 0.44384 0.0
C3438 C 0.29343 0.31433 0.60473 0.0
C3439 C 0.33465 0.29227 0.5908 0.0
N3440 N 0.31376 0.33658 0.59879 0.0
N3441 N 0.34033 0.32267 0.59302 0.0
N3442 N 0.30466 0.28669 0.59637 0.0
H3443 H 0.26043 0.34302 0.62445 0.0
H3444 H 0.27839 0.31691 0.65126 0.0
H3445 H 0.25026 0.30301 0.6244 0.0
C3446 C 0.26887 0.31942 0.62766 0.0
C3447 C 0.30095 0.36932 0.42086 0.0
H3448 H 0.32253 0.38126 0.42747 0.0
H3449 H 0.29002 0.38236 0.40187 0.0
H3450 H 0.30572 0.34621 0.41218 0.0
O3451 O 0.31471 0.33648 0.48855 0.0
O3452 O 0.32405 0.32101 0.535 0.0
C3453 C 0.3572 0.37908 0.53426 0.0
O3454 O 0.2553 0.33809 0.55957 0.0
O3455 O 0.25064 0.35683 0.51347 0.0
Zn3456 Zn 0.63919 0.19688 0.43831 0.0
O3457 O 0.6025 0.22059 0.4156 0.0
C3458 C 0.65042 0.25894 0.45973 0.0
Zn3459 Zn 0.62209 0.20398 0.48574 0.0
C3460 C 0.58219 0.23499 0.43124 0.0
O3461 O 0.58088 0.22896 0.46037 0.0
C3462 C 0.67772 0.16711 0.49071 0.0
O3463 O 0.60903 0.15498 0.48689 0.0
O3464 O 0.61938 0.15413 0.4375 0.0
N3465 N 0.60635 0.21834 0.52924 0.0
C3466 C 0.62977 0.218 0.54982 0.0
C3467 C 0.62034 0.26494 0.54033 0.0
N3468 N 0.59858 0.24774 0.52619 0.0
N3469 N 0.64179 0.24665 0.55338 0.0
C3470 C 0.68291 0.20381 0.3925 0.0
C3471 C 0.70499 0.16259 0.40643 0.0
N3472 N 0.66066 0.18349 0.39846 0.0
N3473 N 0.67457 0.15692 0.40423 0.0
N3474 N 0.71056 0.19258 0.40083 0.0
H3475 H 0.65421 0.23684 0.37283 0.0
H3476 H 0.68028 0.21887 0.34598 0.0
H3477 H 0.69423 0.24699 0.37282 0.0
C3478 C 0.67781 0.22838 0.36959 0.0
C3479 C 0.62796 0.1963 0.57639 0.0
H3480 H 0.61601 0.17473 0.5698 0.0
H3481 H 0.61493 0.20724 0.59539 0.0
H3482 H 0.65107 0.19153 0.58507 0.0
O3483 O 0.66078 0.18253 0.50869 0.0
O3484 O 0.67625 0.17319 0.46224 0.0
C3485 C 0.61817 0.14005 0.46299 0.0
O3486 O 0.65918 0.24194 0.43768 0.0
O3487 O 0.64042 0.2466 0.48378 0.0
Zn3488 Zn 0.79326 0.37209 0.73574 0.0
O3489 O 0.84226 0.35903 0.7369 0.0
C3490 C 0.83011 0.42772 0.74072 0.0
Zn3491 Zn 0.80036 0.38919 0.68831 0.0
C3492 C 0.85719 0.36818 0.713 0.0
O3493 O 0.84312 0.36938 0.68751 0.0
C3494 C 0.73829 0.4004 0.70973 0.0
O3495 O 0.77667 0.35249 0.66559 0.0
O3496 O 0.76829 0.33088 0.71036 0.0
N3497 N 0.81375 0.41067 0.64846 0.0
C3498 C 0.79343 0.43292 0.64253 0.0
C3499 C 0.83465 0.45498 0.65645 0.0
N3500 N 0.84032 0.42457 0.65423 0.0
N3501 N 0.80466 0.46056 0.65088 0.0
C3502 C 0.77923 0.37976 0.79983 0.0
C3503 C 0.73229 0.37033 0.79034 0.0
N3504 N 0.77889 0.35634 0.77924 0.0
N3505 N 0.74949 0.34858 0.77618 0.0
N3506 N 0.75059 0.39176 0.80341 0.0
H3507 H 0.82252 0.36598 0.81979 0.0
H3508 H 0.79001 0.3649 0.84539 0.0
H3509 H 0.80572 0.40104 0.83507 0.0
C3510 C 0.80094 0.37794 0.82639 0.0
C3511 C 0.76887 0.42783 0.6196 0.0
H3512 H 0.76042 0.40423 0.6228 0.0
H3513 H 0.77838 0.43035 0.59599 0.0
H3514 H 0.75025 0.44424 0.62286 0.0
O3515 O 0.75529 0.40915 0.68768 0.0
O3516 O 0.75063 0.39042 0.73378 0.0
C3517 C 0.76227 0.33218 0.68123 0.0
O3518 O 0.8147 0.41078 0.7587 0.0
O3519 O 0.82404 0.42625 0.71226 0.0
Zn3520 Zn 0.60806 0.55037 0.93831 0.0
O3521 O 0.64475 0.52666 0.9156 0.0
C3522 C 0.59685 0.4883 0.95973 0.0
Zn3523 Zn 0.62516 0.54327 0.98574 0.0
C3524 C 0.66506 0.51227 0.93124 0.0
O3525 O 0.66638 0.5183 0.96036 0.0
C3526 C 0.56953 0.58013 0.99071 0.0
O3527 O 0.63822 0.59227 0.98689 0.0
O3528 O 0.62787 0.59313 0.93749 0.0
N3529 N 0.64091 0.52891 0.02924 0.0
C3530 C 0.61748 0.52925 0.04983 0.0
C3531 C 0.62692 0.48231 0.04033 0.0
N3532 N 0.64868 0.49951 0.02619 0.0
N3533 N 0.60547 0.50061 0.05338 0.0
C3534 C 0.56433 0.54343 0.89252 0.0
C3535 C 0.54226 0.58464 0.90645 0.0
N3536 N 0.58658 0.56375 0.89846 0.0
N3537 N 0.57267 0.59032 0.90423 0.0
N3538 N 0.53669 0.55465 0.90088 0.0
H3539 H 0.59302 0.51043 0.87278 0.0
H3540 H 0.5669 0.5284 0.84598 0.0
H3541 H 0.55301 0.50026 0.87283 0.0
C3542 C 0.56942 0.51888 0.86958 0.0
C3543 C 0.6193 0.55094 0.0764 0.0
H3544 H 0.63126 0.57252 0.06981 0.0
H3545 H 0.63233 0.54 0.09539 0.0
H3546 H 0.59619 0.55572 0.08507 0.0
O3547 O 0.58647 0.56472 0.00869 0.0
O3548 O 0.571 0.57405 0.96225 0.0
C3549 C 0.62907 0.6072 0.96299 0.0
O3550 O 0.58808 0.50531 0.93769 0.0
O3551 O 0.60683 0.50065 0.98378 0.0
Zn3552 Zn 0.45398 0.37516 0.23574 0.0
O3553 O 0.40498 0.38823 0.2369 0.0
C3554 C 0.41712 0.31954 0.24072 0.0
Zn3555 Zn 0.44688 0.35806 0.18831 0.0
C3556 C 0.39005 0.37908 0.213 0.0
O3557 O 0.40413 0.37788 0.18751 0.0
C3558 C 0.50895 0.34684 0.20973 0.0
O3559 O 0.47058 0.39476 0.16559 0.0
O3560 O 0.47896 0.41637 0.21036 0.0
N3561 N 0.43348 0.33659 0.14847 0.0
C3562 C 0.4538 0.31434 0.14251 0.0
C3563 C 0.41259 0.29227 0.15644 0.0
N3564 N 0.40691 0.32268 0.15424 0.0
N3565 N 0.44257 0.28669 0.15084 0.0
C3566 C 0.46802 0.36749 0.29983 0.0
C3567 C 0.51496 0.37692 0.29033 0.0
N3568 N 0.46836 0.39091 0.27924 0.0
N3569 N 0.49776 0.39867 0.27618 0.0
N3570 N 0.49667 0.35549 0.3034 0.0
H3571 H 0.42474 0.38126 0.31979 0.0
H3572 H 0.45724 0.38232 0.34539 0.0
H3573 H 0.44153 0.34619 0.33504 0.0
C3574 C 0.44631 0.3693 0.32638 0.0
C3575 C 0.47837 0.31945 0.1196 0.0
H3576 H 0.48683 0.34304 0.12285 0.0
H3577 H 0.46887 0.31697 0.09599 0.0
H3578 H 0.49698 0.30302 0.12284 0.0
O3579 O 0.49195 0.33809 0.18768 0.0
O3580 O 0.4966 0.35683 0.23378 0.0
C3581 C 0.48498 0.41507 0.18123 0.0
O3582 O 0.43254 0.33648 0.2587 0.0
O3583 O 0.4232 0.321 0.21226 0.0
Zn3584 Zn 0.76151 0.12209 0.54328 0.0
O3585 O 0.76036 0.10903 0.59227 0.0
C3586 C 0.75653 0.17772 0.58014 0.0
Zn3587 Zn 0.80894 0.13919 0.55037 0.0
C3588 C 0.78426 0.11818 0.6072 0.0
O3589 O 0.80975 0.11938 0.59313 0.0
C3590 C 0.78751 0.15042 0.48831 0.0
O3591 O 0.83166 0.1025 0.52667 0.0
O3592 O 0.7869 0.08088 0.5183 0.0
N3593 N 0.84878 0.16067 0.56377 0.0
C3594 C 0.85474 0.18292 0.54345 0.0
C3595 C 0.84081 0.205 0.58466 0.0
N3596 N 0.84301 0.17459 0.59034 0.0
N3597 N 0.84641 0.21057 0.55468 0.0
C3598 C 0.69742 0.12976 0.52924 0.0
C3599 C 0.70692 0.12032 0.4823 0.0
N3600 N 0.71802 0.10634 0.5289 0.0
N3601 N 0.72108 0.09857 0.4995 0.0
N3602 N 0.69385 0.14175 0.50059 0.0
H3603 H 0.67747 0.11598 0.57252 0.0
H3604 H 0.65186 0.11493 0.54002 0.0
H3605 H 0.66221 0.15105 0.55573 0.0
C3606 C 0.67087 0.12795 0.55095 0.0
C3607 C 0.87765 0.17781 0.51888 0.0
H3608 H 0.87441 0.15421 0.51043 0.0
H3609 H 0.90127 0.18028 0.52839 0.0
H3610 H 0.87442 0.19423 0.50027 0.0
O3611 O 0.80957 0.15917 0.50531 0.0
O3612 O 0.76347 0.14043 0.50065 0.0
C3613 C 0.81603 0.08219 0.51227 0.0
O3614 O 0.73855 0.16077 0.56472 0.0
O3615 O 0.78499 0.17625 0.57406 0.0
Zn3616 Zn 0.26151 0.12516 0.20399 0.0
O3617 O 0.26035 0.13821 0.15498 0.0
C3618 C 0.25654 0.06953 0.16713 0.0
Zn3619 Zn 0.30894 0.10806 0.19689 0.0
C3620 C 0.28425 0.12907 0.14006 0.0
O3621 O 0.30975 0.12787 0.15413 0.0
C3622 C 0.28752 0.09685 0.25896 0.0
O3623 O 0.33166 0.14476 0.22059 0.0
O3624 O 0.28688 0.16637 0.22896 0.0
N3625 N 0.34879 0.08659 0.1835 0.0
C3626 C 0.35473 0.06434 0.20382 0.0
C3627 C 0.3408 0.04227 0.1626 0.0
N3628 N 0.34302 0.07268 0.15693 0.0
N3629 N 0.34638 0.03669 0.19259 0.0
C3630 C 0.19742 0.11748 0.21801 0.0
C3631 C 0.20692 0.12692 0.26496 0.0
N3632 N 0.21801 0.1409 0.21836 0.0
N3633 N 0.22107 0.14867 0.24776 0.0
N3634 N 0.19385 0.10549 0.24666 0.0
H3635 H 0.17746 0.13125 0.17473 0.0
H3636 H 0.15186 0.13233 0.20724 0.0
H3637 H 0.16218 0.09619 0.19153 0.0
C3638 C 0.17086 0.1193 0.19631 0.0
C3639 C 0.37766 0.06942 0.22838 0.0
H3640 H 0.37445 0.09302 0.23683 0.0
H3641 H 0.40127 0.06691 0.21886 0.0
H3642 H 0.3744 0.05301 0.247 0.0
O3643 O 0.30957 0.08809 0.24195 0.0
O3644 O 0.26347 0.10683 0.24661 0.0
C3645 C 0.31601 0.16506 0.23499 0.0
O3646 O 0.23855 0.08647 0.18255 0.0
O3647 O 0.285 0.071 0.17321 0.0
Zn3648 Zn 0.87208 0.01151 0.45398 0.0
O3649 O 0.85903 0.01036 0.40498 0.0
C3650 C 0.92772 0.00653 0.41712 0.0
Zn3651 Zn 0.8892 0.05894 0.44689 0.0
C3652 C 0.86818 0.03427 0.39006 0.0
O3653 O 0.86938 0.05976 0.40413 0.0
C3654 C 0.90042 0.03751 0.50895 0.0
O3655 O 0.85251 0.08166 0.4706 0.0
O3656 O 0.83088 0.0369 0.47896 0.0
N3657 N 0.91068 0.09879 0.4335 0.0
C3658 C 0.93293 0.10473 0.45383 0.0
C3659 C 0.955 0.09079 0.41261 0.0
N3660 N 0.92459 0.09302 0.40693 0.0
N3661 N 0.96057 0.09636 0.4426 0.0
C3662 C 0.87975 0.94742 0.468 0.0
C3663 C 0.87032 0.95692 0.51494 0.0
N3664 N 0.85633 0.96801 0.46834 0.0
N3665 N 0.84857 0.97107 0.49774 0.0
N3666 N 0.89177 0.94387 0.49664 0.0
H3667 H 0.86598 0.92745 0.42473 0.0
H3668 H 0.86489 0.90186 0.45725 0.0
H3669 H 0.90103 0.91217 0.44153 0.0
C3670 C 0.87793 0.92086 0.4463 0.0
C3671 C 0.92785 0.12768 0.47836 0.0
H3672 H 0.90424 0.12451 0.4868 0.0
H3673 H 0.93039 0.15128 0.46883 0.0
H3674 H 0.94425 0.12443 0.49699 0.0
O3675 O 0.90918 0.05955 0.49194 0.0
O3676 O 0.89041 0.01346 0.4966 0.0
C3677 C 0.8322 0.06602 0.48499 0.0
O3678 O 0.91077 0.98855 0.43253 0.0
O3679 O 0.92625 0.035 0.4232 0.0
Zn3680 Zn 0.98574 0.62209 0.70398 0.0
O3681 O 0.9869 0.60903 0.65499 0.0
C3682 C 0.99072 0.67772 0.66712 0.0
Zn3683 Zn 0.93832 0.63919 0.69689 0.0
C3684 C 0.963 0.61817 0.64006 0.0
O3685 O 0.93751 0.61937 0.65413 0.0
C3686 C 0.95974 0.65042 0.75895 0.0
O3687 O 0.9156 0.6025 0.7206 0.0
O3688 O 0.96037 0.58088 0.72896 0.0
N3689 N 0.89847 0.66066 0.68349 0.0
C3690 C 0.89251 0.68291 0.70381 0.0
C3691 C 0.90644 0.70498 0.6626 0.0
N3692 N 0.90424 0.67457 0.65693 0.0
N3693 N 0.90084 0.71056 0.69258 0.0
C3694 C 0.04983 0.62977 0.71801 0.0
C3695 C 0.04033 0.62033 0.76496 0.0
N3696 N 0.02924 0.60634 0.71835 0.0
N3697 N 0.02618 0.59858 0.74775 0.0
N3698 N 0.05341 0.64176 0.74666 0.0
H3699 H 0.06979 0.616 0.67473 0.0
H3700 H 0.09539 0.61493 0.70724 0.0
H3701 H 0.08506 0.65106 0.69153 0.0
C3702 C 0.07639 0.62796 0.6963 0.0
C3703 C 0.86958 0.67782 0.72837 0.0
H3704 H 0.8728 0.65422 0.73683 0.0
H3705 H 0.84597 0.68031 0.71885 0.0
H3706 H 0.87282 0.69424 0.74699 0.0
O3707 O 0.93769 0.65918 0.74195 0.0
O3708 O 0.98379 0.64042 0.74661 0.0
C3709 C 0.93125 0.58219 0.735 0.0
O3710 O 0.0087 0.66078 0.68254 0.0
O3711 O 0.96225 0.67625 0.6732 0.0
Zn3712 Zn 0.87516 0.23574 0.95398 0.0
O3713 O 0.88822 0.2369 0.90498 0.0
C3714 C 0.81953 0.24072 0.91712 0.0
Zn3715 Zn 0.85806 0.18832 0.94689 0.0
C3716 C 0.87908 0.21299 0.89006 0.0
O3717 O 0.87787 0.1875 0.90413 0.0
C3718 C 0.84683 0.20974 0.00895 0.0
O3719 O 0.89475 0.1656 0.9706 0.0
O3720 O 0.91637 0.21037 0.97896 0.0
N3721 N 0.83658 0.14846 0.9335 0.0
C3722 C 0.81433 0.14253 0.95382 0.0
C3723 C 0.79226 0.15646 0.91261 0.0
N3724 N 0.82267 0.15424 0.90693 0.0
N3725 N 0.78669 0.15088 0.9426 0.0
C3726 C 0.86749 0.29983 0.96801 0.0
C3727 C 0.87693 0.29034 0.01495 0.0
N3728 N 0.89091 0.27924 0.96835 0.0
N3729 N 0.89867 0.27618 0.99775 0.0
N3730 N 0.8555 0.30341 0.99666 0.0
H3731 H 0.88126 0.31979 0.92473 0.0
H3732 H 0.88234 0.34539 0.95723 0.0
H3733 H 0.8462 0.33507 0.94153 0.0
C3734 C 0.86931 0.32639 0.9463 0.0
C3735 C 0.81941 0.11957 0.97837 0.0
H3736 H 0.84302 0.12276 0.98681 0.0
H3737 H 0.81689 0.09597 0.96883 0.0
H3738 H 0.80301 0.12282 0.99699 0.0
O3739 O 0.83807 0.18769 0.99194 0.0
O3740 O 0.85683 0.23379 0.99661 0.0
C3741 C 0.91506 0.18124 0.985 0.0
O3742 O 0.83648 0.2587 0.93254 0.0
O3743 O 0.821 0.21226 0.9232 0.0
Zn3744 Zn 0.43831 0.10806 0.55036 0.0
O3745 O 0.4156 0.14476 0.52666 0.0
C3746 C 0.45973 0.09685 0.48829 0.0
Zn3747 Zn 0.48574 0.12517 0.54327 0.0
C3748 C 0.43124 0.16506 0.51226 0.0
O3749 O 0.46037 0.16638 0.5183 0.0
C3750 C 0.49072 0.06953 0.58012 0.0
O3751 O 0.4869 0.13822 0.59227 0.0
O3752 O 0.4375 0.12787 0.59312 0.0
N3753 N 0.52924 0.14092 0.52891 0.0
C3754 C 0.54983 0.11749 0.52925 0.0
C3755 C 0.54033 0.12692 0.48231 0.0
N3756 N 0.52619 0.14868 0.49951 0.0
N3757 N 0.55338 0.10548 0.5006 0.0
C3758 C 0.39253 0.06433 0.54343 0.0
C3759 C 0.40645 0.04226 0.58464 0.0
N3760 N 0.39846 0.08658 0.56375 0.0
N3761 N 0.40423 0.07267 0.59032 0.0
N3762 N 0.40088 0.03669 0.55465 0.0
H3763 H 0.37279 0.09302 0.51042 0.0
H3764 H 0.34599 0.0669 0.52839 0.0
H3765 H 0.37285 0.05301 0.50025 0.0
C3766 C 0.36959 0.06941 0.51887 0.0
C3767 C 0.5764 0.11932 0.55094 0.0
H3768 H 0.5698 0.13127 0.57252 0.0
H3769 H 0.59539 0.13236 0.54 0.0
H3770 H 0.58509 0.09621 0.55571 0.0
O3771 O 0.5087 0.08648 0.56471 0.0
O3772 O 0.46225 0.071 0.57405 0.0
C3773 C 0.46299 0.12907 0.6072 0.0
O3774 O 0.43769 0.08809 0.5053 0.0
O3775 O 0.48378 0.10684 0.50064 0.0
Zn3776 Zn 0.88919 0.68831 0.30037 0.0
O3777 O 0.8525 0.66558 0.27668 0.0
C3778 C 0.90041 0.70973 0.23831 0.0
Zn3779 Zn 0.8721 0.73573 0.29328 0.0
C3780 C 0.8322 0.68123 0.26227 0.0
O3781 O 0.83089 0.71036 0.2683 0.0
C3782 C 0.92772 0.74071 0.33014 0.0
O3783 O 0.85903 0.73689 0.34227 0.0
O3784 O 0.86938 0.68749 0.34314 0.0
N3785 N 0.85635 0.77923 0.2789 0.0
C3786 C 0.87977 0.79983 0.27924 0.0
C3787 C 0.87033 0.79033 0.2323 0.0
N3788 N 0.84858 0.77617 0.2495 0.0
N3789 N 0.89176 0.8034 0.25059 0.0
C3790 C 0.93292 0.64251 0.29345 0.0
C3791 C 0.955 0.65643 0.33466 0.0
N3792 N 0.91067 0.64846 0.31377 0.0
N3793 N 0.92459 0.65423 0.34034 0.0
N3794 N 0.96057 0.65083 0.30468 0.0
H3795 H 0.90421 0.62284 0.26042 0.0
H3796 H 0.93028 0.59598 0.27838 0.0
H3797 H 0.94423 0.62283 0.25027 0.0
C3798 C 0.92781 0.6196 0.26887 0.0
C3799 C 0.87796 0.82638 0.30095 0.0
H3800 H 0.866 0.81978 0.32253 0.0
H3801 H 0.86493 0.84538 0.29002 0.0
H3802 H 0.90107 0.83505 0.30573 0.0
O3803 O 0.91078 0.7587 0.31473 0.0
O3804 O 0.92625 0.71225 0.32406 0.0
C3805 C 0.86818 0.71299 0.35721 0.0
O3806 O 0.90917 0.68768 0.25531 0.0
O3807 O 0.89044 0.73378 0.25066 0.0
Zn3808 Zn 0.35805 0.05893 0.80037 0.0
O3809 O 0.39474 0.08166 0.77665 0.0
C3810 C 0.34682 0.0375 0.73831 0.0
Zn3811 Zn 0.37516 0.01151 0.79328 0.0
C3812 C 0.41505 0.06601 0.76226 0.0
O3813 O 0.41637 0.03689 0.76829 0.0
C3814 C 0.31954 0.00652 0.83015 0.0
O3815 O 0.38823 0.01036 0.84227 0.0
O3816 O 0.37787 0.05976 0.84312 0.0
N3817 N 0.39092 0.96801 0.77891 0.0
C3818 C 0.3675 0.94742 0.77925 0.0
C3819 C 0.37694 0.95692 0.73231 0.0
N3820 N 0.39869 0.97107 0.74951 0.0
N3821 N 0.35551 0.94384 0.7506 0.0
C3822 C 0.31432 0.10472 0.79343 0.0
C3823 C 0.29225 0.09078 0.83464 0.0
N3824 N 0.33657 0.09878 0.81376 0.0
N3825 N 0.32266 0.09301 0.84032 0.0
N3826 N 0.28668 0.09636 0.80465 0.0
H3827 H 0.34301 0.1245 0.76046 0.0
H3828 H 0.31688 0.15128 0.77844 0.0
H3829 H 0.30301 0.12445 0.75027 0.0
C3830 C 0.31941 0.12769 0.7689 0.0
C3831 C 0.36931 0.92087 0.80096 0.0
H3832 H 0.38127 0.92746 0.82253 0.0
H3833 H 0.38233 0.90185 0.79002 0.0
H3834 H 0.3462 0.9122 0.80574 0.0
O3835 O 0.33648 0.98854 0.81473 0.0
O3836 O 0.32101 0.03499 0.82407 0.0
C3837 C 0.37908 0.03427 0.8572 0.0
O3838 O 0.33806 0.05955 0.75532 0.0
O3839 O 0.35682 0.01345 0.75066 0.0
Zn3840 Zn 0.45722 0.73288 0.37563 0.0
O3841 O 0.47744 0.71115 0.41987 0.0
C3842 C 0.50859 0.70613 0.34619 0.0
Zn3843 Zn 0.44465 0.68875 0.3574 0.0
C3844 C 0.48543 0.68277 0.41599 0.0
O3845 O 0.4728 0.66827 0.39367 0.0
C3846 C 0.41909 0.74123 0.31938 0.0
O3847 O 0.40384 0.68311 0.37906 0.0
O3848 O 0.40586 0.73344 0.38385 0.0
N3849 N 0.43995 0.64681 0.33769 0.0
C3850 C 0.43237 0.65187 0.30828 0.0
C3851 C 0.47721 0.6327 0.30835 0.0
N3852 N 0.46698 0.63269 0.3376 0.0
N3853 N 0.45648 0.64645 0.28973 0.0
C3854 C 0.49197 0.78911 0.3757 0.0
C3855 C 0.45637 0.8124 0.35185 0.0
N3856 N 0.46496 0.779 0.38767 0.0
N3857 N 0.4432 0.79592 0.37467 0.0
N3858 N 0.48698 0.80712 0.35044 0.0
H3859 H 0.52375 0.76971 0.40815 0.0
H3860 H 0.51287 0.80761 0.41595 0.0
H3861 H 0.53971 0.80136 0.38525 0.0
C3862 C 0.51913 0.79206 0.39673 0.0
C3863 C 0.39995 0.65544 0.29797 0.0
H3864 H 0.38392 0.65716 0.31783 0.0
H3865 H 0.39332 0.63597 0.28321 0.0
H3866 H 0.39893 0.67613 0.28366 0.0
O3867 O 0.41597 0.71233 0.32126 0.0
O3868 O 0.4418 0.75286 0.3334 0.0
C3869 C 0.39007 0.70885 0.37886 0.0
O3870 O 0.50321 0.72924 0.36286 0.0
O3871 O 0.4862 0.69226 0.33387 0.0
Zn3872 Zn 0.3085 0.69465 0.1074 0.0
O3873 O 0.31414 0.65384 0.12906 0.0
C3874 C 0.25602 0.66908 0.06939 0.0
Zn3875 Zn 0.26437 0.70722 0.12564 0.0
C3876 C 0.2884 0.64006 0.12886 0.0
O3877 O 0.26382 0.65586 0.13385 0.0
C3878 C 0.29112 0.7586 0.0962 0.0
O3879 O 0.2861 0.72743 0.16988 0.0
O3880 O 0.32898 0.7228 0.14368 0.0
N3881 N 0.21826 0.71495 0.13768 0.0
C3882 C 0.20814 0.74196 0.12571 0.0
C3883 C 0.18485 0.70636 0.10187 0.0
N3884 N 0.20133 0.69319 0.12468 0.0
N3885 N 0.19015 0.73697 0.10044 0.0
C3886 C 0.34538 0.68238 0.05828 0.0
C3887 C 0.36455 0.72721 0.05835 0.0
N3888 N 0.35044 0.68996 0.0877 0.0
N3889 N 0.36456 0.71699 0.0876 0.0
N3890 N 0.3508 0.70648 0.03973 0.0
H3891 H 0.34008 0.63393 0.06785 0.0
H3892 H 0.36129 0.64332 0.03323 0.0
H3893 H 0.32113 0.64892 0.03366 0.0
C3894 C 0.34181 0.64995 0.04798 0.0
C3895 C 0.20519 0.76912 0.14674 0.0
H3896 H 0.22754 0.77374 0.15816 0.0
H3897 H 0.18963 0.76287 0.16595 0.0
H3898 H 0.1959 0.78971 0.13525 0.0
O3899 O 0.26801 0.75321 0.11287 0.0
O3900 O 0.30498 0.73621 0.08388 0.0
C3901 C 0.31449 0.73542 0.166 0.0
O3902 O 0.28492 0.66598 0.07125 0.0
O3903 O 0.24439 0.69179 0.08341 0.0
Zn3904 Zn 0.29003 0.51437 0.87563 0.0
O3905 O 0.26982 0.53611 0.91987 0.0
C3906 C 0.23866 0.54112 0.84618 0.0
Zn3907 Zn 0.3026 0.5585 0.85739 0.0
C3908 C 0.26182 0.56449 0.91598 0.0
O3909 O 0.27445 0.57898 0.89366 0.0
C3910 C 0.32817 0.50601 0.81938 0.0
O3911 O 0.34341 0.56414 0.87905 0.0
O3912 O 0.34139 0.51382 0.88385 0.0
N3913 N 0.30731 0.60043 0.83768 0.0
C3914 C 0.31487 0.59536 0.80826 0.0
C3915 C 0.27004 0.61453 0.80834 0.0
N3916 N 0.28028 0.61456 0.83759 0.0
N3917 N 0.29075 0.60075 0.78972 0.0
C3918 C 0.25529 0.45814 0.8757 0.0
C3919 C 0.29089 0.43485 0.85186 0.0
N3920 N 0.2823 0.46826 0.88768 0.0
N3921 N 0.30406 0.45133 0.87467 0.0
N3922 N 0.26028 0.44013 0.85045 0.0
H3923 H 0.22351 0.47754 0.90816 0.0
H3924 H 0.23439 0.43963 0.91595 0.0
H3925 H 0.20754 0.4459 0.88525 0.0
C3926 C 0.22813 0.45519 0.89674 0.0
C3927 C 0.34729 0.5918 0.79793 0.0
H3928 H 0.36332 0.59009 0.81779 0.0
H3929 H 0.3539 0.61126 0.78316 0.0
H3930 H 0.34832 0.5711 0.78363 0.0
O3931 O 0.33129 0.53491 0.82126 0.0
O3932 O 0.30546 0.49438 0.8334 0.0
C3933 C 0.35719 0.53841 0.87886 0.0
O3934 O 0.24405 0.51801 0.86286 0.0
O3935 O 0.26105 0.55497 0.83386 0.0
Zn3936 Zn 0.48288 0.54003 0.62564 0.0
O3937 O 0.46114 0.51981 0.66988 0.0
C3938 C 0.45613 0.48866 0.5962 0.0
Zn3939 Zn 0.43875 0.5526 0.6074 0.0
C3940 C 0.43276 0.51183 0.66599 0.0
O3941 O 0.41827 0.52445 0.64367 0.0
C3942 C 0.49123 0.57817 0.56939 0.0
O3943 O 0.43311 0.59341 0.62905 0.0
O3944 O 0.48343 0.59139 0.63386 0.0
N3945 N 0.39682 0.5573 0.58769 0.0
C3946 C 0.40187 0.56487 0.55827 0.0
C3947 C 0.38271 0.52004 0.55834 0.0
N3948 N 0.38269 0.53027 0.58759 0.0
N3949 N 0.39646 0.54078 0.53972 0.0
C3950 C 0.53911 0.50528 0.62571 0.0
C3951 C 0.5624 0.54088 0.60187 0.0
N3952 N 0.529 0.53229 0.63768 0.0
N3953 N 0.54592 0.55405 0.62468 0.0
N3954 N 0.55712 0.51028 0.60045 0.0
H3955 H 0.51971 0.4735 0.65816 0.0
H3956 H 0.55762 0.48438 0.66596 0.0
H3957 H 0.55136 0.45754 0.63526 0.0
C3958 C 0.54206 0.47812 0.64674 0.0
C3959 C 0.40545 0.5973 0.54797 0.0
H3960 H 0.40718 0.61332 0.56784 0.0
H3961 H 0.38597 0.60394 0.53323 0.0
H3962 H 0.42613 0.59832 0.53365 0.0
O3963 O 0.46234 0.58128 0.57125 0.0
O3964 O 0.50287 0.55546 0.58341 0.0
C3965 C 0.45885 0.60718 0.62886 0.0
O3966 O 0.47924 0.49404 0.61287 0.0
O3967 O 0.44227 0.51104 0.58387 0.0
Zn3968 Zn 0.45722 0.01437 0.37162 0.0
O3969 O 0.47743 0.03611 0.32738 0.0
C3970 C 0.5086 0.04113 0.40105 0.0
Zn3971 Zn 0.44465 0.0585 0.38985 0.0
C3972 C 0.48542 0.06449 0.33126 0.0
O3973 O 0.4728 0.07898 0.35358 0.0
C3974 C 0.41909 0.00602 0.42787 0.0
O3975 O 0.40384 0.06414 0.3682 0.0
O3976 O 0.40586 0.01382 0.3634 0.0
N3977 N 0.43995 0.10044 0.40956 0.0
C3978 C 0.43238 0.09538 0.43898 0.0
C3979 C 0.47721 0.11455 0.4389 0.0
N3980 N 0.46698 0.11456 0.40965 0.0
N3981 N 0.45648 0.10079 0.45753 0.0
C3982 C 0.49196 0.95814 0.37155 0.0
C3983 C 0.45636 0.93485 0.39539 0.0
N3984 N 0.46496 0.96826 0.35957 0.0
N3985 N 0.44319 0.95133 0.37258 0.0
N3986 N 0.48697 0.94014 0.39681 0.0
H3987 H 0.52375 0.97754 0.3391 0.0
H3988 H 0.51287 0.93963 0.3313 0.0
H3989 H 0.53971 0.94589 0.362 0.0
C3990 C 0.51913 0.95519 0.35052 0.0
C3991 C 0.39996 0.09181 0.44929 0.0
H3992 H 0.38393 0.09009 0.42942 0.0
H3993 H 0.39333 0.11128 0.46405 0.0
H3994 H 0.39893 0.07112 0.46359 0.0
O3995 O 0.41597 0.03492 0.426 0.0
O3996 O 0.4418 0.99439 0.41385 0.0
C3997 C 0.39006 0.0384 0.36839 0.0
O3998 O 0.50321 0.01802 0.38439 0.0
O3999 O 0.48621 0.05498 0.41338 0.0
Zn4000 Zn 0.93875 0.69466 0.13986 0.0
O4001 O 0.9331 0.65384 0.1182 0.0
C4002 C 0.99123 0.66908 0.17786 0.0
Zn4003 Zn 0.98288 0.70722 0.12161 0.0
C4004 C 0.95884 0.64007 0.11839 0.0
O4005 O 0.98343 0.65586 0.1134 0.0
C4006 C 0.95613 0.75859 0.15106 0.0
O4007 O 0.96114 0.72744 0.07737 0.0
O4008 O 0.91827 0.72281 0.10358 0.0
N4009 N 0.02899 0.71496 0.10956 0.0
C4010 C 0.03911 0.74196 0.12154 0.0
C4011 C 0.0624 0.70636 0.14538 0.0
N4012 N 0.04592 0.69319 0.12256 0.0
N4013 N 0.05711 0.73697 0.1468 0.0
C4014 C 0.90188 0.68238 0.18898 0.0
C4015 C 0.88271 0.72722 0.18892 0.0
N4016 N 0.89682 0.68996 0.15957 0.0
N4017 N 0.8827 0.71699 0.15967 0.0
N4018 N 0.89647 0.70648 0.20754 0.0
H4019 H 0.90718 0.63394 0.17942 0.0
H4020 H 0.88597 0.64333 0.21404 0.0
H4021 H 0.92613 0.64893 0.2136 0.0
C4022 C 0.90545 0.64996 0.19929 0.0
C4023 C 0.04206 0.76913 0.10051 0.0
H4024 H 0.01971 0.77375 0.08908 0.0
H4025 H 0.05762 0.76287 0.08129 0.0
H4026 H 0.05136 0.78971 0.11199 0.0
O4027 O 0.97924 0.75321 0.13438 0.0
O4028 O 0.94228 0.73621 0.16338 0.0
C4029 C 0.93276 0.73543 0.08126 0.0
O4030 O 0.96234 0.66597 0.176 0.0
O4031 O 0.00287 0.69179 0.16384 0.0
Zn4032 Zn 0.30259 0.18874 0.88985 0.0
O4033 O 0.34341 0.1831 0.8682 0.0
C4034 C 0.32816 0.24122 0.92788 0.0
Zn4035 Zn 0.29002 0.23287 0.87162 0.0
C4036 C 0.35718 0.20885 0.86839 0.0
O4037 O 0.34139 0.23343 0.86341 0.0
C4038 C 0.23865 0.20612 0.90105 0.0
O4039 O 0.26981 0.21114 0.82738 0.0
O4040 O 0.27445 0.16826 0.85357 0.0
N4041 N 0.28229 0.27899 0.85958 0.0
C4042 C 0.25528 0.2891 0.87155 0.0
C4043 C 0.29088 0.31239 0.8954 0.0
N4044 N 0.30405 0.29591 0.87258 0.0
N4045 N 0.26027 0.3071 0.89682 0.0
C4046 C 0.31487 0.15186 0.93898 0.0
C4047 C 0.27004 0.1327 0.93891 0.0
N4048 N 0.3073 0.1468 0.90956 0.0
N4049 N 0.28027 0.13268 0.90965 0.0
N4050 N 0.29077 0.14645 0.95753 0.0
H4051 H 0.36332 0.15716 0.92941 0.0
H4052 H 0.35393 0.13597 0.96404 0.0
H4053 H 0.34832 0.17612 0.96359 0.0
C4054 C 0.3473 0.15544 0.94928 0.0
C4055 C 0.22812 0.29206 0.85052 0.0
H4056 H 0.22349 0.26971 0.8391 0.0
H4057 H 0.23438 0.30761 0.8313 0.0
H4058 H 0.20754 0.30136 0.862 0.0
O4059 O 0.24404 0.22923 0.88438 0.0
O4060 O 0.26104 0.19225 0.91338 0.0
C4061 C 0.26183 0.18276 0.83126 0.0
O4062 O 0.33127 0.21233 0.926 0.0
O4063 O 0.30545 0.25286 0.91385 0.0
Zn4064 Zn 0.76437 0.54003 0.62162 0.0
O4065 O 0.7861 0.51981 0.57738 0.0
C4066 C 0.79113 0.48866 0.65106 0.0
Zn4067 Zn 0.8085 0.5526 0.63985 0.0
C4068 C 0.81448 0.51182 0.58126 0.0
O4069 O 0.82898 0.52445 0.60357 0.0
C4070 C 0.75603 0.57816 0.67787 0.0
O4071 O 0.81414 0.59341 0.61819 0.0
O4072 O 0.76381 0.59139 0.6134 0.0
N4073 N 0.85044 0.5573 0.65955 0.0
C4074 C 0.84539 0.56488 0.68896 0.0
C4075 C 0.86456 0.52005 0.6889 0.0
N4076 N 0.86457 0.53027 0.65965 0.0
N4077 N 0.85081 0.54079 0.70752 0.0
C4078 C 0.70814 0.50528 0.62155 0.0
C4079 C 0.68486 0.54088 0.6454 0.0
N4080 N 0.71826 0.53229 0.60958 0.0
N4081 N 0.70133 0.55405 0.62258 0.0
N4082 N 0.69015 0.51027 0.64682 0.0
H4083 H 0.72754 0.47349 0.5891 0.0
H4084 H 0.68964 0.48438 0.5813 0.0
H4085 H 0.69589 0.45753 0.612 0.0
C4086 C 0.70519 0.47812 0.60052 0.0
C4087 C 0.84182 0.59731 0.69926 0.0
H4088 H 0.84009 0.61333 0.67939 0.0
H4089 H 0.8613 0.60395 0.714 0.0
H4090 H 0.82114 0.59834 0.71358 0.0
O4091 O 0.78492 0.58128 0.676 0.0
O4092 O 0.74439 0.55545 0.66385 0.0
C4093 C 0.7884 0.60718 0.61839 0.0
O4094 O 0.76802 0.49404 0.63439 0.0
O4095 O 0.80499 0.51104 0.66338 0.0
Zn4096 Zn 0.3574 0.94465 0.18875 0.0
O4097 O 0.37906 0.90384 0.18311 0.0
C4098 C 0.31938 0.91909 0.24123 0.0
Zn4099 Zn 0.37564 0.95723 0.23288 0.0
C4100 C 0.37886 0.89006 0.20885 0.0
O4101 O 0.38385 0.90586 0.23343 0.0
C4102 C 0.3462 0.00859 0.20612 0.0
O4103 O 0.41988 0.97744 0.21114 0.0
O4104 O 0.39368 0.9728 0.16827 0.0
N4105 N 0.38768 0.96496 0.27899 0.0
C4106 C 0.3757 0.99197 0.28911 0.0
C4107 C 0.35186 0.95637 0.31239 0.0
N4108 N 0.37467 0.9432 0.29592 0.0
N4109 N 0.35044 0.98698 0.3071 0.0
C4110 C 0.30828 0.93237 0.15186 0.0
C4111 C 0.30835 0.97721 0.1327 0.0
N4112 N 0.3377 0.93995 0.14681 0.0
N4113 N 0.3376 0.96698 0.13269 0.0
N4114 N 0.28973 0.95647 0.14645 0.0
H4115 H 0.31786 0.88393 0.15717 0.0
H4116 H 0.28324 0.89331 0.13596 0.0
H4117 H 0.28367 0.89892 0.17611 0.0
C4118 C 0.29799 0.89994 0.15543 0.0
C4119 C 0.39673 0.01913 0.29206 0.0
H4120 H 0.40816 0.02376 0.26971 0.0
H4121 H 0.41595 0.01287 0.30762 0.0
H4122 H 0.38525 0.03971 0.30136 0.0
O4123 O 0.36287 0.00321 0.22923 0.0
O4124 O 0.33387 0.98621 0.19226 0.0
C4125 C 0.416 0.98542 0.18276 0.0
O4126 O 0.32125 0.91598 0.21233 0.0
O4127 O 0.3334 0.9418 0.25286 0.0
Zn4128 Zn 0.0526 0.6074 0.93875 0.0
O4129 O 0.09341 0.62905 0.93311 0.0
C4130 C 0.07816 0.56938 0.99123 0.0
Zn4131 Zn 0.04003 0.62563 0.98288 0.0
C4132 C 0.10719 0.62886 0.95885 0.0
O4133 O 0.09139 0.63385 0.98343 0.0
C4134 C 0.98865 0.5962 0.95613 0.0
O4135 O 0.01982 0.66987 0.96115 0.0
O4136 O 0.02445 0.64367 0.91827 0.0
N4137 N 0.0323 0.63767 0.02899 0.0
C4138 C 0.00529 0.6257 0.03911 0.0
C4139 C 0.04089 0.60186 0.0624 0.0
N4140 N 0.05406 0.62467 0.04592 0.0
N4141 N 0.01028 0.60044 0.05712 0.0
C4142 C 0.06487 0.55827 0.90187 0.0
C4143 C 0.02004 0.55834 0.8827 0.0
N4144 N 0.0573 0.58769 0.89682 0.0
N4145 N 0.03026 0.5876 0.88269 0.0
N4146 N 0.04077 0.53972 0.89646 0.0
H4147 H 0.11332 0.56784 0.90716 0.0
H4148 H 0.10393 0.53321 0.88597 0.0
H4149 H 0.09832 0.53366 0.92613 0.0
C4150 C 0.0973 0.54797 0.90544 0.0
C4151 C 0.97812 0.64673 0.04206 0.0
H4152 H 0.97351 0.65815 0.01971 0.0
H4153 H 0.98438 0.66595 0.05761 0.0
H4154 H 0.95754 0.63525 0.05135 0.0
O4155 O 0.99404 0.61286 0.97924 0.0
O4156 O 0.01104 0.58387 0.94227 0.0
C4157 C 0.01182 0.66599 0.93277 0.0
O4158 O 0.08128 0.57125 0.96234 0.0
O4159 O 0.05545 0.5834 0.00286 0.0
Zn4160 Zn 0.37162 0.29003 0.73288 0.0
O4161 O 0.32738 0.26982 0.71114 0.0
C4162 C 0.40106 0.23866 0.70613 0.0
Zn4163 Zn 0.38986 0.3026 0.68875 0.0
C4164 C 0.33126 0.26183 0.68276 0.0
O4165 O 0.35358 0.27445 0.66827 0.0
C4166 C 0.42786 0.32817 0.74123 0.0
O4167 O 0.3682 0.34341 0.68311 0.0
O4168 O 0.3634 0.34139 0.73343 0.0
N4169 N 0.40957 0.3073 0.64682 0.0
C4170 C 0.43898 0.31487 0.65188 0.0
C4171 C 0.43891 0.27004 0.63271 0.0
N4172 N 0.40966 0.28027 0.63269 0.0
N4173 N 0.45754 0.29077 0.64646 0.0
C4174 C 0.37154 0.25528 0.78911 0.0
C4175 C 0.39539 0.29088 0.8124 0.0
N4176 N 0.35957 0.28229 0.77899 0.0
N4177 N 0.37257 0.30405 0.79592 0.0
N4178 N 0.39681 0.26028 0.8071 0.0
H4179 H 0.33909 0.22349 0.76971 0.0
H4180 H 0.33129 0.23438 0.80761 0.0
H4181 H 0.362 0.20754 0.80136 0.0
C4182 C 0.35051 0.22812 0.79206 0.0
C4183 C 0.44929 0.3473 0.65545 0.0
H4184 H 0.42942 0.36332 0.65718 0.0
H4185 H 0.46404 0.35393 0.63597 0.0
H4186 H 0.4636 0.34832 0.67613 0.0
O4187 O 0.426 0.33128 0.71234 0.0
O4188 O 0.41385 0.30546 0.75287 0.0
C4189 C 0.36839 0.35719 0.70885 0.0
O4190 O 0.38438 0.24404 0.72923 0.0
O4191 O 0.41338 0.26105 0.69227 0.0
Zn4192 Zn 0.70722 0.62162 0.48289 0.0
O4193 O 0.72744 0.57738 0.46115 0.0
C4194 C 0.7586 0.65105 0.45614 0.0
Zn4195 Zn 0.69466 0.63985 0.43876 0.0
C4196 C 0.73543 0.58127 0.43277 0.0
O4197 O 0.72281 0.60358 0.41827 0.0
C4198 C 0.66908 0.67786 0.49124 0.0
O4199 O 0.65384 0.6182 0.43311 0.0
O4200 O 0.65586 0.6134 0.48343 0.0
N4201 N 0.68995 0.65957 0.39682 0.0
C4202 C 0.68239 0.68898 0.40189 0.0
C4203 C 0.72722 0.68891 0.38273 0.0
N4204 N 0.71699 0.65966 0.3827 0.0
N4205 N 0.7065 0.70753 0.3965 0.0
C4206 C 0.74196 0.62154 0.53912 0.0
C4207 C 0.70636 0.64538 0.56241 0.0
N4208 N 0.71495 0.60957 0.529 0.0
N4209 N 0.69319 0.62257 0.54593 0.0
N4210 N 0.73697 0.6468 0.55712 0.0
H4211 H 0.77374 0.58909 0.51971 0.0
H4212 H 0.76287 0.5813 0.55762 0.0
H4213 H 0.78971 0.612 0.55136 0.0
C4214 C 0.76913 0.60051 0.54206 0.0
C4215 C 0.64996 0.69929 0.40545 0.0
H4216 H 0.63393 0.67943 0.40717 0.0
H4217 H 0.64335 0.71405 0.38597 0.0
H4218 H 0.64893 0.71361 0.42614 0.0
O4219 O 0.66597 0.676 0.46234 0.0
O4220 O 0.69179 0.66384 0.50287 0.0
C4221 C 0.64007 0.61839 0.45885 0.0
O4222 O 0.75321 0.63439 0.47925 0.0
O4223 O 0.73621 0.66338 0.44228 0.0
Zn4224 Zn 0.3574 0.8026 0.5585 0.0
O4225 O 0.37906 0.84341 0.56414 0.0
C4226 C 0.31938 0.82817 0.50602 0.0
Zn4227 Zn 0.37563 0.79003 0.51437 0.0
C4228 C 0.37886 0.85719 0.53841 0.0
O4229 O 0.38385 0.84139 0.51382 0.0
C4230 C 0.34619 0.73866 0.54113 0.0
O4231 O 0.41987 0.76982 0.53611 0.0
O4232 O 0.39367 0.77445 0.57898 0.0
N4233 N 0.38768 0.7823 0.46826 0.0
C4234 C 0.3757 0.75529 0.45814 0.0
C4235 C 0.35186 0.79089 0.43486 0.0
N4236 N 0.37467 0.80406 0.45133 0.0
N4237 N 0.35044 0.76028 0.44015 0.0
C4238 C 0.30828 0.81488 0.59538 0.0
C4239 C 0.30835 0.77004 0.61455 0.0
N4240 N 0.33769 0.8073 0.60044 0.0
N4241 N 0.3376 0.78027 0.61456 0.0
N4242 N 0.28972 0.79078 0.6008 0.0
H4243 H 0.31784 0.86333 0.5901 0.0
H4244 H 0.28321 0.85393 0.61129 0.0
H4245 H 0.28367 0.84833 0.57113 0.0
C4246 C 0.29797 0.8473 0.59182 0.0
C4247 C 0.39673 0.72813 0.45519 0.0
H4248 H 0.40816 0.7235 0.47754 0.0
H4249 H 0.41595 0.73439 0.43963 0.0
H4250 H 0.38525 0.70754 0.44589 0.0
O4251 O 0.36286 0.74405 0.51802 0.0
O4252 O 0.33387 0.76105 0.55499 0.0
C4253 C 0.41599 0.76183 0.56448 0.0
O4254 O 0.32125 0.83128 0.53492 0.0
O4255 O 0.3334 0.80546 0.49439 0.0
Zn4256 Zn 0.20723 0.62563 0.26437 0.0
O4257 O 0.22744 0.66988 0.2861 0.0
C4258 C 0.2586 0.59621 0.29113 0.0
Zn4259 Zn 0.19466 0.60741 0.3085 0.0
C4260 C 0.23542 0.666 0.31449 0.0
O4261 O 0.2228 0.64368 0.32898 0.0
C4262 C 0.16909 0.56938 0.25603 0.0
O4263 O 0.15384 0.62906 0.31414 0.0
O4264 O 0.15586 0.63385 0.26382 0.0
N4265 N 0.18996 0.58771 0.35044 0.0
C4266 C 0.18238 0.55829 0.34539 0.0
C4267 C 0.22721 0.55835 0.36456 0.0
N4268 N 0.21699 0.58761 0.36456 0.0
N4269 N 0.20647 0.53973 0.35081 0.0
C4270 C 0.24197 0.6257 0.20814 0.0
C4271 C 0.20637 0.60186 0.18485 0.0
N4272 N 0.21496 0.63768 0.21826 0.0
N4273 N 0.1932 0.62467 0.20133 0.0
N4274 N 0.23698 0.60044 0.19014 0.0
H4275 H 0.27376 0.65815 0.22755 0.0
H4276 H 0.26288 0.66595 0.18964 0.0
H4277 H 0.28972 0.63525 0.19589 0.0
C4278 C 0.26914 0.64673 0.20519 0.0
C4279 C 0.14995 0.548 0.34182 0.0
H4280 H 0.13394 0.56787 0.34009 0.0
H4281 H 0.14331 0.53325 0.3613 0.0
H4282 H 0.14892 0.53368 0.32114 0.0
O4283 O 0.16599 0.57125 0.28492 0.0
O4284 O 0.1918 0.5834 0.24439 0.0
C4285 C 0.14007 0.62886 0.2884 0.0
O4286 O 0.25322 0.61287 0.26802 0.0
O4287 O 0.23622 0.58388 0.30499 0.0
Zn4288 Zn 0.38986 0.44465 0.0585 0.0
O4289 O 0.3682 0.40384 0.06414 0.0
C4290 C 0.42787 0.41908 0.00601 0.0
Zn4291 Zn 0.37162 0.45722 0.01437 0.0
C4292 C 0.36839 0.39006 0.0384 0.0
O4293 O 0.3634 0.40586 0.01382 0.0
C4294 C 0.40105 0.5086 0.04112 0.0
O4295 O 0.32738 0.47743 0.03611 0.0
O4296 O 0.35358 0.4728 0.07898 0.0
N4297 N 0.35957 0.46496 0.96825 0.0
C4298 C 0.37155 0.49196 0.95814 0.0
C4299 C 0.39539 0.45636 0.93485 0.0
N4300 N 0.37257 0.44319 0.95133 0.0
N4301 N 0.39681 0.48697 0.94014 0.0
C4302 C 0.43899 0.43239 0.09536 0.0
C4303 C 0.43891 0.47722 0.11453 0.0
N4304 N 0.40957 0.43995 0.10043 0.0
N4305 N 0.40966 0.46698 0.11456 0.0
N4306 N 0.45753 0.4565 0.10075 0.0
H4307 H 0.42945 0.38393 0.0901 0.0
H4308 H 0.46409 0.39336 0.11126 0.0
H4309 H 0.46361 0.39893 0.0711 0.0
C4310 C 0.44931 0.39996 0.0918 0.0
C4311 C 0.35052 0.51913 0.95519 0.0
H4312 H 0.33909 0.52374 0.97754 0.0
H4313 H 0.3313 0.51287 0.93963 0.0
H4314 H 0.362 0.53971 0.9459 0.0
O4315 O 0.38439 0.50321 0.01801 0.0
O4316 O 0.41338 0.48621 0.05498 0.0
C4317 C 0.33127 0.48542 0.06449 0.0
O4318 O 0.426 0.41597 0.03491 0.0
O4319 O 0.41385 0.44179 0.99438 0.0
Zn4320 Zn 0.54003 0.62162 0.76437 0.0
O4321 O 0.51982 0.57738 0.78611 0.0
C4322 C 0.48866 0.65106 0.79113 0.0
Zn4323 Zn 0.5526 0.63986 0.8085 0.0
C4324 C 0.51183 0.58126 0.81449 0.0
O4325 O 0.52445 0.60358 0.82898 0.0
C4326 C 0.57817 0.67787 0.75602 0.0
O4327 O 0.59341 0.6182 0.81414 0.0
O4328 O 0.59139 0.6134 0.76382 0.0
N4329 N 0.55731 0.65956 0.85044 0.0
C4330 C 0.56488 0.68898 0.84538 0.0
C4331 C 0.52005 0.68891 0.86455 0.0
N4332 N 0.53027 0.65966 0.86456 0.0
N4333 N 0.54078 0.70753 0.85079 0.0
C4334 C 0.50528 0.62155 0.70814 0.0
C4335 C 0.54088 0.64539 0.68485 0.0
N4336 N 0.53229 0.60958 0.71826 0.0
N4337 N 0.55405 0.62258 0.70133 0.0
N4338 N 0.51028 0.64681 0.69014 0.0
H4339 H 0.4735 0.5891 0.72755 0.0
H4340 H 0.48438 0.5813 0.68964 0.0
H4341 H 0.45754 0.612 0.69589 0.0
C4342 C 0.47812 0.60052 0.70519 0.0
C4343 C 0.5973 0.69929 0.84181 0.0
H4344 H 0.61333 0.67942 0.84009 0.0
H4345 H 0.60393 0.71405 0.86128 0.0
H4346 H 0.59833 0.7136 0.82112 0.0
O4347 O 0.58128 0.676 0.78492 0.0
O4348 O 0.55546 0.66385 0.74439 0.0
C4349 C 0.60719 0.61839 0.7884 0.0
O4350 O 0.49405 0.63439 0.76802 0.0
O4351 O 0.51105 0.66338 0.80499 0.0
Zn4352 Zn 0.18875 0.8574 0.44465 0.0
O4353 O 0.18311 0.87905 0.40384 0.0
C4354 C 0.24123 0.81938 0.41909 0.0
Zn4355 Zn 0.23288 0.87563 0.45723 0.0
C4356 C 0.20885 0.87886 0.39007 0.0
O4357 O 0.23343 0.88385 0.40586 0.0
C4358 C 0.20612 0.84619 0.50859 0.0
O4359 O 0.21114 0.91987 0.47743 0.0
O4360 O 0.16827 0.89367 0.4728 0.0
N4361 N 0.27899 0.88768 0.46496 0.0
C4362 C 0.28911 0.8757 0.49197 0.0
C4363 C 0.3124 0.85186 0.45637 0.0
N4364 N 0.29592 0.87468 0.4432 0.0
N4365 N 0.30711 0.85045 0.48698 0.0
C4366 C 0.15187 0.80827 0.43238 0.0
C4367 C 0.1327 0.80834 0.47721 0.0
N4368 N 0.14681 0.83769 0.43995 0.0
N4369 N 0.13269 0.83759 0.46698 0.0
N4370 N 0.14646 0.78972 0.45648 0.0
H4371 H 0.15716 0.81783 0.38393 0.0
H4372 H 0.13597 0.7832 0.39333 0.0
H4373 H 0.17613 0.78365 0.39893 0.0
C4374 C 0.15544 0.79796 0.39995 0.0
C4375 C 0.29206 0.89674 0.51913 0.0
H4376 H 0.2697 0.90815 0.52376 0.0
H4377 H 0.30761 0.91596 0.51287 0.0
H4378 H 0.30136 0.88526 0.53972 0.0
O4379 O 0.22923 0.86287 0.50321 0.0
O4380 O 0.19226 0.83387 0.48621 0.0
C4381 C 0.18276 0.91599 0.48542 0.0
O4382 O 0.21233 0.82125 0.41598 0.0
O4383 O 0.25286 0.8334 0.4418 0.0
Zn4384 Zn 0.73288 0.87162 0.79003 0.0
O4385 O 0.71115 0.82738 0.76981 0.0
C4386 C 0.70613 0.90105 0.73865 0.0
Zn4387 Zn 0.68875 0.88985 0.8026 0.0
C4388 C 0.68277 0.83126 0.76182 0.0
O4389 O 0.66827 0.85357 0.77445 0.0
C4390 C 0.74123 0.92787 0.82817 0.0
O4391 O 0.68311 0.86819 0.84341 0.0
O4392 O 0.73343 0.8634 0.84139 0.0
N4393 N 0.64681 0.90955 0.80729 0.0
C4394 C 0.65187 0.93897 0.81488 0.0
C4395 C 0.6327 0.9389 0.77004 0.0
N4396 N 0.63269 0.90965 0.78026 0.0
N4397 N 0.64645 0.95753 0.79078 0.0
C4398 C 0.78911 0.87155 0.75529 0.0
C4399 C 0.8124 0.89539 0.79088 0.0
N4400 N 0.779 0.85957 0.78229 0.0
N4401 N 0.79592 0.87258 0.80406 0.0
N4402 N 0.80712 0.89681 0.76028 0.0
H4403 H 0.76971 0.83909 0.7235 0.0
H4404 H 0.80762 0.8313 0.73438 0.0
H4405 H 0.80136 0.862 0.70754 0.0
C4406 C 0.79206 0.85052 0.72812 0.0
C4407 C 0.65543 0.94926 0.84731 0.0
H4408 H 0.65717 0.92939 0.86332 0.0
H4409 H 0.63595 0.96401 0.85394 0.0
H4410 H 0.67611 0.96358 0.84834 0.0
O4411 O 0.71233 0.926 0.83127 0.0
O4412 O 0.75286 0.91385 0.80546 0.0
C4413 C 0.70885 0.86839 0.85718 0.0
O4414 O 0.72924 0.88439 0.74404 0.0
O4415 O 0.69227 0.91338 0.76104 0.0
Zn4416 Zn 0.12564 0.98289 0.54003 0.0
O4417 O 0.16987 0.96114 0.51982 0.0
C4418 C 0.09619 0.95614 0.48866 0.0
Zn4419 Zn 0.10739 0.93876 0.5526 0.0
C4420 C 0.16598 0.93277 0.51182 0.0
O4421 O 0.14367 0.91827 0.52444 0.0
C4422 C 0.06939 0.99124 0.57817 0.0
O4423 O 0.12905 0.93311 0.59341 0.0
O4424 O 0.13385 0.98343 0.59139 0.0
N4425 N 0.08768 0.89682 0.5573 0.0
C4426 C 0.05826 0.9019 0.56486 0.0
C4427 C 0.05834 0.88273 0.52003 0.0
N4428 N 0.08758 0.8827 0.53027 0.0
N4429 N 0.03971 0.89651 0.54075 0.0
C4430 C 0.12572 0.03912 0.50529 0.0
C4431 C 0.10187 0.0624 0.54089 0.0
N4432 N 0.13769 0.029 0.5323 0.0
N4433 N 0.12469 0.04592 0.55406 0.0
N4434 N 0.10045 0.05711 0.51029 0.0
H4435 H 0.15817 0.01972 0.47351 0.0
H4436 H 0.16596 0.05763 0.48439 0.0
H4437 H 0.13526 0.05136 0.45754 0.0
C4438 C 0.14674 0.04207 0.47813 0.0
C4439 C 0.04794 0.90546 0.59728 0.0
H4440 H 0.0678 0.90717 0.61332 0.0
H4441 H 0.03317 0.88599 0.6039 0.0
H4442 H 0.03363 0.92615 0.59831 0.0
O4443 O 0.07126 0.96234 0.58128 0.0
O4444 O 0.08341 0.00287 0.55546 0.0
C4445 C 0.12886 0.95884 0.60718 0.0
O4446 O 0.11287 0.97925 0.49404 0.0
O4447 O 0.08387 0.94228 0.51105 0.0
Zn4448 Zn 0.0585 0.35739 0.3026 0.0
O4449 O 0.06414 0.37905 0.34341 0.0
C4450 C 0.00602 0.31938 0.32817 0.0
Zn4451 Zn 0.01437 0.37563 0.29003 0.0
C4452 C 0.0384 0.37886 0.35718 0.0
O4453 O 0.01381 0.38385 0.34139 0.0
C4454 C 0.04112 0.34619 0.23866 0.0
O4455 O 0.0361 0.41987 0.26982 0.0
O4456 O 0.07897 0.39367 0.27445 0.0
N4457 N 0.96825 0.38768 0.28229 0.0
C4458 C 0.95814 0.3757 0.25529 0.0
C4459 C 0.93485 0.35186 0.29088 0.0
N4460 N 0.95133 0.37467 0.30406 0.0
N4461 N 0.94013 0.35044 0.26028 0.0
C4462 C 0.09537 0.30827 0.31487 0.0
C4463 C 0.11454 0.30834 0.27004 0.0
N4464 N 0.10043 0.33769 0.3073 0.0
N4465 N 0.11456 0.3376 0.28027 0.0
N4466 N 0.10079 0.28972 0.29077 0.0
H4467 H 0.09008 0.31782 0.36332 0.0
H4468 H 0.11127 0.2832 0.35392 0.0
H4469 H 0.07112 0.28365 0.34832 0.0
C4470 C 0.0918 0.29796 0.34729 0.0
C4471 C 0.95519 0.39673 0.22812 0.0
H4472 H 0.97754 0.40815 0.2235 0.0
H4473 H 0.93964 0.41595 0.23438 0.0
H4474 H 0.94589 0.38525 0.20754 0.0
O4475 O 0.01801 0.36286 0.24405 0.0
O4476 O 0.05498 0.33386 0.26105 0.0
C4477 C 0.06448 0.41598 0.26182 0.0
O4478 O 0.03491 0.32125 0.33128 0.0
O4479 O 0.99438 0.3334 0.30546 0.0
Zn4480 Zn 0.12162 0.76437 0.04003 0.0
O4481 O 0.07738 0.78611 0.01981 0.0
C4482 C 0.15106 0.79112 0.98866 0.0
Zn4483 Zn 0.13986 0.8085 0.0526 0.0
C4484 C 0.08127 0.81448 0.01182 0.0
O4485 O 0.10359 0.82898 0.02445 0.0
C4486 C 0.17787 0.75601 0.07817 0.0
O4487 O 0.1182 0.81414 0.09341 0.0
O4488 O 0.1134 0.76382 0.09139 0.0
N4489 N 0.15957 0.85043 0.0573 0.0
C4490 C 0.18899 0.84536 0.06487 0.0
C4491 C 0.18891 0.86453 0.02003 0.0
N4492 N 0.15966 0.86456 0.03027 0.0
N4493 N 0.20753 0.85075 0.04075 0.0
C4494 C 0.12155 0.70813 0.00529 0.0
C4495 C 0.14539 0.68485 0.04089 0.0
N4496 N 0.10958 0.71825 0.03229 0.0
N4497 N 0.12258 0.70133 0.05406 0.0
N4498 N 0.14681 0.69013 0.01028 0.0
H4499 H 0.08909 0.72754 0.97351 0.0
H4500 H 0.0813 0.68963 0.98438 0.0
H4501 H 0.112 0.69589 0.95754 0.0
C4502 C 0.10052 0.70519 0.97812 0.0
C4503 C 0.19931 0.8418 0.09729 0.0
H4504 H 0.17945 0.84009 0.11332 0.0
H4505 H 0.21407 0.86127 0.1039 0.0
H4506 H 0.21362 0.82111 0.09832 0.0
O4507 O 0.176 0.78491 0.08128 0.0
O4508 O 0.16385 0.74438 0.05546 0.0
C4509 C 0.11839 0.7884 0.10719 0.0
O4510 O 0.13439 0.76801 0.99404 0.0
O4511 O 0.16339 0.80498 0.01105 0.0
Zn4512 Zn 0.51437 0.87162 0.45722 0.0
O4513 O 0.53611 0.82738 0.47743 0.0
C4514 C 0.54112 0.90106 0.50859 0.0
Zn4515 Zn 0.5585 0.88986 0.44465 0.0
C4516 C 0.56449 0.83127 0.48543 0.0
O4517 O 0.57898 0.85358 0.47281 0.0
C4518 C 0.50602 0.92786 0.41908 0.0
O4519 O 0.56415 0.8682 0.40384 0.0
O4520 O 0.51382 0.8634 0.40586 0.0
N4521 N 0.60043 0.90957 0.43995 0.0
C4522 C 0.59536 0.93899 0.43239 0.0
C4523 C 0.61453 0.93892 0.47722 0.0
N4524 N 0.61456 0.90967 0.46698 0.0
N4525 N 0.60075 0.95754 0.4565 0.0
C4526 C 0.45814 0.87154 0.49196 0.0
C4527 C 0.43485 0.89539 0.45637 0.0
N4528 N 0.46826 0.85957 0.46496 0.0
N4529 N 0.45133 0.87257 0.44319 0.0
N4530 N 0.44014 0.89681 0.48697 0.0
H4531 H 0.47754 0.83909 0.52375 0.0
H4532 H 0.43963 0.8313 0.51287 0.0
H4533 H 0.44589 0.862 0.53971 0.0
C4534 C 0.45519 0.85051 0.51913 0.0
C4535 C 0.5918 0.9493 0.39996 0.0
H4536 H 0.59009 0.92944 0.38393 0.0
H4537 H 0.61127 0.96406 0.39335 0.0
H4538 H 0.57111 0.96361 0.39893 0.0
O4539 O 0.53491 0.926 0.41597 0.0
O4540 O 0.49438 0.91384 0.4418 0.0
C4541 C 0.53841 0.86839 0.39007 0.0
O4542 O 0.51801 0.88438 0.50321 0.0
O4543 O 0.55498 0.91339 0.48621 0.0
Zn4544 Zn 0.1074 0.3085 0.69465 0.0
O4545 O 0.12905 0.31414 0.65384 0.0
C4546 C 0.06938 0.25602 0.66908 0.0
Zn4547 Zn 0.12563 0.26437 0.70722 0.0
C4548 C 0.12886 0.2884 0.64006 0.0
O4549 O 0.13385 0.26382 0.65586 0.0
C4550 C 0.09619 0.29113 0.75859 0.0
O4551 O 0.16987 0.28611 0.72744 0.0
O4552 O 0.14367 0.32898 0.7228 0.0
N4553 N 0.13767 0.21826 0.71496 0.0
C4554 C 0.1257 0.20814 0.74196 0.0
C4555 C 0.10186 0.18485 0.70637 0.0
N4556 N 0.12467 0.20133 0.69319 0.0
N4557 N 0.10044 0.19014 0.73697 0.0
C4558 C 0.05827 0.34538 0.68238 0.0
C4559 C 0.05835 0.36455 0.72721 0.0
N4560 N 0.08769 0.35044 0.68995 0.0
N4561 N 0.0876 0.36456 0.71698 0.0
N4562 N 0.03972 0.3508 0.70648 0.0
H4563 H 0.06783 0.34009 0.63393 0.0
H4564 H 0.03321 0.36128 0.64332 0.0
H4565 H 0.03365 0.32112 0.64893 0.0
C4566 C 0.04797 0.34181 0.64995 0.0
C4567 C 0.14673 0.20519 0.76913 0.0
H4568 H 0.15815 0.22754 0.77375 0.0
H4569 H 0.16595 0.18964 0.76286 0.0
H4570 H 0.13525 0.19589 0.78971 0.0
O4571 O 0.11286 0.26802 0.75321 0.0
O4572 O 0.08387 0.30499 0.7362 0.0
C4573 C 0.16598 0.31449 0.73543 0.0
O4574 O 0.07125 0.28492 0.66597 0.0
O4575 O 0.0834 0.24439 0.69179 0.0
Zn4576 Zn 0.63986 0.93876 0.19465 0.0
O4577 O 0.6182 0.93311 0.15384 0.0
C4578 C 0.67787 0.99124 0.16908 0.0
Zn4579 Zn 0.62162 0.98288 0.20722 0.0
C4580 C 0.61839 0.95884 0.14007 0.0
O4581 O 0.6134 0.98343 0.15586 0.0
C4582 C 0.65107 0.95614 0.25859 0.0
O4583 O 0.57738 0.96114 0.22743 0.0
O4584 O 0.60359 0.91827 0.22281 0.0
N4585 N 0.60957 0.029 0.21495 0.0
C4586 C 0.62154 0.03912 0.24196 0.0
C4587 C 0.64538 0.06241 0.20636 0.0
N4588 N 0.62257 0.04592 0.19319 0.0
N4589 N 0.6468 0.05712 0.23697 0.0
C4590 C 0.689 0.9019 0.18239 0.0
C4591 C 0.68891 0.88273 0.22722 0.0
N4592 N 0.65958 0.89682 0.18995 0.0
N4593 N 0.65967 0.8827 0.21698 0.0
N4594 N 0.70754 0.89651 0.2065 0.0
H4595 H 0.67947 0.90716 0.13393 0.0
H4596 H 0.7141 0.88599 0.14336 0.0
H4597 H 0.71362 0.92615 0.14894 0.0
C4598 C 0.69932 0.90546 0.14997 0.0
C4599 C 0.60051 0.04206 0.26912 0.0
H4600 H 0.58909 0.01971 0.27374 0.0
H4601 H 0.58129 0.05762 0.26287 0.0
H4602 H 0.612 0.05135 0.28971 0.0
O4603 O 0.63439 0.97924 0.25321 0.0
O4604 O 0.66339 0.94228 0.2362 0.0
C4605 C 0.58127 0.93277 0.23543 0.0
O4606 O 0.676 0.96234 0.16596 0.0
O4607 O 0.66385 0.00287 0.19179 0.0
Zn4608 Zn 0.54327 0.76151 0.12209 0.0
O4609 O 0.59227 0.76035 0.10903 0.0
C4610 C 0.58013 0.75654 0.17772 0.0
Zn4611 Zn 0.55036 0.80894 0.13919 0.0
C4612 C 0.6072 0.78426 0.11818 0.0
O4613 O 0.59312 0.80975 0.11937 0.0
C4614 C 0.4883 0.78752 0.15041 0.0
O4615 O 0.52667 0.83166 0.10249 0.0
O4616 O 0.51829 0.78689 0.08088 0.0
N4617 N 0.56377 0.84879 0.16066 0.0
C4618 C 0.54345 0.85474 0.18291 0.0
C4619 C 0.58466 0.84082 0.20498 0.0
N4620 N 0.59034 0.84302 0.17457 0.0
N4621 N 0.55468 0.84642 0.21056 0.0
C4622 C 0.52924 0.69742 0.12976 0.0
C4623 C 0.48229 0.70692 0.12033 0.0
N4624 N 0.52889 0.71801 0.10634 0.0
N4625 N 0.49949 0.72108 0.09858 0.0
N4626 N 0.50059 0.69385 0.14176 0.0
H4627 H 0.57252 0.67747 0.11599 0.0
H4628 H 0.54002 0.65187 0.1149 0.0
H4629 H 0.55572 0.66218 0.15105 0.0
C4630 C 0.55095 0.67087 0.12794 0.0
C4631 C 0.51887 0.87765 0.1778 0.0
H4632 H 0.51041 0.8744 0.15421 0.0
H4633 H 0.52837 0.90126 0.18027 0.0
H4634 H 0.50026 0.87441 0.19423 0.0
O4635 O 0.5053 0.80957 0.15916 0.0
O4636 O 0.50064 0.76347 0.14043 0.0
C4637 C 0.51226 0.81602 0.08219 0.0
O4638 O 0.56471 0.73855 0.16078 0.0
O4639 O 0.57405 0.785 0.17625 0.0
Zn4640 Zn 0.68831 0.80037 0.3892 0.0
O4641 O 0.6656 0.77666 0.3525 0.0
C4642 C 0.70973 0.73831 0.40041 0.0
Zn4643 Zn 0.73574 0.79327 0.37209 0.0
C4644 C 0.68124 0.76227 0.33219 0.0
O4645 O 0.71036 0.7683 0.33088 0.0
C4646 C 0.74071 0.83013 0.42772 0.0
O4647 O 0.7369 0.84227 0.35903 0.0
O4648 O 0.6875 0.84312 0.36938 0.0
N4649 N 0.77924 0.77891 0.35634 0.0
C4650 C 0.79983 0.77925 0.37977 0.0
C4651 C 0.79033 0.73231 0.37034 0.0
N4652 N 0.77619 0.74951 0.34858 0.0
N4653 N 0.80338 0.75061 0.39178 0.0
C4654 C 0.64251 0.79344 0.43291 0.0
C4655 C 0.65643 0.83466 0.45499 0.0
N4656 N 0.64846 0.81376 0.41067 0.0
N4657 N 0.65423 0.84033 0.42458 0.0
N4658 N 0.65083 0.80467 0.46056 0.0
H4659 H 0.62283 0.76042 0.40421 0.0
H4660 H 0.59598 0.77839 0.43028 0.0
H4661 H 0.62282 0.75026 0.44423 0.0
C4662 C 0.61959 0.76887 0.42781 0.0
C4663 C 0.8264 0.80094 0.37795 0.0
H4664 H 0.81981 0.82252 0.366 0.0
H4665 H 0.84539 0.79 0.36491 0.0
H4666 H 0.83508 0.80572 0.40105 0.0
O4667 O 0.75869 0.81472 0.41078 0.0
O4668 O 0.71225 0.82405 0.42626 0.0
C4669 C 0.71299 0.8572 0.36818 0.0
O4670 O 0.68768 0.75531 0.40918 0.0
O4671 O 0.73378 0.75065 0.39042 0.0
Zn4672 Zn 0.70398 0.98574 0.62209 0.0
O4673 O 0.65499 0.9869 0.60903 0.0
C4674 C 0.66713 0.99072 0.67772 0.0
Zn4675 Zn 0.69689 0.93831 0.63919 0.0
C4676 C 0.64006 0.96299 0.61818 0.0
O4677 O 0.65413 0.9375 0.61938 0.0
C4678 C 0.75895 0.95973 0.65042 0.0
O4679 O 0.72059 0.91559 0.6025 0.0
O4680 O 0.72896 0.96036 0.58088 0.0
N4681 N 0.68349 0.89846 0.66067 0.0
C4682 C 0.70381 0.89251 0.68292 0.0
C4683 C 0.6626 0.90644 0.70499 0.0
N4684 N 0.65692 0.90424 0.67458 0.0
N4685 N 0.69258 0.90084 0.71056 0.0
C4686 C 0.71802 0.04983 0.62976 0.0
C4687 C 0.76496 0.04033 0.62033 0.0
N4688 N 0.71836 0.02924 0.60634 0.0
N4689 N 0.74776 0.02618 0.59858 0.0
N4690 N 0.74666 0.0534 0.64176 0.0
H4691 H 0.67474 0.06979 0.61599 0.0
H4692 H 0.70724 0.09539 0.61492 0.0
H4693 H 0.69153 0.08506 0.65105 0.0
C4694 C 0.69631 0.07639 0.62794 0.0
C4695 C 0.72837 0.86958 0.67782 0.0
H4696 H 0.73682 0.87281 0.65422 0.0
H4697 H 0.71885 0.84597 0.68031 0.0
H4698 H 0.74699 0.87282 0.69423 0.0
O4699 O 0.74195 0.93768 0.65918 0.0
O4700 O 0.74661 0.98378 0.64042 0.0
C4701 C 0.73499 0.93123 0.5822 0.0
O4702 O 0.68254 0.0087 0.66078 0.0
O4703 O 0.6732 0.96225 0.67625 0.0
Zn4704 Zn 0.51151 0.95398 0.87209 0.0
O4705 O 0.51035 0.90498 0.85903 0.0
C4706 C 0.50653 0.91712 0.92772 0.0
Zn4707 Zn 0.55893 0.94689 0.8892 0.0
C4708 C 0.53426 0.89006 0.86817 0.0
O4709 O 0.55975 0.90413 0.86937 0.0
C4710 C 0.53751 0.00895 0.90042 0.0
O4711 O 0.58165 0.9706 0.85251 0.0
O4712 O 0.53688 0.97896 0.83088 0.0
N4713 N 0.59879 0.93349 0.91067 0.0
C4714 C 0.60474 0.95382 0.93292 0.0
C4715 C 0.59081 0.9126 0.95499 0.0
N4716 N 0.59301 0.90693 0.92458 0.0
N4717 N 0.59641 0.94258 0.96056 0.0
C4718 C 0.44742 0.96801 0.87976 0.0
C4719 C 0.45692 0.01496 0.87032 0.0
N4720 N 0.46801 0.96835 0.85634 0.0
N4721 N 0.47107 0.99775 0.84858 0.0
N4722 N 0.44385 0.99666 0.89176 0.0
H4723 H 0.42746 0.92473 0.86599 0.0
H4724 H 0.40186 0.95724 0.86492 0.0
H4725 H 0.41219 0.94153 0.90106 0.0
C4726 C 0.42086 0.9463 0.87795 0.0
C4727 C 0.62768 0.97837 0.92782 0.0
H4728 H 0.62446 0.98682 0.90422 0.0
H4729 H 0.65128 0.96884 0.93032 0.0
H4730 H 0.62445 0.99698 0.94424 0.0
O4731 O 0.55956 0.99194 0.90918 0.0
O4732 O 0.51346 0.9966 0.89043 0.0
C4733 C 0.56601 0.985 0.8322 0.0
O4734 O 0.48855 0.93253 0.91078 0.0
O4735 O 0.535 0.9232 0.92625 0.0
Zn4736 Zn 0.55037 0.43831 0.10805 0.0
O4737 O 0.52666 0.41559 0.14474 0.0
C4738 C 0.48831 0.45974 0.09684 0.0
Zn4739 Zn 0.54327 0.48574 0.12517 0.0
C4740 C 0.51226 0.43124 0.16506 0.0
O4741 O 0.5183 0.46036 0.16638 0.0
C4742 C 0.58013 0.49072 0.06953 0.0
O4743 O 0.59228 0.48689 0.13822 0.0
O4744 O 0.59313 0.43749 0.12787 0.0
N4745 N 0.52891 0.52924 0.14092 0.0
C4746 C 0.52925 0.54983 0.11749 0.0
C4747 C 0.48231 0.54033 0.12692 0.0
N4748 N 0.49951 0.52619 0.14868 0.0
N4749 N 0.50061 0.55338 0.10548 0.0
C4750 C 0.54343 0.39252 0.06433 0.0
C4751 C 0.58464 0.40645 0.04225 0.0
N4752 N 0.56375 0.39846 0.08657 0.0
N4753 N 0.59032 0.40423 0.07266 0.0
N4754 N 0.55465 0.40088 0.03668 0.0
H4755 H 0.51045 0.37274 0.09301 0.0
H4756 H 0.52842 0.34597 0.06687 0.0
H4757 H 0.50026 0.37282 0.05301 0.0
C4758 C 0.51889 0.36957 0.06941 0.0
C4759 C 0.55094 0.5764 0.11931 0.0
H4760 H 0.57252 0.56981 0.13127 0.0
H4761 H 0.54 0.59539 0.13235 0.0
H4762 H 0.55572 0.58508 0.09621 0.0
O4763 O 0.56472 0.5087 0.08648 0.0
O4764 O 0.57406 0.46225 0.071 0.0
C4765 C 0.6072 0.46298 0.12907 0.0
O4766 O 0.50531 0.43769 0.08807 0.0
O4767 O 0.50065 0.48378 0.10684 0.0
Zn4768 Zn 0.05894 0.80036 0.35805 0.0
O4769 O 0.08166 0.77666 0.39474 0.0
C4770 C 0.03751 0.73831 0.34683 0.0
Zn4771 Zn 0.01151 0.79327 0.37516 0.0
C4772 C 0.06602 0.76226 0.41505 0.0
O4773 O 0.0369 0.76829 0.41637 0.0
C4774 C 0.00653 0.83013 0.31954 0.0
O4775 O 0.01036 0.84227 0.38823 0.0
O4776 O 0.05976 0.84312 0.37787 0.0
N4777 N 0.96801 0.7789 0.39092 0.0
C4778 C 0.94742 0.77924 0.3675 0.0
C4779 C 0.95692 0.7323 0.37694 0.0
N4780 N 0.97108 0.7495 0.39868 0.0
N4781 N 0.94385 0.75059 0.35551 0.0
C4782 C 0.10472 0.79343 0.31432 0.0
C4783 C 0.09079 0.83464 0.29225 0.0
N4784 N 0.09879 0.81376 0.33657 0.0
N4785 N 0.09301 0.84032 0.32266 0.0
N4786 N 0.09636 0.80465 0.28668 0.0
H4787 H 0.12449 0.76045 0.34302 0.0
H4788 H 0.15128 0.77842 0.31688 0.0
H4789 H 0.12443 0.75026 0.30301 0.0
C4790 C 0.12768 0.76889 0.31941 0.0
C4791 C 0.92087 0.80095 0.36932 0.0
H4792 H 0.92747 0.82252 0.38128 0.0
H4793 H 0.90186 0.79002 0.38235 0.0
H4794 H 0.91219 0.80573 0.34621 0.0
O4795 O 0.98855 0.81472 0.33648 0.0
O4796 O 0.03499 0.82405 0.32101 0.0
C4797 C 0.03427 0.8572 0.37908 0.0
O4798 O 0.05956 0.75531 0.33807 0.0
O4799 O 0.01346 0.75065 0.35683 0.0
Zn4800 Zn 0.69689 0.30894 0.60806 0.0
O4801 O 0.72059 0.33165 0.64475 0.0
C4802 C 0.75895 0.28751 0.59684 0.0
Zn4803 Zn 0.70398 0.26151 0.62517 0.0
C4804 C 0.73499 0.31601 0.66506 0.0
O4805 O 0.72895 0.28689 0.66638 0.0
C4806 C 0.66713 0.25653 0.56953 0.0
O4807 O 0.65498 0.26035 0.63822 0.0
O4808 O 0.65413 0.30975 0.62787 0.0
N4809 N 0.71835 0.21801 0.64092 0.0
C4810 C 0.718 0.19742 0.6175 0.0
C4811 C 0.76495 0.20692 0.62693 0.0
N4812 N 0.74775 0.22107 0.64868 0.0
N4813 N 0.74665 0.19384 0.6055 0.0
C4814 C 0.70381 0.35474 0.56434 0.0
C4815 C 0.6626 0.34082 0.54226 0.0
N4816 N 0.68349 0.34879 0.58658 0.0
N4817 N 0.65692 0.34301 0.57267 0.0
N4818 N 0.69258 0.34642 0.53669 0.0
H4819 H 0.73683 0.37443 0.59304 0.0
H4820 H 0.71886 0.40128 0.56697 0.0
H4821 H 0.74699 0.37444 0.55302 0.0
C4822 C 0.72838 0.37767 0.56945 0.0
C4823 C 0.6963 0.17086 0.61933 0.0
H4824 H 0.67472 0.17746 0.63127 0.0
H4825 H 0.70723 0.15187 0.63239 0.0
H4826 H 0.69153 0.16215 0.59623 0.0
O4827 O 0.68254 0.23855 0.58648 0.0
O4828 O 0.6732 0.285 0.571 0.0
C4829 C 0.64005 0.28425 0.62907 0.0
O4830 O 0.74195 0.30956 0.58808 0.0
O4831 O 0.74661 0.26347 0.60684 0.0
Zn4832 Zn 0.23574 0.95397 0.87517 0.0
O4833 O 0.23689 0.90497 0.88822 0.0
C4834 C 0.24072 0.91712 0.81953 0.0
Zn4835 Zn 0.18831 0.94688 0.85806 0.0
C4836 C 0.21299 0.89005 0.87907 0.0
O4837 O 0.1875 0.90412 0.87787 0.0
C4838 C 0.20974 0.00895 0.84685 0.0
O4839 O 0.16559 0.97058 0.89475 0.0
O4840 O 0.21036 0.97895 0.91638 0.0
N4841 N 0.14847 0.93349 0.83658 0.0
C4842 C 0.14251 0.95381 0.81434 0.0
C4843 C 0.15644 0.9126 0.79226 0.0
N4844 N 0.15424 0.90692 0.82267 0.0
N4845 N 0.15084 0.94258 0.78669 0.0
C4846 C 0.29984 0.96799 0.86751 0.0
C4847 C 0.29034 0.01494 0.87694 0.0
N4848 N 0.27924 0.96834 0.89092 0.0
N4849 N 0.27618 0.99774 0.89868 0.0
N4850 N 0.30341 0.99664 0.85551 0.0
H4851 H 0.31979 0.92471 0.88128 0.0
H4852 H 0.34538 0.95723 0.88239 0.0
H4853 H 0.3351 0.94153 0.84624 0.0
C4854 C 0.3264 0.94629 0.86934 0.0
C4855 C 0.11958 0.97837 0.81944 0.0
H4856 H 0.12281 0.98682 0.84304 0.0
H4857 H 0.09597 0.96884 0.81695 0.0
H4858 H 0.12281 0.99698 0.80302 0.0
O4859 O 0.18769 0.99194 0.83808 0.0
O4860 O 0.23379 0.9966 0.85684 0.0
C4861 C 0.18124 0.98498 0.91506 0.0
O4862 O 0.2587 0.93254 0.83648 0.0
O4863 O 0.21226 0.9232 0.821 0.0
Zn4864 Zn 0.63919 0.55037 0.30894 0.0
O4865 O 0.6025 0.52667 0.33166 0.0
C4866 C 0.65041 0.48831 0.28752 0.0
Zn4867 Zn 0.62209 0.54328 0.26152 0.0
C4868 C 0.5822 0.51227 0.31602 0.0
O4869 O 0.58088 0.5183 0.28689 0.0
C4870 C 0.67772 0.58013 0.25654 0.0
O4871 O 0.60903 0.59227 0.26036 0.0
O4872 O 0.61938 0.59313 0.30976 0.0
N4873 N 0.60633 0.52891 0.21802 0.0
C4874 C 0.62975 0.52925 0.19742 0.0
C4875 C 0.62032 0.48231 0.20692 0.0
N4876 N 0.59857 0.49951 0.22108 0.0
N4877 N 0.64174 0.50061 0.19384 0.0
C4878 C 0.68292 0.54344 0.35474 0.0
C4879 C 0.70499 0.58465 0.34082 0.0
N4880 N 0.66067 0.56376 0.34879 0.0
N4881 N 0.67458 0.59033 0.34302 0.0
N4882 N 0.71057 0.55467 0.34642 0.0
H4883 H 0.65422 0.51043 0.37445 0.0
H4884 H 0.6803 0.52841 0.40128 0.0
H4885 H 0.69423 0.50027 0.37444 0.0
C4886 C 0.67782 0.51888 0.37767 0.0
C4887 C 0.62792 0.55096 0.17086 0.0
H4888 H 0.61598 0.57254 0.17747 0.0
H4889 H 0.61487 0.54003 0.15188 0.0
H4890 H 0.65102 0.55573 0.16217 0.0
O4891 O 0.66078 0.56472 0.23855 0.0
O4892 O 0.67625 0.57406 0.285 0.0
C4893 C 0.61818 0.6072 0.28426 0.0
O4894 O 0.65917 0.50531 0.30957 0.0
O4895 O 0.64042 0.50065 0.26347 0.0
Zn4896 Zn 0.94689 0.8892 0.55893 0.0
O4897 O 0.9706 0.85251 0.58165 0.0
C4898 C 0.00894 0.90043 0.53751 0.0
Zn4899 Zn 0.95398 0.87209 0.51151 0.0
C4900 C 0.98499 0.8322 0.56601 0.0
O4901 O 0.97896 0.83088 0.53689 0.0
C4902 C 0.91711 0.92772 0.50653 0.0
O4903 O 0.90498 0.85903 0.51036 0.0
O4904 O 0.90413 0.86937 0.55975 0.0
N4905 N 0.96835 0.85634 0.46801 0.0
C4906 C 0.96801 0.87976 0.44742 0.0
C4907 C 0.01495 0.87032 0.45692 0.0
N4908 N 0.99775 0.84857 0.47107 0.0
N4909 N 0.99666 0.89175 0.44385 0.0
C4910 C 0.95381 0.93292 0.60474 0.0
C4911 C 0.9126 0.955 0.59081 0.0
N4912 N 0.93349 0.91067 0.59878 0.0
N4913 N 0.90692 0.92459 0.59301 0.0
N4914 N 0.94258 0.96057 0.59641 0.0
H4915 H 0.98682 0.90422 0.62445 0.0
H4916 H 0.96884 0.93031 0.65128 0.0
H4917 H 0.99698 0.94423 0.62445 0.0
C4918 C 0.97837 0.92782 0.62768 0.0
C4919 C 0.9463 0.87795 0.42086 0.0
H4920 H 0.92473 0.86599 0.42746 0.0
H4921 H 0.95724 0.86493 0.40186 0.0
H4922 H 0.94152 0.90106 0.41219 0.0
O4923 O 0.93253 0.91077 0.48855 0.0
O4924 O 0.92319 0.92625 0.53499 0.0
C4925 C 0.89005 0.86817 0.53426 0.0
O4926 O 0.99194 0.90919 0.55956 0.0
O4927 O 0.9966 0.89043 0.51346 0.0
Zn4928 Zn 0.60806 0.19689 0.80893 0.0
O4929 O 0.64475 0.2206 0.83165 0.0
C4930 C 0.59683 0.25895 0.7875 0.0
Zn4931 Zn 0.62517 0.20398 0.76151 0.0
C4932 C 0.66505 0.235 0.81601 0.0
O4933 O 0.66637 0.22896 0.78689 0.0
C4934 C 0.56954 0.16711 0.75653 0.0
O4935 O 0.63823 0.15498 0.76036 0.0
O4936 O 0.62788 0.15413 0.80975 0.0
N4937 N 0.64092 0.21835 0.71801 0.0
C4938 C 0.6175 0.21801 0.69742 0.0
C4939 C 0.62694 0.26495 0.70691 0.0
N4940 N 0.64868 0.24775 0.72107 0.0
N4941 N 0.6055 0.24666 0.69384 0.0
C4942 C 0.56433 0.20382 0.85472 0.0
C4943 C 0.54226 0.16261 0.84079 0.0
N4944 N 0.58658 0.1835 0.84878 0.0
N4945 N 0.57267 0.15693 0.84301 0.0
N4946 N 0.53669 0.1926 0.84636 0.0
H4947 H 0.59301 0.23681 0.8745 0.0
H4948 H 0.56687 0.21883 0.90128 0.0
H4949 H 0.55301 0.24699 0.87442 0.0
C4950 C 0.56941 0.22836 0.87768 0.0
C4951 C 0.61931 0.19629 0.67087 0.0
H4952 H 0.63127 0.17472 0.67747 0.0
H4953 H 0.63233 0.20722 0.65186 0.0
H4954 H 0.5962 0.19152 0.66221 0.0
O4955 O 0.58648 0.18253 0.73854 0.0
O4956 O 0.57101 0.1732 0.78499 0.0
C4957 C 0.62908 0.14006 0.78426 0.0
O4958 O 0.58807 0.24194 0.80955 0.0
O4959 O 0.60683 0.2466 0.76346 0.0
Zn4960 Zn 0.30036 0.85806 0.05894 0.0
O4961 O 0.27665 0.89475 0.08165 0.0
C4962 C 0.23831 0.84683 0.03751 0.0
Zn4963 Zn 0.29327 0.87516 0.01151 0.0
C4964 C 0.26226 0.91506 0.06601 0.0
O4965 O 0.26829 0.91637 0.03689 0.0
C4966 C 0.33014 0.81954 0.00654 0.0
O4967 O 0.34227 0.88823 0.01036 0.0
O4968 O 0.34312 0.87788 0.05976 0.0
N4969 N 0.27891 0.89091 0.96801 0.0
C4970 C 0.27925 0.86749 0.94742 0.0
C4971 C 0.2323 0.87693 0.95692 0.0
N4972 N 0.24951 0.89868 0.97107 0.0
N4973 N 0.2506 0.8555 0.94384 0.0
C4974 C 0.29344 0.81433 0.10474 0.0
C4975 C 0.33465 0.79226 0.09082 0.0
N4976 N 0.31376 0.83658 0.09879 0.0
N4977 N 0.34033 0.82268 0.09302 0.0
N4978 N 0.30467 0.78669 0.09642 0.0
H4979 H 0.26043 0.84303 0.12446 0.0
H4980 H 0.27841 0.81694 0.15128 0.0
H4981 H 0.25027 0.80302 0.12444 0.0
C4982 C 0.26888 0.81943 0.12768 0.0
C4983 C 0.30096 0.86931 0.92087 0.0
H4984 H 0.32253 0.88126 0.92746 0.0
H4985 H 0.29002 0.88234 0.90186 0.0
H4986 H 0.30573 0.8462 0.91219 0.0
O4987 O 0.31472 0.83648 0.98855 0.0
O4988 O 0.32406 0.821 0.035 0.0
C4989 C 0.3572 0.87908 0.03426 0.0
O4990 O 0.25531 0.83807 0.05956 0.0
O4991 O 0.25065 0.85683 0.01347 0.0
Zn4992 Zn 0.62209 0.70398 0.98574 0.0
O4993 O 0.60902 0.65498 0.98689 0.0
C4994 C 0.67772 0.66711 0.99072 0.0
Zn4995 Zn 0.6392 0.69688 0.93831 0.0
C4996 C 0.61817 0.64005 0.96299 0.0
O4997 O 0.61938 0.65413 0.9375 0.0
C4998 C 0.65043 0.75894 0.95974 0.0
O4999 O 0.60251 0.7206 0.91559 0.0
O5000 O 0.58089 0.72896 0.96036 0.0
N5001 N 0.66068 0.68349 0.89847 0.0
C5002 C 0.68292 0.70381 0.89251 0.0
C5003 C 0.705 0.6626 0.90644 0.0
N5004 N 0.67459 0.65692 0.90424 0.0
N5005 N 0.71057 0.69259 0.90084 0.0
C5006 C 0.62976 0.71801 0.04983 0.0
C5007 C 0.62032 0.76495 0.04033 0.0
N5008 N 0.60634 0.71835 0.02924 0.0
N5009 N 0.59857 0.74775 0.02617 0.0
N5010 N 0.64175 0.74666 0.0534 0.0
H5011 H 0.61599 0.67472 0.06979 0.0
H5012 H 0.61492 0.70723 0.09539 0.0
H5013 H 0.65105 0.69152 0.08505 0.0
C5014 C 0.62795 0.6963 0.07638 0.0
C5015 C 0.67781 0.72837 0.86958 0.0
H5016 H 0.65422 0.73682 0.87281 0.0
H5017 H 0.68029 0.71884 0.84597 0.0
H5018 H 0.69423 0.74698 0.87281 0.0
O5019 O 0.65919 0.74194 0.93769 0.0
O5020 O 0.64043 0.7466 0.98379 0.0
C5021 C 0.5822 0.73499 0.93123 0.0
O5022 O 0.66077 0.68252 0.0087 0.0
O5023 O 0.67625 0.67319 0.96226 0.0
Zn5024 Zn 0.79327 0.87209 0.23574 0.0
O5025 O 0.84227 0.85902 0.23689 0.0
C5026 C 0.83014 0.92771 0.24072 0.0
Zn5027 Zn 0.80037 0.8892 0.18831 0.0
C5028 C 0.8572 0.86817 0.21299 0.0
O5029 O 0.84312 0.86938 0.18749 0.0
C5030 C 0.73831 0.90042 0.20975 0.0
O5031 O 0.77665 0.85251 0.16559 0.0
O5032 O 0.76829 0.83088 0.21036 0.0
N5033 N 0.81376 0.91068 0.14847 0.0
C5034 C 0.79343 0.93293 0.14253 0.0
C5035 C 0.83464 0.955 0.15646 0.0
N5036 N 0.84032 0.92459 0.15424 0.0
N5037 N 0.80465 0.96057 0.15089 0.0
C5038 C 0.77925 0.87975 0.29983 0.0
C5039 C 0.73231 0.87031 0.29034 0.0
N5040 N 0.77891 0.85633 0.27924 0.0
N5041 N 0.74951 0.84857 0.27618 0.0
N5042 N 0.7506 0.89174 0.30341 0.0
H5043 H 0.82254 0.86598 0.31979 0.0
H5044 H 0.79003 0.86488 0.34538 0.0
H5045 H 0.80573 0.90103 0.33508 0.0
C5046 C 0.80096 0.87793 0.32639 0.0
C5047 C 0.7689 0.92785 0.11956 0.0
H5048 H 0.76046 0.90424 0.12274 0.0
H5049 H 0.77844 0.93038 0.09597 0.0
H5050 H 0.75027 0.94424 0.12281 0.0
O5051 O 0.75531 0.90918 0.1877 0.0
O5052 O 0.75065 0.89042 0.23379 0.0
C5053 C 0.76226 0.8322 0.18123 0.0
O5054 O 0.81472 0.91077 0.25871 0.0
O5055 O 0.82406 0.92625 0.21226 0.0
Zn5056 Zn 0.62516 0.04327 0.48574 0.0
O5057 O 0.63823 0.09227 0.48689 0.0
C5058 C 0.56954 0.08013 0.49072 0.0
Zn5059 Zn 0.60806 0.05037 0.43831 0.0
C5060 C 0.62908 0.1072 0.46299 0.0
O5061 O 0.62788 0.09313 0.4375 0.0
C5062 C 0.59684 0.98831 0.45974 0.0
O5063 O 0.64475 0.02667 0.41558 0.0
O5064 O 0.66637 0.0183 0.46035 0.0
N5065 N 0.58658 0.06377 0.39846 0.0
C5066 C 0.56433 0.04345 0.39251 0.0
C5067 C 0.54226 0.08466 0.40644 0.0
N5068 N 0.57267 0.09034 0.40424 0.0
N5069 N 0.53669 0.05468 0.40084 0.0
C5070 C 0.6175 0.02924 0.54983 0.0
C5071 C 0.62693 0.9823 0.54033 0.0
N5072 N 0.64092 0.0289 0.52924 0.0
N5073 N 0.64868 -0.0005 0.52617 0.0
N5074 N 0.6055 0.00059 0.5534 0.0
H5075 H 0.63127 0.07253 0.56979 0.0
H5076 H 0.63235 0.04002 0.59539 0.0
H5077 H 0.59621 0.05573 0.58506 0.0
C5078 C 0.61931 0.05095 0.57638 0.0
C5079 C 0.56944 0.01888 0.36959 0.0
H5080 H 0.59303 0.01043 0.37282 0.0
H5081 H 0.56695 0.0284 0.34598 0.0
H5082 H 0.55302 0.00027 0.37282 0.0
O5083 O 0.58808 0.00531 0.43768 0.0
O5084 O 0.60683 0.00065 0.48378 0.0
C5085 C 0.66506 0.01227 0.43123 0.0
O5086 O 0.58648 0.06472 0.5087 0.0
O5087 O 0.571 0.07406 0.46225 0.0
Zn5088 Zn 0.45398 0.87516 0.73574 0.0
O5089 O 0.40498 0.88822 0.73689 0.0
C5090 C 0.41712 0.81953 0.74071 0.0
Zn5091 Zn 0.44689 0.85806 0.68831 0.0
C5092 C 0.39006 0.87908 0.71299 0.0
O5093 O 0.40413 0.87788 0.6875 0.0
C5094 C 0.50895 0.84684 0.70973 0.0
O5095 O 0.47059 0.89475 0.66559 0.0
O5096 O 0.47896 0.91637 0.71036 0.0
N5097 N 0.43349 0.83658 0.64846 0.0
C5098 C 0.45381 0.81434 0.64251 0.0
C5099 C 0.41259 0.79226 0.65644 0.0
N5100 N 0.40692 0.82268 0.65423 0.0
N5101 N 0.44257 0.78669 0.65083 0.0
C5102 C 0.46801 0.86749 0.79983 0.0
C5103 C 0.51496 0.87693 0.79033 0.0
N5104 N 0.46835 0.89091 0.77924 0.0
N5105 N 0.49775 0.89867 0.77617 0.0
N5106 N 0.49666 0.8555 0.8034 0.0
H5107 H 0.42473 0.88126 0.81978 0.0
H5108 H 0.45723 0.88235 0.84538 0.0
H5109 H 0.44153 0.8462 0.83506 0.0
C5110 C 0.4463 0.86931 0.82638 0.0
C5111 C 0.47838 0.81944 0.61959 0.0
H5112 H 0.48683 0.84303 0.62283 0.0
H5113 H 0.46886 0.81696 0.59598 0.0
H5114 H 0.49699 0.80302 0.62283 0.0
O5115 O 0.49195 0.83808 0.68768 0.0
O5116 O 0.49661 0.85683 0.73378 0.0
C5117 C 0.48499 0.91506 0.68123 0.0
O5118 O 0.43254 0.83648 0.7587 0.0
O5119 O 0.4232 0.821 0.71225 0.0
Zn5120 Zn 0.76152 0.62209 0.04327 0.0
O5121 O 0.76036 0.60903 0.09227 0.0
C5122 C 0.75654 0.67772 0.08013 0.0
Zn5123 Zn 0.80894 0.63919 0.05037 0.0
C5124 C 0.78427 0.61818 0.1072 0.0
O5125 O 0.80976 0.61938 0.09313 0.0
C5126 C 0.78751 0.65041 0.98831 0.0
O5127 O 0.83166 0.6025 0.02667 0.0
O5128 O 0.7869 0.58088 0.0183 0.0
N5129 N 0.84879 0.66067 0.06376 0.0
C5130 C 0.85474 0.68292 0.04344 0.0
C5131 C 0.84082 0.70499 0.08465 0.0
N5132 N 0.84302 0.67458 0.09033 0.0
N5133 N 0.84642 0.71057 0.05467 0.0
C5134 C 0.69742 0.62975 0.02925 0.0
C5135 C 0.70692 0.62032 0.98231 0.0
N5136 N 0.71802 0.60633 0.02891 0.0
N5137 N 0.72108 0.59857 -0.00049 0.0
N5138 N 0.69384 0.64174 0.0006 0.0
H5139 H 0.67747 0.61598 0.07254 0.0
H5140 H 0.65188 0.61487 0.04003 0.0
H5141 H 0.66217 0.65102 0.05572 0.0
C5142 C 0.67086 0.62792 0.05096 0.0
C5143 C 0.87767 0.67782 0.01888 0.0
H5144 H 0.87445 0.65422 0.01043 0.0
H5145 H 0.90128 0.68031 0.0284 0.0
H5146 H 0.87444 0.69423 0.00026 0.0
O5147 O 0.80957 0.65917 0.00531 0.0
O5148 O 0.76347 0.64042 0.00065 0.0
C5149 C 0.81603 0.58219 0.01227 0.0
O5150 O 0.73855 0.66078 0.06472 0.0
O5151 O 0.785 0.67625 0.07405 0.0
Zn5152 Zn 0.26151 0.62516 0.70398 0.0
O5153 O 0.26036 0.63823 0.65498 0.0
C5154 C 0.25653 0.56953 0.66712 0.0
Zn5155 Zn 0.30894 0.60805 0.69689 0.0
C5156 C 0.28426 0.62908 0.64005 0.0
O5157 O 0.30976 0.62787 0.65413 0.0
C5158 C 0.28751 0.59683 0.75894 0.0
O5159 O 0.33166 0.64474 0.72059 0.0
O5160 O 0.28689 0.66637 0.72896 0.0
N5161 N 0.34879 0.58658 0.6835 0.0
C5162 C 0.35473 0.56433 0.70382 0.0
C5163 C 0.34079 0.54226 0.66261 0.0
N5164 N 0.34302 0.57266 0.65693 0.0
N5165 N 0.34637 0.53669 0.6926 0.0
C5166 C 0.19742 0.6175 0.718 0.0
C5167 C 0.20691 0.62693 0.76494 0.0
N5168 N 0.21801 0.64092 0.71834 0.0
N5169 N 0.22107 0.64868 0.74774 0.0
N5170 N 0.19384 0.6055 0.74665 0.0
H5171 H 0.17747 0.63126 0.67471 0.0
H5172 H 0.15187 0.63238 0.70722 0.0
H5173 H 0.16216 0.59622 0.69153 0.0
C5174 C 0.17086 0.61932 0.69629 0.0
C5175 C 0.37768 0.56941 0.72836 0.0
H5176 H 0.37449 0.59302 0.7368 0.0
H5177 H 0.40128 0.56688 0.71882 0.0
H5178 H 0.37444 0.55301 0.74699 0.0
O5179 O 0.30956 0.58807 0.74194 0.0
O5180 O 0.26346 0.60683 0.7466 0.0
C5181 C 0.31602 0.66505 0.73499 0.0
O5182 O 0.23855 0.58648 0.68253 0.0
O5183 O 0.285 0.571 0.67319 0.0
Zn5184 Zn 0.87209 0.51151 0.95398 0.0
O5185 O 0.85902 0.51035 0.90498 0.0
C5186 C 0.92772 0.50653 0.91712 0.0
Zn5187 Zn 0.88919 0.55894 0.94688 0.0
C5188 C 0.86817 0.53425 0.89005 0.0
O5189 O 0.86937 0.55975 0.90413 0.0
C5190 C 0.90042 0.53751 0.00894 0.0
O5191 O 0.8525 0.58166 0.97059 0.0
O5192 O 0.83088 0.53689 0.97896 0.0
N5193 N 0.91067 0.59878 0.93348 0.0
C5194 C 0.93292 0.60474 0.95381 0.0
C5195 C 0.95499 0.59081 0.91259 0.0
N5196 N 0.92458 0.59301 0.90692 0.0
N5197 N 0.96056 0.59641 0.94258 0.0
C5198 C 0.87976 0.44742 0.96801 0.0
C5199 C 0.87032 0.45692 0.01495 0.0
N5200 N 0.85634 0.46801 0.96835 0.0
N5201 N 0.84858 0.47107 0.99775 0.0
N5202 N 0.89175 0.44384 0.99665 0.0
H5203 H 0.86599 0.42747 0.92472 0.0
H5204 H 0.86489 0.40187 0.95722 0.0
H5205 H 0.90104 0.41218 0.94153 0.0
C5206 C 0.87794 0.42087 0.9463 0.0
C5207 C 0.92782 0.62767 0.97837 0.0
H5208 H 0.90422 0.62444 0.98681 0.0
H5209 H 0.93031 0.65127 0.96884 0.0
H5210 H 0.94423 0.62443 0.99698 0.0
O5211 O 0.90918 0.55956 0.99194 0.0
O5212 O 0.89043 0.51346 0.9966 0.0
C5213 C 0.8322 0.56602 0.98499 0.0
O5214 O 0.91077 0.48855 0.93253 0.0
O5215 O 0.92625 0.53499 0.9232 0.0
Zn5216 Zn 0.93831 0.13919 0.19689 0.0
O5217 O 0.91559 0.1025 0.22059 0.0
C5218 C 0.95974 0.15041 0.25895 0.0
Zn5219 Zn 0.98574 0.12209 0.20398 0.0
C5220 C 0.93123 0.08219 0.23499 0.0
O5221 O 0.96036 0.08088 0.22896 0.0
C5222 C 0.99072 0.17771 0.16712 0.0
O5223 O 0.9869 0.10902 0.15498 0.0
O5224 O 0.9375 0.11937 0.15413 0.0
N5225 N 0.02924 0.10633 0.21835 0.0
C5226 C 0.04983 0.12975 0.218 0.0
C5227 C 0.04033 0.12032 0.26495 0.0
N5228 N 0.02618 0.09858 0.24775 0.0
N5229 N 0.05341 0.14175 0.24665 0.0
C5230 C 0.89251 0.18291 0.2038 0.0
C5231 C 0.90644 0.20499 0.16259 0.0
N5232 N 0.89847 0.16067 0.18348 0.0
N5233 N 0.90424 0.17458 0.15692 0.0
N5234 N 0.90084 0.21056 0.19257 0.0
H5235 H 0.87283 0.15421 0.23682 0.0
H5236 H 0.84598 0.18029 0.21886 0.0
H5237 H 0.87283 0.19423 0.24698 0.0
C5238 C 0.86959 0.17781 0.22837 0.0
C5239 C 0.07639 0.12792 0.1963 0.0
H5240 H 0.06978 0.11598 0.17472 0.0
H5241 H 0.09538 0.11487 0.20723 0.0
H5242 H 0.08508 0.15102 0.19153 0.0
O5243 O 0.0087 0.16077 0.18253 0.0
O5244 O 0.96226 0.17625 0.1732 0.0
C5245 C 0.96299 0.11817 0.14005 0.0
O5246 O 0.93768 0.15917 0.24194 0.0
O5247 O 0.98378 0.14042 0.2466 0.0
Zn5248 Zn 0.87517 0.73574 0.45398 0.0
O5249 O 0.88822 0.7369 0.40499 0.0
C5250 C 0.81953 0.74072 0.41713 0.0
Zn5251 Zn 0.85806 0.68831 0.44689 0.0
C5252 C 0.87907 0.71299 0.39006 0.0
O5253 O 0.87787 0.6875 0.40414 0.0
C5254 C 0.84684 0.70974 0.50895 0.0
O5255 O 0.89475 0.66559 0.4706 0.0
O5256 O 0.91638 0.71036 0.47896 0.0
N5257 N 0.83658 0.64846 0.4335 0.0
C5258 C 0.81433 0.64251 0.45382 0.0
C5259 C 0.79226 0.65644 0.41261 0.0
N5260 N 0.82267 0.65424 0.40693 0.0
N5261 N 0.78669 0.65084 0.44259 0.0
C5262 C 0.8675 0.79983 0.46801 0.0
C5263 C 0.87693 0.79033 0.51496 0.0
N5264 N 0.89092 0.77924 0.46835 0.0
N5265 N 0.89868 0.77618 0.49775 0.0
N5266 N 0.8555 0.80341 0.49666 0.0
H5267 H 0.88127 0.81979 0.42473 0.0
H5268 H 0.88235 0.84539 0.45724 0.0
H5269 H 0.84621 0.83507 0.44153 0.0
C5270 C 0.86932 0.82639 0.4463 0.0
C5271 C 0.81943 0.61958 0.47838 0.0
H5272 H 0.84303 0.6228 0.48683 0.0
H5273 H 0.81694 0.59597 0.46885 0.0
H5274 H 0.80302 0.62281 0.49699 0.0
O5275 O 0.83807 0.68769 0.49195 0.0
O5276 O 0.85683 0.73378 0.49661 0.0
C5277 C 0.91506 0.68124 0.485 0.0
O5278 O 0.83648 0.7587 0.43254 0.0
O5279 O 0.821 0.71225 0.4232 0.0
Zn5280 Zn 0.43832 0.60806 0.05037 0.0
O5281 O 0.4156 0.64475 0.02666 0.0
C5282 C 0.45974 0.59684 0.9883 0.0
Zn5283 Zn 0.48574 0.62516 0.04327 0.0
C5284 C 0.43124 0.66506 0.01226 0.0
O5285 O 0.46037 0.66637 0.0183 0.0
C5286 C 0.49072 0.56953 0.08013 0.0
O5287 O 0.4869 0.63822 0.09227 0.0
O5288 O 0.4375 0.62787 0.09313 0.0
N5289 N 0.52924 0.64091 0.0289 0.0
C5290 C 0.54983 0.61749 0.02924 0.0
C5291 C 0.54033 0.62693 0.9823 0.0
N5292 N 0.52618 0.64868 -0.0005 0.0
N5293 N 0.55341 0.6055 0.0006 0.0
C5294 C 0.39251 0.56433 0.04344 0.0
C5295 C 0.40644 0.54226 0.08465 0.0
N5296 N 0.39847 0.58658 0.06376 0.0
N5297 N 0.40424 0.57267 0.09033 0.0
N5298 N 0.40084 0.53669 0.05467 0.0
H5299 H 0.37281 0.59303 0.01042 0.0
H5300 H 0.34598 0.56694 0.0284 0.0
H5301 H 0.37282 0.55302 0.00026 0.0
C5302 C 0.36959 0.56943 0.01888 0.0
C5303 C 0.57639 0.61931 0.05095 0.0
H5304 H 0.5698 0.63126 0.07252 0.0
H5305 H 0.59539 0.63234 0.04001 0.0
H5306 H 0.58507 0.5962 0.05573 0.0
O5307 O 0.5087 0.58647 0.06472 0.0
O5308 O 0.46226 0.571 0.07405 0.0
C5309 C 0.46299 0.62907 0.1072 0.0
O5310 O 0.43769 0.58808 0.00531 0.0
O5311 O 0.48379 0.60683 0.00065 0.0
Zn5312 Zn 0.87209 0.23574 0.79327 0.0
O5313 O 0.85903 0.2369 0.84227 0.0
C5314 C 0.92772 0.24071 0.83013 0.0
Zn5315 Zn 0.88919 0.18831 0.80037 0.0
C5316 C 0.86818 0.21299 0.8572 0.0
O5317 O 0.86938 0.1875 0.84313 0.0
C5318 C 0.9004 0.20973 0.7383 0.0
O5319 O 0.85249 0.16559 0.77667 0.0
O5320 O 0.83088 0.21036 0.7683 0.0
N5321 N 0.91066 0.14846 0.81377 0.0
C5322 C 0.93291 0.14251 0.79344 0.0
C5323 C 0.95499 0.15643 0.83466 0.0
N5324 N 0.92458 0.15423 0.84033 0.0
N5325 N 0.96056 0.15083 0.80467 0.0
C5326 C 0.87976 0.29983 0.77925 0.0
C5327 C 0.87033 0.29033 0.7323 0.0
N5328 N 0.85634 0.27924 0.7789 0.0
N5329 N 0.84858 0.27618 0.7495 0.0
N5330 N 0.89176 0.3034 0.7506 0.0
H5331 H 0.866 0.31979 0.82253 0.0
H5332 H 0.8649 0.34538 0.79002 0.0
H5333 H 0.90105 0.33508 0.80572 0.0
C5334 C 0.87794 0.32639 0.80095 0.0
C5335 C 0.9278 0.1196 0.76887 0.0
H5336 H 0.90421 0.12285 0.76041 0.0
H5337 H 0.93027 0.09598 0.77837 0.0
H5338 H 0.94423 0.12284 0.75026 0.0
O5339 O 0.90916 0.18768 0.7553 0.0
O5340 O 0.89042 0.23378 0.75065 0.0
C5341 C 0.83219 0.18124 0.76227 0.0
O5342 O 0.91078 0.25869 0.81472 0.0
O5343 O 0.92625 0.21225 0.82405 0.0
Zn5344 Zn 0.35806 0.55894 0.30036 0.0
O5345 O 0.39476 0.58166 0.27667 0.0
C5346 C 0.34684 0.53752 0.2383 0.0
Zn5347 Zn 0.37516 0.51151 0.29327 0.0
C5348 C 0.41506 0.56601 0.26227 0.0
O5349 O 0.41638 0.53689 0.26829 0.0
C5350 C 0.31953 0.50654 0.33013 0.0
O5351 O 0.38822 0.51035 0.34227 0.0
O5352 O 0.37788 0.55975 0.34313 0.0
N5353 N 0.39091 0.46801 0.2789 0.0
C5354 C 0.36749 0.44742 0.27924 0.0
C5355 C 0.37692 0.45692 0.23229 0.0
N5356 N 0.39867 0.47107 0.2495 0.0
N5357 N 0.35549 0.44385 0.25059 0.0
C5358 C 0.31434 0.60474 0.29345 0.0
C5359 C 0.29227 0.59082 0.33466 0.0
N5360 N 0.33659 0.59879 0.31377 0.0
N5361 N 0.32268 0.59302 0.34034 0.0
N5362 N 0.28669 0.59642 0.30468 0.0
H5363 H 0.34304 0.62441 0.26042 0.0
H5364 H 0.31698 0.65127 0.27838 0.0
H5365 H 0.30302 0.62442 0.25027 0.0
C5366 C 0.31945 0.62765 0.26887 0.0
C5367 C 0.3693 0.42087 0.30095 0.0
H5368 H 0.38126 0.42746 0.32252 0.0
H5369 H 0.38234 0.40186 0.29002 0.0
H5370 H 0.3462 0.41219 0.30572 0.0
O5371 O 0.33647 0.48856 0.31471 0.0
O5372 O 0.321 0.535 0.32405 0.0
C5373 C 0.37907 0.53425 0.3572 0.0
O5374 O 0.33809 0.55957 0.2553 0.0
O5375 O 0.35683 0.51347 0.25065 0.0
Zn5376 Zn 0.45722 0.23288 0.87563 0.0
O5377 O 0.47744 0.21114 0.91987 0.0
C5378 C 0.50859 0.20613 0.84619 0.0
Zn5379 Zn 0.44465 0.18875 0.8574 0.0
C5380 C 0.48543 0.18277 0.91598 0.0
O5381 O 0.47281 0.16827 0.89367 0.0
C5382 C 0.41908 0.24123 0.81939 0.0
O5383 O 0.40384 0.18311 0.87906 0.0
O5384 O 0.40586 0.23343 0.88385 0.0
N5385 N 0.43995 0.14681 0.83769 0.0
C5386 C 0.43238 0.15187 0.80827 0.0
C5387 C 0.47721 0.1327 0.80835 0.0
N5388 N 0.46698 0.13269 0.8376 0.0
N5389 N 0.45648 0.14645 0.78972 0.0
C5390 C 0.49196 0.28911 0.8757 0.0
C5391 C 0.45636 0.3124 0.85186 0.0
N5392 N 0.46496 0.27899 0.88768 0.0
N5393 N 0.44319 0.29592 0.87467 0.0
N5394 N 0.48697 0.30711 0.85044 0.0
H5395 H 0.52374 0.26971 0.90816 0.0
H5396 H 0.51287 0.30762 0.91595 0.0
H5397 H 0.53971 0.30135 0.88525 0.0
C5398 C 0.51913 0.29206 0.89673 0.0
C5399 C 0.39995 0.15544 0.79797 0.0
H5400 H 0.38393 0.15716 0.81784 0.0
H5401 H 0.39332 0.13597 0.78321 0.0
H5402 H 0.39892 0.17612 0.78366 0.0
O5403 O 0.41597 0.21233 0.82125 0.0
O5404 O 0.44179 0.25286 0.8334 0.0
C5405 C 0.39006 0.20885 0.87886 0.0
O5406 O 0.5032 0.22924 0.86286 0.0
O5407 O 0.4862 0.19227 0.83386 0.0
Zn5408 Zn 0.30851 0.19466 0.6074 0.0
O5409 O 0.31415 0.15384 0.62906 0.0
C5410 C 0.25603 0.16909 0.56938 0.0
Zn5411 Zn 0.26437 0.20723 0.62563 0.0
C5412 C 0.28841 0.14007 0.62886 0.0
O5413 O 0.26382 0.15586 0.63385 0.0
C5414 C 0.29113 0.25859 0.59619 0.0
O5415 O 0.28611 0.22744 0.66987 0.0
O5416 O 0.32898 0.22281 0.64367 0.0
N5417 N 0.21826 0.21496 0.63768 0.0
C5418 C 0.20814 0.24197 0.6257 0.0
C5419 C 0.18486 0.20637 0.60186 0.0
N5420 N 0.20134 0.1932 0.62467 0.0
N5421 N 0.19015 0.23697 0.60043 0.0
C5422 C 0.34539 0.18238 0.55828 0.0
C5423 C 0.36456 0.22721 0.55835 0.0
N5424 N 0.35044 0.18995 0.58769 0.0
N5425 N 0.36457 0.21698 0.5876 0.0
N5426 N 0.3508 0.20648 0.53972 0.0
H5427 H 0.34009 0.13393 0.56784 0.0
H5428 H 0.36129 0.14332 0.53321 0.0
H5429 H 0.32113 0.14893 0.53366 0.0
C5430 C 0.34182 0.14995 0.54797 0.0
C5431 C 0.20519 0.26913 0.64673 0.0
H5432 H 0.22754 0.27375 0.65815 0.0
H5433 H 0.18964 0.26287 0.66595 0.0
H5434 H 0.19589 0.28971 0.63525 0.0
O5435 O 0.26802 0.25321 0.61286 0.0
O5436 O 0.30499 0.23621 0.58387 0.0
C5437 C 0.31449 0.23543 0.66599 0.0
O5438 O 0.28492 0.16597 0.57125 0.0
O5439 O 0.24439 0.1918 0.5834 0.0
Zn5440 Zn 0.29003 0.01437 0.37563 0.0
O5441 O 0.26981 0.03611 0.41987 0.0
C5442 C 0.23866 0.04113 0.34619 0.0
Zn5443 Zn 0.3026 0.0585 0.3574 0.0
C5444 C 0.26182 0.06448 0.41599 0.0
O5445 O 0.27445 0.07898 0.39367 0.0
C5446 C 0.32817 0.00602 0.31938 0.0
O5447 O 0.34341 0.06414 0.37906 0.0
O5448 O 0.34139 0.01381 0.38385 0.0
N5449 N 0.3073 0.10044 0.3377 0.0
C5450 C 0.31488 0.09538 0.30828 0.0
C5451 C 0.27004 0.11455 0.30835 0.0
N5452 N 0.28027 0.11457 0.3376 0.0
N5453 N 0.29077 0.1008 0.28973 0.0
C5454 C 0.25528 0.95814 0.3757 0.0
C5455 C 0.29088 0.93485 0.35185 0.0
N5456 N 0.28229 0.96826 0.38767 0.0
N5457 N 0.30405 0.95133 0.37467 0.0
N5458 N 0.26027 0.94014 0.35044 0.0
H5459 H 0.22349 0.97754 0.40814 0.0
H5460 H 0.23438 0.93964 0.41595 0.0
H5461 H 0.20754 0.94588 0.38525 0.0
C5462 C 0.22812 0.95519 0.39673 0.0
C5463 C 0.3473 0.09181 0.29797 0.0
H5464 H 0.36333 0.09009 0.31784 0.0
H5465 H 0.35393 0.11128 0.28321 0.0
H5466 H 0.34832 0.07113 0.28366 0.0
O5467 O 0.33128 0.03492 0.32125 0.0
O5468 O 0.30545 0.99439 0.3334 0.0
C5469 C 0.35718 0.0384 0.37886 0.0
O5470 O 0.24404 0.01802 0.36286 0.0
O5471 O 0.26105 0.05499 0.33387 0.0
Zn5472 Zn 0.43876 0.0526 0.1074 0.0
O5473 O 0.43311 0.09341 0.12906 0.0
C5474 C 0.49124 0.07818 0.06939 0.0
Zn5475 Zn 0.48289 0.04003 0.12564 0.0
C5476 C 0.45885 0.10719 0.12887 0.0
O5477 O 0.48344 0.0914 0.13386 0.0
C5478 C 0.45613 0.98867 0.09619 0.0
O5479 O 0.46115 0.01982 0.16988 0.0
O5480 O 0.41828 0.02445 0.14367 0.0
N5481 N 0.529 0.0323 0.13768 0.0
C5482 C 0.53912 0.00529 0.12571 0.0
C5483 C 0.56241 0.04089 0.10187 0.0
N5484 N 0.54593 0.05406 0.12468 0.0
N5485 N 0.55712 0.01028 0.10045 0.0
C5486 C 0.40188 0.06488 0.05827 0.0
C5487 C 0.38271 0.02004 0.05835 0.0
N5488 N 0.39682 0.05731 0.08769 0.0
N5489 N 0.3827 0.03027 0.0876 0.0
N5490 N 0.39646 0.04077 0.03972 0.0
H5491 H 0.40717 0.11333 0.06783 0.0
H5492 H 0.38598 0.10393 0.0332 0.0
H5493 H 0.42614 0.09832 0.03365 0.0
C5494 C 0.40545 0.0973 0.04796 0.0
C5495 C 0.54206 0.97813 0.14674 0.0
H5496 H 0.51971 0.97351 0.15816 0.0
H5497 H 0.55762 0.98438 0.16596 0.0
H5498 H 0.55136 0.95754 0.13526 0.0
O5499 O 0.47924 0.99405 0.11286 0.0
O5500 O 0.44227 0.01105 0.08387 0.0
C5501 C 0.43277 0.01183 0.16599 0.0
O5502 O 0.46234 0.08129 0.07126 0.0
O5503 O 0.50287 0.05547 0.08341 0.0
Zn5504 Zn 0.44465 0.5585 0.88985 0.0
O5505 O 0.40384 0.56415 0.8682 0.0
C5506 C 0.41908 0.50602 0.92786 0.0
Zn5507 Zn 0.45722 0.51437 0.87161 0.0
C5508 C 0.39007 0.53841 0.86839 0.0
O5509 O 0.40586 0.51382 0.8634 0.0
C5510 C 0.50859 0.54112 0.90106 0.0
O5511 O 0.47744 0.53611 0.82738 0.0
O5512 O 0.47281 0.57898 0.85358 0.0
N5513 N 0.46496 0.46826 0.85956 0.0
C5514 C 0.49196 0.45814 0.87154 0.0
C5515 C 0.45636 0.43485 0.89538 0.0
N5516 N 0.44319 0.45133 0.87257 0.0
N5517 N 0.48697 0.44014 0.89681 0.0
C5518 C 0.43238 0.59537 0.93898 0.0
C5519 C 0.47722 0.61454 0.93891 0.0
N5520 N 0.43995 0.60043 0.90957 0.0
N5521 N 0.46699 0.61456 0.90966 0.0
N5522 N 0.45649 0.60079 0.95753 0.0
H5523 H 0.38393 0.59007 0.92943 0.0
H5524 H 0.39333 0.61127 0.96405 0.0
H5525 H 0.39894 0.57111 0.96361 0.0
C5526 C 0.39996 0.5918 0.94929 0.0
C5527 C 0.51913 0.45519 0.85051 0.0
H5528 H 0.52375 0.47754 0.83908 0.0
H5529 H 0.51287 0.43963 0.8313 0.0
H5530 H 0.53971 0.44589 0.862 0.0
O5531 O 0.50321 0.51801 0.88439 0.0
O5532 O 0.4862 0.55498 0.91338 0.0
C5533 C 0.48543 0.56449 0.83127 0.0
O5534 O 0.41597 0.53491 0.926 0.0
O5535 O 0.44179 0.49438 0.91384 0.0
Zn5536 Zn 0.93875 0.19466 0.63985 0.0
O5537 O 0.93311 0.15384 0.6182 0.0
C5538 C 0.99123 0.16909 0.67786 0.0
Zn5539 Zn 0.98288 0.20723 0.62161 0.0
C5540 C 0.95885 0.14007 0.61839 0.0
O5541 O 0.98343 0.15586 0.6134 0.0
C5542 C 0.95613 0.2586 0.65106 0.0
O5543 O 0.96114 0.22744 0.57737 0.0
O5544 O 0.91827 0.22281 0.60358 0.0
N5545 N 0.02899 0.21496 0.60957 0.0
C5546 C 0.03911 0.24197 0.62154 0.0
C5547 C 0.0624 0.20637 0.64538 0.0
N5548 N 0.04592 0.1932 0.62257 0.0
N5549 N 0.05711 0.23698 0.6468 0.0
C5550 C 0.90187 0.18238 0.68898 0.0
C5551 C 0.8827 0.22722 0.68891 0.0
N5552 N 0.89681 0.18996 0.65956 0.0
N5553 N 0.88269 0.21699 0.65966 0.0
N5554 N 0.89646 0.20648 0.70753 0.0
H5555 H 0.90718 0.13394 0.67941 0.0
H5556 H 0.88597 0.14332 0.71402 0.0
H5557 H 0.92613 0.14893 0.7136 0.0
C5558 C 0.90545 0.14996 0.69928 0.0
C5559 C 0.04206 0.26913 0.60051 0.0
H5560 H 0.01971 0.27375 0.58909 0.0
H5561 H 0.05761 0.26287 0.58129 0.0
H5562 H 0.05136 0.28972 0.612 0.0
O5563 O 0.97923 0.25321 0.63438 0.0
O5564 O 0.94227 0.23621 0.66338 0.0
C5565 C 0.93277 0.23543 0.58126 0.0
O5566 O 0.96234 0.16598 0.676 0.0
O5567 O 0.00287 0.1918 0.66384 0.0
Zn5568 Zn 0.3026 0.68876 0.38985 0.0
O5569 O 0.34341 0.68311 0.36819 0.0
C5570 C 0.32817 0.74123 0.42787 0.0
Zn5571 Zn 0.29003 0.73288 0.37162 0.0
C5572 C 0.35719 0.70885 0.36839 0.0
O5573 O 0.34139 0.73344 0.3634 0.0
C5574 C 0.23866 0.70613 0.40106 0.0
O5575 O 0.26982 0.71115 0.32737 0.0
O5576 O 0.27445 0.66828 0.35358 0.0
N5577 N 0.28229 0.779 0.35958 0.0
C5578 C 0.25529 0.78911 0.37155 0.0
C5579 C 0.29088 0.8124 0.39539 0.0
N5580 N 0.30406 0.79592 0.37258 0.0
N5581 N 0.26028 0.80712 0.39681 0.0
C5582 C 0.31488 0.65187 0.43897 0.0
C5583 C 0.27004 0.6327 0.4389 0.0
N5584 N 0.3073 0.64682 0.40956 0.0
N5585 N 0.28027 0.63269 0.40965 0.0
N5586 N 0.29078 0.64646 0.45753 0.0
H5587 H 0.36333 0.65716 0.42942 0.0
H5588 H 0.35393 0.63597 0.46404 0.0
H5589 H 0.34833 0.67613 0.46359 0.0
C5590 C 0.3473 0.65544 0.44928 0.0
C5591 C 0.22812 0.79206 0.35052 0.0
H5592 H 0.2235 0.76971 0.3391 0.0
H5593 H 0.23438 0.80761 0.3313 0.0
H5594 H 0.20754 0.80136 0.362 0.0
O5595 O 0.24404 0.72923 0.38439 0.0
O5596 O 0.26105 0.69227 0.41338 0.0
C5597 C 0.26183 0.68277 0.33126 0.0
O5598 O 0.33128 0.71234 0.426 0.0
O5599 O 0.30546 0.75287 0.41385 0.0
Zn5600 Zn 0.76437 0.04003 0.12162 0.0
O5601 O 0.78611 0.01982 0.07738 0.0
C5602 C 0.79112 0.98867 0.15107 0.0
Zn5603 Zn 0.8085 0.0526 0.13986 0.0
C5604 C 0.81448 0.01183 0.08127 0.0
O5605 O 0.82898 0.02445 0.10359 0.0
C5606 C 0.75601 0.07818 0.17786 0.0
O5607 O 0.81414 0.09341 0.1182 0.0
O5608 O 0.76382 0.0914 0.1134 0.0
N5609 N 0.85043 0.0573 0.15957 0.0
C5610 C 0.84537 0.06487 0.18899 0.0
C5611 C 0.86454 0.02004 0.18891 0.0
N5612 N 0.86455 0.03027 0.15966 0.0
N5613 N 0.85079 0.04077 0.20754 0.0
C5614 C 0.70814 0.0053 0.12154 0.0
C5615 C 0.68485 0.04089 0.14538 0.0
N5616 N 0.71826 0.0323 0.10957 0.0
N5617 N 0.70133 0.05407 0.12257 0.0
N5618 N 0.69013 0.01029 0.1468 0.0
H5619 H 0.72754 0.97352 0.08908 0.0
H5620 H 0.68963 0.98439 0.08129 0.0
H5621 H 0.6959 0.95754 0.112 0.0
C5622 C 0.70519 0.97813 0.10051 0.0
C5623 C 0.8418 0.09729 0.1993 0.0
H5624 H 0.84009 0.11332 0.17944 0.0
H5625 H 0.86127 0.10392 0.21407 0.0
H5626 H 0.82111 0.09832 0.21361 0.0
O5627 O 0.78491 0.08129 0.176 0.0
O5628 O 0.74438 0.05546 0.16384 0.0
C5629 C 0.7884 0.10719 0.11839 0.0
O5630 O 0.76801 0.99405 0.13439 0.0
O5631 O 0.80497 0.01105 0.16339 0.0
Zn5632 Zn 0.37564 0.45722 0.73288 0.0
O5633 O 0.41987 0.47743 0.71115 0.0
C5634 C 0.34619 0.50859 0.70613 0.0
Zn5635 Zn 0.3574 0.44465 0.68875 0.0
C5636 C 0.41599 0.48543 0.68277 0.0
O5637 O 0.39367 0.4728 0.66827 0.0
C5638 C 0.31939 0.41908 0.74123 0.0
O5639 O 0.37905 0.40384 0.68311 0.0
O5640 O 0.38385 0.40586 0.73343 0.0
N5641 N 0.33769 0.43995 0.64682 0.0
C5642 C 0.30827 0.43238 0.65188 0.0
C5643 C 0.30834 0.47721 0.63271 0.0
N5644 N 0.33759 0.46698 0.6327 0.0
N5645 N 0.28972 0.45648 0.64646 0.0
C5646 C 0.37571 0.49196 0.78911 0.0
C5647 C 0.35187 0.45636 0.8124 0.0
N5648 N 0.38768 0.46495 0.77899 0.0
N5649 N 0.37468 0.44319 0.79592 0.0
N5650 N 0.35045 0.48697 0.80712 0.0
H5651 H 0.40817 0.52374 0.76971 0.0
H5652 H 0.41596 0.51287 0.80762 0.0
H5653 H 0.38526 0.53971 0.80135 0.0
C5654 C 0.39674 0.51912 0.79206 0.0
C5655 C 0.29796 0.39996 0.65545 0.0
H5656 H 0.31782 0.38393 0.65717 0.0
H5657 H 0.2832 0.39333 0.63598 0.0
H5658 H 0.28365 0.39893 0.67614 0.0
O5659 O 0.32125 0.41597 0.71234 0.0
O5660 O 0.33341 0.44179 0.75287 0.0
C5661 C 0.37886 0.39006 0.70885 0.0
O5662 O 0.36286 0.5032 0.72924 0.0
O5663 O 0.33386 0.4862 0.69227 0.0
Zn5664 Zn 0.0526 0.10739 0.43876 0.0
O5665 O 0.09341 0.12906 0.43311 0.0
C5666 C 0.07818 0.06939 0.49124 0.0
Zn5667 Zn 0.04003 0.12563 0.48289 0.0
C5668 C 0.10719 0.12887 0.45885 0.0
O5669 O 0.0914 0.13386 0.48343 0.0
C5670 C 0.98867 0.09618 0.45614 0.0
O5671 O 0.01982 0.16987 0.46115 0.0
O5672 O 0.02445 0.14366 0.41828 0.0
N5673 N 0.0323 0.13768 0.529 0.0
C5674 C 0.00529 0.12571 0.53912 0.0
C5675 C 0.04089 0.10187 0.56241 0.0
N5676 N 0.05406 0.12468 0.54593 0.0
N5677 N 0.01029 0.10045 0.55712 0.0
C5678 C 0.06487 0.05826 0.40188 0.0
C5679 C 0.02004 0.05834 0.38271 0.0
N5680 N 0.05731 0.08768 0.39682 0.0
N5681 N 0.03028 0.08759 0.3827 0.0
N5682 N 0.04077 0.03972 0.39646 0.0
H5683 H 0.11333 0.06781 0.40718 0.0
H5684 H 0.10392 0.03319 0.38599 0.0
H5685 H 0.09832 0.03364 0.42614 0.0
C5686 C 0.0973 0.04795 0.40546 0.0
C5687 C 0.97813 0.14674 0.54206 0.0
H5688 H 0.97351 0.15816 0.51971 0.0
H5689 H 0.98439 0.16596 0.55762 0.0
H5690 H 0.95754 0.13526 0.55135 0.0
O5691 O 0.99405 0.11286 0.47924 0.0
O5692 O 0.01106 0.08386 0.44228 0.0
C5693 C 0.01182 0.16598 0.43277 0.0
O5694 O 0.08129 0.07126 0.46234 0.0
O5695 O 0.05547 0.08341 0.50287 0.0
Zn5696 Zn 0.37161 0.79003 0.23289 0.0
O5697 O 0.32737 0.76982 0.21115 0.0
C5698 C 0.40106 0.73866 0.20613 0.0
Zn5699 Zn 0.38985 0.8026 0.18875 0.0
C5700 C 0.33126 0.76182 0.18277 0.0
O5701 O 0.35358 0.77445 0.16828 0.0
C5702 C 0.42787 0.82817 0.24123 0.0
O5703 O 0.3682 0.84341 0.18311 0.0
O5704 O 0.3634 0.84139 0.23344 0.0
N5705 N 0.40956 0.8073 0.14682 0.0
C5706 C 0.43897 0.81487 0.15187 0.0
C5707 C 0.43891 0.77004 0.13271 0.0
N5708 N 0.40965 0.78026 0.1327 0.0
N5709 N 0.45753 0.79077 0.14646 0.0
C5710 C 0.37154 0.75529 0.28911 0.0
C5711 C 0.39539 0.79088 0.3124 0.0
N5712 N 0.35957 0.78229 0.279 0.0
N5713 N 0.37257 0.80406 0.29592 0.0
N5714 N 0.3968 0.76028 0.30712 0.0
H5715 H 0.33909 0.7235 0.26971 0.0
H5716 H 0.33129 0.73438 0.30762 0.0
H5717 H 0.362 0.70754 0.30136 0.0
C5718 C 0.35051 0.72812 0.29206 0.0
C5719 C 0.44927 0.8473 0.15544 0.0
H5720 H 0.42941 0.86332 0.15717 0.0
H5721 H 0.46402 0.85393 0.13597 0.0
H5722 H 0.46359 0.84833 0.17612 0.0
O5723 O 0.426 0.83128 0.21234 0.0
O5724 O 0.41384 0.80546 0.25287 0.0
C5725 C 0.36839 0.85719 0.20885 0.0
O5726 O 0.38439 0.74404 0.22924 0.0
O5727 O 0.41338 0.76105 0.19227 0.0
Zn5728 Zn 0.70722 0.12162 0.98289 0.0
O5729 O 0.72744 0.07738 0.96115 0.0
C5730 C 0.75859 0.15106 0.95613 0.0
Zn5731 Zn 0.69466 0.13986 0.93875 0.0
C5732 C 0.73543 0.08127 0.93277 0.0
O5733 O 0.72281 0.10358 0.91828 0.0
C5734 C 0.66908 0.17787 0.99123 0.0
O5735 O 0.65384 0.1182 0.93311 0.0
O5736 O 0.65586 0.1134 0.98344 0.0
N5737 N 0.68996 0.15956 0.89682 0.0
C5738 C 0.68238 0.18897 0.90187 0.0
C5739 C 0.72721 0.18891 0.8827 0.0
N5740 N 0.71699 0.15966 0.8827 0.0
N5741 N 0.70647 0.20753 0.89645 0.0
C5742 C 0.74196 0.12155 0.03912 0.0
C5743 C 0.70636 0.14539 0.0624 0.0
N5744 N 0.71495 0.10957 0.029 0.0
N5745 N 0.69319 0.12258 0.04592 0.0
N5746 N 0.73697 0.14681 0.05712 0.0
H5747 H 0.77374 0.08909 0.01971 0.0
H5748 H 0.76287 0.0813 0.05762 0.0
H5749 H 0.78971 0.112 0.05135 0.0
C5750 C 0.76912 0.10051 0.04206 0.0
C5751 C 0.64995 0.19927 0.90544 0.0
H5752 H 0.63393 0.1794 0.90717 0.0
H5753 H 0.64332 0.21402 0.88596 0.0
H5754 H 0.64892 0.21359 0.92612 0.0
O5755 O 0.66597 0.176 0.96234 0.0
O5756 O 0.69179 0.16385 0.00287 0.0
C5757 C 0.64007 0.11839 0.95885 0.0
O5758 O 0.75321 0.13439 0.97924 0.0
O5759 O 0.7362 0.16339 0.94227 0.0
Zn5760 Zn 0.3574 0.3026 0.0585 0.0
O5761 O 0.37906 0.34341 0.06414 0.0
C5762 C 0.31938 0.32816 0.00603 0.0
Zn5763 Zn 0.37563 0.29003 0.01437 0.0
C5764 C 0.37886 0.35718 0.0384 0.0
O5765 O 0.38385 0.34139 0.01381 0.0
C5766 C 0.34619 0.23866 0.04113 0.0
O5767 O 0.41987 0.26981 0.0361 0.0
O5768 O 0.39368 0.27445 0.07898 0.0
N5769 N 0.38767 0.28229 0.96826 0.0
C5770 C 0.3757 0.25528 0.95814 0.0
C5771 C 0.35185 0.29088 0.93485 0.0
N5772 N 0.37466 0.30405 0.95133 0.0
N5773 N 0.35044 0.26027 0.94014 0.0
C5774 C 0.30828 0.31488 0.09539 0.0
C5775 C 0.30836 0.27004 0.11456 0.0
N5776 N 0.3377 0.3073 0.10044 0.0
N5777 N 0.33761 0.28027 0.11457 0.0
N5778 N 0.28973 0.29077 0.1008 0.0
H5779 H 0.31784 0.36332 0.09009 0.0
H5780 H 0.28322 0.35393 0.11129 0.0
H5781 H 0.28366 0.34832 0.07113 0.0
C5782 C 0.29798 0.3473 0.09181 0.0
C5783 C 0.39673 0.22812 0.95519 0.0
H5784 H 0.40815 0.2235 0.97755 0.0
H5785 H 0.41595 0.23438 0.93964 0.0
H5786 H 0.38525 0.20754 0.94589 0.0
O5787 O 0.36286 0.24404 0.01802 0.0
O5788 O 0.33387 0.26105 0.05499 0.0
C5789 C 0.41599 0.26182 0.06448 0.0
O5790 O 0.32126 0.33128 0.03492 0.0
O5791 O 0.3334 0.30545 0.99439 0.0
Zn5792 Zn 0.20722 0.12563 0.76437 0.0
O5793 O 0.22743 0.16987 0.7861 0.0
C5794 C 0.25858 0.09618 0.79111 0.0
Zn5795 Zn 0.19465 0.10739 0.80849 0.0
C5796 C 0.23543 0.16598 0.81448 0.0
O5797 O 0.22281 0.14366 0.82897 0.0
C5798 C 0.16907 0.06939 0.75601 0.0
O5799 O 0.15384 0.12905 0.81414 0.0
O5800 O 0.15586 0.13385 0.76382 0.0
N5801 N 0.18995 0.08768 0.85043 0.0
C5802 C 0.18238 0.05826 0.84537 0.0
C5803 C 0.22721 0.05834 0.86454 0.0
N5804 N 0.21698 0.08759 0.86455 0.0
N5805 N 0.20648 0.03971 0.85079 0.0
C5806 C 0.24196 0.12571 0.70814 0.0
C5807 C 0.20636 0.10187 0.68484 0.0
N5808 N 0.21495 0.13768 0.71825 0.0
N5809 N 0.19319 0.12468 0.70133 0.0
N5810 N 0.23696 0.10045 0.69013 0.0
H5811 H 0.27373 0.15817 0.72754 0.0
H5812 H 0.26287 0.16596 0.68963 0.0
H5813 H 0.28971 0.13525 0.6959 0.0
C5814 C 0.26912 0.14674 0.70519 0.0
C5815 C 0.14996 0.04795 0.8418 0.0
H5816 H 0.13393 0.06781 0.84007 0.0
H5817 H 0.14333 0.0332 0.86127 0.0
H5818 H 0.14894 0.03364 0.82111 0.0
O5819 O 0.16596 0.07125 0.78491 0.0
O5820 O 0.19179 0.08341 0.74438 0.0
C5821 C 0.14006 0.12886 0.7884 0.0
O5822 O 0.2532 0.11286 0.76801 0.0
O5823 O 0.2362 0.08386 0.80497 0.0
Zn5824 Zn 0.38986 0.94465 0.5585 0.0
O5825 O 0.3682 0.90384 0.56415 0.0
C5826 C 0.42786 0.91908 0.50602 0.0
Zn5827 Zn 0.37162 0.95722 0.51437 0.0
C5828 C 0.36839 0.89007 0.53841 0.0
O5829 O 0.3634 0.90586 0.51382 0.0
C5830 C 0.40107 0.00859 0.54112 0.0
O5831 O 0.32738 0.97744 0.53611 0.0
O5832 O 0.35359 0.97281 0.57898 0.0
N5833 N 0.35957 0.96496 0.46826 0.0
C5834 C 0.37155 0.99197 0.45814 0.0
C5835 C 0.39539 0.95637 0.43485 0.0
N5836 N 0.37257 0.94319 0.45133 0.0
N5837 N 0.39681 0.98697 0.44014 0.0
C5838 C 0.43899 0.93238 0.59538 0.0
C5839 C 0.43891 0.97721 0.61455 0.0
N5840 N 0.40957 0.93995 0.60044 0.0
N5841 N 0.40966 0.96698 0.61456 0.0
N5842 N 0.45754 0.95648 0.60079 0.0
H5843 H 0.42943 0.88393 0.59008 0.0
H5844 H 0.46406 0.89333 0.61127 0.0
H5845 H 0.46361 0.89893 0.57111 0.0
C5846 C 0.4493 0.89995 0.5918 0.0
C5847 C 0.35052 0.01913 0.45519 0.0
H5848 H 0.33909 0.02375 0.47754 0.0
H5849 H 0.3313 0.01287 0.43964 0.0
H5850 H 0.362 0.03971 0.44589 0.0
O5851 O 0.38439 0.00321 0.51802 0.0
O5852 O 0.41339 0.9862 0.55499 0.0
C5853 C 0.33127 0.98543 0.56449 0.0
O5854 O 0.426 0.91597 0.53492 0.0
O5855 O 0.41385 0.94179 0.49439 0.0
Zn5856 Zn 0.54003 0.12162 0.26437 0.0
O5857 O 0.51981 0.07738 0.28611 0.0
C5858 C 0.48866 0.15106 0.29113 0.0
Zn5859 Zn 0.5526 0.13985 0.3085 0.0
C5860 C 0.51182 0.08126 0.31448 0.0
O5861 O 0.52445 0.10358 0.32898 0.0
C5862 C 0.57817 0.17787 0.25603 0.0
O5863 O 0.59341 0.11819 0.31414 0.0
O5864 O 0.59139 0.1134 0.26382 0.0
N5865 N 0.5573 0.15955 0.35044 0.0
C5866 C 0.56488 0.18897 0.34539 0.0
C5867 C 0.52004 0.1889 0.36455 0.0
N5868 N 0.53027 0.15965 0.36457 0.0
N5869 N 0.54078 0.20753 0.3508 0.0
C5870 C 0.50528 0.12155 0.20814 0.0
C5871 C 0.54088 0.1454 0.18485 0.0
N5872 N 0.53229 0.10958 0.21826 0.0
N5873 N 0.55405 0.12258 0.20133 0.0
N5874 N 0.51027 0.14681 0.19014 0.0
H5875 H 0.47349 0.08911 0.22755 0.0
H5876 H 0.48438 0.0813 0.18964 0.0
H5877 H 0.45754 0.112 0.19589 0.0
C5878 C 0.47812 0.10052 0.20519 0.0
C5879 C 0.5973 0.19927 0.34182 0.0
H5880 H 0.61333 0.1794 0.34009 0.0
H5881 H 0.60393 0.21403 0.36129 0.0
H5882 H 0.59833 0.21358 0.32113 0.0
O5883 O 0.58128 0.176 0.28492 0.0
O5884 O 0.55545 0.16385 0.24439 0.0
C5885 C 0.60718 0.11839 0.2884 0.0
O5886 O 0.49404 0.13439 0.26802 0.0
O5887 O 0.51104 0.16338 0.30499 0.0
Zn5888 Zn 0.23288 0.37563 0.95723 0.0
O5889 O 0.21114 0.41987 0.97744 0.0
C5890 C 0.20612 0.34619 0.0086 0.0
Zn5891 Zn 0.18875 0.3574 0.94466 0.0
C5892 C 0.18276 0.416 0.98542 0.0
O5893 O 0.16827 0.39368 0.9728 0.0
C5894 C 0.24123 0.31938 0.91909 0.0
O5895 O 0.18311 0.37905 0.90384 0.0
O5896 O 0.23343 0.38385 0.90586 0.0
N5897 N 0.14681 0.3377 0.93995 0.0
C5898 C 0.15186 0.30828 0.93238 0.0
C5899 C 0.1327 0.30835 0.97721 0.0
N5900 N 0.13269 0.3376 0.96699 0.0
N5901 N 0.14645 0.28972 0.95647 0.0
C5902 C 0.28911 0.3757 0.99197 0.0
C5903 C 0.3124 0.35186 0.95637 0.0
N5904 N 0.27899 0.38768 0.96496 0.0
N5905 N 0.29592 0.37467 0.9432 0.0
N5906 N 0.30711 0.35044 0.98698 0.0
H5907 H 0.26971 0.40816 0.02375 0.0
H5908 H 0.30761 0.41595 0.01287 0.0
H5909 H 0.30136 0.38525 0.03972 0.0
C5910 C 0.29206 0.39674 0.01913 0.0
C5911 C 0.15543 0.29798 0.89995 0.0
H5912 H 0.15716 0.31785 0.88393 0.0
H5913 H 0.13596 0.28322 0.89332 0.0
H5914 H 0.17612 0.28367 0.89892 0.0
O5915 O 0.21233 0.32125 0.91598 0.0
O5916 O 0.25286 0.3334 0.9418 0.0
C5917 C 0.20885 0.37886 0.89007 0.0
O5918 O 0.22923 0.36286 0.00321 0.0
O5919 O 0.19226 0.33387 0.98621 0.0
Zn5920 Zn 0.68876 0.38986 0.3026 0.0
O5921 O 0.68311 0.3682 0.34341 0.0
C5922 C 0.74124 0.42786 0.32818 0.0
Zn5923 Zn 0.73289 0.37162 0.29003 0.0
C5924 C 0.70885 0.36839 0.35719 0.0
O5925 O 0.73343 0.3634 0.3414 0.0
C5926 C 0.70614 0.40107 0.23867 0.0
O5927 O 0.71115 0.32738 0.26982 0.0
O5928 O 0.66828 0.35359 0.27445 0.0
N5929 N 0.779 0.35957 0.2823 0.0
C5930 C 0.78912 0.37154 0.2553 0.0
C5931 C 0.81241 0.39538 0.29089 0.0
N5932 N 0.79593 0.37257 0.30407 0.0
N5933 N 0.80712 0.3968 0.26029 0.0
C5934 C 0.65189 0.43899 0.31487 0.0
C5935 C 0.63271 0.43891 0.27004 0.0
N5936 N 0.64682 0.40957 0.3073 0.0
N5937 N 0.6327 0.40966 0.28027 0.0
N5938 N 0.64647 0.45754 0.29077 0.0
H5939 H 0.65718 0.42943 0.36332 0.0
H5940 H 0.63598 0.46405 0.35392 0.0
H5941 H 0.67614 0.46361 0.34832 0.0
C5942 C 0.65546 0.4493 0.34729 0.0
C5943 C 0.79206 0.35051 0.22813 0.0
H5944 H 0.76971 0.33908 0.22352 0.0
H5945 H 0.80762 0.33129 0.23439 0.0
H5946 H 0.80135 0.36199 0.20754 0.0
O5947 O 0.72925 0.38439 0.24405 0.0
O5948 O 0.69228 0.41339 0.26105 0.0
C5949 C 0.68277 0.33127 0.26182 0.0
O5950 O 0.71234 0.426 0.33129 0.0
O5951 O 0.75287 0.41384 0.30547 0.0
Zn5952 Zn 0.12564 0.48289 0.04003 0.0
O5953 O 0.16988 0.46115 0.01982 0.0
C5954 C 0.09619 0.45613 0.98866 0.0
Zn5955 Zn 0.1074 0.43876 0.0526 0.0
C5956 C 0.16599 0.43277 0.01183 0.0
O5957 O 0.14367 0.41828 0.02445 0.0
C5958 C 0.06939 0.49124 0.07817 0.0
O5959 O 0.12906 0.43311 0.09341 0.0
O5960 O 0.13385 0.48344 0.09139 0.0
N5961 N 0.08769 0.39682 0.0573 0.0
C5962 C 0.05827 0.40188 0.06487 0.0
C5963 C 0.05834 0.38271 0.02004 0.0
N5964 N 0.0876 0.3827 0.03027 0.0
N5965 N 0.03972 0.39647 0.04077 0.0
C5966 C 0.12571 0.53912 0.00529 0.0
C5967 C 0.10186 0.56241 0.04088 0.0
N5968 N 0.13768 0.529 0.03229 0.0
N5969 N 0.12468 0.54593 0.05406 0.0
N5970 N 0.10045 0.55712 0.01028 0.0
H5971 H 0.15816 0.51971 0.9735 0.0
H5972 H 0.16596 0.55762 0.98438 0.0
H5973 H 0.13525 0.55136 0.95754 0.0
C5974 C 0.14674 0.54206 0.97812 0.0
C5975 C 0.04797 0.40545 0.0973 0.0
H5976 H 0.06783 0.40718 0.11332 0.0
H5977 H 0.03321 0.38598 0.10393 0.0
H5978 H 0.03365 0.42614 0.09832 0.0
O5979 O 0.07125 0.46234 0.08128 0.0
O5980 O 0.08341 0.50287 0.05546 0.0
C5981 C 0.12886 0.45885 0.10719 0.0
O5982 O 0.11287 0.47924 0.99405 0.0
O5983 O 0.08387 0.44227 0.01105 0.0
Zn5984 Zn 0.0585 0.8574 0.8026 0.0
O5985 O 0.06414 0.87906 0.84341 0.0
C5986 C 0.00602 0.81939 0.82817 0.0
Zn5987 Zn 0.01437 0.87563 0.79003 0.0
C5988 C 0.0384 0.87886 0.85718 0.0
O5989 O 0.01382 0.88385 0.84139 0.0
C5990 C 0.04113 0.84619 0.73866 0.0
O5991 O 0.03611 0.91987 0.76981 0.0
O5992 O 0.07898 0.89367 0.77445 0.0
N5993 N 0.96826 0.88768 0.78229 0.0
C5994 C 0.95814 0.8757 0.75528 0.0
C5995 C 0.93485 0.85186 0.79088 0.0
N5996 N 0.95133 0.87467 0.80405 0.0
N5997 N 0.94014 0.85044 0.76028 0.0
C5998 C 0.09539 0.80828 0.81488 0.0
C5999 C 0.11456 0.80835 0.77005 0.0
N6000 N 0.10044 0.8377 0.8073 0.0
N6001 N 0.11457 0.8376 0.78027 0.0
N6002 N 0.1008 0.78972 0.79078 0.0
H6003 H 0.09009 0.81784 0.86333 0.0
H6004 H 0.11129 0.78322 0.85393 0.0
H6005 H 0.07113 0.78366 0.84833 0.0
C6006 C 0.09182 0.79798 0.8473 0.0
C6007 C 0.95519 0.89673 0.72812 0.0
H6008 H 0.97754 0.90815 0.72349 0.0
H6009 H 0.93964 0.91595 0.73438 0.0
H6010 H 0.94589 0.88525 0.70754 0.0
O6011 O 0.01802 0.86286 0.74405 0.0
O6012 O 0.05499 0.83387 0.76105 0.0
C6013 C 0.06449 0.91599 0.76182 0.0
O6014 O 0.03492 0.82125 0.83128 0.0
O6015 O 0.99439 0.8334 0.80546 0.0
Zn6016 Zn 0.12162 0.26437 0.54003 0.0
O6017 O 0.07738 0.28611 0.51982 0.0
C6018 C 0.15106 0.29113 0.48866 0.0
Zn6019 Zn 0.13985 0.3085 0.5526 0.0
C6020 C 0.08126 0.31449 0.51182 0.0
O6021 O 0.10358 0.32898 0.52445 0.0
C6022 C 0.17787 0.25602 0.57817 0.0
O6023 O 0.1182 0.31414 0.59341 0.0
O6024 O 0.1134 0.26382 0.59139 0.0
N6025 N 0.15956 0.35044 0.5573 0.0
C6026 C 0.18898 0.34538 0.56487 0.0
C6027 C 0.18891 0.36455 0.52004 0.0
N6028 N 0.15965 0.36456 0.53027 0.0
N6029 N 0.20753 0.3508 0.54077 0.0
C6030 C 0.12155 0.20814 0.50528 0.0
C6031 C 0.14539 0.18485 0.54088 0.0
N6032 N 0.10958 0.21826 0.53229 0.0
N6033 N 0.12258 0.20133 0.55405 0.0
N6034 N 0.14681 0.19014 0.51027 0.0
H6035 H 0.0891 0.22755 0.4735 0.0
H6036 H 0.0813 0.18964 0.48438 0.0
H6037 H 0.112 0.19589 0.45754 0.0
C6038 C 0.10052 0.2052 0.47812 0.0
C6039 C 0.19929 0.34181 0.5973 0.0
H6040 H 0.17942 0.34009 0.61332 0.0
H6041 H 0.21405 0.36128 0.60392 0.0
H6042 H 0.2136 0.32112 0.59832 0.0
O6043 O 0.176 0.28492 0.58128 0.0
O6044 O 0.16385 0.24439 0.55545 0.0
C6045 C 0.11839 0.2884 0.60718 0.0
O6046 O 0.13439 0.26802 0.49404 0.0
O6047 O 0.16338 0.30499 0.51105 0.0
Zn6048 Zn 0.51436 0.37162 0.95722 0.0
O6049 O 0.5361 0.32738 0.97743 0.0
C6050 C 0.54111 0.40106 0.00859 0.0
Zn6051 Zn 0.55849 0.38986 0.94465 0.0
C6052 C 0.56448 0.33127 0.98543 0.0
O6053 O 0.57897 0.35358 0.97281 0.0
C6054 C 0.50601 0.42786 0.91908 0.0
O6055 O 0.56414 0.36819 0.90384 0.0
O6056 O 0.51382 0.3634 0.90586 0.0
N6057 N 0.60043 0.40956 0.93995 0.0
C6058 C 0.59537 0.43898 0.93238 0.0
C6059 C 0.61454 0.43891 0.97721 0.0
N6060 N 0.61455 0.40966 0.96698 0.0
N6061 N 0.60079 0.45753 0.95648 0.0
C6062 C 0.45813 0.37154 0.99196 0.0
C6063 C 0.43485 0.39539 0.95636 0.0
N6064 N 0.46825 0.35957 0.96495 0.0
N6065 N 0.45133 0.37257 0.94319 0.0
N6066 N 0.44013 0.3968 0.98697 0.0
H6067 H 0.47754 0.33909 0.02374 0.0
H6068 H 0.43963 0.3313 0.01286 0.0
H6069 H 0.4459 0.362 0.03971 0.0
C6070 C 0.45519 0.35051 0.01912 0.0
C6071 C 0.5918 0.44929 0.89996 0.0
H6072 H 0.59008 0.42943 0.88393 0.0
H6073 H 0.61127 0.46406 0.89333 0.0
H6074 H 0.57111 0.4636 0.89893 0.0
O6075 O 0.53491 0.426 0.91597 0.0
O6076 O 0.49438 0.41384 0.94179 0.0
C6077 C 0.5384 0.36839 0.89007 0.0
O6078 O 0.51801 0.38439 0.0032 0.0
O6079 O 0.55497 0.41339 0.9862 0.0
Zn6080 Zn 0.1074 0.80849 0.19465 0.0
O6081 O 0.12906 0.81414 0.15384 0.0
C6082 C 0.06939 0.75602 0.16907 0.0
Zn6083 Zn 0.12563 0.76436 0.20722 0.0
C6084 C 0.12886 0.7884 0.14006 0.0
O6085 O 0.13385 0.76381 0.15586 0.0
C6086 C 0.09619 0.79112 0.25858 0.0
O6087 O 0.16987 0.7861 0.22743 0.0
O6088 O 0.14367 0.82897 0.2228 0.0
N6089 N 0.13768 0.71825 0.21495 0.0
C6090 C 0.1257 0.70813 0.24196 0.0
C6091 C 0.10186 0.68485 0.20636 0.0
N6092 N 0.12467 0.70133 0.19319 0.0
N6093 N 0.10044 0.69013 0.23696 0.0
C6094 C 0.05827 0.84537 0.18238 0.0
C6095 C 0.05835 0.86455 0.22721 0.0
N6096 N 0.08769 0.85043 0.18995 0.0
N6097 N 0.0876 0.86455 0.21698 0.0
N6098 N 0.03972 0.85079 0.20648 0.0
H6099 H 0.06783 0.84008 0.13393 0.0
H6100 H 0.0332 0.86128 0.14333 0.0
H6101 H 0.03365 0.82112 0.14893 0.0
C6102 C 0.04796 0.8418 0.14995 0.0
C6103 C 0.14673 0.70519 0.26912 0.0
H6104 H 0.15816 0.72754 0.27374 0.0
H6105 H 0.16595 0.68963 0.26286 0.0
H6106 H 0.13525 0.6959 0.28971 0.0
O6107 O 0.11286 0.76801 0.2532 0.0
O6108 O 0.08386 0.80497 0.2362 0.0
C6109 C 0.16599 0.81448 0.23543 0.0
O6110 O 0.07125 0.78491 0.16596 0.0
O6111 O 0.0834 0.74438 0.19179 0.0
Zn6112 Zn 0.63985 0.43875 0.69466 0.0
O6113 O 0.6182 0.43311 0.65384 0.0
C6114 C 0.67787 0.49122 0.66909 0.0
Zn6115 Zn 0.62162 0.48288 0.70723 0.0
C6116 C 0.61839 0.45885 0.64007 0.0
O6117 O 0.6134 0.48344 0.65586 0.0
C6118 C 0.65106 0.45612 0.7586 0.0
O6119 O 0.57738 0.46115 0.72744 0.0
O6120 O 0.60358 0.41827 0.7228 0.0
N6121 N 0.60958 0.52899 0.71497 0.0
C6122 C 0.62156 0.53911 0.74197 0.0
C6123 C 0.6454 0.5624 0.70638 0.0
N6124 N 0.62259 0.54592 0.6932 0.0
N6125 N 0.64682 0.55711 0.73698 0.0
C6126 C 0.68897 0.40186 0.68237 0.0
C6127 C 0.6889 0.38269 0.72721 0.0
N6128 N 0.65955 0.39681 0.68995 0.0
N6129 N 0.65965 0.38268 0.71698 0.0
N6130 N 0.70752 0.39645 0.70648 0.0
H6131 H 0.67941 0.40715 0.63392 0.0
H6132 H 0.71404 0.38596 0.64332 0.0
H6133 H 0.71359 0.42612 0.64892 0.0
C6134 C 0.69928 0.40543 0.64995 0.0
C6135 C 0.60053 0.54206 0.76914 0.0
H6136 H 0.58911 0.51971 0.77376 0.0
H6137 H 0.5813 0.55761 0.76287 0.0
H6138 H 0.61201 0.55137 0.78972 0.0
O6139 O 0.63439 0.47923 0.75321 0.0
O6140 O 0.66338 0.44225 0.73621 0.0
C6141 C 0.58126 0.43277 0.73543 0.0
O6142 O 0.676 0.46233 0.66598 0.0
O6143 O 0.66385 0.50286 0.6918 0.0
loop_
_geom_bond_atom_site_label_1
_geom_bond_atom_site_label_2
_geom_bond_distance
_geom_bond_site_symmetry_2
_ccdc_geom_bond_type
Zn0 O1 2.055 . S
Zn0 O8 2.046 . S
Zn0 N16 2.036 . S
Zn0 O28 2.053 . S
Zn0 O30 2.066 . S
O1 Zn0 2.055 . S
O1 C4 1.259 . S
C2 O30 1.256 . S
C2 O31 1.244 . S
Zn3 O5 2.046 . S
Zn3 O7 2.055 . S
Zn3 N9 2.036 . S
Zn3 O27 2.066 . S
Zn3 O31 2.053 . S
C4 O1 1.259 . S
C4 O5 1.254 . S
O5 Zn3 2.046 . S
O5 C4 1.254 . S
C6 O27 1.256 1_655 S
C6 O28 1.244 1_655 S
O7 Zn3 2.055 . S
O7 C29 1.259 . S
O8 Zn0 2.046 . S
O8 C29 1.254 . S
N9 Zn3 2.036 . S
N9 C10 1.298 . S
N9 N12 1.398 . S
C10 N9 1.298 . S
C10 N13 1.367 . S
C10 C23 1.481 . S
C11 N12 1.299 . S
C11 N13 1.379 . S
N12 N9 1.398 . S
N12 C11 1.299 . S
N13 C10 1.367 . S
N13 C11 1.379 . S
C14 N16 1.298 . S
C14 N18 1.367 . S
C14 C22 1.481 . S
C15 N17 1.299 . S
C15 N18 1.379 1_655 S
N16 Zn0 2.036 . S
N16 C14 1.298 . S
N16 N17 1.398 1_455 S
N17 C15 1.299 . S
N17 N16 1.398 1_655 S
N18 C14 1.367 . S
N18 C15 1.379 1_455 S
H19 C22 0.980 . S
H20 C22 0.981 . S
H21 C22 0.981 . S
C22 C14 1.481 . S
C22 H19 0.980 . S
C22 H20 0.981 . S
C22 H21 0.981 . S
C23 C10 1.481 . S
C23 H24 0.980 . S
C23 H25 0.981 . S
C23 H26 0.981 . S
H24 C23 0.980 . S
H25 C23 0.981 . S
H26 C23 0.981 . S
O27 Zn3 2.066 . S
O27 C6 1.256 1_455 S
O28 Zn0 2.053 . S
O28 C6 1.244 1_455 S
C29 O7 1.259 . S
C29 O8 1.254 . S
O30 Zn0 2.066 . S
O30 C2 1.256 . S
O31 C2 1.244 . S
O31 Zn3 2.053 . S
Zn32 O33 2.055 . S
Zn32 O40 2.046 . S
Zn32 N48 2.036 . S
Zn32 O60 2.053 . S
Zn32 O62 2.066 . S
O33 Zn32 2.055 . S
O33 C36 1.259 . S
C34 O62 1.256 . S
C34 O63 1.244 . S
Zn35 O37 2.046 . S
Zn35 O39 2.055 . S
Zn35 N41 2.036 . S
Zn35 O59 2.066 . S
Zn35 O63 2.053 . S
C36 O33 1.259 . S
C36 O37 1.254 . S
O37 Zn35 2.046 . S
O37 C36 1.254 . S
C38 O59 1.256 . S
C38 O60 1.244 . S
O39 Zn35 2.055 . S
O39 C61 1.259 . S
O40 Zn32 2.046 . S
O40 C61 1.254 . S
N41 Zn35 2.036 . S
N41 C42 1.298 . S
N41 N44 1.398 . S
C42 N41 1.298 . S
C42 N45 1.367 . S
C42 C55 1.481 . S
C43 N44 1.299 . S
C43 N45 1.379 . S
N44 N41 1.398 . S
N44 C43 1.299 . S
N45 C42 1.367 . S
N45 C43 1.379 . S
C46 N48 1.298 . S
C46 N50 1.367 . S
C46 C54 1.481 . S
C47 N49 1.299 . S
C47 N50 1.379 . S
N48 Zn32 2.036 . S
N48 C46 1.298 . S
N48 N49 1.398 . S
N49 C47 1.299 . S
N49 N48 1.398 . S
N50 C46 1.367 . S
N50 C47 1.379 . S
H51 C54 0.980 . S
H52 C54 0.981 . S
H53 C54 0.981 . S
C54 C46 1.481 . S
C54 H51 0.980 . S
C54 H52 0.981 . S
C54 H53 0.981 . S
C55 C42 1.481 . S
C55 H56 0.980 . S
C55 H57 0.981 . S
C55 H58 0.981 . S
H56 C55 0.980 . S
H57 C55 0.981 . S
H58 C55 0.981 . S
O59 Zn35 2.066 . S
O59 C38 1.256 . S
O60 Zn32 2.053 . S
O60 C38 1.244 . S
C61 O39 1.259 . S
C61 O40 1.254 . S
O62 Zn32 2.066 . S
O62 C34 1.256 . S
O63 C34 1.244 . S
O63 Zn35 2.053 . S
Zn64 O65 2.055 . S
Zn64 O72 2.046 . S
Zn64 N80 2.036 . S
Zn64 O92 2.053 . S
Zn64 O94 2.066 . S
O65 Zn64 2.055 . S
O65 C68 1.259 . S
C66 O94 1.256 . S
C66 O95 1.244 . S
Zn67 O69 2.046 . S
Zn67 O71 2.055 . S
Zn67 N73 2.036 . S
Zn67 O91 2.066 . S
Zn67 O95 2.053 . S
C68 O65 1.259 . S
C68 O69 1.254 . S
O69 Zn67 2.046 . S
O69 C68 1.254 . S
C70 O91 1.256 . S
C70 O92 1.244 . S
O71 Zn67 2.055 . S
O71 C93 1.259 . S
O72 Zn64 2.046 . S
O72 C93 1.254 . S
N73 Zn67 2.036 . S
N73 C74 1.298 . S
N73 N76 1.398 . S
C74 N73 1.298 . S
C74 N77 1.367 . S
C74 C87 1.481 . S
C75 N76 1.299 . S
C75 N77 1.379 . S
N76 N73 1.398 . S
N76 C75 1.299 . S
N77 C74 1.367 . S
N77 C75 1.379 . S
C78 N80 1.298 . S
C78 N82 1.367 . S
C78 C86 1.481 . S
C79 N81 1.299 . S
C79 N82 1.379 . S
N80 Zn64 2.036 . S
N80 C78 1.298 . S
N80 N81 1.398 . S
N81 C79 1.299 . S
N81 N80 1.398 . S
N82 C78 1.367 . S
N82 C79 1.379 . S
H83 C86 0.980 . S
H84 C86 0.981 . S
H85 C86 0.981 . S
C86 C78 1.481 . S
C86 H83 0.980 . S
C86 H84 0.981 . S
C86 H85 0.981 . S
C87 C74 1.481 . S
C87 H88 0.980 . S
C87 H89 0.981 . S
C87 H90 0.981 . S
H88 C87 0.980 . S
H89 C87 0.981 . S
H90 C87 0.981 . S
O91 Zn67 2.066 . S
O91 C70 1.256 . S
O92 Zn64 2.053 . S
O92 C70 1.244 . S
C93 O71 1.259 . S
C93 O72 1.254 . S
O94 Zn64 2.066 . S
O94 C66 1.256 . S
O95 C66 1.244 . S
O95 Zn67 2.053 . S
Zn96 O97 2.055 . S
Zn96 O104 2.046 . S
Zn96 N112 2.036 1_455 S
Zn96 O124 2.053 . S
Zn96 O126 2.066 1_455 S
O97 Zn96 2.055 . S
O97 C100 1.259 . S
C98 O126 1.256 1_455 S
C98 O127 1.244 . S
Zn99 O101 2.046 . S
Zn99 O103 2.055 . S
Zn99 N105 2.036 . S
Zn99 O123 2.066 . S
Zn99 O127 2.053 . S
C100 O97 1.259 . S
C100 O101 1.254 . S
O101 Zn99 2.046 . S
O101 C100 1.254 . S
C102 O123 1.256 . S
C102 O124 1.244 . S
O103 Zn99 2.055 . S
O103 C125 1.259 . S
O104 Zn96 2.046 . S
O104 C125 1.254 . S
N105 Zn99 2.036 . S
N105 C106 1.298 . S
N105 N108 1.398 . S
C106 N105 1.298 . S
C106 N109 1.367 . S
C106 C119 1.481 . S
C107 N108 1.299 . S
C107 N109 1.379 . S
N108 N105 1.398 . S
N108 C107 1.299 . S
N109 C106 1.367 . S
N109 C107 1.379 . S
C110 N112 1.298 . S
C110 N114 1.367 . S
C110 C118 1.481 . S
C111 N113 1.299 . S
C111 N114 1.379 . S
N112 Zn96 2.036 1_655 S
N112 C110 1.298 . S
N112 N113 1.398 . S
N113 C111 1.299 . S
N113 N112 1.398 . S
N114 C110 1.367 . S
N114 C111 1.379 . S
H115 C118 0.980 . S
H116 C118 0.981 . S
H117 C118 0.981 . S
C118 C110 1.481 . S
C118 H115 0.980 . S
C118 H116 0.981 . S
C118 H117 0.981 . S
C119 C106 1.481 . S
C119 H120 0.980 . S
C119 H121 0.981 . S
C119 H122 0.981 . S
H120 C119 0.980 . S
H121 C119 0.981 . S
H122 C119 0.981 . S
O123 Zn99 2.066 . S
O123 C102 1.256 . S
O124 Zn96 2.053 . S
O124 C102 1.244 . S
C125 O103 1.259 . S
C125 O104 1.254 . S
O126 Zn96 2.066 1_655 S
O126 C98 1.256 1_655 S
O127 C98 1.244 . S
O127 Zn99 2.053 . S
Zn128 O129 2.055 . S
Zn128 O136 2.046 . S
Zn128 N144 2.036 . S
Zn128 O156 2.053 . S
Zn128 O158 2.066 . S
O129 Zn128 2.055 . S
O129 C132 1.259 . S
C130 O158 1.256 1_655 S
C130 O159 1.244 1_655 S
Zn131 O133 2.046 . S
Zn131 O135 2.055 . S
Zn131 N137 2.036 1_565 S
Zn131 O155 2.066 1_565 S
Zn131 O159 2.053 . S
C132 O129 1.259 . S
C132 O133 1.254 . S
O133 Zn131 2.046 . S
O133 C132 1.254 . S
C134 O155 1.256 1_565 S
C134 O156 1.244 . S
O135 Zn131 2.055 . S
O135 C157 1.259 . S
O136 Zn128 2.046 . S
O136 C157 1.254 . S
N137 Zn131 2.036 1_545 S
N137 C138 1.298 . S
N137 N140 1.398 1_455 S
C138 N137 1.298 . S
C138 N141 1.367 . S
C138 C151 1.481 . S
C139 N140 1.299 . S
C139 N141 1.379 1_655 S
N140 N137 1.398 1_655 S
N140 C139 1.299 . S
N141 C138 1.367 . S
N141 C139 1.379 1_455 S
C142 N144 1.298 . S
C142 N146 1.367 . S
C142 C150 1.481 . S
C143 N145 1.299 . S
C143 N146 1.379 . S
N144 Zn128 2.036 . S
N144 C142 1.298 . S
N144 N145 1.398 . S
N145 C143 1.299 . S
N145 N144 1.398 . S
N146 C142 1.367 . S
N146 C143 1.379 . S
H147 C150 0.980 . S
H148 C150 0.981 . S
H149 C150 0.981 . S
C150 C142 1.481 . S
C150 H147 0.980 . S
C150 H148 0.981 . S
C150 H149 0.981 . S
C151 C138 1.481 . S
C151 H152 0.980 . S
C151 H153 0.981 . S
C151 H154 0.981 . S
H152 C151 0.980 . S
H153 C151 0.981 . S
H154 C151 0.981 . S
O155 Zn131 2.066 1_545 S
O155 C134 1.256 1_545 S
O156 Zn128 2.053 . S
O156 C134 1.244 . S
C157 O135 1.259 . S
C157 O136 1.254 . S
O158 Zn128 2.066 . S
O158 C130 1.256 1_455 S
O159 C130 1.244 1_455 S
O159 Zn131 2.053 . S
Zn160 O161 2.055 . S
Zn160 O168 2.046 . S
Zn160 N176 2.036 . S
Zn160 O188 2.053 . S
Zn160 O190 2.066 . S
O161 Zn160 2.055 . S
O161 C164 1.259 . S
C162 O190 1.256 . S
C162 O191 1.244 . S
Zn163 O165 2.046 . S
Zn163 O167 2.055 . S
Zn163 N169 2.036 . S
Zn163 O187 2.066 . S
Zn163 O191 2.053 . S
C164 O161 1.259 . S
C164 O165 1.254 . S
O165 Zn163 2.046 . S
O165 C164 1.254 . S
C166 O187 1.256 . S
C166 O188 1.244 . S
O167 Zn163 2.055 . S
O167 C189 1.259 . S
O168 Zn160 2.046 . S
O168 C189 1.254 . S
N169 Zn163 2.036 . S
N169 C170 1.298 . S
N169 N172 1.398 . S
C170 N169 1.298 . S
C170 N173 1.367 . S
C170 C183 1.481 . S
C171 N172 1.299 . S
C171 N173 1.379 . S
N172 N169 1.398 . S
N172 C171 1.299 . S
N173 C170 1.367 . S
N173 C171 1.379 . S
C174 N176 1.298 . S
C174 N178 1.367 . S
C174 C182 1.481 . S
C175 N177 1.299 . S
C175 N178 1.379 . S
N176 Zn160 2.036 . S
N176 C174 1.298 . S
N176 N177 1.398 . S
N177 C175 1.299 . S
N177 N176 1.398 . S
N178 C174 1.367 . S
N178 C175 1.379 . S
H179 C182 0.980 . S
H180 C182 0.981 . S
H181 C182 0.981 . S
C182 C174 1.481 . S
C182 H179 0.980 . S
C182 H180 0.981 . S
C182 H181 0.981 . S
C183 C170 1.481 . S
C183 H184 0.980 . S
C183 H185 0.981 . S
C183 H186 0.981 . S
H184 C183 0.980 . S
H185 C183 0.981 . S
H186 C183 0.981 . S
O187 Zn163 2.066 . S
O187 C166 1.256 . S
O188 Zn160 2.053 . S
O188 C166 1.244 . S
C189 O167 1.259 . S
C189 O168 1.254 . S
O190 Zn160 2.066 . S
O190 C162 1.256 . S
O191 C162 1.244 . S
O191 Zn163 2.053 . S
Zn192 O193 2.055 . S
Zn192 O200 2.046 . S
Zn192 N208 2.036 . S
Zn192 O220 2.053 . S
Zn192 O222 2.066 . S
O193 Zn192 2.055 . S
O193 C196 1.259 . S
C194 O222 1.256 . S
C194 O223 1.244 . S
Zn195 O197 2.046 . S
Zn195 O199 2.055 . S
Zn195 N201 2.036 . S
Zn195 O219 2.066 . S
Zn195 O223 2.053 . S
C196 O193 1.259 . S
C196 O197 1.254 . S
O197 Zn195 2.046 . S
O197 C196 1.254 . S
C198 O219 1.256 . S
C198 O220 1.244 . S
O199 Zn195 2.055 . S
O199 C221 1.259 . S
O200 Zn192 2.046 . S
O200 C221 1.254 . S
N201 Zn195 2.036 . S
N201 C202 1.298 . S
N201 N204 1.398 . S
C202 N201 1.298 . S
C202 N205 1.367 . S
C202 C215 1.481 . S
C203 N204 1.299 . S
C203 N205 1.379 . S
N204 N201 1.398 . S
N204 C203 1.299 . S
N205 C202 1.367 . S
N205 C203 1.379 . S
C206 N208 1.298 . S
C206 N210 1.367 . S
C206 C214 1.481 . S
C207 N209 1.299 . S
C207 N210 1.379 . S
N208 Zn192 2.036 . S
N208 C206 1.298 . S
N208 N209 1.398 . S
N209 C207 1.299 . S
N209 N208 1.398 . S
N210 C206 1.367 . S
N210 C207 1.379 . S
H211 C214 0.980 . S
H212 C214 0.981 . S
H213 C214 0.981 . S
C214 C206 1.481 . S
C214 H211 0.980 . S
C214 H212 0.981 . S
C214 H213 0.981 . S
C215 C202 1.481 . S
C215 H216 0.980 . S
C215 H217 0.981 . S
C215 H218 0.981 . S
H216 C215 0.980 . S
H217 C215 0.981 . S
H218 C215 0.981 . S
O219 Zn195 2.066 . S
O219 C198 1.256 . S
O220 Zn192 2.053 . S
O220 C198 1.244 . S
C221 O199 1.259 . S
C221 O200 1.254 . S
O222 Zn192 2.066 . S
O222 C194 1.256 . S
O223 C194 1.244 . S
O223 Zn195 2.053 . S
Zn224 O225 2.055 . S
Zn224 O232 2.046 . S
Zn224 N240 2.036 . S
Zn224 O252 2.053 . S
Zn224 O254 2.066 . S
O225 Zn224 2.055 . S
O225 C228 1.259 . S
C226 O254 1.256 . S
C226 O255 1.244 . S
Zn227 O229 2.046 . S
Zn227 O231 2.055 . S
Zn227 N233 2.036 . S
Zn227 O251 2.066 . S
Zn227 O255 2.053 . S
C228 O225 1.259 . S
C228 O229 1.254 . S
O229 Zn227 2.046 . S
O229 C228 1.254 . S
C230 O251 1.256 . S
C230 O252 1.244 . S
O231 Zn227 2.055 . S
O231 C253 1.259 . S
O232 Zn224 2.046 . S
O232 C253 1.254 . S
N233 Zn227 2.036 . S
N233 C234 1.298 . S
N233 N236 1.398 . S
C234 N233 1.298 . S
C234 N237 1.367 . S
C234 C247 1.481 . S
C235 N236 1.299 . S
C235 N237 1.379 . S
N236 N233 1.398 . S
N236 C235 1.299 . S
N237 C234 1.367 . S
N237 C235 1.379 . S
C238 N240 1.298 . S
C238 N242 1.367 . S
C238 C246 1.481 . S
C239 N241 1.299 . S
C239 N242 1.379 . S
N240 Zn224 2.036 . S
N240 C238 1.298 . S
N240 N241 1.398 . S
N241 C239 1.299 . S
N241 N240 1.398 . S
N242 C238 1.367 . S
N242 C239 1.379 . S
H243 C246 0.980 . S
H244 C246 0.981 . S
H245 C246 0.981 . S
C246 C238 1.481 . S
C246 H243 0.980 . S
C246 H244 0.981 . S
C246 H245 0.981 . S
C247 C234 1.481 . S
C247 H248 0.980 . S
C247 H249 0.981 . S
C247 H250 0.981 . S
H248 C247 0.980 . S
H249 C247 0.981 . S
H250 C247 0.981 . S
O251 Zn227 2.066 . S
O251 C230 1.256 . S
O252 Zn224 2.053 . S
O252 C230 1.244 . S
C253 O231 1.259 . S
C253 O232 1.254 . S
O254 Zn224 2.066 . S
O254 C226 1.256 . S
O255 C226 1.244 . S
O255 Zn227 2.053 . S
Zn256 O257 2.055 . S
Zn256 O264 2.046 . S
Zn256 N272 2.036 . S
Zn256 O284 2.053 . S
Zn256 O286 2.066 . S
O257 Zn256 2.055 . S
O257 C260 1.259 . S
C258 O286 1.256 1_565 S
C258 O287 1.244 1_565 S
Zn259 O261 2.046 . S
Zn259 O263 2.055 . S
Zn259 N265 2.036 . S
Zn259 O283 2.066 . S
Zn259 O287 2.053 . S
C260 O257 1.259 . S
C260 O261 1.254 . S
O261 Zn259 2.046 . S
O261 C260 1.254 . S
C262 O283 1.256 . S
C262 O284 1.244 . S
O263 Zn259 2.055 . S
O263 C285 1.259 . S
O264 Zn256 2.046 . S
O264 C285 1.254 . S
N265 Zn259 2.036 . S
N265 C266 1.298 . S
N265 N268 1.398 1_545 S
C266 N265 1.298 . S
C266 N269 1.367 . S
C266 C279 1.481 . S
C267 N268 1.299 . S
C267 N269 1.379 1_565 S
N268 N265 1.398 1_565 S
N268 C267 1.299 . S
N269 C266 1.367 . S
N269 C267 1.379 1_545 S
C270 N272 1.298 . S
C270 N274 1.367 . S
C270 C278 1.481 . S
C271 N273 1.299 . S
C271 N274 1.379 . S
N272 Zn256 2.036 . S
N272 C270 1.298 . S
N272 N273 1.398 . S
N273 C271 1.299 . S
N273 N272 1.398 . S
N274 C270 1.367 . S
N274 C271 1.379 . S
H275 C278 0.980 . S
H276 C278 0.981 . S
H277 C278 0.981 . S
C278 C270 1.481 . S
C278 H275 0.980 . S
C278 H276 0.981 . S
C278 H277 0.981 . S
C279 C266 1.481 . S
C279 H280 0.980 . S
C279 H281 0.981 . S
C279 H282 0.981 . S
H280 C279 0.980 . S
H281 C279 0.981 . S
H282 C279 0.981 . S
O283 Zn259 2.066 . S
O283 C262 1.256 . S
O284 Zn256 2.053 . S
O284 C262 1.244 . S
C285 O263 1.259 . S
C285 O264 1.254 . S
O286 Zn256 2.066 . S
O286 C258 1.256 1_545 S
O287 C258 1.244 1_545 S
O287 Zn259 2.053 . S
Zn288 O289 2.055 . S
Zn288 O296 2.046 . S
Zn288 N304 2.036 . S
Zn288 O316 2.053 . S
Zn288 O318 2.066 . S
O289 Zn288 2.055 . S
O289 C292 1.259 . S
C290 O318 1.256 . S
C290 O319 1.244 . S
Zn291 O293 2.046 . S
Zn291 O295 2.055 . S
Zn291 N297 2.036 . S
Zn291 O315 2.066 . S
Zn291 O319 2.053 . S
C292 O289 1.259 . S
C292 O293 1.254 . S
O293 Zn291 2.046 . S
O293 C292 1.254 . S
C294 O315 1.256 . S
C294 O316 1.244 . S
O295 Zn291 2.055 . S
O295 C317 1.259 . S
O296 Zn288 2.046 . S
O296 C317 1.254 . S
N297 Zn291 2.036 . S
N297 C298 1.298 . S
N297 N300 1.398 . S
C298 N297 1.298 . S
C298 N301 1.367 . S
C298 C311 1.481 . S
C299 N300 1.299 . S
C299 N301 1.379 . S
N300 N297 1.398 . S
N300 C299 1.299 . S
N301 C298 1.367 . S
N301 C299 1.379 . S
C302 N304 1.298 . S
C302 N306 1.367 . S
C302 C310 1.481 . S
C303 N305 1.299 . S
C303 N306 1.379 . S
N304 Zn288 2.036 . S
N304 C302 1.298 . S
N304 N305 1.398 . S
N305 C303 1.299 . S
N305 N304 1.398 . S
N306 C302 1.367 . S
N306 C303 1.379 . S
H307 C310 0.980 . S
H308 C310 0.981 . S
H309 C310 0.981 . S
C310 C302 1.481 . S
C310 H307 0.980 . S
C310 H308 0.981 . S
C310 H309 0.981 . S
C311 C298 1.481 . S
C311 H312 0.980 . S
C311 H313 0.981 . S
C311 H314 0.981 . S
H312 C311 0.980 . S
H313 C311 0.981 . S
H314 C311 0.981 . S
O315 Zn291 2.066 . S
O315 C294 1.256 . S
O316 Zn288 2.053 . S
O316 C294 1.244 . S
C317 O295 1.259 . S
C317 O296 1.254 . S
O318 Zn288 2.066 . S
O318 C290 1.256 . S
O319 C290 1.244 . S
O319 Zn291 2.053 . S
Zn320 O321 2.055 . S
Zn320 O328 2.046 . S
Zn320 N336 2.036 . S
Zn320 O348 2.053 . S
Zn320 O350 2.066 . S
O321 Zn320 2.055 . S
O321 C324 1.259 . S
C322 O350 1.256 . S
C322 O351 1.244 . S
Zn323 O325 2.046 . S
Zn323 O327 2.055 . S
Zn323 N329 2.036 . S
Zn323 O347 2.066 . S
Zn323 O351 2.053 . S
C324 O321 1.259 . S
C324 O325 1.254 . S
O325 Zn323 2.046 . S
O325 C324 1.254 . S
C326 O347 1.256 . S
C326 O348 1.244 . S
O327 Zn323 2.055 . S
O327 C349 1.259 . S
O328 Zn320 2.046 . S
O328 C349 1.254 . S
N329 Zn323 2.036 . S
N329 C330 1.298 . S
N329 N332 1.398 . S
C330 N329 1.298 . S
C330 N333 1.367 . S
C330 C343 1.481 . S
C331 N332 1.299 . S
C331 N333 1.379 . S
N332 N329 1.398 . S
N332 C331 1.299 . S
N333 C330 1.367 . S
N333 C331 1.379 . S
C334 N336 1.298 . S
C334 N338 1.367 . S
C334 C342 1.481 . S
C335 N337 1.299 . S
C335 N338 1.379 . S
N336 Zn320 2.036 . S
N336 C334 1.298 . S
N336 N337 1.398 . S
N337 C335 1.299 . S
N337 N336 1.398 . S
N338 C334 1.367 . S
N338 C335 1.379 . S
H339 C342 0.980 . S
H340 C342 0.981 . S
H341 C342 0.981 . S
C342 C334 1.481 . S
C342 H339 0.980 . S
C342 H340 0.981 . S
C342 H341 0.981 . S
C343 C330 1.481 . S
C343 H344 0.980 . S
C343 H345 0.981 . S
C343 H346 0.981 . S
H344 C343 0.980 . S
H345 C343 0.981 . S
H346 C343 0.981 . S
O347 Zn323 2.066 . S
O347 C326 1.256 . S
O348 Zn320 2.053 . S
O348 C326 1.244 . S
C349 O327 1.259 . S
C349 O328 1.254 . S
O350 Zn320 2.066 . S
O350 C322 1.256 . S
O351 C322 1.244 . S
O351 Zn323 2.053 . S
Zn352 O353 2.055 . S
Zn352 O360 2.046 . S
Zn352 N368 2.036 1_554 S
Zn352 O380 2.053 . S
Zn352 O382 2.066 1_554 S
O353 Zn352 2.055 . S
O353 C356 1.259 . S
C354 O382 1.256 1_554 S
C354 O383 1.244 . S
Zn355 O357 2.046 . S
Zn355 O359 2.055 . S
Zn355 N361 2.036 . S
Zn355 O379 2.066 . S
Zn355 O383 2.053 . S
C356 O353 1.259 . S
C356 O357 1.254 . S
O357 Zn355 2.046 . S
O357 C356 1.254 . S
C358 O379 1.256 . S
C358 O380 1.244 . S
O359 Zn355 2.055 . S
O359 C381 1.259 . S
O360 Zn352 2.046 . S
O360 C381 1.254 . S
N361 Zn355 2.036 . S
N361 C362 1.298 . S
N361 N364 1.398 . S
C362 N361 1.298 . S
C362 N365 1.367 . S
C362 C375 1.481 . S
C363 N364 1.299 . S
C363 N365 1.379 . S
N364 N361 1.398 . S
N364 C363 1.299 . S
N365 C362 1.367 . S
N365 C363 1.379 . S
C366 N368 1.298 . S
C366 N370 1.367 . S
C366 C374 1.481 . S
C367 N369 1.299 . S
C367 N370 1.379 . S
N368 Zn352 2.036 1_556 S
N368 C366 1.298 . S
N368 N369 1.398 . S
N369 C367 1.299 . S
N369 N368 1.398 . S
N370 C366 1.367 . S
N370 C367 1.379 . S
H371 C374 0.980 . S
H372 C374 0.981 . S
H373 C374 0.981 . S
C374 C366 1.481 . S
C374 H371 0.980 . S
C374 H372 0.981 . S
C374 H373 0.981 . S
C375 C362 1.481 . S
C375 H376 0.980 . S
C375 H377 0.981 . S
C375 H378 0.981 . S
H376 C375 0.980 . S
H377 C375 0.981 . S
H378 C375 0.981 . S
O379 Zn355 2.066 . S
O379 C358 1.256 . S
O380 Zn352 2.053 . S
O380 C358 1.244 . S
C381 O359 1.259 . S
C381 O360 1.254 . S
O382 Zn352 2.066 1_556 S
O382 C354 1.256 1_556 S
O383 C354 1.244 . S
O383 Zn355 2.053 . S
Zn384 O385 2.055 . S
Zn384 O392 2.046 . S
Zn384 N400 2.036 . S
Zn384 O412 2.053 . S
Zn384 O414 2.066 . S
O385 Zn384 2.055 . S
O385 C388 1.259 . S
C386 O414 1.256 . S
C386 O415 1.244 . S
Zn387 O389 2.046 . S
Zn387 O391 2.055 . S
Zn387 N393 2.036 1_556 S
Zn387 O411 2.066 1_556 S
Zn387 O415 2.053 . S
C388 O385 1.259 . S
C388 O389 1.254 . S
O389 Zn387 2.046 . S
O389 C388 1.254 . S
C390 O411 1.256 1_556 S
C390 O412 1.244 . S
O391 Zn387 2.055 . S
O391 C413 1.259 . S
O392 Zn384 2.046 . S
O392 C413 1.254 . S
N393 Zn387 2.036 1_554 S
N393 C394 1.298 . S
N393 N396 1.398 . S
C394 N393 1.298 . S
C394 N397 1.367 . S
C394 C407 1.481 . S
C395 N396 1.299 . S
C395 N397 1.379 . S
N396 N393 1.398 . S
N396 C395 1.299 . S
N397 C394 1.367 . S
N397 C395 1.379 . S
C398 N400 1.298 . S
C398 N402 1.367 . S
C398 C406 1.481 . S
C399 N401 1.299 . S
C399 N402 1.379 . S
N400 Zn384 2.036 . S
N400 C398 1.298 . S
N400 N401 1.398 . S
N401 C399 1.299 . S
N401 N400 1.398 . S
N402 C398 1.367 . S
N402 C399 1.379 . S
H403 C406 0.980 . S
H404 C406 0.981 . S
H405 C406 0.981 . S
C406 C398 1.481 . S
C406 H403 0.980 . S
C406 H404 0.981 . S
C406 H405 0.981 . S
C407 C394 1.481 . S
C407 H408 0.980 . S
C407 H409 0.981 . S
C407 H410 0.981 . S
H408 C407 0.980 . S
H409 C407 0.981 . S
H410 C407 0.981 . S
O411 Zn387 2.066 1_554 S
O411 C390 1.256 1_554 S
O412 Zn384 2.053 . S
O412 C390 1.244 . S
C413 O391 1.259 . S
C413 O392 1.254 . S
O414 Zn384 2.066 . S
O414 C386 1.256 . S
O415 C386 1.244 . S
O415 Zn387 2.053 . S
Zn416 O417 2.055 . S
Zn416 O424 2.046 . S
Zn416 N432 2.036 . S
Zn416 O444 2.053 . S
Zn416 O446 2.066 . S
O417 Zn416 2.055 . S
O417 C420 1.259 . S
C418 O446 1.256 . S
C418 O447 1.244 . S
Zn419 O421 2.046 . S
Zn419 O423 2.055 . S
Zn419 N425 2.036 . S
Zn419 O443 2.066 . S
Zn419 O447 2.053 . S
C420 O417 1.259 . S
C420 O421 1.254 . S
O421 Zn419 2.046 . S
O421 C420 1.254 . S
C422 O443 1.256 . S
C422 O444 1.244 . S
O423 Zn419 2.055 . S
O423 C445 1.259 . S
O424 Zn416 2.046 . S
O424 C445 1.254 . S
N425 Zn419 2.036 . S
N425 C426 1.298 . S
N425 N428 1.398 . S
C426 N425 1.298 . S
C426 N429 1.367 . S
C426 C439 1.481 . S
C427 N428 1.299 . S
C427 N429 1.379 . S
N428 N425 1.398 . S
N428 C427 1.299 . S
N429 C426 1.367 . S
N429 C427 1.379 . S
C430 N432 1.298 . S
C430 N434 1.367 . S
C430 C438 1.481 . S
C431 N433 1.299 . S
C431 N434 1.379 . S
N432 Zn416 2.036 . S
N432 C430 1.298 . S
N432 N433 1.398 . S
N433 C431 1.299 . S
N433 N432 1.398 . S
N434 C430 1.367 . S
N434 C431 1.379 . S
H435 C438 0.980 . S
H436 C438 0.981 . S
H437 C438 0.981 . S
C438 C430 1.481 . S
C438 H435 0.980 . S
C438 H436 0.981 . S
C438 H437 0.981 . S
C439 C426 1.481 . S
C439 H440 0.980 . S
C439 H441 0.981 . S
C439 H442 0.981 . S
H440 C439 0.980 . S
H441 C439 0.981 . S
H442 C439 0.981 . S
O443 Zn419 2.066 . S
O443 C422 1.256 . S
O444 Zn416 2.053 . S
O444 C422 1.244 . S
C445 O423 1.259 . S
C445 O424 1.254 . S
O446 Zn416 2.066 . S
O446 C418 1.256 . S
O447 C418 1.244 . S
O447 Zn419 2.053 . S
Zn448 O449 2.055 . S
Zn448 O456 2.046 . S
Zn448 N464 2.036 . S
Zn448 O476 2.053 . S
Zn448 O478 2.066 . S
O449 Zn448 2.055 . S
O449 C452 1.259 . S
C450 O478 1.256 . S
C450 O479 1.244 . S
Zn451 O453 2.046 . S
Zn451 O455 2.055 . S
Zn451 N457 2.036 . S
Zn451 O475 2.066 . S
Zn451 O479 2.053 . S
C452 O449 1.259 . S
C452 O453 1.254 . S
O453 Zn451 2.046 . S
O453 C452 1.254 . S
C454 O475 1.256 . S
C454 O476 1.244 . S
O455 Zn451 2.055 . S
O455 C477 1.259 . S
O456 Zn448 2.046 . S
O456 C477 1.254 . S
N457 Zn451 2.036 . S
N457 C458 1.298 . S
N457 N460 1.398 . S
C458 N457 1.298 . S
C458 N461 1.367 . S
C458 C471 1.481 . S
C459 N460 1.299 . S
C459 N461 1.379 . S
N460 N457 1.398 . S
N460 C459 1.299 . S
N461 C458 1.367 . S
N461 C459 1.379 . S
C462 N464 1.298 . S
C462 N466 1.367 . S
C462 C470 1.481 . S
C463 N465 1.299 . S
C463 N466 1.379 . S
N464 Zn448 2.036 . S
N464 C462 1.298 . S
N464 N465 1.398 . S
N465 C463 1.299 . S
N465 N464 1.398 . S
N466 C462 1.367 . S
N466 C463 1.379 . S
H467 C470 0.980 . S
H468 C470 0.981 . S
H469 C470 0.981 . S
C470 C462 1.481 . S
C470 H467 0.980 . S
C470 H468 0.981 . S
C470 H469 0.981 . S
C471 C458 1.481 . S
C471 H472 0.980 . S
C471 H473 0.981 . S
C471 H474 0.981 . S
H472 C471 0.980 . S
H473 C471 0.981 . S
H474 C471 0.981 . S
O475 Zn451 2.066 . S
O475 C454 1.256 . S
O476 Zn448 2.053 . S
O476 C454 1.244 . S
C477 O455 1.259 . S
C477 O456 1.254 . S
O478 Zn448 2.066 . S
O478 C450 1.256 . S
O479 C450 1.244 . S
O479 Zn451 2.053 . S
Zn480 O481 2.055 . S
Zn480 O488 2.046 . S
Zn480 N496 2.036 . S
Zn480 O508 2.053 . S
Zn480 O510 2.066 . S
O481 Zn480 2.055 . S
O481 C484 1.259 . S
C482 O510 1.256 . S
C482 O511 1.244 . S
Zn483 O485 2.046 . S
Zn483 O487 2.055 . S
Zn483 N489 2.036 . S
Zn483 O507 2.066 . S
Zn483 O511 2.053 . S
C484 O481 1.259 . S
C484 O485 1.254 . S
O485 Zn483 2.046 . S
O485 C484 1.254 . S
C486 O507 1.256 1_455 S
C486 O508 1.244 1_455 S
O487 Zn483 2.055 . S
O487 C509 1.259 . S
O488 Zn480 2.046 . S
O488 C509 1.254 . S
N489 Zn483 2.036 . S
N489 C490 1.298 . S
N489 N492 1.398 . S
C490 N489 1.298 . S
C490 N493 1.367 . S
C490 C503 1.481 . S
C491 N492 1.299 . S
C491 N493 1.379 . S
N492 N489 1.398 . S
N492 C491 1.299 . S
N493 C490 1.367 . S
N493 C491 1.379 . S
C494 N496 1.298 . S
C494 N498 1.367 . S
C494 C502 1.481 . S
C495 N497 1.299 . S
C495 N498 1.379 1_455 S
N496 Zn480 2.036 . S
N496 C494 1.298 . S
N496 N497 1.398 1_655 S
N497 C495 1.299 . S
N497 N496 1.398 1_455 S
N498 C494 1.367 . S
N498 C495 1.379 1_655 S
H499 C502 0.980 . S
H500 C502 0.981 . S
H501 C502 0.981 . S
C502 C494 1.481 . S
C502 H499 0.980 . S
C502 H500 0.981 . S
C502 H501 0.981 . S
C503 C490 1.481 . S
C503 H504 0.980 . S
C503 H505 0.981 . S
C503 H506 0.981 . S
H504 C503 0.980 . S
H505 C503 0.981 . S
H506 C503 0.981 . S
O507 Zn483 2.066 . S
O507 C486 1.256 1_655 S
O508 Zn480 2.053 . S
O508 C486 1.244 1_655 S
C509 O487 1.259 . S
C509 O488 1.254 . S
O510 Zn480 2.066 . S
O510 C482 1.256 . S
O511 C482 1.244 . S
O511 Zn483 2.053 . S
Zn512 O513 2.055 . S
Zn512 O520 2.046 . S
Zn512 N528 2.036 . S
Zn512 O540 2.053 . S
Zn512 O542 2.066 . S
O513 Zn512 2.055 . S
O513 C516 1.259 . S
C514 O542 1.256 1_556 S
C514 O543 1.244 1_556 S
Zn515 O517 2.046 . S
Zn515 O519 2.055 . S
Zn515 N521 2.036 . S
Zn515 O539 2.066 . S
Zn515 O543 2.053 . S
C516 O513 1.259 . S
C516 O517 1.254 . S
O517 Zn515 2.046 . S
O517 C516 1.254 . S
C518 O539 1.256 . S
C518 O540 1.244 . S
O519 Zn515 2.055 . S
O519 C541 1.259 . S
O520 Zn512 2.046 . S
O520 C541 1.254 . S
N521 Zn515 2.036 . S
N521 C522 1.298 . S
N521 N524 1.398 1_554 S
C522 N521 1.298 . S
C522 N525 1.367 . S
C522 C535 1.481 . S
C523 N524 1.299 . S
C523 N525 1.379 1_556 S
N524 N521 1.398 1_556 S
N524 C523 1.299 . S
N525 C522 1.367 . S
N525 C523 1.379 1_554 S
C526 N528 1.298 . S
C526 N530 1.367 . S
C526 C534 1.481 . S
C527 N529 1.299 . S
C527 N530 1.379 . S
N528 Zn512 2.036 . S
N528 C526 1.298 . S
N528 N529 1.398 . S
N529 C527 1.299 . S
N529 N528 1.398 . S
N530 C526 1.367 . S
N530 C527 1.379 . S
H531 C534 0.980 . S
H532 C534 0.981 . S
H533 C534 0.981 . S
C534 C526 1.481 . S
C534 H531 0.980 . S
C534 H532 0.981 . S
C534 H533 0.981 . S
C535 C522 1.481 . S
C535 H536 0.980 . S
C535 H537 0.981 . S
C535 H538 0.981 . S
H536 C535 0.980 . S
H537 C535 0.981 . S
H538 C535 0.981 . S
O539 Zn515 2.066 . S
O539 C518 1.256 . S
O540 Zn512 2.053 . S
O540 C518 1.244 . S
C541 O519 1.259 . S
C541 O520 1.254 . S
O542 Zn512 2.066 . S
O542 C514 1.256 1_554 S
O543 C514 1.244 1_554 S
O543 Zn515 2.053 . S
Zn544 O545 2.055 . S
Zn544 O552 2.046 . S
Zn544 N560 2.036 . S
Zn544 O572 2.053 . S
Zn544 O574 2.066 . S
O545 Zn544 2.055 . S
O545 C548 1.259 . S
C546 O574 1.256 . S
C546 O575 1.244 . S
Zn547 O549 2.046 . S
Zn547 O551 2.055 . S
Zn547 N553 2.036 . S
Zn547 O571 2.066 . S
Zn547 O575 2.053 . S
C548 O545 1.259 . S
C548 O549 1.254 . S
O549 Zn547 2.046 . S
O549 C548 1.254 . S
C550 O571 1.256 . S
C550 O572 1.244 . S
O551 Zn547 2.055 . S
O551 C573 1.259 . S
O552 Zn544 2.046 . S
O552 C573 1.254 . S
N553 Zn547 2.036 . S
N553 C554 1.298 . S
N553 N556 1.398 . S
C554 N553 1.298 . S
C554 N557 1.367 . S
C554 C567 1.481 . S
C555 N556 1.299 . S
C555 N557 1.379 . S
N556 N553 1.398 . S
N556 C555 1.299 . S
N557 C554 1.367 . S
N557 C555 1.379 . S
C558 N560 1.298 . S
C558 N562 1.367 . S
C558 C566 1.481 . S
C559 N561 1.299 . S
C559 N562 1.379 . S
N560 Zn544 2.036 . S
N560 C558 1.298 . S
N560 N561 1.398 . S
N561 C559 1.299 . S
N561 N560 1.398 . S
N562 C558 1.367 . S
N562 C559 1.379 . S
H563 C566 0.980 . S
H564 C566 0.981 . S
H565 C566 0.981 . S
C566 C558 1.481 . S
C566 H563 0.980 . S
C566 H564 0.981 . S
C566 H565 0.981 . S
C567 C554 1.481 . S
C567 H568 0.980 . S
C567 H569 0.981 . S
C567 H570 0.981 . S
H568 C567 0.980 . S
H569 C567 0.981 . S
H570 C567 0.981 . S
O571 Zn547 2.066 . S
O571 C550 1.256 . S
O572 Zn544 2.053 . S
O572 C550 1.244 . S
C573 O551 1.259 . S
C573 O552 1.254 . S
O574 Zn544 2.066 . S
O574 C546 1.256 . S
O575 C546 1.244 . S
O575 Zn547 2.053 . S
Zn576 O577 2.055 . S
Zn576 O584 2.046 . S
Zn576 N592 2.036 . S
Zn576 O604 2.053 . S
Zn576 O606 2.066 . S
O577 Zn576 2.055 . S
O577 C580 1.259 . S
C578 O606 1.256 1_554 S
C578 O607 1.244 1_554 S
Zn579 O581 2.046 . S
Zn579 O583 2.055 . S
Zn579 N585 2.036 1_545 S
Zn579 O603 2.066 1_545 S
Zn579 O607 2.053 . S
C580 O577 1.259 . S
C580 O581 1.254 . S
O581 Zn579 2.046 . S
O581 C580 1.254 . S
C582 O603 1.256 1_545 S
C582 O604 1.244 . S
O583 Zn579 2.055 . S
O583 C605 1.259 . S
O584 Zn576 2.046 . S
O584 C605 1.254 . S
N585 Zn579 2.036 1_565 S
N585 C586 1.298 . S
N585 N588 1.398 1_556 S
C586 N585 1.298 . S
C586 N589 1.367 . S
C586 C599 1.481 . S
C587 N588 1.299 . S
C587 N589 1.379 1_554 S
N588 N585 1.398 1_554 S
N588 C587 1.299 . S
N589 C586 1.367 . S
N589 C587 1.379 1_556 S
C590 N592 1.298 . S
C590 N594 1.367 . S
C590 C598 1.481 . S
C591 N593 1.299 . S
C591 N594 1.379 . S
N592 Zn576 2.036 . S
N592 C590 1.298 . S
N592 N593 1.398 . S
N593 C591 1.299 . S
N593 N592 1.398 . S
N594 C590 1.367 . S
N594 C591 1.379 . S
H595 C598 0.980 . S
H596 C598 0.981 . S
H597 C598 0.981 . S
C598 C590 1.481 . S
C598 H595 0.980 . S
C598 H596 0.981 . S
C598 H597 0.981 . S
C599 C586 1.481 . S
C599 H600 0.980 . S
C599 H601 0.981 . S
C599 H602 0.981 . S
H600 C599 0.980 . S
H601 C599 0.981 . S
H602 C599 0.981 . S
O603 Zn579 2.066 1_565 S
O603 C582 1.256 1_565 S
O604 Zn576 2.053 . S
O604 C582 1.244 . S
C605 O583 1.259 . S
C605 O584 1.254 . S
O606 Zn576 2.066 . S
O606 C578 1.256 1_556 S
O607 C578 1.244 1_556 S
O607 Zn579 2.053 . S
Zn608 O609 2.055 . S
Zn608 O616 2.046 . S
Zn608 N624 2.036 . S
Zn608 O636 2.053 . S
Zn608 O638 2.066 . S
O609 Zn608 2.055 . S
O609 C612 1.259 . S
C610 O638 1.256 . S
C610 O639 1.244 . S
Zn611 O613 2.046 . S
Zn611 O615 2.055 . S
Zn611 N617 2.036 . S
Zn611 O635 2.066 . S
Zn611 O639 2.053 . S
C612 O609 1.259 . S
C612 O613 1.254 . S
O613 Zn611 2.046 . S
O613 C612 1.254 . S
C614 O635 1.256 . S
C614 O636 1.244 . S
O615 Zn611 2.055 . S
O615 C637 1.259 . S
O616 Zn608 2.046 . S
O616 C637 1.254 . S
N617 Zn611 2.036 . S
N617 C618 1.298 . S
N617 N620 1.398 . S
C618 N617 1.298 . S
C618 N621 1.367 . S
C618 C631 1.481 . S
C619 N620 1.299 . S
C619 N621 1.379 . S
N620 N617 1.398 . S
N620 C619 1.299 . S
N621 C618 1.367 . S
N621 C619 1.379 . S
C622 N624 1.298 . S
C622 N626 1.367 . S
C622 C630 1.481 . S
C623 N625 1.299 . S
C623 N626 1.379 . S
N624 Zn608 2.036 . S
N624 C622 1.298 . S
N624 N625 1.398 . S
N625 C623 1.299 . S
N625 N624 1.398 . S
N626 C622 1.367 . S
N626 C623 1.379 . S
H627 C630 0.980 . S
H628 C630 0.981 . S
H629 C630 0.981 . S
C630 C622 1.481 . S
C630 H627 0.980 . S
C630 H628 0.981 . S
C630 H629 0.981 . S
C631 C618 1.481 . S
C631 H632 0.980 . S
C631 H633 0.981 . S
C631 H634 0.981 . S
H632 C631 0.980 . S
H633 C631 0.981 . S
H634 C631 0.981 . S
O635 Zn611 2.066 . S
O635 C614 1.256 . S
O636 Zn608 2.053 . S
O636 C614 1.244 . S
C637 O615 1.259 . S
C637 O616 1.254 . S
O638 Zn608 2.066 . S
O638 C610 1.256 . S
O639 C610 1.244 . S
O639 Zn611 2.053 . S
Zn640 O641 2.055 . S
Zn640 O648 2.046 . S
Zn640 N656 2.036 . S
Zn640 O668 2.053 . S
Zn640 O670 2.066 . S
O641 Zn640 2.055 . S
O641 C644 1.259 . S
C642 O670 1.256 . S
C642 O671 1.244 . S
Zn643 O645 2.046 . S
Zn643 O647 2.055 . S
Zn643 N649 2.036 . S
Zn643 O667 2.066 . S
Zn643 O671 2.053 . S
C644 O641 1.259 . S
C644 O645 1.254 . S
O645 Zn643 2.046 . S
O645 C644 1.254 . S
C646 O667 1.256 . S
C646 O668 1.244 . S
O647 Zn643 2.055 . S
O647 C669 1.259 . S
O648 Zn640 2.046 . S
O648 C669 1.254 . S
N649 Zn643 2.036 . S
N649 C650 1.298 . S
N649 N652 1.398 . S
C650 N649 1.298 . S
C650 N653 1.367 . S
C650 C663 1.481 . S
C651 N652 1.299 . S
C651 N653 1.379 . S
N652 N649 1.398 . S
N652 C651 1.299 . S
N653 C650 1.367 . S
N653 C651 1.379 . S
C654 N656 1.298 . S
C654 N658 1.367 . S
C654 C662 1.481 . S
C655 N657 1.299 . S
C655 N658 1.379 . S
N656 Zn640 2.036 . S
N656 C654 1.298 . S
N656 N657 1.398 . S
N657 C655 1.299 . S
N657 N656 1.398 . S
N658 C654 1.367 . S
N658 C655 1.379 . S
H659 C662 0.980 . S
H660 C662 0.981 . S
H661 C662 0.981 . S
C662 C654 1.481 . S
C662 H659 0.980 . S
C662 H660 0.981 . S
C662 H661 0.981 . S
C663 C650 1.481 . S
C663 H664 0.980 . S
C663 H665 0.981 . S
C663 H666 0.981 . S
H664 C663 0.980 . S
H665 C663 0.981 . S
H666 C663 0.981 . S
O667 Zn643 2.066 . S
O667 C646 1.256 . S
O668 Zn640 2.053 . S
O668 C646 1.244 . S
C669 O647 1.259 . S
C669 O648 1.254 . S
O670 Zn640 2.066 . S
O670 C642 1.256 . S
O671 C642 1.244 . S
O671 Zn643 2.053 . S
Zn672 O673 2.055 . S
Zn672 O680 2.046 . S
Zn672 N688 2.036 . S
Zn672 O700 2.053 . S
Zn672 O702 2.066 . S
O673 Zn672 2.055 . S
O673 C676 1.259 . S
C674 O702 1.256 1_556 S
C674 O703 1.244 1_556 S
Zn675 O677 2.046 . S
Zn675 O679 2.055 . S
Zn675 N681 2.036 1_655 S
Zn675 O699 2.066 1_655 S
Zn675 O703 2.053 . S
C676 O673 1.259 . S
C676 O677 1.254 . S
O677 Zn675 2.046 . S
O677 C676 1.254 . S
C678 O699 1.256 1_655 S
C678 O700 1.244 . S
O679 Zn675 2.055 . S
O679 C701 1.259 . S
O680 Zn672 2.046 . S
O680 C701 1.254 . S
N681 Zn675 2.036 1_455 S
N681 C682 1.298 . S
N681 N684 1.398 1_554 S
C682 N681 1.298 . S
C682 N685 1.367 . S
C682 C695 1.481 . S
C683 N684 1.299 . S
C683 N685 1.379 1_556 S
N684 N681 1.398 1_556 S
N684 C683 1.299 . S
N685 C682 1.367 . S
N685 C683 1.379 1_554 S
C686 N688 1.298 . S
C686 N690 1.367 . S
C686 C694 1.481 . S
C687 N689 1.299 . S
C687 N690 1.379 . S
N688 Zn672 2.036 . S
N688 C686 1.298 . S
N688 N689 1.398 . S
N689 C687 1.299 . S
N689 N688 1.398 . S
N690 C686 1.367 . S
N690 C687 1.379 . S
H691 C694 0.980 . S
H692 C694 0.981 . S
H693 C694 0.981 . S
C694 C686 1.481 . S
C694 H691 0.980 . S
C694 H692 0.981 . S
C694 H693 0.981 . S
C695 C682 1.481 . S
C695 H696 0.980 . S
C695 H697 0.981 . S
C695 H698 0.981 . S
H696 C695 0.980 . S
H697 C695 0.981 . S
H698 C695 0.981 . S
O699 Zn675 2.066 1_455 S
O699 C678 1.256 1_455 S
O700 Zn672 2.053 . S
O700 C678 1.244 . S
C701 O679 1.259 . S
C701 O680 1.254 . S
O702 Zn672 2.066 . S
O702 C674 1.256 1_554 S
O703 C674 1.244 1_554 S
O703 Zn675 2.053 . S
Zn704 O705 2.055 . S
Zn704 O712 2.046 . S
Zn704 N720 2.036 . S
Zn704 O732 2.053 . S
Zn704 O734 2.066 . S
O705 Zn704 2.055 . S
O705 C708 1.259 . S
C706 O734 1.256 . S
C706 O735 1.244 . S
Zn707 O709 2.046 . S
Zn707 O711 2.055 . S
Zn707 N713 2.036 . S
Zn707 O731 2.066 . S
Zn707 O735 2.053 . S
C708 O705 1.259 . S
C708 O709 1.254 . S
O709 Zn707 2.046 . S
O709 C708 1.254 . S
C710 O731 1.256 . S
C710 O732 1.244 . S
O711 Zn707 2.055 . S
O711 C733 1.259 . S
O712 Zn704 2.046 . S
O712 C733 1.254 . S
N713 Zn707 2.036 . S
N713 C714 1.298 . S
N713 N716 1.398 . S
C714 N713 1.298 . S
C714 N717 1.367 . S
C714 C727 1.481 . S
C715 N716 1.299 . S
C715 N717 1.379 . S
N716 N713 1.398 . S
N716 C715 1.299 . S
N717 C714 1.367 . S
N717 C715 1.379 . S
C718 N720 1.298 . S
C718 N722 1.367 . S
C718 C726 1.481 . S
C719 N721 1.299 . S
C719 N722 1.379 . S
N720 Zn704 2.036 . S
N720 C718 1.298 . S
N720 N721 1.398 . S
N721 C719 1.299 . S
N721 N720 1.398 . S
N722 C718 1.367 . S
N722 C719 1.379 . S
H723 C726 0.980 . S
H724 C726 0.981 . S
H725 C726 0.981 . S
C726 C718 1.481 . S
C726 H723 0.980 . S
C726 H724 0.981 . S
C726 H725 0.981 . S
C727 C714 1.481 . S
C727 H728 0.980 . S
C727 H729 0.981 . S
C727 H730 0.981 . S
H728 C727 0.980 . S
H729 C727 0.981 . S
H730 C727 0.981 . S
O731 Zn707 2.066 . S
O731 C710 1.256 . S
O732 Zn704 2.053 . S
O732 C710 1.244 . S
C733 O711 1.259 . S
C733 O712 1.254 . S
O734 Zn704 2.066 . S
O734 C706 1.256 . S
O735 C706 1.244 . S
O735 Zn707 2.053 . S
Zn736 O737 2.055 . S
Zn736 O744 2.046 . S
Zn736 N752 2.036 . S
Zn736 O764 2.053 . S
Zn736 O766 2.066 . S
O737 Zn736 2.055 . S
O737 C740 1.259 . S
C738 O766 1.256 . S
C738 O767 1.244 . S
Zn739 O741 2.046 . S
Zn739 O743 2.055 . S
Zn739 N745 2.036 1_545 S
Zn739 O763 2.066 1_545 S
Zn739 O767 2.053 . S
C740 O737 1.259 . S
C740 O741 1.254 . S
O741 Zn739 2.046 . S
O741 C740 1.254 . S
C742 O763 1.256 1_545 S
C742 O764 1.244 . S
O743 Zn739 2.055 . S
O743 C765 1.259 . S
O744 Zn736 2.046 . S
O744 C765 1.254 . S
N745 Zn739 2.036 1_565 S
N745 C746 1.298 . S
N745 N748 1.398 . S
C746 N745 1.298 . S
C746 N749 1.367 . S
C746 C759 1.481 . S
C747 N748 1.299 . S
C747 N749 1.379 . S
N748 N745 1.398 . S
N748 C747 1.299 . S
N749 C746 1.367 . S
N749 C747 1.379 . S
C750 N752 1.298 . S
C750 N754 1.367 . S
C750 C758 1.481 . S
C751 N753 1.299 . S
C751 N754 1.379 . S
N752 Zn736 2.036 . S
N752 C750 1.298 . S
N752 N753 1.398 . S
N753 C751 1.299 . S
N753 N752 1.398 . S
N754 C750 1.367 . S
N754 C751 1.379 . S
H755 C758 0.980 . S
H756 C758 0.981 . S
H757 C758 0.981 . S
C758 C750 1.481 . S
C758 H755 0.980 . S
C758 H756 0.981 . S
C758 H757 0.981 . S
C759 C746 1.481 . S
C759 H760 0.980 . S
C759 H761 0.981 . S
C759 H762 0.981 . S
H760 C759 0.980 . S
H761 C759 0.981 . S
H762 C759 0.981 . S
O763 Zn739 2.066 1_565 S
O763 C742 1.256 1_565 S
O764 Zn736 2.053 . S
O764 C742 1.244 . S
C765 O743 1.259 . S
C765 O744 1.254 . S
O766 Zn736 2.066 . S
O766 C738 1.256 . S
O767 C738 1.244 . S
O767 Zn739 2.053 . S
Zn768 O769 2.055 . S
Zn768 O776 2.046 . S
Zn768 N784 2.036 . S
Zn768 O796 2.053 . S
Zn768 O798 2.066 . S
O769 Zn768 2.055 . S
O769 C772 1.259 . S
C770 O798 1.256 . S
C770 O799 1.244 . S
Zn771 O773 2.046 . S
Zn771 O775 2.055 . S
Zn771 N777 2.036 . S
Zn771 O795 2.066 . S
Zn771 O799 2.053 . S
C772 O769 1.259 . S
C772 O773 1.254 . S
O773 Zn771 2.046 . S
O773 C772 1.254 . S
C774 O795 1.256 1_455 S
C774 O796 1.244 1_455 S
O775 Zn771 2.055 . S
O775 C797 1.259 . S
O776 Zn768 2.046 . S
O776 C797 1.254 . S
N777 Zn771 2.036 . S
N777 C778 1.298 . S
N777 N780 1.398 . S
C778 N777 1.298 . S
C778 N781 1.367 . S
C778 C791 1.481 1_655 S
C779 N780 1.299 . S
C779 N781 1.379 . S
N780 N777 1.398 . S
N780 C779 1.299 . S
N781 C778 1.367 . S
N781 C779 1.379 . S
C782 N784 1.298 . S
C782 N786 1.367 . S
C782 C790 1.481 . S
C783 N785 1.299 . S
C783 N786 1.379 . S
N784 Zn768 2.036 . S
N784 C782 1.298 . S
N784 N785 1.398 . S
N785 C783 1.299 . S
N785 N784 1.398 . S
N786 C782 1.367 . S
N786 C783 1.379 . S
H787 C790 0.980 . S
H788 C790 0.981 . S
H789 C790 0.981 . S
C790 C782 1.481 . S
C790 H787 0.980 . S
C790 H788 0.981 . S
C790 H789 0.981 . S
C791 C778 1.481 1_455 S
C791 H792 0.980 1_455 S
C791 H793 0.981 . S
C791 H794 0.981 . S
H792 C791 0.980 1_655 S
H793 C791 0.981 . S
H794 C791 0.981 . S
O795 Zn771 2.066 . S
O795 C774 1.256 1_655 S
O796 Zn768 2.053 . S
O796 C774 1.244 1_655 S
C797 O775 1.259 . S
C797 O776 1.254 . S
O798 Zn768 2.066 . S
O798 C770 1.256 . S
O799 C770 1.244 . S
O799 Zn771 2.053 . S
Zn800 O801 2.055 . S
Zn800 O808 2.046 . S
Zn800 N816 2.036 . S
Zn800 O828 2.053 . S
Zn800 O830 2.066 . S
O801 Zn800 2.055 . S
O801 C804 1.259 . S
C802 O830 1.256 . S
C802 O831 1.244 . S
Zn803 O805 2.046 . S
Zn803 O807 2.055 . S
Zn803 N809 2.036 . S
Zn803 O827 2.066 . S
Zn803 O831 2.053 . S
C804 O801 1.259 . S
C804 O805 1.254 . S
O805 Zn803 2.046 . S
O805 C804 1.254 . S
C806 O827 1.256 . S
C806 O828 1.244 . S
O807 Zn803 2.055 . S
O807 C829 1.259 . S
O808 Zn800 2.046 . S
O808 C829 1.254 . S
N809 Zn803 2.036 . S
N809 C810 1.298 . S
N809 N812 1.398 . S
C810 N809 1.298 . S
C810 N813 1.367 . S
C810 C823 1.481 . S
C811 N812 1.299 . S
C811 N813 1.379 . S
N812 N809 1.398 . S
N812 C811 1.299 . S
N813 C810 1.367 . S
N813 C811 1.379 . S
C814 N816 1.298 . S
C814 N818 1.367 . S
C814 C822 1.481 . S
C815 N817 1.299 . S
C815 N818 1.379 . S
N816 Zn800 2.036 . S
N816 C814 1.298 . S
N816 N817 1.398 . S
N817 C815 1.299 . S
N817 N816 1.398 . S
N818 C814 1.367 . S
N818 C815 1.379 . S
H819 C822 0.980 . S
H820 C822 0.981 . S
H821 C822 0.981 . S
C822 C814 1.481 . S
C822 H819 0.980 . S
C822 H820 0.981 . S
C822 H821 0.981 . S
C823 C810 1.481 . S
C823 H824 0.980 . S
C823 H825 0.981 . S
C823 H826 0.981 . S
H824 C823 0.980 . S
H825 C823 0.981 . S
H826 C823 0.981 . S
O827 Zn803 2.066 . S
O827 C806 1.256 . S
O828 Zn800 2.053 . S
O828 C806 1.244 . S
C829 O807 1.259 . S
C829 O808 1.254 . S
O830 Zn800 2.066 . S
O830 C802 1.256 . S
O831 C802 1.244 . S
O831 Zn803 2.053 . S
Zn832 O833 2.055 . S
Zn832 O840 2.046 . S
Zn832 N848 2.036 . S
Zn832 O860 2.053 . S
Zn832 O862 2.066 . S
O833 Zn832 2.055 . S
O833 C836 1.259 . S
C834 O862 1.256 . S
C834 O863 1.244 . S
Zn835 O837 2.046 . S
Zn835 O839 2.055 . S
Zn835 N841 2.036 . S
Zn835 O859 2.066 . S
Zn835 O863 2.053 . S
C836 O833 1.259 . S
C836 O837 1.254 . S
O837 Zn835 2.046 . S
O837 C836 1.254 . S
C838 O859 1.256 . S
C838 O860 1.244 . S
O839 Zn835 2.055 . S
O839 C861 1.259 . S
O840 Zn832 2.046 . S
O840 C861 1.254 . S
N841 Zn835 2.036 . S
N841 C842 1.298 . S
N841 N844 1.398 . S
C842 N841 1.298 . S
C842 N845 1.367 . S
C842 C855 1.481 . S
C843 N844 1.299 . S
C843 N845 1.379 . S
N844 N841 1.398 . S
N844 C843 1.299 . S
N845 C842 1.367 . S
N845 C843 1.379 . S
C846 N848 1.298 . S
C846 N850 1.367 . S
C846 C854 1.481 . S
C847 N849 1.299 . S
C847 N850 1.379 . S
N848 Zn832 2.036 . S
N848 C846 1.298 . S
N848 N849 1.398 . S
N849 C847 1.299 . S
N849 N848 1.398 . S
N850 C846 1.367 . S
N850 C847 1.379 . S
H851 C854 0.980 . S
H852 C854 0.981 . S
H853 C854 0.981 . S
C854 C846 1.481 . S
C854 H851 0.980 . S
C854 H852 0.981 . S
C854 H853 0.981 . S
C855 C842 1.481 . S
C855 H856 0.980 . S
C855 H857 0.981 . S
C855 H858 0.981 . S
H856 C855 0.980 . S
H857 C855 0.981 . S
H858 C855 0.981 . S
O859 Zn835 2.066 . S
O859 C838 1.256 . S
O860 Zn832 2.053 . S
O860 C838 1.244 . S
C861 O839 1.259 . S
C861 O840 1.254 . S
O862 Zn832 2.066 . S
O862 C834 1.256 . S
O863 C834 1.244 . S
O863 Zn835 2.053 . S
Zn864 O865 2.055 . S
Zn864 O872 2.046 . S
Zn864 N880 2.036 1_655 S
Zn864 O892 2.053 1_655 S
Zn864 O894 2.066 . S
O865 Zn864 2.055 . S
O865 C868 1.259 . S
C866 O894 1.256 . S
C866 O895 1.244 . S
Zn867 O869 2.046 . S
Zn867 O871 2.055 . S
Zn867 N873 2.036 . S
Zn867 O891 2.066 . S
Zn867 O895 2.053 . S
C868 O865 1.259 . S
C868 O869 1.254 . S
O869 Zn867 2.046 . S
O869 C868 1.254 . S
C870 O891 1.256 . S
C870 O892 1.244 1_655 S
O871 Zn867 2.055 . S
O871 C893 1.259 . S
O872 Zn864 2.046 . S
O872 C893 1.254 . S
N873 Zn867 2.036 . S
N873 C874 1.298 . S
N873 N876 1.398 . S
C874 N873 1.298 . S
C874 N877 1.367 . S
C874 C887 1.481 . S
C875 N876 1.299 . S
C875 N877 1.379 . S
N876 N873 1.398 . S
N876 C875 1.299 . S
N877 C874 1.367 . S
N877 C875 1.379 . S
C878 N880 1.298 . S
C878 N882 1.367 . S
C878 C886 1.481 . S
C879 N881 1.299 . S
C879 N882 1.379 . S
N880 Zn864 2.036 1_455 S
N880 C878 1.298 . S
N880 N881 1.398 . S
N881 C879 1.299 . S
N881 N880 1.398 . S
N882 C878 1.367 . S
N882 C879 1.379 . S
H883 C886 0.980 . S
H884 C886 0.981 . S
H885 C886 0.981 . S
C886 C878 1.481 . S
C886 H883 0.980 . S
C886 H884 0.981 . S
C886 H885 0.981 . S
C887 C874 1.481 . S
C887 H888 0.980 . S
C887 H889 0.981 . S
C887 H890 0.981 . S
H888 C887 0.980 . S
H889 C887 0.981 . S
H890 C887 0.981 . S
O891 Zn867 2.066 . S
O891 C870 1.256 . S
O892 Zn864 2.053 1_455 S
O892 C870 1.244 1_455 S
C893 O871 1.259 . S
C893 O872 1.254 . S
O894 Zn864 2.066 . S
O894 C866 1.256 . S
O895 C866 1.244 . S
O895 Zn867 2.053 . S
Zn896 O897 2.055 . S
Zn896 O904 2.046 . S
Zn896 N912 2.036 1_545 S
Zn896 O924 2.053 1_545 S
Zn896 O926 2.066 . S
O897 Zn896 2.055 . S
O897 C900 1.259 . S
C898 O926 1.256 1_455 S
C898 O927 1.244 1_455 S
Zn899 O901 2.046 . S
Zn899 O903 2.055 . S
Zn899 N905 2.036 . S
Zn899 O923 2.066 . S
Zn899 O927 2.053 . S
C900 O897 1.259 . S
C900 O901 1.254 . S
O901 Zn899 2.046 . S
O901 C900 1.254 . S
C902 O923 1.256 . S
C902 O924 1.244 1_545 S
O903 Zn899 2.055 . S
O903 C925 1.259 . S
O904 Zn896 2.046 . S
O904 C925 1.254 . S
N905 Zn899 2.036 . S
N905 C906 1.298 . S
N905 N908 1.398 . S
C906 N905 1.298 . S
C906 N909 1.367 . S
C906 C919 1.481 . S
C907 N908 1.299 . S
C907 N909 1.379 . S
N908 N905 1.398 . S
N908 C907 1.299 . S
N909 C906 1.367 . S
N909 C907 1.379 . S
C910 N912 1.298 . S
C910 N914 1.367 . S
C910 C918 1.481 1_655 S
C911 N913 1.299 . S
C911 N914 1.379 . S
N912 Zn896 2.036 1_565 S
N912 C910 1.298 . S
N912 N913 1.398 . S
N913 C911 1.299 . S
N913 N912 1.398 . S
N914 C910 1.367 . S
N914 C911 1.379 . S
H915 C918 0.980 1_655 S
H916 C918 0.981 . S
H917 C918 0.981 . S
C918 C910 1.481 1_455 S
C918 H915 0.980 1_455 S
C918 H916 0.981 . S
C918 H917 0.981 . S
C919 C906 1.481 . S
C919 H920 0.980 . S
C919 H921 0.981 . S
C919 H922 0.981 . S
H920 C919 0.980 . S
H921 C919 0.981 . S
H922 C919 0.981 . S
O923 Zn899 2.066 . S
O923 C902 1.256 . S
O924 Zn896 2.053 1_565 S
O924 C902 1.244 1_565 S
C925 O903 1.259 . S
C925 O904 1.254 . S
O926 Zn896 2.066 . S
O926 C898 1.256 1_655 S
O927 C898 1.244 1_655 S
O927 Zn899 2.053 . S
Zn928 O929 2.055 . S
Zn928 O936 2.046 . S
Zn928 N944 2.036 . S
Zn928 O956 2.053 . S
Zn928 O958 2.066 . S
O929 Zn928 2.055 . S
O929 C932 1.259 . S
C930 O958 1.256 . S
C930 O959 1.244 . S
Zn931 O933 2.046 . S
Zn931 O935 2.055 . S
Zn931 N937 2.036 . S
Zn931 O955 2.066 . S
Zn931 O959 2.053 . S
C932 O929 1.259 . S
C932 O933 1.254 . S
O933 Zn931 2.046 . S
O933 C932 1.254 . S
C934 O955 1.256 . S
C934 O956 1.244 . S
O935 Zn931 2.055 . S
O935 C957 1.259 . S
O936 Zn928 2.046 . S
O936 C957 1.254 . S
N937 Zn931 2.036 . S
N937 C938 1.298 . S
N937 N940 1.398 . S
C938 N937 1.298 . S
C938 N941 1.367 . S
C938 C951 1.481 . S
C939 N940 1.299 . S
C939 N941 1.379 . S
N940 N937 1.398 . S
N940 C939 1.299 . S
N941 C938 1.367 . S
N941 C939 1.379 . S
C942 N944 1.298 . S
C942 N946 1.367 . S
C942 C950 1.481 . S
C943 N945 1.299 . S
C943 N946 1.379 . S
N944 Zn928 2.036 . S
N944 C942 1.298 . S
N944 N945 1.398 . S
N945 C943 1.299 . S
N945 N944 1.398 . S
N946 C942 1.367 . S
N946 C943 1.379 . S
H947 C950 0.980 . S
H948 C950 0.981 . S
H949 C950 0.981 . S
C950 C942 1.481 . S
C950 H947 0.980 . S
C950 H948 0.981 . S
C950 H949 0.981 . S
C951 C938 1.481 . S
C951 H952 0.980 . S
C951 H953 0.981 . S
C951 H954 0.981 . S
H952 C951 0.980 . S
H953 C951 0.981 . S
H954 C951 0.981 . S
O955 Zn931 2.066 . S
O955 C934 1.256 . S
O956 Zn928 2.053 . S
O956 C934 1.244 . S
C957 O935 1.259 . S
C957 O936 1.254 . S
O958 Zn928 2.066 . S
O958 C930 1.256 . S
O959 C930 1.244 . S
O959 Zn931 2.053 . S
Zn960 O961 2.055 . S
Zn960 O968 2.046 . S
Zn960 N976 2.036 . S
Zn960 O988 2.053 . S
Zn960 O990 2.066 . S
O961 Zn960 2.055 . S
O961 C964 1.259 . S
C962 O990 1.256 . S
C962 O991 1.244 . S
Zn963 O965 2.046 . S
Zn963 O967 2.055 . S
Zn963 N969 2.036 . S
Zn963 O987 2.066 . S
Zn963 O991 2.053 . S
C964 O961 1.259 . S
C964 O965 1.254 . S
O965 Zn963 2.046 . S
O965 C964 1.254 . S
C966 O987 1.256 . S
C966 O988 1.244 . S
O967 Zn963 2.055 . S
O967 C989 1.259 . S
O968 Zn960 2.046 . S
O968 C989 1.254 . S
N969 Zn963 2.036 . S
N969 C970 1.298 . S
N969 N972 1.398 . S
C970 N969 1.298 . S
C970 N973 1.367 . S
C970 C983 1.481 . S
C971 N972 1.299 . S
C971 N973 1.379 . S
N972 N969 1.398 . S
N972 C971 1.299 . S
N973 C970 1.367 . S
N973 C971 1.379 . S
C974 N976 1.298 . S
C974 N978 1.367 . S
C974 C982 1.481 . S
C975 N977 1.299 . S
C975 N978 1.379 . S
N976 Zn960 2.036 . S
N976 C974 1.298 . S
N976 N977 1.398 . S
N977 C975 1.299 . S
N977 N976 1.398 . S
N978 C974 1.367 . S
N978 C975 1.379 . S
H979 C982 0.980 . S
H980 C982 0.981 . S
H981 C982 0.981 . S
C982 C974 1.481 . S
C982 H979 0.980 . S
C982 H980 0.981 . S
C982 H981 0.981 . S
C983 C970 1.481 . S
C983 H984 0.980 . S
C983 H985 0.981 . S
C983 H986 0.981 . S
H984 C983 0.980 . S
H985 C983 0.981 . S
H986 C983 0.981 . S
O987 Zn963 2.066 . S
O987 C966 1.256 . S
O988 Zn960 2.053 . S
O988 C966 1.244 . S
C989 O967 1.259 . S
C989 O968 1.254 . S
O990 Zn960 2.066 . S
O990 C962 1.256 . S
O991 C962 1.244 . S
O991 Zn963 2.053 . S
Zn992 O993 2.055 . S
Zn992 O1000 2.046 . S
Zn992 N1008 2.036 . S
Zn992 O1020 2.053 . S
Zn992 O1022 2.066 . S
O993 Zn992 2.055 . S
O993 C996 1.259 . S
C994 O1022 1.256 . S
C994 O1023 1.244 . S
Zn995 O997 2.046 . S
Zn995 O999 2.055 . S
Zn995 N1001 2.036 . S
Zn995 O1019 2.066 . S
Zn995 O1023 2.053 . S
C996 O993 1.259 . S
C996 O997 1.254 . S
O997 Zn995 2.046 . S
O997 C996 1.254 . S
C998 O1019 1.256 . S
C998 O1020 1.244 . S
O999 Zn995 2.055 . S
O999 C1021 1.259 . S
O1000 Zn992 2.046 . S
O1000 C1021 1.254 . S
N1001 Zn995 2.036 . S
N1001 C1002 1.298 . S
N1001 N1004 1.398 . S
C1002 N1001 1.298 . S
C1002 N1005 1.367 . S
C1002 C1015 1.481 . S
C1003 N1004 1.299 . S
C1003 N1005 1.379 . S
N1004 N1001 1.398 . S
N1004 C1003 1.299 . S
N1005 C1002 1.367 . S
N1005 C1003 1.379 . S
C1006 N1008 1.298 . S
C1006 N1010 1.367 . S
C1006 C1014 1.481 . S
C1007 N1009 1.299 . S
C1007 N1010 1.379 . S
N1008 Zn992 2.036 . S
N1008 C1006 1.298 . S
N1008 N1009 1.398 . S
N1009 C1007 1.299 . S
N1009 N1008 1.398 . S
N1010 C1006 1.367 . S
N1010 C1007 1.379 . S
H1011 C1014 0.980 . S
H1012 C1014 0.981 . S
H1013 C1014 0.981 . S
C1014 C1006 1.481 . S
C1014 H1011 0.980 . S
C1014 H1012 0.981 . S
C1014 H1013 0.981 . S
C1015 C1002 1.481 . S
C1015 H1016 0.980 . S
C1015 H1017 0.981 . S
C1015 H1018 0.981 . S
H1016 C1015 0.980 . S
H1017 C1015 0.981 . S
H1018 C1015 0.981 . S
O1019 Zn995 2.066 . S
O1019 C998 1.256 . S
O1020 Zn992 2.053 . S
O1020 C998 1.244 . S
C1021 O999 1.259 . S
C1021 O1000 1.254 . S
O1022 Zn992 2.066 . S
O1022 C994 1.256 . S
O1023 C994 1.244 . S
O1023 Zn995 2.053 . S
Zn1024 O1025 2.055 . S
Zn1024 O1032 2.046 . S
Zn1024 N1040 2.036 . S
Zn1024 O1052 2.053 . S
Zn1024 O1054 2.066 . S
O1025 Zn1024 2.055 . S
O1025 C1028 1.259 . S
C1026 O1054 1.256 1_545 S
C1026 O1055 1.244 1_545 S
Zn1027 O1029 2.046 . S
Zn1027 O1031 2.055 . S
Zn1027 N1033 2.036 . S
Zn1027 O1051 2.066 . S
Zn1027 O1055 2.053 . S
C1028 O1025 1.259 . S
C1028 O1029 1.254 . S
O1029 Zn1027 2.046 . S
O1029 C1028 1.254 . S
C1030 O1051 1.256 . S
C1030 O1052 1.244 . S
O1031 Zn1027 2.055 . S
O1031 C1053 1.259 . S
O1032 Zn1024 2.046 . S
O1032 C1053 1.254 . S
N1033 Zn1027 2.036 . S
N1033 C1034 1.298 . S
N1033 N1036 1.398 . S
C1034 N1033 1.298 . S
C1034 N1037 1.367 . S
C1034 C1047 1.481 . S
C1035 N1036 1.299 . S
C1035 N1037 1.379 . S
N1036 N1033 1.398 . S
N1036 C1035 1.299 . S
N1037 C1034 1.367 . S
N1037 C1035 1.379 . S
C1038 N1040 1.298 . S
C1038 N1042 1.367 . S
C1038 C1046 1.481 1_565 S
C1039 N1041 1.299 . S
C1039 N1042 1.379 . S
N1040 Zn1024 2.036 . S
N1040 C1038 1.298 . S
N1040 N1041 1.398 . S
N1041 C1039 1.299 . S
N1041 N1040 1.398 . S
N1042 C1038 1.367 . S
N1042 C1039 1.379 . S
H1043 C1046 0.980 1_565 S
H1044 C1046 0.981 . S
H1045 C1046 0.981 . S
C1046 C1038 1.481 1_545 S
C1046 H1043 0.980 1_545 S
C1046 H1044 0.981 . S
C1046 H1045 0.981 . S
C1047 C1034 1.481 . S
C1047 H1048 0.980 . S
C1047 H1049 0.981 . S
C1047 H1050 0.981 . S
H1048 C1047 0.980 . S
H1049 C1047 0.981 . S
H1050 C1047 0.981 . S
O1051 Zn1027 2.066 . S
O1051 C1030 1.256 . S
O1052 Zn1024 2.053 . S
O1052 C1030 1.244 . S
C1053 O1031 1.259 . S
C1053 O1032 1.254 . S
O1054 Zn1024 2.066 . S
O1054 C1026 1.256 1_565 S
O1055 C1026 1.244 1_565 S
O1055 Zn1027 2.053 . S
Zn1056 O1057 2.055 . S
Zn1056 O1064 2.046 . S
Zn1056 N1072 2.036 . S
Zn1056 O1084 2.053 . S
Zn1056 O1086 2.066 . S
O1057 Zn1056 2.055 . S
O1057 C1060 1.259 . S
C1058 O1086 1.256 . S
C1058 O1087 1.244 . S
Zn1059 O1061 2.046 . S
Zn1059 O1063 2.055 . S
Zn1059 N1065 2.036 . S
Zn1059 O1083 2.066 . S
Zn1059 O1087 2.053 . S
C1060 O1057 1.259 . S
C1060 O1061 1.254 . S
O1061 Zn1059 2.046 . S
O1061 C1060 1.254 . S
C1062 O1083 1.256 . S
C1062 O1084 1.244 . S
O1063 Zn1059 2.055 . S
O1063 C1085 1.259 . S
O1064 Zn1056 2.046 . S
O1064 C1085 1.254 . S
N1065 Zn1059 2.036 . S
N1065 C1066 1.298 . S
N1065 N1068 1.398 . S
C1066 N1065 1.298 . S
C1066 N1069 1.367 . S
C1066 C1079 1.481 . S
C1067 N1068 1.299 . S
C1067 N1069 1.379 . S
N1068 N1065 1.398 . S
N1068 C1067 1.299 . S
N1069 C1066 1.367 . S
N1069 C1067 1.379 . S
C1070 N1072 1.298 . S
C1070 N1074 1.367 . S
C1070 C1078 1.481 . S
C1071 N1073 1.299 . S
C1071 N1074 1.379 . S
N1072 Zn1056 2.036 . S
N1072 C1070 1.298 . S
N1072 N1073 1.398 . S
N1073 C1071 1.299 . S
N1073 N1072 1.398 . S
N1074 C1070 1.367 . S
N1074 C1071 1.379 . S
H1075 C1078 0.980 . S
H1076 C1078 0.981 . S
H1077 C1078 0.981 . S
C1078 C1070 1.481 . S
C1078 H1075 0.980 . S
C1078 H1076 0.981 . S
C1078 H1077 0.981 . S
C1079 C1066 1.481 . S
C1079 H1080 0.980 . S
C1079 H1081 0.981 . S
C1079 H1082 0.981 . S
H1080 C1079 0.980 . S
H1081 C1079 0.981 . S
H1082 C1079 0.981 . S
O1083 Zn1059 2.066 . S
O1083 C1062 1.256 . S
O1084 Zn1056 2.053 . S
O1084 C1062 1.244 . S
C1085 O1063 1.259 . S
C1085 O1064 1.254 . S
O1086 Zn1056 2.066 . S
O1086 C1058 1.256 . S
O1087 C1058 1.244 . S
O1087 Zn1059 2.053 . S
Zn1088 O1089 2.055 . S
Zn1088 O1096 2.046 . S
Zn1088 N1104 2.036 . S
Zn1088 O1116 2.053 . S
Zn1088 O1118 2.066 . S
O1089 Zn1088 2.055 . S
O1089 C1092 1.259 . S
C1090 O1118 1.256 . S
C1090 O1119 1.244 . S
Zn1091 O1093 2.046 . S
Zn1091 O1095 2.055 . S
Zn1091 N1097 2.036 . S
Zn1091 O1115 2.066 . S
Zn1091 O1119 2.053 . S
C1092 O1089 1.259 . S
C1092 O1093 1.254 . S
O1093 Zn1091 2.046 . S
O1093 C1092 1.254 . S
C1094 O1115 1.256 . S
C1094 O1116 1.244 . S
O1095 Zn1091 2.055 . S
O1095 C1117 1.259 . S
O1096 Zn1088 2.046 . S
O1096 C1117 1.254 . S
N1097 Zn1091 2.036 . S
N1097 C1098 1.298 . S
N1097 N1100 1.398 . S
C1098 N1097 1.298 . S
C1098 N1101 1.367 . S
C1098 C1111 1.481 . S
C1099 N1100 1.299 . S
C1099 N1101 1.379 . S
N1100 N1097 1.398 . S
N1100 C1099 1.299 . S
N1101 C1098 1.367 . S
N1101 C1099 1.379 . S
C1102 N1104 1.298 . S
C1102 N1106 1.367 . S
C1102 C1110 1.481 . S
C1103 N1105 1.299 . S
C1103 N1106 1.379 . S
N1104 Zn1088 2.036 . S
N1104 C1102 1.298 . S
N1104 N1105 1.398 . S
N1105 C1103 1.299 . S
N1105 N1104 1.398 . S
N1106 C1102 1.367 . S
N1106 C1103 1.379 . S
H1107 C1110 0.980 . S
H1108 C1110 0.981 . S
H1109 C1110 0.981 . S
C1110 C1102 1.481 . S
C1110 H1107 0.980 . S
C1110 H1108 0.981 . S
C1110 H1109 0.981 . S
C1111 C1098 1.481 . S
C1111 H1112 0.980 . S
C1111 H1113 0.981 . S
C1111 H1114 0.981 . S
H1112 C1111 0.980 . S
H1113 C1111 0.981 . S
H1114 C1111 0.981 . S
O1115 Zn1091 2.066 . S
O1115 C1094 1.256 . S
O1116 Zn1088 2.053 . S
O1116 C1094 1.244 . S
C1117 O1095 1.259 . S
C1117 O1096 1.254 . S
O1118 Zn1088 2.066 . S
O1118 C1090 1.256 . S
O1119 C1090 1.244 . S
O1119 Zn1091 2.053 . S
Zn1120 O1121 2.055 . S
Zn1120 O1128 2.046 . S
Zn1120 N1136 2.036 . S
Zn1120 O1148 2.053 . S
Zn1120 O1150 2.066 . S
O1121 Zn1120 2.055 . S
O1121 C1124 1.259 . S
C1122 O1150 1.256 . S
C1122 O1151 1.244 1_556 S
Zn1123 O1125 2.046 . S
Zn1123 O1127 2.055 . S
Zn1123 N1129 2.036 1_556 S
Zn1123 O1147 2.066 . S
Zn1123 O1151 2.053 1_556 S
C1124 O1121 1.259 . S
C1124 O1125 1.254 . S
O1125 Zn1123 2.046 . S
O1125 C1124 1.254 . S
C1126 O1147 1.256 . S
C1126 O1148 1.244 . S
O1127 Zn1123 2.055 . S
O1127 C1149 1.259 . S
O1128 Zn1120 2.046 . S
O1128 C1149 1.254 . S
N1129 Zn1123 2.036 1_554 S
N1129 C1130 1.298 . S
N1129 N1132 1.398 . S
C1130 N1129 1.298 . S
C1130 N1133 1.367 . S
C1130 C1143 1.481 . S
C1131 N1132 1.299 . S
C1131 N1133 1.379 . S
N1132 N1129 1.398 . S
N1132 C1131 1.299 . S
N1133 C1130 1.367 . S
N1133 C1131 1.379 . S
C1134 N1136 1.298 . S
C1134 N1138 1.367 . S
C1134 C1142 1.481 . S
C1135 N1137 1.299 . S
C1135 N1138 1.379 . S
N1136 Zn1120 2.036 . S
N1136 C1134 1.298 . S
N1136 N1137 1.398 . S
N1137 C1135 1.299 . S
N1137 N1136 1.398 . S
N1138 C1134 1.367 . S
N1138 C1135 1.379 . S
H1139 C1142 0.980 . S
H1140 C1142 0.981 . S
H1141 C1142 0.981 . S
C1142 C1134 1.481 . S
C1142 H1139 0.980 . S
C1142 H1140 0.981 . S
C1142 H1141 0.981 . S
C1143 C1130 1.481 . S
C1143 H1144 0.980 . S
C1143 H1145 0.981 . S
C1143 H1146 0.981 . S
H1144 C1143 0.980 . S
H1145 C1143 0.981 . S
H1146 C1143 0.981 . S
O1147 Zn1123 2.066 . S
O1147 C1126 1.256 . S
O1148 Zn1120 2.053 . S
O1148 C1126 1.244 . S
C1149 O1127 1.259 . S
C1149 O1128 1.254 . S
O1150 Zn1120 2.066 . S
O1150 C1122 1.256 . S
O1151 C1122 1.244 1_554 S
O1151 Zn1123 2.053 1_554 S
Zn1152 O1153 2.055 . S
Zn1152 O1160 2.046 . S
Zn1152 N1168 2.036 . S
Zn1152 O1180 2.053 . S
Zn1152 O1182 2.066 . S
O1153 Zn1152 2.055 . S
O1153 C1156 1.259 . S
C1154 O1182 1.256 . S
C1154 O1183 1.244 1_554 S
Zn1155 O1157 2.046 . S
Zn1155 O1159 2.055 . S
Zn1155 N1161 2.036 1_554 S
Zn1155 O1179 2.066 . S
Zn1155 O1183 2.053 1_554 S
C1156 O1153 1.259 . S
C1156 O1157 1.254 . S
O1157 Zn1155 2.046 . S
O1157 C1156 1.254 . S
C1158 O1179 1.256 . S
C1158 O1180 1.244 . S
O1159 Zn1155 2.055 . S
O1159 C1181 1.259 . S
O1160 Zn1152 2.046 . S
O1160 C1181 1.254 . S
N1161 Zn1155 2.036 1_556 S
N1161 C1162 1.298 . S
N1161 N1164 1.398 . S
C1162 N1161 1.298 . S
C1162 N1165 1.367 . S
C1162 C1175 1.481 . S
C1163 N1164 1.299 . S
C1163 N1165 1.379 . S
N1164 N1161 1.398 . S
N1164 C1163 1.299 . S
N1165 C1162 1.367 . S
N1165 C1163 1.379 . S
C1166 N1168 1.298 . S
C1166 N1170 1.367 . S
C1166 C1174 1.481 . S
C1167 N1169 1.299 . S
C1167 N1170 1.379 . S
N1168 Zn1152 2.036 . S
N1168 C1166 1.298 . S
N1168 N1169 1.398 . S
N1169 C1167 1.299 . S
N1169 N1168 1.398 . S
N1170 C1166 1.367 . S
N1170 C1167 1.379 . S
H1171 C1174 0.980 . S
H1172 C1174 0.981 . S
H1173 C1174 0.981 . S
C1174 C1166 1.481 . S
C1174 H1171 0.980 . S
C1174 H1172 0.981 . S
C1174 H1173 0.981 . S
C1175 C1162 1.481 . S
C1175 H1176 0.980 . S
C1175 H1177 0.981 . S
C1175 H1178 0.981 . S
H1176 C1175 0.980 . S
H1177 C1175 0.981 . S
H1178 C1175 0.981 . S
O1179 Zn1155 2.066 . S
O1179 C1158 1.256 . S
O1180 Zn1152 2.053 . S
O1180 C1158 1.244 . S
C1181 O1159 1.259 . S
C1181 O1160 1.254 . S
O1182 Zn1152 2.066 . S
O1182 C1154 1.256 . S
O1183 C1154 1.244 1_556 S
O1183 Zn1155 2.053 1_556 S
Zn1184 O1185 2.055 . S
Zn1184 O1192 2.046 . S
Zn1184 N1200 2.036 . S
Zn1184 O1212 2.053 . S
Zn1184 O1214 2.066 . S
O1185 Zn1184 2.055 . S
O1185 C1188 1.259 . S
C1186 O1214 1.256 . S
C1186 O1215 1.244 . S
Zn1187 O1189 2.046 . S
Zn1187 O1191 2.055 . S
Zn1187 N1193 2.036 . S
Zn1187 O1211 2.066 . S
Zn1187 O1215 2.053 . S
C1188 O1185 1.259 . S
C1188 O1189 1.254 . S
O1189 Zn1187 2.046 . S
O1189 C1188 1.254 . S
C1190 O1211 1.256 . S
C1190 O1212 1.244 . S
O1191 Zn1187 2.055 . S
O1191 C1213 1.259 . S
O1192 Zn1184 2.046 . S
O1192 C1213 1.254 . S
N1193 Zn1187 2.036 . S
N1193 C1194 1.298 . S
N1193 N1196 1.398 . S
C1194 N1193 1.298 . S
C1194 N1197 1.367 . S
C1194 C1207 1.481 . S
C1195 N1196 1.299 . S
C1195 N1197 1.379 . S
N1196 N1193 1.398 . S
N1196 C1195 1.299 . S
N1197 C1194 1.367 . S
N1197 C1195 1.379 . S
C1198 N1200 1.298 . S
C1198 N1202 1.367 . S
C1198 C1206 1.481 . S
C1199 N1201 1.299 . S
C1199 N1202 1.379 . S
N1200 Zn1184 2.036 . S
N1200 C1198 1.298 . S
N1200 N1201 1.398 . S
N1201 C1199 1.299 . S
N1201 N1200 1.398 . S
N1202 C1198 1.367 . S
N1202 C1199 1.379 . S
H1203 C1206 0.980 . S
H1204 C1206 0.981 . S
H1205 C1206 0.981 . S
C1206 C1198 1.481 . S
C1206 H1203 0.980 . S
C1206 H1204 0.981 . S
C1206 H1205 0.981 . S
C1207 C1194 1.481 . S
C1207 H1208 0.980 . S
C1207 H1209 0.981 . S
C1207 H1210 0.981 . S
H1208 C1207 0.980 . S
H1209 C1207 0.981 . S
H1210 C1207 0.981 . S
O1211 Zn1187 2.066 . S
O1211 C1190 1.256 . S
O1212 Zn1184 2.053 . S
O1212 C1190 1.244 . S
C1213 O1191 1.259 . S
C1213 O1192 1.254 . S
O1214 Zn1184 2.066 . S
O1214 C1186 1.256 . S
O1215 C1186 1.244 . S
O1215 Zn1187 2.053 . S
Zn1216 O1217 2.055 . S
Zn1216 O1224 2.046 . S
Zn1216 N1232 2.036 . S
Zn1216 O1244 2.053 . S
Zn1216 O1246 2.066 . S
O1217 Zn1216 2.055 . S
O1217 C1220 1.259 . S
C1218 O1246 1.256 . S
C1218 O1247 1.244 . S
Zn1219 O1221 2.046 . S
Zn1219 O1223 2.055 . S
Zn1219 N1225 2.036 . S
Zn1219 O1243 2.066 . S
Zn1219 O1247 2.053 . S
C1220 O1217 1.259 . S
C1220 O1221 1.254 . S
O1221 Zn1219 2.046 . S
O1221 C1220 1.254 . S
C1222 O1243 1.256 . S
C1222 O1244 1.244 . S
O1223 Zn1219 2.055 . S
O1223 C1245 1.259 . S
O1224 Zn1216 2.046 . S
O1224 C1245 1.254 . S
N1225 Zn1219 2.036 . S
N1225 C1226 1.298 . S
N1225 N1228 1.398 . S
C1226 N1225 1.298 . S
C1226 N1229 1.367 . S
C1226 C1239 1.481 . S
C1227 N1228 1.299 . S
C1227 N1229 1.379 . S
N1228 N1225 1.398 . S
N1228 C1227 1.299 . S
N1229 C1226 1.367 . S
N1229 C1227 1.379 . S
C1230 N1232 1.298 . S
C1230 N1234 1.367 . S
C1230 C1238 1.481 . S
C1231 N1233 1.299 . S
C1231 N1234 1.379 . S
N1232 Zn1216 2.036 . S
N1232 C1230 1.298 . S
N1232 N1233 1.398 . S
N1233 C1231 1.299 . S
N1233 N1232 1.398 . S
N1234 C1230 1.367 . S
N1234 C1231 1.379 . S
H1235 C1238 0.980 . S
H1236 C1238 0.981 . S
H1237 C1238 0.981 . S
C1238 C1230 1.481 . S
C1238 H1235 0.980 . S
C1238 H1236 0.981 . S
C1238 H1237 0.981 . S
C1239 C1226 1.481 . S
C1239 H1240 0.980 . S
C1239 H1241 0.981 . S
C1239 H1242 0.981 . S
H1240 C1239 0.980 . S
H1241 C1239 0.981 . S
H1242 C1239 0.981 . S
O1243 Zn1219 2.066 . S
O1243 C1222 1.256 . S
O1244 Zn1216 2.053 . S
O1244 C1222 1.244 . S
C1245 O1223 1.259 . S
C1245 O1224 1.254 . S
O1246 Zn1216 2.066 . S
O1246 C1218 1.256 . S
O1247 C1218 1.244 . S
O1247 Zn1219 2.053 . S
Zn1248 O1249 2.055 . S
Zn1248 O1256 2.046 . S
Zn1248 N1264 2.036 . S
Zn1248 O1276 2.053 . S
Zn1248 O1278 2.066 . S
O1249 Zn1248 2.055 . S
O1249 C1252 1.259 . S
C1250 O1278 1.256 1_655 S
C1250 O1279 1.244 1_655 S
Zn1251 O1253 2.046 . S
Zn1251 O1255 2.055 . S
Zn1251 N1257 2.036 . S
Zn1251 O1275 2.066 . S
Zn1251 O1279 2.053 . S
C1252 O1249 1.259 . S
C1252 O1253 1.254 . S
O1253 Zn1251 2.046 . S
O1253 C1252 1.254 . S
C1254 O1275 1.256 . S
C1254 O1276 1.244 . S
O1255 Zn1251 2.055 . S
O1255 C1277 1.259 . S
O1256 Zn1248 2.046 . S
O1256 C1277 1.254 . S
N1257 Zn1251 2.036 . S
N1257 C1258 1.298 . S
N1257 N1260 1.398 . S
C1258 N1257 1.298 . S
C1258 N1261 1.367 . S
C1258 C1271 1.481 . S
C1259 N1260 1.299 . S
C1259 N1261 1.379 . S
N1260 N1257 1.398 . S
N1260 C1259 1.299 . S
N1261 C1258 1.367 . S
N1261 C1259 1.379 . S
C1262 N1264 1.298 . S
C1262 N1266 1.367 . S
C1262 C1270 1.481 1_455 S
C1263 N1265 1.299 . S
C1263 N1266 1.379 . S
N1264 Zn1248 2.036 . S
N1264 C1262 1.298 . S
N1264 N1265 1.398 . S
N1265 C1263 1.299 . S
N1265 N1264 1.398 . S
N1266 C1262 1.367 . S
N1266 C1263 1.379 . S
H1267 C1270 0.980 1_455 S
H1268 C1270 0.981 . S
H1269 C1270 0.981 . S
C1270 C1262 1.481 1_655 S
C1270 H1267 0.980 1_655 S
C1270 H1268 0.981 . S
C1270 H1269 0.981 . S
C1271 C1258 1.481 . S
C1271 H1272 0.980 . S
C1271 H1273 0.981 . S
C1271 H1274 0.981 . S
H1272 C1271 0.980 . S
H1273 C1271 0.981 . S
H1274 C1271 0.981 . S
O1275 Zn1251 2.066 . S
O1275 C1254 1.256 . S
O1276 Zn1248 2.053 . S
O1276 C1254 1.244 . S
C1277 O1255 1.259 . S
C1277 O1256 1.254 . S
O1278 Zn1248 2.066 . S
O1278 C1250 1.256 1_455 S
O1279 C1250 1.244 1_455 S
O1279 Zn1251 2.053 . S
Zn1280 O1281 2.055 . S
Zn1280 O1288 2.046 . S
Zn1280 N1296 2.036 . S
Zn1280 O1308 2.053 . S
Zn1280 O1310 2.066 . S
O1281 Zn1280 2.055 . S
O1281 C1284 1.259 . S
C1282 O1310 1.256 1_554 S
C1282 O1311 1.244 1_554 S
Zn1283 O1285 2.046 . S
Zn1283 O1287 2.055 . S
Zn1283 N1289 2.036 . S
Zn1283 O1307 2.066 . S
Zn1283 O1311 2.053 . S
C1284 O1281 1.259 . S
C1284 O1285 1.254 . S
O1285 Zn1283 2.046 . S
O1285 C1284 1.254 . S
C1286 O1307 1.256 . S
C1286 O1308 1.244 . S
O1287 Zn1283 2.055 . S
O1287 C1309 1.259 . S
O1288 Zn1280 2.046 . S
O1288 C1309 1.254 . S
N1289 Zn1283 2.036 . S
N1289 C1290 1.298 . S
N1289 N1292 1.398 . S
C1290 N1289 1.298 . S
C1290 N1293 1.367 . S
C1290 C1303 1.481 . S
C1291 N1292 1.299 . S
C1291 N1293 1.379 . S
N1292 N1289 1.398 . S
N1292 C1291 1.299 . S
N1293 C1290 1.367 . S
N1293 C1291 1.379 . S
C1294 N1296 1.298 . S
C1294 N1298 1.367 . S
C1294 C1302 1.481 1_556 S
C1295 N1297 1.299 . S
C1295 N1298 1.379 . S
N1296 Zn1280 2.036 . S
N1296 C1294 1.298 . S
N1296 N1297 1.398 . S
N1297 C1295 1.299 . S
N1297 N1296 1.398 . S
N1298 C1294 1.367 . S
N1298 C1295 1.379 . S
H1299 C1302 0.980 1_556 S
H1300 C1302 0.981 . S
H1301 C1302 0.981 . S
C1302 C1294 1.481 1_554 S
C1302 H1299 0.980 1_554 S
C1302 H1300 0.981 . S
C1302 H1301 0.981 . S
C1303 C1290 1.481 . S
C1303 H1304 0.980 . S
C1303 H1305 0.981 . S
C1303 H1306 0.981 . S
H1304 C1303 0.980 . S
H1305 C1303 0.981 . S
H1306 C1303 0.981 . S
O1307 Zn1283 2.066 . S
O1307 C1286 1.256 . S
O1308 Zn1280 2.053 . S
O1308 C1286 1.244 . S
C1309 O1287 1.259 . S
C1309 O1288 1.254 . S
O1310 Zn1280 2.066 . S
O1310 C1282 1.256 1_556 S
O1311 C1282 1.244 1_556 S
O1311 Zn1283 2.053 . S
Zn1312 O1313 2.055 . S
Zn1312 O1320 2.046 . S
Zn1312 N1328 2.036 . S
Zn1312 O1340 2.053 . S
Zn1312 O1342 2.066 . S
O1313 Zn1312 2.055 . S
O1313 C1316 1.259 . S
C1314 O1342 1.256 . S
C1314 O1343 1.244 . S
Zn1315 O1317 2.046 . S
Zn1315 O1319 2.055 . S
Zn1315 N1321 2.036 . S
Zn1315 O1339 2.066 . S
Zn1315 O1343 2.053 . S
C1316 O1313 1.259 . S
C1316 O1317 1.254 . S
O1317 Zn1315 2.046 . S
O1317 C1316 1.254 . S
C1318 O1339 1.256 . S
C1318 O1340 1.244 . S
O1319 Zn1315 2.055 . S
O1319 C1341 1.259 . S
O1320 Zn1312 2.046 . S
O1320 C1341 1.254 . S
N1321 Zn1315 2.036 . S
N1321 C1322 1.298 . S
N1321 N1324 1.398 . S
C1322 N1321 1.298 . S
C1322 N1325 1.367 . S
C1322 C1335 1.481 . S
C1323 N1324 1.299 . S
C1323 N1325 1.379 . S
N1324 N1321 1.398 . S
N1324 C1323 1.299 . S
N1325 C1322 1.367 . S
N1325 C1323 1.379 . S
C1326 N1328 1.298 . S
C1326 N1330 1.367 . S
C1326 C1334 1.481 . S
C1327 N1329 1.299 . S
C1327 N1330 1.379 . S
N1328 Zn1312 2.036 . S
N1328 C1326 1.298 . S
N1328 N1329 1.398 . S
N1329 C1327 1.299 . S
N1329 N1328 1.398 . S
N1330 C1326 1.367 . S
N1330 C1327 1.379 . S
H1331 C1334 0.980 . S
H1332 C1334 0.981 . S
H1333 C1334 0.981 . S
C1334 C1326 1.481 . S
C1334 H1331 0.980 . S
C1334 H1332 0.981 . S
C1334 H1333 0.981 . S
C1335 C1322 1.481 . S
C1335 H1336 0.980 . S
C1335 H1337 0.981 . S
C1335 H1338 0.981 . S
H1336 C1335 0.980 . S
H1337 C1335 0.981 . S
H1338 C1335 0.981 . S
O1339 Zn1315 2.066 . S
O1339 C1318 1.256 . S
O1340 Zn1312 2.053 . S
O1340 C1318 1.244 . S
C1341 O1319 1.259 . S
C1341 O1320 1.254 . S
O1342 Zn1312 2.066 . S
O1342 C1314 1.256 . S
O1343 C1314 1.244 . S
O1343 Zn1315 2.053 . S
Zn1344 O1345 2.055 . S
Zn1344 O1352 2.046 . S
Zn1344 N1360 2.036 1_565 S
Zn1344 O1372 2.053 1_565 S
Zn1344 O1374 2.066 . S
O1345 Zn1344 2.055 . S
O1345 C1348 1.259 . S
C1346 O1374 1.256 1_556 S
C1346 O1375 1.244 1_556 S
Zn1347 O1349 2.046 . S
Zn1347 O1351 2.055 . S
Zn1347 N1353 2.036 . S
Zn1347 O1371 2.066 . S
Zn1347 O1375 2.053 . S
C1348 O1345 1.259 . S
C1348 O1349 1.254 . S
O1349 Zn1347 2.046 . S
O1349 C1348 1.254 . S
C1350 O1371 1.256 . S
C1350 O1372 1.244 1_565 S
O1351 Zn1347 2.055 . S
O1351 C1373 1.259 . S
O1352 Zn1344 2.046 . S
O1352 C1373 1.254 . S
N1353 Zn1347 2.036 . S
N1353 C1354 1.298 . S
N1353 N1356 1.398 . S
C1354 N1353 1.298 . S
C1354 N1357 1.367 . S
C1354 C1367 1.481 . S
C1355 N1356 1.299 . S
C1355 N1357 1.379 . S
N1356 N1353 1.398 . S
N1356 C1355 1.299 . S
N1357 C1354 1.367 . S
N1357 C1355 1.379 . S
C1358 N1360 1.298 . S
C1358 N1362 1.367 . S
C1358 C1366 1.481 1_554 S
C1359 N1361 1.299 . S
C1359 N1362 1.379 . S
N1360 Zn1344 2.036 1_545 S
N1360 C1358 1.298 . S
N1360 N1361 1.398 . S
N1361 C1359 1.299 . S
N1361 N1360 1.398 . S
N1362 C1358 1.367 . S
N1362 C1359 1.379 . S
H1363 C1366 0.980 1_554 S
H1364 C1366 0.981 . S
H1365 C1366 0.981 . S
C1366 C1358 1.481 1_556 S
C1366 H1363 0.980 1_556 S
C1366 H1364 0.981 . S
C1366 H1365 0.981 . S
C1367 C1354 1.481 . S
C1367 H1368 0.980 . S
C1367 H1369 0.981 . S
C1367 H1370 0.981 . S
H1368 C1367 0.980 . S
H1369 C1367 0.981 . S
H1370 C1367 0.981 . S
O1371 Zn1347 2.066 . S
O1371 C1350 1.256 . S
O1372 Zn1344 2.053 1_545 S
O1372 C1350 1.244 1_545 S
C1373 O1351 1.259 . S
C1373 O1352 1.254 . S
O1374 Zn1344 2.066 . S
O1374 C1346 1.256 1_554 S
O1375 C1346 1.244 1_554 S
O1375 Zn1347 2.053 . S
Zn1376 O1377 2.055 . S
Zn1376 O1384 2.046 . S
Zn1376 N1392 2.036 . S
Zn1376 O1404 2.053 . S
Zn1376 O1406 2.066 . S
O1377 Zn1376 2.055 . S
O1377 C1380 1.259 . S
C1378 O1406 1.256 . S
C1378 O1407 1.244 . S
Zn1379 O1381 2.046 . S
Zn1379 O1383 2.055 . S
Zn1379 N1385 2.036 . S
Zn1379 O1403 2.066 . S
Zn1379 O1407 2.053 . S
C1380 O1377 1.259 . S
C1380 O1381 1.254 . S
O1381 Zn1379 2.046 . S
O1381 C1380 1.254 . S
C1382 O1403 1.256 . S
C1382 O1404 1.244 . S
O1383 Zn1379 2.055 . S
O1383 C1405 1.259 . S
O1384 Zn1376 2.046 . S
O1384 C1405 1.254 . S
N1385 Zn1379 2.036 . S
N1385 C1386 1.298 . S
N1385 N1388 1.398 . S
C1386 N1385 1.298 . S
C1386 N1389 1.367 . S
C1386 C1399 1.481 . S
C1387 N1388 1.299 . S
C1387 N1389 1.379 . S
N1388 N1385 1.398 . S
N1388 C1387 1.299 . S
N1389 C1386 1.367 . S
N1389 C1387 1.379 . S
C1390 N1392 1.298 . S
C1390 N1394 1.367 . S
C1390 C1398 1.481 . S
C1391 N1393 1.299 . S
C1391 N1394 1.379 . S
N1392 Zn1376 2.036 . S
N1392 C1390 1.298 . S
N1392 N1393 1.398 . S
N1393 C1391 1.299 . S
N1393 N1392 1.398 . S
N1394 C1390 1.367 . S
N1394 C1391 1.379 . S
H1395 C1398 0.980 . S
H1396 C1398 0.981 . S
H1397 C1398 0.981 . S
C1398 C1390 1.481 . S
C1398 H1395 0.980 . S
C1398 H1396 0.981 . S
C1398 H1397 0.981 . S
C1399 C1386 1.481 . S
C1399 H1400 0.980 . S
C1399 H1401 0.981 . S
C1399 H1402 0.981 . S
H1400 C1399 0.980 . S
H1401 C1399 0.981 . S
H1402 C1399 0.981 . S
O1403 Zn1379 2.066 . S
O1403 C1382 1.256 . S
O1404 Zn1376 2.053 . S
O1404 C1382 1.244 . S
C1405 O1383 1.259 . S
C1405 O1384 1.254 . S
O1406 Zn1376 2.066 . S
O1406 C1378 1.256 . S
O1407 C1378 1.244 . S
O1407 Zn1379 2.053 . S
Zn1408 O1409 2.055 . S
Zn1408 O1416 2.046 . S
Zn1408 N1424 2.036 . S
Zn1408 O1436 2.053 . S
Zn1408 O1438 2.066 . S
O1409 Zn1408 2.055 . S
O1409 C1412 1.259 . S
C1410 O1438 1.256 . S
C1410 O1439 1.244 . S
Zn1411 O1413 2.046 . S
Zn1411 O1415 2.055 . S
Zn1411 N1417 2.036 . S
Zn1411 O1435 2.066 . S
Zn1411 O1439 2.053 . S
C1412 O1409 1.259 . S
C1412 O1413 1.254 . S
O1413 Zn1411 2.046 . S
O1413 C1412 1.254 . S
C1414 O1435 1.256 . S
C1414 O1436 1.244 . S
O1415 Zn1411 2.055 . S
O1415 C1437 1.259 . S
O1416 Zn1408 2.046 . S
O1416 C1437 1.254 . S
N1417 Zn1411 2.036 . S
N1417 C1418 1.298 . S
N1417 N1420 1.398 . S
C1418 N1417 1.298 . S
C1418 N1421 1.367 . S
C1418 C1431 1.481 . S
C1419 N1420 1.299 . S
C1419 N1421 1.379 . S
N1420 N1417 1.398 . S
N1420 C1419 1.299 . S
N1421 C1418 1.367 . S
N1421 C1419 1.379 . S
C1422 N1424 1.298 . S
C1422 N1426 1.367 . S
C1422 C1430 1.481 . S
C1423 N1425 1.299 . S
C1423 N1426 1.379 . S
N1424 Zn1408 2.036 . S
N1424 C1422 1.298 . S
N1424 N1425 1.398 . S
N1425 C1423 1.299 . S
N1425 N1424 1.398 . S
N1426 C1422 1.367 . S
N1426 C1423 1.379 . S
H1427 C1430 0.980 . S
H1428 C1430 0.981 . S
H1429 C1430 0.981 . S
C1430 C1422 1.481 . S
C1430 H1427 0.980 . S
C1430 H1428 0.981 . S
C1430 H1429 0.981 . S
C1431 C1418 1.481 . S
C1431 H1432 0.980 . S
C1431 H1433 0.981 . S
C1431 H1434 0.981 . S
H1432 C1431 0.980 . S
H1433 C1431 0.981 . S
H1434 C1431 0.981 . S
O1435 Zn1411 2.066 . S
O1435 C1414 1.256 . S
O1436 Zn1408 2.053 . S
O1436 C1414 1.244 . S
C1437 O1415 1.259 . S
C1437 O1416 1.254 . S
O1438 Zn1408 2.066 . S
O1438 C1410 1.256 . S
O1439 C1410 1.244 . S
O1439 Zn1411 2.053 . S
Zn1440 O1441 2.055 . S
Zn1440 O1448 2.046 . S
Zn1440 N1456 2.036 1_455 S
Zn1440 O1468 2.053 1_455 S
Zn1440 O1470 2.066 . S
O1441 Zn1440 2.055 . S
O1441 C1444 1.259 . S
C1442 O1470 1.256 1_554 S
C1442 O1471 1.244 1_554 S
Zn1443 O1445 2.046 . S
Zn1443 O1447 2.055 . S
Zn1443 N1449 2.036 . S
Zn1443 O1467 2.066 . S
Zn1443 O1471 2.053 . S
C1444 O1441 1.259 . S
C1444 O1445 1.254 . S
O1445 Zn1443 2.046 . S
O1445 C1444 1.254 . S
C1446 O1467 1.256 . S
C1446 O1468 1.244 1_455 S
O1447 Zn1443 2.055 . S
O1447 C1469 1.259 . S
O1448 Zn1440 2.046 . S
O1448 C1469 1.254 . S
N1449 Zn1443 2.036 . S
N1449 C1450 1.298 . S
N1449 N1452 1.398 . S
C1450 N1449 1.298 . S
C1450 N1453 1.367 . S
C1450 C1463 1.481 . S
C1451 N1452 1.299 . S
C1451 N1453 1.379 . S
N1452 N1449 1.398 . S
N1452 C1451 1.299 . S
N1453 C1450 1.367 . S
N1453 C1451 1.379 . S
C1454 N1456 1.298 . S
C1454 N1458 1.367 . S
C1454 C1462 1.481 1_556 S
C1455 N1457 1.299 . S
C1455 N1458 1.379 . S
N1456 Zn1440 2.036 1_655 S
N1456 C1454 1.298 . S
N1456 N1457 1.398 . S
N1457 C1455 1.299 . S
N1457 N1456 1.398 . S
N1458 C1454 1.367 . S
N1458 C1455 1.379 . S
H1459 C1462 0.980 1_556 S
H1460 C1462 0.981 . S
H1461 C1462 0.981 . S
C1462 C1454 1.481 1_554 S
C1462 H1459 0.980 1_554 S
C1462 H1460 0.981 . S
C1462 H1461 0.981 . S
C1463 C1450 1.481 . S
C1463 H1464 0.980 . S
C1463 H1465 0.981 . S
C1463 H1466 0.981 . S
H1464 C1463 0.980 . S
H1465 C1463 0.981 . S
H1466 C1463 0.981 . S
O1467 Zn1443 2.066 . S
O1467 C1446 1.256 . S
O1468 Zn1440 2.053 1_655 S
O1468 C1446 1.244 1_655 S
C1469 O1447 1.259 . S
C1469 O1448 1.254 . S
O1470 Zn1440 2.066 . S
O1470 C1442 1.256 1_556 S
O1471 C1442 1.244 1_556 S
O1471 Zn1443 2.053 . S
Zn1472 O1473 2.055 . S
Zn1472 O1480 2.046 . S
Zn1472 N1488 2.036 . S
Zn1472 O1500 2.053 . S
Zn1472 O1502 2.066 . S
O1473 Zn1472 2.055 . S
O1473 C1476 1.259 . S
C1474 O1502 1.256 . S
C1474 O1503 1.244 . S
Zn1475 O1477 2.046 . S
Zn1475 O1479 2.055 . S
Zn1475 N1481 2.036 . S
Zn1475 O1499 2.066 . S
Zn1475 O1503 2.053 . S
C1476 O1473 1.259 . S
C1476 O1477 1.254 . S
O1477 Zn1475 2.046 . S
O1477 C1476 1.254 . S
C1478 O1499 1.256 . S
C1478 O1500 1.244 . S
O1479 Zn1475 2.055 . S
O1479 C1501 1.259 . S
O1480 Zn1472 2.046 . S
O1480 C1501 1.254 . S
N1481 Zn1475 2.036 . S
N1481 C1482 1.298 . S
N1481 N1484 1.398 . S
C1482 N1481 1.298 . S
C1482 N1485 1.367 . S
C1482 C1495 1.481 . S
C1483 N1484 1.299 . S
C1483 N1485 1.379 . S
N1484 N1481 1.398 . S
N1484 C1483 1.299 . S
N1485 C1482 1.367 . S
N1485 C1483 1.379 . S
C1486 N1488 1.298 . S
C1486 N1490 1.367 . S
C1486 C1494 1.481 . S
C1487 N1489 1.299 . S
C1487 N1490 1.379 . S
N1488 Zn1472 2.036 . S
N1488 C1486 1.298 . S
N1488 N1489 1.398 . S
N1489 C1487 1.299 . S
N1489 N1488 1.398 . S
N1490 C1486 1.367 . S
N1490 C1487 1.379 . S
H1491 C1494 0.980 . S
H1492 C1494 0.981 . S
H1493 C1494 0.981 . S
C1494 C1486 1.481 . S
C1494 H1491 0.980 . S
C1494 H1492 0.981 . S
C1494 H1493 0.981 . S
C1495 C1482 1.481 . S
C1495 H1496 0.980 . S
C1495 H1497 0.981 . S
C1495 H1498 0.981 . S
H1496 C1495 0.980 . S
H1497 C1495 0.981 . S
H1498 C1495 0.981 . S
O1499 Zn1475 2.066 . S
O1499 C1478 1.256 . S
O1500 Zn1472 2.053 . S
O1500 C1478 1.244 . S
C1501 O1479 1.259 . S
C1501 O1480 1.254 . S
O1502 Zn1472 2.066 . S
O1502 C1474 1.256 . S
O1503 C1474 1.244 . S
O1503 Zn1475 2.053 . S
Zn1504 O1505 2.055 . S
Zn1504 O1512 2.046 . S
Zn1504 N1520 2.036 . S
Zn1504 O1532 2.053 . S
Zn1504 O1534 2.066 . S
O1505 Zn1504 2.055 . S
O1505 C1508 1.259 . S
C1506 O1534 1.256 . S
C1506 O1535 1.244 1_565 S
Zn1507 O1509 2.046 . S
Zn1507 O1511 2.055 . S
Zn1507 N1513 2.036 1_565 S
Zn1507 O1531 2.066 . S
Zn1507 O1535 2.053 1_565 S
C1508 O1505 1.259 . S
C1508 O1509 1.254 . S
O1509 Zn1507 2.046 . S
O1509 C1508 1.254 . S
C1510 O1531 1.256 . S
C1510 O1532 1.244 . S
O1511 Zn1507 2.055 . S
O1511 C1533 1.259 . S
O1512 Zn1504 2.046 . S
O1512 C1533 1.254 . S
N1513 Zn1507 2.036 1_545 S
N1513 C1514 1.298 . S
N1513 N1516 1.398 . S
C1514 N1513 1.298 . S
C1514 N1517 1.367 . S
C1514 C1527 1.481 . S
C1515 N1516 1.299 . S
C1515 N1517 1.379 . S
N1516 N1513 1.398 . S
N1516 C1515 1.299 . S
N1517 C1514 1.367 . S
N1517 C1515 1.379 . S
C1518 N1520 1.298 . S
C1518 N1522 1.367 . S
C1518 C1526 1.481 . S
C1519 N1521 1.299 . S
C1519 N1522 1.379 . S
N1520 Zn1504 2.036 . S
N1520 C1518 1.298 . S
N1520 N1521 1.398 . S
N1521 C1519 1.299 . S
N1521 N1520 1.398 . S
N1522 C1518 1.367 . S
N1522 C1519 1.379 . S
H1523 C1526 0.980 . S
H1524 C1526 0.981 . S
H1525 C1526 0.981 . S
C1526 C1518 1.481 . S
C1526 H1523 0.980 . S
C1526 H1524 0.981 . S
C1526 H1525 0.981 . S
C1527 C1514 1.481 . S
C1527 H1528 0.980 . S
C1527 H1529 0.981 . S
C1527 H1530 0.981 . S
H1528 C1527 0.980 . S
H1529 C1527 0.981 . S
H1530 C1527 0.981 . S
O1531 Zn1507 2.066 . S
O1531 C1510 1.256 . S
O1532 Zn1504 2.053 . S
O1532 C1510 1.244 . S
C1533 O1511 1.259 . S
C1533 O1512 1.254 . S
O1534 Zn1504 2.066 . S
O1534 C1506 1.256 . S
O1535 C1506 1.244 1_545 S
O1535 Zn1507 2.053 1_545 S
Zn1536 O1537 2.055 . S
Zn1536 O1544 2.046 . S
Zn1536 N1552 2.036 . S
Zn1536 O1564 2.053 . S
Zn1536 O1566 2.066 . S
O1537 Zn1536 2.055 . S
O1537 C1540 1.259 . S
C1538 O1566 1.256 . S
C1538 O1567 1.244 . S
Zn1539 O1541 2.046 . S
Zn1539 O1543 2.055 . S
Zn1539 N1545 2.036 . S
Zn1539 O1563 2.066 . S
Zn1539 O1567 2.053 . S
C1540 O1537 1.259 . S
C1540 O1541 1.254 . S
O1541 Zn1539 2.046 . S
O1541 C1540 1.254 . S
C1542 O1563 1.256 1_655 S
C1542 O1564 1.244 1_655 S
O1543 Zn1539 2.055 . S
O1543 C1565 1.259 . S
O1544 Zn1536 2.046 . S
O1544 C1565 1.254 . S
N1545 Zn1539 2.036 . S
N1545 C1546 1.298 . S
N1545 N1548 1.398 . S
C1546 N1545 1.298 . S
C1546 N1549 1.367 . S
C1546 C1559 1.481 . S
C1547 N1548 1.299 . S
C1547 N1549 1.379 . S
N1548 N1545 1.398 . S
N1548 C1547 1.299 . S
N1549 C1546 1.367 . S
N1549 C1547 1.379 . S
C1550 N1552 1.298 . S
C1550 N1554 1.367 . S
C1550 C1558 1.481 . S
C1551 N1553 1.299 . S
C1551 N1554 1.379 1_655 S
N1552 Zn1536 2.036 . S
N1552 C1550 1.298 . S
N1552 N1553 1.398 1_455 S
N1553 C1551 1.299 . S
N1553 N1552 1.398 1_655 S
N1554 C1550 1.367 . S
N1554 C1551 1.379 1_455 S
H1555 C1558 0.980 . S
H1556 C1558 0.981 . S
H1557 C1558 0.981 . S
C1558 C1550 1.481 . S
C1558 H1555 0.980 . S
C1558 H1556 0.981 . S
C1558 H1557 0.981 . S
C1559 C1546 1.481 . S
C1559 H1560 0.980 . S
C1559 H1561 0.981 . S
C1559 H1562 0.981 . S
H1560 C1559 0.980 . S
H1561 C1559 0.981 . S
H1562 C1559 0.981 . S
O1563 Zn1539 2.066 . S
O1563 C1542 1.256 1_455 S
O1564 Zn1536 2.053 . S
O1564 C1542 1.244 1_455 S
C1565 O1543 1.259 . S
C1565 O1544 1.254 . S
O1566 Zn1536 2.066 . S
O1566 C1538 1.256 . S
O1567 C1538 1.244 . S
O1567 Zn1539 2.053 . S
Zn1568 O1569 2.055 . S
Zn1568 O1576 2.046 . S
Zn1568 N1584 2.036 . S
Zn1568 O1596 2.053 . S
Zn1568 O1598 2.066 . S
O1569 Zn1568 2.055 . S
O1569 C1572 1.259 . S
C1570 O1598 1.256 . S
C1570 O1599 1.244 . S
Zn1571 O1573 2.046 . S
Zn1571 O1575 2.055 . S
Zn1571 N1577 2.036 . S
Zn1571 O1595 2.066 . S
Zn1571 O1599 2.053 . S
C1572 O1569 1.259 . S
C1572 O1573 1.254 . S
O1573 Zn1571 2.046 . S
O1573 C1572 1.254 . S
C1574 O1595 1.256 . S
C1574 O1596 1.244 . S
O1575 Zn1571 2.055 . S
O1575 C1597 1.259 . S
O1576 Zn1568 2.046 . S
O1576 C1597 1.254 . S
N1577 Zn1571 2.036 . S
N1577 C1578 1.298 . S
N1577 N1580 1.398 . S
C1578 N1577 1.298 . S
C1578 N1581 1.367 . S
C1578 C1591 1.481 . S
C1579 N1580 1.299 . S
C1579 N1581 1.379 . S
N1580 N1577 1.398 . S
N1580 C1579 1.299 . S
N1581 C1578 1.367 . S
N1581 C1579 1.379 . S
C1582 N1584 1.298 . S
C1582 N1586 1.367 . S
C1582 C1590 1.481 . S
C1583 N1585 1.299 . S
C1583 N1586 1.379 . S
N1584 Zn1568 2.036 . S
N1584 C1582 1.298 . S
N1584 N1585 1.398 . S
N1585 C1583 1.299 . S
N1585 N1584 1.398 . S
N1586 C1582 1.367 . S
N1586 C1583 1.379 . S
H1587 C1590 0.980 . S
H1588 C1590 0.981 . S
H1589 C1590 0.981 . S
C1590 C1582 1.481 . S
C1590 H1587 0.980 . S
C1590 H1588 0.981 . S
C1590 H1589 0.981 . S
C1591 C1578 1.481 . S
C1591 H1592 0.980 . S
C1591 H1593 0.981 . S
C1591 H1594 0.981 . S
H1592 C1591 0.980 . S
H1593 C1591 0.981 . S
H1594 C1591 0.981 . S
O1595 Zn1571 2.066 . S
O1595 C1574 1.256 . S
O1596 Zn1568 2.053 . S
O1596 C1574 1.244 . S
C1597 O1575 1.259 . S
C1597 O1576 1.254 . S
O1598 Zn1568 2.066 . S
O1598 C1570 1.256 . S
O1599 C1570 1.244 . S
O1599 Zn1571 2.053 . S
Zn1600 O1601 2.055 . S
Zn1600 O1608 2.046 . S
Zn1600 N1616 2.036 1_565 S
Zn1600 O1628 2.053 . S
Zn1600 O1630 2.066 1_565 S
O1601 Zn1600 2.055 . S
O1601 C1604 1.259 . S
C1602 O1630 1.256 1_565 S
C1602 O1631 1.244 . S
Zn1603 O1605 2.046 . S
Zn1603 O1607 2.055 . S
Zn1603 N1609 2.036 . S
Zn1603 O1627 2.066 . S
Zn1603 O1631 2.053 . S
C1604 O1601 1.259 . S
C1604 O1605 1.254 . S
O1605 Zn1603 2.046 . S
O1605 C1604 1.254 . S
C1606 O1627 1.256 . S
C1606 O1628 1.244 . S
O1607 Zn1603 2.055 . S
O1607 C1629 1.259 . S
O1608 Zn1600 2.046 . S
O1608 C1629 1.254 . S
N1609 Zn1603 2.036 . S
N1609 C1610 1.298 . S
N1609 N1612 1.398 . S
C1610 N1609 1.298 . S
C1610 N1613 1.367 . S
C1610 C1623 1.481 . S
C1611 N1612 1.299 . S
C1611 N1613 1.379 . S
N1612 N1609 1.398 . S
N1612 C1611 1.299 . S
N1613 C1610 1.367 . S
N1613 C1611 1.379 . S
C1614 N1616 1.298 . S
C1614 N1618 1.367 . S
C1614 C1622 1.481 . S
C1615 N1617 1.299 . S
C1615 N1618 1.379 . S
N1616 Zn1600 2.036 1_545 S
N1616 C1614 1.298 . S
N1616 N1617 1.398 . S
N1617 C1615 1.299 . S
N1617 N1616 1.398 . S
N1618 C1614 1.367 . S
N1618 C1615 1.379 . S
H1619 C1622 0.980 . S
H1620 C1622 0.981 . S
H1621 C1622 0.981 . S
C1622 C1614 1.481 . S
C1622 H1619 0.980 . S
C1622 H1620 0.981 . S
C1622 H1621 0.981 . S
C1623 C1610 1.481 . S
C1623 H1624 0.980 . S
C1623 H1625 0.981 . S
C1623 H1626 0.981 . S
H1624 C1623 0.980 . S
H1625 C1623 0.981 . S
H1626 C1623 0.981 . S
O1627 Zn1603 2.066 . S
O1627 C1606 1.256 . S
O1628 Zn1600 2.053 . S
O1628 C1606 1.244 . S
C1629 O1607 1.259 . S
C1629 O1608 1.254 . S
O1630 Zn1600 2.066 1_545 S
O1630 C1602 1.256 1_545 S
O1631 C1602 1.244 . S
O1631 Zn1603 2.053 . S
Zn1632 O1633 2.055 . S
Zn1632 O1640 2.046 . S
Zn1632 N1648 2.036 1_455 S
Zn1632 O1660 2.053 . S
Zn1632 O1662 2.066 1_455 S
O1633 Zn1632 2.055 . S
O1633 C1636 1.259 . S
C1634 O1662 1.256 1_455 S
C1634 O1663 1.244 . S
Zn1635 O1637 2.046 . S
Zn1635 O1639 2.055 . S
Zn1635 N1641 2.036 . S
Zn1635 O1659 2.066 . S
Zn1635 O1663 2.053 . S
C1636 O1633 1.259 . S
C1636 O1637 1.254 . S
O1637 Zn1635 2.046 . S
O1637 C1636 1.254 . S
C1638 O1659 1.256 1_545 S
C1638 O1660 1.244 1_545 S
O1639 Zn1635 2.055 . S
O1639 C1661 1.259 . S
O1640 Zn1632 2.046 . S
O1640 C1661 1.254 . S
N1641 Zn1635 2.036 . S
N1641 C1642 1.298 . S
N1641 N1644 1.398 . S
C1642 N1641 1.298 . S
C1642 N1645 1.367 . S
C1642 C1655 1.481 . S
C1643 N1644 1.299 . S
C1643 N1645 1.379 . S
N1644 N1641 1.398 . S
N1644 C1643 1.299 . S
N1645 C1642 1.367 . S
N1645 C1643 1.379 . S
C1646 N1648 1.298 . S
C1646 N1650 1.367 . S
C1646 C1654 1.481 . S
C1647 N1649 1.299 . S
C1647 N1650 1.379 1_545 S
N1648 Zn1632 2.036 1_655 S
N1648 C1646 1.298 . S
N1648 N1649 1.398 1_565 S
N1649 C1647 1.299 . S
N1649 N1648 1.398 1_545 S
N1650 C1646 1.367 . S
N1650 C1647 1.379 1_565 S
H1651 C1654 0.980 . S
H1652 C1654 0.981 . S
H1653 C1654 0.981 . S
C1654 C1646 1.481 . S
C1654 H1651 0.980 . S
C1654 H1652 0.981 . S
C1654 H1653 0.981 . S
C1655 C1642 1.481 . S
C1655 H1656 0.980 . S
C1655 H1657 0.981 . S
C1655 H1658 0.981 . S
H1656 C1655 0.980 . S
H1657 C1655 0.981 . S
H1658 C1655 0.981 . S
O1659 Zn1635 2.066 . S
O1659 C1638 1.256 1_565 S
O1660 Zn1632 2.053 . S
O1660 C1638 1.244 1_565 S
C1661 O1639 1.259 . S
C1661 O1640 1.254 . S
O1662 Zn1632 2.066 1_655 S
O1662 C1634 1.256 1_655 S
O1663 C1634 1.244 . S
O1663 Zn1635 2.053 . S
Zn1664 O1665 2.055 . S
Zn1664 O1672 2.046 . S
Zn1664 N1680 2.036 . S
Zn1664 O1692 2.053 . S
Zn1664 O1694 2.066 . S
O1665 Zn1664 2.055 . S
O1665 C1668 1.259 . S
C1666 O1694 1.256 1_655 S
C1666 O1695 1.244 1_655 S
Zn1667 O1669 2.046 . S
Zn1667 O1671 2.055 . S
Zn1667 N1673 2.036 . S
Zn1667 O1691 2.066 . S
Zn1667 O1695 2.053 . S
C1668 O1665 1.259 . S
C1668 O1669 1.254 . S
O1669 Zn1667 2.046 . S
O1669 C1668 1.254 . S
C1670 O1691 1.256 . S
C1670 O1692 1.244 . S
O1671 Zn1667 2.055 . S
O1671 C1693 1.259 . S
O1672 Zn1664 2.046 . S
O1672 C1693 1.254 . S
N1673 Zn1667 2.036 . S
N1673 C1674 1.298 . S
N1673 N1676 1.398 1_455 S
C1674 N1673 1.298 . S
C1674 N1677 1.367 . S
C1674 C1687 1.481 . S
C1675 N1676 1.299 . S
C1675 N1677 1.379 1_655 S
N1676 N1673 1.398 1_655 S
N1676 C1675 1.299 . S
N1677 C1674 1.367 . S
N1677 C1675 1.379 1_455 S
C1678 N1680 1.298 . S
C1678 N1682 1.367 . S
C1678 C1686 1.481 . S
C1679 N1681 1.299 . S
C1679 N1682 1.379 . S
N1680 Zn1664 2.036 . S
N1680 C1678 1.298 . S
N1680 N1681 1.398 . S
N1681 C1679 1.299 . S
N1681 N1680 1.398 . S
N1682 C1678 1.367 . S
N1682 C1679 1.379 . S
H1683 C1686 0.980 . S
H1684 C1686 0.981 . S
H1685 C1686 0.981 . S
C1686 C1678 1.481 . S
C1686 H1683 0.980 . S
C1686 H1684 0.981 . S
C1686 H1685 0.981 . S
C1687 C1674 1.481 . S
C1687 H1688 0.980 . S
C1687 H1689 0.981 . S
C1687 H1690 0.981 . S
H1688 C1687 0.980 . S
H1689 C1687 0.981 . S
H1690 C1687 0.981 . S
O1691 Zn1667 2.066 . S
O1691 C1670 1.256 . S
O1692 Zn1664 2.053 . S
O1692 C1670 1.244 . S
C1693 O1671 1.259 . S
C1693 O1672 1.254 . S
O1694 Zn1664 2.066 . S
O1694 C1666 1.256 1_455 S
O1695 C1666 1.244 1_455 S
O1695 Zn1667 2.053 . S
Zn1696 O1697 2.055 . S
Zn1696 O1704 2.046 . S
Zn1696 N1712 2.036 . S
Zn1696 O1724 2.053 . S
Zn1696 O1726 2.066 . S
O1697 Zn1696 2.055 . S
O1697 C1700 1.259 . S
C1698 O1726 1.256 . S
C1698 O1727 1.244 . S
Zn1699 O1701 2.046 . S
Zn1699 O1703 2.055 . S
Zn1699 N1705 2.036 . S
Zn1699 O1723 2.066 . S
Zn1699 O1727 2.053 . S
C1700 O1697 1.259 . S
C1700 O1701 1.254 . S
O1701 Zn1699 2.046 . S
O1701 C1700 1.254 . S
C1702 O1723 1.256 . S
C1702 O1724 1.244 . S
O1703 Zn1699 2.055 . S
O1703 C1725 1.259 . S
O1704 Zn1696 2.046 . S
O1704 C1725 1.254 . S
N1705 Zn1699 2.036 . S
N1705 C1706 1.298 . S
N1705 N1708 1.398 . S
C1706 N1705 1.298 . S
C1706 N1709 1.367 . S
C1706 C1719 1.481 . S
C1707 N1708 1.299 . S
C1707 N1709 1.379 . S
N1708 N1705 1.398 . S
N1708 C1707 1.299 . S
N1709 C1706 1.367 . S
N1709 C1707 1.379 . S
C1710 N1712 1.298 . S
C1710 N1714 1.367 . S
C1710 C1718 1.481 . S
C1711 N1713 1.299 . S
C1711 N1714 1.379 . S
N1712 Zn1696 2.036 . S
N1712 C1710 1.298 . S
N1712 N1713 1.398 . S
N1713 C1711 1.299 . S
N1713 N1712 1.398 . S
N1714 C1710 1.367 . S
N1714 C1711 1.379 . S
H1715 C1718 0.980 . S
H1716 C1718 0.981 . S
H1717 C1718 0.981 . S
C1718 C1710 1.481 . S
C1718 H1715 0.980 . S
C1718 H1716 0.981 . S
C1718 H1717 0.981 . S
C1719 C1706 1.481 . S
C1719 H1720 0.980 . S
C1719 H1721 0.981 . S
C1719 H1722 0.981 . S
H1720 C1719 0.980 . S
H1721 C1719 0.981 . S
H1722 C1719 0.981 . S
O1723 Zn1699 2.066 . S
O1723 C1702 1.256 . S
O1724 Zn1696 2.053 . S
O1724 C1702 1.244 . S
C1725 O1703 1.259 . S
C1725 O1704 1.254 . S
O1726 Zn1696 2.066 . S
O1726 C1698 1.256 . S
O1727 C1698 1.244 . S
O1727 Zn1699 2.053 . S
Zn1728 O1729 2.055 . S
Zn1728 O1736 2.046 . S
Zn1728 N1744 2.036 . S
Zn1728 O1756 2.053 . S
Zn1728 O1758 2.066 . S
O1729 Zn1728 2.055 . S
O1729 C1732 1.259 . S
C1730 O1758 1.256 . S
C1730 O1759 1.244 . S
Zn1731 O1733 2.046 . S
Zn1731 O1735 2.055 . S
Zn1731 N1737 2.036 . S
Zn1731 O1755 2.066 . S
Zn1731 O1759 2.053 . S
C1732 O1729 1.259 . S
C1732 O1733 1.254 . S
O1733 Zn1731 2.046 . S
O1733 C1732 1.254 . S
C1734 O1755 1.256 . S
C1734 O1756 1.244 . S
O1735 Zn1731 2.055 . S
O1735 C1757 1.259 . S
O1736 Zn1728 2.046 . S
O1736 C1757 1.254 . S
N1737 Zn1731 2.036 . S
N1737 C1738 1.298 . S
N1737 N1740 1.398 . S
C1738 N1737 1.298 . S
C1738 N1741 1.367 . S
C1738 C1751 1.481 . S
C1739 N1740 1.299 . S
C1739 N1741 1.379 . S
N1740 N1737 1.398 . S
N1740 C1739 1.299 . S
N1741 C1738 1.367 . S
N1741 C1739 1.379 . S
C1742 N1744 1.298 . S
C1742 N1746 1.367 . S
C1742 C1750 1.481 . S
C1743 N1745 1.299 . S
C1743 N1746 1.379 . S
N1744 Zn1728 2.036 . S
N1744 C1742 1.298 . S
N1744 N1745 1.398 . S
N1745 C1743 1.299 . S
N1745 N1744 1.398 . S
N1746 C1742 1.367 . S
N1746 C1743 1.379 . S
H1747 C1750 0.980 . S
H1748 C1750 0.981 . S
H1749 C1750 0.981 . S
C1750 C1742 1.481 . S
C1750 H1747 0.980 . S
C1750 H1748 0.981 . S
C1750 H1749 0.981 . S
C1751 C1738 1.481 . S
C1751 H1752 0.980 . S
C1751 H1753 0.981 . S
C1751 H1754 0.981 . S
H1752 C1751 0.980 . S
H1753 C1751 0.981 . S
H1754 C1751 0.981 . S
O1755 Zn1731 2.066 . S
O1755 C1734 1.256 . S
O1756 Zn1728 2.053 . S
O1756 C1734 1.244 . S
C1757 O1735 1.259 . S
C1757 O1736 1.254 . S
O1758 Zn1728 2.066 . S
O1758 C1730 1.256 . S
O1759 C1730 1.244 . S
O1759 Zn1731 2.053 . S
Zn1760 O1761 2.055 . S
Zn1760 O1768 2.046 . S
Zn1760 N1776 2.036 . S
Zn1760 O1788 2.053 . S
Zn1760 O1790 2.066 . S
O1761 Zn1760 2.055 . S
O1761 C1764 1.259 . S
C1762 O1790 1.256 . S
C1762 O1791 1.244 . S
Zn1763 O1765 2.046 . S
Zn1763 O1767 2.055 . S
Zn1763 N1769 2.036 . S
Zn1763 O1787 2.066 . S
Zn1763 O1791 2.053 . S
C1764 O1761 1.259 . S
C1764 O1765 1.254 . S
O1765 Zn1763 2.046 . S
O1765 C1764 1.254 . S
C1766 O1787 1.256 1_545 S
C1766 O1788 1.244 1_545 S
O1767 Zn1763 2.055 . S
O1767 C1789 1.259 . S
O1768 Zn1760 2.046 . S
O1768 C1789 1.254 . S
N1769 Zn1763 2.036 . S
N1769 C1770 1.298 . S
N1769 N1772 1.398 . S
C1770 N1769 1.298 . S
C1770 N1773 1.367 . S
C1770 C1783 1.481 . S
C1771 N1772 1.299 . S
C1771 N1773 1.379 . S
N1772 N1769 1.398 . S
N1772 C1771 1.299 . S
N1773 C1770 1.367 . S
N1773 C1771 1.379 . S
C1774 N1776 1.298 . S
C1774 N1778 1.367 . S
C1774 C1782 1.481 . S
C1775 N1777 1.299 . S
C1775 N1778 1.379 1_545 S
N1776 Zn1760 2.036 . S
N1776 C1774 1.298 . S
N1776 N1777 1.398 1_565 S
N1777 C1775 1.299 . S
N1777 N1776 1.398 1_545 S
N1778 C1774 1.367 . S
N1778 C1775 1.379 1_565 S
H1779 C1782 0.980 . S
H1780 C1782 0.981 . S
H1781 C1782 0.981 . S
C1782 C1774 1.481 . S
C1782 H1779 0.980 . S
C1782 H1780 0.981 . S
C1782 H1781 0.981 . S
C1783 C1770 1.481 . S
C1783 H1784 0.980 . S
C1783 H1785 0.981 . S
C1783 H1786 0.981 . S
H1784 C1783 0.980 . S
H1785 C1783 0.981 . S
H1786 C1783 0.981 . S
O1787 Zn1763 2.066 . S
O1787 C1766 1.256 1_565 S
O1788 Zn1760 2.053 . S
O1788 C1766 1.244 1_565 S
C1789 O1767 1.259 . S
C1789 O1768 1.254 . S
O1790 Zn1760 2.066 . S
O1790 C1762 1.256 . S
O1791 C1762 1.244 . S
O1791 Zn1763 2.053 . S
Zn1792 O1793 2.055 . S
Zn1792 O1800 2.046 . S
Zn1792 N1808 2.036 . S
Zn1792 O1820 2.053 . S
Zn1792 O1822 2.066 . S
O1793 Zn1792 2.055 . S
O1793 C1796 1.259 . S
C1794 O1822 1.256 . S
C1794 O1823 1.244 . S
Zn1795 O1797 2.046 . S
Zn1795 O1799 2.055 . S
Zn1795 N1801 2.036 . S
Zn1795 O1819 2.066 . S
Zn1795 O1823 2.053 . S
C1796 O1793 1.259 . S
C1796 O1797 1.254 . S
O1797 Zn1795 2.046 . S
O1797 C1796 1.254 . S
C1798 O1819 1.256 . S
C1798 O1820 1.244 . S
O1799 Zn1795 2.055 . S
O1799 C1821 1.259 . S
O1800 Zn1792 2.046 . S
O1800 C1821 1.254 . S
N1801 Zn1795 2.036 . S
N1801 C1802 1.298 . S
N1801 N1804 1.398 . S
C1802 N1801 1.298 . S
C1802 N1805 1.367 . S
C1802 C1815 1.481 . S
C1803 N1804 1.299 . S
C1803 N1805 1.379 . S
N1804 N1801 1.398 . S
N1804 C1803 1.299 . S
N1805 C1802 1.367 . S
N1805 C1803 1.379 . S
C1806 N1808 1.298 . S
C1806 N1810 1.367 . S
C1806 C1814 1.481 . S
C1807 N1809 1.299 . S
C1807 N1810 1.379 . S
N1808 Zn1792 2.036 . S
N1808 C1806 1.298 . S
N1808 N1809 1.398 . S
N1809 C1807 1.299 . S
N1809 N1808 1.398 . S
N1810 C1806 1.367 . S
N1810 C1807 1.379 . S
H1811 C1814 0.980 . S
H1812 C1814 0.981 . S
H1813 C1814 0.981 . S
C1814 C1806 1.481 . S
C1814 H1811 0.980 . S
C1814 H1812 0.981 . S
C1814 H1813 0.981 . S
C1815 C1802 1.481 . S
C1815 H1816 0.980 . S
C1815 H1817 0.981 . S
C1815 H1818 0.981 . S
H1816 C1815 0.980 . S
H1817 C1815 0.981 . S
H1818 C1815 0.981 . S
O1819 Zn1795 2.066 . S
O1819 C1798 1.256 . S
O1820 Zn1792 2.053 . S
O1820 C1798 1.244 . S
C1821 O1799 1.259 . S
C1821 O1800 1.254 . S
O1822 Zn1792 2.066 . S
O1822 C1794 1.256 . S
O1823 C1794 1.244 . S
O1823 Zn1795 2.053 . S
Zn1824 O1825 2.055 . S
Zn1824 O1832 2.046 . S
Zn1824 N1840 2.036 1_554 S
Zn1824 O1852 2.053 . S
Zn1824 O1854 2.066 1_554 S
O1825 Zn1824 2.055 . S
O1825 C1828 1.259 . S
C1826 O1854 1.256 1_554 S
C1826 O1855 1.244 . S
Zn1827 O1829 2.046 . S
Zn1827 O1831 2.055 . S
Zn1827 N1833 2.036 . S
Zn1827 O1851 2.066 . S
Zn1827 O1855 2.053 . S
C1828 O1825 1.259 . S
C1828 O1829 1.254 . S
O1829 Zn1827 2.046 . S
O1829 C1828 1.254 . S
C1830 O1851 1.256 . S
C1830 O1852 1.244 . S
O1831 Zn1827 2.055 . S
O1831 C1853 1.259 . S
O1832 Zn1824 2.046 . S
O1832 C1853 1.254 . S
N1833 Zn1827 2.036 . S
N1833 C1834 1.298 . S
N1833 N1836 1.398 . S
C1834 N1833 1.298 . S
C1834 N1837 1.367 . S
C1834 C1847 1.481 . S
C1835 N1836 1.299 . S
C1835 N1837 1.379 . S
N1836 N1833 1.398 . S
N1836 C1835 1.299 . S
N1837 C1834 1.367 . S
N1837 C1835 1.379 . S
C1838 N1840 1.298 . S
C1838 N1842 1.367 . S
C1838 C1846 1.481 . S
C1839 N1841 1.299 . S
C1839 N1842 1.379 . S
N1840 Zn1824 2.036 1_556 S
N1840 C1838 1.298 . S
N1840 N1841 1.398 . S
N1841 C1839 1.299 . S
N1841 N1840 1.398 . S
N1842 C1838 1.367 . S
N1842 C1839 1.379 . S
H1843 C1846 0.980 . S
H1844 C1846 0.981 . S
H1845 C1846 0.981 . S
C1846 C1838 1.481 . S
C1846 H1843 0.980 . S
C1846 H1844 0.981 . S
C1846 H1845 0.981 . S
C1847 C1834 1.481 . S
C1847 H1848 0.980 . S
C1847 H1849 0.981 . S
C1847 H1850 0.981 . S
H1848 C1847 0.980 . S
H1849 C1847 0.981 . S
H1850 C1847 0.981 . S
O1851 Zn1827 2.066 . S
O1851 C1830 1.256 . S
O1852 Zn1824 2.053 . S
O1852 C1830 1.244 . S
C1853 O1831 1.259 . S
C1853 O1832 1.254 . S
O1854 Zn1824 2.066 1_556 S
O1854 C1826 1.256 1_556 S
O1855 C1826 1.244 . S
O1855 Zn1827 2.053 . S
Zn1856 O1857 2.055 . S
Zn1856 O1864 2.046 . S
Zn1856 N1872 2.036 . S
Zn1856 O1884 2.053 . S
Zn1856 O1886 2.066 . S
O1857 Zn1856 2.055 . S
O1857 C1860 1.259 . S
C1858 O1886 1.256 . S
C1858 O1887 1.244 . S
Zn1859 O1861 2.046 . S
Zn1859 O1863 2.055 . S
Zn1859 N1865 2.036 . S
Zn1859 O1883 2.066 . S
Zn1859 O1887 2.053 . S
C1860 O1857 1.259 . S
C1860 O1861 1.254 . S
O1861 Zn1859 2.046 . S
O1861 C1860 1.254 . S
C1862 O1883 1.256 . S
C1862 O1884 1.244 . S
O1863 Zn1859 2.055 . S
O1863 C1885 1.259 . S
O1864 Zn1856 2.046 . S
O1864 C1885 1.254 . S
N1865 Zn1859 2.036 . S
N1865 C1866 1.298 . S
N1865 N1868 1.398 . S
C1866 N1865 1.298 . S
C1866 N1869 1.367 . S
C1866 C1879 1.481 . S
C1867 N1868 1.299 . S
C1867 N1869 1.379 . S
N1868 N1865 1.398 . S
N1868 C1867 1.299 . S
N1869 C1866 1.367 . S
N1869 C1867 1.379 . S
C1870 N1872 1.298 . S
C1870 N1874 1.367 . S
C1870 C1878 1.481 . S
C1871 N1873 1.299 . S
C1871 N1874 1.379 . S
N1872 Zn1856 2.036 . S
N1872 C1870 1.298 . S
N1872 N1873 1.398 . S
N1873 C1871 1.299 . S
N1873 N1872 1.398 . S
N1874 C1870 1.367 . S
N1874 C1871 1.379 . S
H1875 C1878 0.980 . S
H1876 C1878 0.981 . S
H1877 C1878 0.981 . S
C1878 C1870 1.481 . S
C1878 H1875 0.980 . S
C1878 H1876 0.981 . S
C1878 H1877 0.981 . S
C1879 C1866 1.481 . S
C1879 H1880 0.980 . S
C1879 H1881 0.981 . S
C1879 H1882 0.981 . S
H1880 C1879 0.980 . S
H1881 C1879 0.981 . S
H1882 C1879 0.981 . S
O1883 Zn1859 2.066 . S
O1883 C1862 1.256 . S
O1884 Zn1856 2.053 . S
O1884 C1862 1.244 . S
C1885 O1863 1.259 . S
C1885 O1864 1.254 . S
O1886 Zn1856 2.066 . S
O1886 C1858 1.256 . S
O1887 C1858 1.244 . S
O1887 Zn1859 2.053 . S
Zn1888 O1889 2.055 . S
Zn1888 O1896 2.046 . S
Zn1888 N1904 2.036 . S
Zn1888 O1916 2.053 . S
Zn1888 O1918 2.066 . S
O1889 Zn1888 2.055 . S
O1889 C1892 1.259 . S
C1890 O1918 1.256 . S
C1890 O1919 1.244 . S
Zn1891 O1893 2.046 . S
Zn1891 O1895 2.055 . S
Zn1891 N1897 2.036 . S
Zn1891 O1915 2.066 . S
Zn1891 O1919 2.053 . S
C1892 O1889 1.259 . S
C1892 O1893 1.254 . S
O1893 Zn1891 2.046 . S
O1893 C1892 1.254 . S
C1894 O1915 1.256 . S
C1894 O1916 1.244 . S
O1895 Zn1891 2.055 . S
O1895 C1917 1.259 . S
O1896 Zn1888 2.046 . S
O1896 C1917 1.254 . S
N1897 Zn1891 2.036 . S
N1897 C1898 1.298 . S
N1897 N1900 1.398 . S
C1898 N1897 1.298 . S
C1898 N1901 1.367 . S
C1898 C1911 1.481 . S
C1899 N1900 1.299 . S
C1899 N1901 1.379 . S
N1900 N1897 1.398 . S
N1900 C1899 1.299 . S
N1901 C1898 1.367 . S
N1901 C1899 1.379 . S
C1902 N1904 1.298 . S
C1902 N1906 1.367 . S
C1902 C1910 1.481 . S
C1903 N1905 1.299 . S
C1903 N1906 1.379 . S
N1904 Zn1888 2.036 . S
N1904 C1902 1.298 . S
N1904 N1905 1.398 . S
N1905 C1903 1.299 . S
N1905 N1904 1.398 . S
N1906 C1902 1.367 . S
N1906 C1903 1.379 . S
H1907 C1910 0.980 . S
H1908 C1910 0.981 . S
H1909 C1910 0.981 . S
C1910 C1902 1.481 . S
C1910 H1907 0.980 . S
C1910 H1908 0.981 . S
C1910 H1909 0.981 . S
C1911 C1898 1.481 . S
C1911 H1912 0.980 . S
C1911 H1913 0.981 . S
C1911 H1914 0.981 . S
H1912 C1911 0.980 . S
H1913 C1911 0.981 . S
H1914 C1911 0.981 . S
O1915 Zn1891 2.066 . S
O1915 C1894 1.256 . S
O1916 Zn1888 2.053 . S
O1916 C1894 1.244 . S
C1917 O1895 1.259 . S
C1917 O1896 1.254 . S
O1918 Zn1888 2.066 . S
O1918 C1890 1.256 . S
O1919 C1890 1.244 . S
O1919 Zn1891 2.053 . S
Zn1920 O1921 2.055 . S
Zn1920 O1928 2.046 . S
Zn1920 N1936 2.036 . S
Zn1920 O1948 2.053 . S
Zn1920 O1950 2.066 . S
O1921 Zn1920 2.055 . S
O1921 C1924 1.259 . S
C1922 O1950 1.256 . S
C1922 O1951 1.244 . S
Zn1923 O1925 2.046 . S
Zn1923 O1927 2.055 . S
Zn1923 N1929 2.036 . S
Zn1923 O1947 2.066 . S
Zn1923 O1951 2.053 . S
C1924 O1921 1.259 . S
C1924 O1925 1.254 . S
O1925 Zn1923 2.046 . S
O1925 C1924 1.254 . S
C1926 O1947 1.256 . S
C1926 O1948 1.244 . S
O1927 Zn1923 2.055 . S
O1927 C1949 1.259 . S
O1928 Zn1920 2.046 . S
O1928 C1949 1.254 . S
N1929 Zn1923 2.036 . S
N1929 C1930 1.298 . S
N1929 N1932 1.398 . S
C1930 N1929 1.298 . S
C1930 N1933 1.367 . S
C1930 C1943 1.481 . S
C1931 N1932 1.299 . S
C1931 N1933 1.379 . S
N1932 N1929 1.398 . S
N1932 C1931 1.299 . S
N1933 C1930 1.367 . S
N1933 C1931 1.379 . S
C1934 N1936 1.298 . S
C1934 N1938 1.367 . S
C1934 C1942 1.481 . S
C1935 N1937 1.299 . S
C1935 N1938 1.379 . S
N1936 Zn1920 2.036 . S
N1936 C1934 1.298 . S
N1936 N1937 1.398 . S
N1937 C1935 1.299 . S
N1937 N1936 1.398 . S
N1938 C1934 1.367 . S
N1938 C1935 1.379 . S
H1939 C1942 0.980 . S
H1940 C1942 0.981 . S
H1941 C1942 0.981 . S
C1942 C1934 1.481 . S
C1942 H1939 0.980 . S
C1942 H1940 0.981 . S
C1942 H1941 0.981 . S
C1943 C1930 1.481 . S
C1943 H1944 0.980 . S
C1943 H1945 0.981 . S
C1943 H1946 0.981 . S
H1944 C1943 0.980 . S
H1945 C1943 0.981 . S
H1946 C1943 0.981 . S
O1947 Zn1923 2.066 . S
O1947 C1926 1.256 . S
O1948 Zn1920 2.053 . S
O1948 C1926 1.244 . S
C1949 O1927 1.259 . S
C1949 O1928 1.254 . S
O1950 Zn1920 2.066 . S
O1950 C1922 1.256 . S
O1951 C1922 1.244 . S
O1951 Zn1923 2.053 . S
Zn1952 O1953 2.055 . S
Zn1952 O1960 2.046 . S
Zn1952 N1968 2.036 . S
Zn1952 O1980 2.053 . S
Zn1952 O1982 2.066 . S
O1953 Zn1952 2.055 . S
O1953 C1956 1.259 . S
C1954 O1982 1.256 . S
C1954 O1983 1.244 . S
Zn1955 O1957 2.046 . S
Zn1955 O1959 2.055 . S
Zn1955 N1961 2.036 . S
Zn1955 O1979 2.066 . S
Zn1955 O1983 2.053 . S
C1956 O1953 1.259 . S
C1956 O1957 1.254 . S
O1957 Zn1955 2.046 . S
O1957 C1956 1.254 . S
C1958 O1979 1.256 . S
C1958 O1980 1.244 . S
O1959 Zn1955 2.055 . S
O1959 C1981 1.259 . S
O1960 Zn1952 2.046 . S
O1960 C1981 1.254 . S
N1961 Zn1955 2.036 . S
N1961 C1962 1.298 . S
N1961 N1964 1.398 . S
C1962 N1961 1.298 . S
C1962 N1965 1.367 . S
C1962 C1975 1.481 . S
C1963 N1964 1.299 . S
C1963 N1965 1.379 . S
N1964 N1961 1.398 . S
N1964 C1963 1.299 . S
N1965 C1962 1.367 . S
N1965 C1963 1.379 . S
C1966 N1968 1.298 . S
C1966 N1970 1.367 . S
C1966 C1974 1.481 . S
C1967 N1969 1.299 . S
C1967 N1970 1.379 . S
N1968 Zn1952 2.036 . S
N1968 C1966 1.298 . S
N1968 N1969 1.398 . S
N1969 C1967 1.299 . S
N1969 N1968 1.398 . S
N1970 C1966 1.367 . S
N1970 C1967 1.379 . S
H1971 C1974 0.980 . S
H1972 C1974 0.981 . S
H1973 C1974 0.981 . S
C1974 C1966 1.481 . S
C1974 H1971 0.980 . S
C1974 H1972 0.981 . S
C1974 H1973 0.981 . S
C1975 C1962 1.481 . S
C1975 H1976 0.980 . S
C1975 H1977 0.981 . S
C1975 H1978 0.981 . S
H1976 C1975 0.980 . S
H1977 C1975 0.981 . S
H1978 C1975 0.981 . S
O1979 Zn1955 2.066 . S
O1979 C1958 1.256 . S
O1980 Zn1952 2.053 . S
O1980 C1958 1.244 . S
C1981 O1959 1.259 . S
C1981 O1960 1.254 . S
O1982 Zn1952 2.066 . S
O1982 C1954 1.256 . S
O1983 C1954 1.244 . S
O1983 Zn1955 2.053 . S
Zn1984 O1985 2.055 . S
Zn1984 O1992 2.046 . S
Zn1984 N2000 2.036 1_556 S
Zn1984 O2012 2.053 . S
Zn1984 O2014 2.066 1_556 S
O1985 Zn1984 2.055 . S
O1985 C1988 1.259 . S
C1986 O2014 1.256 1_556 S
C1986 O2015 1.244 . S
Zn1987 O1989 2.046 . S
Zn1987 O1991 2.055 . S
Zn1987 N1993 2.036 . S
Zn1987 O2011 2.066 . S
Zn1987 O2015 2.053 . S
C1988 O1985 1.259 . S
C1988 O1989 1.254 . S
O1989 Zn1987 2.046 . S
O1989 C1988 1.254 . S
C1990 O2011 1.256 1_565 S
C1990 O2012 1.244 1_565 S
O1991 Zn1987 2.055 . S
O1991 C2013 1.259 . S
O1992 Zn1984 2.046 . S
O1992 C2013 1.254 . S
N1993 Zn1987 2.036 . S
N1993 C1994 1.298 . S
N1993 N1996 1.398 . S
C1994 N1993 1.298 . S
C1994 N1997 1.367 . S
C1994 C2007 1.481 . S
C1995 N1996 1.299 . S
C1995 N1997 1.379 . S
N1996 N1993 1.398 . S
N1996 C1995 1.299 . S
N1997 C1994 1.367 . S
N1997 C1995 1.379 . S
C1998 N2000 1.298 . S
C1998 N2002 1.367 . S
C1998 C2006 1.481 . S
C1999 N2001 1.299 . S
C1999 N2002 1.379 1_565 S
N2000 Zn1984 2.036 1_554 S
N2000 C1998 1.298 . S
N2000 N2001 1.398 1_545 S
N2001 C1999 1.299 . S
N2001 N2000 1.398 1_565 S
N2002 C1998 1.367 . S
N2002 C1999 1.379 1_545 S
H2003 C2006 0.980 . S
H2004 C2006 0.981 . S
H2005 C2006 0.981 . S
C2006 C1998 1.481 . S
C2006 H2003 0.980 . S
C2006 H2004 0.981 . S
C2006 H2005 0.981 . S
C2007 C1994 1.481 . S
C2007 H2008 0.980 . S
C2007 H2009 0.981 . S
C2007 H2010 0.981 . S
H2008 C2007 0.980 . S
H2009 C2007 0.981 . S
H2010 C2007 0.981 . S
O2011 Zn1987 2.066 . S
O2011 C1990 1.256 1_545 S
O2012 Zn1984 2.053 . S
O2012 C1990 1.244 1_545 S
C2013 O1991 1.259 . S
C2013 O1992 1.254 . S
O2014 Zn1984 2.066 1_554 S
O2014 C1986 1.256 1_554 S
O2015 C1986 1.244 . S
O2015 Zn1987 2.053 . S
Zn2016 O2017 2.055 . S
Zn2016 O2024 2.046 . S
Zn2016 N2032 2.036 . S
Zn2016 O2044 2.053 . S
Zn2016 O2046 2.066 . S
O2017 Zn2016 2.055 . S
O2017 C2020 1.259 . S
C2018 O2046 1.256 . S
C2018 O2047 1.244 . S
Zn2019 O2021 2.046 . S
Zn2019 O2023 2.055 . S
Zn2019 N2025 2.036 . S
Zn2019 O2043 2.066 . S
Zn2019 O2047 2.053 . S
C2020 O2017 1.259 . S
C2020 O2021 1.254 . S
O2021 Zn2019 2.046 . S
O2021 C2020 1.254 . S
C2022 O2043 1.256 1_455 S
C2022 O2044 1.244 1_455 S
O2023 Zn2019 2.055 . S
O2023 C2045 1.259 . S
O2024 Zn2016 2.046 . S
O2024 C2045 1.254 . S
N2025 Zn2019 2.036 . S
N2025 C2026 1.298 . S
N2025 N2028 1.398 . S
C2026 N2025 1.298 . S
C2026 N2029 1.367 . S
C2026 C2039 1.481 . S
C2027 N2028 1.299 . S
C2027 N2029 1.379 . S
N2028 N2025 1.398 . S
N2028 C2027 1.299 . S
N2029 C2026 1.367 . S
N2029 C2027 1.379 . S
C2030 N2032 1.298 . S
C2030 N2034 1.367 . S
C2030 C2038 1.481 . S
C2031 N2033 1.299 . S
C2031 N2034 1.379 1_455 S
N2032 Zn2016 2.036 . S
N2032 C2030 1.298 . S
N2032 N2033 1.398 1_655 S
N2033 C2031 1.299 . S
N2033 N2032 1.398 1_455 S
N2034 C2030 1.367 . S
N2034 C2031 1.379 1_655 S
H2035 C2038 0.980 . S
H2036 C2038 0.981 . S
H2037 C2038 0.981 . S
C2038 C2030 1.481 . S
C2038 H2035 0.980 . S
C2038 H2036 0.981 . S
C2038 H2037 0.981 . S
C2039 C2026 1.481 . S
C2039 H2040 0.980 . S
C2039 H2041 0.981 . S
C2039 H2042 0.981 . S
H2040 C2039 0.980 . S
H2041 C2039 0.981 . S
H2042 C2039 0.981 . S
O2043 Zn2019 2.066 . S
O2043 C2022 1.256 1_655 S
O2044 Zn2016 2.053 . S
O2044 C2022 1.244 1_655 S
C2045 O2023 1.259 . S
C2045 O2024 1.254 . S
O2046 Zn2016 2.066 . S
O2046 C2018 1.256 . S
O2047 C2018 1.244 . S
O2047 Zn2019 2.053 . S
Zn2048 O2049 2.055 . S
Zn2048 O2056 2.046 . S
Zn2048 N2064 2.036 . S
Zn2048 O2076 2.053 . S
Zn2048 O2078 2.066 . S
O2049 Zn2048 2.055 . S
O2049 C2052 1.259 . S
C2050 O2078 1.256 . S
C2050 O2079 1.244 . S
Zn2051 O2053 2.046 . S
Zn2051 O2055 2.055 . S
Zn2051 N2057 2.036 . S
Zn2051 O2075 2.066 . S
Zn2051 O2079 2.053 . S
C2052 O2049 1.259 . S
C2052 O2053 1.254 . S
O2053 Zn2051 2.046 . S
O2053 C2052 1.254 . S
C2054 O2075 1.256 . S
C2054 O2076 1.244 . S
O2055 Zn2051 2.055 . S
O2055 C2077 1.259 . S
O2056 Zn2048 2.046 . S
O2056 C2077 1.254 . S
N2057 Zn2051 2.036 . S
N2057 C2058 1.298 . S
N2057 N2060 1.398 . S
C2058 N2057 1.298 . S
C2058 N2061 1.367 . S
C2058 C2071 1.481 . S
C2059 N2060 1.299 . S
C2059 N2061 1.379 . S
N2060 N2057 1.398 . S
N2060 C2059 1.299 . S
N2061 C2058 1.367 . S
N2061 C2059 1.379 . S
C2062 N2064 1.298 . S
C2062 N2066 1.367 . S
C2062 C2070 1.481 . S
C2063 N2065 1.299 . S
C2063 N2066 1.379 . S
N2064 Zn2048 2.036 . S
N2064 C2062 1.298 . S
N2064 N2065 1.398 . S
N2065 C2063 1.299 . S
N2065 N2064 1.398 . S
N2066 C2062 1.367 . S
N2066 C2063 1.379 . S
H2067 C2070 0.980 . S
H2068 C2070 0.981 . S
H2069 C2070 0.981 . S
C2070 C2062 1.481 . S
C2070 H2067 0.980 . S
C2070 H2068 0.981 . S
C2070 H2069 0.981 . S
C2071 C2058 1.481 . S
C2071 H2072 0.980 . S
C2071 H2073 0.981 . S
C2071 H2074 0.981 . S
H2072 C2071 0.980 . S
H2073 C2071 0.981 . S
H2074 C2071 0.981 . S
O2075 Zn2051 2.066 . S
O2075 C2054 1.256 . S
O2076 Zn2048 2.053 . S
O2076 C2054 1.244 . S
C2077 O2055 1.259 . S
C2077 O2056 1.254 . S
O2078 Zn2048 2.066 . S
O2078 C2050 1.256 . S
O2079 C2050 1.244 . S
O2079 Zn2051 2.053 . S
Zn2080 O2081 2.055 . S
Zn2080 O2088 2.046 . S
Zn2080 N2096 2.036 . S
Zn2080 O2108 2.053 . S
Zn2080 O2110 2.066 . S
O2081 Zn2080 2.055 . S
O2081 C2084 1.259 . S
C2082 O2110 1.256 . S
C2082 O2111 1.244 . S
Zn2083 O2085 2.046 . S
Zn2083 O2087 2.055 . S
Zn2083 N2089 2.036 . S
Zn2083 O2107 2.066 . S
Zn2083 O2111 2.053 . S
C2084 O2081 1.259 . S
C2084 O2085 1.254 . S
O2085 Zn2083 2.046 . S
O2085 C2084 1.254 . S
C2086 O2107 1.256 . S
C2086 O2108 1.244 . S
O2087 Zn2083 2.055 . S
O2087 C2109 1.259 . S
O2088 Zn2080 2.046 . S
O2088 C2109 1.254 . S
N2089 Zn2083 2.036 . S
N2089 C2090 1.298 . S
N2089 N2092 1.398 . S
C2090 N2089 1.298 . S
C2090 N2093 1.367 . S
C2090 C2103 1.481 . S
C2091 N2092 1.299 . S
C2091 N2093 1.379 . S
N2092 N2089 1.398 . S
N2092 C2091 1.299 . S
N2093 C2090 1.367 . S
N2093 C2091 1.379 . S
C2094 N2096 1.298 . S
C2094 N2098 1.367 . S
C2094 C2102 1.481 . S
C2095 N2097 1.299 . S
C2095 N2098 1.379 . S
N2096 Zn2080 2.036 . S
N2096 C2094 1.298 . S
N2096 N2097 1.398 . S
N2097 C2095 1.299 . S
N2097 N2096 1.398 . S
N2098 C2094 1.367 . S
N2098 C2095 1.379 . S
H2099 C2102 0.980 . S
H2100 C2102 0.981 . S
H2101 C2102 0.981 . S
C2102 C2094 1.481 . S
C2102 H2099 0.980 . S
C2102 H2100 0.981 . S
C2102 H2101 0.981 . S
C2103 C2090 1.481 . S
C2103 H2104 0.980 . S
C2103 H2105 0.981 . S
C2103 H2106 0.981 . S
H2104 C2103 0.980 . S
H2105 C2103 0.981 . S
H2106 C2103 0.981 . S
O2107 Zn2083 2.066 . S
O2107 C2086 1.256 . S
O2108 Zn2080 2.053 . S
O2108 C2086 1.244 . S
C2109 O2087 1.259 . S
C2109 O2088 1.254 . S
O2110 Zn2080 2.066 . S
O2110 C2082 1.256 . S
O2111 C2082 1.244 . S
O2111 Zn2083 2.053 . S
Zn2112 O2113 2.055 . S
Zn2112 O2120 2.046 . S
Zn2112 N2128 2.036 . S
Zn2112 O2140 2.053 . S
Zn2112 O2142 2.066 . S
O2113 Zn2112 2.055 . S
O2113 C2116 1.259 . S
C2114 O2142 1.256 . S
C2114 O2143 1.244 . S
Zn2115 O2117 2.046 . S
Zn2115 O2119 2.055 . S
Zn2115 N2121 2.036 . S
Zn2115 O2139 2.066 . S
Zn2115 O2143 2.053 . S
C2116 O2113 1.259 . S
C2116 O2117 1.254 . S
O2117 Zn2115 2.046 . S
O2117 C2116 1.254 . S
C2118 O2139 1.256 . S
C2118 O2140 1.244 . S
O2119 Zn2115 2.055 . S
O2119 C2141 1.259 . S
O2120 Zn2112 2.046 . S
O2120 C2141 1.254 . S
N2121 Zn2115 2.036 . S
N2121 C2122 1.298 . S
N2121 N2124 1.398 . S
C2122 N2121 1.298 . S
C2122 N2125 1.367 . S
C2122 C2135 1.481 . S
C2123 N2124 1.299 . S
C2123 N2125 1.379 . S
N2124 N2121 1.398 . S
N2124 C2123 1.299 . S
N2125 C2122 1.367 . S
N2125 C2123 1.379 . S
C2126 N2128 1.298 . S
C2126 N2130 1.367 . S
C2126 C2134 1.481 . S
C2127 N2129 1.299 . S
C2127 N2130 1.379 . S
N2128 Zn2112 2.036 . S
N2128 C2126 1.298 . S
N2128 N2129 1.398 . S
N2129 C2127 1.299 . S
N2129 N2128 1.398 . S
N2130 C2126 1.367 . S
N2130 C2127 1.379 . S
H2131 C2134 0.980 . S
H2132 C2134 0.981 . S
H2133 C2134 0.981 . S
C2134 C2126 1.481 . S
C2134 H2131 0.980 . S
C2134 H2132 0.981 . S
C2134 H2133 0.981 . S
C2135 C2122 1.481 . S
C2135 H2136 0.980 . S
C2135 H2137 0.981 . S
C2135 H2138 0.981 . S
H2136 C2135 0.980 . S
H2137 C2135 0.981 . S
H2138 C2135 0.981 . S
O2139 Zn2115 2.066 . S
O2139 C2118 1.256 . S
O2140 Zn2112 2.053 . S
O2140 C2118 1.244 . S
C2141 O2119 1.259 . S
C2141 O2120 1.254 . S
O2142 Zn2112 2.066 . S
O2142 C2114 1.256 . S
O2143 C2114 1.244 . S
O2143 Zn2115 2.053 . S
Zn2144 O2145 2.055 . S
Zn2144 O2152 2.046 . S
Zn2144 N2160 2.036 . S
Zn2144 O2172 2.053 . S
Zn2144 O2174 2.066 . S
O2145 Zn2144 2.055 . S
O2145 C2148 1.259 . S
C2146 O2174 1.256 . S
C2146 O2175 1.244 . S
Zn2147 O2149 2.046 . S
Zn2147 O2151 2.055 . S
Zn2147 N2153 2.036 . S
Zn2147 O2171 2.066 . S
Zn2147 O2175 2.053 . S
C2148 O2145 1.259 . S
C2148 O2149 1.254 . S
O2149 Zn2147 2.046 . S
O2149 C2148 1.254 . S
C2150 O2171 1.256 . S
C2150 O2172 1.244 . S
O2151 Zn2147 2.055 . S
O2151 C2173 1.259 . S
O2152 Zn2144 2.046 . S
O2152 C2173 1.254 . S
N2153 Zn2147 2.036 . S
N2153 C2154 1.298 . S
N2153 N2156 1.398 . S
C2154 N2153 1.298 . S
C2154 N2157 1.367 . S
C2154 C2167 1.481 . S
C2155 N2156 1.299 . S
C2155 N2157 1.379 . S
N2156 N2153 1.398 . S
N2156 C2155 1.299 . S
N2157 C2154 1.367 . S
N2157 C2155 1.379 . S
C2158 N2160 1.298 . S
C2158 N2162 1.367 . S
C2158 C2166 1.481 . S
C2159 N2161 1.299 . S
C2159 N2162 1.379 . S
N2160 Zn2144 2.036 . S
N2160 C2158 1.298 . S
N2160 N2161 1.398 . S
N2161 C2159 1.299 . S
N2161 N2160 1.398 . S
N2162 C2158 1.367 . S
N2162 C2159 1.379 . S
H2163 C2166 0.980 . S
H2164 C2166 0.981 . S
H2165 C2166 0.981 . S
C2166 C2158 1.481 . S
C2166 H2163 0.980 . S
C2166 H2164 0.981 . S
C2166 H2165 0.981 . S
C2167 C2154 1.481 . S
C2167 H2168 0.980 . S
C2167 H2169 0.981 . S
C2167 H2170 0.981 . S
H2168 C2167 0.980 . S
H2169 C2167 0.981 . S
H2170 C2167 0.981 . S
O2171 Zn2147 2.066 . S
O2171 C2150 1.256 . S
O2172 Zn2144 2.053 . S
O2172 C2150 1.244 . S
C2173 O2151 1.259 . S
C2173 O2152 1.254 . S
O2174 Zn2144 2.066 . S
O2174 C2146 1.256 . S
O2175 C2146 1.244 . S
O2175 Zn2147 2.053 . S
Zn2176 O2177 2.055 . S
Zn2176 O2184 2.046 . S
Zn2176 N2192 2.036 . S
Zn2176 O2204 2.053 . S
Zn2176 O2206 2.066 . S
O2177 Zn2176 2.055 . S
O2177 C2180 1.259 . S
C2178 O2206 1.256 . S
C2178 O2207 1.244 . S
Zn2179 O2181 2.046 . S
Zn2179 O2183 2.055 . S
Zn2179 N2185 2.036 . S
Zn2179 O2203 2.066 . S
Zn2179 O2207 2.053 . S
C2180 O2177 1.259 . S
C2180 O2181 1.254 . S
O2181 Zn2179 2.046 . S
O2181 C2180 1.254 . S
C2182 O2203 1.256 1_554 S
C2182 O2204 1.244 1_554 S
O2183 Zn2179 2.055 . S
O2183 C2205 1.259 . S
O2184 Zn2176 2.046 . S
O2184 C2205 1.254 . S
N2185 Zn2179 2.036 . S
N2185 C2186 1.298 . S
N2185 N2188 1.398 . S
C2186 N2185 1.298 . S
C2186 N2189 1.367 . S
C2186 C2199 1.481 . S
C2187 N2188 1.299 . S
C2187 N2189 1.379 . S
N2188 N2185 1.398 . S
N2188 C2187 1.299 . S
N2189 C2186 1.367 . S
N2189 C2187 1.379 . S
C2190 N2192 1.298 . S
C2190 N2194 1.367 . S
C2190 C2198 1.481 . S
C2191 N2193 1.299 . S
C2191 N2194 1.379 1_554 S
N2192 Zn2176 2.036 . S
N2192 C2190 1.298 . S
N2192 N2193 1.398 1_556 S
N2193 C2191 1.299 . S
N2193 N2192 1.398 1_554 S
N2194 C2190 1.367 . S
N2194 C2191 1.379 1_556 S
H2195 C2198 0.980 . S
H2196 C2198 0.981 . S
H2197 C2198 0.981 . S
C2198 C2190 1.481 . S
C2198 H2195 0.980 . S
C2198 H2196 0.981 . S
C2198 H2197 0.981 . S
C2199 C2186 1.481 . S
C2199 H2200 0.980 . S
C2199 H2201 0.981 . S
C2199 H2202 0.981 . S
H2200 C2199 0.980 . S
H2201 C2199 0.981 . S
H2202 C2199 0.981 . S
O2203 Zn2179 2.066 . S
O2203 C2182 1.256 1_556 S
O2204 Zn2176 2.053 . S
O2204 C2182 1.244 1_556 S
C2205 O2183 1.259 . S
C2205 O2184 1.254 . S
O2206 Zn2176 2.066 . S
O2206 C2178 1.256 . S
O2207 C2178 1.244 . S
O2207 Zn2179 2.053 . S
Zn2208 O2209 2.055 . S
Zn2208 O2216 2.046 . S
Zn2208 N2224 2.036 . S
Zn2208 O2236 2.053 . S
Zn2208 O2238 2.066 . S
O2209 Zn2208 2.055 . S
O2209 C2212 1.259 . S
C2210 O2238 1.256 . S
C2210 O2239 1.244 . S
Zn2211 O2213 2.046 . S
Zn2211 O2215 2.055 . S
Zn2211 N2217 2.036 1_655 S
Zn2211 O2235 2.066 1_655 S
Zn2211 O2239 2.053 . S
C2212 O2209 1.259 . S
C2212 O2213 1.254 . S
O2213 Zn2211 2.046 . S
O2213 C2212 1.254 . S
C2214 O2235 1.256 1_655 S
C2214 O2236 1.244 . S
O2215 Zn2211 2.055 . S
O2215 C2237 1.259 . S
O2216 Zn2208 2.046 . S
O2216 C2237 1.254 . S
N2217 Zn2211 2.036 1_455 S
N2217 C2218 1.298 . S
N2217 N2220 1.398 . S
C2218 N2217 1.298 . S
C2218 N2221 1.367 . S
C2218 C2231 1.481 . S
C2219 N2220 1.299 . S
C2219 N2221 1.379 . S
N2220 N2217 1.398 . S
N2220 C2219 1.299 . S
N2221 C2218 1.367 . S
N2221 C2219 1.379 . S
C2222 N2224 1.298 . S
C2222 N2226 1.367 . S
C2222 C2230 1.481 . S
C2223 N2225 1.299 . S
C2223 N2226 1.379 . S
N2224 Zn2208 2.036 . S
N2224 C2222 1.298 . S
N2224 N2225 1.398 . S
N2225 C2223 1.299 . S
N2225 N2224 1.398 . S
N2226 C2222 1.367 . S
N2226 C2223 1.379 . S
H2227 C2230 0.980 . S
H2228 C2230 0.981 . S
H2229 C2230 0.981 . S
C2230 C2222 1.481 . S
C2230 H2227 0.980 . S
C2230 H2228 0.981 . S
C2230 H2229 0.981 . S
C2231 C2218 1.481 . S
C2231 H2232 0.980 . S
C2231 H2233 0.981 . S
C2231 H2234 0.981 . S
H2232 C2231 0.980 . S
H2233 C2231 0.981 . S
H2234 C2231 0.981 . S
O2235 Zn2211 2.066 1_455 S
O2235 C2214 1.256 1_455 S
O2236 Zn2208 2.053 . S
O2236 C2214 1.244 . S
C2237 O2215 1.259 . S
C2237 O2216 1.254 . S
O2238 Zn2208 2.066 . S
O2238 C2210 1.256 . S
O2239 C2210 1.244 . S
O2239 Zn2211 2.053 . S
Zn2240 O2241 2.055 . S
Zn2240 O2248 2.046 . S
Zn2240 N2256 2.036 . S
Zn2240 O2268 2.053 . S
Zn2240 O2270 2.066 . S
O2241 Zn2240 2.055 . S
O2241 C2244 1.259 . S
C2242 O2270 1.256 . S
C2242 O2271 1.244 . S
Zn2243 O2245 2.046 . S
Zn2243 O2247 2.055 . S
Zn2243 N2249 2.036 . S
Zn2243 O2267 2.066 . S
Zn2243 O2271 2.053 . S
C2244 O2241 1.259 . S
C2244 O2245 1.254 . S
O2245 Zn2243 2.046 . S
O2245 C2244 1.254 . S
C2246 O2267 1.256 . S
C2246 O2268 1.244 . S
O2247 Zn2243 2.055 . S
O2247 C2269 1.259 . S
O2248 Zn2240 2.046 . S
O2248 C2269 1.254 . S
N2249 Zn2243 2.036 . S
N2249 C2250 1.298 . S
N2249 N2252 1.398 . S
C2250 N2249 1.298 . S
C2250 N2253 1.367 . S
C2250 C2263 1.481 . S
C2251 N2252 1.299 . S
C2251 N2253 1.379 . S
N2252 N2249 1.398 . S
N2252 C2251 1.299 . S
N2253 C2250 1.367 . S
N2253 C2251 1.379 . S
C2254 N2256 1.298 . S
C2254 N2258 1.367 . S
C2254 C2262 1.481 . S
C2255 N2257 1.299 . S
C2255 N2258 1.379 . S
N2256 Zn2240 2.036 . S
N2256 C2254 1.298 . S
N2256 N2257 1.398 . S
N2257 C2255 1.299 . S
N2257 N2256 1.398 . S
N2258 C2254 1.367 . S
N2258 C2255 1.379 . S
H2259 C2262 0.980 . S
H2260 C2262 0.981 . S
H2261 C2262 0.981 . S
C2262 C2254 1.481 . S
C2262 H2259 0.980 . S
C2262 H2260 0.981 . S
C2262 H2261 0.981 . S
C2263 C2250 1.481 . S
C2263 H2264 0.980 . S
C2263 H2265 0.981 . S
C2263 H2266 0.981 . S
H2264 C2263 0.980 . S
H2265 C2263 0.981 . S
H2266 C2263 0.981 . S
O2267 Zn2243 2.066 . S
O2267 C2246 1.256 . S
O2268 Zn2240 2.053 . S
O2268 C2246 1.244 . S
C2269 O2247 1.259 . S
C2269 O2248 1.254 . S
O2270 Zn2240 2.066 . S
O2270 C2242 1.256 . S
O2271 C2242 1.244 . S
O2271 Zn2243 2.053 . S
Zn2272 O2273 2.055 . S
Zn2272 O2280 2.046 . S
Zn2272 N2288 2.036 . S
Zn2272 O2300 2.053 . S
Zn2272 O2302 2.066 . S
O2273 Zn2272 2.055 . S
O2273 C2276 1.259 . S
C2274 O2302 1.256 . S
C2274 O2303 1.244 . S
Zn2275 O2277 2.046 . S
Zn2275 O2279 2.055 . S
Zn2275 N2281 2.036 . S
Zn2275 O2299 2.066 . S
Zn2275 O2303 2.053 . S
C2276 O2273 1.259 . S
C2276 O2277 1.254 . S
O2277 Zn2275 2.046 . S
O2277 C2276 1.254 . S
C2278 O2299 1.256 . S
C2278 O2300 1.244 . S
O2279 Zn2275 2.055 . S
O2279 C2301 1.259 . S
O2280 Zn2272 2.046 . S
O2280 C2301 1.254 . S
N2281 Zn2275 2.036 . S
N2281 C2282 1.298 . S
N2281 N2284 1.398 . S
C2282 N2281 1.298 . S
C2282 N2285 1.367 . S
C2282 C2295 1.481 . S
C2283 N2284 1.299 . S
C2283 N2285 1.379 . S
N2284 N2281 1.398 . S
N2284 C2283 1.299 . S
N2285 C2282 1.367 . S
N2285 C2283 1.379 . S
C2286 N2288 1.298 . S
C2286 N2290 1.367 . S
C2286 C2294 1.481 . S
C2287 N2289 1.299 . S
C2287 N2290 1.379 . S
N2288 Zn2272 2.036 . S
N2288 C2286 1.298 . S
N2288 N2289 1.398 . S
N2289 C2287 1.299 . S
N2289 N2288 1.398 . S
N2290 C2286 1.367 . S
N2290 C2287 1.379 . S
H2291 C2294 0.980 . S
H2292 C2294 0.981 . S
H2293 C2294 0.981 . S
C2294 C2286 1.481 . S
C2294 H2291 0.980 . S
C2294 H2292 0.981 . S
C2294 H2293 0.981 . S
C2295 C2282 1.481 . S
C2295 H2296 0.980 . S
C2295 H2297 0.981 . S
C2295 H2298 0.981 . S
H2296 C2295 0.980 . S
H2297 C2295 0.981 . S
H2298 C2295 0.981 . S
O2299 Zn2275 2.066 . S
O2299 C2278 1.256 . S
O2300 Zn2272 2.053 . S
O2300 C2278 1.244 . S
C2301 O2279 1.259 . S
C2301 O2280 1.254 . S
O2302 Zn2272 2.066 . S
O2302 C2274 1.256 . S
O2303 C2274 1.244 . S
O2303 Zn2275 2.053 . S
Zn2304 O2305 2.055 . S
Zn2304 O2312 2.046 . S
Zn2304 N2320 2.036 . S
Zn2304 O2332 2.053 . S
Zn2304 O2334 2.066 . S
O2305 Zn2304 2.055 . S
O2305 C2308 1.259 . S
C2306 O2334 1.256 1_455 S
C2306 O2335 1.244 1_455 S
Zn2307 O2309 2.046 . S
Zn2307 O2311 2.055 . S
Zn2307 N2313 2.036 . S
Zn2307 O2331 2.066 . S
Zn2307 O2335 2.053 . S
C2308 O2305 1.259 . S
C2308 O2309 1.254 . S
O2309 Zn2307 2.046 . S
O2309 C2308 1.254 . S
C2310 O2331 1.256 . S
C2310 O2332 1.244 . S
O2311 Zn2307 2.055 . S
O2311 C2333 1.259 . S
O2312 Zn2304 2.046 . S
O2312 C2333 1.254 . S
N2313 Zn2307 2.036 . S
N2313 C2314 1.298 . S
N2313 N2316 1.398 . S
C2314 N2313 1.298 . S
C2314 N2317 1.367 . S
C2314 C2327 1.481 . S
C2315 N2316 1.299 . S
C2315 N2317 1.379 . S
N2316 N2313 1.398 . S
N2316 C2315 1.299 . S
N2317 C2314 1.367 . S
N2317 C2315 1.379 . S
C2318 N2320 1.298 . S
C2318 N2322 1.367 . S
C2318 C2326 1.481 1_655 S
C2319 N2321 1.299 . S
C2319 N2322 1.379 . S
N2320 Zn2304 2.036 . S
N2320 C2318 1.298 . S
N2320 N2321 1.398 . S
N2321 C2319 1.299 . S
N2321 N2320 1.398 . S
N2322 C2318 1.367 . S
N2322 C2319 1.379 . S
H2323 C2326 0.980 1_655 S
H2324 C2326 0.981 . S
H2325 C2326 0.981 . S
C2326 C2318 1.481 1_455 S
C2326 H2323 0.980 1_455 S
C2326 H2324 0.981 . S
C2326 H2325 0.981 . S
C2327 C2314 1.481 . S
C2327 H2328 0.980 . S
C2327 H2329 0.981 . S
C2327 H2330 0.981 . S
H2328 C2327 0.980 . S
H2329 C2327 0.981 . S
H2330 C2327 0.981 . S
O2331 Zn2307 2.066 . S
O2331 C2310 1.256 . S
O2332 Zn2304 2.053 . S
O2332 C2310 1.244 . S
C2333 O2311 1.259 . S
C2333 O2312 1.254 . S
O2334 Zn2304 2.066 . S
O2334 C2306 1.256 1_655 S
O2335 C2306 1.244 1_655 S
O2335 Zn2307 2.053 . S
Zn2336 O2337 2.055 . S
Zn2336 O2344 2.046 . S
Zn2336 N2352 2.036 . S
Zn2336 O2364 2.053 . S
Zn2336 O2366 2.066 . S
O2337 Zn2336 2.055 . S
O2337 C2340 1.259 . S
C2338 O2366 1.256 . S
C2338 O2367 1.244 . S
Zn2339 O2341 2.046 . S
Zn2339 O2343 2.055 . S
Zn2339 N2345 2.036 . S
Zn2339 O2363 2.066 . S
Zn2339 O2367 2.053 . S
C2340 O2337 1.259 . S
C2340 O2341 1.254 . S
O2341 Zn2339 2.046 . S
O2341 C2340 1.254 . S
C2342 O2363 1.256 . S
C2342 O2364 1.244 . S
O2343 Zn2339 2.055 . S
O2343 C2365 1.259 . S
O2344 Zn2336 2.046 . S
O2344 C2365 1.254 . S
N2345 Zn2339 2.036 . S
N2345 C2346 1.298 . S
N2345 N2348 1.398 . S
C2346 N2345 1.298 . S
C2346 N2349 1.367 . S
C2346 C2359 1.481 . S
C2347 N2348 1.299 . S
C2347 N2349 1.379 . S
N2348 N2345 1.398 . S
N2348 C2347 1.299 . S
N2349 C2346 1.367 . S
N2349 C2347 1.379 . S
C2350 N2352 1.298 . S
C2350 N2354 1.367 . S
C2350 C2358 1.481 . S
C2351 N2353 1.299 . S
C2351 N2354 1.379 . S
N2352 Zn2336 2.036 . S
N2352 C2350 1.298 . S
N2352 N2353 1.398 . S
N2353 C2351 1.299 . S
N2353 N2352 1.398 . S
N2354 C2350 1.367 . S
N2354 C2351 1.379 . S
H2355 C2358 0.980 . S
H2356 C2358 0.981 . S
H2357 C2358 0.981 . S
C2358 C2350 1.481 . S
C2358 H2355 0.980 . S
C2358 H2356 0.981 . S
C2358 H2357 0.981 . S
C2359 C2346 1.481 . S
C2359 H2360 0.980 . S
C2359 H2361 0.981 . S
C2359 H2362 0.981 . S
H2360 C2359 0.980 . S
H2361 C2359 0.981 . S
H2362 C2359 0.981 . S
O2363 Zn2339 2.066 . S
O2363 C2342 1.256 . S
O2364 Zn2336 2.053 . S
O2364 C2342 1.244 . S
C2365 O2343 1.259 . S
C2365 O2344 1.254 . S
O2366 Zn2336 2.066 . S
O2366 C2338 1.256 . S
O2367 C2338 1.244 . S
O2367 Zn2339 2.053 . S
Zn2368 O2369 2.055 . S
Zn2368 O2376 2.046 . S
Zn2368 N2384 2.036 1_545 S
Zn2368 O2396 2.053 1_545 S
Zn2368 O2398 2.066 . S
O2369 Zn2368 2.055 . S
O2369 C2372 1.259 . S
C2370 O2398 1.256 . S
C2370 O2399 1.244 . S
Zn2371 O2373 2.046 . S
Zn2371 O2375 2.055 . S
Zn2371 N2377 2.036 . S
Zn2371 O2395 2.066 . S
Zn2371 O2399 2.053 . S
C2372 O2369 1.259 . S
C2372 O2373 1.254 . S
O2373 Zn2371 2.046 . S
O2373 C2372 1.254 . S
C2374 O2395 1.256 . S
C2374 O2396 1.244 1_545 S
O2375 Zn2371 2.055 . S
O2375 C2397 1.259 . S
O2376 Zn2368 2.046 . S
O2376 C2397 1.254 . S
N2377 Zn2371 2.036 . S
N2377 C2378 1.298 . S
N2377 N2380 1.398 . S
C2378 N2377 1.298 . S
C2378 N2381 1.367 . S
C2378 C2391 1.481 . S
C2379 N2380 1.299 . S
C2379 N2381 1.379 . S
N2380 N2377 1.398 . S
N2380 C2379 1.299 . S
N2381 C2378 1.367 . S
N2381 C2379 1.379 . S
C2382 N2384 1.298 . S
C2382 N2386 1.367 . S
C2382 C2390 1.481 . S
C2383 N2385 1.299 . S
C2383 N2386 1.379 . S
N2384 Zn2368 2.036 1_565 S
N2384 C2382 1.298 . S
N2384 N2385 1.398 . S
N2385 C2383 1.299 . S
N2385 N2384 1.398 . S
N2386 C2382 1.367 . S
N2386 C2383 1.379 . S
H2387 C2390 0.980 . S
H2388 C2390 0.981 . S
H2389 C2390 0.981 . S
C2390 C2382 1.481 . S
C2390 H2387 0.980 . S
C2390 H2388 0.981 . S
C2390 H2389 0.981 . S
C2391 C2378 1.481 . S
C2391 H2392 0.980 . S
C2391 H2393 0.981 . S
C2391 H2394 0.981 . S
H2392 C2391 0.980 . S
H2393 C2391 0.981 . S
H2394 C2391 0.981 . S
O2395 Zn2371 2.066 . S
O2395 C2374 1.256 . S
O2396 Zn2368 2.053 1_565 S
O2396 C2374 1.244 1_565 S
C2397 O2375 1.259 . S
C2397 O2376 1.254 . S
O2398 Zn2368 2.066 . S
O2398 C2370 1.256 . S
O2399 C2370 1.244 . S
O2399 Zn2371 2.053 . S
Zn2400 O2401 2.055 . S
Zn2400 O2408 2.046 . S
Zn2400 N2416 2.036 . S
Zn2400 O2428 2.053 . S
Zn2400 O2430 2.066 . S
O2401 Zn2400 2.055 . S
O2401 C2404 1.259 . S
C2402 O2430 1.256 . S
C2402 O2431 1.244 1_655 S
Zn2403 O2405 2.046 . S
Zn2403 O2407 2.055 . S
Zn2403 N2409 2.036 1_655 S
Zn2403 O2427 2.066 . S
Zn2403 O2431 2.053 1_655 S
C2404 O2401 1.259 . S
C2404 O2405 1.254 . S
O2405 Zn2403 2.046 . S
O2405 C2404 1.254 . S
C2406 O2427 1.256 1_565 S
C2406 O2428 1.244 1_565 S
O2407 Zn2403 2.055 . S
O2407 C2429 1.259 . S
O2408 Zn2400 2.046 . S
O2408 C2429 1.254 . S
N2409 Zn2403 2.036 1_455 S
N2409 C2410 1.298 . S
N2409 N2412 1.398 . S
C2410 N2409 1.298 . S
C2410 N2413 1.367 . S
C2410 C2423 1.481 1_545 S
C2411 N2412 1.299 . S
C2411 N2413 1.379 . S
N2412 N2409 1.398 . S
N2412 C2411 1.299 . S
N2413 C2410 1.367 . S
N2413 C2411 1.379 . S
C2414 N2416 1.298 . S
C2414 N2418 1.367 . S
C2414 C2422 1.481 . S
C2415 N2417 1.299 . S
C2415 N2418 1.379 . S
N2416 Zn2400 2.036 . S
N2416 C2414 1.298 . S
N2416 N2417 1.398 . S
N2417 C2415 1.299 . S
N2417 N2416 1.398 . S
N2418 C2414 1.367 . S
N2418 C2415 1.379 . S
H2419 C2422 0.980 . S
H2420 C2422 0.981 . S
H2421 C2422 0.981 . S
C2422 C2414 1.481 . S
C2422 H2419 0.980 . S
C2422 H2420 0.981 . S
C2422 H2421 0.981 . S
C2423 C2410 1.481 1_565 S
C2423 H2424 0.980 1_565 S
C2423 H2425 0.981 . S
C2423 H2426 0.981 . S
H2424 C2423 0.980 1_545 S
H2425 C2423 0.981 . S
H2426 C2423 0.981 . S
O2427 Zn2403 2.066 . S
O2427 C2406 1.256 1_545 S
O2428 Zn2400 2.053 . S
O2428 C2406 1.244 1_545 S
C2429 O2407 1.259 . S
C2429 O2408 1.254 . S
O2430 Zn2400 2.066 . S
O2430 C2402 1.256 . S
O2431 C2402 1.244 1_455 S
O2431 Zn2403 2.053 1_455 S
Zn2432 O2433 2.055 . S
Zn2432 O2440 2.046 . S
Zn2432 N2448 2.036 . S
Zn2432 O2460 2.053 . S
Zn2432 O2462 2.066 . S
O2433 Zn2432 2.055 . S
O2433 C2436 1.259 . S
C2434 O2462 1.256 1_455 S
C2434 O2463 1.244 1_455 S
Zn2435 O2437 2.046 . S
Zn2435 O2439 2.055 . S
Zn2435 N2441 2.036 . S
Zn2435 O2459 2.066 . S
Zn2435 O2463 2.053 . S
C2436 O2433 1.259 . S
C2436 O2437 1.254 . S
O2437 Zn2435 2.046 . S
O2437 C2436 1.254 . S
C2438 O2459 1.256 . S
C2438 O2460 1.244 . S
O2439 Zn2435 2.055 . S
O2439 C2461 1.259 . S
O2440 Zn2432 2.046 . S
O2440 C2461 1.254 . S
N2441 Zn2435 2.036 . S
N2441 C2442 1.298 . S
N2441 N2444 1.398 . S
C2442 N2441 1.298 . S
C2442 N2445 1.367 . S
C2442 C2455 1.481 . S
C2443 N2444 1.299 . S
C2443 N2445 1.379 . S
N2444 N2441 1.398 . S
N2444 C2443 1.299 . S
N2445 C2442 1.367 . S
N2445 C2443 1.379 . S
C2446 N2448 1.298 . S
C2446 N2450 1.367 . S
C2446 C2454 1.481 1_655 S
C2447 N2449 1.299 . S
C2447 N2450 1.379 . S
N2448 Zn2432 2.036 . S
N2448 C2446 1.298 . S
N2448 N2449 1.398 . S
N2449 C2447 1.299 . S
N2449 N2448 1.398 . S
N2450 C2446 1.367 . S
N2450 C2447 1.379 . S
H2451 C2454 0.980 1_655 S
H2452 C2454 0.981 . S
H2453 C2454 0.981 . S
C2454 C2446 1.481 1_455 S
C2454 H2451 0.980 1_455 S
C2454 H2452 0.981 . S
C2454 H2453 0.981 . S
C2455 C2442 1.481 . S
C2455 H2456 0.980 . S
C2455 H2457 0.981 . S
C2455 H2458 0.981 . S
H2456 C2455 0.980 . S
H2457 C2455 0.981 . S
H2458 C2455 0.981 . S
O2459 Zn2435 2.066 . S
O2459 C2438 1.256 . S
O2460 Zn2432 2.053 . S
O2460 C2438 1.244 . S
C2461 O2439 1.259 . S
C2461 O2440 1.254 . S
O2462 Zn2432 2.066 . S
O2462 C2434 1.256 1_655 S
O2463 C2434 1.244 1_655 S
O2463 Zn2435 2.053 . S
Zn2464 O2465 2.055 . S
Zn2464 O2472 2.046 . S
Zn2464 N2480 2.036 . S
Zn2464 O2492 2.053 . S
Zn2464 O2494 2.066 . S
O2465 Zn2464 2.055 . S
O2465 C2468 1.259 . S
C2466 O2494 1.256 . S
C2466 O2495 1.244 . S
Zn2467 O2469 2.046 . S
Zn2467 O2471 2.055 . S
Zn2467 N2473 2.036 . S
Zn2467 O2491 2.066 . S
Zn2467 O2495 2.053 . S
C2468 O2465 1.259 . S
C2468 O2469 1.254 . S
O2469 Zn2467 2.046 . S
O2469 C2468 1.254 . S
C2470 O2491 1.256 . S
C2470 O2492 1.244 . S
O2471 Zn2467 2.055 . S
O2471 C2493 1.259 . S
O2472 Zn2464 2.046 . S
O2472 C2493 1.254 . S
N2473 Zn2467 2.036 . S
N2473 C2474 1.298 . S
N2473 N2476 1.398 . S
C2474 N2473 1.298 . S
C2474 N2477 1.367 . S
C2474 C2487 1.481 . S
C2475 N2476 1.299 . S
C2475 N2477 1.379 . S
N2476 N2473 1.398 . S
N2476 C2475 1.299 . S
N2477 C2474 1.367 . S
N2477 C2475 1.379 . S
C2478 N2480 1.298 . S
C2478 N2482 1.367 . S
C2478 C2486 1.481 . S
C2479 N2481 1.299 . S
C2479 N2482 1.379 . S
N2480 Zn2464 2.036 . S
N2480 C2478 1.298 . S
N2480 N2481 1.398 . S
N2481 C2479 1.299 . S
N2481 N2480 1.398 . S
N2482 C2478 1.367 . S
N2482 C2479 1.379 . S
H2483 C2486 0.980 . S
H2484 C2486 0.981 . S
H2485 C2486 0.981 . S
C2486 C2478 1.481 . S
C2486 H2483 0.980 . S
C2486 H2484 0.981 . S
C2486 H2485 0.981 . S
C2487 C2474 1.481 . S
C2487 H2488 0.980 . S
C2487 H2489 0.981 . S
C2487 H2490 0.981 . S
H2488 C2487 0.980 . S
H2489 C2487 0.981 . S
H2490 C2487 0.981 . S
O2491 Zn2467 2.066 . S
O2491 C2470 1.256 . S
O2492 Zn2464 2.053 . S
O2492 C2470 1.244 . S
C2493 O2471 1.259 . S
C2493 O2472 1.254 . S
O2494 Zn2464 2.066 . S
O2494 C2466 1.256 . S
O2495 C2466 1.244 . S
O2495 Zn2467 2.053 . S
Zn2496 O2497 2.055 . S
Zn2496 O2504 2.046 . S
Zn2496 N2512 2.036 . S
Zn2496 O2524 2.053 . S
Zn2496 O2526 2.066 . S
O2497 Zn2496 2.055 . S
O2497 C2500 1.259 . S
C2498 O2526 1.256 . S
C2498 O2527 1.244 . S
Zn2499 O2501 2.046 . S
Zn2499 O2503 2.055 . S
Zn2499 N2505 2.036 . S
Zn2499 O2523 2.066 . S
Zn2499 O2527 2.053 . S
C2500 O2497 1.259 . S
C2500 O2501 1.254 . S
O2501 Zn2499 2.046 . S
O2501 C2500 1.254 . S
C2502 O2523 1.256 . S
C2502 O2524 1.244 . S
O2503 Zn2499 2.055 . S
O2503 C2525 1.259 . S
O2504 Zn2496 2.046 . S
O2504 C2525 1.254 . S
N2505 Zn2499 2.036 . S
N2505 C2506 1.298 . S
N2505 N2508 1.398 . S
C2506 N2505 1.298 . S
C2506 N2509 1.367 . S
C2506 C2519 1.481 . S
C2507 N2508 1.299 . S
C2507 N2509 1.379 . S
N2508 N2505 1.398 . S
N2508 C2507 1.299 . S
N2509 C2506 1.367 . S
N2509 C2507 1.379 . S
C2510 N2512 1.298 . S
C2510 N2514 1.367 . S
C2510 C2518 1.481 . S
C2511 N2513 1.299 . S
C2511 N2514 1.379 . S
N2512 Zn2496 2.036 . S
N2512 C2510 1.298 . S
N2512 N2513 1.398 . S
N2513 C2511 1.299 . S
N2513 N2512 1.398 . S
N2514 C2510 1.367 . S
N2514 C2511 1.379 . S
H2515 C2518 0.980 . S
H2516 C2518 0.981 . S
H2517 C2518 0.981 . S
C2518 C2510 1.481 . S
C2518 H2515 0.980 . S
C2518 H2516 0.981 . S
C2518 H2517 0.981 . S
C2519 C2506 1.481 . S
C2519 H2520 0.980 . S
C2519 H2521 0.981 . S
C2519 H2522 0.981 . S
H2520 C2519 0.980 . S
H2521 C2519 0.981 . S
H2522 C2519 0.981 . S
O2523 Zn2499 2.066 . S
O2523 C2502 1.256 . S
O2524 Zn2496 2.053 . S
O2524 C2502 1.244 . S
C2525 O2503 1.259 . S
C2525 O2504 1.254 . S
O2526 Zn2496 2.066 . S
O2526 C2498 1.256 . S
O2527 C2498 1.244 . S
O2527 Zn2499 2.053 . S
Zn2528 O2529 2.055 . S
Zn2528 O2536 2.046 . S
Zn2528 N2544 2.036 . S
Zn2528 O2556 2.053 . S
Zn2528 O2558 2.066 . S
O2529 Zn2528 2.055 . S
O2529 C2532 1.259 . S
C2530 O2558 1.256 1_565 S
C2530 O2559 1.244 1_565 S
Zn2531 O2533 2.046 . S
Zn2531 O2535 2.055 . S
Zn2531 N2537 2.036 . S
Zn2531 O2555 2.066 . S
Zn2531 O2559 2.053 . S
C2532 O2529 1.259 . S
C2532 O2533 1.254 . S
O2533 Zn2531 2.046 . S
O2533 C2532 1.254 . S
C2534 O2555 1.256 . S
C2534 O2556 1.244 . S
O2535 Zn2531 2.055 . S
O2535 C2557 1.259 . S
O2536 Zn2528 2.046 . S
O2536 C2557 1.254 . S
N2537 Zn2531 2.036 . S
N2537 C2538 1.298 . S
N2537 N2540 1.398 . S
C2538 N2537 1.298 . S
C2538 N2541 1.367 . S
C2538 C2551 1.481 . S
C2539 N2540 1.299 . S
C2539 N2541 1.379 . S
N2540 N2537 1.398 . S
N2540 C2539 1.299 . S
N2541 C2538 1.367 . S
N2541 C2539 1.379 . S
C2542 N2544 1.298 . S
C2542 N2546 1.367 . S
C2542 C2550 1.481 1_545 S
C2543 N2545 1.299 . S
C2543 N2546 1.379 . S
N2544 Zn2528 2.036 . S
N2544 C2542 1.298 . S
N2544 N2545 1.398 . S
N2545 C2543 1.299 . S
N2545 N2544 1.398 . S
N2546 C2542 1.367 . S
N2546 C2543 1.379 . S
H2547 C2550 0.980 1_545 S
H2548 C2550 0.981 . S
H2549 C2550 0.981 . S
C2550 C2542 1.481 1_565 S
C2550 H2547 0.980 1_565 S
C2550 H2548 0.981 . S
C2550 H2549 0.981 . S
C2551 C2538 1.481 . S
C2551 H2552 0.980 . S
C2551 H2553 0.981 . S
C2551 H2554 0.981 . S
H2552 C2551 0.980 . S
H2553 C2551 0.981 . S
H2554 C2551 0.981 . S
O2555 Zn2531 2.066 . S
O2555 C2534 1.256 . S
O2556 Zn2528 2.053 . S
O2556 C2534 1.244 . S
C2557 O2535 1.259 . S
C2557 O2536 1.254 . S
O2558 Zn2528 2.066 . S
O2558 C2530 1.256 1_545 S
O2559 C2530 1.244 1_545 S
O2559 Zn2531 2.053 . S
Zn2560 O2561 2.055 . S
Zn2560 O2568 2.046 . S
Zn2560 N2576 2.036 . S
Zn2560 O2588 2.053 . S
Zn2560 O2590 2.066 . S
O2561 Zn2560 2.055 . S
O2561 C2564 1.259 . S
C2562 O2590 1.256 . S
C2562 O2591 1.244 . S
Zn2563 O2565 2.046 . S
Zn2563 O2567 2.055 . S
Zn2563 N2569 2.036 . S
Zn2563 O2587 2.066 . S
Zn2563 O2591 2.053 . S
C2564 O2561 1.259 . S
C2564 O2565 1.254 . S
O2565 Zn2563 2.046 . S
O2565 C2564 1.254 . S
C2566 O2587 1.256 . S
C2566 O2588 1.244 . S
O2567 Zn2563 2.055 . S
O2567 C2589 1.259 . S
O2568 Zn2560 2.046 . S
O2568 C2589 1.254 . S
N2569 Zn2563 2.036 . S
N2569 C2570 1.298 . S
N2569 N2572 1.398 . S
C2570 N2569 1.298 . S
C2570 N2573 1.367 . S
C2570 C2583 1.481 . S
C2571 N2572 1.299 . S
C2571 N2573 1.379 . S
N2572 N2569 1.398 . S
N2572 C2571 1.299 . S
N2573 C2570 1.367 . S
N2573 C2571 1.379 . S
C2574 N2576 1.298 . S
C2574 N2578 1.367 . S
C2574 C2582 1.481 . S
C2575 N2577 1.299 . S
C2575 N2578 1.379 . S
N2576 Zn2560 2.036 . S
N2576 C2574 1.298 . S
N2576 N2577 1.398 . S
N2577 C2575 1.299 . S
N2577 N2576 1.398 . S
N2578 C2574 1.367 . S
N2578 C2575 1.379 . S
H2579 C2582 0.980 . S
H2580 C2582 0.981 . S
H2581 C2582 0.981 . S
C2582 C2574 1.481 . S
C2582 H2579 0.980 . S
C2582 H2580 0.981 . S
C2582 H2581 0.981 . S
C2583 C2570 1.481 . S
C2583 H2584 0.980 . S
C2583 H2585 0.981 . S
C2583 H2586 0.981 . S
H2584 C2583 0.980 . S
H2585 C2583 0.981 . S
H2586 C2583 0.981 . S
O2587 Zn2563 2.066 . S
O2587 C2566 1.256 . S
O2588 Zn2560 2.053 . S
O2588 C2566 1.244 . S
C2589 O2567 1.259 . S
C2589 O2568 1.254 . S
O2590 Zn2560 2.066 . S
O2590 C2562 1.256 . S
O2591 C2562 1.244 . S
O2591 Zn2563 2.053 . S
Zn2592 O2593 2.055 . S
Zn2592 O2600 2.046 . S
Zn2592 N2608 2.036 . S
Zn2592 O2620 2.053 . S
Zn2592 O2622 2.066 . S
O2593 Zn2592 2.055 . S
O2593 C2596 1.259 . S
C2594 O2622 1.256 . S
C2594 O2623 1.244 1_556 S
Zn2595 O2597 2.046 . S
Zn2595 O2599 2.055 . S
Zn2595 N2601 2.036 1_556 S
Zn2595 O2619 2.066 . S
Zn2595 O2623 2.053 1_556 S
C2596 O2593 1.259 . S
C2596 O2597 1.254 . S
O2597 Zn2595 2.046 . S
O2597 C2596 1.254 . S
C2598 O2619 1.256 . S
C2598 O2620 1.244 . S
O2599 Zn2595 2.055 . S
O2599 C2621 1.259 . S
O2600 Zn2592 2.046 . S
O2600 C2621 1.254 . S
N2601 Zn2595 2.036 1_554 S
N2601 C2602 1.298 . S
N2601 N2604 1.398 . S
C2602 N2601 1.298 . S
C2602 N2605 1.367 . S
C2602 C2615 1.481 . S
C2603 N2604 1.299 . S
C2603 N2605 1.379 . S
N2604 N2601 1.398 . S
N2604 C2603 1.299 . S
N2605 C2602 1.367 . S
N2605 C2603 1.379 . S
C2606 N2608 1.298 . S
C2606 N2610 1.367 . S
C2606 C2614 1.481 . S
C2607 N2609 1.299 . S
C2607 N2610 1.379 . S
N2608 Zn2592 2.036 . S
N2608 C2606 1.298 . S
N2608 N2609 1.398 . S
N2609 C2607 1.299 . S
N2609 N2608 1.398 . S
N2610 C2606 1.367 . S
N2610 C2607 1.379 . S
H2611 C2614 0.980 . S
H2612 C2614 0.981 . S
H2613 C2614 0.981 . S
C2614 C2606 1.481 . S
C2614 H2611 0.980 . S
C2614 H2612 0.981 . S
C2614 H2613 0.981 . S
C2615 C2602 1.481 . S
C2615 H2616 0.980 . S
C2615 H2617 0.981 . S
C2615 H2618 0.981 . S
H2616 C2615 0.980 . S
H2617 C2615 0.981 . S
H2618 C2615 0.981 . S
O2619 Zn2595 2.066 . S
O2619 C2598 1.256 . S
O2620 Zn2592 2.053 . S
O2620 C2598 1.244 . S
C2621 O2599 1.259 . S
C2621 O2600 1.254 . S
O2622 Zn2592 2.066 . S
O2622 C2594 1.256 . S
O2623 C2594 1.244 1_554 S
O2623 Zn2595 2.053 1_554 S
Zn2624 O2625 2.055 . S
Zn2624 O2632 2.046 . S
Zn2624 N2640 2.036 . S
Zn2624 O2652 2.053 . S
Zn2624 O2654 2.066 . S
O2625 Zn2624 2.055 . S
O2625 C2628 1.259 . S
C2626 O2654 1.256 . S
C2626 O2655 1.244 . S
Zn2627 O2629 2.046 . S
Zn2627 O2631 2.055 . S
Zn2627 N2633 2.036 . S
Zn2627 O2651 2.066 . S
Zn2627 O2655 2.053 . S
C2628 O2625 1.259 . S
C2628 O2629 1.254 . S
O2629 Zn2627 2.046 . S
O2629 C2628 1.254 . S
C2630 O2651 1.256 . S
C2630 O2652 1.244 . S
O2631 Zn2627 2.055 . S
O2631 C2653 1.259 . S
O2632 Zn2624 2.046 . S
O2632 C2653 1.254 . S
N2633 Zn2627 2.036 . S
N2633 C2634 1.298 . S
N2633 N2636 1.398 . S
C2634 N2633 1.298 . S
C2634 N2637 1.367 . S
C2634 C2647 1.481 . S
C2635 N2636 1.299 . S
C2635 N2637 1.379 . S
N2636 N2633 1.398 . S
N2636 C2635 1.299 . S
N2637 C2634 1.367 . S
N2637 C2635 1.379 . S
C2638 N2640 1.298 . S
C2638 N2642 1.367 . S
C2638 C2646 1.481 . S
C2639 N2641 1.299 . S
C2639 N2642 1.379 . S
N2640 Zn2624 2.036 . S
N2640 C2638 1.298 . S
N2640 N2641 1.398 . S
N2641 C2639 1.299 . S
N2641 N2640 1.398 . S
N2642 C2638 1.367 . S
N2642 C2639 1.379 . S
H2643 C2646 0.980 . S
H2644 C2646 0.981 . S
H2645 C2646 0.981 . S
C2646 C2638 1.481 . S
C2646 H2643 0.980 . S
C2646 H2644 0.981 . S
C2646 H2645 0.981 . S
C2647 C2634 1.481 . S
C2647 H2648 0.980 . S
C2647 H2649 0.981 . S
C2647 H2650 0.981 . S
H2648 C2647 0.980 . S
H2649 C2647 0.981 . S
H2650 C2647 0.981 . S
O2651 Zn2627 2.066 . S
O2651 C2630 1.256 . S
O2652 Zn2624 2.053 . S
O2652 C2630 1.244 . S
C2653 O2631 1.259 . S
C2653 O2632 1.254 . S
O2654 Zn2624 2.066 . S
O2654 C2626 1.256 . S
O2655 C2626 1.244 . S
O2655 Zn2627 2.053 . S
Zn2656 O2657 2.055 . S
Zn2656 O2664 2.046 . S
Zn2656 N2672 2.036 . S
Zn2656 O2684 2.053 . S
Zn2656 O2686 2.066 . S
O2657 Zn2656 2.055 . S
O2657 C2660 1.259 . S
C2658 O2686 1.256 . S
C2658 O2687 1.244 . S
Zn2659 O2661 2.046 . S
Zn2659 O2663 2.055 . S
Zn2659 N2665 2.036 . S
Zn2659 O2683 2.066 . S
Zn2659 O2687 2.053 . S
C2660 O2657 1.259 . S
C2660 O2661 1.254 . S
O2661 Zn2659 2.046 . S
O2661 C2660 1.254 . S
C2662 O2683 1.256 . S
C2662 O2684 1.244 . S
O2663 Zn2659 2.055 . S
O2663 C2685 1.259 . S
O2664 Zn2656 2.046 . S
O2664 C2685 1.254 . S
N2665 Zn2659 2.036 . S
N2665 C2666 1.298 . S
N2665 N2668 1.398 . S
C2666 N2665 1.298 . S
C2666 N2669 1.367 . S
C2666 C2679 1.481 . S
C2667 N2668 1.299 . S
C2667 N2669 1.379 . S
N2668 N2665 1.398 . S
N2668 C2667 1.299 . S
N2669 C2666 1.367 . S
N2669 C2667 1.379 . S
C2670 N2672 1.298 . S
C2670 N2674 1.367 . S
C2670 C2678 1.481 . S
C2671 N2673 1.299 . S
C2671 N2674 1.379 . S
N2672 Zn2656 2.036 . S
N2672 C2670 1.298 . S
N2672 N2673 1.398 . S
N2673 C2671 1.299 . S
N2673 N2672 1.398 . S
N2674 C2670 1.367 . S
N2674 C2671 1.379 . S
H2675 C2678 0.980 . S
H2676 C2678 0.981 . S
H2677 C2678 0.981 . S
C2678 C2670 1.481 . S
C2678 H2675 0.980 . S
C2678 H2676 0.981 . S
C2678 H2677 0.981 . S
C2679 C2666 1.481 . S
C2679 H2680 0.980 . S
C2679 H2681 0.981 . S
C2679 H2682 0.981 . S
H2680 C2679 0.980 . S
H2681 C2679 0.981 . S
H2682 C2679 0.981 . S
O2683 Zn2659 2.066 . S
O2683 C2662 1.256 . S
O2684 Zn2656 2.053 . S
O2684 C2662 1.244 . S
C2685 O2663 1.259 . S
C2685 O2664 1.254 . S
O2686 Zn2656 2.066 . S
O2686 C2658 1.256 . S
O2687 C2658 1.244 . S
O2687 Zn2659 2.053 . S
Zn2688 O2689 2.055 . S
Zn2688 O2696 2.046 . S
Zn2688 N2704 2.036 . S
Zn2688 O2716 2.053 . S
Zn2688 O2718 2.066 . S
O2689 Zn2688 2.055 . S
O2689 C2692 1.259 . S
C2690 O2718 1.256 . S
C2690 O2719 1.244 . S
Zn2691 O2693 2.046 . S
Zn2691 O2695 2.055 . S
Zn2691 N2697 2.036 . S
Zn2691 O2715 2.066 . S
Zn2691 O2719 2.053 . S
C2692 O2689 1.259 . S
C2692 O2693 1.254 . S
O2693 Zn2691 2.046 . S
O2693 C2692 1.254 . S
C2694 O2715 1.256 . S
C2694 O2716 1.244 . S
O2695 Zn2691 2.055 . S
O2695 C2717 1.259 . S
O2696 Zn2688 2.046 . S
O2696 C2717 1.254 . S
N2697 Zn2691 2.036 . S
N2697 C2698 1.298 . S
N2697 N2700 1.398 . S
C2698 N2697 1.298 . S
C2698 N2701 1.367 . S
C2698 C2711 1.481 . S
C2699 N2700 1.299 . S
C2699 N2701 1.379 . S
N2700 N2697 1.398 . S
N2700 C2699 1.299 . S
N2701 C2698 1.367 . S
N2701 C2699 1.379 . S
C2702 N2704 1.298 . S
C2702 N2706 1.367 . S
C2702 C2710 1.481 . S
C2703 N2705 1.299 . S
C2703 N2706 1.379 . S
N2704 Zn2688 2.036 . S
N2704 C2702 1.298 . S
N2704 N2705 1.398 . S
N2705 C2703 1.299 . S
N2705 N2704 1.398 . S
N2706 C2702 1.367 . S
N2706 C2703 1.379 . S
H2707 C2710 0.980 . S
H2708 C2710 0.981 . S
H2709 C2710 0.981 . S
C2710 C2702 1.481 . S
C2710 H2707 0.980 . S
C2710 H2708 0.981 . S
C2710 H2709 0.981 . S
C2711 C2698 1.481 . S
C2711 H2712 0.980 . S
C2711 H2713 0.981 . S
C2711 H2714 0.981 . S
H2712 C2711 0.980 . S
H2713 C2711 0.981 . S
H2714 C2711 0.981 . S
O2715 Zn2691 2.066 . S
O2715 C2694 1.256 . S
O2716 Zn2688 2.053 . S
O2716 C2694 1.244 . S
C2717 O2695 1.259 . S
C2717 O2696 1.254 . S
O2718 Zn2688 2.066 . S
O2718 C2690 1.256 . S
O2719 C2690 1.244 . S
O2719 Zn2691 2.053 . S
Zn2720 O2721 2.055 . S
Zn2720 O2728 2.046 . S
Zn2720 N2736 2.036 . S
Zn2720 O2748 2.053 . S
Zn2720 O2750 2.066 . S
O2721 Zn2720 2.055 . S
O2721 C2724 1.259 . S
C2722 O2750 1.256 . S
C2722 O2751 1.244 . S
Zn2723 O2725 2.046 . S
Zn2723 O2727 2.055 . S
Zn2723 N2729 2.036 . S
Zn2723 O2747 2.066 . S
Zn2723 O2751 2.053 . S
C2724 O2721 1.259 . S
C2724 O2725 1.254 . S
O2725 Zn2723 2.046 . S
O2725 C2724 1.254 . S
C2726 O2747 1.256 . S
C2726 O2748 1.244 . S
O2727 Zn2723 2.055 . S
O2727 C2749 1.259 . S
O2728 Zn2720 2.046 . S
O2728 C2749 1.254 . S
N2729 Zn2723 2.036 . S
N2729 C2730 1.298 . S
N2729 N2732 1.398 . S
C2730 N2729 1.298 . S
C2730 N2733 1.367 . S
C2730 C2743 1.481 . S
C2731 N2732 1.299 . S
C2731 N2733 1.379 . S
N2732 N2729 1.398 . S
N2732 C2731 1.299 . S
N2733 C2730 1.367 . S
N2733 C2731 1.379 . S
C2734 N2736 1.298 . S
C2734 N2738 1.367 . S
C2734 C2742 1.481 . S
C2735 N2737 1.299 . S
C2735 N2738 1.379 . S
N2736 Zn2720 2.036 . S
N2736 C2734 1.298 . S
N2736 N2737 1.398 . S
N2737 C2735 1.299 . S
N2737 N2736 1.398 . S
N2738 C2734 1.367 . S
N2738 C2735 1.379 . S
H2739 C2742 0.980 . S
H2740 C2742 0.981 . S
H2741 C2742 0.981 . S
C2742 C2734 1.481 . S
C2742 H2739 0.980 . S
C2742 H2740 0.981 . S
C2742 H2741 0.981 . S
C2743 C2730 1.481 . S
C2743 H2744 0.980 . S
C2743 H2745 0.981 . S
C2743 H2746 0.981 . S
H2744 C2743 0.980 . S
H2745 C2743 0.981 . S
H2746 C2743 0.981 . S
O2747 Zn2723 2.066 . S
O2747 C2726 1.256 . S
O2748 Zn2720 2.053 . S
O2748 C2726 1.244 . S
C2749 O2727 1.259 . S
C2749 O2728 1.254 . S
O2750 Zn2720 2.066 . S
O2750 C2722 1.256 . S
O2751 C2722 1.244 . S
O2751 Zn2723 2.053 . S
Zn2752 O2753 2.055 . S
Zn2752 O2760 2.046 . S
Zn2752 N2768 2.036 . S
Zn2752 O2780 2.053 . S
Zn2752 O2782 2.066 . S
O2753 Zn2752 2.055 . S
O2753 C2756 1.259 . S
C2754 O2782 1.256 . S
C2754 O2783 1.244 1_554 S
Zn2755 O2757 2.046 . S
Zn2755 O2759 2.055 . S
Zn2755 N2761 2.036 1_554 S
Zn2755 O2779 2.066 . S
Zn2755 O2783 2.053 1_554 S
C2756 O2753 1.259 . S
C2756 O2757 1.254 . S
O2757 Zn2755 2.046 . S
O2757 C2756 1.254 . S
C2758 O2779 1.256 1_545 S
C2758 O2780 1.244 1_545 S
O2759 Zn2755 2.055 . S
O2759 C2781 1.259 . S
O2760 Zn2752 2.046 . S
O2760 C2781 1.254 . S
N2761 Zn2755 2.036 1_556 S
N2761 C2762 1.298 . S
N2761 N2764 1.398 . S
C2762 N2761 1.298 . S
C2762 N2765 1.367 . S
C2762 C2775 1.481 1_565 S
C2763 N2764 1.299 . S
C2763 N2765 1.379 . S
N2764 N2761 1.398 . S
N2764 C2763 1.299 . S
N2765 C2762 1.367 . S
N2765 C2763 1.379 . S
C2766 N2768 1.298 . S
C2766 N2770 1.367 . S
C2766 C2774 1.481 . S
C2767 N2769 1.299 . S
C2767 N2770 1.379 . S
N2768 Zn2752 2.036 . S
N2768 C2766 1.298 . S
N2768 N2769 1.398 . S
N2769 C2767 1.299 . S
N2769 N2768 1.398 . S
N2770 C2766 1.367 . S
N2770 C2767 1.379 . S
H2771 C2774 0.980 . S
H2772 C2774 0.981 . S
H2773 C2774 0.981 . S
C2774 C2766 1.481 . S
C2774 H2771 0.980 . S
C2774 H2772 0.981 . S
C2774 H2773 0.981 . S
C2775 C2762 1.481 1_545 S
C2775 H2776 0.980 1_545 S
C2775 H2777 0.981 . S
C2775 H2778 0.981 . S
H2776 C2775 0.980 1_565 S
H2777 C2775 0.981 . S
H2778 C2775 0.981 . S
O2779 Zn2755 2.066 . S
O2779 C2758 1.256 1_565 S
O2780 Zn2752 2.053 . S
O2780 C2758 1.244 1_565 S
C2781 O2759 1.259 . S
C2781 O2760 1.254 . S
O2782 Zn2752 2.066 . S
O2782 C2754 1.256 . S
O2783 C2754 1.244 1_556 S
O2783 Zn2755 2.053 1_556 S
Zn2784 O2785 2.055 . S
Zn2784 O2792 2.046 . S
Zn2784 N2800 2.036 . S
Zn2784 O2812 2.053 . S
Zn2784 O2814 2.066 . S
O2785 Zn2784 2.055 . S
O2785 C2788 1.259 . S
C2786 O2814 1.256 1_655 S
C2786 O2815 1.244 1_655 S
Zn2787 O2789 2.046 . S
Zn2787 O2791 2.055 . S
Zn2787 N2793 2.036 . S
Zn2787 O2811 2.066 . S
Zn2787 O2815 2.053 . S
C2788 O2785 1.259 . S
C2788 O2789 1.254 . S
O2789 Zn2787 2.046 . S
O2789 C2788 1.254 . S
C2790 O2811 1.256 . S
C2790 O2812 1.244 . S
O2791 Zn2787 2.055 . S
O2791 C2813 1.259 . S
O2792 Zn2784 2.046 . S
O2792 C2813 1.254 . S
N2793 Zn2787 2.036 . S
N2793 C2794 1.298 . S
N2793 N2796 1.398 . S
C2794 N2793 1.298 . S
C2794 N2797 1.367 . S
C2794 C2807 1.481 . S
C2795 N2796 1.299 . S
C2795 N2797 1.379 . S
N2796 N2793 1.398 . S
N2796 C2795 1.299 . S
N2797 C2794 1.367 . S
N2797 C2795 1.379 . S
C2798 N2800 1.298 . S
C2798 N2802 1.367 . S
C2798 C2806 1.481 1_455 S
C2799 N2801 1.299 . S
C2799 N2802 1.379 . S
N2800 Zn2784 2.036 . S
N2800 C2798 1.298 . S
N2800 N2801 1.398 . S
N2801 C2799 1.299 . S
N2801 N2800 1.398 . S
N2802 C2798 1.367 . S
N2802 C2799 1.379 . S
H2803 C2806 0.980 1_455 S
H2804 C2806 0.981 . S
H2805 C2806 0.981 . S
C2806 C2798 1.481 1_655 S
C2806 H2803 0.980 1_655 S
C2806 H2804 0.981 . S
C2806 H2805 0.981 . S
C2807 C2794 1.481 . S
C2807 H2808 0.980 . S
C2807 H2809 0.981 . S
C2807 H2810 0.981 . S
H2808 C2807 0.980 . S
H2809 C2807 0.981 . S
H2810 C2807 0.981 . S
O2811 Zn2787 2.066 . S
O2811 C2790 1.256 . S
O2812 Zn2784 2.053 . S
O2812 C2790 1.244 . S
C2813 O2791 1.259 . S
C2813 O2792 1.254 . S
O2814 Zn2784 2.066 . S
O2814 C2786 1.256 1_455 S
O2815 C2786 1.244 1_455 S
O2815 Zn2787 2.053 . S
Zn2816 O2817 2.055 . S
Zn2816 O2824 2.046 . S
Zn2816 N2832 2.036 . S
Zn2816 O2844 2.053 . S
Zn2816 O2846 2.066 . S
O2817 Zn2816 2.055 . S
O2817 C2820 1.259 . S
C2818 O2846 1.256 . S
C2818 O2847 1.244 . S
Zn2819 O2821 2.046 . S
Zn2819 O2823 2.055 . S
Zn2819 N2825 2.036 . S
Zn2819 O2843 2.066 . S
Zn2819 O2847 2.053 . S
C2820 O2817 1.259 . S
C2820 O2821 1.254 . S
O2821 Zn2819 2.046 . S
O2821 C2820 1.254 . S
C2822 O2843 1.256 . S
C2822 O2844 1.244 . S
O2823 Zn2819 2.055 . S
O2823 C2845 1.259 . S
O2824 Zn2816 2.046 . S
O2824 C2845 1.254 . S
N2825 Zn2819 2.036 . S
N2825 C2826 1.298 . S
N2825 N2828 1.398 . S
C2826 N2825 1.298 . S
C2826 N2829 1.367 . S
C2826 C2839 1.481 . S
C2827 N2828 1.299 . S
C2827 N2829 1.379 . S
N2828 N2825 1.398 . S
N2828 C2827 1.299 . S
N2829 C2826 1.367 . S
N2829 C2827 1.379 . S
C2830 N2832 1.298 . S
C2830 N2834 1.367 . S
C2830 C2838 1.481 . S
C2831 N2833 1.299 . S
C2831 N2834 1.379 . S
N2832 Zn2816 2.036 . S
N2832 C2830 1.298 . S
N2832 N2833 1.398 . S
N2833 C2831 1.299 . S
N2833 N2832 1.398 . S
N2834 C2830 1.367 . S
N2834 C2831 1.379 . S
H2835 C2838 0.980 . S
H2836 C2838 0.981 . S
H2837 C2838 0.981 . S
C2838 C2830 1.481 . S
C2838 H2835 0.980 . S
C2838 H2836 0.981 . S
C2838 H2837 0.981 . S
C2839 C2826 1.481 . S
C2839 H2840 0.980 . S
C2839 H2841 0.981 . S
C2839 H2842 0.981 . S
H2840 C2839 0.980 . S
H2841 C2839 0.981 . S
H2842 C2839 0.981 . S
O2843 Zn2819 2.066 . S
O2843 C2822 1.256 . S
O2844 Zn2816 2.053 . S
O2844 C2822 1.244 . S
C2845 O2823 1.259 . S
C2845 O2824 1.254 . S
O2846 Zn2816 2.066 . S
O2846 C2818 1.256 . S
O2847 C2818 1.244 . S
O2847 Zn2819 2.053 . S
Zn2848 O2849 2.055 . S
Zn2848 O2856 2.046 . S
Zn2848 N2864 2.036 . S
Zn2848 O2876 2.053 . S
Zn2848 O2878 2.066 . S
O2849 Zn2848 2.055 . S
O2849 C2852 1.259 . S
C2850 O2878 1.256 . S
C2850 O2879 1.244 . S
Zn2851 O2853 2.046 . S
Zn2851 O2855 2.055 . S
Zn2851 N2857 2.036 . S
Zn2851 O2875 2.066 . S
Zn2851 O2879 2.053 . S
C2852 O2849 1.259 . S
C2852 O2853 1.254 . S
O2853 Zn2851 2.046 . S
O2853 C2852 1.254 . S
C2854 O2875 1.256 . S
C2854 O2876 1.244 . S
O2855 Zn2851 2.055 . S
O2855 C2877 1.259 . S
O2856 Zn2848 2.046 . S
O2856 C2877 1.254 . S
N2857 Zn2851 2.036 . S
N2857 C2858 1.298 . S
N2857 N2860 1.398 . S
C2858 N2857 1.298 . S
C2858 N2861 1.367 . S
C2858 C2871 1.481 . S
C2859 N2860 1.299 . S
C2859 N2861 1.379 . S
N2860 N2857 1.398 . S
N2860 C2859 1.299 . S
N2861 C2858 1.367 . S
N2861 C2859 1.379 . S
C2862 N2864 1.298 . S
C2862 N2866 1.367 . S
C2862 C2870 1.481 . S
C2863 N2865 1.299 . S
C2863 N2866 1.379 . S
N2864 Zn2848 2.036 . S
N2864 C2862 1.298 . S
N2864 N2865 1.398 . S
N2865 C2863 1.299 . S
N2865 N2864 1.398 . S
N2866 C2862 1.367 . S
N2866 C2863 1.379 . S
H2867 C2870 0.980 . S
H2868 C2870 0.981 . S
H2869 C2870 0.981 . S
C2870 C2862 1.481 . S
C2870 H2867 0.980 . S
C2870 H2868 0.981 . S
C2870 H2869 0.981 . S
C2871 C2858 1.481 . S
C2871 H2872 0.980 . S
C2871 H2873 0.981 . S
C2871 H2874 0.981 . S
H2872 C2871 0.980 . S
H2873 C2871 0.981 . S
H2874 C2871 0.981 . S
O2875 Zn2851 2.066 . S
O2875 C2854 1.256 . S
O2876 Zn2848 2.053 . S
O2876 C2854 1.244 . S
C2877 O2855 1.259 . S
C2877 O2856 1.254 . S
O2878 Zn2848 2.066 . S
O2878 C2850 1.256 . S
O2879 C2850 1.244 . S
O2879 Zn2851 2.053 . S
Zn2880 O2881 2.055 . S
Zn2880 O2888 2.046 . S
Zn2880 N2896 2.036 . S
Zn2880 O2908 2.053 . S
Zn2880 O2910 2.066 . S
O2881 Zn2880 2.055 . S
O2881 C2884 1.259 . S
C2882 O2910 1.256 . S
C2882 O2911 1.244 . S
Zn2883 O2885 2.046 . S
Zn2883 O2887 2.055 . S
Zn2883 N2889 2.036 . S
Zn2883 O2907 2.066 . S
Zn2883 O2911 2.053 . S
C2884 O2881 1.259 . S
C2884 O2885 1.254 . S
O2885 Zn2883 2.046 . S
O2885 C2884 1.254 . S
C2886 O2907 1.256 . S
C2886 O2908 1.244 . S
O2887 Zn2883 2.055 . S
O2887 C2909 1.259 . S
O2888 Zn2880 2.046 . S
O2888 C2909 1.254 . S
N2889 Zn2883 2.036 . S
N2889 C2890 1.298 . S
N2889 N2892 1.398 . S
C2890 N2889 1.298 . S
C2890 N2893 1.367 . S
C2890 C2903 1.481 . S
C2891 N2892 1.299 . S
C2891 N2893 1.379 . S
N2892 N2889 1.398 . S
N2892 C2891 1.299 . S
N2893 C2890 1.367 . S
N2893 C2891 1.379 . S
C2894 N2896 1.298 . S
C2894 N2898 1.367 . S
C2894 C2902 1.481 . S
C2895 N2897 1.299 . S
C2895 N2898 1.379 . S
N2896 Zn2880 2.036 . S
N2896 C2894 1.298 . S
N2896 N2897 1.398 . S
N2897 C2895 1.299 . S
N2897 N2896 1.398 . S
N2898 C2894 1.367 . S
N2898 C2895 1.379 . S
H2899 C2902 0.980 . S
H2900 C2902 0.981 . S
H2901 C2902 0.981 . S
C2902 C2894 1.481 . S
C2902 H2899 0.980 . S
C2902 H2900 0.981 . S
C2902 H2901 0.981 . S
C2903 C2890 1.481 . S
C2903 H2904 0.980 . S
C2903 H2905 0.981 . S
C2903 H2906 0.981 . S
H2904 C2903 0.980 . S
H2905 C2903 0.981 . S
H2906 C2903 0.981 . S
O2907 Zn2883 2.066 . S
O2907 C2886 1.256 . S
O2908 Zn2880 2.053 . S
O2908 C2886 1.244 . S
C2909 O2887 1.259 . S
C2909 O2888 1.254 . S
O2910 Zn2880 2.066 . S
O2910 C2882 1.256 . S
O2911 C2882 1.244 . S
O2911 Zn2883 2.053 . S
Zn2912 O2913 2.055 . S
Zn2912 O2920 2.046 . S
Zn2912 N2928 2.036 . S
Zn2912 O2940 2.053 . S
Zn2912 O2942 2.066 . S
O2913 Zn2912 2.055 . S
O2913 C2916 1.259 . S
C2914 O2942 1.256 . S
C2914 O2943 1.244 . S
Zn2915 O2917 2.046 . S
Zn2915 O2919 2.055 . S
Zn2915 N2921 2.036 . S
Zn2915 O2939 2.066 . S
Zn2915 O2943 2.053 . S
C2916 O2913 1.259 . S
C2916 O2917 1.254 . S
O2917 Zn2915 2.046 . S
O2917 C2916 1.254 . S
C2918 O2939 1.256 . S
C2918 O2940 1.244 . S
O2919 Zn2915 2.055 . S
O2919 C2941 1.259 . S
O2920 Zn2912 2.046 . S
O2920 C2941 1.254 . S
N2921 Zn2915 2.036 . S
N2921 C2922 1.298 . S
N2921 N2924 1.398 . S
C2922 N2921 1.298 . S
C2922 N2925 1.367 . S
C2922 C2935 1.481 . S
C2923 N2924 1.299 . S
C2923 N2925 1.379 . S
N2924 N2921 1.398 . S
N2924 C2923 1.299 . S
N2925 C2922 1.367 . S
N2925 C2923 1.379 . S
C2926 N2928 1.298 . S
C2926 N2930 1.367 . S
C2926 C2934 1.481 . S
C2927 N2929 1.299 . S
C2927 N2930 1.379 . S
N2928 Zn2912 2.036 . S
N2928 C2926 1.298 . S
N2928 N2929 1.398 . S
N2929 C2927 1.299 . S
N2929 N2928 1.398 . S
N2930 C2926 1.367 . S
N2930 C2927 1.379 . S
H2931 C2934 0.980 . S
H2932 C2934 0.981 . S
H2933 C2934 0.981 . S
C2934 C2926 1.481 . S
C2934 H2931 0.980 . S
C2934 H2932 0.981 . S
C2934 H2933 0.981 . S
C2935 C2922 1.481 . S
C2935 H2936 0.980 . S
C2935 H2937 0.981 . S
C2935 H2938 0.981 . S
H2936 C2935 0.980 . S
H2937 C2935 0.981 . S
H2938 C2935 0.981 . S
O2939 Zn2915 2.066 . S
O2939 C2918 1.256 . S
O2940 Zn2912 2.053 . S
O2940 C2918 1.244 . S
C2941 O2919 1.259 . S
C2941 O2920 1.254 . S
O2942 Zn2912 2.066 . S
O2942 C2914 1.256 . S
O2943 C2914 1.244 . S
O2943 Zn2915 2.053 . S
Zn2944 O2945 2.055 . S
Zn2944 O2952 2.046 . S
Zn2944 N2960 2.036 . S
Zn2944 O2972 2.053 . S
Zn2944 O2974 2.066 . S
O2945 Zn2944 2.055 . S
O2945 C2948 1.259 . S
C2946 O2974 1.256 1_556 S
C2946 O2975 1.244 1_556 S
Zn2947 O2949 2.046 . S
Zn2947 O2951 2.055 . S
Zn2947 N2953 2.036 . S
Zn2947 O2971 2.066 . S
Zn2947 O2975 2.053 . S
C2948 O2945 1.259 . S
C2948 O2949 1.254 . S
O2949 Zn2947 2.046 . S
O2949 C2948 1.254 . S
C2950 O2971 1.256 . S
C2950 O2972 1.244 . S
O2951 Zn2947 2.055 . S
O2951 C2973 1.259 . S
O2952 Zn2944 2.046 . S
O2952 C2973 1.254 . S
N2953 Zn2947 2.036 . S
N2953 C2954 1.298 . S
N2953 N2956 1.398 . S
C2954 N2953 1.298 . S
C2954 N2957 1.367 . S
C2954 C2967 1.481 . S
C2955 N2956 1.299 . S
C2955 N2957 1.379 . S
N2956 N2953 1.398 . S
N2956 C2955 1.299 . S
N2957 C2954 1.367 . S
N2957 C2955 1.379 . S
C2958 N2960 1.298 . S
C2958 N2962 1.367 . S
C2958 C2966 1.481 1_554 S
C2959 N2961 1.299 . S
C2959 N2962 1.379 . S
N2960 Zn2944 2.036 . S
N2960 C2958 1.298 . S
N2960 N2961 1.398 . S
N2961 C2959 1.299 . S
N2961 N2960 1.398 . S
N2962 C2958 1.367 . S
N2962 C2959 1.379 . S
H2963 C2966 0.980 1_554 S
H2964 C2966 0.981 . S
H2965 C2966 0.981 . S
C2966 C2958 1.481 1_556 S
C2966 H2963 0.980 1_556 S
C2966 H2964 0.981 . S
C2966 H2965 0.981 . S
C2967 C2954 1.481 . S
C2967 H2968 0.980 . S
C2967 H2969 0.981 . S
C2967 H2970 0.981 . S
H2968 C2967 0.980 . S
H2969 C2967 0.981 . S
H2970 C2967 0.981 . S
O2971 Zn2947 2.066 . S
O2971 C2950 1.256 . S
O2972 Zn2944 2.053 . S
O2972 C2950 1.244 . S
C2973 O2951 1.259 . S
C2973 O2952 1.254 . S
O2974 Zn2944 2.066 . S
O2974 C2946 1.256 1_554 S
O2975 C2946 1.244 1_554 S
O2975 Zn2947 2.053 . S
Zn2976 O2977 2.055 . S
Zn2976 O2984 2.046 . S
Zn2976 N2992 2.036 1_455 S
Zn2976 O3004 2.053 1_455 S
Zn2976 O3006 2.066 . S
O2977 Zn2976 2.055 . S
O2977 C2980 1.259 . S
C2978 O3006 1.256 . S
C2978 O3007 1.244 . S
Zn2979 O2981 2.046 . S
Zn2979 O2983 2.055 . S
Zn2979 N2985 2.036 . S
Zn2979 O3003 2.066 . S
Zn2979 O3007 2.053 . S
C2980 O2977 1.259 . S
C2980 O2981 1.254 . S
O2981 Zn2979 2.046 . S
O2981 C2980 1.254 . S
C2982 O3003 1.256 . S
C2982 O3004 1.244 1_455 S
O2983 Zn2979 2.055 . S
O2983 C3005 1.259 . S
O2984 Zn2976 2.046 . S
O2984 C3005 1.254 . S
N2985 Zn2979 2.036 . S
N2985 C2986 1.298 . S
N2985 N2988 1.398 . S
C2986 N2985 1.298 . S
C2986 N2989 1.367 . S
C2986 C2999 1.481 . S
C2987 N2988 1.299 . S
C2987 N2989 1.379 . S
N2988 N2985 1.398 . S
N2988 C2987 1.299 . S
N2989 C2986 1.367 . S
N2989 C2987 1.379 . S
C2990 N2992 1.298 . S
C2990 N2994 1.367 . S
C2990 C2998 1.481 . S
C2991 N2993 1.299 . S
C2991 N2994 1.379 . S
N2992 Zn2976 2.036 1_655 S
N2992 C2990 1.298 . S
N2992 N2993 1.398 . S
N2993 C2991 1.299 . S
N2993 N2992 1.398 . S
N2994 C2990 1.367 . S
N2994 C2991 1.379 . S
H2995 C2998 0.980 . S
H2996 C2998 0.981 . S
H2997 C2998 0.981 . S
C2998 C2990 1.481 . S
C2998 H2995 0.980 . S
C2998 H2996 0.981 . S
C2998 H2997 0.981 . S
C2999 C2986 1.481 . S
C2999 H3000 0.980 . S
C2999 H3001 0.981 . S
C2999 H3002 0.981 . S
H3000 C2999 0.980 . S
H3001 C2999 0.981 . S
H3002 C2999 0.981 . S
O3003 Zn2979 2.066 . S
O3003 C2982 1.256 . S
O3004 Zn2976 2.053 1_655 S
O3004 C2982 1.244 1_655 S
C3005 O2983 1.259 . S
C3005 O2984 1.254 . S
O3006 Zn2976 2.066 . S
O3006 C2978 1.256 . S
O3007 C2978 1.244 . S
O3007 Zn2979 2.053 . S
Zn3008 O3009 2.055 . S
Zn3008 O3016 2.046 . S
Zn3008 N3024 2.036 . S
Zn3008 O3036 2.053 . S
Zn3008 O3038 2.066 . S
O3009 Zn3008 2.055 . S
O3009 C3012 1.259 . S
C3010 O3038 1.256 . S
C3010 O3039 1.244 . S
Zn3011 O3013 2.046 . S
Zn3011 O3015 2.055 . S
Zn3011 N3017 2.036 . S
Zn3011 O3035 2.066 . S
Zn3011 O3039 2.053 . S
C3012 O3009 1.259 . S
C3012 O3013 1.254 . S
O3013 Zn3011 2.046 . S
O3013 C3012 1.254 . S
C3014 O3035 1.256 . S
C3014 O3036 1.244 . S
O3015 Zn3011 2.055 . S
O3015 C3037 1.259 . S
O3016 Zn3008 2.046 . S
O3016 C3037 1.254 . S
N3017 Zn3011 2.036 . S
N3017 C3018 1.298 . S
N3017 N3020 1.398 . S
C3018 N3017 1.298 . S
C3018 N3021 1.367 . S
C3018 C3031 1.481 . S
C3019 N3020 1.299 . S
C3019 N3021 1.379 . S
N3020 N3017 1.398 . S
N3020 C3019 1.299 . S
N3021 C3018 1.367 . S
N3021 C3019 1.379 . S
C3022 N3024 1.298 . S
C3022 N3026 1.367 . S
C3022 C3030 1.481 . S
C3023 N3025 1.299 . S
C3023 N3026 1.379 . S
N3024 Zn3008 2.036 . S
N3024 C3022 1.298 . S
N3024 N3025 1.398 . S
N3025 C3023 1.299 . S
N3025 N3024 1.398 . S
N3026 C3022 1.367 . S
N3026 C3023 1.379 . S
H3027 C3030 0.980 . S
H3028 C3030 0.981 . S
H3029 C3030 0.981 . S
C3030 C3022 1.481 . S
C3030 H3027 0.980 . S
C3030 H3028 0.981 . S
C3030 H3029 0.981 . S
C3031 C3018 1.481 . S
C3031 H3032 0.980 . S
C3031 H3033 0.981 . S
C3031 H3034 0.981 . S
H3032 C3031 0.980 . S
H3033 C3031 0.981 . S
H3034 C3031 0.981 . S
O3035 Zn3011 2.066 . S
O3035 C3014 1.256 . S
O3036 Zn3008 2.053 . S
O3036 C3014 1.244 . S
C3037 O3015 1.259 . S
C3037 O3016 1.254 . S
O3038 Zn3008 2.066 . S
O3038 C3010 1.256 . S
O3039 C3010 1.244 . S
O3039 Zn3011 2.053 . S
Zn3040 O3041 2.055 . S
Zn3040 O3048 2.046 . S
Zn3040 N3056 2.036 . S
Zn3040 O3068 2.053 . S
Zn3040 O3070 2.066 . S
O3041 Zn3040 2.055 . S
O3041 C3044 1.259 . S
C3042 O3070 1.256 . S
C3042 O3071 1.244 . S
Zn3043 O3045 2.046 . S
Zn3043 O3047 2.055 . S
Zn3043 N3049 2.036 . S
Zn3043 O3067 2.066 . S
Zn3043 O3071 2.053 . S
C3044 O3041 1.259 . S
C3044 O3045 1.254 . S
O3045 Zn3043 2.046 . S
O3045 C3044 1.254 . S
C3046 O3067 1.256 . S
C3046 O3068 1.244 . S
O3047 Zn3043 2.055 . S
O3047 C3069 1.259 . S
O3048 Zn3040 2.046 . S
O3048 C3069 1.254 . S
N3049 Zn3043 2.036 . S
N3049 C3050 1.298 . S
N3049 N3052 1.398 . S
C3050 N3049 1.298 . S
C3050 N3053 1.367 . S
C3050 C3063 1.481 . S
C3051 N3052 1.299 . S
C3051 N3053 1.379 . S
N3052 N3049 1.398 . S
N3052 C3051 1.299 . S
N3053 C3050 1.367 . S
N3053 C3051 1.379 . S
C3054 N3056 1.298 . S
C3054 N3058 1.367 . S
C3054 C3062 1.481 . S
C3055 N3057 1.299 . S
C3055 N3058 1.379 . S
N3056 Zn3040 2.036 . S
N3056 C3054 1.298 . S
N3056 N3057 1.398 . S
N3057 C3055 1.299 . S
N3057 N3056 1.398 . S
N3058 C3054 1.367 . S
N3058 C3055 1.379 . S
H3059 C3062 0.980 . S
H3060 C3062 0.981 . S
H3061 C3062 0.981 . S
C3062 C3054 1.481 . S
C3062 H3059 0.980 . S
C3062 H3060 0.981 . S
C3062 H3061 0.981 . S
C3063 C3050 1.481 . S
C3063 H3064 0.980 . S
C3063 H3065 0.981 . S
C3063 H3066 0.981 . S
H3064 C3063 0.980 . S
H3065 C3063 0.981 . S
H3066 C3063 0.981 . S
O3067 Zn3043 2.066 . S
O3067 C3046 1.256 . S
O3068 Zn3040 2.053 . S
O3068 C3046 1.244 . S
C3069 O3047 1.259 . S
C3069 O3048 1.254 . S
O3070 Zn3040 2.066 . S
O3070 C3042 1.256 . S
O3071 C3042 1.244 . S
O3071 Zn3043 2.053 . S
Zn3072 O3073 2.055 . S
Zn3072 O3080 2.046 . S
Zn3072 N3088 2.036 . S
Zn3072 O3100 2.053 . S
Zn3072 O3102 2.066 . S
O3073 Zn3072 2.055 . S
O3073 C3076 1.259 . S
C3074 O3102 1.256 . S
C3074 O3103 1.244 . S
Zn3075 O3077 2.046 . S
Zn3075 O3079 2.055 . S
Zn3075 N3081 2.036 . S
Zn3075 O3099 2.066 . S
Zn3075 O3103 2.053 . S
C3076 O3073 1.259 . S
C3076 O3077 1.254 . S
O3077 Zn3075 2.046 . S
O3077 C3076 1.254 . S
C3078 O3099 1.256 . S
C3078 O3100 1.244 . S
O3079 Zn3075 2.055 . S
O3079 C3101 1.259 . S
O3080 Zn3072 2.046 . S
O3080 C3101 1.254 . S
N3081 Zn3075 2.036 . S
N3081 C3082 1.298 . S
N3081 N3084 1.398 . S
C3082 N3081 1.298 . S
C3082 N3085 1.367 . S
C3082 C3095 1.481 . S
C3083 N3084 1.299 . S
C3083 N3085 1.379 . S
N3084 N3081 1.398 . S
N3084 C3083 1.299 . S
N3085 C3082 1.367 . S
N3085 C3083 1.379 . S
C3086 N3088 1.298 . S
C3086 N3090 1.367 . S
C3086 C3094 1.481 . S
C3087 N3089 1.299 . S
C3087 N3090 1.379 . S
N3088 Zn3072 2.036 . S
N3088 C3086 1.298 . S
N3088 N3089 1.398 . S
N3089 C3087 1.299 . S
N3089 N3088 1.398 . S
N3090 C3086 1.367 . S
N3090 C3087 1.379 . S
H3091 C3094 0.980 . S
H3092 C3094 0.981 . S
H3093 C3094 0.981 . S
C3094 C3086 1.481 . S
C3094 H3091 0.980 . S
C3094 H3092 0.981 . S
C3094 H3093 0.981 . S
C3095 C3082 1.481 . S
C3095 H3096 0.980 . S
C3095 H3097 0.981 . S
C3095 H3098 0.981 . S
H3096 C3095 0.980 . S
H3097 C3095 0.981 . S
H3098 C3095 0.981 . S
O3099 Zn3075 2.066 . S
O3099 C3078 1.256 . S
O3100 Zn3072 2.053 . S
O3100 C3078 1.244 . S
C3101 O3079 1.259 . S
C3101 O3080 1.254 . S
O3102 Zn3072 2.066 . S
O3102 C3074 1.256 . S
O3103 C3074 1.244 . S
O3103 Zn3075 2.053 . S
Zn3104 O3105 2.055 . S
Zn3104 O3112 2.046 . S
Zn3104 N3120 2.036 . S
Zn3104 O3132 2.053 . S
Zn3104 O3134 2.066 . S
O3105 Zn3104 2.055 . S
O3105 C3108 1.259 . S
C3106 O3134 1.256 . S
C3106 O3135 1.244 . S
Zn3107 O3109 2.046 . S
Zn3107 O3111 2.055 . S
Zn3107 N3113 2.036 . S
Zn3107 O3131 2.066 . S
Zn3107 O3135 2.053 . S
C3108 O3105 1.259 . S
C3108 O3109 1.254 . S
O3109 Zn3107 2.046 . S
O3109 C3108 1.254 . S
C3110 O3131 1.256 . S
C3110 O3132 1.244 . S
O3111 Zn3107 2.055 . S
O3111 C3133 1.259 . S
O3112 Zn3104 2.046 . S
O3112 C3133 1.254 . S
N3113 Zn3107 2.036 . S
N3113 C3114 1.298 . S
N3113 N3116 1.398 . S
C3114 N3113 1.298 . S
C3114 N3117 1.367 . S
C3114 C3127 1.481 . S
C3115 N3116 1.299 . S
C3115 N3117 1.379 . S
N3116 N3113 1.398 . S
N3116 C3115 1.299 . S
N3117 C3114 1.367 . S
N3117 C3115 1.379 . S
C3118 N3120 1.298 . S
C3118 N3122 1.367 . S
C3118 C3126 1.481 . S
C3119 N3121 1.299 . S
C3119 N3122 1.379 . S
N3120 Zn3104 2.036 . S
N3120 C3118 1.298 . S
N3120 N3121 1.398 . S
N3121 C3119 1.299 . S
N3121 N3120 1.398 . S
N3122 C3118 1.367 . S
N3122 C3119 1.379 . S
H3123 C3126 0.980 . S
H3124 C3126 0.981 . S
H3125 C3126 0.981 . S
C3126 C3118 1.481 . S
C3126 H3123 0.980 . S
C3126 H3124 0.981 . S
C3126 H3125 0.981 . S
C3127 C3114 1.481 . S
C3127 H3128 0.980 . S
C3127 H3129 0.981 . S
C3127 H3130 0.981 . S
H3128 C3127 0.980 . S
H3129 C3127 0.981 . S
H3130 C3127 0.981 . S
O3131 Zn3107 2.066 . S
O3131 C3110 1.256 . S
O3132 Zn3104 2.053 . S
O3132 C3110 1.244 . S
C3133 O3111 1.259 . S
C3133 O3112 1.254 . S
O3134 Zn3104 2.066 . S
O3134 C3106 1.256 . S
O3135 C3106 1.244 . S
O3135 Zn3107 2.053 . S
Zn3136 O3137 2.055 . S
Zn3136 O3144 2.046 . S
Zn3136 N3152 2.036 . S
Zn3136 O3164 2.053 . S
Zn3136 O3166 2.066 . S
O3137 Zn3136 2.055 . S
O3137 C3140 1.259 . S
C3138 O3166 1.256 . S
C3138 O3167 1.244 . S
Zn3139 O3141 2.046 . S
Zn3139 O3143 2.055 . S
Zn3139 N3145 2.036 . S
Zn3139 O3163 2.066 . S
Zn3139 O3167 2.053 . S
C3140 O3137 1.259 . S
C3140 O3141 1.254 . S
O3141 Zn3139 2.046 . S
O3141 C3140 1.254 . S
C3142 O3163 1.256 . S
C3142 O3164 1.244 . S
O3143 Zn3139 2.055 . S
O3143 C3165 1.259 . S
O3144 Zn3136 2.046 . S
O3144 C3165 1.254 . S
N3145 Zn3139 2.036 . S
N3145 C3146 1.298 . S
N3145 N3148 1.398 . S
C3146 N3145 1.298 . S
C3146 N3149 1.367 . S
C3146 C3159 1.481 . S
C3147 N3148 1.299 . S
C3147 N3149 1.379 . S
N3148 N3145 1.398 . S
N3148 C3147 1.299 . S
N3149 C3146 1.367 . S
N3149 C3147 1.379 . S
C3150 N3152 1.298 . S
C3150 N3154 1.367 . S
C3150 C3158 1.481 . S
C3151 N3153 1.299 . S
C3151 N3154 1.379 . S
N3152 Zn3136 2.036 . S
N3152 C3150 1.298 . S
N3152 N3153 1.398 . S
N3153 C3151 1.299 . S
N3153 N3152 1.398 . S
N3154 C3150 1.367 . S
N3154 C3151 1.379 . S
H3155 C3158 0.980 . S
H3156 C3158 0.981 . S
H3157 C3158 0.981 . S
C3158 C3150 1.481 . S
C3158 H3155 0.980 . S
C3158 H3156 0.981 . S
C3158 H3157 0.981 . S
C3159 C3146 1.481 . S
C3159 H3160 0.980 . S
C3159 H3161 0.981 . S
C3159 H3162 0.981 . S
H3160 C3159 0.980 . S
H3161 C3159 0.981 . S
H3162 C3159 0.981 . S
O3163 Zn3139 2.066 . S
O3163 C3142 1.256 . S
O3164 Zn3136 2.053 . S
O3164 C3142 1.244 . S
C3165 O3143 1.259 . S
C3165 O3144 1.254 . S
O3166 Zn3136 2.066 . S
O3166 C3138 1.256 . S
O3167 C3138 1.244 . S
O3167 Zn3139 2.053 . S
Zn3168 O3169 2.055 . S
Zn3168 O3176 2.046 . S
Zn3168 N3184 2.036 . S
Zn3168 O3196 2.053 . S
Zn3168 O3198 2.066 . S
O3169 Zn3168 2.055 . S
O3169 C3172 1.259 . S
C3170 O3198 1.256 . S
C3170 O3199 1.244 . S
Zn3171 O3173 2.046 . S
Zn3171 O3175 2.055 . S
Zn3171 N3177 2.036 . S
Zn3171 O3195 2.066 . S
Zn3171 O3199 2.053 . S
C3172 O3169 1.259 . S
C3172 O3173 1.254 . S
O3173 Zn3171 2.046 . S
O3173 C3172 1.254 . S
C3174 O3195 1.256 . S
C3174 O3196 1.244 . S
O3175 Zn3171 2.055 . S
O3175 C3197 1.259 . S
O3176 Zn3168 2.046 . S
O3176 C3197 1.254 . S
N3177 Zn3171 2.036 . S
N3177 C3178 1.298 . S
N3177 N3180 1.398 . S
C3178 N3177 1.298 . S
C3178 N3181 1.367 . S
C3178 C3191 1.481 . S
C3179 N3180 1.299 . S
C3179 N3181 1.379 . S
N3180 N3177 1.398 . S
N3180 C3179 1.299 . S
N3181 C3178 1.367 . S
N3181 C3179 1.379 . S
C3182 N3184 1.298 . S
C3182 N3186 1.367 . S
C3182 C3190 1.481 . S
C3183 N3185 1.299 . S
C3183 N3186 1.379 . S
N3184 Zn3168 2.036 . S
N3184 C3182 1.298 . S
N3184 N3185 1.398 . S
N3185 C3183 1.299 . S
N3185 N3184 1.398 . S
N3186 C3182 1.367 . S
N3186 C3183 1.379 . S
H3187 C3190 0.980 . S
H3188 C3190 0.981 . S
H3189 C3190 0.981 . S
C3190 C3182 1.481 . S
C3190 H3187 0.980 . S
C3190 H3188 0.981 . S
C3190 H3189 0.981 . S
C3191 C3178 1.481 . S
C3191 H3192 0.980 . S
C3191 H3193 0.981 . S
C3191 H3194 0.981 . S
H3192 C3191 0.980 . S
H3193 C3191 0.981 . S
H3194 C3191 0.981 . S
O3195 Zn3171 2.066 . S
O3195 C3174 1.256 . S
O3196 Zn3168 2.053 . S
O3196 C3174 1.244 . S
C3197 O3175 1.259 . S
C3197 O3176 1.254 . S
O3198 Zn3168 2.066 . S
O3198 C3170 1.256 . S
O3199 C3170 1.244 . S
O3199 Zn3171 2.053 . S
Zn3200 O3201 2.055 . S
Zn3200 O3208 2.046 . S
Zn3200 N3216 2.036 . S
Zn3200 O3228 2.053 . S
Zn3200 O3230 2.066 . S
O3201 Zn3200 2.055 . S
O3201 C3204 1.259 . S
C3202 O3230 1.256 . S
C3202 O3231 1.244 . S
Zn3203 O3205 2.046 . S
Zn3203 O3207 2.055 . S
Zn3203 N3209 2.036 1_565 S
Zn3203 O3227 2.066 1_565 S
Zn3203 O3231 2.053 . S
C3204 O3201 1.259 . S
C3204 O3205 1.254 . S
O3205 Zn3203 2.046 . S
O3205 C3204 1.254 . S
C3206 O3227 1.256 1_565 S
C3206 O3228 1.244 . S
O3207 Zn3203 2.055 . S
O3207 C3229 1.259 . S
O3208 Zn3200 2.046 . S
O3208 C3229 1.254 . S
N3209 Zn3203 2.036 1_545 S
N3209 C3210 1.298 . S
N3209 N3212 1.398 . S
C3210 N3209 1.298 . S
C3210 N3213 1.367 . S
C3210 C3223 1.481 . S
C3211 N3212 1.299 . S
C3211 N3213 1.379 . S
N3212 N3209 1.398 . S
N3212 C3211 1.299 . S
N3213 C3210 1.367 . S
N3213 C3211 1.379 . S
C3214 N3216 1.298 . S
C3214 N3218 1.367 . S
C3214 C3222 1.481 . S
C3215 N3217 1.299 . S
C3215 N3218 1.379 . S
N3216 Zn3200 2.036 . S
N3216 C3214 1.298 . S
N3216 N3217 1.398 . S
N3217 C3215 1.299 . S
N3217 N3216 1.398 . S
N3218 C3214 1.367 . S
N3218 C3215 1.379 . S
H3219 C3222 0.980 . S
H3220 C3222 0.981 . S
H3221 C3222 0.981 . S
C3222 C3214 1.481 . S
C3222 H3219 0.980 . S
C3222 H3220 0.981 . S
C3222 H3221 0.981 . S
C3223 C3210 1.481 . S
C3223 H3224 0.980 . S
C3223 H3225 0.981 . S
C3223 H3226 0.981 . S
H3224 C3223 0.980 . S
H3225 C3223 0.981 . S
H3226 C3223 0.981 . S
O3227 Zn3203 2.066 1_545 S
O3227 C3206 1.256 1_545 S
O3228 Zn3200 2.053 . S
O3228 C3206 1.244 . S
C3229 O3207 1.259 . S
C3229 O3208 1.254 . S
O3230 Zn3200 2.066 . S
O3230 C3202 1.256 . S
O3231 C3202 1.244 . S
O3231 Zn3203 2.053 . S
Zn3232 O3233 2.055 . S
Zn3232 O3240 2.046 . S
Zn3232 N3248 2.036 . S
Zn3232 O3260 2.053 . S
Zn3232 O3262 2.066 . S
O3233 Zn3232 2.055 . S
O3233 C3236 1.259 . S
C3234 O3262 1.256 . S
C3234 O3263 1.244 . S
Zn3235 O3237 2.046 . S
Zn3235 O3239 2.055 . S
Zn3235 N3241 2.036 1_455 S
Zn3235 O3259 2.066 1_455 S
Zn3235 O3263 2.053 . S
C3236 O3233 1.259 . S
C3236 O3237 1.254 . S
O3237 Zn3235 2.046 . S
O3237 C3236 1.254 . S
C3238 O3259 1.256 1_455 S
C3238 O3260 1.244 . S
O3239 Zn3235 2.055 . S
O3239 C3261 1.259 . S
O3240 Zn3232 2.046 . S
O3240 C3261 1.254 . S
N3241 Zn3235 2.036 1_655 S
N3241 C3242 1.298 . S
N3241 N3244 1.398 . S
C3242 N3241 1.298 . S
C3242 N3245 1.367 . S
C3242 C3255 1.481 . S
C3243 N3244 1.299 . S
C3243 N3245 1.379 . S
N3244 N3241 1.398 . S
N3244 C3243 1.299 . S
N3245 C3242 1.367 . S
N3245 C3243 1.379 . S
C3246 N3248 1.298 . S
C3246 N3250 1.367 . S
C3246 C3254 1.481 . S
C3247 N3249 1.299 . S
C3247 N3250 1.379 . S
N3248 Zn3232 2.036 . S
N3248 C3246 1.298 . S
N3248 N3249 1.398 . S
N3249 C3247 1.299 . S
N3249 N3248 1.398 . S
N3250 C3246 1.367 . S
N3250 C3247 1.379 . S
H3251 C3254 0.980 . S
H3252 C3254 0.981 . S
H3253 C3254 0.981 . S
C3254 C3246 1.481 . S
C3254 H3251 0.980 . S
C3254 H3252 0.981 . S
C3254 H3253 0.981 . S
C3255 C3242 1.481 . S
C3255 H3256 0.980 . S
C3255 H3257 0.981 . S
C3255 H3258 0.981 . S
H3256 C3255 0.980 . S
H3257 C3255 0.981 . S
H3258 C3255 0.981 . S
O3259 Zn3235 2.066 1_655 S
O3259 C3238 1.256 1_655 S
O3260 Zn3232 2.053 . S
O3260 C3238 1.244 . S
C3261 O3239 1.259 . S
C3261 O3240 1.254 . S
O3262 Zn3232 2.066 . S
O3262 C3234 1.256 . S
O3263 C3234 1.244 . S
O3263 Zn3235 2.053 . S
Zn3264 O3265 2.055 . S
Zn3264 O3272 2.046 . S
Zn3264 N3280 2.036 . S
Zn3264 O3292 2.053 . S
Zn3264 O3294 2.066 . S
O3265 Zn3264 2.055 . S
O3265 C3268 1.259 . S
C3266 O3294 1.256 . S
C3266 O3295 1.244 . S
Zn3267 O3269 2.046 . S
Zn3267 O3271 2.055 . S
Zn3267 N3273 2.036 . S
Zn3267 O3291 2.066 . S
Zn3267 O3295 2.053 . S
C3268 O3265 1.259 . S
C3268 O3269 1.254 . S
O3269 Zn3267 2.046 . S
O3269 C3268 1.254 . S
C3270 O3291 1.256 . S
C3270 O3292 1.244 . S
O3271 Zn3267 2.055 . S
O3271 C3293 1.259 . S
O3272 Zn3264 2.046 . S
O3272 C3293 1.254 . S
N3273 Zn3267 2.036 . S
N3273 C3274 1.298 . S
N3273 N3276 1.398 . S
C3274 N3273 1.298 . S
C3274 N3277 1.367 . S
C3274 C3287 1.481 . S
C3275 N3276 1.299 . S
C3275 N3277 1.379 . S
N3276 N3273 1.398 . S
N3276 C3275 1.299 . S
N3277 C3274 1.367 . S
N3277 C3275 1.379 . S
C3278 N3280 1.298 . S
C3278 N3282 1.367 . S
C3278 C3286 1.481 . S
C3279 N3281 1.299 . S
C3279 N3282 1.379 . S
N3280 Zn3264 2.036 . S
N3280 C3278 1.298 . S
N3280 N3281 1.398 . S
N3281 C3279 1.299 . S
N3281 N3280 1.398 . S
N3282 C3278 1.367 . S
N3282 C3279 1.379 . S
H3283 C3286 0.980 . S
H3284 C3286 0.981 . S
H3285 C3286 0.981 . S
C3286 C3278 1.481 . S
C3286 H3283 0.980 . S
C3286 H3284 0.981 . S
C3286 H3285 0.981 . S
C3287 C3274 1.481 . S
C3287 H3288 0.980 . S
C3287 H3289 0.981 . S
C3287 H3290 0.981 . S
H3288 C3287 0.980 . S
H3289 C3287 0.981 . S
H3290 C3287 0.981 . S
O3291 Zn3267 2.066 . S
O3291 C3270 1.256 . S
O3292 Zn3264 2.053 . S
O3292 C3270 1.244 . S
C3293 O3271 1.259 . S
C3293 O3272 1.254 . S
O3294 Zn3264 2.066 . S
O3294 C3266 1.256 . S
O3295 C3266 1.244 . S
O3295 Zn3267 2.053 . S
Zn3296 O3297 2.055 . S
Zn3296 O3304 2.046 . S
Zn3296 N3312 2.036 . S
Zn3296 O3324 2.053 . S
Zn3296 O3326 2.066 . S
O3297 Zn3296 2.055 . S
O3297 C3300 1.259 . S
C3298 O3326 1.256 . S
C3298 O3327 1.244 . S
Zn3299 O3301 2.046 . S
Zn3299 O3303 2.055 . S
Zn3299 N3305 2.036 . S
Zn3299 O3323 2.066 . S
Zn3299 O3327 2.053 . S
C3300 O3297 1.259 . S
C3300 O3301 1.254 . S
O3301 Zn3299 2.046 . S
O3301 C3300 1.254 . S
C3302 O3323 1.256 . S
C3302 O3324 1.244 . S
O3303 Zn3299 2.055 . S
O3303 C3325 1.259 . S
O3304 Zn3296 2.046 . S
O3304 C3325 1.254 . S
N3305 Zn3299 2.036 . S
N3305 C3306 1.298 . S
N3305 N3308 1.398 . S
C3306 N3305 1.298 . S
C3306 N3309 1.367 . S
C3306 C3319 1.481 . S
C3307 N3308 1.299 . S
C3307 N3309 1.379 . S
N3308 N3305 1.398 . S
N3308 C3307 1.299 . S
N3309 C3306 1.367 . S
N3309 C3307 1.379 . S
C3310 N3312 1.298 . S
C3310 N3314 1.367 . S
C3310 C3318 1.481 . S
C3311 N3313 1.299 . S
C3311 N3314 1.379 . S
N3312 Zn3296 2.036 . S
N3312 C3310 1.298 . S
N3312 N3313 1.398 . S
N3313 C3311 1.299 . S
N3313 N3312 1.398 . S
N3314 C3310 1.367 . S
N3314 C3311 1.379 . S
H3315 C3318 0.980 . S
H3316 C3318 0.981 . S
H3317 C3318 0.981 . S
C3318 C3310 1.481 . S
C3318 H3315 0.980 . S
C3318 H3316 0.981 . S
C3318 H3317 0.981 . S
C3319 C3306 1.481 . S
C3319 H3320 0.980 . S
C3319 H3321 0.981 . S
C3319 H3322 0.981 . S
H3320 C3319 0.980 . S
H3321 C3319 0.981 . S
H3322 C3319 0.981 . S
O3323 Zn3299 2.066 . S
O3323 C3302 1.256 . S
O3324 Zn3296 2.053 . S
O3324 C3302 1.244 . S
C3325 O3303 1.259 . S
C3325 O3304 1.254 . S
O3326 Zn3296 2.066 . S
O3326 C3298 1.256 . S
O3327 C3298 1.244 . S
O3327 Zn3299 2.053 . S
Zn3328 O3329 2.055 . S
Zn3328 O3336 2.046 . S
Zn3328 N3344 2.036 . S
Zn3328 O3356 2.053 . S
Zn3328 O3358 2.066 . S
O3329 Zn3328 2.055 . S
O3329 C3332 1.259 . S
C3330 O3358 1.256 1_565 S
C3330 O3359 1.244 1_565 S
Zn3331 O3333 2.046 . S
Zn3331 O3335 2.055 . S
Zn3331 N3337 2.036 . S
Zn3331 O3355 2.066 . S
Zn3331 O3359 2.053 . S
C3332 O3329 1.259 . S
C3332 O3333 1.254 . S
O3333 Zn3331 2.046 . S
O3333 C3332 1.254 . S
C3334 O3355 1.256 . S
C3334 O3356 1.244 . S
O3335 Zn3331 2.055 . S
O3335 C3357 1.259 . S
O3336 Zn3328 2.046 . S
O3336 C3357 1.254 . S
N3337 Zn3331 2.036 . S
N3337 C3338 1.298 . S
N3337 N3340 1.398 1_545 S
C3338 N3337 1.298 . S
C3338 N3341 1.367 . S
C3338 C3351 1.481 . S
C3339 N3340 1.299 . S
C3339 N3341 1.379 1_565 S
N3340 N3337 1.398 1_565 S
N3340 C3339 1.299 . S
N3341 C3338 1.367 . S
N3341 C3339 1.379 1_545 S
C3342 N3344 1.298 . S
C3342 N3346 1.367 . S
C3342 C3350 1.481 . S
C3343 N3345 1.299 . S
C3343 N3346 1.379 . S
N3344 Zn3328 2.036 . S
N3344 C3342 1.298 . S
N3344 N3345 1.398 . S
N3345 C3343 1.299 . S
N3345 N3344 1.398 . S
N3346 C3342 1.367 . S
N3346 C3343 1.379 . S
H3347 C3350 0.980 . S
H3348 C3350 0.981 . S
H3349 C3350 0.981 . S
C3350 C3342 1.481 . S
C3350 H3347 0.980 . S
C3350 H3348 0.981 . S
C3350 H3349 0.981 . S
C3351 C3338 1.481 . S
C3351 H3352 0.980 . S
C3351 H3353 0.981 . S
C3351 H3354 0.981 . S
H3352 C3351 0.980 . S
H3353 C3351 0.981 . S
H3354 C3351 0.981 . S
O3355 Zn3331 2.066 . S
O3355 C3334 1.256 . S
O3356 Zn3328 2.053 . S
O3356 C3334 1.244 . S
C3357 O3335 1.259 . S
C3357 O3336 1.254 . S
O3358 Zn3328 2.066 . S
O3358 C3330 1.256 1_545 S
O3359 C3330 1.244 1_545 S
O3359 Zn3331 2.053 . S
Zn3360 O3361 2.055 . S
Zn3360 O3368 2.046 . S
Zn3360 N3376 2.036 . S
Zn3360 O3388 2.053 . S
Zn3360 O3390 2.066 . S
O3361 Zn3360 2.055 . S
O3361 C3364 1.259 . S
C3362 O3390 1.256 1_455 S
C3362 O3391 1.244 1_455 S
Zn3363 O3365 2.046 . S
Zn3363 O3367 2.055 . S
Zn3363 N3369 2.036 1_554 S
Zn3363 O3387 2.066 1_554 S
Zn3363 O3391 2.053 . S
C3364 O3361 1.259 . S
C3364 O3365 1.254 . S
O3365 Zn3363 2.046 . S
O3365 C3364 1.254 . S
C3366 O3387 1.256 1_554 S
C3366 O3388 1.244 . S
O3367 Zn3363 2.055 . S
O3367 C3389 1.259 . S
O3368 Zn3360 2.046 . S
O3368 C3389 1.254 . S
N3369 Zn3363 2.036 1_556 S
N3369 C3370 1.298 . S
N3369 N3372 1.398 1_655 S
C3370 N3369 1.298 . S
C3370 N3373 1.367 . S
C3370 C3383 1.481 . S
C3371 N3372 1.299 . S
C3371 N3373 1.379 1_455 S
N3372 N3369 1.398 1_455 S
N3372 C3371 1.299 . S
N3373 C3370 1.367 . S
N3373 C3371 1.379 1_655 S
C3374 N3376 1.298 . S
C3374 N3378 1.367 . S
C3374 C3382 1.481 . S
C3375 N3377 1.299 . S
C3375 N3378 1.379 . S
N3376 Zn3360 2.036 . S
N3376 C3374 1.298 . S
N3376 N3377 1.398 . S
N3377 C3375 1.299 . S
N3377 N3376 1.398 . S
N3378 C3374 1.367 . S
N3378 C3375 1.379 . S
H3379 C3382 0.980 . S
H3380 C3382 0.981 . S
H3381 C3382 0.981 . S
C3382 C3374 1.481 . S
C3382 H3379 0.980 . S
C3382 H3380 0.981 . S
C3382 H3381 0.981 . S
C3383 C3370 1.481 . S
C3383 H3384 0.980 . S
C3383 H3385 0.981 . S
C3383 H3386 0.981 . S
H3384 C3383 0.980 . S
H3385 C3383 0.981 . S
H3386 C3383 0.981 . S
O3387 Zn3363 2.066 1_556 S
O3387 C3366 1.256 1_556 S
O3388 Zn3360 2.053 . S
O3388 C3366 1.244 . S
C3389 O3367 1.259 . S
C3389 O3368 1.254 . S
O3390 Zn3360 2.066 . S
O3390 C3362 1.256 1_655 S
O3391 C3362 1.244 1_655 S
O3391 Zn3363 2.053 . S
Zn3392 O3393 2.055 . S
Zn3392 O3400 2.046 . S
Zn3392 N3408 2.036 . S
Zn3392 O3420 2.053 . S
Zn3392 O3422 2.066 . S
O3393 Zn3392 2.055 . S
O3393 C3396 1.259 . S
C3394 O3422 1.256 . S
C3394 O3423 1.244 . S
Zn3395 O3397 2.046 . S
Zn3395 O3399 2.055 . S
Zn3395 N3401 2.036 . S
Zn3395 O3419 2.066 . S
Zn3395 O3423 2.053 . S
C3396 O3393 1.259 . S
C3396 O3397 1.254 . S
O3397 Zn3395 2.046 . S
O3397 C3396 1.254 . S
C3398 O3419 1.256 . S
C3398 O3420 1.244 . S
O3399 Zn3395 2.055 . S
O3399 C3421 1.259 . S
O3400 Zn3392 2.046 . S
O3400 C3421 1.254 . S
N3401 Zn3395 2.036 . S
N3401 C3402 1.298 . S
N3401 N3404 1.398 . S
C3402 N3401 1.298 . S
C3402 N3405 1.367 . S
C3402 C3415 1.481 . S
C3403 N3404 1.299 . S
C3403 N3405 1.379 . S
N3404 N3401 1.398 . S
N3404 C3403 1.299 . S
N3405 C3402 1.367 . S
N3405 C3403 1.379 . S
C3406 N3408 1.298 . S
C3406 N3410 1.367 . S
C3406 C3414 1.481 . S
C3407 N3409 1.299 . S
C3407 N3410 1.379 . S
N3408 Zn3392 2.036 . S
N3408 C3406 1.298 . S
N3408 N3409 1.398 . S
N3409 C3407 1.299 . S
N3409 N3408 1.398 . S
N3410 C3406 1.367 . S
N3410 C3407 1.379 . S
H3411 C3414 0.980 . S
H3412 C3414 0.981 . S
H3413 C3414 0.981 . S
C3414 C3406 1.481 . S
C3414 H3411 0.980 . S
C3414 H3412 0.981 . S
C3414 H3413 0.981 . S
C3415 C3402 1.481 . S
C3415 H3416 0.980 . S
C3415 H3417 0.981 . S
C3415 H3418 0.981 . S
H3416 C3415 0.980 . S
H3417 C3415 0.981 . S
H3418 C3415 0.981 . S
O3419 Zn3395 2.066 . S
O3419 C3398 1.256 . S
O3420 Zn3392 2.053 . S
O3420 C3398 1.244 . S
C3421 O3399 1.259 . S
C3421 O3400 1.254 . S
O3422 Zn3392 2.066 . S
O3422 C3394 1.256 . S
O3423 C3394 1.244 . S
O3423 Zn3395 2.053 . S
Zn3424 O3425 2.055 . S
Zn3424 O3432 2.046 . S
Zn3424 N3440 2.036 . S
Zn3424 O3452 2.053 . S
Zn3424 O3454 2.066 . S
O3425 Zn3424 2.055 . S
O3425 C3428 1.259 . S
C3426 O3454 1.256 . S
C3426 O3455 1.244 . S
Zn3427 O3429 2.046 . S
Zn3427 O3431 2.055 . S
Zn3427 N3433 2.036 . S
Zn3427 O3451 2.066 . S
Zn3427 O3455 2.053 . S
C3428 O3425 1.259 . S
C3428 O3429 1.254 . S
O3429 Zn3427 2.046 . S
O3429 C3428 1.254 . S
C3430 O3451 1.256 . S
C3430 O3452 1.244 . S
O3431 Zn3427 2.055 . S
O3431 C3453 1.259 . S
O3432 Zn3424 2.046 . S
O3432 C3453 1.254 . S
N3433 Zn3427 2.036 . S
N3433 C3434 1.298 . S
N3433 N3436 1.398 . S
C3434 N3433 1.298 . S
C3434 N3437 1.367 . S
C3434 C3447 1.481 . S
C3435 N3436 1.299 . S
C3435 N3437 1.379 . S
N3436 N3433 1.398 . S
N3436 C3435 1.299 . S
N3437 C3434 1.367 . S
N3437 C3435 1.379 . S
C3438 N3440 1.298 . S
C3438 N3442 1.367 . S
C3438 C3446 1.481 . S
C3439 N3441 1.299 . S
C3439 N3442 1.379 . S
N3440 Zn3424 2.036 . S
N3440 C3438 1.298 . S
N3440 N3441 1.398 . S
N3441 C3439 1.299 . S
N3441 N3440 1.398 . S
N3442 C3438 1.367 . S
N3442 C3439 1.379 . S
H3443 C3446 0.980 . S
H3444 C3446 0.981 . S
H3445 C3446 0.981 . S
C3446 C3438 1.481 . S
C3446 H3443 0.980 . S
C3446 H3444 0.981 . S
C3446 H3445 0.981 . S
C3447 C3434 1.481 . S
C3447 H3448 0.980 . S
C3447 H3449 0.981 . S
C3447 H3450 0.981 . S
H3448 C3447 0.980 . S
H3449 C3447 0.981 . S
H3450 C3447 0.981 . S
O3451 Zn3427 2.066 . S
O3451 C3430 1.256 . S
O3452 Zn3424 2.053 . S
O3452 C3430 1.244 . S
C3453 O3431 1.259 . S
C3453 O3432 1.254 . S
O3454 Zn3424 2.066 . S
O3454 C3426 1.256 . S
O3455 C3426 1.244 . S
O3455 Zn3427 2.053 . S
Zn3456 O3457 2.055 . S
Zn3456 O3464 2.046 . S
Zn3456 N3472 2.036 . S
Zn3456 O3484 2.053 . S
Zn3456 O3486 2.066 . S
O3457 Zn3456 2.055 . S
O3457 C3460 1.259 . S
C3458 O3486 1.256 . S
C3458 O3487 1.244 . S
Zn3459 O3461 2.046 . S
Zn3459 O3463 2.055 . S
Zn3459 N3465 2.036 . S
Zn3459 O3483 2.066 . S
Zn3459 O3487 2.053 . S
C3460 O3457 1.259 . S
C3460 O3461 1.254 . S
O3461 Zn3459 2.046 . S
O3461 C3460 1.254 . S
C3462 O3483 1.256 . S
C3462 O3484 1.244 . S
O3463 Zn3459 2.055 . S
O3463 C3485 1.259 . S
O3464 Zn3456 2.046 . S
O3464 C3485 1.254 . S
N3465 Zn3459 2.036 . S
N3465 C3466 1.298 . S
N3465 N3468 1.398 . S
C3466 N3465 1.298 . S
C3466 N3469 1.367 . S
C3466 C3479 1.481 . S
C3467 N3468 1.299 . S
C3467 N3469 1.379 . S
N3468 N3465 1.398 . S
N3468 C3467 1.299 . S
N3469 C3466 1.367 . S
N3469 C3467 1.379 . S
C3470 N3472 1.298 . S
C3470 N3474 1.367 . S
C3470 C3478 1.481 . S
C3471 N3473 1.299 . S
C3471 N3474 1.379 . S
N3472 Zn3456 2.036 . S
N3472 C3470 1.298 . S
N3472 N3473 1.398 . S
N3473 C3471 1.299 . S
N3473 N3472 1.398 . S
N3474 C3470 1.367 . S
N3474 C3471 1.379 . S
H3475 C3478 0.980 . S
H3476 C3478 0.981 . S
H3477 C3478 0.981 . S
C3478 C3470 1.481 . S
C3478 H3475 0.980 . S
C3478 H3476 0.981 . S
C3478 H3477 0.981 . S
C3479 C3466 1.481 . S
C3479 H3480 0.980 . S
C3479 H3481 0.981 . S
C3479 H3482 0.981 . S
H3480 C3479 0.980 . S
H3481 C3479 0.981 . S
H3482 C3479 0.981 . S
O3483 Zn3459 2.066 . S
O3483 C3462 1.256 . S
O3484 Zn3456 2.053 . S
O3484 C3462 1.244 . S
C3485 O3463 1.259 . S
C3485 O3464 1.254 . S
O3486 Zn3456 2.066 . S
O3486 C3458 1.256 . S
O3487 C3458 1.244 . S
O3487 Zn3459 2.053 . S
Zn3488 O3489 2.055 . S
Zn3488 O3496 2.046 . S
Zn3488 N3504 2.036 . S
Zn3488 O3516 2.053 . S
Zn3488 O3518 2.066 . S
O3489 Zn3488 2.055 . S
O3489 C3492 1.259 . S
C3490 O3518 1.256 . S
C3490 O3519 1.244 . S
Zn3491 O3493 2.046 . S
Zn3491 O3495 2.055 . S
Zn3491 N3497 2.036 . S
Zn3491 O3515 2.066 . S
Zn3491 O3519 2.053 . S
C3492 O3489 1.259 . S
C3492 O3493 1.254 . S
O3493 Zn3491 2.046 . S
O3493 C3492 1.254 . S
C3494 O3515 1.256 . S
C3494 O3516 1.244 . S
O3495 Zn3491 2.055 . S
O3495 C3517 1.259 . S
O3496 Zn3488 2.046 . S
O3496 C3517 1.254 . S
N3497 Zn3491 2.036 . S
N3497 C3498 1.298 . S
N3497 N3500 1.398 . S
C3498 N3497 1.298 . S
C3498 N3501 1.367 . S
C3498 C3511 1.481 . S
C3499 N3500 1.299 . S
C3499 N3501 1.379 . S
N3500 N3497 1.398 . S
N3500 C3499 1.299 . S
N3501 C3498 1.367 . S
N3501 C3499 1.379 . S
C3502 N3504 1.298 . S
C3502 N3506 1.367 . S
C3502 C3510 1.481 . S
C3503 N3505 1.299 . S
C3503 N3506 1.379 . S
N3504 Zn3488 2.036 . S
N3504 C3502 1.298 . S
N3504 N3505 1.398 . S
N3505 C3503 1.299 . S
N3505 N3504 1.398 . S
N3506 C3502 1.367 . S
N3506 C3503 1.379 . S
H3507 C3510 0.980 . S
H3508 C3510 0.981 . S
H3509 C3510 0.981 . S
C3510 C3502 1.481 . S
C3510 H3507 0.980 . S
C3510 H3508 0.981 . S
C3510 H3509 0.981 . S
C3511 C3498 1.481 . S
C3511 H3512 0.980 . S
C3511 H3513 0.981 . S
C3511 H3514 0.981 . S
H3512 C3511 0.980 . S
H3513 C3511 0.981 . S
H3514 C3511 0.981 . S
O3515 Zn3491 2.066 . S
O3515 C3494 1.256 . S
O3516 Zn3488 2.053 . S
O3516 C3494 1.244 . S
C3517 O3495 1.259 . S
C3517 O3496 1.254 . S
O3518 Zn3488 2.066 . S
O3518 C3490 1.256 . S
O3519 C3490 1.244 . S
O3519 Zn3491 2.053 . S
Zn3520 O3521 2.055 . S
Zn3520 O3528 2.046 . S
Zn3520 N3536 2.036 . S
Zn3520 O3548 2.053 . S
Zn3520 O3550 2.066 . S
O3521 Zn3520 2.055 . S
O3521 C3524 1.259 . S
C3522 O3550 1.256 . S
C3522 O3551 1.244 . S
Zn3523 O3525 2.046 . S
Zn3523 O3527 2.055 . S
Zn3523 N3529 2.036 1_556 S
Zn3523 O3547 2.066 1_556 S
Zn3523 O3551 2.053 . S
C3524 O3521 1.259 . S
C3524 O3525 1.254 . S
O3525 Zn3523 2.046 . S
O3525 C3524 1.254 . S
C3526 O3547 1.256 1_556 S
C3526 O3548 1.244 . S
O3527 Zn3523 2.055 . S
O3527 C3549 1.259 . S
O3528 Zn3520 2.046 . S
O3528 C3549 1.254 . S
N3529 Zn3523 2.036 1_554 S
N3529 C3530 1.298 . S
N3529 N3532 1.398 . S
C3530 N3529 1.298 . S
C3530 N3533 1.367 . S
C3530 C3543 1.481 . S
C3531 N3532 1.299 . S
C3531 N3533 1.379 . S
N3532 N3529 1.398 . S
N3532 C3531 1.299 . S
N3533 C3530 1.367 . S
N3533 C3531 1.379 . S
C3534 N3536 1.298 . S
C3534 N3538 1.367 . S
C3534 C3542 1.481 . S
C3535 N3537 1.299 . S
C3535 N3538 1.379 . S
N3536 Zn3520 2.036 . S
N3536 C3534 1.298 . S
N3536 N3537 1.398 . S
N3537 C3535 1.299 . S
N3537 N3536 1.398 . S
N3538 C3534 1.367 . S
N3538 C3535 1.379 . S
H3539 C3542 0.980 . S
H3540 C3542 0.981 . S
H3541 C3542 0.981 . S
C3542 C3534 1.481 . S
C3542 H3539 0.980 . S
C3542 H3540 0.981 . S
C3542 H3541 0.981 . S
C3543 C3530 1.481 . S
C3543 H3544 0.980 . S
C3543 H3545 0.981 . S
C3543 H3546 0.981 . S
H3544 C3543 0.980 . S
H3545 C3543 0.981 . S
H3546 C3543 0.981 . S
O3547 Zn3523 2.066 1_554 S
O3547 C3526 1.256 1_554 S
O3548 Zn3520 2.053 . S
O3548 C3526 1.244 . S
C3549 O3527 1.259 . S
C3549 O3528 1.254 . S
O3550 Zn3520 2.066 . S
O3550 C3522 1.256 . S
O3551 C3522 1.244 . S
O3551 Zn3523 2.053 . S
Zn3552 O3553 2.055 . S
Zn3552 O3560 2.046 . S
Zn3552 N3568 2.036 . S
Zn3552 O3580 2.053 . S
Zn3552 O3582 2.066 . S
O3553 Zn3552 2.055 . S
O3553 C3556 1.259 . S
C3554 O3582 1.256 . S
C3554 O3583 1.244 . S
Zn3555 O3557 2.046 . S
Zn3555 O3559 2.055 . S
Zn3555 N3561 2.036 . S
Zn3555 O3579 2.066 . S
Zn3555 O3583 2.053 . S
C3556 O3553 1.259 . S
C3556 O3557 1.254 . S
O3557 Zn3555 2.046 . S
O3557 C3556 1.254 . S
C3558 O3579 1.256 . S
C3558 O3580 1.244 . S
O3559 Zn3555 2.055 . S
O3559 C3581 1.259 . S
O3560 Zn3552 2.046 . S
O3560 C3581 1.254 . S
N3561 Zn3555 2.036 . S
N3561 C3562 1.298 . S
N3561 N3564 1.398 . S
C3562 N3561 1.298 . S
C3562 N3565 1.367 . S
C3562 C3575 1.481 . S
C3563 N3564 1.299 . S
C3563 N3565 1.379 . S
N3564 N3561 1.398 . S
N3564 C3563 1.299 . S
N3565 C3562 1.367 . S
N3565 C3563 1.379 . S
C3566 N3568 1.298 . S
C3566 N3570 1.367 . S
C3566 C3574 1.481 . S
C3567 N3569 1.299 . S
C3567 N3570 1.379 . S
N3568 Zn3552 2.036 . S
N3568 C3566 1.298 . S
N3568 N3569 1.398 . S
N3569 C3567 1.299 . S
N3569 N3568 1.398 . S
N3570 C3566 1.367 . S
N3570 C3567 1.379 . S
H3571 C3574 0.980 . S
H3572 C3574 0.981 . S
H3573 C3574 0.981 . S
C3574 C3566 1.481 . S
C3574 H3571 0.980 . S
C3574 H3572 0.981 . S
C3574 H3573 0.981 . S
C3575 C3562 1.481 . S
C3575 H3576 0.980 . S
C3575 H3577 0.981 . S
C3575 H3578 0.981 . S
H3576 C3575 0.980 . S
H3577 C3575 0.981 . S
H3578 C3575 0.981 . S
O3579 Zn3555 2.066 . S
O3579 C3558 1.256 . S
O3580 Zn3552 2.053 . S
O3580 C3558 1.244 . S
C3581 O3559 1.259 . S
C3581 O3560 1.254 . S
O3582 Zn3552 2.066 . S
O3582 C3554 1.256 . S
O3583 C3554 1.244 . S
O3583 Zn3555 2.053 . S
Zn3584 O3585 2.055 . S
Zn3584 O3592 2.046 . S
Zn3584 N3600 2.036 . S
Zn3584 O3612 2.053 . S
Zn3584 O3614 2.066 . S
O3585 Zn3584 2.055 . S
O3585 C3588 1.259 . S
C3586 O3614 1.256 . S
C3586 O3615 1.244 . S
Zn3587 O3589 2.046 . S
Zn3587 O3591 2.055 . S
Zn3587 N3593 2.036 . S
Zn3587 O3611 2.066 . S
Zn3587 O3615 2.053 . S
C3588 O3585 1.259 . S
C3588 O3589 1.254 . S
O3589 Zn3587 2.046 . S
O3589 C3588 1.254 . S
C3590 O3611 1.256 . S
C3590 O3612 1.244 . S
O3591 Zn3587 2.055 . S
O3591 C3613 1.259 . S
O3592 Zn3584 2.046 . S
O3592 C3613 1.254 . S
N3593 Zn3587 2.036 . S
N3593 C3594 1.298 . S
N3593 N3596 1.398 . S
C3594 N3593 1.298 . S
C3594 N3597 1.367 . S
C3594 C3607 1.481 . S
C3595 N3596 1.299 . S
C3595 N3597 1.379 . S
N3596 N3593 1.398 . S
N3596 C3595 1.299 . S
N3597 C3594 1.367 . S
N3597 C3595 1.379 . S
C3598 N3600 1.298 . S
C3598 N3602 1.367 . S
C3598 C3606 1.481 . S
C3599 N3601 1.299 . S
C3599 N3602 1.379 . S
N3600 Zn3584 2.036 . S
N3600 C3598 1.298 . S
N3600 N3601 1.398 . S
N3601 C3599 1.299 . S
N3601 N3600 1.398 . S
N3602 C3598 1.367 . S
N3602 C3599 1.379 . S
H3603 C3606 0.980 . S
H3604 C3606 0.981 . S
H3605 C3606 0.981 . S
C3606 C3598 1.481 . S
C3606 H3603 0.980 . S
C3606 H3604 0.981 . S
C3606 H3605 0.981 . S
C3607 C3594 1.481 . S
C3607 H3608 0.980 . S
C3607 H3609 0.981 . S
C3607 H3610 0.981 . S
H3608 C3607 0.980 . S
H3609 C3607 0.981 . S
H3610 C3607 0.981 . S
O3611 Zn3587 2.066 . S
O3611 C3590 1.256 . S
O3612 Zn3584 2.053 . S
O3612 C3590 1.244 . S
C3613 O3591 1.259 . S
C3613 O3592 1.254 . S
O3614 Zn3584 2.066 . S
O3614 C3586 1.256 . S
O3615 C3586 1.244 . S
O3615 Zn3587 2.053 . S
Zn3616 O3617 2.055 . S
Zn3616 O3624 2.046 . S
Zn3616 N3632 2.036 . S
Zn3616 O3644 2.053 . S
Zn3616 O3646 2.066 . S
O3617 Zn3616 2.055 . S
O3617 C3620 1.259 . S
C3618 O3646 1.256 . S
C3618 O3647 1.244 . S
Zn3619 O3621 2.046 . S
Zn3619 O3623 2.055 . S
Zn3619 N3625 2.036 . S
Zn3619 O3643 2.066 . S
Zn3619 O3647 2.053 . S
C3620 O3617 1.259 . S
C3620 O3621 1.254 . S
O3621 Zn3619 2.046 . S
O3621 C3620 1.254 . S
C3622 O3643 1.256 . S
C3622 O3644 1.244 . S
O3623 Zn3619 2.055 . S
O3623 C3645 1.259 . S
O3624 Zn3616 2.046 . S
O3624 C3645 1.254 . S
N3625 Zn3619 2.036 . S
N3625 C3626 1.298 . S
N3625 N3628 1.398 . S
C3626 N3625 1.298 . S
C3626 N3629 1.367 . S
C3626 C3639 1.481 . S
C3627 N3628 1.299 . S
C3627 N3629 1.379 . S
N3628 N3625 1.398 . S
N3628 C3627 1.299 . S
N3629 C3626 1.367 . S
N3629 C3627 1.379 . S
C3630 N3632 1.298 . S
C3630 N3634 1.367 . S
C3630 C3638 1.481 . S
C3631 N3633 1.299 . S
C3631 N3634 1.379 . S
N3632 Zn3616 2.036 . S
N3632 C3630 1.298 . S
N3632 N3633 1.398 . S
N3633 C3631 1.299 . S
N3633 N3632 1.398 . S
N3634 C3630 1.367 . S
N3634 C3631 1.379 . S
H3635 C3638 0.980 . S
H3636 C3638 0.981 . S
H3637 C3638 0.981 . S
C3638 C3630 1.481 . S
C3638 H3635 0.980 . S
C3638 H3636 0.981 . S
C3638 H3637 0.981 . S
C3639 C3626 1.481 . S
C3639 H3640 0.980 . S
C3639 H3641 0.981 . S
C3639 H3642 0.981 . S
H3640 C3639 0.980 . S
H3641 C3639 0.981 . S
H3642 C3639 0.981 . S
O3643 Zn3619 2.066 . S
O3643 C3622 1.256 . S
O3644 Zn3616 2.053 . S
O3644 C3622 1.244 . S
C3645 O3623 1.259 . S
C3645 O3624 1.254 . S
O3646 Zn3616 2.066 . S
O3646 C3618 1.256 . S
O3647 C3618 1.244 . S
O3647 Zn3619 2.053 . S
Zn3648 O3649 2.055 . S
Zn3648 O3656 2.046 . S
Zn3648 N3664 2.036 1_545 S
Zn3648 O3676 2.053 . S
Zn3648 O3678 2.066 1_545 S
O3649 Zn3648 2.055 . S
O3649 C3652 1.259 . S
C3650 O3678 1.256 1_545 S
C3650 O3679 1.244 . S
Zn3651 O3653 2.046 . S
Zn3651 O3655 2.055 . S
Zn3651 N3657 2.036 . S
Zn3651 O3675 2.066 . S
Zn3651 O3679 2.053 . S
C3652 O3649 1.259 . S
C3652 O3653 1.254 . S
O3653 Zn3651 2.046 . S
O3653 C3652 1.254 . S
C3654 O3675 1.256 . S
C3654 O3676 1.244 . S
O3655 Zn3651 2.055 . S
O3655 C3677 1.259 . S
O3656 Zn3648 2.046 . S
O3656 C3677 1.254 . S
N3657 Zn3651 2.036 . S
N3657 C3658 1.298 . S
N3657 N3660 1.398 . S
C3658 N3657 1.298 . S
C3658 N3661 1.367 . S
C3658 C3671 1.481 . S
C3659 N3660 1.299 . S
C3659 N3661 1.379 . S
N3660 N3657 1.398 . S
N3660 C3659 1.299 . S
N3661 C3658 1.367 . S
N3661 C3659 1.379 . S
C3662 N3664 1.298 . S
C3662 N3666 1.367 . S
C3662 C3670 1.481 . S
C3663 N3665 1.299 . S
C3663 N3666 1.379 . S
N3664 Zn3648 2.036 1_565 S
N3664 C3662 1.298 . S
N3664 N3665 1.398 . S
N3665 C3663 1.299 . S
N3665 N3664 1.398 . S
N3666 C3662 1.367 . S
N3666 C3663 1.379 . S
H3667 C3670 0.980 . S
H3668 C3670 0.981 . S
H3669 C3670 0.981 . S
C3670 C3662 1.481 . S
C3670 H3667 0.980 . S
C3670 H3668 0.981 . S
C3670 H3669 0.981 . S
C3671 C3658 1.481 . S
C3671 H3672 0.980 . S
C3671 H3673 0.981 . S
C3671 H3674 0.981 . S
H3672 C3671 0.980 . S
H3673 C3671 0.981 . S
H3674 C3671 0.981 . S
O3675 Zn3651 2.066 . S
O3675 C3654 1.256 . S
O3676 Zn3648 2.053 . S
O3676 C3654 1.244 . S
C3677 O3655 1.259 . S
C3677 O3656 1.254 . S
O3678 Zn3648 2.066 1_565 S
O3678 C3650 1.256 1_565 S
O3679 C3650 1.244 . S
O3679 Zn3651 2.053 . S
Zn3680 O3681 2.055 . S
Zn3680 O3688 2.046 . S
Zn3680 N3696 2.036 1_655 S
Zn3680 O3708 2.053 . S
Zn3680 O3710 2.066 1_655 S
O3681 Zn3680 2.055 . S
O3681 C3684 1.259 . S
C3682 O3710 1.256 1_655 S
C3682 O3711 1.244 . S
Zn3683 O3685 2.046 . S
Zn3683 O3687 2.055 . S
Zn3683 N3689 2.036 . S
Zn3683 O3707 2.066 . S
Zn3683 O3711 2.053 . S
C3684 O3681 1.259 . S
C3684 O3685 1.254 . S
O3685 Zn3683 2.046 . S
O3685 C3684 1.254 . S
C3686 O3707 1.256 . S
C3686 O3708 1.244 . S
O3687 Zn3683 2.055 . S
O3687 C3709 1.259 . S
O3688 Zn3680 2.046 . S
O3688 C3709 1.254 . S
N3689 Zn3683 2.036 . S
N3689 C3690 1.298 . S
N3689 N3692 1.398 . S
C3690 N3689 1.298 . S
C3690 N3693 1.367 . S
C3690 C3703 1.481 . S
C3691 N3692 1.299 . S
C3691 N3693 1.379 . S
N3692 N3689 1.398 . S
N3692 C3691 1.299 . S
N3693 C3690 1.367 . S
N3693 C3691 1.379 . S
C3694 N3696 1.298 . S
C3694 N3698 1.367 . S
C3694 C3702 1.481 . S
C3695 N3697 1.299 . S
C3695 N3698 1.379 . S
N3696 Zn3680 2.036 1_455 S
N3696 C3694 1.298 . S
N3696 N3697 1.398 . S
N3697 C3695 1.299 . S
N3697 N3696 1.398 . S
N3698 C3694 1.367 . S
N3698 C3695 1.379 . S
H3699 C3702 0.980 . S
H3700 C3702 0.981 . S
H3701 C3702 0.981 . S
C3702 C3694 1.481 . S
C3702 H3699 0.980 . S
C3702 H3700 0.981 . S
C3702 H3701 0.981 . S
C3703 C3690 1.481 . S
C3703 H3704 0.980 . S
C3703 H3705 0.981 . S
C3703 H3706 0.981 . S
H3704 C3703 0.980 . S
H3705 C3703 0.981 . S
H3706 C3703 0.981 . S
O3707 Zn3683 2.066 . S
O3707 C3686 1.256 . S
O3708 Zn3680 2.053 . S
O3708 C3686 1.244 . S
C3709 O3687 1.259 . S
C3709 O3688 1.254 . S
O3710 Zn3680 2.066 1_455 S
O3710 C3682 1.256 1_455 S
O3711 C3682 1.244 . S
O3711 Zn3683 2.053 . S
Zn3712 O3713 2.055 . S
Zn3712 O3720 2.046 . S
Zn3712 N3728 2.036 . S
Zn3712 O3740 2.053 . S
Zn3712 O3742 2.066 . S
O3713 Zn3712 2.055 . S
O3713 C3716 1.259 . S
C3714 O3742 1.256 . S
C3714 O3743 1.244 . S
Zn3715 O3717 2.046 . S
Zn3715 O3719 2.055 . S
Zn3715 N3721 2.036 . S
Zn3715 O3739 2.066 . S
Zn3715 O3743 2.053 . S
C3716 O3713 1.259 . S
C3716 O3717 1.254 . S
O3717 Zn3715 2.046 . S
O3717 C3716 1.254 . S
C3718 O3739 1.256 1_554 S
C3718 O3740 1.244 1_554 S
O3719 Zn3715 2.055 . S
O3719 C3741 1.259 . S
O3720 Zn3712 2.046 . S
O3720 C3741 1.254 . S
N3721 Zn3715 2.036 . S
N3721 C3722 1.298 . S
N3721 N3724 1.398 . S
C3722 N3721 1.298 . S
C3722 N3725 1.367 . S
C3722 C3735 1.481 . S
C3723 N3724 1.299 . S
C3723 N3725 1.379 . S
N3724 N3721 1.398 . S
N3724 C3723 1.299 . S
N3725 C3722 1.367 . S
N3725 C3723 1.379 . S
C3726 N3728 1.298 . S
C3726 N3730 1.367 . S
C3726 C3734 1.481 . S
C3727 N3729 1.299 . S
C3727 N3730 1.379 1_554 S
N3728 Zn3712 2.036 . S
N3728 C3726 1.298 . S
N3728 N3729 1.398 1_556 S
N3729 C3727 1.299 . S
N3729 N3728 1.398 1_554 S
N3730 C3726 1.367 . S
N3730 C3727 1.379 1_556 S
H3731 C3734 0.980 . S
H3732 C3734 0.981 . S
H3733 C3734 0.981 . S
C3734 C3726 1.481 . S
C3734 H3731 0.980 . S
C3734 H3732 0.981 . S
C3734 H3733 0.981 . S
C3735 C3722 1.481 . S
C3735 H3736 0.980 . S
C3735 H3737 0.981 . S
C3735 H3738 0.981 . S
H3736 C3735 0.980 . S
H3737 C3735 0.981 . S
H3738 C3735 0.981 . S
O3739 Zn3715 2.066 . S
O3739 C3718 1.256 1_556 S
O3740 Zn3712 2.053 . S
O3740 C3718 1.244 1_556 S
C3741 O3719 1.259 . S
C3741 O3720 1.254 . S
O3742 Zn3712 2.066 . S
O3742 C3714 1.256 . S
O3743 C3714 1.244 . S
O3743 Zn3715 2.053 . S
Zn3744 O3745 2.055 . S
Zn3744 O3752 2.046 . S
Zn3744 N3760 2.036 . S
Zn3744 O3772 2.053 . S
Zn3744 O3774 2.066 . S
O3745 Zn3744 2.055 . S
O3745 C3748 1.259 . S
C3746 O3774 1.256 . S
C3746 O3775 1.244 . S
Zn3747 O3749 2.046 . S
Zn3747 O3751 2.055 . S
Zn3747 N3753 2.036 . S
Zn3747 O3771 2.066 . S
Zn3747 O3775 2.053 . S
C3748 O3745 1.259 . S
C3748 O3749 1.254 . S
O3749 Zn3747 2.046 . S
O3749 C3748 1.254 . S
C3750 O3771 1.256 . S
C3750 O3772 1.244 . S
O3751 Zn3747 2.055 . S
O3751 C3773 1.259 . S
O3752 Zn3744 2.046 . S
O3752 C3773 1.254 . S
N3753 Zn3747 2.036 . S
N3753 C3754 1.298 . S
N3753 N3756 1.398 . S
C3754 N3753 1.298 . S
C3754 N3757 1.367 . S
C3754 C3767 1.481 . S
C3755 N3756 1.299 . S
C3755 N3757 1.379 . S
N3756 N3753 1.398 . S
N3756 C3755 1.299 . S
N3757 C3754 1.367 . S
N3757 C3755 1.379 . S
C3758 N3760 1.298 . S
C3758 N3762 1.367 . S
C3758 C3766 1.481 . S
C3759 N3761 1.299 . S
C3759 N3762 1.379 . S
N3760 Zn3744 2.036 . S
N3760 C3758 1.298 . S
N3760 N3761 1.398 . S
N3761 C3759 1.299 . S
N3761 N3760 1.398 . S
N3762 C3758 1.367 . S
N3762 C3759 1.379 . S
H3763 C3766 0.980 . S
H3764 C3766 0.981 . S
H3765 C3766 0.981 . S
C3766 C3758 1.481 . S
C3766 H3763 0.980 . S
C3766 H3764 0.981 . S
C3766 H3765 0.981 . S
C3767 C3754 1.481 . S
C3767 H3768 0.980 . S
C3767 H3769 0.981 . S
C3767 H3770 0.981 . S
H3768 C3767 0.980 . S
H3769 C3767 0.981 . S
H3770 C3767 0.981 . S
O3771 Zn3747 2.066 . S
O3771 C3750 1.256 . S
O3772 Zn3744 2.053 . S
O3772 C3750 1.244 . S
C3773 O3751 1.259 . S
C3773 O3752 1.254 . S
O3774 Zn3744 2.066 . S
O3774 C3746 1.256 . S
O3775 C3746 1.244 . S
O3775 Zn3747 2.053 . S
Zn3776 O3777 2.055 . S
Zn3776 O3784 2.046 . S
Zn3776 N3792 2.036 . S
Zn3776 O3804 2.053 . S
Zn3776 O3806 2.066 . S
O3777 Zn3776 2.055 . S
O3777 C3780 1.259 . S
C3778 O3806 1.256 . S
C3778 O3807 1.244 . S
Zn3779 O3781 2.046 . S
Zn3779 O3783 2.055 . S
Zn3779 N3785 2.036 . S
Zn3779 O3803 2.066 . S
Zn3779 O3807 2.053 . S
C3780 O3777 1.259 . S
C3780 O3781 1.254 . S
O3781 Zn3779 2.046 . S
O3781 C3780 1.254 . S
C3782 O3803 1.256 . S
C3782 O3804 1.244 . S
O3783 Zn3779 2.055 . S
O3783 C3805 1.259 . S
O3784 Zn3776 2.046 . S
O3784 C3805 1.254 . S
N3785 Zn3779 2.036 . S
N3785 C3786 1.298 . S
N3785 N3788 1.398 . S
C3786 N3785 1.298 . S
C3786 N3789 1.367 . S
C3786 C3799 1.481 . S
C3787 N3788 1.299 . S
C3787 N3789 1.379 . S
N3788 N3785 1.398 . S
N3788 C3787 1.299 . S
N3789 C3786 1.367 . S
N3789 C3787 1.379 . S
C3790 N3792 1.298 . S
C3790 N3794 1.367 . S
C3790 C3798 1.481 . S
C3791 N3793 1.299 . S
C3791 N3794 1.379 . S
N3792 Zn3776 2.036 . S
N3792 C3790 1.298 . S
N3792 N3793 1.398 . S
N3793 C3791 1.299 . S
N3793 N3792 1.398 . S
N3794 C3790 1.367 . S
N3794 C3791 1.379 . S
H3795 C3798 0.980 . S
H3796 C3798 0.981 . S
H3797 C3798 0.981 . S
C3798 C3790 1.481 . S
C3798 H3795 0.980 . S
C3798 H3796 0.981 . S
C3798 H3797 0.981 . S
C3799 C3786 1.481 . S
C3799 H3800 0.980 . S
C3799 H3801 0.981 . S
C3799 H3802 0.981 . S
H3800 C3799 0.980 . S
H3801 C3799 0.981 . S
H3802 C3799 0.981 . S
O3803 Zn3779 2.066 . S
O3803 C3782 1.256 . S
O3804 Zn3776 2.053 . S
O3804 C3782 1.244 . S
C3805 O3783 1.259 . S
C3805 O3784 1.254 . S
O3806 Zn3776 2.066 . S
O3806 C3778 1.256 . S
O3807 C3778 1.244 . S
O3807 Zn3779 2.053 . S
Zn3808 O3809 2.055 . S
Zn3808 O3816 2.046 . S
Zn3808 N3824 2.036 . S
Zn3808 O3836 2.053 . S
Zn3808 O3838 2.066 . S
O3809 Zn3808 2.055 . S
O3809 C3812 1.259 . S
C3810 O3838 1.256 . S
C3810 O3839 1.244 . S
Zn3811 O3813 2.046 . S
Zn3811 O3815 2.055 . S
Zn3811 N3817 2.036 1_545 S
Zn3811 O3835 2.066 1_545 S
Zn3811 O3839 2.053 . S
C3812 O3809 1.259 . S
C3812 O3813 1.254 . S
O3813 Zn3811 2.046 . S
O3813 C3812 1.254 . S
C3814 O3835 1.256 1_545 S
C3814 O3836 1.244 . S
O3815 Zn3811 2.055 . S
O3815 C3837 1.259 . S
O3816 Zn3808 2.046 . S
O3816 C3837 1.254 . S
N3817 Zn3811 2.036 1_565 S
N3817 C3818 1.298 . S
N3817 N3820 1.398 . S
C3818 N3817 1.298 . S
C3818 N3821 1.367 . S
C3818 C3831 1.481 . S
C3819 N3820 1.299 . S
C3819 N3821 1.379 . S
N3820 N3817 1.398 . S
N3820 C3819 1.299 . S
N3821 C3818 1.367 . S
N3821 C3819 1.379 . S
C3822 N3824 1.298 . S
C3822 N3826 1.367 . S
C3822 C3830 1.481 . S
C3823 N3825 1.299 . S
C3823 N3826 1.379 . S
N3824 Zn3808 2.036 . S
N3824 C3822 1.298 . S
N3824 N3825 1.398 . S
N3825 C3823 1.299 . S
N3825 N3824 1.398 . S
N3826 C3822 1.367 . S
N3826 C3823 1.379 . S
H3827 C3830 0.980 . S
H3828 C3830 0.981 . S
H3829 C3830 0.981 . S
C3830 C3822 1.481 . S
C3830 H3827 0.980 . S
C3830 H3828 0.981 . S
C3830 H3829 0.981 . S
C3831 C3818 1.481 . S
C3831 H3832 0.980 . S
C3831 H3833 0.981 . S
C3831 H3834 0.981 . S
H3832 C3831 0.980 . S
H3833 C3831 0.981 . S
H3834 C3831 0.981 . S
O3835 Zn3811 2.066 1_565 S
O3835 C3814 1.256 1_565 S
O3836 Zn3808 2.053 . S
O3836 C3814 1.244 . S
C3837 O3815 1.259 . S
C3837 O3816 1.254 . S
O3838 Zn3808 2.066 . S
O3838 C3810 1.256 . S
O3839 C3810 1.244 . S
O3839 Zn3811 2.053 . S
Zn3840 O3841 2.055 . S
Zn3840 O3848 2.046 . S
Zn3840 N3856 2.036 . S
Zn3840 O3868 2.053 . S
Zn3840 O3870 2.066 . S
O3841 Zn3840 2.055 . S
O3841 C3844 1.259 . S
C3842 O3870 1.256 . S
C3842 O3871 1.244 . S
Zn3843 O3845 2.046 . S
Zn3843 O3847 2.055 . S
Zn3843 N3849 2.036 . S
Zn3843 O3867 2.066 . S
Zn3843 O3871 2.053 . S
C3844 O3841 1.259 . S
C3844 O3845 1.254 . S
O3845 Zn3843 2.046 . S
O3845 C3844 1.254 . S
C3846 O3867 1.256 . S
C3846 O3868 1.244 . S
O3847 Zn3843 2.055 . S
O3847 C3869 1.259 . S
O3848 Zn3840 2.046 . S
O3848 C3869 1.254 . S
N3849 Zn3843 2.036 . S
N3849 C3850 1.298 . S
N3849 N3852 1.398 . S
C3850 N3849 1.298 . S
C3850 N3853 1.367 . S
C3850 C3863 1.481 . S
C3851 N3852 1.299 . S
C3851 N3853 1.379 . S
N3852 N3849 1.398 . S
N3852 C3851 1.299 . S
N3853 C3850 1.367 . S
N3853 C3851 1.379 . S
C3854 N3856 1.298 . S
C3854 N3858 1.367 . S
C3854 C3862 1.481 . S
C3855 N3857 1.299 . S
C3855 N3858 1.379 . S
N3856 Zn3840 2.036 . S
N3856 C3854 1.298 . S
N3856 N3857 1.398 . S
N3857 C3855 1.299 . S
N3857 N3856 1.398 . S
N3858 C3854 1.367 . S
N3858 C3855 1.379 . S
H3859 C3862 0.980 . S
H3860 C3862 0.981 . S
H3861 C3862 0.981 . S
C3862 C3854 1.481 . S
C3862 H3859 0.980 . S
C3862 H3860 0.981 . S
C3862 H3861 0.981 . S
C3863 C3850 1.481 . S
C3863 H3864 0.980 . S
C3863 H3865 0.981 . S
C3863 H3866 0.981 . S
H3864 C3863 0.980 . S
H3865 C3863 0.981 . S
H3866 C3863 0.981 . S
O3867 Zn3843 2.066 . S
O3867 C3846 1.256 . S
O3868 Zn3840 2.053 . S
O3868 C3846 1.244 . S
C3869 O3847 1.259 . S
C3869 O3848 1.254 . S
O3870 Zn3840 2.066 . S
O3870 C3842 1.256 . S
O3871 C3842 1.244 . S
O3871 Zn3843 2.053 . S
Zn3872 O3873 2.055 . S
Zn3872 O3880 2.046 . S
Zn3872 N3888 2.036 . S
Zn3872 O3900 2.053 . S
Zn3872 O3902 2.066 . S
O3873 Zn3872 2.055 . S
O3873 C3876 1.259 . S
C3874 O3902 1.256 . S
C3874 O3903 1.244 . S
Zn3875 O3877 2.046 . S
Zn3875 O3879 2.055 . S
Zn3875 N3881 2.036 . S
Zn3875 O3899 2.066 . S
Zn3875 O3903 2.053 . S
C3876 O3873 1.259 . S
C3876 O3877 1.254 . S
O3877 Zn3875 2.046 . S
O3877 C3876 1.254 . S
C3878 O3899 1.256 . S
C3878 O3900 1.244 . S
O3879 Zn3875 2.055 . S
O3879 C3901 1.259 . S
O3880 Zn3872 2.046 . S
O3880 C3901 1.254 . S
N3881 Zn3875 2.036 . S
N3881 C3882 1.298 . S
N3881 N3884 1.398 . S
C3882 N3881 1.298 . S
C3882 N3885 1.367 . S
C3882 C3895 1.481 . S
C3883 N3884 1.299 . S
C3883 N3885 1.379 . S
N3884 N3881 1.398 . S
N3884 C3883 1.299 . S
N3885 C3882 1.367 . S
N3885 C3883 1.379 . S
C3886 N3888 1.298 . S
C3886 N3890 1.367 . S
C3886 C3894 1.481 . S
C3887 N3889 1.299 . S
C3887 N3890 1.379 . S
N3888 Zn3872 2.036 . S
N3888 C3886 1.298 . S
N3888 N3889 1.398 . S
N3889 C3887 1.299 . S
N3889 N3888 1.398 . S
N3890 C3886 1.367 . S
N3890 C3887 1.379 . S
H3891 C3894 0.980 . S
H3892 C3894 0.981 . S
H3893 C3894 0.981 . S
C3894 C3886 1.481 . S
C3894 H3891 0.980 . S
C3894 H3892 0.981 . S
C3894 H3893 0.981 . S
C3895 C3882 1.481 . S
C3895 H3896 0.980 . S
C3895 H3897 0.981 . S
C3895 H3898 0.981 . S
H3896 C3895 0.980 . S
H3897 C3895 0.981 . S
H3898 C3895 0.981 . S
O3899 Zn3875 2.066 . S
O3899 C3878 1.256 . S
O3900 Zn3872 2.053 . S
O3900 C3878 1.244 . S
C3901 O3879 1.259 . S
C3901 O3880 1.254 . S
O3902 Zn3872 2.066 . S
O3902 C3874 1.256 . S
O3903 C3874 1.244 . S
O3903 Zn3875 2.053 . S
Zn3904 O3905 2.055 . S
Zn3904 O3912 2.046 . S
Zn3904 N3920 2.036 . S
Zn3904 O3932 2.053 . S
Zn3904 O3934 2.066 . S
O3905 Zn3904 2.055 . S
O3905 C3908 1.259 . S
C3906 O3934 1.256 . S
C3906 O3935 1.244 . S
Zn3907 O3909 2.046 . S
Zn3907 O3911 2.055 . S
Zn3907 N3913 2.036 . S
Zn3907 O3931 2.066 . S
Zn3907 O3935 2.053 . S
C3908 O3905 1.259 . S
C3908 O3909 1.254 . S
O3909 Zn3907 2.046 . S
O3909 C3908 1.254 . S
C3910 O3931 1.256 . S
C3910 O3932 1.244 . S
O3911 Zn3907 2.055 . S
O3911 C3933 1.259 . S
O3912 Zn3904 2.046 . S
O3912 C3933 1.254 . S
N3913 Zn3907 2.036 . S
N3913 C3914 1.298 . S
N3913 N3916 1.398 . S
C3914 N3913 1.298 . S
C3914 N3917 1.367 . S
C3914 C3927 1.481 . S
C3915 N3916 1.299 . S
C3915 N3917 1.379 . S
N3916 N3913 1.398 . S
N3916 C3915 1.299 . S
N3917 C3914 1.367 . S
N3917 C3915 1.379 . S
C3918 N3920 1.298 . S
C3918 N3922 1.367 . S
C3918 C3926 1.481 . S
C3919 N3921 1.299 . S
C3919 N3922 1.379 . S
N3920 Zn3904 2.036 . S
N3920 C3918 1.298 . S
N3920 N3921 1.398 . S
N3921 C3919 1.299 . S
N3921 N3920 1.398 . S
N3922 C3918 1.367 . S
N3922 C3919 1.379 . S
H3923 C3926 0.980 . S
H3924 C3926 0.981 . S
H3925 C3926 0.981 . S
C3926 C3918 1.481 . S
C3926 H3923 0.980 . S
C3926 H3924 0.981 . S
C3926 H3925 0.981 . S
C3927 C3914 1.481 . S
C3927 H3928 0.980 . S
C3927 H3929 0.981 . S
C3927 H3930 0.981 . S
H3928 C3927 0.980 . S
H3929 C3927 0.981 . S
H3930 C3927 0.981 . S
O3931 Zn3907 2.066 . S
O3931 C3910 1.256 . S
O3932 Zn3904 2.053 . S
O3932 C3910 1.244 . S
C3933 O3911 1.259 . S
C3933 O3912 1.254 . S
O3934 Zn3904 2.066 . S
O3934 C3906 1.256 . S
O3935 C3906 1.244 . S
O3935 Zn3907 2.053 . S
Zn3936 O3937 2.055 . S
Zn3936 O3944 2.046 . S
Zn3936 N3952 2.036 . S
Zn3936 O3964 2.053 . S
Zn3936 O3966 2.066 . S
O3937 Zn3936 2.055 . S
O3937 C3940 1.259 . S
C3938 O3966 1.256 . S
C3938 O3967 1.244 . S
Zn3939 O3941 2.046 . S
Zn3939 O3943 2.055 . S
Zn3939 N3945 2.036 . S
Zn3939 O3963 2.066 . S
Zn3939 O3967 2.053 . S
C3940 O3937 1.259 . S
C3940 O3941 1.254 . S
O3941 Zn3939 2.046 . S
O3941 C3940 1.254 . S
C3942 O3963 1.256 . S
C3942 O3964 1.244 . S
O3943 Zn3939 2.055 . S
O3943 C3965 1.259 . S
O3944 Zn3936 2.046 . S
O3944 C3965 1.254 . S
N3945 Zn3939 2.036 . S
N3945 C3946 1.298 . S
N3945 N3948 1.398 . S
C3946 N3945 1.298 . S
C3946 N3949 1.367 . S
C3946 C3959 1.481 . S
C3947 N3948 1.299 . S
C3947 N3949 1.379 . S
N3948 N3945 1.398 . S
N3948 C3947 1.299 . S
N3949 C3946 1.367 . S
N3949 C3947 1.379 . S
C3950 N3952 1.298 . S
C3950 N3954 1.367 . S
C3950 C3958 1.481 . S
C3951 N3953 1.299 . S
C3951 N3954 1.379 . S
N3952 Zn3936 2.036 . S
N3952 C3950 1.298 . S
N3952 N3953 1.398 . S
N3953 C3951 1.299 . S
N3953 N3952 1.398 . S
N3954 C3950 1.367 . S
N3954 C3951 1.379 . S
H3955 C3958 0.980 . S
H3956 C3958 0.981 . S
H3957 C3958 0.981 . S
C3958 C3950 1.481 . S
C3958 H3955 0.980 . S
C3958 H3956 0.981 . S
C3958 H3957 0.981 . S
C3959 C3946 1.481 . S
C3959 H3960 0.980 . S
C3959 H3961 0.981 . S
C3959 H3962 0.981 . S
H3960 C3959 0.980 . S
H3961 C3959 0.981 . S
H3962 C3959 0.981 . S
O3963 Zn3939 2.066 . S
O3963 C3942 1.256 . S
O3964 Zn3936 2.053 . S
O3964 C3942 1.244 . S
C3965 O3943 1.259 . S
C3965 O3944 1.254 . S
O3966 Zn3936 2.066 . S
O3966 C3938 1.256 . S
O3967 C3938 1.244 . S
O3967 Zn3939 2.053 . S
Zn3968 O3969 2.055 . S
Zn3968 O3976 2.046 . S
Zn3968 N3984 2.036 1_545 S
Zn3968 O3996 2.053 1_545 S
Zn3968 O3998 2.066 . S
O3969 Zn3968 2.055 . S
O3969 C3972 1.259 . S
C3970 O3998 1.256 . S
C3970 O3999 1.244 . S
Zn3971 O3973 2.046 . S
Zn3971 O3975 2.055 . S
Zn3971 N3977 2.036 . S
Zn3971 O3995 2.066 . S
Zn3971 O3999 2.053 . S
C3972 O3969 1.259 . S
C3972 O3973 1.254 . S
O3973 Zn3971 2.046 . S
O3973 C3972 1.254 . S
C3974 O3995 1.256 . S
C3974 O3996 1.244 1_545 S
O3975 Zn3971 2.055 . S
O3975 C3997 1.259 . S
O3976 Zn3968 2.046 . S
O3976 C3997 1.254 . S
N3977 Zn3971 2.036 . S
N3977 C3978 1.298 . S
N3977 N3980 1.398 . S
C3978 N3977 1.298 . S
C3978 N3981 1.367 . S
C3978 C3991 1.481 . S
C3979 N3980 1.299 . S
C3979 N3981 1.379 . S
N3980 N3977 1.398 . S
N3980 C3979 1.299 . S
N3981 C3978 1.367 . S
N3981 C3979 1.379 . S
C3982 N3984 1.298 . S
C3982 N3986 1.367 . S
C3982 C3990 1.481 . S
C3983 N3985 1.299 . S
C3983 N3986 1.379 . S
N3984 Zn3968 2.036 1_565 S
N3984 C3982 1.298 . S
N3984 N3985 1.398 . S
N3985 C3983 1.299 . S
N3985 N3984 1.398 . S
N3986 C3982 1.367 . S
N3986 C3983 1.379 . S
H3987 C3990 0.980 . S
H3988 C3990 0.981 . S
H3989 C3990 0.981 . S
C3990 C3982 1.481 . S
C3990 H3987 0.980 . S
C3990 H3988 0.981 . S
C3990 H3989 0.981 . S
C3991 C3978 1.481 . S
C3991 H3992 0.980 . S
C3991 H3993 0.981 . S
C3991 H3994 0.981 . S
H3992 C3991 0.980 . S
H3993 C3991 0.981 . S
H3994 C3991 0.981 . S
O3995 Zn3971 2.066 . S
O3995 C3974 1.256 . S
O3996 Zn3968 2.053 1_565 S
O3996 C3974 1.244 1_565 S
C3997 O3975 1.259 . S
C3997 O3976 1.254 . S
O3998 Zn3968 2.066 . S
O3998 C3970 1.256 . S
O3999 C3970 1.244 . S
O3999 Zn3971 2.053 . S
Zn4000 O4001 2.055 . S
Zn4000 O4008 2.046 . S
Zn4000 N4016 2.036 . S
Zn4000 O4028 2.053 . S
Zn4000 O4030 2.066 . S
O4001 Zn4000 2.055 . S
O4001 C4004 1.259 . S
C4002 O4030 1.256 . S
C4002 O4031 1.244 1_655 S
Zn4003 O4005 2.046 . S
Zn4003 O4007 2.055 . S
Zn4003 N4009 2.036 1_655 S
Zn4003 O4027 2.066 . S
Zn4003 O4031 2.053 1_655 S
C4004 O4001 1.259 . S
C4004 O4005 1.254 . S
O4005 Zn4003 2.046 . S
O4005 C4004 1.254 . S
C4006 O4027 1.256 . S
C4006 O4028 1.244 . S
O4007 Zn4003 2.055 . S
O4007 C4029 1.259 . S
O4008 Zn4000 2.046 . S
O4008 C4029 1.254 . S
N4009 Zn4003 2.036 1_455 S
N4009 C4010 1.298 . S
N4009 N4012 1.398 . S
C4010 N4009 1.298 . S
C4010 N4013 1.367 . S
C4010 C4023 1.481 . S
C4011 N4012 1.299 . S
C4011 N4013 1.379 . S
N4012 N4009 1.398 . S
N4012 C4011 1.299 . S
N4013 C4010 1.367 . S
N4013 C4011 1.379 . S
C4014 N4016 1.298 . S
C4014 N4018 1.367 . S
C4014 C4022 1.481 . S
C4015 N4017 1.299 . S
C4015 N4018 1.379 . S
N4016 Zn4000 2.036 . S
N4016 C4014 1.298 . S
N4016 N4017 1.398 . S
N4017 C4015 1.299 . S
N4017 N4016 1.398 . S
N4018 C4014 1.367 . S
N4018 C4015 1.379 . S
H4019 C4022 0.980 . S
H4020 C4022 0.981 . S
H4021 C4022 0.981 . S
C4022 C4014 1.481 . S
C4022 H4019 0.980 . S
C4022 H4020 0.981 . S
C4022 H4021 0.981 . S
C4023 C4010 1.481 . S
C4023 H4024 0.980 . S
C4023 H4025 0.981 . S
C4023 H4026 0.981 . S
H4024 C4023 0.980 . S
H4025 C4023 0.981 . S
H4026 C4023 0.981 . S
O4027 Zn4003 2.066 . S
O4027 C4006 1.256 . S
O4028 Zn4000 2.053 . S
O4028 C4006 1.244 . S
C4029 O4007 1.259 . S
C4029 O4008 1.254 . S
O4030 Zn4000 2.066 . S
O4030 C4002 1.256 . S
O4031 C4002 1.244 1_455 S
O4031 Zn4003 2.053 1_455 S
Zn4032 O4033 2.055 . S
Zn4032 O4040 2.046 . S
Zn4032 N4048 2.036 . S
Zn4032 O4060 2.053 . S
Zn4032 O4062 2.066 . S
O4033 Zn4032 2.055 . S
O4033 C4036 1.259 . S
C4034 O4062 1.256 . S
C4034 O4063 1.244 . S
Zn4035 O4037 2.046 . S
Zn4035 O4039 2.055 . S
Zn4035 N4041 2.036 . S
Zn4035 O4059 2.066 . S
Zn4035 O4063 2.053 . S
C4036 O4033 1.259 . S
C4036 O4037 1.254 . S
O4037 Zn4035 2.046 . S
O4037 C4036 1.254 . S
C4038 O4059 1.256 . S
C4038 O4060 1.244 . S
O4039 Zn4035 2.055 . S
O4039 C4061 1.259 . S
O4040 Zn4032 2.046 . S
O4040 C4061 1.254 . S
N4041 Zn4035 2.036 . S
N4041 C4042 1.298 . S
N4041 N4044 1.398 . S
C4042 N4041 1.298 . S
C4042 N4045 1.367 . S
C4042 C4055 1.481 . S
C4043 N4044 1.299 . S
C4043 N4045 1.379 . S
N4044 N4041 1.398 . S
N4044 C4043 1.299 . S
N4045 C4042 1.367 . S
N4045 C4043 1.379 . S
C4046 N4048 1.298 . S
C4046 N4050 1.367 . S
C4046 C4054 1.481 . S
C4047 N4049 1.299 . S
C4047 N4050 1.379 . S
N4048 Zn4032 2.036 . S
N4048 C4046 1.298 . S
N4048 N4049 1.398 . S
N4049 C4047 1.299 . S
N4049 N4048 1.398 . S
N4050 C4046 1.367 . S
N4050 C4047 1.379 . S
H4051 C4054 0.980 . S
H4052 C4054 0.981 . S
H4053 C4054 0.981 . S
C4054 C4046 1.481 . S
C4054 H4051 0.980 . S
C4054 H4052 0.981 . S
C4054 H4053 0.981 . S
C4055 C4042 1.481 . S
C4055 H4056 0.980 . S
C4055 H4057 0.981 . S
C4055 H4058 0.981 . S
H4056 C4055 0.980 . S
H4057 C4055 0.981 . S
H4058 C4055 0.981 . S
O4059 Zn4035 2.066 . S
O4059 C4038 1.256 . S
O4060 Zn4032 2.053 . S
O4060 C4038 1.244 . S
C4061 O4039 1.259 . S
C4061 O4040 1.254 . S
O4062 Zn4032 2.066 . S
O4062 C4034 1.256 . S
O4063 C4034 1.244 . S
O4063 Zn4035 2.053 . S
Zn4064 O4065 2.055 . S
Zn4064 O4072 2.046 . S
Zn4064 N4080 2.036 . S
Zn4064 O4092 2.053 . S
Zn4064 O4094 2.066 . S
O4065 Zn4064 2.055 . S
O4065 C4068 1.259 . S
C4066 O4094 1.256 . S
C4066 O4095 1.244 . S
Zn4067 O4069 2.046 . S
Zn4067 O4071 2.055 . S
Zn4067 N4073 2.036 . S
Zn4067 O4091 2.066 . S
Zn4067 O4095 2.053 . S
C4068 O4065 1.259 . S
C4068 O4069 1.254 . S
O4069 Zn4067 2.046 . S
O4069 C4068 1.254 . S
C4070 O4091 1.256 . S
C4070 O4092 1.244 . S
O4071 Zn4067 2.055 . S
O4071 C4093 1.259 . S
O4072 Zn4064 2.046 . S
O4072 C4093 1.254 . S
N4073 Zn4067 2.036 . S
N4073 C4074 1.298 . S
N4073 N4076 1.398 . S
C4074 N4073 1.298 . S
C4074 N4077 1.367 . S
C4074 C4087 1.481 . S
C4075 N4076 1.299 . S
C4075 N4077 1.379 . S
N4076 N4073 1.398 . S
N4076 C4075 1.299 . S
N4077 C4074 1.367 . S
N4077 C4075 1.379 . S
C4078 N4080 1.298 . S
C4078 N4082 1.367 . S
C4078 C4086 1.481 . S
C4079 N4081 1.299 . S
C4079 N4082 1.379 . S
N4080 Zn4064 2.036 . S
N4080 C4078 1.298 . S
N4080 N4081 1.398 . S
N4081 C4079 1.299 . S
N4081 N4080 1.398 . S
N4082 C4078 1.367 . S
N4082 C4079 1.379 . S
H4083 C4086 0.980 . S
H4084 C4086 0.981 . S
H4085 C4086 0.981 . S
C4086 C4078 1.481 . S
C4086 H4083 0.980 . S
C4086 H4084 0.981 . S
C4086 H4085 0.981 . S
C4087 C4074 1.481 . S
C4087 H4088 0.980 . S
C4087 H4089 0.981 . S
C4087 H4090 0.981 . S
H4088 C4087 0.980 . S
H4089 C4087 0.981 . S
H4090 C4087 0.981 . S
O4091 Zn4067 2.066 . S
O4091 C4070 1.256 . S
O4092 Zn4064 2.053 . S
O4092 C4070 1.244 . S
C4093 O4071 1.259 . S
C4093 O4072 1.254 . S
O4094 Zn4064 2.066 . S
O4094 C4066 1.256 . S
O4095 C4066 1.244 . S
O4095 Zn4067 2.053 . S
Zn4096 O4097 2.055 . S
Zn4096 O4104 2.046 . S
Zn4096 N4112 2.036 . S
Zn4096 O4124 2.053 . S
Zn4096 O4126 2.066 . S
O4097 Zn4096 2.055 . S
O4097 C4100 1.259 . S
C4098 O4126 1.256 . S
C4098 O4127 1.244 . S
Zn4099 O4101 2.046 . S
Zn4099 O4103 2.055 . S
Zn4099 N4105 2.036 . S
Zn4099 O4123 2.066 . S
Zn4099 O4127 2.053 . S
C4100 O4097 1.259 . S
C4100 O4101 1.254 . S
O4101 Zn4099 2.046 . S
O4101 C4100 1.254 . S
C4102 O4123 1.256 1_545 S
C4102 O4124 1.244 1_545 S
O4103 Zn4099 2.055 . S
O4103 C4125 1.259 . S
O4104 Zn4096 2.046 . S
O4104 C4125 1.254 . S
N4105 Zn4099 2.036 . S
N4105 C4106 1.298 . S
N4105 N4108 1.398 . S
C4106 N4105 1.298 . S
C4106 N4109 1.367 . S
C4106 C4119 1.481 1_565 S
C4107 N4108 1.299 . S
C4107 N4109 1.379 . S
N4108 N4105 1.398 . S
N4108 C4107 1.299 . S
N4109 C4106 1.367 . S
N4109 C4107 1.379 . S
C4110 N4112 1.298 . S
C4110 N4114 1.367 . S
C4110 C4118 1.481 . S
C4111 N4113 1.299 . S
C4111 N4114 1.379 . S
N4112 Zn4096 2.036 . S
N4112 C4110 1.298 . S
N4112 N4113 1.398 . S
N4113 C4111 1.299 . S
N4113 N4112 1.398 . S
N4114 C4110 1.367 . S
N4114 C4111 1.379 . S
H4115 C4118 0.980 . S
H4116 C4118 0.981 . S
H4117 C4118 0.981 . S
C4118 C4110 1.481 . S
C4118 H4115 0.980 . S
C4118 H4116 0.981 . S
C4118 H4117 0.981 . S
C4119 C4106 1.481 1_545 S
C4119 H4120 0.980 1_545 S
C4119 H4121 0.981 . S
C4119 H4122 0.981 . S
H4120 C4119 0.980 1_565 S
H4121 C4119 0.981 . S
H4122 C4119 0.981 . S
O4123 Zn4099 2.066 . S
O4123 C4102 1.256 1_565 S
O4124 Zn4096 2.053 . S
O4124 C4102 1.244 1_565 S
C4125 O4103 1.259 . S
C4125 O4104 1.254 . S
O4126 Zn4096 2.066 . S
O4126 C4098 1.256 . S
O4127 C4098 1.244 . S
O4127 Zn4099 2.053 . S
Zn4128 O4129 2.055 . S
Zn4128 O4136 2.046 . S
Zn4128 N4144 2.036 . S
Zn4128 O4156 2.053 . S
Zn4128 O4158 2.066 . S
O4129 Zn4128 2.055 . S
O4129 C4132 1.259 . S
C4130 O4158 1.256 . S
C4130 O4159 1.244 1_556 S
Zn4131 O4133 2.046 . S
Zn4131 O4135 2.055 . S
Zn4131 N4137 2.036 1_556 S
Zn4131 O4155 2.066 . S
Zn4131 O4159 2.053 1_556 S
C4132 O4129 1.259 . S
C4132 O4133 1.254 . S
O4133 Zn4131 2.046 . S
O4133 C4132 1.254 . S
C4134 O4155 1.256 1_655 S
C4134 O4156 1.244 1_655 S
O4135 Zn4131 2.055 . S
O4135 C4157 1.259 . S
O4136 Zn4128 2.046 . S
O4136 C4157 1.254 . S
N4137 Zn4131 2.036 1_554 S
N4137 C4138 1.298 . S
N4137 N4140 1.398 . S
C4138 N4137 1.298 . S
C4138 N4141 1.367 . S
C4138 C4151 1.481 1_455 S
C4139 N4140 1.299 . S
C4139 N4141 1.379 . S
N4140 N4137 1.398 . S
N4140 C4139 1.299 . S
N4141 C4138 1.367 . S
N4141 C4139 1.379 . S
C4142 N4144 1.298 . S
C4142 N4146 1.367 . S
C4142 C4150 1.481 . S
C4143 N4145 1.299 . S
C4143 N4146 1.379 . S
N4144 Zn4128 2.036 . S
N4144 C4142 1.298 . S
N4144 N4145 1.398 . S
N4145 C4143 1.299 . S
N4145 N4144 1.398 . S
N4146 C4142 1.367 . S
N4146 C4143 1.379 . S
H4147 C4150 0.980 . S
H4148 C4150 0.981 . S
H4149 C4150 0.981 . S
C4150 C4142 1.481 . S
C4150 H4147 0.980 . S
C4150 H4148 0.981 . S
C4150 H4149 0.981 . S
C4151 C4138 1.481 1_655 S
C4151 H4152 0.980 1_655 S
C4151 H4153 0.981 . S
C4151 H4154 0.981 . S
H4152 C4151 0.980 1_455 S
H4153 C4151 0.981 . S
H4154 C4151 0.981 . S
O4155 Zn4131 2.066 . S
O4155 C4134 1.256 1_455 S
O4156 Zn4128 2.053 . S
O4156 C4134 1.244 1_455 S
C4157 O4135 1.259 . S
C4157 O4136 1.254 . S
O4158 Zn4128 2.066 . S
O4158 C4130 1.256 . S
O4159 C4130 1.244 1_554 S
O4159 Zn4131 2.053 1_554 S
Zn4160 O4161 2.055 . S
Zn4160 O4168 2.046 . S
Zn4160 N4176 2.036 . S
Zn4160 O4188 2.053 . S
Zn4160 O4190 2.066 . S
O4161 Zn4160 2.055 . S
O4161 C4164 1.259 . S
C4162 O4190 1.256 . S
C4162 O4191 1.244 . S
Zn4163 O4165 2.046 . S
Zn4163 O4167 2.055 . S
Zn4163 N4169 2.036 . S
Zn4163 O4187 2.066 . S
Zn4163 O4191 2.053 . S
C4164 O4161 1.259 . S
C4164 O4165 1.254 . S
O4165 Zn4163 2.046 . S
O4165 C4164 1.254 . S
C4166 O4187 1.256 . S
C4166 O4188 1.244 . S
O4167 Zn4163 2.055 . S
O4167 C4189 1.259 . S
O4168 Zn4160 2.046 . S
O4168 C4189 1.254 . S
N4169 Zn4163 2.036 . S
N4169 C4170 1.298 . S
N4169 N4172 1.398 . S
C4170 N4169 1.298 . S
C4170 N4173 1.367 . S
C4170 C4183 1.481 . S
C4171 N4172 1.299 . S
C4171 N4173 1.379 . S
N4172 N4169 1.398 . S
N4172 C4171 1.299 . S
N4173 C4170 1.367 . S
N4173 C4171 1.379 . S
C4174 N4176 1.298 . S
C4174 N4178 1.367 . S
C4174 C4182 1.481 . S
C4175 N4177 1.299 . S
C4175 N4178 1.379 . S
N4176 Zn4160 2.036 . S
N4176 C4174 1.298 . S
N4176 N4177 1.398 . S
N4177 C4175 1.299 . S
N4177 N4176 1.398 . S
N4178 C4174 1.367 . S
N4178 C4175 1.379 . S
H4179 C4182 0.980 . S
H4180 C4182 0.981 . S
H4181 C4182 0.981 . S
C4182 C4174 1.481 . S
C4182 H4179 0.980 . S
C4182 H4180 0.981 . S
C4182 H4181 0.981 . S
C4183 C4170 1.481 . S
C4183 H4184 0.980 . S
C4183 H4185 0.981 . S
C4183 H4186 0.981 . S
H4184 C4183 0.980 . S
H4185 C4183 0.981 . S
H4186 C4183 0.981 . S
O4187 Zn4163 2.066 . S
O4187 C4166 1.256 . S
O4188 Zn4160 2.053 . S
O4188 C4166 1.244 . S
C4189 O4167 1.259 . S
C4189 O4168 1.254 . S
O4190 Zn4160 2.066 . S
O4190 C4162 1.256 . S
O4191 C4162 1.244 . S
O4191 Zn4163 2.053 . S
Zn4192 O4193 2.055 . S
Zn4192 O4200 2.046 . S
Zn4192 N4208 2.036 . S
Zn4192 O4220 2.053 . S
Zn4192 O4222 2.066 . S
O4193 Zn4192 2.055 . S
O4193 C4196 1.259 . S
C4194 O4222 1.256 . S
C4194 O4223 1.244 . S
Zn4195 O4197 2.046 . S
Zn4195 O4199 2.055 . S
Zn4195 N4201 2.036 . S
Zn4195 O4219 2.066 . S
Zn4195 O4223 2.053 . S
C4196 O4193 1.259 . S
C4196 O4197 1.254 . S
O4197 Zn4195 2.046 . S
O4197 C4196 1.254 . S
C4198 O4219 1.256 . S
C4198 O4220 1.244 . S
O4199 Zn4195 2.055 . S
O4199 C4221 1.259 . S
O4200 Zn4192 2.046 . S
O4200 C4221 1.254 . S
N4201 Zn4195 2.036 . S
N4201 C4202 1.298 . S
N4201 N4204 1.398 . S
C4202 N4201 1.298 . S
C4202 N4205 1.367 . S
C4202 C4215 1.481 . S
C4203 N4204 1.299 . S
C4203 N4205 1.379 . S
N4204 N4201 1.398 . S
N4204 C4203 1.299 . S
N4205 C4202 1.367 . S
N4205 C4203 1.379 . S
C4206 N4208 1.298 . S
C4206 N4210 1.367 . S
C4206 C4214 1.481 . S
C4207 N4209 1.299 . S
C4207 N4210 1.379 . S
N4208 Zn4192 2.036 . S
N4208 C4206 1.298 . S
N4208 N4209 1.398 . S
N4209 C4207 1.299 . S
N4209 N4208 1.398 . S
N4210 C4206 1.367 . S
N4210 C4207 1.379 . S
H4211 C4214 0.980 . S
H4212 C4214 0.981 . S
H4213 C4214 0.981 . S
C4214 C4206 1.481 . S
C4214 H4211 0.980 . S
C4214 H4212 0.981 . S
C4214 H4213 0.981 . S
C4215 C4202 1.481 . S
C4215 H4216 0.980 . S
C4215 H4217 0.981 . S
C4215 H4218 0.981 . S
H4216 C4215 0.980 . S
H4217 C4215 0.981 . S
H4218 C4215 0.981 . S
O4219 Zn4195 2.066 . S
O4219 C4198 1.256 . S
O4220 Zn4192 2.053 . S
O4220 C4198 1.244 . S
C4221 O4199 1.259 . S
C4221 O4200 1.254 . S
O4222 Zn4192 2.066 . S
O4222 C4194 1.256 . S
O4223 C4194 1.244 . S
O4223 Zn4195 2.053 . S
Zn4224 O4225 2.055 . S
Zn4224 O4232 2.046 . S
Zn4224 N4240 2.036 . S
Zn4224 O4252 2.053 . S
Zn4224 O4254 2.066 . S
O4225 Zn4224 2.055 . S
O4225 C4228 1.259 . S
C4226 O4254 1.256 . S
C4226 O4255 1.244 . S
Zn4227 O4229 2.046 . S
Zn4227 O4231 2.055 . S
Zn4227 N4233 2.036 . S
Zn4227 O4251 2.066 . S
Zn4227 O4255 2.053 . S
C4228 O4225 1.259 . S
C4228 O4229 1.254 . S
O4229 Zn4227 2.046 . S
O4229 C4228 1.254 . S
C4230 O4251 1.256 . S
C4230 O4252 1.244 . S
O4231 Zn4227 2.055 . S
O4231 C4253 1.259 . S
O4232 Zn4224 2.046 . S
O4232 C4253 1.254 . S
N4233 Zn4227 2.036 . S
N4233 C4234 1.298 . S
N4233 N4236 1.398 . S
C4234 N4233 1.298 . S
C4234 N4237 1.367 . S
C4234 C4247 1.481 . S
C4235 N4236 1.299 . S
C4235 N4237 1.379 . S
N4236 N4233 1.398 . S
N4236 C4235 1.299 . S
N4237 C4234 1.367 . S
N4237 C4235 1.379 . S
C4238 N4240 1.298 . S
C4238 N4242 1.367 . S
C4238 C4246 1.481 . S
C4239 N4241 1.299 . S
C4239 N4242 1.379 . S
N4240 Zn4224 2.036 . S
N4240 C4238 1.298 . S
N4240 N4241 1.398 . S
N4241 C4239 1.299 . S
N4241 N4240 1.398 . S
N4242 C4238 1.367 . S
N4242 C4239 1.379 . S
H4243 C4246 0.980 . S
H4244 C4246 0.981 . S
H4245 C4246 0.981 . S
C4246 C4238 1.481 . S
C4246 H4243 0.980 . S
C4246 H4244 0.981 . S
C4246 H4245 0.981 . S
C4247 C4234 1.481 . S
C4247 H4248 0.980 . S
C4247 H4249 0.981 . S
C4247 H4250 0.981 . S
H4248 C4247 0.980 . S
H4249 C4247 0.981 . S
H4250 C4247 0.981 . S
O4251 Zn4227 2.066 . S
O4251 C4230 1.256 . S
O4252 Zn4224 2.053 . S
O4252 C4230 1.244 . S
C4253 O4231 1.259 . S
C4253 O4232 1.254 . S
O4254 Zn4224 2.066 . S
O4254 C4226 1.256 . S
O4255 C4226 1.244 . S
O4255 Zn4227 2.053 . S
Zn4256 O4257 2.055 . S
Zn4256 O4264 2.046 . S
Zn4256 N4272 2.036 . S
Zn4256 O4284 2.053 . S
Zn4256 O4286 2.066 . S
O4257 Zn4256 2.055 . S
O4257 C4260 1.259 . S
C4258 O4286 1.256 . S
C4258 O4287 1.244 . S
Zn4259 O4261 2.046 . S
Zn4259 O4263 2.055 . S
Zn4259 N4265 2.036 . S
Zn4259 O4283 2.066 . S
Zn4259 O4287 2.053 . S
C4260 O4257 1.259 . S
C4260 O4261 1.254 . S
O4261 Zn4259 2.046 . S
O4261 C4260 1.254 . S
C4262 O4283 1.256 . S
C4262 O4284 1.244 . S
O4263 Zn4259 2.055 . S
O4263 C4285 1.259 . S
O4264 Zn4256 2.046 . S
O4264 C4285 1.254 . S
N4265 Zn4259 2.036 . S
N4265 C4266 1.298 . S
N4265 N4268 1.398 . S
C4266 N4265 1.298 . S
C4266 N4269 1.367 . S
C4266 C4279 1.481 . S
C4267 N4268 1.299 . S
C4267 N4269 1.379 . S
N4268 N4265 1.398 . S
N4268 C4267 1.299 . S
N4269 C4266 1.367 . S
N4269 C4267 1.379 . S
C4270 N4272 1.298 . S
C4270 N4274 1.367 . S
C4270 C4278 1.481 . S
C4271 N4273 1.299 . S
C4271 N4274 1.379 . S
N4272 Zn4256 2.036 . S
N4272 C4270 1.298 . S
N4272 N4273 1.398 . S
N4273 C4271 1.299 . S
N4273 N4272 1.398 . S
N4274 C4270 1.367 . S
N4274 C4271 1.379 . S
H4275 C4278 0.980 . S
H4276 C4278 0.981 . S
H4277 C4278 0.981 . S
C4278 C4270 1.481 . S
C4278 H4275 0.980 . S
C4278 H4276 0.981 . S
C4278 H4277 0.981 . S
C4279 C4266 1.481 . S
C4279 H4280 0.980 . S
C4279 H4281 0.981 . S
C4279 H4282 0.981 . S
H4280 C4279 0.980 . S
H4281 C4279 0.981 . S
H4282 C4279 0.981 . S
O4283 Zn4259 2.066 . S
O4283 C4262 1.256 . S
O4284 Zn4256 2.053 . S
O4284 C4262 1.244 . S
C4285 O4263 1.259 . S
C4285 O4264 1.254 . S
O4286 Zn4256 2.066 . S
O4286 C4258 1.256 . S
O4287 C4258 1.244 . S
O4287 Zn4259 2.053 . S
Zn4288 O4289 2.055 . S
Zn4288 O4296 2.046 . S
Zn4288 N4304 2.036 . S
Zn4288 O4316 2.053 . S
Zn4288 O4318 2.066 . S
O4289 Zn4288 2.055 . S
O4289 C4292 1.259 . S
C4290 O4318 1.256 . S
C4290 O4319 1.244 1_554 S
Zn4291 O4293 2.046 . S
Zn4291 O4295 2.055 . S
Zn4291 N4297 2.036 1_554 S
Zn4291 O4315 2.066 . S
Zn4291 O4319 2.053 1_554 S
C4292 O4289 1.259 . S
C4292 O4293 1.254 . S
O4293 Zn4291 2.046 . S
O4293 C4292 1.254 . S
C4294 O4315 1.256 . S
C4294 O4316 1.244 . S
O4295 Zn4291 2.055 . S
O4295 C4317 1.259 . S
O4296 Zn4288 2.046 . S
O4296 C4317 1.254 . S
N4297 Zn4291 2.036 1_556 S
N4297 C4298 1.298 . S
N4297 N4300 1.398 . S
C4298 N4297 1.298 . S
C4298 N4301 1.367 . S
C4298 C4311 1.481 . S
C4299 N4300 1.299 . S
C4299 N4301 1.379 . S
N4300 N4297 1.398 . S
N4300 C4299 1.299 . S
N4301 C4298 1.367 . S
N4301 C4299 1.379 . S
C4302 N4304 1.298 . S
C4302 N4306 1.367 . S
C4302 C4310 1.481 . S
C4303 N4305 1.299 . S
C4303 N4306 1.379 . S
N4304 Zn4288 2.036 . S
N4304 C4302 1.298 . S
N4304 N4305 1.398 . S
N4305 C4303 1.299 . S
N4305 N4304 1.398 . S
N4306 C4302 1.367 . S
N4306 C4303 1.379 . S
H4307 C4310 0.980 . S
H4308 C4310 0.981 . S
H4309 C4310 0.981 . S
C4310 C4302 1.481 . S
C4310 H4307 0.980 . S
C4310 H4308 0.981 . S
C4310 H4309 0.981 . S
C4311 C4298 1.481 . S
C4311 H4312 0.980 . S
C4311 H4313 0.981 . S
C4311 H4314 0.981 . S
H4312 C4311 0.980 . S
H4313 C4311 0.981 . S
H4314 C4311 0.981 . S
O4315 Zn4291 2.066 . S
O4315 C4294 1.256 . S
O4316 Zn4288 2.053 . S
O4316 C4294 1.244 . S
C4317 O4295 1.259 . S
C4317 O4296 1.254 . S
O4318 Zn4288 2.066 . S
O4318 C4290 1.256 . S
O4319 C4290 1.244 1_556 S
O4319 Zn4291 2.053 1_556 S
Zn4320 O4321 2.055 . S
Zn4320 O4328 2.046 . S
Zn4320 N4336 2.036 . S
Zn4320 O4348 2.053 . S
Zn4320 O4350 2.066 . S
O4321 Zn4320 2.055 . S
O4321 C4324 1.259 . S
C4322 O4350 1.256 . S
C4322 O4351 1.244 . S
Zn4323 O4325 2.046 . S
Zn4323 O4327 2.055 . S
Zn4323 N4329 2.036 . S
Zn4323 O4347 2.066 . S
Zn4323 O4351 2.053 . S
C4324 O4321 1.259 . S
C4324 O4325 1.254 . S
O4325 Zn4323 2.046 . S
O4325 C4324 1.254 . S
C4326 O4347 1.256 . S
C4326 O4348 1.244 . S
O4327 Zn4323 2.055 . S
O4327 C4349 1.259 . S
O4328 Zn4320 2.046 . S
O4328 C4349 1.254 . S
N4329 Zn4323 2.036 . S
N4329 C4330 1.298 . S
N4329 N4332 1.398 . S
C4330 N4329 1.298 . S
C4330 N4333 1.367 . S
C4330 C4343 1.481 . S
C4331 N4332 1.299 . S
C4331 N4333 1.379 . S
N4332 N4329 1.398 . S
N4332 C4331 1.299 . S
N4333 C4330 1.367 . S
N4333 C4331 1.379 . S
C4334 N4336 1.298 . S
C4334 N4338 1.367 . S
C4334 C4342 1.481 . S
C4335 N4337 1.299 . S
C4335 N4338 1.379 . S
N4336 Zn4320 2.036 . S
N4336 C4334 1.298 . S
N4336 N4337 1.398 . S
N4337 C4335 1.299 . S
N4337 N4336 1.398 . S
N4338 C4334 1.367 . S
N4338 C4335 1.379 . S
H4339 C4342 0.980 . S
H4340 C4342 0.981 . S
H4341 C4342 0.981 . S
C4342 C4334 1.481 . S
C4342 H4339 0.980 . S
C4342 H4340 0.981 . S
C4342 H4341 0.981 . S
C4343 C4330 1.481 . S
C4343 H4344 0.980 . S
C4343 H4345 0.981 . S
C4343 H4346 0.981 . S
H4344 C4343 0.980 . S
H4345 C4343 0.981 . S
H4346 C4343 0.981 . S
O4347 Zn4323 2.066 . S
O4347 C4326 1.256 . S
O4348 Zn4320 2.053 . S
O4348 C4326 1.244 . S
C4349 O4327 1.259 . S
C4349 O4328 1.254 . S
O4350 Zn4320 2.066 . S
O4350 C4322 1.256 . S
O4351 C4322 1.244 . S
O4351 Zn4323 2.053 . S
Zn4352 O4353 2.055 . S
Zn4352 O4360 2.046 . S
Zn4352 N4368 2.036 . S
Zn4352 O4380 2.053 . S
Zn4352 O4382 2.066 . S
O4353 Zn4352 2.055 . S
O4353 C4356 1.259 . S
C4354 O4382 1.256 . S
C4354 O4383 1.244 . S
Zn4355 O4357 2.046 . S
Zn4355 O4359 2.055 . S
Zn4355 N4361 2.036 . S
Zn4355 O4379 2.066 . S
Zn4355 O4383 2.053 . S
C4356 O4353 1.259 . S
C4356 O4357 1.254 . S
O4357 Zn4355 2.046 . S
O4357 C4356 1.254 . S
C4358 O4379 1.256 . S
C4358 O4380 1.244 . S
O4359 Zn4355 2.055 . S
O4359 C4381 1.259 . S
O4360 Zn4352 2.046 . S
O4360 C4381 1.254 . S
N4361 Zn4355 2.036 . S
N4361 C4362 1.298 . S
N4361 N4364 1.398 . S
C4362 N4361 1.298 . S
C4362 N4365 1.367 . S
C4362 C4375 1.481 . S
C4363 N4364 1.299 . S
C4363 N4365 1.379 . S
N4364 N4361 1.398 . S
N4364 C4363 1.299 . S
N4365 C4362 1.367 . S
N4365 C4363 1.379 . S
C4366 N4368 1.298 . S
C4366 N4370 1.367 . S
C4366 C4374 1.481 . S
C4367 N4369 1.299 . S
C4367 N4370 1.379 . S
N4368 Zn4352 2.036 . S
N4368 C4366 1.298 . S
N4368 N4369 1.398 . S
N4369 C4367 1.299 . S
N4369 N4368 1.398 . S
N4370 C4366 1.367 . S
N4370 C4367 1.379 . S
H4371 C4374 0.980 . S
H4372 C4374 0.981 . S
H4373 C4374 0.981 . S
C4374 C4366 1.481 . S
C4374 H4371 0.980 . S
C4374 H4372 0.981 . S
C4374 H4373 0.981 . S
C4375 C4362 1.481 . S
C4375 H4376 0.980 . S
C4375 H4377 0.981 . S
C4375 H4378 0.981 . S
H4376 C4375 0.980 . S
H4377 C4375 0.981 . S
H4378 C4375 0.981 . S
O4379 Zn4355 2.066 . S
O4379 C4358 1.256 . S
O4380 Zn4352 2.053 . S
O4380 C4358 1.244 . S
C4381 O4359 1.259 . S
C4381 O4360 1.254 . S
O4382 Zn4352 2.066 . S
O4382 C4354 1.256 . S
O4383 C4354 1.244 . S
O4383 Zn4355 2.053 . S
Zn4384 O4385 2.055 . S
Zn4384 O4392 2.046 . S
Zn4384 N4400 2.036 . S
Zn4384 O4412 2.053 . S
Zn4384 O4414 2.066 . S
O4385 Zn4384 2.055 . S
O4385 C4388 1.259 . S
C4386 O4414 1.256 . S
C4386 O4415 1.244 . S
Zn4387 O4389 2.046 . S
Zn4387 O4391 2.055 . S
Zn4387 N4393 2.036 . S
Zn4387 O4411 2.066 . S
Zn4387 O4415 2.053 . S
C4388 O4385 1.259 . S
C4388 O4389 1.254 . S
O4389 Zn4387 2.046 . S
O4389 C4388 1.254 . S
C4390 O4411 1.256 . S
C4390 O4412 1.244 . S
O4391 Zn4387 2.055 . S
O4391 C4413 1.259 . S
O4392 Zn4384 2.046 . S
O4392 C4413 1.254 . S
N4393 Zn4387 2.036 . S
N4393 C4394 1.298 . S
N4393 N4396 1.398 . S
C4394 N4393 1.298 . S
C4394 N4397 1.367 . S
C4394 C4407 1.481 . S
C4395 N4396 1.299 . S
C4395 N4397 1.379 . S
N4396 N4393 1.398 . S
N4396 C4395 1.299 . S
N4397 C4394 1.367 . S
N4397 C4395 1.379 . S
C4398 N4400 1.298 . S
C4398 N4402 1.367 . S
C4398 C4406 1.481 . S
C4399 N4401 1.299 . S
C4399 N4402 1.379 . S
N4400 Zn4384 2.036 . S
N4400 C4398 1.298 . S
N4400 N4401 1.398 . S
N4401 C4399 1.299 . S
N4401 N4400 1.398 . S
N4402 C4398 1.367 . S
N4402 C4399 1.379 . S
H4403 C4406 0.980 . S
H4404 C4406 0.981 . S
H4405 C4406 0.981 . S
C4406 C4398 1.481 . S
C4406 H4403 0.980 . S
C4406 H4404 0.981 . S
C4406 H4405 0.981 . S
C4407 C4394 1.481 . S
C4407 H4408 0.980 . S
C4407 H4409 0.981 . S
C4407 H4410 0.981 . S
H4408 C4407 0.980 . S
H4409 C4407 0.981 . S
H4410 C4407 0.981 . S
O4411 Zn4387 2.066 . S
O4411 C4390 1.256 . S
O4412 Zn4384 2.053 . S
O4412 C4390 1.244 . S
C4413 O4391 1.259 . S
C4413 O4392 1.254 . S
O4414 Zn4384 2.066 . S
O4414 C4386 1.256 . S
O4415 C4386 1.244 . S
O4415 Zn4387 2.053 . S
Zn4416 O4417 2.055 . S
Zn4416 O4424 2.046 . S
Zn4416 N4432 2.036 1_565 S
Zn4416 O4444 2.053 1_565 S
Zn4416 O4446 2.066 . S
O4417 Zn4416 2.055 . S
O4417 C4420 1.259 . S
C4418 O4446 1.256 . S
C4418 O4447 1.244 . S
Zn4419 O4421 2.046 . S
Zn4419 O4423 2.055 . S
Zn4419 N4425 2.036 . S
Zn4419 O4443 2.066 . S
Zn4419 O4447 2.053 . S
C4420 O4417 1.259 . S
C4420 O4421 1.254 . S
O4421 Zn4419 2.046 . S
O4421 C4420 1.254 . S
C4422 O4443 1.256 . S
C4422 O4444 1.244 1_565 S
O4423 Zn4419 2.055 . S
O4423 C4445 1.259 . S
O4424 Zn4416 2.046 . S
O4424 C4445 1.254 . S
N4425 Zn4419 2.036 . S
N4425 C4426 1.298 . S
N4425 N4428 1.398 . S
C4426 N4425 1.298 . S
C4426 N4429 1.367 . S
C4426 C4439 1.481 . S
C4427 N4428 1.299 . S
C4427 N4429 1.379 . S
N4428 N4425 1.398 . S
N4428 C4427 1.299 . S
N4429 C4426 1.367 . S
N4429 C4427 1.379 . S
C4430 N4432 1.298 . S
C4430 N4434 1.367 . S
C4430 C4438 1.481 . S
C4431 N4433 1.299 . S
C4431 N4434 1.379 . S
N4432 Zn4416 2.036 1_545 S
N4432 C4430 1.298 . S
N4432 N4433 1.398 . S
N4433 C4431 1.299 . S
N4433 N4432 1.398 . S
N4434 C4430 1.367 . S
N4434 C4431 1.379 . S
H4435 C4438 0.980 . S
H4436 C4438 0.981 . S
H4437 C4438 0.981 . S
C4438 C4430 1.481 . S
C4438 H4435 0.980 . S
C4438 H4436 0.981 . S
C4438 H4437 0.981 . S
C4439 C4426 1.481 . S
C4439 H4440 0.980 . S
C4439 H4441 0.981 . S
C4439 H4442 0.981 . S
H4440 C4439 0.980 . S
H4441 C4439 0.981 . S
H4442 C4439 0.981 . S
O4443 Zn4419 2.066 . S
O4443 C4422 1.256 . S
O4444 Zn4416 2.053 1_545 S
O4444 C4422 1.244 1_545 S
C4445 O4423 1.259 . S
C4445 O4424 1.254 . S
O4446 Zn4416 2.066 . S
O4446 C4418 1.256 . S
O4447 C4418 1.244 . S
O4447 Zn4419 2.053 . S
Zn4448 O4449 2.055 . S
Zn4448 O4456 2.046 . S
Zn4448 N4464 2.036 . S
Zn4448 O4476 2.053 . S
Zn4448 O4478 2.066 . S
O4449 Zn4448 2.055 . S
O4449 C4452 1.259 . S
C4450 O4478 1.256 . S
C4450 O4479 1.244 1_455 S
Zn4451 O4453 2.046 . S
Zn4451 O4455 2.055 . S
Zn4451 N4457 2.036 1_455 S
Zn4451 O4475 2.066 . S
Zn4451 O4479 2.053 1_455 S
C4452 O4449 1.259 . S
C4452 O4453 1.254 . S
O4453 Zn4451 2.046 . S
O4453 C4452 1.254 . S
C4454 O4475 1.256 . S
C4454 O4476 1.244 . S
O4455 Zn4451 2.055 . S
O4455 C4477 1.259 . S
O4456 Zn4448 2.046 . S
O4456 C4477 1.254 . S
N4457 Zn4451 2.036 1_655 S
N4457 C4458 1.298 . S
N4457 N4460 1.398 . S
C4458 N4457 1.298 . S
C4458 N4461 1.367 . S
C4458 C4471 1.481 . S
C4459 N4460 1.299 . S
C4459 N4461 1.379 . S
N4460 N4457 1.398 . S
N4460 C4459 1.299 . S
N4461 C4458 1.367 . S
N4461 C4459 1.379 . S
C4462 N4464 1.298 . S
C4462 N4466 1.367 . S
C4462 C4470 1.481 . S
C4463 N4465 1.299 . S
C4463 N4466 1.379 . S
N4464 Zn4448 2.036 . S
N4464 C4462 1.298 . S
N4464 N4465 1.398 . S
N4465 C4463 1.299 . S
N4465 N4464 1.398 . S
N4466 C4462 1.367 . S
N4466 C4463 1.379 . S
H4467 C4470 0.980 . S
H4468 C4470 0.981 . S
H4469 C4470 0.981 . S
C4470 C4462 1.481 . S
C4470 H4467 0.980 . S
C4470 H4468 0.981 . S
C4470 H4469 0.981 . S
C4471 C4458 1.481 . S
C4471 H4472 0.980 . S
C4471 H4473 0.981 . S
C4471 H4474 0.981 . S
H4472 C4471 0.980 . S
H4473 C4471 0.981 . S
H4474 C4471 0.981 . S
O4475 Zn4451 2.066 . S
O4475 C4454 1.256 . S
O4476 Zn4448 2.053 . S
O4476 C4454 1.244 . S
C4477 O4455 1.259 . S
C4477 O4456 1.254 . S
O4478 Zn4448 2.066 . S
O4478 C4450 1.256 . S
O4479 C4450 1.244 1_655 S
O4479 Zn4451 2.053 1_655 S
Zn4480 O4481 2.055 . S
Zn4480 O4488 2.046 . S
Zn4480 N4496 2.036 . S
Zn4480 O4508 2.053 . S
Zn4480 O4510 2.066 . S
O4481 Zn4480 2.055 . S
O4481 C4484 1.259 . S
C4482 O4510 1.256 1_556 S
C4482 O4511 1.244 1_556 S
Zn4483 O4485 2.046 . S
Zn4483 O4487 2.055 . S
Zn4483 N4489 2.036 . S
Zn4483 O4507 2.066 . S
Zn4483 O4511 2.053 . S
C4484 O4481 1.259 . S
C4484 O4485 1.254 . S
O4485 Zn4483 2.046 . S
O4485 C4484 1.254 . S
C4486 O4507 1.256 . S
C4486 O4508 1.244 . S
O4487 Zn4483 2.055 . S
O4487 C4509 1.259 . S
O4488 Zn4480 2.046 . S
O4488 C4509 1.254 . S
N4489 Zn4483 2.036 . S
N4489 C4490 1.298 . S
N4489 N4492 1.398 . S
C4490 N4489 1.298 . S
C4490 N4493 1.367 . S
C4490 C4503 1.481 . S
C4491 N4492 1.299 . S
C4491 N4493 1.379 . S
N4492 N4489 1.398 . S
N4492 C4491 1.299 . S
N4493 C4490 1.367 . S
N4493 C4491 1.379 . S
C4494 N4496 1.298 . S
C4494 N4498 1.367 . S
C4494 C4502 1.481 1_554 S
C4495 N4497 1.299 . S
C4495 N4498 1.379 . S
N4496 Zn4480 2.036 . S
N4496 C4494 1.298 . S
N4496 N4497 1.398 . S
N4497 C4495 1.299 . S
N4497 N4496 1.398 . S
N4498 C4494 1.367 . S
N4498 C4495 1.379 . S
H4499 C4502 0.980 1_554 S
H4500 C4502 0.981 . S
H4501 C4502 0.981 . S
C4502 C4494 1.481 1_556 S
C4502 H4499 0.980 1_556 S
C4502 H4500 0.981 . S
C4502 H4501 0.981 . S
C4503 C4490 1.481 . S
C4503 H4504 0.980 . S
C4503 H4505 0.981 . S
C4503 H4506 0.981 . S
H4504 C4503 0.980 . S
H4505 C4503 0.981 . S
H4506 C4503 0.981 . S
O4507 Zn4483 2.066 . S
O4507 C4486 1.256 . S
O4508 Zn4480 2.053 . S
O4508 C4486 1.244 . S
C4509 O4487 1.259 . S
C4509 O4488 1.254 . S
O4510 Zn4480 2.066 . S
O4510 C4482 1.256 1_554 S
O4511 C4482 1.244 1_554 S
O4511 Zn4483 2.053 . S
Zn4512 O4513 2.055 . S
Zn4512 O4520 2.046 . S
Zn4512 N4528 2.036 . S
Zn4512 O4540 2.053 . S
Zn4512 O4542 2.066 . S
O4513 Zn4512 2.055 . S
O4513 C4516 1.259 . S
C4514 O4542 1.256 . S
C4514 O4543 1.244 . S
Zn4515 O4517 2.046 . S
Zn4515 O4519 2.055 . S
Zn4515 N4521 2.036 . S
Zn4515 O4539 2.066 . S
Zn4515 O4543 2.053 . S
C4516 O4513 1.259 . S
C4516 O4517 1.254 . S
O4517 Zn4515 2.046 . S
O4517 C4516 1.254 . S
C4518 O4539 1.256 . S
C4518 O4540 1.244 . S
O4519 Zn4515 2.055 . S
O4519 C4541 1.259 . S
O4520 Zn4512 2.046 . S
O4520 C4541 1.254 . S
N4521 Zn4515 2.036 . S
N4521 C4522 1.298 . S
N4521 N4524 1.398 . S
C4522 N4521 1.298 . S
C4522 N4525 1.367 . S
C4522 C4535 1.481 . S
C4523 N4524 1.299 . S
C4523 N4525 1.379 . S
N4524 N4521 1.398 . S
N4524 C4523 1.299 . S
N4525 C4522 1.367 . S
N4525 C4523 1.379 . S
C4526 N4528 1.298 . S
C4526 N4530 1.367 . S
C4526 C4534 1.481 . S
C4527 N4529 1.299 . S
C4527 N4530 1.379 . S
N4528 Zn4512 2.036 . S
N4528 C4526 1.298 . S
N4528 N4529 1.398 . S
N4529 C4527 1.299 . S
N4529 N4528 1.398 . S
N4530 C4526 1.367 . S
N4530 C4527 1.379 . S
H4531 C4534 0.980 . S
H4532 C4534 0.981 . S
H4533 C4534 0.981 . S
C4534 C4526 1.481 . S
C4534 H4531 0.980 . S
C4534 H4532 0.981 . S
C4534 H4533 0.981 . S
C4535 C4522 1.481 . S
C4535 H4536 0.980 . S
C4535 H4537 0.981 . S
C4535 H4538 0.981 . S
H4536 C4535 0.980 . S
H4537 C4535 0.981 . S
H4538 C4535 0.981 . S
O4539 Zn4515 2.066 . S
O4539 C4518 1.256 . S
O4540 Zn4512 2.053 . S
O4540 C4518 1.244 . S
C4541 O4519 1.259 . S
C4541 O4520 1.254 . S
O4542 Zn4512 2.066 . S
O4542 C4514 1.256 . S
O4543 C4514 1.244 . S
O4543 Zn4515 2.053 . S
Zn4544 O4545 2.055 . S
Zn4544 O4552 2.046 . S
Zn4544 N4560 2.036 . S
Zn4544 O4572 2.053 . S
Zn4544 O4574 2.066 . S
O4545 Zn4544 2.055 . S
O4545 C4548 1.259 . S
C4546 O4574 1.256 . S
C4546 O4575 1.244 . S
Zn4547 O4549 2.046 . S
Zn4547 O4551 2.055 . S
Zn4547 N4553 2.036 . S
Zn4547 O4571 2.066 . S
Zn4547 O4575 2.053 . S
C4548 O4545 1.259 . S
C4548 O4549 1.254 . S
O4549 Zn4547 2.046 . S
O4549 C4548 1.254 . S
C4550 O4571 1.256 . S
C4550 O4572 1.244 . S
O4551 Zn4547 2.055 . S
O4551 C4573 1.259 . S
O4552 Zn4544 2.046 . S
O4552 C4573 1.254 . S
N4553 Zn4547 2.036 . S
N4553 C4554 1.298 . S
N4553 N4556 1.398 . S
C4554 N4553 1.298 . S
C4554 N4557 1.367 . S
C4554 C4567 1.481 . S
C4555 N4556 1.299 . S
C4555 N4557 1.379 . S
N4556 N4553 1.398 . S
N4556 C4555 1.299 . S
N4557 C4554 1.367 . S
N4557 C4555 1.379 . S
C4558 N4560 1.298 . S
C4558 N4562 1.367 . S
C4558 C4566 1.481 . S
C4559 N4561 1.299 . S
C4559 N4562 1.379 . S
N4560 Zn4544 2.036 . S
N4560 C4558 1.298 . S
N4560 N4561 1.398 . S
N4561 C4559 1.299 . S
N4561 N4560 1.398 . S
N4562 C4558 1.367 . S
N4562 C4559 1.379 . S
H4563 C4566 0.980 . S
H4564 C4566 0.981 . S
H4565 C4566 0.981 . S
C4566 C4558 1.481 . S
C4566 H4563 0.980 . S
C4566 H4564 0.981 . S
C4566 H4565 0.981 . S
C4567 C4554 1.481 . S
C4567 H4568 0.980 . S
C4567 H4569 0.981 . S
C4567 H4570 0.981 . S
H4568 C4567 0.980 . S
H4569 C4567 0.981 . S
H4570 C4567 0.981 . S
O4571 Zn4547 2.066 . S
O4571 C4550 1.256 . S
O4572 Zn4544 2.053 . S
O4572 C4550 1.244 . S
C4573 O4551 1.259 . S
C4573 O4552 1.254 . S
O4574 Zn4544 2.066 . S
O4574 C4546 1.256 . S
O4575 C4546 1.244 . S
O4575 Zn4547 2.053 . S
Zn4576 O4577 2.055 . S
Zn4576 O4584 2.046 . S
Zn4576 N4592 2.036 . S
Zn4576 O4604 2.053 . S
Zn4576 O4606 2.066 . S
O4577 Zn4576 2.055 . S
O4577 C4580 1.259 . S
C4578 O4606 1.256 . S
C4578 O4607 1.244 1_565 S
Zn4579 O4581 2.046 . S
Zn4579 O4583 2.055 . S
Zn4579 N4585 2.036 1_565 S
Zn4579 O4603 2.066 . S
Zn4579 O4607 2.053 1_565 S
C4580 O4577 1.259 . S
C4580 O4581 1.254 . S
O4581 Zn4579 2.046 . S
O4581 C4580 1.254 . S
C4582 O4603 1.256 . S
C4582 O4604 1.244 . S
O4583 Zn4579 2.055 . S
O4583 C4605 1.259 . S
O4584 Zn4576 2.046 . S
O4584 C4605 1.254 . S
N4585 Zn4579 2.036 1_545 S
N4585 C4586 1.298 . S
N4585 N4588 1.398 . S
C4586 N4585 1.298 . S
C4586 N4589 1.367 . S
C4586 C4599 1.481 . S
C4587 N4588 1.299 . S
C4587 N4589 1.379 . S
N4588 N4585 1.398 . S
N4588 C4587 1.299 . S
N4589 C4586 1.367 . S
N4589 C4587 1.379 . S
C4590 N4592 1.298 . S
C4590 N4594 1.367 . S
C4590 C4598 1.481 . S
C4591 N4593 1.299 . S
C4591 N4594 1.379 . S
N4592 Zn4576 2.036 . S
N4592 C4590 1.298 . S
N4592 N4593 1.398 . S
N4593 C4591 1.299 . S
N4593 N4592 1.398 . S
N4594 C4590 1.367 . S
N4594 C4591 1.379 . S
H4595 C4598 0.980 . S
H4596 C4598 0.981 . S
H4597 C4598 0.981 . S
C4598 C4590 1.481 . S
C4598 H4595 0.980 . S
C4598 H4596 0.981 . S
C4598 H4597 0.981 . S
C4599 C4586 1.481 . S
C4599 H4600 0.980 . S
C4599 H4601 0.981 . S
C4599 H4602 0.981 . S
H4600 C4599 0.980 . S
H4601 C4599 0.981 . S
H4602 C4599 0.981 . S
O4603 Zn4579 2.066 . S
O4603 C4582 1.256 . S
O4604 Zn4576 2.053 . S
O4604 C4582 1.244 . S
C4605 O4583 1.259 . S
C4605 O4584 1.254 . S
O4606 Zn4576 2.066 . S
O4606 C4578 1.256 . S
O4607 C4578 1.244 1_545 S
O4607 Zn4579 2.053 1_545 S
Zn4608 O4609 2.055 . S
Zn4608 O4616 2.046 . S
Zn4608 N4624 2.036 . S
Zn4608 O4636 2.053 . S
Zn4608 O4638 2.066 . S
O4609 Zn4608 2.055 . S
O4609 C4612 1.259 . S
C4610 O4638 1.256 . S
C4610 O4639 1.244 . S
Zn4611 O4613 2.046 . S
Zn4611 O4615 2.055 . S
Zn4611 N4617 2.036 . S
Zn4611 O4635 2.066 . S
Zn4611 O4639 2.053 . S
C4612 O4609 1.259 . S
C4612 O4613 1.254 . S
O4613 Zn4611 2.046 . S
O4613 C4612 1.254 . S
C4614 O4635 1.256 . S
C4614 O4636 1.244 . S
O4615 Zn4611 2.055 . S
O4615 C4637 1.259 . S
O4616 Zn4608 2.046 . S
O4616 C4637 1.254 . S
N4617 Zn4611 2.036 . S
N4617 C4618 1.298 . S
N4617 N4620 1.398 . S
C4618 N4617 1.298 . S
C4618 N4621 1.367 . S
C4618 C4631 1.481 . S
C4619 N4620 1.299 . S
C4619 N4621 1.379 . S
N4620 N4617 1.398 . S
N4620 C4619 1.299 . S
N4621 C4618 1.367 . S
N4621 C4619 1.379 . S
C4622 N4624 1.298 . S
C4622 N4626 1.367 . S
C4622 C4630 1.481 . S
C4623 N4625 1.299 . S
C4623 N4626 1.379 . S
N4624 Zn4608 2.036 . S
N4624 C4622 1.298 . S
N4624 N4625 1.398 . S
N4625 C4623 1.299 . S
N4625 N4624 1.398 . S
N4626 C4622 1.367 . S
N4626 C4623 1.379 . S
H4627 C4630 0.980 . S
H4628 C4630 0.981 . S
H4629 C4630 0.981 . S
C4630 C4622 1.481 . S
C4630 H4627 0.980 . S
C4630 H4628 0.981 . S
C4630 H4629 0.981 . S
C4631 C4618 1.481 . S
C4631 H4632 0.980 . S
C4631 H4633 0.981 . S
C4631 H4634 0.981 . S
H4632 C4631 0.980 . S
H4633 C4631 0.981 . S
H4634 C4631 0.981 . S
O4635 Zn4611 2.066 . S
O4635 C4614 1.256 . S
O4636 Zn4608 2.053 . S
O4636 C4614 1.244 . S
C4637 O4615 1.259 . S
C4637 O4616 1.254 . S
O4638 Zn4608 2.066 . S
O4638 C4610 1.256 . S
O4639 C4610 1.244 . S
O4639 Zn4611 2.053 . S
Zn4640 O4641 2.055 . S
Zn4640 O4648 2.046 . S
Zn4640 N4656 2.036 . S
Zn4640 O4668 2.053 . S
Zn4640 O4670 2.066 . S
O4641 Zn4640 2.055 . S
O4641 C4644 1.259 . S
C4642 O4670 1.256 . S
C4642 O4671 1.244 . S
Zn4643 O4645 2.046 . S
Zn4643 O4647 2.055 . S
Zn4643 N4649 2.036 . S
Zn4643 O4667 2.066 . S
Zn4643 O4671 2.053 . S
C4644 O4641 1.259 . S
C4644 O4645 1.254 . S
O4645 Zn4643 2.046 . S
O4645 C4644 1.254 . S
C4646 O4667 1.256 . S
C4646 O4668 1.244 . S
O4647 Zn4643 2.055 . S
O4647 C4669 1.259 . S
O4648 Zn4640 2.046 . S
O4648 C4669 1.254 . S
N4649 Zn4643 2.036 . S
N4649 C4650 1.298 . S
N4649 N4652 1.398 . S
C4650 N4649 1.298 . S
C4650 N4653 1.367 . S
C4650 C4663 1.481 . S
C4651 N4652 1.299 . S
C4651 N4653 1.379 . S
N4652 N4649 1.398 . S
N4652 C4651 1.299 . S
N4653 C4650 1.367 . S
N4653 C4651 1.379 . S
C4654 N4656 1.298 . S
C4654 N4658 1.367 . S
C4654 C4662 1.481 . S
C4655 N4657 1.299 . S
C4655 N4658 1.379 . S
N4656 Zn4640 2.036 . S
N4656 C4654 1.298 . S
N4656 N4657 1.398 . S
N4657 C4655 1.299 . S
N4657 N4656 1.398 . S
N4658 C4654 1.367 . S
N4658 C4655 1.379 . S
H4659 C4662 0.980 . S
H4660 C4662 0.981 . S
H4661 C4662 0.981 . S
C4662 C4654 1.481 . S
C4662 H4659 0.980 . S
C4662 H4660 0.981 . S
C4662 H4661 0.981 . S
C4663 C4650 1.481 . S
C4663 H4664 0.980 . S
C4663 H4665 0.981 . S
C4663 H4666 0.981 . S
H4664 C4663 0.980 . S
H4665 C4663 0.981 . S
H4666 C4663 0.981 . S
O4667 Zn4643 2.066 . S
O4667 C4646 1.256 . S
O4668 Zn4640 2.053 . S
O4668 C4646 1.244 . S
C4669 O4647 1.259 . S
C4669 O4648 1.254 . S
O4670 Zn4640 2.066 . S
O4670 C4642 1.256 . S
O4671 C4642 1.244 . S
O4671 Zn4643 2.053 . S
Zn4672 O4673 2.055 . S
Zn4672 O4680 2.046 . S
Zn4672 N4688 2.036 1_565 S
Zn4672 O4700 2.053 . S
Zn4672 O4702 2.066 1_565 S
O4673 Zn4672 2.055 . S
O4673 C4676 1.259 . S
C4674 O4702 1.256 1_565 S
C4674 O4703 1.244 . S
Zn4675 O4677 2.046 . S
Zn4675 O4679 2.055 . S
Zn4675 N4681 2.036 . S
Zn4675 O4699 2.066 . S
Zn4675 O4703 2.053 . S
C4676 O4673 1.259 . S
C4676 O4677 1.254 . S
O4677 Zn4675 2.046 . S
O4677 C4676 1.254 . S
C4678 O4699 1.256 . S
C4678 O4700 1.244 . S
O4679 Zn4675 2.055 . S
O4679 C4701 1.259 . S
O4680 Zn4672 2.046 . S
O4680 C4701 1.254 . S
N4681 Zn4675 2.036 . S
N4681 C4682 1.298 . S
N4681 N4684 1.398 . S
C4682 N4681 1.298 . S
C4682 N4685 1.367 . S
C4682 C4695 1.481 . S
C4683 N4684 1.299 . S
C4683 N4685 1.379 . S
N4684 N4681 1.398 . S
N4684 C4683 1.299 . S
N4685 C4682 1.367 . S
N4685 C4683 1.379 . S
C4686 N4688 1.298 . S
C4686 N4690 1.367 . S
C4686 C4694 1.481 . S
C4687 N4689 1.299 . S
C4687 N4690 1.379 . S
N4688 Zn4672 2.036 1_545 S
N4688 C4686 1.298 . S
N4688 N4689 1.398 . S
N4689 C4687 1.299 . S
N4689 N4688 1.398 . S
N4690 C4686 1.367 . S
N4690 C4687 1.379 . S
H4691 C4694 0.980 . S
H4692 C4694 0.981 . S
H4693 C4694 0.981 . S
C4694 C4686 1.481 . S
C4694 H4691 0.980 . S
C4694 H4692 0.981 . S
C4694 H4693 0.981 . S
C4695 C4682 1.481 . S
C4695 H4696 0.980 . S
C4695 H4697 0.981 . S
C4695 H4698 0.981 . S
H4696 C4695 0.980 . S
H4697 C4695 0.981 . S
H4698 C4695 0.981 . S
O4699 Zn4675 2.066 . S
O4699 C4678 1.256 . S
O4700 Zn4672 2.053 . S
O4700 C4678 1.244 . S
C4701 O4679 1.259 . S
C4701 O4680 1.254 . S
O4702 Zn4672 2.066 1_545 S
O4702 C4674 1.256 1_545 S
O4703 C4674 1.244 . S
O4703 Zn4675 2.053 . S
Zn4704 O4705 2.055 . S
Zn4704 O4712 2.046 . S
Zn4704 N4720 2.036 . S
Zn4704 O4732 2.053 . S
Zn4704 O4734 2.066 . S
O4705 Zn4704 2.055 . S
O4705 C4708 1.259 . S
C4706 O4734 1.256 . S
C4706 O4735 1.244 . S
Zn4707 O4709 2.046 . S
Zn4707 O4711 2.055 . S
Zn4707 N4713 2.036 . S
Zn4707 O4731 2.066 . S
Zn4707 O4735 2.053 . S
C4708 O4705 1.259 . S
C4708 O4709 1.254 . S
O4709 Zn4707 2.046 . S
O4709 C4708 1.254 . S
C4710 O4731 1.256 1_545 S
C4710 O4732 1.244 1_545 S
O4711 Zn4707 2.055 . S
O4711 C4733 1.259 . S
O4712 Zn4704 2.046 . S
O4712 C4733 1.254 . S
N4713 Zn4707 2.036 . S
N4713 C4714 1.298 . S
N4713 N4716 1.398 . S
C4714 N4713 1.298 . S
C4714 N4717 1.367 . S
C4714 C4727 1.481 . S
C4715 N4716 1.299 . S
C4715 N4717 1.379 . S
N4716 N4713 1.398 . S
N4716 C4715 1.299 . S
N4717 C4714 1.367 . S
N4717 C4715 1.379 . S
C4718 N4720 1.298 . S
C4718 N4722 1.367 . S
C4718 C4726 1.481 . S
C4719 N4721 1.299 . S
C4719 N4722 1.379 1_545 S
N4720 Zn4704 2.036 . S
N4720 C4718 1.298 . S
N4720 N4721 1.398 1_565 S
N4721 C4719 1.299 . S
N4721 N4720 1.398 1_545 S
N4722 C4718 1.367 . S
N4722 C4719 1.379 1_565 S
H4723 C4726 0.980 . S
H4724 C4726 0.981 . S
H4725 C4726 0.981 . S
C4726 C4718 1.481 . S
C4726 H4723 0.980 . S
C4726 H4724 0.981 . S
C4726 H4725 0.981 . S
C4727 C4714 1.481 . S
C4727 H4728 0.980 . S
C4727 H4729 0.981 . S
C4727 H4730 0.981 . S
H4728 C4727 0.980 . S
H4729 C4727 0.981 . S
H4730 C4727 0.981 . S
O4731 Zn4707 2.066 . S
O4731 C4710 1.256 1_565 S
O4732 Zn4704 2.053 . S
O4732 C4710 1.244 1_565 S
C4733 O4711 1.259 . S
C4733 O4712 1.254 . S
O4734 Zn4704 2.066 . S
O4734 C4706 1.256 . S
O4735 C4706 1.244 . S
O4735 Zn4707 2.053 . S
Zn4736 O4737 2.055 . S
Zn4736 O4744 2.046 . S
Zn4736 N4752 2.036 . S
Zn4736 O4764 2.053 . S
Zn4736 O4766 2.066 . S
O4737 Zn4736 2.055 . S
O4737 C4740 1.259 . S
C4738 O4766 1.256 . S
C4738 O4767 1.244 . S
Zn4739 O4741 2.046 . S
Zn4739 O4743 2.055 . S
Zn4739 N4745 2.036 . S
Zn4739 O4763 2.066 . S
Zn4739 O4767 2.053 . S
C4740 O4737 1.259 . S
C4740 O4741 1.254 . S
O4741 Zn4739 2.046 . S
O4741 C4740 1.254 . S
C4742 O4763 1.256 . S
C4742 O4764 1.244 . S
O4743 Zn4739 2.055 . S
O4743 C4765 1.259 . S
O4744 Zn4736 2.046 . S
O4744 C4765 1.254 . S
N4745 Zn4739 2.036 . S
N4745 C4746 1.298 . S
N4745 N4748 1.398 . S
C4746 N4745 1.298 . S
C4746 N4749 1.367 . S
C4746 C4759 1.481 . S
C4747 N4748 1.299 . S
C4747 N4749 1.379 . S
N4748 N4745 1.398 . S
N4748 C4747 1.299 . S
N4749 C4746 1.367 . S
N4749 C4747 1.379 . S
C4750 N4752 1.298 . S
C4750 N4754 1.367 . S
C4750 C4758 1.481 . S
C4751 N4753 1.299 . S
C4751 N4754 1.379 . S
N4752 Zn4736 2.036 . S
N4752 C4750 1.298 . S
N4752 N4753 1.398 . S
N4753 C4751 1.299 . S
N4753 N4752 1.398 . S
N4754 C4750 1.367 . S
N4754 C4751 1.379 . S
H4755 C4758 0.980 . S
H4756 C4758 0.981 . S
H4757 C4758 0.981 . S
C4758 C4750 1.481 . S
C4758 H4755 0.980 . S
C4758 H4756 0.981 . S
C4758 H4757 0.981 . S
C4759 C4746 1.481 . S
C4759 H4760 0.980 . S
C4759 H4761 0.981 . S
C4759 H4762 0.981 . S
H4760 C4759 0.980 . S
H4761 C4759 0.981 . S
H4762 C4759 0.981 . S
O4763 Zn4739 2.066 . S
O4763 C4742 1.256 . S
O4764 Zn4736 2.053 . S
O4764 C4742 1.244 . S
C4765 O4743 1.259 . S
C4765 O4744 1.254 . S
O4766 Zn4736 2.066 . S
O4766 C4738 1.256 . S
O4767 C4738 1.244 . S
O4767 Zn4739 2.053 . S
Zn4768 O4769 2.055 . S
Zn4768 O4776 2.046 . S
Zn4768 N4784 2.036 . S
Zn4768 O4796 2.053 . S
Zn4768 O4798 2.066 . S
O4769 Zn4768 2.055 . S
O4769 C4772 1.259 . S
C4770 O4798 1.256 . S
C4770 O4799 1.244 . S
Zn4771 O4773 2.046 . S
Zn4771 O4775 2.055 . S
Zn4771 N4777 2.036 1_455 S
Zn4771 O4795 2.066 1_455 S
Zn4771 O4799 2.053 . S
C4772 O4769 1.259 . S
C4772 O4773 1.254 . S
O4773 Zn4771 2.046 . S
O4773 C4772 1.254 . S
C4774 O4795 1.256 1_455 S
C4774 O4796 1.244 . S
O4775 Zn4771 2.055 . S
O4775 C4797 1.259 . S
O4776 Zn4768 2.046 . S
O4776 C4797 1.254 . S
N4777 Zn4771 2.036 1_655 S
N4777 C4778 1.298 . S
N4777 N4780 1.398 . S
C4778 N4777 1.298 . S
C4778 N4781 1.367 . S
C4778 C4791 1.481 . S
C4779 N4780 1.299 . S
C4779 N4781 1.379 . S
N4780 N4777 1.398 . S
N4780 C4779 1.299 . S
N4781 C4778 1.367 . S
N4781 C4779 1.379 . S
C4782 N4784 1.298 . S
C4782 N4786 1.367 . S
C4782 C4790 1.481 . S
C4783 N4785 1.299 . S
C4783 N4786 1.379 . S
N4784 Zn4768 2.036 . S
N4784 C4782 1.298 . S
N4784 N4785 1.398 . S
N4785 C4783 1.299 . S
N4785 N4784 1.398 . S
N4786 C4782 1.367 . S
N4786 C4783 1.379 . S
H4787 C4790 0.980 . S
H4788 C4790 0.981 . S
H4789 C4790 0.981 . S
C4790 C4782 1.481 . S
C4790 H4787 0.980 . S
C4790 H4788 0.981 . S
C4790 H4789 0.981 . S
C4791 C4778 1.481 . S
C4791 H4792 0.980 . S
C4791 H4793 0.981 . S
C4791 H4794 0.981 . S
H4792 C4791 0.980 . S
H4793 C4791 0.981 . S
H4794 C4791 0.981 . S
O4795 Zn4771 2.066 1_655 S
O4795 C4774 1.256 1_655 S
O4796 Zn4768 2.053 . S
O4796 C4774 1.244 . S
C4797 O4775 1.259 . S
C4797 O4776 1.254 . S
O4798 Zn4768 2.066 . S
O4798 C4770 1.256 . S
O4799 C4770 1.244 . S
O4799 Zn4771 2.053 . S
Zn4800 O4801 2.055 . S
Zn4800 O4808 2.046 . S
Zn4800 N4816 2.036 . S
Zn4800 O4828 2.053 . S
Zn4800 O4830 2.066 . S
O4801 Zn4800 2.055 . S
O4801 C4804 1.259 . S
C4802 O4830 1.256 . S
C4802 O4831 1.244 . S
Zn4803 O4805 2.046 . S
Zn4803 O4807 2.055 . S
Zn4803 N4809 2.036 . S
Zn4803 O4827 2.066 . S
Zn4803 O4831 2.053 . S
C4804 O4801 1.259 . S
C4804 O4805 1.254 . S
O4805 Zn4803 2.046 . S
O4805 C4804 1.254 . S
C4806 O4827 1.256 . S
C4806 O4828 1.244 . S
O4807 Zn4803 2.055 . S
O4807 C4829 1.259 . S
O4808 Zn4800 2.046 . S
O4808 C4829 1.254 . S
N4809 Zn4803 2.036 . S
N4809 C4810 1.298 . S
N4809 N4812 1.398 . S
C4810 N4809 1.298 . S
C4810 N4813 1.367 . S
C4810 C4823 1.481 . S
C4811 N4812 1.299 . S
C4811 N4813 1.379 . S
N4812 N4809 1.398 . S
N4812 C4811 1.299 . S
N4813 C4810 1.367 . S
N4813 C4811 1.379 . S
C4814 N4816 1.298 . S
C4814 N4818 1.367 . S
C4814 C4822 1.481 . S
C4815 N4817 1.299 . S
C4815 N4818 1.379 . S
N4816 Zn4800 2.036 . S
N4816 C4814 1.298 . S
N4816 N4817 1.398 . S
N4817 C4815 1.299 . S
N4817 N4816 1.398 . S
N4818 C4814 1.367 . S
N4818 C4815 1.379 . S
H4819 C4822 0.980 . S
H4820 C4822 0.981 . S
H4821 C4822 0.981 . S
C4822 C4814 1.481 . S
C4822 H4819 0.980 . S
C4822 H4820 0.981 . S
C4822 H4821 0.981 . S
C4823 C4810 1.481 . S
C4823 H4824 0.980 . S
C4823 H4825 0.981 . S
C4823 H4826 0.981 . S
H4824 C4823 0.980 . S
H4825 C4823 0.981 . S
H4826 C4823 0.981 . S
O4827 Zn4803 2.066 . S
O4827 C4806 1.256 . S
O4828 Zn4800 2.053 . S
O4828 C4806 1.244 . S
C4829 O4807 1.259 . S
C4829 O4808 1.254 . S
O4830 Zn4800 2.066 . S
O4830 C4802 1.256 . S
O4831 C4802 1.244 . S
O4831 Zn4803 2.053 . S
Zn4832 O4833 2.055 . S
Zn4832 O4840 2.046 . S
Zn4832 N4848 2.036 . S
Zn4832 O4860 2.053 . S
Zn4832 O4862 2.066 . S
O4833 Zn4832 2.055 . S
O4833 C4836 1.259 . S
C4834 O4862 1.256 . S
C4834 O4863 1.244 . S
Zn4835 O4837 2.046 . S
Zn4835 O4839 2.055 . S
Zn4835 N4841 2.036 . S
Zn4835 O4859 2.066 . S
Zn4835 O4863 2.053 . S
C4836 O4833 1.259 . S
C4836 O4837 1.254 . S
O4837 Zn4835 2.046 . S
O4837 C4836 1.254 . S
C4838 O4859 1.256 1_545 S
C4838 O4860 1.244 1_545 S
O4839 Zn4835 2.055 . S
O4839 C4861 1.259 . S
O4840 Zn4832 2.046 . S
O4840 C4861 1.254 . S
N4841 Zn4835 2.036 . S
N4841 C4842 1.298 . S
N4841 N4844 1.398 . S
C4842 N4841 1.298 . S
C4842 N4845 1.367 . S
C4842 C4855 1.481 . S
C4843 N4844 1.299 . S
C4843 N4845 1.379 . S
N4844 N4841 1.398 . S
N4844 C4843 1.299 . S
N4845 C4842 1.367 . S
N4845 C4843 1.379 . S
C4846 N4848 1.298 . S
C4846 N4850 1.367 . S
C4846 C4854 1.481 . S
C4847 N4849 1.299 . S
C4847 N4850 1.379 1_545 S
N4848 Zn4832 2.036 . S
N4848 C4846 1.298 . S
N4848 N4849 1.398 1_565 S
N4849 C4847 1.299 . S
N4849 N4848 1.398 1_545 S
N4850 C4846 1.367 . S
N4850 C4847 1.379 1_565 S
H4851 C4854 0.980 . S
H4852 C4854 0.981 . S
H4853 C4854 0.981 . S
C4854 C4846 1.481 . S
C4854 H4851 0.980 . S
C4854 H4852 0.981 . S
C4854 H4853 0.981 . S
C4855 C4842 1.481 . S
C4855 H4856 0.980 . S
C4855 H4857 0.981 . S
C4855 H4858 0.981 . S
H4856 C4855 0.980 . S
H4857 C4855 0.981 . S
H4858 C4855 0.981 . S
O4859 Zn4835 2.066 . S
O4859 C4838 1.256 1_565 S
O4860 Zn4832 2.053 . S
O4860 C4838 1.244 1_565 S
C4861 O4839 1.259 . S
C4861 O4840 1.254 . S
O4862 Zn4832 2.066 . S
O4862 C4834 1.256 . S
O4863 C4834 1.244 . S
O4863 Zn4835 2.053 . S
Zn4864 O4865 2.055 . S
Zn4864 O4872 2.046 . S
Zn4864 N4880 2.036 . S
Zn4864 O4892 2.053 . S
Zn4864 O4894 2.066 . S
O4865 Zn4864 2.055 . S
O4865 C4868 1.259 . S
C4866 O4894 1.256 . S
C4866 O4895 1.244 . S
Zn4867 O4869 2.046 . S
Zn4867 O4871 2.055 . S
Zn4867 N4873 2.036 . S
Zn4867 O4891 2.066 . S
Zn4867 O4895 2.053 . S
C4868 O4865 1.259 . S
C4868 O4869 1.254 . S
O4869 Zn4867 2.046 . S
O4869 C4868 1.254 . S
C4870 O4891 1.256 . S
C4870 O4892 1.244 . S
O4871 Zn4867 2.055 . S
O4871 C4893 1.259 . S
O4872 Zn4864 2.046 . S
O4872 C4893 1.254 . S
N4873 Zn4867 2.036 . S
N4873 C4874 1.298 . S
N4873 N4876 1.398 . S
C4874 N4873 1.298 . S
C4874 N4877 1.367 . S
C4874 C4887 1.481 . S
C4875 N4876 1.299 . S
C4875 N4877 1.379 . S
N4876 N4873 1.398 . S
N4876 C4875 1.299 . S
N4877 C4874 1.367 . S
N4877 C4875 1.379 . S
C4878 N4880 1.298 . S
C4878 N4882 1.367 . S
C4878 C4886 1.481 . S
C4879 N4881 1.299 . S
C4879 N4882 1.379 . S
N4880 Zn4864 2.036 . S
N4880 C4878 1.298 . S
N4880 N4881 1.398 . S
N4881 C4879 1.299 . S
N4881 N4880 1.398 . S
N4882 C4878 1.367 . S
N4882 C4879 1.379 . S
H4883 C4886 0.980 . S
H4884 C4886 0.981 . S
H4885 C4886 0.981 . S
C4886 C4878 1.481 . S
C4886 H4883 0.980 . S
C4886 H4884 0.981 . S
C4886 H4885 0.981 . S
C4887 C4874 1.481 . S
C4887 H4888 0.980 . S
C4887 H4889 0.981 . S
C4887 H4890 0.981 . S
H4888 C4887 0.980 . S
H4889 C4887 0.981 . S
H4890 C4887 0.981 . S
O4891 Zn4867 2.066 . S
O4891 C4870 1.256 . S
O4892 Zn4864 2.053 . S
O4892 C4870 1.244 . S
C4893 O4871 1.259 . S
C4893 O4872 1.254 . S
O4894 Zn4864 2.066 . S
O4894 C4866 1.256 . S
O4895 C4866 1.244 . S
O4895 Zn4867 2.053 . S
Zn4896 O4897 2.055 . S
Zn4896 O4904 2.046 . S
Zn4896 N4912 2.036 . S
Zn4896 O4924 2.053 . S
Zn4896 O4926 2.066 . S
O4897 Zn4896 2.055 . S
O4897 C4900 1.259 . S
C4898 O4926 1.256 1_455 S
C4898 O4927 1.244 1_455 S
Zn4899 O4901 2.046 . S
Zn4899 O4903 2.055 . S
Zn4899 N4905 2.036 . S
Zn4899 O4923 2.066 . S
Zn4899 O4927 2.053 . S
C4900 O4897 1.259 . S
C4900 O4901 1.254 . S
O4901 Zn4899 2.046 . S
O4901 C4900 1.254 . S
C4902 O4923 1.256 . S
C4902 O4924 1.244 . S
O4903 Zn4899 2.055 . S
O4903 C4925 1.259 . S
O4904 Zn4896 2.046 . S
O4904 C4925 1.254 . S
N4905 Zn4899 2.036 . S
N4905 C4906 1.298 . S
N4905 N4908 1.398 1_655 S
C4906 N4905 1.298 . S
C4906 N4909 1.367 . S
C4906 C4919 1.481 . S
C4907 N4908 1.299 . S
C4907 N4909 1.379 1_455 S
N4908 N4905 1.398 1_455 S
N4908 C4907 1.299 . S
N4909 C4906 1.367 . S
N4909 C4907 1.379 1_655 S
C4910 N4912 1.298 . S
C4910 N4914 1.367 . S
C4910 C4918 1.481 . S
C4911 N4913 1.299 . S
C4911 N4914 1.379 . S
N4912 Zn4896 2.036 . S
N4912 C4910 1.298 . S
N4912 N4913 1.398 . S
N4913 C4911 1.299 . S
N4913 N4912 1.398 . S
N4914 C4910 1.367 . S
N4914 C4911 1.379 . S
H4915 C4918 0.980 . S
H4916 C4918 0.981 . S
H4917 C4918 0.981 . S
C4918 C4910 1.481 . S
C4918 H4915 0.980 . S
C4918 H4916 0.981 . S
C4918 H4917 0.981 . S
C4919 C4906 1.481 . S
C4919 H4920 0.980 . S
C4919 H4921 0.981 . S
C4919 H4922 0.981 . S
H4920 C4919 0.980 . S
H4921 C4919 0.981 . S
H4922 C4919 0.981 . S
O4923 Zn4899 2.066 . S
O4923 C4902 1.256 . S
O4924 Zn4896 2.053 . S
O4924 C4902 1.244 . S
C4925 O4903 1.259 . S
C4925 O4904 1.254 . S
O4926 Zn4896 2.066 . S
O4926 C4898 1.256 1_655 S
O4927 C4898 1.244 1_655 S
O4927 Zn4899 2.053 . S
Zn4928 O4929 2.055 . S
Zn4928 O4936 2.046 . S
Zn4928 N4944 2.036 . S
Zn4928 O4956 2.053 . S
Zn4928 O4958 2.066 . S
O4929 Zn4928 2.055 . S
O4929 C4932 1.259 . S
C4930 O4958 1.256 . S
C4930 O4959 1.244 . S
Zn4931 O4933 2.046 . S
Zn4931 O4935 2.055 . S
Zn4931 N4937 2.036 . S
Zn4931 O4955 2.066 . S
Zn4931 O4959 2.053 . S
C4932 O4929 1.259 . S
C4932 O4933 1.254 . S
O4933 Zn4931 2.046 . S
O4933 C4932 1.254 . S
C4934 O4955 1.256 . S
C4934 O4956 1.244 . S
O4935 Zn4931 2.055 . S
O4935 C4957 1.259 . S
O4936 Zn4928 2.046 . S
O4936 C4957 1.254 . S
N4937 Zn4931 2.036 . S
N4937 C4938 1.298 . S
N4937 N4940 1.398 . S
C4938 N4937 1.298 . S
C4938 N4941 1.367 . S
C4938 C4951 1.481 . S
C4939 N4940 1.299 . S
C4939 N4941 1.379 . S
N4940 N4937 1.398 . S
N4940 C4939 1.299 . S
N4941 C4938 1.367 . S
N4941 C4939 1.379 . S
C4942 N4944 1.298 . S
C4942 N4946 1.367 . S
C4942 C4950 1.481 . S
C4943 N4945 1.299 . S
C4943 N4946 1.379 . S
N4944 Zn4928 2.036 . S
N4944 C4942 1.298 . S
N4944 N4945 1.398 . S
N4945 C4943 1.299 . S
N4945 N4944 1.398 . S
N4946 C4942 1.367 . S
N4946 C4943 1.379 . S
H4947 C4950 0.980 . S
H4948 C4950 0.981 . S
H4949 C4950 0.981 . S
C4950 C4942 1.481 . S
C4950 H4947 0.980 . S
C4950 H4948 0.981 . S
C4950 H4949 0.981 . S
C4951 C4938 1.481 . S
C4951 H4952 0.980 . S
C4951 H4953 0.981 . S
C4951 H4954 0.981 . S
H4952 C4951 0.980 . S
H4953 C4951 0.981 . S
H4954 C4951 0.981 . S
O4955 Zn4931 2.066 . S
O4955 C4934 1.256 . S
O4956 Zn4928 2.053 . S
O4956 C4934 1.244 . S
C4957 O4935 1.259 . S
C4957 O4936 1.254 . S
O4958 Zn4928 2.066 . S
O4958 C4930 1.256 . S
O4959 C4930 1.244 . S
O4959 Zn4931 2.053 . S
Zn4960 O4961 2.055 . S
Zn4960 O4968 2.046 . S
Zn4960 N4976 2.036 . S
Zn4960 O4988 2.053 . S
Zn4960 O4990 2.066 . S
O4961 Zn4960 2.055 . S
O4961 C4964 1.259 . S
C4962 O4990 1.256 . S
C4962 O4991 1.244 . S
Zn4963 O4965 2.046 . S
Zn4963 O4967 2.055 . S
Zn4963 N4969 2.036 1_554 S
Zn4963 O4987 2.066 1_554 S
Zn4963 O4991 2.053 . S
C4964 O4961 1.259 . S
C4964 O4965 1.254 . S
O4965 Zn4963 2.046 . S
O4965 C4964 1.254 . S
C4966 O4987 1.256 1_554 S
C4966 O4988 1.244 . S
O4967 Zn4963 2.055 . S
O4967 C4989 1.259 . S
O4968 Zn4960 2.046 . S
O4968 C4989 1.254 . S
N4969 Zn4963 2.036 1_556 S
N4969 C4970 1.298 . S
N4969 N4972 1.398 . S
C4970 N4969 1.298 . S
C4970 N4973 1.367 . S
C4970 C4983 1.481 . S
C4971 N4972 1.299 . S
C4971 N4973 1.379 . S
N4972 N4969 1.398 . S
N4972 C4971 1.299 . S
N4973 C4970 1.367 . S
N4973 C4971 1.379 . S
C4974 N4976 1.298 . S
C4974 N4978 1.367 . S
C4974 C4982 1.481 . S
C4975 N4977 1.299 . S
C4975 N4978 1.379 . S
N4976 Zn4960 2.036 . S
N4976 C4974 1.298 . S
N4976 N4977 1.398 . S
N4977 C4975 1.299 . S
N4977 N4976 1.398 . S
N4978 C4974 1.367 . S
N4978 C4975 1.379 . S
H4979 C4982 0.980 . S
H4980 C4982 0.981 . S
H4981 C4982 0.981 . S
C4982 C4974 1.481 . S
C4982 H4979 0.980 . S
C4982 H4980 0.981 . S
C4982 H4981 0.981 . S
C4983 C4970 1.481 . S
C4983 H4984 0.980 . S
C4983 H4985 0.981 . S
C4983 H4986 0.981 . S
H4984 C4983 0.980 . S
H4985 C4983 0.981 . S
H4986 C4983 0.981 . S
O4987 Zn4963 2.066 1_556 S
O4987 C4966 1.256 1_556 S
O4988 Zn4960 2.053 . S
O4988 C4966 1.244 . S
C4989 O4967 1.259 . S
C4989 O4968 1.254 . S
O4990 Zn4960 2.066 . S
O4990 C4962 1.256 . S
O4991 C4962 1.244 . S
O4991 Zn4963 2.053 . S
Zn4992 O4993 2.055 . S
Zn4992 O5000 2.046 . S
Zn4992 N5008 2.036 1_556 S
Zn4992 O5020 2.053 . S
Zn4992 O5022 2.066 1_556 S
O4993 Zn4992 2.055 . S
O4993 C4996 1.259 . S
C4994 O5022 1.256 1_556 S
C4994 O5023 1.244 . S
Zn4995 O4997 2.046 . S
Zn4995 O4999 2.055 . S
Zn4995 N5001 2.036 . S
Zn4995 O5019 2.066 . S
Zn4995 O5023 2.053 . S
C4996 O4993 1.259 . S
C4996 O4997 1.254 . S
O4997 Zn4995 2.046 . S
O4997 C4996 1.254 . S
C4998 O5019 1.256 . S
C4998 O5020 1.244 . S
O4999 Zn4995 2.055 . S
O4999 C5021 1.259 . S
O5000 Zn4992 2.046 . S
O5000 C5021 1.254 . S
N5001 Zn4995 2.036 . S
N5001 C5002 1.298 . S
N5001 N5004 1.398 . S
C5002 N5001 1.298 . S
C5002 N5005 1.367 . S
C5002 C5015 1.481 . S
C5003 N5004 1.299 . S
C5003 N5005 1.379 . S
N5004 N5001 1.398 . S
N5004 C5003 1.299 . S
N5005 C5002 1.367 . S
N5005 C5003 1.379 . S
C5006 N5008 1.298 . S
C5006 N5010 1.367 . S
C5006 C5014 1.481 . S
C5007 N5009 1.299 . S
C5007 N5010 1.379 . S
N5008 Zn4992 2.036 1_554 S
N5008 C5006 1.298 . S
N5008 N5009 1.398 . S
N5009 C5007 1.299 . S
N5009 N5008 1.398 . S
N5010 C5006 1.367 . S
N5010 C5007 1.379 . S
H5011 C5014 0.980 . S
H5012 C5014 0.981 . S
H5013 C5014 0.981 . S
C5014 C5006 1.481 . S
C5014 H5011 0.980 . S
C5014 H5012 0.981 . S
C5014 H5013 0.981 . S
C5015 C5002 1.481 . S
C5015 H5016 0.980 . S
C5015 H5017 0.981 . S
C5015 H5018 0.981 . S
H5016 C5015 0.980 . S
H5017 C5015 0.981 . S
H5018 C5015 0.981 . S
O5019 Zn4995 2.066 . S
O5019 C4998 1.256 . S
O5020 Zn4992 2.053 . S
O5020 C4998 1.244 . S
C5021 O4999 1.259 . S
C5021 O5000 1.254 . S
O5022 Zn4992 2.066 1_554 S
O5022 C4994 1.256 1_554 S
O5023 C4994 1.244 . S
O5023 Zn4995 2.053 . S
Zn5024 O5025 2.055 . S
Zn5024 O5032 2.046 . S
Zn5024 N5040 2.036 . S
Zn5024 O5052 2.053 . S
Zn5024 O5054 2.066 . S
O5025 Zn5024 2.055 . S
O5025 C5028 1.259 . S
C5026 O5054 1.256 . S
C5026 O5055 1.244 . S
Zn5027 O5029 2.046 . S
Zn5027 O5031 2.055 . S
Zn5027 N5033 2.036 . S
Zn5027 O5051 2.066 . S
Zn5027 O5055 2.053 . S
C5028 O5025 1.259 . S
C5028 O5029 1.254 . S
O5029 Zn5027 2.046 . S
O5029 C5028 1.254 . S
C5030 O5051 1.256 . S
C5030 O5052 1.244 . S
O5031 Zn5027 2.055 . S
O5031 C5053 1.259 . S
O5032 Zn5024 2.046 . S
O5032 C5053 1.254 . S
N5033 Zn5027 2.036 . S
N5033 C5034 1.298 . S
N5033 N5036 1.398 . S
C5034 N5033 1.298 . S
C5034 N5037 1.367 . S
C5034 C5047 1.481 . S
C5035 N5036 1.299 . S
C5035 N5037 1.379 . S
N5036 N5033 1.398 . S
N5036 C5035 1.299 . S
N5037 C5034 1.367 . S
N5037 C5035 1.379 . S
C5038 N5040 1.298 . S
C5038 N5042 1.367 . S
C5038 C5046 1.481 . S
C5039 N5041 1.299 . S
C5039 N5042 1.379 . S
N5040 Zn5024 2.036 . S
N5040 C5038 1.298 . S
N5040 N5041 1.398 . S
N5041 C5039 1.299 . S
N5041 N5040 1.398 . S
N5042 C5038 1.367 . S
N5042 C5039 1.379 . S
H5043 C5046 0.980 . S
H5044 C5046 0.981 . S
H5045 C5046 0.981 . S
C5046 C5038 1.481 . S
C5046 H5043 0.980 . S
C5046 H5044 0.981 . S
C5046 H5045 0.981 . S
C5047 C5034 1.481 . S
C5047 H5048 0.980 . S
C5047 H5049 0.981 . S
C5047 H5050 0.981 . S
H5048 C5047 0.980 . S
H5049 C5047 0.981 . S
H5050 C5047 0.981 . S
O5051 Zn5027 2.066 . S
O5051 C5030 1.256 . S
O5052 Zn5024 2.053 . S
O5052 C5030 1.244 . S
C5053 O5031 1.259 . S
C5053 O5032 1.254 . S
O5054 Zn5024 2.066 . S
O5054 C5026 1.256 . S
O5055 C5026 1.244 . S
O5055 Zn5027 2.053 . S
Zn5056 O5057 2.055 . S
Zn5056 O5064 2.046 . S
Zn5056 N5072 2.036 . S
Zn5056 O5084 2.053 . S
Zn5056 O5086 2.066 . S
O5057 Zn5056 2.055 . S
O5057 C5060 1.259 . S
C5058 O5086 1.256 . S
C5058 O5087 1.244 . S
Zn5059 O5061 2.046 . S
Zn5059 O5063 2.055 . S
Zn5059 N5065 2.036 . S
Zn5059 O5083 2.066 . S
Zn5059 O5087 2.053 . S
C5060 O5057 1.259 . S
C5060 O5061 1.254 . S
O5061 Zn5059 2.046 . S
O5061 C5060 1.254 . S
C5062 O5083 1.256 1_565 S
C5062 O5084 1.244 1_565 S
O5063 Zn5059 2.055 . S
O5063 C5085 1.259 . S
O5064 Zn5056 2.046 . S
O5064 C5085 1.254 . S
N5065 Zn5059 2.036 . S
N5065 C5066 1.298 . S
N5065 N5068 1.398 . S
C5066 N5065 1.298 . S
C5066 N5069 1.367 . S
C5066 C5079 1.481 . S
C5067 N5068 1.299 . S
C5067 N5069 1.379 . S
N5068 N5065 1.398 . S
N5068 C5067 1.299 . S
N5069 C5066 1.367 . S
N5069 C5067 1.379 . S
C5070 N5072 1.298 . S
C5070 N5074 1.367 . S
C5070 C5078 1.481 . S
C5071 N5073 1.299 . S
C5071 N5074 1.379 1_565 S
N5072 Zn5056 2.036 . S
N5072 C5070 1.298 . S
N5072 N5073 1.398 1_545 S
N5073 C5071 1.299 . S
N5073 N5072 1.398 1_565 S
N5074 C5070 1.367 . S
N5074 C5071 1.379 1_545 S
H5075 C5078 0.980 . S
H5076 C5078 0.981 . S
H5077 C5078 0.981 . S
C5078 C5070 1.481 . S
C5078 H5075 0.980 . S
C5078 H5076 0.981 . S
C5078 H5077 0.981 . S
C5079 C5066 1.481 . S
C5079 H5080 0.980 . S
C5079 H5081 0.981 . S
C5079 H5082 0.981 . S
H5080 C5079 0.980 . S
H5081 C5079 0.981 . S
H5082 C5079 0.981 . S
O5083 Zn5059 2.066 . S
O5083 C5062 1.256 1_545 S
O5084 Zn5056 2.053 . S
O5084 C5062 1.244 1_545 S
C5085 O5063 1.259 . S
C5085 O5064 1.254 . S
O5086 Zn5056 2.066 . S
O5086 C5058 1.256 . S
O5087 C5058 1.244 . S
O5087 Zn5059 2.053 . S
Zn5088 O5089 2.055 . S
Zn5088 O5096 2.046 . S
Zn5088 N5104 2.036 . S
Zn5088 O5116 2.053 . S
Zn5088 O5118 2.066 . S
O5089 Zn5088 2.055 . S
O5089 C5092 1.259 . S
C5090 O5118 1.256 . S
C5090 O5119 1.244 . S
Zn5091 O5093 2.046 . S
Zn5091 O5095 2.055 . S
Zn5091 N5097 2.036 . S
Zn5091 O5115 2.066 . S
Zn5091 O5119 2.053 . S
C5092 O5089 1.259 . S
C5092 O5093 1.254 . S
O5093 Zn5091 2.046 . S
O5093 C5092 1.254 . S
C5094 O5115 1.256 . S
C5094 O5116 1.244 . S
O5095 Zn5091 2.055 . S
O5095 C5117 1.259 . S
O5096 Zn5088 2.046 . S
O5096 C5117 1.254 . S
N5097 Zn5091 2.036 . S
N5097 C5098 1.298 . S
N5097 N5100 1.398 . S
C5098 N5097 1.298 . S
C5098 N5101 1.367 . S
C5098 C5111 1.481 . S
C5099 N5100 1.299 . S
C5099 N5101 1.379 . S
N5100 N5097 1.398 . S
N5100 C5099 1.299 . S
N5101 C5098 1.367 . S
N5101 C5099 1.379 . S
C5102 N5104 1.298 . S
C5102 N5106 1.367 . S
C5102 C5110 1.481 . S
C5103 N5105 1.299 . S
C5103 N5106 1.379 . S
N5104 Zn5088 2.036 . S
N5104 C5102 1.298 . S
N5104 N5105 1.398 . S
N5105 C5103 1.299 . S
N5105 N5104 1.398 . S
N5106 C5102 1.367 . S
N5106 C5103 1.379 . S
H5107 C5110 0.980 . S
H5108 C5110 0.981 . S
H5109 C5110 0.981 . S
C5110 C5102 1.481 . S
C5110 H5107 0.980 . S
C5110 H5108 0.981 . S
C5110 H5109 0.981 . S
C5111 C5098 1.481 . S
C5111 H5112 0.980 . S
C5111 H5113 0.981 . S
C5111 H5114 0.981 . S
H5112 C5111 0.980 . S
H5113 C5111 0.981 . S
H5114 C5111 0.981 . S
O5115 Zn5091 2.066 . S
O5115 C5094 1.256 . S
O5116 Zn5088 2.053 . S
O5116 C5094 1.244 . S
C5117 O5095 1.259 . S
C5117 O5096 1.254 . S
O5118 Zn5088 2.066 . S
O5118 C5090 1.256 . S
O5119 C5090 1.244 . S
O5119 Zn5091 2.053 . S
Zn5120 O5121 2.055 . S
Zn5120 O5128 2.046 . S
Zn5120 N5136 2.036 . S
Zn5120 O5148 2.053 . S
Zn5120 O5150 2.066 . S
O5121 Zn5120 2.055 . S
O5121 C5124 1.259 . S
C5122 O5150 1.256 . S
C5122 O5151 1.244 . S
Zn5123 O5125 2.046 . S
Zn5123 O5127 2.055 . S
Zn5123 N5129 2.036 . S
Zn5123 O5147 2.066 . S
Zn5123 O5151 2.053 . S
C5124 O5121 1.259 . S
C5124 O5125 1.254 . S
O5125 Zn5123 2.046 . S
O5125 C5124 1.254 . S
C5126 O5147 1.256 1_556 S
C5126 O5148 1.244 1_556 S
O5127 Zn5123 2.055 . S
O5127 C5149 1.259 . S
O5128 Zn5120 2.046 . S
O5128 C5149 1.254 . S
N5129 Zn5123 2.036 . S
N5129 C5130 1.298 . S
N5129 N5132 1.398 . S
C5130 N5129 1.298 . S
C5130 N5133 1.367 . S
C5130 C5143 1.481 . S
C5131 N5132 1.299 . S
C5131 N5133 1.379 . S
N5132 N5129 1.398 . S
N5132 C5131 1.299 . S
N5133 C5130 1.367 . S
N5133 C5131 1.379 . S
C5134 N5136 1.298 . S
C5134 N5138 1.367 . S
C5134 C5142 1.481 . S
C5135 N5137 1.299 . S
C5135 N5138 1.379 1_556 S
N5136 Zn5120 2.036 . S
N5136 C5134 1.298 . S
N5136 N5137 1.398 1_554 S
N5137 C5135 1.299 . S
N5137 N5136 1.398 1_556 S
N5138 C5134 1.367 . S
N5138 C5135 1.379 1_554 S
H5139 C5142 0.980 . S
H5140 C5142 0.981 . S
H5141 C5142 0.981 . S
C5142 C5134 1.481 . S
C5142 H5139 0.980 . S
C5142 H5140 0.981 . S
C5142 H5141 0.981 . S
C5143 C5130 1.481 . S
C5143 H5144 0.980 . S
C5143 H5145 0.981 . S
C5143 H5146 0.981 . S
H5144 C5143 0.980 . S
H5145 C5143 0.981 . S
H5146 C5143 0.981 . S
O5147 Zn5123 2.066 . S
O5147 C5126 1.256 1_554 S
O5148 Zn5120 2.053 . S
O5148 C5126 1.244 1_554 S
C5149 O5127 1.259 . S
C5149 O5128 1.254 . S
O5150 Zn5120 2.066 . S
O5150 C5122 1.256 . S
O5151 C5122 1.244 . S
O5151 Zn5123 2.053 . S
Zn5152 O5153 2.055 . S
Zn5152 O5160 2.046 . S
Zn5152 N5168 2.036 . S
Zn5152 O5180 2.053 . S
Zn5152 O5182 2.066 . S
O5153 Zn5152 2.055 . S
O5153 C5156 1.259 . S
C5154 O5182 1.256 . S
C5154 O5183 1.244 . S
Zn5155 O5157 2.046 . S
Zn5155 O5159 2.055 . S
Zn5155 N5161 2.036 . S
Zn5155 O5179 2.066 . S
Zn5155 O5183 2.053 . S
C5156 O5153 1.259 . S
C5156 O5157 1.254 . S
O5157 Zn5155 2.046 . S
O5157 C5156 1.254 . S
C5158 O5179 1.256 . S
C5158 O5180 1.244 . S
O5159 Zn5155 2.055 . S
O5159 C5181 1.259 . S
O5160 Zn5152 2.046 . S
O5160 C5181 1.254 . S
N5161 Zn5155 2.036 . S
N5161 C5162 1.298 . S
N5161 N5164 1.398 . S
C5162 N5161 1.298 . S
C5162 N5165 1.367 . S
C5162 C5175 1.481 . S
C5163 N5164 1.299 . S
C5163 N5165 1.379 . S
N5164 N5161 1.398 . S
N5164 C5163 1.299 . S
N5165 C5162 1.367 . S
N5165 C5163 1.379 . S
C5166 N5168 1.298 . S
C5166 N5170 1.367 . S
C5166 C5174 1.481 . S
C5167 N5169 1.299 . S
C5167 N5170 1.379 . S
N5168 Zn5152 2.036 . S
N5168 C5166 1.298 . S
N5168 N5169 1.398 . S
N5169 C5167 1.299 . S
N5169 N5168 1.398 . S
N5170 C5166 1.367 . S
N5170 C5167 1.379 . S
H5171 C5174 0.980 . S
H5172 C5174 0.981 . S
H5173 C5174 0.981 . S
C5174 C5166 1.481 . S
C5174 H5171 0.980 . S
C5174 H5172 0.981 . S
C5174 H5173 0.981 . S
C5175 C5162 1.481 . S
C5175 H5176 0.980 . S
C5175 H5177 0.981 . S
C5175 H5178 0.981 . S
H5176 C5175 0.980 . S
H5177 C5175 0.981 . S
H5178 C5175 0.981 . S
O5179 Zn5155 2.066 . S
O5179 C5158 1.256 . S
O5180 Zn5152 2.053 . S
O5180 C5158 1.244 . S
C5181 O5159 1.259 . S
C5181 O5160 1.254 . S
O5182 Zn5152 2.066 . S
O5182 C5154 1.256 . S
O5183 C5154 1.244 . S
O5183 Zn5155 2.053 . S
Zn5184 O5185 2.055 . S
Zn5184 O5192 2.046 . S
Zn5184 N5200 2.036 . S
Zn5184 O5212 2.053 . S
Zn5184 O5214 2.066 . S
O5185 Zn5184 2.055 . S
O5185 C5188 1.259 . S
C5186 O5214 1.256 . S
C5186 O5215 1.244 . S
Zn5187 O5189 2.046 . S
Zn5187 O5191 2.055 . S
Zn5187 N5193 2.036 . S
Zn5187 O5211 2.066 . S
Zn5187 O5215 2.053 . S
C5188 O5185 1.259 . S
C5188 O5189 1.254 . S
O5189 Zn5187 2.046 . S
O5189 C5188 1.254 . S
C5190 O5211 1.256 1_554 S
C5190 O5212 1.244 1_554 S
O5191 Zn5187 2.055 . S
O5191 C5213 1.259 . S
O5192 Zn5184 2.046 . S
O5192 C5213 1.254 . S
N5193 Zn5187 2.036 . S
N5193 C5194 1.298 . S
N5193 N5196 1.398 . S
C5194 N5193 1.298 . S
C5194 N5197 1.367 . S
C5194 C5207 1.481 . S
C5195 N5196 1.299 . S
C5195 N5197 1.379 . S
N5196 N5193 1.398 . S
N5196 C5195 1.299 . S
N5197 C5194 1.367 . S
N5197 C5195 1.379 . S
C5198 N5200 1.298 . S
C5198 N5202 1.367 . S
C5198 C5206 1.481 . S
C5199 N5201 1.299 . S
C5199 N5202 1.379 1_554 S
N5200 Zn5184 2.036 . S
N5200 C5198 1.298 . S
N5200 N5201 1.398 1_556 S
N5201 C5199 1.299 . S
N5201 N5200 1.398 1_554 S
N5202 C5198 1.367 . S
N5202 C5199 1.379 1_556 S
H5203 C5206 0.980 . S
H5204 C5206 0.981 . S
H5205 C5206 0.981 . S
C5206 C5198 1.481 . S
C5206 H5203 0.980 . S
C5206 H5204 0.981 . S
C5206 H5205 0.981 . S
C5207 C5194 1.481 . S
C5207 H5208 0.980 . S
C5207 H5209 0.981 . S
C5207 H5210 0.981 . S
H5208 C5207 0.980 . S
H5209 C5207 0.981 . S
H5210 C5207 0.981 . S
O5211 Zn5187 2.066 . S
O5211 C5190 1.256 1_556 S
O5212 Zn5184 2.053 . S
O5212 C5190 1.244 1_556 S
C5213 O5191 1.259 . S
C5213 O5192 1.254 . S
O5214 Zn5184 2.066 . S
O5214 C5186 1.256 . S
O5215 C5186 1.244 . S
O5215 Zn5187 2.053 . S
Zn5216 O5217 2.055 . S
Zn5216 O5224 2.046 . S
Zn5216 N5232 2.036 . S
Zn5216 O5244 2.053 . S
Zn5216 O5246 2.066 . S
O5217 Zn5216 2.055 . S
O5217 C5220 1.259 . S
C5218 O5246 1.256 . S
C5218 O5247 1.244 . S
Zn5219 O5221 2.046 . S
Zn5219 O5223 2.055 . S
Zn5219 N5225 2.036 1_655 S
Zn5219 O5243 2.066 1_655 S
Zn5219 O5247 2.053 . S
C5220 O5217 1.259 . S
C5220 O5221 1.254 . S
O5221 Zn5219 2.046 . S
O5221 C5220 1.254 . S
C5222 O5243 1.256 1_655 S
C5222 O5244 1.244 . S
O5223 Zn5219 2.055 . S
O5223 C5245 1.259 . S
O5224 Zn5216 2.046 . S
O5224 C5245 1.254 . S
N5225 Zn5219 2.036 1_455 S
N5225 C5226 1.298 . S
N5225 N5228 1.398 . S
C5226 N5225 1.298 . S
C5226 N5229 1.367 . S
C5226 C5239 1.481 . S
C5227 N5228 1.299 . S
C5227 N5229 1.379 . S
N5228 N5225 1.398 . S
N5228 C5227 1.299 . S
N5229 C5226 1.367 . S
N5229 C5227 1.379 . S
C5230 N5232 1.298 . S
C5230 N5234 1.367 . S
C5230 C5238 1.481 . S
C5231 N5233 1.299 . S
C5231 N5234 1.379 . S
N5232 Zn5216 2.036 . S
N5232 C5230 1.298 . S
N5232 N5233 1.398 . S
N5233 C5231 1.299 . S
N5233 N5232 1.398 . S
N5234 C5230 1.367 . S
N5234 C5231 1.379 . S
H5235 C5238 0.980 . S
H5236 C5238 0.981 . S
H5237 C5238 0.981 . S
C5238 C5230 1.481 . S
C5238 H5235 0.980 . S
C5238 H5236 0.981 . S
C5238 H5237 0.981 . S
C5239 C5226 1.481 . S
C5239 H5240 0.980 . S
C5239 H5241 0.981 . S
C5239 H5242 0.981 . S
H5240 C5239 0.980 . S
H5241 C5239 0.981 . S
H5242 C5239 0.981 . S
O5243 Zn5219 2.066 1_455 S
O5243 C5222 1.256 1_455 S
O5244 Zn5216 2.053 . S
O5244 C5222 1.244 . S
C5245 O5223 1.259 . S
C5245 O5224 1.254 . S
O5246 Zn5216 2.066 . S
O5246 C5218 1.256 . S
O5247 C5218 1.244 . S
O5247 Zn5219 2.053 . S
Zn5248 O5249 2.055 . S
Zn5248 O5256 2.046 . S
Zn5248 N5264 2.036 . S
Zn5248 O5276 2.053 . S
Zn5248 O5278 2.066 . S
O5249 Zn5248 2.055 . S
O5249 C5252 1.259 . S
C5250 O5278 1.256 . S
C5250 O5279 1.244 . S
Zn5251 O5253 2.046 . S
Zn5251 O5255 2.055 . S
Zn5251 N5257 2.036 . S
Zn5251 O5275 2.066 . S
Zn5251 O5279 2.053 . S
C5252 O5249 1.259 . S
C5252 O5253 1.254 . S
O5253 Zn5251 2.046 . S
O5253 C5252 1.254 . S
C5254 O5275 1.256 . S
C5254 O5276 1.244 . S
O5255 Zn5251 2.055 . S
O5255 C5277 1.259 . S
O5256 Zn5248 2.046 . S
O5256 C5277 1.254 . S
N5257 Zn5251 2.036 . S
N5257 C5258 1.298 . S
N5257 N5260 1.398 . S
C5258 N5257 1.298 . S
C5258 N5261 1.367 . S
C5258 C5271 1.481 . S
C5259 N5260 1.299 . S
C5259 N5261 1.379 . S
N5260 N5257 1.398 . S
N5260 C5259 1.299 . S
N5261 C5258 1.367 . S
N5261 C5259 1.379 . S
C5262 N5264 1.298 . S
C5262 N5266 1.367 . S
C5262 C5270 1.481 . S
C5263 N5265 1.299 . S
C5263 N5266 1.379 . S
N5264 Zn5248 2.036 . S
N5264 C5262 1.298 . S
N5264 N5265 1.398 . S
N5265 C5263 1.299 . S
N5265 N5264 1.398 . S
N5266 C5262 1.367 . S
N5266 C5263 1.379 . S
H5267 C5270 0.980 . S
H5268 C5270 0.981 . S
H5269 C5270 0.981 . S
C5270 C5262 1.481 . S
C5270 H5267 0.980 . S
C5270 H5268 0.981 . S
C5270 H5269 0.981 . S
C5271 C5258 1.481 . S
C5271 H5272 0.980 . S
C5271 H5273 0.981 . S
C5271 H5274 0.981 . S
H5272 C5271 0.980 . S
H5273 C5271 0.981 . S
H5274 C5271 0.981 . S
O5275 Zn5251 2.066 . S
O5275 C5254 1.256 . S
O5276 Zn5248 2.053 . S
O5276 C5254 1.244 . S
C5277 O5255 1.259 . S
C5277 O5256 1.254 . S
O5278 Zn5248 2.066 . S
O5278 C5250 1.256 . S
O5279 C5250 1.244 . S
O5279 Zn5251 2.053 . S
Zn5280 O5281 2.055 . S
Zn5280 O5288 2.046 . S
Zn5280 N5296 2.036 . S
Zn5280 O5308 2.053 . S
Zn5280 O5310 2.066 . S
O5281 Zn5280 2.055 . S
O5281 C5284 1.259 . S
C5282 O5310 1.256 1_556 S
C5282 O5311 1.244 1_556 S
Zn5283 O5285 2.046 . S
Zn5283 O5287 2.055 . S
Zn5283 N5289 2.036 . S
Zn5283 O5307 2.066 . S
Zn5283 O5311 2.053 . S
C5284 O5281 1.259 . S
C5284 O5285 1.254 . S
O5285 Zn5283 2.046 . S
O5285 C5284 1.254 . S
C5286 O5307 1.256 . S
C5286 O5308 1.244 . S
O5287 Zn5283 2.055 . S
O5287 C5309 1.259 . S
O5288 Zn5280 2.046 . S
O5288 C5309 1.254 . S
N5289 Zn5283 2.036 . S
N5289 C5290 1.298 . S
N5289 N5292 1.398 1_554 S
C5290 N5289 1.298 . S
C5290 N5293 1.367 . S
C5290 C5303 1.481 . S
C5291 N5292 1.299 . S
C5291 N5293 1.379 1_556 S
N5292 N5289 1.398 1_556 S
N5292 C5291 1.299 . S
N5293 C5290 1.367 . S
N5293 C5291 1.379 1_554 S
C5294 N5296 1.298 . S
C5294 N5298 1.367 . S
C5294 C5302 1.481 . S
C5295 N5297 1.299 . S
C5295 N5298 1.379 . S
N5296 Zn5280 2.036 . S
N5296 C5294 1.298 . S
N5296 N5297 1.398 . S
N5297 C5295 1.299 . S
N5297 N5296 1.398 . S
N5298 C5294 1.367 . S
N5298 C5295 1.379 . S
H5299 C5302 0.980 . S
H5300 C5302 0.981 . S
H5301 C5302 0.981 . S
C5302 C5294 1.481 . S
C5302 H5299 0.980 . S
C5302 H5300 0.981 . S
C5302 H5301 0.981 . S
C5303 C5290 1.481 . S
C5303 H5304 0.980 . S
C5303 H5305 0.981 . S
C5303 H5306 0.981 . S
H5304 C5303 0.980 . S
H5305 C5303 0.981 . S
H5306 C5303 0.981 . S
O5307 Zn5283 2.066 . S
O5307 C5286 1.256 . S
O5308 Zn5280 2.053 . S
O5308 C5286 1.244 . S
C5309 O5287 1.259 . S
C5309 O5288 1.254 . S
O5310 Zn5280 2.066 . S
O5310 C5282 1.256 1_554 S
O5311 C5282 1.244 1_554 S
O5311 Zn5283 2.053 . S
Zn5312 O5313 2.055 . S
Zn5312 O5320 2.046 . S
Zn5312 N5328 2.036 . S
Zn5312 O5340 2.053 . S
Zn5312 O5342 2.066 . S
O5313 Zn5312 2.055 . S
O5313 C5316 1.259 . S
C5314 O5342 1.256 . S
C5314 O5343 1.244 . S
Zn5315 O5317 2.046 . S
Zn5315 O5319 2.055 . S
Zn5315 N5321 2.036 . S
Zn5315 O5339 2.066 . S
Zn5315 O5343 2.053 . S
C5316 O5313 1.259 . S
C5316 O5317 1.254 . S
O5317 Zn5315 2.046 . S
O5317 C5316 1.254 . S
C5318 O5339 1.256 . S
C5318 O5340 1.244 . S
O5319 Zn5315 2.055 . S
O5319 C5341 1.259 . S
O5320 Zn5312 2.046 . S
O5320 C5341 1.254 . S
N5321 Zn5315 2.036 . S
N5321 C5322 1.298 . S
N5321 N5324 1.398 . S
C5322 N5321 1.298 . S
C5322 N5325 1.367 . S
C5322 C5335 1.481 . S
C5323 N5324 1.299 . S
C5323 N5325 1.379 . S
N5324 N5321 1.398 . S
N5324 C5323 1.299 . S
N5325 C5322 1.367 . S
N5325 C5323 1.379 . S
C5326 N5328 1.298 . S
C5326 N5330 1.367 . S
C5326 C5334 1.481 . S
C5327 N5329 1.299 . S
C5327 N5330 1.379 . S
N5328 Zn5312 2.036 . S
N5328 C5326 1.298 . S
N5328 N5329 1.398 . S
N5329 C5327 1.299 . S
N5329 N5328 1.398 . S
N5330 C5326 1.367 . S
N5330 C5327 1.379 . S
H5331 C5334 0.980 . S
H5332 C5334 0.981 . S
H5333 C5334 0.981 . S
C5334 C5326 1.481 . S
C5334 H5331 0.980 . S
C5334 H5332 0.981 . S
C5334 H5333 0.981 . S
C5335 C5322 1.481 . S
C5335 H5336 0.980 . S
C5335 H5337 0.981 . S
C5335 H5338 0.981 . S
H5336 C5335 0.980 . S
H5337 C5335 0.981 . S
H5338 C5335 0.981 . S
O5339 Zn5315 2.066 . S
O5339 C5318 1.256 . S
O5340 Zn5312 2.053 . S
O5340 C5318 1.244 . S
C5341 O5319 1.259 . S
C5341 O5320 1.254 . S
O5342 Zn5312 2.066 . S
O5342 C5314 1.256 . S
O5343 C5314 1.244 . S
O5343 Zn5315 2.053 . S
Zn5344 O5345 2.055 . S
Zn5344 O5352 2.046 . S
Zn5344 N5360 2.036 . S
Zn5344 O5372 2.053 . S
Zn5344 O5374 2.066 . S
O5345 Zn5344 2.055 . S
O5345 C5348 1.259 . S
C5346 O5374 1.256 . S
C5346 O5375 1.244 . S
Zn5347 O5349 2.046 . S
Zn5347 O5351 2.055 . S
Zn5347 N5353 2.036 . S
Zn5347 O5371 2.066 . S
Zn5347 O5375 2.053 . S
C5348 O5345 1.259 . S
C5348 O5349 1.254 . S
O5349 Zn5347 2.046 . S
O5349 C5348 1.254 . S
C5350 O5371 1.256 . S
C5350 O5372 1.244 . S
O5351 Zn5347 2.055 . S
O5351 C5373 1.259 . S
O5352 Zn5344 2.046 . S
O5352 C5373 1.254 . S
N5353 Zn5347 2.036 . S
N5353 C5354 1.298 . S
N5353 N5356 1.398 . S
C5354 N5353 1.298 . S
C5354 N5357 1.367 . S
C5354 C5367 1.481 . S
C5355 N5356 1.299 . S
C5355 N5357 1.379 . S
N5356 N5353 1.398 . S
N5356 C5355 1.299 . S
N5357 C5354 1.367 . S
N5357 C5355 1.379 . S
C5358 N5360 1.298 . S
C5358 N5362 1.367 . S
C5358 C5366 1.481 . S
C5359 N5361 1.299 . S
C5359 N5362 1.379 . S
N5360 Zn5344 2.036 . S
N5360 C5358 1.298 . S
N5360 N5361 1.398 . S
N5361 C5359 1.299 . S
N5361 N5360 1.398 . S
N5362 C5358 1.367 . S
N5362 C5359 1.379 . S
H5363 C5366 0.980 . S
H5364 C5366 0.981 . S
H5365 C5366 0.981 . S
C5366 C5358 1.481 . S
C5366 H5363 0.980 . S
C5366 H5364 0.981 . S
C5366 H5365 0.981 . S
C5367 C5354 1.481 . S
C5367 H5368 0.980 . S
C5367 H5369 0.981 . S
C5367 H5370 0.981 . S
H5368 C5367 0.980 . S
H5369 C5367 0.981 . S
H5370 C5367 0.981 . S
O5371 Zn5347 2.066 . S
O5371 C5350 1.256 . S
O5372 Zn5344 2.053 . S
O5372 C5350 1.244 . S
C5373 O5351 1.259 . S
C5373 O5352 1.254 . S
O5374 Zn5344 2.066 . S
O5374 C5346 1.256 . S
O5375 C5346 1.244 . S
O5375 Zn5347 2.053 . S
Zn5376 O5377 2.055 . S
Zn5376 O5384 2.046 . S
Zn5376 N5392 2.036 . S
Zn5376 O5404 2.053 . S
Zn5376 O5406 2.066 . S
O5377 Zn5376 2.055 . S
O5377 C5380 1.259 . S
C5378 O5406 1.256 . S
C5378 O5407 1.244 . S
Zn5379 O5381 2.046 . S
Zn5379 O5383 2.055 . S
Zn5379 N5385 2.036 . S
Zn5379 O5403 2.066 . S
Zn5379 O5407 2.053 . S
C5380 O5377 1.259 . S
C5380 O5381 1.254 . S
O5381 Zn5379 2.046 . S
O5381 C5380 1.254 . S
C5382 O5403 1.256 . S
C5382 O5404 1.244 . S
O5383 Zn5379 2.055 . S
O5383 C5405 1.259 . S
O5384 Zn5376 2.046 . S
O5384 C5405 1.254 . S
N5385 Zn5379 2.036 . S
N5385 C5386 1.298 . S
N5385 N5388 1.398 . S
C5386 N5385 1.298 . S
C5386 N5389 1.367 . S
C5386 C5399 1.481 . S
C5387 N5388 1.299 . S
C5387 N5389 1.379 . S
N5388 N5385 1.398 . S
N5388 C5387 1.299 . S
N5389 C5386 1.367 . S
N5389 C5387 1.379 . S
C5390 N5392 1.298 . S
C5390 N5394 1.367 . S
C5390 C5398 1.481 . S
C5391 N5393 1.299 . S
C5391 N5394 1.379 . S
N5392 Zn5376 2.036 . S
N5392 C5390 1.298 . S
N5392 N5393 1.398 . S
N5393 C5391 1.299 . S
N5393 N5392 1.398 . S
N5394 C5390 1.367 . S
N5394 C5391 1.379 . S
H5395 C5398 0.980 . S
H5396 C5398 0.981 . S
H5397 C5398 0.981 . S
C5398 C5390 1.481 . S
C5398 H5395 0.980 . S
C5398 H5396 0.981 . S
C5398 H5397 0.981 . S
C5399 C5386 1.481 . S
C5399 H5400 0.980 . S
C5399 H5401 0.981 . S
C5399 H5402 0.981 . S
H5400 C5399 0.980 . S
H5401 C5399 0.981 . S
H5402 C5399 0.981 . S
O5403 Zn5379 2.066 . S
O5403 C5382 1.256 . S
O5404 Zn5376 2.053 . S
O5404 C5382 1.244 . S
C5405 O5383 1.259 . S
C5405 O5384 1.254 . S
O5406 Zn5376 2.066 . S
O5406 C5378 1.256 . S
O5407 C5378 1.244 . S
O5407 Zn5379 2.053 . S
Zn5408 O5409 2.055 . S
Zn5408 O5416 2.046 . S
Zn5408 N5424 2.036 . S
Zn5408 O5436 2.053 . S
Zn5408 O5438 2.066 . S
O5409 Zn5408 2.055 . S
O5409 C5412 1.259 . S
C5410 O5438 1.256 . S
C5410 O5439 1.244 . S
Zn5411 O5413 2.046 . S
Zn5411 O5415 2.055 . S
Zn5411 N5417 2.036 . S
Zn5411 O5435 2.066 . S
Zn5411 O5439 2.053 . S
C5412 O5409 1.259 . S
C5412 O5413 1.254 . S
O5413 Zn5411 2.046 . S
O5413 C5412 1.254 . S
C5414 O5435 1.256 . S
C5414 O5436 1.244 . S
O5415 Zn5411 2.055 . S
O5415 C5437 1.259 . S
O5416 Zn5408 2.046 . S
O5416 C5437 1.254 . S
N5417 Zn5411 2.036 . S
N5417 C5418 1.298 . S
N5417 N5420 1.398 . S
C5418 N5417 1.298 . S
C5418 N5421 1.367 . S
C5418 C5431 1.481 . S
C5419 N5420 1.299 . S
C5419 N5421 1.379 . S
N5420 N5417 1.398 . S
N5420 C5419 1.299 . S
N5421 C5418 1.367 . S
N5421 C5419 1.379 . S
C5422 N5424 1.298 . S
C5422 N5426 1.367 . S
C5422 C5430 1.481 . S
C5423 N5425 1.299 . S
C5423 N5426 1.379 . S
N5424 Zn5408 2.036 . S
N5424 C5422 1.298 . S
N5424 N5425 1.398 . S
N5425 C5423 1.299 . S
N5425 N5424 1.398 . S
N5426 C5422 1.367 . S
N5426 C5423 1.379 . S
H5427 C5430 0.980 . S
H5428 C5430 0.981 . S
H5429 C5430 0.981 . S
C5430 C5422 1.481 . S
C5430 H5427 0.980 . S
C5430 H5428 0.981 . S
C5430 H5429 0.981 . S
C5431 C5418 1.481 . S
C5431 H5432 0.980 . S
C5431 H5433 0.981 . S
C5431 H5434 0.981 . S
H5432 C5431 0.980 . S
H5433 C5431 0.981 . S
H5434 C5431 0.981 . S
O5435 Zn5411 2.066 . S
O5435 C5414 1.256 . S
O5436 Zn5408 2.053 . S
O5436 C5414 1.244 . S
C5437 O5415 1.259 . S
C5437 O5416 1.254 . S
O5438 Zn5408 2.066 . S
O5438 C5410 1.256 . S
O5439 C5410 1.244 . S
O5439 Zn5411 2.053 . S
Zn5440 O5441 2.055 . S
Zn5440 O5448 2.046 . S
Zn5440 N5456 2.036 1_545 S
Zn5440 O5468 2.053 1_545 S
Zn5440 O5470 2.066 . S
O5441 Zn5440 2.055 . S
O5441 C5444 1.259 . S
C5442 O5470 1.256 . S
C5442 O5471 1.244 . S
Zn5443 O5445 2.046 . S
Zn5443 O5447 2.055 . S
Zn5443 N5449 2.036 . S
Zn5443 O5467 2.066 . S
Zn5443 O5471 2.053 . S
C5444 O5441 1.259 . S
C5444 O5445 1.254 . S
O5445 Zn5443 2.046 . S
O5445 C5444 1.254 . S
C5446 O5467 1.256 . S
C5446 O5468 1.244 1_545 S
O5447 Zn5443 2.055 . S
O5447 C5469 1.259 . S
O5448 Zn5440 2.046 . S
O5448 C5469 1.254 . S
N5449 Zn5443 2.036 . S
N5449 C5450 1.298 . S
N5449 N5452 1.398 . S
C5450 N5449 1.298 . S
C5450 N5453 1.367 . S
C5450 C5463 1.481 . S
C5451 N5452 1.299 . S
C5451 N5453 1.379 . S
N5452 N5449 1.398 . S
N5452 C5451 1.299 . S
N5453 C5450 1.367 . S
N5453 C5451 1.379 . S
C5454 N5456 1.298 . S
C5454 N5458 1.367 . S
C5454 C5462 1.481 . S
C5455 N5457 1.299 . S
C5455 N5458 1.379 . S
N5456 Zn5440 2.036 1_565 S
N5456 C5454 1.298 . S
N5456 N5457 1.398 . S
N5457 C5455 1.299 . S
N5457 N5456 1.398 . S
N5458 C5454 1.367 . S
N5458 C5455 1.379 . S
H5459 C5462 0.980 . S
H5460 C5462 0.981 . S
H5461 C5462 0.981 . S
C5462 C5454 1.481 . S
C5462 H5459 0.980 . S
C5462 H5460 0.981 . S
C5462 H5461 0.981 . S
C5463 C5450 1.481 . S
C5463 H5464 0.980 . S
C5463 H5465 0.981 . S
C5463 H5466 0.981 . S
H5464 C5463 0.980 . S
H5465 C5463 0.981 . S
H5466 C5463 0.981 . S
O5467 Zn5443 2.066 . S
O5467 C5446 1.256 . S
O5468 Zn5440 2.053 1_565 S
O5468 C5446 1.244 1_565 S
C5469 O5447 1.259 . S
C5469 O5448 1.254 . S
O5470 Zn5440 2.066 . S
O5470 C5442 1.256 . S
O5471 C5442 1.244 . S
O5471 Zn5443 2.053 . S
Zn5472 O5473 2.055 . S
Zn5472 O5480 2.046 . S
Zn5472 N5488 2.036 . S
Zn5472 O5500 2.053 . S
Zn5472 O5502 2.066 . S
O5473 Zn5472 2.055 . S
O5473 C5476 1.259 . S
C5474 O5502 1.256 . S
C5474 O5503 1.244 . S
Zn5475 O5477 2.046 . S
Zn5475 O5479 2.055 . S
Zn5475 N5481 2.036 . S
Zn5475 O5499 2.066 . S
Zn5475 O5503 2.053 . S
C5476 O5473 1.259 . S
C5476 O5477 1.254 . S
O5477 Zn5475 2.046 . S
O5477 C5476 1.254 . S
C5478 O5499 1.256 1_565 S
C5478 O5500 1.244 1_565 S
O5479 Zn5475 2.055 . S
O5479 C5501 1.259 . S
O5480 Zn5472 2.046 . S
O5480 C5501 1.254 . S
N5481 Zn5475 2.036 . S
N5481 C5482 1.298 . S
N5481 N5484 1.398 . S
C5482 N5481 1.298 . S
C5482 N5485 1.367 . S
C5482 C5495 1.481 1_545 S
C5483 N5484 1.299 . S
C5483 N5485 1.379 . S
N5484 N5481 1.398 . S
N5484 C5483 1.299 . S
N5485 C5482 1.367 . S
N5485 C5483 1.379 . S
C5486 N5488 1.298 . S
C5486 N5490 1.367 . S
C5486 C5494 1.481 . S
C5487 N5489 1.299 . S
C5487 N5490 1.379 . S
N5488 Zn5472 2.036 . S
N5488 C5486 1.298 . S
N5488 N5489 1.398 . S
N5489 C5487 1.299 . S
N5489 N5488 1.398 . S
N5490 C5486 1.367 . S
N5490 C5487 1.379 . S
H5491 C5494 0.980 . S
H5492 C5494 0.981 . S
H5493 C5494 0.981 . S
C5494 C5486 1.481 . S
C5494 H5491 0.980 . S
C5494 H5492 0.981 . S
C5494 H5493 0.981 . S
C5495 C5482 1.481 1_565 S
C5495 H5496 0.980 1_565 S
C5495 H5497 0.981 . S
C5495 H5498 0.981 . S
H5496 C5495 0.980 1_545 S
H5497 C5495 0.981 . S
H5498 C5495 0.981 . S
O5499 Zn5475 2.066 . S
O5499 C5478 1.256 1_545 S
O5500 Zn5472 2.053 . S
O5500 C5478 1.244 1_545 S
C5501 O5479 1.259 . S
C5501 O5480 1.254 . S
O5502 Zn5472 2.066 . S
O5502 C5474 1.256 . S
O5503 C5474 1.244 . S
O5503 Zn5475 2.053 . S
Zn5504 O5505 2.055 . S
Zn5504 O5512 2.046 . S
Zn5504 N5520 2.036 . S
Zn5504 O5532 2.053 . S
Zn5504 O5534 2.066 . S
O5505 Zn5504 2.055 . S
O5505 C5508 1.259 . S
C5506 O5534 1.256 . S
C5506 O5535 1.244 . S
Zn5507 O5509 2.046 . S
Zn5507 O5511 2.055 . S
Zn5507 N5513 2.036 . S
Zn5507 O5531 2.066 . S
Zn5507 O5535 2.053 . S
C5508 O5505 1.259 . S
C5508 O5509 1.254 . S
O5509 Zn5507 2.046 . S
O5509 C5508 1.254 . S
C5510 O5531 1.256 . S
C5510 O5532 1.244 . S
O5511 Zn5507 2.055 . S
O5511 C5533 1.259 . S
O5512 Zn5504 2.046 . S
O5512 C5533 1.254 . S
N5513 Zn5507 2.036 . S
N5513 C5514 1.298 . S
N5513 N5516 1.398 . S
C5514 N5513 1.298 . S
C5514 N5517 1.367 . S
C5514 C5527 1.481 . S
C5515 N5516 1.299 . S
C5515 N5517 1.379 . S
N5516 N5513 1.398 . S
N5516 C5515 1.299 . S
N5517 C5514 1.367 . S
N5517 C5515 1.379 . S
C5518 N5520 1.298 . S
C5518 N5522 1.367 . S
C5518 C5526 1.481 . S
C5519 N5521 1.299 . S
C5519 N5522 1.379 . S
N5520 Zn5504 2.036 . S
N5520 C5518 1.298 . S
N5520 N5521 1.398 . S
N5521 C5519 1.299 . S
N5521 N5520 1.398 . S
N5522 C5518 1.367 . S
N5522 C5519 1.379 . S
H5523 C5526 0.980 . S
H5524 C5526 0.981 . S
H5525 C5526 0.981 . S
C5526 C5518 1.481 . S
C5526 H5523 0.980 . S
C5526 H5524 0.981 . S
C5526 H5525 0.981 . S
C5527 C5514 1.481 . S
C5527 H5528 0.980 . S
C5527 H5529 0.981 . S
C5527 H5530 0.981 . S
H5528 C5527 0.980 . S
H5529 C5527 0.981 . S
H5530 C5527 0.981 . S
O5531 Zn5507 2.066 . S
O5531 C5510 1.256 . S
O5532 Zn5504 2.053 . S
O5532 C5510 1.244 . S
C5533 O5511 1.259 . S
C5533 O5512 1.254 . S
O5534 Zn5504 2.066 . S
O5534 C5506 1.256 . S
O5535 C5506 1.244 . S
O5535 Zn5507 2.053 . S
Zn5536 O5537 2.055 . S
Zn5536 O5544 2.046 . S
Zn5536 N5552 2.036 . S
Zn5536 O5564 2.053 . S
Zn5536 O5566 2.066 . S
O5537 Zn5536 2.055 . S
O5537 C5540 1.259 . S
C5538 O5566 1.256 . S
C5538 O5567 1.244 1_655 S
Zn5539 O5541 2.046 . S
Zn5539 O5543 2.055 . S
Zn5539 N5545 2.036 1_655 S
Zn5539 O5563 2.066 . S
Zn5539 O5567 2.053 1_655 S
C5540 O5537 1.259 . S
C5540 O5541 1.254 . S
O5541 Zn5539 2.046 . S
O5541 C5540 1.254 . S
C5542 O5563 1.256 . S
C5542 O5564 1.244 . S
O5543 Zn5539 2.055 . S
O5543 C5565 1.259 . S
O5544 Zn5536 2.046 . S
O5544 C5565 1.254 . S
N5545 Zn5539 2.036 1_455 S
N5545 C5546 1.298 . S
N5545 N5548 1.398 . S
C5546 N5545 1.298 . S
C5546 N5549 1.367 . S
C5546 C5559 1.481 . S
C5547 N5548 1.299 . S
C5547 N5549 1.379 . S
N5548 N5545 1.398 . S
N5548 C5547 1.299 . S
N5549 C5546 1.367 . S
N5549 C5547 1.379 . S
C5550 N5552 1.298 . S
C5550 N5554 1.367 . S
C5550 C5558 1.481 . S
C5551 N5553 1.299 . S
C5551 N5554 1.379 . S
N5552 Zn5536 2.036 . S
N5552 C5550 1.298 . S
N5552 N5553 1.398 . S
N5553 C5551 1.299 . S
N5553 N5552 1.398 . S
N5554 C5550 1.367 . S
N5554 C5551 1.379 . S
H5555 C5558 0.980 . S
H5556 C5558 0.981 . S
H5557 C5558 0.981 . S
C5558 C5550 1.481 . S
C5558 H5555 0.980 . S
C5558 H5556 0.981 . S
C5558 H5557 0.981 . S
C5559 C5546 1.481 . S
C5559 H5560 0.980 . S
C5559 H5561 0.981 . S
C5559 H5562 0.981 . S
H5560 C5559 0.980 . S
H5561 C5559 0.981 . S
H5562 C5559 0.981 . S
O5563 Zn5539 2.066 . S
O5563 C5542 1.256 . S
O5564 Zn5536 2.053 . S
O5564 C5542 1.244 . S
C5565 O5543 1.259 . S
C5565 O5544 1.254 . S
O5566 Zn5536 2.066 . S
O5566 C5538 1.256 . S
O5567 C5538 1.244 1_455 S
O5567 Zn5539 2.053 1_455 S
Zn5568 O5569 2.055 . S
Zn5568 O5576 2.046 . S
Zn5568 N5584 2.036 . S
Zn5568 O5596 2.053 . S
Zn5568 O5598 2.066 . S
O5569 Zn5568 2.055 . S
O5569 C5572 1.259 . S
C5570 O5598 1.256 . S
C5570 O5599 1.244 . S
Zn5571 O5573 2.046 . S
Zn5571 O5575 2.055 . S
Zn5571 N5577 2.036 . S
Zn5571 O5595 2.066 . S
Zn5571 O5599 2.053 . S
C5572 O5569 1.259 . S
C5572 O5573 1.254 . S
O5573 Zn5571 2.046 . S
O5573 C5572 1.254 . S
C5574 O5595 1.256 . S
C5574 O5596 1.244 . S
O5575 Zn5571 2.055 . S
O5575 C5597 1.259 . S
O5576 Zn5568 2.046 . S
O5576 C5597 1.254 . S
N5577 Zn5571 2.036 . S
N5577 C5578 1.298 . S
N5577 N5580 1.398 . S
C5578 N5577 1.298 . S
C5578 N5581 1.367 . S
C5578 C5591 1.481 . S
C5579 N5580 1.299 . S
C5579 N5581 1.379 . S
N5580 N5577 1.398 . S
N5580 C5579 1.299 . S
N5581 C5578 1.367 . S
N5581 C5579 1.379 . S
C5582 N5584 1.298 . S
C5582 N5586 1.367 . S
C5582 C5590 1.481 . S
C5583 N5585 1.299 . S
C5583 N5586 1.379 . S
N5584 Zn5568 2.036 . S
N5584 C5582 1.298 . S
N5584 N5585 1.398 . S
N5585 C5583 1.299 . S
N5585 N5584 1.398 . S
N5586 C5582 1.367 . S
N5586 C5583 1.379 . S
H5587 C5590 0.980 . S
H5588 C5590 0.981 . S
H5589 C5590 0.981 . S
C5590 C5582 1.481 . S
C5590 H5587 0.980 . S
C5590 H5588 0.981 . S
C5590 H5589 0.981 . S
C5591 C5578 1.481 . S
C5591 H5592 0.980 . S
C5591 H5593 0.981 . S
C5591 H5594 0.981 . S
H5592 C5591 0.980 . S
H5593 C5591 0.981 . S
H5594 C5591 0.981 . S
O5595 Zn5571 2.066 . S
O5595 C5574 1.256 . S
O5596 Zn5568 2.053 . S
O5596 C5574 1.244 . S
C5597 O5575 1.259 . S
C5597 O5576 1.254 . S
O5598 Zn5568 2.066 . S
O5598 C5570 1.256 . S
O5599 C5570 1.244 . S
O5599 Zn5571 2.053 . S
Zn5600 O5601 2.055 . S
Zn5600 O5608 2.046 . S
Zn5600 N5616 2.036 . S
Zn5600 O5628 2.053 . S
Zn5600 O5630 2.066 . S
O5601 Zn5600 2.055 . S
O5601 C5604 1.259 . S
C5602 O5630 1.256 1_565 S
C5602 O5631 1.244 1_565 S
Zn5603 O5605 2.046 . S
Zn5603 O5607 2.055 . S
Zn5603 N5609 2.036 . S
Zn5603 O5627 2.066 . S
Zn5603 O5631 2.053 . S
C5604 O5601 1.259 . S
C5604 O5605 1.254 . S
O5605 Zn5603 2.046 . S
O5605 C5604 1.254 . S
C5606 O5627 1.256 . S
C5606 O5628 1.244 . S
O5607 Zn5603 2.055 . S
O5607 C5629 1.259 . S
O5608 Zn5600 2.046 . S
O5608 C5629 1.254 . S
N5609 Zn5603 2.036 . S
N5609 C5610 1.298 . S
N5609 N5612 1.398 . S
C5610 N5609 1.298 . S
C5610 N5613 1.367 . S
C5610 C5623 1.481 . S
C5611 N5612 1.299 . S
C5611 N5613 1.379 . S
N5612 N5609 1.398 . S
N5612 C5611 1.299 . S
N5613 C5610 1.367 . S
N5613 C5611 1.379 . S
C5614 N5616 1.298 . S
C5614 N5618 1.367 . S
C5614 C5622 1.481 1_545 S
C5615 N5617 1.299 . S
C5615 N5618 1.379 . S
N5616 Zn5600 2.036 . S
N5616 C5614 1.298 . S
N5616 N5617 1.398 . S
N5617 C5615 1.299 . S
N5617 N5616 1.398 . S
N5618 C5614 1.367 . S
N5618 C5615 1.379 . S
H5619 C5622 0.980 1_545 S
H5620 C5622 0.981 . S
H5621 C5622 0.981 . S
C5622 C5614 1.481 1_565 S
C5622 H5619 0.980 1_565 S
C5622 H5620 0.981 . S
C5622 H5621 0.981 . S
C5623 C5610 1.481 . S
C5623 H5624 0.980 . S
C5623 H5625 0.981 . S
C5623 H5626 0.981 . S
H5624 C5623 0.980 . S
H5625 C5623 0.981 . S
H5626 C5623 0.981 . S
O5627 Zn5603 2.066 . S
O5627 C5606 1.256 . S
O5628 Zn5600 2.053 . S
O5628 C5606 1.244 . S
C5629 O5607 1.259 . S
C5629 O5608 1.254 . S
O5630 Zn5600 2.066 . S
O5630 C5602 1.256 1_545 S
O5631 C5602 1.244 1_545 S
O5631 Zn5603 2.053 . S
Zn5632 O5633 2.055 . S
Zn5632 O5640 2.046 . S
Zn5632 N5648 2.036 . S
Zn5632 O5660 2.053 . S
Zn5632 O5662 2.066 . S
O5633 Zn5632 2.055 . S
O5633 C5636 1.259 . S
C5634 O5662 1.256 . S
C5634 O5663 1.244 . S
Zn5635 O5637 2.046 . S
Zn5635 O5639 2.055 . S
Zn5635 N5641 2.036 . S
Zn5635 O5659 2.066 . S
Zn5635 O5663 2.053 . S
C5636 O5633 1.259 . S
C5636 O5637 1.254 . S
O5637 Zn5635 2.046 . S
O5637 C5636 1.254 . S
C5638 O5659 1.256 . S
C5638 O5660 1.244 . S
O5639 Zn5635 2.055 . S
O5639 C5661 1.259 . S
O5640 Zn5632 2.046 . S
O5640 C5661 1.254 . S
N5641 Zn5635 2.036 . S
N5641 C5642 1.298 . S
N5641 N5644 1.398 . S
C5642 N5641 1.298 . S
C5642 N5645 1.367 . S
C5642 C5655 1.481 . S
C5643 N5644 1.299 . S
C5643 N5645 1.379 . S
N5644 N5641 1.398 . S
N5644 C5643 1.299 . S
N5645 C5642 1.367 . S
N5645 C5643 1.379 . S
C5646 N5648 1.298 . S
C5646 N5650 1.367 . S
C5646 C5654 1.481 . S
C5647 N5649 1.299 . S
C5647 N5650 1.379 . S
N5648 Zn5632 2.036 . S
N5648 C5646 1.298 . S
N5648 N5649 1.398 . S
N5649 C5647 1.299 . S
N5649 N5648 1.398 . S
N5650 C5646 1.367 . S
N5650 C5647 1.379 . S
H5651 C5654 0.980 . S
H5652 C5654 0.981 . S
H5653 C5654 0.981 . S
C5654 C5646 1.481 . S
C5654 H5651 0.980 . S
C5654 H5652 0.981 . S
C5654 H5653 0.981 . S
C5655 C5642 1.481 . S
C5655 H5656 0.980 . S
C5655 H5657 0.981 . S
C5655 H5658 0.981 . S
H5656 C5655 0.980 . S
H5657 C5655 0.981 . S
H5658 C5655 0.981 . S
O5659 Zn5635 2.066 . S
O5659 C5638 1.256 . S
O5660 Zn5632 2.053 . S
O5660 C5638 1.244 . S
C5661 O5639 1.259 . S
C5661 O5640 1.254 . S
O5662 Zn5632 2.066 . S
O5662 C5634 1.256 . S
O5663 C5634 1.244 . S
O5663 Zn5635 2.053 . S
Zn5664 O5665 2.055 . S
Zn5664 O5672 2.046 . S
Zn5664 N5680 2.036 . S
Zn5664 O5692 2.053 . S
Zn5664 O5694 2.066 . S
O5665 Zn5664 2.055 . S
O5665 C5668 1.259 . S
C5666 O5694 1.256 . S
C5666 O5695 1.244 . S
Zn5667 O5669 2.046 . S
Zn5667 O5671 2.055 . S
Zn5667 N5673 2.036 . S
Zn5667 O5691 2.066 . S
Zn5667 O5695 2.053 . S
C5668 O5665 1.259 . S
C5668 O5669 1.254 . S
O5669 Zn5667 2.046 . S
O5669 C5668 1.254 . S
C5670 O5691 1.256 1_655 S
C5670 O5692 1.244 1_655 S
O5671 Zn5667 2.055 . S
O5671 C5693 1.259 . S
O5672 Zn5664 2.046 . S
O5672 C5693 1.254 . S
N5673 Zn5667 2.036 . S
N5673 C5674 1.298 . S
N5673 N5676 1.398 . S
C5674 N5673 1.298 . S
C5674 N5677 1.367 . S
C5674 C5687 1.481 1_455 S
C5675 N5676 1.299 . S
C5675 N5677 1.379 . S
N5676 N5673 1.398 . S
N5676 C5675 1.299 . S
N5677 C5674 1.367 . S
N5677 C5675 1.379 . S
C5678 N5680 1.298 . S
C5678 N5682 1.367 . S
C5678 C5686 1.481 . S
C5679 N5681 1.299 . S
C5679 N5682 1.379 . S
N5680 Zn5664 2.036 . S
N5680 C5678 1.298 . S
N5680 N5681 1.398 . S
N5681 C5679 1.299 . S
N5681 N5680 1.398 . S
N5682 C5678 1.367 . S
N5682 C5679 1.379 . S
H5683 C5686 0.980 . S
H5684 C5686 0.981 . S
H5685 C5686 0.981 . S
C5686 C5678 1.481 . S
C5686 H5683 0.980 . S
C5686 H5684 0.981 . S
C5686 H5685 0.981 . S
C5687 C5674 1.481 1_655 S
C5687 H5688 0.980 1_655 S
C5687 H5689 0.981 . S
C5687 H5690 0.981 . S
H5688 C5687 0.980 1_455 S
H5689 C5687 0.981 . S
H5690 C5687 0.981 . S
O5691 Zn5667 2.066 . S
O5691 C5670 1.256 1_455 S
O5692 Zn5664 2.053 . S
O5692 C5670 1.244 1_455 S
C5693 O5671 1.259 . S
C5693 O5672 1.254 . S
O5694 Zn5664 2.066 . S
O5694 C5666 1.256 . S
O5695 C5666 1.244 . S
O5695 Zn5667 2.053 . S
Zn5696 O5697 2.055 . S
Zn5696 O5704 2.046 . S
Zn5696 N5712 2.036 . S
Zn5696 O5724 2.053 . S
Zn5696 O5726 2.066 . S
O5697 Zn5696 2.055 . S
O5697 C5700 1.259 . S
C5698 O5726 1.256 . S
C5698 O5727 1.244 . S
Zn5699 O5701 2.046 . S
Zn5699 O5703 2.055 . S
Zn5699 N5705 2.036 . S
Zn5699 O5723 2.066 . S
Zn5699 O5727 2.053 . S
C5700 O5697 1.259 . S
C5700 O5701 1.254 . S
O5701 Zn5699 2.046 . S
O5701 C5700 1.254 . S
C5702 O5723 1.256 . S
C5702 O5724 1.244 . S
O5703 Zn5699 2.055 . S
O5703 C5725 1.259 . S
O5704 Zn5696 2.046 . S
O5704 C5725 1.254 . S
N5705 Zn5699 2.036 . S
N5705 C5706 1.298 . S
N5705 N5708 1.398 . S
C5706 N5705 1.298 . S
C5706 N5709 1.367 . S
C5706 C5719 1.481 . S
C5707 N5708 1.299 . S
C5707 N5709 1.379 . S
N5708 N5705 1.398 . S
N5708 C5707 1.299 . S
N5709 C5706 1.367 . S
N5709 C5707 1.379 . S
C5710 N5712 1.298 . S
C5710 N5714 1.367 . S
C5710 C5718 1.481 . S
C5711 N5713 1.299 . S
C5711 N5714 1.379 . S
N5712 Zn5696 2.036 . S
N5712 C5710 1.298 . S
N5712 N5713 1.398 . S
N5713 C5711 1.299 . S
N5713 N5712 1.398 . S
N5714 C5710 1.367 . S
N5714 C5711 1.379 . S
H5715 C5718 0.980 . S
H5716 C5718 0.981 . S
H5717 C5718 0.981 . S
C5718 C5710 1.481 . S
C5718 H5715 0.980 . S
C5718 H5716 0.981 . S
C5718 H5717 0.981 . S
C5719 C5706 1.481 . S
C5719 H5720 0.980 . S
C5719 H5721 0.981 . S
C5719 H5722 0.981 . S
H5720 C5719 0.980 . S
H5721 C5719 0.981 . S
H5722 C5719 0.981 . S
O5723 Zn5699 2.066 . S
O5723 C5702 1.256 . S
O5724 Zn5696 2.053 . S
O5724 C5702 1.244 . S
C5725 O5703 1.259 . S
C5725 O5704 1.254 . S
O5726 Zn5696 2.066 . S
O5726 C5698 1.256 . S
O5727 C5698 1.244 . S
O5727 Zn5699 2.053 . S
Zn5728 O5729 2.055 . S
Zn5728 O5736 2.046 . S
Zn5728 N5744 2.036 1_556 S
Zn5728 O5756 2.053 1_556 S
Zn5728 O5758 2.066 . S
O5729 Zn5728 2.055 . S
O5729 C5732 1.259 . S
C5730 O5758 1.256 . S
C5730 O5759 1.244 . S
Zn5731 O5733 2.046 . S
Zn5731 O5735 2.055 . S
Zn5731 N5737 2.036 . S
Zn5731 O5755 2.066 . S
Zn5731 O5759 2.053 . S
C5732 O5729 1.259 . S
C5732 O5733 1.254 . S
O5733 Zn5731 2.046 . S
O5733 C5732 1.254 . S
C5734 O5755 1.256 . S
C5734 O5756 1.244 1_556 S
O5735 Zn5731 2.055 . S
O5735 C5757 1.259 . S
O5736 Zn5728 2.046 . S
O5736 C5757 1.254 . S
N5737 Zn5731 2.036 . S
N5737 C5738 1.298 . S
N5737 N5740 1.398 . S
C5738 N5737 1.298 . S
C5738 N5741 1.367 . S
C5738 C5751 1.481 . S
C5739 N5740 1.299 . S
C5739 N5741 1.379 . S
N5740 N5737 1.398 . S
N5740 C5739 1.299 . S
N5741 C5738 1.367 . S
N5741 C5739 1.379 . S
C5742 N5744 1.298 . S
C5742 N5746 1.367 . S
C5742 C5750 1.481 . S
C5743 N5745 1.299 . S
C5743 N5746 1.379 . S
N5744 Zn5728 2.036 1_554 S
N5744 C5742 1.298 . S
N5744 N5745 1.398 . S
N5745 C5743 1.299 . S
N5745 N5744 1.398 . S
N5746 C5742 1.367 . S
N5746 C5743 1.379 . S
H5747 C5750 0.980 . S
H5748 C5750 0.981 . S
H5749 C5750 0.981 . S
C5750 C5742 1.481 . S
C5750 H5747 0.980 . S
C5750 H5748 0.981 . S
C5750 H5749 0.981 . S
C5751 C5738 1.481 . S
C5751 H5752 0.980 . S
C5751 H5753 0.981 . S
C5751 H5754 0.981 . S
H5752 C5751 0.980 . S
H5753 C5751 0.981 . S
H5754 C5751 0.981 . S
O5755 Zn5731 2.066 . S
O5755 C5734 1.256 . S
O5756 Zn5728 2.053 1_554 S
O5756 C5734 1.244 1_554 S
C5757 O5735 1.259 . S
C5757 O5736 1.254 . S
O5758 Zn5728 2.066 . S
O5758 C5730 1.256 . S
O5759 C5730 1.244 . S
O5759 Zn5731 2.053 . S
Zn5760 O5761 2.055 . S
Zn5760 O5768 2.046 . S
Zn5760 N5776 2.036 . S
Zn5760 O5788 2.053 . S
Zn5760 O5790 2.066 . S
O5761 Zn5760 2.055 . S
O5761 C5764 1.259 . S
C5762 O5790 1.256 . S
C5762 O5791 1.244 1_554 S
Zn5763 O5765 2.046 . S
Zn5763 O5767 2.055 . S
Zn5763 N5769 2.036 1_554 S
Zn5763 O5787 2.066 . S
Zn5763 O5791 2.053 1_554 S
C5764 O5761 1.259 . S
C5764 O5765 1.254 . S
O5765 Zn5763 2.046 . S
O5765 C5764 1.254 . S
C5766 O5787 1.256 . S
C5766 O5788 1.244 . S
O5767 Zn5763 2.055 . S
O5767 C5789 1.259 . S
O5768 Zn5760 2.046 . S
O5768 C5789 1.254 . S
N5769 Zn5763 2.036 1_556 S
N5769 C5770 1.298 . S
N5769 N5772 1.398 . S
C5770 N5769 1.298 . S
C5770 N5773 1.367 . S
C5770 C5783 1.481 . S
C5771 N5772 1.299 . S
C5771 N5773 1.379 . S
N5772 N5769 1.398 . S
N5772 C5771 1.299 . S
N5773 C5770 1.367 . S
N5773 C5771 1.379 . S
C5774 N5776 1.298 . S
C5774 N5778 1.367 . S
C5774 C5782 1.481 . S
C5775 N5777 1.299 . S
C5775 N5778 1.379 . S
N5776 Zn5760 2.036 . S
N5776 C5774 1.298 . S
N5776 N5777 1.398 . S
N5777 C5775 1.299 . S
N5777 N5776 1.398 . S
N5778 C5774 1.367 . S
N5778 C5775 1.379 . S
H5779 C5782 0.980 . S
H5780 C5782 0.981 . S
H5781 C5782 0.981 . S
C5782 C5774 1.481 . S
C5782 H5779 0.980 . S
C5782 H5780 0.981 . S
C5782 H5781 0.981 . S
C5783 C5770 1.481 . S
C5783 H5784 0.980 . S
C5783 H5785 0.981 . S
C5783 H5786 0.981 . S
H5784 C5783 0.980 . S
H5785 C5783 0.981 . S
H5786 C5783 0.981 . S
O5787 Zn5763 2.066 . S
O5787 C5766 1.256 . S
O5788 Zn5760 2.053 . S
O5788 C5766 1.244 . S
C5789 O5767 1.259 . S
C5789 O5768 1.254 . S
O5790 Zn5760 2.066 . S
O5790 C5762 1.256 . S
O5791 C5762 1.244 1_556 S
O5791 Zn5763 2.053 1_556 S
Zn5792 O5793 2.055 . S
Zn5792 O5800 2.046 . S
Zn5792 N5808 2.036 . S
Zn5792 O5820 2.053 . S
Zn5792 O5822 2.066 . S
O5793 Zn5792 2.055 . S
O5793 C5796 1.259 . S
C5794 O5822 1.256 . S
C5794 O5823 1.244 . S
Zn5795 O5797 2.046 . S
Zn5795 O5799 2.055 . S
Zn5795 N5801 2.036 . S
Zn5795 O5819 2.066 . S
Zn5795 O5823 2.053 . S
C5796 O5793 1.259 . S
C5796 O5797 1.254 . S
O5797 Zn5795 2.046 . S
O5797 C5796 1.254 . S
C5798 O5819 1.256 . S
C5798 O5820 1.244 . S
O5799 Zn5795 2.055 . S
O5799 C5821 1.259 . S
O5800 Zn5792 2.046 . S
O5800 C5821 1.254 . S
N5801 Zn5795 2.036 . S
N5801 C5802 1.298 . S
N5801 N5804 1.398 . S
C5802 N5801 1.298 . S
C5802 N5805 1.367 . S
C5802 C5815 1.481 . S
C5803 N5804 1.299 . S
C5803 N5805 1.379 . S
N5804 N5801 1.398 . S
N5804 C5803 1.299 . S
N5805 C5802 1.367 . S
N5805 C5803 1.379 . S
C5806 N5808 1.298 . S
C5806 N5810 1.367 . S
C5806 C5814 1.481 . S
C5807 N5809 1.299 . S
C5807 N5810 1.379 . S
N5808 Zn5792 2.036 . S
N5808 C5806 1.298 . S
N5808 N5809 1.398 . S
N5809 C5807 1.299 . S
N5809 N5808 1.398 . S
N5810 C5806 1.367 . S
N5810 C5807 1.379 . S
H5811 C5814 0.980 . S
H5812 C5814 0.981 . S
H5813 C5814 0.981 . S
C5814 C5806 1.481 . S
C5814 H5811 0.980 . S
C5814 H5812 0.981 . S
C5814 H5813 0.981 . S
C5815 C5802 1.481 . S
C5815 H5816 0.980 . S
C5815 H5817 0.981 . S
C5815 H5818 0.981 . S
H5816 C5815 0.980 . S
H5817 C5815 0.981 . S
H5818 C5815 0.981 . S
O5819 Zn5795 2.066 . S
O5819 C5798 1.256 . S
O5820 Zn5792 2.053 . S
O5820 C5798 1.244 . S
C5821 O5799 1.259 . S
C5821 O5800 1.254 . S
O5822 Zn5792 2.066 . S
O5822 C5794 1.256 . S
O5823 C5794 1.244 . S
O5823 Zn5795 2.053 . S
Zn5824 O5825 2.055 . S
Zn5824 O5832 2.046 . S
Zn5824 N5840 2.036 . S
Zn5824 O5852 2.053 . S
Zn5824 O5854 2.066 . S
O5825 Zn5824 2.055 . S
O5825 C5828 1.259 . S
C5826 O5854 1.256 . S
C5826 O5855 1.244 . S
Zn5827 O5829 2.046 . S
Zn5827 O5831 2.055 . S
Zn5827 N5833 2.036 . S
Zn5827 O5851 2.066 . S
Zn5827 O5855 2.053 . S
C5828 O5825 1.259 . S
C5828 O5829 1.254 . S
O5829 Zn5827 2.046 . S
O5829 C5828 1.254 . S
C5830 O5851 1.256 1_545 S
C5830 O5852 1.244 1_545 S
O5831 Zn5827 2.055 . S
O5831 C5853 1.259 . S
O5832 Zn5824 2.046 . S
O5832 C5853 1.254 . S
N5833 Zn5827 2.036 . S
N5833 C5834 1.298 . S
N5833 N5836 1.398 . S
C5834 N5833 1.298 . S
C5834 N5837 1.367 . S
C5834 C5847 1.481 1_565 S
C5835 N5836 1.299 . S
C5835 N5837 1.379 . S
N5836 N5833 1.398 . S
N5836 C5835 1.299 . S
N5837 C5834 1.367 . S
N5837 C5835 1.379 . S
C5838 N5840 1.298 . S
C5838 N5842 1.367 . S
C5838 C5846 1.481 . S
C5839 N5841 1.299 . S
C5839 N5842 1.379 . S
N5840 Zn5824 2.036 . S
N5840 C5838 1.298 . S
N5840 N5841 1.398 . S
N5841 C5839 1.299 . S
N5841 N5840 1.398 . S
N5842 C5838 1.367 . S
N5842 C5839 1.379 . S
H5843 C5846 0.980 . S
H5844 C5846 0.981 . S
H5845 C5846 0.981 . S
C5846 C5838 1.481 . S
C5846 H5843 0.980 . S
C5846 H5844 0.981 . S
C5846 H5845 0.981 . S
C5847 C5834 1.481 1_545 S
C5847 H5848 0.980 1_545 S
C5847 H5849 0.981 . S
C5847 H5850 0.981 . S
H5848 C5847 0.980 1_565 S
H5849 C5847 0.981 . S
H5850 C5847 0.981 . S
O5851 Zn5827 2.066 . S
O5851 C5830 1.256 1_565 S
O5852 Zn5824 2.053 . S
O5852 C5830 1.244 1_565 S
C5853 O5831 1.259 . S
C5853 O5832 1.254 . S
O5854 Zn5824 2.066 . S
O5854 C5826 1.256 . S
O5855 C5826 1.244 . S
O5855 Zn5827 2.053 . S
Zn5856 O5857 2.055 . S
Zn5856 O5864 2.046 . S
Zn5856 N5872 2.036 . S
Zn5856 O5884 2.053 . S
Zn5856 O5886 2.066 . S
O5857 Zn5856 2.055 . S
O5857 C5860 1.259 . S
C5858 O5886 1.256 . S
C5858 O5887 1.244 . S
Zn5859 O5861 2.046 . S
Zn5859 O5863 2.055 . S
Zn5859 N5865 2.036 . S
Zn5859 O5883 2.066 . S
Zn5859 O5887 2.053 . S
C5860 O5857 1.259 . S
C5860 O5861 1.254 . S
O5861 Zn5859 2.046 . S
O5861 C5860 1.254 . S
C5862 O5883 1.256 . S
C5862 O5884 1.244 . S
O5863 Zn5859 2.055 . S
O5863 C5885 1.259 . S
O5864 Zn5856 2.046 . S
O5864 C5885 1.254 . S
N5865 Zn5859 2.036 . S
N5865 C5866 1.298 . S
N5865 N5868 1.398 . S
C5866 N5865 1.298 . S
C5866 N5869 1.367 . S
C5866 C5879 1.481 . S
C5867 N5868 1.299 . S
C5867 N5869 1.379 . S
N5868 N5865 1.398 . S
N5868 C5867 1.299 . S
N5869 C5866 1.367 . S
N5869 C5867 1.379 . S
C5870 N5872 1.298 . S
C5870 N5874 1.367 . S
C5870 C5878 1.481 . S
C5871 N5873 1.299 . S
C5871 N5874 1.379 . S
N5872 Zn5856 2.036 . S
N5872 C5870 1.298 . S
N5872 N5873 1.398 . S
N5873 C5871 1.299 . S
N5873 N5872 1.398 . S
N5874 C5870 1.367 . S
N5874 C5871 1.379 . S
H5875 C5878 0.980 . S
H5876 C5878 0.981 . S
H5877 C5878 0.981 . S
C5878 C5870 1.481 . S
C5878 H5875 0.980 . S
C5878 H5876 0.981 . S
C5878 H5877 0.981 . S
C5879 C5866 1.481 . S
C5879 H5880 0.980 . S
C5879 H5881 0.981 . S
C5879 H5882 0.981 . S
H5880 C5879 0.980 . S
H5881 C5879 0.981 . S
H5882 C5879 0.981 . S
O5883 Zn5859 2.066 . S
O5883 C5862 1.256 . S
O5884 Zn5856 2.053 . S
O5884 C5862 1.244 . S
C5885 O5863 1.259 . S
C5885 O5864 1.254 . S
O5886 Zn5856 2.066 . S
O5886 C5858 1.256 . S
O5887 C5858 1.244 . S
O5887 Zn5859 2.053 . S
Zn5888 O5889 2.055 . S
Zn5888 O5896 2.046 . S
Zn5888 N5904 2.036 . S
Zn5888 O5916 2.053 . S
Zn5888 O5918 2.066 . S
O5889 Zn5888 2.055 . S
O5889 C5892 1.259 . S
C5890 O5918 1.256 1_554 S
C5890 O5919 1.244 1_554 S
Zn5891 O5893 2.046 . S
Zn5891 O5895 2.055 . S
Zn5891 N5897 2.036 . S
Zn5891 O5915 2.066 . S
Zn5891 O5919 2.053 . S
C5892 O5889 1.259 . S
C5892 O5893 1.254 . S
O5893 Zn5891 2.046 . S
O5893 C5892 1.254 . S
C5894 O5915 1.256 . S
C5894 O5916 1.244 . S
O5895 Zn5891 2.055 . S
O5895 C5917 1.259 . S
O5896 Zn5888 2.046 . S
O5896 C5917 1.254 . S
N5897 Zn5891 2.036 . S
N5897 C5898 1.298 . S
N5897 N5900 1.398 . S
C5898 N5897 1.298 . S
C5898 N5901 1.367 . S
C5898 C5911 1.481 . S
C5899 N5900 1.299 . S
C5899 N5901 1.379 . S
N5900 N5897 1.398 . S
N5900 C5899 1.299 . S
N5901 C5898 1.367 . S
N5901 C5899 1.379 . S
C5902 N5904 1.298 . S
C5902 N5906 1.367 . S
C5902 C5910 1.481 1_556 S
C5903 N5905 1.299 . S
C5903 N5906 1.379 . S
N5904 Zn5888 2.036 . S
N5904 C5902 1.298 . S
N5904 N5905 1.398 . S
N5905 C5903 1.299 . S
N5905 N5904 1.398 . S
N5906 C5902 1.367 . S
N5906 C5903 1.379 . S
H5907 C5910 0.980 1_556 S
H5908 C5910 0.981 . S
H5909 C5910 0.981 . S
C5910 C5902 1.481 1_554 S
C5910 H5907 0.980 1_554 S
C5910 H5908 0.981 . S
C5910 H5909 0.981 . S
C5911 C5898 1.481 . S
C5911 H5912 0.980 . S
C5911 H5913 0.981 . S
C5911 H5914 0.981 . S
H5912 C5911 0.980 . S
H5913 C5911 0.981 . S
H5914 C5911 0.981 . S
O5915 Zn5891 2.066 . S
O5915 C5894 1.256 . S
O5916 Zn5888 2.053 . S
O5916 C5894 1.244 . S
C5917 O5895 1.259 . S
C5917 O5896 1.254 . S
O5918 Zn5888 2.066 . S
O5918 C5890 1.256 1_556 S
O5919 C5890 1.244 1_556 S
O5919 Zn5891 2.053 . S
Zn5920 O5921 2.055 . S
Zn5920 O5928 2.046 . S
Zn5920 N5936 2.036 . S
Zn5920 O5948 2.053 . S
Zn5920 O5950 2.066 . S
O5921 Zn5920 2.055 . S
O5921 C5924 1.259 . S
C5922 O5950 1.256 . S
C5922 O5951 1.244 . S
Zn5923 O5925 2.046 . S
Zn5923 O5927 2.055 . S
Zn5923 N5929 2.036 . S
Zn5923 O5947 2.066 . S
Zn5923 O5951 2.053 . S
C5924 O5921 1.259 . S
C5924 O5925 1.254 . S
O5925 Zn5923 2.046 . S
O5925 C5924 1.254 . S
C5926 O5947 1.256 . S
C5926 O5948 1.244 . S
O5927 Zn5923 2.055 . S
O5927 C5949 1.259 . S
O5928 Zn5920 2.046 . S
O5928 C5949 1.254 . S
N5929 Zn5923 2.036 . S
N5929 C5930 1.298 . S
N5929 N5932 1.398 . S
C5930 N5929 1.298 . S
C5930 N5933 1.367 . S
C5930 C5943 1.481 . S
C5931 N5932 1.299 . S
C5931 N5933 1.379 . S
N5932 N5929 1.398 . S
N5932 C5931 1.299 . S
N5933 C5930 1.367 . S
N5933 C5931 1.379 . S
C5934 N5936 1.298 . S
C5934 N5938 1.367 . S
C5934 C5942 1.481 . S
C5935 N5937 1.299 . S
C5935 N5938 1.379 . S
N5936 Zn5920 2.036 . S
N5936 C5934 1.298 . S
N5936 N5937 1.398 . S
N5937 C5935 1.299 . S
N5937 N5936 1.398 . S
N5938 C5934 1.367 . S
N5938 C5935 1.379 . S
H5939 C5942 0.980 . S
H5940 C5942 0.981 . S
H5941 C5942 0.981 . S
C5942 C5934 1.481 . S
C5942 H5939 0.980 . S
C5942 H5940 0.981 . S
C5942 H5941 0.981 . S
C5943 C5930 1.481 . S
C5943 H5944 0.980 . S
C5943 H5945 0.981 . S
C5943 H5946 0.981 . S
H5944 C5943 0.980 . S
H5945 C5943 0.981 . S
H5946 C5943 0.981 . S
O5947 Zn5923 2.066 . S
O5947 C5926 1.256 . S
O5948 Zn5920 2.053 . S
O5948 C5926 1.244 . S
C5949 O5927 1.259 . S
C5949 O5928 1.254 . S
O5950 Zn5920 2.066 . S
O5950 C5922 1.256 . S
O5951 C5922 1.244 . S
O5951 Zn5923 2.053 . S
Zn5952 O5953 2.055 . S
Zn5952 O5960 2.046 . S
Zn5952 N5968 2.036 . S
Zn5952 O5980 2.053 . S
Zn5952 O5982 2.066 . S
O5953 Zn5952 2.055 . S
O5953 C5956 1.259 . S
C5954 O5982 1.256 1_556 S
C5954 O5983 1.244 1_556 S
Zn5955 O5957 2.046 . S
Zn5955 O5959 2.055 . S
Zn5955 N5961 2.036 . S
Zn5955 O5979 2.066 . S
Zn5955 O5983 2.053 . S
C5956 O5953 1.259 . S
C5956 O5957 1.254 . S
O5957 Zn5955 2.046 . S
O5957 C5956 1.254 . S
C5958 O5979 1.256 . S
C5958 O5980 1.244 . S
O5959 Zn5955 2.055 . S
O5959 C5981 1.259 . S
O5960 Zn5952 2.046 . S
O5960 C5981 1.254 . S
N5961 Zn5955 2.036 . S
N5961 C5962 1.298 . S
N5961 N5964 1.398 . S
C5962 N5961 1.298 . S
C5962 N5965 1.367 . S
C5962 C5975 1.481 . S
C5963 N5964 1.299 . S
C5963 N5965 1.379 . S
N5964 N5961 1.398 . S
N5964 C5963 1.299 . S
N5965 C5962 1.367 . S
N5965 C5963 1.379 . S
C5966 N5968 1.298 . S
C5966 N5970 1.367 . S
C5966 C5974 1.481 1_554 S
C5967 N5969 1.299 . S
C5967 N5970 1.379 . S
N5968 Zn5952 2.036 . S
N5968 C5966 1.298 . S
N5968 N5969 1.398 . S
N5969 C5967 1.299 . S
N5969 N5968 1.398 . S
N5970 C5966 1.367 . S
N5970 C5967 1.379 . S
H5971 C5974 0.980 1_554 S
H5972 C5974 0.981 . S
H5973 C5974 0.981 . S
C5974 C5966 1.481 1_556 S
C5974 H5971 0.980 1_556 S
C5974 H5972 0.981 . S
C5974 H5973 0.981 . S
C5975 C5962 1.481 . S
C5975 H5976 0.980 . S
C5975 H5977 0.981 . S
C5975 H5978 0.981 . S
H5976 C5975 0.980 . S
H5977 C5975 0.981 . S
H5978 C5975 0.981 . S
O5979 Zn5955 2.066 . S
O5979 C5958 1.256 . S
O5980 Zn5952 2.053 . S
O5980 C5958 1.244 . S
C5981 O5959 1.259 . S
C5981 O5960 1.254 . S
O5982 Zn5952 2.066 . S
O5982 C5954 1.256 1_554 S
O5983 C5954 1.244 1_554 S
O5983 Zn5955 2.053 . S
Zn5984 O5985 2.055 . S
Zn5984 O5992 2.046 . S
Zn5984 N6000 2.036 . S
Zn5984 O6012 2.053 . S
Zn5984 O6014 2.066 . S
O5985 Zn5984 2.055 . S
O5985 C5988 1.259 . S
C5986 O6014 1.256 . S
C5986 O6015 1.244 1_455 S
Zn5987 O5989 2.046 . S
Zn5987 O5991 2.055 . S
Zn5987 N5993 2.036 1_455 S
Zn5987 O6011 2.066 . S
Zn5987 O6015 2.053 1_455 S
C5988 O5985 1.259 . S
C5988 O5989 1.254 . S
O5989 Zn5987 2.046 . S
O5989 C5988 1.254 . S
C5990 O6011 1.256 . S
C5990 O6012 1.244 . S
O5991 Zn5987 2.055 . S
O5991 C6013 1.259 . S
O5992 Zn5984 2.046 . S
O5992 C6013 1.254 . S
N5993 Zn5987 2.036 1_655 S
N5993 C5994 1.298 . S
N5993 N5996 1.398 . S
C5994 N5993 1.298 . S
C5994 N5997 1.367 . S
C5994 C6007 1.481 . S
C5995 N5996 1.299 . S
C5995 N5997 1.379 . S
N5996 N5993 1.398 . S
N5996 C5995 1.299 . S
N5997 C5994 1.367 . S
N5997 C5995 1.379 . S
C5998 N6000 1.298 . S
C5998 N6002 1.367 . S
C5998 C6006 1.481 . S
C5999 N6001 1.299 . S
C5999 N6002 1.379 . S
N6000 Zn5984 2.036 . S
N6000 C5998 1.298 . S
N6000 N6001 1.398 . S
N6001 C5999 1.299 . S
N6001 N6000 1.398 . S
N6002 C5998 1.367 . S
N6002 C5999 1.379 . S
H6003 C6006 0.980 . S
H6004 C6006 0.981 . S
H6005 C6006 0.981 . S
C6006 C5998 1.481 . S
C6006 H6003 0.980 . S
C6006 H6004 0.981 . S
C6006 H6005 0.981 . S
C6007 C5994 1.481 . S
C6007 H6008 0.980 . S
C6007 H6009 0.981 . S
C6007 H6010 0.981 . S
H6008 C6007 0.980 . S
H6009 C6007 0.981 . S
H6010 C6007 0.981 . S
O6011 Zn5987 2.066 . S
O6011 C5990 1.256 . S
O6012 Zn5984 2.053 . S
O6012 C5990 1.244 . S
C6013 O5991 1.259 . S
C6013 O5992 1.254 . S
O6014 Zn5984 2.066 . S
O6014 C5986 1.256 . S
O6015 C5986 1.244 1_655 S
O6015 Zn5987 2.053 1_655 S
Zn6016 O6017 2.055 . S
Zn6016 O6024 2.046 . S
Zn6016 N6032 2.036 . S
Zn6016 O6044 2.053 . S
Zn6016 O6046 2.066 . S
O6017 Zn6016 2.055 . S
O6017 C6020 1.259 . S
C6018 O6046 1.256 . S
C6018 O6047 1.244 . S
Zn6019 O6021 2.046 . S
Zn6019 O6023 2.055 . S
Zn6019 N6025 2.036 . S
Zn6019 O6043 2.066 . S
Zn6019 O6047 2.053 . S
C6020 O6017 1.259 . S
C6020 O6021 1.254 . S
O6021 Zn6019 2.046 . S
O6021 C6020 1.254 . S
C6022 O6043 1.256 . S
C6022 O6044 1.244 . S
O6023 Zn6019 2.055 . S
O6023 C6045 1.259 . S
O6024 Zn6016 2.046 . S
O6024 C6045 1.254 . S
N6025 Zn6019 2.036 . S
N6025 C6026 1.298 . S
N6025 N6028 1.398 . S
C6026 N6025 1.298 . S
C6026 N6029 1.367 . S
C6026 C6039 1.481 . S
C6027 N6028 1.299 . S
C6027 N6029 1.379 . S
N6028 N6025 1.398 . S
N6028 C6027 1.299 . S
N6029 C6026 1.367 . S
N6029 C6027 1.379 . S
C6030 N6032 1.298 . S
C6030 N6034 1.367 . S
C6030 C6038 1.481 . S
C6031 N6033 1.299 . S
C6031 N6034 1.379 . S
N6032 Zn6016 2.036 . S
N6032 C6030 1.298 . S
N6032 N6033 1.398 . S
N6033 C6031 1.299 . S
N6033 N6032 1.398 . S
N6034 C6030 1.367 . S
N6034 C6031 1.379 . S
H6035 C6038 0.980 . S
H6036 C6038 0.981 . S
H6037 C6038 0.981 . S
C6038 C6030 1.481 . S
C6038 H6035 0.980 . S
C6038 H6036 0.981 . S
C6038 H6037 0.981 . S
C6039 C6026 1.481 . S
C6039 H6040 0.980 . S
C6039 H6041 0.981 . S
C6039 H6042 0.981 . S
H6040 C6039 0.980 . S
H6041 C6039 0.981 . S
H6042 C6039 0.981 . S
O6043 Zn6019 2.066 . S
O6043 C6022 1.256 . S
O6044 Zn6016 2.053 . S
O6044 C6022 1.244 . S
C6045 O6023 1.259 . S
C6045 O6024 1.254 . S
O6046 Zn6016 2.066 . S
O6046 C6018 1.256 . S
O6047 C6018 1.244 . S
O6047 Zn6019 2.053 . S
Zn6048 O6049 2.055 . S
Zn6048 O6056 2.046 . S
Zn6048 N6064 2.036 . S
Zn6048 O6076 2.053 . S
Zn6048 O6078 2.066 . S
O6049 Zn6048 2.055 . S
O6049 C6052 1.259 . S
C6050 O6078 1.256 1_554 S
C6050 O6079 1.244 1_554 S
Zn6051 O6053 2.046 . S
Zn6051 O6055 2.055 . S
Zn6051 N6057 2.036 . S
Zn6051 O6075 2.066 . S
Zn6051 O6079 2.053 . S
C6052 O6049 1.259 . S
C6052 O6053 1.254 . S
O6053 Zn6051 2.046 . S
O6053 C6052 1.254 . S
C6054 O6075 1.256 . S
C6054 O6076 1.244 . S
O6055 Zn6051 2.055 . S
O6055 C6077 1.259 . S
O6056 Zn6048 2.046 . S
O6056 C6077 1.254 . S
N6057 Zn6051 2.036 . S
N6057 C6058 1.298 . S
N6057 N6060 1.398 . S
C6058 N6057 1.298 . S
C6058 N6061 1.367 . S
C6058 C6071 1.481 . S
C6059 N6060 1.299 . S
C6059 N6061 1.379 . S
N6060 N6057 1.398 . S
N6060 C6059 1.299 . S
N6061 C6058 1.367 . S
N6061 C6059 1.379 . S
C6062 N6064 1.298 . S
C6062 N6066 1.367 . S
C6062 C6070 1.481 1_556 S
C6063 N6065 1.299 . S
C6063 N6066 1.379 . S
N6064 Zn6048 2.036 . S
N6064 C6062 1.298 . S
N6064 N6065 1.398 . S
N6065 C6063 1.299 . S
N6065 N6064 1.398 . S
N6066 C6062 1.367 . S
N6066 C6063 1.379 . S
H6067 C6070 0.980 1_556 S
H6068 C6070 0.981 . S
H6069 C6070 0.981 . S
C6070 C6062 1.481 1_554 S
C6070 H6067 0.980 1_554 S
C6070 H6068 0.981 . S
C6070 H6069 0.981 . S
C6071 C6058 1.481 . S
C6071 H6072 0.980 . S
C6071 H6073 0.981 . S
C6071 H6074 0.981 . S
H6072 C6071 0.980 . S
H6073 C6071 0.981 . S
H6074 C6071 0.981 . S
O6075 Zn6051 2.066 . S
O6075 C6054 1.256 . S
O6076 Zn6048 2.053 . S
O6076 C6054 1.244 . S
C6077 O6055 1.259 . S
C6077 O6056 1.254 . S
O6078 Zn6048 2.066 . S
O6078 C6050 1.256 1_556 S
O6079 C6050 1.244 1_556 S
O6079 Zn6051 2.053 . S
Zn6080 O6081 2.055 . S
Zn6080 O6088 2.046 . S
Zn6080 N6096 2.036 . S
Zn6080 O6108 2.053 . S
Zn6080 O6110 2.066 . S
O6081 Zn6080 2.055 . S
O6081 C6084 1.259 . S
C6082 O6110 1.256 . S
C6082 O6111 1.244 . S
Zn6083 O6085 2.046 . S
Zn6083 O6087 2.055 . S
Zn6083 N6089 2.036 . S
Zn6083 O6107 2.066 . S
Zn6083 O6111 2.053 . S
C6084 O6081 1.259 . S
C6084 O6085 1.254 . S
O6085 Zn6083 2.046 . S
O6085 C6084 1.254 . S
C6086 O6107 1.256 . S
C6086 O6108 1.244 . S
O6087 Zn6083 2.055 . S
O6087 C6109 1.259 . S
O6088 Zn6080 2.046 . S
O6088 C6109 1.254 . S
N6089 Zn6083 2.036 . S
N6089 C6090 1.298 . S
N6089 N6092 1.398 . S
C6090 N6089 1.298 . S
C6090 N6093 1.367 . S
C6090 C6103 1.481 . S
C6091 N6092 1.299 . S
C6091 N6093 1.379 . S
N6092 N6089 1.398 . S
N6092 C6091 1.299 . S
N6093 C6090 1.367 . S
N6093 C6091 1.379 . S
C6094 N6096 1.298 . S
C6094 N6098 1.367 . S
C6094 C6102 1.481 . S
C6095 N6097 1.299 . S
C6095 N6098 1.379 . S
N6096 Zn6080 2.036 . S
N6096 C6094 1.298 . S
N6096 N6097 1.398 . S
N6097 C6095 1.299 . S
N6097 N6096 1.398 . S
N6098 C6094 1.367 . S
N6098 C6095 1.379 . S
H6099 C6102 0.980 . S
H6100 C6102 0.981 . S
H6101 C6102 0.981 . S
C6102 C6094 1.481 . S
C6102 H6099 0.980 . S
C6102 H6100 0.981 . S
C6102 H6101 0.981 . S
C6103 C6090 1.481 . S
C6103 H6104 0.980 . S
C6103 H6105 0.981 . S
C6103 H6106 0.981 . S
H6104 C6103 0.980 . S
H6105 C6103 0.981 . S
H6106 C6103 0.981 . S
O6107 Zn6083 2.066 . S
O6107 C6086 1.256 . S
O6108 Zn6080 2.053 . S
O6108 C6086 1.244 . S
C6109 O6087 1.259 . S
C6109 O6088 1.254 . S
O6110 Zn6080 2.066 . S
O6110 C6082 1.256 . S
O6111 C6082 1.244 . S
O6111 Zn6083 2.053 . S
Zn6112 O6113 2.055 . S
Zn6112 O6120 2.046 . S
Zn6112 N6128 2.036 . S
Zn6112 O6140 2.053 . S
Zn6112 O6142 2.066 . S
O6113 Zn6112 2.055 . S
O6113 C6116 1.259 . S
C6114 O6142 1.256 . S
C6114 O6143 1.244 . S
Zn6115 O6117 2.046 . S
Zn6115 O6119 2.055 . S
Zn6115 N6121 2.036 . S
Zn6115 O6139 2.066 . S
Zn6115 O6143 2.053 . S
C6116 O6113 1.259 . S
C6116 O6117 1.254 . S
O6117 Zn6115 2.046 . S
O6117 C6116 1.254 . S
C6118 O6139 1.256 . S
C6118 O6140 1.244 . S
O6119 Zn6115 2.055 . S
O6119 C6141 1.259 . S
O6120 Zn6112 2.046 . S
O6120 C6141 1.254 . S
N6121 Zn6115 2.036 . S
N6121 C6122 1.298 . S
N6121 N6124 1.398 . S
C6122 N6121 1.298 . S
C6122 N6125 1.367 . S
C6122 C6135 1.481 . S
C6123 N6124 1.299 . S
C6123 N6125 1.379 . S
N6124 N6121 1.398 . S
N6124 C6123 1.299 . S
N6125 C6122 1.367 . S
N6125 C6123 1.379 . S
C6126 N6128 1.298 . S
C6126 N6130 1.367 . S
C6126 C6134 1.481 . S
C6127 N6129 1.299 . S
C6127 N6130 1.379 . S
N6128 Zn6112 2.036 . S
N6128 C6126 1.298 . S
N6128 N6129 1.398 . S
N6129 C6127 1.299 . S
N6129 N6128 1.398 . S
N6130 C6126 1.367 . S
N6130 C6127 1.379 . S
H6131 C6134 0.980 . S
H6132 C6134 0.981 . S
H6133 C6134 0.981 . S
C6134 C6126 1.481 . S
C6134 H6131 0.980 . S
C6134 H6132 0.981 . S
C6134 H6133 0.981 . S
C6135 C6122 1.481 . S
C6135 H6136 0.980 . S
C6135 H6137 0.981 . S
C6135 H6138 0.981 . S
H6136 C6135 0.980 . S
H6137 C6135 0.981 . S
H6138 C6135 0.981 . S
O6139 Zn6115 2.066 . S
O6139 C6118 1.256 . S
O6140 Zn6112 2.053 . S
O6140 C6118 1.244 . S
C6141 O6119 1.259 . S
C6141 O6120 1.254 . S
O6142 Zn6112 2.066 . S
O6142 C6114 1.256 . S
O6143 C6114 1.244 . S
O6143 Zn6115 2.053 . S
C29 C3364 2.399 1_455 S
C1885 C61 2.399 . S
C93 C3428 2.399 . S
C125 C1796 2.399 . S
C2045 C132 2.399 1_655 S
C164 C3460 2.399 . S
C196 C1981 2.399 . S
C3524 C228 2.399 . S
C260 C1661 2.399 1_545 S
C292 C3101 2.399 . S
C324 C1572 2.399 . S
C381 C3165 2.399 . S
C3236 C388 2.399 . S
C1732 C420 2.399 . S
C3300 C452 2.399 . S
C509 C1668 2.399 1_655 S
C580 C516 2.399 1_556 S
C5341 C573 2.399 . S
C5348 C612 2.399 . S
C669 C3748 2.399 . S
C3741 C676 2.399 1_556 S
C708 C5181 2.399 . S
C5220 C740 2.399 . S
C4157 C797 2.414 1_455 S
C2628 C829 2.414 . S
C836 C4196 2.414 . S
C868 C2589 2.414 . S
C2788 C900 2.414 1_455 S
C4253 C932 2.414 . S
C989 C2749 2.414 . S
C4317 C996 2.414 . S
C1028 C2429 2.414 1_565 S
C3844 C1085 2.414 . S
C2365 C1092 2.414 . S
C3908 C1149 2.414 . S
C1181 C4029 2.414 . S
C1213 C2525 2.414 . S
C1245 C4068 2.414 . S
C1252 C2436 2.414 1_455 S
C1348 C1284 2.414 1_554 S
C6109 C1341 2.414 . S
C6141 C1405 2.414 . S
C4516 C1412 2.414 . S
C4484 C1444 2.414 1_554 S
C1476 C5949 2.414 . S
C6013 C1533 2.414 . S
C1565 C4900 2.399 1_455 S
C4964 C1629 2.399 . S
C1700 C5021 2.399 . S
C5085 C1789 2.399 1_545 S
C1853 C4637 2.399 . S
C4701 C1892 2.399 . S
C1949 C4772 2.399 . S
C2013 C4861 2.399 1_545 S
C2052 C2116 2.399 . S
C3780 C2109 2.399 . S
C3812 C2148 2.399 . S
C2205 C5284 2.399 1_556 S
C5277 C2212 2.399 . S
C3645 C2244 2.399 . S
C3709 C2276 2.399 . S
C5693 C2308 2.414 1_455 S
C2372 C5732 2.414 . S
C2468 C5789 2.414 . S
C5853 C2532 2.414 1_565 S
C5380 C2621 2.414 . S
C5444 C2660 2.414 . S
C5565 C2717 2.414 . S
C2781 C5604 2.414 1_565 S
C2909 C2820 2.414 . S
C4573 C2877 2.414 . S
C4605 C2941 2.414 . S
C6052 C2948 2.414 1_556 S
C2980 C6020 2.414 . S
C3012 C4388 2.414 . S
C3069 C4477 2.414 . S
C4932 C3133 2.399 . S
C3197 C4868 2.399 . S
C5117 C3204 2.399 . S
C3268 C5053 2.399 . S
C4733 C3332 2.399 1_565 S
C3396 C4644 2.399 . S
C4804 C3517 2.399 . S
C4740 C3581 2.399 . S
C3677 C3613 2.399 . S
C3901 C5700 2.414 . S
C3940 C5636 2.414 . S
C3972 C5860 2.414 . S
C5796 C4061 2.414 . S
C5501 C4125 2.414 1_545 S
C5437 C4164 2.414 . S
C4260 C5597 2.414 . S
C4324 C5533 2.414 . S
C4420 C4381 2.414 . S
C5213 C5149 2.399 1_556 S
C5892 C5956 2.414 1_556 S
N1874 C2 4.384 . S
N3437 C34 4.384 . S
N1805 C66 4.384 . S
C98 N3373 4.384 1_455 S
N2002 C134 4.384 1_545 S
C166 N3570 4.384 . S
C198 N1938 4.384 . S
N3506 C230 4.384 . S
C262 N3634 4.384 . S
N2125 C294 4.384 . S
N3698 C326 4.384 . S
N3730 C354 4.384 1_556 S
C390 N525 4.384 1_556 S
N5357 C422 4.384 . S
N2221 C454 4.384 . S
C482 N5330 4.384 . S
C518 N1741 4.384 . S
N4690 C546 4.384 . S
N4722 C582 4.384 1_565 S
N4626 C614 4.384 . S
C642 N50 4.384 . S
N141 C678 4.384 1_455 S
N1709 C710 4.384 . S
C742 N1778 4.384 1_545 S
N2642 C770 4.441 . S
N4210 C802 4.441 . S
C838 N2573 4.441 . S
C870 N4141 4.441 1_655 S
C902 N2765 4.441 1_545 S
N4338 C934 4.441 . S
C962 N2701 4.441 . S
C998 N4274 4.441 . S
N4402 C1030 4.441 . S
C1058 N2893 4.441 . S
N4461 C1094 4.441 . S
N4498 C1122 4.441 1_554 S
N1298 C1154 4.441 1_556 S
N6125 C1186 4.441 . S
C1218 N2994 4.441 . S
N6093 C1254 4.441 . S
N2509 C1286 4.441 . S
N5458 C1314 4.441 . S
N5485 C1350 4.441 1_545 S
C1378 N5394 4.441 . S
N813 C1414 4.441 . S
C1446 N914 4.441 1_455 S
N2482 C1478 4.441 . S
C1506 N2546 4.441 1_565 S
C1538 N333 4.384 . S
C1574 N4973 4.384 . S
N269 C1602 4.384 1_545 S
N4909 C1634 4.384 1_655 S
C1670 N461 4.384 . S
C1702 N5106 4.384 . S
N397 C1734 4.384 . S
C1762 N5042 4.384 . S
N5170 C1798 4.384 . S
C1826 N589 4.384 1_554 S
C1858 N5229 4.384 . S
N5266 C1894 4.384 . S
N2061 C1922 4.384 . S
N3821 C1954 4.384 . S
N685 C1986 4.384 1_554 S
N3789 C2018 4.384 . S
N205 C2054 4.384 . S
C2082 N3154 4.384 . S
N3186 C2118 4.384 . S
N3090 C2150 4.384 . S
C2178 N1581 4.384 . S
N1677 C2214 4.384 1_455 S
N173 C2246 4.384 . S
N237 C2278 4.384 . S
C2310 N1106 4.441 . S
N5746 C2338 4.441 . S
C2374 N1042 4.441 1_545 S
N5677 C2402 4.441 1_455 S
N1229 C2438 4.441 . S
N5874 C2470 4.441 . S
N1165 C2498 4.441 . S
N5810 C2534 4.441 . S
N5933 C2562 4.441 . S
N1362 C2594 4.441 1_554 S
N5997 C2630 4.441 . S
N6034 C2662 4.441 . S
C2690 N2834 4.441 . S
C2722 N4589 4.441 . S
C2754 N1458 4.441 1_554 S
C2790 N4557 4.441 . S
C2822 N973 4.441 . S
C2850 N3922 4.441 . S
N3954 C2882 4.441 . S
C2914 N3858 4.441 . S
C2950 N2349 4.441 . S
C2982 N2450 4.441 1_455 S
N946 C3014 4.441 . S
N1010 C3042 4.441 . S
N4941 C3074 4.384 . S
N370 C3106 4.384 . S
N4877 C3138 4.384 . S
N301 C3170 4.384 . S
C3206 N5074 4.384 1_565 S
N498 C3238 4.384 1_655 S
C3270 N5010 4.384 . S
C3302 N429 4.384 . S
C3334 N562 4.384 . S
C3366 N5202 4.384 1_554 S
N621 C3398 4.384 . S
C3430 N658 4.384 . S
N3602 C3462 4.384 . S
C3490 N2285 4.384 . S
C3526 N5293 4.384 1_556 S
C3554 N2253 4.384 . S
C3586 N4813 4.384 . S
N1618 C3618 4.384 . S
C3650 N1650 4.384 1_545 S
N1554 C3682 4.384 1_455 S
C3714 N3122 4.384 . S
C3750 N3213 4.384 . S
C3782 N4781 4.384 . S
C3814 N4850 4.384 1_545 S
C3846 N5714 4.441 . S
N1133 C3874 4.441 . S
N5650 C3910 4.441 . S
C3942 N1069 4.441 . S
C3974 N5837 4.441 1_545 S
N1266 C4002 4.441 1_455 S
C4034 N5773 4.441 . S
N1197 C4070 4.441 . S
N1325 C4098 4.441 . S
N5970 C4130 4.441 1_554 S
N1389 C4166 4.441 . S
N1426 C4198 4.441 . S
N4365 C4226 4.441 . S
C4262 N3053 4.441 . S
N6066 C4290 4.441 1_556 S
C4326 N3026 4.441 . S
C4354 N5581 4.441 . S
C4390 N2386 4.441 . S
N2413 C4422 4.441 1_545 S
C4450 N2322 4.441 1_455 S
C4486 N3885 4.441 . S
C4518 N3986 4.441 . S
C4546 N5549 4.441 . S
N5618 C4578 4.441 1_545 S
C4610 N3405 4.384 . S
N1901 C4646 4.384 . S
C4674 N3341 4.384 1_565 S
N1842 C4706 4.384 . S
C4742 N3533 4.384 . S
C4774 N2034 4.384 1_455 S
N3469 C4806 4.384 . S
N1970 C4834 4.384 . S
N2098 C4870 4.384 . S
C4902 N3666 4.384 . S
N2157 C4934 4.384 . S
N2194 C4966 4.384 1_556 S
C4994 N5138 4.384 1_556 S
C5026 N749 4.384 . S
C5058 N3757 4.384 . S
C5090 N717 4.384 . S
C5122 N3277 4.384 . S
C5154 N82 4.384 . S
C5186 N114 4.384 . S
N18 C5222 4.384 1_455 S
N4653 C5250 4.384 . S
N4749 C5286 4.384 . S
C5314 N3245 4.384 . S
N3309 C5350 4.384 . S
C5382 N4178 4.441 . S
C5410 N2674 4.441 . S
C5446 N4109 4.441 1_545 S
C5474 N2605 4.441 . S
C5506 N4301 4.441 . S
C5538 N2802 4.441 1_655 S
N4237 C5570 4.441 . S
C5606 N2733 4.441 . S
C5638 N2861 4.441 . S
C5666 N4434 4.441 . S
N2925 C5702 4.441 . S
C5734 N2962 4.441 1_556 S
N5906 C5762 4.441 1_556 S
C5798 N1517 4.441 . S
N4530 C5826 4.441 . S
C5862 N1490 4.441 . S
C5894 N4045 4.441 . S
C5922 N850 4.441 . S
N882 C5958 4.441 . S
N781 C5986 4.441 1_655 S
N5421 C6022 4.441 . S
C6054 N5517 4.441 . S
N4013 C6082 4.441 . S
C6114 N4082 4.441 . S
C4454 N13 3.455 . S
C6018 N45 3.455 . S
N77 C2854 3.455 . S
C5954 N109 3.455 . S
C1442 N146 3.455 . S
C1474 N178 3.455 . S
N210 C4358 3.455 . S
C6118 N242 3.455 . S
N274 C5442 3.455 . S
C3938 N306 3.455 . S
C774 N338 3.455 . S
C2342 N365 3.455 . S
N402 C4038 3.455 . S
C994 N434 3.455 . S
C2434 N466 3.455 . S
C5542 N493 3.455 . S
C5766 N530 3.455 . S
C1026 N557 3.455 . S
N594 C2598 3.455 . S
N626 C5698 3.455 . S
C2658 N653 3.455 . S
C2758 N690 3.455 . S
N722 C4322 3.455 . S
C2726 N754 3.455 . S
N786 C3686 3.518 . S
N818 C5254 3.518 . S
C2086 N845 3.518 . S
N877 C5190 3.518 . S
C674 N909 3.518 . S
C706 N941 3.518 . S
N978 C3590 3.518 . S
C5346 N1005 3.518 . S
N1037 C4678 3.518 . S
C3174 N1074 3.518 . S
N1101 C6 3.518 . S
N1138 C1570 3.518 . S
N1170 C3266 3.518 . S
C226 N1202 3.518 . S
N1234 C1666 3.518 . S
N1261 C4770 3.518 . S
N1293 C4998 3.518 . S
N1330 C258 3.518 . S
N1357 C1830 3.518 . S
C4930 N1394 3.518 . S
N1421 C1890 3.518 . S
N1453 C1990 3.518 . S
N1485 C3558 3.518 . S
N1522 C1958 3.518 . S
N1549 C5990 3.455 . S
C4482 N1586 3.455 . S
C1318 N1613 3.455 . S
C4418 N1645 3.455 . S
C2978 N1682 3.455 . S
N1714 C3010 3.455 . S
N1746 C5890 3.455 . S
C4582 N1773 3.455 . S
C3906 N1810 3.455 . S
N1837 C5478 3.455 . S
C2306 N1869 3.455 . S
C806 N1906 3.455 . S
C5574 N1933 3.455 . S
C2530 N1965 3.455 . S
C898 N1997 3.455 . S
C4006 N2029 3.455 . S
N2066 C4230 3.455 . S
C2566 N2093 3.455 . S
N2130 C1062 3.455 . S
C4162 N2162 3.455 . S
N2189 C1126 3.455 . S
N2226 C1222 3.455 . S
N2258 C5858 3.455 . S
C1190 N2290 3.455 . S
N2317 C5218 3.518 . S
C3718 N2354 3.518 . S
N2381 C550 3.518 . S
N2418 C3654 3.518 . S
N2445 C2210 3.518 . S
C2242 N2477 3.518 . S
N2514 C5126 3.518 . S
N2541 C3810 3.518 . S
N2578 C3142 3.518 . S
N2610 C4710 3.518 . S
N2637 C1542 3.518 . S
N2669 C38 3.518 . S
C4802 N2706 3.518 . S
N2738 C1766 3.518 . S
C130 N2770 3.518 . S
C3234 N2797 3.518 . S
N2829 C3458 3.518 . S
N2866 C1794 3.518 . S
C290 N2898 3.518 . S
C3394 N2930 3.518 . S
C358 N2957 3.518 . S
C450 N2989 3.518 . S
C5094 N3021 3.518 . S
C418 N3058 3.518 . S
N3085 C1382 3.455 . S
C2946 N3117 3.455 . S
C5926 N3149 3.455 . S
C2886 N3181 3.455 . S
N3218 C4514 3.455 . S
N3250 C4550 3.455 . S
N3282 C1282 3.455 . S
C3046 N3314 3.455 . S
N3346 C2370 3.455 . S
N3378 C866 3.455 . S
C3842 N3410 3.455 . S
N3442 C5414 3.455 . S
C966 N3474 3.455 . S
N3501 C4066 3.455 . S
C5510 N3538 3.455 . S
C2466 N3565 3.455 . S
N3597 C2694 3.455 . S
C4102 N3629 3.455 . S
N3661 C5670 3.455 . S
N3693 C2626 3.455 . S
C5730 N3725 3.455 . S
N3762 C5830 3.455 . S
N3794 C1250 3.455 . S
N3826 C5794 3.455 . S
N3853 C610 3.518 . S
N3890 C2182 3.518 . S
N3917 C5158 3.518 . S
N3949 C2114 3.518 . S
N3981 C3746 3.518 . S
N4018 C3778 3.518 . S
C514 N4050 3.518 . S
N4077 C2274 3.518 . S
N4114 C1606 3.518 . S
N4146 C102 3.518 . S
N4173 C3078 3.518 . S
C4642 N4205 3.518 . S
N4242 C194 3.518 . S
C3298 N4269 3.518 . S
N4306 C4738 3.518 . S
C1698 N4333 3.518 . S
N4370 C1926 3.518 . S
C3330 N4397 3.518 . S
C4898 N4429 3.518 . S
N4466 C1862 3.518 . S
C4962 N4493 3.518 . S
C5062 N4525 3.518 . S
C486 N4562 3.518 . S
N4594 C5030 3.518 . S
C2918 N4621 3.455 . S
N4658 C1410 3.455 . S
N4685 C4386 3.455 . S
C1346 N4717 3.455 . S
C6050 N4754 3.455 . S
C6086 N4786 3.455 . S
N4818 C2818 3.455 . S
C1510 N4845 3.455 . S
N4882 C834 3.455 . S
C2406 N4914 3.455 . S
C5378 N4946 3.455 . S
C3878 N4978 3.455 . S
N5005 C2502 3.455 . S
C5602 N5037 3.455 . S
C3970 N5069 3.455 . S
N5101 C930 3.455 . S
C1158 N5133 3.455 . S
N5165 C5634 3.455 . S
N5197 C4134 3.455 . S
N5234 C1090 3.455 . S
C4194 N5261 3.455 . S
C4294 N5298 3.455 . S
C2786 N5325 3.455 . S
N5362 C4258 3.455 . S
N5389 C2146 3.518 . S
C646 N5426 3.518 . S
C3622 N5453 3.518 . S
N5490 C578 3.518 . S
N5522 C5282 3.518 . S
C5318 N5554 3.518 . S
N5586 C2050 3.518 . S
C738 N5613 3.518 . S
C70 N5645 3.518 . S
C1638 N5682 3.518 . S
N5709 C4614 3.518 . S
C3110 N5741 3.518 . S
C1730 N5778 3.518 . S
C4838 N5805 3.518 . S
N5842 C3202 3.518 . S
N5869 C162 3.518 . S
N5901 C386 3.518 . S
N5938 C4866 3.518 . S
C3362 N5965 3.518 . S
C322 N6002 3.518 . S
C3426 N6029 3.518 . S
C3522 N6061 3.518 . S
N6098 C2022 3.518 . S
C3494 N6130 3.518 . S
C1757 C4 2.649 . S
C3325 C36 2.649 . S
C1693 C68 2.649 . S
C3261 C100 2.649 . S
C1604 C157 2.649 . S
C3172 C189 2.649 . S
C221 C1540 2.649 . S
C253 C3108 2.649 . S
C285 C1860 2.649 . S
C317 C3453 2.649 . S
C349 C1821 2.649 . S
C356 C3389 2.649 . S
C1988 C413 2.649 . S
C3556 C445 2.649 . S
C477 C1924 2.649 . S
C3492 C484 2.649 . S
C3620 C541 2.649 . S
C548 C3588 2.649 . S
C3837 C605 2.649 . S
C5309 C637 2.649 . S
C644 C2269 2.649 . S
C5245 C701 2.649 . S
C2180 C733 2.649 . S
C3652 C765 2.649 . S
C772 C2500 2.725 . S
C804 C4093 2.725 . S
C861 C2461 2.725 . S
C893 C4004 2.725 . S
C925 C2397 2.725 . S
C957 C3965 2.725 . S
C2333 C964 2.725 . S
C3876 C1021 2.725 . S
C2653 C1053 2.725 . S
C4221 C1060 2.725 . S
C1117 C2564 2.725 . S
C4132 C1124 2.725 . S
C1156 C2756 2.725 . S
C1188 C4349 2.725 . S
C2692 C1220 2.725 . S
C1277 C4285 2.725 . S
C4413 C1309 2.725 . S
C4356 C1316 2.725 . S
C1373 C4580 2.725 . S
C6077 C1380 2.725 . S
C1437 C3037 2.725 . S
C5988 C1469 2.725 . S
C1501 C2973 2.725 . S
C1508 C4445 2.725 . S
C1597 C4836 2.649 . S
C1636 C4797 2.649 . S
C4708 C1725 2.649 . S
C1764 C4669 2.649 . S
C1828 C4989 2.649 . S
C4925 C1917 2.649 . S
C1956 C5092 2.649 . S
C2020 C5028 2.649 . S
C2077 C5156 2.649 . S
C2084 C5124 2.649 . S
C2141 C5373 2.649 . S
C3773 C2173 2.649 . S
C3684 C2237 2.649 . S
C2301 C5188 2.649 . S
C2340 C5629 2.725 . S
C5540 C2404 2.725 . S
C2493 C5476 2.725 . S
C2557 C5412 2.725 . S
C2596 C5757 2.725 . S
C5668 C2685 2.725 . S
C5885 C2724 2.725 . S
C5821 C2813 2.725 . S
C5924 C2845 2.725 . S
C5917 C2852 2.725 . S
C2884 C6116 2.725 . S
C4541 C2916 2.725 . S
C4452 C3005 2.725 . S
C3044 C5981 2.725 . S
C4829 C3076 2.649 . S
C4765 C3140 2.649 . S
C4676 C3229 2.649 . S
C3293 C4612 2.649 . S
C3357 C4957 2.649 . S
C4893 C3421 2.649 . S
C3485 C5060 2.649 . S
C4996 C3549 2.649 . S
C3716 C5316 2.649 . S
C5252 C3805 2.649 . S
C5572 C3869 2.725 . S
C5508 C3933 2.725 . S
C5469 C3997 2.725 . S
C4036 C5405 2.725 . S
C4100 C5725 2.725 . S
C5661 C4189 2.725 . S
C4228 C5828 2.725 . S
C5764 C4292 2.725 . S
C4509 C6084 2.725 . S
C4548 C6045 2.725 . S
