# Generated by pormake.
# Topology qtz-a, (4)-cn, num edge types: 1
# Building blocks:
#     Node 0, Type 0, BuildingBlock: UXUYUI_clean_sbu_0, # of connection points: 4
#     Node 1, Type 0, BuildingBlock: UXUYUI_clean_sbu_0, # of connection points: 4
#     Node 2, Type 0, BuildingBlock: UXUYUI_clean_sbu_0, # of connection points: 4
#     Node 3, Type 0, BuildingBlock: UXUYUI_clean_sbu_0, # of connection points: 4
#     Node 4, Type 0, BuildingBlock: UXUYUI_clean_sbu_0, # of connection points: 4
#     Node 5, Type 0, BuildingBlock: UXUYUI_clean_sbu_0, # of connection points: 4
#     Node 6, Type 0, BuildingBlock: UXUYUI_clean_sbu_0, # of connection points: 4
#     Node 7, Type 0, BuildingBlock: UXUYUI_clean_sbu_0, # of connection points: 4
#     Node 8, Type 0, BuildingBlock: UXUYUI_clean_sbu_0, # of connection points: 4
#     Node 9, Type 0, BuildingBlock: UXUYUI_clean_sbu_0, # of connection points: 4
#     Node 10, Type 0, BuildingBlock: UXUYUI_clean_sbu_0, # of connection points: 4
#     Node 11, Type 0, BuildingBlock: UXUYUI_clean_sbu_0, # of connection points: 4
#     Edge 12, Type (0, 0), BuildingBlock: KIFKEQ_clean_linker_1, # of connection points: 2
#     Edge 13, Type (0, 0), BuildingBlock: KIFKEQ_clean_linker_1, # of connection points: 2
#     Edge 14, Type (0, 0), BuildingBlock: KIFKEQ_clean_linker_1, # of connection points: 2
#     Edge 15, Type (0, 0), BuildingBlock: KIFKEQ_clean_linker_1, # of connection points: 2
#     Edge 16, Type (0, 0), BuildingBlock: KIFKEQ_clean_linker_1, # of connection points: 2
#     Edge 17, Type (0, 0), BuildingBlock: KIFKEQ_clean_linker_1, # of connection points: 2
#     Edge 18, Type (0, 0), BuildingBlock: KIFKEQ_clean_linker_1, # of connection points: 2
#     Edge 19, Type (0, 0), BuildingBlock: KIFKEQ_clean_linker_1, # of connection points: 2
#     Edge 20, Type (0, 0), BuildingBlock: KIFKEQ_clean_linker_1, # of connection points: 2
#     Edge 21, Type (0, 0), BuildingBlock: KIFKEQ_clean_linker_1, # of connection points: 2
#     Edge 22, Type (0, 0), BuildingBlock: KIFKEQ_clean_linker_1, # of connection points: 2
#     Edge 23, Type (0, 0), BuildingBlock: KIFKEQ_clean_linker_1, # of connection points: 2
#     Edge 24, Type (0, 0), BuildingBlock: KIFKEQ_clean_linker_1, # of connection points: 2
#     Edge 25, Type (0, 0), BuildingBlock: KIFKEQ_clean_linker_1, # of connection points: 2
#     Edge 26, Type (0, 0), BuildingBlock: KIFKEQ_clean_linker_1, # of connection points: 2
#     Edge 27, Type (0, 0), BuildingBlock: KIFKEQ_clean_linker_1, # of connection points: 2
#     Edge 28, Type (0, 0), BuildingBlock: KIFKEQ_clean_linker_1, # of connection points: 2
#     Edge 29, Type (0, 0), BuildingBlock: KIFKEQ_clean_linker_1, # of connection points: 2
#     Edge 30, Type (0, 0), BuildingBlock: KIFKEQ_clean_linker_1, # of connection points: 2
#     Edge 31, Type (0, 0), BuildingBlock: KIFKEQ_clean_linker_1, # of connection points: 2
#     Edge 32, Type (0, 0), BuildingBlock: KIFKEQ_clean_linker_1, # of connection points: 2
#     Edge 33, Type (0, 0), BuildingBlock: KIFKEQ_clean_linker_1, # of connection points: 2
#     Edge 34, Type (0, 0), BuildingBlock: KIFKEQ_clean_linker_1, # of connection points: 2
#     Edge 35, Type (0, 0), BuildingBlock: KIFKEQ_clean_linker_1, # of connection points: 2
# Relax obj value: 0.910
# Max RMSD: 0.301
# Mean RMSD: 0.301
data_MOF--net-qtz-a--node1-UXUYUI_clean_sbu_0--edge1-KIFKEQ_clean_linker_1
_symmetry_space_group_name_H-M    P1
_symmetry_Int_Tables_number       1
_symmetry_cell_setting            triclinic
loop_
_symmetry_equiv_pos_as_xyz
'x, y, z'
_cell_length_a     75.174558
_cell_length_b     75.138972
_cell_length_c     42.812278
_cell_angle_alpha  90.022203
_cell_angle_beta   89.990248
_cell_angle_gamma 120.00412
loop_
_atom_site_label
_atom_site_type_symbol
_atom_site_fract_x
_atom_site_fract_y
_atom_site_fract_z
_atom_type_partial_charge
Li0 Li 0.42192 0.06516 0.19237 0.0
Li1 Li 0.44489 0.09909 0.21512 0.0
Li2 Li 0.45958 0.08072 0.18674 0.0
Li3 Li 0.44386 0.06936 0.23791 0.0
C4 C 0.43893 0.09672 0.1427 0.0
N5 N 0.433 0.10893 0.08454 0.0
C6 C 0.43271 0.11137 0.14014 0.0
C7 C 0.44228 0.08842 0.11559 0.0
C8 C 0.42976 0.1173 0.11056 0.0
C9 C 0.43915 0.09475 0.08644 0.0
C10 C 0.4176 0.08084 0.26451 0.0
C11 C 0.43123 0.10056 0.31177 0.0
N12 N 0.41185 0.0922 0.32339 0.0
C13 C 0.39782 0.07244 0.27692 0.0
C14 C 0.43446 0.09503 0.28205 0.0
C15 C 0.39523 0.07839 0.30673 0.0
C16 C 0.38984 0.02857 0.16615 0.0
N17 N 0.39735 0.04912 0.169 0.0
C18 C 0.3797 0.04951 0.12293 0.0
C19 C 0.39115 0.05926 0.14955 0.0
C20 C 0.37439 0.02907 0.11678 0.0
C21 C 0.37826 0.01815 0.13992 0.0
H22 H 0.3947 0.02077 0.1823 0.0
H23 H 0.39674 0.07543 0.15301 0.0
C24 C 0.46574 0.14092 0.20583 0.0
N25 N 0.44815 0.12552 0.21834 0.0
C26 C 0.46756 0.16 0.1999 0.0
C27 C 0.43361 0.14732 0.22166 0.0
C28 C 0.43235 0.12839 0.22689 0.0
C29 C 0.45111 0.16314 0.20702 0.0
H30 H 0.4778 0.13793 0.19864 0.0
H31 H 0.41828 0.11565 0.23581 0.0
C32 C 0.43918 0.0373 0.18217 0.0
N33 N 0.43992 0.00722 0.1459 0.0
C34 C 0.44464 0.02369 0.1954 0.0
C35 C 0.43416 0.03562 0.15046 0.0
C36 C 0.44493 0.0086 0.17668 0.0
C37 C 0.43457 0.02029 0.13254 0.0
C38 C 0.48659 0.09646 0.23597 0.0
C39 C 0.4884 0.07892 0.23269 0.0
C40 C 0.50283 0.11431 0.24879 0.0
C41 C 0.50639 0.07949 0.24251 0.0
C42 C 0.5206 0.11428 0.25828 0.0
N43 N 0.52199 0.09701 0.255 0.0
C44 C 0.48933 0.10279 0.1416 0.0
C45 C 0.48542 0.07001 0.15145 0.0
C46 C 0.50245 0.10582 0.11655 0.0
N47 N 0.48055 0.0848 0.15771 0.0
C48 C 0.49821 0.07226 0.12638 0.0
C49 C 0.50651 0.09014 0.10795 0.0
H50 H 0.48548 0.11446 0.14745 0.0
H51 H 0.4789 0.05614 0.16516 0.0
C52 C 0.43513 0.03558 0.27522 0.0
N53 N 0.44606 0.05643 0.27476 0.0
C54 C 0.44059 0.02467 0.29571 0.0
C55 C 0.46708 0.05696 0.31696 0.0
C56 C 0.46093 0.06724 0.29629 0.0
C57 C 0.45755 0.03544 0.31561 0.0
H58 H 0.42341 0.02742 0.25777 0.0
H59 H 0.46927 0.08384 0.29563 0.0
O60 O 0.4419 0.09074 0.17157 0.0
O61 O 0.42029 0.07509 0.23537 0.0
O62 O 0.43904 0.05231 0.20017 0.0
O63 O 0.46904 0.09628 0.22694 0.0
H64 H 0.4299 0.11791 0.16074 0.0
H65 H 0.44744 0.07737 0.11691 0.0
H66 H 0.42485 0.12854 0.1083 0.0
H67 H 0.44169 0.08843 0.06531 0.0
H68 H 0.44414 0.11152 0.32558 0.0
H69 H 0.38461 0.06144 0.26363 0.0
H70 H 0.44988 0.10177 0.27286 0.0
H71 H 0.38001 0.07201 0.31662 0.0
H72 H 0.37692 0.05851 0.10593 0.0
H73 H 0.37396 0.00221 0.13648 0.0
H74 H 0.48132 0.17188 0.18872 0.0
H75 H 0.4205 0.1491 0.22707 0.0
H76 H 0.44885 0.02489 0.21979 0.0
H77 H 0.42984 0.04592 0.13984 0.0
H78 H 0.44919 0.99802 0.18661 0.0
H79 H 0.43063 0.0188 0.108 0.0
H80 H 0.47599 0.06494 0.22302 0.0
H81 H 0.50165 0.12802 0.25148 0.0
H82 H 0.50793 0.06598 0.24028 0.0
H83 H 0.53327 0.12798 0.2683 0.0
H84 H 0.50892 0.12011 0.10367 0.0
H85 H 0.50078 0.05967 0.12077 0.0
H86 H 0.43295 0.0081 0.29371 0.0
H87 H 0.48014 0.06578 0.33212 0.0
Li88 Li 0.37569 0.44802 0.5618 0.0
Li89 Li 0.38209 0.46492 0.5108 0.0
Li90 Li 0.3485 0.44816 0.53673 0.0
Li91 Li 0.36221 0.42643 0.51684 0.0
C92 C 0.36687 0.48457 0.56272 0.0
N93 N 0.35092 0.50774 0.58703 0.0
C94 C 0.37277 0.50396 0.55037 0.0
C95 C 0.35316 0.47715 0.58783 0.0
C96 C 0.36446 0.5154 0.56289 0.0
C97 C 0.34517 0.48903 0.59967 0.0
C98 C 0.41081 0.45258 0.53629 0.0
C99 C 0.43788 0.44622 0.55235 0.0
N100 N 0.44931 0.46616 0.56156 0.0
C101 C 0.42289 0.47305 0.54571 0.0
C102 C 0.41837 0.43905 0.53952 0.0
C103 C 0.44228 0.4796 0.55853 0.0
C104 C 0.39683 0.43818 0.60771 0.0
N105 N 0.38956 0.45101 0.60065 0.0
C106 C 0.41091 0.47486 0.63965 0.0
C107 C 0.39553 0.46857 0.61712 0.0
C108 C 0.42048 0.46314 0.64479 0.0
C109 C 0.41243 0.44399 0.62981 0.0
H110 H 0.39208 0.42445 0.594 0.0
H111 H 0.38968 0.47861 0.611 0.0
C112 C 0.39156 0.4978 0.47038 0.0
N113 N 0.39858 0.48548 0.48141 0.0
C114 C 0.40174 0.51144 0.44592 0.0
C115 C 0.42588 0.49907 0.44416 0.0
C116 C 0.41544 0.48592 0.469 0.0
C117 C 0.41893 0.51191 0.43222 0.0
H118 H 0.3776 0.49647 0.47981 0.0
H119 H 0.4203 0.47548 0.47751 0.0
C120 C 0.34652 0.41213 0.58159 0.0
N121 N 0.34526 0.38892 0.63245 0.0
C122 C 0.35082 0.39618 0.57786 0.0
C123 C 0.34134 0.41613 0.61108 0.0
C124 C 0.35015 0.38465 0.60389 0.0
C125 C 0.34088 0.40427 0.63654 0.0
C126 C 0.35369 0.44204 0.46234 0.0
C127 C 0.33605 0.43881 0.44659 0.0
C128 C 0.36939 0.44136 0.44584 0.0
C129 C 0.3344 0.43495 0.41449 0.0
C130 C 0.36714 0.43741 0.41378 0.0
N131 N 0.34984 0.43431 0.39889 0.0
C132 C 0.32449 0.46407 0.51708 0.0
C133 C 0.30652 0.43454 0.5491 0.0
C134 C 0.30632 0.46382 0.5099 0.0
N135 N 0.32417 0.4494 0.53593 0.0
C136 C 0.2879 0.43365 0.54242 0.0
C137 C 0.28763 0.4481 0.52184 0.0
H138 H 0.33876 0.47538 0.50643 0.0
H139 H 0.30677 0.42281 0.56342 0.0
C140 C 0.36969 0.3998 0.47968 0.0
N141 N 0.35486 0.40294 0.49211 0.0
C142 C 0.36534 0.38712 0.4536 0.0
C143 C 0.33032 0.38033 0.45489 0.0
C144 C 0.33527 0.39293 0.48116 0.0
C145 C 0.34568 0.37799 0.44008 0.0
H146 H 0.38528 0.40854 0.48821 0.0
H147 H 0.32399 0.39623 0.49108 0.0
O148 O 0.37473 0.47307 0.55066 0.0
O149 O 0.39147 0.44573 0.52484 0.0
O150 O 0.34724 0.42364 0.5564 0.0
O151 O 0.35526 0.44521 0.49393 0.0
H152 H 0.38375 0.51019 0.53149 0.0
H153 H 0.3486 0.46227 0.59783 0.0
H154 H 0.36882 0.53039 0.55346 0.0
H155 H 0.3344 0.48337 0.6189 0.0
H156 H 0.44389 0.4359 0.55517 0.0
H157 H 0.41719 0.48368 0.54358 0.0
H158 H 0.40915 0.42311 0.53264 0.0
H159 H 0.45171 0.49534 0.56621 0.0
H160 H 0.41639 0.48956 0.65106 0.0
H161 H 0.41944 0.43453 0.63269 0.0
H162 H 0.39575 0.52087 0.43693 0.0
H163 H 0.43907 0.49901 0.43409 0.0
H164 H 0.35482 0.39287 0.55517 0.0
H165 H 0.33776 0.42826 0.61431 0.0
H166 H 0.35356 0.37234 0.6014 0.0
H167 H 0.337 0.40726 0.65954 0.0
H168 H 0.32369 0.43914 0.45909 0.0
H169 H 0.38302 0.44352 0.45777 0.0
H170 H 0.32081 0.43238 0.40199 0.0
H171 H 0.37911 0.4367 0.40076 0.0
H172 H 0.30683 0.47542 0.49432 0.0
H173 H 0.27379 0.42116 0.55186 0.0
H174 H 0.37769 0.38596 0.44255 0.0
H175 H 0.315 0.37354 0.44513 0.0
Li176 Li 0.91628 0.3705 0.83227 0.0
Li177 Li 0.931 0.37586 0.88457 0.0
Li178 Li 0.93696 0.35488 0.84623 0.0
Li179 Li 0.9037 0.34269 0.87109 0.0
C180 C 0.96546 0.39403 0.83443 0.0
N181 N 0.00608 0.41242 0.81588 0.0
C182 C 0.98121 0.40476 0.85606 0.0
C183 C 0.9704 0.3926 0.80336 0.0
C184 C 0.00164 0.41398 0.84621 0.0
C185 C 0.99102 0.40201 0.79445 0.0
C186 C 0.89829 0.38034 0.89073 0.0
C187 C 0.89021 0.38898 0.94099 0.0
N188 N 0.8918 0.40636 0.92851 0.0
C189 C 0.89967 0.39819 0.87831 0.0
C190 C 0.89336 0.37558 0.92223 0.0
C191 C 0.89639 0.41118 0.89783 0.0
C192 C 0.8888 0.37656 0.79399 0.0
N193 N 0.90885 0.38245 0.79919 0.0
C194 C 0.91928 0.40458 0.75479 0.0
C195 C 0.92403 0.39646 0.7806 0.0
C196 C 0.89871 0.39846 0.74834 0.0
C197 C 0.88334 0.38449 0.76854 0.0
H198 H 0.87705 0.3655 0.80937 0.0
H199 H 0.93984 0.4013 0.78569 0.0
C200 C 0.94625 0.39467 0.94545 0.0
N201 N 0.94281 0.39702 0.91493 0.0
C202 C 0.95458 0.41168 0.9656 0.0
C203 C 0.95529 0.43276 0.92239 0.0
C204 C 0.94733 0.41559 0.90319 0.0
C205 C 0.95894 0.43095 0.95404 0.0
H206 H 0.94251 0.37967 0.95412 0.0
H207 H 0.9446 0.41697 0.87874 0.0
C208 C 0.89894 0.33703 0.79918 0.0
N209 N 0.87695 0.32904 0.7442 0.0
C210 C 0.87747 0.32589 0.79967 0.0
C211 C 0.90921 0.34406 0.77067 0.0
C212 C 0.86664 0.32199 0.77163 0.0
C213 C 0.89782 0.3399 0.74316 0.0
C214 C 0.92453 0.33297 0.91037 0.0
C215 C 0.9293 0.31781 0.90237 0.0
C216 C 0.91334 0.33086 0.93754 0.0
C217 C 0.92249 0.30056 0.92153 0.0
C218 C 0.90679 0.31337 0.95606 0.0
N219 N 0.91145 0.29871 0.94773 0.0
C220 C 0.97537 0.35605 0.83466 0.0
C221 C 0.94684 0.3336 0.80355 0.0
C222 C 0.9888 0.35441 0.81377 0.0
N223 N 0.95499 0.34682 0.82791 0.0
C224 C 0.95961 0.3316 0.78206 0.0
C225 C 0.98103 0.34314 0.78592 0.0
H226 H 0.98142 0.3661 0.85469 0.0
H227 H 0.93052 0.32586 0.7993 0.0
C228 C 0.86235 0.31858 0.88999 0.0
N229 N 0.87962 0.31818 0.88189 0.0
C230 C 0.84324 0.3006 0.88856 0.0
C231 C 0.86038 0.28209 0.87266 0.0
C232 C 0.87907 0.3004 0.87406 0.0
C233 C 0.84206 0.28221 0.87854 0.0
H234 H 0.86321 0.33309 0.89506 0.0
H235 H 0.89294 0.30071 0.86654 0.0
O236 O 0.94534 0.38491 0.84364 0.0
O237 O 0.90193 0.36768 0.87218 0.0
O238 O 0.90987 0.34146 0.82645 0.0
O239 O 0.93094 0.34988 0.89181 0.0
H240 H 0.97775 0.40587 0.88025 0.0
H241 H 0.95847 0.38396 0.78642 0.0
H242 H 0.01397 0.42232 0.86271 0.0
H243 H 0.99504 0.40089 0.77055 0.0
H244 H 0.88654 0.38557 0.96548 0.0
H245 H 0.90351 0.40211 0.85398 0.0
H246 H 0.89216 0.36178 0.93215 0.0
H247 H 0.89757 0.42514 0.88862 0.0
H248 H 0.9316 0.41568 0.74015 0.0
H249 H 0.8673 0.37948 0.76434 0.0
H250 H 0.95735 0.40978 0.98986 0.0
H251 H 0.9589 0.44744 0.91239 0.0
H252 H 0.86921 0.32046 0.82144 0.0
H253 H 0.92581 0.3529 0.76986 0.0
H254 H 0.85002 0.31343 0.7717 0.0
H255 H 0.90557 0.34538 0.72099 0.0
H256 H 0.93803 0.31928 0.88146 0.0
H257 H 0.90966 0.34255 0.94413 0.0
H258 H 0.92595 0.28863 0.91555 0.0
H259 H 0.898 0.31146 0.97706 0.0
H260 H 0.00516 0.36313 0.81821 0.0
H261 H 0.9527 0.32264 0.76118 0.0
H262 H 0.8295 0.30146 0.89291 0.0
H263 H 0.8602 0.26821 0.86526 0.0
Li264 Li 0.52781 0.90699 0.16301 0.0
Li265 Li 0.54031 0.92274 0.21375 0.0
Li266 Li 0.56448 0.93315 0.17012 0.0
Li267 Li 0.55169 0.90058 0.19572 0.0
C268 C 0.54439 0.95608 0.17891 0.0
N269 N 0.55374 0.99606 0.19022 0.0
C270 C 0.56098 0.96885 0.19814 0.0
C271 C 0.53258 0.96367 0.16544 0.0
C272 C 0.56545 0.989 0.20357 0.0
C273 C 0.53755 0.98392 0.17143 0.0
C274 C 0.50719 0.88623 0.22522 0.0
C275 C 0.49375 0.87451 0.27699 0.0
N276 N 0.47587 0.87359 0.26849 0.0
C277 C 0.48857 0.88485 0.21686 0.0
C278 C 0.50971 0.88075 0.25539 0.0
C279 C 0.47297 0.87855 0.23912 0.0
C280 C 0.50293 0.88046 0.1146 0.0
N281 N 0.50595 0.89607 0.13398 0.0
C282 C 0.47899 0.89883 0.10933 0.0
C283 C 0.49423 0.90509 0.13205 0.0
C284 C 0.47582 0.88312 0.08831 0.0
C285 C 0.48786 0.87372 0.09139 0.0
H286 H 0.51256 0.87361 0.11672 0.0
H287 H 0.49699 0.91742 0.14789 0.0
C288 C 0.54023 0.93913 0.27546 0.0
N289 N 0.53084 0.93243 0.24729 0.0
C290 C 0.53244 0.9474 0.29729 0.0
C291 C 0.50547 0.9413 0.2607 0.0
C292 C 0.51379 0.93335 0.23973 0.0
C293 C 0.51484 0.94863 0.28988 0.0
H294 H 0.55398 0.93851 0.28068 0.0
H295 H 0.50694 0.92836 0.21689 0.0
C296 C 0.55875 0.90853 0.12007 0.0
N297 N 0.57287 0.91554 0.05921 0.0
C298 C 0.57172 0.90143 0.10967 0.0
C299 C 0.55289 0.91913 0.09949 0.0
C300 C 0.5787 0.90514 0.07881 0.0
C301 C 0.56021 0.92253 0.06882 0.0
C302 C 0.58148 0.92491 0.23367 0.0
C303 C 0.60235 0.93328 0.22698 0.0
C304 C 0.57324 0.91284 0.26036 0.0
C305 C 0.61452 0.92894 0.24667 0.0
C306 C 0.58589 0.90884 0.27948 0.0
N307 N 0.60609 0.91687 0.27226 0.0
C308 C 0.58493 0.96728 0.12902 0.0
C309 C 0.60285 0.94959 0.14047 0.0
C310 C 0.59882 0.97828 0.1053 0.0
N311 N 0.58697 0.95303 0.14573 0.0
C312 C 0.61708 0.96021 0.11683 0.0
C313 C 0.61484 0.9744 0.09832 0.0
H314 H 0.57171 0.9691 0.13233 0.0
H315 H 0.60357 0.93749 0.153 0.0
C316 C 0.54352 0.86104 0.21193 0.0
N317 N 0.55847 0.87997 0.2027 0.0
C318 C 0.54644 0.8442 0.20887 0.0
C319 C 0.58054 0.86695 0.1887 0.0
C320 C 0.57693 0.88334 0.19206 0.0
C321 C 0.56485 0.84696 0.19596 0.0
H322 H 0.52883 0.85879 0.21958 0.0
H323 H 0.58825 0.89847 0.18398 0.0
O324 O 0.53947 0.93615 0.17368 0.0
O325 O 0.52277 0.8927 0.20385 0.0
O326 O 0.55246 0.90582 0.15055 0.0
O327 O 0.56925 0.92879 0.21449 0.0
H328 H 0.57032 0.96331 0.20882 0.0
H329 H 0.51971 0.95404 0.15047 0.0
H330 H 0.57822 0.99903 0.21842 0.0
H331 H 0.52854 0.98999 0.16114 0.0
H332 H 0.49555 0.87036 0.30048 0.0
H333 H 0.48625 0.88883 0.19357 0.0
H334 H 0.52377 0.88118 0.26207 0.0
H335 H 0.45856 0.87762 0.23304 0.0
H336 H 0.47033 0.90675 0.10754 0.0
H337 H 0.48583 0.86148 0.07582 0.0
H338 H 0.5402 0.953 0.31946 0.0
H339 H 0.49229 0.94248 0.25348 0.0
H340 H 0.57648 0.8933 0.12532 0.0
H341 H 0.54314 0.92503 0.10729 0.0
H342 H 0.58881 0.89981 0.07047 0.0
H343 H 0.55594 0.93085 0.05272 0.0
H344 H 0.60913 0.94309 0.2069 0.0
H345 H 0.55725 0.90665 0.26622 0.0
H346 H 0.63067 0.93521 0.24165 0.0
H347 H 0.57965 0.89938 0.30009 0.0
H348 H 0.59613 0.98864 0.09114 0.0
H349 H 0.62916 0.95669 0.11221 0.0
H350 H 0.53405 0.82903 0.21497 0.0
H351 H 0.59482 0.86969 0.17827 0.0
Li352 Li 0.63451 0.56447 0.51906 0.0
Li353 Li 0.65011 0.54635 0.54495 0.0
Li354 Li 0.61919 0.52652 0.50985 0.0
Li355 Li 0.61662 0.53886 0.5615 0.0
C356 C 0.65972 0.55611 0.47448 0.0
N357 N 0.68601 0.56941 0.42367 0.0
C358 C 0.68098 0.56778 0.47889 0.0
C359 C 0.65188 0.55127 0.44409 0.0
C360 C 0.694 0.57433 0.45296 0.0
C361 C 0.6654 0.55814 0.41875 0.0
C362 C 0.65836 0.57997 0.58167 0.0
C363 C 0.67712 0.58974 0.63022 0.0
N364 N 0.69054 0.60837 0.61775 0.0
C365 C 0.67226 0.59924 0.56937 0.0
C366 C 0.66071 0.57518 0.61238 0.0
C367 C 0.68846 0.61338 0.58798 0.0
C368 C 0.62362 0.59279 0.49441 0.0
N369 N 0.63918 0.58864 0.49734 0.0
C370 C 0.65733 0.61108 0.45501 0.0
C371 C 0.65649 0.59869 0.47982 0.0
C372 C 0.64032 0.61353 0.4487 0.0
C373 C 0.62393 0.60538 0.47017 0.0
H374 H 0.61016 0.58492 0.50908 0.0
H375 H 0.66903 0.59587 0.48348 0.0
C376 C 0.67558 0.53148 0.53723 0.0
N377 N 0.67548 0.54745 0.55189 0.0
C378 C 0.69407 0.53229 0.53051 0.0
C379 C 0.71203 0.56523 0.55657 0.0
C380 C 0.6931 0.56382 0.5627 0.0
C381 C 0.71261 0.54977 0.53894 0.0
H382 H 0.66135 0.51887 0.5284 0.0
H383 H 0.69282 0.57659 0.57355 0.0
C384 C 0.5917 0.54122 0.49919 0.0
N385 N 0.5646 0.53975 0.45427 0.0
C386 C 0.57139 0.53499 0.50721 0.0
C387 C 0.59821 0.5467 0.46835 0.0
C388 C 0.55791 0.53432 0.48415 0.0
C389 C 0.58431 0.54589 0.44598 0.0
C390 C 0.61849 0.50523 0.57484 0.0
C391 C 0.60084 0.48604 0.57107 0.0
C392 C 0.62851 0.51064 0.60368 0.0
C393 C 0.59329 0.47264 0.59652 0.0
C394 C 0.62048 0.49681 0.62855 0.0
N395 N 0.60317 0.47827 0.6245 0.0
C396 C 0.61865 0.50136 0.46059 0.0
C397 C 0.58588 0.49574 0.47558 0.0
C398 C 0.61013 0.48824 0.43501 0.0
N399 N 0.60658 0.50544 0.47945 0.0
C400 C 0.57669 0.48245 0.45041 0.0
C401 C 0.58895 0.47903 0.4292 0.0
H402 H 0.63503 0.50895 0.46469 0.0
H403 H 0.57658 0.4989 0.49138 0.0
C404 C 0.59938 0.53942 0.6222 0.0
N405 N 0.59686 0.53033 0.59381 0.0
C406 C 0.5829 0.53189 0.64326 0.0
C407 C 0.56206 0.50572 0.6055 0.0
C408 C 0.57873 0.51381 0.58528 0.0
C409 C 0.56391 0.51484 0.63486 0.0
H410 H 0.61394 0.5527 0.62823 0.0
H411 H 0.57716 0.50714 0.56234 0.0
O412 O 0.64673 0.54929 0.49972 0.0
O413 O 0.64219 0.5661 0.56404 0.0
O414 O 0.60504 0.54183 0.52148 0.0
O415 O 0.62583 0.51875 0.55046 0.0
H416 H 0.68741 0.57215 0.50202 0.0
H417 H 0.63556 0.54221 0.43995 0.0
H418 H 0.71046 0.5834 0.45614 0.0
H419 H 0.65951 0.55446 0.39516 0.0
H420 H 0.67919 0.58622 0.65399 0.0
H421 H 0.67058 0.60323 0.54571 0.0
H422 H 0.65003 0.56037 0.62229 0.0
H423 H 0.69938 0.62834 0.57875 0.0
H424 H 0.67043 0.61709 0.43948 0.0
H425 H 0.61079 0.60745 0.467 0.0
H426 H 0.69392 0.51994 0.51723 0.0
H427 H 0.72605 0.57899 0.56329 0.0
H428 H 0.56609 0.53072 0.531 0.0
H429 H 0.6139 0.5518 0.46189 0.0
H430 H 0.54215 0.52951 0.49001 0.0
H431 H 0.5892 0.55021 0.42205 0.0
H432 H 0.59295 0.48166 0.54882 0.0
H433 H 0.64227 0.5254 0.60681 0.0
H434 H 0.57955 0.45779 0.59405 0.0
H435 H 0.628 0.50082 0.65108 0.0
H436 H 0.62005 0.48572 0.41954 0.0
H437 H 0.56031 0.47572 0.44678 0.0
H438 H 0.58489 0.53943 0.66559 0.0
H439 H 0.5476 0.49295 0.59761 0.0
Li440 Li 0.06161 0.63633 0.84672 0.0
Li441 Li 0.09747 0.65521 0.86851 0.0
Li442 Li 0.08431 0.62204 0.83701 0.0
Li443 Li 0.07178 0.62223 0.88893 0.0
C444 C 0.08588 0.65703 0.79706 0.0
N445 N 0.08009 0.67317 0.74255 0.0
C446 C 0.09552 0.67831 0.79297 0.0
C447 C 0.07346 0.64397 0.77328 0.0
C448 C 0.09237 0.68617 0.76527 0.0
C449 C 0.07065 0.65242 0.74595 0.0
C450 C 0.06698 0.64952 0.91937 0.0
C451 C 0.07772 0.65582 0.97322 0.0
N452 N 0.05799 0.64921 0.98195 0.0
C453 C 0.04682 0.64287 0.92881 0.0
C454 C 0.08259 0.65612 0.94166 0.0
C455 C 0.04258 0.64281 0.9606 0.0
C456 C 0.02515 0.62424 0.81349 0.0
N457 N 0.0417 0.64071 0.82633 0.0
C458 C 0.03586 0.66382 0.79565 0.0
C459 C 0.04651 0.66025 0.81927 0.0
C460 C 0.02011 0.64707 0.77944 0.0
C461 C 0.01408 0.62707 0.7898 0.0
H462 H 0.02154 0.60889 0.81987 0.0
H463 H 0.05978 0.67306 0.82997 0.0
C464 C 0.13941 0.68383 0.86884 0.0
N465 N 0.12044 0.68151 0.87282 0.0
C466 C 0.15645 0.70341 0.86536 0.0
C467 C 0.13407 0.71776 0.87076 0.0
C468 C 0.11749 0.6979 0.87459 0.0
C469 C 0.15374 0.7206 0.86535 0.0
H470 H 0.14111 0.67042 0.86666 0.0
H471 H 0.1021 0.69544 0.8771 0.0
C472 C 0.04687 0.58794 0.84084 0.0
N473 N 0.02986 0.54808 0.81894 0.0
C474 C 0.04581 0.57243 0.86017 0.0
C475 C 0.03932 0.58313 0.8103 0.0
C476 C 0.03711 0.55238 0.8487 0.0
C477 C 0.0308 0.56291 0.79967 0.0
C478 C 0.10914 0.62231 0.89454 0.0
C479 C 0.10264 0.60141 0.89179 0.0
C480 C 0.1245 0.63438 0.91604 0.0
C481 C 0.1115 0.59285 0.91083 0.0
C482 C 0.13301 0.62525 0.93461 0.0
N483 N 0.12638 0.60485 0.93166 0.0
C484 C 0.10392 0.62256 0.78131 0.0
C485 C 0.08724 0.58961 0.80474 0.0
C486 C 0.10831 0.61474 0.75471 0.0
N487 N 0.09282 0.60986 0.80511 0.0
C488 C 0.09146 0.58114 0.77866 0.0
C489 C 0.10157 0.59367 0.75284 0.0
H490 H 0.10894 0.63874 0.78252 0.0
H491 H 0.07896 0.57982 0.82412 0.0
C492 C 0.03975 0.59477 0.92613 0.0
N493 N 0.06061 0.60592 0.92598 0.0
C494 C 0.02948 0.57907 0.94783 0.0
C495 C 0.06221 0.58776 0.97075 0.0
C496 C 0.07185 0.60356 0.94884 0.0
C497 C 0.04083 0.57475 0.96951 0.0
H498 H 0.03117 0.59712 0.90791 0.0
H499 H 0.08831 0.61314 0.94928 0.0
O500 O 0.08844 0.64902 0.82429 0.0
O501 O 0.07136 0.64914 0.88851 0.0
O502 O 0.0551 0.60767 0.85172 0.0
O503 O 0.10069 0.631 0.87614 0.0
H504 H 0.10525 0.68865 0.81104 0.0
H505 H 0.06594 0.62748 0.77602 0.0
H506 H 0.09966 0.70261 0.76185 0.0
H507 H 0.06093 0.64249 0.72749 0.0
H508 H 0.08962 0.66077 0.99077 0.0
H509 H 0.03458 0.63764 0.91176 0.0
H510 H 0.09825 0.66119 0.93464 0.0
H511 H 0.02704 0.63761 0.9683 0.0
H512 H 0.04079 0.67948 0.78877 0.0
H513 H 0.00213 0.61366 0.778 0.0
H514 H 0.17136 0.705 0.86083 0.0
H515 H 0.13145 0.73069 0.87094 0.0
H516 H 0.05193 0.57578 0.8836 0.0
H517 H 0.04015 0.59487 0.79482 0.0
H518 H 0.03625 0.54027 0.86341 0.0
H519 H 0.02497 0.55902 0.77607 0.0
H520 H 0.09074 0.59187 0.87538 0.0
H521 H 0.12964 0.65058 0.91853 0.0
H522 H 0.10653 0.57666 0.90908 0.0
H523 H 0.14485 0.63438 0.95143 0.0
H524 H 0.11656 0.62499 0.73556 0.0
H525 H 0.08605 0.56481 0.77816 0.0
H526 H 0.01298 0.56932 0.94586 0.0
H527 H 0.07145 0.58506 0.98741 0.0
Li528 Li 0.90183 0.55444 0.46432 0.0
Li529 Li 0.93501 0.56992 0.49017 0.0
Li530 Li 0.92778 0.54699 0.44344 0.0
Li531 Li 0.91256 0.5329 0.49521 0.0
C532 C 0.92767 0.58503 0.42165 0.0
N533 N 0.92481 0.60677 0.37175 0.0
C534 C 0.93336 0.6057 0.42518 0.0
C535 C 0.92087 0.57552 0.39261 0.0
C536 C 0.9317 0.6164 0.39972 0.0
C537 C 0.91944 0.58674 0.3677 0.0
C538 C 0.90842 0.56576 0.5356 0.0
C539 C 0.91997 0.57642 0.58847 0.0
N540 N 0.91157 0.58878 0.58785 0.0
C541 C 0.89975 0.57844 0.5356 0.0
C542 C 0.91844 0.56458 0.56235 0.0
C543 C 0.90154 0.58999 0.56222 0.0
C544 C 0.86033 0.53956 0.46247 0.0
N545 N 0.87847 0.55697 0.45699 0.0
C546 C 0.86164 0.57672 0.45366 0.0
C547 C 0.87946 0.57532 0.45207 0.0
C548 C 0.84278 0.55908 0.4605 0.0
C549 C 0.84219 0.54022 0.46408 0.0
H550 H 0.86012 0.52534 0.4674 0.0
H551 H 0.89415 0.58907 0.44892 0.0
C552 C 0.96945 0.59238 0.52854 0.0
N553 N 0.95413 0.59335 0.5133 0.0
C554 C 0.97998 0.60607 0.55274 0.0
C555 C 0.96 0.62264 0.5432 0.0
C556 C 0.94993 0.60868 0.51901 0.0
C557 C 0.97463 0.62086 0.56127 0.0
H558 H 0.97256 0.58014 0.52338 0.0
H559 H 0.93763 0.60904 0.5065 0.0
C560 C 0.88571 0.51308 0.4333 0.0
N561 N 0.85898 0.4842 0.3912 0.0
C562 C 0.87881 0.49222 0.43802 0.0
C563 C 0.8788 0.51923 0.4074 0.0
C564 C 0.86537 0.47787 0.41639 0.0
C565 C 0.86534 0.5044 0.38633 0.0
C566 C 0.95041 0.53708 0.49609 0.0
C567 C 0.95637 0.52592 0.47688 0.0
C568 C 0.95281 0.53684 0.52845 0.0
C569 C 0.96438 0.5145 0.4904 0.0
C570 C 0.96084 0.52519 0.54107 0.0
N571 N 0.9664 0.51435 0.52195 0.0
C572 C 0.95702 0.55666 0.39557 0.0
C573 C 0.93101 0.52162 0.3979 0.0
C574 C 0.96798 0.55208 0.37375 0.0
N575 N 0.9392 0.54137 0.40776 0.0
C576 C 0.94137 0.51637 0.37609 0.0
C577 C 0.96051 0.53157 0.36462 0.0
H578 H 0.96329 0.57221 0.40414 0.0
H579 H 0.91724 0.50964 0.40862 0.0
C580 C 0.89198 0.50988 0.54817 0.0
N581 N 0.90298 0.51008 0.52286 0.0
C582 C 0.88645 0.49487 0.57115 0.0
C583 C 0.90277 0.47987 0.54083 0.0
C584 C 0.90774 0.49505 0.51822 0.0
C585 C 0.89239 0.47994 0.56815 0.0
H586 H 0.88784 0.52165 0.55087 0.0
H587 H 0.91605 0.49525 0.4975 0.0
O588 O 0.92933 0.57441 0.44633 0.0
O589 O 0.90722 0.55468 0.50948 0.0
O590 O 0.89883 0.52729 0.45435 0.0
O591 O 0.94242 0.54828 0.48325 0.0
H592 H 0.93888 0.61336 0.44743 0.0
H593 H 0.91691 0.55971 0.38924 0.0
H594 H 0.93591 0.63236 0.40218 0.0
H595 H 0.91413 0.57955 0.34512 0.0
H596 H 0.92788 0.57581 0.6092 0.0
H597 H 0.89188 0.57951 0.51519 0.0
H598 H 0.92512 0.55476 0.56287 0.0
H599 H 0.89502 0.59997 0.56245 0.0
H600 H 0.86272 0.59155 0.45078 0.0
H601 H 0.82807 0.52633 0.47008 0.0
H602 H 0.99104 0.60401 0.56612 0.0
H603 H 0.9556 0.63397 0.54878 0.0
H604 H 0.8839 0.4872 0.45808 0.0
H605 H 0.88353 0.53523 0.40382 0.0
H606 H 0.86001 0.46168 0.41965 0.0
H607 H 0.85987 0.50894 0.36618 0.0
H608 H 0.95486 0.52607 0.45181 0.0
H609 H 0.94833 0.54537 0.5437 0.0
H610 H 0.96899 0.50575 0.47579 0.0
H611 H 0.96262 0.52475 0.56608 0.0
H612 H 0.98267 0.56426 0.36541 0.0
H613 H 0.93524 0.50032 0.37033 0.0
H614 H 0.87794 0.49521 0.59132 0.0
H615 H 0.90777 0.46877 0.53745 0.0
Li616 Li 0.37661 0.92981 0.77456 0.0
Li617 Li 0.37367 0.91312 0.82489 0.0
Li618 Li 0.34329 0.90638 0.79367 0.0
Li619 Li 0.36294 0.93923 0.82068 0.0
C620 C 0.37228 0.89253 0.76107 0.0
N621 N 0.38823 0.87879 0.71501 0.0
C622 C 0.38733 0.88747 0.76845 0.0
C623 C 0.36513 0.89032 0.7304 0.0
C624 C 0.39526 0.88062 0.74479 0.0
C625 C 0.37346 0.88344 0.70741 0.0
C626 C 0.40474 0.96187 0.82403 0.0
C627 C 0.42267 0.98659 0.86492 0.0
N628 N 0.43281 0.00133 0.84295 0.0
C629 C 0.41532 0.97729 0.80186 0.0
C630 C 0.40844 0.96655 0.85584 0.0
C631 C 0.42947 0.99713 0.8119 0.0
C632 C 0.39359 0.95087 0.71595 0.0
N633 N 0.39515 0.94019 0.74045 0.0
C634 C 0.42768 0.94611 0.72249 0.0
C635 C 0.41175 0.93777 0.74406 0.0
C636 C 0.4269 0.9577 0.69743 0.0
C637 C 0.40958 0.96004 0.69409 0.0
H638 H 0.38038 0.95292 0.71409 0.0
H639 H 0.41296 0.92999 0.76448 0.0
C640 C 0.37527 0.88225 0.86202 0.0
N641 N 0.38547 0.90231 0.85301 0.0
C642 C 0.38289 0.87564 0.8865 0.0
C643 C 0.41186 0.91016 0.89044 0.0
C644 C 0.40383 0.916 0.86581 0.0
C645 C 0.40107 0.88992 0.90158 0.0
H646 H 0.36082 0.87162 0.85108 0.0
H647 H 0.41196 0.93163 0.85753 0.0
C648 C 0.33558 0.93145 0.76198 0.0
N649 N 0.29943 0.9235 0.73331 0.0
C650 C 0.32263 0.93734 0.77636 0.0
C651 C 0.3303 0.92177 0.73286 0.0
C652 C 0.30438 0.93312 0.76153 0.0
C653 C 0.31191 0.91781 0.71879 0.0
C654 C 0.34386 0.90195 0.8668 0.0
C655 C 0.32931 0.88104 0.86888 0.0
C656 C 0.35461 0.91262 0.8935 0.0
C657 C 0.32581 0.87112 0.8977 0.0
C658 C 0.35071 0.90214 0.92186 0.0
N659 N 0.33651 0.88178 0.92336 0.0
C660 C 0.31042 0.86792 0.77263 0.0
C661 C 0.302 0.88827 0.80507 0.0
C662 C 0.29068 0.85104 0.77637 0.0
N663 N 0.31573 0.88584 0.78764 0.0
C664 C 0.28222 0.87186 0.80951 0.0
C665 C 0.27665 0.85274 0.79609 0.0
H666 H 0.32188 0.8663 0.75968 0.0
H667 H 0.30692 0.90252 0.81751 0.0
C668 C 0.3733 0.97914 0.84629 0.0
N669 N 0.35977 0.95859 0.84559 0.0
C670 C 0.37257 0.99113 0.87074 0.0
C671 C 0.34248 0.9611 0.89072 0.0
C672 C 0.34387 0.94975 0.86609 0.0
C673 C 0.35755 0.98185 0.89417 0.0
H674 H 0.38538 0.98603 0.82908 0.0
H675 H 0.33292 0.93351 0.8645 0.0
O676 O 0.36449 0.89943 0.78387 0.0
O677 O 0.39094 0.94229 0.81467 0.0
O678 O 0.35333 0.93514 0.77636 0.0
O679 O 0.34783 0.91186 0.83868 0.0
H680 H 0.39296 0.88901 0.79213 0.0
H681 H 0.35337 0.894 0.7244 0.0
H682 H 0.40701 0.87679 0.7501 0.0
H683 H 0.36817 0.88179 0.68352 0.0
H684 H 0.4256 0.99043 0.88944 0.0
H685 H 0.41263 0.97405 0.77718 0.0
H686 H 0.40023 0.9549 0.87336 0.0
H687 H 0.43776 0.00921 0.79499 0.0
H688 H 0.44105 0.9445 0.72641 0.0
H689 H 0.40869 0.96922 0.67531 0.0
H690 H 0.37424 0.85988 0.89449 0.0
H691 H 0.42615 0.92146 0.90118 0.0
H692 H 0.32655 0.94491 0.79887 0.0
H693 H 0.34028 0.91731 0.72132 0.0
H694 H 0.29413 0.93745 0.77247 0.0
H695 H 0.30757 0.91022 0.69632 0.0
H696 H 0.32099 0.87248 0.84841 0.0
H697 H 0.36597 0.92879 0.89225 0.0
H698 H 0.31465 0.85493 0.89964 0.0
H699 H 0.359 0.91017 0.94267 0.0
H700 H 0.28697 0.83644 0.76595 0.0
H701 H 0.27179 0.87376 0.82475 0.0
H702 H 0.38424 0.00721 0.87215 0.0
H703 H 0.33063 0.95324 0.90814 0.0
Li704 Li 0.45876 0.38017 0.15865 0.0
Li705 Li 0.44371 0.3775 0.10794 0.0
Li706 Li 0.42129 0.36129 0.1543 0.0
Li707 Li 0.44258 0.34769 0.13104 0.0
C708 C 0.44168 0.40776 0.15912 0.0
N709 N 0.44434 0.44252 0.18587 0.0
C710 C 0.4517 0.42659 0.1434 0.0
C711 C 0.43295 0.40665 0.18842 0.0
C712 C 0.45291 0.44398 0.15733 0.0
C713 C 0.43447 0.42438 0.20155 0.0
C714 C 0.48563 0.38945 0.10848 0.0
C715 C 0.51786 0.40221 0.08136 0.0
N716 N 0.52224 0.4218 0.08706 0.0
C717 C 0.4905 0.4097 0.11421 0.0
C718 C 0.49944 0.38564 0.09203 0.0
C719 C 0.50905 0.42585 0.10314 0.0
C720 C 0.49363 0.3883 0.19304 0.0
N721 N 0.48107 0.39604 0.1868 0.0
C722 C 0.49847 0.42255 0.22474 0.0
C723 C 0.48357 0.41316 0.20159 0.0
C724 C 0.51088 0.4142 0.23285 0.0
C725 C 0.50857 0.39704 0.21633 0.0
H726 H 0.49151 0.37483 0.18063 0.0
H727 H 0.47376 0.41934 0.19621 0.0
C728 C 0.43574 0.4028 0.07006 0.0
N729 N 0.44643 0.39264 0.07092 0.0
C730 C 0.44106 0.41867 0.04865 0.0
C731 C 0.46683 0.41183 0.02735 0.0
C732 C 0.46089 0.39597 0.04905 0.0
C733 C 0.45756 0.42407 0.02809 0.0
H734 H 0.42429 0.39977 0.08774 0.0
H735 H 0.46889 0.38739 0.04984 0.0
C736 C 0.44582 0.35183 0.20428 0.0
N737 N 0.46081 0.35146 0.26309 0.0
C738 C 0.45556 0.34044 0.20986 0.0
C739 C 0.44344 0.36279 0.22874 0.0
C740 C 0.46308 0.34049 0.23972 0.0
C741 C 0.45121 0.3625 0.25826 0.0
C742 C 0.41495 0.3402 0.08235 0.0
C743 C 0.39484 0.32977 0.07099 0.0
C744 C 0.43093 0.34144 0.06402 0.0
C745 C 0.39102 0.32075 0.0414 0.0
C746 C 0.42649 0.33222 0.03456 0.0
N747 N 0.4068 0.32215 0.02395 0.0
C748 C 0.38694 0.36486 0.17492 0.0
C749 C 0.39255 0.34 0.20007 0.0
C750 C 0.37281 0.36274 0.19796 0.0
N751 N 0.39708 0.35418 0.17726 0.0
C752 C 0.37871 0.3375 0.22362 0.0
C753 C 0.36927 0.3496 0.22357 0.0
H754 H 0.39093 0.3761 0.15653 0.0
H755 H 0.4008 0.33167 0.20127 0.0
C756 C 0.46197 0.32437 0.12848 0.0
N757 N 0.44347 0.32332 0.12603 0.0
C758 C 0.46296 0.30643 0.13195 0.0
C759 C 0.42591 0.28672 0.12802 0.0
C760 C 0.42563 0.30507 0.125 0.0
C761 C 0.44471 0.28729 0.13274 0.0
H762 H 0.47584 0.3392 0.12989 0.0
H763 H 0.41114 0.30481 0.1234 0.0
O764 O 0.44018 0.3905 0.14567 0.0
O765 O 0.46743 0.37334 0.11869 0.0
O766 O 0.43881 0.35239 0.17498 0.0
O767 O 0.41887 0.34915 0.11125 0.0
H768 H 0.45856 0.42785 0.12072 0.0
H769 H 0.42522 0.39233 0.20108 0.0
H770 H 0.46066 0.45864 0.14543 0.0
H771 H 0.42782 0.42371 0.22423 0.0
H772 H 0.52866 0.39949 0.0685 0.0
H773 H 0.48008 0.41291 0.12706 0.0
H774 H 0.49588 0.37003 0.08741 0.0
H775 H 0.51297 0.44159 0.10733 0.0
H776 H 0.49968 0.43571 0.23703 0.0
H777 H 0.51802 0.3903 0.22165 0.0
H778 H 0.43361 0.4278 0.05025 0.0
H779 H 0.47946 0.41537 0.01162 0.0
H780 H 0.45743 0.33175 0.19132 0.0
H781 H 0.43588 0.37161 0.22493 0.0
H782 H 0.47077 0.33185 0.2443 0.0
H783 H 0.44963 0.37107 0.27731 0.0
H784 H 0.38231 0.32869 0.08491 0.0
H785 H 0.44659 0.3494 0.07239 0.0
H786 H 0.37553 0.31263 0.0323 0.0
H787 H 0.43871 0.33307 0.02012 0.0
H788 H 0.36561 0.3721 0.19661 0.0
H789 H 0.37676 0.32734 0.24287 0.0
H790 H 0.47777 0.30769 0.13595 0.0
H791 H 0.4115 0.27232 0.12789 0.0
Li792 Li 0.06718 0.44622 0.43945 0.0
Li793 Li 0.08355 0.46436 0.48725 0.0
Li794 Li 0.09593 0.44332 0.46001 0.0
Li795 Li 0.06346 0.42715 0.48813 0.0
C796 C 0.10186 0.4872 0.43197 0.0
N797 N 0.11315 0.52472 0.40474 0.0
C798 C 0.0878 0.49415 0.43 0.0
C799 C 0.12165 0.49928 0.41993 0.0
C800 C 0.09378 0.51316 0.41619 0.0
C801 C 0.12708 0.51823 0.40632 0.0
C802 C 0.04459 0.45621 0.49429 0.0
C803 C 0.03494 0.46622 0.54214 0.0
N804 N 0.02714 0.47606 0.52526 0.0
C805 C 0.0363 0.46631 0.47744 0.0
C806 C 0.04374 0.45605 0.52692 0.0
C807 C 0.0276 0.47628 0.49351 0.0
C808 C 0.03316 0.44029 0.40552 0.0
N809 N 0.05367 0.44777 0.40293 0.0
C810 C 0.05475 0.46459 0.35505 0.0
C811 C 0.06435 0.45876 0.3775 0.0
C812 C 0.03407 0.45917 0.3591 0.0
C813 C 0.023 0.44592 0.3839 0.0
H814 H 0.02507 0.43151 0.42597 0.0
H815 H 0.08065 0.46435 0.37582 0.0
C816 C 0.10477 0.49027 0.5373 0.0
N817 N 0.0923 0.48827 0.51296 0.0
C818 C 0.10906 0.50491 0.56049 0.0
C819 C 0.08922 0.51661 0.53167 0.0
C820 C 0.08513 0.50155 0.5092 0.0
C821 C 0.10076 0.51798 0.55835 0.0
H822 H 0.11078 0.47995 0.53944 0.0
H823 H 0.07552 0.50001 0.48951 0.0
C824 C 0.07114 0.41392 0.41624 0.0
N825 N 0.07562 0.40088 0.35792 0.0
C826 C 0.05879 0.39338 0.40748 0.0
C827 C 0.08578 0.42784 0.39534 0.0
C828 C 0.06129 0.38708 0.37789 0.0
C829 C 0.0878 0.42095 0.36597 0.0
C830 C 0.09374 0.43684 0.53183 0.0
C831 C 0.10475 0.42636 0.5319 0.0
C832 C 0.08511 0.43873 0.5597 0.0
C833 C 0.10655 0.41759 0.55963 0.0
C834 C 0.08719 0.4297 0.58693 0.0
N835 N 0.09776 0.41938 0.58633 0.0
C836 C 0.13779 0.45964 0.45761 0.0
C837 C 0.1192 0.42383 0.4471 0.0
C838 C 0.15619 0.45944 0.45859 0.0
N839 N 0.11983 0.44196 0.4525 0.0
C840 C 0.13728 0.42289 0.44807 0.0
C841 C 0.15599 0.44078 0.45467 0.0
H842 H 0.13763 0.47366 0.4627 0.0
H843 H 0.10459 0.40993 0.44386 0.0
C844 C 0.02992 0.40407 0.52808 0.0
N845 N 0.04667 0.40471 0.51496 0.0
C846 C 0.02149 0.39281 0.55532 0.0
C847 C 0.04612 0.38111 0.55283 0.0
C848 C 0.0539 0.39241 0.52534 0.0
C849 C 0.03051 0.38225 0.56915 0.0
H850 H 0.02402 0.41345 0.51874 0.0
H851 H 0.06696 0.39287 0.51396 0.0
O852 O 0.09623 0.46844 0.44483 0.0
O853 O 0.0534 0.44649 0.47899 0.0
O854 O 0.06877 0.42024 0.44515 0.0
O855 O 0.09156 0.44529 0.50472 0.0
H856 H 0.07236 0.48483 0.43869 0.0
H857 H 0.13268 0.49404 0.42093 0.0
H858 H 0.083 0.51867 0.41446 0.0
H859 H 0.14235 0.52775 0.39691 0.0
H860 H 0.03434 0.4663 0.56738 0.0
H861 H 0.03672 0.46669 0.45224 0.0
H862 H 0.04985 0.44821 0.54039 0.0
H863 H 0.02127 0.48425 0.48072 0.0
H864 H 0.0638 0.47438 0.33595 0.0
H865 H 0.00713 0.44141 0.38839 0.0
H866 H 0.11797 0.50524 0.58057 0.0
H867 H 0.08293 0.52667 0.52854 0.0
H868 H 0.04739 0.38241 0.42341 0.0
H869 H 0.09554 0.44378 0.40167 0.0
H870 H 0.05183 0.37121 0.37081 0.0
H871 H 0.09907 0.43155 0.34957 0.0
H872 H 0.11166 0.4248 0.51076 0.0
H873 H 0.0769 0.44708 0.56039 0.0
H874 H 0.11489 0.40932 0.5599 0.0
H875 H 0.08042 0.4309 0.60855 0.0
H876 H 0.17023 0.47349 0.46428 0.0
H877 H 0.13654 0.40824 0.44486 0.0
H878 H 0.00892 0.39348 0.56653 0.0
H879 H 0.05344 0.37306 0.56247 0.0
Li880 Li 0.64614 0.09923 0.80051 0.0
Li881 Li 0.63406 0.06358 0.81709 0.0
Li882 Li 0.61851 0.072 0.77305 0.0
Li883 Li 0.613 0.0799 0.82733 0.0
C884 C 0.65031 0.06945 0.75002 0.0
N885 N 0.6555 0.05339 0.69501 0.0
C886 C 0.64968 0.05055 0.7501 0.0
C887 C 0.65382 0.08032 0.72208 0.0
C888 C 0.65229 0.04266 0.72201 0.0
C889 C 0.65632 0.07189 0.69447 0.0
C890 C 0.64853 0.08672 0.87051 0.0
C891 C 0.64486 0.07188 0.9217 0.0
N892 N 0.66552 0.08341 0.92588 0.0
C893 C 0.66972 0.09849 0.87536 0.0
C894 C 0.63596 0.0734 0.89392 0.0
C895 C 0.67802 0.09658 0.90351 0.0
C896 C 0.66987 0.13758 0.82567 0.0
N897 N 0.66958 0.1256 0.80169 0.0
C898 C 0.70442 0.14971 0.78901 0.0
C899 C 0.68619 0.13136 0.78302 0.0
C900 C 0.70542 0.16193 0.81459 0.0
C901 C 0.68768 0.15594 0.83249 0.0
H902 H 0.65649 0.13233 0.84044 0.0
H903 H 0.68556 0.12127 0.76447 0.0
C904 C 0.62667 0.02717 0.84644 0.0
N905 N 0.64185 0.04583 0.83679 0.0
C906 C 0.6304 0.01674 0.87013 0.0
C907 C 0.66601 0.04365 0.87044 0.0
C908 C 0.66152 0.0536 0.84676 0.0
C909 C 0.65004 0.02557 0.88374 0.0
H910 H 0.61127 0.02114 0.83757 0.0
H911 H 0.67336 0.06841 0.83836 0.0
C912 C 0.62583 0.11689 0.78138 0.0
N913 N 0.64034 0.15759 0.76628 0.0
C914 C 0.62299 0.12967 0.80201 0.0
C915 C 0.63584 0.12471 0.75294 0.0
C916 C 0.63049 0.15023 0.79397 0.0
C917 C 0.64313 0.14536 0.74577 0.0
C918 C 0.58488 0.03899 0.81728 0.0
C919 C 0.56868 0.03319 0.79621 0.0
C920 C 0.58071 0.03105 0.84764 0.0
C921 C 0.5486 0.01954 0.80585 0.0
C922 C 0.56042 0.01748 0.8564 0.0
N923 N 0.54492 0.01205 0.8355 0.0
C924 C 0.60061 0.04379 0.72288 0.0
C925 C 0.59304 0.07083 0.72471 0.0
C926 C 0.58507 0.03327 0.70093 0.0
N927 N 0.60382 0.06189 0.73497 0.0
C928 C 0.57706 0.06063 0.70333 0.0
C929 C 0.5722 0.04106 0.69232 0.0
H930 H 0.6089 0.03666 0.7321 0.0
H931 H 0.59555 0.08496 0.73528 0.0
C932 C 0.60703 0.09725 0.8803 0.0
N933 N 0.59634 0.08308 0.85782 0.0
C934 C 0.59683 0.09986 0.9055 0.0
C935 C 0.56464 0.07374 0.88351 0.0
C936 C 0.57547 0.07194 0.85834 0.0
C937 C 0.57542 0.08765 0.90765 0.0
H938 H 0.62359 0.10628 0.87896 0.0
H939 H 0.5672 0.06138 0.83964 0.0
O940 O 0.64784 0.07744 0.77727 0.0
O941 O 0.64017 0.08803 0.84282 0.0
O942 O 0.61897 0.09683 0.78907 0.0
O943 O 0.60469 0.05223 0.80818 0.0
H944 H 0.64708 0.04201 0.77159 0.0
H945 H 0.65453 0.09506 0.72172 0.0
H946 H 0.65174 0.028 0.72166 0.0
H947 H 0.65893 0.08006 0.67263 0.0
H948 H 0.63534 0.06151 0.93993 0.0
H949 H 0.67969 0.10879 0.85741 0.0
H950 H 0.61954 0.06426 0.89061 0.0
H951 H 0.6944 0.10551 0.90751 0.0
H952 H 0.71785 0.15373 0.77485 0.0
H953 H 0.68775 0.16504 0.85216 0.0
H954 H 0.61754 0.00289 0.87946 0.0
H955 H 0.68148 0.05078 0.87967 0.0
H956 H 0.61522 0.12381 0.82408 0.0
H957 H 0.63807 0.11496 0.7367 0.0
H958 H 0.62852 0.16034 0.80978 0.0
H959 H 0.65102 0.15167 0.72393 0.0
H960 H 0.57149 0.03914 0.77268 0.0
H961 H 0.59296 0.03545 0.86439 0.0
H962 H 0.53595 0.01494 0.78976 0.0
H963 H 0.55699 0.0113 0.87985 0.0
H964 H 0.58221 0.01844 0.69267 0.0
H965 H 0.56751 0.06722 0.69787 0.0
H966 H 0.60565 0.11075 0.92371 0.0
H967 H 0.54806 0.0643 0.88424 0.0
Li968 Li 0.57569 0.64153 0.15323 0.0
Li969 Li 0.56078 0.65861 0.12532 0.0
Li970 Li 0.53935 0.63144 0.16313 0.0
Li971 Li 0.5491 0.62439 0.11282 0.0
C972 C 0.56052 0.67181 0.1865 0.0
N973 N 0.55286 0.70037 0.21502 0.0
C974 C 0.54391 0.67401 0.17692 0.0
C975 C 0.57307 0.68404 0.21088 0.0
C976 C 0.54036 0.68857 0.19151 0.0
C977 C 0.56895 0.69838 0.22496 0.0
C978 C 0.59191 0.66349 0.09073 0.0
C979 C 0.60115 0.68524 0.04523 0.0
N980 N 0.62046 0.69691 0.05682 0.0
C981 C 0.61191 0.67555 0.10204 0.0
C982 C 0.58652 0.66821 0.06195 0.0
C983 C 0.6261 0.69244 0.0846 0.0
C984 C 0.60177 0.62768 0.1777 0.0
N985 N 0.59869 0.64395 0.17506 0.0
C986 C 0.61962 0.66011 0.21962 0.0
C987 C 0.60843 0.66058 0.19401 0.0
C988 C 0.62101 0.64241 0.22536 0.0
C989 C 0.61313 0.62667 0.20275 0.0
H990 H 0.5938 0.61464 0.16222 0.0
H991 H 0.60595 0.67342 0.19084 0.0
C992 C 0.55285 0.68942 0.10242 0.0
N993 N 0.56748 0.68556 0.11368 0.0
C994 C 0.55554 0.70915 0.10482 0.0
C995 C 0.58901 0.72074 0.12759 0.0
C996 C 0.58559 0.70081 0.1251 0.0
C997 C 0.57342 0.72486 0.11897 0.0
H998 H 0.5383 0.67684 0.09454 0.0
H999 H 0.59657 0.69713 0.13507 0.0
C1000 C 0.5512 0.60338 0.18057 0.0
N1001 N 0.55204 0.58286 0.2336 0.0
C1002 C 0.54613 0.58281 0.17876 0.0
C1003 C 0.5566 0.6135 0.20942 0.0
C1004 C 0.54665 0.5727 0.20583 0.0
C1005 C 0.55698 0.60287 0.23592 0.0
C1006 C 0.51685 0.62747 0.09927 0.0
C1007 C 0.49751 0.6112 0.10742 0.0
C1008 C 0.52107 0.63374 0.06812 0.0
C1009 C 0.48283 0.60116 0.0841 0.0
C1010 C 0.50598 0.62331 0.04547 0.0
N1011 N 0.48734 0.60735 0.05386 0.0
C1012 C 0.51853 0.63012 0.22098 0.0
C1013 C 0.50568 0.59913 0.19239 0.0
C1014 C 0.50526 0.61972 0.24572 0.0
N1015 N 0.51866 0.61972 0.19504 0.0
C1016 C 0.49245 0.58806 0.21681 0.0
C1017 C 0.49238 0.59829 0.24428 0.0
H1018 H 0.52924 0.64629 0.2234 0.0
H1019 H 0.50643 0.59109 0.17192 0.0
C1020 C 0.5453 0.60463 0.05292 0.0
N1021 N 0.53836 0.60306 0.08271 0.0
C1022 C 0.53608 0.58757 0.03295 0.0
C1023 C 0.51277 0.56805 0.07474 0.0
C1024 C 0.52248 0.58528 0.0938 0.0
C1025 C 0.51954 0.56898 0.04389 0.0
H1026 H 0.55799 0.61902 0.04478 0.0
H1027 H 0.51741 0.58452 0.11765 0.0
O1028 O 0.56494 0.65837 0.17142 0.0
O1029 O 0.57779 0.64698 0.10757 0.0
O1030 O 0.55088 0.61348 0.15414 0.0
O1031 O 0.53161 0.63717 0.12165 0.0
H1032 H 0.53384 0.66462 0.15839 0.0
H1033 H 0.58585 0.68252 0.21899 0.0
H1034 H 0.52766 0.69049 0.18414 0.0
H1035 H 0.57859 0.70796 0.24378 0.0
H1036 H 0.59715 0.68915 0.02301 0.0
H1037 H 0.61638 0.67201 0.12416 0.0
H1038 H 0.5712 0.65887 0.05267 0.0
H1039 H 0.64159 0.702 0.09318 0.0
H1040 H 0.62538 0.67267 0.23616 0.0
H1041 H 0.61434 0.613 0.20563 0.0
H1042 H 0.54301 0.71158 0.09822 0.0
H1043 H 0.60312 0.73245 0.13823 0.0
H1044 H 0.54189 0.57476 0.15662 0.0
H1045 H 0.56056 0.62941 0.21134 0.0
H1046 H 0.5428 0.55678 0.20476 0.0
H1047 H 0.56123 0.61054 0.25834 0.0
H1048 H 0.49392 0.60629 0.13145 0.0
H1049 H 0.53588 0.64642 0.06148 0.0
H1050 H 0.46785 0.58843 0.09004 0.0
H1051 H 0.50909 0.62789 0.02123 0.0
H1052 H 0.50558 0.62838 0.26614 0.0
H1053 H 0.48316 0.57152 0.21468 0.0
H1054 H 0.54178 0.58886 0.00935 0.0
H1055 H 0.50044 0.55394 0.08443 0.0
H1056 H 0.50637 0.10827 0.05235 0.0
H1057 H 0.53298 0.07547 0.09741 0.0
H1058 H 0.52349 0.10872 0.00375 0.0
H1059 H 0.54913 0.0751 0.0482 0.0
H1060 H 0.54902 0.05589 0.94437 0.0
H1061 H 0.53324 0.05769 0.99343 0.0
H1062 H 0.56197 0.12353 0.98364 0.0
H1063 H 0.57805 0.12178 0.93472 0.0
C1064 C 0.51606 0.10142 0.05215 0.0
C1065 C 0.51819 0.09177 0.07896 0.0
C1066 C 0.52572 0.10157 0.02419 0.0
C1067 C 0.53741 0.09178 0.02229 0.0
C1068 C 0.53992 0.08249 0.04905 0.0
C1069 C 0.53058 0.08265 0.07717 0.0
C1070 C 0.55177 0.0707 0.95259 0.0
C1071 C 0.56466 0.08869 0.93586 0.0
C1072 C 0.54293 0.07174 0.9807 0.0
C1073 C 0.54654 0.09076 0.99226 0.0
C1074 C 0.55898 0.10871 0.97512 0.0
C1075 C 0.56815 0.10771 0.94728 0.0
H1076 H 0.45429 0.5633 0.24541 0.0
H1077 H 0.50281 0.60628 0.30621 0.0
H1078 H 0.43586 0.54257 0.29078 0.0
H1079 H 0.48383 0.58601 0.35133 0.0
H1080 H 0.43222 0.55278 0.42534 0.0
H1081 H 0.4489 0.57434 0.3795 0.0
H1082 H 0.44438 0.52181 0.3311 0.0
H1083 H 0.42791 0.50035 0.37693 0.0
C1084 C 0.46102 0.56842 0.26833 0.0
C1085 C 0.48012 0.58651 0.27197 0.0
C1086 C 0.45039 0.55657 0.29428 0.0
C1087 C 0.45846 0.56273 0.32446 0.0
C1088 C 0.47718 0.58107 0.32831 0.0
C1089 C 0.48798 0.59274 0.30237 0.0
C1090 C 0.43478 0.5459 0.40484 0.0
C1091 C 0.42894 0.52499 0.40464 0.0
C1092 C 0.44434 0.5582 0.37874 0.0
C1093 C 0.44784 0.54968 0.35183 0.0
C1094 C 0.44169 0.5287 0.35149 0.0
C1095 C 0.43247 0.51649 0.37774 0.0
H1096 H 0.88256 0.43945 0.56456 0.0
H1097 H 0.89495 0.4877 0.63093 0.0
H1098 H 0.88063 0.41711 0.60745 0.0
H1099 H 0.89242 0.4652 0.67352 0.0
H1100 H 0.8736 0.41501 0.7459 0.0
H1101 H 0.86822 0.4323 0.70142 0.0
H1102 H 0.90731 0.41857 0.64456 0.0
H1103 H 0.91252 0.40121 0.68882 0.0
C1104 C 0.88474 0.44527 0.58822 0.0
C1105 C 0.88902 0.46545 0.59418 0.0
C1106 C 0.88353 0.43243 0.61276 0.0
C1107 C 0.88636 0.43942 0.64379 0.0
C1108 C 0.88984 0.45927 0.64987 0.0
C1109 C 0.89125 0.47216 0.62538 0.0
C1110 C 0.88071 0.4154 0.72371 0.0
C1111 C 0.89361 0.40696 0.7208 0.0
C1112 C 0.87775 0.42538 0.69837 0.0
C1113 C 0.88742 0.42683 0.66959 0.0
C1114 C 0.89953 0.41754 0.66636 0.0
C1115 C 0.90267 0.40778 0.69174 0.0
H1116 H 0.48076 0.87541 0.02736 0.0
H1117 H 0.43754 0.87902 0.08992 0.0
H1118 H 0.45904 0.87237 0.98301 0.0
H1119 H 0.41602 0.87628 0.04544 0.0
H1120 H 0.40922 0.90916 0.95739 0.0
H1121 H 0.42392 0.90257 0.00362 0.0
H1122 H 0.42405 0.85179 0.95644 0.0
H1123 H 0.40915 0.85848 0.90983 0.0
C1124 C 0.46637 0.875 0.03176 0.0
C1125 C 0.46103 0.87778 0.06214 0.0
C1126 C 0.45394 0.87326 0.00633 0.0
C1127 C 0.43599 0.87434 0.01078 0.0
C1128 C 0.42996 0.87572 0.04132 0.0
C1129 C 0.44231 0.87737 0.06674 0.0
C1130 C 0.41222 0.89647 0.95704 0.0
C1131 C 0.40827 0.88442 0.93011 0.0
C1132 C 0.42044 0.89256 0.98356 0.0
C1133 C 0.42508 0.87663 0.98364 0.0
C1134 C 0.42065 0.8642 0.95693 0.0
C1135 C 0.4121 0.86795 0.93041 0.0
H1136 H 0.55247 0.44307 0.42201 0.0
H1137 H 0.60477 0.48882 0.37028 0.0
H1138 H 0.53571 0.42642 0.3731 0.0
H1139 H 0.58825 0.47186 0.32147 0.0
H1140 H 0.5375 0.45457 0.24603 0.0
H1141 H 0.55828 0.46876 0.29298 0.0
H1142 H 0.53752 0.40733 0.32702 0.0
H1143 H 0.51637 0.39313 0.28024 0.0
C1144 C 0.56049 0.4494 0.40022 0.0
C1145 C 0.57988 0.46731 0.4 0.0
C1146 C 0.55099 0.43975 0.37223 0.0
C1147 C 0.56063 0.44791 0.34344 0.0
C1148 C 0.58036 0.46535 0.34329 0.0
C1149 C 0.5899 0.47493 0.37127 0.0
C1150 C 0.53751 0.44412 0.26345 0.0
C1151 C 0.52527 0.42276 0.25956 0.0
C1152 C 0.54954 0.45222 0.2902 0.0
C1153 C 0.54949 0.43915 0.31372 0.0
C1154 C 0.53773 0.41777 0.30939 0.0
C1155 C 0.5258 0.40966 0.2825 0.0
H1156 H 0.07217 0.52744 0.57988 0.0
H1157 H 0.13389 0.53946 0.59746 0.0
H1158 H 0.07437 0.54765 0.6256 0.0
H1159 H 0.13562 0.55904 0.64404 0.0
H1160 H 0.11481 0.56596 0.74541 0.0
H1161 H 0.11636 0.54957 0.69679 0.0
H1162 H 0.09478 0.58455 0.64544 0.0
H1163 H 0.09315 0.60083 0.6939 0.0
C1164 C 0.08636 0.53467 0.59308 0.0
C1165 C 0.10286 0.53177 0.58482 0.0
C1166 C 0.08754 0.54615 0.61943 0.0
C1167 C 0.10513 0.55482 0.63839 0.0
C1168 C 0.12179 0.55231 0.62998 0.0
C1169 C 0.12074 0.54104 0.60335 0.0
C1170 C 0.11052 0.57019 0.72368 0.0
C1171 C 0.10388 0.58466 0.72339 0.0
C1172 C 0.11156 0.56096 0.69589 0.0
C1173 C 0.10567 0.5658 0.66742 0.0
C1174 C 0.09931 0.58048 0.6671 0.0
C1175 C 0.09853 0.58989 0.69477 0.0
H1176 H 0.34797 0.03243 0.07565 0.0
H1177 H 0.38874 0.00771 0.08453 0.0
H1178 H 0.34336 0.02326 0.02006 0.0
H1179 H 0.38373 0.9982 0.02977 0.0
H1180 H 0.39233 0.00642 0.92717 0.0
H1181 H 0.39479 0.01838 0.98061 0.0
H1182 H 0.32898 0.99231 0.98378 0.0
H1183 H 0.3265 0.98079 0.92965 0.0
C1184 C 0.35567 0.02477 0.0659 0.0
C1185 C 0.36864 0.02072 0.0846 0.0
C1186 C 0.35301 0.01952 0.03415 0.0
C1187 C 0.36347 0.01035 0.02051 0.0
C1188 C 0.37578 0.00562 0.03949 0.0
C1189 C 0.37834 0.01074 0.07108 0.0
C1190 C 0.37842 0.00377 0.93881 0.0
C1191 C 0.35919 0.99253 0.92416 0.0
C1192 C 0.37981 0.01036 0.96963 0.0
C1193 C 0.36202 0.00587 0.98656 0.0
C1194 C 0.34292 0.9959 0.97133 0.0
C1195 C 0.34151 0.98923 0.94042 0.0
H1196 H 0.34449 0.3182 0.26374 0.0
H1197 H 0.37006 0.38344 0.24888 0.0
H1198 H 0.33363 0.32171 0.31608 0.0
H1199 H 0.35851 0.38663 0.30039 0.0
H1200 H 0.3282 0.38593 0.39039 0.0
H1201 H 0.3279 0.37589 0.33607 0.0
H1202 H 0.35611 0.34041 0.36354 0.0
H1203 H 0.35631 0.35038 0.418 0.0
C1204 C 0.34747 0.3332 0.27131 0.0
C1205 C 0.35843 0.35058 0.2521 0.0
C1206 C 0.34118 0.33515 0.30123 0.0
C1207 C 0.34537 0.35445 0.31234 0.0
C1208 C 0.35488 0.37151 0.29233 0.0
C1209 C 0.36143 0.36963 0.26263 0.0
C1210 C 0.33377 0.37548 0.38496 0.0
C1211 C 0.34229 0.36892 0.4084 0.0
C1212 C 0.33373 0.36988 0.35385 0.0
C1213 C 0.34204 0.35744 0.3456 0.0
C1214 C 0.34942 0.34986 0.36927 0.0
C1215 C 0.34968 0.35566 0.40038 0.0
H1216 H 0.02422 0.40181 0.61754 0.0
H1217 H 0.02646 0.34684 0.59542 0.0
H1218 H 0.01666 0.39106 0.67139 0.0
H1219 H 0.01976 0.3364 0.65038 0.0
H1220 H 0.97698 0.31547 0.74012 0.0
H1221 H 0.99189 0.32426 0.68803 0.0
H1222 H 0.03162 0.38693 0.71785 0.0
H1223 H 0.01575 0.37863 0.76895 0.0
C1224 C 0.02298 0.38732 0.62414 0.0
C1225 C 0.02556 0.375 0.60198 0.0
C1226 C 0.0191 0.38136 0.6553 0.0
C1227 C 0.01789 0.36299 0.66541 0.0
C1228 C 0.02059 0.35064 0.64335 0.0
C1229 C 0.02447 0.35664 0.61193 0.0
C1230 C 0.98909 0.33108 0.73571 0.0
C1231 C 0.99462 0.34645 0.75858 0.0
C1232 C 0.9978 0.33606 0.70586 0.0
C1233 C 0.01246 0.35646 0.69848 0.0
C1234 C 0.01985 0.3712 0.7225 0.0
C1235 C 0.01095 0.36631 0.75212 0.0
H1236 H 0.62695 0.95536 0.0557 0.0
H1237 H 0.6307 0.01349 0.07576 0.0
H1238 H 0.64236 0.96818 0.00464 0.0
H1239 H 0.64489 0.02587 0.02419 0.0
H1240 H 0.67321 0.04811 0.93357 0.0
H1241 H 0.67135 0.0364 0.98689 0.0
H1242 H 0.6296 0.97402 0.95755 0.0
H1243 H 0.6326 0.98554 0.90384 0.0
C1244 C 0.63148 0.97104 0.04952 0.0
C1245 C 0.6274 0.98335 0.06972 0.0
C1246 C 0.64007 0.9783 0.02003 0.0
C1247 C 0.64464 0.99796 0.00999 0.0
C1248 C 0.64179 0.01071 0.03106 0.0
C1249 C 0.63336 0.00352 0.06058 0.0
C1250 C 0.66428 0.03178 0.93816 0.0
C1251 C 0.65274 0.01782 0.91435 0.0
C1252 C 0.66296 0.02509 0.96896 0.0
C1253 C 0.64991 0.00434 0.97678 0.0
C1254 C 0.63983 0.99013 0.95254 0.0
C1255 C 0.64133 0.99678 0.92168 0.0
H1256 H 0.60492 0.60636 0.2579 0.0
H1257 H 0.65078 0.67078 0.26484 0.0
H1258 H 0.61112 0.60134 0.31161 0.0
H1259 H 0.65578 0.66598 0.31981 0.0
H1260 H 0.67072 0.64394 0.41232 0.0
H1261 H 0.66806 0.65127 0.35761 0.0
H1262 H 0.6026 0.60909 0.3606 0.0
H1263 H 0.60544 0.6005 0.41398 0.0
C1264 C 0.61661 0.61945 0.27062 0.0
C1265 C 0.62731 0.63903 0.25679 0.0
C1266 C 0.61981 0.61664 0.30184 0.0
C1267 C 0.63352 0.63336 0.32039 0.0
C1268 C 0.64503 0.65276 0.30629 0.0
C1269 C 0.64202 0.65554 0.27479 0.0
C1270 C 0.65575 0.6362 0.40129 0.0
C1271 C 0.63836 0.62142 0.4177 0.0
C1272 C 0.65421 0.64057 0.36995 0.0
C1273 C 0.63519 0.63041 0.35442 0.0
C1274 C 0.61762 0.61674 0.37147 0.0
C1275 C 0.6192 0.61216 0.40252 0.0
H1276 H 0.98075 0.62589 0.75657 0.0
H1277 H 0.04184 0.67462 0.73331 0.0
H1278 H 0.97015 0.62509 0.70269 0.0
H1279 H 0.03096 0.67452 0.67981 0.0
H1280 H 0.01358 0.63867 0.58521 0.0
H1281 H 0.02401 0.65026 0.63859 0.0
H1282 H 0.96343 0.64059 0.65849 0.0
H1283 H 0.95275 0.62811 0.6054 0.0
C1284 C 0.99177 0.63679 0.74016 0.0
C1285 C 0.01223 0.65005 0.7492 0.0
C1286 C 0.98564 0.63651 0.70927 0.0
C1287 C -0.0002 0.64955 0.68676 0.0
C1288 C 0.01978 0.66401 0.69643 0.0
C1289 C 0.02594 0.66424 0.72728 0.0
C1290 C 0.00259 0.63931 0.60085 0.0
C1291 C 0.98229 0.63223 0.59116 0.0
C1292 C 0.00862 0.64618 0.63141 0.0
C1293 C 0.99448 0.64617 0.65299 0.0
C1294 C 0.9746 0.64051 0.6426 0.0
C1295 C 0.96856 0.63359 0.61202 0.0
H1296 H 0.47493 0.93685 0.30302 0.0
H1297 H 0.53711 0.98427 0.32326 0.0
H1298 H 0.46218 0.95849 0.32287 0.0
H1299 H 0.52427 0.00558 0.34545 0.0
H1300 H 0.49781 0.04675 0.31201 0.0
H1301 H 0.51258 0.025 0.31979 0.0
H1302 H 0.45493 0.97748 0.35795 0.0
H1303 H 0.43987 -0.00075 0.34861 0.0
C1304 C 0.48585 0.95171 0.31266 0.0
C1305 C 0.50706 0.95911 0.31057 0.0
C1306 C 0.47851 0.9641 0.32455 0.0
C1307 C 0.49221 0.98414 0.33512 0.0
C1308 C 0.51329 0.9905 0.33662 0.0
C1309 C 0.52067 0.97817 0.32426 0.0
C1310 C 0.48848 0.03196 0.32315 0.0
C1311 C 0.4676 0.02459 0.32933 0.0
C1312 C 0.497 0.01939 0.32773 0.0
C1313 C 0.48488 -0.00082 0.33893 0.0
C1314 C 0.46459 0.99271 0.34841 0.0
C1315 C 0.45596 0.0052 0.34331 0.0
H1316 H 0.55104 0.53809 0.66636 0.0
H1317 H 0.53446 0.47523 0.64731 0.0
H1318 H 0.51628 0.52651 0.68494 0.0
H1319 H 0.49956 0.46374 0.66402 0.0
H1320 H 0.43586 0.44485 0.6838 0.0
H1321 H 0.47198 0.4583 0.69724 0.0
H1322 H 0.48739 0.51571 0.65208 0.0
H1323 H 0.45182 0.5025 0.63912 0.0
C1324 C 0.54017 0.52175 0.66705 0.0
C1325 C 0.54528 0.50761 0.65451 0.0
C1326 C 0.52016 0.51511 0.6774 0.0
C1327 C 0.50489 0.49426 0.67504 0.0
C1328 C 0.51078 0.47992 0.66614 0.0
C1329 C 0.53079 0.48653 0.65613 0.0
C1330 C 0.44696 0.46053 0.67754 0.0
C1331 C 0.44094 0.4725 0.66011 0.0
C1332 C 0.46765 0.46824 0.68521 0.0
C1333 C 0.48271 0.48801 0.6754 0.0
C1334 C 0.47633 0.50055 0.66051 0.0
C1335 C 0.45575 0.4929 0.65297 0.0
H1336 H 0.00459 0.55708 0.0022 0.0
H1337 H 0.05382 0.54701 0.97307 0.0
H1338 H 0.98354 0.52063 0.01488 0.0
H1339 H 0.03279 0.51075 0.98448 0.0
H1340 H 0.99244 0.4452 0.99248 0.0
H1341 H 0.01257 0.48016 0.01306 0.0
H1342 H 0.9667 0.49391 0.97848 0.0
H1343 H 0.9465 0.45904 0.95938 0.0
C1344 C 0.0111 0.54717 0.99937 0.0
C1345 C 0.03069 0.55479 0.98616 0.0
C1346 C -0.00097 0.52627 0.00646 0.0
C1347 C 0.00619 0.51257 0.99988 0.0
C1348 C 0.02668 0.52071 0.99004 0.0
C1349 C 0.03882 0.54162 0.98337 0.0
C1350 C 0.98636 0.45553 0.99049 0.0
C1351 C 0.96818 0.44964 0.97377 0.0
C1352 C 0.99796 0.47561 0.00199 0.0
C1353 C 0.99156 0.49009 0.99684 0.0
C1354 C 0.97221 0.48333 0.9831 0.0
C1355 C 0.96066 0.46334 0.97178 0.0
H1356 H 0.95006 0.50284 0.31797 0.0
H1357 H 0.00106 0.54562 0.37493 0.0
H1358 H 0.96983 0.48671 0.30148 0.0
H1359 H 0.02049 0.52951 0.35922 0.0
H1360 H 0.05369 0.49915 0.33874 0.0
H1361 H 0.0378 0.51921 0.3247 0.0
H1362 H 0.97798 0.46444 0.32893 0.0
H1363 H 0.994 0.44407 0.34034 0.0
C1364 C 0.96566 0.5091 0.32637 0.0
C1365 C 0.9739 0.52533 0.34807 0.0
C1366 C 0.97696 0.49983 0.31702 0.0
C1367 C 0.99666 0.50652 0.32938 0.0
C1368 C 0.00551 0.52399 0.34879 0.0
C1369 C 0.9943 0.5333 0.35793 0.0
C1370 C 0.03722 0.49113 0.33523 0.0
C1371 C 0.02509 0.46999 0.34167 0.0
C1372 C 0.02806 0.50277 0.3276 0.0
C1373 C 0.00655 0.49364 0.32684 0.0
C1374 C 0.99459 0.47213 0.32951 0.0
C1375 C 0.00378 0.46042 0.33656 0.0
H1376 H 0.44822 0.99889 0.68715 0.0
H1377 H 0.44796 0.94268 0.66567 0.0
H1378 H 0.48421 0.01872 0.67187 0.0
H1379 H 0.48387 0.96247 0.64947 0.0
H1380 H 0.54707 -0.00021 0.70076 0.0
H1381 H 0.51141 0.97928 0.6869 0.0
H1382 H 0.5143 0.03077 0.63749 0.0
H1383 H 0.55072 0.05155 0.65084 0.0
C1384 C 0.45561 0.99085 0.67765 0.0
C1385 C 0.4455 0.9693 0.67803 0.0
C1386 C 0.47626 0.0022 0.66884 0.0
C1387 C 0.48706 0.99214 0.66015 0.0
C1388 C 0.4761 0.97064 0.65674 0.0
C1389 C 0.45554 0.95931 0.66582 0.0
C1390 C 0.54056 0.00666 0.68575 0.0
C1391 C 0.55191 0.02752 0.67725 0.0
C1392 C 0.5199 0.99478 0.67778 0.0
C1393 C 0.50989 0.0034 0.66126 0.0
C1394 C 0.52153 0.02377 0.65059 0.0
C1395 C 0.54237 0.03567 0.65835 0.0
H1396 H 0.49821 0.45237 0.02653 0.0
H1397 H 0.43911 0.44215 0.99591 0.0
H1398 H 0.51333 0.48864 0.01585 0.0
H1399 H 0.45444 0.47873 0.9841 0.0
H1400 H 0.47885 0.54096 0.03767 0.0
H1401 H 0.46419 0.50589 0.01949 0.0
H1402 H 0.52402 0.51895 0.98705 0.0
H1403 H 0.53888 0.55395 0.00707 0.0
C1404 C 0.48861 0.45774 0.01611 0.0
C1405 C 0.46738 0.44444 0.01255 0.0
C1406 C 0.49733 0.47868 0.00987 0.0
C1407 C 0.48505 0.48681 0.99971 0.0
C1408 C 0.46425 0.47309 0.99272 0.0
C1409 C 0.45547 0.45213 0.99933 0.0
C1410 C 0.48881 0.53644 0.02613 0.0
C1411 C 0.5101 0.55 0.02468 0.0
C1412 C 0.48035 0.51633 0.01525 0.0
C1413 C 0.49298 0.50933 0.00237 0.0
C1414 C 0.51393 0.52366 0.99758 0.0
C1415 C 0.52243 0.5438 0.00875 0.0
H1416 H 0.47305 0.27615 0.11579 0.0
H1417 H 0.41768 0.25578 0.17006 0.0
H1418 H 0.47554 0.24689 0.13456 0.0
H1419 H 0.41943 0.22591 0.18711 0.0
H1420 H 0.44029 0.1874 0.2401 0.0
H1421 H 0.43898 0.21741 0.22136 0.0
H1422 H 0.4601 0.21055 0.1306 0.0
H1423 H 0.46192 0.18098 0.1497 0.0
C1424 C 0.46131 0.26535 0.13148 0.0
C1425 C 0.44519 0.26838 0.1414 0.0
C1426 C 0.46262 0.24845 0.14201 0.0
C1427 C 0.44775 0.23409 0.16253 0.0
C1428 C 0.43136 0.23685 0.17178 0.0
C1429 C 0.43014 0.25382 0.16149 0.0
C1430 C 0.44474 0.19243 0.21622 0.0
C1431 C 0.45133 0.18199 0.19643 0.0
C1432 C 0.44388 0.20952 0.20538 0.0
C1433 C 0.44934 0.21635 0.17439 0.0
C1434 C 0.4561 0.20594 0.15472 0.0
C1435 C 0.45715 0.189 0.16566 0.0
H1436 H 0.15968 0.41233 0.4892 0.0
H1437 H 0.19495 0.46741 0.43453 0.0
H1438 H 0.19127 0.41289 0.5042 0.0
H1439 H 0.22658 0.46829 0.45023 0.0
H1440 H 0.27746 0.45273 0.46251 0.0
H1441 H 0.24532 0.44949 0.44419 0.0
H1442 H 0.22096 0.435 0.53797 0.0
H1443 H 0.25326 0.43834 0.55642 0.0
C1444 C 0.17416 0.42436 0.47998 0.0
C1445 C 0.17488 0.43982 0.46066 0.0
C1446 C 0.19224 0.42483 0.48891 0.0
C1447 C 0.21138 0.44072 0.47861 0.0
C1448 C 0.21204 0.45578 0.4584 0.0
C1449 C 0.19396 0.45535 0.44956 0.0
C1450 C 0.26534 0.44908 0.47931 0.0
C1451 C 0.26797 0.44601 0.511 0.0
C1452 C 0.24691 0.44714 0.46877 0.0
C1453 C 0.23066 0.44203 0.48964 0.0
C1454 C 0.23315 0.4387 0.52127 0.0
C1455 C 0.25163 0.44066 0.53185 0.0
H1456 H 0.72106 0.17221 0.87342 0.0
H1457 H 0.7344 0.19214 0.77738 0.0
H1458 H 0.75385 0.20118 0.88949 0.0
H1459 H 0.76721 0.22138 0.79349 0.0
H1460 H 0.833 0.25698 0.82808 0.0
H1461 H 0.8 0.22806 0.81326 0.0
H1462 H 0.7721 0.23823 0.8945 0.0
H1463 H 0.80552 0.26668 0.91027 0.0
C1464 C 0.7309 0.18298 0.85579 0.0
C1465 C 0.72514 0.17998 0.82413 0.0
C1466 C 0.74968 0.19959 0.86501 0.0
C1467 C 0.76315 0.21359 0.8428 0.0
C1468 C 0.75731 0.21068 0.81113 0.0
C1469 C 0.73853 0.19399 0.80188 0.0
C1470 C 0.81995 0.25281 0.8432 0.0
C1471 C 0.82196 0.26402 0.87059 0.0
C1472 C 0.80092 0.23644 0.83436 0.0
C1473 C 0.78338 0.23092 0.85255 0.0
C1474 C 0.78537 0.242 0.88009 0.0
C1475 C 0.80446 0.25839 0.88901 0.0
H1476 H 0.56093 0.7482 0.08646 0.0
H1477 H 0.58774 0.74516 0.17422 0.0
H1478 H 0.55965 0.77824 0.10539 0.0
H1479 H 0.58675 0.77524 0.19273 0.0
H1480 H 0.59792 0.84128 0.2029 0.0
H1481 H 0.60161 0.81281 0.18268 0.0
H1482 H 0.53966 0.78396 0.14677 0.0
H1483 H 0.53612 0.81247 0.16631 0.0
C1484 C 0.5667 0.75402 0.10962 0.0
C1485 C 0.57455 0.74435 0.1287 0.0
C1486 C 0.56594 0.77118 0.12047 0.0
C1487 C 0.57306 0.77901 0.15056 0.0
C1488 C 0.58142 0.76971 0.16929 0.0
C1489 C 0.58207 0.75252 0.15855 0.0
C1490 C 0.58511 0.8288 0.19076 0.0
C1491 C 0.56669 0.82902 0.18638 0.0
C1492 C 0.58719 0.81252 0.17929 0.0
C1493 C 0.57097 0.79628 0.16295 0.0
C1494 C 0.55251 0.79641 0.15888 0.0
C1495 C 0.55038 0.81258 0.17052 0.0
H1496 H 0.8402 0.58832 0.4949 0.0
H1497 H 0.80334 0.53259 0.44232 0.0
H1498 H 0.8091 0.58798 0.51211 0.0
H1499 H 0.77227 0.53176 0.46054 0.0
H1500 H 0.72042 0.54404 0.47907 0.0
H1501 H 0.75237 0.54871 0.45725 0.0
H1502 H 0.7811 0.56733 0.54798 0.0
H1503 H 0.74904 0.56295 0.56971 0.0
C1504 C 0.82547 0.5762 0.48657 0.0
C1505 C 0.82419 0.56044 0.4673 0.0
C1506 C 0.80766 0.57584 0.49682 0.0
C1507 C 0.78822 0.55973 0.48798 0.0
C1508 C 0.787 0.54447 0.46763 0.0
C1509 C 0.80479 0.54485 0.45736 0.0
C1510 C 0.73353 0.54898 0.4944 0.0
C1511 C 0.73221 0.55279 0.5262 0.0
C1512 C 0.75183 0.5517 0.48188 0.0
C1513 C 0.76922 0.55825 0.5009 0.0
C1514 C 0.76803 0.56249 0.53262 0.0
C1515 C 0.74969 0.55987 0.54514 0.0
H1516 H 0.15378 0.74716 0.82217 0.0
H1517 H 0.1927 0.73975 0.88881 0.0
H1518 H 0.18297 0.77985 0.80515 0.0
H1519 H 0.2219 0.77243 0.87178 0.0
H1520 H 0.26267 0.84168 0.85532 0.0
H1521 H 0.23223 0.81037 0.87277 0.0
H1522 H 0.21723 0.79034 0.777 0.0
H1523 H 0.24782 0.82188 0.75941 0.0
C1524 C 0.16852 0.75269 0.83345 0.0
C1525 C 0.17103 0.74105 0.85691 0.0
C1526 C 0.18522 0.77124 0.82349 0.0
C1527 C 0.20463 0.77857 0.83712 0.0
C1528 C 0.20703 0.76714 0.86104 0.0
C1529 C 0.1904 0.74846 0.8707 0.0
C1530 C 0.2527 0.83074 0.83795 0.0
C1531 C 0.25747 0.83423 0.80598 0.0
C1532 C 0.23542 0.81276 0.84797 0.0
C1533 C 0.22245 0.79798 0.82623 0.0
C1534 C 0.22695 0.8016 0.7942 0.0
C1535 C 0.24444 0.81953 0.78415 0.0
loop_
_geom_bond_atom_site_label_1
_geom_bond_atom_site_label_2
_geom_bond_distance
_geom_bond_site_symmetry_2
_ccdc_geom_bond_type
Li0 N17 1.990 . S
Li0 O60 1.956 . S
Li0 O61 1.970 . S
Li0 O62 1.961 . S
Li1 N25 1.990 . S
Li1 O60 1.970 . S
Li1 O61 1.956 . S
Li1 O63 1.961 . S
Li2 N47 1.990 . S
Li2 O60 1.961 . S
Li2 O62 1.956 . S
Li2 O63 1.970 . S
Li3 N53 1.990 . S
Li3 O61 1.961 . S
Li3 O62 1.970 . S
Li3 O63 1.956 . S
C4 C6 1.348 . S
C4 C7 1.356 . S
C4 O60 1.325 . S
N5 C8 1.314 . S
N5 C9 1.279 . S
C6 C4 1.348 . S
C6 C8 1.353 . S
C6 H64 0.929 . S
C7 C4 1.356 . S
C7 C9 1.358 . S
C7 H65 0.930 . S
C8 N5 1.314 . S
C8 C6 1.353 . S
C8 H66 0.930 . S
C9 N5 1.279 . S
C9 C7 1.358 . S
C9 H67 0.930 . S
C10 C13 1.348 . S
C10 C14 1.356 . S
C10 O61 1.325 . S
C11 N12 1.279 . S
C11 C14 1.358 . S
C11 H68 0.930 . S
N12 C11 1.279 . S
N12 C15 1.314 . S
C13 C10 1.348 . S
C13 C15 1.353 . S
C13 H69 0.929 . S
C14 C10 1.356 . S
C14 C11 1.358 . S
C14 H70 0.930 . S
C15 N12 1.314 . S
C15 C13 1.353 . S
C15 H71 0.930 . S
C16 N17 1.314 . S
C16 C21 1.353 . S
C16 H22 0.930 . S
N17 Li0 1.990 . S
N17 C16 1.314 . S
N17 C19 1.279 . S
C18 C19 1.358 . S
C18 C20 1.356 . S
C18 H72 0.930 . S
C19 N17 1.279 . S
C19 C18 1.358 . S
C19 H23 0.930 . S
C20 C18 1.356 . S
C20 C21 1.348 . S
C21 C16 1.353 . S
C21 C20 1.348 . S
C21 H73 0.914 1_545 S
H22 C16 0.930 . S
H23 C19 0.930 . S
C24 N25 1.314 . S
C24 C26 1.353 . S
C24 H30 0.930 . S
N25 Li1 1.990 . S
N25 C24 1.314 . S
N25 C28 1.279 . S
C26 C24 1.353 . S
C26 C29 1.348 . S
C26 H74 0.929 . S
C27 C28 1.358 . S
C27 C29 1.356 . S
C27 H75 0.930 . S
C28 N25 1.279 . S
C28 C27 1.358 . S
C28 H31 0.930 . S
C29 C26 1.348 . S
C29 C27 1.356 . S
H30 C24 0.930 . S
H31 C28 0.930 . S
C32 C34 1.348 . S
C32 C35 1.356 . S
C32 O62 1.325 . S
N33 C36 1.314 . S
N33 C37 1.279 . S
C34 C32 1.348 . S
C34 C36 1.353 . S
C34 H76 0.929 . S
C35 C32 1.356 . S
C35 C37 1.358 . S
C35 H77 0.930 . S
C36 N33 1.314 . S
C36 C34 1.353 . S
C36 H78 0.930 . S
C37 N33 1.279 . S
C37 C35 1.358 . S
C37 H79 0.930 . S
C38 C39 1.348 . S
C38 C40 1.356 . S
C38 O63 1.325 . S
C39 C38 1.348 . S
C39 C41 1.353 . S
C39 H80 0.929 . S
C40 C38 1.356 . S
C40 C42 1.358 . S
C40 H81 0.930 . S
C41 C39 1.353 . S
C41 N43 1.314 . S
C41 H82 0.930 . S
C42 C40 1.358 . S
C42 N43 1.279 . S
C42 H83 0.930 . S
N43 C41 1.314 . S
N43 C42 1.279 . S
C44 C46 1.353 . S
C44 N47 1.314 . S
C44 H50 0.930 . S
C45 N47 1.279 . S
C45 C48 1.358 . S
C45 H51 0.930 . S
C46 C44 1.353 . S
C46 C49 1.348 . S
C46 H84 0.929 . S
N47 Li2 1.990 . S
N47 C44 1.314 . S
N47 C45 1.279 . S
C48 C45 1.358 . S
C48 C49 1.356 . S
C48 H85 0.930 . S
C49 C46 1.348 . S
C49 C48 1.356 . S
H50 C44 0.930 . S
H51 C45 0.930 . S
C52 N53 1.314 . S
C52 C54 1.353 . S
C52 H58 0.930 . S
N53 Li3 1.990 . S
N53 C52 1.314 . S
N53 C56 1.279 . S
C54 C52 1.353 . S
C54 C57 1.348 . S
C54 H86 0.929 . S
C55 C56 1.358 . S
C55 C57 1.356 . S
C55 H87 0.930 . S
C56 N53 1.279 . S
C56 C55 1.358 . S
C56 H59 0.930 . S
C57 C54 1.348 . S
C57 C55 1.356 . S
H58 C52 0.930 . S
H59 C56 0.930 . S
O60 Li0 1.956 . S
O60 Li1 1.970 . S
O60 Li2 1.961 . S
O60 C4 1.325 . S
O61 Li0 1.970 . S
O61 Li1 1.956 . S
O61 Li3 1.961 . S
O61 C10 1.325 . S
O62 Li0 1.961 . S
O62 Li2 1.956 . S
O62 Li3 1.970 . S
O62 C32 1.325 . S
O63 Li1 1.961 . S
O63 Li2 1.970 . S
O63 Li3 1.956 . S
O63 C38 1.325 . S
H64 C6 0.929 . S
H65 C7 0.930 . S
H66 C8 0.930 . S
H67 C9 0.930 . S
H68 C11 0.930 . S
H69 C13 0.929 . S
H70 C14 0.930 . S
H71 C15 0.930 . S
H72 C18 0.930 . S
H73 C21 0.914 1_565 S
H74 C26 0.929 . S
H75 C27 0.930 . S
H76 C34 0.929 . S
H77 C35 0.930 . S
H78 C36 0.930 . S
H79 C37 0.930 . S
H80 C39 0.929 . S
H81 C40 0.930 . S
H82 C41 0.930 . S
H83 C42 0.930 . S
H84 C46 0.929 . S
H85 C48 0.930 . S
H86 C54 0.929 . S
H87 C55 0.930 . S
Li88 N105 1.990 . S
Li88 O148 1.956 . S
Li88 O149 1.970 . S
Li88 O150 1.961 . S
Li89 N113 1.990 . S
Li89 O148 1.970 . S
Li89 O149 1.956 . S
Li89 O151 1.961 . S
Li90 N135 1.990 . S
Li90 O148 1.961 . S
Li90 O150 1.956 . S
Li90 O151 1.970 . S
Li91 N141 1.990 . S
Li91 O149 1.961 . S
Li91 O150 1.970 . S
Li91 O151 1.956 . S
C92 C94 1.348 . S
C92 C95 1.356 . S
C92 O148 1.325 . S
N93 C96 1.314 . S
N93 C97 1.279 . S
C94 C92 1.348 . S
C94 C96 1.353 . S
C94 H152 0.929 . S
C95 C92 1.356 . S
C95 C97 1.358 . S
C95 H153 0.930 . S
C96 N93 1.314 . S
C96 C94 1.353 . S
C96 H154 0.930 . S
C97 N93 1.279 . S
C97 C95 1.358 . S
C97 H155 0.930 . S
C98 C101 1.348 . S
C98 C102 1.356 . S
C98 O149 1.325 . S
C99 N100 1.279 . S
C99 C102 1.358 . S
C99 H156 0.930 . S
N100 C99 1.279 . S
N100 C103 1.314 . S
C101 C98 1.348 . S
C101 C103 1.353 . S
C101 H157 0.929 . S
C102 C98 1.356 . S
C102 C99 1.358 . S
C102 H158 0.930 . S
C103 N100 1.314 . S
C103 C101 1.353 . S
C103 H159 0.930 . S
C104 N105 1.314 . S
C104 C109 1.353 . S
C104 H110 0.930 . S
N105 Li88 1.990 . S
N105 C104 1.314 . S
N105 C107 1.279 . S
C106 C107 1.358 . S
C106 C108 1.356 . S
C106 H160 0.930 . S
C107 N105 1.279 . S
C107 C106 1.358 . S
C107 H111 0.930 . S
C108 C106 1.356 . S
C108 C109 1.348 . S
C109 C104 1.353 . S
C109 C108 1.348 . S
C109 H161 0.929 . S
H110 C104 0.930 . S
H111 C107 0.930 . S
C112 N113 1.314 . S
C112 C114 1.353 . S
C112 H118 0.930 . S
N113 Li89 1.990 . S
N113 C112 1.314 . S
N113 C116 1.279 . S
C114 C112 1.353 . S
C114 C117 1.348 . S
C114 H162 0.929 . S
C115 C116 1.358 . S
C115 C117 1.356 . S
C115 H163 0.930 . S
C116 N113 1.279 . S
C116 C115 1.358 . S
C116 H119 0.930 . S
C117 C114 1.348 . S
C117 C115 1.356 . S
H118 C112 0.930 . S
H119 C116 0.930 . S
C120 C122 1.348 . S
C120 C123 1.356 . S
C120 O150 1.325 . S
N121 C124 1.314 . S
N121 C125 1.279 . S
C122 C120 1.348 . S
C122 C124 1.353 . S
C122 H164 0.929 . S
C123 C120 1.356 . S
C123 C125 1.358 . S
C123 H165 0.930 . S
C124 N121 1.314 . S
C124 C122 1.353 . S
C124 H166 0.930 . S
C125 N121 1.279 . S
C125 C123 1.358 . S
C125 H167 0.930 . S
C126 C127 1.348 . S
C126 C128 1.356 . S
C126 O151 1.325 . S
C127 C126 1.348 . S
C127 C129 1.353 . S
C127 H168 0.929 . S
C128 C126 1.356 . S
C128 C130 1.358 . S
C128 H169 0.930 . S
C129 C127 1.353 . S
C129 N131 1.314 . S
C129 H170 0.930 . S
C130 C128 1.358 . S
C130 N131 1.279 . S
C130 H171 0.930 . S
N131 C129 1.314 . S
N131 C130 1.279 . S
C132 C134 1.353 . S
C132 N135 1.314 . S
C132 H138 0.930 . S
C133 N135 1.279 . S
C133 C136 1.358 . S
C133 H139 0.930 . S
C134 C132 1.353 . S
C134 C137 1.348 . S
C134 H172 0.929 . S
N135 Li90 1.990 . S
N135 C132 1.314 . S
N135 C133 1.279 . S
C136 C133 1.358 . S
C136 C137 1.356 . S
C136 H173 0.930 . S
C137 C134 1.348 . S
C137 C136 1.356 . S
H138 C132 0.930 . S
H139 C133 0.930 . S
C140 N141 1.314 . S
C140 C142 1.353 . S
C140 H146 0.930 . S
N141 Li91 1.990 . S
N141 C140 1.314 . S
N141 C144 1.279 . S
C142 C140 1.353 . S
C142 C145 1.348 . S
C142 H174 0.929 . S
C143 C144 1.358 . S
C143 C145 1.356 . S
C143 H175 0.930 . S
C144 N141 1.279 . S
C144 C143 1.358 . S
C144 H147 0.930 . S
C145 C142 1.348 . S
C145 C143 1.356 . S
H146 C140 0.930 . S
H147 C144 0.930 . S
O148 Li88 1.956 . S
O148 Li89 1.970 . S
O148 Li90 1.961 . S
O148 C92 1.325 . S
O149 Li88 1.970 . S
O149 Li89 1.956 . S
O149 Li91 1.961 . S
O149 C98 1.325 . S
O150 Li88 1.961 . S
O150 Li90 1.956 . S
O150 Li91 1.970 . S
O150 C120 1.325 . S
O151 Li89 1.961 . S
O151 Li90 1.970 . S
O151 Li91 1.956 . S
O151 C126 1.325 . S
H152 C94 0.929 . S
H153 C95 0.930 . S
H154 C96 0.930 . S
H155 C97 0.930 . S
H156 C99 0.930 . S
H157 C101 0.929 . S
H158 C102 0.930 . S
H159 C103 0.930 . S
H160 C106 0.930 . S
H161 C109 0.929 . S
H162 C114 0.929 . S
H163 C115 0.930 . S
H164 C122 0.929 . S
H165 C123 0.930 . S
H166 C124 0.930 . S
H167 C125 0.930 . S
H168 C127 0.929 . S
H169 C128 0.930 . S
H170 C129 0.930 . S
H171 C130 0.930 . S
H172 C134 0.929 . S
H173 C136 0.930 . S
H174 C142 0.929 . S
H175 C143 0.930 . S
Li176 N193 1.990 . S
Li176 O236 1.956 . S
Li176 O237 1.970 . S
Li176 O238 1.961 . S
Li177 N201 1.990 . S
Li177 O236 1.970 . S
Li177 O237 1.956 . S
Li177 O239 1.961 . S
Li178 N223 1.990 . S
Li178 O236 1.961 . S
Li178 O238 1.956 . S
Li178 O239 1.970 . S
Li179 N229 1.990 . S
Li179 O237 1.961 . S
Li179 O238 1.970 . S
Li179 O239 1.956 . S
C180 C182 1.348 . S
C180 C183 1.356 . S
C180 O236 1.325 . S
N181 C184 1.314 . S
N181 C185 1.279 . S
C182 C180 1.348 . S
C182 C184 1.353 . S
C182 H240 0.929 . S
C183 C180 1.356 . S
C183 C185 1.358 . S
C183 H241 0.930 . S
C184 N181 1.314 . S
C184 C182 1.353 . S
C184 H242 0.930 . S
C185 N181 1.279 . S
C185 C183 1.358 . S
C185 H243 0.930 . S
C186 C189 1.348 . S
C186 C190 1.356 . S
C186 O237 1.325 . S
C187 N188 1.279 . S
C187 C190 1.358 . S
C187 H244 0.930 . S
N188 C187 1.279 . S
N188 C191 1.314 . S
C189 C186 1.348 . S
C189 C191 1.353 . S
C189 H245 0.929 . S
C190 C186 1.356 . S
C190 C187 1.358 . S
C190 H246 0.930 . S
C191 N188 1.314 . S
C191 C189 1.353 . S
C191 H247 0.930 . S
C192 N193 1.314 . S
C192 C197 1.353 . S
C192 H198 0.930 . S
N193 Li176 1.990 . S
N193 C192 1.314 . S
N193 C195 1.279 . S
C194 C195 1.358 . S
C194 C196 1.356 . S
C194 H248 0.930 . S
C195 N193 1.279 . S
C195 C194 1.358 . S
C195 H199 0.930 . S
C196 C194 1.356 . S
C196 C197 1.348 . S
C197 C192 1.353 . S
C197 C196 1.348 . S
C197 H249 0.929 . S
H198 C192 0.930 . S
H199 C195 0.930 . S
C200 N201 1.314 . S
C200 C202 1.353 . S
C200 H206 0.930 . S
N201 Li177 1.990 . S
N201 C200 1.314 . S
N201 C204 1.279 . S
C202 C200 1.353 . S
C202 C205 1.348 . S
C202 H250 0.929 . S
C203 C204 1.358 . S
C203 C205 1.356 . S
C203 H251 0.930 . S
C204 N201 1.279 . S
C204 C203 1.358 . S
C204 H207 0.930 . S
C205 C202 1.348 . S
C205 C203 1.356 . S
H206 C200 0.930 . S
H207 C204 0.930 . S
C208 C210 1.348 . S
C208 C211 1.356 . S
C208 O238 1.325 . S
N209 C212 1.314 . S
N209 C213 1.279 . S
C210 C208 1.348 . S
C210 C212 1.353 . S
C210 H252 0.929 . S
C211 C208 1.356 . S
C211 C213 1.358 . S
C211 H253 0.930 . S
C212 N209 1.314 . S
C212 C210 1.353 . S
C212 H254 0.930 . S
C213 N209 1.279 . S
C213 C211 1.358 . S
C213 H255 0.930 . S
C214 C215 1.348 . S
C214 C216 1.356 . S
C214 O239 1.325 . S
C215 C214 1.348 . S
C215 C217 1.353 . S
C215 H256 0.929 . S
C216 C214 1.356 . S
C216 C218 1.358 . S
C216 H257 0.930 . S
C217 C215 1.353 . S
C217 N219 1.314 . S
C217 H258 0.930 . S
C218 C216 1.358 . S
C218 N219 1.279 . S
C218 H259 0.930 . S
N219 C217 1.314 . S
N219 C218 1.279 . S
C220 C222 1.353 . S
C220 N223 1.314 . S
C220 H226 0.930 . S
C221 N223 1.279 . S
C221 C224 1.358 . S
C221 H227 0.930 . S
C222 C220 1.353 . S
C222 C225 1.348 . S
C222 H260 0.920 1_655 S
N223 Li178 1.990 . S
N223 C220 1.314 . S
N223 C221 1.279 . S
C224 C221 1.358 . S
C224 C225 1.356 . S
C224 H261 0.930 . S
C225 C222 1.348 . S
C225 C224 1.356 . S
H226 C220 0.930 . S
H227 C221 0.930 . S
C228 N229 1.314 . S
C228 C230 1.353 . S
C228 H234 0.930 . S
N229 Li179 1.990 . S
N229 C228 1.314 . S
N229 C232 1.279 . S
C230 C228 1.353 . S
C230 C233 1.348 . S
C230 H262 0.929 . S
C231 C232 1.358 . S
C231 C233 1.356 . S
C231 H263 0.930 . S
C232 N229 1.279 . S
C232 C231 1.358 . S
C232 H235 0.930 . S
C233 C230 1.348 . S
C233 C231 1.356 . S
H234 C228 0.930 . S
H235 C232 0.930 . S
O236 Li176 1.956 . S
O236 Li177 1.970 . S
O236 Li178 1.961 . S
O236 C180 1.325 . S
O237 Li176 1.970 . S
O237 Li177 1.956 . S
O237 Li179 1.961 . S
O237 C186 1.325 . S
O238 Li176 1.961 . S
O238 Li178 1.956 . S
O238 Li179 1.970 . S
O238 C208 1.325 . S
O239 Li177 1.961 . S
O239 Li178 1.970 . S
O239 Li179 1.956 . S
O239 C214 1.325 . S
H240 C182 0.929 . S
H241 C183 0.930 . S
H242 C184 0.930 . S
H243 C185 0.930 . S
H244 C187 0.930 . S
H245 C189 0.929 . S
H246 C190 0.930 . S
H247 C191 0.930 . S
H248 C194 0.930 . S
H249 C197 0.929 . S
H250 C202 0.929 . S
H251 C203 0.930 . S
H252 C210 0.929 . S
H253 C211 0.930 . S
H254 C212 0.930 . S
H255 C213 0.930 . S
H256 C215 0.929 . S
H257 C216 0.930 . S
H258 C217 0.930 . S
H259 C218 0.930 . S
H260 C222 0.920 1_455 S
H261 C224 0.930 . S
H262 C230 0.929 . S
H263 C231 0.930 . S
Li264 N281 1.990 . S
Li264 O324 1.956 . S
Li264 O325 1.970 . S
Li264 O326 1.961 . S
Li265 N289 1.990 . S
Li265 O324 1.970 . S
Li265 O325 1.956 . S
Li265 O327 1.961 . S
Li266 N311 1.990 . S
Li266 O324 1.961 . S
Li266 O326 1.956 . S
Li266 O327 1.970 . S
Li267 N317 1.990 . S
Li267 O325 1.961 . S
Li267 O326 1.970 . S
Li267 O327 1.956 . S
C268 C270 1.348 . S
C268 C271 1.356 . S
C268 O324 1.325 . S
N269 C272 1.314 . S
N269 C273 1.279 . S
C270 C268 1.348 . S
C270 C272 1.353 . S
C270 H328 0.929 . S
C271 C268 1.356 . S
C271 C273 1.358 . S
C271 H329 0.930 . S
C272 N269 1.314 . S
C272 C270 1.353 . S
C272 H330 0.930 . S
C273 N269 1.279 . S
C273 C271 1.358 . S
C273 H331 0.930 . S
C274 C277 1.348 . S
C274 C278 1.356 . S
C274 O325 1.325 . S
C275 N276 1.279 . S
C275 C278 1.358 . S
C275 H332 0.930 . S
N276 C275 1.279 . S
N276 C279 1.314 . S
C277 C274 1.348 . S
C277 C279 1.353 . S
C277 H333 0.929 . S
C278 C274 1.356 . S
C278 C275 1.358 . S
C278 H334 0.930 . S
C279 N276 1.314 . S
C279 C277 1.353 . S
C279 H335 0.930 . S
C280 N281 1.314 . S
C280 C285 1.353 . S
C280 H286 0.930 . S
N281 Li264 1.990 . S
N281 C280 1.314 . S
N281 C283 1.279 . S
C282 C283 1.358 . S
C282 C284 1.356 . S
C282 H336 0.930 . S
C283 N281 1.279 . S
C283 C282 1.358 . S
C283 H287 0.930 . S
C284 C282 1.356 . S
C284 C285 1.348 . S
C285 C280 1.353 . S
C285 C284 1.348 . S
C285 H337 0.929 . S
H286 C280 0.930 . S
H287 C283 0.930 . S
C288 N289 1.314 . S
C288 C290 1.353 . S
C288 H294 0.930 . S
N289 Li265 1.990 . S
N289 C288 1.314 . S
N289 C292 1.279 . S
C290 C288 1.353 . S
C290 C293 1.348 . S
C290 H338 0.929 . S
C291 C292 1.358 . S
C291 C293 1.356 . S
C291 H339 0.930 . S
C292 N289 1.279 . S
C292 C291 1.358 . S
C292 H295 0.930 . S
C293 C290 1.348 . S
C293 C291 1.356 . S
H294 C288 0.930 . S
H295 C292 0.930 . S
C296 C298 1.348 . S
C296 C299 1.356 . S
C296 O326 1.325 . S
N297 C300 1.314 . S
N297 C301 1.279 . S
C298 C296 1.348 . S
C298 C300 1.353 . S
C298 H340 0.929 . S
C299 C296 1.356 . S
C299 C301 1.358 . S
C299 H341 0.930 . S
C300 N297 1.314 . S
C300 C298 1.353 . S
C300 H342 0.930 . S
C301 N297 1.279 . S
C301 C299 1.358 . S
C301 H343 0.930 . S
C302 C303 1.348 . S
C302 C304 1.356 . S
C302 O327 1.325 . S
C303 C302 1.348 . S
C303 C305 1.353 . S
C303 H344 0.929 . S
C304 C302 1.356 . S
C304 C306 1.358 . S
C304 H345 0.930 . S
C305 C303 1.353 . S
C305 N307 1.314 . S
C305 H346 0.930 . S
C306 C304 1.358 . S
C306 N307 1.279 . S
C306 H347 0.930 . S
N307 C305 1.314 . S
N307 C306 1.279 . S
C308 C310 1.353 . S
C308 N311 1.314 . S
C308 H314 0.930 . S
C309 N311 1.279 . S
C309 C312 1.358 . S
C309 H315 0.930 . S
C310 C308 1.353 . S
C310 C313 1.348 . S
C310 H348 0.915 1_565 S
N311 Li266 1.990 . S
N311 C308 1.314 . S
N311 C309 1.279 . S
C312 C309 1.358 . S
C312 C313 1.356 . S
C312 H349 0.930 . S
C313 C310 1.348 . S
C313 C312 1.356 . S
H314 C308 0.930 . S
H315 C309 0.930 . S
C316 N317 1.314 . S
C316 C318 1.353 . S
C316 H322 0.930 . S
N317 Li267 1.990 . S
N317 C316 1.314 . S
N317 C320 1.279 . S
C318 C316 1.353 . S
C318 C321 1.348 . S
C318 H350 0.929 . S
C319 C320 1.358 . S
C319 C321 1.356 . S
C319 H351 0.930 . S
C320 N317 1.279 . S
C320 C319 1.358 . S
C320 H323 0.930 . S
C321 C318 1.348 . S
C321 C319 1.356 . S
H322 C316 0.930 . S
H323 C320 0.930 . S
O324 Li264 1.956 . S
O324 Li265 1.970 . S
O324 Li266 1.961 . S
O324 C268 1.325 . S
O325 Li264 1.970 . S
O325 Li265 1.956 . S
O325 Li267 1.961 . S
O325 C274 1.325 . S
O326 Li264 1.961 . S
O326 Li266 1.956 . S
O326 Li267 1.970 . S
O326 C296 1.325 . S
O327 Li265 1.961 . S
O327 Li266 1.970 . S
O327 Li267 1.956 . S
O327 C302 1.325 . S
H328 C270 0.929 . S
H329 C271 0.930 . S
H330 C272 0.930 . S
H331 C273 0.930 . S
H332 C275 0.930 . S
H333 C277 0.929 . S
H334 C278 0.930 . S
H335 C279 0.930 . S
H336 C282 0.930 . S
H337 C285 0.929 . S
H338 C290 0.929 . S
H339 C291 0.930 . S
H340 C298 0.929 . S
H341 C299 0.930 . S
H342 C300 0.930 . S
H343 C301 0.930 . S
H344 C303 0.929 . S
H345 C304 0.930 . S
H346 C305 0.930 . S
H347 C306 0.930 . S
H348 C310 0.915 1_545 S
H349 C312 0.930 . S
H350 C318 0.929 . S
H351 C319 0.930 . S
Li352 N369 1.990 . S
Li352 O412 1.956 . S
Li352 O413 1.970 . S
Li352 O414 1.961 . S
Li353 N377 1.990 . S
Li353 O412 1.970 . S
Li353 O413 1.956 . S
Li353 O415 1.961 . S
Li354 N399 1.990 . S
Li354 O412 1.961 . S
Li354 O414 1.956 . S
Li354 O415 1.970 . S
Li355 N405 1.990 . S
Li355 O413 1.961 . S
Li355 O414 1.970 . S
Li355 O415 1.956 . S
C356 C358 1.348 . S
C356 C359 1.356 . S
C356 O412 1.325 . S
N357 C360 1.314 . S
N357 C361 1.279 . S
C358 C356 1.348 . S
C358 C360 1.353 . S
C358 H416 0.929 . S
C359 C356 1.356 . S
C359 C361 1.358 . S
C359 H417 0.930 . S
C360 N357 1.314 . S
C360 C358 1.353 . S
C360 H418 0.930 . S
C361 N357 1.279 . S
C361 C359 1.358 . S
C361 H419 0.930 . S
C362 C365 1.348 . S
C362 C366 1.356 . S
C362 O413 1.325 . S
C363 N364 1.279 . S
C363 C366 1.358 . S
C363 H420 0.930 . S
N364 C363 1.279 . S
N364 C367 1.314 . S
C365 C362 1.348 . S
C365 C367 1.353 . S
C365 H421 0.929 . S
C366 C362 1.356 . S
C366 C363 1.358 . S
C366 H422 0.930 . S
C367 N364 1.314 . S
C367 C365 1.353 . S
C367 H423 0.930 . S
C368 N369 1.314 . S
C368 C373 1.353 . S
C368 H374 0.930 . S
N369 Li352 1.990 . S
N369 C368 1.314 . S
N369 C371 1.279 . S
C370 C371 1.358 . S
C370 C372 1.356 . S
C370 H424 0.930 . S
C371 N369 1.279 . S
C371 C370 1.358 . S
C371 H375 0.930 . S
C372 C370 1.356 . S
C372 C373 1.348 . S
C373 C368 1.353 . S
C373 C372 1.348 . S
C373 H425 0.929 . S
H374 C368 0.930 . S
H375 C371 0.930 . S
C376 N377 1.314 . S
C376 C378 1.353 . S
C376 H382 0.930 . S
N377 Li353 1.990 . S
N377 C376 1.314 . S
N377 C380 1.279 . S
C378 C376 1.353 . S
C378 C381 1.348 . S
C378 H426 0.929 . S
C379 C380 1.358 . S
C379 C381 1.356 . S
C379 H427 0.930 . S
C380 N377 1.279 . S
C380 C379 1.358 . S
C380 H383 0.930 . S
C381 C378 1.348 . S
C381 C379 1.356 . S
H382 C376 0.930 . S
H383 C380 0.930 . S
C384 C386 1.348 . S
C384 C387 1.356 . S
C384 O414 1.325 . S
N385 C388 1.314 . S
N385 C389 1.279 . S
C386 C384 1.348 . S
C386 C388 1.353 . S
C386 H428 0.929 . S
C387 C384 1.356 . S
C387 C389 1.358 . S
C387 H429 0.930 . S
C388 N385 1.314 . S
C388 C386 1.353 . S
C388 H430 0.930 . S
C389 N385 1.279 . S
C389 C387 1.358 . S
C389 H431 0.930 . S
C390 C391 1.348 . S
C390 C392 1.356 . S
C390 O415 1.325 . S
C391 C390 1.348 . S
C391 C393 1.353 . S
C391 H432 0.929 . S
C392 C390 1.356 . S
C392 C394 1.358 . S
C392 H433 0.930 . S
C393 C391 1.353 . S
C393 N395 1.314 . S
C393 H434 0.930 . S
C394 C392 1.358 . S
C394 N395 1.279 . S
C394 H435 0.930 . S
N395 C393 1.314 . S
N395 C394 1.279 . S
C396 C398 1.353 . S
C396 N399 1.314 . S
C396 H402 0.930 . S
C397 N399 1.279 . S
C397 C400 1.358 . S
C397 H403 0.930 . S
C398 C396 1.353 . S
C398 C401 1.348 . S
C398 H436 0.929 . S
N399 Li354 1.990 . S
N399 C396 1.314 . S
N399 C397 1.279 . S
C400 C397 1.358 . S
C400 C401 1.356 . S
C400 H437 0.930 . S
C401 C398 1.348 . S
C401 C400 1.356 . S
H402 C396 0.930 . S
H403 C397 0.930 . S
C404 N405 1.314 . S
C404 C406 1.353 . S
C404 H410 0.930 . S
N405 Li355 1.990 . S
N405 C404 1.314 . S
N405 C408 1.279 . S
C406 C404 1.353 . S
C406 C409 1.348 . S
C406 H438 0.929 . S
C407 C408 1.358 . S
C407 C409 1.356 . S
C407 H439 0.930 . S
C408 N405 1.279 . S
C408 C407 1.358 . S
C408 H411 0.930 . S
C409 C406 1.348 . S
C409 C407 1.356 . S
H410 C404 0.930 . S
H411 C408 0.930 . S
O412 Li352 1.956 . S
O412 Li353 1.970 . S
O412 Li354 1.961 . S
O412 C356 1.325 . S
O413 Li352 1.970 . S
O413 Li353 1.956 . S
O413 Li355 1.961 . S
O413 C362 1.325 . S
O414 Li352 1.961 . S
O414 Li354 1.956 . S
O414 Li355 1.970 . S
O414 C384 1.325 . S
O415 Li353 1.961 . S
O415 Li354 1.970 . S
O415 Li355 1.956 . S
O415 C390 1.325 . S
H416 C358 0.929 . S
H417 C359 0.930 . S
H418 C360 0.930 . S
H419 C361 0.930 . S
H420 C363 0.930 . S
H421 C365 0.929 . S
H422 C366 0.930 . S
H423 C367 0.930 . S
H424 C370 0.930 . S
H425 C373 0.929 . S
H426 C378 0.929 . S
H427 C379 0.930 . S
H428 C386 0.929 . S
H429 C387 0.930 . S
H430 C388 0.930 . S
H431 C389 0.930 . S
H432 C391 0.929 . S
H433 C392 0.930 . S
H434 C393 0.930 . S
H435 C394 0.930 . S
H436 C398 0.929 . S
H437 C400 0.930 . S
H438 C406 0.929 . S
H439 C407 0.930 . S
Li440 N457 1.990 . S
Li440 O500 1.956 . S
Li440 O501 1.970 . S
Li440 O502 1.961 . S
Li441 N465 1.990 . S
Li441 O500 1.970 . S
Li441 O501 1.956 . S
Li441 O503 1.961 . S
Li442 N487 1.990 . S
Li442 O500 1.961 . S
Li442 O502 1.956 . S
Li442 O503 1.970 . S
Li443 N493 1.990 . S
Li443 O501 1.961 . S
Li443 O502 1.970 . S
Li443 O503 1.956 . S
C444 C446 1.348 . S
C444 C447 1.356 . S
C444 O500 1.325 . S
N445 C448 1.314 . S
N445 C449 1.279 . S
C446 C444 1.348 . S
C446 C448 1.353 . S
C446 H504 0.929 . S
C447 C444 1.356 . S
C447 C449 1.358 . S
C447 H505 0.930 . S
C448 N445 1.314 . S
C448 C446 1.353 . S
C448 H506 0.930 . S
C449 N445 1.279 . S
C449 C447 1.358 . S
C449 H507 0.930 . S
C450 C453 1.348 . S
C450 C454 1.356 . S
C450 O501 1.325 . S
C451 N452 1.279 . S
C451 C454 1.358 . S
C451 H508 0.930 . S
N452 C451 1.279 . S
N452 C455 1.314 . S
C453 C450 1.348 . S
C453 C455 1.353 . S
C453 H509 0.929 . S
C454 C450 1.356 . S
C454 C451 1.358 . S
C454 H510 0.930 . S
C455 N452 1.314 . S
C455 C453 1.353 . S
C455 H511 0.930 . S
C456 N457 1.314 . S
C456 C461 1.353 . S
C456 H462 0.930 . S
N457 Li440 1.990 . S
N457 C456 1.314 . S
N457 C459 1.279 . S
C458 C459 1.358 . S
C458 C460 1.356 . S
C458 H512 0.930 . S
C459 N457 1.279 . S
C459 C458 1.358 . S
C459 H463 0.930 . S
C460 C458 1.356 . S
C460 C461 1.348 . S
C461 C456 1.353 . S
C461 C460 1.348 . S
C461 H513 0.919 1_455 S
H462 C456 0.930 . S
H463 C459 0.930 . S
C464 N465 1.314 . S
C464 C466 1.353 . S
C464 H470 0.930 . S
N465 Li441 1.990 . S
N465 C464 1.314 . S
N465 C468 1.279 . S
C466 C464 1.353 . S
C466 C469 1.348 . S
C466 H514 0.929 . S
C467 C468 1.358 . S
C467 C469 1.356 . S
C467 H515 0.930 . S
C468 N465 1.279 . S
C468 C467 1.358 . S
C468 H471 0.930 . S
C469 C466 1.348 . S
C469 C467 1.356 . S
H470 C464 0.930 . S
H471 C468 0.930 . S
C472 C474 1.348 . S
C472 C475 1.356 . S
C472 O502 1.325 . S
N473 C476 1.314 . S
N473 C477 1.279 . S
C474 C472 1.348 . S
C474 C476 1.353 . S
C474 H516 0.929 . S
C475 C472 1.356 . S
C475 C477 1.358 . S
C475 H517 0.930 . S
C476 N473 1.314 . S
C476 C474 1.353 . S
C476 H518 0.930 . S
C477 N473 1.279 . S
C477 C475 1.358 . S
C477 H519 0.930 . S
C478 C479 1.348 . S
C478 C480 1.356 . S
C478 O503 1.325 . S
C479 C478 1.348 . S
C479 C481 1.353 . S
C479 H520 0.929 . S
C480 C478 1.356 . S
C480 C482 1.358 . S
C480 H521 0.930 . S
C481 C479 1.353 . S
C481 N483 1.314 . S
C481 H522 0.930 . S
C482 C480 1.358 . S
C482 N483 1.279 . S
C482 H523 0.930 . S
N483 C481 1.314 . S
N483 C482 1.279 . S
C484 C486 1.353 . S
C484 N487 1.314 . S
C484 H490 0.930 . S
C485 N487 1.279 . S
C485 C488 1.358 . S
C485 H491 0.930 . S
C486 C484 1.353 . S
C486 C489 1.348 . S
C486 H524 0.929 . S
N487 Li442 1.990 . S
N487 C484 1.314 . S
N487 C485 1.279 . S
C488 C485 1.358 . S
C488 C489 1.356 . S
C488 H525 0.930 . S
C489 C486 1.348 . S
C489 C488 1.356 . S
H490 C484 0.930 . S
H491 C485 0.930 . S
C492 N493 1.314 . S
C492 C494 1.353 . S
C492 H498 0.930 . S
N493 Li443 1.990 . S
N493 C492 1.314 . S
N493 C496 1.279 . S
C494 C492 1.353 . S
C494 C497 1.348 . S
C494 H526 0.929 . S
C495 C496 1.358 . S
C495 C497 1.356 . S
C495 H527 0.930 . S
C496 N493 1.279 . S
C496 C495 1.358 . S
C496 H499 0.930 . S
C497 C494 1.348 . S
C497 C495 1.356 . S
H498 C492 0.930 . S
H499 C496 0.930 . S
O500 Li440 1.956 . S
O500 Li441 1.970 . S
O500 Li442 1.961 . S
O500 C444 1.325 . S
O501 Li440 1.970 . S
O501 Li441 1.956 . S
O501 Li443 1.961 . S
O501 C450 1.325 . S
O502 Li440 1.961 . S
O502 Li442 1.956 . S
O502 Li443 1.970 . S
O502 C472 1.325 . S
O503 Li441 1.961 . S
O503 Li442 1.970 . S
O503 Li443 1.956 . S
O503 C478 1.325 . S
H504 C446 0.929 . S
H505 C447 0.930 . S
H506 C448 0.930 . S
H507 C449 0.930 . S
H508 C451 0.930 . S
H509 C453 0.929 . S
H510 C454 0.930 . S
H511 C455 0.930 . S
H512 C458 0.930 . S
H513 C461 0.919 1_655 S
H514 C466 0.929 . S
H515 C467 0.930 . S
H516 C474 0.929 . S
H517 C475 0.930 . S
H518 C476 0.930 . S
H519 C477 0.930 . S
H520 C479 0.929 . S
H521 C480 0.930 . S
H522 C481 0.930 . S
H523 C482 0.930 . S
H524 C486 0.929 . S
H525 C488 0.930 . S
H526 C494 0.929 . S
H527 C495 0.930 . S
Li528 N545 1.990 . S
Li528 O588 1.956 . S
Li528 O589 1.970 . S
Li528 O590 1.961 . S
Li529 N553 1.990 . S
Li529 O588 1.970 . S
Li529 O589 1.956 . S
Li529 O591 1.961 . S
Li530 N575 1.990 . S
Li530 O588 1.961 . S
Li530 O590 1.956 . S
Li530 O591 1.970 . S
Li531 N581 1.990 . S
Li531 O589 1.961 . S
Li531 O590 1.970 . S
Li531 O591 1.956 . S
C532 C534 1.348 . S
C532 C535 1.356 . S
C532 O588 1.325 . S
N533 C536 1.314 . S
N533 C537 1.279 . S
C534 C532 1.348 . S
C534 C536 1.353 . S
C534 H592 0.929 . S
C535 C532 1.356 . S
C535 C537 1.358 . S
C535 H593 0.930 . S
C536 N533 1.314 . S
C536 C534 1.353 . S
C536 H594 0.930 . S
C537 N533 1.279 . S
C537 C535 1.358 . S
C537 H595 0.930 . S
C538 C541 1.348 . S
C538 C542 1.356 . S
C538 O589 1.325 . S
C539 N540 1.279 . S
C539 C542 1.358 . S
C539 H596 0.930 . S
N540 C539 1.279 . S
N540 C543 1.314 . S
C541 C538 1.348 . S
C541 C543 1.353 . S
C541 H597 0.929 . S
C542 C538 1.356 . S
C542 C539 1.358 . S
C542 H598 0.930 . S
C543 N540 1.314 . S
C543 C541 1.353 . S
C543 H599 0.930 . S
C544 N545 1.314 . S
C544 C549 1.353 . S
C544 H550 0.930 . S
N545 Li528 1.990 . S
N545 C544 1.314 . S
N545 C547 1.279 . S
C546 C547 1.358 . S
C546 C548 1.356 . S
C546 H600 0.930 . S
C547 N545 1.279 . S
C547 C546 1.358 . S
C547 H551 0.930 . S
C548 C546 1.356 . S
C548 C549 1.348 . S
C549 C544 1.353 . S
C549 C548 1.348 . S
C549 H601 0.929 . S
H550 C544 0.930 . S
H551 C547 0.930 . S
C552 N553 1.314 . S
C552 C554 1.353 . S
C552 H558 0.930 . S
N553 Li529 1.990 . S
N553 C552 1.314 . S
N553 C556 1.279 . S
C554 C552 1.353 . S
C554 C557 1.348 . S
C554 H602 0.915 1_655 S
C555 C556 1.358 . S
C555 C557 1.356 . S
C555 H603 0.930 . S
C556 N553 1.279 . S
C556 C555 1.358 . S
C556 H559 0.930 . S
C557 C554 1.348 . S
C557 C555 1.356 . S
H558 C552 0.930 . S
H559 C556 0.930 . S
C560 C562 1.348 . S
C560 C563 1.356 . S
C560 O590 1.325 . S
N561 C564 1.314 . S
N561 C565 1.279 . S
C562 C560 1.348 . S
C562 C564 1.353 . S
C562 H604 0.929 . S
C563 C560 1.356 . S
C563 C565 1.358 . S
C563 H605 0.930 . S
C564 N561 1.314 . S
C564 C562 1.353 . S
C564 H606 0.930 . S
C565 N561 1.279 . S
C565 C563 1.358 . S
C565 H607 0.930 . S
C566 C567 1.348 . S
C566 C568 1.356 . S
C566 O591 1.325 . S
C567 C566 1.348 . S
C567 C569 1.353 . S
C567 H608 0.929 . S
C568 C566 1.356 . S
C568 C570 1.358 . S
C568 H609 0.930 . S
C569 C567 1.353 . S
C569 N571 1.314 . S
C569 H610 0.930 . S
C570 C568 1.358 . S
C570 N571 1.279 . S
C570 H611 0.930 . S
N571 C569 1.314 . S
N571 C570 1.279 . S
C572 C574 1.353 . S
C572 N575 1.314 . S
C572 H578 0.930 . S
C573 N575 1.279 . S
C573 C576 1.358 . S
C573 H579 0.930 . S
C574 C572 1.353 . S
C574 C577 1.348 . S
C574 H612 0.929 . S
N575 Li530 1.990 . S
N575 C572 1.314 . S
N575 C573 1.279 . S
C576 C573 1.358 . S
C576 C577 1.356 . S
C576 H613 0.930 . S
C577 C574 1.348 . S
C577 C576 1.356 . S
H578 C572 0.930 . S
H579 C573 0.930 . S
C580 N581 1.314 . S
C580 C582 1.353 . S
C580 H586 0.930 . S
N581 Li531 1.990 . S
N581 C580 1.314 . S
N581 C584 1.279 . S
C582 C580 1.353 . S
C582 C585 1.348 . S
C582 H614 0.929 . S
C583 C584 1.358 . S
C583 C585 1.356 . S
C583 H615 0.930 . S
C584 N581 1.279 . S
C584 C583 1.358 . S
C584 H587 0.930 . S
C585 C582 1.348 . S
C585 C583 1.356 . S
H586 C580 0.930 . S
H587 C584 0.930 . S
O588 Li528 1.956 . S
O588 Li529 1.970 . S
O588 Li530 1.961 . S
O588 C532 1.325 . S
O589 Li528 1.970 . S
O589 Li529 1.956 . S
O589 Li531 1.961 . S
O589 C538 1.325 . S
O590 Li528 1.961 . S
O590 Li530 1.956 . S
O590 Li531 1.970 . S
O590 C560 1.325 . S
O591 Li529 1.961 . S
O591 Li530 1.970 . S
O591 Li531 1.956 . S
O591 C566 1.325 . S
H592 C534 0.929 . S
H593 C535 0.930 . S
H594 C536 0.930 . S
H595 C537 0.930 . S
H596 C539 0.930 . S
H597 C541 0.929 . S
H598 C542 0.930 . S
H599 C543 0.930 . S
H600 C546 0.930 . S
H601 C549 0.929 . S
H602 C554 0.915 1_455 S
H603 C555 0.930 . S
H604 C562 0.929 . S
H605 C563 0.930 . S
H606 C564 0.930 . S
H607 C565 0.930 . S
H608 C567 0.929 . S
H609 C568 0.930 . S
H610 C569 0.930 . S
H611 C570 0.930 . S
H612 C574 0.929 . S
H613 C576 0.930 . S
H614 C582 0.929 . S
H615 C583 0.930 . S
Li616 N633 1.990 . S
Li616 O676 1.956 . S
Li616 O677 1.970 . S
Li616 O678 1.961 . S
Li617 N641 1.990 . S
Li617 O676 1.970 . S
Li617 O677 1.956 . S
Li617 O679 1.961 . S
Li618 N663 1.990 . S
Li618 O676 1.961 . S
Li618 O678 1.956 . S
Li618 O679 1.970 . S
Li619 N669 1.990 . S
Li619 O677 1.961 . S
Li619 O678 1.970 . S
Li619 O679 1.956 . S
C620 C622 1.348 . S
C620 C623 1.356 . S
C620 O676 1.325 . S
N621 C624 1.314 . S
N621 C625 1.279 . S
C622 C620 1.348 . S
C622 C624 1.353 . S
C622 H680 0.929 . S
C623 C620 1.356 . S
C623 C625 1.358 . S
C623 H681 0.930 . S
C624 N621 1.314 . S
C624 C622 1.353 . S
C624 H682 0.930 . S
C625 N621 1.279 . S
C625 C623 1.358 . S
C625 H683 0.930 . S
C626 C629 1.348 . S
C626 C630 1.356 . S
C626 O677 1.325 . S
C627 N628 1.279 . S
C627 C630 1.358 . S
C627 H684 0.930 . S
N628 C627 1.279 . S
N628 C631 1.314 . S
C629 C626 1.348 . S
C629 C631 1.353 . S
C629 H685 0.929 . S
C630 C626 1.356 . S
C630 C627 1.358 . S
C630 H686 0.930 . S
C631 N628 1.314 . S
C631 C629 1.353 . S
C631 H687 0.930 . S
C632 N633 1.314 . S
C632 C637 1.353 . S
C632 H638 0.930 . S
N633 Li616 1.990 . S
N633 C632 1.314 . S
N633 C635 1.279 . S
C634 C635 1.358 . S
C634 C636 1.356 . S
C634 H688 0.930 . S
C635 N633 1.279 . S
C635 C634 1.358 . S
C635 H639 0.930 . S
C636 C634 1.356 . S
C636 C637 1.348 . S
C637 C632 1.353 . S
C637 C636 1.348 . S
C637 H689 0.929 . S
H638 C632 0.930 . S
H639 C635 0.930 . S
C640 N641 1.314 . S
C640 C642 1.353 . S
C640 H646 0.930 . S
N641 Li617 1.990 . S
N641 C640 1.314 . S
N641 C644 1.279 . S
C642 C640 1.353 . S
C642 C645 1.348 . S
C642 H690 0.929 . S
C643 C644 1.358 . S
C643 C645 1.356 . S
C643 H691 0.930 . S
C644 N641 1.279 . S
C644 C643 1.358 . S
C644 H647 0.930 . S
C645 C642 1.348 . S
C645 C643 1.356 . S
H646 C640 0.930 . S
H647 C644 0.930 . S
C648 C650 1.348 . S
C648 C651 1.356 . S
C648 O678 1.325 . S
N649 C652 1.314 . S
N649 C653 1.279 . S
C650 C648 1.348 . S
C650 C652 1.353 . S
C650 H692 0.929 . S
C651 C648 1.356 . S
C651 C653 1.358 . S
C651 H693 0.930 . S
C652 N649 1.314 . S
C652 C650 1.353 . S
C652 H694 0.930 . S
C653 N649 1.279 . S
C653 C651 1.358 . S
C653 H695 0.930 . S
C654 C655 1.348 . S
C654 C656 1.356 . S
C654 O679 1.325 . S
C655 C654 1.348 . S
C655 C657 1.353 . S
C655 H696 0.929 . S
C656 C654 1.356 . S
C656 C658 1.358 . S
C656 H697 0.930 . S
C657 C655 1.353 . S
C657 N659 1.314 . S
C657 H698 0.930 . S
C658 C656 1.358 . S
C658 N659 1.279 . S
C658 H699 0.930 . S
N659 C657 1.314 . S
N659 C658 1.279 . S
C660 C662 1.353 . S
C660 N663 1.314 . S
C660 H666 0.930 . S
C661 N663 1.279 . S
C661 C664 1.358 . S
C661 H667 0.930 . S
C662 C660 1.353 . S
C662 C665 1.348 . S
C662 H700 0.929 . S
N663 Li618 1.990 . S
N663 C660 1.314 . S
N663 C661 1.279 . S
C664 C661 1.358 . S
C664 C665 1.356 . S
C664 H701 0.930 . S
C665 C662 1.348 . S
C665 C664 1.356 . S
H666 C660 0.930 . S
H667 C661 0.930 . S
C668 N669 1.314 . S
C668 C670 1.353 . S
C668 H674 0.930 . S
N669 Li619 1.990 . S
N669 C668 1.314 . S
N669 C672 1.279 . S
C670 C668 1.353 . S
C670 C673 1.348 . S
C670 H702 0.921 1_565 S
C671 C672 1.358 . S
C671 C673 1.356 . S
C671 H703 0.930 . S
C672 N669 1.279 . S
C672 C671 1.358 . S
C672 H675 0.930 . S
C673 C670 1.348 . S
C673 C671 1.356 . S
H674 C668 0.930 . S
H675 C672 0.930 . S
O676 Li616 1.956 . S
O676 Li617 1.970 . S
O676 Li618 1.961 . S
O676 C620 1.325 . S
O677 Li616 1.970 . S
O677 Li617 1.956 . S
O677 Li619 1.961 . S
O677 C626 1.325 . S
O678 Li616 1.961 . S
O678 Li618 1.956 . S
O678 Li619 1.970 . S
O678 C648 1.325 . S
O679 Li617 1.961 . S
O679 Li618 1.970 . S
O679 Li619 1.956 . S
O679 C654 1.325 . S
H680 C622 0.929 . S
H681 C623 0.930 . S
H682 C624 0.930 . S
H683 C625 0.930 . S
H684 C627 0.930 . S
H685 C629 0.929 . S
H686 C630 0.930 . S
H687 C631 0.930 . S
H688 C634 0.930 . S
H689 C637 0.929 . S
H690 C642 0.929 . S
H691 C643 0.930 . S
H692 C650 0.929 . S
H693 C651 0.930 . S
H694 C652 0.930 . S
H695 C653 0.930 . S
H696 C655 0.929 . S
H697 C656 0.930 . S
H698 C657 0.930 . S
H699 C658 0.930 . S
H700 C662 0.929 . S
H701 C664 0.930 . S
H702 C670 0.921 1_545 S
H703 C671 0.930 . S
Li704 N721 1.990 . S
Li704 O764 1.956 . S
Li704 O765 1.970 . S
Li704 O766 1.961 . S
Li705 N729 1.990 . S
Li705 O764 1.970 . S
Li705 O765 1.956 . S
Li705 O767 1.961 . S
Li706 N751 1.990 . S
Li706 O764 1.961 . S
Li706 O766 1.956 . S
Li706 O767 1.970 . S
Li707 N757 1.990 . S
Li707 O765 1.961 . S
Li707 O766 1.970 . S
Li707 O767 1.956 . S
C708 C710 1.348 . S
C708 C711 1.356 . S
C708 O764 1.325 . S
N709 C712 1.314 . S
N709 C713 1.279 . S
C710 C708 1.348 . S
C710 C712 1.353 . S
C710 H768 0.929 . S
C711 C708 1.356 . S
C711 C713 1.358 . S
C711 H769 0.930 . S
C712 N709 1.314 . S
C712 C710 1.353 . S
C712 H770 0.930 . S
C713 N709 1.279 . S
C713 C711 1.358 . S
C713 H771 0.930 . S
C714 C717 1.348 . S
C714 C718 1.356 . S
C714 O765 1.325 . S
C715 N716 1.279 . S
C715 C718 1.358 . S
C715 H772 0.930 . S
N716 C715 1.279 . S
N716 C719 1.314 . S
C717 C714 1.348 . S
C717 C719 1.353 . S
C717 H773 0.929 . S
C718 C714 1.356 . S
C718 C715 1.358 . S
C718 H774 0.930 . S
C719 N716 1.314 . S
C719 C717 1.353 . S
C719 H775 0.930 . S
C720 N721 1.314 . S
C720 C725 1.353 . S
C720 H726 0.930 . S
N721 Li704 1.990 . S
N721 C720 1.314 . S
N721 C723 1.279 . S
C722 C723 1.358 . S
C722 C724 1.356 . S
C722 H776 0.930 . S
C723 N721 1.279 . S
C723 C722 1.358 . S
C723 H727 0.930 . S
C724 C722 1.356 . S
C724 C725 1.348 . S
C725 C720 1.353 . S
C725 C724 1.348 . S
C725 H777 0.929 . S
H726 C720 0.930 . S
H727 C723 0.930 . S
C728 N729 1.314 . S
C728 C730 1.353 . S
C728 H734 0.930 . S
N729 Li705 1.990 . S
N729 C728 1.314 . S
N729 C732 1.279 . S
C730 C728 1.353 . S
C730 C733 1.348 . S
C730 H778 0.929 . S
C731 C732 1.358 . S
C731 C733 1.356 . S
C731 H779 0.930 . S
C732 N729 1.279 . S
C732 C731 1.358 . S
C732 H735 0.930 . S
C733 C730 1.348 . S
C733 C731 1.356 . S
H734 C728 0.930 . S
H735 C732 0.930 . S
C736 C738 1.348 . S
C736 C739 1.356 . S
C736 O766 1.325 . S
N737 C740 1.314 . S
N737 C741 1.279 . S
C738 C736 1.348 . S
C738 C740 1.353 . S
C738 H780 0.929 . S
C739 C736 1.356 . S
C739 C741 1.358 . S
C739 H781 0.930 . S
C740 N737 1.314 . S
C740 C738 1.353 . S
C740 H782 0.930 . S
C741 N737 1.279 . S
C741 C739 1.358 . S
C741 H783 0.930 . S
C742 C743 1.348 . S
C742 C744 1.356 . S
C742 O767 1.325 . S
C743 C742 1.348 . S
C743 C745 1.353 . S
C743 H784 0.929 . S
C744 C742 1.356 . S
C744 C746 1.358 . S
C744 H785 0.930 . S
C745 C743 1.353 . S
C745 N747 1.314 . S
C745 H786 0.930 . S
C746 C744 1.358 . S
C746 N747 1.279 . S
C746 H787 0.930 . S
N747 C745 1.314 . S
N747 C746 1.279 . S
C748 C750 1.353 . S
C748 N751 1.314 . S
C748 H754 0.930 . S
C749 N751 1.279 . S
C749 C752 1.358 . S
C749 H755 0.930 . S
C750 C748 1.353 . S
C750 C753 1.348 . S
C750 H788 0.929 . S
N751 Li706 1.990 . S
N751 C748 1.314 . S
N751 C749 1.279 . S
C752 C749 1.358 . S
C752 C753 1.356 . S
C752 H789 0.930 . S
C753 C750 1.348 . S
C753 C752 1.356 . S
H754 C748 0.930 . S
H755 C749 0.930 . S
C756 N757 1.314 . S
C756 C758 1.353 . S
C756 H762 0.930 . S
N757 Li707 1.990 . S
N757 C756 1.314 . S
N757 C760 1.279 . S
C758 C756 1.353 . S
C758 C761 1.348 . S
C758 H790 0.929 . S
C759 C760 1.358 . S
C759 C761 1.356 . S
C759 H791 0.930 . S
C760 N757 1.279 . S
C760 C759 1.358 . S
C760 H763 0.930 . S
C761 C758 1.348 . S
C761 C759 1.356 . S
H762 C756 0.930 . S
H763 C760 0.930 . S
O764 Li704 1.956 . S
O764 Li705 1.970 . S
O764 Li706 1.961 . S
O764 C708 1.325 . S
O765 Li704 1.970 . S
O765 Li705 1.956 . S
O765 Li707 1.961 . S
O765 C714 1.325 . S
O766 Li704 1.961 . S
O766 Li706 1.956 . S
O766 Li707 1.970 . S
O766 C736 1.325 . S
O767 Li705 1.961 . S
O767 Li706 1.970 . S
O767 Li707 1.956 . S
O767 C742 1.325 . S
H768 C710 0.929 . S
H769 C711 0.930 . S
H770 C712 0.930 . S
H771 C713 0.930 . S
H772 C715 0.930 . S
H773 C717 0.929 . S
H774 C718 0.930 . S
H775 C719 0.930 . S
H776 C722 0.930 . S
H777 C725 0.929 . S
H778 C730 0.929 . S
H779 C731 0.930 . S
H780 C738 0.929 . S
H781 C739 0.930 . S
H782 C740 0.930 . S
H783 C741 0.930 . S
H784 C743 0.929 . S
H785 C744 0.930 . S
H786 C745 0.930 . S
H787 C746 0.930 . S
H788 C750 0.929 . S
H789 C752 0.930 . S
H790 C758 0.929 . S
H791 C759 0.930 . S
Li792 N809 1.990 . S
Li792 O852 1.956 . S
Li792 O853 1.970 . S
Li792 O854 1.961 . S
Li793 N817 1.990 . S
Li793 O852 1.970 . S
Li793 O853 1.956 . S
Li793 O855 1.961 . S
Li794 N839 1.990 . S
Li794 O852 1.961 . S
Li794 O854 1.956 . S
Li794 O855 1.970 . S
Li795 N845 1.990 . S
Li795 O853 1.961 . S
Li795 O854 1.970 . S
Li795 O855 1.956 . S
C796 C798 1.348 . S
C796 C799 1.356 . S
C796 O852 1.325 . S
N797 C800 1.314 . S
N797 C801 1.279 . S
C798 C796 1.348 . S
C798 C800 1.353 . S
C798 H856 0.929 . S
C799 C796 1.356 . S
C799 C801 1.358 . S
C799 H857 0.930 . S
C800 N797 1.314 . S
C800 C798 1.353 . S
C800 H858 0.930 . S
C801 N797 1.279 . S
C801 C799 1.358 . S
C801 H859 0.930 . S
C802 C805 1.348 . S
C802 C806 1.356 . S
C802 O853 1.325 . S
C803 N804 1.279 . S
C803 C806 1.358 . S
C803 H860 0.930 . S
N804 C803 1.279 . S
N804 C807 1.314 . S
C805 C802 1.348 . S
C805 C807 1.353 . S
C805 H861 0.929 . S
C806 C802 1.356 . S
C806 C803 1.358 . S
C806 H862 0.930 . S
C807 N804 1.314 . S
C807 C805 1.353 . S
C807 H863 0.930 . S
C808 N809 1.314 . S
C808 C813 1.353 . S
C808 H814 0.930 . S
N809 Li792 1.990 . S
N809 C808 1.314 . S
N809 C811 1.279 . S
C810 C811 1.358 . S
C810 C812 1.356 . S
C810 H864 0.930 . S
C811 N809 1.279 . S
C811 C810 1.358 . S
C811 H815 0.930 . S
C812 C810 1.356 . S
C812 C813 1.348 . S
C813 C808 1.353 . S
C813 C812 1.348 . S
C813 H865 0.929 . S
H814 C808 0.930 . S
H815 C811 0.930 . S
C816 N817 1.314 . S
C816 C818 1.353 . S
C816 H822 0.930 . S
N817 Li793 1.990 . S
N817 C816 1.314 . S
N817 C820 1.279 . S
C818 C816 1.353 . S
C818 C821 1.348 . S
C818 H866 0.929 . S
C819 C820 1.358 . S
C819 C821 1.356 . S
C819 H867 0.930 . S
C820 N817 1.279 . S
C820 C819 1.358 . S
C820 H823 0.930 . S
C821 C818 1.348 . S
C821 C819 1.356 . S
H822 C816 0.930 . S
H823 C820 0.930 . S
C824 C826 1.348 . S
C824 C827 1.356 . S
C824 O854 1.325 . S
N825 C828 1.314 . S
N825 C829 1.279 . S
C826 C824 1.348 . S
C826 C828 1.353 . S
C826 H868 0.929 . S
C827 C824 1.356 . S
C827 C829 1.358 . S
C827 H869 0.930 . S
C828 N825 1.314 . S
C828 C826 1.353 . S
C828 H870 0.930 . S
C829 N825 1.279 . S
C829 C827 1.358 . S
C829 H871 0.930 . S
C830 C831 1.348 . S
C830 C832 1.356 . S
C830 O855 1.325 . S
C831 C830 1.348 . S
C831 C833 1.353 . S
C831 H872 0.929 . S
C832 C830 1.356 . S
C832 C834 1.358 . S
C832 H873 0.930 . S
C833 C831 1.353 . S
C833 N835 1.314 . S
C833 H874 0.930 . S
C834 C832 1.358 . S
C834 N835 1.279 . S
C834 H875 0.930 . S
N835 C833 1.314 . S
N835 C834 1.279 . S
C836 C838 1.353 . S
C836 N839 1.314 . S
C836 H842 0.930 . S
C837 N839 1.279 . S
C837 C840 1.358 . S
C837 H843 0.930 . S
C838 C836 1.353 . S
C838 C841 1.348 . S
C838 H876 0.929 . S
N839 Li794 1.990 . S
N839 C836 1.314 . S
N839 C837 1.279 . S
C840 C837 1.358 . S
C840 C841 1.356 . S
C840 H877 0.930 . S
C841 C838 1.348 . S
C841 C840 1.356 . S
H842 C836 0.930 . S
H843 C837 0.930 . S
C844 N845 1.314 . S
C844 C846 1.353 . S
C844 H850 0.930 . S
N845 Li795 1.990 . S
N845 C844 1.314 . S
N845 C848 1.279 . S
C846 C844 1.353 . S
C846 C849 1.348 . S
C846 H878 0.915 1_455 S
C847 C848 1.358 . S
C847 C849 1.356 . S
C847 H879 0.930 . S
C848 N845 1.279 . S
C848 C847 1.358 . S
C848 H851 0.930 . S
C849 C846 1.348 . S
C849 C847 1.356 . S
H850 C844 0.930 . S
H851 C848 0.930 . S
O852 Li792 1.956 . S
O852 Li793 1.970 . S
O852 Li794 1.961 . S
O852 C796 1.325 . S
O853 Li792 1.970 . S
O853 Li793 1.956 . S
O853 Li795 1.961 . S
O853 C802 1.325 . S
O854 Li792 1.961 . S
O854 Li794 1.956 . S
O854 Li795 1.970 . S
O854 C824 1.325 . S
O855 Li793 1.961 . S
O855 Li794 1.970 . S
O855 Li795 1.956 . S
O855 C830 1.325 . S
H856 C798 0.929 . S
H857 C799 0.930 . S
H858 C800 0.930 . S
H859 C801 0.930 . S
H860 C803 0.930 . S
H861 C805 0.929 . S
H862 C806 0.930 . S
H863 C807 0.930 . S
H864 C810 0.930 . S
H865 C813 0.929 . S
H866 C818 0.929 . S
H867 C819 0.930 . S
H868 C826 0.929 . S
H869 C827 0.930 . S
H870 C828 0.930 . S
H871 C829 0.930 . S
H872 C831 0.929 . S
H873 C832 0.930 . S
H874 C833 0.930 . S
H875 C834 0.930 . S
H876 C838 0.929 . S
H877 C840 0.930 . S
H878 C846 0.915 1_655 S
H879 C847 0.930 . S
Li880 N897 1.990 . S
Li880 O940 1.956 . S
Li880 O941 1.970 . S
Li880 O942 1.961 . S
Li881 N905 1.990 . S
Li881 O940 1.970 . S
Li881 O941 1.956 . S
Li881 O943 1.961 . S
Li882 N927 1.990 . S
Li882 O940 1.961 . S
Li882 O942 1.956 . S
Li882 O943 1.970 . S
Li883 N933 1.990 . S
Li883 O941 1.961 . S
Li883 O942 1.970 . S
Li883 O943 1.956 . S
C884 C886 1.348 . S
C884 C887 1.356 . S
C884 O940 1.325 . S
N885 C888 1.314 . S
N885 C889 1.279 . S
C886 C884 1.348 . S
C886 C888 1.353 . S
C886 H944 0.929 . S
C887 C884 1.356 . S
C887 C889 1.358 . S
C887 H945 0.930 . S
C888 N885 1.314 . S
C888 C886 1.353 . S
C888 H946 0.930 . S
C889 N885 1.279 . S
C889 C887 1.358 . S
C889 H947 0.930 . S
C890 C893 1.348 . S
C890 C894 1.356 . S
C890 O941 1.325 . S
C891 N892 1.279 . S
C891 C894 1.358 . S
C891 H948 0.930 . S
N892 C891 1.279 . S
N892 C895 1.314 . S
C893 C890 1.348 . S
C893 C895 1.353 . S
C893 H949 0.929 . S
C894 C890 1.356 . S
C894 C891 1.358 . S
C894 H950 0.930 . S
C895 N892 1.314 . S
C895 C893 1.353 . S
C895 H951 0.930 . S
C896 N897 1.314 . S
C896 C901 1.353 . S
C896 H902 0.930 . S
N897 Li880 1.990 . S
N897 C896 1.314 . S
N897 C899 1.279 . S
C898 C899 1.358 . S
C898 C900 1.356 . S
C898 H952 0.930 . S
C899 N897 1.279 . S
C899 C898 1.358 . S
C899 H903 0.930 . S
C900 C898 1.356 . S
C900 C901 1.348 . S
C901 C896 1.353 . S
C901 C900 1.348 . S
C901 H953 0.929 . S
H902 C896 0.930 . S
H903 C899 0.930 . S
C904 N905 1.314 . S
C904 C906 1.353 . S
C904 H910 0.930 . S
N905 Li881 1.990 . S
N905 C904 1.314 . S
N905 C908 1.279 . S
C906 C904 1.353 . S
C906 C909 1.348 . S
C906 H954 0.920 1_545 S
C907 C908 1.358 . S
C907 C909 1.356 . S
C907 H955 0.930 . S
C908 N905 1.279 . S
C908 C907 1.358 . S
C908 H911 0.930 . S
C909 C906 1.348 . S
C909 C907 1.356 . S
H910 C904 0.930 . S
H911 C908 0.930 . S
C912 C914 1.348 . S
C912 C915 1.356 . S
C912 O942 1.325 . S
N913 C916 1.314 . S
N913 C917 1.279 . S
C914 C912 1.348 . S
C914 C916 1.353 . S
C914 H956 0.929 . S
C915 C912 1.356 . S
C915 C917 1.358 . S
C915 H957 0.930 . S
C916 N913 1.314 . S
C916 C914 1.353 . S
C916 H958 0.930 . S
C917 N913 1.279 . S
C917 C915 1.358 . S
C917 H959 0.930 . S
C918 C919 1.348 . S
C918 C920 1.356 . S
C918 O943 1.325 . S
C919 C918 1.348 . S
C919 C921 1.353 . S
C919 H960 0.929 . S
C920 C918 1.356 . S
C920 C922 1.358 . S
C920 H961 0.930 . S
C921 C919 1.353 . S
C921 N923 1.314 . S
C921 H962 0.930 . S
C922 C920 1.358 . S
C922 N923 1.279 . S
C922 H963 0.930 . S
N923 C921 1.314 . S
N923 C922 1.279 . S
C924 C926 1.353 . S
C924 N927 1.314 . S
C924 H930 0.930 . S
C925 N927 1.279 . S
C925 C928 1.358 . S
C925 H931 0.930 . S
C926 C924 1.353 . S
C926 C929 1.348 . S
C926 H964 0.929 . S
N927 Li882 1.990 . S
N927 C924 1.314 . S
N927 C925 1.279 . S
C928 C925 1.358 . S
C928 C929 1.356 . S
C928 H965 0.930 . S
C929 C926 1.348 . S
C929 C928 1.356 . S
H930 C924 0.930 . S
H931 C925 0.930 . S
C932 N933 1.314 . S
C932 C934 1.353 . S
C932 H938 0.930 . S
N933 Li883 1.990 . S
N933 C932 1.314 . S
N933 C936 1.279 . S
C934 C932 1.353 . S
C934 C937 1.348 . S
C934 H966 0.929 . S
C935 C936 1.358 . S
C935 C937 1.356 . S
C935 H967 0.930 . S
C936 N933 1.279 . S
C936 C935 1.358 . S
C936 H939 0.930 . S
C937 C934 1.348 . S
C937 C935 1.356 . S
H938 C932 0.930 . S
H939 C936 0.930 . S
O940 Li880 1.956 . S
O940 Li881 1.970 . S
O940 Li882 1.961 . S
O940 C884 1.325 . S
O941 Li880 1.970 . S
O941 Li881 1.956 . S
O941 Li883 1.961 . S
O941 C890 1.325 . S
O942 Li880 1.961 . S
O942 Li882 1.956 . S
O942 Li883 1.970 . S
O942 C912 1.325 . S
O943 Li881 1.961 . S
O943 Li882 1.970 . S
O943 Li883 1.956 . S
O943 C918 1.325 . S
H944 C886 0.929 . S
H945 C887 0.930 . S
H946 C888 0.930 . S
H947 C889 0.930 . S
H948 C891 0.930 . S
H949 C893 0.929 . S
H950 C894 0.930 . S
H951 C895 0.930 . S
H952 C898 0.930 . S
H953 C901 0.929 . S
H954 C906 0.920 1_565 S
H955 C907 0.930 . S
H956 C914 0.929 . S
H957 C915 0.930 . S
H958 C916 0.930 . S
H959 C917 0.930 . S
H960 C919 0.929 . S
H961 C920 0.930 . S
H962 C921 0.930 . S
H963 C922 0.930 . S
H964 C926 0.929 . S
H965 C928 0.930 . S
H966 C934 0.929 . S
H967 C935 0.930 . S
Li968 N985 1.990 . S
Li968 O1028 1.956 . S
Li968 O1029 1.970 . S
Li968 O1030 1.961 . S
Li969 N993 1.990 . S
Li969 O1028 1.970 . S
Li969 O1029 1.956 . S
Li969 O1031 1.961 . S
Li970 N1015 1.990 . S
Li970 O1028 1.961 . S
Li970 O1030 1.956 . S
Li970 O1031 1.970 . S
Li971 N1021 1.990 . S
Li971 O1029 1.961 . S
Li971 O1030 1.970 . S
Li971 O1031 1.956 . S
C972 C974 1.348 . S
C972 C975 1.356 . S
C972 O1028 1.325 . S
N973 C976 1.314 . S
N973 C977 1.279 . S
C974 C972 1.348 . S
C974 C976 1.353 . S
C974 H1032 0.929 . S
C975 C972 1.356 . S
C975 C977 1.358 . S
C975 H1033 0.930 . S
C976 N973 1.314 . S
C976 C974 1.353 . S
C976 H1034 0.930 . S
C977 N973 1.279 . S
C977 C975 1.358 . S
C977 H1035 0.930 . S
C978 C981 1.348 . S
C978 C982 1.356 . S
C978 O1029 1.325 . S
C979 N980 1.279 . S
C979 C982 1.358 . S
C979 H1036 0.930 . S
N980 C979 1.279 . S
N980 C983 1.314 . S
C981 C978 1.348 . S
C981 C983 1.353 . S
C981 H1037 0.929 . S
C982 C978 1.356 . S
C982 C979 1.358 . S
C982 H1038 0.930 . S
C983 N980 1.314 . S
C983 C981 1.353 . S
C983 H1039 0.930 . S
C984 N985 1.314 . S
C984 C989 1.353 . S
C984 H990 0.930 . S
N985 Li968 1.990 . S
N985 C984 1.314 . S
N985 C987 1.279 . S
C986 C987 1.358 . S
C986 C988 1.356 . S
C986 H1040 0.930 . S
C987 N985 1.279 . S
C987 C986 1.358 . S
C987 H991 0.930 . S
C988 C986 1.356 . S
C988 C989 1.348 . S
C989 C984 1.353 . S
C989 C988 1.348 . S
C989 H1041 0.929 . S
H990 C984 0.930 . S
H991 C987 0.930 . S
C992 N993 1.314 . S
C992 C994 1.353 . S
C992 H998 0.930 . S
N993 Li969 1.990 . S
N993 C992 1.314 . S
N993 C996 1.279 . S
C994 C992 1.353 . S
C994 C997 1.348 . S
C994 H1042 0.929 . S
C995 C996 1.358 . S
C995 C997 1.356 . S
C995 H1043 0.930 . S
C996 N993 1.279 . S
C996 C995 1.358 . S
C996 H999 0.930 . S
C997 C994 1.348 . S
C997 C995 1.356 . S
H998 C992 0.930 . S
H999 C996 0.930 . S
C1000 C1002 1.348 . S
C1000 C1003 1.356 . S
C1000 O1030 1.325 . S
N1001 C1004 1.314 . S
N1001 C1005 1.279 . S
C1002 C1000 1.348 . S
C1002 C1004 1.353 . S
C1002 H1044 0.929 . S
C1003 C1000 1.356 . S
C1003 C1005 1.358 . S
C1003 H1045 0.930 . S
C1004 N1001 1.314 . S
C1004 C1002 1.353 . S
C1004 H1046 0.930 . S
C1005 N1001 1.279 . S
C1005 C1003 1.358 . S
C1005 H1047 0.930 . S
C1006 C1007 1.348 . S
C1006 C1008 1.356 . S
C1006 O1031 1.325 . S
C1007 C1006 1.348 . S
C1007 C1009 1.353 . S
C1007 H1048 0.929 . S
C1008 C1006 1.356 . S
C1008 C1010 1.358 . S
C1008 H1049 0.930 . S
C1009 C1007 1.353 . S
C1009 N1011 1.314 . S
C1009 H1050 0.930 . S
C1010 C1008 1.358 . S
C1010 N1011 1.279 . S
C1010 H1051 0.930 . S
N1011 C1009 1.314 . S
N1011 C1010 1.279 . S
C1012 C1014 1.353 . S
C1012 N1015 1.314 . S
C1012 H1018 0.930 . S
C1013 N1015 1.279 . S
C1013 C1016 1.358 . S
C1013 H1019 0.930 . S
C1014 C1012 1.353 . S
C1014 C1017 1.348 . S
C1014 H1052 0.929 . S
N1015 Li970 1.990 . S
N1015 C1012 1.314 . S
N1015 C1013 1.279 . S
C1016 C1013 1.358 . S
C1016 C1017 1.356 . S
C1016 H1053 0.930 . S
C1017 C1014 1.348 . S
C1017 C1016 1.356 . S
H1018 C1012 0.930 . S
H1019 C1013 0.930 . S
C1020 N1021 1.314 . S
C1020 C1022 1.353 . S
C1020 H1026 0.930 . S
N1021 Li971 1.990 . S
N1021 C1020 1.314 . S
N1021 C1024 1.279 . S
C1022 C1020 1.353 . S
C1022 C1025 1.348 . S
C1022 H1054 0.929 . S
C1023 C1024 1.358 . S
C1023 C1025 1.356 . S
C1023 H1055 0.930 . S
C1024 N1021 1.279 . S
C1024 C1023 1.358 . S
C1024 H1027 0.930 . S
C1025 C1022 1.348 . S
C1025 C1023 1.356 . S
H1026 C1020 0.930 . S
H1027 C1024 0.930 . S
O1028 Li968 1.956 . S
O1028 Li969 1.970 . S
O1028 Li970 1.961 . S
O1028 C972 1.325 . S
O1029 Li968 1.970 . S
O1029 Li969 1.956 . S
O1029 Li971 1.961 . S
O1029 C978 1.325 . S
O1030 Li968 1.961 . S
O1030 Li970 1.956 . S
O1030 Li971 1.970 . S
O1030 C1000 1.325 . S
O1031 Li969 1.961 . S
O1031 Li970 1.970 . S
O1031 Li971 1.956 . S
O1031 C1006 1.325 . S
H1032 C974 0.929 . S
H1033 C975 0.930 . S
H1034 C976 0.930 . S
H1035 C977 0.930 . S
H1036 C979 0.930 . S
H1037 C981 0.929 . S
H1038 C982 0.930 . S
H1039 C983 0.930 . S
H1040 C986 0.930 . S
H1041 C989 0.929 . S
H1042 C994 0.929 . S
H1043 C995 0.930 . S
H1044 C1002 0.929 . S
H1045 C1003 0.930 . S
H1046 C1004 0.930 . S
H1047 C1005 0.930 . S
H1048 C1007 0.929 . S
H1049 C1008 0.930 . S
H1050 C1009 0.930 . S
H1051 C1010 0.930 . S
H1052 C1014 0.929 . S
H1053 C1016 0.930 . S
H1054 C1022 0.929 . S
H1055 C1023 0.930 . S
H1056 C1064 0.950 . S
H1057 C1069 0.950 . S
H1058 C1066 0.950 . S
H1059 C1068 0.950 . S
H1060 C1070 0.950 . S
H1061 C1072 0.950 . S
H1062 C1074 0.950 . S
H1063 C1075 0.950 . S
C1064 H1056 0.950 . S
C1064 C1065 1.386 . S
C1064 C1066 1.391 . S
C1065 C1064 1.386 . S
C1065 C1069 1.393 . S
C1066 H1058 0.950 . S
C1066 C1064 1.391 . S
C1066 C1067 1.400 . S
C1067 C1066 1.400 . S
C1067 C1068 1.398 . S
C1067 C1073 1.491 1_554 S
C1068 H1059 0.950 . S
C1068 C1067 1.398 . S
C1068 C1069 1.391 . S
C1069 H1057 0.950 . S
C1069 C1065 1.393 . S
C1069 C1068 1.391 . S
C1070 H1060 0.950 . S
C1070 C1071 1.386 . S
C1070 C1072 1.391 . S
C1071 C1070 1.386 . S
C1071 C1075 1.393 . S
C1072 H1061 0.950 . S
C1072 C1070 1.391 . S
C1072 C1073 1.400 . S
C1073 C1067 1.491 1_556 S
C1073 C1072 1.400 . S
C1073 C1074 1.398 . S
C1074 H1062 0.950 . S
C1074 C1073 1.398 . S
C1074 C1075 1.391 . S
C1075 H1063 0.950 . S
C1075 C1071 1.393 . S
C1075 C1074 1.391 . S
H1076 C1084 0.950 . S
H1077 C1089 0.950 . S
H1078 C1086 0.950 . S
H1079 C1088 0.950 . S
H1080 C1090 0.950 . S
H1081 C1092 0.950 . S
H1082 C1094 0.950 . S
H1083 C1095 0.950 . S
C1084 H1076 0.950 . S
C1084 C1085 1.386 . S
C1084 C1086 1.391 . S
C1085 C1084 1.386 . S
C1085 C1089 1.393 . S
C1086 H1078 0.950 . S
C1086 C1084 1.391 . S
C1086 C1087 1.400 . S
C1087 C1086 1.400 . S
C1087 C1088 1.398 . S
C1087 C1093 1.491 . S
C1088 H1079 0.950 . S
C1088 C1087 1.398 . S
C1088 C1089 1.391 . S
C1089 H1077 0.950 . S
C1089 C1085 1.393 . S
C1089 C1088 1.391 . S
C1090 H1080 0.950 . S
C1090 C1091 1.386 . S
C1090 C1092 1.391 . S
C1091 C1090 1.386 . S
C1091 C1095 1.393 . S
C1092 H1081 0.950 . S
C1092 C1090 1.391 . S
C1092 C1093 1.400 . S
C1093 C1087 1.491 . S
C1093 C1092 1.400 . S
C1093 C1094 1.398 . S
C1094 H1082 0.950 . S
C1094 C1093 1.398 . S
C1094 C1095 1.391 . S
C1095 H1083 0.950 . S
C1095 C1091 1.393 . S
C1095 C1094 1.391 . S
H1096 C1104 0.950 . S
H1097 C1109 0.950 . S
H1098 C1106 0.950 . S
H1099 C1108 0.950 . S
H1100 C1110 0.950 . S
H1101 C1112 0.950 . S
H1102 C1114 0.950 . S
H1103 C1115 0.950 . S
C1104 H1096 0.950 . S
C1104 C1105 1.386 . S
C1104 C1106 1.391 . S
C1105 C1104 1.386 . S
C1105 C1109 1.393 . S
C1106 H1098 0.950 . S
C1106 C1104 1.391 . S
C1106 C1107 1.400 . S
C1107 C1106 1.400 . S
C1107 C1108 1.398 . S
C1107 C1113 1.491 . S
C1108 H1099 0.950 . S
C1108 C1107 1.398 . S
C1108 C1109 1.391 . S
C1109 H1097 0.950 . S
C1109 C1105 1.393 . S
C1109 C1108 1.391 . S
C1110 H1100 0.950 . S
C1110 C1111 1.386 . S
C1110 C1112 1.391 . S
C1111 C1110 1.386 . S
C1111 C1115 1.393 . S
C1112 H1101 0.950 . S
C1112 C1110 1.391 . S
C1112 C1113 1.400 . S
C1113 C1107 1.491 . S
C1113 C1112 1.400 . S
C1113 C1114 1.398 . S
C1114 H1102 0.950 . S
C1114 C1113 1.398 . S
C1114 C1115 1.391 . S
C1115 H1103 0.950 . S
C1115 C1111 1.393 . S
C1115 C1114 1.391 . S
H1116 C1124 0.950 . S
H1117 C1129 0.950 . S
H1118 C1126 0.950 . S
H1119 C1128 0.950 . S
H1120 C1130 0.950 . S
H1121 C1132 0.950 . S
H1122 C1134 0.950 . S
H1123 C1135 0.950 . S
C1124 H1116 0.950 . S
C1124 C1125 1.386 . S
C1124 C1126 1.391 . S
C1125 C1124 1.386 . S
C1125 C1129 1.393 . S
C1126 H1118 0.950 . S
C1126 C1124 1.391 . S
C1126 C1127 1.400 . S
C1127 C1126 1.400 . S
C1127 C1128 1.398 . S
C1127 C1133 1.491 1_554 S
C1128 H1119 0.950 . S
C1128 C1127 1.398 . S
C1128 C1129 1.391 . S
C1129 H1117 0.950 . S
C1129 C1125 1.393 . S
C1129 C1128 1.391 . S
C1130 H1120 0.950 . S
C1130 C1131 1.386 . S
C1130 C1132 1.391 . S
C1131 C1130 1.386 . S
C1131 C1135 1.393 . S
C1132 H1121 0.950 . S
C1132 C1130 1.391 . S
C1132 C1133 1.400 . S
C1133 C1127 1.491 1_556 S
C1133 C1132 1.400 . S
C1133 C1134 1.398 . S
C1134 H1122 0.950 . S
C1134 C1133 1.398 . S
C1134 C1135 1.391 . S
C1135 H1123 0.950 . S
C1135 C1131 1.393 . S
C1135 C1134 1.391 . S
H1136 C1144 0.950 . S
H1137 C1149 0.950 . S
H1138 C1146 0.950 . S
H1139 C1148 0.950 . S
H1140 C1150 0.950 . S
H1141 C1152 0.950 . S
H1142 C1154 0.950 . S
H1143 C1155 0.950 . S
C1144 H1136 0.950 . S
C1144 C1145 1.386 . S
C1144 C1146 1.391 . S
C1145 C1144 1.386 . S
C1145 C1149 1.393 . S
C1146 H1138 0.950 . S
C1146 C1144 1.391 . S
C1146 C1147 1.400 . S
C1147 C1146 1.400 . S
C1147 C1148 1.398 . S
C1147 C1153 1.491 . S
C1148 H1139 0.950 . S
C1148 C1147 1.398 . S
C1148 C1149 1.391 . S
C1149 H1137 0.950 . S
C1149 C1145 1.393 . S
C1149 C1148 1.391 . S
C1150 H1140 0.950 . S
C1150 C1151 1.386 . S
C1150 C1152 1.391 . S
C1151 C1150 1.386 . S
C1151 C1155 1.393 . S
C1152 H1141 0.950 . S
C1152 C1150 1.391 . S
C1152 C1153 1.400 . S
C1153 C1147 1.491 . S
C1153 C1152 1.400 . S
C1153 C1154 1.398 . S
C1154 H1142 0.950 . S
C1154 C1153 1.398 . S
C1154 C1155 1.391 . S
C1155 H1143 0.950 . S
C1155 C1151 1.393 . S
C1155 C1154 1.391 . S
H1156 C1164 0.950 . S
H1157 C1169 0.950 . S
H1158 C1166 0.950 . S
H1159 C1168 0.950 . S
H1160 C1170 0.950 . S
H1161 C1172 0.950 . S
H1162 C1174 0.950 . S
H1163 C1175 0.950 . S
C1164 H1156 0.950 . S
C1164 C1165 1.386 . S
C1164 C1166 1.391 . S
C1165 C1164 1.386 . S
C1165 C1169 1.393 . S
C1166 H1158 0.950 . S
C1166 C1164 1.391 . S
C1166 C1167 1.400 . S
C1167 C1166 1.400 . S
C1167 C1168 1.398 . S
C1167 C1173 1.491 . S
C1168 H1159 0.950 . S
C1168 C1167 1.398 . S
C1168 C1169 1.391 . S
C1169 H1157 0.950 . S
C1169 C1165 1.393 . S
C1169 C1168 1.391 . S
C1170 H1160 0.950 . S
C1170 C1171 1.386 . S
C1170 C1172 1.391 . S
C1171 C1170 1.386 . S
C1171 C1175 1.393 . S
C1172 H1161 0.950 . S
C1172 C1170 1.391 . S
C1172 C1173 1.400 . S
C1173 C1167 1.491 . S
C1173 C1172 1.400 . S
C1173 C1174 1.398 . S
C1174 H1162 0.950 . S
C1174 C1173 1.398 . S
C1174 C1175 1.391 . S
C1175 H1163 0.950 . S
C1175 C1171 1.393 . S
C1175 C1174 1.391 . S
H1176 C1184 0.951 . S
H1177 C1189 0.950 . S
H1178 C1186 0.950 . S
H1179 C1188 0.950 . S
H1180 C1190 0.950 . S
H1181 C1192 0.950 . S
H1182 C1194 0.950 . S
H1183 C1195 0.950 . S
C1184 H1176 0.951 . S
C1184 C1185 1.386 . S
C1184 C1186 1.391 1_545 S
C1185 C1184 1.386 . S
C1185 C1189 1.393 . S
C1186 H1178 0.950 . S
C1186 C1184 1.391 1_565 S
C1186 C1187 1.400 1_565 S
C1187 C1186 1.400 1_545 S
C1187 C1188 1.398 . S
C1187 C1193 1.491 1_544 S
C1188 H1179 0.950 . S
C1188 C1187 1.398 . S
C1188 C1189 1.391 . S
C1189 H1177 0.950 . S
C1189 C1185 1.393 . S
C1189 C1188 1.391 . S
C1190 H1180 0.950 . S
C1190 C1191 1.386 . S
C1190 C1192 1.391 1_565 S
C1191 C1190 1.386 . S
C1191 C1195 1.393 . S
C1192 H1181 0.950 . S
C1192 C1190 1.391 1_545 S
C1192 C1193 1.400 1_545 S
C1193 C1187 1.491 1_566 S
C1193 C1192 1.400 1_565 S
C1193 C1194 1.398 . S
C1194 H1182 0.950 . S
C1194 C1193 1.398 . S
C1194 C1195 1.391 . S
C1195 H1183 0.950 . S
C1195 C1191 1.393 . S
C1195 C1194 1.391 . S
H1196 C1204 0.950 . S
H1197 C1209 0.950 . S
H1198 C1206 0.950 . S
H1199 C1208 0.950 . S
H1200 C1210 0.950 . S
H1201 C1212 0.950 . S
H1202 C1214 0.950 . S
H1203 C1215 0.950 . S
C1204 H1196 0.950 . S
C1204 C1205 1.386 . S
C1204 C1206 1.391 . S
C1205 C1204 1.386 . S
C1205 C1209 1.393 . S
C1206 H1198 0.950 . S
C1206 C1204 1.391 . S
C1206 C1207 1.400 . S
C1207 C1206 1.400 . S
C1207 C1208 1.398 . S
C1207 C1213 1.491 . S
C1208 H1199 0.950 . S
C1208 C1207 1.398 . S
C1208 C1209 1.391 . S
C1209 H1197 0.950 . S
C1209 C1205 1.393 . S
C1209 C1208 1.391 . S
C1210 H1200 0.950 . S
C1210 C1211 1.386 . S
C1210 C1212 1.391 . S
C1211 C1210 1.386 . S
C1211 C1215 1.393 . S
C1212 H1201 0.950 . S
C1212 C1210 1.391 . S
C1212 C1213 1.400 . S
C1213 C1207 1.491 . S
C1213 C1212 1.400 . S
C1213 C1214 1.398 . S
C1214 H1202 0.950 . S
C1214 C1213 1.398 . S
C1214 C1215 1.391 . S
C1215 H1203 0.950 . S
C1215 C1211 1.393 . S
C1215 C1214 1.391 . S
H1216 C1224 0.950 . S
H1217 C1229 0.950 . S
H1218 C1226 0.950 . S
H1219 C1228 0.950 . S
H1220 C1230 0.950 . S
H1221 C1232 0.950 . S
H1222 C1234 0.950 . S
H1223 C1235 0.950 . S
C1224 H1216 0.950 . S
C1224 C1225 1.386 . S
C1224 C1226 1.391 . S
C1225 C1224 1.386 . S
C1225 C1229 1.393 1_455 S
C1226 H1218 0.950 . S
C1226 C1224 1.391 . S
C1226 C1227 1.400 . S
C1227 C1226 1.400 . S
C1227 C1228 1.398 1_455 S
C1227 C1233 1.491 1_455 S
C1228 H1219 0.950 . S
C1228 C1227 1.398 1_655 S
C1228 C1229 1.391 . S
C1229 H1217 0.950 . S
C1229 C1225 1.393 1_655 S
C1229 C1228 1.391 . S
C1230 H1220 0.950 . S
C1230 C1231 1.386 . S
C1230 C1232 1.391 . S
C1231 C1230 1.386 . S
C1231 C1235 1.393 1_655 S
C1232 H1221 0.950 . S
C1232 C1230 1.391 . S
C1232 C1233 1.400 . S
C1233 C1227 1.491 1_655 S
C1233 C1232 1.400 . S
C1233 C1234 1.398 1_655 S
C1234 H1222 0.950 . S
C1234 C1233 1.398 1_455 S
C1234 C1235 1.391 . S
C1235 H1223 0.950 . S
C1235 C1231 1.393 1_455 S
C1235 C1234 1.391 . S
H1236 C1244 0.950 . S
H1237 C1249 0.950 . S
H1238 C1246 0.950 . S
H1239 C1248 0.950 . S
H1240 C1250 0.950 . S
H1241 C1252 0.950 . S
H1242 C1254 0.950 . S
H1243 C1255 0.950 . S
C1244 H1236 0.950 . S
C1244 C1245 1.386 . S
C1244 C1246 1.391 . S
C1245 C1244 1.386 . S
C1245 C1249 1.393 1_565 S
C1246 H1238 0.950 . S
C1246 C1244 1.391 . S
C1246 C1247 1.400 . S
C1247 C1246 1.400 . S
C1247 C1248 1.398 1_565 S
C1247 C1253 1.491 1_564 S
C1248 H1239 0.950 . S
C1248 C1247 1.398 1_545 S
C1248 C1249 1.391 . S
C1249 H1237 0.950 . S
C1249 C1245 1.393 1_545 S
C1249 C1248 1.391 . S
C1250 H1240 0.950 . S
C1250 C1251 1.386 . S
C1250 C1252 1.391 . S
C1251 C1250 1.386 . S
C1251 C1255 1.393 1_545 S
C1252 H1241 0.950 . S
C1252 C1250 1.391 . S
C1252 C1253 1.400 . S
C1253 C1247 1.491 1_546 S
C1253 C1252 1.400 . S
C1253 C1254 1.398 1_545 S
C1254 H1242 0.950 . S
C1254 C1253 1.398 1_565 S
C1254 C1255 1.391 . S
C1255 H1243 0.950 . S
C1255 C1251 1.393 1_565 S
C1255 C1254 1.391 . S
H1256 C1264 0.950 . S
H1257 C1269 0.950 . S
H1258 C1266 0.950 . S
H1259 C1268 0.950 . S
H1260 C1270 0.950 . S
H1261 C1272 0.950 . S
H1262 C1274 0.950 . S
H1263 C1275 0.950 . S
C1264 H1256 0.950 . S
C1264 C1265 1.386 . S
C1264 C1266 1.391 . S
C1265 C1264 1.386 . S
C1265 C1269 1.393 . S
C1266 H1258 0.950 . S
C1266 C1264 1.391 . S
C1266 C1267 1.400 . S
C1267 C1266 1.400 . S
C1267 C1268 1.398 . S
C1267 C1273 1.491 . S
C1268 H1259 0.950 . S
C1268 C1267 1.398 . S
C1268 C1269 1.391 . S
C1269 H1257 0.950 . S
C1269 C1265 1.393 . S
C1269 C1268 1.391 . S
C1270 H1260 0.950 . S
C1270 C1271 1.386 . S
C1270 C1272 1.391 . S
C1271 C1270 1.386 . S
C1271 C1275 1.393 . S
C1272 H1261 0.950 . S
C1272 C1270 1.391 . S
C1272 C1273 1.400 . S
C1273 C1267 1.491 . S
C1273 C1272 1.400 . S
C1273 C1274 1.398 . S
C1274 H1262 0.950 . S
C1274 C1273 1.398 . S
C1274 C1275 1.391 . S
C1275 H1263 0.950 . S
C1275 C1271 1.393 . S
C1275 C1274 1.391 . S
H1276 C1284 0.950 . S
H1277 C1289 0.950 . S
H1278 C1286 0.950 . S
H1279 C1288 0.950 . S
H1280 C1290 0.950 . S
H1281 C1292 0.950 . S
H1282 C1294 0.950 . S
H1283 C1295 0.950 . S
C1284 H1276 0.950 . S
C1284 C1285 1.386 1_655 S
C1284 C1286 1.391 . S
C1285 C1284 1.386 1_455 S
C1285 C1289 1.393 . S
C1286 H1278 0.950 . S
C1286 C1284 1.391 . S
C1286 C1287 1.400 1_655 S
C1287 C1286 1.400 1_455 S
C1287 C1288 1.398 . S
C1287 C1293 1.491 1_455 S
C1288 H1279 0.950 . S
C1288 C1287 1.398 . S
C1288 C1289 1.391 . S
C1289 H1277 0.950 . S
C1289 C1285 1.393 . S
C1289 C1288 1.391 . S
C1290 H1280 0.950 . S
C1290 C1291 1.386 1_455 S
C1290 C1292 1.391 . S
C1291 C1290 1.386 1_655 S
C1291 C1295 1.393 . S
C1292 H1281 0.950 . S
C1292 C1290 1.391 . S
C1292 C1293 1.400 1_455 S
C1293 C1287 1.491 1_655 S
C1293 C1292 1.400 1_655 S
C1293 C1294 1.398 . S
C1294 H1282 0.950 . S
C1294 C1293 1.398 . S
C1294 C1295 1.391 . S
C1295 H1283 0.950 . S
C1295 C1291 1.393 . S
C1295 C1294 1.391 . S
H1296 C1304 0.950 . S
H1297 C1309 0.950 . S
H1298 C1306 0.950 . S
H1299 C1308 0.971 . S
H1300 C1310 0.950 . S
H1301 C1312 0.950 . S
H1302 C1314 0.970 . S
H1303 C1315 0.950 . S
C1304 H1296 0.950 . S
C1304 C1305 1.386 . S
C1304 C1306 1.391 . S
C1305 C1304 1.386 . S
C1305 C1309 1.393 . S
C1306 H1298 0.950 . S
C1306 C1304 1.391 . S
C1306 C1307 1.400 . S
C1307 C1306 1.400 . S
C1307 C1308 1.402 1_565 S
C1307 C1313 1.491 1_565 S
C1308 H1299 0.971 . S
C1308 C1307 1.402 1_545 S
C1308 C1309 1.366 1_545 S
C1309 H1297 0.950 . S
C1309 C1305 1.393 . S
C1309 C1308 1.366 1_565 S
C1310 H1300 0.950 . S
C1310 C1311 1.386 . S
C1310 C1312 1.391 . S
C1311 C1310 1.386 . S
C1311 C1315 1.393 . S
C1312 H1301 0.950 . S
C1312 C1310 1.391 . S
C1312 C1313 1.400 . S
C1313 C1307 1.491 1_545 S
C1313 C1312 1.400 . S
C1313 C1314 1.402 1_545 S
C1314 H1302 0.970 . S
C1314 C1313 1.402 1_565 S
C1314 C1315 1.367 1_565 S
C1315 H1303 0.950 . S
C1315 C1311 1.393 . S
C1315 C1314 1.367 1_545 S
H1316 C1324 0.950 . S
H1317 C1329 0.950 . S
H1318 C1326 0.950 . S
H1319 C1328 0.950 . S
H1320 C1330 0.950 . S
H1321 C1332 0.950 . S
H1322 C1334 0.950 . S
H1323 C1335 0.950 . S
C1324 H1316 0.950 . S
C1324 C1325 1.386 . S
C1324 C1326 1.391 . S
C1325 C1324 1.386 . S
C1325 C1329 1.393 . S
C1326 H1318 0.950 . S
C1326 C1324 1.391 . S
C1326 C1327 1.400 . S
C1327 C1326 1.400 . S
C1327 C1328 1.398 . S
C1327 C1333 1.491 . S
C1328 H1319 0.950 . S
C1328 C1327 1.398 . S
C1328 C1329 1.391 . S
C1329 H1317 0.950 . S
C1329 C1325 1.393 . S
C1329 C1328 1.391 . S
C1330 H1320 0.950 . S
C1330 C1331 1.386 . S
C1330 C1332 1.391 . S
C1331 C1330 1.386 . S
C1331 C1335 1.393 . S
C1332 H1321 0.950 . S
C1332 C1330 1.391 . S
C1332 C1333 1.400 . S
C1333 C1327 1.491 . S
C1333 C1332 1.400 . S
C1333 C1334 1.398 . S
C1334 H1322 0.950 . S
C1334 C1333 1.398 . S
C1334 C1335 1.391 . S
C1335 H1323 0.950 . S
C1335 C1331 1.393 . S
C1335 C1334 1.391 . S
H1336 C1344 0.950 . S
H1337 C1349 0.950 . S
H1338 C1346 0.993 . S
H1339 C1348 0.950 . S
H1340 C1350 0.950 . S
H1341 C1352 0.992 . S
H1342 C1354 0.950 . S
H1343 C1355 0.950 . S
C1344 H1336 0.950 . S
C1344 C1345 1.386 . S
C1344 C1346 1.393 1_455 S
C1345 C1344 1.386 . S
C1345 C1349 1.393 . S
C1346 H1338 0.993 . S
C1346 C1344 1.393 1_655 S
C1346 C1347 1.359 1_655 S
C1347 C1346 1.359 1_455 S
C1347 C1348 1.398 . S
C1347 C1353 1.491 1_455 S
C1348 H1339 0.950 . S
C1348 C1347 1.398 . S
C1348 C1349 1.391 . S
C1349 H1337 0.950 . S
C1349 C1345 1.393 . S
C1349 C1348 1.391 . S
C1350 H1340 0.950 . S
C1350 C1351 1.386 . S
C1350 C1352 1.393 1_655 S
C1351 C1350 1.386 . S
C1351 C1355 1.393 . S
C1352 H1341 0.992 . S
C1352 C1350 1.393 1_455 S
C1352 C1353 1.360 1_455 S
C1353 C1347 1.491 1_655 S
C1353 C1352 1.360 1_655 S
C1353 C1354 1.398 . S
C1354 H1342 0.950 . S
C1354 C1353 1.398 . S
C1354 C1355 1.391 . S
C1355 H1343 0.950 . S
C1355 C1351 1.393 . S
C1355 C1354 1.391 . S
H1356 C1364 0.950 . S
H1357 C1369 0.950 1_455 S
H1358 C1366 0.950 . S
H1359 C1368 0.950 . S
H1360 C1370 0.950 . S
H1361 C1372 0.950 . S
H1362 C1374 0.950 . S
H1363 C1375 0.950 1_655 S
C1364 H1356 0.950 . S
C1364 C1365 1.386 . S
C1364 C1366 1.391 . S
C1365 C1364 1.386 . S
C1365 C1369 1.393 . S
C1366 H1358 0.950 . S
C1366 C1364 1.391 . S
C1366 C1367 1.400 . S
C1367 C1366 1.400 . S
C1367 C1368 1.398 1_655 S
C1367 C1373 1.491 1_655 S
C1368 H1359 0.950 . S
C1368 C1367 1.398 1_455 S
C1368 C1369 1.391 1_455 S
C1369 H1357 0.950 1_655 S
C1369 C1365 1.393 . S
C1369 C1368 1.391 1_655 S
C1370 H1360 0.950 . S
C1370 C1371 1.386 . S
C1370 C1372 1.391 . S
C1371 C1370 1.386 . S
C1371 C1375 1.393 . S
C1372 H1361 0.950 . S
C1372 C1370 1.391 . S
C1372 C1373 1.400 . S
C1373 C1367 1.491 1_455 S
C1373 C1372 1.400 . S
C1373 C1374 1.398 1_455 S
C1374 H1362 0.950 . S
C1374 C1373 1.398 1_655 S
C1374 C1375 1.391 1_655 S
C1375 H1363 0.950 1_455 S
C1375 C1371 1.393 . S
C1375 C1374 1.391 1_455 S
H1376 C1384 0.907 1_545 S
H1377 C1389 0.950 . S
H1378 C1386 0.950 . S
H1379 C1388 0.950 . S
H1380 C1390 0.905 1_565 S
H1381 C1392 0.950 . S
H1382 C1394 0.950 . S
H1383 C1395 0.950 . S
C1384 H1376 0.907 1_565 S
C1384 C1385 1.386 . S
C1384 C1386 1.391 1_565 S
C1385 C1384 1.386 . S
C1385 C1389 1.393 . S
C1386 H1378 0.950 . S
C1386 C1384 1.391 1_545 S
C1386 C1387 1.400 1_545 S
C1387 C1386 1.400 1_565 S
C1387 C1388 1.398 . S
C1387 C1393 1.491 1_565 S
C1388 H1379 0.950 . S
C1388 C1387 1.398 . S
C1388 C1389 1.391 . S
C1389 H1377 0.950 . S
C1389 C1385 1.393 . S
C1389 C1388 1.391 . S
C1390 H1380 0.905 1_545 S
C1390 C1391 1.386 . S
C1390 C1392 1.391 1_545 S
C1391 C1390 1.386 . S
C1391 C1395 1.393 . S
C1392 H1381 0.950 . S
C1392 C1390 1.391 1_565 S
C1392 C1393 1.400 1_565 S
C1393 C1387 1.491 1_545 S
C1393 C1392 1.400 1_545 S
C1393 C1394 1.398 . S
C1394 H1382 0.950 . S
C1394 C1393 1.398 . S
C1394 C1395 1.391 . S
C1395 H1383 0.950 . S
C1395 C1391 1.393 . S
C1395 C1394 1.391 . S
H1396 C1404 0.950 . S
H1397 C1409 0.950 . S
H1398 C1406 0.950 . S
H1399 C1408 0.950 . S
H1400 C1410 0.950 . S
H1401 C1412 0.950 . S
H1402 C1414 0.950 . S
H1403 C1415 0.950 . S
C1404 H1396 0.950 . S
C1404 C1405 1.386 . S
C1404 C1406 1.391 . S
C1405 C1404 1.386 . S
C1405 C1409 1.393 . S
C1406 H1398 0.950 . S
C1406 C1404 1.391 . S
C1406 C1407 1.400 . S
C1407 C1406 1.400 . S
C1407 C1408 1.398 . S
C1407 C1413 1.491 . S
C1408 H1399 0.950 . S
C1408 C1407 1.398 . S
C1408 C1409 1.391 . S
C1409 H1397 0.950 . S
C1409 C1405 1.393 . S
C1409 C1408 1.391 . S
C1410 H1400 0.950 . S
C1410 C1411 1.386 . S
C1410 C1412 1.391 . S
C1411 C1410 1.386 . S
C1411 C1415 1.393 . S
C1412 H1401 0.950 . S
C1412 C1410 1.391 . S
C1412 C1413 1.400 . S
C1413 C1407 1.491 . S
C1413 C1412 1.400 . S
C1413 C1414 1.398 . S
C1414 H1402 0.950 . S
C1414 C1413 1.398 . S
C1414 C1415 1.391 . S
C1415 H1403 0.950 . S
C1415 C1411 1.393 . S
C1415 C1414 1.391 . S
H1416 C1424 0.950 . S
H1417 C1429 0.950 . S
H1418 C1426 0.950 . S
H1419 C1428 0.950 . S
H1420 C1430 0.950 . S
H1421 C1432 0.950 . S
H1422 C1434 0.950 . S
H1423 C1435 0.950 . S
C1424 H1416 0.950 . S
C1424 C1425 1.386 . S
C1424 C1426 1.391 . S
C1425 C1424 1.386 . S
C1425 C1429 1.393 . S
C1426 H1418 0.950 . S
C1426 C1424 1.391 . S
C1426 C1427 1.400 . S
C1427 C1426 1.400 . S
C1427 C1428 1.398 . S
C1427 C1433 1.491 . S
C1428 H1419 0.950 . S
C1428 C1427 1.398 . S
C1428 C1429 1.391 . S
C1429 H1417 0.950 . S
C1429 C1425 1.393 . S
C1429 C1428 1.391 . S
C1430 H1420 0.950 . S
C1430 C1431 1.386 . S
C1430 C1432 1.391 . S
C1431 C1430 1.386 . S
C1431 C1435 1.393 . S
C1432 H1421 0.950 . S
C1432 C1430 1.391 . S
C1432 C1433 1.400 . S
C1433 C1427 1.491 . S
C1433 C1432 1.400 . S
C1433 C1434 1.398 . S
C1434 H1422 0.950 . S
C1434 C1433 1.398 . S
C1434 C1435 1.391 . S
C1435 H1423 0.950 . S
C1435 C1431 1.393 . S
C1435 C1434 1.391 . S
H1436 C1444 0.950 . S
H1437 C1449 0.950 . S
H1438 C1446 0.950 . S
H1439 C1448 0.950 . S
H1440 C1450 0.950 . S
H1441 C1452 0.950 . S
H1442 C1454 0.950 . S
H1443 C1455 0.950 . S
C1444 H1436 0.950 . S
C1444 C1445 1.386 . S
C1444 C1446 1.391 . S
C1445 C1444 1.386 . S
C1445 C1449 1.393 . S
C1446 H1438 0.950 . S
C1446 C1444 1.391 . S
C1446 C1447 1.400 . S
C1447 C1446 1.400 . S
C1447 C1448 1.398 . S
C1447 C1453 1.491 . S
C1448 H1439 0.950 . S
C1448 C1447 1.398 . S
C1448 C1449 1.391 . S
C1449 H1437 0.950 . S
C1449 C1445 1.393 . S
C1449 C1448 1.391 . S
C1450 H1440 0.950 . S
C1450 C1451 1.386 . S
C1450 C1452 1.391 . S
C1451 C1450 1.386 . S
C1451 C1455 1.393 . S
C1452 H1441 0.950 . S
C1452 C1450 1.391 . S
C1452 C1453 1.400 . S
C1453 C1447 1.491 . S
C1453 C1452 1.400 . S
C1453 C1454 1.398 . S
C1454 H1442 0.950 . S
C1454 C1453 1.398 . S
C1454 C1455 1.391 . S
C1455 H1443 0.950 . S
C1455 C1451 1.393 . S
C1455 C1454 1.391 . S
H1456 C1464 0.950 . S
H1457 C1469 0.950 . S
H1458 C1466 0.950 . S
H1459 C1468 0.950 . S
H1460 C1470 0.950 . S
H1461 C1472 0.950 . S
H1462 C1474 0.950 . S
H1463 C1475 0.950 . S
C1464 H1456 0.950 . S
C1464 C1465 1.386 . S
C1464 C1466 1.391 . S
C1465 C1464 1.386 . S
C1465 C1469 1.393 . S
C1466 H1458 0.950 . S
C1466 C1464 1.391 . S
C1466 C1467 1.400 . S
C1467 C1466 1.400 . S
C1467 C1468 1.398 . S
C1467 C1473 1.491 . S
C1468 H1459 0.950 . S
C1468 C1467 1.398 . S
C1468 C1469 1.391 . S
C1469 H1457 0.950 . S
C1469 C1465 1.393 . S
C1469 C1468 1.391 . S
C1470 H1460 0.950 . S
C1470 C1471 1.386 . S
C1470 C1472 1.391 . S
C1471 C1470 1.386 . S
C1471 C1475 1.393 . S
C1472 H1461 0.950 . S
C1472 C1470 1.391 . S
C1472 C1473 1.400 . S
C1473 C1467 1.491 . S
C1473 C1472 1.400 . S
C1473 C1474 1.398 . S
C1474 H1462 0.950 . S
C1474 C1473 1.398 . S
C1474 C1475 1.391 . S
C1475 H1463 0.950 . S
C1475 C1471 1.393 . S
C1475 C1474 1.391 . S
H1476 C1484 0.950 . S
H1477 C1489 0.950 . S
H1478 C1486 0.950 . S
H1479 C1488 0.950 . S
H1480 C1490 0.950 . S
H1481 C1492 0.950 . S
H1482 C1494 0.950 . S
H1483 C1495 0.950 . S
C1484 H1476 0.950 . S
C1484 C1485 1.386 . S
C1484 C1486 1.391 . S
C1485 C1484 1.386 . S
C1485 C1489 1.393 . S
C1486 H1478 0.950 . S
C1486 C1484 1.391 . S
C1486 C1487 1.400 . S
C1487 C1486 1.400 . S
C1487 C1488 1.398 . S
C1487 C1493 1.491 . S
C1488 H1479 0.950 . S
C1488 C1487 1.398 . S
C1488 C1489 1.391 . S
C1489 H1477 0.950 . S
C1489 C1485 1.393 . S
C1489 C1488 1.391 . S
C1490 H1480 0.950 . S
C1490 C1491 1.386 . S
C1490 C1492 1.391 . S
C1491 C1490 1.386 . S
C1491 C1495 1.393 . S
C1492 H1481 0.950 . S
C1492 C1490 1.391 . S
C1492 C1493 1.400 . S
C1493 C1487 1.491 . S
C1493 C1492 1.400 . S
C1493 C1494 1.398 . S
C1494 H1482 0.950 . S
C1494 C1493 1.398 . S
C1494 C1495 1.391 . S
C1495 H1483 0.950 . S
C1495 C1491 1.393 . S
C1495 C1494 1.391 . S
H1496 C1504 0.950 . S
H1497 C1509 0.950 . S
H1498 C1506 0.950 . S
H1499 C1508 0.950 . S
H1500 C1510 0.950 . S
H1501 C1512 0.950 . S
H1502 C1514 0.950 . S
H1503 C1515 0.950 . S
C1504 H1496 0.950 . S
C1504 C1505 1.386 . S
C1504 C1506 1.391 . S
C1505 C1504 1.386 . S
C1505 C1509 1.393 . S
C1506 H1498 0.950 . S
C1506 C1504 1.391 . S
C1506 C1507 1.400 . S
C1507 C1506 1.400 . S
C1507 C1508 1.398 . S
C1507 C1513 1.491 . S
C1508 H1499 0.950 . S
C1508 C1507 1.398 . S
C1508 C1509 1.391 . S
C1509 H1497 0.950 . S
C1509 C1505 1.393 . S
C1509 C1508 1.391 . S
C1510 H1500 0.950 . S
C1510 C1511 1.386 . S
C1510 C1512 1.391 . S
C1511 C1510 1.386 . S
C1511 C1515 1.393 . S
C1512 H1501 0.950 . S
C1512 C1510 1.391 . S
C1512 C1513 1.400 . S
C1513 C1507 1.491 . S
C1513 C1512 1.400 . S
C1513 C1514 1.398 . S
C1514 H1502 0.950 . S
C1514 C1513 1.398 . S
C1514 C1515 1.391 . S
C1515 H1503 0.950 . S
C1515 C1511 1.393 . S
C1515 C1514 1.391 . S
H1516 C1524 0.950 . S
H1517 C1529 0.950 . S
H1518 C1526 0.950 . S
H1519 C1528 0.950 . S
H1520 C1530 0.950 . S
H1521 C1532 0.950 . S
H1522 C1534 0.950 . S
H1523 C1535 0.950 . S
C1524 H1516 0.950 . S
C1524 C1525 1.386 . S
C1524 C1526 1.391 . S
C1525 C1524 1.386 . S
C1525 C1529 1.393 . S
C1526 H1518 0.950 . S
C1526 C1524 1.391 . S
C1526 C1527 1.400 . S
C1527 C1526 1.400 . S
C1527 C1528 1.398 . S
C1527 C1533 1.491 . S
C1528 H1519 0.950 . S
C1528 C1527 1.398 . S
C1528 C1529 1.391 . S
C1529 H1517 0.950 . S
C1529 C1525 1.393 . S
C1529 C1528 1.391 . S
C1530 H1520 0.950 . S
C1530 C1531 1.386 . S
C1530 C1532 1.391 . S
C1531 C1530 1.386 . S
C1531 C1535 1.393 . S
C1532 H1521 0.950 . S
C1532 C1530 1.391 . S
C1532 C1533 1.400 . S
C1533 C1527 1.491 . S
C1533 C1532 1.400 . S
C1533 C1534 1.398 . S
C1534 H1522 0.950 . S
C1534 C1533 1.398 . S
C1534 C1535 1.391 . S
C1535 H1523 0.950 . S
C1535 C1531 1.393 . S
C1535 C1534 1.391 . S
C1065 C49 0.447 . S
C1071 C937 0.435 . S
C1085 C1017 0.376 . S
C1091 C117 0.391 . S
C1105 C585 0.364 . S
C1111 C196 0.423 . S
C1125 C284 0.455 . S
C1131 C645 0.418 . S
C1145 C401 0.376 . S
C1151 C724 0.448 . S
C1165 C821 0.379 . S
C1171 C489 0.387 . S
C1185 C20 0.684 . S
C1191 C673 0.665 . S
C1205 C753 0.666 . S
C1211 C145 0.727 . S
C1225 C849 0.709 . S
C1231 C225 0.742 . S
C1245 C313 0.673 . S
C1251 C909 0.734 . S
C1265 C988 0.723 . S
C1271 C372 0.736 . S
C1285 C460 0.731 . S
C1291 C557 0.669 . S
C1305 C293 1.034 . S
C1311 C57 1.002 . S
C1325 C409 0.985 . S
C1331 C108 1.024 . S
C1345 C497 0.994 . S
C1351 C205 1.038 . S
C1365 C577 1.039 . S
C1371 C812 0.987 . S
C1385 C636 0.984 . S
C1391 C929 1.036 . S
C1405 C733 1.029 . S
C1411 C1025 0.985 . S
C1425 C761 1.761 . S
C1431 C29 1.764 . S
C1445 C841 1.783 . S
C1451 C137 1.780 . S
C1465 C900 1.773 . S
C1471 C233 1.768 . S
C1485 C997 1.756 . S
C1491 C321 1.758 . S
C1505 C548 1.779 . S
C1511 C381 1.775 . S
C1525 C469 1.774 . S
C1531 C665 1.770 . S
