# Generated by pormake.
# Topology bcu, (8)-cn, num edge types: 1
# Building blocks:
#     Node 0, Type 0, BuildingBlock: TAGTUT_clean_sbu_3, # of connection points: 8
#     Node 1, Type 0, BuildingBlock: TAGTUT_clean_sbu_3, # of connection points: 8
#     Edge 2, Type (0, 0), BuildingBlock: UVAHIK_clean_linker_0, # of connection points: 2
#     Edge 3, Type (0, 0), BuildingBlock: UVAHIK_clean_linker_0, # of connection points: 2
#     Edge 4, Type (0, 0), BuildingBlock: UVAHIK_clean_linker_0, # of connection points: 2
#     Edge 5, Type (0, 0), BuildingBlock: UVAHIK_clean_linker_0, # of connection points: 2
#     Edge 6, Type (0, 0), BuildingBlock: UVAHIK_clean_linker_0, # of connection points: 2
#     Edge 7, Type (0, 0), BuildingBlock: UVAHIK_clean_linker_0, # of connection points: 2
#     Edge 8, Type (0, 0), BuildingBlock: UVAHIK_clean_linker_0, # of connection points: 2
#     Edge 9, Type (0, 0), BuildingBlock: UVAHIK_clean_linker_0, # of connection points: 2
# Relax obj value: 0.016
# Max RMSD: 0.069
# Mean RMSD: 0.069
data_MOF--net-bcu--node1-TAGTUT_clean_sbu_3--edge1-UVAHIK_clean_linker_0
_symmetry_space_group_name_H-M    P1
_symmetry_Int_Tables_number       1
_symmetry_cell_setting            triclinic
loop_
_symmetry_equiv_pos_as_xyz
'x, y, z'
_cell_length_a     24.112859
_cell_length_b     24.356151
_cell_length_c     26.863303
_cell_angle_alpha  90.746324
_cell_angle_beta   89.453831
_cell_angle_gamma 103.68346
loop_
_atom_site_label
_atom_site_type_symbol
_atom_site_fract_x
_atom_site_fract_y
_atom_site_fract_z
_atom_type_partial_charge
C0 C 0.11836 0.05976 0.03708 0.0
C1 C 0.16598 0.87239 -0.01361 0.0
C2 C 0.0688 0.8793 0.85319 0.0
Mg3 Mg 0.00976 0.11206 0.01486 0.0
Mg4 Mg 0.88308 0.03006 -0.00514 0.0
O5 O 0.96 0.04789 0.97688 0.0
Mg6 Mg 0.00733 0.9908 0.97739 0.0
O7 O 0.06081 0.93949 0.97768 0.0
Mg8 Mg 0.12583 0.98356 0.93694 0.0
Mg9 Mg 0.03762 0.86254 0.96249 0.0
C10 C 0.8881 0.92763 0.92179 0.0
O11 O 0.95368 0.93271 0.0362 0.0
O12 O 0.95059 0.16748 -0.01553 0.0
O13 O 0.96265 0.84639 0.00992 0.0
O14 O 0.95358 0.09571 0.08684 0.0
O15 O 0.86587 0.10749 0.96897 0.0
O16 O 0.87454 0.02843 0.07408 0.0
O17 O 0.06433 0.04068 0.9162 0.0
O18 O 0.06307 0.12715 0.94418 0.0
C19 C 0.07944 0.09455 0.91248 0.0
C20 C 0.899 0.15715 0.96831 0.0
O21 O 0.94306 0.93774 0.92181 0.0
O22 O 0.17861 0.92242 0.96801 0.0
O23 O 0.85951 0.95418 0.94988 0.0
O24 O 0.10295 0.92533 0.86738 0.0
O25 O 0.11463 0.84219 -0.01207 0.0
O26 O 0.03315 0.84971 0.88339 0.0
O27 O 0.06374 0.04781 0.03548 0.0
O28 O 0.14773 0.03934 0.00508 0.0
C29 C 0.90675 0.064 0.10278 0.0
C30 C 0.93988 0.8783 0.038 0.0
C31 C 0.58891 0.58712 0.54497 0.0
C32 C 0.64601 0.39709 0.58357 0.0
C33 C 0.60695 0.35726 0.42831 0.0
Mg34 Mg 0.4964 0.61412 0.46908 0.0
Mg35 Mg 0.38372 0.5162 0.43844 0.0
O36 O 0.46351 0.53669 0.4405 0.0
Mg37 Mg 0.50608 0.49038 0.47923 0.0
O38 O 0.55408 0.44944 0.51792 0.0
Mg39 Mg 0.63198 0.48386 0.4898 0.0
Mg40 Mg 0.53536 0.3704 0.5195 0.0
C41 C 0.41393 0.39746 0.41595 0.0
O42 O 0.42982 0.4495 0.52966 0.0
O43 O 0.45105 0.64778 0.40289 0.0
O44 O 0.44546 0.36156 0.53545 0.0
O45 O 0.41838 0.61513 0.51943 0.0
O46 O 0.37725 0.57588 0.38174 0.0
O47 O 0.34654 0.54061 0.50591 0.0
O48 O 0.58497 0.52411 0.43045 0.0
O49 O 0.57449 0.61247 0.42199 0.0
C50 C 0.60244 0.57452 0.41438 0.0
C51 C 0.40821 0.62587 0.37485 0.0
O52 O 0.46679 0.41476 0.42813 0.0
O53 O 0.6672 0.43973 0.55569 0.0
O54 O 0.37719 0.42778 0.42121 0.0
O55 O 0.63504 0.40738 0.43884 0.0
O56 O 0.59592 0.36547 0.57657 0.0
O57 O 0.56148 0.33458 0.45204 0.0
O58 O 0.53822 0.56852 0.52851 0.0
O59 O 0.62818 0.56053 0.53748 0.0
C60 C 0.36823 0.5861 0.5297 0.0
C61 C 0.41364 0.39681 0.54079 0.0
C62 C 0.20945 0.11085 0.07525 0.0
C63 C 0.14963 0.09346 0.07837 0.0
C64 C 0.24123 0.13564 0.11591 0.0
C65 C 0.29721 0.21424 0.19676 0.0
H66 H 0.25663 0.15736 0.32963 0.0
C67 C 0.33574 0.31403 0.39724 0.0
C68 C 0.39359 0.34171 0.39237 0.0
C69 C 0.31161 0.26943 0.3655 0.0
C70 C 0.26868 0.17318 0.29261 0.0
H71 H 0.07597 0.09056 0.12607 0.0
H72 H 0.13204 0.13597 0.19748 0.0
H73 H 0.19924 0.11355 0.25859 0.0
H74 H 0.47341 0.34035 0.35526 0.0
H75 H 0.43086 0.26215 0.29888 0.0
H76 H 0.36564 0.27451 0.23043 0.0
C77 C 0.15409 0.12887 0.16356 0.0
C78 C 0.23551 0.14866 0.25213 0.0
C79 C 0.122 0.10363 0.12259 0.0
C80 C 0.42853 0.32 0.35924 0.0
C81 C 0.40417 0.27551 0.32699 0.0
C82 C 0.33041 0.23842 0.23702 0.0
C83 C 0.21411 0.14438 0.16069 0.0
C84 C 0.24906 0.16953 0.20389 0.0
C85 C 0.34491 0.2521 0.3281 0.0
C86 C 0.31601 0.21879 0.28543 0.0
H87 H 0.23222 0.10384 0.0417 0.0
H88 H 0.28734 0.14651 0.11259 0.0
H89 H 0.30834 0.23181 0.16017 0.0
H90 H 0.30815 0.32945 0.42327 0.0
H91 H 0.26589 0.25231 0.36731 0.0
C92 C 0.90842 0.12837 0.1765 0.0
C93 C 0.88303 0.07779 0.15136 0.0
C94 C 0.87832 0.15034 0.21346 0.0
C95 C 0.72869 0.14621 0.24741 0.0
H96 H 0.79933 0.24609 0.35432 0.0
C97 C 0.60525 0.26591 0.38244 0.0
C98 C 0.63231 0.32271 0.39269 0.0
C99 C 0.63356 0.23131 0.355 0.0
C100 C 0.77906 0.21848 0.32444 0.0
H101 H 0.80858 0.00735 0.14966 0.0
H102 H 0.75687 0.04487 0.21514 0.0
H103 H 0.85489 0.19003 0.30882 0.0
H104 H 0.7094 0.38819 0.37971 0.0
H105 H 0.75825 0.32804 0.3321 0.0
H106 H 0.65285 0.17506 0.2632 0.0
C107 C 0.79922 0.06867 0.20494 0.0
C108 C 0.81089 0.1863 0.29835 0.0
C109 C 0.82921 0.04683 0.16773 0.0
C110 C 0.68721 0.34464 0.37289 0.0
C111 C 0.71556 0.31003 0.34594 0.0
C112 C 0.6967 0.17808 0.27385 0.0
C113 C 0.8223 0.12199 0.2266 0.0
C114 C 0.78654 0.1506 0.25876 0.0
C115 C 0.68964 0.25269 0.33764 0.0
C116 C 0.72192 0.2155 0.31191 0.0
H117 H 0.94982 0.15339 0.16507 0.0
H118 H 0.89764 0.19153 0.22911 0.0
H119 H 0.7086 0.11995 0.21669 0.0
H120 H 0.56297 0.2476 0.39702 0.0
H121 H 0.61243 0.1873 0.34902 0.0
C122 C 0.87252 0.79294 0.07066 0.0
C123 C 0.90058 0.85005 0.07701 0.0
C124 C 0.84463 0.76203 0.11053 0.0
C125 C 0.78759 0.77369 0.23673 0.0
H126 H 0.81133 0.62222 0.24948 0.0
C127 C 0.69384 0.64336 0.4019 0.0
C128 C 0.65688 0.592 0.38802 0.0
C129 C 0.73542 0.67124 0.36883 0.0
C130 C 0.80453 0.66444 0.24637 0.0
H131 H 0.91837 0.92076 0.12899 0.0
H132 H 0.86984 0.86642 0.1992 0.0
H133 H 0.8552 0.68122 0.18011 0.0
H134 H 0.63739 0.52615 0.3317 0.0
H135 H 0.71003 0.57545 0.27295 0.0
H136 H 0.73651 0.75686 0.30253 0.0
C137 C 0.86933 0.84561 0.16328 0.0
C138 C 0.8292 0.69809 0.20657 0.0
C139 C 0.89694 0.87679 0.12311 0.0
C140 C 0.66591 0.56565 0.34302 0.0
C141 C 0.70731 0.59395 0.30951 0.0
C142 C 0.76325 0.74024 0.27658 0.0
C143 C 0.84455 0.78746 0.15768 0.0
C144 C 0.82026 0.75276 0.20099 0.0
C145 C 0.73996 0.6485 0.32113 0.0
C146 C 0.77105 0.68513 0.28155 0.0
H147 H 0.87392 0.7715 0.03523 0.0
H148 H 0.82431 0.71778 0.10468 0.0
H149 H 0.77937 0.81529 0.23313 0.0
H150 H 0.68756 0.66405 0.43676 0.0
H151 H 0.76102 0.71261 0.37909 0.0
C152 C 0.20084 0.79308 0.02301 0.0
C153 C 0.21042 0.8509 0.01232 0.0
C154 C 0.23669 0.77357 0.05535 0.0
C155 C 0.32705 0.82171 0.1632 0.0
H156 H 0.3578 0.67293 0.15054 0.0
C157 C 0.42457 0.7139 0.32254 0.0
C158 C 0.39516 0.65763 0.33133 0.0
C159 C 0.41271 0.74221 0.28021 0.0
C160 C 0.3496 0.71462 0.15462 0.0
H161 H 0.2672 0.93322 0.02514 0.0
H162 H 0.33009 0.89892 0.08182 0.0
H163 H 0.32076 0.71398 0.07948 0.0
H164 H 0.33001 0.58734 0.30224 0.0
H165 H 0.30966 0.6364 0.22932 0.0
H166 H 0.35428 0.82137 0.23897 0.0
C167 C 0.29446 0.86883 0.06531 0.0
C168 C 0.32843 0.73814 0.1139 0.0
C169 C 0.25875 0.88837 0.03247 0.0
C170 C 0.35365 0.63058 0.29692 0.0
C171 C 0.34226 0.65856 0.25468 0.0
C172 C 0.34841 0.79815 0.204 0.0
C173 C 0.28292 0.81139 0.07809 0.0
C174 C 0.31509 0.79114 0.11817 0.0
C175 C 0.37177 0.71454 0.2456 0.0
C176 C 0.35805 0.74354 0.20059 0.0
H177 H 0.1641 0.76307 0.00803 0.0
H178 H 0.22615 0.72915 0.06465 0.0
H179 H 0.31681 0.86243 0.16789 0.0
H180 H 0.45683 0.73601 0.34821 0.0
H181 H 0.43609 0.7854 0.27417 0.0
C182 C 0.12806 0.87964 0.77615 0.0
C183 C 0.0801 0.85367 0.80478 0.0
C184 C 0.14935 0.84917 0.73917 0.0
C185 C 0.15185 0.70107 0.71081 0.0
H186 H 0.24355 0.76912 0.59842 0.0
C187 C 0.27591 0.58115 0.57623 0.0
C188 C 0.33225 0.61027 0.56494 0.0
C189 C 0.2396 0.60788 0.60334 0.0
C190 C 0.21816 0.74959 0.62978 0.0
H191 H 0.01296 0.77722 0.81265 0.0
H192 H 0.04909 0.72473 0.74704 0.0
H193 H 0.18493 0.82242 0.64349 0.0
H194 H 0.39514 0.68961 0.57552 0.0
H195 H 0.33191 0.73579 0.62235 0.0
H196 H 0.18545 0.62821 0.69678 0.0
C197 C 0.07157 0.76802 0.75455 0.0
C198 C 0.18455 0.78013 0.65566 0.0
C199 C 0.05043 0.79842 0.79183 0.0
C200 C 0.35203 0.6658 0.58325 0.0
C201 C 0.31565 0.69259 0.60974 0.0
C202 C 0.18501 0.67029 0.68451 0.0
C203 C 0.12287 0.79212 0.72943 0.0
C204 C 0.15199 0.75685 0.69732 0.0
C205 C 0.25873 0.6644 0.61916 0.0
C206 C 0.21959 0.69478 0.64451 0.0
H207 H 0.15192 0.92221 0.78475 0.0
H208 H 0.18896 0.86938 0.72084 0.0
H209 H 0.12814 0.68191 0.7431 0.0
H210 H 0.25926 0.53835 0.56278 0.0
H211 H 0.19595 0.58508 0.61027 0.0
C212 C 0.32586 0.32077 0.54509 0.0
C213 C 0.35655 0.37414 0.56144 0.0
C214 C 0.28004 0.2906 0.57292 0.0
C215 C 0.19082 0.29445 0.68593 0.0
H216 H 0.22263 0.14777 0.70858 0.0
C217 C 0.13552 0.17937 0.86932 0.0
C218 C 0.11099 0.12099 0.86836 0.0
C219 C 0.15724 0.20737 0.82605 0.0
C220 C 0.21233 0.18802 0.70209 0.0
H221 H 0.36059 0.4408 0.61622 0.0
H222 H 0.28125 0.38732 0.66626 0.0
H223 H 0.2688 0.20496 0.63972 0.0
H224 H 0.09248 0.04554 0.82179 0.0
H225 H 0.13128 0.09486 0.74558 0.0
H226 H 0.13603 0.27808 0.74983 0.0
C227 C 0.29185 0.36894 0.63157 0.0
C228 C 0.23859 0.22084 0.66249 0.0
C229 C 0.3373 0.39962 0.60309 0.0
C230 C 0.11131 0.09054 0.82362 0.0
C231 C 0.13316 0.11878 0.78005 0.0
C232 C 0.16454 0.26157 0.7256 0.0
C233 C 0.26502 0.31289 0.61814 0.0
C234 C 0.22928 0.27502 0.65475 0.0
C235 C 0.15499 0.17771 0.78075 0.0
C236 C 0.17643 0.2088 0.73489 0.0
H237 H 0.3398 0.30075 0.51257 0.0
H238 H 0.25914 0.24816 0.56095 0.0
H239 H 0.18234 0.33569 0.68053 0.0
H240 H 0.1366 0.20393 0.90337 0.0
H241 H 0.17547 0.25249 0.82804 0.0
C242 C 0.81985 0.19511 0.93403 0.0
C243 C 0.87851 0.20198 0.94255 0.0
C244 C 0.80047 0.23102 0.90196 0.0
C245 C 0.84747 0.31597 0.79153 0.0
H246 H 0.70063 0.35319 0.80798 0.0
C247 C 0.73636 0.41299 0.63413 0.0
C248 C 0.67884 0.38493 0.62689 0.0
C249 C 0.76599 0.40159 0.67599 0.0
C250 C 0.74179 0.34321 0.80287 0.0
H251 H 0.96269 0.25416 0.92622 0.0
H252 H 0.92864 0.31725 0.87007 0.0
H253 H 0.7435 0.31669 0.87834 0.0
H254 H 0.60756 0.32297 0.65836 0.0
H255 H 0.65891 0.30348 0.73059 0.0
H256 H 0.84471 0.34098 0.71549 0.0
C257 C 0.89775 0.28362 0.88803 0.0
C258 C 0.76635 0.32232 0.84316 0.0
C259 C 0.91719 0.24781 0.92056 0.0
C260 C 0.65178 0.34543 0.66246 0.0
C261 C 0.68108 0.33457 0.70428 0.0
C262 C 0.82292 0.33712 0.75118 0.0
C263 C 0.83925 0.27466 0.87737 0.0
C264 C 0.81854 0.30661 0.83754 0.0
C265 C 0.7384 0.36255 0.71169 0.0
C266 C 0.76891 0.3491 0.75602 0.0
H267 H 0.78888 0.16037 0.9505 0.0
H268 H 0.75519 0.22244 0.89433 0.0
H269 H 0.88749 0.30385 0.78577 0.0
H270 H 0.7585 0.44366 0.60749 0.0
H271 H 0.81021 0.42376 0.68075 0.0
C272 C 0.65974 0.67439 0.56736 0.0
C273 C 0.60445 0.64033 0.57312 0.0
C274 C 0.68169 0.71617 0.60236 0.0
C275 C 0.66924 0.73258 0.73487 0.0
H276 H 0.78772 0.86888 0.71347 0.0
C277 C 0.79665 0.86552 0.8933 0.0
C278 C 0.85526 0.88787 0.88508 0.0
C279 C 0.76227 0.83698 0.85537 0.0
C280 C 0.75501 0.83062 0.71984 0.0
H281 H 0.52624 0.62657 0.61631 0.0
H282 H 0.56493 0.70013 0.67842 0.0
H283 H 0.72725 0.82597 0.64415 0.0
H284 H 0.92469 0.89466 0.83188 0.0
H285 H 0.86426 0.84389 0.76526 0.0
H286 H 0.69781 0.73644 0.81022 0.0
C287 C 0.59138 0.69405 0.64698 0.0
C288 C 0.72007 0.80646 0.68039 0.0
C289 C 0.56913 0.65239 0.61142 0.0
C290 C 0.87962 0.87793 0.83918 0.0
C291 C 0.84499 0.84957 0.80096 0.0
C292 C 0.70403 0.75683 0.77432 0.0
C293 C 0.64881 0.72427 0.64399 0.0
C294 C 0.67769 0.75648 0.68726 0.0
C295 C 0.78577 0.83029 0.8084 0.0
C296 C 0.748 0.80536 0.7669 0.0
H297 H 0.68747 0.66604 0.53766 0.0
H298 H 0.72608 0.73848 0.59901 0.0
H299 H 0.63776 0.69342 0.74112 0.0
H300 H 0.7768 0.87211 0.92853 0.0
H301 H 0.71681 0.82255 0.86215 0.0
loop_
_geom_bond_atom_site_label_1
_geom_bond_atom_site_label_2
_geom_bond_distance
_geom_bond_site_symmetry_2
_ccdc_geom_bond_type
C0 O27 1.312 . S
C0 O28 1.208 . S
C1 O22 1.331 . S
C1 O25 1.244 . S
C2 O24 1.264 . S
C2 O26 1.273 . S
Mg3 O5 1.936 . S
Mg3 O12 2.081 . S
Mg3 O14 2.023 1_556 S
Mg3 O18 2.031 1_655 S
Mg3 O27 2.291 1_656 S
Mg4 O5 1.963 . S
Mg4 O15 1.942 . S
Mg4 O16 1.955 1_556 S
Mg4 O23 1.986 1_545 S
O5 Mg3 1.936 . S
O5 Mg4 1.963 . S
O5 Mg6 1.915 1_546 S
Mg6 O5 1.915 1_564 S
Mg6 O7 1.915 1_655 S
Mg6 O11 2.013 . S
Mg6 O17 2.114 1_664 S
Mg6 O21 2.013 1_554 S
Mg6 O27 2.114 1_665 S
O7 Mg6 1.915 1_455 S
O7 Mg8 1.936 . S
O7 Mg9 1.963 . S
Mg8 O7 1.936 . S
Mg8 O17 2.291 1_564 S
Mg8 O22 2.081 . S
Mg8 O24 2.023 1_554 S
Mg8 O28 2.031 1_565 S
Mg9 O7 1.963 . S
Mg9 O13 1.986 1_455 S
Mg9 O25 1.942 . S
Mg9 O26 1.955 1_554 S
C10 O21 1.191 . S
C10 O23 1.307 . S
O11 Mg6 2.013 . S
O11 C30 1.191 . S
O12 Mg3 2.081 . S
O12 C20 1.331 . S
O13 Mg9 1.986 1_655 S
O13 C30 1.307 . S
O14 Mg3 2.023 1_554 S
O14 C29 1.264 . S
O15 Mg4 1.942 . S
O15 C20 1.244 . S
O16 Mg4 1.955 1_554 S
O16 C29 1.273 . S
O17 Mg6 2.114 1_446 S
O17 Mg8 2.291 1_546 S
O17 C19 1.312 . S
O18 Mg3 2.031 1_455 S
O18 C19 1.208 . S
C19 O17 1.312 . S
C19 O18 1.208 . S
C20 O12 1.331 . S
C20 O15 1.244 . S
O21 Mg6 2.013 1_556 S
O21 C10 1.191 . S
O22 C1 1.331 . S
O22 Mg8 2.081 . S
O23 Mg4 1.986 1_565 S
O23 C10 1.307 . S
O24 C2 1.264 . S
O24 Mg8 2.023 1_556 S
O25 C1 1.244 . S
O25 Mg9 1.942 . S
O26 C2 1.273 . S
O26 Mg9 1.955 1_556 S
O27 C0 1.312 . S
O27 Mg3 2.291 1_454 S
O27 Mg6 2.114 1_445 S
O28 C0 1.208 . S
O28 Mg8 2.031 1_545 S
C29 O14 1.264 . S
C29 O16 1.273 . S
C30 O11 1.191 . S
C30 O13 1.307 . S
C31 O58 1.312 . S
C31 O59 1.208 . S
C32 O53 1.331 . S
C32 O56 1.244 . S
C33 O55 1.264 . S
C33 O57 1.273 . S
Mg34 O36 1.936 . S
Mg34 O43 2.081 . S
Mg34 O45 2.023 . S
Mg34 O49 2.031 . S
Mg34 O58 2.291 . S
Mg35 O36 1.963 . S
Mg35 O46 1.942 . S
Mg35 O47 1.955 . S
Mg35 O54 1.986 . S
O36 Mg34 1.936 . S
O36 Mg35 1.963 . S
O36 Mg37 1.915 . S
Mg37 O36 1.915 . S
Mg37 O38 1.915 . S
Mg37 O42 2.013 . S
Mg37 O48 2.114 . S
Mg37 O52 2.013 . S
Mg37 O58 2.114 . S
O38 Mg37 1.915 . S
O38 Mg39 1.936 . S
O38 Mg40 1.963 . S
Mg39 O38 1.936 . S
Mg39 O48 2.291 . S
Mg39 O53 2.081 . S
Mg39 O55 2.023 . S
Mg39 O59 2.031 . S
Mg40 O38 1.963 . S
Mg40 O44 1.986 . S
Mg40 O56 1.942 . S
Mg40 O57 1.955 . S
C41 O52 1.191 . S
C41 O54 1.307 . S
O42 Mg37 2.013 . S
O42 C61 1.191 . S
O43 Mg34 2.081 . S
O43 C51 1.331 . S
O44 Mg40 1.986 . S
O44 C61 1.307 . S
O45 Mg34 2.023 . S
O45 C60 1.264 . S
O46 Mg35 1.942 . S
O46 C51 1.244 . S
O47 Mg35 1.955 . S
O47 C60 1.273 . S
O48 Mg37 2.114 . S
O48 Mg39 2.291 . S
O48 C50 1.312 . S
O49 Mg34 2.031 . S
O49 C50 1.208 . S
C50 O48 1.312 . S
C50 O49 1.208 . S
C51 O43 1.331 . S
C51 O46 1.244 . S
O52 Mg37 2.013 . S
O52 C41 1.191 . S
O53 C32 1.331 . S
O53 Mg39 2.081 . S
O54 Mg35 1.986 . S
O54 C41 1.307 . S
O55 C33 1.264 . S
O55 Mg39 2.023 . S
O56 C32 1.244 . S
O56 Mg40 1.942 . S
O57 C33 1.273 . S
O57 Mg40 1.955 . S
O58 C31 1.312 . S
O58 Mg34 2.291 . S
O58 Mg37 2.114 . S
O59 C31 1.208 . S
O59 Mg39 2.031 . S
C60 O45 1.264 . S
C60 O47 1.273 . S
C61 O42 1.191 . S
C61 O44 1.307 . S
C62 C63 1.349 . S
C62 C64 1.327 . S
C62 H87 0.950 . S
C63 C62 1.349 . S
C63 C79 1.349 . S
C64 C62 1.327 . S
C64 C83 1.429 . S
C64 H88 0.950 . S
C65 C82 1.574 . S
C65 C84 1.368 . S
C65 H89 0.949 . S
H66 C70 0.949 . S
C67 C68 1.349 . S
C67 C69 1.327 . S
C67 H90 0.950 . S
C68 C67 1.349 . S
C68 C80 1.349 . S
C69 C67 1.327 . S
C69 C85 1.429 . S
C69 H91 0.950 . S
C70 H66 0.949 . S
C70 C78 1.574 . S
C70 C86 1.368 . S
H71 C79 0.950 . S
H72 C77 0.950 . S
H73 C78 0.949 . S
H74 C80 0.950 . S
H75 C81 0.950 . S
H76 C82 0.949 . S
C77 H72 0.950 . S
C77 C79 1.327 . S
C77 C83 1.429 . S
C78 C70 1.574 . S
C78 H73 0.949 . S
C78 C84 1.368 . S
C79 C63 1.349 . S
C79 H71 0.950 . S
C79 C77 1.327 . S
C80 C68 1.349 . S
C80 H74 0.950 . S
C80 C81 1.327 . S
C81 H75 0.950 . S
C81 C80 1.327 . S
C81 C85 1.429 . S
C82 C65 1.574 . S
C82 H76 0.949 . S
C82 C86 1.368 . S
C83 C64 1.429 . S
C83 C77 1.429 . S
C83 C84 1.523 . S
C84 C65 1.368 . S
C84 C78 1.368 . S
C84 C83 1.523 . S
C85 C69 1.429 . S
C85 C81 1.429 . S
C85 C86 1.523 . S
C86 C70 1.368 . S
C86 C82 1.368 . S
C86 C85 1.523 . S
H87 C62 0.950 . S
H88 C64 0.950 . S
H89 C65 0.949 . S
H90 C67 0.950 . S
H91 C69 0.950 . S
C92 C93 1.349 . S
C92 C94 1.327 . S
C92 H117 0.950 . S
C93 C92 1.349 . S
C93 C109 1.349 . S
C94 C92 1.327 . S
C94 C113 1.429 . S
C94 H118 0.950 . S
C95 C112 1.574 . S
C95 C114 1.368 . S
C95 H119 0.949 . S
H96 C100 0.949 . S
C97 C98 1.349 . S
C97 C99 1.327 . S
C97 H120 0.950 . S
C98 C97 1.349 . S
C98 C110 1.349 . S
C99 C97 1.327 . S
C99 C115 1.429 . S
C99 H121 0.950 . S
C100 H96 0.949 . S
C100 C108 1.574 . S
C100 C116 1.368 . S
H101 C109 0.950 . S
H102 C107 0.950 . S
H103 C108 0.949 . S
H104 C110 0.950 . S
H105 C111 0.950 . S
H106 C112 0.949 . S
C107 H102 0.950 . S
C107 C109 1.327 . S
C107 C113 1.429 . S
C108 C100 1.574 . S
C108 H103 0.949 . S
C108 C114 1.368 . S
C109 C93 1.349 . S
C109 H101 0.950 . S
C109 C107 1.327 . S
C110 C98 1.349 . S
C110 H104 0.950 . S
C110 C111 1.327 . S
C111 H105 0.950 . S
C111 C110 1.327 . S
C111 C115 1.429 . S
C112 C95 1.574 . S
C112 H106 0.949 . S
C112 C116 1.368 . S
C113 C94 1.429 . S
C113 C107 1.429 . S
C113 C114 1.523 . S
C114 C95 1.368 . S
C114 C108 1.368 . S
C114 C113 1.523 . S
C115 C99 1.429 . S
C115 C111 1.429 . S
C115 C116 1.523 . S
C116 C100 1.368 . S
C116 C112 1.368 . S
C116 C115 1.523 . S
H117 C92 0.950 . S
H118 C94 0.950 . S
H119 C95 0.949 . S
H120 C97 0.950 . S
H121 C99 0.950 . S
C122 C123 1.349 . S
C122 C124 1.327 . S
C122 H147 0.950 . S
C123 C122 1.349 . S
C123 C139 1.349 . S
C124 C122 1.327 . S
C124 C143 1.429 . S
C124 H148 0.950 . S
C125 C142 1.574 . S
C125 C144 1.368 . S
C125 H149 0.949 . S
H126 C130 0.949 . S
C127 C128 1.349 . S
C127 C129 1.327 . S
C127 H150 0.950 . S
C128 C127 1.349 . S
C128 C140 1.349 . S
C129 C127 1.327 . S
C129 C145 1.429 . S
C129 H151 0.950 . S
C130 H126 0.949 . S
C130 C138 1.574 . S
C130 C146 1.368 . S
H131 C139 0.950 . S
H132 C137 0.950 . S
H133 C138 0.949 . S
H134 C140 0.950 . S
H135 C141 0.950 . S
H136 C142 0.949 . S
C137 H132 0.950 . S
C137 C139 1.327 . S
C137 C143 1.429 . S
C138 C130 1.574 . S
C138 H133 0.949 . S
C138 C144 1.368 . S
C139 C123 1.349 . S
C139 H131 0.950 . S
C139 C137 1.327 . S
C140 C128 1.349 . S
C140 H134 0.950 . S
C140 C141 1.327 . S
C141 H135 0.950 . S
C141 C140 1.327 . S
C141 C145 1.429 . S
C142 C125 1.574 . S
C142 H136 0.949 . S
C142 C146 1.368 . S
C143 C124 1.429 . S
C143 C137 1.429 . S
C143 C144 1.523 . S
C144 C125 1.368 . S
C144 C138 1.368 . S
C144 C143 1.523 . S
C145 C129 1.429 . S
C145 C141 1.429 . S
C145 C146 1.523 . S
C146 C130 1.368 . S
C146 C142 1.368 . S
C146 C145 1.523 . S
H147 C122 0.950 . S
H148 C124 0.950 . S
H149 C125 0.949 . S
H150 C127 0.950 . S
H151 C129 0.950 . S
C152 C153 1.349 . S
C152 C154 1.327 . S
C152 H177 0.950 . S
C153 C152 1.349 . S
C153 C169 1.349 . S
C154 C152 1.327 . S
C154 C173 1.429 . S
C154 H178 0.950 . S
C155 C172 1.574 . S
C155 C174 1.368 . S
C155 H179 0.949 . S
H156 C160 0.949 . S
C157 C158 1.349 . S
C157 C159 1.327 . S
C157 H180 0.950 . S
C158 C157 1.349 . S
C158 C170 1.349 . S
C159 C157 1.327 . S
C159 C175 1.429 . S
C159 H181 0.950 . S
C160 H156 0.949 . S
C160 C168 1.574 . S
C160 C176 1.368 . S
H161 C169 0.950 . S
H162 C167 0.950 . S
H163 C168 0.949 . S
H164 C170 0.950 . S
H165 C171 0.950 . S
H166 C172 0.949 . S
C167 H162 0.950 . S
C167 C169 1.327 . S
C167 C173 1.429 . S
C168 C160 1.574 . S
C168 H163 0.949 . S
C168 C174 1.368 . S
C169 C153 1.349 . S
C169 H161 0.950 . S
C169 C167 1.327 . S
C170 C158 1.349 . S
C170 H164 0.950 . S
C170 C171 1.327 . S
C171 H165 0.950 . S
C171 C170 1.327 . S
C171 C175 1.429 . S
C172 C155 1.574 . S
C172 H166 0.949 . S
C172 C176 1.368 . S
C173 C154 1.429 . S
C173 C167 1.429 . S
C173 C174 1.523 . S
C174 C155 1.368 . S
C174 C168 1.368 . S
C174 C173 1.523 . S
C175 C159 1.429 . S
C175 C171 1.429 . S
C175 C176 1.523 . S
C176 C160 1.368 . S
C176 C172 1.368 . S
C176 C175 1.523 . S
H177 C152 0.950 . S
H178 C154 0.950 . S
H179 C155 0.949 . S
H180 C157 0.950 . S
H181 C159 0.950 . S
C182 C183 1.349 . S
C182 C184 1.327 . S
C182 H207 0.950 . S
C183 C182 1.349 . S
C183 C199 1.349 . S
C184 C182 1.327 . S
C184 C203 1.429 . S
C184 H208 0.950 . S
C185 C202 1.574 . S
C185 C204 1.368 . S
C185 H209 0.949 . S
H186 C190 0.949 . S
C187 C188 1.349 . S
C187 C189 1.327 . S
C187 H210 0.950 . S
C188 C187 1.349 . S
C188 C200 1.349 . S
C189 C187 1.327 . S
C189 C205 1.429 . S
C189 H211 0.950 . S
C190 H186 0.949 . S
C190 C198 1.574 . S
C190 C206 1.368 . S
H191 C199 0.950 . S
H192 C197 0.950 . S
H193 C198 0.949 . S
H194 C200 0.950 . S
H195 C201 0.950 . S
H196 C202 0.949 . S
C197 H192 0.950 . S
C197 C199 1.327 . S
C197 C203 1.429 . S
C198 C190 1.574 . S
C198 H193 0.949 . S
C198 C204 1.368 . S
C199 C183 1.349 . S
C199 H191 0.950 . S
C199 C197 1.327 . S
C200 C188 1.349 . S
C200 H194 0.950 . S
C200 C201 1.327 . S
C201 H195 0.950 . S
C201 C200 1.327 . S
C201 C205 1.429 . S
C202 C185 1.574 . S
C202 H196 0.949 . S
C202 C206 1.368 . S
C203 C184 1.429 . S
C203 C197 1.429 . S
C203 C204 1.523 . S
C204 C185 1.368 . S
C204 C198 1.368 . S
C204 C203 1.523 . S
C205 C189 1.429 . S
C205 C201 1.429 . S
C205 C206 1.523 . S
C206 C190 1.368 . S
C206 C202 1.368 . S
C206 C205 1.523 . S
H207 C182 0.950 . S
H208 C184 0.950 . S
H209 C185 0.949 . S
H210 C187 0.950 . S
H211 C189 0.950 . S
C212 C213 1.349 . S
C212 C214 1.327 . S
C212 H237 0.950 . S
C213 C212 1.349 . S
C213 C229 1.349 . S
C214 C212 1.327 . S
C214 C233 1.429 . S
C214 H238 0.950 . S
C215 C232 1.574 . S
C215 C234 1.368 . S
C215 H239 0.949 . S
H216 C220 0.949 . S
C217 C218 1.349 . S
C217 C219 1.327 . S
C217 H240 0.950 . S
C218 C217 1.349 . S
C218 C230 1.349 . S
C219 C217 1.327 . S
C219 C235 1.429 . S
C219 H241 0.950 . S
C220 H216 0.949 . S
C220 C228 1.574 . S
C220 C236 1.368 . S
H221 C229 0.950 . S
H222 C227 0.950 . S
H223 C228 0.949 . S
H224 C230 0.950 . S
H225 C231 0.950 . S
H226 C232 0.949 . S
C227 H222 0.950 . S
C227 C229 1.327 . S
C227 C233 1.429 . S
C228 C220 1.574 . S
C228 H223 0.949 . S
C228 C234 1.368 . S
C229 C213 1.349 . S
C229 H221 0.950 . S
C229 C227 1.327 . S
C230 C218 1.349 . S
C230 H224 0.950 . S
C230 C231 1.327 . S
C231 H225 0.950 . S
C231 C230 1.327 . S
C231 C235 1.429 . S
C232 C215 1.574 . S
C232 H226 0.949 . S
C232 C236 1.368 . S
C233 C214 1.429 . S
C233 C227 1.429 . S
C233 C234 1.523 . S
C234 C215 1.368 . S
C234 C228 1.368 . S
C234 C233 1.523 . S
C235 C219 1.429 . S
C235 C231 1.429 . S
C235 C236 1.523 . S
C236 C220 1.368 . S
C236 C232 1.368 . S
C236 C235 1.523 . S
H237 C212 0.950 . S
H238 C214 0.950 . S
H239 C215 0.949 . S
H240 C217 0.950 . S
H241 C219 0.950 . S
C242 C243 1.349 . S
C242 C244 1.327 . S
C242 H267 0.950 . S
C243 C242 1.349 . S
C243 C259 1.349 . S
C244 C242 1.327 . S
C244 C263 1.429 . S
C244 H268 0.950 . S
C245 C262 1.574 . S
C245 C264 1.368 . S
C245 H269 0.949 . S
H246 C250 0.949 . S
C247 C248 1.349 . S
C247 C249 1.327 . S
C247 H270 0.950 . S
C248 C247 1.349 . S
C248 C260 1.349 . S
C249 C247 1.327 . S
C249 C265 1.429 . S
C249 H271 0.950 . S
C250 H246 0.949 . S
C250 C258 1.574 . S
C250 C266 1.368 . S
H251 C259 0.950 . S
H252 C257 0.950 . S
H253 C258 0.949 . S
H254 C260 0.950 . S
H255 C261 0.950 . S
H256 C262 0.949 . S
C257 H252 0.950 . S
C257 C259 1.327 . S
C257 C263 1.429 . S
C258 C250 1.574 . S
C258 H253 0.949 . S
C258 C264 1.368 . S
C259 C243 1.349 . S
C259 H251 0.950 . S
C259 C257 1.327 . S
C260 C248 1.349 . S
C260 H254 0.950 . S
C260 C261 1.327 . S
C261 H255 0.950 . S
C261 C260 1.327 . S
C261 C265 1.429 . S
C262 C245 1.574 . S
C262 H256 0.949 . S
C262 C266 1.368 . S
C263 C244 1.429 . S
C263 C257 1.429 . S
C263 C264 1.523 . S
C264 C245 1.368 . S
C264 C258 1.368 . S
C264 C263 1.523 . S
C265 C249 1.429 . S
C265 C261 1.429 . S
C265 C266 1.523 . S
C266 C250 1.368 . S
C266 C262 1.368 . S
C266 C265 1.523 . S
H267 C242 0.950 . S
H268 C244 0.950 . S
H269 C245 0.949 . S
H270 C247 0.950 . S
H271 C249 0.950 . S
C272 C273 1.349 . S
C272 C274 1.327 . S
C272 H297 0.950 . S
C273 C272 1.349 . S
C273 C289 1.349 . S
C274 C272 1.327 . S
C274 C293 1.429 . S
C274 H298 0.950 . S
C275 C292 1.574 . S
C275 C294 1.368 . S
C275 H299 0.949 . S
H276 C280 0.949 . S
C277 C278 1.349 . S
C277 C279 1.327 . S
C277 H300 0.950 . S
C278 C277 1.349 . S
C278 C290 1.349 . S
C279 C277 1.327 . S
C279 C295 1.429 . S
C279 H301 0.950 . S
C280 H276 0.949 . S
C280 C288 1.574 . S
C280 C296 1.368 . S
H281 C289 0.950 . S
H282 C287 0.950 . S
H283 C288 0.949 . S
H284 C290 0.950 . S
H285 C291 0.950 . S
H286 C292 0.949 . S
C287 H282 0.950 . S
C287 C289 1.327 . S
C287 C293 1.429 . S
C288 C280 1.574 . S
C288 H283 0.949 . S
C288 C294 1.368 . S
C289 C273 1.349 . S
C289 H281 0.950 . S
C289 C287 1.327 . S
C290 C278 1.349 . S
C290 H284 0.950 . S
C290 C291 1.327 . S
C291 H285 0.950 . S
C291 C290 1.327 . S
C291 C295 1.429 . S
C292 C275 1.574 . S
C292 H286 0.949 . S
C292 C296 1.368 . S
C293 C274 1.429 . S
C293 C287 1.429 . S
C293 C294 1.523 . S
C294 C275 1.368 . S
C294 C288 1.368 . S
C294 C293 1.523 . S
C295 C279 1.429 . S
C295 C291 1.429 . S
C295 C296 1.523 . S
C296 C280 1.368 . S
C296 C292 1.368 . S
C296 C295 1.523 . S
H297 C272 0.950 . S
H298 C274 0.950 . S
H299 C275 0.949 . S
H300 C277 0.950 . S
H301 C279 0.950 . S
C63 C0 1.122 . S
C68 C41 1.134 . S
C93 C29 1.800 . S
C98 C33 1.798 . S
C123 C30 1.138 . S
C128 C50 1.121 . S
C153 C1 1.657 . S
C158 C51 1.656 . S
C183 C2 1.800 . S
C188 C60 1.801 . S
C213 C61 1.138 . S
C218 C19 1.123 . S
C243 C20 1.657 . S
C248 C32 1.659 . S
C273 C31 1.122 . S
C278 C10 1.142 . S
