# Generated by pormake.
# Topology snk, (6)-cn, num edge types: 1
# Building blocks:
#     Node 0, Type 0, BuildingBlock: BETDIP_clean_sbu_0, # of connection points: 6
#     Node 1, Type 0, BuildingBlock: BETDIP_clean_sbu_0, # of connection points: 6
#     Node 2, Type 0, BuildingBlock: BETDIP_clean_sbu_0, # of connection points: 6
#     Node 3, Type 0, BuildingBlock: BETDIP_clean_sbu_0, # of connection points: 6
#     Node 4, Type 0, BuildingBlock: BETDIP_clean_sbu_0, # of connection points: 6
#     Node 5, Type 0, BuildingBlock: BETDIP_clean_sbu_0, # of connection points: 6
#     Node 6, Type 0, BuildingBlock: BETDIP_clean_sbu_0, # of connection points: 6
#     Node 7, Type 0, BuildingBlock: BETDIP_clean_sbu_0, # of connection points: 6
#     Edge 8, Type (0, 0), BuildingBlock: UVAHIK_clean_linker_0, # of connection points: 2
#     Edge 9, Type (0, 0), BuildingBlock: UVAHIK_clean_linker_0, # of connection points: 2
#     Edge 10, Type (0, 0), BuildingBlock: UVAHIK_clean_linker_0, # of connection points: 2
#     Edge 11, Type (0, 0), BuildingBlock: UVAHIK_clean_linker_0, # of connection points: 2
#     Edge 12, Type (0, 0), BuildingBlock: UVAHIK_clean_linker_0, # of connection points: 2
#     Edge 13, Type (0, 0), BuildingBlock: UVAHIK_clean_linker_0, # of connection points: 2
#     Edge 14, Type (0, 0), BuildingBlock: UVAHIK_clean_linker_0, # of connection points: 2
#     Edge 15, Type (0, 0), BuildingBlock: UVAHIK_clean_linker_0, # of connection points: 2
#     Edge 16, Type (0, 0), BuildingBlock: UVAHIK_clean_linker_0, # of connection points: 2
#     Edge 17, Type (0, 0), BuildingBlock: UVAHIK_clean_linker_0, # of connection points: 2
#     Edge 18, Type (0, 0), BuildingBlock: UVAHIK_clean_linker_0, # of connection points: 2
#     Edge 19, Type (0, 0), BuildingBlock: UVAHIK_clean_linker_0, # of connection points: 2
#     Edge 20, Type (0, 0), BuildingBlock: UVAHIK_clean_linker_0, # of connection points: 2
#     Edge 21, Type (0, 0), BuildingBlock: UVAHIK_clean_linker_0, # of connection points: 2
#     Edge 22, Type (0, 0), BuildingBlock: UVAHIK_clean_linker_0, # of connection points: 2
#     Edge 23, Type (0, 0), BuildingBlock: UVAHIK_clean_linker_0, # of connection points: 2
#     Edge 24, Type (0, 0), BuildingBlock: UVAHIK_clean_linker_0, # of connection points: 2
#     Edge 25, Type (0, 0), BuildingBlock: UVAHIK_clean_linker_0, # of connection points: 2
#     Edge 26, Type (0, 0), BuildingBlock: UVAHIK_clean_linker_0, # of connection points: 2
#     Edge 27, Type (0, 0), BuildingBlock: UVAHIK_clean_linker_0, # of connection points: 2
#     Edge 28, Type (0, 0), BuildingBlock: UVAHIK_clean_linker_0, # of connection points: 2
#     Edge 29, Type (0, 0), BuildingBlock: UVAHIK_clean_linker_0, # of connection points: 2
#     Edge 30, Type (0, 0), BuildingBlock: UVAHIK_clean_linker_0, # of connection points: 2
#     Edge 31, Type (0, 0), BuildingBlock: UVAHIK_clean_linker_0, # of connection points: 2
# Relax obj value: 0.083
# Max RMSD: 0.140
# Mean RMSD: 0.123
data_MOF--net-snk--node1-BETDIP_clean_sbu_0--edge1-UVAHIK_clean_linker_0
_symmetry_space_group_name_H-M    P1
_symmetry_Int_Tables_number       1
_symmetry_cell_setting            triclinic
loop_
_symmetry_equiv_pos_as_xyz
'x, y, z'
_cell_length_a     49.771325
_cell_length_b     49.494306
_cell_length_c     29.793201
_cell_angle_alpha  96.599332
_cell_angle_beta   96.765466
_cell_angle_gamma 90.982554
loop_
_atom_site_label
_atom_site_type_symbol
_atom_site_fract_x
_atom_site_fract_y
_atom_site_fract_z
_atom_type_partial_charge
Tb0 Tb 0.99574 0.99247 0.46604 0.0
Tb1 Tb 0.01517 0.02083 0.55963 0.0
C2 C 0.97826 0.98009 0.38322 0.0
C3 C 0.9828 0.98741 0.33809 0.0
C4 C 0.96079 0.98627 0.30391 0.0
C5 C 0.96461 0.99117 0.25981 0.0
C6 C 0.99062 0.99732 0.24895 0.0
C7 C 0.01261 0.99908 0.28366 0.0
C8 C 0.00873 0.99419 0.32787 0.0
C9 C 0.02886 0.9646 0.51722 0.0
C10 C 0.04464 0.03696 0.47972 0.0
C11 C 0.03238 0.03337 0.64252 0.0
C12 C 0.0281 0.02567 0.68754 0.0
C13 C 0.05019 0.02693 0.72159 0.0
C14 C 0.04655 0.0218 0.76567 0.0
C15 C 0.02065 0.01533 0.77662 0.0
C16 C 0.99859 0.0134 0.74202 0.0
C17 C 1.00229 0.01849 0.69784 0.0
C18 C 0.98177 0.04849 0.50838 0.0
C19 C 0.96634 0.97627 0.54588 0.0
O20 O 0.9675 0.99852 0.41011 0.0
O21 O 0.99769 0.96745 0.40496 0.0
O22 O 0.03055 0.98986 0.51498 0.0
O23 O 0.0091 0.95386 0.48812 0.0
O24 O 0.02497 0.02332 0.45186 0.0
O25 O 0.04688 0.03629 0.52428 0.0
O26 O 0.04371 0.01546 0.61554 0.0
O27 O 0.01253 0.04549 0.62083 0.0
O28 O 0.98025 0.02327 0.51091 0.0
O29 O 1.00156 0.05934 0.53731 0.0
O30 O 0.98617 0.98968 0.57375 0.0
O31 O 0.96395 0.97726 0.5014 0.0
H32 H 0.94064 0.98098 0.31111 0.0
H33 H 0.94728 0.98931 0.23389 0.0
H34 H 0.03283 1.00411 0.2766 0.0
H35 H 0.02602 0.99526 0.35381 0.0
H36 H 0.07025 0.03251 0.71434 0.0
H37 H 0.06391 0.02378 0.79152 0.0
H38 H 0.97845 0.0081 0.74916 0.0
H39 H 0.98493 0.01731 0.67201 0.0
Tb40 Tb 0.23679 0.74135 0.77069 0.0
Tb41 Tb 0.23018 0.77097 0.86466 0.0
C42 C 0.22974 0.71604 0.69156 0.0
C43 C 0.22736 0.72264 0.64422 0.0
C44 C 0.21823 0.70243 0.60854 0.0
C45 C 0.21789 0.70748 0.5632 0.0
C46 C 0.22677 0.7329 0.55253 0.0
C47 C 0.23526 0.75338 0.58858 0.0
C48 C 0.23555 0.74829 0.63399 0.0
C49 C 0.27247 0.78101 0.80155 0.0
C50 C 0.19933 0.79313 0.77986 0.0
C51 C 0.23669 0.79588 0.94414 0.0
C52 C 0.23865 0.78924 0.99141 0.0
C53 C 0.24782 0.80935 0.02721 0.0
C54 C 0.2481 0.80421 0.07248 0.0
C55 C 0.23913 0.77878 0.08297 0.0
C56 C 0.23054 0.75841 0.04679 0.0
C57 C 0.2303 0.7636 1.00144 0.0
C58 C 0.1945 0.73138 0.83327 0.0
C59 C 0.26847 0.7196 0.85466 0.0
O60 O 0.20987 0.72314 0.71519 0.0
O61 O 0.25346 0.72125 0.71529 0.0
O62 O 0.24799 0.78033 0.80699 0.0
O63 O 0.27737 0.76023 0.77361 0.0
O64 O 0.20416 0.76973 0.75608 0.0
O65 O 0.21196 0.80029 0.82144 0.0
O66 O 0.25672 0.78864 0.92105 0.0
O67 O 0.21311 0.79088 0.91984 0.0
O68 O 0.21911 0.732 0.82866 0.0
O69 O 0.18924 0.75261 0.85989 0.0
O70 O 0.2632 0.74272 0.87894 0.0
O71 O 0.25576 0.7124 0.81326 0.0
H72 H 0.21177 0.68252 0.61575 0.0
H73 H 0.21075 0.69139 0.53647 0.0
H74 H 0.24245 0.7731 0.58179 0.0
H75 H 0.24273 0.76416 0.6611 0.0
H76 H 0.25443 0.82924 0.02015 0.0
H77 H 0.25533 0.82021 0.0993 0.0
H78 H 0.22328 0.73869 0.05347 0.0
H79 H 0.22311 0.74779 0.97423 0.0
Tb80 Tb 0.51845 1.00419 0.05902 0.0
Tb81 Tb 0.4938 0.01059 0.96094 0.0
C82 C 0.54536 1.00257 0.13578 0.0
C83 C 0.53939 1.00211 0.18295 0.0
C84 C 0.56077 1.00249 0.21811 0.0
C85 C 0.55555 1.00226 0.26321 0.0
C86 C 0.52878 1.00165 0.27409 0.0
C87 C 0.50737 1.00135 0.23855 0.0
C88 C 0.51264 1.00159 0.1934 0.0
C89 C 0.47564 0.97326 0.02616 0.0
C90 C 0.46856 0.04048 0.04649 0.0
C91 C 0.46557 0.01028 0.885 0.0
C92 C 0.47084 0.00768 0.83708 0.0
C93 C 0.44909 1.00644 0.80241 0.0
C94 C 0.45375 1.00503 0.75678 0.0
C95 C 0.48032 1.00489 0.74489 0.0
C96 C 0.50209 1.00578 0.77992 0.0
C97 C 0.49738 1.00716 0.82557 0.0
C98 C 0.53725 0.04087 0.99149 0.0
C99 C 0.54475 0.97551 0.97388 0.0
O100 O 0.53991 0.02511 0.11798 0.0
O101 O 0.53756 0.98092 0.10736 0.0
O102 O 0.49455 0.97988 1.00511 0.0
O103 O 0.48103 0.98248 0.06877 0.0
O104 O 0.49082 0.03629 0.07328 0.0
O105 O 0.46403 0.02913 1.00355 0.0
O106 O 0.46943 0.98858 0.90605 0.0
O107 O 0.4754 0.03249 0.91017 0.0
O108 O 0.51884 0.03451 1.01411 0.0
O109 O 0.53002 0.03314 0.94868 0.0
O110 O 0.5225 0.97936 0.94666 0.0
O111 O 0.54892 0.98679 0.01692 0.0
H112 H 0.58155 1.00307 0.21071 0.0
H113 H 0.57254 1.00296 0.28965 0.0
H114 H 0.48652 1.00058 0.24551 0.0
H115 H 0.49585 1.00133 0.16665 0.0
H116 H 0.42846 1.00674 0.81064 0.0
H117 H 0.43649 1.00392 0.73079 0.0
H118 H 0.5228 1.006 0.77217 0.0
H119 H 0.51446 0.00814 0.85194 0.0
Tb120 Tb 0.26519 0.26701 0.30233 0.0
Tb121 Tb 0.24044 0.24386 0.20807 0.0
C122 C 0.27314 0.28878 0.38363 0.0
C123 C 0.26962 0.28287 0.43003 0.0
C124 C 0.24619 0.26961 0.43984 0.0
C125 C 0.24323 0.26533 0.48473 0.0
C126 C 0.26361 0.2743 0.52056 0.0
C127 C 0.28717 0.28717 0.51025 0.0
C128 C 0.29009 0.29141 0.46552 0.0
C129 C 0.29331 0.22944 0.26083 0.0
C130 C 0.22175 0.21711 0.28965 0.0
C131 C 0.23169 0.22281 0.12637 0.0
C132 C 0.23477 0.22917 0.08004 0.0
C133 C 0.25806 0.24258 0.07 0.0
C134 C 0.26074 0.24706 0.02512 0.0
C135 C 0.24022 0.23816 0.9895 0.0
C136 C 0.21677 0.22521 1.00004 0.0
C137 C 0.21412 0.22075 0.04479 0.0
C138 C 0.21262 0.28143 0.25022 0.0
C139 C 0.2845 0.29335 0.221 0.0
O140 O 0.25124 0.29195 0.35595 0.0
O141 O 0.29126 0.27479 0.36339 0.0
O142 O 0.26794 0.22957 0.25941 0.0
O143 O 0.30395 0.24969 0.28908 0.0
O144 O 0.23449 0.23766 0.31691 0.0
O145 O 0.2243 0.2133 0.24563 0.0
O146 O 0.25383 0.21949 0.15331 0.0
O147 O 0.21379 0.23657 0.14753 0.0
O148 O 0.2379 0.28128 0.25073 0.0
O149 O 0.20175 0.26094 0.2228 0.0
O150 O 0.27146 0.27303 0.19356 0.0
O151 O 0.2819 0.29718 0.26495 0.0
H152 H 0.23008 0.26286 0.413 0.0
H153 H 0.22475 0.25554 0.49149 0.0
H154 H 0.30347 0.29389 0.53677 0.0
H155 H 0.30836 0.3016 0.45865 0.0
H156 H 0.27431 0.24923 0.09666 0.0
H157 H 0.27915 0.25692 0.01818 0.0
H158 H 0.20036 0.21854 0.97368 0.0
H159 H 0.19596 0.21045 0.05183 0.0
Tb160 Tb 0.77255 0.24391 0.17961 0.0
Tb161 Tb 0.76488 0.27419 0.27267 0.0
C162 C 0.76635 0.21888 0.10018 0.0
C163 C 0.76441 0.22546 0.05285 0.0
C164 C 0.75523 0.20532 0.0171 0.0
C165 C 0.7549 0.21042 0.97178 0.0
C166 C 0.76382 0.23584 0.96119 0.0
C167 C 0.77243 0.25624 0.99732 0.0
C168 C 0.77273 0.25109 0.04271 0.0
C169 C 0.809 0.28238 0.21229 0.0
C170 C 0.73559 0.29649 0.18732 0.0
C171 C 0.77098 0.29923 0.35204 0.0
C172 C 0.77351 0.29252 0.39936 0.0
C173 C 0.78255 0.31273 0.43511 0.0
C174 C 0.78304 0.30757 0.48043 0.0
C175 C 0.77442 0.28206 0.49106 0.0
C176 C 0.76603 0.26158 0.45494 0.0
C177 C 0.76558 0.26677 0.40954 0.0
C178 C 0.72854 0.2355 0.23957 0.0
C179 C 0.80137 0.22145 0.26564 0.0
O180 O 0.74622 0.22603 0.12311 0.0
O181 O 0.78986 0.22404 0.12463 0.0
O182 O 0.78423 0.2828 0.21587 0.0
O183 O 0.81398 0.26092 0.18594 0.0
O184 O 0.74083 0.27319 0.16354 0.0
O185 O 0.74752 0.30353 0.22932 0.0
O186 O 0.79113 0.29297 0.32861 0.0
O187 O 0.74745 0.29336 0.32801 0.0
O188 O 0.75332 0.23544 0.23629 0.0
O189 O 0.72341 0.25683 0.26615 0.0
O190 O 0.79634 0.2449 0.28908 0.0
O191 O 0.78959 0.21442 0.22348 0.0
H192 H 0.74863 0.18544 0.02423 0.0
H193 H 0.74765 0.19439 0.94502 0.0
H194 H 0.77966 0.27596 0.99058 0.0
H195 H 0.77992 0.26693 0.06987 0.0
H196 H 0.78882 0.33271 0.42797 0.0
H197 H 0.79013 0.32367 0.50719 0.0
H198 H 0.75903 0.24178 0.46168 0.0
H199 H 0.75849 0.25088 0.3824 0.0
Tb200 Tb 0.77129 0.76851 0.81595 0.0
Tb201 Tb 0.74598 0.74544 0.72204 0.0
C202 C 0.78064 0.78913 0.89781 0.0
C203 C 0.77717 0.78274 0.944 0.0
C204 C 0.75272 0.77186 0.95453 0.0
C205 C 0.74982 0.76747 0.99938 0.0
C206 C 0.7713 0.77387 0.03447 0.0
C207 C 0.79588 0.78418 0.02338 0.0
C208 C 0.79873 0.7886 0.9787 0.0
C209 C 0.79934 0.73169 0.77276 0.0
C210 C 0.72755 0.71882 0.80364 0.0
C211 C 0.73726 0.72427 0.64047 0.0
C212 C 0.74082 0.73043 0.59419 0.0
C213 C 0.76526 0.74134 0.58367 0.0
C214 C 0.76819 0.74563 0.53878 0.0
C215 C 0.74676 0.73909 0.50364 0.0
C216 C 0.72219 0.72872 0.51472 0.0
C217 C 0.71932 0.72439 0.55943 0.0
C218 C 0.71788 0.78246 0.76492 0.0
C219 C 0.78917 0.79558 0.73426 0.0
O220 O 0.75879 0.79347 0.87089 0.0
O221 O 0.79803 0.77471 0.87648 0.0
O222 O 0.77405 0.73126 0.77269 0.0
O223 O 0.81003 0.75233 0.8 0.0
O224 O 0.74054 0.73926 0.83083 0.0
O225 O 0.72989 0.71499 0.75958 0.0
O226 O 0.75906 0.72027 0.66782 0.0
O227 O 0.71958 0.73861 0.66124 0.0
O228 O 0.74319 0.78264 0.76532 0.0
O229 O 0.7072 0.76205 0.73706 0.0
O230 O 0.7764 0.77499 0.70712 0.0
O231 O 0.78692 0.7993 0.77839 0.0
H232 H 0.73576 0.76713 0.92832 0.0
H233 H 0.73055 0.75969 1.00672 0.0
H234 H 0.81302 0.78882 0.04927 0.0
H235 H 0.8178 0.7969 0.9713 0.0
H236 H 0.78218 0.74621 0.60993 0.0
H237 H 0.78745 0.75347 0.53145 0.0
H238 H 0.70509 0.72398 0.48881 0.0
H239 H 0.70026 0.71607 0.56683 0.0
Tb240 Tb 0.49213 0.49887 0.96648 0.0
Tb241 Tb 0.51721 0.51822 0.06242 0.0
C242 C 0.46882 0.49662 0.88629 0.0
C243 C 0.47524 0.50056 0.84049 0.0
C244 C 0.45404 0.50423 0.80666 0.0
C245 C 0.45929 0.50686 0.76229 0.0
C246 C 0.48591 0.50584 0.75084 0.0
C247 C 0.50723 0.50254 0.78514 0.0
C248 C 0.50194 0.5 0.82967 0.0
C249 C 0.53075 0.46843 0.99972 0.0
C250 C 0.54246 0.54193 0.98333 0.0
C251 C 0.54042 0.52063 0.14271 0.0
C252 C 0.534 0.51665 0.18848 0.0
C253 C 0.5552 0.51296 0.2223 0.0
C254 C 0.54996 0.51025 0.26664 0.0
C255 C 0.52333 0.51122 0.27808 0.0
C256 C 0.50201 0.51454 0.2438 0.0
C257 C 0.5073 0.51716 0.19929 0.0
C258 C 0.47857 0.54864 0.029 0.0
C259 C 0.4671 0.4749 0.04544 0.0
O260 O 0.46988 0.51841 0.91589 0.0
O261 O 0.4795 0.47569 0.904 0.0
O262 O 0.53015 0.49396 1.00596 0.0
O263 O 0.51044 0.45916 0.97044 0.0
O264 O 0.52159 0.53048 0.95533 0.0
O265 O 0.54687 0.53688 0.02625 0.0
O266 O 0.53951 0.49884 0.11315 0.0
O267 O 0.52963 0.54149 0.12492 0.0
O268 O 0.47919 0.5231 0.023 0.0
O269 O 0.49891 0.55792 0.05819 0.0
O270 O 0.48794 0.4864 0.07344 0.0
O271 O 0.46258 0.48005 1.0026 0.0
H272 H 0.43331 0.50467 0.81442 0.0
H273 H 0.44237 0.50902 0.73668 0.0
H274 H 0.52798 0.50199 0.77758 0.0
H275 H 0.51861 0.49734 0.8555 0.0
H276 H 0.57593 0.51255 0.21455 0.0
H277 H 0.56688 0.50807 0.29224 0.0
H278 H 0.48126 0.51505 0.25136 0.0
H279 H 0.49063 0.51982 0.17348 0.0
Tb280 Tb 0.02285 0.50519 0.55337 0.0
Tb281 Tb 0.99328 0.5159 0.46095 0.0
C282 C 0.04707 0.50978 0.63325 0.0
C283 C 0.04021 0.51283 0.68033 0.0
C284 C 0.0609 0.51901 0.71642 0.0
C285 C 0.05532 0.52018 0.76153 0.0
C286 C 0.02886 0.51515 0.77152 0.0
C287 C 0.00803 0.5095 0.73508 0.0
C288 C 0.01365 0.50839 0.68988 0.0
C289 C 0.98702 0.46776 0.51421 0.0
C290 C 0.96848 0.53961 0.54796 0.0
C291 C 0.96906 0.51146 0.38109 0.0
C292 C 0.97586 0.508 0.33398 0.0
C293 C 0.95509 0.50196 0.298 0.0
C294 C 0.96061 0.50058 0.25284 0.0
C295 C 0.9871 0.50526 0.24269 0.0
C296 C 0.00803 0.51072 0.27903 0.0
C297 C 1.00246 0.51204 0.32428 0.0
C298 C 0.02914 0.55336 0.50041 0.0
C299 C 0.04752 0.48128 0.46647 0.0
O300 O 0.04221 0.53041 0.60998 0.0
O301 O 0.03996 0.48646 0.60903 0.0
O302 O 0.98525 0.49295 0.51405 0.0
O303 O 0.00852 0.46259 0.54028 0.0
O304 O 0.99103 0.53315 0.57241 0.0
O305 O 0.96307 0.53103 0.50394 0.0
O306 O 0.97334 0.49084 0.40462 0.0
O307 O 0.97673 0.53472 0.40506 0.0
O308 O 0.03082 0.52813 0.50025 0.0
O309 O 0.00753 0.55854 0.4746 0.0
O310 O 0.02496 0.4877 0.442 0.0
O311 O 0.05303 0.49008 0.51038 0.0
H312 H 0.08154 0.52241 0.7097 0.0
H313 H 0.07193 0.52425 0.78856 0.0
H314 H 0.98737 0.5059 0.74148 0.0
H315 H 0.99737 0.50368 0.66241 0.0
H316 H 0.93441 0.49888 0.30484 0.0
H317 H 0.94395 0.49665 0.22588 0.0
H318 H 0.0287 0.51406 0.2725 0.0
H319 H 0.01881 0.51665 0.35166 0.0
C320 C 0.08324 0.07152 0.48879 0.0
C321 C 0.06421 0.05406 0.46027 0.0
C322 C 0.10086 0.08844 0.47039 0.0
C323 C 0.10925 0.11899 0.36399 0.0
H324 H 0.18279 0.13409 0.42156 0.0
C325 C 0.1882 0.17767 0.2808 0.0
C326 C 0.20471 0.19755 0.30927 0.0
C327 C 0.17156 0.15976 0.29917 0.0
C328 C 0.16224 0.13027 0.40528 0.0
H329 H 0.04925 0.0405 0.38977 0.0
H330 H 0.08028 0.06937 0.35781 0.0
H331 H 0.15319 0.10343 0.45334 0.0
H332 H 0.21682 0.21383 0.37967 0.0
H333 H 0.18786 0.18263 0.4116 0.0
H334 H 0.11843 0.14567 0.31573 0.0
C335 C 0.08126 0.0705 0.39448 0.0
C336 C 0.1452 0.1127 0.42357 0.0
C337 C 0.06354 0.05371 0.41287 0.0
C338 C 0.20437 0.19884 0.35664 0.0
C339 C 0.18787 0.18081 0.37502 0.0
C340 C 0.12634 0.13641 0.34557 0.0
C341 C 0.10005 0.08829 0.42295 0.0
C342 C 0.11842 0.10682 0.40324 0.0
C343 C 0.17112 0.16114 0.34651 0.0
C344 C 0.15304 0.14233 0.366 0.0
H345 H 0.08427 0.07249 0.52546 0.0
H346 H 0.11473 0.10208 0.49351 0.0
H347 H 0.08865 0.11546 0.3478 0.0
H348 H 0.1879 0.17604 0.24418 0.0
H349 H 0.15918 0.14467 0.27623 0.0
C350 C 0.04086 0.92127 0.54845 0.0
C351 C 0.0467 0.949 0.54737 0.0
C352 C 0.05733 0.90603 0.57662 0.0
C353 C 0.12563 0.90638 0.64354 0.0
H354 H 0.0929 0.84673 0.69387 0.0
C355 C 0.18382 0.84054 0.77138 0.0
C356 C 0.18128 0.81238 0.75753 0.0
C357 C 0.16744 0.85864 0.74855 0.0
C358 C 0.1023 0.86332 0.68001 0.0
H359 H 0.07489 0.98239 0.5739 0.0
H360 H 0.10299 0.95623 0.62512 0.0
H361 H 0.06428 0.87619 0.65007 0.0
H362 H 0.15922 0.78109 0.70968 0.0
H363 H 0.13016 0.81263 0.6708 0.0
H364 H 0.16365 0.89356 0.67478 0.0
C365 C 0.08588 0.94602 0.60367 0.0
C366 C 0.08595 0.88014 0.65457 0.0
C367 C 0.06955 0.96119 0.57483 0.0
C368 C 0.16171 0.80268 0.72106 0.0
C369 C 0.145 0.82069 0.69892 0.0
C370 C 0.14194 0.88978 0.66974 0.0
C371 C 0.07997 0.91818 0.60502 0.0
C372 C 0.09738 0.9016 0.63512 0.0
C373 C 0.14783 0.84886 0.71218 0.0
C374 C 0.13046 0.86781 0.68752 0.0
H375 H 0.02353 0.91121 0.5273 0.0
H376 H 0.05242 0.88455 0.57553 0.0
H377 H 0.13532 0.9224 0.6288 0.0
H378 H 0.19883 0.84862 0.79922 0.0
H379 H 0.16994 0.88027 0.7595 0.0
C380 C 0.31967 0.7999 0.81784 0.0
C381 C 0.29241 0.80157 0.82493 0.0
C382 C 0.33874 0.81888 0.84168 0.0
C383 C 0.34506 0.8868 0.90992 0.0
H384 H 0.4169 0.86236 0.94809 0.0
C385 C 0.43006 0.95191 0.02766 0.0
C386 C 0.45353 0.95415 1.00633 0.0
C387 C 0.40924 0.93341 1.00811 0.0
C388 C 0.39684 0.86933 0.93772 0.0
H389 H 0.26331 0.82457 0.86111 0.0
H390 H 0.29666 0.85691 0.90438 0.0
H391 H 0.38251 0.82956 0.90855 0.0
H392 H 0.47409 0.93899 0.94867 0.0
H393 H 0.43802 0.90627 0.91524 0.0
H394 H 0.35962 0.92656 0.94016 0.0
C395 C 0.30341 0.8414 0.8799 0.0
C396 C 0.37724 0.85069 0.91472 0.0
C397 C 0.28433 0.8227 0.85549 0.0
C398 C 0.45608 0.93767 0.96559 0.0
C399 C 0.4356 0.9189 0.94663 0.0
C400 C 0.36459 0.90535 0.93366 0.0
C401 C 0.33087 0.83964 0.87345 0.0
C402 C 0.35126 0.85928 0.89982 0.0
C403 C 0.41209 0.91665 0.96773 0.0
C404 C 0.39068 0.89677 0.94699 0.0
H405 H 0.32629 0.78387 0.79408 0.0
H406 H 0.35962 0.81731 0.83505 0.0
H407 H 0.32539 0.89419 0.89844 0.0
H408 H 0.42776 0.96455 0.05908 0.0
H409 H 0.39115 0.93188 0.02475 0.0
C410 C 0.42116 0.05755 0.04657 0.0
C411 C 0.4484 0.05862 0.06577 0.0
C412 C 0.40226 0.07423 0.06662 0.0
C413 C 0.39358 0.1166 0.17588 0.0
H414 H 0.33605 0.14914 0.10274 0.0
C415 C 0.33731 0.21034 0.24306 0.0
C416 C 0.30892 0.20824 0.23738 0.0
C417 C 0.35245 0.19042 0.22146 0.0
C418 C 0.35189 0.13995 0.1235 0.0
H419 H 0.47735 0.07872 0.11995 0.0
H420 H 0.445 0.10826 0.15355 0.0
H421 H 0.36624 0.11762 0.06557 0.0
H422 H 0.27407 0.18343 0.20527 0.0
H423 H 0.3007 0.14897 0.1658 0.0
H424 H 0.37992 0.13991 0.23351 0.0
C425 C 0.43776 0.09393 0.1242 0.0
C426 C 0.36914 0.12181 0.10232 0.0
C427 C 0.45644 0.07707 0.10465 0.0
C428 C 0.29592 0.18582 0.20954 0.0
C429 C 0.3111 0.1661 0.18712 0.0
C430 C 0.37668 0.13501 0.19684 0.0
C431 C 0.41032 0.09252 0.10596 0.0
C432 C 0.39052 0.11024 0.12821 0.0
C433 C 0.33951 0.16816 0.19321 0.0
C434 C 0.35592 0.14712 0.17085 0.0
H435 H 0.41435 0.04344 0.01668 0.0
H436 H 0.3813 0.0724 0.05177 0.0
H437 H 0.40923 0.10753 0.19719 0.0
H438 H 0.34788 0.22738 0.26436 0.0
H439 H 0.37434 0.19253 0.22648 0.0
C440 C 0.94753 0.95889 0.61236 0.0
C441 C 0.94677 0.95904 0.56502 0.0
C442 C 0.92967 0.94201 0.63029 0.0
C443 C 0.88739 0.87901 0.60057 0.0
H444 H 0.85234 0.90564 0.70579 0.0
C445 C 0.80628 0.81381 0.66709 0.0
C446 C 0.80606 0.81515 0.71446 0.0
C447 C 0.82269 0.83184 0.64854 0.0
C448 C 0.8622 0.8977 0.67675 0.0
H449 H 0.92638 0.94147 0.4995 0.0
H450 H 0.89535 0.91204 0.53079 0.0
H451 H 0.88239 0.93605 0.67448 0.0
H452 H 0.82311 0.83661 0.77943 0.0
H453 H 0.85204 0.86758 0.7473 0.0
H454 H 0.86767 0.84055 0.60316 0.0
C455 C 0.90987 0.92492 0.55405 0.0
C456 C 0.87941 0.91521 0.65873 0.0
C457 C 0.92758 0.94195 0.53612 0.0
C458 C 0.82259 0.83507 0.74278 0.0
C459 C 0.83912 0.85298 0.72426 0.0
C460 C 0.87034 0.86143 0.61877 0.0
C461 C 0.91074 0.92466 0.60136 0.0
C462 C 0.89222 0.9061 0.6204 0.0
C463 C 0.83948 0.85162 0.67686 0.0
C464 C 0.85747 0.8705 0.65715 0.0
H465 H 0.96207 0.97167 0.63571 0.0
H466 H 0.93108 0.94213 0.66687 0.0
H467 H 0.89724 0.87118 0.57144 0.0
H468 H 0.79373 0.79884 0.64416 0.0
H469 H 0.822 0.83039 0.61188 0.0
C470 C 0.93926 0.05164 0.4546 0.0
C471 C 0.96214 0.06424 0.48154 0.0
C472 C 0.92086 0.06709 0.42972 0.0
C473 C 0.89427 0.1351 0.43086 0.0
H474 H 0.87572 0.11875 0.30037 0.0
C475 C 0.83741 0.21178 0.32694 0.0
C476 C 0.81912 0.2022 0.28866 0.0
C477 C 0.854 0.19386 0.34949 0.0
C478 C 0.88023 0.12339 0.33691 0.0
H479 H 0.98352 0.10284 0.5041 0.0
H480 H 0.95101 0.12981 0.46193 0.0
H481 H 0.90553 0.08884 0.34177 0.0
H482 H 0.80378 0.1662 0.24403 0.0
H483 H 0.83198 0.13466 0.28437 0.0
H484 H 0.86864 0.16907 0.4269 0.0
C485 C 0.94748 0.108 0.45955 0.0
C486 C 0.89742 0.10627 0.36052 0.0
C487 C 0.96609 0.09254 0.48359 0.0
C488 C 0.81781 0.17423 0.27331 0.0
C489 C 0.83412 0.15616 0.29638 0.0
C490 C 0.87675 0.15191 0.40751 0.0
C491 C 0.9247 0.09546 0.43236 0.0
C492 C 0.90495 0.11225 0.40759 0.0
C493 C 0.85242 0.16571 0.33493 0.0
C494 C 0.86984 0.14665 0.36003 0.0
H495 H 0.93538 0.02996 0.45319 0.0
H496 H 0.9033 0.05699 0.4093 0.0
H497 H 0.89948 0.13994 0.46728 0.0
H498 H 0.83916 0.23327 0.33931 0.0
H499 H 0.86827 0.20224 0.37815 0.0
C500 C 0.7171 0.19377 0.18581 0.0
C501 C 0.70847 0.21639 0.21259 0.0
C502 C 0.69829 0.17626 0.15807 0.0
C503 C 0.65409 0.15294 0.08353 0.0
H504 H 0.59555 0.12249 0.13894 0.0
C505 C 0.5655 0.0823 0.98779 0.0
C506 C 0.55987 0.05964 1.00975 0.0
C507 C 0.58447 0.10225 1.00916 0.0
C508 C 0.6118 0.13091 0.1231 0.0
H509 H 0.67366 0.23834 0.23255 0.0
H510 H 0.64047 0.20713 0.18457 0.0
H511 H 0.62637 0.1571 0.18354 0.0
H512 H 0.57164 0.03795 0.06738 0.0
H513 H 0.60413 0.0731 0.10574 0.0
H514 H 0.63958 0.12638 0.02319 0.0
C515 C 0.66183 0.20323 0.18471 0.0
C516 C 0.62922 0.15081 0.14841 0.0
C517 C 0.68072 0.22097 0.21213 0.0
C518 C 0.57466 0.05607 0.0514 0.0
C519 C 0.59339 0.07596 0.07289 0.0
C520 C 0.63643 0.13321 0.05799 0.0
C521 C 0.67053 0.18087 0.15724 0.0
C522 C 0.65076 0.16164 0.12908 0.0
C523 C 0.59785 0.09957 0.05257 0.0
C524 C 0.6155 0.12171 0.07794 0.0
H525 H 0.73843 0.18969 0.18603 0.0
H526 H 0.70543 0.15886 0.1378 0.0
H527 H 0.6705 0.16121 0.0679 0.0
H528 H 0.55433 0.08522 0.95532 0.0
H529 H 0.58777 0.12027 0.99281 0.0
C530 C 0.71521 0.82596 0.81635 0.0
C531 C 0.70233 0.80306 0.7898 0.0
C532 C 0.70013 0.84502 0.8404 0.0
C533 C 0.63197 0.85346 0.88029 0.0
H534 H 0.65088 0.93049 0.89128 0.0
C535 C 0.55696 0.93736 0.9185 0.0
C536 C 0.56498 0.95701 0.95582 0.0
C537 C 0.57546 0.91904 0.902 0.0
C538 C 0.6456 0.909 0.88882 0.0
H539 H 0.66361 0.78253 0.76626 0.0
H540 H 0.63722 0.81611 0.80622 0.0
H541 H 0.67986 0.89747 0.85462 0.0
H542 H 0.59885 0.97332 1.00444 0.0
H543 H 0.63161 0.94151 0.97437 0.0
H544 H 0.597 0.86525 0.91249 0.0
C545 C 0.65902 0.81903 0.81026 0.0
C546 C 0.6622 0.89003 0.868 0.0
C547 C 0.67412 0.79986 0.78686 0.0
C548 C 0.59209 0.9583 0.97576 0.0
C549 C 0.61081 0.94024 0.95853 0.0
C550 C 0.6152 0.87241 0.90031 0.0
C551 C 0.67179 0.84177 0.83775 0.0
C552 C 0.65537 0.862 0.8628 0.0
C553 C 0.60251 0.92026 0.92186 0.0
C554 C 0.62167 0.90034 0.90422 0.0
H555 H 0.73693 0.82915 0.81859 0.0
H556 H 0.71074 0.86213 0.86138 0.0
H557 H 0.6264 0.83207 0.87821 0.0
H558 H 0.5362 0.93574 0.9025 0.0
H559 H 0.56865 0.90392 0.87347 0.0
C560 C 0.58211 0.57525 0.99515 0.0
C561 C 0.56212 0.55966 0.96541 0.0
C562 C 0.60047 0.59214 0.97833 0.0
C563 C 0.63153 0.60235 0.87472 0.0
H564 H 0.64722 0.67575 0.93399 0.0
C565 C 0.69265 0.68066 0.79425 0.0
C566 C 0.70995 0.69969 0.82304 0.0
C567 C 0.67528 0.66331 0.8122 0.0
C568 C 0.64347 0.65519 0.91736 0.0
H569 H 0.54596 0.54956 0.89443 0.0
H570 H 0.57812 0.57884 0.86519 0.0
H571 H 0.61593 0.64608 0.96414 0.0
H572 H 0.72277 0.71502 0.89362 0.0
H573 H 0.69305 0.68434 0.92499 0.0
H574 H 0.65928 0.61117 0.82833 0.0
C575 C 0.57961 0.57795 0.90155 0.0
C576 C 0.62541 0.63819 0.93463 0.0
C577 C 0.56106 0.56127 0.91839 0.0
C578 C 0.70965 0.70071 0.87036 0.0
C579 C 0.69241 0.68319 0.88837 0.0
C580 C 0.64977 0.61925 0.85768 0.0
C581 C 0.5995 0.59366 0.93131 0.0
C582 C 0.61909 0.61161 0.91338 0.0
C583 C 0.67484 0.66432 0.85954 0.0
C584 C 0.65591 0.646 0.87855 0.0
H585 H 0.58352 0.57457 0.03155 0.0
H586 H 0.61569 0.60378 1.00216 0.0
H587 H 0.62743 0.58186 0.85793 0.0
H588 H 0.69213 0.67942 0.75762 0.0
H589 H 0.66178 0.64948 0.78876 0.0
C590 C 0.69811 0.30581 0.12774 0.0
C591 C 0.71644 0.31528 0.16609 0.0
C592 C 0.67904 0.32313 0.10907 0.0
C593 C 0.64554 0.38884 0.13708 0.0
H594 H 0.62198 0.38002 1.00733 0.0
C595 C 0.57512 0.46394 0.04739 0.0
C596 C 0.55289 0.4518 0.01814 0.0
C597 C 0.59576 0.44795 0.06524 0.0
C598 C 0.6283 0.38263 0.04366 0.0
H599 H 0.7296 0.35058 0.21417 0.0
H600 H 0.69713 0.38104 0.1807 0.0
H601 H 0.65728 0.3514 0.03821 0.0
H602 H 0.53507 0.41357 0.98385 0.0
H603 H 0.57143 0.38571 0.01422 0.0
H604 H 0.61684 0.42056 0.14203 0.0
C605 C 0.69682 0.36003 0.16574 0.0
C606 C 0.64846 0.36613 0.0615 0.0
C607 C 0.71563 0.34259 0.18481 0.0
C608 C 0.55195 0.42347 1.00639 0.0
C609 C 0.57278 0.40754 0.02362 0.0
C610 C 0.62567 0.4056 0.11911 0.0
C611 C 0.67804 0.35049 0.12786 0.0
C612 C 0.65722 0.3688 0.10855 0.0
C613 C 0.59484 0.41958 0.05343 0.0
C614 C 0.61667 0.4025 0.07228 0.0
H615 H 0.69802 0.2848 0.11276 0.0
H616 H 0.66468 0.31479 0.0805 0.0
H617 H 0.65128 0.39126 0.17354 0.0
H618 H 0.57658 0.48578 0.05645 0.0
H619 H 0.61266 0.45779 0.08778 0.0
C620 C 0.97912 0.42144 0.47207 0.0
C621 C 0.96978 0.44755 0.4838 0.0
C622 C 0.96338 0.40298 0.44029 0.0
C623 C 0.90614 0.40062 0.34839 0.0
H624 H 0.90162 0.32413 0.36487 0.0
C625 C 0.82135 0.32648 0.25905 0.0
C626 C 0.82933 0.30149 0.23843 0.0
C627 C 0.84038 0.34422 0.28585 0.0
C628 C 0.90301 0.3454 0.35968 0.0
H629 H 0.93663 0.47481 0.47348 0.0
H630 H 0.90863 0.44233 0.41931 0.0
H631 H 0.93102 0.35524 0.41969 0.0
H632 H 0.8631 0.27522 0.22901 0.0
H633 H 0.89653 0.30626 0.27695 0.0
H634 H 0.87721 0.39081 0.28937 0.0
C635 C 0.9284 0.43627 0.43325 0.0
C636 C 0.91984 0.36319 0.39091 0.0
C637 C 0.94426 0.45477 0.46455 0.0
C638 C 0.8566 0.29451 0.24453 0.0
C639 C 0.8756 0.3121 0.27198 0.0
C640 C 0.88907 0.3829 0.31757 0.0
C641 C 0.93794 0.4103 0.42026 0.0
C642 C 0.9213 0.39106 0.38591 0.0
C643 C 0.86757 0.33703 0.29286 0.0
C644 C 0.88719 0.35525 0.32329 0.0
H645 H 0.99889 0.41559 0.48641 0.0
H646 H 0.97141 0.38323 0.43068 0.0
H647 H 0.90732 0.42185 0.34293 0.0
H648 H 0.80037 0.3322 0.25477 0.0
H649 H 0.83374 0.36327 0.30205 0.0
C650 C 0.84233 0.71631 0.74472 0.0
C651 C 0.81488 0.7111 0.74788 0.0
C652 C 0.85758 0.69677 0.72245 0.0
C653 C 0.85193 0.63317 0.64183 0.0
H654 H 0.92673 0.62699 0.69209 0.0
C655 C 0.95068 0.56067 0.61867 0.0
C656 C 0.94864 0.55642 0.57093 0.0
C657 C 0.93292 0.57778 0.64044 0.0
C658 C 0.90579 0.62809 0.67784 0.0
H659 H 0.78165 0.68155 0.73009 0.0
H660 H 0.80846 0.64694 0.69205 0.0
H661 H 0.8985 0.65962 0.72977 0.0
H662 H 0.92612 0.56656 0.50858 0.0
H663 H 0.89568 0.59701 0.54643 0.0
H664 H 0.85908 0.60093 0.59069 0.0
C665 C 0.81815 0.66634 0.70598 0.0
C666 C 0.88966 0.64721 0.6991 0.0
C667 C 0.80281 0.68607 0.72795 0.0
C668 C 0.92813 0.56927 0.54544 0.0
C669 C 0.91056 0.58666 0.56721 0.0
C670 C 0.86803 0.61382 0.62074 0.0
C671 C 0.84583 0.67137 0.70327 0.0
C672 C 0.86259 0.65024 0.68116 0.0
C673 C 0.91289 0.59138 0.61503 0.0
C674 C 0.89526 0.61116 0.63828 0.0
H675 H 0.85206 0.73558 0.75942 0.0
H676 H 0.87862 0.70169 0.72013 0.0
H677 H 0.83125 0.63502 0.6268 0.0
H678 H 0.96609 0.55087 0.63936 0.0
H679 H 0.935 0.58041 0.67728 0.0
C680 C 0.30252 0.31203 0.15477 0.0
C681 C 0.30224 0.31256 0.20204 0.0
C682 C 0.3198 0.32978 0.1373 0.0
C683 C 0.3833 0.37088 0.16851 0.0
H684 H 0.35756 0.40911 0.06609 0.0
C685 C 0.44907 0.45466 0.11004 0.0
C686 C 0.44775 0.45673 0.06315 0.0
C687 C 0.43103 0.43732 0.12663 0.0
C688 C 0.36526 0.39834 0.0943 0.0
H689 H 0.32 0.33234 0.26791 0.0
H690 H 0.35006 0.36308 0.23747 0.0
H691 H 0.32681 0.3782 0.09494 0.0
H692 H 0.42641 0.44194 0.99694 0.0
H693 H 0.39546 0.4113 0.02562 0.0
H694 H 0.42181 0.39052 0.16762 0.0
C695 C 0.33701 0.34887 0.21389 0.0
C696 C 0.34755 0.38064 0.11091 0.0
C697 C 0.3196 0.33134 0.23133 0.0
C698 C 0.42792 0.44102 0.03329 0.0
C699 C 0.41002 0.42351 0.04984 0.0
C700 C 0.40106 0.38839 0.1517 0.0
C701 C 0.33741 0.34829 0.16668 0.0
C702 C 0.35631 0.36679 0.14837 0.0
C703 C 0.41129 0.42137 0.09677 0.0
C704 C 0.3923 0.4025 0.11446 0.0
H705 H 0.28942 0.29789 0.13119 0.0
H706 H 0.31973 0.32866 0.10077 0.0
H707 H 0.39084 0.36022 0.19697 0.0
H708 H 0.46396 0.46656 0.13411 0.0
H709 H 0.43241 0.43668 0.16303 0.0
C710 C 0.43376 0.5531 0.98253 0.0
C711 C 0.45611 0.5652 1.01148 0.0
C712 C 0.4127 0.56906 0.96592 0.0
C713 C 0.37976 0.63389 0.99109 0.0
H714 H 0.35454 0.62623 0.86201 0.0
C715 C 0.30723 0.71054 0.91227 0.0
C716 C 0.28838 0.70104 0.87466 0.0
C717 C 0.32694 0.69339 0.92961 0.0
C718 C 0.36092 0.62837 0.89828 0.0
H719 H 0.47381 0.60334 0.04638 0.0
H720 H 0.43683 0.63111 0.01815 0.0
H721 H 0.38985 0.59702 0.89101 0.0
H722 H 0.27494 0.6658 0.82658 0.0
H723 H 0.30853 0.63566 0.85772 0.0
H724 H 0.35059 0.66477 0.99883 0.0
C725 C 0.43563 0.60934 1.00806 0.0
C726 C 0.38128 0.61166 0.91482 0.0
C727 C 0.45684 0.59346 0.02406 0.0
C728 C 0.28931 0.67384 0.85538 0.0
C729 C 0.30877 0.65658 0.87309 0.0
C730 C 0.35914 0.65036 0.97469 0.0
C731 C 0.41339 0.59735 0.97868 0.0
C732 C 0.39107 0.6144 0.96133 0.0
C733 C 0.32808 0.66616 0.91017 0.0
C734 C 0.34954 0.64801 0.92796 0.0
H735 H 0.43248 0.53131 0.97278 0.0
H736 H 0.39569 0.55924 0.94365 0.0
H737 H 0.38669 0.63623 0.02722 0.0
H738 H 0.30721 0.73146 0.92768 0.0
H739 H 0.34167 0.70175 0.95764 0.0
C740 C 0.18297 0.68787 0.78453 0.0
C741 C 0.17448 0.71237 0.80606 0.0
C742 C 0.16453 0.67062 0.75548 0.0
C743 C 0.10382 0.67195 0.67754 0.0
H744 H 0.10126 0.5939 0.68141 0.0
C745 C 0.034 0.59822 0.54801 0.0
C746 C 0.04501 0.5733 0.53352 0.0
C747 C 0.04802 0.61584 0.58328 0.0
C748 C 0.10195 0.61563 0.67964 0.0
H749 H 0.14031 0.73811 0.81529 0.0
H750 H 0.10788 0.70791 0.76349 0.0
H751 H 0.12849 0.62316 0.74198 0.0
H752 H 0.07949 0.54753 0.54224 0.0
H753 H 0.10449 0.57863 0.60282 0.0
H754 H 0.07819 0.66444 0.6143 0.0
C755 C 0.12877 0.70208 0.76942 0.0
C756 C 0.11735 0.63232 0.71443 0.0
C757 C 0.14719 0.71919 0.79908 0.0
C758 C 0.07061 0.56664 0.55326 0.0
C759 C 0.08472 0.58429 0.58818 0.0
C760 C 0.0886 0.65522 0.64243 0.0
C761 C 0.1374 0.67779 0.74717 0.0
C762 C 0.11873 0.66054 0.71326 0.0
C763 C 0.07336 0.60884 0.60416 0.0
C764 C 0.08793 0.62685 0.64274 0.0
H765 H 0.20398 0.68228 0.78948 0.0
H766 H 0.17169 0.65212 0.73827 0.0
H767 H 0.10485 0.69368 0.67577 0.0
H768 H 0.01414 0.60362 0.53331 0.0
H769 H 0.03868 0.63452 0.59504 0.0
C770 C 0.21003 0.32768 0.29324 0.0
C771 C 0.19736 0.30284 0.27376 0.0
C772 C 0.19506 0.34823 0.31398 0.0
C773 C 0.12403 0.36986 0.31865 0.0
H774 H 0.15541 0.41658 0.42602 0.0
C775 C 0.08725 0.45087 0.46984 0.0
C776 C 0.06711 0.46391 0.44388 0.0
C777 C 0.10441 0.43276 0.4486 0.0
C778 C 0.14623 0.40359 0.39625 0.0
H779 H 0.15945 0.27956 0.26168 0.0
H780 H 0.1335 0.31487 0.29898 0.0
H781 H 0.18233 0.38109 0.39151 0.0
H782 H 0.04988 0.46901 0.37515 0.0
H783 H 0.08032 0.43821 0.33809 0.0
H784 H 0.08757 0.39139 0.32449 0.0
C785 C 0.15475 0.31901 0.2972 0.0
C786 C 0.16183 0.38343 0.37605 0.0
C787 C 0.16965 0.29865 0.27609 0.0
C788 C 0.06504 0.45911 0.39618 0.0
C789 C 0.08241 0.44127 0.37492 0.0
C790 C 0.10838 0.38979 0.33907 0.0
C791 C 0.16715 0.34422 0.31598 0.0
C792 C 0.15088 0.36617 0.33711 0.0
C793 C 0.10204 0.42747 0.40084 0.0
C794 C 0.1192 0.40689 0.37826 0.0
H795 H 0.23139 0.33143 0.2917 0.0
H796 H 0.20527 0.36743 0.32757 0.0
H797 H 0.115 0.35734 0.28824 0.0
H798 H 0.08926 0.45397 0.50668 0.0
H799 H 0.11895 0.42228 0.46979 0.0
C800 C 0.99444 0.02322 0.84391 0.0
C801 C 0.01664 0.01178 0.82439 0.0
C802 C 0.99155 0.02137 0.88961 0.0
C803 C 0.03119 0.01046 0.9988 0.0
H804 H 0.96059 0.99795 0.03673 0.0
C805 C 0.01692 0.98916 0.18179 0.0
C806 C 0.99475 1.00078 0.2012 0.0
C807 C 0.0199 0.99094 0.13609 0.0
C808 C 0.98042 1.00179 0.0268 0.0
H809 H 0.05273 0.98857 0.83735 0.0
H810 H 0.04763 0.98523 0.91697 0.0
H811 H 0.96477 0.99931 0.95631 0.0
H812 H 0.95886 0.02424 0.18806 0.0
H813 H 0.96409 0.0274 0.10846 0.0
H814 H 0.04683 0.01292 0.06931 0.0
C815 C 0.03271 0.99611 0.89717 0.0
C816 C 0.98282 1.00254 0.98065 0.0
C817 C 0.03561 0.99798 0.85148 0.0
C818 C 0.97594 0.01468 0.17402 0.0
C819 C 0.97891 0.01646 0.12834 0.0
C820 C 0.02879 0.0097 0.04496 0.0
C821 C 0.01079 0.00801 0.91695 0.0
C822 C 0.00823 1.00689 0.96604 0.0
C823 C 1.00078 1.00438 0.10866 0.0
C824 C 1.00337 1.00538 0.05956 0.0
H825 H 0.97968 0.03435 0.82425 0.0
H826 H 0.97461 0.03107 0.90384 0.0
H827 H 0.05102 0.01431 0.98888 0.0
H828 H 0.03158 0.97796 0.20152 0.0
H829 H 0.0368 0.98111 0.12193 0.0
C830 C 0.2361 0.71708 0.47247 0.0
C831 C 0.22783 0.73769 0.5041 0.0
C832 C 0.23732 0.72149 0.42716 0.0
C833 C 0.24141 0.77637 0.35293 0.0
H834 H 0.21808 0.71879 0.25585 0.0
C835 C 0.22996 0.79445 0.16313 0.0
C836 C 0.23814 0.77388 0.13135 0.0
C837 C 0.22887 0.78997 0.20844 0.0
C838 C 0.225 0.73499 0.28253 0.0
H839 H 0.21408 0.77911 0.51222 0.0
H840 H 0.21623 0.7868 0.43325 0.0
H841 H 0.21564 0.71127 0.33474 0.0
H842 H 0.25186 0.73246 0.12291 0.0
H843 H 0.24995 0.72464 0.2019 0.0
H844 H 0.25076 0.8001 0.30072 0.0
C845 C 0.22212 0.7673 0.44371 0.0
C846 C 0.22358 0.73068 0.32786 0.0
C847 C 0.22088 0.76288 0.48907 0.0
C848 C 0.24513 0.74866 0.1462 0.0
C849 C 0.24402 0.74417 0.19157 0.0
C850 C 0.24283 0.78068 0.3076 0.0
C851 C 0.23035 0.74665 0.4121 0.0
C852 C 0.23176 0.75131 0.36372 0.0
C853 C 0.23589 0.76478 0.22334 0.0
C854 C 0.23462 0.76007 0.27174 0.0
H855 H 0.24213 0.6976 0.48289 0.0
H856 H 0.24421 0.70527 0.40409 0.0
H857 H 0.24832 0.79258 0.3796 0.0
H858 H 0.22391 0.81395 0.15285 0.0
H859 H 0.22205 0.80617 0.23164 0.0
C860 C 0.46918 0.01914 0.66644 0.0
C861 C 0.48524 1.00418 0.69627 0.0
C862 C 0.47375 0.01857 0.62087 0.0
C863 C 0.52592 1.00306 0.54328 0.0
H864 H 0.46489 1.00021 0.44889 0.0
C865 C 0.53925 0.98617 0.3518 0.0
C866 C 0.52331 1.00141 0.32228 0.0
C867 C 0.53446 0.98626 0.39718 0.0
C868 C 0.48218 1.00131 0.47484 0.0
H869 H 0.51857 0.97658 0.70098 0.0
H870 H 0.52656 0.97563 0.6216 0.0
H871 H 0.45693 1.00077 0.5282 0.0
H872 H 0.48989 0.02892 0.31787 0.0
H873 H 0.48151 0.02903 0.39691 0.0
H874 H 0.55117 1.00363 0.48994 0.0
C875 C 0.51063 0.98812 0.63365 0.0
C876 C 0.47761 1.00163 0.52038 0.0
C877 C 0.50605 0.98867 0.67924 0.0
C878 C 0.50232 0.01661 0.33935 0.0
C879 C 0.49752 0.01669 0.38476 0.0
C880 C 0.53049 1.00274 0.49774 0.0
C881 C 0.49453 1.00305 0.60384 0.0
C882 C 0.49941 1.00253 0.55524 0.0
C883 C 0.51358 1.00158 0.41434 0.0
C884 C 0.50868 1.00187 0.46289 0.0
H885 H 0.4533 0.03172 0.67845 0.0
H886 H 0.46124 0.03069 0.59917 0.0
H887 H 0.54321 1.0042 0.56922 0.0
H888 H 0.55528 0.97384 0.33971 0.0
H889 H 0.54695 0.97401 0.41869 0.0
C890 C 0.23466 0.22114 0.906 0.0
C891 C 0.24327 0.24189 0.9414 0.0
C892 C 0.23698 0.22465 0.86072 0.0
C893 C 0.24402 0.27784 0.7849 0.0
H894 H 0.26588 0.2179 0.70277 0.0
C895 C 0.26889 0.29143 0.60401 0.0
C896 C 0.26035 0.27066 0.56861 0.0
C897 C 0.26649 0.28794 0.64928 0.0
C898 C 0.25942 0.23475 0.72508 0.0
H899 H 0.26119 0.28263 0.95668 0.0
H900 H 0.26569 0.2886 0.87764 0.0
H901 H 0.26299 0.21186 0.78214 0.0
H902 H 0.24245 0.2299 0.55332 0.0
H903 H 0.23781 0.22398 0.63232 0.0
H904 H 0.24046 0.30073 0.72784 0.0
C905 C 0.25682 0.2697 0.88495 0.0
C906 C 0.25779 0.2313 0.77065 0.0
C907 C 0.25453 0.26616 0.93033 0.0
C908 C 0.24906 0.24639 0.57966 0.0
C909 C 0.24668 0.24288 0.62502 0.0
C910 C 0.24565 0.28129 0.73933 0.0
C911 C 0.248 0.249 0.84956 0.0
C912 C 0.25007 0.2528 0.80115 0.0
C913 C 0.25546 0.26359 0.66042 0.0
C914 C 0.25338 0.25979 0.70882 0.0
H915 H 0.22623 0.20203 0.91329 0.0
H916 H 0.22974 0.20838 0.83436 0.0
H917 H 0.23757 0.29469 0.80722 0.0
H918 H 0.27735 0.31053 0.59674 0.0
H919 H 0.2737 0.30422 0.67563 0.0
C920 C 0.77276 0.22015 0.88087 0.0
C921 C 0.76469 0.24073 0.91274 0.0
C922 C 0.77372 0.22462 0.83551 0.0
C923 C 0.77726 0.27963 0.76127 0.0
H924 H 0.75388 0.222 0.66432 0.0
C925 C 0.7653 0.29768 0.57134 0.0
C926 C 0.77353 0.27716 0.53952 0.0
C927 C 0.76429 0.2932 0.61668 0.0
C928 C 0.7608 0.23822 0.69095 0.0
H929 H 0.751 0.28216 0.92126 0.0
H930 H 0.75268 0.28995 0.84221 0.0
H931 H 0.75176 0.21443 0.74327 0.0
H932 H 0.78741 0.23579 0.53112 0.0
H933 H 0.78561 0.22797 0.61013 0.0
H934 H 0.78629 0.30342 0.70894 0.0
C935 C 0.75864 0.27042 0.85249 0.0
C936 C 0.75957 0.23388 0.73633 0.0
C937 C 0.75767 0.26595 0.89792 0.0
C938 C 0.78064 0.25197 0.5544 0.0
C939 C 0.7796 0.24747 0.5998 0.0
C940 C 0.77848 0.28397 0.71589 0.0
C941 C 0.76667 0.24981 0.82063 0.0
C942 C 0.76779 0.25452 0.77216 0.0
C943 C 0.77143 0.26805 0.6316 0.0
C944 C 0.77027 0.26333 0.68006 0.0
H945 H 0.77883 0.20064 0.89111 0.0
H946 H 0.78047 0.20841 0.81225 0.0
H947 H 0.78419 0.29586 0.78789 0.0
H948 H 0.75914 0.31716 0.56107 0.0
H949 H 0.75743 0.30937 0.63989 0.0
C950 C 0.73872 0.72308 0.41981 0.0
C951 C 0.74994 0.74259 0.45549 0.0
C952 C 0.74115 0.72645 0.37451 0.0
C953 C 0.75428 0.77882 0.29996 0.0
H954 H 0.76773 0.71655 0.21495 0.0
C955 C 0.77937 0.78982 0.11832 0.0
C956 C 0.76811 0.77034 0.08261 0.0
C957 C 0.77689 0.78645 0.16361 0.0
C958 C 0.76364 0.7341 0.23809 0.0
H959 H 0.77266 0.78097 0.47119 0.0
H960 H 0.77739 0.78657 0.39213 0.0
H961 H 0.76459 0.71066 0.29429 0.0
H962 H 0.7453 0.73203 0.06683 0.0
H963 H 0.74051 0.72641 0.14588 0.0
H964 H 0.75334 0.80226 0.24375 0.0
C965 C 0.76637 0.76881 0.39925 0.0
C966 C 0.76187 0.73073 0.28364 0.0
C967 C 0.76393 0.76544 0.44465 0.0
C968 C 0.75406 0.74752 0.09341 0.0
C969 C 0.75158 0.74414 0.13879 0.0
C970 C 0.75606 0.78219 0.2544 0.0
C971 C 0.75494 0.74938 0.36359 0.0
C972 C 0.75716 0.75305 0.31518 0.0
C973 C 0.76304 0.76354 0.17448 0.0
C974 C 0.76078 0.75987 0.22287 0.0
H975 H 0.72814 0.70503 0.42686 0.0
H976 H 0.73185 0.71121 0.34797 0.0
H977 H 0.75019 0.79638 0.32309 0.0
H978 H 0.79 0.80785 0.11131 0.0
H979 H 0.78621 0.80166 0.19017 0.0
C980 C 0.47705 0.52581 0.67676 0.0
C981 C 0.49113 0.50751 0.703 0.0
C982 C 0.4808 0.52636 0.63108 0.0
C983 C 0.50372 0.48392 0.53326 0.0
H984 H 0.50674 0.55232 0.48206 0.0
C985 C 0.53221 0.49118 0.35211 0.0
C986 C 0.51811 0.5095 0.32591 0.0
C987 C 0.52847 0.49059 0.39779 0.0
C988 C 0.50559 0.53301 0.49566 0.0
H989 H 0.52042 0.47558 0.70171 0.0
H990 H 0.52731 0.47685 0.6222 0.0
H991 H 0.50199 0.55245 0.56261 0.0
H992 H 0.48881 0.54141 0.32728 0.0
H993 H 0.48194 0.54008 0.40678 0.0
H994 H 0.50732 0.46448 0.46631 0.0
C995 C 0.51312 0.49059 0.63686 0.0
C996 C 0.50291 0.53309 0.5419 0.0
C997 C 0.50942 0.49009 0.68262 0.0
C998 C 0.49982 0.52689 0.34633 0.0
C999 C 0.49613 0.52636 0.39209 0.0
C1000 C 0.5064 0.48384 0.48702 0.0
C1001 C 0.4987 0.50859 0.61041 0.0
C1002 C 0.50194 0.50855 0.5613 0.0
C1003 C 0.51057 0.50835 0.4185 0.0
C1004 C 0.50737 0.50838 0.46762 0.0
H1005 H 0.46303 0.53971 0.69151 0.0
H1006 H 0.46921 0.54035 0.61169 0.0
H1007 H 0.50257 0.46462 0.54687 0.0
H1008 H 0.54624 0.4773 0.33732 0.0
H1009 H 0.54008 0.47661 0.41715 0.0
C1010 C 0.03626 0.53414 0.85445 0.0
C1011 C 0.02335 0.51498 0.81971 0.0
C1012 C 0.03212 0.53318 0.89993 0.0
C1013 C 0.00984 0.48624 0.97777 0.0
H1014 H 1.00384 0.55271 0.05807 0.0
C1015 C 0.97947 0.48623 0.15979 0.0
C1016 C 0.99255 0.50533 0.19446 0.0
C1017 C 0.98355 0.48714 0.11427 0.0
C1018 C 0.00581 0.53395 0.03629 0.0
H1019 H 0.99577 0.47981 0.80594 0.0
H1020 H 0.98813 0.47846 0.88503 0.0
H1021 H 0.0096 0.55515 0.97849 0.0
H1022 H 0.02035 0.54033 0.20809 0.0
H1023 H 0.02784 0.54161 0.12891 0.0
H1024 H 0.00603 0.46505 0.03559 0.0
C1025 C 1.00175 0.49407 0.87716 0.0
C1026 C 0.00909 0.53535 0.99056 0.0
C1027 C 0.00586 0.49507 0.83165 0.0
C1028 C 0.01013 0.52513 0.18242 0.0
C1029 C 0.01416 0.52608 0.13688 0.0
C1030 C 0.00655 0.48484 0.02351 0.0
C1031 C 0.01496 0.513 0.91197 0.0
C1032 C 0.01117 0.51152 0.96065 0.0
C1033 C 1.00079 0.50721 0.10213 0.0
C1034 C 1.0045 0.50868 0.05342 0.0
H1035 H 0.04964 0.54995 0.84652 0.0
H1036 H 0.04282 0.54796 0.92577 0.0
H1037 H 0.01183 0.46748 0.95601 0.0
H1038 H 0.96601 0.47052 0.16781 0.0
H1039 H 0.97274 0.47241 0.08847 0.0
loop_
_geom_bond_atom_site_label_1
_geom_bond_atom_site_label_2
_geom_bond_distance
_geom_bond_site_symmetry_2
_ccdc_geom_bond_type
Tb0 C2 2.809 1_655 S
Tb0 O20 2.487 . S
Tb0 O21 2.440 1_655 S
Tb0 O22 2.658 1_655 S
Tb0 O23 2.409 1_655 S
Tb0 O24 2.378 1_665 S
Tb0 O28 2.325 1_565 S
Tb0 O31 2.341 . S
Tb1 C11 2.809 1_455 S
Tb1 O22 2.325 1_545 S
Tb1 O25 2.341 . S
Tb1 O26 2.494 . S
Tb1 O27 2.440 1_455 S
Tb1 O28 2.658 1_455 S
Tb1 O29 2.409 1_455 S
Tb1 O30 2.378 1_445 S
C2 Tb0 2.809 1_455 S
C2 C3 1.514 . S
C2 O20 1.251 1_455 S
C2 O21 1.266 . S
C3 C2 1.514 . S
C3 C4 1.352 1_465 S
C3 C8 1.348 . S
C4 C3 1.352 1_645 S
C4 C5 1.373 1_655 S
C4 H32 0.943 . S
C5 C4 1.373 1_455 S
C5 C6 1.347 1_545 S
C5 H33 0.931 1_455 S
C6 C5 1.347 1_565 S
C6 C7 1.369 . S
C7 C6 1.369 . S
C7 C8 1.408 . S
C7 H34 0.930 . S
C8 C3 1.348 . S
C8 C7 1.408 . S
C8 H35 0.930 . S
C9 O22 1.281 . S
C9 O23 1.254 . S
C10 O24 1.236 . S
C10 O25 1.266 . S
C11 Tb1 2.809 1_655 S
C11 C12 1.514 . S
C11 O26 1.258 1_655 S
C11 O27 1.266 . S
C12 C11 1.514 . S
C12 C13 1.349 1_645 S
C12 C17 1.348 . S
C13 C12 1.349 1_465 S
C13 C14 1.370 1_455 S
C13 H36 0.949 . S
C14 C13 1.370 1_655 S
C14 C15 1.347 1_565 S
C14 H37 0.931 1_655 S
C15 C14 1.347 1_545 S
C15 C16 1.369 . S
C16 C15 1.369 . S
C16 C17 1.408 . S
C16 H38 0.930 . S
C17 C12 1.348 . S
C17 C16 1.408 . S
C17 H39 0.930 . S
C18 O28 1.281 . S
C18 O29 1.254 . S
C19 O30 1.236 . S
C19 O31 1.266 . S
O20 Tb0 2.487 . S
O20 C2 1.251 1_655 S
O21 Tb0 2.440 1_455 S
O21 C2 1.266 . S
O22 Tb0 2.658 1_455 S
O22 Tb1 2.325 1_565 S
O22 C9 1.281 . S
O23 Tb0 2.409 1_455 S
O23 C9 1.254 . S
O24 Tb0 2.378 1_445 S
O24 C10 1.236 . S
O25 Tb1 2.341 . S
O25 C10 1.266 . S
O26 Tb1 2.494 . S
O26 C11 1.258 1_455 S
O27 Tb1 2.440 1_655 S
O27 C11 1.266 . S
O28 Tb0 2.325 1_545 S
O28 Tb1 2.658 1_655 S
O28 C18 1.281 . S
O29 Tb1 2.409 1_655 S
O29 C18 1.254 . S
O30 Tb1 2.378 1_665 S
O30 C19 1.236 . S
O31 Tb0 2.341 . S
O31 C19 1.266 . S
H32 C4 0.943 . S
H33 C5 0.931 1_655 S
H34 C7 0.930 . S
H35 C8 0.930 . S
H36 C13 0.949 . S
H37 C14 0.931 1_455 S
H38 C16 0.930 . S
H39 C17 0.930 . S
Tb40 C42 2.809 . S
Tb40 O60 2.484 . S
Tb40 O61 2.440 . S
Tb40 O62 2.658 . S
Tb40 O63 2.409 . S
Tb40 O64 2.378 . S
Tb40 O68 2.325 . S
Tb40 O71 2.341 . S
Tb41 C51 2.809 . S
Tb41 O62 2.325 . S
Tb41 O65 2.341 . S
Tb41 O66 2.484 . S
Tb41 O67 2.440 . S
Tb41 O68 2.658 . S
Tb41 O69 2.409 . S
Tb41 O70 2.378 . S
C42 Tb40 2.809 . S
C42 C43 1.514 . S
C42 O60 1.248 . S
C42 O61 1.266 . S
C43 C42 1.514 . S
C43 C44 1.359 . S
C43 C48 1.348 . S
C44 C43 1.359 . S
C44 C45 1.380 . S
C44 H72 0.929 . S
C45 C44 1.380 . S
C45 C46 1.347 . S
C45 H73 0.931 . S
C46 C45 1.347 . S
C46 C47 1.369 . S
C47 C46 1.369 . S
C47 C48 1.408 . S
C47 H74 0.930 . S
C48 C43 1.348 . S
C48 C47 1.408 . S
C48 H75 0.930 . S
C49 O62 1.281 . S
C49 O63 1.254 . S
C50 O64 1.236 . S
C50 O65 1.266 . S
C51 Tb41 2.809 . S
C51 C52 1.514 . S
C51 O66 1.248 . S
C51 O67 1.266 . S
C52 C51 1.514 . S
C52 C53 1.359 . S
C52 C57 1.348 . S
C53 C52 1.359 . S
C53 C54 1.380 1_556 S
C53 H76 0.929 . S
C54 C53 1.380 1_554 S
C54 C55 1.347 . S
C54 H77 0.931 . S
C55 C54 1.347 . S
C55 C56 1.369 1_554 S
C56 C55 1.369 1_556 S
C56 C57 1.408 . S
C56 H78 0.930 1_556 S
C57 C52 1.348 . S
C57 C56 1.408 . S
C57 H79 0.930 . S
C58 O68 1.281 . S
C58 O69 1.254 . S
C59 O70 1.236 . S
C59 O71 1.266 . S
O60 Tb40 2.484 . S
O60 C42 1.248 . S
O61 Tb40 2.440 . S
O61 C42 1.266 . S
O62 Tb40 2.658 . S
O62 Tb41 2.325 . S
O62 C49 1.281 . S
O63 Tb40 2.409 . S
O63 C49 1.254 . S
O64 Tb40 2.378 . S
O64 C50 1.236 . S
O65 Tb41 2.341 . S
O65 C50 1.266 . S
O66 Tb41 2.484 . S
O66 C51 1.248 . S
O67 Tb41 2.440 . S
O67 C51 1.266 . S
O68 Tb40 2.325 . S
O68 Tb41 2.658 . S
O68 C58 1.281 . S
O69 Tb41 2.409 . S
O69 C58 1.254 . S
O70 Tb41 2.378 . S
O70 C59 1.236 . S
O71 Tb40 2.341 . S
O71 C59 1.266 . S
H72 C44 0.929 . S
H73 C45 0.931 . S
H74 C47 0.930 . S
H75 C48 0.930 . S
H76 C53 0.929 . S
H77 C54 0.931 . S
H78 C56 0.930 1_554 S
H79 C57 0.930 . S
Tb80 C82 2.809 . S
Tb80 O100 2.484 1_565 S
Tb80 O101 2.440 . S
Tb80 O102 2.658 1_554 S
Tb80 O103 2.409 . S
Tb80 O104 2.378 1_565 S
Tb80 O108 2.325 1_565 S
Tb80 O111 2.341 1_554 S
Tb81 C91 2.809 . S
Tb81 O102 2.325 1_545 S
Tb81 O105 2.341 1_556 S
Tb81 O106 2.484 1_545 S
Tb81 O107 2.440 . S
Tb81 O108 2.658 1_556 S
Tb81 O109 2.409 . S
Tb81 O110 2.378 1_545 S
C82 Tb80 2.809 . S
C82 C83 1.514 . S
C82 O100 1.248 1_565 S
C82 O101 1.266 . S
C83 C82 1.514 . S
C83 C84 1.359 1_565 S
C83 C88 1.348 . S
C84 C83 1.359 1_545 S
C84 C85 1.380 . S
C84 H112 0.929 . S
C85 C84 1.380 . S
C85 C86 1.347 . S
C85 H113 0.931 . S
C86 C85 1.347 . S
C86 C87 1.369 1_545 S
C87 C86 1.369 1_565 S
C87 C88 1.408 . S
C87 H114 0.930 . S
C88 C83 1.348 . S
C88 C87 1.408 . S
C88 H115 0.930 . S
C89 O102 1.281 . S
C89 O103 1.254 1_556 S
C90 O104 1.236 . S
C90 O105 1.266 . S
C91 Tb81 2.809 . S
C91 C92 1.514 . S
C91 O106 1.248 1_545 S
C91 O107 1.266 . S
C92 C91 1.514 . S
C92 C93 1.359 1_545 S
C92 C97 1.348 . S
C93 C92 1.359 1_565 S
C93 C94 1.380 . S
C93 H116 0.929 . S
C94 C93 1.380 . S
C94 C95 1.347 . S
C94 H117 0.931 . S
C95 C94 1.347 . S
C95 C96 1.369 1_565 S
C96 C95 1.369 1_545 S
C96 C97 1.408 . S
C96 H118 0.930 . S
C97 C92 1.348 . S
C97 C96 1.408 . S
C97 H119 0.930 . S
C98 O108 1.281 . S
C98 O109 1.254 1_554 S
C99 O110 1.236 . S
C99 O111 1.266 . S
O100 Tb80 2.484 1_545 S
O100 C82 1.248 1_545 S
O101 Tb80 2.440 . S
O101 C82 1.266 . S
O102 Tb80 2.658 1_556 S
O102 Tb81 2.325 1_565 S
O102 C89 1.281 . S
O103 Tb80 2.409 . S
O103 C89 1.254 1_554 S
O104 Tb80 2.378 1_545 S
O104 C90 1.236 . S
O105 Tb81 2.341 1_554 S
O105 C90 1.266 . S
O106 Tb81 2.484 1_565 S
O106 C91 1.248 1_565 S
O107 Tb81 2.440 . S
O107 C91 1.266 . S
O108 Tb80 2.325 1_545 S
O108 Tb81 2.658 1_554 S
O108 C98 1.281 . S
O109 Tb81 2.409 . S
O109 C98 1.254 1_556 S
O110 Tb81 2.378 1_565 S
O110 C99 1.236 . S
O111 Tb80 2.341 1_556 S
O111 C99 1.266 . S
H112 C84 0.929 . S
H113 C85 0.931 . S
H114 C87 0.930 . S
H115 C88 0.930 . S
H116 C93 0.929 . S
H117 C94 0.931 . S
H118 C96 0.930 . S
H119 C97 0.930 . S
Tb120 C122 2.809 . S
Tb120 O140 2.484 . S
Tb120 O141 2.440 . S
Tb120 O142 2.658 . S
Tb120 O143 2.409 . S
Tb120 O144 2.378 . S
Tb120 O148 2.325 . S
Tb120 O151 2.341 . S
Tb121 C131 2.809 . S
Tb121 O142 2.325 . S
Tb121 O145 2.341 . S
Tb121 O146 2.484 . S
Tb121 O147 2.440 . S
Tb121 O148 2.658 . S
Tb121 O149 2.409 . S
Tb121 O150 2.378 . S
C122 Tb120 2.809 . S
C122 C123 1.514 . S
C122 O140 1.248 . S
C122 O141 1.266 . S
C123 C122 1.514 . S
C123 C124 1.359 . S
C123 C128 1.348 . S
C124 C123 1.359 . S
C124 C125 1.380 . S
C124 H152 0.929 . S
C125 C124 1.380 . S
C125 C126 1.347 . S
C125 H153 0.931 . S
C126 C125 1.347 . S
C126 C127 1.369 . S
C127 C126 1.369 . S
C127 C128 1.408 . S
C127 H154 0.930 . S
C128 C123 1.348 . S
C128 C127 1.408 . S
C128 H155 0.930 . S
C129 O142 1.281 . S
C129 O143 1.254 . S
C130 O144 1.236 . S
C130 O145 1.266 . S
C131 Tb121 2.809 . S
C131 C132 1.514 . S
C131 O146 1.248 . S
C131 O147 1.266 . S
C132 C131 1.514 . S
C132 C133 1.359 . S
C132 C137 1.348 . S
C133 C132 1.359 . S
C133 C134 1.380 1_554 S
C133 H156 0.929 . S
C134 C133 1.380 1_556 S
C134 C135 1.347 . S
C134 H157 0.931 . S
C135 C134 1.347 . S
C135 C136 1.369 . S
C136 C135 1.369 . S
C136 C137 1.408 1_556 S
C136 H158 0.930 . S
C137 C132 1.348 . S
C137 C136 1.408 1_554 S
C137 H159 0.930 . S
C138 O148 1.281 . S
C138 O149 1.254 . S
C139 O150 1.236 . S
C139 O151 1.266 . S
O140 Tb120 2.484 . S
O140 C122 1.248 . S
O141 Tb120 2.440 . S
O141 C122 1.266 . S
O142 Tb120 2.658 . S
O142 Tb121 2.325 . S
O142 C129 1.281 . S
O143 Tb120 2.409 . S
O143 C129 1.254 . S
O144 Tb120 2.378 . S
O144 C130 1.236 . S
O145 Tb121 2.341 . S
O145 C130 1.266 . S
O146 Tb121 2.484 . S
O146 C131 1.248 . S
O147 Tb121 2.440 . S
O147 C131 1.266 . S
O148 Tb120 2.325 . S
O148 Tb121 2.658 . S
O148 C138 1.281 . S
O149 Tb121 2.409 . S
O149 C138 1.254 . S
O150 Tb121 2.378 . S
O150 C139 1.236 . S
O151 Tb120 2.341 . S
O151 C139 1.266 . S
H152 C124 0.929 . S
H153 C125 0.931 . S
H154 C127 0.930 . S
H155 C128 0.930 . S
H156 C133 0.929 . S
H157 C134 0.931 . S
H158 C136 0.930 . S
H159 C137 0.930 . S
Tb160 C162 2.809 . S
Tb160 O180 2.484 . S
Tb160 O181 2.440 . S
Tb160 O182 2.658 . S
Tb160 O183 2.409 . S
Tb160 O184 2.378 . S
Tb160 O188 2.325 . S
Tb160 O191 2.341 . S
Tb161 C171 2.809 . S
Tb161 O182 2.325 . S
Tb161 O185 2.341 . S
Tb161 O186 2.484 . S
Tb161 O187 2.440 . S
Tb161 O188 2.658 . S
Tb161 O189 2.409 . S
Tb161 O190 2.378 . S
C162 Tb160 2.809 . S
C162 C163 1.514 . S
C162 O180 1.248 . S
C162 O181 1.266 . S
C163 C162 1.514 . S
C163 C164 1.359 . S
C163 C168 1.348 . S
C164 C163 1.359 . S
C164 C165 1.380 1_554 S
C164 H192 0.929 . S
C165 C164 1.380 1_556 S
C165 C166 1.347 . S
C165 H193 0.931 . S
C166 C165 1.347 . S
C166 C167 1.369 1_556 S
C167 C166 1.369 1_554 S
C167 C168 1.408 . S
C167 H194 0.930 1_554 S
C168 C163 1.348 . S
C168 C167 1.408 . S
C168 H195 0.930 . S
C169 O182 1.281 . S
C169 O183 1.254 . S
C170 O184 1.236 . S
C170 O185 1.266 . S
C171 Tb161 2.809 . S
C171 C172 1.514 . S
C171 O186 1.248 . S
C171 O187 1.266 . S
C172 C171 1.514 . S
C172 C173 1.359 . S
C172 C177 1.348 . S
C173 C172 1.359 . S
C173 C174 1.380 . S
C173 H196 0.929 . S
C174 C173 1.380 . S
C174 C175 1.347 . S
C174 H197 0.931 . S
C175 C174 1.347 . S
C175 C176 1.369 . S
C176 C175 1.369 . S
C176 C177 1.408 . S
C176 H198 0.930 . S
C177 C172 1.348 . S
C177 C176 1.408 . S
C177 H199 0.930 . S
C178 O188 1.281 . S
C178 O189 1.254 . S
C179 O190 1.236 . S
C179 O191 1.266 . S
O180 Tb160 2.484 . S
O180 C162 1.248 . S
O181 Tb160 2.440 . S
O181 C162 1.266 . S
O182 Tb160 2.658 . S
O182 Tb161 2.325 . S
O182 C169 1.281 . S
O183 Tb160 2.409 . S
O183 C169 1.254 . S
O184 Tb160 2.378 . S
O184 C170 1.236 . S
O185 Tb161 2.341 . S
O185 C170 1.266 . S
O186 Tb161 2.484 . S
O186 C171 1.248 . S
O187 Tb161 2.440 . S
O187 C171 1.266 . S
O188 Tb160 2.325 . S
O188 Tb161 2.658 . S
O188 C178 1.281 . S
O189 Tb161 2.409 . S
O189 C178 1.254 . S
O190 Tb161 2.378 . S
O190 C179 1.236 . S
O191 Tb160 2.341 . S
O191 C179 1.266 . S
H192 C164 0.929 . S
H193 C165 0.931 . S
H194 C167 0.930 1_556 S
H195 C168 0.930 . S
H196 C173 0.929 . S
H197 C174 0.931 . S
H198 C176 0.930 . S
H199 C177 0.930 . S
Tb200 C202 2.809 . S
Tb200 O220 2.484 . S
Tb200 O221 2.440 . S
Tb200 O222 2.658 . S
Tb200 O223 2.409 . S
Tb200 O224 2.378 . S
Tb200 O228 2.325 . S
Tb200 O231 2.341 . S
Tb201 C211 2.809 . S
Tb201 O222 2.325 . S
Tb201 O225 2.341 . S
Tb201 O226 2.484 . S
Tb201 O227 2.440 . S
Tb201 O228 2.658 . S
Tb201 O229 2.409 . S
Tb201 O230 2.378 . S
C202 Tb200 2.809 . S
C202 C203 1.514 . S
C202 O220 1.248 . S
C202 O221 1.266 . S
C203 C202 1.514 . S
C203 C204 1.359 . S
C203 C208 1.348 . S
C204 C203 1.359 . S
C204 C205 1.380 1_556 S
C204 H232 0.929 . S
C205 C204 1.380 1_554 S
C205 C206 1.347 . S
C205 H233 0.931 . S
C206 C205 1.347 . S
C206 C207 1.369 . S
C207 C206 1.369 . S
C207 C208 1.408 1_554 S
C207 H234 0.930 . S
C208 C203 1.348 . S
C208 C207 1.408 1_556 S
C208 H235 0.930 . S
C209 O222 1.281 . S
C209 O223 1.254 . S
C210 O224 1.236 . S
C210 O225 1.266 . S
C211 Tb201 2.809 . S
C211 C212 1.514 . S
C211 O226 1.248 . S
C211 O227 1.266 . S
C212 C211 1.514 . S
C212 C213 1.359 . S
C212 C217 1.348 . S
C213 C212 1.359 . S
C213 C214 1.380 . S
C213 H236 0.929 . S
C214 C213 1.380 . S
C214 C215 1.347 . S
C214 H237 0.931 . S
C215 C214 1.347 . S
C215 C216 1.369 . S
C216 C215 1.369 . S
C216 C217 1.408 . S
C216 H238 0.930 . S
C217 C212 1.348 . S
C217 C216 1.408 . S
C217 H239 0.930 . S
C218 O228 1.281 . S
C218 O229 1.254 . S
C219 O230 1.236 . S
C219 O231 1.266 . S
O220 Tb200 2.484 . S
O220 C202 1.248 . S
O221 Tb200 2.440 . S
O221 C202 1.266 . S
O222 Tb200 2.658 . S
O222 Tb201 2.325 . S
O222 C209 1.281 . S
O223 Tb200 2.409 . S
O223 C209 1.254 . S
O224 Tb200 2.378 . S
O224 C210 1.236 . S
O225 Tb201 2.341 . S
O225 C210 1.266 . S
O226 Tb201 2.484 . S
O226 C211 1.248 . S
O227 Tb201 2.440 . S
O227 C211 1.266 . S
O228 Tb200 2.325 . S
O228 Tb201 2.658 . S
O228 C218 1.281 . S
O229 Tb201 2.409 . S
O229 C218 1.254 . S
O230 Tb201 2.378 . S
O230 C219 1.236 . S
O231 Tb200 2.341 . S
O231 C219 1.266 . S
H232 C204 0.929 . S
H233 C205 0.931 . S
H234 C207 0.930 . S
H235 C208 0.930 . S
H236 C213 0.929 . S
H237 C214 0.931 . S
H238 C216 0.930 . S
H239 C217 0.930 . S
Tb240 C242 2.809 . S
Tb240 O260 2.484 . S
Tb240 O261 2.440 . S
Tb240 O262 2.658 1_556 S
Tb240 O263 2.409 . S
Tb240 O264 2.378 . S
Tb240 O268 2.325 . S
Tb240 O271 2.341 . S
Tb241 C251 2.809 . S
Tb241 O262 2.325 . S
Tb241 O265 2.341 . S
Tb241 O266 2.484 . S
Tb241 O267 2.440 . S
Tb241 O268 2.658 1_554 S
Tb241 O269 2.409 . S
Tb241 O270 2.378 . S
C242 Tb240 2.809 . S
C242 C243 1.514 . S
C242 O260 1.248 . S
C242 O261 1.266 . S
C243 C242 1.514 . S
C243 C244 1.359 . S
C243 C248 1.348 . S
C244 C243 1.359 . S
C244 C245 1.380 . S
C244 H272 0.929 . S
C245 C244 1.380 . S
C245 C246 1.347 . S
C245 H273 0.931 . S
C246 C245 1.347 . S
C246 C247 1.369 . S
C247 C246 1.369 . S
C247 C248 1.408 . S
C247 H274 0.930 . S
C248 C243 1.348 . S
C248 C247 1.408 . S
C248 H275 0.930 . S
C249 O262 1.281 . S
C249 O263 1.254 1_554 S
C250 O264 1.236 . S
C250 O265 1.266 1_556 S
C251 Tb241 2.809 . S
C251 C252 1.514 . S
C251 O266 1.248 . S
C251 O267 1.266 . S
C252 C251 1.514 . S
C252 C253 1.359 . S
C252 C257 1.348 . S
C253 C252 1.359 . S
C253 C254 1.380 . S
C253 H276 0.929 . S
C254 C253 1.380 . S
C254 C255 1.347 . S
C254 H277 0.931 . S
C255 C254 1.347 . S
C255 C256 1.369 . S
C256 C255 1.369 . S
C256 C257 1.408 . S
C256 H278 0.930 . S
C257 C252 1.348 . S
C257 C256 1.408 . S
C257 H279 0.930 . S
C258 O268 1.281 . S
C258 O269 1.254 1_556 S
C259 O270 1.236 . S
C259 O271 1.266 1_554 S
O260 Tb240 2.484 . S
O260 C242 1.248 . S
O261 Tb240 2.440 . S
O261 C242 1.266 . S
O262 Tb240 2.658 1_554 S
O262 Tb241 2.325 . S
O262 C249 1.281 . S
O263 Tb240 2.409 . S
O263 C249 1.254 1_556 S
O264 Tb240 2.378 . S
O264 C250 1.236 . S
O265 Tb241 2.341 . S
O265 C250 1.266 1_554 S
O266 Tb241 2.484 . S
O266 C251 1.248 . S
O267 Tb241 2.440 . S
O267 C251 1.266 . S
O268 Tb240 2.325 . S
O268 Tb241 2.658 1_556 S
O268 C258 1.281 . S
O269 Tb241 2.409 . S
O269 C258 1.254 1_554 S
O270 Tb241 2.378 . S
O270 C259 1.236 . S
O271 Tb240 2.341 . S
O271 C259 1.266 1_556 S
H272 C244 0.929 . S
H273 C245 0.931 . S
H274 C247 0.930 . S
H275 C248 0.930 . S
H276 C253 0.929 . S
H277 C254 0.931 . S
H278 C256 0.930 . S
H279 C257 0.930 . S
Tb280 C282 2.809 1_455 S
Tb280 O300 2.484 . S
Tb280 O301 2.440 1_455 S
Tb280 O302 2.658 1_455 S
Tb280 O303 2.409 1_455 S
Tb280 O304 2.378 1_455 S
Tb280 O308 2.325 . S
Tb280 O311 2.341 . S
Tb281 C291 2.809 1_655 S
Tb281 O302 2.325 . S
Tb281 O305 2.341 . S
Tb281 O306 2.484 . S
Tb281 O307 2.440 1_655 S
Tb281 O308 2.658 1_655 S
Tb281 O309 2.409 1_655 S
Tb281 O310 2.378 1_655 S
C282 Tb280 2.809 1_655 S
C282 C283 1.514 . S
C282 O300 1.248 1_655 S
C282 O301 1.266 . S
C283 C282 1.514 . S
C283 C284 1.359 1_655 S
C283 C288 1.348 . S
C284 C283 1.359 1_455 S
C284 C285 1.380 1_455 S
C284 H312 0.929 . S
C285 C284 1.380 1_655 S
C285 C286 1.347 . S
C285 H313 0.931 1_655 S
C286 C285 1.347 . S
C286 C287 1.369 . S
C287 C286 1.369 . S
C287 C288 1.408 . S
C287 H314 0.930 . S
C288 C283 1.348 . S
C288 C287 1.408 . S
C288 H315 0.930 . S
C289 O302 1.281 . S
C289 O303 1.254 . S
C290 O304 1.236 . S
C290 O305 1.266 . S
C291 Tb281 2.809 1_455 S
C291 C292 1.514 . S
C291 O306 1.248 1_455 S
C291 O307 1.266 . S
C292 C291 1.514 . S
C292 C293 1.348 1_455 S
C292 C297 1.348 . S
C293 C292 1.348 1_655 S
C293 C294 1.367 1_655 S
C293 H316 0.954 . S
C294 C293 1.367 1_455 S
C294 C295 1.347 . S
C294 H317 0.931 1_455 S
C295 C294 1.347 . S
C295 C296 1.369 . S
C296 C295 1.369 . S
C296 C297 1.408 . S
C296 H318 0.930 . S
C297 C292 1.348 . S
C297 C296 1.408 . S
C297 H319 0.930 . S
C298 O308 1.281 . S
C298 O309 1.254 . S
C299 O310 1.236 . S
C299 O311 1.266 . S
O300 Tb280 2.484 . S
O300 C282 1.248 1_455 S
O301 Tb280 2.440 1_655 S
O301 C282 1.266 . S
O302 Tb280 2.658 1_655 S
O302 Tb281 2.325 . S
O302 C289 1.281 . S
O303 Tb280 2.409 1_655 S
O303 C289 1.254 . S
O304 Tb280 2.378 1_655 S
O304 C290 1.236 . S
O305 Tb281 2.341 . S
O305 C290 1.266 . S
O306 Tb281 2.484 . S
O306 C291 1.248 1_655 S
O307 Tb281 2.440 1_455 S
O307 C291 1.266 . S
O308 Tb280 2.325 . S
O308 Tb281 2.658 1_455 S
O308 C298 1.281 . S
O309 Tb281 2.409 1_455 S
O309 C298 1.254 . S
O310 Tb281 2.378 1_455 S
O310 C299 1.236 . S
O311 Tb280 2.341 . S
O311 C299 1.266 . S
H312 C284 0.929 . S
H313 C285 0.931 1_455 S
H314 C287 0.930 . S
H315 C288 0.930 . S
H316 C293 0.954 . S
H317 C294 0.931 1_655 S
H318 C296 0.930 . S
H319 C297 0.930 . S
C320 C321 1.349 . S
C320 C322 1.327 . S
C320 H345 0.950 . S
C321 C320 1.349 . S
C321 C337 1.349 . S
C322 C320 1.327 . S
C322 C341 1.429 . S
C322 H346 0.950 . S
C323 C340 1.574 . S
C323 C342 1.368 . S
C323 H347 0.949 . S
H324 C328 0.949 . S
C325 C326 1.349 . S
C325 C327 1.327 . S
C325 H348 0.950 . S
C326 C325 1.349 . S
C326 C338 1.349 . S
C327 C325 1.327 . S
C327 C343 1.429 . S
C327 H349 0.950 . S
C328 H324 0.949 . S
C328 C336 1.574 . S
C328 C344 1.368 . S
H329 C337 0.950 . S
H330 C335 0.950 . S
H331 C336 0.949 . S
H332 C338 0.950 . S
H333 C339 0.950 . S
H334 C340 0.949 . S
C335 H330 0.950 . S
C335 C337 1.327 . S
C335 C341 1.429 . S
C336 C328 1.574 . S
C336 H331 0.949 . S
C336 C342 1.368 . S
C337 C321 1.349 . S
C337 H329 0.950 . S
C337 C335 1.327 . S
C338 C326 1.349 . S
C338 H332 0.950 . S
C338 C339 1.327 . S
C339 H333 0.950 . S
C339 C338 1.327 . S
C339 C343 1.429 . S
C340 C323 1.574 . S
C340 H334 0.949 . S
C340 C344 1.368 . S
C341 C322 1.429 . S
C341 C335 1.429 . S
C341 C342 1.523 . S
C342 C323 1.368 . S
C342 C336 1.368 . S
C342 C341 1.523 . S
C343 C327 1.429 . S
C343 C339 1.429 . S
C343 C344 1.523 . S
C344 C328 1.368 . S
C344 C340 1.368 . S
C344 C343 1.523 . S
H345 C320 0.950 . S
H346 C322 0.950 . S
H347 C323 0.949 . S
H348 C325 0.950 . S
H349 C327 0.950 . S
C350 C351 1.349 . S
C350 C352 1.327 . S
C350 H375 0.950 . S
C351 C350 1.349 . S
C351 C367 1.349 . S
C352 C350 1.327 . S
C352 C371 1.429 . S
C352 H376 0.950 . S
C353 C370 1.574 . S
C353 C372 1.368 . S
C353 H377 0.949 . S
H354 C358 0.949 . S
C355 C356 1.349 . S
C355 C357 1.327 . S
C355 H378 0.950 . S
C356 C355 1.349 . S
C356 C368 1.349 . S
C357 C355 1.327 . S
C357 C373 1.429 . S
C357 H379 0.950 . S
C358 H354 0.949 . S
C358 C366 1.574 . S
C358 C374 1.368 . S
H359 C367 0.950 . S
H360 C365 0.950 . S
H361 C366 0.949 . S
H362 C368 0.950 . S
H363 C369 0.950 . S
H364 C370 0.949 . S
C365 H360 0.950 . S
C365 C367 1.327 . S
C365 C371 1.429 . S
C366 C358 1.574 . S
C366 H361 0.949 . S
C366 C372 1.368 . S
C367 C351 1.349 . S
C367 H359 0.950 . S
C367 C365 1.327 . S
C368 C356 1.349 . S
C368 H362 0.950 . S
C368 C369 1.327 . S
C369 H363 0.950 . S
C369 C368 1.327 . S
C369 C373 1.429 . S
C370 C353 1.574 . S
C370 H364 0.949 . S
C370 C374 1.368 . S
C371 C352 1.429 . S
C371 C365 1.429 . S
C371 C372 1.523 . S
C372 C353 1.368 . S
C372 C366 1.368 . S
C372 C371 1.523 . S
C373 C357 1.429 . S
C373 C369 1.429 . S
C373 C374 1.523 . S
C374 C358 1.368 . S
C374 C370 1.368 . S
C374 C373 1.523 . S
H375 C350 0.950 . S
H376 C352 0.950 . S
H377 C353 0.949 . S
H378 C355 0.950 . S
H379 C357 0.950 . S
C380 C381 1.349 . S
C380 C382 1.327 . S
C380 H405 0.950 . S
C381 C380 1.349 . S
C381 C397 1.349 . S
C382 C380 1.327 . S
C382 C401 1.429 . S
C382 H406 0.950 . S
C383 C400 1.574 . S
C383 C402 1.368 . S
C383 H407 0.949 . S
H384 C388 0.949 . S
C385 C386 1.349 . S
C385 C387 1.327 . S
C385 H408 0.950 . S
C386 C385 1.349 . S
C386 C398 1.349 . S
C387 C385 1.327 . S
C387 C403 1.429 . S
C387 H409 0.950 . S
C388 H384 0.949 . S
C388 C396 1.574 . S
C388 C404 1.368 . S
H389 C397 0.950 . S
H390 C395 0.950 . S
H391 C396 0.949 . S
H392 C398 0.950 . S
H393 C399 0.950 . S
H394 C400 0.949 . S
C395 H390 0.950 . S
C395 C397 1.327 . S
C395 C401 1.429 . S
C396 C388 1.574 . S
C396 H391 0.949 . S
C396 C402 1.368 . S
C397 C381 1.349 . S
C397 H389 0.950 . S
C397 C395 1.327 . S
C398 C386 1.349 . S
C398 H392 0.950 . S
C398 C399 1.327 . S
C399 H393 0.950 . S
C399 C398 1.327 . S
C399 C403 1.429 . S
C400 C383 1.574 . S
C400 H394 0.949 . S
C400 C404 1.368 . S
C401 C382 1.429 . S
C401 C395 1.429 . S
C401 C402 1.523 . S
C402 C383 1.368 . S
C402 C396 1.368 . S
C402 C401 1.523 . S
C403 C387 1.429 . S
C403 C399 1.429 . S
C403 C404 1.523 . S
C404 C388 1.368 . S
C404 C400 1.368 . S
C404 C403 1.523 . S
H405 C380 0.950 . S
H406 C382 0.950 . S
H407 C383 0.949 . S
H408 C385 0.950 . S
H409 C387 0.950 . S
C410 C411 1.349 . S
C410 C412 1.327 . S
C410 H435 0.950 . S
C411 C410 1.349 . S
C411 C427 1.349 . S
C412 C410 1.327 . S
C412 C431 1.429 . S
C412 H436 0.950 . S
C413 C430 1.574 . S
C413 C432 1.368 . S
C413 H437 0.949 . S
H414 C418 0.949 . S
C415 C416 1.349 . S
C415 C417 1.327 . S
C415 H438 0.950 . S
C416 C415 1.349 . S
C416 C428 1.349 . S
C417 C415 1.327 . S
C417 C433 1.429 . S
C417 H439 0.950 . S
C418 H414 0.949 . S
C418 C426 1.574 . S
C418 C434 1.368 . S
H419 C427 0.950 . S
H420 C425 0.950 . S
H421 C426 0.949 . S
H422 C428 0.950 . S
H423 C429 0.950 . S
H424 C430 0.949 . S
C425 H420 0.950 . S
C425 C427 1.327 . S
C425 C431 1.429 . S
C426 C418 1.574 . S
C426 H421 0.949 . S
C426 C432 1.368 . S
C427 C411 1.349 . S
C427 H419 0.950 . S
C427 C425 1.327 . S
C428 C416 1.349 . S
C428 H422 0.950 . S
C428 C429 1.327 . S
C429 H423 0.950 . S
C429 C428 1.327 . S
C429 C433 1.429 . S
C430 C413 1.574 . S
C430 H424 0.949 . S
C430 C434 1.368 . S
C431 C412 1.429 . S
C431 C425 1.429 . S
C431 C432 1.523 . S
C432 C413 1.368 . S
C432 C426 1.368 . S
C432 C431 1.523 . S
C433 C417 1.429 . S
C433 C429 1.429 . S
C433 C434 1.523 . S
C434 C418 1.368 . S
C434 C430 1.368 . S
C434 C433 1.523 . S
H435 C410 0.950 . S
H436 C412 0.950 . S
H437 C413 0.949 . S
H438 C415 0.950 . S
H439 C417 0.950 . S
C440 C441 1.349 . S
C440 C442 1.327 . S
C440 H465 0.950 . S
C441 C440 1.349 . S
C441 C457 1.349 . S
C442 C440 1.327 . S
C442 C461 1.429 . S
C442 H466 0.950 . S
C443 C460 1.574 . S
C443 C462 1.368 . S
C443 H467 0.949 . S
H444 C448 0.949 . S
C445 C446 1.349 . S
C445 C447 1.327 . S
C445 H468 0.950 . S
C446 C445 1.349 . S
C446 C458 1.349 . S
C447 C445 1.327 . S
C447 C463 1.429 . S
C447 H469 0.950 . S
C448 H444 0.949 . S
C448 C456 1.574 . S
C448 C464 1.368 . S
H449 C457 0.950 . S
H450 C455 0.950 . S
H451 C456 0.949 . S
H452 C458 0.950 . S
H453 C459 0.950 . S
H454 C460 0.949 . S
C455 H450 0.950 . S
C455 C457 1.327 . S
C455 C461 1.429 . S
C456 C448 1.574 . S
C456 H451 0.949 . S
C456 C462 1.368 . S
C457 C441 1.349 . S
C457 H449 0.950 . S
C457 C455 1.327 . S
C458 C446 1.349 . S
C458 H452 0.950 . S
C458 C459 1.327 . S
C459 H453 0.950 . S
C459 C458 1.327 . S
C459 C463 1.429 . S
C460 C443 1.574 . S
C460 H454 0.949 . S
C460 C464 1.368 . S
C461 C442 1.429 . S
C461 C455 1.429 . S
C461 C462 1.523 . S
C462 C443 1.368 . S
C462 C456 1.368 . S
C462 C461 1.523 . S
C463 C447 1.429 . S
C463 C459 1.429 . S
C463 C464 1.523 . S
C464 C448 1.368 . S
C464 C460 1.368 . S
C464 C463 1.523 . S
H465 C440 0.950 . S
H466 C442 0.950 . S
H467 C443 0.949 . S
H468 C445 0.950 . S
H469 C447 0.950 . S
C470 C471 1.349 . S
C470 C472 1.327 . S
C470 H495 0.950 . S
C471 C470 1.349 . S
C471 C487 1.349 . S
C472 C470 1.327 . S
C472 C491 1.429 . S
C472 H496 0.950 . S
C473 C490 1.574 . S
C473 C492 1.368 . S
C473 H497 0.949 . S
H474 C478 0.949 . S
C475 C476 1.349 . S
C475 C477 1.327 . S
C475 H498 0.950 . S
C476 C475 1.349 . S
C476 C488 1.349 . S
C477 C475 1.327 . S
C477 C493 1.429 . S
C477 H499 0.950 . S
C478 H474 0.949 . S
C478 C486 1.574 . S
C478 C494 1.368 . S
H479 C487 0.950 . S
H480 C485 0.950 . S
H481 C486 0.949 . S
H482 C488 0.950 . S
H483 C489 0.950 . S
H484 C490 0.949 . S
C485 H480 0.950 . S
C485 C487 1.327 . S
C485 C491 1.429 . S
C486 C478 1.574 . S
C486 H481 0.949 . S
C486 C492 1.368 . S
C487 C471 1.349 . S
C487 H479 0.950 . S
C487 C485 1.327 . S
C488 C476 1.349 . S
C488 H482 0.950 . S
C488 C489 1.327 . S
C489 H483 0.950 . S
C489 C488 1.327 . S
C489 C493 1.429 . S
C490 C473 1.574 . S
C490 H484 0.949 . S
C490 C494 1.368 . S
C491 C472 1.429 . S
C491 C485 1.429 . S
C491 C492 1.523 . S
C492 C473 1.368 . S
C492 C486 1.368 . S
C492 C491 1.523 . S
C493 C477 1.429 . S
C493 C489 1.429 . S
C493 C494 1.523 . S
C494 C478 1.368 . S
C494 C490 1.368 . S
C494 C493 1.523 . S
H495 C470 0.950 . S
H496 C472 0.950 . S
H497 C473 0.949 . S
H498 C475 0.950 . S
H499 C477 0.950 . S
C500 C501 1.349 . S
C500 C502 1.327 . S
C500 H525 0.950 . S
C501 C500 1.349 . S
C501 C517 1.349 . S
C502 C500 1.327 . S
C502 C521 1.429 . S
C502 H526 0.950 . S
C503 C520 1.574 . S
C503 C522 1.368 . S
C503 H527 0.949 . S
H504 C508 0.949 . S
C505 C506 1.349 . S
C505 C507 1.327 . S
C505 H528 0.950 1_554 S
C506 C505 1.349 . S
C506 C518 1.349 . S
C507 C505 1.327 . S
C507 C523 1.429 . S
C507 H529 0.950 . S
C508 H504 0.949 . S
C508 C516 1.574 . S
C508 C524 1.368 . S
H509 C517 0.950 . S
H510 C515 0.950 . S
H511 C516 0.949 . S
H512 C518 0.950 . S
H513 C519 0.950 . S
H514 C520 0.949 . S
C515 H510 0.950 . S
C515 C517 1.327 . S
C515 C521 1.429 . S
C516 C508 1.574 . S
C516 H511 0.949 . S
C516 C522 1.368 . S
C517 C501 1.349 . S
C517 H509 0.950 . S
C517 C515 1.327 . S
C518 C506 1.349 . S
C518 H512 0.950 . S
C518 C519 1.327 . S
C519 H513 0.950 . S
C519 C518 1.327 . S
C519 C523 1.429 . S
C520 C503 1.574 . S
C520 H514 0.949 . S
C520 C524 1.368 . S
C521 C502 1.429 . S
C521 C515 1.429 . S
C521 C522 1.523 . S
C522 C503 1.368 . S
C522 C516 1.368 . S
C522 C521 1.523 . S
C523 C507 1.429 . S
C523 C519 1.429 . S
C523 C524 1.523 . S
C524 C508 1.368 . S
C524 C520 1.368 . S
C524 C523 1.523 . S
H525 C500 0.950 . S
H526 C502 0.950 . S
H527 C503 0.949 . S
H528 C505 0.950 1_556 S
H529 C507 0.950 . S
C530 C531 1.349 . S
C530 C532 1.327 . S
C530 H555 0.950 . S
C531 C530 1.349 . S
C531 C547 1.349 . S
C532 C530 1.327 . S
C532 C551 1.429 . S
C532 H556 0.950 . S
C533 C550 1.574 . S
C533 C552 1.368 . S
C533 H557 0.949 . S
H534 C538 0.949 . S
C535 C536 1.349 . S
C535 C537 1.327 . S
C535 H558 0.950 . S
C536 C535 1.349 . S
C536 C548 1.349 . S
C537 C535 1.327 . S
C537 C553 1.429 . S
C537 H559 0.950 . S
C538 H534 0.949 . S
C538 C546 1.574 . S
C538 C554 1.368 . S
H539 C547 0.950 . S
H540 C545 0.950 . S
H541 C546 0.949 . S
H542 C548 0.950 . S
H543 C549 0.950 . S
H544 C550 0.949 . S
C545 H540 0.950 . S
C545 C547 1.327 . S
C545 C551 1.429 . S
C546 C538 1.574 . S
C546 H541 0.949 . S
C546 C552 1.368 . S
C547 C531 1.349 . S
C547 H539 0.950 . S
C547 C545 1.327 . S
C548 C536 1.349 . S
C548 H542 0.950 . S
C548 C549 1.327 . S
C549 H543 0.950 . S
C549 C548 1.327 . S
C549 C553 1.429 . S
C550 C533 1.574 . S
C550 H544 0.949 . S
C550 C554 1.368 . S
C551 C532 1.429 . S
C551 C545 1.429 . S
C551 C552 1.523 . S
C552 C533 1.368 . S
C552 C546 1.368 . S
C552 C551 1.523 . S
C553 C537 1.429 . S
C553 C549 1.429 . S
C553 C554 1.523 . S
C554 C538 1.368 . S
C554 C550 1.368 . S
C554 C553 1.523 . S
H555 C530 0.950 . S
H556 C532 0.950 . S
H557 C533 0.949 . S
H558 C535 0.950 . S
H559 C537 0.950 . S
C560 C561 1.349 . S
C560 C562 1.327 . S
C560 H585 0.950 . S
C561 C560 1.349 . S
C561 C577 1.349 . S
C562 C560 1.327 . S
C562 C581 1.429 . S
C562 H586 0.950 . S
C563 C580 1.574 . S
C563 C582 1.368 . S
C563 H587 0.949 . S
H564 C568 0.949 . S
C565 C566 1.349 . S
C565 C567 1.327 . S
C565 H588 0.950 . S
C566 C565 1.349 . S
C566 C578 1.349 . S
C567 C565 1.327 . S
C567 C583 1.429 . S
C567 H589 0.950 . S
C568 H564 0.949 . S
C568 C576 1.574 . S
C568 C584 1.368 . S
H569 C577 0.950 . S
H570 C575 0.950 . S
H571 C576 0.949 . S
H572 C578 0.950 . S
H573 C579 0.950 . S
H574 C580 0.949 . S
C575 H570 0.950 . S
C575 C577 1.327 . S
C575 C581 1.429 . S
C576 C568 1.574 . S
C576 H571 0.949 . S
C576 C582 1.368 . S
C577 C561 1.349 . S
C577 H569 0.950 . S
C577 C575 1.327 . S
C578 C566 1.349 . S
C578 H572 0.950 . S
C578 C579 1.327 . S
C579 H573 0.950 . S
C579 C578 1.327 . S
C579 C583 1.429 . S
C580 C563 1.574 . S
C580 H574 0.949 . S
C580 C584 1.368 . S
C581 C562 1.429 . S
C581 C575 1.429 . S
C581 C582 1.523 . S
C582 C563 1.368 . S
C582 C576 1.368 . S
C582 C581 1.523 . S
C583 C567 1.429 . S
C583 C579 1.429 . S
C583 C584 1.523 . S
C584 C568 1.368 . S
C584 C580 1.368 . S
C584 C583 1.523 . S
H585 C560 0.950 . S
H586 C562 0.950 . S
H587 C563 0.949 . S
H588 C565 0.950 . S
H589 C567 0.950 . S
C590 C591 1.349 . S
C590 C592 1.327 . S
C590 H615 0.950 . S
C591 C590 1.349 . S
C591 C607 1.349 . S
C592 C590 1.327 . S
C592 C611 1.429 . S
C592 H616 0.950 . S
C593 C610 1.574 . S
C593 C612 1.368 . S
C593 H617 0.949 . S
H594 C598 0.949 . S
C595 C596 1.349 . S
C595 C597 1.327 . S
C595 H618 0.950 . S
C596 C595 1.349 . S
C596 C608 1.349 . S
C597 C595 1.327 . S
C597 C613 1.429 . S
C597 H619 0.950 . S
C598 H594 0.949 . S
C598 C606 1.574 . S
C598 C614 1.368 . S
H599 C607 0.950 . S
H600 C605 0.950 . S
H601 C606 0.949 . S
H602 C608 0.950 . S
H603 C609 0.950 . S
H604 C610 0.949 . S
C605 H600 0.950 . S
C605 C607 1.327 . S
C605 C611 1.429 . S
C606 C598 1.574 . S
C606 H601 0.949 . S
C606 C612 1.368 . S
C607 C591 1.349 . S
C607 H599 0.950 . S
C607 C605 1.327 . S
C608 C596 1.349 . S
C608 H602 0.950 . S
C608 C609 1.327 . S
C609 H603 0.950 . S
C609 C608 1.327 . S
C609 C613 1.429 . S
C610 C593 1.574 . S
C610 H604 0.949 . S
C610 C614 1.368 . S
C611 C592 1.429 . S
C611 C605 1.429 . S
C611 C612 1.523 . S
C612 C593 1.368 . S
C612 C606 1.368 . S
C612 C611 1.523 . S
C613 C597 1.429 . S
C613 C609 1.429 . S
C613 C614 1.523 . S
C614 C598 1.368 . S
C614 C610 1.368 . S
C614 C613 1.523 . S
H615 C590 0.950 . S
H616 C592 0.950 . S
H617 C593 0.949 . S
H618 C595 0.950 . S
H619 C597 0.950 . S
C620 C621 1.349 . S
C620 C622 1.327 . S
C620 H645 0.950 . S
C621 C620 1.349 . S
C621 C637 1.349 . S
C622 C620 1.327 . S
C622 C641 1.429 . S
C622 H646 0.950 . S
C623 C640 1.574 . S
C623 C642 1.368 . S
C623 H647 0.949 . S
H624 C628 0.949 . S
C625 C626 1.349 . S
C625 C627 1.327 . S
C625 H648 0.950 . S
C626 C625 1.349 . S
C626 C638 1.349 . S
C627 C625 1.327 . S
C627 C643 1.429 . S
C627 H649 0.950 . S
C628 H624 0.949 . S
C628 C636 1.574 . S
C628 C644 1.368 . S
H629 C637 0.950 . S
H630 C635 0.950 . S
H631 C636 0.949 . S
H632 C638 0.950 . S
H633 C639 0.950 . S
H634 C640 0.949 . S
C635 H630 0.950 . S
C635 C637 1.327 . S
C635 C641 1.429 . S
C636 C628 1.574 . S
C636 H631 0.949 . S
C636 C642 1.368 . S
C637 C621 1.349 . S
C637 H629 0.950 . S
C637 C635 1.327 . S
C638 C626 1.349 . S
C638 H632 0.950 . S
C638 C639 1.327 . S
C639 H633 0.950 . S
C639 C638 1.327 . S
C639 C643 1.429 . S
C640 C623 1.574 . S
C640 H634 0.949 . S
C640 C644 1.368 . S
C641 C622 1.429 . S
C641 C635 1.429 . S
C641 C642 1.523 . S
C642 C623 1.368 . S
C642 C636 1.368 . S
C642 C641 1.523 . S
C643 C627 1.429 . S
C643 C639 1.429 . S
C643 C644 1.523 . S
C644 C628 1.368 . S
C644 C640 1.368 . S
C644 C643 1.523 . S
H645 C620 0.950 . S
H646 C622 0.950 . S
H647 C623 0.949 . S
H648 C625 0.950 . S
H649 C627 0.950 . S
C650 C651 1.349 . S
C650 C652 1.327 . S
C650 H675 0.950 . S
C651 C650 1.349 . S
C651 C667 1.349 . S
C652 C650 1.327 . S
C652 C671 1.429 . S
C652 H676 0.950 . S
C653 C670 1.574 . S
C653 C672 1.368 . S
C653 H677 0.949 . S
H654 C658 0.949 . S
C655 C656 1.349 . S
C655 C657 1.327 . S
C655 H678 0.950 . S
C656 C655 1.349 . S
C656 C668 1.349 . S
C657 C655 1.327 . S
C657 C673 1.429 . S
C657 H679 0.950 . S
C658 H654 0.949 . S
C658 C666 1.574 . S
C658 C674 1.368 . S
H659 C667 0.950 . S
H660 C665 0.950 . S
H661 C666 0.949 . S
H662 C668 0.950 . S
H663 C669 0.950 . S
H664 C670 0.949 . S
C665 H660 0.950 . S
C665 C667 1.327 . S
C665 C671 1.429 . S
C666 C658 1.574 . S
C666 H661 0.949 . S
C666 C672 1.368 . S
C667 C651 1.349 . S
C667 H659 0.950 . S
C667 C665 1.327 . S
C668 C656 1.349 . S
C668 H662 0.950 . S
C668 C669 1.327 . S
C669 H663 0.950 . S
C669 C668 1.327 . S
C669 C673 1.429 . S
C670 C653 1.574 . S
C670 H664 0.949 . S
C670 C674 1.368 . S
C671 C652 1.429 . S
C671 C665 1.429 . S
C671 C672 1.523 . S
C672 C653 1.368 . S
C672 C666 1.368 . S
C672 C671 1.523 . S
C673 C657 1.429 . S
C673 C669 1.429 . S
C673 C674 1.523 . S
C674 C658 1.368 . S
C674 C670 1.368 . S
C674 C673 1.523 . S
H675 C650 0.950 . S
H676 C652 0.950 . S
H677 C653 0.949 . S
H678 C655 0.950 . S
H679 C657 0.950 . S
C680 C681 1.349 . S
C680 C682 1.327 . S
C680 H705 0.950 . S
C681 C680 1.349 . S
C681 C697 1.349 . S
C682 C680 1.327 . S
C682 C701 1.429 . S
C682 H706 0.950 . S
C683 C700 1.574 . S
C683 C702 1.368 . S
C683 H707 0.949 . S
H684 C688 0.949 . S
C685 C686 1.349 . S
C685 C687 1.327 . S
C685 H708 0.950 . S
C686 C685 1.349 . S
C686 C698 1.349 . S
C687 C685 1.327 . S
C687 C703 1.429 . S
C687 H709 0.950 . S
C688 H684 0.949 . S
C688 C696 1.574 . S
C688 C704 1.368 . S
H689 C697 0.950 . S
H690 C695 0.950 . S
H691 C696 0.949 . S
H692 C698 0.924 1_556 S
H693 C699 0.950 . S
H694 C700 0.949 . S
C695 H690 0.950 . S
C695 C697 1.327 . S
C695 C701 1.429 . S
C696 C688 1.574 . S
C696 H691 0.949 . S
C696 C702 1.368 . S
C697 C681 1.349 . S
C697 H689 0.950 . S
C697 C695 1.327 . S
C698 C686 1.349 . S
C698 H692 0.924 1_554 S
C698 C699 1.327 . S
C699 H693 0.950 . S
C699 C698 1.327 . S
C699 C703 1.429 . S
C700 C683 1.574 . S
C700 H694 0.949 . S
C700 C704 1.368 . S
C701 C682 1.429 . S
C701 C695 1.429 . S
C701 C702 1.523 . S
C702 C683 1.368 . S
C702 C696 1.368 . S
C702 C701 1.523 . S
C703 C687 1.429 . S
C703 C699 1.429 . S
C703 C704 1.523 . S
C704 C688 1.368 . S
C704 C700 1.368 . S
C704 C703 1.523 . S
H705 C680 0.950 . S
H706 C682 0.950 . S
H707 C683 0.949 . S
H708 C685 0.950 . S
H709 C687 0.950 . S
C710 C711 1.349 . S
C710 C712 1.327 . S
C710 H735 0.950 . S
C711 C710 1.349 . S
C711 C727 1.349 . S
C712 C710 1.327 . S
C712 C731 1.429 . S
C712 H736 0.950 . S
C713 C730 1.574 . S
C713 C732 1.368 . S
C713 H737 0.949 . S
H714 C718 0.949 . S
C715 C716 1.349 . S
C715 C717 1.327 . S
C715 H738 0.950 . S
C716 C715 1.349 . S
C716 C728 1.349 . S
C717 C715 1.327 . S
C717 C733 1.429 . S
C717 H739 0.950 . S
C718 H714 0.949 . S
C718 C726 1.574 . S
C718 C734 1.368 . S
H719 C727 0.950 . S
H720 C725 0.950 . S
H721 C726 0.949 . S
H722 C728 0.950 . S
H723 C729 0.950 . S
H724 C730 0.949 . S
C725 H720 0.950 . S
C725 C727 1.327 . S
C725 C731 1.429 . S
C726 C718 1.574 . S
C726 H721 0.949 . S
C726 C732 1.368 . S
C727 C711 1.349 . S
C727 H719 0.950 . S
C727 C725 1.327 . S
C728 C716 1.349 . S
C728 H722 0.950 . S
C728 C729 1.327 . S
C729 H723 0.950 . S
C729 C728 1.327 . S
C729 C733 1.429 . S
C730 C713 1.574 . S
C730 H724 0.949 . S
C730 C734 1.368 . S
C731 C712 1.429 . S
C731 C725 1.429 . S
C731 C732 1.523 . S
C732 C713 1.368 . S
C732 C726 1.368 . S
C732 C731 1.523 . S
C733 C717 1.429 . S
C733 C729 1.429 . S
C733 C734 1.523 . S
C734 C718 1.368 . S
C734 C730 1.368 . S
C734 C733 1.523 . S
H735 C710 0.950 . S
H736 C712 0.950 . S
H737 C713 0.949 . S
H738 C715 0.950 . S
H739 C717 0.950 . S
C740 C741 1.349 . S
C740 C742 1.327 . S
C740 H765 0.950 . S
C741 C740 1.349 . S
C741 C757 1.349 . S
C742 C740 1.327 . S
C742 C761 1.429 . S
C742 H766 0.950 . S
C743 C760 1.574 . S
C743 C762 1.368 . S
C743 H767 0.949 . S
H744 C748 0.949 . S
C745 C746 1.349 . S
C745 C747 1.327 . S
C745 H768 0.950 . S
C746 C745 1.349 . S
C746 C758 1.349 . S
C747 C745 1.327 . S
C747 C763 1.429 . S
C747 H769 0.950 . S
C748 H744 0.949 . S
C748 C756 1.574 . S
C748 C764 1.368 . S
H749 C757 0.950 . S
H750 C755 0.950 . S
H751 C756 0.949 . S
H752 C758 0.950 . S
H753 C759 0.950 . S
H754 C760 0.949 . S
C755 H750 0.950 . S
C755 C757 1.327 . S
C755 C761 1.429 . S
C756 C748 1.574 . S
C756 H751 0.949 . S
C756 C762 1.368 . S
C757 C741 1.349 . S
C757 H749 0.950 . S
C757 C755 1.327 . S
C758 C746 1.349 . S
C758 H752 0.950 . S
C758 C759 1.327 . S
C759 H753 0.950 . S
C759 C758 1.327 . S
C759 C763 1.429 . S
C760 C743 1.574 . S
C760 H754 0.949 . S
C760 C764 1.368 . S
C761 C742 1.429 . S
C761 C755 1.429 . S
C761 C762 1.523 . S
C762 C743 1.368 . S
C762 C756 1.368 . S
C762 C761 1.523 . S
C763 C747 1.429 . S
C763 C759 1.429 . S
C763 C764 1.523 . S
C764 C748 1.368 . S
C764 C760 1.368 . S
C764 C763 1.523 . S
H765 C740 0.950 . S
H766 C742 0.950 . S
H767 C743 0.949 . S
H768 C745 0.950 . S
H769 C747 0.950 . S
C770 C771 1.349 . S
C770 C772 1.327 . S
C770 H795 0.950 . S
C771 C770 1.349 . S
C771 C787 1.349 . S
C772 C770 1.327 . S
C772 C791 1.429 . S
C772 H796 0.950 . S
C773 C790 1.574 . S
C773 C792 1.368 . S
C773 H797 0.949 . S
H774 C778 0.949 . S
C775 C776 1.349 . S
C775 C777 1.327 . S
C775 H798 0.950 . S
C776 C775 1.349 . S
C776 C788 1.349 . S
C777 C775 1.327 . S
C777 C793 1.429 . S
C777 H799 0.950 . S
C778 H774 0.949 . S
C778 C786 1.574 . S
C778 C794 1.368 . S
H779 C787 0.950 . S
H780 C785 0.950 . S
H781 C786 0.949 . S
H782 C788 0.950 . S
H783 C789 0.950 . S
H784 C790 0.949 . S
C785 H780 0.950 . S
C785 C787 1.327 . S
C785 C791 1.429 . S
C786 C778 1.574 . S
C786 H781 0.949 . S
C786 C792 1.368 . S
C787 C771 1.349 . S
C787 H779 0.950 . S
C787 C785 1.327 . S
C788 C776 1.349 . S
C788 H782 0.950 . S
C788 C789 1.327 . S
C789 H783 0.950 . S
C789 C788 1.327 . S
C789 C793 1.429 . S
C790 C773 1.574 . S
C790 H784 0.949 . S
C790 C794 1.368 . S
C791 C772 1.429 . S
C791 C785 1.429 . S
C791 C792 1.523 . S
C792 C773 1.368 . S
C792 C786 1.368 . S
C792 C791 1.523 . S
C793 C777 1.429 . S
C793 C789 1.429 . S
C793 C794 1.523 . S
C794 C778 1.368 . S
C794 C790 1.368 . S
C794 C793 1.523 . S
H795 C770 0.950 . S
H796 C772 0.950 . S
H797 C773 0.949 . S
H798 C775 0.950 . S
H799 C777 0.950 . S
C800 C801 1.349 . S
C800 C802 1.327 . S
C800 H825 0.950 . S
C801 C800 1.349 . S
C801 C817 1.349 1_545 S
C802 C800 1.327 . S
C802 C821 1.429 . S
C802 H826 0.950 . S
C803 C820 1.574 1_556 S
C803 C822 1.368 1_465 S
C803 H827 0.949 . S
H804 C808 0.949 . S
C805 C806 1.349 . S
C805 C807 1.327 . S
C805 H828 0.950 . S
C806 C805 1.349 . S
C806 C818 1.349 1_565 S
C807 C805 1.327 . S
C807 C823 1.429 . S
C807 H829 0.950 . S
C808 H804 0.949 . S
C808 C816 1.574 1_554 S
C808 C824 1.368 1_645 S
H809 C817 0.954 . S
H810 C815 0.950 1_455 S
H811 C816 0.949 . S
H812 C818 0.958 . S
H813 C819 0.950 1_655 S
H814 C820 0.949 . S
C815 H810 0.950 1_655 S
C815 C817 1.327 . S
C815 C821 1.429 1_565 S
C816 C808 1.574 1_556 S
C816 H811 0.949 . S
C816 C822 1.368 . S
C817 C801 1.349 1_565 S
C817 H809 0.954 . S
C817 C815 1.327 . S
C818 C806 1.349 1_545 S
C818 H812 0.958 . S
C818 C819 1.327 . S
C819 H813 0.950 1_455 S
C819 C818 1.327 . S
C819 C823 1.429 1_545 S
C820 C803 1.574 1_554 S
C820 H814 0.949 . S
C820 C824 1.368 . S
C821 C802 1.429 . S
C821 C815 1.429 1_545 S
C821 C822 1.523 . S
C822 C803 1.368 1_645 S
C822 C816 1.368 . S
C822 C821 1.523 . S
C823 C807 1.429 . S
C823 C819 1.429 1_565 S
C823 C824 1.523 . S
C824 C808 1.368 1_465 S
C824 C820 1.368 . S
C824 C823 1.523 . S
H825 C800 0.950 . S
H826 C802 0.950 . S
H827 C803 0.949 . S
H828 C805 0.950 . S
H829 C807 0.950 . S
C830 C831 1.349 . S
C830 C832 1.327 . S
C830 H855 0.950 . S
C831 C830 1.349 . S
C831 C847 1.349 . S
C832 C830 1.327 . S
C832 C851 1.429 . S
C832 H856 0.950 . S
C833 C850 1.574 . S
C833 C852 1.368 . S
C833 H857 0.949 . S
H834 C838 0.949 . S
C835 C836 1.349 . S
C835 C837 1.327 . S
C835 H858 0.950 . S
C836 C835 1.349 . S
C836 C848 1.349 . S
C837 C835 1.327 . S
C837 C853 1.429 . S
C837 H859 0.950 . S
C838 H834 0.949 . S
C838 C846 1.574 . S
C838 C854 1.368 . S
H839 C847 0.950 . S
H840 C845 0.950 . S
H841 C846 0.949 . S
H842 C848 0.950 . S
H843 C849 0.950 . S
H844 C850 0.949 . S
C845 H840 0.950 . S
C845 C847 1.327 . S
C845 C851 1.429 . S
C846 C838 1.574 . S
C846 H841 0.949 . S
C846 C852 1.368 . S
C847 C831 1.349 . S
C847 H839 0.950 . S
C847 C845 1.327 . S
C848 C836 1.349 . S
C848 H842 0.950 . S
C848 C849 1.327 . S
C849 H843 0.950 . S
C849 C848 1.327 . S
C849 C853 1.429 . S
C850 C833 1.574 . S
C850 H844 0.949 . S
C850 C854 1.368 . S
C851 C832 1.429 . S
C851 C845 1.429 . S
C851 C852 1.523 . S
C852 C833 1.368 . S
C852 C846 1.368 . S
C852 C851 1.523 . S
C853 C837 1.429 . S
C853 C849 1.429 . S
C853 C854 1.523 . S
C854 C838 1.368 . S
C854 C850 1.368 . S
C854 C853 1.523 . S
H855 C830 0.950 . S
H856 C832 0.950 . S
H857 C833 0.949 . S
H858 C835 0.950 . S
H859 C837 0.950 . S
C860 C861 1.349 . S
C860 C862 1.327 . S
C860 H885 0.950 . S
C861 C860 1.349 . S
C861 C877 1.349 1_565 S
C862 C860 1.327 . S
C862 C881 1.429 . S
C862 H886 0.950 . S
C863 C880 1.574 . S
C863 C882 1.368 1_545 S
C863 H887 0.949 . S
H864 C868 0.949 . S
C865 C866 1.349 . S
C865 C867 1.327 . S
C865 H888 0.950 . S
C866 C865 1.349 . S
C866 C878 1.349 1_545 S
C867 C865 1.327 . S
C867 C883 1.429 . S
C867 H889 0.950 . S
C868 H864 0.949 . S
C868 C876 1.574 . S
C868 C884 1.368 1_565 S
H869 C877 0.950 . S
H870 C875 0.950 . S
H871 C876 0.949 . S
H872 C878 0.950 . S
H873 C879 0.950 . S
H874 C880 0.949 . S
C875 H870 0.950 . S
C875 C877 1.327 . S
C875 C881 1.429 1_545 S
C876 C868 1.574 . S
C876 H871 0.949 . S
C876 C882 1.368 . S
C877 C861 1.349 1_545 S
C877 H869 0.950 . S
C877 C875 1.327 . S
C878 C866 1.349 1_565 S
C878 H872 0.950 . S
C878 C879 1.327 . S
C879 H873 0.950 . S
C879 C878 1.327 . S
C879 C883 1.429 1_565 S
C880 C863 1.574 . S
C880 H874 0.949 . S
C880 C884 1.368 . S
C881 C862 1.429 . S
C881 C875 1.429 1_565 S
C881 C882 1.523 . S
C882 C863 1.368 1_565 S
C882 C876 1.368 . S
C882 C881 1.523 . S
C883 C867 1.429 . S
C883 C879 1.429 1_545 S
C883 C884 1.523 . S
C884 C868 1.368 1_545 S
C884 C880 1.368 . S
C884 C883 1.523 . S
H885 C860 0.950 . S
H886 C862 0.950 . S
H887 C863 0.949 . S
H888 C865 0.950 . S
H889 C867 0.950 . S
C890 C891 1.349 . S
C890 C892 1.327 . S
C890 H915 0.950 . S
C891 C890 1.349 . S
C891 C907 1.349 . S
C892 C890 1.327 . S
C892 C911 1.429 . S
C892 H916 0.950 . S
C893 C910 1.574 . S
C893 C912 1.368 . S
C893 H917 0.949 . S
H894 C898 0.949 . S
C895 C896 1.349 . S
C895 C897 1.327 . S
C895 H918 0.950 . S
C896 C895 1.349 . S
C896 C908 1.349 . S
C897 C895 1.327 . S
C897 C913 1.429 . S
C897 H919 0.950 . S
C898 H894 0.949 . S
C898 C906 1.574 . S
C898 C914 1.368 . S
H899 C907 0.950 . S
H900 C905 0.950 . S
H901 C906 0.949 . S
H902 C908 0.950 . S
H903 C909 0.950 . S
H904 C910 0.949 . S
C905 H900 0.950 . S
C905 C907 1.327 . S
C905 C911 1.429 . S
C906 C898 1.574 . S
C906 H901 0.949 . S
C906 C912 1.368 . S
C907 C891 1.349 . S
C907 H899 0.950 . S
C907 C905 1.327 . S
C908 C896 1.349 . S
C908 H902 0.950 . S
C908 C909 1.327 . S
C909 H903 0.950 . S
C909 C908 1.327 . S
C909 C913 1.429 . S
C910 C893 1.574 . S
C910 H904 0.949 . S
C910 C914 1.368 . S
C911 C892 1.429 . S
C911 C905 1.429 . S
C911 C912 1.523 . S
C912 C893 1.368 . S
C912 C906 1.368 . S
C912 C911 1.523 . S
C913 C897 1.429 . S
C913 C909 1.429 . S
C913 C914 1.523 . S
C914 C898 1.368 . S
C914 C910 1.368 . S
C914 C913 1.523 . S
H915 C890 0.950 . S
H916 C892 0.950 . S
H917 C893 0.949 . S
H918 C895 0.950 . S
H919 C897 0.950 . S
C920 C921 1.349 . S
C920 C922 1.327 . S
C920 H945 0.950 . S
C921 C920 1.349 . S
C921 C937 1.349 . S
C922 C920 1.327 . S
C922 C941 1.429 . S
C922 H946 0.950 . S
C923 C940 1.574 . S
C923 C942 1.368 . S
C923 H947 0.949 . S
H924 C928 0.949 . S
C925 C926 1.349 . S
C925 C927 1.327 . S
C925 H948 0.950 . S
C926 C925 1.349 . S
C926 C938 1.349 . S
C927 C925 1.327 . S
C927 C943 1.429 . S
C927 H949 0.950 . S
C928 H924 0.949 . S
C928 C936 1.574 . S
C928 C944 1.368 . S
H929 C937 0.950 . S
H930 C935 0.950 . S
H931 C936 0.949 . S
H932 C938 0.950 . S
H933 C939 0.950 . S
H934 C940 0.949 . S
C935 H930 0.950 . S
C935 C937 1.327 . S
C935 C941 1.429 . S
C936 C928 1.574 . S
C936 H931 0.949 . S
C936 C942 1.368 . S
C937 C921 1.349 . S
C937 H929 0.950 . S
C937 C935 1.327 . S
C938 C926 1.349 . S
C938 H932 0.950 . S
C938 C939 1.327 . S
C939 H933 0.950 . S
C939 C938 1.327 . S
C939 C943 1.429 . S
C940 C923 1.574 . S
C940 H934 0.949 . S
C940 C944 1.368 . S
C941 C922 1.429 . S
C941 C935 1.429 . S
C941 C942 1.523 . S
C942 C923 1.368 . S
C942 C936 1.368 . S
C942 C941 1.523 . S
C943 C927 1.429 . S
C943 C939 1.429 . S
C943 C944 1.523 . S
C944 C928 1.368 . S
C944 C940 1.368 . S
C944 C943 1.523 . S
H945 C920 0.950 . S
H946 C922 0.950 . S
H947 C923 0.949 . S
H948 C925 0.950 . S
H949 C927 0.950 . S
C950 C951 1.349 . S
C950 C952 1.327 . S
C950 H975 0.950 . S
C951 C950 1.349 . S
C951 C967 1.349 . S
C952 C950 1.327 . S
C952 C971 1.429 . S
C952 H976 0.950 . S
C953 C970 1.574 . S
C953 C972 1.368 . S
C953 H977 0.949 . S
H954 C958 0.949 . S
C955 C956 1.349 . S
C955 C957 1.327 . S
C955 H978 0.950 . S
C956 C955 1.349 . S
C956 C968 1.349 . S
C957 C955 1.327 . S
C957 C973 1.429 . S
C957 H979 0.950 . S
C958 H954 0.949 . S
C958 C966 1.574 . S
C958 C974 1.368 . S
H959 C967 0.950 . S
H960 C965 0.950 . S
H961 C966 0.949 . S
H962 C968 0.950 . S
H963 C969 0.950 . S
H964 C970 0.949 . S
C965 H960 0.950 . S
C965 C967 1.327 . S
C965 C971 1.429 . S
C966 C958 1.574 . S
C966 H961 0.949 . S
C966 C972 1.368 . S
C967 C951 1.349 . S
C967 H959 0.950 . S
C967 C965 1.327 . S
C968 C956 1.349 . S
C968 H962 0.950 . S
C968 C969 1.327 . S
C969 H963 0.950 . S
C969 C968 1.327 . S
C969 C973 1.429 . S
C970 C953 1.574 . S
C970 H964 0.949 . S
C970 C974 1.368 . S
C971 C952 1.429 . S
C971 C965 1.429 . S
C971 C972 1.523 . S
C972 C953 1.368 . S
C972 C966 1.368 . S
C972 C971 1.523 . S
C973 C957 1.429 . S
C973 C969 1.429 . S
C973 C974 1.523 . S
C974 C958 1.368 . S
C974 C970 1.368 . S
C974 C973 1.523 . S
H975 C950 0.950 . S
H976 C952 0.950 . S
H977 C953 0.949 . S
H978 C955 0.950 . S
H979 C957 0.950 . S
C980 C981 1.349 . S
C980 C982 1.327 . S
C980 H1005 0.950 . S
C981 C980 1.349 . S
C981 C997 1.349 . S
C982 C980 1.327 . S
C982 C1001 1.429 . S
C982 H1006 0.950 . S
C983 C1000 1.574 . S
C983 C1002 1.368 . S
C983 H1007 0.949 . S
H984 C988 0.949 . S
C985 C986 1.349 . S
C985 C987 1.327 . S
C985 H1008 0.950 . S
C986 C985 1.349 . S
C986 C998 1.349 . S
C987 C985 1.327 . S
C987 C1003 1.429 . S
C987 H1009 0.950 . S
C988 H984 0.949 . S
C988 C996 1.574 . S
C988 C1004 1.368 . S
H989 C997 0.950 . S
H990 C995 0.950 . S
H991 C996 0.949 . S
H992 C998 0.950 . S
H993 C999 0.950 . S
H994 C1000 0.949 . S
C995 H990 0.950 . S
C995 C997 1.327 . S
C995 C1001 1.429 . S
C996 C988 1.574 . S
C996 H991 0.949 . S
C996 C1002 1.368 . S
C997 C981 1.349 . S
C997 H989 0.950 . S
C997 C995 1.327 . S
C998 C986 1.349 . S
C998 H992 0.950 . S
C998 C999 1.327 . S
C999 H993 0.950 . S
C999 C998 1.327 . S
C999 C1003 1.429 . S
C1000 C983 1.574 . S
C1000 H994 0.949 . S
C1000 C1004 1.368 . S
C1001 C982 1.429 . S
C1001 C995 1.429 . S
C1001 C1002 1.523 . S
C1002 C983 1.368 . S
C1002 C996 1.368 . S
C1002 C1001 1.523 . S
C1003 C987 1.429 . S
C1003 C999 1.429 . S
C1003 C1004 1.523 . S
C1004 C988 1.368 . S
C1004 C1000 1.368 . S
C1004 C1003 1.523 . S
H1005 C980 0.950 . S
H1006 C982 0.950 . S
H1007 C983 0.949 . S
H1008 C985 0.950 . S
H1009 C987 0.950 . S
C1010 C1011 1.349 . S
C1010 C1012 1.327 . S
C1010 H1035 0.950 . S
C1011 C1010 1.349 . S
C1011 C1027 1.349 . S
C1012 C1010 1.327 . S
C1012 C1031 1.429 . S
C1012 H1036 0.950 . S
C1013 C1030 1.574 1_556 S
C1013 C1032 1.368 1_455 S
C1013 H1037 0.949 . S
H1014 C1018 0.949 . S
C1015 C1016 1.349 . S
C1015 C1017 1.327 . S
C1015 H1038 0.950 . S
C1016 C1015 1.349 . S
C1016 C1028 1.349 . S
C1017 C1015 1.327 . S
C1017 C1033 1.429 . S
C1017 H1039 0.950 . S
C1018 H1014 0.949 . S
C1018 C1026 1.574 1_554 S
C1018 C1034 1.368 1_655 S
H1019 C1027 0.950 . S
H1020 C1025 0.950 1_455 S
H1021 C1026 0.949 . S
H1022 C1028 0.950 . S
H1023 C1029 0.950 1_655 S
H1024 C1030 0.949 . S
C1025 H1020 0.950 1_655 S
C1025 C1027 1.327 . S
C1025 C1031 1.429 . S
C1026 C1018 1.574 1_556 S
C1026 H1021 0.949 . S
C1026 C1032 1.368 . S
C1027 C1011 1.349 . S
C1027 H1019 0.950 . S
C1027 C1025 1.327 . S
C1028 C1016 1.349 . S
C1028 H1022 0.950 . S
C1028 C1029 1.327 . S
C1029 H1023 0.950 1_455 S
C1029 C1028 1.327 . S
C1029 C1033 1.429 . S
C1030 C1013 1.574 1_554 S
C1030 H1024 0.949 . S
C1030 C1034 1.368 . S
C1031 C1012 1.429 . S
C1031 C1025 1.429 . S
C1031 C1032 1.523 . S
C1032 C1013 1.368 1_655 S
C1032 C1026 1.368 . S
C1032 C1031 1.523 . S
C1033 C1017 1.429 . S
C1033 C1029 1.429 . S
C1033 C1034 1.523 . S
C1034 C1018 1.368 1_455 S
C1034 C1030 1.368 . S
C1034 C1033 1.523 . S
H1035 C1010 0.950 . S
H1036 C1012 0.950 . S
H1037 C1013 0.949 . S
H1038 C1015 0.950 . S
H1039 C1017 0.950 . S
C321 C10 2.145 . S
C326 C130 2.139 . S
C351 C9 1.501 . S
C356 C50 1.527 . S
C381 C49 0.800 . S
C386 C89 0.802 . S
C411 C90 1.527 . S
C416 C129 1.497 . S
C441 C19 2.145 . S
C446 C219 2.151 . S
C471 C18 1.501 . S
C476 C179 1.527 . S
C501 C178 0.800 . S
C506 C98 0.797 . S
C531 C218 1.501 . S
C536 C99 1.531 . S
C561 C250 2.145 . S
C566 C210 2.146 . S
C591 C170 1.527 . S
C596 C249 1.500 . S
C621 C289 0.799 . S
C626 C169 0.801 . S
C651 C209 1.501 . S
C656 C290 1.530 . S
C681 C139 2.145 . S
C686 C259 2.144 . S
C711 C258 1.501 . S
C716 C59 1.529 . S
C741 C58 0.800 . S
C746 C298 0.796 . S
C771 C138 1.501 . S
C776 C299 1.524 . S
C801 C15 1.501 . S
C806 C6 1.501 . S
C831 C46 1.473 . S
C836 C55 1.473 . S
C861 C95 1.473 . S
C866 C86 1.473 . S
C891 C135 1.501 . S
C896 C126 1.501 . S
C921 C166 1.473 . S
C926 C175 1.473 . S
C951 C215 1.501 . S
C956 C206 1.501 . S
C981 C246 1.501 . S
C986 C255 1.501 . S
C1011 C286 1.473 . S
C1016 C295 1.473 . S
