# Generated by pormake.
# Topology zni, (4)-cn, num edge types: 1
# Building blocks:
#     Node 0, Type 0, BuildingBlock: QUQFOY_clean_sbu_1, # of connection points: 4
#     Node 1, Type 0, BuildingBlock: QUQFOY_clean_sbu_1, # of connection points: 4
#     Node 2, Type 0, BuildingBlock: QUQFOY_clean_sbu_1, # of connection points: 4
#     Node 3, Type 0, BuildingBlock: QUQFOY_clean_sbu_1, # of connection points: 4
#     Node 4, Type 0, BuildingBlock: QUQFOY_clean_sbu_1, # of connection points: 4
#     Node 5, Type 0, BuildingBlock: QUQFOY_clean_sbu_1, # of connection points: 4
#     Node 6, Type 0, BuildingBlock: QUQFOY_clean_sbu_1, # of connection points: 4
#     Node 7, Type 0, BuildingBlock: QUQFOY_clean_sbu_1, # of connection points: 4
#     Node 8, Type 0, BuildingBlock: QUQFOY_clean_sbu_1, # of connection points: 4
#     Node 9, Type 0, BuildingBlock: QUQFOY_clean_sbu_1, # of connection points: 4
#     Node 10, Type 0, BuildingBlock: QUQFOY_clean_sbu_1, # of connection points: 4
#     Node 11, Type 0, BuildingBlock: QUQFOY_clean_sbu_1, # of connection points: 4
#     Node 12, Type 0, BuildingBlock: QUQFOY_clean_sbu_1, # of connection points: 4
#     Node 13, Type 0, BuildingBlock: QUQFOY_clean_sbu_1, # of connection points: 4
#     Node 14, Type 0, BuildingBlock: QUQFOY_clean_sbu_1, # of connection points: 4
#     Node 15, Type 0, BuildingBlock: QUQFOY_clean_sbu_1, # of connection points: 4
#     Node 16, Type 0, BuildingBlock: QUQFOY_clean_sbu_1, # of connection points: 4
#     Node 17, Type 0, BuildingBlock: QUQFOY_clean_sbu_1, # of connection points: 4
#     Node 18, Type 0, BuildingBlock: QUQFOY_clean_sbu_1, # of connection points: 4
#     Node 19, Type 0, BuildingBlock: QUQFOY_clean_sbu_1, # of connection points: 4
#     Node 20, Type 0, BuildingBlock: QUQFOY_clean_sbu_1, # of connection points: 4
#     Node 21, Type 0, BuildingBlock: QUQFOY_clean_sbu_1, # of connection points: 4
#     Node 22, Type 0, BuildingBlock: QUQFOY_clean_sbu_1, # of connection points: 4
#     Node 23, Type 0, BuildingBlock: QUQFOY_clean_sbu_1, # of connection points: 4
#     Node 24, Type 0, BuildingBlock: QUQFOY_clean_sbu_1, # of connection points: 4
#     Node 25, Type 0, BuildingBlock: QUQFOY_clean_sbu_1, # of connection points: 4
#     Node 26, Type 0, BuildingBlock: QUQFOY_clean_sbu_1, # of connection points: 4
#     Node 27, Type 0, BuildingBlock: QUQFOY_clean_sbu_1, # of connection points: 4
#     Node 28, Type 0, BuildingBlock: QUQFOY_clean_sbu_1, # of connection points: 4
#     Node 29, Type 0, BuildingBlock: QUQFOY_clean_sbu_1, # of connection points: 4
#     Node 30, Type 0, BuildingBlock: QUQFOY_clean_sbu_1, # of connection points: 4
#     Node 31, Type 0, BuildingBlock: QUQFOY_clean_sbu_1, # of connection points: 4
#     Edge 32, Type (0, 0), BuildingBlock: XIVTED_clean_linker_0, # of connection points: 2
#     Edge 33, Type (0, 0), BuildingBlock: XIVTED_clean_linker_0, # of connection points: 2
#     Edge 34, Type (0, 0), BuildingBlock: XIVTED_clean_linker_0, # of connection points: 2
#     Edge 35, Type (0, 0), BuildingBlock: XIVTED_clean_linker_0, # of connection points: 2
#     Edge 36, Type (0, 0), BuildingBlock: XIVTED_clean_linker_0, # of connection points: 2
#     Edge 37, Type (0, 0), BuildingBlock: XIVTED_clean_linker_0, # of connection points: 2
#     Edge 38, Type (0, 0), BuildingBlock: XIVTED_clean_linker_0, # of connection points: 2
#     Edge 39, Type (0, 0), BuildingBlock: XIVTED_clean_linker_0, # of connection points: 2
#     Edge 40, Type (0, 0), BuildingBlock: XIVTED_clean_linker_0, # of connection points: 2
#     Edge 41, Type (0, 0), BuildingBlock: XIVTED_clean_linker_0, # of connection points: 2
#     Edge 42, Type (0, 0), BuildingBlock: XIVTED_clean_linker_0, # of connection points: 2
#     Edge 43, Type (0, 0), BuildingBlock: XIVTED_clean_linker_0, # of connection points: 2
#     Edge 44, Type (0, 0), BuildingBlock: XIVTED_clean_linker_0, # of connection points: 2
#     Edge 45, Type (0, 0), BuildingBlock: XIVTED_clean_linker_0, # of connection points: 2
#     Edge 46, Type (0, 0), BuildingBlock: XIVTED_clean_linker_0, # of connection points: 2
#     Edge 47, Type (0, 0), BuildingBlock: XIVTED_clean_linker_0, # of connection points: 2
#     Edge 48, Type (0, 0), BuildingBlock: XIVTED_clean_linker_0, # of connection points: 2
#     Edge 49, Type (0, 0), BuildingBlock: XIVTED_clean_linker_0, # of connection points: 2
#     Edge 50, Type (0, 0), BuildingBlock: XIVTED_clean_linker_0, # of connection points: 2
#     Edge 51, Type (0, 0), BuildingBlock: XIVTED_clean_linker_0, # of connection points: 2
#     Edge 52, Type (0, 0), BuildingBlock: XIVTED_clean_linker_0, # of connection points: 2
#     Edge 53, Type (0, 0), BuildingBlock: XIVTED_clean_linker_0, # of connection points: 2
#     Edge 54, Type (0, 0), BuildingBlock: XIVTED_clean_linker_0, # of connection points: 2
#     Edge 55, Type (0, 0), BuildingBlock: XIVTED_clean_linker_0, # of connection points: 2
#     Edge 56, Type (0, 0), BuildingBlock: XIVTED_clean_linker_0, # of connection points: 2
#     Edge 57, Type (0, 0), BuildingBlock: XIVTED_clean_linker_0, # of connection points: 2
#     Edge 58, Type (0, 0), BuildingBlock: XIVTED_clean_linker_0, # of connection points: 2
#     Edge 59, Type (0, 0), BuildingBlock: XIVTED_clean_linker_0, # of connection points: 2
#     Edge 60, Type (0, 0), BuildingBlock: XIVTED_clean_linker_0, # of connection points: 2
#     Edge 61, Type (0, 0), BuildingBlock: XIVTED_clean_linker_0, # of connection points: 2
#     Edge 62, Type (0, 0), BuildingBlock: XIVTED_clean_linker_0, # of connection points: 2
#     Edge 63, Type (0, 0), BuildingBlock: XIVTED_clean_linker_0, # of connection points: 2
#     Edge 64, Type (0, 0), BuildingBlock: XIVTED_clean_linker_0, # of connection points: 2
#     Edge 65, Type (0, 0), BuildingBlock: XIVTED_clean_linker_0, # of connection points: 2
#     Edge 66, Type (0, 0), BuildingBlock: XIVTED_clean_linker_0, # of connection points: 2
#     Edge 67, Type (0, 0), BuildingBlock: XIVTED_clean_linker_0, # of connection points: 2
#     Edge 68, Type (0, 0), BuildingBlock: XIVTED_clean_linker_0, # of connection points: 2
#     Edge 69, Type (0, 0), BuildingBlock: XIVTED_clean_linker_0, # of connection points: 2
#     Edge 70, Type (0, 0), BuildingBlock: XIVTED_clean_linker_0, # of connection points: 2
#     Edge 71, Type (0, 0), BuildingBlock: XIVTED_clean_linker_0, # of connection points: 2
#     Edge 72, Type (0, 0), BuildingBlock: XIVTED_clean_linker_0, # of connection points: 2
#     Edge 73, Type (0, 0), BuildingBlock: XIVTED_clean_linker_0, # of connection points: 2
#     Edge 74, Type (0, 0), BuildingBlock: XIVTED_clean_linker_0, # of connection points: 2
#     Edge 75, Type (0, 0), BuildingBlock: XIVTED_clean_linker_0, # of connection points: 2
#     Edge 76, Type (0, 0), BuildingBlock: XIVTED_clean_linker_0, # of connection points: 2
#     Edge 77, Type (0, 0), BuildingBlock: XIVTED_clean_linker_0, # of connection points: 2
#     Edge 78, Type (0, 0), BuildingBlock: XIVTED_clean_linker_0, # of connection points: 2
#     Edge 79, Type (0, 0), BuildingBlock: XIVTED_clean_linker_0, # of connection points: 2
#     Edge 80, Type (0, 0), BuildingBlock: XIVTED_clean_linker_0, # of connection points: 2
#     Edge 81, Type (0, 0), BuildingBlock: XIVTED_clean_linker_0, # of connection points: 2
#     Edge 82, Type (0, 0), BuildingBlock: XIVTED_clean_linker_0, # of connection points: 2
#     Edge 83, Type (0, 0), BuildingBlock: XIVTED_clean_linker_0, # of connection points: 2
#     Edge 84, Type (0, 0), BuildingBlock: XIVTED_clean_linker_0, # of connection points: 2
#     Edge 85, Type (0, 0), BuildingBlock: XIVTED_clean_linker_0, # of connection points: 2
#     Edge 86, Type (0, 0), BuildingBlock: XIVTED_clean_linker_0, # of connection points: 2
#     Edge 87, Type (0, 0), BuildingBlock: XIVTED_clean_linker_0, # of connection points: 2
#     Edge 88, Type (0, 0), BuildingBlock: XIVTED_clean_linker_0, # of connection points: 2
#     Edge 89, Type (0, 0), BuildingBlock: XIVTED_clean_linker_0, # of connection points: 2
#     Edge 90, Type (0, 0), BuildingBlock: XIVTED_clean_linker_0, # of connection points: 2
#     Edge 91, Type (0, 0), BuildingBlock: XIVTED_clean_linker_0, # of connection points: 2
#     Edge 92, Type (0, 0), BuildingBlock: XIVTED_clean_linker_0, # of connection points: 2
#     Edge 93, Type (0, 0), BuildingBlock: XIVTED_clean_linker_0, # of connection points: 2
#     Edge 94, Type (0, 0), BuildingBlock: XIVTED_clean_linker_0, # of connection points: 2
#     Edge 95, Type (0, 0), BuildingBlock: XIVTED_clean_linker_0, # of connection points: 2
# Relax obj value: 0.190
# Max RMSD: 0.171
# Mean RMSD: 0.171
data_MOF--net-zni--node1-QUQFOY_clean_sbu_1--edge1-XIVTED_clean_linker_0
_symmetry_space_group_name_H-M    P1
_symmetry_Int_Tables_number       1
_symmetry_cell_setting            triclinic
loop_
_symmetry_equiv_pos_as_xyz
'x, y, z'
_cell_length_a     59.998764
_cell_length_b     59.997742
_cell_length_c     34.329562
_cell_angle_alpha  89.990703
_cell_angle_beta   89.989595
_cell_angle_gamma 89.974039
loop_
_atom_site_label
_atom_site_type_symbol
_atom_site_fract_x
_atom_site_fract_y
_atom_site_fract_z
_atom_type_partial_charge
O0 O 0.07483 0.10216 0.35268 0.0
Cd1 Cd 0.10821 0.10289 0.33852 0.0
Cd2 Cd 0.11076 0.11381 0.42348 0.0
O3 O 0.07718 0.10679 0.41648 0.0
O4 O 0.1109 0.08697 0.28785 0.0
O5 O 0.12553 0.07428 0.34275 0.0
C6 C 0.12172 0.07155 0.30599 0.0
C7 C 0.1228 0.1155 0.48858 0.0
C8 C 0.06563 0.10336 0.38599 0.0
C9 C 0.12859 0.14621 0.35957 0.0
O10 O 0.12482 0.14039 0.39449 0.0
O11 O 0.12329 0.13356 0.33142 0.0
O12 O 0.10904 0.12959 0.47407 0.0
O13 O 0.12916 0.09921 0.46674 0.0
O14 O 0.14397 0.82074 0.60559 0.0
Cd15 Cd 0.14379 0.85507 0.6055 0.0
Cd16 Cd 0.14039 0.84959 0.68297 0.0
O17 O 0.14869 0.81712 0.66888 0.0
O18 O 0.15881 0.8644 0.55648 0.0
O19 O 0.17299 0.87031 0.61519 0.0
C20 C 0.1751 0.87144 0.57774 0.0
C21 C 0.15442 0.86508 0.7403 0.0
C22 C 0.14746 0.80849 0.63516 0.0
C23 C 0.1009 0.8691 0.63997 0.0
O24 O 0.10835 0.86007 0.67084 0.0
O25 O 0.11318 0.8706 0.6099 0.0
O26 O 0.14082 0.84852 0.74081 0.0
O27 O 0.1609 0.87262 0.70697 0.0
O28 O 0.42824 0.89058 0.8357 0.0
Cd29 Cd 0.39395 0.89205 0.8341 0.0
Cd30 Cd 0.39913 0.88424 0.91741 0.0
O31 O 0.43152 0.89069 0.89976 0.0
O32 O 0.38576 0.90899 0.78635 0.0
O33 O 0.37963 0.92149 0.84615 0.0
C34 C 0.37879 0.92472 0.80892 0.0
C35 C 0.39397 0.88687 0.98522 0.0
C36 C 0.44032 0.89131 0.86608 0.0
C37 C 0.37471 0.85016 0.86458 0.0
O38 O 0.38276 0.85635 0.89704 0.0
O39 O 0.37662 0.86237 0.83454 0.0
O40 O 0.40676 0.87227 0.96958 0.0
O41 O 0.38419 0.90087 0.9624 0.0
O42 O 0.35386 0.17865 0.10303 0.0
Cd43 Cd 0.35413 0.14484 0.09257 0.0
Cd44 Cd 0.36089 0.14386 0.17652 0.0
O45 O 0.35427 0.17732 0.16736 0.0
O46 O 0.33776 0.13997 0.04289 0.0
O47 O 0.32544 0.12821 0.10017 0.0
C48 C 0.32234 0.1304 0.06308 0.0
C49 C 0.35889 0.13235 0.24186 0.0
C50 C 0.3531 0.18842 0.13586 0.0
C51 C 0.39641 0.12502 0.11917 0.0
O52 O 0.38923 0.12985 0.15291 0.0
O53 O 0.38472 0.12917 0.0892 0.0
O54 O 0.37349 0.14628 0.22961 0.0
O55 O 0.34408 0.12555 0.21738 0.0
O56 O 0.07142 0.8967 0.13187 0.0
Cd57 Cd 0.10564 0.8959 0.13758 0.0
Cd58 Cd 0.1038 0.88937 0.05889 0.0
O59 O 0.07069 0.89742 0.0677 0.0
O60 O 0.1124 0.91111 0.18773 0.0
O61 O 0.12206 0.92476 0.1302 0.0
C62 C 0.12118 0.92702 0.16764 0.0
C63 C 0.12084 0.90147 0.00155 0.0
C64 C 0.06058 0.89829 0.10019 0.0
C65 C 0.12158 0.85187 0.10935 0.0
O66 O 0.11451 0.85821 0.07626 0.0
O67 O 0.12095 0.86503 0.13835 0.0
O68 O 0.10494 0.88712 0.0012 0.0
O69 O 0.12694 0.9097 0.03458 0.0
O70 O 0.3551 0.82003 0.41388 0.0
Cd71 Cd 0.35404 0.85423 0.41924 0.0
Cd72 Cd 0.36357 0.85091 0.33468 0.0
O73 O 0.35697 0.81812 0.34966 0.0
O74 O 0.33785 0.86048 0.46867 0.0
O75 O 0.32469 0.86961 0.41055 0.0
C76 C 0.322 0.86886 0.44791 0.0
C77 C 0.36347 0.85769 0.26708 0.0
C78 C 0.35532 0.80863 0.38267 0.0
C79 C 0.39643 0.87407 0.39198 0.0
O80 O 0.39064 0.86706 0.35859 0.0
O81 O 0.3839 0.87119 0.42136 0.0
O82 O 0.37767 0.84478 0.28353 0.0
O83 O 0.34828 0.86644 0.28882 0.0
O84 O 0.42673 0.10712 0.66079 0.0
Cd85 Cd 0.39257 0.10757 0.66665 0.0
Cd86 Cd 0.39321 0.11137 0.58472 0.0
O87 O 0.42616 0.104 0.59685 0.0
O88 O 0.38517 0.0915 0.71564 0.0
O89 O 0.37663 0.07879 0.65685 0.0
C90 C 0.37697 0.07584 0.69419 0.0
C91 C 0.3839 0.1029 0.52006 0.0
C92 C 0.4369 0.10437 0.6287 0.0
C93 C 0.37452 0.14967 0.63453 0.0
O94 O 0.38039 0.14182 0.60171 0.0
O95 O 0.37694 0.13822 0.66539 0.0
O96 O 0.39819 0.11795 0.5289 0.0
O97 O 0.37436 0.09224 0.54807 0.0
O98 O 0.14038 0.18113 0.91332 0.0
Cd99 Cd 0.14152 0.14682 0.91335 0.0
Cd100 Cd 0.13897 0.15188 0.83267 0.0
O101 O 0.14544 0.18427 0.84998 0.0
O102 O 0.15766 0.1373 0.96114 0.0
O103 O 0.17099 0.13271 0.9014 0.0
C104 C 0.17375 0.131 0.93867 0.0
C105 C 0.14866 0.14456 0.76768 0.0
C106 C 0.14364 0.19316 0.88341 0.0
C107 C 0.10042 0.12973 0.87693 0.0
O108 O 0.10839 0.13806 0.84589 0.0
O109 O 0.11159 0.13016 0.90837 0.0
O110 O 0.1336 0.15876 0.77702 0.0
O111 O 0.15892 0.13433 0.79542 0.0
O112 O 0.92482 0.89154 0.66427 0.0
Cd113 Cd 0.89062 0.89211 0.66882 0.0
Cd114 Cd 0.89391 0.88342 0.58515 0.0
O115 O 0.92658 0.89072 0.60002 0.0
O116 O 0.88348 0.90919 0.71688 0.0
O117 O 0.87523 0.92109 0.65749 0.0
C118 C 0.8755 0.9246 0.69466 0.0
C119 C 0.88724 0.88436 0.51754 0.0
C120 C 0.93613 0.89208 0.63299 0.0
C121 C 0.87179 0.84942 0.64155 0.0
O122 O 0.87861 0.85557 0.60821 0.0
O123 O 0.87429 0.86192 0.67107 0.0
O124 O 0.90038 0.87019 0.53347 0.0
O125 O 0.87803 0.89897 0.53989 0.0
O126 O 0.85997 0.18 0.42034 0.0
Cd127 Cd 0.85967 0.14577 0.4242 0.0
Cd128 Cd 0.86628 0.14909 0.34035 0.0
O129 O 0.85895 0.18159 0.35612 0.0
O130 O 0.84236 0.13787 0.47167 0.0
O131 O 0.83089 0.1304 0.41169 0.0
C132 C 0.82711 0.13018 0.4488 0.0
C133 C 0.86385 0.14344 0.2726 0.0
C134 C 0.85842 0.19123 0.38908 0.0
C135 C 0.90174 0.12702 0.39404 0.0
O136 O 0.89472 0.13379 0.36119 0.0
O137 O 0.88998 0.12953 0.42451 0.0
O138 O 0.87831 0.15641 0.28814 0.0
O139 O 0.84998 0.13358 0.29553 0.0
O140 O 0.57049 0.10211 0.14759 0.0
Cd141 Cd 0.60422 0.10231 0.15936 0.0
Cd142 Cd 0.60503 0.11238 0.07319 0.0
O143 O 0.5718 0.10521 0.08342 0.0
O144 O 0.60776 0.0873 0.21074 0.0
O145 O 0.6208 0.07323 0.15565 0.0
C146 C 0.61787 0.07134 0.19282 0.0
C147 C 0.61421 0.11433 0.00662 0.0
C148 C 0.56075 0.10262 0.11469 0.0
C149 C 0.62505 0.14495 0.13484 0.0
O150 O 0.62011 0.13899 0.10045 0.0
O151 O 0.62034 0.1326 0.16373 0.0
O152 O 0.60076 0.12804 0.02297 0.0
O153 O 0.62207 0.09836 0.02769 0.0
O154 O 0.65045 0.81971 0.87645 0.0
Cd155 Cd 0.64882 0.85394 0.88128 0.0
Cd156 Cd 0.64504 0.85173 0.80371 0.0
O157 O 0.65372 0.81882 0.81258 0.0
O158 O 0.66296 0.86147 0.93203 0.0
O159 O 0.67744 0.87084 0.87496 0.0
C160 C 0.6791 0.87028 0.91251 0.0
C161 C 0.65966 0.87066 0.75023 0.0
C162 C 0.65349 0.8088 0.84517 0.0
C163 C 0.60519 0.86815 0.84895 0.0
O164 O 0.61272 0.86088 0.81677 0.0
O165 O 0.61759 0.86849 0.87899 0.0
O166 O 0.64629 0.85409 0.74611 0.0
O167 O 0.66553 0.87631 0.78502 0.0
O168 O 0.92572 0.10805 0.84238 0.0
Cd169 Cd 0.89166 0.10817 0.83497 0.0
Cd170 Cd 0.89272 0.11704 0.91961 0.0
O171 O 0.92548 0.10909 0.90669 0.0
O172 O 0.88541 0.09123 0.78637 0.0
O173 O 0.87545 0.0795 0.84507 0.0
C174 C 0.87653 0.07601 0.80793 0.0
C175 C 0.88594 0.11701 0.98721 0.0
C176 C 0.93601 0.10737 0.87471 0.0
C177 C 0.87215 0.15096 0.86109 0.0
O178 O 0.87784 0.14473 0.89503 0.0
O179 O 0.87569 0.13855 0.83177 0.0
O180 O 0.899 0.13103 0.97071 0.0
O181 O 0.87664 0.1022 0.9654 0.0
O182 O 0.64034 0.18023 0.57949 0.0
Cd183 Cd 0.64183 0.14592 0.58064 0.0
Cd184 Cd 0.63863 0.15221 0.66139 0.0
O185 O 0.64534 0.1843 0.64271 0.0
O186 O 0.65912 0.13591 0.5344 0.0
O187 O 0.67114 0.13232 0.59519 0.0
C188 C 0.67476 0.13012 0.55822 0.0
C189 C 0.64584 0.14616 0.72781 0.0
C190 C 0.64353 0.1927 0.60887 0.0
C191 C 0.60074 0.12891 0.6165 0.0
O192 O 0.60848 0.13789 0.64715 0.0
O193 O 0.61206 0.1289 0.58521 0.0
O194 O 0.63128 0.16023 0.71585 0.0
O195 O 0.65726 0.13557 0.70191 0.0
O196 O 0.56982 0.89911 0.37253 0.0
Cd197 Cd 0.60402 0.89772 0.36701 0.0
Cd198 Cd 0.60231 0.89432 0.44491 0.0
O199 O 0.56931 0.90276 0.43635 0.0
O200 O 0.61109 0.91141 0.31568 0.0
O201 O 0.62062 0.92661 0.37209 0.0
C202 C 0.61983 0.92785 0.3345 0.0
C203 C 0.62121 0.90912 0.49827 0.0
C204 C 0.55909 0.90229 0.40397 0.0
C205 C 0.61889 0.85443 0.39989 0.0
O206 O 0.61171 0.86205 0.43208 0.0
O207 O 0.61891 0.86667 0.36964 0.0
O208 O 0.60474 0.89563 0.50248 0.0
O209 O 0.62677 0.91501 0.46344 0.0
O210 O 0.85496 0.8198 0.08665 0.0
Cd211 Cd 0.85451 0.85401 0.08139 0.0
Cd212 Cd 0.86224 0.85105 0.16614 0.0
O213 O 0.85489 0.81848 0.15094 0.0
O214 O 0.83926 0.86062 0.03121 0.0
O215 O 0.82521 0.8697 0.08872 0.0
C216 C 0.82314 0.86906 0.05124 0.0
C217 C 0.86034 0.85697 0.2339 0.0
C218 C 0.85397 0.8087 0.11813 0.0
C219 C 0.89695 0.87291 0.11096 0.0
O220 O 0.89049 0.86617 0.14417 0.0
O221 O 0.88472 0.87038 0.08109 0.0
O222 O 0.87465 0.84389 0.21818 0.0
O223 O 0.84635 0.86683 0.21118 0.0
O224 O 0.56957 0.6052 0.83882 0.0
Cd225 Cd 0.60374 0.60416 0.83273 0.0
Cd226 Cd 0.6006 0.61408 0.91814 0.0
O227 O 0.56784 0.60744 0.90304 0.0
O228 O 0.6093 0.58908 0.78198 0.0
O229 O 0.61902 0.57449 0.83872 0.0
C230 C 0.61782 0.57271 0.80124 0.0
C231 C 0.60693 0.61415 0.98588 0.0
C232 C 0.55827 0.60558 0.87014 0.0
C233 C 0.62392 0.64653 0.86032 0.0
O234 O 0.61697 0.6409 0.89385 0.0
O235 O 0.62083 0.63396 0.83105 0.0
O236 O 0.59424 0.62839 0.96903 0.0
O237 O 0.61585 0.59892 0.96443 0.0
O238 O 0.65275 0.31817 0.12121 0.0
Cd239 Cd 0.65109 0.35242 0.11549 0.0
Cd240 Cd 0.64886 0.35023 0.1943 0.0
O241 O 0.6569 0.31723 0.18496 0.0
O242 O 0.66233 0.35893 0.06209 0.0
O243 O 0.67995 0.3695 0.11562 0.0
C244 C 0.67939 0.36831 0.07803 0.0
C245 C 0.66398 0.36891 0.24765 0.0
C246 C 0.65606 0.30723 0.15239 0.0
C247 C 0.60833 0.36708 0.15143 0.0
O248 O 0.61647 0.35972 0.18309 0.0
O249 O 0.62004 0.3672 0.12054 0.0
O250 O 0.65072 0.35225 0.25188 0.0
O251 O 0.6696 0.37468 0.21279 0.0
O252 O 0.92824 0.39832 0.35427 0.0
Cd253 Cd 0.89388 0.39863 0.35482 0.0
Cd254 Cd 0.90036 0.39579 0.43246 0.0
O255 O 0.93281 0.40343 0.41731 0.0
O256 O 0.88469 0.41227 0.30441 0.0
O257 O 0.8788 0.42827 0.36163 0.0
C258 C 0.87768 0.42923 0.32404 0.0
C259 C 0.885 0.41019 0.48966 0.0
C260 C 0.94096 0.4017 0.38326 0.0
C261 C 0.8801 0.35611 0.39131 0.0
O262 O 0.88968 0.36374 0.4215 0.0
O263 O 0.87814 0.36818 0.36103 0.0
O264 O 0.90167 0.39672 0.49031 0.0
O265 O 0.87741 0.41649 0.45624 0.0
O266 O 0.85211 0.67526 0.62322 0.0
Cd267 Cd 0.85344 0.64122 0.61514 0.0
Cd268 Cd 0.86059 0.64177 0.69417 0.0
O269 O 0.85202 0.67493 0.68741 0.0
O270 O 0.83865 0.63574 0.56414 0.0
O271 O 0.82472 0.62426 0.62041 0.0
C272 C 0.8227 0.62621 0.58306 0.0
C273 C 0.84911 0.62346 0.75068 0.0
C274 C 0.85065 0.68554 0.65548 0.0
C275 C 0.89787 0.62534 0.64171 0.0
O276 O 0.89169 0.63172 0.67533 0.0
O277 O 0.8845 0.62637 0.61304 0.0
O278 O 0.86334 0.63945 0.75169 0.0
O279 O 0.84064 0.61798 0.71748 0.0
O280 O 0.5678 0.40165 0.61944 0.0
Cd281 Cd 0.60206 0.40025 0.62435 0.0
Cd282 Cd 0.5997 0.39673 0.54676 0.0
O283 O 0.56681 0.40546 0.55566 0.0
O284 O 0.60933 0.41385 0.67568 0.0
O285 O 0.61875 0.42907 0.61924 0.0
C286 C 0.6181 0.43026 0.65684 0.0
C287 C 0.61912 0.41151 0.49397 0.0
C288 C 0.55684 0.40492 0.58828 0.0
C289 C 0.61646 0.35685 0.59124 0.0
O290 O 0.60877 0.36436 0.55934 0.0
O291 O 0.61701 0.36923 0.6213 0.0
O292 O 0.6024 0.39838 0.48924 0.0
O293 O 0.62455 0.41715 0.52899 0.0
O294 O 0.84713 0.3251 0.879 0.0
Cd295 Cd 0.84792 0.3592 0.88689 0.0
Cd296 Cd 0.85473 0.35788 0.80671 0.0
O297 O 0.84677 0.32468 0.81477 0.0
O298 O 0.83417 0.36396 0.93907 0.0
O299 O 0.81882 0.37584 0.88428 0.0
C300 C 0.81767 0.37347 0.92166 0.0
C301 C 0.84376 0.37516 0.74884 0.0
C302 C 0.84577 0.31442 0.84711 0.0
C303 C 0.8919 0.37547 0.85849 0.0
O304 O 0.88561 0.36857 0.82527 0.0
O305 O 0.87876 0.3746 0.88752 0.0
O306 O 0.85801 0.35917 0.74914 0.0
O307 O 0.83489 0.38115 0.78145 0.0
O308 O 0.92866 0.60198 0.14663 0.0
Cd309 Cd 0.89429 0.60202 0.14786 0.0
Cd310 Cd 0.89933 0.6044 0.06943 0.0
O311 O 0.93195 0.59669 0.0834 0.0
O312 O 0.88567 0.5885 0.19867 0.0
O313 O 0.87884 0.57255 0.14172 0.0
C314 C 0.87819 0.57163 0.17936 0.0
C315 C 0.88401 0.58999 0.01221 0.0
C316 C 0.94077 0.59837 0.11692 0.0
C317 C 0.8797 0.64431 0.11124 0.0
O318 O 0.88855 0.63644 0.08053 0.0
O319 O 0.87858 0.63252 0.14197 0.0
O320 O 0.90048 0.60367 0.01159 0.0
O321 O 0.8765 0.58358 0.0456 0.0
O322 O 0.64356 0.67805 0.41709 0.0
Cd323 Cd 0.64472 0.64379 0.42097 0.0
Cd324 Cd 0.63622 0.64807 0.33628 0.0
O325 O 0.6427 0.68063 0.35289 0.0
O326 O 0.66019 0.63688 0.47082 0.0
O327 O 0.67433 0.62882 0.41292 0.0
C328 C 0.67644 0.62901 0.45041 0.0
C329 C 0.6376 0.64246 0.2684 0.0
C330 C 0.64382 0.68977 0.38625 0.0
C331 C 0.60263 0.62427 0.39124 0.0
O332 O 0.60872 0.63173 0.35829 0.0
O333 O 0.61489 0.62673 0.42108 0.0
O334 O 0.62317 0.65519 0.28465 0.0
O335 O 0.65218 0.63307 0.29059 0.0
O336 O 0.4325 0.39247 0.16937 0.0
Cd337 Cd 0.3982 0.3934 0.17214 0.0
Cd338 Cd 0.40227 0.38913 0.08876 0.0
O339 O 0.43481 0.39548 0.10543 0.0
O340 O 0.39022 0.40822 0.22211 0.0
O341 O 0.3833 0.42302 0.16421 0.0
C342 C 0.38278 0.42472 0.20177 0.0
C343 C 0.39587 0.39554 0.0221 0.0
C344 C 0.44411 0.39469 0.13866 0.0
C345 C 0.37982 0.35211 0.1375 0.0
O346 O 0.38737 0.35965 0.10553 0.0
O347 O 0.3815 0.36341 0.16865 0.0
O348 O 0.40944 0.38059 0.03438 0.0
O349 O 0.3858 0.40758 0.04773 0.0
O350 O 0.3482 0.67718 0.88596 0.0
Cd351 Cd 0.34981 0.64304 0.89264 0.0
Cd352 Cd 0.35326 0.64416 0.81355 0.0
O353 O 0.34476 0.67716 0.82207 0.0
O354 O 0.33638 0.63652 0.94447 0.0
O355 O 0.32112 0.62594 0.88872 0.0
C356 C 0.32003 0.62721 0.92628 0.0
C357 C 0.33976 0.62632 0.75791 0.0
C358 C 0.34512 0.68763 0.85421 0.0
C359 C 0.39314 0.62807 0.85994 0.0
O360 O 0.38535 0.63465 0.82748 0.0
O361 O 0.38105 0.6285 0.89036 0.0
O362 O 0.35345 0.64274 0.75577 0.0
O363 O 0.33297 0.62012 0.79188 0.0
O364 O 0.07355 0.60109 0.64013 0.0
Cd365 Cd 0.1079 0.60099 0.64218 0.0
Cd366 Cd 0.10261 0.60726 0.56348 0.0
O367 O 0.06992 0.59915 0.57634 0.0
O368 O 0.11528 0.58739 0.6935 0.0
O369 O 0.12348 0.57142 0.63719 0.0
C370 C 0.12323 0.57052 0.67482 0.0
C371 C 0.1184 0.59532 0.50489 0.0
C372 C 0.06128 0.59913 0.61015 0.0
C373 C 0.12257 0.64477 0.61109 0.0
O374 O 0.11355 0.63853 0.57942 0.0
O375 O 0.12374 0.63153 0.63992 0.0
O376 O 0.10199 0.60909 0.50561 0.0
O377 O 0.12554 0.58738 0.53754 0.0
O378 O 0.14885 0.32021 0.36948 0.0
Cd379 Cd 0.14762 0.35431 0.37732 0.0
Cd380 Cd 0.14066 0.35355 0.29853 0.0
O381 O 0.14864 0.32028 0.30528 0.0
O382 O 0.16168 0.35983 0.42894 0.0
O383 O 0.17645 0.37122 0.37329 0.0
C384 C 0.17786 0.36941 0.41074 0.0
C385 C 0.15316 0.3722 0.24309 0.0
C386 C 0.15003 0.30978 0.33731 0.0
C387 C 0.10336 0.37054 0.34983 0.0
O388 O 0.1095 0.36389 0.31636 0.0
O389 O 0.11667 0.36948 0.37858 0.0
O390 O 0.1389 0.35626 0.24099 0.0
O391 O 0.16111 0.37738 0.27681 0.0
O392 O 0.42925 0.59966 0.37414 0.0
Cd393 Cd 0.39508 0.60082 0.36828 0.0
Cd394 Cd 0.39651 0.60433 0.44684 0.0
O395 O 0.42955 0.59608 0.43799 0.0
O396 O 0.38824 0.58673 0.31716 0.0
O397 O 0.37858 0.5719 0.37381 0.0
C398 C 0.37953 0.57038 0.33626 0.0
C399 C 0.37865 0.59023 0.50196 0.0
C400 C 0.43988 0.59657 0.4057 0.0
C401 C 0.37975 0.64401 0.40078 0.0
O402 O 0.38665 0.63637 0.43314 0.0
O403 O 0.3801 0.63185 0.37045 0.0
O404 O 0.39492 0.60407 0.5046 0.0
O405 O 0.37262 0.58365 0.46777 0.0
O406 O 0.14729 0.67624 0.10669 0.0
Cd407 Cd 0.14767 0.64186 0.10494 0.0
Cd408 Cd 0.1419 0.64704 0.18354 0.0
O409 O 0.14974 0.67976 0.17045 0.0
O410 O 0.16178 0.63406 0.0542 0.0
O411 O 0.17729 0.62657 0.11122 0.0
C412 C 0.17852 0.6264 0.07361 0.0
C413 C 0.1542 0.63147 0.24209 0.0
C414 C 0.14941 0.68846 0.13669 0.0
C415 C 0.1042 0.62679 0.13674 0.0
O416 O 0.11059 0.63586 0.16827 0.0
O417 O 0.11726 0.62574 0.10763 0.0
O418 O 0.14034 0.64782 0.24142 0.0
O419 O 0.16202 0.62429 0.2094 0.0
O420 O 0.0674 0.4003 0.85608 0.0
Cd421 Cd 0.1018 0.3999 0.85544 0.0
Cd422 Cd 0.09625 0.39707 0.93306 0.0
O423 O 0.0637 0.40508 0.91936 0.0
O424 O 0.11078 0.41301 0.80451 0.0
O425 O 0.11769 0.42917 0.86124 0.0
C426 C 0.11854 0.42982 0.82361 0.0
C427 C 0.11271 0.41188 0.98888 0.0
C428 C 0.0551 0.40372 0.88563 0.0
C429 C 0.11568 0.35721 0.89168 0.0
O430 O 0.10646 0.36483 0.92223 0.0
O431 O 0.1173 0.36931 0.86139 0.0
O432 O 0.09595 0.39857 0.99084 0.0
O433 O 0.11979 0.41776 0.95489 0.0
O434 O 0.35158 0.32451 0.60054 0.0
Cd435 Cd 0.35146 0.35828 0.58945 0.0
Cd436 Cd 0.36199 0.35839 0.67557 0.0
O437 O 0.35495 0.32516 0.6647 0.0
O438 O 0.33681 0.36164 0.53773 0.0
O439 O 0.32211 0.37445 0.59247 0.0
C440 C 0.32053 0.37145 0.55528 0.0
C441 C 0.36354 0.36757 0.74223 0.0
C442 C 0.35229 0.31443 0.63309 0.0
C443 C 0.39425 0.37889 0.61393 0.0
O444 O 0.38854 0.37363 0.64833 0.0
O445 O 0.38167 0.37452 0.5852 0.0
O446 O 0.37746 0.35425 0.72607 0.0
O447 O 0.34761 0.37527 0.72091 0.0
H448 H 0.13548 0.03191 0.33779 0.0
H449 H 0.13091 0.96725 0.13377 0.0
H450 H 0.12194 0.06376 0.22757 0.0
H451 H 0.12655 0.93466 0.2456 0.0
H452 H 0.13634 0.00292 0.1671 0.0
H453 H 0.1408 0.99647 0.30354 0.0
C454 C 0.13397 0.03153 0.30636 0.0
C455 C 0.12801 0.05076 0.28555 0.0
C456 C 0.13447 0.9879 0.1843 0.0
C457 C 0.13406 0.01033 0.24626 0.0
C458 C 0.13149 0.96752 0.1653 0.0
C459 C 0.12802 0.94799 0.18694 0.0
C460 C 0.13413 0.98872 0.22521 0.0
C461 C 0.12892 0.94935 0.22775 0.0
C462 C 0.13692 0.01129 0.28686 0.0
C463 C 0.12628 0.04929 0.24483 0.0
N464 N 0.13171 0.96938 0.24557 0.0
N465 N 0.12915 0.02941 0.22656 0.0
H466 H 0.21494 0.88059 0.61348 0.0
H467 H 0.28262 0.8804 0.41252 0.0
H468 H 0.1839 0.87736 0.5002 0.0
H469 H 0.31304 0.8728 0.52567 0.0
H470 H 0.24665 0.88682 0.44431 0.0
H471 H 0.25114 0.88548 0.58183 0.0
C472 C 0.21566 0.8813 0.58197 0.0
C473 C 0.19638 0.87828 0.55946 0.0
C474 C 0.26126 0.884 0.46217 0.0
C475 C 0.23779 0.88367 0.52304 0.0
C476 C 0.28181 0.8804 0.44404 0.0
C477 C 0.30082 0.87579 0.46645 0.0
C478 C 0.25972 0.88304 0.503 0.0
C479 C 0.29878 0.87605 0.5072 0.0
C480 C 0.23636 0.88398 0.56391 0.0
C481 C 0.19835 0.87939 0.51873 0.0
N482 N 0.27858 0.87941 0.52414 0.0
N483 N 0.2187 0.88176 0.50183 0.0
H484 H 0.37289 0.06573 0.77159 0.0
H485 H 0.37145 0.93509 0.73242 0.0
H486 H 0.36639 0.03678 0.65708 0.0
H487 H 0.37079 0.96396 0.84755 0.0
H488 H 0.36538 0.97205 0.70469 0.0
H489 H 0.36785 0.02884 0.80025 0.0
C490 C 0.37008 0.05166 0.75245 0.0
C491 C 0.37031 0.05433 0.71182 0.0
C492 C 0.36627 0.9703 0.73605 0.0
C493 C 0.3648 0.01192 0.74451 0.0
C494 C 0.36974 0.94917 0.75193 0.0
C495 C 0.37188 0.94645 0.79238 0.0
C496 C 0.36516 0.98894 0.76072 0.0
C497 C 0.36937 0.96529 0.8162 0.0
C498 C 0.36722 0.03056 0.76887 0.0
C499 C 0.36645 0.03549 0.68853 0.0
N500 N 0.36644 0.98578 0.79999 0.0
N501 N 0.36416 0.01505 0.70519 0.0
H502 H 0.21323 0.12355 0.90056 0.0
H503 H 0.28358 0.11696 0.09841 0.0
H504 H 0.18374 0.1232 0.01525 0.0
H505 H 0.31247 0.1294 0.98533 0.0
H506 H 0.24726 0.11157 0.06732 0.0
H507 H 0.2499 0.11798 0.9302 0.0
C508 C 0.2144 0.12193 0.93192 0.0
C509 C 0.19541 0.12411 0.95548 0.0
C510 C 0.26161 0.11522 0.04929 0.0
C511 C 0.23734 0.11788 0.9896 0.0
C512 C 0.28237 0.11822 0.067 0.0
C513 C 0.30105 0.12389 0.04449 0.0
C514 C 0.25953 0.11785 0.00876 0.0
C515 C 0.29848 0.12528 0.00389 0.0
C516 C 0.23536 0.11885 0.94884 0.0
C517 C 0.19795 0.12185 0.99596 0.0
N518 N 0.27809 0.12247 0.98739 0.0
N519 N 0.21854 0.11906 0.01175 0.0
H520 H 0.86966 0.93524 0.77142 0.0
H521 H 0.87242 0.06552 0.73076 0.0
H522 H 0.8666 0.96363 0.65604 0.0
H523 H 0.86547 0.03729 0.84575 0.0
H524 H 0.86656 0.02861 0.70271 0.0
H525 H 0.86435 0.97235 0.79903 0.0
C526 C 0.86756 0.94925 0.75185 0.0
C527 C 0.86882 0.94635 0.71134 0.0
C528 C 0.866 0.0305 0.73406 0.0
C529 C 0.863 0.989 0.74282 0.0
C530 C 0.86936 0.0516 0.75013 0.0
C531 C 0.86968 0.05446 0.79071 0.0
C532 C 0.86321 0.01203 0.75873 0.0
C533 C 0.86547 0.03584 0.81432 0.0
C534 C 0.86452 0.97046 0.76767 0.0
C535 C 0.86584 0.9651 0.68743 0.0
N536 N 0.86272 0.01536 0.798 0.0
N537 N 0.86339 0.98566 0.70354 0.0
H538 H 0.78923 0.11895 0.40856 0.0
H539 H 0.71299 0.12207 0.59972 0.0
H540 H 0.81493 0.12619 0.52529 0.0
H541 H 0.68705 0.12292 0.48247 0.0
H542 H 0.75046 0.11648 0.5734 0.0
H543 H 0.75193 0.1133 0.43562 0.0
C544 C 0.78711 0.119 0.43989 0.0
C545 C 0.8052 0.12331 0.46466 0.0
C546 C 0.73653 0.11761 0.55345 0.0
C547 C 0.76252 0.11703 0.49583 0.0
C548 C 0.71511 0.12073 0.56848 0.0
C549 C 0.69687 0.12324 0.54326 0.0
C550 C 0.73976 0.11701 0.5129 0.0
C551 C 0.70064 0.1213 0.50301 0.0
C552 C 0.76578 0.11585 0.45533 0.0
C553 C 0.80144 0.12315 0.50505 0.0
N554 N 0.72167 0.11853 0.48909 0.0
N555 N 0.78051 0.12029 0.51933 0.0
H556 H 0.62505 0.9336 0.256 0.0
H557 H 0.62024 0.06536 0.27158 0.0
H558 H 0.62926 0.96894 0.36523 0.0
H559 H 0.63004 0.03074 0.16274 0.0
H560 H 0.62633 0.03043 0.30646 0.0
H561 H 0.62989 0.96883 0.22137 0.0
C562 C 0.62734 0.94874 0.27273 0.0
C563 C 0.62652 0.94835 0.31359 0.0
C564 C 0.62744 0.03049 0.27498 0.0
C565 C 0.63175 0.98883 0.27406 0.0
C566 C 0.62392 0.05044 0.25501 0.0
C567 C 0.62441 0.05092 0.21414 0.0
C568 C 0.63117 0.01076 0.25396 0.0
C569 C 0.62942 0.03111 0.19425 0.0
C570 C 0.6301 0.96887 0.25291 0.0
C571 C 0.6297 0.96846 0.33372 0.0
N572 N 0.6323 0.01176 0.21432 0.0
N573 N 0.63183 0.98793 0.31375 0.0
H574 H 0.71917 0.88197 0.87995 0.0
H575 H 0.78297 0.87965 0.08473 0.0
H576 H 0.68625 0.87419 0.99092 0.0
H577 H 0.81567 0.87402 0.97317 0.0
H578 H 0.74751 0.8858 0.05108 0.0
H579 H 0.75455 0.88736 0.9141 0.0
C580 C 0.71929 0.88179 0.9115 0.0
C581 C 0.69976 0.87734 0.93259 0.0
C582 C 0.7625 0.88349 0.034 0.0
C583 C 0.74021 0.88334 0.97183 0.0
C584 C 0.78277 0.88006 0.05319 0.0
C585 C 0.80227 0.87604 0.03173 0.0
C586 C 0.76177 0.88299 0.99308 0.0
C587 C 0.80101 0.87679 0.9909 0.0
C588 C 0.73953 0.88476 0.93098 0.0
C589 C 0.70094 0.87732 0.97345 0.0
N590 N 0.78109 0.87999 0.97292 0.0
N591 N 0.72085 0.88004 0.99172 0.0
H592 H 0.62978 0.47075 0.6259 0.0
H593 H 0.62811 0.53202 0.83312 0.0
H594 H 0.62181 0.43644 0.73554 0.0
H595 H 0.62214 0.56608 0.72286 0.0
H596 H 0.63384 0.49691 0.79808 0.0
H597 H 0.63519 0.50568 0.66143 0.0
C598 C 0.62955 0.47048 0.65744 0.0
C599 C 0.62506 0.45068 0.67775 0.0
C600 C 0.63154 0.51213 0.78159 0.0
C601 C 0.6311 0.49062 0.71858 0.0
C602 C 0.62835 0.53218 0.80157 0.0
C603 C 0.62438 0.55197 0.78089 0.0
C604 C 0.63086 0.51189 0.74066 0.0
C605 C 0.62489 0.55118 0.74001 0.0
C606 C 0.63254 0.49045 0.67771 0.0
C607 C 0.62499 0.45135 0.71866 0.0
N608 N 0.62788 0.53147 0.72126 0.0
N609 N 0.62773 0.47101 0.7377 0.0
H610 H 0.77799 0.38966 0.8934 0.0
H611 H 0.68114 0.37175 0.99874 0.0
H612 H 0.81088 0.3709 0.0003 0.0
H613 H 0.72122 0.38087 0.10185 0.0
H614 H 0.71391 0.37819 0.95869 0.0
H615 H 0.74324 0.39443 0.92954 0.0
C616 C 0.77793 0.38666 0.92452 0.0
C617 C 0.7973 0.37949 0.9437 0.0
C618 C 0.71557 0.37949 0.98997 0.0
C619 C 0.75736 0.38417 0.9852 0.0
C620 C 0.69678 0.3756 0.01297 0.0
C621 C 0.69843 0.37565 0.05376 0.0
C622 C 0.73628 0.3834 0.00785 0.0
C623 C 0.71917 0.38066 0.07052 0.0
C624 C 0.75797 0.38911 0.94513 0.0
C625 C 0.79629 0.37615 0.98416 0.0
N626 N 0.73734 0.38398 0.04751 0.0
N627 N 0.77663 0.37833 0.00345 0.0
H628 H 0.86834 0.47018 0.35574 0.0
H629 H 0.86765 0.53087 0.14809 0.0
H630 H 0.87167 0.43547 0.24578 0.0
H631 H 0.87318 0.56549 0.25786 0.0
H632 H 0.86186 0.49597 0.18356 0.0
H633 H 0.86284 0.50521 0.3205 0.0
C634 C 0.86754 0.46985 0.32423 0.0
C635 C 0.87073 0.44987 0.30369 0.0
C636 C 0.86407 0.51125 0.19988 0.0
C637 C 0.86462 0.48995 0.26315 0.0
C638 C 0.86729 0.53121 0.17963 0.0
C639 C 0.87117 0.55111 0.20001 0.0
C640 C 0.86472 0.51118 0.24082 0.0
C641 C 0.87048 0.55052 0.24091 0.0
C642 C 0.86449 0.48988 0.3041 0.0
C643 C 0.86951 0.45049 0.26284 0.0
N644 N 0.86756 0.53087 0.25994 0.0
N645 N 0.86677 0.47021 0.24393 0.0
H646 H 0.68387 0.62246 0.52812 0.0
H647 H 0.81552 0.62358 0.50457 0.0
H648 H 0.71695 0.62027 0.41655 0.0
H649 H 0.78243 0.61476 0.61511 0.0
H650 H 0.77981 0.61888 0.4715 0.0
H651 H 0.71965 0.61622 0.56017 0.0
C652 C 0.69863 0.62039 0.51031 0.0
C653 C 0.69744 0.62212 0.46958 0.0
C654 C 0.78037 0.61765 0.50295 0.0
C655 C 0.73857 0.61521 0.50618 0.0
C656 C 0.80078 0.62033 0.52188 0.0
C657 C 0.80193 0.61979 0.56272 0.0
C658 C 0.76088 0.61469 0.525 0.0
C659 C 0.78231 0.61539 0.5836 0.0
C660 C 0.71908 0.6168 0.52866 0.0
C661 C 0.7171 0.61915 0.44802 0.0
N662 N 0.76254 0.61333 0.56454 0.0
N663 N 0.7369 0.61615 0.4666 0.0
H664 H 0.37565 0.4317 0.27949 0.0
H665 H 0.37598 0.56361 0.25771 0.0
H666 H 0.37416 0.4654 0.16845 0.0
H667 H 0.36879 0.52981 0.36797 0.0
H668 H 0.37132 0.52802 0.22421 0.0
H669 H 0.36922 0.4673 0.31202 0.0
C670 C 0.37369 0.44656 0.26189 0.0
C671 C 0.37569 0.44559 0.22117 0.0
C672 C 0.37044 0.5284 0.25571 0.0
C673 C 0.36855 0.48653 0.25835 0.0
C674 C 0.37309 0.54874 0.27489 0.0
C675 C 0.37301 0.54967 0.31576 0.0
C676 C 0.36795 0.50875 0.27752 0.0
C677 C 0.36907 0.52988 0.33645 0.0
C678 C 0.37 0.46691 0.28051 0.0
C679 C 0.37285 0.46537 0.1999 0.0
N680 N 0.36701 0.51019 0.31713 0.0
N681 N 0.36973 0.48507 0.21876 0.0
H682 H 0.21964 0.61749 0.105 0.0
H683 H 0.27956 0.61442 0.89656 0.0
H684 H 0.18456 0.62036 0.99536 0.0
H685 H 0.31431 0.62447 0.0052 0.0
H686 H 0.24496 0.60862 0.93298 0.0
H687 H 0.25461 0.61211 0.06942 0.0
C688 C 0.21922 0.61661 0.07349 0.0
C689 C 0.19917 0.61964 0.05312 0.0
C690 C 0.26022 0.61182 0.94885 0.0
C691 C 0.23913 0.61361 0.01224 0.0
C692 C 0.28 0.61504 0.92808 0.0
C693 C 0.29982 0.6202 0.94783 0.0
C694 C 0.26026 0.61371 0.98967 0.0
C695 C 0.29938 0.62077 0.98873 0.0
C696 C 0.23921 0.61364 0.05319 0.0
C697 C 0.19965 0.61834 0.01227 0.0
N698 N 0.2799 0.61777 0.00826 0.0
N699 N 0.21932 0.61561 0.99319 0.0
H700 H 0.12956 0.47063 0.85412 0.0
H701 H 0.13312 0.52929 0.64478 0.0
H702 H 0.12463 0.43509 0.74516 0.0
H703 H 0.12767 0.565 0.75349 0.0
H704 H 0.13773 0.49455 0.68132 0.0
H705 H 0.13655 0.50505 0.81789 0.0
C706 C 0.1303 0.46998 0.82262 0.0
C707 C 0.12622 0.44999 0.80265 0.0
C708 C 0.13582 0.51004 0.69717 0.0
C709 C 0.13407 0.48935 0.76098 0.0
C710 C 0.13328 0.52989 0.67631 0.0
C711 C 0.12973 0.55005 0.69609 0.0
C712 C 0.13483 0.51035 0.73809 0.0
C713 C 0.13012 0.54982 0.737 0.0
C714 C 0.13421 0.48966 0.80193 0.0
C715 C 0.12744 0.45016 0.76178 0.0
N716 N 0.13238 0.53027 0.75661 0.0
N717 N 0.13104 0.46955 0.74231 0.0
H718 H 0.18317 0.37368 0.48944 0.0
H719 H 0.31504 0.37372 0.4764 0.0
H720 H 0.21886 0.3802 0.3809 0.0
H721 H 0.27941 0.3824 0.58454 0.0
H722 H 0.28015 0.37859 0.44083 0.0
H723 H 0.21801 0.37944 0.52477 0.0
C724 C 0.1983 0.37662 0.47302 0.0
C725 C 0.19814 0.37624 0.43214 0.0
C726 C 0.27997 0.37974 0.47231 0.0
C727 C 0.23819 0.38257 0.47245 0.0
C728 C 0.2999 0.37692 0.49267 0.0
C729 C 0.3001 0.37744 0.53354 0.0
C730 C 0.25999 0.38277 0.49295 0.0
C731 C 0.28001 0.3818 0.55305 0.0
C732 C 0.2182 0.37994 0.49324 0.0
C733 C 0.21822 0.38029 0.41242 0.0
N734 N 0.26071 0.38397 0.53259 0.0
N735 N 0.2375 0.38295 0.43276 0.0
H736 H 0.14934 0.1732 0.41194 0.0
H737 H 0.14554 0.28105 0.27543 0.0
H738 H 0.12806 0.17101 0.29188 0.0
H739 H 0.15816 0.28225 0.39923 0.0
H740 H 0.1448 0.24025 0.2777 0.0
H741 H 0.15881 0.21233 0.40408 0.0
C742 C 0.14687 0.1809 0.38371 0.0
C743 C 0.13758 0.16885 0.35264 0.0
C744 C 0.14793 0.24947 0.30426 0.0
C745 C 0.14824 0.21396 0.34358 0.0
C746 C 0.1484 0.27276 0.30301 0.0
C747 C 0.1517 0.28513 0.3373 0.0
C748 C 0.15089 0.23848 0.33999 0.0
C749 C 0.15534 0.27346 0.37214 0.0
C750 C 0.15226 0.20331 0.37928 0.0
C751 C 0.13507 0.17969 0.31665 0.0
N752 N 0.15472 0.25084 0.37259 0.0
N753 N 0.1401 0.20175 0.31322 0.0
H754 H 0.96279 0.89194 0.69792 0.0
H755 H 0.07651 0.88293 0.57661 0.0
H756 H 0.96582 0.89393 0.57227 0.0
H757 H 0.07164 0.87244 0.70077 0.0
H758 H 0.03674 0.89206 0.57511 0.0
H759 H 0.0034 0.88989 0.70001 0.0
C760 C 0.97197 0.89214 0.67076 0.0
C761 C 0.9608 0.8929 0.63485 0.0
C762 C 0.04444 0.8879 0.6027 0.0
C763 C 0.0074 0.89047 0.63706 0.0
C764 C 0.06716 0.88275 0.6036 0.0
C765 C 0.07741 0.8767 0.63881 0.0
C766 C 0.03191 0.88708 0.63727 0.0
C767 C 0.06444 0.87679 0.67288 0.0
C768 C 0.99519 0.89092 0.67198 0.0
C769 C 0.97367 0.8932 0.60063 0.0
N770 N 0.04238 0.88177 0.67121 0.0
N771 N 0.99626 0.89185 0.60258 0.0
H772 H 0.36106 0.82378 0.92462 0.0
H773 H 0.34387 0.71607 0.79153 0.0
H774 H 0.36525 0.82533 0.7991 0.0
H775 H 0.34357 0.7155 0.91731 0.0
H776 H 0.34628 0.75676 0.79288 0.0
H777 H 0.34906 0.78512 0.92144 0.0
C778 C 0.35926 0.81605 0.89628 0.0
C779 C 0.36447 0.82776 0.86207 0.0
C780 C 0.34545 0.74773 0.82015 0.0
C781 C 0.35086 0.78321 0.85826 0.0
C782 C 0.34403 0.72448 0.81944 0.0
C783 C 0.34378 0.71229 0.85439 0.0
C784 C 0.34661 0.75887 0.85606 0.0
C785 C 0.34395 0.72414 0.88963 0.0
C786 C 0.35239 0.79391 0.8945 0.0
C787 C 0.36152 0.8169 0.82621 0.0
N788 N 0.34553 0.74671 0.88953 0.0
N789 N 0.35518 0.79512 0.82525 0.0
H790 H 0.42195 0.10701 0.17671 0.0
H791 H 0.53381 0.10698 0.05044 0.0
H792 H 0.42341 0.12315 0.05419 0.0
H793 H 0.53131 0.09569 0.17461 0.0
H794 H 0.49308 0.10816 0.04903 0.0
H795 H 0.46134 0.09764 0.17386 0.0
C796 C 0.43051 0.10837 0.14902 0.0
C797 C 0.41937 0.11616 0.1157 0.0
C798 C 0.50145 0.10524 0.07651 0.0
C799 C 0.46479 0.1056 0.11237 0.0
C800 C 0.52473 0.10455 0.07738 0.0
C801 C 0.53608 0.10144 0.1128 0.0
C802 C 0.48939 0.10279 0.11128 0.0
C803 C 0.52336 0.09831 0.14668 0.0
C804 C 0.45307 0.10303 0.14746 0.0
C805 C 0.43133 0.1173 0.0806 0.0
N806 N 0.50075 0.0992 0.14509 0.0
N807 N 0.45349 0.11235 0.07995 0.0
H808 H 0.14933 0.71279 0.06919 0.0
H809 H 0.13312 0.83004 0.17693 0.0
H810 H 0.15005 0.72027 0.19429 0.0
H811 H 0.12824 0.82066 0.05252 0.0
H812 H 0.14346 0.79074 0.18385 0.0
H813 H 0.14593 0.7531 0.0626 0.0
C814 C 0.14897 0.7229 0.09531 0.0
C815 C 0.14978 0.71305 0.13237 0.0
C816 C 0.14027 0.79735 0.15503 0.0
C817 C 0.14571 0.75937 0.12499 0.0
C818 C 0.1344 0.8198 0.15105 0.0
C819 C 0.1296 0.82866 0.11411 0.0
C820 C 0.14139 0.78368 0.12185 0.0
C821 C 0.13158 0.81457 0.08162 0.0
C822 C 0.14698 0.74596 0.09151 0.0
C823 C 0.14937 0.7271 0.16513 0.0
N824 N 0.1372 0.79281 0.08629 0.0
N825 N 0.14718 0.74952 0.16067 0.0
H826 H 0.53205 0.90621 0.3402 0.0
H827 H 0.42025 0.88208 0.45921 0.0
H828 H 0.52995 0.90155 0.46566 0.0
H829 H 0.4238 0.8888 0.33414 0.0
H830 H 0.45936 0.89374 0.46351 0.0
H831 H 0.4915 0.90436 0.33864 0.0
C832 C 0.52306 0.90499 0.36748 0.0
C833 C 0.53447 0.90378 0.40307 0.0
C834 C 0.45145 0.89291 0.4352 0.0
C835 C 0.48789 0.90143 0.40151 0.0
C836 C 0.42912 0.88633 0.43275 0.0
C837 C 0.41882 0.88415 0.39623 0.0
C838 C 0.46349 0.89732 0.40089 0.0
C839 C 0.43111 0.8899 0.3629 0.0
C840 C 0.49986 0.90394 0.36659 0.0
C841 C 0.52186 0.90241 0.43751 0.0
N842 N 0.4528 0.896 0.36603 0.0
N843 N 0.49926 0.90101 0.43585 0.0
H844 H 0.36809 0.17599 0.69929 0.0
H845 H 0.34647 0.28569 0.57185 0.0
H846 H 0.3627 0.17664 0.57387 0.0
H847 H 0.35578 0.28676 0.69658 0.0
H848 H 0.34789 0.24509 0.57337 0.0
H849 H 0.35901 0.21582 0.70017 0.0
C850 C 0.36472 0.18441 0.672 0.0
C851 C 0.36639 0.17298 0.63643 0.0
C852 C 0.34948 0.25418 0.60047 0.0
C853 C 0.35613 0.21853 0.63721 0.0
C854 C 0.34866 0.27741 0.59963 0.0
C855 C 0.35123 0.28974 0.63409 0.0
C856 C 0.35297 0.24308 0.63601 0.0
C857 C 0.35387 0.27799 0.66923 0.0
C858 C 0.35962 0.20717 0.67251 0.0
C859 C 0.36184 0.18478 0.60198 0.0
N860 N 0.35485 0.25534 0.66925 0.0
N861 N 0.35709 0.20688 0.60324 0.0
H862 H 0.07433 0.1214 0.81342 0.0
H863 H 0.96343 0.1049 0.93845 0.0
H864 H 0.07361 0.11875 0.9391 0.0
H865 H 0.96493 0.10661 0.81271 0.0
H866 H 0.00408 0.10602 0.93927 0.0
H867 H 0.03488 0.1119 0.81271 0.0
C868 C 0.06593 0.11861 0.84093 0.0
C869 C 0.07728 0.12113 0.87643 0.0
C870 C 0.99554 0.10596 0.9115 0.0
C871 C 0.03189 0.11038 0.87577 0.0
C872 C 0.97228 0.10532 0.91096 0.0
C873 C 0.96067 0.1059 0.87542 0.0
C874 C 0.00733 0.10726 0.87626 0.0
C875 C 0.97312 0.1063 0.8408 0.0
C876 C 0.04335 0.11318 0.84047 0.0
C877 C 0.06552 0.11708 0.91107 0.0
N878 N 0.99575 0.10717 0.84211 0.0
N879 N 0.0434 0.11215 0.90988 0.0
H880 H 0.85214 0.71389 0.71833 0.0
H881 H 0.85627 0.82242 0.58385 0.0
H882 H 0.8448 0.71342 0.5932 0.0
H883 H 0.86675 0.82434 0.7082 0.0
H884 H 0.84665 0.78315 0.58872 0.0
H885 H 0.85252 0.75468 0.71696 0.0
C886 C 0.85037 0.72233 0.69061 0.0
C887 C 0.84868 0.71016 0.65576 0.0
C888 C 0.85083 0.79214 0.61507 0.0
C889 C 0.84913 0.75684 0.65405 0.0
C890 C 0.85631 0.81463 0.61232 0.0
C891 C 0.86261 0.82665 0.64563 0.0
C892 C 0.85182 0.7814 0.65135 0.0
C893 C 0.86209 0.81569 0.68176 0.0
C894 C 0.85061 0.74563 0.68988 0.0
C895 C 0.84637 0.72204 0.62076 0.0
N896 N 0.85709 0.79357 0.68361 0.0
N897 N 0.84682 0.74466 0.62081 0.0
H898 H 0.92863 0.12213 0.45858 0.0
H899 H 0.03562 0.09425 0.32805 0.0
H900 H 0.92714 0.11133 0.33429 0.0
H901 H 0.03941 0.10932 0.45087 0.0
H902 H 0.9951 0.09529 0.33224 0.0
H903 H 0.96832 0.11218 0.45878 0.0
C904 C 0.93653 0.11731 0.43148 0.0
C905 C 0.92461 0.11783 0.3963 0.0
C906 C 0.00476 0.09822 0.35839 0.0
C907 C 0.96993 0.10659 0.39627 0.0
C908 C 0.02796 0.09763 0.356 0.0
C909 C 0.04102 0.10195 0.38905 0.0
C910 C 0.99443 0.10329 0.39404 0.0
C911 C 0.03005 0.10604 0.42455 0.0
C912 C 0.9592 0.11175 0.43158 0.0
C913 C 0.93571 0.11146 0.36204 0.0
N914 N 0.0074 0.10681 0.42603 0.0
N915 N 0.95772 0.1063 0.36286 0.0
H916 H 0.66005 0.28053 0.08821 0.0
H917 H 0.63043 0.16869 0.20307 0.0
H918 H 0.65394 0.2777 0.21342 0.0
H919 H 0.64221 0.17237 0.07914 0.0
H920 H 0.64251 0.20762 0.20906 0.0
H921 H 0.65708 0.24006 0.08569 0.0
C922 C 0.6583 0.27138 0.11524 0.0
C923 C 0.65703 0.28257 0.15103 0.0
C924 C 0.64268 0.19977 0.18066 0.0
C925 C 0.65334 0.23609 0.14838 0.0
C926 C 0.63584 0.17754 0.17725 0.0
C927 C 0.63501 0.16732 0.14049 0.0
C928 C 0.64868 0.21179 0.14707 0.0
C929 C 0.64225 0.1796 0.10803 0.0
C930 C 0.6566 0.24822 0.11381 0.0
C931 C 0.65491 0.26978 0.18514 0.0
N932 N 0.64856 0.20118 0.11205 0.0
N933 N 0.65286 0.24723 0.18295 0.0
H934 H 0.58156 0.88059 0.91403 0.0
H935 H 0.46557 0.8897 0.79941 0.0
H936 H 0.57479 0.87159 0.78979 0.0
H937 H 0.47132 0.89335 0.92465 0.0
H938 H 0.50611 0.88705 0.79477 0.0
H939 H 0.54178 0.88927 0.91786 0.0
C940 C 0.57178 0.8806 0.88751 0.0
C941 C 0.58154 0.87517 0.85158 0.0
C942 C 0.49851 0.88857 0.82326 0.0
C943 C 0.53596 0.88504 0.85579 0.0
C944 C 0.47533 0.89012 0.82593 0.0
C945 C 0.46495 0.89157 0.8625 0.0
C946 C 0.51145 0.88847 0.85738 0.0
C947 C 0.47854 0.89211 0.89583 0.0
C948 C 0.54904 0.88552 0.88974 0.0
C949 C 0.568 0.87551 0.81819 0.0
N950 N 0.50105 0.89043 0.89247 0.0
N951 N 0.54592 0.88023 0.82115 0.0
H952 H 0.8398 0.28726 0.91026 0.0
H953 H 0.86644 0.17507 0.79342 0.0
H954 H 0.84917 0.28528 0.7856 0.0
H955 H 0.85701 0.17886 0.91794 0.0
H956 H 0.85578 0.21444 0.78827 0.0
H957 H 0.84174 0.24672 0.91198 0.0
C958 C 0.84209 0.2783 0.88316 0.0
C959 C 0.84456 0.28975 0.84779 0.0
C960 C 0.85582 0.20654 0.81664 0.0
C961 C 0.84697 0.24315 0.84957 0.0
C962 C 0.86183 0.18405 0.81958 0.0
C963 C 0.86289 0.17369 0.85621 0.0
C964 C 0.85083 0.21869 0.85057 0.0
C965 C 0.85672 0.18617 0.88911 0.0
C966 C 0.8432 0.2551 0.88415 0.0
C967 C 0.8473 0.27717 0.81358 0.0
N968 N 0.85116 0.20799 0.88552 0.0
N969 N 0.84867 0.25455 0.81537 0.0
H970 H 0.57409 0.11618 0.55503 0.0
H971 H 0.46602 0.10512 0.69035 0.0
H972 H 0.57488 0.12138 0.68047 0.0
H973 H 0.46409 0.10078 0.56482 0.0
H974 H 0.50664 0.10664 0.68741 0.0
H975 H 0.53458 0.10595 0.55809 0.0
C976 C 0.56607 0.11489 0.58321 0.0
C977 C 0.57776 0.11992 0.61749 0.0
C978 C 0.49735 0.10517 0.6605 0.0
C979 C 0.5326 0.10839 0.62121 0.0
C980 C 0.47412 0.10429 0.66218 0.0
C981 C 0.46156 0.10306 0.62778 0.0
C982 C 0.50815 0.10493 0.62415 0.0
C983 C 0.47304 0.1019 0.59212 0.0
C984 C 0.54349 0.10912 0.58494 0.0
C985 C 0.5665 0.11794 0.65321 0.0
N986 N 0.49566 0.10307 0.59122 0.0
N987 N 0.54455 0.11252 0.65409 0.0
H988 H 0.64323 0.71564 0.45219 0.0
H989 H 0.63091 0.83047 0.33493 0.0
H990 H 0.64467 0.72023 0.32666 0.0
H991 H 0.62346 0.82455 0.45962 0.0
H992 H 0.64015 0.79079 0.33174 0.0
H993 H 0.64024 0.75618 0.45579 0.0
C994 C 0.64311 0.72515 0.42537 0.0
C995 C 0.64402 0.71443 0.38906 0.0
C996 C 0.63662 0.79822 0.35982 0.0
C997 C 0.6405 0.76095 0.39299 0.0
C998 C 0.63138 0.8209 0.36167 0.0
C999 C 0.62622 0.83086 0.39756 0.0
C1000 C 0.63674 0.78541 0.39409 0.0
C1001 C 0.62715 0.81759 0.43125 0.0
C1002 C 0.64135 0.74833 0.42745 0.0
C1003 C 0.64386 0.72771 0.35532 0.0
N1004 N 0.63218 0.79557 0.42865 0.0
N1005 N 0.64199 0.75024 0.35811 0.0
H1006 H 0.92117 0.8811 0.04428 0.0
H1007 H 0.03348 0.90253 0.16395 0.0
H1008 H 0.92487 0.88555 0.16964 0.0
H1009 H 0.03139 0.89703 0.03859 0.0
H1010 H 0.9929 0.90095 0.16551 0.0
H1011 H 0.96059 0.89161 0.04051 0.0
C1012 C 0.93015 0.88459 0.07095 0.0
C1013 C 0.91975 0.88217 0.10734 0.0
C1014 C 0.00128 0.90026 0.1376 0.0
C1015 C 0.96482 0.89404 0.10327 0.0
C1016 C 0.0245 0.90117 0.13669 0.0
C1017 C 0.03592 0.89966 0.10112 0.0
C1018 C 0.9893 0.89769 0.10271 0.0
C1019 C 0.02331 0.8981 0.06672 0.0
C1020 C 0.95267 0.89051 0.06879 0.0
C1021 C 0.93223 0.88693 0.14094 0.0
N1022 N 0.00069 0.89693 0.0684 0.0
N1023 N 0.95409 0.89243 0.13809 0.0
H1024 H 0.65762 0.78213 0.9094 0.0
H1025 H 0.63228 0.66984 0.79268 0.0
H1026 H 0.6525 0.77929 0.78405 0.0
H1027 H 0.63879 0.67415 0.91771 0.0
H1028 H 0.64439 0.70877 0.78761 0.0
H1029 H 0.65548 0.74161 0.91178 0.0
C1030 C 0.65625 0.77298 0.88231 0.0
C1031 C 0.65497 0.78418 0.84652 0.0
C1032 C 0.64341 0.70107 0.81609 0.0
C1033 C 0.65229 0.73763 0.84902 0.0
C1034 C 0.63657 0.67883 0.81898 0.0
C1035 C 0.6342 0.6688 0.8557 0.0
C1036 C 0.64792 0.71329 0.85016 0.0
C1037 C 0.64004 0.68126 0.8888 0.0
C1038 C 0.65503 0.74979 0.88367 0.0
C1039 C 0.65341 0.77137 0.81234 0.0
N1040 N 0.6464 0.70285 0.88524 0.0
N1041 N 0.65185 0.74879 0.81446 0.0
H1042 H 0.47414 0.39928 0.07901 0.0
H1043 H 0.57945 0.37096 0.21277 0.0
H1044 H 0.47044 0.38991 0.20357 0.0
H1045 H 0.58346 0.38034 0.08825 0.0
H1046 H 0.54008 0.38088 0.21053 0.0
H1047 H 0.51459 0.39558 0.08252 0.0
C1048 C 0.48182 0.39664 0.10719 0.0
C1049 C 0.46879 0.39473 0.14103 0.0
C1050 C 0.54957 0.38091 0.18371 0.0
C1051 C 0.51521 0.39033 0.14516 0.0
C1052 C 0.5721 0.37522 0.18493 0.0
C1053 C 0.58481 0.37463 0.15057 0.0
C1054 C 0.53954 0.38598 0.14784 0.0
C1055 C 0.57433 0.38047 0.11544 0.0
C1056 C 0.50496 0.39449 0.10913 0.0
C1057 C 0.47976 0.3914 0.17669 0.0
N1058 N 0.55228 0.38575 0.11496 0.0
N1059 N 0.5023 0.38914 0.17776 0.0
H1060 H 0.86001 0.21825 0.45354 0.0
H1061 H 0.86524 0.33118 0.32931 0.0
H1062 H 0.85451 0.22054 0.32817 0.0
H1063 H 0.87776 0.32741 0.453 0.0
H1064 H 0.85632 0.29136 0.3293 0.0
H1065 H 0.86159 0.25892 0.45475 0.0
C1066 C 0.85894 0.22728 0.42629 0.0
C1067 C 0.85734 0.2159 0.39068 0.0
C1068 C 0.86086 0.29931 0.35648 0.0
C1069 C 0.85923 0.26253 0.39185 0.0
C1070 C 0.86589 0.32206 0.35652 0.0
C1071 C 0.87248 0.33263 0.39113 0.0
C1072 C 0.86236 0.28707 0.3913 0.0
C1073 C 0.87299 0.31995 0.42553 0.0
C1074 C 0.85989 0.25053 0.42699 0.0
C1075 C 0.85592 0.22856 0.35631 0.0
N1076 N 0.86814 0.29785 0.42468 0.0
N1077 N 0.85705 0.25117 0.35774 0.0
H1078 H 0.91939 0.61546 0.57304 0.0
H1079 H 0.03725 0.59764 0.67786 0.0
H1080 H 0.92945 0.61772 0.69752 0.0
H1081 H 0.02924 0.59954 0.5529 0.0
H1082 H 0.99698 0.60066 0.68521 0.0
H1083 H 0.95872 0.60554 0.56478 0.0
C1084 C 0.92979 0.61369 0.59864 0.0
C1085 C 0.92111 0.61763 0.63602 0.0
C1086 C 0.00398 0.60027 0.65614 0.0
C1087 C 0.96611 0.6063 0.62675 0.0
C1088 C 0.02703 0.5985 0.65191 0.0
C1089 C 0.03672 0.59854 0.61469 0.0
C1090 C 0.99042 0.60218 0.62295 0.0
C1091 C 0.02253 0.59956 0.58217 0.0
C1092 C 0.95225 0.60806 0.59389 0.0
C1093 C 0.93539 0.61505 0.66812 0.0
N1094 N 1.00011 0.60153 0.58706 0.0
N1095 N 0.95716 0.60967 0.66271 0.0
H1096 H 0.63768 0.2172 0.54206 0.0
H1097 H 0.63151 0.33378 0.65522 0.0
H1098 H 0.64906 0.22431 0.66565 0.0
H1099 H 0.61834 0.32621 0.53226 0.0
H1100 H 0.64131 0.29426 0.65857 0.0
H1101 H 0.63403 0.25765 0.53683 0.0
C1102 C 0.63962 0.22725 0.56805 0.0
C1103 C 0.64351 0.21727 0.6044 0.0
C1104 C 0.6364 0.30129 0.63082 0.0
C1105 C 0.6392 0.26365 0.59865 0.0
C1106 C 0.63082 0.32387 0.62887 0.0
C1107 C 0.62391 0.33333 0.59347 0.0
C1108 C 0.63507 0.28804 0.59713 0.0
C1109 C 0.62341 0.31964 0.56027 0.0
C1110 C 0.63749 0.25037 0.56505 0.0
C1111 C 0.64592 0.23121 0.63704 0.0
N1112 N 0.62878 0.2977 0.56297 0.0
N1113 N 0.64358 0.25364 0.63342 0.0
H1114 H 0.03094 0.40249 0.818 0.0
H1115 H 0.91371 0.38714 0.92605 0.0
H1116 H 0.0232 0.40583 0.94292 0.0
H1117 H 0.92298 0.38239 0.80158 0.0
H1118 H 0.95294 0.39776 0.93279 0.0
H1119 H 0.99063 0.3991 0.81139 0.0
C1120 C 0.02076 0.40272 0.84406 0.0
C1121 C 0.03054 0.40424 0.8811 0.0
C1122 C 0.94632 0.39454 0.904 0.0
C1123 C 0.98423 0.40017 0.87374 0.0
C1124 C 0.92391 0.3885 0.90013 0.0
C1125 C 0.91505 0.38365 0.86323 0.0
C1126 C 0.95994 0.39575 0.87074 0.0
C1127 C 0.92907 0.38575 0.83067 0.0
C1128 C 0.9977 0.40075 0.84027 0.0
C1129 C 0.01642 0.40458 0.91378 0.0
N1130 N 0.95079 0.39151 0.83523 0.0
N1131 N 0.99401 0.40235 0.90936 0.0
H1132 H 0.85044 0.77965 0.17949 0.0
H1133 H 0.87558 0.67243 0.04897 0.0
H1134 H 0.85628 0.78134 0.05414 0.0
H1135 H 0.86597 0.66966 0.17353 0.0
H1136 H 0.86575 0.71184 0.04996 0.0
H1137 H 0.85322 0.73908 0.17752 0.0
C1138 C 0.85211 0.77151 0.15149 0.0
C1139 C 0.85333 0.78401 0.11693 0.0
C1140 C 0.86562 0.70261 0.07707 0.0
C1141 C 0.85665 0.73745 0.11455 0.0
C1142 C 0.87126 0.68006 0.07656 0.0
C1143 C 0.8718 0.66771 0.1113 0.0
C1144 C 0.86061 0.71303 0.11262 0.0
C1145 C 0.86586 0.67852 0.14606 0.0
C1146 C 0.8537 0.7483 0.15041 0.0
C1147 C 0.85538 0.77246 0.08154 0.0
N1148 N 0.86071 0.70061 0.14588 0.0
N1149 N 0.85717 0.74987 0.08131 0.0
H1150 H 0.57588 0.60987 0.33225 0.0
H1151 H 0.46869 0.59556 0.46785 0.0
H1152 H 0.57806 0.61599 0.4575 0.0
H1153 H 0.46733 0.59457 0.3421 0.0
H1154 H 0.5094 0.59747 0.46566 0.0
H1155 H 0.53708 0.59841 0.33659 0.0
C1156 C 0.56826 0.60859 0.36078 0.0
C1157 C 0.58019 0.61421 0.39456 0.0
C1158 C 0.50019 0.59661 0.43859 0.0
C1159 C 0.5355 0.60124 0.39968 0.0
C1160 C 0.47693 0.59548 0.43978 0.0
C1161 C 0.46452 0.59516 0.40507 0.0
C1162 C 0.51111 0.59739 0.40244 0.0
C1163 C 0.47615 0.59502 0.3696 0.0
C1164 C 0.54604 0.60205 0.36322 0.0
C1165 C 0.56947 0.61194 0.4307 0.0
N1166 N 0.49874 0.5963 0.36922 0.0
N1167 N 0.54762 0.60589 0.43229 0.0
H1168 H 0.36758 0.32661 0.07531 0.0
H1169 H 0.35367 0.21536 0.20055 0.0
H1170 H 0.37113 0.32535 0.2009 0.0
H1171 H 0.35071 0.21786 0.07494 0.0
H1172 H 0.35586 0.25603 0.20209 0.0
H1173 H 0.35697 0.28748 0.07558 0.0
C1174 C 0.36593 0.31816 0.10304 0.0
C1175 C 0.37052 0.32925 0.13814 0.0
C1176 C 0.35453 0.24768 0.17423 0.0
C1177 C 0.35851 0.28418 0.13861 0.0
C1178 C 0.35327 0.22443 0.17329 0.0
C1179 C 0.35224 0.2131 0.13751 0.0
C1180 C 0.35479 0.25971 0.13914 0.0
C1181 C 0.35167 0.22581 0.10319 0.0
C1182 C 0.35986 0.29575 0.10316 0.0
C1183 C 0.36785 0.31744 0.17315 0.0
N1184 N 0.35312 0.24838 0.10487 0.0
N1185 N 0.36226 0.29545 0.17247 0.0
H1186 H 0.41787 0.61825 0.9252 0.0
H1187 H 0.53159 0.60395 0.80528 0.0
H1188 H 0.42244 0.62192 0.79983 0.0
H1189 H 0.52853 0.60636 0.9309 0.0
H1190 H 0.491 0.6063 0.80293 0.0
H1191 H 0.45774 0.60969 0.92797 0.0
C1192 C 0.42718 0.61707 0.89825 0.0
C1193 C 0.41679 0.621 0.86225 0.0
C1194 C 0.49919 0.60618 0.83103 0.0
C1195 C 0.46244 0.61126 0.86523 0.0
C1196 C 0.52241 0.6048 0.8324 0.0
C1197 C 0.53357 0.60513 0.86834 0.0
C1198 C 0.48697 0.60791 0.86582 0.0
C1199 C 0.52069 0.60618 0.9025 0.0
C1200 C 0.44996 0.61223 0.89986 0.0
C1201 C 0.42973 0.61921 0.82828 0.0
N1202 N 0.49811 0.60767 0.90039 0.0
N1203 N 0.45185 0.61458 0.83064 0.0
H1204 H 0.13721 0.66663 0.67669 0.0
H1205 H 0.14541 0.78427 0.56765 0.0
H1206 H 0.12617 0.67601 0.55348 0.0
H1207 H 0.15154 0.7767 0.69229 0.0
H1208 H 0.14311 0.74387 0.56124 0.0
H1209 H 0.14713 0.70609 0.68222 0.0
C1210 C 0.13707 0.67691 0.65075 0.0
C1211 C 0.13062 0.66802 0.61463 0.0
C1212 C 0.14512 0.75102 0.58999 0.0
C1213 C 0.1419 0.71316 0.62079 0.0
C1214 C 0.14647 0.77412 0.59368 0.0
C1215 C 0.14844 0.78395 0.63061 0.0
C1216 C 0.14567 0.73756 0.62347 0.0
C1217 C 0.14987 0.76988 0.66324 0.0
C1218 C 0.14269 0.69944 0.65395 0.0
C1219 C 0.13081 0.68214 0.582 0.0
N1220 N 0.14827 0.74741 0.65894 0.0
N1221 N 0.13621 0.70399 0.58591 0.0
H1222 H 0.08252 0.38278 0.41795 0.0
H1223 H 0.96413 0.39962 0.31465 0.0
H1224 H 0.07149 0.37709 0.29404 0.0
H1225 H 0.97369 0.40344 0.43914 0.0
H1226 H 0.00424 0.39527 0.30636 0.0
H1227 H 0.04356 0.39398 0.42609 0.0
C1228 C 0.07198 0.38402 0.39243 0.0
C1229 C 0.08029 0.37879 0.35528 0.0
C1230 C 0.99762 0.39723 0.3355 0.0
C1231 C 0.03568 0.39158 0.36442 0.0
C1232 C 0.97467 0.39976 0.34026 0.0
C1233 C 0.96545 0.4017 0.37769 0.0
C1234 C 0.01153 0.39652 0.36838 0.0
C1235 C 0.98002 0.40189 0.40974 0.0
C1236 C 0.04973 0.39041 0.39711 0.0
C1237 C 0.06584 0.38077 0.32328 0.0
N1238 N 0.00231 0.39912 0.40437 0.0
N1239 N 0.04426 0.38688 0.32863 0.0
H1240 H 0.37315 0.67323 0.46083 0.0
H1241 H 0.35527 0.77871 0.32217 0.0
H1242 H 0.36973 0.66862 0.33546 0.0
H1243 H 0.35499 0.78213 0.44783 0.0
H1244 H 0.3581 0.73817 0.32632 0.0
H1245 H 0.36409 0.71275 0.45649 0.0
C1246 C 0.37036 0.68049 0.43235 0.0
C1247 C 0.37239 0.66756 0.39842 0.0
C1248 C 0.35725 0.74778 0.35298 0.0
C1249 C 0.36208 0.71302 0.39326 0.0
C1250 C 0.35562 0.77096 0.35066 0.0
C1251 C 0.35505 0.78394 0.38473 0.0
C1252 C 0.35843 0.73743 0.38961 0.0
C1253 C 0.35548 0.77288 0.42078 0.0
C1254 C 0.36516 0.7031 0.42991 0.0
C1255 C 0.36842 0.67792 0.36238 0.0
N1256 N 0.35731 0.75031 0.42225 0.0
N1257 N 0.36364 0.70007 0.36073 0.0
H1258 H 0.96543 0.60159 0.18382 0.0
H1259 H 0.08206 0.61154 0.07181 0.0
H1260 H 0.97223 0.59437 0.05922 0.0
H1261 H 0.07342 0.62306 0.19506 0.0
H1262 H 0.04275 0.60085 0.06738 0.0
H1263 H 0.00581 0.60492 0.18919 0.0
C1264 C 0.97541 0.60049 0.15759 0.0
C1265 C 0.96535 0.5979 0.12096 0.0
C1266 C 0.04953 0.60556 0.09542 0.0
C1267 C 0.01173 0.60188 0.12691 0.0
C1268 C 0.07198 0.61164 0.09799 0.0
C1269 C 0.08103 0.61842 0.13379 0.0
C1270 C 0.03606 0.60624 0.12891 0.0
C1271 C 0.06716 0.61816 0.16675 0.0
C1272 C 0.99851 0.60244 0.16068 0.0
C1273 C 0.97922 0.59648 0.08805 0.0
N1274 N 0.04539 0.61231 0.16345 0.0
N1275 N 0.00168 0.59867 0.09177 0.0
H1276 H 0.13707 0.21865 0.94885 0.0
H1277 H 0.13301 0.33353 0.83019 0.0
H1278 H 0.15016 0.2239 0.82548 0.0
H1279 H 0.11631 0.32745 0.9521 0.0
H1280 H 0.14329 0.29409 0.82938 0.0
H1281 H 0.13348 0.25918 0.95209 0.0
C1282 C 0.13941 0.22831 0.92251 0.0
C1283 C 0.14372 0.21779 0.88678 0.0
C1284 C 0.1375 0.30143 0.85636 0.0
C1285 C 0.1395 0.26423 0.89024 0.0
C1286 C 0.13166 0.32398 0.85686 0.0
C1287 C 0.12359 0.33381 0.89117 0.0
C1288 C 0.13528 0.28862 0.89042 0.0
C1289 C 0.12226 0.32058 0.92487 0.0
C1290 C 0.1373 0.25147 0.92436 0.0
C1291 C 0.14665 0.23123 0.85363 0.0
N1292 N 0.12791 0.29867 0.92357 0.0
N1293 N 0.14433 0.25371 0.85613 0.0
H1294 H 0.42173 0.39662 0.66896 0.0
H1295 H 0.52715 0.40426 0.52737 0.0
H1296 H 0.41805 0.38313 0.54559 0.0
H1297 H 0.53034 0.40888 0.65276 0.0
H1298 H 0.48645 0.40261 0.53153 0.0
H1299 H 0.46048 0.40759 0.66121 0.0
C1300 C 0.42901 0.39617 0.64009 0.0
C1301 C 0.41667 0.38862 0.60794 0.0
C1302 C 0.49607 0.40421 0.55806 0.0
C1303 C 0.46132 0.40104 0.59894 0.0
C1304 C 0.51931 0.40521 0.55574 0.0
C1305 C 0.53222 0.40647 0.58982 0.0
C1306 C 0.48568 0.40458 0.5947 0.0
C1307 C 0.52112 0.40768 0.62573 0.0
C1308 C 0.4512 0.40242 0.63571 0.0
C1309 C 0.42696 0.38871 0.5712 0.0
N1310 N 0.49854 0.40657 0.62721 0.0
N1311 N 0.44881 0.39455 0.56776 0.0
H1312 H 0.12521 0.15478 0.52618 0.0
H1313 H 0.15959 0.10468 0.73259 0.0
H1314 H 0.14077 0.08505 0.54068 0.0
H1315 H 0.14615 0.17392 0.70852 0.0
H1316 H 0.15794 0.09689 0.66209 0.0
H1317 H 0.13755 0.16186 0.59204 0.0
C1318 C 0.13123 0.14088 0.5434 0.0
C1319 C 0.13161 0.11923 0.52817 0.0
C1320 C 0.15579 0.11383 0.6723 0.0
C1321 C 0.14577 0.12721 0.60447 0.0
C1322 C 0.15689 0.11829 0.71239 0.0
C1323 C 0.15274 0.13992 0.72618 0.0
C1324 C 0.15065 0.13121 0.64629 0.0
C1325 C 0.14915 0.15696 0.69907 0.0
C1326 C 0.13841 0.14496 0.58111 0.0
C1327 C 0.14005 0.10197 0.55156 0.0
N1328 N 0.14801 0.1522 0.6606 0.0
N1329 N 0.14652 0.10627 0.58894 0.0
H1330 H 0.17118 0.84625 0.80587 0.0
H1331 H 0.10462 0.92133 0.93647 0.0
H1332 H 0.14834 0.90871 0.7586 0.0
H1333 H 0.16334 0.89013 0.98374 0.0
H1334 H 0.12091 0.91872 0.87108 0.0
H1335 H 0.17016 0.86249 0.87134 0.0
C1336 C 0.16668 0.86363 0.80929 0.0
C1337 C 0.15996 0.87627 0.77708 0.0
C1338 C 0.13058 0.91316 0.89589 0.0
C1339 C 0.15777 0.89457 0.8516 0.0
C1340 C 0.12131 0.91469 0.93309 0.0
C1341 C 0.13284 0.90613 0.96523 0.0
C1342 C 0.15101 0.90211 0.89086 0.0
C1343 C 0.15415 0.89717 0.95953 0.0
C1344 C 0.16608 0.87288 0.84654 0.0
C1345 C 0.15386 0.89858 0.78286 0.0
N1346 N 0.16234 0.89479 0.92281 0.0
N1347 N 0.15225 0.90688 0.81964 0.0
H1348 H 0.41974 0.86657 0.03912 0.0
H1349 H 0.33966 0.88773 0.22191 0.0
H1350 H 0.35949 0.90535 0.02798 0.0
H1351 H 0.39318 0.83969 0.21677 0.0
H1352 H 0.34709 0.89742 0.15326 0.0
H1353 H 0.41164 0.8608 0.10746 0.0
C1354 C 0.40481 0.87403 0.05119 0.0
C1355 C 0.39015 0.88628 0.02772 0.0
C1356 C 0.35708 0.88473 0.16734 0.0
C1357 C 0.38049 0.87941 0.10647 0.0
C1358 C 0.3528 0.87913 0.20636 0.0
C1359 C 0.36585 0.86291 0.22515 0.0
C1360 C 0.37459 0.8741 0.14742 0.0
C1361 C 0.38271 0.85235 0.20372 0.0
C1362 C 0.40011 0.87064 0.09032 0.0
C1363 C 0.3712 0.89577 0.04515 0.0
N1364 N 0.3866 0.85819 0.16627 0.0
N1365 N 0.36676 0.89198 0.08359 0.0
H1366 H 0.41392 0.09922 0.46256 0.0
H1367 H 0.32661 0.11217 0.28789 0.0
H1368 H 0.34316 0.09802 0.48395 0.0
H1369 H 0.39571 0.13215 0.28659 0.0
H1370 H 0.33161 0.0988 0.35553 0.0
H1371 H 0.4068 0.1011 0.39293 0.0
C1372 C 0.39683 0.09893 0.45236 0.0
C1373 C 0.3791 0.09868 0.47876 0.0
C1374 C 0.3456 0.10601 0.3401 0.0
C1375 C 0.3707 0.1017 0.39911 0.0
C1376 C 0.34277 0.11363 0.3017 0.0
C1377 C 0.3607 0.12354 0.28188 0.0
C1378 C 0.3666 0.10795 0.35799 0.0
C1379 C 0.38131 0.12496 0.30088 0.0
C1380 C 0.39273 0.10016 0.41265 0.0
C1381 C 0.35724 0.09819 0.46423 0.0
N1382 N 0.38365 0.11727 0.33765 0.0
N1383 N 0.35357 0.10017 0.42514 0.0
H1384 H 0.88125 0.83137 0.28728 0.0
H1385 H 0.85678 0.90808 0.473 0.0
H1386 H 0.84141 0.89102 0.27733 0.0
H1387 H 0.90662 0.8563 0.466 0.0
H1388 H 0.84792 0.90168 0.40367 0.0
H1389 H 0.88656 0.8389 0.35585 0.0
C1390 C 0.8735 0.84608 0.29962 0.0
C1391 C 0.86106 0.86072 0.27642 0.0
C1392 C 0.86083 0.89186 0.41751 0.0
C1393 C 0.86735 0.86969 0.35556 0.0
C1394 C 0.86594 0.89554 0.45692 0.0
C1395 C 0.88241 0.88264 0.47538 0.0
C1396 C 0.8722 0.8751 0.39688 0.0
C1397 C 0.89372 0.86659 0.45325 0.0
C1398 C 0.87662 0.85044 0.33891 0.0
C1399 C 0.85117 0.87935 0.29427 0.0
N1400 N 0.88834 0.86326 0.41545 0.0
N1401 N 0.85467 0.88344 0.33291 0.0
H1402 H 0.85582 0.09368 0.03305 0.0
H1403 H 0.88614 0.16793 0.21929 0.0
H1404 H 0.90629 0.14489 0.0378 0.0
H1405 H 0.84283 0.11076 0.22892 0.0
H1406 H 0.89037 0.16071 0.15047 0.0
H1407 H 0.84837 0.09984 0.10296 0.0
C1408 C 0.86538 0.10607 0.04874 0.0
C1409 C 0.88164 0.11886 0.02951 0.0
C1410 C 0.87988 0.14965 0.16737 0.0
C1411 C 0.8731 0.12607 0.10871 0.0
C1412 C 0.8774 0.15383 0.20685 0.0
C1413 C 0.86425 0.13981 0.23003 0.0
C1414 C 0.86924 0.13121 0.15046 0.0
C1415 C 0.85315 0.12194 0.21202 0.0
C1416 C 0.86109 0.10961 0.08849 0.0
C1417 C 0.89351 0.1347 0.05115 0.0
N1418 N 0.856 0.11802 0.17316 0.0
N1419 N 0.88895 0.13786 0.08933 0.0
H1420 H 0.6593 0.10759 0.76495 0.0
H1421 H 0.60319 0.14951 0.96138 0.0
H1422 H 0.63577 0.17442 0.78628 0.0
H1423 H 0.6409 0.0882 0.95884 0.0
H1424 H 0.61493 0.15741 0.89561 0.0
H1425 H 0.65413 0.09909 0.83471 0.0
C1426 C 0.65358 0.12058 0.78444 0.0
C1427 C 0.64767 0.14165 0.7699 0.0
C1428 C 0.6208 0.14223 0.90922 0.0
C1429 C 0.64145 0.13204 0.84881 0.0
C1430 C 0.61394 0.13759 0.94691 0.0
C1431 C 0.62102 0.11811 0.96574 0.0
C1432 C 0.63479 0.12723 0.88957 0.0
C1433 C 0.63503 0.1034 0.9453 0.0
C1434 C 0.6505 0.11569 0.82407 0.0
C1435 C 0.64021 0.15787 0.79616 0.0
N1436 N 0.64141 0.10821 0.90805 0.0
N1437 N 0.63712 0.15265 0.83412 0.0
H1438 H 0.66532 0.9015 0.50933 0.0
H1439 H 0.65202 0.91478 0.73913 0.0
H1440 H 0.60689 0.92816 0.56546 0.0
H1441 H 0.67859 0.85633 0.68295 0.0
H1442 H 0.64966 0.93325 0.67528 0.0
H1443 H 0.68377 0.89913 0.57319 0.0
C1444 C 0.65682 0.90787 0.53487 0.0
C1445 C 0.63462 0.91498 0.53249 0.0
C1446 C 0.65687 0.91673 0.67728 0.0
C1447 C 0.65547 0.91245 0.60484 0.0
C1448 C 0.65836 0.90628 0.71358 0.0
C1449 C 0.66545 0.88407 0.71594 0.0
C1450 C 0.66294 0.90494 0.6436 0.0
C1451 C 0.67302 0.8735 0.68207 0.0
C1452 C 0.66727 0.90637 0.57117 0.0
C1453 C 0.62405 0.92258 0.56635 0.0
N1454 N 0.67136 0.88396 0.6471 0.0
N1455 N 0.6345 0.9209 0.60132 0.0
H1456 H 0.58649 0.64201 0.03653 0.0
H1457 H 0.65858 0.6099 0.22442 0.0
H1458 H 0.63797 0.5918 0.03122 0.0
H1459 H 0.61295 0.66534 0.21593 0.0
H1460 H 0.65178 0.60165 0.15503 0.0
H1461 H 0.59552 0.64864 0.10414 0.0
C1462 C 0.5997 0.63226 0.04967 0.0
C1463 C 0.61156 0.61639 0.02803 0.0
C1464 C 0.64342 0.61567 0.16848 0.0
C1465 C 0.62223 0.62409 0.10621 0.0
C1466 C 0.64737 0.62045 0.20793 0.0
C1467 C 0.63619 0.63824 0.22603 0.0
C1468 C 0.62819 0.62879 0.14738 0.0
C1469 C 0.6218 0.65133 0.20342 0.0
C1470 C 0.60494 0.63613 0.08844 0.0
C1471 C 0.62841 0.60419 0.0469 0.0
N1472 N 0.61818 0.64627 0.16554 0.0
N1473 N 0.63333 0.60835 0.08504 0.0
H1474 H 0.60565 0.42933 0.42529 0.0
H1475 H 0.68142 0.35468 0.31619 0.0
H1476 H 0.66353 0.40439 0.48534 0.0
H1477 H 0.65716 0.41328 0.25738 0.0
H1478 H 0.67837 0.37429 0.37847 0.0
H1479 H 0.62594 0.42684 0.36359 0.0
C1480 C 0.62295 0.42415 0.42553 0.0
C1481 C 0.63303 0.41708 0.46017 0.0
C1482 C 0.67452 0.38319 0.35185 0.0
C1483 C 0.65591 0.41319 0.38988 0.0
C1484 C 0.67629 0.37201 0.31637 0.0
C1485 C 0.66955 0.38247 0.28188 0.0
C1486 C 0.665 0.40456 0.3528 0.0
C1487 C 0.66266 0.40477 0.28349 0.0
C1488 C 0.63453 0.42271 0.39039 0.0
C1489 C 0.65532 0.41013 0.4591 0.0
N1490 N 0.65982 0.41489 0.31861 0.0
N1491 N 0.66584 0.40763 0.42426 0.0
H1492 H 0.8246 0.35997 0.68234 0.0
H1493 H 0.90357 0.42533 0.55672 0.0
H1494 H 0.85668 0.41736 0.73253 0.0
H1495 H 0.84098 0.40533 0.50622 0.0
H1496 H 0.88649 0.42395 0.62152 0.0
H1497 H 0.82883 0.37663 0.61747 0.0
C1498 C 0.83178 0.37647 0.67969 0.0
C1499 C 0.84008 0.38751 0.71253 0.0
C1500 C 0.87628 0.42057 0.59618 0.0
C1501 C 0.84595 0.40607 0.6388 0.0
C1502 C 0.88601 0.42137 0.5593 0.0
C1503 C 0.87356 0.41556 0.52634 0.0
C1504 C 0.85427 0.41296 0.60009 0.0
C1505 C 0.85099 0.41015 0.53106 0.0
C1506 C 0.83424 0.38594 0.64279 0.0
C1507 C 0.8498 0.40856 0.70776 0.0
N1508 N 0.84218 0.40832 0.56747 0.0
N1509 N 0.85306 0.41694 0.67137 0.0
H1510 H 0.84017 0.59517 0.99457 0.0
H1511 H 0.86239 0.58133 0.7666 0.0
H1512 H 0.90289 0.57384 0.94612 0.0
H1513 H 0.82798 0.6376 0.81614 0.0
H1514 H 0.8656 0.56495 0.83207 0.0
H1515 H 0.82452 0.59683 0.92834 0.0
C1516 C 0.8503 0.5899 0.97012 0.0
C1517 C 0.87279 0.58436 0.97548 0.0
C1518 C 0.85662 0.58046 0.82829 0.0
C1519 C 0.85511 0.58606 0.90045 0.0
C1520 C 0.85465 0.5897 0.79108 0.0
C1521 C 0.84481 0.6107 0.78632 0.0
C1522 C 0.84838 0.59224 0.86055 0.0
C1523 C 0.83554 0.62128 0.81887 0.0
C1524 C 0.84144 0.59101 0.9325 0.0
C1525 C 0.88546 0.57816 0.94296 0.0
N1526 N 0.83768 0.612 0.8548 0.0
N1527 N 0.87648 0.57931 0.9067 0.0
H1528 H 0.33624 0.3929 0.79023 0.0
H1529 H 0.42477 0.38602 0.96436 0.0
H1530 H 0.39919 0.35803 0.78741 0.0
H1531 H 0.35754 0.40887 0.98405 0.0
H1532 H 0.41672 0.38243 0.89541 0.0
H1533 H 0.3442 0.40408 0.85805 0.0
C1534 C 0.35165 0.3876 0.80379 0.0
C1535 C 0.367 0.37439 0.7832 0.0
C1536 C 0.40366 0.38837 0.91457 0.0
C1537 C 0.37631 0.38736 0.85986 0.0
C1538 C 0.40831 0.39053 0.95398 0.0
C1539 C 0.39172 0.3975 0.97991 0.0
C1540 C 0.3821 0.39289 0.90075 0.0
C1541 C 0.37076 0.4034 0.96484 0.0
C1542 C 0.35619 0.39401 0.84234 0.0
C1543 C 0.38675 0.36807 0.80204 0.0
N1544 N 0.36639 0.40065 0.92612 0.0
N1545 N 0.39079 0.37462 0.83906 0.0
H1546 H 0.32085 0.64232 0.69188 0.0
H1547 H 0.3948 0.57158 0.56809 0.0
H1548 H 0.34857 0.58282 0.7427 0.0
H1549 H 0.3348 0.59769 0.5165 0.0
H1550 H 0.37692 0.57289 0.6322 0.0
H1551 H 0.32312 0.62496 0.62743 0.0
C1552 C 0.32663 0.62526 0.68949 0.0
C1553 C 0.33442 0.61386 0.72235 0.0
C1554 C 0.36736 0.57758 0.60672 0.0
C1555 C 0.33808 0.59438 0.64896 0.0
C1556 C 0.37755 0.57681 0.57023 0.0
C1557 C 0.36613 0.58443 0.53726 0.0
C1558 C 0.34602 0.58698 0.61029 0.0
C1559 C 0.34399 0.59147 0.54138 0.0
C1560 C 0.32795 0.61537 0.65279 0.0
C1561 C 0.3422 0.59198 0.7179 0.0
N1562 N 0.33482 0.59324 0.57751 0.0
N1563 N 0.34449 0.58314 0.68162 0.0
H1564 H 0.16167 0.60415 0.48804 0.0
H1565 H 0.14617 0.58805 0.25906 0.0
H1566 H 0.10087 0.57922 0.43755 0.0
H1567 H 0.16994 0.64935 0.30941 0.0
H1568 H 0.1427 0.5722 0.32497 0.0
H1569 H 0.17754 0.60782 0.42218 0.0
C1570 C 0.15207 0.59854 0.46318 0.0
C1571 C 0.13003 0.59129 0.4679 0.0
C1572 C 0.14943 0.58882 0.32131 0.0
C1573 C 0.148 0.59521 0.39332 0.0
C1574 C 0.15157 0.59778 0.2839 0.0
C1575 C 0.15842 0.61995 0.27912 0.0
C1576 C 0.15473 0.60201 0.35376 0.0
C1577 C 0.16469 0.63216 0.31212 0.0
C1578 C 0.16104 0.60079 0.42579 0.0
C1579 C 0.11798 0.58477 0.43488 0.0
N1580 N 0.16261 0.62305 0.34819 0.0
N1581 N 0.12709 0.58697 0.39883 0.0
H1582 H 0.17217 0.35791 0.17591 0.0
H1583 H 0.09559 0.42809 0.05636 0.0
H1584 H 0.14275 0.41553 0.23024 0.0
H1585 H 0.15686 0.40619 0.00325 0.0
H1586 H 0.11343 0.426 0.12042 0.0
H1587 H 0.16904 0.37635 0.11241 0.0
C1588 C 0.16584 0.37481 0.17449 0.0
C1589 C 0.15786 0.38538 0.20806 0.0
C1590 C 0.12323 0.4224 0.09467 0.0
C1591 C 0.15324 0.40604 0.13581 0.0
C1592 C 0.11306 0.42362 0.0582 0.0
C1593 C 0.12486 0.41737 0.02475 0.0
C1594 C 0.14498 0.41394 0.09766 0.0
C1595 C 0.14733 0.41132 0.0285 0.0
C1596 C 0.16402 0.38531 0.13836 0.0
C1597 C 0.14931 0.40703 0.20487 0.0
N1598 N 0.15652 0.40906 0.06453 0.0
N1599 N 0.14658 0.41644 0.16913 0.0
loop_
_geom_bond_atom_site_label_1
_geom_bond_atom_site_label_2
_geom_bond_distance
_geom_bond_site_symmetry_2
_ccdc_geom_bond_type
O0 Cd1 2.223 . S
O0 C8 1.315 . S
Cd1 O0 2.223 . S
Cd1 O4 2.297 . S
Cd1 O5 2.439 . S
Cd1 O11 2.240 . S
Cd2 O3 2.240 . S
Cd2 O10 2.223 . S
Cd2 O12 2.297 . S
Cd2 O13 2.439 . S
O3 Cd2 2.240 . S
O3 C8 1.279 . S
O4 Cd1 2.297 . S
O4 C6 1.247 . S
O5 Cd1 2.439 . S
O5 C6 1.208 . S
C6 O4 1.247 . S
C6 O5 1.208 . S
C7 O12 1.247 . S
C7 O13 1.208 . S
C8 O0 1.315 . S
C8 O3 1.279 . S
C9 O10 1.315 . S
C9 O11 1.279 . S
O10 Cd2 2.223 . S
O10 C9 1.315 . S
O11 Cd1 2.240 . S
O11 C9 1.279 . S
O12 Cd2 2.297 . S
O12 C7 1.247 . S
O13 Cd2 2.439 . S
O13 C7 1.208 . S
O14 Cd15 2.223 . S
O14 C22 1.315 . S
Cd15 O14 2.223 . S
Cd15 O18 2.297 . S
Cd15 O19 2.439 . S
Cd15 O25 2.240 . S
Cd16 O17 2.240 . S
Cd16 O24 2.223 . S
Cd16 O26 2.297 . S
Cd16 O27 2.439 . S
O17 Cd16 2.240 . S
O17 C22 1.279 . S
O18 Cd15 2.297 . S
O18 C20 1.247 . S
O19 Cd15 2.439 . S
O19 C20 1.208 . S
C20 O18 1.247 . S
C20 O19 1.208 . S
C21 O26 1.247 . S
C21 O27 1.208 . S
C22 O14 1.315 . S
C22 O17 1.279 . S
C23 O24 1.315 . S
C23 O25 1.279 . S
O24 Cd16 2.223 . S
O24 C23 1.315 . S
O25 Cd15 2.240 . S
O25 C23 1.279 . S
O26 Cd16 2.297 . S
O26 C21 1.247 . S
O27 Cd16 2.439 . S
O27 C21 1.208 . S
O28 Cd29 2.223 . S
O28 C36 1.315 . S
Cd29 O28 2.223 . S
Cd29 O32 2.297 . S
Cd29 O33 2.439 . S
Cd29 O39 2.240 . S
Cd30 O31 2.240 . S
Cd30 O38 2.223 . S
Cd30 O40 2.297 1_556 S
Cd30 O41 2.439 . S
O31 Cd30 2.240 . S
O31 C36 1.279 . S
O32 Cd29 2.297 . S
O32 C34 1.247 . S
O33 Cd29 2.439 . S
O33 C34 1.208 . S
C34 O32 1.247 . S
C34 O33 1.208 . S
C35 O40 1.241 1_556 S
C35 O41 1.234 . S
C36 O28 1.315 . S
C36 O31 1.279 . S
C37 O38 1.315 . S
C37 O39 1.279 . S
O38 Cd30 2.223 . S
O38 C37 1.315 . S
O39 Cd29 2.240 . S
O39 C37 1.279 . S
O40 Cd30 2.297 1_554 S
O40 C35 1.241 1_554 S
O41 Cd30 2.439 . S
O41 C35 1.234 . S
O42 Cd43 2.223 . S
O42 C50 1.315 . S
Cd43 O42 2.223 . S
Cd43 O46 2.297 . S
Cd43 O47 2.439 . S
Cd43 O53 2.240 . S
Cd44 O45 2.240 . S
Cd44 O52 2.223 . S
Cd44 O54 2.297 . S
Cd44 O55 2.439 . S
O45 Cd44 2.240 . S
O45 C50 1.279 . S
O46 Cd43 2.297 . S
O46 C48 1.247 . S
O47 Cd43 2.439 . S
O47 C48 1.208 . S
C48 O46 1.247 . S
C48 O47 1.208 . S
C49 O54 1.247 . S
C49 O55 1.208 . S
C50 O42 1.315 . S
C50 O45 1.279 . S
C51 O52 1.315 . S
C51 O53 1.279 . S
O52 Cd44 2.223 . S
O52 C51 1.315 . S
O53 Cd43 2.240 . S
O53 C51 1.279 . S
O54 Cd44 2.297 . S
O54 C49 1.247 . S
O55 Cd44 2.439 . S
O55 C49 1.208 . S
O56 Cd57 2.223 . S
O56 C64 1.315 . S
Cd57 O56 2.223 . S
Cd57 O60 2.297 . S
Cd57 O61 2.439 . S
Cd57 O67 2.240 . S
Cd58 O59 2.240 . S
Cd58 O66 2.223 . S
Cd58 O68 2.297 1_554 S
Cd58 O69 2.439 . S
O59 Cd58 2.240 . S
O59 C64 1.279 . S
O60 Cd57 2.297 . S
O60 C62 1.247 . S
O61 Cd57 2.439 . S
O61 C62 1.208 . S
C62 O60 1.247 . S
C62 O61 1.208 . S
C63 O68 1.241 1_554 S
C63 O69 1.234 . S
C64 O56 1.315 . S
C64 O59 1.279 . S
C65 O66 1.315 . S
C65 O67 1.279 . S
O66 Cd58 2.223 . S
O66 C65 1.315 . S
O67 Cd57 2.240 . S
O67 C65 1.279 . S
O68 Cd58 2.297 1_556 S
O68 C63 1.241 1_556 S
O69 Cd58 2.439 . S
O69 C63 1.234 . S
O70 Cd71 2.223 . S
O70 C78 1.315 . S
Cd71 O70 2.223 . S
Cd71 O74 2.297 . S
Cd71 O75 2.439 . S
Cd71 O81 2.240 . S
Cd72 O73 2.240 . S
Cd72 O80 2.223 . S
Cd72 O82 2.297 . S
Cd72 O83 2.439 . S
O73 Cd72 2.240 . S
O73 C78 1.279 . S
O74 Cd71 2.297 . S
O74 C76 1.247 . S
O75 Cd71 2.439 . S
O75 C76 1.208 . S
C76 O74 1.247 . S
C76 O75 1.208 . S
C77 O82 1.247 . S
C77 O83 1.208 . S
C78 O70 1.315 . S
C78 O73 1.279 . S
C79 O80 1.315 . S
C79 O81 1.279 . S
O80 Cd72 2.223 . S
O80 C79 1.315 . S
O81 Cd71 2.240 . S
O81 C79 1.279 . S
O82 Cd72 2.297 . S
O82 C77 1.247 . S
O83 Cd72 2.439 . S
O83 C77 1.208 . S
O84 Cd85 2.223 . S
O84 C92 1.315 . S
Cd85 O84 2.223 . S
Cd85 O88 2.297 . S
Cd85 O89 2.439 . S
Cd85 O95 2.240 . S
Cd86 O87 2.240 . S
Cd86 O94 2.223 . S
Cd86 O96 2.297 . S
Cd86 O97 2.439 . S
O87 Cd86 2.240 . S
O87 C92 1.279 . S
O88 Cd85 2.297 . S
O88 C90 1.247 . S
O89 Cd85 2.439 . S
O89 C90 1.208 . S
C90 O88 1.247 . S
C90 O89 1.208 . S
C91 O96 1.247 . S
C91 O97 1.208 . S
C92 O84 1.315 . S
C92 O87 1.279 . S
C93 O94 1.315 . S
C93 O95 1.279 . S
O94 Cd86 2.223 . S
O94 C93 1.315 . S
O95 Cd85 2.240 . S
O95 C93 1.279 . S
O96 Cd86 2.297 . S
O96 C91 1.247 . S
O97 Cd86 2.439 . S
O97 C91 1.208 . S
O98 Cd99 2.223 . S
O98 C106 1.315 . S
Cd99 O98 2.223 . S
Cd99 O102 2.297 . S
Cd99 O103 2.439 . S
Cd99 O109 2.240 . S
Cd100 O101 2.240 . S
Cd100 O108 2.223 . S
Cd100 O110 2.297 . S
Cd100 O111 2.439 . S
O101 Cd100 2.240 . S
O101 C106 1.279 . S
O102 Cd99 2.297 . S
O102 C104 1.247 . S
O103 Cd99 2.439 . S
O103 C104 1.208 . S
C104 O102 1.247 . S
C104 O103 1.208 . S
C105 O110 1.247 . S
C105 O111 1.208 . S
C106 O98 1.315 . S
C106 O101 1.279 . S
C107 O108 1.315 . S
C107 O109 1.279 . S
O108 Cd100 2.223 . S
O108 C107 1.315 . S
O109 Cd99 2.240 . S
O109 C107 1.279 . S
O110 Cd100 2.297 . S
O110 C105 1.247 . S
O111 Cd100 2.439 . S
O111 C105 1.208 . S
O112 Cd113 2.223 . S
O112 C120 1.315 . S
Cd113 O112 2.223 . S
Cd113 O116 2.297 . S
Cd113 O117 2.439 . S
Cd113 O123 2.240 . S
Cd114 O115 2.240 . S
Cd114 O122 2.223 . S
Cd114 O124 2.297 . S
Cd114 O125 2.439 . S
O115 Cd114 2.240 . S
O115 C120 1.279 . S
O116 Cd113 2.297 . S
O116 C118 1.247 . S
O117 Cd113 2.439 . S
O117 C118 1.208 . S
C118 O116 1.247 . S
C118 O117 1.208 . S
C119 O124 1.247 . S
C119 O125 1.208 . S
C120 O112 1.315 . S
C120 O115 1.279 . S
C121 O122 1.315 . S
C121 O123 1.279 . S
O122 Cd114 2.223 . S
O122 C121 1.315 . S
O123 Cd113 2.240 . S
O123 C121 1.279 . S
O124 Cd114 2.297 . S
O124 C119 1.247 . S
O125 Cd114 2.439 . S
O125 C119 1.208 . S
O126 Cd127 2.223 . S
O126 C134 1.315 . S
Cd127 O126 2.223 . S
Cd127 O130 2.297 . S
Cd127 O131 2.439 . S
Cd127 O137 2.240 . S
Cd128 O129 2.240 . S
Cd128 O136 2.223 . S
Cd128 O138 2.297 . S
Cd128 O139 2.439 . S
O129 Cd128 2.240 . S
O129 C134 1.279 . S
O130 Cd127 2.297 . S
O130 C132 1.247 . S
O131 Cd127 2.439 . S
O131 C132 1.208 . S
C132 O130 1.247 . S
C132 O131 1.208 . S
C133 O138 1.247 . S
C133 O139 1.208 . S
C134 O126 1.315 . S
C134 O129 1.279 . S
C135 O136 1.315 . S
C135 O137 1.279 . S
O136 Cd128 2.223 . S
O136 C135 1.315 . S
O137 Cd127 2.240 . S
O137 C135 1.279 . S
O138 Cd128 2.297 . S
O138 C133 1.247 . S
O139 Cd128 2.439 . S
O139 C133 1.208 . S
O140 Cd141 2.223 . S
O140 C148 1.315 . S
Cd141 O140 2.223 . S
Cd141 O144 2.297 . S
Cd141 O145 2.439 . S
Cd141 O151 2.240 . S
Cd142 O143 2.240 . S
Cd142 O150 2.223 . S
Cd142 O152 2.297 1_554 S
Cd142 O153 2.439 . S
O143 Cd142 2.240 . S
O143 C148 1.279 . S
O144 Cd141 2.297 . S
O144 C146 1.247 . S
O145 Cd141 2.439 . S
O145 C146 1.208 . S
C146 O144 1.247 . S
C146 O145 1.208 . S
C147 O152 1.241 1_554 S
C147 O153 1.234 . S
C148 O140 1.315 . S
C148 O143 1.279 . S
C149 O150 1.315 . S
C149 O151 1.279 . S
O150 Cd142 2.223 . S
O150 C149 1.315 . S
O151 Cd141 2.240 . S
O151 C149 1.279 . S
O152 Cd142 2.297 1_556 S
O152 C147 1.241 1_556 S
O153 Cd142 2.439 . S
O153 C147 1.234 . S
O154 Cd155 2.223 . S
O154 C162 1.315 . S
Cd155 O154 2.223 . S
Cd155 O158 2.297 . S
Cd155 O159 2.439 . S
Cd155 O165 2.240 . S
Cd156 O157 2.240 . S
Cd156 O164 2.223 . S
Cd156 O166 2.297 . S
Cd156 O167 2.439 . S
O157 Cd156 2.240 . S
O157 C162 1.279 . S
O158 Cd155 2.297 . S
O158 C160 1.247 . S
O159 Cd155 2.439 . S
O159 C160 1.208 . S
C160 O158 1.247 . S
C160 O159 1.208 . S
C161 O166 1.247 . S
C161 O167 1.208 . S
C162 O154 1.315 . S
C162 O157 1.279 . S
C163 O164 1.315 . S
C163 O165 1.279 . S
O164 Cd156 2.223 . S
O164 C163 1.315 . S
O165 Cd155 2.240 . S
O165 C163 1.279 . S
O166 Cd156 2.297 . S
O166 C161 1.247 . S
O167 Cd156 2.439 . S
O167 C161 1.208 . S
O168 Cd169 2.223 . S
O168 C176 1.315 . S
Cd169 O168 2.223 . S
Cd169 O172 2.297 . S
Cd169 O173 2.439 . S
Cd169 O179 2.240 . S
Cd170 O171 2.240 . S
Cd170 O178 2.223 . S
Cd170 O180 2.297 1_556 S
Cd170 O181 2.439 . S
O171 Cd170 2.240 . S
O171 C176 1.279 . S
O172 Cd169 2.297 . S
O172 C174 1.247 . S
O173 Cd169 2.439 . S
O173 C174 1.208 . S
C174 O172 1.247 . S
C174 O173 1.208 . S
C175 O180 1.241 1_556 S
C175 O181 1.234 . S
C176 O168 1.315 . S
C176 O171 1.279 . S
C177 O178 1.315 . S
C177 O179 1.279 . S
O178 Cd170 2.223 . S
O178 C177 1.315 . S
O179 Cd169 2.240 . S
O179 C177 1.279 . S
O180 Cd170 2.297 1_554 S
O180 C175 1.241 1_554 S
O181 Cd170 2.439 . S
O181 C175 1.234 . S
O182 Cd183 2.223 . S
O182 C190 1.315 . S
Cd183 O182 2.223 . S
Cd183 O186 2.297 . S
Cd183 O187 2.439 . S
Cd183 O193 2.240 . S
Cd184 O185 2.240 . S
Cd184 O192 2.223 . S
Cd184 O194 2.297 . S
Cd184 O195 2.439 . S
O185 Cd184 2.240 . S
O185 C190 1.279 . S
O186 Cd183 2.297 . S
O186 C188 1.247 . S
O187 Cd183 2.439 . S
O187 C188 1.208 . S
C188 O186 1.247 . S
C188 O187 1.208 . S
C189 O194 1.247 . S
C189 O195 1.208 . S
C190 O182 1.315 . S
C190 O185 1.279 . S
C191 O192 1.315 . S
C191 O193 1.279 . S
O192 Cd184 2.223 . S
O192 C191 1.315 . S
O193 Cd183 2.240 . S
O193 C191 1.279 . S
O194 Cd184 2.297 . S
O194 C189 1.247 . S
O195 Cd184 2.439 . S
O195 C189 1.208 . S
O196 Cd197 2.223 . S
O196 C204 1.315 . S
Cd197 O196 2.223 . S
Cd197 O200 2.297 . S
Cd197 O201 2.439 . S
Cd197 O207 2.240 . S
Cd198 O199 2.240 . S
Cd198 O206 2.223 . S
Cd198 O208 2.297 . S
Cd198 O209 2.439 . S
O199 Cd198 2.240 . S
O199 C204 1.279 . S
O200 Cd197 2.297 . S
O200 C202 1.247 . S
O201 Cd197 2.439 . S
O201 C202 1.208 . S
C202 O200 1.247 . S
C202 O201 1.208 . S
C203 O208 1.247 . S
C203 O209 1.208 . S
C204 O196 1.315 . S
C204 O199 1.279 . S
C205 O206 1.315 . S
C205 O207 1.279 . S
O206 Cd198 2.223 . S
O206 C205 1.315 . S
O207 Cd197 2.240 . S
O207 C205 1.279 . S
O208 Cd198 2.297 . S
O208 C203 1.247 . S
O209 Cd198 2.439 . S
O209 C203 1.208 . S
O210 Cd211 2.223 . S
O210 C218 1.315 . S
Cd211 O210 2.223 . S
Cd211 O214 2.297 . S
Cd211 O215 2.439 . S
Cd211 O221 2.240 . S
Cd212 O213 2.240 . S
Cd212 O220 2.223 . S
Cd212 O222 2.297 . S
Cd212 O223 2.439 . S
O213 Cd212 2.240 . S
O213 C218 1.279 . S
O214 Cd211 2.297 . S
O214 C216 1.247 . S
O215 Cd211 2.439 . S
O215 C216 1.208 . S
C216 O214 1.247 . S
C216 O215 1.208 . S
C217 O222 1.247 . S
C217 O223 1.208 . S
C218 O210 1.315 . S
C218 O213 1.279 . S
C219 O220 1.315 . S
C219 O221 1.279 . S
O220 Cd212 2.223 . S
O220 C219 1.315 . S
O221 Cd211 2.240 . S
O221 C219 1.279 . S
O222 Cd212 2.297 . S
O222 C217 1.247 . S
O223 Cd212 2.439 . S
O223 C217 1.208 . S
O224 Cd225 2.223 . S
O224 C232 1.315 . S
Cd225 O224 2.223 . S
Cd225 O228 2.297 . S
Cd225 O229 2.439 . S
Cd225 O235 2.240 . S
Cd226 O227 2.240 . S
Cd226 O234 2.223 . S
Cd226 O236 2.297 1_556 S
Cd226 O237 2.439 . S
O227 Cd226 2.240 . S
O227 C232 1.279 . S
O228 Cd225 2.297 . S
O228 C230 1.247 . S
O229 Cd225 2.439 . S
O229 C230 1.208 . S
C230 O228 1.247 . S
C230 O229 1.208 . S
C231 O236 1.241 1_556 S
C231 O237 1.234 . S
C232 O224 1.315 . S
C232 O227 1.279 . S
C233 O234 1.315 . S
C233 O235 1.279 . S
O234 Cd226 2.223 . S
O234 C233 1.315 . S
O235 Cd225 2.240 . S
O235 C233 1.279 . S
O236 Cd226 2.297 1_554 S
O236 C231 1.241 1_554 S
O237 Cd226 2.439 . S
O237 C231 1.234 . S
O238 Cd239 2.223 . S
O238 C246 1.315 . S
Cd239 O238 2.223 . S
Cd239 O242 2.297 . S
Cd239 O243 2.439 . S
Cd239 O249 2.240 . S
Cd240 O241 2.240 . S
Cd240 O248 2.223 . S
Cd240 O250 2.297 . S
Cd240 O251 2.439 . S
O241 Cd240 2.240 . S
O241 C246 1.279 . S
O242 Cd239 2.297 . S
O242 C244 1.247 . S
O243 Cd239 2.439 . S
O243 C244 1.208 . S
C244 O242 1.247 . S
C244 O243 1.208 . S
C245 O250 1.247 . S
C245 O251 1.208 . S
C246 O238 1.315 . S
C246 O241 1.279 . S
C247 O248 1.315 . S
C247 O249 1.279 . S
O248 Cd240 2.223 . S
O248 C247 1.315 . S
O249 Cd239 2.240 . S
O249 C247 1.279 . S
O250 Cd240 2.297 . S
O250 C245 1.247 . S
O251 Cd240 2.439 . S
O251 C245 1.208 . S
O252 Cd253 2.223 . S
O252 C260 1.315 . S
Cd253 O252 2.223 . S
Cd253 O256 2.297 . S
Cd253 O257 2.439 . S
Cd253 O263 2.240 . S
Cd254 O255 2.240 . S
Cd254 O262 2.223 . S
Cd254 O264 2.297 . S
Cd254 O265 2.439 . S
O255 Cd254 2.240 . S
O255 C260 1.279 . S
O256 Cd253 2.297 . S
O256 C258 1.247 . S
O257 Cd253 2.439 . S
O257 C258 1.208 . S
C258 O256 1.247 . S
C258 O257 1.208 . S
C259 O264 1.247 . S
C259 O265 1.208 . S
C260 O252 1.315 . S
C260 O255 1.279 . S
C261 O262 1.315 . S
C261 O263 1.279 . S
O262 Cd254 2.223 . S
O262 C261 1.315 . S
O263 Cd253 2.240 . S
O263 C261 1.279 . S
O264 Cd254 2.297 . S
O264 C259 1.247 . S
O265 Cd254 2.439 . S
O265 C259 1.208 . S
O266 Cd267 2.223 . S
O266 C274 1.315 . S
Cd267 O266 2.223 . S
Cd267 O270 2.297 . S
Cd267 O271 2.439 . S
Cd267 O277 2.240 . S
Cd268 O269 2.240 . S
Cd268 O276 2.223 . S
Cd268 O278 2.297 . S
Cd268 O279 2.439 . S
O269 Cd268 2.240 . S
O269 C274 1.279 . S
O270 Cd267 2.297 . S
O270 C272 1.247 . S
O271 Cd267 2.439 . S
O271 C272 1.208 . S
C272 O270 1.247 . S
C272 O271 1.208 . S
C273 O278 1.247 . S
C273 O279 1.208 . S
C274 O266 1.315 . S
C274 O269 1.279 . S
C275 O276 1.315 . S
C275 O277 1.279 . S
O276 Cd268 2.223 . S
O276 C275 1.315 . S
O277 Cd267 2.240 . S
O277 C275 1.279 . S
O278 Cd268 2.297 . S
O278 C273 1.247 . S
O279 Cd268 2.439 . S
O279 C273 1.208 . S
O280 Cd281 2.223 . S
O280 C288 1.315 . S
Cd281 O280 2.223 . S
Cd281 O284 2.297 . S
Cd281 O285 2.439 . S
Cd281 O291 2.240 . S
Cd282 O283 2.240 . S
Cd282 O290 2.223 . S
Cd282 O292 2.297 . S
Cd282 O293 2.439 . S
O283 Cd282 2.240 . S
O283 C288 1.279 . S
O284 Cd281 2.297 . S
O284 C286 1.247 . S
O285 Cd281 2.439 . S
O285 C286 1.208 . S
C286 O284 1.247 . S
C286 O285 1.208 . S
C287 O292 1.247 . S
C287 O293 1.208 . S
C288 O280 1.315 . S
C288 O283 1.279 . S
C289 O290 1.315 . S
C289 O291 1.279 . S
O290 Cd282 2.223 . S
O290 C289 1.315 . S
O291 Cd281 2.240 . S
O291 C289 1.279 . S
O292 Cd282 2.297 . S
O292 C287 1.247 . S
O293 Cd282 2.439 . S
O293 C287 1.208 . S
O294 Cd295 2.223 . S
O294 C302 1.315 . S
Cd295 O294 2.223 . S
Cd295 O298 2.297 . S
Cd295 O299 2.439 . S
Cd295 O305 2.240 . S
Cd296 O297 2.240 . S
Cd296 O304 2.223 . S
Cd296 O306 2.297 . S
Cd296 O307 2.439 . S
O297 Cd296 2.240 . S
O297 C302 1.279 . S
O298 Cd295 2.297 . S
O298 C300 1.247 . S
O299 Cd295 2.439 . S
O299 C300 1.208 . S
C300 O298 1.247 . S
C300 O299 1.208 . S
C301 O306 1.247 . S
C301 O307 1.208 . S
C302 O294 1.315 . S
C302 O297 1.279 . S
C303 O304 1.315 . S
C303 O305 1.279 . S
O304 Cd296 2.223 . S
O304 C303 1.315 . S
O305 Cd295 2.240 . S
O305 C303 1.279 . S
O306 Cd296 2.297 . S
O306 C301 1.247 . S
O307 Cd296 2.439 . S
O307 C301 1.208 . S
O308 Cd309 2.223 . S
O308 C316 1.315 . S
Cd309 O308 2.223 . S
Cd309 O312 2.297 . S
Cd309 O313 2.439 . S
Cd309 O319 2.240 . S
Cd310 O311 2.240 . S
Cd310 O318 2.223 . S
Cd310 O320 2.297 1_554 S
Cd310 O321 2.439 . S
O311 Cd310 2.240 . S
O311 C316 1.279 . S
O312 Cd309 2.297 . S
O312 C314 1.247 . S
O313 Cd309 2.439 . S
O313 C314 1.208 . S
C314 O312 1.247 . S
C314 O313 1.208 . S
C315 O320 1.241 1_554 S
C315 O321 1.234 . S
C316 O308 1.315 . S
C316 O311 1.279 . S
C317 O318 1.315 . S
C317 O319 1.279 . S
O318 Cd310 2.223 . S
O318 C317 1.315 . S
O319 Cd309 2.240 . S
O319 C317 1.279 . S
O320 Cd310 2.297 1_556 S
O320 C315 1.241 1_556 S
O321 Cd310 2.439 . S
O321 C315 1.234 . S
O322 Cd323 2.223 . S
O322 C330 1.315 . S
Cd323 O322 2.223 . S
Cd323 O326 2.297 . S
Cd323 O327 2.439 . S
Cd323 O333 2.240 . S
Cd324 O325 2.240 . S
Cd324 O332 2.223 . S
Cd324 O334 2.297 . S
Cd324 O335 2.439 . S
O325 Cd324 2.240 . S
O325 C330 1.279 . S
O326 Cd323 2.297 . S
O326 C328 1.247 . S
O327 Cd323 2.439 . S
O327 C328 1.208 . S
C328 O326 1.247 . S
C328 O327 1.208 . S
C329 O334 1.247 . S
C329 O335 1.208 . S
C330 O322 1.315 . S
C330 O325 1.279 . S
C331 O332 1.315 . S
C331 O333 1.279 . S
O332 Cd324 2.223 . S
O332 C331 1.315 . S
O333 Cd323 2.240 . S
O333 C331 1.279 . S
O334 Cd324 2.297 . S
O334 C329 1.247 . S
O335 Cd324 2.439 . S
O335 C329 1.208 . S
O336 Cd337 2.223 . S
O336 C344 1.315 . S
Cd337 O336 2.223 . S
Cd337 O340 2.297 . S
Cd337 O341 2.439 . S
Cd337 O347 2.240 . S
Cd338 O339 2.240 . S
Cd338 O346 2.223 . S
Cd338 O348 2.297 1_554 S
Cd338 O349 2.439 . S
O339 Cd338 2.240 . S
O339 C344 1.279 . S
O340 Cd337 2.297 . S
O340 C342 1.247 . S
O341 Cd337 2.439 . S
O341 C342 1.208 . S
C342 O340 1.247 . S
C342 O341 1.208 . S
C343 O348 1.241 1_554 S
C343 O349 1.234 . S
C344 O336 1.315 . S
C344 O339 1.279 . S
C345 O346 1.315 . S
C345 O347 1.279 . S
O346 Cd338 2.223 . S
O346 C345 1.315 . S
O347 Cd337 2.240 . S
O347 C345 1.279 . S
O348 Cd338 2.297 1_556 S
O348 C343 1.241 1_556 S
O349 Cd338 2.439 . S
O349 C343 1.234 . S
O350 Cd351 2.223 . S
O350 C358 1.315 . S
Cd351 O350 2.223 . S
Cd351 O354 2.297 . S
Cd351 O355 2.439 . S
Cd351 O361 2.240 . S
Cd352 O353 2.240 . S
Cd352 O360 2.223 . S
Cd352 O362 2.297 . S
Cd352 O363 2.439 . S
O353 Cd352 2.240 . S
O353 C358 1.279 . S
O354 Cd351 2.297 . S
O354 C356 1.247 . S
O355 Cd351 2.439 . S
O355 C356 1.208 . S
C356 O354 1.247 . S
C356 O355 1.208 . S
C357 O362 1.247 . S
C357 O363 1.208 . S
C358 O350 1.315 . S
C358 O353 1.279 . S
C359 O360 1.315 . S
C359 O361 1.279 . S
O360 Cd352 2.223 . S
O360 C359 1.315 . S
O361 Cd351 2.240 . S
O361 C359 1.279 . S
O362 Cd352 2.297 . S
O362 C357 1.247 . S
O363 Cd352 2.439 . S
O363 C357 1.208 . S
O364 Cd365 2.223 . S
O364 C372 1.315 . S
Cd365 O364 2.223 . S
Cd365 O368 2.297 . S
Cd365 O369 2.439 . S
Cd365 O375 2.240 . S
Cd366 O367 2.240 . S
Cd366 O374 2.223 . S
Cd366 O376 2.297 . S
Cd366 O377 2.439 . S
O367 Cd366 2.240 . S
O367 C372 1.279 . S
O368 Cd365 2.297 . S
O368 C370 1.247 . S
O369 Cd365 2.439 . S
O369 C370 1.208 . S
C370 O368 1.247 . S
C370 O369 1.208 . S
C371 O376 1.247 . S
C371 O377 1.208 . S
C372 O364 1.315 . S
C372 O367 1.279 . S
C373 O374 1.315 . S
C373 O375 1.279 . S
O374 Cd366 2.223 . S
O374 C373 1.315 . S
O375 Cd365 2.240 . S
O375 C373 1.279 . S
O376 Cd366 2.297 . S
O376 C371 1.247 . S
O377 Cd366 2.439 . S
O377 C371 1.208 . S
O378 Cd379 2.223 . S
O378 C386 1.315 . S
Cd379 O378 2.223 . S
Cd379 O382 2.297 . S
Cd379 O383 2.439 . S
Cd379 O389 2.240 . S
Cd380 O381 2.240 . S
Cd380 O388 2.223 . S
Cd380 O390 2.297 . S
Cd380 O391 2.439 . S
O381 Cd380 2.240 . S
O381 C386 1.279 . S
O382 Cd379 2.297 . S
O382 C384 1.247 . S
O383 Cd379 2.439 . S
O383 C384 1.208 . S
C384 O382 1.247 . S
C384 O383 1.208 . S
C385 O390 1.247 . S
C385 O391 1.208 . S
C386 O378 1.315 . S
C386 O381 1.279 . S
C387 O388 1.315 . S
C387 O389 1.279 . S
O388 Cd380 2.223 . S
O388 C387 1.315 . S
O389 Cd379 2.240 . S
O389 C387 1.279 . S
O390 Cd380 2.297 . S
O390 C385 1.247 . S
O391 Cd380 2.439 . S
O391 C385 1.208 . S
O392 Cd393 2.223 . S
O392 C400 1.315 . S
Cd393 O392 2.223 . S
Cd393 O396 2.297 . S
Cd393 O397 2.439 . S
Cd393 O403 2.240 . S
Cd394 O395 2.240 . S
Cd394 O402 2.223 . S
Cd394 O404 2.297 . S
Cd394 O405 2.439 . S
O395 Cd394 2.240 . S
O395 C400 1.279 . S
O396 Cd393 2.297 . S
O396 C398 1.247 . S
O397 Cd393 2.439 . S
O397 C398 1.208 . S
C398 O396 1.247 . S
C398 O397 1.208 . S
C399 O404 1.247 . S
C399 O405 1.208 . S
C400 O392 1.315 . S
C400 O395 1.279 . S
C401 O402 1.315 . S
C401 O403 1.279 . S
O402 Cd394 2.223 . S
O402 C401 1.315 . S
O403 Cd393 2.240 . S
O403 C401 1.279 . S
O404 Cd394 2.297 . S
O404 C399 1.247 . S
O405 Cd394 2.439 . S
O405 C399 1.208 . S
O406 Cd407 2.223 . S
O406 C414 1.315 . S
Cd407 O406 2.223 . S
Cd407 O410 2.297 . S
Cd407 O411 2.439 . S
Cd407 O417 2.240 . S
Cd408 O409 2.240 . S
Cd408 O416 2.223 . S
Cd408 O418 2.297 . S
Cd408 O419 2.439 . S
O409 Cd408 2.240 . S
O409 C414 1.279 . S
O410 Cd407 2.297 . S
O410 C412 1.247 . S
O411 Cd407 2.439 . S
O411 C412 1.208 . S
C412 O410 1.247 . S
C412 O411 1.208 . S
C413 O418 1.247 . S
C413 O419 1.208 . S
C414 O406 1.315 . S
C414 O409 1.279 . S
C415 O416 1.315 . S
C415 O417 1.279 . S
O416 Cd408 2.223 . S
O416 C415 1.315 . S
O417 Cd407 2.240 . S
O417 C415 1.279 . S
O418 Cd408 2.297 . S
O418 C413 1.247 . S
O419 Cd408 2.439 . S
O419 C413 1.208 . S
O420 Cd421 2.223 . S
O420 C428 1.315 . S
Cd421 O420 2.223 . S
Cd421 O424 2.297 . S
Cd421 O425 2.439 . S
Cd421 O431 2.240 . S
Cd422 O423 2.240 . S
Cd422 O430 2.223 . S
Cd422 O432 2.297 1_556 S
Cd422 O433 2.439 . S
O423 Cd422 2.240 . S
O423 C428 1.279 . S
O424 Cd421 2.297 . S
O424 C426 1.247 . S
O425 Cd421 2.439 . S
O425 C426 1.208 . S
C426 O424 1.247 . S
C426 O425 1.208 . S
C427 O432 1.241 1_556 S
C427 O433 1.234 . S
C428 O420 1.315 . S
C428 O423 1.279 . S
C429 O430 1.315 . S
C429 O431 1.279 . S
O430 Cd422 2.223 . S
O430 C429 1.315 . S
O431 Cd421 2.240 . S
O431 C429 1.279 . S
O432 Cd422 2.297 1_554 S
O432 C427 1.241 1_554 S
O433 Cd422 2.439 . S
O433 C427 1.234 . S
O434 Cd435 2.223 . S
O434 C442 1.315 . S
Cd435 O434 2.223 . S
Cd435 O438 2.297 . S
Cd435 O439 2.439 . S
Cd435 O445 2.240 . S
Cd436 O437 2.240 . S
Cd436 O444 2.223 . S
Cd436 O446 2.297 . S
Cd436 O447 2.439 . S
O437 Cd436 2.240 . S
O437 C442 1.279 . S
O438 Cd435 2.297 . S
O438 C440 1.247 . S
O439 Cd435 2.439 . S
O439 C440 1.208 . S
C440 O438 1.247 . S
C440 O439 1.208 . S
C441 O446 1.247 . S
C441 O447 1.208 . S
C442 O434 1.315 . S
C442 O437 1.279 . S
C443 O444 1.315 . S
C443 O445 1.279 . S
O444 Cd436 2.223 . S
O444 C443 1.315 . S
O445 Cd435 2.240 . S
O445 C443 1.279 . S
O446 Cd436 2.297 . S
O446 C441 1.247 . S
O447 Cd436 2.439 . S
O447 C441 1.208 . S
H448 C454 0.930 . S
H449 C458 0.930 . S
H450 C463 0.929 . S
H451 C461 0.929 . S
H452 C456 0.929 . S
H453 C462 0.929 . S
C454 H448 0.930 . S
C454 C455 1.367 . S
C454 C462 1.378 . S
C455 C454 1.367 . S
C455 C463 1.433 . S
C456 H452 0.929 . S
C456 C458 1.378 . S
C456 C460 1.350 . S
C457 C460 1.463 1_545 S
C457 C462 1.350 . S
C457 N465 1.427 . S
C458 H449 0.930 . S
C458 C456 1.378 . S
C458 C459 1.367 . S
C459 C458 1.367 . S
C459 C461 1.433 . S
C460 C456 1.350 . S
C460 C457 1.463 1_565 S
C460 N464 1.427 . S
C461 H451 0.929 . S
C461 C459 1.433 . S
C461 N464 1.384 . S
C462 H453 0.929 . S
C462 C454 1.378 . S
C462 C457 1.350 . S
C463 H450 0.929 . S
C463 C455 1.433 . S
C463 N465 1.384 . S
N464 C460 1.427 . S
N464 C461 1.384 . S
N465 C457 1.427 . S
N465 C463 1.384 . S
H466 C472 0.930 . S
H467 C476 0.930 . S
H468 C481 0.929 . S
H469 C479 0.929 . S
H470 C474 0.929 . S
H471 C480 0.929 . S
C472 H466 0.930 . S
C472 C473 1.367 . S
C472 C480 1.378 . S
C473 C472 1.367 . S
C473 C481 1.433 . S
C474 H470 0.929 . S
C474 C476 1.378 . S
C474 C478 1.350 . S
C475 C478 1.463 . S
C475 C480 1.350 . S
C475 N483 1.427 . S
C476 H467 0.930 . S
C476 C474 1.378 . S
C476 C477 1.367 . S
C477 C476 1.367 . S
C477 C479 1.433 . S
C478 C474 1.350 . S
C478 C475 1.463 . S
C478 N482 1.427 . S
C479 H469 0.929 . S
C479 C477 1.433 . S
C479 N482 1.384 . S
C480 H471 0.929 . S
C480 C472 1.378 . S
C480 C475 1.350 . S
C481 H468 0.929 . S
C481 C473 1.433 . S
C481 N483 1.384 . S
N482 C478 1.427 . S
N482 C479 1.384 . S
N483 C475 1.427 . S
N483 C481 1.384 . S
H484 C490 0.930 . S
H485 C494 0.930 . S
H486 C499 0.929 . S
H487 C497 0.929 . S
H488 C492 0.929 . S
H489 C498 0.929 . S
C490 H484 0.930 . S
C490 C491 1.367 . S
C490 C498 1.378 . S
C491 C490 1.367 . S
C491 C499 1.433 . S
C492 H488 0.929 . S
C492 C494 1.378 . S
C492 C496 1.350 . S
C493 C496 1.463 1_545 S
C493 C498 1.350 . S
C493 N501 1.427 . S
C494 H485 0.930 . S
C494 C492 1.378 . S
C494 C495 1.367 . S
C495 C494 1.367 . S
C495 C497 1.433 . S
C496 C492 1.350 . S
C496 C493 1.463 1_565 S
C496 N500 1.427 . S
C497 H487 0.929 . S
C497 C495 1.433 . S
C497 N500 1.384 . S
C498 H489 0.929 . S
C498 C490 1.378 . S
C498 C493 1.350 . S
C499 H486 0.929 . S
C499 C491 1.433 . S
C499 N501 1.384 . S
N500 C496 1.427 . S
N500 C497 1.384 . S
N501 C493 1.427 . S
N501 C499 1.384 . S
H502 C508 0.930 . S
H503 C512 0.930 . S
H504 C517 0.929 . S
H505 C515 0.929 . S
H506 C510 0.929 . S
H507 C516 0.929 . S
C508 H502 0.930 . S
C508 C509 1.367 . S
C508 C516 1.378 . S
C509 C508 1.367 . S
C509 C517 1.433 . S
C510 H506 0.929 . S
C510 C512 1.378 . S
C510 C514 1.350 . S
C511 C514 1.463 1_556 S
C511 C516 1.350 . S
C511 N519 1.427 . S
C512 H503 0.930 . S
C512 C510 1.378 . S
C512 C513 1.367 . S
C513 C512 1.367 . S
C513 C515 1.433 . S
C514 C510 1.350 . S
C514 C511 1.463 1_554 S
C514 N518 1.427 . S
C515 H505 0.929 . S
C515 C513 1.433 . S
C515 N518 1.384 . S
C516 H507 0.929 . S
C516 C508 1.378 . S
C516 C511 1.350 . S
C517 H504 0.929 . S
C517 C509 1.433 . S
C517 N519 1.384 . S
N518 C514 1.427 . S
N518 C515 1.384 . S
N519 C511 1.427 . S
N519 C517 1.384 . S
H520 C526 0.930 . S
H521 C530 0.930 . S
H522 C535 0.929 . S
H523 C533 0.929 . S
H524 C528 0.929 . S
H525 C534 0.929 . S
C526 H520 0.930 . S
C526 C527 1.367 . S
C526 C534 1.378 . S
C527 C526 1.367 . S
C527 C535 1.433 . S
C528 H524 0.929 . S
C528 C530 1.378 . S
C528 C532 1.350 . S
C529 C532 1.463 1_565 S
C529 C534 1.350 . S
C529 N537 1.427 . S
C530 H521 0.930 . S
C530 C528 1.378 . S
C530 C531 1.367 . S
C531 C530 1.367 . S
C531 C533 1.433 . S
C532 C528 1.350 . S
C532 C529 1.463 1_545 S
C532 N536 1.427 . S
C533 H523 0.929 . S
C533 C531 1.433 . S
C533 N536 1.384 . S
C534 H525 0.929 . S
C534 C526 1.378 . S
C534 C529 1.350 . S
C535 H522 0.929 . S
C535 C527 1.433 . S
C535 N537 1.384 . S
N536 C532 1.427 . S
N536 C533 1.384 . S
N537 C529 1.427 . S
N537 C535 1.384 . S
H538 C544 0.930 . S
H539 C548 0.930 . S
H540 C553 0.929 . S
H541 C551 0.929 . S
H542 C546 0.929 . S
H543 C552 0.929 . S
C544 H538 0.930 . S
C544 C545 1.367 . S
C544 C552 1.378 . S
C545 C544 1.367 . S
C545 C553 1.433 . S
C546 H542 0.929 . S
C546 C548 1.378 . S
C546 C550 1.350 . S
C547 C550 1.463 . S
C547 C552 1.350 . S
C547 N555 1.427 . S
C548 H539 0.930 . S
C548 C546 1.378 . S
C548 C549 1.367 . S
C549 C548 1.367 . S
C549 C551 1.433 . S
C550 C546 1.350 . S
C550 C547 1.463 . S
C550 N554 1.427 . S
C551 H541 0.929 . S
C551 C549 1.433 . S
C551 N554 1.384 . S
C552 H543 0.929 . S
C552 C544 1.378 . S
C552 C547 1.350 . S
C553 H540 0.929 . S
C553 C545 1.433 . S
C553 N555 1.384 . S
N554 C550 1.427 . S
N554 C551 1.384 . S
N555 C547 1.427 . S
N555 C553 1.384 . S
H556 C562 0.930 . S
H557 C566 0.930 . S
H558 C571 0.929 . S
H559 C569 0.929 . S
H560 C564 0.929 . S
H561 C570 0.929 . S
C562 H556 0.930 . S
C562 C563 1.367 . S
C562 C570 1.378 . S
C563 C562 1.367 . S
C563 C571 1.433 . S
C564 H560 0.929 . S
C564 C566 1.378 . S
C564 C568 1.350 . S
C565 C568 1.463 1_565 S
C565 C570 1.350 . S
C565 N573 1.427 . S
C566 H557 0.930 . S
C566 C564 1.378 . S
C566 C567 1.367 . S
C567 C566 1.367 . S
C567 C569 1.433 . S
C568 C564 1.350 . S
C568 C565 1.463 1_545 S
C568 N572 1.427 . S
C569 H559 0.929 . S
C569 C567 1.433 . S
C569 N572 1.384 . S
C570 H561 0.929 . S
C570 C562 1.378 . S
C570 C565 1.350 . S
C571 H558 0.929 . S
C571 C563 1.433 . S
C571 N573 1.384 . S
N572 C568 1.427 . S
N572 C569 1.384 . S
N573 C565 1.427 . S
N573 C571 1.384 . S
H574 C580 0.930 . S
H575 C584 0.930 . S
H576 C589 0.929 . S
H577 C587 0.929 . S
H578 C582 0.929 . S
H579 C588 0.929 . S
C580 H574 0.930 . S
C580 C581 1.367 . S
C580 C588 1.378 . S
C581 C580 1.367 . S
C581 C589 1.433 . S
C582 H578 0.929 . S
C582 C584 1.378 . S
C582 C586 1.350 . S
C583 C586 1.463 1_556 S
C583 C588 1.350 . S
C583 N591 1.427 . S
C584 H575 0.930 . S
C584 C582 1.378 . S
C584 C585 1.367 . S
C585 C584 1.367 . S
C585 C587 1.433 . S
C586 C582 1.350 . S
C586 C583 1.463 1_554 S
C586 N590 1.427 . S
C587 H577 0.929 . S
C587 C585 1.433 . S
C587 N590 1.384 . S
C588 H579 0.929 . S
C588 C580 1.378 . S
C588 C583 1.350 . S
C589 H576 0.929 . S
C589 C581 1.433 . S
C589 N591 1.384 . S
N590 C586 1.427 . S
N590 C587 1.384 . S
N591 C583 1.427 . S
N591 C589 1.384 . S
H592 C598 0.930 . S
H593 C602 0.930 . S
H594 C607 0.929 . S
H595 C605 0.929 . S
H596 C600 0.929 . S
H597 C606 0.929 . S
C598 H592 0.930 . S
C598 C599 1.367 . S
C598 C606 1.378 . S
C599 C598 1.367 . S
C599 C607 1.433 . S
C600 H596 0.929 . S
C600 C602 1.378 . S
C600 C604 1.350 . S
C601 C604 1.463 . S
C601 C606 1.350 . S
C601 N609 1.427 . S
C602 H593 0.930 . S
C602 C600 1.378 . S
C602 C603 1.367 . S
C603 C602 1.367 . S
C603 C605 1.433 . S
C604 C600 1.350 . S
C604 C601 1.463 . S
C604 N608 1.427 . S
C605 H595 0.929 . S
C605 C603 1.433 . S
C605 N608 1.384 . S
C606 H597 0.929 . S
C606 C598 1.378 . S
C606 C601 1.350 . S
C607 H594 0.929 . S
C607 C599 1.433 . S
C607 N609 1.384 . S
N608 C604 1.427 . S
N608 C605 1.384 . S
N609 C601 1.427 . S
N609 C607 1.384 . S
H610 C616 0.930 . S
H611 C620 0.930 . S
H612 C625 0.929 . S
H613 C623 0.929 . S
H614 C618 0.929 . S
H615 C624 0.929 . S
C616 H610 0.930 . S
C616 C617 1.367 . S
C616 C624 1.378 . S
C617 C616 1.367 . S
C617 C625 1.433 . S
C618 H614 0.929 . S
C618 C620 1.378 . S
C618 C622 1.350 . S
C619 C622 1.463 1_556 S
C619 C624 1.350 . S
C619 N627 1.427 . S
C620 H611 0.930 . S
C620 C618 1.378 . S
C620 C621 1.367 . S
C621 C620 1.367 . S
C621 C623 1.433 . S
C622 C618 1.350 . S
C622 C619 1.463 1_554 S
C622 N626 1.427 . S
C623 H613 0.929 . S
C623 C621 1.433 . S
C623 N626 1.384 . S
C624 H615 0.929 . S
C624 C616 1.378 . S
C624 C619 1.350 . S
C625 H612 0.929 . S
C625 C617 1.433 . S
C625 N627 1.384 . S
N626 C622 1.427 . S
N626 C623 1.384 . S
N627 C619 1.427 . S
N627 C625 1.384 . S
H628 C634 0.930 . S
H629 C638 0.930 . S
H630 C643 0.929 . S
H631 C641 0.929 . S
H632 C636 0.929 . S
H633 C642 0.929 . S
C634 H628 0.930 . S
C634 C635 1.367 . S
C634 C642 1.378 . S
C635 C634 1.367 . S
C635 C643 1.433 . S
C636 H632 0.929 . S
C636 C638 1.378 . S
C636 C640 1.350 . S
C637 C640 1.463 . S
C637 C642 1.350 . S
C637 N645 1.427 . S
C638 H629 0.930 . S
C638 C636 1.378 . S
C638 C639 1.367 . S
C639 C638 1.367 . S
C639 C641 1.433 . S
C640 C636 1.350 . S
C640 C637 1.463 . S
C640 N644 1.427 . S
C641 H631 0.929 . S
C641 C639 1.433 . S
C641 N644 1.384 . S
C642 H633 0.929 . S
C642 C634 1.378 . S
C642 C637 1.350 . S
C643 H630 0.929 . S
C643 C635 1.433 . S
C643 N645 1.384 . S
N644 C640 1.427 . S
N644 C641 1.384 . S
N645 C637 1.427 . S
N645 C643 1.384 . S
H646 C652 0.930 . S
H647 C656 0.930 . S
H648 C661 0.929 . S
H649 C659 0.929 . S
H650 C654 0.929 . S
H651 C660 0.929 . S
C652 H646 0.930 . S
C652 C653 1.367 . S
C652 C660 1.378 . S
C653 C652 1.367 . S
C653 C661 1.433 . S
C654 H650 0.929 . S
C654 C656 1.378 . S
C654 C658 1.350 . S
C655 C658 1.463 . S
C655 C660 1.350 . S
C655 N663 1.427 . S
C656 H647 0.930 . S
C656 C654 1.378 . S
C656 C657 1.367 . S
C657 C656 1.367 . S
C657 C659 1.433 . S
C658 C654 1.350 . S
C658 C655 1.463 . S
C658 N662 1.427 . S
C659 H649 0.929 . S
C659 C657 1.433 . S
C659 N662 1.384 . S
C660 H651 0.929 . S
C660 C652 1.378 . S
C660 C655 1.350 . S
C661 H648 0.929 . S
C661 C653 1.433 . S
C661 N663 1.384 . S
N662 C658 1.427 . S
N662 C659 1.384 . S
N663 C655 1.427 . S
N663 C661 1.384 . S
H664 C670 0.930 . S
H665 C674 0.930 . S
H666 C679 0.929 . S
H667 C677 0.929 . S
H668 C672 0.929 . S
H669 C678 0.929 . S
C670 H664 0.930 . S
C670 C671 1.367 . S
C670 C678 1.378 . S
C671 C670 1.367 . S
C671 C679 1.433 . S
C672 H668 0.929 . S
C672 C674 1.378 . S
C672 C676 1.350 . S
C673 C676 1.463 . S
C673 C678 1.350 . S
C673 N681 1.427 . S
C674 H665 0.930 . S
C674 C672 1.378 . S
C674 C675 1.367 . S
C675 C674 1.367 . S
C675 C677 1.433 . S
C676 C672 1.350 . S
C676 C673 1.463 . S
C676 N680 1.427 . S
C677 H667 0.929 . S
C677 C675 1.433 . S
C677 N680 1.384 . S
C678 H669 0.929 . S
C678 C670 1.378 . S
C678 C673 1.350 . S
C679 H666 0.929 . S
C679 C671 1.433 . S
C679 N681 1.384 . S
N680 C676 1.427 . S
N680 C677 1.384 . S
N681 C673 1.427 . S
N681 C679 1.384 . S
H682 C688 0.930 . S
H683 C692 0.930 . S
H684 C697 0.929 . S
H685 C695 0.929 . S
H686 C690 0.929 . S
H687 C696 0.929 . S
C688 H682 0.930 . S
C688 C689 1.367 . S
C688 C696 1.378 . S
C689 C688 1.367 . S
C689 C697 1.433 . S
C690 H686 0.929 . S
C690 C692 1.378 . S
C690 C694 1.350 . S
C691 C694 1.463 1_554 S
C691 C696 1.350 . S
C691 N699 1.427 . S
C692 H683 0.930 . S
C692 C690 1.378 . S
C692 C693 1.367 . S
C693 C692 1.367 . S
C693 C695 1.433 . S
C694 C690 1.350 . S
C694 C691 1.463 1_556 S
C694 N698 1.427 . S
C695 H685 0.929 . S
C695 C693 1.433 . S
C695 N698 1.384 . S
C696 H687 0.929 . S
C696 C688 1.378 . S
C696 C691 1.350 . S
C697 H684 0.929 . S
C697 C689 1.433 . S
C697 N699 1.384 . S
N698 C694 1.427 . S
N698 C695 1.384 . S
N699 C691 1.427 . S
N699 C697 1.384 . S
H700 C706 0.930 . S
H701 C710 0.930 . S
H702 C715 0.929 . S
H703 C713 0.929 . S
H704 C708 0.929 . S
H705 C714 0.929 . S
C706 H700 0.930 . S
C706 C707 1.367 . S
C706 C714 1.378 . S
C707 C706 1.367 . S
C707 C715 1.433 . S
C708 H704 0.929 . S
C708 C710 1.378 . S
C708 C712 1.350 . S
C709 C712 1.463 . S
C709 C714 1.350 . S
C709 N717 1.427 . S
C710 H701 0.930 . S
C710 C708 1.378 . S
C710 C711 1.367 . S
C711 C710 1.367 . S
C711 C713 1.433 . S
C712 C708 1.350 . S
C712 C709 1.463 . S
C712 N716 1.427 . S
C713 H703 0.929 . S
C713 C711 1.433 . S
C713 N716 1.384 . S
C714 H705 0.929 . S
C714 C706 1.378 . S
C714 C709 1.350 . S
C715 H702 0.929 . S
C715 C707 1.433 . S
C715 N717 1.384 . S
N716 C712 1.427 . S
N716 C713 1.384 . S
N717 C709 1.427 . S
N717 C715 1.384 . S
H718 C724 0.930 . S
H719 C728 0.930 . S
H720 C733 0.929 . S
H721 C731 0.929 . S
H722 C726 0.929 . S
H723 C732 0.929 . S
C724 H718 0.930 . S
C724 C725 1.367 . S
C724 C732 1.378 . S
C725 C724 1.367 . S
C725 C733 1.433 . S
C726 H722 0.929 . S
C726 C728 1.378 . S
C726 C730 1.350 . S
C727 C730 1.463 . S
C727 C732 1.350 . S
C727 N735 1.427 . S
C728 H719 0.930 . S
C728 C726 1.378 . S
C728 C729 1.367 . S
C729 C728 1.367 . S
C729 C731 1.433 . S
C730 C726 1.350 . S
C730 C727 1.463 . S
C730 N734 1.427 . S
C731 H721 0.929 . S
C731 C729 1.433 . S
C731 N734 1.384 . S
C732 H723 0.929 . S
C732 C724 1.378 . S
C732 C727 1.350 . S
C733 H720 0.929 . S
C733 C725 1.433 . S
C733 N735 1.384 . S
N734 C730 1.427 . S
N734 C731 1.384 . S
N735 C727 1.427 . S
N735 C733 1.384 . S
H736 C742 0.930 . S
H737 C746 0.930 . S
H738 C751 0.929 . S
H739 C749 0.929 . S
H740 C744 0.929 . S
H741 C750 0.929 . S
C742 H736 0.930 . S
C742 C743 1.367 . S
C742 C750 1.378 . S
C743 C742 1.367 . S
C743 C751 1.433 . S
C744 H740 0.929 . S
C744 C746 1.378 . S
C744 C748 1.350 . S
C745 C748 1.463 . S
C745 C750 1.350 . S
C745 N753 1.427 . S
C746 H737 0.930 . S
C746 C744 1.378 . S
C746 C747 1.367 . S
C747 C746 1.367 . S
C747 C749 1.433 . S
C748 C744 1.350 . S
C748 C745 1.463 . S
C748 N752 1.427 . S
C749 H739 0.929 . S
C749 C747 1.433 . S
C749 N752 1.384 . S
C750 H741 0.929 . S
C750 C742 1.378 . S
C750 C745 1.350 . S
C751 H738 0.929 . S
C751 C743 1.433 . S
C751 N753 1.384 . S
N752 C748 1.427 . S
N752 C749 1.384 . S
N753 C745 1.427 . S
N753 C751 1.384 . S
H754 C760 0.930 . S
H755 C764 0.930 . S
H756 C769 0.929 . S
H757 C767 0.929 . S
H758 C762 0.929 . S
H759 C768 0.929 1_455 S
C760 H754 0.930 . S
C760 C761 1.367 . S
C760 C768 1.378 . S
C761 C760 1.367 . S
C761 C769 1.433 . S
C762 H758 0.929 . S
C762 C764 1.378 . S
C762 C766 1.350 . S
C763 C766 1.463 . S
C763 C768 1.350 1_455 S
C763 N771 1.427 1_455 S
C764 H755 0.930 . S
C764 C762 1.378 . S
C764 C765 1.367 . S
C765 C764 1.367 . S
C765 C767 1.433 . S
C766 C762 1.350 . S
C766 C763 1.463 . S
C766 N770 1.427 . S
C767 H757 0.929 . S
C767 C765 1.433 . S
C767 N770 1.384 . S
C768 H759 0.929 1_655 S
C768 C760 1.378 . S
C768 C763 1.350 1_655 S
C769 H756 0.929 . S
C769 C761 1.433 . S
C769 N771 1.384 . S
N770 C766 1.427 . S
N770 C767 1.384 . S
N771 C763 1.427 1_655 S
N771 C769 1.384 . S
H772 C778 0.930 . S
H773 C782 0.930 . S
H774 C787 0.929 . S
H775 C785 0.929 . S
H776 C780 0.929 . S
H777 C786 0.929 . S
C778 H772 0.930 . S
C778 C779 1.367 . S
C778 C786 1.378 . S
C779 C778 1.367 . S
C779 C787 1.433 . S
C780 H776 0.929 . S
C780 C782 1.378 . S
C780 C784 1.350 . S
C781 C784 1.463 . S
C781 C786 1.350 . S
C781 N789 1.427 . S
C782 H773 0.930 . S
C782 C780 1.378 . S
C782 C783 1.367 . S
C783 C782 1.367 . S
C783 C785 1.433 . S
C784 C780 1.350 . S
C784 C781 1.463 . S
C784 N788 1.427 . S
C785 H775 0.929 . S
C785 C783 1.433 . S
C785 N788 1.384 . S
C786 H777 0.929 . S
C786 C778 1.378 . S
C786 C781 1.350 . S
C787 H774 0.929 . S
C787 C779 1.433 . S
C787 N789 1.384 . S
N788 C784 1.427 . S
N788 C785 1.384 . S
N789 C781 1.427 . S
N789 C787 1.384 . S
H790 C796 0.930 . S
H791 C800 0.930 . S
H792 C805 0.929 . S
H793 C803 0.929 . S
H794 C798 0.929 . S
H795 C804 0.929 . S
C796 H790 0.930 . S
C796 C797 1.367 . S
C796 C804 1.378 . S
C797 C796 1.367 . S
C797 C805 1.433 . S
C798 H794 0.929 . S
C798 C800 1.378 . S
C798 C802 1.350 . S
C799 C802 1.463 . S
C799 C804 1.350 . S
C799 N807 1.427 . S
C800 H791 0.930 . S
C800 C798 1.378 . S
C800 C801 1.367 . S
C801 C800 1.367 . S
C801 C803 1.433 . S
C802 C798 1.350 . S
C802 C799 1.463 . S
C802 N806 1.427 . S
C803 H793 0.929 . S
C803 C801 1.433 . S
C803 N806 1.384 . S
C804 H795 0.929 . S
C804 C796 1.378 . S
C804 C799 1.350 . S
C805 H792 0.929 . S
C805 C797 1.433 . S
C805 N807 1.384 . S
N806 C802 1.427 . S
N806 C803 1.384 . S
N807 C799 1.427 . S
N807 C805 1.384 . S
H808 C814 0.930 . S
H809 C818 0.930 . S
H810 C823 0.929 . S
H811 C821 0.929 . S
H812 C816 0.929 . S
H813 C822 0.929 . S
C814 H808 0.930 . S
C814 C815 1.367 . S
C814 C822 1.378 . S
C815 C814 1.367 . S
C815 C823 1.433 . S
C816 H812 0.929 . S
C816 C818 1.378 . S
C816 C820 1.350 . S
C817 C820 1.463 . S
C817 C822 1.350 . S
C817 N825 1.427 . S
C818 H809 0.930 . S
C818 C816 1.378 . S
C818 C819 1.367 . S
C819 C818 1.367 . S
C819 C821 1.433 . S
C820 C816 1.350 . S
C820 C817 1.463 . S
C820 N824 1.427 . S
C821 H811 0.929 . S
C821 C819 1.433 . S
C821 N824 1.384 . S
C822 H813 0.929 . S
C822 C814 1.378 . S
C822 C817 1.350 . S
C823 H810 0.929 . S
C823 C815 1.433 . S
C823 N825 1.384 . S
N824 C820 1.427 . S
N824 C821 1.384 . S
N825 C817 1.427 . S
N825 C823 1.384 . S
H826 C832 0.930 . S
H827 C836 0.930 . S
H828 C841 0.929 . S
H829 C839 0.929 . S
H830 C834 0.929 . S
H831 C840 0.929 . S
C832 H826 0.930 . S
C832 C833 1.367 . S
C832 C840 1.378 . S
C833 C832 1.367 . S
C833 C841 1.433 . S
C834 H830 0.929 . S
C834 C836 1.378 . S
C834 C838 1.350 . S
C835 C838 1.463 . S
C835 C840 1.350 . S
C835 N843 1.427 . S
C836 H827 0.930 . S
C836 C834 1.378 . S
C836 C837 1.367 . S
C837 C836 1.367 . S
C837 C839 1.433 . S
C838 C834 1.350 . S
C838 C835 1.463 . S
C838 N842 1.427 . S
C839 H829 0.929 . S
C839 C837 1.433 . S
C839 N842 1.384 . S
C840 H831 0.929 . S
C840 C832 1.378 . S
C840 C835 1.350 . S
C841 H828 0.929 . S
C841 C833 1.433 . S
C841 N843 1.384 . S
N842 C838 1.427 . S
N842 C839 1.384 . S
N843 C835 1.427 . S
N843 C841 1.384 . S
H844 C850 0.930 . S
H845 C854 0.930 . S
H846 C859 0.929 . S
H847 C857 0.929 . S
H848 C852 0.929 . S
H849 C858 0.929 . S
C850 H844 0.930 . S
C850 C851 1.367 . S
C850 C858 1.378 . S
C851 C850 1.367 . S
C851 C859 1.433 . S
C852 H848 0.929 . S
C852 C854 1.378 . S
C852 C856 1.350 . S
C853 C856 1.463 . S
C853 C858 1.350 . S
C853 N861 1.427 . S
C854 H845 0.930 . S
C854 C852 1.378 . S
C854 C855 1.367 . S
C855 C854 1.367 . S
C855 C857 1.433 . S
C856 C852 1.350 . S
C856 C853 1.463 . S
C856 N860 1.427 . S
C857 H847 0.929 . S
C857 C855 1.433 . S
C857 N860 1.384 . S
C858 H849 0.929 . S
C858 C850 1.378 . S
C858 C853 1.350 . S
C859 H846 0.929 . S
C859 C851 1.433 . S
C859 N861 1.384 . S
N860 C856 1.427 . S
N860 C857 1.384 . S
N861 C853 1.427 . S
N861 C859 1.384 . S
H862 C868 0.930 . S
H863 C872 0.930 . S
H864 C877 0.929 . S
H865 C875 0.929 . S
H866 C870 0.929 1_455 S
H867 C876 0.929 . S
C868 H862 0.930 . S
C868 C869 1.367 . S
C868 C876 1.378 . S
C869 C868 1.367 . S
C869 C877 1.433 . S
C870 H866 0.929 1_655 S
C870 C872 1.378 . S
C870 C874 1.350 1_655 S
C871 C874 1.463 . S
C871 C876 1.350 . S
C871 N879 1.427 . S
C872 H863 0.930 . S
C872 C870 1.378 . S
C872 C873 1.367 . S
C873 C872 1.367 . S
C873 C875 1.433 . S
C874 C870 1.350 1_455 S
C874 C871 1.463 . S
C874 N878 1.427 1_455 S
C875 H865 0.929 . S
C875 C873 1.433 . S
C875 N878 1.384 . S
C876 H867 0.929 . S
C876 C868 1.378 . S
C876 C871 1.350 . S
C877 H864 0.929 . S
C877 C869 1.433 . S
C877 N879 1.384 . S
N878 C874 1.427 1_655 S
N878 C875 1.384 . S
N879 C871 1.427 . S
N879 C877 1.384 . S
H880 C886 0.930 . S
H881 C890 0.930 . S
H882 C895 0.929 . S
H883 C893 0.929 . S
H884 C888 0.929 . S
H885 C894 0.929 . S
C886 H880 0.930 . S
C886 C887 1.367 . S
C886 C894 1.378 . S
C887 C886 1.367 . S
C887 C895 1.433 . S
C888 H884 0.929 . S
C888 C890 1.378 . S
C888 C892 1.350 . S
C889 C892 1.463 . S
C889 C894 1.350 . S
C889 N897 1.427 . S
C890 H881 0.930 . S
C890 C888 1.378 . S
C890 C891 1.367 . S
C891 C890 1.367 . S
C891 C893 1.433 . S
C892 C888 1.350 . S
C892 C889 1.463 . S
C892 N896 1.427 . S
C893 H883 0.929 . S
C893 C891 1.433 . S
C893 N896 1.384 . S
C894 H885 0.929 . S
C894 C886 1.378 . S
C894 C889 1.350 . S
C895 H882 0.929 . S
C895 C887 1.433 . S
C895 N897 1.384 . S
N896 C892 1.427 . S
N896 C893 1.384 . S
N897 C889 1.427 . S
N897 C895 1.384 . S
H898 C904 0.930 . S
H899 C908 0.930 . S
H900 C913 0.929 . S
H901 C911 0.929 . S
H902 C906 0.929 . S
H903 C912 0.929 . S
C904 H898 0.930 . S
C904 C905 1.367 . S
C904 C912 1.378 . S
C905 C904 1.367 . S
C905 C913 1.433 . S
C906 H902 0.929 . S
C906 C908 1.378 . S
C906 C910 1.350 1_455 S
C907 C910 1.463 . S
C907 C912 1.350 . S
C907 N915 1.427 . S
C908 H899 0.930 . S
C908 C906 1.378 . S
C908 C909 1.367 . S
C909 C908 1.367 . S
C909 C911 1.433 . S
C910 C906 1.350 1_655 S
C910 C907 1.463 . S
C910 N914 1.427 1_655 S
C911 H901 0.929 . S
C911 C909 1.433 . S
C911 N914 1.384 . S
C912 H903 0.929 . S
C912 C904 1.378 . S
C912 C907 1.350 . S
C913 H900 0.929 . S
C913 C905 1.433 . S
C913 N915 1.384 . S
N914 C910 1.427 1_455 S
N914 C911 1.384 . S
N915 C907 1.427 . S
N915 C913 1.384 . S
H916 C922 0.930 . S
H917 C926 0.930 . S
H918 C931 0.929 . S
H919 C929 0.929 . S
H920 C924 0.929 . S
H921 C930 0.929 . S
C922 H916 0.930 . S
C922 C923 1.367 . S
C922 C930 1.378 . S
C923 C922 1.367 . S
C923 C931 1.433 . S
C924 H920 0.929 . S
C924 C926 1.378 . S
C924 C928 1.350 . S
C925 C928 1.463 . S
C925 C930 1.350 . S
C925 N933 1.427 . S
C926 H917 0.930 . S
C926 C924 1.378 . S
C926 C927 1.367 . S
C927 C926 1.367 . S
C927 C929 1.433 . S
C928 C924 1.350 . S
C928 C925 1.463 . S
C928 N932 1.427 . S
C929 H919 0.929 . S
C929 C927 1.433 . S
C929 N932 1.384 . S
C930 H921 0.929 . S
C930 C922 1.378 . S
C930 C925 1.350 . S
C931 H918 0.929 . S
C931 C923 1.433 . S
C931 N933 1.384 . S
N932 C928 1.427 . S
N932 C929 1.384 . S
N933 C925 1.427 . S
N933 C931 1.384 . S
H934 C940 0.930 . S
H935 C944 0.930 . S
H936 C949 0.929 . S
H937 C947 0.929 . S
H938 C942 0.929 . S
H939 C948 0.929 . S
C940 H934 0.930 . S
C940 C941 1.367 . S
C940 C948 1.378 . S
C941 C940 1.367 . S
C941 C949 1.433 . S
C942 H938 0.929 . S
C942 C944 1.378 . S
C942 C946 1.350 . S
C943 C946 1.463 . S
C943 C948 1.350 . S
C943 N951 1.427 . S
C944 H935 0.930 . S
C944 C942 1.378 . S
C944 C945 1.367 . S
C945 C944 1.367 . S
C945 C947 1.433 . S
C946 C942 1.350 . S
C946 C943 1.463 . S
C946 N950 1.427 . S
C947 H937 0.929 . S
C947 C945 1.433 . S
C947 N950 1.384 . S
C948 H939 0.929 . S
C948 C940 1.378 . S
C948 C943 1.350 . S
C949 H936 0.929 . S
C949 C941 1.433 . S
C949 N951 1.384 . S
N950 C946 1.427 . S
N950 C947 1.384 . S
N951 C943 1.427 . S
N951 C949 1.384 . S
H952 C958 0.930 . S
H953 C962 0.930 . S
H954 C967 0.929 . S
H955 C965 0.929 . S
H956 C960 0.929 . S
H957 C966 0.929 . S
C958 H952 0.930 . S
C958 C959 1.367 . S
C958 C966 1.378 . S
C959 C958 1.367 . S
C959 C967 1.433 . S
C960 H956 0.929 . S
C960 C962 1.378 . S
C960 C964 1.350 . S
C961 C964 1.463 . S
C961 C966 1.350 . S
C961 N969 1.427 . S
C962 H953 0.930 . S
C962 C960 1.378 . S
C962 C963 1.367 . S
C963 C962 1.367 . S
C963 C965 1.433 . S
C964 C960 1.350 . S
C964 C961 1.463 . S
C964 N968 1.427 . S
C965 H955 0.929 . S
C965 C963 1.433 . S
C965 N968 1.384 . S
C966 H957 0.929 . S
C966 C958 1.378 . S
C966 C961 1.350 . S
C967 H954 0.929 . S
C967 C959 1.433 . S
C967 N969 1.384 . S
N968 C964 1.427 . S
N968 C965 1.384 . S
N969 C961 1.427 . S
N969 C967 1.384 . S
H970 C976 0.930 . S
H971 C980 0.930 . S
H972 C985 0.929 . S
H973 C983 0.929 . S
H974 C978 0.929 . S
H975 C984 0.929 . S
C976 H970 0.930 . S
C976 C977 1.367 . S
C976 C984 1.378 . S
C977 C976 1.367 . S
C977 C985 1.433 . S
C978 H974 0.929 . S
C978 C980 1.378 . S
C978 C982 1.350 . S
C979 C982 1.463 . S
C979 C984 1.350 . S
C979 N987 1.427 . S
C980 H971 0.930 . S
C980 C978 1.378 . S
C980 C981 1.367 . S
C981 C980 1.367 . S
C981 C983 1.433 . S
C982 C978 1.350 . S
C982 C979 1.463 . S
C982 N986 1.427 . S
C983 H973 0.929 . S
C983 C981 1.433 . S
C983 N986 1.384 . S
C984 H975 0.929 . S
C984 C976 1.378 . S
C984 C979 1.350 . S
C985 H972 0.929 . S
C985 C977 1.433 . S
C985 N987 1.384 . S
N986 C982 1.427 . S
N986 C983 1.384 . S
N987 C979 1.427 . S
N987 C985 1.384 . S
H988 C994 0.930 . S
H989 C998 0.930 . S
H990 C1003 0.929 . S
H991 C1001 0.929 . S
H992 C996 0.929 . S
H993 C1002 0.929 . S
C994 H988 0.930 . S
C994 C995 1.367 . S
C994 C1002 1.378 . S
C995 C994 1.367 . S
C995 C1003 1.433 . S
C996 H992 0.929 . S
C996 C998 1.378 . S
C996 C1000 1.350 . S
C997 C1000 1.463 . S
C997 C1002 1.350 . S
C997 N1005 1.427 . S
C998 H989 0.930 . S
C998 C996 1.378 . S
C998 C999 1.367 . S
C999 C998 1.367 . S
C999 C1001 1.433 . S
C1000 C996 1.350 . S
C1000 C997 1.463 . S
C1000 N1004 1.427 . S
C1001 H991 0.929 . S
C1001 C999 1.433 . S
C1001 N1004 1.384 . S
C1002 H993 0.929 . S
C1002 C994 1.378 . S
C1002 C997 1.350 . S
C1003 H990 0.929 . S
C1003 C995 1.433 . S
C1003 N1005 1.384 . S
N1004 C1000 1.427 . S
N1004 C1001 1.384 . S
N1005 C997 1.427 . S
N1005 C1003 1.384 . S
H1006 C1012 0.930 . S
H1007 C1016 0.930 . S
H1008 C1021 0.929 . S
H1009 C1019 0.929 . S
H1010 C1014 0.929 1_655 S
H1011 C1020 0.929 . S
C1012 H1006 0.930 . S
C1012 C1013 1.367 . S
C1012 C1020 1.378 . S
C1013 C1012 1.367 . S
C1013 C1021 1.433 . S
C1014 H1010 0.929 1_455 S
C1014 C1016 1.378 . S
C1014 C1018 1.350 1_455 S
C1015 C1018 1.463 . S
C1015 C1020 1.350 . S
C1015 N1023 1.427 . S
C1016 H1007 0.930 . S
C1016 C1014 1.378 . S
C1016 C1017 1.367 . S
C1017 C1016 1.367 . S
C1017 C1019 1.433 . S
C1018 C1014 1.350 1_655 S
C1018 C1015 1.463 . S
C1018 N1022 1.427 1_655 S
C1019 H1009 0.929 . S
C1019 C1017 1.433 . S
C1019 N1022 1.384 . S
C1020 H1011 0.929 . S
C1020 C1012 1.378 . S
C1020 C1015 1.350 . S
C1021 H1008 0.929 . S
C1021 C1013 1.433 . S
C1021 N1023 1.384 . S
N1022 C1018 1.427 1_455 S
N1022 C1019 1.384 . S
N1023 C1015 1.427 . S
N1023 C1021 1.384 . S
H1024 C1030 0.930 . S
H1025 C1034 0.930 . S
H1026 C1039 0.929 . S
H1027 C1037 0.929 . S
H1028 C1032 0.929 . S
H1029 C1038 0.929 . S
C1030 H1024 0.930 . S
C1030 C1031 1.367 . S
C1030 C1038 1.378 . S
C1031 C1030 1.367 . S
C1031 C1039 1.433 . S
C1032 H1028 0.929 . S
C1032 C1034 1.378 . S
C1032 C1036 1.350 . S
C1033 C1036 1.463 . S
C1033 C1038 1.350 . S
C1033 N1041 1.427 . S
C1034 H1025 0.930 . S
C1034 C1032 1.378 . S
C1034 C1035 1.367 . S
C1035 C1034 1.367 . S
C1035 C1037 1.433 . S
C1036 C1032 1.350 . S
C1036 C1033 1.463 . S
C1036 N1040 1.427 . S
C1037 H1027 0.929 . S
C1037 C1035 1.433 . S
C1037 N1040 1.384 . S
C1038 H1029 0.929 . S
C1038 C1030 1.378 . S
C1038 C1033 1.350 . S
C1039 H1026 0.929 . S
C1039 C1031 1.433 . S
C1039 N1041 1.384 . S
N1040 C1036 1.427 . S
N1040 C1037 1.384 . S
N1041 C1033 1.427 . S
N1041 C1039 1.384 . S
H1042 C1048 0.930 . S
H1043 C1052 0.930 . S
H1044 C1057 0.929 . S
H1045 C1055 0.929 . S
H1046 C1050 0.929 . S
H1047 C1056 0.929 . S
C1048 H1042 0.930 . S
C1048 C1049 1.367 . S
C1048 C1056 1.378 . S
C1049 C1048 1.367 . S
C1049 C1057 1.433 . S
C1050 H1046 0.929 . S
C1050 C1052 1.378 . S
C1050 C1054 1.350 . S
C1051 C1054 1.463 . S
C1051 C1056 1.350 . S
C1051 N1059 1.427 . S
C1052 H1043 0.930 . S
C1052 C1050 1.378 . S
C1052 C1053 1.367 . S
C1053 C1052 1.367 . S
C1053 C1055 1.433 . S
C1054 C1050 1.350 . S
C1054 C1051 1.463 . S
C1054 N1058 1.427 . S
C1055 H1045 0.929 . S
C1055 C1053 1.433 . S
C1055 N1058 1.384 . S
C1056 H1047 0.929 . S
C1056 C1048 1.378 . S
C1056 C1051 1.350 . S
C1057 H1044 0.929 . S
C1057 C1049 1.433 . S
C1057 N1059 1.384 . S
N1058 C1054 1.427 . S
N1058 C1055 1.384 . S
N1059 C1051 1.427 . S
N1059 C1057 1.384 . S
H1060 C1066 0.930 . S
H1061 C1070 0.930 . S
H1062 C1075 0.929 . S
H1063 C1073 0.929 . S
H1064 C1068 0.929 . S
H1065 C1074 0.929 . S
C1066 H1060 0.930 . S
C1066 C1067 1.367 . S
C1066 C1074 1.378 . S
C1067 C1066 1.367 . S
C1067 C1075 1.433 . S
C1068 H1064 0.929 . S
C1068 C1070 1.378 . S
C1068 C1072 1.350 . S
C1069 C1072 1.463 . S
C1069 C1074 1.350 . S
C1069 N1077 1.427 . S
C1070 H1061 0.930 . S
C1070 C1068 1.378 . S
C1070 C1071 1.367 . S
C1071 C1070 1.367 . S
C1071 C1073 1.433 . S
C1072 C1068 1.350 . S
C1072 C1069 1.463 . S
C1072 N1076 1.427 . S
C1073 H1063 0.929 . S
C1073 C1071 1.433 . S
C1073 N1076 1.384 . S
C1074 H1065 0.929 . S
C1074 C1066 1.378 . S
C1074 C1069 1.350 . S
C1075 H1062 0.929 . S
C1075 C1067 1.433 . S
C1075 N1077 1.384 . S
N1076 C1072 1.427 . S
N1076 C1073 1.384 . S
N1077 C1069 1.427 . S
N1077 C1075 1.384 . S
H1078 C1084 0.930 . S
H1079 C1088 0.930 . S
H1080 C1093 0.929 . S
H1081 C1091 0.929 . S
H1082 C1086 0.929 . S
H1083 C1092 0.929 . S
C1084 H1078 0.930 . S
C1084 C1085 1.367 . S
C1084 C1092 1.378 . S
C1085 C1084 1.367 . S
C1085 C1093 1.433 . S
C1086 H1082 0.929 . S
C1086 C1088 1.378 . S
C1086 C1090 1.350 1_455 S
C1087 C1090 1.463 . S
C1087 C1092 1.350 . S
C1087 N1095 1.427 . S
C1088 H1079 0.930 . S
C1088 C1086 1.378 . S
C1088 C1089 1.367 . S
C1089 C1088 1.367 . S
C1089 C1091 1.433 . S
C1090 C1086 1.350 1_655 S
C1090 C1087 1.463 . S
C1090 N1094 1.427 1_655 S
C1091 H1081 0.929 . S
C1091 C1089 1.433 . S
C1091 N1094 1.384 . S
C1092 H1083 0.929 . S
C1092 C1084 1.378 . S
C1092 C1087 1.350 . S
C1093 H1080 0.929 . S
C1093 C1085 1.433 . S
C1093 N1095 1.384 . S
N1094 C1090 1.427 1_455 S
N1094 C1091 1.384 . S
N1095 C1087 1.427 . S
N1095 C1093 1.384 . S
H1096 C1102 0.930 . S
H1097 C1106 0.930 . S
H1098 C1111 0.929 . S
H1099 C1109 0.929 . S
H1100 C1104 0.929 . S
H1101 C1110 0.929 . S
C1102 H1096 0.930 . S
C1102 C1103 1.367 . S
C1102 C1110 1.378 . S
C1103 C1102 1.367 . S
C1103 C1111 1.433 . S
C1104 H1100 0.929 . S
C1104 C1106 1.378 . S
C1104 C1108 1.350 . S
C1105 C1108 1.463 . S
C1105 C1110 1.350 . S
C1105 N1113 1.427 . S
C1106 H1097 0.930 . S
C1106 C1104 1.378 . S
C1106 C1107 1.367 . S
C1107 C1106 1.367 . S
C1107 C1109 1.433 . S
C1108 C1104 1.350 . S
C1108 C1105 1.463 . S
C1108 N1112 1.427 . S
C1109 H1099 0.929 . S
C1109 C1107 1.433 . S
C1109 N1112 1.384 . S
C1110 H1101 0.929 . S
C1110 C1102 1.378 . S
C1110 C1105 1.350 . S
C1111 H1098 0.929 . S
C1111 C1103 1.433 . S
C1111 N1113 1.384 . S
N1112 C1108 1.427 . S
N1112 C1109 1.384 . S
N1113 C1105 1.427 . S
N1113 C1111 1.384 . S
H1114 C1120 0.930 . S
H1115 C1124 0.930 . S
H1116 C1129 0.929 . S
H1117 C1127 0.929 . S
H1118 C1122 0.929 . S
H1119 C1128 0.929 1_655 S
C1120 H1114 0.930 . S
C1120 C1121 1.367 . S
C1120 C1128 1.378 . S
C1121 C1120 1.367 . S
C1121 C1129 1.433 . S
C1122 H1118 0.929 . S
C1122 C1124 1.378 . S
C1122 C1126 1.350 . S
C1123 C1126 1.463 . S
C1123 C1128 1.350 1_655 S
C1123 N1131 1.427 1_655 S
C1124 H1115 0.930 . S
C1124 C1122 1.378 . S
C1124 C1125 1.367 . S
C1125 C1124 1.367 . S
C1125 C1127 1.433 . S
C1126 C1122 1.350 . S
C1126 C1123 1.463 . S
C1126 N1130 1.427 . S
C1127 H1117 0.929 . S
C1127 C1125 1.433 . S
C1127 N1130 1.384 . S
C1128 H1119 0.929 1_455 S
C1128 C1120 1.378 . S
C1128 C1123 1.350 1_455 S
C1129 H1116 0.929 . S
C1129 C1121 1.433 . S
C1129 N1131 1.384 . S
N1130 C1126 1.427 . S
N1130 C1127 1.384 . S
N1131 C1123 1.427 1_455 S
N1131 C1129 1.384 . S
H1132 C1138 0.930 . S
H1133 C1142 0.930 . S
H1134 C1147 0.929 . S
H1135 C1145 0.929 . S
H1136 C1140 0.929 . S
H1137 C1146 0.929 . S
C1138 H1132 0.930 . S
C1138 C1139 1.367 . S
C1138 C1146 1.378 . S
C1139 C1138 1.367 . S
C1139 C1147 1.433 . S
C1140 H1136 0.929 . S
C1140 C1142 1.378 . S
C1140 C1144 1.350 . S
C1141 C1144 1.463 . S
C1141 C1146 1.350 . S
C1141 N1149 1.427 . S
C1142 H1133 0.930 . S
C1142 C1140 1.378 . S
C1142 C1143 1.367 . S
C1143 C1142 1.367 . S
C1143 C1145 1.433 . S
C1144 C1140 1.350 . S
C1144 C1141 1.463 . S
C1144 N1148 1.427 . S
C1145 H1135 0.929 . S
C1145 C1143 1.433 . S
C1145 N1148 1.384 . S
C1146 H1137 0.929 . S
C1146 C1138 1.378 . S
C1146 C1141 1.350 . S
C1147 H1134 0.929 . S
C1147 C1139 1.433 . S
C1147 N1149 1.384 . S
N1148 C1144 1.427 . S
N1148 C1145 1.384 . S
N1149 C1141 1.427 . S
N1149 C1147 1.384 . S
H1150 C1156 0.930 . S
H1151 C1160 0.930 . S
H1152 C1165 0.929 . S
H1153 C1163 0.929 . S
H1154 C1158 0.929 . S
H1155 C1164 0.929 . S
C1156 H1150 0.930 . S
C1156 C1157 1.367 . S
C1156 C1164 1.378 . S
C1157 C1156 1.367 . S
C1157 C1165 1.433 . S
C1158 H1154 0.929 . S
C1158 C1160 1.378 . S
C1158 C1162 1.350 . S
C1159 C1162 1.463 . S
C1159 C1164 1.350 . S
C1159 N1167 1.427 . S
C1160 H1151 0.930 . S
C1160 C1158 1.378 . S
C1160 C1161 1.367 . S
C1161 C1160 1.367 . S
C1161 C1163 1.433 . S
C1162 C1158 1.350 . S
C1162 C1159 1.463 . S
C1162 N1166 1.427 . S
C1163 H1153 0.929 . S
C1163 C1161 1.433 . S
C1163 N1166 1.384 . S
C1164 H1155 0.929 . S
C1164 C1156 1.378 . S
C1164 C1159 1.350 . S
C1165 H1152 0.929 . S
C1165 C1157 1.433 . S
C1165 N1167 1.384 . S
N1166 C1162 1.427 . S
N1166 C1163 1.384 . S
N1167 C1159 1.427 . S
N1167 C1165 1.384 . S
H1168 C1174 0.930 . S
H1169 C1178 0.930 . S
H1170 C1183 0.929 . S
H1171 C1181 0.929 . S
H1172 C1176 0.929 . S
H1173 C1182 0.929 . S
C1174 H1168 0.930 . S
C1174 C1175 1.367 . S
C1174 C1182 1.378 . S
C1175 C1174 1.367 . S
C1175 C1183 1.433 . S
C1176 H1172 0.929 . S
C1176 C1178 1.378 . S
C1176 C1180 1.350 . S
C1177 C1180 1.463 . S
C1177 C1182 1.350 . S
C1177 N1185 1.427 . S
C1178 H1169 0.930 . S
C1178 C1176 1.378 . S
C1178 C1179 1.367 . S
C1179 C1178 1.367 . S
C1179 C1181 1.433 . S
C1180 C1176 1.350 . S
C1180 C1177 1.463 . S
C1180 N1184 1.427 . S
C1181 H1171 0.929 . S
C1181 C1179 1.433 . S
C1181 N1184 1.384 . S
C1182 H1173 0.929 . S
C1182 C1174 1.378 . S
C1182 C1177 1.350 . S
C1183 H1170 0.929 . S
C1183 C1175 1.433 . S
C1183 N1185 1.384 . S
N1184 C1180 1.427 . S
N1184 C1181 1.384 . S
N1185 C1177 1.427 . S
N1185 C1183 1.384 . S
H1186 C1192 0.930 . S
H1187 C1196 0.930 . S
H1188 C1201 0.929 . S
H1189 C1199 0.929 . S
H1190 C1194 0.929 . S
H1191 C1200 0.929 . S
C1192 H1186 0.930 . S
C1192 C1193 1.367 . S
C1192 C1200 1.378 . S
C1193 C1192 1.367 . S
C1193 C1201 1.433 . S
C1194 H1190 0.929 . S
C1194 C1196 1.378 . S
C1194 C1198 1.350 . S
C1195 C1198 1.463 . S
C1195 C1200 1.350 . S
C1195 N1203 1.427 . S
C1196 H1187 0.930 . S
C1196 C1194 1.378 . S
C1196 C1197 1.367 . S
C1197 C1196 1.367 . S
C1197 C1199 1.433 . S
C1198 C1194 1.350 . S
C1198 C1195 1.463 . S
C1198 N1202 1.427 . S
C1199 H1189 0.929 . S
C1199 C1197 1.433 . S
C1199 N1202 1.384 . S
C1200 H1191 0.929 . S
C1200 C1192 1.378 . S
C1200 C1195 1.350 . S
C1201 H1188 0.929 . S
C1201 C1193 1.433 . S
C1201 N1203 1.384 . S
N1202 C1198 1.427 . S
N1202 C1199 1.384 . S
N1203 C1195 1.427 . S
N1203 C1201 1.384 . S
H1204 C1210 0.930 . S
H1205 C1214 0.930 . S
H1206 C1219 0.929 . S
H1207 C1217 0.929 . S
H1208 C1212 0.929 . S
H1209 C1218 0.929 . S
C1210 H1204 0.930 . S
C1210 C1211 1.367 . S
C1210 C1218 1.378 . S
C1211 C1210 1.367 . S
C1211 C1219 1.433 . S
C1212 H1208 0.929 . S
C1212 C1214 1.378 . S
C1212 C1216 1.350 . S
C1213 C1216 1.463 . S
C1213 C1218 1.350 . S
C1213 N1221 1.427 . S
C1214 H1205 0.930 . S
C1214 C1212 1.378 . S
C1214 C1215 1.367 . S
C1215 C1214 1.367 . S
C1215 C1217 1.433 . S
C1216 C1212 1.350 . S
C1216 C1213 1.463 . S
C1216 N1220 1.427 . S
C1217 H1207 0.929 . S
C1217 C1215 1.433 . S
C1217 N1220 1.384 . S
C1218 H1209 0.929 . S
C1218 C1210 1.378 . S
C1218 C1213 1.350 . S
C1219 H1206 0.929 . S
C1219 C1211 1.433 . S
C1219 N1221 1.384 . S
N1220 C1216 1.427 . S
N1220 C1217 1.384 . S
N1221 C1213 1.427 . S
N1221 C1219 1.384 . S
H1222 C1228 0.930 . S
H1223 C1232 0.930 . S
H1224 C1237 0.929 . S
H1225 C1235 0.929 . S
H1226 C1230 0.929 1_455 S
H1227 C1236 0.929 . S
C1228 H1222 0.930 . S
C1228 C1229 1.367 . S
C1228 C1236 1.378 . S
C1229 C1228 1.367 . S
C1229 C1237 1.433 . S
C1230 H1226 0.929 1_655 S
C1230 C1232 1.378 . S
C1230 C1234 1.350 1_655 S
C1231 C1234 1.463 . S
C1231 C1236 1.350 . S
C1231 N1239 1.427 . S
C1232 H1223 0.930 . S
C1232 C1230 1.378 . S
C1232 C1233 1.367 . S
C1233 C1232 1.367 . S
C1233 C1235 1.433 . S
C1234 C1230 1.350 1_455 S
C1234 C1231 1.463 . S
C1234 N1238 1.427 1_455 S
C1235 H1225 0.929 . S
C1235 C1233 1.433 . S
C1235 N1238 1.384 . S
C1236 H1227 0.929 . S
C1236 C1228 1.378 . S
C1236 C1231 1.350 . S
C1237 H1224 0.929 . S
C1237 C1229 1.433 . S
C1237 N1239 1.384 . S
N1238 C1234 1.427 1_655 S
N1238 C1235 1.384 . S
N1239 C1231 1.427 . S
N1239 C1237 1.384 . S
H1240 C1246 0.930 . S
H1241 C1250 0.930 . S
H1242 C1255 0.929 . S
H1243 C1253 0.929 . S
H1244 C1248 0.929 . S
H1245 C1254 0.929 . S
C1246 H1240 0.930 . S
C1246 C1247 1.367 . S
C1246 C1254 1.378 . S
C1247 C1246 1.367 . S
C1247 C1255 1.433 . S
C1248 H1244 0.929 . S
C1248 C1250 1.378 . S
C1248 C1252 1.350 . S
C1249 C1252 1.463 . S
C1249 C1254 1.350 . S
C1249 N1257 1.427 . S
C1250 H1241 0.930 . S
C1250 C1248 1.378 . S
C1250 C1251 1.367 . S
C1251 C1250 1.367 . S
C1251 C1253 1.433 . S
C1252 C1248 1.350 . S
C1252 C1249 1.463 . S
C1252 N1256 1.427 . S
C1253 H1243 0.929 . S
C1253 C1251 1.433 . S
C1253 N1256 1.384 . S
C1254 H1245 0.929 . S
C1254 C1246 1.378 . S
C1254 C1249 1.350 . S
C1255 H1242 0.929 . S
C1255 C1247 1.433 . S
C1255 N1257 1.384 . S
N1256 C1252 1.427 . S
N1256 C1253 1.384 . S
N1257 C1249 1.427 . S
N1257 C1255 1.384 . S
H1258 C1264 0.930 . S
H1259 C1268 0.930 . S
H1260 C1273 0.929 . S
H1261 C1271 0.929 . S
H1262 C1266 0.929 . S
H1263 C1272 0.929 1_455 S
C1264 H1258 0.930 . S
C1264 C1265 1.367 . S
C1264 C1272 1.378 . S
C1265 C1264 1.367 . S
C1265 C1273 1.433 . S
C1266 H1262 0.929 . S
C1266 C1268 1.378 . S
C1266 C1270 1.350 . S
C1267 C1270 1.463 . S
C1267 C1272 1.350 1_455 S
C1267 N1275 1.427 1_455 S
C1268 H1259 0.930 . S
C1268 C1266 1.378 . S
C1268 C1269 1.367 . S
C1269 C1268 1.367 . S
C1269 C1271 1.433 . S
C1270 C1266 1.350 . S
C1270 C1267 1.463 . S
C1270 N1274 1.427 . S
C1271 H1261 0.929 . S
C1271 C1269 1.433 . S
C1271 N1274 1.384 . S
C1272 H1263 0.929 1_655 S
C1272 C1264 1.378 . S
C1272 C1267 1.350 1_655 S
C1273 H1260 0.929 . S
C1273 C1265 1.433 . S
C1273 N1275 1.384 . S
N1274 C1270 1.427 . S
N1274 C1271 1.384 . S
N1275 C1267 1.427 1_655 S
N1275 C1273 1.384 . S
H1276 C1282 0.930 . S
H1277 C1286 0.930 . S
H1278 C1291 0.929 . S
H1279 C1289 0.929 . S
H1280 C1284 0.929 . S
H1281 C1290 0.929 . S
C1282 H1276 0.930 . S
C1282 C1283 1.367 . S
C1282 C1290 1.378 . S
C1283 C1282 1.367 . S
C1283 C1291 1.433 . S
C1284 H1280 0.929 . S
C1284 C1286 1.378 . S
C1284 C1288 1.350 . S
C1285 C1288 1.463 . S
C1285 C1290 1.350 . S
C1285 N1293 1.427 . S
C1286 H1277 0.930 . S
C1286 C1284 1.378 . S
C1286 C1287 1.367 . S
C1287 C1286 1.367 . S
C1287 C1289 1.433 . S
C1288 C1284 1.350 . S
C1288 C1285 1.463 . S
C1288 N1292 1.427 . S
C1289 H1279 0.929 . S
C1289 C1287 1.433 . S
C1289 N1292 1.384 . S
C1290 H1281 0.929 . S
C1290 C1282 1.378 . S
C1290 C1285 1.350 . S
C1291 H1278 0.929 . S
C1291 C1283 1.433 . S
C1291 N1293 1.384 . S
N1292 C1288 1.427 . S
N1292 C1289 1.384 . S
N1293 C1285 1.427 . S
N1293 C1291 1.384 . S
H1294 C1300 0.930 . S
H1295 C1304 0.930 . S
H1296 C1309 0.929 . S
H1297 C1307 0.929 . S
H1298 C1302 0.929 . S
H1299 C1308 0.929 . S
C1300 H1294 0.930 . S
C1300 C1301 1.367 . S
C1300 C1308 1.378 . S
C1301 C1300 1.367 . S
C1301 C1309 1.433 . S
C1302 H1298 0.929 . S
C1302 C1304 1.378 . S
C1302 C1306 1.350 . S
C1303 C1306 1.463 . S
C1303 C1308 1.350 . S
C1303 N1311 1.427 . S
C1304 H1295 0.930 . S
C1304 C1302 1.378 . S
C1304 C1305 1.367 . S
C1305 C1304 1.367 . S
C1305 C1307 1.433 . S
C1306 C1302 1.350 . S
C1306 C1303 1.463 . S
C1306 N1310 1.427 . S
C1307 H1297 0.929 . S
C1307 C1305 1.433 . S
C1307 N1310 1.384 . S
C1308 H1299 0.929 . S
C1308 C1300 1.378 . S
C1308 C1303 1.350 . S
C1309 H1296 0.929 . S
C1309 C1301 1.433 . S
C1309 N1311 1.384 . S
N1310 C1306 1.427 . S
N1310 C1307 1.384 . S
N1311 C1303 1.427 . S
N1311 C1309 1.384 . S
H1312 C1318 0.930 . S
H1313 C1322 0.930 . S
H1314 C1327 0.929 . S
H1315 C1325 0.929 . S
H1316 C1320 0.929 . S
H1317 C1326 0.929 . S
C1318 H1312 0.930 . S
C1318 C1319 1.367 . S
C1318 C1326 1.378 . S
C1319 C1318 1.367 . S
C1319 C1327 1.433 . S
C1320 H1316 0.929 . S
C1320 C1322 1.378 . S
C1320 C1324 1.350 . S
C1321 C1324 1.463 . S
C1321 C1326 1.350 . S
C1321 N1329 1.427 . S
C1322 H1313 0.930 . S
C1322 C1320 1.378 . S
C1322 C1323 1.367 . S
C1323 C1322 1.367 . S
C1323 C1325 1.433 . S
C1324 C1320 1.350 . S
C1324 C1321 1.463 . S
C1324 N1328 1.427 . S
C1325 H1315 0.929 . S
C1325 C1323 1.433 . S
C1325 N1328 1.384 . S
C1326 H1317 0.929 . S
C1326 C1318 1.378 . S
C1326 C1321 1.350 . S
C1327 H1314 0.929 . S
C1327 C1319 1.433 . S
C1327 N1329 1.384 . S
N1328 C1324 1.427 . S
N1328 C1325 1.384 . S
N1329 C1321 1.427 . S
N1329 C1327 1.384 . S
H1330 C1336 0.930 . S
H1331 C1340 0.930 . S
H1332 C1345 0.929 . S
H1333 C1343 0.929 . S
H1334 C1338 0.929 . S
H1335 C1344 0.929 . S
C1336 H1330 0.930 . S
C1336 C1337 1.367 . S
C1336 C1344 1.378 . S
C1337 C1336 1.367 . S
C1337 C1345 1.433 . S
C1338 H1334 0.929 . S
C1338 C1340 1.378 . S
C1338 C1342 1.350 . S
C1339 C1342 1.463 . S
C1339 C1344 1.350 . S
C1339 N1347 1.427 . S
C1340 H1331 0.930 . S
C1340 C1338 1.378 . S
C1340 C1341 1.367 . S
C1341 C1340 1.367 . S
C1341 C1343 1.433 . S
C1342 C1338 1.350 . S
C1342 C1339 1.463 . S
C1342 N1346 1.427 . S
C1343 H1333 0.929 . S
C1343 C1341 1.433 . S
C1343 N1346 1.384 . S
C1344 H1335 0.929 . S
C1344 C1336 1.378 . S
C1344 C1339 1.350 . S
C1345 H1332 0.929 . S
C1345 C1337 1.433 . S
C1345 N1347 1.384 . S
N1346 C1342 1.427 . S
N1346 C1343 1.384 . S
N1347 C1339 1.427 . S
N1347 C1345 1.384 . S
H1348 C1354 0.930 . S
H1349 C1358 0.930 . S
H1350 C1363 0.929 . S
H1351 C1361 0.929 . S
H1352 C1356 0.929 . S
H1353 C1362 0.929 . S
C1354 H1348 0.930 . S
C1354 C1355 1.367 . S
C1354 C1362 1.378 . S
C1355 C1354 1.367 . S
C1355 C1363 1.433 . S
C1356 H1352 0.929 . S
C1356 C1358 1.378 . S
C1356 C1360 1.350 . S
C1357 C1360 1.463 . S
C1357 C1362 1.350 . S
C1357 N1365 1.427 . S
C1358 H1349 0.930 . S
C1358 C1356 1.378 . S
C1358 C1359 1.367 . S
C1359 C1358 1.367 . S
C1359 C1361 1.433 . S
C1360 C1356 1.350 . S
C1360 C1357 1.463 . S
C1360 N1364 1.427 . S
C1361 H1351 0.929 . S
C1361 C1359 1.433 . S
C1361 N1364 1.384 . S
C1362 H1353 0.929 . S
C1362 C1354 1.378 . S
C1362 C1357 1.350 . S
C1363 H1350 0.929 . S
C1363 C1355 1.433 . S
C1363 N1365 1.384 . S
N1364 C1360 1.427 . S
N1364 C1361 1.384 . S
N1365 C1357 1.427 . S
N1365 C1363 1.384 . S
H1366 C1372 0.930 . S
H1367 C1376 0.930 . S
H1368 C1381 0.929 . S
H1369 C1379 0.929 . S
H1370 C1374 0.929 . S
H1371 C1380 0.929 . S
C1372 H1366 0.930 . S
C1372 C1373 1.367 . S
C1372 C1380 1.378 . S
C1373 C1372 1.367 . S
C1373 C1381 1.433 . S
C1374 H1370 0.929 . S
C1374 C1376 1.378 . S
C1374 C1378 1.350 . S
C1375 C1378 1.463 . S
C1375 C1380 1.350 . S
C1375 N1383 1.427 . S
C1376 H1367 0.930 . S
C1376 C1374 1.378 . S
C1376 C1377 1.367 . S
C1377 C1376 1.367 . S
C1377 C1379 1.433 . S
C1378 C1374 1.350 . S
C1378 C1375 1.463 . S
C1378 N1382 1.427 . S
C1379 H1369 0.929 . S
C1379 C1377 1.433 . S
C1379 N1382 1.384 . S
C1380 H1371 0.929 . S
C1380 C1372 1.378 . S
C1380 C1375 1.350 . S
C1381 H1368 0.929 . S
C1381 C1373 1.433 . S
C1381 N1383 1.384 . S
N1382 C1378 1.427 . S
N1382 C1379 1.384 . S
N1383 C1375 1.427 . S
N1383 C1381 1.384 . S
H1384 C1390 0.930 . S
H1385 C1394 0.930 . S
H1386 C1399 0.929 . S
H1387 C1397 0.929 . S
H1388 C1392 0.929 . S
H1389 C1398 0.929 . S
C1390 H1384 0.930 . S
C1390 C1391 1.367 . S
C1390 C1398 1.378 . S
C1391 C1390 1.367 . S
C1391 C1399 1.433 . S
C1392 H1388 0.929 . S
C1392 C1394 1.378 . S
C1392 C1396 1.350 . S
C1393 C1396 1.463 . S
C1393 C1398 1.350 . S
C1393 N1401 1.427 . S
C1394 H1385 0.930 . S
C1394 C1392 1.378 . S
C1394 C1395 1.367 . S
C1395 C1394 1.367 . S
C1395 C1397 1.433 . S
C1396 C1392 1.350 . S
C1396 C1393 1.463 . S
C1396 N1400 1.427 . S
C1397 H1387 0.929 . S
C1397 C1395 1.433 . S
C1397 N1400 1.384 . S
C1398 H1389 0.929 . S
C1398 C1390 1.378 . S
C1398 C1393 1.350 . S
C1399 H1386 0.929 . S
C1399 C1391 1.433 . S
C1399 N1401 1.384 . S
N1400 C1396 1.427 . S
N1400 C1397 1.384 . S
N1401 C1393 1.427 . S
N1401 C1399 1.384 . S
H1402 C1408 0.930 . S
H1403 C1412 0.930 . S
H1404 C1417 0.929 . S
H1405 C1415 0.929 . S
H1406 C1410 0.929 . S
H1407 C1416 0.929 . S
C1408 H1402 0.930 . S
C1408 C1409 1.367 . S
C1408 C1416 1.378 . S
C1409 C1408 1.367 . S
C1409 C1417 1.433 . S
C1410 H1406 0.929 . S
C1410 C1412 1.378 . S
C1410 C1414 1.350 . S
C1411 C1414 1.463 . S
C1411 C1416 1.350 . S
C1411 N1419 1.427 . S
C1412 H1403 0.930 . S
C1412 C1410 1.378 . S
C1412 C1413 1.367 . S
C1413 C1412 1.367 . S
C1413 C1415 1.433 . S
C1414 C1410 1.350 . S
C1414 C1411 1.463 . S
C1414 N1418 1.427 . S
C1415 H1405 0.929 . S
C1415 C1413 1.433 . S
C1415 N1418 1.384 . S
C1416 H1407 0.929 . S
C1416 C1408 1.378 . S
C1416 C1411 1.350 . S
C1417 H1404 0.929 . S
C1417 C1409 1.433 . S
C1417 N1419 1.384 . S
N1418 C1414 1.427 . S
N1418 C1415 1.384 . S
N1419 C1411 1.427 . S
N1419 C1417 1.384 . S
H1420 C1426 0.930 . S
H1421 C1430 0.930 . S
H1422 C1435 0.929 . S
H1423 C1433 0.929 . S
H1424 C1428 0.929 . S
H1425 C1434 0.929 . S
C1426 H1420 0.930 . S
C1426 C1427 1.367 . S
C1426 C1434 1.378 . S
C1427 C1426 1.367 . S
C1427 C1435 1.433 . S
C1428 H1424 0.929 . S
C1428 C1430 1.378 . S
C1428 C1432 1.350 . S
C1429 C1432 1.463 . S
C1429 C1434 1.350 . S
C1429 N1437 1.427 . S
C1430 H1421 0.930 . S
C1430 C1428 1.378 . S
C1430 C1431 1.367 . S
C1431 C1430 1.367 . S
C1431 C1433 1.433 . S
C1432 C1428 1.350 . S
C1432 C1429 1.463 . S
C1432 N1436 1.427 . S
C1433 H1423 0.929 . S
C1433 C1431 1.433 . S
C1433 N1436 1.384 . S
C1434 H1425 0.929 . S
C1434 C1426 1.378 . S
C1434 C1429 1.350 . S
C1435 H1422 0.929 . S
C1435 C1427 1.433 . S
C1435 N1437 1.384 . S
N1436 C1432 1.427 . S
N1436 C1433 1.384 . S
N1437 C1429 1.427 . S
N1437 C1435 1.384 . S
H1438 C1444 0.930 . S
H1439 C1448 0.930 . S
H1440 C1453 0.929 . S
H1441 C1451 0.929 . S
H1442 C1446 0.929 . S
H1443 C1452 0.929 . S
C1444 H1438 0.930 . S
C1444 C1445 1.367 . S
C1444 C1452 1.378 . S
C1445 C1444 1.367 . S
C1445 C1453 1.433 . S
C1446 H1442 0.929 . S
C1446 C1448 1.378 . S
C1446 C1450 1.350 . S
C1447 C1450 1.463 . S
C1447 C1452 1.350 . S
C1447 N1455 1.427 . S
C1448 H1439 0.930 . S
C1448 C1446 1.378 . S
C1448 C1449 1.367 . S
C1449 C1448 1.367 . S
C1449 C1451 1.433 . S
C1450 C1446 1.350 . S
C1450 C1447 1.463 . S
C1450 N1454 1.427 . S
C1451 H1441 0.929 . S
C1451 C1449 1.433 . S
C1451 N1454 1.384 . S
C1452 H1443 0.929 . S
C1452 C1444 1.378 . S
C1452 C1447 1.350 . S
C1453 H1440 0.929 . S
C1453 C1445 1.433 . S
C1453 N1455 1.384 . S
N1454 C1450 1.427 . S
N1454 C1451 1.384 . S
N1455 C1447 1.427 . S
N1455 C1453 1.384 . S
H1456 C1462 0.930 . S
H1457 C1466 0.930 . S
H1458 C1471 0.929 . S
H1459 C1469 0.929 . S
H1460 C1464 0.929 . S
H1461 C1470 0.929 . S
C1462 H1456 0.930 . S
C1462 C1463 1.367 . S
C1462 C1470 1.378 . S
C1463 C1462 1.367 . S
C1463 C1471 1.433 . S
C1464 H1460 0.929 . S
C1464 C1466 1.378 . S
C1464 C1468 1.350 . S
C1465 C1468 1.463 . S
C1465 C1470 1.350 . S
C1465 N1473 1.427 . S
C1466 H1457 0.930 . S
C1466 C1464 1.378 . S
C1466 C1467 1.367 . S
C1467 C1466 1.367 . S
C1467 C1469 1.433 . S
C1468 C1464 1.350 . S
C1468 C1465 1.463 . S
C1468 N1472 1.427 . S
C1469 H1459 0.929 . S
C1469 C1467 1.433 . S
C1469 N1472 1.384 . S
C1470 H1461 0.929 . S
C1470 C1462 1.378 . S
C1470 C1465 1.350 . S
C1471 H1458 0.929 . S
C1471 C1463 1.433 . S
C1471 N1473 1.384 . S
N1472 C1468 1.427 . S
N1472 C1469 1.384 . S
N1473 C1465 1.427 . S
N1473 C1471 1.384 . S
H1474 C1480 0.930 . S
H1475 C1484 0.930 . S
H1476 C1489 0.929 . S
H1477 C1487 0.929 . S
H1478 C1482 0.929 . S
H1479 C1488 0.929 . S
C1480 H1474 0.930 . S
C1480 C1481 1.367 . S
C1480 C1488 1.378 . S
C1481 C1480 1.367 . S
C1481 C1489 1.433 . S
C1482 H1478 0.929 . S
C1482 C1484 1.378 . S
C1482 C1486 1.350 . S
C1483 C1486 1.463 . S
C1483 C1488 1.350 . S
C1483 N1491 1.427 . S
C1484 H1475 0.930 . S
C1484 C1482 1.378 . S
C1484 C1485 1.367 . S
C1485 C1484 1.367 . S
C1485 C1487 1.433 . S
C1486 C1482 1.350 . S
C1486 C1483 1.463 . S
C1486 N1490 1.427 . S
C1487 H1477 0.929 . S
C1487 C1485 1.433 . S
C1487 N1490 1.384 . S
C1488 H1479 0.929 . S
C1488 C1480 1.378 . S
C1488 C1483 1.350 . S
C1489 H1476 0.929 . S
C1489 C1481 1.433 . S
C1489 N1491 1.384 . S
N1490 C1486 1.427 . S
N1490 C1487 1.384 . S
N1491 C1483 1.427 . S
N1491 C1489 1.384 . S
H1492 C1498 0.930 . S
H1493 C1502 0.930 . S
H1494 C1507 0.929 . S
H1495 C1505 0.929 . S
H1496 C1500 0.929 . S
H1497 C1506 0.929 . S
C1498 H1492 0.930 . S
C1498 C1499 1.367 . S
C1498 C1506 1.378 . S
C1499 C1498 1.367 . S
C1499 C1507 1.433 . S
C1500 H1496 0.929 . S
C1500 C1502 1.378 . S
C1500 C1504 1.350 . S
C1501 C1504 1.463 . S
C1501 C1506 1.350 . S
C1501 N1509 1.427 . S
C1502 H1493 0.930 . S
C1502 C1500 1.378 . S
C1502 C1503 1.367 . S
C1503 C1502 1.367 . S
C1503 C1505 1.433 . S
C1504 C1500 1.350 . S
C1504 C1501 1.463 . S
C1504 N1508 1.427 . S
C1505 H1495 0.929 . S
C1505 C1503 1.433 . S
C1505 N1508 1.384 . S
C1506 H1497 0.929 . S
C1506 C1498 1.378 . S
C1506 C1501 1.350 . S
C1507 H1494 0.929 . S
C1507 C1499 1.433 . S
C1507 N1509 1.384 . S
N1508 C1504 1.427 . S
N1508 C1505 1.384 . S
N1509 C1501 1.427 . S
N1509 C1507 1.384 . S
H1510 C1516 0.930 . S
H1511 C1520 0.930 . S
H1512 C1525 0.929 . S
H1513 C1523 0.929 . S
H1514 C1518 0.929 . S
H1515 C1524 0.929 . S
C1516 H1510 0.930 . S
C1516 C1517 1.367 . S
C1516 C1524 1.378 . S
C1517 C1516 1.367 . S
C1517 C1525 1.433 . S
C1518 H1514 0.929 . S
C1518 C1520 1.378 . S
C1518 C1522 1.350 . S
C1519 C1522 1.463 . S
C1519 C1524 1.350 . S
C1519 N1527 1.427 . S
C1520 H1511 0.930 . S
C1520 C1518 1.378 . S
C1520 C1521 1.367 . S
C1521 C1520 1.367 . S
C1521 C1523 1.433 . S
C1522 C1518 1.350 . S
C1522 C1519 1.463 . S
C1522 N1526 1.427 . S
C1523 H1513 0.929 . S
C1523 C1521 1.433 . S
C1523 N1526 1.384 . S
C1524 H1515 0.929 . S
C1524 C1516 1.378 . S
C1524 C1519 1.350 . S
C1525 H1512 0.929 . S
C1525 C1517 1.433 . S
C1525 N1527 1.384 . S
N1526 C1522 1.427 . S
N1526 C1523 1.384 . S
N1527 C1519 1.427 . S
N1527 C1525 1.384 . S
H1528 C1534 0.930 . S
H1529 C1538 0.930 . S
H1530 C1543 0.929 . S
H1531 C1541 0.929 . S
H1532 C1536 0.929 . S
H1533 C1542 0.929 . S
C1534 H1528 0.930 . S
C1534 C1535 1.367 . S
C1534 C1542 1.378 . S
C1535 C1534 1.367 . S
C1535 C1543 1.433 . S
C1536 H1532 0.929 . S
C1536 C1538 1.378 . S
C1536 C1540 1.350 . S
C1537 C1540 1.463 . S
C1537 C1542 1.350 . S
C1537 N1545 1.427 . S
C1538 H1529 0.930 . S
C1538 C1536 1.378 . S
C1538 C1539 1.367 . S
C1539 C1538 1.367 . S
C1539 C1541 1.433 . S
C1540 C1536 1.350 . S
C1540 C1537 1.463 . S
C1540 N1544 1.427 . S
C1541 H1531 0.929 . S
C1541 C1539 1.433 . S
C1541 N1544 1.384 . S
C1542 H1533 0.929 . S
C1542 C1534 1.378 . S
C1542 C1537 1.350 . S
C1543 H1530 0.929 . S
C1543 C1535 1.433 . S
C1543 N1545 1.384 . S
N1544 C1540 1.427 . S
N1544 C1541 1.384 . S
N1545 C1537 1.427 . S
N1545 C1543 1.384 . S
H1546 C1552 0.930 . S
H1547 C1556 0.930 . S
H1548 C1561 0.929 . S
H1549 C1559 0.929 . S
H1550 C1554 0.929 . S
H1551 C1560 0.929 . S
C1552 H1546 0.930 . S
C1552 C1553 1.367 . S
C1552 C1560 1.378 . S
C1553 C1552 1.367 . S
C1553 C1561 1.433 . S
C1554 H1550 0.929 . S
C1554 C1556 1.378 . S
C1554 C1558 1.350 . S
C1555 C1558 1.463 . S
C1555 C1560 1.350 . S
C1555 N1563 1.427 . S
C1556 H1547 0.930 . S
C1556 C1554 1.378 . S
C1556 C1557 1.367 . S
C1557 C1556 1.367 . S
C1557 C1559 1.433 . S
C1558 C1554 1.350 . S
C1558 C1555 1.463 . S
C1558 N1562 1.427 . S
C1559 H1549 0.929 . S
C1559 C1557 1.433 . S
C1559 N1562 1.384 . S
C1560 H1551 0.929 . S
C1560 C1552 1.378 . S
C1560 C1555 1.350 . S
C1561 H1548 0.929 . S
C1561 C1553 1.433 . S
C1561 N1563 1.384 . S
N1562 C1558 1.427 . S
N1562 C1559 1.384 . S
N1563 C1555 1.427 . S
N1563 C1561 1.384 . S
H1564 C1570 0.930 . S
H1565 C1574 0.930 . S
H1566 C1579 0.929 . S
H1567 C1577 0.929 . S
H1568 C1572 0.929 . S
H1569 C1578 0.929 . S
C1570 H1564 0.930 . S
C1570 C1571 1.367 . S
C1570 C1578 1.378 . S
C1571 C1570 1.367 . S
C1571 C1579 1.433 . S
C1572 H1568 0.929 . S
C1572 C1574 1.378 . S
C1572 C1576 1.350 . S
C1573 C1576 1.463 . S
C1573 C1578 1.350 . S
C1573 N1581 1.427 . S
C1574 H1565 0.930 . S
C1574 C1572 1.378 . S
C1574 C1575 1.367 . S
C1575 C1574 1.367 . S
C1575 C1577 1.433 . S
C1576 C1572 1.350 . S
C1576 C1573 1.463 . S
C1576 N1580 1.427 . S
C1577 H1567 0.929 . S
C1577 C1575 1.433 . S
C1577 N1580 1.384 . S
C1578 H1569 0.929 . S
C1578 C1570 1.378 . S
C1578 C1573 1.350 . S
C1579 H1566 0.929 . S
C1579 C1571 1.433 . S
C1579 N1581 1.384 . S
N1580 C1576 1.427 . S
N1580 C1577 1.384 . S
N1581 C1573 1.427 . S
N1581 C1579 1.384 . S
H1582 C1588 0.930 . S
H1583 C1592 0.930 . S
H1584 C1597 0.929 . S
H1585 C1595 0.929 . S
H1586 C1590 0.929 . S
H1587 C1596 0.929 . S
C1588 H1582 0.930 . S
C1588 C1589 1.367 . S
C1588 C1596 1.378 . S
C1589 C1588 1.367 . S
C1589 C1597 1.433 . S
C1590 H1586 0.929 . S
C1590 C1592 1.378 . S
C1590 C1594 1.350 . S
C1591 C1594 1.463 . S
C1591 C1596 1.350 . S
C1591 N1599 1.427 . S
C1592 H1583 0.930 . S
C1592 C1590 1.378 . S
C1592 C1593 1.367 . S
C1593 C1592 1.367 . S
C1593 C1595 1.433 . S
C1594 C1590 1.350 . S
C1594 C1591 1.463 . S
C1594 N1598 1.427 . S
C1595 H1585 0.929 . S
C1595 C1593 1.433 . S
C1595 N1598 1.384 . S
C1596 H1587 0.929 . S
C1596 C1588 1.378 . S
C1596 C1591 1.350 . S
C1597 H1584 0.929 . S
C1597 C1589 1.433 . S
C1597 N1599 1.384 . S
N1598 C1594 1.427 . S
N1598 C1595 1.384 . S
N1599 C1591 1.427 . S
N1599 C1597 1.384 . S
C455 C6 1.533 . S
C459 C62 1.531 . S
C473 C20 1.534 . S
C477 C76 1.532 . S
C491 C90 1.523 . S
C495 C34 1.522 . S
C509 C104 1.533 . S
C513 C48 1.531 . S
C527 C118 1.523 . S
C531 C174 1.525 . S
C545 C132 1.530 . S
C549 C188 1.532 . S
C563 C202 1.527 . S
C567 C146 1.525 . S
C581 C160 1.533 . S
C585 C216 1.535 . S
C599 C286 1.538 . S
C603 C230 1.537 . S
C617 C300 1.530 . S
C621 C244 1.528 . S
C635 C258 1.534 . S
C639 C314 1.536 . S
C653 C328 1.525 . S
C657 C272 1.523 . S
C671 C342 1.521 . S
C675 C398 1.522 . S
C689 C412 1.534 . S
C693 C356 1.535 . S
C707 C426 1.538 . S
C711 C370 1.538 . S
C725 C384 1.523 . S
C729 C440 1.522 . S
C743 C9 1.614 . S
C747 C386 1.662 . S
C761 C120 1.660 . S
C765 C23 1.623 . S
C779 C37 1.618 . S
C783 C358 1.659 . S
C797 C51 1.617 . S
C801 C148 1.662 . S
C815 C414 1.660 . S
C819 C65 1.625 . S
C833 C204 1.661 . S
C837 C79 1.625 . S
C851 C93 1.624 . S
C855 C442 1.660 . S
C869 C107 1.617 . S
C873 C176 1.662 . S
C887 C274 1.662 . S
C891 C121 1.614 . S
C905 C135 1.625 . S
C909 C8 1.661 . S
C923 C246 1.659 . S
C927 C149 1.623 . S
C941 C163 1.623 . S
C945 C36 1.660 . S
C959 C302 1.662 . S
C963 C177 1.621 . S
C977 C191 1.625 . S
C981 C92 1.660 . S
C995 C330 1.662 . S
C999 C205 1.623 . S
C1013 C219 1.625 . S
C1017 C64 1.660 . S
C1031 C162 1.660 . S
C1035 C233 1.625 . S
C1049 C344 1.660 . S
C1053 C247 1.616 . S
C1067 C134 1.661 . S
C1071 C261 1.625 . S
C1085 C275 1.622 . S
C1089 C372 1.662 . S
C1103 C190 1.662 . S
C1107 C289 1.622 . S
C1121 C428 1.659 . S
C1125 C303 1.622 . S
C1139 C218 1.660 . S
C1143 C317 1.617 . S
C1157 C331 1.618 . S
C1161 C400 1.662 . S
C1175 C345 1.614 . S
C1179 C50 1.662 . S
C1193 C359 1.625 . S
C1197 C232 1.661 . S
C1211 C373 1.622 . S
C1215 C22 1.662 . S
C1229 C387 1.625 . S
C1233 C260 1.660 . S
C1247 C401 1.615 . S
C1251 C78 1.660 . S
C1265 C316 1.659 . S
C1269 C415 1.623 . S
C1283 C106 1.660 . S
C1287 C429 1.625 . S
C1301 C443 1.615 . S
C1305 C288 1.660 . S
C1319 C7 1.058 . S
C1323 C105 1.083 . S
C1337 C21 1.066 . S
C1341 C63 1.038 1_556 S
C1355 C35 1.031 1_554 S
C1359 C77 1.082 . S
C1373 C91 1.056 . S
C1377 C49 1.081 . S
C1391 C217 1.056 . S
C1395 C119 1.080 . S
C1409 C175 1.058 1_554 S
C1413 C133 1.059 . S
C1427 C189 1.082 . S
C1431 C147 1.030 1_556 S
C1445 C203 1.078 . S
C1449 C161 1.072 . S
C1463 C231 1.032 1_554 S
C1467 C329 1.084 . S
C1481 C287 1.068 . S
C1485 C245 1.062 . S
C1499 C301 1.063 . S
C1503 C259 1.067 . S
C1517 C315 1.033 1_556 S
C1521 C273 1.084 . S
C1535 C441 1.081 . S
C1539 C343 1.030 1_556 S
C1553 C357 1.062 . S
C1557 C399 1.067 . S
C1571 C371 1.072 . S
C1575 C413 1.078 . S
C1589 C385 1.059 . S
C1593 C427 1.046 1_554 S
