# Generated by pormake.
# Topology unn, (4)-cn, num edge types: 1
# Building blocks:
#     Node 0, Type 0, BuildingBlock: QUQFOY_clean_sbu_1, # of connection points: 4
#     Node 1, Type 0, BuildingBlock: QUQFOY_clean_sbu_1, # of connection points: 4
#     Node 2, Type 0, BuildingBlock: QUQFOY_clean_sbu_1, # of connection points: 4
#     Node 3, Type 0, BuildingBlock: QUQFOY_clean_sbu_1, # of connection points: 4
#     Node 4, Type 0, BuildingBlock: QUQFOY_clean_sbu_1, # of connection points: 4
#     Node 5, Type 0, BuildingBlock: QUQFOY_clean_sbu_1, # of connection points: 4
#     Node 6, Type 0, BuildingBlock: QUQFOY_clean_sbu_1, # of connection points: 4
#     Node 7, Type 0, BuildingBlock: QUQFOY_clean_sbu_1, # of connection points: 4
#     Node 8, Type 0, BuildingBlock: QUQFOY_clean_sbu_1, # of connection points: 4
#     Node 9, Type 0, BuildingBlock: QUQFOY_clean_sbu_1, # of connection points: 4
#     Node 10, Type 0, BuildingBlock: QUQFOY_clean_sbu_1, # of connection points: 4
#     Node 11, Type 0, BuildingBlock: QUQFOY_clean_sbu_1, # of connection points: 4
#     Node 12, Type 0, BuildingBlock: QUQFOY_clean_sbu_1, # of connection points: 4
#     Node 13, Type 0, BuildingBlock: QUQFOY_clean_sbu_1, # of connection points: 4
#     Node 14, Type 0, BuildingBlock: QUQFOY_clean_sbu_1, # of connection points: 4
#     Node 15, Type 0, BuildingBlock: QUQFOY_clean_sbu_1, # of connection points: 4
#     Node 16, Type 0, BuildingBlock: QUQFOY_clean_sbu_1, # of connection points: 4
#     Node 17, Type 0, BuildingBlock: QUQFOY_clean_sbu_1, # of connection points: 4
#     Edge 18, Type (0, 0), BuildingBlock: MIFKUJ_clean_linker_0, # of connection points: 2
#     Edge 19, Type (0, 0), BuildingBlock: MIFKUJ_clean_linker_0, # of connection points: 2
#     Edge 20, Type (0, 0), BuildingBlock: MIFKUJ_clean_linker_0, # of connection points: 2
#     Edge 21, Type (0, 0), BuildingBlock: MIFKUJ_clean_linker_0, # of connection points: 2
#     Edge 22, Type (0, 0), BuildingBlock: MIFKUJ_clean_linker_0, # of connection points: 2
#     Edge 23, Type (0, 0), BuildingBlock: MIFKUJ_clean_linker_0, # of connection points: 2
#     Edge 24, Type (0, 0), BuildingBlock: MIFKUJ_clean_linker_0, # of connection points: 2
#     Edge 25, Type (0, 0), BuildingBlock: MIFKUJ_clean_linker_0, # of connection points: 2
#     Edge 26, Type (0, 0), BuildingBlock: MIFKUJ_clean_linker_0, # of connection points: 2
#     Edge 27, Type (0, 0), BuildingBlock: MIFKUJ_clean_linker_0, # of connection points: 2
#     Edge 28, Type (0, 0), BuildingBlock: MIFKUJ_clean_linker_0, # of connection points: 2
#     Edge 29, Type (0, 0), BuildingBlock: MIFKUJ_clean_linker_0, # of connection points: 2
#     Edge 30, Type (0, 0), BuildingBlock: MIFKUJ_clean_linker_0, # of connection points: 2
#     Edge 31, Type (0, 0), BuildingBlock: MIFKUJ_clean_linker_0, # of connection points: 2
#     Edge 32, Type (0, 0), BuildingBlock: MIFKUJ_clean_linker_0, # of connection points: 2
#     Edge 33, Type (0, 0), BuildingBlock: MIFKUJ_clean_linker_0, # of connection points: 2
#     Edge 34, Type (0, 0), BuildingBlock: MIFKUJ_clean_linker_0, # of connection points: 2
#     Edge 35, Type (0, 0), BuildingBlock: MIFKUJ_clean_linker_0, # of connection points: 2
#     Edge 36, Type (0, 0), BuildingBlock: MIFKUJ_clean_linker_0, # of connection points: 2
#     Edge 37, Type (0, 0), BuildingBlock: MIFKUJ_clean_linker_0, # of connection points: 2
#     Edge 38, Type (0, 0), BuildingBlock: MIFKUJ_clean_linker_0, # of connection points: 2
#     Edge 39, Type (0, 0), BuildingBlock: MIFKUJ_clean_linker_0, # of connection points: 2
#     Edge 40, Type (0, 0), BuildingBlock: MIFKUJ_clean_linker_0, # of connection points: 2
#     Edge 41, Type (0, 0), BuildingBlock: MIFKUJ_clean_linker_0, # of connection points: 2
#     Edge 42, Type (0, 0), BuildingBlock: MIFKUJ_clean_linker_0, # of connection points: 2
#     Edge 43, Type (0, 0), BuildingBlock: MIFKUJ_clean_linker_0, # of connection points: 2
#     Edge 44, Type (0, 0), BuildingBlock: MIFKUJ_clean_linker_0, # of connection points: 2
#     Edge 45, Type (0, 0), BuildingBlock: MIFKUJ_clean_linker_0, # of connection points: 2
#     Edge 46, Type (0, 0), BuildingBlock: MIFKUJ_clean_linker_0, # of connection points: 2
#     Edge 47, Type (0, 0), BuildingBlock: MIFKUJ_clean_linker_0, # of connection points: 2
#     Edge 48, Type (0, 0), BuildingBlock: MIFKUJ_clean_linker_0, # of connection points: 2
#     Edge 49, Type (0, 0), BuildingBlock: MIFKUJ_clean_linker_0, # of connection points: 2
#     Edge 50, Type (0, 0), BuildingBlock: MIFKUJ_clean_linker_0, # of connection points: 2
#     Edge 51, Type (0, 0), BuildingBlock: MIFKUJ_clean_linker_0, # of connection points: 2
#     Edge 52, Type (0, 0), BuildingBlock: MIFKUJ_clean_linker_0, # of connection points: 2
#     Edge 53, Type (0, 0), BuildingBlock: MIFKUJ_clean_linker_0, # of connection points: 2
# Relax obj value: 0.134
# Max RMSD: 0.235
# Mean RMSD: 0.198
data_MOF--net-unn--node1-QUQFOY_clean_sbu_1--edge1-MIFKUJ_clean_linker_0
_symmetry_space_group_name_H-M    P1
_symmetry_Int_Tables_number       1
_symmetry_cell_setting            triclinic
loop_
_symmetry_equiv_pos_as_xyz
'x, y, z'
_cell_length_a     60.293327
_cell_length_b     62.114429
_cell_length_c     51.900745
_cell_angle_alpha  90.622334
_cell_angle_beta   87.48007
_cell_angle_gamma 121.92
loop_
_atom_site_label
_atom_site_type_symbol
_atom_site_fract_x
_atom_site_fract_y
_atom_site_fract_z
_atom_type_partial_charge
O0 O 0.02962 0.71348 0.25608 0.0
Cd1 Cd 0.99524 0.68281 0.24356 0.0
Cd2 Cd 0.98499 0.71792 0.2382 0.0
O3 O 0.01365 0.73728 0.26623 0.0
O4 O 0.996 0.65292 0.2557 0.0
O5 O 0.96759 0.66276 0.27083 0.0
C6 C 0.97723 0.64857 0.27197 0.0
C7 C 0.93934 0.69955 0.23802 0.0
C8 C 0.03205 0.73284 0.26735 0.0
C9 C 0.9943 0.69788 0.1908 0.0
O10 O 0.99907 0.71848 0.20111 0.0
O11 O 0.98818 0.67879 0.20492 0.0
O12 O 0.95526 0.72375 0.23463 0.0
O13 O 0.94923 0.68647 0.2446 0.0
O14 O 0.37905 0.2862 0.22025 0.0
Cd15 Cd 0.37608 0.31696 0.22862 0.0
Cd16 Cd 0.33049 0.28127 0.24563 0.0
O17 O 0.3368 0.25948 0.21746 0.0
O18 O 0.40328 0.34403 0.20489 0.0
O19 O 0.36059 0.32661 0.20139 0.0
C20 C 0.38415 0.34134 0.192 0.0
C21 C 0.30131 0.29582 0.25023 0.0
C22 C 0.3603 0.26499 0.21286 0.0
C23 C 0.36832 0.31132 0.2842 0.0
O24 O 0.35083 0.28865 0.27886 0.0
O25 O 0.37889 0.3282 0.26645 0.0
O26 O 0.2937 0.2726 0.256 0.0
O27 O 0.32431 0.30965 0.23923 0.0
O28 O 0.84095 0.10112 0.24069 0.0
Cd29 Cd 0.81231 0.06476 0.25143 0.0
Cd30 Cd 0.85243 0.06597 0.27031 0.0
O31 O 0.8744 0.09624 0.24289 0.0
O32 O 0.78113 0.05852 0.23324 0.0
O33 O 0.80177 0.03838 0.22446 0.0
C34 C 0.78352 0.04244 0.21938 0.0
C35 C 0.83857 0.02268 0.27387 0.0
C36 C 0.865 0.10943 0.23578 0.0
C37 C 0.81561 0.06438 0.30801 0.0
O38 O 0.84017 0.07534 0.30381 0.0
O39 O 0.80041 0.05549 0.28939 0.0
O40 O 0.86173 0.04023 0.28046 0.0
O41 O 0.82511 0.02986 0.26203 0.0
O42 O 0.03513 0.26347 0.7558 0.0
Cd43 Cd 1.00285 0.26346 0.74427 0.0
Cd44 Cd 0.98425 0.21644 0.74474 0.0
O45 O 1.01119 0.226 0.77446 0.0
O46 O 1.01116 0.29821 0.75209 0.0
O47 O 0.98004 0.26371 0.77306 0.0
C48 C 0.99382 0.28815 0.77085 0.0
C49 C 0.93821 0.19437 0.7441 0.0
C50 C 0.0331 0.24709 0.77173 0.0
C51 C 0.99701 0.24069 0.69462 0.0
O52 O 1.00007 0.22512 0.70729 0.0
O53 O 0.9926 0.25605 0.7066 0.0
O54 O 0.95042 0.18235 0.74358 0.0
O55 O 0.95188 0.2185 0.74809 0.0
O56 O 0.80719 0.70711 0.74092 0.0
Cd57 Cd 0.7795 0.7165 0.74467 0.0
Cd58 Cd 0.8132 0.75195 0.77165 0.0
O59 O 0.83904 0.74669 0.74622 0.0
O60 O 0.75707 0.70395 0.71413 0.0
O61 O 0.78719 0.74442 0.72042 0.0
C62 C 0.77017 0.72719 0.70583 0.0
C63 C 0.80251 0.78338 0.77921 0.0
C64 C 0.83142 0.724 0.73919 0.0
C65 C 0.77029 0.70834 0.79946 0.0
O66 O 0.79487 0.72392 0.79939 0.0
O67 O 0.75796 0.70591 0.77928 0.0
O68 O 0.82351 0.78592 0.78809 0.0
O69 O 0.78937 0.76464 0.76402 0.0
O70 O 0.35416 0.02339 0.75946 0.0
Cd71 Cd 0.38082 0.05128 0.73451 0.0
Cd72 Cd 0.34447 0.06544 0.73973 0.0
O73 O 0.32802 0.03732 0.76988 0.0
O74 O 0.41476 0.0539 0.7409 0.0
O75 O 0.4069 0.08429 0.74928 0.0
C76 C 0.42207 0.07566 0.75096 0.0
C77 C 0.36237 0.10983 0.73897 0.0
C78 C 0.33478 0.0211 0.7727 0.0
C79 C 0.35166 0.04594 0.68831 0.0
O80 O 0.33781 0.05138 0.70284 0.0
O81 O 0.37148 0.04643 0.69655 0.0
O82 O 0.3373 0.09407 0.74015 0.0
O83 O 0.37681 0.10042 0.74106 0.0
O84 O 0.69019 0.05453 0.60546 0.0
Cd85 Cd 0.65599 0.02597 0.59123 0.0
Cd86 Cd 0.65169 0.06368 0.58014 0.0
O87 O 0.6767 0.08093 0.61194 0.0
O88 O 0.6476 0.99471 0.61056 0.0
O89 O 0.62519 0.01353 0.61559 0.0
C90 C 0.62971 0.99657 0.62311 0.0
C91 C 0.60734 0.0476 0.57064 0.0
C92 C 0.69361 0.07477 0.61542 0.0
C93 C 0.66982 0.04276 0.53896 0.0
O94 O 0.67262 0.063 0.54834 0.0
O95 O 0.65739 0.0221 0.55192 0.0
O96 O 0.6246 0.07171 0.56891 0.0
O97 O 0.61478 0.0334 0.57995 0.0
O98 O 0.99541 0.64063 0.59328 0.0
Cd99 Cd 0.02352 0.63466 0.57847 0.0
Cd100 Cd 0.98629 0.58704 0.58114 0.0
O101 O 0.97266 0.60235 0.61096 0.0
O102 O 0.05926 0.66167 0.58984 0.0
O103 O 0.03602 0.62281 0.60648 0.0
C104 C 0.05666 0.64522 0.60672 0.0
C105 C 1.00545 0.56204 0.57625 0.0
C106 C 0.97738 0.62505 0.60907 0.0
C107 C 0.99933 0.60881 0.53029 0.0
O108 O 0.97975 0.59426 0.54515 0.0
O109 O 0.02125 0.62465 0.53977 0.0
O110 O 0.9805 0.55131 0.58108 0.0
O111 O 0.01934 0.58641 0.57722 0.0
O112 O 0.44914 0.35876 0.60949 0.0
Cd113 Cd 0.45176 0.38989 0.5922 0.0
Cd114 Cd 0.49866 0.3991 0.58078 0.0
O115 O 0.49106 0.37272 0.61069 0.0
O116 O 0.4176 0.38534 0.60341 0.0
O117 O 0.45539 0.41753 0.61567 0.0
C118 C 0.43016 0.40531 0.61717 0.0
C119 C 0.52598 0.44371 0.57647 0.0
C120 C 0.46728 0.35608 0.61721 0.0
C121 C 0.46424 0.38475 0.53775 0.0
O122 O 0.48247 0.3827 0.5463 0.0
O123 O 0.45173 0.39145 0.55263 0.0
O124 O 0.5352 0.42918 0.57279 0.0
O125 O 0.502 0.43309 0.58525 0.0
O126 O 0.69193 0.59484 0.09696 0.0
Cd127 Cd 0.6574 0.58947 0.08442 0.0
Cd128 Cd 0.64677 0.54392 0.082 0.0
O129 O 0.67477 0.55571 0.11099 0.0
O130 O 0.66035 0.62207 0.09303 0.0
O131 O 0.63156 0.58552 0.11232 0.0
C132 C 0.64253 0.60983 0.11097 0.0
C133 C 0.60065 0.51782 0.08235 0.0
C134 C 0.69374 0.5789 0.11038 0.0
C135 C 0.65738 0.5707 0.03314 0.0
O136 O 0.66217 0.55581 0.04479 0.0
O137 O 0.65003 0.58352 0.04598 0.0
O138 O 0.61508 0.5081 0.08034 0.0
O139 O 0.61228 0.54179 0.08693 0.0
O140 O 0.45527 0.03886 0.04514 0.0
Cd141 Cd 0.42805 0.04872 0.04746 0.0
Cd142 Cd 0.46134 0.08442 0.07695 0.0
O143 O 0.48766 0.07719 0.05438 0.0
O144 O 0.40952 0.03962 0.01432 0.0
O145 O 0.43862 0.07891 0.02564 0.0
C146 C 0.42372 0.06353 0.00846 0.0
C147 C 0.45499 0.11875 0.08386 0.0
C148 C 0.47967 0.05486 0.04579 0.0
C149 C 0.41426 0.04096 0.10225 0.0
O150 O 0.43854 0.05708 0.10426 0.0
O151 O 0.40397 0.03668 0.08043 0.0
O152 O 0.47409 0.1186 0.09418 0.0
O153 O 0.44183 0.10126 0.06747 0.0
O154 O 0.02888 0.35198 0.08174 0.0
Cd155 Cd 0.06057 0.38494 0.06748 0.0
Cd156 Cd 0.02462 0.3982 0.06616 0.0
O157 O 1.00457 0.36754 0.09379 0.0
O158 O 0.09177 0.38911 0.08471 0.0
O159 O 0.07468 0.41263 0.09265 0.0
C160 C 0.09099 0.40621 0.09847 0.0
C161 C 0.0389 0.4419 0.06513 0.0
C162 C 1.00906 0.3495 0.09427 0.0
C163 C 0.04475 0.38849 0.01637 0.0
O164 O 0.02564 0.38757 0.02885 0.0
O165 O 0.06388 0.39058 0.02809 0.0
O166 O 0.01449 0.42461 0.0628 0.0
O167 O 0.05421 0.43435 0.0713 0.0
O168 O 0.36525 0.38895 0.92759 0.0
Cd169 Cd 0.3342 0.35761 0.91192 0.0
Cd170 Cd 0.31466 0.38472 0.91925 0.0
O171 O 0.33936 0.3968 0.95124 0.0
O172 O 0.34237 0.33122 0.91861 0.0
O173 O 0.31044 0.33323 0.93914 0.0
C174 C 0.3256 0.32432 0.93792 0.0
C175 C 0.26884 0.36023 0.91542 0.0
C176 C 0.36151 0.3988 0.94755 0.0
C177 C 0.33071 0.38131 0.86679 0.0
O178 O 0.33292 0.39763 0.88317 0.0
O179 O 0.32569 0.35974 0.87441 0.0
O180 O 0.28077 0.38429 0.91996 0.0
O181 O 0.28248 0.34975 0.91606 0.0
O182 O 0.71069 0.94641 0.90064 0.0
Cd183 Cd 0.6994 0.97126 0.90899 0.0
Cd184 Cd 0.65903 0.93479 0.9323 0.0
O185 O 0.66918 0.91535 0.90352 0.0
O186 O 0.70659 0.99708 0.88131 0.0
O187 O 0.66873 0.96092 0.88781 0.0
C188 C 0.68271 0.98179 0.87491 0.0
C189 C 0.62939 0.94896 0.941 0.0
C190 C 0.69317 0.92341 0.89667 0.0
C191 C 0.69686 0.96804 0.96623 0.0
O192 O 0.6818 0.94436 0.96298 0.0
O193 O 0.70326 0.98337 0.9472 0.0
O194 O 0.62178 0.92532 0.94429 0.0
O195 O 0.6524 0.96356 0.93061 0.0
O196 O 0.16268 0.76572 0.89788 0.0
Cd197 Cd 0.13649 0.72727 0.89879 0.0
Cd198 Cd 0.16718 0.72906 0.93231 0.0
O199 O 0.19504 0.76272 0.91135 0.0
O200 O 0.11685 0.71958 0.86683 0.0
O201 O 0.1445 0.70721 0.87375 0.0
C202 C 0.12895 0.70868 0.85853 0.0
C203 C 0.16125 0.68913 0.94052 0.0
C204 C 0.18696 0.77587 0.90112 0.0
C205 C 0.11707 0.7198 0.95224 0.0
O206 O 0.14127 0.73209 0.95677 0.0
O207 O 0.10985 0.71221 0.92957 0.0
O208 O 0.17859 0.70907 0.95239 0.0
O209 O 0.15021 0.69261 0.92154 0.0
O210 O 0.3644 0.9539 0.42082 0.0
Cd211 Cd 0.33 0.94765 0.40726 0.0
Cd212 Cd 0.32234 0.90294 0.39825 0.0
O213 O 0.35085 0.91368 0.42682 0.0
O214 O 0.32659 0.97564 0.42182 0.0
O215 O 0.30057 0.93535 0.43363 0.0
C216 C 0.30786 0.95878 0.43678 0.0
C217 C 0.27699 0.87302 0.39659 0.0
C218 C 0.36786 0.93719 0.43034 0.0
C219 C 0.33267 0.9351 0.35292 0.0
O220 O 0.33638 0.91832 0.36181 0.0
O221 O 0.32633 0.94733 0.36813 0.0
O222 O 0.29379 0.8662 0.39293 0.0
O223 O 0.28579 0.89588 0.40427 0.0
O224 O 0.12938 0.37146 0.38713 0.0
Cd225 Cd 0.09991 0.37701 0.39927 0.0
Cd226 Cd 0.13618 0.40973 0.42765 0.0
O227 O 0.16175 0.40902 0.39814 0.0
O228 O 0.07463 0.36259 0.37126 0.0
O229 O 0.09878 0.40363 0.37943 0.0
C230 C 0.08271 0.38569 0.36478 0.0
C231 C 0.12587 0.44011 0.44185 0.0
C232 C 0.15363 0.38836 0.38579 0.0
C233 C 0.09444 0.36237 0.45279 0.0
O234 O 0.1189 0.37859 0.45221 0.0
O235 O 0.08088 0.36123 0.43417 0.0
O236 O 0.14645 0.44092 0.44953 0.0
O237 O 0.11291 0.42384 0.42435 0.0
O238 O 0.68512 0.68339 0.42368 0.0
Cd239 Cd 0.71703 0.71469 0.4075 0.0
Cd240 Cd 0.68383 0.73068 0.4058 0.0
O241 O 0.665 0.7029 0.43677 0.0
O242 O 0.74838 0.71857 0.42407 0.0
O243 O 0.73254 0.74322 0.43153 0.0
C244 C 0.74852 0.73639 0.43734 0.0
C245 C 0.70233 0.77517 0.40091 0.0
C246 C 0.66745 0.68357 0.43775 0.0
C247 C 0.69886 0.71504 0.35683 0.0
O248 O 0.6809 0.71593 0.36966 0.0
O249 O 0.71855 0.71772 0.36795 0.0
O250 O 0.67724 0.75954 0.40114 0.0
O251 O 0.71628 0.76589 0.40638 0.0
H252 H 0.02278 0.73676 0.15634 0.0
H253 H 0.03131 0.73349 0.11057 0.0
H254 H 0.97912 0.65213 0.11563 0.0
H255 H 0.97143 0.65527 0.16177 0.0
H256 H 0.02198 0.66186 0.0943 0.0
H257 H 0.96552 0.6908 0.07771 0.0
H258 H 0.94624 0.71726 0.08191 0.0
H259 H 0.01956 0.78289 0.05673 0.0
H260 H 0.03937 0.75694 0.05254 0.0
H261 H 0.06485 0.70152 0.94893 0.0
H262 H 0.03235 0.68971 0.98474 0.0
H263 H 0.09246 0.71089 0.03912 0.0
H264 H 0.12494 0.72287 0.0037 0.0
H265 H 0.03191 0.72025 0.02406 0.0
H266 H 0.0669 0.66796 0.08843 0.0
H267 H 0.08241 0.63848 0.08325 0.0
H268 H 0.04551 0.61426 0.01081 0.0
H269 H 0.02943 0.64334 0.01567 0.0
C270 C 0.0128 0.71823 0.14759 0.0
C271 C 0.99677 0.69625 0.16261 0.0
C272 C 0.01747 0.71638 0.12134 0.0
C273 C 1.00567 0.69255 0.10954 0.0
C274 C 0.98849 0.67069 0.12431 0.0
C275 C 0.98418 0.6725 0.15066 0.0
C276 C 0.01408 0.69038 0.08289 0.0
C277 C 0.02378 0.67438 0.07884 0.0
C278 C 0.01576 0.70615 0.06244 0.0
C279 C 1.00395 0.72189 0.06489 0.0
C280 C 0.97758 0.7109 0.07321 0.0
C281 C 0.96655 0.72581 0.07557 0.0
C282 C 0.98167 0.75172 0.06966 0.0
C283 C 1.00785 0.7628 0.06129 0.0
C284 C 0.01897 0.74799 0.05884 0.0
C285 C 0.0711 0.70364 0.96854 0.0
C286 C 0.09745 0.7132 0.97355 0.0
C287 C 0.05253 0.69686 0.9889 0.0
C288 C 0.06002 0.69912 0.01445 0.0
C289 C 0.08627 0.70865 0.01947 0.0
C290 C 0.10484 0.7157 -0.00079 0.0
C291 C 0.04095 0.69284 0.03625 0.0
C292 C 0.02937 0.70727 0.03935 0.0
C293 C 0.03705 0.67525 0.05567 0.0
C294 C 0.04705 0.65799 0.05238 0.0
C295 C 0.062 0.6563 0.07142 0.0
C296 C 0.07091 0.63966 0.06853 0.0
C297 C 0.06497 0.62454 0.04671 0.0
C298 C 0.05016 0.62606 0.02767 0.0
C299 C 0.04119 0.64267 0.03045 0.0
H300 H 0.07181 0.61162 0.0446 0.0
H301 H 0.97309 0.76322 0.07153 0.0
H302 H 0.36539 0.31679 0.94728 0.0
H303 H 0.38234 0.31962 0.98993 0.0
H304 H 0.31326 0.31365 0.02528 0.0
H305 H 0.296 0.31059 0.98291 0.0
H306 H 0.36594 0.36288 0.02914 0.0
H307 H 0.32156 0.27083 0.03867 0.0
H308 H 0.31298 0.22847 0.0276 0.0
H309 H 0.39351 0.25417 0.0381 0.0
H310 H 0.40271 0.29686 0.04865 0.0
H311 H 0.35293 0.35121 0.16463 0.0
H312 H 0.35266 0.3529 0.11763 0.0
H313 H 0.42305 0.35083 0.11132 0.0
H314 H 0.42399 0.35007 0.15834 0.0
H315 H 0.3819 0.3108 0.08818 0.0
H316 H 0.42398 0.39821 0.08905 0.0
H317 H 0.43692 0.44221 0.09788 0.0
H318 H 0.36612 0.42877 0.06636 0.0
H319 H 0.35231 0.38445 0.05794 0.0
C320 C 0.35315 0.31476 0.96414 0.0
C321 C 0.3296 0.31411 0.96168 0.0
C322 C 0.36301 0.31657 0.9885 0.0
C323 C 0.34927 0.3174 0.01056 0.0
C324 C 0.32422 0.3133 0.00834 0.0
C325 C 0.3143 0.31136 0.98408 0.0
C326 C 0.36247 0.32701 0.03507 0.0
C327 C 0.36911 0.35147 0.04239 0.0
C328 C 0.3684 0.31269 0.0511 0.0
C329 C 0.36293 0.2872 0.04395 0.0
C330 C 0.33755 0.2676 0.03814 0.0
C331 C 0.33255 0.24348 0.03207 0.0
C332 C 0.35272 0.23866 0.03199 0.0
C333 C 0.37793 0.25795 0.03801 0.0
C334 C 0.38306 0.28212 0.04399 0.0
C335 C 0.36898 0.35227 0.15323 0.0
C336 C 0.3884 0.35041 0.16507 0.0
C337 C 0.36881 0.35322 0.12639 0.0
C338 C 0.3878 0.35188 0.11105 0.0
C339 C 0.40837 0.35206 0.12286 0.0
C340 C 0.40891 0.35173 0.14973 0.0
C341 C 0.38347 0.34604 0.08337 0.0
C342 C 0.3789 0.32246 0.0751 0.0
C343 C 0.37968 0.36135 0.06638 0.0
C344 C 0.38702 0.3877 0.07293 0.0
C345 C 0.41086 0.40438 0.08444 0.0
C346 C 0.41843 0.42949 0.08929 0.0
C347 C 0.40236 0.43829 0.0827 0.0
C348 C 0.37859 0.42194 0.07143 0.0
C349 C 0.37089 0.39678 0.0666 0.0
H350 H 0.40834 0.45779 0.0863 0.0
H351 H 0.34878 0.21995 0.02738 0.0
H352 H 0.78466 0.00872 0.18619 0.0
H353 H 0.76519 0.99682 0.14415 0.0
H354 H 0.72783 0.03908 0.15872 0.0
H355 H 0.747 0.05093 0.201 0.0
H356 H 0.69716 0.99487 0.13099 0.0
H357 H 0.78305 0.06808 0.1282 0.0
H358 H 0.82961 0.09298 0.13824 0.0
H359 H 0.84337 0.04187 0.09427 0.0
H360 H 0.79662 0.01608 0.08475 0.0
H361 H 0.72683 0.01744 0.98149 0.0
H362 H 0.7378 0.0327 0.02562 0.0
H363 H 0.69581 0.95538 0.05407 0.0
H364 H 0.68464 0.93999 0.01037 0.0
H365 H 0.76525 0.02485 0.05983 0.0
H366 H 0.66471 0.95144 0.11107 0.0
H367 H 0.61789 0.9291 0.1019 0.0
H368 H 0.6335 0.98768 0.04759 0.0
H369 H 0.68038 0.0106 0.05672 0.0
C370 C 0.77184 0.01503 0.18073 0.0
C371 C 0.76772 0.03113 0.19665 0.0
C372 C 0.76075 1.00822 0.15672 0.0
C373 C 0.74561 0.01757 0.14826 0.0
C374 C 0.73964 0.03186 0.16495 0.0
C375 C 0.75067 0.03865 0.18903 0.0
C376 C 0.73847 0.01463 0.12109 0.0
C377 C 0.71195 1.0014 0.11538 0.0
C378 C 0.75795 0.02419 0.10085 0.0
C379 C 0.78625 0.04002 0.10593 0.0
C380 C 0.79595 0.06203 0.12082 0.0
C381 C 0.82239 0.07631 0.12643 0.0
C382 C 0.83947 0.06906 0.11685 0.0
C383 C 0.83012 0.04747 0.10167 0.0
C384 C 0.80363 0.03298 0.09621 0.0
C385 C 0.71998 1.00373 -0.00287 0.0
C386 C 0.70485 0.97754 0.99245 0.0
C387 C 0.72623 0.01245 0.0223 0.0
C388 C 0.71717 0.99512 0.04305 0.0
C389 C 0.70246 0.96903 0.03835 0.0
C390 C 0.69631 0.96033 0.01331 0.0
C391 C 0.72387 1.00398 0.06969 0.0
C392 C 0.75039 0.01848 0.07536 0.0
C393 C 0.70437 0.99616 0.08978 0.0
C394 C 0.67611 0.98264 0.08446 0.0
C395 C 0.65815 0.95964 0.09728 0.0
C396 C 0.6316 0.94686 0.09207 0.0
C397 C 0.62274 0.95693 0.07414 0.0
C398 C 0.6404 0.97985 0.06142 0.0
C399 C 0.66696 0.99272 0.06658 0.0
H400 H 0.60218 0.94699 0.07012 0.0
H401 H 0.85995 0.08017 0.12118 0.0
H402 H 0.71521 0.08369 0.52125 0.0
H403 H 0.74282 0.08634 0.48442 0.0
H404 H 0.68615 0.00862 0.46581 0.0
H405 H 0.65897 1.00538 0.50405 0.0
H406 H 0.73217 0.01602 0.45967 0.0
H407 H 0.69368 0.06153 0.43163 0.0
H408 H 0.68068 0.09308 0.43381 0.0
H409 H 0.76134 0.15333 0.43512 0.0
H410 H 0.77482 0.1221 0.43329 0.0
H411 H 0.76629 0.02884 0.32448 0.0
H412 H 0.74586 0.02428 0.36732 0.0
H413 H 0.81823 0.08701 0.39398 0.0
H414 H 0.83919 0.09167 0.35094 0.0
H415 H 0.76787 0.08806 0.39741 0.0
H416 H 0.80461 0.03904 0.42029 0.0
H417 H 0.81435 1.00528 0.41592 0.0
H418 H 0.73225 0.94869 0.41992 0.0
H419 H 0.72192 0.9821 0.42384 0.0
C420 C 0.70844 0.06723 0.50915 0.0
C421 C 0.6848 0.04443 0.51519 0.0
C422 C 0.72425 0.06878 0.48807 0.0
C423 C 0.7163 0.04787 0.472 0.0
C424 C 0.69261 0.02502 0.47793 0.0
C425 C 0.67705 0.02323 0.49957 0.0
C426 C 0.733 0.04997 0.44924 0.0
C427 C 0.7397 0.0316 0.44588 0.0
C428 C 0.74328 0.07061 0.43154 0.0
C429 C 0.73524 0.08945 0.43257 0.0
C430 C 0.70864 0.08149 0.43257 0.0
C431 C 0.70118 0.09932 0.43371 0.0
C432 C 0.72017 0.12519 0.43467 0.0
C433 C 0.74665 0.13328 0.43442 0.0
C434 C 0.75421 0.11553 0.4333 0.0
C435 C 0.77799 0.04155 0.33949 0.0
C436 C 0.80424 0.06083 0.33439 0.0
C437 C 0.76637 0.03867 0.36396 0.0
C438 C 0.78071 0.05505 0.38365 0.0
C439 C 0.80708 0.07402 0.37891 0.0
C440 C 0.81893 0.0767 0.35442 0.0
C441 C 0.76686 0.05416 0.40795 0.0
C442 C 0.76053 0.07268 0.41144 0.0
C443 C 0.75637 0.03329 0.42523 0.0
C444 C 0.76251 0.01315 0.4222 0.0
C445 C 0.78861 0.01943 0.41994 0.0
C446 C 0.79422 1.00032 0.41767 0.0
C447 C 0.77394 0.97486 0.41778 0.0
C448 C 0.74795 0.96842 0.42002 0.0
C449 C 0.74219 0.98743 0.42224 0.0
H450 H 0.77835 0.96011 0.41597 0.0
H451 H 0.71435 0.13896 0.43556 0.0
H452 H 0.03433 0.64042 0.4924 0.0
H453 H 0.02723 0.63881 0.44612 0.0
H454 H 0.9506 0.57154 0.45849 0.0
H455 H 0.95749 0.57285 0.50455 0.0
H456 H 0.97661 0.56979 0.41317 0.0
H457 H 0.95408 0.62589 0.45643 0.0
H458 H 0.96317 0.66182 0.48436 0.0
H459 H 0.02886 0.71252 0.43431 0.0
H460 H 0.02017 0.67688 0.4061 0.0
H461 H 0.93761 0.63407 0.30827 0.0
H462 H 0.93481 0.61638 0.3509 0.0
H463 H 0.99893 0.60693 0.32872 0.0
H464 H 1.00155 0.62413 0.28593 0.0
H465 H 0.97594 0.64395 0.3797 0.0
H466 H 0.99963 0.5649 0.37136 0.0
H467 H 0.98929 0.52838 0.34388 0.0
H468 H 0.91754 0.52168 0.32397 0.0
H469 H 0.92725 0.55792 0.35161 0.0
C470 C 0.0161 0.62514 0.48521 0.0
C471 C 0.9963 0.60704 0.50216 0.0
C472 C 0.01211 0.62421 0.45882 0.0
C473 C 0.9883 0.60517 0.44906 0.0
C474 C 0.96909 0.58634 0.46571 0.0
C475 C 0.97301 0.5873 0.49205 0.0
C476 C 0.98228 0.60629 0.42204 0.0
C477 C 0.97649 0.58597 0.4057 0.0
C478 C 0.98163 0.62719 0.41265 0.0
C479 C 0.9866 0.64871 0.4293 0.0
C480 C 0.97051 0.6447 0.45144 0.0
C481 C 0.97556 0.66502 0.46728 0.0
C482 C 0.99658 0.68945 0.4611 0.0
C483 C 0.01253 0.69362 0.43901 0.0
C484 C 1.00753 0.67338 0.42307 0.0
C485 C 0.95047 0.62735 0.31214 0.0
C486 C 0.97017 0.63098 0.29399 0.0
C487 C 0.94886 0.61727 0.33651 0.0
C488 C 0.96689 0.61069 0.34304 0.0
C489 C 0.98473 0.61176 0.32404 0.0
C490 C 0.98625 0.62169 0.29958 0.0
C491 C 0.9703 0.60746 0.37046 0.0
C492 C 0.97584 0.62759 0.38698 0.0
C493 C 0.9705 0.5863 0.3799 0.0
C494 C 0.96432 0.5643 0.36339 0.0
C495 C 0.9816 0.55558 0.36121 0.0
C496 C 0.97585 0.53493 0.34558 0.0
C497 C 0.95281 0.52277 0.33212 0.0
C498 C 0.93543 0.53119 0.33432 0.0
C499 C 0.94108 0.55182 0.34993 0.0
H500 H 0.94841 0.50679 0.32003 0.0
H501 H 1.00049 0.70515 0.47341 0.0
H502 H 0.46769 0.35052 0.50725 0.0
H503 H 0.45117 0.33741 0.46404 0.0
H504 H 0.42826 0.3926 0.46421 0.0
H505 H 0.44334 0.40461 0.50793 0.0
H506 H 0.39103 0.35163 0.44758 0.0
H507 H 0.48344 0.39901 0.42727 0.0
H508 H 0.52927 0.41087 0.43024 0.0
H509 H 0.50852 0.33625 0.40657 0.0
H510 H 0.46249 0.32383 0.40377 0.0
H511 H 0.38656 0.35687 0.30739 0.0
H512 H 0.40121 0.36804 0.35161 0.0
H513 H 0.38405 0.29222 0.36495 0.0
H514 H 0.36848 0.28061 0.32109 0.0
H515 H 0.44053 0.34204 0.37421 0.0
H516 H 0.3471 0.29618 0.39472 0.0
H517 H 0.30187 0.28627 0.39262 0.0
H518 H 0.32658 0.36218 0.41518 0.0
H519 H 0.37209 0.37272 0.41688 0.0
C520 C 0.45936 0.35999 0.49789 0.0
C521 C 0.45674 0.37853 0.51083 0.0
C522 C 0.45003 0.35258 0.47316 0.0
C523 C 0.43871 0.36421 0.46068 0.0
C524 C 0.43678 0.38325 0.47344 0.0
C525 C 0.44548 0.39017 0.49837 0.0
C526 C 0.42769 0.3558 0.43487 0.0
C527 C 0.40208 0.34992 0.43148 0.0
C528 C 0.4418 0.35298 0.41394 0.0
C529 C 0.46948 0.36042 0.41556 0.0
C530 C 0.48862 0.38507 0.42289 0.0
C531 C 0.51464 0.39191 0.4245 0.0
C532 C 0.52179 0.37431 0.41867 0.0
C533 C 0.50295 0.34985 0.41112 0.0
C534 C 0.4769 0.34292 0.40949 0.0
C535 C 0.38577 0.34257 0.31983 0.0
C536 C 0.37652 0.31792 0.31089 0.0
C537 C 0.39401 0.34893 0.34502 0.0
C538 C 0.39357 0.33088 0.36136 0.0
C539 C 0.38434 0.30628 0.35253 0.0
C540 C 0.37547 0.29971 0.32757 0.0
C541 C 0.40422 0.33822 0.38716 0.0
C542 C 0.42969 0.34388 0.39043 0.0
C543 C 0.3902 0.34129 0.40784 0.0
C544 C 0.36308 0.33533 0.40556 0.0
C545 C 0.343 0.3109 0.39877 0.0
C546 C 0.31727 0.30512 0.39783 0.0
C547 C 0.31135 0.32356 0.40386 0.0
C548 C 0.33118 0.34789 0.41063 0.0
C549 C 0.35695 0.35379 0.41151 0.0
H550 H 0.29141 0.31903 0.40316 0.0
H551 H 0.54194 0.37964 0.41993 0.0
H552 H 0.96688 0.27261 0.81725 0.0
H553 H 0.97521 0.29854 0.85533 0.0
H554 H 0.02786 0.36588 0.80998 0.0
H555 H 0.02013 0.33989 0.77179 0.0
H556 H 0.05151 0.36344 0.84962 0.0
H557 H 0.97085 0.35727 0.83875 0.0
H558 H 0.92395 0.33663 0.83061 0.0
H559 H 0.90425 0.2909 0.8992 0.0
H560 H 0.95105 0.31099 0.90759 0.0
H561 H 0.02272 0.40582 0.98506 0.0
H562 H 0.01603 0.39842 0.93902 0.0
H563 H 0.05646 0.35812 0.93836 0.0
H564 H 0.06427 0.36661 0.98432 0.0
H565 H 0.98763 0.35623 0.91782 0.0
H566 H 0.08045 0.35698 0.87996 0.0
H567 H 0.12779 0.3807 0.88681 0.0
H568 H 0.12439 0.44481 0.91281 0.0
H569 H 0.07707 0.42153 0.90578 0.0
C570 C 0.9796 0.29301 0.81515 0.0
C571 C 0.99308 0.30418 0.79159 0.0
C572 C 0.98432 0.30785 0.83698 0.0
C573 C 1.00223 0.33416 0.83551 0.0
C574 C 0.01409 0.3456 0.81154 0.0
C575 C 1.00953 0.33072 0.78972 0.0
C576 C 1.01084 0.34897 0.85948 0.0
C577 C 0.0376 0.3622 0.86443 0.0
C578 C 0.99275 0.3477 0.87859 0.0
C579 C 0.96451 0.33559 0.87373 0.0
C580 C 0.95653 0.3427 0.85202 0.0
C581 C 0.92996 0.33111 0.84737 0.0
C582 C 0.91114 0.31245 0.86436 0.0
C583 C 0.91885 0.30537 0.88607 0.0
C584 C 0.94541 0.31689 0.8908 0.0
C585 C 0.03061 0.3958 0.97494 0.0
C586 C 0.04388 0.38664 0.98814 0.0
C587 C 0.02675 0.39156 0.94866 0.0
C588 C 0.03574 0.37775 0.93518 0.0
C589 C 0.04979 0.36928 0.9482 0.0
C590 C 0.05415 0.37401 0.97447 0.0
C591 C 0.02825 0.37016 0.90825 0.0
C592 C 1.00166 0.35809 0.90282 0.0
C593 C 0.0466 0.3731 0.88849 0.0
C594 C 0.07515 0.3874 0.89246 0.0
C595 C 0.08982 0.37617 0.88698 0.0
C596 C 0.11665 0.38954 0.89094 0.0
C597 C 0.12909 0.41424 0.90029 0.0
C598 C 0.11472 0.42565 0.90564 0.0
C599 C 0.08788 0.41235 0.9017 0.0
H600 H 0.14986 0.42457 0.90336 0.0
H601 H 0.89057 0.30349 0.86072 0.0
H602 H 0.6949 0.5688 0.00389 0.0
H603 H 0.71072 0.5864 0.96018 0.0
H604 H 0.64885 0.60143 0.95602 0.0
H605 H 0.63339 0.58458 -5e-05 0.0
H606 H 0.66643 0.58297 0.9064 0.0
H607 H 0.69467 0.64673 0.97499 0.0
H608 H 0.71381 0.66301 0.01716 0.0
H609 H 0.7835 0.66499 0.99118 0.0
H610 H 0.76451 0.64826 0.94899 0.0
H611 H 0.71794 0.68253 0.81284 0.0
H612 H 0.69584 0.65438 0.85031 0.0
H613 H 0.7699 0.66764 0.87369 0.0
H614 H 0.79208 0.69662 0.83718 0.0
H615 H 0.7453 0.66933 0.9133 0.0
H616 H 0.72191 0.611 0.84401 0.0
H617 H 0.70438 0.59242 0.80192 0.0
H618 H 0.62871 0.57732 0.82761 0.0
H619 H 0.64589 0.59615 0.86976 0.0
C620 C 0.68422 0.57514 0.99334 0.0
C621 C 0.66315 0.57565 0.00527 0.0
C622 C 0.69324 0.58513 0.96844 0.0
C623 C 0.68091 0.59519 0.9551 0.0
C624 C 0.65845 0.59359 0.96608 0.0
C625 C 0.64978 0.58414 0.99116 0.0
C626 C 0.69386 0.61109 0.93188 0.0
C627 C 0.68357 0.60192 0.90773 0.0
C628 C 0.71649 0.63549 0.93385 0.0
C629 C 0.72807 0.64598 0.959 0.0
C630 C 0.71397 0.65042 0.97837 0.0
C631 C 0.7248 0.65976 0.00225 0.0
C632 C 0.74982 0.66496 0.00688 0.0
C633 C 0.7641 0.66091 0.98759 0.0
C634 C 0.75332 0.6515 0.9637 0.0
C635 C 0.72944 0.67946 0.82607 0.0
C636 C 0.7567 0.69179 0.82218 0.0
C637 C 0.7168 0.66322 0.84734 0.0
C638 C 0.73115 0.65854 0.86461 0.0
C639 C 0.75839 0.67095 0.86068 0.0
C640 C 0.77106 0.68754 0.8398 0.0
C641 C 0.71808 0.64138 0.88727 0.0
C642 C 0.72829 0.65035 0.91158 0.0
C643 C 0.6957 0.61662 0.88524 0.0
C644 C 0.68526 0.60522 0.85995 0.0
C645 C 0.70158 0.6039 0.84062 0.0
C646 C 0.6917 0.59329 0.81676 0.0
C647 C 0.66546 0.58376 0.81207 0.0
C648 C 0.64904 0.58475 0.83126 0.0
C649 C 0.65883 0.59536 0.85515 0.0
H650 H 0.65785 0.57556 0.79359 0.0
H651 H 0.75818 0.67219 0.02538 0.0
H652 H 0.39284 0.03767 0.96833 0.0
H653 H 0.40206 0.05046 0.92272 0.0
H654 H 0.46939 0.12232 0.94272 0.0
H655 H 0.46011 0.11 0.98829 0.0
H656 H 0.41071 0.0949 0.89415 0.0
H657 H 0.51869 0.12757 0.89843 0.0
H658 H 0.54753 0.12175 0.92601 0.0
H659 H 0.48376 0.04707 0.94771 0.0
H660 H 0.45472 0.0523 0.91993 0.0
H661 H 0.4477 0.12423 0.76842 0.0
H662 H 0.46282 0.13518 0.81221 0.0
H663 H 0.45658 0.06317 0.82074 0.0
H664 H 0.44232 0.05248 0.7768 0.0
H665 H 0.48948 0.09797 0.85617 0.0
H666 H 0.40101 0.06431 0.82489 0.0
H667 H 0.371 0.06763 0.79681 0.0
H668 H 0.39235 0.13941 0.82976 0.0
H669 H 0.42297 0.13676 0.85772 0.0
C670 C 0.4092 0.05643 0.96307 0.0
C671 C 0.42583 0.07274 0.98185 0.0
C672 C 0.41443 0.06371 0.93706 0.0
C673 C 0.43657 0.08717 0.9295 0.0
C674 C 0.45232 0.10408 0.94828 0.0
C675 C 0.44689 0.097 0.97429 0.0
C676 C 0.44436 0.09292 0.9019 0.0
C677 C 0.42813 0.09598 0.88589 0.0
C678 C 0.46703 0.09416 0.89123 0.0
C679 C 0.48449 0.09048 0.90738 0.0
C680 C 0.51088 0.10988 0.90901 0.0
C681 C 0.52725 0.10668 0.92468 0.0
C682 C 0.51745 0.0841 0.93869 0.0
C683 C 0.4913 0.0646 0.93693 0.0
C684 C 0.47488 0.06768 0.92125 0.0
C685 C 0.4511 0.1114 0.77906 0.0
C686 C 0.44292 0.08712 0.76963 0.0
C687 C 0.45967 0.11766 0.80415 0.0
C688 C 0.45966 0.09949 0.82001 0.0
C689 C 0.4563 0.0773 0.80893 0.0
C690 C 0.44813 0.07119 0.7837 0.0
C691 C 0.45585 0.10003 0.84833 0.0
C692 C 0.4726 0.09785 0.86453 0.0
C693 C 0.43345 0.0993 0.85925 0.0
C694 C 0.41438 0.10044 0.84319 0.0
C695 C 0.39929 0.0808 0.82612 0.0
C696 C 0.38219 0.08256 0.81022 0.0
C697 C 0.37971 0.10368 0.81149 0.0
C698 C 0.3943 0.12307 0.82876 0.0
C699 C 0.41155 0.12147 0.84463 0.0
H700 H 0.36648 0.105 0.79912 0.0
H701 H 0.53014 0.08168 0.95086 0.0
H702 H 0.33826 0.06824 0.6526 0.0
H703 H 0.32413 0.05348 0.60894 0.0
H704 H 0.32999 0.9882 0.62294 0.0
H705 H 0.3463 1.00426 0.66556 0.0
H706 H 0.34806 1.00299 0.57944 0.0
H707 H 0.26887 0.9879 0.62148 0.0
H708 H 0.24008 0.99814 0.64672 0.0
H709 H 0.25243 0.05284 0.58895 0.0
H710 H 0.28157 0.04315 0.56351 0.0
H711 H 0.2779 0.92904 0.47774 0.0
H712 H 0.2763 0.9442 0.52089 0.0
H713 H 0.3157 0.02099 0.49149 0.0
H714 H 0.31786 1.0061 0.44819 0.0
H715 H 0.27243 1.00022 0.54152 0.0
H716 H 0.35728 0.01394 0.50342 0.0
H717 H 0.38177 0.99734 0.48041 0.0
H718 H 0.35137 0.93599 0.53547 0.0
H719 H 0.32633 0.95198 0.5585 0.0
C720 C 0.33666 0.05086 0.6461 0.0
C721 C 0.34352 0.03742 0.66208 0.0
C722 C 0.32827 0.04223 0.62133 0.0
C723 C 0.32547 0.01942 0.61269 0.0
C724 C 0.33206 1.0059 0.62899 0.0
C725 C 0.34143 0.01505 0.65331 0.0
C726 C 0.31691 0.01011 0.58629 0.0
C727 C 0.33129 1.00219 0.5715 0.0
C728 C 0.29515 0.00913 0.5755 0.0
C729 C 0.27762 0.01499 0.59072 0.0
C730 C 0.26558 1.00224 0.61425 0.0
C731 C 0.24918 1.00792 0.62858 0.0
C732 C 0.24451 0.02619 0.61948 0.0
C733 C 0.25613 0.03874 0.59599 0.0
C734 C 0.27257 0.03314 0.5816 0.0
C735 C 0.28524 0.94903 0.48017 0.0
C736 C 0.29861 0.96649 0.45974 0.0
C737 C 0.2842 0.95761 0.50485 0.0
C738 C 0.29613 0.98365 0.50923 0.0
C739 C 0.30632 1.00077 0.48832 0.0
C740 C 0.30767 0.99225 0.46364 0.0
C741 C 0.30352 0.99317 0.53548 0.0
C742 C 0.28906 1.00114 0.54993 0.0
C743 C 0.32468 0.99346 0.54645 0.0
C744 C 0.33974 0.98397 0.53248 0.0
C745 C 0.35559 0.99675 0.51043 0.0
C746 C 0.36961 0.98749 0.49743 0.0
C747 C 0.36809 0.96561 0.50648 0.0
C748 C 0.3525 0.95291 0.52848 0.0
C749 C 0.3384 0.96206 0.5415 0.0
H750 H 0.37905 0.95853 0.49658 0.0
H751 H 0.23181 0.03056 0.6306 0.0
H752 H 0.97269 0.2537 0.66102 0.0
H753 H 0.9854 0.26571 0.61551 0.0
H754 H 0.04421 0.24647 0.61964 0.0
H755 H 0.03102 0.23366 0.66504 0.0
H756 H 0.06023 0.30064 0.60737 0.0
H757 H 1.00321 0.2139 0.58185 0.0
H758 H 0.96104 0.17314 0.58088 0.0
H759 H 0.92581 0.21029 0.54749 0.0
H760 H 0.96771 0.25136 0.54858 0.0
H761 H 0.11743 0.34634 0.48478 0.0
H762 H 0.09751 0.31834 0.52246 0.0
H763 H 0.02382 0.31139 0.5091 0.0
H764 H 0.04344 0.33847 0.47049 0.0
H765 H 0.01477 0.2678 0.52557 0.0
H766 H 0.06643 0.35325 0.55337 0.0
H767 H 0.10585 0.3961 0.55599 0.0
H768 H 0.1473 0.36477 0.58829 0.0
H769 H 0.10832 0.32164 0.58532 0.0
C770 C 0.98782 0.25137 0.65198 0.0
C771 C 1.00109 0.24302 0.66644 0.0
C772 C 0.99495 0.25809 0.62603 0.0
C773 C 0.01571 0.25696 0.61441 0.0
C774 C 0.02801 0.24727 0.62839 0.0
C775 C 0.02047 0.23997 0.65421 0.0
C776 C 0.02714 0.26968 0.58929 0.0
C777 C 0.05066 0.29326 0.58933 0.0
C778 C 0.01377 0.26045 0.56623 0.0
C779 C 0.98858 0.23575 0.56547 0.0
C780 C 0.98643 0.21343 0.5745 0.0
C781 C 0.96259 0.19025 0.57385 0.0
C782 C 0.94077 0.18912 0.5641 0.0
C783 C 0.94275 0.21118 0.55499 0.0
C784 C 0.96655 0.23441 0.55558 0.0
C785 C 0.09695 0.33873 0.48981 0.0
C786 C 0.08202 0.34478 0.47497 0.0
C787 C 0.08559 0.32276 0.51135 0.0
C788 C 0.05933 0.31322 0.51893 0.0
C789 C 0.04414 0.31858 0.50364 0.0
C790 C 0.05537 0.33413 0.4817 0.0
C791 C 0.04821 0.29876 0.5435 0.0
C792 C 0.02461 0.27506 0.54348 0.0
C793 C 0.06108 0.30821 0.56689 0.0
C794 C 0.08453 0.33417 0.56887 0.0
C795 C 0.08401 0.35547 0.56085 0.0
C796 C 0.10626 0.37981 0.56242 0.0
C797 C 0.12905 0.38315 0.57229 0.0
C798 C 0.12963 0.36215 0.58062 0.0
C799 C 0.10748 0.33774 0.57899 0.0
H800 H 0.14624 0.40201 0.57351 0.0
H801 H 0.92232 0.17117 0.56366 0.0
H802 H 0.7749 0.71834 0.46193 0.0
H803 H 0.7838 0.72292 0.50782 0.0
H804 H 0.75967 0.77703 0.51429 0.0
H805 H 0.75186 0.77339 0.46848 0.0
H806 H 0.79309 0.78792 0.54797 0.0
H807 H 0.71538 0.71338 0.52476 0.0
H808 H 0.68661 0.67353 0.50231 0.0
H809 H 0.72643 0.64018 0.53401 0.0
H810 H 0.75566 0.68001 0.55651 0.0
H811 H 0.72708 0.70534 0.67658 0.0
H812 H 0.72584 0.71333 0.6307 0.0
H813 H 0.80889 0.76889 0.62878 0.0
H814 H 0.80952 0.76249 0.6748 0.0
H815 H 0.74389 0.70408 0.59258 0.0
H816 H 0.83037 0.81001 0.58041 0.0
H817 H 0.84847 0.85015 0.60405 0.0
H818 H 0.77436 0.82187 0.64461 0.0
H819 H 0.75571 0.78171 0.62098 0.0
C820 C 0.77252 0.73197 0.47291 0.0
C821 C 0.76212 0.74507 0.46174 0.0
C822 C 0.77733 0.73437 0.4992 0.0
C823 C 0.77146 0.7496 0.51465 0.0
C824 C 0.76403 0.76491 0.50287 0.0
C825 C 0.75954 0.76277 0.47659 0.0
C826 C 0.77003 0.74745 0.54318 0.0
C827 C 0.78248 0.76962 0.55779 0.0
C828 C 0.75498 0.72362 0.55601 0.0
C829 C 0.73794 0.6998 0.54204 0.0
C830 C 0.7182 0.69764 0.52672 0.0
C831 C 0.70176 0.67503 0.51402 0.0
C832 C 0.70476 0.65435 0.51661 0.0
C833 C 0.72419 0.65625 0.53195 0.0
C834 C 0.74069 0.67883 0.5447 0.0
C835 C 0.74483 0.71972 0.66637 0.0
C836 C 0.7683 0.7335 0.67914 0.0
C837 C 0.74421 0.72418 0.64015 0.0
C838 C 0.76724 0.74193 0.62612 0.0
C839 C 0.79065 0.75575 0.63911 0.0
C840 C 0.79105 0.75196 0.66545 0.0
C841 C 0.7673 0.74461 0.59766 0.0
C842 C 0.75459 0.72248 0.58296 0.0
C843 C 0.78067 0.76857 0.58485 0.0
C844 C 0.79173 0.79274 0.59909 0.0
C845 C 0.81791 0.81239 0.5943 0.0
C846 C 0.82827 0.83514 0.60772 0.0
C847 C 0.8126 0.83852 0.62588 0.0
C848 C 0.78651 0.81919 0.63061 0.0
C849 C 0.77604 0.79641 0.61724 0.0
H850 H 0.82066 0.85614 0.63625 0.0
H851 H 0.69198 0.63684 0.50682 0.0
H852 H 0.30068 0.35302 0.82776 0.0
H853 H 0.31018 0.36229 0.78146 0.0
H854 H 0.38176 0.4324 0.79782 0.0
H855 H 0.37092 0.4241 0.84408 0.0
H856 H 0.36525 0.43976 0.75689 0.0
H857 H 0.37767 0.37291 0.78463 0.0
H858 H 0.36424 0.33168 0.80471 0.0
H859 H 0.30381 0.2933 0.75051 0.0
H860 H 0.31676 0.33435 0.73026 0.0
H861 H 0.45051 0.44086 0.65505 0.0
H862 H 0.42665 0.44249 0.69361 0.0
H863 H 0.35382 0.38484 0.66243 0.0
H864 H 0.37741 0.3831 0.62387 0.0
H865 H 0.36538 0.37084 0.70787 0.0
H866 H 0.36212 0.4408 0.67517 0.0
H867 H 0.38027 0.4832 0.65561 0.0
H868 H 0.42955 0.51738 0.71968 0.0
H869 H 0.41197 0.47515 0.73947 0.0
C870 C 0.31817 0.37058 0.82132 0.0
C871 C 0.33529 0.38775 0.8392 0.0
C872 C 0.32369 0.37584 0.79493 0.0
C873 C 0.34715 0.39767 0.78606 0.0
C874 C 0.3636 0.41539 0.80409 0.0
C875 C 0.35753 0.4106 0.83049 0.0
C876 C 0.35573 0.40106 0.75834 0.0
C877 C 0.36538 0.42472 0.7462 0.0
C878 C 0.35562 0.38137 0.74417 0.0
C879 C 0.348 0.35668 0.75613 0.0
C880 C 0.36145 0.35567 0.77708 0.0
C881 C 0.35393 0.33235 0.78848 0.0
C882 C 0.33313 0.3099 0.77894 0.0
C883 C 0.31988 0.31071 0.75791 0.0
C884 C 0.32732 0.33399 0.74645 0.0
C885 C 0.42935 0.42919 0.65599 0.0
C886 C 0.41588 0.41151 0.63667 0.0
C887 C 0.41573 0.4302 0.67801 0.0
C888 C 0.38851 0.41364 0.68089 0.0
C889 C 0.37484 0.39771 0.66055 0.0
C890 C 0.38839 0.39674 0.63855 0.0
C891 C 0.37516 0.40957 0.70656 0.0
C892 C 0.36477 0.38574 0.71838 0.0
C893 C 0.37532 0.4293 0.7205 0.0
C894 C 0.38583 0.45476 0.70872 0.0
C895 C 0.37697 0.45733 0.685 0.0
C896 C 0.38713 0.48135 0.67389 0.0
C897 C 0.40608 0.50297 0.68637 0.0
C898 C 0.41487 0.50062 0.71003 0.0
C899 C 0.40478 0.47664 0.72122 0.0
H900 H 0.41393 0.52154 0.67774 0.0
H901 H 0.32732 0.29186 0.7878 0.0
H902 H 0.5996 1.00444 0.65786 0.0
H903 H 0.6004 1.00072 0.70431 0.0
H904 H 0.63738 0.95764 0.69352 0.0
H905 H 0.63778 0.9623 0.64685 0.0
H906 H 0.58995 0.97272 0.74484 0.0
H907 H 0.69378 0.98639 0.72731 0.0
H908 H 0.72898 1.00354 0.69323 0.0
H909 H 0.69944 0.04652 0.6614 0.0
H910 H 0.66475 0.03042 0.69561 0.0
H911 H 0.63525 0.95008 0.85539 0.0
H912 H 0.61884 0.955 0.81561 0.0
H913 H 0.6875 0.03019 0.80471 0.0
H914 H 0.70479 0.02477 0.84434 0.0
H915 H 0.6827 1.00774 0.76431 0.0
H916 H 0.62241 0.0183 0.81215 0.0
H917 H 0.58842 0.01369 0.84382 0.0
H918 H 0.53404 0.93984 0.81482 0.0
H919 H 0.56776 0.94377 0.78323 0.0
C920 C 0.60702 0.99332 0.66529 0.0
C921 C 0.61962 0.98454 0.64877 0.0
C922 C 0.6074 0.99118 0.69195 0.0
C923 C 0.61998 0.97987 0.70226 0.0
C924 C 0.62834 0.96717 0.6858 0.0
C925 C 0.62839 0.96969 0.65912 0.0
C926 C 0.62855 0.98532 0.72909 0.0
C927 C 0.61013 0.98012 0.74928 0.0
C928 C 0.65529 0.99694 0.73453 0.0
C929 C 0.67633 1.00681 0.71384 0.0
C930 C 0.69486 0.99958 0.71308 0.0
C931 C 0.71485 0.00923 0.69375 0.0
C932 C 0.71648 0.02612 0.67509 0.0
C933 C 0.69822 0.03346 0.67577 0.0
C934 C 0.67837 0.02406 0.69512 0.0
C935 C 0.64676 0.96787 0.8448 0.0
C936 C 0.67156 0.98688 0.85275 0.0
C937 C 0.63711 0.9708 0.82212 0.0
C938 C 0.65175 0.99302 0.8071 0.0
C939 C 0.67586 0.01279 0.8159 0.0
C940 C 0.68576 0.0097 0.83851 0.0
C941 C 0.64377 0.99363 0.78061 0.0
C942 C 0.66241 1.00024 0.76022 0.0
C943 C 0.6175 0.98472 0.77501 0.0
C944 C 0.59769 0.98132 0.79532 0.0
C945 C 0.6033 1.00089 0.81276 0.0
C946 C 0.58403 0.99845 0.83062 0.0
C947 C 0.55903 0.97655 0.83119 0.0
C948 C 0.55338 0.95685 0.81425 0.0
C949 C 0.57257 0.95918 0.79635 0.0
H950 H 0.54399 0.97486 0.84472 0.0
H951 H 0.73192 0.03356 0.66014 0.0
H952 H 0.16116 0.69756 0.83062 0.0
H953 H 0.16059 0.6895 0.78422 0.0
H954 H 0.09083 0.69224 0.77955 0.0
H955 H 0.09175 0.701 0.82549 0.0
H956 H 0.12876 0.65469 0.75241 0.0
H957 H 0.09183 0.72203 0.72748 0.0
H958 H 0.09738 0.76212 0.74326 0.0
H959 H 0.17015 0.7821 0.77551 0.0
H960 H 0.16526 0.74234 0.75959 0.0
H961 H 0.05064 0.61626 0.64824 0.0
H962 H 0.0754 0.62952 0.68677 0.0
H963 H 0.12963 0.70278 0.65158 0.0
H964 H 0.10361 0.6899 0.61303 0.0
H965 H 0.11657 0.71056 0.69487 0.0
H966 H 0.14826 0.6587 0.67039 0.0
H967 H 0.14799 0.62135 0.6534 0.0
H968 H 0.09664 0.57585 0.71673 0.0
H969 H 0.09625 0.61278 0.73392 0.0
C970 C 0.14556 0.69615 0.81971 0.0
C971 C 0.12664 0.70017 0.83159 0.0
C972 C 0.1453 0.69161 0.79321 0.0
C973 C 0.12609 0.69096 0.77831 0.0
C974 C 0.10632 0.69344 0.79053 0.0
C975 C 0.10673 0.69825 0.81683 0.0
C976 C 0.12655 0.68806 0.74993 0.0
C977 C 0.12633 0.66697 0.7397 0.0
C978 C 0.12484 0.7049 0.73317 0.0
C979 C 0.1281 0.72911 0.74241 0.0
C980 C 0.10911 0.73505 0.73776 0.0
C981 C 0.11212 0.75771 0.74678 0.0
C982 C 0.13408 0.77462 0.76041 0.0
C983 C 0.15312 0.76895 0.765 0.0
C984 C 0.15023 0.74635 0.756 0.0
C985 C 0.06814 0.63505 0.64836 0.0
C986 C 0.07502 0.65213 0.62764 0.0
C987 C 0.08256 0.64255 0.67044 0.0
C988 C 0.10472 0.66709 0.67213 0.0
C989 C 0.11262 0.68373 0.65078 0.0
C990 C 0.0978 0.67636 0.62874 0.0
C991 C 0.1169 0.67609 0.69744 0.0
C992 C 0.11965 0.6985 0.70723 0.0
C993 C 0.12191 0.66093 0.7135 0.0
C994 C 0.12222 0.63859 0.70345 0.0
C995 C 0.1368 0.64071 0.68065 0.0
C996 C 0.13677 0.6196 0.67098 0.0
C997 C 0.1223 0.59624 0.68397 0.0
C998 C 0.10787 0.59396 0.7067 0.0
C999 C 0.10783 0.61501 0.71646 0.0
H1000 H 0.12229 0.57992 0.67644 0.0
H1001 H 0.13635 0.79213 0.7674 0.0
H1002 H 0.67655 0.73033 0.32332 0.0
H1003 H 0.66596 0.71693 0.2788 0.0
H1004 H 0.7018 0.67269 0.28415 0.0
H1005 H 0.71371 0.68726 0.32831 0.0
H1006 H 0.7107 0.69088 0.23855 0.0
H1007 H 0.63389 0.64628 0.29386 0.0
H1008 H 0.60053 0.6413 0.3266 0.0
H1009 H 0.57877 0.68169 0.27744 0.0
H1010 H 0.61225 0.68719 0.24452 0.0
H1011 H 0.61165 0.58995 0.15492 0.0
H1012 H 0.61799 0.61245 0.19536 0.0
H1013 H 0.67192 0.6834 0.15612 0.0
H1014 H 0.66588 0.66107 0.11559 0.0
H1015 H 0.61749 0.65214 0.21809 0.0
H1016 H 0.7287 0.71082 0.19004 0.0
H1017 H 0.76011 0.70804 0.1602 0.0
H1018 H 0.70983 0.6269 0.15974 0.0
H1019 H 0.67845 0.62918 0.18991 0.0
C1020 C 0.68251 0.71806 0.31479 0.0
C1021 C 0.69569 0.70958 0.32918 0.0
C1022 C 0.67632 0.7103 0.28945 0.0
C1023 C 0.6824 0.69322 0.27839 0.0
C1024 C 0.69678 0.68577 0.29233 0.0
C1025 C 0.70358 0.69407 0.31752 0.0
C1026 C 0.67267 0.68218 0.25284 0.0
C1027 C 0.69037 0.68261 0.23406 0.0
C1028 C 0.64596 0.67071 0.24715 0.0
C1029 C 0.62575 0.66737 0.26686 0.0
C1030 C 0.62211 0.65425 0.29011 0.0
C1031 C 0.60316 0.65131 0.30869 0.0
C1032 C 0.58759 0.66124 0.30413 0.0
C1033 C 0.59088 0.67405 0.28096 0.0
C1034 C 0.60982 0.67707 0.26233 0.0
C1035 C 0.62408 0.61045 0.15466 0.0
C1036 C 0.63884 0.62368 0.13226 0.0
C1037 C 0.62766 0.62328 0.17781 0.0
C1038 C 0.64599 0.64942 0.17874 0.0
C1039 C 0.65805 0.66311 0.15577 0.0
C1040 C 0.65451 0.65031 0.13262 0.0
C1041 C 0.65562 0.66137 0.20386 0.0
C1042 C 0.6379 0.66091 0.22253 0.0
C1043 C 0.68206 0.67178 0.20988 0.0
C1044 C 0.70103 0.67024 0.19192 0.0
C1045 C 0.72439 0.6924 0.1836 0.0
C1046 C 0.7422 0.6909 0.16664 0.0
C1047 C 0.7369 0.66733 0.15795 0.0
C1048 C 0.71384 0.64518 0.1663 0.0
C1049 C 0.69603 0.64657 0.18333 0.0
H1050 H 0.75071 0.66622 0.14483 0.0
H1051 H 0.57293 0.65894 0.31854 0.0
H1052 H 0.41934 0.05886 0.15062 0.0
H1053 H 0.3989 0.03438 0.19035 0.0
H1054 H 0.35459 0.96631 0.14623 0.0
H1055 H 0.37438 0.99117 0.10608 0.0
H1056 H 0.32632 0.96543 0.18883 0.0
H1057 H 0.41047 0.9786 0.17104 0.0
H1058 H 0.45761 1.00269 0.15891 0.0
H1059 H 0.47307 0.04822 0.22645 0.0
H1060 H 0.42596 0.02467 0.2388 0.0
H1061 H 0.33668 0.90734 0.31361 0.0
H1062 H 0.34387 0.91809 0.26735 0.0
H1063 H 0.34369 0.98626 0.28315 0.0
H1064 H 0.33612 0.97564 0.3291 0.0
H1065 H 0.39196 0.97748 0.25128 0.0
H1066 H 0.30222 0.96768 0.25824 0.0
H1067 H 0.25509 0.93974 0.26962 0.0
H1068 H 0.25162 0.88161 0.22122 0.0
H1069 H 0.29887 0.90913 0.20994 0.0
C1070 C 0.4049 0.03876 0.14939 0.0
C1071 C 0.39867 0.02676 0.12544 0.0
C1072 C 0.3933 0.02479 0.17205 0.0
C1073 C 0.37584 0.9984 0.17122 0.0
C1074 C 0.36818 0.9866 0.14724 0.0
C1075 C 0.37945 1.00077 0.1244 0.0
C1076 C 0.36747 0.98334 0.1955 0.0
C1077 C 0.34069 0.96785 0.20231 0.0
C1078 C 0.38617 0.98589 0.2129 0.0
C1079 C 0.41462 0.99992 0.20577 0.0
C1080 C 0.42389 0.99383 0.18324 0.0
C1081 C 0.45061 1.00739 0.17633 0.0
C1082 C 0.46834 0.02701 0.19188 0.0
C1083 C 0.45934 0.03304 0.21442 0.0
C1084 C 0.43264 0.01956 0.22141 0.0
C1085 C 0.33793 0.92449 0.30717 0.0
C1086 C 0.33596 0.94072 0.32498 0.0
C1087 C 0.34184 0.93047 0.28081 0.0
C1088 C 0.34384 0.9527 0.27204 0.0
C1089 C 0.34164 0.96875 0.28967 0.0
C1090 C 0.33748 0.96271 0.3159 0.0
C1091 C 0.3511 0.96091 0.24491 0.0
C1092 C 0.37771 0.9749 0.23755 0.0
C1093 C 0.33233 0.95657 0.22694 0.0
C1094 C 0.30401 0.94031 0.23348 0.0
C1095 C 0.29143 0.94887 0.25023 0.0
C1096 C 0.2647 0.93314 0.2566 0.0
C1097 C 0.25037 0.90892 0.24614 0.0
C1098 C 0.26274 0.90039 0.22927 0.0
C1099 C 0.28947 0.91602 0.22291 0.0
H1100 H 0.2297 0.89674 0.25113 0.0
H1101 H 0.48901 0.03749 0.18649 0.0
H1102 H 0.05107 0.35252 0.32872 0.0
H1103 H 0.05488 0.3613 0.28244 0.0
H1104 H 0.10854 0.44088 0.29582 0.0
H1105 H 0.10475 0.43239 0.3421 0.0
H1106 H 0.05065 0.39295 0.24785 0.0
H1107 H 0.16372 0.45694 0.25418 0.0
H1108 H 0.19701 0.46389 0.28481 0.0
H1109 H 0.14734 0.38772 0.31406 0.0
H1110 H 0.1143 0.37996 0.2829 0.0
H1111 H 0.09727 0.4453 0.12804 0.0
H1112 H 0.10183 0.44787 0.17458 0.0
H1113 H 0.11708 0.38745 0.17238 0.0
H1114 H 0.11239 0.38458 0.12566 0.0
H1115 H 0.14167 0.42482 0.21483 0.0
H1116 H 0.05947 0.36553 0.17932 0.0
H1117 H 0.0234 0.35123 0.15031 0.0
H1118 H 1.00811 0.40695 0.18067 0.0
H1119 H 0.0445 0.42174 0.21004 0.0
C1120 C 0.06293 0.37201 0.32192 0.0
C1121 C 0.07805 0.39169 0.33895 0.0
C1122 C 0.06509 0.37698 0.29548 0.0
C1123 C 0.08252 0.40161 0.28585 0.0
C1124 C 0.09532 0.42169 0.30301 0.0
C1125 C 0.09302 0.41678 0.32944 0.0
C1126 C 0.0899 0.40569 0.25807 0.0
C1127 C 0.07059 0.40023 0.24069 0.0
C1128 C 0.11575 0.41409 0.24877 0.0
C1129 C 0.1363 0.41805 0.26647 0.0
C1130 C 0.16 0.4416 0.26697 0.0
C1131 C 0.17886 0.44566 0.28442 0.0
C1132 C 0.17422 0.42631 0.3015 0.0
C1133 C 0.15082 0.40277 0.30099 0.0
C1134 C 0.13209 0.3985 0.28333 0.0
C1135 C 0.10273 0.43328 0.13724 0.0
C1136 C 0.10387 0.41433 0.12331 0.0
C1137 C 0.10537 0.43483 0.16385 0.0
C1138 C 0.10928 0.41752 0.17686 0.0
C1139 C 0.11404 0.40094 0.1626 0.0
C1140 C 0.11135 0.39934 0.13588 0.0
C1141 C 0.10259 0.41308 0.20481 0.0
C1142 C 0.12191 0.41812 0.22214 0.0
C1143 C 0.07655 0.40341 0.21417 0.0
C1144 C 0.05488 0.39495 0.19653 0.0
C1145 C 0.04864 0.37496 0.17957 0.0
C1146 C 0.02807 0.36672 0.16309 0.0
C1147 C 0.01348 0.37824 0.16342 0.0
C1148 C 0.01946 0.39806 0.18037 0.0
C1149 C 0.04004 0.40636 0.19699 0.0
H1150 H 0.99748 0.37174 0.15065 0.0
H1151 H 0.18879 0.42952 0.31504 0.0
H1152 H 0.25502 0.82865 0.36947 0.0
H1153 H 0.21235 0.80629 0.34994 0.0
H1154 H 0.19371 0.85835 0.38502 0.0
H1155 H 0.23646 0.88092 0.40454 0.0
H1156 H 0.15024 0.80886 0.38555 0.0
H1157 H 0.21489 0.86777 0.32458 0.0
H1158 H 0.25687 0.88857 0.29936 0.0
H1159 H 0.23422 0.81835 0.26185 0.0
H1160 H 0.19232 0.79694 0.28732 0.0
H1161 H 0.04407 0.77292 0.30041 0.0
H1162 H 0.08419 0.79821 0.32442 0.0
H1163 H 0.11518 0.75513 0.29086 0.0
H1164 H 0.07581 0.73027 0.26698 0.0
H1165 H 0.15238 0.80387 0.2901 0.0
H1166 H 0.0886 0.7447 0.35409 0.0
H1167 H 0.04696 0.72466 0.37996 0.0
H1168 H 0.06801 0.79702 0.41124 0.0
H1169 H 0.10966 0.81753 0.38536 0.0
C1170 C 0.24168 0.83508 0.37352 0.0
C1171 C 0.24934 0.85668 0.38863 0.0
C1172 C 0.21727 0.82234 0.36214 0.0
C1173 C 0.19979 0.83077 0.36564 0.0
C1174 C 0.20676 0.85144 0.38191 0.0
C1175 C 0.23128 0.86434 0.39311 0.0
C1176 C 0.1751 0.81896 0.35108 0.0
C1177 C 0.15075 0.80806 0.36466 0.0
C1178 C 0.17553 0.81779 0.32378 0.0
C1179 C 0.20055 0.83067 0.30809 0.0
C1180 C 0.21894 0.85669 0.31113 0.0
C1181 C 0.24273 0.86859 0.29679 0.0
C1182 C 0.24824 0.85477 0.27908 0.0
C1183 C 0.22994 0.82902 0.27563 0.0
C1184 C 0.20617 0.81698 0.29003 0.0
C1185 C 0.05949 0.76894 0.29808 0.0
C1186 C 0.05646 0.7494 0.2817 0.0
C1187 C 0.08243 0.78334 0.31195 0.0
C1188 C 0.10287 0.77856 0.30971 0.0
C1189 C 0.09992 0.75937 0.29304 0.0
C1190 C 0.07715 0.74502 0.27938 0.0
C1191 C 0.12737 0.79315 0.32456 0.0
C1192 C 0.15181 0.80472 0.31099 0.0
C1193 C 0.12697 0.79505 0.35183 0.0
C1194 C 0.10208 0.78268 0.36757 0.0
C1195 C 0.08426 0.75636 0.36636 0.0
C1196 C 0.06068 0.74491 0.38105 0.0
C1197 C 0.0548 0.75958 0.39714 0.0
C1198 C 0.07256 0.7857 0.39871 0.0
C1199 C 0.09616 0.79723 0.38407 0.0
H1200 H 0.03649 0.75073 0.40841 0.0
H1201 H 0.26667 0.86403 0.26799 0.0
H1202 H 0.31779 0.34619 0.25261 0.0
H1203 H 0.29472 0.36531 0.27243 0.0
H1204 H 0.22673 0.29093 0.28784 0.0
H1205 H 0.24991 0.27156 0.2685 0.0
H1206 H 0.21675 0.32969 0.26776 0.0
H1207 H 0.26546 0.3184 0.33279 0.0
H1208 H 0.3069 0.32518 0.34761 0.0
H1209 H 0.34001 0.40568 0.3474 0.0
H1210 H 0.29913 0.39945 0.33129 0.0
H1211 H 0.14005 0.34454 0.36097 0.0
H1212 H 0.16702 0.33364 0.33525 0.0
H1213 H 0.23471 0.40798 0.34706 0.0
H1214 H 0.2074 0.41906 0.37389 0.0
H1215 H 0.24863 0.37443 0.35043 0.0
H1216 H 0.20869 0.39078 0.28286 0.0
H1217 H 0.17435 0.39034 0.2583 0.0
H1218 H 0.13045 0.3089 0.2592 0.0
H1219 H 0.16508 0.30889 0.2829 0.0
C1220 C 0.29777 0.33382 0.25981 0.0
C1221 C 0.28575 0.30724 0.25886 0.0
C1222 C 0.28463 0.34484 0.27127 0.0
C1223 C 0.259 0.32963 0.28184 0.0
C1224 C 0.24648 0.30312 0.27985 0.0
C1225 C 0.25977 0.29204 0.26876 0.0
C1226 C 0.24576 0.34124 0.29613 0.0
C1227 C 0.22355 0.33919 0.28599 0.0
C1228 C 0.25533 0.35485 0.31929 0.0
C1229 C 0.27931 0.35847 0.33049 0.0
C1230 C 0.28163 0.33757 0.33568 0.0
C1231 C 0.30505 0.34132 0.34427 0.0
C1232 C 0.3261 0.36585 0.34844 0.0
C1233 C 0.32371 0.38668 0.3441 0.0
C1234 C 0.30045 0.38306 0.33513 0.0
C1235 C 0.16065 0.35884 0.35818 0.0
C1236 C 0.17137 0.38283 0.36969 0.0
C1237 C 0.17614 0.35254 0.3431 0.0
C1238 C 0.20299 0.37004 0.3385 0.0
C1239 C 0.21403 0.39406 0.35006 0.0
C1240 C 0.19838 0.40043 0.36542 0.0
C1241 C 0.21907 0.36236 0.32239 0.0
C1242 C 0.24183 0.36507 0.33216 0.0
C1243 C 0.21059 0.3501 0.29837 0.0
C1244 C 0.18931 0.34984 0.28486 0.0
C1245 C 0.19163 0.37278 0.27795 0.0
C1246 C 0.17219 0.37262 0.26407 0.0
C1247 C 0.15006 0.34962 0.2575 0.0
C1248 C 0.14754 0.32671 0.26441 0.0
C1249 C 0.16719 0.32677 0.27784 0.0
H1250 H 0.13495 0.34955 0.24693 0.0
H1251 H 0.34423 0.3687 0.35506 0.0
H1252 H 0.78837 0.98298 0.2673 0.0
H1253 H 0.76559 0.94122 0.28839 0.0
H1254 H 0.8368 0.9593 0.32353 0.0
H1255 H 0.85982 1.00126 0.30242 0.0
H1256 H 0.80876 0.90933 0.30741 0.0
H1257 H 0.79092 0.96558 0.35546 0.0
H1258 H 0.7757 0.9952 0.36095 0.0
H1259 H 0.69843 0.93659 0.34104 0.0
H1260 H 0.71342 0.90681 0.33448 0.0
H1261 H 0.75391 0.81293 0.40317 0.0
H1262 H 0.77671 0.85453 0.38187 0.0
H1263 H 0.70365 0.83987 0.35415 0.0
H1264 H 0.68057 0.79827 0.37604 0.0
H1265 H 0.73244 0.8881 0.36607 0.0
H1266 H 0.74851 0.8329 0.31531 0.0
H1267 H 0.76199 0.80225 0.30655 0.0
H1268 H 0.83979 0.85705 0.32888 0.0
H1269 H 0.82665 0.88792 0.33815 0.0
C1270 C 0.79941 0.978 0.27911 0.0
C1271 C 0.82606 0.9957 0.28307 0.0
C1272 C 0.78623 0.95406 0.29137 0.0
C1273 C 0.79924 0.94706 0.30802 0.0
C1274 C 0.82618 0.96414 0.31092 0.0
C1275 C 0.83939 0.98819 0.29874 0.0
C1276 C 0.78454 0.92253 0.32321 0.0
C1277 C 0.7923 0.90488 0.32048 0.0
C1278 C 0.76248 0.91617 0.33982 0.0
C1279 C 0.7534 0.93402 0.34416 0.0
C1280 C 0.77076 0.95907 0.35191 0.0
C1281 C 0.76218 0.97592 0.35515 0.0
C1282 C 0.73612 0.9678 0.35128 0.0
C1283 C 0.71862 0.94285 0.34402 0.0
C1284 C 0.72717 0.926 0.34044 0.0
C1285 C 0.74254 0.81864 0.39291 0.0
C1286 C 0.7153 0.80206 0.39138 0.0
C1287 C 0.75572 0.84247 0.38045 0.0
C1288 C 0.74216 0.85037 0.3657 0.0
C1289 C 0.71475 0.83436 0.36519 0.0
C1290 C 0.70149 0.81052 0.37784 0.0
C1291 C 0.75668 0.87485 0.35031 0.0
C1292 C 0.74891 0.89252 0.35301 0.0
C1293 C 0.77848 0.88108 0.33336 0.0
C1294 C 0.78652 0.86264 0.32767 0.0
C1295 C 0.76844 0.83836 0.31853 0.0
C1296 C 0.77603 0.82095 0.31345 0.0
C1297 C 0.80172 0.82767 0.31722 0.0
C1298 C 0.81989 0.85185 0.32601 0.0
C1299 C 0.81239 0.86932 0.33116 0.0
H1300 H 0.80756 0.81417 0.31328 0.0
H1301 H 0.72942 0.98077 0.35398 0.0
H1302 H 0.84782 0.13874 0.2174 0.0
H1303 H 0.87214 0.17923 0.19479 0.0
H1304 H 0.94297 0.17847 0.19867 0.0
H1305 H 0.91843 0.13735 0.22202 0.0
H1306 H 0.95221 0.22579 0.20884 0.0
H1307 H 0.91194 0.16647 0.14148 0.0
H1308 H 0.87641 0.13054 0.11872 0.0
H1309 H 0.83471 0.16906 0.11706 0.0
H1310 H 0.86999 0.20522 0.13994 0.0
H1311 H 0.02244 0.31581 0.10769 0.0
H1312 H 0.99761 0.27698 0.13317 0.0
H1313 H 0.93356 0.28889 0.14263 0.0
H1314 H 0.95892 0.32886 0.11723 0.0
H1315 H 0.92078 0.23672 0.12607 0.0
H1316 H 0.96326 0.29713 0.19284 0.0
H1317 H 1.00069 0.33328 0.21343 0.0
H1318 H 0.04018 0.29258 0.21389 0.0
H1319 H 1.00299 0.25617 0.19319 0.0
C1320 C 0.86858 0.14694 0.21355 0.0
C1321 C 0.88102 0.13442 0.22162 0.0
C1322 C 0.88252 0.17027 0.20038 0.0
C1323 C 0.90943 0.182 0.19453 0.0
C1324 C 0.92219 0.16986 0.2028 0.0
C1325 C 0.90812 0.14626 0.21609 0.0
C1326 C 0.92377 0.20685 0.17987 0.0
C1327 C 0.94549 0.22801 0.19059 0.0
C1328 C 0.91486 0.21021 0.15623 0.0
C1329 C 0.8935 0.18845 0.14264 0.0
C1330 C 0.8951 0.1672 0.13644 0.0
C1331 C 0.87503 0.14681 0.12347 0.0
C1332 C 0.85326 0.14747 0.11653 0.0
C1333 C 0.85157 0.16856 0.12248 0.0
C1334 C 0.87163 0.18904 0.13539 0.0
C1335 C 1.00305 0.31039 0.11504 0.0
C1336 C 0.99273 0.32566 0.11014 0.0
C1337 C 0.9889 0.28807 0.12982 0.0
C1338 C 0.96372 0.27991 0.13994 0.0
C1339 C 0.95301 0.29481 0.13502 0.0
C1340 C 0.96751 0.31767 0.12053 0.0
C1341 C 0.94893 0.25556 0.15518 0.0
C1342 C 0.92729 0.23447 0.14445 0.0
C1343 C 0.95807 0.25224 0.17863 0.0
C1344 C 0.98041 0.27399 0.19127 0.0
C1345 C 0.97999 0.29594 0.19717 0.0
C1346 C 1.00114 0.31645 0.20894 0.0
C1347 C 0.02284 0.31526 0.21489 0.0
C1348 C 0.02336 0.29348 0.20924 0.0
C1349 C 1.00221 0.27286 0.19757 0.0
H1350 H 0.03923 0.33121 0.22391 0.0
H1351 H 0.83774 0.13166 0.10648 0.0
H1352 H 0.70378 0.55479 0.14902 0.0
H1353 H 0.7437 0.57252 0.17365 0.0
H1354 H 0.77829 0.6424 0.12985 0.0
H1355 H 0.73909 0.62501 0.10538 0.0
H1356 H 0.81351 0.62976 0.13436 0.0
H1357 H 0.75351 0.63731 0.19295 0.0
H1358 H 0.71258 0.62172 0.21926 0.0
H1359 H 0.72723 0.57142 0.26081 0.0
H1360 H 0.76818 0.58663 0.23468 0.0
H1361 H 0.91626 0.719 0.20997 0.0
H1362 H 0.87313 0.69583 0.19143 0.0
H1363 H 0.85591 0.62741 0.23036 0.0
H1364 H 0.89936 0.65037 0.2486 0.0
H1365 H 0.81176 0.63576 0.22976 0.0
H1366 H 0.87358 0.63074 0.17311 0.0
H1367 H 0.9156 0.64828 0.14839 0.0
H1368 H 0.89774 0.69429 0.10326 0.0
H1369 H 0.85578 0.67738 0.12809 0.0
C1370 C 0.71997 0.57386 0.14456 0.0
C1371 C 0.71802 0.58835 0.12511 0.0
C1372 C 0.74277 0.58409 0.15879 0.0
C1373 C 0.76418 0.60899 0.15382 0.0
C1374 C 0.76229 0.62319 0.13414 0.0
C1375 C 0.73964 0.61312 0.12013 0.0
C1376 C 0.78865 0.62061 0.16879 0.0
C1377 C 0.813 0.63116 0.15521 0.0
C1378 C 0.78835 0.62215 0.1961 0.0
C1379 C 0.76369 0.61285 0.21166 0.0
C1380 C 0.74785 0.62275 0.20754 0.0
C1381 C 0.7247 0.61404 0.22244 0.0
C1382 C 0.71725 0.5955 0.24158 0.0
C1383 C 0.73299 0.58572 0.24593 0.0
C1384 C 0.75619 0.59441 0.23112 0.0
C1385 C 0.90315 0.69916 0.2151 0.0
C1386 C 0.91141 0.68662 0.23086 0.0
C1387 C 0.87847 0.68587 0.20434 0.0
C1388 C 0.86123 0.65978 0.20931 0.0
C1389 C 0.86877 0.64751 0.22624 0.0
C1390 C 0.89367 0.6607 0.23667 0.0
C1391 C 0.83638 0.64513 0.19524 0.0
C1392 C 0.81212 0.6341 0.20894 0.0
C1393 C 0.83671 0.64313 0.16803 0.0
C1394 C 0.86164 0.65297 0.15264 0.0
C1395 C 0.87869 0.64475 0.15805 0.0
C1396 C 0.90249 0.65456 0.14401 0.0
C1397 C 0.90936 0.67243 0.12431 0.0
C1398 C 0.8924 0.68047 0.11855 0.0
C1399 C 0.8686 0.67076 0.1326 0.0
H1400 H 0.9278 0.67998 0.1135 0.0
H1401 H 0.69932 0.58879 0.25309 0.0
H1402 H 0.40886 0.27317 0.20275 0.0
H1403 H 0.42166 0.24784 0.17809 0.0
H1404 H 0.34082 0.1927 0.16459 0.0
H1405 H 0.32754 0.21831 0.18983 0.0
H1406 H 0.36721 0.16925 0.17503 0.0
H1407 H 0.37956 0.23187 0.11605 0.0
H1408 H 0.39328 0.27454 0.09999 0.0
H1409 H 0.47371 0.29939 0.10961 0.0
H1410 H 0.46046 0.25694 0.12618 0.0
H1411 H 0.40836 0.11435 0.07531 0.0
H1412 H 0.39056 0.13851 0.09458 0.0
H1413 H 0.46264 0.18631 0.13246 0.0
H1414 H 0.48046 0.16163 0.11379 0.0
H1415 H 0.43683 0.21174 0.10582 0.0
H1416 H 0.41955 0.14547 0.1678 0.0
H1417 H 0.40212 0.10085 0.17994 0.0
H1418 H 0.32548 0.08081 0.15879 0.0
H1419 H 0.34259 0.12526 0.14606 0.0
C1420 C 0.39356 0.25567 0.19466 0.0
C1421 C 0.36702 0.248 0.19832 0.0
C1422 C 0.40105 0.24117 0.18034 0.0
C1423 C 0.38237 0.21847 0.16895 0.0
C1424 C 0.35571 0.21022 0.17301 0.0
C1425 C 0.34811 0.22489 0.18745 0.0
C1426 C 0.39128 0.20383 0.15299 0.0
C1427 C 0.3821 0.17849 0.15964 0.0
C1428 C 0.41075 0.21564 0.13273 0.0
C1429 C 0.41898 0.24123 0.12258 0.0
C1430 C 0.40017 0.24647 0.11493 0.0
C1431 C 0.40786 0.27062 0.1057 0.0
C1432 C 0.43435 0.28968 0.1038 0.0
C1433 C 0.4532 0.2846 0.1111 0.0
C1434 C 0.44561 0.26048 0.1204 0.0
C1435 C 0.42069 0.13023 0.08742 0.0
C1436 C 0.44598 0.13602 0.09287 0.0
C1437 C 0.41037 0.14399 0.09852 0.0
C1438 C 0.42516 0.16423 0.11507 0.0
C1439 C 0.45083 0.17082 0.11972 0.0
C1440 C 0.46102 0.15669 0.10901 0.0
C1441 C 0.4133 0.17755 0.12845 0.0
C1442 C 0.42187 0.20259 0.12118 0.0
C1443 C 0.39277 0.16523 0.14759 0.0
C1444 C 0.38241 0.13863 0.1557 0.0
C1445 C 0.39903 0.13151 0.16552 0.0
C1446 C 0.38921 0.10626 0.17254 0.0
C1447 C 0.36273 0.08799 0.17007 0.0
C1448 C 0.346 0.09497 0.16066 0.0
C1449 C 0.35575 0.12019 0.15354 0.0
H1450 H 0.35516 0.06845 0.1755 0.0
H1451 H 0.44026 0.30836 0.09666 0.0
H1452 H 0.73699 0.07193 0.61311 0.0
H1453 H 0.77589 0.09424 0.63785 0.0
H1454 H 0.74569 0.13599 0.67631 0.0
H1455 H 0.70575 0.113 0.65142 0.0
H1456 H 0.81359 0.1415 0.63951 0.0
H1457 H 0.7705 0.1525 0.73525 0.0
H1458 H 0.7299 0.13093 0.76281 0.0
H1459 H 0.71101 0.05903 0.73211 0.0
H1460 H 0.75115 0.08021 0.70386 0.0
H1461 H 0.90464 0.21167 0.75014 0.0
H1462 H 0.86161 0.19395 0.73164 0.0
H1463 H 0.86647 0.13178 0.70097 0.0
H1464 H 0.90903 0.14894 0.71991 0.0
H1465 H 0.8117 0.14179 0.73515 0.0
H1466 H 0.85151 0.1307 0.63599 0.0
H1467 H 0.89374 0.15044 0.61108 0.0
H1468 H 0.92038 0.2206 0.6504 0.0
H1469 H 0.87821 0.20147 0.67514 0.0
C1470 C 0.73839 0.08587 0.62676 0.0
C1471 C 0.71792 0.09051 0.63017 0.0
C1472 C 0.76091 0.09875 0.64095 0.0
C1473 C 0.764 0.11684 0.65921 0.0
C1474 C 0.74381 0.12192 0.6626 0.0
C1475 C 0.72103 0.10894 0.64818 0.0
C1476 C 0.78861 0.13017 0.67409 0.0
C1477 C 0.81301 0.1414 0.66042 0.0
C1478 C 0.78836 0.13074 0.70144 0.0
C1479 C 0.76361 0.11797 0.7173 0.0
C1480 C 0.75753 0.1321 0.73422 0.0
C1481 C 0.73457 0.11995 0.74987 0.0
C1482 C 0.71775 0.09363 0.74898 0.0
C1483 C 0.72382 0.07942 0.7324 0.0
C1484 C 0.74659 0.0915 0.71647 0.0
C1485 C 0.89628 0.1939 0.73999 0.0
C1486 C 0.91037 0.18172 0.73666 0.0
C1487 C 0.87163 0.18378 0.7294 0.0
C1488 C 0.86079 0.16159 0.71473 0.0
C1489 C 0.87439 0.14894 0.71215 0.0
C1490 C 0.89874 0.15875 0.72313 0.0
C1491 C 0.83632 0.1525 0.7005 0.0
C1492 C 0.81213 0.14212 0.71424 0.0
C1493 C 0.83672 0.1526 0.6732 0.0
C1494 C 0.86178 0.16452 0.65764 0.0
C1495 C 0.86632 0.15038 0.63919 0.0
C1496 C 0.89026 0.16147 0.62511 0.0
C1497 C 0.90977 0.18672 0.62925 0.0
C1498 C 0.9053 0.20101 0.6473 0.0
C1499 C 0.8814 0.19005 0.66137 0.0
H1500 H 0.92834 0.19525 0.61849 0.0
H1501 H 0.70009 0.08422 0.76126 0.0
H1502 H 0.93447 0.59866 0.64379 0.0
H1503 H 0.91092 0.61546 0.66804 0.0
H1504 H 0.96342 0.68942 0.6338 0.0
H1505 H 0.98695 0.67313 0.61016 0.0
H1506 H 0.95557 0.69537 0.68239 0.0
H1507 H 0.89966 0.64831 0.61328 0.0
H1508 H 0.87288 0.61057 0.587 0.0
H1509 H 0.82381 0.57073 0.6538 0.0
H1510 H 0.85051 0.60815 0.68055 0.0
H1511 H 0.87955 0.75237 0.71231 0.0
H1512 H 0.90557 0.73635 0.69176 0.0
H1513 H 0.85032 0.66162 0.72302 0.0
H1514 H 0.82416 0.67721 0.74253 0.0
H1515 H 0.85996 0.65604 0.67631 0.0
H1516 H 0.91568 0.70379 0.74548 0.0
H1517 H 0.94231 0.74196 0.77127 0.0
H1518 H 0.99165 0.78083 0.70429 0.0
H1519 H 0.9651 0.74298 0.67804 0.0
C1520 C 0.94102 0.6185 0.64152 0.0
C1521 C 0.96266 0.63437 0.62482 0.0
C1522 C 0.92745 0.62812 0.65533 0.0
C1523 C 0.93515 0.65382 0.65271 0.0
C1524 C 0.95696 0.66962 0.63638 0.0
C1525 C 0.9704 0.6601 0.62268 0.0
C1526 C 0.92062 0.66452 0.66649 0.0
C1527 C 0.93467 0.68682 0.68087 0.0
C1528 C 0.89327 0.65343 0.66498 0.0
C1529 C 0.87726 0.63092 0.64896 0.0
C1530 C 0.88329 0.63143 0.6224 0.0
C1531 C 0.8681 0.61011 0.60742 0.0
C1532 C 0.84671 0.58824 0.61874 0.0
C1533 C 0.84042 0.58766 0.64507 0.0
C1534 C 0.85556 0.60892 0.66014 0.0
C1535 C 0.87322 0.73263 0.71504 0.0
C1536 C 0.84968 0.71612 0.72905 0.0
C1537 C 0.88813 0.72341 0.70329 0.0
C1538 C 0.8801 0.6976 0.70575 0.0
C1539 C 0.85702 0.68147 0.72044 0.0
C1540 C 0.84205 0.69052 0.73176 0.0
C1541 C 0.89482 0.68681 0.6925 0.0
C1542 C 0.88083 0.66453 0.67805 0.0
C1543 C 0.92221 0.69794 0.69397 0.0
C1544 C 0.93825 0.72064 0.70976 0.0
C1545 C 0.9321 0.72054 0.73623 0.0
C1546 C 0.9472 0.74211 0.75093 0.0
C1547 C 0.96861 0.76383 0.73941 0.0
C1548 C 0.97503 0.76401 0.71318 0.0
C1549 C 0.95998 0.7425 0.69839 0.0
H1550 H 0.98027 0.78051 0.75082 0.0
H1551 H 0.83497 0.57176 0.60711 0.0
H1552 H 0.41449 0.1466 0.73341 0.0
H1553 H 0.4343 0.18946 0.71556 0.0
H1554 H 0.35776 0.17837 0.71029 0.0
H1555 H 0.33775 0.13516 0.72766 0.0
H1556 H 0.38454 0.19771 0.66669 0.0
H1557 H 0.4037 0.21913 0.75542 0.0
H1558 H 0.42109 0.21863 0.79738 0.0
H1559 H 0.49826 0.25209 0.76204 0.0
H1560 H 0.48126 0.25248 0.71977 0.0
H1561 H 0.4188 0.32158 0.63775 0.0
H1562 H 0.40417 0.28201 0.66051 0.0
H1563 H 0.4827 0.29709 0.65569 0.0
H1564 H 0.49781 0.33743 0.63268 0.0
H1565 H 0.4575 0.27609 0.7036 0.0
H1566 H 0.43842 0.25539 0.61515 0.0
H1567 H 0.42097 0.25562 0.57314 0.0
H1568 H 0.34348 0.22035 0.6081 0.0
H1569 H 0.36053 0.22024 0.65042 0.0
C1570 C 0.40181 0.15338 0.72891 0.0
C1571 C 0.37442 0.13728 0.73211 0.0
C1572 C 0.41325 0.17805 0.71869 0.0
C1573 C 0.39768 0.1875 0.71158 0.0
C1574 C 0.37034 0.1717 0.71551 0.0
C1575 C 0.35887 0.14697 0.72567 0.0
C1576 C 0.40967 0.21314 0.69874 0.0
C1577 C 0.40022 0.21485 0.67505 0.0
C1578 C 0.43085 0.23562 0.70896 0.0
C1579 C 0.44116 0.23561 0.73438 0.0
C1580 C 0.42435 0.22622 0.75656 0.0
C1581 C 0.43414 0.22598 0.7804 0.0
C1582 C 0.46075 0.23526 0.78236 0.0
C1583 C 0.47764 0.24488 0.76049 0.0
C1584 C 0.46795 0.24513 0.73659 0.0
C1585 C 0.43319 0.31674 0.6415 0.0
C1586 C 0.45958 0.33284 0.63302 0.0
C1587 C 0.42467 0.29389 0.65457 0.0
C1588 C 0.44212 0.28612 0.65952 0.0
C1589 C 0.46874 0.3025 0.65202 0.0
C1590 C 0.47738 0.3256 0.63883 0.0
C1591 C 0.43201 0.26059 0.67183 0.0
C1592 C 0.44184 0.2589 0.6953 0.0
C1593 C 0.41115 0.23805 0.66145 0.0
C1594 C 0.4008 0.23801 0.63601 0.0
C1595 C 0.41769 0.24786 0.61392 0.0
C1596 C 0.40787 0.24793 0.59005 0.0
C1597 C 0.38115 0.23805 0.58796 0.0
C1598 C 0.36418 0.22802 0.60975 0.0
C1599 C 0.37391 0.22792 0.63368 0.0
H1600 H 0.37358 0.23813 0.56946 0.0
H1601 H 0.4683 0.23505 0.80084 0.0
H1602 H 0.35066 0.98969 0.78759 0.0
H1603 H 0.32633 0.95009 0.8119 0.0
H1604 H 0.26128 0.96038 0.82295 0.0
H1605 H 0.28581 1.00067 0.79813 0.0
H1606 H 0.27095 0.94105 0.8676 0.0
H1607 H 0.25802 0.9205 0.77839 0.0
H1608 H 0.27093 0.92138 0.7325 0.0
H1609 H 0.31577 0.8889 0.75182 0.0
H1610 H 0.30345 0.88819 0.79791 0.0
H1611 H 0.17465 0.81181 0.89676 0.0
H1612 H 0.20133 0.85461 0.87872 0.0
H1613 H 0.26631 0.84431 0.86672 0.0
H1614 H 0.23946 0.801 0.88519 0.0
H1615 H 0.25685 0.86391 0.8231 0.0
H1616 H 0.26898 0.88365 0.91235 0.0
H1617 H 0.25567 0.88245 0.95816 0.0
H1618 H 0.2118 0.91595 0.93876 0.0
H1619 H 0.22454 0.91701 0.89274 0.0
C1620 C 0.33122 0.98381 0.79521 0.0
C1621 C 0.32017 0.99847 0.7905 0.0
C1622 C 0.31727 0.96096 0.80915 0.0
C1623 C 0.29173 0.95183 0.81892 0.0
C1624 C 0.28092 0.9669 0.81547 0.0
C1625 C 0.29497 0.98997 0.80131 0.0
C1626 C 0.27645 0.92622 0.83188 0.0
C1627 C 0.26751 0.92414 0.85773 0.0
C1628 C 0.27252 0.9041 0.81935 0.0
C1629 C 0.28002 0.90453 0.79165 0.0
C1630 C 0.27083 0.91376 0.77289 0.0
C1631 C 0.278 0.91419 0.74683 0.0
C1632 C 0.29421 0.90526 0.73925 0.0
C1633 C 0.30324 0.89584 0.75772 0.0
C1634 C 0.29616 0.8954 0.78382 0.0
C1635 C 0.19473 0.81864 0.89058 0.0
C1636 C 0.20487 0.80285 0.89248 0.0
C1637 C 0.21003 0.84327 0.88031 0.0
C1638 C 0.23595 0.85291 0.87139 0.0
C1639 C 0.24638 0.83737 0.87351 0.0
C1640 C 0.23109 0.81267 0.88422 0.0
C1641 C 0.2514 0.87871 0.85886 0.0
C1642 C 0.26034 0.88082 0.83302 0.0
C1643 C 0.25525 0.90079 0.8714 0.0
C1644 C 0.24751 0.90018 0.89905 0.0
C1645 C 0.2563 0.89055 0.91781 0.0
C1646 C 0.2489 0.88994 0.94383 0.0
C1647 C 0.23284 0.89906 0.95136 0.0
C1648 C 0.22421 0.90886 0.93289 0.0
C1649 C 0.23154 0.9095 0.90683 0.0
H1650 H 0.22714 0.89858 0.97151 0.0
H1651 H 0.29973 0.90559 0.71907 0.0
H1652 H 0.03459 0.2285 0.81965 0.0
H1653 H 0.07277 0.24469 0.84664 0.0
H1654 H 0.12185 0.29799 0.78627 0.0
H1655 H 0.08418 0.28211 0.75956 0.0
H1656 H 0.14732 0.27899 0.80715 0.0
H1657 H 0.09891 0.31566 0.83662 0.0
H1658 H 0.06025 0.31605 0.85336 0.0
H1659 H 0.05866 0.27825 0.92282 0.0
H1660 H 0.09684 0.27685 0.90611 0.0
H1661 H 0.23594 0.37756 0.9075 0.0
H1662 H 0.19429 0.35562 0.88593 0.0
H1663 H 0.19818 0.28839 0.88046 0.0
H1664 H 0.23983 0.31022 0.90174 0.0
H1665 H 0.14592 0.3142 0.89304 0.0
H1666 H 0.17792 0.26159 0.82221 0.0
H1667 H 0.21873 0.26743 0.80229 0.0
H1668 H 0.25681 0.34809 0.81063 0.0
H1669 H 0.21619 0.34275 0.83032 0.0
C1670 C 0.0536 0.24337 0.81201 0.0
C1671 C 0.05619 0.25398 0.78739 0.0
C1672 C 0.07543 0.25278 0.82753 0.0
C1673 C 0.10035 0.27282 0.81868 0.0
C1674 C 0.10302 0.28258 0.79369 0.0
C1675 C 0.08131 0.27346 0.7784 0.0
C1676 C 0.12358 0.28446 0.83543 0.0
C1677 C 0.14682 0.28636 0.82606 0.0
C1678 C 0.1235 0.29503 0.85981 0.0
C1679 C 0.10053 0.29581 0.86994 0.0
C1680 C 0.09013 0.30712 0.85532 0.0
C1681 C 0.0683 0.30753 0.86481 0.0
C1682 C 0.05699 0.29716 0.88913 0.0
C1683 C 0.06743 0.28625 0.90396 0.0
C1684 C 0.08911 0.28556 0.89446 0.0
C1685 C 0.22772 0.35795 0.90215 0.0
C1686 C 0.24145 0.34577 0.90636 0.0
C1687 C 0.20382 0.34538 0.88977 0.0
C1688 C 0.19309 0.32038 0.8811 0.0
C1689 C 0.2061 0.30777 0.88652 0.0
C1690 C 0.22994 0.32029 0.8989 0.0
C1691 C 0.16936 0.30805 0.86503 0.0
C1692 C 0.14618 0.30629 0.87438 0.0
C1693 C 0.16969 0.29833 0.84024 0.0
C1694 C 0.19408 0.30172 0.82801 0.0
C1695 C 0.19498 0.28057 0.81972 0.0
C1696 C 0.21809 0.28379 0.80849 0.0
C1697 C 0.24039 0.3081 0.80531 0.0
C1698 C 0.23958 0.32926 0.81323 0.0
C1699 C 0.21653 0.32614 0.82445 0.0
H1700 H 0.25827 0.31056 0.79665 0.0
H1701 H 0.04019 0.29765 0.89651 0.0
H1702 H 0.82578 0.82611 0.80945 0.0
H1703 H 0.80616 0.84912 0.82779 0.0
H1704 H 0.73494 0.79898 0.78932 0.0
H1705 H 0.75483 0.77671 0.77015 0.0
H1706 H 0.74094 0.84277 0.78844 0.0
H1707 H 0.7441 0.79351 0.85674 0.0
H1708 H 0.76432 0.77793 0.88545 0.0
H1709 H 0.81479 0.85341 0.91302 0.0
H1710 H 0.79509 0.8695 0.88421 0.0
H1711 H 0.66409 0.87753 0.87108 0.0
H1712 H 0.68058 0.85254 0.84991 0.0
H1713 H 0.75822 0.90693 0.87388 0.0
H1714 H 0.7422 0.93174 0.89456 0.0
H1715 H 0.7459 0.85849 0.88248 0.0
H1716 H 0.74195 0.90701 0.81257 0.0
H1717 H 0.7198 0.92108 0.78461 0.0
H1718 H 0.66785 0.84427 0.76132 0.0
H1719 H 0.68949 0.8297 0.78943 0.0
C1720 C 0.80607 0.8202 0.80459 0.0
C1721 C 0.79198 0.79944 0.78828 0.0
C1722 C 0.79468 0.83324 0.81536 0.0
C1723 C 0.76864 0.82556 0.81062 0.0
C1724 C 0.75494 0.80542 0.79354 0.0
C1725 C 0.76643 0.79262 0.78252 0.0
C1726 C 0.75547 0.838 0.82379 0.0
C1727 C 0.74178 0.84582 0.80907 0.0
C1728 C 0.75643 0.84234 0.85076 0.0
C1729 C 0.76829 0.83274 0.86814 0.0
C1730 C 0.75963 0.80681 0.8688 0.0
C1731 C 0.77098 0.79789 0.88511 0.0
C1732 C 0.79087 0.81468 0.901 0.0
C1733 C 0.7994 0.84043 0.90067 0.0
C1734 C 0.78814 0.84946 0.88437 0.0
C1735 C 0.68462 0.88405 0.8719 0.0
C1736 C 0.70174 0.90678 0.88451 0.0
C1737 C 0.6941 0.86982 0.85968 0.0
C1738 C 0.72079 0.87785 0.86011 0.0
C1739 C 0.73761 0.9002 0.87317 0.0
C1740 C 0.72833 0.91448 0.88497 0.0
C1741 C 0.7317 0.86341 0.8471 0.0
C1742 C 0.74496 0.85523 0.86187 0.0
C1743 C 0.73005 0.85848 0.8203 0.0
C1744 C 0.71713 0.86723 0.80332 0.0
C1745 C 0.72566 0.8931 0.80165 0.0
C1746 C 0.71323 0.90117 0.78575 0.0
C1747 C 0.69238 0.88357 0.77126 0.0
C1748 C 0.68397 0.85787 0.77259 0.0
C1749 C 0.69632 0.8497 0.78849 0.0
H1750 H 0.68278 0.88985 0.75896 0.0
H1751 H 0.79963 0.80773 0.91362 0.0
H1752 H 0.57499 0.47042 0.55261 0.0
H1753 H 0.59762 0.51323 0.53398 0.0
H1754 H 0.53449 0.52202 0.56198 0.0
H1755 H 0.51146 0.47889 0.58018 0.0
H1756 H 0.54705 0.53903 0.51459 0.0
H1757 H 0.59705 0.55397 0.58861 0.0
H1758 H 0.62325 0.54759 0.61927 0.0
H1759 H 0.68123 0.56348 0.559 0.0
H1760 H 0.6552 0.56956 0.52787 0.0
H1761 H 0.6235 0.67112 0.46985 0.0
H1762 H 0.59813 0.63329 0.49825 0.0
H1763 H 0.64966 0.60771 0.47418 0.0
H1764 H 0.67463 0.64463 0.44639 0.0
H1765 H 0.64113 0.6024 0.52499 0.0
H1766 H 0.58813 0.58199 0.45039 0.0
H1767 H 0.562 0.5884 0.41965 0.0
H1768 H 0.51006 0.58355 0.48182 0.0
H1769 H 0.53611 0.57743 0.51297 0.0
C1770 C 0.56606 0.48156 0.55522 0.0
C1771 C 0.54139 0.47108 0.56814 0.0
C1772 C 0.57911 0.50621 0.54453 0.0
C1773 C 0.56805 0.52129 0.54665 0.0
C1774 C 0.5436 0.511 0.55996 0.0
C1775 C 0.53049 0.48629 0.57058 0.0
C1776 C 0.58148 0.54723 0.53408 0.0
C1777 C 0.56752 0.55302 0.51732 0.0
C1778 C 0.60832 0.5657 0.53718 0.0
C1779 C 0.62402 0.56198 0.55584 0.0
C1780 C 0.61528 0.55589 0.58183 0.0
C1781 C 0.63012 0.55236 0.59931 0.0
C1782 C 0.65385 0.55506 0.59107 0.0
C1783 C 0.66282 0.56135 0.56535 0.0
C1784 C 0.64803 0.56486 0.54778 0.0
C1785 C 0.62936 0.65741 0.47065 0.0
C1786 C 0.65115 0.66113 0.45555 0.0
C1787 C 0.61481 0.63571 0.48687 0.0
C1788 C 0.62186 0.6174 0.48843 0.0
C1789 C 0.64371 0.62137 0.47356 0.0
C1790 C 0.65797 0.64268 0.45741 0.0
C1791 C 0.60687 0.59385 0.50509 0.0
C1792 C 0.62056 0.58851 0.52261 0.0
C1793 C 0.57984 0.57585 0.50271 0.0
C1794 C 0.56425 0.57959 0.48403 0.0
C1795 C 0.57127 0.58252 0.45752 0.0
C1796 C 0.55645 0.58605 0.44002 0.0
C1797 C 0.53444 0.58648 0.44879 0.0
C1798 C 0.52716 0.58329 0.47506 0.0
C1799 C 0.54193 0.57978 0.49265 0.0
H1800 H 0.52298 0.5892 0.43521 0.0
H1801 H 0.66532 0.55233 0.60463 0.0
H1802 H 0.58601 0.07091 0.54524 0.0
H1803 H 0.54424 0.05059 0.52384 0.0
H1804 H 0.52665 0.97725 0.54978 0.0
H1805 H 0.56828 0.99736 0.57095 0.0
H1806 H 0.51603 0.97472 0.50054 0.0
H1807 H 0.49457 1.0058 0.57622 0.0
H1808 H 0.49979 0.0376 0.60823 0.0
H1809 H 0.49243 0.08104 0.54917 0.0
H1810 H 0.48757 0.04968 0.51671 0.0
H1811 H 0.38283 0.90918 0.45841 0.0
H1812 H 0.42167 0.92569 0.48448 0.0
H1813 H 0.44563 1.00212 0.46305 0.0
H1814 H 0.40737 0.98605 0.43751 0.0
H1815 H 0.45136 1.00061 0.51254 0.0
H1816 H 0.4754 0.97088 0.43655 0.0
H1817 H 0.4706 0.93933 0.40439 0.0
H1818 H 0.47313 0.89344 0.46408 0.0
H1819 H 0.47762 0.92459 0.49666 0.0
C1820 C 0.5731 0.0505 0.54674 0.0
C1821 C 0.58065 0.03591 0.56003 0.0
C1822 C 0.54912 0.03882 0.53444 0.0
C1823 C 0.53198 0.01224 0.53515 0.0
C1824 C 0.53934 0.99771 0.54875 0.0
C1825 C 0.56326 0.00936 0.56107 0.0
C1826 C 0.50674 0.99944 0.52119 0.0
C1827 C 0.50174 0.98017 0.50351 0.0
C1828 C 0.48804 1.0066 0.52453 0.0
C1829 C 0.49099 0.02552 0.54399 0.0
C1830 C 0.49431 0.02225 0.57001 0.0
C1831 C 0.49715 0.04018 0.58825 0.0
C1832 C 0.49651 0.06136 0.58073 0.0
C1833 C 0.49296 0.06464 0.55496 0.0
C1834 C 0.49014 0.04679 0.53664 0.0
C1835 C 0.39646 0.92947 0.45915 0.0
C1836 C 0.39173 0.94614 0.44569 0.0
C1837 C 0.41875 0.93896 0.47408 0.0
C1838 C 0.43689 0.96531 0.47582 0.0
C1839 C 0.43211 0.98179 0.4623 0.0
C1840 C 0.41007 0.97243 0.44747 0.0
C1841 C 0.46081 0.97614 0.49162 0.0
C1842 C 0.46558 0.99505 0.50968 0.0
C1843 C 0.4793 0.96866 0.4886 0.0
C1844 C 0.47652 0.9499 0.46907 0.0
C1845 C 0.4747 0.95395 0.44284 0.0
C1846 C 0.47208 0.93617 0.42453 0.0
C1847 C 0.47147 0.91435 0.43219 0.0
C1848 C 0.47355 0.91032 0.45818 0.0
C1849 C 0.47614 0.92803 0.47658 0.0
H1850 H 0.46946 0.90061 0.41799 0.0
H1851 H 0.4987 0.07522 0.59488 0.0
H1852 H 0.14146 0.46778 0.48648 0.0
H1853 H 0.12074 0.48763 0.50988 0.0
H1854 H 0.06569 0.46576 0.44998 0.0
H1855 H 0.08624 0.44585 0.42657 0.0
H1856 H 0.08137 0.51314 0.46596 0.0
H1857 H 0.04815 0.43203 0.50585 0.0
H1858 H 0.05032 0.39803 0.5274 0.0
H1859 H 0.08968 0.44761 0.59008 0.0
H1860 H 0.08814 0.48206 0.56871 0.0
H1861 H 0.98254 0.5103 0.5691 0.0
H1862 H 1.0024 0.48868 0.5473 0.0
H1863 H 0.07576 0.56002 0.53834 0.0
H1864 H 0.05641 0.58155 0.56026 0.0
H1865 H 0.04737 0.48523 0.55603 0.0
H1866 H 0.09925 0.56211 0.47564 0.0
H1867 H 0.09334 0.59381 0.45398 0.0
H1868 H 1.01051 0.54813 0.47072 0.0
H1869 H 0.01586 0.51596 0.49204 0.0
C1870 C 0.1252 0.46751 0.47805 0.0
C1871 C 0.11563 0.45518 0.45452 0.0
C1872 C 0.11318 0.47872 0.49161 0.0
C1873 C 0.09132 0.47801 0.48197 0.0
C1874 C 0.08242 0.46661 0.45798 0.0
C1875 C 0.09426 0.4552 0.44455 0.0
C1876 C 0.07732 0.48852 0.49712 0.0
C1877 C 0.07407 0.50705 0.48567 0.0
C1878 C 0.06711 0.48032 0.52275 0.0
C1879 C 0.06824 0.45971 0.53556 0.0
C1880 C 0.05749 0.43577 0.52412 0.0
C1881 C 0.05857 0.4164 0.53631 0.0
C1882 C 0.07015 0.42067 0.56008 0.0
C1883 C 0.08073 0.44434 0.57167 0.0
C1884 C 0.07975 0.46379 0.55952 0.0
C1885 C 1.00303 0.5213 0.56296 0.0
C1886 C 0.01777 0.54774 0.56654 0.0
C1887 C 0.01438 0.5089 0.55043 0.0
C1888 C 0.04058 0.52271 0.54085 0.0
C1889 C 0.0555 0.54891 0.54528 0.0
C1890 C 0.04433 0.5612 0.55799 0.0
C1891 C 0.05215 0.51029 0.52509 0.0
C1892 C 0.05486 0.49139 0.53637 0.0
C1893 C 0.06153 0.51786 0.49919 0.0
C1894 C 0.05802 0.53675 0.48568 0.0
C1895 C 0.07976 0.55876 0.47456 0.0
C1896 C 0.07651 0.57682 0.46236 0.0
C1897 C 0.05158 0.57302 0.46106 0.0
C1898 C 0.02982 0.55108 0.47182 0.0
C1899 C 0.03296 0.53294 0.48398 0.0
H1900 H 0.04911 0.58706 0.45168 0.0
H1901 H 0.07082 0.40561 0.56957 0.0
H1902 H 0.37142 0.43473 0.98529 0.0
H1903 H 0.40812 0.45392 0.01462 0.0
H1904 H 0.43489 0.40673 0.98286 0.0
H1905 H 0.39891 0.38786 0.95384 0.0
H1906 H 0.43805 0.40935 0.03502 0.0
H1907 H 0.46331 0.4675 0.9628 0.0
H1908 H 0.45854 0.49578 0.93368 0.0
H1909 H 0.46092 0.54087 -0.00195 0.0
H1910 H 0.46536 0.51262 0.02761 0.0
H1911 H 0.5725 0.47014 0.06183 0.0
H1912 H 0.52854 0.449 0.04539 0.0
H1913 H 0.52047 0.5106 0.07221 0.0
H1914 H 0.56478 0.53217 0.08793 0.0
H1915 H 0.5046 0.50128 0.02692 0.0
H1916 H 0.48496 0.44796 0.09922 0.0
H1917 H 0.48672 0.41933 0.13039 0.0
H1918 H 0.47013 0.36497 0.07085 0.0
H1919 H 0.46872 0.39344 0.03916 0.0
C1920 C 0.3851 0.42844 0.98469 0.0
C1921 C 0.38242 0.41008 0.96681 0.0
C1922 C 0.40612 0.43945 0.00141 0.0
C1923 C 0.42459 0.43203 0.0008 0.0
C1924 C 0.42113 0.41294 0.98374 0.0
C1925 C 0.40054 0.40229 0.96693 0.0
C1926 C 0.44821 0.44453 0.01691 0.0
C1927 C 0.45266 0.42946 0.0333 0.0
C1928 C 0.46706 0.47086 0.01515 0.0
C1929 C 0.46433 0.48779 -0.00257 0.0
C1930 C 0.46258 0.48331 0.97076 0.0
C1931 C 0.45998 0.49936 0.95418 0.0
C1932 C 0.45934 0.52006 0.96402 0.0
C1933 C 0.46136 0.52479 0.99046 0.0
C1934 C 0.46392 0.50878 0.00714 0.0
C1935 C 0.5612 0.47897 0.06473 0.0
C1936 C 0.57231 0.5029 0.07633 0.0
C1937 C 0.53588 0.46678 0.05532 0.0
C1938 C 0.52075 0.47796 0.05757 0.0
C1939 C 0.53153 0.50145 0.07002 0.0
C1940 C 0.55692 0.51375 0.07921 0.0
C1941 C 0.49464 0.46613 0.04538 0.0
C1942 C 0.48985 0.48127 0.02935 0.0
C1943 C 0.47521 0.43989 0.04795 0.0
C1944 C 0.47716 0.42309 0.06667 0.0
C1945 C 0.48214 0.43011 0.09263 0.0
C1946 C 0.48297 0.41385 0.11043 0.0
C1947 C 0.47874 0.39044 0.10256 0.0
C1948 C 0.47358 0.38319 0.07688 0.0
C1949 C 0.47274 0.39938 0.05899 0.0
H1950 H 0.47927 0.37782 0.1164 0.0
H1951 H 0.45734 0.53247 0.95114 0.0
H1952 H 0.57738 0.92453 0.95856 0.0
H1953 H 0.55372 0.94414 0.97635 0.0
H1954 H 0.62328 0.0183 0.96474 0.0
H1955 H 0.64666 0.99904 0.94661 0.0
H1956 H 0.59842 0.01301 0.01338 0.0
H1957 H 0.57764 0.99899 0.92497 0.0
H1958 H 0.56231 0.97326 0.88602 0.0
H1959 H 0.48548 0.92738 0.9219 0.0
H1960 H 0.50079 0.95211 0.96176 0.0
H1961 H 0.53388 0.08312 0.03571 0.0
H1962 H 0.56126 0.06751 0.01755 0.0
H1963 H 0.49316 0.99176 0.01564 0.0
H1964 H 0.46612 1.00696 0.03311 0.0
H1965 H 0.51969 1.0004 0.97236 0.0
H1966 H 0.54125 0.01184 0.0619 0.0
H1967 H 0.55724 0.03598 0.10197 0.0
H1968 H 0.63187 0.08657 0.06384 0.0
H1969 H 0.61619 0.0629 0.02342 0.0
C1970 C 0.58755 0.945 0.95962 0.0
C1971 C 0.6139 0.96011 0.95084 0.0
C1972 C 0.57403 0.95623 0.9699 0.0
C1973 C 0.58666 0.9828 0.97201 0.0
C1974 C 0.61301 0.99781 0.96351 0.0
C1975 C 0.62633 0.98669 0.95288 0.0
C1976 C 0.57239 0.99512 0.9823 0.0
C1977 C 0.58136 0.01045 0.00425 0.0
C1978 C 0.54999 0.99177 0.97061 0.0
C1979 C 0.54047 0.97721 0.9465 0.0
C1980 C 0.55754 0.98324 0.92471 0.0
C1981 C 0.54884 0.96884 0.90242 0.0
C1982 C 0.52288 0.94873 0.90138 0.0
C1983 C 0.5056 0.94295 0.92272 0.0
C1984 C 0.51432 0.95709 0.94524 0.0
C1985 C 0.52484 0.06315 0.03153 0.0
C1986 C 0.49769 0.04645 0.03595 0.0
C1987 C 0.54052 0.05417 0.02115 0.0
C1988 C 0.52942 0.02829 0.01514 0.0
C1989 C 0.50242 0.01179 0.01979 0.0
C1990 C 0.4869 0.02064 0.02998 0.0
C1991 C 0.54531 0.01791 0.00388 0.0
C1992 C 0.53673 1.003 0.98158 0.0
C1993 C 0.56799 0.02158 0.01532 0.0
C1994 C 0.57745 0.0358 0.03957 0.0
C1995 C 0.561 0.02824 0.06201 0.0
C1996 C 0.57002 0.04181 0.08479 0.0
C1997 C 0.59553 0.06285 0.08543 0.0
C1998 C 0.6121 0.07031 0.0633 0.0
C1999 C 0.60316 0.05682 0.04045 0.0
H2000 H 0.60248 0.07332 0.10308 0.0
H2001 H 0.51616 0.93765 0.88404 0.0
H2002 H 0.18285 0.67412 0.9766 0.0
H2003 H 0.16264 0.6325 -0.00181 0.0
H2004 H 0.09578 0.60379 0.95115 0.0
H2005 H 0.11602 0.64503 0.92916 0.0
H2006 H 0.08263 0.59435 0.00474 0.0
H2007 H 0.13555 0.58373 0.93999 0.0
H2008 H 0.17654 0.59513 0.91582 0.0
H2009 H 0.20979 0.59109 0.98573 0.0
H2010 H 0.1691 0.58001 0.01039 0.0
H2011 H 0.01535 0.4623 0.03887 0.0
H2012 H 0.03623 0.50463 0.01914 0.0
H2013 H 0.10885 0.52526 0.05305 0.0
H2014 H 0.08824 0.48277 0.07214 0.0
H2015 H 0.11977 0.53978 0.00636 0.0
H2016 H 0.0691 0.55047 0.07195 0.0
H2017 H 0.03058 0.54252 0.09864 0.0
H2018 H 0.99573 0.55004 0.03165 0.0
H2019 H 0.03383 0.55758 0.00446 0.0
C2020 C 0.16411 0.6588 0.97044 0.0
C2021 C 0.15124 0.66301 0.95092 0.0
C2022 C 0.1525 0.63499 0.9829 0.0
C2023 C 0.12758 0.6149 0.97642 0.0
C2024 C 0.11496 0.61891 0.95658 0.0
C2025 C 0.12673 0.64253 0.94384 0.0
C2026 C 0.11418 0.59007 0.99093 0.0
C2027 C 0.09055 0.58223 0.00489 0.0
C2028 C 0.12489 0.5746 0.99186 0.0
C2029 C 0.14938 0.58132 0.97708 0.0
C2030 C 0.15169 0.58552 0.95025 0.0
C2031 C 0.17486 0.59187 0.93645 0.0
C2032 C 0.19579 0.59391 0.94924 0.0
C2033 C 0.19358 0.58955 0.97586 0.0
C2034 C 0.17046 0.58322 0.98975 0.0
C2035 C 0.0356 0.47602 0.04264 0.0
C2036 C 0.05 0.46899 0.05726 0.0
C2037 C 0.04762 0.50037 0.03128 0.0
C2038 C 0.0743 0.51854 0.03449 0.0
C2039 C 0.08836 0.51179 0.04998 0.0
C2040 C 0.07643 0.48742 0.06113 0.0
C2041 C 0.08799 0.54383 0.0205 0.0
C2042 C 0.11173 0.55181 0.0065 0.0
C2043 C 0.07759 0.55968 0.01996 0.0
C2044 C 0.05418 0.5542 0.03609 0.0
C2045 C 0.05306 0.55006 0.06283 0.0
C2046 C 0.03133 0.54571 0.07807 0.0
C2047 C 1.01067 0.54567 0.06683 0.0
C2048 C 1.0117 0.54997 0.04032 0.0
C2049 C 0.03335 0.55426 0.02498 0.0
H2050 H 0.99391 0.54238 0.07868 0.0
H2051 H 0.2137 0.59881 0.93852 0.0
loop_
_geom_bond_atom_site_label_1
_geom_bond_atom_site_label_2
_geom_bond_distance
_geom_bond_site_symmetry_2
_ccdc_geom_bond_type
O0 Cd1 2.223 . S
O0 C8 1.315 . S
Cd1 O0 2.223 . S
Cd1 O4 2.297 . S
Cd1 O5 2.439 1_455 S
Cd1 O11 2.240 . S
Cd2 O3 2.240 . S
Cd2 O10 2.223 . S
Cd2 O12 2.297 1_455 S
Cd2 O13 2.439 1_455 S
O3 Cd2 2.240 . S
O3 C8 1.279 . S
O4 Cd1 2.297 . S
O4 C6 1.247 . S
O5 Cd1 2.439 1_655 S
O5 C6 1.208 1_655 S
C6 O4 1.247 . S
C6 O5 1.208 1_455 S
C7 O12 1.247 . S
C7 O13 1.208 . S
C8 O0 1.315 . S
C8 O3 1.279 . S
C9 O10 1.315 . S
C9 O11 1.279 . S
O10 Cd2 2.223 . S
O10 C9 1.315 . S
O11 Cd1 2.240 . S
O11 C9 1.279 . S
O12 Cd2 2.297 1_655 S
O12 C7 1.247 . S
O13 Cd2 2.439 1_655 S
O13 C7 1.208 . S
O14 Cd15 2.223 . S
O14 C22 1.315 . S
Cd15 O14 2.223 . S
Cd15 O18 2.297 . S
Cd15 O19 2.439 . S
Cd15 O25 2.240 . S
Cd16 O17 2.240 . S
Cd16 O24 2.223 . S
Cd16 O26 2.297 . S
Cd16 O27 2.439 . S
O17 Cd16 2.240 . S
O17 C22 1.279 . S
O18 Cd15 2.297 . S
O18 C20 1.247 . S
O19 Cd15 2.439 . S
O19 C20 1.208 . S
C20 O18 1.247 . S
C20 O19 1.208 . S
C21 O26 1.247 . S
C21 O27 1.208 . S
C22 O14 1.315 . S
C22 O17 1.279 . S
C23 O24 1.315 . S
C23 O25 1.279 . S
O24 Cd16 2.223 . S
O24 C23 1.315 . S
O25 Cd15 2.240 . S
O25 C23 1.279 . S
O26 Cd16 2.297 . S
O26 C21 1.247 . S
O27 Cd16 2.439 . S
O27 C21 1.208 . S
O28 Cd29 2.223 . S
O28 C36 1.315 . S
Cd29 O28 2.223 . S
Cd29 O32 2.297 . S
Cd29 O33 2.439 1_545 S
Cd29 O39 2.240 . S
Cd30 O31 2.240 . S
Cd30 O38 2.223 . S
Cd30 O40 2.297 1_545 S
Cd30 O41 2.439 1_545 S
O31 Cd30 2.240 . S
O31 C36 1.279 . S
O32 Cd29 2.297 . S
O32 C34 1.247 . S
O33 Cd29 2.439 1_565 S
O33 C34 1.208 1_565 S
C34 O32 1.247 . S
C34 O33 1.208 1_545 S
C35 O40 1.247 . S
C35 O41 1.208 . S
C36 O28 1.315 . S
C36 O31 1.279 . S
C37 O38 1.315 . S
C37 O39 1.279 . S
O38 Cd30 2.223 . S
O38 C37 1.315 . S
O39 Cd29 2.240 . S
O39 C37 1.279 . S
O40 Cd30 2.297 1_565 S
O40 C35 1.247 . S
O41 Cd30 2.439 1_565 S
O41 C35 1.208 . S
O42 Cd43 2.223 . S
O42 C50 1.315 . S
Cd43 O42 2.223 . S
Cd43 O46 2.297 . S
Cd43 O47 2.439 1_455 S
Cd43 O53 2.240 . S
Cd44 O45 2.240 . S
Cd44 O52 2.223 . S
Cd44 O54 2.297 1_455 S
Cd44 O55 2.439 1_455 S
O45 Cd44 2.240 . S
O45 C50 1.279 . S
O46 Cd43 2.297 . S
O46 C48 1.247 . S
O47 Cd43 2.439 1_655 S
O47 C48 1.208 1_655 S
C48 O46 1.247 . S
C48 O47 1.208 1_455 S
C49 O54 1.247 . S
C49 O55 1.208 . S
C50 O42 1.315 . S
C50 O45 1.279 . S
C51 O52 1.315 . S
C51 O53 1.279 . S
O52 Cd44 2.223 . S
O52 C51 1.315 . S
O53 Cd43 2.240 . S
O53 C51 1.279 . S
O54 Cd44 2.297 1_655 S
O54 C49 1.247 . S
O55 Cd44 2.439 1_655 S
O55 C49 1.208 . S
O56 Cd57 2.223 . S
O56 C64 1.315 . S
Cd57 O56 2.223 . S
Cd57 O60 2.297 . S
Cd57 O61 2.439 . S
Cd57 O67 2.240 . S
Cd58 O59 2.240 . S
Cd58 O66 2.223 . S
Cd58 O68 2.297 . S
Cd58 O69 2.439 . S
O59 Cd58 2.240 . S
O59 C64 1.279 . S
O60 Cd57 2.297 . S
O60 C62 1.247 . S
O61 Cd57 2.439 . S
O61 C62 1.208 . S
C62 O60 1.247 . S
C62 O61 1.208 . S
C63 O68 1.247 . S
C63 O69 1.208 . S
C64 O56 1.315 . S
C64 O59 1.279 . S
C65 O66 1.315 . S
C65 O67 1.279 . S
O66 Cd58 2.223 . S
O66 C65 1.315 . S
O67 Cd57 2.240 . S
O67 C65 1.279 . S
O68 Cd58 2.297 . S
O68 C63 1.247 . S
O69 Cd58 2.439 . S
O69 C63 1.208 . S
O70 Cd71 2.223 1_565 S
O70 C78 1.315 . S
Cd71 O70 2.223 1_545 S
Cd71 O74 2.297 . S
Cd71 O75 2.439 . S
Cd71 O81 2.240 . S
Cd72 O73 2.240 1_545 S
Cd72 O80 2.223 1_545 S
Cd72 O82 2.297 . S
Cd72 O83 2.439 . S
O73 Cd72 2.240 1_565 S
O73 C78 1.279 . S
O74 Cd71 2.297 . S
O74 C76 1.247 . S
O75 Cd71 2.439 . S
O75 C76 1.208 . S
C76 O74 1.247 . S
C76 O75 1.208 . S
C77 O82 1.247 . S
C77 O83 1.208 . S
C78 O70 1.315 . S
C78 O73 1.279 . S
C79 O80 1.309 . S
C79 O81 1.274 1_565 S
O80 Cd72 2.223 1_565 S
O80 C79 1.309 . S
O81 Cd71 2.240 . S
O81 C79 1.274 1_545 S
O82 Cd72 2.297 . S
O82 C77 1.247 . S
O83 Cd72 2.439 . S
O83 C77 1.208 . S
O84 Cd85 2.223 . S
O84 C92 1.315 . S
Cd85 O84 2.223 . S
Cd85 O88 2.297 . S
Cd85 O89 2.439 . S
Cd85 O95 2.240 . S
Cd86 O87 2.240 . S
Cd86 O94 2.223 . S
Cd86 O96 2.297 . S
Cd86 O97 2.439 . S
O87 Cd86 2.240 . S
O87 C92 1.279 . S
O88 Cd85 2.297 . S
O88 C90 1.247 . S
O89 Cd85 2.439 . S
O89 C90 1.208 . S
C90 O88 1.247 . S
C90 O89 1.208 . S
C91 O96 1.247 . S
C91 O97 1.208 . S
C92 O84 1.315 . S
C92 O87 1.279 . S
C93 O94 1.315 . S
C93 O95 1.279 . S
O94 Cd86 2.223 . S
O94 C93 1.315 . S
O95 Cd85 2.240 . S
O95 C93 1.279 . S
O96 Cd86 2.297 . S
O96 C91 1.247 . S
O97 Cd86 2.439 . S
O97 C91 1.208 . S
O98 Cd99 2.223 . S
O98 C106 1.315 . S
Cd99 O98 2.223 . S
Cd99 O102 2.297 . S
Cd99 O103 2.439 . S
Cd99 O109 2.240 . S
Cd100 O101 2.240 . S
Cd100 O108 2.223 . S
Cd100 O110 2.297 . S
Cd100 O111 2.439 . S
O101 Cd100 2.240 . S
O101 C106 1.279 . S
O102 Cd99 2.297 . S
O102 C104 1.247 . S
O103 Cd99 2.439 . S
O103 C104 1.208 . S
C104 O102 1.247 . S
C104 O103 1.208 . S
C105 O110 1.247 . S
C105 O111 1.208 . S
C106 O98 1.315 . S
C106 O101 1.279 . S
C107 O108 1.315 . S
C107 O109 1.279 . S
O108 Cd100 2.223 . S
O108 C107 1.315 . S
O109 Cd99 2.240 . S
O109 C107 1.279 . S
O110 Cd100 2.297 . S
O110 C105 1.247 . S
O111 Cd100 2.439 . S
O111 C105 1.208 . S
O112 Cd113 2.223 . S
O112 C120 1.315 . S
Cd113 O112 2.223 . S
Cd113 O116 2.297 . S
Cd113 O117 2.439 . S
Cd113 O123 2.240 . S
Cd114 O115 2.240 . S
Cd114 O122 2.223 . S
Cd114 O124 2.297 . S
Cd114 O125 2.439 . S
O115 Cd114 2.240 . S
O115 C120 1.279 . S
O116 Cd113 2.297 . S
O116 C118 1.247 . S
O117 Cd113 2.439 . S
O117 C118 1.208 . S
C118 O116 1.247 . S
C118 O117 1.208 . S
C119 O124 1.247 . S
C119 O125 1.208 . S
C120 O112 1.315 . S
C120 O115 1.279 . S
C121 O122 1.315 . S
C121 O123 1.279 . S
O122 Cd114 2.223 . S
O122 C121 1.315 . S
O123 Cd113 2.240 . S
O123 C121 1.279 . S
O124 Cd114 2.297 . S
O124 C119 1.247 . S
O125 Cd114 2.439 . S
O125 C119 1.208 . S
O126 Cd127 2.223 . S
O126 C134 1.315 . S
Cd127 O126 2.223 . S
Cd127 O130 2.297 . S
Cd127 O131 2.439 . S
Cd127 O137 2.240 . S
Cd128 O129 2.240 . S
Cd128 O136 2.223 . S
Cd128 O138 2.297 . S
Cd128 O139 2.439 . S
O129 Cd128 2.240 . S
O129 C134 1.279 . S
O130 Cd127 2.297 . S
O130 C132 1.247 . S
O131 Cd127 2.439 . S
O131 C132 1.208 . S
C132 O130 1.247 . S
C132 O131 1.208 . S
C133 O138 1.247 . S
C133 O139 1.208 . S
C134 O126 1.315 . S
C134 O129 1.279 . S
C135 O136 1.315 . S
C135 O137 1.279 . S
O136 Cd128 2.223 . S
O136 C135 1.315 . S
O137 Cd127 2.240 . S
O137 C135 1.279 . S
O138 Cd128 2.297 . S
O138 C133 1.247 . S
O139 Cd128 2.439 . S
O139 C133 1.208 . S
O140 Cd141 2.223 . S
O140 C148 1.315 . S
Cd141 O140 2.223 . S
Cd141 O144 2.297 . S
Cd141 O145 2.439 . S
Cd141 O151 2.240 . S
Cd142 O143 2.240 . S
Cd142 O150 2.223 . S
Cd142 O152 2.297 . S
Cd142 O153 2.439 . S
O143 Cd142 2.240 . S
O143 C148 1.279 . S
O144 Cd141 2.297 . S
O144 C146 1.247 . S
O145 Cd141 2.439 . S
O145 C146 1.208 . S
C146 O144 1.247 . S
C146 O145 1.208 . S
C147 O152 1.247 . S
C147 O153 1.208 . S
C148 O140 1.315 . S
C148 O143 1.279 . S
C149 O150 1.315 . S
C149 O151 1.279 . S
O150 Cd142 2.223 . S
O150 C149 1.315 . S
O151 Cd141 2.240 . S
O151 C149 1.279 . S
O152 Cd142 2.297 . S
O152 C147 1.247 . S
O153 Cd142 2.439 . S
O153 C147 1.208 . S
O154 Cd155 2.223 . S
O154 C162 1.315 . S
Cd155 O154 2.223 . S
Cd155 O158 2.297 . S
Cd155 O159 2.439 . S
Cd155 O165 2.240 . S
Cd156 O157 2.240 . S
Cd156 O164 2.223 . S
Cd156 O166 2.297 . S
Cd156 O167 2.439 . S
O157 Cd156 2.240 . S
O157 C162 1.279 . S
O158 Cd155 2.297 . S
O158 C160 1.247 . S
O159 Cd155 2.439 . S
O159 C160 1.208 . S
C160 O158 1.247 . S
C160 O159 1.208 . S
C161 O166 1.247 . S
C161 O167 1.208 . S
C162 O154 1.315 . S
C162 O157 1.279 . S
C163 O164 1.315 . S
C163 O165 1.279 . S
O164 Cd156 2.223 . S
O164 C163 1.315 . S
O165 Cd155 2.240 . S
O165 C163 1.279 . S
O166 Cd156 2.297 . S
O166 C161 1.247 . S
O167 Cd156 2.439 . S
O167 C161 1.208 . S
O168 Cd169 2.223 . S
O168 C176 1.315 . S
Cd169 O168 2.223 . S
Cd169 O172 2.297 . S
Cd169 O173 2.439 . S
Cd169 O179 2.240 . S
Cd170 O171 2.240 . S
Cd170 O178 2.223 . S
Cd170 O180 2.297 . S
Cd170 O181 2.439 . S
O171 Cd170 2.240 . S
O171 C176 1.279 . S
O172 Cd169 2.297 . S
O172 C174 1.247 . S
O173 Cd169 2.439 . S
O173 C174 1.208 . S
C174 O172 1.247 . S
C174 O173 1.208 . S
C175 O180 1.247 . S
C175 O181 1.208 . S
C176 O168 1.315 . S
C176 O171 1.279 . S
C177 O178 1.315 . S
C177 O179 1.279 . S
O178 Cd170 2.223 . S
O178 C177 1.315 . S
O179 Cd169 2.240 . S
O179 C177 1.279 . S
O180 Cd170 2.297 . S
O180 C175 1.247 . S
O181 Cd170 2.439 . S
O181 C175 1.208 . S
O182 Cd183 2.223 . S
O182 C190 1.315 . S
Cd183 O182 2.223 . S
Cd183 O186 2.297 . S
Cd183 O187 2.439 . S
Cd183 O193 2.240 . S
Cd184 O185 2.240 . S
Cd184 O192 2.223 . S
Cd184 O194 2.297 . S
Cd184 O195 2.439 . S
O185 Cd184 2.240 . S
O185 C190 1.279 . S
O186 Cd183 2.297 . S
O186 C188 1.247 . S
O187 Cd183 2.439 . S
O187 C188 1.208 . S
C188 O186 1.247 . S
C188 O187 1.208 . S
C189 O194 1.247 . S
C189 O195 1.208 . S
C190 O182 1.315 . S
C190 O185 1.279 . S
C191 O192 1.315 . S
C191 O193 1.279 . S
O192 Cd184 2.223 . S
O192 C191 1.315 . S
O193 Cd183 2.240 . S
O193 C191 1.279 . S
O194 Cd184 2.297 . S
O194 C189 1.247 . S
O195 Cd184 2.439 . S
O195 C189 1.208 . S
O196 Cd197 2.223 . S
O196 C204 1.315 . S
Cd197 O196 2.223 . S
Cd197 O200 2.297 . S
Cd197 O201 2.439 . S
Cd197 O207 2.240 . S
Cd198 O199 2.240 . S
Cd198 O206 2.223 . S
Cd198 O208 2.297 . S
Cd198 O209 2.439 . S
O199 Cd198 2.240 . S
O199 C204 1.279 . S
O200 Cd197 2.297 . S
O200 C202 1.247 . S
O201 Cd197 2.439 . S
O201 C202 1.208 . S
C202 O200 1.247 . S
C202 O201 1.208 . S
C203 O208 1.247 . S
C203 O209 1.208 . S
C204 O196 1.315 . S
C204 O199 1.279 . S
C205 O206 1.315 . S
C205 O207 1.279 . S
O206 Cd198 2.223 . S
O206 C205 1.315 . S
O207 Cd197 2.240 . S
O207 C205 1.279 . S
O208 Cd198 2.297 . S
O208 C203 1.247 . S
O209 Cd198 2.439 . S
O209 C203 1.208 . S
O210 Cd211 2.223 . S
O210 C218 1.315 . S
Cd211 O210 2.223 . S
Cd211 O214 2.297 . S
Cd211 O215 2.439 . S
Cd211 O221 2.240 . S
Cd212 O213 2.240 . S
Cd212 O220 2.223 . S
Cd212 O222 2.297 . S
Cd212 O223 2.439 . S
O213 Cd212 2.240 . S
O213 C218 1.279 . S
O214 Cd211 2.297 . S
O214 C216 1.247 . S
O215 Cd211 2.439 . S
O215 C216 1.208 . S
C216 O214 1.247 . S
C216 O215 1.208 . S
C217 O222 1.247 . S
C217 O223 1.208 . S
C218 O210 1.315 . S
C218 O213 1.279 . S
C219 O220 1.315 . S
C219 O221 1.279 . S
O220 Cd212 2.223 . S
O220 C219 1.315 . S
O221 Cd211 2.240 . S
O221 C219 1.279 . S
O222 Cd212 2.297 . S
O222 C217 1.247 . S
O223 Cd212 2.439 . S
O223 C217 1.208 . S
O224 Cd225 2.223 . S
O224 C232 1.315 . S
Cd225 O224 2.223 . S
Cd225 O228 2.297 . S
Cd225 O229 2.439 . S
Cd225 O235 2.240 . S
Cd226 O227 2.240 . S
Cd226 O234 2.223 . S
Cd226 O236 2.297 . S
Cd226 O237 2.439 . S
O227 Cd226 2.240 . S
O227 C232 1.279 . S
O228 Cd225 2.297 . S
O228 C230 1.247 . S
O229 Cd225 2.439 . S
O229 C230 1.208 . S
C230 O228 1.247 . S
C230 O229 1.208 . S
C231 O236 1.247 . S
C231 O237 1.208 . S
C232 O224 1.315 . S
C232 O227 1.279 . S
C233 O234 1.315 . S
C233 O235 1.279 . S
O234 Cd226 2.223 . S
O234 C233 1.315 . S
O235 Cd225 2.240 . S
O235 C233 1.279 . S
O236 Cd226 2.297 . S
O236 C231 1.247 . S
O237 Cd226 2.439 . S
O237 C231 1.208 . S
O238 Cd239 2.223 . S
O238 C246 1.315 . S
Cd239 O238 2.223 . S
Cd239 O242 2.297 . S
Cd239 O243 2.439 . S
Cd239 O249 2.240 . S
Cd240 O241 2.240 . S
Cd240 O248 2.223 . S
Cd240 O250 2.297 . S
Cd240 O251 2.439 . S
O241 Cd240 2.240 . S
O241 C246 1.279 . S
O242 Cd239 2.297 . S
O242 C244 1.247 . S
O243 Cd239 2.439 . S
O243 C244 1.208 . S
C244 O242 1.247 . S
C244 O243 1.208 . S
C245 O250 1.247 . S
C245 O251 1.208 . S
C246 O238 1.315 . S
C246 O241 1.279 . S
C247 O248 1.315 . S
C247 O249 1.279 . S
O248 Cd240 2.223 . S
O248 C247 1.315 . S
O249 Cd239 2.240 . S
O249 C247 1.279 . S
O250 Cd240 2.297 . S
O250 C245 1.247 . S
O251 Cd240 2.439 . S
O251 C245 1.208 . S
H252 C270 0.951 . S
H253 C272 0.951 . S
H254 C274 0.950 . S
H255 C275 0.950 . S
H256 C277 0.950 . S
H257 C280 0.950 . S
H258 C281 0.950 . S
H259 C283 0.950 . S
H260 C284 0.950 . S
H261 C285 0.951 . S
H262 C287 0.951 . S
H263 C289 0.950 . S
H264 C290 0.950 . S
H265 C292 0.950 . S
H266 C295 0.950 . S
H267 C296 0.950 . S
H268 C298 0.950 . S
H269 C299 0.950 . S
C270 H252 0.951 . S
C270 C271 1.366 . S
C270 C272 1.388 . S
C271 C270 1.366 . S
C271 C275 1.385 . S
C272 H253 0.951 . S
C272 C270 1.388 . S
C272 C273 1.366 . S
C273 C272 1.366 . S
C273 C274 1.414 . S
C273 C276 1.499 . S
C274 H254 0.950 . S
C274 C273 1.414 . S
C274 C275 1.374 . S
C275 H255 0.950 . S
C275 C271 1.385 . S
C275 C274 1.374 . S
C276 C273 1.499 . S
C276 C277 1.373 . S
C276 C278 1.389 . S
C277 H256 0.950 . S
C277 C276 1.373 . S
C277 C293 1.377 . S
C278 C276 1.389 . S
C278 C279 1.524 . S
C278 C292 1.377 . S
C279 C278 1.524 . S
C279 C280 1.397 . S
C279 C284 1.363 . S
C280 H257 0.950 . S
C280 C279 1.397 . S
C280 C281 1.334 1_455 S
C281 H258 0.950 . S
C281 C280 1.334 1_655 S
C281 C282 1.287 . S
C282 C281 1.287 . S
C282 C283 1.524 1_655 S
C282 H301 0.913 . S
C283 H259 0.950 . S
C283 C282 1.524 1_455 S
C283 C284 1.415 . S
C284 H260 0.950 . S
C284 C279 1.363 . S
C284 C283 1.415 . S
C285 H261 0.951 . S
C285 C286 1.366 1_554 S
C285 C287 1.388 . S
C286 C285 1.366 1_556 S
C286 C290 1.385 . S
C287 H262 0.951 . S
C287 C285 1.388 . S
C287 C288 1.366 . S
C288 C287 1.366 . S
C288 C289 1.414 . S
C288 C291 1.499 . S
C289 H263 0.950 . S
C289 C288 1.414 . S
C289 C290 1.374 1_554 S
C290 H264 0.950 . S
C290 C286 1.385 . S
C290 C289 1.374 1_556 S
C291 C288 1.499 . S
C291 C292 1.373 . S
C291 C293 1.389 . S
C292 H265 0.950 . S
C292 C278 1.377 . S
C292 C291 1.373 . S
C293 C277 1.377 . S
C293 C291 1.389 . S
C293 C294 1.524 . S
C294 C293 1.524 . S
C294 C295 1.397 . S
C294 C299 1.363 . S
C295 H266 0.950 . S
C295 C294 1.397 . S
C295 C296 1.334 . S
C296 H267 0.950 . S
C296 C295 1.334 . S
C296 C297 1.287 . S
C297 C296 1.287 . S
C297 C298 1.524 . S
C297 H300 0.999 . S
C298 H268 0.950 . S
C298 C297 1.524 . S
C298 C299 1.415 . S
C299 H269 0.950 . S
C299 C294 1.363 . S
C299 C298 1.415 . S
H300 C297 0.999 . S
H301 C282 0.913 . S
H302 C320 0.955 . S
H303 C322 0.951 . S
H304 C324 0.950 . S
H305 C325 0.950 . S
H306 C327 0.950 . S
H307 C330 0.950 . S
H308 C331 0.950 . S
H309 C333 0.950 . S
H310 C334 0.950 . S
H311 C335 0.951 . S
H312 C337 0.951 . S
H313 C339 0.950 . S
H314 C340 0.950 . S
H315 C342 0.950 . S
H316 C345 0.950 . S
H317 C346 0.950 . S
H318 C348 0.950 . S
H319 C349 0.950 . S
C320 H302 0.955 . S
C320 C321 1.368 . S
C320 C322 1.382 1_556 S
C321 C320 1.368 . S
C321 C325 1.385 1_556 S
C322 H303 0.951 . S
C322 C320 1.382 1_554 S
C322 C323 1.366 . S
C323 C322 1.366 . S
C323 C324 1.414 . S
C323 C326 1.499 . S
C324 H304 0.950 . S
C324 C323 1.414 . S
C324 C325 1.374 . S
C325 H305 0.950 . S
C325 C321 1.385 1_554 S
C325 C324 1.374 . S
C326 C323 1.499 . S
C326 C327 1.373 . S
C326 C328 1.389 . S
C327 H306 0.950 . S
C327 C326 1.373 . S
C327 C343 1.377 . S
C328 C326 1.389 . S
C328 C329 1.524 . S
C328 C342 1.377 . S
C329 C328 1.524 . S
C329 C330 1.397 . S
C329 C334 1.363 . S
C330 H307 0.950 . S
C330 C329 1.397 . S
C330 C331 1.334 . S
C331 H308 0.950 . S
C331 C330 1.334 . S
C331 C332 1.287 . S
C332 C331 1.287 . S
C332 C333 1.524 . S
C332 H351 0.940 . S
C333 H309 0.950 . S
C333 C332 1.524 . S
C333 C334 1.415 . S
C334 H310 0.950 . S
C334 C329 1.363 . S
C334 C333 1.415 . S
C335 H311 0.951 . S
C335 C336 1.366 . S
C335 C337 1.388 . S
C336 C335 1.366 . S
C336 C340 1.385 . S
C337 H312 0.951 . S
C337 C335 1.388 . S
C337 C338 1.366 . S
C338 C337 1.366 . S
C338 C339 1.414 . S
C338 C341 1.499 . S
C339 H313 0.950 . S
C339 C338 1.414 . S
C339 C340 1.374 . S
C340 H314 0.950 . S
C340 C336 1.385 . S
C340 C339 1.374 . S
C341 C338 1.499 . S
C341 C342 1.373 . S
C341 C343 1.389 . S
C342 H315 0.950 . S
C342 C328 1.377 . S
C342 C341 1.373 . S
C343 C327 1.377 . S
C343 C341 1.389 . S
C343 C344 1.524 . S
C344 C343 1.524 . S
C344 C345 1.397 . S
C344 C349 1.363 . S
C345 H316 0.950 . S
C345 C344 1.397 . S
C345 C346 1.334 . S
C346 H317 0.950 . S
C346 C345 1.334 . S
C346 C347 1.287 . S
C347 C346 1.287 . S
C347 C348 1.524 . S
C347 H350 0.999 . S
C348 H318 0.950 . S
C348 C347 1.524 . S
C348 C349 1.415 . S
C349 H319 0.950 . S
C349 C344 1.363 . S
C349 C348 1.415 . S
H350 C347 0.999 . S
H351 C332 0.940 . S
H352 C370 0.951 . S
H353 C372 0.951 . S
H354 C374 0.950 . S
H355 C375 0.950 . S
H356 C377 0.950 . S
H357 C380 0.950 1_545 S
H358 C381 0.950 . S
H359 C383 0.950 . S
H360 C384 0.950 . S
H361 C385 0.951 . S
H362 C387 0.951 . S
H363 C389 0.950 1_554 S
H364 C390 0.950 . S
H365 C392 0.950 . S
H366 C395 0.950 . S
H367 C396 0.950 . S
H368 C398 0.950 . S
H369 C399 0.950 1_545 S
C370 H352 0.951 . S
C370 C371 1.366 . S
C370 C372 1.388 . S
C371 C370 1.366 . S
C371 C375 1.385 1_565 S
C372 H353 0.951 . S
C372 C370 1.388 . S
C372 C373 1.366 . S
C373 C372 1.366 . S
C373 C374 1.414 1_565 S
C373 C376 1.499 . S
C374 H354 0.950 . S
C374 C373 1.414 1_545 S
C374 C375 1.374 . S
C375 H355 0.950 . S
C375 C371 1.385 1_545 S
C375 C374 1.374 . S
C376 C373 1.499 . S
C376 C377 1.373 . S
C376 C378 1.389 . S
C377 H356 0.950 . S
C377 C376 1.373 . S
C377 C393 1.377 . S
C378 C376 1.389 . S
C378 C379 1.524 . S
C378 C392 1.377 . S
C379 C378 1.524 . S
C379 C380 1.397 . S
C379 C384 1.363 . S
C380 H357 0.950 1_565 S
C380 C379 1.397 . S
C380 C381 1.334 1_565 S
C381 H358 0.950 . S
C381 C380 1.334 1_545 S
C381 C382 1.287 1_545 S
C382 C381 1.287 1_565 S
C382 C383 1.524 . S
C382 H401 0.913 . S
C383 H359 0.950 . S
C383 C382 1.524 . S
C383 C384 1.415 . S
C384 H360 0.950 . S
C384 C379 1.363 . S
C384 C383 1.415 . S
C385 H361 0.951 . S
C385 C386 1.366 . S
C385 C387 1.388 1_556 S
C386 C385 1.366 . S
C386 C390 1.385 . S
C387 H362 0.951 . S
C387 C385 1.388 1_554 S
C387 C388 1.366 . S
C388 C387 1.366 . S
C388 C389 1.414 1_554 S
C388 C391 1.499 . S
C389 H363 0.950 1_556 S
C389 C388 1.414 1_556 S
C389 C390 1.374 . S
C390 H364 0.950 . S
C390 C386 1.385 . S
C390 C389 1.374 . S
C391 C388 1.499 . S
C391 C392 1.373 . S
C391 C393 1.389 . S
C392 H365 0.950 . S
C392 C378 1.377 . S
C392 C391 1.373 . S
C393 C377 1.377 . S
C393 C391 1.389 . S
C393 C394 1.524 . S
C394 C393 1.524 . S
C394 C395 1.397 . S
C394 C399 1.363 . S
C395 H366 0.950 . S
C395 C394 1.397 . S
C395 C396 1.334 . S
C396 H367 0.950 . S
C396 C395 1.334 . S
C396 C397 1.287 . S
C397 C396 1.287 . S
C397 C398 1.524 . S
C397 H400 0.999 . S
C398 H368 0.950 . S
C398 C397 1.524 . S
C398 C399 1.415 . S
C399 H369 0.950 1_565 S
C399 C394 1.363 . S
C399 C398 1.415 . S
H400 C397 0.999 . S
H401 C382 0.913 . S
H402 C420 0.951 . S
H403 C422 0.951 . S
H404 C424 0.950 . S
H405 C425 0.950 . S
H406 C427 0.950 . S
H407 C430 0.950 . S
H408 C431 0.950 . S
H409 C433 0.950 . S
H410 C434 0.950 . S
H411 C435 0.951 . S
H412 C437 0.951 . S
H413 C439 0.950 . S
H414 C440 0.950 . S
H415 C442 0.950 . S
H416 C445 0.950 . S
H417 C446 0.950 . S
H418 C448 0.950 . S
H419 C449 0.950 . S
C420 H402 0.951 . S
C420 C421 1.366 . S
C420 C422 1.388 . S
C421 C420 1.366 . S
C421 C425 1.385 . S
C422 H403 0.951 . S
C422 C420 1.388 . S
C422 C423 1.366 . S
C423 C422 1.366 . S
C423 C424 1.414 . S
C423 C426 1.499 . S
C424 H404 0.950 . S
C424 C423 1.414 . S
C424 C425 1.374 . S
C425 H405 0.950 . S
C425 C421 1.385 . S
C425 C424 1.374 . S
C426 C423 1.499 . S
C426 C427 1.373 . S
C426 C428 1.389 . S
C427 H406 0.950 . S
C427 C426 1.373 . S
C427 C443 1.377 . S
C428 C426 1.389 . S
C428 C429 1.524 . S
C428 C442 1.377 . S
C429 C428 1.524 . S
C429 C430 1.397 . S
C429 C434 1.363 . S
C430 H407 0.950 . S
C430 C429 1.397 . S
C430 C431 1.334 . S
C431 H408 0.950 . S
C431 C430 1.334 . S
C431 C432 1.287 . S
C432 C431 1.287 . S
C432 C433 1.524 . S
C432 H451 0.913 . S
C433 H409 0.950 . S
C433 C432 1.524 . S
C433 C434 1.415 . S
C434 H410 0.950 . S
C434 C429 1.363 . S
C434 C433 1.415 . S
C435 H411 0.951 . S
C435 C436 1.366 . S
C435 C437 1.388 . S
C436 C435 1.366 . S
C436 C440 1.385 . S
C437 H412 0.951 . S
C437 C435 1.388 . S
C437 C438 1.366 . S
C438 C437 1.366 . S
C438 C439 1.414 . S
C438 C441 1.499 . S
C439 H413 0.950 . S
C439 C438 1.414 . S
C439 C440 1.374 . S
C440 H414 0.950 . S
C440 C436 1.385 . S
C440 C439 1.374 . S
C441 C438 1.499 . S
C441 C442 1.373 . S
C441 C443 1.389 . S
C442 H415 0.950 . S
C442 C428 1.377 . S
C442 C441 1.373 . S
C443 C427 1.377 . S
C443 C441 1.389 . S
C443 C444 1.524 . S
C444 C443 1.524 . S
C444 C445 1.397 . S
C444 C449 1.363 1_545 S
C445 H416 0.950 . S
C445 C444 1.397 . S
C445 C446 1.334 1_545 S
C446 H417 0.950 . S
C446 C445 1.334 1_565 S
C446 C447 1.287 . S
C447 C446 1.287 . S
C447 C448 1.524 . S
C447 H450 0.999 . S
C448 H418 0.950 . S
C448 C447 1.524 . S
C448 C449 1.415 . S
C449 H419 0.950 . S
C449 C444 1.363 1_565 S
C449 C448 1.415 . S
H450 C447 0.999 . S
H451 C432 0.913 . S
H452 C470 0.951 . S
H453 C472 0.951 1_455 S
H454 C474 0.950 . S
H455 C475 0.950 . S
H456 C477 0.950 . S
H457 C480 0.950 . S
H458 C481 0.950 . S
H459 C483 0.950 . S
H460 C484 0.950 . S
H461 C485 0.951 . S
H462 C487 0.951 . S
H463 C489 0.950 . S
H464 C490 0.950 . S
H465 C492 0.950 . S
H466 C495 0.950 1_455 S
H467 C496 0.946 1_455 S
H468 C498 0.950 . S
H469 C499 0.950 . S
C470 H452 0.951 . S
C470 C471 1.366 . S
C470 C472 1.388 . S
C471 C470 1.366 . S
C471 C475 1.385 . S
C472 H453 0.951 1_655 S
C472 C470 1.388 . S
C472 C473 1.366 . S
C473 C472 1.366 . S
C473 C474 1.414 . S
C473 C476 1.499 . S
C474 H454 0.950 . S
C474 C473 1.414 . S
C474 C475 1.374 . S
C475 H455 0.950 . S
C475 C471 1.385 . S
C475 C474 1.374 . S
C476 C473 1.499 . S
C476 C477 1.373 . S
C476 C478 1.389 . S
C477 H456 0.950 . S
C477 C476 1.373 . S
C477 C493 1.377 . S
C478 C476 1.389 . S
C478 C479 1.524 . S
C478 C492 1.377 . S
C479 C478 1.524 . S
C479 C480 1.397 . S
C479 C484 1.363 1_655 S
C480 H457 0.950 . S
C480 C479 1.397 . S
C480 C481 1.334 . S
C481 H458 0.950 . S
C481 C480 1.334 . S
C481 C482 1.287 . S
C482 C481 1.287 . S
C482 C483 1.524 1_655 S
C482 H501 0.913 . S
C483 H459 0.950 . S
C483 C482 1.524 1_455 S
C483 C484 1.415 . S
C484 H460 0.950 . S
C484 C479 1.363 1_455 S
C484 C483 1.415 . S
C485 H461 0.951 . S
C485 C486 1.366 . S
C485 C487 1.388 . S
C486 C485 1.366 . S
C486 C490 1.385 1_655 S
C487 H462 0.951 . S
C487 C485 1.388 . S
C487 C488 1.366 . S
C488 C487 1.366 . S
C488 C489 1.414 1_655 S
C488 C491 1.499 . S
C489 H463 0.950 . S
C489 C488 1.414 1_455 S
C489 C490 1.374 . S
C490 H464 0.950 . S
C490 C486 1.385 1_455 S
C490 C489 1.374 . S
C491 C488 1.499 . S
C491 C492 1.373 . S
C491 C493 1.389 . S
C492 H465 0.950 . S
C492 C478 1.377 . S
C492 C491 1.373 . S
C493 C477 1.377 . S
C493 C491 1.389 . S
C493 C494 1.524 . S
C494 C493 1.524 . S
C494 C495 1.397 . S
C494 C499 1.363 . S
C495 H466 0.950 1_655 S
C495 C494 1.397 . S
C495 C496 1.334 . S
C496 H467 0.946 1_655 S
C496 C495 1.334 . S
C496 C497 1.287 . S
C497 C496 1.287 . S
C497 C498 1.524 . S
C497 H500 0.999 . S
C498 H468 0.950 . S
C498 C497 1.524 . S
C498 C499 1.415 . S
C499 H469 0.950 . S
C499 C494 1.363 . S
C499 C498 1.415 . S
H500 C497 0.999 . S
H501 C482 0.913 . S
H502 C520 0.951 . S
H503 C522 0.951 . S
H504 C524 0.950 . S
H505 C525 0.950 . S
H506 C527 0.950 . S
H507 C530 0.950 . S
H508 C531 0.950 . S
H509 C533 0.950 . S
H510 C534 0.950 . S
H511 C535 0.951 . S
H512 C537 0.951 . S
H513 C539 0.950 . S
H514 C540 0.950 . S
H515 C542 0.950 . S
H516 C545 0.950 . S
H517 C546 0.950 . S
H518 C548 0.950 . S
H519 C549 0.950 . S
C520 H502 0.951 . S
C520 C521 1.366 . S
C520 C522 1.388 . S
C521 C520 1.366 . S
C521 C525 1.385 . S
C522 H503 0.951 . S
C522 C520 1.388 . S
C522 C523 1.366 . S
C523 C522 1.366 . S
C523 C524 1.414 . S
C523 C526 1.499 . S
C524 H504 0.950 . S
C524 C523 1.414 . S
C524 C525 1.374 . S
C525 H505 0.950 . S
C525 C521 1.385 . S
C525 C524 1.374 . S
C526 C523 1.499 . S
C526 C527 1.373 . S
C526 C528 1.389 . S
C527 H506 0.950 . S
C527 C526 1.373 . S
C527 C543 1.377 . S
C528 C526 1.389 . S
C528 C529 1.524 . S
C528 C542 1.377 . S
C529 C528 1.524 . S
C529 C530 1.397 . S
C529 C534 1.363 . S
C530 H507 0.950 . S
C530 C529 1.397 . S
C530 C531 1.334 . S
C531 H508 0.950 . S
C531 C530 1.334 . S
C531 C532 1.287 . S
C532 C531 1.287 . S
C532 C533 1.524 . S
C532 H551 0.913 . S
C533 H509 0.950 . S
C533 C532 1.524 . S
C533 C534 1.415 . S
C534 H510 0.950 . S
C534 C529 1.363 . S
C534 C533 1.415 . S
C535 H511 0.951 . S
C535 C536 1.366 . S
C535 C537 1.388 . S
C536 C535 1.366 . S
C536 C540 1.385 . S
C537 H512 0.951 . S
C537 C535 1.388 . S
C537 C538 1.366 . S
C538 C537 1.366 . S
C538 C539 1.414 . S
C538 C541 1.499 . S
C539 H513 0.950 . S
C539 C538 1.414 . S
C539 C540 1.374 . S
C540 H514 0.950 . S
C540 C536 1.385 . S
C540 C539 1.374 . S
C541 C538 1.499 . S
C541 C542 1.373 . S
C541 C543 1.389 . S
C542 H515 0.950 . S
C542 C528 1.377 . S
C542 C541 1.373 . S
C543 C527 1.377 . S
C543 C541 1.389 . S
C543 C544 1.524 . S
C544 C543 1.524 . S
C544 C545 1.397 . S
C544 C549 1.363 . S
C545 H516 0.950 . S
C545 C544 1.397 . S
C545 C546 1.334 . S
C546 H517 0.950 . S
C546 C545 1.334 . S
C546 C547 1.287 . S
C547 C546 1.287 . S
C547 C548 1.524 . S
C547 H550 0.999 . S
C548 H518 0.950 . S
C548 C547 1.524 . S
C548 C549 1.415 . S
C549 H519 0.950 . S
C549 C544 1.363 . S
C549 C548 1.415 . S
H550 C547 0.999 . S
H551 C532 0.913 . S
H552 C570 0.951 . S
H553 C572 0.951 . S
H554 C574 0.950 . S
H555 C575 0.950 . S
H556 C577 0.950 . S
H557 C580 0.950 . S
H558 C581 0.950 . S
H559 C583 0.950 . S
H560 C584 0.953 . S
H561 C585 0.951 . S
H562 C587 0.951 . S
H563 C589 0.901 1_455 S
H564 C590 0.950 . S
H565 C592 0.950 . S
H566 C595 0.950 . S
H567 C596 0.950 . S
H568 C598 0.950 . S
H569 C599 0.950 . S
C570 H552 0.951 . S
C570 C571 1.366 1_455 S
C570 C572 1.388 . S
C571 C570 1.366 1_655 S
C571 C575 1.385 . S
C572 H553 0.951 . S
C572 C570 1.388 . S
C572 C573 1.366 1_455 S
C573 C572 1.366 1_655 S
C573 C574 1.414 . S
C573 C576 1.499 . S
C574 H554 0.950 . S
C574 C573 1.414 . S
C574 C575 1.374 . S
C575 H555 0.950 . S
C575 C571 1.385 . S
C575 C574 1.374 . S
C576 C573 1.499 . S
C576 C577 1.373 . S
C576 C578 1.389 . S
C577 H556 0.950 . S
C577 C576 1.373 . S
C577 C593 1.377 . S
C578 C576 1.389 . S
C578 C579 1.524 . S
C578 C592 1.377 . S
C579 C578 1.524 . S
C579 C580 1.397 . S
C579 C584 1.363 . S
C580 H557 0.950 . S
C580 C579 1.397 . S
C580 C581 1.334 . S
C581 H558 0.950 . S
C581 C580 1.334 . S
C581 C582 1.287 . S
C582 C581 1.287 . S
C582 C583 1.524 . S
C582 H601 0.913 . S
C583 H559 0.950 . S
C583 C582 1.524 . S
C583 C584 1.415 . S
C584 H560 0.953 . S
C584 C579 1.363 . S
C584 C583 1.415 . S
C585 H561 0.951 . S
C585 C586 1.366 . S
C585 C587 1.388 1_554 S
C586 C585 1.366 . S
C586 C590 1.385 . S
C587 H562 0.951 . S
C587 C585 1.388 1_556 S
C587 C588 1.366 . S
C588 C587 1.366 . S
C588 C589 1.428 . S
C588 C591 1.499 . S
C589 H563 0.901 1_655 S
C589 C588 1.428 . S
C589 C590 1.358 1_556 S
C590 H564 0.950 . S
C590 C586 1.385 . S
C590 C589 1.358 1_554 S
C591 C588 1.499 . S
C591 C592 1.373 . S
C591 C593 1.389 . S
C592 H565 0.950 . S
C592 C578 1.377 . S
C592 C591 1.373 . S
C593 C577 1.377 . S
C593 C591 1.389 . S
C593 C594 1.524 . S
C594 C593 1.524 . S
C594 C595 1.397 1_655 S
C594 C599 1.363 . S
C595 H566 0.950 . S
C595 C594 1.397 1_455 S
C595 C596 1.334 . S
C596 H567 0.950 . S
C596 C595 1.334 . S
C596 C597 1.287 . S
C597 C596 1.287 . S
C597 C598 1.524 1_455 S
C597 H600 0.999 . S
C598 H568 0.950 . S
C598 C597 1.524 1_655 S
C598 C599 1.415 . S
C599 H569 0.950 . S
C599 C594 1.363 . S
C599 C598 1.415 . S
H600 C597 0.999 . S
H601 C582 0.913 . S
H602 C620 0.951 . S
H603 C622 0.951 . S
H604 C624 0.950 . S
H605 C625 0.950 1_554 S
H606 C627 0.950 . S
H607 C630 0.950 . S
H608 C631 0.950 1_554 S
H609 C633 0.950 . S
H610 C634 0.950 . S
H611 C635 0.951 . S
H612 C637 0.951 . S
H613 C639 0.950 . S
H614 C640 0.950 . S
H615 C642 0.950 . S
H616 C645 0.950 . S
H617 C646 0.950 . S
H618 C648 0.950 . S
H619 C649 0.950 . S
C620 H602 0.951 . S
C620 C621 1.366 1_556 S
C620 C622 1.388 . S
C621 C620 1.366 1_554 S
C621 C625 1.385 1_554 S
C622 H603 0.951 . S
C622 C620 1.388 . S
C622 C623 1.366 . S
C623 C622 1.366 . S
C623 C624 1.414 . S
C623 C626 1.499 . S
C624 H604 0.950 . S
C624 C623 1.414 . S
C624 C625 1.374 . S
C625 H605 0.950 1_556 S
C625 C621 1.385 1_556 S
C625 C624 1.374 . S
C626 C623 1.499 . S
C626 C627 1.373 . S
C626 C628 1.389 . S
C627 H606 0.950 . S
C627 C626 1.373 . S
C627 C643 1.377 . S
C628 C626 1.389 . S
C628 C629 1.524 . S
C628 C642 1.377 . S
C629 C628 1.524 . S
C629 C630 1.397 . S
C629 C634 1.363 . S
C630 H607 0.950 . S
C630 C629 1.397 . S
C630 C631 1.334 . S
C631 H608 0.950 1_556 S
C631 C630 1.334 . S
C631 C632 1.287 . S
C632 C631 1.287 . S
C632 C633 1.524 . S
C632 H651 0.913 . S
C633 H609 0.950 . S
C633 C632 1.524 . S
C633 C634 1.415 . S
C634 H610 0.950 . S
C634 C629 1.363 . S
C634 C633 1.415 . S
C635 H611 0.951 . S
C635 C636 1.366 . S
C635 C637 1.388 . S
C636 C635 1.366 . S
C636 C640 1.385 . S
C637 H612 0.951 . S
C637 C635 1.388 . S
C637 C638 1.366 . S
C638 C637 1.366 . S
C638 C639 1.414 . S
C638 C641 1.499 . S
C639 H613 0.950 . S
C639 C638 1.414 . S
C639 C640 1.374 . S
C640 H614 0.950 . S
C640 C636 1.385 . S
C640 C639 1.374 . S
C641 C638 1.499 . S
C641 C642 1.373 . S
C641 C643 1.389 . S
C642 H615 0.950 . S
C642 C628 1.377 . S
C642 C641 1.373 . S
C643 C627 1.377 . S
C643 C641 1.389 . S
C643 C644 1.524 . S
C644 C643 1.524 . S
C644 C645 1.397 . S
C644 C649 1.363 . S
C645 H616 0.950 . S
C645 C644 1.397 . S
C645 C646 1.334 . S
C646 H617 0.950 . S
C646 C645 1.334 . S
C646 C647 1.287 . S
C647 C646 1.287 . S
C647 C648 1.524 . S
C647 H650 0.999 . S
C648 H618 0.950 . S
C648 C647 1.524 . S
C648 C649 1.415 . S
C649 H619 0.950 . S
C649 C644 1.363 . S
C649 C648 1.415 . S
H650 C647 0.999 . S
H651 C632 0.913 . S
H652 C670 0.951 . S
H653 C672 0.951 . S
H654 C674 0.950 . S
H655 C675 0.950 . S
H656 C677 0.950 . S
H657 C680 0.950 . S
H658 C681 0.950 . S
H659 C683 0.950 . S
H660 C684 0.950 . S
H661 C685 0.951 . S
H662 C687 0.951 . S
H663 C689 0.950 . S
H664 C690 0.950 . S
H665 C692 0.950 . S
H666 C695 0.950 . S
H667 C696 0.950 . S
H668 C698 0.950 . S
H669 C699 0.950 . S
C670 H652 0.951 . S
C670 C671 1.366 . S
C670 C672 1.388 1_554 S
C671 C670 1.366 . S
C671 C675 1.385 . S
C672 H653 0.951 . S
C672 C670 1.388 1_556 S
C672 C673 1.366 . S
C673 C672 1.366 . S
C673 C674 1.414 1_556 S
C673 C676 1.499 . S
C674 H654 0.950 . S
C674 C673 1.414 1_554 S
C674 C675 1.374 . S
C675 H655 0.950 . S
C675 C671 1.385 . S
C675 C674 1.374 . S
C676 C673 1.499 . S
C676 C677 1.373 . S
C676 C678 1.389 . S
C677 H656 0.950 . S
C677 C676 1.373 . S
C677 C693 1.377 . S
C678 C676 1.389 . S
C678 C679 1.524 . S
C678 C692 1.377 . S
C679 C678 1.524 . S
C679 C680 1.397 . S
C679 C684 1.363 . S
C680 H657 0.950 . S
C680 C679 1.397 . S
C680 C681 1.334 . S
C681 H658 0.950 . S
C681 C680 1.334 . S
C681 C682 1.287 . S
C682 C681 1.287 . S
C682 C683 1.524 . S
C682 H701 0.913 . S
C683 H659 0.950 . S
C683 C682 1.524 . S
C683 C684 1.415 . S
C684 H660 0.950 . S
C684 C679 1.363 . S
C684 C683 1.415 . S
C685 H661 0.951 . S
C685 C686 1.366 . S
C685 C687 1.388 . S
C686 C685 1.366 . S
C686 C690 1.385 . S
C687 H662 0.951 . S
C687 C685 1.388 . S
C687 C688 1.366 . S
C688 C687 1.366 . S
C688 C689 1.414 . S
C688 C691 1.499 . S
C689 H663 0.950 . S
C689 C688 1.414 . S
C689 C690 1.374 . S
C690 H664 0.950 . S
C690 C686 1.385 . S
C690 C689 1.374 . S
C691 C688 1.499 . S
C691 C692 1.373 . S
C691 C693 1.389 . S
C692 H665 0.950 . S
C692 C678 1.377 . S
C692 C691 1.373 . S
C693 C677 1.377 . S
C693 C691 1.389 . S
C693 C694 1.524 . S
C694 C693 1.524 . S
C694 C695 1.397 . S
C694 C699 1.363 . S
C695 H666 0.950 . S
C695 C694 1.397 . S
C695 C696 1.334 1_545 S
C696 H667 0.950 . S
C696 C695 1.334 1_565 S
C696 C697 1.287 . S
C697 C696 1.287 . S
C697 C698 1.524 1_565 S
C697 H700 0.999 . S
C698 H668 0.950 . S
C698 C697 1.524 1_545 S
C698 C699 1.415 . S
C699 H669 0.950 . S
C699 C694 1.363 . S
C699 C698 1.415 . S
H700 C697 0.999 . S
H701 C682 0.913 . S
H702 C720 0.951 1_545 S
H703 C722 0.951 . S
H704 C724 0.950 . S
H705 C725 0.950 . S
H706 C727 0.950 . S
H707 C730 0.950 . S
H708 C731 0.950 . S
H709 C733 0.950 . S
H710 C734 0.950 . S
H711 C735 0.951 . S
H712 C737 0.951 . S
H713 C739 0.950 . S
H714 C740 0.950 . S
H715 C742 0.950 . S
H716 C745 0.950 . S
H717 C746 0.950 . S
H718 C748 0.950 . S
H719 C749 0.950 . S
C720 H702 0.951 1_565 S
C720 C721 1.366 . S
C720 C722 1.388 . S
C721 C720 1.366 . S
C721 C725 1.385 . S
C722 H703 0.951 . S
C722 C720 1.388 . S
C722 C723 1.366 . S
C723 C722 1.366 . S
C723 C724 1.414 . S
C723 C726 1.499 . S
C724 H704 0.950 . S
C724 C723 1.414 . S
C724 C725 1.374 . S
C725 H705 0.950 . S
C725 C721 1.385 . S
C725 C724 1.374 . S
C726 C723 1.499 . S
C726 C727 1.373 . S
C726 C728 1.389 . S
C727 H706 0.950 . S
C727 C726 1.373 . S
C727 C743 1.377 . S
C728 C726 1.389 . S
C728 C729 1.524 . S
C728 C742 1.377 . S
C729 C728 1.524 . S
C729 C730 1.397 . S
C729 C734 1.363 . S
C730 H707 0.950 . S
C730 C729 1.397 . S
C730 C731 1.334 . S
C731 H708 0.950 . S
C731 C730 1.334 . S
C731 C732 1.287 . S
C732 C731 1.287 . S
C732 C733 1.524 . S
C732 H751 0.913 . S
C733 H709 0.950 . S
C733 C732 1.524 . S
C733 C734 1.415 . S
C734 H710 0.950 . S
C734 C729 1.363 . S
C734 C733 1.415 . S
C735 H711 0.951 . S
C735 C736 1.366 . S
C735 C737 1.388 . S
C736 C735 1.366 . S
C736 C740 1.385 . S
C737 H712 0.951 . S
C737 C735 1.388 . S
C737 C738 1.366 . S
C738 C737 1.366 . S
C738 C739 1.414 . S
C738 C741 1.499 . S
C739 H713 0.950 . S
C739 C738 1.414 . S
C739 C740 1.374 . S
C740 H714 0.950 . S
C740 C736 1.385 . S
C740 C739 1.374 . S
C741 C738 1.499 . S
C741 C742 1.373 . S
C741 C743 1.389 . S
C742 H715 0.950 . S
C742 C728 1.377 . S
C742 C741 1.373 . S
C743 C727 1.377 . S
C743 C741 1.389 . S
C743 C744 1.524 . S
C744 C743 1.524 . S
C744 C745 1.397 . S
C744 C749 1.363 . S
C745 H716 0.950 . S
C745 C744 1.397 . S
C745 C746 1.334 . S
C746 H717 0.950 . S
C746 C745 1.334 . S
C746 C747 1.287 . S
C747 C746 1.287 . S
C747 C748 1.524 . S
C747 H750 0.999 . S
C748 H718 0.950 . S
C748 C747 1.524 . S
C748 C749 1.415 . S
C749 H719 0.950 . S
C749 C744 1.363 . S
C749 C748 1.415 . S
H750 C747 0.999 . S
H751 C732 0.913 . S
H752 C770 0.951 . S
H753 C772 0.951 . S
H754 C774 0.950 . S
H755 C775 0.950 . S
H756 C777 0.950 . S
H757 C780 0.950 . S
H758 C781 0.950 . S
H759 C783 0.950 1_655 S
H760 C784 0.950 . S
H761 C785 0.951 . S
H762 C787 0.951 . S
H763 C789 0.950 . S
H764 C790 0.950 . S
H765 C792 0.950 . S
H766 C795 0.950 . S
H767 C796 0.950 . S
H768 C798 0.950 . S
H769 C799 0.950 . S
C770 H752 0.951 . S
C770 C771 1.366 . S
C770 C772 1.388 . S
C771 C770 1.366 . S
C771 C775 1.385 . S
C772 H753 0.951 . S
C772 C770 1.388 . S
C772 C773 1.366 . S
C773 C772 1.366 . S
C773 C774 1.414 . S
C773 C776 1.499 . S
C774 H754 0.950 . S
C774 C773 1.414 . S
C774 C775 1.374 . S
C775 H755 0.950 . S
C775 C771 1.385 . S
C775 C774 1.374 . S
C776 C773 1.499 . S
C776 C777 1.373 . S
C776 C778 1.389 . S
C777 H756 0.950 . S
C777 C776 1.373 . S
C777 C793 1.377 . S
C778 C776 1.389 . S
C778 C779 1.524 . S
C778 C792 1.377 . S
C779 C778 1.524 . S
C779 C780 1.397 . S
C779 C784 1.363 . S
C780 H757 0.950 . S
C780 C779 1.397 . S
C780 C781 1.334 . S
C781 H758 0.950 . S
C781 C780 1.334 . S
C781 C782 1.287 . S
C782 C781 1.287 . S
C782 C783 1.524 . S
C782 H801 0.913 . S
C783 H759 0.950 1_455 S
C783 C782 1.524 . S
C783 C784 1.415 . S
C784 H760 0.950 . S
C784 C779 1.363 . S
C784 C783 1.415 . S
C785 H761 0.951 . S
C785 C786 1.366 . S
C785 C787 1.388 . S
C786 C785 1.366 . S
C786 C790 1.385 . S
C787 H762 0.951 . S
C787 C785 1.388 . S
C787 C788 1.366 . S
C788 C787 1.366 . S
C788 C789 1.414 . S
C788 C791 1.499 . S
C789 H763 0.950 . S
C789 C788 1.414 . S
C789 C790 1.374 . S
C790 H764 0.950 . S
C790 C786 1.385 . S
C790 C789 1.374 . S
C791 C788 1.499 . S
C791 C792 1.373 . S
C791 C793 1.389 . S
C792 H765 0.950 . S
C792 C778 1.377 . S
C792 C791 1.373 . S
C793 C777 1.377 . S
C793 C791 1.389 . S
C793 C794 1.524 . S
C794 C793 1.524 . S
C794 C795 1.397 . S
C794 C799 1.363 . S
C795 H766 0.950 . S
C795 C794 1.397 . S
C795 C796 1.334 . S
C796 H767 0.950 . S
C796 C795 1.334 . S
C796 C797 1.287 . S
C797 C796 1.287 . S
C797 C798 1.524 . S
C797 H800 0.999 . S
C798 H768 0.950 . S
C798 C797 1.524 . S
C798 C799 1.415 . S
C799 H769 0.950 . S
C799 C794 1.363 . S
C799 C798 1.415 . S
H800 C797 0.999 . S
H801 C782 0.913 . S
H802 C820 0.951 . S
H803 C822 0.951 . S
H804 C824 0.950 . S
H805 C825 0.950 . S
H806 C827 0.950 . S
H807 C830 0.950 . S
H808 C831 0.950 . S
H809 C833 0.950 . S
H810 C834 0.950 . S
H811 C835 0.951 . S
H812 C837 0.951 . S
H813 C839 0.950 . S
H814 C840 0.950 . S
H815 C842 0.950 . S
H816 C845 0.950 . S
H817 C846 0.950 . S
H818 C848 0.950 . S
H819 C849 0.950 . S
C820 H802 0.951 . S
C820 C821 1.366 . S
C820 C822 1.388 . S
C821 C820 1.366 . S
C821 C825 1.385 . S
C822 H803 0.951 . S
C822 C820 1.388 . S
C822 C823 1.366 . S
C823 C822 1.366 . S
C823 C824 1.414 . S
C823 C826 1.499 . S
C824 H804 0.950 . S
C824 C823 1.414 . S
C824 C825 1.374 . S
C825 H805 0.950 . S
C825 C821 1.385 . S
C825 C824 1.374 . S
C826 C823 1.499 . S
C826 C827 1.373 . S
C826 C828 1.389 . S
C827 H806 0.950 . S
C827 C826 1.373 . S
C827 C843 1.377 . S
C828 C826 1.389 . S
C828 C829 1.524 . S
C828 C842 1.377 . S
C829 C828 1.524 . S
C829 C830 1.397 . S
C829 C834 1.363 . S
C830 H807 0.950 . S
C830 C829 1.397 . S
C830 C831 1.334 . S
C831 H808 0.950 . S
C831 C830 1.334 . S
C831 C832 1.287 . S
C832 C831 1.287 . S
C832 C833 1.524 . S
C832 H851 0.913 . S
C833 H809 0.950 . S
C833 C832 1.524 . S
C833 C834 1.415 . S
C834 H810 0.950 . S
C834 C829 1.363 . S
C834 C833 1.415 . S
C835 H811 0.951 . S
C835 C836 1.366 . S
C835 C837 1.388 . S
C836 C835 1.366 . S
C836 C840 1.385 . S
C837 H812 0.951 . S
C837 C835 1.388 . S
C837 C838 1.366 . S
C838 C837 1.366 . S
C838 C839 1.414 . S
C838 C841 1.499 . S
C839 H813 0.950 . S
C839 C838 1.414 . S
C839 C840 1.374 . S
C840 H814 0.950 . S
C840 C836 1.385 . S
C840 C839 1.374 . S
C841 C838 1.499 . S
C841 C842 1.373 . S
C841 C843 1.389 . S
C842 H815 0.950 . S
C842 C828 1.377 . S
C842 C841 1.373 . S
C843 C827 1.377 . S
C843 C841 1.389 . S
C843 C844 1.524 . S
C844 C843 1.524 . S
C844 C845 1.397 . S
C844 C849 1.363 . S
C845 H816 0.950 . S
C845 C844 1.397 . S
C845 C846 1.334 . S
C846 H817 0.950 . S
C846 C845 1.334 . S
C846 C847 1.287 . S
C847 C846 1.287 . S
C847 C848 1.524 . S
C847 H850 0.999 . S
C848 H818 0.950 . S
C848 C847 1.524 . S
C848 C849 1.415 . S
C849 H819 0.950 . S
C849 C844 1.363 . S
C849 C848 1.415 . S
H850 C847 0.999 . S
H851 C832 0.913 . S
H852 C870 0.951 . S
H853 C872 0.951 . S
H854 C874 0.950 . S
H855 C875 0.950 . S
H856 C877 0.950 . S
H857 C880 0.950 . S
H858 C881 0.950 . S
H859 C883 0.950 . S
H860 C884 0.950 . S
H861 C885 0.951 . S
H862 C887 0.951 . S
H863 C889 0.950 . S
H864 C890 0.950 . S
H865 C892 0.950 . S
H866 C895 0.950 . S
H867 C896 0.950 . S
H868 C898 0.950 . S
H869 C899 0.950 . S
C870 H852 0.951 . S
C870 C871 1.366 . S
C870 C872 1.388 . S
C871 C870 1.366 . S
C871 C875 1.385 . S
C872 H853 0.951 . S
C872 C870 1.388 . S
C872 C873 1.366 . S
C873 C872 1.366 . S
C873 C874 1.414 . S
C873 C876 1.499 . S
C874 H854 0.950 . S
C874 C873 1.414 . S
C874 C875 1.374 . S
C875 H855 0.950 . S
C875 C871 1.385 . S
C875 C874 1.374 . S
C876 C873 1.499 . S
C876 C877 1.373 . S
C876 C878 1.389 . S
C877 H856 0.950 . S
C877 C876 1.373 . S
C877 C893 1.377 . S
C878 C876 1.389 . S
C878 C879 1.524 . S
C878 C892 1.377 . S
C879 C878 1.524 . S
C879 C880 1.397 . S
C879 C884 1.363 . S
C880 H857 0.950 . S
C880 C879 1.397 . S
C880 C881 1.334 . S
C881 H858 0.950 . S
C881 C880 1.334 . S
C881 C882 1.287 . S
C882 C881 1.287 . S
C882 C883 1.524 . S
C882 H901 0.913 . S
C883 H859 0.950 . S
C883 C882 1.524 . S
C883 C884 1.415 . S
C884 H860 0.950 . S
C884 C879 1.363 . S
C884 C883 1.415 . S
C885 H861 0.951 . S
C885 C886 1.366 . S
C885 C887 1.388 . S
C886 C885 1.366 . S
C886 C890 1.385 . S
C887 H862 0.951 . S
C887 C885 1.388 . S
C887 C888 1.366 . S
C888 C887 1.366 . S
C888 C889 1.414 . S
C888 C891 1.499 . S
C889 H863 0.950 . S
C889 C888 1.414 . S
C889 C890 1.374 . S
C890 H864 0.950 . S
C890 C886 1.385 . S
C890 C889 1.374 . S
C891 C888 1.499 . S
C891 C892 1.373 . S
C891 C893 1.389 . S
C892 H865 0.950 . S
C892 C878 1.377 . S
C892 C891 1.373 . S
C893 C877 1.377 . S
C893 C891 1.389 . S
C893 C894 1.524 . S
C894 C893 1.524 . S
C894 C895 1.397 . S
C894 C899 1.363 . S
C895 H866 0.950 . S
C895 C894 1.397 . S
C895 C896 1.334 . S
C896 H867 0.950 . S
C896 C895 1.334 . S
C896 C897 1.287 . S
C897 C896 1.287 . S
C897 C898 1.524 . S
C897 H900 0.999 . S
C898 H868 0.950 . S
C898 C897 1.524 . S
C898 C899 1.415 . S
C899 H869 0.950 . S
C899 C894 1.363 . S
C899 C898 1.415 . S
H900 C897 0.999 . S
H901 C882 0.913 . S
H902 C920 0.951 . S
H903 C922 0.951 . S
H904 C924 0.950 . S
H905 C925 0.950 . S
H906 C927 0.950 . S
H907 C930 0.950 . S
H908 C931 0.950 . S
H909 C933 0.950 . S
H910 C934 0.950 . S
H911 C935 0.951 . S
H912 C937 0.951 . S
H913 C939 0.950 . S
H914 C940 0.950 1_545 S
H915 C942 0.950 . S
H916 C945 0.950 . S
H917 C946 0.950 . S
H918 C948 0.950 . S
H919 C949 0.950 . S
C920 H902 0.951 . S
C920 C921 1.366 . S
C920 C922 1.388 . S
C921 C920 1.366 . S
C921 C925 1.385 . S
C922 H903 0.951 . S
C922 C920 1.388 . S
C922 C923 1.366 . S
C923 C922 1.366 . S
C923 C924 1.414 . S
C923 C926 1.499 . S
C924 H904 0.950 . S
C924 C923 1.414 . S
C924 C925 1.374 . S
C925 H905 0.950 . S
C925 C921 1.385 . S
C925 C924 1.374 . S
C926 C923 1.499 . S
C926 C927 1.373 1_545 S
C926 C928 1.389 . S
C927 H906 0.950 . S
C927 C926 1.373 1_565 S
C927 C943 1.377 . S
C928 C926 1.389 . S
C928 C929 1.524 . S
C928 C942 1.377 . S
C929 C928 1.524 . S
C929 C930 1.397 . S
C929 C934 1.363 . S
C930 H907 0.950 . S
C930 C929 1.397 . S
C930 C931 1.334 . S
C931 H908 0.950 . S
C931 C930 1.334 . S
C931 C932 1.287 . S
C932 C931 1.287 . S
C932 C933 1.524 . S
C932 H951 0.913 . S
C933 H909 0.950 . S
C933 C932 1.524 . S
C933 C934 1.415 . S
C934 H910 0.950 . S
C934 C929 1.363 . S
C934 C933 1.415 . S
C935 H911 0.951 . S
C935 C936 1.366 . S
C935 C937 1.388 . S
C936 C935 1.366 . S
C936 C940 1.385 . S
C937 H912 0.951 . S
C937 C935 1.388 . S
C937 C938 1.366 . S
C938 C937 1.366 . S
C938 C939 1.414 1_565 S
C938 C941 1.499 1_565 S
C939 H913 0.950 . S
C939 C938 1.414 1_545 S
C939 C940 1.374 1_545 S
C940 H914 0.950 1_565 S
C940 C936 1.385 . S
C940 C939 1.374 1_565 S
C941 C938 1.499 1_545 S
C941 C942 1.373 . S
C941 C943 1.389 1_545 S
C942 H915 0.950 . S
C942 C928 1.377 . S
C942 C941 1.373 . S
C943 C927 1.377 . S
C943 C941 1.389 1_565 S
C943 C944 1.524 . S
C944 C943 1.524 . S
C944 C945 1.397 . S
C944 C949 1.363 . S
C945 H916 0.950 . S
C945 C944 1.397 . S
C945 C946 1.334 . S
C946 H917 0.950 . S
C946 C945 1.334 . S
C946 C947 1.287 . S
C947 C946 1.287 . S
C947 C948 1.524 . S
C947 H950 0.999 . S
C948 H918 0.950 . S
C948 C947 1.524 . S
C948 C949 1.415 . S
C949 H919 0.950 . S
C949 C944 1.363 . S
C949 C948 1.415 . S
H950 C947 0.999 . S
H951 C932 0.913 . S
H952 C970 0.951 . S
H953 C972 0.951 . S
H954 C974 0.950 . S
H955 C975 0.950 . S
H956 C977 0.950 . S
H957 C980 0.950 . S
H958 C981 0.950 . S
H959 C983 0.950 . S
H960 C984 0.950 . S
H961 C985 0.951 . S
H962 C987 0.951 . S
H963 C989 0.950 . S
H964 C990 0.950 . S
H965 C992 0.950 . S
H966 C995 0.950 1_455 S
H967 C996 0.950 . S
H968 C998 0.950 . S
H969 C999 0.950 . S
C970 H952 0.951 . S
C970 C971 1.366 . S
C970 C972 1.388 . S
C971 C970 1.366 . S
C971 C975 1.385 . S
C972 H953 0.951 . S
C972 C970 1.388 . S
C972 C973 1.366 . S
C973 C972 1.366 . S
C973 C974 1.414 . S
C973 C976 1.499 . S
C974 H954 0.950 . S
C974 C973 1.414 . S
C974 C975 1.374 . S
C975 H955 0.950 . S
C975 C971 1.385 . S
C975 C974 1.374 . S
C976 C973 1.499 . S
C976 C977 1.373 . S
C976 C978 1.389 . S
C977 H956 0.950 . S
C977 C976 1.373 . S
C977 C993 1.377 . S
C978 C976 1.389 . S
C978 C979 1.524 . S
C978 C992 1.377 . S
C979 C978 1.524 . S
C979 C980 1.397 . S
C979 C984 1.363 . S
C980 H957 0.950 . S
C980 C979 1.397 . S
C980 C981 1.334 . S
C981 H958 0.950 . S
C981 C980 1.334 . S
C981 C982 1.287 . S
C982 C981 1.287 . S
C982 C983 1.524 . S
C982 H1001 0.913 . S
C983 H959 0.950 . S
C983 C982 1.524 . S
C983 C984 1.415 . S
C984 H960 0.950 . S
C984 C979 1.363 . S
C984 C983 1.415 . S
C985 H961 0.951 . S
C985 C986 1.366 . S
C985 C987 1.388 . S
C986 C985 1.366 . S
C986 C990 1.385 1_655 S
C987 H962 0.951 . S
C987 C985 1.388 . S
C987 C988 1.366 1_655 S
C988 C987 1.366 1_455 S
C988 C989 1.414 . S
C988 C991 1.499 . S
C989 H963 0.950 . S
C989 C988 1.414 . S
C989 C990 1.374 . S
C990 H964 0.950 . S
C990 C986 1.385 1_455 S
C990 C989 1.374 . S
C991 C988 1.499 . S
C991 C992 1.373 . S
C991 C993 1.389 . S
C992 H965 0.950 . S
C992 C978 1.377 . S
C992 C991 1.373 . S
C993 C977 1.377 . S
C993 C991 1.389 . S
C993 C994 1.524 1_455 S
C994 C993 1.524 1_655 S
C994 C995 1.397 . S
C994 C999 1.363 . S
C995 H966 0.950 1_655 S
C995 C994 1.397 . S
C995 C996 1.334 . S
C996 H967 0.950 . S
C996 C995 1.334 . S
C996 C997 1.287 . S
C997 C996 1.287 . S
C997 C998 1.524 . S
C997 H1000 0.999 . S
C998 H968 0.950 . S
C998 C997 1.524 . S
C998 C999 1.415 . S
C999 H969 0.950 . S
C999 C994 1.363 . S
C999 C998 1.415 . S
H1000 C997 0.999 . S
H1001 C982 0.913 . S
H1002 C1020 0.951 . S
H1003 C1022 0.951 . S
H1004 C1024 0.950 . S
H1005 C1025 0.950 . S
H1006 C1027 0.950 . S
H1007 C1030 0.950 . S
H1008 C1031 0.950 . S
H1009 C1033 0.950 . S
H1010 C1034 0.950 . S
H1011 C1035 0.951 . S
H1012 C1037 0.951 . S
H1013 C1039 0.950 . S
H1014 C1040 0.950 . S
H1015 C1042 0.950 . S
H1016 C1045 0.950 . S
H1017 C1046 0.950 . S
H1018 C1048 0.950 . S
H1019 C1049 0.950 . S
C1020 H1002 0.951 . S
C1020 C1021 1.366 . S
C1020 C1022 1.388 . S
C1021 C1020 1.366 . S
C1021 C1025 1.385 . S
C1022 H1003 0.951 . S
C1022 C1020 1.388 . S
C1022 C1023 1.366 . S
C1023 C1022 1.366 . S
C1023 C1024 1.414 . S
C1023 C1026 1.499 . S
C1024 H1004 0.950 . S
C1024 C1023 1.414 . S
C1024 C1025 1.374 . S
C1025 H1005 0.950 . S
C1025 C1021 1.385 . S
C1025 C1024 1.374 . S
C1026 C1023 1.499 . S
C1026 C1027 1.373 . S
C1026 C1028 1.389 . S
C1027 H1006 0.950 . S
C1027 C1026 1.373 . S
C1027 C1043 1.377 . S
C1028 C1026 1.389 . S
C1028 C1029 1.524 . S
C1028 C1042 1.377 . S
C1029 C1028 1.524 . S
C1029 C1030 1.397 . S
C1029 C1034 1.363 . S
C1030 H1007 0.950 . S
C1030 C1029 1.397 . S
C1030 C1031 1.334 . S
C1031 H1008 0.950 . S
C1031 C1030 1.334 . S
C1031 C1032 1.287 . S
C1032 C1031 1.287 . S
C1032 C1033 1.524 . S
C1032 H1051 0.913 . S
C1033 H1009 0.950 . S
C1033 C1032 1.524 . S
C1033 C1034 1.415 . S
C1034 H1010 0.950 . S
C1034 C1029 1.363 . S
C1034 C1033 1.415 . S
C1035 H1011 0.951 . S
C1035 C1036 1.366 . S
C1035 C1037 1.388 . S
C1036 C1035 1.366 . S
C1036 C1040 1.385 . S
C1037 H1012 0.951 . S
C1037 C1035 1.388 . S
C1037 C1038 1.366 . S
C1038 C1037 1.366 . S
C1038 C1039 1.414 . S
C1038 C1041 1.499 . S
C1039 H1013 0.950 . S
C1039 C1038 1.414 . S
C1039 C1040 1.374 . S
C1040 H1014 0.950 . S
C1040 C1036 1.385 . S
C1040 C1039 1.374 . S
C1041 C1038 1.499 . S
C1041 C1042 1.373 . S
C1041 C1043 1.389 . S
C1042 H1015 0.950 . S
C1042 C1028 1.377 . S
C1042 C1041 1.373 . S
C1043 C1027 1.377 . S
C1043 C1041 1.389 . S
C1043 C1044 1.524 . S
C1044 C1043 1.524 . S
C1044 C1045 1.397 . S
C1044 C1049 1.363 . S
C1045 H1016 0.950 . S
C1045 C1044 1.397 . S
C1045 C1046 1.334 . S
C1046 H1017 0.950 . S
C1046 C1045 1.334 . S
C1046 C1047 1.287 . S
C1047 C1046 1.287 . S
C1047 C1048 1.524 . S
C1047 H1050 0.999 . S
C1048 H1018 0.950 . S
C1048 C1047 1.524 . S
C1048 C1049 1.415 . S
C1049 H1019 0.950 . S
C1049 C1044 1.363 . S
C1049 C1048 1.415 . S
H1050 C1047 0.999 . S
H1051 C1032 0.913 . S
H1052 C1070 0.951 . S
H1053 C1072 0.951 . S
H1054 C1074 0.950 . S
H1055 C1075 0.950 . S
H1056 C1077 0.950 . S
H1057 C1080 0.950 . S
H1058 C1081 0.950 . S
H1059 C1083 0.950 . S
H1060 C1084 0.950 . S
H1061 C1085 0.951 . S
H1062 C1087 0.951 . S
H1063 C1089 0.950 . S
H1064 C1090 0.950 . S
H1065 C1092 0.950 . S
H1066 C1095 0.950 . S
H1067 C1096 0.950 . S
H1068 C1098 0.950 . S
H1069 C1099 0.950 . S
C1070 H1052 0.951 . S
C1070 C1071 1.366 . S
C1070 C1072 1.388 . S
C1071 C1070 1.366 . S
C1071 C1075 1.385 . S
C1072 H1053 0.951 . S
C1072 C1070 1.388 . S
C1072 C1073 1.366 . S
C1073 C1072 1.366 . S
C1073 C1074 1.414 . S
C1073 C1076 1.499 . S
C1074 H1054 0.950 . S
C1074 C1073 1.414 . S
C1074 C1075 1.374 . S
C1075 H1055 0.950 . S
C1075 C1071 1.385 . S
C1075 C1074 1.374 . S
C1076 C1073 1.499 . S
C1076 C1077 1.373 1_545 S
C1076 C1078 1.389 . S
C1077 H1056 0.950 . S
C1077 C1076 1.373 1_565 S
C1077 C1093 1.377 . S
C1078 C1076 1.389 . S
C1078 C1079 1.524 . S
C1078 C1092 1.377 . S
C1079 C1078 1.524 . S
C1079 C1080 1.397 . S
C1079 C1084 1.363 . S
C1080 H1057 0.950 . S
C1080 C1079 1.397 . S
C1080 C1081 1.334 . S
C1081 H1058 0.950 . S
C1081 C1080 1.334 . S
C1081 C1082 1.287 . S
C1082 C1081 1.287 . S
C1082 C1083 1.524 . S
C1082 H1101 0.913 . S
C1083 H1059 0.950 . S
C1083 C1082 1.524 . S
C1083 C1084 1.415 . S
C1084 H1060 0.950 . S
C1084 C1079 1.363 . S
C1084 C1083 1.415 . S
C1085 H1061 0.951 . S
C1085 C1086 1.366 . S
C1085 C1087 1.388 . S
C1086 C1085 1.366 . S
C1086 C1090 1.385 . S
C1087 H1062 0.951 . S
C1087 C1085 1.388 . S
C1087 C1088 1.366 . S
C1088 C1087 1.366 . S
C1088 C1089 1.414 . S
C1088 C1091 1.499 . S
C1089 H1063 0.950 . S
C1089 C1088 1.414 . S
C1089 C1090 1.374 . S
C1090 H1064 0.950 . S
C1090 C1086 1.385 . S
C1090 C1089 1.374 . S
C1091 C1088 1.499 . S
C1091 C1092 1.373 1_565 S
C1091 C1093 1.389 . S
C1092 H1065 0.950 . S
C1092 C1078 1.377 . S
C1092 C1091 1.373 1_545 S
C1093 C1077 1.377 . S
C1093 C1091 1.389 . S
C1093 C1094 1.524 . S
C1094 C1093 1.524 . S
C1094 C1095 1.397 . S
C1094 C1099 1.363 . S
C1095 H1066 0.950 . S
C1095 C1094 1.397 . S
C1095 C1096 1.334 . S
C1096 H1067 0.950 . S
C1096 C1095 1.334 . S
C1096 C1097 1.287 . S
C1097 C1096 1.287 . S
C1097 C1098 1.524 . S
C1097 H1100 0.999 . S
C1098 H1068 0.950 . S
C1098 C1097 1.524 . S
C1098 C1099 1.415 . S
C1099 H1069 0.950 . S
C1099 C1094 1.363 . S
C1099 C1098 1.415 . S
H1100 C1097 0.999 . S
H1101 C1082 0.913 . S
H1102 C1120 0.951 . S
H1103 C1122 0.951 . S
H1104 C1124 0.950 . S
H1105 C1125 0.950 . S
H1106 C1127 0.950 . S
H1107 C1130 0.950 . S
H1108 C1131 0.950 . S
H1109 C1133 0.950 . S
H1110 C1134 0.950 . S
H1111 C1135 0.951 . S
H1112 C1137 0.951 . S
H1113 C1139 0.950 . S
H1114 C1140 0.950 . S
H1115 C1142 0.950 . S
H1116 C1145 0.950 . S
H1117 C1146 0.950 . S
H1118 C1148 0.950 . S
H1119 C1149 0.950 . S
C1120 H1102 0.951 . S
C1120 C1121 1.366 . S
C1120 C1122 1.388 . S
C1121 C1120 1.366 . S
C1121 C1125 1.385 . S
C1122 H1103 0.951 . S
C1122 C1120 1.388 . S
C1122 C1123 1.366 . S
C1123 C1122 1.366 . S
C1123 C1124 1.414 . S
C1123 C1126 1.499 . S
C1124 H1104 0.950 . S
C1124 C1123 1.414 . S
C1124 C1125 1.374 . S
C1125 H1105 0.950 . S
C1125 C1121 1.385 . S
C1125 C1124 1.374 . S
C1126 C1123 1.499 . S
C1126 C1127 1.373 . S
C1126 C1128 1.389 . S
C1127 H1106 0.950 . S
C1127 C1126 1.373 . S
C1127 C1143 1.377 . S
C1128 C1126 1.389 . S
C1128 C1129 1.524 . S
C1128 C1142 1.377 . S
C1129 C1128 1.524 . S
C1129 C1130 1.397 . S
C1129 C1134 1.363 . S
C1130 H1107 0.950 . S
C1130 C1129 1.397 . S
C1130 C1131 1.334 . S
C1131 H1108 0.950 . S
C1131 C1130 1.334 . S
C1131 C1132 1.287 . S
C1132 C1131 1.287 . S
C1132 C1133 1.524 . S
C1132 H1151 0.913 . S
C1133 H1109 0.950 . S
C1133 C1132 1.524 . S
C1133 C1134 1.415 . S
C1134 H1110 0.950 . S
C1134 C1129 1.363 . S
C1134 C1133 1.415 . S
C1135 H1111 0.951 . S
C1135 C1136 1.366 . S
C1135 C1137 1.388 . S
C1136 C1135 1.366 . S
C1136 C1140 1.385 1_655 S
C1137 H1112 0.951 . S
C1137 C1135 1.388 . S
C1137 C1138 1.366 1_655 S
C1138 C1137 1.366 1_455 S
C1138 C1139 1.414 . S
C1138 C1141 1.499 . S
C1139 H1113 0.950 . S
C1139 C1138 1.414 . S
C1139 C1140 1.374 . S
C1140 H1114 0.950 . S
C1140 C1136 1.385 1_455 S
C1140 C1139 1.374 . S
C1141 C1138 1.499 . S
C1141 C1142 1.373 . S
C1141 C1143 1.389 . S
C1142 H1115 0.950 . S
C1142 C1128 1.377 . S
C1142 C1141 1.373 . S
C1143 C1127 1.377 . S
C1143 C1141 1.389 . S
C1143 C1144 1.524 1_455 S
C1144 C1143 1.524 1_655 S
C1144 C1145 1.397 . S
C1144 C1149 1.363 . S
C1145 H1116 0.950 . S
C1145 C1144 1.397 . S
C1145 C1146 1.334 . S
C1146 H1117 0.950 . S
C1146 C1145 1.334 . S
C1146 C1147 1.287 . S
C1147 C1146 1.287 . S
C1147 C1148 1.524 . S
C1147 H1150 0.999 . S
C1148 H1118 0.950 . S
C1148 C1147 1.524 . S
C1148 C1149 1.415 . S
C1149 H1119 0.950 . S
C1149 C1144 1.363 . S
C1149 C1148 1.415 . S
H1150 C1147 0.999 . S
H1151 C1132 0.913 . S
H1152 C1170 0.951 . S
H1153 C1172 0.951 . S
H1154 C1174 0.950 . S
H1155 C1175 0.950 . S
H1156 C1177 0.950 . S
H1157 C1180 0.950 . S
H1158 C1181 0.950 . S
H1159 C1183 0.950 . S
H1160 C1184 0.950 . S
H1161 C1185 0.951 . S
H1162 C1187 0.951 . S
H1163 C1189 0.950 . S
H1164 C1190 0.950 . S
H1165 C1192 0.950 . S
H1166 C1195 0.950 . S
H1167 C1196 0.950 . S
H1168 C1198 0.950 . S
H1169 C1199 0.950 . S
C1170 H1152 0.951 . S
C1170 C1171 1.366 . S
C1170 C1172 1.388 . S
C1171 C1170 1.366 . S
C1171 C1175 1.385 . S
C1172 H1153 0.951 . S
C1172 C1170 1.388 . S
C1172 C1173 1.366 . S
C1173 C1172 1.366 . S
C1173 C1174 1.414 . S
C1173 C1176 1.499 . S
C1174 H1154 0.950 . S
C1174 C1173 1.414 . S
C1174 C1175 1.374 . S
C1175 H1155 0.950 . S
C1175 C1171 1.385 . S
C1175 C1174 1.374 . S
C1176 C1173 1.499 . S
C1176 C1177 1.373 . S
C1176 C1178 1.389 . S
C1177 H1156 0.950 . S
C1177 C1176 1.373 . S
C1177 C1193 1.377 . S
C1178 C1176 1.389 . S
C1178 C1179 1.524 . S
C1178 C1192 1.377 . S
C1179 C1178 1.524 . S
C1179 C1180 1.397 . S
C1179 C1184 1.363 . S
C1180 H1157 0.950 . S
C1180 C1179 1.397 . S
C1180 C1181 1.334 . S
C1181 H1158 0.950 . S
C1181 C1180 1.334 . S
C1181 C1182 1.287 . S
C1182 C1181 1.287 . S
C1182 C1183 1.524 . S
C1182 H1201 0.913 . S
C1183 H1159 0.950 . S
C1183 C1182 1.524 . S
C1183 C1184 1.415 . S
C1184 H1160 0.950 . S
C1184 C1179 1.363 . S
C1184 C1183 1.415 . S
C1185 H1161 0.951 . S
C1185 C1186 1.366 . S
C1185 C1187 1.388 . S
C1186 C1185 1.366 . S
C1186 C1190 1.385 . S
C1187 H1162 0.951 . S
C1187 C1185 1.388 . S
C1187 C1188 1.366 . S
C1188 C1187 1.366 . S
C1188 C1189 1.414 . S
C1188 C1191 1.499 . S
C1189 H1163 0.950 . S
C1189 C1188 1.414 . S
C1189 C1190 1.374 . S
C1190 H1164 0.950 . S
C1190 C1186 1.385 . S
C1190 C1189 1.374 . S
C1191 C1188 1.499 . S
C1191 C1192 1.373 . S
C1191 C1193 1.389 . S
C1192 H1165 0.950 . S
C1192 C1178 1.377 . S
C1192 C1191 1.373 . S
C1193 C1177 1.377 . S
C1193 C1191 1.389 . S
C1193 C1194 1.524 . S
C1194 C1193 1.524 . S
C1194 C1195 1.397 . S
C1194 C1199 1.363 . S
C1195 H1166 0.950 . S
C1195 C1194 1.397 . S
C1195 C1196 1.334 . S
C1196 H1167 0.950 . S
C1196 C1195 1.334 . S
C1196 C1197 1.287 . S
C1197 C1196 1.287 . S
C1197 C1198 1.524 . S
C1197 H1200 0.999 . S
C1198 H1168 0.950 . S
C1198 C1197 1.524 . S
C1198 C1199 1.415 . S
C1199 H1169 0.950 . S
C1199 C1194 1.363 . S
C1199 C1198 1.415 . S
H1200 C1197 0.999 . S
H1201 C1182 0.913 . S
H1202 C1220 0.951 . S
H1203 C1222 0.951 . S
H1204 C1224 0.950 . S
H1205 C1225 0.950 . S
H1206 C1227 0.950 . S
H1207 C1230 0.950 . S
H1208 C1231 0.950 . S
H1209 C1233 0.950 . S
H1210 C1234 0.950 . S
H1211 C1235 0.951 . S
H1212 C1237 0.951 . S
H1213 C1239 0.950 . S
H1214 C1240 0.950 . S
H1215 C1242 0.950 . S
H1216 C1245 0.950 . S
H1217 C1246 0.950 . S
H1218 C1248 0.950 . S
H1219 C1249 0.950 . S
C1220 H1202 0.951 . S
C1220 C1221 1.366 . S
C1220 C1222 1.388 . S
C1221 C1220 1.366 . S
C1221 C1225 1.385 . S
C1222 H1203 0.951 . S
C1222 C1220 1.388 . S
C1222 C1223 1.366 . S
C1223 C1222 1.366 . S
C1223 C1224 1.414 . S
C1223 C1226 1.499 . S
C1224 H1204 0.950 . S
C1224 C1223 1.414 . S
C1224 C1225 1.374 . S
C1225 H1205 0.950 . S
C1225 C1221 1.385 . S
C1225 C1224 1.374 . S
C1226 C1223 1.499 . S
C1226 C1227 1.373 . S
C1226 C1228 1.389 . S
C1227 H1206 0.950 . S
C1227 C1226 1.373 . S
C1227 C1243 1.377 . S
C1228 C1226 1.389 . S
C1228 C1229 1.524 . S
C1228 C1242 1.377 . S
C1229 C1228 1.524 . S
C1229 C1230 1.397 . S
C1229 C1234 1.363 . S
C1230 H1207 0.950 . S
C1230 C1229 1.397 . S
C1230 C1231 1.334 . S
C1231 H1208 0.950 . S
C1231 C1230 1.334 . S
C1231 C1232 1.287 . S
C1232 C1231 1.287 . S
C1232 C1233 1.524 . S
C1232 H1251 0.913 . S
C1233 H1209 0.950 . S
C1233 C1232 1.524 . S
C1233 C1234 1.415 . S
C1234 H1210 0.950 . S
C1234 C1229 1.363 . S
C1234 C1233 1.415 . S
C1235 H1211 0.951 . S
C1235 C1236 1.366 . S
C1235 C1237 1.388 . S
C1236 C1235 1.366 . S
C1236 C1240 1.385 . S
C1237 H1212 0.951 . S
C1237 C1235 1.388 . S
C1237 C1238 1.366 . S
C1238 C1237 1.366 . S
C1238 C1239 1.414 . S
C1238 C1241 1.499 . S
C1239 H1213 0.950 . S
C1239 C1238 1.414 . S
C1239 C1240 1.374 . S
C1240 H1214 0.950 . S
C1240 C1236 1.385 . S
C1240 C1239 1.374 . S
C1241 C1238 1.499 . S
C1241 C1242 1.373 . S
C1241 C1243 1.389 . S
C1242 H1215 0.950 . S
C1242 C1228 1.377 . S
C1242 C1241 1.373 . S
C1243 C1227 1.377 . S
C1243 C1241 1.389 . S
C1243 C1244 1.524 . S
C1244 C1243 1.524 . S
C1244 C1245 1.397 . S
C1244 C1249 1.363 . S
C1245 H1216 0.950 . S
C1245 C1244 1.397 . S
C1245 C1246 1.334 . S
C1246 H1217 0.950 . S
C1246 C1245 1.334 . S
C1246 C1247 1.287 . S
C1247 C1246 1.287 . S
C1247 C1248 1.524 . S
C1247 H1250 0.999 . S
C1248 H1218 0.950 . S
C1248 C1247 1.524 . S
C1248 C1249 1.415 . S
C1249 H1219 0.950 . S
C1249 C1244 1.363 . S
C1249 C1248 1.415 . S
H1250 C1247 0.999 . S
H1251 C1232 0.913 . S
H1252 C1270 0.951 . S
H1253 C1272 0.951 . S
H1254 C1274 0.950 . S
H1255 C1275 0.950 . S
H1256 C1277 0.950 . S
H1257 C1280 0.950 . S
H1258 C1281 0.950 . S
H1259 C1283 0.950 . S
H1260 C1284 0.950 . S
H1261 C1285 0.951 . S
H1262 C1287 0.951 . S
H1263 C1289 0.950 . S
H1264 C1290 0.950 . S
H1265 C1292 0.950 . S
H1266 C1295 0.950 . S
H1267 C1296 0.950 . S
H1268 C1298 0.950 . S
H1269 C1299 0.950 . S
C1270 H1252 0.951 . S
C1270 C1271 1.366 . S
C1270 C1272 1.388 . S
C1271 C1270 1.366 . S
C1271 C1275 1.385 . S
C1272 H1253 0.951 . S
C1272 C1270 1.388 . S
C1272 C1273 1.366 . S
C1273 C1272 1.366 . S
C1273 C1274 1.414 . S
C1273 C1276 1.499 . S
C1274 H1254 0.950 . S
C1274 C1273 1.414 . S
C1274 C1275 1.374 . S
C1275 H1255 0.950 . S
C1275 C1271 1.385 . S
C1275 C1274 1.374 . S
C1276 C1273 1.499 . S
C1276 C1277 1.373 . S
C1276 C1278 1.389 . S
C1277 H1256 0.950 . S
C1277 C1276 1.373 . S
C1277 C1293 1.377 . S
C1278 C1276 1.389 . S
C1278 C1279 1.524 . S
C1278 C1292 1.377 . S
C1279 C1278 1.524 . S
C1279 C1280 1.397 . S
C1279 C1284 1.363 . S
C1280 H1257 0.950 . S
C1280 C1279 1.397 . S
C1280 C1281 1.334 . S
C1281 H1258 0.950 . S
C1281 C1280 1.334 . S
C1281 C1282 1.287 . S
C1282 C1281 1.287 . S
C1282 C1283 1.524 . S
C1282 H1301 0.913 . S
C1283 H1259 0.950 . S
C1283 C1282 1.524 . S
C1283 C1284 1.415 . S
C1284 H1260 0.950 . S
C1284 C1279 1.363 . S
C1284 C1283 1.415 . S
C1285 H1261 0.951 . S
C1285 C1286 1.366 . S
C1285 C1287 1.388 . S
C1286 C1285 1.366 . S
C1286 C1290 1.385 . S
C1287 H1262 0.951 . S
C1287 C1285 1.388 . S
C1287 C1288 1.366 . S
C1288 C1287 1.366 . S
C1288 C1289 1.414 . S
C1288 C1291 1.499 . S
C1289 H1263 0.950 . S
C1289 C1288 1.414 . S
C1289 C1290 1.374 . S
C1290 H1264 0.950 . S
C1290 C1286 1.385 . S
C1290 C1289 1.374 . S
C1291 C1288 1.499 . S
C1291 C1292 1.373 . S
C1291 C1293 1.389 . S
C1292 H1265 0.950 . S
C1292 C1278 1.377 . S
C1292 C1291 1.373 . S
C1293 C1277 1.377 . S
C1293 C1291 1.389 . S
C1293 C1294 1.524 . S
C1294 C1293 1.524 . S
C1294 C1295 1.397 . S
C1294 C1299 1.363 . S
C1295 H1266 0.950 . S
C1295 C1294 1.397 . S
C1295 C1296 1.334 . S
C1296 H1267 0.950 . S
C1296 C1295 1.334 . S
C1296 C1297 1.287 . S
C1297 C1296 1.287 . S
C1297 C1298 1.524 . S
C1297 H1300 0.999 . S
C1298 H1268 0.950 . S
C1298 C1297 1.524 . S
C1298 C1299 1.415 . S
C1299 H1269 0.950 . S
C1299 C1294 1.363 . S
C1299 C1298 1.415 . S
H1300 C1297 0.999 . S
H1301 C1282 0.913 . S
H1302 C1320 0.951 . S
H1303 C1322 0.951 . S
H1304 C1324 0.950 . S
H1305 C1325 0.950 . S
H1306 C1327 0.950 . S
H1307 C1330 0.950 . S
H1308 C1331 0.950 . S
H1309 C1333 0.950 . S
H1310 C1334 0.950 . S
H1311 C1335 0.951 . S
H1312 C1337 0.951 . S
H1313 C1339 0.950 . S
H1314 C1340 0.950 . S
H1315 C1342 0.950 . S
H1316 C1345 0.950 . S
H1317 C1346 0.950 . S
H1318 C1348 0.950 . S
H1319 C1349 0.950 . S
C1320 H1302 0.951 . S
C1320 C1321 1.366 . S
C1320 C1322 1.388 . S
C1321 C1320 1.366 . S
C1321 C1325 1.385 . S
C1322 H1303 0.951 . S
C1322 C1320 1.388 . S
C1322 C1323 1.366 . S
C1323 C1322 1.366 . S
C1323 C1324 1.414 . S
C1323 C1326 1.499 . S
C1324 H1304 0.950 . S
C1324 C1323 1.414 . S
C1324 C1325 1.374 . S
C1325 H1305 0.950 . S
C1325 C1321 1.385 . S
C1325 C1324 1.374 . S
C1326 C1323 1.499 . S
C1326 C1327 1.373 . S
C1326 C1328 1.389 . S
C1327 H1306 0.950 . S
C1327 C1326 1.373 . S
C1327 C1343 1.377 . S
C1328 C1326 1.389 . S
C1328 C1329 1.524 . S
C1328 C1342 1.377 . S
C1329 C1328 1.524 . S
C1329 C1330 1.397 . S
C1329 C1334 1.363 . S
C1330 H1307 0.950 . S
C1330 C1329 1.397 . S
C1330 C1331 1.334 . S
C1331 H1308 0.950 . S
C1331 C1330 1.334 . S
C1331 C1332 1.287 . S
C1332 C1331 1.287 . S
C1332 C1333 1.524 . S
C1332 H1351 0.913 . S
C1333 H1309 0.950 . S
C1333 C1332 1.524 . S
C1333 C1334 1.415 . S
C1334 H1310 0.950 . S
C1334 C1329 1.363 . S
C1334 C1333 1.415 . S
C1335 H1311 0.951 . S
C1335 C1336 1.366 . S
C1335 C1337 1.388 . S
C1336 C1335 1.366 . S
C1336 C1340 1.385 . S
C1337 H1312 0.951 . S
C1337 C1335 1.388 . S
C1337 C1338 1.366 . S
C1338 C1337 1.366 . S
C1338 C1339 1.414 . S
C1338 C1341 1.499 . S
C1339 H1313 0.950 . S
C1339 C1338 1.414 . S
C1339 C1340 1.374 . S
C1340 H1314 0.950 . S
C1340 C1336 1.385 . S
C1340 C1339 1.374 . S
C1341 C1338 1.499 . S
C1341 C1342 1.373 . S
C1341 C1343 1.389 . S
C1342 H1315 0.950 . S
C1342 C1328 1.377 . S
C1342 C1341 1.373 . S
C1343 C1327 1.377 . S
C1343 C1341 1.389 . S
C1343 C1344 1.524 . S
C1344 C1343 1.524 . S
C1344 C1345 1.397 . S
C1344 C1349 1.363 . S
C1345 H1316 0.950 . S
C1345 C1344 1.397 . S
C1345 C1346 1.334 . S
C1346 H1317 0.950 . S
C1346 C1345 1.334 . S
C1346 C1347 1.287 . S
C1347 C1346 1.287 . S
C1347 C1348 1.524 . S
C1347 H1350 0.999 . S
C1348 H1318 0.950 . S
C1348 C1347 1.524 . S
C1348 C1349 1.415 . S
C1349 H1319 0.950 . S
C1349 C1344 1.363 . S
C1349 C1348 1.415 . S
H1350 C1347 0.999 . S
H1351 C1332 0.913 . S
H1352 C1370 0.951 . S
H1353 C1372 0.951 . S
H1354 C1374 0.950 . S
H1355 C1375 0.950 . S
H1356 C1377 0.950 . S
H1357 C1380 0.950 . S
H1358 C1381 0.950 . S
H1359 C1383 0.950 . S
H1360 C1384 0.950 . S
H1361 C1385 0.951 . S
H1362 C1387 0.951 . S
H1363 C1389 0.950 . S
H1364 C1390 0.950 . S
H1365 C1392 0.950 . S
H1366 C1395 0.950 . S
H1367 C1396 0.950 . S
H1368 C1398 0.950 . S
H1369 C1399 0.950 . S
C1370 H1352 0.951 . S
C1370 C1371 1.366 . S
C1370 C1372 1.388 . S
C1371 C1370 1.366 . S
C1371 C1375 1.385 . S
C1372 H1353 0.951 . S
C1372 C1370 1.388 . S
C1372 C1373 1.366 . S
C1373 C1372 1.366 . S
C1373 C1374 1.414 . S
C1373 C1376 1.499 . S
C1374 H1354 0.950 . S
C1374 C1373 1.414 . S
C1374 C1375 1.374 . S
C1375 H1355 0.950 . S
C1375 C1371 1.385 . S
C1375 C1374 1.374 . S
C1376 C1373 1.499 . S
C1376 C1377 1.373 . S
C1376 C1378 1.389 . S
C1377 H1356 0.950 . S
C1377 C1376 1.373 . S
C1377 C1393 1.377 . S
C1378 C1376 1.389 . S
C1378 C1379 1.524 . S
C1378 C1392 1.377 . S
C1379 C1378 1.524 . S
C1379 C1380 1.397 . S
C1379 C1384 1.363 . S
C1380 H1357 0.950 . S
C1380 C1379 1.397 . S
C1380 C1381 1.334 . S
C1381 H1358 0.950 . S
C1381 C1380 1.334 . S
C1381 C1382 1.287 . S
C1382 C1381 1.287 . S
C1382 C1383 1.524 . S
C1382 H1401 0.913 . S
C1383 H1359 0.950 . S
C1383 C1382 1.524 . S
C1383 C1384 1.415 . S
C1384 H1360 0.950 . S
C1384 C1379 1.363 . S
C1384 C1383 1.415 . S
C1385 H1361 0.951 . S
C1385 C1386 1.366 . S
C1385 C1387 1.388 . S
C1386 C1385 1.366 . S
C1386 C1390 1.385 . S
C1387 H1362 0.951 . S
C1387 C1385 1.388 . S
C1387 C1388 1.366 . S
C1388 C1387 1.366 . S
C1388 C1389 1.414 . S
C1388 C1391 1.499 . S
C1389 H1363 0.950 . S
C1389 C1388 1.414 . S
C1389 C1390 1.374 . S
C1390 H1364 0.950 . S
C1390 C1386 1.385 . S
C1390 C1389 1.374 . S
C1391 C1388 1.499 . S
C1391 C1392 1.373 . S
C1391 C1393 1.389 . S
C1392 H1365 0.950 . S
C1392 C1378 1.377 . S
C1392 C1391 1.373 . S
C1393 C1377 1.377 . S
C1393 C1391 1.389 . S
C1393 C1394 1.524 . S
C1394 C1393 1.524 . S
C1394 C1395 1.397 . S
C1394 C1399 1.363 . S
C1395 H1366 0.950 . S
C1395 C1394 1.397 . S
C1395 C1396 1.334 . S
C1396 H1367 0.950 . S
C1396 C1395 1.334 . S
C1396 C1397 1.287 . S
C1397 C1396 1.287 . S
C1397 C1398 1.524 . S
C1397 H1400 0.999 . S
C1398 H1368 0.950 . S
C1398 C1397 1.524 . S
C1398 C1399 1.415 . S
C1399 H1369 0.950 . S
C1399 C1394 1.363 . S
C1399 C1398 1.415 . S
H1400 C1397 0.999 . S
H1401 C1382 0.913 . S
H1402 C1420 0.951 . S
H1403 C1422 0.951 . S
H1404 C1424 0.950 . S
H1405 C1425 0.950 . S
H1406 C1427 0.950 . S
H1407 C1430 0.950 . S
H1408 C1431 0.950 . S
H1409 C1433 0.950 . S
H1410 C1434 0.950 . S
H1411 C1435 0.951 . S
H1412 C1437 0.951 . S
H1413 C1439 0.950 . S
H1414 C1440 0.950 . S
H1415 C1442 0.950 . S
H1416 C1445 0.950 . S
H1417 C1446 0.950 . S
H1418 C1448 0.950 . S
H1419 C1449 0.950 . S
C1420 H1402 0.951 . S
C1420 C1421 1.366 . S
C1420 C1422 1.388 . S
C1421 C1420 1.366 . S
C1421 C1425 1.385 . S
C1422 H1403 0.951 . S
C1422 C1420 1.388 . S
C1422 C1423 1.366 . S
C1423 C1422 1.366 . S
C1423 C1424 1.414 . S
C1423 C1426 1.499 . S
C1424 H1404 0.950 . S
C1424 C1423 1.414 . S
C1424 C1425 1.374 . S
C1425 H1405 0.950 . S
C1425 C1421 1.385 . S
C1425 C1424 1.374 . S
C1426 C1423 1.499 . S
C1426 C1427 1.373 . S
C1426 C1428 1.389 . S
C1427 H1406 0.950 . S
C1427 C1426 1.373 . S
C1427 C1443 1.377 . S
C1428 C1426 1.389 . S
C1428 C1429 1.524 . S
C1428 C1442 1.377 . S
C1429 C1428 1.524 . S
C1429 C1430 1.397 . S
C1429 C1434 1.363 . S
C1430 H1407 0.950 . S
C1430 C1429 1.397 . S
C1430 C1431 1.334 . S
C1431 H1408 0.950 . S
C1431 C1430 1.334 . S
C1431 C1432 1.287 . S
C1432 C1431 1.287 . S
C1432 C1433 1.524 . S
C1432 H1451 0.913 . S
C1433 H1409 0.950 . S
C1433 C1432 1.524 . S
C1433 C1434 1.415 . S
C1434 H1410 0.950 . S
C1434 C1429 1.363 . S
C1434 C1433 1.415 . S
C1435 H1411 0.951 . S
C1435 C1436 1.366 . S
C1435 C1437 1.388 . S
C1436 C1435 1.366 . S
C1436 C1440 1.385 . S
C1437 H1412 0.951 . S
C1437 C1435 1.388 . S
C1437 C1438 1.366 . S
C1438 C1437 1.366 . S
C1438 C1439 1.414 . S
C1438 C1441 1.499 . S
C1439 H1413 0.950 . S
C1439 C1438 1.414 . S
C1439 C1440 1.374 . S
C1440 H1414 0.950 . S
C1440 C1436 1.385 . S
C1440 C1439 1.374 . S
C1441 C1438 1.499 . S
C1441 C1442 1.373 . S
C1441 C1443 1.389 . S
C1442 H1415 0.950 . S
C1442 C1428 1.377 . S
C1442 C1441 1.373 . S
C1443 C1427 1.377 . S
C1443 C1441 1.389 . S
C1443 C1444 1.524 . S
C1444 C1443 1.524 . S
C1444 C1445 1.397 . S
C1444 C1449 1.363 . S
C1445 H1416 0.950 . S
C1445 C1444 1.397 . S
C1445 C1446 1.334 . S
C1446 H1417 0.950 . S
C1446 C1445 1.334 . S
C1446 C1447 1.287 . S
C1447 C1446 1.287 . S
C1447 C1448 1.524 . S
C1447 H1450 0.999 . S
C1448 H1418 0.950 . S
C1448 C1447 1.524 . S
C1448 C1449 1.415 . S
C1449 H1419 0.950 . S
C1449 C1444 1.363 . S
C1449 C1448 1.415 . S
H1450 C1447 0.999 . S
H1451 C1432 0.913 . S
H1452 C1470 0.951 . S
H1453 C1472 0.951 . S
H1454 C1474 0.950 . S
H1455 C1475 0.950 . S
H1456 C1477 0.950 . S
H1457 C1480 0.950 . S
H1458 C1481 0.950 . S
H1459 C1483 0.950 . S
H1460 C1484 0.950 . S
H1461 C1485 0.951 . S
H1462 C1487 0.951 . S
H1463 C1489 0.950 . S
H1464 C1490 0.950 . S
H1465 C1492 0.950 . S
H1466 C1495 0.950 . S
H1467 C1496 0.950 . S
H1468 C1498 0.950 . S
H1469 C1499 0.950 . S
C1470 H1452 0.951 . S
C1470 C1471 1.366 . S
C1470 C1472 1.388 . S
C1471 C1470 1.366 . S
C1471 C1475 1.385 . S
C1472 H1453 0.951 . S
C1472 C1470 1.388 . S
C1472 C1473 1.366 . S
C1473 C1472 1.366 . S
C1473 C1474 1.414 . S
C1473 C1476 1.499 . S
C1474 H1454 0.950 . S
C1474 C1473 1.414 . S
C1474 C1475 1.374 . S
C1475 H1455 0.950 . S
C1475 C1471 1.385 . S
C1475 C1474 1.374 . S
C1476 C1473 1.499 . S
C1476 C1477 1.373 . S
C1476 C1478 1.389 . S
C1477 H1456 0.950 . S
C1477 C1476 1.373 . S
C1477 C1493 1.377 . S
C1478 C1476 1.389 . S
C1478 C1479 1.524 . S
C1478 C1492 1.377 . S
C1479 C1478 1.524 . S
C1479 C1480 1.397 . S
C1479 C1484 1.363 . S
C1480 H1457 0.950 . S
C1480 C1479 1.397 . S
C1480 C1481 1.334 . S
C1481 H1458 0.950 . S
C1481 C1480 1.334 . S
C1481 C1482 1.287 . S
C1482 C1481 1.287 . S
C1482 C1483 1.524 . S
C1482 H1501 0.913 . S
C1483 H1459 0.950 . S
C1483 C1482 1.524 . S
C1483 C1484 1.415 . S
C1484 H1460 0.950 . S
C1484 C1479 1.363 . S
C1484 C1483 1.415 . S
C1485 H1461 0.951 . S
C1485 C1486 1.366 . S
C1485 C1487 1.388 . S
C1486 C1485 1.366 . S
C1486 C1490 1.385 . S
C1487 H1462 0.951 . S
C1487 C1485 1.388 . S
C1487 C1488 1.366 . S
C1488 C1487 1.366 . S
C1488 C1489 1.414 . S
C1488 C1491 1.499 . S
C1489 H1463 0.950 . S
C1489 C1488 1.414 . S
C1489 C1490 1.374 . S
C1490 H1464 0.950 . S
C1490 C1486 1.385 . S
C1490 C1489 1.374 . S
C1491 C1488 1.499 . S
C1491 C1492 1.373 . S
C1491 C1493 1.389 . S
C1492 H1465 0.950 . S
C1492 C1478 1.377 . S
C1492 C1491 1.373 . S
C1493 C1477 1.377 . S
C1493 C1491 1.389 . S
C1493 C1494 1.524 . S
C1494 C1493 1.524 . S
C1494 C1495 1.397 . S
C1494 C1499 1.363 . S
C1495 H1466 0.950 . S
C1495 C1494 1.397 . S
C1495 C1496 1.334 . S
C1496 H1467 0.950 . S
C1496 C1495 1.334 . S
C1496 C1497 1.287 . S
C1497 C1496 1.287 . S
C1497 C1498 1.524 . S
C1497 H1500 0.999 . S
C1498 H1468 0.950 . S
C1498 C1497 1.524 . S
C1498 C1499 1.415 . S
C1499 H1469 0.950 . S
C1499 C1494 1.363 . S
C1499 C1498 1.415 . S
H1500 C1497 0.999 . S
H1501 C1482 0.913 . S
H1502 C1520 0.951 . S
H1503 C1522 0.951 . S
H1504 C1524 0.950 . S
H1505 C1525 0.950 . S
H1506 C1527 0.950 . S
H1507 C1530 0.950 . S
H1508 C1531 0.950 . S
H1509 C1533 0.950 . S
H1510 C1534 0.950 . S
H1511 C1535 0.951 . S
H1512 C1537 0.951 . S
H1513 C1539 0.950 . S
H1514 C1540 0.950 . S
H1515 C1542 0.950 . S
H1516 C1545 0.950 . S
H1517 C1546 0.950 . S
H1518 C1548 0.950 . S
H1519 C1549 0.950 . S
C1520 H1502 0.951 . S
C1520 C1521 1.366 . S
C1520 C1522 1.388 . S
C1521 C1520 1.366 . S
C1521 C1525 1.385 . S
C1522 H1503 0.951 . S
C1522 C1520 1.388 . S
C1522 C1523 1.366 . S
C1523 C1522 1.366 . S
C1523 C1524 1.414 . S
C1523 C1526 1.499 . S
C1524 H1504 0.950 . S
C1524 C1523 1.414 . S
C1524 C1525 1.374 . S
C1525 H1505 0.950 . S
C1525 C1521 1.385 . S
C1525 C1524 1.374 . S
C1526 C1523 1.499 . S
C1526 C1527 1.373 . S
C1526 C1528 1.389 . S
C1527 H1506 0.950 . S
C1527 C1526 1.373 . S
C1527 C1543 1.377 . S
C1528 C1526 1.389 . S
C1528 C1529 1.524 . S
C1528 C1542 1.377 . S
C1529 C1528 1.524 . S
C1529 C1530 1.397 . S
C1529 C1534 1.363 . S
C1530 H1507 0.950 . S
C1530 C1529 1.397 . S
C1530 C1531 1.334 . S
C1531 H1508 0.950 . S
C1531 C1530 1.334 . S
C1531 C1532 1.287 . S
C1532 C1531 1.287 . S
C1532 C1533 1.524 . S
C1532 H1551 0.913 . S
C1533 H1509 0.950 . S
C1533 C1532 1.524 . S
C1533 C1534 1.415 . S
C1534 H1510 0.950 . S
C1534 C1529 1.363 . S
C1534 C1533 1.415 . S
C1535 H1511 0.951 . S
C1535 C1536 1.366 . S
C1535 C1537 1.388 . S
C1536 C1535 1.366 . S
C1536 C1540 1.385 . S
C1537 H1512 0.951 . S
C1537 C1535 1.388 . S
C1537 C1538 1.366 . S
C1538 C1537 1.366 . S
C1538 C1539 1.414 . S
C1538 C1541 1.499 . S
C1539 H1513 0.950 . S
C1539 C1538 1.414 . S
C1539 C1540 1.374 . S
C1540 H1514 0.950 . S
C1540 C1536 1.385 . S
C1540 C1539 1.374 . S
C1541 C1538 1.499 . S
C1541 C1542 1.373 . S
C1541 C1543 1.389 . S
C1542 H1515 0.950 . S
C1542 C1528 1.377 . S
C1542 C1541 1.373 . S
C1543 C1527 1.377 . S
C1543 C1541 1.389 . S
C1543 C1544 1.524 . S
C1544 C1543 1.524 . S
C1544 C1545 1.397 . S
C1544 C1549 1.363 . S
C1545 H1516 0.950 . S
C1545 C1544 1.397 . S
C1545 C1546 1.334 . S
C1546 H1517 0.950 . S
C1546 C1545 1.334 . S
C1546 C1547 1.287 . S
C1547 C1546 1.287 . S
C1547 C1548 1.524 . S
C1547 H1550 0.999 . S
C1548 H1518 0.950 . S
C1548 C1547 1.524 . S
C1548 C1549 1.415 . S
C1549 H1519 0.950 . S
C1549 C1544 1.363 . S
C1549 C1548 1.415 . S
H1550 C1547 0.999 . S
H1551 C1532 0.913 . S
H1552 C1570 0.951 . S
H1553 C1572 0.951 . S
H1554 C1574 0.950 . S
H1555 C1575 0.950 . S
H1556 C1577 0.950 . S
H1557 C1580 0.950 . S
H1558 C1581 0.950 . S
H1559 C1583 0.950 . S
H1560 C1584 0.950 . S
H1561 C1585 0.951 . S
H1562 C1587 0.951 . S
H1563 C1589 0.950 . S
H1564 C1590 0.950 . S
H1565 C1592 0.950 . S
H1566 C1595 0.950 . S
H1567 C1596 0.950 . S
H1568 C1598 0.950 . S
H1569 C1599 0.950 . S
C1570 H1552 0.951 . S
C1570 C1571 1.366 . S
C1570 C1572 1.388 . S
C1571 C1570 1.366 . S
C1571 C1575 1.385 . S
C1572 H1553 0.951 . S
C1572 C1570 1.388 . S
C1572 C1573 1.366 . S
C1573 C1572 1.366 . S
C1573 C1574 1.414 . S
C1573 C1576 1.499 . S
C1574 H1554 0.950 . S
C1574 C1573 1.414 . S
C1574 C1575 1.374 . S
C1575 H1555 0.950 . S
C1575 C1571 1.385 . S
C1575 C1574 1.374 . S
C1576 C1573 1.499 . S
C1576 C1577 1.373 . S
C1576 C1578 1.389 . S
C1577 H1556 0.950 . S
C1577 C1576 1.373 . S
C1577 C1593 1.377 . S
C1578 C1576 1.389 . S
C1578 C1579 1.524 . S
C1578 C1592 1.377 . S
C1579 C1578 1.524 . S
C1579 C1580 1.397 . S
C1579 C1584 1.363 . S
C1580 H1557 0.950 . S
C1580 C1579 1.397 . S
C1580 C1581 1.334 . S
C1581 H1558 0.950 . S
C1581 C1580 1.334 . S
C1581 C1582 1.287 . S
C1582 C1581 1.287 . S
C1582 C1583 1.524 . S
C1582 H1601 0.913 . S
C1583 H1559 0.950 . S
C1583 C1582 1.524 . S
C1583 C1584 1.415 . S
C1584 H1560 0.950 . S
C1584 C1579 1.363 . S
C1584 C1583 1.415 . S
C1585 H1561 0.951 . S
C1585 C1586 1.366 . S
C1585 C1587 1.388 . S
C1586 C1585 1.366 . S
C1586 C1590 1.385 . S
C1587 H1562 0.951 . S
C1587 C1585 1.388 . S
C1587 C1588 1.366 . S
C1588 C1587 1.366 . S
C1588 C1589 1.414 . S
C1588 C1591 1.499 . S
C1589 H1563 0.950 . S
C1589 C1588 1.414 . S
C1589 C1590 1.374 . S
C1590 H1564 0.950 . S
C1590 C1586 1.385 . S
C1590 C1589 1.374 . S
C1591 C1588 1.499 . S
C1591 C1592 1.373 . S
C1591 C1593 1.389 . S
C1592 H1565 0.950 . S
C1592 C1578 1.377 . S
C1592 C1591 1.373 . S
C1593 C1577 1.377 . S
C1593 C1591 1.389 . S
C1593 C1594 1.524 . S
C1594 C1593 1.524 . S
C1594 C1595 1.397 . S
C1594 C1599 1.363 . S
C1595 H1566 0.950 . S
C1595 C1594 1.397 . S
C1595 C1596 1.334 . S
C1596 H1567 0.950 . S
C1596 C1595 1.334 . S
C1596 C1597 1.287 . S
C1597 C1596 1.287 . S
C1597 C1598 1.524 . S
C1597 H1600 0.999 . S
C1598 H1568 0.950 . S
C1598 C1597 1.524 . S
C1598 C1599 1.415 . S
C1599 H1569 0.950 . S
C1599 C1594 1.363 . S
C1599 C1598 1.415 . S
H1600 C1597 0.999 . S
H1601 C1582 0.913 . S
H1602 C1620 0.951 . S
H1603 C1622 0.951 . S
H1604 C1624 0.950 . S
H1605 C1625 0.950 . S
H1606 C1627 0.950 . S
H1607 C1630 0.950 . S
H1608 C1631 0.950 . S
H1609 C1633 0.950 . S
H1610 C1634 0.950 . S
H1611 C1635 0.951 . S
H1612 C1637 0.951 . S
H1613 C1639 0.950 . S
H1614 C1640 0.950 . S
H1615 C1642 0.950 . S
H1616 C1645 0.950 . S
H1617 C1646 0.950 . S
H1618 C1648 0.950 . S
H1619 C1649 0.950 . S
C1620 H1602 0.951 . S
C1620 C1621 1.366 . S
C1620 C1622 1.388 . S
C1621 C1620 1.366 . S
C1621 C1625 1.385 . S
C1622 H1603 0.951 . S
C1622 C1620 1.388 . S
C1622 C1623 1.366 . S
C1623 C1622 1.366 . S
C1623 C1624 1.414 . S
C1623 C1626 1.499 . S
C1624 H1604 0.950 . S
C1624 C1623 1.414 . S
C1624 C1625 1.374 . S
C1625 H1605 0.950 . S
C1625 C1621 1.385 . S
C1625 C1624 1.374 . S
C1626 C1623 1.499 . S
C1626 C1627 1.373 . S
C1626 C1628 1.389 . S
C1627 H1606 0.950 . S
C1627 C1626 1.373 . S
C1627 C1643 1.377 . S
C1628 C1626 1.389 . S
C1628 C1629 1.524 . S
C1628 C1642 1.377 . S
C1629 C1628 1.524 . S
C1629 C1630 1.397 . S
C1629 C1634 1.363 . S
C1630 H1607 0.950 . S
C1630 C1629 1.397 . S
C1630 C1631 1.334 . S
C1631 H1608 0.950 . S
C1631 C1630 1.334 . S
C1631 C1632 1.287 . S
C1632 C1631 1.287 . S
C1632 C1633 1.524 . S
C1632 H1651 0.913 . S
C1633 H1609 0.950 . S
C1633 C1632 1.524 . S
C1633 C1634 1.415 . S
C1634 H1610 0.950 . S
C1634 C1629 1.363 . S
C1634 C1633 1.415 . S
C1635 H1611 0.951 . S
C1635 C1636 1.366 . S
C1635 C1637 1.388 . S
C1636 C1635 1.366 . S
C1636 C1640 1.385 . S
C1637 H1612 0.951 . S
C1637 C1635 1.388 . S
C1637 C1638 1.366 . S
C1638 C1637 1.366 . S
C1638 C1639 1.414 . S
C1638 C1641 1.499 . S
C1639 H1613 0.950 . S
C1639 C1638 1.414 . S
C1639 C1640 1.374 . S
C1640 H1614 0.950 . S
C1640 C1636 1.385 . S
C1640 C1639 1.374 . S
C1641 C1638 1.499 . S
C1641 C1642 1.373 . S
C1641 C1643 1.389 . S
C1642 H1615 0.950 . S
C1642 C1628 1.377 . S
C1642 C1641 1.373 . S
C1643 C1627 1.377 . S
C1643 C1641 1.389 . S
C1643 C1644 1.524 . S
C1644 C1643 1.524 . S
C1644 C1645 1.397 . S
C1644 C1649 1.363 . S
C1645 H1616 0.950 . S
C1645 C1644 1.397 . S
C1645 C1646 1.334 . S
C1646 H1617 0.950 . S
C1646 C1645 1.334 . S
C1646 C1647 1.287 . S
C1647 C1646 1.287 . S
C1647 C1648 1.524 . S
C1647 H1650 0.999 . S
C1648 H1618 0.950 . S
C1648 C1647 1.524 . S
C1648 C1649 1.415 . S
C1649 H1619 0.950 . S
C1649 C1644 1.363 . S
C1649 C1648 1.415 . S
H1650 C1647 0.999 . S
H1651 C1632 0.913 . S
H1652 C1670 0.951 . S
H1653 C1672 0.951 . S
H1654 C1674 0.950 . S
H1655 C1675 0.950 . S
H1656 C1677 0.950 . S
H1657 C1680 0.950 . S
H1658 C1681 0.950 . S
H1659 C1683 0.950 . S
H1660 C1684 0.950 . S
H1661 C1685 0.951 . S
H1662 C1687 0.951 . S
H1663 C1689 0.950 . S
H1664 C1690 0.950 . S
H1665 C1692 0.950 . S
H1666 C1695 0.950 . S
H1667 C1696 0.950 . S
H1668 C1698 0.950 . S
H1669 C1699 0.950 . S
C1670 H1652 0.951 . S
C1670 C1671 1.366 . S
C1670 C1672 1.388 . S
C1671 C1670 1.366 . S
C1671 C1675 1.385 . S
C1672 H1653 0.951 . S
C1672 C1670 1.388 . S
C1672 C1673 1.366 . S
C1673 C1672 1.366 . S
C1673 C1674 1.414 . S
C1673 C1676 1.499 . S
C1674 H1654 0.950 . S
C1674 C1673 1.414 . S
C1674 C1675 1.374 . S
C1675 H1655 0.950 . S
C1675 C1671 1.385 . S
C1675 C1674 1.374 . S
C1676 C1673 1.499 . S
C1676 C1677 1.373 . S
C1676 C1678 1.389 . S
C1677 H1656 0.950 . S
C1677 C1676 1.373 . S
C1677 C1693 1.377 . S
C1678 C1676 1.389 . S
C1678 C1679 1.524 . S
C1678 C1692 1.377 . S
C1679 C1678 1.524 . S
C1679 C1680 1.397 . S
C1679 C1684 1.363 . S
C1680 H1657 0.950 . S
C1680 C1679 1.397 . S
C1680 C1681 1.334 . S
C1681 H1658 0.950 . S
C1681 C1680 1.334 . S
C1681 C1682 1.287 . S
C1682 C1681 1.287 . S
C1682 C1683 1.524 . S
C1682 H1701 0.913 . S
C1683 H1659 0.950 . S
C1683 C1682 1.524 . S
C1683 C1684 1.415 . S
C1684 H1660 0.950 . S
C1684 C1679 1.363 . S
C1684 C1683 1.415 . S
C1685 H1661 0.951 . S
C1685 C1686 1.366 . S
C1685 C1687 1.388 . S
C1686 C1685 1.366 . S
C1686 C1690 1.385 . S
C1687 H1662 0.951 . S
C1687 C1685 1.388 . S
C1687 C1688 1.366 . S
C1688 C1687 1.366 . S
C1688 C1689 1.414 . S
C1688 C1691 1.499 . S
C1689 H1663 0.950 . S
C1689 C1688 1.414 . S
C1689 C1690 1.374 . S
C1690 H1664 0.950 . S
C1690 C1686 1.385 . S
C1690 C1689 1.374 . S
C1691 C1688 1.499 . S
C1691 C1692 1.373 . S
C1691 C1693 1.389 . S
C1692 H1665 0.950 . S
C1692 C1678 1.377 . S
C1692 C1691 1.373 . S
C1693 C1677 1.377 . S
C1693 C1691 1.389 . S
C1693 C1694 1.524 . S
C1694 C1693 1.524 . S
C1694 C1695 1.397 . S
C1694 C1699 1.363 . S
C1695 H1666 0.950 . S
C1695 C1694 1.397 . S
C1695 C1696 1.334 . S
C1696 H1667 0.950 . S
C1696 C1695 1.334 . S
C1696 C1697 1.287 . S
C1697 C1696 1.287 . S
C1697 C1698 1.524 . S
C1697 H1700 0.999 . S
C1698 H1668 0.950 . S
C1698 C1697 1.524 . S
C1698 C1699 1.415 . S
C1699 H1669 0.950 . S
C1699 C1694 1.363 . S
C1699 C1698 1.415 . S
H1700 C1697 0.999 . S
H1701 C1682 0.913 . S
H1702 C1720 0.951 . S
H1703 C1722 0.951 . S
H1704 C1724 0.950 . S
H1705 C1725 0.950 . S
H1706 C1727 0.950 . S
H1707 C1730 0.950 . S
H1708 C1731 0.950 . S
H1709 C1733 0.950 . S
H1710 C1734 0.950 . S
H1711 C1735 0.951 . S
H1712 C1737 0.951 . S
H1713 C1739 0.950 . S
H1714 C1740 0.950 . S
H1715 C1742 0.950 . S
H1716 C1745 0.950 . S
H1717 C1746 0.950 . S
H1718 C1748 0.950 . S
H1719 C1749 0.950 . S
C1720 H1702 0.951 . S
C1720 C1721 1.366 . S
C1720 C1722 1.388 . S
C1721 C1720 1.366 . S
C1721 C1725 1.385 . S
C1722 H1703 0.951 . S
C1722 C1720 1.388 . S
C1722 C1723 1.366 . S
C1723 C1722 1.366 . S
C1723 C1724 1.414 . S
C1723 C1726 1.499 . S
C1724 H1704 0.950 . S
C1724 C1723 1.414 . S
C1724 C1725 1.374 . S
C1725 H1705 0.950 . S
C1725 C1721 1.385 . S
C1725 C1724 1.374 . S
C1726 C1723 1.499 . S
C1726 C1727 1.373 . S
C1726 C1728 1.389 . S
C1727 H1706 0.950 . S
C1727 C1726 1.373 . S
C1727 C1743 1.377 . S
C1728 C1726 1.389 . S
C1728 C1729 1.524 . S
C1728 C1742 1.377 . S
C1729 C1728 1.524 . S
C1729 C1730 1.397 . S
C1729 C1734 1.363 . S
C1730 H1707 0.950 . S
C1730 C1729 1.397 . S
C1730 C1731 1.334 . S
C1731 H1708 0.950 . S
C1731 C1730 1.334 . S
C1731 C1732 1.287 . S
C1732 C1731 1.287 . S
C1732 C1733 1.524 . S
C1732 H1751 0.913 . S
C1733 H1709 0.950 . S
C1733 C1732 1.524 . S
C1733 C1734 1.415 . S
C1734 H1710 0.950 . S
C1734 C1729 1.363 . S
C1734 C1733 1.415 . S
C1735 H1711 0.951 . S
C1735 C1736 1.366 . S
C1735 C1737 1.388 . S
C1736 C1735 1.366 . S
C1736 C1740 1.385 . S
C1737 H1712 0.951 . S
C1737 C1735 1.388 . S
C1737 C1738 1.366 . S
C1738 C1737 1.366 . S
C1738 C1739 1.414 . S
C1738 C1741 1.499 . S
C1739 H1713 0.950 . S
C1739 C1738 1.414 . S
C1739 C1740 1.374 . S
C1740 H1714 0.950 . S
C1740 C1736 1.385 . S
C1740 C1739 1.374 . S
C1741 C1738 1.499 . S
C1741 C1742 1.373 . S
C1741 C1743 1.389 . S
C1742 H1715 0.950 . S
C1742 C1728 1.377 . S
C1742 C1741 1.373 . S
C1743 C1727 1.377 . S
C1743 C1741 1.389 . S
C1743 C1744 1.524 . S
C1744 C1743 1.524 . S
C1744 C1745 1.397 . S
C1744 C1749 1.363 . S
C1745 H1716 0.950 . S
C1745 C1744 1.397 . S
C1745 C1746 1.334 . S
C1746 H1717 0.950 . S
C1746 C1745 1.334 . S
C1746 C1747 1.287 . S
C1747 C1746 1.287 . S
C1747 C1748 1.524 . S
C1747 H1750 0.999 . S
C1748 H1718 0.950 . S
C1748 C1747 1.524 . S
C1748 C1749 1.415 . S
C1749 H1719 0.950 . S
C1749 C1744 1.363 . S
C1749 C1748 1.415 . S
H1750 C1747 0.999 . S
H1751 C1732 0.913 . S
H1752 C1770 0.951 . S
H1753 C1772 0.951 . S
H1754 C1774 0.950 . S
H1755 C1775 0.950 . S
H1756 C1777 0.950 . S
H1757 C1780 0.950 . S
H1758 C1781 0.950 . S
H1759 C1783 0.950 . S
H1760 C1784 0.950 . S
H1761 C1785 0.951 . S
H1762 C1787 0.951 . S
H1763 C1789 0.950 . S
H1764 C1790 0.950 . S
H1765 C1792 0.950 . S
H1766 C1795 0.950 . S
H1767 C1796 0.950 . S
H1768 C1798 0.950 . S
H1769 C1799 0.950 . S
C1770 H1752 0.951 . S
C1770 C1771 1.366 . S
C1770 C1772 1.388 . S
C1771 C1770 1.366 . S
C1771 C1775 1.385 . S
C1772 H1753 0.951 . S
C1772 C1770 1.388 . S
C1772 C1773 1.366 . S
C1773 C1772 1.366 . S
C1773 C1774 1.414 . S
C1773 C1776 1.499 . S
C1774 H1754 0.950 . S
C1774 C1773 1.414 . S
C1774 C1775 1.374 . S
C1775 H1755 0.950 . S
C1775 C1771 1.385 . S
C1775 C1774 1.374 . S
C1776 C1773 1.499 . S
C1776 C1777 1.373 . S
C1776 C1778 1.389 . S
C1777 H1756 0.950 . S
C1777 C1776 1.373 . S
C1777 C1793 1.377 . S
C1778 C1776 1.389 . S
C1778 C1779 1.524 . S
C1778 C1792 1.377 . S
C1779 C1778 1.524 . S
C1779 C1780 1.397 . S
C1779 C1784 1.363 . S
C1780 H1757 0.950 . S
C1780 C1779 1.397 . S
C1780 C1781 1.334 . S
C1781 H1758 0.950 . S
C1781 C1780 1.334 . S
C1781 C1782 1.287 . S
C1782 C1781 1.287 . S
C1782 C1783 1.524 . S
C1782 H1801 0.913 . S
C1783 H1759 0.950 . S
C1783 C1782 1.524 . S
C1783 C1784 1.415 . S
C1784 H1760 0.950 . S
C1784 C1779 1.363 . S
C1784 C1783 1.415 . S
C1785 H1761 0.951 . S
C1785 C1786 1.366 . S
C1785 C1787 1.388 . S
C1786 C1785 1.366 . S
C1786 C1790 1.385 . S
C1787 H1762 0.951 . S
C1787 C1785 1.388 . S
C1787 C1788 1.366 . S
C1788 C1787 1.366 . S
C1788 C1789 1.414 . S
C1788 C1791 1.499 . S
C1789 H1763 0.950 . S
C1789 C1788 1.414 . S
C1789 C1790 1.374 . S
C1790 H1764 0.950 . S
C1790 C1786 1.385 . S
C1790 C1789 1.374 . S
C1791 C1788 1.499 . S
C1791 C1792 1.373 . S
C1791 C1793 1.389 . S
C1792 H1765 0.950 . S
C1792 C1778 1.377 . S
C1792 C1791 1.373 . S
C1793 C1777 1.377 . S
C1793 C1791 1.389 . S
C1793 C1794 1.524 . S
C1794 C1793 1.524 . S
C1794 C1795 1.397 . S
C1794 C1799 1.363 . S
C1795 H1766 0.950 . S
C1795 C1794 1.397 . S
C1795 C1796 1.334 . S
C1796 H1767 0.950 . S
C1796 C1795 1.334 . S
C1796 C1797 1.287 . S
C1797 C1796 1.287 . S
C1797 C1798 1.524 . S
C1797 H1800 0.999 . S
C1798 H1768 0.950 . S
C1798 C1797 1.524 . S
C1798 C1799 1.415 . S
C1799 H1769 0.950 . S
C1799 C1794 1.363 . S
C1799 C1798 1.415 . S
H1800 C1797 0.999 . S
H1801 C1782 0.913 . S
H1802 C1820 0.951 . S
H1803 C1822 0.951 . S
H1804 C1824 0.950 . S
H1805 C1825 0.950 . S
H1806 C1827 0.950 . S
H1807 C1830 0.950 1_565 S
H1808 C1831 0.950 . S
H1809 C1833 0.950 . S
H1810 C1834 0.950 . S
H1811 C1835 0.951 . S
H1812 C1837 0.951 . S
H1813 C1839 0.950 . S
H1814 C1840 0.950 . S
H1815 C1842 0.950 . S
H1816 C1845 0.950 . S
H1817 C1846 0.950 . S
H1818 C1848 0.950 . S
H1819 C1849 0.950 . S
C1820 H1802 0.951 . S
C1820 C1821 1.366 . S
C1820 C1822 1.388 . S
C1821 C1820 1.366 . S
C1821 C1825 1.385 . S
C1822 H1803 0.951 . S
C1822 C1820 1.388 . S
C1822 C1823 1.366 . S
C1823 C1822 1.366 . S
C1823 C1824 1.414 . S
C1823 C1826 1.499 . S
C1824 H1804 0.950 . S
C1824 C1823 1.414 . S
C1824 C1825 1.374 . S
C1825 H1805 0.950 . S
C1825 C1821 1.385 . S
C1825 C1824 1.374 . S
C1826 C1823 1.499 . S
C1826 C1827 1.373 . S
C1826 C1828 1.389 . S
C1827 H1806 0.950 . S
C1827 C1826 1.373 . S
C1827 C1843 1.377 1_545 S
C1828 C1826 1.389 . S
C1828 C1829 1.524 . S
C1828 C1842 1.377 1_545 S
C1829 C1828 1.524 . S
C1829 C1830 1.397 . S
C1829 C1834 1.363 . S
C1830 H1807 0.950 1_545 S
C1830 C1829 1.397 . S
C1830 C1831 1.334 . S
C1831 H1808 0.950 . S
C1831 C1830 1.334 . S
C1831 C1832 1.287 . S
C1832 C1831 1.287 . S
C1832 C1833 1.524 . S
C1832 H1851 0.913 . S
C1833 H1809 0.950 . S
C1833 C1832 1.524 . S
C1833 C1834 1.415 . S
C1834 H1810 0.950 . S
C1834 C1829 1.363 . S
C1834 C1833 1.415 . S
C1835 H1811 0.951 . S
C1835 C1836 1.366 . S
C1835 C1837 1.388 . S
C1836 C1835 1.366 . S
C1836 C1840 1.385 . S
C1837 H1812 0.951 . S
C1837 C1835 1.388 . S
C1837 C1838 1.366 . S
C1838 C1837 1.366 . S
C1838 C1839 1.414 . S
C1838 C1841 1.499 . S
C1839 H1813 0.950 . S
C1839 C1838 1.414 . S
C1839 C1840 1.374 . S
C1840 H1814 0.950 . S
C1840 C1836 1.385 . S
C1840 C1839 1.374 . S
C1841 C1838 1.499 . S
C1841 C1842 1.373 . S
C1841 C1843 1.389 . S
C1842 H1815 0.950 . S
C1842 C1828 1.377 1_565 S
C1842 C1841 1.373 . S
C1843 C1827 1.377 1_565 S
C1843 C1841 1.389 . S
C1843 C1844 1.524 . S
C1844 C1843 1.524 . S
C1844 C1845 1.397 . S
C1844 C1849 1.363 . S
C1845 H1816 0.950 . S
C1845 C1844 1.397 . S
C1845 C1846 1.334 . S
C1846 H1817 0.950 . S
C1846 C1845 1.334 . S
C1846 C1847 1.287 . S
C1847 C1846 1.287 . S
C1847 C1848 1.524 . S
C1847 H1850 0.999 . S
C1848 H1818 0.950 . S
C1848 C1847 1.524 . S
C1848 C1849 1.415 . S
C1849 H1819 0.950 . S
C1849 C1844 1.363 . S
C1849 C1848 1.415 . S
H1850 C1847 0.999 . S
H1851 C1832 0.913 . S
H1852 C1870 0.951 . S
H1853 C1872 0.951 . S
H1854 C1874 0.950 . S
H1855 C1875 0.950 . S
H1856 C1877 0.950 . S
H1857 C1880 0.950 . S
H1858 C1881 0.950 . S
H1859 C1883 0.950 1_655 S
H1860 C1884 0.950 . S
H1861 C1885 0.951 . S
H1862 C1887 0.951 1_455 S
H1863 C1889 0.950 . S
H1864 C1890 0.950 . S
H1865 C1892 0.931 1_655 S
H1866 C1895 0.950 . S
H1867 C1896 0.950 . S
H1868 C1898 0.950 . S
H1869 C1899 0.950 . S
C1870 H1852 0.951 . S
C1870 C1871 1.366 . S
C1870 C1872 1.388 . S
C1871 C1870 1.366 . S
C1871 C1875 1.385 . S
C1872 H1853 0.951 . S
C1872 C1870 1.388 . S
C1872 C1873 1.366 . S
C1873 C1872 1.366 . S
C1873 C1874 1.414 . S
C1873 C1876 1.499 . S
C1874 H1854 0.950 . S
C1874 C1873 1.414 . S
C1874 C1875 1.374 . S
C1875 H1855 0.950 . S
C1875 C1871 1.385 . S
C1875 C1874 1.374 . S
C1876 C1873 1.499 . S
C1876 C1877 1.373 . S
C1876 C1878 1.389 . S
C1877 H1856 0.950 . S
C1877 C1876 1.373 . S
C1877 C1893 1.377 . S
C1878 C1876 1.389 . S
C1878 C1879 1.524 . S
C1878 C1892 1.377 . S
C1879 C1878 1.524 . S
C1879 C1880 1.397 . S
C1879 C1884 1.363 . S
C1880 H1857 0.950 . S
C1880 C1879 1.397 . S
C1880 C1881 1.334 . S
C1881 H1858 0.950 . S
C1881 C1880 1.334 . S
C1881 C1882 1.284 1_455 S
C1882 C1881 1.284 1_655 S
C1882 C1883 1.539 1_655 S
C1882 H1901 0.903 . S
C1883 H1859 0.950 1_455 S
C1883 C1882 1.539 1_455 S
C1883 C1884 1.411 . S
C1884 H1860 0.950 . S
C1884 C1879 1.363 . S
C1884 C1883 1.411 . S
C1885 H1861 0.951 . S
C1885 C1886 1.366 . S
C1885 C1887 1.388 . S
C1886 C1885 1.366 . S
C1886 C1890 1.385 . S
C1887 H1862 0.951 1_655 S
C1887 C1885 1.388 . S
C1887 C1888 1.366 1_655 S
C1888 C1887 1.366 1_455 S
C1888 C1889 1.414 1_455 S
C1888 C1891 1.499 . S
C1889 H1863 0.950 . S
C1889 C1888 1.414 1_655 S
C1889 C1890 1.374 . S
C1890 H1864 0.950 . S
C1890 C1886 1.385 . S
C1890 C1889 1.374 . S
C1891 C1888 1.499 . S
C1891 C1892 1.373 . S
C1891 C1893 1.389 . S
C1892 H1865 0.931 1_455 S
C1892 C1878 1.377 . S
C1892 C1891 1.373 . S
C1893 C1877 1.377 . S
C1893 C1891 1.389 . S
C1893 C1894 1.524 . S
C1894 C1893 1.524 . S
C1894 C1895 1.397 . S
C1894 C1899 1.363 . S
C1895 H1866 0.950 . S
C1895 C1894 1.397 . S
C1895 C1896 1.334 . S
C1896 H1867 0.950 . S
C1896 C1895 1.334 . S
C1896 C1897 1.287 . S
C1897 C1896 1.287 . S
C1897 C1898 1.524 . S
C1897 H1900 0.999 . S
C1898 H1868 0.950 . S
C1898 C1897 1.524 . S
C1898 C1899 1.415 . S
C1899 H1869 0.950 . S
C1899 C1894 1.363 . S
C1899 C1898 1.415 . S
H1900 C1897 0.999 . S
H1901 C1882 0.903 . S
H1902 C1920 0.951 . S
H1903 C1922 0.951 . S
H1904 C1924 0.950 . S
H1905 C1925 0.950 . S
H1906 C1927 0.950 . S
H1907 C1930 0.950 . S
H1908 C1931 0.950 . S
H1909 C1933 0.950 1_554 S
H1910 C1934 0.950 1_554 S
H1911 C1935 0.951 1_556 S
H1912 C1937 0.951 . S
H1913 C1939 0.950 . S
H1914 C1940 0.950 . S
H1915 C1942 0.950 . S
H1916 C1945 0.950 . S
H1917 C1946 0.950 . S
H1918 C1948 0.950 . S
H1919 C1949 0.950 . S
C1920 H1902 0.951 . S
C1920 C1921 1.366 . S
C1920 C1922 1.388 . S
C1921 C1920 1.366 . S
C1921 C1925 1.385 . S
C1922 H1903 0.951 . S
C1922 C1920 1.388 . S
C1922 C1923 1.366 . S
C1923 C1922 1.366 . S
C1923 C1924 1.414 . S
C1923 C1926 1.499 . S
C1924 H1904 0.950 . S
C1924 C1923 1.414 . S
C1924 C1925 1.374 . S
C1925 H1905 0.950 . S
C1925 C1921 1.385 . S
C1925 C1924 1.374 . S
C1926 C1923 1.499 . S
C1926 C1927 1.373 . S
C1926 C1928 1.389 . S
C1927 H1906 0.950 . S
C1927 C1926 1.373 . S
C1927 C1943 1.377 . S
C1928 C1926 1.389 . S
C1928 C1929 1.524 . S
C1928 C1942 1.377 . S
C1929 C1928 1.524 . S
C1929 C1930 1.397 . S
C1929 C1934 1.363 . S
C1930 H1907 0.950 . S
C1930 C1929 1.397 . S
C1930 C1931 1.334 . S
C1931 H1908 0.950 . S
C1931 C1930 1.334 . S
C1931 C1932 1.287 . S
C1932 C1931 1.287 . S
C1932 C1933 1.524 . S
C1932 H1951 0.913 . S
C1933 H1909 0.950 1_556 S
C1933 C1932 1.524 . S
C1933 C1934 1.415 . S
C1934 H1910 0.950 1_556 S
C1934 C1929 1.363 . S
C1934 C1933 1.415 . S
C1935 H1911 0.951 1_554 S
C1935 C1936 1.366 . S
C1935 C1937 1.388 1_554 S
C1936 C1935 1.366 . S
C1936 C1940 1.385 . S
C1937 H1912 0.951 . S
C1937 C1935 1.388 1_556 S
C1937 C1938 1.366 1_556 S
C1938 C1937 1.366 1_554 S
C1938 C1939 1.414 . S
C1938 C1941 1.499 1_554 S
C1939 H1913 0.950 . S
C1939 C1938 1.414 . S
C1939 C1940 1.374 . S
C1940 H1914 0.950 . S
C1940 C1936 1.385 . S
C1940 C1939 1.374 . S
C1941 C1938 1.499 1_556 S
C1941 C1942 1.373 . S
C1941 C1943 1.389 . S
C1942 H1915 0.950 . S
C1942 C1928 1.377 . S
C1942 C1941 1.373 . S
C1943 C1927 1.377 . S
C1943 C1941 1.389 . S
C1943 C1944 1.524 . S
C1944 C1943 1.524 . S
C1944 C1945 1.397 1_556 S
C1944 C1949 1.363 . S
C1945 H1916 0.950 . S
C1945 C1944 1.397 1_554 S
C1945 C1946 1.334 . S
C1946 H1917 0.950 . S
C1946 C1945 1.334 . S
C1946 C1947 1.287 1_554 S
C1947 C1946 1.287 1_556 S
C1947 C1948 1.524 . S
C1947 H1950 0.999 . S
C1948 H1918 0.950 . S
C1948 C1947 1.524 . S
C1948 C1949 1.415 . S
C1949 H1919 0.950 . S
C1949 C1944 1.363 . S
C1949 C1948 1.415 . S
H1950 C1947 0.999 . S
H1951 C1932 0.913 . S
H1952 C1970 0.951 . S
H1953 C1972 0.951 . S
H1954 C1974 0.950 1_544 S
H1955 C1975 0.950 . S
H1956 C1977 0.950 . S
H1957 C1980 0.950 . S
H1958 C1981 0.950 . S
H1959 C1983 0.950 1_565 S
H1960 C1984 0.950 1_565 S
H1961 C1985 0.951 . S
H1962 C1987 0.951 . S
H1963 C1989 0.950 . S
H1964 C1990 0.950 . S
H1965 C1992 0.950 . S
H1966 C1995 0.950 . S
H1967 C1996 0.950 . S
H1968 C1998 0.950 . S
H1969 C1999 0.950 . S
C1970 H1952 0.951 . S
C1970 C1971 1.366 . S
C1970 C1972 1.388 . S
C1971 C1970 1.366 . S
C1971 C1975 1.385 . S
C1972 H1953 0.951 . S
C1972 C1970 1.388 . S
C1972 C1973 1.366 . S
C1973 C1972 1.366 . S
C1973 C1974 1.414 . S
C1973 C1976 1.499 1_566 S
C1974 H1954 0.950 1_566 S
C1974 C1973 1.414 . S
C1974 C1975 1.374 . S
C1975 H1955 0.950 . S
C1975 C1971 1.385 . S
C1975 C1974 1.374 . S
C1976 C1973 1.499 1_544 S
C1976 C1977 1.373 . S
C1976 C1978 1.378 1_554 S
C1977 H1956 0.950 . S
C1977 C1976 1.373 . S
C1977 C1993 1.377 . S
C1978 C1976 1.378 1_556 S
C1978 C1979 1.553 . S
C1978 C1992 1.361 1_556 S
C1979 C1978 1.553 . S
C1979 C1980 1.397 . S
C1979 C1984 1.363 . S
C1980 H1957 0.950 . S
C1980 C1979 1.397 . S
C1980 C1981 1.334 . S
C1981 H1958 0.950 . S
C1981 C1980 1.334 . S
C1981 C1982 1.287 . S
C1982 C1981 1.287 . S
C1982 C1983 1.523 . S
C1982 H2001 0.913 . S
C1983 H1959 0.950 1_545 S
C1983 C1982 1.523 . S
C1983 C1984 1.415 . S
C1984 H1960 0.950 1_545 S
C1984 C1979 1.363 . S
C1984 C1983 1.415 . S
C1985 H1961 0.951 . S
C1985 C1986 1.366 . S
C1985 C1987 1.388 . S
C1986 C1985 1.366 . S
C1986 C1990 1.385 . S
C1987 H1962 0.951 . S
C1987 C1985 1.388 . S
C1987 C1988 1.366 . S
C1988 C1987 1.366 . S
C1988 C1989 1.414 . S
C1988 C1991 1.499 . S
C1989 H1963 0.950 . S
C1989 C1988 1.414 . S
C1989 C1990 1.374 . S
C1990 H1964 0.950 . S
C1990 C1986 1.385 . S
C1990 C1989 1.374 . S
C1991 C1988 1.499 . S
C1991 C1992 1.373 . S
C1991 C1993 1.389 . S
C1992 H1965 0.950 . S
C1992 C1978 1.361 1_554 S
C1992 C1991 1.373 . S
C1993 C1977 1.377 . S
C1993 C1991 1.389 . S
C1993 C1994 1.524 . S
C1994 C1993 1.524 . S
C1994 C1995 1.397 . S
C1994 C1999 1.363 . S
C1995 H1966 0.950 . S
C1995 C1994 1.397 . S
C1995 C1996 1.334 . S
C1996 H1967 0.950 . S
C1996 C1995 1.334 . S
C1996 C1997 1.287 . S
C1997 C1996 1.287 . S
C1997 C1998 1.524 . S
C1997 H2000 0.999 . S
C1998 H1968 0.950 . S
C1998 C1997 1.524 . S
C1998 C1999 1.415 . S
C1999 H1969 0.950 . S
C1999 C1994 1.363 . S
C1999 C1998 1.415 . S
H2000 C1997 0.999 . S
H2001 C1982 0.913 . S
H2002 C2020 0.951 . S
H2003 C2022 0.951 . S
H2004 C2024 0.950 . S
H2005 C2025 0.950 . S
H2006 C2027 0.950 . S
H2007 C2030 0.950 . S
H2008 C2031 0.950 . S
H2009 C2033 0.950 . S
H2010 C2034 0.950 . S
H2011 C2035 0.951 . S
H2012 C2037 0.951 . S
H2013 C2039 0.950 . S
H2014 C2040 0.950 . S
H2015 C2042 0.950 . S
H2016 C2045 0.950 . S
H2017 C2046 0.950 . S
H2018 C2048 0.950 . S
H2019 C2049 0.950 . S
C2020 H2002 0.951 . S
C2020 C2021 1.366 . S
C2020 C2022 1.388 . S
C2021 C2020 1.366 . S
C2021 C2025 1.385 . S
C2022 H2003 0.951 . S
C2022 C2020 1.388 . S
C2022 C2023 1.366 . S
C2023 C2022 1.366 . S
C2023 C2024 1.414 . S
C2023 C2026 1.499 . S
C2024 H2004 0.950 . S
C2024 C2023 1.414 . S
C2024 C2025 1.374 . S
C2025 H2005 0.950 . S
C2025 C2021 1.385 . S
C2025 C2024 1.374 . S
C2026 C2023 1.499 . S
C2026 C2027 1.373 1_556 S
C2026 C2028 1.389 . S
C2027 H2006 0.950 . S
C2027 C2026 1.373 1_554 S
C2027 C2043 1.377 . S
C2028 C2026 1.389 . S
C2028 C2029 1.524 . S
C2028 C2042 1.377 . S
C2029 C2028 1.524 . S
C2029 C2030 1.397 . S
C2029 C2034 1.363 . S
C2030 H2007 0.950 . S
C2030 C2029 1.397 . S
C2030 C2031 1.334 . S
C2031 H2008 0.950 . S
C2031 C2030 1.334 . S
C2031 C2032 1.287 . S
C2032 C2031 1.287 . S
C2032 C2033 1.524 . S
C2032 H2051 0.913 . S
C2033 H2009 0.950 . S
C2033 C2032 1.524 . S
C2033 C2034 1.415 . S
C2034 H2010 0.950 . S
C2034 C2029 1.363 . S
C2034 C2033 1.415 . S
C2035 H2011 0.951 . S
C2035 C2036 1.366 . S
C2035 C2037 1.388 . S
C2036 C2035 1.366 . S
C2036 C2040 1.385 1_655 S
C2037 H2012 0.951 . S
C2037 C2035 1.388 . S
C2037 C2038 1.366 1_655 S
C2038 C2037 1.366 1_455 S
C2038 C2039 1.414 . S
C2038 C2041 1.499 . S
C2039 H2013 0.950 . S
C2039 C2038 1.414 . S
C2039 C2040 1.374 . S
C2040 H2014 0.950 . S
C2040 C2036 1.385 1_455 S
C2040 C2039 1.374 . S
C2041 C2038 1.499 . S
C2041 C2042 1.373 1_554 S
C2041 C2043 1.389 . S
C2042 H2015 0.950 . S
C2042 C2028 1.377 . S
C2042 C2041 1.373 1_556 S
C2043 C2027 1.377 . S
C2043 C2041 1.389 . S
C2043 C2044 1.524 . S
C2044 C2043 1.524 . S
C2044 C2045 1.397 . S
C2044 C2049 1.363 . S
C2045 H2016 0.950 . S
C2045 C2044 1.397 . S
C2045 C2046 1.334 . S
C2046 H2017 0.950 . S
C2046 C2045 1.334 . S
C2046 C2047 1.293 . S
C2047 C2046 1.293 . S
C2047 C2048 1.520 1_455 S
C2047 H2050 0.996 1_455 S
C2048 H2018 0.950 . S
C2048 C2047 1.520 1_655 S
C2048 C2049 1.415 1_655 S
C2049 H2019 0.950 . S
C2049 C2044 1.363 . S
C2049 C2048 1.415 1_455 S
H2050 C2047 0.996 1_655 S
H2051 C2032 0.913 . S
C271 C9 1.433 . S
C286 C205 1.432 . S
C321 C174 1.171 . S
C336 C20 1.169 . S
C371 C34 0.982 1_565 S
C386 C191 0.998 . S
C421 C93 1.583 . S
C436 C37 1.586 . S
C471 C107 1.501 . S
C486 C6 1.493 1_655 S
C521 C121 1.412 . S
C536 C23 1.408 . S
C571 C48 1.382 1_655 S
C586 C163 1.400 . S
C621 C135 1.528 . S
C636 C65 1.527 . S
C671 C146 1.051 . S
C686 C76 1.058 . S
C721 C79 1.459 . S
C736 C216 1.433 . S
C771 C51 1.162 . S
C786 C233 1.165 . S
C821 C244 0.911 . S
C836 C62 0.902 . S
C871 C177 1.095 . S
C886 C118 1.080 . S
C921 C90 1.045 . S
C936 C188 1.045 . S
C971 C202 0.594 . S
C986 C104 0.582 . S
C1021 C247 1.091 . S
C1036 C132 1.083 . S
C1071 C149 1.232 . S
C1086 C219 1.236 . S
C1121 C230 0.839 . S
C1136 C160 0.842 . S
C1171 C217 1.761 . S
C1186 C8 1.541 . S
C1221 C21 1.631 . S
C1236 C232 1.466 . S
C1271 C35 1.454 . S
C1286 C245 1.461 . S
C1321 C36 1.528 . S
C1336 C162 1.524 . S
C1371 C134 1.541 . S
C1386 C7 1.739 . S
C1421 C22 1.510 . S
C1436 C147 1.701 . S
C1471 C92 1.488 . S
C1486 C49 1.686 . S
C1521 C106 1.622 . S
C1536 C64 1.606 . S
C1571 C77 1.717 . S
C1586 C120 1.529 . S
C1621 C78 1.638 . S
C1636 C204 1.652 . S
C1671 C50 1.425 . S
C1686 C175 1.587 . S
C1721 C63 1.861 . S
C1736 C190 1.691 . S
C1771 C119 1.635 . S
C1786 C246 1.478 . S
C1821 C91 1.704 . S
C1836 C218 1.509 . S
C1871 C231 1.620 . S
C1886 C105 1.624 . S
C1921 C176 1.531 . S
C1936 C133 1.685 . S
C1971 C189 1.723 . S
C1986 C148 1.539 . S
C2021 C203 1.639 . S
C2036 C161 1.639 . S
