# Generated by pormake.
# Topology upb, (4)-cn, num edge types: 1
# Building blocks:
#     Node 0, Type 0, BuildingBlock: AZAVOO_clean_sbu_0, # of connection points: 4
#     Node 1, Type 0, BuildingBlock: AZAVOO_clean_sbu_0, # of connection points: 4
#     Node 2, Type 0, BuildingBlock: AZAVOO_clean_sbu_0, # of connection points: 4
#     Node 3, Type 0, BuildingBlock: AZAVOO_clean_sbu_0, # of connection points: 4
#     Node 4, Type 0, BuildingBlock: AZAVOO_clean_sbu_0, # of connection points: 4
#     Node 5, Type 0, BuildingBlock: AZAVOO_clean_sbu_0, # of connection points: 4
#     Node 6, Type 0, BuildingBlock: AZAVOO_clean_sbu_0, # of connection points: 4
#     Node 7, Type 0, BuildingBlock: AZAVOO_clean_sbu_0, # of connection points: 4
#     Node 8, Type 0, BuildingBlock: AZAVOO_clean_sbu_0, # of connection points: 4
#     Node 9, Type 0, BuildingBlock: AZAVOO_clean_sbu_0, # of connection points: 4
#     Node 10, Type 0, BuildingBlock: AZAVOO_clean_sbu_0, # of connection points: 4
#     Node 11, Type 0, BuildingBlock: AZAVOO_clean_sbu_0, # of connection points: 4
#     Node 12, Type 0, BuildingBlock: AZAVOO_clean_sbu_0, # of connection points: 4
#     Node 13, Type 0, BuildingBlock: AZAVOO_clean_sbu_0, # of connection points: 4
#     Node 14, Type 0, BuildingBlock: AZAVOO_clean_sbu_0, # of connection points: 4
#     Node 15, Type 0, BuildingBlock: AZAVOO_clean_sbu_0, # of connection points: 4
#     Edge 16, Type (0, 0), BuildingBlock: OJICUG_clean_linker_0, # of connection points: 2
#     Edge 17, Type (0, 0), BuildingBlock: OJICUG_clean_linker_0, # of connection points: 2
#     Edge 18, Type (0, 0), BuildingBlock: OJICUG_clean_linker_0, # of connection points: 2
#     Edge 19, Type (0, 0), BuildingBlock: OJICUG_clean_linker_0, # of connection points: 2
#     Edge 20, Type (0, 0), BuildingBlock: OJICUG_clean_linker_0, # of connection points: 2
#     Edge 21, Type (0, 0), BuildingBlock: OJICUG_clean_linker_0, # of connection points: 2
#     Edge 22, Type (0, 0), BuildingBlock: OJICUG_clean_linker_0, # of connection points: 2
#     Edge 23, Type (0, 0), BuildingBlock: OJICUG_clean_linker_0, # of connection points: 2
#     Edge 24, Type (0, 0), BuildingBlock: OJICUG_clean_linker_0, # of connection points: 2
#     Edge 25, Type (0, 0), BuildingBlock: OJICUG_clean_linker_0, # of connection points: 2
#     Edge 26, Type (0, 0), BuildingBlock: OJICUG_clean_linker_0, # of connection points: 2
#     Edge 27, Type (0, 0), BuildingBlock: OJICUG_clean_linker_0, # of connection points: 2
#     Edge 28, Type (0, 0), BuildingBlock: OJICUG_clean_linker_0, # of connection points: 2
#     Edge 29, Type (0, 0), BuildingBlock: OJICUG_clean_linker_0, # of connection points: 2
#     Edge 30, Type (0, 0), BuildingBlock: OJICUG_clean_linker_0, # of connection points: 2
#     Edge 31, Type (0, 0), BuildingBlock: OJICUG_clean_linker_0, # of connection points: 2
#     Edge 32, Type (0, 0), BuildingBlock: OJICUG_clean_linker_0, # of connection points: 2
#     Edge 33, Type (0, 0), BuildingBlock: OJICUG_clean_linker_0, # of connection points: 2
#     Edge 34, Type (0, 0), BuildingBlock: OJICUG_clean_linker_0, # of connection points: 2
#     Edge 35, Type (0, 0), BuildingBlock: OJICUG_clean_linker_0, # of connection points: 2
#     Edge 36, Type (0, 0), BuildingBlock: OJICUG_clean_linker_0, # of connection points: 2
#     Edge 37, Type (0, 0), BuildingBlock: OJICUG_clean_linker_0, # of connection points: 2
#     Edge 38, Type (0, 0), BuildingBlock: OJICUG_clean_linker_0, # of connection points: 2
#     Edge 39, Type (0, 0), BuildingBlock: OJICUG_clean_linker_0, # of connection points: 2
#     Edge 40, Type (0, 0), BuildingBlock: OJICUG_clean_linker_0, # of connection points: 2
#     Edge 41, Type (0, 0), BuildingBlock: OJICUG_clean_linker_0, # of connection points: 2
#     Edge 42, Type (0, 0), BuildingBlock: OJICUG_clean_linker_0, # of connection points: 2
#     Edge 43, Type (0, 0), BuildingBlock: OJICUG_clean_linker_0, # of connection points: 2
#     Edge 44, Type (0, 0), BuildingBlock: OJICUG_clean_linker_0, # of connection points: 2
#     Edge 45, Type (0, 0), BuildingBlock: OJICUG_clean_linker_0, # of connection points: 2
#     Edge 46, Type (0, 0), BuildingBlock: OJICUG_clean_linker_0, # of connection points: 2
#     Edge 47, Type (0, 0), BuildingBlock: OJICUG_clean_linker_0, # of connection points: 2
# Relax obj value: 0.288
# Max RMSD: 0.142
# Mean RMSD: 0.142
data_MOF--net-upb--node1-AZAVOO_clean_sbu_0--edge1-OJICUG_clean_linker_0
_symmetry_space_group_name_H-M    P1
_symmetry_Int_Tables_number       1
_symmetry_cell_setting            triclinic
loop_
_symmetry_equiv_pos_as_xyz
'x, y, z'
_cell_length_a     25.099129
_cell_length_b     25.067958
_cell_length_c     38.681249
_cell_angle_alpha  90.001799
_cell_angle_beta   90.076363
_cell_angle_gamma 89.999311
loop_
_atom_site_label
_atom_site_type_symbol
_atom_site_fract_x
_atom_site_fract_y
_atom_site_fract_z
_atom_type_partial_charge
Mg0 Mg 0.08644 0.31417 0.36788 0.0
O1 O 0.00977 0.26366 0.36231 0.0
O2 O 0.01534 0.22093 0.31169 0.0
Mg3 Mg 0.0937 0.24124 0.28596 0.0
C4 C 0.99055 0.23208 0.33951 0.0
C5 C 0.00444 0.37744 0.41595 0.0
O6 O 0.9722 0.37475 0.38922 0.0
O7 O 0.05546 0.37503 0.3285 0.0
O8 O 0.06477 0.32738 0.28009 0.0
O9 O 0.12788 0.24592 0.39323 0.0
O10 O 0.12788 0.26 0.3369 0.0
C11 C 0.05167 0.37033 0.29571 0.0
C12 C 0.14115 0.23007 0.3626 0.0
O13 O 0.05124 0.35862 0.4135 0.0
Mg14 Mg 0.70161 0.07572 0.36361 0.0
O15 O 0.75019 0.99731 0.35976 0.0
O16 O 0.79342 0.00094 0.30927 0.0
Mg17 Mg 0.77659 0.07953 0.28259 0.0
C18 C 0.78133 0.97684 0.33721 0.0
C19 C 0.63337 0.99761 0.41192 0.0
O20 O 0.63698 0.96327 0.38636 0.0
O21 O 0.6413 0.04536 0.32376 0.0
O22 O 0.68984 0.05308 0.27567 0.0
O23 O 0.76976 0.11642 0.38961 0.0
O24 O 0.75781 0.11503 0.33309 0.0
C25 C 0.64637 0.0412 0.29102 0.0
C26 C 0.78694 0.12865 0.35911 0.0
O27 O 0.65397 0.04359 0.40872 0.0
Mg28 Mg 0.94039 0.6893 0.36059 0.0
O29 O 0.01561 0.74135 0.35634 0.0
O30 O 0.01074 0.78692 0.30679 0.0
Mg31 Mg 0.93249 0.7665 0.2805 0.0
C32 C 0.03498 0.77442 0.33461 0.0
C33 C 0.94993 0.62343 0.42753 0.0
O34 O 0.89792 0.62645 0.42407 0.0
O35 O 0.97241 0.63144 0.31995 0.0
O36 O 0.96254 0.68105 0.27243 0.0
O37 O 0.89759 0.75566 0.38737 0.0
O38 O 0.89768 0.7441 0.33079 0.0
C39 C 0.97615 0.63757 0.28728 0.0
C40 C 0.88384 0.77258 0.35703 0.0
O41 O 0.97932 0.64322 0.40412 0.0
Mg42 Mg 0.32284 0.92815 0.36845 0.0
O43 O 0.27366 0.00566 0.36344 0.0
O44 O 0.23304 0.00306 0.31197 0.0
Mg45 Mg 0.25348 0.92551 0.28512 0.0
C46 C 0.24334 0.02638 0.3405 0.0
C47 C 0.38147 0.92813 0.43775 0.0
O48 O 0.37805 0.87697 0.43065 0.0
O49 O 0.38564 0.96018 0.331 0.0
O50 O 0.34012 0.95348 0.28155 0.0
O51 O 0.25325 0.8866 0.39179 0.0
O52 O 0.2694 0.88868 0.33571 0.0
C53 C 0.38246 0.96541 0.29823 0.0
C54 C 0.23834 0.87488 0.36068 0.0
O55 O 0.36544 0.96156 0.41531 0.0
Mg56 Mg 0.0556 0.68841 0.62794 0.0
O57 O 0.98141 0.74188 0.63235 0.0
O58 O 0.98752 0.78763 0.68177 0.0
Mg59 Mg 0.06536 0.76561 0.70798 0.0
C60 C 0.96287 0.77549 0.65403 0.0
C61 C 0.04463 0.62293 0.56101 0.0
O62 O 0.09668 0.62516 0.56444 0.0
O63 O 0.02279 0.63111 0.66868 0.0
O64 O 0.03373 0.6808 0.71607 0.0
O65 O 0.09945 0.7541 0.60112 0.0
O66 O 0.09948 0.74234 0.65768 0.0
C67 C 0.01928 0.63749 0.70135 0.0
C68 C 0.11363 0.77069 0.63146 0.0
O69 O 0.01559 0.6431 0.58447 0.0
Mg70 Mg 0.29554 0.07406 0.62607 0.0
O71 O 0.24734 0.99544 0.6295 0.0
O72 O 0.20391 0.99836 0.67994 0.0
Mg73 Mg 0.2199 0.07691 0.7069 0.0
C74 C 0.21627 0.97459 0.65194 0.0
C75 C 0.36395 0.99637 0.5776 0.0
O76 O 0.36029 0.96195 0.6031 0.0
O77 O 0.35574 0.04378 0.66606 0.0
O78 O 0.30679 0.05122 0.71399 0.0
O79 O 0.22737 0.1147 0.60006 0.0
O80 O 0.23897 0.11292 0.6566 0.0
C81 C 0.35046 0.03964 0.69879 0.0
C82 C 0.20999 0.12668 0.63056 0.0
O83 O 0.34345 0.04238 0.5809 0.0
Mg84 Mg 0.91418 0.31715 0.62076 0.0
O85 O 0.98954 0.26506 0.62707 0.0
O86 O 0.98201 0.22167 0.67732 0.0
Mg87 Mg 0.90343 0.2436 0.70227 0.0
C88 C 0.0076 0.2327 0.64979 0.0
C89 C 0.92198 0.3803 0.55307 0.0
O90 O 0.87023 0.3783 0.55802 0.0
O91 O 0.94506 0.37713 0.66072 0.0
O92 O 0.93363 0.32913 0.70879 0.0
O93 O 0.87207 0.24961 0.59482 0.0
O94 O 0.87071 0.26384 0.65113 0.0
C95 C 0.94783 0.37203 0.69353 0.0
C96 C 0.85759 0.23413 0.62531 0.0
O97 O 0.95265 0.36113 0.57612 0.0
Mg98 Mg 0.67603 0.9316 0.62071 0.0
O99 O 0.72464 0.00961 0.6249 0.0
O100 O 0.76542 0.00803 0.67633 0.0
Mg101 Mg 0.74643 0.93049 0.70366 0.0
C102 C 0.75479 0.0309 0.64771 0.0
C103 C 0.61639 0.93019 0.55181 0.0
O104 O 0.62041 0.87915 0.55911 0.0
O105 O 0.61348 0.96342 0.6584 0.0
O106 O 0.65946 0.95716 0.7077 0.0
O107 O 0.74557 0.89018 0.59719 0.0
O108 O 0.73014 0.89296 0.65333 0.0
C109 C 0.61683 0.96858 0.69118 0.0
C110 C 0.76089 0.87887 0.62828 0.0
O111 O 0.63241 0.96402 0.57399 0.0
Mg112 Mg 0.55883 0.81873 0.86046 0.0
O113 O 0.48389 0.76647 0.85564 0.0
O114 O 0.48917 0.72095 0.80608 0.0
Mg115 Mg 0.56733 0.74215 0.78013 0.0
C116 C 0.46476 0.73334 0.83383 0.0
C117 C 0.5485 0.88307 0.92799 0.0
O118 O 0.60054 0.87959 0.92504 0.0
O119 O 0.52663 0.87676 0.81996 0.0
O120 O 0.53649 0.8274 0.77235 0.0
O121 O 0.60156 0.7523 0.8872 0.0
O122 O 0.60185 0.7642 0.83064 0.0
C123 C 0.52265 0.87071 0.78729 0.0
C124 C 0.61544 0.73551 0.85687 0.0
O125 O 0.51942 0.86419 0.90404 0.0
Mg126 Mg 0.17645 0.58083 0.86754 0.0
O127 O 0.22537 0.50302 0.86298 0.0
O128 O 0.26537 0.50485 0.81136 0.0
Mg129 Mg 0.24519 0.5821 0.78407 0.0
C130 C 0.25532 0.4819 0.84003 0.0
C131 C 0.11797 0.50188 0.92001 0.0
O132 O 0.12155 0.46681 0.89487 0.0
O133 O 0.11324 0.54853 0.83036 0.0
O134 O 0.15833 0.55459 0.78079 0.0
O135 O 0.24619 0.62231 0.89063 0.0
O136 O 0.23002 0.61945 0.83454 0.0
C137 C 0.11608 0.54301 0.79759 0.0
C138 C 0.26118 0.63343 0.85948 0.0
O139 O 0.13401 0.54927 0.91497 0.0
Mg140 Mg 0.41224 0.19411 0.86793 0.0
O141 O 0.48936 0.24412 0.86287 0.0
O142 O 0.48434 0.2868 0.8122 0.0
Mg143 Mg 0.40588 0.26741 0.78614 0.0
C144 C 0.50893 0.2755 0.84011 0.0
C145 C 0.49328 0.12954 0.91611 0.0
O146 O 0.52568 0.13186 0.8895 0.0
O147 O 0.44287 0.13321 0.8285 0.0
O148 O 0.43383 0.18099 0.78011 0.0
O149 O 0.37097 0.2625 0.89325 0.0
O150 O 0.37131 0.24863 0.83691 0.0
C151 C 0.44656 0.13789 0.7957 0.0
C152 C 0.35789 0.27847 0.86259 0.0
O153 O 0.44678 0.14908 0.91355 0.0
Mg154 Mg 0.7976 0.43262 0.86411 0.0
O155 O 0.74852 0.51061 0.85991 0.0
O156 O 0.70465 0.50629 0.8096 0.0
Mg157 Mg 0.72185 0.42746 0.7833 0.0
C158 C 0.71697 0.5307 0.8374 0.0
C159 C 0.86749 0.43302 0.92886 0.0
O160 O 0.86511 0.38202 0.92115 0.0
O161 O 0.8573 0.46295 0.82398 0.0
O162 O 0.80829 0.45455 0.77606 0.0
O163 O 0.7298 0.39169 0.8904 0.0
O164 O 0.74153 0.39248 0.83388 0.0
C165 C 0.85183 0.46686 0.79125 0.0
C166 C 0.71261 0.37895 0.85995 0.0
O167 O 0.84549 0.46643 0.90865 0.0
Mg168 Mg 0.58167 0.19098 0.1208 0.0
O169 O 0.50599 0.24278 0.12662 0.0
O170 O 0.5131 0.28626 0.17687 0.0
Mg171 Mg 0.59181 0.26512 0.20212 0.0
C172 C 0.48766 0.27506 0.14927 0.0
C173 C 0.57444 0.12657 0.05356 0.0
O174 O 0.62614 0.12831 0.05884 0.0
O175 O 0.55105 0.13113 0.1609 0.0
O176 O 0.56237 0.17939 0.20889 0.0
O177 O 0.62374 0.25851 0.09481 0.0
O178 O 0.62481 0.2446 0.15115 0.0
C179 C 0.54843 0.13632 0.19371 0.0
C180 C 0.6381 0.27414 0.12532 0.0
O181 O 0.54362 0.14639 0.07623 0.0
Mg182 Mg 0.81923 0.57724 0.12147 0.0
O183 O 0.77107 0.49883 0.12522 0.0
O184 O 0.73102 0.49956 0.17683 0.0
Mg185 Mg 0.7496 0.57683 0.20459 0.0
C186 C 0.74139 0.47707 0.14806 0.0
C187 C 0.8799 0.49984 0.0691 0.0
O188 O 0.87693 0.46457 0.09415 0.0
O189 O 0.88233 0.5453 0.15884 0.0
O190 O 0.83687 0.55082 0.2083 0.0
O191 O 0.74941 0.61845 0.09825 0.0
O192 O 0.76497 0.61492 0.15439 0.0
C193 C 0.8794 0.53985 0.19161 0.0
C194 C 0.73405 0.62913 0.12939 0.0
O195 O 0.86269 0.5468 0.07416 0.0
Mg196 Mg 0.43986 0.81963 0.12829 0.0
O197 O 0.51369 0.76582 0.1332 0.0
O198 O 0.50719 0.72007 0.18259 0.0
Mg199 Mg 0.42949 0.74294 0.20852 0.0
C200 C 0.53198 0.73209 0.15493 0.0
C201 C 0.45164 0.8836 0.06082 0.0
O202 O 0.39955 0.88092 0.06372 0.0
O203 O 0.47298 0.87697 0.16893 0.0
O204 O 0.46201 0.82749 0.21638 0.0
O205 O 0.39598 0.75397 0.10148 0.0
O206 O 0.39564 0.76598 0.15802 0.0
C207 C 0.47672 0.87063 0.20159 0.0
C208 C 0.38169 0.73749 0.13179 0.0
O209 O 0.48038 0.86431 0.08479 0.0
Mg210 Mg 0.19991 0.43431 0.12548 0.0
O211 O 0.24852 0.51257 0.12936 0.0
O212 O 0.29245 0.50897 0.17967 0.0
Mg213 Mg 0.27608 0.43015 0.2062 0.0
C214 C 0.27991 0.53307 0.15179 0.0
C215 C 0.13118 0.43403 0.06018 0.0
O216 O 0.13477 0.38298 0.06756 0.0
O217 O 0.14016 0.46447 0.16568 0.0
O218 O 0.18945 0.45639 0.2135 0.0
O219 O 0.26785 0.39353 0.09926 0.0
O220 O 0.25632 0.39467 0.15579 0.0
C221 C 0.14574 0.46836 0.19841 0.0
C222 C 0.28519 0.38105 0.12972 0.0
O223 O 0.15187 0.46765 0.08082 0.0
C224 C 0.17786 0.15952 0.32364 0.0
C225 C 0.16828 0.17835 0.35723 0.0
H226 H 0.20874 0.09683 0.29212 0.0
C227 C 0.18528 0.14748 0.38556 0.0
H228 H 0.16634 0.18255 0.30123 0.0
C229 C 0.21081 0.09849 0.38031 0.0
C230 C 0.219 0.07918 0.34665 0.0
H231 H 0.17886 0.16111 0.4118 0.0
H232 H 0.2231 0.07529 0.40255 0.0
C233 C 0.20243 0.11033 0.31842 0.0
C234 C 0.90887 0.18794 0.31646 0.0
C235 C 0.93782 0.20721 0.34497 0.0
H236 H 0.83852 0.14927 0.29844 0.0
C237 C 0.91642 0.20119 0.37828 0.0
H238 H 0.92399 0.19246 0.2904 0.0
C239 C 0.86753 0.17524 0.38295 0.0
C240 C 0.83882 0.15566 0.35435 0.0
H241 H 0.93785 0.2156 0.40073 0.0
H242 H 0.8522 0.17069 0.40894 0.0
C243 C 0.85979 0.16294 0.32107 0.0
C244 C 0.82067 0.89276 0.31442 0.0
C245 C 0.8047 0.92344 0.34298 0.0
H246 H 0.85659 0.82102 0.29641 0.0
C247 C 0.81324 0.90337 0.37644 0.0
H248 H 0.814 0.9068 0.28828 0.0
C249 C 0.839 0.85426 0.38114 0.0
C250 C 0.85581 0.82409 0.35245 0.0
H251 H 0.80133 0.92619 0.39892 0.0
H252 H 0.84596 0.84011 0.40721 0.0
C253 C 0.8454 0.84353 0.31909 0.0
C254 C 0.10698 0.80377 0.37542 0.0
C255 C 0.08733 0.79915 0.34153 0.0
H256 H 0.16983 0.83219 0.40809 0.0
C257 C 0.11795 0.81904 0.31403 0.0
H258 H 0.0842 0.78888 0.39713 0.0
C259 C 0.16719 0.84302 0.32021 0.0
C260 C 0.18647 0.84875 0.3541 0.0
H261 H 0.10412 0.81557 0.28758 0.0
H262 H 0.18988 0.8571 0.29833 0.0
C263 C 0.1559 0.82876 0.38167 0.0
C264 C 0.15356 0.84056 0.66954 0.0
C265 C 0.14213 0.8219 0.63613 0.0
H266 H 0.18567 0.90323 0.70056 0.0
C267 C 0.15813 0.85269 0.60753 0.0
H268 H 0.14312 0.8175 0.69215 0.0
C269 C 0.18391 0.90175 0.61239 0.0
C270 C 0.19328 0.92112 0.64593 0.0
H271 H 0.15038 0.83914 0.58141 0.0
H272 H 0.19508 0.92514 0.58999 0.0
C273 C 0.17829 0.88974 0.67438 0.0
C274 C 0.13012 0.17432 0.60666 0.0
C275 C 0.1582 0.15389 0.63526 0.0
H276 H 0.06069 0.21602 0.58879 0.0
C277 C 0.13682 0.16075 0.66847 0.0
H278 H 0.14575 0.17006 0.58072 0.0
C279 C 0.08803 0.18639 0.673 0.0
C280 C 0.05984 0.20673 0.64449 0.0
H281 H 0.15758 0.14633 0.69111 0.0
H282 H 0.0726 0.19067 0.69901 0.0
C283 C 0.08157 0.20089 0.61125 0.0
C284 C 0.81436 0.15097 0.60227 0.0
C285 C 0.82969 0.18279 0.63057 0.0
H286 H 0.77781 0.07798 0.58542 0.0
C287 C 0.81795 0.16514 0.66414 0.0
H288 H 0.82242 0.16369 0.57604 0.0
C289 C 0.79326 0.11607 0.66946 0.0
C290 C 0.77863 0.08384 0.64131 0.0
H291 H 0.82796 0.18899 0.6865 0.0
H292 H 0.78543 0.10343 0.69576 0.0
C293 C 0.78863 0.10206 0.60759 0.0
C294 C 0.83234 0.84717 0.66855 0.0
C295 C 0.81263 0.85244 0.63474 0.0
H296 H 0.89533 0.81924 0.70107 0.0
C297 C 0.84246 0.83138 0.60717 0.0
H298 H 0.81022 0.86213 0.69044 0.0
C299 C 0.891 0.80563 0.61335 0.0
C300 C 0.91101 0.80129 0.64717 0.0
H301 H 0.82818 0.83445 0.58081 0.0
H302 H 0.91318 0.78983 0.59164 0.0
C303 C 0.8812 0.8224 0.67466 0.0
C304 C 0.65974 0.6536 0.88107 0.0
C305 C 0.64313 0.68383 0.85233 0.0
H306 H 0.69698 0.58152 0.89898 0.0
C307 C 0.65334 0.66421 0.819 0.0
H308 H 0.6529 0.66786 0.90712 0.0
C309 C 0.67773 0.61478 0.81442 0.0
C310 C 0.6936 0.58412 0.84303 0.0
H311 H 0.64226 0.68673 0.79628 0.0
H312 H 0.68431 0.60061 0.78831 0.0
C313 C 0.68518 0.60433 0.87645 0.0
C314 C 0.39236 0.7047 0.87435 0.0
C315 C 0.41246 0.70846 0.84057 0.0
H316 H 0.32907 0.67722 0.90684 0.0
C317 C 0.38227 0.68777 0.81306 0.0
H318 H 0.41479 0.7202 0.89607 0.0
C319 C 0.33295 0.66391 0.81913 0.0
C320 C 0.31318 0.6592 0.85292 0.0
H321 H 0.39649 0.69053 0.78667 0.0
H322 H 0.31057 0.64916 0.79725 0.0
C323 C 0.34337 0.67989 0.88049 0.0
C324 C 0.29651 0.398 0.81819 0.0
C325 C 0.27962 0.4291 0.84634 0.0
H326 H 0.33302 0.32597 0.80116 0.0
C327 C 0.28757 0.40979 0.88005 0.0
H328 H 0.29038 0.41146 0.79186 0.0
C329 C 0.31326 0.36089 0.88541 0.0
C330 C 0.33065 0.33012 0.85716 0.0
H331 H 0.27497 0.43292 0.90223 0.0
H332 H 0.31949 0.34724 0.91167 0.0
C333 C 0.32124 0.34893 0.82353 0.0
C334 C 0.63168 0.33295 0.88383 0.0
C335 C 0.66082 0.35164 0.85521 0.0
H336 H 0.56094 0.29335 0.90157 0.0
C337 C 0.64035 0.34327 0.82187 0.0
H338 H 0.64664 0.33833 0.90987 0.0
C339 C 0.59128 0.31827 0.8172 0.0
C340 C 0.56181 0.30004 0.84572 0.0
H341 H 0.66199 0.35612 0.79922 0.0
H342 H 0.57652 0.31298 0.79109 0.0
C343 C 0.58278 0.30697 0.87911 0.0
C344 C 0.70296 0.39185 0.1696 0.0
C345 C 0.71766 0.42411 0.14151 0.0
H346 H 0.66798 0.31905 0.18653 0.0
C347 C 0.70764 0.40597 0.10776 0.0
H348 H 0.71081 0.40438 0.19593 0.0
C349 C 0.68172 0.35715 0.10235 0.0
C350 C 0.66622 0.32538 0.1306 0.0
H351 H 0.71857 0.43005 0.08562 0.0
H352 H 0.67363 0.34449 0.0761 0.0
C353 C 0.67807 0.3429 0.16421 0.0
C354 C 0.60414 0.70261 0.11447 0.0
C355 C 0.58373 0.70608 0.14818 0.0
H356 H 0.66734 0.67471 0.08205 0.0
C357 C 0.61311 0.68409 0.17564 0.0
H358 H 0.58231 0.71906 0.09278 0.0
C359 C 0.66203 0.65941 0.16959 0.0
C360 C 0.68219 0.65519 0.13587 0.0
H361 H 0.59863 0.68653 0.20198 0.0
H362 H 0.68384 0.64372 0.19144 0.0
C363 C 0.65271 0.677 0.10834 0.0
C364 C 0.33768 0.65531 0.10773 0.0
C365 C 0.35347 0.68612 0.1364 0.0
H366 H 0.30113 0.58274 0.09002 0.0
C367 C 0.34221 0.66725 0.16977 0.0
H368 H 0.34533 0.669 0.08165 0.0
C369 C 0.31779 0.61788 0.17449 0.0
C370 C 0.30291 0.58656 0.14596 0.0
H371 H 0.35254 0.69029 0.19242 0.0
H372 H 0.31048 0.60423 0.20064 0.0
C373 C 0.31218 0.6061 0.11247 0.0
C374 C 0.35787 0.34591 0.16772 0.0
C375 C 0.33691 0.3536 0.13443 0.0
H376 H 0.42179 0.31543 0.19839 0.0
C377 C 0.36535 0.33387 0.10583 0.0
H378 H 0.3368 0.35967 0.19037 0.0
C379 C 0.41392 0.30729 0.1105 0.0
C380 C 0.43529 0.30076 0.14382 0.0
H381 H 0.35003 0.33875 0.07983 0.0
H382 H 0.43515 0.29275 0.08803 0.0
C383 C 0.40667 0.32029 0.17233 0.0
C384 C 0.07901 0.46221 0.28184 0.0
C385 C 0.0465 0.41833 0.27389 0.0
H386 H 0.13757 0.51583 0.26181 0.0
C387 C 0.02899 0.41186 0.23958 0.0
H388 H 0.092 0.46923 0.30818 0.0
C389 C 0.0547 0.43922 0.2129 0.0
C390 C 0.09828 0.47218 0.22076 0.0
H391 H 0.00249 0.37932 0.2329 0.0
H392 H 0.04719 0.42674 0.18652 0.0
C393 C 0.1053 0.489 0.25516 0.0
C394 C 0.60495 0.01951 0.23463 0.0
C395 C 0.59855 0.03687 0.26895 0.0
H396 H 0.58969 0.03773 0.1816 0.0
C397 C 0.5547 0.06933 0.27695 0.0
H398 H 0.63747 0.99306 0.2279 0.0
C399 C 0.52769 0.09559 0.2503 0.0
C400 C 0.54426 0.08863 0.21588 0.0
H401 H 0.54772 0.08222 0.3033 0.0
H402 H 0.50087 0.12785 0.25698 0.0
C403 C 0.57731 0.04513 0.20799 0.0
C404 C 0.97057 0.57062 0.2038 0.0
C405 C 0.92864 0.536 0.21233 0.0
H406 H 0.0217 0.63196 0.22317 0.0
C407 C 0.92456 0.51787 0.24663 0.0
H408 H 0.97592 0.58407 0.17741 0.0
C409 C 0.95148 0.54496 0.27297 0.0
C410 C 0.98165 0.59038 0.26474 0.0
H411 H 0.89372 0.48969 0.25373 0.0
H412 H 0.94046 0.53665 0.2995 0.0
C413 C 0.99687 0.59829 0.23014 0.0
C414 C 0.47371 0.9359 0.28541 0.0
C415 C 0.43144 0.97048 0.27747 0.0
H416 H 0.52455 0.87511 0.26511 0.0
C417 C 0.42671 0.98948 0.2434 0.0
H418 H 0.47954 0.9218 0.31163 0.0
C419 C 0.45319 0.9631 0.21663 0.0
C420 C 0.48353 0.91751 0.22423 0.0
H421 H 0.3956 0.01767 0.23678 0.0
H422 H 0.44156 0.97192 0.19026 0.0
C423 C 0.49958 0.90894 0.25863 0.0
C424 C 0.07115 0.51909 0.74287 0.0
C425 C 0.06685 0.53801 0.77698 0.0
H426 H 0.05513 0.53646 0.68983 0.0
C427 C 0.02448 0.5723 0.78516 0.0
H428 H 0.10233 0.49112 0.73606 0.0
C429 C 0.99788 0.59902 0.75854 0.0
C430 C 0.01333 0.59054 0.72404 0.0
H431 H 0.01899 0.58634 0.81141 0.0
H432 H 0.97272 0.63262 0.76516 0.0
C433 C 0.04392 0.54522 0.71626 0.0
C434 C 0.46798 0.09612 0.73948 0.0
C435 C 0.45099 0.08982 0.77387 0.0
H436 H 0.44897 0.08114 0.68652 0.0
C437 C 0.41837 0.04613 0.78202 0.0
H438 H 0.49456 0.12849 0.73264 0.0
C439 C 0.39154 0.01939 0.75549 0.0
C440 C 0.39816 0.03603 0.72104 0.0
H441 H 0.40574 0.03922 0.80843 0.0
H442 H 0.35928 0.99269 0.76232 0.0
C443 C 0.44175 0.06879 0.71295 0.0
C444 C 0.91956 0.46327 0.70796 0.0
C445 C 0.95265 0.41972 0.71565 0.0
H446 H 0.8598 0.51538 0.72819 0.0
C447 C 0.96982 0.4127 0.74997 0.0
H448 H 0.90677 0.47069 0.68163 0.0
C449 C 0.9433 0.43897 0.77678 0.0
C450 C 0.89934 0.47146 0.76902 0.0
H451 H 0.99669 0.38038 0.75647 0.0
H452 H 0.95068 0.42599 0.80308 0.0
C453 C 0.89242 0.48892 0.73475 0.0
C454 C 0.52595 0.93777 0.70383 0.0
C455 C 0.56788 0.97259 0.71207 0.0
H456 H 0.47566 0.87606 0.72354 0.0
C457 C 0.57253 0.99078 0.74634 0.0
H458 H 0.52015 0.92428 0.67748 0.0
C459 C 0.54637 0.9635 0.77286 0.0
C460 C 0.51634 0.91788 0.76482 0.0
H461 H 0.60337 0.01912 0.75323 0.0
H462 H 0.55792 0.97184 0.79931 0.0
C463 C 0.50041 0.90991 0.73034 0.0
C464 C 0.01878 0.39167 0.47917 0.0
C465 C 0.98404 0.39165 0.45061 0.0
H466 H 0.02637 0.38883 0.53418 0.0
C467 C 0.92916 0.39809 0.45632 0.0
H468 H 0.06142 0.38779 0.47567 0.0
C469 C 0.90904 0.39891 0.49002 0.0
C470 C 0.94349 0.39315 0.51849 0.0
H471 H 0.9014 0.39887 0.43486 0.0
H472 H 0.86627 0.40033 0.49358 0.0
C473 C -0.00129 0.39232 0.51278 0.0
C474 C 0.60663 0.00201 0.50758 0.0
C475 C 0.60633 0.94749 0.51585 0.0
H476 H 0.61448 0.06068 0.46793 0.0
C477 C 0.60457 0.90984 0.48889 0.0
H478 H 0.60706 0.03205 0.52772 0.0
C479 C 0.60901 0.92629 0.45446 0.0
C480 C 0.61519 0.9806 0.44654 0.0
H481 H 0.60366 0.86749 0.49441 0.0
H482 H 0.61142 0.89624 0.4344 0.0
C483 C 0.61099 0.0184 0.47326 0.0
C484 C 0.05259 0.60549 0.49766 0.0
C485 C 0.02059 0.60884 0.52735 0.0
H486 H 0.05508 0.60708 0.4424 0.0
C487 C 0.96492 0.60639 0.52372 0.0
H488 H 0.09563 0.60663 0.4996 0.0
C489 C 0.94167 0.6062 0.4909 0.0
C490 C 0.97372 0.60903 0.46121 0.0
H491 H 0.93921 0.60803 0.54617 0.0
H492 H 0.89865 0.6079 0.48896 0.0
C493 C 0.02935 0.60586 0.46485 0.0
C494 C 0.38892 0.92511 0.53513 0.0
C495 C 0.38199 0.97939 0.54292 0.0
H496 H 0.39507 0.86611 0.49537 0.0
C497 C 0.38542 0.01704 0.51606 0.0
H498 H 0.38712 0.89518 0.55529 0.0
C499 C 0.38988 0.00046 0.48178 0.0
C500 C 0.39107 0.94589 0.47367 0.0
H501 H 0.3813 0.0593 0.52127 0.0
H502 H 0.38891 0.03034 0.46155 0.0
C503 C 0.39348 0.90848 0.50075 0.0
C504 C 0.46846 0.90024 0.96471 0.0
C505 C 0.52415 0.89712 0.96152 0.0
H506 H 0.40164 0.89951 -0.00109 0.0
C507 C 0.55573 0.89986 0.99149 0.0
H508 H 0.44308 0.89907 0.94205 0.0
C509 C 0.53197 0.8997 0.02412 0.0
C510 C 0.47625 0.89733 0.0273 0.0
H511 H 0.59878 0.8982 0.9899 0.0
H512 H 0.55734 0.8981 0.04677 0.0
C513 C 0.44471 0.9006 -0.00266 0.0
C514 C 0.10806 0.52225 0.98285 0.0
C515 C 0.10735 0.48456 0.9559 0.0
H516 H 0.11563 0.53575 0.0372 0.0
C517 C 0.10431 0.43011 0.96422 0.0
H518 H 0.10943 0.5646 0.97737 0.0
C519 C 0.10759 0.41357 -0.00131 0.0
C520 C 0.1142 0.45123 0.02531 0.0
H521 H 0.10309 0.4001 0.94409 0.0
H522 H 0.10874 0.37121 0.00415 0.0
C523 C 0.11162 0.50574 0.01721 0.0
C524 C 0.49809 0.11427 0.01289 0.0
C525 C 0.55326 0.11342 0.01891 0.0
H526 H 0.43572 0.1189 0.97545 0.0
C527 C 0.58795 0.10753 0.99063 0.0
H528 H 0.47025 0.11781 0.03415 0.0
C529 C 0.56814 0.10838 0.95682 0.0
C530 C 0.51333 0.11497 0.95082 0.0
H531 H 0.63069 0.10609 -0.00557 0.0
H532 H 0.59609 0.10759 0.93552 0.0
C533 C 0.47832 0.11493 0.97919 0.0
C534 C 0.89181 0.41232 0.99019 0.0
C535 C 0.8846 0.45012 0.96371 0.0
H536 H 0.89649 0.39847 0.04474 0.0
C537 C 0.88655 0.50459 0.97199 0.0
H538 H 0.89116 0.37 0.98458 0.0
C539 C 0.88995 0.52086 0.00639 0.0
C540 C 0.89109 0.48296 0.03321 0.0
H541 H 0.8821 0.5347 0.9521 0.0
H542 H 0.88802 0.56315 0.01202 0.0
C543 C 0.89492 0.42862 0.02471 0.0
loop_
_geom_bond_atom_site_label_1
_geom_bond_atom_site_label_2
_geom_bond_distance
_geom_bond_site_symmetry_2
_ccdc_geom_bond_type
Mg0 O1 2.028 1_455 S
Mg0 O7 1.986 . S
Mg0 O9 2.114 . S
Mg0 O10 2.251 . S
Mg0 O13 2.010 . S
O1 Mg0 2.028 1_655 S
O1 C4 1.250 . S
O2 Mg3 2.028 1_655 S
O2 C4 1.248 . S
Mg3 O2 2.028 1_455 S
Mg3 O8 2.032 . S
Mg3 O10 2.079 . S
C4 O1 1.250 . S
C4 O2 1.248 . S
C5 O6 1.264 . S
C5 O13 1.249 . S
O6 C5 1.264 . S
O7 Mg0 1.986 . S
O7 C11 1.246 . S
O8 Mg3 2.032 . S
O8 C11 1.259 . S
O9 Mg0 2.114 . S
O9 C12 1.252 . S
O10 Mg0 2.251 . S
O10 Mg3 2.079 . S
O10 C12 1.273 . S
C11 O7 1.246 . S
C11 O8 1.259 . S
C12 O9 1.252 . S
C12 O10 1.273 . S
O13 Mg0 2.010 . S
O13 C5 1.249 . S
Mg14 O15 2.028 1_545 S
Mg14 O21 1.986 . S
Mg14 O23 2.114 . S
Mg14 O24 2.251 . S
Mg14 O27 2.010 . S
O15 Mg14 2.028 1_565 S
O15 C18 1.250 . S
O16 Mg17 2.028 1_565 S
O16 C18 1.248 . S
Mg17 O16 2.028 1_545 S
Mg17 O22 2.032 . S
Mg17 O24 2.079 . S
C18 O15 1.250 . S
C18 O16 1.248 . S
C19 O20 1.264 . S
C19 O27 1.249 . S
O20 C19 1.264 . S
O21 Mg14 1.986 . S
O21 C25 1.246 . S
O22 Mg17 2.032 . S
O22 C25 1.259 . S
O23 Mg14 2.114 . S
O23 C26 1.252 . S
O24 Mg14 2.251 . S
O24 Mg17 2.079 . S
O24 C26 1.273 . S
C25 O21 1.246 . S
C25 O22 1.259 . S
C26 O23 1.252 . S
C26 O24 1.273 . S
O27 Mg14 2.010 . S
O27 C19 1.249 . S
Mg28 O29 2.028 1_655 S
Mg28 O35 1.986 . S
Mg28 O37 2.114 . S
Mg28 O38 2.251 . S
Mg28 O41 2.010 . S
O29 Mg28 2.028 1_455 S
O29 C32 1.250 . S
O30 Mg31 2.028 1_455 S
O30 C32 1.248 . S
Mg31 O30 2.028 1_655 S
Mg31 O36 2.032 . S
Mg31 O38 2.079 . S
C32 O29 1.250 . S
C32 O30 1.248 . S
C33 O34 1.264 . S
C33 O41 1.249 . S
O34 C33 1.264 . S
O35 Mg28 1.986 . S
O35 C39 1.246 . S
O36 Mg31 2.032 . S
O36 C39 1.259 . S
O37 Mg28 2.114 . S
O37 C40 1.252 . S
O38 Mg28 2.251 . S
O38 Mg31 2.079 . S
O38 C40 1.273 . S
C39 O35 1.246 . S
C39 O36 1.259 . S
C40 O37 1.252 . S
C40 O38 1.273 . S
O41 Mg28 2.010 . S
O41 C33 1.249 . S
Mg42 O43 2.028 1_565 S
Mg42 O49 1.986 . S
Mg42 O51 2.114 . S
Mg42 O52 2.251 . S
Mg42 O55 2.010 . S
O43 Mg42 2.028 1_545 S
O43 C46 1.250 . S
O44 Mg45 2.028 1_545 S
O44 C46 1.248 . S
Mg45 O44 2.028 1_565 S
Mg45 O50 2.032 . S
Mg45 O52 2.079 . S
C46 O43 1.250 . S
C46 O44 1.248 . S
C47 O48 1.264 . S
C47 O55 1.249 . S
O48 C47 1.264 . S
O49 Mg42 1.986 . S
O49 C53 1.246 . S
O50 Mg45 2.032 . S
O50 C53 1.259 . S
O51 Mg42 2.114 . S
O51 C54 1.252 . S
O52 Mg42 2.251 . S
O52 Mg45 2.079 . S
O52 C54 1.273 . S
C53 O49 1.246 . S
C53 O50 1.259 . S
C54 O51 1.252 . S
C54 O52 1.273 . S
O55 Mg42 2.010 . S
O55 C47 1.249 . S
Mg56 O57 2.028 1_455 S
Mg56 O63 1.986 . S
Mg56 O65 2.114 . S
Mg56 O66 2.251 . S
Mg56 O69 2.010 . S
O57 Mg56 2.028 1_655 S
O57 C60 1.250 . S
O58 Mg59 2.028 1_655 S
O58 C60 1.248 . S
Mg59 O58 2.028 1_455 S
Mg59 O64 2.032 . S
Mg59 O66 2.079 . S
C60 O57 1.250 . S
C60 O58 1.248 . S
C61 O62 1.264 . S
C61 O69 1.249 . S
O62 C61 1.264 . S
O63 Mg56 1.986 . S
O63 C67 1.246 . S
O64 Mg59 2.032 . S
O64 C67 1.259 . S
O65 Mg56 2.114 . S
O65 C68 1.252 . S
O66 Mg56 2.251 . S
O66 Mg59 2.079 . S
O66 C68 1.273 . S
C67 O63 1.246 . S
C67 O64 1.259 . S
C68 O65 1.252 . S
C68 O66 1.273 . S
O69 Mg56 2.010 . S
O69 C61 1.249 . S
Mg70 O71 2.028 1_545 S
Mg70 O77 1.986 . S
Mg70 O79 2.114 . S
Mg70 O80 2.251 . S
Mg70 O83 2.010 . S
O71 Mg70 2.028 1_565 S
O71 C74 1.250 . S
O72 Mg73 2.028 1_565 S
O72 C74 1.248 . S
Mg73 O72 2.028 1_545 S
Mg73 O78 2.032 . S
Mg73 O80 2.079 . S
C74 O71 1.250 . S
C74 O72 1.248 . S
C75 O76 1.264 . S
C75 O83 1.249 . S
O76 C75 1.264 . S
O77 Mg70 1.986 . S
O77 C81 1.246 . S
O78 Mg73 2.032 . S
O78 C81 1.259 . S
O79 Mg70 2.114 . S
O79 C82 1.252 . S
O80 Mg70 2.251 . S
O80 Mg73 2.079 . S
O80 C82 1.273 . S
C81 O77 1.246 . S
C81 O78 1.259 . S
C82 O79 1.252 . S
C82 O80 1.273 . S
O83 Mg70 2.010 . S
O83 C75 1.249 . S
Mg84 O85 2.028 1_655 S
Mg84 O91 1.986 . S
Mg84 O93 2.114 . S
Mg84 O94 2.251 . S
Mg84 O97 2.010 . S
O85 Mg84 2.028 1_455 S
O85 C88 1.250 . S
O86 Mg87 2.028 1_455 S
O86 C88 1.248 . S
Mg87 O86 2.028 1_655 S
Mg87 O92 2.032 . S
Mg87 O94 2.079 . S
C88 O85 1.250 . S
C88 O86 1.248 . S
C89 O90 1.264 . S
C89 O97 1.249 . S
O90 C89 1.264 . S
O91 Mg84 1.986 . S
O91 C95 1.246 . S
O92 Mg87 2.032 . S
O92 C95 1.259 . S
O93 Mg84 2.114 . S
O93 C96 1.252 . S
O94 Mg84 2.251 . S
O94 Mg87 2.079 . S
O94 C96 1.273 . S
C95 O91 1.246 . S
C95 O92 1.259 . S
C96 O93 1.252 . S
C96 O94 1.273 . S
O97 Mg84 2.010 . S
O97 C89 1.249 . S
Mg98 O99 2.028 1_565 S
Mg98 O105 1.986 . S
Mg98 O107 2.114 . S
Mg98 O108 2.251 . S
Mg98 O111 2.010 . S
O99 Mg98 2.028 1_545 S
O99 C102 1.250 . S
O100 Mg101 2.028 1_545 S
O100 C102 1.248 . S
Mg101 O100 2.028 1_565 S
Mg101 O106 2.032 . S
Mg101 O108 2.079 . S
C102 O99 1.250 . S
C102 O100 1.248 . S
C103 O104 1.264 . S
C103 O111 1.249 . S
O104 C103 1.264 . S
O105 Mg98 1.986 . S
O105 C109 1.246 . S
O106 Mg101 2.032 . S
O106 C109 1.259 . S
O107 Mg98 2.114 . S
O107 C110 1.252 . S
O108 Mg98 2.251 . S
O108 Mg101 2.079 . S
O108 C110 1.273 . S
C109 O105 1.246 . S
C109 O106 1.259 . S
C110 O107 1.252 . S
C110 O108 1.273 . S
O111 Mg98 2.010 . S
O111 C103 1.249 . S
Mg112 O113 2.028 . S
Mg112 O119 1.986 . S
Mg112 O121 2.114 . S
Mg112 O122 2.251 . S
Mg112 O125 2.010 . S
O113 Mg112 2.028 . S
O113 C116 1.250 . S
O114 Mg115 2.028 . S
O114 C116 1.248 . S
Mg115 O114 2.028 . S
Mg115 O120 2.032 . S
Mg115 O122 2.079 . S
C116 O113 1.250 . S
C116 O114 1.248 . S
C117 O118 1.264 . S
C117 O125 1.249 . S
O118 C117 1.264 . S
O119 Mg112 1.986 . S
O119 C123 1.246 . S
O120 Mg115 2.032 . S
O120 C123 1.259 . S
O121 Mg112 2.114 . S
O121 C124 1.252 . S
O122 Mg112 2.251 . S
O122 Mg115 2.079 . S
O122 C124 1.273 . S
C123 O119 1.246 . S
C123 O120 1.259 . S
C124 O121 1.252 . S
C124 O122 1.273 . S
O125 Mg112 2.010 . S
O125 C117 1.249 . S
Mg126 O127 2.028 . S
Mg126 O133 1.986 . S
Mg126 O135 2.114 . S
Mg126 O136 2.251 . S
Mg126 O139 2.010 . S
O127 Mg126 2.028 . S
O127 C130 1.250 . S
O128 Mg129 2.028 . S
O128 C130 1.248 . S
Mg129 O128 2.028 . S
Mg129 O134 2.032 . S
Mg129 O136 2.079 . S
C130 O127 1.250 . S
C130 O128 1.248 . S
C131 O132 1.264 . S
C131 O139 1.249 . S
O132 C131 1.264 . S
O133 Mg126 1.986 . S
O133 C137 1.246 . S
O134 Mg129 2.032 . S
O134 C137 1.259 . S
O135 Mg126 2.114 . S
O135 C138 1.252 . S
O136 Mg126 2.251 . S
O136 Mg129 2.079 . S
O136 C138 1.273 . S
C137 O133 1.246 . S
C137 O134 1.259 . S
C138 O135 1.252 . S
C138 O136 1.273 . S
O139 Mg126 2.010 . S
O139 C131 1.249 . S
Mg140 O141 2.028 . S
Mg140 O147 1.986 . S
Mg140 O149 2.114 . S
Mg140 O150 2.251 . S
Mg140 O153 2.010 . S
O141 Mg140 2.028 . S
O141 C144 1.250 . S
O142 Mg143 2.028 . S
O142 C144 1.248 . S
Mg143 O142 2.028 . S
Mg143 O148 2.032 . S
Mg143 O150 2.079 . S
C144 O141 1.250 . S
C144 O142 1.248 . S
C145 O146 1.264 . S
C145 O153 1.249 . S
O146 C145 1.264 . S
O147 Mg140 1.986 . S
O147 C151 1.246 . S
O148 Mg143 2.032 . S
O148 C151 1.259 . S
O149 Mg140 2.114 . S
O149 C152 1.252 . S
O150 Mg140 2.251 . S
O150 Mg143 2.079 . S
O150 C152 1.273 . S
C151 O147 1.246 . S
C151 O148 1.259 . S
C152 O149 1.252 . S
C152 O150 1.273 . S
O153 Mg140 2.010 . S
O153 C145 1.249 . S
Mg154 O155 2.028 . S
Mg154 O161 1.986 . S
Mg154 O163 2.114 . S
Mg154 O164 2.251 . S
Mg154 O167 2.010 . S
O155 Mg154 2.028 . S
O155 C158 1.250 . S
O156 Mg157 2.028 . S
O156 C158 1.248 . S
Mg157 O156 2.028 . S
Mg157 O162 2.032 . S
Mg157 O164 2.079 . S
C158 O155 1.250 . S
C158 O156 1.248 . S
C159 O160 1.264 . S
C159 O167 1.249 . S
O160 C159 1.264 . S
O161 Mg154 1.986 . S
O161 C165 1.246 . S
O162 Mg157 2.032 . S
O162 C165 1.259 . S
O163 Mg154 2.114 . S
O163 C166 1.252 . S
O164 Mg154 2.251 . S
O164 Mg157 2.079 . S
O164 C166 1.273 . S
C165 O161 1.246 . S
C165 O162 1.259 . S
C166 O163 1.252 . S
C166 O164 1.273 . S
O167 Mg154 2.010 . S
O167 C159 1.249 . S
Mg168 O169 2.028 . S
Mg168 O175 1.986 . S
Mg168 O177 2.114 . S
Mg168 O178 2.251 . S
Mg168 O181 2.010 . S
O169 Mg168 2.028 . S
O169 C172 1.250 . S
O170 Mg171 2.028 . S
O170 C172 1.248 . S
Mg171 O170 2.028 . S
Mg171 O176 2.032 . S
Mg171 O178 2.079 . S
C172 O169 1.250 . S
C172 O170 1.248 . S
C173 O174 1.264 . S
C173 O181 1.249 . S
O174 C173 1.264 . S
O175 Mg168 1.986 . S
O175 C179 1.246 . S
O176 Mg171 2.032 . S
O176 C179 1.259 . S
O177 Mg168 2.114 . S
O177 C180 1.252 . S
O178 Mg168 2.251 . S
O178 Mg171 2.079 . S
O178 C180 1.273 . S
C179 O175 1.246 . S
C179 O176 1.259 . S
C180 O177 1.252 . S
C180 O178 1.273 . S
O181 Mg168 2.010 . S
O181 C173 1.249 . S
Mg182 O183 2.028 . S
Mg182 O189 1.986 . S
Mg182 O191 2.114 . S
Mg182 O192 2.251 . S
Mg182 O195 2.010 . S
O183 Mg182 2.028 . S
O183 C186 1.250 . S
O184 Mg185 2.028 . S
O184 C186 1.248 . S
Mg185 O184 2.028 . S
Mg185 O190 2.032 . S
Mg185 O192 2.079 . S
C186 O183 1.250 . S
C186 O184 1.248 . S
C187 O188 1.264 . S
C187 O195 1.249 . S
O188 C187 1.264 . S
O189 Mg182 1.986 . S
O189 C193 1.246 . S
O190 Mg185 2.032 . S
O190 C193 1.259 . S
O191 Mg182 2.114 . S
O191 C194 1.252 . S
O192 Mg182 2.251 . S
O192 Mg185 2.079 . S
O192 C194 1.273 . S
C193 O189 1.246 . S
C193 O190 1.259 . S
C194 O191 1.252 . S
C194 O192 1.273 . S
O195 Mg182 2.010 . S
O195 C187 1.249 . S
Mg196 O197 2.028 . S
Mg196 O203 1.986 . S
Mg196 O205 2.114 . S
Mg196 O206 2.251 . S
Mg196 O209 2.010 . S
O197 Mg196 2.028 . S
O197 C200 1.250 . S
O198 Mg199 2.028 . S
O198 C200 1.248 . S
Mg199 O198 2.028 . S
Mg199 O204 2.032 . S
Mg199 O206 2.079 . S
C200 O197 1.250 . S
C200 O198 1.248 . S
C201 O202 1.264 . S
C201 O209 1.249 . S
O202 C201 1.264 . S
O203 Mg196 1.986 . S
O203 C207 1.246 . S
O204 Mg199 2.032 . S
O204 C207 1.259 . S
O205 Mg196 2.114 . S
O205 C208 1.252 . S
O206 Mg196 2.251 . S
O206 Mg199 2.079 . S
O206 C208 1.273 . S
C207 O203 1.246 . S
C207 O204 1.259 . S
C208 O205 1.252 . S
C208 O206 1.273 . S
O209 Mg196 2.010 . S
O209 C201 1.249 . S
Mg210 O211 2.028 . S
Mg210 O217 1.986 . S
Mg210 O219 2.114 . S
Mg210 O220 2.251 . S
Mg210 O223 2.010 . S
O211 Mg210 2.028 . S
O211 C214 1.250 . S
O212 Mg213 2.028 . S
O212 C214 1.248 . S
Mg213 O212 2.028 . S
Mg213 O218 2.032 . S
Mg213 O220 2.079 . S
C214 O211 1.250 . S
C214 O212 1.248 . S
C215 O216 1.264 . S
C215 O223 1.249 . S
O216 C215 1.264 . S
O217 Mg210 1.986 . S
O217 C221 1.246 . S
O218 Mg213 2.032 . S
O218 C221 1.259 . S
O219 Mg210 2.114 . S
O219 C222 1.252 . S
O220 Mg210 2.251 . S
O220 Mg213 2.079 . S
O220 C222 1.273 . S
C221 O217 1.246 . S
C221 O218 1.259 . S
C222 O219 1.252 . S
C222 O220 1.273 . S
O223 Mg210 2.010 . S
O223 C215 1.249 . S
C224 C225 1.387 . S
C224 H228 0.950 . S
C224 C233 1.390 . S
C225 C224 1.387 . S
C225 C227 1.387 . S
H226 C233 0.950 . S
C227 C225 1.387 . S
C227 C229 1.390 . S
C227 H231 0.950 . S
H228 C224 0.950 . S
C229 C227 1.390 . S
C229 C230 1.387 . S
C229 H232 0.950 . S
C230 C229 1.387 . S
C230 C233 1.387 . S
H231 C227 0.950 . S
H232 C229 0.950 . S
C233 C224 1.390 . S
C233 H226 0.950 . S
C233 C230 1.387 . S
C234 C235 1.387 . S
C234 H238 0.950 . S
C234 C243 1.390 . S
C235 C234 1.387 . S
C235 C237 1.387 . S
H236 C243 0.950 . S
C237 C235 1.387 . S
C237 C239 1.390 . S
C237 H241 0.950 . S
H238 C234 0.950 . S
C239 C237 1.390 . S
C239 C240 1.387 . S
C239 H242 0.950 . S
C240 C239 1.387 . S
C240 C243 1.387 . S
H241 C237 0.950 . S
H242 C239 0.950 . S
C243 C234 1.390 . S
C243 H236 0.950 . S
C243 C240 1.387 . S
C244 C245 1.387 . S
C244 H248 0.950 . S
C244 C253 1.390 . S
C245 C244 1.387 . S
C245 C247 1.387 . S
H246 C253 0.950 . S
C247 C245 1.387 . S
C247 C249 1.390 . S
C247 H251 0.950 . S
H248 C244 0.950 . S
C249 C247 1.390 . S
C249 C250 1.387 . S
C249 H252 0.950 . S
C250 C249 1.387 . S
C250 C253 1.387 . S
H251 C247 0.950 . S
H252 C249 0.950 . S
C253 C244 1.390 . S
C253 H246 0.950 . S
C253 C250 1.387 . S
C254 C255 1.387 . S
C254 H258 0.950 . S
C254 C263 1.390 . S
C255 C254 1.387 . S
C255 C257 1.387 . S
H256 C263 0.950 . S
C257 C255 1.387 . S
C257 C259 1.390 . S
C257 H261 0.950 . S
H258 C254 0.950 . S
C259 C257 1.390 . S
C259 C260 1.387 . S
C259 H262 0.950 . S
C260 C259 1.387 . S
C260 C263 1.387 . S
H261 C257 0.950 . S
H262 C259 0.950 . S
C263 C254 1.390 . S
C263 H256 0.950 . S
C263 C260 1.387 . S
C264 C265 1.387 . S
C264 H268 0.950 . S
C264 C273 1.390 . S
C265 C264 1.387 . S
C265 C267 1.387 . S
H266 C273 0.950 . S
C267 C265 1.387 . S
C267 C269 1.390 . S
C267 H271 0.950 . S
H268 C264 0.950 . S
C269 C267 1.390 . S
C269 C270 1.387 . S
C269 H272 0.950 . S
C270 C269 1.387 . S
C270 C273 1.387 . S
H271 C267 0.950 . S
H272 C269 0.950 . S
C273 C264 1.390 . S
C273 H266 0.950 . S
C273 C270 1.387 . S
C274 C275 1.387 . S
C274 H278 0.950 . S
C274 C283 1.390 . S
C275 C274 1.387 . S
C275 C277 1.387 . S
H276 C283 0.950 . S
C277 C275 1.387 . S
C277 C279 1.390 . S
C277 H281 0.950 . S
H278 C274 0.950 . S
C279 C277 1.390 . S
C279 C280 1.387 . S
C279 H282 0.950 . S
C280 C279 1.387 . S
C280 C283 1.387 . S
H281 C277 0.950 . S
H282 C279 0.950 . S
C283 C274 1.390 . S
C283 H276 0.950 . S
C283 C280 1.387 . S
C284 C285 1.387 . S
C284 H288 0.950 . S
C284 C293 1.390 . S
C285 C284 1.387 . S
C285 C287 1.387 . S
H286 C293 0.950 . S
C287 C285 1.387 . S
C287 C289 1.390 . S
C287 H291 0.950 . S
H288 C284 0.950 . S
C289 C287 1.390 . S
C289 C290 1.387 . S
C289 H292 0.950 . S
C290 C289 1.387 . S
C290 C293 1.387 . S
H291 C287 0.950 . S
H292 C289 0.950 . S
C293 C284 1.390 . S
C293 H286 0.950 . S
C293 C290 1.387 . S
C294 C295 1.387 . S
C294 H298 0.950 . S
C294 C303 1.390 . S
C295 C294 1.387 . S
C295 C297 1.387 . S
H296 C303 0.950 . S
C297 C295 1.387 . S
C297 C299 1.390 . S
C297 H301 0.950 . S
H298 C294 0.950 . S
C299 C297 1.390 . S
C299 C300 1.387 . S
C299 H302 0.950 . S
C300 C299 1.387 . S
C300 C303 1.387 . S
H301 C297 0.950 . S
H302 C299 0.950 . S
C303 C294 1.390 . S
C303 H296 0.950 . S
C303 C300 1.387 . S
C304 C305 1.387 . S
C304 H308 0.950 . S
C304 C313 1.390 . S
C305 C304 1.387 . S
C305 C307 1.387 . S
H306 C313 0.950 . S
C307 C305 1.387 . S
C307 C309 1.390 . S
C307 H311 0.950 . S
H308 C304 0.950 . S
C309 C307 1.390 . S
C309 C310 1.387 . S
C309 H312 0.950 . S
C310 C309 1.387 . S
C310 C313 1.387 . S
H311 C307 0.950 . S
H312 C309 0.950 . S
C313 C304 1.390 . S
C313 H306 0.950 . S
C313 C310 1.387 . S
C314 C315 1.387 . S
C314 H318 0.950 . S
C314 C323 1.390 . S
C315 C314 1.387 . S
C315 C317 1.387 . S
H316 C323 0.950 . S
C317 C315 1.387 . S
C317 C319 1.390 . S
C317 H321 0.950 . S
H318 C314 0.950 . S
C319 C317 1.390 . S
C319 C320 1.387 . S
C319 H322 0.950 . S
C320 C319 1.387 . S
C320 C323 1.387 . S
H321 C317 0.950 . S
H322 C319 0.950 . S
C323 C314 1.390 . S
C323 H316 0.950 . S
C323 C320 1.387 . S
C324 C325 1.387 . S
C324 H328 0.950 . S
C324 C333 1.390 . S
C325 C324 1.387 . S
C325 C327 1.387 . S
H326 C333 0.950 . S
C327 C325 1.387 . S
C327 C329 1.390 . S
C327 H331 0.950 . S
H328 C324 0.950 . S
C329 C327 1.390 . S
C329 C330 1.387 . S
C329 H332 0.950 . S
C330 C329 1.387 . S
C330 C333 1.387 . S
H331 C327 0.950 . S
H332 C329 0.950 . S
C333 C324 1.390 . S
C333 H326 0.950 . S
C333 C330 1.387 . S
C334 C335 1.387 . S
C334 H338 0.950 . S
C334 C343 1.390 . S
C335 C334 1.387 . S
C335 C337 1.387 . S
H336 C343 0.950 . S
C337 C335 1.387 . S
C337 C339 1.390 . S
C337 H341 0.950 . S
H338 C334 0.950 . S
C339 C337 1.390 . S
C339 C340 1.387 . S
C339 H342 0.950 . S
C340 C339 1.387 . S
C340 C343 1.387 . S
H341 C337 0.950 . S
H342 C339 0.950 . S
C343 C334 1.390 . S
C343 H336 0.950 . S
C343 C340 1.387 . S
C344 C345 1.387 . S
C344 H348 0.950 . S
C344 C353 1.390 . S
C345 C344 1.387 . S
C345 C347 1.387 . S
H346 C353 0.950 . S
C347 C345 1.387 . S
C347 C349 1.390 . S
C347 H351 0.950 . S
H348 C344 0.950 . S
C349 C347 1.390 . S
C349 C350 1.387 . S
C349 H352 0.950 . S
C350 C349 1.387 . S
C350 C353 1.387 . S
H351 C347 0.950 . S
H352 C349 0.950 . S
C353 C344 1.390 . S
C353 H346 0.950 . S
C353 C350 1.387 . S
C354 C355 1.387 . S
C354 H358 0.950 . S
C354 C363 1.390 . S
C355 C354 1.387 . S
C355 C357 1.387 . S
H356 C363 0.950 . S
C357 C355 1.387 . S
C357 C359 1.390 . S
C357 H361 0.950 . S
H358 C354 0.950 . S
C359 C357 1.390 . S
C359 C360 1.387 . S
C359 H362 0.950 . S
C360 C359 1.387 . S
C360 C363 1.387 . S
H361 C357 0.950 . S
H362 C359 0.950 . S
C363 C354 1.390 . S
C363 H356 0.950 . S
C363 C360 1.387 . S
C364 C365 1.387 . S
C364 H368 0.950 . S
C364 C373 1.390 . S
C365 C364 1.387 . S
C365 C367 1.387 . S
H366 C373 0.950 . S
C367 C365 1.387 . S
C367 C369 1.390 . S
C367 H371 0.950 . S
H368 C364 0.950 . S
C369 C367 1.390 . S
C369 C370 1.387 . S
C369 H372 0.950 . S
C370 C369 1.387 . S
C370 C373 1.387 . S
H371 C367 0.950 . S
H372 C369 0.950 . S
C373 C364 1.390 . S
C373 H366 0.950 . S
C373 C370 1.387 . S
C374 C375 1.387 . S
C374 H378 0.950 . S
C374 C383 1.390 . S
C375 C374 1.387 . S
C375 C377 1.387 . S
H376 C383 0.950 . S
C377 C375 1.387 . S
C377 C379 1.390 . S
C377 H381 0.950 . S
H378 C374 0.950 . S
C379 C377 1.390 . S
C379 C380 1.387 . S
C379 H382 0.950 . S
C380 C379 1.387 . S
C380 C383 1.387 . S
H381 C377 0.950 . S
H382 C379 0.950 . S
C383 C374 1.390 . S
C383 H376 0.950 . S
C383 C380 1.387 . S
C384 C385 1.387 . S
C384 H388 0.950 . S
C384 C393 1.390 . S
C385 C384 1.387 . S
C385 C387 1.387 . S
H386 C393 0.950 . S
C387 C385 1.387 . S
C387 C389 1.390 . S
C387 H391 0.950 . S
H388 C384 0.950 . S
C389 C387 1.390 . S
C389 C390 1.387 . S
C389 H392 0.950 . S
C390 C389 1.387 . S
C390 C393 1.387 . S
H391 C387 0.950 . S
H392 C389 0.950 . S
C393 C384 1.390 . S
C393 H386 0.950 . S
C393 C390 1.387 . S
C394 C395 1.387 . S
C394 H398 0.950 1_545 S
C394 C403 1.390 . S
C395 C394 1.387 . S
C395 C397 1.387 . S
H396 C403 0.950 . S
C397 C395 1.387 . S
C397 C399 1.390 . S
C397 H401 0.950 . S
H398 C394 0.950 1_565 S
C399 C397 1.390 . S
C399 C400 1.387 . S
C399 H402 0.950 . S
C400 C399 1.387 . S
C400 C403 1.387 . S
H401 C397 0.950 . S
H402 C399 0.950 . S
C403 C394 1.390 . S
C403 H396 0.950 . S
C403 C400 1.387 . S
C404 C405 1.387 . S
C404 H408 0.950 . S
C404 C413 1.390 . S
C405 C404 1.387 . S
C405 C407 1.387 . S
H406 C413 0.950 . S
C407 C405 1.387 . S
C407 C409 1.390 . S
C407 H411 0.950 . S
H408 C404 0.950 . S
C409 C407 1.390 . S
C409 C410 1.387 . S
C409 H412 0.950 . S
C410 C409 1.387 . S
C410 C413 1.387 . S
H411 C407 0.950 . S
H412 C409 0.950 . S
C413 C404 1.390 . S
C413 H406 0.950 . S
C413 C410 1.387 . S
C414 C415 1.387 . S
C414 H418 0.950 . S
C414 C423 1.390 . S
C415 C414 1.387 . S
C415 C417 1.387 . S
H416 C423 0.950 . S
C417 C415 1.387 . S
C417 C419 1.390 . S
C417 H421 0.950 1_565 S
H418 C414 0.950 . S
C419 C417 1.390 . S
C419 C420 1.387 . S
C419 H422 0.950 . S
C420 C419 1.387 . S
C420 C423 1.387 . S
H421 C417 0.950 1_545 S
H422 C419 0.950 . S
C423 C414 1.390 . S
C423 H416 0.950 . S
C423 C420 1.387 . S
C424 C425 1.387 . S
C424 H428 0.950 . S
C424 C433 1.390 . S
C425 C424 1.387 . S
C425 C427 1.387 . S
H426 C433 0.950 . S
C427 C425 1.387 . S
C427 C429 1.390 . S
C427 H431 0.950 . S
H428 C424 0.950 . S
C429 C427 1.390 . S
C429 C430 1.387 . S
C429 H432 0.950 . S
C430 C429 1.387 . S
C430 C433 1.387 . S
H431 C427 0.950 . S
H432 C429 0.950 . S
C433 C424 1.390 . S
C433 H426 0.950 . S
C433 C430 1.387 . S
C434 C435 1.387 . S
C434 H438 0.950 . S
C434 C443 1.390 . S
C435 C434 1.387 . S
C435 C437 1.387 . S
H436 C443 0.950 . S
C437 C435 1.387 . S
C437 C439 1.390 . S
C437 H441 0.950 . S
H438 C434 0.950 . S
C439 C437 1.390 . S
C439 C440 1.387 . S
C439 H442 0.950 1_545 S
C440 C439 1.387 . S
C440 C443 1.387 . S
H441 C437 0.950 . S
H442 C439 0.950 1_565 S
C443 C434 1.390 . S
C443 H436 0.950 . S
C443 C440 1.387 . S
C444 C445 1.387 . S
C444 H448 0.950 . S
C444 C453 1.390 . S
C445 C444 1.387 . S
C445 C447 1.387 . S
H446 C453 0.950 . S
C447 C445 1.387 . S
C447 C449 1.390 . S
C447 H451 0.950 . S
H448 C444 0.950 . S
C449 C447 1.390 . S
C449 C450 1.387 . S
C449 H452 0.950 . S
C450 C449 1.387 . S
C450 C453 1.387 . S
H451 C447 0.950 . S
H452 C449 0.950 . S
C453 C444 1.390 . S
C453 H446 0.950 . S
C453 C450 1.387 . S
C454 C455 1.387 . S
C454 H458 0.950 . S
C454 C463 1.390 . S
C455 C454 1.387 . S
C455 C457 1.387 . S
H456 C463 0.950 . S
C457 C455 1.387 . S
C457 C459 1.390 . S
C457 H461 0.950 1_565 S
H458 C454 0.950 . S
C459 C457 1.390 . S
C459 C460 1.387 . S
C459 H462 0.950 . S
C460 C459 1.387 . S
C460 C463 1.387 . S
H461 C457 0.950 1_545 S
H462 C459 0.950 . S
C463 C454 1.390 . S
C463 H456 0.950 . S
C463 C460 1.387 . S
C464 C465 1.387 . S
C464 H468 0.950 . S
C464 C473 1.390 1_655 S
C465 C464 1.387 . S
C465 C467 1.387 . S
H466 C473 0.950 . S
C467 C465 1.387 . S
C467 C469 1.390 1_655 S
C467 H471 0.950 . S
H468 C464 0.950 . S
C469 C467 1.390 1_455 S
C469 C470 1.387 . S
C469 H472 0.950 . S
C470 C469 1.387 . S
C470 C473 1.387 . S
H471 C467 0.950 . S
H472 C469 0.950 . S
C473 C464 1.390 1_455 S
C473 H466 0.950 . S
C473 C470 1.387 . S
C474 C475 1.387 . S
C474 H478 0.950 . S
C474 C483 1.390 1_545 S
C475 C474 1.387 . S
C475 C477 1.387 . S
H476 C483 0.950 . S
C477 C475 1.387 . S
C477 C479 1.390 1_545 S
C477 H481 0.950 . S
H478 C474 0.950 . S
C479 C477 1.390 1_565 S
C479 C480 1.387 . S
C479 H482 0.950 . S
C480 C479 1.387 . S
C480 C483 1.387 . S
H481 C477 0.950 . S
H482 C479 0.950 . S
C483 C474 1.390 1_565 S
C483 H476 0.950 . S
C483 C480 1.387 . S
C484 C485 1.387 . S
C484 H488 0.950 . S
C484 C493 1.390 1_655 S
C485 C484 1.387 . S
C485 C487 1.387 . S
H486 C493 0.950 . S
C487 C485 1.387 . S
C487 C489 1.390 1_655 S
C487 H491 0.950 . S
H488 C484 0.950 . S
C489 C487 1.390 1_455 S
C489 C490 1.387 . S
C489 H492 0.950 . S
C490 C489 1.387 . S
C490 C493 1.387 . S
H491 C487 0.950 . S
H492 C489 0.950 . S
C493 C484 1.390 1_455 S
C493 H486 0.950 . S
C493 C490 1.387 . S
C494 C495 1.387 . S
C494 H498 0.950 . S
C494 C503 1.390 . S
C495 C494 1.387 . S
C495 C497 1.387 1_565 S
H496 C503 0.950 . S
C497 C495 1.387 1_545 S
C497 C499 1.390 . S
C497 H501 0.950 . S
H498 C494 0.950 . S
C499 C497 1.390 . S
C499 C500 1.387 . S
C499 H502 0.950 . S
C500 C499 1.387 . S
C500 C503 1.387 1_545 S
H501 C497 0.950 . S
H502 C499 0.950 . S
C503 C494 1.390 . S
C503 H496 0.950 . S
C503 C500 1.387 1_565 S
C504 C505 1.387 . S
C504 H508 0.950 . S
C504 C513 1.390 1_556 S
C505 C504 1.387 . S
C505 C507 1.387 . S
H506 C513 0.950 . S
C507 C505 1.387 . S
C507 C509 1.390 1_556 S
C507 H511 0.950 . S
H508 C504 0.950 . S
C509 C507 1.390 1_554 S
C509 C510 1.387 . S
C509 H512 0.950 . S
C510 C509 1.387 . S
C510 C513 1.387 . S
H511 C507 0.950 . S
H512 C509 0.950 . S
C513 C504 1.390 1_554 S
C513 H506 0.950 . S
C513 C510 1.387 . S
C514 C515 1.387 . S
C514 H518 0.950 . S
C514 C523 1.390 1_556 S
C515 C514 1.387 . S
C515 C517 1.387 . S
H516 C523 0.950 . S
C517 C515 1.387 . S
C517 C519 1.390 1_556 S
C517 H521 0.950 . S
H518 C514 0.950 . S
C519 C517 1.390 1_554 S
C519 C520 1.387 . S
C519 H522 0.950 . S
C520 C519 1.387 . S
C520 C523 1.387 . S
H521 C517 0.950 . S
H522 C519 0.950 . S
C523 C514 1.390 1_554 S
C523 H516 0.950 . S
C523 C520 1.387 . S
C524 C525 1.387 . S
C524 H528 0.950 . S
C524 C533 1.390 1_554 S
C525 C524 1.387 . S
C525 C527 1.387 . S
H526 C533 0.950 . S
C527 C525 1.387 . S
C527 C529 1.390 1_554 S
C527 H531 0.950 . S
H528 C524 0.950 . S
C529 C527 1.390 1_556 S
C529 C530 1.387 . S
C529 H532 0.950 . S
C530 C529 1.387 . S
C530 C533 1.387 . S
H531 C527 0.950 . S
H532 C529 0.950 . S
C533 C524 1.390 1_556 S
C533 H526 0.950 . S
C533 C530 1.387 . S
C534 C535 1.387 . S
C534 H538 0.950 . S
C534 C543 1.390 1_556 S
C535 C534 1.387 . S
C535 C537 1.387 . S
H536 C543 0.950 . S
C537 C535 1.387 . S
C537 C539 1.390 1_556 S
C537 H541 0.950 . S
H538 C534 0.950 . S
C539 C537 1.390 1_554 S
C539 C540 1.387 . S
C539 H542 0.950 . S
C540 C539 1.387 . S
C540 C543 1.387 . S
H541 C537 0.950 . S
H542 C539 0.950 . S
C543 C534 1.390 1_554 S
C543 H536 0.950 . S
C543 C540 1.387 . S
C225 C12 1.494 . S
C230 C46 1.436 . S
C235 C4 1.436 . S
C240 C26 1.494 . S
C245 C18 1.436 . S
C250 C40 1.494 . S
C255 C32 1.433 . S
C260 C54 1.494 . S
C265 C68 1.494 . S
C270 C74 1.436 . S
C275 C82 1.494 . S
C280 C88 1.433 . S
C285 C96 1.494 . S
C290 C102 1.433 . S
C295 C110 1.494 . S
C300 C60 1.436 . S
C305 C124 1.494 . S
C310 C158 1.432 . S
C315 C116 1.432 . S
C320 C138 1.494 . S
C325 C130 1.436 . S
C330 C152 1.494 . S
C335 C166 1.494 . S
C340 C144 1.432 . S
C345 C186 1.436 . S
C350 C180 1.494 . S
C355 C200 1.434 . S
C360 C194 1.494 . S
C365 C208 1.494 . S
C370 C214 1.432 . S
C375 C222 1.494 . S
C380 C172 1.436 . S
C385 C11 1.117 . S
C390 C221 1.113 . S
C395 C25 1.114 . S
C400 C179 1.114 . S
C405 C193 1.118 . S
C410 C39 1.115 . S
C415 C53 1.118 . S
C420 C207 1.114 . S
C425 C137 1.113 . S
C430 C67 1.117 . S
C435 C151 1.115 . S
C440 C81 1.118 . S
C445 C95 1.117 . S
C450 C165 1.113 . S
C455 C109 1.118 . S
C460 C123 1.115 . S
C465 C5 1.236 1_655 S
C470 C89 1.236 1_455 S
C475 C103 1.236 1_545 S
C480 C19 1.236 1_565 S
C485 C61 1.236 1_655 S
C490 C33 1.236 1_455 S
C495 C75 1.236 1_565 S
C500 C47 1.236 1_545 S
C505 C117 1.242 . S
C510 C201 1.242 . S
C515 C131 1.242 . S
C520 C215 1.242 . S
C525 C173 1.242 . S
C530 C145 1.242 . S
C535 C159 1.235 . S
C540 C187 1.235 . S
