# Generated by pormake.
# Topology wji, (4)-cn, num edge types: 1
# Building blocks:
#     Node 0, Type 0, BuildingBlock: NAHDIM_clean_sbu_0, # of connection points: 4
#     Node 1, Type 0, BuildingBlock: NAHDIM_clean_sbu_0, # of connection points: 4
#     Node 2, Type 0, BuildingBlock: NAHDIM_clean_sbu_0, # of connection points: 4
#     Node 3, Type 0, BuildingBlock: NAHDIM_clean_sbu_0, # of connection points: 4
#     Node 4, Type 0, BuildingBlock: NAHDIM_clean_sbu_0, # of connection points: 4
#     Node 5, Type 0, BuildingBlock: NAHDIM_clean_sbu_0, # of connection points: 4
#     Node 6, Type 0, BuildingBlock: NAHDIM_clean_sbu_0, # of connection points: 4
#     Node 7, Type 0, BuildingBlock: NAHDIM_clean_sbu_0, # of connection points: 4
#     Node 8, Type 0, BuildingBlock: NAHDIM_clean_sbu_0, # of connection points: 4
#     Node 9, Type 0, BuildingBlock: NAHDIM_clean_sbu_0, # of connection points: 4
#     Node 10, Type 0, BuildingBlock: NAHDIM_clean_sbu_0, # of connection points: 4
#     Node 11, Type 0, BuildingBlock: NAHDIM_clean_sbu_0, # of connection points: 4
#     Edge 12, Type (0, 0), BuildingBlock: ZUJKAS_clean_linker_0, # of connection points: 2
#     Edge 13, Type (0, 0), BuildingBlock: ZUJKAS_clean_linker_0, # of connection points: 2
#     Edge 14, Type (0, 0), BuildingBlock: ZUJKAS_clean_linker_0, # of connection points: 2
#     Edge 15, Type (0, 0), BuildingBlock: ZUJKAS_clean_linker_0, # of connection points: 2
#     Edge 16, Type (0, 0), BuildingBlock: ZUJKAS_clean_linker_0, # of connection points: 2
#     Edge 17, Type (0, 0), BuildingBlock: ZUJKAS_clean_linker_0, # of connection points: 2
#     Edge 18, Type (0, 0), BuildingBlock: ZUJKAS_clean_linker_0, # of connection points: 2
#     Edge 19, Type (0, 0), BuildingBlock: ZUJKAS_clean_linker_0, # of connection points: 2
#     Edge 20, Type (0, 0), BuildingBlock: ZUJKAS_clean_linker_0, # of connection points: 2
#     Edge 21, Type (0, 0), BuildingBlock: ZUJKAS_clean_linker_0, # of connection points: 2
#     Edge 22, Type (0, 0), BuildingBlock: ZUJKAS_clean_linker_0, # of connection points: 2
#     Edge 23, Type (0, 0), BuildingBlock: ZUJKAS_clean_linker_0, # of connection points: 2
#     Edge 24, Type (0, 0), BuildingBlock: ZUJKAS_clean_linker_0, # of connection points: 2
#     Edge 25, Type (0, 0), BuildingBlock: ZUJKAS_clean_linker_0, # of connection points: 2
#     Edge 26, Type (0, 0), BuildingBlock: ZUJKAS_clean_linker_0, # of connection points: 2
#     Edge 27, Type (0, 0), BuildingBlock: ZUJKAS_clean_linker_0, # of connection points: 2
#     Edge 28, Type (0, 0), BuildingBlock: ZUJKAS_clean_linker_0, # of connection points: 2
#     Edge 29, Type (0, 0), BuildingBlock: ZUJKAS_clean_linker_0, # of connection points: 2
#     Edge 30, Type (0, 0), BuildingBlock: ZUJKAS_clean_linker_0, # of connection points: 2
#     Edge 31, Type (0, 0), BuildingBlock: ZUJKAS_clean_linker_0, # of connection points: 2
#     Edge 32, Type (0, 0), BuildingBlock: ZUJKAS_clean_linker_0, # of connection points: 2
#     Edge 33, Type (0, 0), BuildingBlock: ZUJKAS_clean_linker_0, # of connection points: 2
#     Edge 34, Type (0, 0), BuildingBlock: ZUJKAS_clean_linker_0, # of connection points: 2
#     Edge 35, Type (0, 0), BuildingBlock: ZUJKAS_clean_linker_0, # of connection points: 2
# Relax obj value: 0.157
# Max RMSD: 0.089
# Mean RMSD: 0.088
data_MOF--net-wji--node1-NAHDIM_clean_sbu_0--edge1-ZUJKAS_clean_linker_0
_symmetry_space_group_name_H-M    P1
_symmetry_Int_Tables_number       1
_symmetry_cell_setting            triclinic
loop_
_symmetry_equiv_pos_as_xyz
'x, y, z'
_cell_length_a     74.207287
_cell_length_b     74.214489
_cell_length_c     29.801239
_cell_angle_alpha  89.993233
_cell_angle_beta   90.026814
_cell_angle_gamma 119.99193
loop_
_atom_site_label
_atom_site_type_symbol
_atom_site_fract_x
_atom_site_fract_y
_atom_site_fract_z
_atom_type_partial_charge
C0 C 0.43603 0.29224 0.43953 0.0
O1 O 0.45365 0.30949 0.43202 0.0
O2 O 0.44782 0.34357 0.42551 0.0
Zn3 Zn 0.41855 0.31909 0.42831 0.0
O4 O 0.40427 0.32174 0.4831 0.0
C5 C 0.39925 0.3344 0.37119 0.0
O6 O 0.40525 0.34768 0.40465 0.0
O7 O 0.41903 0.29241 0.43629 0.0
C8 C 0.38466 0.31389 0.48548 0.0
O9 O 0.373 0.30371 0.45092 0.0
C10 C 0.45328 0.36028 0.44713 0.0
O11 O 0.43955 0.36177 0.47229 0.0
O12 O 0.40311 0.31952 0.37295 0.0
C13 C 0.13977 0.43761 0.61094 0.0
O14 O 0.14173 0.45601 0.60449 0.0
O15 O 0.1027 0.45243 0.57992 0.0
Zn16 Zn 0.09647 0.42303 0.59077 0.0
O17 O 0.07899 0.41256 0.64624 0.0
C18 C 0.0612 0.40215 0.53716 0.0
O19 O 0.05544 0.41121 0.56725 0.0
O20 O 0.12228 0.42143 0.60363 0.0
C21 C 0.07041 0.39353 0.65743 0.0
O22 O 0.07288 0.3805 0.63187 0.0
C23 C 0.10464 0.464 0.6132 0.0
O24 O 0.10343 0.45679 0.65403 0.0
O25 O 0.07953 0.40491 0.53922 0.0
C26 C 0.70067 0.13599 0.77914 0.0
O27 O 0.68126 0.12967 0.7901 0.0
O28 O 0.65395 0.09981 0.72934 0.0
Zn29 Zn 0.68004 0.0978 0.73278 0.0
O30 O 0.67618 0.07776 0.78195 0.0
C31 C 0.67705 0.08887 0.63799 0.0
O32 O 0.66838 0.10057 0.63715 0.0
O33 O 0.70444 0.12522 0.75155 0.0
C34 C 0.67072 0.05879 0.77538 0.0
O35 O 0.66707 0.05137 0.7343 0.0
C36 C 0.6364 0.08372 0.722 0.0
O37 O 0.63552 0.0658 0.7153 0.0
O38 O 0.68441 0.08666 0.67473 0.0
C39 C 0.57108 0.69915 0.97593 0.0
O40 O 0.5665 0.6822 -0.00144 0.0
O41 O 0.54872 0.65078 0.91247 0.0
Zn42 Zn 0.57809 0.67533 0.9144 0.0
O43 O 0.59518 0.6705 0.95986 0.0
C44 C 0.5853 0.66322 0.82879 0.0
O45 O 0.56849 0.64601 0.84087 0.0
O46 O 0.57686 0.70051 0.93528 0.0
C47 C 0.59897 0.65562 0.95792 0.0
O48 O 0.59132 0.64224 0.92467 0.0
C49 C 0.5411 0.63678 0.94258 0.0
O50 O 0.55241 0.63825 0.97779 0.0
O51 O 0.59225 0.67904 0.85432 0.0
C52 C 0.85823 0.55655 0.11692 0.0
O53 O 0.86307 0.54227 0.12724 0.0
O54 O 0.88959 0.54244 0.0532 0.0
Zn55 Zn 0.89619 0.57087 0.07427 0.0
O56 O 0.91194 0.57684 0.13227 0.0
C57 C 0.93362 0.6023 0.03346 0.0
O58 O 0.94145 0.5983 0.06907 0.0
O59 O 0.86996 0.571 0.09006 0.0
C60 C 0.91413 0.59191 0.15642 0.0
O61 O 0.90605 0.60319 0.14274 0.0
C62 C 0.90406 0.53801 0.05445 0.0
O63 O 0.92268 0.55231 0.06772 0.0
O64 O 0.91396 0.59261 0.0281 0.0
C65 C 0.292 0.86996 0.30007 0.0
O66 O 0.31114 0.88003 0.31556 0.0
O67 O 0.3363 0.89934 0.22954 0.0
Zn68 Zn 0.31191 0.90328 0.24252 0.0
O69 O 0.32043 0.92349 0.29341 0.0
C70 C 0.31123 0.91452 0.15023 0.0
O71 O 0.31906 0.90232 0.1433 0.0
O72 O 0.2877 0.87663 0.26467 0.0
C73 C 0.30755 0.92757 0.31233 0.0
O74 O 0.28832 0.91868 0.29751 0.0
C75 C 0.35402 0.91566 0.22635 0.0
O76 O 0.35527 0.93391 0.22959 0.0
O77 O 0.3057 0.91613 0.18968 0.0
C78 C 0.71303 0.57127 0.40896 0.0
O79 O 0.69829 0.5542 0.42761 0.0
O80 O 0.66016 0.55602 0.42822 0.0
Zn81 Zn 0.68302 0.58537 0.41632 0.0
O82 O 0.6757 0.59444 0.35917 0.0
C83 C 0.66798 0.60641 0.46745 0.0
O84 O 0.65343 0.59705 0.43689 0.0
O85 O 0.71037 0.58681 0.40446 0.0
C86 C 0.68426 0.61341 0.34752 0.0
O87 O 0.69821 0.62779 0.37395 0.0
C88 C 0.65269 0.54339 0.39552 0.0
O89 O 0.66084 0.54957 0.35543 0.0
O90 O 0.68373 0.60392 0.46652 0.0
C91 C 0.13095 0.71169 0.57041 0.0
O92 O 0.13342 0.69721 0.58998 0.0
O93 O 0.09347 0.65972 0.59516 0.0
Zn94 Zn 0.08717 0.68291 0.58593 0.0
O95 O 0.06654 0.67428 0.53585 0.0
C96 C 0.07827 0.68421 0.68023 0.0
O97 O 0.0937 0.68058 0.68647 0.0
O98 O 0.11279 0.70926 0.56713 0.0
C99 C 0.04977 0.65689 0.53831 0.0
O100 O 0.04634 0.64517 0.57392 0.0
C101 C 0.09746 0.65217 0.56081 0.0
O102 O 0.09789 0.66013 0.52117 0.0
O103 O 0.07356 0.68656 0.64055 0.0
C104 C 0.4329 0.13638 0.72581 0.0
O105 O 0.44954 0.13471 0.73176 0.0
O106 O 0.43837 0.09324 0.75443 0.0
Zn107 Zn 0.41099 0.09294 0.75199 0.0
O108 O 0.3938 0.07375 0.70264 0.0
C109 C 0.40289 0.07833 0.84361 0.0
O110 O 0.42292 0.08481 0.84354 0.0
O111 O 0.41513 0.12105 0.73544 0.0
C112 C 0.38837 0.05459 0.70299 0.0
O113 O 0.39409 0.04714 0.73666 0.0
C114 C 0.44647 0.09113 0.71867 0.0
O115 O 0.43699 0.08909 0.68019 0.0
O116 O 0.39472 0.08134 0.80904 0.0
C117 C 0.285 0.42561 0.90673 0.0
O118 O 0.30152 0.44316 0.91847 0.0
O119 O 0.33659 0.43846 0.92348 0.0
Zn120 Zn 0.31248 0.40909 0.92031 0.0
O121 O 0.31704 0.39508 0.8674 0.0
C122 C 0.32942 0.39309 0.97972 0.0
O123 O 0.3433 0.40109 0.94745 0.0
O124 O 0.28562 0.40882 0.90866 0.0
C125 C 0.31072 0.37571 0.86586 0.0
O126 O 0.30059 0.36386 0.90019 0.0
C127 C 0.34626 0.4482 0.88835 0.0
O128 O 0.34002 0.43912 0.84907 0.0
O129 O 0.31298 0.39434 0.97668 0.0
C130 C 0.85579 0.28137 0.07879 0.0
O131 O 0.85274 0.29533 0.09912 0.0
O132 O 0.89175 0.33462 0.08701 0.0
Zn133 Zn 0.89913 0.31197 0.09127 0.0
O134 O 0.9209 0.3179 0.04477 0.0
C135 C 0.92025 0.32933 0.17324 0.0
O136 O 0.91938 0.3453 0.15678 0.0
O137 O 0.87422 0.2846 0.07482 0.0
C138 C 0.93562 0.33636 0.03813 0.0
O139 O 0.93666 0.35155 0.06269 0.0
C140 C 0.88627 0.33871 0.04974 0.0
O141 O 0.88463 0.32741 0.01438 0.0
O142 O 0.91152 0.31222 0.15182 0.0
C143 C 0.56485 0.86869 0.19208 0.0
O144 O 0.55552 0.87709 0.17015 0.0
O145 O 0.55162 0.90468 0.23671 0.0
Zn146 Zn 0.5799 0.90702 0.23161 0.0
O147 O 0.59308 0.92176 0.1741 0.0
C148 C 0.60557 0.94331 0.28086 0.0
O149 O 0.6018 0.95099 0.24467 0.0
O150 O 0.5766 0.87861 0.22492 0.0
C151 C 0.61215 0.92924 0.1642 0.0
O152 O 0.62471 0.92771 0.19305 0.0
C153 C 0.54768 0.9168 0.21395 0.0
O154 O 0.56225 0.93091 0.18817 0.0
O155 O 0.59777 0.9237 0.28395 0.0
H156 H 0.36058 0.38421 0.98932 0.0
H157 H 0.36903 0.37047 0.05528 0.0
H158 H 0.31636 0.36665 0.12526 0.0
H159 H 0.30752 0.38016 0.05875 0.0
H160 H 0.37925 0.38984 0.1371 0.0
H161 H 0.3113 0.31002 0.15216 0.0
H162 H 0.31699 0.32526 0.10146 0.0
H163 H 0.30489 0.33034 0.14821 0.0
C164 C 0.35062 0.38026 0.01852 0.0
C165 C 0.33343 0.38338 0.01891 0.0
C166 C 0.35547 0.37236 0.05617 0.0
C167 C 0.34324 0.36739 0.09501 0.0
C168 C 0.32578 0.37003 0.09531 0.0
H169 H 0.38694 0.36311 0.3612 0.0
H170 H 0.372 0.36982 0.29472 0.0
C171 C 0.32083 0.37787 0.05742 0.0
C172 C 0.34995 0.36112 0.13606 0.0
H173 H 0.33548 0.32202 0.21269 0.0
C174 C 0.36969 0.37499 0.15356 0.0
C175 C 0.33752 0.34165 0.15716 0.0
C176 C 0.31656 0.32584 0.13866 0.0
C177 C 0.37729 0.37003 0.19181 0.0
C178 C 0.36466 0.35083 0.21366 0.0
C179 C 0.34502 0.33679 0.19596 0.0
C180 C 0.37176 0.34529 0.25508 0.0
C181 C 0.39893 0.3853 0.2082 0.0
C182 C 0.37589 0.32879 0.25522 0.0
C183 C 0.3844 0.32484 0.29333 0.0
C184 C 0.38887 0.33734 0.33181 0.0
C185 C 0.38392 0.35333 0.33197 0.0
C186 C 0.37539 0.35721 0.29402 0.0
H187 H 0.40835 0.39675 0.18184 0.0
H188 H 0.39782 0.39402 0.23731 0.0
H189 H 0.40722 0.37709 0.21929 0.0
H190 H 0.3731 0.31938 0.22544 0.0
H191 H 0.38794 0.31234 0.29225 0.0
H192 H 0.02101 0.39281 0.52671 0.0
H193 H -0.00268 0.37374 0.46561 0.0
H194 H 0.04417 0.36339 0.40509 0.0
H195 H 0.06828 0.38285 0.46622 0.0
H196 H 0.02749 0.37904 0.34611 0.0
H197 H 0.96394 0.31233 0.43546 0.0
H198 H 0.97019 0.3365 0.46177 0.0
H199 H 0.98934 0.32836 0.46011 0.0
C200 C 0.02627 0.38631 0.50074 0.0
C201 C 0.04658 0.38941 0.50127 0.0
C202 C 0.01259 0.37519 0.46602 0.0
C203 C 0.01882 0.36678 0.43126 0.0
C204 C 0.03898 0.36957 0.4319 0.0
H205 H 0.92957 0.30126 0.2116 0.0
H206 H 0.95404 0.3078 0.27334 0.0
C207 C 0.05274 0.38072 0.46676 0.0
C208 C 0.00488 0.35699 0.39228 0.0
H209 H 0.95464 0.32174 0.36466 0.0
C210 C 0.0117 0.36622 0.34999 0.0
C211 C 0.98437 0.34007 0.39717 0.0
C212 C 0.97661 0.3286 0.44102 0.0
C213 C -0.00187 0.35994 0.3132 0.0
C214 C 0.97714 0.34426 0.3191 0.0
C215 C 0.97067 0.33401 0.36049 0.0
C216 C 0.96144 0.33962 0.2837 0.0
C217 C 0.00621 0.37056 0.26858 0.0
C218 C 0.95705 0.35513 0.27031 0.0
C219 C 0.94313 0.35147 0.2354 0.0
C220 C 0.93323 0.33216 0.21323 0.0
C221 C 0.937 0.31632 0.22793 0.0
C222 C 0.95098 0.32002 0.26307 0.0
H223 H 0.02336 0.37754 0.26608 0.0
H224 H -0.00121 0.35948 0.24036 0.0
H225 H 0.00254 0.38326 0.26489 0.0
H226 H 0.96466 0.37022 0.28651 0.0
H227 H 0.94048 0.36397 0.22523 0.0
H228 H 0.62797 0.98559 0.27911 0.0
H229 H 0.64513 0.00918 0.34173 0.0
H230 H 0.62766 0.95683 0.42958 0.0
H231 H 0.61025 0.93293 0.3668 0.0
H232 H 0.61617 0.9854 0.46037 0.0
H233 H 0.69921 0.0259 0.41062 0.0
H234 H 0.68226 0.02526 0.36686 0.0
H235 H 0.6801 0.00133 0.38649 0.0
C236 C 0.62799 0.97904 0.31157 0.0
C237 C 0.61766 0.95738 0.31805 0.0
C238 C 0.63799 0.99258 0.34725 0.0
C239 C 0.63791 0.98476 0.39011 0.0
C240 C 0.62804 0.96315 0.39659 0.0
H241 H 0.69243 0.06231 0.62909 0.0
H242 H 0.68462 0.0368 0.56924 0.0
C243 C 0.61811 0.94954 0.36074 0.0
C244 C 0.64624 -0.00079 0.42868 0.0
H245 H 0.68949 0.04293 0.46637 0.0
C246 C 0.63227 0.99778 0.46207 0.0
C247 C 0.66728 0.01529 0.43089 0.0
C248 C 0.68314 0.01697 0.39703 0.0
C249 C 0.63855 0.01259 0.49648 0.0
C250 C 0.65928 0.02928 0.49726 0.0
C251 C 0.67354 0.03022 0.46519 0.0
C252 C 0.66604 0.04618 0.53055 0.0
C253 C 0.6229 0.01054 0.53137 0.0
C254 C 0.6587 0.06026 0.52763 0.0
C255 C 0.6632 0.07491 0.56151 0.0
C256 C 0.67504 0.07563 0.59903 0.0
C257 C 0.68321 0.06212 0.60071 0.0
C258 C 0.67878 0.04754 0.56661 0.0
H259 H 0.60886 0.99478 0.53125 0.0
H260 H 0.62995 0.01377 0.5654 0.0
H261 H 0.61793 0.0221 0.52438 0.0
H262 H 0.64896 0.05949 0.49975 0.0
H263 H 0.65669 0.08509 0.5591 0.0
H264 H 0.63697 0.61568 0.47474 0.0
H265 H 0.63056 0.6333 0.53622 0.0
H266 H 0.68635 0.6429 0.60258 0.0
H267 H 0.6928 0.62488 0.54103 0.0
H268 H 0.65268 0.62511 0.65705 0.0
H269 H 0.65603 0.69338 0.57488 0.0
H270 H 0.63932 0.66997 0.54463 0.0
H271 H 0.66667 0.67863 0.54931 0.0
C272 C 0.64808 0.62177 0.50205 0.0
C273 C 0.66535 0.61878 0.5031 0.0
C274 C 0.6445 0.63207 0.537 0.0
C275 C 0.65818 0.63977 0.57361 0.0
C276 C 0.67573 0.63726 0.57436 0.0
H277 H 0.62374 0.69391 0.79985 0.0
H278 H 0.64472 0.69128 0.73912 0.0
C279 C 0.67936 0.62694 0.53925 0.0
C280 C 0.6526 0.64812 0.61308 0.0
H281 H 0.63481 0.68098 0.64246 0.0
C282 C 0.64925 0.63765 0.65412 0.0
C283 C 0.64836 0.66467 0.6095 0.0
C284 C 0.65301 0.67745 0.56729 0.0
C285 C 0.64031 0.64225 0.69059 0.0
C286 C 0.63435 0.65749 0.68564 0.0
C287 C 0.63911 0.66906 0.64584 0.0
C288 C 0.62142 0.66007 0.71991 0.0
C289 C 0.63662 0.63021 0.73368 0.0
C290 C 0.60121 0.64368 0.72794 0.0
C291 C 0.58923 0.64513 0.76222 0.0
C292 C 0.59722 0.66305 0.78916 0.0
C293 C 0.61717 0.67988 0.77974 0.0
C294 C 0.62918 0.67841 0.74519 0.0
H295 H 0.64703 0.62352 0.7365 0.0
H296 H 0.63907 0.64026 0.76331 0.0
H297 H 0.6203 0.61718 0.73437 0.0
H298 H 0.59484 0.62955 0.70819 0.0
H299 H 0.57389 0.63194 0.76826 0.0
H300 H 0.08201 0.67676 0.76876 0.0
H301 H 0.05658 0.6692 0.82854 0.0
H302 H 0.01815 0.68025 0.73704 0.0
H303 H 0.04339 0.68783 0.677 0.0
H304 H 0.03615 0.6933 0.8632 0.0
H305 H 0.98306 0.61758 0.78018 0.0
H306 H 0.01053 0.63223 0.76769 0.0
H307 H 0.99341 0.64075 0.74642 0.0
C308 C 0.06833 0.67792 0.76149 0.0
C309 C 0.06461 0.68264 0.71798 0.0
C310 C 0.05386 0.67364 0.79571 0.0
C311 C 0.03545 0.67396 0.78689 0.0
C312 C 0.03221 0.67977 0.74425 0.0
H313 H 0.92337 0.61328 0.95342 0.0
H314 H 0.94724 0.63426 0.89335 0.0
C315 C 0.04668 0.68411 0.71006 0.0
C316 C 0.0189 0.66643 0.8212 0.0
H317 H 0.97228 0.62425 0.84892 0.0
C318 C 0.02207 0.67831 0.86003 0.0
C319 C 0.00052 0.64695 0.81659 0.0
C320 C 0.99658 0.63349 0.77566 0.0
C321 C 0.00743 0.67098 0.89499 0.0
C322 C 0.98948 0.65103 0.89132 0.0
C323 C 0.986 0.63954 0.85168 0.0
C324 C 0.97516 0.64081 0.92956 0.0
C325 C 0.01138 0.68464 0.93552 0.0
C326 C 0.98294 0.63765 0.96988 0.0
C327 C 0.96941 0.62578 0.00415 0.0
C328 C 0.94775 0.61656 -0.00137 0.0
C329 C 0.93996 0.62016 0.95869 0.0
C330 C 0.95357 0.63216 0.92438 0.0
H331 H 0.02091 0.70137 0.92659 0.0
H332 H 0.99661 0.68191 0.95096 0.0
H333 H 0.0202 0.68119 0.96086 0.0
H334 H -0.00054 0.64363 0.97422 0.0
H335 H 0.97596 0.62329 0.03441 0.0
H336 H 0.36055 0.06009 0.85152 0.0
H337 H 0.33819 0.03382 0.9063 0.0
H338 H 0.39242 0.03889 0.97165 0.0
H339 H 0.41484 0.06536 0.9178 0.0
H340 H 0.33523 0.99639 0.91644 0.0
H341 H 0.35858 0.03826 0.07804 0.0
H342 H 0.3651 0.05166 0.02479 0.0
H343 H 0.38087 0.04165 0.04748 0.0
C344 C 0.36774 0.05595 0.87817 0.0
C345 C 0.38949 0.06479 0.88022 0.0
C346 C 0.35493 0.04091 0.90938 0.0
C347 C 0.36363 0.03454 0.94335 0.0
C348 C 0.38536 0.04389 0.94639 0.0
H349 H 0.32863 0.92013 0.06704 0.0
H350 H 0.33662 0.94842 0.01486 0.0
C351 C 0.39817 0.05895 0.91533 0.0
C352 C 0.35017 0.01671 0.97278 0.0
H353 H 0.34353 0.00084 0.08187 0.0
C354 C 0.33671 0.99744 0.95269 0.0
C355 C 0.35177 0.01811 0.02007 0.0
C356 C 0.3647 0.03861 0.04383 0.0
C357 C 0.32591 0.97929 0.97849 0.0
C358 C 0.32902 0.9804 0.02546 0.0
C359 C 0.34135 -0.0001 0.04577 0.0
C360 C 0.3213 0.96153 0.05375 0.0
C361 C 0.31159 0.95907 0.95504 0.0
C362 C 0.30995 0.95939 0.09299 0.0
C363 C 0.30555 0.94331 0.12326 0.0
C364 C 0.31254 0.92915 0.1149 0.0
C365 C 0.32295 0.9307 0.07445 0.0
C366 C 0.32742 0.94682 0.04436 0.0
H367 H 0.30509 0.9618 0.92386 0.0
H368 H 0.32052 0.95135 0.94535 0.0
H369 H 0.29852 0.94836 0.97707 0.0
H370 H 0.30513 0.9706 0.10098 0.0
H371 H 0.29746 0.94253 0.15408 0.0
H372 H 0.63215 0.52561 0.47378 0.0
H373 H 0.5996 0.4926 0.48257 0.0
H374 H 0.5984 0.48138 0.34036 0.0
H375 H 0.63087 0.51436 0.33111 0.0
H376 H 0.56136 0.47829 0.37582 0.0
H377 H 0.58732 0.43163 0.47371 0.0
H378 H 0.5956 0.45719 0.49553 0.0
H379 H 0.6051 0.45444 0.44203 0.0
C380 C 0.62511 0.516 0.44444 0.0
C381 C 0.63407 0.52264 0.40171 0.0
C382 C 0.60658 0.4971 0.44959 0.0
C383 C 0.59674 0.48451 0.41216 0.0
C384 C 0.60584 0.49087 0.36966 0.0
H385 H 0.48636 0.36143 0.4038 0.0
H386 H 0.52148 0.39135 0.39524 0.0
C387 C 0.6244 0.50971 0.36448 0.0
C388 C 0.57616 0.46551 0.4168 0.0
H389 H 0.55078 0.41771 0.46665 0.0
C390 C 0.55905 0.465 0.39548 0.0
C391 C 0.57328 0.44818 0.44223 0.0
C392 C 0.5913 0.4477 0.46443 0.0
C393 C 0.53899 0.44774 0.39968 0.0
C394 C 0.53601 0.43067 0.42615 0.0
C395 C 0.55316 0.43095 0.44669 0.0
C396 C 0.51509 0.41243 0.43292 0.0
C397 C 0.52114 0.44783 0.37564 0.0
C398 C 0.50006 0.41439 0.45751 0.0
C399 C 0.48004 0.39737 0.46258 0.0
C400 C 0.4747 0.37808 0.44304 0.0
C401 C 0.48994 0.3761 0.41906 0.0
C402 C 0.51001 0.39313 0.41422 0.0
H403 H 0.52663 0.46009 0.34941 0.0
H404 H 0.51084 0.4325 0.35975 0.0
H405 H 0.51172 0.45082 0.40026 0.0
H406 H 0.5038 0.42915 0.47257 0.0
H407 H 0.46869 0.39941 0.48138 0.0
H408 H 0.10755 0.48363 0.53347 0.0
H409 H 0.1098 0.51737 0.52241 0.0
H410 H 0.1092 0.52503 0.66575 0.0
H411 H 0.1073 0.49155 0.67718 0.0
H412 H 0.08089 0.52792 0.5498 0.0
H413 H 0.1575 0.58097 0.627 0.0
H414 H 0.14953 0.55445 0.61196 0.0
H415 H 0.14043 0.55999 0.6632 0.0
C416 C 0.10816 0.49261 0.56265 0.0
C417 C 0.10726 0.48491 0.60622 0.0
C418 C 0.10944 0.51188 0.55626 0.0
C419 C 0.10997 0.52383 0.59326 0.0
C420 C 0.1093 0.51629 0.63675 0.0
H421 H 0.09795 0.63217 0.63762 0.0
H422 H 0.10183 0.60138 0.64379 0.0
C423 C 0.10806 0.49706 0.64319 0.0
C424 C 0.10974 0.54348 0.58645 0.0
H425 H 0.13539 0.59519 0.61285 0.0
C426 C 0.09291 0.54268 0.56314 0.0
C427 C 0.12543 0.56268 0.60405 0.0
C428 C 0.14434 0.56468 0.62759 0.0
C429 C 0.09104 0.56046 0.55802 0.0
C430 C 0.10655 0.57958 0.57621 0.0
C431 C 0.12351 0.58047 0.59908 0.0
C432 C 0.10521 0.59874 0.57239 0.0
C433 C 0.07217 0.55853 0.53434 0.0
C434 C 0.10622 0.60761 0.53027 0.0
C435 C 0.10402 0.62517 0.5266 0.0
C436 C 0.10081 0.6342 0.56505 0.0
C437 C 0.10032 0.62555 0.60734 0.0
C438 C 0.10257 0.608 0.61096 0.0
H439 H 0.05961 0.54206 0.53098 0.0
H440 H 0.06591 0.56727 0.5526 0.0
H441 H 0.07667 0.56524 0.50015 0.0
H442 H 0.10857 0.60085 0.50019 0.0
H443 H 0.10459 0.63151 0.49355 0.0
H444 H 0.47185 0.09828 0.7912 0.0
H445 H 0.50488 0.09839 0.79308 0.0
H446 H 0.49881 0.08345 0.65203 0.0
H447 H 0.46605 0.08371 0.64959 0.0
H448 H 0.51292 0.06703 0.77408 0.0
H449 H 0.55711 0.13346 0.65875 0.0
H450 H 0.53249 0.12768 0.6829 0.0
H451 H 0.53326 0.1134 0.63486 0.0
C452 C 0.4776 0.09512 0.76052 0.0
C453 C 0.4664 0.09113 0.72017 0.0
C454 C 0.49646 0.09518 0.76168 0.0
C455 C 0.50447 0.09129 0.72253 0.0
C456 C 0.49317 0.087 0.68238 0.0
H457 H 0.5968 0.05283 0.70311 0.0
H458 H 0.56498 0.05495 0.70453 0.0
C459 C 0.47438 0.08704 0.68113 0.0
C460 C 0.52436 0.09113 0.7239 0.0
H461 H 0.57257 0.11284 0.67625 0.0
C462 C 0.52602 0.07713 0.7529 0.0
C463 C 0.54153 0.10453 0.69672 0.0
C464 C 0.54114 0.12077 0.66688 0.0
C465 C 0.54423 0.07581 0.75467 0.0
C466 C 0.56104 0.08855 0.72599 0.0
C467 C 0.55956 0.10291 0.6978 0.0
C468 C 0.58034 0.08728 0.72478 0.0
C469 C 0.54538 0.06098 0.78765 0.0
C470 C 0.59961 0.10492 0.73435 0.0
C471 C 0.61786 0.10382 0.73312 0.0
C472 C 0.61717 0.08505 0.72216 0.0
C473 C 0.59786 0.06748 0.71199 0.0
C474 C 0.57963 0.06862 0.71307 0.0
H475 H 0.53394 0.05689 0.81531 0.0
H476 H 0.54176 0.04639 0.76999 0.0
H477 H 0.56119 0.06773 0.8024 0.0
H478 H 0.60051 0.11951 0.74319 0.0
H479 H 0.63248 0.11765 0.74109 0.0
H480 H 0.52215 0.60202 0.99516 0.0
H481 H 0.48806 0.57106 0.98372 0.0
H482 H 0.47838 0.59903 0.86618 0.0
H483 H 0.51251 0.6301 0.87715 0.0
H484 H 0.44324 0.57884 0.93215 0.0
H485 H 0.47562 0.52928 0.87581 0.0
H486 H 0.48633 0.54373 0.9268 0.0
H487 H 0.49055 0.55737 0.87465 0.0
C488 C 0.51276 0.60166 0.96697 0.0
C489 C 0.52008 0.61849 0.93693 0.0
C490 C 0.49333 0.58394 0.96045 0.0
C491 C 0.48088 0.58277 0.92392 0.0
C492 C 0.48786 0.59969 0.89449 0.0
H493 H 0.3733 0.47112 0.82156 0.0
H494 H 0.4053 0.50476 0.82859 0.0
C495 C 0.50735 0.61738 0.90079 0.0
C496 C 0.46071 0.56368 0.91607 0.0
H497 H 0.43924 0.51249 0.8876 0.0
C498 C 0.44231 0.56433 0.92226 0.0
C499 C 0.45966 0.54492 0.9027 0.0
C500 C 0.47906 0.54368 0.89421 0.0
C501 C 0.42276 0.54644 0.91644 0.0
C502 C 0.42172 0.52753 0.90432 0.0
C503 C 0.44014 0.52703 0.89711 0.0
C504 C 0.40167 0.50792 0.89966 0.0
C505 C 0.40336 0.54788 0.92304 0.0
C506 C 0.3891 0.49863 0.93736 0.0
C507 C 0.37087 0.47938 0.93355 0.0
C508 C 0.36492 0.46909 0.89192 0.0
C509 C 0.37741 0.47865 0.85407 0.0
C510 C 0.3957 0.49784 0.85799 0.0
H511 H 0.40676 0.56425 0.92231 0.0
H512 H 0.39164 0.53891 0.89677 0.0
H513 H 0.39642 0.54113 0.95614 0.0
H514 H 0.39364 0.50604 0.96994 0.0
H515 H 0.36161 0.47243 0.96335 0.0
H516 H 0.89131 0.36671 0.11493 0.0
H517 H 0.88924 0.39831 0.1067 0.0
H518 H 0.87259 0.38378 0.96733 0.0
H519 H 0.87498 0.35219 0.97503 0.0
H520 H 0.90396 0.42349 0.97901 0.0
H521 H 0.83988 0.4073 0.09619 0.0
H522 H 0.8596 0.4037 0.12247 0.0
H523 H 0.84486 0.3872 0.07636 0.0
C524 C 0.88693 0.37005 0.08263 0.0
C525 C 0.88331 0.35692 0.04562 0.0
C526 C 0.88561 0.38807 0.07808 0.0
C527 C 0.88042 0.39322 0.0366 0.0
C528 C 0.87647 0.38 -0.00027 0.0
H529 H 0.86711 0.50432 0.02832 0.0
H530 H 0.85981 0.46862 0.01647 0.0
C531 C 0.87784 0.36196 0.00421 0.0
C532 C 0.88079 0.41325 0.03117 0.0
H533 H 0.86309 0.4434 0.07818 0.0
C534 C 0.89477 0.42773 0.00017 0.0
C535 C 0.86854 0.41865 0.05818 0.0
C536 C 0.85222 0.40329 0.08981 0.0
C537 C 0.89768 0.44788 -0.00272 0.0
C538 C 0.88663 0.45379 0.02682 0.0
C539 C 0.87177 0.43894 0.05596 0.0
C540 C 0.89129 0.47562 0.03036 0.0
C541 C 0.91277 0.46271 0.96302 0.0
C542 C 0.91138 0.49135 0.04213 0.0
C543 C 0.91561 0.51171 0.04877 0.0
C544 C 0.89976 0.51672 0.04425 0.0
C545 C 0.87967 0.50098 0.03197 0.0
C546 C 0.87546 0.48058 0.02521 0.0
H547 H 0.91439 0.45419 0.93406 0.0
H548 H 0.90778 0.47361 0.95037 0.0
H549 H 0.92833 0.47195 0.97874 0.0
H550 H 0.9237 0.48778 0.0474 0.0
H551 H 0.93121 0.52341 0.05844 0.0
H552 H 0.39418 0.94761 0.22531 0.0
H553 H 0.42586 0.9453 0.22235 0.0
H554 H 0.389 0.87841 0.21544 0.0
H555 H 0.35711 0.88052 0.21828 0.0
H556 H 0.43677 0.92265 0.28569 0.0
H557 H 0.43138 0.89568 0.10931 0.0
H558 H 0.41713 0.90795 0.12923 0.0
H559 H 0.4086 0.88141 0.14366 0.0
C560 C 0.39276 0.9324 0.22279 0.0
C561 C 0.37312 0.91424 0.22201 0.0
C562 C 0.41088 0.93112 0.22122 0.0
C563 C 0.40972 0.91171 0.21843 0.0
C564 C 0.39018 0.89355 0.21708 0.0
H565 H 0.5144 0.89094 0.26679 0.0
H566 H 0.48013 0.88829 0.26898 0.0
C567 C 0.372 0.89479 0.21882 0.0
C568 C 0.42904 0.91059 0.21843 0.0
H569 H 0.45944 0.89886 0.15275 0.0
C570 C 0.44172 0.91735 0.25677 0.0
C571 C 0.43539 0.90377 0.18049 0.0
C572 C 0.42255 0.8969 0.13812 0.0
C573 C 0.46075 0.91763 0.25805 0.0
C574 C 0.46711 0.91082 0.2201 0.0
C575 C 0.45437 0.90392 0.18186 0.0
C576 C 0.48755 0.91193 0.21849 0.0
C577 C 0.4742 0.92577 0.2994 0.0
C578 C 0.50286 0.92588 0.18894 0.0
C579 C 0.52239 0.92746 0.18764 0.0
C580 C 0.52692 0.91499 0.21567 0.0
C581 C 0.51143 0.90081 0.24491 0.0
C582 C 0.49188 0.89931 0.2463 0.0
H583 H 0.46875 0.9338 0.32253 0.0
H584 H 0.47386 0.91259 0.31774 0.0
H585 H 0.49061 0.93678 0.29 0.0
H586 H 0.49976 0.93572 0.1672 0.0
H587 H 0.53393 0.93847 0.1646 0.0
H588 H 0.31031 0.33874 0.86027 0.0
H589 H 0.32163 0.32585 0.79681 0.0
H590 H 0.33314 0.37965 0.71919 0.0
H591 H 0.32261 0.39297 0.78285 0.0
H592 H 0.30846 0.31536 0.71153 0.0
H593 H 0.38866 0.38267 0.71222 0.0
H594 H 0.37044 0.37801 0.75687 0.0
H595 H 0.36954 0.39052 0.70579 0.0
C596 C 0.3152 0.34777 0.82961 0.0
C597 C 0.31586 0.36699 0.82667 0.0
C598 C 0.32164 0.34039 0.79341 0.0
C599 C 0.3287 0.35205 0.7537 0.0
C600 C 0.32837 0.37073 0.75001 0.0
H601 H 0.34668 0.31106 0.49373 0.0
H602 H 0.33239 0.31871 0.56025 0.0
C603 C 0.32224 0.37826 0.78632 0.0
C604 C 0.33677 0.34493 0.71637 0.0
H605 H 0.37886 0.36056 0.64816 0.0
C606 C 0.32391 0.32515 0.69782 0.0
C607 C 0.35709 0.35756 0.69919 0.0
C608 C 0.3723 0.37826 0.71986 0.0
C609 C 0.33065 0.31786 0.66172 0.0
C610 C 0.35055 0.33098 0.64296 0.0
C611 C 0.36353 0.35057 0.66222 0.0
C612 C 0.3584 0.32492 0.60335 0.0
C613 C 0.31652 0.29607 0.64468 0.0
C614 C 0.37796 0.3263 0.60509 0.0
C615 C 0.38637 0.32247 0.56687 0.0
C616 C 0.37526 0.31695 0.52627 0.0
C617 C 0.35548 0.31509 0.52472 0.0
C618 C 0.34723 0.31929 0.56282 0.0
H619 H 0.30543 0.28605 0.67102 0.0
H620 H 0.30726 0.29666 0.61606 0.0
H621 H 0.32556 0.28872 0.63306 0.0
H622 H 0.38688 0.33067 0.63594 0.0
H623 H 0.40161 0.32393 0.56909 0.0
H624 H 0.96642 0.37435 0.00947 0.0
H625 H 0.99012 0.38169 0.94633 0.0
H626 H 0.96308 0.31591 0.92171 0.0
H627 H 0.93904 0.30839 0.98427 0.0
H628 H 0.01956 0.36951 0.93028 0.0
H629 H 0.95742 0.33826 0.80038 0.0
H630 H 0.95285 0.34337 0.8572 0.0
H631 H 0.95406 0.32034 0.84444 0.0
C632 C 0.96553 0.36143 0.99071 0.0
C633 C 0.95073 0.34079 0.00161 0.0
C634 C 0.97909 0.36565 0.95469 0.0
C635 C 0.97809 0.34935 0.92897 0.0
C636 C 0.96378 0.32872 0.94059 0.0
H637 H 0.04653 0.35345 0.68693 0.0
H638 H 0.0249 0.34158 0.7546 0.0
C639 C 0.95014 0.32446 0.97648 0.0
C640 C 0.99189 0.35405 0.88969 0.0
H641 H 0.99171 0.34983 0.77561 0.0
C642 C 0.01349 0.36517 0.89647 0.0
C643 C 0.98387 0.34831 0.84567 0.0
C644 C 0.96079 0.33707 0.83624 0.0
C645 C 0.02734 0.37082 0.86026 0.0
C646 C 0.01931 0.36539 0.81626 0.0
C647 C -0.00226 0.35388 0.80952 0.0
C648 C 0.033 0.37252 0.7765 0.0
C649 C 0.05044 0.38256 0.86928 0.0
C650 C 0.04448 0.39379 0.76643 0.0
C651 C 0.05672 0.4006 0.72784 0.0
C652 C 0.05767 0.38623 0.69859 0.0
C653 C 0.04617 0.3649 0.70887 0.0
C654 C 0.03383 0.35809 0.74744 0.0
H655 H 0.05401 0.38086 0.90472 0.0
H656 H 0.05869 0.37709 0.84691 0.0
H657 H 0.0566 0.39935 0.86263 0.0
H658 H 0.04372 0.40511 0.7881 0.0
H659 H 0.06536 0.41713 0.72085 0.0
H660 H 0.58936 0.92949 0.09302 0.0
H661 H 0.60196 0.95017 0.02474 0.0
H662 H 0.66524 0.97585 0.07077 0.0
H663 H 0.65273 0.95475 0.13911 0.0
H664 H 0.62347 0.9924 0.02324 0.0
H665 H 0.66901 0.96093 0.94047 0.0
H666 H 0.65079 0.94741 0.98527 0.0
H667 H 0.67619 0.96891 -0.00229 0.0
C668 C 0.60598 0.93933 0.08845 0.0
C669 C 0.62007 0.94057 0.12152 0.0
C670 C 0.61315 0.95111 0.04936 0.0
C671 C 0.63452 0.96441 0.04255 0.0
C672 C 0.6487 0.96537 0.07499 0.0
H673 H 0.6816 0.07028 0.86255 0.0
H674 H 0.67459 0.04757 0.92734 0.0
C675 C 0.64153 0.95341 0.11411 0.0
C676 C 0.6416 0.97843 0.00322 0.0
H677 H 0.67133 0.99136 0.90841 0.0
C678 C 0.63392 0.99216 -0.0019 0.0
C679 C 0.65511 0.97794 0.9704 0.0
C680 C 0.66314 0.96289 0.97336 0.0
C681 C 0.6393 0.0054 0.96098 0.0
C682 C 0.65317 0.00528 0.92863 0.0
C683 C 0.66085 0.99152 0.93357 0.0
C684 C 0.65937 0.01902 0.88894 0.0
C685 C 0.62967 0.01905 0.95621 0.0
C686 C 0.65389 0.01048 0.84573 0.0
C687 C 0.65803 0.02343 0.8085 0.0
C688 C 0.66768 0.04511 0.81403 0.0
C689 C 0.67388 0.05362 0.85724 0.0
C690 C 0.66987 0.04069 0.89431 0.0
H691 H 0.61553 0.01347 0.97734 0.0
H692 H 0.64108 0.0351 0.96708 0.0
H693 H 0.62539 0.0197 0.92078 0.0
H694 H 0.64584 0.99377 0.84097 0.0
H695 H 0.65317 0.01642 0.77562 0.0
H696 H 0.6024 0.62129 0.97578 0.0
H697 H 0.61947 0.61579 0.04042 0.0
H698 H 0.63942 0.67805 0.08668 0.0
H699 H 0.62195 0.68348 0.02305 0.0
H700 H 0.65995 0.63595 0.07033 0.0
H701 H 0.60832 0.64332 0.19465 0.0
H702 H 0.60293 0.64086 0.13525 0.0
H703 H 0.62167 0.66557 0.15874 0.0
C704 C 0.61049 0.63383 -0.00036 0.0
C705 C 0.61061 0.65272 0.99468 0.0
C706 C 0.62024 0.63067 0.0365 0.0
C707 C 0.6303 0.64636 0.0688 0.0
C708 C 0.63125 0.66555 0.06278 0.0
H709 H 0.69373 0.65221 0.31898 0.0
H710 H 0.68226 0.66115 0.24951 0.0
C711 C 0.62134 0.66865 0.02627 0.0
C712 C 0.63944 0.64251 0.10926 0.0
H713 H 0.63693 0.64119 0.22371 0.0
C714 C 0.65491 0.63706 0.10386 0.0
C715 C 0.63275 0.64391 0.15296 0.0
C716 C 0.61537 0.64853 0.16087 0.0
C717 C 0.66399 0.63312 0.14113 0.0
C718 C 0.65736 0.63465 0.18465 0.0
C719 C 0.64205 0.64024 0.19013 0.0
C720 C 0.66536 0.6295 0.22503 0.0
C721 C 0.68064 0.62743 0.13392 0.0
C722 C 0.65951 0.60876 0.23404 0.0
C723 C 0.66582 0.60358 0.27371 0.0
C724 C 0.67818 0.6191 0.30497 0.0
C725 C 0.68427 0.63993 0.2955 0.0
C726 C 0.67776 0.64507 0.25592 0.0
H727 H 0.68674 0.63068 0.09904 0.0
H728 H 0.69376 0.63612 0.1576 0.0
H729 H 0.67405 0.61057 0.14057 0.0
H730 H 0.6497 0.59653 0.21075 0.0
H731 H 0.66091 0.58739 0.28 0.0
H732 H 0.01359 0.61967 0.5306 0.0
H733 H 0.98938 0.60738 0.46718 0.0
H734 H 0.02739 0.66556 0.39862 0.0
H735 H 0.05182 0.67788 0.46142 0.0
H736 H 0.96661 0.62432 0.42872 0.0
H737 H 0.02195 0.62185 0.30709 0.0
H738 H 0.02657 0.62412 0.36684 0.0
H739 H 0.03159 0.64657 0.33434 0.0
C740 C 0.01681 0.62985 0.50203 0.0
C741 C 0.03471 0.64969 0.50087 0.0
C742 C 0.00295 0.62281 0.4659 0.0
C743 C 0.00681 0.63545 0.42802 0.0
C744 C 0.02438 0.65542 0.4272 0.0
H745 H 0.92356 0.62434 0.21326 0.0
H746 H 0.94506 0.63387 0.28086 0.0
C747 C 0.03826 0.66246 0.46322 0.0
C748 C 0.99246 0.62776 0.3893 0.0
H749 H 0.9903 0.61749 0.27726 0.0
C750 C 0.97171 0.62271 0.39562 0.0
C751 C -0.00085 0.62542 0.34639 0.0
C752 C 0.02098 0.62958 0.33819 0.0
C753 C 0.95755 0.6158 0.35978 0.0
C754 C 0.96448 0.61425 0.31651 0.0
C755 C 0.9851 0.61887 0.31045 0.0
C756 C 0.95067 0.60796 0.27686 0.0
C757 C 0.93528 0.61003 0.36862 0.0
C758 C 0.94701 0.59044 0.25185 0.0
C759 C 0.93489 0.58505 0.213 0.0
C760 C 0.92631 0.59717 0.19839 0.0
C761 C 0.92988 0.61464 0.22373 0.0
C762 C 0.94204 0.62003 0.26253 0.0
H763 H 0.93121 0.60663 0.40469 0.0
H764 H 0.93307 0.62324 0.35897 0.0
H765 H 0.92435 0.59625 0.34853 0.0
H766 H 0.95363 0.581 0.26228 0.0
H767 H 0.93244 0.57151 0.19422 0.0
H768 H 0.28453 0.94055 0.35993 0.0
H769 H 0.29557 0.96339 0.42577 0.0
H770 H 0.35604 0.96854 0.41981 0.0
H771 H 0.34536 0.94612 0.35385 0.0
H772 H 0.30916 0.95756 0.50822 0.0
H773 H 0.37034 0.02907 0.4262 0.0
H774 H 0.35108 0.00703 0.39475 0.0
H775 H 0.37366 0.00703 0.41678 0.0
C776 C 0.30023 0.94668 0.37246 0.0
C777 C 0.31411 0.94163 0.35152 0.0
C778 C 0.30648 0.95969 0.41006 0.0
C779 C 0.32671 0.9679 0.42713 0.0
C780 C 0.34052 0.96275 0.40651 0.0
H781 H 0.37834 0.01431 0.68746 0.0
H782 H 0.36111 0.99318 0.62129 0.0
C783 C 0.33433 0.94983 0.36894 0.0
C784 C 0.33332 0.98132 0.46743 0.0
H785 H 0.37125 0.02831 0.50646 0.0
C786 C 0.32259 0.97313 0.50782 0.0
C787 C 0.35063 0.00172 0.46659 0.0
C788 C 0.36196 0.01182 0.42364 0.0
C789 C 0.32926 0.98454 0.5479 0.0
C790 C 0.34733 0.00444 0.54752 0.0
C791 C 0.35753 0.01293 0.50677 0.0
C792 C 0.35633 0.0166 0.58905 0.0
C793 C 0.3169 0.97518 0.59019 0.0
C794 C 0.35961 0.03687 0.59255 0.0
C795 C 0.36967 0.04906 0.63001 0.0
C796 C 0.37667 0.04121 0.66466 0.0
C797 C 0.37304 0.02076 0.66146 0.0
C798 C 0.36306 0.00861 0.62382 0.0
H799 H 0.30055 0.96322 0.58252 0.0
H800 H 0.32404 0.9675 0.60929 0.0
H801 H 0.31682 0.9873 0.6119 0.0
H802 H 0.35463 0.04335 0.56596 0.0
H803 H 0.37219 0.06474 0.63149 0.0
H804 H 0.46975 0.28789 0.458 0.0
H805 H 0.47033 0.26061 0.50291 0.0
H806 H 0.40346 0.22895 0.51401 0.0
H807 H 0.40267 0.25591 0.46866 0.0
H808 H 0.45635 0.25219 0.59049 0.0
H809 H 0.41407 0.18142 0.48561 0.0
H810 H 0.42447 0.20733 0.46307 0.0
H811 H 0.40015 0.19522 0.49293 0.0
C812 C 0.45512 0.27488 0.46911 0.0
C813 C 0.43617 0.27413 0.45991 0.0
C814 C 0.4555 0.25934 0.49488 0.0
C815 C 0.43694 0.24272 0.51157 0.0
C816 C 0.41794 0.24144 0.5008 0.0
H817 H 0.40122 0.14321 0.70198 0.0
H818 H 0.40319 0.17023 0.65196 0.0
C819 C 0.41753 0.25694 0.47499 0.0
C820 C 0.43755 0.22781 0.54368 0.0
H821 H 0.41858 0.1761 0.56291 0.0
C822 C 0.44829 0.23557 0.58431 0.0
C823 C 0.42693 0.20615 0.53554 0.0
C824 C 0.41592 0.19702 0.49175 0.0
C825 C 0.44821 0.22216 0.61761 0.0
C826 C 0.4373 0.20049 0.60975 0.0
C827 C 0.4268 0.19275 0.5689 0.0
C828 C 0.43656 0.18547 0.64337 0.0
C829 C 0.45927 0.23123 0.6614 0.0
C830 C 0.45475 0.18535 0.65566 0.0
C831 C 0.4537 0.16997 0.68438 0.0
C832 C 0.43442 0.15436 0.70099 0.0
C833 C 0.41632 0.15499 0.68981 0.0
C834 C 0.41739 0.17037 0.6611 0.0
H835 H 0.46263 0.24747 0.66621 0.0
H836 H 0.44987 0.22168 0.69023 0.0
H837 H 0.47429 0.23137 0.66162 0.0
H838 H 0.46966 0.19672 0.64182 0.0
H839 H 0.46792 0.16989 0.69216 0.0
H840 H 0.28148 0.45954 0.88551 0.0
H841 H 0.2558 0.46058 0.83581 0.0
H842 H 0.22398 0.39378 0.82343 0.0
H843 H 0.2495 0.39251 0.87325 0.0
H844 H 0.24948 0.44493 0.74567 0.0
H845 H 0.17671 0.40701 0.84641 0.0
H846 H 0.20221 0.41795 0.87152 0.0
H847 H 0.19084 0.3932 0.84366 0.0
C848 C 0.26878 0.44501 0.87302 0.0
C849 C 0.2676 0.42594 0.88319 0.0
C850 C 0.25417 0.44566 0.84451 0.0
C851 C 0.23802 0.42726 0.82609 0.0
C852 C 0.23621 0.40812 0.83776 0.0
H853 H 0.13979 0.40199 0.63482 0.0
H854 H 0.1648 0.39914 0.68341 0.0
C855 C 0.25085 0.40745 0.86617 0.0
C856 C 0.22412 0.42826 0.79184 0.0
H857 H 0.17356 0.41387 0.77011 0.0
C858 C 0.23288 0.43822 0.75099 0.0
C859 C 0.2025 0.4193 0.79885 0.0
C860 C 0.19245 0.40889 0.84258 0.0
C861 C 0.22052 0.43932 0.71669 0.0
C862 C 0.19891 0.43059 0.72388 0.0
C863 C 0.19014 0.42049 0.76465 0.0
C864 C 0.18515 0.43237 0.69033 0.0
C865 C 0.23065 0.44951 0.67284 0.0
C866 C 0.18853 0.452 0.67746 0.0
C867 C 0.17434 0.4537 0.64948 0.0
C868 C 0.15639 0.43578 0.63429 0.0
C869 C 0.15346 0.41611 0.6459 0.0
C870 C 0.16769 0.41444 0.6738 0.0
H871 H 0.2456 0.44973 0.66785 0.0
H872 H 0.22026 0.44138 0.64398 0.0
H873 H 0.23404 0.46586 0.67299 0.0
H874 H 0.20169 0.46604 0.69048 0.0
H875 H 0.17703 0.46908 0.64138 0.0
H876 H 0.81534 0.27233 0.07176 0.0
H877 H 0.78856 0.24695 0.02163 0.0
H878 H 0.83092 0.22671 0.97742 0.0
H879 H 0.85764 0.25172 0.02782 0.0
H880 H 0.79246 0.24703 0.92912 0.0
H881 H 0.77776 0.17182 0.00044 0.0
H882 H 0.79098 0.19593 0.03138 0.0
H883 H 0.80476 0.18983 0.99 0.0
C884 C 0.81883 0.26218 0.05209 0.0
C885 C 0.83864 0.26407 0.05376 0.0
C886 C 0.80353 0.24775 0.02334 0.0
C887 C 0.80772 0.23487 0.99605 0.0
C888 C 0.82723 0.23623 -0.00123 0.0
H889 H 0.74189 0.14725 0.78117 0.0
H890 H 0.76877 0.17281 0.83105 0.0
C891 C 0.84252 0.25062 0.02752 0.0
C892 C 0.7923 0.22116 0.96231 0.0
H893 H 0.76405 0.17068 0.92758 0.0
C894 C 0.78612 0.23031 0.92893 0.0
C895 C 0.7842 0.19939 0.96204 0.0
C896 C 0.7896 0.18861 -0.00189 0.0
C897 C 0.77224 0.21829 0.89487 0.0
C898 C 0.76422 0.19657 0.89452 0.0
C899 C 0.7704 0.1874 0.92783 0.0
C900 C 0.74873 0.18287 0.861 0.0
C901 C 0.76649 0.22893 0.85912 0.0
C902 C 0.72871 0.18036 0.86098 0.0
C903 C 0.71334 0.16578 0.8327 0.0
C904 C 0.71772 0.15342 0.80397 0.0
C905 C 0.73805 0.15658 0.80277 0.0
C906 C 0.75339 0.1711 0.83133 0.0
H907 H 0.77763 0.24593 0.85795 0.0
H908 H 0.76595 0.22217 0.82556 0.0
H909 H 0.7508 0.22659 0.86643 0.0
H910 H 0.72475 0.18913 0.88406 0.0
H911 H 0.69784 0.16372 0.83442 0.0
H912 H 0.58577 0.84921 0.2221 0.0
H913 H 0.58602 0.81931 0.18779 0.0
H914 H 0.54176 0.8151 0.08853 0.0
H915 H 0.54113 0.84459 0.12281 0.0
H916 H 0.53283 0.77672 0.12211 0.0
H917 H 0.61539 0.82337 0.06835 0.0
H918 H 0.61111 0.82436 0.12741 0.0
H919 H 0.60067 0.83514 0.08812 0.0
C920 C 0.57593 0.84177 0.19327 0.0
C921 C 0.56357 0.84939 0.17494 0.0
C922 C 0.57621 0.8248 0.17352 0.0
C923 C 0.56423 0.8153 0.1351 0.0
C924 C 0.55124 0.82232 0.11797 0.0
H925 H 0.57905 0.73652 0.94005 0.0
H926 H 0.57681 0.7646 0.97833 0.0
C927 C 0.55092 0.83921 0.13764 0.0
C928 C 0.56543 0.7983 0.11189 0.0
H929 H 0.59849 0.78712 0.05468 0.0
C930 C 0.54718 0.77896 0.10742 0.0
C931 C 0.5841 0.80144 0.09204 0.0
C932 C 0.60391 0.82224 0.09376 0.0
C933 C 0.54715 0.76254 0.08404 0.0
C934 C 0.56595 0.76549 0.06531 0.0
C935 C 0.58414 0.7849 0.06932 0.0
C936 C 0.56712 0.74851 0.04199 0.0
C937 C 0.52692 0.74231 0.07889 0.0
C938 C 0.56265 0.73035 0.06529 0.0
C939 C 0.56385 0.71434 0.0436 0.0
C940 C 0.56973 0.71624 -0.0018 0.0
C941 C 0.57442 0.73456 0.97497 0.0
C942 C 0.57317 0.7506 0.99678 0.0
H943 H 0.51326 0.74441 0.0842 0.0
H944 H 0.52569 0.73549 0.04509 0.0
H945 H 0.52624 0.73104 0.10426 0.0
H946 H 0.55838 0.72861 0.10044 0.0
H947 H 0.56027 0.7005 0.06261 0.0
H948 H 0.74386 0.6026 0.3597 0.0
H949 H 0.76888 0.60019 0.31047 0.0
H950 H 0.74687 0.53732 0.35519 0.0
H951 H 0.72151 0.53942 0.40409 0.0
H952 H 0.80077 0.59107 0.32492 0.0
H953 H 0.73767 0.53112 0.21894 0.0
H954 H 0.73305 0.54614 0.26023 0.0
H955 H 0.7359 0.52446 0.27734 0.0
C956 C 0.7445 0.58833 0.35958 0.0
C957 C 0.73048 0.57109 0.38539 0.0
C958 C 0.7588 0.58699 0.33136 0.0
C959 C 0.75934 0.56841 0.32841 0.0
C960 C 0.74632 0.55163 0.35622 0.0
H961 H 0.82933 0.52696 0.17211 0.0
H962 H 0.80492 0.53029 0.22157 0.0
C963 C 0.73196 0.55292 0.3844 0.0
C964 C 0.77295 0.56639 0.29496 0.0
H965 H 0.77207 0.53906 0.20197 0.0
C966 C 0.79453 0.57977 0.29793 0.0
C967 C 0.76468 0.5517 0.25963 0.0
C968 C 0.74155 0.53765 0.25343 0.0
C969 C 0.80814 0.57852 0.26705 0.0
C970 C 0.79986 0.56371 0.232 0.0
C971 C 0.7783 0.55041 0.22889 0.0
C972 C 0.81346 0.56128 0.19925 0.0
C973 C 0.83127 0.59269 0.27274 0.0
C974 C 0.8258 0.57735 0.16925 0.0
C975 C 0.83973 0.57548 0.14073 0.0
C976 C 0.84152 0.55749 0.14189 0.0
C977 C 0.82841 0.54106 0.17057 0.0
C978 C 0.81446 0.54292 0.19887 0.0
H979 H 0.83525 0.60015 0.30636 0.0
H980 H 0.83967 0.58395 0.26793 0.0
H981 H 0.83695 0.60516 0.24703 0.0
H982 H 0.82495 0.5915 0.16858 0.0
H983 H 0.84959 0.5884 0.119 0.0
H984 H 0.13161 0.7452 0.53063 0.0
H985 H 0.15953 0.77216 0.48525 0.0
H986 H 0.19787 0.74484 0.51157 0.0
H987 H 0.17006 0.71777 0.55708 0.0
H988 H 0.2032 0.80104 0.50934 0.0
H989 H 0.19294 0.74637 0.3709 0.0
H990 H 0.17322 0.74046 0.41294 0.0
H991 H 0.1958 0.73858 0.42639 0.0
C992 C 0.14605 0.74501 0.52715 0.0
C993 C 0.14857 0.72926 0.54721 0.0
C994 C 0.16196 0.76042 0.50121 0.0
C995 C 0.18055 0.76023 0.49462 0.0
C996 C 0.18346 0.74502 0.51586 0.0
H997 H 0.29638 0.8544 0.37951 0.0
H998 H 0.26905 0.8275 0.4258 0.0
C999 C 0.16761 0.72966 0.54203 0.0
C1000 C 0.19673 0.77572 0.46467 0.0
H1001 H 0.22093 0.78091 0.36417 0.0
C1002 C 0.20711 0.79669 0.47761 0.0
C1003 C 0.20152 0.76992 0.42311 0.0
C1004 C 0.19022 0.74764 0.40713 0.0
C1005 C 0.2225 0.81204 0.45026 0.0
C1006 C 0.22762 0.80618 0.40917 0.0
C1007 C 0.21699 0.78526 0.39586 0.0
C1008 C 0.24415 0.82162 0.37982 0.0
C1009 C 0.23308 0.83445 0.46526 0.0
C1010 C 0.23918 0.82672 0.33806 0.0
C1011 C 0.25478 0.84214 0.31139 0.0
C1012 C 0.27558 0.85251 0.32606 0.0
C1013 C 0.28052 0.84679 0.36729 0.0
C1014 C 0.26493 0.83148 0.39391 0.0
H1015 H 0.22446 0.83689 0.49286 0.0
H1016 H 0.24895 0.83914 0.47755 0.0
H1017 H 0.23465 0.8448 0.4368 0.0
H1018 H 0.22319 0.81913 0.32662 0.0
H1019 H 0.2505 0.84616 0.27977 0.0
loop_
_geom_bond_atom_site_label_1
_geom_bond_atom_site_label_2
_geom_bond_distance
_geom_bond_site_symmetry_2
_ccdc_geom_bond_type
C0 O1 1.160 . S
C0 O7 1.185 . S
O1 C0 1.160 . S
O2 Zn3 1.899 . S
O2 C10 1.284 . S
Zn3 O2 1.899 . S
Zn3 O4 2.032 . S
Zn3 O7 2.086 . S
Zn3 O12 1.977 . S
O4 Zn3 2.032 . S
O4 C8 1.278 . S
C5 O6 1.203 . S
C5 O12 1.267 . S
O6 C5 1.203 . S
O7 C0 1.185 . S
O7 Zn3 2.086 . S
C8 O4 1.278 . S
C8 O9 1.211 . S
O9 C8 1.211 . S
C10 O2 1.284 . S
C10 O11 1.273 . S
O11 C10 1.273 . S
O12 Zn3 1.977 . S
O12 C5 1.267 . S
C13 O14 1.160 . S
C13 O20 1.185 . S
O14 C13 1.160 . S
O15 Zn16 1.899 . S
O15 C23 1.284 . S
Zn16 O15 1.899 . S
Zn16 O17 2.032 . S
Zn16 O20 2.086 . S
Zn16 O25 1.977 . S
O17 Zn16 2.032 . S
O17 C21 1.278 . S
C18 O19 1.203 . S
C18 O25 1.267 . S
O19 C18 1.203 . S
O20 C13 1.185 . S
O20 Zn16 2.086 . S
C21 O17 1.278 . S
C21 O22 1.211 . S
O22 C21 1.211 . S
C23 O15 1.284 . S
C23 O24 1.273 . S
O24 C23 1.273 . S
O25 Zn16 1.977 . S
O25 C18 1.267 . S
C26 O27 1.160 . S
C26 O33 1.185 . S
O27 C26 1.160 . S
O28 Zn29 1.899 . S
O28 C36 1.284 . S
Zn29 O28 1.899 . S
Zn29 O30 2.032 . S
Zn29 O33 2.086 . S
Zn29 O38 1.977 . S
O30 Zn29 2.032 . S
O30 C34 1.278 . S
C31 O32 1.203 . S
C31 O38 1.267 . S
O32 C31 1.203 . S
O33 C26 1.185 . S
O33 Zn29 2.086 . S
C34 O30 1.278 . S
C34 O35 1.211 . S
O35 C34 1.211 . S
C36 O28 1.284 . S
C36 O37 1.273 . S
O37 C36 1.273 . S
O38 Zn29 1.977 . S
O38 C31 1.267 . S
C39 O40 1.160 . S
C39 O46 1.185 . S
O40 C39 1.160 . S
O41 Zn42 1.899 . S
O41 C49 1.284 . S
Zn42 O41 1.899 . S
Zn42 O43 2.032 . S
Zn42 O46 2.086 . S
Zn42 O51 1.977 . S
O43 Zn42 2.032 . S
O43 C47 1.278 . S
C44 O45 1.203 . S
C44 O51 1.267 . S
O45 C44 1.203 . S
O46 C39 1.185 . S
O46 Zn42 2.086 . S
C47 O43 1.278 . S
C47 O48 1.211 . S
O48 C47 1.211 . S
C49 O41 1.284 . S
C49 O50 1.273 . S
O50 C49 1.273 . S
O51 Zn42 1.977 . S
O51 C44 1.267 . S
C52 O53 1.160 . S
C52 O59 1.185 . S
O53 C52 1.160 . S
O54 Zn55 1.899 . S
O54 C62 1.284 . S
Zn55 O54 1.899 . S
Zn55 O56 2.032 . S
Zn55 O59 2.086 . S
Zn55 O64 1.977 . S
O56 Zn55 2.032 . S
O56 C60 1.278 . S
C57 O58 1.203 . S
C57 O64 1.267 . S
O58 C57 1.203 . S
O59 C52 1.185 . S
O59 Zn55 2.086 . S
C60 O56 1.278 . S
C60 O61 1.211 . S
O61 C60 1.211 . S
C62 O54 1.284 . S
C62 O63 1.273 . S
O63 C62 1.273 . S
O64 Zn55 1.977 . S
O64 C57 1.267 . S
C65 O66 1.160 . S
C65 O72 1.185 . S
O66 C65 1.160 . S
O67 Zn68 1.899 . S
O67 C75 1.284 . S
Zn68 O67 1.899 . S
Zn68 O69 2.032 . S
Zn68 O72 2.086 . S
Zn68 O77 1.977 . S
O69 Zn68 2.032 . S
O69 C73 1.278 . S
C70 O71 1.203 . S
C70 O77 1.267 . S
O71 C70 1.203 . S
O72 C65 1.185 . S
O72 Zn68 2.086 . S
C73 O69 1.278 . S
C73 O74 1.211 . S
O74 C73 1.211 . S
C75 O67 1.284 . S
C75 O76 1.273 . S
O76 C75 1.273 . S
O77 Zn68 1.977 . S
O77 C70 1.267 . S
C78 O79 1.160 . S
C78 O85 1.185 . S
O79 C78 1.160 . S
O80 Zn81 1.899 . S
O80 C88 1.284 . S
Zn81 O80 1.899 . S
Zn81 O82 2.032 . S
Zn81 O85 2.086 . S
Zn81 O90 1.977 . S
O82 Zn81 2.032 . S
O82 C86 1.278 . S
C83 O84 1.203 . S
C83 O90 1.267 . S
O84 C83 1.203 . S
O85 C78 1.185 . S
O85 Zn81 2.086 . S
C86 O82 1.278 . S
C86 O87 1.211 . S
O87 C86 1.211 . S
C88 O80 1.284 . S
C88 O89 1.273 . S
O89 C88 1.273 . S
O90 Zn81 1.977 . S
O90 C83 1.267 . S
C91 O92 1.160 . S
C91 O98 1.185 . S
O92 C91 1.160 . S
O93 Zn94 1.899 . S
O93 C101 1.284 . S
Zn94 O93 1.899 . S
Zn94 O95 2.032 . S
Zn94 O98 2.086 . S
Zn94 O103 1.977 . S
O95 Zn94 2.032 . S
O95 C99 1.278 . S
C96 O97 1.203 . S
C96 O103 1.267 . S
O97 C96 1.203 . S
O98 C91 1.185 . S
O98 Zn94 2.086 . S
C99 O95 1.278 . S
C99 O100 1.211 . S
O100 C99 1.211 . S
C101 O93 1.284 . S
C101 O102 1.273 . S
O102 C101 1.273 . S
O103 Zn94 1.977 . S
O103 C96 1.267 . S
C104 O105 1.160 . S
C104 O111 1.185 . S
O105 C104 1.160 . S
O106 Zn107 1.899 . S
O106 C114 1.284 . S
Zn107 O106 1.899 . S
Zn107 O108 2.032 . S
Zn107 O111 2.086 . S
Zn107 O116 1.977 . S
O108 Zn107 2.032 . S
O108 C112 1.278 . S
C109 O110 1.203 . S
C109 O116 1.267 . S
O110 C109 1.203 . S
O111 C104 1.185 . S
O111 Zn107 2.086 . S
C112 O108 1.278 . S
C112 O113 1.211 . S
O113 C112 1.211 . S
C114 O106 1.284 . S
C114 O115 1.273 . S
O115 C114 1.273 . S
O116 Zn107 1.977 . S
O116 C109 1.267 . S
C117 O118 1.160 . S
C117 O124 1.185 . S
O118 C117 1.160 . S
O119 Zn120 1.899 . S
O119 C127 1.284 . S
Zn120 O119 1.899 . S
Zn120 O121 2.032 . S
Zn120 O124 2.086 . S
Zn120 O129 1.977 . S
O121 Zn120 2.032 . S
O121 C125 1.278 . S
C122 O123 1.203 . S
C122 O129 1.267 . S
O123 C122 1.203 . S
O124 C117 1.185 . S
O124 Zn120 2.086 . S
C125 O121 1.278 . S
C125 O126 1.211 . S
O126 C125 1.211 . S
C127 O119 1.284 . S
C127 O128 1.273 . S
O128 C127 1.273 . S
O129 Zn120 1.977 . S
O129 C122 1.267 . S
C130 O131 1.160 . S
C130 O137 1.185 . S
O131 C130 1.160 . S
O132 Zn133 1.899 . S
O132 C140 1.284 . S
Zn133 O132 1.899 . S
Zn133 O134 2.032 . S
Zn133 O137 2.086 . S
Zn133 O142 1.977 . S
O134 Zn133 2.032 . S
O134 C138 1.278 . S
C135 O136 1.203 . S
C135 O142 1.267 . S
O136 C135 1.203 . S
O137 C130 1.185 . S
O137 Zn133 2.086 . S
C138 O134 1.278 . S
C138 O139 1.211 . S
O139 C138 1.211 . S
C140 O132 1.284 . S
C140 O141 1.273 . S
O141 C140 1.273 . S
O142 Zn133 1.977 . S
O142 C135 1.267 . S
C143 O144 1.160 . S
C143 O150 1.185 . S
O144 C143 1.160 . S
O145 Zn146 1.899 . S
O145 C153 1.284 . S
Zn146 O145 1.899 . S
Zn146 O147 2.032 . S
Zn146 O150 2.086 . S
Zn146 O155 1.977 . S
O147 Zn146 2.032 . S
O147 C151 1.278 . S
C148 O149 1.203 . S
C148 O155 1.267 . S
O149 C148 1.203 . S
O150 C143 1.185 . S
O150 Zn146 2.086 . S
C151 O147 1.278 . S
C151 O152 1.211 . S
O152 C151 1.211 . S
C153 O145 1.284 . S
C153 O154 1.273 . S
O154 C153 1.273 . S
O155 Zn146 1.977 . S
O155 C148 1.267 . S
H156 C164 0.929 1_556 S
H157 C166 0.930 . S
H158 C168 0.930 . S
H159 C171 0.929 . S
H160 C174 0.930 . S
H161 C176 0.960 . S
H162 C176 0.960 . S
H163 C176 0.960 . S
C164 H156 0.929 1_554 S
C164 C165 1.377 . S
C164 C166 1.384 . S
C165 C164 1.377 . S
C165 C171 1.390 . S
C166 H157 0.930 . S
C166 C164 1.384 . S
C166 C167 1.372 . S
C167 C166 1.372 . S
C167 C168 1.400 . S
C167 C172 1.490 . S
C168 H158 0.930 . S
C168 C167 1.400 . S
C168 C171 1.386 . S
H169 C185 0.930 . S
H170 C186 0.931 . S
C171 H159 0.929 . S
C171 C165 1.390 . S
C171 C168 1.386 . S
C172 C167 1.490 . S
C172 C174 1.395 . S
C172 C175 1.403 . S
H173 C179 0.930 . S
C174 H160 0.930 . S
C174 C172 1.395 . S
C174 C177 1.403 . S
C175 C172 1.403 . S
C175 C176 1.524 . S
C175 C179 1.400 . S
C176 H161 0.960 . S
C176 H162 0.960 . S
C176 H163 0.960 . S
C176 C175 1.524 . S
C177 C174 1.403 . S
C177 C178 1.392 . S
C177 C181 1.495 . S
C178 C177 1.392 . S
C178 C179 1.385 . S
C178 C180 1.478 . S
C179 H173 0.930 . S
C179 C175 1.400 . S
C179 C178 1.385 . S
C180 C178 1.478 . S
C180 C182 1.381 . S
C180 C186 1.383 . S
C181 C177 1.495 . S
C181 H187 0.959 . S
C181 H188 0.961 . S
C181 H189 0.960 . S
C182 C180 1.381 . S
C182 C183 1.394 . S
C182 H190 0.930 . S
C183 C182 1.394 . S
C183 C184 1.383 . S
C183 H191 0.929 . S
C184 C183 1.383 . S
C184 C185 1.377 . S
C185 H169 0.930 . S
C185 C184 1.377 . S
C185 C186 1.379 . S
C186 H170 0.931 . S
C186 C180 1.383 . S
C186 C185 1.379 . S
H187 C181 0.959 . S
H188 C181 0.961 . S
H189 C181 0.960 . S
H190 C182 0.930 . S
H191 C183 0.929 . S
H192 C200 0.929 . S
H193 C202 0.930 . S
H194 C204 0.930 . S
H195 C207 0.929 . S
H196 C210 0.930 . S
H197 C212 0.960 . S
H198 C212 0.960 . S
H199 C212 0.960 . S
C200 H192 0.929 . S
C200 C201 1.377 . S
C200 C202 1.384 . S
C201 C200 1.377 . S
C201 C207 1.390 . S
C202 H193 0.930 . S
C202 C200 1.384 . S
C202 C203 1.372 . S
C203 C202 1.372 . S
C203 C204 1.400 . S
C203 C208 1.490 . S
C204 H194 0.930 . S
C204 C203 1.400 . S
C204 C207 1.386 . S
H205 C221 0.930 . S
H206 C222 0.931 . S
C207 H195 0.929 . S
C207 C201 1.390 . S
C207 C204 1.386 . S
C208 C203 1.490 . S
C208 C210 1.395 . S
C208 C211 1.403 1_455 S
H209 C215 0.930 . S
C210 H196 0.930 . S
C210 C208 1.395 . S
C210 C213 1.403 . S
C211 C208 1.403 1_655 S
C211 C212 1.524 . S
C211 C215 1.400 . S
C212 H197 0.960 . S
C212 H198 0.960 . S
C212 H199 0.960 . S
C212 C211 1.524 . S
C213 C210 1.403 . S
C213 C214 1.392 1_455 S
C213 C217 1.495 . S
C214 C213 1.392 1_655 S
C214 C215 1.385 . S
C214 C216 1.478 . S
C215 H209 0.930 . S
C215 C211 1.400 . S
C215 C214 1.385 . S
C216 C214 1.478 . S
C216 C218 1.381 . S
C216 C222 1.383 . S
C217 C213 1.495 . S
C217 H223 0.959 . S
C217 H224 0.961 . S
C217 H225 0.960 . S
C218 C216 1.381 . S
C218 C219 1.394 . S
C218 H226 0.930 . S
C219 C218 1.394 . S
C219 C220 1.383 . S
C219 H227 0.929 . S
C220 C219 1.383 . S
C220 C221 1.377 . S
C221 H205 0.930 . S
C221 C220 1.377 . S
C221 C222 1.379 . S
C222 H206 0.931 . S
C222 C216 1.383 . S
C222 C221 1.379 . S
H223 C217 0.959 . S
H224 C217 0.961 . S
H225 C217 0.960 . S
H226 C218 0.930 . S
H227 C219 0.929 . S
H228 C236 0.929 . S
H229 C238 0.930 . S
H230 C240 0.930 . S
H231 C243 0.929 . S
H232 C246 0.930 . S
H233 C248 0.960 . S
H234 C248 0.960 . S
H235 C248 0.919 1_565 S
C236 H228 0.929 . S
C236 C237 1.377 . S
C236 C238 1.384 . S
C237 C236 1.377 . S
C237 C243 1.390 . S
C238 H229 0.930 . S
C238 C236 1.384 . S
C238 C239 1.372 . S
C239 C238 1.372 . S
C239 C240 1.400 . S
C239 C244 1.490 . S
C240 H230 0.930 . S
C240 C239 1.400 . S
C240 C243 1.386 . S
H241 C257 0.930 . S
H242 C258 0.931 . S
C243 H231 0.929 . S
C243 C237 1.390 . S
C243 C240 1.386 . S
C244 C239 1.490 . S
C244 C246 1.395 . S
C244 C247 1.403 1_565 S
H245 C251 0.930 . S
C246 H232 0.930 . S
C246 C244 1.395 . S
C246 C249 1.403 . S
C247 C244 1.403 1_545 S
C247 C248 1.524 . S
C247 C251 1.400 . S
C248 H233 0.960 . S
C248 H234 0.960 . S
C248 H235 0.919 1_545 S
C248 C247 1.524 . S
C249 C246 1.403 . S
C249 C250 1.392 1_565 S
C249 C253 1.495 . S
C250 C249 1.392 1_545 S
C250 C251 1.385 . S
C250 C252 1.478 . S
C251 H245 0.930 . S
C251 C247 1.400 . S
C251 C250 1.385 . S
C252 C250 1.478 . S
C252 C254 1.381 . S
C252 C258 1.383 . S
C253 C249 1.495 . S
C253 H259 0.959 . S
C253 H260 0.961 . S
C253 H261 0.938 1_565 S
C254 C252 1.381 . S
C254 C255 1.394 . S
C254 H262 0.930 . S
C255 C254 1.394 . S
C255 C256 1.383 . S
C255 H263 0.929 . S
C256 C255 1.383 . S
C256 C257 1.377 . S
C257 H241 0.930 . S
C257 C256 1.377 . S
C257 C258 1.379 . S
C258 H242 0.931 . S
C258 C252 1.383 . S
C258 C257 1.379 . S
H259 C253 0.959 . S
H260 C253 0.961 . S
H261 C253 0.938 1_545 S
H262 C254 0.930 . S
H263 C255 0.929 . S
H264 C272 0.929 . S
H265 C274 0.930 . S
H266 C276 0.930 . S
H267 C279 0.929 . S
H268 C282 0.930 . S
H269 C284 0.960 . S
H270 C284 0.960 . S
H271 C284 0.960 . S
C272 H264 0.929 . S
C272 C273 1.377 . S
C272 C274 1.384 . S
C273 C272 1.377 . S
C273 C279 1.390 . S
C274 H265 0.930 . S
C274 C272 1.384 . S
C274 C275 1.372 . S
C275 C274 1.372 . S
C275 C276 1.400 . S
C275 C280 1.490 . S
C276 H266 0.930 . S
C276 C275 1.400 . S
C276 C279 1.386 . S
H277 C293 0.930 . S
H278 C294 0.931 . S
C279 H267 0.929 . S
C279 C273 1.390 . S
C279 C276 1.386 . S
C280 C275 1.490 . S
C280 C282 1.395 . S
C280 C283 1.403 . S
H281 C287 0.930 . S
C282 H268 0.930 . S
C282 C280 1.395 . S
C282 C285 1.403 . S
C283 C280 1.403 . S
C283 C284 1.524 . S
C283 C287 1.400 . S
C284 H269 0.960 . S
C284 H270 0.960 . S
C284 H271 0.960 . S
C284 C283 1.524 . S
C285 C282 1.403 . S
C285 C286 1.392 . S
C285 C289 1.495 . S
C286 C285 1.392 . S
C286 C287 1.385 . S
C286 C288 1.478 . S
C287 H281 0.930 . S
C287 C283 1.400 . S
C287 C286 1.385 . S
C288 C286 1.478 . S
C288 C290 1.381 . S
C288 C294 1.383 . S
C289 C285 1.495 . S
C289 H295 0.959 . S
C289 H296 0.961 . S
C289 H297 0.960 . S
C290 C288 1.381 . S
C290 C291 1.394 . S
C290 H298 0.930 . S
C291 C290 1.394 . S
C291 C292 1.383 . S
C291 H299 0.929 . S
C292 C291 1.383 . S
C292 C293 1.377 . S
C293 H277 0.930 . S
C293 C292 1.377 . S
C293 C294 1.379 . S
C294 H278 0.931 . S
C294 C288 1.383 . S
C294 C293 1.379 . S
H295 C289 0.959 . S
H296 C289 0.961 . S
H297 C289 0.960 . S
H298 C290 0.930 . S
H299 C291 0.929 . S
H300 C308 0.929 . S
H301 C310 0.930 . S
H302 C312 0.930 . S
H303 C315 0.929 . S
H304 C318 0.930 . S
H305 C320 0.960 . S
H306 C320 0.960 1_455 S
H307 C320 0.960 . S
C308 H300 0.929 . S
C308 C309 1.377 . S
C308 C310 1.384 . S
C309 C308 1.377 . S
C309 C315 1.390 . S
C310 H301 0.930 . S
C310 C308 1.384 . S
C310 C311 1.372 . S
C311 C310 1.372 . S
C311 C312 1.400 . S
C311 C316 1.490 . S
C312 H302 0.930 . S
C312 C311 1.400 . S
C312 C315 1.386 . S
H313 C329 0.930 . S
H314 C330 0.931 . S
C315 H303 0.929 . S
C315 C309 1.390 . S
C315 C312 1.386 . S
C316 C311 1.490 . S
C316 C318 1.395 . S
C316 C319 1.394 1_455 S
H317 C323 0.930 . S
C318 H304 0.930 . S
C318 C316 1.395 . S
C318 C321 1.403 . S
C319 C316 1.394 1_655 S
C319 C320 1.514 . S
C319 C323 1.419 . S
C320 H305 0.960 . S
C320 H306 0.960 1_655 S
C320 H307 0.960 . S
C320 C319 1.514 . S
C321 C318 1.403 . S
C321 C322 1.392 1_455 S
C321 C325 1.495 . S
C322 C321 1.392 1_655 S
C322 C323 1.385 . S
C322 C324 1.478 . S
C323 H317 0.930 . S
C323 C319 1.419 . S
C323 C322 1.385 . S
C324 C322 1.478 . S
C324 C326 1.381 . S
C324 C330 1.383 . S
C325 C321 1.495 . S
C325 H331 0.959 . S
C325 H332 0.961 1_455 S
C325 H333 0.960 . S
C326 C324 1.381 . S
C326 C327 1.394 . S
C326 H334 0.930 . S
C327 C326 1.394 . S
C327 C328 1.383 . S
C327 H335 0.929 1_556 S
C328 C327 1.383 . S
C328 C329 1.377 . S
C329 H313 0.930 . S
C329 C328 1.377 . S
C329 C330 1.379 . S
C330 H314 0.931 . S
C330 C324 1.383 . S
C330 C329 1.379 . S
H331 C325 0.959 . S
H332 C325 0.961 1_655 S
H333 C325 0.960 . S
H334 C326 0.930 . S
H335 C327 0.929 1_554 S
H336 C344 0.929 . S
H337 C346 0.930 . S
H338 C348 0.930 . S
H339 C351 0.929 . S
H340 C354 0.942 . S
H341 C356 0.960 1_554 S
H342 C356 0.959 1_554 S
H343 C356 0.960 . S
C344 H336 0.929 . S
C344 C345 1.377 . S
C344 C346 1.384 . S
C345 C344 1.377 . S
C345 C351 1.390 . S
C346 H337 0.930 . S
C346 C344 1.384 . S
C346 C347 1.372 . S
C347 C346 1.372 . S
C347 C348 1.400 . S
C347 C352 1.490 . S
C348 H338 0.930 . S
C348 C347 1.400 . S
C348 C351 1.386 . S
H349 C365 0.930 . S
H350 C366 0.931 . S
C351 H339 0.929 . S
C351 C345 1.390 . S
C351 C348 1.386 . S
C352 C347 1.490 . S
C352 C354 1.399 . S
C352 C355 1.403 . S
H353 C359 0.930 . S
C354 H340 0.942 . S
C354 C352 1.399 . S
C354 C357 1.388 1_546 S
C355 C352 1.403 . S
C355 C356 1.524 . S
C355 C359 1.400 1_546 S
C356 H341 0.960 1_556 S
C356 H342 0.959 1_556 S
C356 H343 0.960 . S
C356 C355 1.524 . S
C357 C354 1.388 1_564 S
C357 C358 1.392 . S
C357 C361 1.495 . S
C358 C357 1.392 . S
C358 C359 1.385 . S
C358 C360 1.478 . S
C359 H353 0.930 . S
C359 C355 1.400 1_564 S
C359 C358 1.385 . S
C360 C358 1.478 . S
C360 C362 1.381 . S
C360 C366 1.383 . S
C361 C357 1.495 . S
C361 H367 0.959 1_554 S
C361 H368 0.961 . S
C361 H369 0.960 . S
C362 C360 1.381 . S
C362 C363 1.394 . S
C362 H370 0.930 . S
C363 C362 1.394 . S
C363 C364 1.383 . S
C363 H371 0.929 . S
C364 C363 1.383 . S
C364 C365 1.377 . S
C365 H349 0.930 . S
C365 C364 1.377 . S
C365 C366 1.379 . S
C366 H350 0.931 . S
C366 C360 1.383 . S
C366 C365 1.379 . S
H367 C361 0.959 1_556 S
H368 C361 0.961 . S
H369 C361 0.960 . S
H370 C362 0.930 . S
H371 C363 0.929 . S
H372 C380 0.929 . S
H373 C382 0.930 . S
H374 C384 0.930 . S
H375 C387 0.929 . S
H376 C390 0.930 . S
H377 C392 0.960 . S
H378 C392 0.960 . S
H379 C392 0.960 . S
C380 H372 0.929 . S
C380 C381 1.377 . S
C380 C382 1.384 . S
C381 C380 1.377 . S
C381 C387 1.390 . S
C382 H373 0.930 . S
C382 C380 1.384 . S
C382 C383 1.372 . S
C383 C382 1.372 . S
C383 C384 1.400 . S
C383 C388 1.490 . S
C384 H374 0.930 . S
C384 C383 1.400 . S
C384 C387 1.386 . S
H385 C401 0.930 . S
H386 C402 0.931 . S
C387 H375 0.929 . S
C387 C381 1.390 . S
C387 C384 1.386 . S
C388 C383 1.490 . S
C388 C390 1.395 . S
C388 C391 1.403 . S
H389 C395 0.930 . S
C390 H376 0.930 . S
C390 C388 1.395 . S
C390 C393 1.403 . S
C391 C388 1.403 . S
C391 C392 1.524 . S
C391 C395 1.400 . S
C392 H377 0.960 . S
C392 H378 0.960 . S
C392 H379 0.960 . S
C392 C391 1.524 . S
C393 C390 1.403 . S
C393 C394 1.392 . S
C393 C397 1.495 . S
C394 C393 1.392 . S
C394 C395 1.385 . S
C394 C396 1.478 . S
C395 H389 0.930 . S
C395 C391 1.400 . S
C395 C394 1.385 . S
C396 C394 1.478 . S
C396 C398 1.381 . S
C396 C402 1.383 . S
C397 C393 1.495 . S
C397 H403 0.959 . S
C397 H404 0.961 . S
C397 H405 0.960 . S
C398 C396 1.381 . S
C398 C399 1.394 . S
C398 H406 0.930 . S
C399 C398 1.394 . S
C399 C400 1.383 . S
C399 H407 0.929 . S
C400 C399 1.383 . S
C400 C401 1.377 . S
C401 H385 0.930 . S
C401 C400 1.377 . S
C401 C402 1.379 . S
C402 H386 0.931 . S
C402 C396 1.383 . S
C402 C401 1.379 . S
H403 C397 0.959 . S
H404 C397 0.961 . S
H405 C397 0.960 . S
H406 C398 0.930 . S
H407 C399 0.929 . S
H408 C416 0.929 . S
H409 C418 0.930 . S
H410 C420 0.930 . S
H411 C423 0.929 . S
H412 C426 0.930 . S
H413 C428 0.960 . S
H414 C428 0.960 . S
H415 C428 0.960 . S
C416 H408 0.929 . S
C416 C417 1.377 . S
C416 C418 1.384 . S
C417 C416 1.377 . S
C417 C423 1.390 . S
C418 H409 0.930 . S
C418 C416 1.384 . S
C418 C419 1.372 . S
C419 C418 1.372 . S
C419 C420 1.400 . S
C419 C424 1.490 . S
C420 H410 0.930 . S
C420 C419 1.400 . S
C420 C423 1.386 . S
H421 C437 0.930 . S
H422 C438 0.931 . S
C423 H411 0.929 . S
C423 C417 1.390 . S
C423 C420 1.386 . S
C424 C419 1.490 . S
C424 C426 1.395 . S
C424 C427 1.403 . S
H425 C431 0.930 . S
C426 H412 0.930 . S
C426 C424 1.395 . S
C426 C429 1.403 . S
C427 C424 1.403 . S
C427 C428 1.524 . S
C427 C431 1.400 . S
C428 H413 0.960 . S
C428 H414 0.960 . S
C428 H415 0.960 . S
C428 C427 1.524 . S
C429 C426 1.403 . S
C429 C430 1.392 . S
C429 C433 1.495 . S
C430 C429 1.392 . S
C430 C431 1.385 . S
C430 C432 1.478 . S
C431 H425 0.930 . S
C431 C427 1.400 . S
C431 C430 1.385 . S
C432 C430 1.478 . S
C432 C434 1.381 . S
C432 C438 1.383 . S
C433 C429 1.495 . S
C433 H439 0.959 . S
C433 H440 0.961 . S
C433 H441 0.960 . S
C434 C432 1.381 . S
C434 C435 1.394 . S
C434 H442 0.930 . S
C435 C434 1.394 . S
C435 C436 1.383 . S
C435 H443 0.929 . S
C436 C435 1.383 . S
C436 C437 1.377 . S
C437 H421 0.930 . S
C437 C436 1.377 . S
C437 C438 1.379 . S
C438 H422 0.931 . S
C438 C432 1.383 . S
C438 C437 1.379 . S
H439 C433 0.959 . S
H440 C433 0.961 . S
H441 C433 0.960 . S
H442 C434 0.930 . S
H443 C435 0.929 . S
H444 C452 0.929 . S
H445 C454 0.930 . S
H446 C456 0.930 . S
H447 C459 0.929 . S
H448 C462 0.930 . S
H449 C464 0.960 . S
H450 C464 0.960 . S
H451 C464 0.960 . S
C452 H444 0.929 . S
C452 C453 1.377 . S
C452 C454 1.384 . S
C453 C452 1.377 . S
C453 C459 1.390 . S
C454 H445 0.930 . S
C454 C452 1.384 . S
C454 C455 1.372 . S
C455 C454 1.372 . S
C455 C456 1.400 . S
C455 C460 1.490 . S
C456 H446 0.930 . S
C456 C455 1.400 . S
C456 C459 1.386 . S
H457 C473 0.930 . S
H458 C474 0.931 . S
C459 H447 0.929 . S
C459 C453 1.390 . S
C459 C456 1.386 . S
C460 C455 1.490 . S
C460 C462 1.395 . S
C460 C463 1.403 . S
H461 C467 0.930 . S
C462 H448 0.930 . S
C462 C460 1.395 . S
C462 C465 1.403 . S
C463 C460 1.403 . S
C463 C464 1.524 . S
C463 C467 1.400 . S
C464 H449 0.960 . S
C464 H450 0.960 . S
C464 H451 0.960 . S
C464 C463 1.524 . S
C465 C462 1.403 . S
C465 C466 1.392 . S
C465 C469 1.495 . S
C466 C465 1.392 . S
C466 C467 1.385 . S
C466 C468 1.478 . S
C467 H461 0.930 . S
C467 C463 1.400 . S
C467 C466 1.385 . S
C468 C466 1.478 . S
C468 C470 1.381 . S
C468 C474 1.383 . S
C469 C465 1.495 . S
C469 H475 0.959 . S
C469 H476 0.961 . S
C469 H477 0.960 . S
C470 C468 1.381 . S
C470 C471 1.394 . S
C470 H478 0.930 . S
C471 C470 1.394 . S
C471 C472 1.383 . S
C471 H479 0.929 . S
C472 C471 1.383 . S
C472 C473 1.377 . S
C473 H457 0.930 . S
C473 C472 1.377 . S
C473 C474 1.379 . S
C474 H458 0.931 . S
C474 C468 1.383 . S
C474 C473 1.379 . S
H475 C469 0.959 . S
H476 C469 0.961 . S
H477 C469 0.960 . S
H478 C470 0.930 . S
H479 C471 0.929 . S
H480 C488 0.929 . S
H481 C490 0.930 . S
H482 C492 0.930 . S
H483 C495 0.929 . S
H484 C498 0.930 . S
H485 C500 0.960 . S
H486 C500 0.960 . S
H487 C500 0.960 . S
C488 H480 0.929 . S
C488 C489 1.377 . S
C488 C490 1.384 . S
C489 C488 1.377 . S
C489 C495 1.390 . S
C490 H481 0.930 . S
C490 C488 1.384 . S
C490 C491 1.372 . S
C491 C490 1.372 . S
C491 C492 1.400 . S
C491 C496 1.490 . S
C492 H482 0.930 . S
C492 C491 1.400 . S
C492 C495 1.386 . S
H493 C509 0.930 . S
H494 C510 0.931 . S
C495 H483 0.929 . S
C495 C489 1.390 . S
C495 C492 1.386 . S
C496 C491 1.490 . S
C496 C498 1.395 . S
C496 C499 1.403 . S
H497 C503 0.930 . S
C498 H484 0.930 . S
C498 C496 1.395 . S
C498 C501 1.403 . S
C499 C496 1.403 . S
C499 C500 1.524 . S
C499 C503 1.400 . S
C500 H485 0.960 . S
C500 H486 0.960 . S
C500 H487 0.960 . S
C500 C499 1.524 . S
C501 C498 1.403 . S
C501 C502 1.392 . S
C501 C505 1.495 . S
C502 C501 1.392 . S
C502 C503 1.385 . S
C502 C504 1.478 . S
C503 H497 0.930 . S
C503 C499 1.400 . S
C503 C502 1.385 . S
C504 C502 1.478 . S
C504 C506 1.381 . S
C504 C510 1.383 . S
C505 C501 1.495 . S
C505 H511 0.959 . S
C505 H512 0.961 . S
C505 H513 0.960 . S
C506 C504 1.381 . S
C506 C507 1.394 . S
C506 H514 0.930 . S
C507 C506 1.394 . S
C507 C508 1.383 . S
C507 H515 0.929 . S
C508 C507 1.383 . S
C508 C509 1.377 . S
C509 H493 0.930 . S
C509 C508 1.377 . S
C509 C510 1.379 . S
C510 H494 0.931 . S
C510 C504 1.383 . S
C510 C509 1.379 . S
H511 C505 0.959 . S
H512 C505 0.961 . S
H513 C505 0.960 . S
H514 C506 0.930 . S
H515 C507 0.929 . S
H516 C524 0.929 . S
H517 C526 0.930 . S
H518 C528 0.930 . S
H519 C531 0.929 . S
H520 C534 0.930 . S
H521 C536 0.960 . S
H522 C536 0.960 . S
H523 C536 0.960 . S
C524 H516 0.929 . S
C524 C525 1.377 . S
C524 C526 1.384 . S
C525 C524 1.377 . S
C525 C531 1.390 . S
C526 H517 0.930 . S
C526 C524 1.384 . S
C526 C527 1.372 . S
C527 C526 1.372 . S
C527 C528 1.400 . S
C527 C532 1.490 . S
C528 H518 0.930 . S
C528 C527 1.400 . S
C528 C531 1.386 . S
H529 C545 0.930 . S
H530 C546 0.931 . S
C531 H519 0.929 . S
C531 C525 1.390 . S
C531 C528 1.386 . S
C532 C527 1.490 . S
C532 C534 1.395 . S
C532 C535 1.403 . S
H533 C539 0.930 . S
C534 H520 0.930 . S
C534 C532 1.395 . S
C534 C537 1.403 . S
C535 C532 1.403 . S
C535 C536 1.524 . S
C535 C539 1.400 . S
C536 H521 0.960 . S
C536 H522 0.960 . S
C536 H523 0.960 . S
C536 C535 1.524 . S
C537 C534 1.403 . S
C537 C538 1.392 . S
C537 C541 1.495 . S
C538 C537 1.392 . S
C538 C539 1.385 . S
C538 C540 1.478 . S
C539 H533 0.930 . S
C539 C535 1.400 . S
C539 C538 1.385 . S
C540 C538 1.478 . S
C540 C542 1.381 . S
C540 C546 1.383 . S
C541 C537 1.495 . S
C541 H547 0.959 . S
C541 H548 0.961 . S
C541 H549 0.960 . S
C542 C540 1.381 . S
C542 C543 1.394 . S
C542 H550 0.930 . S
C543 C542 1.394 . S
C543 C544 1.383 . S
C543 H551 0.929 . S
C544 C543 1.383 . S
C544 C545 1.377 . S
C545 H529 0.930 . S
C545 C544 1.377 . S
C545 C546 1.379 . S
C546 H530 0.931 . S
C546 C540 1.383 . S
C546 C545 1.379 . S
H547 C541 0.959 . S
H548 C541 0.961 . S
H549 C541 0.960 . S
H550 C542 0.930 . S
H551 C543 0.929 . S
H552 C560 0.929 . S
H553 C562 0.930 . S
H554 C564 0.930 . S
H555 C567 0.929 . S
H556 C570 0.930 . S
H557 C572 0.960 . S
H558 C572 0.960 . S
H559 C572 0.960 . S
C560 H552 0.929 . S
C560 C561 1.377 . S
C560 C562 1.384 . S
C561 C560 1.377 . S
C561 C567 1.390 . S
C562 H553 0.930 . S
C562 C560 1.384 . S
C562 C563 1.372 . S
C563 C562 1.372 . S
C563 C564 1.400 . S
C563 C568 1.490 . S
C564 H554 0.930 . S
C564 C563 1.400 . S
C564 C567 1.386 . S
H565 C581 0.930 . S
H566 C582 0.931 . S
C567 H555 0.929 . S
C567 C561 1.390 . S
C567 C564 1.386 . S
C568 C563 1.490 . S
C568 C570 1.395 . S
C568 C571 1.403 . S
H569 C575 0.930 . S
C570 H556 0.930 . S
C570 C568 1.395 . S
C570 C573 1.403 . S
C571 C568 1.403 . S
C571 C572 1.524 . S
C571 C575 1.400 . S
C572 H557 0.960 . S
C572 H558 0.960 . S
C572 H559 0.960 . S
C572 C571 1.524 . S
C573 C570 1.403 . S
C573 C574 1.392 . S
C573 C577 1.495 . S
C574 C573 1.392 . S
C574 C575 1.385 . S
C574 C576 1.478 . S
C575 H569 0.930 . S
C575 C571 1.400 . S
C575 C574 1.385 . S
C576 C574 1.478 . S
C576 C578 1.381 . S
C576 C582 1.383 . S
C577 C573 1.495 . S
C577 H583 0.959 . S
C577 H584 0.961 . S
C577 H585 0.960 . S
C578 C576 1.381 . S
C578 C579 1.394 . S
C578 H586 0.930 . S
C579 C578 1.394 . S
C579 C580 1.383 . S
C579 H587 0.929 . S
C580 C579 1.383 . S
C580 C581 1.377 . S
C581 H565 0.930 . S
C581 C580 1.377 . S
C581 C582 1.379 . S
C582 H566 0.931 . S
C582 C576 1.383 . S
C582 C581 1.379 . S
H583 C577 0.959 . S
H584 C577 0.961 . S
H585 C577 0.960 . S
H586 C578 0.930 . S
H587 C579 0.929 . S
H588 C596 0.929 . S
H589 C598 0.930 . S
H590 C600 0.930 . S
H591 C603 0.929 . S
H592 C606 0.930 . S
H593 C608 0.960 . S
H594 C608 0.960 . S
H595 C608 0.960 . S
C596 H588 0.929 . S
C596 C597 1.377 . S
C596 C598 1.384 . S
C597 C596 1.377 . S
C597 C603 1.390 . S
C598 H589 0.930 . S
C598 C596 1.384 . S
C598 C599 1.372 . S
C599 C598 1.372 . S
C599 C600 1.400 . S
C599 C604 1.490 . S
C600 H590 0.930 . S
C600 C599 1.400 . S
C600 C603 1.386 . S
H601 C617 0.930 . S
H602 C618 0.931 . S
C603 H591 0.929 . S
C603 C597 1.390 . S
C603 C600 1.386 . S
C604 C599 1.490 . S
C604 C606 1.395 . S
C604 C607 1.403 . S
H605 C611 0.930 . S
C606 H592 0.930 . S
C606 C604 1.395 . S
C606 C609 1.403 . S
C607 C604 1.403 . S
C607 C608 1.524 . S
C607 C611 1.400 . S
C608 H593 0.960 . S
C608 H594 0.960 . S
C608 H595 0.960 . S
C608 C607 1.524 . S
C609 C606 1.403 . S
C609 C610 1.392 . S
C609 C613 1.495 . S
C610 C609 1.392 . S
C610 C611 1.385 . S
C610 C612 1.478 . S
C611 H605 0.930 . S
C611 C607 1.400 . S
C611 C610 1.385 . S
C612 C610 1.478 . S
C612 C614 1.381 . S
C612 C618 1.383 . S
C613 C609 1.495 . S
C613 H619 0.959 . S
C613 H620 0.961 . S
C613 H621 0.960 . S
C614 C612 1.381 . S
C614 C615 1.394 . S
C614 H622 0.930 . S
C615 C614 1.394 . S
C615 C616 1.383 . S
C615 H623 0.929 . S
C616 C615 1.383 . S
C616 C617 1.377 . S
C617 H601 0.930 . S
C617 C616 1.377 . S
C617 C618 1.379 . S
C618 H602 0.931 . S
C618 C612 1.383 . S
C618 C617 1.379 . S
H619 C613 0.959 . S
H620 C613 0.961 . S
H621 C613 0.960 . S
H622 C614 0.930 . S
H623 C615 0.929 . S
H624 C632 0.929 . S
H625 C634 0.930 . S
H626 C636 0.930 . S
H627 C639 0.929 . S
H628 C642 0.930 . S
H629 C644 0.960 . S
H630 C644 0.960 . S
H631 C644 0.960 . S
C632 H624 0.929 . S
C632 C633 1.377 . S
C632 C634 1.384 . S
C633 C632 1.377 . S
C633 C639 1.390 . S
C634 H625 0.930 . S
C634 C632 1.384 . S
C634 C635 1.372 . S
C635 C634 1.372 . S
C635 C636 1.400 . S
C635 C640 1.490 . S
C636 H626 0.930 . S
C636 C635 1.400 . S
C636 C639 1.386 . S
H637 C653 0.930 . S
H638 C654 0.931 . S
C639 H627 0.929 . S
C639 C633 1.390 . S
C639 C636 1.386 . S
C640 C635 1.490 . S
C640 C642 1.395 1_655 S
C640 C643 1.403 . S
H641 C647 0.930 . S
C642 H628 0.930 . S
C642 C640 1.395 1_455 S
C642 C645 1.403 . S
C643 C640 1.403 . S
C643 C644 1.524 . S
C643 C647 1.400 . S
C644 H629 0.960 . S
C644 H630 0.960 . S
C644 H631 0.960 . S
C644 C643 1.524 . S
C645 C642 1.403 . S
C645 C646 1.392 . S
C645 C649 1.495 . S
C646 C645 1.392 . S
C646 C647 1.385 1_455 S
C646 C648 1.478 . S
C647 H641 0.930 . S
C647 C643 1.400 . S
C647 C646 1.385 1_655 S
C648 C646 1.478 . S
C648 C650 1.381 . S
C648 C654 1.383 . S
C649 C645 1.495 . S
C649 H655 0.959 . S
C649 H656 0.961 . S
C649 H657 0.960 . S
C650 C648 1.381 . S
C650 C651 1.394 . S
C650 H658 0.930 . S
C651 C650 1.394 . S
C651 C652 1.383 . S
C651 H659 0.929 . S
C652 C651 1.383 . S
C652 C653 1.377 . S
C653 H637 0.930 . S
C653 C652 1.377 . S
C653 C654 1.379 . S
C654 H638 0.931 . S
C654 C648 1.383 . S
C654 C653 1.379 . S
H655 C649 0.959 . S
H656 C649 0.961 . S
H657 C649 0.960 . S
H658 C650 0.930 . S
H659 C651 0.929 . S
H660 C668 0.929 . S
H661 C670 0.930 . S
H662 C672 0.930 . S
H663 C675 0.929 . S
H664 C678 0.930 . S
H665 C680 0.960 . S
H666 C680 0.960 . S
H667 C680 0.960 1_554 S
C668 H660 0.929 . S
C668 C669 1.377 . S
C668 C670 1.384 . S
C669 C668 1.377 . S
C669 C675 1.390 . S
C670 H661 0.930 . S
C670 C668 1.384 . S
C670 C671 1.372 . S
C671 C670 1.372 . S
C671 C672 1.400 . S
C671 C676 1.490 . S
C672 H662 0.930 . S
C672 C671 1.400 . S
C672 C675 1.386 . S
H673 C689 0.930 . S
H674 C690 0.931 . S
C675 H663 0.929 . S
C675 C669 1.390 . S
C675 C672 1.386 . S
C676 C671 1.490 . S
C676 C678 1.395 1_565 S
C676 C679 1.414 . S
H677 C683 0.918 . S
C678 H664 0.930 . S
C678 C676 1.395 1_545 S
C678 C681 1.411 . S
C679 C676 1.414 . S
C679 C680 1.523 1_554 S
C679 C683 1.386 1_554 S
C680 H665 0.960 . S
C680 H666 0.960 . S
C680 H667 0.960 1_556 S
C680 C679 1.523 1_556 S
C681 C678 1.411 . S
C681 C682 1.385 1_554 S
C681 C685 1.496 . S
C682 C681 1.385 1_556 S
C682 C683 1.389 1_545 S
C682 C684 1.478 . S
C683 H677 0.918 . S
C683 C679 1.386 1_556 S
C683 C682 1.389 1_565 S
C684 C682 1.478 . S
C684 C686 1.381 . S
C684 C690 1.383 . S
C685 C681 1.496 . S
C685 H691 0.959 . S
C685 H692 0.961 . S
C685 H693 0.960 1_554 S
C686 C684 1.381 . S
C686 C687 1.394 . S
C686 H694 0.930 . S
C687 C686 1.394 . S
C687 C688 1.383 . S
C687 H695 0.929 . S
C688 C687 1.383 . S
C688 C689 1.377 . S
C689 H673 0.930 . S
C689 C688 1.377 . S
C689 C690 1.379 . S
C690 H674 0.931 . S
C690 C684 1.383 . S
C690 C689 1.379 . S
H691 C685 0.959 . S
H692 C685 0.961 . S
H693 C685 0.960 1_556 S
H694 C686 0.930 . S
H695 C687 0.929 . S
H696 C704 0.929 1_556 S
H697 C706 0.930 . S
H698 C708 0.930 . S
H699 C711 0.929 . S
H700 C714 0.930 . S
H701 C716 0.960 . S
H702 C716 0.960 . S
H703 C716 0.960 . S
C704 H696 0.929 1_554 S
C704 C705 1.377 . S
C704 C706 1.384 . S
C705 C704 1.377 . S
C705 C711 1.390 . S
C706 H697 0.930 . S
C706 C704 1.384 . S
C706 C707 1.372 . S
C707 C706 1.372 . S
C707 C708 1.400 . S
C707 C712 1.490 . S
C708 H698 0.930 . S
C708 C707 1.400 . S
C708 C711 1.386 . S
H709 C725 0.930 . S
H710 C726 0.931 . S
C711 H699 0.929 . S
C711 C705 1.390 . S
C711 C708 1.386 . S
C712 C707 1.490 . S
C712 C714 1.395 . S
C712 C715 1.403 . S
H713 C719 0.930 . S
C714 H700 0.930 . S
C714 C712 1.395 . S
C714 C717 1.403 . S
C715 C712 1.403 . S
C715 C716 1.524 . S
C715 C719 1.400 . S
C716 H701 0.960 . S
C716 H702 0.960 . S
C716 H703 0.960 . S
C716 C715 1.524 . S
C717 C714 1.403 . S
C717 C718 1.392 . S
C717 C721 1.495 . S
C718 C717 1.392 . S
C718 C719 1.385 . S
C718 C720 1.478 . S
C719 H713 0.930 . S
C719 C715 1.400 . S
C719 C718 1.385 . S
C720 C718 1.478 . S
C720 C722 1.381 . S
C720 C726 1.383 . S
C721 C717 1.495 . S
C721 H727 0.959 . S
C721 H728 0.961 . S
C721 H729 0.960 . S
C722 C720 1.381 . S
C722 C723 1.394 . S
C722 H730 0.930 . S
C723 C722 1.394 . S
C723 C724 1.383 . S
C723 H731 0.929 . S
C724 C723 1.383 . S
C724 C725 1.377 . S
C725 H709 0.930 . S
C725 C724 1.377 . S
C725 C726 1.379 . S
C726 H710 0.931 . S
C726 C720 1.383 . S
C726 C725 1.379 . S
H727 C721 0.959 . S
H728 C721 0.961 . S
H729 C721 0.960 . S
H730 C722 0.930 . S
H731 C723 0.929 . S
H732 C740 0.929 . S
H733 C742 0.930 . S
H734 C744 0.930 . S
H735 C747 0.929 . S
H736 C750 0.930 . S
H737 C752 0.960 . S
H738 C752 0.960 . S
H739 C752 0.960 . S
C740 H732 0.929 . S
C740 C741 1.377 . S
C740 C742 1.384 . S
C741 C740 1.377 . S
C741 C747 1.390 . S
C742 H733 0.930 . S
C742 C740 1.384 . S
C742 C743 1.372 . S
C743 C742 1.372 . S
C743 C744 1.400 . S
C743 C748 1.490 . S
C744 H734 0.930 . S
C744 C743 1.400 . S
C744 C747 1.386 . S
H745 C761 0.930 . S
H746 C762 0.931 . S
C747 H735 0.929 . S
C747 C741 1.390 . S
C747 C744 1.386 . S
C748 C743 1.490 . S
C748 C750 1.395 1_455 S
C748 C751 1.403 . S
H749 C755 0.930 . S
C750 H736 0.930 . S
C750 C748 1.395 1_655 S
C750 C753 1.403 . S
C751 C748 1.403 . S
C751 C752 1.524 . S
C751 C755 1.400 . S
C752 H737 0.960 . S
C752 H738 0.960 . S
C752 H739 0.960 . S
C752 C751 1.524 . S
C753 C750 1.403 . S
C753 C754 1.392 . S
C753 C757 1.495 . S
C754 C753 1.392 . S
C754 C755 1.385 1_655 S
C754 C756 1.478 . S
C755 H749 0.930 . S
C755 C751 1.400 . S
C755 C754 1.385 1_455 S
C756 C754 1.478 . S
C756 C758 1.381 . S
C756 C762 1.383 . S
C757 C753 1.495 . S
C757 H763 0.959 . S
C757 H764 0.961 . S
C757 H765 0.960 . S
C758 C756 1.381 . S
C758 C759 1.394 . S
C758 H766 0.930 . S
C759 C758 1.394 . S
C759 C760 1.383 . S
C759 H767 0.929 . S
C760 C759 1.383 . S
C760 C761 1.377 . S
C761 H745 0.930 . S
C761 C760 1.377 . S
C761 C762 1.379 . S
C762 H746 0.931 . S
C762 C756 1.383 . S
C762 C761 1.379 . S
H763 C757 0.959 . S
H764 C757 0.961 . S
H765 C757 0.960 . S
H766 C758 0.930 . S
H767 C759 0.929 . S
H768 C776 0.929 . S
H769 C778 0.930 . S
H770 C780 0.930 . S
H771 C783 0.929 . S
H772 C786 0.930 . S
H773 C788 0.960 . S
H774 C788 0.960 . S
H775 C788 0.960 1_565 S
C776 H768 0.929 . S
C776 C777 1.377 . S
C776 C778 1.384 . S
C777 C776 1.377 . S
C777 C783 1.390 . S
C778 H769 0.930 . S
C778 C776 1.384 . S
C778 C779 1.372 . S
C779 C778 1.372 . S
C779 C780 1.400 . S
C779 C784 1.490 . S
C780 H770 0.930 . S
C780 C779 1.400 . S
C780 C783 1.386 . S
H781 C797 0.930 . S
H782 C798 0.931 . S
C783 H771 0.929 . S
C783 C777 1.390 . S
C783 C780 1.386 . S
C784 C779 1.490 . S
C784 C786 1.395 . S
C784 C787 1.403 1_565 S
H785 C791 0.930 . S
C786 H772 0.930 . S
C786 C784 1.395 . S
C786 C789 1.398 1_565 S
C787 C784 1.403 1_545 S
C787 C788 1.525 . S
C787 C791 1.397 . S
C788 H773 0.960 . S
C788 H774 0.960 . S
C788 H775 0.960 1_545 S
C788 C787 1.525 . S
C789 C786 1.398 1_545 S
C789 C790 1.394 . S
C789 C793 1.506 1_545 S
C790 C789 1.394 . S
C790 C791 1.385 . S
C790 C792 1.478 . S
C791 H785 0.930 . S
C791 C787 1.397 . S
C791 C790 1.385 . S
C792 C790 1.478 . S
C792 C794 1.381 . S
C792 C798 1.383 . S
C793 C789 1.506 1_565 S
C793 H799 0.963 . S
C793 H800 0.967 . S
C793 H801 0.943 1_565 S
C794 C792 1.381 . S
C794 C795 1.394 . S
C794 H802 0.930 . S
C795 C794 1.394 . S
C795 C796 1.383 . S
C795 H803 0.929 . S
C796 C795 1.383 . S
C796 C797 1.377 . S
C797 H781 0.930 . S
C797 C796 1.377 . S
C797 C798 1.379 . S
C798 H782 0.931 . S
C798 C792 1.383 . S
C798 C797 1.379 . S
H799 C793 0.963 . S
H800 C793 0.967 . S
H801 C793 0.943 1_545 S
H802 C794 0.930 . S
H803 C795 0.929 . S
H804 C812 0.929 . S
H805 C814 0.930 . S
H806 C816 0.930 . S
H807 C819 0.929 . S
H808 C822 0.930 . S
H809 C824 0.960 . S
H810 C824 0.960 . S
H811 C824 0.960 . S
C812 H804 0.929 . S
C812 C813 1.377 . S
C812 C814 1.384 . S
C813 C812 1.377 . S
C813 C819 1.390 . S
C814 H805 0.930 . S
C814 C812 1.384 . S
C814 C815 1.372 . S
C815 C814 1.372 . S
C815 C816 1.400 . S
C815 C820 1.490 . S
C816 H806 0.930 . S
C816 C815 1.400 . S
C816 C819 1.386 . S
H817 C833 0.930 . S
H818 C834 0.931 . S
C819 H807 0.929 . S
C819 C813 1.390 . S
C819 C816 1.386 . S
C820 C815 1.490 . S
C820 C822 1.395 . S
C820 C823 1.403 . S
H821 C827 0.930 . S
C822 H808 0.930 . S
C822 C820 1.395 . S
C822 C825 1.403 . S
C823 C820 1.403 . S
C823 C824 1.524 . S
C823 C827 1.400 . S
C824 H809 0.960 . S
C824 H810 0.960 . S
C824 H811 0.960 . S
C824 C823 1.524 . S
C825 C822 1.403 . S
C825 C826 1.392 . S
C825 C829 1.495 . S
C826 C825 1.392 . S
C826 C827 1.385 . S
C826 C828 1.478 . S
C827 H821 0.930 . S
C827 C823 1.400 . S
C827 C826 1.385 . S
C828 C826 1.478 . S
C828 C830 1.381 . S
C828 C834 1.383 . S
C829 C825 1.495 . S
C829 H835 0.959 . S
C829 H836 0.961 . S
C829 H837 0.960 . S
C830 C828 1.381 . S
C830 C831 1.394 . S
C830 H838 0.930 . S
C831 C830 1.394 . S
C831 C832 1.383 . S
C831 H839 0.929 . S
C832 C831 1.383 . S
C832 C833 1.377 . S
C833 H817 0.930 . S
C833 C832 1.377 . S
C833 C834 1.379 . S
C834 H818 0.931 . S
C834 C828 1.383 . S
C834 C833 1.379 . S
H835 C829 0.959 . S
H836 C829 0.961 . S
H837 C829 0.960 . S
H838 C830 0.930 . S
H839 C831 0.929 . S
H840 C848 0.929 . S
H841 C850 0.930 . S
H842 C852 0.930 . S
H843 C855 0.929 . S
H844 C858 0.930 . S
H845 C860 0.960 . S
H846 C860 0.960 . S
H847 C860 0.960 . S
C848 H840 0.929 . S
C848 C849 1.377 . S
C848 C850 1.384 . S
C849 C848 1.377 . S
C849 C855 1.390 . S
C850 H841 0.930 . S
C850 C848 1.384 . S
C850 C851 1.372 . S
C851 C850 1.372 . S
C851 C852 1.400 . S
C851 C856 1.490 . S
C852 H842 0.930 . S
C852 C851 1.400 . S
C852 C855 1.386 . S
H853 C869 0.930 . S
H854 C870 0.931 . S
C855 H843 0.929 . S
C855 C849 1.390 . S
C855 C852 1.386 . S
C856 C851 1.490 . S
C856 C858 1.395 . S
C856 C859 1.403 . S
H857 C863 0.930 . S
C858 H844 0.930 . S
C858 C856 1.395 . S
C858 C861 1.403 . S
C859 C856 1.403 . S
C859 C860 1.524 . S
C859 C863 1.400 . S
C860 H845 0.960 . S
C860 H846 0.960 . S
C860 H847 0.960 . S
C860 C859 1.524 . S
C861 C858 1.403 . S
C861 C862 1.392 . S
C861 C865 1.495 . S
C862 C861 1.392 . S
C862 C863 1.385 . S
C862 C864 1.478 . S
C863 H857 0.930 . S
C863 C859 1.400 . S
C863 C862 1.385 . S
C864 C862 1.478 . S
C864 C866 1.381 . S
C864 C870 1.383 . S
C865 C861 1.495 . S
C865 H871 0.959 . S
C865 H872 0.961 . S
C865 H873 0.960 . S
C866 C864 1.381 . S
C866 C867 1.394 . S
C866 H874 0.930 . S
C867 C866 1.394 . S
C867 C868 1.383 . S
C867 H875 0.929 . S
C868 C867 1.383 . S
C868 C869 1.377 . S
C869 H853 0.930 . S
C869 C868 1.377 . S
C869 C870 1.379 . S
C870 H854 0.931 . S
C870 C864 1.383 . S
C870 C869 1.379 . S
H871 C865 0.959 . S
H872 C865 0.961 . S
H873 C865 0.960 . S
H874 C866 0.930 . S
H875 C867 0.929 . S
H876 C884 0.929 . S
H877 C886 0.930 . S
H878 C888 0.930 . S
H879 C891 0.929 . S
H880 C894 0.930 . S
H881 C896 0.960 . S
H882 C896 0.960 . S
H883 C896 0.960 . S
C884 H876 0.929 . S
C884 C885 1.377 . S
C884 C886 1.384 1_554 S
C885 C884 1.377 . S
C885 C891 1.390 . S
C886 H877 0.930 . S
C886 C884 1.384 1_556 S
C886 C887 1.372 . S
C887 C886 1.372 . S
C887 C888 1.400 . S
C887 C892 1.490 . S
C888 H878 0.930 . S
C888 C887 1.400 . S
C888 C891 1.386 1_556 S
H889 C905 0.930 . S
H890 C906 0.931 . S
C891 H879 0.929 . S
C891 C885 1.390 . S
C891 C888 1.386 1_554 S
C892 C887 1.490 . S
C892 C894 1.395 . S
C892 C895 1.403 . S
H893 C899 0.930 . S
C894 H880 0.930 . S
C894 C892 1.395 . S
C894 C897 1.403 . S
C895 C892 1.403 . S
C895 C896 1.524 1_556 S
C895 C899 1.400 . S
C896 H881 0.960 . S
C896 H882 0.960 . S
C896 H883 0.960 . S
C896 C895 1.524 1_554 S
C897 C894 1.403 . S
C897 C898 1.392 . S
C897 C901 1.495 . S
C898 C897 1.392 . S
C898 C899 1.385 . S
C898 C900 1.478 . S
C899 H893 0.930 . S
C899 C895 1.400 . S
C899 C898 1.385 . S
C900 C898 1.478 . S
C900 C902 1.381 . S
C900 C906 1.383 . S
C901 C897 1.495 . S
C901 H907 0.959 . S
C901 H908 0.961 . S
C901 H909 0.960 . S
C902 C900 1.381 . S
C902 C903 1.394 . S
C902 H910 0.930 . S
C903 C902 1.394 . S
C903 C904 1.383 . S
C903 H911 0.929 . S
C904 C903 1.383 . S
C904 C905 1.377 . S
C905 H889 0.930 . S
C905 C904 1.377 . S
C905 C906 1.379 . S
C906 H890 0.931 . S
C906 C900 1.383 . S
C906 C905 1.379 . S
H907 C901 0.959 . S
H908 C901 0.961 . S
H909 C901 0.960 . S
H910 C902 0.930 . S
H911 C903 0.929 . S
H912 C920 0.929 . S
H913 C922 0.930 . S
H914 C924 0.930 . S
H915 C927 0.929 . S
H916 C930 0.930 . S
H917 C932 0.960 . S
H918 C932 0.960 . S
H919 C932 0.960 . S
C920 H912 0.929 . S
C920 C921 1.377 . S
C920 C922 1.384 . S
C921 C920 1.377 . S
C921 C927 1.390 . S
C922 H913 0.930 . S
C922 C920 1.384 . S
C922 C923 1.372 . S
C923 C922 1.372 . S
C923 C924 1.400 . S
C923 C928 1.490 . S
C924 H914 0.930 . S
C924 C923 1.400 . S
C924 C927 1.386 . S
H925 C941 0.930 . S
H926 C942 0.931 . S
C927 H915 0.929 . S
C927 C921 1.390 . S
C927 C924 1.386 . S
C928 C923 1.490 . S
C928 C930 1.395 . S
C928 C931 1.403 . S
H929 C935 0.930 . S
C930 H916 0.930 . S
C930 C928 1.395 . S
C930 C933 1.403 . S
C931 C928 1.403 . S
C931 C932 1.524 . S
C931 C935 1.400 . S
C932 H917 0.960 . S
C932 H918 0.960 . S
C932 H919 0.960 . S
C932 C931 1.524 . S
C933 C930 1.403 . S
C933 C934 1.392 . S
C933 C937 1.495 . S
C934 C933 1.392 . S
C934 C935 1.385 . S
C934 C936 1.478 . S
C935 H929 0.930 . S
C935 C931 1.400 . S
C935 C934 1.385 . S
C936 C934 1.478 . S
C936 C938 1.381 . S
C936 C942 1.383 1_554 S
C937 C933 1.495 . S
C937 H943 0.959 . S
C937 H944 0.961 . S
C937 H945 0.960 . S
C938 C936 1.381 . S
C938 C939 1.394 . S
C938 H946 0.930 . S
C939 C938 1.394 . S
C939 C940 1.383 1_554 S
C939 H947 0.929 . S
C940 C939 1.383 1_556 S
C940 C941 1.377 . S
C941 H925 0.930 . S
C941 C940 1.377 . S
C941 C942 1.379 . S
C942 H926 0.931 . S
C942 C936 1.383 1_556 S
C942 C941 1.379 . S
H943 C937 0.959 . S
H944 C937 0.961 . S
H945 C937 0.960 . S
H946 C938 0.930 . S
H947 C939 0.929 . S
H948 C956 0.929 . S
H949 C958 0.930 . S
H950 C960 0.930 . S
H951 C963 0.929 . S
H952 C966 0.930 . S
H953 C968 0.960 . S
H954 C968 0.960 . S
H955 C968 0.960 . S
C956 H948 0.929 . S
C956 C957 1.377 . S
C956 C958 1.384 . S
C957 C956 1.377 . S
C957 C963 1.390 . S
C958 H949 0.930 . S
C958 C956 1.384 . S
C958 C959 1.372 . S
C959 C958 1.372 . S
C959 C960 1.400 . S
C959 C964 1.490 . S
C960 H950 0.930 . S
C960 C959 1.400 . S
C960 C963 1.386 . S
H961 C977 0.930 . S
H962 C978 0.931 . S
C963 H951 0.929 . S
C963 C957 1.390 . S
C963 C960 1.386 . S
C964 C959 1.490 . S
C964 C966 1.395 . S
C964 C967 1.403 . S
H965 C971 0.930 . S
C966 H952 0.930 . S
C966 C964 1.395 . S
C966 C969 1.403 . S
C967 C964 1.403 . S
C967 C968 1.524 . S
C967 C971 1.400 . S
C968 H953 0.960 . S
C968 H954 0.960 . S
C968 H955 0.960 . S
C968 C967 1.524 . S
C969 C966 1.403 . S
C969 C970 1.392 . S
C969 C973 1.495 . S
C970 C969 1.392 . S
C970 C971 1.385 . S
C970 C972 1.478 . S
C971 H965 0.930 . S
C971 C967 1.400 . S
C971 C970 1.385 . S
C972 C970 1.478 . S
C972 C974 1.381 . S
C972 C978 1.383 . S
C973 C969 1.495 . S
C973 H979 0.959 . S
C973 H980 0.961 . S
C973 H981 0.960 . S
C974 C972 1.381 . S
C974 C975 1.394 . S
C974 H982 0.930 . S
C975 C974 1.394 . S
C975 C976 1.383 . S
C975 H983 0.929 . S
C976 C975 1.383 . S
C976 C977 1.377 . S
C977 H961 0.930 . S
C977 C976 1.377 . S
C977 C978 1.379 . S
C978 H962 0.931 . S
C978 C972 1.383 . S
C978 C977 1.379 . S
H979 C973 0.959 . S
H980 C973 0.961 . S
H981 C973 0.960 . S
H982 C974 0.930 . S
H983 C975 0.929 . S
H984 C992 0.929 . S
H985 C994 0.930 . S
H986 C996 0.930 . S
H987 C999 0.929 . S
H988 C1002 0.930 . S
H989 C1004 0.960 . S
H990 C1004 0.960 . S
H991 C1004 0.960 . S
C992 H984 0.929 . S
C992 C993 1.377 . S
C992 C994 1.384 . S
C993 C992 1.377 . S
C993 C999 1.390 . S
C994 H985 0.930 . S
C994 C992 1.384 . S
C994 C995 1.372 . S
C995 C994 1.372 . S
C995 C996 1.400 . S
C995 C1000 1.490 . S
C996 H986 0.930 . S
C996 C995 1.400 . S
C996 C999 1.386 . S
H997 C1013 0.930 . S
H998 C1014 0.931 . S
C999 H987 0.929 . S
C999 C993 1.390 . S
C999 C996 1.386 . S
C1000 C995 1.490 . S
C1000 C1002 1.395 . S
C1000 C1003 1.403 . S
H1001 C1007 0.930 . S
C1002 H988 0.930 . S
C1002 C1000 1.395 . S
C1002 C1005 1.403 . S
C1003 C1000 1.403 . S
C1003 C1004 1.524 . S
C1003 C1007 1.400 . S
C1004 H989 0.960 . S
C1004 H990 0.960 . S
C1004 H991 0.960 . S
C1004 C1003 1.524 . S
C1005 C1002 1.403 . S
C1005 C1006 1.392 . S
C1005 C1009 1.495 . S
C1006 C1005 1.392 . S
C1006 C1007 1.385 . S
C1006 C1008 1.478 . S
C1007 H1001 0.930 . S
C1007 C1003 1.400 . S
C1007 C1006 1.385 . S
C1008 C1006 1.478 . S
C1008 C1010 1.381 . S
C1008 C1014 1.383 . S
C1009 C1005 1.495 . S
C1009 H1015 0.959 . S
C1009 H1016 0.961 . S
C1009 H1017 0.960 . S
C1010 C1008 1.381 . S
C1010 C1011 1.394 . S
C1010 H1018 0.930 . S
C1011 C1010 1.394 . S
C1011 C1012 1.383 . S
C1011 H1019 0.929 . S
C1012 C1011 1.383 . S
C1012 C1013 1.377 . S
C1013 H997 0.930 . S
C1013 C1012 1.377 . S
C1013 C1014 1.379 . S
C1014 H998 0.931 . S
C1014 C1008 1.383 . S
C1014 C1013 1.379 . S
H1015 C1009 0.959 . S
H1016 C1009 0.961 . S
H1017 C1009 0.960 . S
H1018 C1010 0.930 . S
H1019 C1011 0.929 . S
C165 C122 1.347 1_554 S
C184 C5 1.312 . S
C201 C18 1.340 . S
C220 C135 1.317 . S
C237 C148 1.341 . S
C256 C31 1.312 . S
C273 C83 1.340 . S
C292 C44 1.332 . S
C309 C96 1.343 . S
C328 C57 1.364 1_556 S
C345 C109 1.350 . S
C364 C70 1.378 . S
C381 C88 1.428 . S
C400 C10 1.409 . S
C417 C23 1.430 . S
C436 C101 1.399 . S
C453 C114 1.425 . S
C472 C36 1.414 . S
C489 C49 1.420 . S
C508 C127 1.440 . S
C525 C140 1.428 . S
C544 C62 1.408 . S
C561 C75 1.422 . S
C580 C153 1.439 . S
C597 C125 0.799 . S
C616 C8 0.825 . S
C633 C138 0.806 1_556 S
C652 C21 0.837 . S
C669 C151 0.811 . S
C688 C34 0.820 . S
C705 C47 0.805 1_554 S
C724 C86 0.838 . S
C741 C99 0.803 . S
C760 C60 0.836 . S
C777 C73 0.798 . S
C796 C112 0.798 . S
C813 C0 1.241 . S
C832 C104 1.248 . S
C849 C117 1.236 . S
C868 C13 1.263 . S
C885 C130 1.239 . S
C904 C26 1.252 . S
C921 C143 1.246 . S
C940 C39 1.216 . S
C957 C78 1.240 . S
C976 C52 1.239 . S
C993 C91 1.243 . S
C1012 C65 1.223 . S
