# Generated by pormake.
# Topology ske, (6)-cn, num edge types: 1
# Building blocks:
#     Node 0, Type 0, BuildingBlock: MIDCAF_clean_sbu_0, # of connection points: 6
#     Node 1, Type 0, BuildingBlock: MIDCAF_clean_sbu_0, # of connection points: 6
#     Node 2, Type 0, BuildingBlock: MIDCAF_clean_sbu_0, # of connection points: 6
#     Node 3, Type 0, BuildingBlock: MIDCAF_clean_sbu_0, # of connection points: 6
#     Node 4, Type 0, BuildingBlock: MIDCAF_clean_sbu_0, # of connection points: 6
#     Node 5, Type 0, BuildingBlock: MIDCAF_clean_sbu_0, # of connection points: 6
#     Node 6, Type 0, BuildingBlock: MIDCAF_clean_sbu_0, # of connection points: 6
#     Node 7, Type 0, BuildingBlock: MIDCAF_clean_sbu_0, # of connection points: 6
#     Edge 8, Type (0, 0), BuildingBlock: AJUNOK_clean_linker_0, # of connection points: 2
#     Edge 9, Type (0, 0), BuildingBlock: AJUNOK_clean_linker_0, # of connection points: 2
#     Edge 10, Type (0, 0), BuildingBlock: AJUNOK_clean_linker_0, # of connection points: 2
#     Edge 11, Type (0, 0), BuildingBlock: AJUNOK_clean_linker_0, # of connection points: 2
#     Edge 12, Type (0, 0), BuildingBlock: AJUNOK_clean_linker_0, # of connection points: 2
#     Edge 13, Type (0, 0), BuildingBlock: AJUNOK_clean_linker_0, # of connection points: 2
#     Edge 14, Type (0, 0), BuildingBlock: AJUNOK_clean_linker_0, # of connection points: 2
#     Edge 15, Type (0, 0), BuildingBlock: AJUNOK_clean_linker_0, # of connection points: 2
#     Edge 16, Type (0, 0), BuildingBlock: AJUNOK_clean_linker_0, # of connection points: 2
#     Edge 17, Type (0, 0), BuildingBlock: AJUNOK_clean_linker_0, # of connection points: 2
#     Edge 18, Type (0, 0), BuildingBlock: AJUNOK_clean_linker_0, # of connection points: 2
#     Edge 19, Type (0, 0), BuildingBlock: AJUNOK_clean_linker_0, # of connection points: 2
#     Edge 20, Type (0, 0), BuildingBlock: AJUNOK_clean_linker_0, # of connection points: 2
#     Edge 21, Type (0, 0), BuildingBlock: AJUNOK_clean_linker_0, # of connection points: 2
#     Edge 22, Type (0, 0), BuildingBlock: AJUNOK_clean_linker_0, # of connection points: 2
#     Edge 23, Type (0, 0), BuildingBlock: AJUNOK_clean_linker_0, # of connection points: 2
#     Edge 24, Type (0, 0), BuildingBlock: AJUNOK_clean_linker_0, # of connection points: 2
#     Edge 25, Type (0, 0), BuildingBlock: AJUNOK_clean_linker_0, # of connection points: 2
#     Edge 26, Type (0, 0), BuildingBlock: AJUNOK_clean_linker_0, # of connection points: 2
#     Edge 27, Type (0, 0), BuildingBlock: AJUNOK_clean_linker_0, # of connection points: 2
#     Edge 28, Type (0, 0), BuildingBlock: AJUNOK_clean_linker_0, # of connection points: 2
#     Edge 29, Type (0, 0), BuildingBlock: AJUNOK_clean_linker_0, # of connection points: 2
#     Edge 30, Type (0, 0), BuildingBlock: AJUNOK_clean_linker_0, # of connection points: 2
#     Edge 31, Type (0, 0), BuildingBlock: AJUNOK_clean_linker_0, # of connection points: 2
# Relax obj value: 0.101
# Max RMSD: 0.160
# Mean RMSD: 0.160
data_MOF--net-ske--node1-MIDCAF_clean_sbu_0--edge1-AJUNOK_clean_linker_0
_symmetry_space_group_name_H-M    P1
_symmetry_Int_Tables_number       1
_symmetry_cell_setting            triclinic
loop_
_symmetry_equiv_pos_as_xyz
'x, y, z'
_cell_length_a     45.118493
_cell_length_b     22.459058
_cell_length_c     11.769882
_cell_angle_alpha  88.975768
_cell_angle_beta   90.248053
_cell_angle_gamma 89.36551
loop_
_atom_site_label
_atom_site_type_symbol
_atom_site_fract_x
_atom_site_fract_y
_atom_site_fract_z
_atom_type_partial_charge
Zn0 Zn 0.1568 0.17906 0.47235 0.0
Zn1 Zn 0.08038 0.38238 0.69433 0.0
Zn2 Zn 0.12671 0.25204 0.53248 0.0
C3 C 0.06514 0.25837 0.57595 0.0
C4 C 0.11685 0.37081 0.48504 0.0
O5 O 0.16292 0.25029 0.6581 0.0
O6 O 0.19338 0.21343 0.53153 0.0
C7 C 0.1109 0.11437 0.52481 0.0
O8 O 0.08113 0.21729 0.53374 0.0
O9 O 0.07937 0.30273 0.6113 0.0
O10 O 0.09888 0.34874 0.55514 0.0
O11 O 0.1316 0.33309 0.42763 0.0
O12 O 0.13831 0.10726 0.54332 0.0
O13 O 0.10075 0.16761 0.5056 0.0
O14 O 0.1413 0.28392 0.35973 0.0
O15 O 0.15087 0.19232 0.30761 0.0
C16 C 0.14711 0.24647 0.28043 0.0
O17 O 0.13535 0.28111 0.7186 0.0
O18 O 0.11107 0.35618 0.80928 0.0
C19 C 0.18949 0.24041 0.62311 0.0
C20 C 0.13047 0.31406 0.80762 0.0
Zn21 Zn 0.84604 0.33308 0.4438 0.0
Zn22 Zn 0.92471 0.12447 0.66962 0.0
Zn23 Zn 0.87519 0.26024 0.51539 0.0
C24 C 0.93626 0.25193 0.5583 0.0
C25 C 0.88319 0.13993 0.47118 0.0
O26 O 0.83799 0.25964 0.63798 0.0
O27 O 0.80957 0.2989 0.50407 0.0
C28 C 0.89091 0.39851 0.50089 0.0
O29 O 0.92022 0.29471 0.51929 0.0
O30 O 0.92235 0.2051 0.58512 0.0
O31 O 0.90418 0.1585 0.53168 0.0
O32 O 0.86905 0.1803 0.41494 0.0
O33 O 0.86325 0.40557 0.51002 0.0
O34 O 0.9015 0.34534 0.48886 0.0
O35 O 0.86272 0.2285 0.34193 0.0
O36 O 0.85341 0.31968 0.28059 0.0
C37 C 0.85804 0.26564 0.25848 0.0
O38 O 0.86992 0.22875 0.70087 0.0
O39 O 0.89619 0.15372 0.7898 0.0
C40 C 0.81187 0.27117 0.59775 0.0
C41 C 0.87663 0.19568 0.79011 0.0
Zn42 Zn 0.10512 0.67767 0.3198 0.0
Zn43 Zn 0.15293 0.82382 0.46997 0.0
Zn44 Zn 0.12666 0.74912 0.41117 0.0
C45 C 0.14243 0.76195 0.66169 0.0
C46 C 0.10735 0.88274 0.39991 0.0
O47 O 0.14356 0.741 0.22987 0.0
O48 O 0.10311 0.70043 0.16046 0.0
C49 C 0.13952 0.61993 0.46211 0.0
O50 O 0.14049 0.72163 0.58541 0.0
O51 O 0.14181 0.81602 0.6306 0.0
O52 O 0.13429 0.88813 0.3736 0.0
O53 O 0.09825 0.83091 0.43218 0.0
O54 O 0.13905 0.6227 0.35552 0.0
O55 O 0.13078 0.66627 0.51616 0.0
O56 O 0.07947 0.77543 0.4062 0.0
O57 O 0.06739 0.68108 0.40776 0.0
C58 C 0.05967 0.73497 0.41881 0.0
O59 O 0.1669 0.75576 0.30134 0.0
O60 O 0.19275 0.79304 0.44094 0.0
C61 C 0.12795 0.724 0.14371 0.0
C62 C 0.19223 0.76657 0.34785 0.0
Zn63 Zn 0.8861 0.83836 0.33084 0.0
Zn64 Zn 0.84216 0.68697 0.49021 0.0
Zn65 Zn 0.86601 0.76485 0.42451 0.0
C66 C 0.85459 0.75238 0.67663 0.0
C67 C 0.88925 0.63252 0.41748 0.0
O68 O 0.84745 0.77157 0.24507 0.0
O69 O 0.88882 0.80942 0.17741 0.0
C70 C 0.85259 0.89451 0.46641 0.0
O71 O 0.85421 0.79314 0.59822 0.0
O72 O 0.85437 0.69838 0.6489 0.0
O73 O 0.86199 0.6231 0.40346 0.0
O74 O 0.89747 0.68571 0.44181 0.0
O75 O 0.85108 0.89075 0.3602 0.0
O76 O 0.86245 0.84868 0.52281 0.0
O77 O 0.91356 0.74254 0.41532 0.0
O78 O 0.9236 0.83774 0.42194 0.0
C79 C 0.93255 0.78427 0.42965 0.0
O80 O 0.82471 0.75416 0.31891 0.0
O81 O 0.8011 0.70838 0.45674 0.0
C82 C 0.86406 0.78593 0.15966 0.0
C83 C 0.80014 0.73548 0.36242 0.0
Zn84 Zn 0.57851 0.88206 0.16023 0.0
Zn85 Zn 0.66155 0.68432 0.93831 0.0
Zn86 Zn 0.62881 0.7539 0.00437 0.0
C87 C 0.65088 0.75485 0.75071 0.0
C88 C 0.61489 0.61606 -0.01331 0.0
O89 O 0.63562 0.78506 0.19099 0.0
O90 O 0.60932 0.85899 0.27742 0.0
C91 C 0.61831 0.87312 0.9581 0.0
O92 O 0.64336 0.78932 0.83283 0.0
O93 O 0.65715 0.70104 0.77337 0.0
O94 O 0.64261 0.61007 -0.00194 0.0
O95 O 0.60372 0.66895 0.97424 0.0
O96 O 0.59897 0.85098 0.02263 0.0
O97 O 0.63385 0.83551 0.90352 0.0
O98 O 0.58396 0.71779 -0.00185 0.0
O99 O 0.58012 0.80306 0.07555 0.0
C100 C 0.56694 0.75783 0.0383 0.0
O101 O 0.66311 0.74938 0.13644 0.0
O102 O 0.69643 0.71873 0.01385 0.0
C103 C 0.62971 0.81877 0.27815 0.0
C104 C 0.69036 0.74077 0.10873 0.0
Zn105 Zn 0.34774 0.84597 0.02609 0.0
Zn106 Zn 0.3941 0.69438 0.1844 0.0
Zn107 Zn 0.37313 0.76582 0.08583 0.0
C108 C 0.4389 0.74242 0.07023 0.0
C109 C 0.35794 0.63605 0.0569 0.0
O110 O 0.33314 0.77328 0.19622 0.0
O111 O 0.30751 0.82344 0.06701 0.0
C112 C 0.39618 0.8986 0.07688 0.0
O113 O 0.42079 0.78632 0.08496 0.0
O114 O 0.42983 0.69014 0.08794 0.0
O115 O 0.36106 0.63858 0.16287 0.0
O116 O 0.36607 0.68115 -0.00478 0.0
O117 O 0.36982 0.9093 0.10648 0.0
O118 O 0.40328 0.84448 0.05203 0.0
O119 O 0.3588 0.73718 0.91591 0.0
O120 O 0.35627 0.83162 0.86395 0.0
C121 C 0.35653 0.77744 0.83665 0.0
O122 O 0.35697 0.76153 0.26854 0.0
O123 O 0.39831 0.72238 0.33925 0.0
C124 C 0.30785 0.79041 0.1544 0.0
C125 C 0.37325 0.74601 0.35532 0.0
Zn126 Zn 0.61166 0.17674 0.79598 0.0
Zn127 Zn 0.6597 0.32416 0.94808 0.0
Zn128 Zn 0.63235 0.24939 0.88645 0.0
C129 C 0.64951 0.2587 0.13865 0.0
C130 C 0.6124 0.38307 0.88037 0.0
O131 O 0.64928 0.23931 0.70499 0.0
O132 O 0.60897 0.19797 0.6363 0.0
C133 C 0.64494 0.11984 0.93918 0.0
O134 O 0.6458 0.22028 0.05995 0.0
O135 O 0.65114 0.31316 0.11112 0.0
O136 O 0.63965 0.3901 0.86145 0.0
O137 O 0.60327 0.33039 0.90656 0.0
O138 O 0.64579 0.1223 0.83261 0.0
O139 O 0.63592 0.16662 -0.00885 0.0
O140 O 0.58478 0.27368 0.88137 0.0
O141 O 0.57409 0.17855 0.88367 0.0
C142 C 0.56561 0.23192 0.89485 0.0
O143 O 0.67244 0.25491 0.77516 0.0
O144 O 0.69933 0.29638 0.90738 0.0
C145 C 0.63396 0.22082 0.61929 0.0
C146 C 0.6981 0.26782 0.81664 0.0
Zn147 Zn 0.39334 0.32338 0.8006 0.0
Zn148 Zn 0.34592 0.17958 0.96223 0.0
Zn149 Zn 0.37037 0.258 0.8991 0.0
C150 C 0.35268 0.25036 0.14821 0.0
C151 C 0.39399 0.12352 0.91187 0.0
O152 O 0.3531 0.26495 0.71617 0.0
O153 O 0.39584 0.29456 0.64639 0.0
C154 C 0.35961 0.38986 0.92457 0.0
O155 O 0.35618 0.28928 0.06756 0.0
O156 O 0.35286 0.19571 0.12454 0.0
O157 O 0.36725 0.11266 0.88965 0.0
O158 O 0.40119 0.17798 0.93144 0.0
O159 O 0.36265 0.38453 0.81914 0.0
O160 O 0.3651 0.34413 -0.01038 0.0
O161 O 0.41866 0.23353 0.89917 0.0
O162 O 0.43015 0.328 0.88987 0.0
C163 C 0.43822 0.27481 0.90834 0.0
O164 O 0.3293 0.25039 0.78988 0.0
O165 O 0.30549 0.1988 0.91965 0.0
C166 C 0.36973 0.27731 0.62938 0.0
C167 C 0.30458 0.23123 0.83158 0.0
C168 C 0.22087 0.22908 0.79559 0.0
C169 C 0.21639 0.25465 0.68784 0.0
C170 C 0.24942 0.22416 0.84193 0.0
C171 C 0.27471 0.24464 0.7824 0.0
H172 H 0.20272 0.20834 0.84039 0.0
H173 H 0.25164 0.20155 0.92362 0.0
S174 S 0.27341 0.32565 0.50541 0.0
N175 N 0.2385 0.30755 0.52796 0.0
N176 N 0.29215 0.30027 0.61736 0.0
C177 C 0.27001 0.27538 0.67905 0.0
C178 C 0.24087 0.27979 0.63122 0.0
C179 C 0.72894 0.25751 0.64176 0.0
C180 C 0.72643 0.25381 0.75998 0.0
C181 C 0.75693 0.25873 0.59048 0.0
C182 C 0.78348 0.25632 0.65542 0.0
H183 H 0.7094 0.26353 0.58912 0.0
H184 H 0.75764 0.26466 0.49898 0.0
S185 S 0.78808 0.2325 0.96704 0.0
N186 N 0.75224 0.2372 0.93981 0.0
N187 N 0.80466 0.24016 0.84292 0.0
C188 C 0.78098 0.24644 0.77266 0.0
C189 C 0.7525 0.24515 0.82502 0.0
C190 C 0.2532 0.77946 0.13369 0.0
C191 C 0.27888 0.77247 0.2023 0.0
C192 C 0.22478 0.77098 0.17789 0.0
C193 C 0.22099 0.75597 0.29256 0.0
H194 H 0.25489 0.79393 0.04568 0.0
H195 H 0.20582 0.7805 0.12412 0.0
S196 S 0.28055 0.71955 0.50214 0.0
N197 N 0.29841 0.7395 0.38563 0.0
N198 N 0.24495 0.7248 0.46984 0.0
C199 C 0.24638 0.74313 0.35928 0.0
C200 C 0.27537 0.7511 0.3139 0.0
C201 C 0.74026 0.78138 0.14793 0.0
C202 C 0.71538 0.74966 0.18677 0.0
C203 C 0.76752 0.77801 0.20607 0.0
C204 C 0.77088 0.74222 0.30451 0.0
H205 H 0.73896 0.807 0.06914 0.0
H206 H 0.78618 0.8023 0.17203 0.0
S207 S 0.71235 0.64841 0.43741 0.0
N208 N 0.69599 0.68015 0.32598 0.0
N209 N 0.74636 0.67459 0.43847 0.0
C210 C 0.74571 0.71151 0.34557 0.0
C211 C 0.71816 0.71502 0.28591 0.0
C212 C 0.09088 0.95388 0.54453 0.0
C213 C 0.09173 0.93869 0.429 0.0
C214 C 0.09255 0.01369 0.57771 0.0
C215 C 0.0941 0.06031 0.49651 0.0
H216 H 0.0932 0.91932 0.60952 0.0
H217 H 0.09599 0.02292 0.66682 0.0
S218 S 0.0908 0.04451 0.18408 0.0
N219 N 0.08995 0.97535 0.23417 0.0
N220 N 0.09156 0.08758 0.29637 0.0
C221 C 0.09054 0.046 0.38154 0.0
C222 C 0.08969 0.98514 0.34774 0.0
C223 C 0.90951 0.47566 0.36875 0.0
C224 C 0.90835 0.4531 0.48097 0.0
C225 C 0.90917 0.53743 0.34599 0.0
C226 C 0.90809 0.57865 0.43469 0.0
H227 H 0.90628 0.44592 0.29835 0.0
H228 H 0.90558 0.55271 0.2591 0.0
S229 S 0.91213 0.5417 0.74227 0.0
N230 N 0.91152 0.47625 0.68062 0.0
N231 N 0.91186 0.59209 0.63819 0.0
C232 C 0.91191 0.55638 0.54629 0.0
C233 C 0.91168 0.49354 0.56945 0.0
C234 C 0.88252 0.97441 0.54761 0.0
C235 C 0.85486 0.95596 0.50721 0.0
C236 C 0.8913 0.03394 0.53569 0.0
C237 C 0.87257 0.07772 0.48502 0.0
H238 H 0.89873 0.94171 0.57759 0.0
H239 H 0.91366 0.04469 0.56064 0.0
S240 S 0.79613 0.05329 0.37991 0.0
N241 N 0.80769 0.98669 0.42385 0.0
N242 N 0.82369 0.09902 0.4054 0.0
C243 C 0.84395 0.0606 0.45235 0.0
C244 C 0.83514 0.99981 0.46352 0.0
C245 C 0.15914 0.5168 0.47548 0.0
C246 C 0.13754 0.5589 0.5086 0.0
C247 C 0.15247 0.45595 0.46712 0.0
C248 C 0.12374 0.43525 0.48932 0.0
H249 H 0.18076 0.53174 0.44798 0.0
H250 H 0.16969 0.42526 0.4407 0.0
S251 S 0.05901 0.52799 0.5741 0.0
N252 N 0.08666 0.57528 0.56579 0.0
N253 N 0.07337 0.46254 0.5421 0.0
C254 C 0.10219 0.47686 0.52466 0.0
C255 C 0.10933 0.53813 0.53718 0.0
C256 C 0.59713 0.51634 0.04898 0.0
C257 C 0.59798 0.56128 0.96426 0.0
C258 C 0.59545 0.4558 0.02055 0.0
C259 C 0.59561 0.43815 0.90631 0.0
H260 H 0.60121 0.52745 0.13684 0.0
H261 H 0.5985 0.42267 0.0878 0.0
S262 S 0.59208 0.53901 0.65415 0.0
N263 N 0.59361 0.58441 0.76289 0.0
N264 N 0.59199 0.47084 0.70937 0.0
C265 C 0.59263 0.48293 0.82201 0.0
C266 C 0.59353 0.54454 0.85108 0.0
C267 C 0.4152 1.00052 0.109 0.0
C268 C 0.41321 0.95123 0.03689 0.0
C269 C 0.41519 0.05937 0.06509 0.0
C270 C 0.41233 0.07105 0.94758 0.0
H271 H 0.41297 0.99392 0.19997 0.0
H272 H 0.41285 0.09554 0.12424 0.0
S273 S 0.41266 0.9579 0.72223 0.0
N274 N 0.41412 0.91832 0.84182 0.0
N275 N 0.4127 0.02844 0.75982 0.0
C276 C 0.41454 0.02223 0.87469 0.0
C277 C 0.41533 0.96238 0.91928 0.0
C278 C 0.37528 0.49444 0.90617 0.0
C279 C 0.35785 0.45182 0.96391 0.0
C280 C 0.37344 0.55494 0.9306 0.0
C281 C 0.35361 0.57585 0.01201 0.0
H282 H 0.39115 0.48066 0.84265 0.0
H283 H 0.3891 0.58481 0.89083 0.0
S284 S 0.30295 0.48312 0.18775 0.0
N285 N 0.3202 0.43457 0.10655 0.0
N286 N 0.31625 0.5492 0.15245 0.0
C287 C 0.3358 0.53385 0.07023 0.0
C288 C 0.33803 0.47167 0.04628 0.0
C289 C 0.66288 0.0159 0.95501 0.0
C290 C 0.64179 0.05927 -0.01359 0.0
C291 C 0.65527 0.95566 0.94621 0.0
C292 C 0.62614 0.93683 0.96672 0.0
H293 H 0.68481 0.02943 0.92851 0.0
H294 H 0.6721 0.92403 0.92003 0.0
S295 S 0.56267 0.03324 0.0502 0.0
N296 N 0.59105 0.07879 0.04262 0.0
N297 N 0.57606 0.96697 0.01833 0.0
C298 C 0.60513 0.97955 0.00173 0.0
C299 C 0.6132 0.04031 0.01445 0.0
C300 C 0.14687 0.32386 0.12235 0.0
C301 C 0.14805 0.26376 0.15734 0.0
C302 C 0.14441 0.33996 0.00667 0.0
C303 C 0.14275 0.29671 0.9211 0.0
H304 H 0.14677 0.35873 0.18476 0.0
H305 H 0.14199 0.38681 -0.01544 0.0
S306 S 0.14707 0.13307 0.96636 0.0
N307 N 0.14984 0.16058 0.09494 0.0
N308 N 0.144 0.1913 0.87961 0.0
C309 C 0.14565 0.23665 0.95431 0.0
C310 C 0.1485 0.22011 0.07179 0.0
C311 C 0.8614 0.18755 0.10749 0.0
C312 C 0.85951 0.24784 0.13709 0.0
C313 C 0.86501 0.17089 -0.00629 0.0
C314 C 0.86683 0.21377 0.90487 0.0
H315 H 0.86072 0.15296 0.17272 0.0
H316 H 0.86728 0.12395 0.97548 0.0
S317 S 0.86256 0.37767 0.93572 0.0
N318 N 0.85888 0.35078 0.06619 0.0
N319 N 0.86627 0.31905 0.85443 0.0
C320 C 0.86432 0.27409 0.93289 0.0
C321 C 0.86045 0.29116 0.04826 0.0
C322 C 0.13097 0.68506 0.9474 0.0
C323 C 0.13788 0.7302 0.02487 0.0
C324 C 0.13425 0.69378 0.82977 0.0
C325 C 0.14429 0.74829 0.78549 0.0
H326 H 0.12169 0.64345 0.9778 0.0
H327 H 0.12733 0.65893 0.77333 0.0
S328 S 0.16787 0.87871 0.95372 0.0
N329 N 0.15662 0.82971 0.04991 0.0
N330 N 0.16403 0.84613 0.82995 0.0
C331 C 0.15314 0.79236 0.86303 0.0
C332 C 0.14963 0.78335 -0.01748 0.0
C333 C 0.83708 0.80228 0.85538 0.0
C334 C 0.8571 0.76447 0.79923 0.0
C335 C 0.83734 0.80582 0.97516 0.0
C336 C 0.85733 0.77103 0.04128 0.0
H337 H 0.82104 0.82856 0.80686 0.0
H338 H 0.82266 0.83734 0.01577 0.0
S339 S 0.91501 0.66801 0.93458 0.0
N340 N 0.898 0.69368 0.81902 0.0
N341 N 0.89805 0.69978 0.04194 0.0
C342 C 0.87723 0.73332 -0.01441 0.0
C343 C 0.87722 0.73019 0.86517 0.0
C344 C 0.64339 0.74482 0.42973 0.0
C345 C 0.64229 0.80435 0.39227 0.0
C346 C 0.64743 0.72992 0.54496 0.0
C347 C 0.64985 0.77397 0.62872 0.0
H348 H 0.63912 0.7094 0.37075 0.0
H349 H 0.6471 0.68313 0.5689 0.0
S350 S 0.65031 0.937 0.57391 0.0
N351 N 0.64578 0.90807 0.44697 0.0
N352 N 0.65269 0.87996 0.6642 0.0
C353 C 0.64985 0.8338 0.59207 0.0
C354 C 0.6462 0.84897 0.47398 0.0
C355 C 0.34961 0.81154 0.63428 0.0
C356 C 0.3556 0.76434 0.71295 0.0
C357 C 0.35321 0.80462 0.51687 0.0
C358 C 0.36303 0.75027 0.47378 0.0
H359 H 0.34323 0.85526 0.66365 0.0
H360 H 0.34994 0.8428 0.46046 0.0
S361 S 0.37687 0.61018 0.63803 0.0
N362 N 0.3681 0.65939 0.73531 0.0
N363 N 0.37515 0.64647 0.51496 0.0
C364 C 0.36697 0.70164 0.54967 0.0
C365 C 0.3631 0.70855 0.66913 0.0
C366 C 0.65915 0.28665 0.33999 0.0
C367 C 0.65079 0.24268 0.26165 0.0
C368 C 0.656 0.2778 0.45746 0.0
C369 C 0.64442 0.22462 0.50091 0.0
H370 H 0.66697 0.32961 0.31038 0.0
H371 H 0.66083 0.31414 0.51372 0.0
S372 S 0.624 0.09153 0.33601 0.0
N373 N 0.63398 0.14114 0.23868 0.0
N374 N 0.62812 0.12436 0.45944 0.0
C375 C 0.63824 0.17851 0.42485 0.0
C376 C 0.64148 0.18747 0.30519 0.0
C377 C 0.36673 0.31309 0.31347 0.0
C378 C 0.35052 0.2657 0.27012 0.0
C379 C 0.37116 0.31817 0.43104 0.0
C380 C 0.35935 0.27646 0.50966 0.0
H381 H 0.37778 0.34391 0.25635 0.0
H382 H 0.38515 0.35372 0.46037 0.0
S383 S 0.31079 0.15053 0.44011 0.0
N384 N 0.31902 0.18106 0.31561 0.0
N385 N 0.32793 0.19057 0.53606 0.0
C386 C 0.34102 0.232 0.468 0.0
C387 C 0.33645 0.22671 0.34833 0.0
C388 C 0.0171 0.20311 0.57346 0.0
C389 C 0.03226 0.25729 0.57818 0.0
C390 C 0.98598 0.20191 0.57084 0.0
C391 C 0.96889 0.2549 0.57017 0.0
H392 H 0.02934 0.16136 0.57146 0.0
H393 H 0.97527 0.15909 0.56605 0.0
S394 S 0.99769 0.40846 0.58136 0.0
N395 N 0.0276 0.36544 0.58325 0.0
N396 N 0.96936 0.36279 0.57592 0.0
C397 C 0.98372 0.30927 0.57538 0.0
C398 C 0.01533 0.31054 0.58007 0.0
C399 C 0.97612 0.71377 0.43083 0.0
C400 C 0.96492 0.77191 0.4425 0.0
C401 C 0.00673 0.70248 0.42762 0.0
C402 C 0.02759 0.74878 0.43532 0.0
H403 H 0.9612 0.67684 0.42025 0.0
H404 H 0.01399 0.6569 0.41521 0.0
S405 S 0.00991 0.90817 0.48146 0.0
N406 N 0.97729 0.87595 0.47312 0.0
N407 N 0.03463 0.85431 0.46571 0.0
C408 C 0.01673 0.80669 0.45288 0.0
C409 C 0.9855 0.81827 0.45687 0.0
C410 C 0.51711 0.80173 0.08277 0.0
C411 C 0.53414 0.75421 0.03929 0.0
C412 C 0.48602 0.79976 0.08594 0.0
C413 C 0.47084 0.75004 0.04618 0.0
H414 H 0.52784 0.84056 0.11646 0.0
H415 H 0.47395 0.83616 0.12428 0.0
S416 S 0.50464 0.61701 0.9119 0.0
N417 N 0.53316 0.65833 0.94696 0.0
N418 N 0.47493 0.65442 0.95252 0.0
C419 C 0.48751 0.70351 -0.00249 0.0
C420 C 0.51909 0.70556 -0.00568 0.0
C421 C 0.48235 0.20566 0.90575 0.0
C422 C 0.47049 0.26259 0.92448 0.0
C423 C 0.51313 0.19624 0.90046 0.0
C424 C 0.53339 0.24339 0.91308 0.0
H425 H 0.46783 0.16858 0.88996 0.0
H426 H 0.52097 0.15171 0.88204 0.0
S427 S 0.5138 0.39934 -0.01862 0.0
N428 N 0.48161 0.36573 0.9695 0.0
N429 N 0.53919 0.34768 0.95755 0.0
C430 C 0.52186 0.29975 0.93863 0.0
C431 C 0.49053 0.30937 0.945 0.0
loop_
_geom_bond_atom_site_label_1
_geom_bond_atom_site_label_2
_geom_bond_distance
_geom_bond_site_symmetry_2
_ccdc_geom_bond_type
Zn0 O6 1.920 . S
Zn0 O12 1.898 . S
Zn0 O15 1.905 . S
Zn1 O9 1.905 . S
Zn1 O10 1.898 . S
Zn1 O18 1.920 . S
Zn2 O5 2.080 . S
Zn2 O8 2.114 . S
Zn2 O11 2.120 . S
Zn2 O13 2.120 . S
Zn2 O14 2.114 . S
Zn2 O17 2.080 . S
C3 O8 1.166 . S
C3 O9 1.182 . S
C4 O10 1.167 . S
C4 O11 1.299 . S
O5 Zn2 2.080 . S
O5 C19 1.305 . S
O6 Zn0 1.920 . S
O6 C19 1.234 . S
C7 O12 1.167 . S
C7 O13 1.299 . S
O8 Zn2 2.114 . S
O8 C3 1.166 . S
O9 Zn1 1.905 . S
O9 C3 1.182 . S
O10 Zn1 1.898 . S
O10 C4 1.167 . S
O11 Zn2 2.120 . S
O11 C4 1.299 . S
O12 Zn0 1.898 . S
O12 C7 1.167 . S
O13 Zn2 2.120 . S
O13 C7 1.299 . S
O14 Zn2 2.114 . S
O14 C16 1.166 . S
O15 Zn0 1.905 . S
O15 C16 1.182 . S
C16 O14 1.166 . S
C16 O15 1.182 . S
O17 Zn2 2.080 . S
O17 C20 1.305 . S
O18 Zn1 1.920 . S
O18 C20 1.234 . S
C19 O5 1.305 . S
C19 O6 1.234 . S
C20 O17 1.305 . S
C20 O18 1.234 . S
Zn21 O27 1.920 . S
Zn21 O33 1.898 . S
Zn21 O36 1.905 . S
Zn22 O30 1.905 . S
Zn22 O31 1.898 . S
Zn22 O39 1.920 . S
Zn23 O26 2.080 . S
Zn23 O29 2.114 . S
Zn23 O32 2.120 . S
Zn23 O34 2.120 . S
Zn23 O35 2.114 . S
Zn23 O38 2.080 . S
C24 O29 1.166 . S
C24 O30 1.182 . S
C25 O31 1.167 . S
C25 O32 1.299 . S
O26 Zn23 2.080 . S
O26 C40 1.305 . S
O27 Zn21 1.920 . S
O27 C40 1.234 . S
C28 O33 1.167 . S
C28 O34 1.299 . S
O29 Zn23 2.114 . S
O29 C24 1.166 . S
O30 Zn22 1.905 . S
O30 C24 1.182 . S
O31 Zn22 1.898 . S
O31 C25 1.167 . S
O32 Zn23 2.120 . S
O32 C25 1.299 . S
O33 Zn21 1.898 . S
O33 C28 1.167 . S
O34 Zn23 2.120 . S
O34 C28 1.299 . S
O35 Zn23 2.114 . S
O35 C37 1.166 . S
O36 Zn21 1.905 . S
O36 C37 1.182 . S
C37 O35 1.166 . S
C37 O36 1.182 . S
O38 Zn23 2.080 . S
O38 C41 1.305 . S
O39 Zn22 1.920 . S
O39 C41 1.234 . S
C40 O26 1.305 . S
C40 O27 1.234 . S
C41 O38 1.305 . S
C41 O39 1.234 . S
Zn42 O48 1.920 . S
Zn42 O54 1.898 . S
Zn42 O57 1.905 . S
Zn43 O51 1.905 . S
Zn43 O52 1.898 . S
Zn43 O60 1.920 . S
Zn44 O47 2.080 . S
Zn44 O50 2.114 . S
Zn44 O53 2.120 . S
Zn44 O55 2.120 . S
Zn44 O56 2.114 . S
Zn44 O59 2.080 . S
C45 O50 1.166 . S
C45 O51 1.182 . S
C46 O52 1.167 . S
C46 O53 1.299 . S
O47 Zn44 2.080 . S
O47 C61 1.305 . S
O48 Zn42 1.920 . S
O48 C61 1.234 . S
C49 O54 1.167 . S
C49 O55 1.299 . S
O50 Zn44 2.114 . S
O50 C45 1.166 . S
O51 Zn43 1.905 . S
O51 C45 1.182 . S
O52 Zn43 1.898 . S
O52 C46 1.167 . S
O53 Zn44 2.120 . S
O53 C46 1.299 . S
O54 Zn42 1.898 . S
O54 C49 1.167 . S
O55 Zn44 2.120 . S
O55 C49 1.299 . S
O56 Zn44 2.114 . S
O56 C58 1.166 . S
O57 Zn42 1.905 . S
O57 C58 1.182 . S
C58 O56 1.166 . S
C58 O57 1.182 . S
O59 Zn44 2.080 . S
O59 C62 1.305 . S
O60 Zn43 1.920 . S
O60 C62 1.234 . S
C61 O47 1.305 . S
C61 O48 1.234 . S
C62 O59 1.305 . S
C62 O60 1.234 . S
Zn63 O69 1.920 . S
Zn63 O75 1.898 . S
Zn63 O78 1.905 . S
Zn64 O72 1.905 . S
Zn64 O73 1.898 . S
Zn64 O81 1.920 . S
Zn65 O68 2.080 . S
Zn65 O71 2.114 . S
Zn65 O74 2.120 . S
Zn65 O76 2.120 . S
Zn65 O77 2.114 . S
Zn65 O80 2.080 . S
C66 O71 1.166 . S
C66 O72 1.182 . S
C67 O73 1.167 . S
C67 O74 1.299 . S
O68 Zn65 2.080 . S
O68 C82 1.305 . S
O69 Zn63 1.920 . S
O69 C82 1.234 . S
C70 O75 1.167 . S
C70 O76 1.299 . S
O71 Zn65 2.114 . S
O71 C66 1.166 . S
O72 Zn64 1.905 . S
O72 C66 1.182 . S
O73 Zn64 1.898 . S
O73 C67 1.167 . S
O74 Zn65 2.120 . S
O74 C67 1.299 . S
O75 Zn63 1.898 . S
O75 C70 1.167 . S
O76 Zn65 2.120 . S
O76 C70 1.299 . S
O77 Zn65 2.114 . S
O77 C79 1.166 . S
O78 Zn63 1.905 . S
O78 C79 1.182 . S
C79 O77 1.166 . S
C79 O78 1.182 . S
O80 Zn65 2.080 . S
O80 C83 1.305 . S
O81 Zn64 1.920 . S
O81 C83 1.234 . S
C82 O68 1.305 . S
C82 O69 1.234 . S
C83 O80 1.305 . S
C83 O81 1.234 . S
Zn84 O90 1.920 . S
Zn84 O96 1.898 . S
Zn84 O99 1.905 . S
Zn85 O93 1.905 . S
Zn85 O94 1.898 . S
Zn85 O102 1.920 1_556 S
Zn86 O89 2.080 . S
Zn86 O92 2.114 1_554 S
Zn86 O95 2.120 . S
Zn86 O97 2.120 . S
Zn86 O98 2.114 . S
Zn86 O101 2.080 . S
C87 O92 1.166 . S
C87 O93 1.182 . S
C88 O94 1.167 1_554 S
C88 O95 1.299 . S
O89 Zn86 2.080 . S
O89 C103 1.305 . S
O90 Zn84 1.920 . S
O90 C103 1.234 . S
C91 O96 1.167 . S
C91 O97 1.299 . S
O92 Zn86 2.114 1_556 S
O92 C87 1.166 . S
O93 Zn85 1.905 . S
O93 C87 1.182 . S
O94 Zn85 1.898 . S
O94 C88 1.167 1_556 S
O95 Zn86 2.120 . S
O95 C88 1.299 . S
O96 Zn84 1.898 . S
O96 C91 1.167 . S
O97 Zn86 2.120 . S
O97 C91 1.299 . S
O98 Zn86 2.114 . S
O98 C100 1.166 . S
O99 Zn84 1.905 . S
O99 C100 1.182 . S
C100 O98 1.166 . S
C100 O99 1.182 . S
O101 Zn86 2.080 . S
O101 C104 1.305 . S
O102 Zn85 1.920 1_554 S
O102 C104 1.234 . S
C103 O89 1.305 . S
C103 O90 1.234 . S
C104 O101 1.305 . S
C104 O102 1.234 . S
Zn105 O111 1.920 1_556 S
Zn105 O117 1.898 . S
Zn105 O120 1.905 . S
Zn106 O114 1.905 . S
Zn106 O115 1.898 . S
Zn106 O123 1.920 . S
Zn107 O110 2.080 . S
Zn107 O113 2.114 . S
Zn107 O116 2.120 . S
Zn107 O118 2.120 . S
Zn107 O119 2.114 1_554 S
Zn107 O122 2.080 . S
C108 O113 1.166 . S
C108 O114 1.182 . S
C109 O115 1.167 . S
C109 O116 1.299 . S
O110 Zn107 2.080 . S
O110 C124 1.305 . S
O111 Zn105 1.920 1_554 S
O111 C124 1.234 . S
C112 O117 1.167 1_554 S
C112 O118 1.299 . S
O113 Zn107 2.114 . S
O113 C108 1.166 . S
O114 Zn106 1.905 . S
O114 C108 1.182 . S
O115 Zn106 1.898 . S
O115 C109 1.167 . S
O116 Zn107 2.120 . S
O116 C109 1.299 . S
O117 Zn105 1.898 . S
O117 C112 1.167 1_556 S
O118 Zn107 2.120 . S
O118 C112 1.299 . S
O119 Zn107 2.114 1_556 S
O119 C121 1.166 . S
O120 Zn105 1.905 . S
O120 C121 1.182 . S
C121 O119 1.166 . S
C121 O120 1.182 . S
O122 Zn107 2.080 . S
O122 C125 1.305 . S
O123 Zn106 1.920 . S
O123 C125 1.234 . S
C124 O110 1.305 . S
C124 O111 1.234 . S
C125 O122 1.305 . S
C125 O123 1.234 . S
Zn126 O132 1.920 . S
Zn126 O138 1.898 . S
Zn126 O141 1.905 . S
Zn127 O135 1.905 . S
Zn127 O136 1.898 . S
Zn127 O144 1.920 1_554 S
Zn128 O131 2.080 . S
Zn128 O134 2.114 1_556 S
Zn128 O137 2.120 . S
Zn128 O139 2.120 . S
Zn128 O140 2.114 . S
Zn128 O143 2.080 . S
C129 O134 1.166 . S
C129 O135 1.182 . S
C130 O136 1.167 1_556 S
C130 O137 1.299 . S
O131 Zn128 2.080 . S
O131 C145 1.305 . S
O132 Zn126 1.920 . S
O132 C145 1.234 . S
C133 O138 1.167 . S
C133 O139 1.299 . S
O134 Zn128 2.114 1_554 S
O134 C129 1.166 . S
O135 Zn127 1.905 . S
O135 C129 1.182 . S
O136 Zn127 1.898 . S
O136 C130 1.167 1_554 S
O137 Zn128 2.120 . S
O137 C130 1.299 . S
O138 Zn126 1.898 . S
O138 C133 1.167 . S
O139 Zn128 2.120 . S
O139 C133 1.299 . S
O140 Zn128 2.114 . S
O140 C142 1.166 . S
O141 Zn126 1.905 . S
O141 C142 1.182 . S
C142 O140 1.166 . S
C142 O141 1.182 . S
O143 Zn128 2.080 . S
O143 C146 1.305 . S
O144 Zn127 1.920 1_556 S
O144 C146 1.234 . S
C145 O131 1.305 . S
C145 O132 1.234 . S
C146 O143 1.305 . S
C146 O144 1.234 . S
Zn147 O153 1.920 . S
Zn147 O159 1.898 . S
Zn147 O162 1.905 . S
Zn148 O156 1.905 . S
Zn148 O157 1.898 . S
Zn148 O165 1.920 1_554 S
Zn149 O152 2.080 . S
Zn149 O155 2.114 1_556 S
Zn149 O158 2.120 . S
Zn149 O160 2.120 . S
Zn149 O161 2.114 . S
Zn149 O164 2.080 . S
C150 O155 1.166 . S
C150 O156 1.182 . S
C151 O157 1.167 1_556 S
C151 O158 1.299 . S
O152 Zn149 2.080 . S
O152 C166 1.305 . S
O153 Zn147 1.920 . S
O153 C166 1.234 . S
C154 O159 1.167 . S
C154 O160 1.299 . S
O155 Zn149 2.114 1_554 S
O155 C150 1.166 . S
O156 Zn148 1.905 . S
O156 C150 1.182 . S
O157 Zn148 1.898 . S
O157 C151 1.167 1_554 S
O158 Zn149 2.120 . S
O158 C151 1.299 . S
O159 Zn147 1.898 . S
O159 C154 1.167 . S
O160 Zn149 2.120 . S
O160 C154 1.299 . S
O161 Zn149 2.114 . S
O161 C163 1.166 . S
O162 Zn147 1.905 . S
O162 C163 1.182 . S
C163 O161 1.166 . S
C163 O162 1.182 . S
O164 Zn149 2.080 . S
O164 C167 1.305 . S
O165 Zn148 1.920 1_556 S
O165 C167 1.234 . S
C166 O152 1.305 . S
C166 O153 1.234 . S
C167 O164 1.305 . S
C167 O165 1.234 . S
C168 C169 1.369 . S
C168 C170 1.419 . S
C168 H172 0.930 . S
C169 C168 1.369 . S
C169 C178 1.429 . S
C170 C168 1.419 . S
C170 C171 1.363 . S
C170 H173 0.929 . S
C171 C170 1.363 . S
C171 C177 1.428 . S
H172 C168 0.930 . S
H173 C170 0.929 . S
S174 N175 1.613 . S
S174 N176 1.610 . S
N175 S174 1.613 . S
N175 C178 1.350 . S
N176 S174 1.610 . S
N176 C177 1.351 . S
C177 C171 1.428 . S
C177 N176 1.351 . S
C177 C178 1.434 . S
C178 C169 1.429 . S
C178 N175 1.350 . S
C178 C177 1.434 . S
C179 C180 1.369 . S
C179 C181 1.419 . S
C179 H183 0.930 . S
C180 C179 1.369 . S
C180 C189 1.429 . S
C181 C179 1.419 . S
C181 C182 1.363 . S
C181 H184 0.929 . S
C182 C181 1.363 . S
C182 C188 1.428 . S
H183 C179 0.930 . S
H184 C181 0.929 . S
S185 N186 1.613 1_554 S
S185 N187 1.610 1_554 S
N186 S185 1.613 1_556 S
N186 C189 1.350 . S
N187 S185 1.610 1_556 S
N187 C188 1.351 . S
C188 C182 1.428 . S
C188 N187 1.351 . S
C188 C189 1.434 . S
C189 C180 1.429 . S
C189 N186 1.350 . S
C189 C188 1.434 . S
C190 C191 1.369 . S
C190 C192 1.419 . S
C190 H194 0.930 . S
C191 C190 1.369 . S
C191 C200 1.429 . S
C192 C190 1.419 . S
C192 C193 1.363 . S
C192 H195 0.929 . S
C193 C192 1.363 . S
C193 C199 1.428 . S
H194 C190 0.930 . S
H195 C192 0.929 . S
S196 N197 1.613 . S
S196 N198 1.610 . S
N197 S196 1.613 . S
N197 C200 1.350 . S
N198 S196 1.610 . S
N198 C199 1.351 . S
C199 C193 1.428 . S
C199 N198 1.351 . S
C199 C200 1.434 . S
C200 C191 1.429 . S
C200 N197 1.350 . S
C200 C199 1.434 . S
C201 C202 1.369 . S
C201 C203 1.419 . S
C201 H205 0.930 . S
C202 C201 1.369 . S
C202 C211 1.429 . S
C203 C201 1.419 . S
C203 C204 1.363 . S
C203 H206 0.929 . S
C204 C203 1.363 . S
C204 C210 1.428 . S
H205 C201 0.930 . S
H206 C203 0.929 . S
S207 N208 1.613 . S
S207 N209 1.610 . S
N208 S207 1.613 . S
N208 C211 1.350 . S
N209 S207 1.610 . S
N209 C210 1.351 . S
C210 C204 1.428 . S
C210 N209 1.351 . S
C210 C211 1.434 . S
C211 C202 1.429 . S
C211 N208 1.350 . S
C211 C210 1.434 . S
C212 C213 1.369 . S
C212 C214 1.419 1_565 S
C212 H216 0.930 . S
C213 C212 1.369 . S
C213 C222 1.429 . S
C214 C212 1.419 1_545 S
C214 C215 1.363 . S
C214 H217 0.929 . S
C215 C214 1.363 . S
C215 C221 1.428 . S
H216 C212 0.930 . S
H217 C214 0.929 . S
S218 N219 1.613 1_545 S
S218 N220 1.610 . S
N219 S218 1.613 1_565 S
N219 C222 1.350 . S
N220 S218 1.610 . S
N220 C221 1.351 . S
C221 C215 1.428 . S
C221 N220 1.351 . S
C221 C222 1.434 1_545 S
C222 C213 1.429 . S
C222 N219 1.350 . S
C222 C221 1.434 1_565 S
C223 C224 1.369 . S
C223 C225 1.419 . S
C223 H227 0.930 . S
C224 C223 1.369 . S
C224 C233 1.429 . S
C225 C223 1.419 . S
C225 C226 1.363 . S
C225 H228 0.929 . S
C226 C225 1.363 . S
C226 C232 1.428 . S
H227 C223 0.930 . S
H228 C225 0.929 . S
S229 N230 1.613 . S
S229 N231 1.610 . S
N230 S229 1.613 . S
N230 C233 1.350 . S
N231 S229 1.610 . S
N231 C232 1.351 . S
C232 C226 1.428 . S
C232 N231 1.351 . S
C232 C233 1.434 . S
C233 C224 1.429 . S
C233 N230 1.350 . S
C233 C232 1.434 . S
C234 C235 1.369 . S
C234 C236 1.419 1_565 S
C234 H238 0.930 . S
C235 C234 1.369 . S
C235 C244 1.429 . S
C236 C234 1.419 1_545 S
C236 C237 1.363 . S
C236 H239 0.929 . S
C237 C236 1.363 . S
C237 C243 1.428 . S
H238 C234 0.930 . S
H239 C236 0.929 . S
S240 N241 1.613 1_545 S
S240 N242 1.610 . S
N241 S240 1.613 1_565 S
N241 C244 1.350 . S
N242 S240 1.610 . S
N242 C243 1.351 . S
C243 C237 1.428 . S
C243 N242 1.351 . S
C243 C244 1.434 1_545 S
C244 C235 1.429 . S
C244 N241 1.350 . S
C244 C243 1.434 1_565 S
C245 C246 1.369 . S
C245 C247 1.419 . S
C245 H249 0.930 . S
C246 C245 1.369 . S
C246 C255 1.429 . S
C247 C245 1.419 . S
C247 C248 1.363 . S
C247 H250 0.929 . S
C248 C247 1.363 . S
C248 C254 1.428 . S
H249 C245 0.930 . S
H250 C247 0.929 . S
S251 N252 1.613 . S
S251 N253 1.610 . S
N252 S251 1.613 . S
N252 C255 1.350 . S
N253 S251 1.610 . S
N253 C254 1.351 . S
C254 C248 1.428 . S
C254 N253 1.351 . S
C254 C255 1.434 . S
C255 C246 1.429 . S
C255 N252 1.350 . S
C255 C254 1.434 . S
C256 C257 1.369 . S
C256 C258 1.419 . S
C256 H260 0.930 . S
C257 C256 1.369 . S
C257 C266 1.429 1_554 S
C258 C256 1.419 . S
C258 C259 1.363 1_554 S
C258 H261 0.929 . S
C259 C258 1.363 1_556 S
C259 C265 1.428 . S
H260 C256 0.930 . S
H261 C258 0.929 . S
S262 N263 1.613 . S
S262 N264 1.610 . S
N263 S262 1.613 . S
N263 C266 1.350 . S
N264 S262 1.610 . S
N264 C265 1.351 . S
C265 C259 1.428 . S
C265 N264 1.351 . S
C265 C266 1.434 . S
C266 C257 1.429 1_556 S
C266 N263 1.350 . S
C266 C265 1.434 . S
C267 C268 1.369 . S
C267 C269 1.419 1_565 S
C267 H271 0.930 . S
C268 C267 1.369 . S
C268 C277 1.429 1_554 S
C269 C267 1.419 1_545 S
C269 C270 1.363 1_554 S
C269 H272 0.929 . S
C270 C269 1.363 1_556 S
C270 C276 1.428 . S
H271 C267 0.930 . S
H272 C269 0.929 . S
S273 N274 1.613 . S
S273 N275 1.610 1_565 S
N274 S273 1.613 . S
N274 C277 1.350 . S
N275 S273 1.610 1_545 S
N275 C276 1.351 . S
C276 C270 1.428 . S
C276 N275 1.351 . S
C276 C277 1.434 1_545 S
C277 C268 1.429 1_556 S
C277 N274 1.350 . S
C277 C276 1.434 1_565 S
C278 C279 1.369 . S
C278 C280 1.419 1_556 S
C278 H282 0.930 . S
C279 C278 1.369 . S
C279 C288 1.429 . S
C280 C278 1.419 1_554 S
C280 C281 1.363 . S
C280 H283 0.929 . S
C281 C280 1.363 . S
C281 C287 1.428 . S
H282 C278 0.930 . S
H283 C280 0.929 . S
S284 N285 1.613 . S
S284 N286 1.610 1_556 S
N285 S284 1.613 . S
N285 C288 1.350 . S
N286 S284 1.610 1_554 S
N286 C287 1.351 . S
C287 C281 1.428 . S
C287 N286 1.351 . S
C287 C288 1.434 1_554 S
C288 C279 1.429 . S
C288 N285 1.350 . S
C288 C287 1.434 1_556 S
C289 C290 1.369 . S
C289 C291 1.419 1_545 S
C289 H293 0.930 . S
C290 C289 1.369 . S
C290 C299 1.429 1_556 S
C291 C289 1.419 1_565 S
C291 C292 1.363 1_556 S
C291 H294 0.929 . S
C292 C291 1.363 1_554 S
C292 C298 1.428 . S
H293 C289 0.930 . S
H294 C291 0.929 . S
S295 N296 1.613 . S
S295 N297 1.610 1_545 S
N296 S295 1.613 . S
N296 C299 1.350 . S
N297 S295 1.610 1_565 S
N297 C298 1.351 . S
C298 C292 1.428 . S
C298 N297 1.351 . S
C298 C299 1.434 1_565 S
C299 C290 1.429 1_554 S
C299 N296 1.350 . S
C299 C298 1.434 1_545 S
C300 C301 1.369 . S
C300 C302 1.419 . S
C300 H304 0.930 . S
C301 C300 1.369 . S
C301 C310 1.429 . S
C302 C300 1.419 . S
C302 C303 1.363 1_554 S
C302 H305 0.929 . S
C303 C302 1.363 1_556 S
C303 C309 1.428 1_556 S
H304 C300 0.930 . S
H305 C302 0.929 . S
S306 N307 1.613 . S
S306 N308 1.610 . S
N307 S306 1.613 . S
N307 C310 1.350 . S
N308 S306 1.610 . S
N308 C309 1.351 . S
C309 C303 1.428 1_554 S
C309 N308 1.351 . S
C309 C310 1.434 . S
C310 C301 1.429 . S
C310 N307 1.350 . S
C310 C309 1.434 . S
C311 C312 1.369 . S
C311 C313 1.419 . S
C311 H315 0.930 . S
C312 C311 1.369 . S
C312 C321 1.429 . S
C313 C311 1.419 . S
C313 C314 1.363 1_554 S
C313 H316 0.929 1_554 S
C314 C313 1.363 1_556 S
C314 C320 1.428 1_556 S
H315 C311 0.930 . S
H316 C313 0.929 1_556 S
S317 N318 1.613 . S
S317 N319 1.610 . S
N318 S317 1.613 . S
N318 C321 1.350 . S
N319 S317 1.610 . S
N319 C320 1.351 . S
C320 C314 1.428 1_554 S
C320 N319 1.351 . S
C320 C321 1.434 . S
C321 C312 1.429 . S
C321 N318 1.350 . S
C321 C320 1.434 . S
C322 C323 1.369 1_556 S
C322 C324 1.419 . S
C322 H326 0.930 . S
C323 C322 1.369 1_554 S
C323 C332 1.429 1_554 S
C324 C322 1.419 . S
C324 C325 1.363 . S
C324 H327 0.929 . S
C325 C324 1.363 . S
C325 C331 1.428 . S
H326 C322 0.930 . S
H327 C324 0.929 . S
S328 N329 1.613 . S
S328 N330 1.610 . S
N329 S328 1.613 . S
N329 C332 1.350 . S
N330 S328 1.610 . S
N330 C331 1.351 . S
C331 C325 1.428 . S
C331 N330 1.351 . S
C331 C332 1.434 . S
C332 C323 1.429 1_556 S
C332 N329 1.350 . S
C332 C331 1.434 . S
C333 C334 1.369 . S
C333 C335 1.419 . S
C333 H337 0.930 . S
C334 C333 1.369 . S
C334 C343 1.429 . S
C335 C333 1.419 . S
C335 C336 1.363 1_556 S
C335 H338 0.929 1_556 S
C336 C335 1.363 1_554 S
C336 C342 1.428 1_554 S
H337 C333 0.930 . S
H338 C335 0.929 1_554 S
S339 N340 1.613 . S
S339 N341 1.610 . S
N340 S339 1.613 . S
N340 C343 1.350 . S
N341 S339 1.610 . S
N341 C342 1.351 . S
C342 C336 1.428 1_556 S
C342 N341 1.351 . S
C342 C343 1.434 . S
C343 C334 1.429 . S
C343 N340 1.350 . S
C343 C342 1.434 . S
C344 C345 1.369 . S
C344 C346 1.419 . S
C344 H348 0.930 . S
C345 C344 1.369 . S
C345 C354 1.429 . S
C346 C344 1.419 . S
C346 C347 1.363 . S
C346 H349 0.929 . S
C347 C346 1.363 . S
C347 C353 1.428 . S
H348 C344 0.930 . S
H349 C346 0.929 . S
S350 N351 1.613 . S
S350 N352 1.610 . S
N351 S350 1.613 . S
N351 C354 1.350 . S
N352 S350 1.610 . S
N352 C353 1.351 . S
C353 C347 1.428 . S
C353 N352 1.351 . S
C353 C354 1.434 . S
C354 C345 1.429 . S
C354 N351 1.350 . S
C354 C353 1.434 . S
C355 C356 1.369 . S
C355 C357 1.419 . S
C355 H359 0.930 . S
C356 C355 1.369 . S
C356 C365 1.429 . S
C357 C355 1.419 . S
C357 C358 1.363 . S
C357 H360 0.929 . S
C358 C357 1.363 . S
C358 C364 1.428 . S
H359 C355 0.930 . S
H360 C357 0.929 . S
S361 N362 1.613 . S
S361 N363 1.610 . S
N362 S361 1.613 . S
N362 C365 1.350 . S
N363 S361 1.610 . S
N363 C364 1.351 . S
C364 C358 1.428 . S
C364 N363 1.351 . S
C364 C365 1.434 . S
C365 C356 1.429 . S
C365 N362 1.350 . S
C365 C364 1.434 . S
C366 C367 1.369 . S
C366 C368 1.419 . S
C366 H370 0.930 . S
C367 C366 1.369 . S
C367 C376 1.429 . S
C368 C366 1.419 . S
C368 C369 1.363 . S
C368 H371 0.929 . S
C369 C368 1.363 . S
C369 C375 1.428 . S
H370 C366 0.930 . S
H371 C368 0.929 . S
S372 N373 1.613 . S
S372 N374 1.610 . S
N373 S372 1.613 . S
N373 C376 1.350 . S
N374 S372 1.610 . S
N374 C375 1.351 . S
C375 C369 1.428 . S
C375 N374 1.351 . S
C375 C376 1.434 . S
C376 C367 1.429 . S
C376 N373 1.350 . S
C376 C375 1.434 . S
C377 C378 1.369 . S
C377 C379 1.419 . S
C377 H381 0.930 . S
C378 C377 1.369 . S
C378 C387 1.429 . S
C379 C377 1.419 . S
C379 C380 1.363 . S
C379 H382 0.929 . S
C380 C379 1.363 . S
C380 C386 1.428 . S
H381 C377 0.930 . S
H382 C379 0.929 . S
S383 N384 1.613 . S
S383 N385 1.610 . S
N384 S383 1.613 . S
N384 C387 1.350 . S
N385 S383 1.610 . S
N385 C386 1.351 . S
C386 C380 1.428 . S
C386 N385 1.351 . S
C386 C387 1.434 . S
C387 C378 1.429 . S
C387 N384 1.350 . S
C387 C386 1.434 . S
C388 C389 1.369 . S
C388 C390 1.419 1_455 S
C388 H392 0.930 . S
C389 C388 1.369 . S
C389 C398 1.429 . S
C390 C388 1.419 1_655 S
C390 C391 1.363 . S
C390 H393 0.929 . S
C391 C390 1.363 . S
C391 C397 1.428 . S
H392 C388 0.930 . S
H393 C390 0.929 . S
S394 N395 1.616 . S
S394 N396 1.608 1_455 S
N395 S394 1.616 . S
N395 C398 1.350 . S
N396 S394 1.608 1_655 S
N396 C397 1.351 . S
C397 C391 1.428 . S
C397 N396 1.351 . S
C397 C398 1.434 1_655 S
C398 C389 1.429 . S
C398 N395 1.350 . S
C398 C397 1.434 1_455 S
C399 C400 1.369 . S
C399 C401 1.419 1_655 S
C399 H403 0.930 . S
C400 C399 1.369 . S
C400 C409 1.429 . S
C401 C399 1.419 1_455 S
C401 C402 1.363 . S
C401 H404 0.929 . S
C402 C401 1.363 . S
C402 C408 1.428 . S
H403 C399 0.930 . S
H404 C401 0.929 . S
S405 N406 1.613 . S
S405 N407 1.610 1_655 S
N406 S405 1.613 . S
N406 C409 1.350 . S
N407 S405 1.610 1_455 S
N407 C408 1.351 . S
C408 C402 1.428 . S
C408 N407 1.351 . S
C408 C409 1.434 1_455 S
C409 C400 1.429 . S
C409 N406 1.350 . S
C409 C408 1.434 1_655 S
C410 C411 1.369 . S
C410 C412 1.419 . S
C410 H414 0.930 . S
C411 C410 1.369 . S
C411 C420 1.429 . S
C412 C410 1.419 . S
C412 C413 1.363 . S
C412 H415 0.929 . S
C413 C412 1.363 . S
C413 C419 1.428 . S
H414 C410 0.930 . S
H415 C412 0.929 . S
S416 N417 1.613 . S
S416 N418 1.610 . S
N417 S416 1.613 . S
N417 C420 1.350 1_556 S
N418 S416 1.610 . S
N418 C419 1.351 1_556 S
C419 C413 1.428 . S
C419 N418 1.351 1_554 S
C419 C420 1.434 . S
C420 C411 1.429 . S
C420 N417 1.350 1_554 S
C420 C419 1.434 . S
C421 C422 1.369 . S
C421 C423 1.419 . S
C421 H425 0.930 . S
C422 C421 1.369 . S
C422 C431 1.429 . S
C423 C421 1.419 . S
C423 C424 1.363 . S
C423 H426 0.929 . S
C424 C423 1.363 . S
C424 C430 1.428 . S
H425 C421 0.930 . S
H426 C423 0.929 . S
S427 N428 1.613 . S
S427 N429 1.610 . S
N428 S427 1.613 . S
N428 C431 1.350 . S
N429 S427 1.610 . S
N429 C430 1.351 . S
C430 C424 1.428 . S
C430 N429 1.351 . S
C430 C431 1.434 . S
C431 C422 1.429 . S
C431 N428 1.350 . S
C431 C430 1.434 . S
C169 C19 1.406 . S
C171 C167 1.409 . S
C180 C146 1.404 . S
C182 C40 1.413 . S
C191 C124 1.415 . S
C193 C62 1.406 . S
C202 C104 1.409 . S
C204 C83 1.407 . S
C213 C46 1.515 . S
C215 C7 1.508 . S
C224 C28 1.509 . S
C226 C67 1.504 . S
C235 C70 1.254 . S
C237 C25 1.264 . S
C246 C49 1.263 . S
C248 C4 1.254 . S
C257 C88 1.510 . S
C259 C130 1.514 . S
C268 C112 1.511 . S
C270 C151 1.515 . S
C279 C154 1.261 . S
C281 C109 1.264 . S
C290 C133 1.263 . S
C292 C91 1.254 . S
C301 C16 1.305 . S
C303 C20 1.338 . S
C312 C37 1.307 . S
C314 C41 1.336 . S
C323 C61 1.334 . S
C325 C45 1.309 . S
C334 C66 1.309 . S
C336 C82 1.334 . S
C345 C103 1.337 . S
C347 C87 1.316 . S
C356 C121 1.319 . S
C358 C125 1.334 . S
C367 C129 1.316 . S
C369 C145 1.331 . S
C378 C150 1.305 . S
C380 C166 1.338 . S
C389 C3 1.317 . S
C391 C24 1.313 . S
C400 C79 1.309 . S
C402 C58 1.320 . S
C411 C100 1.320 . S
C413 C108 1.320 . S
C422 C163 1.309 . S
C424 C142 1.322 . S
