# Generated by pormake.
# Topology zfa, (5)-cn, num edge types: 1
# Building blocks:
#     Node 0, Type 0, BuildingBlock: XOMCOT_clean_sbu_1, # of connection points: 5
#     Node 1, Type 0, BuildingBlock: XOMCOT_clean_sbu_1, # of connection points: 5
#     Node 2, Type 0, BuildingBlock: XOMCOT_clean_sbu_1, # of connection points: 5
#     Node 3, Type 0, BuildingBlock: XOMCOT_clean_sbu_1, # of connection points: 5
#     Node 4, Type 0, BuildingBlock: XOMCOT_clean_sbu_1, # of connection points: 5
#     Node 5, Type 0, BuildingBlock: XOMCOT_clean_sbu_1, # of connection points: 5
#     Node 6, Type 0, BuildingBlock: XOMCOT_clean_sbu_1, # of connection points: 5
#     Node 7, Type 0, BuildingBlock: XOMCOT_clean_sbu_1, # of connection points: 5
#     Edge 8, Type (0, 0), BuildingBlock: UVAHIK_clean_linker_0, # of connection points: 2
#     Edge 9, Type (0, 0), BuildingBlock: UVAHIK_clean_linker_0, # of connection points: 2
#     Edge 10, Type (0, 0), BuildingBlock: UVAHIK_clean_linker_0, # of connection points: 2
#     Edge 11, Type (0, 0), BuildingBlock: UVAHIK_clean_linker_0, # of connection points: 2
#     Edge 12, Type (0, 0), BuildingBlock: UVAHIK_clean_linker_0, # of connection points: 2
#     Edge 13, Type (0, 0), BuildingBlock: UVAHIK_clean_linker_0, # of connection points: 2
#     Edge 14, Type (0, 0), BuildingBlock: UVAHIK_clean_linker_0, # of connection points: 2
#     Edge 15, Type (0, 0), BuildingBlock: UVAHIK_clean_linker_0, # of connection points: 2
#     Edge 16, Type (0, 0), BuildingBlock: UVAHIK_clean_linker_0, # of connection points: 2
#     Edge 17, Type (0, 0), BuildingBlock: UVAHIK_clean_linker_0, # of connection points: 2
#     Edge 18, Type (0, 0), BuildingBlock: UVAHIK_clean_linker_0, # of connection points: 2
#     Edge 19, Type (0, 0), BuildingBlock: UVAHIK_clean_linker_0, # of connection points: 2
#     Edge 20, Type (0, 0), BuildingBlock: UVAHIK_clean_linker_0, # of connection points: 2
#     Edge 21, Type (0, 0), BuildingBlock: UVAHIK_clean_linker_0, # of connection points: 2
#     Edge 22, Type (0, 0), BuildingBlock: UVAHIK_clean_linker_0, # of connection points: 2
#     Edge 23, Type (0, 0), BuildingBlock: UVAHIK_clean_linker_0, # of connection points: 2
#     Edge 24, Type (0, 0), BuildingBlock: UVAHIK_clean_linker_0, # of connection points: 2
#     Edge 25, Type (0, 0), BuildingBlock: UVAHIK_clean_linker_0, # of connection points: 2
#     Edge 26, Type (0, 0), BuildingBlock: UVAHIK_clean_linker_0, # of connection points: 2
#     Edge 27, Type (0, 0), BuildingBlock: UVAHIK_clean_linker_0, # of connection points: 2
# Relax obj value: 0.182
# Max RMSD: 0.168
# Mean RMSD: 0.168
data_MOF--net-zfa--node1-XOMCOT_clean_sbu_1--edge1-UVAHIK_clean_linker_0
_symmetry_space_group_name_H-M    P1
_symmetry_Int_Tables_number       1
_symmetry_cell_setting            triclinic
loop_
_symmetry_equiv_pos_as_xyz
'x, y, z'
_cell_length_a     39.30713
_cell_length_b     39.334586
_cell_length_c     53.727878
_cell_angle_alpha  90.027605
_cell_angle_beta   89.907939
_cell_angle_gamma 89.967168
loop_
_atom_site_label
_atom_site_type_symbol
_atom_site_fract_x
_atom_site_fract_y
_atom_site_fract_z
_atom_type_partial_charge
C0 C 0.12604 0.20986 0.31704 0.0
C1 C 0.11505 0.17776 0.31083 0.0
N2 N 0.09848 0.16443 0.33056 0.0
N3 N 0.11695 0.21662 0.34072 0.0
C4 C 0.10012 0.18859 0.34842 0.0
H5 H 0.13899 0.22756 0.30489 0.0
Co6 Co 0.12057 0.25831 0.35713 0.0
C7 C 0.15113 0.22971 0.40424 0.0
O8 O 0.18081 0.24387 0.40009 0.0
N9 N 0.12226 0.30122 0.37335 0.0
C10 C 0.12618 0.34445 0.40007 0.0
C11 C 0.13575 0.31146 0.39525 0.0
C12 C 0.1051 0.32894 0.36518 0.0
N13 N 0.10664 0.35537 0.38117 0.0
O14 O 0.07235 0.25801 0.36131 0.0
H15 H 0.15054 0.29618 0.40774 0.0
H16 H 0.09039 0.32938 0.34825 0.0
O17 O 0.12623 0.23425 0.38926 0.0
C18 C 0.059 0.26838 0.3411 0.0
O19 O 0.079 0.27719 0.32257 0.0
N20 N 0.1679 0.25945 0.35014 0.0
C21 C 0.23228 0.26019 0.3277 0.0
C22 C 0.22003 0.23079 0.33948 0.0
C23 C 0.18772 0.23083 0.35033 0.0
C24 C 0.17966 0.28837 0.33904 0.0
C25 C 0.21187 0.28944 0.32807 0.0
H26 H 0.178 0.20733 0.35797 0.0
H27 H 0.16341 0.31038 0.33734 0.0
H28 H 0.08758 0.18687 0.36632 0.0
H29 H 0.11846 0.16559 0.29294 0.0
H30 H 0.13249 0.35894 0.41656 0.0
H31 H 0.23446 0.20734 0.3392 0.0
H32 H 0.22021 0.31274 0.31925 0.0
C33 C 0.30632 0.63409 0.81993 0.0
C34 C 0.33936 0.62459 0.81502 0.0
N35 N 0.3505 0.60503 0.83395 0.0
N36 N 0.29672 0.62083 0.84197 0.0
C37 C 0.32415 0.60338 0.85009 0.0
H38 H 0.28995 0.64867 0.8078 0.0
Co39 Co 0.25318 0.62088 0.85568 0.0
C40 C 0.26722 0.61161 0.9086 0.0
O41 O 0.24652 0.5854 0.90844 0.0
N42 N 0.20904 0.62046 0.8694 0.0
C43 C 0.1623 0.63299 0.89105 0.0
C44 C 0.19518 0.64279 0.88563 0.0
C45 C 0.1841 0.59751 0.86522 0.0
N46 N 0.15558 0.60432 0.87828 0.0
O47 O 0.25618 0.57271 0.85885 0.0
H48 H 0.20826 0.66465 0.89321 0.0
H49 H 0.18642 0.57622 0.85268 0.0
O50 O 0.27246 0.62817 0.88853 0.0
C51 C 0.24779 0.55981 0.83802 0.0
O52 O 0.23806 0.58018 0.81998 0.0
N53 N 0.24971 0.66743 0.84996 0.0
C54 C 0.24747 0.7327 0.82991 0.0
C55 C 0.27059 0.72467 0.84899 0.0
C56 C 0.27142 0.69166 0.85876 0.0
C57 C 0.22633 0.6751 0.83217 0.0
C58 C 0.22454 0.70761 0.82206 0.0
H59 H 0.29073 0.68511 0.87223 0.0
H60 H 0.20991 0.65533 0.825 0.0
H61 H 0.324 0.58804 0.86681 0.0
H62 H 0.35372 0.63095 0.79846 0.0
H63 H 0.14501 0.6455 0.9038 0.0
H64 H 0.28902 0.74314 0.8554 0.0
H65 H 0.20592 0.71275 0.80771 0.0
C66 C 0.88643 0.80441 0.31407 0.0
C67 C 0.89706 0.83672 0.30818 0.0
N68 N 0.91206 0.85049 0.3284 0.0
N69 N 0.89408 0.79793 0.33803 0.0
C70 C 0.90979 0.82633 0.34624 0.0
H71 H 0.87468 0.78639 0.30153 0.0
Co72 Co 0.89017 0.75607 0.35413 0.0
C73 C 0.85568 0.78407 0.40026 0.0
O74 O 0.82641 0.7703 0.39429 0.0
N75 N 0.88822 0.71305 0.37005 0.0
C76 C 0.88162 0.66923 0.39591 0.0
C77 C 0.87215 0.70218 0.39084 0.0
C78 C 0.90684 0.68581 0.36274 0.0
N79 N 0.90365 0.65901 0.37825 0.0
O80 O 0.93816 0.75729 0.35983 0.0
H81 H 0.8552 0.71692 0.40223 0.0
H82 H 0.92346 0.68588 0.34675 0.0
O83 O 0.88192 0.77959 0.3864 0.0
C84 C 0.95303 0.74762 0.33997 0.0
O85 O 0.93447 0.73839 0.3208 0.0
N86 N 0.84325 0.75405 0.34554 0.0
C87 C 0.77937 0.7515 0.32246 0.0
C88 C 0.79097 0.78152 0.33372 0.0
C89 C 0.82303 0.78239 0.34484 0.0
C90 C 0.83232 0.72466 0.33461 0.0
C91 C 0.80037 0.7227 0.32333 0.0
H92 H 0.83203 0.80624 0.35238 0.0
H93 H 0.84894 0.70286 0.33347 0.0
H94 H 0.92104 0.82837 0.36454 0.0
H95 H 0.89443 0.84874 0.29019 0.0
H96 H 0.87322 0.65418 0.41162 0.0
H97 H 0.7761 0.80468 0.333 0.0
H98 H 0.7926 0.69898 0.31485 0.0
C99 C 0.69957 0.37489 0.82045 0.0
C100 C 0.66678 0.38519 0.81557 0.0
N101 N 0.65617 0.40521 0.83443 0.0
N102 N 0.70956 0.38818 0.84237 0.0
C103 C 0.68256 0.40637 0.85049 0.0
H104 H 0.71557 0.35989 0.80828 0.0
Co105 Co 0.75311 0.38763 0.85593 0.0
C106 C 0.73877 0.3966 0.90901 0.0
O107 O 0.7599 0.42247 0.90922 0.0
N108 N 0.79722 0.38747 0.86947 0.0
C109 C 0.84384 0.37461 0.89103 0.0
C110 C 0.81085 0.36511 0.88573 0.0
C111 C 0.82241 0.41008 0.86512 0.0
N112 N 0.85087 0.4031 0.87813 0.0
O113 O 0.75071 0.43593 0.8594 0.0
H114 H 0.79752 0.34349 0.89344 0.0
H115 H 0.82029 0.43126 0.85248 0.0
O116 O 0.73367 0.38036 0.88879 0.0
C117 C 0.75884 0.44916 0.83861 0.0
O118 O 0.76774 0.42908 0.82015 0.0
N119 N 0.75623 0.34105 0.84994 0.0
C120 C 0.75952 0.27531 0.83046 0.0
C121 C 0.73775 0.28296 0.85055 0.0
C122 C 0.7363 0.31618 0.85997 0.0
C123 C 0.77816 0.33394 0.83102 0.0
C124 C 0.78025 0.30135 0.82103 0.0
H125 H 0.71824 0.32213 0.87452 0.0
H126 H 0.79304 0.35423 0.82288 0.0
H127 H 0.68312 0.42195 0.86709 0.0
H128 H 0.65228 0.37914 0.79904 0.0
H129 H 0.86098 0.36205 0.90382 0.0
H130 H 0.72142 0.26368 0.85857 0.0
H131 H 0.79683 0.29715 0.80521 0.0
C132 C 0.63364 0.31212 0.22755 0.0
C133 C 0.62189 0.34476 0.23036 0.0
N134 N 0.6004 0.3516 0.2115 0.0
N135 N 0.61997 0.2984 0.20684 0.0
C136 C 0.59993 0.32316 0.19738 0.0
H137 H 0.64972 0.29875 0.24058 0.0
Co138 Co 0.62218 0.25276 0.19757 0.0
C139 C 0.64601 0.25401 0.14503 0.0
O140 O 0.66624 0.22839 0.14995 0.0
N141 N 0.62366 0.2053 0.18875 0.0
C142 C 0.64022 0.15149 0.18302 0.0
C143 C 0.65079 0.184 0.18782 0.0
C144 C 0.59684 0.18442 0.18431 0.0
N145 N 0.60616 0.15163 0.18104 0.0
O146 O 0.57372 0.25274 0.19467 0.0
H147 H 0.67709 0.1912 0.19015 0.0
H148 H 0.57065 0.19264 0.18428 0.0
O149 O 0.62735 0.26645 0.16234 0.0
C150 C 0.56218 0.2456 0.21624 0.0
O151 O 0.58412 0.23913 0.23407 0.0
N152 N 0.66895 0.25329 0.20379 0.0
C153 C 0.73442 0.25515 0.22359 0.0
C154 C 0.7266 0.27305 0.20167 0.0
C155 C 0.6934 0.27222 0.19222 0.0
C156 C 0.6759 0.23682 0.2255 0.0
C157 C 0.70845 0.23698 0.23551 0.0
H158 H 0.68719 0.28775 0.1763 0.0
H159 H 0.65569 0.22375 0.23526 0.0
H160 H 0.58339 0.31949 0.18151 0.0
H161 H 0.62768 0.36165 0.24568 0.0
H162 H 0.65654 0.12946 0.18121 0.0
H163 H 0.74576 0.28797 0.19216 0.0
H164 H 0.71287 0.22392 0.25294 0.0
C165 C 0.20111 0.13944 0.72867 0.0
C166 C 0.1674 0.13116 0.7315 0.0
N167 N 0.15844 0.11014 0.7128 0.0
N168 N 0.21339 0.12409 0.70809 0.0
C169 C 0.18681 0.10644 0.6988 0.0
H170 H 0.21594 0.15474 0.74135 0.0
Co171 Co 0.2586 0.12314 0.69772 0.0
C172 C 0.25594 0.14222 0.64428 0.0
O173 O 0.28266 0.16165 0.6475 0.0
N174 N 0.30546 0.12153 0.68753 0.0
C175 C 0.35921 0.1349 0.67804 0.0
C176 C 0.32811 0.14737 0.68507 0.0
C177 C 0.32415 0.09348 0.68201 0.0
N178 N 0.35673 0.10099 0.67622 0.0
O179 O 0.25624 0.07459 0.69719 0.0
H180 H 0.32271 0.17406 0.68755 0.0
H181 H 0.31434 0.06783 0.68211 0.0
O182 O 0.24346 0.12593 0.66277 0.0
C183 C 0.26308 0.06537 0.71938 0.0
O184 O 0.27121 0.08908 0.73557 0.0
N185 N 0.26056 0.17015 0.70188 0.0
C186 C 0.26215 0.2365 0.71997 0.0
C187 C 0.24338 0.22848 0.69848 0.0
C188 C 0.2425 0.19484 0.68986 0.0
C189 C 0.27796 0.17743 0.72312 0.0
C190 C 0.2795 0.21036 0.73227 0.0
H191 H 0.22629 0.18852 0.67434 0.0
H192 H 0.29033 0.15716 0.73325 0.0
H193 H 0.18882 0.0897 0.68287 0.0
H194 H 0.15103 0.13944 0.74653 0.0
H195 H 0.38212 0.14961 0.67504 0.0
H196 H 0.229 0.24782 0.68874 0.0
H197 H 0.29312 0.21495 0.74945 0.0
C198 C 0.37358 0.69949 0.22975 0.0
C199 C 0.38189 0.66596 0.23387 0.0
N200 N 0.40099 0.65494 0.21461 0.0
N201 N 0.38724 0.70947 0.20794 0.0
C202 C 0.40374 0.68186 0.19915 0.0
H203 H 0.35922 0.71577 0.24213 0.0
Co204 Co 0.38723 0.75288 0.19441 0.0
C205 C 0.39901 0.73839 0.14159 0.0
O206 O 0.4253 0.75899 0.14203 0.0
N207 N 0.38732 0.79666 0.18075 0.0
C208 C 0.37557 0.84218 0.15779 0.0
C209 C 0.36656 0.80911 0.16295 0.0
C210 C 0.40833 0.82268 0.18633 0.0
N211 N 0.40202 0.8506 0.17247 0.0
O212 O 0.43594 0.75094 0.19245 0.0
H213 H 0.34647 0.79484 0.15402 0.0
H214 H 0.42787 0.82131 0.20039 0.0
O215 O 0.38177 0.73349 0.16141 0.0
C216 C 0.44747 0.75849 0.21392 0.0
O217 O 0.42553 0.76614 0.23156 0.0
N218 N 0.34042 0.75561 0.19902 0.0
C219 C 0.27395 0.75801 0.21701 0.0
C220 C 0.28294 0.73541 0.19777 0.0
C221 C 0.31653 0.73449 0.18904 0.0
C222 C 0.33196 0.77832 0.21711 0.0
C223 C 0.2989 0.78007 0.22629 0.0
H224 H 0.32364 0.71578 0.17524 0.0
H225 H 0.35152 0.79407 0.22531 0.0
H226 H 0.41884 0.68206 0.18229 0.0
H227 H 0.37478 0.65105 0.24998 0.0
H228 H 0.36414 0.85837 0.14383 0.0
H229 H 0.26446 0.71798 0.19002 0.0
H230 H 0.2935 0.79736 0.24149 0.0
C231 C 0.81162 0.88407 0.73186 0.0
C232 C 0.84403 0.89613 0.73553 0.0
N233 N 0.8536 0.91344 0.71503 0.0
N234 N 0.80088 0.89345 0.70906 0.0
C235 C 0.82702 0.91124 0.69922 0.0
H236 H 0.79634 0.87059 0.74538 0.0
Co237 Co 0.75711 0.88883 0.69668 0.0
C238 C 0.76818 0.85979 0.64616 0.0
O239 O 0.74474 0.83691 0.65069 0.0
N240 N 0.71135 0.88481 0.68433 0.0
C241 C 0.65928 0.86586 0.67485 0.0
C242 C 0.69154 0.85675 0.68197 0.0
C243 C 0.69 0.9106 0.67823 0.0
N244 N 0.65828 0.89984 0.67276 0.0
O245 O 0.75629 0.93698 0.69178 0.0
H246 H 0.69942 0.83091 0.68552 0.0
H247 H 0.69706 0.93709 0.67809 0.0
O248 O 0.77568 0.88177 0.66285 0.0
C249 C 0.74452 0.95064 0.71153 0.0
O250 O 0.73287 0.9308 0.72927 0.0
N251 N 0.75837 0.84269 0.70503 0.0
C252 C 0.7609 0.77941 0.72816 0.0
C253 C 0.78195 0.78653 0.70769 0.0
C254 C 0.78093 0.8188 0.69672 0.0
C255 C 0.73845 0.83633 0.72529 0.0
C256 C 0.73895 0.80477 0.73692 0.0
H257 H 0.79916 0.82493 0.68235 0.0
H258 H 0.72234 0.85626 0.73265 0.0
H259 H 0.82564 0.92424 0.6815 0.0
H260 H 0.85895 0.89326 0.75231 0.0
H261 H 0.63782 0.84891 0.67258 0.0
H262 H 0.80004 0.76788 0.70095 0.0
H263 H 0.72251 0.80037 0.7528 0.0
C264 C 0.93467 0.61445 0.35469 0.0
C265 C 0.92248 0.62747 0.37741 0.0
C266 C 0.95399 0.58454 0.35406 0.0
C267 C 0.97577 0.50839 0.39201 0.0
H268 H 0.05313 0.50203 0.34735 0.0
C269 C 0.07696 0.40329 0.40171 0.0
C270 C 0.08763 0.38675 0.37984 0.0
C271 C 0.0568 0.43252 0.40054 0.0
C272 C 0.03141 0.50331 0.35975 0.0
H273 H 0.92158 0.61933 0.41731 0.0
H274 H 0.95538 0.56761 0.41629 0.0
H275 H 0.01751 0.55292 0.3469 0.0
H276 H 0.08613 0.38865 0.33954 0.0
H277 H 0.05084 0.43981 0.33748 0.0
H278 H 0.99005 0.45904 0.40515 0.0
C279 C 0.9494 0.57999 0.39884 0.0
C280 C 0.0109 0.53244 0.35946 0.0
C281 C 0.92996 0.60974 0.39945 0.0
C282 C 0.07814 0.4006 0.35673 0.0
C283 C 0.05814 0.43004 0.35555 0.0
C284 C 0.99638 0.47943 0.39241 0.0
C285 C 0.96175 0.56697 0.37616 0.0
C286 C 0.98293 0.53547 0.37572 0.0
C287 C 0.04692 0.44611 0.37747 0.0
C288 C 0.02458 0.47663 0.37642 0.0
H289 H 0.92905 0.62724 0.33735 0.0
H290 H 0.96259 0.57504 0.33621 0.0
H291 H 0.95406 0.50943 0.40442 0.0
H292 H 0.08343 0.39319 0.41982 0.0
H293 H 0.04891 0.44451 0.41776 0.0
C294 C 0.88025 0.45854 0.87611 0.0
C295 C 0.88165 0.423 0.87873 0.0
C296 C 0.90999 0.478 0.87669 0.0
C297 C 1.00149 0.47376 0.86507 0.0
H298 H 0.0061 0.55439 0.90647 0.0
C299 C 0.12667 0.54866 0.87657 0.0
C300 C 0.12496 0.58419 0.87894 0.0
C301 C 0.09709 0.52897 0.87704 0.0
C302 C 1.00515 0.53229 0.89448 0.0
H303 H 0.91533 0.37999 0.88378 0.0
H304 H 0.96755 0.41404 0.88444 0.0
H305 H 0.95439 0.52018 0.90612 0.0
H306 H 0.0909 0.62699 0.8834 0.0
H307 H 0.03903 0.59288 0.88345 0.0
H308 H 0.05168 0.48617 0.85276 0.0
C309 C 0.94333 0.42677 0.88206 0.0
C310 C 0.97553 0.51259 0.89441 0.0
C311 C 0.91349 0.40732 0.88187 0.0
C312 C 0.09298 0.59963 0.8818 0.0
C313 C 0.06328 0.57998 0.88192 0.0
C314 C 0.03095 0.4937 0.86485 0.0
C315 C 0.94185 0.46232 0.87955 0.0
C316 C 0.97342 0.48307 0.87976 0.0
C317 C 0.0649 0.54432 0.87955 0.0
C318 C 0.03328 0.52322 0.87962 0.0
H319 H 0.85608 0.47138 0.87392 0.0
H320 H 0.90809 0.50532 0.87455 0.0
H321 H 1.0004 0.45138 0.85334 0.0
H322 H 0.151 0.53598 0.87476 0.0
H323 H 0.09959 0.50162 0.87575 0.0
C324 C 0.40581 0.91253 0.16443 0.0
C325 C 0.42096 0.88201 0.17239 0.0
C326 C 0.42454 0.94277 0.16388 0.0
C327 C 0.51309 0.97421 0.16197 0.0
H328 H 0.47424 0.0588 0.1859 0.0
C329 C 0.59577 0.08991 0.18525 0.0
C330 C 0.58432 0.12238 0.17817 0.0
C331 C 0.57475 0.06157 0.18287 0.0
C332 C 0.48528 0.03547 0.17884 0.0
H333 H 0.46787 0.8595 0.18586 0.0
H334 H 0.50013 0.91211 0.18541 0.0
H335 H 0.43936 0.00737 0.18512 0.0
H336 H 0.54151 0.15022 0.16288 0.0
H337 H 0.5046 0.10053 0.15893 0.0
H338 H 0.55908 1.00206 0.156 0.0
C339 C 0.47388 0.91266 0.17932 0.0
C340 C 0.46532 0.00602 0.17839 0.0
C341 C 0.4552 0.88252 0.1799 0.0
C342 C 0.55109 0.12572 0.16875 0.0
C343 C 0.52994 0.09726 0.16646 0.0
C344 C 0.533 1.00356 0.16245 0.0
C345 C 0.45887 0.94311 0.17117 0.0
C346 C 0.47919 0.97494 0.1703 0.0
C347 C 0.54162 0.06485 0.17343 0.0
C348 C 0.5195 0.03441 0.17123 0.0
H349 H 0.37942 0.91311 0.15874 0.0
H350 H 0.41228 0.96577 0.15738 0.0
H351 H 0.52433 0.95086 0.1551 0.0
H352 H 0.62082 0.08633 0.19312 0.0
H353 H 0.58428 0.03707 0.1889 0.0
C354 C 0.6012 0.90834 0.65458 0.0
C355 C 0.62845 0.92046 0.66895 0.0
C356 C 0.5713 0.92736 0.65231 0.0
C357 C 0.53609 0.01411 0.66196 0.0
H358 H 0.4497 0.9667 0.66476 0.0
C359 C 0.38652 0.04661 0.68347 0.0
C360 C 0.38418 0.07786 0.67099 0.0
C361 C 0.4153 0.02604 0.68051 0.0
C362 C 0.4736 0.98035 0.66409 0.0
H363 H 0.64564 0.96197 0.69231 0.0
H364 H 0.59356 0.9949 0.68865 0.0
H365 H 0.50255 0.93431 0.66531 0.0
H366 H 0.40881 0.11111 0.64443 0.0
H367 H 0.45855 0.07495 0.63865 0.0
H368 H 0.50737 0.06017 0.66196 0.0
C369 C 0.59544 0.97111 0.6786 0.0
C370 C 0.50393 0.96175 0.66406 0.0
C371 C 0.62538 0.95222 0.68071 0.0
C372 C 0.4103 0.0874 0.65458 0.0
C373 C 0.43884 0.06673 0.65139 0.0
C374 C 0.50583 0.03268 0.66216 0.0
C375 C 0.56791 0.95882 0.66452 0.0
C376 C 0.53557 0.97843 0.66321 0.0
C377 C 0.44213 0.03619 0.66478 0.0
C378 C 0.47418 0.01608 0.66338 0.0
H379 H 0.60301 0.88411 0.64512 0.0
H380 H 0.55085 0.91738 0.64098 0.0
H381 H 0.55994 0.02781 0.66095 0.0
H382 H 0.36687 0.03884 0.69641 0.0
H383 H 0.41708 1.00291 0.69134 0.0
C384 C 0.50112 0.26113 0.20748 0.0
C385 C 0.52544 0.24388 0.22187 0.0
C386 C 0.46687 0.26168 0.21495 0.0
C387 C 0.40535 0.21777 0.25656 0.0
H388 H 0.36018 0.30526 0.26052 0.0
C389 C 0.293 0.2411 0.32273 0.0
C390 C 0.265 0.25955 0.31369 0.0
C391 C 0.32303 0.23888 0.30887 0.0
C392 C 0.37228 0.28057 0.25924 0.0
H393 H 0.53285 0.21259 0.25467 0.0
H394 H 0.47382 0.21349 0.26751 0.0
H395 H 0.41515 0.30063 0.23936 0.0
H396 H 0.24681 0.29018 0.28283 0.0
H397 H 0.29948 0.28675 0.25889 0.0
H398 H 0.3631 0.19785 0.27701 0.0
C399 C 0.48079 0.22651 0.25049 0.0
C400 C 0.40367 0.27789 0.24703 0.0
C401 C 0.51477 0.22624 0.24321 0.0
C402 C 0.26803 0.27624 0.29061 0.0
C403 C 0.29816 0.27417 0.2768 0.0
C404 C 0.37414 0.22046 0.26881 0.0
C405 C 0.45645 0.24455 0.23669 0.0
C406 C 0.42094 0.2466 0.24611 0.0
C407 C 0.32585 0.25515 0.28566 0.0
C408 C 0.35762 0.25202 0.27081 0.0
H409 H 0.50872 0.27505 0.19099 0.0
H410 H 0.44861 0.27568 0.20389 0.0
H411 H 0.41771 0.19317 0.25576 0.0
H412 H 0.29178 0.22839 0.34059 0.0
H413 H 0.34417 0.22457 0.31642 0.0
C414 C 0.26679 0.02237 0.75311 0.0
C415 C 0.26083 0.02964 0.72787 0.0
C416 C 0.26355 0.98942 0.76217 0.0
C417 C 0.26572 0.89979 0.7452 0.0
H418 H 0.21882 0.88882 0.8083 0.0
C419 C 0.24419 0.7683 0.79122 0.0
C420 C 0.24825 0.76628 0.81721 0.0
C421 C 0.24443 0.7997 0.7791 0.0
C422 C 0.2323 0.89146 0.79081 0.0
H423 H 0.24745 0.00773 0.69219 0.0
H424 H 0.24202 0.94935 0.70821 0.0
H425 H 0.22075 0.94449 0.78856 0.0
H426 H 0.25616 0.79582 0.85076 0.0
H427 H 0.25729 0.85068 0.82956 0.0
H428 H 0.27786 0.8468 0.74773 0.0
C429 C 0.24912 0.96956 0.72087 0.0
C430 C 0.23325 0.92332 0.77943 0.0
C431 C 0.25215 1.00289 0.71172 0.0
C432 C 0.25306 0.79646 0.83074 0.0
C433 C 0.25332 0.82791 0.8186 0.0
C434 C 0.26487 0.86782 0.75665 0.0
C435 C 0.25437 0.96269 0.74629 0.0
C436 C 0.25046 0.92798 0.75674 0.0
C437 C 0.24883 0.82992 0.79264 0.0
C438 C 0.24858 0.86343 0.7798 0.0
H439 H 0.27371 0.04222 0.76612 0.0
H440 H 0.26843 0.98485 0.78173 0.0
H441 H 0.2794 0.90271 0.72781 0.0
H442 H 0.24105 0.74551 0.78013 0.0
H443 H 0.24069 0.8003 0.75914 0.0
C444 C 0.49494 0.77773 0.24081 0.0
C445 C 0.48423 0.75996 0.21954 0.0
C446 C 0.52898 0.7778 0.24784 0.0
C447 C 0.60701 0.72786 0.2439 0.0
H448 H 0.64657 0.8094 0.27237 0.0
C449 C 0.74345 0.73342 0.28598 0.0
C450 C 0.74647 0.75094 0.30874 0.0
C451 C 0.71304 0.73438 0.27248 0.0
C452 C 0.63584 0.78637 0.2646 0.0
H453 H 0.50096 0.72877 0.18862 0.0
H454 H 0.5612 0.72869 0.20112 0.0
H455 H 0.59148 0.81249 0.25182 0.0
H456 H 0.71937 0.78225 0.33546 0.0
H457 H 0.66655 0.78413 0.31185 0.0
H458 H 0.6513 0.70168 0.25717 0.0
C459 C 0.54291 0.74255 0.2123 0.0
C460 C 0.60433 0.78816 0.25274 0.0
C461 C 0.50857 0.74276 0.20506 0.0
C462 C 0.71817 0.76899 0.31781 0.0
C463 C 0.68789 0.77008 0.30426 0.0
C464 C 0.6387 0.72609 0.25574 0.0
C465 C 0.55338 0.75999 0.23387 0.0
C466 C 0.5891 0.75878 0.24286 0.0
C467 C 0.68507 0.75307 0.28133 0.0
C468 C 0.65301 0.75519 0.26678 0.0
H469 H 0.47688 0.79137 0.25235 0.0
H470 H 0.53601 0.79104 0.26475 0.0
H471 H 0.59583 0.70474 0.23664 0.0
H472 H 0.76486 0.71969 0.27822 0.0
H473 H 0.71172 0.72122 0.25479 0.0
C474 C 0.72845 0.22354 0.81481 0.0
C475 C 0.75914 0.24134 0.81806 0.0
C476 C 0.72758 0.19336 0.80103 0.0
C477 C 0.78297 0.12535 0.77441 0.0
H478 H 0.70343 0.10768 0.73381 0.0
C479 C 0.77335 0.00731 0.71037 0.0
C480 C 0.74444 0.98764 0.71559 0.0
C481 C 0.77567 0.04071 0.71937 0.0
C482 C 0.72585 0.11237 0.74499 0.0
H483 H 0.81332 0.24022 0.81018 0.0
H484 H 0.81157 0.18856 0.78544 0.0
H485 H 0.70686 0.16024 0.75777 0.0
H486 H 0.69458 0.98764 0.73277 0.0
H487 H 0.69809 0.04609 0.74771 0.0
H488 H 0.80189 0.07738 0.7614 0.0
C489 C 0.78816 0.19761 0.79376 0.0
C490 C 0.72772 0.14233 0.75895 0.0
C491 C 0.78909 0.22758 0.80775 0.0
C492 C 0.71708 1.00243 0.72846 0.0
C493 C 0.71908 0.03588 0.73696 0.0
C494 C 0.78125 0.09557 0.76021 0.0
C495 C 0.75731 0.18029 0.78992 0.0
C496 C 0.75605 0.14898 0.77421 0.0
C497 C 0.74879 0.05503 0.73321 0.0
C498 C 0.75243 0.08853 0.74567 0.0
H499 H 0.7048 0.23341 0.82221 0.0
H500 H 0.70345 0.1804 0.79898 0.0
H501 H 0.80501 0.12926 0.78613 0.0
H502 H 0.79494 0.99621 0.70077 0.0
H503 H 0.7988 0.05501 0.71614 0.0
C504 C 1.00138 0.24193 0.34087 0.0
C505 C 0.02213 0.27052 0.33746 0.0
C506 C 0.96831 0.24161 0.33115 0.0
C507 C 0.92058 0.28308 0.28039 0.0
H508 H 0.84318 0.23505 0.30796 0.0
C509 C 0.78661 0.28761 0.23634 0.0
C510 C 0.7687 0.25674 0.23512 0.0
C511 C 0.81725 0.28969 0.24943 0.0
C512 C 0.86471 0.24835 0.29998 0.0
H513 H 0.02443 0.32196 0.32334 0.0
H514 H 0.96639 0.32219 0.30757 0.0
H515 H 0.89573 0.23918 0.33206 0.0
H516 H 0.76978 0.20349 0.24568 0.0
H517 H 0.8231 0.20726 0.26863 0.0
H518 H 0.8896 0.29232 0.24839 0.0
C519 C 0.97569 0.29954 0.31678 0.0
C520 C 0.89477 0.25072 0.31378 0.0
C521 C 0.00874 0.29961 0.32607 0.0
C522 C 0.78264 0.22781 0.24664 0.0
C523 C 0.81312 0.22995 0.25984 0.0
C524 C 0.89052 0.2809 0.26672 0.0
C525 C 0.95562 0.27003 0.31814 0.0
C526 C 0.92307 0.26815 0.30414 0.0
C527 C 0.83052 0.26099 0.26163 0.0
C528 C 0.86231 0.26346 0.27632 0.0
H529 H 0.01153 0.21906 0.3493 0.0
H530 H 0.9536 0.21841 0.33246 0.0
H531 H 0.94212 0.29592 0.27205 0.0
H532 H 0.77636 0.31047 0.22798 0.0
H533 H 0.83004 0.31402 0.25062 0.0
C534 C 0.27504 0.50256 0.84021 0.0
C535 C 0.24721 0.52303 0.83374 0.0
C536 C 0.277 0.46909 0.83141 0.0
C537 C 0.22746 0.39916 0.80372 0.0
H538 H 0.30812 0.38218 0.76396 0.0
C539 C 0.23167 0.28991 0.73268 0.0
C540 C 0.26197 0.2711 0.73101 0.0
C541 C 0.23066 0.32024 0.74623 0.0
C542 C 0.28565 0.38617 0.77527 0.0
H543 H 0.19869 0.52457 0.81475 0.0
H544 H 0.20156 0.46601 0.80006 0.0
H545 H 0.30481 0.43326 0.78953 0.0
H546 H 0.31545 0.27046 0.74096 0.0
H547 H 0.31345 0.32254 0.76518 0.0
H548 H 0.20819 0.35217 0.7896 0.0
C549 C 0.22198 0.47561 0.81162 0.0
C550 C 0.28385 0.4154 0.78998 0.0
C551 C 0.22039 0.5091 0.81992 0.0
C552 C 0.29155 0.28409 0.74221 0.0
C553 C 0.29048 0.31418 0.75592 0.0
C554 C 0.22939 0.36973 0.78924 0.0
C555 C 0.25077 0.45565 0.81657 0.0
C556 C 0.25452 0.42242 0.804 0.0
C557 C 0.25987 0.33231 0.75852 0.0
C558 C 0.25828 0.36315 0.7745 0.0
H559 H 0.29612 0.51305 0.85067 0.0
H560 H 0.29941 0.45407 0.8355 0.0
H561 H 0.20462 0.40398 0.81447 0.0
H562 H 0.20839 0.28053 0.7244 0.0
H563 H 0.20682 0.33397 0.74737 0.0
C564 C 0.00874 0.77726 0.33699 0.0
C565 C 0.99011 0.74689 0.33728 0.0
C566 C 0.04163 0.77782 0.32688 0.0
C567 C 0.09136 0.72961 0.28041 0.0
H568 H 0.16518 0.78907 0.30004 0.0
C569 C 0.22399 0.7256 0.234 0.0
C570 C 0.23981 0.75692 0.229 0.0
C571 C 0.19382 0.72432 0.24777 0.0
C572 C 0.14463 0.77254 0.29424 0.0
H573 H 0.99139 0.69306 0.32918 0.0
H574 H 0.04928 0.6935 0.31285 0.0
H575 H 0.11385 0.78602 0.32571 0.0
H576 H 0.23536 0.81156 0.23362 0.0
H577 H 0.18282 0.80922 0.2578 0.0
H578 H 0.12206 0.71609 0.24901 0.0
C579 C 0.03845 0.71712 0.31955 0.0
C580 C 0.11526 0.77076 0.30897 0.0
C581 C 0.00554 0.71671 0.32924 0.0
C582 C 0.22416 0.78697 0.23748 0.0
C583 C 0.19411 0.78566 0.25138 0.0
C584 C 0.12072 0.73124 0.26582 0.0
C585 C 0.05628 0.74794 0.31709 0.0
C586 C 0.08827 0.74922 0.30223 0.0
C587 C 0.17886 0.75429 0.25696 0.0
C588 C 0.14765 0.75275 0.27253 0.0
H589 H 0.9969 0.80093 0.34263 0.0
H590 H 0.05452 0.80203 0.3252 0.0
H591 H 0.07076 0.71343 0.27422 0.0
H592 H 0.23559 0.70193 0.22814 0.0
H593 H 0.18279 0.69973 0.25193 0.0
C594 C 0.76132 0.71571 0.72774 0.0
C595 C 0.76255 0.74627 0.74116 0.0
C596 C 0.76132 0.68454 0.74024 0.0
C597 C 0.74591 0.64621 0.80257 0.0
H598 H 0.79401 0.56992 0.77347 0.0
C599 C 0.73341 0.50726 0.8383 0.0
C600 C 0.76169 0.48598 0.83515 0.0
C601 C 0.73441 0.54078 0.82949 0.0
C602 C 0.78085 0.59105 0.78213 0.0
H603 H 0.76586 0.76837 0.77804 0.0
H604 H 0.76682 0.71409 0.79984 0.0
H605 H 0.79462 0.62437 0.75244 0.0
H606 H 0.81381 0.48302 0.82235 0.0
H607 H 0.81639 0.54177 0.80833 0.0
H608 H 0.73306 0.61292 0.8327 0.0
C609 C 0.76477 0.71403 0.77974 0.0
C610 C 0.7807 0.62221 0.76978 0.0
C611 C 0.76441 0.74513 0.76726 0.0
C612 C 0.79166 0.4991 0.82482 0.0
C613 C 0.79293 0.53261 0.81653 0.0
C614 C 0.74631 0.61502 0.81508 0.0
C615 C 0.763 0.68332 0.76642 0.0
C616 C 0.76316 0.65018 0.77976 0.0
C617 C 0.7639 0.55344 0.81773 0.0
C618 C 0.76384 0.58705 0.80502 0.0
H619 H 0.75953 0.71593 0.70762 0.0
H620 H 0.7594 0.66144 0.72937 0.0
H621 H 0.73174 0.66709 0.81067 0.0
H622 H 0.70991 0.49733 0.84596 0.0
H623 H 0.71153 0.55603 0.83063 0.0
C624 C 0.15912 0.1775 0.42942 0.0
C625 C 0.14674 0.21081 0.42758 0.0
C626 C 0.16315 0.16222 0.45274 0.0
C627 C 0.14689 0.17303 0.52113 0.0
H628 H 0.23566 0.13073 0.52669 0.0
C629 C 0.2058 0.13065 0.6161 0.0
C630 C 0.2395 0.14177 0.61945 0.0
C631 C 0.19025 0.13295 0.59262 0.0
C632 C 0.21071 0.14232 0.52548 0.0
H633 H 0.12784 0.25408 0.44818 0.0
H634 H 0.13515 0.22775 0.48904 0.0
H635 H 0.21394 0.14595 0.48593 0.0
H636 H 0.28346 0.16315 0.60065 0.0
H637 H 0.25666 0.16701 0.56019 0.0
H638 H 0.14479 0.17093 0.56104 0.0
C639 C 0.14101 0.2129 0.47261 0.0
C640 C 0.198 0.15071 0.50202 0.0
C641 C 0.13679 0.22806 0.44923 0.0
C642 C 0.25747 0.15438 0.5988 0.0
C643 C 0.24216 0.15636 0.57547 0.0
C644 C 0.15967 0.16457 0.5447 0.0
C645 C 0.15544 0.18023 0.47472 0.0
C646 C 0.16629 0.16695 0.49951 0.0
C647 C 0.20832 0.14593 0.57205 0.0
C648 C 0.19219 0.15003 0.54716 0.0
H649 H 0.16736 0.16398 0.41289 0.0
H650 H 0.17378 0.13684 0.45359 0.0
H651 H 0.1222 0.18513 0.5199 0.0
H652 H 0.19124 0.12094 0.63169 0.0
H653 H 0.16415 0.12461 0.59054 0.0
C654 C 0.36187 0.6984 0.11739 0.0
C655 C 0.3877 0.72309 0.11776 0.0
C656 C 0.3501 0.68514 0.09481 0.0
C657 C 0.372 0.67749 0.02748 0.0
H658 H 0.27534 0.66033 1.02064 0.0
C659 C 0.30725 0.64912 0.93262 0.0
C660 C 0.28275 0.62307 0.93232 0.0
C661 C 0.32105 0.66049 0.95516 0.0
C662 C 0.30245 0.66467 1.02232 0.0
H663 H 0.42161 0.75299 0.09462 0.0
H664 H 0.40068 0.73045 0.05531 0.0
H665 H 0.29752 0.68151 0.06 0.0
H666 H 0.2538 0.58838 0.95552 0.0
H667 H 0.27778 0.60828 0.99471 0.0
H668 H 0.37666 0.66114 0.98954 0.0
C669 C 0.38988 0.72079 0.07245 0.0
C670 C 0.31523 0.67674 0.04494 0.0
C671 C 0.4018 0.73387 0.09504 0.0
C672 C 0.27259 0.6085 0.95504 0.0
C673 C 0.28617 0.62005 0.97755 0.0
C674 C 0.35915 0.66563 1.00478 0.0
C675 C 0.3637 0.6964 0.072 0.0
C676 C 0.3502 0.68326 0.04787 0.0
C677 C 0.31045 0.64627 0.9779 0.0
C678 C 0.32423 0.65901 1.00196 0.0
H679 H 0.35062 0.68932 0.13456 0.0
H680 H 0.33039 0.66594 0.09528 0.0
H681 H 0.39912 0.6817 0.0291 0.0
H682 H 0.31567 0.66087 0.91546 0.0
H683 H 0.33951 0.68092 0.95481 0.0
C684 C 0.80523 0.88559 0.61264 0.0
C685 C 0.78739 0.85763 0.62242 0.0
C686 C 0.82143 0.88319 0.58936 0.0
C687 C 0.85428 0.82089 0.54337 0.0
H688 H 0.82861 0.88693 0.49328 0.0
C689 C 0.88699 0.80096 0.43924 0.0
C690 C 0.8578 0.80251 0.42422 0.0
C691 C 0.8862 0.81385 0.46363 0.0
C692 C 0.83637 0.86849 0.50712 0.0
H693 H 0.77381 0.80488 0.61592 0.0
H694 H 0.8022 0.80067 0.5759 0.0
H695 H 0.81323 0.89671 0.53685 0.0
H696 H 0.80582 0.82066 0.42222 0.0
H697 H 0.80464 0.84354 0.46427 0.0
H698 H 0.87596 0.79186 0.51356 0.0
C699 C 0.80367 0.82447 0.586 0.0
C700 C 0.82776 0.87422 0.53209 0.0
C701 C 0.7871 0.82702 0.60889 0.0
C702 C 0.82867 0.81899 0.43342 0.0
C703 C 0.82807 0.83234 0.45748 0.0
C704 C 0.86317 0.81533 0.51847 0.0
C705 C 0.8207 0.85256 0.57578 0.0
C706 C 0.83554 0.84987 0.55035 0.0
C707 C 0.85646 0.82911 0.47315 0.0
C708 C 0.85325 0.83848 0.49993 0.0
H709 H 0.80591 0.90949 0.62265 0.0
H710 H 0.83439 0.90526 0.58192 0.0
H711 H 0.86089 0.80181 0.55707 0.0
H712 H 0.90972 0.78823 0.43264 0.0
H713 H 0.90851 0.81109 0.47526 0.0
C714 C 0.66782 0.25425 0.1014 0.0
C715 C 0.64791 0.26981 0.11996 0.0
C716 C 0.67186 0.2693 0.0781 0.0
C717 C 0.66769 0.35185 0.04575 0.0
H718 H 0.6772 0.29437 0.9875 0.0
C719 C 0.73339 0.39805 0.95555 0.0
C720 C 0.72256 0.38506 0.9325 0.0
C721 C 0.71947 0.38592 0.97782 0.0
C722 C 0.67413 0.31101 1.0034 0.0
H723 H 0.61609 0.31338 0.1283 0.0
H724 H 0.62285 0.33973 0.08718 0.0
H725 H 0.65986 0.26951 0.02685 0.0
H726 H 0.68759 0.35 0.91481 0.0
H727 H 0.66275 0.32939 0.95356 0.0
H728 H 0.6816 0.39346 1.02214 0.0
C729 C 0.63564 0.31589 0.09091 0.0
C730 C 0.66459 0.29661 0.02614 0.0
C731 C 0.63156 0.3007 0.11441 0.0
C732 C 0.69678 0.36031 0.93224 0.0
C733 C 0.68264 0.34838 0.95452 0.0
C734 C 0.67706 0.36634 1.02291 0.0
C735 C 0.656 0.30038 0.07249 0.0
C736 C 0.66203 0.31666 0.04777 0.0
C737 C 0.69412 0.36066 0.97766 0.0
C738 C 0.68109 0.34599 1.00152 0.0
H739 H 0.68087 0.23048 0.10492 0.0
H740 H 0.68826 0.25688 0.06468 0.0
H741 H 0.66612 0.36808 0.062 0.0
H742 H 0.75328 0.41705 0.95646 0.0
H743 H 0.72942 0.39566 0.9952 0.0
C744 C 0.94042 0.89954 0.30815 0.0
C745 C 0.92947 0.88283 0.3299 0.0
C746 C 0.95766 0.93052 0.30951 0.0
C747 C 0.00973 0.98344 0.35106 0.0
H748 H 0.98709 0.0549 0.30423 0.0
C749 C 0.07196 0.11735 0.35447 0.0
C750 C 0.08 0.13266 0.33153 0.0
C751 C 0.05306 0.0872 0.35536 0.0
C752 C 0.99404 0.0351 0.31727 0.0
H753 H 0.92803 0.8863 0.37021 0.0
H754 H 0.95856 0.94021 0.37252 0.0
H755 H 0.9549 1.00204 0.30389 0.0
H756 H 0.07425 0.12779 0.2915 0.0
H757 H 0.0424 0.07508 0.29303 0.0
H758 H 0.04927 0.01633 0.36418 0.0
C759 C 0.95387 0.92903 0.35442 0.0
C760 C 0.9755 1.00481 0.3171 0.0
C761 C 0.93638 0.89807 0.35307 0.0
C762 C 0.06896 0.11676 0.30952 0.0
C763 C 0.05018 0.08664 0.31041 0.0
C764 C 0.02844 0.01374 0.35115 0.0
C765 C 0.96464 0.94564 0.33263 0.0
C766 C 0.98333 0.97848 0.33381 0.0
C767 C 0.04172 0.07158 0.33333 0.0
C768 C 0.02105 0.03982 0.33406 0.0
H769 H 0.9363 0.88851 0.28998 0.0
H770 H 0.96612 0.94236 0.29238 0.0
H771 H 0.01659 0.96351 0.36402 0.0
H772 H 0.08031 0.12857 0.3718 0.0
H773 H 0.04685 0.07645 0.37336 0.0
C774 C 0.39979 0.57747 0.81349 0.0
C775 C 0.38229 0.58666 0.83532 0.0
C776 C 0.42998 0.55879 0.81468 0.0
C777 C 0.47929 0.50158 0.8558 0.0
H778 H 0.55191 0.52112 0.80903 0.0
C779 C 0.61145 0.43491 0.85874 0.0
C780 C 0.6251 0.42476 0.83567 0.0
C781 C 0.58206 0.45501 0.85982 0.0
C782 C 0.53176 0.51515 0.82209 0.0
H783 H 0.3833 0.58379 0.8756 0.0
H784 H 0.43622 0.55133 0.87771 0.0
H785 H 0.50086 0.5562 0.8091 0.0
H786 H 0.61843 0.42802 0.79568 0.0
H787 H 0.56717 0.46259 0.79757 0.0
H788 H 0.51043 0.46048 0.86877 0.0
C789 C 0.42623 0.55816 0.85962 0.0
C790 C 0.50245 0.53526 0.82212 0.0
C791 C 0.39591 0.57682 0.85842 0.0
C792 C 0.60849 0.43498 0.81376 0.0
C793 C 0.57929 0.4552 0.81484 0.0
C794 C 0.50874 0.48152 0.85583 0.0
C795 C 0.44363 0.54885 0.83774 0.0
C796 C 0.47562 0.5285 0.83875 0.0
C797 C 0.56582 0.46566 0.83785 0.0
C798 C 0.53513 0.48782 0.83875 0.0
H799 H 0.38978 0.58397 0.79536 0.0
H800 H 0.44225 0.55151 0.79742 0.0
H801 H 0.45901 0.49539 0.86869 0.0
H802 H 0.62347 0.42726 0.87596 0.0
H803 H 0.57241 0.46277 0.87785 0.0
C804 C 0.42628 0.60956 0.18845 0.0
C805 C 0.41754 0.62236 0.21207 0.0
C806 C 0.44343 0.57853 0.18611 0.0
C807 C 0.46399 0.49972 0.22106 0.0
H808 H 0.53964 0.49274 0.17488 0.0
C809 C 0.56725 0.39789 0.23084 0.0
C810 C 0.57853 0.38087 0.20935 0.0
C811 C 0.54551 0.42579 0.22905 0.0
C812 C 0.51827 0.49415 0.1876 0.0
H813 H 0.42032 0.61257 0.25173 0.0
H814 H 0.45022 0.5588 0.24771 0.0
H815 H 0.50512 0.54445 0.17574 0.0
H816 H 0.57598 0.37994 0.16909 0.0
H817 H 0.53788 0.42925 0.1659 0.0
H818 H 0.47771 0.44986 0.23339 0.0
C819 C 0.44324 0.57233 0.23092 0.0
C820 C 0.49846 0.52374 0.18809 0.0
C821 C 0.42607 0.60325 0.23325 0.0
C822 C 0.56759 0.39251 0.18595 0.0
C823 C 0.546 0.42078 0.18413 0.0
C824 C 0.48386 0.4703 0.22065 0.0
C825 C 0.45224 0.5596 0.20735 0.0
C826 C 0.47147 0.52712 0.20518 0.0
C827 C 0.53458 0.43754 0.20572 0.0
C828 C 0.5116 0.46745 0.20426 0.0
H829 H 0.41968 0.62342 0.17175 0.0
H830 H 0.44958 0.56926 0.16766 0.0
H831 H 0.44292 0.50112 0.23404 0.0
H832 H 0.57475 0.38931 0.24915 0.0
H833 H 0.53749 0.4384 0.246 0.0
C834 C 0.10577 0.08648 0.73096 0.0
C835 C 0.12647 0.09251 0.71007 0.0
C836 C 0.07512 0.06896 0.72863 0.0
C837 C 0.02942 0.00818 0.68885 0.0
H838 H 0.95233 0.03702 0.72878 0.0
C839 C 0.89764 0.94 0.68836 0.0
C840 C 0.88377 0.93386 0.71208 0.0
C841 C 0.92647 0.96059 0.68561 0.0
C842 C 0.97367 0.02858 0.71758 0.0
H843 H 0.13087 0.08493 0.67022 0.0
H844 H 0.07707 0.05413 0.66613 0.0
H845 H 1.00381 0.0714 0.72813 0.0
H846 H 0.88908 0.94489 0.75144 0.0
H847 H 0.93924 0.98038 0.7467 0.0
H848 H 0.9991 0.96506 0.67856 0.0
C849 C 0.08488 0.06284 0.68437 0.0
C850 C 1.00318 0.04825 0.71722 0.0
C851 C 0.11569 0.08046 0.68671 0.0
C852 C 0.89933 0.9487 0.73295 0.0
C853 C 0.92785 0.96942 0.7302 0.0
C854 C 0.99973 0.9885 0.68914 0.0
C855 C 0.06423 0.05697 0.70533 0.0
C856 C 0.03171 0.03788 0.70335 0.0
C857 C 0.94166 0.97575 0.70652 0.0
C858 C 0.97187 0.99812 0.704 0.0
H859 H 0.11352 0.0946 0.74933 0.0
H860 H 0.06026 0.0642 0.74526 0.0
H861 H 0.05102 0.99938 0.67809 0.0
H862 H 0.88631 0.92873 0.67196 0.0
H863 H 0.93655 0.9651 0.66713 0.0
loop_
_geom_bond_atom_site_label_1
_geom_bond_atom_site_label_2
_geom_bond_distance
_geom_bond_site_symmetry_2
_ccdc_geom_bond_type
C0 C1 1.351 . S
C0 N3 1.368 . S
C0 H5 0.931 . S
C1 C0 1.351 . S
C1 N2 1.373 . S
C1 H29 0.930 . S
N2 C1 1.373 . S
N2 C4 1.340 . S
N3 C0 1.368 . S
N3 C4 1.321 . S
N3 Co6 2.135 . S
C4 N2 1.340 . S
C4 N3 1.321 . S
C4 H28 0.930 . S
H5 C0 0.931 . S
Co6 N3 2.135 . S
Co6 N9 2.121 . S
Co6 O14 2.055 1_455 S
Co6 O17 2.039 . S
Co6 N20 2.140 . S
C7 O8 1.227 . S
C7 O17 1.265 . S
O8 C7 1.227 . S
N9 Co6 2.121 . S
N9 C11 1.375 . S
N9 C12 1.313 . S
C10 C11 1.338 . S
C10 N13 1.377 . S
C10 H30 0.930 . S
C11 N9 1.375 . S
C11 C10 1.338 . S
C11 H15 0.931 . S
C12 N9 1.313 . S
C12 N13 1.344 . S
C12 H16 0.930 . S
N13 C10 1.377 . S
N13 C12 1.344 . S
O14 Co6 2.055 1_655 S
O14 C18 1.253 . S
H15 C11 0.931 . S
H16 C12 0.930 . S
O17 Co6 2.039 . S
O17 C7 1.265 . S
C18 O14 1.253 . S
C18 O19 1.227 1_655 S
O19 C18 1.227 1_455 S
N20 Co6 2.140 . S
N20 C23 1.346 . S
N20 C24 1.345 . S
C21 C22 1.387 . S
C21 C25 1.391 . S
C22 C21 1.387 . S
C22 C23 1.369 . S
C22 H31 0.929 . S
C23 N20 1.346 . S
C23 C22 1.369 . S
C23 H26 0.928 . S
C24 N20 1.345 . S
C24 C25 1.371 . S
C24 H27 0.931 . S
C25 C21 1.391 . S
C25 C24 1.371 . S
C25 H32 0.930 . S
H26 C23 0.928 . S
H27 C24 0.931 . S
H28 C4 0.930 . S
H29 C1 0.930 . S
H30 C10 0.930 . S
H31 C22 0.929 . S
H32 C25 0.930 . S
C33 C34 1.351 . S
C33 N36 1.368 . S
C33 H38 0.931 . S
C34 C33 1.351 . S
C34 N35 1.373 . S
C34 H62 0.930 . S
N35 C34 1.373 . S
N35 C37 1.340 . S
N36 C33 1.368 . S
N36 C37 1.321 . S
N36 Co39 2.135 . S
C37 N35 1.340 . S
C37 N36 1.321 . S
C37 H61 0.930 . S
H38 C33 0.931 . S
Co39 N36 2.135 . S
Co39 N42 2.121 . S
Co39 O47 2.055 . S
Co39 O50 2.039 . S
Co39 N53 2.140 . S
C40 O41 1.227 . S
C40 O50 1.265 . S
O41 C40 1.227 . S
N42 Co39 2.121 . S
N42 C44 1.375 . S
N42 C45 1.313 . S
C43 C44 1.338 . S
C43 N46 1.377 . S
C43 H63 0.930 . S
C44 N42 1.375 . S
C44 C43 1.338 . S
C44 H48 0.931 . S
C45 N42 1.313 . S
C45 N46 1.344 . S
C45 H49 0.930 . S
N46 C43 1.377 . S
N46 C45 1.344 . S
O47 Co39 2.055 . S
O47 C51 1.253 . S
H48 C44 0.931 . S
H49 C45 0.930 . S
O50 Co39 2.039 . S
O50 C40 1.265 . S
C51 O47 1.253 . S
C51 O52 1.227 . S
O52 C51 1.227 . S
N53 Co39 2.140 . S
N53 C56 1.346 . S
N53 C57 1.345 . S
C54 C55 1.387 . S
C54 C58 1.391 . S
C55 C54 1.387 . S
C55 C56 1.369 . S
C55 H64 0.929 . S
C56 N53 1.346 . S
C56 C55 1.369 . S
C56 H59 0.928 . S
C57 N53 1.345 . S
C57 C58 1.371 . S
C57 H60 0.931 . S
C58 C54 1.391 . S
C58 C57 1.371 . S
C58 H65 0.930 . S
H59 C56 0.928 . S
H60 C57 0.931 . S
H61 C37 0.930 . S
H62 C34 0.930 . S
H63 C43 0.930 . S
H64 C55 0.929 . S
H65 C58 0.930 . S
C66 C67 1.351 . S
C66 N69 1.368 . S
C66 H71 0.931 . S
C67 C66 1.351 . S
C67 N68 1.373 . S
C67 H95 0.930 . S
N68 C67 1.373 . S
N68 C70 1.340 . S
N69 C66 1.368 . S
N69 C70 1.321 . S
N69 Co72 2.135 . S
C70 N68 1.340 . S
C70 N69 1.321 . S
C70 H94 0.930 . S
H71 C66 0.931 . S
Co72 N69 2.135 . S
Co72 N75 2.121 . S
Co72 O80 2.055 1_655 S
Co72 O83 2.039 . S
Co72 N86 2.140 . S
C73 O74 1.227 . S
C73 O83 1.265 . S
O74 C73 1.227 . S
N75 Co72 2.121 . S
N75 C77 1.375 . S
N75 C78 1.313 . S
C76 C77 1.338 . S
C76 N79 1.377 . S
C76 H96 0.930 . S
C77 N75 1.375 . S
C77 C76 1.338 . S
C77 H81 0.931 . S
C78 N75 1.313 . S
C78 N79 1.344 . S
C78 H82 0.930 . S
N79 C76 1.377 . S
N79 C78 1.344 . S
O80 Co72 2.055 1_455 S
O80 C84 1.253 . S
H81 C77 0.931 . S
H82 C78 0.930 . S
O83 Co72 2.039 . S
O83 C73 1.265 . S
C84 O80 1.253 . S
C84 O85 1.227 1_455 S
O85 C84 1.227 1_655 S
N86 Co72 2.140 . S
N86 C89 1.346 . S
N86 C90 1.345 . S
C87 C88 1.387 . S
C87 C91 1.391 . S
C88 C87 1.387 . S
C88 C89 1.369 . S
C88 H97 0.929 . S
C89 N86 1.346 . S
C89 C88 1.369 . S
C89 H92 0.928 . S
C90 N86 1.345 . S
C90 C91 1.371 . S
C90 H93 0.931 . S
C91 C87 1.391 . S
C91 C90 1.371 . S
C91 H98 0.930 . S
H92 C89 0.928 . S
H93 C90 0.931 . S
H94 C70 0.930 . S
H95 C67 0.930 . S
H96 C76 0.930 . S
H97 C88 0.929 . S
H98 C91 0.930 . S
C99 C100 1.351 . S
C99 N102 1.368 . S
C99 H104 0.931 . S
C100 C99 1.351 . S
C100 N101 1.373 . S
C100 H128 0.930 . S
N101 C100 1.373 . S
N101 C103 1.340 . S
N102 C99 1.368 . S
N102 C103 1.321 . S
N102 Co105 2.135 . S
C103 N101 1.340 . S
C103 N102 1.321 . S
C103 H127 0.930 . S
H104 C99 0.931 . S
Co105 N102 2.135 . S
Co105 N108 2.121 . S
Co105 O113 2.055 . S
Co105 O116 2.039 . S
Co105 N119 2.140 . S
C106 O107 1.227 . S
C106 O116 1.265 . S
O107 C106 1.227 . S
N108 Co105 2.121 . S
N108 C110 1.375 . S
N108 C111 1.313 . S
C109 C110 1.338 . S
C109 N112 1.377 . S
C109 H129 0.930 . S
C110 N108 1.375 . S
C110 C109 1.338 . S
C110 H114 0.931 . S
C111 N108 1.313 . S
C111 N112 1.344 . S
C111 H115 0.930 . S
N112 C109 1.377 . S
N112 C111 1.344 . S
O113 Co105 2.055 . S
O113 C117 1.253 . S
H114 C110 0.931 . S
H115 C111 0.930 . S
O116 Co105 2.039 . S
O116 C106 1.265 . S
C117 O113 1.253 . S
C117 O118 1.227 . S
O118 C117 1.227 . S
N119 Co105 2.140 . S
N119 C122 1.346 . S
N119 C123 1.345 . S
C120 C121 1.387 . S
C120 C124 1.391 . S
C121 C120 1.387 . S
C121 C122 1.369 . S
C121 H130 0.929 . S
C122 N119 1.346 . S
C122 C121 1.369 . S
C122 H125 0.928 . S
C123 N119 1.345 . S
C123 C124 1.371 . S
C123 H126 0.931 . S
C124 C120 1.391 . S
C124 C123 1.371 . S
C124 H131 0.930 . S
H125 C122 0.928 . S
H126 C123 0.931 . S
H127 C103 0.930 . S
H128 C100 0.930 . S
H129 C109 0.930 . S
H130 C121 0.929 . S
H131 C124 0.930 . S
C132 C133 1.351 . S
C132 N135 1.368 . S
C132 H137 0.931 . S
C133 C132 1.351 . S
C133 N134 1.373 . S
C133 H161 0.930 . S
N134 C133 1.373 . S
N134 C136 1.340 . S
N135 C132 1.368 . S
N135 C136 1.321 . S
N135 Co138 2.135 . S
C136 N134 1.340 . S
C136 N135 1.321 . S
C136 H160 0.930 . S
H137 C132 0.931 . S
Co138 N135 2.135 . S
Co138 N141 2.121 . S
Co138 O146 2.055 . S
Co138 O149 2.039 . S
Co138 N152 2.140 . S
C139 O140 1.227 . S
C139 O149 1.265 . S
O140 C139 1.227 . S
N141 Co138 2.121 . S
N141 C143 1.375 . S
N141 C144 1.313 . S
C142 C143 1.338 . S
C142 N145 1.377 . S
C142 H162 0.930 . S
C143 N141 1.375 . S
C143 C142 1.338 . S
C143 H147 0.931 . S
C144 N141 1.313 . S
C144 N145 1.344 . S
C144 H148 0.930 . S
N145 C142 1.377 . S
N145 C144 1.344 . S
O146 Co138 2.055 . S
O146 C150 1.253 . S
H147 C143 0.931 . S
H148 C144 0.930 . S
O149 Co138 2.039 . S
O149 C139 1.265 . S
C150 O146 1.253 . S
C150 O151 1.227 . S
O151 C150 1.227 . S
N152 Co138 2.140 . S
N152 C155 1.346 . S
N152 C156 1.345 . S
C153 C154 1.387 . S
C153 C157 1.391 . S
C154 C153 1.387 . S
C154 C155 1.369 . S
C154 H163 0.929 . S
C155 N152 1.346 . S
C155 C154 1.369 . S
C155 H158 0.928 . S
C156 N152 1.345 . S
C156 C157 1.371 . S
C156 H159 0.931 . S
C157 C153 1.391 . S
C157 C156 1.371 . S
C157 H164 0.930 . S
H158 C155 0.928 . S
H159 C156 0.931 . S
H160 C136 0.930 . S
H161 C133 0.930 . S
H162 C142 0.930 . S
H163 C154 0.929 . S
H164 C157 0.930 . S
C165 C166 1.351 . S
C165 N168 1.368 . S
C165 H170 0.931 . S
C166 C165 1.351 . S
C166 N167 1.373 . S
C166 H194 0.930 . S
N167 C166 1.373 . S
N167 C169 1.340 . S
N168 C165 1.368 . S
N168 C169 1.321 . S
N168 Co171 2.135 . S
C169 N167 1.340 . S
C169 N168 1.321 . S
C169 H193 0.930 . S
H170 C165 0.931 . S
Co171 N168 2.135 . S
Co171 N174 2.121 . S
Co171 O179 2.055 1_545 S
Co171 O182 2.039 . S
Co171 N185 2.140 . S
C172 O173 1.227 . S
C172 O182 1.265 . S
O173 C172 1.227 . S
N174 Co171 2.121 . S
N174 C176 1.375 . S
N174 C177 1.313 . S
C175 C176 1.338 . S
C175 N178 1.377 . S
C175 H195 0.930 . S
C176 N174 1.375 . S
C176 C175 1.338 . S
C176 H180 0.931 . S
C177 N174 1.313 . S
C177 N178 1.344 . S
C177 H181 0.930 . S
N178 C175 1.377 . S
N178 C177 1.344 . S
O179 Co171 2.055 1_565 S
O179 C183 1.253 . S
H180 C176 0.931 . S
H181 C177 0.930 . S
O182 Co171 2.039 . S
O182 C172 1.265 . S
C183 O179 1.253 . S
C183 O184 1.227 1_565 S
O184 C183 1.227 1_545 S
N185 Co171 2.140 . S
N185 C188 1.346 . S
N185 C189 1.345 . S
C186 C187 1.387 . S
C186 C190 1.391 . S
C187 C186 1.387 . S
C187 C188 1.369 . S
C187 H196 0.929 . S
C188 N185 1.346 . S
C188 C187 1.369 . S
C188 H191 0.928 . S
C189 N185 1.345 . S
C189 C190 1.371 . S
C189 H192 0.931 . S
C190 C186 1.391 . S
C190 C189 1.371 . S
C190 H197 0.930 . S
H191 C188 0.928 . S
H192 C189 0.931 . S
H193 C169 0.930 . S
H194 C166 0.930 . S
H195 C175 0.930 . S
H196 C187 0.929 . S
H197 C190 0.930 . S
C198 C199 1.351 . S
C198 N201 1.368 . S
C198 H203 0.931 . S
C199 C198 1.351 . S
C199 N200 1.373 . S
C199 H227 0.930 . S
N200 C199 1.373 . S
N200 C202 1.340 . S
N201 C198 1.368 . S
N201 C202 1.321 . S
N201 Co204 2.135 . S
C202 N200 1.340 . S
C202 N201 1.321 . S
C202 H226 0.930 . S
H203 C198 0.931 . S
Co204 N201 2.135 . S
Co204 N207 2.121 . S
Co204 O212 2.055 . S
Co204 O215 2.039 . S
Co204 N218 2.140 . S
C205 O206 1.227 . S
C205 O215 1.265 . S
O206 C205 1.227 . S
N207 Co204 2.121 . S
N207 C209 1.375 . S
N207 C210 1.313 . S
C208 C209 1.338 . S
C208 N211 1.377 . S
C208 H228 0.930 . S
C209 N207 1.375 . S
C209 C208 1.338 . S
C209 H213 0.931 . S
C210 N207 1.313 . S
C210 N211 1.344 . S
C210 H214 0.930 . S
N211 C208 1.377 . S
N211 C210 1.344 . S
O212 Co204 2.055 . S
O212 C216 1.253 . S
H213 C209 0.931 . S
H214 C210 0.930 . S
O215 Co204 2.039 . S
O215 C205 1.265 . S
C216 O212 1.253 . S
C216 O217 1.227 . S
O217 C216 1.227 . S
N218 Co204 2.140 . S
N218 C221 1.346 . S
N218 C222 1.345 . S
C219 C220 1.387 . S
C219 C223 1.391 . S
C220 C219 1.387 . S
C220 C221 1.369 . S
C220 H229 0.929 . S
C221 N218 1.346 . S
C221 C220 1.369 . S
C221 H224 0.928 . S
C222 N218 1.345 . S
C222 C223 1.371 . S
C222 H225 0.931 . S
C223 C219 1.391 . S
C223 C222 1.371 . S
C223 H230 0.930 . S
H224 C221 0.928 . S
H225 C222 0.931 . S
H226 C202 0.930 . S
H227 C199 0.930 . S
H228 C208 0.930 . S
H229 C220 0.929 . S
H230 C223 0.930 . S
C231 C232 1.351 . S
C231 N234 1.368 . S
C231 H236 0.931 . S
C232 C231 1.351 . S
C232 N233 1.373 . S
C232 H260 0.930 . S
N233 C232 1.373 . S
N233 C235 1.340 . S
N234 C231 1.368 . S
N234 C235 1.321 . S
N234 Co237 2.135 . S
C235 N233 1.340 . S
C235 N234 1.321 . S
C235 H259 0.930 . S
H236 C231 0.931 . S
Co237 N234 2.135 . S
Co237 N240 2.121 . S
Co237 O245 2.055 1_565 S
Co237 O248 2.039 . S
Co237 N251 2.140 . S
C238 O239 1.227 . S
C238 O248 1.265 . S
O239 C238 1.227 . S
N240 Co237 2.121 . S
N240 C242 1.375 . S
N240 C243 1.313 . S
C241 C242 1.338 . S
C241 N244 1.377 . S
C241 H261 0.930 . S
C242 N240 1.375 . S
C242 C241 1.338 . S
C242 H246 0.931 . S
C243 N240 1.313 . S
C243 N244 1.344 . S
C243 H247 0.930 . S
N244 C241 1.377 . S
N244 C243 1.344 . S
O245 Co237 2.055 1_545 S
O245 C249 1.253 . S
H246 C242 0.931 . S
H247 C243 0.930 . S
O248 Co237 2.039 . S
O248 C238 1.265 . S
C249 O245 1.253 . S
C249 O250 1.227 1_545 S
O250 C249 1.227 1_565 S
N251 Co237 2.140 . S
N251 C254 1.346 . S
N251 C255 1.345 . S
C252 C253 1.387 . S
C252 C256 1.391 . S
C253 C252 1.387 . S
C253 C254 1.369 . S
C253 H262 0.929 . S
C254 N251 1.346 . S
C254 C253 1.369 . S
C254 H257 0.928 . S
C255 N251 1.345 . S
C255 C256 1.371 . S
C255 H258 0.931 . S
C256 C252 1.391 . S
C256 C255 1.371 . S
C256 H263 0.930 . S
H257 C254 0.928 . S
H258 C255 0.931 . S
H259 C235 0.930 . S
H260 C232 0.930 . S
H261 C241 0.930 . S
H262 C253 0.929 . S
H263 C256 0.930 . S
C264 C265 1.349 . S
C264 C266 1.327 . S
C264 H289 0.950 . S
C265 C264 1.349 . S
C265 C281 1.349 . S
C266 C264 1.327 . S
C266 C285 1.429 . S
C266 H290 0.950 1_655 S
C267 C284 1.574 . S
C267 C286 1.368 . S
C267 H291 0.949 . S
H268 C272 0.949 . S
C269 C270 1.349 . S
C269 C271 1.327 . S
C269 H292 0.950 . S
C270 C269 1.349 . S
C270 C282 1.349 . S
C271 C269 1.327 . S
C271 C287 1.429 . S
C271 H293 0.950 1_455 S
C272 H268 0.949 . S
C272 C280 1.574 . S
C272 C288 1.368 . S
H273 C281 0.950 . S
H274 C279 0.950 . S
H275 C280 0.949 . S
H276 C282 0.950 . S
H277 C283 0.950 . S
H278 C284 0.949 . S
C279 H274 0.950 . S
C279 C281 1.327 . S
C279 C285 1.429 . S
C280 C272 1.574 . S
C280 H275 0.949 . S
C280 C286 1.368 1_455 S
C281 C265 1.349 . S
C281 H273 0.950 . S
C281 C279 1.327 . S
C282 C270 1.349 . S
C282 H276 0.950 . S
C282 C283 1.327 . S
C283 H277 0.950 . S
C283 C282 1.327 . S
C283 C287 1.429 . S
C284 C267 1.574 . S
C284 H278 0.949 . S
C284 C288 1.368 1_655 S
C285 C266 1.429 . S
C285 C279 1.429 . S
C285 C286 1.523 . S
C286 C267 1.368 . S
C286 C280 1.368 1_655 S
C286 C285 1.523 . S
C287 C271 1.429 . S
C287 C283 1.429 . S
C287 C288 1.523 . S
C288 C272 1.368 . S
C288 C284 1.368 1_455 S
C288 C287 1.523 . S
H289 C264 0.950 . S
H290 C266 0.950 1_455 S
H291 C267 0.949 . S
H292 C269 0.950 . S
H293 C271 0.950 1_655 S
C294 C295 1.349 . S
C294 C296 1.327 . S
C294 H319 0.950 . S
C295 C294 1.349 . S
C295 C311 1.349 . S
C296 C294 1.327 . S
C296 C315 1.429 . S
C296 H320 0.950 . S
C297 C314 1.574 1_655 S
C297 C316 1.368 . S
C297 H321 0.949 . S
H298 C302 0.949 . S
C299 C300 1.349 . S
C299 C301 1.327 . S
C299 H322 0.950 . S
C300 C299 1.349 . S
C300 C312 1.349 . S
C301 C299 1.327 . S
C301 C317 1.429 . S
C301 H323 0.950 . S
C302 H298 0.949 . S
C302 C310 1.574 1_455 S
C302 C318 1.368 . S
H303 C311 0.950 . S
H304 C309 0.950 . S
H305 C310 0.949 . S
H306 C312 0.950 . S
H307 C313 0.950 . S
H308 C314 0.949 . S
C309 H304 0.950 . S
C309 C311 1.327 . S
C309 C315 1.429 . S
C310 C302 1.574 1_655 S
C310 H305 0.949 . S
C310 C316 1.368 . S
C311 C295 1.349 . S
C311 H303 0.950 . S
C311 C309 1.327 . S
C312 C300 1.349 . S
C312 H306 0.950 . S
C312 C313 1.327 . S
C313 H307 0.950 . S
C313 C312 1.327 . S
C313 C317 1.429 . S
C314 C297 1.574 1_455 S
C314 H308 0.949 . S
C314 C318 1.368 . S
C315 C296 1.429 . S
C315 C309 1.429 . S
C315 C316 1.523 . S
C316 C297 1.368 . S
C316 C310 1.368 . S
C316 C315 1.523 . S
C317 C301 1.429 . S
C317 C313 1.429 . S
C317 C318 1.523 . S
C318 C302 1.368 . S
C318 C314 1.368 . S
C318 C317 1.523 . S
H319 C294 0.950 . S
H320 C296 0.950 . S
H321 C297 0.949 . S
H322 C299 0.950 . S
H323 C301 0.950 . S
C324 C325 1.349 . S
C324 C326 1.327 . S
C324 H349 0.950 . S
C325 C324 1.349 . S
C325 C341 1.349 . S
C326 C324 1.327 . S
C326 C345 1.429 . S
C326 H350 0.950 . S
C327 C344 1.574 1_565 S
C327 C346 1.368 . S
C327 H351 0.949 . S
H328 C332 0.949 . S
C329 C330 1.349 . S
C329 C331 1.327 . S
C329 H352 0.950 . S
C330 C329 1.349 . S
C330 C342 1.349 . S
C331 C329 1.327 . S
C331 C347 1.429 . S
C331 H353 0.950 . S
C332 H328 0.949 . S
C332 C340 1.574 1_545 S
C332 C348 1.368 . S
H333 C341 0.950 . S
H334 C339 0.950 . S
H335 C340 0.949 . S
H336 C342 0.950 . S
H337 C343 0.950 . S
H338 C344 0.949 . S
C339 H334 0.950 . S
C339 C341 1.327 . S
C339 C345 1.429 . S
C340 C332 1.574 1_565 S
C340 H335 0.949 . S
C340 C346 1.368 . S
C341 C325 1.349 . S
C341 H333 0.950 . S
C341 C339 1.327 . S
C342 C330 1.349 . S
C342 H336 0.950 . S
C342 C343 1.327 . S
C343 H337 0.950 . S
C343 C342 1.327 . S
C343 C347 1.429 . S
C344 C327 1.574 1_545 S
C344 H338 0.949 . S
C344 C348 1.368 . S
C345 C326 1.429 . S
C345 C339 1.429 . S
C345 C346 1.523 . S
C346 C327 1.368 . S
C346 C340 1.368 . S
C346 C345 1.523 . S
C347 C331 1.429 . S
C347 C343 1.429 . S
C347 C348 1.523 . S
C348 C332 1.368 . S
C348 C344 1.368 . S
C348 C347 1.523 . S
H349 C324 0.950 . S
H350 C326 0.950 . S
H351 C327 0.949 . S
H352 C329 0.950 . S
H353 C331 0.950 . S
C354 C355 1.349 . S
C354 C356 1.327 . S
C354 H379 0.950 . S
C355 C354 1.349 . S
C355 C371 1.349 . S
C356 C354 1.327 . S
C356 C375 1.429 . S
C356 H380 0.950 . S
C357 C374 1.574 . S
C357 C376 1.368 1_545 S
C357 H381 0.949 . S
H358 C362 0.949 . S
C359 C360 1.349 . S
C359 C361 1.327 . S
C359 H382 0.950 . S
C360 C359 1.349 . S
C360 C372 1.349 . S
C361 C359 1.327 . S
C361 C377 1.429 . S
C361 H383 0.950 . S
C362 H358 0.949 . S
C362 C370 1.574 . S
C362 C378 1.368 1_565 S
H363 C371 0.950 . S
H364 C369 0.950 1_545 S
H365 C370 0.949 . S
H366 C372 0.950 . S
H367 C373 0.950 1_565 S
H368 C374 0.949 . S
C369 H364 0.950 1_565 S
C369 C371 1.327 . S
C369 C375 1.429 . S
C370 C362 1.574 . S
C370 H365 0.949 . S
C370 C376 1.368 . S
C371 C355 1.349 . S
C371 H363 0.950 . S
C371 C369 1.327 . S
C372 C360 1.349 . S
C372 H366 0.950 . S
C372 C373 1.327 . S
C373 H367 0.950 1_545 S
C373 C372 1.327 . S
C373 C377 1.429 . S
C374 C357 1.574 . S
C374 H368 0.949 . S
C374 C378 1.368 . S
C375 C356 1.429 . S
C375 C369 1.429 . S
C375 C376 1.523 . S
C376 C357 1.368 1_565 S
C376 C370 1.368 . S
C376 C375 1.523 . S
C377 C361 1.429 . S
C377 C373 1.429 . S
C377 C378 1.523 . S
C378 C362 1.368 1_545 S
C378 C374 1.368 . S
C378 C377 1.523 . S
H379 C354 0.950 . S
H380 C356 0.950 . S
H381 C357 0.949 . S
H382 C359 0.950 . S
H383 C361 0.950 . S
C384 C385 1.349 . S
C384 C386 1.327 . S
C384 H409 0.950 . S
C385 C384 1.349 . S
C385 C401 1.349 . S
C386 C384 1.327 . S
C386 C405 1.429 . S
C386 H410 0.950 . S
C387 C404 1.574 . S
C387 C406 1.368 . S
C387 H411 0.949 . S
H388 C392 0.949 . S
C389 C390 1.349 . S
C389 C391 1.327 . S
C389 H412 0.950 . S
C390 C389 1.349 . S
C390 C402 1.349 . S
C391 C389 1.327 . S
C391 C407 1.429 . S
C391 H413 0.950 . S
C392 H388 0.949 . S
C392 C400 1.574 . S
C392 C408 1.368 . S
H393 C401 0.950 . S
H394 C399 0.950 . S
H395 C400 0.949 . S
H396 C402 0.950 . S
H397 C403 0.950 . S
H398 C404 0.949 . S
C399 H394 0.950 . S
C399 C401 1.327 . S
C399 C405 1.429 . S
C400 C392 1.574 . S
C400 H395 0.949 . S
C400 C406 1.368 . S
C401 C385 1.349 . S
C401 H393 0.950 . S
C401 C399 1.327 . S
C402 C390 1.349 . S
C402 H396 0.950 . S
C402 C403 1.327 . S
C403 H397 0.950 . S
C403 C402 1.327 . S
C403 C407 1.429 . S
C404 C387 1.574 . S
C404 H398 0.949 . S
C404 C408 1.368 . S
C405 C386 1.429 . S
C405 C399 1.429 . S
C405 C406 1.523 . S
C406 C387 1.368 . S
C406 C400 1.368 . S
C406 C405 1.523 . S
C407 C391 1.429 . S
C407 C403 1.429 . S
C407 C408 1.523 . S
C408 C392 1.368 . S
C408 C404 1.368 . S
C408 C407 1.523 . S
H409 C384 0.950 . S
H410 C386 0.950 . S
H411 C387 0.949 . S
H412 C389 0.950 . S
H413 C391 0.950 . S
C414 C415 1.349 . S
C414 C416 1.327 . S
C414 H439 0.950 . S
C415 C414 1.349 . S
C415 C431 1.349 . S
C416 C414 1.327 . S
C416 C435 1.429 . S
C416 H440 0.950 . S
C417 C434 1.574 . S
C417 C436 1.368 . S
C417 H441 0.949 . S
H418 C422 0.949 . S
C419 C420 1.349 . S
C419 C421 1.327 . S
C419 H442 0.950 . S
C420 C419 1.349 . S
C420 C432 1.349 . S
C421 C419 1.327 . S
C421 C437 1.429 . S
C421 H443 0.950 . S
C422 H418 0.949 . S
C422 C430 1.574 . S
C422 C438 1.368 . S
H423 C431 0.950 . S
H424 C429 0.950 . S
H425 C430 0.949 . S
H426 C432 0.950 . S
H427 C433 0.950 . S
H428 C434 0.949 . S
C429 H424 0.950 . S
C429 C431 1.327 . S
C429 C435 1.429 . S
C430 C422 1.574 . S
C430 H425 0.949 . S
C430 C436 1.368 . S
C431 C415 1.349 . S
C431 H423 0.950 . S
C431 C429 1.327 . S
C432 C420 1.349 . S
C432 H426 0.950 . S
C432 C433 1.327 . S
C433 H427 0.950 . S
C433 C432 1.327 . S
C433 C437 1.429 . S
C434 C417 1.574 . S
C434 H428 0.949 . S
C434 C438 1.368 . S
C435 C416 1.429 . S
C435 C429 1.429 . S
C435 C436 1.523 . S
C436 C417 1.368 . S
C436 C430 1.368 . S
C436 C435 1.523 . S
C437 C421 1.429 . S
C437 C433 1.429 . S
C437 C438 1.523 . S
C438 C422 1.368 . S
C438 C434 1.368 . S
C438 C437 1.523 . S
H439 C414 0.950 . S
H440 C416 0.950 . S
H441 C417 0.949 . S
H442 C419 0.950 . S
H443 C421 0.950 . S
C444 C445 1.349 . S
C444 C446 1.327 . S
C444 H469 0.950 . S
C445 C444 1.349 . S
C445 C461 1.349 . S
C446 C444 1.327 . S
C446 C465 1.429 . S
C446 H470 0.950 . S
C447 C464 1.574 . S
C447 C466 1.368 . S
C447 H471 0.949 . S
H448 C452 0.949 . S
C449 C450 1.349 . S
C449 C451 1.327 . S
C449 H472 0.950 . S
C450 C449 1.349 . S
C450 C462 1.349 . S
C451 C449 1.327 . S
C451 C467 1.429 . S
C451 H473 0.950 . S
C452 H448 0.949 . S
C452 C460 1.574 . S
C452 C468 1.368 . S
H453 C461 0.950 . S
H454 C459 0.950 . S
H455 C460 0.949 . S
H456 C462 0.950 . S
H457 C463 0.950 . S
H458 C464 0.949 . S
C459 H454 0.950 . S
C459 C461 1.327 . S
C459 C465 1.429 . S
C460 C452 1.574 . S
C460 H455 0.949 . S
C460 C466 1.368 . S
C461 C445 1.349 . S
C461 H453 0.950 . S
C461 C459 1.327 . S
C462 C450 1.349 . S
C462 H456 0.950 . S
C462 C463 1.327 . S
C463 H457 0.950 . S
C463 C462 1.327 . S
C463 C467 1.429 . S
C464 C447 1.574 . S
C464 H458 0.949 . S
C464 C468 1.368 . S
C465 C446 1.429 . S
C465 C459 1.429 . S
C465 C466 1.523 . S
C466 C447 1.368 . S
C466 C460 1.368 . S
C466 C465 1.523 . S
C467 C451 1.429 . S
C467 C463 1.429 . S
C467 C468 1.523 . S
C468 C452 1.368 . S
C468 C464 1.368 . S
C468 C467 1.523 . S
H469 C444 0.950 . S
H470 C446 0.950 . S
H471 C447 0.949 . S
H472 C449 0.950 . S
H473 C451 0.950 . S
C474 C475 1.349 . S
C474 C476 1.327 . S
C474 H499 0.950 . S
C475 C474 1.349 . S
C475 C491 1.349 . S
C476 C474 1.327 . S
C476 C495 1.429 . S
C476 H500 0.950 . S
C477 C494 1.574 . S
C477 C496 1.368 . S
C477 H501 0.949 . S
H478 C482 0.949 . S
C479 C480 1.349 . S
C479 C481 1.327 . S
C479 H502 0.950 . S
C480 C479 1.349 . S
C480 C492 1.349 . S
C481 C479 1.327 . S
C481 C497 1.429 . S
C481 H503 0.950 . S
C482 H478 0.949 . S
C482 C490 1.574 . S
C482 C498 1.368 . S
H483 C491 0.950 . S
H484 C489 0.950 . S
H485 C490 0.949 . S
H486 C492 0.950 . S
H487 C493 0.950 . S
H488 C494 0.949 . S
C489 H484 0.950 . S
C489 C491 1.327 . S
C489 C495 1.429 . S
C490 C482 1.574 . S
C490 H485 0.949 . S
C490 C496 1.368 . S
C491 C475 1.349 . S
C491 H483 0.950 . S
C491 C489 1.327 . S
C492 C480 1.349 . S
C492 H486 0.950 . S
C492 C493 1.327 . S
C493 H487 0.950 . S
C493 C492 1.327 . S
C493 C497 1.429 . S
C494 C477 1.574 . S
C494 H488 0.949 . S
C494 C498 1.368 . S
C495 C476 1.429 . S
C495 C489 1.429 . S
C495 C496 1.523 . S
C496 C477 1.368 . S
C496 C490 1.368 . S
C496 C495 1.523 . S
C497 C481 1.429 . S
C497 C493 1.429 . S
C497 C498 1.523 . S
C498 C482 1.368 . S
C498 C494 1.368 . S
C498 C497 1.523 . S
H499 C474 0.950 . S
H500 C476 0.950 . S
H501 C477 0.949 . S
H502 C479 0.950 . S
H503 C481 0.950 . S
C504 C505 1.349 . S
C504 C506 1.327 . S
C504 H529 0.950 . S
C505 C504 1.349 . S
C505 C521 1.349 . S
C506 C504 1.327 . S
C506 C525 1.429 . S
C506 H530 0.950 . S
C507 C524 1.574 . S
C507 C526 1.368 . S
C507 H531 0.949 . S
H508 C512 0.949 . S
C509 C510 1.349 . S
C509 C511 1.327 . S
C509 H532 0.950 . S
C510 C509 1.349 . S
C510 C522 1.349 . S
C511 C509 1.327 . S
C511 C527 1.429 . S
C511 H533 0.950 . S
C512 H508 0.949 . S
C512 C520 1.574 . S
C512 C528 1.368 . S
H513 C521 0.950 . S
H514 C519 0.950 . S
H515 C520 0.949 . S
H516 C522 0.950 . S
H517 C523 0.950 . S
H518 C524 0.949 . S
C519 H514 0.950 . S
C519 C521 1.327 . S
C519 C525 1.429 . S
C520 C512 1.574 . S
C520 H515 0.949 . S
C520 C526 1.368 . S
C521 C505 1.349 . S
C521 H513 0.950 . S
C521 C519 1.327 . S
C522 C510 1.349 . S
C522 H516 0.950 . S
C522 C523 1.327 . S
C523 H517 0.950 . S
C523 C522 1.327 . S
C523 C527 1.429 . S
C524 C507 1.574 . S
C524 H518 0.949 . S
C524 C528 1.368 . S
C525 C506 1.429 . S
C525 C519 1.429 . S
C525 C526 1.523 . S
C526 C507 1.368 . S
C526 C520 1.368 . S
C526 C525 1.523 . S
C527 C511 1.429 . S
C527 C523 1.429 . S
C527 C528 1.523 . S
C528 C512 1.368 . S
C528 C524 1.368 . S
C528 C527 1.523 . S
H529 C504 0.950 . S
H530 C506 0.950 . S
H531 C507 0.949 . S
H532 C509 0.950 . S
H533 C511 0.950 . S
C534 C535 1.349 . S
C534 C536 1.327 . S
C534 H559 0.950 . S
C535 C534 1.349 . S
C535 C551 1.349 . S
C536 C534 1.327 . S
C536 C555 1.429 . S
C536 H560 0.950 . S
C537 C554 1.574 . S
C537 C556 1.368 . S
C537 H561 0.949 . S
H538 C542 0.949 . S
C539 C540 1.349 . S
C539 C541 1.327 . S
C539 H562 0.950 . S
C540 C539 1.349 . S
C540 C552 1.349 . S
C541 C539 1.327 . S
C541 C557 1.429 . S
C541 H563 0.950 . S
C542 H538 0.949 . S
C542 C550 1.574 . S
C542 C558 1.368 . S
H543 C551 0.950 . S
H544 C549 0.950 . S
H545 C550 0.949 . S
H546 C552 0.950 . S
H547 C553 0.950 . S
H548 C554 0.949 . S
C549 H544 0.950 . S
C549 C551 1.327 . S
C549 C555 1.429 . S
C550 C542 1.574 . S
C550 H545 0.949 . S
C550 C556 1.368 . S
C551 C535 1.349 . S
C551 H543 0.950 . S
C551 C549 1.327 . S
C552 C540 1.349 . S
C552 H546 0.950 . S
C552 C553 1.327 . S
C553 H547 0.950 . S
C553 C552 1.327 . S
C553 C557 1.429 . S
C554 C537 1.574 . S
C554 H548 0.949 . S
C554 C558 1.368 . S
C555 C536 1.429 . S
C555 C549 1.429 . S
C555 C556 1.523 . S
C556 C537 1.368 . S
C556 C550 1.368 . S
C556 C555 1.523 . S
C557 C541 1.429 . S
C557 C553 1.429 . S
C557 C558 1.523 . S
C558 C542 1.368 . S
C558 C554 1.368 . S
C558 C557 1.523 . S
H559 C534 0.950 . S
H560 C536 0.950 . S
H561 C537 0.949 . S
H562 C539 0.950 . S
H563 C541 0.950 . S
C564 C565 1.349 . S
C564 C566 1.327 . S
C564 H589 0.950 . S
C565 C564 1.349 . S
C565 C581 1.349 . S
C566 C564 1.327 . S
C566 C585 1.429 . S
C566 H590 0.950 . S
C567 C584 1.574 . S
C567 C586 1.368 . S
C567 H591 0.949 . S
H568 C572 0.949 . S
C569 C570 1.349 . S
C569 C571 1.327 . S
C569 H592 0.950 . S
C570 C569 1.349 . S
C570 C582 1.349 . S
C571 C569 1.327 . S
C571 C587 1.429 . S
C571 H593 0.950 . S
C572 H568 0.949 . S
C572 C580 1.574 . S
C572 C588 1.368 . S
H573 C581 0.950 . S
H574 C579 0.950 . S
H575 C580 0.949 . S
H576 C582 0.950 . S
H577 C583 0.950 . S
H578 C584 0.949 . S
C579 H574 0.950 . S
C579 C581 1.327 . S
C579 C585 1.429 . S
C580 C572 1.574 . S
C580 H575 0.949 . S
C580 C586 1.368 . S
C581 C565 1.349 . S
C581 H573 0.950 . S
C581 C579 1.327 . S
C582 C570 1.349 . S
C582 H576 0.950 . S
C582 C583 1.327 . S
C583 H577 0.950 . S
C583 C582 1.327 . S
C583 C587 1.429 . S
C584 C567 1.574 . S
C584 H578 0.949 . S
C584 C588 1.368 . S
C585 C566 1.429 . S
C585 C579 1.429 . S
C585 C586 1.523 . S
C586 C567 1.368 . S
C586 C580 1.368 . S
C586 C585 1.523 . S
C587 C571 1.429 . S
C587 C583 1.429 . S
C587 C588 1.523 . S
C588 C572 1.368 . S
C588 C584 1.368 . S
C588 C587 1.523 . S
H589 C564 0.950 . S
H590 C566 0.950 . S
H591 C567 0.949 . S
H592 C569 0.950 . S
H593 C571 0.950 . S
C594 C595 1.349 . S
C594 C596 1.327 . S
C594 H619 0.950 . S
C595 C594 1.349 . S
C595 C611 1.349 . S
C596 C594 1.327 . S
C596 C615 1.429 . S
C596 H620 0.950 . S
C597 C614 1.574 . S
C597 C616 1.368 . S
C597 H621 0.949 . S
H598 C602 0.949 . S
C599 C600 1.349 . S
C599 C601 1.327 . S
C599 H622 0.950 . S
C600 C599 1.349 . S
C600 C612 1.349 . S
C601 C599 1.327 . S
C601 C617 1.429 . S
C601 H623 0.950 . S
C602 H598 0.949 . S
C602 C610 1.574 . S
C602 C618 1.368 . S
H603 C611 0.950 . S
H604 C609 0.950 . S
H605 C610 0.949 . S
H606 C612 0.950 . S
H607 C613 0.950 . S
H608 C614 0.949 . S
C609 H604 0.950 . S
C609 C611 1.327 . S
C609 C615 1.429 . S
C610 C602 1.574 . S
C610 H605 0.949 . S
C610 C616 1.368 . S
C611 C595 1.349 . S
C611 H603 0.950 . S
C611 C609 1.327 . S
C612 C600 1.349 . S
C612 H606 0.950 . S
C612 C613 1.327 . S
C613 H607 0.950 . S
C613 C612 1.327 . S
C613 C617 1.429 . S
C614 C597 1.574 . S
C614 H608 0.949 . S
C614 C618 1.368 . S
C615 C596 1.429 . S
C615 C609 1.429 . S
C615 C616 1.523 . S
C616 C597 1.368 . S
C616 C610 1.368 . S
C616 C615 1.523 . S
C617 C601 1.429 . S
C617 C613 1.429 . S
C617 C618 1.523 . S
C618 C602 1.368 . S
C618 C614 1.368 . S
C618 C617 1.523 . S
H619 C594 0.950 . S
H620 C596 0.950 . S
H621 C597 0.949 . S
H622 C599 0.950 . S
H623 C601 0.950 . S
C624 C625 1.349 . S
C624 C626 1.327 . S
C624 H649 0.950 . S
C625 C624 1.349 . S
C625 C641 1.349 . S
C626 C624 1.327 . S
C626 C645 1.429 . S
C626 H650 0.950 . S
C627 C644 1.574 . S
C627 C646 1.368 . S
C627 H651 0.949 . S
H628 C632 0.949 . S
C629 C630 1.349 . S
C629 C631 1.327 . S
C629 H652 0.950 . S
C630 C629 1.349 . S
C630 C642 1.349 . S
C631 C629 1.327 . S
C631 C647 1.429 . S
C631 H653 0.950 . S
C632 H628 0.949 . S
C632 C640 1.574 . S
C632 C648 1.368 . S
H633 C641 0.950 . S
H634 C639 0.950 . S
H635 C640 0.949 . S
H636 C642 0.950 . S
H637 C643 0.950 . S
H638 C644 0.949 . S
C639 H634 0.950 . S
C639 C641 1.327 . S
C639 C645 1.429 . S
C640 C632 1.574 . S
C640 H635 0.949 . S
C640 C646 1.368 . S
C641 C625 1.349 . S
C641 H633 0.950 . S
C641 C639 1.327 . S
C642 C630 1.349 . S
C642 H636 0.950 . S
C642 C643 1.327 . S
C643 H637 0.950 . S
C643 C642 1.327 . S
C643 C647 1.429 . S
C644 C627 1.574 . S
C644 H638 0.949 . S
C644 C648 1.368 . S
C645 C626 1.429 . S
C645 C639 1.429 . S
C645 C646 1.523 . S
C646 C627 1.368 . S
C646 C640 1.368 . S
C646 C645 1.523 . S
C647 C631 1.429 . S
C647 C643 1.429 . S
C647 C648 1.523 . S
C648 C632 1.368 . S
C648 C644 1.368 . S
C648 C647 1.523 . S
H649 C624 0.950 . S
H650 C626 0.950 . S
H651 C627 0.949 . S
H652 C629 0.950 . S
H653 C631 0.950 . S
C654 C655 1.349 . S
C654 C656 1.327 . S
C654 H679 0.950 . S
C655 C654 1.349 . S
C655 C671 1.349 . S
C656 C654 1.327 . S
C656 C675 1.429 . S
C656 H680 0.950 . S
C657 C674 1.585 . S
C657 C676 1.357 1_556 S
C657 H681 0.949 . S
H658 C662 0.949 . S
C659 C660 1.349 . S
C659 C661 1.327 . S
C659 H682 0.950 . S
C660 C659 1.349 . S
C660 C672 1.349 . S
C661 C659 1.327 . S
C661 C677 1.429 . S
C661 H683 0.950 . S
C662 H658 0.949 . S
C662 C670 1.585 . S
C662 C678 1.357 1_554 S
H663 C671 0.950 . S
H664 C669 0.950 . S
H665 C670 0.949 . S
H666 C672 0.950 . S
H667 C673 0.950 . S
H668 C674 0.949 . S
C669 H664 0.950 . S
C669 C671 1.327 . S
C669 C675 1.429 . S
C670 C662 1.585 . S
C670 H665 0.949 . S
C670 C676 1.368 . S
C671 C655 1.349 . S
C671 H663 0.950 . S
C671 C669 1.327 . S
C672 C660 1.349 . S
C672 H666 0.950 . S
C672 C673 1.327 . S
C673 H667 0.950 . S
C673 C672 1.327 . S
C673 C677 1.429 . S
C674 C657 1.585 . S
C674 H668 0.949 . S
C674 C678 1.368 . S
C675 C656 1.429 . S
C675 C669 1.429 . S
C675 C676 1.523 . S
C676 C657 1.357 1_554 S
C676 C670 1.368 . S
C676 C675 1.523 . S
C677 C661 1.429 . S
C677 C673 1.429 . S
C677 C678 1.523 . S
C678 C662 1.357 1_556 S
C678 C674 1.368 . S
C678 C677 1.523 . S
H679 C654 0.950 . S
H680 C656 0.950 . S
H681 C657 0.949 . S
H682 C659 0.950 . S
H683 C661 0.950 . S
C684 C685 1.349 . S
C684 C686 1.327 . S
C684 H709 0.950 . S
C685 C684 1.349 . S
C685 C701 1.349 . S
C686 C684 1.327 . S
C686 C705 1.429 . S
C686 H710 0.950 . S
C687 C704 1.574 . S
C687 C706 1.368 . S
C687 H711 0.949 . S
H688 C692 0.949 . S
C689 C690 1.349 . S
C689 C691 1.327 . S
C689 H712 0.950 . S
C690 C689 1.349 . S
C690 C702 1.349 . S
C691 C689 1.327 . S
C691 C707 1.429 . S
C691 H713 0.950 . S
C692 H688 0.949 . S
C692 C700 1.574 . S
C692 C708 1.368 . S
H693 C701 0.950 . S
H694 C699 0.950 . S
H695 C700 0.949 . S
H696 C702 0.950 . S
H697 C703 0.950 . S
H698 C704 0.949 . S
C699 H694 0.950 . S
C699 C701 1.327 . S
C699 C705 1.429 . S
C700 C692 1.574 . S
C700 H695 0.949 . S
C700 C706 1.368 . S
C701 C685 1.349 . S
C701 H693 0.950 . S
C701 C699 1.327 . S
C702 C690 1.349 . S
C702 H696 0.950 . S
C702 C703 1.327 . S
C703 H697 0.950 . S
C703 C702 1.327 . S
C703 C707 1.429 . S
C704 C687 1.574 . S
C704 H698 0.949 . S
C704 C708 1.368 . S
C705 C686 1.429 . S
C705 C699 1.429 . S
C705 C706 1.523 . S
C706 C687 1.368 . S
C706 C700 1.368 . S
C706 C705 1.523 . S
C707 C691 1.429 . S
C707 C703 1.429 . S
C707 C708 1.523 . S
C708 C692 1.368 . S
C708 C704 1.368 . S
C708 C707 1.523 . S
H709 C684 0.950 . S
H710 C686 0.950 . S
H711 C687 0.949 . S
H712 C689 0.950 . S
H713 C691 0.950 . S
C714 C715 1.349 . S
C714 C716 1.327 . S
C714 H739 0.950 . S
C715 C714 1.349 . S
C715 C731 1.349 . S
C716 C714 1.327 . S
C716 C735 1.429 . S
C716 H740 0.950 . S
C717 C734 1.574 . S
C717 C736 1.368 . S
C717 H741 0.949 . S
H718 C722 0.949 . S
C719 C720 1.349 . S
C719 C721 1.327 . S
C719 H742 0.950 . S
C720 C719 1.349 . S
C720 C732 1.349 . S
C721 C719 1.327 . S
C721 C737 1.429 . S
C721 H743 0.950 . S
C722 H718 0.949 . S
C722 C730 1.574 . S
C722 C738 1.368 . S
H723 C731 0.950 . S
H724 C729 0.950 . S
H725 C730 0.949 . S
H726 C732 0.950 . S
H727 C733 0.950 . S
H728 C734 0.949 . S
C729 H724 0.950 . S
C729 C731 1.327 . S
C729 C735 1.429 . S
C730 C722 1.574 . S
C730 H725 0.949 . S
C730 C736 1.368 1_556 S
C731 C715 1.349 . S
C731 H723 0.950 . S
C731 C729 1.327 . S
C732 C720 1.349 . S
C732 H726 0.950 . S
C732 C733 1.327 . S
C733 H727 0.950 . S
C733 C732 1.327 . S
C733 C737 1.429 . S
C734 C717 1.574 . S
C734 H728 0.949 . S
C734 C738 1.368 1_554 S
C735 C716 1.429 . S
C735 C729 1.429 . S
C735 C736 1.523 . S
C736 C717 1.368 . S
C736 C730 1.368 1_554 S
C736 C735 1.523 . S
C737 C721 1.429 . S
C737 C733 1.429 . S
C737 C738 1.523 . S
C738 C722 1.368 . S
C738 C734 1.368 1_556 S
C738 C737 1.523 . S
H739 C714 0.950 . S
H740 C716 0.950 . S
H741 C717 0.949 . S
H742 C719 0.950 . S
H743 C721 0.950 . S
C744 C745 1.349 . S
C744 C746 1.327 . S
C744 H769 0.950 . S
C745 C744 1.349 . S
C745 C761 1.349 . S
C746 C744 1.327 . S
C746 C765 1.429 . S
C746 H770 0.950 . S
C747 C764 1.574 1_565 S
C747 C766 1.368 1_455 S
C747 H771 0.949 . S
H748 C752 0.949 . S
C749 C750 1.349 . S
C749 C751 1.327 . S
C749 H772 0.950 . S
C750 C749 1.349 . S
C750 C762 1.349 . S
C751 C749 1.327 . S
C751 C767 1.429 . S
C751 H773 0.950 . S
C752 H748 0.949 . S
C752 C760 1.574 1_545 S
C752 C768 1.368 1_655 S
H753 C761 0.950 . S
H754 C759 0.950 . S
H755 C760 0.949 . S
H756 C762 0.950 . S
H757 C763 0.950 . S
H758 C764 0.949 . S
C759 H754 0.950 . S
C759 C761 1.327 . S
C759 C765 1.429 . S
C760 C752 1.574 1_565 S
C760 H755 0.949 . S
C760 C766 1.368 . S
C761 C745 1.349 . S
C761 H753 0.950 . S
C761 C759 1.327 . S
C762 C750 1.349 . S
C762 H756 0.950 . S
C762 C763 1.327 . S
C763 H757 0.950 . S
C763 C762 1.327 . S
C763 C767 1.429 . S
C764 C747 1.574 1_545 S
C764 H758 0.949 . S
C764 C768 1.368 . S
C765 C746 1.429 . S
C765 C759 1.429 . S
C765 C766 1.523 . S
C766 C747 1.368 1_655 S
C766 C760 1.368 . S
C766 C765 1.523 . S
C767 C751 1.429 . S
C767 C763 1.429 . S
C767 C768 1.523 . S
C768 C752 1.368 1_455 S
C768 C764 1.368 . S
C768 C767 1.523 . S
H769 C744 0.950 . S
H770 C746 0.950 . S
H771 C747 0.949 . S
H772 C749 0.950 . S
H773 C751 0.950 . S
C774 C775 1.349 . S
C774 C776 1.327 . S
C774 H799 0.950 . S
C775 C774 1.349 . S
C775 C791 1.349 . S
C776 C774 1.327 . S
C776 C795 1.429 . S
C776 H800 0.950 . S
C777 C794 1.574 . S
C777 C796 1.368 . S
C777 H801 0.949 . S
H778 C782 0.949 . S
C779 C780 1.349 . S
C779 C781 1.327 . S
C779 H802 0.950 . S
C780 C779 1.349 . S
C780 C792 1.349 . S
C781 C779 1.327 . S
C781 C797 1.429 . S
C781 H803 0.950 . S
C782 H778 0.949 . S
C782 C790 1.574 . S
C782 C798 1.368 . S
H783 C791 0.950 . S
H784 C789 0.950 . S
H785 C790 0.949 . S
H786 C792 0.950 . S
H787 C793 0.950 . S
H788 C794 0.949 . S
C789 H784 0.950 . S
C789 C791 1.327 . S
C789 C795 1.429 . S
C790 C782 1.574 . S
C790 H785 0.949 . S
C790 C796 1.368 . S
C791 C775 1.349 . S
C791 H783 0.950 . S
C791 C789 1.327 . S
C792 C780 1.349 . S
C792 H786 0.950 . S
C792 C793 1.327 . S
C793 H787 0.950 . S
C793 C792 1.327 . S
C793 C797 1.429 . S
C794 C777 1.574 . S
C794 H788 0.949 . S
C794 C798 1.368 . S
C795 C776 1.429 . S
C795 C789 1.429 . S
C795 C796 1.523 . S
C796 C777 1.368 . S
C796 C790 1.368 . S
C796 C795 1.523 . S
C797 C781 1.429 . S
C797 C793 1.429 . S
C797 C798 1.523 . S
C798 C782 1.368 . S
C798 C794 1.368 . S
C798 C797 1.523 . S
H799 C774 0.950 . S
H800 C776 0.950 . S
H801 C777 0.949 . S
H802 C779 0.950 . S
H803 C781 0.950 . S
C804 C805 1.349 . S
C804 C806 1.327 . S
C804 H829 0.950 . S
C805 C804 1.349 . S
C805 C821 1.349 . S
C806 C804 1.327 . S
C806 C825 1.429 . S
C806 H830 0.950 . S
C807 C824 1.574 . S
C807 C826 1.368 . S
C807 H831 0.949 . S
H808 C812 0.949 . S
C809 C810 1.349 . S
C809 C811 1.327 . S
C809 H832 0.950 . S
C810 C809 1.349 . S
C810 C822 1.349 . S
C811 C809 1.327 . S
C811 C827 1.429 . S
C811 H833 0.950 . S
C812 H808 0.949 . S
C812 C820 1.574 . S
C812 C828 1.368 . S
H813 C821 0.950 . S
H814 C819 0.950 . S
H815 C820 0.949 . S
H816 C822 0.950 . S
H817 C823 0.950 . S
H818 C824 0.949 . S
C819 H814 0.950 . S
C819 C821 1.327 . S
C819 C825 1.429 . S
C820 C812 1.574 . S
C820 H815 0.949 . S
C820 C826 1.368 . S
C821 C805 1.349 . S
C821 H813 0.950 . S
C821 C819 1.327 . S
C822 C810 1.349 . S
C822 H816 0.950 . S
C822 C823 1.327 . S
C823 H817 0.950 . S
C823 C822 1.327 . S
C823 C827 1.429 . S
C824 C807 1.574 . S
C824 H818 0.949 . S
C824 C828 1.368 . S
C825 C806 1.429 . S
C825 C819 1.429 . S
C825 C826 1.523 . S
C826 C807 1.368 . S
C826 C820 1.368 . S
C826 C825 1.523 . S
C827 C811 1.429 . S
C827 C823 1.429 . S
C827 C828 1.523 . S
C828 C812 1.368 . S
C828 C824 1.368 . S
C828 C827 1.523 . S
H829 C804 0.950 . S
H830 C806 0.950 . S
H831 C807 0.949 . S
H832 C809 0.950 . S
H833 C811 0.950 . S
C834 C835 1.349 . S
C834 C836 1.327 . S
C834 H859 0.950 . S
C835 C834 1.349 . S
C835 C851 1.349 . S
C836 C834 1.327 . S
C836 C855 1.429 . S
C836 H860 0.950 . S
C837 C854 1.574 1_455 S
C837 C856 1.368 1_565 S
C837 H861 0.949 . S
H838 C842 0.949 . S
C839 C840 1.349 . S
C839 C841 1.327 . S
C839 H862 0.950 . S
C840 C839 1.349 . S
C840 C852 1.349 . S
C841 C839 1.327 . S
C841 C857 1.429 . S
C841 H863 0.950 . S
C842 H838 0.949 . S
C842 C850 1.574 1_655 S
C842 C858 1.368 1_545 S
H843 C851 0.950 . S
H844 C849 0.950 . S
H845 C850 0.949 . S
H846 C852 0.950 . S
H847 C853 0.950 . S
H848 C854 0.949 . S
C849 H844 0.950 . S
C849 C851 1.327 . S
C849 C855 1.429 . S
C850 C842 1.574 1_455 S
C850 H845 0.949 . S
C850 C856 1.368 . S
C851 C835 1.349 . S
C851 H843 0.950 . S
C851 C849 1.327 . S
C852 C840 1.349 . S
C852 H846 0.950 . S
C852 C853 1.327 . S
C853 H847 0.950 . S
C853 C852 1.327 . S
C853 C857 1.429 . S
C854 C837 1.574 1_655 S
C854 H848 0.949 . S
C854 C858 1.368 . S
C855 C836 1.429 . S
C855 C849 1.429 . S
C855 C856 1.523 . S
C856 C837 1.368 1_545 S
C856 C850 1.368 . S
C856 C855 1.523 . S
C857 C841 1.429 . S
C857 C853 1.429 . S
C857 C858 1.523 . S
C858 C842 1.368 1_565 S
C858 C854 1.368 . S
C858 C857 1.523 . S
H859 C834 0.950 . S
H860 C836 0.950 . S
H861 C837 0.949 . S
H862 C839 0.950 . S
H863 C841 0.950 . S
C265 N79 1.056 . S
C270 N13 1.056 . S
C295 N112 1.056 . S
C300 N46 1.056 . S
C325 N211 1.056 . S
C330 N145 1.056 . S
C355 N244 1.056 . S
C360 N178 1.056 . S
C385 C150 1.974 . S
C390 C21 1.971 . S
C415 C183 1.974 . S
C420 C54 1.971 . S
C445 C216 1.974 . S
C450 C87 1.971 . S
C475 C120 1.971 . S
C480 C249 1.974 . S
C505 C18 1.974 . S
C510 C153 1.971 . S
C535 C51 1.974 . S
C540 C186 1.971 . S
C565 C84 1.974 . S
C570 C219 1.971 . S
C595 C252 1.971 . S
C600 C117 1.974 . S
C625 C7 1.743 . S
C630 C172 1.743 . S
C655 C205 1.743 . S
C660 C40 1.743 . S
C685 C238 1.743 . S
C690 C73 1.743 . S
C715 C139 1.743 . S
C720 C106 1.743 . S
C745 N68 0.638 . S
C750 N2 0.638 . S
C775 N35 0.638 . S
C780 N101 0.638 . S
C805 N200 0.638 . S
C810 N134 0.638 . S
C835 N167 0.638 . S
C840 N233 0.638 . S
