# Generated by pormake.
# Topology wjq, (5)-cn, num edge types: 1
# Building blocks:
#     Node 0, Type 0, BuildingBlock: XOMCOT_clean_sbu_1, # of connection points: 5
#     Node 1, Type 0, BuildingBlock: XOMCOT_clean_sbu_1, # of connection points: 5
#     Node 2, Type 0, BuildingBlock: XOMCOT_clean_sbu_1, # of connection points: 5
#     Node 3, Type 0, BuildingBlock: XOMCOT_clean_sbu_1, # of connection points: 5
#     Node 4, Type 0, BuildingBlock: XOMCOT_clean_sbu_1, # of connection points: 5
#     Node 5, Type 0, BuildingBlock: XOMCOT_clean_sbu_1, # of connection points: 5
#     Node 6, Type 0, BuildingBlock: XOMCOT_clean_sbu_1, # of connection points: 5
#     Node 7, Type 0, BuildingBlock: XOMCOT_clean_sbu_1, # of connection points: 5
#     Node 8, Type 0, BuildingBlock: XOMCOT_clean_sbu_1, # of connection points: 5
#     Node 9, Type 0, BuildingBlock: XOMCOT_clean_sbu_1, # of connection points: 5
#     Node 10, Type 0, BuildingBlock: XOMCOT_clean_sbu_1, # of connection points: 5
#     Node 11, Type 0, BuildingBlock: XOMCOT_clean_sbu_1, # of connection points: 5
#     Edge 12, Type (0, 0), BuildingBlock: EZIPEK_clean_linker_0, # of connection points: 2
#     Edge 13, Type (0, 0), BuildingBlock: EZIPEK_clean_linker_0, # of connection points: 2
#     Edge 14, Type (0, 0), BuildingBlock: EZIPEK_clean_linker_0, # of connection points: 2
#     Edge 15, Type (0, 0), BuildingBlock: EZIPEK_clean_linker_0, # of connection points: 2
#     Edge 16, Type (0, 0), BuildingBlock: EZIPEK_clean_linker_0, # of connection points: 2
#     Edge 17, Type (0, 0), BuildingBlock: EZIPEK_clean_linker_0, # of connection points: 2
#     Edge 18, Type (0, 0), BuildingBlock: EZIPEK_clean_linker_0, # of connection points: 2
#     Edge 19, Type (0, 0), BuildingBlock: EZIPEK_clean_linker_0, # of connection points: 2
#     Edge 20, Type (0, 0), BuildingBlock: EZIPEK_clean_linker_0, # of connection points: 2
#     Edge 21, Type (0, 0), BuildingBlock: EZIPEK_clean_linker_0, # of connection points: 2
#     Edge 22, Type (0, 0), BuildingBlock: EZIPEK_clean_linker_0, # of connection points: 2
#     Edge 23, Type (0, 0), BuildingBlock: EZIPEK_clean_linker_0, # of connection points: 2
#     Edge 24, Type (0, 0), BuildingBlock: EZIPEK_clean_linker_0, # of connection points: 2
#     Edge 25, Type (0, 0), BuildingBlock: EZIPEK_clean_linker_0, # of connection points: 2
#     Edge 26, Type (0, 0), BuildingBlock: EZIPEK_clean_linker_0, # of connection points: 2
#     Edge 27, Type (0, 0), BuildingBlock: EZIPEK_clean_linker_0, # of connection points: 2
#     Edge 28, Type (0, 0), BuildingBlock: EZIPEK_clean_linker_0, # of connection points: 2
#     Edge 29, Type (0, 0), BuildingBlock: EZIPEK_clean_linker_0, # of connection points: 2
#     Edge 30, Type (0, 0), BuildingBlock: EZIPEK_clean_linker_0, # of connection points: 2
#     Edge 31, Type (0, 0), BuildingBlock: EZIPEK_clean_linker_0, # of connection points: 2
#     Edge 32, Type (0, 0), BuildingBlock: EZIPEK_clean_linker_0, # of connection points: 2
#     Edge 33, Type (0, 0), BuildingBlock: EZIPEK_clean_linker_0, # of connection points: 2
#     Edge 34, Type (0, 0), BuildingBlock: EZIPEK_clean_linker_0, # of connection points: 2
#     Edge 35, Type (0, 0), BuildingBlock: EZIPEK_clean_linker_0, # of connection points: 2
#     Edge 36, Type (0, 0), BuildingBlock: EZIPEK_clean_linker_0, # of connection points: 2
#     Edge 37, Type (0, 0), BuildingBlock: EZIPEK_clean_linker_0, # of connection points: 2
#     Edge 38, Type (0, 0), BuildingBlock: EZIPEK_clean_linker_0, # of connection points: 2
#     Edge 39, Type (0, 0), BuildingBlock: EZIPEK_clean_linker_0, # of connection points: 2
#     Edge 40, Type (0, 0), BuildingBlock: EZIPEK_clean_linker_0, # of connection points: 2
#     Edge 41, Type (0, 0), BuildingBlock: EZIPEK_clean_linker_0, # of connection points: 2
# Relax obj value: 0.573
# Max RMSD: 0.292
# Mean RMSD: 0.292
data_MOF--net-wjq--node1-XOMCOT_clean_sbu_1--edge1-EZIPEK_clean_linker_0
_symmetry_space_group_name_H-M    P1
_symmetry_Int_Tables_number       1
_symmetry_cell_setting            triclinic
loop_
_symmetry_equiv_pos_as_xyz
'x, y, z'
_cell_length_a     20.30946
_cell_length_b     20.403987
_cell_length_c     70.49228
_cell_angle_alpha  89.953765
_cell_angle_beta   90.202159
_cell_angle_gamma 119.64166
loop_
_atom_site_label
_atom_site_type_symbol
_atom_site_fract_x
_atom_site_fract_y
_atom_site_fract_z
_atom_type_partial_charge
C0 C 0.36462 0.29758 0.02957 0.0
C1 C 0.323 0.30074 0.01441 0.0
N2 N 0.24949 0.25072 0.01745 0.0
N3 N 0.31764 0.24602 0.04219 0.0
C4 C 0.24766 0.21847 0.03435 0.0
H5 H 0.42562 0.32891 0.03097 0.0
Co6 Co 0.34907 0.21202 0.0635 0.0
C7 C 0.20404 0.09167 0.08028 0.0
O8 O 0.23629 0.04995 0.08223 0.0
N9 N 0.38045 0.17725 0.08499 0.0
C10 C 0.42064 0.11864 0.10477 0.0
C11 C 0.40692 0.12793 0.08616 0.0
C12 C 0.37872 0.19672 0.10327 0.0
N13 N 0.40311 0.16218 0.11542 0.0
O14 O 0.37203 0.3028 0.07692 0.0
H15 H 0.41424 0.09802 0.07451 0.0
H16 H 0.35863 0.23445 0.10774 0.0
O17 O 0.24317 0.15701 0.07271 0.0
C18 C 0.4439 0.34606 0.07565 0.0
O19 O 0.4842 0.31952 0.06765 0.0
N20 N 0.33903 0.13316 0.04895 0.0
C21 C 0.3538 0.05476 0.01906 0.0
C22 C 0.28174 0.03531 0.0259 0.0
C23 C 0.27533 0.07618 0.04086 0.0
C24 C 0.40927 0.15174 0.04241 0.0
C25 C 0.41824 0.11149 0.02784 0.0
H26 H 0.2197 0.06585 0.04471 0.0
H27 H 0.45871 0.20001 0.04825 0.0
H28 H 0.19651 0.17305 0.04034 0.0
H29 H 0.34508 0.33552 0.00188 0.0
H30 H 0.44108 0.0822 0.11014 0.0
H31 H 0.23106 0.99239 0.01891 0.0
H32 H 0.47434 0.12792 0.02255 0.0
C33 C 1.00969 0.34787 0.37123 0.0
C34 C 0.97364 0.31162 0.35474 0.0
N35 N 0.98811 0.25472 0.35113 0.0
N36 N 0.04435 0.31264 0.37893 0.0
C37 C 0.02749 0.25473 0.3668 0.0
H38 H 1.00865 0.39577 0.3774 0.0
Co39 Co 0.10418 0.33984 0.4014 0.0
C40 C 0.06161 0.19192 0.42033 0.0
O41 O 0.1296 0.22157 0.42788 0.0
N42 N 0.16416 0.36678 0.42383 0.0
C43 C 0.26059 0.41427 0.44438 0.0
C44 C 0.24041 0.39908 0.4256 0.0
C45 C 0.13959 0.36299 0.44184 0.0
N46 N 0.1971 0.3918 0.45446 0.0
O47 O 0.03599 0.3691 0.41317 0.0
H48 H 0.27997 0.41256 0.41412 0.0
H49 H 0.0808 0.34042 0.44566 0.0
O50 O 0.0457 0.23381 0.40989 0.0
C51 C 0.07128 0.44141 0.41423 0.0
O52 O 0.14396 0.47768 0.41024 0.0
N53 N 0.17489 0.32437 0.38862 0.0
C54 C 0.2722 0.32913 0.36074 0.0
C55 C 0.2254 0.26143 0.37023 0.0
C56 C 0.17701 0.26019 0.38437 0.0
C57 C 0.22339 0.39121 0.3802 0.0
C58 C 0.27452 0.39546 0.36661 0.0
H59 H 0.13693 0.20646 0.39024 0.0
H60 H 0.2198 0.44105 0.38356 0.0
H61 H 0.04111 0.21121 0.36996 0.0
H62 H 0.93648 0.32523 0.34681 0.0
H63 H 0.31746 0.44133 0.45018 0.0
H64 H 0.22246 0.20918 0.36581 0.0
H65 H 0.31043 0.4485 0.35951 0.0
C66 C 0.7681 0.15122 0.69224 0.0
C67 C 0.76749 0.10821 0.67704 0.0
N68 N 0.78952 0.05962 0.68325 0.0
N69 N 0.78969 0.12959 0.70808 0.0
C70 C 0.80254 0.07361 0.70209 0.0
H71 H 0.75518 0.19664 0.69171 0.0
Co72 Co 0.80415 0.17606 0.73224 0.0
C73 C 0.91889 0.14821 0.75075 0.0
O74 O 0.95577 0.2207 0.75456 0.0
N75 N 0.81728 0.22098 0.75687 0.0
C76 C 0.83109 0.29206 0.78238 0.0
C77 C 0.83049 0.28971 0.76288 0.0
C78 C 0.80802 0.18242 0.77322 0.0
N79 N 0.81702 0.22449 0.78872 0.0
O80 O 0.70592 0.09849 0.7399 0.0
H81 H 0.83791 0.33596 0.7541 0.0
H82 H 0.79443 0.12404 0.7738 0.0
O83 O 0.85672 0.1221 0.74131 0.0
C84 C 0.66661 0.13109 0.7371 0.0
O85 O 0.70112 0.20062 0.73067 0.0
N86 N 0.8929 0.25646 0.7233 0.0
C87 C 0.99258 0.37125 0.69999 0.0
C88 C 1.0008 0.3078 0.703 0.0
C89 C 0.94974 0.25033 0.7147 0.0
C90 C 0.88531 0.31846 0.72041 0.0
C91 C 0.93771 0.37905 0.70986 0.0
H92 H 0.95145 0.19831 0.71523 0.0
H93 H 0.83381 0.31765 0.7244 0.0
H94 H 0.82241 0.04429 0.71121 0.0
H95 H 0.75353 0.11325 0.66248 0.0
H96 H 0.84081 0.33937 0.79124 0.0
H97 H 0.04208 0.29991 0.69511 0.0
H98 H 0.92885 0.42645 0.70719 0.0
C99 C 0.68558 0.7454 0.02679 0.0
C100 C 0.71573 0.72734 0.0115 0.0
N101 N 0.78173 0.73276 0.01696 0.0
N102 N 0.73222 0.76221 0.04193 0.0
C103 C 0.79046 0.75367 0.03544 0.0
H104 H 0.63407 0.74861 0.02667 0.0
Co105 Co 0.72189 0.79867 0.0659 0.0
C106 C 0.87517 0.9279 0.07298 0.0
O107 O 0.84205 0.96819 0.07597 0.0
N108 N 0.71543 0.83696 0.09052 0.0
C109 C 0.70578 0.90217 0.11486 0.0
C110 C 0.70212 0.89374 0.09553 0.0
C111 C 0.72876 0.81342 0.10737 0.0
N112 N 0.72247 0.85162 0.12217 0.0
O113 O 0.7089 0.70633 0.07712 0.0
H114 H 0.69331 0.93004 0.08601 0.0
H115 H 0.74305 0.76921 0.1089 0.0
O116 O 0.83479 0.85765 0.06859 0.0
C117 C 0.6373 0.66827 0.08054 0.0
O118 O 0.59852 0.70413 0.08064 0.0
N119 N 0.71508 0.87529 0.05359 0.0
C120 C 0.65536 0.92939 0.02651 0.0
C121 C 0.73092 0.94547 0.02522 0.0
C122 C 0.75998 0.91738 0.039 0.0
C123 C 0.64237 0.86184 0.05514 0.0
C124 C 0.61262 0.89175 0.04229 0.0
H125 H 0.81396 0.92059 0.03658 0.0
H126 H 0.60499 0.82288 0.06567 0.0
H127 H 0.83932 0.76435 0.0439 0.0
H128 H 0.69203 0.71308 -0.00266 0.0
H129 H 0.69711 0.94232 0.12296 0.0
H130 H 0.76464 0.97354 0.01283 0.0
H131 H 0.55398 0.87803 0.04346 0.0
C132 C 1.02058 0.7163 0.3738 0.0
C133 C 0.0708 0.74821 0.3592 0.0
N134 N 0.06926 0.81031 0.3536 0.0
N135 N 0.98752 0.75824 0.37769 0.0
C136 C 1.01778 0.81494 0.36484 0.0
H137 H 1.00846 0.66472 0.38088 0.0
Co138 Co 0.91506 0.73667 0.39679 0.0
C139 C 0.94808 0.87609 0.40416 0.0
O140 O 0.88336 0.84386 0.39489 0.0
N141 N 0.84361 0.71523 0.41611 0.0
C142 C 0.74253 0.68781 0.43386 0.0
C143 C 0.76806 0.68935 0.41564 0.0
C144 C 0.8625 0.72967 0.4346 0.0
N145 N 0.8025 0.71316 0.44559 0.0
O146 O 0.96154 0.68807 0.41172 0.0
H147 H 0.73352 0.67358 0.40297 0.0
H148 H 0.91942 0.75113 0.44001 0.0
O149 O 0.97893 0.83579 0.40797 0.0
C150 C 0.93456 0.62891 0.42218 0.0
O151 O 0.86094 0.59075 0.42483 0.0
N152 N 0.85011 0.64781 0.38403 0.0
C153 C 0.77193 0.55747 0.35325 0.0
C154 C 0.77094 0.62443 0.35699 0.0
C155 C 0.81033 0.66841 0.37234 0.0
C156 C 0.84924 0.5809 0.38136 0.0
C157 C 0.80874 0.53377 0.3661 0.0
H158 H 0.81435 0.72287 0.37409 0.0
H159 H 0.88419 0.56591 0.38973 0.0
H160 H 1.00271 0.85861 0.36371 0.0
H161 H 0.10547 0.72718 0.353 0.0
H162 H 0.68501 0.67 0.43817 0.0
H163 H 0.74465 0.64599 0.34732 0.0
H164 H 0.81058 0.48231 0.36368 0.0
C165 C 0.27044 0.97649 0.69818 0.0
C166 C 0.27667 1.0117 0.68115 0.0
N167 N 0.23988 0.05183 0.68204 0.0
N168 N 0.23273 0.99604 0.71042 0.0
C169 C 0.2176 0.04411 0.70053 0.0
H170 H 0.2937 0.94035 0.70162 0.0
Co171 Co 0.20998 0.95988 0.7355 0.0
C172 C 0.08711 0.98662 0.74815 0.0
O173 O 0.0557 0.91886 0.75563 0.0
N174 N 0.18972 0.92593 0.76101 0.0
C175 C 0.19314 0.93854 0.79244 0.0
C176 C 0.21171 0.97595 0.7755 0.0
C177 C 0.15672 0.85765 0.76971 0.0
N178 N 0.15906 0.86442 0.78877 0.0
O179 O 0.30434 0.04284 0.74336 0.0
H180 H 0.23948 0.03648 0.77389 0.0
H181 H 0.13085 0.80391 0.76254 0.0
O182 O 0.15118 0.01311 0.73959 0.0
C183 C 0.34727 0.01344 0.74393 0.0
O184 O 0.31704 0.94053 0.74111 0.0
N185 N 0.12578 0.87433 0.72634 0.0
C186 C 0.06452 0.77391 0.69662 0.0
C187 C 0.0446 0.82979 0.69928 0.0
C188 C 0.07651 0.88015 0.71418 0.0
C189 C 0.13858 0.81475 0.72511 0.0
C190 C 0.1063 0.76196 0.71056 0.0
H191 H 0.07185 0.93047 0.71369 0.0
H192 H 0.18276 0.81418 0.73356 0.0
H193 H 0.19332 0.07462 0.70723 0.0
H194 H 0.30933 1.00978 0.66932 0.0
H195 H 0.20346 0.96358 0.80644 0.0
H196 H 1.01278 0.84056 0.68854 0.0
H197 H 0.12269 0.71928 0.70871 0.0
C198 C 0.75888 0.7393 0.61632 0.0
C199 C 0.75394 0.77012 0.63321 0.0
N200 N 0.80282 0.84543 0.63323 0.0
N201 N 0.80773 0.79406 0.60485 0.0
C202 C 0.83058 0.85817 0.61516 0.0
H203 H 0.72788 0.6805 0.61266 0.0
Co204 Co 0.8385 0.77859 0.58049 0.0
C205 C 0.94198 0.93222 0.56658 0.0
O206 O 0.98849 0.90664 0.56279 0.0
N207 N 0.86961 0.76556 0.55571 0.0
C208 C 0.91947 0.74 0.53051 0.0
C209 C 0.92214 0.74725 0.54991 0.0
C210 C 0.83762 0.77106 0.53931 0.0
N211 N 0.86602 0.75466 0.52396 0.0
O212 O 0.73542 0.74154 0.57112 0.0
H213 H 0.9605 0.73911 0.5589 0.0
H214 H 0.79339 0.78573 0.53858 0.0
O215 O 0.8777 0.8867 0.57413 0.0
C216 C 0.70675 0.66984 0.56859 0.0
O217 O 0.75269 0.64184 0.56863 0.0
N218 N 0.92888 0.79584 0.59131 0.0
C219 C 1.00235 0.76982 0.62083 0.0
C220 C 1.01441 0.84279 0.6176 0.0
C221 C 0.97696 0.85496 0.60252 0.0
C222 C 0.9221 0.72637 0.5936 0.0
C223 C 0.96107 0.71284 0.60778 0.0
H224 H 0.97932 0.90884 0.6015 0.0
H225 H 0.87985 0.67884 0.58564 0.0
H226 H 0.86559 0.91329 0.60916 0.0
H227 H 0.71396 0.738 0.64417 0.0
H228 H 0.95267 0.72328 0.52188 0.0
H229 H 0.04606 0.88772 0.62769 0.0
H230 H 0.95044 0.65593 0.61014 0.0
C231 C 0.0631 0.6645 0.95443 0.0
C232 C 0.02382 0.66246 0.97058 0.0
N233 N 0.97726 0.68956 0.9662 0.0
N234 N 0.04136 0.69262 0.93989 0.0
C235 C 0.98876 0.70729 0.94757 0.0
H236 H 0.10644 0.64854 0.95346 0.0
Co237 Co 0.08709 0.71544 0.91566 0.0
C238 C 0.04728 0.82495 0.89916 0.0
O239 O 0.11918 0.86587 0.89476 0.0
N240 N 0.13199 0.73797 0.89107 0.0
C241 C 0.206 0.79133 0.86604 0.0
C242 C 0.20401 0.78499 0.88539 0.0
C243 C 0.09214 0.71471 0.87461 0.0
N244 N 0.13552 0.74805 0.85927 0.0
O245 O 1.01359 0.61758 0.90695 0.0
H246 H 0.25241 0.81722 0.89437 0.0
H247 H 0.03157 0.67702 0.87394 0.0
O248 O 0.0262 0.76268 0.90804 0.0
C249 C 0.0484 0.57977 0.90793 0.0
O250 O 0.12033 0.6149 0.91274 0.0
N251 N 0.16351 0.80386 0.92578 0.0
C252 C 0.27156 0.89959 0.95126 0.0
C253 C 0.20742 0.90637 0.94758 0.0
C254 C 0.1532 0.85711 0.93487 0.0
C255 C 0.22638 0.79769 0.92918 0.0
C256 C 0.28328 0.84761 0.9412 0.0
H257 H 0.10022 0.85717 0.93392 0.0
H258 H 0.23046 0.75097 0.92327 0.0
H259 H 0.96143 0.73325 0.93998 0.0
H260 H 0.03007 0.64409 0.98455 0.0
H261 H 0.25505 0.82784 0.85757 0.0
H262 H 0.19654 0.94529 0.95562 0.0
H263 H 0.33186 0.84063 0.94413 0.0
C264 C 0.40073 0.04169 0.28501 0.0
C265 C 0.3603 1.00127 0.30063 0.0
N266 N 0.28623 0.97506 0.29712 0.0
N267 N 0.35219 0.04026 0.27169 0.0
C268 C 0.28277 0.9991 0.27954 0.0
H269 H 0.46174 0.07278 0.28374 0.0
Co270 Co 0.37963 0.0976 0.2495 0.0
C271 C 0.23004 0.06122 0.23197 0.0
O272 O 0.25934 0.13347 0.22841 0.0
N273 N 0.40806 0.15584 0.22701 0.0
C274 C 0.45425 0.2484 0.20559 0.0
C275 C 0.44588 0.23165 0.2246 0.0
C276 C 0.39502 0.12805 0.20911 0.0
N277 N 0.42236 0.1832 0.19594 0.0
O278 O 0.4066 0.0279 0.2381 0.0
H279 H 0.46644 0.27341 0.23569 0.0
H280 H 0.3652 0.06847 0.20576 0.0
O281 O 0.27283 0.04007 0.24028 0.0
C282 C 0.47808 0.05411 0.24004 0.0
O283 O 0.51927 0.12286 0.2467 0.0
N284 N 0.36359 0.16812 0.26237 0.0
C285 C 0.36371 0.25745 0.29195 0.0
C286 C 0.29534 0.20086 0.28439 0.0
C287 C 0.29635 0.15638 0.26964 0.0
C288 C 0.43052 0.22404 0.26948 0.0
C289 C 0.43197 0.27168 0.28379 0.0
H290 H 0.24321 0.10837 0.2657 0.0
H291 H 0.48331 0.22867 0.26479 0.0
H292 H 0.23061 0.98982 0.27305 0.0
H293 H 0.38349 0.99445 0.31385 0.0
H294 H 0.48137 0.30403 0.19928 0.0
H295 H 0.24164 0.18795 0.2907 0.0
H296 H 0.48566 0.31478 0.28951 0.0
C297 C 0.35163 0.4041 0.61857 0.0
C298 C 0.35481 0.36016 0.6331 0.0
N299 N 0.29992 0.28853 0.63011 0.0
N300 N 0.29503 0.36024 0.6065 0.0
C301 C 0.26514 0.2899 0.6139 0.0
H302 H 0.38648 0.4646 0.61727 0.0
Co303 Co 0.25984 0.39375 0.58589 0.0
C304 C 0.1151 0.25768 0.57437 0.0
O305 O 0.0843 0.30083 0.57276 0.0
N306 N 0.22379 0.42587 0.56475 0.0
C307 C 0.16677 0.4665 0.5445 0.0
C308 C 0.18312 0.46213 0.56326 0.0
C309 C 0.2311 0.4092 0.54657 0.0
N310 N 0.19743 0.43341 0.53414 0.0
O311 O 0.33979 0.39869 0.57052 0.0
H312 H 0.16292 0.48172 0.57484 0.0
H313 H 0.25875 0.37779 0.54241 0.0
O314 O 0.18538 0.28701 0.57907 0.0
C315 C 0.38841 0.46931 0.57136 0.0
O316 O 0.37013 0.51391 0.58055 0.0
N317 N 0.19457 0.40294 0.6022 0.0
C318 C 0.13809 0.44278 0.63286 0.0
C319 C 0.11245 0.36661 0.6289 0.0
C320 C 0.14255 0.34775 0.61355 0.0
C321 C 0.22089 0.47722 0.60629 0.0
C322 C 0.19153 0.49858 0.62124 0.0
H323 H 0.12862 0.28989 0.61176 0.0
H324 H 0.26646 0.52052 0.5981 0.0
H325 H 0.21655 0.24062 0.60808 0.0
H326 H 0.39249 0.37955 0.64524 0.0
H327 H 0.13394 0.49083 0.53891 0.0
H328 H 0.0724 0.32255 0.63816 0.0
H329 H 0.21297 0.55777 0.62429 0.0
C330 C 0.88367 0.15968 0.95961 0.0
C331 C 0.93292 0.17663 0.97467 0.0
N332 N 0.9961 0.17803 0.96839 0.0
N333 N 0.91491 0.14926 0.94382 0.0
C334 C 0.98398 0.16157 0.94963 0.0
H335 H 0.82857 0.15564 0.9601 0.0
Co336 Co 0.86993 0.12497 0.91923 0.0
C337 C 0.8865 0.98988 0.91068 0.0
O338 O 0.8127 0.9484 0.90953 0.0
N339 N 0.82583 0.10115 0.89408 0.0
C340 C 0.75295 0.04346 0.86874 0.0
C341 C 0.76597 0.03629 0.88753 0.0
C342 C 0.84669 0.14708 0.87872 0.0
N343 N 0.80374 0.11335 0.86332 0.0
O344 O 0.95565 0.2158 0.91006 0.0
H345 H 0.7306 0.98699 0.89588 0.0
H346 H 0.8917 0.20466 0.87857 0.0
O347 O 0.91729 0.06067 0.91451 0.0
C348 C 0.93005 0.26123 0.91298 0.0
O349 O 0.85949 0.23254 0.91866 0.0
N350 N 0.78175 0.04709 0.92962 0.0
C351 C 0.66365 0.98748 0.95517 0.0
C352 C 0.72241 0.9703 0.95664 0.0
C353 C 0.78156 1.00116 0.94368 0.0
C354 C 0.72152 0.05886 0.92722 0.0
C355 C 0.66022 0.02714 0.9395 0.0
H356 H 0.83175 0.9973 0.94657 0.0
H357 H 0.72416 0.09921 0.91687 0.0
H358 H 0.02489 0.15917 0.94028 0.0
H359 H 0.92373 0.18842 0.98909 0.0
H360 H 0.70839 1.00157 0.85987 0.0
H361 H 0.72681 0.94045 0.96887 0.0
H362 H 0.61551 0.04122 0.93812 0.0
C363 C 0.72467 0.88624 0.29617 0.0
C364 C 0.75563 0.93941 0.31045 0.0
N365 N 0.81809 0.99944 0.30361 0.0
N366 N 0.76767 0.91267 0.28044 0.0
C367 C 0.82409 0.98214 0.28542 0.0
H368 H 0.67422 0.83154 0.29721 0.0
Co369 Co 0.75156 0.86229 0.25708 0.0
C370 C 0.90413 0.8899 0.24587 0.0
O371 O 0.87224 0.81713 0.24271 0.0
N372 N 0.7369 0.81299 0.23277 0.0
C373 C 0.71837 0.73536 0.20833 0.0
C374 C 0.72094 0.74224 0.22769 0.0
C375 C 0.74577 0.84798 0.21583 0.0
N376 N 0.73397 0.80189 0.201 0.0
O377 O 0.73235 0.93852 0.24576 0.0
H378 H 0.71487 0.69781 0.23698 0.0
H379 H 0.76184 0.90657 0.21424 0.0
O380 O 0.86347 0.91809 0.25184 0.0
C381 C 0.65996 0.90749 0.24429 0.0
O382 O 0.61951 0.83453 0.24736 0.0
N383 N 0.75568 0.78371 0.26974 0.0
C384 C 0.73656 0.66099 0.29133 0.0
C385 C 0.80322 0.73141 0.29287 0.0
C386 C 0.81172 0.79226 0.2819 0.0
C387 C 0.68801 0.7181 0.26966 0.0
C388 C 0.67956 0.65431 0.27901 0.0
H389 H 0.86144 0.84695 0.28381 0.0
H390 H 0.64097 0.7144 0.26154 0.0
H391 H 0.86885 0.01945 0.27594 0.0
H392 H 0.73416 0.93451 0.32471 0.0
H393 H 0.70651 0.68564 0.20022 0.0
H394 H 0.84788 0.73952 0.30266 0.0
H395 H 0.62749 0.60117 0.27731 0.0
C396 C 0.53046 0.55244 0.06623 0.0
C397 C 0.59171 0.58429 0.07946 0.0
C398 C 0.5475 0.45792 0.09272 0.0
C399 C 0.48366 0.42786 0.08028 0.0
N400 N 0.40507 0.4508 0.05864 0.0
N401 N 0.6523 0.5692 0.10718 0.0
C402 C 0.47197 0.4766 0.06825 0.0
C403 C 0.59868 0.5375 0.09325 0.0
N404 N 0.52977 0.59395 0.05109 0.0
N405 N 0.55941 0.40995 0.10388 0.0
H406 H 0.69139 0.62674 0.10763 0.0
H407 H 0.65522 0.53949 0.11887 0.0
H408 H 0.52011 0.35254 0.10487 0.0
H409 H 0.60904 0.42632 0.11156 0.0
H410 H 0.49179 0.57131 0.0398 0.0
H411 H 0.57212 0.64919 0.04877 0.0
H412 H 0.39075 0.48599 0.05113 0.0
H413 H 0.36019 0.39594 0.05984 0.0
C414 C 0.062 0.55717 0.40792 0.0
C415 C 0.03381 0.48768 0.41786 0.0
C416 C 0.95015 0.52079 0.43579 0.0
C417 C 0.98037 0.59014 0.42561 0.0
N418 N 0.09586 0.68725 0.41167 0.0
N419 N 0.9632 0.41243 0.44474 0.0
C420 C 0.04642 0.61277 0.41483 0.0
C421 C 0.98097 0.47164 0.43283 0.0
N422 N 0.10075 0.56955 0.39129 0.0
N423 N 0.8941 0.50333 0.44875 0.0
H424 H 0.98528 0.37634 0.44325 0.0
H425 H 0.93109 0.4022 0.45699 0.0
H426 H 0.88064 0.54341 0.45372 0.0
H427 H 0.86181 0.44989 0.45462 0.0
H428 H 0.11764 0.61821 0.38324 0.0
H429 H 0.10704 0.52782 0.38438 0.0
H430 H 0.14697 0.70564 0.40454 0.0
H431 H 0.09037 0.72982 0.41841 0.0
C432 C 0.54819 0.06669 0.75726 0.0
C433 C 0.58318 0.09404 0.73939 0.0
C434 C 0.469 0.09353 0.72777 0.0
C435 C 0.4308 0.05777 0.74464 0.0
N436 N 0.43081 1.00458 0.77514 0.0
N437 N 0.56963 0.11437 0.70624 0.0
C438 C 0.46965 0.0428 0.75934 0.0
C439 C 0.54135 0.10199 0.72425 0.0
N440 N 0.5901 0.06581 0.77234 0.0
N441 N 0.43615 0.11909 0.71501 0.0
H442 H 0.6205 0.11618 0.70296 0.0
H443 H 0.53872 0.11373 0.69434 0.0
H444 H 0.38409 0.11591 0.71742 0.0
H445 H 0.46429 0.15109 0.70315 0.0
H446 H 0.56971 0.05419 0.78617 0.0
H447 H 0.647 0.08098 0.77124 0.0
H448 H 0.45275 0.98349 0.78531 0.0
H449 H 0.37488 0.99121 0.77763 0.0
C450 C 0.57597 0.62491 0.55415 0.0
C451 C 0.62353 0.61467 0.56724 0.0
C452 C 0.51774 0.48737 0.57444 0.0
C453 C 0.46768 0.50421 0.56455 0.0
N454 N 0.44737 0.5863 0.54391 0.0
N455 N 0.63441 0.53696 0.59197 0.0
C456 C 0.49668 0.57197 0.55388 0.0
C457 C 0.59325 0.54567 0.57778 0.0
N458 N 0.60648 0.68339 0.54158 0.0
N459 N 0.49284 0.41592 0.58099 0.0
H460 H 0.6891 0.57748 0.59571 0.0
H461 H 0.61139 0.49204 0.60148 0.0
H462 H 0.43809 0.3719 0.57849 0.0
H463 H 0.52874 0.39832 0.58681 0.0
H464 H 0.57608 0.6893 0.53043 0.0
H465 H 0.66389 0.72297 0.5413 0.0
H466 H 0.46224 0.63831 0.53783 0.0
H467 H 0.39023 0.54595 0.54235 0.0
C468 C 0.96443 0.38479 0.92693 0.0
C469 C 0.97526 0.34501 0.91189 0.0
C470 C 0.03111 0.46108 0.89288 0.0
C471 C 1.00977 0.49652 0.90708 0.0
N472 N 0.94278 0.48652 0.93606 0.0
N473 N 1.02154 0.34547 0.88045 0.0
C474 C 0.97191 0.45642 0.92356 0.0
C475 C 1.00983 0.38328 0.89481 0.0
N476 N 0.94943 0.35457 0.94474 0.0
N477 N 0.07293 0.5025 0.87774 0.0
H478 H 1.01552 0.29215 0.88227 0.0
H479 H 0.03655 0.36652 0.86674 0.0
H480 H 0.08495 0.55783 0.87536 0.0
H481 H 0.09797 0.48336 0.86799 0.0
H482 H 0.94757 0.38355 0.9567 0.0
H483 H 0.94842 0.30414 0.94777 0.0
H484 H 0.90903 0.45668 0.94754 0.0
H485 H 0.94502 0.53799 0.93377 0.0
C486 C 0.5591 0.9332 0.2562 0.0
C487 C 0.61792 0.95056 0.24287 0.0
C488 C 0.57859 0.03107 0.22575 0.0
C489 C 0.5156 1.00726 0.23815 0.0
N490 N 0.4358 0.91961 0.26207 0.0
N491 N 0.67775 1.00921 0.21338 0.0
C492 C 0.50245 0.9529 0.2523 0.0
C493 C 0.62625 0.99785 0.22719 0.0
N494 N 0.55945 0.9011 0.27321 0.0
N495 N 0.59315 0.08608 0.21269 0.0
H496 H 0.71494 0.98809 0.21433 0.0
H497 H 0.68064 0.03573 0.20054 0.0
H498 H 0.55637 0.10724 0.21035 0.0
H499 H 0.64282 0.11274 0.20479 0.0
H500 H 0.52246 0.89409 0.28423 0.0
H501 H 0.60245 0.88999 0.27717 0.0
H502 H 0.42084 0.87487 0.27142 0.0
H503 H 0.39167 0.93024 0.2592 0.0
C504 C 0.35938 0.01946 0.96692 0.0
C505 C 0.31939 0.93996 0.96759 0.0
C506 C 0.33937 0.94361 0.00173 0.0
C507 C 0.36019 0.02052 0.00143 0.0
N508 N 0.39042 0.13395 0.98386 0.0
N509 N 0.2687 0.8241 0.98579 0.0
C510 C 0.37251 0.05995 0.98405 0.0
C511 C 0.31051 0.90102 0.98495 0.0
N512 N 0.38176 0.05538 0.94985 0.0
N513 N 0.34483 0.91132 0.01821 0.0
H514 H 0.24492 0.78982 0.97395 0.0
H515 H 0.253 0.79426 -0.00149 0.0
H516 H 0.36557 0.94226 0.03073 0.0
H517 H 0.33628 0.85664 0.01891 0.0
H518 H 0.41622 0.11355 0.94856 0.0
H519 H 0.3718 0.02571 0.93713 0.0
H520 H 0.39086 0.16237 0.97154 0.0
H521 H 0.40004 0.16595 -0.00388 0.0
C522 C 0.28639 0.34203 0.32543 0.0
C523 C 0.31067 0.32806 0.34315 0.0
C524 C 0.38476 0.28078 0.32706 0.0
C525 C 0.3615 0.29628 0.30936 0.0
N526 N 0.31309 0.36481 0.29191 0.0
N527 N 0.4004 0.30708 0.36077 0.0
C528 C 0.32078 0.33573 0.30869 0.0
C529 C 0.36624 0.30556 0.34393 0.0
N530 N 0.22651 0.35494 0.32432 0.0
N531 N 0.41902 0.23765 0.32798 0.0
H532 H 0.38773 0.32532 0.37337 0.0
H533 H 0.44627 0.2977 0.36182 0.0
H534 H 0.43243 0.21641 0.31609 0.0
H535 H 0.42858 0.21765 0.3407 0.0
H536 H 0.20217 0.35729 0.31148 0.0
H537 H 0.19592 0.35573 0.33606 0.0
H538 H 0.28884 0.39933 0.29092 0.0
H539 H 0.33827 0.3607 0.27941 0.0
C540 C 0.15205 0.47573 0.66713 0.0
C541 C 0.11088 0.46225 0.64998 0.0
C542 C 0.9924 0.41434 0.66676 0.0
C543 C 0.03235 0.42103 0.68395 0.0
N544 N 0.14928 0.48197 0.70147 0.0
N545 N 1.00203 0.45109 0.63373 0.0
C546 C 0.11235 0.46121 0.68445 0.0
C547 C 0.03456 0.44418 0.65003 0.0
N548 N 0.22698 0.49603 0.6668 0.0
N549 N 0.9151 0.37277 0.66586 0.0
H550 H 0.03312 0.47179 0.62124 0.0
H551 H 0.94757 0.44392 0.6332 0.0
H552 H 0.88059 0.34681 0.67749 0.0
H553 H 0.88498 0.35911 0.65313 0.0
H554 H 0.25752 0.49747 0.67885 0.0
H555 H 0.25794 0.50856 0.65426 0.0
H556 H 0.20779 0.51581 0.70274 0.0
H557 H 0.11999 0.47085 0.71429 0.0
C558 C 0.57661 0.88307 -0.00301 0.0
C559 C 0.61914 0.94283 0.00997 0.0
C560 C 0.64473 0.03607 0.9855 0.0
C561 C 0.61697 0.97654 0.97207 0.0
N562 N 0.52762 0.84868 0.96478 0.0
N563 N 0.66563 0.07174 0.01884 0.0
C564 C 0.57109 0.90163 0.97794 0.0
C565 C 0.64268 0.01814 0.00497 0.0
N566 N 0.54793 0.80967 0.00238 0.0
N567 N 0.67934 0.10912 0.97944 0.0
H568 H 0.66418 0.05802 0.03317 0.0
H569 H 0.67981 0.1275 0.0164 0.0
H570 H 0.67806 0.12325 0.9653 0.0
H571 H 0.70948 0.15549 0.98826 0.0
H572 H 0.5247 0.76452 -0.00705 0.0
H573 H 0.54887 0.79363 0.01635 0.0
H574 H 0.48897 0.79287 0.96809 0.0
H575 H 0.52634 0.86369 0.95066 0.0
C576 C 0.78769 0.57948 0.30328 0.0
C577 C 0.72758 0.59621 0.30307 0.0
C578 C 0.67144 0.50977 0.32973 0.0
C579 C 0.74407 0.52227 0.33436 0.0
N580 N 0.8646 0.54518 0.32286 0.0
N581 N 0.60796 0.57315 0.31693 0.0
C582 C 0.79897 0.54654 0.31985 0.0
C583 C 0.66592 0.55749 0.31594 0.0
N584 N 0.83425 0.59693 0.28795 0.0
N585 N 0.61172 0.46213 0.34069 0.0
H586 H 0.60508 0.61423 0.30883 0.0
H587 H 0.56608 0.55035 0.32729 0.0
H588 H 0.61897 0.43214 0.35177 0.0
H589 H 0.55596 0.44796 0.33762 0.0
H590 H 0.8765 0.58235 0.28682 0.0
H591 H 0.82538 0.61986 0.2756 0.0
H592 H 0.91162 0.57154 0.31403 0.0
H593 H 0.87162 0.51802 0.33458 0.0
C594 C 0.11371 0.77655 0.66418 0.0
C595 C 0.05374 0.74107 0.67749 0.0
C596 C 0.95985 0.7094 0.65268 0.0
C597 C 1.01958 0.74974 0.63953 0.0
N598 N 0.15047 0.80031 0.63107 0.0
N599 N 0.92453 0.64998 0.68364 0.0
C600 C 0.09576 0.77569 0.64472 0.0
C601 C 0.97838 0.69788 0.67125 0.0
N602 N 0.18712 0.81597 0.67029 0.0
N603 N 0.8865 0.68817 0.64807 0.0
H604 H 0.93858 0.64301 0.69748 0.0
H605 H 0.86882 0.61255 0.67965 0.0
H606 H 0.86998 0.69827 0.6349 0.0
H607 H 0.84255 0.66614 0.65789 0.0
H608 H 0.232 0.85214 0.66165 0.0
H609 H 0.20317 0.81426 0.68422 0.0
H610 H 0.20628 0.81401 0.63377 0.0
H611 H 0.13824 0.80055 0.61668 0.0
C612 C 0.07507 0.98277 0.09098 0.0
C613 C 0.11866 0.05518 0.08228 0.0
C614 C 1.00378 0.03884 0.06658 0.0
C615 C 0.95962 0.96676 0.07506 0.0
N616 N 0.95066 0.87896 0.09922 0.0
N617 N 0.11064 0.16309 0.07113 0.0
C618 C 0.99458 0.94075 0.08827 0.0
C619 C 0.07915 0.08677 0.07284 0.0
N620 N 0.10976 0.95522 0.10253 0.0
N621 N 0.9745 0.06182 0.05226 0.0
H622 H 0.16006 0.20078 0.07827 0.0
H623 H 0.08153 0.1885 0.06532 0.0
H624 H 0.92032 0.02805 0.04676 0.0
H625 H 1.00729 0.11102 0.04453 0.0
H626 H 0.08514 0.89878 0.10648 0.0
H627 H 0.163 0.98945 0.10848 0.0
H628 H 0.97128 0.86215 0.11066 0.0
H629 H 0.89194 0.84738 0.09795 0.0
C630 C 0.02719 0.06161 0.43263 0.0
C631 C 1.01564 0.10711 0.41915 0.0
C632 C 0.97108 1.00509 0.39611 0.0
C633 C 0.98073 0.95771 0.40936 0.0
N634 N 1.00505 0.93754 0.44185 0.0
N635 N 0.9366 0.10166 0.39288 0.0
C636 C 1.00554 0.98504 0.42812 0.0
C637 C 0.97521 0.07279 0.40236 0.0
N638 N 0.05664 0.09123 0.45001 0.0
N639 N 0.95983 0.98687 0.3773 0.0
H640 H 0.92848 0.14427 0.39855 0.0
H641 H 0.9028 0.07535 0.38104 0.0
H642 H 0.96089 0.94023 0.37168 0.0
H643 H 0.95857 0.02329 0.3671 0.0
H644 H 0.07729 0.06681 0.45958 0.0
H645 H 0.05989 0.14111 0.45476 0.0
H646 H 1.01394 0.95128 0.45619 0.0
H647 H 0.99109 0.88212 0.4392 0.0
C648 C 0.03207 0.13483 0.76136 0.0
C649 C 0.95693 0.10152 0.75397 0.0
C650 C 0.96618 0.99143 0.74385 0.0
C651 C 0.04434 0.02864 0.74912 0.0
N652 N 0.15313 0.13868 0.7621 0.0
N653 N 0.84408 0.98269 0.74827 0.0
C654 C 0.07779 0.10134 0.75755 0.0
C655 C 0.92132 0.02531 0.74802 0.0
N656 N 0.05651 0.19281 0.77406 0.0
N657 N 0.93488 0.92491 0.73406 0.0
H658 H 0.80989 1.00224 0.7541 0.0
H659 H 0.81472 0.92489 0.74564 0.0
H660 H 0.96411 0.89668 0.73074 0.0
H661 H 0.88165 0.90109 0.72766 0.0
H662 H 0.10816 0.21585 0.7812 0.0
H663 H 1.02018 0.20935 0.77993 0.0
H664 H 0.18273 0.19572 0.76562 0.0
H665 H 0.18777 0.11462 0.76122 0.0
C666 C 0.03669 0.05954 0.5532 0.0
C667 C 0.97286 0.0164 0.56506 0.0
C668 C 0.99702 0.13277 0.5813 0.0
C669 C 0.06618 0.17456 0.57107 0.0
N670 N 0.15141 0.17778 0.54686 0.0
N671 N 0.87373 0.02042 0.58287 0.0
C672 C 0.08568 0.13793 0.55684 0.0
C673 C 0.94737 0.05518 0.57699 0.0
N674 N 0.04641 0.02654 0.53739 0.0
N675 N 0.97971 0.16594 0.59582 0.0
H676 H 0.83262 0.96839 0.57764 0.0
H677 H 0.85028 0.04769 0.59042 0.0
H678 H 1.01142 0.22285 0.59916 0.0
H679 H 0.93681 0.13559 0.60557 0.0
H680 H 0.08701 0.05538 0.52704 0.0
H681 H 1.00746 0.9716 0.53337 0.0
H682 H 0.17451 0.15284 0.53828 0.0
H683 H 0.18545 0.23611 0.54777 0.0
C684 C 0.93149 0.83126 0.90941 0.0
C685 C 0.99736 0.86045 0.89811 0.0
C686 C 0.98516 0.9739 0.89249 0.0
C687 C 0.93145 0.95114 0.90742 0.0
N688 N 0.86346 0.86155 0.93238 0.0
N689 N 0.07734 0.95477 0.87522 0.0
C690 C 0.90781 0.88093 0.91657 0.0
C691 C 1.02167 0.93069 0.88859 0.0
N692 N 0.88769 0.75543 0.91213 0.0
N693 N 0.99758 0.03355 0.88122 0.0
H694 H 0.09344 0.91886 0.86884 0.0
H695 H 0.10661 1.00997 0.87023 0.0
H696 H 0.97143 0.06582 0.88339 0.0
H697 H 0.02928 0.04796 0.86881 0.0
H698 H 0.83627 0.73159 0.91936 0.0
H699 H 0.89666 0.71635 0.90471 0.0
H700 H 0.85053 0.8136 0.94036 0.0
H701 H 0.84699 0.89734 0.93864 0.0
C702 C 0.09503 0.03629 0.22433 0.0
C703 C 0.14424 1.0106 0.23168 0.0
C704 C 0.0369 0.9115 0.24921 0.0
C705 C 0.98756 0.93676 0.24215 0.0
N706 N 0.96625 0.01181 0.21914 0.0
N707 N 0.14648 0.89919 0.24234 0.0
C708 C 1.01576 0.99647 0.22873 0.0
C709 C 0.11072 0.94087 0.24152 0.0
N710 N 0.12289 0.09686 0.21244 0.0
N711 N 1.01412 0.86003 0.26358 0.0
H712 H 0.19472 0.91265 0.23439 0.0
H713 H 0.1218 0.84552 0.24833 0.0
H714 H 0.96137 0.83802 0.27002 0.0
H715 H 0.05081 0.84558 0.27039 0.0
H716 H 0.0952 0.12725 0.20961 0.0
H717 H 0.17294 0.11529 0.20494 0.0
H718 H 0.98131 0.048 0.20755 0.0
H719 H 0.90819 0.98385 0.2217 0.0
C720 C 0.105 0.27055 0.98766 0.0
C721 C 0.06345 0.19744 0.97959 0.0
C722 C 0.15084 0.16238 -0.00509 0.0
C723 C 0.1867 0.23251 0.00463 0.0
N724 N 0.19204 0.34968 0.01228 0.0
N725 N 0.04061 0.07032 0.97725 0.0
C726 C 0.16221 0.28571 0.0015 0.0
C727 C 0.08493 0.14239 0.98362 0.0
N728 N 0.09121 0.32615 0.98155 0.0
N729 N 0.18143 0.11608 -0.00395 0.0
H730 H 0.99158 0.05388 0.96926 0.0
H731 H 0.04917 0.02579 0.98104 0.0
H732 H 0.23031 0.13024 0.0039 0.0
H733 H 0.16262 0.06727 0.98799 0.0
H734 H 0.12393 0.38247 0.98552 0.0
H735 H 0.05137 0.31706 0.97102 0.0
H736 H 0.17154 0.38744 0.0121 0.0
H737 H 0.23331 0.36167 0.02263 0.0
C738 C 0.98012 0.14249 0.33373 0.0
C739 C 0.95947 0.19955 0.33545 0.0
C740 C 0.85689 0.13109 0.31236 0.0
C741 C 0.86804 0.06812 0.3137 0.0
N742 N 0.94218 0.01348 0.32469 0.0
N743 N 0.91811 0.26641 0.31483 0.0
C744 C 0.9306 0.07388 0.32405 0.0
C745 C 0.90853 0.19965 0.32157 0.0
N746 N 0.05146 0.15843 0.33873 0.0
N747 N 0.79666 0.12533 0.30235 0.0
H748 H 0.96701 0.31725 0.31789 0.0
H749 H 0.88586 0.27014 0.30379 0.0
H750 H 0.75903 0.07637 0.29505 0.0
H751 H 0.78149 0.16725 0.30249 0.0
H752 H 0.07226 0.12144 0.33672 0.0
H753 H 0.09337 0.2132 0.34212 0.0
H754 H 0.98272 1.01127 0.33334 0.0
H755 H 0.90796 0.96366 0.31727 0.0
C756 C 0.77247 0.8767 0.6656 0.0
C757 C 0.81503 0.90003 0.64851 0.0
C758 C 0.85776 0.03173 0.65793 0.0
C759 C 0.80005 1.00611 0.6719 0.0
N760 N 0.69898 0.90163 0.68842 0.0
N761 N 0.9333 1.00452 0.63716 0.0
C762 C 0.75656 0.92782 0.67559 0.0
C763 C 0.86729 0.97875 0.64681 0.0
N764 N 0.75829 0.8109 0.67403 0.0
N765 N 0.90671 0.10704 0.65581 0.0
H766 H 0.9529 0.96942 0.63193 0.0
H767 H 0.9529 0.96942 0.63193 0.0
H768 H 0.90534 0.14775 0.66448 0.0
H769 H 0.94905 0.12811 0.6455 0.0
H770 H 0.73224 0.79391 0.68723 0.0
H771 H 0.7847 0.78103 0.66942 0.0
H772 H 0.66171 0.84421 0.69038 0.0
H773 H 0.68455 0.93716 0.69571 0.0
C774 C 0.81637 0.64823 -0.00017 0.0
C775 C 0.83341 0.72216 0.00492 0.0
C776 C 0.94855 0.77457 0.98535 0.0
C777 C 0.92839 0.70083 0.97914 0.0
N778 N 0.8394 0.56816 0.97845 0.0
N779 N 0.90931 0.85611 0.00088 0.0
C780 C 0.86125 0.63774 0.9859 0.0
C781 C 0.89798 0.78555 -0.00275 0.0
N782 N 0.75793 0.58822 0.00868 0.0
N783 N 1.0173 0.83363 0.98034 0.0
H784 H 0.87347 0.86556 0.00962 0.0
H785 H 0.95064 0.90457 -0.00575 0.0
H786 H 0.05539 0.82683 0.97183 0.0
H787 H 0.03913 0.88793 0.98576 0.0
H788 H 0.74604 0.53273 0.00706 0.0
H789 H 0.7245 0.59484 0.01887 0.0
H790 H 0.78769 0.5204 0.98133 0.0
H791 H 0.87105 0.55936 0.96816 0.0
C792 C 0.16496 0.86368 0.30655 0.0
C793 C 0.22448 0.93773 0.31033 0.0
C794 C 0.17382 0.93271 0.34214 0.0
C795 C 0.11401 0.85879 0.33832 0.0
N796 N 0.04032 0.7627 0.3155 0.0
N797 N 0.27193 0.05072 0.32901 0.0
C798 C 0.10554 0.82738 0.31996 0.0
C799 C 0.22451 0.97485 0.32731 0.0
N800 N 0.16751 0.82662 0.2907 0.0
N801 N 0.18491 0.96098 0.36013 0.0
H802 H 0.30745 0.08302 0.31801 0.0
H803 H 0.27015 0.08243 0.34037 0.0
H804 H 0.14943 0.93142 0.37138 0.0
H805 H 0.23241 1.01134 0.36416 0.0
H806 H 0.12947 0.76995 0.28806 0.0
H807 H 0.21138 0.85099 0.28087 0.0
H808 H 0.02743 0.73991 0.30189 0.0
H809 H 0.99582 0.73622 0.32514 0.0
C810 C 0.26244 0.09949 0.64843 0.0
C811 C 0.23575 0.09986 0.66701 0.0
C812 C 0.23412 0.21645 0.65902 0.0
C813 C 0.2771 0.22435 0.64248 0.0
N814 N 0.33238 0.1732 0.6212 0.0
N815 N 0.14673 0.12853 0.68196 0.0
C816 C 0.29077 0.16543 0.63704 0.0
C817 C 0.20773 0.1503 0.67041 0.0
N818 N 0.25048 0.03322 0.6407 0.0
N819 N 0.21759 0.27161 0.66368 0.0
H820 H 0.11468 0.07278 0.6865 0.0
H821 H 0.12016 0.16039 0.68413 0.0
H822 H 0.23157 0.31803 0.65498 0.0
H823 H 0.19372 0.27311 0.67662 0.0
H824 H 0.26308 0.02807 0.62665 0.0
H825 H 0.21719 0.98172 0.64751 0.0
H826 H 0.35038 0.13505 0.61759 0.0
H827 H 0.35387 0.22094 0.61258 0.0
C828 C 0.34058 0.1392 0.14659 0.0
C829 C 0.40774 0.16833 0.13575 0.0
C830 C 0.48334 0.19825 0.16485 0.0
C831 C 0.41688 0.17533 0.17564 0.0
N832 N 0.28452 0.13682 0.17701 0.0
N833 N 0.54368 0.23709 0.1341 0.0
C834 C 0.34595 0.14909 0.16656 0.0
C835 C 0.47948 0.20104 0.14477 0.0
N836 N 0.27183 0.10005 0.13781 0.0
N837 N 0.54954 0.21535 0.17388 0.0
H838 H 0.54216 0.2414 0.11938 0.0
H839 H 0.59775 0.26831 0.1399 0.0
H840 H 0.55329 0.21263 0.18859 0.0
H841 H 0.59865 0.22575 0.16678 0.0
H842 H 0.22083 0.07075 0.1451 0.0
H843 H 0.26645 0.09168 0.12319 0.0
H844 H 0.23267 0.1247 0.17107 0.0
H845 H 0.28787 0.14566 0.1916 0.0
C846 C 0.2218 0.47559 0.48189 0.0
C847 C 0.19278 0.40194 0.47448 0.0
C848 C 0.15553 0.34913 0.50631 0.0
C849 C 0.1931 0.42304 0.51393 0.0
N850 N 0.27285 0.55668 0.50939 0.0
N851 N 0.14332 0.26942 0.47956 0.0
C852 C 0.22897 0.48652 0.50182 0.0
C853 C 0.16238 0.33872 0.48668 0.0
N854 N 0.24089 0.5346 0.46981 0.0
N855 N 0.11177 0.28937 0.51779 0.0
H856 H 0.15053 0.26133 0.46529 0.0
H857 H 0.12736 0.22202 0.488 0.0
H858 H 0.10372 0.29598 0.53211 0.0
H859 H 0.07793 0.23462 0.51277 0.0
H860 H 0.25591 0.58875 0.47441 0.0
H861 H 0.23473 0.52762 0.45513 0.0
H862 H 0.30645 0.60422 0.50123 0.0
H863 H 0.28109 0.56617 0.52396 0.0
C864 C 0.87442 0.16861 0.83375 0.0
C865 C 0.809 0.14627 0.84495 0.0
C866 C 0.74882 0.17729 0.81894 0.0
C867 C 0.81543 0.20227 0.80812 0.0
N868 N 0.94739 0.24021 0.80659 0.0
N869 N 0.69111 0.14447 0.85011 0.0
C870 C 0.88012 0.2036 0.81598 0.0
C871 C 0.74804 0.15493 0.83807 0.0
N872 N 0.92924 0.15296 0.83968 0.0
N873 N 0.68624 0.17394 0.81074 0.0
H874 H 0.69083 0.13081 0.86438 0.0
H875 H 0.64814 0.15599 0.84647 0.0
H876 H 0.68656 0.19232 0.79691 0.0
H877 H 0.63321 0.14888 0.81715 0.0
H878 H 0.97479 0.16136 0.83126 0.0
H879 H 0.92558 0.12522 0.8524 0.0
H880 H 0.99861 0.24989 0.81245 0.0
H881 H 0.95274 0.26706 0.79362 0.0
C882 C 0.66104 0.79099 0.17221 0.0
C883 C 0.73205 0.8177 0.18124 0.0
C884 C 0.79751 0.86903 0.15119 0.0
C885 C 0.72626 0.83772 0.14198 0.0
N886 N 0.5908 0.76099 0.14258 0.0
N887 N 0.86751 0.8758 0.1799 0.0
C888 C 0.65806 0.79644 0.1522 0.0
C889 C 0.80043 0.85525 0.17088 0.0
N890 N 0.59688 0.76222 0.18295 0.0
N891 N 0.86176 0.91314 0.14106 0.0
H892 H 0.87058 0.86693 0.19438 0.0
H893 H 0.91934 0.89767 0.173 0.0
H894 H 0.86051 0.92294 0.12657 0.0
H895 H 0.9155 0.9433 0.14708 0.0
H896 H 0.5437 0.74801 0.17755 0.0
H897 H 0.59792 0.75804 0.19769 0.0
H898 H 0.53928 0.72399 0.14887 0.0
H899 H 0.5874 0.76416 0.12786 0.0
C900 C 0.83439 0.79472 0.47363 0.0
C901 C 0.80469 0.72163 0.46582 0.0
C902 C 0.79807 0.66939 0.49742 0.0
C903 C 0.83787 0.74355 0.50481 0.0
N904 N 0.89457 0.87736 0.50059 0.0
N905 N 0.76191 0.58958 0.46947 0.0
C906 C 0.85526 0.8065 0.49313 0.0
C907 C 0.78649 0.65869 0.47754 0.0
N908 N 0.84243 0.85235 0.46223 0.0
N909 N 0.77066 0.60955 0.50958 0.0
H910 H 0.75215 0.58023 0.45493 0.0
H911 H 0.7557 0.54281 0.47693 0.0
H912 H 0.77754 0.61647 0.52425 0.0
H913 H 0.73557 0.55391 0.50536 0.0
H914 H 0.85854 0.90635 0.46711 0.0
H915 H 0.82771 0.84434 0.44788 0.0
H916 H 0.91643 0.92651 0.49257 0.0
H917 H 0.90829 0.88673 0.51495 0.0
C918 C 0.07204 0.8021 0.81494 0.0
C919 C 0.12987 0.80675 0.80306 0.0
C920 C 0.1564 0.73285 0.82588 0.0
C921 C 0.11444 0.74694 0.83965 0.0
N922 N 0.02599 0.79048 0.84699 0.0
N923 N 0.22523 0.77307 0.79623 0.0
C924 C 0.06827 0.77802 0.83401 0.0
C925 C 0.17001 0.76897 0.80796 0.0
N926 N 0.02306 0.82388 0.80797 0.0
N927 N 0.18555 0.68734 0.83048 0.0
H928 H 0.23609 0.79905 0.78299 0.0
H929 H 0.26249 0.754 0.8 0.0
H930 H 0.17555 0.66099 0.84371 0.0
H931 H 0.21279 0.67038 0.82079 0.0
H932 H 0.97545 0.8168 0.81525 0.0
H933 H 0.02666 0.84243 0.794 0.0
H934 H 0.99912 0.82159 0.84411 0.0
H935 H 1.01998 0.77281 0.86098 0.0
loop_
_geom_bond_atom_site_label_1
_geom_bond_atom_site_label_2
_geom_bond_distance
_geom_bond_site_symmetry_2
_ccdc_geom_bond_type
C0 C1 1.351 . S
C0 N3 1.368 . S
C0 H5 0.931 . S
C1 C0 1.351 . S
C1 N2 1.373 . S
C1 H29 0.930 . S
N2 C1 1.373 . S
N2 C4 1.340 . S
N3 C0 1.368 . S
N3 C4 1.321 . S
N3 Co6 2.135 . S
C4 N2 1.340 . S
C4 N3 1.321 . S
C4 H28 0.930 . S
H5 C0 0.931 . S
Co6 N3 2.135 . S
Co6 N9 2.121 . S
Co6 O14 2.055 . S
Co6 O17 2.039 . S
Co6 N20 2.140 . S
C7 O8 1.227 . S
C7 O17 1.265 . S
O8 C7 1.227 . S
N9 Co6 2.121 . S
N9 C11 1.375 . S
N9 C12 1.313 . S
C10 C11 1.338 . S
C10 N13 1.377 . S
C10 H30 0.930 . S
C11 N9 1.375 . S
C11 C10 1.338 . S
C11 H15 0.931 . S
C12 N9 1.313 . S
C12 N13 1.344 . S
C12 H16 0.930 . S
N13 C10 1.377 . S
N13 C12 1.344 . S
O14 Co6 2.055 . S
O14 C18 1.253 . S
H15 C11 0.931 . S
H16 C12 0.930 . S
O17 Co6 2.039 . S
O17 C7 1.265 . S
C18 O14 1.253 . S
C18 O19 1.227 . S
O19 C18 1.227 . S
N20 Co6 2.140 . S
N20 C23 1.346 . S
N20 C24 1.345 . S
C21 C22 1.387 . S
C21 C25 1.391 . S
C22 C21 1.387 . S
C22 C23 1.369 . S
C22 H31 0.929 . S
C23 N20 1.346 . S
C23 C22 1.369 . S
C23 H26 0.928 . S
C24 N20 1.345 . S
C24 C25 1.371 . S
C24 H27 0.931 . S
C25 C21 1.391 . S
C25 C24 1.371 . S
C25 H32 0.930 . S
H26 C23 0.928 . S
H27 C24 0.931 . S
H28 C4 0.930 . S
H29 C1 0.930 . S
H30 C10 0.930 . S
H31 C22 0.929 . S
H32 C25 0.930 . S
C33 C34 1.351 1_455 S
C33 N36 1.368 . S
C33 H38 0.931 . S
C34 C33 1.351 1_655 S
C34 N35 1.373 . S
C34 H62 0.930 . S
N35 C34 1.373 . S
N35 C37 1.340 . S
N36 C33 1.368 . S
N36 C37 1.321 1_455 S
N36 Co39 2.135 . S
C37 N35 1.340 . S
C37 N36 1.321 1_655 S
C37 H61 0.930 . S
H38 C33 0.931 . S
Co39 N36 2.135 . S
Co39 N42 2.121 . S
Co39 O47 2.055 . S
Co39 O50 2.039 . S
Co39 N53 2.140 . S
C40 O41 1.227 . S
C40 O50 1.265 . S
O41 C40 1.227 . S
N42 Co39 2.121 . S
N42 C44 1.375 . S
N42 C45 1.313 . S
C43 C44 1.338 . S
C43 N46 1.377 . S
C43 H63 0.930 . S
C44 N42 1.375 . S
C44 C43 1.338 . S
C44 H48 0.931 . S
C45 N42 1.313 . S
C45 N46 1.344 . S
C45 H49 0.930 . S
N46 C43 1.377 . S
N46 C45 1.344 . S
O47 Co39 2.055 . S
O47 C51 1.253 . S
H48 C44 0.931 . S
H49 C45 0.930 . S
O50 Co39 2.039 . S
O50 C40 1.265 . S
C51 O47 1.253 . S
C51 O52 1.227 . S
O52 C51 1.227 . S
N53 Co39 2.140 . S
N53 C56 1.346 . S
N53 C57 1.345 . S
C54 C55 1.387 . S
C54 C58 1.391 . S
C55 C54 1.387 . S
C55 C56 1.369 . S
C55 H64 0.929 . S
C56 N53 1.346 . S
C56 C55 1.369 . S
C56 H59 0.928 . S
C57 N53 1.345 . S
C57 C58 1.371 . S
C57 H60 0.931 . S
C58 C54 1.391 . S
C58 C57 1.371 . S
C58 H65 0.930 . S
H59 C56 0.928 . S
H60 C57 0.931 . S
H61 C37 0.930 . S
H62 C34 0.930 . S
H63 C43 0.930 . S
H64 C55 0.929 . S
H65 C58 0.930 . S
C66 C67 1.351 1_545 S
C66 N69 1.368 . S
C66 H71 0.931 . S
C67 C66 1.351 1_565 S
C67 N68 1.373 . S
C67 H95 0.930 . S
N68 C67 1.373 . S
N68 C70 1.340 . S
N69 C66 1.368 . S
N69 C70 1.321 1_545 S
N69 Co72 2.135 . S
C70 N68 1.340 . S
C70 N69 1.321 1_565 S
C70 H94 0.930 . S
H71 C66 0.931 . S
Co72 N69 2.135 . S
Co72 N75 2.121 . S
Co72 O80 2.055 . S
Co72 O83 2.039 . S
Co72 N86 2.140 . S
C73 O74 1.227 . S
C73 O83 1.265 . S
O74 C73 1.227 . S
N75 Co72 2.121 . S
N75 C77 1.375 . S
N75 C78 1.313 . S
C76 C77 1.338 . S
C76 N79 1.377 . S
C76 H96 0.930 . S
C77 N75 1.375 . S
C77 C76 1.338 . S
C77 H81 0.931 . S
C78 N75 1.313 . S
C78 N79 1.344 . S
C78 H82 0.930 . S
N79 C76 1.377 . S
N79 C78 1.344 . S
O80 Co72 2.055 . S
O80 C84 1.253 . S
H81 C77 0.931 . S
H82 C78 0.930 . S
O83 Co72 2.039 . S
O83 C73 1.265 . S
C84 O80 1.253 . S
C84 O85 1.227 . S
O85 C84 1.227 . S
N86 Co72 2.140 . S
N86 C89 1.346 . S
N86 C90 1.345 . S
C87 C88 1.387 . S
C87 C91 1.391 . S
C88 C87 1.387 . S
C88 C89 1.369 . S
C88 H97 0.929 . S
C89 N86 1.346 . S
C89 C88 1.369 . S
C89 H92 0.928 . S
C90 N86 1.345 . S
C90 C91 1.371 . S
C90 H93 0.931 . S
C91 C87 1.391 . S
C91 C90 1.371 . S
C91 H98 0.930 . S
H92 C89 0.928 . S
H93 C90 0.931 . S
H94 C70 0.930 . S
H95 C67 0.930 . S
H96 C76 0.930 . S
H97 C88 0.929 . S
H98 C91 0.930 . S
C99 C100 1.351 . S
C99 N102 1.368 . S
C99 H104 0.931 . S
C100 C99 1.351 . S
C100 N101 1.373 . S
C100 H128 0.930 . S
N101 C100 1.373 . S
N101 C103 1.340 . S
N102 C99 1.368 . S
N102 C103 1.321 . S
N102 Co105 2.135 . S
C103 N101 1.340 . S
C103 N102 1.321 . S
C103 H127 0.930 . S
H104 C99 0.931 . S
Co105 N102 2.135 . S
Co105 N108 2.121 . S
Co105 O113 2.055 . S
Co105 O116 2.039 . S
Co105 N119 2.140 . S
C106 O107 1.227 . S
C106 O116 1.265 . S
O107 C106 1.227 . S
N108 Co105 2.121 . S
N108 C110 1.375 . S
N108 C111 1.313 . S
C109 C110 1.338 . S
C109 N112 1.377 . S
C109 H129 0.930 . S
C110 N108 1.375 . S
C110 C109 1.338 . S
C110 H114 0.931 . S
C111 N108 1.313 . S
C111 N112 1.344 . S
C111 H115 0.930 . S
N112 C109 1.377 . S
N112 C111 1.344 . S
O113 Co105 2.055 . S
O113 C117 1.253 . S
H114 C110 0.931 . S
H115 C111 0.930 . S
O116 Co105 2.039 . S
O116 C106 1.265 . S
C117 O113 1.253 . S
C117 O118 1.227 . S
O118 C117 1.227 . S
N119 Co105 2.140 . S
N119 C122 1.346 . S
N119 C123 1.345 . S
C120 C121 1.387 . S
C120 C124 1.391 . S
C121 C120 1.387 . S
C121 C122 1.369 . S
C121 H130 0.929 . S
C122 N119 1.346 . S
C122 C121 1.369 . S
C122 H125 0.928 . S
C123 N119 1.345 . S
C123 C124 1.371 . S
C123 H126 0.931 . S
C124 C120 1.391 . S
C124 C123 1.371 . S
C124 H131 0.930 . S
H125 C122 0.928 . S
H126 C123 0.931 . S
H127 C103 0.930 . S
H128 C100 0.930 . S
H129 C109 0.930 . S
H130 C121 0.929 . S
H131 C124 0.930 . S
C132 C133 1.351 1_655 S
C132 N135 1.368 . S
C132 H137 0.931 . S
C133 C132 1.351 1_455 S
C133 N134 1.373 . S
C133 H161 0.930 . S
N134 C133 1.373 . S
N134 C136 1.340 . S
N135 C132 1.368 . S
N135 C136 1.321 1_655 S
N135 Co138 2.135 . S
C136 N134 1.340 . S
C136 N135 1.321 1_455 S
C136 H160 0.930 . S
H137 C132 0.931 . S
Co138 N135 2.135 . S
Co138 N141 2.121 . S
Co138 O146 2.055 . S
Co138 O149 2.039 . S
Co138 N152 2.140 . S
C139 O140 1.227 . S
C139 O149 1.265 . S
O140 C139 1.227 . S
N141 Co138 2.121 . S
N141 C143 1.375 . S
N141 C144 1.313 . S
C142 C143 1.338 . S
C142 N145 1.377 . S
C142 H162 0.930 . S
C143 N141 1.375 . S
C143 C142 1.338 . S
C143 H147 0.931 . S
C144 N141 1.313 . S
C144 N145 1.344 . S
C144 H148 0.930 . S
N145 C142 1.377 . S
N145 C144 1.344 . S
O146 Co138 2.055 . S
O146 C150 1.253 . S
H147 C143 0.931 . S
H148 C144 0.930 . S
O149 Co138 2.039 . S
O149 C139 1.265 . S
C150 O146 1.253 . S
C150 O151 1.227 . S
O151 C150 1.227 . S
N152 Co138 2.140 . S
N152 C155 1.346 . S
N152 C156 1.345 . S
C153 C154 1.387 . S
C153 C157 1.391 . S
C154 C153 1.387 . S
C154 C155 1.369 . S
C154 H163 0.929 . S
C155 N152 1.346 . S
C155 C154 1.369 . S
C155 H158 0.928 . S
C156 N152 1.345 . S
C156 C157 1.371 . S
C156 H159 0.931 . S
C157 C153 1.391 . S
C157 C156 1.371 . S
C157 H164 0.930 . S
H158 C155 0.928 . S
H159 C156 0.931 . S
H160 C136 0.930 . S
H161 C133 0.930 . S
H162 C142 0.930 . S
H163 C154 0.929 . S
H164 C157 0.930 . S
C165 C166 1.351 1_565 S
C165 N168 1.368 . S
C165 H170 0.931 . S
C166 C165 1.351 1_545 S
C166 N167 1.373 . S
C166 H194 0.930 . S
N167 C166 1.373 . S
N167 C169 1.340 . S
N168 C165 1.368 . S
N168 C169 1.321 1_565 S
N168 Co171 2.135 . S
C169 N167 1.340 . S
C169 N168 1.321 1_545 S
C169 H193 0.930 . S
H170 C165 0.931 . S
Co171 N168 2.135 . S
Co171 N174 2.121 . S
Co171 O179 2.055 . S
Co171 O182 2.039 . S
Co171 N185 2.140 . S
C172 O173 1.227 . S
C172 O182 1.265 . S
O173 C172 1.227 . S
N174 Co171 2.121 . S
N174 C176 1.375 . S
N174 C177 1.313 . S
C175 C176 1.338 . S
C175 N178 1.377 . S
C175 H195 0.930 . S
C176 N174 1.375 . S
C176 C175 1.338 . S
C176 H180 0.931 . S
C177 N174 1.313 . S
C177 N178 1.344 . S
C177 H181 0.930 . S
N178 C175 1.377 . S
N178 C177 1.344 . S
O179 Co171 2.055 . S
O179 C183 1.253 . S
H180 C176 0.931 . S
H181 C177 0.930 . S
O182 Co171 2.039 . S
O182 C172 1.265 . S
C183 O179 1.253 . S
C183 O184 1.227 . S
O184 C183 1.227 . S
N185 Co171 2.140 . S
N185 C188 1.346 . S
N185 C189 1.345 . S
C186 C187 1.387 . S
C186 C190 1.391 . S
C187 C186 1.387 . S
C187 C188 1.369 . S
C187 H196 0.929 . S
C188 N185 1.346 . S
C188 C187 1.369 . S
C188 H191 0.928 . S
C189 N185 1.345 . S
C189 C190 1.371 . S
C189 H192 0.931 . S
C190 C186 1.391 . S
C190 C189 1.371 . S
C190 H197 0.930 . S
H191 C188 0.928 . S
H192 C189 0.931 . S
H193 C169 0.930 . S
H194 C166 0.930 . S
H195 C175 0.930 . S
H196 C187 0.929 . S
H197 C190 0.930 . S
C198 C199 1.351 . S
C198 N201 1.368 . S
C198 H203 0.931 . S
C199 C198 1.351 . S
C199 N200 1.373 . S
C199 H227 0.930 . S
N200 C199 1.373 . S
N200 C202 1.340 . S
N201 C198 1.368 . S
N201 C202 1.321 . S
N201 Co204 2.135 . S
C202 N200 1.340 . S
C202 N201 1.321 . S
C202 H226 0.930 . S
H203 C198 0.931 . S
Co204 N201 2.135 . S
Co204 N207 2.121 . S
Co204 O212 2.055 . S
Co204 O215 2.039 . S
Co204 N218 2.140 . S
C205 O206 1.227 . S
C205 O215 1.265 . S
O206 C205 1.227 . S
N207 Co204 2.121 . S
N207 C209 1.375 . S
N207 C210 1.313 . S
C208 C209 1.338 . S
C208 N211 1.377 . S
C208 H228 0.930 . S
C209 N207 1.375 . S
C209 C208 1.338 . S
C209 H213 0.931 . S
C210 N207 1.313 . S
C210 N211 1.344 . S
C210 H214 0.930 . S
N211 C208 1.377 . S
N211 C210 1.344 . S
O212 Co204 2.055 . S
O212 C216 1.253 . S
H213 C209 0.931 . S
H214 C210 0.930 . S
O215 Co204 2.039 . S
O215 C205 1.265 . S
C216 O212 1.253 . S
C216 O217 1.227 . S
O217 C216 1.227 . S
N218 Co204 2.140 . S
N218 C221 1.346 . S
N218 C222 1.345 . S
C219 C220 1.387 . S
C219 C223 1.391 . S
C220 C219 1.387 . S
C220 C221 1.369 . S
C220 H229 0.929 . S
C221 N218 1.346 . S
C221 C220 1.369 . S
C221 H224 0.928 . S
C222 N218 1.345 . S
C222 C223 1.371 . S
C222 H225 0.931 . S
C223 C219 1.391 . S
C223 C222 1.371 . S
C223 H230 0.930 . S
H224 C221 0.928 . S
H225 C222 0.931 . S
H226 C202 0.930 . S
H227 C199 0.930 . S
H228 C208 0.930 . S
H229 C220 0.929 . S
H230 C223 0.930 . S
C231 C232 1.351 1_455 S
C231 N234 1.368 . S
C231 H236 0.931 . S
C232 C231 1.351 1_655 S
C232 N233 1.373 . S
C232 H260 0.930 . S
N233 C232 1.373 . S
N233 C235 1.340 . S
N234 C231 1.368 . S
N234 C235 1.321 1_455 S
N234 Co237 2.135 . S
C235 N233 1.340 . S
C235 N234 1.321 1_655 S
C235 H259 0.930 . S
H236 C231 0.931 . S
Co237 N234 2.135 . S
Co237 N240 2.121 . S
Co237 O245 2.055 . S
Co237 O248 2.039 . S
Co237 N251 2.140 . S
C238 O239 1.227 . S
C238 O248 1.265 . S
O239 C238 1.227 . S
N240 Co237 2.121 . S
N240 C242 1.375 . S
N240 C243 1.313 . S
C241 C242 1.338 . S
C241 N244 1.377 . S
C241 H261 0.930 . S
C242 N240 1.375 . S
C242 C241 1.338 . S
C242 H246 0.931 . S
C243 N240 1.313 . S
C243 N244 1.344 . S
C243 H247 0.930 . S
N244 C241 1.377 . S
N244 C243 1.344 . S
O245 Co237 2.055 . S
O245 C249 1.253 . S
H246 C242 0.931 . S
H247 C243 0.930 . S
O248 Co237 2.039 . S
O248 C238 1.265 . S
C249 O245 1.253 . S
C249 O250 1.227 . S
O250 C249 1.227 . S
N251 Co237 2.140 . S
N251 C254 1.346 . S
N251 C255 1.345 . S
C252 C253 1.387 . S
C252 C256 1.391 . S
C253 C252 1.387 . S
C253 C254 1.369 . S
C253 H262 0.929 . S
C254 N251 1.346 . S
C254 C253 1.369 . S
C254 H257 0.928 . S
C255 N251 1.345 . S
C255 C256 1.371 . S
C255 H258 0.931 . S
C256 C252 1.391 . S
C256 C255 1.371 . S
C256 H263 0.930 . S
H257 C254 0.928 . S
H258 C255 0.931 . S
H259 C235 0.930 . S
H260 C232 0.930 . S
H261 C241 0.930 . S
H262 C253 0.929 . S
H263 C256 0.930 . S
C264 C265 1.351 1_545 S
C264 N267 1.368 . S
C264 H269 0.931 . S
C265 C264 1.351 1_565 S
C265 N266 1.373 . S
C265 H293 0.930 . S
N266 C265 1.373 . S
N266 C268 1.340 . S
N267 C264 1.368 . S
N267 C268 1.321 1_545 S
N267 Co270 2.135 . S
C268 N266 1.340 . S
C268 N267 1.321 1_565 S
C268 H292 0.930 . S
H269 C264 0.931 . S
Co270 N267 2.135 . S
Co270 N273 2.121 . S
Co270 O278 2.055 . S
Co270 O281 2.039 . S
Co270 N284 2.140 . S
C271 O272 1.227 . S
C271 O281 1.265 . S
O272 C271 1.227 . S
N273 Co270 2.121 . S
N273 C275 1.375 . S
N273 C276 1.313 . S
C274 C275 1.338 . S
C274 N277 1.377 . S
C274 H294 0.930 . S
C275 N273 1.375 . S
C275 C274 1.338 . S
C275 H279 0.931 . S
C276 N273 1.313 . S
C276 N277 1.344 . S
C276 H280 0.930 . S
N277 C274 1.377 . S
N277 C276 1.344 . S
O278 Co270 2.055 . S
O278 C282 1.253 . S
H279 C275 0.931 . S
H280 C276 0.930 . S
O281 Co270 2.039 . S
O281 C271 1.265 . S
C282 O278 1.253 . S
C282 O283 1.227 . S
O283 C282 1.227 . S
N284 Co270 2.140 . S
N284 C287 1.346 . S
N284 C288 1.345 . S
C285 C286 1.387 . S
C285 C289 1.391 . S
C286 C285 1.387 . S
C286 C287 1.369 . S
C286 H295 0.929 . S
C287 N284 1.346 . S
C287 C286 1.369 . S
C287 H290 0.928 . S
C288 N284 1.345 . S
C288 C289 1.371 . S
C288 H291 0.931 . S
C289 C285 1.391 . S
C289 C288 1.371 . S
C289 H296 0.930 . S
H290 C287 0.928 . S
H291 C288 0.931 . S
H292 C268 0.930 . S
H293 C265 0.930 . S
H294 C274 0.930 . S
H295 C286 0.929 . S
H296 C289 0.930 . S
C297 C298 1.351 . S
C297 N300 1.368 . S
C297 H302 0.931 . S
C298 C297 1.351 . S
C298 N299 1.373 . S
C298 H326 0.930 . S
N299 C298 1.373 . S
N299 C301 1.340 . S
N300 C297 1.368 . S
N300 C301 1.321 . S
N300 Co303 2.135 . S
C301 N299 1.340 . S
C301 N300 1.321 . S
C301 H325 0.930 . S
H302 C297 0.931 . S
Co303 N300 2.135 . S
Co303 N306 2.121 . S
Co303 O311 2.055 . S
Co303 O314 2.039 . S
Co303 N317 2.140 . S
C304 O305 1.227 . S
C304 O314 1.265 . S
O305 C304 1.227 . S
N306 Co303 2.121 . S
N306 C308 1.375 . S
N306 C309 1.313 . S
C307 C308 1.338 . S
C307 N310 1.377 . S
C307 H327 0.930 . S
C308 N306 1.375 . S
C308 C307 1.338 . S
C308 H312 0.931 . S
C309 N306 1.313 . S
C309 N310 1.344 . S
C309 H313 0.930 . S
N310 C307 1.377 . S
N310 C309 1.344 . S
O311 Co303 2.055 . S
O311 C315 1.253 . S
H312 C308 0.931 . S
H313 C309 0.930 . S
O314 Co303 2.039 . S
O314 C304 1.265 . S
C315 O311 1.253 . S
C315 O316 1.227 . S
O316 C315 1.227 . S
N317 Co303 2.140 . S
N317 C320 1.346 . S
N317 C321 1.345 . S
C318 C319 1.387 . S
C318 C322 1.391 . S
C319 C318 1.387 . S
C319 C320 1.369 . S
C319 H328 0.929 . S
C320 N317 1.346 . S
C320 C319 1.369 . S
C320 H323 0.928 . S
C321 N317 1.345 . S
C321 C322 1.371 . S
C321 H324 0.931 . S
C322 C318 1.391 . S
C322 C321 1.371 . S
C322 H329 0.930 . S
H323 C320 0.928 . S
H324 C321 0.931 . S
H325 C301 0.930 . S
H326 C298 0.930 . S
H327 C307 0.930 . S
H328 C319 0.929 . S
H329 C322 0.930 . S
C330 C331 1.351 1_655 S
C330 N333 1.368 . S
C330 H335 0.931 . S
C331 C330 1.351 1_455 S
C331 N332 1.373 . S
C331 H359 0.930 . S
N332 C331 1.373 . S
N332 C334 1.340 . S
N333 C330 1.368 . S
N333 C334 1.321 1_655 S
N333 Co336 2.135 . S
C334 N332 1.340 . S
C334 N333 1.321 1_455 S
C334 H358 0.930 . S
H335 C330 0.931 . S
Co336 N333 2.135 . S
Co336 N339 2.121 . S
Co336 O344 2.055 . S
Co336 O347 2.039 . S
Co336 N350 2.140 . S
C337 O338 1.227 . S
C337 O347 1.265 . S
O338 C337 1.227 . S
N339 Co336 2.121 . S
N339 C341 1.375 . S
N339 C342 1.313 . S
C340 C341 1.338 . S
C340 N343 1.377 . S
C340 H360 0.930 . S
C341 N339 1.375 . S
C341 C340 1.338 . S
C341 H345 0.931 . S
C342 N339 1.313 . S
C342 N343 1.344 . S
C342 H346 0.930 . S
N343 C340 1.377 . S
N343 C342 1.344 . S
O344 Co336 2.055 . S
O344 C348 1.253 . S
H345 C341 0.931 . S
H346 C342 0.930 . S
O347 Co336 2.039 . S
O347 C337 1.265 . S
C348 O344 1.253 . S
C348 O349 1.227 . S
O349 C348 1.227 . S
N350 Co336 2.140 . S
N350 C353 1.346 . S
N350 C354 1.345 . S
C351 C352 1.387 . S
C351 C355 1.391 . S
C352 C351 1.387 . S
C352 C353 1.369 . S
C352 H361 0.929 . S
C353 N350 1.346 . S
C353 C352 1.369 . S
C353 H356 0.928 . S
C354 N350 1.345 . S
C354 C355 1.371 . S
C354 H357 0.931 . S
C355 C351 1.391 . S
C355 C354 1.371 . S
C355 H362 0.930 . S
H356 C353 0.928 . S
H357 C354 0.931 . S
H358 C334 0.930 . S
H359 C331 0.930 . S
H360 C340 0.930 . S
H361 C352 0.929 . S
H362 C355 0.930 . S
C363 C364 1.351 1_565 S
C363 N366 1.368 . S
C363 H368 0.931 . S
C364 C363 1.351 1_545 S
C364 N365 1.373 . S
C364 H392 0.930 . S
N365 C364 1.373 . S
N365 C367 1.340 . S
N366 C363 1.368 . S
N366 C367 1.321 1_565 S
N366 Co369 2.135 . S
C367 N365 1.340 . S
C367 N366 1.321 1_545 S
C367 H391 0.930 . S
H368 C363 0.931 . S
Co369 N366 2.135 . S
Co369 N372 2.121 . S
Co369 O377 2.055 . S
Co369 O380 2.039 . S
Co369 N383 2.140 . S
C370 O371 1.227 . S
C370 O380 1.265 . S
O371 C370 1.227 . S
N372 Co369 2.121 . S
N372 C374 1.375 . S
N372 C375 1.313 . S
C373 C374 1.338 . S
C373 N376 1.377 . S
C373 H393 0.930 . S
C374 N372 1.375 . S
C374 C373 1.338 . S
C374 H378 0.931 . S
C375 N372 1.313 . S
C375 N376 1.344 . S
C375 H379 0.930 . S
N376 C373 1.377 . S
N376 C375 1.344 . S
O377 Co369 2.055 . S
O377 C381 1.253 . S
H378 C374 0.931 . S
H379 C375 0.930 . S
O380 Co369 2.039 . S
O380 C370 1.265 . S
C381 O377 1.253 . S
C381 O382 1.227 . S
O382 C381 1.227 . S
N383 Co369 2.140 . S
N383 C386 1.346 . S
N383 C387 1.345 . S
C384 C385 1.387 . S
C384 C388 1.391 . S
C385 C384 1.387 . S
C385 C386 1.369 . S
C385 H394 0.929 . S
C386 N383 1.346 . S
C386 C385 1.369 . S
C386 H389 0.928 . S
C387 N383 1.345 . S
C387 C388 1.371 . S
C387 H390 0.931 . S
C388 C384 1.391 . S
C388 C387 1.371 . S
C388 H395 0.930 . S
H389 C386 0.928 . S
H390 C387 0.931 . S
H391 C367 0.930 . S
H392 C364 0.930 . S
H393 C373 0.930 . S
H394 C385 0.929 . S
H395 C388 0.930 . S
C396 C397 1.363 . S
C396 C402 1.379 . S
C396 N404 1.356 . S
C397 C396 1.363 . S
C397 C403 1.363 . S
C398 C399 1.363 . S
C398 C403 1.379 . S
C398 N405 1.356 . S
C399 C398 1.363 . S
C399 C402 1.363 . S
N400 C402 1.356 . S
N400 H412 0.984 . S
N400 H413 0.985 . S
N401 C403 1.356 . S
N401 H406 0.984 . S
N401 H407 0.985 . S
C402 C396 1.379 . S
C402 C399 1.363 . S
C402 N400 1.356 . S
C403 C397 1.363 . S
C403 C398 1.379 . S
C403 N401 1.356 . S
N404 C396 1.356 . S
N404 H410 0.984 . S
N404 H411 0.984 . S
N405 C398 1.356 . S
N405 H408 0.984 . S
N405 H409 0.985 . S
H406 N401 0.984 . S
H407 N401 0.985 . S
H408 N405 0.984 . S
H409 N405 0.985 . S
H410 N404 0.984 . S
H411 N404 0.984 . S
H412 N400 0.984 . S
H413 N400 0.985 . S
C414 C415 1.363 . S
C414 C420 1.379 . S
C414 N422 1.356 . S
C415 C414 1.363 . S
C415 C421 1.363 1_455 S
C416 C417 1.363 . S
C416 C421 1.379 . S
C416 N423 1.356 . S
C417 C416 1.363 . S
C417 C420 1.363 1_655 S
N418 C420 1.356 . S
N418 H430 0.984 . S
N418 H431 0.985 1_455 S
N419 C421 1.356 . S
N419 H424 0.984 1_655 S
N419 H425 0.985 . S
C420 C414 1.379 . S
C420 C417 1.363 1_455 S
C420 N418 1.356 . S
C421 C415 1.363 1_655 S
C421 C416 1.379 . S
C421 N419 1.356 . S
N422 C414 1.356 . S
N422 H428 0.984 . S
N422 H429 0.984 . S
N423 C416 1.356 . S
N423 H426 0.984 . S
N423 H427 0.985 . S
H424 N419 0.984 1_455 S
H425 N419 0.985 . S
H426 N423 0.984 . S
H427 N423 0.985 . S
H428 N422 0.984 . S
H429 N422 0.984 . S
H430 N418 0.984 . S
H431 N418 0.985 1_655 S
C432 C433 1.363 1_565 S
C432 C438 1.379 . S
C432 N440 1.356 . S
C433 C432 1.363 1_545 S
C433 C439 1.363 . S
C434 C435 1.363 1_545 S
C434 C439 1.379 . S
C434 N441 1.356 . S
C435 C434 1.363 1_565 S
C435 C438 1.363 . S
N436 C438 1.356 . S
N436 H448 0.984 . S
N436 H449 0.985 . S
N437 C439 1.356 . S
N437 H442 0.984 . S
N437 H443 0.985 . S
C438 C432 1.379 . S
C438 C435 1.363 . S
C438 N436 1.356 . S
C439 C433 1.363 . S
C439 C434 1.379 . S
C439 N437 1.356 . S
N440 C432 1.356 . S
N440 H446 0.984 . S
N440 H447 0.984 1_565 S
N441 C434 1.356 . S
N441 H444 0.984 1_545 S
N441 H445 0.985 . S
H442 N437 0.984 . S
H443 N437 0.985 . S
H444 N441 0.984 1_565 S
H445 N441 0.985 . S
H446 N440 0.984 . S
H447 N440 0.984 1_545 S
H448 N436 0.984 . S
H449 N436 0.985 . S
C450 C451 1.363 . S
C450 C456 1.379 . S
C450 N458 1.356 . S
C451 C450 1.363 . S
C451 C457 1.363 . S
C452 C453 1.363 . S
C452 C457 1.379 . S
C452 N459 1.356 . S
C453 C452 1.363 . S
C453 C456 1.363 . S
N454 C456 1.356 . S
N454 H466 0.984 . S
N454 H467 0.985 . S
N455 C457 1.356 . S
N455 H460 0.984 . S
N455 H461 0.985 . S
C456 C450 1.379 . S
C456 C453 1.363 . S
C456 N454 1.356 . S
C457 C451 1.363 . S
C457 C452 1.379 . S
C457 N455 1.356 . S
N458 C450 1.356 . S
N458 H464 0.984 . S
N458 H465 0.984 . S
N459 C452 1.356 . S
N459 H462 0.984 . S
N459 H463 0.985 . S
H460 N455 0.984 . S
H461 N455 0.985 . S
H462 N459 0.984 . S
H463 N459 0.985 . S
H464 N458 0.984 . S
H465 N458 0.984 . S
H466 N454 0.984 . S
H467 N454 0.985 . S
C468 C469 1.363 . S
C468 C474 1.379 . S
C468 N476 1.356 . S
C469 C468 1.363 . S
C469 C475 1.363 1_655 S
C470 C471 1.363 . S
C470 C475 1.379 . S
C470 N477 1.356 . S
C471 C470 1.363 . S
C471 C474 1.363 1_455 S
N472 C474 1.356 . S
N472 H484 0.984 . S
N472 H485 0.985 1_655 S
N473 C475 1.356 . S
N473 H478 0.984 1_455 S
N473 H479 0.985 . S
C474 C468 1.379 . S
C474 C471 1.363 1_655 S
C474 N472 1.356 . S
C475 C469 1.363 1_455 S
C475 C470 1.379 . S
C475 N473 1.356 . S
N476 C468 1.356 . S
N476 H482 0.984 . S
N476 H483 0.984 . S
N477 C470 1.356 . S
N477 H480 0.984 . S
N477 H481 0.985 . S
H478 N473 0.984 1_655 S
H479 N473 0.985 . S
H480 N477 0.984 . S
H481 N477 0.985 . S
H482 N476 0.984 . S
H483 N476 0.984 . S
H484 N472 0.984 . S
H485 N472 0.985 1_455 S
C486 C487 1.363 . S
C486 C492 1.379 . S
C486 N494 1.356 . S
C487 C486 1.363 . S
C487 C493 1.363 1_565 S
C488 C489 1.363 . S
C488 C493 1.379 . S
C488 N495 1.356 . S
C489 C488 1.363 . S
C489 C492 1.363 1_545 S
N490 C492 1.356 . S
N490 H502 0.984 . S
N490 H503 0.985 1_565 S
N491 C493 1.356 . S
N491 H496 0.984 1_545 S
N491 H497 0.985 . S
C492 C486 1.379 . S
C492 C489 1.363 1_565 S
C492 N490 1.356 . S
C493 C487 1.363 1_545 S
C493 C488 1.379 . S
C493 N491 1.356 . S
N494 C486 1.356 . S
N494 H500 0.984 . S
N494 H501 0.984 . S
N495 C488 1.356 . S
N495 H498 0.984 . S
N495 H499 0.985 . S
H496 N491 0.984 1_565 S
H497 N491 0.985 . S
H498 N495 0.984 . S
H499 N495 0.985 . S
H500 N494 0.984 . S
H501 N494 0.984 . S
H502 N490 0.984 . S
H503 N490 0.985 1_545 S
C504 C505 1.363 1_545 S
C504 C510 1.379 1_556 S
C504 N512 1.356 . S
C505 C504 1.363 1_565 S
C505 C511 1.363 . S
C506 C507 1.363 1_565 S
C506 C511 1.379 1_554 S
C506 N513 1.356 . S
C507 C506 1.363 1_545 S
C507 C510 1.363 . S
N508 C510 1.356 . S
N508 H520 0.984 . S
N508 H521 0.985 . S
N509 C511 1.356 . S
N509 H514 0.984 . S
N509 H515 0.985 . S
C510 C504 1.379 1_554 S
C510 C507 1.363 . S
C510 N508 1.356 . S
C511 C505 1.363 . S
C511 C506 1.379 1_556 S
C511 N509 1.356 . S
N512 C504 1.356 . S
N512 H518 0.984 . S
N512 H519 0.984 . S
N513 C506 1.356 . S
N513 H516 0.984 . S
N513 H517 0.985 . S
H514 N509 0.984 . S
H515 N509 0.985 . S
H516 N513 0.984 . S
H517 N513 0.985 . S
H518 N512 0.984 . S
H519 N512 0.984 . S
H520 N508 0.984 . S
H521 N508 0.985 . S
C522 C523 1.363 . S
C522 C528 1.379 . S
C522 N530 1.356 . S
C523 C522 1.363 . S
C523 C529 1.363 . S
C524 C525 1.363 . S
C524 C529 1.379 . S
C524 N531 1.356 . S
C525 C524 1.363 . S
C525 C528 1.363 . S
N526 C528 1.356 . S
N526 H538 0.984 . S
N526 H539 0.985 . S
N527 C529 1.356 . S
N527 H532 0.984 . S
N527 H533 0.985 . S
C528 C522 1.379 . S
C528 C525 1.363 . S
C528 N526 1.356 . S
C529 C523 1.363 . S
C529 C524 1.379 . S
C529 N527 1.356 . S
N530 C522 1.356 . S
N530 H536 0.984 . S
N530 H537 0.984 . S
N531 C524 1.356 . S
N531 H534 0.984 . S
N531 H535 0.985 . S
H532 N527 0.984 . S
H533 N527 0.985 . S
H534 N531 0.984 . S
H535 N531 0.985 . S
H536 N530 0.984 . S
H537 N530 0.984 . S
H538 N526 0.984 . S
H539 N526 0.985 . S
C540 C541 1.363 . S
C540 C546 1.379 . S
C540 N548 1.356 . S
C541 C540 1.363 . S
C541 C547 1.363 1_455 S
C542 C543 1.363 . S
C542 C547 1.379 . S
C542 N549 1.356 . S
C543 C542 1.363 . S
C543 C546 1.363 1_655 S
N544 C546 1.356 . S
N544 H556 0.984 . S
N544 H557 0.985 . S
N545 C547 1.356 . S
N545 H550 0.984 . S
N545 H551 0.985 . S
C546 C540 1.379 . S
C546 C543 1.363 1_455 S
C546 N544 1.356 . S
C547 C541 1.363 1_655 S
C547 C542 1.379 . S
C547 N545 1.356 . S
N548 C540 1.356 . S
N548 H554 0.984 . S
N548 H555 0.984 . S
N549 C542 1.356 . S
N549 H552 0.984 . S
N549 H553 0.985 . S
H550 N545 0.984 . S
H551 N545 0.985 . S
H552 N549 0.984 . S
H553 N549 0.985 . S
H554 N548 0.984 . S
H555 N548 0.984 . S
H556 N544 0.984 . S
H557 N544 0.985 . S
C558 C559 1.363 . S
C558 C564 1.379 1_554 S
C558 N566 1.356 . S
C559 C558 1.363 . S
C559 C565 1.363 1_565 S
C560 C561 1.363 . S
C560 C565 1.379 1_556 S
C560 N567 1.356 . S
C561 C560 1.363 . S
C561 C564 1.363 1_545 S
N562 C564 1.356 . S
N562 H574 0.984 . S
N562 H575 0.985 . S
N563 C565 1.356 . S
N563 H568 0.984 . S
N563 H569 0.985 . S
C564 C558 1.379 1_556 S
C564 C561 1.363 1_565 S
C564 N562 1.356 . S
C565 C559 1.363 1_545 S
C565 C560 1.379 1_554 S
C565 N563 1.356 . S
N566 C558 1.356 . S
N566 H572 0.984 . S
N566 H573 0.984 . S
N567 C560 1.356 . S
N567 H570 0.984 . S
N567 H571 0.985 . S
H568 N563 0.984 . S
H569 N563 0.985 . S
H570 N567 0.984 . S
H571 N567 0.985 . S
H572 N566 0.984 . S
H573 N566 0.984 . S
H574 N562 0.984 . S
H575 N562 0.985 . S
C576 C577 1.363 . S
C576 C582 1.379 . S
C576 N584 1.356 . S
C577 C576 1.363 . S
C577 C583 1.363 . S
C578 C579 1.363 . S
C578 C583 1.379 . S
C578 N585 1.356 . S
C579 C578 1.363 . S
C579 C582 1.363 . S
N580 C582 1.356 . S
N580 H592 0.984 . S
N580 H593 0.985 . S
N581 C583 1.356 . S
N581 H586 0.984 . S
N581 H587 0.985 . S
C582 C576 1.379 . S
C582 C579 1.363 . S
C582 N580 1.356 . S
C583 C577 1.363 . S
C583 C578 1.379 . S
C583 N581 1.356 . S
N584 C576 1.356 . S
N584 H590 0.984 . S
N584 H591 0.984 . S
N585 C578 1.356 . S
N585 H588 0.984 . S
N585 H589 0.985 . S
H586 N581 0.984 . S
H587 N581 0.985 . S
H588 N585 0.984 . S
H589 N585 0.985 . S
H590 N584 0.984 . S
H591 N584 0.984 . S
H592 N580 0.984 . S
H593 N580 0.985 . S
C594 C595 1.363 . S
C594 C600 1.379 . S
C594 N602 1.356 . S
C595 C594 1.363 . S
C595 C601 1.363 1_455 S
C596 C597 1.363 . S
C596 C601 1.379 . S
C596 N603 1.356 . S
C597 C596 1.363 . S
C597 C600 1.363 1_655 S
N598 C600 1.356 . S
N598 H610 0.984 . S
N598 H611 0.985 . S
N599 C601 1.356 . S
N599 H604 0.984 . S
N599 H605 0.985 . S
C600 C594 1.379 . S
C600 C597 1.363 1_455 S
C600 N598 1.356 . S
C601 C595 1.363 1_655 S
C601 C596 1.379 . S
C601 N599 1.356 . S
N602 C594 1.356 . S
N602 H608 0.984 . S
N602 H609 0.984 . S
N603 C596 1.356 . S
N603 H606 0.984 . S
N603 H607 0.985 . S
H604 N599 0.984 . S
H605 N599 0.985 . S
H606 N603 0.984 . S
H607 N603 0.985 . S
H608 N602 0.984 . S
H609 N602 0.984 . S
H610 N598 0.984 . S
H611 N598 0.985 . S
C612 C613 1.363 . S
C612 C618 1.379 1_445 S
C612 N620 1.356 . S
C613 C612 1.363 . S
C613 C619 1.363 . S
C614 C615 1.363 . S
C614 C619 1.379 1_665 S
C614 N621 1.356 . S
C615 C614 1.363 . S
C615 C618 1.363 . S
N616 C618 1.356 . S
N616 H628 0.984 . S
N616 H629 0.985 . S
N617 C619 1.356 . S
N617 H622 0.984 . S
N617 H623 0.985 . S
C618 C612 1.379 1_665 S
C618 C615 1.363 . S
C618 N616 1.356 . S
C619 C613 1.363 . S
C619 C614 1.379 1_445 S
C619 N617 1.356 . S
N620 C612 1.356 . S
N620 H626 0.984 1_545 S
N620 H627 0.984 . S
N621 C614 1.356 . S
N621 H624 0.984 . S
N621 H625 0.985 1_565 S
H622 N617 0.984 . S
H623 N617 0.985 . S
H624 N621 0.984 . S
H625 N621 0.985 1_545 S
H626 N620 0.984 1_565 S
H627 N620 0.984 . S
H628 N616 0.984 . S
H629 N616 0.985 . S
C630 C631 1.363 . S
C630 C636 1.379 1_545 S
C630 N638 1.356 . S
C631 C630 1.363 . S
C631 C637 1.363 1_455 S
C632 C633 1.363 . S
C632 C637 1.379 1_565 S
C632 N639 1.356 . S
C633 C632 1.363 . S
C633 C636 1.363 1_655 S
N634 C636 1.356 . S
N634 H646 0.984 . S
N634 H647 0.985 . S
N635 C637 1.356 . S
N635 H640 0.984 . S
N635 H641 0.985 . S
C636 C630 1.379 1_565 S
C636 C633 1.363 1_455 S
C636 N634 1.356 . S
C637 C631 1.363 1_655 S
C637 C632 1.379 1_545 S
C637 N635 1.356 . S
N638 C630 1.356 . S
N638 H644 0.984 . S
N638 H645 0.984 . S
N639 C632 1.356 . S
N639 H642 0.984 . S
N639 H643 0.985 . S
H640 N635 0.984 . S
H641 N635 0.985 . S
H642 N639 0.984 . S
H643 N639 0.985 . S
H644 N638 0.984 . S
H645 N638 0.984 . S
H646 N634 0.984 . S
H647 N634 0.985 . S
C648 C649 1.363 . S
C648 C654 1.379 1_655 S
C648 N656 1.356 . S
C649 C648 1.363 . S
C649 C655 1.363 1_545 S
C650 C651 1.363 . S
C650 C655 1.379 1_455 S
C650 N657 1.356 . S
C651 C650 1.363 . S
C651 C654 1.363 1_565 S
N652 C654 1.356 . S
N652 H664 0.984 . S
N652 H665 0.985 . S
N653 C655 1.356 . S
N653 H658 0.984 . S
N653 H659 0.985 . S
C654 C648 1.379 1_455 S
C654 C651 1.363 1_545 S
C654 N652 1.356 . S
C655 C649 1.363 1_565 S
C655 C650 1.379 1_655 S
C655 N653 1.356 . S
N656 C648 1.356 . S
N656 H662 0.984 1_655 S
N656 H663 0.984 . S
N657 C650 1.356 . S
N657 H660 0.984 . S
N657 H661 0.985 1_455 S
H658 N653 0.984 . S
H659 N653 0.985 . S
H660 N657 0.984 . S
H661 N657 0.985 1_655 S
H662 N656 0.984 1_455 S
H663 N656 0.984 . S
H664 N652 0.984 . S
H665 N652 0.985 . S
C666 C667 1.363 . S
C666 C672 1.379 1_665 S
C666 N674 1.356 . S
C667 C666 1.363 . S
C667 C673 1.363 . S
C668 C669 1.363 . S
C668 C673 1.379 1_445 S
C668 N675 1.356 . S
C669 C668 1.363 . S
C669 C672 1.363 . S
N670 C672 1.356 . S
N670 H682 0.984 . S
N670 H683 0.985 . S
N671 C673 1.356 . S
N671 H676 0.984 . S
N671 H677 0.985 . S
C672 C666 1.379 1_445 S
C672 C669 1.363 . S
C672 N670 1.356 . S
C673 C667 1.363 . S
C673 C668 1.379 1_665 S
C673 N671 1.356 . S
N674 C666 1.356 . S
N674 H680 0.984 1_655 S
N674 H681 0.984 . S
N675 C668 1.356 . S
N675 H678 0.984 . S
N675 H679 0.985 1_455 S
H676 N671 0.984 . S
H677 N671 0.985 . S
H678 N675 0.984 . S
H679 N675 0.985 1_655 S
H680 N674 0.984 1_455 S
H681 N674 0.984 . S
H682 N670 0.984 . S
H683 N670 0.985 . S
C684 C685 1.363 1_655 S
C684 C690 1.379 1_565 S
C684 N692 1.356 . S
C685 C684 1.363 1_455 S
C685 C691 1.363 . S
C686 C687 1.363 1_455 S
C686 C691 1.379 1_545 S
C686 N693 1.356 . S
C687 C686 1.363 1_655 S
C687 C690 1.363 . S
N688 C690 1.356 . S
N688 H700 0.984 1_545 S
N688 H701 0.985 . S
N689 C691 1.356 . S
N689 H694 0.984 . S
N689 H695 0.985 1_565 S
C690 C684 1.379 1_545 S
C690 C687 1.363 . S
C690 N688 1.356 . S
C691 C685 1.363 . S
C691 C686 1.379 1_565 S
C691 N689 1.356 . S
N692 C684 1.356 . S
N692 H698 0.984 . S
N692 H699 0.984 . S
N693 C686 1.356 . S
N693 H696 0.984 . S
N693 H697 0.985 . S
H694 N689 0.984 . S
H695 N689 0.985 1_545 S
H696 N693 0.984 . S
H697 N693 0.985 . S
H698 N692 0.984 . S
H699 N692 0.984 . S
H700 N688 0.984 1_565 S
H701 N688 0.985 . S
C702 C703 1.363 . S
C702 C708 1.379 1_455 S
C702 N710 1.356 . S
C703 C702 1.363 . S
C703 C709 1.363 1_545 S
C704 C705 1.363 . S
C704 C709 1.379 1_655 S
C704 N711 1.356 . S
C705 C704 1.363 . S
C705 C708 1.363 1_565 S
N706 C708 1.356 . S
N706 H718 0.984 . S
N706 H719 0.985 . S
N707 C709 1.356 . S
N707 H712 0.984 . S
N707 H713 0.985 . S
C708 C702 1.379 1_655 S
C708 C705 1.363 1_545 S
C708 N706 1.356 . S
C709 C703 1.363 1_565 S
C709 C704 1.379 1_455 S
C709 N707 1.356 . S
N710 C702 1.356 . S
N710 H716 0.984 . S
N710 H717 0.984 . S
N711 C704 1.356 . S
N711 H714 0.984 . S
N711 H715 0.985 . S
H712 N707 0.984 . S
H713 N707 0.985 . S
H714 N711 0.984 . S
H715 N711 0.985 . S
H716 N710 0.984 . S
H717 N710 0.984 . S
H718 N706 0.984 . S
H719 N706 0.985 . S
C720 C721 1.363 . S
C720 C726 1.379 . S
C720 N728 1.356 . S
C721 C720 1.363 . S
C721 C727 1.363 1_556 S
C722 C723 1.363 . S
C722 C727 1.379 . S
C722 N729 1.356 . S
C723 C722 1.363 . S
C723 C726 1.363 1_554 S
N724 C726 1.356 . S
N724 H736 0.984 . S
N724 H737 0.985 1_556 S
N725 C727 1.356 1_655 S
N725 H730 0.984 1_554 S
N725 H731 0.985 . S
C726 C720 1.379 . S
C726 C723 1.363 1_556 S
C726 N724 1.356 . S
C727 C721 1.363 1_554 S
C727 C722 1.379 . S
C727 N725 1.356 1_455 S
N728 C720 1.356 . S
N728 H734 0.984 . S
N728 H735 0.984 . S
N729 C722 1.356 . S
N729 H732 0.984 . S
N729 H733 0.985 . S
H730 N725 0.984 1_556 S
H731 N725 0.985 . S
H732 N729 0.984 . S
H733 N729 0.985 . S
H734 N728 0.984 . S
H735 N728 0.984 . S
H736 N724 0.984 . S
H737 N724 0.985 1_554 S
C738 C739 1.363 . S
C738 C744 1.379 . S
C738 N746 1.356 . S
C739 C738 1.363 . S
C739 C745 1.363 . S
C740 C741 1.363 . S
C740 C745 1.379 . S
C740 N747 1.356 . S
C741 C740 1.363 . S
C741 C744 1.363 . S
N742 C744 1.356 1_565 S
N742 H754 0.984 . S
N742 H755 0.985 . S
N743 C745 1.356 . S
N743 H748 0.984 . S
N743 H749 0.985 . S
C744 C738 1.379 . S
C744 C741 1.363 . S
C744 N742 1.356 1_545 S
C745 C739 1.363 . S
C745 C740 1.379 . S
C745 N743 1.356 . S
N746 C738 1.356 . S
N746 H752 0.984 . S
N746 H753 0.984 . S
N747 C740 1.356 . S
N747 H750 0.984 . S
N747 H751 0.985 . S
H748 N743 0.984 . S
H749 N743 0.985 . S
H750 N747 0.984 . S
H751 N747 0.985 . S
H752 N746 0.984 . S
H753 N746 0.984 . S
H754 N742 0.984 . S
H755 N742 0.985 . S
C756 C757 1.363 . S
C756 C762 1.379 . S
C756 N764 1.356 . S
C757 C756 1.363 . S
C757 C763 1.363 . S
C758 C759 1.363 . S
C758 C763 1.379 . S
C758 N765 1.356 1_565 S
C759 C758 1.363 . S
C759 C762 1.363 . S
N760 C762 1.356 . S
N760 H772 0.984 . S
N760 H773 0.985 . S
N761 C763 1.356 . S
N761 H766 0.984 . S
N761 H767 0.985 . S
C762 C756 1.379 . S
C762 C759 1.363 . S
C762 N760 1.356 . S
C763 C757 1.363 . S
C763 C758 1.379 . S
C763 N761 1.356 . S
N764 C756 1.356 . S
N764 H770 0.984 . S
N764 H771 0.984 . S
N765 C758 1.356 1_545 S
N765 H768 0.984 . S
N765 H769 0.985 . S
H766 N761 0.984 . S
H767 N761 0.985 . S
H768 N765 0.984 . S
H769 N765 0.985 . S
H770 N764 0.984 . S
H771 N764 0.984 . S
H772 N760 0.984 . S
H773 N760 0.985 . S
C774 C775 1.363 . S
C774 C780 1.379 . S
C774 N782 1.356 . S
C775 C774 1.363 . S
C775 C781 1.363 1_554 S
C776 C777 1.363 . S
C776 C781 1.379 . S
C776 N783 1.356 . S
C777 C776 1.363 . S
C777 C780 1.363 1_556 S
N778 C780 1.356 . S
N778 H790 0.984 . S
N778 H791 0.985 1_554 S
N779 C781 1.356 . S
N779 H784 0.984 1_556 S
N779 H785 0.985 . S
C780 C774 1.379 . S
C780 C777 1.363 1_554 S
C780 N778 1.356 . S
C781 C775 1.363 1_556 S
C781 C776 1.379 . S
C781 N779 1.356 . S
N782 C774 1.356 . S
N782 H788 0.984 . S
N782 H789 0.984 . S
N783 C776 1.356 . S
N783 H786 0.984 1_655 S
N783 H787 0.985 . S
H784 N779 0.984 1_554 S
H785 N779 0.985 . S
H786 N783 0.984 1_455 S
H787 N783 0.985 . S
H788 N782 0.984 . S
H789 N782 0.984 . S
H790 N778 0.984 . S
H791 N778 0.985 1_556 S
C792 C793 1.363 . S
C792 C798 1.379 . S
C792 N800 1.356 . S
C793 C792 1.363 . S
C793 C799 1.363 . S
C794 C795 1.363 . S
C794 C799 1.379 . S
C794 N801 1.356 . S
C795 C794 1.363 . S
C795 C798 1.363 . S
N796 C798 1.356 1_655 S
N796 H808 0.984 . S
N796 H809 0.985 . S
N797 C799 1.356 . S
N797 H802 0.984 1_565 S
N797 H803 0.985 . S
C798 C792 1.379 . S
C798 C795 1.363 . S
C798 N796 1.356 1_455 S
C799 C793 1.363 . S
C799 C794 1.379 . S
C799 N797 1.356 . S
N800 C792 1.356 . S
N800 H806 0.984 . S
N800 H807 0.984 . S
N801 C794 1.356 . S
N801 H804 0.984 . S
N801 H805 0.985 . S
H802 N797 0.984 1_545 S
H803 N797 0.985 . S
H804 N801 0.984 . S
H805 N801 0.985 . S
H806 N800 0.984 . S
H807 N800 0.984 . S
H808 N796 0.984 . S
H809 N796 0.985 . S
C810 C811 1.363 . S
C810 C816 1.379 . S
C810 N818 1.356 . S
C811 C810 1.363 . S
C811 C817 1.363 . S
C812 C813 1.363 . S
C812 C817 1.379 . S
C812 N819 1.356 . S
C813 C812 1.363 . S
C813 C816 1.363 . S
N814 C816 1.356 . S
N814 H826 0.984 . S
N814 H827 0.985 . S
N815 C817 1.356 . S
N815 H820 0.984 . S
N815 H821 0.985 . S
C816 C810 1.379 . S
C816 C813 1.363 . S
C816 N814 1.356 . S
C817 C811 1.363 . S
C817 C812 1.379 . S
C817 N815 1.356 . S
N818 C810 1.356 . S
N818 H824 0.984 . S
N818 H825 0.998 . S
N819 C812 1.356 . S
N819 H822 0.984 . S
N819 H823 0.985 . S
H820 N815 0.984 . S
H821 N815 0.985 . S
H822 N819 0.984 . S
H823 N819 0.985 . S
H824 N818 0.984 . S
H825 N818 0.998 . S
H826 N814 0.984 . S
H827 N814 0.985 . S
C828 C829 1.363 . S
C828 C834 1.379 . S
C828 N836 1.356 . S
C829 C828 1.363 . S
C829 C835 1.363 . S
C830 C831 1.363 . S
C830 C835 1.379 . S
C830 N837 1.356 . S
C831 C830 1.363 . S
C831 C834 1.363 . S
N832 C834 1.356 . S
N832 H844 0.984 . S
N832 H845 0.985 . S
N833 C835 1.356 . S
N833 H838 0.984 . S
N833 H839 0.985 . S
C834 C828 1.379 . S
C834 C831 1.363 . S
C834 N832 1.356 . S
C835 C829 1.363 . S
C835 C830 1.379 . S
C835 N833 1.356 . S
N836 C828 1.356 . S
N836 H842 0.984 . S
N836 H843 0.984 . S
N837 C830 1.356 . S
N837 H840 0.984 . S
N837 H841 0.985 . S
H838 N833 0.984 . S
H839 N833 0.985 . S
H840 N837 0.984 . S
H841 N837 0.985 . S
H842 N836 0.984 . S
H843 N836 0.984 . S
H844 N832 0.984 . S
H845 N832 0.985 . S
C846 C847 1.363 . S
C846 C852 1.379 . S
C846 N854 1.356 . S
C847 C846 1.363 . S
C847 C853 1.363 . S
C848 C849 1.363 . S
C848 C853 1.379 . S
C848 N855 1.356 . S
C849 C848 1.363 . S
C849 C852 1.363 . S
N850 C852 1.356 . S
N850 H862 0.984 . S
N850 H863 0.985 . S
N851 C853 1.356 . S
N851 H856 0.984 . S
N851 H857 0.985 . S
C852 C846 1.379 . S
C852 C849 1.363 . S
C852 N850 1.356 . S
C853 C847 1.363 . S
C853 C848 1.379 . S
C853 N851 1.356 . S
N854 C846 1.356 . S
N854 H860 0.984 . S
N854 H861 0.984 . S
N855 C848 1.356 . S
N855 H858 0.984 . S
N855 H859 0.985 . S
H856 N851 0.984 . S
H857 N851 0.985 . S
H858 N855 0.984 . S
H859 N855 0.985 . S
H860 N854 0.984 . S
H861 N854 0.984 . S
H862 N850 0.984 . S
H863 N850 0.985 . S
C864 C865 1.363 . S
C864 C870 1.379 . S
C864 N872 1.356 . S
C865 C864 1.363 . S
C865 C871 1.363 . S
C866 C867 1.363 . S
C866 C871 1.379 . S
C866 N873 1.356 . S
C867 C866 1.363 . S
C867 C870 1.363 . S
N868 C870 1.356 . S
N868 H880 0.984 . S
N868 H881 0.985 . S
N869 C871 1.356 . S
N869 H874 0.984 . S
N869 H875 0.985 . S
C870 C864 1.379 . S
C870 C867 1.363 . S
C870 N868 1.356 . S
C871 C865 1.363 . S
C871 C866 1.379 . S
C871 N869 1.356 . S
N872 C864 1.356 . S
N872 H878 0.984 . S
N872 H879 0.984 . S
N873 C866 1.356 . S
N873 H876 0.984 . S
N873 H877 0.985 . S
H874 N869 0.984 . S
H875 N869 0.985 . S
H876 N873 0.984 . S
H877 N873 0.985 . S
H878 N872 0.984 . S
H879 N872 0.984 . S
H880 N868 0.984 . S
H881 N868 0.985 . S
C882 C883 1.363 . S
C882 C888 1.379 . S
C882 N890 1.356 . S
C883 C882 1.363 . S
C883 C889 1.363 . S
C884 C885 1.363 . S
C884 C889 1.379 . S
C884 N891 1.356 . S
C885 C884 1.363 . S
C885 C888 1.363 . S
N886 C888 1.356 . S
N886 H898 0.984 . S
N886 H899 0.985 . S
N887 C889 1.356 . S
N887 H892 0.984 . S
N887 H893 0.985 . S
C888 C882 1.379 . S
C888 C885 1.363 . S
C888 N886 1.356 . S
C889 C883 1.363 . S
C889 C884 1.379 . S
C889 N887 1.356 . S
N890 C882 1.356 . S
N890 H896 0.984 . S
N890 H897 0.984 . S
N891 C884 1.356 . S
N891 H894 0.984 . S
N891 H895 0.985 . S
H892 N887 0.984 . S
H893 N887 0.985 . S
H894 N891 0.984 . S
H895 N891 0.985 . S
H896 N890 0.984 . S
H897 N890 0.984 . S
H898 N886 0.984 . S
H899 N886 0.985 . S
C900 C901 1.363 . S
C900 C906 1.379 . S
C900 N908 1.356 . S
C901 C900 1.363 . S
C901 C907 1.363 . S
C902 C903 1.363 . S
C902 C907 1.379 . S
C902 N909 1.356 . S
C903 C902 1.363 . S
C903 C906 1.363 . S
N904 C906 1.356 . S
N904 H916 0.984 . S
N904 H917 0.985 . S
N905 C907 1.356 . S
N905 H910 0.984 . S
N905 H911 0.985 . S
C906 C900 1.379 . S
C906 C903 1.363 . S
C906 N904 1.356 . S
C907 C901 1.363 . S
C907 C902 1.379 . S
C907 N905 1.356 . S
N908 C900 1.356 . S
N908 H914 0.984 . S
N908 H915 0.984 . S
N909 C902 1.356 . S
N909 H912 0.984 . S
N909 H913 0.985 . S
H910 N905 0.984 . S
H911 N905 0.985 . S
H912 N909 0.984 . S
H913 N909 0.985 . S
H914 N908 0.984 . S
H915 N908 0.984 . S
H916 N904 0.984 . S
H917 N904 0.985 . S
C918 C919 1.363 . S
C918 C924 1.379 . S
C918 N926 1.356 . S
C919 C918 1.363 . S
C919 C925 1.363 . S
C920 C921 1.363 . S
C920 C925 1.379 . S
C920 N927 1.356 . S
C921 C920 1.363 . S
C921 C924 1.363 . S
N922 C924 1.356 . S
N922 H934 0.984 . S
N922 H935 0.985 . S
N923 C925 1.356 . S
N923 H928 0.984 . S
N923 H929 0.985 . S
C924 C918 1.379 . S
C924 C921 1.363 . S
C924 N922 1.356 . S
C925 C919 1.363 . S
C925 C920 1.379 . S
C925 N923 1.356 . S
N926 C918 1.356 . S
N926 H932 0.984 . S
N926 H933 0.984 . S
N927 C920 1.356 . S
N927 H930 0.984 . S
N927 H931 0.985 . S
H928 N923 0.984 . S
H929 N923 0.985 . S
H930 N927 0.984 . S
H931 N927 0.985 . S
H932 N926 0.984 . S
H933 N926 0.984 . S
H934 N922 0.984 . S
H935 N922 0.985 . S
C397 C117 1.540 . S
C399 C18 1.540 . S
C415 C51 1.540 . S
C417 C150 1.540 . S
C433 C84 1.540 . S
C435 C183 1.540 . S
C451 C216 1.540 . S
C453 C315 1.540 . S
C469 C348 1.540 . S
C471 C249 1.540 . S
C487 C381 1.540 . S
C489 C282 1.540 . S
C505 C252 1.185 . S
C507 C21 1.185 . S
C523 C54 1.186 . S
C525 C285 1.186 . S
C541 C318 1.185 . S
C543 C87 1.185 . S
C559 C120 1.185 . S
C561 C351 1.185 . S
C577 C384 1.186 . S
C579 C153 1.186 . S
C595 C186 1.185 . S
C597 C219 1.185 . S
C613 C7 1.367 . S
C615 C106 1.367 . S
C631 C40 1.367 . S
C633 C139 1.367 . S
C649 C73 1.367 . S
C651 C172 1.367 . S
C667 C205 1.367 . S
C669 C304 1.366 . S
C685 C238 1.367 . S
C687 C337 1.367 . S
C703 C271 1.367 . S
C705 C370 1.367 . S
C721 N332 0.961 . S
C723 N2 0.961 . S
C739 N35 0.961 . S
C741 N365 0.961 . S
C757 N200 0.961 . S
C759 N68 0.961 . S
C775 N101 0.961 . S
C777 N233 0.961 . S
C793 N266 0.961 . S
C795 N134 0.961 . S
C811 N167 0.961 . S
C813 N299 0.961 . S
C829 N13 1.838 . S
C831 N277 1.838 . S
C847 N46 1.837 . S
C849 N310 1.837 . S
C865 N343 1.838 . S
C867 N79 1.838 . S
C883 N376 1.837 . S
C885 N112 1.838 . S
C901 N145 1.838 . S
C903 N211 1.838 . S
C919 N178 1.837 . S
C921 N244 1.837 . S
