# Generated by pormake.
# Topology ukg, (4)-cn, num edge types: 1
# Building blocks:
#     Node 0, Type 0, BuildingBlock: ICAMEG_clean_sbu_1, # of connection points: 4
#     Node 1, Type 0, BuildingBlock: ICAMEG_clean_sbu_1, # of connection points: 4
#     Node 2, Type 0, BuildingBlock: ICAMEG_clean_sbu_1, # of connection points: 4
#     Node 3, Type 0, BuildingBlock: ICAMEG_clean_sbu_1, # of connection points: 4
#     Node 4, Type 0, BuildingBlock: ICAMEG_clean_sbu_1, # of connection points: 4
#     Node 5, Type 0, BuildingBlock: ICAMEG_clean_sbu_1, # of connection points: 4
#     Node 6, Type 0, BuildingBlock: ICAMEG_clean_sbu_1, # of connection points: 4
#     Node 7, Type 0, BuildingBlock: ICAMEG_clean_sbu_1, # of connection points: 4
#     Edge 8, Type (0, 0), BuildingBlock: XIVTED_clean_linker_0, # of connection points: 2
#     Edge 9, Type (0, 0), BuildingBlock: XIVTED_clean_linker_0, # of connection points: 2
#     Edge 10, Type (0, 0), BuildingBlock: XIVTED_clean_linker_0, # of connection points: 2
#     Edge 11, Type (0, 0), BuildingBlock: XIVTED_clean_linker_0, # of connection points: 2
#     Edge 12, Type (0, 0), BuildingBlock: XIVTED_clean_linker_0, # of connection points: 2
#     Edge 13, Type (0, 0), BuildingBlock: XIVTED_clean_linker_0, # of connection points: 2
#     Edge 14, Type (0, 0), BuildingBlock: XIVTED_clean_linker_0, # of connection points: 2
#     Edge 15, Type (0, 0), BuildingBlock: XIVTED_clean_linker_0, # of connection points: 2
#     Edge 16, Type (0, 0), BuildingBlock: XIVTED_clean_linker_0, # of connection points: 2
#     Edge 17, Type (0, 0), BuildingBlock: XIVTED_clean_linker_0, # of connection points: 2
#     Edge 18, Type (0, 0), BuildingBlock: XIVTED_clean_linker_0, # of connection points: 2
#     Edge 19, Type (0, 0), BuildingBlock: XIVTED_clean_linker_0, # of connection points: 2
#     Edge 20, Type (0, 0), BuildingBlock: XIVTED_clean_linker_0, # of connection points: 2
#     Edge 21, Type (0, 0), BuildingBlock: XIVTED_clean_linker_0, # of connection points: 2
#     Edge 22, Type (0, 0), BuildingBlock: XIVTED_clean_linker_0, # of connection points: 2
#     Edge 23, Type (0, 0), BuildingBlock: XIVTED_clean_linker_0, # of connection points: 2
# Relax obj value: 0.018
# Max RMSD: 0.101
# Mean RMSD: 0.101
data_MOF--net-ukg--node1-ICAMEG_clean_sbu_1--edge1-XIVTED_clean_linker_0
_symmetry_space_group_name_H-M    P1
_symmetry_Int_Tables_number       1
_symmetry_cell_setting            triclinic
loop_
_symmetry_equiv_pos_as_xyz
'x, y, z'
_cell_length_a     33.069614
_cell_length_b     33.035913
_cell_length_c     40.505238
_cell_angle_alpha  89.971791
_cell_angle_beta   89.942901
_cell_angle_gamma 89.953581
loop_
_atom_site_label
_atom_site_type_symbol
_atom_site_fract_x
_atom_site_fract_y
_atom_site_fract_z
_atom_type_partial_charge
Co0 Co 0.04257 0.63856 0.19179 0.0
Co1 Co 0.98254 0.67313 0.12783 0.0
O2 O 0.03198 0.64941 0.14533 0.0
C3 C 0.10601 0.6957 0.17149 0.0
O4 O 0.07699 0.71756 0.15844 0.0
C5 C 0.98895 0.59317 0.09647 0.0
O6 O 0.99674 0.57889 0.12602 0.0
O7 O 0.9481 0.6383 0.15658 0.0
O8 O 0.98777 0.61437 0.19741 0.0
H9 H 0.84476 0.73689 0.13467 0.0
H10 H 0.10008 0.61014 0.14047 0.0
O11 O 0.09771 0.66283 0.1865 0.0
H12 H 0.05443 0.48683 0.19812 0.0
H13 H 0.12994 0.595 0.28709 0.0
H14 H 0.99572 0.64591 0.254 0.0
H15 H 0.02976 0.55406 0.2154 0.0
H16 H 0.11457 0.60839 0.22849 0.0
O17 O 0.98165 0.63073 0.09252 0.0
H18 H 0.90756 0.70729 0.15695 0.0
H19 H 0.95219 0.68885 0.05976 0.0
H20 H 0.00969 0.63267 0.31284 0.0
H21 H 0.12576 0.54356 0.12255 0.0
H22 H 0.07722 0.60702 0.3297 0.0
H23 H 0.10279 0.4813 0.15138 0.0
O24 O 0.02048 0.69243 0.20536 0.0
H25 H 0.09674 0.70208 0.04935 0.0
H26 H 0.98358 0.76132 0.11232 0.0
H27 H 0.02679 0.80571 0.07832 0.0
H28 H 0.08382 0.77608 0.0465 0.0
H29 H 0.05299 0.65889 0.08389 0.0
H30 H 0.88973 0.71799 0.0364 0.0
H31 H 0.83554 0.74238 0.07398 0.0
O32 O 0.98296 0.71533 0.16286 0.0
C33 C 0.95382 0.61742 0.1827 0.0
C34 C 0.86818 0.72644 0.11805 0.0
C35 C 0.8934 0.71578 0.06289 0.0
N36 N 0.93356 0.69651 0.10968 0.0
C37 C 0.90384 0.70973 0.13052 0.0
C38 C 0.92864 0.6992 0.07625 0.0
C39 C 0.86302 0.72948 0.08399 0.0
C40 C 0.09026 0.58322 0.15335 0.0
N41 N 0.06359 0.58599 0.17905 0.0
C42 C 0.10477 0.54559 0.14301 0.0
C43 C 0.09183 0.51066 0.15916 0.0
C44 C 0.06468 0.51375 0.18538 0.0
C45 C 0.05076 0.55188 0.19502 0.0
C46 C 0.10038 0.60611 0.28004 0.0
C47 C 0.0251 0.63453 0.26114 0.0
C48 C 0.09154 0.61383 0.24692 0.0
N49 N 0.0542 0.62765 0.23784 0.0
C50 C 0.03287 0.6272 0.29449 0.0
C51 C 0.07078 0.61285 0.30394 0.0
C52 C 0.99767 0.71889 0.19183 0.0
C53 C 0.07193 0.71534 0.06305 0.0
C54 C 0.00842 0.74826 0.09864 0.0
C55 C 0.03272 0.77351 0.07936 0.0
C56 C 0.0647 0.75686 0.06149 0.0
N57 N 0.01569 0.70756 0.10002 0.0
C58 C 0.04697 0.69101 0.08256 0.0
Co59 Co 0.35175 0.54166 0.6913 0.0
Co60 Co 0.32271 0.48037 0.62619 0.0
O61 O 0.34365 0.53083 0.64447 0.0
C62 C 0.29672 0.60559 0.66805 0.0
O63 O 0.27809 0.57753 0.65097 0.0
C64 C 0.40256 0.49065 0.59563 0.0
O65 O 0.41604 0.49813 0.62547 0.0
O66 O 0.35909 0.44738 0.65455 0.0
O67 O 0.37599 0.48676 0.69781 0.0
H68 H 0.2684 0.33834 0.62999 0.0
H69 H 0.38269 0.59932 0.64122 0.0
O70 O 0.32726 0.59669 0.68577 0.0
H71 H 0.50271 0.55437 0.70345 0.0
H72 H 0.38934 0.62864 0.78853 0.0
H73 H 0.34041 0.4946 0.75294 0.0
H74 H 0.43478 0.52933 0.71818 0.0
H75 H 0.37966 0.61355 0.72941 0.0
O76 O 0.36532 0.48251 0.59111 0.0
H77 H 0.29416 0.4021 0.65359 0.0
H78 H 0.30832 0.4515 0.55754 0.0
H79 H 0.34999 0.50827 0.81231 0.0
H80 H 0.45 0.62539 0.6258 0.0
H81 H 0.37461 0.57571 0.83042 0.0
H82 H 0.51061 0.60277 0.65694 0.0
O83 O 0.2973 0.51992 0.70241 0.0
H84 H 0.28796 0.59338 0.54806 0.0
H85 H 0.23441 0.47791 0.61168 0.0
H86 H 0.18788 0.51922 0.57804 0.0
H87 H 0.21463 0.57741 0.54591 0.0
H88 H 0.33335 0.55149 0.58223 0.0
H89 H 0.28302 0.38819 0.5328 0.0
H90 H 0.26269 0.3311 0.56913 0.0
O91 O 0.28043 0.47716 0.66131 0.0
C92 C 0.37671 0.45325 0.68214 0.0
C93 C 0.277 0.36305 0.6139 0.0
C94 C 0.28527 0.391 0.55935 0.0
N95 N 0.30235 0.43059 0.60703 0.0
C96 C 0.29147 0.39926 0.62715 0.0
C97 C 0.29964 0.42675 0.57351 0.0
C98 C 0.27385 0.35899 0.57975 0.0
C99 C 0.40888 0.58965 0.65508 0.0
N100 N 0.40482 0.56294 0.68063 0.0
C101 C 0.44693 0.60439 0.64616 0.0
C102 C 0.48094 0.59164 0.66361 0.0
C103 C 0.47653 0.56446 0.68969 0.0
C104 C 0.43801 0.5503 0.69788 0.0
C105 C 0.37868 0.59911 0.78094 0.0
C106 C 0.3514 0.52392 0.76064 0.0
C107 C 0.37307 0.59042 0.74751 0.0
N108 N 0.35981 0.55312 0.73776 0.0
C109 C 0.35664 0.53153 0.79428 0.0
C110 C 0.37042 0.56939 0.80443 0.0
C111 C 0.2738 0.49404 0.68913 0.0
C112 C 0.27597 0.56802 0.56186 0.0
C113 C 0.24626 0.50323 0.59781 0.0
C114 C 0.21978 0.52646 0.57876 0.0
C115 C 0.23482 0.55909 0.56071 0.0
N116 N 0.28659 0.51216 0.59878 0.0
C117 C 0.30156 0.54408 0.58113 0.0
Co118 Co 0.45337 0.85085 0.19062 0.0
Co119 Co 0.52135 0.82634 0.12928 0.0
O120 O 0.46802 0.84338 0.14445 0.0
C121 C 0.39198 0.79332 0.16672 0.0
O122 O 0.42183 0.77082 0.15572 0.0
C123 C 0.50674 0.90318 0.09522 0.0
O124 O 0.49698 0.91757 0.12436 0.0
O125 O 0.54836 0.86776 0.15707 0.0
O126 O 0.50729 0.87506 0.2009 0.0
H127 H 0.66744 0.7874 0.142 0.0
H128 H 0.39944 0.88268 0.13821 0.0
O129 O 0.39918 0.82672 0.18125 0.0
H130 H 0.43938 0.00175 0.20387 0.0
H131 H 0.35789 0.88685 0.28292 0.0
H132 H 0.49453 0.83781 0.25477 0.0
H133 H 0.46369 0.93359 0.21887 0.0
H134 H 0.3783 0.87824 0.22473 0.0
O135 O 0.51757 0.86634 0.09225 0.0
H136 H 0.59981 0.80806 0.16149 0.0
H137 H 0.55652 0.81024 0.06284 0.0
H138 H 0.47551 0.8463 0.31327 0.0
H139 H 0.37416 0.95025 0.1225 0.0
H140 H 0.40674 0.87099 0.32765 0.0
H141 H 0.39427 0.0104 0.15537 0.0
O142 O 0.47476 0.79636 0.2021 0.0
H143 H 0.41766 0.77542 0.04881 0.0
H144 H 0.53382 0.7379 0.11872 0.0
H145 H 0.49974 0.68537 0.08564 0.0
H146 H 0.44127 0.70405 0.05031 0.0
H147 H 0.45241 0.82692 0.08249 0.0
H148 H 0.62378 0.78993 0.04223 0.0
H149 H 0.67976 0.7782 0.08196 0.0
O150 O 0.52611 0.78658 0.16633 0.0
C151 C 0.54052 0.88156 0.18576 0.0
C152 C 0.64325 0.79224 0.12446 0.0
C153 C 0.61876 0.79371 0.06845 0.0
N154 N 0.57416 0.80987 0.11336 0.0
C155 C 0.60486 0.80378 0.13536 0.0
C156 C 0.58077 0.80526 0.08026 0.0
C157 C 0.65015 0.78713 0.09076 0.0
C158 C 0.40796 0.90865 0.15285 0.0
N159 N 0.43284 0.90416 0.17952 0.0
C160 C 0.39371 0.94686 0.14375 0.0
C161 C 0.40505 0.9806 0.16217 0.0
C162 C 0.43039 0.97577 0.18937 0.0
C163 C 0.44412 0.93711 0.1977 0.0
C164 C 0.38797 0.87617 0.27697 0.0
C165 C 0.46465 0.84883 0.26084 0.0
C166 C 0.39968 0.87117 0.24408 0.0
N167 N 0.4377 0.85792 0.23639 0.0
C168 C 0.45401 0.85346 0.294 0.0
C169 C 0.4154 0.86727 0.30205 0.0
C170 C 0.50545 0.7767 0.19172 0.0
C171 C 0.44318 0.76693 0.06402 0.0
C172 C 0.50832 0.74624 0.10347 0.0
C173 C 0.48921 0.71638 0.08474 0.0
C174 C 0.45641 0.72688 0.06492 0.0
N175 N 0.49524 0.78547 0.10238 0.0
C176 C 0.46307 0.79599 0.08305 0.0
Co177 Co 0.13948 0.95362 0.69523 0.0
Co178 Co 0.1662 0.01624 0.63022 0.0
O179 O 0.14605 0.96517 0.64819 0.0
C180 C 0.19379 0.88979 0.67045 0.0
O181 O 0.21177 0.91776 0.65276 0.0
C182 C 0.08617 0.00586 0.59955 0.0
O183 O 0.0722 0.99718 0.62906 0.0
O184 O 0.12959 0.04829 0.65942 0.0
O185 O 0.11555 0.00813 0.70276 0.0
H186 H 0.21977 0.15829 0.63647 0.0
H187 H 0.1072 0.89619 0.64564 0.0
O188 O 0.16384 0.89872 0.68883 0.0
H189 H 0.98885 0.94106 0.71015 0.0
H190 H 0.10441 0.86531 0.79243 0.0
H191 H 0.15279 -0.0003 0.75708 0.0
H192 H 0.05711 0.96616 0.72355 0.0
H193 H 0.11246 0.88125 0.73327 0.0
O194 O 0.1233 0.01475 0.5956 0.0
H195 H 0.19488 0.09352 0.65899 0.0
H196 H 0.17906 0.04761 0.56194 0.0
H197 H 0.14487 0.98518 0.81648 0.0
H198 H 0.03951 0.87011 0.63153 0.0
H199 H 0.12052 0.91756 0.83448 0.0
H200 H 0.97973 0.89267 0.66384 0.0
O201 O 0.1941 0.97538 0.70549 0.0
H202 H 0.20001 0.90473 0.55045 0.0
H203 H 0.25389 0.02063 0.61311 0.0
H204 H 0.29984 0.98047 0.57804 0.0
H205 H 0.27291 0.92206 0.54636 0.0
H206 H 0.15524 0.94546 0.58611 0.0
H207 H 0.20345 0.11199 0.53836 0.0
H208 H 0.22417 0.16782 0.57574 0.0
O209 O 0.20953 0.01845 0.66435 0.0
C210 C 0.11313 0.04176 0.68744 0.0
C211 C 0.21096 0.13414 0.61993 0.0
C212 C 0.20174 0.10818 0.56486 0.0
N213 N 0.18584 0.06673 0.61181 0.0
C214 C 0.19696 0.09737 0.63254 0.0
C215 C 0.18786 0.07183 0.57836 0.0
C216 C 0.21338 0.13949 0.58585 0.0
C217 C 0.08138 0.90581 0.66002 0.0
N218 N 0.08612 0.93245 0.68551 0.0
C219 C 0.04311 0.89108 0.65183 0.0
C220 C 0.00958 0.9038 0.66994 0.0
C221 C 0.01466 0.93097 0.69591 0.0
C222 C 0.05338 0.94512 0.70336 0.0
C223 C 0.11496 0.89492 0.78489 0.0
C224 C 0.14192 0.9703 0.76473 0.0
C225 C 0.11965 0.90409 0.75144 0.0
N226 N 0.13276 0.94148 0.74175 0.0
C227 C 0.13762 0.96221 0.79839 0.0
C228 C 0.12399 0.92425 0.80848 0.0
C229 C 0.21735 0.0012 0.69179 0.0
C230 C 0.21209 0.93015 0.56409 0.0
C231 C 0.24201 0.99513 0.59958 0.0
C232 C 0.26814 0.97259 0.57965 0.0
C233 C 0.253 0.93985 0.56185 0.0
N234 N 0.20193 0.9854 0.60168 0.0
C235 C 0.18685 0.95342 0.58422 0.0
Co236 Co 0.95307 0.36033 0.80579 0.0
Co237 Co 0.0119 0.32657 0.87088 0.0
O238 O 0.96276 0.3503 0.8526 0.0
C239 C 0.88931 0.30414 0.82722 0.0
O240 O 0.91718 0.28551 0.84452 0.0
C241 C 0.00528 0.40711 0.90146 0.0
O242 O 0.99726 0.42111 0.87186 0.0
O243 O 0.04685 0.3607 0.84197 0.0
O244 O 0.00762 0.38528 0.80112 0.0
H245 H 0.14951 0.26218 0.86592 0.0
H246 H 0.89369 0.38832 0.85576 0.0
O247 O 0.89826 0.33495 0.80975 0.0
H248 H 0.93913 0.5118 0.79824 0.0
H249 H 0.86806 0.40161 0.70841 0.0
H250 H 0.00187 0.35288 0.74462 0.0
H251 H 0.96533 0.4448 0.78188 0.0
H252 H 0.88181 0.38915 0.76741 0.0
O253 O 0.01271 0.36962 0.90564 0.0
H254 H 0.08713 0.2917 0.84279 0.0
H255 H 0.0413 0.31182 0.93939 0.0
H256 H 0.98954 0.36522 0.6854 0.0
H257 H 0.86649 0.45467 0.87277 0.0
H258 H 0.92222 0.38977 0.66697 0.0
H259 H 0.88934 0.51701 0.844 0.0
O260 O 0.97597 0.30666 0.79307 0.0
H261 H 0.89709 0.3 0.94933 0.0
H262 H 0.00986 0.2386 0.88726 0.0
H263 H 0.96607 0.19522 0.92161 0.0
H264 H 0.90921 0.22592 0.95296 0.0
H265 H 0.94142 0.34219 0.91447 0.0
H266 H 0.10332 0.28278 0.96359 0.0
H267 H 0.15789 0.25759 0.92674 0.0
O268 O 0.01171 0.28358 0.83643 0.0
C269 C 0.04143 0.38193 0.816 0.0
C270 C 0.12591 0.27298 0.88223 0.0
C271 C 0.10001 0.28459 0.93704 0.0
N272 N 0.06054 0.30328 0.88971 0.0
C273 C 0.09048 0.28964 0.86927 0.0
C274 C 0.06501 0.3011 0.9232 0.0
C275 C 0.13061 0.27044 0.91636 0.0
C276 C 0.90346 0.41528 0.8429 0.0
N277 N 0.93089 0.41268 0.81774 0.0
C278 C 0.88809 0.45277 0.85273 0.0
C279 C 0.90096 0.48775 0.83661 0.0
C280 C 0.92892 0.48485 0.81094 0.0
C281 C 0.94369 0.44684 0.80182 0.0
C282 C 0.89754 0.39099 0.71614 0.0
C283 C 0.97259 0.3638 0.7368 0.0
C284 C 0.90547 0.3838 0.74949 0.0
N285 N 0.94269 0.37058 0.75944 0.0
C286 C 0.96574 0.37062 0.70323 0.0
C287 C 0.92795 0.38435 0.6929 0.0
C288 C -0.00211 0.27998 0.80719 0.0
C289 C 0.92183 0.28628 0.93586 0.0
C290 C 0.98513 0.25216 0.90077 0.0
C291 C 0.96049 0.22746 0.92023 0.0
C292 C 0.92861 0.24471 0.93784 0.0
N293 N 0.97829 0.2929 0.89895 0.0
C294 C 0.94714 0.31005 0.91619 0.0
Co295 Co 0.64457 0.4556 0.30738 0.0
Co296 Co 0.67333 0.51618 0.373 0.0
O297 O 0.65276 0.46579 0.3543 0.0
C298 C 0.70006 0.39172 0.32995 0.0
O299 O 0.71864 0.41972 0.34714 0.0
C300 C 0.59379 0.50468 0.40379 0.0
O301 O 0.58021 0.49746 0.37393 0.0
O302 O 0.63639 0.54919 0.34518 0.0
O303 O 0.61993 0.51044 0.30145 0.0
H304 H 0.72613 0.6588 0.3703 0.0
H305 H 0.61415 0.39704 0.35698 0.0
O306 O 0.66942 0.40064 0.31236 0.0
H307 H 0.49367 0.442 0.29534 0.0
H308 H 0.60729 0.36979 0.20938 0.0
H309 H 0.65538 0.50363 0.24618 0.0
H310 H 0.56138 0.46772 0.28074 0.0
H311 H 0.61705 0.38407 0.26863 0.0
O312 O 0.63097 0.5131 0.40824 0.0
H313 H 0.70086 0.59512 0.3462 0.0
H314 H 0.68792 0.5442 0.44186 0.0
H315 H 0.64572 0.49077 0.1867 0.0
H316 H 0.54706 0.37027 0.37225 0.0
H317 H 0.62151 0.42343 0.16798 0.0
H318 H 0.48622 0.39289 0.34141 0.0
O319 O 0.69885 0.47784 0.29638 0.0
H320 H 0.7097 0.40235 0.44985 0.0
H321 H 0.76169 0.51932 0.38717 0.0
H322 H 0.80884 0.47797 0.4202 0.0
H323 H 0.78288 0.41903 0.45186 0.0
H324 H 0.66368 0.4443 0.41628 0.0
H325 H 0.71273 0.60743 0.46708 0.0
H326 H 0.73219 0.66524 0.4312 0.0
O327 O 0.71537 0.52033 0.33774 0.0
C328 C 0.61879 0.54365 0.31753 0.0
C329 C 0.71791 0.63377 0.3862 0.0
C330 C 0.71032 0.60496 0.44051 0.0
N331 N 0.69332 0.56587 0.39254 0.0
C332 C 0.70373 0.5976 0.37266 0.0
C333 C 0.69623 0.56927 0.42609 0.0
C334 C 0.72125 0.63738 0.42037 0.0
C335 C 0.58785 0.40672 0.34324 0.0
N336 N 0.59167 0.43382 0.31794 0.0
C337 C 0.54993 0.39159 0.35209 0.0
C338 C 0.5158 0.40434 0.3348 0.0
C339 C 0.51996 0.43191 0.30897 0.0
C340 C 0.55835 0.44645 0.30086 0.0
C341 C 0.61777 0.39927 0.21724 0.0
C342 C 0.64458 0.47435 0.23821 0.0
C343 C 0.62342 0.40751 0.25074 0.0
N344 N 0.63644 0.44475 0.26083 0.0
C345 C 0.63928 0.4672 0.20451 0.0
C346 C 0.62574 0.42939 0.19402 0.0
C347 C 0.72213 0.5038 0.3098 0.0
C348 C 0.72135 0.42804 0.43625 0.0
C349 C 0.75019 0.49367 0.40083 0.0
C350 C 0.77701 0.47042 0.41954 0.0
C351 C 0.76242 0.43737 0.43732 0.0
N352 N 0.70995 0.48434 0.39993 0.0
C353 C 0.69541 0.45202 0.41733 0.0
Co354 Co 0.54325 0.14467 0.80223 0.0
Co355 Co 0.47974 0.1668 0.86747 0.0
O356 O 0.53189 0.14989 0.84937 0.0
C357 C 0.60638 0.1993 0.82713 0.0
O358 O 0.57816 0.21713 0.84467 0.0
C359 C 0.49583 0.08851 0.89933 0.0
O360 O 0.50427 0.07461 0.86975 0.0
O361 O 0.4506 0.12673 0.83984 0.0
O362 O 0.48872 0.12056 0.79417 0.0
H363 H 0.33332 0.20712 0.86229 0.0
H364 H 0.60117 0.11101 0.85078 0.0
O365 O 0.59789 0.16908 0.80894 0.0
H366 H 0.55676 0.99451 0.78398 0.0
H367 H 0.63117 0.11321 0.704 0.0
H368 H 0.497 0.16038 0.74088 0.0
H369 H 0.53105 0.06311 0.7722 0.0
H370 H 0.61546 0.11905 0.76337 0.0
O371 O 0.48541 0.12534 0.90314 0.0
H372 H 0.3994 0.1868 0.83931 0.0
H373 H 0.44916 0.18055 0.93579 0.0
H374 H 0.51129 0.15465 0.68126 0.0
H375 H 0.6279 0.04296 0.86326 0.0
H376 H 0.5788 0.13092 0.6625 0.0
H377 H 0.60557 0.98411 0.82979 0.0
O378 O 0.52131 0.19958 0.79353 0.0
H379 H 0.58832 0.21294 0.94555 0.0
H380 H 0.46919 0.25497 0.88085 0.0
H381 H 0.50578 0.3056 0.91409 0.0
H382 H 0.56577 0.28466 0.94679 0.0
H383 H 0.55109 0.16338 0.9117 0.0
H384 H 0.38353 0.20049 0.95986 0.0
H385 H 0.32509 0.21409 0.92298 0.0
O386 O 0.4728 0.2083 0.83192 0.0
C387 C 0.45654 0.11368 0.81063 0.0
C388 C 0.35861 0.20146 0.8786 0.0
C389 C 0.38677 0.19769 0.93336 0.0
N390 N 0.4282 0.18299 0.88616 0.0
C391 C 0.39613 0.19011 0.86572 0.0
C392 C 0.42384 0.18636 0.9196 0.0
C393 C 0.354 0.20532 0.91266 0.0
C394 C 0.59165 0.0856 0.83591 0.0
N395 N 0.56477 0.09105 0.8107 0.0
C396 C 0.60674 0.04712 0.84317 0.0
C397 C 0.59415 0.01411 0.82442 0.0
C398 C 0.56674 0.01991 0.79872 0.0
C399 C 0.55223 0.05882 0.79221 0.0
C400 C 0.6016 0.12348 0.71187 0.0
C401 C 0.52635 0.14975 0.73288 0.0
C402 C 0.59256 0.1269 0.74544 0.0
N403 N 0.55522 0.13965 0.75555 0.0
C404 C 0.53431 0.14669 0.69911 0.0
C405 C 0.5722 0.13341 0.6886 0.0
C406 C 0.49177 0.21914 0.80593 0.0
C407 C 0.56215 0.2224 0.93149 0.0
C408 C 0.49537 0.24565 0.8949 0.0
C409 C 0.51589 0.27443 0.91376 0.0
C410 C 0.54952 0.26266 0.93212 0.0
N411 N 0.50793 0.20623 0.89442 0.0
C412 C 0.54084 0.19444 0.9124 0.0
Co413 Co 0.85537 0.04235 0.30546 0.0
Co414 Co 0.82557 0.98024 0.36991 0.0
O415 O 0.84683 0.03105 0.35231 0.0
C416 C 0.80058 0.10665 0.32871 0.0
O417 O 0.78178 0.07886 0.34603 0.0
C418 C 0.90472 0.98998 0.4019 0.0
O419 O 0.91926 0.99834 0.37252 0.0
O420 O 0.86275 0.94766 0.3416 0.0
O421 O 0.87926 0.98765 0.29874 0.0
H422 H 0.77072 0.83873 0.36284 0.0
H423 H 0.88603 0.09977 0.35574 0.0
O424 O 0.83111 0.09744 0.31106 0.0
H425 H 0.00658 0.05393 0.29447 0.0
H426 H 0.8947 0.13 0.20895 0.0
H427 H 0.84421 0.99605 0.24343 0.0
H428 H 0.93872 0.02921 0.27933 0.0
H429 H 0.88431 0.11438 0.26792 0.0
O430 O 0.86744 0.98143 0.40543 0.0
H431 H 0.79698 0.90316 0.3407 0.0
H432 H 0.81022 0.94926 0.43795 0.0
H433 H 0.85447 0.01026 0.18422 0.0
H434 H 0.9533 0.12546 0.37157 0.0
H435 H 0.87989 0.07766 0.16666 0.0
H436 H 0.01417 0.10241 0.34089 0.0
O437 O 0.80106 0.02088 0.29385 0.0
H438 H 0.79031 0.09229 0.44875 0.0
H439 H 0.73728 0.97693 0.38494 0.0
H440 H 0.6906 0.01769 0.41889 0.0
H441 H 0.71709 0.07583 0.45114 0.0
H442 H 0.83582 0.05097 0.41419 0.0
H443 H 0.78442 0.88522 0.46116 0.0
H444 H 0.7643 0.82947 0.42348 0.0
O445 O 0.78335 0.97837 0.33479 0.0
C446 C 0.88058 0.95399 0.31411 0.0
C447 C 0.77926 0.86285 0.3795 0.0
C448 C 0.787 0.88892 0.43469 0.0
N449 N 0.8048 0.93002 0.388 0.0
C450 C 0.79403 0.89943 0.36711 0.0
C451 C 0.80167 0.92508 0.42141 0.0
C452 C 0.77571 0.85766 0.41353 0.0
C453 C 0.91234 0.08994 0.34206 0.0
N454 N 0.90844 0.06324 0.31652 0.0
C455 C 0.95037 0.10445 0.35123 0.0
C456 C 0.98451 0.09145 0.33404 0.0
C457 C 0.98028 0.06423 0.30799 0.0
C458 C 0.94178 0.0503 0.29956 0.0
C459 C 0.8837 0.10049 0.2163 0.0
C460 C 0.85554 0.02535 0.23599 0.0
C461 C 0.87769 0.0915 0.24964 0.0
N462 N 0.86399 0.05423 0.2591 0.0
C463 C 0.86117 0.03327 0.20242 0.0
C464 C 0.87539 0.0711 0.19258 0.0
C465 C 0.77692 0.99549 0.30703 0.0
C466 C 0.77841 0.06699 0.43486 0.0
C467 C 0.74898 0.0023 0.39875 0.0
C468 C 0.72244 0.02519 0.41803 0.0
C469 C 0.73733 0.05778 0.43615 0.0
N470 N 0.78923 0.01154 0.39758 0.0
C471 C 0.80407 0.04338 0.41535 0.0
H472 H 0.02096 0.38857 0.96604 0.0
H473 H 0.97357 0.61207 0.03187 0.0
H474 H 0.98602 0.48776 0.90265 0.0
H475 H 0.0082 0.5126 0.09507 0.0
H476 H 0.97792 0.56704 0.98422 0.0
H477 H 0.01672 0.43373 0.01355 0.0
C478 C 0.0125 0.41989 0.96208 0.0
C479 C 0.00389 0.43443 0.93028 0.0
C480 C 0.9845 0.55504 0.00851 0.0
C481 C -0.00115 0.48628 0.98466 0.0
C482 C 0.98198 0.58073 0.03575 0.0
C483 C 0.99045 0.56606 0.06753 0.0
C484 C 0.99562 0.51439 0.01305 0.0
C485 C 0.00127 0.5252 0.07105 0.0
C486 C 0.01004 0.44565 0.98925 0.0
C487 C 0.99303 0.47527 0.92669 0.0
N488 N 0.00357 0.50081 0.04413 0.0
N489 N 0.99079 0.49976 0.95356 0.0
H490 H 0.3855 0.47504 0.53076 0.0
H491 H 0.61099 0.51978 0.46871 0.0
H492 H 0.48299 0.51017 0.59557 0.0
H493 H 0.51346 0.48474 0.40392 0.0
H494 H 0.56459 0.51619 0.51552 0.0
H495 H 0.432 0.47828 0.48401 0.0
C496 C 0.4167 0.4834 0.53518 0.0
C497 C 0.4304 0.49227 0.56715 0.0
C498 C 0.55332 0.5093 0.49107 0.0
C499 C 0.48378 0.49607 0.51369 0.0
C500 C 0.57981 0.51135 0.46431 0.0
C501 C 0.56605 0.50265 0.43233 0.0
C502 C 0.51278 0.49845 0.48584 0.0
C503 C 0.52535 0.49184 0.42813 0.0
C504 C 0.44324 0.48524 0.50845 0.0
C505 C 0.47113 0.50296 0.57137 0.0
N506 N 0.50015 0.49006 0.45459 0.0
N507 N 0.49638 0.50457 0.54493 0.0
H508 H 0.52674 0.88445 0.03134 0.0
H509 H 0.4777 0.10674 0.96348 0.0
H510 H 0.48337 0.98251 0.09237 0.0
H511 H 0.51868 0.00873 0.90131 0.0
H512 H 0.48042 0.06159 0.01102 0.0
H513 H 0.52451 0.92939 0.98342 0.0
C514 C 0.51673 0.91542 0.03468 0.0
C515 C 0.5053 0.92978 0.06594 0.0
C516 C 0.48882 0.04991 0.987 0.0
C517 C 0.50272 0.98132 0.01121 0.0
C518 C 0.48731 0.0757 0.95981 0.0
C519 C 0.4979 0.06146 0.92832 0.0
C520 C 0.50105 0.00953 0.98277 0.0
C521 C 0.51014 0.02097 0.92511 0.0
C522 C 0.51549 0.94105 0.0073 0.0
C523 C 0.49257 0.97015 0.06878 0.0
N524 N 0.51136 0.99639 0.95201 0.0
N525 N 0.49166 0.99449 0.04177 0.0
H526 H 0.88481 0.97291 0.46599 0.0
H527 H 0.10535 0.02341 0.53551 0.0
H528 H 0.9847 0.01118 0.40471 0.0
H529 H 0.00612 0.98429 0.59714 0.0
H530 H 0.06134 0.01938 0.48744 0.0
H531 H 0.92861 0.97698 0.51431 0.0
C532 C 0.91599 0.9821 0.46266 0.0
C533 C 0.93115 0.99166 0.43122 0.0
C534 C 0.04913 0.01172 0.51146 0.0
C535 C 0.9814 0.99647 0.48652 0.0
C536 C 0.07425 0.01403 0.53897 0.0
C537 C 0.05937 0.00422 0.57045 0.0
C538 C 0.00879 -0.00054 0.51535 0.0
C539 C 0.01883 0.99224 0.57337 0.0
C540 C 0.94096 0.98444 0.4903 0.0
C541 C 0.97176 0.00342 0.42845 0.0
N542 N 0.99494 0.99017 0.54613 0.0
N543 N 0.99546 0.00552 0.45576 0.0
H544 H 0.17462 0.65108 0.18166 0.0
H545 H 0.32331 0.83876 0.17085 0.0
H546 H 0.13384 0.77074 0.15453 0.0
H547 H 0.36476 0.71608 0.15643 0.0
H548 H 0.25349 0.81463 0.1696 0.0
H549 H 0.24469 0.67446 0.17746 0.0
C550 C 0.18041 0.68226 0.17485 0.0
C551 C 0.1484 0.7091 0.1686 0.0
C552 C 0.27786 0.79305 0.16647 0.0
C553 C 0.22826 0.73594 0.16393 0.0
C554 C 0.31769 0.80675 0.16729 0.0
C555 C 0.34982 0.77931 0.16384 0.0
C556 C 0.27012 0.75155 0.16278 0.0
C557 C 0.34083 0.73822 0.15912 0.0
C558 C 0.22035 0.69547 0.17227 0.0
C559 C 0.15761 0.74907 0.1596 0.0
N560 N 0.30175 0.72548 0.15909 0.0
N561 N 0.19672 0.76139 0.15783 0.0
H562 H 0.25898 0.64463 0.61723 0.0
H563 H 0.19137 0.83464 0.72027 0.0
H564 H 0.30072 0.66161 0.71717 0.0
H565 H 0.23009 0.84991 0.61926 0.0
H566 H 0.21731 0.76508 0.71922 0.0
H567 H 0.2343 0.71493 0.61694 0.0
C568 C 0.26279 0.66314 0.63908 0.0
C569 C 0.28187 0.64756 0.66727 0.0
C570 C 0.22004 0.78376 0.69735 0.0
C571 C 0.25322 0.7269 0.66725 0.0
C572 C 0.20516 0.82322 0.69784 0.0
C573 C 0.20882 0.84788 0.66982 0.0
C574 C 0.2376 0.76862 0.66836 0.0
C575 C 0.22702 0.8318 0.64141 0.0
C576 C 0.24895 0.70308 0.63881 0.0
C577 C 0.28633 0.67267 0.69492 0.0
N578 N 0.24043 0.79287 0.64125 0.0
N579 N 0.27163 0.71105 0.69438 0.0
H580 H 0.66075 0.19777 0.77679 0.0
H581 H 0.8507 0.26661 0.87824 0.0
H582 H 0.64614 0.23655 0.87783 0.0
H583 H 0.83291 0.30847 0.77836 0.0
H584 H 0.78054 0.24204 0.87902 0.0
H585 H 0.72978 0.2248 0.77712 0.0
C586 C 0.67221 0.21181 0.79907 0.0
C587 C 0.64792 0.2151 0.82733 0.0
C588 C 0.79215 0.25671 0.85705 0.0
C589 C 0.72656 0.24517 0.82795 0.0
C590 C 0.83203 0.27047 0.85649 0.0
C591 C 0.84737 0.28949 0.82817 0.0
C592 C 0.76812 0.261 0.82877 0.0
C593 C 0.82203 0.29406 0.80069 0.0
C594 C 0.71135 0.22734 0.79915 0.0
C595 C 0.664 0.23371 0.85552 0.0
N596 N 0.78369 0.27941 0.8015 0.0
N597 N 0.70265 0.24771 0.85528 0.0
H598 H 0.73711 0.35248 0.38097 0.0
H599 H 0.80478 0.16173 0.2789 0.0
H600 H 0.69651 0.33585 0.28068 0.0
H601 H 0.76348 0.14693 0.37927 0.0
H602 H 0.77958 0.23161 0.27953 0.0
H603 H 0.76129 0.28201 0.38145 0.0
C604 C 0.73348 0.33401 0.35907 0.0
C605 C 0.71483 0.34973 0.33074 0.0
C606 C 0.77612 0.21295 0.30135 0.0
C607 C 0.74292 0.27019 0.33098 0.0
C608 C 0.79058 0.17332 0.30109 0.0
C609 C 0.78597 0.14871 0.32905 0.0
C610 C 0.75807 0.22829 0.33007 0.0
C611 C 0.76727 0.165 0.35717 0.0
C612 C 0.74702 0.29397 0.35944 0.0
C613 C 0.71058 0.32467 0.30303 0.0
N614 N 0.75432 0.20408 0.35712 0.0
N615 N 0.72499 0.28618 0.30369 0.0
H616 H 0.77353 0.45854 0.27169 0.0
H617 H 0.87627 0.64473 0.18468 0.0
H618 H 0.75027 0.58061 0.30436 0.0
H619 H 0.95176 0.54522 0.21584 0.0
H620 H 0.81959 0.61493 0.21521 0.0
H621 H 0.83077 0.48389 0.23849 0.0
C622 C 0.78056 0.49056 0.27189 0.0
C623 C 0.75755 0.51758 0.29092 0.0
C624 C 0.84853 0.59954 0.21499 0.0
C625 C 0.82128 0.54649 0.25256 0.0
C626 C 0.8807 0.61628 0.19747 0.0
C627 C 0.91867 0.59741 0.19792 0.0
C628 C 0.85416 0.5632 0.23226 0.0
C629 C 0.92294 0.56075 0.21514 0.0
C630 C 0.81303 0.50487 0.25309 0.0
C631 C 0.76761 0.55879 0.29036 0.0
N632 N 0.8909 0.5446 0.23158 0.0
N633 N 0.79846 0.57211 0.27113 0.0
H634 H 0.35517 0.37391 0.67861 0.0
H635 H 0.53671 0.27701 0.77453 0.0
H636 H 0.44375 0.45364 0.72192 0.0
H637 H 0.41387 0.2424 0.79666 0.0
H638 H 0.51076 0.33552 0.74319 0.0
H639 H 0.38477 0.31724 0.70915 0.0
C640 C 0.38118 0.3794 0.69416 0.0
C641 C 0.39696 0.41851 0.6979 0.0
C642 C 0.48973 0.31504 0.75508 0.0
C643 C 0.43109 0.35391 0.73228 0.0
C644 C 0.50436 0.28182 0.77279 0.0
C645 C 0.47727 0.25518 0.78823 0.0
C646 C 0.44786 0.32053 0.752 0.0
C647 C 0.43567 0.26252 0.78533 0.0
C648 C 0.3978 0.34716 0.71166 0.0
C649 C 0.43059 0.42395 0.71858 0.0
N650 N 0.42216 0.29426 0.76714 0.0
N651 N 0.44683 0.39184 0.73492 0.0
H652 H 0.54232 0.90391 0.25084 0.0
H653 H 0.76004 0.00766 0.24147 0.0
H654 H 0.61149 0.91162 0.16049 0.0
H655 H 0.70937 0.95755 0.33092 0.0
H656 H 0.70011 0.98491 0.21129 0.0
H657 H 0.59783 0.93647 0.28021 0.0
C658 C 0.56897 0.91276 0.23706 0.0
C659 C 0.57236 0.90462 0.20314 0.0
C660 C 0.70213 0.97918 0.23757 0.0
C661 C 0.63591 0.94206 0.23673 0.0
C662 C 0.7362 0.99225 0.25485 0.0
C663 C 0.73985 0.98434 0.2888 0.0
C664 C 0.67129 0.95859 0.25444 0.0
C665 C 0.70803 0.96414 0.30478 0.0
C666 C 0.6007 0.93121 0.25392 0.0
C667 C 0.60768 0.91697 0.18667 0.0
N668 N 0.67509 0.95198 0.28746 0.0
N669 N 0.63816 0.935 0.20366 0.0
H670 H 0.9963 0.26867 0.74006 0.0
H671 H 0.08214 0.043 0.75008 0.0
H672 H 0.02583 0.20792 0.83135 0.0
H673 H 0.09357 0.11685 0.66246 0.0
H674 H 0.04969 0.09943 0.77819 0.0
H675 H 0.02039 0.20932 0.7095 0.0
C676 C 0.00741 0.24274 0.7537 0.0
C677 C 0.0092 0.24334 0.78835 0.0
C678 C 0.05917 0.10323 0.75278 0.0
C679 C 0.03656 0.17553 0.75355 0.0
C680 C 0.07765 0.07097 0.7366 0.0
C681 C 0.091 0.07519 0.70384 0.0
C682 C 0.05356 0.14002 0.73611 0.0
C683 C 0.08405 0.11227 0.68777 0.0
C684 C 0.02133 0.20903 0.73622 0.0
C685 C 0.02409 0.20895 0.80469 0.0
N686 N 0.06584 0.14332 0.7041 0.0
N687 N 0.03716 0.17648 0.78715 0.0
H688 H 0.11899 0.3546 0.81471 0.0
H689 H 0.22256 0.53996 0.72689 0.0
H690 H 0.04392 0.45415 0.78292 0.0
H691 H 0.24547 0.41742 0.69522 0.0
H692 H 0.16525 0.51515 0.76032 0.0
H693 H 0.17598 0.38424 0.78446 0.0
C694 C 0.11472 0.38303 0.80185 0.0
C695 C 0.07677 0.40194 0.80111 0.0
C696 C 0.18295 0.49395 0.74589 0.0
C697 C 0.14162 0.43595 0.76709 0.0
C698 C 0.21544 0.50795 0.72696 0.0
C699 C 0.23834 0.48064 0.70812 0.0
C700 C 0.17458 0.45236 0.74674 0.0
C701 C 0.22819 0.43947 0.70903 0.0
C702 C 0.14706 0.39969 0.7845 0.0
C703 C 0.07272 0.43858 0.78383 0.0
N704 N 0.19732 0.42646 0.72838 0.0
N705 N 0.10491 0.45462 0.76753 0.0
H706 H 0.63722 0.62353 0.32434 0.0
H707 H 0.45941 0.71782 0.22087 0.0
H708 H 0.5536 0.54302 0.27568 0.0
H709 H 0.58273 0.75661 0.20665 0.0
H710 H 0.4843 0.6599 0.25358 0.0
H711 H 0.60735 0.68053 0.29445 0.0
C712 C 0.61221 0.61789 0.30776 0.0
C713 C 0.59803 0.57846 0.30227 0.0
C714 C 0.50567 0.68124 0.2432 0.0
C715 C 0.56352 0.64348 0.26864 0.0
C716 C 0.49162 0.71412 0.22474 0.0
C717 C 0.51921 0.74163 0.21101 0.0
C718 C 0.54731 0.677 0.24875 0.0
C719 C 0.56061 0.73574 0.21659 0.0
C720 C 0.59541 0.65036 0.29066 0.0
C721 C 0.56559 0.57293 0.28037 0.0
N722 N 0.57344 0.70428 0.2354 0.0
N723 N 0.5492 0.60522 0.26437 0.0
H724 H 0.38696 0.08353 0.83834 0.0
H725 H 0.28329 0.0398 0.66589 0.0
H726 H 0.45075 0.09252 0.74547 0.0
H727 H 0.23726 0.98941 0.75687 0.0
H728 H 0.34359 0.06215 0.69511 0.0
H729 H 0.33049 0.05134 0.80957 0.0
C730 C 0.38927 0.0785 0.81198 0.0
C731 C 0.42359 0.09105 0.79428 0.0
C732 C 0.32047 0.04587 0.70862 0.0
C733 C 0.35896 0.05463 0.76129 0.0
C734 C 0.28592 0.03318 0.69197 0.0
C735 C 0.25507 0.0127 0.70893 0.0
C736 C 0.32399 0.03871 0.74264 0.0
C737 C 0.2603 0.00501 0.74278 0.0
C738 C 0.35706 0.06003 0.79562 0.0
C739 C 0.42491 0.08355 0.76017 0.0
N740 N 0.29394 0.01842 0.75863 0.0
N741 N 0.39287 0.06625 0.74475 0.0
H742 H 0.97346 0.79197 0.16754 0.0
H743 H 0.89742 0.87838 0.33943 0.0
H744 H 0.99609 0.72906 0.25912 0.0
H745 H 0.91524 0.95269 0.2528 0.0
H746 H 0.93115 0.82224 0.31096 0.0
H747 H 0.94953 0.85027 0.19868 0.0
C748 C 0.97365 0.7905 0.19424 0.0
C749 C 0.98668 0.75552 0.21074 0.0
C750 C 0.92793 0.85101 0.29841 0.0
C751 C 0.9588 0.82218 0.24664 0.0
C752 C 0.90858 0.88303 0.31457 0.0
C753 C 0.90316 0.92032 0.29845 0.0
C754 C 0.94143 0.8562 0.2658 0.0
C755 C 0.91845 0.92455 0.26625 0.0
C756 C 0.96007 0.82389 0.21203 0.0
C757 C 0.98642 0.75549 0.24543 0.0
N758 N 0.93649 0.89281 0.25094 0.0
N759 N 0.9722 0.78818 0.26228 0.0
loop_
_geom_bond_atom_site_label_1
_geom_bond_atom_site_label_2
_geom_bond_distance
_geom_bond_site_symmetry_2
_ccdc_geom_bond_type
Co0 O2 2.143 . S
Co0 O8 2.074 1_455 S
Co0 O11 2.093 . S
Co0 O24 2.097 . S
Co0 N41 2.151 . S
Co0 N49 2.214 . S
Co1 O2 2.160 1_655 S
Co1 O7 2.058 . S
Co1 O17 2.057 . S
Co1 O32 2.037 . S
Co1 N36 2.145 . S
Co1 N57 2.257 . S
O2 Co0 2.143 . S
O2 Co1 2.160 1_455 S
C3 O4 1.278 . S
C3 O11 1.224 . S
O4 C3 1.278 . S
C5 O6 1.245 . S
C5 O17 1.232 1_455 S
O6 C5 1.245 . S
O7 Co1 2.058 . S
O7 C33 1.269 . S
O8 Co0 2.074 1_655 S
O8 C33 1.257 . S
H9 C34 0.930 . S
H10 C40 0.930 . S
O11 Co0 2.093 . S
O11 C3 1.224 . S
H12 C44 0.929 . S
H13 C46 0.930 . S
H14 C47 0.930 1_655 S
H15 C45 0.929 . S
H16 C48 0.928 . S
O17 Co1 2.057 . S
O17 C5 1.232 1_655 S
H18 C37 0.929 . S
H19 C38 0.929 . S
H20 C50 0.931 1_655 S
H21 C42 0.929 . S
H22 C51 0.930 . S
H23 C43 0.931 . S
O24 Co0 2.097 . S
O24 C52 1.214 1_455 S
H25 C53 0.929 . S
H26 C54 0.929 . S
H27 C55 0.930 . S
H28 C56 0.929 . S
H29 C58 0.930 . S
H30 C35 0.930 . S
H31 C39 0.930 . S
O32 Co1 2.037 . S
O32 C52 1.234 . S
C33 O7 1.269 . S
C33 O8 1.257 . S
C34 H9 0.930 . S
C34 C37 1.388 . S
C34 C39 1.418 . S
C35 H30 0.930 . S
C35 C38 1.404 . S
C35 C39 1.353 . S
N36 Co1 2.145 . S
N36 C37 1.397 . S
N36 C38 1.334 . S
C37 H18 0.929 . S
C37 C34 1.388 . S
C37 N36 1.397 . S
C38 H19 0.929 . S
C38 C35 1.404 . S
C38 N36 1.334 . S
C39 H31 0.930 . S
C39 C34 1.418 . S
C39 C35 1.353 . S
C40 H10 0.930 . S
C40 N41 1.330 . S
C40 C42 1.446 . S
N41 Co0 2.151 . S
N41 C40 1.330 . S
N41 C45 1.418 . S
C42 H21 0.929 . S
C42 C40 1.446 . S
C42 C43 1.332 . S
C43 H23 0.931 . S
C43 C42 1.332 . S
C43 C44 1.267 . S
C44 H12 0.929 . S
C44 C43 1.267 . S
C44 C45 1.251 . S
C45 H15 0.929 . S
C45 N41 1.418 . S
C45 C44 1.251 . S
C46 H13 0.930 . S
C46 C48 1.406 . S
C46 C51 1.261 . S
C47 H14 0.930 1_455 S
C47 N49 1.325 . S
C47 C50 1.357 . S
C48 H16 0.928 . S
C48 C46 1.406 . S
C48 N49 1.261 . S
N49 Co0 2.214 . S
N49 C47 1.325 . S
N49 C48 1.261 . S
C50 H20 0.931 1_455 S
C50 C47 1.357 . S
C50 C51 1.312 . S
C51 H22 0.930 . S
C51 C46 1.261 . S
C51 C50 1.312 . S
C52 O24 1.214 1_655 S
C52 O32 1.234 . S
C53 H25 0.929 . S
C53 C56 1.391 . S
C53 C58 1.391 . S
C54 H26 0.929 . S
C54 C55 1.390 . S
C54 N57 1.391 . S
C55 H27 0.930 . S
C55 C54 1.390 . S
C55 C56 1.392 1_655 S
C56 H28 0.929 . S
C56 C53 1.391 . S
C56 C55 1.392 1_455 S
N57 Co1 2.257 . S
N57 C54 1.391 . S
N57 C58 1.388 1_655 S
C58 H29 0.930 . S
C58 C53 1.391 . S
C58 N57 1.388 1_455 S
Co59 O61 2.143 . S
Co59 O67 2.074 . S
Co59 O70 2.093 . S
Co59 O83 2.097 . S
Co59 N100 2.151 . S
Co59 N108 2.214 . S
Co60 O61 2.160 . S
Co60 O66 2.058 . S
Co60 O76 2.057 . S
Co60 O91 2.037 . S
Co60 N95 2.145 . S
Co60 N116 2.257 . S
O61 Co59 2.143 . S
O61 Co60 2.160 . S
C62 O63 1.278 . S
C62 O70 1.224 . S
O63 C62 1.278 . S
C64 O65 1.245 . S
C64 O76 1.232 . S
O65 C64 1.245 . S
O66 Co60 2.058 . S
O66 C92 1.269 . S
O67 Co59 2.074 . S
O67 C92 1.257 . S
H68 C93 0.930 . S
H69 C99 0.930 . S
O70 Co59 2.093 . S
O70 C62 1.224 . S
H71 C103 0.929 . S
H72 C105 0.930 . S
H73 C106 0.930 . S
H74 C104 0.929 . S
H75 C107 0.928 . S
O76 Co60 2.057 . S
O76 C64 1.232 . S
H77 C96 0.929 . S
H78 C97 0.929 . S
H79 C109 0.931 . S
H80 C101 0.929 . S
H81 C110 0.930 . S
H82 C102 0.931 . S
O83 Co59 2.097 . S
O83 C111 1.214 . S
H84 C112 0.929 . S
H85 C113 0.929 . S
H86 C114 0.930 . S
H87 C115 0.929 . S
H88 C117 0.930 . S
H89 C94 0.930 . S
H90 C98 0.930 . S
O91 Co60 2.037 . S
O91 C111 1.234 . S
C92 O66 1.269 . S
C92 O67 1.257 . S
C93 H68 0.930 . S
C93 C96 1.388 . S
C93 C98 1.418 . S
C94 H89 0.930 . S
C94 C97 1.404 . S
C94 C98 1.353 . S
N95 Co60 2.145 . S
N95 C96 1.397 . S
N95 C97 1.334 . S
C96 H77 0.929 . S
C96 C93 1.388 . S
C96 N95 1.397 . S
C97 H78 0.929 . S
C97 C94 1.404 . S
C97 N95 1.334 . S
C98 H90 0.930 . S
C98 C93 1.418 . S
C98 C94 1.353 . S
C99 H69 0.930 . S
C99 N100 1.330 . S
C99 C101 1.446 . S
N100 Co59 2.151 . S
N100 C99 1.330 . S
N100 C104 1.418 . S
C101 H80 0.929 . S
C101 C99 1.446 . S
C101 C102 1.332 . S
C102 H82 0.931 . S
C102 C101 1.332 . S
C102 C103 1.267 . S
C103 H71 0.929 . S
C103 C102 1.267 . S
C103 C104 1.251 . S
C104 H74 0.929 . S
C104 N100 1.418 . S
C104 C103 1.251 . S
C105 H72 0.930 . S
C105 C107 1.406 . S
C105 C110 1.261 . S
C106 H73 0.930 . S
C106 N108 1.325 . S
C106 C109 1.357 . S
C107 H75 0.928 . S
C107 C105 1.406 . S
C107 N108 1.261 . S
N108 Co59 2.214 . S
N108 C106 1.325 . S
N108 C107 1.261 . S
C109 H79 0.931 . S
C109 C106 1.357 . S
C109 C110 1.312 . S
C110 H81 0.930 . S
C110 C105 1.261 . S
C110 C109 1.312 . S
C111 O83 1.214 . S
C111 O91 1.234 . S
C112 H84 0.929 . S
C112 C115 1.391 . S
C112 C117 1.391 . S
C113 H85 0.929 . S
C113 C114 1.390 . S
C113 N116 1.391 . S
C114 H86 0.930 . S
C114 C113 1.390 . S
C114 C115 1.392 . S
C115 H87 0.929 . S
C115 C112 1.391 . S
C115 C114 1.392 . S
N116 Co60 2.257 . S
N116 C113 1.391 . S
N116 C117 1.388 . S
C117 H88 0.930 . S
C117 C112 1.391 . S
C117 N116 1.388 . S
Co118 O120 2.143 . S
Co118 O126 2.074 . S
Co118 O129 2.093 . S
Co118 O142 2.097 . S
Co118 N159 2.151 . S
Co118 N167 2.214 . S
Co119 O120 2.160 . S
Co119 O125 2.058 . S
Co119 O135 2.057 . S
Co119 O150 2.037 . S
Co119 N154 2.145 . S
Co119 N175 2.257 . S
O120 Co118 2.143 . S
O120 Co119 2.160 . S
C121 O122 1.278 . S
C121 O129 1.224 . S
O122 C121 1.278 . S
C123 O124 1.245 . S
C123 O135 1.232 . S
O124 C123 1.245 . S
O125 Co119 2.058 . S
O125 C151 1.269 . S
O126 Co118 2.074 . S
O126 C151 1.257 . S
H127 C152 0.930 . S
H128 C158 0.930 . S
O129 Co118 2.093 . S
O129 C121 1.224 . S
H130 C162 0.929 . S
H131 C164 0.930 . S
H132 C165 0.930 . S
H133 C163 0.929 . S
H134 C166 0.928 . S
O135 Co119 2.057 . S
O135 C123 1.232 . S
H136 C155 0.929 . S
H137 C156 0.929 . S
H138 C168 0.931 . S
H139 C160 0.929 . S
H140 C169 0.930 . S
H141 C161 0.931 . S
O142 Co118 2.097 . S
O142 C170 1.214 . S
H143 C171 0.929 . S
H144 C172 0.929 . S
H145 C173 0.930 . S
H146 C174 0.929 . S
H147 C176 0.930 . S
H148 C153 0.930 . S
H149 C157 0.930 . S
O150 Co119 2.037 . S
O150 C170 1.234 . S
C151 O125 1.269 . S
C151 O126 1.257 . S
C152 H127 0.930 . S
C152 C155 1.388 . S
C152 C157 1.418 . S
C153 H148 0.930 . S
C153 C156 1.404 . S
C153 C157 1.353 . S
N154 Co119 2.145 . S
N154 C155 1.397 . S
N154 C156 1.334 . S
C155 H136 0.929 . S
C155 C152 1.388 . S
C155 N154 1.397 . S
C156 H137 0.929 . S
C156 C153 1.404 . S
C156 N154 1.334 . S
C157 H149 0.930 . S
C157 C152 1.418 . S
C157 C153 1.353 . S
C158 H128 0.930 . S
C158 N159 1.330 . S
C158 C160 1.446 . S
N159 Co118 2.151 . S
N159 C158 1.330 . S
N159 C163 1.418 . S
C160 H139 0.929 . S
C160 C158 1.446 . S
C160 C161 1.332 . S
C161 H141 0.931 . S
C161 C160 1.332 . S
C161 C162 1.267 . S
C162 H130 0.929 . S
C162 C161 1.267 . S
C162 C163 1.251 . S
C163 H133 0.929 . S
C163 N159 1.418 . S
C163 C162 1.251 . S
C164 H131 0.930 . S
C164 C166 1.406 . S
C164 C169 1.261 . S
C165 H132 0.930 . S
C165 N167 1.325 . S
C165 C168 1.357 . S
C166 H134 0.928 . S
C166 C164 1.406 . S
C166 N167 1.261 . S
N167 Co118 2.214 . S
N167 C165 1.325 . S
N167 C166 1.261 . S
C168 H138 0.931 . S
C168 C165 1.357 . S
C168 C169 1.312 . S
C169 H140 0.930 . S
C169 C164 1.261 . S
C169 C168 1.312 . S
C170 O142 1.214 . S
C170 O150 1.234 . S
C171 H143 0.929 . S
C171 C174 1.391 . S
C171 C176 1.391 . S
C172 H144 0.929 . S
C172 C173 1.390 . S
C172 N175 1.391 . S
C173 H145 0.930 . S
C173 C172 1.390 . S
C173 C174 1.392 . S
C174 H146 0.929 . S
C174 C171 1.391 . S
C174 C173 1.392 . S
N175 Co119 2.257 . S
N175 C172 1.391 . S
N175 C176 1.388 . S
C176 H147 0.930 . S
C176 C171 1.391 . S
C176 N175 1.388 . S
Co177 O179 2.143 . S
Co177 O185 2.074 1_565 S
Co177 O188 2.093 . S
Co177 O201 2.097 . S
Co177 N218 2.151 . S
Co177 N226 2.214 . S
Co178 O179 2.160 1_545 S
Co178 O184 2.058 . S
Co178 O194 2.057 . S
Co178 O209 2.037 . S
Co178 N213 2.145 . S
Co178 N234 2.257 . S
O179 Co177 2.143 . S
O179 Co178 2.160 1_565 S
C180 O181 1.278 . S
C180 O188 1.224 . S
O181 C180 1.278 . S
C182 O183 1.245 . S
C182 O194 1.232 1_565 S
O183 C182 1.245 . S
O184 Co178 2.058 . S
O184 C210 1.269 . S
O185 Co177 2.074 1_545 S
O185 C210 1.257 . S
H186 C211 0.930 . S
H187 C217 0.930 . S
O188 Co177 2.093 . S
O188 C180 1.224 . S
H189 C221 0.929 . S
H190 C223 0.930 . S
H191 C224 0.930 1_545 S
H192 C222 0.929 . S
H193 C225 0.928 . S
O194 Co178 2.057 . S
O194 C182 1.232 1_545 S
H195 C214 0.929 . S
H196 C215 0.929 . S
H197 C227 0.931 1_545 S
H198 C219 0.929 . S
H199 C228 0.930 . S
H200 C220 0.931 . S
O201 Co177 2.097 . S
O201 C229 1.214 1_565 S
H202 C230 0.929 . S
H203 C231 0.929 . S
H204 C232 0.930 . S
H205 C233 0.929 . S
H206 C235 0.930 . S
H207 C212 0.930 . S
H208 C216 0.930 . S
O209 Co178 2.037 . S
O209 C229 1.234 . S
C210 O184 1.269 . S
C210 O185 1.257 . S
C211 H186 0.930 . S
C211 C214 1.388 . S
C211 C216 1.418 . S
C212 H207 0.930 . S
C212 C215 1.404 . S
C212 C216 1.353 . S
N213 Co178 2.145 . S
N213 C214 1.397 . S
N213 C215 1.334 . S
C214 H195 0.929 . S
C214 C211 1.388 . S
C214 N213 1.397 . S
C215 H196 0.929 . S
C215 C212 1.404 . S
C215 N213 1.334 . S
C216 H208 0.930 . S
C216 C211 1.418 . S
C216 C212 1.353 . S
C217 H187 0.930 . S
C217 N218 1.330 . S
C217 C219 1.446 . S
N218 Co177 2.151 . S
N218 C217 1.330 . S
N218 C222 1.418 . S
C219 H198 0.929 . S
C219 C217 1.446 . S
C219 C220 1.332 . S
C220 H200 0.931 . S
C220 C219 1.332 . S
C220 C221 1.267 . S
C221 H189 0.929 . S
C221 C220 1.267 . S
C221 C222 1.251 . S
C222 H192 0.929 . S
C222 N218 1.418 . S
C222 C221 1.251 . S
C223 H190 0.930 . S
C223 C225 1.406 . S
C223 C228 1.261 . S
C224 H191 0.930 1_565 S
C224 N226 1.325 . S
C224 C227 1.357 . S
C225 H193 0.928 . S
C225 C223 1.406 . S
C225 N226 1.261 . S
N226 Co177 2.214 . S
N226 C224 1.325 . S
N226 C225 1.261 . S
C227 H197 0.931 1_565 S
C227 C224 1.357 . S
C227 C228 1.312 . S
C228 H199 0.930 . S
C228 C223 1.261 . S
C228 C227 1.312 . S
C229 O201 1.214 1_545 S
C229 O209 1.234 . S
C230 H202 0.929 . S
C230 C233 1.391 . S
C230 C235 1.391 . S
C231 H203 0.929 . S
C231 C232 1.390 . S
C231 N234 1.391 . S
C232 H204 0.930 . S
C232 C231 1.390 . S
C232 C233 1.392 1_545 S
C233 H205 0.929 . S
C233 C230 1.391 . S
C233 C232 1.392 1_565 S
N234 Co178 2.257 . S
N234 C231 1.391 . S
N234 C235 1.388 1_545 S
C235 H206 0.930 . S
C235 C230 1.391 . S
C235 N234 1.388 1_565 S
Co236 O238 2.143 . S
Co236 O244 2.074 1_655 S
Co236 O247 2.093 . S
Co236 O260 2.097 . S
Co236 N277 2.151 . S
Co236 N285 2.214 . S
Co237 O238 2.160 1_455 S
Co237 O243 2.058 . S
Co237 O253 2.057 . S
Co237 O268 2.037 . S
Co237 N272 2.145 . S
Co237 N293 2.257 . S
O238 Co236 2.143 . S
O238 Co237 2.160 1_655 S
C239 O240 1.278 . S
C239 O247 1.224 . S
O240 C239 1.278 . S
C241 O242 1.245 . S
C241 O253 1.232 1_655 S
O242 C241 1.245 . S
O243 Co237 2.058 . S
O243 C269 1.269 . S
O244 Co236 2.074 1_455 S
O244 C269 1.257 . S
H245 C270 0.930 . S
H246 C276 0.930 . S
O247 Co236 2.093 . S
O247 C239 1.224 . S
H248 C280 0.929 . S
H249 C282 0.930 . S
H250 C283 0.930 1_455 S
H251 C281 0.929 . S
H252 C284 0.928 . S
O253 Co237 2.057 . S
O253 C241 1.232 1_455 S
H254 C273 0.929 . S
H255 C274 0.929 . S
H256 C286 0.931 1_455 S
H257 C278 0.929 . S
H258 C287 0.930 . S
H259 C279 0.931 . S
O260 Co236 2.097 . S
O260 C288 1.214 1_655 S
H261 C289 0.929 . S
H262 C290 0.929 . S
H263 C291 0.930 . S
H264 C292 0.929 . S
H265 C294 0.930 . S
H266 C271 0.930 . S
H267 C275 0.930 . S
O268 Co237 2.037 . S
O268 C288 1.234 . S
C269 O243 1.269 . S
C269 O244 1.257 . S
C270 H245 0.930 . S
C270 C273 1.388 . S
C270 C275 1.418 . S
C271 H266 0.930 . S
C271 C274 1.404 . S
C271 C275 1.353 . S
N272 Co237 2.145 . S
N272 C273 1.397 . S
N272 C274 1.334 . S
C273 H254 0.929 . S
C273 C270 1.388 . S
C273 N272 1.397 . S
C274 H255 0.929 . S
C274 C271 1.404 . S
C274 N272 1.334 . S
C275 H267 0.930 . S
C275 C270 1.418 . S
C275 C271 1.353 . S
C276 H246 0.930 . S
C276 N277 1.330 . S
C276 C278 1.446 . S
N277 Co236 2.151 . S
N277 C276 1.330 . S
N277 C281 1.418 . S
C278 H257 0.929 . S
C278 C276 1.446 . S
C278 C279 1.332 . S
C279 H259 0.931 . S
C279 C278 1.332 . S
C279 C280 1.267 . S
C280 H248 0.929 . S
C280 C279 1.267 . S
C280 C281 1.251 . S
C281 H251 0.929 . S
C281 N277 1.418 . S
C281 C280 1.251 . S
C282 H249 0.930 . S
C282 C284 1.406 . S
C282 C287 1.261 . S
C283 H250 0.930 1_655 S
C283 N285 1.325 . S
C283 C286 1.357 . S
C284 H252 0.928 . S
C284 C282 1.406 . S
C284 N285 1.261 . S
N285 Co236 2.214 . S
N285 C283 1.325 . S
N285 C284 1.261 . S
C286 H256 0.931 1_655 S
C286 C283 1.357 . S
C286 C287 1.312 . S
C287 H258 0.930 . S
C287 C282 1.261 . S
C287 C286 1.312 . S
C288 O260 1.214 1_455 S
C288 O268 1.234 . S
C289 H261 0.929 . S
C289 C292 1.391 . S
C289 C294 1.391 . S
C290 H262 0.929 . S
C290 C291 1.390 . S
C290 N293 1.391 . S
C291 H263 0.930 . S
C291 C290 1.390 . S
C291 C292 1.392 1_455 S
C292 H264 0.929 . S
C292 C289 1.391 . S
C292 C291 1.392 1_655 S
N293 Co237 2.257 . S
N293 C290 1.391 . S
N293 C294 1.388 1_455 S
C294 H265 0.930 . S
C294 C289 1.391 . S
C294 N293 1.388 1_655 S
Co295 O297 2.143 . S
Co295 O303 2.074 . S
Co295 O306 2.093 . S
Co295 O319 2.097 . S
Co295 N336 2.151 . S
Co295 N344 2.214 . S
Co296 O297 2.160 . S
Co296 O302 2.058 . S
Co296 O312 2.057 . S
Co296 O327 2.037 . S
Co296 N331 2.145 . S
Co296 N352 2.257 . S
O297 Co295 2.143 . S
O297 Co296 2.160 . S
C298 O299 1.278 . S
C298 O306 1.224 . S
O299 C298 1.278 . S
C300 O301 1.245 . S
C300 O312 1.232 . S
O301 C300 1.245 . S
O302 Co296 2.058 . S
O302 C328 1.269 . S
O303 Co295 2.074 . S
O303 C328 1.257 . S
H304 C329 0.930 . S
H305 C335 0.930 . S
O306 Co295 2.093 . S
O306 C298 1.224 . S
H307 C339 0.929 . S
H308 C341 0.930 . S
H309 C342 0.930 . S
H310 C340 0.929 . S
H311 C343 0.928 . S
O312 Co296 2.057 . S
O312 C300 1.232 . S
H313 C332 0.929 . S
H314 C333 0.929 . S
H315 C345 0.931 . S
H316 C337 0.929 . S
H317 C346 0.930 . S
H318 C338 0.931 . S
O319 Co295 2.097 . S
O319 C347 1.214 . S
H320 C348 0.929 . S
H321 C349 0.929 . S
H322 C350 0.930 . S
H323 C351 0.929 . S
H324 C353 0.930 . S
H325 C330 0.930 . S
H326 C334 0.930 . S
O327 Co296 2.037 . S
O327 C347 1.234 . S
C328 O302 1.269 . S
C328 O303 1.257 . S
C329 H304 0.930 . S
C329 C332 1.388 . S
C329 C334 1.418 . S
C330 H325 0.930 . S
C330 C333 1.404 . S
C330 C334 1.353 . S
N331 Co296 2.145 . S
N331 C332 1.397 . S
N331 C333 1.334 . S
C332 H313 0.929 . S
C332 C329 1.388 . S
C332 N331 1.397 . S
C333 H314 0.929 . S
C333 C330 1.404 . S
C333 N331 1.334 . S
C334 H326 0.930 . S
C334 C329 1.418 . S
C334 C330 1.353 . S
C335 H305 0.930 . S
C335 N336 1.330 . S
C335 C337 1.446 . S
N336 Co295 2.151 . S
N336 C335 1.330 . S
N336 C340 1.418 . S
C337 H316 0.929 . S
C337 C335 1.446 . S
C337 C338 1.332 . S
C338 H318 0.931 . S
C338 C337 1.332 . S
C338 C339 1.267 . S
C339 H307 0.929 . S
C339 C338 1.267 . S
C339 C340 1.251 . S
C340 H310 0.929 . S
C340 N336 1.418 . S
C340 C339 1.251 . S
C341 H308 0.930 . S
C341 C343 1.406 . S
C341 C346 1.261 . S
C342 H309 0.930 . S
C342 N344 1.325 . S
C342 C345 1.357 . S
C343 H311 0.928 . S
C343 C341 1.406 . S
C343 N344 1.261 . S
N344 Co295 2.214 . S
N344 C342 1.325 . S
N344 C343 1.261 . S
C345 H315 0.931 . S
C345 C342 1.357 . S
C345 C346 1.312 . S
C346 H317 0.930 . S
C346 C341 1.261 . S
C346 C345 1.312 . S
C347 O319 1.214 . S
C347 O327 1.234 . S
C348 H320 0.929 . S
C348 C351 1.391 . S
C348 C353 1.391 . S
C349 H321 0.929 . S
C349 C350 1.390 . S
C349 N352 1.391 . S
C350 H322 0.930 . S
C350 C349 1.390 . S
C350 C351 1.392 . S
C351 H323 0.929 . S
C351 C348 1.391 . S
C351 C350 1.392 . S
N352 Co296 2.257 . S
N352 C349 1.391 . S
N352 C353 1.388 . S
C353 H324 0.930 . S
C353 C348 1.391 . S
C353 N352 1.388 . S
Co354 O356 2.143 . S
Co354 O362 2.074 . S
Co354 O365 2.093 . S
Co354 O378 2.097 . S
Co354 N395 2.151 . S
Co354 N403 2.214 . S
Co355 O356 2.160 . S
Co355 O361 2.058 . S
Co355 O371 2.057 . S
Co355 O386 2.037 . S
Co355 N390 2.145 . S
Co355 N411 2.257 . S
O356 Co354 2.143 . S
O356 Co355 2.160 . S
C357 O358 1.278 . S
C357 O365 1.224 . S
O358 C357 1.278 . S
C359 O360 1.245 . S
C359 O371 1.232 . S
O360 C359 1.245 . S
O361 Co355 2.058 . S
O361 C387 1.269 . S
O362 Co354 2.074 . S
O362 C387 1.257 . S
H363 C388 0.930 . S
H364 C394 0.930 . S
O365 Co354 2.093 . S
O365 C357 1.224 . S
H366 C398 0.929 . S
H367 C400 0.930 . S
H368 C401 0.930 . S
H369 C399 0.929 . S
H370 C402 0.928 . S
O371 Co355 2.057 . S
O371 C359 1.232 . S
H372 C391 0.929 . S
H373 C392 0.929 . S
H374 C404 0.931 . S
H375 C396 0.929 . S
H376 C405 0.930 . S
H377 C397 0.931 . S
O378 Co354 2.097 . S
O378 C406 1.214 . S
H379 C407 0.929 . S
H380 C408 0.929 . S
H381 C409 0.930 . S
H382 C410 0.929 . S
H383 C412 0.930 . S
H384 C389 0.930 . S
H385 C393 0.930 . S
O386 Co355 2.037 . S
O386 C406 1.234 . S
C387 O361 1.269 . S
C387 O362 1.257 . S
C388 H363 0.930 . S
C388 C391 1.388 . S
C388 C393 1.418 . S
C389 H384 0.930 . S
C389 C392 1.404 . S
C389 C393 1.353 . S
N390 Co355 2.145 . S
N390 C391 1.397 . S
N390 C392 1.334 . S
C391 H372 0.929 . S
C391 C388 1.388 . S
C391 N390 1.397 . S
C392 H373 0.929 . S
C392 C389 1.404 . S
C392 N390 1.334 . S
C393 H385 0.930 . S
C393 C388 1.418 . S
C393 C389 1.353 . S
C394 H364 0.930 . S
C394 N395 1.330 . S
C394 C396 1.446 . S
N395 Co354 2.151 . S
N395 C394 1.330 . S
N395 C399 1.418 . S
C396 H375 0.929 . S
C396 C394 1.446 . S
C396 C397 1.332 . S
C397 H377 0.931 . S
C397 C396 1.332 . S
C397 C398 1.267 . S
C398 H366 0.929 . S
C398 C397 1.267 . S
C398 C399 1.251 . S
C399 H369 0.929 . S
C399 N395 1.418 . S
C399 C398 1.251 . S
C400 H367 0.930 . S
C400 C402 1.406 . S
C400 C405 1.261 . S
C401 H368 0.930 . S
C401 N403 1.325 . S
C401 C404 1.357 . S
C402 H370 0.928 . S
C402 C400 1.406 . S
C402 N403 1.261 . S
N403 Co354 2.214 . S
N403 C401 1.325 . S
N403 C402 1.261 . S
C404 H374 0.931 . S
C404 C401 1.357 . S
C404 C405 1.312 . S
C405 H376 0.930 . S
C405 C400 1.261 . S
C405 C404 1.312 . S
C406 O378 1.214 . S
C406 O386 1.234 . S
C407 H379 0.929 . S
C407 C410 1.391 . S
C407 C412 1.391 . S
C408 H380 0.929 . S
C408 C409 1.390 . S
C408 N411 1.391 . S
C409 H381 0.930 . S
C409 C408 1.390 . S
C409 C410 1.392 . S
C410 H382 0.929 . S
C410 C407 1.391 . S
C410 C409 1.392 . S
N411 Co355 2.257 . S
N411 C408 1.391 . S
N411 C412 1.388 . S
C412 H383 0.930 . S
C412 C407 1.391 . S
C412 N411 1.388 . S
Co413 O415 2.143 . S
Co413 O421 2.074 1_545 S
Co413 O424 2.093 . S
Co413 O437 2.097 . S
Co413 N454 2.151 . S
Co413 N462 2.214 . S
Co414 O415 2.160 1_565 S
Co414 O420 2.058 . S
Co414 O430 2.057 . S
Co414 O445 2.037 . S
Co414 N449 2.145 . S
Co414 N470 2.257 . S
O415 Co413 2.143 . S
O415 Co414 2.160 1_545 S
C416 O417 1.278 . S
C416 O424 1.224 . S
O417 C416 1.278 . S
C418 O419 1.245 . S
C418 O430 1.232 1_545 S
O419 C418 1.245 . S
O420 Co414 2.058 . S
O420 C446 1.269 . S
O421 Co413 2.074 1_565 S
O421 C446 1.257 . S
H422 C447 0.930 . S
H423 C453 0.930 . S
O424 Co413 2.093 . S
O424 C416 1.224 . S
H425 C457 0.929 . S
H426 C459 0.930 . S
H427 C460 0.930 1_565 S
H428 C458 0.929 . S
H429 C461 0.928 . S
O430 Co414 2.057 . S
O430 C418 1.232 1_565 S
H431 C450 0.929 . S
H432 C451 0.929 . S
H433 C463 0.931 1_565 S
H434 C455 0.929 . S
H435 C464 0.930 . S
H436 C456 0.931 . S
O437 Co413 2.097 . S
O437 C465 1.214 1_545 S
H438 C466 0.929 . S
H439 C467 0.929 . S
H440 C468 0.930 . S
H441 C469 0.929 . S
H442 C471 0.930 . S
H443 C448 0.930 . S
H444 C452 0.930 . S
O445 Co414 2.037 . S
O445 C465 1.234 . S
C446 O420 1.269 . S
C446 O421 1.257 . S
C447 H422 0.930 . S
C447 C450 1.388 . S
C447 C452 1.418 . S
C448 H443 0.930 . S
C448 C451 1.404 . S
C448 C452 1.353 . S
N449 Co414 2.145 . S
N449 C450 1.397 . S
N449 C451 1.334 . S
C450 H431 0.929 . S
C450 C447 1.388 . S
C450 N449 1.397 . S
C451 H432 0.929 . S
C451 C448 1.404 . S
C451 N449 1.334 . S
C452 H444 0.930 . S
C452 C447 1.418 . S
C452 C448 1.353 . S
C453 H423 0.930 . S
C453 N454 1.330 . S
C453 C455 1.446 . S
N454 Co413 2.151 . S
N454 C453 1.330 . S
N454 C458 1.418 . S
C455 H434 0.929 . S
C455 C453 1.446 . S
C455 C456 1.332 . S
C456 H436 0.931 . S
C456 C455 1.332 . S
C456 C457 1.267 . S
C457 H425 0.929 . S
C457 C456 1.267 . S
C457 C458 1.251 . S
C458 H428 0.929 . S
C458 N454 1.418 . S
C458 C457 1.251 . S
C459 H426 0.930 . S
C459 C461 1.406 . S
C459 C464 1.261 . S
C460 H427 0.930 1_545 S
C460 N462 1.325 . S
C460 C463 1.357 . S
C461 H429 0.928 . S
C461 C459 1.406 . S
C461 N462 1.261 . S
N462 Co413 2.214 . S
N462 C460 1.325 . S
N462 C461 1.261 . S
C463 H433 0.931 1_545 S
C463 C460 1.357 . S
C463 C464 1.312 . S
C464 H435 0.930 . S
C464 C459 1.261 . S
C464 C463 1.312 . S
C465 O437 1.214 1_565 S
C465 O445 1.234 . S
C466 H438 0.929 . S
C466 C469 1.391 . S
C466 C471 1.391 . S
C467 H439 0.929 . S
C467 C468 1.390 . S
C467 N470 1.391 . S
C468 H440 0.930 . S
C468 C467 1.390 . S
C468 C469 1.392 1_565 S
C469 H441 0.929 . S
C469 C466 1.391 . S
C469 C468 1.392 1_545 S
N470 Co414 2.257 . S
N470 C467 1.391 . S
N470 C471 1.388 1_565 S
C471 H442 0.930 . S
C471 C466 1.391 . S
C471 N470 1.388 1_545 S
H472 C478 0.930 . S
H473 C482 0.930 . S
H474 C487 0.929 . S
H475 C485 0.929 . S
H476 C480 0.929 1_556 S
H477 C486 0.929 1_554 S
C478 H472 0.930 . S
C478 C479 1.367 1_455 S
C478 C486 1.378 . S
C479 C478 1.367 1_655 S
C479 C487 1.433 . S
C480 H476 0.929 1_554 S
C480 C482 1.378 . S
C480 C484 1.346 1_655 S
C481 C484 1.461 1_656 S
C481 C486 1.346 1_655 S
C481 N489 1.434 . S
C482 H473 0.930 . S
C482 C480 1.378 . S
C482 C483 1.367 1_655 S
C483 C482 1.367 1_455 S
C483 C485 1.433 . S
C484 C480 1.346 1_455 S
C484 C481 1.461 1_454 S
C484 N488 1.434 . S
C485 H475 0.929 . S
C485 C483 1.433 . S
C485 N488 1.384 . S
C486 H477 0.929 1_556 S
C486 C478 1.378 . S
C486 C481 1.346 1_455 S
C487 H474 0.929 . S
C487 C479 1.433 . S
C487 N489 1.384 . S
N488 C484 1.434 . S
N488 C485 1.384 . S
N489 C481 1.434 . S
N489 C487 1.384 . S
H490 C496 0.930 . S
H491 C500 0.930 . S
H492 C505 0.929 . S
H493 C503 0.929 . S
H494 C498 0.929 . S
H495 C504 0.929 . S
C496 H490 0.930 . S
C496 C497 1.367 . S
C496 C504 1.378 . S
C497 C496 1.367 . S
C497 C505 1.433 . S
C498 H494 0.929 . S
C498 C500 1.378 . S
C498 C502 1.350 . S
C499 C502 1.463 . S
C499 C504 1.350 . S
C499 N507 1.427 . S
C500 H491 0.930 . S
C500 C498 1.378 . S
C500 C501 1.367 . S
C501 C500 1.367 . S
C501 C503 1.433 . S
C502 C498 1.350 . S
C502 C499 1.463 . S
C502 N506 1.427 . S
C503 H493 0.929 . S
C503 C501 1.433 . S
C503 N506 1.384 . S
C504 H495 0.929 . S
C504 C496 1.378 . S
C504 C499 1.350 . S
C505 H492 0.929 . S
C505 C497 1.433 . S
C505 N507 1.384 . S
N506 C502 1.427 . S
N506 C503 1.384 . S
N507 C499 1.427 . S
N507 C505 1.384 . S
H508 C514 0.930 . S
H509 C518 0.930 . S
H510 C523 0.929 . S
H511 C521 0.929 . S
H512 C516 0.929 1_565 S
H513 C522 0.929 1_545 S
C514 H508 0.930 . S
C514 C515 1.367 . S
C514 C522 1.378 . S
C515 C514 1.367 . S
C515 C523 1.433 . S
C516 H512 0.929 1_545 S
C516 C518 1.378 . S
C516 C520 1.350 . S
C517 C520 1.463 1_564 S
C517 C522 1.350 . S
C517 N525 1.427 . S
C518 H509 0.930 . S
C518 C516 1.378 . S
C518 C519 1.367 . S
C519 C518 1.367 . S
C519 C521 1.433 . S
C520 C516 1.350 . S
C520 C517 1.463 1_546 S
C520 N524 1.427 . S
C521 H511 0.929 . S
C521 C519 1.433 . S
C521 N524 1.384 . S
C522 H513 0.929 1_565 S
C522 C514 1.378 . S
C522 C517 1.350 . S
C523 H510 0.929 . S
C523 C515 1.433 . S
C523 N525 1.384 . S
N524 C520 1.427 . S
N524 C521 1.384 . S
N525 C517 1.427 . S
N525 C523 1.384 . S
H526 C532 0.930 . S
H527 C536 0.930 . S
H528 C541 0.929 . S
H529 C539 0.929 . S
H530 C534 0.929 . S
H531 C540 0.929 . S
C532 H526 0.930 . S
C532 C533 1.367 1_565 S
C532 C540 1.378 . S
C533 C532 1.367 1_545 S
C533 C541 1.433 . S
C534 H530 0.929 . S
C534 C536 1.378 . S
C534 C538 1.348 1_545 S
C535 C538 1.462 1_645 S
C535 C540 1.348 1_545 S
C535 N543 1.429 . S
C536 H527 0.930 . S
C536 C534 1.378 . S
C536 C537 1.367 1_545 S
C537 C536 1.367 1_565 S
C537 C539 1.433 . S
C538 C534 1.348 1_565 S
C538 C535 1.462 1_465 S
C538 N542 1.429 . S
C539 H529 0.929 . S
C539 C537 1.433 . S
C539 N542 1.384 . S
C540 H531 0.929 . S
C540 C532 1.378 . S
C540 C535 1.348 1_565 S
C541 H528 0.929 . S
C541 C533 1.433 . S
C541 N543 1.384 . S
N542 C538 1.429 . S
N542 C539 1.384 . S
N543 C535 1.429 . S
N543 C541 1.384 . S
H544 C550 0.930 . S
H545 C554 0.930 . S
H546 C559 0.929 . S
H547 C557 0.929 . S
H548 C552 0.929 . S
H549 C558 0.929 . S
C550 H544 0.930 . S
C550 C551 1.367 . S
C550 C558 1.378 . S
C551 C550 1.367 . S
C551 C559 1.433 . S
C552 H548 0.929 . S
C552 C554 1.378 . S
C552 C556 1.350 . S
C553 C556 1.463 . S
C553 C558 1.350 . S
C553 N561 1.427 . S
C554 H545 0.930 . S
C554 C552 1.378 . S
C554 C555 1.367 . S
C555 C554 1.367 . S
C555 C557 1.433 . S
C556 C552 1.350 . S
C556 C553 1.463 . S
C556 N560 1.427 . S
C557 H547 0.929 . S
C557 C555 1.433 . S
C557 N560 1.384 . S
C558 H549 0.929 . S
C558 C550 1.378 . S
C558 C553 1.350 . S
C559 H546 0.929 . S
C559 C551 1.433 . S
C559 N561 1.384 . S
N560 C556 1.427 . S
N560 C557 1.384 . S
N561 C553 1.427 . S
N561 C559 1.384 . S
H562 C568 0.930 . S
H563 C572 0.930 . S
H564 C577 0.929 . S
H565 C575 0.929 . S
H566 C570 0.929 . S
H567 C576 0.929 . S
C568 H562 0.930 . S
C568 C569 1.367 . S
C568 C576 1.378 . S
C569 C568 1.367 . S
C569 C577 1.433 . S
C570 H566 0.929 . S
C570 C572 1.378 . S
C570 C574 1.350 . S
C571 C574 1.463 . S
C571 C576 1.350 . S
C571 N579 1.427 . S
C572 H563 0.930 . S
C572 C570 1.378 . S
C572 C573 1.367 . S
C573 C572 1.367 . S
C573 C575 1.433 . S
C574 C570 1.350 . S
C574 C571 1.463 . S
C574 N578 1.427 . S
C575 H565 0.929 . S
C575 C573 1.433 . S
C575 N578 1.384 . S
C576 H567 0.929 . S
C576 C568 1.378 . S
C576 C571 1.350 . S
C577 H564 0.929 . S
C577 C569 1.433 . S
C577 N579 1.384 . S
N578 C574 1.427 . S
N578 C575 1.384 . S
N579 C571 1.427 . S
N579 C577 1.384 . S
H580 C586 0.930 . S
H581 C590 0.930 . S
H582 C595 0.929 . S
H583 C593 0.929 . S
H584 C588 0.929 . S
H585 C594 0.929 . S
C586 H580 0.930 . S
C586 C587 1.367 . S
C586 C594 1.378 . S
C587 C586 1.367 . S
C587 C595 1.433 . S
C588 H584 0.929 . S
C588 C590 1.378 . S
C588 C592 1.350 . S
C589 C592 1.463 . S
C589 C594 1.350 . S
C589 N597 1.427 . S
C590 H581 0.930 . S
C590 C588 1.378 . S
C590 C591 1.367 . S
C591 C590 1.367 . S
C591 C593 1.433 . S
C592 C588 1.350 . S
C592 C589 1.463 . S
C592 N596 1.427 . S
C593 H583 0.929 . S
C593 C591 1.433 . S
C593 N596 1.384 . S
C594 H585 0.929 . S
C594 C586 1.378 . S
C594 C589 1.350 . S
C595 H582 0.929 . S
C595 C587 1.433 . S
C595 N597 1.384 . S
N596 C592 1.427 . S
N596 C593 1.384 . S
N597 C589 1.427 . S
N597 C595 1.384 . S
H598 C604 0.930 . S
H599 C608 0.930 . S
H600 C613 0.929 . S
H601 C611 0.929 . S
H602 C606 0.929 . S
H603 C612 0.929 . S
C604 H598 0.930 . S
C604 C605 1.367 . S
C604 C612 1.378 . S
C605 C604 1.367 . S
C605 C613 1.433 . S
C606 H602 0.929 . S
C606 C608 1.378 . S
C606 C610 1.350 . S
C607 C610 1.463 . S
C607 C612 1.350 . S
C607 N615 1.427 . S
C608 H599 0.930 . S
C608 C606 1.378 . S
C608 C609 1.367 . S
C609 C608 1.367 . S
C609 C611 1.433 . S
C610 C606 1.350 . S
C610 C607 1.463 . S
C610 N614 1.427 . S
C611 H601 0.929 . S
C611 C609 1.433 . S
C611 N614 1.384 . S
C612 H603 0.929 . S
C612 C604 1.378 . S
C612 C607 1.350 . S
C613 H600 0.929 . S
C613 C605 1.433 . S
C613 N615 1.384 . S
N614 C610 1.427 . S
N614 C611 1.384 . S
N615 C607 1.427 . S
N615 C613 1.384 . S
H616 C622 0.930 . S
H617 C626 0.930 . S
H618 C631 0.929 . S
H619 C629 0.929 . S
H620 C624 0.929 . S
H621 C630 0.929 . S
C622 H616 0.930 . S
C622 C623 1.367 . S
C622 C630 1.378 . S
C623 C622 1.367 . S
C623 C631 1.433 . S
C624 H620 0.929 . S
C624 C626 1.378 . S
C624 C628 1.350 . S
C625 C628 1.463 . S
C625 C630 1.350 . S
C625 N633 1.427 . S
C626 H617 0.930 . S
C626 C624 1.378 . S
C626 C627 1.367 . S
C627 C626 1.367 . S
C627 C629 1.433 . S
C628 C624 1.350 . S
C628 C625 1.463 . S
C628 N632 1.427 . S
C629 H619 0.929 . S
C629 C627 1.433 . S
C629 N632 1.384 . S
C630 H621 0.929 . S
C630 C622 1.378 . S
C630 C625 1.350 . S
C631 H618 0.929 . S
C631 C623 1.433 . S
C631 N633 1.384 . S
N632 C628 1.427 . S
N632 C629 1.384 . S
N633 C625 1.427 . S
N633 C631 1.384 . S
H634 C640 0.930 . S
H635 C644 0.930 . S
H636 C649 0.929 . S
H637 C647 0.929 . S
H638 C642 0.929 . S
H639 C648 0.929 . S
C640 H634 0.930 . S
C640 C641 1.367 . S
C640 C648 1.378 . S
C641 C640 1.367 . S
C641 C649 1.433 . S
C642 H638 0.929 . S
C642 C644 1.378 . S
C642 C646 1.350 . S
C643 C646 1.463 . S
C643 C648 1.350 . S
C643 N651 1.427 . S
C644 H635 0.930 . S
C644 C642 1.378 . S
C644 C645 1.367 . S
C645 C644 1.367 . S
C645 C647 1.433 . S
C646 C642 1.350 . S
C646 C643 1.463 . S
C646 N650 1.427 . S
C647 H637 0.929 . S
C647 C645 1.433 . S
C647 N650 1.384 . S
C648 H639 0.929 . S
C648 C640 1.378 . S
C648 C643 1.350 . S
C649 H636 0.929 . S
C649 C641 1.433 . S
C649 N651 1.384 . S
N650 C646 1.427 . S
N650 C647 1.384 . S
N651 C643 1.427 . S
N651 C649 1.384 . S
H652 C658 0.930 . S
H653 C662 0.930 . S
H654 C667 0.929 . S
H655 C665 0.929 . S
H656 C660 0.929 . S
H657 C666 0.929 . S
C658 H652 0.930 . S
C658 C659 1.367 . S
C658 C666 1.378 . S
C659 C658 1.367 . S
C659 C667 1.433 . S
C660 H656 0.929 . S
C660 C662 1.378 . S
C660 C664 1.350 . S
C661 C664 1.463 . S
C661 C666 1.350 . S
C661 N669 1.427 . S
C662 H653 0.930 . S
C662 C660 1.378 . S
C662 C663 1.367 . S
C663 C662 1.367 . S
C663 C665 1.433 . S
C664 C660 1.350 . S
C664 C661 1.463 . S
C664 N668 1.427 . S
C665 H655 0.929 . S
C665 C663 1.433 . S
C665 N668 1.384 . S
C666 H657 0.929 . S
C666 C658 1.378 . S
C666 C661 1.350 . S
C667 H654 0.929 . S
C667 C659 1.433 . S
C667 N669 1.384 . S
N668 C664 1.427 . S
N668 C665 1.384 . S
N669 C661 1.427 . S
N669 C667 1.384 . S
H670 C676 0.930 . S
H671 C680 0.930 . S
H672 C685 0.929 . S
H673 C683 0.929 . S
H674 C678 0.929 . S
H675 C684 0.929 . S
C676 H670 0.930 . S
C676 C677 1.367 . S
C676 C684 1.378 . S
C677 C676 1.367 . S
C677 C685 1.433 . S
C678 H674 0.929 . S
C678 C680 1.378 . S
C678 C682 1.350 . S
C679 C682 1.463 . S
C679 C684 1.350 . S
C679 N687 1.427 . S
C680 H671 0.930 . S
C680 C678 1.378 . S
C680 C681 1.367 . S
C681 C680 1.367 . S
C681 C683 1.433 . S
C682 C678 1.350 . S
C682 C679 1.463 . S
C682 N686 1.427 . S
C683 H673 0.929 . S
C683 C681 1.433 . S
C683 N686 1.384 . S
C684 H675 0.929 . S
C684 C676 1.378 . S
C684 C679 1.350 . S
C685 H672 0.929 . S
C685 C677 1.433 . S
C685 N687 1.384 . S
N686 C682 1.427 . S
N686 C683 1.384 . S
N687 C679 1.427 . S
N687 C685 1.384 . S
H688 C694 0.930 . S
H689 C698 0.930 . S
H690 C703 0.929 . S
H691 C701 0.929 . S
H692 C696 0.929 . S
H693 C702 0.929 . S
C694 H688 0.930 . S
C694 C695 1.367 . S
C694 C702 1.378 . S
C695 C694 1.367 . S
C695 C703 1.433 . S
C696 H692 0.929 . S
C696 C698 1.378 . S
C696 C700 1.350 . S
C697 C700 1.463 . S
C697 C702 1.350 . S
C697 N705 1.427 . S
C698 H689 0.930 . S
C698 C696 1.378 . S
C698 C699 1.367 . S
C699 C698 1.367 . S
C699 C701 1.433 . S
C700 C696 1.350 . S
C700 C697 1.463 . S
C700 N704 1.427 . S
C701 H691 0.929 . S
C701 C699 1.433 . S
C701 N704 1.384 . S
C702 H693 0.929 . S
C702 C694 1.378 . S
C702 C697 1.350 . S
C703 H690 0.929 . S
C703 C695 1.433 . S
C703 N705 1.384 . S
N704 C700 1.427 . S
N704 C701 1.384 . S
N705 C697 1.427 . S
N705 C703 1.384 . S
H706 C712 0.930 . S
H707 C716 0.930 . S
H708 C721 0.929 . S
H709 C719 0.929 . S
H710 C714 0.929 . S
H711 C720 0.929 . S
C712 H706 0.930 . S
C712 C713 1.367 . S
C712 C720 1.378 . S
C713 C712 1.367 . S
C713 C721 1.433 . S
C714 H710 0.929 . S
C714 C716 1.378 . S
C714 C718 1.350 . S
C715 C718 1.463 . S
C715 C720 1.350 . S
C715 N723 1.427 . S
C716 H707 0.930 . S
C716 C714 1.378 . S
C716 C717 1.367 . S
C717 C716 1.367 . S
C717 C719 1.433 . S
C718 C714 1.350 . S
C718 C715 1.463 . S
C718 N722 1.427 . S
C719 H709 0.929 . S
C719 C717 1.433 . S
C719 N722 1.384 . S
C720 H711 0.929 . S
C720 C712 1.378 . S
C720 C715 1.350 . S
C721 H708 0.929 . S
C721 C713 1.433 . S
C721 N723 1.384 . S
N722 C718 1.427 . S
N722 C719 1.384 . S
N723 C715 1.427 . S
N723 C721 1.384 . S
H724 C730 0.930 . S
H725 C734 0.930 . S
H726 C739 0.929 . S
H727 C737 0.929 . S
H728 C732 0.929 . S
H729 C738 0.929 . S
C730 H724 0.930 . S
C730 C731 1.367 . S
C730 C738 1.378 . S
C731 C730 1.367 . S
C731 C739 1.433 . S
C732 H728 0.929 . S
C732 C734 1.378 . S
C732 C736 1.350 . S
C733 C736 1.463 . S
C733 C738 1.350 . S
C733 N741 1.427 . S
C734 H725 0.930 . S
C734 C732 1.378 . S
C734 C735 1.367 . S
C735 C734 1.367 . S
C735 C737 1.433 . S
C736 C732 1.350 . S
C736 C733 1.463 . S
C736 N740 1.427 . S
C737 H727 0.929 . S
C737 C735 1.433 . S
C737 N740 1.384 . S
C738 H729 0.929 . S
C738 C730 1.378 . S
C738 C733 1.350 . S
C739 H726 0.929 . S
C739 C731 1.433 . S
C739 N741 1.384 . S
N740 C736 1.427 . S
N740 C737 1.384 . S
N741 C733 1.427 . S
N741 C739 1.384 . S
H742 C748 0.930 . S
H743 C752 0.930 . S
H744 C757 0.929 1_455 S
H745 C755 0.929 . S
H746 C750 0.929 . S
H747 C756 0.929 . S
C748 H742 0.930 . S
C748 C749 1.367 . S
C748 C756 1.378 . S
C749 C748 1.367 . S
C749 C757 1.433 . S
C750 H746 0.929 . S
C750 C752 1.378 . S
C750 C754 1.350 . S
C751 C754 1.463 . S
C751 C756 1.350 . S
C751 N759 1.427 . S
C752 H743 0.930 . S
C752 C750 1.378 . S
C752 C753 1.367 . S
C753 C752 1.367 . S
C753 C755 1.433 . S
C754 C750 1.350 . S
C754 C751 1.463 . S
C754 N758 1.427 . S
C755 H745 0.929 . S
C755 C753 1.433 . S
C755 N758 1.384 . S
C756 H747 0.929 . S
C756 C748 1.378 . S
C756 C751 1.350 . S
C757 H744 0.929 1_655 S
C757 C749 1.433 . S
C757 N759 1.384 . S
N758 C754 1.427 . S
N758 C755 1.384 . S
N759 C751 1.427 . S
N759 C757 1.384 . S
C479 C241 1.528 . S
C483 C5 1.528 . S
C497 C64 1.526 . S
C501 C300 1.526 . S
C515 C123 1.522 . S
C519 C359 1.522 . S
C533 C418 1.526 . S
C537 C182 1.526 . S
C551 C3 1.437 . S
C555 C121 1.439 . S
C569 C62 1.434 . S
C573 C180 1.432 . S
C587 C357 1.433 . S
C591 C239 1.436 . S
C605 C298 1.437 . S
C609 C416 1.434 . S
C623 C347 1.266 . S
C627 C33 1.258 . S
C641 C92 1.258 . S
C645 C406 1.266 . S
C659 C151 1.264 . S
C663 C465 1.265 . S
C677 C288 1.265 . S
C681 C210 1.264 . S
C695 C269 1.258 . S
C699 C111 1.267 . S
C713 C328 1.258 . S
C717 C170 1.267 . S
C731 C387 1.262 . S
C735 C229 1.269 . S
C749 C52 1.270 . S
C753 C446 1.263 . S
