# Generated by pormake.
# Topology xfu, (5)-cn, num edge types: 1
# Building blocks:
#     Node 0, Type 0, BuildingBlock: BEQFEK_clean_sbu_0, # of connection points: 5
#     Node 1, Type 0, BuildingBlock: BEQFEK_clean_sbu_0, # of connection points: 5
#     Node 2, Type 0, BuildingBlock: BEQFEK_clean_sbu_0, # of connection points: 5
#     Node 3, Type 0, BuildingBlock: BEQFEK_clean_sbu_0, # of connection points: 5
#     Node 4, Type 0, BuildingBlock: BEQFEK_clean_sbu_0, # of connection points: 5
#     Node 5, Type 0, BuildingBlock: BEQFEK_clean_sbu_0, # of connection points: 5
#     Node 6, Type 0, BuildingBlock: BEQFEK_clean_sbu_0, # of connection points: 5
#     Node 7, Type 0, BuildingBlock: BEQFEK_clean_sbu_0, # of connection points: 5
#     Edge 8, Type (0, 0), BuildingBlock: ZUJKAS_clean_linker_0, # of connection points: 2
#     Edge 9, Type (0, 0), BuildingBlock: ZUJKAS_clean_linker_0, # of connection points: 2
#     Edge 10, Type (0, 0), BuildingBlock: ZUJKAS_clean_linker_0, # of connection points: 2
#     Edge 11, Type (0, 0), BuildingBlock: ZUJKAS_clean_linker_0, # of connection points: 2
#     Edge 12, Type (0, 0), BuildingBlock: ZUJKAS_clean_linker_0, # of connection points: 2
#     Edge 13, Type (0, 0), BuildingBlock: ZUJKAS_clean_linker_0, # of connection points: 2
#     Edge 14, Type (0, 0), BuildingBlock: ZUJKAS_clean_linker_0, # of connection points: 2
#     Edge 15, Type (0, 0), BuildingBlock: ZUJKAS_clean_linker_0, # of connection points: 2
#     Edge 16, Type (0, 0), BuildingBlock: ZUJKAS_clean_linker_0, # of connection points: 2
#     Edge 17, Type (0, 0), BuildingBlock: ZUJKAS_clean_linker_0, # of connection points: 2
#     Edge 18, Type (0, 0), BuildingBlock: ZUJKAS_clean_linker_0, # of connection points: 2
#     Edge 19, Type (0, 0), BuildingBlock: ZUJKAS_clean_linker_0, # of connection points: 2
#     Edge 20, Type (0, 0), BuildingBlock: ZUJKAS_clean_linker_0, # of connection points: 2
#     Edge 21, Type (0, 0), BuildingBlock: ZUJKAS_clean_linker_0, # of connection points: 2
#     Edge 22, Type (0, 0), BuildingBlock: ZUJKAS_clean_linker_0, # of connection points: 2
#     Edge 23, Type (0, 0), BuildingBlock: ZUJKAS_clean_linker_0, # of connection points: 2
#     Edge 24, Type (0, 0), BuildingBlock: ZUJKAS_clean_linker_0, # of connection points: 2
#     Edge 25, Type (0, 0), BuildingBlock: ZUJKAS_clean_linker_0, # of connection points: 2
#     Edge 26, Type (0, 0), BuildingBlock: ZUJKAS_clean_linker_0, # of connection points: 2
#     Edge 27, Type (0, 0), BuildingBlock: ZUJKAS_clean_linker_0, # of connection points: 2
# Relax obj value: 0.269
# Max RMSD: 0.175
# Mean RMSD: 0.175
data_MOF--net-xfu--node1-BEQFEK_clean_sbu_0--edge1-ZUJKAS_clean_linker_0
_symmetry_space_group_name_H-M    P1
_symmetry_Int_Tables_number       1
_symmetry_cell_setting            triclinic
loop_
_symmetry_equiv_pos_as_xyz
'x, y, z'
_cell_length_a     38.334291
_cell_length_b     38.362752
_cell_length_c     69.155078
_cell_angle_alpha  90.049691
_cell_angle_beta   89.970079
_cell_angle_gamma 90.032293
loop_
_atom_site_label
_atom_site_type_symbol
_atom_site_fract_x
_atom_site_fract_y
_atom_site_fract_z
_atom_type_partial_charge
Co0 Co 0.05431 0.25327 0.65614 0.0
Co1 Co 0.05293 0.18324 0.6329 0.0
C2 C 0.11278 0.23314 0.62983 0.0
O3 O 0.09828 0.25367 0.6418 0.0
O4 O 0.09824 0.2047 0.62476 0.0
C5 C 0.06464 0.32595 0.66295 0.0
O6 O 0.07951 0.32485 0.64584 0.0
C7 C 0.04971 0.14105 0.59804 0.0
C8 C 0.03053 0.09041 0.60895 0.0
C9 C 0.0403 0.10772 0.5922 0.0
N10 N 0.04572 0.14321 0.61728 0.0
N11 N 0.03454 0.11281 0.62377 0.0
C12 C 0.05939 0.17149 0.58561 0.0
H13 H 0.0536 0.19632 0.59321 0.0
H14 H 0.04509 0.17061 0.57167 0.0
H15 H 0.0878 0.17061 0.58258 0.0
C16 C 0.98709 0.2629 0.63625 0.0
N17 N 0.0165 0.24477 0.63946 0.0
N18 N 0.01511 0.21504 0.62998 0.0
C19 C 0.98425 0.21305 0.62066 0.0
C20 C 0.96558 0.2434 0.62427 0.0
C21 C 0.97985 0.29805 0.64475 0.0
H22 H 0.00224 0.31555 0.64182 0.0
H23 H 0.95594 0.30994 0.63861 0.0
H24 H 0.97707 0.2956 0.66067 0.0
O25 O 0.05713 0.21719 0.67638 0.0
O26 O 0.05588 0.16721 0.66017 0.0
H27 H 0.94254 0.18181 0.60844 0.0
H28 H 0.98389 0.17915 0.59614 0.0
C29 C 0.97121 0.18111 0.61051 0.0
H30 H 0.97796 0.15759 0.619 0.0
H31 H 0.02901 0.10759 0.63826 0.0
O32 O 0.05037 0.29857 0.66963 0.0
C33 C 0.05751 0.18402 0.67603 0.0
Co34 Co 0.81593 0.55321 0.15447 0.0
Co35 Co 0.88769 0.55261 0.13283 0.0
C36 C 0.83587 0.61012 0.12718 0.0
O37 O 0.81433 0.59567 0.13863 0.0
O38 O 0.86568 0.59682 0.12376 0.0
C39 C 0.74327 0.5644 0.16253 0.0
O40 O 0.74473 0.58505 0.14741 0.0
C41 C 0.93185 0.54957 0.09882 0.0
C42 C 0.98222 0.5313 0.11056 0.0
C43 C 0.96563 0.54074 0.09354 0.0
N44 N 0.92872 0.54565 0.11801 0.0
N45 N 0.95894 0.53497 0.12501 0.0
C46 C 0.90192 0.55864 0.08587 0.0
H47 H 0.87678 0.55204 0.09296 0.0
H48 H 0.90399 0.54462 0.07187 0.0
H49 H 0.90223 0.58709 0.08302 0.0
C50 C 0.80899 0.48525 0.13539 0.0
N51 N 0.82669 0.51481 0.13883 0.0
N52 N 0.857 0.51366 0.12991 0.0
C53 C 0.85975 0.48272 0.1207 0.0
C54 C 0.82935 0.46381 0.12387 0.0
C55 C 0.77304 0.47817 0.1429 0.0
H56 H 0.77421 0.47437 0.15879 0.0
H57 H 0.75612 0.501 0.13999 0.0
H58 H 0.76127 0.45481 0.13604 0.0
O59 O 0.85095 0.55835 0.17536 0.0
O60 O 0.90195 0.55821 0.16017 0.0
H61 H 0.9153 0.47701 0.11925 0.0
H62 H 0.89137 0.44162 0.10828 0.0
C63 C 0.89194 0.47023 0.1106 0.0
H64 H 0.89401 0.48328 0.09635 0.0
H65 H 0.96347 0.52961 0.13959 0.0
O66 O 0.77025 0.54738 0.16749 0.0
C67 C 0.88412 0.56003 0.17567 0.0
Co68 Co 0.52429 0.311 0.6563 0.0
Co69 Co 0.51951 0.38018 0.6326 0.0
C70 C 0.46335 0.32674 0.63041 0.0
O71 O 0.47919 0.308 0.64275 0.0
O72 O 0.4761 0.35556 0.6246 0.0
C73 C 0.5205 0.23749 0.66177 0.0
O74 O 0.50693 0.23812 0.64433 0.0
C75 C 0.51727 0.42499 0.59858 0.0
C76 C 0.53921 0.4744 0.60972 0.0
C77 C 0.52671 0.45847 0.59313 0.0
N78 N 0.52447 0.42113 0.61744 0.0
N79 N 0.53728 0.45081 0.62408 0.0
C80 C 0.49979 0.39749 0.58662 0.0
H81 H 0.47318 0.39308 0.59241 0.0
H82 H 0.51425 0.37255 0.58794 0.0
H83 H 0.49735 0.405 0.57123 0.0
C84 C 0.59008 0.30447 0.63453 0.0
N85 N 0.56039 0.32142 0.63883 0.0
N86 N 0.55915 0.35084 0.62908 0.0
C87 C 0.58841 0.35366 0.61833 0.0
C88 C 0.60868 0.3242 0.6213 0.0
C89 C 0.6015 0.27144 0.64414 0.0
H90 H 0.59707 0.27339 0.65996 0.0
H91 H 0.58555 0.24951 0.63856 0.0
H92 H 0.62946 0.26581 0.64142 0.0
O93 O 0.52138 0.34669 0.67676 0.0
O94 O 0.51527 0.39559 0.66001 0.0
H95 H 0.59523 0.40849 0.614 0.0
H96 H 0.62334 0.38166 0.59913 0.0
C97 C 0.59693 0.38397 0.60555 0.0
H98 H 0.57769 0.38526 0.59364 0.0
H99 H 0.54522 0.45477 0.63834 0.0
O100 O 0.53141 0.26572 0.66925 0.0
C101 C 0.51708 0.37955 0.6761 0.0
Co102 Co 0.76237 0.02036 0.15242 0.0
Co103 Co 0.69088 0.01881 0.1307 0.0
C104 C 0.74362 0.96225 0.12539 0.0
O105 O 0.76462 0.97716 0.13699 0.0
O106 O 0.71388 0.97534 0.12162 0.0
C107 C 0.83609 0.01412 0.15811 0.0
O108 O 0.83544 -0.00018 0.14084 0.0
C109 C 0.6452 0.0194 0.09721 0.0
C110 C 0.59511 0.03742 0.1095 0.0
C111 C 0.61096 0.02726 0.09238 0.0
N112 N 0.64925 0.02454 0.11627 0.0
N113 N 0.61921 0.03508 0.12359 0.0
C114 C 0.6746 0.01003 0.08394 0.0
H115 H 0.69996 0.01759 0.09046 0.0
H116 H 0.67152 0.02307 0.06972 0.0
H117 H 0.67471 0.9814 0.08166 0.0
C118 C 0.76711 0.08881 0.13342 0.0
N119 N 0.7507 0.05843 0.13666 0.0
N120 N 0.72057 0.05832 0.12754 0.0
C121 C 0.71684 0.08896 0.11819 0.0
C122 C 0.74628 0.10914 0.12157 0.0
C123 C 0.80185 0.09814 0.14182 0.0
H124 H 0.82115 0.07789 0.13777 0.0
H125 H 0.81126 0.1238 0.1366 0.0
H126 H 0.79989 0.09851 0.15783 0.0
O127 O 0.72785 0.01497 0.17348 0.0
O128 O 0.6771 0.01287 0.15811 0.0
H129 H 0.66126 0.09405 0.1168 0.0
H130 H 0.68472 0.12831 0.10447 0.0
C131 C 0.68444 0.10003 0.10781 0.0
H132 H 0.68225 0.08528 0.09408 0.0
H133 H 0.61532 0.04115 0.13815 0.0
O134 O 0.80808 0.02645 0.16518 0.0
C135 C 0.69478 0.01204 0.17368 0.0
Co136 Co 0.01752 0.81554 0.34048 0.0
Co137 Co 0.01366 0.88741 0.36195 0.0
C138 C 0.95904 0.83278 0.36748 0.0
O139 O 0.97486 0.81197 0.35618 0.0
O140 O 0.97056 0.86333 0.37082 0.0
C141 C 0.01343 0.74146 0.33487 0.0
O142 O -0.00032 0.74162 0.35227 0.0
C143 C 0.01203 0.93381 0.39526 0.0
C144 C 0.03194 0.98327 0.38314 0.0
C145 C 0.02041 0.96792 0.40013 0.0
N146 N 0.01831 0.92933 0.37633 0.0
N147 N 0.02986 0.95904 0.3691 0.0
C148 C 0.00167 0.90476 0.40852 0.0
H149 H 0.00901 0.87921 0.40218 0.0
H150 H 0.01428 0.90777 0.42287 0.0
H151 H 0.97295 0.90518 0.41051 0.0
C152 C 0.08594 0.81321 0.35962 0.0
N153 N 0.05509 0.82862 0.35626 0.0
N154 N 0.05395 0.85882 0.3653 0.0
C155 C 0.08443 0.86369 0.37465 0.0
C156 C 0.10552 0.83484 0.37147 0.0
C157 C 0.09738 0.78012 0.35003 0.0
H158 H 0.09105 0.78121 0.3344 0.0
H159 H 0.08277 0.75795 0.3564 0.0
H160 H 0.12576 0.77549 0.35175 0.0
O161 O 0.01138 0.8498 0.3194 0.0
O162 O 0.00844 0.90078 0.33448 0.0
H163 H 0.09063 0.91899 0.3769 0.0
H164 H 0.12027 0.8944 0.39202 0.0
C165 C 0.0934 0.89554 0.38614 0.0
H166 H 0.07505 0.89795 0.39843 0.0
H167 H 0.03705 0.96254 0.35468 0.0
O168 O 0.02462 0.76986 0.32773 0.0
C169 C 0.00818 0.88281 0.31901 0.0
Co170 Co 0.26441 0.51659 0.84278 0.0
Co171 Co 0.19253 0.51606 0.86438 0.0
C172 C 0.24558 0.45993 0.87044 0.0
O173 O 0.26699 0.47449 0.85894 0.0
O174 O 0.21546 0.47269 0.87362 0.0
C175 C 0.33828 0.51014 0.83607 0.0
O176 O 0.33862 0.49583 0.85332 0.0
C177 C 0.1469 0.51668 0.89798 0.0
C178 C 0.09763 0.53744 0.88608 0.0
C179 C 0.11309 0.52592 0.90303 0.0
N180 N 0.1511 0.52243 0.87899 0.0
N181 N 0.12151 0.53453 0.87188 0.0
C182 C 0.17599 0.50579 0.9111 0.0
H183 H 0.20159 0.51261 0.90462 0.0
H184 H 0.1735 0.5185 0.92546 0.0
H185 H 0.17502 0.47711 0.91309 0.0
C186 C 0.27001 0.58484 0.86198 0.0
N187 N 0.25286 0.55503 0.85829 0.0
N188 N 0.22253 0.55539 0.86724 0.0
C189 C 0.21926 0.58592 0.87675 0.0
C190 C 0.24938 0.60531 0.87388 0.0
C191 C 0.30431 0.59429 0.85304 0.0
H192 H 0.30325 0.58946 0.83724 0.0
H193 H 0.32495 0.57732 0.85917 0.0
H194 H 0.31123 0.62197 0.85564 0.0
O195 O 0.22952 0.51039 0.82197 0.0
O196 O 0.17849 0.51002 0.83709 0.0
H197 H 0.16412 0.59351 0.87933 0.0
H198 H 0.18986 0.62354 0.89364 0.0
C199 C 0.18792 0.59635 0.88831 0.0
H200 H 0.18545 0.57889 0.90098 0.0
H201 H 0.11784 0.54143 0.85744 0.0
O202 O 0.30983 0.5223 0.82949 0.0
C203 C 0.19639 0.50824 0.82163 0.0
Co204 Co 0.55463 0.75558 0.33987 0.0
Co205 Co 0.55066 0.68681 0.36421 0.0
C206 C 0.61007 0.73634 0.36853 0.0
O207 O 0.59704 0.7568 0.356 0.0
O208 O 0.59509 0.70788 0.37307 0.0
C209 C 0.56467 0.82847 0.33275 0.0
O210 O 0.57753 0.82838 0.35036 0.0
C211 C 0.54715 0.64299 0.39862 0.0
C212 C 0.52175 0.59527 0.38744 0.0
C213 C 0.53493 0.61043 0.40409 0.0
N214 N 0.54091 0.6471 0.37966 0.0
N215 N 0.52596 0.61844 0.37302 0.0
C216 C 0.56635 0.66919 0.41066 0.0
H217 H 0.59359 0.67112 0.40534 0.0
H218 H 0.5542 0.69525 0.40889 0.0
H219 H 0.56718 0.66198 0.42615 0.0
C220 C 0.48573 0.76659 0.35779 0.0
N221 N 0.51517 0.74804 0.35545 0.0
N222 N 0.51333 0.71936 0.36584 0.0
C223 C 0.48249 0.7188 0.3752 0.0
C224 C 0.46409 0.74874 0.37045 0.0
C225 C 0.4775 0.79904 0.34669 0.0
H226 H 0.48497 0.79552 0.33131 0.0
H227 H 0.49307 0.82095 0.35263 0.0
H228 H 0.44941 0.80578 0.34749 0.0
O229 O 0.55879 0.7185 0.3201 0.0
O230 O 0.55634 0.66988 0.33738 0.0
H231 H 0.46954 0.66533 0.38025 0.0
H232 H 0.44516 0.69571 0.39506 0.0
C233 C 0.47091 0.69017 0.38843 0.0
H234 H 0.49024 0.68707 0.40019 0.0
H235 H 0.51836 0.61483 0.35867 0.0
O236 O 0.55211 0.80045 0.32583 0.0
C237 C 0.55916 0.68538 0.32119 0.0
Co238 Co 0.3135 0.05458 0.83957 0.0
Co239 Co 0.38378 0.0531 0.8625 0.0
C240 C 0.33111 0.11007 0.8681 0.0
O241 O 0.31026 0.09664 0.85586 0.0
O242 O 0.36041 0.09604 0.87188 0.0
C243 C 0.23916 0.05721 0.83086 0.0
O244 O 0.23463 0.06713 0.84887 0.0
C245 C 0.42595 0.04897 0.8973 0.0
C246 C 0.47729 0.03238 0.88602 0.0
C247 C 0.45964 0.04053 0.90293 0.0
N248 N 0.4239 0.046 0.87801 0.0
N249 N 0.45469 0.03634 0.87129 0.0
C250 C 0.39521 0.05689 0.90991 0.0
H251 H 0.37058 0.05012 0.90235 0.0
H252 H 0.39686 0.04232 0.92374 0.0
H253 H 0.39481 0.08522 0.91315 0.0
C254 C 0.30627 0.98501 0.85735 0.0
N255 N 0.32347 0.0152 0.85479 0.0
N256 N 0.35339 0.01396 0.8641 0.0
C257 C 0.35636 0.9826 0.87273 0.0
C258 C 0.32652 0.96336 0.8688 0.0
C259 C 0.27105 0.97743 0.84901 0.0
H260 H 0.27262 0.97802 0.83299 0.0
H261 H 0.25258 -0.00199 0.85364 0.0
H262 H 0.26075 0.95185 0.85381 0.0
O263 O 0.34997 0.06049 0.81959 0.0
O264 O 0.40001 0.06016 0.83568 0.0
H265 H 0.41198 0.97793 0.87454 0.0
H266 H 0.38861 0.94126 0.88441 0.0
C267 C 0.38853 0.97003 0.88281 0.0
H268 H 0.38988 0.982 0.89739 0.0
H269 H 0.46011 0.03191 0.85671 0.0
O270 O 0.26959 0.04964 0.82489 0.0
C271 C 0.38311 0.0623 0.81991 0.0
H272 H 0.97292 0.95978 0.42945 0.0
H273 H 0.97564 0.98487 0.46195 0.0
H274 H 0.07018 0.03932 0.44668 0.0
H275 H 0.06784 0.01398 0.41421 0.0
H276 H 0.03102 0.97665 0.48867 0.0
H277 H 0.00843 0.11583 0.47047 0.0
H278 H -0.00149 0.08077 0.45391 0.0
H279 H 0.04275 0.09529 0.45693 0.0
C280 C 0.99448 0.97678 0.43307 0.0
C281 C 0.02059 0.98436 0.41945 0.0
C282 C 0.99581 0.99134 0.45157 0.0
C283 C 0.02298 0.01407 0.45663 0.0
C284 C 0.0487 0.02225 0.44294 0.0
H285 H 0.08549 0.11867 0.56205 0.0
H286 H 0.08108 0.09545 0.52919 0.0
C287 C 0.04738 0.00769 0.42444 0.0
C288 C 0.02528 0.02798 0.47652 0.0
H289 H 0.02575 0.10341 0.5027 0.0
C290 C 0.02967 0.00434 0.49179 0.0
C291 C 0.02367 0.06411 0.48044 0.0
C292 C 0.01778 0.09052 0.46461 0.0
C293 C 0.0331 0.01593 0.51092 0.0
C294 C 0.03144 0.05207 0.51485 0.0
C295 C 0.02704 0.07572 0.49958 0.0
C296 C 0.03405 0.06589 0.53475 0.0
C297 C 0.03925 0.98949 0.5267 0.0
C298 C 0.00894 0.05708 0.54868 0.0
C299 C 0.01127 0.07051 0.5674 0.0
C300 C 0.03843 0.09339 0.57241 0.0
C301 C 0.06367 0.10199 0.55846 0.0
C302 C 0.06137 0.0885 0.53975 0.0
H303 H 0.04879 0.96429 0.52079 0.0
H304 H 0.05847 -0.0007 0.53741 0.0
H305 H 0.01433 0.98445 0.53438 0.0
H306 H 0.98735 0.04011 0.545 0.0
H307 H 0.99145 0.06349 0.57787 0.0
H308 H 0.9559 0.58645 0.06363 0.0
H309 H 0.98021 0.58261 0.03099 0.0
H310 H 0.03644 0.48973 0.04708 0.0
H311 H 0.0114 0.49285 0.07964 0.0
H312 H 0.0517 0.58197 0.02013 0.0
H313 H 0.98285 0.46098 -0.00234 0.0
H314 H 0.96936 0.48661 0.01826 0.0
H315 H 0.0063 0.45803 0.02009 0.0
C316 C 0.97284 0.56481 0.06011 0.0
C317 C 0.98101 0.53938 0.07398 0.0
C318 C 0.98699 0.56287 0.04154 0.0
C319 C 0.00951 0.5355 0.03657 0.0
C320 C 0.01849 0.51062 0.05055 0.0
H321 H 0.12077 0.47842 0.93232 0.0
H322 H 0.09604 0.48156 0.96488 0.0
C323 C 0.0044 0.51258 0.06914 0.0
C324 C 0.02414 0.53342 0.01685 0.0
H325 H 0.02578 0.48291 0.97622 0.0
C326 C 0.04597 0.56041 0.01048 0.0
C327 C 0.01658 0.50519 0.00438 0.0
C328 C 0.99226 0.47615 0.01032 0.0
C329 C 0.06098 0.55966 0.99199 0.0
C330 C 0.05334 0.53147 0.97949 0.0
C331 C 0.03153 0.50446 0.98588 0.0
C332 C 0.06786 0.52951 0.95973 0.0
C333 C 0.08545 0.58863 0.98614 0.0
C334 C 0.05956 0.55504 0.94597 0.0
C335 C 0.07398 0.55352 0.92745 0.0
C336 C 0.09697 0.52648 0.92242 0.0
C337 C 0.10422 0.50027 0.93601 0.0
C338 C 0.0898 0.50181 0.95453 0.0
H339 H 0.09535 0.60327 -0.00112 0.0
H340 H 0.10806 0.57824 0.97791 0.0
H341 H 0.07133 0.60725 0.9767 0.0
H342 H 0.04199 0.57617 0.94959 0.0
H343 H 0.06764 0.57385 0.91718 0.0
H344 H 0.55091 0.42932 0.55983 0.0
H345 H 0.55161 0.45539 0.52754 0.0
H346 H 0.50631 0.54958 0.55062 0.0
H347 H 0.50458 0.52308 0.58292 0.0
H348 H 0.47427 0.52503 0.51627 0.0
H349 H 0.61842 0.5322 0.50925 0.0
H350 H 0.60207 0.48969 0.51526 0.0
H351 H 0.59688 0.52498 0.53213 0.0
C352 C 0.54047 0.45531 0.55791 0.0
C353 C 0.5268 0.47394 0.57366 0.0
C354 C 0.54141 0.47036 0.53956 0.0
C355 C 0.52927 0.50446 0.53678 0.0
C356 C 0.51579 0.52321 0.55253 0.0
H357 H 0.51169 0.64065 0.4373 0.0
H358 H 0.50993 0.61474 0.46966 0.0
C359 C 0.51485 0.50814 0.5709 0.0
C360 C 0.53021 0.52036 0.51735 0.0
H361 H 0.58538 0.54462 0.48104 0.0
C362 C 0.49854 0.52952 0.50858 0.0
C363 C 0.56196 0.52607 0.50743 0.0
C364 C 0.59681 0.51803 0.51653 0.0
C365 C 0.49772 0.5437 0.48991 0.0
C366 C 0.52946 0.54925 0.47996 0.0
C367 C 0.56113 0.54016 0.48874 0.0
C368 C 0.53042 0.56483 0.46047 0.0
C369 C 0.46294 0.552 0.48081 0.0
C370 C 0.543 0.54544 0.44474 0.0
C371 C 0.54439 0.56033 0.42633 0.0
C372 C 0.53384 0.59497 0.42353 0.0
C373 C 0.52096 0.61422 0.43926 0.0
C374 C 0.51948 0.59932 0.45764 0.0
H375 H 0.44109 0.53871 0.48837 0.0
H376 H 0.45834 0.58052 0.48159 0.0
H377 H 0.4626 0.54423 0.46533 0.0
H378 H 0.55155 0.51877 0.44671 0.0
H379 H 0.55406 0.54494 0.41433 0.0
H380 H 0.50645 0.99351 0.91653 0.0
H381 H 0.53095 0.9899 0.94917 0.0
H382 H 0.47153 0.08036 0.9661 0.0
H383 H 0.44722 0.0843 0.93352 0.0
H384 H 0.56969 0.04041 0.96893 0.0
H385 H 0.44719 0.00863 0.00807 0.0
H386 H 0.45126 0.00477 0.98214 0.0
H387 H 0.4447 0.04677 0.99309 0.0
C388 C 0.49853 0.01254 0.92726 0.0
C389 C 0.47424 0.03863 0.92265 0.0
C390 C 0.51247 0.0104 0.94586 0.0
C391 C 0.50241 0.03439 0.96012 0.0
C392 C 0.47878 0.06097 0.95544 0.0
H393 H 0.56295 0.07299 0.07867 0.0
H394 H 0.53653 0.07419 0.04643 0.0
C395 C 0.4648 0.06309 0.93684 0.0
C396 C 0.51761 0.03234 0.97971 0.0
H397 H 0.49673 0.02196 0.02733 0.0
C398 C 0.55382 0.03618 0.98171 0.0
C399 C 0.49671 0.02688 0.99629 0.0
C400 C 0.45784 0.0212 0.99486 0.0
C401 C 0.5697 0.03536 -5e-05 0.0
C402 C 0.54879 0.03001 0.01654 0.0
C403 C 0.51259 0.02609 0.01454 0.0
C404 C 0.56407 0.0286 0.03611 0.0
C405 C 0.60858 0.041 0.00139 0.0
C406 C 0.5876 0.00209 0.04105 0.0
C407 C 0.60267 0.00135 0.05941 0.0
C408 C 0.59446 0.02716 0.0731 0.0
C409 C 0.56996 0.05297 0.06833 0.0
C410 C 0.55491 0.05371 0.04995 0.0
H411 H 0.61941 0.05287 0.98802 0.0
H412 H 0.61506 0.05807 0.01386 0.0
H413 H 0.62164 0.01552 0.00362 0.0
H414 H 0.59422 0.98192 0.03071 0.0
H415 H 0.62035 0.98032 0.06293 0.0
H416 H 0.16882 0.05919 0.83837 0.0
H417 H 0.12154 0.06635 0.81479 0.0
H418 H 0.19736 0.06815 0.76861 0.0
H419 H 0.24389 0.05907 0.79174 0.0
H420 H 0.10764 0.11754 0.79351 0.0
H421 H 0.12771 0.00959 0.74304 0.0
H422 H 0.14906 0.01053 0.76628 0.0
H423 H 0.16892 0.03097 0.74544 0.0
C424 C 0.17517 0.0603 0.82312 0.0
C425 C 0.21003 0.0584 0.8169 0.0
C426 C 0.14817 0.06438 0.80966 0.0
C427 C 0.15566 0.06698 0.7898 0.0
C428 C 0.19052 0.06474 0.78368 0.0
H429 H 0.08802 0.2081 0.7088 0.0
H430 H 0.10208 0.17557 0.73785 0.0
C431 C 0.21729 0.05995 0.79701 0.0
C432 C 0.12818 0.07631 0.77555 0.0
H433 H 0.10799 0.06501 0.72799 0.0
C434 C 0.10699 0.10538 0.77935 0.0
C435 C 0.12586 0.05983 0.75726 0.0
C436 C 0.14386 0.02574 0.75294 0.0
C437 C 0.08665 0.12055 0.76475 0.0
C438 C 0.08895 0.10737 0.74566 0.0
C439 C 0.107 0.07604 0.74242 0.0
C440 C 0.07688 0.12773 0.72863 0.0
C441 C 0.06368 0.15107 0.76996 0.0
C442 C 0.05905 0.11155 0.71328 0.0
C443 C 0.0521 0.12991 0.69622 0.0
C444 C 0.06239 0.16492 0.69436 0.0
C445 C 0.07928 0.18131 0.70991 0.0
C446 C 0.08696 0.16277 0.72669 0.0
H447 H 0.0525 0.14762 0.78466 0.0
H448 H 0.0796 0.17524 0.77025 0.0
H449 H 0.04194 0.15443 0.75952 0.0
H450 H 0.05123 0.08447 0.71431 0.0
H451 H 0.039 0.11666 0.68445 0.0
H452 H 0.04105 0.73155 0.29886 0.0
H453 H 0.02406 0.68702 0.27538 0.0
H454 H 0.95935 0.63754 0.31832 0.0
H455 H 0.97614 0.68196 0.34199 0.0
H456 H 0.02044 0.60644 0.27603 0.0
H457 H 0.894 0.67817 0.27359 0.0
H458 H 0.93312 0.69763 0.28332 0.0
H459 H 0.91028 0.66493 0.29686 0.0
C460 C 0.02388 0.71073 0.30348 0.0
C461 C 0.00947 0.71063 0.32219 0.0
C462 C 0.01433 0.68524 0.29006 0.0
C463 C 0.99021 0.65934 0.29512 0.0
C464 C 0.97791 0.65749 0.31419 0.0
H465 H 0.85763 0.55198 0.21209 0.0
H466 H 0.88496 0.56862 0.24264 0.0
C467 C 0.98757 0.68289 0.32767 0.0
C468 C 0.97435 0.63772 0.27978 0.0
H469 H 0.90165 0.63262 0.25159 0.0
C470 C 0.99432 0.61174 0.27078 0.0
C471 C 0.94029 0.64482 0.27306 0.0
C472 C 0.91806 0.67299 0.28206 0.0
C473 C 0.98113 0.59284 0.25496 0.0
C474 C 0.94756 0.60097 0.24771 0.0
C475 C 0.92733 0.6263 0.25715 0.0
C476 C 0.93347 0.58555 0.22963 0.0
C477 C 0.00328 0.5644 0.24623 0.0
C478 C 0.95184 0.58894 0.21216 0.0
C479 C 0.93641 0.57908 0.19468 0.0
C480 C 0.90202 0.56634 0.1943 0.0
C481 C 0.88408 0.56193 0.21187 0.0
C482 C 0.8997 0.57135 0.22936 0.0
H483 H 0.02137 0.55319 0.25712 0.0
H484 H 0.98699 0.54309 0.24018 0.0
H485 H 0.01936 0.57555 0.23441 0.0
H486 H 0.9775 0.60074 0.21188 0.0
H487 H 0.95086 0.583 0.18139 0.0
H488 H 0.34652 0.53781 0.79996 0.0
H489 H 0.39028 0.52137 0.77592 0.0
H490 H 0.44197 0.45694 0.81812 0.0
H491 H 0.39823 0.47308 0.84232 0.0
H492 H 0.46916 0.51972 0.77484 0.0
H493 H 0.40275 0.39041 0.77444 0.0
H494 H 0.3828 0.4287 0.78482 0.0
H495 H 0.41731 0.40682 0.79744 0.0
C496 C 0.36762 0.52075 0.80429 0.0
C497 C 0.36854 0.50624 0.82296 0.0
C498 C 0.39268 0.51152 0.79054 0.0
C499 C 0.41898 0.48763 0.79523 0.0
C500 C 0.42164 0.47524 0.81425 0.0
H501 H 0.52997 0.35712 0.71289 0.0
H502 H 0.51344 0.38573 0.74308 0.0
C503 C 0.39664 0.48453 0.82804 0.0
C504 C 0.44041 0.4723 0.77962 0.0
H505 H 0.44785 0.39883 0.75219 0.0
C506 C 0.46489 0.49318 0.76997 0.0
C507 C 0.4346 0.43772 0.77334 0.0
C508 C 0.40782 0.41452 0.7829 0.0
C509 C 0.48364 0.48033 0.754 0.0
C510 C 0.47697 0.44606 0.74733 0.0
C511 C 0.45307 0.42503 0.75735 0.0
C512 C 0.49251 0.43184 0.72932 0.0
C513 C 0.51038 0.50352 0.74449 0.0
C514 C 0.48693 0.44857 0.71153 0.0
C515 C 0.49663 0.43238 0.69422 0.0
C516 C 0.5115 0.39888 0.69438 0.0
C517 C 0.51834 0.38283 0.71225 0.0
C518 C 0.50899 0.39918 0.72954 0.0
H519 H 0.52079 0.52312 0.75483 0.0
H520 H 0.53248 0.48814 0.73859 0.0
H521 H 0.49789 0.51787 0.73242 0.0
H522 H 0.47347 0.47335 0.71093 0.0
H523 H 0.49085 0.44539 0.6807 0.0
H524 H 0.60642 0.88512 0.33905 0.0
H525 H 0.62336 0.9294 0.31538 0.0
H526 H 0.55255 0.8845 0.27383 0.0
H527 H 0.53553 0.84007 0.29732 0.0
H528 H 0.65328 0.90519 0.27938 0.0
H529 H 0.53965 0.99223 0.26756 0.0
H530 H 0.54565 0.96743 0.28954 0.0
H531 H 0.52985 0.94638 0.26805 0.0
C532 C 0.59374 0.88522 0.32506 0.0
C533 C 0.5699 0.85889 0.31997 0.0
C534 C 0.60345 0.91055 0.31158 0.0
C535 C 0.58901 0.91031 0.29295 0.0
C536 C 0.56357 0.88544 0.28824 0.0
H537 H 0.63011 0.98371 0.17909 0.0
H538 H 0.60447 0.96414 0.20957 0.0
C539 C 0.55408 0.85992 0.30164 0.0
C540 C 0.60426 0.93223 0.27754 0.0
H541 H 0.5845 0.99357 0.24358 0.0
C542 C 0.63853 0.92498 0.27173 0.0
C543 C 0.58467 0.95759 0.26753 0.0
C544 C 0.54797 0.96668 0.27353 0.0
C545 C 0.65332 0.94127 0.25556 0.0
C546 C 0.63362 0.96644 0.24531 0.0
C547 C 0.59961 0.97443 0.2515 0.0
C548 C 0.64708 0.98269 0.22735 0.0
C549 C 0.68915 0.92985 0.24903 0.0
C550 C 0.67889 0.00082 0.22731 0.0
C551 C 0.69393 0.01146 0.20988 0.0
C552 C 0.67697 0.00488 0.19223 0.0
C553 C 0.64389 0.98904 0.19244 0.0
C554 C 0.62917 0.97789 0.20986 0.0
H555 H 0.69671 0.9044 0.25543 0.0
H556 H 0.6904 0.92751 0.23304 0.0
H557 H 0.70869 0.94948 0.25369 0.0
H558 H 0.69268 0.0057 0.24071 0.0
H559 H 0.71918 0.02412 0.21021 0.0
H560 H 0.01738 0.85563 0.28282 0.0
H561 H 0.00294 0.88283 0.25193 0.0
H562 H 0.97059 0.97614 0.28183 0.0
H563 H 0.98596 0.94957 0.31271 0.0
H564 H 0.93921 0.90101 0.24205 0.0
H565 H 0.02284 0.01807 0.23726 0.0
H566 H 0.03111 0.98346 0.25433 0.0
H567 H -0.00063 0.01673 0.25967 0.0
C568 C 0.00777 0.88218 0.28281 0.0
C569 C 0.00261 0.90038 0.30023 0.0
C570 C -0.00034 0.89772 0.26513 0.0
C571 C 0.98613 0.9317 0.26452 0.0
C572 C 0.98191 0.95028 0.28186 0.0
H573 H 0.84697 0.04284 0.19374 0.0
H574 H 0.8908 0.02509 0.21739 0.0
C575 C 0.99038 0.9349 0.29954 0.0
C576 C 0.97222 0.94588 0.24615 0.0
H577 H 0.97064 0.01839 0.21749 0.0
C578 C 0.94667 0.92634 0.23646 0.0
C579 C 0.98187 0.97901 0.23889 0.0
C580 C 0.01057 0.00034 0.24799 0.0
C581 C 0.92932 0.93967 0.22027 0.0
C582 C 0.93795 0.97334 0.21351 0.0
C583 C 0.96422 0.99255 0.22276 0.0
C584 C 0.91737 0.98977 0.19797 0.0
C585 C 0.90067 0.91833 0.21106 0.0
C586 C 0.91897 0.97692 0.17901 0.0
C587 C 0.89393 0.98696 0.16543 0.0
C588 C 0.86688 0.00982 0.17073 0.0
C589 C 0.86725 0.02488 0.18928 0.0
C590 C 0.89235 0.01492 0.20279 0.0
H591 H 0.89419 0.8947 0.21961 0.0
H592 H 0.87667 0.93425 0.20939 0.0
H593 H 0.90905 0.9099 0.19642 0.0
H594 H 0.93828 0.95757 0.17506 0.0
H595 H 0.8945 0.97506 0.15123 0.0
H596 H 0.22404 0.51292 0.78529 0.0
H597 H 0.19677 0.49547 0.75488 0.0
H598 H 0.10212 0.4695 0.78544 0.0
H599 H 0.12881 0.48783 0.81582 0.0
H600 H 0.1769 0.43067 0.74773 0.0
H601 H 0.06256 0.51692 0.73848 0.0
H602 H 0.0972 0.52654 0.75536 0.0
H603 H 0.06299 0.49651 0.76179 0.0
C604 C 0.19718 0.50413 0.7855 0.0
C605 C 0.17866 0.50153 0.803 0.0
C606 C 0.1816 0.49427 0.76809 0.0
C607 C 0.14727 0.48155 0.76783 0.0
C608 C 0.12831 0.48008 0.78518 0.0
H609 H 0.0359 0.33743 0.69856 0.0
H610 H 0.05369 0.38155 0.72212 0.0
C611 C 0.14375 0.49028 0.80259 0.0
C612 C 0.13305 0.46557 0.74999 0.0
H613 H 0.06171 0.46297 0.72039 0.0
C614 C 0.15203 0.43823 0.74154 0.0
C615 C 0.10051 0.47533 0.74198 0.0
C616 C 0.07982 0.50568 0.74977 0.0
C617 C 0.13879 0.4195 0.72579 0.0
C618 C 0.10579 0.42847 0.71822 0.0
C619 C 0.08705 0.45629 0.72629 0.0
C620 C 0.08978 0.40729 0.7028 0.0
C621 C 0.15955 0.38928 0.71781 0.0
C622 C 0.10324 0.40822 0.68396 0.0
C623 C 0.09317 0.38306 0.67045 0.0
C624 C 0.06968 0.3565 0.67568 0.0
C625 C 0.05429 0.35734 0.69415 0.0
C626 C 0.06427 0.3826 0.7076 0.0
H627 H 0.18273 0.38315 0.72682 0.0
H628 H 0.14292 0.36563 0.71682 0.0
H629 H 0.16864 0.39569 0.703 0.0
H630 H 0.12294 0.42721 0.68005 0.0
H631 H 0.10537 0.38325 0.65632 0.0
H632 H 0.56207 0.70856 0.28382 0.0
H633 H 0.58069 0.67578 0.25537 0.0
H634 H 0.58978 0.5827 0.28989 0.0
H635 H 0.57119 0.61521 0.31851 0.0
H636 H 0.65123 0.60396 0.27043 0.0
H637 H 0.53844 0.59875 0.22036 0.0
H638 H 0.54658 0.6411 0.23052 0.0
H639 H 0.53368 0.60586 0.24608 0.0
C640 C 0.56732 0.68095 0.28532 0.0
C641 C 0.5655 0.6646 0.30349 0.0
C642 C 0.57763 0.66219 0.26899 0.0
C643 C 0.58622 0.62677 0.27052 0.0
C644 C 0.58292 0.60997 0.28842 0.0
H645 H 0.72524 0.51726 0.19038 0.0
H646 H 0.68146 0.52504 0.21581 0.0
C647 C 0.5724 0.62865 0.30476 0.0
C648 C 0.60365 0.609 0.2542 0.0
H649 H 0.59488 0.58864 0.20641 0.0
C650 C 0.63879 0.59989 0.25651 0.0
C651 C 0.58731 0.60415 0.2361 0.0
C652 C 0.54931 0.61269 0.23309 0.0
C653 C 0.65873 0.58788 0.2409 0.0
C654 C 0.64266 0.58378 0.22259 0.0
C655 C 0.60707 0.5916 0.22047 0.0
C656 C 0.66341 0.57494 0.2052 0.0
C657 C 0.6973 0.58192 0.24395 0.0
C658 C 0.66582 0.59908 0.19002 0.0
C659 C 0.69024 0.59433 0.17527 0.0
C660 C 0.71288 0.56555 0.17561 0.0
C661 C 0.70851 0.54 0.18997 0.0
C662 C 0.68364 0.54448 0.20453 0.0
H663 H 0.70676 0.59392 0.2576 0.0
H664 H 0.70246 0.55351 0.24476 0.0
H665 H 0.71273 0.59283 0.23178 0.0
H666 H 0.65028 0.62266 0.19019 0.0
H667 H 0.69287 0.61438 0.16434 0.0
H668 H 0.44837 0.08976 0.81538 0.0
H669 H 0.47642 0.10694 0.78507 0.0
H670 H 0.38954 0.065 0.75294 0.0
H671 H 0.36066 0.04908 0.7832 0.0
H672 H 0.49797 0.07467 0.75202 0.0
H673 H 0.38862 0.1654 0.73631 0.0
H674 H 0.39306 0.14363 0.75925 0.0
H675 H 0.37537 0.12078 0.73873 0.0
C676 C 0.43539 0.08392 0.80185 0.0
C677 C 0.40203 0.0687 0.80165 0.0
C678 C 0.45149 0.09365 0.78454 0.0
C679 C 0.43467 0.08797 0.76679 0.0
C680 C 0.4025 0.07052 0.76652 0.0
H681 H 0.48112 0.17948 0.65469 0.0
H682 H 0.46434 0.13495 0.6782 0.0
C683 C 0.38609 0.06136 0.78381 0.0
C684 C 0.44959 0.10269 0.74881 0.0
H685 H 0.43313 0.1617 0.71309 0.0
C686 C 0.48373 0.09351 0.74341 0.0
C687 C 0.43102 0.12747 0.73767 0.0
C688 C 0.39515 0.1402 0.74334 0.0
C689 C 0.49991 0.10882 0.72727 0.0
C690 C 0.4814 0.13376 0.71635 0.0
C691 C 0.44701 0.14216 0.72141 0.0
C692 C 0.49793 0.15449 0.70087 0.0
C693 C 0.53674 0.09863 0.72214 0.0
C694 C 0.52316 0.17948 0.70571 0.0
C695 C 0.53256 0.20516 0.6924 0.0
C696 C 0.51679 0.20622 0.67405 0.0
C697 C 0.49368 0.17941 0.66872 0.0
C698 C 0.48408 0.15391 0.68211 0.0
H699 H 0.54416 0.07333 0.72876 0.0
H700 H 0.54 0.09681 0.70621 0.0
H701 H 0.55494 0.1189 0.72756 0.0
H702 H 0.53372 0.18067 0.72022 0.0
H703 H 0.5506 0.22534 0.69688 0.0
H704 H 0.93498 0.24177 0.58865 0.0
H705 H 0.87321 0.25265 0.58103 0.0
H706 H 0.85259 0.27195 0.64145 0.0
H707 H 0.91366 0.26013 0.64909 0.0
H708 H 0.80557 0.22616 0.6239 0.0
H709 H 0.82296 0.34804 0.58123 0.0
H710 H 0.84754 0.31047 0.57367 0.0
H711 H 0.85696 0.33068 0.59649 0.0
C712 C 0.91709 0.2484 0.60021 0.0
C713 C 0.92887 0.25057 0.61939 0.0
C714 C 0.88204 0.2548 0.59585 0.0
C715 C 0.85855 0.26353 0.61066 0.0
C716 C 0.8704 0.26543 0.62982 0.0
H717 H 0.66653 0.36324 0.62727 0.0
H718 H 0.72694 0.34679 0.62012 0.0
C719 C 0.90524 0.25894 0.63415 0.0
C720 C 0.82131 0.27004 0.60663 0.0
H721 H 0.76542 0.32974 0.58725 0.0
C722 C 0.79666 0.24849 0.61565 0.0
C723 C 0.81004 0.2993 0.59592 0.0
C724 C 0.83564 0.32369 0.58634 0.0
C725 C 0.76102 0.25634 0.6151 0.0
C726 C 0.74972 0.28611 0.60478 0.0
C727 C 0.77425 0.30682 0.59501 0.0
C728 C 0.71322 0.29829 0.60599 0.0
C729 C 0.73609 0.23391 0.62657 0.0
C730 C 0.68558 0.27706 0.59977 0.0
C731 C 0.65119 0.28628 0.60403 0.0
C732 C 0.64412 0.31713 0.6142 0.0
C733 C 0.67157 0.33946 0.61928 0.0
C734 C 0.70594 0.33009 0.6152 0.0
H735 H 0.74996 0.21634 0.63676 0.0
H736 H 0.71763 0.25028 0.63498 0.0
H737 H 0.7207 0.21745 0.6165 0.0
H738 H 0.69068 0.25272 0.59235 0.0
H739 H 0.63019 0.26883 0.59998 0.0
H740 H 0.81141 0.41134 0.14788 0.0
H741 H 0.79513 0.35174 0.13919 0.0
H742 H 0.81415 0.37464 0.07903 0.0
H743 H 0.83049 0.43479 0.08777 0.0
H744 H 0.73905 0.33422 0.11206 0.0
H745 H 0.86962 0.28225 0.09098 0.0
H746 H 0.8653 0.32049 0.10605 0.0
H747 H 0.85497 0.32293 0.08081 0.0
C748 C 0.81214 0.4036 0.13282 0.0
C749 C 0.82184 0.42744 0.11844 0.0
C750 C 0.80291 0.36967 0.12787 0.0
C751 C 0.80343 0.35895 0.10849 0.0
C752 C 0.81384 0.38248 0.09407 0.0
H753 H 0.75047 0.13776 0.08557 0.0
H754 H 0.7615 0.19952 0.07762 0.0
C755 C 0.82313 0.41663 0.09905 0.0
C756 C 0.79209 0.32319 0.10379 0.0
H757 H 0.82397 0.24185 0.09458 0.0
C758 C 0.75738 0.3141 0.10778 0.0
C759 C 0.8161 0.29719 0.0981 0.0
C760 C 0.85367 0.30591 0.09376 0.0
C761 C 0.7466 0.27924 0.1075 0.0
C762 C 0.77123 0.25301 0.10326 0.0
C763 C 0.80525 0.26223 0.09782 0.0
C764 C 0.76366 0.21616 0.10749 0.0
C765 C 0.70944 0.27044 0.11277 0.0
C766 C 0.76147 0.2055 0.12683 0.0
C767 C 0.75556 0.17063 0.13133 0.0
C768 C 0.75168 0.14597 0.11653 0.0
C769 C 0.75342 0.1566 0.09714 0.0
C770 C 0.75972 0.1916 0.09261 0.0
H771 H 0.69187 0.29321 0.11091 0.0
H772 H 0.69962 0.24849 0.10381 0.0
H773 H 0.7084 0.26229 0.12816 0.0
H774 H 0.76472 0.22417 0.13846 0.0
H775 H 0.75408 0.16287 0.14637 0.0
H776 H 0.43966 0.80885 0.38628 0.0
H777 H 0.37833 0.82513 0.3913 0.0
H778 H 0.346 0.72419 0.37033 0.0
H779 H 0.40709 0.70821 0.36496 0.0
H780 H 0.31579 0.78182 0.35129 0.0
H781 H 0.30403 0.7923 0.43126 0.0
H782 H 0.34034 0.81488 0.42054 0.0
H783 H 0.33862 0.76815 0.41959 0.0
C784 C 0.41933 0.79009 0.38305 0.0
C785 C 0.42776 0.7573 0.37536 0.0
C786 C 0.3845 0.79925 0.38604 0.0
C787 C 0.35782 0.77564 0.38141 0.0
C788 C 0.36633 0.74257 0.37416 0.0
H789 H 0.13406 0.78073 0.39109 0.0
H790 H 0.1965 0.76878 0.39559 0.0
C791 C 0.40109 0.73345 0.37117 0.0
C792 C 0.32098 0.78652 0.38218 0.0
H793 H 0.25548 0.81125 0.4127 0.0
C794 C 0.30257 0.78824 0.36471 0.0
C795 C 0.304 0.79472 0.39975 0.0
C796 C 0.32258 0.79222 0.41891 0.0
C797 C 0.26746 0.79804 0.36428 0.0
C798 C 0.25057 0.80676 0.38179 0.0
C799 C 0.26883 0.80487 0.39932 0.0
C800 C 0.21348 0.81661 0.38196 0.0
C801 C 0.24848 0.79844 0.34515 0.0
C802 C 0.20272 0.84785 0.37332 0.0
C803 C 0.1673 0.85458 0.37069 0.0
C804 C 0.14234 0.8302 0.37678 0.0
C805 C 0.15307 0.7998 0.38633 0.0
C806 C 0.18852 0.79307 0.38895 0.0
H807 H 0.2634 0.78484 0.33362 0.0
H808 H 0.22248 0.78591 0.34653 0.0
H809 H 0.24438 0.82584 0.34056 0.0
H810 H 0.22178 0.86627 0.36787 0.0
H811 H 0.15947 0.87802 0.36312 0.0
H812 H 0.31134 0.91132 0.84378 0.0
H813 H 0.30033 0.85003 0.85134 0.0
H814 H 0.31776 0.871 0.9119 0.0
H815 H 0.32795 0.93286 0.90435 0.0
H816 H 0.3466 0.80354 0.86978 0.0
H817 H 0.22214 0.82027 0.91039 0.0
H818 H 0.23983 0.85404 0.89508 0.0
H819 H 0.25901 0.84562 0.91826 0.0
C820 C 0.31236 0.90286 0.85871 0.0
C821 C 0.31996 0.92657 0.87355 0.0
C822 C 0.30632 0.86794 0.863 0.0
C823 C 0.3079 0.8562 0.88218 0.0
C824 C 0.31592 0.87977 0.89705 0.0
H825 H 0.30341 0.62844 0.89574 0.0
H826 H 0.31902 0.68943 0.90241 0.0
C827 C 0.3219 0.91486 0.89274 0.0
C828 C 0.30155 0.81902 0.88624 0.0
H829 H 0.24139 0.7629 0.90499 0.0
C830 C 0.32391 0.79452 0.87772 0.0
C831 C 0.27181 0.80766 0.89653 0.0
C832 C 0.24659 0.83314 0.90553 0.0
C833 C 0.31648 0.75882 0.87844 0.0
C834 C 0.28625 0.74743 0.88834 0.0
C835 C 0.26465 0.77185 0.89756 0.0
C836 C 0.27457 0.71084 0.88721 0.0
C837 C 0.3399 0.73386 0.86762 0.0
C838 C 0.24369 0.70291 0.87725 0.0
C839 C 0.23468 0.66832 0.87363 0.0
C840 C 0.25643 0.64131 0.87996 0.0
C841 C 0.28644 0.64911 0.89072 0.0
C842 C 0.29535 0.68375 0.89446 0.0
H843 H 0.3582 0.74763 0.85778 0.0
H844 H 0.35559 0.71869 0.87814 0.0
H845 H 0.32422 0.71519 0.85895 0.0
H846 H 0.2274 0.72352 0.87151 0.0
H847 H 0.21157 0.6627 0.86517 0.0
H848 H 0.42957 0.34506 0.59687 0.0
H849 H 0.37137 0.32638 0.58637 0.0
H850 H 0.36087 0.26475 0.63825 0.0
H851 H 0.41922 0.28179 0.64823 0.0
H852 H 0.33524 0.23056 0.60857 0.0
H853 H 0.28329 0.36608 0.60747 0.0
H854 H 0.31841 0.35738 0.591 0.0
H855 H 0.32607 0.35609 0.61665 0.0
C856 C 0.4148 0.32745 0.60596 0.0
C857 C 0.4288 0.31516 0.62346 0.0
C858 C 0.38151 0.31689 0.59998 0.0
C859 C 0.36141 0.29468 0.61169 0.0
C860 C 0.37582 0.28185 0.62893 0.0
H861 H 0.15696 0.28099 0.64508 0.0
H862 H 0.21613 0.29433 0.63523 0.0
C863 C 0.4092 0.29175 0.63467 0.0
C864 C 0.32477 0.28559 0.60686 0.0
H865 H 0.24332 0.32084 0.60347 0.0
C866 C 0.3151 0.25026 0.60719 0.0
C867 C 0.29859 0.31137 0.60492 0.0
C868 C 0.30692 0.34985 0.60512 0.0
C869 C 0.27992 0.24009 0.60738 0.0
C870 C 0.25371 0.26599 0.60642 0.0
C871 C 0.26349 0.30108 0.60428 0.0
C872 C 0.21671 0.25831 0.6111 0.0
C873 C 0.27129 0.20202 0.61019 0.0
C874 C 0.19696 0.23372 0.60071 0.0
C875 C 0.16296 0.2254 0.60662 0.0
C876 C 0.14804 0.24214 0.62273 0.0
C877 C 0.16754 0.26759 0.63259 0.0
C878 C 0.20145 0.27538 0.62692 0.0
H879 H 0.29463 0.18639 0.61412 0.0
H880 H 0.25139 0.1987 0.62171 0.0
H881 H 0.26052 0.19127 0.59654 0.0
H882 H 0.20788 0.22078 0.58818 0.0
H883 H 0.1484 0.20595 0.59862 0.0
H884 H 0.8791 0.66472 0.11887 0.0
H885 H 0.86138 0.72457 0.11122 0.0
H886 H 0.75387 0.6916 0.10842 0.0
H887 H 0.77125 0.6323 0.11696 0.0
H888 H 0.82565 0.75946 0.08305 0.0
H889 H 0.75095 0.76121 0.15187 0.0
H890 H 0.77995 0.72607 0.14554 0.0
H891 H 0.73669 0.72794 0.13545 0.0
C892 C 0.85178 0.67021 0.11629 0.0
C893 C 0.82643 0.64417 0.11887 0.0
C894 C 0.84168 0.70435 0.11192 0.0
C895 C 0.8062 0.71268 0.10982 0.0
C896 C 0.78126 0.68594 0.1106 0.0
H897 H 0.70052 0.91377 0.10882 0.0
H898 H 0.71504 0.85329 0.10078 0.0
C899 C 0.79122 0.65208 0.11539 0.0
C900 C 0.79505 0.74959 0.10862 0.0
H901 H 0.7467 0.81108 0.13221 0.0
C902 C 0.80827 0.77074 0.09373 0.0
C903 C 0.77263 0.76435 0.12272 0.0
C904 C 0.7595 0.74385 0.1399 0.0
C905 C 0.79962 0.80628 0.09261 0.0
C906 C 0.77716 0.82077 0.10666 0.0
C907 C 0.7635 0.79958 0.1213 0.0
C908 C 0.7698 0.85848 0.10772 0.0
C909 C 0.81464 0.82823 0.07657 0.0
C910 C 0.79595 0.88137 0.11399 0.0
C911 C 0.78771 0.91571 0.11884 0.0
C912 C 0.75314 0.92774 0.11745 0.0
C913 C 0.72738 0.9053 0.11005 0.0
C914 C 0.73561 0.87079 0.10541 0.0
H915 H 0.82557 0.81197 0.06473 0.0
H916 H 0.7944 0.8458 0.07051 0.0
H917 H 0.8359 0.84474 0.08247 0.0
H918 H 0.82237 0.87214 0.11615 0.0
H919 H 0.80819 0.9324 0.12439 0.0
H920 H 0.65622 0.69229 0.38622 0.0
H921 H 0.71663 0.70536 0.39533 0.0
H922 H 0.70179 0.81269 0.37886 0.0
H923 H 0.64172 0.79992 0.36952 0.0
H924 H 0.7615 0.73501 0.36446 0.0
H925 H 0.75906 0.8156 0.43121 0.0
H926 H 0.72476 0.78513 0.42509 0.0
H927 H 0.72724 0.82651 0.41307 0.0
C928 C 0.66557 0.71885 0.38498 0.0
C929 C 0.64439 0.74501 0.37694 0.0
C930 C 0.7 0.72625 0.39023 0.0
C931 C 0.71339 0.76002 0.38793 0.0
C932 C 0.69168 0.7866 0.38103 0.0
H933 H 0.90243 0.87302 0.37599 0.0
H934 H 0.84384 0.85237 0.38434 0.0
C935 C 0.65748 0.77916 0.37553 0.0
C936 C 0.7512 0.76649 0.38955 0.0
H937 H 0.81173 0.81645 0.41278 0.0
C938 C 0.77276 0.75225 0.37523 0.0
C939 C 0.76535 0.78943 0.40345 0.0
C940 C 0.74303 0.80494 0.4192 0.0
C941 C 0.80793 0.76173 0.37378 0.0
C942 C 0.82221 0.78511 0.38755 0.0
C943 C 0.80081 0.79842 0.40232 0.0
C944 C 0.85854 0.79793 0.38584 0.0
C945 C 0.82869 0.74826 0.35676 0.0
C946 C 0.88648 0.77439 0.38483 0.0
C947 C 0.91963 0.78601 0.37957 0.0
C948 C 0.92561 0.82152 0.37589 0.0
C949 C 0.89841 0.84549 0.37868 0.0
C950 C 0.865 0.83372 0.38347 0.0
H951 H 0.81153 0.73836 0.34503 0.0
H952 H 0.8457 0.76895 0.35065 0.0
H953 H 0.84544 0.72634 0.36156 0.0
H954 H 0.88232 0.74681 0.38724 0.0
H955 H 0.94039 0.76709 0.37786 0.0
H956 H 0.26906 0.14487 0.86599 0.0
H957 H 0.25742 0.20477 0.87606 0.0
H958 H 0.3609 0.21237 0.90003 0.0
H959 H 0.37295 0.1523 0.8901 0.0
H960 H 0.2705 0.24552 0.91584 0.0
H961 H 0.34876 0.28207 0.85086 0.0
H962 H 0.32869 0.23969 0.85304 0.0
H963 H 0.36606 0.25033 0.86745 0.0
C964 C 0.28916 0.15897 0.87374 0.0
C965 C 0.32216 0.14402 0.87694 0.0
C966 C 0.28233 0.19309 0.8796 0.0
C967 C 0.30836 0.21279 0.88869 0.0
C968 C 0.34052 0.19736 0.89306 0.0
H969 H 0.31092 0.43787 0.87946 0.0
H970 H 0.32839 0.37941 0.88948 0.0
C971 C 0.34736 0.16311 0.88729 0.0
C972 C 0.3035 0.25068 0.89082 0.0
H973 H 0.31986 0.3267 0.86718 0.0
C974 C 0.28162 0.26351 0.90544 0.0
C975 C 0.31823 0.27382 0.87723 0.0
C976 C 0.34168 0.26103 0.86117 0.0
C977 C 0.27352 0.29919 0.90656 0.0
C978 C 0.28687 0.32214 0.89233 0.0
C979 C 0.3097 0.30921 0.87815 0.0
C980 C 0.27574 0.35903 0.89066 0.0
C981 C 0.25076 0.31178 0.92293 0.0
C982 C 0.24024 0.36741 0.88864 0.0
C983 C 0.23017 0.40105 0.88328 0.0
C984 C 0.25551 0.42649 0.87931 0.0
C985 C 0.29088 0.41858 0.88223 0.0
C986 C 0.30087 0.38524 0.88801 0.0
H987 H 0.25388 0.29505 0.93592 0.0
H988 H 0.25687 0.33914 0.92694 0.0
H989 H 0.22301 0.31032 0.91843 0.0
H990 H 0.22038 0.3475 0.89005 0.0
H991 H 0.20274 0.40645 0.88102 0.0
loop_
_geom_bond_atom_site_label_1
_geom_bond_atom_site_label_2
_geom_bond_distance
_geom_bond_site_symmetry_2
_ccdc_geom_bond_type
Co0 O3 1.970 . S
Co0 N17 1.989 . S
Co0 O25 1.967 . S
Co0 O32 1.920 . S
Co1 O4 1.966 . S
Co1 N10 2.022 . S
Co1 N18 1.993 . S
Co1 O26 1.941 . S
C2 O3 1.258 . S
C2 O4 1.263 . S
O3 Co0 1.970 . S
O3 C2 1.258 . S
O4 Co1 1.966 . S
O4 C2 1.263 . S
C5 O6 1.235 . S
C5 O32 1.289 . S
O6 C5 1.235 . S
C7 C9 1.400 . S
C7 N10 1.351 . S
C7 C12 1.501 . S
C8 C9 1.387 . S
C8 N11 1.341 . S
C9 C7 1.400 . S
C9 C8 1.387 . S
N10 Co1 2.022 . S
N10 C7 1.351 . S
N10 N11 1.365 . S
N11 C8 1.341 . S
N11 N10 1.365 . S
N11 H31 0.862 . S
C12 C7 1.501 . S
C12 H13 0.961 . S
C12 H14 0.961 . S
C12 H15 0.960 . S
H13 C12 0.961 . S
H14 C12 0.961 . S
H15 C12 0.960 . S
C16 N17 1.342 1_655 S
C16 C20 1.401 . S
C16 C21 1.499 . S
N17 Co0 1.989 . S
N17 C16 1.342 1_455 S
N17 N18 1.388 . S
N18 Co1 1.993 . S
N18 N17 1.388 . S
N18 C19 1.346 1_455 S
C19 N18 1.346 1_655 S
C19 C20 1.396 . S
C19 C29 1.510 . S
C20 C16 1.401 . S
C20 C19 1.396 . S
C21 C16 1.499 . S
C21 H22 0.959 1_655 S
C21 H23 0.960 . S
C21 H24 0.961 . S
H22 C21 0.959 1_455 S
H23 C21 0.960 . S
H24 C21 0.961 . S
O25 Co0 1.967 . S
O25 C33 1.258 . S
O26 Co1 1.941 . S
O26 C33 1.266 . S
H27 C29 0.959 . S
H28 C29 0.961 . S
C29 C19 1.510 . S
C29 H27 0.959 . S
C29 H28 0.961 . S
C29 H30 0.960 . S
H30 C29 0.960 . S
H31 N11 0.862 . S
O32 Co0 1.920 . S
O32 C5 1.289 . S
C33 O25 1.258 . S
C33 O26 1.266 . S
Co34 O37 1.970 . S
Co34 N51 1.989 . S
Co34 O59 1.967 . S
Co34 O66 1.920 . S
Co35 O38 1.966 . S
Co35 N44 2.022 . S
Co35 N52 1.993 . S
Co35 O60 1.941 . S
C36 O37 1.258 . S
C36 O38 1.263 . S
O37 Co34 1.970 . S
O37 C36 1.258 . S
O38 Co35 1.966 . S
O38 C36 1.263 . S
C39 O40 1.235 . S
C39 O66 1.289 . S
O40 C39 1.235 . S
C41 C43 1.400 . S
C41 N44 1.351 . S
C41 C46 1.501 . S
C42 C43 1.387 . S
C42 N45 1.341 . S
C43 C41 1.400 . S
C43 C42 1.387 . S
N44 Co35 2.022 . S
N44 C41 1.351 . S
N44 N45 1.365 . S
N45 C42 1.341 . S
N45 N44 1.365 . S
N45 H65 0.862 . S
C46 C41 1.501 . S
C46 H47 0.961 . S
C46 H48 0.961 . S
C46 H49 0.960 . S
H47 C46 0.961 . S
H48 C46 0.961 . S
H49 C46 0.960 . S
C50 N51 1.342 . S
C50 C54 1.401 . S
C50 C55 1.499 . S
N51 Co34 1.989 . S
N51 C50 1.342 . S
N51 N52 1.388 . S
N52 Co35 1.993 . S
N52 N51 1.388 . S
N52 C53 1.346 . S
C53 N52 1.346 . S
C53 C54 1.396 . S
C53 C63 1.510 . S
C54 C50 1.401 . S
C54 C53 1.396 . S
C55 C50 1.499 . S
C55 H56 0.959 . S
C55 H57 0.960 . S
C55 H58 0.961 . S
H56 C55 0.959 . S
H57 C55 0.960 . S
H58 C55 0.961 . S
O59 Co34 1.967 . S
O59 C67 1.258 . S
O60 Co35 1.941 . S
O60 C67 1.266 . S
H61 C63 0.959 . S
H62 C63 0.961 . S
C63 C53 1.510 . S
C63 H61 0.959 . S
C63 H62 0.961 . S
C63 H64 0.960 . S
H64 C63 0.960 . S
H65 N45 0.862 . S
O66 Co34 1.920 . S
O66 C39 1.289 . S
C67 O59 1.258 . S
C67 O60 1.266 . S
Co68 O71 1.970 . S
Co68 N85 1.989 . S
Co68 O93 1.967 . S
Co68 O100 1.920 . S
Co69 O72 1.966 . S
Co69 N78 2.022 . S
Co69 N86 1.993 . S
Co69 O94 1.941 . S
C70 O71 1.258 . S
C70 O72 1.263 . S
O71 Co68 1.970 . S
O71 C70 1.258 . S
O72 Co69 1.966 . S
O72 C70 1.263 . S
C73 O74 1.235 . S
C73 O100 1.289 . S
O74 C73 1.235 . S
C75 C77 1.400 . S
C75 N78 1.351 . S
C75 C80 1.501 . S
C76 C77 1.387 . S
C76 N79 1.341 . S
C77 C75 1.400 . S
C77 C76 1.387 . S
N78 Co69 2.022 . S
N78 C75 1.351 . S
N78 N79 1.365 . S
N79 C76 1.341 . S
N79 N78 1.365 . S
N79 H99 0.862 . S
C80 C75 1.501 . S
C80 H81 0.961 . S
C80 H82 0.961 . S
C80 H83 0.960 . S
H81 C80 0.961 . S
H82 C80 0.961 . S
H83 C80 0.960 . S
C84 N85 1.342 . S
C84 C88 1.401 . S
C84 C89 1.499 . S
N85 Co68 1.989 . S
N85 C84 1.342 . S
N85 N86 1.388 . S
N86 Co69 1.993 . S
N86 N85 1.388 . S
N86 C87 1.346 . S
C87 N86 1.346 . S
C87 C88 1.396 . S
C87 C97 1.510 . S
C88 C84 1.401 . S
C88 C87 1.396 . S
C89 C84 1.499 . S
C89 H90 0.959 . S
C89 H91 0.960 . S
C89 H92 0.961 . S
H90 C89 0.959 . S
H91 C89 0.960 . S
H92 C89 0.961 . S
O93 Co68 1.967 . S
O93 C101 1.258 . S
O94 Co69 1.941 . S
O94 C101 1.266 . S
H95 C97 0.959 . S
H96 C97 0.961 . S
C97 C87 1.510 . S
C97 H95 0.959 . S
C97 H96 0.961 . S
C97 H98 0.960 . S
H98 C97 0.960 . S
H99 N79 0.862 . S
O100 Co68 1.920 . S
O100 C73 1.289 . S
C101 O93 1.258 . S
C101 O94 1.266 . S
Co102 O105 1.970 1_545 S
Co102 N119 1.989 . S
Co102 O127 1.967 1_545 S
Co102 O134 1.920 . S
Co103 O106 1.966 1_545 S
Co103 N112 2.022 . S
Co103 N120 1.993 . S
Co103 O128 1.942 . S
C104 O105 1.258 . S
C104 O106 1.263 . S
O105 Co102 1.970 1_565 S
O105 C104 1.258 . S
O106 Co103 1.966 1_565 S
O106 C104 1.263 . S
C107 O108 1.235 . S
C107 O134 1.289 . S
O108 C107 1.235 . S
C109 C111 1.400 . S
C109 N112 1.351 . S
C109 C114 1.501 1_545 S
C110 C111 1.387 . S
C110 N113 1.341 . S
C111 C109 1.400 . S
C111 C110 1.387 . S
N112 Co103 2.022 . S
N112 C109 1.351 . S
N112 N113 1.365 . S
N113 C110 1.341 . S
N113 N112 1.365 . S
N113 H133 0.862 . S
C114 C109 1.501 1_565 S
C114 H115 0.961 . S
C114 H116 0.961 . S
C114 H117 0.960 . S
H115 C114 0.961 . S
H116 C114 0.961 . S
H117 C114 0.960 . S
C118 N119 1.342 . S
C118 C122 1.401 . S
C118 C123 1.499 . S
N119 Co102 1.989 . S
N119 C118 1.342 . S
N119 N120 1.388 . S
N120 Co103 1.993 . S
N120 N119 1.388 . S
N120 C121 1.346 . S
C121 N120 1.346 . S
C121 C122 1.396 . S
C121 C131 1.510 . S
C122 C118 1.401 . S
C122 C121 1.396 . S
C123 C118 1.499 . S
C123 H124 0.959 . S
C123 H125 0.960 . S
C123 H126 0.961 . S
H124 C123 0.959 . S
H125 C123 0.960 . S
H126 C123 0.961 . S
O127 Co102 1.967 1_565 S
O127 C135 1.258 . S
O128 Co103 1.942 . S
O128 C135 1.266 1_545 S
H129 C131 0.959 . S
H130 C131 0.961 . S
C131 C121 1.510 . S
C131 H129 0.959 . S
C131 H130 0.961 . S
C131 H132 0.960 . S
H132 C131 0.960 . S
H133 N113 0.862 . S
O134 Co102 1.920 . S
O134 C107 1.289 . S
C135 O127 1.258 . S
C135 O128 1.266 1_565 S
Co136 O139 1.970 1_455 S
Co136 N153 1.989 . S
Co136 O161 1.967 1_455 S
Co136 O168 1.920 . S
Co137 O140 1.966 1_455 S
Co137 N146 2.022 . S
Co137 N154 1.993 . S
Co137 O162 1.941 . S
C138 O139 1.258 . S
C138 O140 1.263 . S
O139 Co136 1.970 1_655 S
O139 C138 1.258 . S
O140 Co137 1.966 1_655 S
O140 C138 1.263 . S
C141 O142 1.235 . S
C141 O168 1.289 . S
O142 C141 1.235 . S
C143 C145 1.400 . S
C143 N146 1.351 . S
C143 C148 1.501 1_455 S
C144 C145 1.387 . S
C144 N147 1.341 . S
C145 C143 1.400 . S
C145 C144 1.387 . S
N146 Co137 2.022 . S
N146 C143 1.351 . S
N146 N147 1.365 . S
N147 C144 1.341 . S
N147 N146 1.365 . S
N147 H167 0.862 . S
C148 C143 1.501 1_655 S
C148 H149 0.961 . S
C148 H150 0.961 1_655 S
C148 H151 0.960 . S
H149 C148 0.961 . S
H150 C148 0.961 1_455 S
H151 C148 0.960 . S
C152 N153 1.342 . S
C152 C156 1.401 . S
C152 C157 1.499 . S
N153 Co136 1.989 . S
N153 C152 1.342 . S
N153 N154 1.388 . S
N154 Co137 1.993 . S
N154 N153 1.388 . S
N154 C155 1.346 . S
C155 N154 1.346 . S
C155 C156 1.396 . S
C155 C165 1.510 . S
C156 C152 1.401 . S
C156 C155 1.396 . S
C157 C152 1.499 . S
C157 H158 0.959 . S
C157 H159 0.960 . S
C157 H160 0.961 . S
H158 C157 0.959 . S
H159 C157 0.960 . S
H160 C157 0.961 . S
O161 Co136 1.967 1_655 S
O161 C169 1.258 . S
O162 Co137 1.941 . S
O162 C169 1.266 1_455 S
H163 C165 0.959 . S
H164 C165 0.961 . S
C165 C155 1.510 . S
C165 H163 0.959 . S
C165 H164 0.961 . S
C165 H166 0.960 . S
H166 C165 0.960 . S
H167 N147 0.862 . S
O168 Co136 1.920 . S
O168 C141 1.289 . S
C169 O161 1.258 . S
C169 O162 1.266 1_655 S
Co170 O173 1.970 . S
Co170 N187 1.989 . S
Co170 O195 1.967 . S
Co170 O202 1.920 . S
Co171 O174 1.966 . S
Co171 N180 2.022 . S
Co171 N188 1.993 . S
Co171 O196 1.941 . S
C172 O173 1.258 . S
C172 O174 1.263 . S
O173 Co170 1.970 . S
O173 C172 1.258 . S
O174 Co171 1.966 . S
O174 C172 1.263 . S
C175 O176 1.235 . S
C175 O202 1.289 . S
O176 C175 1.235 . S
C177 C179 1.400 . S
C177 N180 1.351 . S
C177 C182 1.501 . S
C178 C179 1.387 . S
C178 N181 1.341 . S
C179 C177 1.400 . S
C179 C178 1.387 . S
N180 Co171 2.022 . S
N180 C177 1.351 . S
N180 N181 1.365 . S
N181 C178 1.341 . S
N181 N180 1.365 . S
N181 H201 0.862 . S
C182 C177 1.501 . S
C182 H183 0.961 . S
C182 H184 0.961 . S
C182 H185 0.960 . S
H183 C182 0.961 . S
H184 C182 0.961 . S
H185 C182 0.960 . S
C186 N187 1.342 . S
C186 C190 1.401 . S
C186 C191 1.499 . S
N187 Co170 1.989 . S
N187 C186 1.342 . S
N187 N188 1.388 . S
N188 Co171 1.993 . S
N188 N187 1.388 . S
N188 C189 1.346 . S
C189 N188 1.346 . S
C189 C190 1.396 . S
C189 C199 1.510 . S
C190 C186 1.401 . S
C190 C189 1.396 . S
C191 C186 1.499 . S
C191 H192 0.959 . S
C191 H193 0.960 . S
C191 H194 0.961 . S
H192 C191 0.959 . S
H193 C191 0.960 . S
H194 C191 0.961 . S
O195 Co170 1.967 . S
O195 C203 1.258 . S
O196 Co171 1.941 . S
O196 C203 1.266 . S
H197 C199 0.959 . S
H198 C199 0.961 . S
C199 C189 1.510 . S
C199 H197 0.959 . S
C199 H198 0.961 . S
C199 H200 0.960 . S
H200 C199 0.960 . S
H201 N181 0.862 . S
O202 Co170 1.920 . S
O202 C175 1.289 . S
C203 O195 1.258 . S
C203 O196 1.266 . S
Co204 O207 1.970 . S
Co204 N221 1.989 . S
Co204 O229 1.967 . S
Co204 O236 1.920 . S
Co205 O208 1.966 . S
Co205 N214 2.022 . S
Co205 N222 1.993 . S
Co205 O230 1.941 . S
C206 O207 1.258 . S
C206 O208 1.263 . S
O207 Co204 1.970 . S
O207 C206 1.258 . S
O208 Co205 1.966 . S
O208 C206 1.263 . S
C209 O210 1.235 . S
C209 O236 1.289 . S
O210 C209 1.235 . S
C211 C213 1.400 . S
C211 N214 1.351 . S
C211 C216 1.501 . S
C212 C213 1.387 . S
C212 N215 1.341 . S
C213 C211 1.400 . S
C213 C212 1.387 . S
N214 Co205 2.022 . S
N214 C211 1.351 . S
N214 N215 1.365 . S
N215 C212 1.341 . S
N215 N214 1.365 . S
N215 H235 0.862 . S
C216 C211 1.501 . S
C216 H217 0.961 . S
C216 H218 0.961 . S
C216 H219 0.960 . S
H217 C216 0.961 . S
H218 C216 0.961 . S
H219 C216 0.960 . S
C220 N221 1.342 . S
C220 C224 1.401 . S
C220 C225 1.499 . S
N221 Co204 1.989 . S
N221 C220 1.342 . S
N221 N222 1.388 . S
N222 Co205 1.993 . S
N222 N221 1.388 . S
N222 C223 1.346 . S
C223 N222 1.346 . S
C223 C224 1.396 . S
C223 C233 1.510 . S
C224 C220 1.401 . S
C224 C223 1.396 . S
C225 C220 1.499 . S
C225 H226 0.959 . S
C225 H227 0.960 . S
C225 H228 0.961 . S
H226 C225 0.959 . S
H227 C225 0.960 . S
H228 C225 0.961 . S
O229 Co204 1.967 . S
O229 C237 1.258 . S
O230 Co205 1.941 . S
O230 C237 1.266 . S
H231 C233 0.959 . S
H232 C233 0.961 . S
C233 C223 1.510 . S
C233 H231 0.959 . S
C233 H232 0.961 . S
C233 H234 0.960 . S
H234 C233 0.960 . S
H235 N215 0.862 . S
O236 Co204 1.920 . S
O236 C209 1.289 . S
C237 O229 1.258 . S
C237 O230 1.266 . S
Co238 O241 1.970 . S
Co238 N255 1.989 . S
Co238 O263 1.967 . S
Co238 O270 1.920 . S
Co239 O242 1.966 . S
Co239 N248 2.022 . S
Co239 N256 1.993 . S
Co239 O264 1.941 . S
C240 O241 1.258 . S
C240 O242 1.263 . S
O241 Co238 1.970 . S
O241 C240 1.258 . S
O242 Co239 1.966 . S
O242 C240 1.263 . S
C243 O244 1.235 . S
C243 O270 1.289 . S
O244 C243 1.235 . S
C245 C247 1.400 . S
C245 N248 1.351 . S
C245 C250 1.501 . S
C246 C247 1.387 . S
C246 N249 1.341 . S
C247 C245 1.400 . S
C247 C246 1.387 . S
N248 Co239 2.022 . S
N248 C245 1.351 . S
N248 N249 1.365 . S
N249 C246 1.341 . S
N249 N248 1.365 . S
N249 H269 0.862 . S
C250 C245 1.501 . S
C250 H251 0.961 . S
C250 H252 0.961 . S
C250 H253 0.960 . S
H251 C250 0.961 . S
H252 C250 0.961 . S
H253 C250 0.960 . S
C254 N255 1.342 1_565 S
C254 C258 1.401 . S
C254 C259 1.499 . S
N255 Co238 1.989 . S
N255 C254 1.342 1_545 S
N255 N256 1.388 . S
N256 Co239 1.993 . S
N256 N255 1.388 . S
N256 C257 1.346 1_545 S
C257 N256 1.346 1_565 S
C257 C258 1.396 . S
C257 C267 1.510 . S
C258 C254 1.401 . S
C258 C257 1.396 . S
C259 C254 1.499 . S
C259 H260 0.959 1_565 S
C259 H261 0.960 . S
C259 H262 0.961 . S
H260 C259 0.959 1_545 S
H261 C259 0.960 . S
H262 C259 0.961 . S
O263 Co238 1.967 . S
O263 C271 1.258 . S
O264 Co239 1.941 . S
O264 C271 1.266 . S
H265 C267 0.959 . S
H266 C267 0.961 . S
C267 C257 1.510 . S
C267 H265 0.959 . S
C267 H266 0.961 . S
C267 H268 0.960 . S
H268 C267 0.960 . S
H269 N249 0.862 . S
O270 Co238 1.920 . S
O270 C243 1.289 . S
C271 O263 1.258 . S
C271 O264 1.266 . S
H272 C280 0.929 1_655 S
H273 C282 0.930 1_655 S
H274 C284 0.930 . S
H275 C287 0.929 . S
H276 C290 0.959 . S
H277 C292 0.960 . S
H278 C292 0.960 . S
H279 C292 0.960 . S
C280 H272 0.929 1_455 S
C280 C281 1.377 . S
C280 C282 1.384 . S
C281 C280 1.377 . S
C281 C287 1.390 . S
C282 H273 0.930 1_455 S
C282 C280 1.384 . S
C282 C283 1.372 . S
C283 C282 1.372 . S
C283 C284 1.400 . S
C283 C288 1.490 1_565 S
C284 H274 0.930 . S
C284 C283 1.400 . S
C284 C287 1.386 . S
H285 C301 0.930 . S
H286 C302 0.931 . S
C287 H275 0.929 . S
C287 C281 1.390 . S
C287 C284 1.386 . S
C288 C283 1.490 1_545 S
C288 C290 1.383 1_545 S
C288 C291 1.403 . S
H289 C295 0.930 . S
C290 H276 0.959 . S
C290 C288 1.383 1_565 S
C290 C293 1.387 1_565 S
C291 C288 1.403 . S
C291 C292 1.524 . S
C291 C295 1.400 . S
C292 H277 0.960 . S
C292 H278 0.960 . S
C292 H279 0.960 . S
C292 C291 1.524 . S
C293 C290 1.387 1_545 S
C293 C294 1.392 . S
C293 C297 1.495 . S
C294 C293 1.392 . S
C294 C295 1.385 . S
C294 C296 1.478 . S
C295 H289 0.930 . S
C295 C291 1.400 . S
C295 C294 1.385 . S
C296 C294 1.478 . S
C296 C298 1.381 . S
C296 C302 1.383 . S
C297 C293 1.495 . S
C297 H303 0.959 1_545 S
C297 H304 0.961 . S
C297 H305 0.960 . S
C298 C296 1.381 . S
C298 C299 1.394 . S
C298 H306 0.930 1_455 S
C299 C298 1.394 . S
C299 C300 1.383 . S
C299 H307 0.929 1_455 S
C300 C299 1.383 . S
C300 C301 1.377 . S
C301 H285 0.930 . S
C301 C300 1.377 . S
C301 C302 1.379 . S
C302 H286 0.931 . S
C302 C296 1.383 . S
C302 C301 1.379 . S
H303 C297 0.959 1_565 S
H304 C297 0.961 . S
H305 C297 0.960 . S
H306 C298 0.930 1_655 S
H307 C299 0.929 1_655 S
H308 C316 0.929 . S
H309 C318 0.930 . S
H310 C320 0.930 1_455 S
H311 C323 0.929 . S
H312 C326 0.930 . S
H313 C328 0.978 . S
H314 C328 0.960 1_655 S
H315 C328 0.960 . S
C316 H308 0.929 . S
C316 C317 1.377 . S
C316 C318 1.384 . S
C317 C316 1.377 . S
C317 C323 1.390 . S
C318 H309 0.930 . S
C318 C316 1.384 . S
C318 C319 1.372 . S
C319 C318 1.372 . S
C319 C320 1.400 . S
C319 C324 1.490 1_655 S
C320 H310 0.930 1_655 S
C320 C319 1.400 . S
C320 C323 1.386 . S
H321 C337 0.930 . S
H322 C338 0.931 . S
C323 H311 0.929 . S
C323 C317 1.390 . S
C323 C320 1.386 . S
C324 C319 1.490 1_455 S
C324 C326 1.395 . S
C324 C327 1.403 . S
H325 C331 0.930 . S
C326 H312 0.930 . S
C326 C324 1.395 . S
C326 C329 1.403 1_554 S
C327 C324 1.403 . S
C327 C328 1.524 . S
C327 C331 1.400 1_554 S
C328 H313 0.978 . S
C328 H314 0.960 1_455 S
C328 H315 0.960 . S
C328 C327 1.524 . S
C329 C326 1.403 1_556 S
C329 C330 1.392 . S
C329 C333 1.495 . S
C330 C329 1.392 . S
C330 C331 1.385 . S
C330 C332 1.478 . S
C331 H325 0.930 . S
C331 C327 1.400 1_556 S
C331 C330 1.385 . S
C332 C330 1.478 . S
C332 C334 1.381 . S
C332 C338 1.383 . S
C333 C329 1.495 . S
C333 H339 0.959 . S
C333 H340 0.961 . S
C333 H341 0.960 . S
C334 C332 1.381 . S
C334 C335 1.394 . S
C334 H342 0.930 . S
C335 C334 1.394 . S
C335 C336 1.383 . S
C335 H343 0.929 . S
C336 C335 1.383 . S
C336 C337 1.377 . S
C337 H321 0.930 . S
C337 C336 1.377 . S
C337 C338 1.379 . S
C338 H322 0.931 . S
C338 C332 1.383 . S
C338 C337 1.379 . S
H339 C333 0.959 . S
H340 C333 0.961 . S
H341 C333 0.960 . S
H342 C334 0.930 . S
H343 C335 0.929 . S
H344 C352 0.929 . S
H345 C354 0.930 . S
H346 C356 0.930 . S
H347 C359 0.929 . S
H348 C362 0.930 . S
H349 C364 0.960 . S
H350 C364 0.960 . S
H351 C364 0.960 . S
C352 H344 0.929 . S
C352 C353 1.377 . S
C352 C354 1.384 . S
C353 C352 1.377 . S
C353 C359 1.390 . S
C354 H345 0.930 . S
C354 C352 1.384 . S
C354 C355 1.372 . S
C355 C354 1.372 . S
C355 C356 1.400 . S
C355 C360 1.490 . S
C356 H346 0.930 . S
C356 C355 1.400 . S
C356 C359 1.386 . S
H357 C373 0.930 . S
H358 C374 0.931 . S
C359 H347 0.929 . S
C359 C353 1.390 . S
C359 C356 1.386 . S
C360 C355 1.490 . S
C360 C362 1.395 . S
C360 C363 1.403 . S
H361 C367 0.930 . S
C362 H348 0.930 . S
C362 C360 1.395 . S
C362 C365 1.403 . S
C363 C360 1.403 . S
C363 C364 1.524 . S
C363 C367 1.400 . S
C364 H349 0.960 . S
C364 H350 0.960 . S
C364 H351 0.960 . S
C364 C363 1.524 . S
C365 C362 1.403 . S
C365 C366 1.392 . S
C365 C369 1.495 . S
C366 C365 1.392 . S
C366 C367 1.385 . S
C366 C368 1.478 . S
C367 H361 0.930 . S
C367 C363 1.400 . S
C367 C366 1.385 . S
C368 C366 1.478 . S
C368 C370 1.381 . S
C368 C374 1.383 . S
C369 C365 1.495 . S
C369 H375 0.959 . S
C369 H376 0.961 . S
C369 H377 0.960 . S
C370 C368 1.381 . S
C370 C371 1.394 . S
C370 H378 0.930 . S
C371 C370 1.394 . S
C371 C372 1.383 . S
C371 H379 0.929 . S
C372 C371 1.383 . S
C372 C373 1.377 . S
C373 H357 0.930 . S
C373 C372 1.377 . S
C373 C374 1.379 . S
C374 H358 0.931 . S
C374 C368 1.383 . S
C374 C373 1.379 . S
H375 C369 0.959 . S
H376 C369 0.961 . S
H377 C369 0.960 . S
H378 C370 0.930 . S
H379 C371 0.929 . S
H380 C388 0.929 1_565 S
H381 C390 0.930 1_565 S
H382 C392 0.930 . S
H383 C395 0.929 . S
H384 C398 0.930 . S
H385 C400 0.960 . S
H386 C400 0.960 . S
H387 C400 0.960 . S
C388 H380 0.929 1_545 S
C388 C389 1.377 . S
C388 C390 1.384 . S
C389 C388 1.377 . S
C389 C395 1.390 . S
C390 H381 0.930 1_545 S
C390 C388 1.384 . S
C390 C391 1.372 . S
C391 C390 1.372 . S
C391 C392 1.400 . S
C391 C396 1.490 . S
C392 H382 0.930 . S
C392 C391 1.400 . S
C392 C395 1.386 . S
H393 C409 0.930 . S
H394 C410 0.931 . S
C395 H383 0.929 . S
C395 C389 1.390 . S
C395 C392 1.386 . S
C396 C391 1.490 . S
C396 C398 1.395 . S
C396 C399 1.403 1_556 S
H397 C403 0.930 . S
C398 H384 0.930 . S
C398 C396 1.395 . S
C398 C401 1.403 . S
C399 C396 1.403 1_554 S
C399 C400 1.524 . S
C399 C403 1.400 . S
C400 H385 0.960 . S
C400 H386 0.960 . S
C400 H387 0.960 . S
C400 C399 1.524 . S
C401 C398 1.403 . S
C401 C402 1.392 1_556 S
C401 C405 1.495 . S
C402 C401 1.392 1_554 S
C402 C403 1.385 . S
C402 C404 1.478 . S
C403 H397 0.930 . S
C403 C399 1.400 . S
C403 C402 1.385 . S
C404 C402 1.478 . S
C404 C406 1.381 . S
C404 C410 1.383 . S
C405 C401 1.495 . S
C405 H411 0.959 . S
C405 H412 0.961 . S
C405 H413 0.960 . S
C406 C404 1.381 . S
C406 C407 1.394 . S
C406 H414 0.930 1_545 S
C407 C406 1.394 . S
C407 C408 1.383 . S
C407 H415 0.929 1_545 S
C408 C407 1.383 . S
C408 C409 1.377 . S
C409 H393 0.930 . S
C409 C408 1.377 . S
C409 C410 1.379 . S
C410 H394 0.931 . S
C410 C404 1.383 . S
C410 C409 1.379 . S
H411 C405 0.959 . S
H412 C405 0.961 . S
H413 C405 0.960 . S
H414 C406 0.930 1_565 S
H415 C407 0.929 1_565 S
H416 C424 0.929 . S
H417 C426 0.930 . S
H418 C428 0.930 . S
H419 C431 0.929 . S
H420 C434 0.930 . S
H421 C436 0.960 . S
H422 C436 0.960 . S
H423 C436 0.960 . S
C424 H416 0.929 . S
C424 C425 1.377 . S
C424 C426 1.384 . S
C425 C424 1.377 . S
C425 C431 1.390 . S
C426 H417 0.930 . S
C426 C424 1.384 . S
C426 C427 1.372 . S
C427 C426 1.372 . S
C427 C428 1.400 . S
C427 C432 1.490 . S
C428 H418 0.930 . S
C428 C427 1.400 . S
C428 C431 1.386 . S
H429 C445 0.930 . S
H430 C446 0.931 . S
C431 H419 0.929 . S
C431 C425 1.390 . S
C431 C428 1.386 . S
C432 C427 1.490 . S
C432 C434 1.395 . S
C432 C435 1.403 . S
H433 C439 0.930 . S
C434 H420 0.930 . S
C434 C432 1.395 . S
C434 C437 1.403 . S
C435 C432 1.403 . S
C435 C436 1.524 . S
C435 C439 1.400 . S
C436 H421 0.960 . S
C436 H422 0.960 . S
C436 H423 0.960 . S
C436 C435 1.524 . S
C437 C434 1.403 . S
C437 C438 1.392 . S
C437 C441 1.495 . S
C438 C437 1.392 . S
C438 C439 1.385 . S
C438 C440 1.478 . S
C439 H433 0.930 . S
C439 C435 1.400 . S
C439 C438 1.385 . S
C440 C438 1.478 . S
C440 C442 1.381 . S
C440 C446 1.383 . S
C441 C437 1.495 . S
C441 H447 0.959 . S
C441 H448 0.961 . S
C441 H449 0.960 . S
C442 C440 1.381 . S
C442 C443 1.394 . S
C442 H450 0.930 . S
C443 C442 1.394 . S
C443 C444 1.383 . S
C443 H451 0.929 . S
C444 C443 1.383 . S
C444 C445 1.377 . S
C445 H429 0.930 . S
C445 C444 1.377 . S
C445 C446 1.379 . S
C446 H430 0.931 . S
C446 C440 1.383 . S
C446 C445 1.379 . S
H447 C441 0.959 . S
H448 C441 0.961 . S
H449 C441 0.960 . S
H450 C442 0.930 . S
H451 C443 0.929 . S
H452 C460 0.929 . S
H453 C462 0.930 . S
H454 C464 0.930 . S
H455 C467 0.929 . S
H456 C470 0.930 1_455 S
H457 C472 0.960 . S
H458 C472 0.960 . S
H459 C472 0.960 . S
C460 H452 0.929 . S
C460 C461 1.377 . S
C460 C462 1.384 . S
C461 C460 1.377 . S
C461 C467 1.390 1_455 S
C462 H453 0.930 . S
C462 C460 1.384 . S
C462 C463 1.372 1_455 S
C463 C462 1.372 1_655 S
C463 C464 1.400 . S
C463 C468 1.490 . S
C464 H454 0.930 . S
C464 C463 1.400 . S
C464 C467 1.386 . S
H465 C481 0.930 . S
H466 C482 0.931 . S
C467 H455 0.929 . S
C467 C461 1.390 1_655 S
C467 C464 1.386 . S
C468 C463 1.490 . S
C468 C470 1.395 . S
C468 C471 1.403 . S
H469 C475 0.930 . S
C470 H456 0.930 1_655 S
C470 C468 1.395 . S
C470 C473 1.403 . S
C471 C468 1.403 . S
C471 C472 1.524 . S
C471 C475 1.400 . S
C472 H457 0.960 . S
C472 H458 0.960 . S
C472 H459 0.960 . S
C472 C471 1.524 . S
C473 C470 1.403 . S
C473 C474 1.392 . S
C473 C477 1.495 1_655 S
C474 C473 1.392 . S
C474 C475 1.385 . S
C474 C476 1.478 . S
C475 H469 0.930 . S
C475 C471 1.400 . S
C475 C474 1.385 . S
C476 C474 1.478 . S
C476 C478 1.381 . S
C476 C482 1.383 . S
C477 C473 1.495 1_455 S
C477 H483 0.959 . S
C477 H484 0.961 . S
C477 H485 0.960 . S
C478 C476 1.381 . S
C478 C479 1.394 . S
C478 H486 0.930 . S
C479 C478 1.394 . S
C479 C480 1.383 . S
C479 H487 0.929 . S
C480 C479 1.383 . S
C480 C481 1.377 . S
C481 H465 0.930 . S
C481 C480 1.377 . S
C481 C482 1.379 . S
C482 H466 0.931 . S
C482 C476 1.383 . S
C482 C481 1.379 . S
H483 C477 0.959 . S
H484 C477 0.961 . S
H485 C477 0.960 . S
H486 C478 0.930 . S
H487 C479 0.929 . S
H488 C496 0.929 . S
H489 C498 0.930 . S
H490 C500 0.930 . S
H491 C503 0.929 . S
H492 C506 0.930 . S
H493 C508 0.960 . S
H494 C508 0.960 . S
H495 C508 0.960 . S
C496 H488 0.929 . S
C496 C497 1.377 . S
C496 C498 1.384 . S
C497 C496 1.377 . S
C497 C503 1.390 . S
C498 H489 0.930 . S
C498 C496 1.384 . S
C498 C499 1.372 . S
C499 C498 1.372 . S
C499 C500 1.400 . S
C499 C504 1.490 . S
C500 H490 0.930 . S
C500 C499 1.400 . S
C500 C503 1.386 . S
H501 C517 0.930 . S
H502 C518 0.931 . S
C503 H491 0.929 . S
C503 C497 1.390 . S
C503 C500 1.386 . S
C504 C499 1.490 . S
C504 C506 1.395 . S
C504 C507 1.403 . S
H505 C511 0.930 . S
C506 H492 0.930 . S
C506 C504 1.395 . S
C506 C509 1.403 . S
C507 C504 1.403 . S
C507 C508 1.524 . S
C507 C511 1.400 . S
C508 H493 0.960 . S
C508 H494 0.960 . S
C508 H495 0.960 . S
C508 C507 1.524 . S
C509 C506 1.403 . S
C509 C510 1.392 . S
C509 C513 1.495 . S
C510 C509 1.392 . S
C510 C511 1.385 . S
C510 C512 1.478 . S
C511 H505 0.930 . S
C511 C507 1.400 . S
C511 C510 1.385 . S
C512 C510 1.478 . S
C512 C514 1.381 . S
C512 C518 1.383 . S
C513 C509 1.495 . S
C513 H519 0.959 . S
C513 H520 0.961 . S
C513 H521 0.960 . S
C514 C512 1.381 . S
C514 C515 1.394 . S
C514 H522 0.930 . S
C515 C514 1.394 . S
C515 C516 1.383 . S
C515 H523 0.929 . S
C516 C515 1.383 . S
C516 C517 1.377 . S
C517 H501 0.930 . S
C517 C516 1.377 . S
C517 C518 1.379 . S
C518 H502 0.931 . S
C518 C512 1.383 . S
C518 C517 1.379 . S
H519 C513 0.959 . S
H520 C513 0.961 . S
H521 C513 0.960 . S
H522 C514 0.930 . S
H523 C515 0.929 . S
H524 C532 0.929 . S
H525 C534 0.930 . S
H526 C536 0.930 . S
H527 C539 0.929 . S
H528 C542 0.930 . S
H529 C544 0.960 . S
H530 C544 0.960 . S
H531 C544 0.960 . S
C532 H524 0.929 . S
C532 C533 1.377 . S
C532 C534 1.384 . S
C533 C532 1.377 . S
C533 C539 1.390 . S
C534 H525 0.930 . S
C534 C532 1.384 . S
C534 C535 1.372 . S
C535 C534 1.372 . S
C535 C536 1.400 . S
C535 C540 1.490 . S
C536 H526 0.930 . S
C536 C535 1.400 . S
C536 C539 1.386 . S
H537 C553 0.930 . S
H538 C554 0.931 . S
C539 H527 0.929 . S
C539 C533 1.390 . S
C539 C536 1.386 . S
C540 C535 1.490 . S
C540 C542 1.395 . S
C540 C543 1.403 . S
H541 C547 0.930 . S
C542 H528 0.930 . S
C542 C540 1.395 . S
C542 C545 1.403 . S
C543 C540 1.403 . S
C543 C544 1.524 . S
C543 C547 1.400 . S
C544 H529 0.960 . S
C544 H530 0.960 . S
C544 H531 0.960 . S
C544 C543 1.524 . S
C545 C542 1.403 . S
C545 C546 1.392 . S
C545 C549 1.495 . S
C546 C545 1.392 . S
C546 C547 1.385 . S
C546 C548 1.478 . S
C547 H541 0.930 . S
C547 C543 1.400 . S
C547 C546 1.385 . S
C548 C546 1.478 . S
C548 C550 1.381 . S
C548 C554 1.383 . S
C549 C545 1.495 . S
C549 H555 0.959 . S
C549 H556 0.961 . S
C549 H557 0.960 . S
C550 C548 1.381 . S
C550 C551 1.394 1_565 S
C550 H558 0.930 . S
C551 C550 1.394 1_545 S
C551 C552 1.383 1_545 S
C551 H559 0.929 . S
C552 C551 1.383 1_565 S
C552 C553 1.377 . S
C553 H537 0.930 . S
C553 C552 1.377 . S
C553 C554 1.379 . S
C554 H538 0.931 . S
C554 C548 1.383 . S
C554 C553 1.379 . S
H555 C549 0.959 . S
H556 C549 0.961 . S
H557 C549 0.960 . S
H558 C550 0.930 . S
H559 C551 0.929 . S
H560 C568 0.929 . S
H561 C570 0.930 . S
H562 C572 0.930 . S
H563 C575 0.929 . S
H564 C578 0.930 . S
H565 C580 0.960 . S
H566 C580 0.971 . S
H567 C580 0.960 . S
C568 H560 0.929 . S
C568 C569 1.377 . S
C568 C570 1.384 . S
C569 C568 1.377 . S
C569 C575 1.390 . S
C570 H561 0.930 . S
C570 C568 1.384 . S
C570 C571 1.372 . S
C571 C570 1.372 . S
C571 C572 1.400 . S
C571 C576 1.490 . S
C572 H562 0.930 . S
C572 C571 1.400 . S
C572 C575 1.386 . S
H573 C589 0.930 . S
H574 C590 0.931 . S
C575 H563 0.929 . S
C575 C569 1.390 . S
C575 C572 1.386 . S
C576 C571 1.490 . S
C576 C578 1.395 . S
C576 C579 1.403 . S
H577 C583 0.930 . S
C578 H564 0.930 . S
C578 C576 1.395 . S
C578 C581 1.403 . S
C579 C576 1.403 . S
C579 C580 1.524 . S
C579 C583 1.400 . S
C580 H565 0.960 . S
C580 H566 0.971 . S
C580 H567 0.960 . S
C580 C579 1.524 . S
C581 C578 1.403 . S
C581 C582 1.392 . S
C581 C585 1.495 . S
C582 C581 1.392 . S
C582 C583 1.385 . S
C582 C584 1.478 . S
C583 H577 0.930 . S
C583 C579 1.400 . S
C583 C582 1.385 . S
C584 C582 1.478 . S
C584 C586 1.381 . S
C584 C590 1.383 1_565 S
C585 C581 1.495 . S
C585 H591 0.959 . S
C585 H592 0.961 . S
C585 H593 0.960 . S
C586 C584 1.381 . S
C586 C587 1.394 . S
C586 H594 0.930 . S
C587 C586 1.394 . S
C587 C588 1.383 1_565 S
C587 H595 0.929 . S
C588 C587 1.383 1_545 S
C588 C589 1.377 . S
C589 H573 0.930 . S
C589 C588 1.377 . S
C589 C590 1.379 . S
C590 H574 0.931 . S
C590 C584 1.383 1_545 S
C590 C589 1.379 . S
H591 C585 0.959 . S
H592 C585 0.961 . S
H593 C585 0.960 . S
H594 C586 0.930 . S
H595 C587 0.929 . S
H596 C604 0.929 . S
H597 C606 0.930 . S
H598 C608 0.930 . S
H599 C611 0.929 . S
H600 C614 0.930 . S
H601 C616 0.960 . S
H602 C616 0.960 . S
H603 C616 0.960 . S
C604 H596 0.929 . S
C604 C605 1.377 . S
C604 C606 1.384 . S
C605 C604 1.377 . S
C605 C611 1.390 . S
C606 H597 0.930 . S
C606 C604 1.384 . S
C606 C607 1.372 . S
C607 C606 1.372 . S
C607 C608 1.400 . S
C607 C612 1.490 . S
C608 H598 0.930 . S
C608 C607 1.400 . S
C608 C611 1.386 . S
H609 C625 0.930 . S
H610 C626 0.931 . S
C611 H599 0.929 . S
C611 C605 1.390 . S
C611 C608 1.386 . S
C612 C607 1.490 . S
C612 C614 1.395 . S
C612 C615 1.403 . S
H613 C619 0.930 . S
C614 H600 0.930 . S
C614 C612 1.395 . S
C614 C617 1.403 . S
C615 C612 1.403 . S
C615 C616 1.524 . S
C615 C619 1.400 . S
C616 H601 0.960 . S
C616 H602 0.960 . S
C616 H603 0.960 . S
C616 C615 1.524 . S
C617 C614 1.403 . S
C617 C618 1.392 . S
C617 C621 1.495 . S
C618 C617 1.392 . S
C618 C619 1.385 . S
C618 C620 1.478 . S
C619 H613 0.930 . S
C619 C615 1.400 . S
C619 C618 1.385 . S
C620 C618 1.478 . S
C620 C622 1.381 . S
C620 C626 1.383 . S
C621 C617 1.495 . S
C621 H627 0.959 . S
C621 H628 0.961 . S
C621 H629 0.960 . S
C622 C620 1.381 . S
C622 C623 1.394 . S
C622 H630 0.930 . S
C623 C622 1.394 . S
C623 C624 1.383 . S
C623 H631 0.929 . S
C624 C623 1.383 . S
C624 C625 1.377 . S
C625 H609 0.930 . S
C625 C624 1.377 . S
C625 C626 1.379 . S
C626 H610 0.931 . S
C626 C620 1.383 . S
C626 C625 1.379 . S
H627 C621 0.959 . S
H628 C621 0.961 . S
H629 C621 0.960 . S
H630 C622 0.930 . S
H631 C623 0.929 . S
H632 C640 0.929 . S
H633 C642 0.930 . S
H634 C644 0.930 . S
H635 C647 0.929 . S
H636 C650 0.930 . S
H637 C652 0.960 . S
H638 C652 0.960 . S
H639 C652 0.960 . S
C640 H632 0.929 . S
C640 C641 1.377 . S
C640 C642 1.384 . S
C641 C640 1.377 . S
C641 C647 1.390 . S
C642 H633 0.930 . S
C642 C640 1.384 . S
C642 C643 1.372 . S
C643 C642 1.372 . S
C643 C644 1.400 . S
C643 C648 1.490 . S
C644 H634 0.930 . S
C644 C643 1.400 . S
C644 C647 1.386 . S
H645 C661 0.930 . S
H646 C662 0.931 . S
C647 H635 0.929 . S
C647 C641 1.390 . S
C647 C644 1.386 . S
C648 C643 1.490 . S
C648 C650 1.395 . S
C648 C651 1.403 . S
H649 C655 0.930 . S
C650 H636 0.930 . S
C650 C648 1.395 . S
C650 C653 1.403 . S
C651 C648 1.403 . S
C651 C652 1.524 . S
C651 C655 1.400 . S
C652 H637 0.960 . S
C652 H638 0.960 . S
C652 H639 0.960 . S
C652 C651 1.524 . S
C653 C650 1.403 . S
C653 C654 1.392 . S
C653 C657 1.495 . S
C654 C653 1.392 . S
C654 C655 1.385 . S
C654 C656 1.478 . S
C655 H649 0.930 . S
C655 C651 1.400 . S
C655 C654 1.385 . S
C656 C654 1.478 . S
C656 C658 1.381 . S
C656 C662 1.383 . S
C657 C653 1.495 . S
C657 H663 0.959 . S
C657 H664 0.961 . S
C657 H665 0.960 . S
C658 C656 1.381 . S
C658 C659 1.394 . S
C658 H666 0.930 . S
C659 C658 1.394 . S
C659 C660 1.383 . S
C659 H667 0.929 . S
C660 C659 1.383 . S
C660 C661 1.377 . S
C661 H645 0.930 . S
C661 C660 1.377 . S
C661 C662 1.379 . S
C662 H646 0.931 . S
C662 C656 1.383 . S
C662 C661 1.379 . S
H663 C657 0.959 . S
H664 C657 0.961 . S
H665 C657 0.960 . S
H666 C658 0.930 . S
H667 C659 0.929 . S
H668 C676 0.929 . S
H669 C678 0.930 . S
H670 C680 0.930 . S
H671 C683 0.929 . S
H672 C686 0.930 . S
H673 C688 0.960 . S
H674 C688 0.960 . S
H675 C688 0.960 . S
C676 H668 0.929 . S
C676 C677 1.377 . S
C676 C678 1.384 . S
C677 C676 1.377 . S
C677 C683 1.390 . S
C678 H669 0.930 . S
C678 C676 1.384 . S
C678 C679 1.372 . S
C679 C678 1.372 . S
C679 C680 1.400 . S
C679 C684 1.490 . S
C680 H670 0.930 . S
C680 C679 1.400 . S
C680 C683 1.386 . S
H681 C697 0.930 . S
H682 C698 0.931 . S
C683 H671 0.929 . S
C683 C677 1.390 . S
C683 C680 1.386 . S
C684 C679 1.490 . S
C684 C686 1.395 . S
C684 C687 1.403 . S
H685 C691 0.930 . S
C686 H672 0.930 . S
C686 C684 1.395 . S
C686 C689 1.403 . S
C687 C684 1.403 . S
C687 C688 1.524 . S
C687 C691 1.400 . S
C688 H673 0.960 . S
C688 H674 0.960 . S
C688 H675 0.960 . S
C688 C687 1.524 . S
C689 C686 1.403 . S
C689 C690 1.392 . S
C689 C693 1.495 . S
C690 C689 1.392 . S
C690 C691 1.385 . S
C690 C692 1.478 . S
C691 H685 0.930 . S
C691 C687 1.400 . S
C691 C690 1.385 . S
C692 C690 1.478 . S
C692 C694 1.381 . S
C692 C698 1.383 . S
C693 C689 1.495 . S
C693 H699 0.959 . S
C693 H700 0.961 . S
C693 H701 0.960 . S
C694 C692 1.381 . S
C694 C695 1.394 . S
C694 H702 0.930 . S
C695 C694 1.394 . S
C695 C696 1.383 . S
C695 H703 0.929 . S
C696 C695 1.383 . S
C696 C697 1.377 . S
C697 H681 0.930 . S
C697 C696 1.377 . S
C697 C698 1.379 . S
C698 H682 0.931 . S
C698 C692 1.383 . S
C698 C697 1.379 . S
H699 C693 0.959 . S
H700 C693 0.961 . S
H701 C693 0.960 . S
H702 C694 0.930 . S
H703 C695 0.929 . S
H704 C712 0.929 . S
H705 C714 0.930 . S
H706 C716 0.930 . S
H707 C719 0.929 . S
H708 C722 0.930 . S
H709 C724 0.960 . S
H710 C724 0.960 . S
H711 C724 0.960 . S
C712 H704 0.929 . S
C712 C713 1.377 . S
C712 C714 1.384 . S
C713 C712 1.377 . S
C713 C719 1.390 . S
C714 H705 0.930 . S
C714 C712 1.384 . S
C714 C715 1.372 . S
C715 C714 1.372 . S
C715 C716 1.400 . S
C715 C720 1.490 . S
C716 H706 0.930 . S
C716 C715 1.400 . S
C716 C719 1.386 . S
H717 C733 0.930 . S
H718 C734 0.931 . S
C719 H707 0.929 . S
C719 C713 1.390 . S
C719 C716 1.386 . S
C720 C715 1.490 . S
C720 C722 1.395 . S
C720 C723 1.403 . S
H721 C727 0.930 . S
C722 H708 0.930 . S
C722 C720 1.395 . S
C722 C725 1.403 . S
C723 C720 1.403 . S
C723 C724 1.524 . S
C723 C727 1.400 . S
C724 H709 0.960 . S
C724 H710 0.960 . S
C724 H711 0.960 . S
C724 C723 1.524 . S
C725 C722 1.403 . S
C725 C726 1.392 . S
C725 C729 1.495 . S
C726 C725 1.392 . S
C726 C727 1.385 . S
C726 C728 1.478 . S
C727 H721 0.930 . S
C727 C723 1.400 . S
C727 C726 1.385 . S
C728 C726 1.478 . S
C728 C730 1.381 . S
C728 C734 1.383 . S
C729 C725 1.495 . S
C729 H735 0.959 . S
C729 H736 0.961 . S
C729 H737 0.960 . S
C730 C728 1.381 . S
C730 C731 1.394 . S
C730 H738 0.930 . S
C731 C730 1.394 . S
C731 C732 1.383 . S
C731 H739 0.929 . S
C732 C731 1.383 . S
C732 C733 1.377 . S
C733 H717 0.930 . S
C733 C732 1.377 . S
C733 C734 1.379 . S
C734 H718 0.931 . S
C734 C728 1.383 . S
C734 C733 1.379 . S
H735 C729 0.959 . S
H736 C729 0.961 . S
H737 C729 0.960 . S
H738 C730 0.930 . S
H739 C731 0.929 . S
H740 C748 0.929 . S
H741 C750 0.930 . S
H742 C752 0.930 . S
H743 C755 0.929 . S
H744 C758 0.930 . S
H745 C760 0.960 . S
H746 C760 0.960 . S
H747 C760 0.960 . S
C748 H740 0.929 . S
C748 C749 1.377 . S
C748 C750 1.384 . S
C749 C748 1.377 . S
C749 C755 1.390 . S
C750 H741 0.930 . S
C750 C748 1.384 . S
C750 C751 1.372 . S
C751 C750 1.372 . S
C751 C752 1.400 . S
C751 C756 1.490 . S
C752 H742 0.930 . S
C752 C751 1.400 . S
C752 C755 1.386 . S
H753 C769 0.930 . S
H754 C770 0.931 . S
C755 H743 0.929 . S
C755 C749 1.390 . S
C755 C752 1.386 . S
C756 C751 1.490 . S
C756 C758 1.395 . S
C756 C759 1.403 . S
H757 C763 0.930 . S
C758 H744 0.930 . S
C758 C756 1.395 . S
C758 C761 1.403 . S
C759 C756 1.403 . S
C759 C760 1.524 . S
C759 C763 1.400 . S
C760 H745 0.960 . S
C760 H746 0.960 . S
C760 H747 0.960 . S
C760 C759 1.524 . S
C761 C758 1.403 . S
C761 C762 1.392 . S
C761 C765 1.495 . S
C762 C761 1.392 . S
C762 C763 1.385 . S
C762 C764 1.478 . S
C763 H757 0.930 . S
C763 C759 1.400 . S
C763 C762 1.385 . S
C764 C762 1.478 . S
C764 C766 1.381 . S
C764 C770 1.383 . S
C765 C761 1.495 . S
C765 H771 0.959 . S
C765 H772 0.961 . S
C765 H773 0.960 . S
C766 C764 1.381 . S
C766 C767 1.394 . S
C766 H774 0.930 . S
C767 C766 1.394 . S
C767 C768 1.383 . S
C767 H775 0.929 . S
C768 C767 1.383 . S
C768 C769 1.377 . S
C769 H753 0.930 . S
C769 C768 1.377 . S
C769 C770 1.379 . S
C770 H754 0.931 . S
C770 C764 1.383 . S
C770 C769 1.379 . S
H771 C765 0.959 . S
H772 C765 0.961 . S
H773 C765 0.960 . S
H774 C766 0.930 . S
H775 C767 0.929 . S
H776 C784 0.929 . S
H777 C786 0.930 . S
H778 C788 0.930 . S
H779 C791 0.929 . S
H780 C794 0.930 . S
H781 C796 0.960 . S
H782 C796 0.960 . S
H783 C796 0.960 . S
C784 H776 0.929 . S
C784 C785 1.377 . S
C784 C786 1.384 . S
C785 C784 1.377 . S
C785 C791 1.390 . S
C786 H777 0.930 . S
C786 C784 1.384 . S
C786 C787 1.372 . S
C787 C786 1.372 . S
C787 C788 1.400 . S
C787 C792 1.490 . S
C788 H778 0.930 . S
C788 C787 1.400 . S
C788 C791 1.386 . S
H789 C805 0.930 . S
H790 C806 0.931 . S
C791 H779 0.929 . S
C791 C785 1.390 . S
C791 C788 1.386 . S
C792 C787 1.490 . S
C792 C794 1.395 . S
C792 C795 1.403 . S
H793 C799 0.930 . S
C794 H780 0.930 . S
C794 C792 1.395 . S
C794 C797 1.403 . S
C795 C792 1.403 . S
C795 C796 1.524 . S
C795 C799 1.400 . S
C796 H781 0.960 . S
C796 H782 0.960 . S
C796 H783 0.960 . S
C796 C795 1.524 . S
C797 C794 1.403 . S
C797 C798 1.392 . S
C797 C801 1.495 . S
C798 C797 1.392 . S
C798 C799 1.385 . S
C798 C800 1.478 . S
C799 H793 0.930 . S
C799 C795 1.400 . S
C799 C798 1.385 . S
C800 C798 1.478 . S
C800 C802 1.381 . S
C800 C806 1.383 . S
C801 C797 1.495 . S
C801 H807 0.959 . S
C801 H808 0.961 . S
C801 H809 0.960 . S
C802 C800 1.381 . S
C802 C803 1.394 . S
C802 H810 0.930 . S
C803 C802 1.394 . S
C803 C804 1.383 . S
C803 H811 0.929 . S
C804 C803 1.383 . S
C804 C805 1.377 . S
C805 H789 0.930 . S
C805 C804 1.377 . S
C805 C806 1.379 . S
C806 H790 0.931 . S
C806 C800 1.383 . S
C806 C805 1.379 . S
H807 C801 0.959 . S
H808 C801 0.961 . S
H809 C801 0.960 . S
H810 C802 0.930 . S
H811 C803 0.929 . S
H812 C820 0.929 . S
H813 C822 0.930 . S
H814 C824 0.930 . S
H815 C827 0.929 . S
H816 C830 0.930 . S
H817 C832 0.960 . S
H818 C832 0.960 . S
H819 C832 0.960 . S
C820 H812 0.929 . S
C820 C821 1.377 . S
C820 C822 1.384 . S
C821 C820 1.377 . S
C821 C827 1.390 . S
C822 H813 0.930 . S
C822 C820 1.384 . S
C822 C823 1.372 . S
C823 C822 1.372 . S
C823 C824 1.400 . S
C823 C828 1.490 . S
C824 H814 0.930 . S
C824 C823 1.400 . S
C824 C827 1.386 . S
H825 C841 0.930 . S
H826 C842 0.931 . S
C827 H815 0.929 . S
C827 C821 1.390 . S
C827 C824 1.386 . S
C828 C823 1.490 . S
C828 C830 1.395 . S
C828 C831 1.403 . S
H829 C835 0.930 . S
C830 H816 0.930 . S
C830 C828 1.395 . S
C830 C833 1.403 . S
C831 C828 1.403 . S
C831 C832 1.524 . S
C831 C835 1.400 . S
C832 H817 0.960 . S
C832 H818 0.960 . S
C832 H819 0.960 . S
C832 C831 1.524 . S
C833 C830 1.403 . S
C833 C834 1.392 . S
C833 C837 1.495 . S
C834 C833 1.392 . S
C834 C835 1.385 . S
C834 C836 1.478 . S
C835 H829 0.930 . S
C835 C831 1.400 . S
C835 C834 1.385 . S
C836 C834 1.478 . S
C836 C838 1.381 . S
C836 C842 1.383 . S
C837 C833 1.495 . S
C837 H843 0.959 . S
C837 H844 0.961 . S
C837 H845 0.960 . S
C838 C836 1.381 . S
C838 C839 1.394 . S
C838 H846 0.930 . S
C839 C838 1.394 . S
C839 C840 1.383 . S
C839 H847 0.929 . S
C840 C839 1.383 . S
C840 C841 1.377 . S
C841 H825 0.930 . S
C841 C840 1.377 . S
C841 C842 1.379 . S
C842 H826 0.931 . S
C842 C836 1.383 . S
C842 C841 1.379 . S
H843 C837 0.959 . S
H844 C837 0.961 . S
H845 C837 0.960 . S
H846 C838 0.930 . S
H847 C839 0.929 . S
H848 C856 0.929 . S
H849 C858 0.930 . S
H850 C860 0.930 . S
H851 C863 0.929 . S
H852 C866 0.930 . S
H853 C868 0.960 . S
H854 C868 0.960 . S
H855 C868 0.960 . S
C856 H848 0.929 . S
C856 C857 1.377 . S
C856 C858 1.384 . S
C857 C856 1.377 . S
C857 C863 1.390 . S
C858 H849 0.930 . S
C858 C856 1.384 . S
C858 C859 1.372 . S
C859 C858 1.372 . S
C859 C860 1.400 . S
C859 C864 1.490 . S
C860 H850 0.930 . S
C860 C859 1.400 . S
C860 C863 1.386 . S
H861 C877 0.930 . S
H862 C878 0.931 . S
C863 H851 0.929 . S
C863 C857 1.390 . S
C863 C860 1.386 . S
C864 C859 1.490 . S
C864 C866 1.395 . S
C864 C867 1.403 . S
H865 C871 0.930 . S
C866 H852 0.930 . S
C866 C864 1.395 . S
C866 C869 1.403 . S
C867 C864 1.403 . S
C867 C868 1.524 . S
C867 C871 1.400 . S
C868 H853 0.960 . S
C868 H854 0.960 . S
C868 H855 0.960 . S
C868 C867 1.524 . S
C869 C866 1.403 . S
C869 C870 1.392 . S
C869 C873 1.495 . S
C870 C869 1.392 . S
C870 C871 1.385 . S
C870 C872 1.478 . S
C871 H865 0.930 . S
C871 C867 1.400 . S
C871 C870 1.385 . S
C872 C870 1.478 . S
C872 C874 1.381 . S
C872 C878 1.383 . S
C873 C869 1.495 . S
C873 H879 0.959 . S
C873 H880 0.961 . S
C873 H881 0.960 . S
C874 C872 1.381 . S
C874 C875 1.394 . S
C874 H882 0.930 . S
C875 C874 1.394 . S
C875 C876 1.383 . S
C875 H883 0.929 . S
C876 C875 1.383 . S
C876 C877 1.377 . S
C877 H861 0.930 . S
C877 C876 1.377 . S
C877 C878 1.379 . S
C878 H862 0.931 . S
C878 C872 1.383 . S
C878 C877 1.379 . S
H879 C873 0.959 . S
H880 C873 0.961 . S
H881 C873 0.960 . S
H882 C874 0.930 . S
H883 C875 0.929 . S
H884 C892 0.929 . S
H885 C894 0.930 . S
H886 C896 0.930 . S
H887 C899 0.929 . S
H888 C902 0.930 . S
H889 C904 0.960 . S
H890 C904 0.960 . S
H891 C904 0.960 . S
C892 H884 0.929 . S
C892 C893 1.377 . S
C892 C894 1.384 . S
C893 C892 1.377 . S
C893 C899 1.390 . S
C894 H885 0.930 . S
C894 C892 1.384 . S
C894 C895 1.372 . S
C895 C894 1.372 . S
C895 C896 1.400 . S
C895 C900 1.490 . S
C896 H886 0.930 . S
C896 C895 1.400 . S
C896 C899 1.386 . S
H897 C913 0.930 . S
H898 C914 0.931 . S
C899 H887 0.929 . S
C899 C893 1.390 . S
C899 C896 1.386 . S
C900 C895 1.490 . S
C900 C902 1.395 . S
C900 C903 1.403 . S
H901 C907 0.930 . S
C902 H888 0.930 . S
C902 C900 1.395 . S
C902 C905 1.403 . S
C903 C900 1.403 . S
C903 C904 1.524 . S
C903 C907 1.400 . S
C904 H889 0.960 . S
C904 H890 0.960 . S
C904 H891 0.960 . S
C904 C903 1.524 . S
C905 C902 1.403 . S
C905 C906 1.392 . S
C905 C909 1.495 . S
C906 C905 1.392 . S
C906 C907 1.385 . S
C906 C908 1.478 . S
C907 H901 0.930 . S
C907 C903 1.400 . S
C907 C906 1.385 . S
C908 C906 1.478 . S
C908 C910 1.381 . S
C908 C914 1.383 . S
C909 C905 1.495 . S
C909 H915 0.959 . S
C909 H916 0.961 . S
C909 H917 0.960 . S
C910 C908 1.381 . S
C910 C911 1.394 . S
C910 H918 0.930 . S
C911 C910 1.394 . S
C911 C912 1.383 . S
C911 H919 0.929 . S
C912 C911 1.383 . S
C912 C913 1.377 . S
C913 H897 0.930 . S
C913 C912 1.377 . S
C913 C914 1.379 . S
C914 H898 0.931 . S
C914 C908 1.383 . S
C914 C913 1.379 . S
H915 C909 0.959 . S
H916 C909 0.961 . S
H917 C909 0.960 . S
H918 C910 0.930 . S
H919 C911 0.929 . S
H920 C928 0.929 . S
H921 C930 0.930 . S
H922 C932 0.930 . S
H923 C935 0.929 . S
H924 C938 0.930 . S
H925 C940 0.960 . S
H926 C940 0.960 . S
H927 C940 0.960 . S
C928 H920 0.929 . S
C928 C929 1.377 . S
C928 C930 1.384 . S
C929 C928 1.377 . S
C929 C935 1.390 . S
C930 H921 0.930 . S
C930 C928 1.384 . S
C930 C931 1.372 . S
C931 C930 1.372 . S
C931 C932 1.400 . S
C931 C936 1.490 . S
C932 H922 0.930 . S
C932 C931 1.400 . S
C932 C935 1.386 . S
H933 C949 0.930 . S
H934 C950 0.931 . S
C935 H923 0.929 . S
C935 C929 1.390 . S
C935 C932 1.386 . S
C936 C931 1.490 . S
C936 C938 1.395 . S
C936 C939 1.403 . S
H937 C943 0.930 . S
C938 H924 0.930 . S
C938 C936 1.395 . S
C938 C941 1.403 . S
C939 C936 1.403 . S
C939 C940 1.524 . S
C939 C943 1.400 . S
C940 H925 0.960 . S
C940 H926 0.960 . S
C940 H927 0.960 . S
C940 C939 1.524 . S
C941 C938 1.403 . S
C941 C942 1.392 . S
C941 C945 1.495 . S
C942 C941 1.392 . S
C942 C943 1.385 . S
C942 C944 1.478 . S
C943 H937 0.930 . S
C943 C939 1.400 . S
C943 C942 1.385 . S
C944 C942 1.478 . S
C944 C946 1.381 . S
C944 C950 1.383 . S
C945 C941 1.495 . S
C945 H951 0.959 . S
C945 H952 0.961 . S
C945 H953 0.960 . S
C946 C944 1.381 . S
C946 C947 1.394 . S
C946 H954 0.930 . S
C947 C946 1.394 . S
C947 C948 1.383 . S
C947 H955 0.929 . S
C948 C947 1.383 . S
C948 C949 1.377 . S
C949 H933 0.930 . S
C949 C948 1.377 . S
C949 C950 1.379 . S
C950 H934 0.931 . S
C950 C944 1.383 . S
C950 C949 1.379 . S
H951 C945 0.959 . S
H952 C945 0.961 . S
H953 C945 0.960 . S
H954 C946 0.930 . S
H955 C947 0.929 . S
H956 C964 0.929 . S
H957 C966 0.930 . S
H958 C968 0.930 . S
H959 C971 0.929 . S
H960 C974 0.930 . S
H961 C976 0.960 . S
H962 C976 0.960 . S
H963 C976 0.960 . S
C964 H956 0.929 . S
C964 C965 1.377 . S
C964 C966 1.384 . S
C965 C964 1.377 . S
C965 C971 1.390 . S
C966 H957 0.930 . S
C966 C964 1.384 . S
C966 C967 1.372 . S
C967 C966 1.372 . S
C967 C968 1.400 . S
C967 C972 1.490 . S
C968 H958 0.930 . S
C968 C967 1.400 . S
C968 C971 1.386 . S
H969 C985 0.930 . S
H970 C986 0.931 . S
C971 H959 0.929 . S
C971 C965 1.390 . S
C971 C968 1.386 . S
C972 C967 1.490 . S
C972 C974 1.395 . S
C972 C975 1.403 . S
H973 C979 0.930 . S
C974 H960 0.930 . S
C974 C972 1.395 . S
C974 C977 1.403 . S
C975 C972 1.403 . S
C975 C976 1.524 . S
C975 C979 1.400 . S
C976 H961 0.960 . S
C976 H962 0.960 . S
C976 H963 0.960 . S
C976 C975 1.524 . S
C977 C974 1.403 . S
C977 C978 1.392 . S
C977 C981 1.495 . S
C978 C977 1.392 . S
C978 C979 1.385 . S
C978 C980 1.478 . S
C979 H973 0.930 . S
C979 C975 1.400 . S
C979 C978 1.385 . S
C980 C978 1.478 . S
C980 C982 1.381 . S
C980 C986 1.383 . S
C981 C977 1.495 . S
C981 H987 0.959 . S
C981 H988 0.961 . S
C981 H989 0.960 . S
C982 C980 1.381 . S
C982 C983 1.394 . S
C982 H990 0.930 . S
C983 C982 1.394 . S
C983 C984 1.383 . S
C983 H991 0.929 . S
C984 C983 1.383 . S
C984 C985 1.377 . S
C985 H969 0.930 . S
C985 C984 1.377 . S
C985 C986 1.379 . S
C986 H970 0.931 . S
C986 C980 1.383 . S
C986 C985 1.379 . S
H987 C981 0.959 . S
H988 C981 0.961 . S
H989 C981 0.960 . S
H990 C982 0.930 . S
H991 C983 0.929 . S
C281 C145 1.472 . S
C300 C9 1.443 . S
C317 C43 1.481 . S
C336 C179 1.479 . S
C353 C77 1.481 . S
C372 C213 1.476 . S
C389 C247 1.477 . S
C408 C111 1.501 . S
C425 C243 0.604 . S
C444 C33 0.605 . S
C461 C141 0.594 . S
C480 C67 0.633 . S
C497 C175 0.599 . S
C516 C101 0.632 . S
C533 C209 0.602 . S
C552 C135 0.566 . S
C569 C169 0.595 . S
C588 C107 0.573 . S
C605 C203 0.593 . S
C624 C5 0.582 . S
C641 C237 0.591 . S
C660 C39 0.593 . S
C677 C271 0.590 . S
C696 C73 0.636 . S
C713 C20 1.232 . S
C732 C88 1.222 . S
C749 C54 1.233 . S
C768 C122 1.233 . S
C785 C224 1.231 . S
C804 C156 1.229 . S
C821 C258 1.230 . S
C840 C190 1.221 . S
C857 C70 0.984 . S
C876 C2 0.985 . S
C893 C36 0.974 . S
C912 C104 1.005 . S
C929 C206 0.987 . S
C948 C138 0.966 . S
C965 C240 0.977 . S
C984 C172 1.008 . S
