# Generated by pormake.
# Topology vbw, (6)-cn, num edge types: 1
# Building blocks:
#     Node 0, Type 0, BuildingBlock: OJICUG_clean_sbu_0, # of connection points: 6
#     Node 1, Type 0, BuildingBlock: OJICUG_clean_sbu_0, # of connection points: 6
#     Node 2, Type 0, BuildingBlock: OJICUG_clean_sbu_0, # of connection points: 6
#     Node 3, Type 0, BuildingBlock: OJICUG_clean_sbu_0, # of connection points: 6
#     Node 4, Type 0, BuildingBlock: OJICUG_clean_sbu_0, # of connection points: 6
#     Node 5, Type 0, BuildingBlock: OJICUG_clean_sbu_0, # of connection points: 6
#     Node 6, Type 0, BuildingBlock: OJICUG_clean_sbu_0, # of connection points: 6
#     Node 7, Type 0, BuildingBlock: OJICUG_clean_sbu_0, # of connection points: 6
#     Node 8, Type 0, BuildingBlock: OJICUG_clean_sbu_0, # of connection points: 6
#     Node 9, Type 0, BuildingBlock: OJICUG_clean_sbu_0, # of connection points: 6
#     Node 10, Type 0, BuildingBlock: OJICUG_clean_sbu_0, # of connection points: 6
#     Node 11, Type 0, BuildingBlock: OJICUG_clean_sbu_0, # of connection points: 6
#     Node 12, Type 0, BuildingBlock: OJICUG_clean_sbu_0, # of connection points: 6
#     Node 13, Type 0, BuildingBlock: OJICUG_clean_sbu_0, # of connection points: 6
#     Node 14, Type 0, BuildingBlock: OJICUG_clean_sbu_0, # of connection points: 6
#     Node 15, Type 0, BuildingBlock: OJICUG_clean_sbu_0, # of connection points: 6
#     Edge 16, Type (0, 0), BuildingBlock: AJUNOK_clean_linker_0, # of connection points: 2
#     Edge 17, Type (0, 0), BuildingBlock: AJUNOK_clean_linker_0, # of connection points: 2
#     Edge 18, Type (0, 0), BuildingBlock: AJUNOK_clean_linker_0, # of connection points: 2
#     Edge 19, Type (0, 0), BuildingBlock: AJUNOK_clean_linker_0, # of connection points: 2
#     Edge 20, Type (0, 0), BuildingBlock: AJUNOK_clean_linker_0, # of connection points: 2
#     Edge 21, Type (0, 0), BuildingBlock: AJUNOK_clean_linker_0, # of connection points: 2
#     Edge 22, Type (0, 0), BuildingBlock: AJUNOK_clean_linker_0, # of connection points: 2
#     Edge 23, Type (0, 0), BuildingBlock: AJUNOK_clean_linker_0, # of connection points: 2
#     Edge 24, Type (0, 0), BuildingBlock: AJUNOK_clean_linker_0, # of connection points: 2
#     Edge 25, Type (0, 0), BuildingBlock: AJUNOK_clean_linker_0, # of connection points: 2
#     Edge 26, Type (0, 0), BuildingBlock: AJUNOK_clean_linker_0, # of connection points: 2
#     Edge 27, Type (0, 0), BuildingBlock: AJUNOK_clean_linker_0, # of connection points: 2
#     Edge 28, Type (0, 0), BuildingBlock: AJUNOK_clean_linker_0, # of connection points: 2
#     Edge 29, Type (0, 0), BuildingBlock: AJUNOK_clean_linker_0, # of connection points: 2
#     Edge 30, Type (0, 0), BuildingBlock: AJUNOK_clean_linker_0, # of connection points: 2
#     Edge 31, Type (0, 0), BuildingBlock: AJUNOK_clean_linker_0, # of connection points: 2
#     Edge 32, Type (0, 0), BuildingBlock: AJUNOK_clean_linker_0, # of connection points: 2
#     Edge 33, Type (0, 0), BuildingBlock: AJUNOK_clean_linker_0, # of connection points: 2
#     Edge 34, Type (0, 0), BuildingBlock: AJUNOK_clean_linker_0, # of connection points: 2
#     Edge 35, Type (0, 0), BuildingBlock: AJUNOK_clean_linker_0, # of connection points: 2
#     Edge 36, Type (0, 0), BuildingBlock: AJUNOK_clean_linker_0, # of connection points: 2
#     Edge 37, Type (0, 0), BuildingBlock: AJUNOK_clean_linker_0, # of connection points: 2
#     Edge 38, Type (0, 0), BuildingBlock: AJUNOK_clean_linker_0, # of connection points: 2
#     Edge 39, Type (0, 0), BuildingBlock: AJUNOK_clean_linker_0, # of connection points: 2
#     Edge 40, Type (0, 0), BuildingBlock: AJUNOK_clean_linker_0, # of connection points: 2
#     Edge 41, Type (0, 0), BuildingBlock: AJUNOK_clean_linker_0, # of connection points: 2
#     Edge 42, Type (0, 0), BuildingBlock: AJUNOK_clean_linker_0, # of connection points: 2
#     Edge 43, Type (0, 0), BuildingBlock: AJUNOK_clean_linker_0, # of connection points: 2
#     Edge 44, Type (0, 0), BuildingBlock: AJUNOK_clean_linker_0, # of connection points: 2
#     Edge 45, Type (0, 0), BuildingBlock: AJUNOK_clean_linker_0, # of connection points: 2
#     Edge 46, Type (0, 0), BuildingBlock: AJUNOK_clean_linker_0, # of connection points: 2
#     Edge 47, Type (0, 0), BuildingBlock: AJUNOK_clean_linker_0, # of connection points: 2
#     Edge 48, Type (0, 0), BuildingBlock: AJUNOK_clean_linker_0, # of connection points: 2
#     Edge 49, Type (0, 0), BuildingBlock: AJUNOK_clean_linker_0, # of connection points: 2
#     Edge 50, Type (0, 0), BuildingBlock: AJUNOK_clean_linker_0, # of connection points: 2
#     Edge 51, Type (0, 0), BuildingBlock: AJUNOK_clean_linker_0, # of connection points: 2
#     Edge 52, Type (0, 0), BuildingBlock: AJUNOK_clean_linker_0, # of connection points: 2
#     Edge 53, Type (0, 0), BuildingBlock: AJUNOK_clean_linker_0, # of connection points: 2
#     Edge 54, Type (0, 0), BuildingBlock: AJUNOK_clean_linker_0, # of connection points: 2
#     Edge 55, Type (0, 0), BuildingBlock: AJUNOK_clean_linker_0, # of connection points: 2
#     Edge 56, Type (0, 0), BuildingBlock: AJUNOK_clean_linker_0, # of connection points: 2
#     Edge 57, Type (0, 0), BuildingBlock: AJUNOK_clean_linker_0, # of connection points: 2
#     Edge 58, Type (0, 0), BuildingBlock: AJUNOK_clean_linker_0, # of connection points: 2
#     Edge 59, Type (0, 0), BuildingBlock: AJUNOK_clean_linker_0, # of connection points: 2
#     Edge 60, Type (0, 0), BuildingBlock: AJUNOK_clean_linker_0, # of connection points: 2
#     Edge 61, Type (0, 0), BuildingBlock: AJUNOK_clean_linker_0, # of connection points: 2
#     Edge 62, Type (0, 0), BuildingBlock: AJUNOK_clean_linker_0, # of connection points: 2
#     Edge 63, Type (0, 0), BuildingBlock: AJUNOK_clean_linker_0, # of connection points: 2
# Relax obj value: 0.200
# Max RMSD: 0.231
# Mean RMSD: 0.231
data_MOF--net-vbw--node1-OJICUG_clean_sbu_0--edge1-AJUNOK_clean_linker_0
_symmetry_space_group_name_H-M    P1
_symmetry_Int_Tables_number       1
_symmetry_cell_setting            triclinic
loop_
_symmetry_equiv_pos_as_xyz
'x, y, z'
_cell_length_a     43.849955
_cell_length_b     35.117208
_cell_length_c     21.857369
_cell_angle_alpha  90.008363
_cell_angle_beta   89.980396
_cell_angle_gamma 90.035778
loop_
_atom_site_label
_atom_site_type_symbol
_atom_site_fract_x
_atom_site_fract_y
_atom_site_fract_z
_atom_type_partial_charge
Sc0 Sc 0.16654 0.14343 0.05641 0.0
Sc1 Sc 0.12202 0.21908 0.10082 0.0
Sc2 Sc 0.11807 0.13313 0.17956 0.0
O3 O 0.135 0.16501 0.11208 0.0
C4 C 0.12158 0.07621 0.06325 0.0
C5 C 0.12834 0.19922 0.96686 0.0
C6 C 0.05985 0.17708 0.13905 0.0
C7 C 0.19341 0.22106 0.06892 0.0
C8 C 0.18667 0.10908 0.18455 0.0
C9 C 0.12682 0.21572 0.24212 0.0
O10 O 0.13605 0.09951 0.02962 0.0
O11 O 0.1094 0.20855 0.00812 0.0
O12 O 0.07242 0.14524 0.1507 0.0
O13 O 0.19718 0.18664 0.08381 0.0
O14 O 0.16323 0.121 0.21287 0.0
O15 O 0.13439 0.23229 0.19276 0.0
O16 O 0.18749 0.10769 0.1263 0.0
O17 O 0.16707 0.23653 0.06851 0.0
O18 O 0.1169 0.18141 0.2436 0.0
O19 O 0.15141 0.17826 0.97879 0.0
O20 O 0.11733 0.08192 0.12067 0.0
O21 O 0.07524 0.20719 0.12816 0.0
Sc22 Sc 0.31931 0.86116 0.55757 0.0
Sc23 Sc 0.36506 0.78669 0.60193 0.0
Sc24 Sc 0.3676 0.87271 0.68039 0.0
O25 O 0.35115 0.84037 0.61325 0.0
C26 C 0.36304 0.92948 0.56381 0.0
C27 C 0.358 0.80566 0.46828 0.0
C28 C 0.42649 0.83096 0.63712 0.0
C29 C 0.29325 0.78311 0.57411 0.0
C30 C 0.29895 0.89555 0.68574 0.0
C31 C 0.36014 0.79006 0.74337 0.0
O32 O 0.34921 0.90562 0.53 0.0
O33 O 0.37725 0.79804 0.50963 0.0
O34 O 0.41311 0.86192 0.65063 0.0
O35 O 0.2895 0.81782 0.58695 0.0
O36 O 0.32246 0.88381 0.71382 0.0
O37 O 0.35335 0.77308 0.69393 0.0
O38 O 0.29791 0.89681 0.62744 0.0
O39 O 0.31976 0.76806 0.57118 0.0
O40 O 0.36945 0.82464 0.74485 0.0
O41 O 0.33441 0.82589 0.47973 0.0
O42 O 0.36748 0.92367 0.62113 0.0
O43 O 0.41205 0.7999 0.62765 0.0
Sc44 Sc 0.16515 0.86048 0.95264 0.0
Sc45 Sc 0.12032 0.78599 0.90433 0.0
Sc46 Sc 0.11745 0.87315 0.82944 0.0
O47 O 0.13373 0.84005 0.89569 0.0
C48 C 0.12151 0.92864 0.94782 0.0
C49 C 0.12679 0.80303 0.03902 0.0
C50 C 0.05872 0.82995 0.869 0.0
C51 C 0.19181 0.7828 0.93302 0.0
C52 C 0.18617 0.89585 0.82621 0.0
C53 C 0.12457 0.79129 0.76341 0.0
O54 O 0.13483 0.90422 0.98136 0.0
O55 O 0.10781 0.79539 0.99712 0.0
O56 O 0.07168 0.86163 0.85781 0.0
O57 O 0.19546 0.81785 0.92237 0.0
O58 O 0.16287 0.88439 0.79699 0.0
O59 O 0.13231 0.77383 0.81182 0.0
O60 O 0.18629 0.89748 0.88448 0.0
O61 O 0.16542 0.76741 0.93462 0.0
O62 O 0.11552 0.82596 0.76369 0.0
O63 O 0.15008 0.82403 0.02874 0.0
O64 O 0.1175 0.92344 0.89021 0.0
O65 O 0.07364 0.79929 0.87836 0.0
Sc66 Sc 0.36757 0.13166 0.32919 0.0
Sc67 Sc 0.36335 0.21928 0.40217 0.0
Sc68 Sc 0.3194 0.14437 0.45203 0.0
O69 O 0.35061 0.16489 0.39466 0.0
C70 C 0.29902 0.10766 0.32571 0.0
C71 C 0.3592 0.21296 0.26173 0.0
C72 C 0.29195 0.22155 0.43236 0.0
C73 C 0.4256 0.17661 0.36696 0.0
C74 C 0.36406 0.07692 0.44808 0.0
C75 C 0.35795 0.20242 0.53726 0.0
O76 O 0.32244 0.11904 0.29679 0.0
O77 O 0.35079 0.23042 0.30972 0.0
O78 O 0.28864 0.18646 0.42184 0.0
O79 O 0.41312 0.14438 0.35778 0.0
O80 O 0.35 0.10102 0.48098 0.0
O81 O 0.37645 0.21058 0.49471 0.0
O82 O 0.36809 0.08167 0.39041 0.0
O83 O 0.41012 0.20695 0.37517 0.0
O84 O 0.33474 0.18112 0.52769 0.0
O85 O 0.36896 0.17859 0.26281 0.0
O86 O 0.29812 0.10729 0.38405 0.0
O87 O 0.31819 0.23732 0.43345 0.0
Sc88 Sc 0.86789 0.87561 0.8286 0.0
Sc89 Sc 0.86342 0.78847 0.9039 0.0
Sc90 Sc 0.81862 0.86364 0.94965 0.0
O91 O 0.85062 0.84278 0.89439 0.0
C92 C 0.86344 0.93096 0.94688 0.0
C93 C 0.9258 0.83139 0.8699 0.0
C94 C 0.85565 0.80621 0.03834 0.0
C95 C 0.86047 0.79372 0.76267 0.0
C96 C 0.79939 0.89958 0.82264 0.0
C97 C 0.79169 0.78622 0.93022 0.0
O98 O 0.86801 0.92595 0.88938 0.0
O99 O 0.91047 0.80106 0.87948 0.0
O100 O 0.83277 0.82745 0.02633 0.0
O101 O 0.86982 0.82829 0.76298 0.0
O102 O 0.79828 0.90065 0.88087 0.0
O103 O 0.81793 0.77058 0.93276 0.0
O104 O 0.82292 0.88779 0.79455 0.0
O105 O 0.85219 0.77643 0.81091 0.0
O106 O 0.7884 0.82115 0.91829 0.0
O107 O 0.91329 0.86326 0.85827 0.0
O108 O 0.84891 0.90712 0.97946 0.0
O109 O 0.87497 0.79743 0.99752 0.0
Sc110 Sc 0.66556 0.14805 0.45257 0.0
Sc111 Sc 0.6201 0.22209 0.40593 0.0
Sc112 Sc 0.61778 0.13565 0.32878 0.0
O113 O 0.63397 0.16834 0.39586 0.0
C114 C 0.68672 0.11306 0.32532 0.0
C115 C 0.69125 0.22614 0.43833 0.0
C116 C 0.62606 0.21795 0.26503 0.0
C117 C 0.62599 0.20368 0.53995 0.0
C118 C 0.6215 0.07982 0.44651 0.0
C119 C 0.55878 0.17856 0.36735 0.0
O120 O 0.6874 0.11223 0.38363 0.0
O121 O 0.66467 0.24092 0.43895 0.0
O122 O 0.61644 0.18348 0.26379 0.0
O123 O 0.64964 0.18337 0.52945 0.0
O124 O 0.61737 0.08504 0.38892 0.0
O125 O 0.57369 0.2091 0.37762 0.0
O126 O 0.63565 0.10359 0.47987 0.0
O127 O 0.60698 0.21116 0.498 0.0
O128 O 0.57185 0.14693 0.35659 0.0
O129 O 0.6955 0.1917 0.4241 0.0
O130 O 0.6632 0.12416 0.2965 0.0
O131 O 0.63295 0.23503 0.31432 0.0
Sc132 Sc 0.81996 0.14681 0.05629 0.0
Sc133 Sc 0.86488 0.22153 0.10297 0.0
Sc134 Sc 0.86794 0.13505 0.17984 0.0
O135 O 0.85146 0.16754 0.11286 0.0
C136 C 0.79918 0.11178 0.18381 0.0
C137 C 0.79348 0.22476 0.07317 0.0
C138 C 0.85924 0.21715 0.24395 0.0
C139 C 0.85898 0.20325 0.96885 0.0
C140 C 0.86375 0.0785 0.06272 0.0
C141 C 0.92662 0.17845 0.14047 0.0
O142 O 0.79818 0.11102 0.12548 0.0
O143 O 0.81992 0.23999 0.0711 0.0
O144 O 0.86915 0.18283 0.24497 0.0
O145 O 0.83557 0.18245 0.9793 0.0
O146 O 0.86831 0.08435 0.12 0.0
O147 O 0.91154 0.2089 0.13043 0.0
O148 O 0.84998 0.10241 0.02893 0.0
O149 O 0.87788 0.21106 0.01082 0.0
O150 O 0.91371 0.14675 0.15155 0.0
O151 O 0.78978 0.18991 0.0851 0.0
O152 O 0.82269 0.12319 0.21232 0.0
O153 O 0.85222 0.2342 0.19474 0.0
Sc154 Sc 0.66618 0.86452 0.55461 0.0
Sc155 Sc 0.62096 0.78924 0.59861 0.0
Sc156 Sc 0.6181 0.87515 0.67781 0.0
O157 O 0.63453 0.84312 0.6102 0.0
C158 C 0.68674 0.89856 0.68229 0.0
C159 C 0.6926 0.78675 0.56823 0.0
C160 C 0.62575 0.79239 0.74022 0.0
C161 C 0.62808 0.8089 0.46482 0.0
C162 C 0.62207 0.93225 0.5615 0.0
C163 C 0.55933 0.83265 0.63505 0.0
O164 O 0.68712 0.90052 0.62411 0.0
O165 O 0.66617 0.77141 0.56735 0.0
O166 O 0.61644 0.82694 0.7419 0.0
O167 O 0.65124 0.82959 0.47711 0.0
O168 O 0.61785 0.92633 0.61888 0.0
O169 O 0.57401 0.8019 0.62475 0.0
O170 O 0.63588 0.90852 0.52749 0.0
O171 O 0.60883 0.79997 0.50573 0.0
O172 O 0.57248 0.86384 0.64853 0.0
O173 O 0.69648 0.82123 0.58274 0.0
O174 O 0.66344 0.8865 0.71096 0.0
O175 O 0.63275 0.77561 0.69071 0.0
Sc176 Sc 0.6658 0.64802 0.05583 0.0
Sc177 Sc 0.6198 0.72256 0.09883 0.0
Sc178 Sc 0.61704 0.63657 0.17808 0.0
O179 O 0.6336 0.66878 0.11065 0.0
C180 C 0.62165 0.57986 0.06158 0.0
C181 C 0.62732 0.70287 0.96519 0.0
C182 C 0.55829 0.67921 0.13705 0.0
C183 C 0.69117 0.72634 0.06888 0.0
C184 C 0.68587 0.61365 0.18402 0.0
C185 C 0.62489 0.71932 0.2403 0.0
O186 O 0.63622 0.6033 0.02834 0.0
O187 O 0.60783 0.71168 0.00578 0.0
O188 O 0.57129 0.64772 0.14913 0.0
O189 O 0.69537 0.6921 0.0844 0.0
O190 O 0.6622 0.62512 0.21197 0.0
O191 O 0.63172 0.73615 0.19075 0.0
O192 O 0.68702 0.61264 0.1258 0.0
O193 O 0.66461 0.7411 0.06735 0.0
O194 O 0.61546 0.6848 0.24212 0.0
O195 O 0.65059 0.6825 0.97799 0.0
O196 O 0.61693 0.5855 0.11888 0.0
O197 O 0.57317 0.70961 0.12562 0.0
Sc198 Sc 0.81888 0.36378 0.55753 0.0
Sc199 Sc 0.8638 0.2886 0.60305 0.0
Sc200 Sc 0.86764 0.37563 0.67905 0.0
O201 O 0.85076 0.34285 0.61292 0.0
C202 C 0.86368 0.43103 0.56079 0.0
C203 C 0.85615 0.30659 0.4688 0.0
C204 C 0.92588 0.33158 0.63982 0.0
C205 C 0.79197 0.28641 0.57621 0.0
C206 C 0.79935 0.39998 0.68427 0.0
C207 C 0.86019 0.29353 0.74444 0.0
O208 O 0.84924 0.40721 0.52801 0.0
O209 O 0.87553 0.29792 0.50955 0.0
O210 O 0.91305 0.36337 0.65033 0.0
O211 O 0.78867 0.32126 0.58869 0.0
O212 O 0.82269 0.38791 0.71256 0.0
O213 O 0.85238 0.27616 0.69593 0.0
O214 O 0.79833 0.40086 0.62604 0.0
O215 O 0.81825 0.27079 0.57358 0.0
O216 O 0.86924 0.32822 0.74447 0.0
O217 O 0.83318 0.32764 0.48096 0.0
O218 O 0.86804 0.42601 0.61835 0.0
O219 O 0.91092 0.30118 0.62828 0.0
Sc220 Sc 0.66653 0.36413 0.95205 0.0
Sc221 Sc 0.62109 0.28918 0.90649 0.0
Sc222 Sc 0.6185 0.37587 0.82928 0.0
O223 O 0.63476 0.34322 0.8962 0.0
C224 C 0.62267 0.43226 0.94646 0.0
C225 C 0.62836 0.30788 0.04081 0.0
C226 C 0.55961 0.33275 0.86787 0.0
C227 C 0.69261 0.28618 0.9371 0.0
C228 C 0.68711 0.39923 0.82509 0.0
C229 C 0.62526 0.29336 0.76501 0.0
O230 O 0.63652 0.40835 0.98005 0.0
O231 O 0.60908 0.29904 0.99986 0.0
O232 O 0.57278 0.36432 0.8572 0.0
O233 O 0.6966 0.32073 0.92313 0.0
O234 O 0.66378 0.38743 0.7964 0.0
O235 O 0.63271 0.27604 0.8138 0.0
O236 O 0.6877 0.40045 0.8833 0.0
O237 O 0.66617 0.27092 0.93744 0.0
O238 O 0.61676 0.32824 0.76458 0.0
O239 O 0.6514 0.32882 0.02875 0.0
O240 O 0.61824 0.42656 0.88911 0.0
O241 O 0.57426 0.30226 0.88012 0.0
Sc242 Sc 0.86694 0.63459 0.32705 0.0
Sc243 Sc 0.86567 0.72116 0.40458 0.0
Sc244 Sc 0.81999 0.64712 0.45181 0.0
O245 O 0.85145 0.6674 0.3946 0.0
C246 C 0.79811 0.61184 0.32543 0.0
C247 C 0.85901 0.71693 0.2633 0.0
C248 C 0.7942 0.72541 0.43429 0.0
C249 C 0.92657 0.67693 0.36401 0.0
C250 C 0.86335 0.57844 0.44483 0.0
C251 C 0.85959 0.70311 0.5387 0.0
O252 O 0.82141 0.62313 0.29617 0.0
O253 O 0.85314 0.73432 0.31284 0.0
O254 O 0.79019 0.69053 0.42301 0.0
O255 O 0.91299 0.6457 0.35298 0.0
O256 O 0.84981 0.60247 0.4788 0.0
O257 O 0.87861 0.71051 0.49676 0.0
O258 O 0.86755 0.58409 0.38737 0.0
O259 O 0.91227 0.7076 0.37682 0.0
O260 O 0.83599 0.68269 0.52827 0.0
O261 O 0.86789 0.68219 0.26174 0.0
O262 O 0.79751 0.61127 0.38374 0.0
O263 O 0.82077 0.74032 0.43646 0.0
Sc264 Sc 0.36773 0.37376 0.82821 0.0
Sc265 Sc 0.36572 0.28651 0.90317 0.0
Sc266 Sc 0.32012 0.36038 0.95151 0.0
O267 O 0.35175 0.34042 0.89448 0.0
C268 C 0.36336 0.4292 0.94668 0.0
C269 C 0.42688 0.33108 0.86537 0.0
C270 C 0.35906 0.30336 0.03748 0.0
C271 C 0.36078 0.29181 0.76227 0.0
C272 C 0.29907 0.39646 0.82534 0.0
C273 C 0.29421 0.28227 0.93224 0.0
O274 O 0.3677 0.42391 0.88919 0.0
O275 O 0.41243 0.30023 0.8764 0.0
O276 O 0.33563 0.32409 0.02735 0.0
O277 O 0.36957 0.32661 0.76229 0.0
O278 O 0.29831 0.39693 0.88365 0.0
O279 O 0.32074 0.26727 0.9341 0.0
O280 O 0.32241 0.38511 0.79628 0.0
O281 O 0.35354 0.27412 0.8108 0.0
O282 O 0.2903 0.31721 0.92122 0.0
O283 O 0.41351 0.36259 0.85563 0.0
O284 O 0.34993 0.40477 0.98014 0.0
O285 O 0.3783 0.29639 0.99575 0.0
Sc286 Sc 0.1661 0.64471 0.45331 0.0
Sc287 Sc 0.12082 0.71873 0.40448 0.0
Sc288 Sc 0.11829 0.63143 0.33006 0.0
O289 O 0.13457 0.66471 0.3961 0.0
C290 C 0.18703 0.60827 0.32687 0.0
C291 C 0.19201 0.7226 0.43759 0.0
C292 C 0.12595 0.71332 0.26391 0.0
C293 C 0.12635 0.70126 0.53892 0.0
C294 C 0.12249 0.57599 0.44841 0.0
C295 C 0.05944 0.67507 0.36582 0.0
O296 O 0.18818 0.60853 0.38519 0.0
O297 O 0.16549 0.73763 0.43762 0.0
O298 O 0.11682 0.67865 0.26423 0.0
O299 O 0.14993 0.68066 0.52921 0.0
O300 O 0.11788 0.58135 0.39105 0.0
O301 O 0.07423 0.70574 0.37613 0.0
O302 O 0.13638 0.60015 0.48155 0.0
O303 O 0.10753 0.70863 0.4966 0.0
O304 O 0.07253 0.64321 0.35745 0.0
O305 O 0.19607 0.68806 0.42391 0.0
O306 O 0.16352 0.61934 0.29806 0.0
O307 O 0.13368 0.7309 0.3123 0.0
Sc308 Sc 0.3188 0.6443 0.05713 0.0
Sc309 Sc 0.36316 0.71988 0.10318 0.0
Sc310 Sc 0.36745 0.63314 0.17936 0.0
O311 O 0.35034 0.66557 0.11294 0.0
C312 C 0.29895 0.60905 0.18486 0.0
C313 C 0.29196 0.72183 0.07116 0.0
C314 C 0.35924 0.71535 0.24398 0.0
C315 C 0.35688 0.70099 0.96867 0.0
C316 C 0.36345 0.57684 0.06245 0.0
C317 C 0.42535 0.6775 0.13921 0.0
O318 O 0.29799 0.60806 0.1266 0.0
O319 O 0.31823 0.73744 0.07127 0.0
O320 O 0.36914 0.68103 0.24401 0.0
O321 O 0.33396 0.67968 0.98027 0.0
O322 O 0.36777 0.58223 0.11989 0.0
O323 O 0.40993 0.7078 0.13018 0.0
O324 O 0.34917 0.60049 0.0292 0.0
O325 O 0.37574 0.71039 0.01008 0.0
O326 O 0.41287 0.64541 0.14949 0.0
O327 O 0.28822 0.68731 0.08558 0.0
O328 O 0.32242 0.62088 0.21318 0.0
O329 O 0.35071 0.73223 0.19555 0.0
Sc330 Sc 0.16596 0.36057 0.55718 0.0
Sc331 Sc 0.11964 0.28598 0.59972 0.0
Sc332 Sc 0.11801 0.37165 0.6805 0.0
O333 O 0.13391 0.33959 0.6123 0.0
C334 C 0.18671 0.39475 0.68487 0.0
C335 C 0.19122 0.28221 0.56976 0.0
C336 C 0.12521 0.28845 0.74171 0.0
C337 C 0.1275 0.30593 0.46633 0.0
C338 C 0.1219 0.42858 0.56409 0.0
C339 C 0.0586 0.32971 0.64038 0.0
O340 O 0.18742 0.39608 0.62667 0.0
O341 O 0.16461 0.26744 0.56838 0.0
O342 O 0.1167 0.32331 0.7442 0.0
O343 O 0.1508 0.32618 0.47937 0.0
O344 O 0.1176 0.42287 0.62152 0.0
O345 O 0.0729 0.29928 0.62628 0.0
O346 O 0.13622 0.40518 0.53034 0.0
O347 O 0.10785 0.29733 0.5067 0.0
O348 O 0.07212 0.36073 0.65315 0.0
O349 O 0.19551 0.31646 0.58528 0.0
O350 O 0.16332 0.38288 0.71329 0.0
O351 O 0.13119 0.27157 0.69172 0.0
C352 C 0.21479 0.10439 0.28472 0.0
C353 C 0.21498 0.10068 0.22043 0.0
C354 C 0.24191 0.1038 0.31894 0.0
C355 C 0.27054 0.09967 0.29047 0.0
H356 H 0.19364 0.10967 0.30888 0.0
H357 H 0.24043 0.10894 0.36772 0.0
S358 S 0.28368 0.08315 0.12468 0.0
N359 N 0.24639 0.08829 0.13065 0.0
N360 N 0.29714 0.0874 0.19485 0.0
C361 C 0.27097 0.09322 0.22684 0.0
C362 C 0.24331 0.09362 0.19194 0.0
C363 C 0.21477 0.90219 0.72685 0.0
C364 C 0.21493 0.9035 0.79137 0.0
C365 C 0.24197 0.90226 0.69287 0.0
C366 C 0.27067 0.90343 0.72178 0.0
H367 H 0.19348 0.89936 0.70215 0.0
H368 H 0.2404 0.89923 0.64365 0.0
S369 S 0.28396 0.91213 0.88914 0.0
N370 N 0.24652 0.90984 0.88242 0.0
N371 N 0.29744 0.90992 0.81873 0.0
C372 C 0.27116 0.90727 0.78601 0.0
C373 C 0.24342 0.90736 0.82067 0.0
C374 C 0.71517 0.90415 0.7819 0.0
C375 C 0.7153 0.90663 0.7175 0.0
C376 C 0.74236 0.90463 0.81584 0.0
C377 C 0.77102 0.90733 0.78697 0.0
H378 H 0.69395 0.90006 0.80646 0.0
H379 H 0.74086 0.90059 0.86488 0.0
S380 S 0.78414 0.91981 0.62028 0.0
N381 N 0.74676 0.91603 0.62682 0.0
N382 N 0.79767 0.91667 0.69055 0.0
C383 C 0.77145 0.9124 0.72303 0.0
C384 C 0.74371 0.91216 0.6884 0.0
C385 C 0.71496 0.10785 0.22529 0.0
C386 C 0.71519 0.1049 0.2897 0.0
C387 C 0.74207 0.10733 0.19102 0.0
C388 C 0.77076 0.10402 0.2195 0.0
H389 H 0.69375 0.11243 0.20101 0.0
H390 H 0.74052 0.11181 0.14208 0.0
S391 S 0.78408 0.08985 0.38581 0.0
N392 N 0.74674 0.09427 0.37977 0.0
N393 N 0.79749 0.09343 0.31548 0.0
C394 C 0.77125 0.0984 0.28336 0.0
C395 C 0.7436 0.09876 0.31833 0.0
C396 C 0.74096 0.60958 0.31878 0.0
C397 C 0.76951 0.6041 0.29059 0.0
C398 C 0.71387 0.61027 0.28447 0.0
C399 C 0.71404 0.60533 0.22037 0.0
H400 H 0.73959 0.61569 0.36729 0.0
H401 H 0.69282 0.6166 0.30829 0.0
S402 S 0.78243 0.58393 0.12581 0.0
N403 N 0.79594 0.58923 0.19576 0.0
N404 N 0.74524 0.59026 0.13136 0.0
C405 C 0.74224 0.59696 0.19232 0.0
C406 C 0.76985 0.59646 0.22731 0.0
C407 C 0.71528 0.40498 0.72528 0.0
C408 C 0.71553 0.4076 0.78969 0.0
C409 C 0.7424 0.40537 0.69115 0.0
C410 C 0.77107 0.40818 0.71984 0.0
H411 H 0.69404 0.40072 0.70091 0.0
H412 H 0.74085 0.4011 0.64217 0.0
S413 S 0.78443 0.42166 0.88624 0.0
N414 N 0.74706 0.41767 0.88003 0.0
N415 N 0.79786 0.41819 0.81592 0.0
C416 C 0.7716 0.41363 0.78369 0.0
C417 C 0.74394 0.41344 0.81853 0.0
C418 C 0.242 0.39999 0.81895 0.0
C419 C 0.27057 0.40434 0.79035 0.0
C420 C 0.21487 0.39933 0.78486 0.0
C421 C 0.21501 0.40318 0.72059 0.0
H422 H 0.24059 0.39472 0.8677 0.0
H423 H 0.19375 0.39388 0.80907 0.0
S424 S 0.28352 0.42148 0.62467 0.0
N425 N 0.29706 0.4171 0.69476 0.0
N426 N 0.24625 0.41606 0.63074 0.0
C427 C 0.24327 0.41051 0.692 0.0
C428 C 0.27093 0.41099 0.72678 0.0
C429 C 0.27111 0.60365 0.28519 0.0
C430 C 0.27072 0.60046 0.22084 0.0
C431 C 0.24406 0.60328 0.31964 0.0
C432 C 0.21533 0.59988 0.29135 0.0
H433 H 0.29237 0.60842 0.30922 0.0
H434 H 0.2457 0.60804 0.3685 0.0
S435 S 0.20171 0.58422 0.12549 0.0
N436 N 0.23905 0.58887 0.13118 0.0
N437 N 0.18843 0.58831 0.19583 0.0
C438 C 0.21472 0.59366 0.22765 0.0
C439 C 0.24229 0.59387 0.19251 0.0
C440 C 0.10597 0.24989 0.89944 0.0
C441 C 0.12651 0.21925 0.9068 0.0
C442 C 0.10618 0.27266 0.84672 0.0
C443 C 0.12662 0.26549 0.79863 0.0
H444 H 0.08993 0.25708 0.9353 0.0
H445 H 0.08991 0.29577 0.84335 0.0
S446 S 0.18543 0.18949 0.7944 0.0
N447 N 0.16817 0.18348 0.86082 0.0
N448 N 0.16824 0.22597 0.76163 0.0
C449 C 0.1471 0.23484 0.80483 0.0
C450 C 0.1471 0.21182 0.85878 0.0
C451 C 0.33778 0.78928 0.36377 0.0
C452 C 0.36035 0.78467 0.40902 0.0
C453 C 0.33748 0.76656 0.31088 0.0
C454 C 0.35938 0.73783 0.30145 0.0
H455 H 0.31986 0.81018 0.36953 0.0
H456 H 0.31963 0.77121 0.27744 0.0
S457 S 0.42455 0.71529 0.40314 0.0
N458 N 0.40634 0.75001 0.43851 0.0
N459 N 0.4051 0.70719 0.33987 0.0
C460 C 0.38231 0.73318 0.34557 0.0
C461 C 0.383 0.75666 0.39898 0.0
C462 C 0.14601 0.76621 0.19829 0.0
C463 C 0.12584 0.73534 0.20594 0.0
C464 C 0.14554 0.78868 0.1452 0.0
C465 C 0.12452 0.78164 0.09783 0.0
H466 H 0.16262 0.77287 0.2334 0.0
H467 H 0.16207 0.81147 0.14111 0.0
S468 S 0.06542 0.70538 0.09738 0.0
N469 N 0.08352 0.69966 0.16288 0.0
N470 N 0.0821 0.7419 0.06362 0.0
C471 C 0.10369 0.75125 0.10568 0.0
C472 C 0.10454 0.72807 0.15942 0.0
C473 C 0.33938 0.23994 0.69645 0.0
C474 C 0.36046 0.26981 0.70437 0.0
C475 C 0.33936 0.21748 0.64334 0.0
C476 C 0.36075 0.22353 0.59626 0.0
H477 H 0.32245 0.23412 0.73133 0.0
H478 H 0.32211 0.19556 0.63894 0.0
S479 S 0.42244 0.29656 0.59727 0.0
N480 N 0.40414 0.30326 0.66236 0.0
N481 N 0.40472 0.26097 0.56307 0.0
C482 C 0.38256 0.25281 0.60459 0.0
C483 C 0.3822 0.276 0.65833 0.0
C484 C 0.87819 0.75565 0.10577 0.0
C485 C 0.85711 0.78569 0.09798 0.0
C486 C 0.87807 0.73281 0.15841 0.0
C487 C 0.85718 0.73931 0.20593 0.0
H488 H 0.8947 0.74912 0.07044 0.0
H489 H 0.89485 0.71031 0.16232 0.0
S490 S 0.79682 0.81344 0.20884 0.0
N491 N 0.81438 0.82005 0.14287 0.0
N492 N 0.81449 0.77743 0.2419 0.0
C493 C 0.83606 0.76923 0.19917 0.0
C494 C 0.83596 0.79232 0.14532 0.0
C495 C 0.64342 0.21653 0.64759 0.0
C496 C 0.62353 0.22492 0.59887 0.0
C497 C 0.64392 0.2389 0.70083 0.0
C498 C 0.62493 0.27101 0.70729 0.0
H499 H 0.65908 0.19277 0.64438 0.0
H500 H 0.6597 0.23124 0.7369 0.0
S501 S 0.56785 0.30494 0.59457 0.0
N502 N 0.58353 0.2674 0.56187 0.0
N503 N 0.58495 0.30937 0.66141 0.0
C504 C 0.60474 0.2796 0.65937 0.0
C505 C 0.60386 0.25655 0.60549 0.0
C506 C 0.83971 0.24079 0.80993 0.0
C507 C 0.86028 0.27125 0.80216 0.0
C508 C 0.84009 0.21815 0.86287 0.0
C509 C 0.8614 0.22458 0.90994 0.0
H510 H 0.82286 0.23463 0.77507 0.0
H511 H 0.82322 0.19576 0.86714 0.0
S512 S 0.92167 0.29944 0.90966 0.0
N513 N 0.90332 0.30579 0.84459 0.0
N514 N 0.90462 0.26321 0.94349 0.0
C515 C 0.88267 0.2545 0.90183 0.0
C516 C 0.88191 0.27786 0.84829 0.0
C517 C 0.60474 0.73659 0.34377 0.0
C518 C 0.6264 0.74207 0.2973 0.0
C519 C 0.60461 0.75958 0.39624 0.0
C520 C 0.6264 0.78874 0.40489 0.0
H521 H 0.58746 0.71471 0.33922 0.0
H522 H 0.58755 0.75378 0.43086 0.0
S523 S 0.68892 0.81342 0.29706 0.0
N524 N 0.67057 0.77818 0.26325 0.0
N525 N 0.67067 0.82108 0.36195 0.0
C526 C 0.64824 0.79442 0.35846 0.0
C527 C 0.64818 0.77117 0.3048 0.0
C528 C 0.60476 0.75282 0.89649 0.0
C529 C 0.62592 0.72299 0.90514 0.0
C530 C 0.60533 0.77575 0.84392 0.0
C531 C 0.6268 0.76955 0.7973 0.0
H532 H 0.58791 0.75924 0.93124 0.0
H533 H 0.58852 0.79818 0.83945 0.0
S534 S 0.68766 0.69608 0.79696 0.0
N535 N 0.66935 0.68913 0.86198 0.0
N536 N 0.6701 0.73191 0.76318 0.0
C537 C 0.64794 0.73974 0.80482 0.0
C538 C 0.64755 0.71656 0.85858 0.0
C539 C 0.87917 0.2567 0.40061 0.0
C540 C 0.85757 0.28606 0.40914 0.0
C541 C 0.87902 0.23378 0.34803 0.0
C542 C 0.85753 0.23953 0.30136 0.0
H543 H 0.89614 0.25077 0.4353 0.0
H544 H 0.89622 0.21183 0.3435 0.0
S545 S 0.79561 0.31164 0.3007 0.0
N546 N 0.81369 0.31894 0.36586 0.0
N547 N 0.8137 0.27615 0.26706 0.0
C548 C 0.83586 0.26875 0.3089 0.0
C549 C 0.83583 0.29194 0.36263 0.0
C550 C 0.60519 0.25827 0.10941 0.0
C551 C 0.62695 0.28743 0.10054 0.0
C552 C 0.60557 0.23513 0.16175 0.0
C553 C 0.62747 0.24048 0.2078 0.0
H554 H 0.58795 0.25262 0.07512 0.0
H555 H 0.58826 0.21332 0.1666 0.0
S556 S 0.69015 0.31159 0.20707 0.0
N557 N 0.67154 0.3195 0.14271 0.0
N558 N 0.67193 0.2763 0.24101 0.0
C559 C 0.64928 0.26949 0.19995 0.0
C560 C 0.64908 0.2929 0.14649 0.0
C561 C 0.84055 0.7183 0.64437 0.0
C562 C 0.86199 0.72455 0.59747 0.0
C563 C 0.84007 0.74106 0.69712 0.0
C564 C 0.86068 0.77146 0.70495 0.0
H565 H 0.82365 0.69595 0.6401 0.0
H566 H 0.82309 0.73502 0.73183 0.0
S567 S 0.92238 0.79923 0.59781 0.0
N568 N 0.90534 0.76298 0.56402 0.0
N569 N 0.90389 0.80578 0.66272 0.0
C570 C 0.88244 0.77791 0.65898 0.0
C571 C 0.88329 0.75442 0.60556 0.0
C572 C 0.34133 0.26801 0.19813 0.0
C573 C 0.35931 0.23489 0.20354 0.0
C574 C 0.34203 0.29056 0.14519 0.0
C575 C 0.36105 0.28131 0.09556 0.0
H576 H 0.32633 0.27657 0.23504 0.0
H577 H 0.32733 0.31531 0.14309 0.0
S578 S 0.41308 0.19768 0.08686 0.0
N579 N 0.39691 0.19413 0.15478 0.0
N580 N 0.39853 0.23636 0.05555 0.0
C581 C 0.37943 0.24837 0.1006 0.0
C582 C 0.37841 0.22519 0.15433 0.0
C583 C 0.14357 0.73694 0.69965 0.0
C584 C 0.12463 0.76917 0.70549 0.0
C585 C 0.14328 0.71443 0.64663 0.0
C586 C 0.12372 0.72282 0.59744 0.0
H587 H 0.15909 0.72922 0.73613 0.0
H588 H 0.15883 0.69054 0.644 0.0
S589 S 0.0686 0.8034 0.59098 0.0
N590 N 0.08524 0.80783 0.65828 0.0
N591 N 0.08427 0.76562 0.55897 0.0
C592 C 0.10421 0.75469 0.60324 0.0
C593 C 0.10484 0.77786 0.65699 0.0
C594 C 0.37985 0.75103 0.90057 0.0
C595 C 0.35867 0.72111 0.90866 0.0
C596 C 0.37971 0.77384 0.84787 0.0
C597 C 0.35865 0.76744 0.8006 0.0
H598 H 0.39641 0.75756 0.9358 0.0
H599 H 0.39652 0.79632 0.8438 0.0
S600 S 0.29782 0.69381 0.79875 0.0
N601 N 0.31562 0.68703 0.86434 0.0
N602 N 0.31562 0.72963 0.76536 0.0
C603 C 0.33745 0.7376 0.80764 0.0
C604 C 0.33742 0.71452 0.86148 0.0
C605 C 0.10504 0.25596 0.39747 0.0
C606 C 0.12634 0.28562 0.40644 0.0
C607 C 0.10584 0.23283 0.34514 0.0
C608 C 0.12771 0.23863 0.29912 0.0
H609 H 0.08789 0.24986 0.43177 0.0
H610 H 0.08889 0.21057 0.34035 0.0
S611 S 0.1891 0.31149 0.29989 0.0
N612 N 0.17034 0.3189 0.36425 0.0
N613 N 0.17155 0.27569 0.26595 0.0
C614 C 0.14901 0.26824 0.30699 0.0
C615 C 0.14838 0.29165 0.36048 0.0
C616 C 0.00895 0.14499 0.14343 0.0
C617 C 0.02594 0.1789 0.1387 0.0
C618 C 0.97708 0.14533 0.14384 0.0
C619 C 0.96055 0.17959 0.13953 0.0
H620 H 0.02029 0.11768 0.14675 0.0
H621 H 0.96538 0.11825 0.14743 0.0
S622 S -0.0061 0.27661 0.12689 0.0
N623 N 0.02371 0.248 0.12998 0.0
N624 N 0.96372 0.24862 0.13069 0.0
C625 C 0.97716 0.21384 0.13466 0.0
C626 C 0.00979 0.2135 0.13425 0.0
C627 C 0.47718 0.79766 0.64149 0.0
C628 C 0.46028 0.83135 0.63325 0.0
C629 C 0.50921 0.79809 0.64102 0.0
C630 C 0.52552 0.83223 0.63229 0.0
H631 H 0.46563 0.77087 0.64975 0.0
H632 H 0.52124 0.77161 0.64893 0.0
S633 S 0.49205 0.92739 0.60069 0.0
N634 N 0.46235 0.8992 0.61061 0.0
N635 N 0.52226 0.89999 0.6098 0.0
C636 C 0.50886 0.86584 0.62174 0.0
C637 C 0.47636 0.86541 0.6222 0.0
C638 C 0.97652 0.85997 0.84544 0.0
C639 C 0.95963 0.82967 0.87055 0.0
C640 C 0.00838 0.8596 0.84512 0.0
C641 C 0.02489 0.82891 0.86989 0.0
H642 H 0.9651 0.88428 0.82533 0.0
H643 H 0.0201 0.88365 0.82482 0.0
S644 S 0.99175 0.74302 0.9437 0.0
N645 N 0.96189 0.76836 0.92241 0.0
N646 N 0.02191 0.76768 0.92185 0.0
C647 C 0.00838 0.79837 0.89545 0.0
C648 C 0.97578 0.79875 0.89577 0.0
C649 C 0.47655 0.14471 0.36348 0.0
C650 C 0.45949 0.17857 0.36754 0.0
C651 C 0.50842 0.14518 0.36353 0.0
C652 C 0.52486 0.17953 0.36768 0.0
H653 H 0.46528 0.11733 0.36032 0.0
H654 H 0.52019 0.11814 0.36046 0.0
S655 S 0.49131 0.27647 0.37878 0.0
N656 N 0.46157 0.24772 0.37557 0.0
N657 N 0.52155 0.2486 0.37566 0.0
C658 C 0.50818 0.21374 0.37187 0.0
C659 C 0.47556 0.21326 0.37179 0.0
C660 C 0.50801 0.64581 0.13401 0.0
C661 C 0.52445 0.6802 0.13668 0.0
C662 C 0.47613 0.6454 0.13461 0.0
C663 C 0.45918 0.67936 0.13795 0.0
H664 H 0.5198 0.61877 0.13118 0.0
H665 H 0.46476 0.61805 0.13219 0.0
S666 S 0.49113 0.7772 0.14777 0.0
N667 N 0.52133 0.74928 0.1439 0.0
N668 N 0.46133 0.74853 0.14508 0.0
C669 C 0.47527 0.71407 0.14062 0.0
C670 C 0.50787 0.71449 0.13997 0.0
C671 C 0.97597 0.30256 0.60915 0.0
C672 C 0.95962 0.33017 0.64238 0.0
C673 C 0.00801 0.30214 0.60928 0.0
C674 C 0.0248 0.32928 0.6427 0.0
H675 H 0.96398 0.28164 0.58179 0.0
H676 H 0.01966 0.28089 0.582 0.0
S677 S -0.00727 0.40444 0.74363 0.0
N678 N 0.96264 0.38317 0.7139 0.0
N679 N 0.02252 0.38238 0.71422 0.0
C680 C 0.00864 0.35614 0.67786 0.0
C681 C 0.97617 0.35658 0.67768 0.0
C682 C 0.50932 0.30334 0.8964 0.0
C683 C 0.52584 0.33159 0.86486 0.0
C684 C 0.4773 0.30285 0.89565 0.0
C685 C 0.46067 0.3306 0.86332 0.0
H686 H 0.52117 0.28189 0.9229 0.0
H687 H 0.46552 0.28109 0.92166 0.0
S688 S 0.49312 0.40775 0.76687 0.0
N689 N 0.5231 0.38599 0.79602 0.0
N690 N 0.46321 0.38506 0.79462 0.0
C691 C 0.47696 0.35816 0.82985 0.0
C692 C 0.50944 0.35866 0.83062 0.0
C693 C 0.00923 0.70515 0.39294 0.0
C694 C 0.02566 0.67629 0.36273 0.0
C695 C 0.97719 0.70561 0.39247 0.0
C696 C 0.96042 0.67726 0.36169 0.0
H697 H 0.02115 0.7271 0.41825 0.0
H698 H 0.96552 0.72791 0.41747 0.0
S699 S -0.0073 0.59806 0.26929 0.0
N700 N 0.02274 0.62047 0.29698 0.0
N701 N 0.96286 0.62133 0.29595 0.0
C702 C 0.97666 0.64902 0.32955 0.0
C703 C 0.00916 0.64853 0.33011 0.0
C704 C 0.11534 0.00546 0.06964 0.0
C705 C 0.11364 0.03904 0.03501 0.0
C706 C 0.11566 0.96968 0.04107 0.0
C707 C 0.11419 0.966 0.97673 0.0
H708 H 0.11862 0.00681 0.11872 0.0
H709 H 0.11871 0.9448 0.06972 0.0
S710 S 0.10318 0.04526 0.86662 0.0
N711 N 0.1057 0.06635 0.93393 0.0
N712 N 0.1064 0.99921 0.88031 0.0
C713 C 0.10948 0.99926 0.94218 0.0
C714 C 0.10924 0.03572 0.97129 0.0
C715 C 0.37007 0.97049 0.47109 0.0
C716 C 0.37067 0.96687 0.53545 0.0
C717 C 0.37058 0.00623 0.44254 0.0
C718 C 0.37156 0.03987 0.4772 0.0
H719 H 0.36759 0.94555 0.44232 0.0
H720 H 0.36804 0.00746 0.39328 0.0
S721 S 0.37971 0.04621 0.64612 0.0
N722 N 0.37693 1.00012 0.63226 0.0
N723 N 0.37797 0.06729 0.5787 0.0
C724 C 0.37511 0.03662 0.54115 0.0
C725 C 0.37471 1.00016 0.57025 0.0
C726 C 0.87079 0.03736 0.97007 0.0
C727 C 0.87107 0.04099 0.03446 0.0
C728 C 0.87091 1.00158 0.94151 0.0
C729 C 0.87116 0.96793 0.97617 0.0
H730 H 0.86885 0.06235 0.94129 0.0
H731 H 0.86867 1.00039 0.89219 0.0
S732 S 0.87793 0.96145 0.14535 0.0
N733 N 0.87603 0.00759 0.13141 0.0
N734 N 0.87637 0.94041 0.07787 0.0
C735 C 0.87431 0.97112 0.04023 0.0
C736 C 0.8743 0.0076 0.06933 0.0
C737 C 0.61474 0.00915 0.44044 0.0
C738 C 0.61375 0.04272 0.47523 0.0
C739 C 0.6151 0.97336 0.46887 0.0
C740 C 0.61437 0.96963 0.53325 0.0
H741 H 0.61744 0.01047 0.39121 0.0
H742 H 0.61763 0.94847 0.44002 0.0
S743 S 0.60513 0.0488 0.64412 0.0
N744 N 0.60706 0.06997 0.57679 0.0
N745 N 0.6079 1.00273 0.63012 0.0
C746 C 0.61028 1.00286 0.56812 0.0
C747 C 0.60999 0.03937 0.53915 0.0
C748 C 0.61549 0.50911 0.06785 0.0
C749 C 0.61405 0.54266 0.0331 0.0
C750 C 0.61605 0.47332 0.03938 0.0
C751 C 0.61504 0.4696 0.97501 0.0
H752 H 0.61839 0.51049 0.11702 0.0
H753 H 0.61891 0.44845 0.06814 0.0
S754 S 0.60487 0.54872 0.86438 0.0
N755 N 0.60686 0.56988 0.93171 0.0
N756 N 0.608 0.50268 0.87828 0.0
C757 C 0.61058 0.5028 0.94024 0.0
C758 C 0.61012 0.53928 0.96926 0.0
C759 C 0.87043 0.53744 0.53761 0.0
C760 C 0.87086 0.54102 0.47322 0.0
C761 C 0.87075 0.50169 0.56623 0.0
C762 C 0.87138 0.46803 0.53162 0.0
H763 H 0.8682 0.56242 0.56635 0.0
H764 H 0.86834 0.50051 0.61553 0.0
S765 S 0.87888 0.46149 0.36257 0.0
N766 N 0.87651 0.50761 0.37639 0.0
N767 N 0.87723 0.44049 0.43006 0.0
C768 C 0.87475 0.47121 0.46761 0.0
C769 C 0.87452 0.50765 0.43844 0.0
C770 C 0.36929 0.47028 0.03986 0.0
C771 C 0.37057 0.46662 0.97551 0.0
C772 C 0.36963 0.50606 0.06844 0.0
C773 C 0.37111 0.53967 0.03383 0.0
H774 H 0.36644 0.44536 0.06852 0.0
H775 H 0.36658 0.50735 0.11759 0.0
S776 S 0.38079 0.54599 0.86523 0.0
N777 N 0.37779 0.49991 0.87897 0.0
N778 N 0.37848 0.56705 0.9326 0.0
C779 C 0.37522 0.53639 0.97002 0.0
C780 C 0.37499 0.49993 0.9409 0.0
C781 C 0.11669 0.53512 0.54183 0.0
C782 C 0.11497 0.53876 0.47751 0.0
C783 C 0.11622 0.49938 0.57047 0.0
C784 C 0.11413 0.46579 0.53592 0.0
H785 H 0.12005 0.56 0.57036 0.0
H786 H 0.11969 0.49804 0.6195 0.0
S787 S 0.1029 0.45953 0.36774 0.0
N788 N 0.10652 0.50556 0.38128 0.0
N789 N 0.10556 0.43847 0.43504 0.0
C790 C 0.10948 0.4691 0.47228 0.0
C791 C 0.10986 0.50553 0.4431 0.0
C792 C 0.24884 0.2273 0.0481 0.0
C793 C 0.21877 0.23897 0.03559 0.0
C794 C 0.27315 0.23904 0.0113 0.0
C795 C 0.26819 0.26273 0.96052 0.0
H796 H 0.25363 0.20887 0.08668 0.0
H797 H 0.29607 0.2308 0.0243 0.0
S798 S 0.19363 0.2986 0.90469 0.0
N799 N 0.18523 0.27377 0.96658 0.0
N800 N 0.23102 0.29575 0.89727 0.0
C801 C 0.23817 0.27374 0.94641 0.0
C802 C 0.21345 0.26207 0.98414 0.0
C803 C 0.27186 0.74099 0.49377 0.0
C804 C 0.26704 0.76433 0.54501 0.0
C805 C 0.24747 0.72957 0.45696 0.0
C806 C 0.2174 0.74114 0.46993 0.0
H807 H 0.29472 0.73262 0.48057 0.0
H808 H 0.25216 0.71121 0.41822 0.0
S809 S 0.1926 0.80059 0.60125 0.0
N810 N 0.22998 0.7975 0.60854 0.0
N811 N 0.18405 0.77599 0.5392 0.0
C812 C 0.21223 0.7642 0.52144 0.0
C813 C 0.23705 0.77561 0.55918 0.0
C814 C 0.21262 0.73931 0.01171 0.0
C815 C 0.21779 0.76353 0.96164 0.0
C816 C 0.2367 0.7276 0.04896 0.0
C817 C 0.26676 0.73976 0.03757 0.0
H818 H 0.18968 0.7306 0.02384 0.0
H819 H 0.23175 0.70874 0.08695 0.0
S820 S 0.29244 0.801 0.90893 0.0
N821 N 0.25514 0.7977 0.9003 0.0
N822 N 0.30056 0.77571 0.97045 0.0
C823 C 0.2723 0.76344 0.98686 0.0
C824 C 0.2478 0.77512 0.94869 0.0
C825 C 0.2708 0.26438 0.51165 0.0
C826 C 0.26582 0.24042 0.46123 0.0
C827 C 0.24658 0.27591 0.54874 0.0
C828 C 0.21652 0.26391 0.53678 0.0
H829 H 0.29368 0.2731 0.52409 0.0
H830 H 0.25142 0.29464 0.58695 0.0
S831 S 0.1914 0.20269 0.40768 0.0
N832 N 0.22872 0.20614 0.39946 0.0
N833 N 0.18301 0.22792 0.46916 0.0
C834 C 0.21119 0.24027 0.48593 0.0
C835 C 0.23586 0.2287 0.44799 0.0
C836 C 0.77063 0.74425 0.01074 0.0
C837 C 0.76557 0.76769 0.95969 0.0
C838 C 0.74646 0.73291 0.04807 0.0
C839 C 0.7164 0.74458 0.03573 0.0
H840 H 0.79353 0.73577 0.02343 0.0
H841 H 0.75134 0.71456 0.08672 0.0
S842 S 0.6911 0.80462 0.90539 0.0
N843 N 0.72842 0.80128 0.89721 0.0
N844 N 0.68278 0.77986 0.9674 0.0
C845 C 0.71099 0.7678 0.98441 0.0
C846 C 0.73562 0.77917 0.94621 0.0
C847 C 0.77082 0.24472 0.49528 0.0
C848 C 0.76581 0.26808 0.54645 0.0
C849 C 0.74659 0.23329 0.45815 0.0
C850 C 0.7165 0.24481 0.47079 0.0
H851 H 0.79371 0.23627 0.48245 0.0
H852 H 0.75142 0.2149 0.41952 0.0
S853 S 0.69128 0.30478 0.60126 0.0
N854 N 0.72864 0.30163 0.60911 0.0
N855 N 0.68293 0.27998 0.53931 0.0
C856 C 0.71115 0.26808 0.52204 0.0
C857 C 0.73583 0.27956 0.56004 0.0
C858 C 0.74803 0.27972 0.95749 0.0
C859 C 0.71798 0.26776 0.96963 0.0
C860 C 0.77232 0.26793 0.99421 0.0
C861 C 0.76737 0.24384 0.04451 0.0
H862 H 0.75281 0.29858 0.9194 0.0
H863 H 0.7952 0.27658 0.9816 0.0
S864 S 0.69291 0.20653 0.09872 0.0
N865 N 0.6845 0.23185 0.03738 0.0
N866 N 0.73025 0.20979 0.10661 0.0
C867 C 0.73739 0.23233 0.05805 0.0
C868 C 0.71269 0.24406 0.02038 0.0
C869 C 0.77271 0.76853 0.51305 0.0
C870 C 0.76805 0.74495 0.46203 0.0
C871 C 0.74817 0.78021 0.54926 0.0
C872 C 0.71815 0.76859 0.5359 0.0
H873 H 0.79555 0.77675 0.52666 0.0
H874 H 0.75271 0.79863 0.58799 0.0
S875 S 0.69382 0.70899 0.40431 0.0
N876 N 0.73124 0.71195 0.39776 0.0
N877 N 0.68503 0.73377 0.46604 0.0
C878 C 0.71315 0.74552 0.4843 0.0
C879 C 0.7381 0.73393 0.44714 0.0
loop_
_geom_bond_atom_site_label_1
_geom_bond_atom_site_label_2
_geom_bond_distance
_geom_bond_site_symmetry_2
_ccdc_geom_bond_type
Sc0 O3 2.025 . S
Sc0 O10 2.105 . S
Sc0 O13 2.105 . S
Sc0 O16 2.105 . S
Sc0 O19 2.105 1_554 S
Sc1 O3 2.025 . S
Sc1 O11 2.105 1_554 S
Sc1 O15 2.105 . S
Sc1 O17 2.105 . S
Sc1 O21 2.105 . S
Sc2 O3 2.025 . S
Sc2 O12 2.105 . S
Sc2 O14 2.105 . S
Sc2 O18 2.105 . S
Sc2 O20 2.105 . S
O3 Sc0 2.025 . S
O3 Sc1 2.025 . S
O3 Sc2 2.025 . S
C4 O10 1.268 . S
C4 O20 1.268 . S
C5 O11 1.268 . S
C5 O19 1.268 . S
C6 O12 1.268 . S
C6 O21 1.268 . S
C7 O13 1.268 . S
C7 O17 1.268 . S
C8 O14 1.268 . S
C8 O16 1.268 . S
C9 O15 1.268 . S
C9 O18 1.268 . S
O10 Sc0 2.105 . S
O10 C4 1.268 . S
O11 Sc1 2.105 1_556 S
O11 C5 1.268 . S
O12 Sc2 2.105 . S
O12 C6 1.268 . S
O13 Sc0 2.105 . S
O13 C7 1.268 . S
O14 Sc2 2.105 . S
O14 C8 1.268 . S
O15 Sc1 2.105 . S
O15 C9 1.268 . S
O16 Sc0 2.105 . S
O16 C8 1.268 . S
O17 Sc1 2.105 . S
O17 C7 1.268 . S
O18 Sc2 2.105 . S
O18 C9 1.268 . S
O19 Sc0 2.105 1_556 S
O19 C5 1.268 . S
O20 Sc2 2.105 . S
O20 C4 1.268 . S
O21 Sc1 2.105 . S
O21 C6 1.268 . S
Sc22 O25 2.025 . S
Sc22 O32 2.105 . S
Sc22 O35 2.105 . S
Sc22 O38 2.105 . S
Sc22 O41 2.105 . S
Sc23 O25 2.025 . S
Sc23 O33 2.105 . S
Sc23 O37 2.105 . S
Sc23 O39 2.105 . S
Sc23 O43 2.105 . S
Sc24 O25 2.025 . S
Sc24 O34 2.105 . S
Sc24 O36 2.105 . S
Sc24 O40 2.105 . S
Sc24 O42 2.105 . S
O25 Sc22 2.025 . S
O25 Sc23 2.025 . S
O25 Sc24 2.025 . S
C26 O32 1.268 . S
C26 O42 1.268 . S
C27 O33 1.268 . S
C27 O41 1.268 . S
C28 O34 1.268 . S
C28 O43 1.268 . S
C29 O35 1.268 . S
C29 O39 1.268 . S
C30 O36 1.268 . S
C30 O38 1.268 . S
C31 O37 1.268 . S
C31 O40 1.268 . S
O32 Sc22 2.105 . S
O32 C26 1.268 . S
O33 Sc23 2.105 . S
O33 C27 1.268 . S
O34 Sc24 2.105 . S
O34 C28 1.268 . S
O35 Sc22 2.105 . S
O35 C29 1.268 . S
O36 Sc24 2.105 . S
O36 C30 1.268 . S
O37 Sc23 2.105 . S
O37 C31 1.268 . S
O38 Sc22 2.105 . S
O38 C30 1.268 . S
O39 Sc23 2.105 . S
O39 C29 1.268 . S
O40 Sc24 2.105 . S
O40 C31 1.268 . S
O41 Sc22 2.105 . S
O41 C27 1.268 . S
O42 Sc24 2.105 . S
O42 C26 1.268 . S
O43 Sc23 2.105 . S
O43 C28 1.268 . S
Sc44 O47 2.025 . S
Sc44 O54 2.105 . S
Sc44 O57 2.105 . S
Sc44 O60 2.105 . S
Sc44 O63 2.105 1_556 S
Sc45 O47 2.025 . S
Sc45 O55 2.105 1_556 S
Sc45 O59 2.105 . S
Sc45 O61 2.105 . S
Sc45 O65 2.105 . S
Sc46 O47 2.025 . S
Sc46 O56 2.105 . S
Sc46 O58 2.105 . S
Sc46 O62 2.105 . S
Sc46 O64 2.105 . S
O47 Sc44 2.025 . S
O47 Sc45 2.025 . S
O47 Sc46 2.025 . S
C48 O54 1.268 . S
C48 O64 1.268 . S
C49 O55 1.268 . S
C49 O63 1.268 . S
C50 O56 1.268 . S
C50 O65 1.268 . S
C51 O57 1.268 . S
C51 O61 1.268 . S
C52 O58 1.268 . S
C52 O60 1.268 . S
C53 O59 1.268 . S
C53 O62 1.268 . S
O54 Sc44 2.105 . S
O54 C48 1.268 . S
O55 Sc45 2.105 1_554 S
O55 C49 1.268 . S
O56 Sc46 2.105 . S
O56 C50 1.268 . S
O57 Sc44 2.105 . S
O57 C51 1.268 . S
O58 Sc46 2.105 . S
O58 C52 1.268 . S
O59 Sc45 2.105 . S
O59 C53 1.268 . S
O60 Sc44 2.105 . S
O60 C52 1.268 . S
O61 Sc45 2.105 . S
O61 C51 1.268 . S
O62 Sc46 2.105 . S
O62 C53 1.268 . S
O63 Sc44 2.105 1_554 S
O63 C49 1.268 . S
O64 Sc46 2.105 . S
O64 C48 1.268 . S
O65 Sc45 2.105 . S
O65 C50 1.268 . S
Sc66 O69 2.025 . S
Sc66 O76 2.105 . S
Sc66 O79 2.105 . S
Sc66 O82 2.105 . S
Sc66 O85 2.105 . S
Sc67 O69 2.025 . S
Sc67 O77 2.105 . S
Sc67 O81 2.105 . S
Sc67 O83 2.105 . S
Sc67 O87 2.105 . S
Sc68 O69 2.025 . S
Sc68 O78 2.105 . S
Sc68 O80 2.105 . S
Sc68 O84 2.105 . S
Sc68 O86 2.105 . S
O69 Sc66 2.025 . S
O69 Sc67 2.025 . S
O69 Sc68 2.025 . S
C70 O76 1.268 . S
C70 O86 1.268 . S
C71 O77 1.268 . S
C71 O85 1.268 . S
C72 O78 1.268 . S
C72 O87 1.268 . S
C73 O79 1.268 . S
C73 O83 1.268 . S
C74 O80 1.268 . S
C74 O82 1.268 . S
C75 O81 1.268 . S
C75 O84 1.268 . S
O76 Sc66 2.105 . S
O76 C70 1.268 . S
O77 Sc67 2.105 . S
O77 C71 1.268 . S
O78 Sc68 2.105 . S
O78 C72 1.268 . S
O79 Sc66 2.105 . S
O79 C73 1.268 . S
O80 Sc68 2.105 . S
O80 C74 1.268 . S
O81 Sc67 2.105 . S
O81 C75 1.268 . S
O82 Sc66 2.105 . S
O82 C74 1.268 . S
O83 Sc67 2.105 . S
O83 C73 1.268 . S
O84 Sc68 2.105 . S
O84 C75 1.268 . S
O85 Sc66 2.105 . S
O85 C71 1.268 . S
O86 Sc68 2.105 . S
O86 C70 1.268 . S
O87 Sc67 2.105 . S
O87 C72 1.268 . S
Sc88 O91 2.025 . S
Sc88 O98 2.105 . S
Sc88 O101 2.105 . S
Sc88 O104 2.105 . S
Sc88 O107 2.105 . S
Sc89 O91 2.025 . S
Sc89 O99 2.105 . S
Sc89 O103 2.105 . S
Sc89 O105 2.105 . S
Sc89 O109 2.105 1_556 S
Sc90 O91 2.025 . S
Sc90 O100 2.105 1_556 S
Sc90 O102 2.105 . S
Sc90 O106 2.105 . S
Sc90 O108 2.105 . S
O91 Sc88 2.025 . S
O91 Sc89 2.025 . S
O91 Sc90 2.025 . S
C92 O98 1.268 . S
C92 O108 1.268 . S
C93 O99 1.268 . S
C93 O107 1.268 . S
C94 O100 1.268 . S
C94 O109 1.268 . S
C95 O101 1.268 . S
C95 O105 1.268 . S
C96 O102 1.268 . S
C96 O104 1.268 . S
C97 O103 1.268 . S
C97 O106 1.268 . S
O98 Sc88 2.105 . S
O98 C92 1.268 . S
O99 Sc89 2.105 . S
O99 C93 1.268 . S
O100 Sc90 2.105 1_554 S
O100 C94 1.268 . S
O101 Sc88 2.105 . S
O101 C95 1.268 . S
O102 Sc90 2.105 . S
O102 C96 1.268 . S
O103 Sc89 2.105 . S
O103 C97 1.268 . S
O104 Sc88 2.105 . S
O104 C96 1.268 . S
O105 Sc89 2.105 . S
O105 C95 1.268 . S
O106 Sc90 2.105 . S
O106 C97 1.268 . S
O107 Sc88 2.105 . S
O107 C93 1.268 . S
O108 Sc90 2.105 . S
O108 C92 1.268 . S
O109 Sc89 2.105 1_554 S
O109 C94 1.268 . S
Sc110 O113 2.025 . S
Sc110 O120 2.105 . S
Sc110 O123 2.105 . S
Sc110 O126 2.105 . S
Sc110 O129 2.105 . S
Sc111 O113 2.025 . S
Sc111 O121 2.105 . S
Sc111 O125 2.105 . S
Sc111 O127 2.105 . S
Sc111 O131 2.105 . S
Sc112 O113 2.025 . S
Sc112 O122 2.105 . S
Sc112 O124 2.105 . S
Sc112 O128 2.105 . S
Sc112 O130 2.105 . S
O113 Sc110 2.025 . S
O113 Sc111 2.025 . S
O113 Sc112 2.025 . S
C114 O120 1.268 . S
C114 O130 1.268 . S
C115 O121 1.268 . S
C115 O129 1.268 . S
C116 O122 1.268 . S
C116 O131 1.268 . S
C117 O123 1.268 . S
C117 O127 1.268 . S
C118 O124 1.268 . S
C118 O126 1.268 . S
C119 O125 1.268 . S
C119 O128 1.268 . S
O120 Sc110 2.105 . S
O120 C114 1.268 . S
O121 Sc111 2.105 . S
O121 C115 1.268 . S
O122 Sc112 2.105 . S
O122 C116 1.268 . S
O123 Sc110 2.105 . S
O123 C117 1.268 . S
O124 Sc112 2.105 . S
O124 C118 1.268 . S
O125 Sc111 2.105 . S
O125 C119 1.268 . S
O126 Sc110 2.105 . S
O126 C118 1.268 . S
O127 Sc111 2.105 . S
O127 C117 1.268 . S
O128 Sc112 2.105 . S
O128 C119 1.268 . S
O129 Sc110 2.105 . S
O129 C115 1.268 . S
O130 Sc112 2.105 . S
O130 C114 1.268 . S
O131 Sc111 2.105 . S
O131 C116 1.268 . S
Sc132 O135 2.025 . S
Sc132 O142 2.105 . S
Sc132 O145 2.105 1_554 S
Sc132 O148 2.105 . S
Sc132 O151 2.105 . S
Sc133 O135 2.025 . S
Sc133 O143 2.105 . S
Sc133 O147 2.105 . S
Sc133 O149 2.105 1_554 S
Sc133 O153 2.105 . S
Sc134 O135 2.025 . S
Sc134 O144 2.105 . S
Sc134 O146 2.105 . S
Sc134 O150 2.105 . S
Sc134 O152 2.105 . S
O135 Sc132 2.025 . S
O135 Sc133 2.025 . S
O135 Sc134 2.025 . S
C136 O142 1.268 . S
C136 O152 1.268 . S
C137 O143 1.268 . S
C137 O151 1.268 . S
C138 O144 1.268 . S
C138 O153 1.268 . S
C139 O145 1.268 . S
C139 O149 1.268 . S
C140 O146 1.268 . S
C140 O148 1.268 . S
C141 O147 1.268 . S
C141 O150 1.268 . S
O142 Sc132 2.105 . S
O142 C136 1.268 . S
O143 Sc133 2.105 . S
O143 C137 1.268 . S
O144 Sc134 2.105 . S
O144 C138 1.268 . S
O145 Sc132 2.105 1_556 S
O145 C139 1.268 . S
O146 Sc134 2.105 . S
O146 C140 1.268 . S
O147 Sc133 2.105 . S
O147 C141 1.268 . S
O148 Sc132 2.105 . S
O148 C140 1.268 . S
O149 Sc133 2.105 1_556 S
O149 C139 1.268 . S
O150 Sc134 2.105 . S
O150 C141 1.268 . S
O151 Sc132 2.105 . S
O151 C137 1.268 . S
O152 Sc134 2.105 . S
O152 C136 1.268 . S
O153 Sc133 2.105 . S
O153 C138 1.268 . S
Sc154 O157 2.025 . S
Sc154 O164 2.105 . S
Sc154 O167 2.105 . S
Sc154 O170 2.105 . S
Sc154 O173 2.105 . S
Sc155 O157 2.025 . S
Sc155 O165 2.105 . S
Sc155 O169 2.105 . S
Sc155 O171 2.105 . S
Sc155 O175 2.105 . S
Sc156 O157 2.025 . S
Sc156 O166 2.105 . S
Sc156 O168 2.105 . S
Sc156 O172 2.105 . S
Sc156 O174 2.105 . S
O157 Sc154 2.025 . S
O157 Sc155 2.025 . S
O157 Sc156 2.025 . S
C158 O164 1.268 . S
C158 O174 1.268 . S
C159 O165 1.268 . S
C159 O173 1.268 . S
C160 O166 1.268 . S
C160 O175 1.268 . S
C161 O167 1.268 . S
C161 O171 1.268 . S
C162 O168 1.268 . S
C162 O170 1.268 . S
C163 O169 1.268 . S
C163 O172 1.268 . S
O164 Sc154 2.105 . S
O164 C158 1.268 . S
O165 Sc155 2.105 . S
O165 C159 1.268 . S
O166 Sc156 2.105 . S
O166 C160 1.268 . S
O167 Sc154 2.105 . S
O167 C161 1.268 . S
O168 Sc156 2.105 . S
O168 C162 1.268 . S
O169 Sc155 2.105 . S
O169 C163 1.268 . S
O170 Sc154 2.105 . S
O170 C162 1.268 . S
O171 Sc155 2.105 . S
O171 C161 1.268 . S
O172 Sc156 2.105 . S
O172 C163 1.268 . S
O173 Sc154 2.105 . S
O173 C159 1.268 . S
O174 Sc156 2.105 . S
O174 C158 1.268 . S
O175 Sc155 2.105 . S
O175 C160 1.268 . S
Sc176 O179 2.025 . S
Sc176 O186 2.105 . S
Sc176 O189 2.105 . S
Sc176 O192 2.105 . S
Sc176 O195 2.105 1_554 S
Sc177 O179 2.025 . S
Sc177 O187 2.105 1_554 S
Sc177 O191 2.105 . S
Sc177 O193 2.105 . S
Sc177 O197 2.105 . S
Sc178 O179 2.025 . S
Sc178 O188 2.105 . S
Sc178 O190 2.105 . S
Sc178 O194 2.105 . S
Sc178 O196 2.105 . S
O179 Sc176 2.025 . S
O179 Sc177 2.025 . S
O179 Sc178 2.025 . S
C180 O186 1.268 . S
C180 O196 1.268 . S
C181 O187 1.268 . S
C181 O195 1.268 . S
C182 O188 1.268 . S
C182 O197 1.268 . S
C183 O189 1.268 . S
C183 O193 1.268 . S
C184 O190 1.268 . S
C184 O192 1.268 . S
C185 O191 1.268 . S
C185 O194 1.268 . S
O186 Sc176 2.105 . S
O186 C180 1.268 . S
O187 Sc177 2.105 1_556 S
O187 C181 1.268 . S
O188 Sc178 2.105 . S
O188 C182 1.268 . S
O189 Sc176 2.105 . S
O189 C183 1.268 . S
O190 Sc178 2.105 . S
O190 C184 1.268 . S
O191 Sc177 2.105 . S
O191 C185 1.268 . S
O192 Sc176 2.105 . S
O192 C184 1.268 . S
O193 Sc177 2.105 . S
O193 C183 1.268 . S
O194 Sc178 2.105 . S
O194 C185 1.268 . S
O195 Sc176 2.105 1_556 S
O195 C181 1.268 . S
O196 Sc178 2.105 . S
O196 C180 1.268 . S
O197 Sc177 2.105 . S
O197 C182 1.268 . S
Sc198 O201 2.025 . S
Sc198 O208 2.105 . S
Sc198 O211 2.105 . S
Sc198 O214 2.105 . S
Sc198 O217 2.105 . S
Sc199 O201 2.025 . S
Sc199 O209 2.105 . S
Sc199 O213 2.105 . S
Sc199 O215 2.105 . S
Sc199 O219 2.105 . S
Sc200 O201 2.025 . S
Sc200 O210 2.105 . S
Sc200 O212 2.105 . S
Sc200 O216 2.105 . S
Sc200 O218 2.105 . S
O201 Sc198 2.025 . S
O201 Sc199 2.025 . S
O201 Sc200 2.025 . S
C202 O208 1.268 . S
C202 O218 1.268 . S
C203 O209 1.268 . S
C203 O217 1.268 . S
C204 O210 1.268 . S
C204 O219 1.268 . S
C205 O211 1.268 . S
C205 O215 1.268 . S
C206 O212 1.268 . S
C206 O214 1.268 . S
C207 O213 1.268 . S
C207 O216 1.268 . S
O208 Sc198 2.105 . S
O208 C202 1.268 . S
O209 Sc199 2.105 . S
O209 C203 1.268 . S
O210 Sc200 2.105 . S
O210 C204 1.268 . S
O211 Sc198 2.105 . S
O211 C205 1.268 . S
O212 Sc200 2.105 . S
O212 C206 1.268 . S
O213 Sc199 2.105 . S
O213 C207 1.268 . S
O214 Sc198 2.105 . S
O214 C206 1.268 . S
O215 Sc199 2.105 . S
O215 C205 1.268 . S
O216 Sc200 2.105 . S
O216 C207 1.268 . S
O217 Sc198 2.105 . S
O217 C203 1.268 . S
O218 Sc200 2.105 . S
O218 C202 1.268 . S
O219 Sc199 2.105 . S
O219 C204 1.268 . S
Sc220 O223 2.025 . S
Sc220 O230 2.105 . S
Sc220 O233 2.105 . S
Sc220 O236 2.105 . S
Sc220 O239 2.105 1_556 S
Sc221 O223 2.025 . S
Sc221 O231 2.105 1_556 S
Sc221 O235 2.105 . S
Sc221 O237 2.105 . S
Sc221 O241 2.105 . S
Sc222 O223 2.025 . S
Sc222 O232 2.105 . S
Sc222 O234 2.105 . S
Sc222 O238 2.105 . S
Sc222 O240 2.105 . S
O223 Sc220 2.025 . S
O223 Sc221 2.025 . S
O223 Sc222 2.025 . S
C224 O230 1.268 . S
C224 O240 1.268 . S
C225 O231 1.268 . S
C225 O239 1.268 . S
C226 O232 1.268 . S
C226 O241 1.268 . S
C227 O233 1.268 . S
C227 O237 1.268 . S
C228 O234 1.268 . S
C228 O236 1.268 . S
C229 O235 1.268 . S
C229 O238 1.268 . S
O230 Sc220 2.105 . S
O230 C224 1.268 . S
O231 Sc221 2.105 1_554 S
O231 C225 1.268 . S
O232 Sc222 2.105 . S
O232 C226 1.268 . S
O233 Sc220 2.105 . S
O233 C227 1.268 . S
O234 Sc222 2.105 . S
O234 C228 1.268 . S
O235 Sc221 2.105 . S
O235 C229 1.268 . S
O236 Sc220 2.105 . S
O236 C228 1.268 . S
O237 Sc221 2.105 . S
O237 C227 1.268 . S
O238 Sc222 2.105 . S
O238 C229 1.268 . S
O239 Sc220 2.105 1_554 S
O239 C225 1.268 . S
O240 Sc222 2.105 . S
O240 C224 1.268 . S
O241 Sc221 2.105 . S
O241 C226 1.268 . S
Sc242 O245 2.025 . S
Sc242 O252 2.105 . S
Sc242 O255 2.105 . S
Sc242 O258 2.105 . S
Sc242 O261 2.105 . S
Sc243 O245 2.025 . S
Sc243 O253 2.105 . S
Sc243 O257 2.105 . S
Sc243 O259 2.105 . S
Sc243 O263 2.105 . S
Sc244 O245 2.025 . S
Sc244 O254 2.105 . S
Sc244 O256 2.105 . S
Sc244 O260 2.105 . S
Sc244 O262 2.105 . S
O245 Sc242 2.025 . S
O245 Sc243 2.025 . S
O245 Sc244 2.025 . S
C246 O252 1.268 . S
C246 O262 1.268 . S
C247 O253 1.268 . S
C247 O261 1.268 . S
C248 O254 1.268 . S
C248 O263 1.268 . S
C249 O255 1.268 . S
C249 O259 1.268 . S
C250 O256 1.268 . S
C250 O258 1.268 . S
C251 O257 1.268 . S
C251 O260 1.268 . S
O252 Sc242 2.105 . S
O252 C246 1.268 . S
O253 Sc243 2.105 . S
O253 C247 1.268 . S
O254 Sc244 2.105 . S
O254 C248 1.268 . S
O255 Sc242 2.105 . S
O255 C249 1.268 . S
O256 Sc244 2.105 . S
O256 C250 1.268 . S
O257 Sc243 2.105 . S
O257 C251 1.268 . S
O258 Sc242 2.105 . S
O258 C250 1.268 . S
O259 Sc243 2.105 . S
O259 C249 1.268 . S
O260 Sc244 2.105 . S
O260 C251 1.268 . S
O261 Sc242 2.105 . S
O261 C247 1.268 . S
O262 Sc244 2.105 . S
O262 C246 1.268 . S
O263 Sc243 2.105 . S
O263 C248 1.268 . S
Sc264 O267 2.025 . S
Sc264 O274 2.105 . S
Sc264 O277 2.105 . S
Sc264 O280 2.105 . S
Sc264 O283 2.105 . S
Sc265 O267 2.025 . S
Sc265 O275 2.105 . S
Sc265 O279 2.105 . S
Sc265 O281 2.105 . S
Sc265 O285 2.105 1_556 S
Sc266 O267 2.025 . S
Sc266 O276 2.105 1_556 S
Sc266 O278 2.105 . S
Sc266 O282 2.105 . S
Sc266 O284 2.105 . S
O267 Sc264 2.025 . S
O267 Sc265 2.025 . S
O267 Sc266 2.025 . S
C268 O274 1.268 . S
C268 O284 1.268 . S
C269 O275 1.268 . S
C269 O283 1.268 . S
C270 O276 1.268 . S
C270 O285 1.268 . S
C271 O277 1.268 . S
C271 O281 1.268 . S
C272 O278 1.268 . S
C272 O280 1.268 . S
C273 O279 1.268 . S
C273 O282 1.268 . S
O274 Sc264 2.105 . S
O274 C268 1.268 . S
O275 Sc265 2.105 . S
O275 C269 1.268 . S
O276 Sc266 2.105 1_554 S
O276 C270 1.268 . S
O277 Sc264 2.105 . S
O277 C271 1.268 . S
O278 Sc266 2.105 . S
O278 C272 1.268 . S
O279 Sc265 2.105 . S
O279 C273 1.268 . S
O280 Sc264 2.105 . S
O280 C272 1.268 . S
O281 Sc265 2.105 . S
O281 C271 1.268 . S
O282 Sc266 2.105 . S
O282 C273 1.268 . S
O283 Sc264 2.105 . S
O283 C269 1.268 . S
O284 Sc266 2.105 . S
O284 C268 1.268 . S
O285 Sc265 2.105 1_554 S
O285 C270 1.268 . S
Sc286 O289 2.025 . S
Sc286 O296 2.105 . S
Sc286 O299 2.105 . S
Sc286 O302 2.105 . S
Sc286 O305 2.105 . S
Sc287 O289 2.025 . S
Sc287 O297 2.105 . S
Sc287 O301 2.105 . S
Sc287 O303 2.105 . S
Sc287 O307 2.105 . S
Sc288 O289 2.025 . S
Sc288 O298 2.105 . S
Sc288 O300 2.105 . S
Sc288 O304 2.105 . S
Sc288 O306 2.105 . S
O289 Sc286 2.025 . S
O289 Sc287 2.025 . S
O289 Sc288 2.025 . S
C290 O296 1.268 . S
C290 O306 1.268 . S
C291 O297 1.268 . S
C291 O305 1.268 . S
C292 O298 1.268 . S
C292 O307 1.268 . S
C293 O299 1.268 . S
C293 O303 1.268 . S
C294 O300 1.268 . S
C294 O302 1.268 . S
C295 O301 1.268 . S
C295 O304 1.268 . S
O296 Sc286 2.105 . S
O296 C290 1.268 . S
O297 Sc287 2.105 . S
O297 C291 1.268 . S
O298 Sc288 2.105 . S
O298 C292 1.268 . S
O299 Sc286 2.105 . S
O299 C293 1.268 . S
O300 Sc288 2.105 . S
O300 C294 1.268 . S
O301 Sc287 2.105 . S
O301 C295 1.268 . S
O302 Sc286 2.105 . S
O302 C294 1.268 . S
O303 Sc287 2.105 . S
O303 C293 1.268 . S
O304 Sc288 2.105 . S
O304 C295 1.268 . S
O305 Sc286 2.105 . S
O305 C291 1.268 . S
O306 Sc288 2.105 . S
O306 C290 1.268 . S
O307 Sc287 2.105 . S
O307 C292 1.268 . S
Sc308 O311 2.025 . S
Sc308 O318 2.105 . S
Sc308 O321 2.105 1_554 S
Sc308 O324 2.105 . S
Sc308 O327 2.105 . S
Sc309 O311 2.025 . S
Sc309 O319 2.105 . S
Sc309 O323 2.105 . S
Sc309 O325 2.105 1_554 S
Sc309 O329 2.105 . S
Sc310 O311 2.025 . S
Sc310 O320 2.105 . S
Sc310 O322 2.105 . S
Sc310 O326 2.105 . S
Sc310 O328 2.105 . S
O311 Sc308 2.025 . S
O311 Sc309 2.025 . S
O311 Sc310 2.025 . S
C312 O318 1.268 . S
C312 O328 1.268 . S
C313 O319 1.268 . S
C313 O327 1.268 . S
C314 O320 1.268 . S
C314 O329 1.268 . S
C315 O321 1.268 . S
C315 O325 1.268 . S
C316 O322 1.268 . S
C316 O324 1.268 . S
C317 O323 1.268 . S
C317 O326 1.268 . S
O318 Sc308 2.105 . S
O318 C312 1.268 . S
O319 Sc309 2.105 . S
O319 C313 1.268 . S
O320 Sc310 2.105 . S
O320 C314 1.268 . S
O321 Sc308 2.105 1_556 S
O321 C315 1.268 . S
O322 Sc310 2.105 . S
O322 C316 1.268 . S
O323 Sc309 2.105 . S
O323 C317 1.268 . S
O324 Sc308 2.105 . S
O324 C316 1.268 . S
O325 Sc309 2.105 1_556 S
O325 C315 1.268 . S
O326 Sc310 2.105 . S
O326 C317 1.268 . S
O327 Sc308 2.105 . S
O327 C313 1.268 . S
O328 Sc310 2.105 . S
O328 C312 1.268 . S
O329 Sc309 2.105 . S
O329 C314 1.268 . S
Sc330 O333 2.025 . S
Sc330 O340 2.105 . S
Sc330 O343 2.105 . S
Sc330 O346 2.105 . S
Sc330 O349 2.105 . S
Sc331 O333 2.025 . S
Sc331 O341 2.105 . S
Sc331 O345 2.105 . S
Sc331 O347 2.105 . S
Sc331 O351 2.105 . S
Sc332 O333 2.025 . S
Sc332 O342 2.105 . S
Sc332 O344 2.105 . S
Sc332 O348 2.105 . S
Sc332 O350 2.105 . S
O333 Sc330 2.025 . S
O333 Sc331 2.025 . S
O333 Sc332 2.025 . S
C334 O340 1.268 . S
C334 O350 1.268 . S
C335 O341 1.268 . S
C335 O349 1.268 . S
C336 O342 1.268 . S
C336 O351 1.268 . S
C337 O343 1.268 . S
C337 O347 1.268 . S
C338 O344 1.268 . S
C338 O346 1.268 . S
C339 O345 1.268 . S
C339 O348 1.268 . S
O340 Sc330 2.105 . S
O340 C334 1.268 . S
O341 Sc331 2.105 . S
O341 C335 1.268 . S
O342 Sc332 2.105 . S
O342 C336 1.268 . S
O343 Sc330 2.105 . S
O343 C337 1.268 . S
O344 Sc332 2.105 . S
O344 C338 1.268 . S
O345 Sc331 2.105 . S
O345 C339 1.268 . S
O346 Sc330 2.105 . S
O346 C338 1.268 . S
O347 Sc331 2.105 . S
O347 C337 1.268 . S
O348 Sc332 2.105 . S
O348 C339 1.268 . S
O349 Sc330 2.105 . S
O349 C335 1.268 . S
O350 Sc332 2.105 . S
O350 C334 1.268 . S
O351 Sc331 2.105 . S
O351 C336 1.268 . S
C352 C353 1.369 . S
C352 C354 1.419 . S
C352 H356 0.930 . S
C353 C352 1.369 . S
C353 C362 1.429 . S
C354 C352 1.419 . S
C354 C355 1.363 . S
C354 H357 0.929 . S
C355 C354 1.363 . S
C355 C361 1.428 . S
H356 C352 0.930 . S
H357 C354 0.929 . S
S358 N359 1.613 . S
S358 N360 1.610 . S
N359 S358 1.613 . S
N359 C362 1.350 . S
N360 S358 1.610 . S
N360 C361 1.351 . S
C361 C355 1.428 . S
C361 N360 1.351 . S
C361 C362 1.434 . S
C362 C353 1.429 . S
C362 N359 1.350 . S
C362 C361 1.434 . S
C363 C364 1.369 . S
C363 C365 1.419 . S
C363 H367 0.930 . S
C364 C363 1.369 . S
C364 C373 1.429 . S
C365 C363 1.419 . S
C365 C366 1.363 . S
C365 H368 0.929 . S
C366 C365 1.363 . S
C366 C372 1.428 . S
H367 C363 0.930 . S
H368 C365 0.929 . S
S369 N370 1.613 . S
S369 N371 1.610 . S
N370 S369 1.613 . S
N370 C373 1.350 . S
N371 S369 1.610 . S
N371 C372 1.351 . S
C372 C366 1.428 . S
C372 N371 1.351 . S
C372 C373 1.434 . S
C373 C364 1.429 . S
C373 N370 1.350 . S
C373 C372 1.434 . S
C374 C375 1.369 . S
C374 C376 1.419 . S
C374 H378 0.930 . S
C375 C374 1.369 . S
C375 C384 1.429 . S
C376 C374 1.419 . S
C376 C377 1.363 . S
C376 H379 0.929 . S
C377 C376 1.363 . S
C377 C383 1.428 . S
H378 C374 0.930 . S
H379 C376 0.929 . S
S380 N381 1.613 . S
S380 N382 1.610 . S
N381 S380 1.613 . S
N381 C384 1.350 . S
N382 S380 1.610 . S
N382 C383 1.351 . S
C383 C377 1.428 . S
C383 N382 1.351 . S
C383 C384 1.434 . S
C384 C375 1.429 . S
C384 N381 1.350 . S
C384 C383 1.434 . S
C385 C386 1.369 . S
C385 C387 1.419 . S
C385 H389 0.930 . S
C386 C385 1.369 . S
C386 C395 1.429 . S
C387 C385 1.419 . S
C387 C388 1.363 . S
C387 H390 0.929 . S
C388 C387 1.363 . S
C388 C394 1.428 . S
H389 C385 0.930 . S
H390 C387 0.929 . S
S391 N392 1.613 . S
S391 N393 1.610 . S
N392 S391 1.613 . S
N392 C395 1.350 . S
N393 S391 1.610 . S
N393 C394 1.351 . S
C394 C388 1.428 . S
C394 N393 1.351 . S
C394 C395 1.434 . S
C395 C386 1.429 . S
C395 N392 1.350 . S
C395 C394 1.434 . S
C396 C397 1.369 . S
C396 C398 1.419 . S
C396 H400 0.930 . S
C397 C396 1.369 . S
C397 C406 1.429 . S
C398 C396 1.419 . S
C398 C399 1.363 . S
C398 H401 0.929 . S
C399 C398 1.363 . S
C399 C405 1.428 . S
H400 C396 0.930 . S
H401 C398 0.929 . S
S402 N403 1.613 . S
S402 N404 1.610 . S
N403 S402 1.613 . S
N403 C406 1.350 . S
N404 S402 1.610 . S
N404 C405 1.351 . S
C405 C399 1.428 . S
C405 N404 1.351 . S
C405 C406 1.434 . S
C406 C397 1.429 . S
C406 N403 1.350 . S
C406 C405 1.434 . S
C407 C408 1.369 . S
C407 C409 1.419 . S
C407 H411 0.930 . S
C408 C407 1.369 . S
C408 C417 1.429 . S
C409 C407 1.419 . S
C409 C410 1.363 . S
C409 H412 0.929 . S
C410 C409 1.363 . S
C410 C416 1.428 . S
H411 C407 0.930 . S
H412 C409 0.929 . S
S413 N414 1.613 . S
S413 N415 1.610 . S
N414 S413 1.613 . S
N414 C417 1.350 . S
N415 S413 1.610 . S
N415 C416 1.351 . S
C416 C410 1.428 . S
C416 N415 1.351 . S
C416 C417 1.434 . S
C417 C408 1.429 . S
C417 N414 1.350 . S
C417 C416 1.434 . S
C418 C419 1.369 . S
C418 C420 1.419 . S
C418 H422 0.930 . S
C419 C418 1.369 . S
C419 C428 1.429 . S
C420 C418 1.419 . S
C420 C421 1.363 . S
C420 H423 0.929 . S
C421 C420 1.363 . S
C421 C427 1.428 . S
H422 C418 0.930 . S
H423 C420 0.929 . S
S424 N425 1.613 . S
S424 N426 1.610 . S
N425 S424 1.613 . S
N425 C428 1.350 . S
N426 S424 1.610 . S
N426 C427 1.351 . S
C427 C421 1.428 . S
C427 N426 1.351 . S
C427 C428 1.434 . S
C428 C419 1.429 . S
C428 N425 1.350 . S
C428 C427 1.434 . S
C429 C430 1.369 . S
C429 C431 1.419 . S
C429 H433 0.930 . S
C430 C429 1.369 . S
C430 C439 1.429 . S
C431 C429 1.419 . S
C431 C432 1.363 . S
C431 H434 0.929 . S
C432 C431 1.363 . S
C432 C438 1.428 . S
H433 C429 0.930 . S
H434 C431 0.929 . S
S435 N436 1.613 . S
S435 N437 1.610 . S
N436 S435 1.613 . S
N436 C439 1.350 . S
N437 S435 1.610 . S
N437 C438 1.351 . S
C438 C432 1.428 . S
C438 N437 1.351 . S
C438 C439 1.434 . S
C439 C430 1.429 . S
C439 N436 1.350 . S
C439 C438 1.434 . S
C440 C441 1.369 . S
C440 C442 1.419 . S
C440 H444 0.930 . S
C441 C440 1.369 . S
C441 C450 1.429 . S
C442 C440 1.419 . S
C442 C443 1.363 . S
C442 H445 0.929 . S
C443 C442 1.363 . S
C443 C449 1.428 . S
H444 C440 0.930 . S
H445 C442 0.929 . S
S446 N447 1.613 . S
S446 N448 1.610 . S
N447 S446 1.613 . S
N447 C450 1.350 . S
N448 S446 1.610 . S
N448 C449 1.351 . S
C449 C443 1.428 . S
C449 N448 1.351 . S
C449 C450 1.434 . S
C450 C441 1.429 . S
C450 N447 1.350 . S
C450 C449 1.434 . S
C451 C452 1.369 . S
C451 C453 1.419 . S
C451 H455 0.930 . S
C452 C451 1.369 . S
C452 C461 1.429 . S
C453 C451 1.419 . S
C453 C454 1.363 . S
C453 H456 0.929 . S
C454 C453 1.363 . S
C454 C460 1.428 . S
H455 C451 0.930 . S
H456 C453 0.929 . S
S457 N458 1.613 . S
S457 N459 1.610 . S
N458 S457 1.613 . S
N458 C461 1.350 . S
N459 S457 1.610 . S
N459 C460 1.351 . S
C460 C454 1.428 . S
C460 N459 1.351 . S
C460 C461 1.434 . S
C461 C452 1.429 . S
C461 N458 1.350 . S
C461 C460 1.434 . S
C462 C463 1.369 . S
C462 C464 1.419 . S
C462 H466 0.930 . S
C463 C462 1.369 . S
C463 C472 1.429 . S
C464 C462 1.419 . S
C464 C465 1.363 . S
C464 H467 0.929 . S
C465 C464 1.363 . S
C465 C471 1.428 . S
H466 C462 0.930 . S
H467 C464 0.929 . S
S468 N469 1.613 . S
S468 N470 1.610 . S
N469 S468 1.613 . S
N469 C472 1.350 . S
N470 S468 1.610 . S
N470 C471 1.351 . S
C471 C465 1.428 . S
C471 N470 1.351 . S
C471 C472 1.434 . S
C472 C463 1.429 . S
C472 N469 1.350 . S
C472 C471 1.434 . S
C473 C474 1.369 . S
C473 C475 1.419 . S
C473 H477 0.930 . S
C474 C473 1.369 . S
C474 C483 1.429 . S
C475 C473 1.419 . S
C475 C476 1.363 . S
C475 H478 0.929 . S
C476 C475 1.363 . S
C476 C482 1.428 . S
H477 C473 0.930 . S
H478 C475 0.929 . S
S479 N480 1.613 . S
S479 N481 1.610 . S
N480 S479 1.613 . S
N480 C483 1.350 . S
N481 S479 1.610 . S
N481 C482 1.351 . S
C482 C476 1.428 . S
C482 N481 1.351 . S
C482 C483 1.434 . S
C483 C474 1.429 . S
C483 N480 1.350 . S
C483 C482 1.434 . S
C484 C485 1.369 . S
C484 C486 1.419 . S
C484 H488 0.930 . S
C485 C484 1.369 . S
C485 C494 1.429 . S
C486 C484 1.419 . S
C486 C487 1.363 . S
C486 H489 0.929 . S
C487 C486 1.363 . S
C487 C493 1.428 . S
H488 C484 0.930 . S
H489 C486 0.929 . S
S490 N491 1.613 . S
S490 N492 1.610 . S
N491 S490 1.613 . S
N491 C494 1.350 . S
N492 S490 1.610 . S
N492 C493 1.351 . S
C493 C487 1.428 . S
C493 N492 1.351 . S
C493 C494 1.434 . S
C494 C485 1.429 . S
C494 N491 1.350 . S
C494 C493 1.434 . S
C495 C496 1.369 . S
C495 C497 1.419 . S
C495 H499 0.930 . S
C496 C495 1.369 . S
C496 C505 1.429 . S
C497 C495 1.419 . S
C497 C498 1.363 . S
C497 H500 0.929 . S
C498 C497 1.363 . S
C498 C504 1.428 . S
H499 C495 0.930 . S
H500 C497 0.929 . S
S501 N502 1.613 . S
S501 N503 1.610 . S
N502 S501 1.613 . S
N502 C505 1.350 . S
N503 S501 1.610 . S
N503 C504 1.351 . S
C504 C498 1.428 . S
C504 N503 1.351 . S
C504 C505 1.434 . S
C505 C496 1.429 . S
C505 N502 1.350 . S
C505 C504 1.434 . S
C506 C507 1.369 . S
C506 C508 1.419 . S
C506 H510 0.930 . S
C507 C506 1.369 . S
C507 C516 1.429 . S
C508 C506 1.419 . S
C508 C509 1.363 . S
C508 H511 0.929 . S
C509 C508 1.363 . S
C509 C515 1.428 . S
H510 C506 0.930 . S
H511 C508 0.929 . S
S512 N513 1.613 . S
S512 N514 1.610 . S
N513 S512 1.613 . S
N513 C516 1.350 . S
N514 S512 1.610 . S
N514 C515 1.351 . S
C515 C509 1.428 . S
C515 N514 1.351 . S
C515 C516 1.434 . S
C516 C507 1.429 . S
C516 N513 1.350 . S
C516 C515 1.434 . S
C517 C518 1.369 . S
C517 C519 1.419 . S
C517 H521 0.930 . S
C518 C517 1.369 . S
C518 C527 1.429 . S
C519 C517 1.419 . S
C519 C520 1.363 . S
C519 H522 0.929 . S
C520 C519 1.363 . S
C520 C526 1.428 . S
H521 C517 0.930 . S
H522 C519 0.929 . S
S523 N524 1.613 . S
S523 N525 1.610 . S
N524 S523 1.613 . S
N524 C527 1.350 . S
N525 S523 1.610 . S
N525 C526 1.351 . S
C526 C520 1.428 . S
C526 N525 1.351 . S
C526 C527 1.434 . S
C527 C518 1.429 . S
C527 N524 1.350 . S
C527 C526 1.434 . S
C528 C529 1.369 . S
C528 C530 1.419 . S
C528 H532 0.930 . S
C529 C528 1.369 . S
C529 C538 1.429 . S
C530 C528 1.419 . S
C530 C531 1.363 . S
C530 H533 0.929 . S
C531 C530 1.363 . S
C531 C537 1.428 . S
H532 C528 0.930 . S
H533 C530 0.929 . S
S534 N535 1.613 . S
S534 N536 1.610 . S
N535 S534 1.613 . S
N535 C538 1.350 . S
N536 S534 1.610 . S
N536 C537 1.351 . S
C537 C531 1.428 . S
C537 N536 1.351 . S
C537 C538 1.434 . S
C538 C529 1.429 . S
C538 N535 1.350 . S
C538 C537 1.434 . S
C539 C540 1.369 . S
C539 C541 1.419 . S
C539 H543 0.930 . S
C540 C539 1.369 . S
C540 C549 1.429 . S
C541 C539 1.419 . S
C541 C542 1.363 . S
C541 H544 0.929 . S
C542 C541 1.363 . S
C542 C548 1.428 . S
H543 C539 0.930 . S
H544 C541 0.929 . S
S545 N546 1.613 . S
S545 N547 1.610 . S
N546 S545 1.613 . S
N546 C549 1.350 . S
N547 S545 1.610 . S
N547 C548 1.351 . S
C548 C542 1.428 . S
C548 N547 1.351 . S
C548 C549 1.434 . S
C549 C540 1.429 . S
C549 N546 1.350 . S
C549 C548 1.434 . S
C550 C551 1.369 . S
C550 C552 1.419 . S
C550 H554 0.930 . S
C551 C550 1.369 . S
C551 C560 1.429 . S
C552 C550 1.419 . S
C552 C553 1.363 . S
C552 H555 0.929 . S
C553 C552 1.363 . S
C553 C559 1.428 . S
H554 C550 0.930 . S
H555 C552 0.929 . S
S556 N557 1.613 . S
S556 N558 1.610 . S
N557 S556 1.613 . S
N557 C560 1.350 . S
N558 S556 1.610 . S
N558 C559 1.351 . S
C559 C553 1.428 . S
C559 N558 1.351 . S
C559 C560 1.434 . S
C560 C551 1.429 . S
C560 N557 1.350 . S
C560 C559 1.434 . S
C561 C562 1.369 . S
C561 C563 1.419 . S
C561 H565 0.930 . S
C562 C561 1.369 . S
C562 C571 1.429 . S
C563 C561 1.419 . S
C563 C564 1.363 . S
C563 H566 0.929 . S
C564 C563 1.363 . S
C564 C570 1.428 . S
H565 C561 0.930 . S
H566 C563 0.929 . S
S567 N568 1.613 . S
S567 N569 1.610 . S
N568 S567 1.613 . S
N568 C571 1.350 . S
N569 S567 1.610 . S
N569 C570 1.351 . S
C570 C564 1.428 . S
C570 N569 1.351 . S
C570 C571 1.434 . S
C571 C562 1.429 . S
C571 N568 1.350 . S
C571 C570 1.434 . S
C572 C573 1.369 . S
C572 C574 1.419 . S
C572 H576 0.930 . S
C573 C572 1.369 . S
C573 C582 1.429 . S
C574 C572 1.419 . S
C574 C575 1.363 . S
C574 H577 0.929 . S
C575 C574 1.363 . S
C575 C581 1.428 . S
H576 C572 0.930 . S
H577 C574 0.929 . S
S578 N579 1.613 . S
S578 N580 1.610 . S
N579 S578 1.613 . S
N579 C582 1.350 . S
N580 S578 1.610 . S
N580 C581 1.351 . S
C581 C575 1.428 . S
C581 N580 1.351 . S
C581 C582 1.434 . S
C582 C573 1.429 . S
C582 N579 1.350 . S
C582 C581 1.434 . S
C583 C584 1.369 . S
C583 C585 1.419 . S
C583 H587 0.930 . S
C584 C583 1.369 . S
C584 C593 1.429 . S
C585 C583 1.419 . S
C585 C586 1.363 . S
C585 H588 0.929 . S
C586 C585 1.363 . S
C586 C592 1.428 . S
H587 C583 0.930 . S
H588 C585 0.929 . S
S589 N590 1.613 . S
S589 N591 1.610 . S
N590 S589 1.613 . S
N590 C593 1.350 . S
N591 S589 1.610 . S
N591 C592 1.351 . S
C592 C586 1.428 . S
C592 N591 1.351 . S
C592 C593 1.434 . S
C593 C584 1.429 . S
C593 N590 1.350 . S
C593 C592 1.434 . S
C594 C595 1.369 . S
C594 C596 1.419 . S
C594 H598 0.930 . S
C595 C594 1.369 . S
C595 C604 1.429 . S
C596 C594 1.419 . S
C596 C597 1.363 . S
C596 H599 0.929 . S
C597 C596 1.363 . S
C597 C603 1.428 . S
H598 C594 0.930 . S
H599 C596 0.929 . S
S600 N601 1.613 . S
S600 N602 1.610 . S
N601 S600 1.613 . S
N601 C604 1.350 . S
N602 S600 1.610 . S
N602 C603 1.351 . S
C603 C597 1.428 . S
C603 N602 1.351 . S
C603 C604 1.434 . S
C604 C595 1.429 . S
C604 N601 1.350 . S
C604 C603 1.434 . S
C605 C606 1.369 . S
C605 C607 1.419 . S
C605 H609 0.930 . S
C606 C605 1.369 . S
C606 C615 1.429 . S
C607 C605 1.419 . S
C607 C608 1.363 . S
C607 H610 0.929 . S
C608 C607 1.363 . S
C608 C614 1.428 . S
H609 C605 0.930 . S
H610 C607 0.929 . S
S611 N612 1.613 . S
S611 N613 1.610 . S
N612 S611 1.613 . S
N612 C615 1.350 . S
N613 S611 1.610 . S
N613 C614 1.351 . S
C614 C608 1.428 . S
C614 N613 1.351 . S
C614 C615 1.434 . S
C615 C606 1.429 . S
C615 N612 1.350 . S
C615 C614 1.434 . S
C616 C617 1.369 . S
C616 C618 1.419 1_455 S
C616 H620 0.930 . S
C617 C616 1.369 . S
C617 C626 1.429 . S
C618 C616 1.419 1_655 S
C618 C619 1.363 . S
C618 H621 0.929 . S
C619 C618 1.363 . S
C619 C625 1.428 . S
H620 C616 0.930 . S
H621 C618 0.929 . S
S622 N623 1.616 1_655 S
S622 N624 1.608 . S
N623 S622 1.616 1_455 S
N623 C626 1.350 . S
N624 S622 1.608 . S
N624 C625 1.351 . S
C625 C619 1.428 . S
C625 N624 1.351 . S
C625 C626 1.434 1_655 S
C626 C617 1.429 . S
C626 N623 1.350 . S
C626 C625 1.434 1_455 S
C627 C628 1.369 . S
C627 C629 1.419 . S
C627 H631 0.930 . S
C628 C627 1.369 . S
C628 C637 1.429 . S
C629 C627 1.419 . S
C629 C630 1.363 . S
C629 H632 0.929 . S
C630 C629 1.363 . S
C630 C636 1.428 . S
H631 C627 0.930 . S
H632 C629 0.929 . S
S633 N634 1.613 . S
S633 N635 1.610 . S
N634 S633 1.613 . S
N634 C637 1.350 . S
N635 S633 1.610 . S
N635 C636 1.351 . S
C636 C630 1.428 . S
C636 N635 1.351 . S
C636 C637 1.434 . S
C637 C628 1.429 . S
C637 N634 1.350 . S
C637 C636 1.434 . S
C638 C639 1.369 . S
C638 C640 1.419 1_655 S
C638 H642 0.930 . S
C639 C638 1.369 . S
C639 C648 1.429 . S
C640 C638 1.419 1_455 S
C640 C641 1.363 . S
C640 H643 0.929 . S
C641 C640 1.363 . S
C641 C647 1.428 . S
H642 C638 0.930 . S
H643 C640 0.929 . S
S644 N645 1.616 1_455 S
S644 N646 1.608 . S
N645 S644 1.616 1_655 S
N645 C648 1.350 1_554 S
N646 S644 1.608 . S
N646 C647 1.351 1_554 S
C647 C641 1.428 . S
C647 N646 1.351 1_556 S
C647 C648 1.434 1_455 S
C648 C639 1.429 . S
C648 N645 1.350 1_556 S
C648 C647 1.434 1_655 S
C649 C650 1.369 . S
C649 C651 1.419 . S
C649 H653 0.930 . S
C650 C649 1.369 . S
C650 C659 1.429 . S
C651 C649 1.419 . S
C651 C652 1.363 . S
C651 H654 0.929 . S
C652 C651 1.363 . S
C652 C658 1.428 . S
H653 C649 0.930 . S
H654 C651 0.929 . S
S655 N656 1.613 . S
S655 N657 1.610 . S
N656 S655 1.613 . S
N656 C659 1.350 . S
N657 S655 1.610 . S
N657 C658 1.351 . S
C658 C652 1.428 . S
C658 N657 1.351 . S
C658 C659 1.434 . S
C659 C650 1.429 . S
C659 N656 1.350 . S
C659 C658 1.434 . S
C660 C661 1.369 . S
C660 C662 1.419 . S
C660 H664 0.930 . S
C661 C660 1.369 . S
C661 C670 1.429 . S
C662 C660 1.419 . S
C662 C663 1.363 . S
C662 H665 0.929 . S
C663 C662 1.363 . S
C663 C669 1.428 . S
H664 C660 0.930 . S
H665 C662 0.929 . S
S666 N667 1.613 . S
S666 N668 1.610 . S
N667 S666 1.613 . S
N667 C670 1.350 . S
N668 S666 1.610 . S
N668 C669 1.351 . S
C669 C663 1.428 . S
C669 N668 1.351 . S
C669 C670 1.434 . S
C670 C661 1.429 . S
C670 N667 1.350 . S
C670 C669 1.434 . S
C671 C672 1.369 . S
C671 C673 1.419 1_655 S
C671 H675 0.930 . S
C672 C671 1.369 . S
C672 C681 1.429 . S
C673 C671 1.419 1_455 S
C673 C674 1.363 . S
C673 H676 0.929 . S
C674 C673 1.363 . S
C674 C680 1.428 . S
H675 C671 0.930 . S
H676 C673 0.929 . S
S677 N678 1.616 1_455 S
S677 N679 1.608 . S
N678 S677 1.616 1_655 S
N678 C681 1.350 . S
N679 S677 1.608 . S
N679 C680 1.351 . S
C680 C674 1.428 . S
C680 N679 1.351 . S
C680 C681 1.434 1_455 S
C681 C672 1.429 . S
C681 N678 1.350 . S
C681 C680 1.434 1_655 S
C682 C683 1.369 . S
C682 C684 1.419 . S
C682 H686 0.930 1_556 S
C683 C682 1.369 . S
C683 C692 1.429 . S
C684 C682 1.419 . S
C684 C685 1.363 . S
C684 H687 0.929 1_556 S
C685 C684 1.363 . S
C685 C691 1.428 . S
H686 C682 0.930 1_554 S
H687 C684 0.929 1_554 S
S688 N689 1.613 . S
S688 N690 1.610 . S
N689 S688 1.613 . S
N689 C692 1.350 . S
N690 S688 1.610 . S
N690 C691 1.351 . S
C691 C685 1.428 . S
C691 N690 1.351 . S
C691 C692 1.434 . S
C692 C683 1.429 . S
C692 N689 1.350 . S
C692 C691 1.434 . S
C693 C694 1.369 . S
C693 C695 1.419 1_455 S
C693 H697 0.930 . S
C694 C693 1.369 . S
C694 C703 1.429 . S
C695 C693 1.419 1_655 S
C695 C696 1.363 . S
C695 H698 0.929 . S
C696 C695 1.363 . S
C696 C702 1.428 . S
H697 C693 0.930 . S
H698 C695 0.929 . S
S699 N700 1.616 1_655 S
S699 N701 1.608 . S
N700 S699 1.616 1_455 S
N700 C703 1.350 . S
N701 S699 1.608 . S
N701 C702 1.351 . S
C702 C696 1.428 . S
C702 N701 1.351 . S
C702 C703 1.434 1_655 S
C703 C694 1.429 . S
C703 N700 1.350 . S
C703 C702 1.434 1_455 S
C704 C705 1.369 . S
C704 C706 1.419 1_545 S
C704 H708 0.930 . S
C705 C704 1.369 . S
C705 C714 1.429 1_554 S
C706 C704 1.419 1_565 S
C706 C707 1.363 1_554 S
C706 H709 0.929 . S
C707 C706 1.363 1_556 S
C707 C713 1.428 . S
H708 C704 0.930 . S
H709 C706 0.929 . S
S710 N711 1.613 . S
S710 N712 1.610 1_545 S
N711 S710 1.613 . S
N711 C714 1.350 . S
N712 S710 1.610 1_565 S
N712 C713 1.351 . S
C713 C707 1.428 . S
C713 N712 1.351 . S
C713 C714 1.434 1_565 S
C714 C705 1.429 1_556 S
C714 N711 1.350 . S
C714 C713 1.434 1_545 S
C715 C716 1.369 . S
C715 C717 1.419 1_565 S
C715 H719 0.930 . S
C716 C715 1.369 . S
C716 C725 1.429 . S
C717 C715 1.419 1_545 S
C717 C718 1.363 . S
C717 H720 0.929 . S
C718 C717 1.363 . S
C718 C724 1.428 . S
H719 C715 0.930 . S
H720 C717 0.929 . S
S721 N722 1.613 1_545 S
S721 N723 1.610 . S
N722 S721 1.613 1_565 S
N722 C725 1.350 . S
N723 S721 1.610 . S
N723 C724 1.351 . S
C724 C718 1.428 . S
C724 N723 1.351 . S
C724 C725 1.434 1_545 S
C725 C716 1.429 . S
C725 N722 1.350 . S
C725 C724 1.434 1_565 S
C726 C727 1.369 1_556 S
C726 C728 1.419 1_545 S
C726 H730 0.930 . S
C727 C726 1.369 1_554 S
C727 C736 1.429 . S
C728 C726 1.419 1_565 S
C728 C729 1.363 . S
C728 H731 0.929 . S
C729 C728 1.363 . S
C729 C735 1.428 1_556 S
H730 C726 0.930 . S
H731 C728 0.929 . S
S732 N733 1.613 1_565 S
S732 N734 1.610 . S
N733 S732 1.613 1_545 S
N733 C736 1.350 . S
N734 S732 1.610 . S
N734 C735 1.351 . S
C735 C729 1.428 1_554 S
C735 N734 1.351 . S
C735 C736 1.434 1_565 S
C736 C727 1.429 . S
C736 N733 1.350 . S
C736 C735 1.434 1_545 S
C737 C738 1.369 . S
C737 C739 1.419 1_545 S
C737 H741 0.930 . S
C738 C737 1.369 . S
C738 C747 1.429 . S
C739 C737 1.419 1_565 S
C739 C740 1.363 . S
C739 H742 0.929 . S
C740 C739 1.363 . S
C740 C746 1.428 . S
H741 C737 0.930 . S
H742 C739 0.929 . S
S743 N744 1.613 . S
S743 N745 1.610 1_545 S
N744 S743 1.613 . S
N744 C747 1.350 . S
N745 S743 1.610 1_565 S
N745 C746 1.351 . S
C746 C740 1.428 . S
C746 N745 1.351 . S
C746 C747 1.434 1_565 S
C747 C738 1.429 . S
C747 N744 1.350 . S
C747 C746 1.434 1_545 S
C748 C749 1.369 . S
C748 C750 1.419 . S
C748 H752 0.930 . S
C749 C748 1.369 . S
C749 C758 1.429 1_554 S
C750 C748 1.419 . S
C750 C751 1.363 1_554 S
C750 H753 0.929 . S
C751 C750 1.363 1_556 S
C751 C757 1.428 . S
H752 C748 0.930 . S
H753 C750 0.929 . S
S754 N755 1.613 . S
S754 N756 1.610 . S
N755 S754 1.613 . S
N755 C758 1.350 . S
N756 S754 1.610 . S
N756 C757 1.351 . S
C757 C751 1.428 . S
C757 N756 1.351 . S
C757 C758 1.434 . S
C758 C749 1.429 1_556 S
C758 N755 1.350 . S
C758 C757 1.434 . S
C759 C760 1.369 . S
C759 C761 1.419 . S
C759 H763 0.930 . S
C760 C759 1.369 . S
C760 C769 1.429 . S
C761 C759 1.419 . S
C761 C762 1.363 . S
C761 H764 0.929 . S
C762 C761 1.363 . S
C762 C768 1.428 . S
H763 C759 0.930 . S
H764 C761 0.929 . S
S765 N766 1.613 . S
S765 N767 1.610 . S
N766 S765 1.613 . S
N766 C769 1.350 . S
N767 S765 1.610 . S
N767 C768 1.351 . S
C768 C762 1.428 . S
C768 N767 1.351 . S
C768 C769 1.434 . S
C769 C760 1.429 . S
C769 N766 1.350 . S
C769 C768 1.434 . S
C770 C771 1.369 1_554 S
C770 C772 1.419 . S
C770 H774 0.930 . S
C771 C770 1.369 1_556 S
C771 C780 1.429 . S
C772 C770 1.419 . S
C772 C773 1.363 . S
C772 H775 0.929 . S
C773 C772 1.363 . S
C773 C779 1.428 1_554 S
H774 C770 0.930 . S
H775 C772 0.929 . S
S776 N777 1.613 . S
S776 N778 1.610 . S
N777 S776 1.613 . S
N777 C780 1.350 . S
N778 S776 1.610 . S
N778 C779 1.351 . S
C779 C773 1.428 1_556 S
C779 N778 1.351 . S
C779 C780 1.434 . S
C780 C771 1.429 . S
C780 N777 1.350 . S
C780 C779 1.434 . S
C781 C782 1.369 . S
C781 C783 1.419 . S
C781 H785 0.930 . S
C782 C781 1.369 . S
C782 C791 1.429 . S
C783 C781 1.419 . S
C783 C784 1.363 . S
C783 H786 0.929 . S
C784 C783 1.363 . S
C784 C790 1.428 . S
H785 C781 0.930 . S
H786 C783 0.929 . S
S787 N788 1.613 . S
S787 N789 1.610 . S
N788 S787 1.613 . S
N788 C791 1.350 . S
N789 S787 1.610 . S
N789 C790 1.351 . S
C790 C784 1.428 . S
C790 N789 1.351 . S
C790 C791 1.434 . S
C791 C782 1.429 . S
C791 N788 1.350 . S
C791 C790 1.434 . S
C792 C793 1.369 . S
C792 C794 1.419 1_554 S
C792 H796 0.930 . S
C793 C792 1.369 . S
C793 C802 1.429 . S
C794 C792 1.419 1_556 S
C794 C795 1.363 . S
C794 H797 0.929 . S
C795 C794 1.363 . S
C795 C801 1.428 . S
H796 C792 0.930 . S
H797 C794 0.929 . S
S798 N799 1.613 1_556 S
S798 N800 1.610 . S
N799 S798 1.613 1_554 S
N799 C802 1.350 . S
N800 S798 1.610 . S
N800 C801 1.351 . S
C801 C795 1.428 . S
C801 N800 1.351 . S
C801 C802 1.434 1_556 S
C802 C793 1.429 . S
C802 N799 1.350 . S
C802 C801 1.434 1_554 S
C803 C804 1.369 . S
C803 C805 1.419 . S
C803 H807 0.930 . S
C804 C803 1.369 . S
C804 C813 1.429 . S
C805 C803 1.419 . S
C805 C806 1.363 . S
C805 H808 0.929 . S
C806 C805 1.363 . S
C806 C812 1.428 . S
H807 C803 0.930 . S
H808 C805 0.929 . S
S809 N810 1.613 . S
S809 N811 1.610 . S
N810 S809 1.613 . S
N810 C813 1.350 . S
N811 S809 1.610 . S
N811 C812 1.351 . S
C812 C806 1.428 . S
C812 N811 1.351 . S
C812 C813 1.434 . S
C813 C804 1.429 . S
C813 N810 1.350 . S
C813 C812 1.434 . S
C814 C815 1.369 1_554 S
C814 C816 1.419 . S
C814 H818 0.930 . S
C815 C814 1.369 1_556 S
C815 C824 1.429 . S
C816 C814 1.419 . S
C816 C817 1.363 . S
C816 H819 0.929 . S
C817 C816 1.363 . S
C817 C823 1.428 1_554 S
H818 C814 0.930 . S
H819 C816 0.929 . S
S820 N821 1.613 . S
S820 N822 1.610 . S
N821 S820 1.613 . S
N821 C824 1.350 . S
N822 S820 1.610 . S
N822 C823 1.351 . S
C823 C817 1.428 1_556 S
C823 N822 1.351 . S
C823 C824 1.434 . S
C824 C815 1.429 . S
C824 N821 1.350 . S
C824 C823 1.434 . S
C825 C826 1.369 . S
C825 C827 1.419 . S
C825 H829 0.930 . S
C826 C825 1.369 . S
C826 C835 1.429 . S
C827 C825 1.419 . S
C827 C828 1.363 . S
C827 H830 0.929 . S
C828 C827 1.363 . S
C828 C834 1.428 . S
H829 C825 0.930 . S
H830 C827 0.929 . S
S831 N832 1.613 . S
S831 N833 1.610 . S
N832 S831 1.613 . S
N832 C835 1.350 . S
N833 S831 1.610 . S
N833 C834 1.351 . S
C834 C828 1.428 . S
C834 N833 1.351 . S
C834 C835 1.434 . S
C835 C826 1.429 . S
C835 N832 1.350 . S
C835 C834 1.434 . S
C836 C837 1.369 . S
C836 C838 1.419 1_556 S
C836 H840 0.930 . S
C837 C836 1.369 . S
C837 C846 1.429 . S
C838 C836 1.419 1_554 S
C838 C839 1.363 . S
C838 H841 0.929 . S
C839 C838 1.363 . S
C839 C845 1.428 . S
H840 C836 0.930 . S
H841 C838 0.929 . S
S842 N843 1.613 . S
S842 N844 1.610 1_556 S
N843 S842 1.613 . S
N843 C846 1.350 . S
N844 S842 1.610 1_554 S
N844 C845 1.351 . S
C845 C839 1.428 . S
C845 N844 1.351 . S
C845 C846 1.434 1_554 S
C846 C837 1.429 . S
C846 N843 1.350 . S
C846 C845 1.434 1_556 S
C847 C848 1.369 . S
C847 C849 1.419 . S
C847 H851 0.930 . S
C848 C847 1.369 . S
C848 C857 1.429 . S
C849 C847 1.419 . S
C849 C850 1.363 . S
C849 H852 0.929 . S
C850 C849 1.363 . S
C850 C856 1.428 . S
H851 C847 0.930 . S
H852 C849 0.929 . S
S853 N854 1.613 . S
S853 N855 1.610 . S
N854 S853 1.613 . S
N854 C857 1.350 . S
N855 S853 1.610 . S
N855 C856 1.351 . S
C856 C850 1.428 . S
C856 N855 1.351 . S
C856 C857 1.434 . S
C857 C848 1.429 . S
C857 N854 1.350 . S
C857 C856 1.434 . S
C858 C859 1.369 . S
C858 C860 1.419 1_556 S
C858 H862 0.930 . S
C859 C858 1.369 . S
C859 C868 1.438 . S
C860 C858 1.419 1_554 S
C860 C861 1.363 . S
C860 H863 0.929 . S
C861 C860 1.363 . S
C861 C867 1.428 . S
H862 C858 0.930 . S
H863 C860 0.929 . S
S864 N865 1.613 . S
S864 N866 1.610 . S
N865 S864 1.613 . S
N865 C868 1.348 1_554 S
N866 S864 1.610 . S
N866 C867 1.351 . S
C867 C861 1.428 . S
C867 N866 1.351 . S
C867 C868 1.425 1_554 S
C868 C859 1.438 . S
C868 N865 1.348 1_556 S
C868 C867 1.425 1_556 S
C869 C870 1.369 . S
C869 C871 1.419 . S
C869 H873 0.930 . S
C870 C869 1.369 . S
C870 C879 1.429 . S
C871 C869 1.419 . S
C871 C872 1.363 . S
C871 H874 0.929 . S
C872 C871 1.363 . S
C872 C878 1.428 . S
H873 C869 0.930 . S
H874 C871 0.929 . S
S875 N876 1.613 . S
S875 N877 1.610 . S
N876 S875 1.613 . S
N876 C879 1.350 . S
N877 S875 1.610 . S
N877 C878 1.351 . S
C878 C872 1.428 . S
C878 N877 1.351 . S
C878 C879 1.434 . S
C879 C870 1.429 . S
C879 N876 1.350 . S
C879 C878 1.434 . S
C353 C8 1.643 . S
C355 C70 1.642 . S
C364 C52 1.643 . S
C366 C30 1.642 . S
C375 C158 1.643 . S
C377 C96 1.642 . S
C386 C114 1.642 . S
C388 C136 1.641 . S
C397 C246 1.641 . S
C399 C184 1.641 . S
C408 C228 1.643 . S
C410 C206 1.642 . S
C419 C272 1.641 . S
C421 C334 1.642 . S
C430 C312 1.642 . S
C432 C290 1.641 . S
C441 C5 1.513 . S
C443 C336 1.643 . S
C452 C27 1.513 . S
C454 C314 1.642 . S
C463 C292 1.645 . S
C465 C49 1.502 . S
C474 C271 1.642 . S
C476 C75 1.509 . S
C485 C94 1.513 . S
C487 C247 1.643 . S
C496 C117 1.503 . S
C498 C229 1.644 . S
C507 C207 1.642 . S
C509 C139 1.507 . S
C518 C185 1.644 . S
C520 C161 1.509 . S
C529 C181 1.501 . S
C531 C160 1.645 . S
C540 C203 1.511 . S
C542 C138 1.643 . S
C551 C225 1.501 . S
C553 C116 1.644 . S
C562 C251 1.511 . S
C564 C95 1.642 . S
C573 C71 1.644 . S
C575 C270 1.503 . S
C584 C53 1.642 . S
C586 C293 1.511 . S
C595 C315 1.511 . S
C597 C31 1.644 . S
C606 C337 1.511 . S
C608 C9 1.644 . S
C617 C6 1.443 . S
C619 C141 1.444 . S
C628 C28 1.449 . S
C630 C163 1.449 . S
C639 C93 1.448 . S
C641 C50 1.447 . S
C650 C73 1.443 . S
C652 C119 1.444 . S
C661 C182 1.443 . S
C663 C317 1.444 . S
C672 C204 1.447 . S
C674 C339 1.446 . S
C683 C226 1.445 . S
C685 C269 1.445 . S
C694 C295 1.444 . S
C696 C249 1.445 . S
C705 C4 1.520 . S
C707 C48 1.518 . S
C716 C26 1.516 . S
C718 C74 1.519 . S
C727 C140 1.513 . S
C729 C92 1.517 . S
C738 C118 1.520 . S
C740 C162 1.516 . S
C749 C180 1.517 . S
C751 C224 1.514 . S
C760 C250 1.517 . S
C762 C202 1.519 . S
C771 C268 1.514 . S
C773 C316 1.518 . S
C782 C294 1.513 . S
C784 C338 1.516 . S
C793 C7 1.189 . S
C795 C273 1.180 . S
C804 C29 1.193 . S
C806 C291 1.178 . S
C815 C51 1.193 . S
C817 C313 1.178 . S
C826 C72 1.175 . S
C828 C335 1.191 . S
C837 C97 1.176 . S
C839 C183 1.191 . S
C848 C205 1.178 . S
C850 C115 1.190 . S
C859 C227 1.187 . S
C861 C137 1.182 . S
C870 C248 1.182 . S
C872 C159 1.187 . S
