# Generated by pormake.
# Topology rhr, (4)-cn, num edge types: 1
# Building blocks:
#     Node 0, Type 0, BuildingBlock: MUDLON_clean_sbu_0, # of connection points: 4
#     Node 1, Type 0, BuildingBlock: MUDLON_clean_sbu_0, # of connection points: 4
#     Node 2, Type 0, BuildingBlock: MUDLON_clean_sbu_0, # of connection points: 4
#     Node 3, Type 0, BuildingBlock: MUDLON_clean_sbu_0, # of connection points: 4
#     Node 4, Type 0, BuildingBlock: MUDLON_clean_sbu_0, # of connection points: 4
#     Node 5, Type 0, BuildingBlock: MUDLON_clean_sbu_0, # of connection points: 4
#     Node 6, Type 0, BuildingBlock: MUDLON_clean_sbu_0, # of connection points: 4
#     Node 7, Type 0, BuildingBlock: MUDLON_clean_sbu_0, # of connection points: 4
#     Node 8, Type 0, BuildingBlock: MUDLON_clean_sbu_0, # of connection points: 4
#     Node 9, Type 0, BuildingBlock: MUDLON_clean_sbu_0, # of connection points: 4
#     Node 10, Type 0, BuildingBlock: MUDLON_clean_sbu_0, # of connection points: 4
#     Node 11, Type 0, BuildingBlock: MUDLON_clean_sbu_0, # of connection points: 4
#     Node 12, Type 0, BuildingBlock: MUDLON_clean_sbu_0, # of connection points: 4
#     Node 13, Type 0, BuildingBlock: MUDLON_clean_sbu_0, # of connection points: 4
#     Node 14, Type 0, BuildingBlock: MUDLON_clean_sbu_0, # of connection points: 4
#     Node 15, Type 0, BuildingBlock: MUDLON_clean_sbu_0, # of connection points: 4
#     Node 16, Type 0, BuildingBlock: MUDLON_clean_sbu_0, # of connection points: 4
#     Node 17, Type 0, BuildingBlock: MUDLON_clean_sbu_0, # of connection points: 4
#     Node 18, Type 0, BuildingBlock: MUDLON_clean_sbu_0, # of connection points: 4
#     Node 19, Type 0, BuildingBlock: MUDLON_clean_sbu_0, # of connection points: 4
#     Node 20, Type 0, BuildingBlock: MUDLON_clean_sbu_0, # of connection points: 4
#     Node 21, Type 0, BuildingBlock: MUDLON_clean_sbu_0, # of connection points: 4
#     Node 22, Type 0, BuildingBlock: MUDLON_clean_sbu_0, # of connection points: 4
#     Node 23, Type 0, BuildingBlock: MUDLON_clean_sbu_0, # of connection points: 4
#     Edge 24, Type (0, 0), BuildingBlock: KIFKEQ_clean_linker_1, # of connection points: 2
#     Edge 25, Type (0, 0), BuildingBlock: KIFKEQ_clean_linker_1, # of connection points: 2
#     Edge 26, Type (0, 0), BuildingBlock: KIFKEQ_clean_linker_1, # of connection points: 2
#     Edge 27, Type (0, 0), BuildingBlock: KIFKEQ_clean_linker_1, # of connection points: 2
#     Edge 28, Type (0, 0), BuildingBlock: KIFKEQ_clean_linker_1, # of connection points: 2
#     Edge 29, Type (0, 0), BuildingBlock: KIFKEQ_clean_linker_1, # of connection points: 2
#     Edge 30, Type (0, 0), BuildingBlock: KIFKEQ_clean_linker_1, # of connection points: 2
#     Edge 31, Type (0, 0), BuildingBlock: KIFKEQ_clean_linker_1, # of connection points: 2
#     Edge 32, Type (0, 0), BuildingBlock: KIFKEQ_clean_linker_1, # of connection points: 2
#     Edge 33, Type (0, 0), BuildingBlock: KIFKEQ_clean_linker_1, # of connection points: 2
#     Edge 34, Type (0, 0), BuildingBlock: KIFKEQ_clean_linker_1, # of connection points: 2
#     Edge 35, Type (0, 0), BuildingBlock: KIFKEQ_clean_linker_1, # of connection points: 2
#     Edge 36, Type (0, 0), BuildingBlock: KIFKEQ_clean_linker_1, # of connection points: 2
#     Edge 37, Type (0, 0), BuildingBlock: KIFKEQ_clean_linker_1, # of connection points: 2
#     Edge 38, Type (0, 0), BuildingBlock: KIFKEQ_clean_linker_1, # of connection points: 2
#     Edge 39, Type (0, 0), BuildingBlock: KIFKEQ_clean_linker_1, # of connection points: 2
#     Edge 40, Type (0, 0), BuildingBlock: KIFKEQ_clean_linker_1, # of connection points: 2
#     Edge 41, Type (0, 0), BuildingBlock: KIFKEQ_clean_linker_1, # of connection points: 2
#     Edge 42, Type (0, 0), BuildingBlock: KIFKEQ_clean_linker_1, # of connection points: 2
#     Edge 43, Type (0, 0), BuildingBlock: KIFKEQ_clean_linker_1, # of connection points: 2
#     Edge 44, Type (0, 0), BuildingBlock: KIFKEQ_clean_linker_1, # of connection points: 2
#     Edge 45, Type (0, 0), BuildingBlock: KIFKEQ_clean_linker_1, # of connection points: 2
#     Edge 46, Type (0, 0), BuildingBlock: KIFKEQ_clean_linker_1, # of connection points: 2
#     Edge 47, Type (0, 0), BuildingBlock: KIFKEQ_clean_linker_1, # of connection points: 2
#     Edge 48, Type (0, 0), BuildingBlock: KIFKEQ_clean_linker_1, # of connection points: 2
#     Edge 49, Type (0, 0), BuildingBlock: KIFKEQ_clean_linker_1, # of connection points: 2
#     Edge 50, Type (0, 0), BuildingBlock: KIFKEQ_clean_linker_1, # of connection points: 2
#     Edge 51, Type (0, 0), BuildingBlock: KIFKEQ_clean_linker_1, # of connection points: 2
#     Edge 52, Type (0, 0), BuildingBlock: KIFKEQ_clean_linker_1, # of connection points: 2
#     Edge 53, Type (0, 0), BuildingBlock: KIFKEQ_clean_linker_1, # of connection points: 2
#     Edge 54, Type (0, 0), BuildingBlock: KIFKEQ_clean_linker_1, # of connection points: 2
#     Edge 55, Type (0, 0), BuildingBlock: KIFKEQ_clean_linker_1, # of connection points: 2
#     Edge 56, Type (0, 0), BuildingBlock: KIFKEQ_clean_linker_1, # of connection points: 2
#     Edge 57, Type (0, 0), BuildingBlock: KIFKEQ_clean_linker_1, # of connection points: 2
#     Edge 58, Type (0, 0), BuildingBlock: KIFKEQ_clean_linker_1, # of connection points: 2
#     Edge 59, Type (0, 0), BuildingBlock: KIFKEQ_clean_linker_1, # of connection points: 2
#     Edge 60, Type (0, 0), BuildingBlock: KIFKEQ_clean_linker_1, # of connection points: 2
#     Edge 61, Type (0, 0), BuildingBlock: KIFKEQ_clean_linker_1, # of connection points: 2
#     Edge 62, Type (0, 0), BuildingBlock: KIFKEQ_clean_linker_1, # of connection points: 2
#     Edge 63, Type (0, 0), BuildingBlock: KIFKEQ_clean_linker_1, # of connection points: 2
#     Edge 64, Type (0, 0), BuildingBlock: KIFKEQ_clean_linker_1, # of connection points: 2
#     Edge 65, Type (0, 0), BuildingBlock: KIFKEQ_clean_linker_1, # of connection points: 2
#     Edge 66, Type (0, 0), BuildingBlock: KIFKEQ_clean_linker_1, # of connection points: 2
#     Edge 67, Type (0, 0), BuildingBlock: KIFKEQ_clean_linker_1, # of connection points: 2
#     Edge 68, Type (0, 0), BuildingBlock: KIFKEQ_clean_linker_1, # of connection points: 2
#     Edge 69, Type (0, 0), BuildingBlock: KIFKEQ_clean_linker_1, # of connection points: 2
#     Edge 70, Type (0, 0), BuildingBlock: KIFKEQ_clean_linker_1, # of connection points: 2
#     Edge 71, Type (0, 0), BuildingBlock: KIFKEQ_clean_linker_1, # of connection points: 2
# Relax obj value: 0.018
# Max RMSD: 0.032
# Mean RMSD: 0.030
data_MOF--net-rhr--node1-MUDLON_clean_sbu_0--edge1-KIFKEQ_clean_linker_1
_symmetry_space_group_name_H-M    P1
_symmetry_Int_Tables_number       1
_symmetry_cell_setting            triclinic
loop_
_symmetry_equiv_pos_as_xyz
'x, y, z'
_cell_length_a     52.7581
_cell_length_b     52.936262
_cell_length_c     52.836313
_cell_angle_alpha  90.161044
_cell_angle_beta   89.474728
_cell_angle_gamma 89.972556
loop_
_atom_site_label
_atom_site_type_symbol
_atom_site_fract_x
_atom_site_fract_y
_atom_site_fract_z
_atom_type_partial_charge
Mg0 Mg 0.36365 0.02789 0.34412 0.0
C1 C 0.39234 0.97952 0.35384 0.0
O2 O 0.36975 0.97292 0.36211 0.0
C3 C 0.34395 0.07476 0.36931 0.0
O4 O 0.33937 0.07902 0.3453 0.0
C5 C 0.38777 0.06789 0.31453 0.0
O6 O 0.39699 0.07061 0.3374 0.0
O7 O 0.37192 0.05026 0.31056 0.0
O8 O 0.39613 1.00249 0.34775 0.0
O9 O 0.33133 1.00267 0.34089 0.0
C10 C 0.30994 1.00836 0.35056 0.0
O11 O 0.30627 0.0314 0.35909 0.0
O12 O 0.35511 0.05427 0.37534 0.0
Mg13 Mg 0.02034 0.32913 0.32701 0.0
C14 C 0.97549 0.34337 0.29834 0.0
O15 O 0.97044 0.35108 0.3215 0.0
C16 C 0.05496 0.29917 0.35413 0.0
O17 O 0.05214 0.32096 0.36582 0.0
C18 C 0.03612 0.3834 0.31471 0.0
O19 O 1.01177 0.38751 0.31801 0.0
O20 O 0.04506 0.36161 0.31959 0.0
O21 O 0.99517 0.32993 0.29463 0.0
O22 O 0.99806 0.32762 0.36224 0.0
C23 C 0.98244 0.30926 0.36295 0.0
O24 O 0.97931 0.2957 0.34235 0.0
O25 O 0.04419 0.29621 0.33286 0.0
Mg26 Mg 0.69069 0.05402 0.36444 0.0
C27 C 0.6788 0.1006 0.32929 0.0
O28 O 0.70327 0.09874 0.32478 0.0
C29 C 0.73614 0.02116 0.38552 0.0
O30 O 0.74932 0.03643 0.37093 0.0
C31 C 0.66401 0.02794 0.31834 0.0
O32 O 0.67399 0.04779 0.30727 0.0
O33 O 0.66804 0.02431 0.34181 0.0
O34 O 0.66844 0.08538 0.34481 0.0
O35 O 0.71331 0.08381 0.38598 0.0
C36 C 0.70284 0.09957 0.40098 0.0
O37 O 0.67815 0.09871 0.40441 0.0
O38 O 0.71207 0.02303 0.38597 0.0
Mg39 Mg 0.9958 0.66732 0.38441 0.0
C40 C 0.01919 0.7199 0.39518 0.0
O41 O 1.00433 0.7247 0.37596 0.0
C42 C 0.96918 0.64059 0.34022 0.0
O43 O 0.98183 0.65891 0.32912 0.0
C44 C 0.94424 0.69618 0.38902 0.0
O45 O 0.94714 0.69636 0.36429 0.0
O46 O 0.96073 0.68514 0.40245 0.0
O47 O 0.0202 0.69744 0.40364 0.0
O48 O 0.03138 0.65008 0.36622 0.0
C49 C 0.04188 0.66196 0.34808 0.0
O50 O 0.03193 0.68343 0.34067 0.0
O51 O 0.97086 0.63822 0.36408 0.0
Mg52 Mg 0.33572 0.01866 0.69295 0.0
C53 C 0.34337 0.06384 0.73207 0.0
O54 O 0.32241 0.05529 0.74257 0.0
C55 C 0.30705 0.96728 0.67511 0.0
O56 O 0.30253 0.96265 0.69914 0.0
C57 C 0.36358 0.99181 0.73684 0.0
O58 O 0.34556 1.00395 0.74915 0.0
O59 O 0.36425 0.99297 0.71278 0.0
O60 O 0.3528 0.05256 0.71296 0.0
O61 O 0.30736 0.04507 0.67425 0.0
C62 C 0.28508 0.03876 0.66776 0.0
O63 O 0.27691 0.01573 0.67195 0.0
O64 O 0.32032 0.98634 0.66889 0.0
Mg65 Mg 0.03371 0.3692 0.69568 0.0
C66 C 0.99944 0.36316 0.65023 0.0
O67 O 0.02063 0.35488 0.63992 0.0
C68 C 0.05483 0.41865 0.71444 0.0
O69 O 0.03235 0.41992 0.72528 0.0
C70 C 0.07717 0.34186 0.66985 0.0
O71 O 0.08639 0.36486 0.67099 0.0
O72 O 0.05573 0.33737 0.68025 0.0
O73 O 1.00009 0.37279 0.6723 0.0
O74 O 0.01954 0.36718 0.73459 0.0
C75 C 0.99587 0.36497 0.73888 0.0
O76 O 0.98112 0.35796 0.72025 0.0
O77 O 0.05919 0.40126 0.69831 0.0
Mg78 Mg 0.69783 0.02286 0.69805 0.0
C79 C 0.70168 0.97338 0.72869 0.0
O80 O 0.71093 0.9638 0.70759 0.0
C81 C 0.7476 0.0404 0.67481 0.0
O82 O 0.74698 0.01699 0.66652 0.0
C83 C 0.66703 0.05669 0.72982 0.0
O84 O 0.68772 0.05274 0.74289 0.0
O85 O 0.66535 0.04666 0.70794 0.0
O86 O 0.69882 0.99722 0.73053 0.0
O87 O 0.69388 0.99942 0.66428 0.0
C88 C 0.6805 0.97947 0.66318 0.0
O89 O 0.6646 0.97444 0.68179 0.0
O90 O 0.73038 0.04772 0.69025 0.0
Mg91 Mg 0.03801 0.68154 0.65576 0.0
C92 C 0.07766 0.66341 0.6958 0.0
O93 O 0.06867 0.68381 0.70692 0.0
C94 C 1.0112 0.73055 0.63434 0.0
O95 O 0.0328 0.74036 0.64166 0.0
C96 C 0.98542 0.66764 0.68515 0.0
O97 O 0.97648 0.68917 0.67675 0.0
O98 O 1.00815 0.66131 0.67999 0.0
O99 O 0.06869 0.65684 0.67447 0.0
O100 O 0.06833 0.69925 0.63012 0.0
C101 C 0.08964 0.70665 0.63839 0.0
O102 O 0.09412 0.7055 0.66274 0.0
O103 O 1.00747 0.70697 0.63742 0.0
Mg104 Mg 0.36953 0.38975 0.02461 0.0
C105 C 0.38848 0.35429 0.98806 0.0
O106 O 0.40126 0.37542 0.98532 0.0
C107 C 0.34256 0.41454 0.06709 0.0
O108 O 0.36551 0.42415 0.06769 0.0
C109 C 0.39792 0.3746 0.06922 0.0
O110 O 0.37466 0.36668 0.07337 0.0
O111 O 0.40271 0.38674 0.04893 0.0
O112 O 0.37101 0.35343 1.00484 0.0
O113 O 0.36953 0.41747 0.99371 0.0
C114 C 0.35635 0.43761 0.99431 0.0
O115 O 0.34456 0.4439 0.0154 0.0
O116 O 0.33742 0.3984 0.04993 0.0
Mg117 Mg 0.6869 0.3571 0.98896 0.0
C118 C 0.64467 0.32044 1.01107 0.0
O119 O 0.63219 0.32789 0.99104 0.0
C120 C 0.70275 0.40738 0.96079 0.0
O121 O 0.68566 0.41737 0.97603 0.0
C122 C 0.65408 0.35036 0.93954 0.0
O123 O 0.64953 0.37447 0.94349 0.0
O124 O 0.66859 0.33859 0.95456 0.0
O125 O 0.66664 0.32933 0.01526 0.0
O126 O 0.70615 0.37474 0.02359 0.0
C127 C 0.69656 0.39306 0.03604 0.0
O128 O 0.67501 0.40289 0.02862 0.0
O129 O 0.70758 0.38392 0.96221 0.0
Mg130 Mg 0.72868 0.72065 0.03179 0.0
C131 C 0.74083 0.67636 0.0674 0.0
O132 O 0.71632 0.67366 0.0642 0.0
C133 C 0.68201 0.73866 1.00216 0.0
O134 O 0.67507 0.71626 1.0103 0.0
C135 C 0.74644 0.6791 0.99396 0.0
O136 O 0.7306 0.6665 1.0085 0.0
O137 O 0.74878 0.7028 0.9974 0.0
O138 O 0.7521 0.69475 0.0568 0.0
O139 O 0.70964 0.73813 0.06693 0.0
C140 C 0.68849 0.73032 0.07566 0.0
O141 O 0.677 0.71153 0.06425 0.0
O142 O 0.70436 0.74625 1.0068 0.0
Mg143 Mg 0.34742 0.71448 0.03385 0.0
C144 C 0.31984 0.67032 0.01303 0.0
O145 O 0.30197 0.68346 0.02436 0.0
C146 C 0.39967 0.73244 0.05102 0.0
O147 O 0.40254 0.73668 0.02669 0.0
C148 C 0.3177 0.70286 0.07929 0.0
O149 O 0.34076 0.69494 0.08409 0.0
O150 O 0.31416 0.7156 0.0592 0.0
O151 O 0.34272 0.67792 0.01451 0.0
O152 O 0.35299 0.74237 1.00356 0.0
C153 C 0.36239 0.73401 0.98281 0.0
O154 O 0.3646 0.70948 0.97979 0.0
O155 O 0.37979 0.72112 0.05881 0.0
Mg156 Mg 0.86857 0.53071 0.84492 0.0
C157 C 0.89705 0.48118 0.84942 0.0
O158 O 0.87455 0.47384 0.85729 0.0
C159 C 0.85562 0.57861 0.87216 0.0
O160 O 0.85512 0.58581 0.8484 0.0
C161 C 0.88628 0.54538 0.79241 0.0
O162 O 0.89367 0.52167 0.79227 0.0
O163 O 0.87371 0.55367 0.8113 0.0
O164 O 0.90078 0.5046 0.84534 0.0
O165 O 0.83476 0.50756 0.84503 0.0
C166 C 0.81341 0.51653 0.85184 0.0
O167 O 0.81105 0.54106 0.85489 0.0
O168 O 0.86291 0.55623 0.87715 0.0
Mg169 Mg 0.52847 0.86422 0.86245 0.0
C170 C 0.56738 0.88916 0.83484 0.0
O171 O 0.5583 0.90425 0.85252 0.0
C172 C 0.4819 0.84214 0.88101 0.0
O173 O 0.48278 0.86556 0.88924 0.0
C174 C 0.49519 0.89116 0.83129 0.0
O175 O 0.50197 0.86974 0.82054 0.0
O176 O 0.50448 0.89648 0.85287 0.0
O177 O 0.55794 0.86705 0.83298 0.0
O178 O 0.55135 0.85829 0.89615 0.0
C179 C 0.55991 0.83587 0.89363 0.0
O180 O 0.55357 0.82308 0.87329 0.0
O181 O 0.49992 0.83425 0.86675 0.0
Mg182 Mg 0.22671 0.53881 0.8344 0.0
C183 C 0.21403 0.56219 0.78258 0.0
O184 O 0.21718 0.53903 0.77421 0.0
C185 C 0.28123 0.52822 0.84703 0.0
O186 O 0.28168 0.55301 0.84731 0.0
C187 C 0.19979 0.49643 0.81096 0.0
O188 O 0.22312 0.49389 0.80237 0.0
O189 O 0.19543 0.51288 0.82804 0.0
O190 O 0.22004 0.56745 0.80529 0.0
O191 O 0.22705 0.55846 0.87063 0.0
C192 C 0.23676 0.58046 0.86999 0.0
O193 O 0.24094 0.59092 0.84783 0.0
O194 O 0.26196 0.5172 0.83772 0.0
Mg195 Mg 0.5032 0.20587 0.83641 0.0
C196 C 0.45236 0.19069 0.81756 0.0
O197 O 0.44956 0.18736 0.84204 0.0
C198 C 0.55044 0.23766 0.83078 0.0
O199 O 0.56053 0.21515 0.82792 0.0
C200 C 0.53179 0.16993 0.80624 0.0
O201 O 0.52083 0.18562 0.79053 0.0
O202 O 0.52781 0.17299 0.82992 0.0
O203 O 0.47302 0.19991 0.80909 0.0
O204 O 0.48377 0.214 0.87243 0.0
C205 C 0.46902 0.23269 0.86867 0.0
O206 O 0.46857 0.24264 0.84591 0.0
O207 O 0.52642 0.23965 0.8319 0.0
Mg208 Mg 0.84899 0.49504 0.18707 0.0
C209 C 0.87038 0.531 0.22159 0.0
O210 O 0.87969 0.5358 0.19896 0.0
C211 C 0.79522 0.47542 0.17599 0.0
O212 O 0.78839 0.49878 0.1809 0.0
C213 C 0.88318 0.45028 0.17635 0.0
O214 O 0.86204 0.44078 0.16749 0.0
O215 O 0.88381 0.47359 0.18226 0.0
O216 O 0.85473 0.51282 0.22409 0.0
O217 O 0.84225 0.52622 0.1611 0.0
C218 C 0.82774 0.54308 0.17055 0.0
O219 O 0.81986 0.54042 0.19405 0.0
O220 O 0.81797 0.46868 0.18011 0.0
Mg221 Mg 0.53779 0.85354 0.21501 0.0
C222 C 0.51621 0.82134 0.17345 0.0
O223 O 0.53629 0.80844 0.18013 0.0
C224 C 0.5472 0.90956 0.22615 0.0
O225 O 0.524 0.90873 0.23534 0.0
C226 C 0.58722 0.83546 0.19651 0.0
O227 O 0.58512 0.85828 0.18708 0.0
O228 O 0.57008 0.82771 0.21176 0.0
O229 O 0.51158 0.84233 0.18453 0.0
O230 O 0.51805 0.85566 0.25141 0.0
C231 C 0.49405 0.85802 0.25168 0.0
O232 O 0.48163 0.85426 0.23056 0.0
O233 O 0.55576 0.89068 0.21381 0.0
Mg234 Mg 0.1849 0.54156 0.20034 0.0
C235 C 0.20859 0.58459 0.17672 0.0
O236 O 0.22067 0.57978 0.19781 0.0
C237 C 0.14955 0.50955 0.22767 0.0
O238 O 0.16756 0.51557 0.24356 0.0
C239 C 0.21204 0.49562 0.18167 0.0
O240 O 0.18828 0.48962 0.17753 0.0
O241 O 0.21684 0.51616 0.19332 0.0
O242 O 0.19002 0.5704 0.17074 0.0
O243 O 0.18307 0.56309 0.2358 0.0
C244 C 0.17172 0.58428 0.23464 0.0
O245 O 0.16503 0.59298 0.21244 0.0
O246 O 0.15097 0.51774 0.20499 0.0
Mg247 Mg 0.52039 0.21241 0.18227 0.0
C248 C 0.56324 0.21364 0.14434 0.0
O249 O 0.57634 0.21431 0.16534 0.0
C250 C 0.47044 0.19057 0.1979 0.0
O251 O 0.46655 0.21472 0.20225 0.0
C252 C 0.51351 0.26766 0.17001 0.0
O253 O 0.53711 0.2648 0.16238 0.0
O254 O 0.50261 0.24952 0.18153 0.0
O255 O 0.53935 0.21064 0.14566 0.0
O256 O 0.5477 0.20564 0.21217 0.0
C257 C 0.55857 0.18425 0.21025 0.0
O258 O 0.55261 0.16944 0.1912 0.0
O259 O 0.49129 0.1838 0.1877 0.0
Mg260 Mg 0.82747 0.8505 0.52761 0.0
C261 C 0.78996 0.85776 0.57134 0.0
O262 O 0.81036 0.85407 0.58492 0.0
C263 C 0.83556 0.822 0.47904 0.0
O264 O 0.83922 0.84522 0.47113 0.0
C265 C 0.81731 0.90423 0.51196 0.0
O266 O 0.80756 0.90442 0.53492 0.0
O267 O 0.82975 0.88486 0.5047 0.0
O268 O 0.79135 0.85496 0.54746 0.0
O269 O 0.85865 0.84209 0.55344 0.0
C270 C 0.8802 0.83621 0.54407 0.0
O271 O 0.88379 0.83857 0.51955 0.0
O272 O 0.82831 0.81849 0.50179 0.0
Mg273 Mg 0.19242 0.85493 0.49063 0.0
C274 C 0.15114 0.83966 0.45752 0.0
O275 O 0.17184 0.83516 0.44425 0.0
C276 C 0.22279 0.87504 0.53166 0.0
O277 O 0.23541 0.85553 0.52267 0.0
C278 C 0.18834 0.81774 0.52908 0.0
O279 O 0.1781 0.83869 0.53777 0.0
O280 O 0.19822 0.81778 0.50701 0.0
O281 O 0.15315 0.85062 0.4789 0.0
O282 O 0.21515 0.86682 0.45823 0.0
C283 C 0.20495 0.8845 0.4456 0.0
O284 O 0.18222 0.89231 0.45233 0.0
O285 O 0.20205 0.88119 0.52112 0.0
Mg286 Mg 0.18603 0.18952 0.5088 0.0
C287 C 0.15785 0.21772 0.54693 0.0
O288 O 0.14742 0.19522 0.54551 0.0
C289 C 0.24116 0.17692 0.49371 0.0
O290 O 0.24254 0.17027 0.51756 0.0
C291 C 0.15878 0.18438 0.45879 0.0
O292 O 0.182 0.17999 0.45074 0.0
O293 O 0.15469 0.18662 0.48248 0.0
O294 O 0.17647 0.22265 0.53217 0.0
O295 O 0.18909 0.15908 0.5361 0.0
C296 C 0.20158 0.16578 0.55547 0.0
O297 O 0.20948 0.18926 0.55704 0.0
O298 O 0.22114 0.18785 0.48596 0.0
Mg299 Mg 0.85145 0.21882 0.54567 0.0
C300 C 0.81886 0.21354 0.49909 0.0
O301 O 0.84028 0.22014 0.48811 0.0
C302 C 0.86091 0.25591 0.58809 0.0
O303 O 0.86235 0.23472 0.60088 0.0
C304 C 0.84016 0.16665 0.56574 0.0
O305 O 0.83535 0.16361 0.54156 0.0
O306 O 0.84941 0.18764 0.57306 0.0
O307 O 0.81743 0.21366 0.52314 0.0
O308 O 0.88339 0.22035 0.5186 0.0
C309 C 0.89996 0.2377 0.52106 0.0
O310 O 0.90028 0.25081 0.54217 0.0
O311 O 0.8536 0.25507 0.56524 0.0
H312 H 0.28655 0.15443 0.50412 0.0
H313 H 0.23887 0.17628 0.44186 0.0
H314 H 0.31476 0.13227 0.47479 0.0
H315 H 0.26659 0.15353 0.41264 0.0
H316 H 0.32783 0.123 0.36202 0.0
H317 H 0.30662 0.15088 0.39214 0.0
H318 H 0.31446 0.09426 0.45033 0.0
H319 H 0.33647 0.06665 0.42022 0.0
C320 C 0.28222 0.15477 0.48412 0.0
C321 C 0.26034 0.16708 0.4754 0.0
C322 C 0.2983 0.14182 0.46731 0.0
C323 C 0.29289 0.14076 0.44131 0.0
C324 C 0.27161 0.15408 0.43246 0.0
C325 C 0.2556 0.16715 0.44926 0.0
C326 C 0.3253 0.11659 0.38133 0.0
C327 C 0.33371 0.0925 0.38867 0.0
C328 C 0.31296 0.13255 0.39859 0.0
C329 C 0.30846 0.12481 0.42367 0.0
C330 C 0.31777 0.10105 0.43127 0.0
C331 C 0.33034 0.08512 0.41399 0.0
H332 H 0.99829 0.31711 0.41169 0.0
H333 H 0.93926 0.28177 0.36811 0.0
H334 H 0.98077 0.29839 0.45027 0.0
H335 H 0.92097 0.26408 0.40653 0.0
H336 H 0.90549 0.21534 0.47427 0.0
H337 H 0.92644 0.23279 0.43688 0.0
H338 H 0.94801 0.29872 0.4801 0.0
H339 H 0.9283 0.28068 0.51754 0.0
C340 C 0.98123 0.3058 0.41046 0.0
C341 C 0.97014 0.30095 0.38687 0.0
C342 C 0.97114 0.295 0.43259 0.0
C343 C 0.9495 0.27936 0.4317 0.0
C344 C 0.93802 0.27533 0.40808 0.0
C345 C 0.94832 0.28578 0.386 0.0
C346 C 0.91509 0.23335 0.47585 0.0
C347 C 0.91515 0.24655 0.49895 0.0
C348 C 0.92687 0.24358 0.4543 0.0
C349 C 0.93871 0.26747 0.45516 0.0
C350 C 0.93942 0.28022 0.47855 0.0
C351 C 0.92796 0.26985 0.50013 0.0
H352 H 0.83014 0.90807 0.46148 0.0
H353 H 0.78583 0.94432 0.52043 0.0
H354 H 0.81161 0.93654 0.43023 0.0
H355 H 0.76747 0.97256 0.4893 0.0
H356 H 0.71528 0.99304 0.42376 0.0
H357 H 0.73708 0.96613 0.45395 0.0
H358 H 0.80859 0.98241 0.41716 0.0
H359 H 0.78678 1.00944 0.38681 0.0
C360 C 0.8168 0.92234 0.46786 0.0
C361 C 0.80938 0.92377 0.49348 0.0
C362 C 0.80619 0.93864 0.44994 0.0
C363 C 0.78777 0.95654 0.45724 0.0
C364 C 0.78123 0.95865 0.48299 0.0
C365 C 0.79196 0.94257 0.50089 0.0
C366 C 0.73563 0.99081 0.42196 0.0
C367 C 0.74926 1.00348 0.40286 0.0
C368 C 0.74816 0.97553 0.43941 0.0
C369 C 0.77461 0.97233 0.43811 0.0
C370 C 0.7882 0.98445 0.41863 0.0
C371 C 0.77568 0.99998 0.40129 0.0
H372 H 0.11178 0.82248 0.48704 0.0
H373 H 0.137 0.82949 0.40942 0.0
H374 H 0.07655 0.79566 0.47328 0.0
H375 H 0.10193 0.803 0.39572 0.0
H376 H 0.02654 0.76753 0.37683 0.0
H377 H 0.05458 0.80024 0.39318 0.0
H378 H 0.07594 0.75117 0.45452 0.0
H379 H 0.04788 0.71832 0.43818 0.0
C380 C 0.10938 0.81888 0.46701 0.0
C381 C 0.12711 0.82804 0.44927 0.0
C382 C 0.0894 0.80333 0.45917 0.0
C383 C 0.08659 0.7971 0.43344 0.0
C384 C 0.10346 0.80758 0.41564 0.0
C385 C 0.12359 0.82272 0.42349 0.0
C386 C 0.03704 0.76374 0.39393 0.0
C387 C 0.03512 0.74021 0.40608 0.0
C388 C 0.05312 0.7825 0.40326 0.0
C389 C 0.06746 0.77828 0.42512 0.0
C390 C 0.06491 0.75508 0.43779 0.0
C391 C 0.04901 0.73619 0.4283 0.0
H392 H 0.21212 0.92331 0.54787 0.0
H393 H 0.25524 0.85665 0.56659 0.0
H394 H 0.23087 0.94553 0.58402 0.0
H395 H 0.2736 0.87864 0.60258 0.0
H396 H 0.28368 0.92104 0.67852 0.0
H397 H 0.26066 0.89867 0.64511 0.0
H398 H 0.27651 0.95972 0.59336 0.0
H399 H 0.2996 0.98186 0.62635 0.0
C400 C 0.22535 0.91336 0.55982 0.0
C401 C 0.23239 0.88836 0.55427 0.0
C402 C 0.23613 0.92606 0.58041 0.0
C403 C 0.25371 0.91378 0.59606 0.0
C404 C 0.25999 0.88851 0.59099 0.0
C405 C 0.2496 0.87601 0.57023 0.0
C406 C 0.28229 0.9296 0.65999 0.0
C407 C 0.29368 0.95308 0.65504 0.0
C408 C 0.26911 0.91685 0.64091 0.0
C409 C 0.26668 0.92757 0.61671 0.0
C410 C 0.27781 0.95115 0.6119 0.0
C411 C 0.2913 0.96367 0.63076 0.0
H412 H 0.05843 0.29686 0.65229 0.0
H413 H 0.12555 0.34349 0.65107 0.0
H414 H 0.07872 0.26746 0.62291 0.0
H415 H 0.14628 0.31366 0.62243 0.0
H416 H 0.16535 0.26927 0.54948 0.0
H417 H 0.1465 0.29887 0.58 0.0
H418 H 0.11019 0.23652 0.61856 0.0
H419 H 0.12806 0.20743 0.58773 0.0
C420 C 0.0777 0.3006 0.64612 0.0
C421 C 0.09034 0.32253 0.65408 0.0
C422 C 0.08944 0.28369 0.62926 0.0
C423 C 0.11425 0.2881 0.62012 0.0
C424 C 0.12704 0.30979 0.6286 0.0
C425 C 0.11521 0.32681 0.64526 0.0
C426 C 0.15338 0.26198 0.56454 0.0
C427 C 0.14803 0.23604 0.56599 0.0
C428 C 0.14264 0.27891 0.58215 0.0
C429 C 0.12654 0.2702 0.60175 0.0
C430 C 0.12189 0.24412 0.60346 0.0
C431 C 0.13233 0.22735 0.58579 0.0
H432 H 0.83607 0.17042 0.61768 0.0
H433 H 0.82396 0.11885 0.55549 0.0
H434 H 0.81711 0.13973 0.64687 0.0
H435 H 0.80486 0.08857 0.58436 0.0
H436 H 0.78697 0.03015 0.64246 0.0
H437 H 0.81295 0.05994 0.61872 0.0
H438 H 0.77492 0.1221 0.65614 0.0
H439 H 0.74912 0.09216 0.68033 0.0
C440 C 0.8297 0.15244 0.61027 0.0
C441 C 0.83155 0.14715 0.58419 0.0
C442 C 0.81862 0.13493 0.62698 0.0
C443 C 0.80936 0.11162 0.61804 0.0
C444 C 0.81204 0.10611 0.59208 0.0
C445 C 0.82292 0.1236 0.57543 0.0
C446 C 0.78434 0.05015 0.64595 0.0
C447 C 0.76573 0.05869 0.66319 0.0
C448 C 0.79918 0.06728 0.63217 0.0
C449 C 0.79585 0.0935 0.63517 0.0
C450 C 0.77815 0.10207 0.65339 0.0
C451 C 0.76327 0.08488 0.66724 0.0
H452 H 0.01723 0.77849 0.61629 0.0
H453 H 0.96104 0.71983 0.62552 0.0
H454 H 0.98573 0.80546 0.5963 0.0
H455 H 0.92942 0.74703 0.60558 0.0
H456 H 0.87443 0.81357 0.5905 0.0
H457 H 0.90585 0.7886 0.61343 0.0
H458 H 0.96156 0.8048 0.55541 0.0
H459 H 0.93025 0.8295 0.53243 0.0
C460 C 0.99813 0.77135 0.61414 0.0
C461 C 0.99172 0.74692 0.62245 0.0
C462 C 0.9801 0.78681 0.60259 0.0
C463 C 0.95506 0.77841 0.59934 0.0
C464 C 0.94849 0.75414 0.60801 0.0
C465 C 0.96665 0.7385 0.61926 0.0
C466 C 0.89348 0.81208 0.58282 0.0
C467 C 0.89982 0.82357 0.55962 0.0
C468 C 0.9114 0.79758 0.59584 0.0
C469 C 0.93617 0.79461 0.58619 0.0
C470 C 0.94271 0.80683 0.56345 0.0
C471 C 0.92473 0.82096 0.55025 0.0
H472 H 0.39299 0.36767 0.11972 0.0
H473 H 0.44764 0.36347 0.05862 0.0
H474 H 0.42287 0.3474 0.14799 0.0
H475 H 0.47733 0.34196 0.08653 0.0
H476 H 0.53026 0.30895 0.14354 0.0
H477 H 0.50453 0.34055 0.12215 0.0
H478 H 0.43673 0.30566 0.15249 0.0
H479 H 0.46238 0.27487 0.17447 0.0
C480 C 0.41159 0.36265 0.11244 0.0
C481 C 0.41795 0.36692 0.08695 0.0
C482 C 0.42867 0.35082 0.12858 0.0
C483 C 0.45237 0.34245 0.11949 0.0
C484 C 0.45935 0.34824 0.09433 0.0
C485 C 0.44234 0.36054 0.07825 0.0
C486 C 0.50987 0.3084 0.14607 0.0
C487 C 0.49838 0.28926 0.16061 0.0
C488 C 0.49509 0.3264 0.13361 0.0
C489 C 0.46848 0.32563 0.13531 0.0
C490 C 0.45714 0.30721 0.15093 0.0
C491 C 0.47189 0.28937 0.1635 0.0
H492 H 0.80914 0.43483 0.147 0.0
H493 H 0.74414 0.47984 0.16854 0.0
H494 H 0.78427 0.41374 0.11492 0.0
H495 H 0.7186 0.45765 0.13737 0.0
H496 H 0.69058 0.4395 0.05783 0.0
H497 H 0.71284 0.45685 0.09401 0.0
H498 H 0.75293 0.38612 0.1027 0.0
H499 H 0.73164 0.36946 0.06552 0.0
C500 C 0.78927 0.43971 0.14541 0.0
C501 C 0.77869 0.45919 0.16023 0.0
C502 C 0.77488 0.42749 0.12696 0.0
C503 C 0.74934 0.4341 0.12311 0.0
C504 C 0.73835 0.45249 0.13915 0.0
C505 C 0.75291 0.46504 0.1573 0.0
C506 C 0.70414 0.42767 0.06752 0.0
C507 C 0.7095 0.40319 0.05868 0.0
C508 C 0.71679 0.43753 0.0885 0.0
C509 C 0.73482 0.42298 0.10155 0.0
C510 C 0.73964 0.39819 0.09298 0.0
C511 C 0.72734 0.38853 0.07168 0.0
H512 H 0.64089 0.72249 0.09494 0.0
H513 H 0.70862 0.76677 0.10635 0.0
H514 H 0.61959 0.74577 0.12875 0.0
H515 H 0.68757 0.78956 0.14075 0.0
H516 H 0.62863 0.84831 0.16864 0.0
H517 H 0.65523 0.8208 0.14309 0.0
H518 H 0.61612 0.75562 0.17328 0.0
H519 H 0.58877 0.78352 0.19852 0.0
C520 C 0.65138 0.73694 0.10493 0.0
C521 C 0.67636 0.743 0.0977 0.0
C522 C 0.63922 0.75016 0.12451 0.0
C523 C 0.65178 0.76967 0.13745 0.0
C524 C 0.67716 0.77495 0.13092 0.0
C525 C 0.68926 0.76184 0.11122 0.0
C526 C 0.62595 0.82809 0.17022 0.0
C527 C 0.6064 0.81813 0.18544 0.0
C528 C 0.64137 0.81224 0.15564 0.0
C529 C 0.63774 0.78594 0.1559 0.0
C530 C 0.61917 0.77583 0.17232 0.0
C531 C 0.60367 0.79177 0.187 0.0
H532 H 0.22643 0.62881 0.19447 0.0
H533 H 0.2099 0.5899 0.12471 0.0
H534 H 0.24765 0.6622 0.17101 0.0
H535 H 0.23211 0.62322 0.10092 0.0
H536 H 0.26835 0.6939 0.06471 0.0
H537 H 0.23665 0.66847 0.08756 0.0
H538 H 0.28822 0.66139 0.15019 0.0
H539 H 0.31936 0.68659 0.12767 0.0
C540 C 0.22708 0.62758 0.174 0.0
C541 C 0.21682 0.60659 0.16143 0.0
C542 C 0.23936 0.64669 0.16054 0.0
C543 C 0.24214 0.64517 0.1341 0.0
C544 C 0.23028 0.62504 0.12127 0.0
C545 C 0.21759 0.60592 0.13485 0.0
C546 C 0.27256 0.68742 0.08363 0.0
C547 C 0.29637 0.69229 0.09441 0.0
C548 C 0.25452 0.67262 0.09659 0.0
C549 C 0.25983 0.66281 0.12073 0.0
C550 C 0.28321 0.66885 0.13184 0.0
C551 C 0.30118 0.6833 0.11887 0.0
H552 H 0.37411 0.78426 0.98838 0.0
H553 H 0.38056 0.72195 0.93579 0.0
H554 H 0.40106 0.80981 0.96083 0.0
H555 H 0.40704 0.74762 0.90796 0.0
H556 H 0.48107 0.79016 0.88448 0.0
H557 H 0.44946 0.76442 0.9068 0.0
H558 H 0.40454 0.83127 0.92136 0.0
H559 H 0.43624 0.8568 0.8998 0.0
C560 C 0.38078 0.7762 0.97067 0.0
C561 C 0.3752 0.75103 0.96438 0.0
C562 C 0.39627 0.79085 0.95479 0.0
C563 C 0.40646 0.78075 0.93215 0.0
C564 C 0.39997 0.7559 0.92541 0.0
C565 C 0.38456 0.74125 0.94131 0.0
C566 C 0.46422 0.79921 0.89208 0.0
C567 C 0.4613 0.82553 0.89057 0.0
C568 C 0.44605 0.7845 0.90489 0.0
C569 C 0.42454 0.7958 0.91628 0.0
C570 C 0.4211 0.82195 0.91346 0.0
C571 C 0.43924 0.83659 0.90088 0.0
H572 H 0.36341 0.42194 0.94517 0.0
H573 H 0.33685 0.48514 0.98998 0.0
H574 H 0.34969 0.4434 0.90662 0.0
H575 H 0.3234 0.50656 0.95157 0.0
H576 H 0.31782 0.54758 0.87777 0.0
H577 H 0.34024 0.52596 0.91146 0.0
H578 H 0.30655 0.45526 0.88879 0.0
H579 H 0.28388 0.4769 0.85497 0.0
C580 C 0.35508 0.44059 0.94678 0.0
C581 C 0.3512 0.45183 0.97069 0.0
C582 C 0.34706 0.45278 0.9247 0.0
C583 C 0.33543 0.47666 0.92602 0.0
C584 C 0.33252 0.48829 0.94985 0.0
C585 C 0.34015 0.47596 0.9719 0.0
C586 C 0.31554 0.52733 0.87952 0.0
C587 C 0.2988 0.51405 0.8637 0.0
C588 C 0.3283 0.51497 0.899 0.0
C589 C 0.32493 0.48897 0.90303 0.0
C590 C 0.30962 0.47531 0.88614 0.0
C591 C 0.2966 0.48773 0.86676 0.0
H592 H 0.60205 0.24036 0.82879 0.0
H593 H 0.53574 0.28276 0.85197 0.0
H594 H 0.62897 0.2705 0.85074 0.0
H595 H 0.56266 0.31259 0.8744 0.0
H596 H 0.61927 0.36861 0.90593 0.0
H597 H 0.59579 0.34478 0.87414 0.0
H598 H 0.63559 0.27688 0.89555 0.0
H599 H 0.65923 0.30062 0.92683 0.0
C600 C 0.59323 0.25637 0.83817 0.0
C601 C 0.56672 0.25893 0.83894 0.0
C602 C 0.60867 0.27356 0.85091 0.0
C603 C 0.59795 0.29365 0.86479 0.0
C604 C 0.57157 0.29736 0.86386 0.0
C605 C 0.55611 0.28021 0.851 0.0
C606 C 0.62319 0.34865 0.90363 0.0
C607 C 0.64105 0.3365 0.91902 0.0
C608 C 0.60966 0.33499 0.88547 0.0
C609 C 0.61381 0.30893 0.88224 0.0
C610 C 0.63219 0.297 0.89718 0.0
C611 C 0.64563 0.3106 0.91532 0.0
H612 H 0.74644 0.62861 0.98325 0.0
H613 H 0.7846 0.69824 0.96397 0.0
H614 H 0.77507 0.60538 0.95533 0.0
H615 H 0.81366 0.67484 0.93634 0.0
H616 H 0.83956 0.62727 0.86713 0.0
H617 H 0.81421 0.652 0.89679 0.0
H618 H 0.81879 0.59171 0.9515 0.0
H619 H 0.84378 0.5666 0.92146 0.0
C620 C 0.76094 0.639 0.97305 0.0
C621 C 0.76313 0.66534 0.97582 0.0
C622 C 0.77756 0.6256 0.95722 0.0
C623 C 0.79686 0.63816 0.94372 0.0
C624 C 0.79892 0.66456 0.9463 0.0
C625 C 0.78225 0.67799 0.96216 0.0
C626 C 0.83546 0.61936 0.8856 0.0
C627 C 0.84361 0.59486 0.89183 0.0
C628 C 0.82097 0.63363 0.90268 0.0
C629 C 0.81421 0.6238 0.92648 0.0
C630 C 0.82326 0.5997 0.93315 0.0
C631 C 0.83783 0.5854 0.91603 0.0
H632 H 0.02641 0.43389 0.31003 0.0
H633 H 0.08147 0.3767 0.28986 0.0
H634 H 0.05105 0.46533 0.28653 0.0
H635 H 0.10585 0.40814 0.26603 0.0
H636 H 0.12875 0.46748 0.20543 0.0
H637 H 0.10001 0.43689 0.22589 0.0
H638 H 0.09545 0.48483 0.29199 0.0
H639 H 0.12436 0.51483 0.2719 0.0
C640 C 0.04381 0.42804 0.30067 0.0
C641 C 0.05207 0.40282 0.30202 0.0
C642 C 0.05785 0.44603 0.28715 0.0
C643 C 0.08023 0.43913 0.27423 0.0
C644 C 0.08849 0.41392 0.27551 0.0
C645 C 0.07469 0.39601 0.28943 0.0
C646 C 0.12105 0.47165 0.22406 0.0
C647 C 0.12858 0.49352 0.23706 0.0
C648 C 0.10489 0.45408 0.23587 0.0
C649 C 0.09561 0.45844 0.2606 0.0
C650 C 0.10216 0.481 0.27292 0.0
C651 C 0.11868 0.49817 0.2614 0.0
H652 H 0.20207 0.56012 0.73227 0.0
H653 H 0.18923 0.60422 0.80005 0.0
H654 H 0.17115 0.58578 0.70993 0.0
H655 H 0.15741 0.62889 0.77837 0.0
H656 H 0.11135 0.68107 0.73036 0.0
H657 H 0.14696 0.65903 0.74901 0.0
H658 H 0.12773 0.59189 0.70645 0.0
H659 H 0.09295 0.61467 0.68671 0.0
C660 C 0.1928 0.57545 0.74235 0.0
C661 C 0.1982 0.58011 0.76795 0.0
C662 C 0.17476 0.59 0.72963 0.0
C663 C 0.16132 0.60936 0.74229 0.0
C664 C 0.16747 0.6145 0.76769 0.0
C665 C 0.18578 0.60024 0.78025 0.0
C666 C 0.11476 0.6616 0.72496 0.0
C667 C 0.09922 0.64958 0.70715 0.0
C668 C 0.13519 0.64884 0.73578 0.0
C669 C 0.14038 0.62347 0.72951 0.0
C670 C 0.12479 0.6115 0.71153 0.0
C671 C 0.10463 0.62448 0.70033 0.0
H672 H 0.34099 0.08218 0.78033 0.0
H673 H 0.37503 0.09597 0.70708 0.0
H674 H 0.36524 0.1169 0.79812 0.0
H675 H 0.3982 0.13173 0.72434 0.0
H676 H 0.46148 0.16783 0.77217 0.0
H677 H 0.43284 0.13991 0.7496 0.0
H678 H 0.37232 0.1599 0.80178 0.0
H679 H 0.40164 0.18651 0.82519 0.0
C680 C 0.35331 0.093 0.76794 0.0
C681 C 0.35636 0.08622 0.74244 0.0
C682 C 0.3671 0.11312 0.77805 0.0
C683 C 0.38386 0.12726 0.76273 0.0
C684 C 0.38599 0.12102 0.7369 0.0
C685 C 0.37261 0.10058 0.72695 0.0
C686 C 0.44188 0.16668 0.77838 0.0
C687 C 0.43377 0.1791 0.80049 0.0
C688 C 0.42536 0.15066 0.76544 0.0
C689 C 0.40024 0.14717 0.77408 0.0
C690 C 0.39169 0.16141 0.79501 0.0
C691 C 0.40837 0.17693 0.80826 0.0
H692 H 0.8936 0.42977 0.85291 0.0
H693 H 0.9426 0.48911 0.82515 0.0
H694 H 0.92011 0.39835 0.83168 0.0
H695 H 0.96895 0.45766 0.80369 0.0
H696 H 0.01876 0.39508 0.77441 0.0
H697 H 0.99776 0.42111 0.8066 0.0
H698 H 0.92577 0.38797 0.78691 0.0
H699 H 0.94668 0.36192 0.75498 0.0
C700 C 0.91027 0.43612 0.84265 0.0
C701 C 0.91578 0.46204 0.84053 0.0
C702 C 0.9254 0.41808 0.83036 0.0
C703 C 0.94649 0.42546 0.8157 0.0
C704 C 0.95296 0.45125 0.81495 0.0
C705 C 0.93778 0.46934 0.82721 0.0
C706 C 0.99854 0.39287 0.77739 0.0
C707 C 0.98437 0.37652 0.76193 0.0
C708 C 0.98648 0.40797 0.7957 0.0
C709 C 0.96004 0.40686 0.79918 0.0
C710 C 0.94618 0.38923 0.78492 0.0
C711 C 0.95818 0.37431 0.7665 0.0
H712 H 0.6835 0.92562 0.72048 0.0
H713 H 0.68746 0.98417 0.77734 0.0
H714 H 0.65237 0.90298 0.74621 0.0
H715 H 0.65731 0.96105 0.80361 0.0
H716 H 0.57824 0.93792 0.82498 0.0
H717 H 0.61329 0.95524 0.80099 0.0
H718 H 0.63954 0.87978 0.78345 0.0
H719 H 0.60331 0.86224 0.80721 0.0
C720 C 0.67835 0.93327 0.73886 0.0
C721 C 0.68776 0.95688 0.74675 0.0
C722 C 0.66045 0.92024 0.75364 0.0
C723 C 0.65175 0.93042 0.77677 0.0
C724 C 0.66286 0.953 0.78553 0.0
C725 C 0.68041 0.96617 0.77061 0.0
C726 C 0.59141 0.92491 0.81601 0.0
C727 C 0.58805 0.89867 0.81818 0.0
C728 C 0.61178 0.93489 0.80241 0.0
C729 C 0.62979 0.919 0.79074 0.0
C730 C 0.62611 0.89263 0.79223 0.0
C731 C 0.60536 0.88254 0.80578 0.0
H732 H 0.967 0.63772 0.28897 0.0
H733 H 0.93475 0.60493 0.35675 0.0
H734 H 0.94014 0.61117 0.26324 0.0
H735 H 0.90701 0.57852 0.33071 0.0
H736 H 0.88408 0.51671 0.26959 0.0
H737 H 0.9065 0.54307 0.30055 0.0
H738 H 0.89685 0.60788 0.25199 0.0
H739 H 0.8757 0.58145 0.22102 0.0
C740 C 0.95402 0.62493 0.29843 0.0
C741 C 0.95295 0.6236 0.32495 0.0
C742 C 0.9384 0.60978 0.28363 0.0
C743 C 0.92099 0.59297 0.29485 0.0
C744 C 0.92019 0.59123 0.32143 0.0
C745 C 0.93603 0.6064 0.33634 0.0
C746 C 0.88632 0.53672 0.26597 0.0
C747 C 0.87844 0.54707 0.24289 0.0
C748 C 0.89918 0.55182 0.28361 0.0
C749 C 0.90408 0.5775 0.27847 0.0
C750 C 0.89421 0.58805 0.25624 0.0
C751 C 0.88184 0.57298 0.23858 0.0
H752 H 0.3867 0.92833 0.35739 0.0
H753 H 0.43976 0.98558 0.33275 0.0
H754 H 0.41318 0.89582 0.33785 0.0
H755 H 0.46623 0.95292 0.31321 0.0
H756 H 0.51524 0.88645 0.28945 0.0
H757 H 0.49302 0.91398 0.3196 0.0
H758 H 0.42125 0.88663 0.2921 0.0
H759 H 0.44335 0.85929 0.26197 0.0
C760 C 0.40427 0.93398 0.34827 0.0
C761 C 0.41092 0.95966 0.3464 0.0
C762 C 0.41937 0.9153 0.33696 0.0
C763 C 0.44164 0.92179 0.32373 0.0
C764 C 0.44925 0.94727 0.32338 0.0
C765 C 0.43401 0.96601 0.33452 0.0
C766 C 0.49473 0.88583 0.29029 0.0
C767 C 0.48104 0.87071 0.27325 0.0
C768 C 0.48202 0.90178 0.30741 0.0
C769 C 0.45539 0.90261 0.30815 0.0
C770 C 0.44178 0.88631 0.29218 0.0
C771 C 0.45445 0.87067 0.27484 0.0
H772 H 0.62945 0.11421 0.33799 0.0
H773 H 0.69205 0.12551 0.28594 0.0
H774 H 0.60184 0.13844 0.31012 0.0
H775 H 0.66433 0.14948 0.25806 0.0
H776 H 0.59562 0.1496 0.20217 0.0
H777 H 0.62622 0.13346 0.23234 0.0
H778 H 0.59587 0.18331 0.28989 0.0
H779 H 0.56523 0.19993 0.25935 0.0
C780 C 0.6374 0.12214 0.32079 0.0
C781 C 0.66289 0.11776 0.31406 0.0
C782 C 0.62162 0.13613 0.30494 0.0
C783 C 0.63095 0.1457 0.28191 0.0
C784 C 0.65665 0.14216 0.27565 0.0
C785 C 0.67251 0.1285 0.29166 0.0
C786 C 0.59558 0.15732 0.22119 0.0
C787 C 0.57798 0.17597 0.22845 0.0
C788 C 0.61322 0.14819 0.2384 0.0
C789 C 0.61344 0.15719 0.26341 0.0
C790 C 0.59605 0.17606 0.2707 0.0
C791 C 0.57863 0.1856 0.25325 0.0
H792 H 0.70552 0.98467 0.61805 0.0
H793 H 0.67459 0.92847 0.66876 0.0
H794 H 0.7268 0.95145 0.59374 0.0
H795 H 0.69623 0.89529 0.64459 0.0
H796 H 0.77691 0.86045 0.62145 0.0
H797 H 0.74439 0.88726 0.64088 0.0
H798 H 0.72047 0.91134 0.56687 0.0
H799 H 0.75274 0.88429 0.54735 0.0
C800 C 0.70273 0.96517 0.62361 0.0
C801 C 0.68843 0.95923 0.64537 0.0
C802 C 0.71488 0.94614 0.60966 0.0
C803 C 0.71332 0.9208 0.61741 0.0
C804 C 0.69787 0.91468 0.6383 0.0
C805 C 0.68533 0.93369 0.652 0.0
C806 C 0.76433 0.87099 0.60931 0.0
C807 C 0.76751 0.8703 0.58288 0.0
C808 C 0.74563 0.88627 0.62043 0.0
C809 C 0.72999 0.90148 0.60538 0.0
C810 C 0.73235 0.8999 0.57892 0.0
C811 C 0.75076 0.88429 0.56777 0.0
H812 H 0.17541 0.77074 0.51182 0.0
H813 H 0.19109 0.81335 0.57959 0.0
H814 H 0.15624 0.7372 0.53761 0.0
H815 H 0.17192 0.78045 0.60521 0.0
H816 H 0.13882 0.71816 0.649 0.0
H817 H 0.17002 0.73797 0.62117 0.0
H818 H 0.11559 0.73821 0.56055 0.0
H819 H 0.08461 0.71781 0.58817 0.0
C820 C 0.17567 0.77241 0.53225 0.0
C821 C 0.18453 0.79456 0.54382 0.0
C822 C 0.16444 0.75343 0.54699 0.0
C823 C 0.1622 0.75634 0.57343 0.0
C824 C 0.17343 0.77744 0.58497 0.0
C825 C 0.18438 0.79638 0.57029 0.0
C826 C 0.1336 0.72218 0.62964 0.0
C827 C 0.1091 0.71683 0.6209 0.0
C828 C 0.15151 0.73346 0.61369 0.0
C829 C 0.14526 0.73981 0.58869 0.0
C830 C 0.12116 0.73327 0.57958 0.0
C831 C 0.10328 0.72184 0.59551 0.0
H832 H 0.24347 0.16966 0.58411 0.0
H833 H 0.1809 0.1198 0.56796 0.0
H834 H 0.26104 0.13882 0.6125 0.0
H835 H 0.19764 0.08908 0.59806 0.0
H836 H 0.25225 0.02887 0.62962 0.0
H837 H 0.22965 0.05951 0.60385 0.0
H838 H 0.25809 0.1199 0.65117 0.0
H839 H 0.28214 0.08931 0.67541 0.0
C840 C 0.23314 0.15222 0.58711 0.0
C841 C 0.21078 0.14713 0.57388 0.0
C842 C 0.24313 0.13451 0.60365 0.0
C843 C 0.2307 0.1114 0.60797 0.0
C844 C 0.20796 0.10649 0.59502 0.0
C845 C 0.19824 0.12411 0.5779 0.0
C846 C 0.25345 0.04874 0.63448 0.0
C847 C 0.26913 0.05688 0.65418 0.0
C848 C 0.24036 0.06632 0.61985 0.0
C849 C 0.24225 0.09235 0.62508 0.0
C850 C 0.25681 0.10017 0.64592 0.0
C851 C 0.27045 0.08267 0.66001 0.0
H852 H 0.87661 0.29749 0.56134 0.0
H853 H 0.87557 0.26567 0.63656 0.0
H854 H 0.90641 0.32983 0.57534 0.0
H855 H 0.90516 0.29807 0.65051 0.0
H856 H 0.95236 0.36445 0.67263 0.0
H857 H 0.91377 0.34428 0.65737 0.0
H858 H 0.95216 0.32476 0.5875 0.0
H859 H 0.99074 0.34479 0.60271 0.0
C860 C 0.88216 0.29778 0.58103 0.0
C861 C 0.87393 0.27878 0.59778 0.0
C862 C 0.89936 0.31624 0.58898 0.0
C863 C 0.90834 0.31635 0.61394 0.0
C864 C 0.89851 0.2986 0.63118 0.0
C865 C 0.8816 0.27996 0.62316 0.0
C866 C 0.95243 0.3564 0.65376 0.0
C867 C 0.97477 0.35597 0.639 0.0
C868 C 0.93033 0.34473 0.64509 0.0
C869 C 0.92998 0.33272 0.62135 0.0
C870 C 0.95174 0.33398 0.60582 0.0
C871 C 0.97392 0.34538 0.6146 0.0
H872 H 0.687 0.13454 0.43609 0.0
H873 H 0.75386 0.10753 0.39663 0.0
H874 H 0.71287 0.16525 0.45883 0.0
H875 H 0.77963 0.13791 0.41953 0.0
H876 H 0.81698 0.20853 0.44768 0.0
H877 H 0.78736 0.18328 0.42318 0.0
H878 H 0.74575 0.16534 0.49157 0.0
H879 H 0.77518 0.19091 0.51609 0.0
C880 C 0.7072 0.13516 0.43223 0.0
C881 C 0.71836 0.11853 0.41455 0.0
C882 C 0.72202 0.1527 0.44533 0.0
C883 C 0.7483 0.15411 0.44094 0.0
C884 C 0.75939 0.13763 0.42308 0.0
C885 C 0.74462 0.12005 0.41007 0.0
C886 C 0.80129 0.19955 0.45748 0.0
C887 C 0.79859 0.2016 0.4839 0.0
C888 C 0.78441 0.18491 0.44344 0.0
C889 C 0.76441 0.17199 0.45546 0.0
C890 C 0.76088 0.17513 0.4817 0.0
C891 C 0.7778 0.18977 0.49578 0.0
H892 H 0.90637 0.72278 0.36606 0.0
H893 H 0.93515 0.70262 0.43962 0.0
H894 H 0.87475 0.75002 0.38622 0.0
H895 H 0.90403 0.7302 0.45966 0.0
H896 H 0.83797 0.77194 0.49208 0.0
H897 H 0.85973 0.73822 0.46894 0.0
H898 H 0.87637 0.79011 0.40803 0.0
H899 H 0.85419 0.8235 0.43076 0.0
C900 C 0.90583 0.72398 0.38654 0.0
C901 C 0.92344 0.71069 0.40122 0.0
C902 C 0.88776 0.73967 0.39808 0.0
C903 C 0.88692 0.74243 0.42456 0.0
C904 C 0.90388 0.7283 0.43925 0.0
C905 C 0.9219 0.7126 0.42773 0.0
C906 C 0.8458 0.776 0.47348 0.0
C907 C 0.84459 0.80051 0.46339 0.0
C908 C 0.85843 0.75672 0.46032 0.0
C909 C 0.8701 0.76153 0.43678 0.0
C910 C 0.86747 0.78564 0.42601 0.0
C911 C 0.85484 0.80489 0.43914 0.0
H912 H 0.31579 0.95716 0.34482 0.0
H913 H 0.26303 0.01375 0.372 0.0
H914 H 0.28899 0.92405 0.36282 0.0
H915 H 0.2366 0.98083 0.39026 0.0
H916 H 0.18586 0.9177 0.41151 0.0
H917 H 0.20931 0.94509 0.38276 0.0
H918 H 0.27945 0.91043 0.40609 0.0
H919 H 0.25585 0.88255 0.43452 0.0
C920 C 0.29826 0.96253 0.35421 0.0
C921 C 0.29165 0.98814 0.35716 0.0
C922 C 0.28302 0.94355 0.3647 0.0
C923 C 0.26078 0.94978 0.37819 0.0
C924 C 0.25347 0.9753 0.37979 0.0
C925 C 0.2687 0.99424 0.3694 0.0
C926 C 0.20626 0.91564 0.41024 0.0
C927 C 0.21905 0.89819 0.42556 0.0
C928 C 0.2197 0.93142 0.39381 0.0
C929 C 0.24628 0.93023 0.39238 0.0
C930 C 0.25896 0.91173 0.40659 0.0
C931 C 0.24546 0.89581 0.42298 0.0
H932 H 0.16363 0.19026 0.40746 0.0
H933 H 0.10972 0.19796 0.4691 0.0
H934 H 0.13532 0.21388 0.37995 0.0
H935 H 0.08138 0.22122 0.44145 0.0
H936 H 0.06861 0.29821 0.4033 0.0
H937 H 0.08967 0.26491 0.42618 0.0
H938 H 0.09219 0.21906 0.35847 0.0
H939 H 0.07064 0.25292 0.3351 0.0
C940 C 0.14544 0.19632 0.41496 0.0
C941 C 0.1392 0.19273 0.44067 0.0
C942 C 0.12918 0.20977 0.39912 0.0
C943 C 0.1064 0.21983 0.40871 0.0
C944 C 0.09908 0.2141 0.4337 0.0
C945 C 0.1153 0.20069 0.44952 0.0
C946 C 0.07354 0.28108 0.39312 0.0
C947 C 0.06805 0.2783 0.36728 0.0
C948 C 0.08538 0.26181 0.4064 0.0
C949 C 0.09228 0.23921 0.39424 0.0
C950 C 0.08697 0.23628 0.36833 0.0
C951 C 0.0747 0.25562 0.35498 0.0
H952 H 0.63252 0.72829 0.99248 0.0
H953 H 0.68964 0.78581 0.98146 0.0
H954 H 0.6022 0.75378 0.96951 0.0
H955 H 0.65909 0.81131 0.95789 0.0
H956 H 0.58788 0.85753 0.93223 0.0
H957 H 0.61726 0.83562 0.9608 0.0
H958 H 0.59896 0.76465 0.92485 0.0
H959 H 0.56995 0.78603 0.89703 0.0
C960 C 0.63866 0.74639 0.98513 0.0
C961 C 0.66365 0.75482 0.98853 0.0
C962 C 0.62123 0.76102 0.97194 0.0
C963 C 0.62828 0.78449 0.96167 0.0
C964 C 0.65304 0.79339 0.96572 0.0
C965 C 0.67058 0.77868 0.97901 0.0
C966 C 0.59003 0.83723 0.93073 0.0
C967 C 0.57658 0.82355 0.91237 0.0
C968 C 0.60695 0.82473 0.9469 0.0
C969 C 0.61033 0.79836 0.94516 0.0
C970 C 0.59656 0.78487 0.92701 0.0
C971 C 0.57999 0.79724 0.91089 0.0
H972 H 0.27749 0.64166 0.01624 0.0
H973 H 0.34374 0.65448 0.96945 0.0
H974 H 0.25846 0.6168 0.98257 0.0
H975 H 0.32468 0.62929 0.93561 0.0
H976 H 0.26433 0.62379 0.87272 0.0
H977 H 0.28763 0.64024 0.90859 0.0
H978 H 0.26038 0.57864 0.95477 0.0
H979 H 0.23688 0.56194 0.91862 0.0
C980 C 0.2883 0.63853 0.99897 0.0
C981 C 0.312 0.65018 0.99536 0.0
C982 C 0.2774 0.62422 0.97971 0.0
C983 C 0.28988 0.62143 0.95631 0.0
C984 C 0.31446 0.63148 0.95336 0.0
C985 C 0.32551 0.64564 0.97279 0.0
C986 C 0.26312 0.61374 0.89051 0.0
C987 C 0.24859 0.59158 0.89279 0.0
C988 C 0.27681 0.62302 0.911 0.0
C989 C 0.2762 0.61052 0.93439 0.0
C990 C 0.26127 0.58863 0.93693 0.0
C991 C 0.2477 0.57917 0.91629 0.0
H992 H 0.38784 0.30332 0.99924 0.0
H993 H 0.40497 0.35667 0.93987 0.0
H994 H 0.40435 0.26875 0.97223 0.0
H995 H 0.42085 0.32266 0.9132 0.0
H996 H 0.42538 0.25805 0.86146 0.0
H997 H 0.4017 0.28336 0.89192 0.0
H998 H 0.45104 0.25834 0.95151 0.0
H999 H 0.47503 0.23249 0.92067 0.0
C1000 C 0.39464 0.30755 0.98032 0.0
C1001 C 0.39505 0.33262 0.97156 0.0
C1002 C 0.40427 0.28788 0.96503 0.0
C1003 C 0.41379 0.29305 0.94061 0.0
C1004 C 0.41342 0.31804 0.9318 0.0
C1005 C 0.40435 0.33754 0.94711 0.0
C1006 C 0.43101 0.25752 0.88112 0.0
C1007 C 0.4524 0.24368 0.88859 0.0
C1008 C 0.41735 0.27198 0.89857 0.0
C1009 C 0.42475 0.27311 0.92397 0.0
C1010 C 0.44491 0.25773 0.93201 0.0
C1011 C 0.45866 0.24303 0.91439 0.0
H1012 H 0.70804 0.45869 0.96071 0.0
H1013 H 0.7274 0.39161 0.91803 0.0
H1014 H 0.73203 0.48434 0.93074 0.0
H1015 H 0.75031 0.41727 0.88729 0.0
H1016 H 0.81727 0.46583 0.86015 0.0
H1017 H 0.78835 0.43943 0.88412 0.0
H1018 H 0.73529 0.50154 0.88983 0.0
H1019 H 0.76502 0.52842 0.86677 0.0
C1020 C 0.71713 0.44949 0.94469 0.0
C1021 C 0.71612 0.42314 0.94188 0.0
C1022 C 0.73071 0.46421 0.92733 0.0
C1023 C 0.74325 0.45294 0.90652 0.0
C1024 C 0.7414 0.42661 0.90332 0.0
C1025 C 0.72819 0.41187 0.92091 0.0
C1026 C 0.79926 0.47379 0.86612 0.0
C1027 C 0.79359 0.49934 0.86179 0.0
C1028 C 0.78253 0.45855 0.87984 0.0
C1029 C 0.75951 0.46836 0.88927 0.0
C1030 C 0.75311 0.49349 0.88344 0.0
C1031 C 0.77003 0.50885 0.86998 0.0
H1032 H 0.60355 0.29021 1.00293 0.0
H1033 H 0.66036 0.30819 0.05852 0.0
H1034 H 0.58479 0.25949 0.03182 0.0
H1035 H 0.64109 0.27837 0.08777 0.0
H1036 H 0.61343 0.21315 0.13192 0.0
H1037 H 0.63393 0.23541 0.09701 0.0
H1038 H 0.56048 0.25833 0.06954 0.0
H1039 H 0.5401 0.23513 0.10374 0.0
C1040 C 0.61196 0.28768 0.02137 0.0
C1041 C 0.63338 0.30168 0.02849 0.0
C1042 C 0.60117 0.27011 0.03797 0.0
C1043 C 0.6114 0.26635 0.06217 0.0
C1044 C 0.63298 0.28029 0.06913 0.0
C1045 C 0.64392 0.29761 0.05243 0.0
C1046 C 0.6017 0.22245 0.11803 0.0
C1047 C 0.5752 0.22254 0.12064 0.0
C1048 C 0.61343 0.23544 0.09817 0.0
C1049 C 0.59892 0.24916 0.08072 0.0
C1050 C 0.57231 0.24787 0.08246 0.0
C1051 C 0.56058 0.23455 0.10212 0.0
H1052 H 0.83865 0.55494 0.12089 0.0
H1053 H 0.79434 0.57914 0.18581 0.0
H1054 H 0.81901 0.5883 0.09549 0.0
H1055 H 0.77494 0.612 0.16057 0.0
H1056 H 0.72143 0.64098 0.09932 0.0
H1057 H 0.74443 0.60962 0.12373 0.0
H1058 H 0.81534 0.63757 0.09355 0.0
H1059 H 0.79227 0.66924 0.06901 0.0
C1060 C 0.82496 0.56745 0.12977 0.0
C1061 C 0.8179 0.56425 0.15529 0.0
C1062 C 0.81381 0.58655 0.11529 0.0
C1063 C 0.79528 0.60249 0.12606 0.0
C1064 C 0.78888 0.59973 0.15171 0.0
C1065 C 0.80011 0.58092 0.16617 0.0
C1066 C 0.74192 0.64051 0.09788 0.0
C1067 C 0.75504 0.65767 0.08237 0.0
C1068 C 0.75508 0.6226 0.11192 0.0
C1069 C 0.78165 0.62128 0.11057 0.0
C1070 C 0.79484 0.63817 0.09481 0.0
C1071 C 0.78166 0.65636 0.08096 0.0
H1072 H 0.39211 0.74143 0.10171 0.0
H1073 H 0.44706 0.75097 0.04139 0.0
H1074 H 0.41983 0.76459 0.13054 0.0
H1075 H 0.47474 0.77391 0.07024 0.0
H1076 H 0.52803 0.78555 0.13848 0.0
H1077 H 0.49997 0.7641 0.10915 0.0
H1078 H 0.43732 0.80982 0.13564 0.0
H1079 H 0.46568 0.83162 0.16521 0.0
C1080 C 0.41021 0.74819 0.09467 0.0
C1081 C 0.41743 0.74421 0.06925 0.0
C1082 C 0.42593 0.76173 0.11111 0.0
C1083 C 0.44938 0.77123 0.10262 0.0
C1084 C 0.45682 0.76676 0.07738 0.0
C1085 C 0.44096 0.75359 0.06086 0.0
C1086 C 0.50832 0.79125 0.13797 0.0
C1087 C 0.49909 0.81033 0.1542 0.0
C1088 C 0.49226 0.77896 0.12107 0.0
C1089 C 0.46642 0.78517 0.12012 0.0
C1090 C 0.45713 0.80448 0.13611 0.0
C1091 C 0.47337 0.81712 0.15285 0.0
H1092 H 0.35151 0.4373 0.11224 0.0
H1093 H 0.29062 0.41103 0.06492 0.0
H1094 H 0.32093 0.45401 0.14258 0.0
H1095 H 0.25976 0.42874 0.09487 0.0
H1096 H 0.20871 0.44844 0.16099 0.0
H1097 H 0.24039 0.42633 0.13542 0.0
H1098 H 0.29273 0.48805 0.14684 0.0
H1099 H 0.26137 0.50961 0.17315 0.0
C1100 C 0.33151 0.43514 0.10828 0.0
C1101 C 0.32348 0.423 0.08606 0.0
C1102 C 0.31393 0.44489 0.12566 0.0
C1103 C 0.28777 0.44308 0.12116 0.0
C1104 C 0.27971 0.43029 0.0992 0.0
C1105 C 0.29738 0.42022 0.08191 0.0
C1106 C 0.22715 0.45709 0.15836 0.0
C1107 C 0.23249 0.48082 0.1691 0.0
C1108 C 0.24526 0.44451 0.14346 0.0
C1109 C 0.26913 0.45543 0.13873 0.0
C1110 C 0.27473 0.4788 0.15025 0.0
C1111 C 0.2567 0.49126 0.16536 0.0
H1112 H 0.91506 0.5344 0.75055 0.0
H1113 H 0.8805 0.59678 0.791 0.0
H1114 H 0.9368 0.5641 0.72272 0.0
H1115 H 0.90271 0.62647 0.76351 0.0
H1116 H 0.93509 0.67319 0.69772 0.0
H1117 H 0.90812 0.64342 0.72083 0.0
H1118 H 0.97188 0.59291 0.72877 0.0
H1119 H 0.99857 0.62223 0.70544 0.0
C1120 C 0.91186 0.55443 0.75334 0.0
C1121 C 0.89626 0.5632 0.77318 0.0
C1122 C 0.92448 0.57147 0.73749 0.0
C1123 C 0.92183 0.59767 0.74116 0.0
C1124 C 0.9051 0.60643 0.76009 0.0
C1125 C 0.89242 0.58937 0.77592 0.0
C1126 C 0.94332 0.65572 0.7044 0.0
C1127 C 0.96899 0.6501 0.6997 0.0
C1128 C 0.92787 0.63869 0.71767 0.0
C1129 C 0.93778 0.61568 0.72646 0.0
C1130 C 0.96348 0.61019 0.72182 0.0
C1131 C 0.97887 0.62715 0.70861 0.0
H1132 H 0.8864 0.39879 0.17104 0.0
H1133 H 0.92375 0.46265 0.2057 0.0
H1134 H 0.91117 0.37009 0.19741 0.0
H1135 H 0.94801 0.43392 0.23207 0.0
H1136 H 0.93897 0.37941 0.30111 0.0
H1137 H 0.9212 0.40383 0.26673 0.0
H1138 H 0.9631 0.35906 0.21236 0.0
H1139 H 0.98176 0.33457 0.24711 0.0
C1140 C 0.90038 0.4067 0.18367 0.0
C1141 C 0.90274 0.43306 0.18658 0.0
C1142 C 0.91455 0.39024 0.1987 0.0
C1143 C 0.93112 0.39992 0.21691 0.0
C1144 C 0.93515 0.42609 0.21823 0.0
C1145 C 0.92127 0.44251 0.20306 0.0
C1146 C 0.94432 0.37444 0.28189 0.0
C1147 C 0.96195 0.3551 0.27691 0.0
C1148 C 0.93424 0.3886 0.26223 0.0
C1149 C 0.94117 0.38353 0.23706 0.0
C1150 C 0.95769 0.36336 0.23172 0.0
C1151 C 0.96822 0.34935 0.25156 0.0
H1152 H 0.63679 0.03969 0.27649 0.0
H1153 H 0.65318 0.97805 0.32718 0.0
H1154 H 0.60864 0.01219 0.25225 0.0
H1155 H 0.62553 0.95035 0.30231 0.0
H1156 H 0.59868 0.90613 0.22974 0.0
H1157 H 0.62716 0.93511 0.25166 0.0
H1158 H 0.56476 0.98596 0.26602 0.0
H1159 H 0.53589 0.95659 0.24476 0.0
C1160 C 0.63452 0.02022 0.28235 0.0
C1161 C 0.64722 0.01099 0.30374 0.0
C1162 C 0.61835 1.00457 0.26852 0.0
C1163 C 0.61505 0.97922 0.2754 0.0
C1164 C 0.62792 0.96984 0.29659 0.0
C1165 C 0.64362 0.98568 0.31084 0.0
C1166 C 0.59105 0.92367 0.23717 0.0
C1167 C 0.56499 0.92909 0.23546 0.0
C1168 C 0.60734 0.94011 0.24991 0.0
C1169 C 0.59806 0.96258 0.26065 0.0
C1170 C 0.57232 0.96869 0.25788 0.0
C1171 C 0.55586 0.95195 0.24567 0.0
H1172 H 0.14946 0.56112 0.2751 0.0
H1173 H 0.16768 0.63434 0.24438 0.0
H1174 H 0.12057 0.58079 0.3056 0.0
H1175 H 0.14019 0.65436 0.27583 0.0
H1176 H 0.06121 0.67651 0.30253 0.0
H1177 H 0.09663 0.65849 0.2793 0.0
H1178 H 0.1099 0.60623 0.34057 0.0
H1179 H 0.07334 0.62368 0.36335 0.0
C1180 C 0.1481 0.58154 0.27565 0.0
C1181 C 0.16065 0.59626 0.25738 0.0
C1182 C 0.13148 0.59289 0.29312 0.0
C1183 C 0.12746 0.61922 0.29287 0.0
C1184 C 0.14204 0.634 0.27607 0.0
C1185 C 0.15812 0.6226 0.25827 0.0
C1186 C 0.07175 0.66127 0.31115 0.0
C1187 C 0.06438 0.65148 0.33475 0.0
C1188 C 0.09234 0.65103 0.29791 0.0
C1189 C 0.10648 0.63095 0.30806 0.0
C1190 C 0.09937 0.62146 0.33197 0.0
C1191 C 0.07845 0.63152 0.34509 0.0
H1192 H 0.42726 0.19937 0.22528 0.0
H1193 H 0.47424 0.13882 0.1961 0.0
H1194 H 0.40316 0.16905 0.25036 0.0
H1195 H 0.44983 0.10845 0.22125 0.0
H1196 H 0.3881 0.06025 0.26304 0.0
H1197 H 0.4042 0.08937 0.23042 0.0
H1198 H 0.42071 0.14445 0.28838 0.0
H1199 H 0.4052 0.11553 0.32068 0.0
C1200 C 0.43214 0.17955 0.22378 0.0
C1201 C 0.45297 0.17158 0.209 0.0
C1202 C 0.41833 0.16221 0.23819 0.0
C1203 C 0.42485 0.13649 0.23795 0.0
C1204 C 0.44438 0.12818 0.2217 0.0
C1205 C 0.4584 0.14559 0.2074 0.0
C1206 C 0.39496 0.07869 0.26867 0.0
C1207 C 0.39553 0.08562 0.29437 0.0
C1208 C 0.40422 0.09525 0.25008 0.0
C1209 C 0.41354 0.11917 0.25691 0.0
C1210 C 0.41335 0.12625 0.28254 0.0
C1211 C 0.40464 0.10961 0.30105 0.0
H1212 H 0.10528 0.40835 0.70947 0.0
H1213 H 0.05286 0.46031 0.74523 0.0
H1214 H 0.13982 0.42655 0.73321 0.0
H1215 H 0.08782 0.47973 0.76808 0.0
H1216 H 0.20149 0.47605 0.76377 0.0
H1217 H 0.16673 0.46008 0.73883 0.0
H1218 H 0.11534 0.47296 0.80184 0.0
H1219 H 0.15025 0.49052 0.82633 0.0
C1220 C 0.10123 0.42418 0.7219 0.0
C1221 C 0.07628 0.43287 0.72544 0.0
C1222 C 0.12115 0.43473 0.73557 0.0
C1223 C 0.11678 0.45462 0.75283 0.0
C1224 C 0.09193 0.46406 0.75548 0.0
C1225 C 0.07189 0.45317 0.7421 0.0
C1226 C 0.18282 0.4753 0.77243 0.0
C1227 C 0.17868 0.48439 0.79713 0.0
C1228 C 0.16278 0.46603 0.75808 0.0
C1229 C 0.13803 0.46506 0.76819 0.0
C1230 C 0.13397 0.4738 0.79314 0.0
C1231 C 0.15403 0.48359 0.80736 0.0
H1232 H 0.56194 0.13623 0.83214 0.0
H1233 H 0.54251 0.16042 0.75674 0.0
H1234 H 0.59317 0.10685 0.81407 0.0
H1235 H 0.5739 0.13199 0.73891 0.0
H1236 H 0.61912 0.06466 0.7113 0.0
H1237 H 0.58489 0.08923 0.73079 0.0
H1238 H 0.63372 0.10801 0.7933 0.0
H1239 H 0.66748 0.08296 0.77426 0.0
C1240 C 0.56423 0.13522 0.81177 0.0
C1241 C 0.54976 0.15077 0.79595 0.0
C1242 C 0.58225 0.11853 0.80138 0.0
C1243 C 0.58618 0.11704 0.77496 0.0
C1244 C 0.57123 0.13224 0.75926 0.0
C1245 C 0.55329 0.14878 0.76958 0.0
C1246 C 0.62251 0.07403 0.7292 0.0
C1247 C 0.6461 0.07191 0.74112 0.0
C1248 C 0.6029 0.08818 0.74039 0.0
C1249 C 0.60646 0.10067 0.7637 0.0
C1250 C 0.63005 0.09835 0.77562 0.0
C1251 C 0.64956 0.08414 0.76452 0.0
H1252 H 0.47315 0.88215 0.78608 0.0
H1253 H 0.47513 0.93709 0.84669 0.0
H1254 H 0.44219 0.90731 0.7641 0.0
H1255 H 0.44408 0.96296 0.82402 0.0
H1256 H 0.36679 0.98511 0.78807 0.0
H1257 H 0.39941 0.96255 0.81139 0.0
H1258 H 0.43852 0.94595 0.74109 0.0
H1259 H 0.40563 0.96791 0.71775 0.0
C1260 C 0.46714 0.89978 0.79469 0.0
C1261 C 0.47671 0.9076 0.81821 0.0
C1262 C 0.44943 0.91434 0.7819 0.0
C1263 C 0.44077 0.9373 0.79211 0.0
C1264 C 0.45027 0.94527 0.81569 0.0
C1265 C 0.46813 0.93055 0.82862 0.0
C1266 C 0.38233 0.9766 0.77757 0.0
C1267 C 0.38344 0.97809 0.75099 0.0
C1268 C 0.40117 0.96388 0.791 0.0
C1269 C 0.42157 0.95235 0.77815 0.0
C1270 C 0.42287 0.95424 0.75159 0.0
C1271 C 0.40402 0.96689 0.73818 0.0
loop_
_geom_bond_atom_site_label_1
_geom_bond_atom_site_label_2
_geom_bond_distance
_geom_bond_site_symmetry_2
_ccdc_geom_bond_type
Mg0 O7 2.141 . S
Mg0 O8 2.048 1_545 S
Mg0 O9 2.048 1_545 S
Mg0 O12 2.141 . S
C1 O2 1.313 . S
C1 O8 1.195 . S
O2 C1 1.313 . S
C3 O4 1.245 . S
C3 O12 1.289 . S
O4 C3 1.245 . S
C5 O6 1.245 . S
C5 O7 1.289 . S
O6 C5 1.245 . S
O7 Mg0 2.141 . S
O7 C5 1.289 . S
O8 Mg0 2.048 1_565 S
O8 C1 1.195 . S
O9 Mg0 2.048 1_565 S
O9 C10 1.195 . S
C10 O9 1.195 . S
C10 O11 1.313 . S
O11 C10 1.313 . S
O12 Mg0 2.141 . S
O12 C3 1.289 . S
Mg13 O20 2.141 . S
Mg13 O21 2.048 1_455 S
Mg13 O22 2.048 1_455 S
Mg13 O25 2.141 . S
C14 O15 1.313 . S
C14 O21 1.195 . S
O15 C14 1.313 . S
C16 O17 1.245 . S
C16 O25 1.289 . S
O17 C16 1.245 . S
C18 O19 1.245 . S
C18 O20 1.289 . S
O19 C18 1.245 . S
O20 Mg13 2.141 . S
O20 C18 1.289 . S
O21 Mg13 2.048 1_655 S
O21 C14 1.195 . S
O22 Mg13 2.048 1_655 S
O22 C23 1.195 . S
C23 O22 1.195 . S
C23 O24 1.313 . S
O24 C23 1.313 . S
O25 Mg13 2.141 . S
O25 C16 1.289 . S
Mg26 O33 2.141 1_545 S
Mg26 O34 2.048 . S
Mg26 O35 2.048 . S
Mg26 O38 2.141 1_545 S
C27 O28 1.313 . S
C27 O34 1.195 . S
O28 C27 1.313 . S
C29 O30 1.245 . S
C29 O38 1.289 . S
O30 C29 1.245 . S
C31 O32 1.245 . S
C31 O33 1.289 . S
O32 C31 1.245 . S
O33 Mg26 2.141 1_565 S
O33 C31 1.289 . S
O34 Mg26 2.048 . S
O34 C27 1.195 . S
O35 Mg26 2.048 . S
O35 C36 1.195 . S
C36 O35 1.195 . S
C36 O37 1.313 . S
O37 C36 1.313 . S
O38 Mg26 2.141 1_565 S
O38 C29 1.289 . S
Mg39 O46 2.141 1_455 S
Mg39 O47 2.048 . S
Mg39 O48 2.048 . S
Mg39 O51 2.141 1_455 S
C40 O41 1.313 . S
C40 O47 1.195 . S
O41 C40 1.313 . S
C42 O43 1.245 . S
C42 O51 1.289 . S
O43 C42 1.245 . S
C44 O45 1.245 . S
C44 O46 1.289 . S
O45 C44 1.245 . S
O46 Mg39 2.141 1_655 S
O46 C44 1.289 . S
O47 Mg39 2.048 . S
O47 C40 1.195 . S
O48 Mg39 2.048 . S
O48 C49 1.195 . S
C49 O48 1.195 . S
C49 O50 1.313 . S
O50 C49 1.313 . S
O51 Mg39 2.141 1_655 S
O51 C42 1.289 . S
Mg52 O59 2.141 1_545 S
Mg52 O60 2.048 . S
Mg52 O61 2.048 . S
Mg52 O64 2.141 1_545 S
C53 O54 1.313 . S
C53 O60 1.195 . S
O54 C53 1.313 . S
C55 O56 1.245 . S
C55 O64 1.289 . S
O56 C55 1.245 . S
C57 O58 1.245 . S
C57 O59 1.289 . S
O58 C57 1.245 . S
O59 Mg52 2.141 1_565 S
O59 C57 1.289 . S
O60 Mg52 2.048 . S
O60 C53 1.195 . S
O61 Mg52 2.048 . S
O61 C62 1.195 . S
C62 O61 1.195 . S
C62 O63 1.313 . S
O63 C62 1.313 . S
O64 Mg52 2.141 1_565 S
O64 C55 1.289 . S
Mg65 O72 2.141 . S
Mg65 O73 2.048 1_455 S
Mg65 O74 2.048 1_455 S
Mg65 O77 2.141 . S
C66 O67 1.313 . S
C66 O73 1.195 . S
O67 C66 1.313 . S
C68 O69 1.245 . S
C68 O77 1.289 . S
O69 C68 1.245 . S
C70 O71 1.245 . S
C70 O72 1.289 . S
O71 C70 1.245 . S
O72 Mg65 2.141 . S
O72 C70 1.289 . S
O73 Mg65 2.048 1_655 S
O73 C66 1.195 . S
O74 Mg65 2.048 1_655 S
O74 C75 1.195 . S
C75 O74 1.195 . S
C75 O76 1.313 . S
O76 C75 1.313 . S
O77 Mg65 2.141 . S
O77 C68 1.289 . S
Mg78 O85 2.141 . S
Mg78 O86 2.048 1_545 S
Mg78 O87 2.048 1_545 S
Mg78 O90 2.141 . S
C79 O80 1.313 . S
C79 O86 1.195 . S
O80 C79 1.313 . S
C81 O82 1.245 . S
C81 O90 1.289 . S
O82 C81 1.245 . S
C83 O84 1.245 . S
C83 O85 1.289 . S
O84 C83 1.245 . S
O85 Mg78 2.141 . S
O85 C83 1.289 . S
O86 Mg78 2.048 1_565 S
O86 C79 1.195 . S
O87 Mg78 2.048 1_565 S
O87 C88 1.195 . S
C88 O87 1.195 . S
C88 O89 1.313 . S
O89 C88 1.313 . S
O90 Mg78 2.141 . S
O90 C81 1.289 . S
Mg91 O98 2.141 1_455 S
Mg91 O99 2.048 . S
Mg91 O100 2.048 . S
Mg91 O103 2.141 1_455 S
C92 O93 1.313 . S
C92 O99 1.195 . S
O93 C92 1.313 . S
C94 O95 1.245 . S
C94 O103 1.289 . S
O95 C94 1.245 . S
C96 O97 1.245 . S
C96 O98 1.289 . S
O97 C96 1.245 . S
O98 Mg91 2.141 1_655 S
O98 C96 1.289 . S
O99 Mg91 2.048 . S
O99 C92 1.195 . S
O100 Mg91 2.048 . S
O100 C101 1.195 . S
C101 O100 1.195 . S
C101 O102 1.313 . S
O102 C101 1.313 . S
O103 Mg91 2.141 1_655 S
O103 C94 1.289 . S
Mg104 O111 2.141 . S
Mg104 O112 2.048 1_554 S
Mg104 O113 2.048 1_554 S
Mg104 O116 2.141 . S
C105 O106 1.313 . S
C105 O112 1.195 . S
O106 C105 1.313 . S
C107 O108 1.245 . S
C107 O116 1.289 . S
O108 C107 1.245 . S
C109 O110 1.245 . S
C109 O111 1.289 . S
O110 C109 1.245 . S
O111 Mg104 2.141 . S
O111 C109 1.289 . S
O112 Mg104 2.048 1_556 S
O112 C105 1.195 . S
O113 Mg104 2.048 1_556 S
O113 C114 1.195 . S
C114 O113 1.195 . S
C114 O115 1.313 . S
O115 C114 1.313 . S
O116 Mg104 2.141 . S
O116 C107 1.289 . S
Mg117 O124 2.141 1_554 S
Mg117 O125 2.048 . S
Mg117 O126 2.048 . S
Mg117 O129 2.141 1_554 S
C118 O119 1.313 . S
C118 O125 1.195 . S
O119 C118 1.313 . S
C120 O121 1.245 . S
C120 O129 1.289 . S
O121 C120 1.245 . S
C122 O123 1.245 . S
C122 O124 1.289 . S
O123 C122 1.245 . S
O124 Mg117 2.141 1_556 S
O124 C122 1.289 . S
O125 Mg117 2.048 . S
O125 C118 1.195 . S
O126 Mg117 2.048 . S
O126 C127 1.195 . S
C127 O126 1.195 . S
C127 O128 1.313 . S
O128 C127 1.313 . S
O129 Mg117 2.141 1_556 S
O129 C120 1.289 . S
Mg130 O137 2.141 1_554 S
Mg130 O138 2.048 . S
Mg130 O139 2.048 . S
Mg130 O142 2.141 1_554 S
C131 O132 1.313 . S
C131 O138 1.195 . S
O132 C131 1.313 . S
C133 O134 1.245 . S
C133 O142 1.289 . S
O134 C133 1.245 . S
C135 O136 1.245 . S
C135 O137 1.289 . S
O136 C135 1.245 . S
O137 Mg130 2.141 1_556 S
O137 C135 1.289 . S
O138 Mg130 2.048 . S
O138 C131 1.195 . S
O139 Mg130 2.048 . S
O139 C140 1.195 . S
C140 O139 1.195 . S
C140 O141 1.313 . S
O141 C140 1.313 . S
O142 Mg130 2.141 1_556 S
O142 C133 1.289 . S
Mg143 O150 2.141 . S
Mg143 O151 2.048 1_554 S
Mg143 O152 2.048 1_554 S
Mg143 O155 2.141 . S
C144 O145 1.313 . S
C144 O151 1.195 . S
O145 C144 1.313 . S
C146 O147 1.245 . S
C146 O155 1.289 . S
O147 C146 1.245 . S
C148 O149 1.245 . S
C148 O150 1.289 . S
O149 C148 1.245 . S
O150 Mg143 2.141 . S
O150 C148 1.289 . S
O151 Mg143 2.048 1_556 S
O151 C144 1.195 . S
O152 Mg143 2.048 1_556 S
O152 C153 1.195 . S
C153 O152 1.195 . S
C153 O154 1.313 . S
O154 C153 1.313 . S
O155 Mg143 2.141 . S
O155 C146 1.289 . S
Mg156 O163 2.141 . S
Mg156 O164 2.048 . S
Mg156 O165 2.048 . S
Mg156 O168 2.141 . S
C157 O158 1.313 . S
C157 O164 1.195 . S
O158 C157 1.313 . S
C159 O160 1.245 . S
C159 O168 1.289 . S
O160 C159 1.245 . S
C161 O162 1.245 . S
C161 O163 1.289 . S
O162 C161 1.245 . S
O163 Mg156 2.141 . S
O163 C161 1.289 . S
O164 Mg156 2.048 . S
O164 C157 1.195 . S
O165 Mg156 2.048 . S
O165 C166 1.195 . S
C166 O165 1.195 . S
C166 O167 1.313 . S
O167 C166 1.313 . S
O168 Mg156 2.141 . S
O168 C159 1.289 . S
Mg169 O176 2.141 . S
Mg169 O177 2.048 . S
Mg169 O178 2.048 . S
Mg169 O181 2.141 . S
C170 O171 1.313 . S
C170 O177 1.195 . S
O171 C170 1.313 . S
C172 O173 1.245 . S
C172 O181 1.289 . S
O173 C172 1.245 . S
C174 O175 1.245 . S
C174 O176 1.289 . S
O175 C174 1.245 . S
O176 Mg169 2.141 . S
O176 C174 1.289 . S
O177 Mg169 2.048 . S
O177 C170 1.195 . S
O178 Mg169 2.048 . S
O178 C179 1.195 . S
C179 O178 1.195 . S
C179 O180 1.313 . S
O180 C179 1.313 . S
O181 Mg169 2.141 . S
O181 C172 1.289 . S
Mg182 O189 2.141 . S
Mg182 O190 2.048 . S
Mg182 O191 2.048 . S
Mg182 O194 2.141 . S
C183 O184 1.313 . S
C183 O190 1.195 . S
O184 C183 1.313 . S
C185 O186 1.245 . S
C185 O194 1.289 . S
O186 C185 1.245 . S
C187 O188 1.245 . S
C187 O189 1.289 . S
O188 C187 1.245 . S
O189 Mg182 2.141 . S
O189 C187 1.289 . S
O190 Mg182 2.048 . S
O190 C183 1.195 . S
O191 Mg182 2.048 . S
O191 C192 1.195 . S
C192 O191 1.195 . S
C192 O193 1.313 . S
O193 C192 1.313 . S
O194 Mg182 2.141 . S
O194 C185 1.289 . S
Mg195 O202 2.141 . S
Mg195 O203 2.048 . S
Mg195 O204 2.048 . S
Mg195 O207 2.141 . S
C196 O197 1.313 . S
C196 O203 1.195 . S
O197 C196 1.313 . S
C198 O199 1.245 . S
C198 O207 1.289 . S
O199 C198 1.245 . S
C200 O201 1.245 . S
C200 O202 1.289 . S
O201 C200 1.245 . S
O202 Mg195 2.141 . S
O202 C200 1.289 . S
O203 Mg195 2.048 . S
O203 C196 1.195 . S
O204 Mg195 2.048 . S
O204 C205 1.195 . S
C205 O204 1.195 . S
C205 O206 1.313 . S
O206 C205 1.313 . S
O207 Mg195 2.141 . S
O207 C198 1.289 . S
Mg208 O215 2.141 . S
Mg208 O216 2.048 . S
Mg208 O217 2.048 . S
Mg208 O220 2.141 . S
C209 O210 1.313 . S
C209 O216 1.195 . S
O210 C209 1.313 . S
C211 O212 1.245 . S
C211 O220 1.289 . S
O212 C211 1.245 . S
C213 O214 1.245 . S
C213 O215 1.289 . S
O214 C213 1.245 . S
O215 Mg208 2.141 . S
O215 C213 1.289 . S
O216 Mg208 2.048 . S
O216 C209 1.195 . S
O217 Mg208 2.048 . S
O217 C218 1.195 . S
C218 O217 1.195 . S
C218 O219 1.313 . S
O219 C218 1.313 . S
O220 Mg208 2.141 . S
O220 C211 1.289 . S
Mg221 O228 2.141 . S
Mg221 O229 2.048 . S
Mg221 O230 2.048 . S
Mg221 O233 2.141 . S
C222 O223 1.313 . S
C222 O229 1.195 . S
O223 C222 1.313 . S
C224 O225 1.245 . S
C224 O233 1.289 . S
O225 C224 1.245 . S
C226 O227 1.245 . S
C226 O228 1.289 . S
O227 C226 1.245 . S
O228 Mg221 2.141 . S
O228 C226 1.289 . S
O229 Mg221 2.048 . S
O229 C222 1.195 . S
O230 Mg221 2.048 . S
O230 C231 1.195 . S
C231 O230 1.195 . S
C231 O232 1.313 . S
O232 C231 1.313 . S
O233 Mg221 2.141 . S
O233 C224 1.289 . S
Mg234 O241 2.141 . S
Mg234 O242 2.048 . S
Mg234 O243 2.048 . S
Mg234 O246 2.141 . S
C235 O236 1.313 . S
C235 O242 1.195 . S
O236 C235 1.313 . S
C237 O238 1.245 . S
C237 O246 1.289 . S
O238 C237 1.245 . S
C239 O240 1.245 . S
C239 O241 1.289 . S
O240 C239 1.245 . S
O241 Mg234 2.141 . S
O241 C239 1.289 . S
O242 Mg234 2.048 . S
O242 C235 1.195 . S
O243 Mg234 2.048 . S
O243 C244 1.195 . S
C244 O243 1.195 . S
C244 O245 1.313 . S
O245 C244 1.313 . S
O246 Mg234 2.141 . S
O246 C237 1.289 . S
Mg247 O254 2.141 . S
Mg247 O255 2.048 . S
Mg247 O256 2.048 . S
Mg247 O259 2.141 . S
C248 O249 1.313 . S
C248 O255 1.195 . S
O249 C248 1.313 . S
C250 O251 1.245 . S
C250 O259 1.289 . S
O251 C250 1.245 . S
C252 O253 1.245 . S
C252 O254 1.289 . S
O253 C252 1.245 . S
O254 Mg247 2.141 . S
O254 C252 1.289 . S
O255 Mg247 2.048 . S
O255 C248 1.195 . S
O256 Mg247 2.048 . S
O256 C257 1.195 . S
C257 O256 1.195 . S
C257 O258 1.313 . S
O258 C257 1.313 . S
O259 Mg247 2.141 . S
O259 C250 1.289 . S
Mg260 O267 2.141 . S
Mg260 O268 2.048 . S
Mg260 O269 2.048 . S
Mg260 O272 2.141 . S
C261 O262 1.313 . S
C261 O268 1.195 . S
O262 C261 1.313 . S
C263 O264 1.245 . S
C263 O272 1.289 . S
O264 C263 1.245 . S
C265 O266 1.245 . S
C265 O267 1.289 . S
O266 C265 1.245 . S
O267 Mg260 2.141 . S
O267 C265 1.289 . S
O268 Mg260 2.048 . S
O268 C261 1.195 . S
O269 Mg260 2.048 . S
O269 C270 1.195 . S
C270 O269 1.195 . S
C270 O271 1.313 . S
O271 C270 1.313 . S
O272 Mg260 2.141 . S
O272 C263 1.289 . S
Mg273 O280 2.141 . S
Mg273 O281 2.048 . S
Mg273 O282 2.048 . S
Mg273 O285 2.141 . S
C274 O275 1.313 . S
C274 O281 1.195 . S
O275 C274 1.313 . S
C276 O277 1.245 . S
C276 O285 1.289 . S
O277 C276 1.245 . S
C278 O279 1.245 . S
C278 O280 1.289 . S
O279 C278 1.245 . S
O280 Mg273 2.141 . S
O280 C278 1.289 . S
O281 Mg273 2.048 . S
O281 C274 1.195 . S
O282 Mg273 2.048 . S
O282 C283 1.195 . S
C283 O282 1.195 . S
C283 O284 1.313 . S
O284 C283 1.313 . S
O285 Mg273 2.141 . S
O285 C276 1.289 . S
Mg286 O293 2.141 . S
Mg286 O294 2.048 . S
Mg286 O295 2.048 . S
Mg286 O298 2.141 . S
C287 O288 1.313 . S
C287 O294 1.195 . S
O288 C287 1.313 . S
C289 O290 1.245 . S
C289 O298 1.289 . S
O290 C289 1.245 . S
C291 O292 1.245 . S
C291 O293 1.289 . S
O292 C291 1.245 . S
O293 Mg286 2.141 . S
O293 C291 1.289 . S
O294 Mg286 2.048 . S
O294 C287 1.195 . S
O295 Mg286 2.048 . S
O295 C296 1.195 . S
C296 O295 1.195 . S
C296 O297 1.313 . S
O297 C296 1.313 . S
O298 Mg286 2.141 . S
O298 C289 1.289 . S
Mg299 O306 2.141 . S
Mg299 O307 2.048 . S
Mg299 O308 2.048 . S
Mg299 O311 2.141 . S
C300 O301 1.313 . S
C300 O307 1.195 . S
O301 C300 1.313 . S
C302 O303 1.245 . S
C302 O311 1.289 . S
O303 C302 1.245 . S
C304 O305 1.245 . S
C304 O306 1.289 . S
O305 C304 1.245 . S
O306 Mg299 2.141 . S
O306 C304 1.289 . S
O307 Mg299 2.048 . S
O307 C300 1.195 . S
O308 Mg299 2.048 . S
O308 C309 1.195 . S
C309 O308 1.195 . S
C309 O310 1.313 . S
O310 C309 1.313 . S
O311 Mg299 2.141 . S
O311 C302 1.289 . S
H312 C320 0.950 . S
H313 C325 0.950 . S
H314 C322 0.950 . S
H315 C324 0.950 . S
H316 C326 0.950 . S
H317 C328 0.950 . S
H318 C330 0.950 . S
H319 C331 0.950 . S
C320 H312 0.950 . S
C320 C321 1.386 . S
C320 C322 1.391 . S
C321 C320 1.386 . S
C321 C325 1.393 . S
C322 H314 0.950 . S
C322 C320 1.391 . S
C322 C323 1.400 . S
C323 C322 1.400 . S
C323 C324 1.398 . S
C323 C329 1.491 . S
C324 H315 0.950 . S
C324 C323 1.398 . S
C324 C325 1.391 . S
C325 H313 0.950 . S
C325 C321 1.393 . S
C325 C324 1.391 . S
C326 H316 0.950 . S
C326 C327 1.386 . S
C326 C328 1.391 . S
C327 C326 1.386 . S
C327 C331 1.393 . S
C328 H317 0.950 . S
C328 C326 1.391 . S
C328 C329 1.400 . S
C329 C323 1.491 . S
C329 C328 1.400 . S
C329 C330 1.398 . S
C330 H318 0.950 . S
C330 C329 1.398 . S
C330 C331 1.391 . S
C331 H319 0.950 . S
C331 C327 1.393 . S
C331 C330 1.391 . S
H332 C340 0.950 . S
H333 C345 0.950 . S
H334 C342 0.950 . S
H335 C344 0.950 . S
H336 C346 0.950 . S
H337 C348 0.950 . S
H338 C350 0.950 . S
H339 C351 0.950 . S
C340 H332 0.950 . S
C340 C341 1.386 . S
C340 C342 1.391 . S
C341 C340 1.386 . S
C341 C345 1.393 . S
C342 H334 0.950 . S
C342 C340 1.391 . S
C342 C343 1.400 . S
C343 C342 1.400 . S
C343 C344 1.398 . S
C343 C349 1.491 . S
C344 H335 0.950 . S
C344 C343 1.398 . S
C344 C345 1.391 . S
C345 H333 0.950 . S
C345 C341 1.393 . S
C345 C344 1.391 . S
C346 H336 0.950 . S
C346 C347 1.386 . S
C346 C348 1.391 . S
C347 C346 1.386 . S
C347 C351 1.393 . S
C348 H337 0.950 . S
C348 C346 1.391 . S
C348 C349 1.400 . S
C349 C343 1.491 . S
C349 C348 1.400 . S
C349 C350 1.398 . S
C350 H338 0.950 . S
C350 C349 1.398 . S
C350 C351 1.391 . S
C351 H339 0.950 . S
C351 C347 1.393 . S
C351 C350 1.391 . S
H352 C360 0.950 . S
H353 C365 0.950 . S
H354 C362 0.950 . S
H355 C364 0.950 . S
H356 C366 0.950 . S
H357 C368 0.950 . S
H358 C370 0.950 . S
H359 C371 0.950 . S
C360 H352 0.950 . S
C360 C361 1.386 . S
C360 C362 1.391 . S
C361 C360 1.386 . S
C361 C365 1.393 . S
C362 H354 0.950 . S
C362 C360 1.391 . S
C362 C363 1.400 . S
C363 C362 1.400 . S
C363 C364 1.398 . S
C363 C369 1.491 . S
C364 H355 0.950 . S
C364 C363 1.398 . S
C364 C365 1.391 . S
C365 H353 0.950 . S
C365 C361 1.393 . S
C365 C364 1.391 . S
C366 H356 0.950 . S
C366 C367 1.386 . S
C366 C368 1.391 . S
C367 C366 1.386 . S
C367 C371 1.393 . S
C368 H357 0.950 . S
C368 C366 1.391 . S
C368 C369 1.400 . S
C369 C363 1.491 . S
C369 C368 1.400 . S
C369 C370 1.398 . S
C370 H358 0.950 . S
C370 C369 1.398 . S
C370 C371 1.391 . S
C371 H359 0.950 . S
C371 C367 1.393 . S
C371 C370 1.391 . S
H372 C380 0.950 . S
H373 C385 0.950 . S
H374 C382 0.950 . S
H375 C384 0.950 . S
H376 C386 0.950 . S
H377 C388 0.950 . S
H378 C390 0.950 . S
H379 C391 0.950 . S
C380 H372 0.950 . S
C380 C381 1.386 . S
C380 C382 1.391 . S
C381 C380 1.386 . S
C381 C385 1.393 . S
C382 H374 0.950 . S
C382 C380 1.391 . S
C382 C383 1.400 . S
C383 C382 1.400 . S
C383 C384 1.398 . S
C383 C389 1.491 . S
C384 H375 0.950 . S
C384 C383 1.398 . S
C384 C385 1.391 . S
C385 H373 0.950 . S
C385 C381 1.393 . S
C385 C384 1.391 . S
C386 H376 0.950 . S
C386 C387 1.386 . S
C386 C388 1.391 . S
C387 C386 1.386 . S
C387 C391 1.393 . S
C388 H377 0.950 . S
C388 C386 1.391 . S
C388 C389 1.400 . S
C389 C383 1.491 . S
C389 C388 1.400 . S
C389 C390 1.398 . S
C390 H378 0.950 . S
C390 C389 1.398 . S
C390 C391 1.391 . S
C391 H379 0.950 . S
C391 C387 1.393 . S
C391 C390 1.391 . S
H392 C400 0.950 . S
H393 C405 0.950 . S
H394 C402 0.950 . S
H395 C404 0.950 . S
H396 C406 0.950 . S
H397 C408 0.950 . S
H398 C410 0.950 . S
H399 C411 0.950 . S
C400 H392 0.950 . S
C400 C401 1.386 . S
C400 C402 1.391 . S
C401 C400 1.386 . S
C401 C405 1.393 . S
C402 H394 0.950 . S
C402 C400 1.391 . S
C402 C403 1.400 . S
C403 C402 1.400 . S
C403 C404 1.398 . S
C403 C409 1.491 . S
C404 H395 0.950 . S
C404 C403 1.398 . S
C404 C405 1.391 . S
C405 H393 0.950 . S
C405 C401 1.393 . S
C405 C404 1.391 . S
C406 H396 0.950 . S
C406 C407 1.386 . S
C406 C408 1.391 . S
C407 C406 1.386 . S
C407 C411 1.393 . S
C408 H397 0.950 . S
C408 C406 1.391 . S
C408 C409 1.400 . S
C409 C403 1.491 . S
C409 C408 1.400 . S
C409 C410 1.398 . S
C410 H398 0.950 . S
C410 C409 1.398 . S
C410 C411 1.391 . S
C411 H399 0.950 . S
C411 C407 1.393 . S
C411 C410 1.391 . S
H412 C420 0.950 . S
H413 C425 0.950 . S
H414 C422 0.950 . S
H415 C424 0.950 . S
H416 C426 0.950 . S
H417 C428 0.950 . S
H418 C430 0.950 . S
H419 C431 0.950 . S
C420 H412 0.950 . S
C420 C421 1.386 . S
C420 C422 1.391 . S
C421 C420 1.386 . S
C421 C425 1.393 . S
C422 H414 0.950 . S
C422 C420 1.391 . S
C422 C423 1.400 . S
C423 C422 1.400 . S
C423 C424 1.398 . S
C423 C429 1.491 . S
C424 H415 0.950 . S
C424 C423 1.398 . S
C424 C425 1.391 . S
C425 H413 0.950 . S
C425 C421 1.393 . S
C425 C424 1.391 . S
C426 H416 0.950 . S
C426 C427 1.386 . S
C426 C428 1.391 . S
C427 C426 1.386 . S
C427 C431 1.393 . S
C428 H417 0.950 . S
C428 C426 1.391 . S
C428 C429 1.400 . S
C429 C423 1.491 . S
C429 C428 1.400 . S
C429 C430 1.398 . S
C430 H418 0.950 . S
C430 C429 1.398 . S
C430 C431 1.391 . S
C431 H419 0.950 . S
C431 C427 1.393 . S
C431 C430 1.391 . S
H432 C440 0.950 . S
H433 C445 0.950 . S
H434 C442 0.950 . S
H435 C444 0.950 . S
H436 C446 0.950 . S
H437 C448 0.950 . S
H438 C450 0.950 . S
H439 C451 0.950 . S
C440 H432 0.950 . S
C440 C441 1.386 . S
C440 C442 1.391 . S
C441 C440 1.386 . S
C441 C445 1.393 . S
C442 H434 0.950 . S
C442 C440 1.391 . S
C442 C443 1.400 . S
C443 C442 1.400 . S
C443 C444 1.398 . S
C443 C449 1.491 . S
C444 H435 0.950 . S
C444 C443 1.398 . S
C444 C445 1.391 . S
C445 H433 0.950 . S
C445 C441 1.393 . S
C445 C444 1.391 . S
C446 H436 0.950 . S
C446 C447 1.386 . S
C446 C448 1.391 . S
C447 C446 1.386 . S
C447 C451 1.393 . S
C448 H437 0.950 . S
C448 C446 1.391 . S
C448 C449 1.400 . S
C449 C443 1.491 . S
C449 C448 1.400 . S
C449 C450 1.398 . S
C450 H438 0.950 . S
C450 C449 1.398 . S
C450 C451 1.391 . S
C451 H439 0.950 . S
C451 C447 1.393 . S
C451 C450 1.391 . S
H452 C460 0.950 . S
H453 C465 0.950 . S
H454 C462 0.950 . S
H455 C464 0.950 . S
H456 C466 0.950 . S
H457 C468 0.950 . S
H458 C470 0.950 . S
H459 C471 0.950 . S
C460 H452 0.950 . S
C460 C461 1.386 . S
C460 C462 1.391 . S
C461 C460 1.386 . S
C461 C465 1.393 . S
C462 H454 0.950 . S
C462 C460 1.391 . S
C462 C463 1.400 . S
C463 C462 1.400 . S
C463 C464 1.398 . S
C463 C469 1.491 . S
C464 H455 0.950 . S
C464 C463 1.398 . S
C464 C465 1.391 . S
C465 H453 0.950 . S
C465 C461 1.393 . S
C465 C464 1.391 . S
C466 H456 0.950 . S
C466 C467 1.386 . S
C466 C468 1.391 . S
C467 C466 1.386 . S
C467 C471 1.393 . S
C468 H457 0.950 . S
C468 C466 1.391 . S
C468 C469 1.400 . S
C469 C463 1.491 . S
C469 C468 1.400 . S
C469 C470 1.398 . S
C470 H458 0.950 . S
C470 C469 1.398 . S
C470 C471 1.391 . S
C471 H459 0.950 . S
C471 C467 1.393 . S
C471 C470 1.391 . S
H472 C480 0.950 . S
H473 C485 0.950 . S
H474 C482 0.950 . S
H475 C484 0.950 . S
H476 C486 0.950 . S
H477 C488 0.950 . S
H478 C490 0.950 . S
H479 C491 0.950 . S
C480 H472 0.950 . S
C480 C481 1.386 . S
C480 C482 1.391 . S
C481 C480 1.386 . S
C481 C485 1.393 . S
C482 H474 0.950 . S
C482 C480 1.391 . S
C482 C483 1.400 . S
C483 C482 1.400 . S
C483 C484 1.398 . S
C483 C489 1.491 . S
C484 H475 0.950 . S
C484 C483 1.398 . S
C484 C485 1.391 . S
C485 H473 0.950 . S
C485 C481 1.393 . S
C485 C484 1.391 . S
C486 H476 0.950 . S
C486 C487 1.386 . S
C486 C488 1.391 . S
C487 C486 1.386 . S
C487 C491 1.393 . S
C488 H477 0.950 . S
C488 C486 1.391 . S
C488 C489 1.400 . S
C489 C483 1.491 . S
C489 C488 1.400 . S
C489 C490 1.398 . S
C490 H478 0.950 . S
C490 C489 1.398 . S
C490 C491 1.391 . S
C491 H479 0.950 . S
C491 C487 1.393 . S
C491 C490 1.391 . S
H492 C500 0.950 . S
H493 C505 0.950 . S
H494 C502 0.950 . S
H495 C504 0.950 . S
H496 C506 0.950 . S
H497 C508 0.950 . S
H498 C510 0.950 . S
H499 C511 0.950 . S
C500 H492 0.950 . S
C500 C501 1.386 . S
C500 C502 1.391 . S
C501 C500 1.386 . S
C501 C505 1.393 . S
C502 H494 0.950 . S
C502 C500 1.391 . S
C502 C503 1.400 . S
C503 C502 1.400 . S
C503 C504 1.398 . S
C503 C509 1.491 . S
C504 H495 0.950 . S
C504 C503 1.398 . S
C504 C505 1.391 . S
C505 H493 0.950 . S
C505 C501 1.393 . S
C505 C504 1.391 . S
C506 H496 0.950 . S
C506 C507 1.386 . S
C506 C508 1.391 . S
C507 C506 1.386 . S
C507 C511 1.393 . S
C508 H497 0.950 . S
C508 C506 1.391 . S
C508 C509 1.400 . S
C509 C503 1.491 . S
C509 C508 1.400 . S
C509 C510 1.398 . S
C510 H498 0.950 . S
C510 C509 1.398 . S
C510 C511 1.391 . S
C511 H499 0.950 . S
C511 C507 1.393 . S
C511 C510 1.391 . S
H512 C520 0.950 . S
H513 C525 0.950 . S
H514 C522 0.950 . S
H515 C524 0.950 . S
H516 C526 0.950 . S
H517 C528 0.950 . S
H518 C530 0.950 . S
H519 C531 0.950 . S
C520 H512 0.950 . S
C520 C521 1.386 . S
C520 C522 1.391 . S
C521 C520 1.386 . S
C521 C525 1.393 . S
C522 H514 0.950 . S
C522 C520 1.391 . S
C522 C523 1.400 . S
C523 C522 1.400 . S
C523 C524 1.398 . S
C523 C529 1.491 . S
C524 H515 0.950 . S
C524 C523 1.398 . S
C524 C525 1.391 . S
C525 H513 0.950 . S
C525 C521 1.393 . S
C525 C524 1.391 . S
C526 H516 0.950 . S
C526 C527 1.386 . S
C526 C528 1.391 . S
C527 C526 1.386 . S
C527 C531 1.393 . S
C528 H517 0.950 . S
C528 C526 1.391 . S
C528 C529 1.400 . S
C529 C523 1.491 . S
C529 C528 1.400 . S
C529 C530 1.398 . S
C530 H518 0.950 . S
C530 C529 1.398 . S
C530 C531 1.391 . S
C531 H519 0.950 . S
C531 C527 1.393 . S
C531 C530 1.391 . S
H532 C540 0.950 . S
H533 C545 0.950 . S
H534 C542 0.950 . S
H535 C544 0.950 . S
H536 C546 0.950 . S
H537 C548 0.950 . S
H538 C550 0.950 . S
H539 C551 0.950 . S
C540 H532 0.950 . S
C540 C541 1.386 . S
C540 C542 1.391 . S
C541 C540 1.386 . S
C541 C545 1.393 . S
C542 H534 0.950 . S
C542 C540 1.391 . S
C542 C543 1.400 . S
C543 C542 1.400 . S
C543 C544 1.398 . S
C543 C549 1.491 . S
C544 H535 0.950 . S
C544 C543 1.398 . S
C544 C545 1.391 . S
C545 H533 0.950 . S
C545 C541 1.393 . S
C545 C544 1.391 . S
C546 H536 0.950 . S
C546 C547 1.386 . S
C546 C548 1.391 . S
C547 C546 1.386 . S
C547 C551 1.393 . S
C548 H537 0.950 . S
C548 C546 1.391 . S
C548 C549 1.400 . S
C549 C543 1.491 . S
C549 C548 1.400 . S
C549 C550 1.398 . S
C550 H538 0.950 . S
C550 C549 1.398 . S
C550 C551 1.391 . S
C551 H539 0.950 . S
C551 C547 1.393 . S
C551 C550 1.391 . S
H552 C560 0.950 . S
H553 C565 0.950 . S
H554 C562 0.950 . S
H555 C564 0.950 . S
H556 C566 0.950 . S
H557 C568 0.950 . S
H558 C570 0.950 . S
H559 C571 0.950 . S
C560 H552 0.950 . S
C560 C561 1.386 . S
C560 C562 1.391 . S
C561 C560 1.386 . S
C561 C565 1.393 . S
C562 H554 0.950 . S
C562 C560 1.391 . S
C562 C563 1.400 . S
C563 C562 1.400 . S
C563 C564 1.398 . S
C563 C569 1.491 . S
C564 H555 0.950 . S
C564 C563 1.398 . S
C564 C565 1.391 . S
C565 H553 0.950 . S
C565 C561 1.393 . S
C565 C564 1.391 . S
C566 H556 0.950 . S
C566 C567 1.386 . S
C566 C568 1.391 . S
C567 C566 1.386 . S
C567 C571 1.393 . S
C568 H557 0.950 . S
C568 C566 1.391 . S
C568 C569 1.400 . S
C569 C563 1.491 . S
C569 C568 1.400 . S
C569 C570 1.398 . S
C570 H558 0.950 . S
C570 C569 1.398 . S
C570 C571 1.391 . S
C571 H559 0.950 . S
C571 C567 1.393 . S
C571 C570 1.391 . S
H572 C580 0.950 . S
H573 C585 0.950 . S
H574 C582 0.950 . S
H575 C584 0.950 . S
H576 C586 0.950 . S
H577 C588 0.950 . S
H578 C590 0.950 . S
H579 C591 0.950 . S
C580 H572 0.950 . S
C580 C581 1.386 . S
C580 C582 1.391 . S
C581 C580 1.386 . S
C581 C585 1.393 . S
C582 H574 0.950 . S
C582 C580 1.391 . S
C582 C583 1.400 . S
C583 C582 1.400 . S
C583 C584 1.398 . S
C583 C589 1.491 . S
C584 H575 0.950 . S
C584 C583 1.398 . S
C584 C585 1.391 . S
C585 H573 0.950 . S
C585 C581 1.393 . S
C585 C584 1.391 . S
C586 H576 0.950 . S
C586 C587 1.386 . S
C586 C588 1.391 . S
C587 C586 1.386 . S
C587 C591 1.393 . S
C588 H577 0.950 . S
C588 C586 1.391 . S
C588 C589 1.400 . S
C589 C583 1.491 . S
C589 C588 1.400 . S
C589 C590 1.398 . S
C590 H578 0.950 . S
C590 C589 1.398 . S
C590 C591 1.391 . S
C591 H579 0.950 . S
C591 C587 1.393 . S
C591 C590 1.391 . S
H592 C600 0.950 . S
H593 C605 0.950 . S
H594 C602 0.950 . S
H595 C604 0.950 . S
H596 C606 0.950 . S
H597 C608 0.950 . S
H598 C610 0.950 . S
H599 C611 0.950 . S
C600 H592 0.950 . S
C600 C601 1.386 . S
C600 C602 1.391 . S
C601 C600 1.386 . S
C601 C605 1.393 . S
C602 H594 0.950 . S
C602 C600 1.391 . S
C602 C603 1.400 . S
C603 C602 1.400 . S
C603 C604 1.398 . S
C603 C609 1.491 . S
C604 H595 0.950 . S
C604 C603 1.398 . S
C604 C605 1.391 . S
C605 H593 0.950 . S
C605 C601 1.393 . S
C605 C604 1.391 . S
C606 H596 0.950 . S
C606 C607 1.386 . S
C606 C608 1.391 . S
C607 C606 1.386 . S
C607 C611 1.393 . S
C608 H597 0.950 . S
C608 C606 1.391 . S
C608 C609 1.400 . S
C609 C603 1.491 . S
C609 C608 1.400 . S
C609 C610 1.398 . S
C610 H598 0.950 . S
C610 C609 1.398 . S
C610 C611 1.391 . S
C611 H599 0.950 . S
C611 C607 1.393 . S
C611 C610 1.391 . S
H612 C620 0.950 . S
H613 C625 0.950 . S
H614 C622 0.950 . S
H615 C624 0.950 . S
H616 C626 0.950 . S
H617 C628 0.950 . S
H618 C630 0.950 . S
H619 C631 0.950 . S
C620 H612 0.950 . S
C620 C621 1.386 . S
C620 C622 1.391 . S
C621 C620 1.386 . S
C621 C625 1.393 . S
C622 H614 0.950 . S
C622 C620 1.391 . S
C622 C623 1.400 . S
C623 C622 1.400 . S
C623 C624 1.398 . S
C623 C629 1.491 . S
C624 H615 0.950 . S
C624 C623 1.398 . S
C624 C625 1.391 . S
C625 H613 0.950 . S
C625 C621 1.393 . S
C625 C624 1.391 . S
C626 H616 0.950 . S
C626 C627 1.386 . S
C626 C628 1.391 . S
C627 C626 1.386 . S
C627 C631 1.393 . S
C628 H617 0.950 . S
C628 C626 1.391 . S
C628 C629 1.400 . S
C629 C623 1.491 . S
C629 C628 1.400 . S
C629 C630 1.398 . S
C630 H618 0.950 . S
C630 C629 1.398 . S
C630 C631 1.391 . S
C631 H619 0.950 . S
C631 C627 1.393 . S
C631 C630 1.391 . S
H632 C640 0.950 . S
H633 C645 0.950 . S
H634 C642 0.950 . S
H635 C644 0.950 . S
H636 C646 0.950 . S
H637 C648 0.950 . S
H638 C650 0.950 . S
H639 C651 0.950 . S
C640 H632 0.950 . S
C640 C641 1.386 . S
C640 C642 1.391 . S
C641 C640 1.386 . S
C641 C645 1.393 . S
C642 H634 0.950 . S
C642 C640 1.391 . S
C642 C643 1.400 . S
C643 C642 1.400 . S
C643 C644 1.398 . S
C643 C649 1.491 . S
C644 H635 0.950 . S
C644 C643 1.398 . S
C644 C645 1.391 . S
C645 H633 0.950 . S
C645 C641 1.393 . S
C645 C644 1.391 . S
C646 H636 0.950 . S
C646 C647 1.386 . S
C646 C648 1.391 . S
C647 C646 1.386 . S
C647 C651 1.393 . S
C648 H637 0.950 . S
C648 C646 1.391 . S
C648 C649 1.400 . S
C649 C643 1.491 . S
C649 C648 1.400 . S
C649 C650 1.398 . S
C650 H638 0.950 . S
C650 C649 1.398 . S
C650 C651 1.391 . S
C651 H639 0.950 . S
C651 C647 1.393 . S
C651 C650 1.391 . S
H652 C660 0.950 . S
H653 C665 0.950 . S
H654 C662 0.950 . S
H655 C664 0.950 . S
H656 C666 0.950 . S
H657 C668 0.950 . S
H658 C670 0.950 . S
H659 C671 0.950 . S
C660 H652 0.950 . S
C660 C661 1.386 . S
C660 C662 1.391 . S
C661 C660 1.386 . S
C661 C665 1.393 . S
C662 H654 0.950 . S
C662 C660 1.391 . S
C662 C663 1.400 . S
C663 C662 1.400 . S
C663 C664 1.398 . S
C663 C669 1.491 . S
C664 H655 0.950 . S
C664 C663 1.398 . S
C664 C665 1.391 . S
C665 H653 0.950 . S
C665 C661 1.393 . S
C665 C664 1.391 . S
C666 H656 0.950 . S
C666 C667 1.386 . S
C666 C668 1.391 . S
C667 C666 1.386 . S
C667 C671 1.393 . S
C668 H657 0.950 . S
C668 C666 1.391 . S
C668 C669 1.400 . S
C669 C663 1.491 . S
C669 C668 1.400 . S
C669 C670 1.398 . S
C670 H658 0.950 . S
C670 C669 1.398 . S
C670 C671 1.391 . S
C671 H659 0.950 . S
C671 C667 1.393 . S
C671 C670 1.391 . S
H672 C680 0.950 . S
H673 C685 0.950 . S
H674 C682 0.950 . S
H675 C684 0.950 . S
H676 C686 0.950 . S
H677 C688 0.950 . S
H678 C690 0.950 . S
H679 C691 0.950 . S
C680 H672 0.950 . S
C680 C681 1.386 . S
C680 C682 1.391 . S
C681 C680 1.386 . S
C681 C685 1.393 . S
C682 H674 0.950 . S
C682 C680 1.391 . S
C682 C683 1.400 . S
C683 C682 1.400 . S
C683 C684 1.398 . S
C683 C689 1.491 . S
C684 H675 0.950 . S
C684 C683 1.398 . S
C684 C685 1.391 . S
C685 H673 0.950 . S
C685 C681 1.393 . S
C685 C684 1.391 . S
C686 H676 0.950 . S
C686 C687 1.386 . S
C686 C688 1.391 . S
C687 C686 1.386 . S
C687 C691 1.393 . S
C688 H677 0.950 . S
C688 C686 1.391 . S
C688 C689 1.400 . S
C689 C683 1.491 . S
C689 C688 1.400 . S
C689 C690 1.398 . S
C690 H678 0.950 . S
C690 C689 1.398 . S
C690 C691 1.391 . S
C691 H679 0.950 . S
C691 C687 1.393 . S
C691 C690 1.391 . S
H692 C700 0.950 . S
H693 C705 0.950 . S
H694 C702 0.950 . S
H695 C704 0.950 . S
H696 C706 0.950 . S
H697 C708 0.950 . S
H698 C710 0.950 . S
H699 C711 0.950 . S
C700 H692 0.950 . S
C700 C701 1.386 . S
C700 C702 1.391 . S
C701 C700 1.386 . S
C701 C705 1.393 . S
C702 H694 0.950 . S
C702 C700 1.391 . S
C702 C703 1.400 . S
C703 C702 1.400 . S
C703 C704 1.398 . S
C703 C709 1.491 . S
C704 H695 0.950 . S
C704 C703 1.398 . S
C704 C705 1.391 . S
C705 H693 0.950 . S
C705 C701 1.393 . S
C705 C704 1.391 . S
C706 H696 0.950 . S
C706 C707 1.386 . S
C706 C708 1.391 . S
C707 C706 1.386 . S
C707 C711 1.393 . S
C708 H697 0.950 . S
C708 C706 1.391 . S
C708 C709 1.400 . S
C709 C703 1.491 . S
C709 C708 1.400 . S
C709 C710 1.398 . S
C710 H698 0.950 . S
C710 C709 1.398 . S
C710 C711 1.391 . S
C711 H699 0.950 . S
C711 C707 1.393 . S
C711 C710 1.391 . S
H712 C720 0.950 . S
H713 C725 0.950 . S
H714 C722 0.950 . S
H715 C724 0.950 . S
H716 C726 0.950 . S
H717 C728 0.950 . S
H718 C730 0.950 . S
H719 C731 0.950 . S
C720 H712 0.950 . S
C720 C721 1.386 . S
C720 C722 1.391 . S
C721 C720 1.386 . S
C721 C725 1.393 . S
C722 H714 0.950 . S
C722 C720 1.391 . S
C722 C723 1.400 . S
C723 C722 1.400 . S
C723 C724 1.398 . S
C723 C729 1.491 . S
C724 H715 0.950 . S
C724 C723 1.398 . S
C724 C725 1.391 . S
C725 H713 0.950 . S
C725 C721 1.393 . S
C725 C724 1.391 . S
C726 H716 0.950 . S
C726 C727 1.386 . S
C726 C728 1.391 . S
C727 C726 1.386 . S
C727 C731 1.393 . S
C728 H717 0.950 . S
C728 C726 1.391 . S
C728 C729 1.400 . S
C729 C723 1.491 . S
C729 C728 1.400 . S
C729 C730 1.398 . S
C730 H718 0.950 . S
C730 C729 1.398 . S
C730 C731 1.391 . S
C731 H719 0.950 . S
C731 C727 1.393 . S
C731 C730 1.391 . S
H732 C740 0.950 . S
H733 C745 0.950 . S
H734 C742 0.950 . S
H735 C744 0.950 . S
H736 C746 0.950 . S
H737 C748 0.950 . S
H738 C750 0.950 . S
H739 C751 0.950 . S
C740 H732 0.950 . S
C740 C741 1.386 . S
C740 C742 1.391 . S
C741 C740 1.386 . S
C741 C745 1.393 . S
C742 H734 0.950 . S
C742 C740 1.391 . S
C742 C743 1.400 . S
C743 C742 1.400 . S
C743 C744 1.398 . S
C743 C749 1.491 . S
C744 H735 0.950 . S
C744 C743 1.398 . S
C744 C745 1.391 . S
C745 H733 0.950 . S
C745 C741 1.393 . S
C745 C744 1.391 . S
C746 H736 0.950 . S
C746 C747 1.386 . S
C746 C748 1.391 . S
C747 C746 1.386 . S
C747 C751 1.393 . S
C748 H737 0.950 . S
C748 C746 1.391 . S
C748 C749 1.400 . S
C749 C743 1.491 . S
C749 C748 1.400 . S
C749 C750 1.398 . S
C750 H738 0.950 . S
C750 C749 1.398 . S
C750 C751 1.391 . S
C751 H739 0.950 . S
C751 C747 1.393 . S
C751 C750 1.391 . S
H752 C760 0.950 . S
H753 C765 0.950 . S
H754 C762 0.950 . S
H755 C764 0.950 . S
H756 C766 0.950 . S
H757 C768 0.950 . S
H758 C770 0.950 . S
H759 C771 0.950 . S
C760 H752 0.950 . S
C760 C761 1.386 . S
C760 C762 1.391 . S
C761 C760 1.386 . S
C761 C765 1.393 . S
C762 H754 0.950 . S
C762 C760 1.391 . S
C762 C763 1.400 . S
C763 C762 1.400 . S
C763 C764 1.398 . S
C763 C769 1.491 . S
C764 H755 0.950 . S
C764 C763 1.398 . S
C764 C765 1.391 . S
C765 H753 0.950 . S
C765 C761 1.393 . S
C765 C764 1.391 . S
C766 H756 0.950 . S
C766 C767 1.386 . S
C766 C768 1.391 . S
C767 C766 1.386 . S
C767 C771 1.393 . S
C768 H757 0.950 . S
C768 C766 1.391 . S
C768 C769 1.400 . S
C769 C763 1.491 . S
C769 C768 1.400 . S
C769 C770 1.398 . S
C770 H758 0.950 . S
C770 C769 1.398 . S
C770 C771 1.391 . S
C771 H759 0.950 . S
C771 C767 1.393 . S
C771 C770 1.391 . S
H772 C780 0.950 . S
H773 C785 0.950 . S
H774 C782 0.950 . S
H775 C784 0.950 . S
H776 C786 0.950 . S
H777 C788 0.950 . S
H778 C790 0.950 . S
H779 C791 0.950 . S
C780 H772 0.950 . S
C780 C781 1.386 . S
C780 C782 1.391 . S
C781 C780 1.386 . S
C781 C785 1.393 . S
C782 H774 0.950 . S
C782 C780 1.391 . S
C782 C783 1.400 . S
C783 C782 1.400 . S
C783 C784 1.398 . S
C783 C789 1.491 . S
C784 H775 0.950 . S
C784 C783 1.398 . S
C784 C785 1.391 . S
C785 H773 0.950 . S
C785 C781 1.393 . S
C785 C784 1.391 . S
C786 H776 0.950 . S
C786 C787 1.386 . S
C786 C788 1.391 . S
C787 C786 1.386 . S
C787 C791 1.393 . S
C788 H777 0.950 . S
C788 C786 1.391 . S
C788 C789 1.400 . S
C789 C783 1.491 . S
C789 C788 1.400 . S
C789 C790 1.398 . S
C790 H778 0.950 . S
C790 C789 1.398 . S
C790 C791 1.391 . S
C791 H779 0.950 . S
C791 C787 1.393 . S
C791 C790 1.391 . S
H792 C800 0.950 . S
H793 C805 0.950 . S
H794 C802 0.950 . S
H795 C804 0.950 . S
H796 C806 0.950 . S
H797 C808 0.950 . S
H798 C810 0.950 . S
H799 C811 0.950 . S
C800 H792 0.950 . S
C800 C801 1.386 . S
C800 C802 1.391 . S
C801 C800 1.386 . S
C801 C805 1.393 . S
C802 H794 0.950 . S
C802 C800 1.391 . S
C802 C803 1.400 . S
C803 C802 1.400 . S
C803 C804 1.398 . S
C803 C809 1.491 . S
C804 H795 0.950 . S
C804 C803 1.398 . S
C804 C805 1.391 . S
C805 H793 0.950 . S
C805 C801 1.393 . S
C805 C804 1.391 . S
C806 H796 0.950 . S
C806 C807 1.386 . S
C806 C808 1.391 . S
C807 C806 1.386 . S
C807 C811 1.393 . S
C808 H797 0.950 . S
C808 C806 1.391 . S
C808 C809 1.400 . S
C809 C803 1.491 . S
C809 C808 1.400 . S
C809 C810 1.398 . S
C810 H798 0.950 . S
C810 C809 1.398 . S
C810 C811 1.391 . S
C811 H799 0.950 . S
C811 C807 1.393 . S
C811 C810 1.391 . S
H812 C820 0.950 . S
H813 C825 0.950 . S
H814 C822 0.950 . S
H815 C824 0.950 . S
H816 C826 0.950 . S
H817 C828 0.950 . S
H818 C830 0.950 . S
H819 C831 0.950 . S
C820 H812 0.950 . S
C820 C821 1.386 . S
C820 C822 1.391 . S
C821 C820 1.386 . S
C821 C825 1.393 . S
C822 H814 0.950 . S
C822 C820 1.391 . S
C822 C823 1.400 . S
C823 C822 1.400 . S
C823 C824 1.398 . S
C823 C829 1.491 . S
C824 H815 0.950 . S
C824 C823 1.398 . S
C824 C825 1.391 . S
C825 H813 0.950 . S
C825 C821 1.393 . S
C825 C824 1.391 . S
C826 H816 0.950 . S
C826 C827 1.386 . S
C826 C828 1.391 . S
C827 C826 1.386 . S
C827 C831 1.393 . S
C828 H817 0.950 . S
C828 C826 1.391 . S
C828 C829 1.400 . S
C829 C823 1.491 . S
C829 C828 1.400 . S
C829 C830 1.398 . S
C830 H818 0.950 . S
C830 C829 1.398 . S
C830 C831 1.391 . S
C831 H819 0.950 . S
C831 C827 1.393 . S
C831 C830 1.391 . S
H832 C840 0.950 . S
H833 C845 0.950 . S
H834 C842 0.950 . S
H835 C844 0.950 . S
H836 C846 0.950 . S
H837 C848 0.950 . S
H838 C850 0.950 . S
H839 C851 0.950 . S
C840 H832 0.950 . S
C840 C841 1.386 . S
C840 C842 1.391 . S
C841 C840 1.386 . S
C841 C845 1.393 . S
C842 H834 0.950 . S
C842 C840 1.391 . S
C842 C843 1.400 . S
C843 C842 1.400 . S
C843 C844 1.398 . S
C843 C849 1.491 . S
C844 H835 0.950 . S
C844 C843 1.398 . S
C844 C845 1.391 . S
C845 H833 0.950 . S
C845 C841 1.393 . S
C845 C844 1.391 . S
C846 H836 0.950 . S
C846 C847 1.386 . S
C846 C848 1.391 . S
C847 C846 1.386 . S
C847 C851 1.393 . S
C848 H837 0.950 . S
C848 C846 1.391 . S
C848 C849 1.400 . S
C849 C843 1.491 . S
C849 C848 1.400 . S
C849 C850 1.398 . S
C850 H838 0.950 . S
C850 C849 1.398 . S
C850 C851 1.391 . S
C851 H839 0.950 . S
C851 C847 1.393 . S
C851 C850 1.391 . S
H852 C860 0.950 . S
H853 C865 0.950 . S
H854 C862 0.950 . S
H855 C864 0.950 . S
H856 C866 0.950 . S
H857 C868 0.950 . S
H858 C870 0.950 . S
H859 C871 0.950 . S
C860 H852 0.950 . S
C860 C861 1.386 . S
C860 C862 1.391 . S
C861 C860 1.386 . S
C861 C865 1.393 . S
C862 H854 0.950 . S
C862 C860 1.391 . S
C862 C863 1.400 . S
C863 C862 1.400 . S
C863 C864 1.398 . S
C863 C869 1.491 . S
C864 H855 0.950 . S
C864 C863 1.398 . S
C864 C865 1.391 . S
C865 H853 0.950 . S
C865 C861 1.393 . S
C865 C864 1.391 . S
C866 H856 0.950 . S
C866 C867 1.386 . S
C866 C868 1.391 . S
C867 C866 1.386 . S
C867 C871 1.393 . S
C868 H857 0.950 . S
C868 C866 1.391 . S
C868 C869 1.400 . S
C869 C863 1.491 . S
C869 C868 1.400 . S
C869 C870 1.398 . S
C870 H858 0.950 . S
C870 C869 1.398 . S
C870 C871 1.391 . S
C871 H859 0.950 . S
C871 C867 1.393 . S
C871 C870 1.391 . S
H872 C880 0.950 . S
H873 C885 0.950 . S
H874 C882 0.950 . S
H875 C884 0.950 . S
H876 C886 0.950 . S
H877 C888 0.950 . S
H878 C890 0.950 . S
H879 C891 0.950 . S
C880 H872 0.950 . S
C880 C881 1.386 . S
C880 C882 1.391 . S
C881 C880 1.386 . S
C881 C885 1.393 . S
C882 H874 0.950 . S
C882 C880 1.391 . S
C882 C883 1.400 . S
C883 C882 1.400 . S
C883 C884 1.398 . S
C883 C889 1.491 . S
C884 H875 0.950 . S
C884 C883 1.398 . S
C884 C885 1.391 . S
C885 H873 0.950 . S
C885 C881 1.393 . S
C885 C884 1.391 . S
C886 H876 0.950 . S
C886 C887 1.386 . S
C886 C888 1.391 . S
C887 C886 1.386 . S
C887 C891 1.393 . S
C888 H877 0.950 . S
C888 C886 1.391 . S
C888 C889 1.400 . S
C889 C883 1.491 . S
C889 C888 1.400 . S
C889 C890 1.398 . S
C890 H878 0.950 . S
C890 C889 1.398 . S
C890 C891 1.391 . S
C891 H879 0.950 . S
C891 C887 1.393 . S
C891 C890 1.391 . S
H892 C900 0.950 . S
H893 C905 0.950 . S
H894 C902 0.950 . S
H895 C904 0.950 . S
H896 C906 0.950 . S
H897 C908 0.950 . S
H898 C910 0.950 . S
H899 C911 0.950 . S
C900 H892 0.950 . S
C900 C901 1.386 . S
C900 C902 1.391 . S
C901 C900 1.386 . S
C901 C905 1.393 . S
C902 H894 0.950 . S
C902 C900 1.391 . S
C902 C903 1.400 . S
C903 C902 1.400 . S
C903 C904 1.398 . S
C903 C909 1.491 . S
C904 H895 0.950 . S
C904 C903 1.398 . S
C904 C905 1.391 . S
C905 H893 0.950 . S
C905 C901 1.393 . S
C905 C904 1.391 . S
C906 H896 0.950 . S
C906 C907 1.386 . S
C906 C908 1.391 . S
C907 C906 1.386 . S
C907 C911 1.393 . S
C908 H897 0.950 . S
C908 C906 1.391 . S
C908 C909 1.400 . S
C909 C903 1.491 . S
C909 C908 1.400 . S
C909 C910 1.398 . S
C910 H898 0.950 . S
C910 C909 1.398 . S
C910 C911 1.391 . S
C911 H899 0.950 . S
C911 C907 1.393 . S
C911 C910 1.391 . S
H912 C920 0.950 . S
H913 C925 0.950 . S
H914 C922 0.950 . S
H915 C924 0.950 . S
H916 C926 0.950 . S
H917 C928 0.950 . S
H918 C930 0.950 . S
H919 C931 0.950 . S
C920 H912 0.950 . S
C920 C921 1.386 . S
C920 C922 1.391 . S
C921 C920 1.386 . S
C921 C925 1.393 . S
C922 H914 0.950 . S
C922 C920 1.391 . S
C922 C923 1.400 . S
C923 C922 1.400 . S
C923 C924 1.398 . S
C923 C929 1.491 . S
C924 H915 0.950 . S
C924 C923 1.398 . S
C924 C925 1.391 . S
C925 H913 0.950 . S
C925 C921 1.393 . S
C925 C924 1.391 . S
C926 H916 0.950 . S
C926 C927 1.386 . S
C926 C928 1.391 . S
C927 C926 1.386 . S
C927 C931 1.393 . S
C928 H917 0.950 . S
C928 C926 1.391 . S
C928 C929 1.400 . S
C929 C923 1.491 . S
C929 C928 1.400 . S
C929 C930 1.398 . S
C930 H918 0.950 . S
C930 C929 1.398 . S
C930 C931 1.391 . S
C931 H919 0.950 . S
C931 C927 1.393 . S
C931 C930 1.391 . S
H932 C940 0.950 . S
H933 C945 0.950 . S
H934 C942 0.950 . S
H935 C944 0.950 . S
H936 C946 0.950 . S
H937 C948 0.950 . S
H938 C950 0.950 . S
H939 C951 0.950 . S
C940 H932 0.950 . S
C940 C941 1.386 . S
C940 C942 1.391 . S
C941 C940 1.386 . S
C941 C945 1.393 . S
C942 H934 0.950 . S
C942 C940 1.391 . S
C942 C943 1.400 . S
C943 C942 1.400 . S
C943 C944 1.398 . S
C943 C949 1.491 . S
C944 H935 0.950 . S
C944 C943 1.398 . S
C944 C945 1.391 . S
C945 H933 0.950 . S
C945 C941 1.393 . S
C945 C944 1.391 . S
C946 H936 0.950 . S
C946 C947 1.386 . S
C946 C948 1.391 . S
C947 C946 1.386 . S
C947 C951 1.393 . S
C948 H937 0.950 . S
C948 C946 1.391 . S
C948 C949 1.400 . S
C949 C943 1.491 . S
C949 C948 1.400 . S
C949 C950 1.398 . S
C950 H938 0.950 . S
C950 C949 1.398 . S
C950 C951 1.391 . S
C951 H939 0.950 . S
C951 C947 1.393 . S
C951 C950 1.391 . S
H952 C960 0.950 . S
H953 C965 0.950 . S
H954 C962 0.950 . S
H955 C964 0.950 . S
H956 C966 0.950 . S
H957 C968 0.950 . S
H958 C970 0.950 . S
H959 C971 0.950 . S
C960 H952 0.950 . S
C960 C961 1.386 . S
C960 C962 1.391 . S
C961 C960 1.386 . S
C961 C965 1.393 . S
C962 H954 0.950 . S
C962 C960 1.391 . S
C962 C963 1.400 . S
C963 C962 1.400 . S
C963 C964 1.398 . S
C963 C969 1.491 . S
C964 H955 0.950 . S
C964 C963 1.398 . S
C964 C965 1.391 . S
C965 H953 0.950 . S
C965 C961 1.393 . S
C965 C964 1.391 . S
C966 H956 0.950 . S
C966 C967 1.386 . S
C966 C968 1.391 . S
C967 C966 1.386 . S
C967 C971 1.393 . S
C968 H957 0.950 . S
C968 C966 1.391 . S
C968 C969 1.400 . S
C969 C963 1.491 . S
C969 C968 1.400 . S
C969 C970 1.398 . S
C970 H958 0.950 . S
C970 C969 1.398 . S
C970 C971 1.391 . S
C971 H959 0.950 . S
C971 C967 1.393 . S
C971 C970 1.391 . S
H972 C980 0.950 . S
H973 C985 0.950 . S
H974 C982 0.950 . S
H975 C984 0.950 . S
H976 C986 0.950 . S
H977 C988 0.950 . S
H978 C990 0.950 . S
H979 C991 0.950 . S
C980 H972 0.950 . S
C980 C981 1.386 . S
C980 C982 1.391 . S
C981 C980 1.386 . S
C981 C985 1.393 . S
C982 H974 0.950 . S
C982 C980 1.391 . S
C982 C983 1.400 . S
C983 C982 1.400 . S
C983 C984 1.398 . S
C983 C989 1.491 . S
C984 H975 0.950 . S
C984 C983 1.398 . S
C984 C985 1.391 . S
C985 H973 0.950 . S
C985 C981 1.393 . S
C985 C984 1.391 . S
C986 H976 0.950 . S
C986 C987 1.386 . S
C986 C988 1.391 . S
C987 C986 1.386 . S
C987 C991 1.393 . S
C988 H977 0.950 . S
C988 C986 1.391 . S
C988 C989 1.400 . S
C989 C983 1.491 . S
C989 C988 1.400 . S
C989 C990 1.398 . S
C990 H978 0.950 . S
C990 C989 1.398 . S
C990 C991 1.391 . S
C991 H979 0.950 . S
C991 C987 1.393 . S
C991 C990 1.391 . S
H992 C1000 0.950 . S
H993 C1005 0.950 . S
H994 C1002 0.950 . S
H995 C1004 0.950 . S
H996 C1006 0.950 . S
H997 C1008 0.950 . S
H998 C1010 0.950 . S
H999 C1011 0.950 . S
C1000 H992 0.950 . S
C1000 C1001 1.386 . S
C1000 C1002 1.391 . S
C1001 C1000 1.386 . S
C1001 C1005 1.393 . S
C1002 H994 0.950 . S
C1002 C1000 1.391 . S
C1002 C1003 1.400 . S
C1003 C1002 1.400 . S
C1003 C1004 1.398 . S
C1003 C1009 1.491 . S
C1004 H995 0.950 . S
C1004 C1003 1.398 . S
C1004 C1005 1.391 . S
C1005 H993 0.950 . S
C1005 C1001 1.393 . S
C1005 C1004 1.391 . S
C1006 H996 0.950 . S
C1006 C1007 1.386 . S
C1006 C1008 1.391 . S
C1007 C1006 1.386 . S
C1007 C1011 1.393 . S
C1008 H997 0.950 . S
C1008 C1006 1.391 . S
C1008 C1009 1.400 . S
C1009 C1003 1.491 . S
C1009 C1008 1.400 . S
C1009 C1010 1.398 . S
C1010 H998 0.950 . S
C1010 C1009 1.398 . S
C1010 C1011 1.391 . S
C1011 H999 0.950 . S
C1011 C1007 1.393 . S
C1011 C1010 1.391 . S
H1012 C1020 0.950 . S
H1013 C1025 0.950 . S
H1014 C1022 0.950 . S
H1015 C1024 0.950 . S
H1016 C1026 0.950 . S
H1017 C1028 0.950 . S
H1018 C1030 0.950 . S
H1019 C1031 0.950 . S
C1020 H1012 0.950 . S
C1020 C1021 1.386 . S
C1020 C1022 1.391 . S
C1021 C1020 1.386 . S
C1021 C1025 1.393 . S
C1022 H1014 0.950 . S
C1022 C1020 1.391 . S
C1022 C1023 1.400 . S
C1023 C1022 1.400 . S
C1023 C1024 1.398 . S
C1023 C1029 1.491 . S
C1024 H1015 0.950 . S
C1024 C1023 1.398 . S
C1024 C1025 1.391 . S
C1025 H1013 0.950 . S
C1025 C1021 1.393 . S
C1025 C1024 1.391 . S
C1026 H1016 0.950 . S
C1026 C1027 1.386 . S
C1026 C1028 1.391 . S
C1027 C1026 1.386 . S
C1027 C1031 1.393 . S
C1028 H1017 0.950 . S
C1028 C1026 1.391 . S
C1028 C1029 1.400 . S
C1029 C1023 1.491 . S
C1029 C1028 1.400 . S
C1029 C1030 1.398 . S
C1030 H1018 0.950 . S
C1030 C1029 1.398 . S
C1030 C1031 1.391 . S
C1031 H1019 0.950 . S
C1031 C1027 1.393 . S
C1031 C1030 1.391 . S
H1032 C1040 0.950 . S
H1033 C1045 0.950 . S
H1034 C1042 0.950 . S
H1035 C1044 0.950 . S
H1036 C1046 0.950 . S
H1037 C1048 0.950 . S
H1038 C1050 0.950 . S
H1039 C1051 0.950 . S
C1040 H1032 0.950 . S
C1040 C1041 1.386 . S
C1040 C1042 1.391 . S
C1041 C1040 1.386 . S
C1041 C1045 1.393 . S
C1042 H1034 0.950 . S
C1042 C1040 1.391 . S
C1042 C1043 1.400 . S
C1043 C1042 1.400 . S
C1043 C1044 1.398 . S
C1043 C1049 1.491 . S
C1044 H1035 0.950 . S
C1044 C1043 1.398 . S
C1044 C1045 1.391 . S
C1045 H1033 0.950 . S
C1045 C1041 1.393 . S
C1045 C1044 1.391 . S
C1046 H1036 0.950 . S
C1046 C1047 1.386 . S
C1046 C1048 1.391 . S
C1047 C1046 1.386 . S
C1047 C1051 1.393 . S
C1048 H1037 0.950 . S
C1048 C1046 1.391 . S
C1048 C1049 1.400 . S
C1049 C1043 1.491 . S
C1049 C1048 1.400 . S
C1049 C1050 1.398 . S
C1050 H1038 0.950 . S
C1050 C1049 1.398 . S
C1050 C1051 1.391 . S
C1051 H1039 0.950 . S
C1051 C1047 1.393 . S
C1051 C1050 1.391 . S
H1052 C1060 0.950 . S
H1053 C1065 0.950 . S
H1054 C1062 0.950 . S
H1055 C1064 0.950 . S
H1056 C1066 0.950 . S
H1057 C1068 0.950 . S
H1058 C1070 0.950 . S
H1059 C1071 0.950 . S
C1060 H1052 0.950 . S
C1060 C1061 1.386 . S
C1060 C1062 1.391 . S
C1061 C1060 1.386 . S
C1061 C1065 1.393 . S
C1062 H1054 0.950 . S
C1062 C1060 1.391 . S
C1062 C1063 1.400 . S
C1063 C1062 1.400 . S
C1063 C1064 1.398 . S
C1063 C1069 1.491 . S
C1064 H1055 0.950 . S
C1064 C1063 1.398 . S
C1064 C1065 1.391 . S
C1065 H1053 0.950 . S
C1065 C1061 1.393 . S
C1065 C1064 1.391 . S
C1066 H1056 0.950 . S
C1066 C1067 1.386 . S
C1066 C1068 1.391 . S
C1067 C1066 1.386 . S
C1067 C1071 1.393 . S
C1068 H1057 0.950 . S
C1068 C1066 1.391 . S
C1068 C1069 1.400 . S
C1069 C1063 1.491 . S
C1069 C1068 1.400 . S
C1069 C1070 1.398 . S
C1070 H1058 0.950 . S
C1070 C1069 1.398 . S
C1070 C1071 1.391 . S
C1071 H1059 0.950 . S
C1071 C1067 1.393 . S
C1071 C1070 1.391 . S
H1072 C1080 0.950 . S
H1073 C1085 0.950 . S
H1074 C1082 0.950 . S
H1075 C1084 0.950 . S
H1076 C1086 0.950 . S
H1077 C1088 0.950 . S
H1078 C1090 0.950 . S
H1079 C1091 0.950 . S
C1080 H1072 0.950 . S
C1080 C1081 1.386 . S
C1080 C1082 1.391 . S
C1081 C1080 1.386 . S
C1081 C1085 1.393 . S
C1082 H1074 0.950 . S
C1082 C1080 1.391 . S
C1082 C1083 1.400 . S
C1083 C1082 1.400 . S
C1083 C1084 1.398 . S
C1083 C1089 1.491 . S
C1084 H1075 0.950 . S
C1084 C1083 1.398 . S
C1084 C1085 1.391 . S
C1085 H1073 0.950 . S
C1085 C1081 1.393 . S
C1085 C1084 1.391 . S
C1086 H1076 0.950 . S
C1086 C1087 1.386 . S
C1086 C1088 1.391 . S
C1087 C1086 1.386 . S
C1087 C1091 1.393 . S
C1088 H1077 0.950 . S
C1088 C1086 1.391 . S
C1088 C1089 1.400 . S
C1089 C1083 1.491 . S
C1089 C1088 1.400 . S
C1089 C1090 1.398 . S
C1090 H1078 0.950 . S
C1090 C1089 1.398 . S
C1090 C1091 1.391 . S
C1091 H1079 0.950 . S
C1091 C1087 1.393 . S
C1091 C1090 1.391 . S
H1092 C1100 0.950 . S
H1093 C1105 0.950 . S
H1094 C1102 0.950 . S
H1095 C1104 0.950 . S
H1096 C1106 0.950 . S
H1097 C1108 0.950 . S
H1098 C1110 0.950 . S
H1099 C1111 0.950 . S
C1100 H1092 0.950 . S
C1100 C1101 1.386 . S
C1100 C1102 1.391 . S
C1101 C1100 1.386 . S
C1101 C1105 1.393 . S
C1102 H1094 0.950 . S
C1102 C1100 1.391 . S
C1102 C1103 1.400 . S
C1103 C1102 1.400 . S
C1103 C1104 1.398 . S
C1103 C1109 1.491 . S
C1104 H1095 0.950 . S
C1104 C1103 1.398 . S
C1104 C1105 1.391 . S
C1105 H1093 0.950 . S
C1105 C1101 1.393 . S
C1105 C1104 1.391 . S
C1106 H1096 0.950 . S
C1106 C1107 1.386 . S
C1106 C1108 1.391 . S
C1107 C1106 1.386 . S
C1107 C1111 1.393 . S
C1108 H1097 0.950 . S
C1108 C1106 1.391 . S
C1108 C1109 1.400 . S
C1109 C1103 1.491 . S
C1109 C1108 1.400 . S
C1109 C1110 1.398 . S
C1110 H1098 0.950 . S
C1110 C1109 1.398 . S
C1110 C1111 1.391 . S
C1111 H1099 0.950 . S
C1111 C1107 1.393 . S
C1111 C1110 1.391 . S
H1112 C1120 0.950 . S
H1113 C1125 0.950 . S
H1114 C1122 0.950 . S
H1115 C1124 0.950 . S
H1116 C1126 0.950 . S
H1117 C1128 0.950 . S
H1118 C1130 0.950 . S
H1119 C1131 0.950 . S
C1120 H1112 0.950 . S
C1120 C1121 1.386 . S
C1120 C1122 1.391 . S
C1121 C1120 1.386 . S
C1121 C1125 1.393 . S
C1122 H1114 0.950 . S
C1122 C1120 1.391 . S
C1122 C1123 1.400 . S
C1123 C1122 1.400 . S
C1123 C1124 1.398 . S
C1123 C1129 1.491 . S
C1124 H1115 0.950 . S
C1124 C1123 1.398 . S
C1124 C1125 1.391 . S
C1125 H1113 0.950 . S
C1125 C1121 1.393 . S
C1125 C1124 1.391 . S
C1126 H1116 0.950 . S
C1126 C1127 1.386 . S
C1126 C1128 1.391 . S
C1127 C1126 1.386 . S
C1127 C1131 1.393 . S
C1128 H1117 0.950 . S
C1128 C1126 1.391 . S
C1128 C1129 1.400 . S
C1129 C1123 1.491 . S
C1129 C1128 1.400 . S
C1129 C1130 1.398 . S
C1130 H1118 0.950 . S
C1130 C1129 1.398 . S
C1130 C1131 1.391 . S
C1131 H1119 0.950 . S
C1131 C1127 1.393 . S
C1131 C1130 1.391 . S
H1132 C1140 0.950 . S
H1133 C1145 0.950 . S
H1134 C1142 0.950 . S
H1135 C1144 0.950 . S
H1136 C1146 0.950 . S
H1137 C1148 0.950 . S
H1138 C1150 0.950 . S
H1139 C1151 0.950 . S
C1140 H1132 0.950 . S
C1140 C1141 1.386 . S
C1140 C1142 1.391 . S
C1141 C1140 1.386 . S
C1141 C1145 1.393 . S
C1142 H1134 0.950 . S
C1142 C1140 1.391 . S
C1142 C1143 1.400 . S
C1143 C1142 1.400 . S
C1143 C1144 1.398 . S
C1143 C1149 1.491 . S
C1144 H1135 0.950 . S
C1144 C1143 1.398 . S
C1144 C1145 1.391 . S
C1145 H1133 0.950 . S
C1145 C1141 1.393 . S
C1145 C1144 1.391 . S
C1146 H1136 0.950 . S
C1146 C1147 1.386 . S
C1146 C1148 1.391 . S
C1147 C1146 1.386 . S
C1147 C1151 1.393 . S
C1148 H1137 0.950 . S
C1148 C1146 1.391 . S
C1148 C1149 1.400 . S
C1149 C1143 1.491 . S
C1149 C1148 1.400 . S
C1149 C1150 1.398 . S
C1150 H1138 0.950 . S
C1150 C1149 1.398 . S
C1150 C1151 1.391 . S
C1151 H1139 0.950 . S
C1151 C1147 1.393 . S
C1151 C1150 1.391 . S
H1152 C1160 0.950 . S
H1153 C1165 0.950 . S
H1154 C1162 0.950 . S
H1155 C1164 0.950 . S
H1156 C1166 0.950 . S
H1157 C1168 0.950 . S
H1158 C1170 0.950 . S
H1159 C1171 0.950 . S
C1160 H1152 0.950 . S
C1160 C1161 1.386 . S
C1160 C1162 1.391 . S
C1161 C1160 1.386 . S
C1161 C1165 1.393 . S
C1162 H1154 0.950 . S
C1162 C1160 1.391 . S
C1162 C1163 1.400 . S
C1163 C1162 1.400 . S
C1163 C1164 1.398 . S
C1163 C1169 1.491 . S
C1164 H1155 0.950 . S
C1164 C1163 1.398 . S
C1164 C1165 1.391 . S
C1165 H1153 0.950 . S
C1165 C1161 1.393 . S
C1165 C1164 1.391 . S
C1166 H1156 0.950 . S
C1166 C1167 1.386 . S
C1166 C1168 1.391 . S
C1167 C1166 1.386 . S
C1167 C1171 1.393 . S
C1168 H1157 0.950 . S
C1168 C1166 1.391 . S
C1168 C1169 1.400 . S
C1169 C1163 1.491 . S
C1169 C1168 1.400 . S
C1169 C1170 1.398 . S
C1170 H1158 0.950 . S
C1170 C1169 1.398 . S
C1170 C1171 1.391 . S
C1171 H1159 0.950 . S
C1171 C1167 1.393 . S
C1171 C1170 1.391 . S
H1172 C1180 0.950 . S
H1173 C1185 0.950 . S
H1174 C1182 0.950 . S
H1175 C1184 0.950 . S
H1176 C1186 0.950 . S
H1177 C1188 0.950 . S
H1178 C1190 0.950 . S
H1179 C1191 0.950 . S
C1180 H1172 0.950 . S
C1180 C1181 1.386 . S
C1180 C1182 1.391 . S
C1181 C1180 1.386 . S
C1181 C1185 1.393 . S
C1182 H1174 0.950 . S
C1182 C1180 1.391 . S
C1182 C1183 1.400 . S
C1183 C1182 1.400 . S
C1183 C1184 1.398 . S
C1183 C1189 1.491 . S
C1184 H1175 0.950 . S
C1184 C1183 1.398 . S
C1184 C1185 1.391 . S
C1185 H1173 0.950 . S
C1185 C1181 1.393 . S
C1185 C1184 1.391 . S
C1186 H1176 0.950 . S
C1186 C1187 1.386 . S
C1186 C1188 1.391 . S
C1187 C1186 1.386 . S
C1187 C1191 1.393 . S
C1188 H1177 0.950 . S
C1188 C1186 1.391 . S
C1188 C1189 1.400 . S
C1189 C1183 1.491 . S
C1189 C1188 1.400 . S
C1189 C1190 1.398 . S
C1190 H1178 0.950 . S
C1190 C1189 1.398 . S
C1190 C1191 1.391 . S
C1191 H1179 0.950 . S
C1191 C1187 1.393 . S
C1191 C1190 1.391 . S
H1192 C1200 0.950 . S
H1193 C1205 0.950 . S
H1194 C1202 0.950 . S
H1195 C1204 0.950 . S
H1196 C1206 0.950 . S
H1197 C1208 0.950 . S
H1198 C1210 0.950 . S
H1199 C1211 0.950 . S
C1200 H1192 0.950 . S
C1200 C1201 1.386 . S
C1200 C1202 1.391 . S
C1201 C1200 1.386 . S
C1201 C1205 1.393 . S
C1202 H1194 0.950 . S
C1202 C1200 1.391 . S
C1202 C1203 1.400 . S
C1203 C1202 1.400 . S
C1203 C1204 1.398 . S
C1203 C1209 1.491 . S
C1204 H1195 0.950 . S
C1204 C1203 1.398 . S
C1204 C1205 1.391 . S
C1205 H1193 0.950 . S
C1205 C1201 1.393 . S
C1205 C1204 1.391 . S
C1206 H1196 0.950 . S
C1206 C1207 1.386 . S
C1206 C1208 1.391 . S
C1207 C1206 1.386 . S
C1207 C1211 1.393 . S
C1208 H1197 0.950 . S
C1208 C1206 1.391 . S
C1208 C1209 1.400 . S
C1209 C1203 1.491 . S
C1209 C1208 1.400 . S
C1209 C1210 1.398 . S
C1210 H1198 0.950 . S
C1210 C1209 1.398 . S
C1210 C1211 1.391 . S
C1211 H1199 0.950 . S
C1211 C1207 1.393 . S
C1211 C1210 1.391 . S
H1212 C1220 0.950 . S
H1213 C1225 0.950 . S
H1214 C1222 0.950 . S
H1215 C1224 0.950 . S
H1216 C1226 0.950 . S
H1217 C1228 0.950 . S
H1218 C1230 0.950 . S
H1219 C1231 0.950 . S
C1220 H1212 0.950 . S
C1220 C1221 1.386 . S
C1220 C1222 1.391 . S
C1221 C1220 1.386 . S
C1221 C1225 1.393 . S
C1222 H1214 0.950 . S
C1222 C1220 1.391 . S
C1222 C1223 1.400 . S
C1223 C1222 1.400 . S
C1223 C1224 1.398 . S
C1223 C1229 1.491 . S
C1224 H1215 0.950 . S
C1224 C1223 1.398 . S
C1224 C1225 1.391 . S
C1225 H1213 0.950 . S
C1225 C1221 1.393 . S
C1225 C1224 1.391 . S
C1226 H1216 0.950 . S
C1226 C1227 1.386 . S
C1226 C1228 1.391 . S
C1227 C1226 1.386 . S
C1227 C1231 1.393 . S
C1228 H1217 0.950 . S
C1228 C1226 1.391 . S
C1228 C1229 1.400 . S
C1229 C1223 1.491 . S
C1229 C1228 1.400 . S
C1229 C1230 1.398 . S
C1230 H1218 0.950 . S
C1230 C1229 1.398 . S
C1230 C1231 1.391 . S
C1231 H1219 0.950 . S
C1231 C1227 1.393 . S
C1231 C1230 1.391 . S
H1232 C1240 0.950 . S
H1233 C1245 0.950 . S
H1234 C1242 0.950 . S
H1235 C1244 0.950 . S
H1236 C1246 0.950 . S
H1237 C1248 0.950 . S
H1238 C1250 0.950 . S
H1239 C1251 0.950 . S
C1240 H1232 0.950 . S
C1240 C1241 1.386 . S
C1240 C1242 1.391 . S
C1241 C1240 1.386 . S
C1241 C1245 1.393 . S
C1242 H1234 0.950 . S
C1242 C1240 1.391 . S
C1242 C1243 1.400 . S
C1243 C1242 1.400 . S
C1243 C1244 1.398 . S
C1243 C1249 1.491 . S
C1244 H1235 0.950 . S
C1244 C1243 1.398 . S
C1244 C1245 1.391 . S
C1245 H1233 0.950 . S
C1245 C1241 1.393 . S
C1245 C1244 1.391 . S
C1246 H1236 0.950 . S
C1246 C1247 1.386 . S
C1246 C1248 1.391 . S
C1247 C1246 1.386 . S
C1247 C1251 1.393 . S
C1248 H1237 0.950 . S
C1248 C1246 1.391 . S
C1248 C1249 1.400 . S
C1249 C1243 1.491 . S
C1249 C1248 1.400 . S
C1249 C1250 1.398 . S
C1250 H1238 0.950 . S
C1250 C1249 1.398 . S
C1250 C1251 1.391 . S
C1251 H1239 0.950 . S
C1251 C1247 1.393 . S
C1251 C1250 1.391 . S
H1252 C1260 0.950 . S
H1253 C1265 0.950 . S
H1254 C1262 0.950 . S
H1255 C1264 0.950 . S
H1256 C1266 0.950 . S
H1257 C1268 0.950 . S
H1258 C1270 0.950 . S
H1259 C1271 0.950 . S
C1260 H1252 0.950 . S
C1260 C1261 1.386 . S
C1260 C1262 1.391 . S
C1261 C1260 1.386 . S
C1261 C1265 1.393 . S
C1262 H1254 0.950 . S
C1262 C1260 1.391 . S
C1262 C1263 1.400 . S
C1263 C1262 1.400 . S
C1263 C1264 1.398 . S
C1263 C1269 1.491 . S
C1264 H1255 0.950 . S
C1264 C1263 1.398 . S
C1264 C1265 1.391 . S
C1265 H1253 0.950 . S
C1265 C1261 1.393 . S
C1265 C1264 1.391 . S
C1266 H1256 0.950 . S
C1266 C1267 1.386 . S
C1266 C1268 1.391 . S
C1267 C1266 1.386 . S
C1267 C1271 1.393 . S
C1268 H1257 0.950 . S
C1268 C1266 1.391 . S
C1268 C1269 1.400 . S
C1269 C1263 1.491 . S
C1269 C1268 1.400 . S
C1269 C1270 1.398 . S
C1270 H1258 0.950 . S
C1270 C1269 1.398 . S
C1270 C1271 1.391 . S
C1271 H1259 0.950 . S
C1271 C1267 1.393 . S
C1271 C1270 1.391 . S
C321 C289 1.723 . S
C327 C3 1.722 . S
C341 C23 1.702 . S
C347 C309 1.701 . S
C361 C265 1.651 . S
C367 C29 1.713 . S
C381 C274 1.818 . S
C387 C40 1.818 . S
C401 C276 1.751 . S
C407 C55 1.752 . S
C421 C70 1.667 . S
C427 C287 1.726 . S
C441 C304 1.661 . S
C447 C81 1.742 . S
C461 C94 1.748 . S
C467 C270 1.690 . S
C481 C109 1.656 . S
C487 C252 1.657 . S
C501 C211 1.763 . S
C507 C127 1.696 . S
C521 C140 1.688 . S
C527 C226 1.667 . S
C541 C235 1.725 . S
C547 C148 1.657 . S
C561 C153 1.711 . S
C567 C172 1.766 . S
C581 C114 1.693 . S
C587 C185 1.750 . S
C601 C198 1.730 . S
C607 C122 1.664 . S
C621 C135 1.620 . S
C627 C159 1.697 . S
C641 C18 1.641 . S
C647 C237 1.709 . S
C661 C183 1.794 . S
C667 C92 1.794 . S
C681 C53 1.782 . S
C687 C196 1.782 . S
C701 C157 1.762 . S
C707 C75 1.712 . S
C721 C79 1.795 . S
C727 C170 1.794 . S
C741 C42 1.808 . S
C747 C209 1.804 . S
C761 C1 1.758 . S
C767 C231 1.710 . S
C781 C27 1.746 . S
C787 C257 1.692 . S
C801 C88 1.762 . S
C807 C261 1.720 . S
C821 C278 1.757 . S
C827 C101 1.754 . S
C841 C296 1.740 . S
C847 C62 1.740 . S
C861 C302 1.714 . S
C867 C66 1.719 . S
C881 C36 1.785 . S
C887 C300 1.722 . S
C901 C44 1.713 . S
C907 C263 1.648 . S
C921 C10 1.785 . S
C927 C283 1.785 . S
C941 C291 1.698 . S
C947 C16 1.624 . S
C961 C133 1.681 . S
C967 C179 1.757 . S
C981 C144 1.771 . S
C987 C192 1.821 . S
C1001 C105 1.710 . S
C1007 C205 1.754 . S
C1021 C120 1.673 . S
C1027 C166 1.736 . S
C1041 C118 1.729 . S
C1047 C248 1.730 . S
C1061 C218 1.806 . S
C1067 C131 1.758 . S
C1081 C146 1.687 . S
C1087 C222 1.702 . S
C1101 C107 1.651 . S
C1107 C239 1.709 . S
C1121 C161 1.706 . S
C1127 C96 1.707 . S
C1141 C213 1.732 . S
C1147 C14 1.670 . S
C1161 C31 1.743 . S
C1167 C224 1.663 . S
C1181 C244 1.759 . S
C1187 C49 1.759 . S
C1201 C250 1.673 . S
C1207 C5 1.754 . S
C1221 C68 1.670 . S
C1227 C187 1.745 . S
C1241 C200 1.721 . S
C1247 C83 1.720 . S
C1261 C174 1.712 . S
C1267 C57 1.712 . S
