# Generated by pormake.
# Topology smg, (6)-cn, num edge types: 1
# Building blocks:
#     Node 0, Type 0, BuildingBlock: IZENUY_clean_sbu_0, # of connection points: 6
#     Node 1, Type 0, BuildingBlock: IZENUY_clean_sbu_0, # of connection points: 6
#     Node 2, Type 0, BuildingBlock: IZENUY_clean_sbu_0, # of connection points: 6
#     Node 3, Type 0, BuildingBlock: IZENUY_clean_sbu_0, # of connection points: 6
#     Node 4, Type 0, BuildingBlock: IZENUY_clean_sbu_0, # of connection points: 6
#     Node 5, Type 0, BuildingBlock: IZENUY_clean_sbu_0, # of connection points: 6
#     Node 6, Type 0, BuildingBlock: IZENUY_clean_sbu_0, # of connection points: 6
#     Node 7, Type 0, BuildingBlock: IZENUY_clean_sbu_0, # of connection points: 6
#     Node 8, Type 0, BuildingBlock: IZENUY_clean_sbu_0, # of connection points: 6
#     Node 9, Type 0, BuildingBlock: IZENUY_clean_sbu_0, # of connection points: 6
#     Node 10, Type 0, BuildingBlock: IZENUY_clean_sbu_0, # of connection points: 6
#     Node 11, Type 0, BuildingBlock: IZENUY_clean_sbu_0, # of connection points: 6
#     Node 12, Type 0, BuildingBlock: IZENUY_clean_sbu_0, # of connection points: 6
#     Node 13, Type 0, BuildingBlock: IZENUY_clean_sbu_0, # of connection points: 6
#     Node 14, Type 0, BuildingBlock: IZENUY_clean_sbu_0, # of connection points: 6
#     Node 15, Type 0, BuildingBlock: IZENUY_clean_sbu_0, # of connection points: 6
#     Node 16, Type 0, BuildingBlock: IZENUY_clean_sbu_0, # of connection points: 6
#     Node 17, Type 0, BuildingBlock: IZENUY_clean_sbu_0, # of connection points: 6
#     Edge 18, Type (0, 0), BuildingBlock: KIFKEQ_clean_linker_1, # of connection points: 2
#     Edge 19, Type (0, 0), BuildingBlock: KIFKEQ_clean_linker_1, # of connection points: 2
#     Edge 20, Type (0, 0), BuildingBlock: KIFKEQ_clean_linker_1, # of connection points: 2
#     Edge 21, Type (0, 0), BuildingBlock: KIFKEQ_clean_linker_1, # of connection points: 2
#     Edge 22, Type (0, 0), BuildingBlock: KIFKEQ_clean_linker_1, # of connection points: 2
#     Edge 23, Type (0, 0), BuildingBlock: KIFKEQ_clean_linker_1, # of connection points: 2
#     Edge 24, Type (0, 0), BuildingBlock: KIFKEQ_clean_linker_1, # of connection points: 2
#     Edge 25, Type (0, 0), BuildingBlock: KIFKEQ_clean_linker_1, # of connection points: 2
#     Edge 26, Type (0, 0), BuildingBlock: KIFKEQ_clean_linker_1, # of connection points: 2
#     Edge 27, Type (0, 0), BuildingBlock: KIFKEQ_clean_linker_1, # of connection points: 2
#     Edge 28, Type (0, 0), BuildingBlock: KIFKEQ_clean_linker_1, # of connection points: 2
#     Edge 29, Type (0, 0), BuildingBlock: KIFKEQ_clean_linker_1, # of connection points: 2
#     Edge 30, Type (0, 0), BuildingBlock: KIFKEQ_clean_linker_1, # of connection points: 2
#     Edge 31, Type (0, 0), BuildingBlock: KIFKEQ_clean_linker_1, # of connection points: 2
#     Edge 32, Type (0, 0), BuildingBlock: KIFKEQ_clean_linker_1, # of connection points: 2
#     Edge 33, Type (0, 0), BuildingBlock: KIFKEQ_clean_linker_1, # of connection points: 2
#     Edge 34, Type (0, 0), BuildingBlock: KIFKEQ_clean_linker_1, # of connection points: 2
#     Edge 35, Type (0, 0), BuildingBlock: KIFKEQ_clean_linker_1, # of connection points: 2
#     Edge 36, Type (0, 0), BuildingBlock: KIFKEQ_clean_linker_1, # of connection points: 2
#     Edge 37, Type (0, 0), BuildingBlock: KIFKEQ_clean_linker_1, # of connection points: 2
#     Edge 38, Type (0, 0), BuildingBlock: KIFKEQ_clean_linker_1, # of connection points: 2
#     Edge 39, Type (0, 0), BuildingBlock: KIFKEQ_clean_linker_1, # of connection points: 2
#     Edge 40, Type (0, 0), BuildingBlock: KIFKEQ_clean_linker_1, # of connection points: 2
#     Edge 41, Type (0, 0), BuildingBlock: KIFKEQ_clean_linker_1, # of connection points: 2
#     Edge 42, Type (0, 0), BuildingBlock: KIFKEQ_clean_linker_1, # of connection points: 2
#     Edge 43, Type (0, 0), BuildingBlock: KIFKEQ_clean_linker_1, # of connection points: 2
#     Edge 44, Type (0, 0), BuildingBlock: KIFKEQ_clean_linker_1, # of connection points: 2
#     Edge 45, Type (0, 0), BuildingBlock: KIFKEQ_clean_linker_1, # of connection points: 2
#     Edge 46, Type (0, 0), BuildingBlock: KIFKEQ_clean_linker_1, # of connection points: 2
#     Edge 47, Type (0, 0), BuildingBlock: KIFKEQ_clean_linker_1, # of connection points: 2
#     Edge 48, Type (0, 0), BuildingBlock: KIFKEQ_clean_linker_1, # of connection points: 2
#     Edge 49, Type (0, 0), BuildingBlock: KIFKEQ_clean_linker_1, # of connection points: 2
#     Edge 50, Type (0, 0), BuildingBlock: KIFKEQ_clean_linker_1, # of connection points: 2
#     Edge 51, Type (0, 0), BuildingBlock: KIFKEQ_clean_linker_1, # of connection points: 2
#     Edge 52, Type (0, 0), BuildingBlock: KIFKEQ_clean_linker_1, # of connection points: 2
#     Edge 53, Type (0, 0), BuildingBlock: KIFKEQ_clean_linker_1, # of connection points: 2
#     Edge 54, Type (0, 0), BuildingBlock: KIFKEQ_clean_linker_1, # of connection points: 2
#     Edge 55, Type (0, 0), BuildingBlock: KIFKEQ_clean_linker_1, # of connection points: 2
#     Edge 56, Type (0, 0), BuildingBlock: KIFKEQ_clean_linker_1, # of connection points: 2
#     Edge 57, Type (0, 0), BuildingBlock: KIFKEQ_clean_linker_1, # of connection points: 2
#     Edge 58, Type (0, 0), BuildingBlock: KIFKEQ_clean_linker_1, # of connection points: 2
#     Edge 59, Type (0, 0), BuildingBlock: KIFKEQ_clean_linker_1, # of connection points: 2
#     Edge 60, Type (0, 0), BuildingBlock: KIFKEQ_clean_linker_1, # of connection points: 2
#     Edge 61, Type (0, 0), BuildingBlock: KIFKEQ_clean_linker_1, # of connection points: 2
#     Edge 62, Type (0, 0), BuildingBlock: KIFKEQ_clean_linker_1, # of connection points: 2
#     Edge 63, Type (0, 0), BuildingBlock: KIFKEQ_clean_linker_1, # of connection points: 2
#     Edge 64, Type (0, 0), BuildingBlock: KIFKEQ_clean_linker_1, # of connection points: 2
#     Edge 65, Type (0, 0), BuildingBlock: KIFKEQ_clean_linker_1, # of connection points: 2
#     Edge 66, Type (0, 0), BuildingBlock: KIFKEQ_clean_linker_1, # of connection points: 2
#     Edge 67, Type (0, 0), BuildingBlock: KIFKEQ_clean_linker_1, # of connection points: 2
#     Edge 68, Type (0, 0), BuildingBlock: KIFKEQ_clean_linker_1, # of connection points: 2
#     Edge 69, Type (0, 0), BuildingBlock: KIFKEQ_clean_linker_1, # of connection points: 2
#     Edge 70, Type (0, 0), BuildingBlock: KIFKEQ_clean_linker_1, # of connection points: 2
#     Edge 71, Type (0, 0), BuildingBlock: KIFKEQ_clean_linker_1, # of connection points: 2
# Relax obj value: 0.248
# Max RMSD: 0.243
# Mean RMSD: 0.241
data_MOF--net-smg--node1-IZENUY_clean_sbu_0--edge1-KIFKEQ_clean_linker_1
_symmetry_space_group_name_H-M    P1
_symmetry_Int_Tables_number       1
_symmetry_cell_setting            triclinic
loop_
_symmetry_equiv_pos_as_xyz
'x, y, z'
_cell_length_a     46.579091
_cell_length_b     46.675028
_cell_length_c     42.821098
_cell_angle_alpha  90.021327
_cell_angle_beta   90.037794
_cell_angle_gamma 119.96556
loop_
_atom_site_label
_atom_site_type_symbol
_atom_site_fract_x
_atom_site_fract_y
_atom_site_fract_z
_atom_type_partial_charge
Fe0 Fe 0.05553 0.59926 0.25436 0.0
Fe1 Fe 0.02038 0.63904 0.24597 0.0
O2 O 0.01983 0.6011 0.24398 0.0
Fe3 Fe 0.98351 0.5653 0.23139 0.0
O4 O 0.97976 0.5448 0.26817 0.0
O5 O 0.0318 0.55655 0.27002 0.0
O6 O 0.05481 0.61326 0.29341 0.0
C7 C 0.05557 0.63992 0.29976 0.0
C8 C 0.03572 0.55864 0.20387 0.0
O9 O 0.04968 0.65549 0.27887 0.0
C10 C 0.98649 0.61097 0.19022 0.0
O11 O 0.08536 0.64184 0.24036 0.0
O12 O 0.05274 0.65693 0.21749 0.0
O13 O 1.00589 0.54599 0.21318 0.0
O14 O 0.05821 0.58488 0.21599 0.0
C15 C 0.95947 0.59873 0.26952 0.0
O16 O 0.99129 0.6298 0.2133 0.0
O17 O 0.98585 0.58391 0.19384 0.0
C18 C 0.08072 0.65944 0.22051 0.0
O19 O 0.98797 0.62272 0.27454 0.0
O20 O 0.9546 0.57838 0.24755 0.0
C21 C 1.00184 0.53956 0.27917 0.0
Fe22 Fe 0.43617 0.4732 0.25415 0.0
Fe23 Fe 0.46952 0.43411 0.23282 0.0
O24 O 0.43362 0.43534 0.24387 0.0
Fe25 Fe 0.39502 0.39853 0.24455 0.0
O26 O 0.37865 0.41427 0.21573 0.0
O27 O 0.39413 0.46167 0.23906 0.0
O28 O 0.45205 0.49048 0.21611 0.0
C29 C 0.47857 0.49377 0.20503 0.0
C30 C 0.39391 0.43237 0.29866 0.0
O31 O 0.49034 0.47607 0.21514 0.0
C32 C 0.43329 0.37585 0.26943 0.0
O33 O 0.47842 0.49118 0.27108 0.0
O34 O 0.48853 0.44988 0.27029 0.0
O35 O 0.37831 0.41134 0.27737 0.0
O36 O 0.42084 0.4582 0.29276 0.0
C37 C 0.42523 0.39292 0.18977 0.0
O38 O 0.45497 0.39172 0.24855 0.0
O39 O 0.40948 0.38088 0.2734 0.0
C40 C 0.49438 0.47741 0.28104 0.0
O41 O 0.45252 0.4187 0.19472 0.0
O42 O 0.40467 0.37905 0.21181 0.0
C43 C 0.3766 0.43992 0.2188 0.0
Fe44 Fe 0.59978 0.04576 0.23431 0.0
Fe45 Fe 0.56042 0.97397 0.25724 0.0
O46 O 0.59841 0.00866 0.24577 0.0
Fe47 Fe 0.63494 0.00616 0.24589 0.0
O48 O 0.65435 0.03945 0.2734 0.0
O49 O 0.64249 0.0737 0.24926 0.0
O50 O 0.58469 0.04981 0.27196 0.0
C51 C 0.55701 0.02863 0.28288 0.0
C52 C 0.64008 0.04164 0.19069 0.0
O53 O 0.54292 0.99887 0.27329 0.0
C54 C 0.59216 0.94529 0.22328 0.0
O55 O 0.55745 0.02434 0.2171 0.0
O56 O 0.54256 0.97159 0.21923 0.0
O57 O 0.65354 0.03354 0.21202 0.0
O58 O 0.61475 0.04392 0.19606 0.0
C59 C 0.60213 0.97351 0.30134 0.0
O60 O 0.57114 0.94271 0.24354 0.0
O61 O 0.61778 0.97256 0.21836 0.0
C62 C 0.53934 0.99466 0.20766 0.0
O63 O 0.57617 0.97463 0.29579 0.0
O64 O 0.6229 0.97846 0.27992 0.0
C65 C 0.65925 0.06817 0.26936 0.0
Fe66 Fe 0.04702 0.46385 0.75966 0.0
Fe67 Fe 0.97804 0.43217 0.72964 0.0
O68 O 0.01167 0.42866 0.74443 0.0
Fe69 Fe 0.00993 0.38996 0.74429 0.0
O70 O 0.04632 0.40551 0.72036 0.0
O71 O 0.07683 0.45013 0.74819 0.0
O72 O 0.05542 0.48474 0.7226 0.0
C73 C 0.03543 0.49111 0.70867 0.0
C74 C 0.03834 0.41744 0.8028 0.0
O75 O 1.00459 0.47501 0.71496 0.0
C76 C 0.94666 0.37037 0.76146 0.0
O77 O 0.02384 0.48402 0.77399 0.0
O78 O 0.97166 0.44634 0.76694 0.0
O79 O 0.03376 0.39758 0.78065 0.0
O80 O 0.04035 0.44492 0.79761 0.0
C81 C 0.98197 0.3917 0.68611 0.0
O82 O 0.94565 0.38983 0.74133 0.0
O83 O 0.97347 0.37168 0.76831 0.0
C84 C 0.99333 0.47199 0.7806 0.0
O85 O 0.98228 0.41834 0.69157 0.0
O86 O 0.98587 0.37553 0.70786 0.0
C87 C 0.07423 0.42898 0.72801 0.0
Fe88 Fe 0.64546 0.63538 0.74636 0.0
Fe89 Fe 0.6023 0.56216 0.73015 0.0
O90 O 0.60624 0.59905 0.74584 0.0
Fe91 Fe 0.57117 0.59952 0.76102 0.0
O92 O 0.58992 0.61176 0.799 0.0
O93 O 0.63817 0.65162 0.78267 0.0
O94 O 0.66242 0.61599 0.77045 0.0
C95 C 0.66378 0.59081 0.76268 0.0
C96 C 0.60741 0.66182 0.72987 0.0
O97 O 0.64487 0.57159 0.74144 0.0
C98 C 0.54318 0.56086 0.70995 0.0
O99 O 0.65984 0.62566 0.70992 0.0
O100 O 0.61581 0.58112 0.69251 0.0
O101 O 0.5854 0.64301 0.74934 0.0
O102 O 0.63093 0.65722 0.72263 0.0
C103 C 0.56317 0.53765 0.78149 0.0
O104 O 0.55926 0.54604 0.71581 0.0
O105 O 0.55003 0.5872 0.724 0.0
C106 C 0.64295 0.60703 0.68754 0.0
O107 O 0.5883 0.54122 0.76705 0.0
O108 O 0.55107 0.55625 0.77554 0.0
C109 C 0.61766 0.63679 0.80442 0.0
Fe110 Fe 0.46943 0.05207 0.73096 0.0
Fe111 Fe 0.39482 0.01829 0.7445 0.0
O112 O 0.43277 0.0183 0.74614 0.0
Fe113 Fe 0.43399 0.98436 0.76319 0.0
O114 O 0.44739 0.97512 0.72701 0.0
O115 O 0.4871 0.02617 0.71784 0.0
O116 O 0.45161 0.04613 0.69257 0.0
C117 C 0.42486 0.04528 0.68611 0.0
C118 C 0.49461 0.03984 0.78334 0.0
O119 O 0.40392 0.04079 0.70719 0.0
C120 C 0.39467 0.99291 0.80453 0.0
O121 O 0.45793 0.08375 0.74114 0.0
O122 O 0.41125 0.05559 0.76711 0.0
O123 O 0.47703 0.00909 0.77775 0.0
O124 O 0.4899 0.06036 0.76842 0.0
C125 C 0.37249 0.95398 0.73066 0.0
O126 O 0.37895 0.99578 0.78166 0.0
O127 O 0.42094 0.99202 0.80025 0.0
C128 C 0.43643 0.08256 0.76015 0.0
O129 O 0.37569 0.98099 0.72168 0.0
O130 O 0.39095 0.95312 0.75201 0.0
C131 C 0.47338 0.9952 0.71268 0.0
Fe132 Fe 0.71513 0.93214 0.59116 0.0
Fe133 Fe 0.67548 0.9668 0.57795 0.0
O134 O 0.67809 0.93042 0.57872 0.0
Fe135 Fe 0.64371 0.89234 0.56706 0.0
O136 O 0.64096 0.87466 0.60519 0.0
O137 O 0.69382 0.88988 0.60818 0.0
O138 O 0.71181 0.94668 0.62917 0.0
C139 C 0.70945 0.97198 0.63413 0.0
C140 C 0.69933 0.88978 0.54239 0.0
O141 O 0.70266 0.98576 0.61208 0.0
C142 C 0.64334 0.93357 0.52244 0.0
O143 O 0.74316 0.97491 0.57653 0.0
O144 O 0.70908 0.98584 0.55076 0.0
O145 O 0.66932 0.87534 0.55152 0.0
O146 O 0.72025 0.91733 0.55377 0.0
C147 C 0.6143 0.92402 0.60014 0.0
O148 O 0.64804 0.95444 0.54364 0.0
O149 O 0.6446 0.90781 0.52836 0.0
C150 C 0.73787 0.99115 0.55568 0.0
O151 O 0.64146 0.94986 0.60501 0.0
O152 O 0.61203 0.90276 0.58028 0.0
C153 C 0.66403 0.87178 0.61734 0.0
Fe154 Fe 0.14218 0.7655 0.56553 0.0
Fe155 Fe 0.10303 0.79653 0.59254 0.0
O156 O 0.10436 0.76176 0.57806 0.0
Fe157 Fe 0.06766 0.72307 0.57604 0.0
O158 O 0.08412 0.70483 0.60224 0.0
O159 O 0.13115 0.72276 0.57712 0.0
O160 O 0.1602 0.77866 0.6038 0.0
C161 C 0.16324 0.80388 0.61758 0.0
C162 C 0.10067 0.7258 0.52006 0.0
O163 O 0.14522 0.81617 0.60985 0.0
C164 C 0.04448 0.7627 0.5558 0.0
O165 O 0.1597 0.80871 0.55174 0.0
O166 O 0.11829 0.81843 0.55608 0.0
O167 O 0.0802 0.7089 0.54124 0.0
O168 O 0.12629 0.75277 0.52649 0.0
C169 C 0.06225 0.74914 0.63349 0.0
O170 O 0.06039 0.78285 0.57777 0.0
O171 O 0.04942 0.73922 0.54962 0.0
C172 C 0.14562 0.82507 0.54408 0.0
O173 O 0.08809 0.77669 0.6298 0.0
O174 O 0.04829 0.73015 0.61047 0.0
C175 C 0.10982 0.70334 0.59676 0.0
Fe176 Fe 0.23973 0.32242 0.59109 0.0
Fe177 Fe 0.31388 0.36345 0.57693 0.0
O178 O 0.27419 0.35948 0.57769 0.0
Fe179 Fe 0.2691 0.39269 0.56478 0.0
O180 O 0.25444 0.39651 0.60272 0.0
O181 O 0.21831 0.34345 0.60793 0.0
O182 O 0.25828 0.32676 0.62884 0.0
C183 C 0.28624 0.32965 0.63359 0.0
C184 C 0.21099 0.33553 0.54227 0.0
O185 O 0.30718 0.33762 0.61171 0.0
C186 C 0.31054 0.39245 0.52024 0.0
O187 O 0.25532 0.29494 0.57671 0.0
O188 O 0.30007 0.32915 0.55065 0.0
O189 O 0.22631 0.36592 0.54997 0.0
O190 O 0.21881 0.31572 0.55416 0.0
C191 C 0.33065 0.42463 0.59735 0.0
O192 O 0.32779 0.38998 0.54189 0.0
O193 O 0.28308 0.39029 0.52617 0.0
C194 C 0.2771 0.30027 0.55608 0.0
O195 O 0.33007 0.39803 0.6032 0.0
O196 O 0.31123 0.42561 0.57705 0.0
C197 C 0.22924 0.37349 0.61586 0.0
Fe198 Fe 0.72672 0.8068 0.09345 0.0
Fe199 Fe 0.69724 0.73331 0.07861 0.0
O200 O 0.6938 0.76931 0.07858 0.0
Fe201 Fe 0.65768 0.76791 0.06375 0.0
O202 O 0.64929 0.78064 0.1007 0.0
O203 O 0.69956 0.82258 0.10768 0.0
O204 O 0.72216 0.78872 0.13146 0.0
C205 C 0.72352 0.76297 0.13692 0.0
C206 C 0.71055 0.82993 0.04203 0.0
O207 O 0.72185 0.74405 0.11486 0.0
C208 C 0.66667 0.73025 0.02076 0.0
O209 O 0.76007 0.79776 0.08213 0.0
O210 O 0.73323 0.75261 0.05409 0.0
O211 O 0.68005 0.81097 0.04856 0.0
O212 O 0.7327 0.82696 0.05613 0.0
C213 C 0.63285 0.70611 0.09562 0.0
O214 O 0.67328 0.71617 0.04258 0.0
O215 O 0.66377 0.75521 0.02588 0.0
C216 C 0.7597 0.77817 0.0613 0.0
O217 O 0.66126 0.7115 0.10282 0.0
O218 O 0.62904 0.72447 0.07607 0.0
C219 C 0.66877 0.80746 0.11405 0.0
Fe220 Fe 0.26436 0.90134 0.06663 0.0
Fe221 Fe 0.22705 0.93492 0.09208 0.0
O222 O 0.26433 0.93726 0.07961 0.0
Fe223 Fe 0.30155 0.97554 0.07984 0.0
O224 O 0.32084 0.96033 0.1062 0.0
O225 O 0.30753 0.91515 0.07967 0.0
O226 O 0.25063 0.88209 0.10433 0.0
C227 C 0.22375 0.87645 0.11666 0.0
C228 C 0.3037 0.94614 0.02303 0.0
O229 O 0.20954 0.89244 0.10801 0.0
C230 C 0.25915 0.99481 0.05772 0.0
O231 O 0.2213 0.88101 0.05108 0.0
O232 O 0.20803 0.91994 0.05431 0.0
O233 O 0.31879 0.96627 0.04511 0.0
O234 O 0.2779 0.91889 0.02827 0.0
C235 C 0.27018 0.97594 0.13618 0.0
O236 O 0.23818 0.97715 0.07841 0.0
O237 O 0.28472 0.99288 0.05325 0.0
C238 C 0.2037 0.89342 0.04235 0.0
O239 O 0.24381 0.94943 0.13044 0.0
O240 O 0.29074 0.99164 0.11459 0.0
C241 C 0.32564 0.93682 0.09972 0.0
Fe242 Fe 0.0585 0.34412 0.07936 0.0
Fe243 Fe 0.13235 0.38072 0.06329 0.0
O244 O 0.09703 0.34542 0.07833 0.0
Fe245 Fe 0.10035 0.31145 0.0921 0.0
O246 O 0.08733 0.31535 0.13063 0.0
O247 O 0.0445 0.31981 0.11562 0.0
O248 O 0.07487 0.38023 0.10373 0.0
C249 C 0.09829 0.40805 0.09593 0.0
C250 C 0.03787 0.28098 0.0613 0.0
O251 O 0.1191 0.41057 0.07544 0.0
C252 C 0.13928 0.3271 0.04061 0.0
O253 O 0.06582 0.36824 0.04327 0.0
O254 O 0.11301 0.37472 0.02559 0.0
O255 O 0.05764 0.27957 0.08083 0.0
O256 O 0.03936 0.30793 0.05502 0.0
C257 C 0.15995 0.36792 0.11326 0.0
O258 O 0.15195 0.35744 0.04797 0.0
O259 O 0.11364 0.30546 0.05428 0.0
C260 C 0.08547 0.37291 0.02086 0.0
O261 O 0.15364 0.3884 0.10031 0.0
O262 O 0.14357 0.33737 0.1061 0.0
C263 C 0.06084 0.3152 0.13676 0.0
Fe264 Fe 0.38551 0.26644 0.92659 0.0
Fe265 Fe 0.35274 0.30744 0.9108 0.0
O266 O 0.35175 0.26911 0.91093 0.0
Fe267 Fe 0.31707 0.23336 0.89557 0.0
O268 O 0.30877 0.21251 0.93283 0.0
O269 O 0.35984 0.22328 0.94027 0.0
O270 O 0.37918 0.27905 0.96449 0.0
C271 C 0.37874 0.30533 0.96991 0.0
C272 C 0.37242 0.22775 0.87518 0.0
O273 O 0.37589 0.32187 0.94783 0.0
C274 C 0.32525 0.27941 0.85203 0.0
O275 O 0.41748 0.30933 0.91599 0.0
O276 O 0.38975 0.32641 0.88759 0.0
O277 O 0.34167 0.21463 0.88142 0.0
O278 O 0.3934 0.25336 0.88945 0.0
C279 C 0.28826 0.26692 0.92644 0.0
O280 O 0.32988 0.29968 0.87382 0.0
O281 O 0.32328 0.25201 0.85758 0.0
C282 C 0.41667 0.32858 0.89553 0.0
O283 O 0.3157 0.29124 0.9339 0.0
O284 O 0.28637 0.24587 0.90656 0.0
C285 C 0.32916 0.20681 0.94685 0.0
Fe286 Fe 0.76649 0.13469 0.92843 0.0
Fe287 Fe 0.80003 0.10047 0.89595 0.0
O288 O 0.76429 0.09868 0.91235 0.0
Fe289 Fe 0.72628 0.06086 0.91247 0.0
O290 O 0.70634 0.07823 0.88957 0.0
O291 O 0.72343 0.12327 0.91771 0.0
O292 O 0.77927 0.15612 0.89156 0.0
C293 C 0.80474 0.16123 0.87676 0.0
C294 C 0.7278 0.08879 0.97157 0.0
O295 O 0.81814 0.14371 0.88203 0.0
C296 C 0.76801 0.03822 0.92723 0.0
O297 O 0.80982 0.15238 0.94221 0.0
O298 O 0.82191 0.1133 0.93266 0.0
O299 O 0.71171 0.06897 0.94961 0.0
O300 O 0.75394 0.11563 0.96623 0.0
C301 C 0.75332 0.06201 0.85313 0.0
O302 O 0.78827 0.05734 0.90676 0.0
O303 O 0.74359 0.04092 0.93534 0.0
C304 C 0.82723 0.13884 0.94743 0.0
O305 O 0.78035 0.08804 0.85829 0.0
O306 O 0.73407 0.04589 0.87539 0.0
C307 C 0.70422 0.10305 0.89727 0.0
Fe308 Fe 0.97603 0.68406 0.9118 0.0
Fe309 Fe 0.93482 0.71612 0.89313 0.0
O310 O 0.93758 0.68351 0.91131 0.0
Fe311 Fe 0.90232 0.65033 0.92913 0.0
O312 O 0.92604 0.64447 0.96007 0.0
O313 O 0.97723 0.68536 0.9541 0.0
O314 O 1.00191 0.72898 0.91199 0.0
C315 C 0.99535 0.75027 0.92242 0.0
C316 C 0.93039 0.61771 0.90006 0.0
O317 O 0.96675 0.7466 0.91924 0.0
C318 C 0.87576 0.66228 0.87437 0.0
O319 O 0.97683 0.68286 0.86965 0.0
O320 O 0.96483 0.72244 0.8624 0.0
O321 O 0.90483 0.62038 0.90308 0.0
O322 O 0.95769 0.63919 0.91151 0.0
C323 C 0.89611 0.70364 0.9477 0.0
O324 O 0.9024 0.68778 0.86622 0.0
O325 O 0.87252 0.65064 0.90163 0.0
C326 C 0.97428 0.70309 0.85196 0.0
O327 O 0.90427 0.71519 0.92038 0.0
O328 O 0.8974 0.67824 0.9559 0.0
C329 C 0.95426 0.66455 0.97129 0.0
Fe330 Fe 0.34901 0.06087 0.41146 0.0
Fe331 Fe 0.3874 0.13533 0.42332 0.0
O332 O 0.35028 0.09918 0.4127 0.0
Fe333 Fe 0.31442 0.10124 0.40315 0.0
O334 O 0.31382 0.08626 0.36423 0.0
O335 O 0.31912 0.04414 0.37891 0.0
O336 O 0.38081 0.07571 0.38226 0.0
C337 C 0.40958 0.0997 0.38598 0.0
C338 C 0.28936 0.04164 0.43804 0.0
O339 O 0.41541 0.12137 0.40684 0.0
C340 C 0.3366 0.14351 0.45234 0.0
O341 O 0.37848 0.07056 0.44385 0.0
O342 O 0.38725 0.11859 0.46125 0.0
O343 O 0.28452 0.05905 0.41815 0.0
O344 O 0.31731 0.04409 0.44062 0.0
C345 C 0.36732 0.15979 0.37592 0.0
O346 O 0.36596 0.15552 0.44178 0.0
O347 O 0.3134 0.11682 0.44151 0.0
C348 C 0.38599 0.09135 0.4658 0.0
O349 O 0.3895 0.1542 0.38594 0.0
O350 O 0.33787 0.14355 0.38648 0.0
C351 C 0.3133 0.0597 0.3579 0.0
Fe352 Fe 0.90038 0.2653 0.42192 0.0
Fe353 Fe 0.97552 0.30163 0.41199 0.0
O354 O 0.93688 0.26477 0.41151 0.0
Fe355 Fe 0.93484 0.22724 0.40049 0.0
O356 O 0.91909 0.20952 0.43843 0.0
O357 O 0.88022 0.22327 0.43947 0.0
O358 O 0.91622 0.28085 0.46034 0.0
C359 C 0.94345 0.30642 0.46609 0.0
C360 C 0.87627 0.22192 0.37361 0.0
O361 O 0.96547 0.31998 0.44523 0.0
C362 C 0.97711 0.26937 0.35689 0.0
O363 O 0.91446 0.30758 0.4064 0.0
O364 O 0.96168 0.32041 0.38379 0.0
O365 O 0.89256 0.20868 0.38382 0.0
O366 O 0.88194 0.24949 0.38407 0.0
C367 C 0.99454 0.25995 0.43549 0.0
O368 O 0.99235 0.28995 0.3786 0.0
O369 O 0.95028 0.24307 0.36205 0.0
C370 C 0.93718 0.32451 0.38675 0.0
O371 O 0.9919 0.28504 0.44028 0.0
O372 O 0.97691 0.23896 0.41487 0.0
C373 C 0.89242 0.20591 0.44957 0.0
Fe374 Fe 0.73158 0.68497 0.41298 0.0
Fe375 Fe 0.76986 0.64856 0.42371 0.0
O376 O 0.76921 0.68468 0.41271 0.0
Fe377 Fe 0.80626 0.72053 0.40162 0.0
O378 O 0.78999 0.71957 0.36339 0.0
O379 O 0.7424 0.71329 0.37944 0.0
O380 O 0.7133 0.65182 0.38515 0.0
C381 C 0.709 0.62348 0.39027 0.0
C382 C 0.77233 0.74586 0.4371 0.0
O383 O 0.72713 0.61934 0.40983 0.0
C384 C 0.82921 0.70067 0.45028 0.0
O385 O 0.71431 0.65682 0.44656 0.0
O386 O 0.75557 0.65025 0.46229 0.0
O387 O 0.79385 0.75033 0.41652 0.0
O388 O 0.74741 0.71783 0.441 0.0
C389 C 0.81157 0.66749 0.37436 0.0
O390 O 0.81248 0.67122 0.43997 0.0
O391 O 0.82461 0.72314 0.43943 0.0
C392 C 0.72944 0.65096 0.46802 0.0
O393 O 0.78449 0.6454 0.38559 0.0
O394 O 0.82503 0.69709 0.38453 0.0
C395 C 0.76332 0.71925 0.35789 0.0
H396 H 0.05026 0.41983 0.07709 0.0
H397 H 0.1371 0.45887 0.13559 0.0
H398 H 0.03626 0.45959 0.09895 0.0
H399 H 0.12287 0.49852 0.15825 0.0
H400 H 0.09747 0.57862 0.18027 0.0
H401 H 0.11543 0.54637 0.1498 0.0
H402 H 0.01511 0.4641 0.14926 0.0
H403 H 0.99696 0.49648 0.17942 0.0
C404 C 0.06672 0.43755 0.09422 0.0
C405 C 0.09484 0.43664 0.10459 0.0
C406 C 0.05853 0.46003 0.10699 0.0
C407 C 0.07813 0.48191 0.13069 0.0
C408 C 0.10735 0.48216 0.13987 0.0
C409 C 0.11563 0.45961 0.12691 0.0
C410 C 0.0791 0.55375 0.17341 0.0
C411 C 0.04571 0.54008 0.1825 0.0
C412 C 0.08952 0.53522 0.15606 0.0
C413 C 0.06682 0.50261 0.1472 0.0
C414 C 0.03323 0.48931 0.15537 0.0
C415 C 0.0228 0.50783 0.17279 0.0
H416 H 0.54336 0.51942 0.18722 0.0
H417 H 0.45896 0.53333 0.1758 0.0
H418 H 0.57731 0.56967 0.15753 0.0
H419 H 0.49272 0.58319 0.14533 0.0
H420 H 0.57665 0.69267 0.12823 0.0
H421 H 0.53693 0.6394 0.15185 0.0
H422 H 0.58731 0.59372 0.10726 0.0
H423 H 0.62723 0.64687 0.08499 0.0
C424 C 0.53188 0.53285 0.17792 0.0
C425 C 0.49845 0.52231 0.18404 0.0
C426 C 0.55134 0.56171 0.16074 0.0
C427 C 0.53783 0.58067 0.14897 0.0
C428 C 0.50413 0.56959 0.15439 0.0
C429 C 0.48471 0.54081 0.1717 0.0
C430 C 0.5786 0.67098 0.1231 0.0
C431 C 0.60492 0.67374 0.10498 0.0
C432 C 0.55596 0.64046 0.13659 0.0
C433 C 0.55922 0.61226 0.13194 0.0
C434 C 0.58449 0.61496 0.11213 0.0
C435 C 0.60717 0.64533 0.09907 0.0
H436 H 0.51462 0.0341 0.18833 0.0
H437 H 0.49785 0.93456 0.18082 0.0
H438 H 0.46383 0.01766 0.15924 0.0
H439 H 0.44739 0.9183 0.15102 0.0
H440 H 0.33816 0.89495 0.1348 0.0
H441 H 0.39162 0.90824 0.15819 0.0
H442 H 0.43875 1.00171 0.10923 0.0
H443 H 0.38547 0.98877 0.08709 0.0
C444 C 0.50042 0.00885 0.18003 0.0
C445 C 0.51036 0.9857 0.18705 0.0
C446 C 0.47126 0.99938 0.1632 0.0
C447 C 0.45135 0.96655 0.15273 0.0
C448 C 0.46177 0.94362 0.15907 0.0
C449 C 0.49088 0.95306 0.176 0.0
C450 C 0.36019 0.91794 0.12869 0.0
C451 C 0.35786 0.94089 0.10931 0.0
C452 C 0.3908 0.92566 0.14204 0.0
C453 C 0.41951 0.95638 0.13603 0.0
C454 C 0.41715 0.97828 0.11509 0.0
C455 C 0.3867 0.97073 0.10212 0.0
H456 H 0.47353 0.12097 0.40567 0.0
H457 H 0.40547 0.07253 0.3294 0.0
H458 H 0.512 0.10508 0.38273 0.0
H459 H 0.44347 0.05689 0.30675 0.0
H460 H 0.58007 0.0898 0.3094 0.0
H461 H 0.54759 0.11129 0.33462 0.0
H462 H 0.45941 0.01574 0.3248 0.0
H463 H 0.4916 0.99425 0.29949 0.0
C464 C 0.46724 0.10779 0.38364 0.0
C465 C 0.4364 0.0977 0.36947 0.0
C466 C 0.48908 0.0985 0.37064 0.0
C467 C 0.48027 0.07896 0.34341 0.0
C468 C 0.45052 0.07109 0.32821 0.0
C469 C 0.42891 0.08034 0.34105 0.0
C470 C 0.5538 0.07324 0.31294 0.0
C471 C 0.53836 0.04035 0.30206 0.0
C472 C 0.53527 0.08559 0.32748 0.0
C473 C 0.50091 0.06539 0.33118 0.0
C474 C 0.48579 0.03211 0.32168 0.0
C475 C 0.50429 0.0197 0.30739 0.0
H476 H 0.94093 0.49986 0.30561 0.0
H477 H 0.0385 0.51115 0.29678 0.0
H478 H 0.92147 0.44693 0.33202 0.0
H479 H 0.01904 0.45849 0.3234 0.0
H480 H 0.96584 0.34792 0.33083 0.0
H481 H 0.98019 0.40063 0.30713 0.0
H482 H 0.92834 0.41948 0.38065 0.0
H483 H 0.91372 0.36597 0.40465 0.0
C484 C 0.95836 0.49128 0.30961 0.0
C485 C 0.99124 0.50963 0.2987 0.0
C486 C 0.94717 0.461 0.32487 0.0
C487 C 0.96854 0.44829 0.32935 0.0
C488 C 1.00178 0.46734 0.31973 0.0
C489 C 0.01302 0.49767 0.30467 0.0
C490 C 0.95702 0.36303 0.34177 0.0
C491 C 0.9389 0.35295 0.36978 0.0
C492 C 0.96554 0.3934 0.32832 0.0
C493 C 0.95619 0.41462 0.34247 0.0
C494 C 0.93608 0.40368 0.36935 0.0
C495 C 0.9275 0.37302 0.38296 0.0
H496 H 0.53533 0.45607 0.30403 0.0
H497 H 0.52044 0.54038 0.30418 0.0
H498 H 0.58618 0.48745 0.334 0.0
H499 H 0.57155 0.57182 0.33385 0.0
H500 H 0.64935 0.61302 0.40772 0.0
H501 H 0.59573 0.5747 0.38477 0.0
H502 H 0.64261 0.53461 0.32602 0.0
H503 H 0.6965 0.57292 0.3498 0.0
C504 C 0.54275 0.48125 0.31059 0.0
C505 C 0.52376 0.49574 0.30157 0.0
C506 C 0.57207 0.49926 0.32763 0.0
C507 C 0.58302 0.53214 0.33626 0.0
C508 C 0.56362 0.54638 0.32791 0.0
C509 C 0.53434 0.52839 0.31079 0.0
C510 C 0.64798 0.59544 0.39039 0.0
C511 C 0.67683 0.5957 0.38048 0.0
C512 C 0.61737 0.57376 0.37702 0.0
C513 C 0.61494 0.55201 0.35317 0.0
C514 C 0.64363 0.55099 0.34445 0.0
C515 C 0.67444 0.57276 0.35804 0.0
H516 H 0.90558 0.55183 0.9133 0.0
H517 H 0.95844 0.62652 0.84354 0.0
H518 H 0.9193 0.514 0.8854 0.0
H519 H 0.97238 0.58947 0.81611 0.0
H520 H 0.03009 0.53572 0.8018 0.0
H521 H 0.01057 0.56798 0.83032 0.0
H522 H 0.9119 0.48325 0.83326 0.0
H523 H 0.93135 0.45079 0.80466 0.0
C524 C 0.91923 0.55974 0.89157 0.0
C525 C 0.93076 0.59194 0.88041 0.0
C526 C 0.92734 0.53829 0.87575 0.0
C527 C 0.94751 0.54903 0.84889 0.0
C528 C 0.95743 0.58068 0.83706 0.0
C529 C 0.94916 0.60181 0.85262 0.0
C530 C 1.00431 0.52381 0.80874 0.0
C531 C 0.98229 0.49072 0.80066 0.0
C532 C 0.99305 0.54237 0.82491 0.0
C533 C 0.95957 0.52827 0.8337 0.0
C534 C 0.93781 0.4948 0.82683 0.0
C535 C 0.94899 0.47629 0.81033 0.0
H536 H 0.50648 0.51853 0.81573 0.0
H537 H 0.58023 0.49084 0.79507 0.0
H538 H 0.47626 0.46867 0.84744 0.0
H539 H 0.55013 0.44133 0.82678 0.0
H540 H 0.45756 0.33617 0.84709 0.0
H541 H 0.49675 0.38874 0.82229 0.0
H542 H 0.47982 0.44179 0.89602 0.0
H543 H 0.44063 0.38917 0.92048 0.0
C544 C 0.51643 0.50205 0.81815 0.0
C545 C 0.54567 0.50867 0.80261 0.0
C546 C 0.49922 0.47355 0.83648 0.0
C547 C 0.51079 0.45098 0.83958 0.0
C548 C 0.54039 0.458 0.82461 0.0
C549 C 0.55767 0.48652 0.80649 0.0
C550 C 0.46336 0.35916 0.85852 0.0
C551 C 0.44678 0.35885 0.88592 0.0
C552 C 0.48556 0.38925 0.84429 0.0
C553 C 0.49111 0.41945 0.85703 0.0
C554 C 0.47576 0.41898 0.88542 0.0
C555 C 0.45376 0.38896 0.89968 0.0
H556 H 0.51198 0.00419 0.82212 0.0
H557 H 0.54369 0.10405 0.79212 0.0
H558 H 0.56221 0.0247 0.85357 0.0
H559 H 0.59379 0.12441 0.82359 0.0
H560 H 0.69722 0.13178 0.845 0.0
H561 H 0.6447 0.11923 0.82034 0.0
H562 H 0.59136 0.05958 0.89999 0.0
H563 H 0.644 0.07228 0.92441 0.0
C564 C 0.52946 0.03051 0.82244 0.0
C565 C 0.52383 0.05237 0.80438 0.0
C566 C 0.55816 0.04231 0.84064 0.0
C567 C 0.58201 0.07621 0.84105 0.0
C568 C 0.57603 0.09815 0.82357 0.0
C569 C 0.54721 0.08642 0.80562 0.0
C570 C 0.67427 0.11711 0.85764 0.0
C571 C 0.67446 0.10352 0.88677 0.0
C572 C 0.64421 0.10973 0.84353 0.0
C573 C 0.61384 0.08816 0.85812 0.0
C574 C 0.6143 0.07599 0.88804 0.0
C575 C 0.64435 0.0836 0.90221 0.0
H576 H 0.58213 0.89945 0.65505 0.0
H577 H 0.58306 0.95247 0.57234 0.0
H578 H 0.54393 0.9142 0.68016 0.0
H579 H 0.54517 0.96756 0.59731 0.0
H580 H 0.52635 0.02884 0.67324 0.0
H581 H 0.55499 0.0063 0.64285 0.0
H582 H 0.48671 0.90841 0.67704 0.0
H583 H 0.45796 0.93068 0.70724 0.0
C584 C 0.57305 0.91314 0.64189 0.0
C585 C 0.58476 0.92425 0.61164 0.0
C586 C 0.55145 0.92182 0.65625 0.0
C587 C 0.54184 0.94231 0.64077 0.0
C588 C 0.55239 0.95201 0.60989 0.0
C589 C 0.57363 0.943 0.59545 0.0
C590 C 0.5173 1.0025 0.67411 0.0
C591 C 0.48996 0.98167 0.69281 0.0
C592 C 0.53356 0.98954 0.65655 0.0
C593 C 0.52305 0.95556 0.65759 0.0
C594 C 0.49547 0.9347 0.67593 0.0
C595 C 0.47898 0.94754 0.69315 0.0
H596 H 0.10065 0.53732 0.69982 0.0
H597 H 1.00176 0.51238 0.67136 0.0
H598 H 0.1236 0.58798 0.66921 0.0
H599 H 0.02498 0.56322 0.64057 0.0
H600 H 0.07719 0.64375 0.56917 0.0
H601 H 0.06121 0.59041 0.59353 0.0
H602 H 0.1218 0.64118 0.67366 0.0
H603 H 0.13753 0.69453 0.64914 0.0
C604 C 0.08375 0.54245 0.68684 0.0
C605 C 0.04923 0.52076 0.68822 0.0
C606 C 0.097 0.5716 0.66939 0.0
C607 C 0.07615 0.5796 0.65251 0.0
C608 C 0.04172 0.55753 0.6531 0.0
C609 C 0.02839 0.5285 0.67088 0.0
C610 C 0.08803 0.64336 0.59147 0.0
C611 C 0.1091 0.67303 0.6071 0.0
C612 C 0.07852 0.61292 0.60559 0.0
C613 C 0.08996 0.61162 0.63563 0.0
C614 C 0.11278 0.6414 0.65039 0.0
C615 C 0.12203 0.67191 0.63634 0.0
H616 H 0.38972 0.4567 0.56839 0.0
H617 H 0.33879 0.4568 0.6523 0.0
H618 H 0.44312 0.49358 0.59329 0.0
H619 H 0.3921 0.49411 0.67724 0.0
H620 H 0.49532 0.57815 0.7048 0.0
H621 H 0.44435 0.55117 0.67432 0.0
H622 H 0.47163 0.48156 0.6387 0.0
H623 H 0.52279 0.50838 0.66953 0.0
C624 C 0.39 0.46591 0.59169 0.0
C625 C 0.36027 0.45473 0.60824 0.0
C626 C 0.4205 0.48651 0.60611 0.0
C627 C 0.42179 0.49647 0.63729 0.0
C628 C 0.39187 0.48705 0.6531 0.0
C629 C 0.36137 0.46601 0.6388 0.0
C630 C 0.49069 0.55723 0.69033 0.0
C631 C 0.51319 0.54533 0.68976 0.0
C632 C 0.46137 0.54175 0.67294 0.0
C633 C 0.454 0.51431 0.65411 0.0
C634 C 0.47683 0.50291 0.65278 0.0
C635 C 0.50602 0.51812 0.67058 0.0
H636 H 0.75142 0.74454 0.4958 0.0
H637 H 0.79027 0.80822 0.4153 0.0
H638 H 0.7355 0.78207 0.51908 0.0
H639 H 0.77423 0.84632 0.43894 0.0
H640 H 0.75979 0.9148 0.51374 0.0
H641 H 0.78263 0.88386 0.48773 0.0
H642 H 0.6899 0.79336 0.50146 0.0
H643 H 0.66701 0.82402 0.52737 0.0
C644 C 0.7573 0.76709 0.48343 0.0
C645 C 0.7719 0.7734 0.45367 0.0
C646 C 0.74786 0.78838 0.49663 0.0
C647 C 0.7528 0.8166 0.48044 0.0
C648 C 0.76993 0.82454 0.4518 0.0
C649 C 0.77939 0.80298 0.43841 0.0
C650 C 0.74413 0.88833 0.51088 0.0
C651 C 0.71163 0.87182 0.52296 0.0
C652 C 0.75724 0.8707 0.4959 0.0
C653 C 0.73824 0.83619 0.49305 0.0
C654 C 0.70531 0.81992 0.50384 0.0
C655 C 0.6921 0.83753 0.51849 0.0
H656 H 0.22558 0.99818 0.41837 0.0
H657 H 0.29283 0.02173 0.49607 0.0
H658 H 0.18763 0.94442 0.4426 0.0
H659 H 0.25544 0.96866 0.51994 0.0
H660 H 0.21116 0.85789 0.52774 0.0
H661 H 0.24191 0.9115 0.50206 0.0
H662 H 0.1519 0.91572 0.49211 0.0
H663 H 0.12088 0.86191 0.51788 0.0
C664 C 0.23168 0.99236 0.44103 0.0
C665 C 0.26217 0.01398 0.45528 0.0
C666 C 0.21018 0.96154 0.45475 0.0
C667 C 0.21908 0.95205 0.48273 0.0
C668 C 0.24833 0.9749 0.49799 0.0
C669 C 0.26955 0.00544 0.48447 0.0
C670 C 0.19778 0.86997 0.51978 0.0
C671 C 0.16361 0.8557 0.52519 0.0
C672 C 0.21544 0.90081 0.50526 0.0
C673 C 0.19935 0.91802 0.49552 0.0
C674 C 0.16493 0.90307 0.49943 0.0
C675 C 0.14726 0.87232 0.51429 0.0
H676 H 0.05278 0.28387 0.40538 0.0
H677 H 1.00473 0.24286 0.49328 0.0
H678 H 0.10687 0.30072 0.42918 0.0
H679 H 0.05869 0.2589 0.51702 0.0
H680 H 0.1615 0.27117 0.53913 0.0
H681 H 0.10912 0.24831 0.51096 0.0
H682 H 0.13814 0.345 0.47402 0.0
H683 H 0.19066 0.36831 0.50277 0.0
C684 C 0.05381 0.27736 0.42949 0.0
C685 C 0.02477 0.26145 0.44744 0.0
C686 C 0.08467 0.28736 0.44316 0.0
C687 C 0.0869 0.28123 0.47492 0.0
C688 C 0.0576 0.26368 0.49242 0.0
C689 C 0.02678 0.25427 0.47887 0.0
C690 C 0.15696 0.28763 0.52482 0.0
C691 C 0.18029 0.32167 0.52326 0.0
C692 C 0.12687 0.27446 0.50881 0.0
C693 C 0.11965 0.29486 0.49035 0.0
C694 C 0.14327 0.3287 0.48795 0.0
C695 C 0.17321 0.34206 0.50449 0.0
H696 H 0.08563 0.37964 0.74284 0.0
H697 H 0.12616 0.47042 0.69046 0.0
H698 H 0.12611 0.36744 0.71967 0.0
H699 H 0.16634 0.45787 0.66614 0.0
H700 H 0.24719 0.43447 0.64016 0.0
H701 H 0.21373 0.45046 0.67137 0.0
H702 H 0.13315 0.34934 0.66989 0.0
H703 H 0.16688 0.33322 0.63936 0.0
C704 C 0.10375 0.39728 0.7267 0.0
C705 C 0.10307 0.42606 0.71854 0.0
C706 C 0.12668 0.39011 0.7131 0.0
C707 C 0.1492 0.41131 0.69056 0.0
C708 C 0.14955 0.44105 0.68356 0.0
C709 C 0.12666 0.44837 0.69748 0.0
C710 C 0.22242 0.41554 0.64673 0.0
C711 C 0.20972 0.3825 0.63711 0.0
C712 C 0.20314 0.42481 0.6645 0.0
C713 C 0.17063 0.40131 0.67315 0.0
C714 C 0.15824 0.36812 0.66414 0.0
C715 C 0.17756 0.35882 0.64645 0.0
H716 H 0.56505 0.67312 0.69428 0.0
H717 H 0.65856 0.72203 0.74294 0.0
H718 H 0.57795 0.72585 0.6699 0.0
H719 H 0.67112 0.77468 0.71979 0.0
H720 H 0.70374 0.84809 0.63864 0.0
H721 H 0.68742 0.79842 0.66932 0.0
H722 H 0.58751 0.78146 0.67534 0.0
H723 H 0.60367 0.83075 0.64396 0.0
C724 C 0.58782 0.69538 0.70048 0.0
C725 C 0.61082 0.69371 0.7204 0.0
C726 C 0.59534 0.72558 0.68653 0.0
C727 C 0.62591 0.75452 0.69245 0.0
C728 C 0.64779 0.75287 0.71401 0.0
C729 C 0.64045 0.7228 0.72758 0.0
C730 C 0.67839 0.834 0.64677 0.0
C731 C 0.65506 0.84342 0.63867 0.0
C732 C 0.66898 0.8055 0.66452 0.0
C733 C 0.63604 0.78578 0.67487 0.0
C734 C 0.61292 0.79571 0.66743 0.0
C735 C 0.6223 0.82415 0.64958 0.0
H736 H 0.20844 0.78604 0.63579 0.0
H737 H 0.18256 0.86223 0.64873 0.0
H738 H 0.25782 0.81738 0.66765 0.0
H739 H 0.23223 0.89367 0.68051 0.0
H740 H 0.31169 0.93374 0.75374 0.0
H741 H 0.25877 0.89357 0.73024 0.0
H742 H 0.31112 0.86946 0.6613 0.0
H743 H 0.36401 0.9096 0.68524 0.0
C744 C 0.2131 0.80937 0.6456 0.0
C745 C 0.19155 0.82172 0.63944 0.0
C746 C 0.24154 0.82738 0.66378 0.0
C747 C 0.24908 0.85807 0.67651 0.0
C748 C 0.22697 0.86992 0.67131 0.0
C749 C 0.19855 0.85197 0.65295 0.0
C750 C 0.31166 0.91895 0.73421 0.0
C751 C 0.34166 0.92415 0.72152 0.0
C752 C 0.28147 0.89633 0.72049 0.0
C753 C 0.28072 0.87858 0.69369 0.0
C754 C 0.3108 0.88252 0.68209 0.0
C755 C 0.34107 0.9053 0.69581 0.0
H756 H 0.57354 0.91747 0.16587 0.0
H757 H 0.6157 0.91056 0.25321 0.0
H758 H 0.58946 0.87979 0.14166 0.0
H759 H 0.63235 0.87346 0.22898 0.0
H760 H 0.70059 0.85917 0.15521 0.0
H761 H 0.6764 0.88692 0.1848 0.0
H762 H 0.58025 0.81989 0.14586 0.0
H763 H 0.60402 0.79186 0.11674 0.0
C764 C 0.58506 0.9068 0.1801 0.0
C765 C 0.5927 0.91606 0.21148 0.0
C766 C 0.59443 0.88553 0.16627 0.0
C767 C 0.61236 0.87396 0.18344 0.0
C768 C 0.61872 0.88218 0.21522 0.0
C769 C 0.6088 0.90294 0.22916 0.0
C770 C 0.67426 0.85019 0.1532 0.0
C771 C 0.65433 0.82338 0.13355 0.0
C772 C 0.66039 0.86592 0.17025 0.0
C773 C 0.62644 0.85549 0.16756 0.0
C774 C 0.60647 0.82847 0.14827 0.0
C775 C 0.62017 0.8124 0.13169 0.0
H776 H 0.14314 0.70351 0.24246 0.0
H777 H 0.07904 0.6795 0.16215 0.0
H778 H 0.181 0.75798 0.21948 0.0
H779 H 0.11638 0.73329 0.13948 0.0
H780 H 0.15802 0.84332 0.13219 0.0
H781 H 0.12747 0.78971 0.15792 0.0
H782 H 0.21833 0.78773 0.17111 0.0
H783 H 0.24914 0.84154 0.14538 0.0
C784 C 0.13779 0.70942 0.2195 0.0
C785 C 0.10818 0.68748 0.2041 0.0
C786 C 0.1592 0.74062 0.20651 0.0
C787 C 0.15104 0.75011 0.17814 0.0
C788 C 0.12281 0.72698 0.16176 0.0
C789 C 0.10166 0.69607 0.17457 0.0
C790 C 0.17162 0.83179 0.141 0.0
C791 C 0.20594 0.84655 0.1364 0.0
C792 C 0.15409 0.80096 0.15551 0.0
C793 C 0.17052 0.78434 0.16599 0.0
C794 C 0.20508 0.79994 0.16315 0.0
C795 C 0.22262 0.83068 0.14834 0.0
H796 H 0.19255 0.3354 0.13075 0.0
H797 H 0.19695 0.42985 0.1387 0.0
H798 H 0.24635 0.35859 0.15636 0.0
H799 H 0.25098 0.45294 0.16456 0.0
H800 H 0.33338 0.46011 0.2394 0.0
H801 H 0.27954 0.44495 0.21534 0.0
H802 H 0.30372 0.40315 0.13663 0.0
H803 H 0.35692 0.41827 0.16028 0.0
C804 C 0.20473 0.36096 0.13832 0.0
C805 C 0.19056 0.38082 0.13235 0.0
C806 C 0.23567 0.37431 0.15281 0.0
C807 C 0.25302 0.40771 0.16201 0.0
C808 C 0.23816 0.42717 0.15763 0.0
C809 C 0.20731 0.41392 0.14275 0.0
C810 C 0.32756 0.44878 0.21647 0.0
C811 C 0.34915 0.44016 0.20176 0.0
C812 C 0.29671 0.43984 0.20286 0.0
C813 C 0.2872 0.4221 0.17454 0.0
C814 C 0.31006 0.41607 0.15882 0.0
C815 C 0.34064 0.42503 0.17223 0.0
H816 H 0.1978 0.36542 0.00969 0.0
H817 H 0.12117 0.26375 0.02334 0.0
H818 H 0.22896 0.34688 0.97814 0.0
H819 H 0.1522 0.24531 0.99145 0.0
H820 H 0.24349 0.2303 0.97143 0.0
H821 H 0.20363 0.24304 -0.0039 0.0
H822 H 0.22869 0.32101 0.92879 0.0
H823 H 0.26876 0.30851 0.90482 0.0
C824 C 0.18739 0.33916 0.00568 0.0
C825 C 0.15707 0.31614 0.01927 0.0
C826 C 0.20517 0.3285 0.98742 0.0
C827 C 0.19308 0.29455 0.98227 0.0
C828 C 0.16239 0.27158 -0.00477 0.0
C829 C 0.14455 0.28223 0.01342 0.0
C830 C 0.23951 0.24936 0.96143 0.0
C831 C 0.25869 0.26821 0.93613 0.0
C832 C 0.21686 0.25681 0.97555 0.0
C833 C 0.21329 0.28337 0.96465 0.0
C834 C 0.23123 0.30082 0.93811 0.0
C835 C 0.25382 0.29342 0.92412 0.0
H836 H 0.67131 0.84872 0.01029 0.0
H837 H 0.77375 0.87676 0.02581 0.0
H838 H 0.68913 0.89829 0.97872 0.0
H839 H 0.79144 0.92601 0.99401 0.0
H840 H 0.80452 0.03093 0.97302 0.0
H841 H 0.79221 0.97878 -0.00191 0.0
H842 H 0.71557 0.92473 0.92968 0.0
H843 H 0.72774 0.97691 0.90518 0.0
C844 C 0.69759 0.86521 0.00672 0.0
C845 C 0.72101 0.85873 0.02082 0.0
C846 C 0.70785 0.89359 0.98845 0.0
C847 C 0.74179 0.91623 0.98383 0.0
C848 C 0.76516 0.90936 -0.00264 0.0
C849 C 0.75493 0.88096 0.01552 0.0
C850 C 0.78593 0.00777 0.96281 0.0
C851 C 0.76745 0.00772 0.93694 0.0
C852 C 0.77868 0.9779 0.9772 0.0
C853 C 0.75259 0.94752 0.96612 0.0
C854 C 0.73542 0.94763 0.93914 0.0
C855 C 0.74269 0.97741 0.92481 0.0
H856 H 0.16772 0.82629 0.03384 0.0
H857 H 0.172 0.91736 0.00636 0.0
H858 H 0.11536 0.79484 0.00549 0.0
H859 H 0.11989 0.88586 0.97766 0.0
H860 H 0.0458 0.80907 0.9014 0.0
H861 H 0.09708 0.84581 0.92995 0.0
H862 H 0.05643 0.78616 0.01267 0.0
H863 H 1.00519 0.75006 0.98426 0.0
C864 C 0.15777 0.8396 0.02138 0.0
C865 C 0.17403 0.87431 0.02236 0.0
C866 C 0.12762 0.8216 0.00543 0.0
C867 C 0.11336 0.83791 0.98963 0.0
C868 C 0.13024 0.87263 0.98963 0.0
C869 C 0.16006 0.89061 0.00607 0.0
C870 C 0.04744 0.80479 0.92603 0.0
C871 C 0.02135 0.77739 0.94094 0.0
C872 C 0.07684 0.82552 0.94228 0.0
C873 C 0.08089 0.81859 0.97343 0.0
C874 C 0.05415 0.79191 0.98861 0.0
C875 C 0.02466 0.77159 0.97254 0.0
H876 H 0.33571 0.17112 0.84103 0.0
H877 H 0.43678 0.24565 0.86176 0.0
H878 H 0.35589 0.14145 0.80932 0.0
H879 H 0.45685 0.21606 0.82982 0.0
H880 H 0.47098 0.12442 0.80778 0.0
H881 H 0.45767 0.16358 0.83295 0.0
H882 H 0.38536 0.14491 0.76092 0.0
H883 H 0.39851 0.10561 0.73628 0.0
C884 C 0.36221 0.18136 0.83861 0.0
C885 C 0.38453 0.21069 0.85415 0.0
C886 C 0.37382 0.16446 0.82024 0.0
C887 C 0.40804 0.1764 0.817 0.0
C888 C 0.43037 0.20603 0.83206 0.0
C889 C 0.41878 0.22304 0.85028 0.0
C890 C 0.45322 0.12979 0.7968 0.0
C891 C 0.43613 0.11259 0.76991 0.0
C892 C 0.4454 0.152 0.81125 0.0
C893 C 0.4201 0.15704 0.79916 0.0
C894 C 0.40456 0.14121 0.77111 0.0
C895 C 0.4124 0.11912 0.75674 0.0
H896 H 0.78874 0.20978 0.86897 0.0
H897 H 0.8578 0.17955 0.83758 0.0
H898 H 0.81724 0.25977 0.83746 0.0
H899 H 0.88627 0.22973 0.80599 0.0
H900 H 0.91665 0.31028 0.73439 0.0
H901 H 0.87815 0.25781 0.75961 0.0
H902 H 0.87314 0.31132 0.83979 0.0
H903 H 0.91178 0.36371 0.81438 0.0
C904 C 0.80986 0.21362 0.85519 0.0
C905 C 0.82109 0.19063 0.856 0.0
C906 C 0.82623 0.24239 0.8372 0.0
C907 C 0.85398 0.24874 0.81924 0.0
C908 C 0.8647 0.22537 0.81932 0.0
C909 C 0.84854 0.19671 0.83759 0.0
C910 C 0.90619 0.31071 0.75688 0.0
C911 C 0.91642 0.34086 0.77223 0.0
C912 C 0.88461 0.28074 0.77151 0.0
C913 C 0.87286 0.2804 0.80182 0.0
C914 C 0.88153 0.31075 0.81633 0.0
C915 C 0.9034 0.34074 0.80176 0.0
H916 H 0.86461 0.68611 0.81915 0.0
H917 H 0.81999 0.60261 0.88198 0.0
H918 H 0.81299 0.66179 0.7888 0.0
H919 H 0.76917 0.57847 0.85171 0.0
H920 H 0.67389 0.58066 0.82245 0.0
H921 H 0.7267 0.59426 0.8463 0.0
H922 H 0.77229 0.61442 0.7551 0.0
H923 H 0.7188 0.60049 0.73126 0.0
C924 C 0.84407 0.66244 0.82623 0.0
C925 C 0.84632 0.64671 0.85338 0.0
C926 C 0.81455 0.64838 0.80875 0.0
C927 C 0.78678 0.61832 0.81805 0.0
C928 C 0.7898 0.60189 0.8442 0.0
C929 C 0.81906 0.61585 0.86158 0.0
C930 C 0.69487 0.58658 0.80745 0.0
C931 C 0.69214 0.58866 0.77504 0.0
C932 C 0.72525 0.59464 0.82108 0.0
C933 C 0.75386 0.6056 0.80263 0.0
C934 C 0.75079 0.60626 0.76996 0.0
C935 C 0.72011 0.59771 0.75626 0.0
H936 H 0.86083 0.6798 0.00274 0.0
H937 H 0.90158 0.764 0.94069 0.0
H938 H 0.83477 0.70497 0.03359 0.0
H939 H 0.87625 0.78906 0.97151 0.0
H940 H 0.7808 0.79017 0.00182 0.0
H941 H 0.81904 0.77566 0.97738 0.0
H942 H 0.84252 0.75179 0.06787 0.0
H943 H 0.80389 0.76653 0.09226 0.0
C944 C 0.86462 0.70379 -0.00407 0.0
C945 C 0.88274 0.71949 0.96885 0.0
C946 C 0.84988 0.71835 0.01371 0.0
C947 C 0.85311 0.74892 0.0048 0.0
C948 C 0.87269 0.76525 0.97871 0.0
C949 C 0.88723 0.75077 0.96101 0.0
C950 C 0.79531 0.78329 0.01657 0.0
C951 C 0.79018 0.78037 0.04893 0.0
C952 C 0.81705 0.77469 0.00261 0.0
C953 C 0.83379 0.76236 0.02064 0.0
C954 C 0.82986 0.76098 0.05331 0.0
C955 C 0.80829 0.77001 0.06734 0.0
H956 H 0.36134 0.17432 0.96555 0.0
H957 H 0.26747 0.17158 0.97324 0.0
H958 H 0.33796 0.12163 0.99304 0.0
H959 H 0.24425 0.11875 0.00117 0.0
H960 H 0.24207 0.0398 0.07998 0.0
H961 H 0.25632 0.0928 0.05476 0.0
H962 H 0.28937 0.06348 0.97297 0.0
H963 H 0.27501 0.01108 -0.00233 0.0
C964 C 0.3359 0.16278 0.9735 0.0
C965 C 0.3162 0.177 0.96688 0.0
C966 C 0.32247 0.13254 0.98911 0.0
C967 C 0.28921 0.11604 -0.00114 0.0
C968 C 0.26993 0.13099 0.99384 0.0
C969 C 0.28323 0.16111 0.97777 0.0
C970 C 0.25114 0.04429 0.05619 0.0
C971 C 0.25762 0.02152 0.04078 0.0
C972 C 0.25956 0.07463 0.0419 0.0
C973 C 0.27466 0.08238 0.01227 0.0
C974 C 0.27839 0.05836 -0.00394 0.0
C975 C 0.2699 0.02828 0.0101 0.0
H976 H 0.84655 0.19283 0.98538 0.0
H977 H 0.87514 0.12193 0.95619 0.0
H978 H 0.89703 0.22147 0.01662 0.0
H979 H 0.92548 0.15059 0.98747 0.0
H980 H 0.03048 0.24432 0.00944 0.0
H981 H 0.9777 0.20553 0.98447 0.0
H982 H 0.92484 0.21443 0.06331 0.0
H983 H 0.97765 0.25316 0.08799 0.0
C984 C 0.8634 0.18318 0.9858 0.0
C985 C 0.85679 0.15519 0.96808 0.0
C986 C 0.89225 0.19946 0.00388 0.0
C987 C 0.91526 0.18826 0.00452 0.0
C988 C 0.90837 0.15995 0.98727 0.0
C989 C 0.87942 0.1435 0.96943 0.0
C990 C 0.00754 0.23682 0.02186 0.0
C991 C 0.00792 0.25103 0.0508 0.0
C992 C 0.97734 0.21484 0.00756 0.0
C993 C 0.94708 0.20721 0.0218 0.0
C994 C 0.94769 0.22012 0.0516 0.0
C995 C 0.97784 0.24186 0.06593 0.0
H996 H 0.37578 0.20833 0.4696 0.0
H997 H 0.2771 0.12469 0.48088 0.0
H998 H 0.35867 0.24346 0.49637 0.0
H999 H 0.25997 0.16007 0.50736 0.0
H1000 H 0.25389 0.23616 0.57657 0.0
H1001 H 0.26806 0.19602 0.55468 0.0
H1002 H 0.32127 0.26395 0.47981 0.0
H1003 H 0.30736 0.30353 0.50135 0.0
C1004 C 0.35059 0.19729 0.47815 0.0
C1005 C 0.32776 0.16375 0.4727 0.0
C1006 C 0.34068 0.21749 0.49329 0.0
C1007 C 0.30777 0.20465 0.5035 0.0
C1008 C 0.28546 0.17071 0.49976 0.0
C1009 C 0.29531 0.1505 0.48445 0.0
C1010 C 0.26804 0.24212 0.55513 0.0
C1011 C 0.27979 0.27314 0.5409 0.0
C1012 C 0.27633 0.21928 0.5427 0.0
C1013 C 0.29655 0.22722 0.51597 0.0
C1014 C 0.30656 0.25747 0.50094 0.0
C1015 C 0.29829 0.28004 0.51318 0.0
H1016 H 0.82723 0.17905 0.46628 0.0
H1017 H 0.91238 0.16647 0.47861 0.0
H1018 H 0.7928 0.12689 0.49334 0.0
H1019 H 0.87772 0.11407 0.50543 0.0
H1020 H 0.80198 0.03285 0.57599 0.0
H1021 H 0.84172 0.08673 0.55317 0.0
H1022 H 0.77372 0.06895 0.47727 0.0
H1023 H 0.73453 0.01586 0.49974 0.0
C1024 C 0.83873 0.16545 0.47511 0.0
C1025 C 0.87249 0.17681 0.4699 0.0
C1026 C 0.81895 0.1354 0.49042 0.0
C1027 C 0.83246 0.11608 0.50104 0.0
C1028 C 0.86659 0.12834 0.49749 0.0
C1029 C 0.88637 0.15832 0.48199 0.0
C1030 C 0.79599 0.04025 0.55409 0.0
C1031 C 0.76503 0.02029 0.53984 0.0
C1032 C 0.81857 0.07113 0.54115 0.0
C1033 C 0.81041 0.08243 0.51387 0.0
C1034 C 0.78033 0.06144 0.49878 0.0
C1035 C 0.758 0.03084 0.51155 0.0
H1036 H 1.00093 0.78148 0.57882 0.0
H1037 H 0.02263 0.74071 0.49763 0.0
H1038 H 0.94693 0.76739 0.55586 0.0
H1039 H 0.96934 0.72671 0.47508 0.0
H1040 H 0.85882 0.66441 0.46479 0.0
H1041 H 0.91148 0.68348 0.49164 0.0
H1042 H 0.91942 0.77846 0.50781 0.0
H1043 H 0.86655 0.75944 0.48098 0.0
C1044 C 0.99457 0.77037 0.55582 0.0
C1045 C 0.01579 0.76189 0.54014 0.0
C1046 C 0.96364 0.76208 0.5428 0.0
C1047 C 0.95364 0.74512 0.51409 0.0
C1048 C 0.97597 0.73889 0.49763 0.0
C1049 C 0.00662 0.74721 0.51044 0.0
C1050 C 0.87146 0.68917 0.47445 0.0
C1051 C 0.85864 0.71049 0.47038 0.0
C1052 C 0.90174 0.70018 0.48965 0.0
C1053 C 0.91978 0.73265 0.50136 0.0
C1054 C 0.90609 0.75337 0.49897 0.0
C1055 C 0.87589 0.74245 0.48349 0.0
H1056 H 0.89726 0.58092 0.24705 0.0
H1057 H 0.96063 0.62084 0.32785 0.0
H1058 H 0.85874 0.59678 0.26994 0.0
H1059 H 0.92262 0.63655 0.35042 0.0
H1060 H 0.87768 0.70185 0.36024 0.0
H1061 H 0.90991 0.68088 0.33394 0.0
H1062 H 0.82069 0.58773 0.3172 0.0
H1063 H 0.78824 0.60867 0.34341 0.0
C1064 C 0.90241 0.59212 0.27002 0.0
C1065 C 0.93201 0.59988 0.28558 0.0
C1066 C 0.88059 0.60146 0.28298 0.0
C1067 C 0.88824 0.61875 0.31154 0.0
C1068 C 0.91657 0.62415 0.32798 0.0
C1069 C 0.93814 0.61481 0.31519 0.0
C1070 C 0.86481 0.67711 0.35053 0.0
C1071 C 0.83045 0.65684 0.35427 0.0
C1072 C 0.8833 0.66499 0.33569 0.0
C1073 C 0.86784 0.63244 0.32403 0.0
C1074 C 0.83325 0.61284 0.32604 0.0
C1075 C 0.81475 0.62486 0.34114 0.0
H1076 H 0.45431 0.33292 0.24984 0.0
H1077 H 0.40614 0.35292 0.32602 0.0
H1078 H 0.43901 0.27906 0.27335 0.0
H1079 H 0.39115 0.29983 0.34928 0.0
H1080 H 0.33125 0.18955 0.36072 0.0
H1081 H 0.35077 0.2423 0.3342 0.0
H1082 H 0.4466 0.25092 0.32062 0.0
H1083 H 0.42705 0.19792 0.34687 0.0
C1084 C 0.44126 0.32621 0.27193 0.0
C1085 C 0.43118 0.34699 0.28594 0.0
C1086 C 0.43229 0.29533 0.28528 0.0
C1087 C 0.41308 0.28485 0.31274 0.0
C1088 C 0.40505 0.3067 0.32765 0.0
C1089 C 0.41396 0.3373 0.31445 0.0
C1090 C 0.35632 0.2024 0.35173 0.0
C1091 C 0.37763 0.1896 0.35627 0.0
C1092 C 0.36763 0.23279 0.33674 0.0
C1093 C 0.40045 0.25107 0.32578 0.0
C1094 C 0.42124 0.23749 0.32881 0.0
C1095 C 0.41 0.20715 0.34398 0.0
H1096 H 0.83521 0.24205 0.34787 0.0
H1097 H 0.84897 0.15732 0.35534 0.0
H1098 H 0.78194 0.20771 0.32193 0.0
H1099 H 0.79605 0.12332 0.32927 0.0
H1100 H 0.68513 0.0639 0.32438 0.0
H1101 H 0.73829 0.10319 0.34692 0.0
H1102 H 0.75374 0.17278 0.27345 0.0
H1103 H 0.69977 0.13295 0.25058 0.0
C1104 C 0.82714 0.21624 0.34363 0.0
C1105 C 0.84626 0.20237 0.35408 0.0
C1106 C 0.79665 0.19664 0.32866 0.0
C1107 C 0.78454 0.16272 0.32403 0.0
C1108 C 0.80441 0.14927 0.33309 0.0
C1109 C 0.8349 0.16883 0.34785 0.0
C1110 C 0.6996 0.08773 0.31314 0.0
C1111 C 0.6884 0.09518 0.28547 0.0
C1112 C 0.73023 0.11014 0.32595 0.0
C1113 C 0.75062 0.14072 0.31152 0.0
C1114 C 0.73861 0.14926 0.28496 0.0
C1115 C 0.70769 0.1266 0.27198 0.0
H1116 H 0.13465 0.75873 0.46785 0.0
H1117 H 0.05456 0.66441 0.49926 0.0
H1118 H 0.12502 0.73834 0.41424 0.0
H1119 H 0.04491 0.64424 0.44557 0.0
H1120 H 0.06284 0.60975 0.3512 0.0
H1121 H 0.07489 0.63081 0.40446 0.0
H1122 H 0.07967 0.72132 0.37411 0.0
H1123 H 0.06777 0.70042 0.32061 0.0
C1124 C 0.1151 0.73361 0.46335 0.0
C1125 C 0.09542 0.71312 0.48779 0.0
C1126 C 0.10948 0.72208 0.43265 0.0
C1127 C 0.08425 0.68977 0.42585 0.0
C1128 C 0.06475 0.66916 0.45027 0.0
C1129 C 0.07018 0.68077 0.48095 0.0
C1130 C 0.06669 0.63425 0.35578 0.0
C1131 C 0.0644 0.65347 0.33168 0.0
C1132 C 0.07336 0.64617 0.38632 0.0
C1133 C 0.07808 0.6776 0.39333 0.0
C1134 C 0.07637 0.69709 0.36922 0.0
C1135 C 0.06944 0.68507 0.33866 0.0
H1136 H 0.27674 0.3914 0.46786 0.0
H1137 H 0.37215 0.40795 0.49915 0.0
H1138 H 0.29639 0.40099 0.41412 0.0
H1139 H 0.39167 0.41736 0.44516 0.0
H1140 H 0.42428 0.46948 0.35021 0.0
H1141 H 0.40402 0.45981 0.40366 0.0
H1142 H 0.31364 0.37344 0.37375 0.0
H1143 H 0.3338 0.38312 0.31991 0.0
C1144 C 0.30196 0.3972 0.46331 0.0
C1145 C 0.32299 0.39911 0.48782 0.0
C1146 C 0.31307 0.40241 0.43248 0.0
C1147 C 0.3455 0.40987 0.42551 0.0
C1148 C 0.36661 0.41193 0.44996 0.0
C1149 C 0.35542 0.40645 0.48082 0.0
C1150 C 0.39997 0.44851 0.35489 0.0
C1151 C 0.38057 0.42711 0.33075 0.0
C1152 C 0.38853 0.44286 0.38559 0.0
C1153 C 0.35737 0.41582 0.39284 0.0
C1154 C 0.3377 0.39463 0.36872 0.0
C1155 C 0.34926 0.40013 0.33795 0.0
H1156 H 0.6067 0.88671 0.47912 0.0
H1157 H 0.66299 0.99242 0.49364 0.0
H1158 H 0.59639 0.89566 0.42493 0.0
H1159 H 0.65323 1.00123 0.43914 0.0
H1160 H 0.66141 0.99331 0.32968 0.0
H1161 H 0.67079 0.98365 0.38405 0.0
H1162 H 0.56515 0.92623 0.39876 0.0
H1163 H 0.55563 0.93645 0.34473 0.0
C1164 C 0.61675 0.91181 0.47072 0.0
C1165 C 0.63547 0.9389 0.49048 0.0
C1166 C 0.61083 0.91687 0.43984 0.0
C1167 C 0.6242 0.94907 0.42811 0.0
C1168 C 0.64288 0.97619 0.44781 0.0
C1169 C 0.64819 0.97114 0.47891 0.0
C1170 C 0.64025 0.97838 0.34448 0.0
C1171 C 0.60783 0.96552 0.33312 0.0
C1172 C 0.64561 0.97312 0.37551 0.0
C1173 C 0.61863 0.95433 0.39531 0.0
C1174 C 0.58625 0.94075 0.38376 0.0
C1175 C 0.58087 0.94661 0.35297 0.0
H1176 H 0.73965 0.13325 0.01785 0.0
H1177 H 0.68703 0.02847 -0.00225 0.0
H1178 H 0.71912 0.12183 0.07144 0.0
H1179 H 0.66701 0.01713 0.05181 0.0
H1180 H 0.67668 0.0183 0.16224 0.0
H1181 H 0.69785 0.0291 0.10855 0.0
H1182 H 0.65748 0.09367 0.09485 0.0
H1183 H 0.63577 0.0825 0.14809 0.0
C1184 C 0.72376 0.10779 0.02492 0.0
C1185 C 0.71479 0.08171 0.00367 0.0
C1186 C 0.71202 0.10133 0.0555 0.0
C1187 C 0.69167 0.06867 0.06553 0.0
C1188 C 0.68288 0.04251 0.04449 0.0
C1189 C 0.6941 0.049 0.01363 0.0
C1190 C 0.67258 0.03497 0.14778 0.0
C1191 C 0.65472 0.04966 0.15924 0.0
C1192 C 0.68441 0.04089 0.11713 0.0
C1193 C 0.67913 0.06211 0.09781 0.0
C1194 C 0.66187 0.07729 0.10946 0.0
C1195 C 0.64947 0.07086 0.13981 0.0
H1196 H 0.96342 0.65266 0.17452 0.0
H1197 H 1.00037 0.59207 0.13506 0.0
H1198 H 0.95743 0.66956 0.12175 0.0
H1199 H 0.99512 0.60961 0.08265 0.0
H1200 H 0.01344 0.67969 -0.00165 0.0
H1201 H 0.02254 0.66933 0.05264 0.0
H1202 H 0.91912 0.63225 0.07279 0.0
H1203 H 0.90975 0.64177 0.01857 0.0
C1204 C 0.9703 0.64307 0.15461 0.0
C1205 C 0.98201 0.62082 0.15875 0.0
C1206 C 0.96694 0.65275 0.12458 0.0
C1207 C 0.97608 0.641 0.09842 0.0
C1208 C 0.98824 0.61919 0.10259 0.0
C1209 C 0.99088 0.60893 0.13248 0.0
C1210 C 0.99277 0.66959 0.01447 0.0
C1211 C 0.96083 0.66112 0.00429 0.0
C1212 C 0.99796 0.66365 0.04538 0.0
C1213 C 0.97146 0.65 0.06661 0.0
C1214 C 0.93989 0.64293 0.05678 0.0
C1215 C 0.93455 0.64815 0.02579 0.0
H1216 H 0.37292 0.33362 0.17064 0.0
H1217 H 0.46018 0.42098 0.13674 0.0
H1218 H 0.35988 0.31218 0.11725 0.0
H1219 H 0.44714 0.39949 0.08377 0.0
H1220 H 0.3933 0.36686 0.98997 0.0
H1221 H 0.40295 0.38736 0.04368 0.0
H1222 H 0.38534 0.29245 0.07651 0.0
H1223 H 0.37552 0.27183 0.02306 0.0
C1224 C 0.38936 0.34814 0.15189 0.0
C1225 C 0.41766 0.37888 0.15795 0.0
C1226 C 0.38191 0.33587 0.12139 0.0
C1227 C 0.40243 0.35431 0.09645 0.0
C1228 C 0.43068 0.38499 0.10253 0.0
C1229 C 0.43827 0.3971 0.13293 0.0
C1230 C 0.39138 0.35036 0.00866 0.0
C1231 C 0.38393 0.31785 0.00227 0.0
C1232 C 0.39701 0.36212 0.03934 0.0
C1233 C 0.39494 0.34146 0.06415 0.0
C1234 C 0.38682 0.30878 0.05783 0.0
C1235 C 0.38149 0.29712 0.02719 0.0
H1236 H 0.94878 0.40373 0.64038 0.0
H1237 H 1.00084 0.35065 0.65942 0.0
H1238 H 0.93964 0.38376 0.5865 0.0
H1239 H 0.99218 0.33126 0.60516 0.0
H1240 H 1.00277 0.34316 0.4955 0.0
H1241 H 0.01199 0.36355 0.54942 0.0
H1242 H 0.90666 0.32263 0.5614 0.0
H1243 H 0.89725 0.30163 0.50785 0.0
C1244 C 0.95825 0.3878 0.63303 0.0
C1245 C 0.97541 0.3786 0.65403 0.0
C1246 C 0.95296 0.3764 0.6023 0.0
C1247 C 0.96537 0.3562 0.59189 0.0
C1248 C 0.98262 0.34703 0.61277 0.0
C1249 C 0.98731 0.35788 0.64374 0.0
C1250 C 0.98166 0.33881 0.5096 0.0
C1251 C 0.94932 0.32092 0.49758 0.0
C1252 C 0.98692 0.3502 0.5404 0.0
C1253 C 0.95998 0.34447 0.55933 0.0
C1254 C 0.92776 0.32734 0.5471 0.0
C1255 C 0.92243 0.31535 0.51657 0.0
H1256 H 0.70487 0.65385 0.66816 0.0
H1257 H 0.60989 0.57661 0.63432 0.0
H1258 H 0.72559 0.66522 0.61457 0.0
H1259 H 0.63076 0.58785 0.5811 0.0
H1260 H 0.67025 0.64303 0.48829 0.0
H1261 H 0.64957 0.63371 0.54184 0.0
H1262 H 0.73805 0.63445 0.57336 0.0
H1263 H 0.75894 0.64401 0.5201 0.0
C1264 C 0.68847 0.63933 0.64935 0.0
C1265 C 0.65585 0.61424 0.65544 0.0
C1266 C 0.70035 0.64575 0.61877 0.0
C1267 C 0.6797 0.62737 0.59385 0.0
C1268 C 0.64703 0.60256 0.59991 0.0
C1269 C 0.63524 0.596 0.63041 0.0
C1270 C 0.68522 0.6411 0.50663 0.0
C1271 C 0.71611 0.64406 0.49998 0.0
C1272 C 0.67337 0.63573 0.5372 0.0
C1273 C 0.69233 0.63349 0.56159 0.0
C1274 C 0.72318 0.63649 0.55497 0.0
C1275 C 0.73493 0.64164 0.52444 0.0
H1276 H 0.36563 0.02629 0.6573 0.0
H1277 H 0.47145 0.07894 0.64171 0.0
H1278 H 0.35679 0.03632 0.60282 0.0
H1279 H 0.46251 0.08937 0.58771 0.0
H1280 H 0.4265 0.13528 0.50953 0.0
H1281 H 0.43589 0.12336 0.56295 0.0
H1282 H 0.3708 0.01906 0.54669 0.0
H1283 H 0.36184 0.03084 0.49288 0.0
C1284 C 0.38692 0.04013 0.64231 0.0
C1285 C 0.4192 0.05189 0.65369 0.0
C1286 C 0.38186 0.04562 0.61121 0.0
C1287 C 0.40902 0.06353 0.59129 0.0
C1288 C 0.44124 0.07556 0.60274 0.0
C1289 C 0.44628 0.06952 0.63356 0.0
C1290 C 0.41448 0.10979 0.51726 0.0
C1291 C 0.39364 0.08394 0.49709 0.0
C1292 C 0.41986 0.10302 0.54774 0.0
C1293 C 0.40394 0.07036 0.55876 0.0
C1294 C 0.38318 0.04445 0.53863 0.0
C1295 C 0.37834 0.05116 0.50788 0.0
H1296 H 0.33253 0.979 0.82254 0.0
H1297 H 0.42628 0.9954 0.85873 0.0
H1298 H 0.31029 0.96916 0.87567 0.0
H1299 H 0.40398 0.98532 0.91143 0.0
H1300 H 0.36298 0.99803 0.00397 0.0
H1301 H 0.38444 0.01119 0.95078 0.0
H1302 H 0.29606 0.92539 0.91655 0.0
H1303 H 0.27438 0.91226 0.96957 0.0
C1304 C 0.34838 0.9806 0.84178 0.0
C1305 C 0.38106 0.98778 0.83645 0.0
C1306 C 0.33562 0.97483 0.87211 0.0
C1307 C 0.35545 0.97649 0.89758 0.0
C1308 C 0.38826 0.98422 0.89226 0.0
C1309 C 0.40091 0.98972 0.86203 0.0
C1310 C 0.34813 0.98195 0.98511 0.0
C1311 C 0.31711 0.95396 0.99101 0.0
C1312 C 0.36045 0.98947 0.95471 0.0
C1313 C 0.34187 0.9693 0.92962 0.0
C1314 C 0.31072 0.94154 0.93544 0.0
C1315 C 0.29849 0.93388 0.96584 0.0
H1316 H 0.11688 0.37417 0.96686 0.0
H1317 H 0.03519 0.38356 0.00282 0.0
H1318 H 0.10373 0.38345 0.91414 0.0
H1319 H 0.02199 0.39266 0.9498 0.0
H1320 H 0.04018 0.44978 0.85641 0.0
H1321 H 0.04994 0.43749 0.90933 0.0
H1322 H 0.05788 0.35478 0.87476 0.0
H1323 H 0.04832 0.3671 0.82163 0.0
C1324 C 0.09611 0.37822 0.96352 0.0
C1325 C 0.07717 0.37835 0.98901 0.0
C1326 C 0.08845 0.38324 0.9333 0.0
C1327 C 0.06185 0.3887 0.92798 0.0
C1328 C 0.04279 0.38873 0.95338 0.0
C1329 C 0.05028 0.38342 0.98365 0.0
C1330 C 0.04402 0.42897 0.86005 0.0
C1331 C 0.04373 0.40954 0.83482 0.0
C1332 C 0.04932 0.4218 0.89038 0.0
C1333 C 0.05466 0.39523 0.89604 0.0
C1334 C 0.0541 0.3756 0.87091 0.0
C1335 C 0.04852 0.38259 0.84057 0.0
H1336 H 0.67861 0.67544 0.83022 0.0
H1337 H 0.57376 0.62803 0.85033 0.0
H1338 H 0.69099 0.69731 0.8836 0.0
H1339 H 0.58628 0.65036 0.90331 0.0
H1340 H 0.62892 0.73678 0.9761 0.0
H1341 H 0.61746 0.71339 0.92357 0.0
H1342 H 0.67766 0.66874 0.94147 0.0
H1343 H 0.68884 0.6917 0.9945 0.0
C1344 C 0.6583 0.66986 0.84599 0.0
C1345 C 0.62526 0.65023 0.83624 0.0
C1346 C 0.66538 0.68212 0.87643 0.0
C1347 C 0.63951 0.67539 0.8972 0.0
C1348 C 0.60654 0.65586 0.88747 0.0
C1349 C 0.59945 0.64311 0.85729 0.0
C1350 C 0.63969 0.72195 0.96887 0.0
C1351 C 0.65966 0.71589 0.98929 0.0
C1352 C 0.63304 0.70854 0.93894 0.0
C1353 C 0.64673 0.6894 0.92881 0.0
C1354 C 0.667 0.68358 0.94898 0.0
C1355 C 0.67317 0.69649 0.97921 0.0
H1356 H 0.71528 0.9437 0.68753 0.0
H1357 H 0.71722 0.03166 0.65281 0.0
H1358 H 0.72439 0.96577 0.74033 0.0
H1359 H 0.72625 0.05367 0.70599 0.0
H1360 H 0.78354 0.0945 0.79953 0.0
H1361 H 0.77183 0.07313 0.74633 0.0
H1362 H 0.69351 0.97938 0.78042 0.0
H1363 H 0.70525 1.00062 0.83384 0.0
C1364 C 0.71774 0.9678 0.69113 0.0
C1365 C 0.71571 0.98603 0.66594 0.0
C1366 C 0.72265 0.98027 0.72143 0.0
C1367 C 0.72587 0.01132 0.7272 0.0
C1368 C 0.72402 0.02971 0.70208 0.0
C1369 C 0.71879 0.01709 0.67171 0.0
C1370 C 0.76379 0.06932 0.79572 0.0
C1371 C 0.74547 0.04913 0.82091 0.0
C1372 C 0.75695 0.05722 0.76523 0.0
C1373 C 0.73184 0.02464 0.75934 0.0
C1374 C 0.71323 0.00453 0.78442 0.0
C1375 C 0.71987 0.01672 0.81494 0.0
H1376 H 0.09488 0.76885 0.68863 0.0
H1377 H 0.99726 0.70816 0.64913 0.0
H1378 H 0.07163 0.75381 0.74113 0.0
H1379 H 0.97391 0.69379 0.70199 0.0
H1380 H 0.95443 0.72634 0.8033 0.0
H1381 H 0.97382 0.73393 0.74923 0.0
H1382 H 0.03806 0.69527 0.7728 0.0
H1383 H 0.0182 0.68689 0.82682 0.0
C1384 C 0.06844 0.75239 0.69122 0.0
C1385 C 0.04778 0.73977 0.66492 0.0
C1386 C 0.05526 0.74364 0.72117 0.0
C1387 C 0.02113 0.72264 0.72534 0.0
C1388 C 1.00035 0.71002 0.69915 0.0
C1389 C 0.01366 0.71819 0.66906 0.0
C1390 C 0.97255 0.71929 0.79688 0.0
C1391 C 0.98509 0.70635 0.81923 0.0
C1392 C 0.98338 0.72339 0.76599 0.0
C1393 C 0.00734 0.71517 0.75714 0.0
C1394 C 0.01956 0.70178 0.77929 0.0
C1395 C 0.00822 0.69702 0.81006 0.0
H1396 H 0.34664 0.3533 0.66163 0.0
H1397 H 0.24171 0.28781 0.67585 0.0
H1398 H 0.35744 0.34165 0.71497 0.0
H1399 H 0.25262 0.27589 0.72856 0.0
H1400 H 0.29359 0.23561 0.80496 0.0
H1401 H 0.28585 0.24785 0.75124 0.0
H1402 H 0.3387 0.3523 0.77207 0.0
H1403 H 0.34613 0.34016 0.82622 0.0
C1404 C 0.32602 0.3362 0.67601 0.0
C1405 C 0.29338 0.32143 0.66472 0.0
C1406 C 0.33216 0.32977 0.70645 0.0
C1407 C 0.3058 0.30794 0.72561 0.0
C1408 C 0.27331 0.2927 0.71407 0.0
C1409 C 0.26711 0.2996 0.68401 0.0
C1410 C 0.30356 0.2612 0.79812 0.0
C1411 C 0.32026 0.28696 0.81977 0.0
C1412 C 0.29911 0.26813 0.76745 0.0
C1413 C 0.3118 0.30095 0.75773 0.0
C1414 C 0.32895 0.32681 0.77913 0.0
C1415 C 0.33289 0.31984 0.81005 0.0
H1416 H 0.07173 0.27908 0.18004 0.0
H1417 H 0.02112 0.33442 0.16571 0.0
H1418 H 0.05174 0.26779 0.23389 0.0
H1419 H 1.00178 0.32362 0.21998 0.0
H1420 H 0.01613 0.32929 0.32992 0.0
H1421 H 0.03589 0.34019 0.27584 0.0
H1422 H 0.98931 0.23524 0.25864 0.0
H1423 H 0.96884 0.22418 0.31242 0.0
C1424 C 0.05636 0.28883 0.18844 0.0
C1425 C 0.04786 0.30755 0.16879 0.0
C1426 C 0.04493 0.2823 0.21912 0.0
C1427 C 0.02544 0.29499 0.23081 0.0
C1428 C 0.01697 0.31379 0.21131 0.0
C1429 C 0.02781 0.31973 0.18036 0.0
C1430 C 0.0104 0.30859 0.31463 0.0
C1431 C 0.99112 0.27591 0.32524 0.0
C1432 C 0.02142 0.31484 0.28377 0.0
C1433 C 0.01392 0.28849 0.26336 0.0
C1434 C 0.99535 0.25586 0.27413 0.0
C1435 C 0.9837 0.24959 0.30477 0.0
H1436 H 0.71218 0.72747 0.33711 0.0
H1437 H 0.80012 0.72658 0.30611 0.0
H1438 H 0.7013 0.73695 0.2833 0.0
H1439 H 0.78927 0.73618 0.25279 0.0
H1440 H 0.7383 0.7163 0.15752 0.0
H1441 H 0.74656 0.70507 0.21151 0.0
H1442 H 0.72848 0.78247 0.24336 0.0
H1443 H 0.71999 0.79362 0.18966 0.0
C1444 C 0.72923 0.72946 0.31892 0.0
C1445 C 0.75705 0.72642 0.32588 0.0
C1446 C 0.72303 0.73491 0.2882 0.0
C1447 C 0.74439 0.73708 0.26399 0.0
C1448 C 0.77219 0.73414 0.27098 0.0
C1449 C 0.77852 0.72895 0.3016 0.0
C1450 C 0.73609 0.73089 0.17604 0.0
C1451 C 0.72877 0.756 0.16933 0.0
C1452 C 0.74088 0.72453 0.20687 0.0
C1453 C 0.73815 0.74296 0.23148 0.0
C1454 C 0.73041 0.76772 0.22481 0.0
C1455 C 0.72586 0.77426 0.19404 0.0
H1456 H 0.30117 0.9993 0.3365 0.0
H1457 H 0.30891 0.09124 0.30611 0.0
H1458 H 0.2912 0.9795 0.28255 0.0
H1459 H 0.2989 0.07135 0.25241 0.0
H1460 H 0.31811 0.03698 0.15704 0.0
H1461 H 0.3284 0.05706 0.21098 0.0
H1462 H 0.24658 0.96398 0.24209 0.0
H1463 H 0.23627 0.94386 0.18855 0.0
C1464 C 0.30055 0.01518 0.31839 0.0
C1465 C 0.30563 0.04674 0.32563 0.0
C1466 C 0.2948 1.00384 0.28755 0.0
C1467 C 0.29438 0.02397 0.26334 0.0
C1468 C 0.29945 0.05548 0.27057 0.0
C1469 C 0.30486 0.06669 0.30139 0.0
C1470 C 0.30229 0.02087 0.17539 0.0
C1471 C 0.27631 0.98891 0.16848 0.0
C1472 C 0.30811 0.03239 0.20621 0.0
C1473 C 0.28831 0.012 0.23066 0.0
C1474 C 0.26243 0.98008 0.22374 0.0
C1475 C 0.2564 0.9687 0.193 0.0
loop_
_geom_bond_atom_site_label_1
_geom_bond_atom_site_label_2
_geom_bond_distance
_geom_bond_site_symmetry_2
_ccdc_geom_bond_type
Fe0 O2 1.918 . S
Fe0 O5 1.997 . S
Fe0 O6 2.002 . S
Fe0 O11 1.976 . S
Fe0 O14 1.996 . S
Fe1 O2 1.918 . S
Fe1 O9 1.997 . S
Fe1 O12 1.996 . S
Fe1 O16 1.976 1_455 S
Fe1 O19 2.002 1_455 S
O2 Fe0 1.918 . S
O2 Fe1 1.918 . S
O2 Fe3 1.918 1_455 S
Fe3 O2 1.918 1_655 S
Fe3 O4 2.002 . S
Fe3 O13 1.976 1_655 S
Fe3 O17 1.996 . S
Fe3 O20 1.997 . S
O4 Fe3 2.002 . S
O4 C21 1.295 . S
O5 Fe0 1.997 . S
O5 C21 1.235 1_455 S
O6 Fe0 2.002 . S
O6 C7 1.295 . S
C7 O6 1.295 . S
C7 O9 1.235 . S
C8 O13 1.287 . S
C8 O14 1.255 . S
O9 Fe1 1.997 . S
O9 C7 1.235 . S
C10 O16 1.287 . S
C10 O17 1.255 . S
O11 Fe0 1.976 . S
O11 C18 1.287 . S
O12 Fe1 1.996 . S
O12 C18 1.255 . S
O13 Fe3 1.976 1_455 S
O13 C8 1.287 . S
O14 Fe0 1.996 . S
O14 C8 1.255 . S
C15 O19 1.295 . S
C15 O20 1.235 . S
O16 Fe1 1.976 1_655 S
O16 C10 1.287 . S
O17 Fe3 1.996 . S
O17 C10 1.255 . S
C18 O11 1.287 . S
C18 O12 1.255 . S
O19 Fe1 2.002 1_655 S
O19 C15 1.295 . S
O20 Fe3 1.997 . S
O20 C15 1.235 . S
C21 O4 1.295 . S
C21 O5 1.235 1_655 S
Fe22 O24 1.918 . S
Fe22 O27 1.997 . S
Fe22 O28 2.002 . S
Fe22 O33 1.976 . S
Fe22 O36 1.996 . S
Fe23 O24 1.918 . S
Fe23 O31 1.997 . S
Fe23 O34 1.996 . S
Fe23 O38 1.976 . S
Fe23 O41 2.002 . S
O24 Fe22 1.918 . S
O24 Fe23 1.918 . S
O24 Fe25 1.918 . S
Fe25 O24 1.918 . S
Fe25 O26 2.002 . S
Fe25 O35 1.976 . S
Fe25 O39 1.996 . S
Fe25 O42 1.997 . S
O26 Fe25 2.002 . S
O26 C43 1.295 . S
O27 Fe22 1.997 . S
O27 C43 1.235 . S
O28 Fe22 2.002 . S
O28 C29 1.295 . S
C29 O28 1.295 . S
C29 O31 1.235 . S
C30 O35 1.287 . S
C30 O36 1.255 . S
O31 Fe23 1.997 . S
O31 C29 1.235 . S
C32 O38 1.287 . S
C32 O39 1.255 . S
O33 Fe22 1.976 . S
O33 C40 1.287 . S
O34 Fe23 1.996 . S
O34 C40 1.255 . S
O35 Fe25 1.976 . S
O35 C30 1.287 . S
O36 Fe22 1.996 . S
O36 C30 1.255 . S
C37 O41 1.295 . S
C37 O42 1.235 . S
O38 Fe23 1.976 . S
O38 C32 1.287 . S
O39 Fe25 1.996 . S
O39 C32 1.255 . S
C40 O33 1.287 . S
C40 O34 1.255 . S
O41 Fe23 2.002 . S
O41 C37 1.295 . S
O42 Fe25 1.997 . S
O42 C37 1.235 . S
C43 O26 1.295 . S
C43 O27 1.235 . S
Fe44 O46 1.918 . S
Fe44 O49 1.997 . S
Fe44 O50 2.002 . S
Fe44 O55 1.976 . S
Fe44 O58 1.996 . S
Fe45 O46 1.918 1_565 S
Fe45 O53 2.007 . S
Fe45 O56 1.996 . S
Fe45 O60 1.976 . S
Fe45 O63 2.002 . S
O46 Fe44 1.918 . S
O46 Fe45 1.918 1_545 S
O46 Fe47 1.918 . S
Fe47 O46 1.918 . S
Fe47 O48 2.002 . S
Fe47 O57 1.976 . S
Fe47 O61 1.996 1_545 S
Fe47 O64 1.997 1_545 S
O48 Fe47 2.002 . S
O48 C65 1.295 . S
O49 Fe44 1.997 . S
O49 C65 1.235 . S
O50 Fe44 2.002 . S
O50 C51 1.295 . S
C51 O50 1.295 . S
C51 O53 1.223 1_545 S
C52 O57 1.287 . S
C52 O58 1.255 . S
O53 Fe45 2.007 . S
O53 C51 1.223 1_565 S
C54 O60 1.287 . S
C54 O61 1.255 . S
O55 Fe44 1.976 . S
O55 C62 1.287 1_545 S
O56 Fe45 1.996 . S
O56 C62 1.255 . S
O57 Fe47 1.976 . S
O57 C52 1.287 . S
O58 Fe44 1.996 . S
O58 C52 1.255 . S
C59 O63 1.295 . S
C59 O64 1.235 . S
O60 Fe45 1.976 . S
O60 C54 1.287 . S
O61 Fe47 1.996 1_565 S
O61 C54 1.255 . S
C62 O55 1.287 1_565 S
C62 O56 1.255 . S
O63 Fe45 2.002 . S
O63 C59 1.295 . S
O64 Fe47 1.997 1_565 S
O64 C59 1.235 . S
C65 O48 1.295 . S
C65 O49 1.235 . S
Fe66 O68 1.918 . S
Fe66 O71 1.997 . S
Fe66 O72 2.002 . S
Fe66 O77 1.976 . S
Fe66 O80 1.996 . S
Fe67 O68 1.918 1_655 S
Fe67 O75 1.992 1_655 S
Fe67 O78 1.996 . S
Fe67 O82 1.976 . S
Fe67 O85 2.002 . S
O68 Fe66 1.918 . S
O68 Fe67 1.918 1_455 S
O68 Fe69 1.918 . S
Fe69 O68 1.918 . S
Fe69 O70 2.002 . S
Fe69 O79 1.976 . S
Fe69 O83 1.996 1_455 S
Fe69 O86 1.997 1_455 S
O70 Fe69 2.002 . S
O70 C87 1.295 . S
O71 Fe66 1.997 . S
O71 C87 1.235 . S
O72 Fe66 2.002 . S
O72 C73 1.295 . S
C73 O72 1.295 . S
C73 O75 1.254 . S
C74 O79 1.287 . S
C74 O80 1.255 . S
O75 Fe67 1.992 1_455 S
O75 C73 1.254 . S
C76 O82 1.287 . S
C76 O83 1.255 . S
O77 Fe66 1.976 . S
O77 C84 1.287 1_455 S
O78 Fe67 1.996 . S
O78 C84 1.255 . S
O79 Fe69 1.976 . S
O79 C74 1.287 . S
O80 Fe66 1.996 . S
O80 C74 1.255 . S
C81 O85 1.295 . S
C81 O86 1.235 . S
O82 Fe67 1.976 . S
O82 C76 1.287 . S
O83 Fe69 1.996 1_655 S
O83 C76 1.255 . S
C84 O77 1.287 1_655 S
C84 O78 1.255 . S
O85 Fe67 2.002 . S
O85 C81 1.295 . S
O86 Fe69 1.997 1_655 S
O86 C81 1.235 . S
C87 O70 1.295 . S
C87 O71 1.235 . S
Fe88 O90 1.918 . S
Fe88 O93 1.997 . S
Fe88 O94 2.002 . S
Fe88 O99 1.976 . S
Fe88 O102 1.996 . S
Fe89 O90 1.918 . S
Fe89 O97 1.997 . S
Fe89 O100 1.996 . S
Fe89 O104 1.976 . S
Fe89 O107 2.002 . S
O90 Fe88 1.918 . S
O90 Fe89 1.918 . S
O90 Fe91 1.918 . S
Fe91 O90 1.918 . S
Fe91 O92 2.002 . S
Fe91 O101 1.976 . S
Fe91 O105 1.996 . S
Fe91 O108 1.997 . S
O92 Fe91 2.002 . S
O92 C109 1.295 . S
O93 Fe88 1.997 . S
O93 C109 1.235 . S
O94 Fe88 2.002 . S
O94 C95 1.295 . S
C95 O94 1.295 . S
C95 O97 1.235 . S
C96 O101 1.287 . S
C96 O102 1.255 . S
O97 Fe89 1.997 . S
O97 C95 1.235 . S
C98 O104 1.287 . S
C98 O105 1.255 . S
O99 Fe88 1.976 . S
O99 C106 1.287 . S
O100 Fe89 1.996 . S
O100 C106 1.255 . S
O101 Fe91 1.976 . S
O101 C96 1.287 . S
O102 Fe88 1.996 . S
O102 C96 1.255 . S
C103 O107 1.295 . S
C103 O108 1.235 . S
O104 Fe89 1.976 . S
O104 C98 1.287 . S
O105 Fe91 1.996 . S
O105 C98 1.255 . S
C106 O99 1.287 . S
C106 O100 1.255 . S
O107 Fe89 2.002 . S
O107 C103 1.295 . S
O108 Fe91 1.997 . S
O108 C103 1.235 . S
C109 O92 1.295 . S
C109 O93 1.235 . S
Fe110 O112 1.918 . S
Fe110 O115 1.997 . S
Fe110 O116 2.002 . S
Fe110 O121 1.976 . S
Fe110 O124 1.996 . S
Fe111 O112 1.918 . S
Fe111 O119 1.997 . S
Fe111 O122 1.996 . S
Fe111 O126 1.976 1_545 S
Fe111 O129 2.002 1_545 S
O112 Fe110 1.918 . S
O112 Fe111 1.918 . S
O112 Fe113 1.918 1_545 S
Fe113 O112 1.918 1_565 S
Fe113 O114 2.002 . S
Fe113 O123 1.971 1_565 S
Fe113 O127 1.996 . S
Fe113 O130 1.997 . S
O114 Fe113 2.002 . S
O114 C131 1.295 . S
O115 Fe110 1.997 . S
O115 C131 1.235 1_545 S
O116 Fe110 2.002 . S
O116 C117 1.295 . S
C117 O116 1.295 . S
C117 O119 1.235 . S
C118 O123 1.307 . S
C118 O124 1.255 . S
O119 Fe111 1.997 . S
O119 C117 1.235 . S
C120 O126 1.287 . S
C120 O127 1.255 . S
O121 Fe110 1.976 . S
O121 C128 1.287 . S
O122 Fe111 1.996 . S
O122 C128 1.255 . S
O123 Fe113 1.971 1_545 S
O123 C118 1.307 . S
O124 Fe110 1.996 . S
O124 C118 1.255 . S
C125 O129 1.295 . S
C125 O130 1.235 . S
O126 Fe111 1.976 1_565 S
O126 C120 1.287 . S
O127 Fe113 1.996 . S
O127 C120 1.255 . S
C128 O121 1.287 . S
C128 O122 1.255 . S
O129 Fe111 2.002 1_565 S
O129 C125 1.295 . S
O130 Fe113 1.997 . S
O130 C125 1.235 . S
C131 O114 1.295 . S
C131 O115 1.235 1_565 S
Fe132 O134 1.918 . S
Fe132 O137 1.997 . S
Fe132 O138 2.002 . S
Fe132 O143 1.976 . S
Fe132 O146 1.996 . S
Fe133 O134 1.918 . S
Fe133 O141 1.997 . S
Fe133 O144 1.996 1_565 S
Fe133 O148 1.976 . S
Fe133 O151 2.002 . S
O134 Fe132 1.918 . S
O134 Fe133 1.918 . S
O134 Fe135 1.918 . S
Fe135 O134 1.918 . S
Fe135 O136 2.002 . S
Fe135 O145 1.976 . S
Fe135 O149 1.996 . S
Fe135 O152 1.997 . S
O136 Fe135 2.002 . S
O136 C153 1.295 . S
O137 Fe132 1.997 . S
O137 C153 1.235 . S
O138 Fe132 2.002 . S
O138 C139 1.295 . S
C139 O138 1.295 . S
C139 O141 1.235 . S
C140 O145 1.287 . S
C140 O146 1.255 . S
O141 Fe133 1.997 . S
O141 C139 1.235 . S
C142 O148 1.287 . S
C142 O149 1.255 . S
O143 Fe132 1.976 . S
O143 C150 1.287 . S
O144 Fe133 1.996 1_545 S
O144 C150 1.255 1_545 S
O145 Fe135 1.976 . S
O145 C140 1.287 . S
O146 Fe132 1.996 . S
O146 C140 1.255 . S
C147 O151 1.295 . S
C147 O152 1.235 . S
O148 Fe133 1.976 . S
O148 C142 1.287 . S
O149 Fe135 1.996 . S
O149 C142 1.255 . S
C150 O143 1.287 . S
C150 O144 1.255 1_565 S
O151 Fe133 2.002 . S
O151 C147 1.295 . S
O152 Fe135 1.997 . S
O152 C147 1.235 . S
C153 O136 1.295 . S
C153 O137 1.235 . S
Fe154 O156 1.918 . S
Fe154 O159 1.997 . S
Fe154 O160 2.002 . S
Fe154 O165 1.976 . S
Fe154 O168 1.996 . S
Fe155 O156 1.918 . S
Fe155 O163 1.997 . S
Fe155 O166 1.996 . S
Fe155 O170 1.976 . S
Fe155 O173 2.002 . S
O156 Fe154 1.918 . S
O156 Fe155 1.918 . S
O156 Fe157 1.918 . S
Fe157 O156 1.918 . S
Fe157 O158 2.002 . S
Fe157 O167 1.976 . S
Fe157 O171 1.996 . S
Fe157 O174 1.997 . S
O158 Fe157 2.002 . S
O158 C175 1.295 . S
O159 Fe154 1.997 . S
O159 C175 1.235 . S
O160 Fe154 2.002 . S
O160 C161 1.295 . S
C161 O160 1.295 . S
C161 O163 1.235 . S
C162 O167 1.287 . S
C162 O168 1.255 . S
O163 Fe155 1.997 . S
O163 C161 1.235 . S
C164 O170 1.287 . S
C164 O171 1.255 . S
O165 Fe154 1.976 . S
O165 C172 1.287 . S
O166 Fe155 1.996 . S
O166 C172 1.255 . S
O167 Fe157 1.976 . S
O167 C162 1.287 . S
O168 Fe154 1.996 . S
O168 C162 1.255 . S
C169 O173 1.295 . S
C169 O174 1.235 . S
O170 Fe155 1.976 . S
O170 C164 1.287 . S
O171 Fe157 1.996 . S
O171 C164 1.255 . S
C172 O165 1.287 . S
C172 O166 1.255 . S
O173 Fe155 2.002 . S
O173 C169 1.295 . S
O174 Fe157 1.997 . S
O174 C169 1.235 . S
C175 O158 1.295 . S
C175 O159 1.235 . S
Fe176 O178 1.918 . S
Fe176 O181 1.997 . S
Fe176 O182 2.002 . S
Fe176 O187 1.976 . S
Fe176 O190 1.996 . S
Fe177 O178 1.918 . S
Fe177 O185 1.997 . S
Fe177 O188 1.996 . S
Fe177 O192 1.976 . S
Fe177 O195 2.002 . S
O178 Fe176 1.918 . S
O178 Fe177 1.918 . S
O178 Fe179 1.918 . S
Fe179 O178 1.918 . S
Fe179 O180 2.002 . S
Fe179 O189 1.976 . S
Fe179 O193 1.996 . S
Fe179 O196 1.997 . S
O180 Fe179 2.002 . S
O180 C197 1.295 . S
O181 Fe176 1.997 . S
O181 C197 1.235 . S
O182 Fe176 2.002 . S
O182 C183 1.295 . S
C183 O182 1.295 . S
C183 O185 1.235 . S
C184 O189 1.287 . S
C184 O190 1.255 . S
O185 Fe177 1.997 . S
O185 C183 1.235 . S
C186 O192 1.287 . S
C186 O193 1.255 . S
O187 Fe176 1.976 . S
O187 C194 1.287 . S
O188 Fe177 1.996 . S
O188 C194 1.255 . S
O189 Fe179 1.976 . S
O189 C184 1.287 . S
O190 Fe176 1.996 . S
O190 C184 1.255 . S
C191 O195 1.295 . S
C191 O196 1.235 . S
O192 Fe177 1.976 . S
O192 C186 1.287 . S
O193 Fe179 1.996 . S
O193 C186 1.255 . S
C194 O187 1.287 . S
C194 O188 1.255 . S
O195 Fe177 2.002 . S
O195 C191 1.295 . S
O196 Fe179 1.997 . S
O196 C191 1.235 . S
C197 O180 1.295 . S
C197 O181 1.235 . S
Fe198 O200 1.918 . S
Fe198 O203 1.997 . S
Fe198 O204 2.002 . S
Fe198 O209 1.976 . S
Fe198 O212 1.996 . S
Fe199 O200 1.918 . S
Fe199 O207 1.997 . S
Fe199 O210 1.996 . S
Fe199 O214 1.976 . S
Fe199 O217 2.002 . S
O200 Fe198 1.918 . S
O200 Fe199 1.918 . S
O200 Fe201 1.918 . S
Fe201 O200 1.918 . S
Fe201 O202 2.002 . S
Fe201 O211 1.976 . S
Fe201 O215 1.996 . S
Fe201 O218 1.997 . S
O202 Fe201 2.002 . S
O202 C219 1.295 . S
O203 Fe198 1.997 . S
O203 C219 1.235 . S
O204 Fe198 2.002 . S
O204 C205 1.295 . S
C205 O204 1.295 . S
C205 O207 1.235 . S
C206 O211 1.287 . S
C206 O212 1.255 . S
O207 Fe199 1.997 . S
O207 C205 1.235 . S
C208 O214 1.287 . S
C208 O215 1.255 . S
O209 Fe198 1.976 . S
O209 C216 1.287 . S
O210 Fe199 1.996 . S
O210 C216 1.255 . S
O211 Fe201 1.976 . S
O211 C206 1.287 . S
O212 Fe198 1.996 . S
O212 C206 1.255 . S
C213 O217 1.295 . S
C213 O218 1.235 . S
O214 Fe199 1.976 . S
O214 C208 1.287 . S
O215 Fe201 1.996 . S
O215 C208 1.255 . S
C216 O209 1.287 . S
C216 O210 1.255 . S
O217 Fe199 2.002 . S
O217 C213 1.295 . S
O218 Fe201 1.997 . S
O218 C213 1.235 . S
C219 O202 1.295 . S
C219 O203 1.235 . S
Fe220 O222 1.918 . S
Fe220 O225 1.997 . S
Fe220 O226 2.002 . S
Fe220 O231 1.976 . S
Fe220 O234 1.996 . S
Fe221 O222 1.918 . S
Fe221 O229 1.997 . S
Fe221 O232 1.996 . S
Fe221 O236 1.976 . S
Fe221 O239 2.002 . S
O222 Fe220 1.918 . S
O222 Fe221 1.918 . S
O222 Fe223 1.918 . S
Fe223 O222 1.918 . S
Fe223 O224 2.002 . S
Fe223 O233 1.976 . S
Fe223 O237 1.996 1_565 S
Fe223 O240 1.997 . S
O224 Fe223 2.002 . S
O224 C241 1.295 . S
O225 Fe220 1.997 . S
O225 C241 1.235 . S
O226 Fe220 2.002 . S
O226 C227 1.295 . S
C227 O226 1.295 . S
C227 O229 1.235 . S
C228 O233 1.287 . S
C228 O234 1.255 . S
O229 Fe221 1.997 . S
O229 C227 1.235 . S
C230 O236 1.287 . S
C230 O237 1.255 1_565 S
O231 Fe220 1.976 . S
O231 C238 1.287 . S
O232 Fe221 1.996 . S
O232 C238 1.255 . S
O233 Fe223 1.976 . S
O233 C228 1.287 . S
O234 Fe220 1.996 . S
O234 C228 1.255 . S
C235 O239 1.295 . S
C235 O240 1.235 . S
O236 Fe221 1.976 . S
O236 C230 1.287 . S
O237 Fe223 1.996 1_545 S
O237 C230 1.255 1_545 S
C238 O231 1.287 . S
C238 O232 1.255 . S
O239 Fe221 2.002 . S
O239 C235 1.295 . S
O240 Fe223 1.997 . S
O240 C235 1.235 . S
C241 O224 1.295 . S
C241 O225 1.235 . S
Fe242 O244 1.918 . S
Fe242 O247 1.997 . S
Fe242 O248 2.002 . S
Fe242 O253 1.976 . S
Fe242 O256 1.996 . S
Fe243 O244 1.918 . S
Fe243 O251 1.997 . S
Fe243 O254 1.996 . S
Fe243 O258 1.976 . S
Fe243 O261 2.002 . S
O244 Fe242 1.918 . S
O244 Fe243 1.918 . S
O244 Fe245 1.918 . S
Fe245 O244 1.918 . S
Fe245 O246 2.002 . S
Fe245 O255 1.976 . S
Fe245 O259 1.996 . S
Fe245 O262 1.997 . S
O246 Fe245 2.002 . S
O246 C263 1.295 . S
O247 Fe242 1.997 . S
O247 C263 1.235 . S
O248 Fe242 2.002 . S
O248 C249 1.295 . S
C249 O248 1.295 . S
C249 O251 1.235 . S
C250 O255 1.287 . S
C250 O256 1.255 . S
O251 Fe243 1.997 . S
O251 C249 1.235 . S
C252 O258 1.287 . S
C252 O259 1.255 . S
O253 Fe242 1.976 . S
O253 C260 1.287 . S
O254 Fe243 1.996 . S
O254 C260 1.255 . S
O255 Fe245 1.976 . S
O255 C250 1.287 . S
O256 Fe242 1.996 . S
O256 C250 1.255 . S
C257 O261 1.295 . S
C257 O262 1.235 . S
O258 Fe243 1.976 . S
O258 C252 1.287 . S
O259 Fe245 1.996 . S
O259 C252 1.255 . S
C260 O253 1.287 . S
C260 O254 1.255 . S
O261 Fe243 2.002 . S
O261 C257 1.295 . S
O262 Fe245 1.997 . S
O262 C257 1.235 . S
C263 O246 1.295 . S
C263 O247 1.235 . S
Fe264 O266 1.918 . S
Fe264 O269 1.997 . S
Fe264 O270 2.002 . S
Fe264 O275 1.976 . S
Fe264 O278 1.996 . S
Fe265 O266 1.918 . S
Fe265 O273 1.997 . S
Fe265 O276 1.996 . S
Fe265 O280 1.976 . S
Fe265 O283 2.002 . S
O266 Fe264 1.918 . S
O266 Fe265 1.918 . S
O266 Fe267 1.918 . S
Fe267 O266 1.918 . S
Fe267 O268 2.002 . S
Fe267 O277 1.976 . S
Fe267 O281 1.996 . S
Fe267 O284 1.997 . S
O268 Fe267 2.002 . S
O268 C285 1.295 . S
O269 Fe264 1.997 . S
O269 C285 1.235 . S
O270 Fe264 2.002 . S
O270 C271 1.295 . S
C271 O270 1.295 . S
C271 O273 1.235 . S
C272 O277 1.287 . S
C272 O278 1.255 . S
O273 Fe265 1.997 . S
O273 C271 1.235 . S
C274 O280 1.287 . S
C274 O281 1.255 . S
O275 Fe264 1.976 . S
O275 C282 1.287 . S
O276 Fe265 1.996 . S
O276 C282 1.255 . S
O277 Fe267 1.976 . S
O277 C272 1.287 . S
O278 Fe264 1.996 . S
O278 C272 1.255 . S
C279 O283 1.295 . S
C279 O284 1.235 . S
O280 Fe265 1.976 . S
O280 C274 1.287 . S
O281 Fe267 1.996 . S
O281 C274 1.255 . S
C282 O275 1.287 . S
C282 O276 1.255 . S
O283 Fe265 2.002 . S
O283 C279 1.295 . S
O284 Fe267 1.997 . S
O284 C279 1.235 . S
C285 O268 1.295 . S
C285 O269 1.235 . S
Fe286 O288 1.918 . S
Fe286 O291 1.997 . S
Fe286 O292 2.002 . S
Fe286 O297 1.976 . S
Fe286 O300 1.996 . S
Fe287 O288 1.918 . S
Fe287 O295 1.997 . S
Fe287 O298 1.996 . S
Fe287 O302 1.976 . S
Fe287 O305 2.002 . S
O288 Fe286 1.918 . S
O288 Fe287 1.918 . S
O288 Fe289 1.918 . S
Fe289 O288 1.918 . S
Fe289 O290 2.002 . S
Fe289 O299 1.976 . S
Fe289 O303 1.996 . S
Fe289 O306 1.997 . S
O290 Fe289 2.002 . S
O290 C307 1.295 . S
O291 Fe286 1.997 . S
O291 C307 1.235 . S
O292 Fe286 2.002 . S
O292 C293 1.295 . S
C293 O292 1.295 . S
C293 O295 1.235 . S
C294 O299 1.287 . S
C294 O300 1.255 . S
O295 Fe287 1.997 . S
O295 C293 1.235 . S
C296 O302 1.287 . S
C296 O303 1.255 . S
O297 Fe286 1.976 . S
O297 C304 1.287 . S
O298 Fe287 1.996 . S
O298 C304 1.255 . S
O299 Fe289 1.976 . S
O299 C294 1.287 . S
O300 Fe286 1.996 . S
O300 C294 1.255 . S
C301 O305 1.295 . S
C301 O306 1.235 . S
O302 Fe287 1.976 . S
O302 C296 1.287 . S
O303 Fe289 1.996 . S
O303 C296 1.255 . S
C304 O297 1.287 . S
C304 O298 1.255 . S
O305 Fe287 2.002 . S
O305 C301 1.295 . S
O306 Fe289 1.997 . S
O306 C301 1.235 . S
C307 O290 1.295 . S
C307 O291 1.235 . S
Fe308 O310 1.918 . S
Fe308 O313 1.997 . S
Fe308 O314 2.002 . S
Fe308 O319 1.976 . S
Fe308 O322 1.996 . S
Fe309 O310 1.918 . S
Fe309 O317 1.997 . S
Fe309 O320 1.996 . S
Fe309 O324 1.976 . S
Fe309 O327 2.002 . S
O310 Fe308 1.918 . S
O310 Fe309 1.918 . S
O310 Fe311 1.918 . S
Fe311 O310 1.918 . S
Fe311 O312 2.002 . S
Fe311 O321 1.976 . S
Fe311 O325 1.996 . S
Fe311 O328 1.997 . S
O312 Fe311 2.002 . S
O312 C329 1.295 . S
O313 Fe308 1.997 . S
O313 C329 1.235 . S
O314 Fe308 2.002 . S
O314 C315 1.295 . S
C315 O314 1.295 . S
C315 O317 1.235 . S
C316 O321 1.287 . S
C316 O322 1.255 . S
O317 Fe309 1.997 . S
O317 C315 1.235 . S
C318 O324 1.287 . S
C318 O325 1.255 . S
O319 Fe308 1.976 . S
O319 C326 1.287 . S
O320 Fe309 1.996 . S
O320 C326 1.255 . S
O321 Fe311 1.976 . S
O321 C316 1.287 . S
O322 Fe308 1.996 . S
O322 C316 1.255 . S
C323 O327 1.295 . S
C323 O328 1.235 . S
O324 Fe309 1.976 . S
O324 C318 1.287 . S
O325 Fe311 1.996 . S
O325 C318 1.255 . S
C326 O319 1.287 . S
C326 O320 1.255 . S
O327 Fe309 2.002 . S
O327 C323 1.295 . S
O328 Fe311 1.997 . S
O328 C323 1.235 . S
C329 O312 1.295 . S
C329 O313 1.235 . S
Fe330 O332 1.918 . S
Fe330 O335 1.997 . S
Fe330 O336 2.002 . S
Fe330 O341 1.976 . S
Fe330 O344 1.996 . S
Fe331 O332 1.918 . S
Fe331 O339 1.997 . S
Fe331 O342 1.996 . S
Fe331 O346 1.976 . S
Fe331 O349 2.002 . S
O332 Fe330 1.918 . S
O332 Fe331 1.918 . S
O332 Fe333 1.918 . S
Fe333 O332 1.918 . S
Fe333 O334 2.002 . S
Fe333 O343 1.976 . S
Fe333 O347 1.996 . S
Fe333 O350 1.997 . S
O334 Fe333 2.002 . S
O334 C351 1.295 . S
O335 Fe330 1.997 . S
O335 C351 1.235 . S
O336 Fe330 2.002 . S
O336 C337 1.295 . S
C337 O336 1.295 . S
C337 O339 1.235 . S
C338 O343 1.287 . S
C338 O344 1.255 . S
O339 Fe331 1.997 . S
O339 C337 1.235 . S
C340 O346 1.287 . S
C340 O347 1.255 . S
O341 Fe330 1.976 . S
O341 C348 1.287 . S
O342 Fe331 1.996 . S
O342 C348 1.255 . S
O343 Fe333 1.976 . S
O343 C338 1.287 . S
O344 Fe330 1.996 . S
O344 C338 1.255 . S
C345 O349 1.295 . S
C345 O350 1.235 . S
O346 Fe331 1.976 . S
O346 C340 1.287 . S
O347 Fe333 1.996 . S
O347 C340 1.255 . S
C348 O341 1.287 . S
C348 O342 1.255 . S
O349 Fe331 2.002 . S
O349 C345 1.295 . S
O350 Fe333 1.997 . S
O350 C345 1.235 . S
C351 O334 1.295 . S
C351 O335 1.235 . S
Fe352 O354 1.918 . S
Fe352 O357 1.997 . S
Fe352 O358 2.002 . S
Fe352 O363 1.976 . S
Fe352 O366 1.996 . S
Fe353 O354 1.918 . S
Fe353 O361 1.997 . S
Fe353 O364 1.996 . S
Fe353 O368 1.976 . S
Fe353 O371 2.002 . S
O354 Fe352 1.918 . S
O354 Fe353 1.918 . S
O354 Fe355 1.918 . S
Fe355 O354 1.918 . S
Fe355 O356 2.002 . S
Fe355 O365 1.976 . S
Fe355 O369 1.996 . S
Fe355 O372 1.997 . S
O356 Fe355 2.002 . S
O356 C373 1.295 . S
O357 Fe352 1.997 . S
O357 C373 1.235 . S
O358 Fe352 2.002 . S
O358 C359 1.295 . S
C359 O358 1.295 . S
C359 O361 1.235 . S
C360 O365 1.287 . S
C360 O366 1.255 . S
O361 Fe353 1.997 . S
O361 C359 1.235 . S
C362 O368 1.287 . S
C362 O369 1.255 . S
O363 Fe352 1.976 . S
O363 C370 1.287 . S
O364 Fe353 1.996 . S
O364 C370 1.255 . S
O365 Fe355 1.976 . S
O365 C360 1.287 . S
O366 Fe352 1.996 . S
O366 C360 1.255 . S
C367 O371 1.295 . S
C367 O372 1.235 . S
O368 Fe353 1.976 . S
O368 C362 1.287 . S
O369 Fe355 1.996 . S
O369 C362 1.255 . S
C370 O363 1.287 . S
C370 O364 1.255 . S
O371 Fe353 2.002 . S
O371 C367 1.295 . S
O372 Fe355 1.997 . S
O372 C367 1.235 . S
C373 O356 1.295 . S
C373 O357 1.235 . S
Fe374 O376 1.918 . S
Fe374 O379 1.997 . S
Fe374 O380 2.002 . S
Fe374 O385 1.976 . S
Fe374 O388 1.996 . S
Fe375 O376 1.918 . S
Fe375 O383 1.997 . S
Fe375 O386 1.996 . S
Fe375 O390 1.976 . S
Fe375 O393 2.002 . S
O376 Fe374 1.918 . S
O376 Fe375 1.918 . S
O376 Fe377 1.918 . S
Fe377 O376 1.918 . S
Fe377 O378 2.002 . S
Fe377 O387 1.976 . S
Fe377 O391 1.996 . S
Fe377 O394 1.997 . S
O378 Fe377 2.002 . S
O378 C395 1.295 . S
O379 Fe374 1.997 . S
O379 C395 1.235 . S
O380 Fe374 2.002 . S
O380 C381 1.295 . S
C381 O380 1.295 . S
C381 O383 1.235 . S
C382 O387 1.287 . S
C382 O388 1.255 . S
O383 Fe375 1.997 . S
O383 C381 1.235 . S
C384 O390 1.287 . S
C384 O391 1.255 . S
O385 Fe374 1.976 . S
O385 C392 1.287 . S
O386 Fe375 1.996 . S
O386 C392 1.255 . S
O387 Fe377 1.976 . S
O387 C382 1.287 . S
O388 Fe374 1.996 . S
O388 C382 1.255 . S
C389 O393 1.295 . S
C389 O394 1.235 . S
O390 Fe375 1.976 . S
O390 C384 1.287 . S
O391 Fe377 1.996 . S
O391 C384 1.255 . S
C392 O385 1.287 . S
C392 O386 1.255 . S
O393 Fe375 2.002 . S
O393 C389 1.295 . S
O394 Fe377 1.997 . S
O394 C389 1.235 . S
C395 O378 1.295 . S
C395 O379 1.235 . S
H396 C404 0.950 . S
H397 C409 0.950 . S
H398 C406 0.950 . S
H399 C408 0.950 . S
H400 C410 0.950 . S
H401 C412 0.950 . S
H402 C414 0.950 . S
H403 C415 0.950 . S
C404 H396 0.950 . S
C404 C405 1.386 . S
C404 C406 1.391 . S
C405 C404 1.386 . S
C405 C409 1.393 . S
C406 H398 0.950 . S
C406 C404 1.391 . S
C406 C407 1.400 . S
C407 C406 1.400 . S
C407 C408 1.398 . S
C407 C413 1.491 . S
C408 H399 0.950 . S
C408 C407 1.398 . S
C408 C409 1.391 . S
C409 H397 0.950 . S
C409 C405 1.393 . S
C409 C408 1.391 . S
C410 H400 0.950 . S
C410 C411 1.386 . S
C410 C412 1.391 . S
C411 C410 1.386 . S
C411 C415 1.393 . S
C412 H401 0.950 . S
C412 C410 1.391 . S
C412 C413 1.400 . S
C413 C407 1.491 . S
C413 C412 1.400 . S
C413 C414 1.398 . S
C414 H402 0.950 . S
C414 C413 1.398 . S
C414 C415 1.391 . S
C415 H403 0.950 . S
C415 C411 1.393 . S
C415 C414 1.391 . S
H416 C424 0.950 . S
H417 C429 0.950 . S
H418 C426 0.950 . S
H419 C428 0.950 . S
H420 C430 0.950 . S
H421 C432 0.950 . S
H422 C434 0.950 . S
H423 C435 0.950 . S
C424 H416 0.950 . S
C424 C425 1.386 . S
C424 C426 1.391 . S
C425 C424 1.386 . S
C425 C429 1.393 . S
C426 H418 0.950 . S
C426 C424 1.391 . S
C426 C427 1.400 . S
C427 C426 1.400 . S
C427 C428 1.398 . S
C427 C433 1.491 . S
C428 H419 0.950 . S
C428 C427 1.398 . S
C428 C429 1.391 . S
C429 H417 0.950 . S
C429 C425 1.393 . S
C429 C428 1.391 . S
C430 H420 0.950 . S
C430 C431 1.386 . S
C430 C432 1.391 . S
C431 C430 1.386 . S
C431 C435 1.393 . S
C432 H421 0.950 . S
C432 C430 1.391 . S
C432 C433 1.400 . S
C433 C427 1.491 . S
C433 C432 1.400 . S
C433 C434 1.398 . S
C434 H422 0.950 . S
C434 C433 1.398 . S
C434 C435 1.391 . S
C435 H423 0.950 . S
C435 C431 1.393 . S
C435 C434 1.391 . S
H436 C444 0.950 . S
H437 C449 0.950 . S
H438 C446 0.950 1_545 S
H439 C448 0.950 . S
H440 C450 0.950 . S
H441 C452 0.950 . S
H442 C454 0.950 . S
H443 C455 0.950 . S
C444 H436 0.950 . S
C444 C445 1.386 1_545 S
C444 C446 1.391 1_545 S
C445 C444 1.386 1_565 S
C445 C449 1.393 . S
C446 H438 0.950 1_565 S
C446 C444 1.391 1_565 S
C446 C447 1.400 . S
C447 C446 1.400 . S
C447 C448 1.398 . S
C447 C453 1.491 . S
C448 H439 0.950 . S
C448 C447 1.398 . S
C448 C449 1.391 . S
C449 H437 0.950 . S
C449 C445 1.393 . S
C449 C448 1.391 . S
C450 H440 0.950 . S
C450 C451 1.386 . S
C450 C452 1.391 . S
C451 C450 1.386 . S
C451 C455 1.393 . S
C452 H441 0.950 . S
C452 C450 1.391 . S
C452 C453 1.400 . S
C453 C447 1.491 . S
C453 C452 1.400 . S
C453 C454 1.398 . S
C454 H442 0.950 . S
C454 C453 1.398 . S
C454 C455 1.391 . S
C455 H443 0.950 . S
C455 C451 1.393 . S
C455 C454 1.391 . S
H456 C464 0.950 . S
H457 C469 0.950 . S
H458 C466 0.950 . S
H459 C468 0.950 . S
H460 C470 0.950 . S
H461 C472 0.950 . S
H462 C474 0.950 . S
H463 C475 0.950 . S
C464 H456 0.950 . S
C464 C465 1.386 . S
C464 C466 1.391 . S
C465 C464 1.386 . S
C465 C469 1.393 . S
C466 H458 0.950 . S
C466 C464 1.391 . S
C466 C467 1.400 . S
C467 C466 1.400 . S
C467 C468 1.398 . S
C467 C473 1.491 . S
C468 H459 0.950 . S
C468 C467 1.398 . S
C468 C469 1.391 . S
C469 H457 0.950 . S
C469 C465 1.393 . S
C469 C468 1.391 . S
C470 H460 0.950 . S
C470 C471 1.386 . S
C470 C472 1.391 . S
C471 C470 1.386 . S
C471 C475 1.393 . S
C472 H461 0.950 . S
C472 C470 1.391 . S
C472 C473 1.400 . S
C473 C467 1.491 . S
C473 C472 1.400 . S
C473 C474 1.398 . S
C474 H462 0.950 . S
C474 C473 1.398 . S
C474 C475 1.391 . S
C475 H463 0.950 . S
C475 C471 1.393 . S
C475 C474 1.391 . S
H476 C484 0.950 . S
H477 C489 0.950 . S
H478 C486 0.950 . S
H479 C488 0.950 . S
H480 C490 0.950 . S
H481 C492 0.950 . S
H482 C494 0.950 . S
H483 C495 0.950 . S
C484 H476 0.950 . S
C484 C485 1.386 . S
C484 C486 1.391 . S
C485 C484 1.386 . S
C485 C489 1.393 . S
C486 H478 0.950 . S
C486 C484 1.391 . S
C486 C487 1.400 . S
C487 C486 1.400 . S
C487 C488 1.398 . S
C487 C493 1.491 . S
C488 H479 0.950 . S
C488 C487 1.398 . S
C488 C489 1.391 . S
C489 H477 0.950 . S
C489 C485 1.393 . S
C489 C488 1.391 . S
C490 H480 0.950 . S
C490 C491 1.386 . S
C490 C492 1.391 . S
C491 C490 1.386 . S
C491 C495 1.393 . S
C492 H481 0.950 . S
C492 C490 1.391 . S
C492 C493 1.400 . S
C493 C487 1.491 . S
C493 C492 1.400 . S
C493 C494 1.398 . S
C494 H482 0.950 . S
C494 C493 1.398 . S
C494 C495 1.391 . S
C495 H483 0.950 . S
C495 C491 1.393 . S
C495 C494 1.391 . S
H496 C504 0.950 . S
H497 C509 0.950 . S
H498 C506 0.950 . S
H499 C508 0.950 . S
H500 C510 0.950 . S
H501 C512 0.950 . S
H502 C514 0.950 . S
H503 C515 0.950 . S
C504 H496 0.950 . S
C504 C505 1.386 . S
C504 C506 1.391 . S
C505 C504 1.386 . S
C505 C509 1.393 . S
C506 H498 0.950 . S
C506 C504 1.391 . S
C506 C507 1.400 . S
C507 C506 1.400 . S
C507 C508 1.398 . S
C507 C513 1.491 . S
C508 H499 0.950 . S
C508 C507 1.398 . S
C508 C509 1.391 . S
C509 H497 0.950 . S
C509 C505 1.393 . S
C509 C508 1.391 . S
C510 H500 0.950 . S
C510 C511 1.386 . S
C510 C512 1.391 . S
C511 C510 1.386 . S
C511 C515 1.393 . S
C512 H501 0.950 . S
C512 C510 1.391 . S
C512 C513 1.400 . S
C513 C507 1.491 . S
C513 C512 1.400 . S
C513 C514 1.398 . S
C514 H502 0.950 . S
C514 C513 1.398 . S
C514 C515 1.391 . S
C515 H503 0.950 . S
C515 C511 1.393 . S
C515 C514 1.391 . S
H516 C524 0.950 . S
H517 C529 0.950 . S
H518 C526 0.950 . S
H519 C528 0.950 . S
H520 C530 0.950 . S
H521 C532 0.950 1_455 S
H522 C534 0.950 . S
H523 C535 0.950 . S
C524 H516 0.950 . S
C524 C525 1.386 . S
C524 C526 1.391 . S
C525 C524 1.386 . S
C525 C529 1.393 . S
C526 H518 0.950 . S
C526 C524 1.391 . S
C526 C527 1.400 . S
C527 C526 1.400 . S
C527 C528 1.398 . S
C527 C533 1.491 . S
C528 H519 0.950 . S
C528 C527 1.398 . S
C528 C529 1.391 . S
C529 H517 0.950 . S
C529 C525 1.393 . S
C529 C528 1.391 . S
C530 H520 0.950 . S
C530 C531 1.386 1_455 S
C530 C532 1.391 1_455 S
C531 C530 1.386 1_655 S
C531 C535 1.393 . S
C532 H521 0.950 1_655 S
C532 C530 1.391 1_655 S
C532 C533 1.400 . S
C533 C527 1.491 . S
C533 C532 1.400 . S
C533 C534 1.398 . S
C534 H522 0.950 . S
C534 C533 1.398 . S
C534 C535 1.391 . S
C535 H523 0.950 . S
C535 C531 1.393 . S
C535 C534 1.391 . S
H536 C544 0.950 . S
H537 C549 0.950 . S
H538 C546 0.950 . S
H539 C548 0.950 . S
H540 C550 0.950 . S
H541 C552 0.950 . S
H542 C554 0.950 . S
H543 C555 0.950 . S
C544 H536 0.950 . S
C544 C545 1.386 . S
C544 C546 1.391 . S
C545 C544 1.386 . S
C545 C549 1.393 . S
C546 H538 0.950 . S
C546 C544 1.391 . S
C546 C547 1.400 . S
C547 C546 1.400 . S
C547 C548 1.398 . S
C547 C553 1.491 . S
C548 H539 0.950 . S
C548 C547 1.398 . S
C548 C549 1.391 . S
C549 H537 0.950 . S
C549 C545 1.393 . S
C549 C548 1.391 . S
C550 H540 0.950 . S
C550 C551 1.386 . S
C550 C552 1.391 . S
C551 C550 1.386 . S
C551 C555 1.393 . S
C552 H541 0.950 . S
C552 C550 1.391 . S
C552 C553 1.400 . S
C553 C547 1.491 . S
C553 C552 1.400 . S
C553 C554 1.398 . S
C554 H542 0.950 . S
C554 C553 1.398 . S
C554 C555 1.391 . S
C555 H543 0.950 . S
C555 C551 1.393 . S
C555 C554 1.391 . S
H556 C564 0.950 . S
H557 C569 0.950 . S
H558 C566 0.950 . S
H559 C568 0.950 . S
H560 C570 0.950 . S
H561 C572 0.950 . S
H562 C574 0.950 . S
H563 C575 0.950 . S
C564 H556 0.950 . S
C564 C565 1.386 . S
C564 C566 1.391 . S
C565 C564 1.386 . S
C565 C569 1.393 . S
C566 H558 0.950 . S
C566 C564 1.391 . S
C566 C567 1.400 . S
C567 C566 1.400 . S
C567 C568 1.398 . S
C567 C573 1.491 . S
C568 H559 0.950 . S
C568 C567 1.398 . S
C568 C569 1.391 . S
C569 H557 0.950 . S
C569 C565 1.393 . S
C569 C568 1.391 . S
C570 H560 0.950 . S
C570 C571 1.386 . S
C570 C572 1.391 . S
C571 C570 1.386 . S
C571 C575 1.393 . S
C572 H561 0.950 . S
C572 C570 1.391 . S
C572 C573 1.400 . S
C573 C567 1.491 . S
C573 C572 1.400 . S
C573 C574 1.398 . S
C574 H562 0.950 . S
C574 C573 1.398 . S
C574 C575 1.391 . S
C575 H563 0.950 . S
C575 C571 1.393 . S
C575 C574 1.391 . S
H576 C584 0.950 . S
H577 C589 0.950 . S
H578 C586 0.950 . S
H579 C588 0.950 . S
H580 C590 0.950 . S
H581 C592 0.950 1_545 S
H582 C594 0.950 . S
H583 C595 0.950 . S
C584 H576 0.950 . S
C584 C585 1.386 . S
C584 C586 1.391 . S
C585 C584 1.386 . S
C585 C589 1.393 . S
C586 H578 0.950 . S
C586 C584 1.391 . S
C586 C587 1.400 . S
C587 C586 1.400 . S
C587 C588 1.398 . S
C587 C593 1.491 . S
C588 H579 0.950 . S
C588 C587 1.398 . S
C588 C589 1.391 . S
C589 H577 0.950 . S
C589 C585 1.393 . S
C589 C588 1.391 . S
C590 H580 0.950 . S
C590 C591 1.386 1_545 S
C590 C592 1.391 1_545 S
C591 C590 1.386 1_565 S
C591 C595 1.393 . S
C592 H581 0.950 1_565 S
C592 C590 1.391 1_565 S
C592 C593 1.400 . S
C593 C587 1.491 . S
C593 C592 1.400 . S
C593 C594 1.398 . S
C594 H582 0.950 . S
C594 C593 1.398 . S
C594 C595 1.391 . S
C595 H583 0.950 . S
C595 C591 1.393 . S
C595 C594 1.391 . S
H596 C604 0.950 . S
H597 C609 0.950 1_655 S
H598 C606 0.950 . S
H599 C608 0.950 . S
H600 C610 0.950 . S
H601 C612 0.950 . S
H602 C614 0.950 . S
H603 C615 0.950 . S
C604 H596 0.950 . S
C604 C605 1.386 . S
C604 C606 1.391 . S
C605 C604 1.386 . S
C605 C609 1.393 . S
C606 H598 0.950 . S
C606 C604 1.391 . S
C606 C607 1.400 . S
C607 C606 1.400 . S
C607 C608 1.398 . S
C607 C613 1.491 . S
C608 H599 0.950 . S
C608 C607 1.398 . S
C608 C609 1.391 . S
C609 H597 0.950 1_455 S
C609 C605 1.393 . S
C609 C608 1.391 . S
C610 H600 0.950 . S
C610 C611 1.386 . S
C610 C612 1.391 . S
C611 C610 1.386 . S
C611 C615 1.393 . S
C612 H601 0.950 . S
C612 C610 1.391 . S
C612 C613 1.400 . S
C613 C607 1.491 . S
C613 C612 1.400 . S
C613 C614 1.398 . S
C614 H602 0.950 . S
C614 C613 1.398 . S
C614 C615 1.391 . S
C615 H603 0.950 . S
C615 C611 1.393 . S
C615 C614 1.391 . S
H616 C624 0.950 . S
H617 C629 0.950 . S
H618 C626 0.950 . S
H619 C628 0.950 . S
H620 C630 0.950 . S
H621 C632 0.950 . S
H622 C634 0.950 . S
H623 C635 0.950 . S
C624 H616 0.950 . S
C624 C625 1.386 . S
C624 C626 1.391 . S
C625 C624 1.386 . S
C625 C629 1.393 . S
C626 H618 0.950 . S
C626 C624 1.391 . S
C626 C627 1.400 . S
C627 C626 1.400 . S
C627 C628 1.398 . S
C627 C633 1.491 . S
C628 H619 0.950 . S
C628 C627 1.398 . S
C628 C629 1.391 . S
C629 H617 0.950 . S
C629 C625 1.393 . S
C629 C628 1.391 . S
C630 H620 0.950 . S
C630 C631 1.386 . S
C630 C632 1.391 . S
C631 C630 1.386 . S
C631 C635 1.393 . S
C632 H621 0.950 . S
C632 C630 1.391 . S
C632 C633 1.400 . S
C633 C627 1.491 . S
C633 C632 1.400 . S
C633 C634 1.398 . S
C634 H622 0.950 . S
C634 C633 1.398 . S
C634 C635 1.391 . S
C635 H623 0.950 . S
C635 C631 1.393 . S
C635 C634 1.391 . S
H636 C644 0.950 . S
H637 C649 0.950 . S
H638 C646 0.950 . S
H639 C648 0.950 . S
H640 C650 0.950 . S
H641 C652 0.950 . S
H642 C654 0.950 . S
H643 C655 0.950 . S
C644 H636 0.950 . S
C644 C645 1.386 . S
C644 C646 1.391 . S
C645 C644 1.386 . S
C645 C649 1.393 . S
C646 H638 0.950 . S
C646 C644 1.391 . S
C646 C647 1.400 . S
C647 C646 1.400 . S
C647 C648 1.398 . S
C647 C653 1.491 . S
C648 H639 0.950 . S
C648 C647 1.398 . S
C648 C649 1.391 . S
C649 H637 0.950 . S
C649 C645 1.393 . S
C649 C648 1.391 . S
C650 H640 0.950 . S
C650 C651 1.386 . S
C650 C652 1.391 . S
C651 C650 1.386 . S
C651 C655 1.393 . S
C652 H641 0.950 . S
C652 C650 1.391 . S
C652 C653 1.400 . S
C653 C647 1.491 . S
C653 C652 1.400 . S
C653 C654 1.398 . S
C654 H642 0.950 . S
C654 C653 1.398 . S
C654 C655 1.391 . S
C655 H643 0.950 . S
C655 C651 1.393 . S
C655 C654 1.391 . S
H656 C664 0.950 . S
H657 C669 0.950 1_545 S
H658 C666 0.950 . S
H659 C668 0.950 . S
H660 C670 0.950 . S
H661 C672 0.950 . S
H662 C674 0.950 . S
H663 C675 0.950 . S
C664 H656 0.950 . S
C664 C665 1.386 1_565 S
C664 C666 1.391 . S
C665 C664 1.386 1_545 S
C665 C669 1.393 1_545 S
C666 H658 0.950 . S
C666 C664 1.391 . S
C666 C667 1.400 . S
C667 C666 1.400 . S
C667 C668 1.398 . S
C667 C673 1.491 . S
C668 H659 0.950 . S
C668 C667 1.398 . S
C668 C669 1.391 . S
C669 H657 0.950 1_565 S
C669 C665 1.393 1_565 S
C669 C668 1.391 . S
C670 H660 0.950 . S
C670 C671 1.386 . S
C670 C672 1.391 . S
C671 C670 1.386 . S
C671 C675 1.393 . S
C672 H661 0.950 . S
C672 C670 1.391 . S
C672 C673 1.400 . S
C673 C667 1.491 . S
C673 C672 1.400 . S
C673 C674 1.398 . S
C674 H662 0.950 . S
C674 C673 1.398 . S
C674 C675 1.391 . S
C675 H663 0.950 . S
C675 C671 1.393 . S
C675 C674 1.391 . S
H676 C684 0.950 . S
H677 C689 0.950 1_655 S
H678 C686 0.950 . S
H679 C688 0.950 . S
H680 C690 0.950 . S
H681 C692 0.950 . S
H682 C694 0.950 . S
H683 C695 0.950 . S
C684 H676 0.950 . S
C684 C685 1.386 . S
C684 C686 1.391 . S
C685 C684 1.386 . S
C685 C689 1.393 . S
C686 H678 0.950 . S
C686 C684 1.391 . S
C686 C687 1.400 . S
C687 C686 1.400 . S
C687 C688 1.398 . S
C687 C693 1.491 . S
C688 H679 0.950 . S
C688 C687 1.398 . S
C688 C689 1.391 . S
C689 H677 0.950 1_455 S
C689 C685 1.393 . S
C689 C688 1.391 . S
C690 H680 0.950 . S
C690 C691 1.386 . S
C690 C692 1.391 . S
C691 C690 1.386 . S
C691 C695 1.393 . S
C692 H681 0.950 . S
C692 C690 1.391 . S
C692 C693 1.400 . S
C693 C687 1.491 . S
C693 C692 1.400 . S
C693 C694 1.398 . S
C694 H682 0.950 . S
C694 C693 1.398 . S
C694 C695 1.391 . S
C695 H683 0.950 . S
C695 C691 1.393 . S
C695 C694 1.391 . S
H696 C704 0.950 . S
H697 C709 0.950 . S
H698 C706 0.950 . S
H699 C708 0.950 . S
H700 C710 0.950 . S
H701 C712 0.950 . S
H702 C714 0.950 . S
H703 C715 0.950 . S
C704 H696 0.950 . S
C704 C705 1.386 . S
C704 C706 1.391 . S
C705 C704 1.386 . S
C705 C709 1.393 . S
C706 H698 0.950 . S
C706 C704 1.391 . S
C706 C707 1.400 . S
C707 C706 1.400 . S
C707 C708 1.398 . S
C707 C713 1.491 . S
C708 H699 0.950 . S
C708 C707 1.398 . S
C708 C709 1.391 . S
C709 H697 0.950 . S
C709 C705 1.393 . S
C709 C708 1.391 . S
C710 H700 0.950 . S
C710 C711 1.386 . S
C710 C712 1.391 . S
C711 C710 1.386 . S
C711 C715 1.393 . S
C712 H701 0.950 . S
C712 C710 1.391 . S
C712 C713 1.400 . S
C713 C707 1.491 . S
C713 C712 1.400 . S
C713 C714 1.398 . S
C714 H702 0.950 . S
C714 C713 1.398 . S
C714 C715 1.391 . S
C715 H703 0.950 . S
C715 C711 1.393 . S
C715 C714 1.391 . S
H716 C724 0.950 . S
H717 C729 0.950 . S
H718 C726 0.950 . S
H719 C728 0.950 . S
H720 C730 0.950 . S
H721 C732 0.950 . S
H722 C734 0.950 . S
H723 C735 0.950 . S
C724 H716 0.950 . S
C724 C725 1.386 . S
C724 C726 1.391 . S
C725 C724 1.386 . S
C725 C729 1.393 . S
C726 H718 0.950 . S
C726 C724 1.391 . S
C726 C727 1.400 . S
C727 C726 1.400 . S
C727 C728 1.398 . S
C727 C733 1.491 . S
C728 H719 0.950 . S
C728 C727 1.398 . S
C728 C729 1.391 . S
C729 H717 0.950 . S
C729 C725 1.393 . S
C729 C728 1.391 . S
C730 H720 0.950 . S
C730 C731 1.386 . S
C730 C732 1.391 . S
C731 C730 1.386 . S
C731 C735 1.393 . S
C732 H721 0.950 . S
C732 C730 1.391 . S
C732 C733 1.400 . S
C733 C727 1.491 . S
C733 C732 1.400 . S
C733 C734 1.398 . S
C734 H722 0.950 . S
C734 C733 1.398 . S
C734 C735 1.391 . S
C735 H723 0.950 . S
C735 C731 1.393 . S
C735 C734 1.391 . S
H736 C744 0.950 . S
H737 C749 0.950 . S
H738 C746 0.950 . S
H739 C748 0.950 . S
H740 C750 0.950 . S
H741 C752 0.950 . S
H742 C754 0.950 . S
H743 C755 0.950 . S
C744 H736 0.950 . S
C744 C745 1.386 . S
C744 C746 1.391 . S
C745 C744 1.386 . S
C745 C749 1.393 . S
C746 H738 0.950 . S
C746 C744 1.391 . S
C746 C747 1.400 . S
C747 C746 1.400 . S
C747 C748 1.398 . S
C747 C753 1.491 . S
C748 H739 0.950 . S
C748 C747 1.398 . S
C748 C749 1.391 . S
C749 H737 0.950 . S
C749 C745 1.393 . S
C749 C748 1.391 . S
C750 H740 0.950 . S
C750 C751 1.386 . S
C750 C752 1.391 . S
C751 C750 1.386 . S
C751 C755 1.393 . S
C752 H741 0.950 . S
C752 C750 1.391 . S
C752 C753 1.400 . S
C753 C747 1.491 . S
C753 C752 1.400 . S
C753 C754 1.398 . S
C754 H742 0.950 . S
C754 C753 1.398 . S
C754 C755 1.391 . S
C755 H743 0.950 . S
C755 C751 1.393 . S
C755 C754 1.391 . S
H756 C764 0.950 . S
H757 C769 0.950 . S
H758 C766 0.950 . S
H759 C768 0.950 . S
H760 C770 0.950 . S
H761 C772 0.950 . S
H762 C774 0.950 . S
H763 C775 0.950 . S
C764 H756 0.950 . S
C764 C765 1.386 . S
C764 C766 1.391 . S
C765 C764 1.386 . S
C765 C769 1.393 . S
C766 H758 0.950 . S
C766 C764 1.391 . S
C766 C767 1.400 . S
C767 C766 1.400 . S
C767 C768 1.398 . S
C767 C773 1.491 . S
C768 H759 0.950 . S
C768 C767 1.398 . S
C768 C769 1.391 . S
C769 H757 0.950 . S
C769 C765 1.393 . S
C769 C768 1.391 . S
C770 H760 0.950 . S
C770 C771 1.386 . S
C770 C772 1.391 . S
C771 C770 1.386 . S
C771 C775 1.393 . S
C772 H761 0.950 . S
C772 C770 1.391 . S
C772 C773 1.400 . S
C773 C767 1.491 . S
C773 C772 1.400 . S
C773 C774 1.398 . S
C774 H762 0.950 . S
C774 C773 1.398 . S
C774 C775 1.391 . S
C775 H763 0.950 . S
C775 C771 1.393 . S
C775 C774 1.391 . S
H776 C784 0.950 . S
H777 C789 0.950 . S
H778 C786 0.950 . S
H779 C788 0.950 . S
H780 C790 0.950 . S
H781 C792 0.950 . S
H782 C794 0.950 . S
H783 C795 0.950 . S
C784 H776 0.950 . S
C784 C785 1.386 . S
C784 C786 1.391 . S
C785 C784 1.386 . S
C785 C789 1.393 . S
C786 H778 0.950 . S
C786 C784 1.391 . S
C786 C787 1.400 . S
C787 C786 1.400 . S
C787 C788 1.398 . S
C787 C793 1.491 . S
C788 H779 0.950 . S
C788 C787 1.398 . S
C788 C789 1.391 . S
C789 H777 0.950 . S
C789 C785 1.393 . S
C789 C788 1.391 . S
C790 H780 0.950 . S
C790 C791 1.386 . S
C790 C792 1.391 . S
C791 C790 1.386 . S
C791 C795 1.393 . S
C792 H781 0.950 . S
C792 C790 1.391 . S
C792 C793 1.400 . S
C793 C787 1.491 . S
C793 C792 1.400 . S
C793 C794 1.398 . S
C794 H782 0.950 . S
C794 C793 1.398 . S
C794 C795 1.391 . S
C795 H783 0.950 . S
C795 C791 1.393 . S
C795 C794 1.391 . S
H796 C804 0.950 . S
H797 C809 0.950 . S
H798 C806 0.950 . S
H799 C808 0.950 . S
H800 C810 0.950 . S
H801 C812 0.950 . S
H802 C814 0.950 . S
H803 C815 0.950 . S
C804 H796 0.950 . S
C804 C805 1.386 . S
C804 C806 1.391 . S
C805 C804 1.386 . S
C805 C809 1.393 . S
C806 H798 0.950 . S
C806 C804 1.391 . S
C806 C807 1.400 . S
C807 C806 1.400 . S
C807 C808 1.398 . S
C807 C813 1.491 . S
C808 H799 0.950 . S
C808 C807 1.398 . S
C808 C809 1.391 . S
C809 H797 0.950 . S
C809 C805 1.393 . S
C809 C808 1.391 . S
C810 H800 0.950 . S
C810 C811 1.386 . S
C810 C812 1.391 . S
C811 C810 1.386 . S
C811 C815 1.393 . S
C812 H801 0.950 . S
C812 C810 1.391 . S
C812 C813 1.400 . S
C813 C807 1.491 . S
C813 C812 1.400 . S
C813 C814 1.398 . S
C814 H802 0.950 . S
C814 C813 1.398 . S
C814 C815 1.391 . S
C815 H803 0.950 . S
C815 C811 1.393 . S
C815 C814 1.391 . S
H816 C824 0.950 . S
H817 C829 0.950 . S
H818 C826 0.950 . S
H819 C828 0.950 . S
H820 C830 0.950 . S
H821 C832 0.950 1_554 S
H822 C834 0.950 . S
H823 C835 0.950 . S
C824 H816 0.950 . S
C824 C825 1.386 1_556 S
C824 C826 1.391 . S
C825 C824 1.386 1_554 S
C825 C829 1.393 . S
C826 H818 0.950 . S
C826 C824 1.391 . S
C826 C827 1.400 . S
C827 C826 1.400 . S
C827 C828 1.398 1_556 S
C827 C833 1.491 . S
C828 H819 0.950 . S
C828 C827 1.398 1_554 S
C828 C829 1.391 . S
C829 H817 0.950 . S
C829 C825 1.393 . S
C829 C828 1.391 . S
C830 H820 0.950 . S
C830 C831 1.386 . S
C830 C832 1.391 . S
C831 C830 1.386 . S
C831 C835 1.393 . S
C832 H821 0.950 1_556 S
C832 C830 1.391 . S
C832 C833 1.400 . S
C833 C827 1.491 . S
C833 C832 1.400 . S
C833 C834 1.398 . S
C834 H822 0.950 . S
C834 C833 1.398 . S
C834 C835 1.391 . S
C835 H823 0.950 . S
C835 C831 1.393 . S
C835 C834 1.391 . S
H836 C844 0.950 1_556 S
H837 C849 0.950 . S
H838 C846 0.950 . S
H839 C848 0.950 . S
H840 C850 0.950 1_545 S
H841 C852 0.931 1_554 S
H842 C854 0.950 . S
H843 C855 0.950 . S
C844 H836 0.950 1_554 S
C844 C845 1.386 . S
C844 C846 1.391 1_554 S
C845 C844 1.386 . S
C845 C849 1.393 . S
C846 H838 0.950 . S
C846 C844 1.391 1_556 S
C846 C847 1.400 . S
C847 C846 1.400 . S
C847 C848 1.398 1_556 S
C847 C853 1.491 . S
C848 H839 0.950 . S
C848 C847 1.398 1_554 S
C848 C849 1.391 . S
C849 H837 0.950 . S
C849 C845 1.393 . S
C849 C848 1.391 . S
C850 H840 0.950 1_565 S
C850 C851 1.386 1_565 S
C850 C852 1.391 . S
C851 C850 1.386 1_545 S
C851 C855 1.393 1_545 S
C852 H841 0.931 1_556 S
C852 C850 1.391 . S
C852 C853 1.400 . S
C853 C847 1.491 . S
C853 C852 1.400 . S
C853 C854 1.398 . S
C854 H842 0.950 . S
C854 C853 1.398 . S
C854 C855 1.391 . S
C855 H843 0.950 . S
C855 C851 1.393 1_565 S
C855 C854 1.391 . S
H856 C864 0.950 . S
H857 C869 0.950 . S
H858 C866 0.950 . S
H859 C868 0.950 . S
H860 C870 0.950 . S
H861 C872 0.950 . S
H862 C874 0.950 . S
H863 C875 0.950 . S
C864 H856 0.950 . S
C864 C865 1.386 . S
C864 C866 1.391 . S
C865 C864 1.386 . S
C865 C869 1.393 . S
C866 H858 0.950 . S
C866 C864 1.391 . S
C866 C867 1.400 1_554 S
C867 C866 1.400 1_556 S
C867 C868 1.398 . S
C867 C873 1.491 . S
C868 H859 0.950 . S
C868 C867 1.398 . S
C868 C869 1.391 1_556 S
C869 H857 0.950 . S
C869 C865 1.393 . S
C869 C868 1.391 1_554 S
C870 H860 0.950 . S
C870 C871 1.386 . S
C870 C872 1.391 . S
C871 C870 1.386 . S
C871 C875 1.393 . S
C872 H861 0.950 . S
C872 C870 1.391 . S
C872 C873 1.400 . S
C873 C867 1.491 . S
C873 C872 1.400 . S
C873 C874 1.398 . S
C874 H862 0.950 . S
C874 C873 1.398 . S
C874 C875 1.391 . S
C875 H863 0.950 . S
C875 C871 1.393 . S
C875 C874 1.391 . S
H876 C884 0.950 . S
H877 C889 0.950 . S
H878 C886 0.950 . S
H879 C888 0.950 . S
H880 C890 0.950 . S
H881 C892 0.950 . S
H882 C894 0.950 . S
H883 C895 0.950 . S
C884 H876 0.950 . S
C884 C885 1.386 . S
C884 C886 1.391 . S
C885 C884 1.386 . S
C885 C889 1.393 . S
C886 H878 0.950 . S
C886 C884 1.391 . S
C886 C887 1.400 . S
C887 C886 1.400 . S
C887 C888 1.398 . S
C887 C893 1.491 . S
C888 H879 0.950 . S
C888 C887 1.398 . S
C888 C889 1.391 . S
C889 H877 0.950 . S
C889 C885 1.393 . S
C889 C888 1.391 . S
C890 H880 0.950 . S
C890 C891 1.386 . S
C890 C892 1.391 . S
C891 C890 1.386 . S
C891 C895 1.393 . S
C892 H881 0.950 . S
C892 C890 1.391 . S
C892 C893 1.400 . S
C893 C887 1.491 . S
C893 C892 1.400 . S
C893 C894 1.398 . S
C894 H882 0.950 . S
C894 C893 1.398 . S
C894 C895 1.391 . S
C895 H883 0.950 . S
C895 C891 1.393 . S
C895 C894 1.391 . S
H896 C904 0.950 . S
H897 C909 0.950 . S
H898 C906 0.950 . S
H899 C908 0.950 . S
H900 C910 0.950 . S
H901 C912 0.950 . S
H902 C914 0.950 . S
H903 C915 0.950 . S
C904 H896 0.950 . S
C904 C905 1.386 . S
C904 C906 1.391 . S
C905 C904 1.386 . S
C905 C909 1.393 . S
C906 H898 0.950 . S
C906 C904 1.391 . S
C906 C907 1.400 . S
C907 C906 1.400 . S
C907 C908 1.398 . S
C907 C913 1.491 . S
C908 H899 0.950 . S
C908 C907 1.398 . S
C908 C909 1.391 . S
C909 H897 0.950 . S
C909 C905 1.393 . S
C909 C908 1.391 . S
C910 H900 0.950 . S
C910 C911 1.386 . S
C910 C912 1.391 . S
C911 C910 1.386 . S
C911 C915 1.393 . S
C912 H901 0.950 . S
C912 C910 1.391 . S
C912 C913 1.400 . S
C913 C907 1.491 . S
C913 C912 1.400 . S
C913 C914 1.398 . S
C914 H902 0.950 . S
C914 C913 1.398 . S
C914 C915 1.391 . S
C915 H903 0.950 . S
C915 C911 1.393 . S
C915 C914 1.391 . S
H916 C924 0.950 . S
H917 C929 0.950 . S
H918 C926 0.950 . S
H919 C928 0.950 . S
H920 C930 0.950 . S
H921 C932 0.950 . S
H922 C934 0.950 . S
H923 C935 0.950 . S
C924 H916 0.950 . S
C924 C925 1.386 . S
C924 C926 1.391 . S
C925 C924 1.386 . S
C925 C929 1.393 . S
C926 H918 0.950 . S
C926 C924 1.391 . S
C926 C927 1.400 . S
C927 C926 1.400 . S
C927 C928 1.398 . S
C927 C933 1.491 . S
C928 H919 0.950 . S
C928 C927 1.398 . S
C928 C929 1.391 . S
C929 H917 0.950 . S
C929 C925 1.393 . S
C929 C928 1.391 . S
C930 H920 0.950 . S
C930 C931 1.386 . S
C930 C932 1.391 . S
C931 C930 1.386 . S
C931 C935 1.393 . S
C932 H921 0.950 . S
C932 C930 1.391 . S
C932 C933 1.400 . S
C933 C927 1.491 . S
C933 C932 1.400 . S
C933 C934 1.398 . S
C934 H922 0.950 . S
C934 C933 1.398 . S
C934 C935 1.391 . S
C935 H923 0.950 . S
C935 C931 1.393 . S
C935 C934 1.391 . S
H936 C944 0.958 . S
H937 C949 0.950 . S
H938 C946 0.950 . S
H939 C948 0.950 . S
H940 C950 0.950 . S
H941 C952 0.950 1_556 S
H942 C954 0.950 . S
H943 C955 0.950 . S
C944 H936 0.958 . S
C944 C945 1.366 1_554 S
C944 C946 1.402 . S
C945 C944 1.366 1_556 S
C945 C949 1.393 . S
C946 H938 0.950 . S
C946 C944 1.402 . S
C946 C947 1.400 . S
C947 C946 1.400 . S
C947 C948 1.398 1_554 S
C947 C953 1.491 . S
C948 H939 0.950 . S
C948 C947 1.398 1_556 S
C948 C949 1.391 . S
C949 H937 0.950 . S
C949 C945 1.393 . S
C949 C948 1.391 . S
C950 H940 0.950 . S
C950 C951 1.386 . S
C950 C952 1.391 . S
C951 C950 1.386 . S
C951 C955 1.393 . S
C952 H941 0.950 1_554 S
C952 C950 1.391 . S
C952 C953 1.400 . S
C953 C947 1.491 . S
C953 C952 1.400 . S
C953 C954 1.398 . S
C954 H942 0.950 . S
C954 C953 1.398 . S
C954 C955 1.391 . S
C955 H943 0.950 . S
C955 C951 1.393 . S
C955 C954 1.391 . S
H956 C964 0.950 . S
H957 C969 0.950 . S
H958 C966 0.950 . S
H959 C968 0.950 . S
H960 C970 0.950 . S
H961 C972 0.950 . S
H962 C974 0.950 . S
H963 C975 0.950 . S
C964 H956 0.950 . S
C964 C965 1.386 . S
C964 C966 1.391 . S
C965 C964 1.386 . S
C965 C969 1.393 . S
C966 H958 0.950 . S
C966 C964 1.391 . S
C966 C967 1.400 1_556 S
C967 C966 1.400 1_554 S
C967 C968 1.398 . S
C967 C973 1.491 . S
C968 H959 0.950 . S
C968 C967 1.398 . S
C968 C969 1.391 1_554 S
C969 H957 0.950 . S
C969 C965 1.393 . S
C969 C968 1.391 1_556 S
C970 H960 0.950 . S
C970 C971 1.386 . S
C970 C972 1.391 . S
C971 C970 1.386 . S
C971 C975 1.393 . S
C972 H961 0.950 . S
C972 C970 1.391 . S
C972 C973 1.400 . S
C973 C967 1.491 . S
C973 C972 1.400 . S
C973 C974 1.398 . S
C974 H962 0.950 . S
C974 C973 1.398 . S
C974 C975 1.391 . S
C975 H963 0.950 . S
C975 C971 1.393 . S
C975 C974 1.391 . S
H976 C984 0.960 . S
H977 C989 0.950 . S
H978 C986 0.950 . S
H979 C988 0.950 . S
H980 C990 0.950 . S
H981 C992 0.950 1_556 S
H982 C994 0.950 . S
H983 C995 0.950 . S
C984 H976 0.960 . S
C984 C985 1.363 1_554 S
C984 C986 1.405 . S
C985 C984 1.363 1_556 S
C985 C989 1.393 . S
C986 H978 0.950 . S
C986 C984 1.405 . S
C986 C987 1.400 . S
C987 C986 1.400 . S
C987 C988 1.398 1_554 S
C987 C993 1.491 . S
C988 H979 0.950 . S
C988 C987 1.398 1_556 S
C988 C989 1.391 . S
C989 H977 0.950 . S
C989 C985 1.393 . S
C989 C988 1.391 . S
C990 H980 0.950 . S
C990 C991 1.386 . S
C990 C992 1.391 1_455 S
C991 C990 1.386 . S
C991 C995 1.393 1_455 S
C992 H981 0.950 1_554 S
C992 C990 1.391 1_655 S
C992 C993 1.400 . S
C993 C987 1.491 . S
C993 C992 1.400 . S
C993 C994 1.398 . S
C994 H982 0.950 . S
C994 C993 1.398 . S
C994 C995 1.391 . S
C995 H983 0.950 . S
C995 C991 1.393 1_655 S
C995 C994 1.391 . S
H996 C1004 0.950 . S
H997 C1009 0.950 . S
H998 C1006 0.950 . S
H999 C1008 0.950 . S
H1000 C1010 0.950 . S
H1001 C1012 0.950 . S
H1002 C1014 0.950 . S
H1003 C1015 0.950 . S
C1004 H996 0.950 . S
C1004 C1005 1.386 . S
C1004 C1006 1.391 . S
C1005 C1004 1.386 . S
C1005 C1009 1.393 . S
C1006 H998 0.950 . S
C1006 C1004 1.391 . S
C1006 C1007 1.400 . S
C1007 C1006 1.400 . S
C1007 C1008 1.398 . S
C1007 C1013 1.491 . S
C1008 H999 0.950 . S
C1008 C1007 1.398 . S
C1008 C1009 1.391 . S
C1009 H997 0.950 . S
C1009 C1005 1.393 . S
C1009 C1008 1.391 . S
C1010 H1000 0.950 . S
C1010 C1011 1.386 . S
C1010 C1012 1.391 . S
C1011 C1010 1.386 . S
C1011 C1015 1.393 . S
C1012 H1001 0.950 . S
C1012 C1010 1.391 . S
C1012 C1013 1.400 . S
C1013 C1007 1.491 . S
C1013 C1012 1.400 . S
C1013 C1014 1.398 . S
C1014 H1002 0.950 . S
C1014 C1013 1.398 . S
C1014 C1015 1.391 . S
C1015 H1003 0.950 . S
C1015 C1011 1.393 . S
C1015 C1014 1.391 . S
H1016 C1024 0.950 . S
H1017 C1029 0.950 . S
H1018 C1026 0.950 . S
H1019 C1028 0.950 . S
H1020 C1030 0.950 . S
H1021 C1032 0.950 . S
H1022 C1034 0.950 . S
H1023 C1035 0.950 . S
C1024 H1016 0.950 . S
C1024 C1025 1.386 . S
C1024 C1026 1.391 . S
C1025 C1024 1.386 . S
C1025 C1029 1.393 . S
C1026 H1018 0.950 . S
C1026 C1024 1.391 . S
C1026 C1027 1.400 . S
C1027 C1026 1.400 . S
C1027 C1028 1.398 . S
C1027 C1033 1.491 . S
C1028 H1019 0.950 . S
C1028 C1027 1.398 . S
C1028 C1029 1.391 . S
C1029 H1017 0.950 . S
C1029 C1025 1.393 . S
C1029 C1028 1.391 . S
C1030 H1020 0.950 . S
C1030 C1031 1.386 . S
C1030 C1032 1.391 . S
C1031 C1030 1.386 . S
C1031 C1035 1.393 . S
C1032 H1021 0.950 . S
C1032 C1030 1.391 . S
C1032 C1033 1.400 . S
C1033 C1027 1.491 . S
C1033 C1032 1.400 . S
C1033 C1034 1.398 . S
C1034 H1022 0.950 . S
C1034 C1033 1.398 . S
C1034 C1035 1.391 . S
C1035 H1023 0.950 . S
C1035 C1031 1.393 . S
C1035 C1034 1.391 . S
H1036 C1044 0.950 . S
H1037 C1049 0.950 . S
H1038 C1046 0.950 . S
H1039 C1048 0.950 . S
H1040 C1050 0.950 . S
H1041 C1052 0.950 . S
H1042 C1054 0.950 . S
H1043 C1055 0.950 . S
C1044 H1036 0.950 . S
C1044 C1045 1.386 1_655 S
C1044 C1046 1.391 . S
C1045 C1044 1.386 1_455 S
C1045 C1049 1.393 . S
C1046 H1038 0.950 . S
C1046 C1044 1.391 . S
C1046 C1047 1.400 . S
C1047 C1046 1.400 . S
C1047 C1048 1.398 . S
C1047 C1053 1.491 . S
C1048 H1039 0.950 . S
C1048 C1047 1.398 . S
C1048 C1049 1.391 1_655 S
C1049 H1037 0.950 . S
C1049 C1045 1.393 . S
C1049 C1048 1.391 1_455 S
C1050 H1040 0.950 . S
C1050 C1051 1.386 . S
C1050 C1052 1.391 . S
C1051 C1050 1.386 . S
C1051 C1055 1.393 . S
C1052 H1041 0.950 . S
C1052 C1050 1.391 . S
C1052 C1053 1.400 . S
C1053 C1047 1.491 . S
C1053 C1052 1.400 . S
C1053 C1054 1.398 . S
C1054 H1042 0.950 . S
C1054 C1053 1.398 . S
C1054 C1055 1.391 . S
C1055 H1043 0.950 . S
C1055 C1051 1.393 . S
C1055 C1054 1.391 . S
H1056 C1064 0.950 . S
H1057 C1069 0.950 . S
H1058 C1066 0.950 . S
H1059 C1068 0.950 . S
H1060 C1070 0.950 . S
H1061 C1072 0.950 . S
H1062 C1074 0.950 . S
H1063 C1075 0.950 . S
C1064 H1056 0.950 . S
C1064 C1065 1.386 . S
C1064 C1066 1.391 . S
C1065 C1064 1.386 . S
C1065 C1069 1.393 . S
C1066 H1058 0.950 . S
C1066 C1064 1.391 . S
C1066 C1067 1.400 . S
C1067 C1066 1.400 . S
C1067 C1068 1.398 . S
C1067 C1073 1.491 . S
C1068 H1059 0.950 . S
C1068 C1067 1.398 . S
C1068 C1069 1.391 . S
C1069 H1057 0.950 . S
C1069 C1065 1.393 . S
C1069 C1068 1.391 . S
C1070 H1060 0.950 . S
C1070 C1071 1.386 . S
C1070 C1072 1.391 . S
C1071 C1070 1.386 . S
C1071 C1075 1.393 . S
C1072 H1061 0.950 . S
C1072 C1070 1.391 . S
C1072 C1073 1.400 . S
C1073 C1067 1.491 . S
C1073 C1072 1.400 . S
C1073 C1074 1.398 . S
C1074 H1062 0.950 . S
C1074 C1073 1.398 . S
C1074 C1075 1.391 . S
C1075 H1063 0.950 . S
C1075 C1071 1.393 . S
C1075 C1074 1.391 . S
H1076 C1084 0.950 . S
H1077 C1089 0.950 . S
H1078 C1086 0.950 . S
H1079 C1088 0.950 . S
H1080 C1090 0.950 . S
H1081 C1092 0.950 . S
H1082 C1094 0.950 . S
H1083 C1095 0.950 . S
C1084 H1076 0.950 . S
C1084 C1085 1.386 . S
C1084 C1086 1.391 . S
C1085 C1084 1.386 . S
C1085 C1089 1.393 . S
C1086 H1078 0.950 . S
C1086 C1084 1.391 . S
C1086 C1087 1.400 . S
C1087 C1086 1.400 . S
C1087 C1088 1.398 . S
C1087 C1093 1.491 . S
C1088 H1079 0.950 . S
C1088 C1087 1.398 . S
C1088 C1089 1.391 . S
C1089 H1077 0.950 . S
C1089 C1085 1.393 . S
C1089 C1088 1.391 . S
C1090 H1080 0.950 . S
C1090 C1091 1.386 . S
C1090 C1092 1.391 . S
C1091 C1090 1.386 . S
C1091 C1095 1.393 . S
C1092 H1081 0.950 . S
C1092 C1090 1.391 . S
C1092 C1093 1.400 . S
C1093 C1087 1.491 . S
C1093 C1092 1.400 . S
C1093 C1094 1.398 . S
C1094 H1082 0.950 . S
C1094 C1093 1.398 . S
C1094 C1095 1.391 . S
C1095 H1083 0.950 . S
C1095 C1091 1.393 . S
C1095 C1094 1.391 . S
H1096 C1104 0.950 . S
H1097 C1109 0.950 . S
H1098 C1106 0.950 . S
H1099 C1108 0.950 . S
H1100 C1110 0.950 . S
H1101 C1112 0.950 . S
H1102 C1114 0.950 . S
H1103 C1115 0.950 . S
C1104 H1096 0.950 . S
C1104 C1105 1.386 . S
C1104 C1106 1.391 . S
C1105 C1104 1.386 . S
C1105 C1109 1.393 . S
C1106 H1098 0.950 . S
C1106 C1104 1.391 . S
C1106 C1107 1.400 . S
C1107 C1106 1.400 . S
C1107 C1108 1.398 . S
C1107 C1113 1.491 . S
C1108 H1099 0.950 . S
C1108 C1107 1.398 . S
C1108 C1109 1.391 . S
C1109 H1097 0.950 . S
C1109 C1105 1.393 . S
C1109 C1108 1.391 . S
C1110 H1100 0.950 . S
C1110 C1111 1.386 . S
C1110 C1112 1.391 . S
C1111 C1110 1.386 . S
C1111 C1115 1.393 . S
C1112 H1101 0.950 . S
C1112 C1110 1.391 . S
C1112 C1113 1.400 . S
C1113 C1107 1.491 . S
C1113 C1112 1.400 . S
C1113 C1114 1.398 . S
C1114 H1102 0.950 . S
C1114 C1113 1.398 . S
C1114 C1115 1.391 . S
C1115 H1103 0.950 . S
C1115 C1111 1.393 . S
C1115 C1114 1.391 . S
H1116 C1124 0.950 . S
H1117 C1129 0.950 . S
H1118 C1126 0.950 . S
H1119 C1128 0.950 . S
H1120 C1130 0.950 . S
H1121 C1132 0.950 . S
H1122 C1134 0.950 . S
H1123 C1135 0.950 . S
C1124 H1116 0.950 . S
C1124 C1125 1.386 . S
C1124 C1126 1.391 . S
C1125 C1124 1.386 . S
C1125 C1129 1.393 . S
C1126 H1118 0.950 . S
C1126 C1124 1.391 . S
C1126 C1127 1.400 . S
C1127 C1126 1.400 . S
C1127 C1128 1.398 . S
C1127 C1133 1.491 . S
C1128 H1119 0.950 . S
C1128 C1127 1.398 . S
C1128 C1129 1.391 . S
C1129 H1117 0.950 . S
C1129 C1125 1.393 . S
C1129 C1128 1.391 . S
C1130 H1120 0.950 . S
C1130 C1131 1.386 . S
C1130 C1132 1.391 . S
C1131 C1130 1.386 . S
C1131 C1135 1.393 . S
C1132 H1121 0.950 . S
C1132 C1130 1.391 . S
C1132 C1133 1.400 . S
C1133 C1127 1.491 . S
C1133 C1132 1.400 . S
C1133 C1134 1.398 . S
C1134 H1122 0.950 . S
C1134 C1133 1.398 . S
C1134 C1135 1.391 . S
C1135 H1123 0.950 . S
C1135 C1131 1.393 . S
C1135 C1134 1.391 . S
H1136 C1144 0.950 . S
H1137 C1149 0.950 . S
H1138 C1146 0.950 . S
H1139 C1148 0.950 . S
H1140 C1150 0.950 . S
H1141 C1152 0.950 . S
H1142 C1154 0.950 . S
H1143 C1155 0.950 . S
C1144 H1136 0.950 . S
C1144 C1145 1.386 . S
C1144 C1146 1.391 . S
C1145 C1144 1.386 . S
C1145 C1149 1.393 . S
C1146 H1138 0.950 . S
C1146 C1144 1.391 . S
C1146 C1147 1.400 . S
C1147 C1146 1.400 . S
C1147 C1148 1.398 . S
C1147 C1153 1.491 . S
C1148 H1139 0.950 . S
C1148 C1147 1.398 . S
C1148 C1149 1.391 . S
C1149 H1137 0.950 . S
C1149 C1145 1.393 . S
C1149 C1148 1.391 . S
C1150 H1140 0.950 . S
C1150 C1151 1.386 . S
C1150 C1152 1.391 . S
C1151 C1150 1.386 . S
C1151 C1155 1.393 . S
C1152 H1141 0.950 . S
C1152 C1150 1.391 . S
C1152 C1153 1.400 . S
C1153 C1147 1.491 . S
C1153 C1152 1.400 . S
C1153 C1154 1.398 . S
C1154 H1142 0.950 . S
C1154 C1153 1.398 . S
C1154 C1155 1.391 . S
C1155 H1143 0.950 . S
C1155 C1151 1.393 . S
C1155 C1154 1.391 . S
H1156 C1164 0.950 . S
H1157 C1169 0.950 . S
H1158 C1166 0.950 . S
H1159 C1168 0.950 . S
H1160 C1170 0.944 1_545 S
H1161 C1172 0.950 . S
H1162 C1174 0.950 . S
H1163 C1175 0.950 . S
C1164 H1156 0.950 . S
C1164 C1165 1.386 . S
C1164 C1166 1.391 . S
C1165 C1164 1.386 . S
C1165 C1169 1.393 . S
C1166 H1158 0.950 . S
C1166 C1164 1.391 . S
C1166 C1167 1.400 . S
C1167 C1166 1.400 . S
C1167 C1168 1.398 . S
C1167 C1173 1.491 . S
C1168 H1159 0.950 . S
C1168 C1167 1.398 . S
C1168 C1169 1.391 . S
C1169 H1157 0.950 . S
C1169 C1165 1.393 . S
C1169 C1168 1.391 . S
C1170 H1160 0.944 1_565 S
C1170 C1171 1.386 . S
C1170 C1172 1.391 . S
C1171 C1170 1.386 . S
C1171 C1175 1.393 . S
C1172 H1161 0.950 . S
C1172 C1170 1.391 . S
C1172 C1173 1.400 . S
C1173 C1167 1.491 . S
C1173 C1172 1.400 . S
C1173 C1174 1.398 . S
C1174 H1162 0.950 . S
C1174 C1173 1.398 . S
C1174 C1175 1.391 . S
C1175 H1163 0.950 . S
C1175 C1171 1.393 . S
C1175 C1174 1.391 . S
H1176 C1184 0.950 . S
H1177 C1189 0.950 . S
H1178 C1186 0.950 . S
H1179 C1188 0.950 . S
H1180 C1190 0.950 . S
H1181 C1192 0.950 . S
H1182 C1194 0.950 . S
H1183 C1195 0.950 . S
C1184 H1176 0.950 . S
C1184 C1185 1.386 . S
C1184 C1186 1.391 . S
C1185 C1184 1.386 . S
C1185 C1189 1.393 . S
C1186 H1178 0.950 . S
C1186 C1184 1.391 . S
C1186 C1187 1.400 . S
C1187 C1186 1.400 . S
C1187 C1188 1.398 . S
C1187 C1193 1.491 . S
C1188 H1179 0.950 . S
C1188 C1187 1.398 . S
C1188 C1189 1.391 . S
C1189 H1177 0.950 . S
C1189 C1185 1.393 . S
C1189 C1188 1.391 . S
C1190 H1180 0.950 . S
C1190 C1191 1.386 . S
C1190 C1192 1.391 . S
C1191 C1190 1.386 . S
C1191 C1195 1.393 . S
C1192 H1181 0.950 . S
C1192 C1190 1.391 . S
C1192 C1193 1.400 . S
C1193 C1187 1.491 . S
C1193 C1192 1.400 . S
C1193 C1194 1.398 . S
C1194 H1182 0.950 . S
C1194 C1193 1.398 . S
C1194 C1195 1.391 . S
C1195 H1183 0.950 . S
C1195 C1191 1.393 . S
C1195 C1194 1.391 . S
H1196 C1204 0.950 . S
H1197 C1209 0.950 1_455 S
H1198 C1206 0.950 . S
H1199 C1208 0.950 1_455 S
H1200 C1210 0.950 1_556 S
H1201 C1212 0.950 . S
H1202 C1214 0.950 . S
H1203 C1215 0.950 . S
C1204 H1196 0.950 . S
C1204 C1205 1.386 . S
C1204 C1206 1.391 . S
C1205 C1204 1.386 . S
C1205 C1209 1.393 . S
C1206 H1198 0.950 . S
C1206 C1204 1.391 . S
C1206 C1207 1.400 . S
C1207 C1206 1.400 . S
C1207 C1208 1.398 . S
C1207 C1213 1.491 . S
C1208 H1199 0.950 1_655 S
C1208 C1207 1.398 . S
C1208 C1209 1.391 . S
C1209 H1197 0.950 1_655 S
C1209 C1205 1.393 . S
C1209 C1208 1.391 . S
C1210 H1200 0.950 1_554 S
C1210 C1211 1.386 . S
C1210 C1212 1.391 . S
C1211 C1210 1.386 . S
C1211 C1215 1.393 . S
C1212 H1201 0.950 . S
C1212 C1210 1.391 . S
C1212 C1213 1.400 . S
C1213 C1207 1.491 . S
C1213 C1212 1.400 . S
C1213 C1214 1.398 . S
C1214 H1202 0.950 . S
C1214 C1213 1.398 . S
C1214 C1215 1.391 . S
C1215 H1203 0.950 . S
C1215 C1211 1.393 . S
C1215 C1214 1.391 . S
H1216 C1224 0.950 . S
H1217 C1229 0.950 . S
H1218 C1226 0.950 . S
H1219 C1228 0.950 . S
H1220 C1230 0.950 1_556 S
H1221 C1232 0.950 . S
H1222 C1234 0.950 . S
H1223 C1235 0.950 . S
C1224 H1216 0.950 . S
C1224 C1225 1.386 . S
C1224 C1226 1.391 . S
C1225 C1224 1.386 . S
C1225 C1229 1.393 . S
C1226 H1218 0.950 . S
C1226 C1224 1.391 . S
C1226 C1227 1.400 . S
C1227 C1226 1.400 . S
C1227 C1228 1.398 . S
C1227 C1233 1.491 . S
C1228 H1219 0.950 . S
C1228 C1227 1.398 . S
C1228 C1229 1.391 . S
C1229 H1217 0.950 . S
C1229 C1225 1.393 . S
C1229 C1228 1.391 . S
C1230 H1220 0.950 1_554 S
C1230 C1231 1.386 . S
C1230 C1232 1.391 . S
C1231 C1230 1.386 . S
C1231 C1235 1.393 . S
C1232 H1221 0.950 . S
C1232 C1230 1.391 . S
C1232 C1233 1.400 . S
C1233 C1227 1.491 . S
C1233 C1232 1.400 . S
C1233 C1234 1.398 . S
C1234 H1222 0.950 . S
C1234 C1233 1.398 . S
C1234 C1235 1.391 . S
C1235 H1223 0.950 . S
C1235 C1231 1.393 . S
C1235 C1234 1.391 . S
H1236 C1244 0.950 . S
H1237 C1249 0.950 1_455 S
H1238 C1246 0.950 . S
H1239 C1248 0.950 1_455 S
H1240 C1250 0.950 . S
H1241 C1252 0.971 . S
H1242 C1254 0.950 . S
H1243 C1255 0.950 . S
C1244 H1236 0.950 . S
C1244 C1245 1.386 . S
C1244 C1246 1.391 . S
C1245 C1244 1.386 . S
C1245 C1249 1.393 . S
C1246 H1238 0.950 . S
C1246 C1244 1.391 . S
C1246 C1247 1.400 . S
C1247 C1246 1.400 . S
C1247 C1248 1.398 . S
C1247 C1253 1.491 . S
C1248 H1239 0.950 1_655 S
C1248 C1247 1.398 . S
C1248 C1249 1.391 . S
C1249 H1237 0.950 1_655 S
C1249 C1245 1.393 . S
C1249 C1248 1.391 . S
C1250 H1240 0.950 . S
C1250 C1251 1.386 . S
C1250 C1252 1.391 . S
C1251 C1250 1.386 . S
C1251 C1255 1.393 . S
C1252 H1241 0.971 . S
C1252 C1250 1.391 . S
C1252 C1253 1.400 . S
C1253 C1247 1.491 . S
C1253 C1252 1.400 . S
C1253 C1254 1.398 . S
C1254 H1242 0.950 . S
C1254 C1253 1.398 . S
C1254 C1255 1.391 . S
C1255 H1243 0.950 . S
C1255 C1251 1.393 . S
C1255 C1254 1.391 . S
H1256 C1264 0.950 . S
H1257 C1269 0.950 . S
H1258 C1266 0.950 . S
H1259 C1268 0.950 . S
H1260 C1270 0.950 . S
H1261 C1272 0.950 . S
H1262 C1274 0.950 . S
H1263 C1275 0.950 . S
C1264 H1256 0.950 . S
C1264 C1265 1.386 . S
C1264 C1266 1.391 . S
C1265 C1264 1.386 . S
C1265 C1269 1.393 . S
C1266 H1258 0.950 . S
C1266 C1264 1.391 . S
C1266 C1267 1.400 . S
C1267 C1266 1.400 . S
C1267 C1268 1.398 . S
C1267 C1273 1.491 . S
C1268 H1259 0.950 . S
C1268 C1267 1.398 . S
C1268 C1269 1.391 . S
C1269 H1257 0.950 . S
C1269 C1265 1.393 . S
C1269 C1268 1.391 . S
C1270 H1260 0.950 . S
C1270 C1271 1.386 . S
C1270 C1272 1.391 . S
C1271 C1270 1.386 . S
C1271 C1275 1.393 . S
C1272 H1261 0.950 . S
C1272 C1270 1.391 . S
C1272 C1273 1.400 . S
C1273 C1267 1.491 . S
C1273 C1272 1.400 . S
C1273 C1274 1.398 . S
C1274 H1262 0.950 . S
C1274 C1273 1.398 . S
C1274 C1275 1.391 . S
C1275 H1263 0.950 . S
C1275 C1271 1.393 . S
C1275 C1274 1.391 . S
H1276 C1284 0.950 . S
H1277 C1289 0.950 . S
H1278 C1286 0.950 . S
H1279 C1288 0.950 . S
H1280 C1290 0.950 . S
H1281 C1292 0.950 . S
H1282 C1294 0.950 . S
H1283 C1295 0.950 . S
C1284 H1276 0.950 . S
C1284 C1285 1.386 . S
C1284 C1286 1.391 . S
C1285 C1284 1.386 . S
C1285 C1289 1.393 . S
C1286 H1278 0.950 . S
C1286 C1284 1.391 . S
C1286 C1287 1.400 . S
C1287 C1286 1.400 . S
C1287 C1288 1.398 . S
C1287 C1293 1.491 . S
C1288 H1279 0.950 . S
C1288 C1287 1.398 . S
C1288 C1289 1.391 . S
C1289 H1277 0.950 . S
C1289 C1285 1.393 . S
C1289 C1288 1.391 . S
C1290 H1280 0.950 . S
C1290 C1291 1.386 . S
C1290 C1292 1.391 . S
C1291 C1290 1.386 . S
C1291 C1295 1.393 . S
C1292 H1281 0.950 . S
C1292 C1290 1.391 . S
C1292 C1293 1.400 . S
C1293 C1287 1.491 . S
C1293 C1292 1.400 . S
C1293 C1294 1.398 . S
C1294 H1282 0.950 . S
C1294 C1293 1.398 . S
C1294 C1295 1.391 . S
C1295 H1283 0.950 . S
C1295 C1291 1.393 . S
C1295 C1294 1.391 . S
H1296 C1304 0.950 . S
H1297 C1309 0.944 1_545 S
H1298 C1306 0.950 . S
H1299 C1308 0.950 . S
H1300 C1310 0.950 1_554 S
H1301 C1312 0.950 . S
H1302 C1314 0.950 . S
H1303 C1315 0.950 . S
C1304 H1296 0.950 . S
C1304 C1305 1.386 . S
C1304 C1306 1.391 . S
C1305 C1304 1.386 . S
C1305 C1309 1.393 . S
C1306 H1298 0.950 . S
C1306 C1304 1.391 . S
C1306 C1307 1.400 . S
C1307 C1306 1.400 . S
C1307 C1308 1.398 . S
C1307 C1313 1.491 . S
C1308 H1299 0.950 . S
C1308 C1307 1.398 . S
C1308 C1309 1.391 . S
C1309 H1297 0.944 1_565 S
C1309 C1305 1.393 . S
C1309 C1308 1.391 . S
C1310 H1300 0.950 1_556 S
C1310 C1311 1.386 . S
C1310 C1312 1.391 . S
C1311 C1310 1.386 . S
C1311 C1315 1.393 . S
C1312 H1301 0.950 . S
C1312 C1310 1.391 . S
C1312 C1313 1.400 . S
C1313 C1307 1.491 . S
C1313 C1312 1.400 . S
C1313 C1314 1.398 . S
C1314 H1302 0.950 . S
C1314 C1313 1.398 . S
C1314 C1315 1.391 . S
C1315 H1303 0.950 . S
C1315 C1311 1.393 . S
C1315 C1314 1.391 . S
H1316 C1324 0.950 . S
H1317 C1329 0.950 1_554 S
H1318 C1326 0.950 . S
H1319 C1328 0.950 . S
H1320 C1330 0.950 . S
H1321 C1332 0.950 . S
H1322 C1334 0.950 . S
H1323 C1335 0.950 . S
C1324 H1316 0.950 . S
C1324 C1325 1.386 . S
C1324 C1326 1.391 . S
C1325 C1324 1.386 . S
C1325 C1329 1.393 . S
C1326 H1318 0.950 . S
C1326 C1324 1.391 . S
C1326 C1327 1.400 . S
C1327 C1326 1.400 . S
C1327 C1328 1.398 . S
C1327 C1333 1.491 . S
C1328 H1319 0.950 . S
C1328 C1327 1.398 . S
C1328 C1329 1.391 . S
C1329 H1317 0.950 1_556 S
C1329 C1325 1.393 . S
C1329 C1328 1.391 . S
C1330 H1320 0.950 . S
C1330 C1331 1.386 . S
C1330 C1332 1.391 . S
C1331 C1330 1.386 . S
C1331 C1335 1.393 . S
C1332 H1321 0.950 . S
C1332 C1330 1.391 . S
C1332 C1333 1.400 . S
C1333 C1327 1.491 . S
C1333 C1332 1.400 . S
C1333 C1334 1.398 . S
C1334 H1322 0.950 . S
C1334 C1333 1.398 . S
C1334 C1335 1.391 . S
C1335 H1323 0.950 . S
C1335 C1331 1.393 . S
C1335 C1334 1.391 . S
H1336 C1344 0.950 . S
H1337 C1349 0.950 . S
H1338 C1346 0.950 . S
H1339 C1348 0.950 . S
H1340 C1350 0.950 . S
H1341 C1352 0.950 . S
H1342 C1354 0.950 . S
H1343 C1355 0.950 . S
C1344 H1336 0.950 . S
C1344 C1345 1.386 . S
C1344 C1346 1.391 . S
C1345 C1344 1.386 . S
C1345 C1349 1.393 . S
C1346 H1338 0.950 . S
C1346 C1344 1.391 . S
C1346 C1347 1.400 . S
C1347 C1346 1.400 . S
C1347 C1348 1.398 . S
C1347 C1353 1.491 . S
C1348 H1339 0.950 . S
C1348 C1347 1.398 . S
C1348 C1349 1.391 . S
C1349 H1337 0.950 . S
C1349 C1345 1.393 . S
C1349 C1348 1.391 . S
C1350 H1340 0.950 . S
C1350 C1351 1.386 . S
C1350 C1352 1.391 . S
C1351 C1350 1.386 . S
C1351 C1355 1.393 . S
C1352 H1341 0.950 . S
C1352 C1350 1.391 . S
C1352 C1353 1.400 . S
C1353 C1347 1.491 . S
C1353 C1352 1.400 . S
C1353 C1354 1.398 . S
C1354 H1342 0.950 . S
C1354 C1353 1.398 . S
C1354 C1355 1.391 . S
C1355 H1343 0.950 . S
C1355 C1351 1.393 . S
C1355 C1354 1.391 . S
H1356 C1364 0.950 . S
H1357 C1369 0.950 . S
H1358 C1366 0.950 . S
H1359 C1368 0.950 . S
H1360 C1370 0.950 . S
H1361 C1372 0.950 . S
H1362 C1374 0.950 1_565 S
H1363 C1375 0.950 . S
C1364 H1356 0.950 . S
C1364 C1365 1.386 . S
C1364 C1366 1.391 . S
C1365 C1364 1.386 . S
C1365 C1369 1.393 1_565 S
C1366 H1358 0.950 . S
C1366 C1364 1.391 . S
C1366 C1367 1.400 1_565 S
C1367 C1366 1.400 1_545 S
C1367 C1368 1.398 . S
C1367 C1373 1.491 . S
C1368 H1359 0.950 . S
C1368 C1367 1.398 . S
C1368 C1369 1.391 . S
C1369 H1357 0.950 . S
C1369 C1365 1.393 1_545 S
C1369 C1368 1.391 . S
C1370 H1360 0.950 . S
C1370 C1371 1.386 . S
C1370 C1372 1.391 . S
C1371 C1370 1.386 . S
C1371 C1375 1.393 . S
C1372 H1361 0.950 . S
C1372 C1370 1.391 . S
C1372 C1373 1.400 . S
C1373 C1367 1.491 . S
C1373 C1372 1.400 . S
C1373 C1374 1.398 . S
C1374 H1362 0.950 1_545 S
C1374 C1373 1.398 . S
C1374 C1375 1.391 . S
C1375 H1363 0.950 . S
C1375 C1371 1.393 . S
C1375 C1374 1.391 . S
H1376 C1384 0.950 . S
H1377 C1389 0.950 1_655 S
H1378 C1386 0.950 . S
H1379 C1388 0.950 1_655 S
H1380 C1390 0.950 . S
H1381 C1392 0.950 . S
H1382 C1394 0.950 . S
H1383 C1395 0.950 . S
C1384 H1376 0.950 . S
C1384 C1385 1.386 . S
C1384 C1386 1.391 . S
C1385 C1384 1.386 . S
C1385 C1389 1.393 . S
C1386 H1378 0.950 . S
C1386 C1384 1.391 . S
C1386 C1387 1.400 . S
C1387 C1386 1.400 . S
C1387 C1388 1.398 . S
C1387 C1393 1.491 . S
C1388 H1379 0.950 1_455 S
C1388 C1387 1.398 . S
C1388 C1389 1.391 . S
C1389 H1377 0.950 1_455 S
C1389 C1385 1.393 . S
C1389 C1388 1.391 . S
C1390 H1380 0.950 . S
C1390 C1391 1.386 . S
C1390 C1392 1.391 . S
C1391 C1390 1.386 . S
C1391 C1395 1.393 1_655 S
C1392 H1381 0.950 . S
C1392 C1390 1.391 . S
C1392 C1393 1.400 1_655 S
C1393 C1387 1.491 . S
C1393 C1392 1.400 1_455 S
C1393 C1394 1.398 . S
C1394 H1382 0.950 . S
C1394 C1393 1.398 . S
C1394 C1395 1.391 . S
C1395 H1383 0.950 . S
C1395 C1391 1.393 1_455 S
C1395 C1394 1.391 . S
H1396 C1404 0.950 . S
H1397 C1409 0.950 . S
H1398 C1406 0.950 . S
H1399 C1408 0.950 . S
H1400 C1410 0.950 . S
H1401 C1412 0.950 . S
H1402 C1414 0.950 . S
H1403 C1415 0.950 . S
C1404 H1396 0.950 . S
C1404 C1405 1.386 . S
C1404 C1406 1.391 . S
C1405 C1404 1.386 . S
C1405 C1409 1.393 . S
C1406 H1398 0.950 . S
C1406 C1404 1.391 . S
C1406 C1407 1.400 . S
C1407 C1406 1.400 . S
C1407 C1408 1.398 . S
C1407 C1413 1.491 . S
C1408 H1399 0.950 . S
C1408 C1407 1.398 . S
C1408 C1409 1.391 . S
C1409 H1397 0.950 . S
C1409 C1405 1.393 . S
C1409 C1408 1.391 . S
C1410 H1400 0.950 . S
C1410 C1411 1.386 . S
C1410 C1412 1.391 . S
C1411 C1410 1.386 . S
C1411 C1415 1.393 . S
C1412 H1401 0.950 . S
C1412 C1410 1.391 . S
C1412 C1413 1.400 . S
C1413 C1407 1.491 . S
C1413 C1412 1.400 . S
C1413 C1414 1.398 . S
C1414 H1402 0.950 . S
C1414 C1413 1.398 . S
C1414 C1415 1.391 . S
C1415 H1403 0.950 . S
C1415 C1411 1.393 . S
C1415 C1414 1.391 . S
H1416 C1424 0.950 . S
H1417 C1429 0.950 . S
H1418 C1426 0.950 1_655 S
H1419 C1428 0.950 . S
H1420 C1430 0.950 . S
H1421 C1432 0.950 . S
H1422 C1434 0.950 . S
H1423 C1435 0.950 . S
C1424 H1416 0.950 . S
C1424 C1425 1.386 . S
C1424 C1426 1.391 . S
C1425 C1424 1.386 . S
C1425 C1429 1.393 . S
C1426 H1418 0.950 1_455 S
C1426 C1424 1.391 . S
C1426 C1427 1.400 . S
C1427 C1426 1.400 . S
C1427 C1428 1.398 . S
C1427 C1433 1.491 . S
C1428 H1419 0.950 . S
C1428 C1427 1.398 . S
C1428 C1429 1.391 . S
C1429 H1417 0.950 . S
C1429 C1425 1.393 . S
C1429 C1428 1.391 . S
C1430 H1420 0.950 . S
C1430 C1431 1.386 1_455 S
C1430 C1432 1.391 . S
C1431 C1430 1.386 1_655 S
C1431 C1435 1.393 . S
C1432 H1421 0.950 . S
C1432 C1430 1.391 . S
C1432 C1433 1.400 . S
C1433 C1427 1.491 . S
C1433 C1432 1.400 . S
C1433 C1434 1.398 1_455 S
C1434 H1422 0.950 . S
C1434 C1433 1.398 1_655 S
C1434 C1435 1.391 . S
C1435 H1423 0.950 . S
C1435 C1431 1.393 . S
C1435 C1434 1.391 . S
H1436 C1444 0.950 . S
H1437 C1449 0.950 . S
H1438 C1446 0.950 . S
H1439 C1448 0.950 . S
H1440 C1450 0.950 . S
H1441 C1452 0.950 . S
H1442 C1454 0.950 . S
H1443 C1455 0.950 . S
C1444 H1436 0.950 . S
C1444 C1445 1.386 . S
C1444 C1446 1.391 . S
C1445 C1444 1.386 . S
C1445 C1449 1.393 . S
C1446 H1438 0.950 . S
C1446 C1444 1.391 . S
C1446 C1447 1.400 . S
C1447 C1446 1.400 . S
C1447 C1448 1.398 . S
C1447 C1453 1.491 . S
C1448 H1439 0.950 . S
C1448 C1447 1.398 . S
C1448 C1449 1.391 . S
C1449 H1437 0.950 . S
C1449 C1445 1.393 . S
C1449 C1448 1.391 . S
C1450 H1440 0.950 . S
C1450 C1451 1.386 . S
C1450 C1452 1.391 . S
C1451 C1450 1.386 . S
C1451 C1455 1.393 . S
C1452 H1441 0.950 . S
C1452 C1450 1.391 . S
C1452 C1453 1.400 . S
C1453 C1447 1.491 . S
C1453 C1452 1.400 . S
C1453 C1454 1.398 . S
C1454 H1442 0.950 . S
C1454 C1453 1.398 . S
C1454 C1455 1.391 . S
C1455 H1443 0.950 . S
C1455 C1451 1.393 . S
C1455 C1454 1.391 . S
H1456 C1464 0.950 1_565 S
H1457 C1469 0.950 . S
H1458 C1466 0.950 . S
H1459 C1468 0.950 . S
H1460 C1470 0.950 . S
H1461 C1472 0.950 . S
H1462 C1474 0.950 . S
H1463 C1475 0.950 . S
C1464 H1456 0.950 1_545 S
C1464 C1465 1.386 . S
C1464 C1466 1.391 1_545 S
C1465 C1464 1.386 . S
C1465 C1469 1.393 . S
C1466 H1458 0.950 . S
C1466 C1464 1.391 1_565 S
C1466 C1467 1.400 1_565 S
C1467 C1466 1.400 1_545 S
C1467 C1468 1.398 . S
C1467 C1473 1.491 . S
C1468 H1459 0.950 . S
C1468 C1467 1.398 . S
C1468 C1469 1.391 . S
C1469 H1457 0.950 . S
C1469 C1465 1.393 . S
C1469 C1468 1.391 . S
C1470 H1460 0.950 . S
C1470 C1471 1.386 1_545 S
C1470 C1472 1.391 . S
C1471 C1470 1.386 1_565 S
C1471 C1475 1.393 . S
C1472 H1461 0.950 . S
C1472 C1470 1.391 . S
C1472 C1473 1.400 . S
C1473 C1467 1.491 . S
C1473 C1472 1.400 . S
C1473 C1474 1.398 1_545 S
C1474 H1462 0.950 . S
C1474 C1473 1.398 1_565 S
C1474 C1475 1.391 . S
C1475 H1463 0.950 . S
C1475 C1471 1.393 . S
C1475 C1474 1.391 . S
C405 C249 1.282 . S
C411 C8 1.324 . S
C425 C29 1.329 . S
C431 C213 1.298 . S
C445 C62 1.286 . S
C451 C241 1.252 . S
C465 C337 1.272 . S
C471 C51 1.304 . S
C485 C21 1.285 . S
C491 C370 1.260 . S
C505 C40 1.282 . S
C511 C381 1.264 . S
C525 C316 1.226 . S
C531 C84 1.262 . S
C545 C103 1.265 . S
C551 C282 1.263 . S
C565 C118 1.268 . S
C571 C307 1.251 . S
C585 C147 1.283 . S
C591 C131 1.310 . S
C605 C73 1.350 . S
C611 C175 1.322 . S
C625 C191 1.283 . S
C631 C98 1.300 . S
C645 C382 1.270 . S
C651 C140 1.295 . S
C665 C338 1.211 . S
C671 C172 1.244 . S
C685 C367 1.239 1_455 S
C691 C184 1.277 . S
C705 C87 1.282 . S
C711 C197 1.312 . S
C725 C96 1.312 . S
C731 C153 1.311 . S
C745 C161 1.331 . S
C751 C125 1.324 . S
C765 C54 1.301 . S
C771 C219 1.333 . S
C785 C18 1.288 . S
C791 C227 1.290 . S
C805 C257 1.307 . S
C811 C43 1.286 . S
C825 C252 1.259 . S
C831 C279 1.242 . S
C845 C206 1.271 . S
C851 C296 1.255 . S
C865 C238 1.296 . S
C871 C315 1.264 1_455 S
C885 C272 1.293 . S
C891 C128 1.253 . S
C905 C293 1.296 . S
C911 C76 1.296 . S
C925 C318 1.306 . S
C931 C95 1.266 . S
C945 C323 1.278 . S
C951 C216 1.245 . S
C965 C285 1.322 . S
C971 C230 1.296 1_545 S
C985 C304 1.271 . S
C991 C250 1.230 . S
C1005 C340 1.287 . S
C1011 C194 1.251 . S
C1025 C373 1.290 . S
C1031 C150 1.266 1_545 S
C1045 C164 1.236 . S
C1051 C384 1.254 . S
C1065 C15 1.331 . S
C1071 C389 1.340 . S
C1085 C32 1.316 . S
C1091 C345 1.325 . S
C1105 C360 1.326 . S
C1111 C65 1.298 . S
C1125 C162 1.118 . S
C1131 C7 1.123 . S
C1145 C186 1.103 . S
C1151 C30 1.101 . S
C1165 C142 1.126 . S
C1171 C59 1.129 . S
C1185 C294 1.105 1_554 S
C1191 C52 1.104 . S
C1205 C10 1.130 . S
C1211 C329 1.136 1_554 S
C1225 C37 1.167 . S
C1231 C271 1.166 1_554 S
C1245 C81 1.166 . S
C1251 C359 1.166 . S
C1265 C106 1.093 . S
C1271 C392 1.090 . S
C1285 C117 1.138 . S
C1291 C348 1.136 . S
C1305 C120 1.098 . S
C1311 C228 1.094 1_556 S
C1325 C260 1.098 1_556 S
C1331 C74 1.101 . S
C1345 C109 1.128 . S
C1351 C208 1.125 1_556 S
C1365 C139 1.167 . S
C1371 C301 1.168 . S
C1385 C169 1.147 . S
C1391 C326 1.138 . S
C1405 C183 1.143 . S
C1411 C274 1.133 . S
C1425 C263 1.145 . S
C1431 C362 1.136 . S
C1445 C395 1.172 . S
C1451 C205 1.173 . S
C1465 C351 1.169 . S
C1471 C235 1.170 . S
