# Generated by pormake.
# Topology uoj, (4)-cn, num edge types: 1
# Building blocks:
#     Node 0, Type 0, BuildingBlock: KOZSID_clean_sbu_0, # of connection points: 4
#     Node 1, Type 0, BuildingBlock: KOZSID_clean_sbu_0, # of connection points: 4
#     Node 2, Type 0, BuildingBlock: KOZSID_clean_sbu_0, # of connection points: 4
#     Node 3, Type 0, BuildingBlock: KOZSID_clean_sbu_0, # of connection points: 4
#     Node 4, Type 0, BuildingBlock: KOZSID_clean_sbu_0, # of connection points: 4
#     Node 5, Type 0, BuildingBlock: KOZSID_clean_sbu_0, # of connection points: 4
#     Node 6, Type 0, BuildingBlock: KOZSID_clean_sbu_0, # of connection points: 4
#     Node 7, Type 0, BuildingBlock: KOZSID_clean_sbu_0, # of connection points: 4
#     Edge 8, Type (0, 0), BuildingBlock: XIVTED_clean_linker_0, # of connection points: 2
#     Edge 9, Type (0, 0), BuildingBlock: XIVTED_clean_linker_0, # of connection points: 2
#     Edge 10, Type (0, 0), BuildingBlock: XIVTED_clean_linker_0, # of connection points: 2
#     Edge 11, Type (0, 0), BuildingBlock: XIVTED_clean_linker_0, # of connection points: 2
#     Edge 12, Type (0, 0), BuildingBlock: XIVTED_clean_linker_0, # of connection points: 2
#     Edge 13, Type (0, 0), BuildingBlock: XIVTED_clean_linker_0, # of connection points: 2
#     Edge 14, Type (0, 0), BuildingBlock: XIVTED_clean_linker_0, # of connection points: 2
#     Edge 15, Type (0, 0), BuildingBlock: XIVTED_clean_linker_0, # of connection points: 2
#     Edge 16, Type (0, 0), BuildingBlock: XIVTED_clean_linker_0, # of connection points: 2
#     Edge 17, Type (0, 0), BuildingBlock: XIVTED_clean_linker_0, # of connection points: 2
#     Edge 18, Type (0, 0), BuildingBlock: XIVTED_clean_linker_0, # of connection points: 2
#     Edge 19, Type (0, 0), BuildingBlock: XIVTED_clean_linker_0, # of connection points: 2
#     Edge 20, Type (0, 0), BuildingBlock: XIVTED_clean_linker_0, # of connection points: 2
#     Edge 21, Type (0, 0), BuildingBlock: XIVTED_clean_linker_0, # of connection points: 2
#     Edge 22, Type (0, 0), BuildingBlock: XIVTED_clean_linker_0, # of connection points: 2
#     Edge 23, Type (0, 0), BuildingBlock: XIVTED_clean_linker_0, # of connection points: 2
# Relax obj value: 0.034
# Max RMSD: 0.317
# Mean RMSD: 0.297
data_MOF--net-uoj--node1-KOZSID_clean_sbu_0--edge1-XIVTED_clean_linker_0
_symmetry_space_group_name_H-M    P1
_symmetry_Int_Tables_number       1
_symmetry_cell_setting            triclinic
loop_
_symmetry_equiv_pos_as_xyz
'x, y, z'
_cell_length_a     38.560539
_cell_length_b     40.879251
_cell_length_c     48.124064
_cell_angle_alpha  89.851379
_cell_angle_beta   90.047553
_cell_angle_gamma 94.430274
loop_
_atom_site_label
_atom_site_type_symbol
_atom_site_fract_x
_atom_site_fract_y
_atom_site_fract_z
_atom_type_partial_charge
C0 C 0.12472 0.31531 0.38624 0.0
C1 C 0.15249 0.33824 0.39106 0.0
C2 C 0.14903 0.34925 0.41772 0.0
C3 C 0.11948 0.33244 0.42781 0.0
N4 N 0.10449 0.3109 0.40941 0.0
Co5 Co 0.05916 0.28472 0.4154 0.0
N6 N 0.05892 0.29349 0.45623 0.0
C7 C 0.07959 0.31651 0.46938 0.0
C8 C 0.07449 0.31637 0.49763 0.0
C9 C 0.04887 0.29179 0.50258 0.0
C10 C 0.03951 0.27833 0.47698 0.0
N11 N 1.01324 0.25958 0.42098 0.0
C12 C 0.99691 0.24844 0.44454 0.0
C13 C 0.96407 0.2336 0.43868 0.0
C14 C 0.95995 0.23498 0.41054 0.0
C15 C 0.99019 0.25075 0.40083 0.0
N16 N 0.05909 0.2747 0.37472 0.0
C17 C 0.03155 0.26169 0.36011 0.0
C18 C 0.03832 0.25752 0.3325 0.0
C19 C 0.07212 0.26924 0.32911 0.0
C20 C 0.0842 0.28012 0.355 0.0
N21 N 0.08404 0.24501 0.42322 0.0
C22 C 0.11995 0.18984 0.4393 0.0
C23 C 0.09011 0.18634 0.42222 0.0
C24 C 0.0726 0.21419 0.41438 0.0
C25 C 0.13161 0.2218 0.44713 0.0
C26 C 0.1134 0.24851 0.43926 0.0
N27 N 0.03581 0.32573 0.40854 0.0
C28 C 0.03974 0.37887 0.3859 0.0
C29 C 0.02135 0.39277 0.40747 0.0
C30 C 1.00753 0.37128 0.42829 0.0
C31 C 1.01461 0.33792 0.42822 0.0
C32 C 0.04629 0.34565 0.38669 0.0
H33 H 1.00451 0.3225 0.44505 0.0
H34 H 0.06206 0.33699 0.37036 0.0
H35 H 0.0496 0.21075 0.40159 0.0
H36 H 0.12318 0.27209 0.44679 0.0
C37 C 0.10643 0.33435 0.45494 0.0
C38 C 0.11676 0.30098 0.35858 0.0
C39 C 1.01078 0.25264 0.47281 0.0
C40 C 1.0001 0.25248 0.3731 0.0
H41 H 0.17258 0.34681 0.3765 0.0
H42 H 0.16604 0.36736 0.42845 0.0
H43 H 0.08853 0.33154 0.51296 0.0
H44 H 0.0383 0.28468 0.52271 0.0
H45 H 0.94498 0.22284 0.45316 0.0
H46 H 0.93809 0.22453 0.39853 0.0
H47 H 1.02063 0.24759 0.31663 0.0
H48 H 0.08551 0.27111 0.30938 0.0
H49 H 0.07983 0.16229 0.41544 0.0
H50 H 0.15495 0.22652 0.45946 0.0
H51 H 0.051 0.39387 0.36915 0.0
H52 H 0.99204 0.38024 0.44497 0.0
C53 C 0.38398 0.94966 0.57698 0.0
C54 C 0.41029 0.93425 0.56374 0.0
C55 C 0.39458 0.90924 0.54854 0.0
C56 C 0.35976 0.91036 0.55357 0.0
N57 N 0.35217 0.93447 0.57108 0.0
Co58 Co 0.30466 0.94254 0.58505 0.0
N59 N 0.28401 0.89924 0.57069 0.0
C60 C 0.30021 0.87889 0.55394 0.0
C61 C 0.28036 0.85095 0.54697 0.0
C62 C 0.24917 0.85384 0.55959 0.0
C63 C 0.25168 0.88363 0.57366 0.0
N64 N 0.25689 0.9508 0.59827 0.0
C65 C 0.22618 0.93176 0.59703 0.0
C66 C 0.19875 0.949 0.60611 0.0
C67 C 0.21236 0.98005 0.61239 0.0
C68 C 0.2473 0.98011 0.60696 0.0
N69 N 0.32611 0.98527 0.59978 0.0
C70 C 0.30835 1.01049 0.60827 0.0
C71 C 0.32958 0.03696 0.61712 0.0
C72 C 0.36291 0.02799 0.61383 0.0
C73 C 0.36022 0.99642 0.60318 0.0
N74 N 0.29331 0.96472 0.54963 0.0
C75 C 0.2633 1.01044 0.51444 0.0
C76 C 0.29752 1.01622 0.52442 0.0
C77 C 0.3123 0.99277 0.54133 0.0
C78 C 0.24641 0.97946 0.51964 0.0
C79 C 0.26185 0.95706 0.53696 0.0
N80 N 0.31488 0.92201 0.62128 0.0
C81 C 0.31484 0.92646 0.67142 0.0
C82 C 0.3313 0.89726 0.67464 0.0
C83 C 0.3393 0.88063 0.65003 0.0
C84 C 0.331 0.89342 0.62367 0.0
C85 C 0.30661 0.93795 0.64506 0.0
H86 H 0.33779 0.88026 0.60532 0.0
H87 H 0.29397 0.96038 0.64417 0.0
H88 H 0.33816 0.9986 0.54933 0.0
H89 H 0.24666 0.93471 0.54168 0.0
C90 C 0.3346 0.88588 0.54619 0.0
C91 C 0.39056 0.97922 0.59411 0.0
C92 C 0.22112 0.89852 0.58493 0.0
C93 C 0.27203 1.00679 0.61051 0.0
H94 H 0.43808 0.94002 0.56515 0.0
H95 H 0.40719 0.8913 0.53643 0.0
H96 H 0.28758 0.831 0.53397 0.0
H97 H 0.22675 0.83651 0.55735 0.0
H98 H 0.17155 0.94031 0.60716 0.0
H99 H 0.19834 1.00029 0.61971 0.0
H100 H 0.32179 0.05983 0.62547 0.0
H101 H 0.38652 0.04311 0.61833 0.0
H102 H 0.31236 0.03925 0.52009 0.0
H103 H 0.22024 0.97331 0.51213 0.0
H104 H 0.30878 0.94119 0.68915 0.0
H105 H 0.35171 0.85781 0.65097 0.0
C106 C 0.91457 0.72099 0.38891 0.0
C107 C 0.88632 0.69856 0.39368 0.0
C108 C 0.88936 0.68746 0.42041 0.0
C109 C 0.91914 0.70371 0.4306 0.0
N110 N 0.93468 0.72502 0.41219 0.0
Co111 Co 0.98047 0.75027 0.41828 0.0
N112 N 0.98039 0.7413 0.45911 0.0
C113 C 0.95931 0.71854 0.47225 0.0
C114 C 0.96419 0.7187 0.50055 0.0
C115 C 0.99006 0.74305 0.50552 0.0
C116 C 0.99972 0.75637 0.4799 0.0
N117 N 0.02682 0.77446 0.42398 0.0
C118 C 0.04304 0.78542 0.44758 0.0
C119 C 0.07619 0.79965 0.44195 0.0
C120 C 0.08062 0.79809 0.41385 0.0
C121 C 0.05021 0.78281 0.40396 0.0
N122 N 0.98091 0.76062 0.37761 0.0
C123 C 1.00875 0.7732 0.36311 0.0
C124 C 1.00216 0.77778 0.3355 0.0
C125 C 0.96818 0.76675 0.33198 0.0
C126 C 0.95579 0.7558 0.35781 0.0
N127 N 0.95649 0.79048 0.42598 0.0
C128 C 0.92065 0.84619 0.44002 0.0
C129 C 0.95112 0.84919 0.42372 0.0
C130 C 0.96846 0.82103 0.41674 0.0
C131 C 0.90904 0.81471 0.44911 0.0
C132 C 0.92715 0.78763 0.44209 0.0
N133 N 1.00291 0.70878 0.41142 0.0
C134 C 0.99907 0.65643 0.3877 0.0
C135 C 1.0171 0.64169 0.4091 0.0
C136 C 0.03043 0.6623 0.43062 0.0
C137 C 0.02351 0.69572 0.43117 0.0
C138 C 0.9926 0.68962 0.38913 0.0
H139 H 0.03341 0.7105 0.4484 0.0
H140 H 0.97718 0.69886 0.37281 0.0
H141 H 0.99156 0.82397 0.40403 0.0
H142 H 0.9173 0.76431 0.45025 0.0
C143 C 0.9321 0.70133 0.45777 0.0
C144 C 0.92306 0.73511 0.36119 0.0
C145 C 0.02852 0.78195 0.47567 0.0
C146 C 0.04038 0.78155 0.37618 0.0
H147 H 0.8662 0.69034 0.37904 0.0
H148 H 0.87195 0.66959 0.4311 0.0
H149 H 0.94977 0.70379 0.51588 0.0
H150 H 1.00053 0.75015 0.52566 0.0
H151 H 0.09518 0.81028 0.45657 0.0
H152 H 0.10273 0.80824 0.40195 0.0
H153 H 1.0201 0.78748 0.31969 0.0
H154 H 0.95489 0.76528 0.3122 0.0
H155 H 0.96124 0.87299 0.41613 0.0
H156 H 0.88626 0.8109 0.46223 0.0
H157 H 0.98812 0.6421 0.37048 0.0
H158 H 0.04553 0.65262 0.44729 0.0
C159 C 0.65531 0.08066 0.57113 0.0
C160 C 0.62938 0.09425 0.5558 0.0
C161 C 0.64375 0.12279 0.54471 0.0
C162 C 0.67741 0.12527 0.5539 0.0
N163 N 0.68578 0.10001 0.56999 0.0
Co164 Co 0.73261 0.09513 0.5874 0.0
N165 N 0.75313 0.13738 0.57052 0.0
C166 C 0.7356 0.15904 0.55608 0.0
C167 C 0.75543 0.18669 0.54811 0.0
C168 C 0.78791 0.18246 0.55795 0.0
C169 C 0.78597 0.15233 0.5715 0.0
N170 N 0.78002 0.08966 0.60329 0.0
C171 C 0.81139 0.10666 0.59826 0.0
C172 C 0.83808 0.09273 0.61214 0.0
C173 C 0.82319 0.06607 0.62623 0.0
C174 C 0.78831 0.06519 0.62017 0.0
N175 N 0.71101 0.05424 0.60578 0.0
C176 C 0.72752 0.03476 0.62314 0.0
C177 C 0.70622 1.00946 0.634 0.0
C178 C 0.67398 1.01316 0.623 0.0
C179 C 0.67737 0.04066 0.60603 0.0
N180 N 0.74667 0.06895 0.55459 0.0
C181 C 0.77998 0.02356 0.52085 0.0
C182 C 0.74761 1.01507 0.53343 0.0
C183 C 0.73126 0.0381 0.54963 0.0
C184 C 0.79302 0.05641 0.5231 0.0
C185 C 0.77599 0.07849 0.53958 0.0
N186 N 0.71973 0.11988 0.62116 0.0
C187 C 0.7379 0.14787 0.66386 0.0
C188 C 0.70464 0.14178 0.67561 0.0
C189 C 0.67861 0.12702 0.65835 0.0
C190 C 0.68657 0.11642 0.63158 0.0
C191 C 0.74472 0.13716 0.63671 0.0
H192 H 0.66568 0.10436 0.62004 0.0
H193 H 0.77075 0.14193 0.62895 0.0
H194 H 0.70678 0.03005 0.55891 0.0
H195 H 0.78787 0.10287 0.54059 0.0
C196 C 0.70114 0.15177 0.54887 0.0
C197 C 0.64832 0.05193 0.58938 0.0
C198 C 0.81672 0.13711 0.58182 0.0
C199 C 0.76294 0.04106 0.6287 0.0
H200 H 0.60232 0.08554 0.5538 0.0
H201 H 0.63084 0.14025 0.53219 0.0
H202 H 0.74745 0.20706 0.53587 0.0
H203 H 0.81062 0.19921 0.55458 0.0
H204 H 0.86539 0.10118 0.6122 0.0
H205 H 0.83632 0.04909 0.63907 0.0
H206 H 0.71327 0.99052 0.64823 0.0
H207 H 0.6507 0.99727 0.6268 0.0
H208 H 0.73548 0.99037 0.53193 0.0
H209 H 0.81679 0.06515 0.5126 0.0
H210 H 0.7591 0.15961 0.67585 0.0
H211 H 0.65204 0.12295 0.66556 0.0
C212 C 0.41646 0.75569 0.97371 0.0
C213 C 0.38789 0.75096 0.99129 0.0
C214 C 0.38254 0.78076 1.00241 0.0
C215 C 0.40767 0.80201 0.99082 0.0
N216 N 0.42864 0.78775 0.97286 0.0
Co217 Co 0.46638 0.81105 0.9501 0.0
N218 N 0.46466 0.85253 0.97222 0.0
C219 C 0.442 0.85763 0.99277 0.0
C220 C 0.44759 0.88754 1.00544 0.0
C221 C 0.4751 0.90294 0.99169 0.0
C222 C 0.48435 0.88166 0.971 0.0
N223 N 0.50294 0.83558 0.92665 0.0
C224 C 0.51672 0.86753 0.92764 0.0
C225 C 0.53757 0.87508 0.9047 0.0
C226 C 0.53632 0.84752 0.88849 0.0
C227 C 0.51475 0.82464 0.90226 0.0
N228 N 0.46851 0.76907 0.92897 0.0
C229 C 0.48533 0.76583 0.90479 0.0
C230 C 0.48306 0.73411 0.8952 0.0
C231 C 0.46336 0.71619 0.91448 0.0
C232 C 0.4545 0.73803 0.93478 0.0
N233 N 0.43106 0.82524 0.92324 0.0
C234 C 0.3993 0.84028 0.87219 0.0
C235 C 0.39477 0.80874 0.88377 0.0
C236 C 0.4099 0.80202 0.90957 0.0
C237 C 0.41679 0.86489 0.8883 0.0
C238 C 0.4323 0.85692 0.91364 0.0
N239 N 0.50266 0.7952 0.97547 0.0
C240 C 0.55573 0.76708 0.97892 0.0
C241 C 0.54983 0.75941 1.00697 0.0
C242 C 0.52058 0.77202 0.01944 0.0
C243 C 0.49733 0.7897 1.00336 0.0
C244 C 0.53236 0.78485 0.96385 0.0
H245 H 0.4745 0.79779 0.01335 0.0
H246 H 0.53793 0.78864 0.94224 0.0
H247 H 0.40616 0.77733 0.91743 0.0
H248 H 0.44694 0.87627 0.92439 0.0
C249 C 0.41547 0.83408 0.99943 0.0
C250 C 0.43067 0.72902 0.9581 0.0
C251 C 0.50759 0.89251 0.94804 0.0
C252 C 0.50535 0.79255 0.89326 0.0
H253 H 0.37253 0.72832 0.99585 0.0
H254 H 0.3634 0.78607 0.01787 0.0
H255 H 0.43287 0.89728 0.02225 0.0
H256 H 0.48589 0.92778 0.99544 0.0
H257 H 0.55116 0.89849 0.89966 0.0
H258 H 0.54901 0.84476 0.86867 0.0
H259 H 0.49483 0.72495 0.87665 0.0
H260 H 0.45598 0.69014 0.91351 0.0
H261 H 0.38028 0.78912 0.87266 0.0
H262 H 0.42031 0.88987 0.88064 0.0
H263 H 0.57819 0.75882 0.96828 0.0
H264 H 0.51483 0.76711 0.04113 0.0
C265 C 0.73884 0.59567 0.10261 0.0
C266 C 0.70936 0.57872 0.11346 0.0
C267 C 0.71881 0.54834 0.12123 0.0
C268 C 0.75349 0.54829 0.11477 0.0
N269 N 0.76677 0.57699 0.10392 0.0
Co270 Co 0.81509 0.58474 0.08883 0.0
N271 N 0.83173 0.54449 0.10669 0.0
C272 C 0.81087 0.51974 0.11743 0.0
C273 C 0.82901 0.49487 0.128 0.0
C274 C 0.8635 0.50441 0.12346 0.0
C275 C 0.86462 0.53472 0.11037 0.0
N276 N 0.86316 0.59242 0.07314 0.0
C277 C 0.89342 0.57907 0.07979 0.0
C278 C 0.92109 0.59362 0.06452 0.0
C279 C 0.90777 0.61597 0.04726 0.0
C280 C 0.87294 0.61434 0.05314 0.0
N281 N 0.79937 0.62555 0.0711 0.0
C282 C 0.81713 0.64386 0.05175 0.0
C283 C 0.80072 0.67062 0.04311 0.0
C284 C 0.77022 0.66906 0.05752 0.0
C285 C 0.76966 0.64118 0.07417 0.0
N286 N 0.82933 0.60972 0.12276 0.0
C287 C 0.85003 0.64129 0.17317 0.0
C288 C 0.8592 0.6555 0.14721 0.0
C289 C 0.84879 0.63923 0.12227 0.0
C290 C 0.82965 0.61147 0.17302 0.0
C291 C 0.8196 0.5964 0.14797 0.0
N292 N 0.79928 0.5581 0.05587 0.0
C293 C 0.74927 0.53812 0.02851 0.0
C294 C 0.76317 0.50784 0.02404 0.0
C295 C 0.79752 0.50498 0.03322 0.0
C296 C 0.81518 0.53045 0.04872 0.0
C297 C 0.76767 0.56275 0.04405 0.0
H298 H 0.84081 0.52664 0.05651 0.0
H299 H 0.75479 0.5846 0.04805 0.0
H300 H 0.8567 0.65036 0.1027 0.0
H301 H 0.80404 0.57356 0.14929 0.0
C302 C 0.77496 0.52267 0.11991 0.0
C303 C 0.73824 0.62813 0.08899 0.0
C304 C 0.89709 0.55179 0.09938 0.0
C305 C 0.85036 0.63686 0.04386 0.0
H306 H 0.6835 0.58717 0.11485 0.0
H307 H 0.70229 0.52859 0.13039 0.0
H308 H 0.8185 0.47269 0.13827 0.0
H309 H 0.88532 0.49045 0.12874 0.0
H310 H 0.94828 0.58897 0.06583 0.0
H311 H 0.92209 0.63265 0.03314 0.0
H312 H 0.8099 0.68916 0.02817 0.0
H313 H 0.75011 0.68592 0.0552 0.0
H314 H 0.87492 0.67859 0.14616 0.0
H315 H 0.82116 0.5997 0.1923 0.0
H316 H 0.7236 0.54251 0.02089 0.0
H317 H 0.81007 0.48253 0.02993 0.0
C318 C 0.6281 0.2793 0.97763 0.0
C319 C 0.65351 0.28467 0.99795 0.0
C320 C 0.65731 0.25514 1.01031 0.0
C321 C 0.63411 0.23349 0.99698 0.0
N322 N 0.61571 0.24725 0.97682 0.0
Co323 Co 0.57916 0.22385 0.95289 0.0
N324 N 0.5789 0.18262 0.97585 0.0
C325 C 0.59964 0.1778 0.9978 0.0
C326 C 0.59296 0.14803 1.01062 0.0
C327 C 0.56678 0.1324 0.99553 0.0
C328 C 0.55933 0.15345 0.97402 0.0
N329 N 0.54364 0.19932 0.92845 0.0
C330 C 0.52976 0.16739 0.92924 0.0
C331 C 0.51009 0.15979 0.90567 0.0
C332 C 0.51222 0.18728 0.88927 0.0
C333 C 0.53309 0.21015 0.90356 0.0
N334 N 0.57891 0.26547 0.93077 0.0
C335 C 0.56348 0.26849 0.90592 0.0
C336 C 0.56753 0.2998 0.89536 0.0
C337 C 0.58699 0.31772 0.91469 0.0
C338 C 0.59375 0.2963 0.93603 0.0
N339 N 0.61577 0.20872 0.92777 0.0
C340 C 0.64776 0.19222 0.87718 0.0
C341 C 0.65332 0.22381 0.88864 0.0
C342 C 0.63784 0.23126 0.91413 0.0
C343 C 0.62983 0.1682 0.89382 0.0
C344 C 0.61445 0.17684 0.9189 0.0
N345 N 0.5417 0.24049 0.97654 0.0
C346 C 0.4892 0.26969 0.9779 0.0
C347 C 0.49322 0.27646 1.0063 0.0
C348 C 0.52122 0.26291 0.01987 0.0
C349 C 0.5451 0.24517 1.00468 0.0
C350 C 0.51319 0.2518 0.96369 0.0
H351 H 0.56684 0.23629 0.01567 0.0
H352 H 0.50908 0.2485 0.94183 0.0
H353 H 0.64186 0.25605 0.92161 0.0
H354 H 0.59981 0.15779 0.93 0.0
C355 C 0.62528 0.2016 1.00576 0.0
C356 C 0.61707 0.30543 0.95953 0.0
C357 C 0.53786 0.14241 0.95009 0.0
C358 C 0.54353 0.24192 0.89428 0.0
H359 H 0.66754 0.30764 1.00361 0.0
H360 H 0.6739 0.25033 0.02777 0.0
H361 H 0.60608 0.13854 0.02846 0.0
H362 H 0.55565 0.10762 0.99907 0.0
H363 H 0.4968 0.13639 0.9003 0.0
H364 H 0.50072 0.18994 0.86894 0.0
H365 H 0.55734 0.30864 0.87601 0.0
H366 H 0.59584 0.34343 0.91305 0.0
H367 H 0.66776 0.24334 0.8774 0.0
H368 H 0.62647 0.14289 0.88713 0.0
H369 H 0.4677 0.27863 0.96638 0.0
H370 H 0.52553 0.26707 0.04186 0.0
C371 C 0.30484 0.44131 0.10027 0.0
C372 C 0.33459 0.45798 0.1109 0.0
C373 C 0.32546 0.48835 0.1189 0.0
C374 C 0.29069 0.48864 0.11278 0.0
N375 N 0.27707 0.46013 0.10193 0.0
Co376 Co 0.22854 0.45283 0.08721 0.0
N377 N 0.21239 0.4929 0.10553 0.0
C378 C 0.23351 0.51736 0.11634 0.0
C379 C 0.21564 0.5421 0.12733 0.0
C380 C 0.18106 0.53278 0.12301 0.0
C381 C 0.1796 0.50272 0.10961 0.0
N382 N 0.18027 0.44571 0.07178 0.0
C383 C 0.15018 0.4591 0.07877 0.0
C384 C 0.12223 0.44481 0.06367 0.0
C385 C 0.13522 0.42266 0.04614 0.0
C386 C 0.17011 0.4241 0.05171 0.0
N387 N 0.2437 0.4121 0.0692 0.0
C388 C 0.22559 0.39412 0.04988 0.0
C389 C 0.24167 0.36731 0.04104 0.0
C390 C 0.27231 0.36848 0.05528 0.0
C391 C 0.27328 0.39619 0.07204 0.0
N392 N 0.21446 0.42751 0.12111 0.0
C393 C 0.19289 0.39626 0.17153 0.0
C394 C 0.1833 0.38235 0.14561 0.0
C395 C 0.19416 0.39847 0.12065 0.0
C396 C 0.2143 0.42547 0.17135 0.0
C397 C 0.22479 0.44037 0.1463 0.0
N398 N 0.24421 0.47983 0.05428 0.0
C399 C 0.29366 0.499 0.0258 0.0
C400 C 0.28075 0.52984 0.02264 0.0
C401 C 0.24745 0.53396 0.03319 0.0
C402 C 0.22923 0.50837 0.04819 0.0
C403 C 0.27511 0.47447 0.04154 0.0
H404 H 0.20407 0.51276 0.05653 0.0
H405 H 0.28746 0.45218 0.045 0.0
H406 H 0.1858 0.38768 0.10109 0.0
H407 H 0.24101 0.46282 0.1476 0.0
C408 C 0.26945 0.51427 0.11838 0.0
C409 C 0.30495 0.40889 0.08668 0.0
C410 C 0.14692 0.48606 0.09864 0.0
C411 C 0.19239 0.40149 0.04221 0.0
H412 H 0.3604 0.44937 0.11204 0.0
H413 H 0.34224 0.5079 0.12802 0.0
H414 H 0.22641 0.56406 0.1377 0.0
H415 H 0.1594 0.54675 0.1286 0.0
H416 H 0.09507 0.44939 0.06531 0.0
H417 H 0.1206 0.40617 0.0321 0.0
H418 H 0.23219 0.34901 0.02608 0.0
H419 H 0.29225 0.35149 0.05277 0.0
H420 H 0.1668 0.35972 0.14461 0.0
H421 H 0.2231 0.43695 0.19064 0.0
H422 H 0.31907 0.49451 0.01772 0.0
H423 H 0.23606 0.55719 0.03073 0.0
H424 H 0.16754 0.42784 0.21643 0.0
H425 H 0.15614 0.27182 0.31921 0.0
H426 H 0.19083 0.33148 0.1895 0.0
H427 H 0.11396 0.36353 0.33852 0.0
H428 H 0.17455 0.29412 0.27345 0.0
H429 H 0.15224 0.40549 0.2623 0.0
C430 C 0.16943 0.40189 0.22013 0.0
C431 C 0.18069 0.38161 0.19888 0.0
C432 C 0.16161 0.3095 0.28779 0.0
C433 C 0.16322 0.35563 0.25203 0.0
C434 C 0.15146 0.2969 0.31403 0.0
C435 C 0.13376 0.31593 0.33284 0.0
C436 C 0.15427 0.34155 0.28028 0.0
C437 C 0.12786 0.34811 0.32485 0.0
C438 C 0.16061 0.3891 0.24643 0.0
C439 C 0.18211 0.34806 0.20506 0.0
N440 N 0.13797 0.35981 0.29929 0.0
N441 N 0.17375 0.3362 0.23104 0.0
H442 H 0.38541 0.86005 0.69154 0.0
H443 H 0.3614 0.89055 0.85377 0.0
H444 H 0.29737 0.90646 0.72457 0.0
H445 H 0.41067 0.80618 0.82425 0.0
H446 H 0.34401 0.90229 0.80583 0.0
H447 H 0.40066 0.84445 0.73905 0.0
C448 C 0.36905 0.86689 0.70849 0.0
C449 C 0.34018 0.88527 0.70346 0.0
C450 C 0.35852 0.88113 0.80985 0.0
C451 C 0.35842 0.86807 0.75842 0.0
C452 C 0.36853 0.87447 0.83722 0.0
C453 C 0.38733 0.84719 0.84318 0.0
C454 C 0.36808 0.86091 0.78794 0.0
C455 C 0.39585 0.82725 0.82073 0.0
C456 C 0.37801 0.85807 0.73575 0.0
C457 C 0.32054 0.89342 0.72689 0.0
N458 N 0.38651 0.83466 0.79417 0.0
N459 N 0.33022 0.88518 0.75309 0.0
H460 H 0.92586 0.67211 0.34267 0.0
H461 H 0.8512 0.70633 0.1899 0.0
H462 H 0.88504 0.76364 0.32025 0.0
H463 H 0.87456 0.61076 0.21926 0.0
H464 H 0.86582 0.72885 0.23627 0.0
H465 H 0.90798 0.64972 0.29721 0.0
C466 C 0.91245 0.68728 0.32835 0.0
C467 C 0.90667 0.71971 0.33541 0.0
C468 C 0.86772 0.70294 0.23253 0.0
C469 C 0.88697 0.69454 0.28263 0.0
C470 C 0.85967 0.69012 0.20594 0.0
C471 C 0.8614 0.65648 0.20051 0.0
C472 C 0.87803 0.68211 0.25389 0.0
C473 C 0.87232 0.63672 0.22239 0.0
C474 C 0.90251 0.6746 0.30223 0.0
C475 C 0.88972 0.73843 0.31574 0.0
N476 N 0.88018 0.64976 0.24788 0.0
N477 N 0.8808 0.72574 0.29023 0.0
H478 H 0.70398 0.21946 0.84604 0.0
H479 H 0.65872 0.10821 0.71153 0.0
H480 H 0.61573 0.14805 0.84013 0.0
H481 H 0.7337 0.19228 0.7093 0.0
H482 H 0.64602 0.12053 0.7597 0.0
H483 H 0.71835 0.20802 0.79756 0.0
C484 C 0.68753 0.20141 0.83478 0.0
C485 C 0.65854 0.18467 0.84779 0.0
C486 C 0.6652 0.13641 0.74872 0.0
C487 C 0.67538 0.17114 0.79183 0.0
C488 C 0.67236 0.12954 0.7209 0.0
C489 C 0.69712 0.1494 0.70566 0.0
C490 C 0.68303 0.16326 0.76203 0.0
C491 C 0.71457 0.176 0.71988 0.0
C492 C 0.69592 0.19481 0.80698 0.0
C493 C 0.63877 0.16121 0.83169 0.0
N494 N 0.70719 0.18212 0.74711 0.0
N495 N 0.64755 0.15523 0.80485 0.0
H496 H 0.26442 0.0754 0.52905 0.0
H497 H 0.13062 0.13056 0.41305 0.0
H498 H 0.21741 1.0065 0.46978 0.0
H499 H 0.15321 0.18297 0.48952 0.0
H500 H 0.1657 0.08666 0.42983 0.0
H501 H 0.22927 0.11758 0.51029 0.0
C502 C 0.24712 0.06918 0.51179 0.0
C503 C 0.24415 0.03714 0.50104 0.0
C504 C 0.16292 0.10787 0.44283 0.0
C505 C 0.20309 0.08574 0.47946 0.0
C506 C 0.14266 0.13294 0.43334 0.0
C507 C 0.13913 0.1612 0.44951 0.0
C508 C 0.18012 0.11103 0.46863 0.0
C509 C 0.15578 0.16251 0.47566 0.0
C510 C 0.22669 0.09329 0.50125 0.0
C511 C 0.22055 0.0307 0.47893 0.0
N512 N 0.17557 0.13816 0.48417 0.0
N513 N 0.20108 0.0547 0.46886 0.0
H514 H 0.18488 0.84092 0.60153 0.0
H515 H 0.03733 0.84815 0.48349 0.0
H516 H 0.17729 0.923 0.54626 0.0
H517 H 0.06659 0.75751 0.51894 0.0
H518 H 0.07958 0.8785 0.51393 0.0
H519 H 0.1332 0.81307 0.57922 0.0
C520 C 0.17179 0.85343 0.58517 0.0
C521 C 0.18552 0.88439 0.57579 0.0
C522 C 0.07631 0.85201 0.51552 0.0
C523 C 0.12622 0.85255 0.54998 0.0
C524 C 0.05187 0.83468 0.49835 0.0
C525 C 0.04781 0.80019 0.49894 0.0
C526 C 0.09706 0.83491 0.53372 0.0
C527 C 0.06812 0.78404 0.51818 0.0
C528 C 0.14248 0.83739 0.57226 0.0
C529 C 0.1676 0.89928 0.5543 0.0
N530 N 0.09186 0.80146 0.53465 0.0
N531 N 0.13913 0.88324 0.5421 0.0
H532 H 0.75592 0.9682 0.49096 0.0
H533 H 0.94586 0.90788 0.4581 0.0
H534 H 0.85145 0.02096 0.51757 0.0
H535 H 0.84979 0.85027 0.44118 0.0
H536 H 0.91211 0.95199 0.47594 0.0
H537 H 0.79001 0.92701 0.46954 0.0
C538 C 0.78399 0.97128 0.49243 0.0
C539 C 0.80047 0.99851 0.50633 0.0
C540 C 0.89841 0.92975 0.46819 0.0
C541 C 0.84013 0.95102 0.4812 0.0
C542 C 0.91772 0.9046 0.45777 0.0
C543 C 0.90083 0.87501 0.44824 0.0
C544 C 0.86179 0.92555 0.46894 0.0
C545 C 0.86415 0.8723 0.44866 0.0
C546 C 0.80355 0.94769 0.47997 0.0
C547 C 0.83721 1.00095 0.50683 0.0
N548 N 0.84604 0.89701 0.45884 0.0
N549 N 0.85562 0.97765 0.49459 0.0
H550 H 0.85459 0.19192 0.60146 0.0
H551 H 0.97229 0.28044 0.51363 0.0
H552 H 0.85854 0.11548 0.54054 0.0
H553 H 0.99929 0.18678 0.48336 0.0
H554 H 0.92943 0.25232 0.54473 0.0
H555 H 0.90628 0.22071 0.58034 0.0
C556 C 0.86682 0.18092 0.58391 0.0
C557 C 0.85224 0.15121 0.5728 0.0
C558 C 0.94541 0.23767 0.53205 0.0
C559 C 0.911 0.18473 0.54756 0.0
C560 C 0.97018 0.25388 0.51433 0.0
C561 C 0.99023 0.23601 0.49632 0.0
C562 C 0.94002 0.20312 0.5316 0.0
C563 C 0.98497 0.20154 0.49728 0.0
C564 C 0.89605 0.19766 0.57148 0.0
C565 C 0.869 0.13823 0.54986 0.0
N566 N 0.9602 0.18634 0.51422 0.0
N567 N 0.89726 0.15507 0.53797 0.0
H568 H 0.30165 0.54123 0.96829 0.0
H569 H 0.43699 0.69372 1.0058 0.0
H570 H 0.31244 0.58205 0.05047 0.0
H571 H 0.38816 0.68693 0.92534 0.0
H572 H 0.40129 0.64442 0.02059 0.0
H573 H 0.3413 0.58696 0.95048 0.0
C574 C 0.31223 0.5599 0.98253 0.0
C575 C 0.30335 0.55805 1.01086 0.0
C576 C 0.3988 0.6533 0.99952 0.0
C577 C 0.34967 0.6098 0.99082 0.0
C578 C 0.41956 0.68119 0.99093 0.0
C579 C 0.41599 0.69438 0.96415 0.0
C580 C 0.37439 0.63783 0.98115 0.0
C581 C 0.39231 0.67739 0.94598 0.0
C582 C 0.33489 0.58593 0.97238 0.0
C583 C 0.31822 0.58271 0.02845 0.0
N584 N 0.37242 0.6501 0.95479 0.0
N585 N 0.34074 0.60726 0.01825 0.0
H586 H 0.71055 0.68159 0.11308 0.0
H587 H 0.5758 0.70287 0.98803 0.0
H588 H 0.69105 0.61075 0.0479 0.0
H589 H 0.5787 0.7652 0.0602 0.0
H590 H 0.61751 0.66914 1.01028 0.0
H591 H 0.66216 0.712 0.09552 0.0
C592 C 0.69545 0.67195 0.09553 0.0
C593 C 0.70449 0.64313 0.08233 0.0
C594 C 0.60903 0.69006 0.02143 0.0
C595 C 0.64963 0.6786 0.06132 0.0
C596 C 0.58518 0.70957 1.00862 0.0
C597 C 0.57363 0.73737 0.02199 0.0
C598 C 0.62223 0.6982 0.04799 0.0
C599 C 0.5866 0.74412 0.04896 0.0
C600 C 0.668 0.6895 0.08532 0.0
C601 C 0.68464 0.63242 0.05909 0.0
N602 N 0.61035 0.72499 0.06088 0.0
N603 N 0.65855 0.65017 0.04928 0.0
H604 H 0.78282 0.45856 0.98878 0.0
H605 H 0.59489 0.35746 0.98874 0.0
H606 H 0.69286 0.49119 0.03064 0.0
H607 H 0.68117 0.32909 0.94019 0.0
H608 H 0.62961 0.40785 1.00248 0.0
H609 H 0.74624 0.41194 0.96997 0.0
C610 C 0.75546 0.45609 0.99407 0.0
C611 C 0.7412 0.47936 1.01137 0.0
C612 C 0.64087 0.39095 0.98844 0.0
C613 C 0.69874 0.42553 0.98961 0.0
C614 C 0.62083 0.36234 0.98035 0.0
C615 C 0.63487 0.33935 0.96284 0.0
C616 C 0.67559 0.39657 0.97934 0.0
C617 C 0.66911 0.34648 0.95327 0.0
C618 C 0.73446 0.42944 0.98313 0.0
C619 C 0.70526 0.47454 0.01709 0.0
N620 N 0.6883 0.37418 0.96178 0.0
N621 N 0.68553 0.44833 1.00642 0.0
H622 H 0.46761 0.33317 0.98676 0.0
H623 H 0.33199 0.35509 0.11094 0.0
H624 H 0.46278 0.27028 0.0589 0.0
H625 H 0.35213 0.42578 0.04545 0.0
H626 H 0.38 0.32422 0.09356 0.0
H627 H 0.42574 0.36701 1.00845 0.0
C628 C 0.45773 0.32631 1.00719 0.0
C629 C 0.46883 0.29834 0.02074 0.0
C630 C 0.37438 0.34677 0.08324 0.0
C631 C 0.42014 0.33772 0.04612 0.0
C632 C 0.34715 0.36458 0.09335 0.0
C633 C 0.33843 0.3935 0.08001 0.0
C634 C 0.39285 0.35753 0.05922 0.0
C635 C 0.35833 0.40403 0.05673 0.0
C636 C 0.43381 0.34591 0.01969 0.0
C637 C 0.45527 0.29149 0.04753 0.0
N638 N 0.38422 0.38604 0.04703 0.0
N639 N 0.43152 0.31074 0.05914 0.0
H640 H 0.02528 0.6004 0.36449 0.0
H641 H 0.02112 0.43338 0.45357 0.0
H642 H 1.0158 0.59856 0.45383 0.0
H643 H 1.01542 0.43672 0.36405 0.0
H644 H 1.02088 0.49333 0.4546 0.0
H645 H 0.02474 0.54069 0.36453 0.0
C646 C 0.02302 0.58759 0.3842 0.0
C647 C 1.02027 0.60507 0.4092 0.0
C648 C 1.0196 0.48091 0.43474 0.0
C649 C 1.02002 0.53572 0.40934 0.0
C650 C 1.01942 0.44648 0.4341 0.0
C651 C 1.01843 0.42942 0.40866 0.0
C652 C 1.01892 0.49881 0.40975 0.0
C653 C 1.01689 0.44837 0.38421 0.0
C654 C 0.02282 0.55327 0.38417 0.0
C655 C 1.0183 0.58656 0.434 0.0
N656 N 1.01731 0.48175 0.3854 0.0
N657 N 1.0181 0.55308 0.43343 0.0
H658 H 0.60666 0.02027 0.54998 0.0
H659 H 0.43347 0.98596 0.64029 0.0
H660 H 0.60509 0.05092 0.63544 0.0
H661 H 0.43223 1.0063 0.55252 0.0
H662 H 0.4966 1.00238 0.64105 0.0
H663 H 0.54383 1.00515 0.55244 0.0
C664 C 0.59318 0.02325 0.56945 0.0
C665 C 0.61129 0.03706 0.59247 0.0
C666 C 0.48241 1.00352 0.62169 0.0
C667 C 0.53887 0.01962 0.59553 0.0
C668 C 0.44633 0.99441 0.6213 0.0
C669 C 0.42745 0.99468 0.59629 0.0
C670 C 0.49996 1.0123 0.59678 0.0
C671 C 0.44567 1.00563 0.57225 0.0
C672 C 0.5572 1.01492 0.57077 0.0
C673 C 0.59228 0.04031 0.61718 0.0
N674 N 0.48074 1.01339 0.57301 0.0
N675 N 0.55721 0.0317 0.61808 0.0
H676 H 0.47635 0.10255 0.94552 0.0
H677 H 0.56946 0.93217 0.94782 0.0
H678 H 0.58746 0.09814 0.94268 0.0
H679 H 0.45919 0.9369 0.93678 0.0
H680 H 0.57687 0.99258 0.94507 0.0
H681 H 0.46941 0.04227 0.94151 0.0
C682 C 0.49928 0.089 0.94362 0.0
C683 C 0.53253 0.10574 0.94431 0.0
C684 C 0.55105 0.98044 0.94295 0.0
C685 C 0.52488 0.03611 0.94032 0.0
C686 C 0.54688 0.94583 0.94434 0.0
C687 C 0.51368 0.92917 0.94241 0.0
C688 C 0.52178 0.99888 0.93988 0.0
C689 C 0.48531 0.94851 0.93832 0.0
C690 C 0.49535 0.05446 0.9415 0.0
C691 C 0.56128 0.08651 0.9422 0.0
N692 N 0.48995 0.98202 0.93744 0.0
N693 N 0.55683 0.05303 0.94053 0.0
H694 H 0.105 0.48767 0.1456 0.0
H695 H 0.93409 0.52186 0.05925 0.0
H696 H 0.10765 0.51538 0.05925 0.0
H697 H 0.94128 0.55047 0.14517 0.0
H698 H 0.99506 0.50847 0.06069 0.0
H699 H 0.04388 0.50224 0.14799 0.0
C700 C 0.09297 0.49726 0.12726 0.0
C701 C 0.11168 0.50005 0.10212 0.0
C702 C 0.98333 0.5174 0.07935 0.0
C703 C 0.0411 0.51568 0.10446 0.0
C704 C 0.94832 0.52478 0.07861 0.0
C705 C 0.93234 0.53764 0.10204 0.0
C706 C 1.00287 0.52194 0.10395 0.0
C707 C 0.95236 0.5407 0.12658 0.0
C708 C 0.05796 0.50536 0.12859 0.0
C709 C 0.0944 0.51255 0.07904 0.0
N710 N 0.98643 0.53295 0.12692 0.0
N711 N 0.06025 0.51923 0.08063 0.0
loop_
_geom_bond_atom_site_label_1
_geom_bond_atom_site_label_2
_geom_bond_distance
_geom_bond_site_symmetry_2
_ccdc_geom_bond_type
C0 C1 1.443 . S
C0 N4 1.376 . S
C0 C38 1.389 . S
C1 C0 1.443 . S
C1 C2 1.340 . S
C1 H41 0.951 . S
C2 C1 1.340 . S
C2 C3 1.439 . S
C2 H42 0.950 . S
C3 C2 1.439 . S
C3 N4 1.374 . S
C3 C37 1.395 . S
N4 C0 1.376 . S
N4 C3 1.374 . S
N4 Co5 2.008 . S
Co5 N4 2.008 . S
Co5 N6 1.995 . S
Co5 N11 2.008 1_455 S
Co5 N16 1.995 . S
Co5 N21 2.282 . S
Co5 N27 2.282 . S
N6 Co5 1.995 . S
N6 C7 1.376 . S
N6 C10 1.383 . S
C7 N6 1.376 . S
C7 C8 1.446 . S
C7 C37 1.391 . S
C8 C7 1.446 . S
C8 C9 1.339 . S
C8 H43 0.949 . S
C9 C8 1.339 . S
C9 C10 1.439 . S
C9 H44 0.953 . S
C10 N6 1.383 . S
C10 C9 1.439 . S
C10 C39 1.392 1_455 S
N11 Co5 2.008 1_655 S
N11 C12 1.376 . S
N11 C15 1.374 . S
C12 N11 1.376 . S
C12 C13 1.443 . S
C12 C39 1.389 . S
C13 C12 1.443 . S
C13 C14 1.340 . S
C13 H45 0.951 . S
C14 C13 1.340 . S
C14 C15 1.439 . S
C14 H46 0.950 . S
C15 N11 1.374 . S
C15 C14 1.439 . S
C15 C40 1.395 . S
N16 Co5 1.995 . S
N16 C17 1.376 . S
N16 C20 1.383 . S
C17 N16 1.376 . S
C17 C18 1.446 . S
C17 C40 1.391 1_455 S
C18 C17 1.446 . S
C18 C19 1.339 . S
C18 H47 0.949 . S
C19 C18 1.339 . S
C19 C20 1.439 . S
C19 H48 0.950 . S
C20 N16 1.383 . S
C20 C19 1.439 . S
C20 C38 1.392 . S
N21 Co5 2.282 . S
N21 C24 1.332 . S
N21 C26 1.332 . S
C22 C23 1.386 . S
C22 C25 1.388 . S
C23 C22 1.386 . S
C23 C24 1.382 . S
C23 H49 0.950 . S
C24 N21 1.332 . S
C24 C23 1.382 . S
C24 H35 0.952 . S
C25 C22 1.388 . S
C25 C26 1.382 . S
C25 H50 0.950 . S
C26 N21 1.332 . S
C26 C25 1.382 . S
C26 H36 0.948 . S
N27 Co5 2.282 . S
N27 C31 1.332 . S
N27 C32 1.332 1_455 S
C28 C29 1.388 . S
C28 C32 1.382 . S
C28 H51 0.950 . S
C29 C28 1.388 . S
C29 C30 1.386 1_655 S
C30 C29 1.386 1_455 S
C30 C31 1.382 . S
C30 H52 0.950 . S
C31 N27 1.332 . S
C31 C30 1.382 . S
C31 H33 0.952 . S
C32 N27 1.332 1_655 S
C32 C28 1.382 . S
C32 H34 0.948 . S
H33 C31 0.952 . S
H34 C32 0.948 . S
H35 C24 0.952 . S
H36 C26 0.948 . S
C37 C3 1.395 . S
C37 C7 1.391 . S
C38 C0 1.389 . S
C38 C20 1.392 . S
C39 C10 1.392 1_655 S
C39 C12 1.389 . S
C40 C15 1.395 . S
C40 C17 1.391 1_655 S
H41 C1 0.951 . S
H42 C2 0.950 . S
H43 C8 0.949 . S
H44 C9 0.953 . S
H45 C13 0.951 . S
H46 C14 0.950 . S
H47 C18 0.949 . S
H48 C19 0.950 . S
H49 C23 0.950 . S
H50 C25 0.950 . S
H51 C28 0.950 . S
H52 C30 0.950 . S
C53 C54 1.443 . S
C53 N57 1.376 . S
C53 C91 1.389 . S
C54 C53 1.443 . S
C54 C55 1.340 . S
C54 H94 0.951 . S
C55 C54 1.340 . S
C55 C56 1.439 . S
C55 H95 0.950 . S
C56 C55 1.439 . S
C56 N57 1.374 . S
C56 C90 1.395 . S
N57 C53 1.376 . S
N57 C56 1.374 . S
N57 Co58 2.008 . S
Co58 N57 2.008 . S
Co58 N59 1.995 . S
Co58 N64 2.008 . S
Co58 N69 1.995 . S
Co58 N74 2.282 . S
Co58 N80 2.282 . S
N59 Co58 1.995 . S
N59 C60 1.376 . S
N59 C63 1.383 . S
C60 N59 1.376 . S
C60 C61 1.446 . S
C60 C90 1.391 . S
C61 C60 1.446 . S
C61 C62 1.339 . S
C61 H96 0.949 . S
C62 C61 1.339 . S
C62 C63 1.439 . S
C62 H97 0.950 . S
C63 N59 1.383 . S
C63 C62 1.439 . S
C63 C92 1.392 . S
N64 Co58 2.008 . S
N64 C65 1.376 . S
N64 C68 1.374 . S
C65 N64 1.376 . S
C65 C66 1.443 . S
C65 C92 1.389 . S
C66 C65 1.443 . S
C66 C67 1.340 . S
C66 H98 0.951 . S
C67 C66 1.340 . S
C67 C68 1.439 . S
C67 H99 0.950 . S
C68 N64 1.374 . S
C68 C67 1.439 . S
C68 C93 1.395 . S
N69 Co58 1.995 . S
N69 C70 1.376 . S
N69 C73 1.383 . S
C70 N69 1.376 . S
C70 C71 1.446 1_565 S
C70 C93 1.391 . S
C71 C70 1.446 1_545 S
C71 C72 1.339 . S
C71 H100 0.949 . S
C72 C71 1.339 . S
C72 C73 1.439 1_545 S
C72 H101 0.950 . S
C73 N69 1.383 . S
C73 C72 1.439 1_565 S
C73 C91 1.392 . S
N74 Co58 2.282 . S
N74 C77 1.332 . S
N74 C79 1.332 . S
C75 C76 1.386 . S
C75 C78 1.388 1_545 S
C76 C75 1.386 . S
C76 C77 1.382 1_545 S
C76 H102 0.950 . S
C77 N74 1.332 . S
C77 C76 1.382 1_565 S
C77 H88 0.952 1_565 S
C78 C75 1.388 1_565 S
C78 C79 1.382 . S
C78 H103 0.950 . S
C79 N74 1.332 . S
C79 C78 1.382 . S
C79 H89 0.948 . S
N80 Co58 2.282 . S
N80 C84 1.332 . S
N80 C85 1.332 . S
C81 C82 1.388 . S
C81 C85 1.382 . S
C81 H104 0.950 . S
C82 C81 1.388 . S
C82 C83 1.386 . S
C83 C82 1.386 . S
C83 C84 1.382 . S
C83 H105 0.950 . S
C84 N80 1.332 . S
C84 C83 1.382 . S
C84 H86 0.952 . S
C85 N80 1.332 . S
C85 C81 1.382 . S
C85 H87 0.948 . S
H86 C84 0.952 . S
H87 C85 0.948 . S
H88 C77 0.952 1_545 S
H89 C79 0.948 . S
C90 C56 1.395 . S
C90 C60 1.391 . S
C91 C53 1.389 . S
C91 C73 1.392 . S
C92 C63 1.392 . S
C92 C65 1.389 . S
C93 C68 1.395 . S
C93 C70 1.391 . S
H94 C54 0.951 . S
H95 C55 0.950 . S
H96 C61 0.949 . S
H97 C62 0.950 . S
H98 C66 0.951 . S
H99 C67 0.950 . S
H100 C71 0.949 . S
H101 C72 0.950 . S
H102 C76 0.950 . S
H103 C78 0.950 . S
H104 C81 0.950 . S
H105 C83 0.950 . S
C106 C107 1.443 . S
C106 N110 1.376 . S
C106 C144 1.389 . S
C107 C106 1.443 . S
C107 C108 1.340 . S
C107 H147 0.951 . S
C108 C107 1.340 . S
C108 C109 1.439 . S
C108 H148 0.950 . S
C109 C108 1.439 . S
C109 N110 1.374 . S
C109 C143 1.395 . S
N110 C106 1.376 . S
N110 C109 1.374 . S
N110 Co111 2.008 . S
Co111 N110 2.008 . S
Co111 N112 1.995 . S
Co111 N117 2.008 1_655 S
Co111 N122 1.995 . S
Co111 N127 2.282 . S
Co111 N133 2.282 . S
N112 Co111 1.995 . S
N112 C113 1.376 . S
N112 C116 1.383 . S
C113 N112 1.376 . S
C113 C114 1.446 . S
C113 C143 1.391 . S
C114 C113 1.446 . S
C114 C115 1.339 . S
C114 H149 0.949 . S
C115 C114 1.339 . S
C115 C116 1.439 . S
C115 H150 0.953 . S
C116 N112 1.383 . S
C116 C115 1.439 . S
C116 C145 1.392 1_655 S
N117 Co111 2.008 1_455 S
N117 C118 1.376 . S
N117 C121 1.374 . S
C118 N117 1.376 . S
C118 C119 1.443 . S
C118 C145 1.389 . S
C119 C118 1.443 . S
C119 C120 1.340 . S
C119 H151 0.951 . S
C120 C119 1.340 . S
C120 C121 1.439 . S
C120 H152 0.950 . S
C121 N117 1.374 . S
C121 C120 1.439 . S
C121 C146 1.395 . S
N122 Co111 1.995 . S
N122 C123 1.376 . S
N122 C126 1.383 . S
C123 N122 1.376 . S
C123 C124 1.446 . S
C123 C146 1.391 1_655 S
C124 C123 1.446 . S
C124 C125 1.339 . S
C124 H153 0.949 . S
C125 C124 1.339 . S
C125 C126 1.439 . S
C125 H154 0.950 . S
C126 N122 1.383 . S
C126 C125 1.439 . S
C126 C144 1.392 . S
N127 Co111 2.282 . S
N127 C130 1.332 . S
N127 C132 1.332 . S
C128 C129 1.386 . S
C128 C131 1.388 . S
C129 C128 1.386 . S
C129 C130 1.382 . S
C129 H155 0.950 . S
C130 N127 1.332 . S
C130 C129 1.382 . S
C130 H141 0.952 . S
C131 C128 1.388 . S
C131 C132 1.382 . S
C131 H156 0.950 . S
C132 N127 1.332 . S
C132 C131 1.382 . S
C132 H142 0.948 . S
N133 Co111 2.282 . S
N133 C137 1.332 . S
N133 C138 1.332 1_655 S
C134 C135 1.388 . S
C134 C138 1.382 . S
C134 H157 0.950 . S
C135 C134 1.388 . S
C135 C136 1.386 1_455 S
C136 C135 1.386 1_655 S
C136 C137 1.382 . S
C136 H158 0.950 . S
C137 N133 1.332 . S
C137 C136 1.382 . S
C137 H139 0.952 . S
C138 N133 1.332 1_455 S
C138 C134 1.382 . S
C138 H140 0.948 . S
H139 C137 0.952 . S
H140 C138 0.948 . S
H141 C130 0.952 . S
H142 C132 0.948 . S
C143 C109 1.395 . S
C143 C113 1.391 . S
C144 C106 1.389 . S
C144 C126 1.392 . S
C145 C116 1.392 1_455 S
C145 C118 1.389 . S
C146 C121 1.395 . S
C146 C123 1.391 1_455 S
H147 C107 0.951 . S
H148 C108 0.950 . S
H149 C114 0.949 . S
H150 C115 0.953 . S
H151 C119 0.951 . S
H152 C120 0.950 . S
H153 C124 0.949 . S
H154 C125 0.950 . S
H155 C129 0.950 . S
H156 C131 0.950 . S
H157 C134 0.950 . S
H158 C136 0.950 . S
C159 C160 1.443 . S
C159 N163 1.376 . S
C159 C197 1.389 . S
C160 C159 1.443 . S
C160 C161 1.340 . S
C160 H200 0.951 . S
C161 C160 1.340 . S
C161 C162 1.439 . S
C161 H201 0.950 . S
C162 C161 1.439 . S
C162 N163 1.374 . S
C162 C196 1.395 . S
N163 C159 1.376 . S
N163 C162 1.374 . S
N163 Co164 2.008 . S
Co164 N163 2.008 . S
Co164 N165 1.995 . S
Co164 N170 2.008 . S
Co164 N175 1.995 . S
Co164 N180 2.282 . S
Co164 N186 2.282 . S
N165 Co164 1.995 . S
N165 C166 1.376 . S
N165 C169 1.383 . S
C166 N165 1.376 . S
C166 C167 1.446 . S
C166 C196 1.391 . S
C167 C166 1.446 . S
C167 C168 1.339 . S
C167 H202 0.949 . S
C168 C167 1.339 . S
C168 C169 1.439 . S
C168 H203 0.950 . S
C169 N165 1.383 . S
C169 C168 1.439 . S
C169 C198 1.392 . S
N170 Co164 2.008 . S
N170 C171 1.376 . S
N170 C174 1.374 . S
C171 N170 1.376 . S
C171 C172 1.443 . S
C171 C198 1.389 . S
C172 C171 1.443 . S
C172 C173 1.340 . S
C172 H204 0.951 . S
C173 C172 1.340 . S
C173 C174 1.439 . S
C173 H205 0.950 . S
C174 N170 1.374 . S
C174 C173 1.439 . S
C174 C199 1.395 . S
N175 Co164 1.995 . S
N175 C176 1.376 . S
N175 C179 1.383 . S
C176 N175 1.376 . S
C176 C177 1.446 1_545 S
C176 C199 1.391 . S
C177 C176 1.446 1_565 S
C177 C178 1.339 . S
C177 H206 0.949 . S
C178 C177 1.339 . S
C178 C179 1.439 1_565 S
C178 H207 0.950 . S
C179 N175 1.383 . S
C179 C178 1.439 1_545 S
C179 C197 1.392 . S
N180 Co164 2.282 . S
N180 C183 1.332 . S
N180 C185 1.332 . S
C181 C182 1.386 . S
C181 C184 1.388 1_565 S
C182 C181 1.386 . S
C182 C183 1.382 1_565 S
C182 H208 0.950 . S
C183 N180 1.332 . S
C183 C182 1.382 1_545 S
C183 H194 0.952 1_545 S
C184 C181 1.388 1_545 S
C184 C185 1.382 . S
C184 H209 0.950 . S
C185 N180 1.332 . S
C185 C184 1.382 . S
C185 H195 0.948 . S
N186 Co164 2.282 . S
N186 C190 1.332 . S
N186 C191 1.332 . S
C187 C188 1.388 . S
C187 C191 1.382 . S
C187 H210 0.950 . S
C188 C187 1.388 . S
C188 C189 1.386 . S
C189 C188 1.386 . S
C189 C190 1.382 . S
C189 H211 0.950 . S
C190 N186 1.332 . S
C190 C189 1.382 . S
C190 H192 0.952 . S
C191 N186 1.332 . S
C191 C187 1.382 . S
C191 H193 0.948 . S
H192 C190 0.952 . S
H193 C191 0.948 . S
H194 C183 0.952 1_565 S
H195 C185 0.948 . S
C196 C162 1.395 . S
C196 C166 1.391 . S
C197 C159 1.389 . S
C197 C179 1.392 . S
C198 C169 1.392 . S
C198 C171 1.389 . S
C199 C174 1.395 . S
C199 C176 1.391 . S
H200 C160 0.951 . S
H201 C161 0.950 . S
H202 C167 0.949 . S
H203 C168 0.950 . S
H204 C172 0.951 . S
H205 C173 0.950 . S
H206 C177 0.949 . S
H207 C178 0.950 . S
H208 C182 0.950 . S
H209 C184 0.950 . S
H210 C187 0.950 . S
H211 C189 0.950 . S
C212 C213 1.443 . S
C212 N216 1.376 . S
C212 C250 1.389 . S
C213 C212 1.443 . S
C213 C214 1.340 . S
C213 H253 0.951 . S
C214 C213 1.340 . S
C214 C215 1.439 . S
C214 H254 0.950 1_556 S
C215 C214 1.439 . S
C215 N216 1.374 . S
C215 C249 1.395 . S
N216 C212 1.376 . S
N216 C215 1.374 . S
N216 Co217 2.008 . S
Co217 N216 2.008 . S
Co217 N218 1.995 . S
Co217 N223 2.008 . S
Co217 N228 1.995 . S
Co217 N233 2.282 . S
Co217 N239 2.282 . S
N218 Co217 1.995 . S
N218 C219 1.376 . S
N218 C222 1.383 . S
C219 N218 1.376 . S
C219 C220 1.446 . S
C219 C249 1.391 . S
C220 C219 1.446 . S
C220 C221 1.339 . S
C220 H255 0.949 . S
C221 C220 1.339 . S
C221 C222 1.439 . S
C221 H256 0.950 . S
C222 N218 1.383 . S
C222 C221 1.439 . S
C222 C251 1.392 . S
N223 Co217 2.008 . S
N223 C224 1.376 . S
N223 C227 1.374 . S
C224 N223 1.376 . S
C224 C225 1.443 . S
C224 C251 1.389 . S
C225 C224 1.443 . S
C225 C226 1.340 . S
C225 H257 0.951 . S
C226 C225 1.340 . S
C226 C227 1.439 . S
C226 H258 0.950 . S
C227 N223 1.374 . S
C227 C226 1.439 . S
C227 C252 1.395 . S
N228 Co217 1.995 . S
N228 C229 1.376 . S
N228 C232 1.383 . S
C229 N228 1.376 . S
C229 C230 1.446 . S
C229 C252 1.391 . S
C230 C229 1.446 . S
C230 C231 1.339 . S
C230 H259 0.949 . S
C231 C230 1.339 . S
C231 C232 1.439 . S
C231 H260 0.950 . S
C232 N228 1.383 . S
C232 C231 1.439 . S
C232 C250 1.392 . S
N233 Co217 2.282 . S
N233 C236 1.332 . S
N233 C238 1.332 . S
C234 C235 1.386 . S
C234 C237 1.388 . S
C235 C234 1.386 . S
C235 C236 1.382 . S
C235 H261 0.950 . S
C236 N233 1.332 . S
C236 C235 1.382 . S
C236 H247 0.952 . S
C237 C234 1.388 . S
C237 C238 1.382 . S
C237 H262 0.950 . S
C238 N233 1.332 . S
C238 C237 1.382 . S
C238 H248 0.948 . S
N239 Co217 2.282 . S
N239 C243 1.332 . S
N239 C244 1.332 . S
C240 C241 1.388 . S
C240 C244 1.382 . S
C240 H263 0.950 . S
C241 C240 1.388 . S
C241 C242 1.386 1_556 S
C242 C241 1.386 1_554 S
C242 C243 1.382 1_554 S
C242 H264 0.950 . S
C243 N239 1.332 . S
C243 C242 1.382 1_556 S
C243 H245 0.952 . S
C244 N239 1.332 . S
C244 C240 1.382 . S
C244 H246 0.948 . S
H245 C243 0.952 . S
H246 C244 0.948 . S
H247 C236 0.952 . S
H248 C238 0.948 . S
C249 C215 1.395 . S
C249 C219 1.391 . S
C250 C212 1.389 . S
C250 C232 1.392 . S
C251 C222 1.392 . S
C251 C224 1.389 . S
C252 C227 1.395 . S
C252 C229 1.391 . S
H253 C213 0.951 . S
H254 C214 0.950 1_554 S
H255 C220 0.949 . S
H256 C221 0.950 . S
H257 C225 0.951 . S
H258 C226 0.950 . S
H259 C230 0.949 . S
H260 C231 0.950 . S
H261 C235 0.950 . S
H262 C237 0.950 . S
H263 C240 0.950 . S
H264 C242 0.950 . S
C265 C266 1.443 . S
C265 N269 1.376 . S
C265 C303 1.389 . S
C266 C265 1.443 . S
C266 C267 1.340 . S
C266 H306 0.951 . S
C267 C266 1.340 . S
C267 C268 1.439 . S
C267 H307 0.950 . S
C268 C267 1.439 . S
C268 N269 1.374 . S
C268 C302 1.395 . S
N269 C265 1.376 . S
N269 C268 1.374 . S
N269 Co270 2.008 . S
Co270 N269 2.008 . S
Co270 N271 1.995 . S
Co270 N276 2.008 . S
Co270 N281 1.995 . S
Co270 N286 2.282 . S
Co270 N292 2.282 . S
N271 Co270 1.995 . S
N271 C272 1.376 . S
N271 C275 1.383 . S
C272 N271 1.376 . S
C272 C273 1.446 . S
C272 C302 1.391 . S
C273 C272 1.446 . S
C273 C274 1.339 . S
C273 H308 0.949 . S
C274 C273 1.339 . S
C274 C275 1.439 . S
C274 H309 0.950 . S
C275 N271 1.383 . S
C275 C274 1.439 . S
C275 C304 1.392 . S
N276 Co270 2.008 . S
N276 C277 1.376 . S
N276 C280 1.374 . S
C277 N276 1.376 . S
C277 C278 1.443 . S
C277 C304 1.389 . S
C278 C277 1.443 . S
C278 C279 1.340 . S
C278 H310 0.951 . S
C279 C278 1.340 . S
C279 C280 1.439 . S
C279 H311 0.950 . S
C280 N276 1.374 . S
C280 C279 1.439 . S
C280 C305 1.395 . S
N281 Co270 1.995 . S
N281 C282 1.376 . S
N281 C285 1.383 . S
C282 N281 1.376 . S
C282 C283 1.446 . S
C282 C305 1.391 . S
C283 C282 1.446 . S
C283 C284 1.339 . S
C283 H312 0.949 . S
C284 C283 1.339 . S
C284 C285 1.439 . S
C284 H313 0.950 . S
C285 N281 1.383 . S
C285 C284 1.439 . S
C285 C303 1.392 . S
N286 Co270 2.282 . S
N286 C289 1.332 . S
N286 C291 1.332 . S
C287 C288 1.386 . S
C287 C290 1.388 . S
C288 C287 1.386 . S
C288 C289 1.382 . S
C288 H314 0.950 . S
C289 N286 1.332 . S
C289 C288 1.382 . S
C289 H300 0.952 . S
C290 C287 1.388 . S
C290 C291 1.382 . S
C290 H315 0.950 . S
C291 N286 1.332 . S
C291 C290 1.382 . S
C291 H301 0.948 . S
N292 Co270 2.282 . S
N292 C296 1.332 . S
N292 C297 1.332 . S
C293 C294 1.388 . S
C293 C297 1.382 . S
C293 H316 0.950 1_554 S
C294 C293 1.388 . S
C294 C295 1.386 . S
C295 C294 1.386 . S
C295 C296 1.382 . S
C295 H317 0.950 . S
C296 N292 1.332 . S
C296 C295 1.382 . S
C296 H298 0.952 . S
C297 N292 1.332 . S
C297 C293 1.382 . S
C297 H299 0.948 . S
H298 C296 0.952 . S
H299 C297 0.948 . S
H300 C289 0.952 . S
H301 C291 0.948 . S
C302 C268 1.395 . S
C302 C272 1.391 . S
C303 C265 1.389 . S
C303 C285 1.392 . S
C304 C275 1.392 . S
C304 C277 1.389 . S
C305 C280 1.395 . S
C305 C282 1.391 . S
H306 C266 0.951 . S
H307 C267 0.950 . S
H308 C273 0.949 . S
H309 C274 0.950 . S
H310 C278 0.951 . S
H311 C279 0.950 . S
H312 C283 0.949 . S
H313 C284 0.950 . S
H314 C288 0.950 . S
H315 C290 0.950 . S
H316 C293 0.950 1_556 S
H317 C295 0.950 . S
C318 C319 1.443 . S
C318 N322 1.376 . S
C318 C356 1.389 . S
C319 C318 1.443 . S
C319 C320 1.340 . S
C319 H359 0.951 . S
C320 C319 1.340 . S
C320 C321 1.439 . S
C320 H360 0.950 1_556 S
C321 C320 1.439 . S
C321 N322 1.374 . S
C321 C355 1.395 . S
N322 C318 1.376 . S
N322 C321 1.374 . S
N322 Co323 2.008 . S
Co323 N322 2.008 . S
Co323 N324 1.995 . S
Co323 N329 2.008 . S
Co323 N334 1.995 . S
Co323 N339 2.282 . S
Co323 N345 2.282 . S
N324 Co323 1.995 . S
N324 C325 1.376 . S
N324 C328 1.383 . S
C325 N324 1.376 . S
C325 C326 1.446 . S
C325 C355 1.391 . S
C326 C325 1.446 . S
C326 C327 1.339 . S
C326 H361 0.949 . S
C327 C326 1.339 . S
C327 C328 1.439 . S
C327 H362 0.950 . S
C328 N324 1.383 . S
C328 C327 1.439 . S
C328 C357 1.392 . S
N329 Co323 2.008 . S
N329 C330 1.376 . S
N329 C333 1.374 . S
C330 N329 1.376 . S
C330 C331 1.443 . S
C330 C357 1.389 . S
C331 C330 1.443 . S
C331 C332 1.340 . S
C331 H363 0.951 . S
C332 C331 1.340 . S
C332 C333 1.439 . S
C332 H364 0.950 . S
C333 N329 1.374 . S
C333 C332 1.439 . S
C333 C358 1.395 . S
N334 Co323 1.995 . S
N334 C335 1.376 . S
N334 C338 1.383 . S
C335 N334 1.376 . S
C335 C336 1.446 . S
C335 C358 1.391 . S
C336 C335 1.446 . S
C336 C337 1.339 . S
C336 H365 0.949 . S
C337 C336 1.339 . S
C337 C338 1.439 . S
C337 H366 0.950 . S
C338 N334 1.383 . S
C338 C337 1.439 . S
C338 C356 1.392 . S
N339 Co323 2.282 . S
N339 C342 1.332 . S
N339 C344 1.332 . S
C340 C341 1.386 . S
C340 C343 1.388 . S
C341 C340 1.386 . S
C341 C342 1.382 . S
C341 H367 0.950 . S
C342 N339 1.332 . S
C342 C341 1.382 . S
C342 H353 0.952 . S
C343 C340 1.388 . S
C343 C344 1.382 . S
C343 H368 0.950 . S
C344 N339 1.332 . S
C344 C343 1.382 . S
C344 H354 0.948 . S
N345 Co323 2.282 . S
N345 C349 1.332 . S
N345 C350 1.332 . S
C346 C347 1.388 . S
C346 C350 1.382 . S
C346 H369 0.950 . S
C347 C346 1.388 . S
C347 C348 1.386 1_556 S
C348 C347 1.386 1_554 S
C348 C349 1.382 1_554 S
C348 H370 0.950 . S
C349 N345 1.332 . S
C349 C348 1.382 1_556 S
C349 H351 0.952 . S
C350 N345 1.332 . S
C350 C346 1.382 . S
C350 H352 0.948 . S
H351 C349 0.952 . S
H352 C350 0.948 . S
H353 C342 0.952 . S
H354 C344 0.948 . S
C355 C321 1.395 . S
C355 C325 1.391 . S
C356 C318 1.389 . S
C356 C338 1.392 . S
C357 C328 1.392 . S
C357 C330 1.389 . S
C358 C333 1.395 . S
C358 C335 1.391 . S
H359 C319 0.951 . S
H360 C320 0.950 1_554 S
H361 C326 0.949 . S
H362 C327 0.950 . S
H363 C331 0.951 . S
H364 C332 0.950 . S
H365 C336 0.949 . S
H366 C337 0.950 . S
H367 C341 0.950 . S
H368 C343 0.950 . S
H369 C346 0.950 . S
H370 C348 0.950 . S
C371 C372 1.443 . S
C371 N375 1.376 . S
C371 C409 1.389 . S
C372 C371 1.443 . S
C372 C373 1.340 . S
C372 H412 0.951 . S
C373 C372 1.340 . S
C373 C374 1.439 . S
C373 H413 0.950 . S
C374 C373 1.439 . S
C374 N375 1.374 . S
C374 C408 1.395 . S
N375 C371 1.376 . S
N375 C374 1.374 . S
N375 Co376 2.008 . S
Co376 N375 2.008 . S
Co376 N377 1.995 . S
Co376 N382 2.008 . S
Co376 N387 1.995 . S
Co376 N392 2.282 . S
Co376 N398 2.282 . S
N377 Co376 1.995 . S
N377 C378 1.376 . S
N377 C381 1.383 . S
C378 N377 1.376 . S
C378 C379 1.446 . S
C378 C408 1.391 . S
C379 C378 1.446 . S
C379 C380 1.339 . S
C379 H414 0.949 . S
C380 C379 1.339 . S
C380 C381 1.439 . S
C380 H415 0.950 . S
C381 N377 1.383 . S
C381 C380 1.439 . S
C381 C410 1.392 . S
N382 Co376 2.008 . S
N382 C383 1.376 . S
N382 C386 1.374 . S
C383 N382 1.376 . S
C383 C384 1.443 . S
C383 C410 1.389 . S
C384 C383 1.443 . S
C384 C385 1.340 . S
C384 H416 0.951 . S
C385 C384 1.340 . S
C385 C386 1.439 . S
C385 H417 0.950 . S
C386 N382 1.374 . S
C386 C385 1.439 . S
C386 C411 1.395 . S
N387 Co376 1.995 . S
N387 C388 1.376 . S
N387 C391 1.383 . S
C388 N387 1.376 . S
C388 C389 1.446 . S
C388 C411 1.391 . S
C389 C388 1.446 . S
C389 C390 1.339 . S
C389 H418 0.949 . S
C390 C389 1.339 . S
C390 C391 1.439 . S
C390 H419 0.950 . S
C391 N387 1.383 . S
C391 C390 1.439 . S
C391 C409 1.392 . S
N392 Co376 2.282 . S
N392 C395 1.332 . S
N392 C397 1.332 . S
C393 C394 1.386 . S
C393 C396 1.388 . S
C394 C393 1.386 . S
C394 C395 1.382 . S
C394 H420 0.950 . S
C395 N392 1.332 . S
C395 C394 1.382 . S
C395 H406 0.952 . S
C396 C393 1.388 . S
C396 C397 1.382 . S
C396 H421 0.950 . S
C397 N392 1.332 . S
C397 C396 1.382 . S
C397 H407 0.948 . S
N398 Co376 2.282 . S
N398 C402 1.332 . S
N398 C403 1.332 . S
C399 C400 1.388 . S
C399 C403 1.382 . S
C399 H422 0.950 1_554 S
C400 C399 1.388 . S
C400 C401 1.386 . S
C401 C400 1.386 . S
C401 C402 1.382 . S
C401 H423 0.950 . S
C402 N398 1.332 . S
C402 C401 1.382 . S
C402 H404 0.952 . S
C403 N398 1.332 . S
C403 C399 1.382 . S
C403 H405 0.948 . S
H404 C402 0.952 . S
H405 C403 0.948 . S
H406 C395 0.952 . S
H407 C397 0.948 . S
C408 C374 1.395 . S
C408 C378 1.391 . S
C409 C371 1.389 . S
C409 C391 1.392 . S
C410 C381 1.392 . S
C410 C383 1.389 . S
C411 C386 1.395 . S
C411 C388 1.391 . S
H412 C372 0.951 . S
H413 C373 0.950 . S
H414 C379 0.949 . S
H415 C380 0.950 . S
H416 C384 0.951 . S
H417 C385 0.950 . S
H418 C389 0.949 . S
H419 C390 0.950 . S
H420 C394 0.950 . S
H421 C396 0.950 . S
H422 C399 0.950 1_556 S
H423 C401 0.950 . S
H424 C430 0.930 . S
H425 C434 0.930 . S
H426 C439 0.929 . S
H427 C437 0.929 . S
H428 C432 0.929 . S
H429 C438 0.929 . S
C430 H424 0.930 . S
C430 C431 1.367 . S
C430 C438 1.378 . S
C431 C430 1.367 . S
C431 C439 1.433 . S
C432 H428 0.929 . S
C432 C434 1.378 . S
C432 C436 1.350 . S
C433 C436 1.463 . S
C433 C438 1.350 . S
C433 N441 1.427 . S
C434 H425 0.930 . S
C434 C432 1.378 . S
C434 C435 1.367 . S
C435 C434 1.367 . S
C435 C437 1.433 . S
C436 C432 1.350 . S
C436 C433 1.463 . S
C436 N440 1.427 . S
C437 H427 0.929 . S
C437 C435 1.433 . S
C437 N440 1.384 . S
C438 H429 0.929 . S
C438 C430 1.378 . S
C438 C433 1.350 . S
C439 H426 0.929 . S
C439 C431 1.433 . S
C439 N441 1.384 . S
N440 C436 1.427 . S
N440 C437 1.384 . S
N441 C433 1.427 . S
N441 C439 1.384 . S
H442 C448 0.930 . S
H443 C452 0.930 . S
H444 C457 0.929 . S
H445 C455 0.929 . S
H446 C450 0.929 . S
H447 C456 0.929 . S
C448 H442 0.930 . S
C448 C449 1.367 . S
C448 C456 1.378 . S
C449 C448 1.367 . S
C449 C457 1.433 . S
C450 H446 0.929 . S
C450 C452 1.378 . S
C450 C454 1.350 . S
C451 C454 1.463 . S
C451 C456 1.350 . S
C451 N459 1.427 . S
C452 H443 0.930 . S
C452 C450 1.378 . S
C452 C453 1.367 . S
C453 C452 1.367 . S
C453 C455 1.433 . S
C454 C450 1.350 . S
C454 C451 1.463 . S
C454 N458 1.427 . S
C455 H445 0.929 . S
C455 C453 1.433 . S
C455 N458 1.384 . S
C456 H447 0.929 . S
C456 C448 1.378 . S
C456 C451 1.350 . S
C457 H444 0.929 . S
C457 C449 1.433 . S
C457 N459 1.384 . S
N458 C454 1.427 . S
N458 C455 1.384 . S
N459 C451 1.427 . S
N459 C457 1.384 . S
H460 C466 0.930 . S
H461 C470 0.930 . S
H462 C475 0.929 . S
H463 C473 0.929 . S
H464 C468 0.929 . S
H465 C474 0.929 . S
C466 H460 0.930 . S
C466 C467 1.367 . S
C466 C474 1.378 . S
C467 C466 1.367 . S
C467 C475 1.433 . S
C468 H464 0.929 . S
C468 C470 1.378 . S
C468 C472 1.350 . S
C469 C472 1.463 . S
C469 C474 1.350 . S
C469 N477 1.427 . S
C470 H461 0.930 . S
C470 C468 1.378 . S
C470 C471 1.367 . S
C471 C470 1.367 . S
C471 C473 1.433 . S
C472 C468 1.350 . S
C472 C469 1.463 . S
C472 N476 1.427 . S
C473 H463 0.929 . S
C473 C471 1.433 . S
C473 N476 1.384 . S
C474 H465 0.929 . S
C474 C466 1.378 . S
C474 C469 1.350 . S
C475 H462 0.929 . S
C475 C467 1.433 . S
C475 N477 1.384 . S
N476 C472 1.427 . S
N476 C473 1.384 . S
N477 C469 1.427 . S
N477 C475 1.384 . S
H478 C484 0.930 . S
H479 C488 0.930 . S
H480 C493 0.929 . S
H481 C491 0.929 . S
H482 C486 0.929 . S
H483 C492 0.929 . S
C484 H478 0.930 . S
C484 C485 1.367 . S
C484 C492 1.378 . S
C485 C484 1.367 . S
C485 C493 1.433 . S
C486 H482 0.929 . S
C486 C488 1.378 . S
C486 C490 1.350 . S
C487 C490 1.463 . S
C487 C492 1.350 . S
C487 N495 1.427 . S
C488 H479 0.930 . S
C488 C486 1.378 . S
C488 C489 1.367 . S
C489 C488 1.367 . S
C489 C491 1.433 . S
C490 C486 1.350 . S
C490 C487 1.463 . S
C490 N494 1.427 . S
C491 H481 0.929 . S
C491 C489 1.433 . S
C491 N494 1.384 . S
C492 H483 0.929 . S
C492 C484 1.378 . S
C492 C487 1.350 . S
C493 H480 0.929 . S
C493 C485 1.433 . S
C493 N495 1.384 . S
N494 C490 1.427 . S
N494 C491 1.384 . S
N495 C487 1.427 . S
N495 C493 1.384 . S
H496 C502 0.930 . S
H497 C506 0.930 . S
H498 C511 0.929 . S
H499 C509 0.929 . S
H500 C504 0.929 . S
H501 C510 0.929 . S
C502 H496 0.930 . S
C502 C503 1.367 . S
C502 C510 1.378 . S
C503 C502 1.367 . S
C503 C511 1.433 . S
C504 H500 0.929 . S
C504 C506 1.378 . S
C504 C508 1.350 . S
C505 C508 1.463 . S
C505 C510 1.350 . S
C505 N513 1.427 . S
C506 H497 0.930 . S
C506 C504 1.378 . S
C506 C507 1.367 . S
C507 C506 1.367 . S
C507 C509 1.433 . S
C508 C504 1.350 . S
C508 C505 1.463 . S
C508 N512 1.427 . S
C509 H499 0.929 . S
C509 C507 1.433 . S
C509 N512 1.384 . S
C510 H501 0.929 . S
C510 C502 1.378 . S
C510 C505 1.350 . S
C511 H498 0.929 . S
C511 C503 1.433 . S
C511 N513 1.384 . S
N512 C508 1.427 . S
N512 C509 1.384 . S
N513 C505 1.427 . S
N513 C511 1.384 . S
H514 C520 0.930 . S
H515 C524 0.930 . S
H516 C529 0.929 . S
H517 C527 0.929 . S
H518 C522 0.929 . S
H519 C528 0.929 . S
C520 H514 0.930 . S
C520 C521 1.367 . S
C520 C528 1.378 . S
C521 C520 1.367 . S
C521 C529 1.433 . S
C522 H518 0.929 . S
C522 C524 1.378 . S
C522 C526 1.350 . S
C523 C526 1.463 . S
C523 C528 1.350 . S
C523 N531 1.427 . S
C524 H515 0.930 . S
C524 C522 1.378 . S
C524 C525 1.367 . S
C525 C524 1.367 . S
C525 C527 1.433 . S
C526 C522 1.350 . S
C526 C523 1.463 . S
C526 N530 1.427 . S
C527 H517 0.929 . S
C527 C525 1.433 . S
C527 N530 1.384 . S
C528 H519 0.929 . S
C528 C520 1.378 . S
C528 C523 1.350 . S
C529 H516 0.929 . S
C529 C521 1.433 . S
C529 N531 1.384 . S
N530 C526 1.427 . S
N530 C527 1.384 . S
N531 C523 1.427 . S
N531 C529 1.384 . S
H532 C538 0.930 . S
H533 C542 0.930 . S
H534 C547 0.929 1_545 S
H535 C545 0.929 . S
H536 C540 0.929 . S
H537 C546 0.929 . S
C538 H532 0.930 . S
C538 C539 1.367 . S
C538 C546 1.378 . S
C539 C538 1.367 . S
C539 C547 1.433 . S
C540 H536 0.929 . S
C540 C542 1.378 . S
C540 C544 1.350 . S
C541 C544 1.463 . S
C541 C546 1.350 . S
C541 N549 1.427 . S
C542 H533 0.930 . S
C542 C540 1.378 . S
C542 C543 1.367 . S
C543 C542 1.367 . S
C543 C545 1.433 . S
C544 C540 1.350 . S
C544 C541 1.463 . S
C544 N548 1.427 . S
C545 H535 0.929 . S
C545 C543 1.433 . S
C545 N548 1.384 . S
C546 H537 0.929 . S
C546 C538 1.378 . S
C546 C541 1.350 . S
C547 H534 0.929 1_565 S
C547 C539 1.433 . S
C547 N549 1.384 . S
N548 C544 1.427 . S
N548 C545 1.384 . S
N549 C541 1.427 . S
N549 C547 1.384 . S
H550 C556 0.930 . S
H551 C560 0.930 . S
H552 C565 0.929 . S
H553 C563 0.929 . S
H554 C558 0.929 . S
H555 C564 0.929 . S
C556 H550 0.930 . S
C556 C557 1.367 . S
C556 C564 1.378 . S
C557 C556 1.367 . S
C557 C565 1.433 . S
C558 H554 0.929 . S
C558 C560 1.378 . S
C558 C562 1.350 . S
C559 C562 1.463 . S
C559 C564 1.350 . S
C559 N567 1.427 . S
C560 H551 0.930 . S
C560 C558 1.378 . S
C560 C561 1.367 . S
C561 C560 1.367 . S
C561 C563 1.433 . S
C562 C558 1.350 . S
C562 C559 1.463 . S
C562 N566 1.427 . S
C563 H553 0.929 . S
C563 C561 1.433 . S
C563 N566 1.384 . S
C564 H555 0.929 . S
C564 C556 1.378 . S
C564 C559 1.350 . S
C565 H552 0.929 . S
C565 C557 1.433 . S
C565 N567 1.384 . S
N566 C562 1.427 . S
N566 C563 1.384 . S
N567 C559 1.427 . S
N567 C565 1.384 . S
H568 C574 0.930 . S
H569 C578 0.930 . S
H570 C583 0.929 . S
H571 C581 0.929 . S
H572 C576 0.929 1_554 S
H573 C582 0.929 . S
C574 H568 0.930 . S
C574 C575 1.367 1_556 S
C574 C582 1.378 . S
C575 C574 1.367 1_554 S
C575 C583 1.433 . S
C576 H572 0.929 1_556 S
C576 C578 1.378 . S
C576 C580 1.350 . S
C577 C580 1.463 . S
C577 C582 1.350 . S
C577 N585 1.427 1_556 S
C578 H569 0.930 . S
C578 C576 1.378 . S
C578 C579 1.367 . S
C579 C578 1.367 . S
C579 C581 1.433 . S
C580 C576 1.350 . S
C580 C577 1.463 . S
C580 N584 1.427 . S
C581 H571 0.929 . S
C581 C579 1.433 . S
C581 N584 1.384 . S
C582 H573 0.929 . S
C582 C574 1.378 . S
C582 C577 1.350 . S
C583 H570 0.929 . S
C583 C575 1.433 . S
C583 N585 1.384 . S
N584 C580 1.427 . S
N584 C581 1.384 . S
N585 C577 1.427 1_554 S
N585 C583 1.384 . S
H586 C592 0.930 . S
H587 C596 0.930 1_556 S
H588 C601 0.929 . S
H589 C599 0.929 . S
H590 C594 0.929 . S
H591 C600 0.929 . S
C592 H586 0.930 . S
C592 C593 1.367 . S
C592 C600 1.378 . S
C593 C592 1.367 . S
C593 C601 1.433 . S
C594 H590 0.929 . S
C594 C596 1.378 . S
C594 C598 1.350 . S
C595 C598 1.463 . S
C595 C600 1.350 . S
C595 N603 1.427 . S
C596 H587 0.930 1_554 S
C596 C594 1.378 . S
C596 C597 1.367 . S
C597 C596 1.367 . S
C597 C599 1.433 . S
C598 C594 1.350 . S
C598 C595 1.463 . S
C598 N602 1.427 . S
C599 H589 0.929 . S
C599 C597 1.433 . S
C599 N602 1.384 . S
C600 H591 0.929 . S
C600 C592 1.378 . S
C600 C595 1.350 . S
C601 H588 0.929 . S
C601 C593 1.433 . S
C601 N603 1.384 . S
N602 C598 1.427 . S
N602 C599 1.384 . S
N603 C595 1.427 . S
N603 C601 1.384 . S
H604 C610 0.930 . S
H605 C614 0.930 . S
H606 C619 0.929 . S
H607 C617 0.929 . S
H608 C612 0.929 . S
H609 C618 0.929 . S
C610 H604 0.930 . S
C610 C611 1.367 1_556 S
C610 C618 1.378 . S
C611 C610 1.367 1_554 S
C611 C619 1.433 . S
C612 H608 0.929 . S
C612 C614 1.378 . S
C612 C616 1.350 . S
C613 C616 1.463 . S
C613 C618 1.350 . S
C613 N621 1.427 1_556 S
C614 H605 0.930 . S
C614 C612 1.378 . S
C614 C615 1.367 . S
C615 C614 1.367 . S
C615 C617 1.433 . S
C616 C612 1.350 . S
C616 C613 1.463 . S
C616 N620 1.427 . S
C617 H607 0.929 . S
C617 C615 1.433 . S
C617 N620 1.384 . S
C618 H609 0.929 . S
C618 C610 1.378 . S
C618 C613 1.350 . S
C619 H606 0.929 . S
C619 C611 1.433 . S
C619 N621 1.384 . S
N620 C616 1.427 . S
N620 C617 1.384 . S
N621 C613 1.427 1_554 S
N621 C619 1.384 . S
H622 C628 0.930 . S
H623 C632 0.930 . S
H624 C637 0.929 . S
H625 C635 0.929 . S
H626 C630 0.929 . S
H627 C636 0.929 . S
C628 H622 0.930 . S
C628 C629 1.367 . S
C628 C636 1.378 . S
C629 C628 1.367 . S
C629 C637 1.433 . S
C630 H626 0.929 . S
C630 C632 1.378 . S
C630 C634 1.350 . S
C631 C634 1.463 . S
C631 C636 1.350 . S
C631 N639 1.427 . S
C632 H623 0.930 . S
C632 C630 1.378 . S
C632 C633 1.367 . S
C633 C632 1.367 . S
C633 C635 1.433 . S
C634 C630 1.350 . S
C634 C631 1.463 . S
C634 N638 1.427 . S
C635 H625 0.929 . S
C635 C633 1.433 . S
C635 N638 1.384 . S
C636 H627 0.929 . S
C636 C628 1.378 . S
C636 C631 1.350 . S
C637 H624 0.929 . S
C637 C629 1.433 . S
C637 N639 1.384 . S
N638 C634 1.427 . S
N638 C635 1.384 . S
N639 C631 1.427 . S
N639 C637 1.384 . S
H640 C646 0.930 . S
H641 C650 0.930 . S
H642 C655 0.929 . S
H643 C653 0.929 . S
H644 C648 0.929 . S
H645 C654 0.929 . S
C646 H640 0.930 . S
C646 C647 1.367 . S
C646 C654 1.378 . S
C647 C646 1.367 . S
C647 C655 1.433 1_455 S
C648 H644 0.929 . S
C648 C650 1.378 . S
C648 C652 1.350 . S
C649 C652 1.463 1_455 S
C649 C654 1.350 . S
C649 N657 1.427 1_455 S
C650 H641 0.930 . S
C650 C648 1.378 . S
C650 C651 1.367 . S
C651 C650 1.367 . S
C651 C653 1.433 1_655 S
C652 C648 1.350 . S
C652 C649 1.463 1_655 S
C652 N656 1.427 1_655 S
C653 H643 0.929 . S
C653 C651 1.433 1_455 S
C653 N656 1.384 . S
C654 H645 0.929 . S
C654 C646 1.378 . S
C654 C649 1.350 . S
C655 H642 0.929 . S
C655 C647 1.433 1_655 S
C655 N657 1.384 . S
N656 C652 1.427 1_455 S
N656 C653 1.384 . S
N657 C649 1.427 1_655 S
N657 C655 1.384 . S
H658 C664 0.930 . S
H659 C668 0.930 . S
H660 C673 0.929 . S
H661 C671 0.929 . S
H662 C666 0.929 . S
H663 C672 0.929 . S
C664 H658 0.930 . S
C664 C665 1.367 . S
C664 C672 1.378 . S
C665 C664 1.367 . S
C665 C673 1.433 . S
C666 H662 0.929 . S
C666 C668 1.378 . S
C666 C670 1.350 . S
C667 C670 1.463 1_545 S
C667 C672 1.350 . S
C667 N675 1.427 . S
C668 H659 0.930 . S
C668 C666 1.378 . S
C668 C669 1.367 . S
C669 C668 1.367 . S
C669 C671 1.433 . S
C670 C666 1.350 . S
C670 C667 1.463 1_565 S
C670 N674 1.427 . S
C671 H661 0.929 . S
C671 C669 1.433 . S
C671 N674 1.384 . S
C672 H663 0.929 . S
C672 C664 1.378 . S
C672 C667 1.350 . S
C673 H660 0.929 . S
C673 C665 1.433 . S
C673 N675 1.384 . S
N674 C670 1.427 . S
N674 C671 1.384 . S
N675 C667 1.427 . S
N675 C673 1.384 . S
H676 C682 0.930 . S
H677 C686 0.930 . S
H678 C691 0.929 . S
H679 C689 0.929 . S
H680 C684 0.929 . S
H681 C690 0.929 . S
C682 H676 0.930 . S
C682 C683 1.367 . S
C682 C690 1.378 . S
C683 C682 1.367 . S
C683 C691 1.433 . S
C684 H680 0.929 . S
C684 C686 1.378 . S
C684 C688 1.350 . S
C685 C688 1.463 1_545 S
C685 C690 1.350 . S
C685 N693 1.427 . S
C686 H677 0.930 . S
C686 C684 1.378 . S
C686 C687 1.367 . S
C687 C686 1.367 . S
C687 C689 1.433 . S
C688 C684 1.350 . S
C688 C685 1.463 1_565 S
C688 N692 1.427 . S
C689 H679 0.929 . S
C689 C687 1.433 . S
C689 N692 1.384 . S
C690 H681 0.929 . S
C690 C682 1.378 . S
C690 C685 1.350 . S
C691 H678 0.929 . S
C691 C683 1.433 . S
C691 N693 1.384 . S
N692 C688 1.427 . S
N692 C689 1.384 . S
N693 C685 1.427 . S
N693 C691 1.384 . S
H694 C700 0.930 . S
H695 C704 0.930 . S
H696 C709 0.929 . S
H697 C707 0.929 . S
H698 C702 0.929 . S
H699 C708 0.929 . S
C700 H694 0.930 . S
C700 C701 1.367 . S
C700 C708 1.378 . S
C701 C700 1.367 . S
C701 C709 1.433 . S
C702 H698 0.929 . S
C702 C704 1.378 . S
C702 C706 1.350 . S
C703 C706 1.463 1_455 S
C703 C708 1.350 . S
C703 N711 1.427 . S
C704 H695 0.930 . S
C704 C702 1.378 . S
C704 C705 1.367 . S
C705 C704 1.367 . S
C705 C707 1.433 . S
C706 C702 1.350 . S
C706 C703 1.463 1_655 S
C706 N710 1.427 . S
C707 H697 0.929 . S
C707 C705 1.433 . S
C707 N710 1.384 . S
C708 H699 0.929 . S
C708 C700 1.378 . S
C708 C703 1.350 . S
C709 H696 0.929 . S
C709 C701 1.433 . S
C709 N711 1.384 . S
N710 C706 1.427 . S
N710 C707 1.384 . S
N711 C703 1.427 . S
N711 C709 1.384 . S
C431 C393 1.773 . S
C435 C38 1.795 . S
C449 C82 1.988 . S
C453 C234 2.006 . S
C467 C144 1.804 . S
C471 C287 1.784 . S
C485 C340 2.001 . S
C489 C188 1.982 . S
C503 C75 1.838 . S
C507 C22 1.828 . S
C521 C92 1.815 . S
C525 C145 1.819 . S
C539 C181 1.840 . S
C543 C128 1.829 . S
C557 C198 1.817 . S
C561 C39 1.819 . S
C575 C400 1.955 . S
C579 C250 1.945 . S
C593 C303 2.057 . S
C597 C241 2.031 1_554 S
C611 C294 1.954 . S
C615 C356 1.949 . S
C629 C347 2.032 1_554 S
C633 C409 2.056 . S
C647 C135 1.876 . S
C651 C29 1.872 . S
C665 C197 2.087 . S
C669 C91 2.093 . S
C683 C357 2.479 . S
C687 C251 2.478 . S
C701 C410 2.095 . S
C705 C304 2.090 . S
