# Generated by pormake.
# Topology ukf, (4)-cn, num edge types: 1
# Building blocks:
#     Node 0, Type 0, BuildingBlock: KUFVIS_clean_sbu_0, # of connection points: 4
#     Node 1, Type 0, BuildingBlock: KUFVIS_clean_sbu_0, # of connection points: 4
#     Node 2, Type 0, BuildingBlock: KUFVIS_clean_sbu_0, # of connection points: 4
#     Node 3, Type 0, BuildingBlock: KUFVIS_clean_sbu_0, # of connection points: 4
#     Node 4, Type 0, BuildingBlock: KUFVIS_clean_sbu_0, # of connection points: 4
#     Node 5, Type 0, BuildingBlock: KUFVIS_clean_sbu_0, # of connection points: 4
#     Node 6, Type 0, BuildingBlock: KUFVIS_clean_sbu_0, # of connection points: 4
#     Node 7, Type 0, BuildingBlock: KUFVIS_clean_sbu_0, # of connection points: 4
#     Node 8, Type 0, BuildingBlock: KUFVIS_clean_sbu_0, # of connection points: 4
#     Node 9, Type 0, BuildingBlock: KUFVIS_clean_sbu_0, # of connection points: 4
#     Node 10, Type 0, BuildingBlock: KUFVIS_clean_sbu_0, # of connection points: 4
#     Node 11, Type 0, BuildingBlock: KUFVIS_clean_sbu_0, # of connection points: 4
#     Edge 12, Type (0, 0), BuildingBlock: EYOCIG_clean_linker_4, # of connection points: 2
#     Edge 13, Type (0, 0), BuildingBlock: EYOCIG_clean_linker_4, # of connection points: 2
#     Edge 14, Type (0, 0), BuildingBlock: EYOCIG_clean_linker_4, # of connection points: 2
#     Edge 15, Type (0, 0), BuildingBlock: EYOCIG_clean_linker_4, # of connection points: 2
#     Edge 16, Type (0, 0), BuildingBlock: EYOCIG_clean_linker_4, # of connection points: 2
#     Edge 17, Type (0, 0), BuildingBlock: EYOCIG_clean_linker_4, # of connection points: 2
#     Edge 18, Type (0, 0), BuildingBlock: EYOCIG_clean_linker_4, # of connection points: 2
#     Edge 19, Type (0, 0), BuildingBlock: EYOCIG_clean_linker_4, # of connection points: 2
#     Edge 20, Type (0, 0), BuildingBlock: EYOCIG_clean_linker_4, # of connection points: 2
#     Edge 21, Type (0, 0), BuildingBlock: EYOCIG_clean_linker_4, # of connection points: 2
#     Edge 22, Type (0, 0), BuildingBlock: EYOCIG_clean_linker_4, # of connection points: 2
#     Edge 23, Type (0, 0), BuildingBlock: EYOCIG_clean_linker_4, # of connection points: 2
#     Edge 24, Type (0, 0), BuildingBlock: EYOCIG_clean_linker_4, # of connection points: 2
#     Edge 25, Type (0, 0), BuildingBlock: EYOCIG_clean_linker_4, # of connection points: 2
#     Edge 26, Type (0, 0), BuildingBlock: EYOCIG_clean_linker_4, # of connection points: 2
#     Edge 27, Type (0, 0), BuildingBlock: EYOCIG_clean_linker_4, # of connection points: 2
#     Edge 28, Type (0, 0), BuildingBlock: EYOCIG_clean_linker_4, # of connection points: 2
#     Edge 29, Type (0, 0), BuildingBlock: EYOCIG_clean_linker_4, # of connection points: 2
#     Edge 30, Type (0, 0), BuildingBlock: EYOCIG_clean_linker_4, # of connection points: 2
#     Edge 31, Type (0, 0), BuildingBlock: EYOCIG_clean_linker_4, # of connection points: 2
#     Edge 32, Type (0, 0), BuildingBlock: EYOCIG_clean_linker_4, # of connection points: 2
#     Edge 33, Type (0, 0), BuildingBlock: EYOCIG_clean_linker_4, # of connection points: 2
#     Edge 34, Type (0, 0), BuildingBlock: EYOCIG_clean_linker_4, # of connection points: 2
#     Edge 35, Type (0, 0), BuildingBlock: EYOCIG_clean_linker_4, # of connection points: 2
# Relax obj value: 0.096
# Max RMSD: 0.095
# Mean RMSD: 0.095
data_MOF--net-ukf--node1-KUFVIS_clean_sbu_0--edge1-EYOCIG_clean_linker_4
_symmetry_space_group_name_H-M    P1
_symmetry_Int_Tables_number       1
_symmetry_cell_setting            triclinic
loop_
_symmetry_equiv_pos_as_xyz
'x, y, z'
_cell_length_a     26.021557
_cell_length_b     26.021385
_cell_length_c     48.595777
_cell_angle_alpha  89.973288
_cell_angle_beta   89.96715
_cell_angle_gamma 119.99235
loop_
_atom_site_label
_atom_site_type_symbol
_atom_site_fract_x
_atom_site_fract_y
_atom_site_fract_z
_atom_type_partial_charge
Mn0 Mn 0.43132 0.23714 0.05409 0.0
Mn1 Mn 0.55116 0.33037 0.09211 0.0
C2 C 0.5257 0.27756 0.03594 0.0
C3 C 0.36209 0.14061 0.0403 0.0
C4 C 0.46959 0.36616 0.06509 0.0
O5 O 0.39932 0.22417 0.09357 0.0
O6 O 0.4856 0.27643 0.117 0.0
C7 C 0.58489 0.24907 0.1186 0.0
N8 N 0.5986 0.29589 0.10167 0.0
C9 C 0.6998 0.31774 0.09749 0.0
C10 C 0.68667 0.26959 0.11479 0.0
C11 C 0.62896 0.23504 0.12533 0.0
C12 C 0.65402 0.32934 0.09135 0.0
H13 H 0.54088 0.22315 0.12716 0.0
C14 C 0.42952 0.24052 0.11586 0.0
O15 O 0.3507 0.18363 0.03815 0.0
O16 O 0.41206 0.15276 0.05151 0.0
N17 N 0.61747 0.38452 0.07005 0.0
C18 C 0.62334 0.43003 0.05388 0.0
C19 C 0.6786 0.46943 0.04222 0.0
C20 C 0.72749 0.46195 0.04735 0.0
C21 C 0.72036 0.41442 0.06368 0.0
C22 C 0.66413 0.37655 0.07483 0.0
H23 H 0.58655 0.43697 0.05012 0.0
O24 O 0.48004 0.25541 0.01972 0.0
O25 O 0.51486 0.27384 0.06204 0.0
O26 O 0.43692 0.31866 0.05169 0.0
O27 O 0.50802 0.37182 0.0828 0.0
C28 C 0.76702 0.40352 0.06955 0.0
C29 C 0.75675 0.35518 0.08643 0.0
H30 H 0.72067 0.259 0.12028 0.0
H31 H 0.61866 0.19812 0.13889 0.0
H32 H 0.68362 0.50596 0.02961 0.0
H33 H 0.77037 0.49313 0.03876 0.0
H34 H 0.81099 0.43212 0.06124 0.0
H35 H 0.79308 0.34743 0.09093 0.0
Mn36 Mn 0.19896 0.42889 0.38746 0.0
Mn37 Mn 0.22554 0.54869 0.42554 0.0
C38 C 0.25278 0.52329 0.36932 0.0
C39 C 0.22636 0.35975 0.37359 0.0
C40 C 0.10814 0.46705 0.39862 0.0
O41 O 0.18005 0.39687 0.42694 0.0
O42 O 0.21406 0.48314 0.45039 0.0
C43 C 0.34067 0.58252 0.45188 0.0
N44 N 0.30746 0.59619 0.43503 0.0
C45 C 0.38671 0.69743 0.43081 0.0
C46 C 0.42183 0.68434 0.44805 0.0
C47 C 0.39875 0.62662 0.45857 0.0
C48 C 0.32933 0.65161 0.42472 0.0
H49 H 0.32266 0.5385 0.46043 0.0
C50 C 0.19393 0.42706 0.44923 0.0
O51 O 0.17192 0.34829 0.3715 0.0
O52 O 0.26415 0.40974 0.38478 0.0
N53 N 0.23755 0.61498 0.40351 0.0
C54 C 0.19785 0.6208 0.38739 0.0
C55 C 0.21361 0.67605 0.37575 0.0
C56 C 0.26996 0.72499 0.38085 0.0
C57 C 0.31042 0.71791 0.39713 0.0
C58 C 0.29215 0.66168 0.40826 0.0
H59 H 0.15415 0.58398 0.38365 0.0
O60 O 0.22928 0.47764 0.35309 0.0
O61 O 0.24574 0.51243 0.39542 0.0
O62 O 0.12299 0.43442 0.38517 0.0
O63 O 0.14093 0.50548 0.41631 0.0
C64 C 0.36796 0.7646 0.40296 0.0
C65 C 0.40611 0.75438 0.41978 0.0
H66 H 0.4664 0.71836 0.4535 0.0
H67 H 0.42546 0.61635 0.47207 0.0
H68 H 0.18205 0.68103 0.36317 0.0
H69 H 0.28158 0.76785 0.37228 0.0
H70 H 0.38325 0.80856 0.39466 0.0
H71 H 0.45018 0.79074 0.42424 0.0
Mn72 Mn 0.7741 0.19601 0.72064 0.0
Mn73 Mn 0.68123 0.22305 0.75881 0.0
C74 C 0.73367 0.24996 0.70252 0.0
C75 C 0.87054 0.22313 0.70668 0.0
C76 C 0.64508 0.10549 0.73194 0.0
O77 O 0.78728 0.17718 0.76012 0.0
O78 O 0.73525 0.21144 0.78361 0.0
C79 C 0.76287 0.33818 0.78506 0.0
N80 N 0.7159 0.30502 0.76826 0.0
C81 C 0.6942 0.38448 0.76406 0.0
C82 C 0.7425 0.41954 0.78124 0.0
C83 C 0.77705 0.39634 0.79172 0.0
C84 C 0.68244 0.32702 0.75799 0.0
H85 H 0.78881 0.32008 0.79358 0.0
C86 C 0.7711 0.19119 0.78242 0.0
O87 O 0.82748 0.16873 0.70464 0.0
O88 O 0.85847 0.26104 0.71787 0.0
N89 N 0.62702 0.23522 0.73684 0.0
C90 C 0.58142 0.19557 0.72076 0.0
C91 C 0.54203 0.21147 0.70915 0.0
C92 C 0.54963 0.2679 0.71424 0.0
C93 C 0.59725 0.3083 0.73048 0.0
C94 C 0.6351 0.28989 0.74158 0.0
H95 H 0.5744 0.1518 0.71703 0.0
O96 O 0.75567 0.2263 0.68628 0.0
O97 O 0.73755 0.24299 0.72863 0.0
O98 O 0.6925 0.12016 0.71845 0.0
O99 O 0.6396 0.13841 0.74963 0.0
C100 C 0.60828 0.36592 0.7363 0.0
C101 C 0.65675 0.40402 0.75306 0.0
H102 H 0.7532 0.46418 0.78667 0.0
H103 H 0.8141 0.42301 0.80518 0.0
H104 H 0.50543 0.17996 0.6966 0.0
H105 H 0.51846 0.27964 0.70569 0.0
H106 H 0.57969 0.38132 0.72802 0.0
H107 H 0.66461 0.44816 0.75751 0.0
Mn108 Mn 0.58218 0.77194 0.05384 0.0
Mn109 Mn 0.46234 0.67888 0.09202 0.0
C110 C 0.48779 0.73162 0.0358 0.0
C111 C 0.65149 0.86842 0.03995 0.0
C112 C 0.54373 0.64288 0.06495 0.0
O113 O 0.61424 0.7849 0.09328 0.0
O114 O 0.52798 0.73276 0.11682 0.0
C115 C 0.42884 0.76035 0.1185 0.0
N116 N 0.41503 0.71348 0.10162 0.0
C117 C 0.31385 0.69176 0.09757 0.0
C118 C 0.32709 0.73995 0.11484 0.0
C119 C 0.38485 0.77446 0.12528 0.0
C120 C 0.35956 0.68007 0.09139 0.0
H121 H 0.47289 0.78624 0.127 0.0
C122 C 0.58407 0.76859 0.11561 0.0
O123 O 0.66281 0.82535 0.03781 0.0
O124 O 0.60155 0.85634 0.0512 0.0
N125 N 0.39595 0.62478 0.07006 0.0
C126 C 0.38999 0.57926 0.0539 0.0
C127 C 0.33469 0.53992 0.04231 0.0
C128 C 0.28584 0.54747 0.0475 0.0
C129 C 0.29307 0.595 0.06382 0.0
C130 C 0.34935 0.63282 0.07489 0.0
H131 H 0.42673 0.57228 0.05008 0.0
O132 O 0.53343 0.75371 0.01952 0.0
O133 O 0.49866 0.73536 0.06189 0.0
O134 O 0.57644 0.69035 0.05149 0.0
O135 O 0.50534 0.6373 0.08269 0.0
C136 C 0.24648 0.60598 0.06975 0.0
C137 C 0.25686 0.65436 0.08661 0.0
H138 H 0.29315 0.7506 0.12036 0.0
H139 H 0.39524 0.81142 0.13881 0.0
H140 H 0.32959 0.50338 0.0297 0.0
H141 H 0.24294 0.51633 0.03898 0.0
H142 H 0.20248 0.57742 0.06151 0.0
H143 H 0.22058 0.66217 0.09114 0.0
Mn144 Mn 0.81486 0.57962 0.38731 0.0
Mn145 Mn 0.78794 0.45976 0.42551 0.0
C146 C 0.76098 0.48523 0.36925 0.0
C147 C 0.78764 0.64885 0.37334 0.0
C148 C 0.90545 0.54118 0.39852 0.0
O149 O 0.83371 0.61167 0.42676 0.0
O150 O 0.79961 0.52542 0.4503 0.0
C151 C 0.67286 0.4263 0.45191 0.0
N152 N 0.70599 0.41248 0.43506 0.0
C153 C 0.62651 0.31134 0.43093 0.0
C154 C 0.59149 0.3246 0.44816 0.0
C155 C 0.61472 0.38234 0.45864 0.0
C156 C 0.68397 0.35703 0.4248 0.0
H157 H 0.69099 0.47034 0.46042 0.0
C158 C 0.81982 0.58151 0.44908 0.0
O159 O 0.84206 0.66023 0.37126 0.0
O160 O 0.74978 0.5989 0.38459 0.0
N161 N 0.77575 0.39337 0.40356 0.0
C162 C 0.81537 0.3874 0.38743 0.0
C163 C 0.79943 0.33212 0.37581 0.0
C164 C 0.74299 0.28331 0.38094 0.0
C165 C 0.70262 0.29054 0.39724 0.0
C166 C 0.72107 0.3468 0.40834 0.0
H167 H 0.85914 0.42413 0.38366 0.0
O168 O 0.7846 0.53088 0.35298 0.0
O169 O 0.76793 0.49609 0.39535 0.0
O170 O 0.89076 0.57393 0.38505 0.0
O171 O 0.87255 0.50275 0.41622 0.0
C172 C 0.645 0.24398 0.40311 0.0
C173 C 0.60694 0.25437 0.41994 0.0
H174 H 0.54685 0.29068 0.45364 0.0
H175 H 0.58808 0.39274 0.47213 0.0
H176 H 0.83092 0.32702 0.36322 0.0
H177 H 0.73121 0.24042 0.37238 0.0
H178 H 0.62957 0.2 0.39484 0.0
H179 H 0.5628 0.21811 0.42442 0.0
Mn180 Mn 0.23921 0.81221 0.72086 0.0
Mn181 Mn 0.33224 0.78551 0.75905 0.0
C182 C 0.27966 0.7582 0.70283 0.0
C183 C 0.14273 0.78491 0.70697 0.0
C184 C 0.3682 0.90291 0.73197 0.0
O185 O 0.22612 0.83127 0.76031 0.0
O186 O 0.27821 0.79716 0.78386 0.0
C187 C 0.25083 0.67047 0.78553 0.0
N188 N 0.29772 0.7036 0.76863 0.0
C189 C 0.31953 0.6242 0.76451 0.0
C190 C 0.27132 0.58918 0.78178 0.0
C191 C 0.23675 0.61236 0.79228 0.0
C192 C 0.33119 0.68162 0.75836 0.0
H193 H 0.22489 0.68857 0.79405 0.0
C194 C 0.24238 0.81742 0.78264 0.0
O195 O 0.18574 0.83931 0.70482 0.0
O196 O 0.15485 0.74711 0.71825 0.0
N197 N 0.38647 0.77336 0.73706 0.0
C198 C 0.43203 0.813 0.72091 0.0
C199 C 0.47144 0.79712 0.70928 0.0
C200 C 0.46392 0.74073 0.71443 0.0
C201 C 0.41635 0.70034 0.73075 0.0
C202 C 0.37847 0.71872 0.74186 0.0
H203 H 0.439 0.85673 0.71712 0.0
O204 O 0.2576 0.78173 0.68656 0.0
O205 O 0.27585 0.76533 0.72893 0.0
O206 O 0.32078 0.8881 0.7185 0.0
O207 O 0.37374 0.87011 0.74972 0.0
C208 C 0.40539 0.64276 0.73664 0.0
C209 C 0.35699 0.60469 0.7535 0.0
H210 H 0.26069 0.54458 0.78728 0.0
H211 H 0.19977 0.58573 0.80581 0.0
H212 H 0.50801 0.82863 0.69668 0.0
H213 H 0.4951 0.72901 0.70587 0.0
H214 H 0.434 0.62738 0.72836 0.0
H215 H 0.3492 0.56059 0.758 0.0
Mn216 Mn 0.77427 0.57957 0.63845 0.0
Mn217 Mn 0.68131 0.45987 0.60027 0.0
C218 C 0.7337 0.48511 0.65652 0.0
C219 C 0.8707 0.64872 0.65242 0.0
C220 C 0.64532 0.54135 0.62724 0.0
O221 O 0.78757 0.61172 0.59898 0.0
O222 O 0.73542 0.52552 0.57547 0.0
C223 C 0.76279 0.42622 0.5739 0.0
N224 N 0.71584 0.41246 0.59076 0.0
C225 C 0.69394 0.31122 0.5949 0.0
C226 C 0.74222 0.32441 0.57767 0.0
C227 C 0.77685 0.38217 0.56719 0.0
C228 C 0.68231 0.35699 0.60102 0.0
H229 H 0.78879 0.47026 0.56538 0.0
C230 C 0.77133 0.5816 0.57667 0.0
O231 O 0.82767 0.66012 0.65449 0.0
O232 O 0.85862 0.5988 0.64119 0.0
N233 N 0.627 0.39348 0.62225 0.0
C234 C 0.58142 0.38758 0.63837 0.0
C235 C 0.54194 0.33229 0.64999 0.0
C236 C 0.54944 0.2834 0.64486 0.0
C237 C 0.59704 0.29056 0.62858 0.0
C238 C 0.63498 0.34683 0.61748 0.0
H239 H 0.57447 0.42436 0.64214 0.0
O240 O 0.7557 0.5307 0.67278 0.0
O241 O 0.73763 0.49606 0.63042 0.0
O242 O 0.69273 0.57397 0.64071 0.0
O243 O 0.63979 0.50297 0.60953 0.0
C244 C 0.60797 0.24392 0.62271 0.0
C245 C 0.65641 0.25424 0.6059 0.0
H246 H 0.75284 0.29043 0.5722 0.0
H247 H 0.81388 0.39251 0.55369 0.0
H248 H 0.50535 0.32724 0.66256 0.0
H249 H 0.51822 0.2405 0.65342 0.0
H250 H 0.57931 0.19993 0.63098 0.0
H251 H 0.66419 0.21792 0.60141 0.0
Mn252 Mn 0.1986 0.77202 0.97198 0.0
Mn253 Mn 0.22548 0.67918 0.93374 0.0
C254 C 0.25248 0.73143 0.99001 0.0
C255 C 0.22585 0.86842 0.98598 0.0
C256 C 0.10794 0.64311 0.96069 0.0
O257 O 0.1798 0.78537 0.93253 0.0
O258 O 0.21399 0.73336 0.90897 0.0
C259 C 0.34068 0.76076 0.90743 0.0
N260 N 0.30744 0.71374 0.92424 0.0
C261 C 0.38676 0.69182 0.92836 0.0
C262 C 0.4219 0.74017 0.91117 0.0
C263 C 0.39881 0.77484 0.90072 0.0
C264 C 0.32934 0.68017 0.93448 0.0
H265 H 0.32266 0.78678 0.89893 0.0
C266 C 0.19377 0.76922 0.91021 0.0
O267 O 0.17142 0.8254 0.98805 0.0
O268 O 0.26371 0.85635 0.97473 0.0
N269 N 0.23749 0.6248 0.95568 0.0
C270 C 0.19776 0.57915 0.97175 0.0
C271 C 0.21353 0.53961 0.98332 0.0
C272 C 0.26992 0.54711 0.97818 0.0
C273 C 0.31041 0.59479 0.96195 0.0
C274 C 0.29213 0.63279 0.9509 0.0
H275 H 0.15402 0.5722 0.97552 0.0
O276 O 0.22886 0.7534 1.00629 0.0
O277 O 0.2455 0.7354 0.96392 0.0
O278 O 0.12268 0.69046 0.97421 0.0
O279 O 0.14083 0.63764 0.94297 0.0
C280 C 0.368 0.60573 0.95609 0.0
C281 C 0.40618 0.65424 0.93932 0.0
H282 H 0.46652 0.7508 0.9057 0.0
H283 H 0.42554 0.81192 0.88725 0.0
H284 H 0.18195 0.50296 0.99586 0.0
H285 H 0.28155 0.51583 0.98669 0.0
H286 H 0.3833 0.57703 0.96433 0.0
H287 H 0.45029 0.66203 0.93483 0.0
Mn288 Mn 0.43173 0.19639 0.30519 0.0
Mn289 Mn 0.55151 0.22325 0.26694 0.0
C290 C 0.52613 0.25018 0.32323 0.0
C291 C 0.36256 0.22366 0.31919 0.0
C292 C 0.46998 0.1057 0.29387 0.0
O293 O 0.39967 0.17766 0.26573 0.0
O294 O 0.4859 0.21181 0.24217 0.0
C295 C 0.5852 0.33846 0.24063 0.0
N296 N 0.59893 0.30522 0.25746 0.0
C297 C 0.70012 0.38456 0.26163 0.0
C298 C 0.68696 0.41971 0.24443 0.0
C299 C 0.62925 0.3966 0.23394 0.0
C300 C 0.65436 0.32712 0.26772 0.0
H301 H 0.54119 0.32044 0.23212 0.0
C302 C 0.42982 0.19164 0.24341 0.0
O303 O 0.35113 0.16923 0.32125 0.0
O304 O 0.41253 0.26152 0.30796 0.0
N305 N 0.61785 0.23524 0.28888 0.0
C306 C 0.62372 0.19551 0.30497 0.0
C307 C 0.67897 0.21131 0.31659 0.0
C308 C 0.72785 0.26773 0.31149 0.0
C309 C 0.72071 0.30821 0.29524 0.0
C310 C 0.66448 0.2899 0.28414 0.0
H311 H 0.58694 0.15176 0.30871 0.0
O312 O 0.4805 0.22656 0.3395 0.0
O313 O 0.51525 0.24326 0.29714 0.0
O314 O 0.43732 0.12043 0.30739 0.0
O315 O 0.50839 0.1386 0.27616 0.0
C316 C 0.76735 0.36582 0.28941 0.0
C317 C 0.75706 0.404 0.27262 0.0
H318 H 0.72094 0.46433 0.23898 0.0
H319 H 0.61893 0.42333 0.22047 0.0
H320 H 0.684 0.17974 0.32915 0.0
H321 H 0.77071 0.27939 0.32005 0.0
H322 H 0.81131 0.38115 0.29768 0.0
H323 H 0.79337 0.44813 0.26816 0.0
Mn324 Mn 0.23944 0.42887 0.63857 0.0
Mn325 Mn 0.3324 0.54885 0.60044 0.0
C326 C 0.27974 0.5232 0.65669 0.0
C327 C 0.14297 0.35948 0.65244 0.0
C328 C 0.36849 0.46738 0.62736 0.0
O329 O 0.22647 0.39695 0.5991 0.0
O330 O 0.27847 0.48329 0.57561 0.0
C331 C 0.25089 0.58246 0.57411 0.0
N332 N 0.29778 0.5962 0.59096 0.0
C333 C 0.31951 0.69736 0.59514 0.0
C334 C 0.27129 0.68419 0.57791 0.0
C335 C 0.23677 0.62648 0.56741 0.0
C336 C 0.33121 0.65162 0.60124 0.0
H337 H 0.22499 0.53845 0.56557 0.0
C338 C 0.24269 0.42718 0.5768 0.0
O339 O 0.18605 0.34817 0.65454 0.0
O340 O 0.15504 0.40946 0.64125 0.0
N341 N 0.38654 0.61514 0.62245 0.0
C342 C 0.43209 0.62104 0.63856 0.0
C343 C 0.47146 0.67629 0.65018 0.0
C344 C 0.4639 0.72515 0.64507 0.0
C345 C 0.41633 0.71799 0.62881 0.0
C346 C 0.37848 0.66176 0.6177 0.0
H347 H 0.43909 0.58428 0.6423 0.0
O348 O 0.25769 0.4775 0.67293 0.0
O349 O 0.27598 0.51241 0.63059 0.0
O350 O 0.32106 0.43465 0.64085 0.0
O351 O 0.374 0.5058 0.60966 0.0
C352 C 0.40533 0.76461 0.62296 0.0
C353 C 0.35693 0.7543 0.60615 0.0
H354 H 0.26064 0.71816 0.57245 0.0
H355 H 0.19979 0.61616 0.55391 0.0
H356 H 0.50803 0.68134 0.66275 0.0
H357 H 0.49506 0.76803 0.65362 0.0
H358 H 0.43391 0.80857 0.63124 0.0
H359 H 0.34911 0.7906 0.60168 0.0
Mn360 Mn 0.81482 0.2372 0.97168 0.0
Mn361 Mn 0.78797 0.33013 0.93347 0.0
C362 C 0.76075 0.27758 0.98974 0.0
C363 C 0.78768 0.14076 0.98562 0.0
C364 C 0.90538 0.36623 0.96047 0.0
O365 O 0.83387 0.22412 0.93223 0.0
O366 O 0.79966 0.27614 0.90869 0.0
C367 C 0.67294 0.24857 0.90712 0.0
N368 N 0.70604 0.29551 0.92395 0.0
C369 C 0.62657 0.31721 0.92808 0.0
C370 C 0.59158 0.26895 0.91087 0.0
C371 C 0.61482 0.23442 0.9004 0.0
C372 C 0.684 0.32894 0.9342 0.0
H373 H 0.69108 0.22265 0.89861 0.0
C374 C 0.81994 0.24032 0.90991 0.0
O375 O 0.84206 0.18383 0.98772 0.0
O376 O 0.7498 0.15281 0.97438 0.0
N377 N 0.77572 0.38432 0.95542 0.0
C378 C 0.81532 0.42992 0.97152 0.0
C379 C 0.79939 0.46932 0.9831 0.0
C380 C 0.74298 0.46172 0.97797 0.0
C381 C 0.70263 0.41411 0.96172 0.0
C382 C 0.72107 0.37625 0.95064 0.0
H383 H 0.85908 0.43695 0.97528 0.0
O384 O 0.78433 0.25554 1.006 0.0
O385 O 0.76786 0.27376 0.96364 0.0
O386 O 0.89064 0.3188 0.97396 0.0
O387 O 0.87257 0.37174 0.94273 0.0
C388 C 0.64503 0.40309 0.95585 0.0
C389 C 0.607 0.35465 0.93906 0.0
H390 H 0.54697 0.25827 0.9054 0.0
H391 H 0.58821 0.1974 0.88692 0.0
H392 H 0.83088 0.50592 0.99566 0.0
H393 H 0.73122 0.49289 0.9865 0.0
H394 H 0.62961 0.43168 0.96411 0.0
H395 H 0.56288 0.3468 0.93457 0.0
Mn396 Mn 0.58217 0.81207 0.30496 0.0
Mn397 Mn 0.46234 0.78533 0.26687 0.0
C398 C 0.48779 0.75822 0.32311 0.0
C399 C 0.65139 0.78479 0.31885 0.0
C400 C 0.54391 0.90279 0.29375 0.0
O401 O 0.61419 0.83094 0.26547 0.0
O402 O 0.52791 0.79684 0.24201 0.0
C403 C 0.42858 0.67019 0.24055 0.0
N404 N 0.41489 0.70339 0.2574 0.0
C405 C 0.31365 0.62411 0.26161 0.0
C406 C 0.32677 0.58901 0.24438 0.0
C407 C 0.3845 0.61209 0.23386 0.0
C408 C 0.35945 0.6815 0.2677 0.0
H409 H 0.4726 0.68821 0.232 0.0
C410 C 0.584 0.81702 0.24318 0.0
O411 O 0.6628 0.83921 0.32092 0.0
O412 O 0.60142 0.74695 0.30767 0.0
N413 N 0.39603 0.77329 0.28889 0.0
C414 C 0.39019 0.81298 0.30501 0.0
C415 C 0.33494 0.7972 0.31665 0.0
C416 C 0.28602 0.74084 0.31155 0.0
C417 C 0.29312 0.70039 0.29528 0.0
C418 C 0.34936 0.71868 0.28415 0.0
H419 H 0.427 0.85669 0.30875 0.0
O420 O 0.53344 0.78178 0.33933 0.0
O421 O 0.49864 0.76522 0.297 0.0
O422 O 0.57657 0.88801 0.30722 0.0
O423 O 0.50549 0.86995 0.27607 0.0
C424 C 0.24645 0.64284 0.28944 0.0
C425 C 0.2567 0.60469 0.27263 0.0
H426 H 0.29276 0.54442 0.23893 0.0
H427 H 0.39479 0.58539 0.22036 0.0
H428 H 0.32994 0.82875 0.32923 0.0
H429 H 0.24314 0.72921 0.32012 0.0
H430 H 0.20248 0.62754 0.29774 0.0
H431 H 0.22035 0.56062 0.26817 0.0
C432 C 0.26549 0.97554 1.00738 0.0
C433 C 0.24517 0.92607 0.99794 0.0
C434 C 0.29446 0.03337 0.01905 0.0
C435 C 0.32373 0.08289 0.02843 0.0
C436 C 0.26609 0.29222 0.35228 0.0
C437 C 0.24578 0.32143 0.36168 0.0
C438 C 0.29501 0.26329 0.3406 0.0
C439 C 0.32421 0.243 0.33116 0.0
C440 C 0.97778 0.26269 0.68535 0.0
C441 C 0.92824 0.24239 0.69475 0.0
C442 C 0.03567 0.29167 0.67371 0.0
C443 C 0.08523 0.32099 0.66433 0.0
C444 C 0.71918 0.97568 0.01863 0.0
C445 C 0.68991 0.92614 0.02803 0.0
C446 C 0.74812 0.03354 1.00697 0.0
C447 C 0.76839 0.08307 0.99756 0.0
C448 C 0.71901 0.7452 0.3402 0.0
C449 C 0.68975 0.76545 0.33078 0.0
C450 C 0.74798 0.71635 0.3519 0.0
C451 C 0.7683 0.68718 0.36135 0.0
C452 C 0.97778 0.71623 0.67386 0.0
C453 C 0.92833 0.68702 0.6644 0.0
C454 C 0.03556 0.74518 0.68558 0.0
C455 C 0.08505 0.7655 0.69501 0.0
C456 C 0.68184 0.30371 1.00829 0.0
C457 C 0.71795 0.29171 0.99994 0.0
C458 C 0.63071 0.3037 0.01732 0.0
C459 C 0.58262 0.2917 0.0257 0.0
C460 C 0.33159 0.62834 0.35073 0.0
C461 C 0.29551 0.58021 0.35907 0.0
C462 C 0.38274 0.67946 0.34172 0.0
C463 C 0.43087 0.71552 0.33336 0.0
C464 C 0.70752 0.32884 0.68397 0.0
C465 C 0.71954 0.29273 0.69228 0.0
C466 C 0.70751 0.38001 0.67502 0.0
C467 C 0.71954 0.42817 0.66672 0.0
C468 C 0.33149 0.70536 1.00844 0.0
C469 C 0.29532 0.71734 1.00018 0.0
C470 C 0.38271 0.70543 0.01734 0.0
C471 C 0.43086 0.71746 0.02561 0.0
C472 C 0.63114 0.32905 0.34174 0.0
C473 C 0.58304 0.29295 0.33343 0.0
C474 C 0.68224 0.3802 0.35071 0.0
C475 C 0.71828 0.42832 0.35903 0.0
C476 C 0.30577 0.62814 0.67529 0.0
C477 C 0.29382 0.58007 0.66693 0.0
C478 C 0.30576 0.67925 0.68432 0.0
C479 C 0.29378 0.71537 0.69266 0.0
C480 C 0.38853 0.20086 0.1654 0.0
C481 C 0.40074 0.2152 0.14161 0.0
C482 C 0.38862 0.19044 0.19396 0.0
C483 C 0.40096 0.18827 0.21772 0.0
C484 C 0.19262 0.38603 0.49875 0.0
C485 C 0.19049 0.39826 0.47497 0.0
C486 C 0.20305 0.38608 0.52731 0.0
C487 C 0.21741 0.39837 0.55108 0.0
C488 C 0.82138 0.20049 0.86045 0.0
C489 C 0.82347 0.21492 0.88421 0.0
C490 C 0.81094 0.18997 0.8319 0.0
C491 C 0.79652 0.18778 0.80813 0.0
C492 C 0.62518 0.80813 0.1651 0.0
C493 C 0.61293 0.79385 0.14132 0.0
C494 C 0.62514 0.81845 0.19367 0.0
C495 C 0.61284 0.82052 0.21745 0.0
C496 C 0.81106 0.62274 0.52716 0.0
C497 C 0.79671 0.61049 0.55094 0.0
C498 C 0.82137 0.62269 0.49858 0.0
C499 C 0.82339 0.61038 0.4748 0.0
C500 C 0.19238 0.80896 0.86071 0.0
C501 C 0.19025 0.79462 0.8845 0.0
C502 C 0.20277 0.81919 0.83213 0.0
C503 C 0.2171 0.82111 0.80835 0.0
C504 C 0.52108 0.53576 0.05416 0.0
C505 C 0.53912 0.58813 0.05642 0.0
C506 C 0.49211 0.47322 0.0542 0.0
C507 C 0.47411 0.42086 0.05651 0.0
C508 C 0.98999 0.51854 0.3878 0.0
C509 C 0.95565 0.53659 0.39003 0.0
C510 C 0.02356 0.48956 0.38783 0.0
C511 C 0.05794 0.47156 0.3901 0.0
C512 C 0.5379 0.02103 0.72124 0.0
C513 C 0.59028 0.05535 0.72347 0.0
C514 C 0.47534 0.98746 0.72122 0.0
C515 C 0.42296 0.95311 0.72346 0.0
C516 C 0.53819 0.51885 0.63799 0.0
C517 C 0.59056 0.5368 0.63573 0.0
C518 C 0.47565 0.48995 0.63802 0.0
C519 C 0.42327 0.47196 0.63581 0.0
C520 C 0.02334 0.53593 0.97133 0.0
C521 C 0.0577 0.58832 0.96914 0.0
C522 C 0.98978 0.47338 0.97126 0.0
C523 C 0.95547 0.42101 0.96899 0.0
C524 C 0.5214 0.9874 0.30449 0.0
C525 C 0.53937 0.95301 0.30224 0.0
C526 C 0.49249 0.02104 0.30452 0.0
C527 C 0.47451 0.05545 0.30232 0.0
loop_
_geom_bond_atom_site_label_1
_geom_bond_atom_site_label_2
_geom_bond_distance
_geom_bond_site_symmetry_2
_ccdc_geom_bond_type
Mn0 O5 2.095 . S
Mn0 O15 2.162 . S
Mn0 O16 2.297 . S
Mn0 O24 2.385 . S
Mn0 O25 2.209 . S
Mn0 O26 2.094 . S
Mn1 O6 2.121 . S
Mn1 N8 2.257 . S
Mn1 N17 2.282 . S
Mn1 O25 2.215 . S
Mn1 O27 2.117 . S
C2 O24 1.234 . S
C2 O25 1.283 . S
C3 O15 1.281 . S
C3 O16 1.236 . S
C4 O26 1.240 . S
C4 O27 1.264 . S
O5 Mn0 2.095 . S
O5 C14 1.250 . S
O6 Mn1 2.121 . S
O6 C14 1.258 . S
C7 N8 1.326 . S
C7 C11 1.460 . S
C7 H13 0.929 . S
N8 Mn1 2.257 . S
N8 C7 1.326 . S
N8 C12 1.362 . S
C9 C10 1.258 . S
C9 C12 1.431 . S
C9 C29 1.449 . S
C10 C9 1.258 . S
C10 C11 1.477 . S
C10 H30 0.931 . S
C11 C7 1.460 . S
C11 C10 1.477 . S
C11 H31 0.930 . S
C12 N8 1.362 . S
C12 C9 1.431 . S
C12 C22 1.476 . S
H13 C7 0.929 . S
C14 O5 1.250 . S
C14 O6 1.258 . S
O15 Mn0 2.162 . S
O15 C3 1.281 . S
O16 Mn0 2.297 . S
O16 C3 1.236 . S
N17 Mn1 2.282 . S
N17 C18 1.328 . S
N17 C22 1.318 . S
C18 N17 1.328 . S
C18 C19 1.457 . S
C18 H23 0.929 . S
C19 C18 1.457 . S
C19 C20 1.291 . S
C19 H32 0.931 1_554 S
C20 C19 1.291 . S
C20 C21 1.373 . S
C20 H33 0.929 . S
C21 C20 1.373 . S
C21 C22 1.396 . S
C21 C28 1.403 . S
C22 C12 1.476 . S
C22 N17 1.318 . S
C22 C21 1.396 . S
H23 C18 0.929 . S
O24 Mn0 2.385 . S
O24 C2 1.234 . S
O25 Mn0 2.209 . S
O25 Mn1 2.215 . S
O25 C2 1.283 . S
O26 Mn0 2.094 . S
O26 C4 1.240 . S
O27 Mn1 2.117 . S
O27 C4 1.264 . S
C28 C21 1.403 . S
C28 C29 1.399 . S
C28 H34 0.929 . S
C29 C9 1.449 . S
C29 C28 1.399 . S
C29 H35 0.930 . S
H30 C10 0.931 . S
H31 C11 0.930 . S
H32 C19 0.931 1_556 S
H33 C20 0.929 . S
H34 C28 0.929 . S
H35 C29 0.930 . S
Mn36 O41 2.095 . S
Mn36 O51 2.162 . S
Mn36 O52 2.297 . S
Mn36 O60 2.385 . S
Mn36 O61 2.209 . S
Mn36 O62 2.094 . S
Mn37 O42 2.121 . S
Mn37 N44 2.257 . S
Mn37 N53 2.282 . S
Mn37 O61 2.215 . S
Mn37 O63 2.117 . S
C38 O60 1.234 . S
C38 O61 1.283 . S
C39 O51 1.281 . S
C39 O52 1.236 . S
C40 O62 1.240 . S
C40 O63 1.264 . S
O41 Mn36 2.095 . S
O41 C50 1.250 . S
O42 Mn37 2.121 . S
O42 C50 1.258 . S
C43 N44 1.326 . S
C43 C47 1.460 . S
C43 H49 0.929 . S
N44 Mn37 2.257 . S
N44 C43 1.326 . S
N44 C48 1.362 . S
C45 C46 1.258 . S
C45 C48 1.431 . S
C45 C65 1.449 . S
C46 C45 1.258 . S
C46 C47 1.477 . S
C46 H66 0.931 . S
C47 C43 1.460 . S
C47 C46 1.477 . S
C47 H67 0.930 . S
C48 N44 1.362 . S
C48 C45 1.431 . S
C48 C58 1.476 . S
H49 C43 0.929 . S
C50 O41 1.250 . S
C50 O42 1.258 . S
O51 Mn36 2.162 . S
O51 C39 1.281 . S
O52 Mn36 2.297 . S
O52 C39 1.236 . S
N53 Mn37 2.282 . S
N53 C54 1.328 . S
N53 C58 1.318 . S
C54 N53 1.328 . S
C54 C55 1.457 . S
C54 H59 0.929 . S
C55 C54 1.457 . S
C55 C56 1.291 . S
C55 H68 0.931 . S
C56 C55 1.291 . S
C56 C57 1.373 . S
C56 H69 0.929 . S
C57 C56 1.373 . S
C57 C58 1.396 . S
C57 C64 1.403 . S
C58 C48 1.476 . S
C58 N53 1.318 . S
C58 C57 1.396 . S
H59 C54 0.929 . S
O60 Mn36 2.385 . S
O60 C38 1.234 . S
O61 Mn36 2.209 . S
O61 Mn37 2.215 . S
O61 C38 1.283 . S
O62 Mn36 2.094 . S
O62 C40 1.240 . S
O63 Mn37 2.117 . S
O63 C40 1.264 . S
C64 C57 1.403 . S
C64 C65 1.399 . S
C64 H70 0.929 . S
C65 C45 1.449 . S
C65 C64 1.399 . S
C65 H71 0.930 . S
H66 C46 0.931 . S
H67 C47 0.930 . S
H68 C55 0.931 . S
H69 C56 0.929 . S
H70 C64 0.929 . S
H71 C65 0.930 . S
Mn72 O77 2.095 . S
Mn72 O87 2.162 . S
Mn72 O88 2.297 . S
Mn72 O96 2.385 . S
Mn72 O97 2.209 . S
Mn72 O98 2.094 . S
Mn73 O78 2.121 . S
Mn73 N80 2.257 . S
Mn73 N89 2.282 . S
Mn73 O97 2.215 . S
Mn73 O99 2.117 . S
C74 O96 1.234 . S
C74 O97 1.283 . S
C75 O87 1.281 . S
C75 O88 1.236 . S
C76 O98 1.240 . S
C76 O99 1.264 . S
O77 Mn72 2.095 . S
O77 C86 1.250 . S
O78 Mn73 2.121 . S
O78 C86 1.258 . S
C79 N80 1.326 . S
C79 C83 1.460 . S
C79 H85 0.929 . S
N80 Mn73 2.257 . S
N80 C79 1.326 . S
N80 C84 1.362 . S
C81 C82 1.258 . S
C81 C84 1.431 . S
C81 C101 1.449 . S
C82 C81 1.258 . S
C82 C83 1.477 . S
C82 H102 0.931 . S
C83 C79 1.460 . S
C83 C82 1.477 . S
C83 H103 0.930 . S
C84 N80 1.362 . S
C84 C81 1.431 . S
C84 C94 1.476 . S
H85 C79 0.929 . S
C86 O77 1.250 . S
C86 O78 1.258 . S
O87 Mn72 2.162 . S
O87 C75 1.281 . S
O88 Mn72 2.297 . S
O88 C75 1.236 . S
N89 Mn73 2.282 . S
N89 C90 1.328 . S
N89 C94 1.318 . S
C90 N89 1.328 . S
C90 C91 1.457 . S
C90 H95 0.929 . S
C91 C90 1.457 . S
C91 C92 1.291 . S
C91 H104 0.931 . S
C92 C91 1.291 . S
C92 C93 1.373 . S
C92 H105 0.929 . S
C93 C92 1.373 . S
C93 C94 1.396 . S
C93 C100 1.403 . S
C94 C84 1.476 . S
C94 N89 1.318 . S
C94 C93 1.396 . S
H95 C90 0.929 . S
O96 Mn72 2.385 . S
O96 C74 1.234 . S
O97 Mn72 2.209 . S
O97 Mn73 2.215 . S
O97 C74 1.283 . S
O98 Mn72 2.094 . S
O98 C76 1.240 . S
O99 Mn73 2.117 . S
O99 C76 1.264 . S
C100 C93 1.403 . S
C100 C101 1.399 . S
C100 H106 0.929 . S
C101 C81 1.449 . S
C101 C100 1.399 . S
C101 H107 0.930 . S
H102 C82 0.931 . S
H103 C83 0.930 . S
H104 C91 0.931 . S
H105 C92 0.929 . S
H106 C100 0.929 . S
H107 C101 0.930 . S
Mn108 O113 2.095 . S
Mn108 O123 2.162 . S
Mn108 O124 2.297 . S
Mn108 O132 2.385 . S
Mn108 O133 2.209 . S
Mn108 O134 2.094 . S
Mn109 O114 2.121 . S
Mn109 N116 2.257 . S
Mn109 N125 2.282 . S
Mn109 O133 2.215 . S
Mn109 O135 2.117 . S
C110 O132 1.234 . S
C110 O133 1.283 . S
C111 O123 1.281 . S
C111 O124 1.236 . S
C112 O134 1.240 . S
C112 O135 1.264 . S
O113 Mn108 2.095 . S
O113 C122 1.250 . S
O114 Mn109 2.121 . S
O114 C122 1.258 . S
C115 N116 1.326 . S
C115 C119 1.460 . S
C115 H121 0.929 . S
N116 Mn109 2.257 . S
N116 C115 1.326 . S
N116 C120 1.362 . S
C117 C118 1.258 . S
C117 C120 1.431 . S
C117 C137 1.449 . S
C118 C117 1.258 . S
C118 C119 1.477 . S
C118 H138 0.931 . S
C119 C115 1.460 . S
C119 C118 1.477 . S
C119 H139 0.930 . S
C120 N116 1.362 . S
C120 C117 1.431 . S
C120 C130 1.476 . S
H121 C115 0.929 . S
C122 O113 1.250 . S
C122 O114 1.258 . S
O123 Mn108 2.162 . S
O123 C111 1.281 . S
O124 Mn108 2.297 . S
O124 C111 1.236 . S
N125 Mn109 2.282 . S
N125 C126 1.328 . S
N125 C130 1.318 . S
C126 N125 1.328 . S
C126 C127 1.457 . S
C126 H131 0.929 . S
C127 C126 1.457 . S
C127 C128 1.291 . S
C127 H140 0.931 1_554 S
C128 C127 1.291 . S
C128 C129 1.373 . S
C128 H141 0.929 . S
C129 C128 1.373 . S
C129 C130 1.396 . S
C129 C136 1.403 . S
C130 C120 1.476 . S
C130 N125 1.318 . S
C130 C129 1.396 . S
H131 C126 0.929 . S
O132 Mn108 2.385 . S
O132 C110 1.234 . S
O133 Mn108 2.209 . S
O133 Mn109 2.215 . S
O133 C110 1.283 . S
O134 Mn108 2.094 . S
O134 C112 1.240 . S
O135 Mn109 2.117 . S
O135 C112 1.264 . S
C136 C129 1.403 . S
C136 C137 1.399 . S
C136 H142 0.929 . S
C137 C117 1.449 . S
C137 C136 1.399 . S
C137 H143 0.930 . S
H138 C118 0.931 . S
H139 C119 0.930 . S
H140 C127 0.931 1_556 S
H141 C128 0.929 . S
H142 C136 0.929 . S
H143 C137 0.930 . S
Mn144 O149 2.095 . S
Mn144 O159 2.162 . S
Mn144 O160 2.297 . S
Mn144 O168 2.385 . S
Mn144 O169 2.209 . S
Mn144 O170 2.094 . S
Mn145 O150 2.121 . S
Mn145 N152 2.257 . S
Mn145 N161 2.282 . S
Mn145 O169 2.215 . S
Mn145 O171 2.117 . S
C146 O168 1.234 . S
C146 O169 1.283 . S
C147 O159 1.281 . S
C147 O160 1.236 . S
C148 O170 1.240 . S
C148 O171 1.264 . S
O149 Mn144 2.095 . S
O149 C158 1.250 . S
O150 Mn145 2.121 . S
O150 C158 1.258 . S
C151 N152 1.326 . S
C151 C155 1.460 . S
C151 H157 0.929 . S
N152 Mn145 2.257 . S
N152 C151 1.326 . S
N152 C156 1.362 . S
C153 C154 1.258 . S
C153 C156 1.431 . S
C153 C173 1.449 . S
C154 C153 1.258 . S
C154 C155 1.477 . S
C154 H174 0.931 . S
C155 C151 1.460 . S
C155 C154 1.477 . S
C155 H175 0.930 . S
C156 N152 1.362 . S
C156 C153 1.431 . S
C156 C166 1.476 . S
H157 C151 0.929 . S
C158 O149 1.250 . S
C158 O150 1.258 . S
O159 Mn144 2.162 . S
O159 C147 1.281 . S
O160 Mn144 2.297 . S
O160 C147 1.236 . S
N161 Mn145 2.282 . S
N161 C162 1.328 . S
N161 C166 1.318 . S
C162 N161 1.328 . S
C162 C163 1.457 . S
C162 H167 0.929 . S
C163 C162 1.457 . S
C163 C164 1.291 . S
C163 H176 0.931 . S
C164 C163 1.291 . S
C164 C165 1.373 . S
C164 H177 0.929 . S
C165 C164 1.373 . S
C165 C166 1.396 . S
C165 C172 1.403 . S
C166 C156 1.476 . S
C166 N161 1.318 . S
C166 C165 1.396 . S
H167 C162 0.929 . S
O168 Mn144 2.385 . S
O168 C146 1.234 . S
O169 Mn144 2.209 . S
O169 Mn145 2.215 . S
O169 C146 1.283 . S
O170 Mn144 2.094 . S
O170 C148 1.240 . S
O171 Mn145 2.117 . S
O171 C148 1.264 . S
C172 C165 1.403 . S
C172 C173 1.399 . S
C172 H178 0.929 . S
C173 C153 1.449 . S
C173 C172 1.399 . S
C173 H179 0.930 . S
H174 C154 0.931 . S
H175 C155 0.930 . S
H176 C163 0.931 . S
H177 C164 0.929 . S
H178 C172 0.929 . S
H179 C173 0.930 . S
Mn180 O185 2.095 . S
Mn180 O195 2.162 . S
Mn180 O196 2.297 . S
Mn180 O204 2.385 . S
Mn180 O205 2.209 . S
Mn180 O206 2.094 . S
Mn181 O186 2.121 . S
Mn181 N188 2.257 . S
Mn181 N197 2.282 . S
Mn181 O205 2.215 . S
Mn181 O207 2.117 . S
C182 O204 1.234 . S
C182 O205 1.283 . S
C183 O195 1.281 . S
C183 O196 1.236 . S
C184 O206 1.240 . S
C184 O207 1.264 . S
O185 Mn180 2.095 . S
O185 C194 1.250 . S
O186 Mn181 2.121 . S
O186 C194 1.258 . S
C187 N188 1.326 . S
C187 C191 1.460 . S
C187 H193 0.929 . S
N188 Mn181 2.257 . S
N188 C187 1.326 . S
N188 C192 1.362 . S
C189 C190 1.258 . S
C189 C192 1.431 . S
C189 C209 1.449 . S
C190 C189 1.258 . S
C190 C191 1.477 . S
C190 H210 0.931 . S
C191 C187 1.460 . S
C191 C190 1.477 . S
C191 H211 0.930 . S
C192 N188 1.362 . S
C192 C189 1.431 . S
C192 C202 1.476 . S
H193 C187 0.929 . S
C194 O185 1.250 . S
C194 O186 1.258 . S
O195 Mn180 2.162 . S
O195 C183 1.281 . S
O196 Mn180 2.297 . S
O196 C183 1.236 . S
N197 Mn181 2.282 . S
N197 C198 1.328 . S
N197 C202 1.318 . S
C198 N197 1.328 . S
C198 C199 1.457 . S
C198 H203 0.929 . S
C199 C198 1.457 . S
C199 C200 1.291 . S
C199 H212 0.931 . S
C200 C199 1.291 . S
C200 C201 1.373 . S
C200 H213 0.929 . S
C201 C200 1.373 . S
C201 C202 1.396 . S
C201 C208 1.403 . S
C202 C192 1.476 . S
C202 N197 1.318 . S
C202 C201 1.396 . S
H203 C198 0.929 . S
O204 Mn180 2.385 . S
O204 C182 1.234 . S
O205 Mn180 2.209 . S
O205 Mn181 2.215 . S
O205 C182 1.283 . S
O206 Mn180 2.094 . S
O206 C184 1.240 . S
O207 Mn181 2.117 . S
O207 C184 1.264 . S
C208 C201 1.403 . S
C208 C209 1.399 . S
C208 H214 0.929 . S
C209 C189 1.449 . S
C209 C208 1.399 . S
C209 H215 0.930 . S
H210 C190 0.931 . S
H211 C191 0.930 . S
H212 C199 0.931 . S
H213 C200 0.929 . S
H214 C208 0.929 . S
H215 C209 0.930 . S
Mn216 O221 2.095 . S
Mn216 O231 2.162 . S
Mn216 O232 2.297 . S
Mn216 O240 2.385 . S
Mn216 O241 2.209 . S
Mn216 O242 2.094 . S
Mn217 O222 2.121 . S
Mn217 N224 2.257 . S
Mn217 N233 2.282 . S
Mn217 O241 2.215 . S
Mn217 O243 2.117 . S
C218 O240 1.234 . S
C218 O241 1.283 . S
C219 O231 1.281 . S
C219 O232 1.236 . S
C220 O242 1.240 . S
C220 O243 1.264 . S
O221 Mn216 2.095 . S
O221 C230 1.250 . S
O222 Mn217 2.121 . S
O222 C230 1.258 . S
C223 N224 1.326 . S
C223 C227 1.460 . S
C223 H229 0.929 . S
N224 Mn217 2.257 . S
N224 C223 1.326 . S
N224 C228 1.362 . S
C225 C226 1.258 . S
C225 C228 1.431 . S
C225 C245 1.449 . S
C226 C225 1.258 . S
C226 C227 1.477 . S
C226 H246 0.931 . S
C227 C223 1.460 . S
C227 C226 1.477 . S
C227 H247 0.930 . S
C228 N224 1.362 . S
C228 C225 1.431 . S
C228 C238 1.476 . S
H229 C223 0.929 . S
C230 O221 1.250 . S
C230 O222 1.258 . S
O231 Mn216 2.162 . S
O231 C219 1.281 . S
O232 Mn216 2.297 . S
O232 C219 1.236 . S
N233 Mn217 2.282 . S
N233 C234 1.328 . S
N233 C238 1.318 . S
C234 N233 1.328 . S
C234 C235 1.457 . S
C234 H239 0.929 . S
C235 C234 1.457 . S
C235 C236 1.291 . S
C235 H248 0.931 . S
C236 C235 1.291 . S
C236 C237 1.373 . S
C236 H249 0.929 . S
C237 C236 1.373 . S
C237 C238 1.396 . S
C237 C244 1.403 . S
C238 C228 1.476 . S
C238 N233 1.318 . S
C238 C237 1.396 . S
H239 C234 0.929 . S
O240 Mn216 2.385 . S
O240 C218 1.234 . S
O241 Mn216 2.209 . S
O241 Mn217 2.215 . S
O241 C218 1.283 . S
O242 Mn216 2.094 . S
O242 C220 1.240 . S
O243 Mn217 2.117 . S
O243 C220 1.264 . S
C244 C237 1.403 . S
C244 C245 1.399 . S
C244 H250 0.929 . S
C245 C225 1.449 . S
C245 C244 1.399 . S
C245 H251 0.930 . S
H246 C226 0.931 . S
H247 C227 0.930 . S
H248 C235 0.931 . S
H249 C236 0.929 . S
H250 C244 0.929 . S
H251 C245 0.930 . S
Mn252 O257 2.095 . S
Mn252 O267 2.162 . S
Mn252 O268 2.297 . S
Mn252 O276 2.385 . S
Mn252 O277 2.209 . S
Mn252 O278 2.094 . S
Mn253 O258 2.121 . S
Mn253 N260 2.257 . S
Mn253 N269 2.282 . S
Mn253 O277 2.215 . S
Mn253 O279 2.117 . S
C254 O276 1.234 . S
C254 O277 1.283 . S
C255 O267 1.281 . S
C255 O268 1.236 . S
C256 O278 1.240 . S
C256 O279 1.264 . S
O257 Mn252 2.095 . S
O257 C266 1.250 . S
O258 Mn253 2.121 . S
O258 C266 1.258 . S
C259 N260 1.326 . S
C259 C263 1.460 . S
C259 H265 0.929 . S
N260 Mn253 2.257 . S
N260 C259 1.326 . S
N260 C264 1.362 . S
C261 C262 1.258 . S
C261 C264 1.431 . S
C261 C281 1.449 . S
C262 C261 1.258 . S
C262 C263 1.477 . S
C262 H282 0.931 . S
C263 C259 1.460 . S
C263 C262 1.477 . S
C263 H283 0.930 . S
C264 N260 1.362 . S
C264 C261 1.431 . S
C264 C274 1.476 . S
H265 C259 0.929 . S
C266 O257 1.250 . S
C266 O258 1.258 . S
O267 Mn252 2.162 . S
O267 C255 1.281 . S
O268 Mn252 2.297 . S
O268 C255 1.236 . S
N269 Mn253 2.282 . S
N269 C270 1.328 . S
N269 C274 1.318 . S
C270 N269 1.328 . S
C270 C271 1.457 . S
C270 H275 0.929 . S
C271 C270 1.457 . S
C271 C272 1.291 . S
C271 H284 0.931 1_556 S
C272 C271 1.291 . S
C272 C273 1.373 . S
C272 H285 0.929 . S
C273 C272 1.373 . S
C273 C274 1.396 . S
C273 C280 1.403 . S
C274 C264 1.476 . S
C274 N269 1.318 . S
C274 C273 1.396 . S
H275 C270 0.929 . S
O276 Mn252 2.385 . S
O276 C254 1.234 . S
O277 Mn252 2.209 . S
O277 Mn253 2.215 . S
O277 C254 1.283 . S
O278 Mn252 2.094 . S
O278 C256 1.240 . S
O279 Mn253 2.117 . S
O279 C256 1.264 . S
C280 C273 1.403 . S
C280 C281 1.399 . S
C280 H286 0.929 . S
C281 C261 1.449 . S
C281 C280 1.399 . S
C281 H287 0.930 . S
H282 C262 0.931 . S
H283 C263 0.930 . S
H284 C271 0.931 1_554 S
H285 C272 0.929 . S
H286 C280 0.929 . S
H287 C281 0.930 . S
Mn288 O293 2.095 . S
Mn288 O303 2.162 . S
Mn288 O304 2.297 . S
Mn288 O312 2.385 . S
Mn288 O313 2.209 . S
Mn288 O314 2.094 . S
Mn289 O294 2.121 . S
Mn289 N296 2.257 . S
Mn289 N305 2.282 . S
Mn289 O313 2.215 . S
Mn289 O315 2.117 . S
C290 O312 1.234 . S
C290 O313 1.283 . S
C291 O303 1.281 . S
C291 O304 1.236 . S
C292 O314 1.240 . S
C292 O315 1.264 . S
O293 Mn288 2.095 . S
O293 C302 1.250 . S
O294 Mn289 2.121 . S
O294 C302 1.258 . S
C295 N296 1.326 . S
C295 C299 1.460 . S
C295 H301 0.929 . S
N296 Mn289 2.257 . S
N296 C295 1.326 . S
N296 C300 1.362 . S
C297 C298 1.258 . S
C297 C300 1.431 . S
C297 C317 1.449 . S
C298 C297 1.258 . S
C298 C299 1.477 . S
C298 H318 0.931 . S
C299 C295 1.460 . S
C299 C298 1.477 . S
C299 H319 0.930 . S
C300 N296 1.362 . S
C300 C297 1.431 . S
C300 C310 1.476 . S
H301 C295 0.929 . S
C302 O293 1.250 . S
C302 O294 1.258 . S
O303 Mn288 2.162 . S
O303 C291 1.281 . S
O304 Mn288 2.297 . S
O304 C291 1.236 . S
N305 Mn289 2.282 . S
N305 C306 1.328 . S
N305 C310 1.318 . S
C306 N305 1.328 . S
C306 C307 1.457 . S
C306 H311 0.929 . S
C307 C306 1.457 . S
C307 C308 1.291 . S
C307 H320 0.931 . S
C308 C307 1.291 . S
C308 C309 1.373 . S
C308 H321 0.929 . S
C309 C308 1.373 . S
C309 C310 1.396 . S
C309 C316 1.403 . S
C310 C300 1.476 . S
C310 N305 1.318 . S
C310 C309 1.396 . S
H311 C306 0.929 . S
O312 Mn288 2.385 . S
O312 C290 1.234 . S
O313 Mn288 2.209 . S
O313 Mn289 2.215 . S
O313 C290 1.283 . S
O314 Mn288 2.094 . S
O314 C292 1.240 . S
O315 Mn289 2.117 . S
O315 C292 1.264 . S
C316 C309 1.403 . S
C316 C317 1.399 . S
C316 H322 0.929 . S
C317 C297 1.449 . S
C317 C316 1.399 . S
C317 H323 0.930 . S
H318 C298 0.931 . S
H319 C299 0.930 . S
H320 C307 0.931 . S
H321 C308 0.929 . S
H322 C316 0.929 . S
H323 C317 0.930 . S
Mn324 O329 2.095 . S
Mn324 O339 2.162 . S
Mn324 O340 2.297 . S
Mn324 O348 2.385 . S
Mn324 O349 2.209 . S
Mn324 O350 2.094 . S
Mn325 O330 2.121 . S
Mn325 N332 2.257 . S
Mn325 N341 2.282 . S
Mn325 O349 2.215 . S
Mn325 O351 2.117 . S
C326 O348 1.234 . S
C326 O349 1.283 . S
C327 O339 1.281 . S
C327 O340 1.236 . S
C328 O350 1.240 . S
C328 O351 1.264 . S
O329 Mn324 2.095 . S
O329 C338 1.250 . S
O330 Mn325 2.121 . S
O330 C338 1.258 . S
C331 N332 1.326 . S
C331 C335 1.460 . S
C331 H337 0.929 . S
N332 Mn325 2.257 . S
N332 C331 1.326 . S
N332 C336 1.362 . S
C333 C334 1.258 . S
C333 C336 1.431 . S
C333 C353 1.449 . S
C334 C333 1.258 . S
C334 C335 1.477 . S
C334 H354 0.931 . S
C335 C331 1.460 . S
C335 C334 1.477 . S
C335 H355 0.930 . S
C336 N332 1.362 . S
C336 C333 1.431 . S
C336 C346 1.476 . S
H337 C331 0.929 . S
C338 O329 1.250 . S
C338 O330 1.258 . S
O339 Mn324 2.162 . S
O339 C327 1.281 . S
O340 Mn324 2.297 . S
O340 C327 1.236 . S
N341 Mn325 2.282 . S
N341 C342 1.328 . S
N341 C346 1.318 . S
C342 N341 1.328 . S
C342 C343 1.457 . S
C342 H347 0.929 . S
C343 C342 1.457 . S
C343 C344 1.291 . S
C343 H356 0.931 . S
C344 C343 1.291 . S
C344 C345 1.373 . S
C344 H357 0.929 . S
C345 C344 1.373 . S
C345 C346 1.396 . S
C345 C352 1.403 . S
C346 C336 1.476 . S
C346 N341 1.318 . S
C346 C345 1.396 . S
H347 C342 0.929 . S
O348 Mn324 2.385 . S
O348 C326 1.234 . S
O349 Mn324 2.209 . S
O349 Mn325 2.215 . S
O349 C326 1.283 . S
O350 Mn324 2.094 . S
O350 C328 1.240 . S
O351 Mn325 2.117 . S
O351 C328 1.264 . S
C352 C345 1.403 . S
C352 C353 1.399 . S
C352 H358 0.929 . S
C353 C333 1.449 . S
C353 C352 1.399 . S
C353 H359 0.930 . S
H354 C334 0.931 . S
H355 C335 0.930 . S
H356 C343 0.931 . S
H357 C344 0.929 . S
H358 C352 0.929 . S
H359 C353 0.930 . S
Mn360 O365 2.095 . S
Mn360 O375 2.162 . S
Mn360 O376 2.297 . S
Mn360 O384 2.385 . S
Mn360 O385 2.209 . S
Mn360 O386 2.094 . S
Mn361 O366 2.121 . S
Mn361 N368 2.257 . S
Mn361 N377 2.282 . S
Mn361 O385 2.215 . S
Mn361 O387 2.117 . S
C362 O384 1.234 . S
C362 O385 1.283 . S
C363 O375 1.281 . S
C363 O376 1.236 . S
C364 O386 1.240 . S
C364 O387 1.264 . S
O365 Mn360 2.095 . S
O365 C374 1.250 . S
O366 Mn361 2.121 . S
O366 C374 1.258 . S
C367 N368 1.326 . S
C367 C371 1.460 . S
C367 H373 0.929 . S
N368 Mn361 2.257 . S
N368 C367 1.326 . S
N368 C372 1.362 . S
C369 C370 1.258 . S
C369 C372 1.431 . S
C369 C389 1.449 . S
C370 C369 1.258 . S
C370 C371 1.477 . S
C370 H390 0.931 . S
C371 C367 1.460 . S
C371 C370 1.477 . S
C371 H391 0.930 . S
C372 N368 1.362 . S
C372 C369 1.431 . S
C372 C382 1.476 . S
H373 C367 0.929 . S
C374 O365 1.250 . S
C374 O366 1.258 . S
O375 Mn360 2.162 . S
O375 C363 1.281 . S
O376 Mn360 2.297 . S
O376 C363 1.236 . S
N377 Mn361 2.282 . S
N377 C378 1.328 . S
N377 C382 1.318 . S
C378 N377 1.328 . S
C378 C379 1.457 . S
C378 H383 0.929 . S
C379 C378 1.457 . S
C379 C380 1.291 . S
C379 H392 0.931 1_556 S
C380 C379 1.291 . S
C380 C381 1.373 . S
C380 H393 0.929 . S
C381 C380 1.373 . S
C381 C382 1.396 . S
C381 C388 1.403 . S
C382 C372 1.476 . S
C382 N377 1.318 . S
C382 C381 1.396 . S
H383 C378 0.929 . S
O384 Mn360 2.385 . S
O384 C362 1.234 . S
O385 Mn360 2.209 . S
O385 Mn361 2.215 . S
O385 C362 1.283 . S
O386 Mn360 2.094 . S
O386 C364 1.240 . S
O387 Mn361 2.117 . S
O387 C364 1.264 . S
C388 C381 1.403 . S
C388 C389 1.399 . S
C388 H394 0.929 . S
C389 C369 1.449 . S
C389 C388 1.399 . S
C389 H395 0.930 . S
H390 C370 0.931 . S
H391 C371 0.930 . S
H392 C379 0.931 1_554 S
H393 C380 0.929 . S
H394 C388 0.929 . S
H395 C389 0.930 . S
Mn396 O401 2.095 . S
Mn396 O411 2.162 . S
Mn396 O412 2.297 . S
Mn396 O420 2.385 . S
Mn396 O421 2.209 . S
Mn396 O422 2.094 . S
Mn397 O402 2.121 . S
Mn397 N404 2.257 . S
Mn397 N413 2.282 . S
Mn397 O421 2.215 . S
Mn397 O423 2.117 . S
C398 O420 1.234 . S
C398 O421 1.283 . S
C399 O411 1.281 . S
C399 O412 1.236 . S
C400 O422 1.240 . S
C400 O423 1.264 . S
O401 Mn396 2.095 . S
O401 C410 1.250 . S
O402 Mn397 2.121 . S
O402 C410 1.258 . S
C403 N404 1.326 . S
C403 C407 1.460 . S
C403 H409 0.929 . S
N404 Mn397 2.257 . S
N404 C403 1.326 . S
N404 C408 1.362 . S
C405 C406 1.258 . S
C405 C408 1.431 . S
C405 C425 1.449 . S
C406 C405 1.258 . S
C406 C407 1.477 . S
C406 H426 0.931 . S
C407 C403 1.460 . S
C407 C406 1.477 . S
C407 H427 0.930 . S
C408 N404 1.362 . S
C408 C405 1.431 . S
C408 C418 1.476 . S
H409 C403 0.929 . S
C410 O401 1.250 . S
C410 O402 1.258 . S
O411 Mn396 2.162 . S
O411 C399 1.281 . S
O412 Mn396 2.297 . S
O412 C399 1.236 . S
N413 Mn397 2.282 . S
N413 C414 1.328 . S
N413 C418 1.318 . S
C414 N413 1.328 . S
C414 C415 1.457 . S
C414 H419 0.929 . S
C415 C414 1.457 . S
C415 C416 1.291 . S
C415 H428 0.931 . S
C416 C415 1.291 . S
C416 C417 1.373 . S
C416 H429 0.929 . S
C417 C416 1.373 . S
C417 C418 1.396 . S
C417 C424 1.403 . S
C418 C408 1.476 . S
C418 N413 1.318 . S
C418 C417 1.396 . S
H419 C414 0.929 . S
O420 Mn396 2.385 . S
O420 C398 1.234 . S
O421 Mn396 2.209 . S
O421 Mn397 2.215 . S
O421 C398 1.283 . S
O422 Mn396 2.094 . S
O422 C400 1.240 . S
O423 Mn397 2.117 . S
O423 C400 1.264 . S
C424 C417 1.403 . S
C424 C425 1.399 . S
C424 H430 0.929 . S
C425 C405 1.449 . S
C425 C424 1.399 . S
C425 H431 0.930 . S
H426 C406 0.931 . S
H427 C407 0.930 . S
H428 C415 0.931 . S
H429 C416 0.929 . S
H430 C424 0.929 . S
H431 C425 0.930 . S
C432 C433 1.170 . S
C432 C434 1.380 1_566 S
C433 C432 1.170 . S
C434 C432 1.380 1_544 S
C434 C435 1.170 . S
C435 C434 1.170 . S
C436 C437 1.170 . S
C436 C438 1.380 . S
C437 C436 1.170 . S
C438 C436 1.380 . S
C438 C439 1.170 . S
C439 C438 1.170 . S
C440 C441 1.170 . S
C440 C442 1.380 1_655 S
C441 C440 1.170 . S
C442 C440 1.380 1_455 S
C442 C443 1.170 . S
C443 C442 1.170 . S
C444 C445 1.170 . S
C444 C446 1.380 1_564 S
C445 C444 1.170 . S
C446 C444 1.380 1_546 S
C446 C447 1.170 . S
C447 C446 1.170 . S
C448 C449 1.170 . S
C448 C450 1.380 . S
C449 C448 1.170 . S
C450 C448 1.380 . S
C450 C451 1.170 . S
C451 C450 1.170 . S
C452 C453 1.170 . S
C452 C454 1.380 1_655 S
C453 C452 1.170 . S
C454 C452 1.380 1_455 S
C454 C455 1.170 . S
C455 C454 1.170 . S
C456 C457 1.170 . S
C456 C458 1.380 1_556 S
C457 C456 1.170 . S
C458 C456 1.380 1_554 S
C458 C459 1.170 . S
C459 C458 1.170 . S
C460 C461 1.170 . S
C460 C462 1.380 . S
C461 C460 1.170 . S
C462 C460 1.380 . S
C462 C463 1.170 . S
C463 C462 1.170 . S
C464 C465 1.170 . S
C464 C466 1.380 . S
C465 C464 1.170 . S
C466 C464 1.380 . S
C466 C467 1.170 . S
C467 C466 1.170 . S
C468 C469 1.170 . S
C468 C470 1.380 1_556 S
C469 C468 1.170 . S
C470 C468 1.380 1_554 S
C470 C471 1.170 . S
C471 C470 1.170 . S
C472 C473 1.170 . S
C472 C474 1.380 . S
C473 C472 1.170 . S
C474 C472 1.380 . S
C474 C475 1.170 . S
C475 C474 1.170 . S
C476 C477 1.170 . S
C476 C478 1.380 . S
C477 C476 1.170 . S
C478 C476 1.380 . S
C478 C479 1.170 . S
C479 C478 1.170 . S
C480 C481 1.170 . S
C480 C482 1.380 . S
C481 C480 1.170 . S
C482 C480 1.380 . S
C482 C483 1.170 . S
C483 C482 1.170 . S
C484 C485 1.170 . S
C484 C486 1.380 . S
C485 C484 1.170 . S
C486 C484 1.380 . S
C486 C487 1.170 . S
C487 C486 1.170 . S
C488 C489 1.170 . S
C488 C490 1.380 . S
C489 C488 1.170 . S
C490 C488 1.380 . S
C490 C491 1.170 . S
C491 C490 1.170 . S
C492 C493 1.170 . S
C492 C494 1.380 . S
C493 C492 1.170 . S
C494 C492 1.380 . S
C494 C495 1.170 . S
C495 C494 1.170 . S
C496 C497 1.170 . S
C496 C498 1.380 . S
C497 C496 1.170 . S
C498 C496 1.380 . S
C498 C499 1.170 . S
C499 C498 1.170 . S
C500 C501 1.170 . S
C500 C502 1.380 . S
C501 C500 1.170 . S
C502 C500 1.380 . S
C502 C503 1.170 . S
C503 C502 1.170 . S
C504 C505 1.170 . S
C504 C506 1.380 . S
C505 C504 1.170 . S
C506 C504 1.380 . S
C506 C507 1.170 . S
C507 C506 1.170 . S
C508 C509 1.170 . S
C508 C510 1.380 1_655 S
C509 C508 1.170 . S
C510 C508 1.380 1_455 S
C510 C511 1.170 . S
C511 C510 1.170 . S
C512 C513 1.170 . S
C512 C514 1.380 1_545 S
C513 C512 1.170 . S
C514 C512 1.380 1_565 S
C514 C515 1.170 . S
C515 C514 1.170 . S
C516 C517 1.170 . S
C516 C518 1.380 . S
C517 C516 1.170 . S
C518 C516 1.380 . S
C518 C519 1.170 . S
C519 C518 1.170 . S
C520 C521 1.170 . S
C520 C522 1.380 1_455 S
C521 C520 1.170 . S
C522 C520 1.380 1_655 S
C522 C523 1.170 . S
C523 C522 1.170 . S
C524 C525 1.170 . S
C524 C526 1.380 1_565 S
C525 C524 1.170 . S
C526 C524 1.380 1_545 S
C526 C527 1.170 . S
C527 C526 1.170 . S
C433 C255 1.389 . S
C435 C3 1.390 . S
C437 C39 1.385 . S
C439 C291 1.384 . S
C441 C75 1.395 . S
C443 C327 1.395 . S
C445 C111 1.397 . S
C447 C363 1.397 . S
C449 C399 1.388 . S
C451 C147 1.387 . S
C453 C219 1.386 . S
C455 C183 1.387 . S
C457 C362 1.434 . S
C459 C2 1.431 . S
C461 C38 1.427 . S
C463 C398 1.428 . S
C465 C74 1.428 . S
C467 C218 1.432 . S
C469 C254 1.427 . S
C471 C110 1.428 . S
C473 C290 1.434 . S
C475 C146 1.432 . S
C477 C326 1.427 . S
C479 C182 1.430 . S
C481 C14 1.543 . S
C483 C302 1.544 . S
C485 C50 1.548 . S
C487 C338 1.546 . S
C489 C374 1.577 . S
C491 C86 1.579 . S
C493 C122 1.543 . S
C495 C410 1.544 . S
C497 C230 1.556 . S
C499 C158 1.553 . S
C501 C266 1.571 . S
C503 C194 1.568 . S
C505 C112 1.342 . S
C507 C4 1.381 . S
C509 C148 1.331 . S
C511 C40 1.366 . S
C513 C76 1.353 . S
C515 C184 1.336 . S
C517 C220 1.332 . S
C519 C328 1.360 . S
C521 C256 1.366 . S
C523 C364 1.331 . S
C525 C400 1.332 . S
C527 C292 1.362 . S
