# Generated by pormake.
# Topology snk, (6)-cn, num edge types: 1
# Building blocks:
#     Node 0, Type 0, BuildingBlock: BETDAH_clean_sbu_0, # of connection points: 6
#     Node 1, Type 0, BuildingBlock: BETDAH_clean_sbu_0, # of connection points: 6
#     Node 2, Type 0, BuildingBlock: BETDAH_clean_sbu_0, # of connection points: 6
#     Node 3, Type 0, BuildingBlock: BETDAH_clean_sbu_0, # of connection points: 6
#     Node 4, Type 0, BuildingBlock: BETDAH_clean_sbu_0, # of connection points: 6
#     Node 5, Type 0, BuildingBlock: BETDAH_clean_sbu_0, # of connection points: 6
#     Node 6, Type 0, BuildingBlock: BETDAH_clean_sbu_0, # of connection points: 6
#     Node 7, Type 0, BuildingBlock: BETDAH_clean_sbu_0, # of connection points: 6
#     Edge 8, Type (0, 0), BuildingBlock: CIFDUS_clean_linker_0, # of connection points: 2
#     Edge 9, Type (0, 0), BuildingBlock: CIFDUS_clean_linker_0, # of connection points: 2
#     Edge 10, Type (0, 0), BuildingBlock: CIFDUS_clean_linker_0, # of connection points: 2
#     Edge 11, Type (0, 0), BuildingBlock: CIFDUS_clean_linker_0, # of connection points: 2
#     Edge 12, Type (0, 0), BuildingBlock: CIFDUS_clean_linker_0, # of connection points: 2
#     Edge 13, Type (0, 0), BuildingBlock: CIFDUS_clean_linker_0, # of connection points: 2
#     Edge 14, Type (0, 0), BuildingBlock: CIFDUS_clean_linker_0, # of connection points: 2
#     Edge 15, Type (0, 0), BuildingBlock: CIFDUS_clean_linker_0, # of connection points: 2
#     Edge 16, Type (0, 0), BuildingBlock: CIFDUS_clean_linker_0, # of connection points: 2
#     Edge 17, Type (0, 0), BuildingBlock: CIFDUS_clean_linker_0, # of connection points: 2
#     Edge 18, Type (0, 0), BuildingBlock: CIFDUS_clean_linker_0, # of connection points: 2
#     Edge 19, Type (0, 0), BuildingBlock: CIFDUS_clean_linker_0, # of connection points: 2
#     Edge 20, Type (0, 0), BuildingBlock: CIFDUS_clean_linker_0, # of connection points: 2
#     Edge 21, Type (0, 0), BuildingBlock: CIFDUS_clean_linker_0, # of connection points: 2
#     Edge 22, Type (0, 0), BuildingBlock: CIFDUS_clean_linker_0, # of connection points: 2
#     Edge 23, Type (0, 0), BuildingBlock: CIFDUS_clean_linker_0, # of connection points: 2
#     Edge 24, Type (0, 0), BuildingBlock: CIFDUS_clean_linker_0, # of connection points: 2
#     Edge 25, Type (0, 0), BuildingBlock: CIFDUS_clean_linker_0, # of connection points: 2
#     Edge 26, Type (0, 0), BuildingBlock: CIFDUS_clean_linker_0, # of connection points: 2
#     Edge 27, Type (0, 0), BuildingBlock: CIFDUS_clean_linker_0, # of connection points: 2
#     Edge 28, Type (0, 0), BuildingBlock: CIFDUS_clean_linker_0, # of connection points: 2
#     Edge 29, Type (0, 0), BuildingBlock: CIFDUS_clean_linker_0, # of connection points: 2
#     Edge 30, Type (0, 0), BuildingBlock: CIFDUS_clean_linker_0, # of connection points: 2
#     Edge 31, Type (0, 0), BuildingBlock: CIFDUS_clean_linker_0, # of connection points: 2
# Relax obj value: 0.096
# Max RMSD: 0.164
# Mean RMSD: 0.132
data_MOF--net-snk--node1-BETDAH_clean_sbu_0--edge1-CIFDUS_clean_linker_0
_symmetry_space_group_name_H-M    P1
_symmetry_Int_Tables_number       1
_symmetry_cell_setting            triclinic
loop_
_symmetry_equiv_pos_as_xyz
'x, y, z'
_cell_length_a     32.287509
_cell_length_b     32.211074
_cell_length_c     23.393296
_cell_angle_alpha  83.300514
_cell_angle_beta   97.156404
_cell_angle_gamma 88.787862
loop_
_atom_site_label
_atom_site_type_symbol
_atom_site_fract_x
_atom_site_fract_y
_atom_site_fract_z
_atom_type_partial_charge
Ho0 Ho 0.99079 0.98672 0.45896 0.0
Ho1 Ho 0.03551 0.01334 0.57324 0.0
C2 C 0.06945 0.04926 0.45825 0.0
C3 C 0.95411 0.9846 0.35417 0.0
C4 C 0.96686 0.98948 0.29541 0.0
C5 C 0.93914 0.97966 0.24827 0.0
C6 C 0.95147 0.98206 0.19267 0.0
C7 C 0.9919 0.99433 0.18308 0.0
C8 C 0.01939 1.00474 0.23055 0.0
C9 C 1.00702 1.00227 0.28615 0.0
C10 C 0.05345 0.93456 0.51416 0.0
C11 C 0.9602 0.94729 0.57514 0.0
C12 C 0.07064 0.01779 0.6783 0.0
C13 C 0.05722 0.0141 0.73664 0.0
C14 C 0.0847 0.02425 0.78381 0.0
C15 C 0.07204 0.02232 0.83917 0.0
C16 C 0.03153 0.01017 0.84851 0.0
C17 C 1.00421 0.99961 0.80096 0.0
C18 C 0.01692 1.0016 0.74558 0.0
C19 C 0.97136 0.06395 0.5176 0.0
O20 O 0.03385 0.03784 0.43083 0.0
O21 O 0.0814 0.03656 0.5138 0.0
O22 O 0.96968 0.95146 0.38826 0.0
O23 O 0.95471 0.01809 0.38095 0.0
O24 O 0.0206 0.92244 0.48379 0.0
O25 O 0.05309 0.9739 0.50948 0.0
O26 O 0.99513 0.96056 0.60181 0.0
O27 O 0.94685 0.95998 0.51987 0.0
O28 O 0.05537 0.05028 0.64264 0.0
O29 O 0.0705 0.98361 0.65311 0.0
O30 O 1.0048 0.07737 0.54501 0.0
O31 O 0.97273 0.0247 0.52382 0.0
H32 H 0.90809 0.96948 0.25462 0.0
H33 H 0.92964 0.97327 0.1575 0.0
H34 H 0.05052 0.01487 0.22478 0.0
H35 H 0.02895 0.00992 0.32199 0.0
H36 H 0.11587 0.03417 0.77771 0.0
H37 H 0.09374 0.03124 0.8744 0.0
H38 H 0.97301 0.98959 0.80654 0.0
H39 H 0.99521 0.99364 0.70969 0.0
Ho40 Ho 0.26103 0.74244 0.81584 0.0
Ho41 Ho 0.28777 0.78768 0.70223 0.0
C42 C 0.33124 0.81367 0.82069 0.0
C43 C 0.25676 0.70642 0.92002 0.0
C44 C 0.2628 0.71884 0.97942 0.0
C45 C 0.29366 0.74671 0.9962 0.0
C46 C 0.29768 0.75914 0.05206 0.0
C47 C 0.27081 0.74418 0.09237 0.0
C48 C 0.24017 0.71604 0.0753 0.0
C49 C 0.23627 0.70354 1.01954 0.0
C50 C 0.21381 0.81049 0.76502 0.0
C51 C 0.21814 0.71497 0.69877 0.0
C52 C 0.29055 0.82481 0.59828 0.0
C53 C 0.28482 0.81251 0.53878 0.0
C54 C 0.25409 0.78462 0.52164 0.0
C55 C 0.25039 0.77223 0.46576 0.0
C56 C 0.27746 0.78725 0.42578 0.0
C57 C 0.30796 0.81545 0.44316 0.0
C58 C 0.31154 0.8279 0.49894 0.0
C59 C 0.33625 0.72072 0.75248 0.0
O60 O 0.31691 0.77887 0.84565 0.0
O61 O 0.31817 0.82872 0.76602 0.0
O62 O 0.22455 0.72399 0.88574 0.0
O63 O 0.28992 0.70406 0.89342 0.0
O64 O 0.19912 0.77771 0.79187 0.0
O65 O 0.25287 0.80648 0.76959 0.0
O66 O 0.23235 0.74974 0.67312 0.0
O67 O 0.23138 0.70053 0.75349 0.0
O68 O 0.32341 0.80823 0.63217 0.0
O69 O 0.25745 0.82577 0.6253 0.0
O70 O 0.34982 0.75308 0.7232 0.0
O71 O 0.29705 0.72393 0.74907 0.0
H72 H 0.31452 0.75911 0.96609 0.0
H73 H 0.322 0.78039 0.06371 0.0
H74 H 0.21849 0.70432 0.10459 0.0
H75 H 0.21206 0.68225 1.00745 0.0
H76 H 0.23308 0.77214 0.55148 0.0
H77 H 0.22615 0.75095 0.45386 0.0
H78 H 0.32978 0.82722 0.41411 0.0
H79 H 0.33565 0.84922 0.51129 0.0
Ho80 Ho 0.52959 0.98658 0.09699 0.0
Ho81 Ho 0.49586 0.03158 0.97705 0.0
C82 C 0.45553 0.058 0.08535 0.0
C83 C 0.5563 0.96471 0.20607 0.0
C84 C 0.54514 0.97317 0.26308 0.0
C85 C 0.57506 0.96572 0.31231 0.0
C86 C 0.56489 0.97237 0.3671 0.0
C87 C 0.5245 0.9868 0.37387 0.0
C88 C 0.49472 0.99472 0.32405 0.0
C89 C 0.5049 0.98783 0.2693 0.0
C90 C 0.46992 0.94761 0.03311 0.0
C91 C 0.57282 0.96078 0.99268 0.0
C92 C 0.46618 0.04965 0.86823 0.0
C93 C 0.47783 0.042 0.81119 0.0
C94 C 0.44824 0.04996 0.76169 0.0
C95 C 0.45865 0.04337 0.70701 0.0
C96 C 0.49897 0.02849 0.70066 0.0
C97 C 0.52847 0.02019 0.75073 0.0
C98 C 0.51802 0.02698 0.8054 0.0
C99 C 0.5534 0.07396 0.03772 0.0
O100 O 0.48809 0.03806 0.11745 0.0
O101 O 0.44791 0.05589 0.02869 0.0
O102 O 0.52984 0.94345 0.17521 0.0
O103 O 0.57096 0.99585 0.17461 0.0
O104 O 0.50181 0.92819 0.06504 0.0
O105 O 0.47081 0.98596 0.03827 0.0
O106 O 0.54145 0.98154 0.95828 0.0
O107 O 0.5785 0.96265 0.04916 0.0
O108 O 0.49001 0.07421 0.89748 0.0
O109 O 0.45576 0.01699 0.90116 0.0
O110 O 0.5218 0.09108 1.00261 0.0
O111 O 0.55481 0.0347 0.03641 0.0
H112 H 0.60626 0.95423 0.30849 0.0
H113 H 0.5885 0.9653 0.40434 0.0
H114 H 0.4635 1.00641 0.32724 0.0
H115 H 0.48126 0.99363 0.2319 0.0
H116 H 0.41706 0.06165 0.76523 0.0
H117 H 0.43528 0.05072 0.66955 0.0
H118 H 0.55962 0.00818 0.74781 0.0
H119 H 0.54134 0.02068 0.84309 0.0
Ho120 Ho 0.22067 0.27682 0.19623 0.0
Ho121 Ho 0.26417 0.24044 0.3168 0.0
C122 C 0.28799 0.19897 0.20814 0.0
C123 C 0.19885 0.30397 0.08743 0.0
C124 C 0.21127 0.29678 0.03063 0.0
C125 C 0.25116 0.28056 0.02544 0.0
C126 C 0.26115 0.2718 0.9713 0.0
C127 C 0.23142 0.27902 0.92131 0.0
C128 C 0.1917 0.29576 0.92694 0.0
C129 C 0.1818 0.3045 0.98096 0.0
C130 C 0.17579 0.22334 0.2591 0.0
C131 C 0.19904 0.32185 0.30212 0.0
C132 C 0.28114 0.21136 0.42576 0.0
C133 C 0.272 0.2233 0.48222 0.0
C134 C 0.23328 0.2417 0.48873 0.0
C135 C 0.22565 0.253 0.54267 0.0
C136 C 0.25658 0.24621 0.5913 0.0
C137 C 0.29532 0.22785 0.58431 0.0
C138 C 0.30288 0.21653 0.53043 0.0
C139 C 0.31063 0.29289 0.25599 0.0
O140 O 0.26941 0.23215 0.17589 0.0
O141 O 0.28641 0.19178 0.26483 0.0
O142 O 0.18172 0.2726 0.115 0.0
O143 O 0.22514 0.32283 0.12202 0.0
O144 O 0.16002 0.25626 0.22574 0.0
O145 O 0.21435 0.21928 0.25579 0.0
O146 O 0.21851 0.28969 0.33611 0.0
O147 O 0.19954 0.32682 0.24534 0.0
O148 O 0.3056 0.23583 0.39791 0.0
O149 O 0.24989 0.19929 0.39123 0.0
O150 O 0.32582 0.26133 0.2926 0.0
O151 O 0.27167 0.29752 0.257 0.0
H152 H 0.27442 0.27429 0.06325 0.0
H153 H 0.29219 0.25938 0.96865 0.0
H154 H 0.16775 0.30111 0.88985 0.0
H155 H 0.15073 0.31668 0.98413 0.0
H156 H 0.2089 0.24729 0.45219 0.0
H157 H 0.19529 0.26662 0.54636 0.0
H158 H 0.32016 0.22277 0.62029 0.0
H159 H 0.33306 0.20262 0.52634 0.0
Ho160 Ho 0.7491 0.23842 0.33286 0.0
Ho161 Ho 0.77665 0.28197 0.22034 0.0
C162 C 0.79997 0.32543 0.33322 0.0
C163 C 0.74304 0.20464 0.43736 0.0
C164 C 0.74926 0.21678 0.49651 0.0
C165 C 0.78089 0.24367 0.5137 0.0
C166 C 0.78519 0.25564 0.56971 0.0
C167 C 0.75784 0.24107 0.60945 0.0
C168 C 0.72632 0.21404 0.59187 0.0
C169 C 0.72215 0.20201 0.53601 0.0
C170 C 0.69046 0.28767 0.26302 0.0
C171 C 0.72624 0.19472 0.22031 0.0
C172 C 0.78295 0.3152 0.11563 0.0
C173 C 0.77651 0.30289 0.05658 0.0
C174 C 0.74477 0.27602 0.03969 0.0
C175 C 0.74023 0.26397 0.9837 0.0
C176 C 0.76745 0.27846 0.94371 0.0
C177 C 0.79909 0.30543 0.96104 0.0
C178 C 0.8035 0.31752 1.01686 0.0
C179 C 0.83436 0.23103 0.2894 0.0
O180 O 0.7902 0.28998 0.36253 0.0
O181 O 0.79109 0.33295 0.27618 0.0
O182 O 0.7118 0.22372 0.40271 0.0
O183 O 0.77639 0.20057 0.41159 0.0
O184 O 0.68266 0.25306 0.29325 0.0
O185 O 0.72849 0.29573 0.27395 0.0
O186 O 0.73543 0.23035 0.19083 0.0
O187 O 0.7356 0.18722 0.27727 0.0
O188 O 0.81401 0.2959 0.15037 0.0
O189 O 0.7497 0.31976 0.14138 0.0
O190 O 0.84305 0.2659 0.26053 0.0
O191 O 0.79621 0.22414 0.27808 0.0
H192 H 0.80214 0.25553 0.48386 0.0
H193 H 0.8101 0.27611 0.58196 0.0
H194 H 0.70428 0.20277 0.62089 0.0
H195 H 0.69736 0.18147 0.52339 0.0
H196 H 0.72361 0.26425 0.06972 0.0
H197 H 0.71524 0.24354 0.97165 0.0
H198 H 0.82104 0.31662 0.93184 0.0
H199 H 0.82837 0.33804 0.02926 0.0
Ho200 Ho 0.73122 0.7688 0.71648 0.0
Ho201 Ho 0.78129 0.74879 0.83688 0.0
C202 C 0.80841 0.69918 0.73807 0.0
C203 C 0.7057 0.78842 0.60714 0.0
C204 C 0.71945 0.78148 0.55128 0.0
C205 C 0.71248 0.81335 0.50466 0.0
C206 C 0.72437 0.80731 0.45074 0.0
C207 C 0.74342 0.76917 0.44241 0.0
C208 C 0.75091 0.73745 0.48963 0.0
C209 C 0.73905 0.74357 0.54362 0.0
C210 C 0.6956 0.7149 0.79112 0.0
C211 C 0.70398 0.81798 0.81609 0.0
C212 C 0.80792 0.7299 0.94603 0.0
C213 C 0.79499 0.73747 1.00214 0.0
C214 C 0.80151 0.70562 0.04883 0.0
C215 C 0.79012 0.71212 0.10286 0.0
C216 C 0.77197 0.75069 0.11119 0.0
C217 C 0.76505 0.78246 0.06398 0.0
C218 C 0.77651 0.77591 1.00993 0.0
C219 C 0.81666 0.80208 0.76109 0.0
O220 O 0.78498 0.72695 0.70074 0.0
O221 O 0.8082 0.69776 0.79467 0.0
O222 O 0.69336 0.75572 0.63829 0.0
O223 O 0.72883 0.81244 0.63828 0.0
O224 O 0.67486 0.74243 0.7527 0.0
O225 O 0.73401 0.71564 0.78589 0.0
O226 O 0.72779 0.79038 0.85308 0.0
O227 O 0.7035 0.81927 0.75934 0.0
O228 O 0.8202 0.76221 0.91404 0.0
O229 O 0.78417 0.70584 0.9158 0.0
O230 O 0.83755 0.77441 0.79911 0.0
O231 O 0.77848 0.80167 0.76737 0.0
H232 H 0.69765 0.84293 0.50991 0.0
H233 H 0.71883 0.83265 0.41565 0.0
H234 H 0.76519 0.70758 0.48462 0.0
H235 H 0.74475 0.71854 0.57911 0.0
H236 H 0.81552 0.67567 0.04353 0.0
H237 H 0.79524 0.6868 0.13802 0.0
H238 H 0.7515 0.81264 0.06907 0.0
H239 H 0.7713 0.80097 0.97445 0.0
Ho240 Ho 0.48296 0.47941 0.95002 0.0
Ho241 Ho 0.52001 0.51091 0.06443 0.0
C242 C 0.55185 0.55165 0.94909 0.0
C243 C 0.45032 0.47008 0.84568 0.0
C244 C 0.46143 0.47905 0.78666 0.0
C245 C 0.43156 0.47453 0.73924 0.0
C246 C 0.44184 0.48166 0.68274 0.0
C247 C 0.4823 0.49338 0.67271 0.0
C248 C 0.51202 0.49849 0.72058 0.0
C249 C 0.50165 0.4914 0.77713 0.0
C250 C 0.5485 0.4342 1.01238 0.0
C251 C 0.44374 0.44478 0.06248 0.0
C252 C 0.55536 0.5166 0.16859 0.0
C253 C 0.5439 0.50896 0.22756 0.0
C254 C 0.57368 0.51367 0.27501 0.0
C255 C 0.56309 0.50737 0.33143 0.0
C256 C 0.52245 0.49622 0.34131 0.0
C257 C 0.49276 0.49114 0.29341 0.0
C258 C 0.50341 0.49749 0.23697 0.0
C259 C 0.45616 0.55796 1.00305 0.0
O260 O 0.51959 0.53498 0.92063 0.0
O261 O 0.56345 0.54097 1.00528 0.0
O262 O 0.47342 0.44122 0.87986 0.0
O263 O 0.44224 0.50257 0.87166 0.0
O264 O 0.51684 0.41766 0.98498 0.0
O265 O 0.54431 0.47331 1.00368 0.0
O266 O 0.47611 0.46011 0.09319 0.0
O267 O 0.4364 0.45336 1.00549 0.0
O268 O 0.53524 0.54782 0.13504 0.0
O269 O 0.55922 0.48348 0.14193 0.0
O270 O 0.48706 0.57323 0.03393 0.0
O271 O 0.45933 0.51868 1.00986 0.0
H272 H 0.40029 0.46524 0.74593 0.0
H273 H 0.41802 0.47817 0.64688 0.0
H274 H 0.54354 0.50713 0.71443 0.0
H275 H 0.52509 0.49507 0.8134 0.0
H276 H 0.60513 0.52235 0.26841 0.0
H277 H 0.58686 0.51088 0.36735 0.0
H278 H 0.4611 0.48297 0.29945 0.0
H279 H 0.47999 0.4938 0.20069 0.0
Ho280 Ho 0.02452 0.48697 0.59072 0.0
Ho281 Ho 0.99685 0.53147 0.47021 0.0
C282 C 0.95017 0.55989 0.57056 0.0
C283 C 0.05134 0.46721 0.69983 0.0
C284 C 0.04081 0.4774 0.756 0.0
C285 C 0.07159 0.47212 0.80426 0.0
C286 C 0.06243 0.48145 0.85825 0.0
C287 C 0.02221 0.49625 0.86496 0.0
C288 C 0.99146 0.50182 0.81615 0.0
C289 C 1.0007 0.49246 0.76209 0.0
C290 C 0.96889 0.4449 0.52611 0.0
C291 C 0.06867 0.45731 0.48821 0.0
C292 C 0.97283 0.55402 0.36089 0.0
C293 C 0.98126 0.5414 0.30489 0.0
C294 C 0.94904 0.545 0.25838 0.0
C295 C 0.95645 0.53412 0.20435 0.0
C296 C 0.99628 0.51936 0.19589 0.0
C297 C 0.02842 0.51527 0.24295 0.0
C298 C 0.02097 0.52627 0.29696 0.0
C299 C 0.05485 0.57038 0.53685 0.0
O300 O 0.97954 0.53804 0.6072 0.0
O301 O 0.94722 0.55852 0.5141 0.0
O302 O 0.02432 0.44562 0.67039 0.0
O303 O 0.06612 0.49757 0.66717 0.0
O304 O 0.99928 0.42762 0.56323 0.0
O305 O 0.96765 0.4842 0.52709 0.0
O306 O 0.03814 0.47828 0.45287 0.0
O307 O 0.07366 0.45993 0.54464 0.0
O308 O 1.00334 0.57108 0.39094 0.0
O309 O 0.95305 0.52742 0.39315 0.0
O310 O 0.02421 0.58984 0.50233 0.0
O311 O 0.05388 0.53181 0.53267 0.0
H312 H 0.1028 0.46079 0.80018 0.0
H313 H 0.08704 0.47752 0.8946 0.0
H314 H 0.96009 0.51283 0.81987 0.0
H315 H 0.97652 0.49673 0.7252 0.0
H316 H 0.91814 0.55644 0.2638 0.0
H317 H 0.93089 0.53703 0.16929 0.0
H318 H 0.05954 0.50441 0.23775 0.0
H319 H 0.04634 0.52342 0.33229 0.0
H320 H 0.04315 0.11445 0.37848 0.0
H321 H 0.15459 0.0475 0.46557 0.0
H322 H 0.19774 0.09405 0.40893 0.0
H323 H 0.20317 0.15348 0.33333 0.0
H324 H 0.09171 0.22519 0.25619 0.0
H325 H 0.04895 0.17651 0.30892 0.0
C326 C 0.07691 0.11005 0.38485 0.0
C327 C 0.0958 0.07751 0.42549 0.0
C328 C 0.10137 0.13766 0.35368 0.0
C329 C 0.1395 0.07245 0.43436 0.0
C330 C 0.16409 0.09894 0.40192 0.0
C331 C 0.16967 0.15891 0.32907 0.0
C332 C 0.15074 0.19324 0.29156 0.0
C333 C 0.14533 0.13171 0.36145 0.0
C334 C 0.10708 0.19912 0.28503 0.0
C335 C 0.08258 0.17133 0.3152 0.0
H336 H 0.12829 0.95086 0.57312 0.0
H337 H 0.03709 0.85562 0.55611 0.0
H338 H 0.07781 0.80967 0.63417 0.0
H339 H 0.13886 0.79657 0.7077 0.0
H340 H 0.23311 0.88887 0.72161 0.0
H341 H 0.19163 0.93626 0.64477 0.0
C342 C 0.11757 0.91998 0.58656 0.0
C343 C 0.0798 0.90662 0.55922 0.0
C344 C 0.14145 0.89344 0.63115 0.0
C345 C 0.0662 0.8665 0.57646 0.0
C346 C 0.08932 0.84028 0.62127 0.0
C347 C 0.15011 0.82722 0.69418 0.0
C348 C 0.18853 0.83965 0.72048 0.0
C349 C 0.12682 0.8535 0.64908 0.0
C350 C 0.20334 0.87897 0.70197 0.0
C351 C 0.17974 0.90591 0.65805 0.0
H352 H 0.33069 0.8952 0.84181 0.0
H353 H 0.40159 0.7784 0.88232 0.0
H354 H 0.45148 0.80944 0.95087 0.0
H355 H 0.47362 0.86907 1.00235 0.0
H356 H 0.39934 0.98412 0.96944 0.0
H357 H 0.35213 0.95478 0.89559 0.0
C358 C 0.35753 0.87698 0.865 0.0
C359 C 0.36309 0.83492 0.85638 0.0
C360 C 0.38519 0.89461 0.90633 0.0
C361 C 0.39717 0.81106 0.88781 0.0
C362 C 0.42551 0.82869 0.92728 0.0
C363 C 0.44704 0.88764 0.97907 0.0
C364 C 0.44032 0.92887 0.99068 0.0
C365 C 0.41957 0.87027 0.93751 0.0
C366 C 0.40552 0.95245 0.96061 0.0
C367 C 0.37849 0.9357 0.91838 0.0
H368 H 0.38225 0.10151 0.04048 0.0
H369 H 0.46507 0.06867 0.19996 0.0
H370 H 0.41909 0.1056 0.25274 0.0
H371 H 0.35634 0.14959 0.25421 0.0
H372 H 0.27525 0.18622 0.09458 0.0
H373 H 0.31909 0.14567 0.04201 0.0
C374 C 0.39021 0.10244 0.08672 0.0
C375 C 0.42704 0.08189 0.11589 0.0
C376 C 0.36375 0.12449 0.11724 0.0
C377 C 0.43681 0.08367 0.17601 0.0
C378 C 0.4105 0.10495 0.20656 0.0
C379 C 0.34798 0.14814 0.20814 0.0
C380 C 0.31254 0.17069 0.17854 0.0
C381 C 0.37393 0.12557 0.17772 0.0
C382 C 0.30247 0.16912 0.1185 0.0
C383 C 0.32758 0.146 0.08827 0.0
H384 H 0.87578 0.94131 0.57705 0.0
H385 H 0.99511 0.88254 0.64924 0.0
H386 H 0.96099 0.83125 0.71077 0.0
H387 H 0.89797 0.80467 0.74721 0.0
H388 H 0.77857 0.86615 0.68336 0.0
H389 H 0.81161 0.91454 0.61536 0.0
C390 C 0.89403 0.91695 0.60589 0.0
C391 C 0.93779 0.9155 0.60862 0.0
C392 C 0.87421 0.88817 0.64278 0.0
C393 C 0.96136 0.88426 0.64664 0.0
C394 C 0.94191 0.85494 0.68185 0.0
C395 C 0.87913 0.82859 0.7183 0.0
C396 C 0.83587 0.8315 0.71966 0.0
C397 C 0.89848 0.85691 0.68084 0.0
C398 C 0.81188 0.86281 0.68229 0.0
C399 C 0.83081 0.89064 0.64368 0.0
H400 H 0.97947 0.14399 0.47205 0.0
H401 H 0.89457 0.04248 0.47087 0.0
H402 H 0.84399 0.08558 0.40061 0.0
H403 H 0.8245 0.15195 0.33843 0.0
H404 H 0.91084 0.25228 0.33688 0.0
H405 H 0.96042 0.20987 0.40913 0.0
C406 C 0.94975 0.13148 0.45665 0.0
C407 C 0.94049 0.09034 0.47668 0.0
C408 C 0.92127 0.15615 0.4156 0.0
C409 C 0.9022 0.07418 0.45599 0.0
C410 C 0.87336 0.09876 0.41584 0.0
C411 C 0.85416 0.16445 0.35409 0.0
C412 C 0.86411 0.20508 0.3326 0.0
C413 C 0.88264 0.13973 0.39517 0.0
C414 C 0.90266 0.22097 0.35276 0.0
C415 C 0.93093 0.1968 0.39414 0.0
H416 H 0.67473 0.21134 0.11998 0.0
H417 H 0.72033 0.11048 0.25206 0.0
H418 H 0.67342 0.06246 0.20425 0.0
H419 H 0.6162 0.05048 0.12715 0.0
H420 H 0.56711 0.15451 1.00231 0.0
H421 H 0.61911 0.19958 0.04408 0.0
C422 C 0.67499 0.17869 0.13784 0.0
C423 C 0.70119 0.16442 0.18918 0.0
C424 C 0.64708 0.1518 0.11138 0.0
C425 C 0.70045 0.1222 0.21244 0.0
C426 C 0.6736 0.09476 0.18517 0.0
C427 C 0.61697 0.08294 0.10931 0.0
C428 C 0.58752 0.09913 0.06214 0.0
C429 C 0.64621 0.10938 0.13505 0.0
C430 C 0.58916 0.14127 0.03897 0.0
C431 C 0.61892 0.16717 0.06279 0.0
H432 H 0.70308 0.83046 0.92889 0.0
H433 H 0.64357 0.87307 0.75575 0.0
H434 H 0.59819 0.92142 0.79477 0.0
H435 H 0.57457 0.95065 0.87842 0.0
H436 H 0.63585 0.90865 0.051 0.0
H437 H 0.68135 0.86113 1.01159 0.0
C438 C 0.68033 0.85033 0.89951 0.0
C439 C 0.67683 0.84795 0.83942 0.0
C440 C 0.65457 0.87826 0.92215 0.0
C441 C 0.64707 0.87416 0.80219 0.0
C442 C 0.62103 0.90184 0.82448 0.0
C443 C 0.59804 0.93137 0.90743 0.0
C444 C 0.60164 0.93344 0.96767 0.0
C445 C 0.62442 0.90406 0.88445 0.0
C446 C 0.63227 0.90797 1.00447 0.0
C447 C 0.65835 0.88062 0.982 0.0
H448 H 0.6353 0.56672 0.96026 0.0
H449 H 0.51637 0.61069 0.86515 0.0
H450 H 0.55009 0.66642 0.81044 0.0
H451 H 0.61324 0.70196 0.78806 0.0
H452 H 0.73348 0.65392 0.87378 0.0
H453 H 0.6997 0.60077 0.9339 0.0
C454 C 0.61696 0.58867 0.92766 0.0
C455 C 0.57348 0.58485 0.91689 0.0
C456 C 0.6368 0.61992 0.89478 0.0
C457 C 0.54993 0.61301 0.87406 0.0
C458 C 0.56916 0.64492 0.8428 0.0
C459 C 0.63208 0.67994 0.82004 0.0
C460 C 0.67574 0.68243 0.82742 0.0
C461 C 0.61255 0.64854 0.85256 0.0
C462 C 0.69976 0.65328 0.86832 0.0
C463 C 0.68045 0.62268 0.90237 0.0
H464 H 0.696 0.36549 0.20569 0.0
H465 H 0.61851 0.25807 0.21327 0.0
H466 H 0.56878 0.29288 0.13416 0.0
H467 H 0.54622 0.35463 0.06422 0.0
H468 H 0.62221 0.4631 0.05837 0.0
H469 H 0.67368 0.42721 0.13478 0.0
C470 C 0.66825 0.3498 0.18979 0.0
C471 C 0.66081 0.30942 0.21526 0.0
C472 C 0.63955 0.37017 0.14449 0.0
C473 C 0.62472 0.28935 0.19459 0.0
C474 C 0.59633 0.30915 0.14921 0.0
C475 C 0.57425 0.37018 0.07939 0.0
C476 C 0.58053 0.41133 0.05584 0.0
C477 C 0.60329 0.34963 0.124 0.0
C478 C 0.61677 0.43136 0.07605 0.0
C479 C 0.64614 0.41091 0.11977 0.0
H480 H 0.90992 0.46842 0.43149 0.0
H481 H 0.95274 0.36481 0.56075 0.0
H482 H 0.90171 0.32024 0.51563 0.0
H483 H 0.84853 0.30881 0.43634 0.0
H484 H 0.80913 0.40922 0.30055 0.0
H485 H 0.85541 0.4567 0.35059 0.0
C486 C 0.90802 0.43617 0.44958 0.0
C487 C 0.93541 0.41999 0.49912 0.0
C488 C 0.87937 0.40999 0.42201 0.0
C489 C 0.93231 0.37807 0.5224 0.0
C490 C 0.9031 0.35246 0.49664 0.0
C491 C 0.84947 0.34124 0.41802 0.0
C492 C 0.8251 0.3555 0.36504 0.0
C493 C 0.87696 0.36784 0.44598 0.0
C494 C 0.8275 0.39745 0.34139 0.0
C495 C 0.854 0.4246 0.36998 0.0
H496 H 0.81538 0.68966 0.6253 0.0
H497 H 0.8654 0.64208 0.80115 0.0
H498 H 0.91325 0.59474 0.76511 0.0
H499 H 0.9418 0.56752 0.68371 0.0
H500 H 0.8908 0.61447 0.50796 0.0
H501 H 0.8425 0.66116 0.54411 0.0
C502 C 0.83657 0.66886 0.65585 0.0
C503 C 0.83664 0.66959 0.71589 0.0
C504 C 0.86398 0.64153 0.63487 0.0
C505 C 0.86449 0.6423 0.75469 0.0
C506 C 0.89198 0.61517 0.73413 0.0
C507 C 0.92006 0.58782 0.65325 0.0
C508 C 0.92011 0.58734 0.59315 0.0
C509 C 0.89212 0.61462 0.6743 0.0
C510 C 0.89157 0.61398 0.55445 0.0
C511 C 0.86388 0.64082 0.57506 0.0
H512 H 0.30017 0.33234 0.14648 0.0
H513 H 0.38244 0.3216 0.30727 0.0
H514 H 0.43054 0.36945 0.26284 0.0
H515 H 0.45047 0.41194 0.1766 0.0
H516 H 0.36861 0.41957 1.01459 0.0
H517 H 0.31904 0.37569 0.06103 0.0
C518 C 0.32798 0.3414 0.17196 0.0
C519 C 0.33736 0.32435 0.23006 0.0
C520 C 0.35586 0.36801 0.14569 0.0
C521 C 0.37454 0.33475 0.26234 0.0
C522 C 0.40205 0.36198 0.23697 0.0
C523 C 0.42169 0.40421 0.15156 0.0
C524 C 0.41347 0.41902 0.09216 0.0
C525 C 0.39328 0.37843 0.17839 0.0
C526 C 0.37601 0.40852 0.06034 0.0
C527 C 0.34746 0.38344 0.08684 0.0
H528 H 0.47177 0.63199 0.94648 0.0
H529 H 0.37828 0.53885 0.95606 0.0
H530 H 0.33185 0.58123 0.87882 0.0
H531 H 0.31819 0.64565 0.80892 0.0
H532 H 0.41551 0.73472 0.79537 0.0
H533 H 0.46039 0.69291 0.8733 0.0
C534 C 0.44114 0.6211 0.93174 0.0
C535 C 0.42799 0.58289 0.95704 0.0
C536 C 0.41553 0.64479 0.8864 0.0
C537 C 0.38871 0.56849 0.93709 0.0
C538 C 0.36231 0.59262 0.89302 0.0
C539 C 0.3493 0.6556 0.82306 0.0
C540 C 0.36346 0.69325 0.79698 0.0
C541 C 0.3754 0.63091 0.86735 0.0
C542 C 0.40394 0.70581 0.81492 0.0
C543 C 0.42958 0.68205 0.85963 0.0
H544 H 0.20713 0.63092 0.70102 0.0
H545 H 0.15511 0.7512 0.62081 0.0
H546 H 0.09915 0.7174 0.56537 0.0
H547 H 0.06489 0.6536 0.53914 0.0
H548 H 0.12132 0.53309 0.60988 0.0
H549 H 0.17526 0.56668 0.66955 0.0
C550 C 0.18343 0.64958 0.67147 0.0
C551 C 0.18502 0.69343 0.6653 0.0
C552 C 0.152 0.62984 0.63814 0.0
C553 C 0.15455 0.71735 0.62623 0.0
C554 C 0.12249 0.69806 0.59455 0.0
C555 C 0.08897 0.63471 0.5677 0.0
C556 C 0.08837 0.59087 0.57138 0.0
C557 C 0.1209 0.65433 0.60006 0.0
C558 C 0.12029 0.56685 0.60763 0.0
C559 C 0.15139 0.58607 0.64142 0.0
H560 H 0.19735 0.32784 0.4173 0.0
H561 H 0.14454 0.38381 0.24617 0.0
H562 H 0.10021 0.43061 0.28892 0.0
H563 H 0.07475 0.45404 0.37419 0.0
H564 H 0.12774 0.39951 0.54573 0.0
H565 H 0.1736 0.35352 0.50331 0.0
C566 C 0.17626 0.35034 0.38928 0.0
C567 C 0.17424 0.35207 0.3285 0.0
C568 C 0.15076 0.37728 0.41417 0.0
C569 C 0.1469 0.38173 0.29302 0.0
C570 C 0.12138 0.40848 0.31742 0.0
C571 C 0.0964 0.4323 0.40249 0.0
C572 C 0.09764 0.43025 0.46312 0.0
C573 C 0.1228 0.40626 0.37786 0.0
C574 C 0.1261 0.40184 0.49893 0.0
C575 C 0.15232 0.37548 0.47469 0.0
H576 H 0.07625 0.9836 0.95422 0.0
H577 H 0.95535 0.03528 0.87528 0.0
H578 H 0.93248 0.03476 0.97093 0.0
H579 H 0.94702 0.02085 0.07735 0.0
H580 H 0.06795 0.96916 0.15616 0.0
H581 H 0.09077 0.96967 0.06053 0.0
C582 C 0.045 0.9951 0.95785 0.0
C583 C 0.01763 0.00937 0.90726 0.0
C584 C 0.03207 0.99507 1.01318 0.0
C585 C 0.97699 0.0235 0.91315 0.0
C586 C 0.96392 0.02351 0.96798 0.0
C587 C 0.97827 0.00937 0.07369 0.0
C588 C 1.00568 0.99513 0.12426 0.0
C589 C 0.99118 0.00939 1.01833 0.0
C590 C 0.0463 0.98096 0.11833 0.0
C591 C 0.05934 0.98094 0.0635 0.0
H592 H 0.28703 0.83308 0.3221 0.0
H593 H 0.26164 0.70861 0.39639 0.0
H594 H 0.25719 0.68457 0.30081 0.0
H595 H 0.26167 0.6983 0.19613 0.0
H596 H 0.28704 0.82276 0.12177 0.0
H597 H 0.29165 0.84678 0.2174 0.0
C598 C 0.28089 0.80059 0.31762 0.0
C599 C 0.27456 0.77285 0.36683 0.0
C600 C 0.27875 0.78674 0.26237 0.0
C601 C 0.26598 0.73098 0.35951 0.0
C602 C 0.26375 0.71705 0.30477 0.0
C603 C 0.26785 0.73079 0.20061 0.0
C604 C 0.27406 0.75854 0.15136 0.0
C605 C 0.27007 0.74462 0.25586 0.0
C606 C 0.28274 0.8004 0.15867 0.0
C607 C 0.28507 0.81431 0.21344 0.0
H608 H 0.45107 0.9975 0.61126 0.0
H609 H 0.57258 0.0463 0.65746 0.0
H610 H 0.59114 0.03764 0.56146 0.0
H611 H 0.57254 0.01764 0.46342 0.0
H612 H 0.45108 0.96861 0.41741 0.0
H613 H 0.43256 0.97726 0.51338 0.0
C614 C 0.48151 1.00661 0.60028 0.0
C615 C 0.51032 0.02251 0.64197 0.0
C616 C 0.49193 1.0019 0.54462 0.0
C617 C 0.54989 0.03341 0.62688 0.0
C618 C 0.56047 0.02876 0.57169 0.0
C619 C 0.54213 0.00846 0.47443 0.0
C620 C 0.51329 0.99258 0.43272 0.0
C621 C 0.53174 0.01309 0.53014 0.0
C622 C 0.47377 0.98156 0.44792 0.0
C623 C 0.46322 0.98618 0.50312 0.0
H624 H 0.2085 0.32227 0.81359 0.0
H625 H 0.276 0.21049 0.89944 0.0
H626 H 0.29008 0.19096 0.80585 0.0
H627 H 0.28143 0.20424 0.6993 0.0
H628 H 0.2139 0.31599 0.61335 0.0
H629 H 0.20058 0.336 0.70703 0.0
C630 C 0.22606 0.29347 0.81193 0.0
C631 C 0.24113 0.26799 0.8639 0.0
C632 C 0.2337 0.28209 0.75774 0.0
C633 C 0.26446 0.23113 0.86054 0.0
C634 C 0.27227 0.21971 0.80686 0.0
C635 C 0.26418 0.23323 0.70093 0.0
C636 C 0.24866 0.25842 0.64891 0.0
C637 C 0.25691 0.24484 0.75514 0.0
C638 C 0.22573 0.29553 0.6523 0.0
C639 C 0.21834 0.30722 0.70602 0.0
H640 H 0.77585 0.32588 0.84157 0.0
H641 H 0.75019 0.20067 0.91261 0.0
H642 H 0.7449 0.17822 0.81592 0.0
H643 H 0.74911 0.19367 0.71154 0.0
H644 H 0.7748 0.31889 0.64056 0.0
H645 H 0.77996 0.34135 0.73721 0.0
C646 C 0.76946 0.29358 0.83606 0.0
C647 C 0.76343 0.26506 0.88448 0.0
C648 C 0.7669 0.28073 0.7804 0.0
C649 C 0.75441 0.22349 0.87616 0.0
C650 C 0.7517 0.21051 0.82089 0.0
C651 C 0.75547 0.22598 0.71706 0.0
C652 C 0.76159 0.25448 0.66866 0.0
C653 C 0.75797 0.23884 0.77272 0.0
C654 C 0.77053 0.29607 0.67699 0.0
C655 C 0.77317 0.30906 0.73224 0.0
H656 H 0.69851 0.79265 0.3367 0.0
H657 H 0.81428 0.73033 0.41798 0.0
H658 H 0.833 0.71884 0.32294 0.0
H659 H 0.81702 0.72742 0.21677 0.0
H660 H 0.70143 0.79004 0.13549 0.0
H661 H 0.68271 0.80156 0.23056 0.0
C662 C 0.72806 0.77696 0.33366 0.0
C663 C 0.75494 0.76243 0.3845 0.0
C664 C 0.7388 0.77075 0.27887 0.0
C665 C 0.79275 0.74143 0.37968 0.0
C666 C 0.80361 0.73506 0.32531 0.0
C667 C 0.78754 0.74324 0.21986 0.0
C668 C 0.76065 0.75776 0.16904 0.0
C669 C 0.77686 0.74956 0.27464 0.0
C670 C 0.72292 0.77892 0.17383 0.0
C671 C 0.71207 0.78531 0.22819 0.0
H672 H 0.46068 0.44611 0.5852 0.0
H673 H 0.52926 0.5549 0.62512 0.0
H674 H 0.54798 0.56506 0.52658 0.0
H675 H 0.54399 0.5437 0.42868 0.0
H676 H 0.47527 0.43499 0.38882 0.0
H677 H 0.45651 0.42489 0.48732 0.0
C678 C 0.47936 0.47232 0.57221 0.0
C679 C 0.49349 0.49971 0.61259 0.0
C680 C 0.48976 0.47816 0.51538 0.0
C681 C 0.51835 0.53304 0.59522 0.0
C682 C 0.52887 0.53903 0.53875 0.0
C683 C 0.52524 0.51756 0.44168 0.0
C684 C 0.5111 0.49014 0.40134 0.0
C685 C 0.51477 0.51177 0.4985 0.0
C686 C 0.48618 0.45686 0.4187 0.0
C687 C 0.47564 0.45091 0.47515 0.0
H688 H 0.04701 0.45164 0.97039 0.0
H689 H 0.97567 0.5625 0.88932 0.0
H690 H 0.96071 0.57883 0.98418 0.0
H691 H 0.9695 0.56272 0.09031 0.0
H692 H 0.04146 0.45229 0.17143 0.0
H693 H 0.05552 0.43536 0.07642 0.0
C694 C 0.0285 0.47959 0.97346 0.0
C695 C 0.01258 0.50582 0.9227 0.0
C696 C 0.02038 0.48905 0.02818 0.0
C697 C 0.98794 0.54147 0.92751 0.0
C698 C 0.97959 0.551 0.98181 0.0
C699 C 0.98789 0.5347 0.08719 0.0
C700 C 1.00437 0.50882 0.13797 0.0
C701 C 0.99575 0.52508 0.03242 0.0
C702 C 0.02877 0.47302 0.13314 0.0
C703 C 0.03664 0.46318 0.07879 0.0
loop_
_geom_bond_atom_site_label_1
_geom_bond_atom_site_label_2
_geom_bond_distance
_geom_bond_site_symmetry_2
_ccdc_geom_bond_type
Ho0 C3 2.811 1_655 S
Ho0 O20 2.322 1_665 S
Ho0 O22 2.378 1_655 S
Ho0 O23 2.524 1_565 S
Ho0 O24 2.381 1_655 S
Ho0 O25 2.669 1_655 S
Ho0 O27 2.346 . S
Ho0 O31 2.305 1_565 S
Ho1 C12 2.811 1_455 S
Ho1 O21 2.346 . S
Ho1 O25 2.305 1_545 S
Ho1 O26 2.322 1_445 S
Ho1 O28 2.378 1_455 S
Ho1 O29 2.524 1_545 S
Ho1 O30 2.381 1_455 S
Ho1 O31 2.669 1_455 S
C2 O20 1.259 . S
C2 O21 1.268 . S
C3 Ho0 2.811 1_455 S
C3 C4 1.488 . S
C3 O22 1.215 . S
C3 O23 1.289 1_465 S
C4 C3 1.488 . S
C4 C5 1.348 1_565 S
C4 C9 1.413 . S
C5 C4 1.348 1_545 S
C5 C6 1.442 . S
C5 H32 0.930 1_455 S
C6 C5 1.442 . S
C6 C7 1.381 1_545 S
C6 H33 0.931 . S
C7 C6 1.381 1_565 S
C7 C8 1.321 . S
C8 C7 1.321 . S
C8 C9 1.403 . S
C8 H34 0.934 . S
C9 C4 1.413 . S
C9 C8 1.403 . S
C9 H35 0.930 . S
C10 O24 1.275 . S
C10 O25 1.256 . S
C11 O26 1.259 . S
C11 O27 1.268 . S
C12 Ho1 2.811 1_655 S
C12 C13 1.488 . S
C12 O28 1.215 . S
C12 O29 1.289 1_645 S
C13 C12 1.488 . S
C13 C14 1.348 1_545 S
C13 C18 1.413 . S
C14 C13 1.348 1_565 S
C14 C15 1.442 . S
C14 H36 0.930 1_655 S
C15 C14 1.442 . S
C15 C16 1.381 1_565 S
C15 H37 0.931 . S
C16 C15 1.381 1_545 S
C16 C17 1.321 . S
C17 C16 1.321 . S
C17 C18 1.403 . S
C17 H38 0.934 . S
C18 C13 1.413 . S
C18 C17 1.403 . S
C18 H39 0.930 . S
C19 O30 1.275 . S
C19 O31 1.256 . S
O20 Ho0 2.322 1_445 S
O20 C2 1.259 . S
O21 Ho1 2.346 . S
O21 C2 1.268 . S
O22 Ho0 2.378 1_455 S
O22 C3 1.215 . S
O23 Ho0 2.524 1_545 S
O23 C3 1.289 1_645 S
O24 Ho0 2.381 1_455 S
O24 C10 1.275 . S
O25 Ho0 2.669 1_455 S
O25 Ho1 2.305 1_565 S
O25 C10 1.256 . S
O26 Ho1 2.322 1_665 S
O26 C11 1.259 . S
O27 Ho0 2.346 . S
O27 C11 1.268 . S
O28 Ho1 2.378 1_655 S
O28 C12 1.215 . S
O29 Ho1 2.524 1_565 S
O29 C12 1.289 1_465 S
O30 Ho1 2.381 1_655 S
O30 C19 1.275 . S
O31 Ho0 2.305 1_545 S
O31 Ho1 2.669 1_655 S
O31 C19 1.256 . S
H32 C5 0.930 1_655 S
H33 C6 0.931 . S
H34 C8 0.934 . S
H35 C9 0.930 . S
H36 C14 0.930 1_455 S
H37 C15 0.931 . S
H38 C17 0.934 . S
H39 C18 0.930 . S
Ho40 C43 2.811 . S
Ho40 O60 2.322 . S
Ho40 O62 2.378 . S
Ho40 O63 2.524 . S
Ho40 O64 2.381 . S
Ho40 O65 2.669 . S
Ho40 O67 2.346 . S
Ho40 O71 2.305 . S
Ho41 C52 2.811 . S
Ho41 O61 2.346 . S
Ho41 O65 2.305 . S
Ho41 O66 2.322 . S
Ho41 O68 2.378 . S
Ho41 O69 2.524 . S
Ho41 O70 2.381 . S
Ho41 O71 2.669 . S
C42 O60 1.259 . S
C42 O61 1.268 . S
C43 Ho40 2.811 . S
C43 C44 1.488 . S
C43 O62 1.215 . S
C43 O63 1.289 . S
C44 C43 1.488 . S
C44 C45 1.348 1_556 S
C44 C49 1.413 . S
C45 C44 1.348 1_554 S
C45 C46 1.442 . S
C45 H72 0.930 . S
C46 C45 1.442 . S
C46 C47 1.381 . S
C46 H73 0.931 . S
C47 C46 1.381 . S
C47 C48 1.321 . S
C48 C47 1.321 . S
C48 C49 1.403 1_554 S
C48 H74 0.934 . S
C49 C44 1.413 . S
C49 C48 1.403 1_556 S
C49 H75 0.930 . S
C50 O64 1.275 . S
C50 O65 1.256 . S
C51 O66 1.259 . S
C51 O67 1.268 . S
C52 Ho41 2.811 . S
C52 C53 1.488 . S
C52 O68 1.215 . S
C52 O69 1.289 . S
C53 C52 1.488 . S
C53 C54 1.348 . S
C53 C58 1.413 . S
C54 C53 1.348 . S
C54 C55 1.442 . S
C54 H76 0.930 . S
C55 C54 1.442 . S
C55 C56 1.381 . S
C55 H77 0.931 . S
C56 C55 1.381 . S
C56 C57 1.321 . S
C57 C56 1.321 . S
C57 C58 1.403 . S
C57 H78 0.934 . S
C58 C53 1.413 . S
C58 C57 1.403 . S
C58 H79 0.930 . S
C59 O70 1.275 . S
C59 O71 1.256 . S
O60 Ho40 2.322 . S
O60 C42 1.259 . S
O61 Ho41 2.346 . S
O61 C42 1.268 . S
O62 Ho40 2.378 . S
O62 C43 1.215 . S
O63 Ho40 2.524 . S
O63 C43 1.289 . S
O64 Ho40 2.381 . S
O64 C50 1.275 . S
O65 Ho40 2.669 . S
O65 Ho41 2.305 . S
O65 C50 1.256 . S
O66 Ho41 2.322 . S
O66 C51 1.259 . S
O67 Ho40 2.346 . S
O67 C51 1.268 . S
O68 Ho41 2.378 . S
O68 C52 1.215 . S
O69 Ho41 2.524 . S
O69 C52 1.289 . S
O70 Ho41 2.381 . S
O70 C59 1.275 . S
O71 Ho40 2.305 . S
O71 Ho41 2.669 . S
O71 C59 1.256 . S
H72 C45 0.930 . S
H73 C46 0.931 . S
H74 C48 0.934 . S
H75 C49 0.930 . S
H76 C54 0.930 . S
H77 C55 0.931 . S
H78 C57 0.934 . S
H79 C58 0.930 . S
Ho80 C83 2.811 . S
Ho80 O100 2.322 1_565 S
Ho80 O102 2.378 . S
Ho80 O103 2.524 . S
Ho80 O104 2.381 . S
Ho80 O105 2.669 1_554 S
Ho80 O107 2.346 . S
Ho80 O111 2.305 1_565 S
Ho81 C92 2.811 . S
Ho81 O101 2.346 . S
Ho81 O105 2.305 1_545 S
Ho81 O106 2.322 1_545 S
Ho81 O108 2.378 . S
Ho81 O109 2.524 . S
Ho81 O110 2.381 . S
Ho81 O111 2.669 1_556 S
C82 O100 1.259 . S
C82 O101 1.268 1_554 S
C83 Ho80 2.811 . S
C83 C84 1.488 . S
C83 O102 1.215 . S
C83 O103 1.289 . S
C84 C83 1.488 . S
C84 C85 1.348 . S
C84 C89 1.413 . S
C85 C84 1.348 . S
C85 C86 1.442 . S
C85 H112 0.930 1_565 S
C86 C85 1.442 . S
C86 C87 1.381 . S
C86 H113 0.931 1_565 S
C87 C86 1.381 . S
C87 C88 1.321 . S
C88 C87 1.321 . S
C88 C89 1.403 . S
C88 H114 0.934 . S
C89 C84 1.413 . S
C89 C88 1.403 . S
C89 H115 0.930 . S
C90 O104 1.275 1_556 S
C90 O105 1.256 . S
C91 O106 1.259 . S
C91 O107 1.268 1_556 S
C92 Ho81 2.811 . S
C92 C93 1.488 . S
C92 O108 1.215 . S
C92 O109 1.289 . S
C93 C92 1.488 . S
C93 C94 1.348 . S
C93 C98 1.413 . S
C94 C93 1.348 . S
C94 C95 1.442 . S
C94 H116 0.930 1_545 S
C95 C94 1.442 . S
C95 C96 1.381 . S
C95 H117 0.931 1_545 S
C96 C95 1.381 . S
C96 C97 1.321 . S
C97 C96 1.321 . S
C97 C98 1.403 . S
C97 H118 0.934 . S
C98 C93 1.413 . S
C98 C97 1.403 . S
C98 H119 0.930 . S
C99 O110 1.275 1_554 S
C99 O111 1.256 . S
O100 Ho80 2.322 1_545 S
O100 C82 1.259 . S
O101 Ho81 2.346 . S
O101 C82 1.268 1_556 S
O102 Ho80 2.378 . S
O102 C83 1.215 . S
O103 Ho80 2.524 . S
O103 C83 1.289 . S
O104 Ho80 2.381 . S
O104 C90 1.275 1_554 S
O105 Ho80 2.669 1_556 S
O105 Ho81 2.305 1_565 S
O105 C90 1.256 . S
O106 Ho81 2.322 1_565 S
O106 C91 1.259 . S
O107 Ho80 2.346 . S
O107 C91 1.268 1_554 S
O108 Ho81 2.378 . S
O108 C92 1.215 . S
O109 Ho81 2.524 . S
O109 C92 1.289 . S
O110 Ho81 2.381 . S
O110 C99 1.275 1_556 S
O111 Ho80 2.305 1_545 S
O111 Ho81 2.669 1_554 S
O111 C99 1.256 . S
H112 C85 0.930 1_545 S
H113 C86 0.931 1_545 S
H114 C88 0.934 . S
H115 C89 0.930 . S
H116 C94 0.930 1_565 S
H117 C95 0.931 1_565 S
H118 C97 0.934 . S
H119 C98 0.930 . S
Ho120 C123 2.811 . S
Ho120 O140 2.322 . S
Ho120 O142 2.378 . S
Ho120 O143 2.524 . S
Ho120 O144 2.381 . S
Ho120 O145 2.669 . S
Ho120 O147 2.346 . S
Ho120 O151 2.305 . S
Ho121 C132 2.811 . S
Ho121 O141 2.346 . S
Ho121 O145 2.305 . S
Ho121 O146 2.322 . S
Ho121 O148 2.378 . S
Ho121 O149 2.524 . S
Ho121 O150 2.381 . S
Ho121 O151 2.669 . S
C122 O140 1.259 . S
C122 O141 1.268 . S
C123 Ho120 2.811 . S
C123 C124 1.488 . S
C123 O142 1.215 . S
C123 O143 1.289 . S
C124 C123 1.488 . S
C124 C125 1.348 1_554 S
C124 C129 1.413 1_554 S
C125 C124 1.348 1_556 S
C125 C126 1.442 . S
C125 H152 0.930 1_556 S
C126 C125 1.442 . S
C126 C127 1.381 . S
C126 H153 0.931 . S
C127 C126 1.381 . S
C127 C128 1.321 . S
C128 C127 1.321 . S
C128 C129 1.403 . S
C128 H154 0.934 . S
C129 C124 1.413 1_556 S
C129 C128 1.403 . S
C129 H155 0.930 1_556 S
C130 O144 1.275 . S
C130 O145 1.256 . S
C131 O146 1.259 . S
C131 O147 1.268 . S
C132 Ho121 2.811 . S
C132 C133 1.488 . S
C132 O148 1.215 . S
C132 O149 1.289 . S
C133 C132 1.488 . S
C133 C134 1.348 . S
C133 C138 1.413 . S
C134 C133 1.348 . S
C134 C135 1.442 . S
C134 H156 0.930 . S
C135 C134 1.442 . S
C135 C136 1.381 . S
C135 H157 0.931 . S
C136 C135 1.381 . S
C136 C137 1.321 . S
C137 C136 1.321 . S
C137 C138 1.403 . S
C137 H158 0.934 . S
C138 C133 1.413 . S
C138 C137 1.403 . S
C138 H159 0.930 . S
C139 O150 1.275 . S
C139 O151 1.256 . S
O140 Ho120 2.322 . S
O140 C122 1.259 . S
O141 Ho121 2.346 . S
O141 C122 1.268 . S
O142 Ho120 2.378 . S
O142 C123 1.215 . S
O143 Ho120 2.524 . S
O143 C123 1.289 . S
O144 Ho120 2.381 . S
O144 C130 1.275 . S
O145 Ho120 2.669 . S
O145 Ho121 2.305 . S
O145 C130 1.256 . S
O146 Ho121 2.322 . S
O146 C131 1.259 . S
O147 Ho120 2.346 . S
O147 C131 1.268 . S
O148 Ho121 2.378 . S
O148 C132 1.215 . S
O149 Ho121 2.524 . S
O149 C132 1.289 . S
O150 Ho121 2.381 . S
O150 C139 1.275 . S
O151 Ho120 2.305 . S
O151 Ho121 2.669 . S
O151 C139 1.256 . S
H152 C125 0.930 1_554 S
H153 C126 0.931 . S
H154 C128 0.934 . S
H155 C129 0.930 1_554 S
H156 C134 0.930 . S
H157 C135 0.931 . S
H158 C137 0.934 . S
H159 C138 0.930 . S
Ho160 C163 2.811 . S
Ho160 O180 2.322 . S
Ho160 O182 2.378 . S
Ho160 O183 2.524 . S
Ho160 O184 2.381 . S
Ho160 O185 2.669 . S
Ho160 O187 2.346 . S
Ho160 O191 2.305 . S
Ho161 C172 2.811 . S
Ho161 O181 2.346 . S
Ho161 O185 2.305 . S
Ho161 O186 2.322 . S
Ho161 O188 2.378 . S
Ho161 O189 2.524 . S
Ho161 O190 2.381 . S
Ho161 O191 2.669 . S
C162 O180 1.259 . S
C162 O181 1.268 . S
C163 Ho160 2.811 . S
C163 C164 1.488 . S
C163 O182 1.215 . S
C163 O183 1.289 . S
C164 C163 1.488 . S
C164 C165 1.348 . S
C164 C169 1.413 . S
C165 C164 1.348 . S
C165 C166 1.442 . S
C165 H192 0.930 . S
C166 C165 1.442 . S
C166 C167 1.381 . S
C166 H193 0.931 . S
C167 C166 1.381 . S
C167 C168 1.321 . S
C168 C167 1.321 . S
C168 C169 1.403 . S
C168 H194 0.934 . S
C169 C164 1.413 . S
C169 C168 1.403 . S
C169 H195 0.930 . S
C170 O184 1.275 . S
C170 O185 1.256 . S
C171 O186 1.259 . S
C171 O187 1.268 . S
C172 Ho161 2.811 . S
C172 C173 1.488 . S
C172 O188 1.215 . S
C172 O189 1.289 . S
C173 C172 1.488 . S
C173 C174 1.348 1_554 S
C173 C178 1.413 . S
C174 C173 1.348 1_556 S
C174 C175 1.442 . S
C174 H196 0.930 . S
C175 C174 1.442 . S
C175 C176 1.381 . S
C175 H197 0.931 . S
C176 C175 1.381 . S
C176 C177 1.321 . S
C177 C176 1.321 . S
C177 C178 1.403 1_556 S
C177 H198 0.934 . S
C178 C173 1.413 . S
C178 C177 1.403 1_554 S
C178 H199 0.930 . S
C179 O190 1.275 . S
C179 O191 1.256 . S
O180 Ho160 2.322 . S
O180 C162 1.259 . S
O181 Ho161 2.346 . S
O181 C162 1.268 . S
O182 Ho160 2.378 . S
O182 C163 1.215 . S
O183 Ho160 2.524 . S
O183 C163 1.289 . S
O184 Ho160 2.381 . S
O184 C170 1.275 . S
O185 Ho160 2.669 . S
O185 Ho161 2.305 . S
O185 C170 1.256 . S
O186 Ho161 2.322 . S
O186 C171 1.259 . S
O187 Ho160 2.346 . S
O187 C171 1.268 . S
O188 Ho161 2.378 . S
O188 C172 1.215 . S
O189 Ho161 2.524 . S
O189 C172 1.289 . S
O190 Ho161 2.381 . S
O190 C179 1.275 . S
O191 Ho160 2.305 . S
O191 Ho161 2.669 . S
O191 C179 1.256 . S
H192 C165 0.930 . S
H193 C166 0.931 . S
H194 C168 0.934 . S
H195 C169 0.930 . S
H196 C174 0.930 . S
H197 C175 0.931 . S
H198 C177 0.934 . S
H199 C178 0.930 . S
Ho200 C203 2.811 . S
Ho200 O220 2.322 . S
Ho200 O222 2.378 . S
Ho200 O223 2.524 . S
Ho200 O224 2.381 . S
Ho200 O225 2.669 . S
Ho200 O227 2.346 . S
Ho200 O231 2.305 . S
Ho201 C212 2.811 . S
Ho201 O221 2.346 . S
Ho201 O225 2.305 . S
Ho201 O226 2.322 . S
Ho201 O228 2.378 . S
Ho201 O229 2.524 . S
Ho201 O230 2.381 . S
Ho201 O231 2.669 . S
C202 O220 1.259 . S
C202 O221 1.268 . S
C203 Ho200 2.811 . S
C203 C204 1.488 . S
C203 O222 1.215 . S
C203 O223 1.289 . S
C204 C203 1.488 . S
C204 C205 1.348 . S
C204 C209 1.413 . S
C205 C204 1.348 . S
C205 C206 1.442 . S
C205 H232 0.930 . S
C206 C205 1.442 . S
C206 C207 1.381 . S
C206 H233 0.931 . S
C207 C206 1.381 . S
C207 C208 1.321 . S
C208 C207 1.321 . S
C208 C209 1.403 . S
C208 H234 0.934 . S
C209 C204 1.413 . S
C209 C208 1.403 . S
C209 H235 0.930 . S
C210 O224 1.275 . S
C210 O225 1.256 . S
C211 O226 1.259 . S
C211 O227 1.268 . S
C212 Ho201 2.811 . S
C212 C213 1.488 . S
C212 O228 1.215 . S
C212 O229 1.289 . S
C213 C212 1.488 . S
C213 C214 1.348 1_556 S
C213 C218 1.413 1_556 S
C214 C213 1.348 1_554 S
C214 C215 1.442 . S
C214 H236 0.930 1_554 S
C215 C214 1.442 . S
C215 C216 1.381 . S
C215 H237 0.931 . S
C216 C215 1.381 . S
C216 C217 1.321 . S
C217 C216 1.321 . S
C217 C218 1.403 . S
C217 H238 0.934 . S
C218 C213 1.413 1_554 S
C218 C217 1.403 . S
C218 H239 0.930 1_554 S
C219 O230 1.275 . S
C219 O231 1.256 . S
O220 Ho200 2.322 . S
O220 C202 1.259 . S
O221 Ho201 2.346 . S
O221 C202 1.268 . S
O222 Ho200 2.378 . S
O222 C203 1.215 . S
O223 Ho200 2.524 . S
O223 C203 1.289 . S
O224 Ho200 2.381 . S
O224 C210 1.275 . S
O225 Ho200 2.669 . S
O225 Ho201 2.305 . S
O225 C210 1.256 . S
O226 Ho201 2.322 . S
O226 C211 1.259 . S
O227 Ho200 2.346 . S
O227 C211 1.268 . S
O228 Ho201 2.378 . S
O228 C212 1.215 . S
O229 Ho201 2.524 . S
O229 C212 1.289 . S
O230 Ho201 2.381 . S
O230 C219 1.275 . S
O231 Ho200 2.305 . S
O231 Ho201 2.669 . S
O231 C219 1.256 . S
H232 C205 0.930 . S
H233 C206 0.931 . S
H234 C208 0.934 . S
H235 C209 0.930 . S
H236 C214 0.930 1_556 S
H237 C215 0.931 . S
H238 C217 0.934 . S
H239 C218 0.930 1_556 S
Ho240 C243 2.811 . S
Ho240 O260 2.322 . S
Ho240 O262 2.378 . S
Ho240 O263 2.524 . S
Ho240 O264 2.381 . S
Ho240 O265 2.669 1_556 S
Ho240 O267 2.346 1_556 S
Ho240 O271 2.305 . S
Ho241 C252 2.811 . S
Ho241 O261 2.346 1_554 S
Ho241 O265 2.305 . S
Ho241 O266 2.322 . S
Ho241 O268 2.378 . S
Ho241 O269 2.524 . S
Ho241 O270 2.381 . S
Ho241 O271 2.669 1_554 S
C242 O260 1.259 . S
C242 O261 1.268 . S
C243 Ho240 2.811 . S
C243 C244 1.488 . S
C243 O262 1.215 . S
C243 O263 1.289 . S
C244 C243 1.488 . S
C244 C245 1.348 . S
C244 C249 1.413 . S
C245 C244 1.348 . S
C245 C246 1.442 . S
C245 H272 0.930 . S
C246 C245 1.442 . S
C246 C247 1.381 . S
C246 H273 0.931 . S
C247 C246 1.381 . S
C247 C248 1.321 . S
C248 C247 1.321 . S
C248 C249 1.403 . S
C248 H274 0.934 . S
C249 C244 1.413 . S
C249 C248 1.403 . S
C249 H275 0.930 . S
C250 O264 1.275 1_554 S
C250 O265 1.256 . S
C251 O266 1.259 . S
C251 O267 1.268 . S
C252 Ho241 2.811 . S
C252 C253 1.488 . S
C252 O268 1.215 . S
C252 O269 1.289 . S
C253 C252 1.488 . S
C253 C254 1.348 . S
C253 C258 1.413 . S
C254 C253 1.348 . S
C254 C255 1.442 . S
C254 H276 0.930 . S
C255 C254 1.442 . S
C255 C256 1.381 . S
C255 H277 0.931 . S
C256 C255 1.381 . S
C256 C257 1.321 . S
C257 C256 1.321 . S
C257 C258 1.403 . S
C257 H278 0.934 . S
C258 C253 1.413 . S
C258 C257 1.403 . S
C258 H279 0.930 . S
C259 O270 1.275 1_556 S
C259 O271 1.256 . S
O260 Ho240 2.322 . S
O260 C242 1.259 . S
O261 Ho241 2.346 1_556 S
O261 C242 1.268 . S
O262 Ho240 2.378 . S
O262 C243 1.215 . S
O263 Ho240 2.524 . S
O263 C243 1.289 . S
O264 Ho240 2.381 . S
O264 C250 1.275 1_556 S
O265 Ho240 2.669 1_554 S
O265 Ho241 2.305 . S
O265 C250 1.256 . S
O266 Ho241 2.322 . S
O266 C251 1.259 . S
O267 Ho240 2.346 1_554 S
O267 C251 1.268 . S
O268 Ho241 2.378 . S
O268 C252 1.215 . S
O269 Ho241 2.524 . S
O269 C252 1.289 . S
O270 Ho241 2.381 . S
O270 C259 1.275 1_554 S
O271 Ho240 2.305 . S
O271 Ho241 2.669 1_556 S
O271 C259 1.256 . S
H272 C245 0.930 . S
H273 C246 0.931 . S
H274 C248 0.934 . S
H275 C249 0.930 . S
H276 C254 0.930 . S
H277 C255 0.931 . S
H278 C257 0.934 . S
H279 C258 0.930 . S
Ho280 C283 2.811 1_455 S
Ho280 O300 2.322 1_455 S
Ho280 O302 2.378 1_455 S
Ho280 O303 2.524 . S
Ho280 O304 2.381 1_455 S
Ho280 O305 2.669 1_455 S
Ho280 O307 2.346 . S
Ho280 O311 2.305 . S
Ho281 C292 2.811 1_655 S
Ho281 O301 2.346 . S
Ho281 O305 2.305 . S
Ho281 O306 2.322 1_655 S
Ho281 O308 2.378 1_655 S
Ho281 O309 2.524 . S
Ho281 O310 2.381 1_655 S
Ho281 O311 2.669 1_655 S
C282 O300 1.259 . S
C282 O301 1.268 . S
C283 Ho280 2.811 1_655 S
C283 C284 1.488 . S
C283 O302 1.215 . S
C283 O303 1.289 1_655 S
C284 C283 1.488 . S
C284 C285 1.348 . S
C284 C289 1.413 . S
C285 C284 1.348 . S
C285 C286 1.442 . S
C285 H312 0.930 1_655 S
C286 C285 1.442 . S
C286 C287 1.381 . S
C286 H313 0.931 . S
C287 C286 1.381 . S
C287 C288 1.321 . S
C288 C287 1.321 . S
C288 C289 1.403 . S
C288 H314 0.934 . S
C289 C284 1.413 . S
C289 C288 1.403 . S
C289 H315 0.930 . S
C290 O304 1.275 . S
C290 O305 1.256 . S
C291 O306 1.259 . S
C291 O307 1.268 . S
C292 Ho281 2.811 1_455 S
C292 C293 1.488 . S
C292 O308 1.215 . S
C292 O309 1.289 1_455 S
C293 C292 1.488 . S
C293 C294 1.348 . S
C293 C298 1.413 . S
C294 C293 1.348 . S
C294 C295 1.442 . S
C294 H316 0.930 1_455 S
C295 C294 1.442 . S
C295 C296 1.381 . S
C295 H317 0.931 . S
C296 C295 1.381 . S
C296 C297 1.321 . S
C297 C296 1.321 . S
C297 C298 1.403 . S
C297 H318 0.934 . S
C298 C293 1.413 . S
C298 C297 1.403 . S
C298 H319 0.930 . S
C299 O310 1.275 . S
C299 O311 1.256 . S
O300 Ho280 2.322 1_655 S
O300 C282 1.259 . S
O301 Ho281 2.346 . S
O301 C282 1.268 . S
O302 Ho280 2.378 1_655 S
O302 C283 1.215 . S
O303 Ho280 2.524 . S
O303 C283 1.289 1_455 S
O304 Ho280 2.381 1_655 S
O304 C290 1.275 . S
O305 Ho280 2.669 1_655 S
O305 Ho281 2.305 . S
O305 C290 1.256 . S
O306 Ho281 2.322 1_455 S
O306 C291 1.259 . S
O307 Ho280 2.346 . S
O307 C291 1.268 . S
O308 Ho281 2.378 1_455 S
O308 C292 1.215 . S
O309 Ho281 2.524 . S
O309 C292 1.289 1_655 S
O310 Ho281 2.381 1_455 S
O310 C299 1.275 . S
O311 Ho280 2.305 . S
O311 Ho281 2.669 1_455 S
O311 C299 1.256 . S
H312 C285 0.930 1_455 S
H313 C286 0.931 . S
H314 C288 0.934 . S
H315 C289 0.930 . S
H316 C294 0.930 1_655 S
H317 C295 0.931 . S
H318 C297 0.934 . S
H319 C298 0.930 . S
H320 C326 0.930 . S
H321 C329 0.930 . S
H322 C330 0.930 . S
H323 C331 0.930 . S
H324 C334 0.930 . S
H325 C335 0.930 . S
C326 H320 0.930 . S
C326 C327 1.355 . S
C326 C328 1.415 . S
C327 C326 1.355 . S
C327 C329 1.419 . S
C328 C326 1.415 . S
C328 C333 1.425 . S
C328 C335 1.409 . S
C329 H321 0.930 . S
C329 C327 1.419 . S
C329 C330 1.362 . S
C330 H322 0.930 . S
C330 C329 1.362 . S
C330 C333 1.409 . S
C331 H323 0.930 . S
C331 C332 1.355 . S
C331 C333 1.415 . S
C332 C331 1.355 . S
C332 C334 1.419 . S
C333 C328 1.425 . S
C333 C330 1.409 . S
C333 C331 1.415 . S
C334 H324 0.930 . S
C334 C332 1.419 . S
C334 C335 1.362 . S
C335 H325 0.930 . S
C335 C328 1.409 . S
C335 C334 1.362 . S
H336 C342 0.930 . S
H337 C345 0.930 . S
H338 C346 0.930 . S
H339 C347 0.930 . S
H340 C350 0.930 . S
H341 C351 0.930 . S
C342 H336 0.930 . S
C342 C343 1.355 . S
C342 C344 1.415 . S
C343 C342 1.355 . S
C343 C345 1.419 . S
C344 C342 1.415 . S
C344 C349 1.425 . S
C344 C351 1.409 . S
C345 H337 0.930 . S
C345 C343 1.419 . S
C345 C346 1.362 . S
C346 H338 0.930 . S
C346 C345 1.362 . S
C346 C349 1.409 . S
C347 H339 0.930 . S
C347 C348 1.355 . S
C347 C349 1.415 . S
C348 C347 1.355 . S
C348 C350 1.419 . S
C349 C344 1.425 . S
C349 C346 1.409 . S
C349 C347 1.415 . S
C350 H340 0.930 . S
C350 C348 1.419 . S
C350 C351 1.362 . S
C351 H341 0.930 . S
C351 C344 1.409 . S
C351 C350 1.362 . S
H352 C358 0.930 . S
H353 C361 0.930 . S
H354 C362 0.930 . S
H355 C363 0.930 . S
H356 C366 0.930 . S
H357 C367 0.930 . S
C358 H352 0.930 . S
C358 C359 1.355 . S
C358 C360 1.415 . S
C359 C358 1.355 . S
C359 C361 1.419 . S
C360 C358 1.415 . S
C360 C365 1.425 . S
C360 C367 1.409 . S
C361 H353 0.930 . S
C361 C359 1.419 . S
C361 C362 1.362 . S
C362 H354 0.930 . S
C362 C361 1.362 . S
C362 C365 1.409 . S
C363 H355 0.930 . S
C363 C364 1.355 . S
C363 C365 1.415 . S
C364 C363 1.355 . S
C364 C366 1.419 . S
C365 C360 1.425 . S
C365 C362 1.409 . S
C365 C363 1.415 . S
C366 H356 0.930 . S
C366 C364 1.419 . S
C366 C367 1.362 . S
C367 H357 0.930 . S
C367 C360 1.409 . S
C367 C366 1.362 . S
H368 C374 0.930 . S
H369 C377 0.930 . S
H370 C378 0.930 . S
H371 C379 0.930 . S
H372 C382 0.930 . S
H373 C383 0.930 . S
C374 H368 0.930 . S
C374 C375 1.355 . S
C374 C376 1.415 . S
C375 C374 1.355 . S
C375 C377 1.419 . S
C376 C374 1.415 . S
C376 C381 1.425 . S
C376 C383 1.409 . S
C377 H369 0.930 . S
C377 C375 1.419 . S
C377 C378 1.362 . S
C378 H370 0.930 . S
C378 C377 1.362 . S
C378 C381 1.409 . S
C379 H371 0.930 . S
C379 C380 1.355 . S
C379 C381 1.415 . S
C380 C379 1.355 . S
C380 C382 1.419 . S
C381 C376 1.425 . S
C381 C378 1.409 . S
C381 C379 1.415 . S
C382 H372 0.930 . S
C382 C380 1.419 . S
C382 C383 1.362 . S
C383 H373 0.930 . S
C383 C376 1.409 . S
C383 C382 1.362 . S
H384 C390 0.930 . S
H385 C393 0.930 . S
H386 C394 0.930 . S
H387 C395 0.930 . S
H388 C398 0.930 . S
H389 C399 0.930 . S
C390 H384 0.930 . S
C390 C391 1.355 . S
C390 C392 1.415 . S
C391 C390 1.355 . S
C391 C393 1.419 . S
C392 C390 1.415 . S
C392 C397 1.425 . S
C392 C399 1.409 . S
C393 H385 0.930 . S
C393 C391 1.419 . S
C393 C394 1.362 . S
C394 H386 0.930 . S
C394 C393 1.362 . S
C394 C397 1.409 . S
C395 H387 0.930 . S
C395 C396 1.355 . S
C395 C397 1.415 . S
C396 C395 1.355 . S
C396 C398 1.419 . S
C397 C392 1.425 . S
C397 C394 1.409 . S
C397 C395 1.415 . S
C398 H388 0.930 . S
C398 C396 1.419 . S
C398 C399 1.362 . S
C399 H389 0.930 . S
C399 C392 1.409 . S
C399 C398 1.362 . S
H400 C406 0.930 . S
H401 C409 0.930 . S
H402 C410 0.930 . S
H403 C411 0.930 . S
H404 C414 0.930 . S
H405 C415 0.930 . S
C406 H400 0.930 . S
C406 C407 1.355 . S
C406 C408 1.415 . S
C407 C406 1.355 . S
C407 C409 1.419 . S
C408 C406 1.415 . S
C408 C413 1.425 . S
C408 C415 1.409 . S
C409 H401 0.930 . S
C409 C407 1.419 . S
C409 C410 1.362 . S
C410 H402 0.930 . S
C410 C409 1.362 . S
C410 C413 1.409 . S
C411 H403 0.930 . S
C411 C412 1.355 . S
C411 C413 1.415 . S
C412 C411 1.355 . S
C412 C414 1.419 . S
C413 C408 1.425 . S
C413 C410 1.409 . S
C413 C411 1.415 . S
C414 H404 0.930 . S
C414 C412 1.419 . S
C414 C415 1.362 . S
C415 H405 0.930 . S
C415 C408 1.409 . S
C415 C414 1.362 . S
H416 C422 0.930 . S
H417 C425 0.930 . S
H418 C426 0.930 . S
H419 C427 0.930 . S
H420 C430 0.930 . S
H421 C431 0.930 . S
C422 H416 0.930 . S
C422 C423 1.355 . S
C422 C424 1.415 . S
C423 C422 1.355 . S
C423 C425 1.419 . S
C424 C422 1.415 . S
C424 C429 1.425 . S
C424 C431 1.409 . S
C425 H417 0.930 . S
C425 C423 1.419 . S
C425 C426 1.362 . S
C426 H418 0.930 . S
C426 C425 1.362 . S
C426 C429 1.409 . S
C427 H419 0.930 . S
C427 C428 1.355 . S
C427 C429 1.415 . S
C428 C427 1.355 . S
C428 C430 1.419 . S
C429 C424 1.425 . S
C429 C426 1.409 . S
C429 C427 1.415 . S
C430 H420 0.930 . S
C430 C428 1.419 . S
C430 C431 1.362 . S
C431 H421 0.930 . S
C431 C424 1.409 . S
C431 C430 1.362 . S
H432 C438 0.930 . S
H433 C441 0.930 . S
H434 C442 0.930 . S
H435 C443 0.930 . S
H436 C446 0.930 . S
H437 C447 0.930 . S
C438 H432 0.930 . S
C438 C439 1.355 . S
C438 C440 1.415 . S
C439 C438 1.355 . S
C439 C441 1.419 . S
C440 C438 1.415 . S
C440 C445 1.425 . S
C440 C447 1.409 . S
C441 H433 0.930 . S
C441 C439 1.419 . S
C441 C442 1.362 . S
C442 H434 0.930 . S
C442 C441 1.362 . S
C442 C445 1.409 . S
C443 H435 0.930 . S
C443 C444 1.355 . S
C443 C445 1.415 . S
C444 C443 1.355 . S
C444 C446 1.419 . S
C445 C440 1.425 . S
C445 C442 1.409 . S
C445 C443 1.415 . S
C446 H436 0.930 . S
C446 C444 1.419 . S
C446 C447 1.362 . S
C447 H437 0.930 . S
C447 C440 1.409 . S
C447 C446 1.362 . S
H448 C454 0.930 . S
H449 C457 0.930 . S
H450 C458 0.930 . S
H451 C459 0.930 . S
H452 C462 0.930 . S
H453 C463 0.930 . S
C454 H448 0.930 . S
C454 C455 1.355 . S
C454 C456 1.415 . S
C455 C454 1.355 . S
C455 C457 1.419 . S
C456 C454 1.415 . S
C456 C461 1.425 . S
C456 C463 1.409 . S
C457 H449 0.930 . S
C457 C455 1.419 . S
C457 C458 1.362 . S
C458 H450 0.930 . S
C458 C457 1.362 . S
C458 C461 1.409 . S
C459 H451 0.930 . S
C459 C460 1.355 . S
C459 C461 1.415 . S
C460 C459 1.355 . S
C460 C462 1.419 . S
C461 C456 1.425 . S
C461 C458 1.409 . S
C461 C459 1.415 . S
C462 H452 0.930 . S
C462 C460 1.419 . S
C462 C463 1.362 . S
C463 H453 0.930 . S
C463 C456 1.409 . S
C463 C462 1.362 . S
H464 C470 0.930 . S
H465 C473 0.930 . S
H466 C474 0.930 . S
H467 C475 0.930 . S
H468 C478 0.930 . S
H469 C479 0.930 . S
C470 H464 0.930 . S
C470 C471 1.355 . S
C470 C472 1.415 . S
C471 C470 1.355 . S
C471 C473 1.419 . S
C472 C470 1.415 . S
C472 C477 1.425 . S
C472 C479 1.409 . S
C473 H465 0.930 . S
C473 C471 1.419 . S
C473 C474 1.362 . S
C474 H466 0.930 . S
C474 C473 1.362 . S
C474 C477 1.409 . S
C475 H467 0.930 . S
C475 C476 1.355 . S
C475 C477 1.415 . S
C476 C475 1.355 . S
C476 C478 1.419 . S
C477 C472 1.425 . S
C477 C474 1.409 . S
C477 C475 1.415 . S
C478 H468 0.930 . S
C478 C476 1.419 . S
C478 C479 1.362 . S
C479 H469 0.930 . S
C479 C472 1.409 . S
C479 C478 1.362 . S
H480 C486 0.930 . S
H481 C489 0.930 . S
H482 C490 0.930 . S
H483 C491 0.930 . S
H484 C494 0.930 . S
H485 C495 0.930 . S
C486 H480 0.930 . S
C486 C487 1.355 . S
C486 C488 1.415 . S
C487 C486 1.355 . S
C487 C489 1.419 . S
C488 C486 1.415 . S
C488 C493 1.425 . S
C488 C495 1.409 . S
C489 H481 0.930 . S
C489 C487 1.419 . S
C489 C490 1.362 . S
C490 H482 0.930 . S
C490 C489 1.362 . S
C490 C493 1.409 . S
C491 H483 0.930 . S
C491 C492 1.355 . S
C491 C493 1.415 . S
C492 C491 1.355 . S
C492 C494 1.419 . S
C493 C488 1.425 . S
C493 C490 1.409 . S
C493 C491 1.415 . S
C494 H484 0.930 . S
C494 C492 1.419 . S
C494 C495 1.362 . S
C495 H485 0.930 . S
C495 C488 1.409 . S
C495 C494 1.362 . S
H496 C502 0.930 . S
H497 C505 0.930 . S
H498 C506 0.930 . S
H499 C507 0.930 . S
H500 C510 0.930 . S
H501 C511 0.930 . S
C502 H496 0.930 . S
C502 C503 1.355 . S
C502 C504 1.415 . S
C503 C502 1.355 . S
C503 C505 1.419 . S
C504 C502 1.415 . S
C504 C509 1.425 . S
C504 C511 1.409 . S
C505 H497 0.930 . S
C505 C503 1.419 . S
C505 C506 1.362 . S
C506 H498 0.930 . S
C506 C505 1.362 . S
C506 C509 1.409 . S
C507 H499 0.930 . S
C507 C508 1.355 . S
C507 C509 1.415 . S
C508 C507 1.355 . S
C508 C510 1.419 . S
C509 C504 1.425 . S
C509 C506 1.409 . S
C509 C507 1.415 . S
C510 H500 0.930 . S
C510 C508 1.419 . S
C510 C511 1.362 . S
C511 H501 0.930 . S
C511 C504 1.409 . S
C511 C510 1.362 . S
H512 C518 0.930 . S
H513 C521 0.930 . S
H514 C522 0.930 . S
H515 C523 0.930 . S
H516 C526 0.930 . S
H517 C527 0.930 . S
C518 H512 0.930 . S
C518 C519 1.355 . S
C518 C520 1.415 . S
C519 C518 1.355 . S
C519 C521 1.419 . S
C520 C518 1.415 . S
C520 C525 1.425 . S
C520 C527 1.409 . S
C521 H513 0.930 . S
C521 C519 1.419 . S
C521 C522 1.362 . S
C522 H514 0.930 . S
C522 C521 1.362 . S
C522 C525 1.409 . S
C523 H515 0.930 . S
C523 C524 1.355 . S
C523 C525 1.415 . S
C524 C523 1.355 . S
C524 C526 1.419 . S
C525 C520 1.425 . S
C525 C522 1.409 . S
C525 C523 1.415 . S
C526 H516 0.930 . S
C526 C524 1.419 . S
C526 C527 1.362 . S
C527 H517 0.930 . S
C527 C520 1.409 . S
C527 C526 1.362 . S
H528 C534 0.930 . S
H529 C537 0.930 . S
H530 C538 0.930 . S
H531 C539 0.930 . S
H532 C542 0.930 . S
H533 C543 0.930 . S
C534 H528 0.930 . S
C534 C535 1.355 . S
C534 C536 1.415 . S
C535 C534 1.355 . S
C535 C537 1.419 . S
C536 C534 1.415 . S
C536 C541 1.425 . S
C536 C543 1.409 . S
C537 H529 0.930 . S
C537 C535 1.419 . S
C537 C538 1.362 . S
C538 H530 0.930 . S
C538 C537 1.362 . S
C538 C541 1.409 . S
C539 H531 0.930 . S
C539 C540 1.355 . S
C539 C541 1.415 . S
C540 C539 1.355 . S
C540 C542 1.419 . S
C541 C536 1.425 . S
C541 C538 1.409 . S
C541 C539 1.415 . S
C542 H532 0.930 . S
C542 C540 1.419 . S
C542 C543 1.362 . S
C543 H533 0.930 . S
C543 C536 1.409 . S
C543 C542 1.362 . S
H544 C550 0.930 . S
H545 C553 0.930 . S
H546 C554 0.930 . S
H547 C555 0.930 . S
H548 C558 0.930 . S
H549 C559 0.930 . S
C550 H544 0.930 . S
C550 C551 1.355 . S
C550 C552 1.415 . S
C551 C550 1.355 . S
C551 C553 1.419 . S
C552 C550 1.415 . S
C552 C557 1.425 . S
C552 C559 1.409 . S
C553 H545 0.930 . S
C553 C551 1.419 . S
C553 C554 1.362 . S
C554 H546 0.930 . S
C554 C553 1.362 . S
C554 C557 1.409 . S
C555 H547 0.930 . S
C555 C556 1.355 . S
C555 C557 1.415 . S
C556 C555 1.355 . S
C556 C558 1.419 . S
C557 C552 1.425 . S
C557 C554 1.409 . S
C557 C555 1.415 . S
C558 H548 0.930 . S
C558 C556 1.419 . S
C558 C559 1.362 . S
C559 H549 0.930 . S
C559 C552 1.409 . S
C559 C558 1.362 . S
H560 C566 0.930 . S
H561 C569 0.930 . S
H562 C570 0.930 . S
H563 C571 0.930 . S
H564 C574 0.930 . S
H565 C575 0.930 . S
C566 H560 0.930 . S
C566 C567 1.355 . S
C566 C568 1.415 . S
C567 C566 1.355 . S
C567 C569 1.419 . S
C568 C566 1.415 . S
C568 C573 1.425 . S
C568 C575 1.409 . S
C569 H561 0.930 . S
C569 C567 1.419 . S
C569 C570 1.362 . S
C570 H562 0.930 . S
C570 C569 1.362 . S
C570 C573 1.409 . S
C571 H563 0.930 . S
C571 C572 1.355 . S
C571 C573 1.415 . S
C572 C571 1.355 . S
C572 C574 1.419 . S
C573 C568 1.425 . S
C573 C570 1.409 . S
C573 C571 1.415 . S
C574 H564 0.930 . S
C574 C572 1.419 . S
C574 C575 1.362 . S
C575 H565 0.930 . S
C575 C568 1.409 . S
C575 C574 1.362 . S
H576 C582 0.930 . S
H577 C585 0.930 . S
H578 C586 0.930 . S
H579 C587 0.930 . S
H580 C590 0.930 . S
H581 C591 0.930 . S
C582 H576 0.930 . S
C582 C583 1.355 1_565 S
C582 C584 1.415 . S
C583 C582 1.355 1_545 S
C583 C585 1.419 . S
C584 C582 1.415 . S
C584 C589 1.425 1_666 S
C584 C591 1.409 1_656 S
C585 H577 0.930 . S
C585 C583 1.419 . S
C585 C586 1.362 . S
C586 H578 0.930 . S
C586 C585 1.362 . S
C586 C589 1.409 1_656 S
C587 H579 0.930 . S
C587 C588 1.355 1_545 S
C587 C589 1.415 . S
C588 C587 1.355 1_565 S
C588 C590 1.419 . S
C589 C584 1.425 1_444 S
C589 C586 1.409 1_454 S
C589 C587 1.415 . S
C590 H580 0.930 . S
C590 C588 1.419 . S
C590 C591 1.362 . S
C591 H581 0.930 . S
C591 C584 1.409 1_454 S
C591 C590 1.362 . S
H592 C598 0.930 . S
H593 C601 0.930 . S
H594 C602 0.930 . S
H595 C603 0.930 . S
H596 C606 0.930 . S
H597 C607 0.930 . S
C598 H592 0.930 . S
C598 C599 1.355 . S
C598 C600 1.415 . S
C599 C598 1.355 . S
C599 C601 1.419 . S
C600 C598 1.415 . S
C600 C605 1.425 . S
C600 C607 1.409 . S
C601 H593 0.930 . S
C601 C599 1.419 . S
C601 C602 1.362 . S
C602 H594 0.930 . S
C602 C601 1.362 . S
C602 C605 1.409 . S
C603 H595 0.930 . S
C603 C604 1.355 . S
C603 C605 1.415 . S
C604 C603 1.355 . S
C604 C606 1.419 . S
C605 C600 1.425 . S
C605 C602 1.409 . S
C605 C603 1.415 . S
C606 H596 0.930 . S
C606 C604 1.419 . S
C606 C607 1.362 . S
C607 H597 0.930 . S
C607 C600 1.409 . S
C607 C606 1.362 . S
H608 C614 0.930 . S
H609 C617 0.930 . S
H610 C618 0.930 . S
H611 C619 0.930 . S
H612 C622 0.930 . S
H613 C623 0.930 . S
C614 H608 0.930 . S
C614 C615 1.355 1_565 S
C614 C616 1.415 . S
C615 C614 1.355 1_545 S
C615 C617 1.419 . S
C616 C614 1.415 . S
C616 C621 1.425 1_565 S
C616 C623 1.409 . S
C617 H609 0.930 . S
C617 C615 1.419 . S
C617 C618 1.362 . S
C618 H610 0.930 . S
C618 C617 1.362 . S
C618 C621 1.409 . S
C619 H611 0.930 . S
C619 C620 1.355 1_545 S
C619 C621 1.415 . S
C620 C619 1.355 1_565 S
C620 C622 1.419 . S
C621 C616 1.425 1_545 S
C621 C618 1.409 . S
C621 C619 1.415 . S
C622 H612 0.930 . S
C622 C620 1.419 . S
C622 C623 1.362 . S
C623 H613 0.930 . S
C623 C616 1.409 . S
C623 C622 1.362 . S
H624 C630 0.930 . S
H625 C633 0.930 . S
H626 C634 0.930 . S
H627 C635 0.930 . S
H628 C638 0.930 . S
H629 C639 0.930 . S
C630 H624 0.930 . S
C630 C631 1.355 . S
C630 C632 1.415 . S
C631 C630 1.355 . S
C631 C633 1.419 . S
C632 C630 1.415 . S
C632 C637 1.425 . S
C632 C639 1.409 . S
C633 H625 0.930 . S
C633 C631 1.419 . S
C633 C634 1.362 . S
C634 H626 0.930 . S
C634 C633 1.362 . S
C634 C637 1.409 . S
C635 H627 0.930 . S
C635 C636 1.355 . S
C635 C637 1.415 . S
C636 C635 1.355 . S
C636 C638 1.419 . S
C637 C632 1.425 . S
C637 C634 1.409 . S
C637 C635 1.415 . S
C638 H628 0.930 . S
C638 C636 1.419 . S
C638 C639 1.362 . S
C639 H629 0.930 . S
C639 C632 1.409 . S
C639 C638 1.362 . S
H640 C646 0.930 . S
H641 C649 0.930 . S
H642 C650 0.930 . S
H643 C651 0.930 . S
H644 C654 0.930 . S
H645 C655 0.930 . S
C646 H640 0.930 . S
C646 C647 1.355 . S
C646 C648 1.415 . S
C647 C646 1.355 . S
C647 C649 1.419 . S
C648 C646 1.415 . S
C648 C653 1.425 . S
C648 C655 1.409 . S
C649 H641 0.930 . S
C649 C647 1.419 . S
C649 C650 1.362 . S
C650 H642 0.930 . S
C650 C649 1.362 . S
C650 C653 1.409 . S
C651 H643 0.930 . S
C651 C652 1.355 . S
C651 C653 1.415 . S
C652 C651 1.355 . S
C652 C654 1.419 . S
C653 C648 1.425 . S
C653 C650 1.409 . S
C653 C651 1.415 . S
C654 H644 0.930 . S
C654 C652 1.419 . S
C654 C655 1.362 . S
C655 H645 0.930 . S
C655 C648 1.409 . S
C655 C654 1.362 . S
H656 C662 0.930 . S
H657 C665 0.930 . S
H658 C666 0.930 . S
H659 C667 0.930 . S
H660 C670 0.930 . S
H661 C671 0.930 . S
C662 H656 0.930 . S
C662 C663 1.355 . S
C662 C664 1.415 . S
C663 C662 1.355 . S
C663 C665 1.419 . S
C664 C662 1.415 . S
C664 C669 1.425 . S
C664 C671 1.409 . S
C665 H657 0.930 . S
C665 C663 1.419 . S
C665 C666 1.362 . S
C666 H658 0.930 . S
C666 C665 1.362 . S
C666 C669 1.409 . S
C667 H659 0.930 . S
C667 C668 1.355 . S
C667 C669 1.415 . S
C668 C667 1.355 . S
C668 C670 1.419 . S
C669 C664 1.425 . S
C669 C666 1.409 . S
C669 C667 1.415 . S
C670 H660 0.930 . S
C670 C668 1.419 . S
C670 C671 1.362 . S
C671 H661 0.930 . S
C671 C664 1.409 . S
C671 C670 1.362 . S
H672 C678 0.930 . S
H673 C681 0.930 . S
H674 C682 0.930 . S
H675 C683 0.930 . S
H676 C686 0.930 . S
H677 C687 0.930 . S
C678 H672 0.930 . S
C678 C679 1.355 . S
C678 C680 1.415 . S
C679 C678 1.355 . S
C679 C681 1.419 . S
C680 C678 1.415 . S
C680 C685 1.425 . S
C680 C687 1.409 . S
C681 H673 0.930 . S
C681 C679 1.419 . S
C681 C682 1.362 . S
C682 H674 0.930 . S
C682 C681 1.362 . S
C682 C685 1.409 . S
C683 H675 0.930 . S
C683 C684 1.355 . S
C683 C685 1.415 . S
C684 C683 1.355 . S
C684 C686 1.419 . S
C685 C680 1.425 . S
C685 C682 1.409 . S
C685 C683 1.415 . S
C686 H676 0.930 . S
C686 C684 1.419 . S
C686 C687 1.362 . S
C687 H677 0.930 . S
C687 C680 1.409 . S
C687 C686 1.362 . S
H688 C694 0.930 . S
H689 C697 0.930 . S
H690 C698 0.930 . S
H691 C699 0.930 . S
H692 C702 0.930 . S
H693 C703 0.930 . S
C694 H688 0.930 . S
C694 C695 1.355 1_455 S
C694 C696 1.415 . S
C695 C694 1.355 1_655 S
C695 C697 1.419 . S
C696 C694 1.415 . S
C696 C701 1.425 1_456 S
C696 C703 1.409 . S
C697 H689 0.930 . S
C697 C695 1.419 . S
C697 C698 1.362 1_556 S
C698 H690 0.930 . S
C698 C697 1.362 1_554 S
C698 C701 1.409 . S
C699 H691 0.930 . S
C699 C700 1.355 1_655 S
C699 C701 1.415 . S
C700 C699 1.355 1_455 S
C700 C702 1.419 . S
C701 C696 1.425 1_654 S
C701 C698 1.409 . S
C701 C699 1.415 . S
C702 H692 0.930 . S
C702 C700 1.419 . S
C702 C703 1.362 1_554 S
C703 H693 0.930 . S
C703 C696 1.409 . S
C703 C702 1.362 1_556 S
C327 C2 1.529 . S
C332 C130 1.508 . S
C343 C10 0.929 . S
C348 C50 0.976 . S
C359 C42 1.547 . S
C364 C90 1.543 . S
C375 C82 2.017 . S
C380 C122 2.009 . S
C391 C11 1.542 . S
C396 C219 1.533 . S
C407 C19 0.919 . S
C412 C179 0.930 . S
C423 C171 1.526 . S
C428 C99 1.505 . S
C439 C211 2.004 . S
C444 C91 2.019 . S
C455 C242 1.545 . S
C460 C210 1.543 . S
C471 C170 0.929 . S
C476 C250 0.973 . S
C487 C290 1.533 . S
C492 C162 1.539 . S
C503 C202 2.005 . S
C508 C282 2.019 . S
C519 C139 1.501 . S
C524 C251 1.518 . S
C535 C259 0.966 . S
C540 C59 0.920 . S
C551 C51 1.527 . S
C556 C299 1.508 . S
C567 C131 2.004 . S
C572 C291 2.011 . S
C583 C16 1.455 . S
C588 C7 1.455 . S
C599 C56 1.455 . S
C604 C47 1.455 . S
C615 C96 1.718 . S
C620 C87 1.718 . S
C631 C127 1.712 . S
C636 C136 1.712 . S
C647 C176 1.436 . S
C652 C167 1.436 . S
C663 C207 1.719 . S
C668 C216 1.719 . S
C679 C247 1.478 . S
C684 C256 1.478 . S
C695 C287 1.727 . S
C700 C296 1.727 . S
