# Generated by pormake.
# Topology qtz-a, (4)-cn, num edge types: 1
# Building blocks:
#     Node 0, Type 0, BuildingBlock: NAHDIM_clean_sbu_0, # of connection points: 4
#     Node 1, Type 0, BuildingBlock: NAHDIM_clean_sbu_0, # of connection points: 4
#     Node 2, Type 0, BuildingBlock: NAHDIM_clean_sbu_0, # of connection points: 4
#     Node 3, Type 0, BuildingBlock: NAHDIM_clean_sbu_0, # of connection points: 4
#     Node 4, Type 0, BuildingBlock: NAHDIM_clean_sbu_0, # of connection points: 4
#     Node 5, Type 0, BuildingBlock: NAHDIM_clean_sbu_0, # of connection points: 4
#     Node 6, Type 0, BuildingBlock: NAHDIM_clean_sbu_0, # of connection points: 4
#     Node 7, Type 0, BuildingBlock: NAHDIM_clean_sbu_0, # of connection points: 4
#     Node 8, Type 0, BuildingBlock: NAHDIM_clean_sbu_0, # of connection points: 4
#     Node 9, Type 0, BuildingBlock: NAHDIM_clean_sbu_0, # of connection points: 4
#     Node 10, Type 0, BuildingBlock: NAHDIM_clean_sbu_0, # of connection points: 4
#     Node 11, Type 0, BuildingBlock: NAHDIM_clean_sbu_0, # of connection points: 4
#     Edge 12, Type (0, 0), BuildingBlock: OJICUG_clean_linker_0, # of connection points: 2
#     Edge 13, Type (0, 0), BuildingBlock: OJICUG_clean_linker_0, # of connection points: 2
#     Edge 14, Type (0, 0), BuildingBlock: OJICUG_clean_linker_0, # of connection points: 2
#     Edge 15, Type (0, 0), BuildingBlock: OJICUG_clean_linker_0, # of connection points: 2
#     Edge 16, Type (0, 0), BuildingBlock: OJICUG_clean_linker_0, # of connection points: 2
#     Edge 17, Type (0, 0), BuildingBlock: OJICUG_clean_linker_0, # of connection points: 2
#     Edge 18, Type (0, 0), BuildingBlock: OJICUG_clean_linker_0, # of connection points: 2
#     Edge 19, Type (0, 0), BuildingBlock: OJICUG_clean_linker_0, # of connection points: 2
#     Edge 20, Type (0, 0), BuildingBlock: OJICUG_clean_linker_0, # of connection points: 2
#     Edge 21, Type (0, 0), BuildingBlock: OJICUG_clean_linker_0, # of connection points: 2
#     Edge 22, Type (0, 0), BuildingBlock: OJICUG_clean_linker_0, # of connection points: 2
#     Edge 23, Type (0, 0), BuildingBlock: OJICUG_clean_linker_0, # of connection points: 2
#     Edge 24, Type (0, 0), BuildingBlock: OJICUG_clean_linker_0, # of connection points: 2
#     Edge 25, Type (0, 0), BuildingBlock: OJICUG_clean_linker_0, # of connection points: 2
#     Edge 26, Type (0, 0), BuildingBlock: OJICUG_clean_linker_0, # of connection points: 2
#     Edge 27, Type (0, 0), BuildingBlock: OJICUG_clean_linker_0, # of connection points: 2
#     Edge 28, Type (0, 0), BuildingBlock: OJICUG_clean_linker_0, # of connection points: 2
#     Edge 29, Type (0, 0), BuildingBlock: OJICUG_clean_linker_0, # of connection points: 2
#     Edge 30, Type (0, 0), BuildingBlock: OJICUG_clean_linker_0, # of connection points: 2
#     Edge 31, Type (0, 0), BuildingBlock: OJICUG_clean_linker_0, # of connection points: 2
#     Edge 32, Type (0, 0), BuildingBlock: OJICUG_clean_linker_0, # of connection points: 2
#     Edge 33, Type (0, 0), BuildingBlock: OJICUG_clean_linker_0, # of connection points: 2
#     Edge 34, Type (0, 0), BuildingBlock: OJICUG_clean_linker_0, # of connection points: 2
#     Edge 35, Type (0, 0), BuildingBlock: OJICUG_clean_linker_0, # of connection points: 2
# Relax obj value: 0.785
# Max RMSD: 0.420
# Mean RMSD: 0.343
data_MOF--net-qtz-a--node1-NAHDIM_clean_sbu_0--edge1-OJICUG_clean_linker_0
_symmetry_space_group_name_H-M    P1
_symmetry_Int_Tables_number       1
_symmetry_cell_setting            triclinic
loop_
_symmetry_equiv_pos_as_xyz
'x, y, z'
_cell_length_a     33.940588
_cell_length_b     33.754578
_cell_length_c     30.067925
_cell_angle_alpha  90.021332
_cell_angle_beta   89.963294
_cell_angle_gamma 110.37424
loop_
_atom_site_label
_atom_site_type_symbol
_atom_site_fract_x
_atom_site_fract_y
_atom_site_fract_z
_atom_type_partial_charge
C0 C 0.39491 0.1374 0.16534 0.0
O1 O 0.40996 0.11021 0.18335 0.0
O2 O 0.41852 0.05102 0.12021 0.0
Zn3 Zn 0.3963 0.09041 0.08639 0.0
O4 O 0.444 0.12325 0.04645 0.0
C5 C 0.3347 0.01634 0.0492 0.0
O6 O 0.34145 -0.00102 0.08617 0.0
O7 O 0.38269 0.13231 0.12513 0.0
C8 C 0.43913 0.13263 0.00641 0.0
O9 O 0.40096 0.12325 0.99042 0.0
C10 C 0.45727 0.06291 0.13039 0.0
O11 O 0.48108 0.10245 0.12343 0.0
O12 O 0.35024 0.05626 0.0452 0.0
C13 C 0.31055 0.48148 0.50721 0.0
O14 O 0.33113 0.45974 0.52658 0.0
O15 O 0.41268 0.51698 0.54934 0.0
Zn16 Zn 0.3942 0.53879 0.49371 0.0
O17 O 0.42082 0.60273 0.49246 0.0
C18 C 0.41759 0.47536 0.44937 0.0
O19 O 0.40582 0.45674 0.48788 0.0
O20 O 0.33089 0.5179 0.49173 0.0
C21 C 0.43064 0.62952 0.46083 0.0
O22 O 0.45093 0.66939 0.4706 0.0
C23 C 0.4491 0.53497 0.56554 0.0
O24 O 0.47047 0.5739 0.55322 0.0
O25 O 0.41523 0.51177 0.44281 0.0
C26 C 0.80984 0.33484 0.76303 0.0
O27 O 0.81522 0.36046 0.72889 0.0
O28 O 0.93102 0.3938 0.83629 0.0
Zn29 Zn 0.89797 0.38027 0.7798 0.0
O30 O 0.89876 0.43598 0.75512 0.0
C31 C 0.92275 0.36213 0.69392 0.0
O32 O 0.90217 0.3871 0.68258 0.0
O33 O 0.84011 0.33916 0.78966 0.0
C34 C 0.87369 0.45578 0.76236 0.0
O35 O 0.84118 0.4393 0.78869 0.0
C36 C 0.91773 0.41062 0.86807 0.0
O37 O 0.87872 0.40969 0.86679 0.0
O38 O 0.92603 0.35444 0.73489 0.0
C39 C 0.59636 0.86319 0.17134 0.0
O40 O 0.58256 0.8918 0.18819 0.0
O41 O 0.5711 0.94688 0.12162 0.0
Zn42 Zn 0.59128 0.9049 0.08973 0.0
O43 O 0.54128 0.86936 0.05423 0.0
C44 C 0.65007 0.97564 0.04434 0.0
O45 O 0.64527 -0.00398 0.07998 0.0
O46 O 0.60679 0.86567 0.13056 0.0
C47 C 0.54365 0.85692 0.01476 0.0
O48 O 0.58075 0.86493 0.99641 0.0
C49 C 0.53297 0.93592 0.13406 0.0
O50 O 0.50885 0.89601 0.13089 0.0
O51 O 0.6348 0.93552 0.04426 0.0
C52 C 0.67697 0.50337 0.4875 0.0
O53 O 0.65035 0.52183 0.49945 0.0
O54 O 0.57833 0.45157 0.5335 0.0
Zn55 Zn 0.60029 0.43592 0.47661 0.0
O56 O 0.5822 0.37221 0.4716 0.0
C57 C 0.56237 0.49059 0.43329 0.0
O58 O 0.56081 0.50372 0.47411 0.0
O59 O 0.66301 0.46456 0.47666 0.0
C60 C 0.57501 0.34876 0.43717 0.0
O61 O 0.56002 0.30756 0.4425 0.0
C62 C 0.54229 0.4308 0.54914 0.0
O63 O 0.52142 0.39348 0.53218 0.0
O64 O 0.57695 0.46112 0.42625 0.0
C65 C 0.1592 0.63969 0.77732 0.0
O66 O 0.15271 0.6171 0.7407 0.0
O67 O 0.03735 0.57696 0.84835 0.0
Zn68 Zn 0.07089 0.59507 0.79255 0.0
O69 O 0.06919 0.54152 0.76175 0.0
C70 C 0.04779 0.62181 0.70991 0.0
O71 O 0.06834 0.59785 0.69533 0.0
O72 O 0.12931 0.63395 0.80485 0.0
C73 C 0.09313 0.52017 0.76715 0.0
O74 O 0.12453 0.53326 0.7954 0.0
C75 C 0.05 0.55706 0.87768 0.0
O76 O 0.08911 0.55837 0.87591 0.0
O77 O 0.04388 0.62556 0.75163 0.0
C78 C 0.85539 0.59165 0.49796 0.0
O79 O 0.88201 0.58363 0.47082 0.0
O80 O 0.95992 0.59712 0.52423 0.0
Zn81 Zn 0.9278 0.62861 0.55672 0.0
O82 O 0.9241 0.60592 0.61905 0.0
C83 C 0.98339 0.71241 0.58371 0.0
O84 O -0.00329 0.75388 0.58428 0.0
O85 O 0.86865 0.61174 0.53383 0.0
C86 C 0.89088 0.59296 0.64246 0.0
O87 O 0.85682 0.59898 0.62822 0.0
C88 C 0.94367 0.55705 0.52693 0.0
O89 O 0.90668 0.54019 0.54588 0.0
O90 O 0.95576 0.69229 0.5555 0.0
C91 C 0.3119 0.78252 0.80095 0.0
O92 O 0.34875 0.78193 0.78833 0.0
O93 O 0.3864 0.90666 0.79718 0.0
Zn94 Zn 0.35785 0.86309 0.84348 0.0
O95 O 0.40169 0.84363 0.87116 0.0
C96 C 0.32628 0.92321 0.88887 0.0
O97 O 0.32724 0.94028 0.84944 0.0
O98 O 0.3095 0.81419 0.82201 0.0
C99 C 0.39577 0.8274 0.90978 0.0
O100 O 0.35909 0.81973 0.92904 0.0
C101 C 0.41867 0.90466 0.77718 0.0
O102 O 0.42833 0.87041 0.78165 0.0
O103 O 0.33713 0.89097 0.89286 0.0
C104 C 0.45473 0.31048 0.21813 0.0
O105 O 0.43464 0.33663 0.20984 0.0
O106 O 0.50182 0.41327 0.1796 0.0
Zn107 Zn 0.52276 0.388 0.23062 0.0
O108 O 0.58632 0.40619 0.22712 0.0
C109 C 0.48242 0.39165 0.31601 0.0
O110 O 0.47294 0.3505 0.31731 0.0
O111 O 0.49352 0.32523 0.22809 0.0
C112 C 0.61347 0.41001 0.25756 0.0
O113 O 0.65353 0.42655 0.24734 0.0
C114 C 0.52471 0.44261 0.15462 0.0
O115 O 0.56577 0.45377 0.15742 0.0
O116 O 0.50417 0.41285 0.28405 0.0
C117 C 0.12982 0.41231 0.49588 0.0
O118 O 0.10863 0.42775 0.46857 0.0
O119 O 0.02215 0.40711 0.51228 0.0
Zn120 Zn 0.04976 0.37046 0.54294 0.0
O121 O 0.04844 0.38593 0.60743 0.0
C122 C -0.00948 0.28498 0.55702 0.0
O123 O 0.97604 0.24381 0.55158 0.0
O124 O 0.11063 0.3871 0.52654 0.0
C125 C 0.07935 0.39428 0.634 0.0
O126 O 0.11347 0.38744 0.62132 0.0
C127 C 0.03834 0.44638 0.52099 0.0
O128 O 0.07335 0.45997 0.54412 0.0
O129 O 0.02031 0.30778 0.53249 0.0
C130 C 0.65785 0.19095 0.78511 0.0
O131 O 0.62073 0.19451 0.78064 0.0
O132 O 0.58199 0.06376 0.78654 0.0
Zn133 Zn 0.61329 0.11078 0.82821 0.0
O134 O 0.5714 0.13291 0.85614 0.0
C135 C 0.64762 0.05448 0.87692 0.0
O136 O 0.64482 0.03433 0.839 0.0
O137 O 0.66073 0.15741 0.8015 0.0
C138 C 0.57989 0.15254 0.89293 0.0
O139 O 0.61774 0.16171 0.90976 0.0
C140 C 0.54852 0.06429 0.768 0.0
O141 O 0.53919 0.09888 0.7704 0.0
O142 O 0.6366 0.08676 0.87877 0.0
C143 C 0.5328 0.69262 0.23117 0.0
O144 O 0.55086 0.6649 0.22196 0.0
O145 O 0.47729 0.59315 0.18647 0.0
Zn146 Zn 0.46281 0.61724 0.24263 0.0
O147 O 0.39974 0.60271 0.24518 0.0
C148 C 0.50905 0.57124 0.28748 0.0
O149 O 0.52231 0.56838 0.247 0.0
O150 O 0.49413 0.67963 0.24174 0.0
C151 C 0.37578 0.5952 0.27907 0.0
O152 O 0.33493 0.58218 0.27296 0.0
C153 C 0.45148 0.56367 0.16386 0.0
O154 O 0.41119 0.55205 0.17303 0.0
O155 O 0.48345 0.5907 0.29391 0.0
C156 C 0.5168 0.15929 0.99403 0.0
C157 C 0.47591 0.14645 0.97643 0.0
H158 H 0.58203 0.17221 0.98117 0.0
C159 C 0.47047 0.14209 0.93014 0.0
H160 H 0.52202 0.16334 0.02954 0.0
C161 C 0.50487 0.14685 0.90241 0.0
C162 C 0.54534 0.15648 0.92044 0.0
H163 H 0.43939 0.13242 0.91554 0.0
H164 H 0.4994 0.14087 0.86714 0.0
C165 C 0.55123 0.16449 0.96626 0.0
C166 C 0.37022 0.57459 0.3591 0.0
C167 C 0.39269 0.60103 0.32475 0.0
H168 H 0.36461 0.5629 0.42895 0.0
C169 C 0.4291 0.63522 0.33524 0.0
H170 H 0.34174 0.54821 0.35196 0.0
C171 C 0.44233 0.64334 0.37939 0.0
C172 C 0.41935 0.61743 0.41396 0.0
H173 H 0.44631 0.65675 0.30963 0.0
H174 H 0.46997 0.67063 0.38657 0.0
C175 C 0.38353 0.58266 0.40322 0.0
C176 C 0.85046 0.5438 0.70244 0.0
C177 C 0.88846 0.56343 0.67958 0.0
H178 H 0.81596 0.49429 0.74706 0.0
C179 C 0.92285 0.5506 0.68864 0.0
H180 H 0.82345 0.55309 0.69637 0.0
C181 C 0.91842 0.5168 0.7172 0.0
C182 C 0.87964 0.4953 0.73772 0.0
H183 H 0.95266 0.56513 0.67188 0.0
H184 H 0.94505 0.50656 0.72194 0.0
C185 C 0.84614 0.5101 0.73145 0.0
C186 C 0.50755 0.84137 0.94098 0.0
C187 C 0.50507 0.84076 0.98763 0.0
H188 H 0.47462 0.83733 0.87951 0.0
C189 C 0.46539 0.82931 0.008 0.0
H190 H 0.53765 0.84989 0.92428 0.0
C191 C 0.42923 0.82175 0.98234 0.0
C192 C 0.43214 0.82597 0.93586 0.0
H193 H 0.46243 0.82813 0.0439 0.0
H194 H 0.39941 0.81516 -0.00081 0.0
C195 C 0.47142 0.83425 0.91532 0.0
C196 C 0.55859 0.34402 0.35599 0.0
C197 C 0.58285 0.36649 0.39172 0.0
H198 H 0.54968 0.34009 0.28545 0.0
C199 C 0.6165 0.40394 0.38293 0.0
H200 H 0.53288 0.31458 0.36163 0.0
C201 C 0.6256 0.4188 0.33937 0.0
C202 C 0.60121 0.39639 0.30371 0.0
H203 H 0.63675 0.42093 0.40942 0.0
H204 H 0.65219 0.44748 0.33349 0.0
C205 C 0.56772 0.35886 0.31241 0.0
C206 C 0.04633 0.43419 0.68238 0.0
C207 C 0.0801 0.42025 0.67387 0.0
H208 H 0.02401 0.47661 0.71858 0.0
C209 C 0.11643 0.43581 0.70031 0.0
H210 H 0.01778 0.42276 0.66285 0.0
C211 C 0.11999 0.46686 0.73249 0.0
C212 C 0.08739 0.48301 0.7385 0.0
H213 H 0.14293 0.42557 0.69474 0.0
H214 H 0.14906 0.47967 0.75098 0.0
C215 C 0.04999 0.46532 0.7142 0.0
C216 C 0.31598 0.9469 0.01013 0.0
C217 C 0.32155 0.99012 0.00865 0.0
H218 H 0.31304 0.89178 0.97327 0.0
C219 C 0.32166 0.00922 0.96701 0.0
H220 H 0.31538 0.93106 0.04158 0.0
C221 C 0.32025 0.98658 0.92771 0.0
C222 C 0.31888 0.94453 0.92937 0.0
H223 H 0.32558 0.0424 0.96467 0.0
H224 H 0.32295 0.00287 0.89621 0.0
C225 C 0.31485 0.92439 0.9709 0.0
C226 C 0.45328 0.44711 0.33825 0.0
C227 C 0.46584 0.41301 0.35001 0.0
H228 H 0.42761 0.49344 0.36045 0.0
C229 C 0.46184 0.39916 0.39424 0.0
H230 H 0.45562 0.45798 0.30412 0.0
C231 C 0.44622 0.41961 0.42645 0.0
C232 C 0.4339 0.45399 0.41488 0.0
H233 H 0.47143 0.37297 0.40403 0.0
H234 H 0.44418 0.40867 0.46054 0.0
C235 C 0.43724 0.46733 0.37039 0.0
C236 C 0.95806 0.33684 0.58147 0.0
C237 C 0.97316 0.30432 0.59209 0.0
H238 H 0.93048 0.38084 0.60544 0.0
C239 C 0.97148 0.29049 0.63624 0.0
H240 H 0.95833 0.34729 0.54741 0.0
C241 C 0.9557 0.30969 0.66964 0.0
C242 C 0.94063 0.34244 0.65914 0.0
H243 H 0.98293 0.26528 0.64495 0.0
H244 H 0.95494 0.29862 0.70354 0.0
C245 C 0.94189 0.35574 0.61467 0.0
C246 C 0.66553 0.04136 -0.00092 0.0
C247 C 0.66037 -0.00174 0.0013 0.0
H248 H 0.66557 0.09297 0.95788 0.0
C249 C 0.65788 0.9757 0.96139 0.0
H250 H 0.66791 0.05982 0.02909 0.0
C251 C 0.6566 -0.00518 0.9204 0.0
C252 C 0.6576 0.03675 0.91864 0.0
H253 H 0.65418 0.94251 0.96187 0.0
H254 H 0.65213 0.97592 0.89046 0.0
C255 C 0.66396 0.06035 0.9582 0.0
C256 C 0.51528 0.55971 0.36907 0.0
C257 C 0.52343 0.55138 0.3249 0.0
H258 H 0.52106 0.54685 0.43792 0.0
C259 C 0.54503 0.52332 0.31664 0.0
H260 H 0.49875 0.58119 0.3765 0.0
C261 C 0.55745 0.50331 0.3518 0.0
C262 C 0.54896 0.51133 0.39594 0.0
H263 H 0.55168 0.51614 0.28296 0.0
H264 H 0.57362 0.48151 0.34434 0.0
C265 C 0.5281 0.54002 0.40424 0.0
C266 C 0.01377 0.6752 0.69254 0.0
C267 C 0.03067 0.64488 0.67791 0.0
H268 H 0.98583 0.72089 0.6737 0.0
C269 C 0.03201 0.63732 0.63203 0.0
H270 H 0.01248 0.68187 0.72764 0.0
C271 C 0.01672 0.65952 0.60148 0.0
C272 C -0.0003 0.68952 0.61617 0.0
H273 H 0.04496 0.61432 0.61959 0.0
H274 H 0.01879 0.65375 0.56631 0.0
C275 C -0.00128 0.69763 0.66181 0.0
C276 C 0.53921 0.01159 0.14289 0.0
C277 C 0.51413 0.96854 0.14313 0.0
H278 H 0.54082 0.07539 0.13942 0.0
C279 C 0.47026 0.95723 0.14637 0.0
H280 H 0.57313 0.02136 0.14084 0.0
C281 C 0.4517 0.98823 0.14533 0.0
C282 C 0.47668 0.03111 0.14129 0.0
H283 H 0.45004 0.92435 0.147 0.0
H284 H 0.41772 0.97837 0.14525 0.0
C285 C 0.52066 0.04259 0.1421 0.0
C286 C 0.4755 0.43706 0.57734 0.0
C287 C 0.51938 0.45453 0.57291 0.0
H288 H 0.41802 0.44948 0.58066 0.0
C289 C 0.53956 0.49792 0.58143 0.0
H290 H 0.459 0.40359 0.57222 0.0
C291 C 0.51603 0.52439 0.58561 0.0
C292 C 0.47207 0.5077 0.58172 0.0
H293 H 0.57347 0.51225 0.57964 0.0
H294 H 0.53252 0.55822 0.58673 0.0
C295 C 0.45197 0.46351 0.58211 0.0
C296 C 0.97662 0.52044 0.90304 0.0
C297 C 0.01774 0.52034 0.89826 0.0
H298 H 0.91122 0.48401 0.89893 0.0
C299 C 0.02454 0.4816 0.89981 0.0
H300 H 0.97061 0.54994 0.90272 0.0
C301 C -0.00951 0.44375 0.89678 0.0
C302 C 0.94948 0.44443 0.89308 0.0
H303 H 0.05595 0.48047 0.89683 0.0
H304 H -0.00341 0.41462 0.8917 0.0
C305 C 0.94254 0.48253 0.90089 0.0
C306 C 0.94777 0.48609 0.51061 0.0
C307 C 0.96825 0.52985 0.51602 0.0
H308 H 0.95406 0.42522 0.50689 0.0
C309 C 0.01236 0.5463 0.51669 0.0
H310 H 0.91377 0.47259 0.50981 0.0
C311 C 0.0354 0.51912 0.51553 0.0
C312 C 0.01478 0.47513 0.51296 0.0
H313 H 0.02898 0.57986 0.52102 0.0
H314 H 0.06928 0.53243 0.51869 0.0
C315 C 0.97084 0.45898 0.50872 0.0
C316 C 0.49284 0.94692 0.75685 0.0
C317 C 0.45071 0.9442 0.761 0.0
H318 H 0.5573 0.98756 0.75541 0.0
C319 C 0.44104 0.98132 0.7574 0.0
H320 H 0.50137 0.9189 0.75901 0.0
C321 C 0.47317 0.02071 0.75484 0.0
C322 C 0.5155 0.02365 0.75639 0.0
H323 H 0.40883 0.98021 0.75988 0.0
H324 H 0.46474 0.04884 0.75555 0.0
C325 C 0.52498 0.98633 0.75484 0.0
C326 C 0.46165 0.46053 0.13501 0.0
C327 C 0.50567 0.47232 0.13626 0.0
H328 H 0.40919 0.4812 0.14156 0.0
C329 C 0.53038 0.51515 0.1313 0.0
H330 H 0.44176 0.42761 0.1376 0.0
C331 C 0.51167 0.54595 0.13371 0.0
C332 C 0.46814 0.53414 0.1409 0.0
H333 H 0.56437 0.52524 0.1312 0.0
H334 H 0.53181 0.57885 0.13525 0.0
C335 C 0.44293 0.49133 0.13717 0.0
C336 C 0.3995 0.24951 0.18224 0.0
C337 C 0.43397 0.26472 0.21117 0.0
H338 H 0.35971 0.19661 0.14499 0.0
C339 C 0.45075 0.23615 0.23033 0.0
H340 H 0.38581 0.27086 0.16719 0.0
C341 C 0.43525 0.19356 0.21837 0.0
C342 C 0.40331 0.17903 0.18633 0.0
H343 H 0.47698 0.24702 0.25323 0.0
H344 H 0.45037 0.17276 0.23192 0.0
C345 C 0.38452 0.20703 0.16958 0.0
C346 C 0.19821 0.40843 0.52157 0.0
C347 C 0.17619 0.4283 0.49547 0.0
H348 H 0.25778 0.40967 0.54574 0.0
C349 C 0.19882 0.46526 0.47208 0.0
H350 H 0.18168 0.37988 0.53998 0.0
C351 C 0.24256 0.48268 0.47581 0.0
C352 C 0.26442 0.46318 0.50267 0.0
H353 H 0.18269 0.4814 0.45188 0.0
H354 H 0.25919 0.51149 0.45787 0.0
C355 C 0.24185 0.42559 0.52499 0.0
C356 C 0.73423 0.22829 0.79754 0.0
C357 C 0.69658 0.22752 0.77752 0.0
H358 H 0.79906 0.26302 0.80929 0.0
C359 C 0.69625 0.26257 0.75253 0.0
H360 H 0.7355 0.20196 0.81734 0.0
C361 C 0.73313 0.29768 0.74751 0.0
C362 C 0.77052 0.29852 0.76822 0.0
H363 H 0.66761 0.26281 0.73686 0.0
H364 H 0.73228 0.3243 0.72791 0.0
C365 C 0.77064 0.2635 0.79327 0.0
C366 C 0.58917 0.75109 0.19322 0.0
C367 C 0.55519 0.73796 0.22303 0.0
H368 H 0.62931 0.80173 0.15344 0.0
C369 C 0.54012 0.76817 0.24142 0.0
H370 H 0.60158 0.72848 0.17873 0.0
C371 C 0.55657 0.81024 0.22765 0.0
C372 C 0.58776 0.82256 0.19457 0.0
H373 H 0.5143 0.75894 0.26494 0.0
H374 H 0.54259 0.83226 0.24052 0.0
C375 C 0.60509 0.79302 0.17879 0.0
C376 C 0.78178 0.58688 0.51388 0.0
C377 C 0.80973 0.57163 0.49113 0.0
H378 H 0.71781 0.57738 0.5302 0.0
C379 C 0.7936 0.53478 0.46535 0.0
H380 H 0.79338 0.61523 0.53401 0.0
C381 C 0.75034 0.51262 0.46388 0.0
C382 C 0.7225 0.52738 0.48752 0.0
H383 H 0.81445 0.52213 0.44773 0.0
H384 H 0.73874 0.48376 0.44457 0.0
C385 C 0.73855 0.56518 0.51176 0.0
C386 C 0.20129 0.70617 0.81579 0.0
C387 C 0.19921 0.67485 0.78424 0.0
H388 H 0.23818 0.76479 0.8452 0.0
C389 C 0.23484 0.67878 0.75827 0.0
H390 H 0.17436 0.70421 0.8362 0.0
C391 C 0.27187 0.71363 0.76373 0.0
C392 C 0.27345 0.74534 0.79467 0.0
H393 H 0.23408 0.65506 0.73369 0.0
H394 H 0.29894 0.71606 0.74336 0.0
C395 C 0.23784 0.74113 0.8207 0.0
loop_
_geom_bond_atom_site_label_1
_geom_bond_atom_site_label_2
_geom_bond_distance
_geom_bond_site_symmetry_2
_ccdc_geom_bond_type
C0 O1 1.160 . S
C0 O7 1.185 . S
O1 C0 1.160 . S
O2 Zn3 1.899 . S
O2 C10 1.284 . S
Zn3 O2 1.899 . S
Zn3 O4 2.032 . S
Zn3 O7 2.086 . S
Zn3 O12 1.977 . S
O4 Zn3 2.032 . S
O4 C8 1.278 . S
C5 O6 1.203 1_545 S
C5 O12 1.267 . S
O6 C5 1.203 1_565 S
O7 C0 1.185 . S
O7 Zn3 2.086 . S
C8 O4 1.278 . S
C8 O9 1.211 1_554 S
O9 C8 1.211 1_556 S
C10 O2 1.284 . S
C10 O11 1.273 . S
O11 C10 1.273 . S
O12 Zn3 1.977 . S
O12 C5 1.267 . S
C13 O14 1.160 . S
C13 O20 1.185 . S
O14 C13 1.160 . S
O15 Zn16 1.899 . S
O15 C23 1.284 . S
Zn16 O15 1.899 . S
Zn16 O17 2.032 . S
Zn16 O20 2.086 . S
Zn16 O25 1.977 . S
O17 Zn16 2.032 . S
O17 C21 1.278 . S
C18 O19 1.203 . S
C18 O25 1.267 . S
O19 C18 1.203 . S
O20 C13 1.185 . S
O20 Zn16 2.086 . S
C21 O17 1.278 . S
C21 O22 1.211 . S
O22 C21 1.211 . S
C23 O15 1.284 . S
C23 O24 1.273 . S
O24 C23 1.273 . S
O25 Zn16 1.977 . S
O25 C18 1.267 . S
C26 O27 1.160 . S
C26 O33 1.185 . S
O27 C26 1.160 . S
O28 Zn29 1.899 . S
O28 C36 1.284 . S
Zn29 O28 1.899 . S
Zn29 O30 2.032 . S
Zn29 O33 2.086 . S
Zn29 O38 1.977 . S
O30 Zn29 2.032 . S
O30 C34 1.278 . S
C31 O32 1.203 . S
C31 O38 1.267 . S
O32 C31 1.203 . S
O33 C26 1.185 . S
O33 Zn29 2.086 . S
C34 O30 1.278 . S
C34 O35 1.211 . S
O35 C34 1.211 . S
C36 O28 1.284 . S
C36 O37 1.273 . S
O37 C36 1.273 . S
O38 Zn29 1.977 . S
O38 C31 1.267 . S
C39 O40 1.160 . S
C39 O46 1.185 . S
O40 C39 1.160 . S
O41 Zn42 1.899 . S
O41 C49 1.284 . S
Zn42 O41 1.899 . S
Zn42 O43 2.032 . S
Zn42 O46 2.086 . S
Zn42 O51 1.977 . S
O43 Zn42 2.032 . S
O43 C47 1.278 . S
C44 O45 1.203 1_565 S
C44 O51 1.267 . S
O45 C44 1.203 1_545 S
O46 C39 1.185 . S
O46 Zn42 2.086 . S
C47 O43 1.278 . S
C47 O48 1.211 1_554 S
O48 C47 1.211 1_556 S
C49 O41 1.284 . S
C49 O50 1.273 . S
O50 C49 1.273 . S
O51 Zn42 1.977 . S
O51 C44 1.267 . S
C52 O53 1.160 . S
C52 O59 1.185 . S
O53 C52 1.160 . S
O54 Zn55 1.899 . S
O54 C62 1.284 . S
Zn55 O54 1.899 . S
Zn55 O56 2.032 . S
Zn55 O59 2.086 . S
Zn55 O64 1.977 . S
O56 Zn55 2.032 . S
O56 C60 1.278 . S
C57 O58 1.203 . S
C57 O64 1.267 . S
O58 C57 1.203 . S
O59 C52 1.185 . S
O59 Zn55 2.086 . S
C60 O56 1.278 . S
C60 O61 1.211 . S
O61 C60 1.211 . S
C62 O54 1.284 . S
C62 O63 1.273 . S
O63 C62 1.273 . S
O64 Zn55 1.977 . S
O64 C57 1.267 . S
C65 O66 1.160 . S
C65 O72 1.185 . S
O66 C65 1.160 . S
O67 Zn68 1.899 . S
O67 C75 1.284 . S
Zn68 O67 1.899 . S
Zn68 O69 2.032 . S
Zn68 O72 2.086 . S
Zn68 O77 1.977 . S
O69 Zn68 2.032 . S
O69 C73 1.278 . S
C70 O71 1.203 . S
C70 O77 1.267 . S
O71 C70 1.203 . S
O72 C65 1.185 . S
O72 Zn68 2.086 . S
C73 O69 1.278 . S
C73 O74 1.211 . S
O74 C73 1.211 . S
C75 O67 1.284 . S
C75 O76 1.273 . S
O76 C75 1.273 . S
O77 Zn68 1.977 . S
O77 C70 1.267 . S
C78 O79 1.160 . S
C78 O85 1.185 . S
O79 C78 1.160 . S
O80 Zn81 1.899 . S
O80 C88 1.284 . S
Zn81 O80 1.899 . S
Zn81 O82 2.032 . S
Zn81 O85 2.086 . S
Zn81 O90 1.977 . S
O82 Zn81 2.032 . S
O82 C86 1.278 . S
C83 O84 1.194 1_655 S
C83 O90 1.267 . S
O84 C83 1.194 1_455 S
O85 C78 1.185 . S
O85 Zn81 2.086 . S
C86 O82 1.278 . S
C86 O87 1.211 . S
O87 C86 1.211 . S
C88 O80 1.284 . S
C88 O89 1.273 . S
O89 C88 1.273 . S
O90 Zn81 1.977 . S
O90 C83 1.267 . S
C91 O92 1.160 . S
C91 O98 1.185 . S
O92 C91 1.160 . S
O93 Zn94 1.899 . S
O93 C101 1.284 . S
Zn94 O93 1.899 . S
Zn94 O95 2.032 . S
Zn94 O98 2.086 . S
Zn94 O103 1.977 . S
O95 Zn94 2.032 . S
O95 C99 1.278 . S
C96 O97 1.203 . S
C96 O103 1.267 . S
O97 C96 1.203 . S
O98 C91 1.185 . S
O98 Zn94 2.086 . S
C99 O95 1.278 . S
C99 O100 1.211 . S
O100 C99 1.211 . S
C101 O93 1.284 . S
C101 O102 1.273 . S
O102 C101 1.273 . S
O103 Zn94 1.977 . S
O103 C96 1.267 . S
C104 O105 1.160 . S
C104 O111 1.185 . S
O105 C104 1.160 . S
O106 Zn107 1.899 . S
O106 C114 1.284 . S
Zn107 O106 1.899 . S
Zn107 O108 2.032 . S
Zn107 O111 2.086 . S
Zn107 O116 1.977 . S
O108 Zn107 2.032 . S
O108 C112 1.278 . S
C109 O110 1.203 . S
C109 O116 1.267 . S
O110 C109 1.203 . S
O111 C104 1.185 . S
O111 Zn107 2.086 . S
C112 O108 1.278 . S
C112 O113 1.211 . S
O113 C112 1.211 . S
C114 O106 1.284 . S
C114 O115 1.273 . S
O115 C114 1.273 . S
O116 Zn107 1.977 . S
O116 C109 1.267 . S
C117 O118 1.160 . S
C117 O124 1.185 . S
O118 C117 1.160 . S
O119 Zn120 1.899 . S
O119 C127 1.284 . S
Zn120 O119 1.899 . S
Zn120 O121 2.032 . S
Zn120 O124 2.086 . S
Zn120 O129 1.977 . S
O121 Zn120 2.032 . S
O121 C125 1.278 . S
C122 O123 1.194 1_455 S
C122 O129 1.267 . S
O123 C122 1.194 1_655 S
O124 C117 1.185 . S
O124 Zn120 2.086 . S
C125 O121 1.278 . S
C125 O126 1.211 . S
O126 C125 1.211 . S
C127 O119 1.284 . S
C127 O128 1.273 . S
O128 C127 1.273 . S
O129 Zn120 1.977 . S
O129 C122 1.267 . S
C130 O131 1.160 . S
C130 O137 1.185 . S
O131 C130 1.160 . S
O132 Zn133 1.899 . S
O132 C140 1.284 . S
Zn133 O132 1.899 . S
Zn133 O134 2.032 . S
Zn133 O137 2.086 . S
Zn133 O142 1.977 . S
O134 Zn133 2.032 . S
O134 C138 1.278 . S
C135 O136 1.203 . S
C135 O142 1.267 . S
O136 C135 1.203 . S
O137 C130 1.185 . S
O137 Zn133 2.086 . S
C138 O134 1.278 . S
C138 O139 1.211 . S
O139 C138 1.211 . S
C140 O132 1.284 . S
C140 O141 1.273 . S
O141 C140 1.273 . S
O142 Zn133 1.977 . S
O142 C135 1.267 . S
C143 O144 1.160 . S
C143 O150 1.185 . S
O144 C143 1.160 . S
O145 Zn146 1.899 . S
O145 C153 1.284 . S
Zn146 O145 1.899 . S
Zn146 O147 2.032 . S
Zn146 O150 2.086 . S
Zn146 O155 1.977 . S
O147 Zn146 2.032 . S
O147 C151 1.278 . S
C148 O149 1.203 . S
C148 O155 1.267 . S
O149 C148 1.203 . S
O150 C143 1.185 . S
O150 Zn146 2.086 . S
C151 O147 1.278 . S
C151 O152 1.211 . S
O152 C151 1.211 . S
C153 O145 1.284 . S
C153 O154 1.273 . S
O154 C153 1.273 . S
O155 Zn146 1.977 . S
O155 C148 1.267 . S
C156 C157 1.387 . S
C156 H160 0.950 . S
C156 C165 1.390 . S
C157 C156 1.387 . S
C157 C159 1.387 . S
H158 C165 0.950 . S
C159 C157 1.387 . S
C159 C161 1.390 . S
C159 H163 0.950 . S
H160 C156 0.950 . S
C161 C159 1.390 . S
C161 C162 1.387 . S
C161 H164 0.950 . S
C162 C161 1.387 . S
C162 C165 1.387 . S
H163 C159 0.950 . S
H164 C161 0.950 . S
C165 C156 1.390 . S
C165 H158 0.950 . S
C165 C162 1.387 . S
C166 C167 1.387 . S
C166 H170 0.950 . S
C166 C175 1.390 . S
C167 C166 1.387 . S
C167 C169 1.387 . S
H168 C175 0.950 . S
C169 C167 1.387 . S
C169 C171 1.390 . S
C169 H173 0.950 . S
H170 C166 0.950 . S
C171 C169 1.390 . S
C171 C172 1.387 . S
C171 H174 0.950 . S
C172 C171 1.387 . S
C172 C175 1.387 . S
H173 C169 0.950 . S
H174 C171 0.950 . S
C175 C166 1.390 . S
C175 H168 0.950 . S
C175 C172 1.387 . S
C176 C177 1.387 . S
C176 H180 0.950 . S
C176 C185 1.390 . S
C177 C176 1.387 . S
C177 C179 1.387 . S
H178 C185 0.950 . S
C179 C177 1.387 . S
C179 C181 1.390 . S
C179 H183 0.950 . S
H180 C176 0.950 . S
C181 C179 1.390 . S
C181 C182 1.387 . S
C181 H184 0.950 . S
C182 C181 1.387 . S
C182 C185 1.387 . S
H183 C179 0.950 . S
H184 C181 0.950 . S
C185 C176 1.390 . S
C185 H178 0.950 . S
C185 C182 1.387 . S
C186 C187 1.387 . S
C186 H190 0.950 . S
C186 C195 1.390 . S
C187 C186 1.387 . S
C187 C189 1.387 . S
H188 C195 0.950 . S
C189 C187 1.387 . S
C189 C191 1.390 . S
C189 H193 0.950 1_556 S
H190 C186 0.950 . S
C191 C189 1.390 . S
C191 C192 1.387 . S
C191 H194 0.950 . S
C192 C191 1.387 . S
C192 C195 1.387 . S
H193 C189 0.950 1_554 S
H194 C191 0.950 . S
C195 C186 1.390 . S
C195 H188 0.950 . S
C195 C192 1.387 . S
C196 C197 1.387 . S
C196 H200 0.950 . S
C196 C205 1.390 . S
C197 C196 1.387 . S
C197 C199 1.387 . S
H198 C205 0.950 . S
C199 C197 1.387 . S
C199 C201 1.390 . S
C199 H203 0.950 . S
H200 C196 0.950 . S
C201 C199 1.390 . S
C201 C202 1.387 . S
C201 H204 0.950 . S
C202 C201 1.387 . S
C202 C205 1.387 . S
H203 C199 0.950 . S
H204 C201 0.950 . S
C205 C196 1.390 . S
C205 H198 0.950 . S
C205 C202 1.387 . S
C206 C207 1.387 . S
C206 H210 0.950 . S
C206 C215 1.390 . S
C207 C206 1.387 . S
C207 C209 1.387 . S
H208 C215 0.950 . S
C209 C207 1.387 . S
C209 C211 1.390 . S
C209 H213 0.950 . S
H210 C206 0.950 . S
C211 C209 1.390 . S
C211 C212 1.387 . S
C211 H214 0.950 . S
C212 C211 1.387 . S
C212 C215 1.387 . S
H213 C209 0.950 . S
H214 C211 0.950 . S
C215 C206 1.390 . S
C215 H208 0.950 . S
C215 C212 1.387 . S
C216 C217 1.387 1_565 S
C216 H220 0.950 . S
C216 C225 1.390 1_554 S
C217 C216 1.387 1_545 S
C217 C219 1.387 1_554 S
H218 C225 0.950 . S
C219 C217 1.387 1_556 S
C219 C221 1.390 . S
C219 H223 0.950 . S
H220 C216 0.950 . S
C221 C219 1.390 . S
C221 C222 1.387 1_545 S
C221 H224 0.950 . S
C222 C221 1.387 1_565 S
C222 C225 1.387 . S
H223 C219 0.950 . S
H224 C221 0.950 . S
C225 C216 1.390 1_556 S
C225 H218 0.950 . S
C225 C222 1.387 . S
C226 C227 1.387 . S
C226 H230 0.950 . S
C226 C235 1.390 . S
C227 C226 1.387 . S
C227 C229 1.387 . S
H228 C235 0.950 . S
C229 C227 1.387 . S
C229 C231 1.390 . S
C229 H233 0.950 . S
H230 C226 0.950 . S
C231 C229 1.390 . S
C231 C232 1.387 . S
C231 H234 0.950 . S
C232 C231 1.387 . S
C232 C235 1.387 . S
H233 C229 0.950 . S
H234 C231 0.950 . S
C235 C226 1.390 . S
C235 H228 0.950 . S
C235 C232 1.387 . S
C236 C237 1.387 . S
C236 H240 0.950 . S
C236 C245 1.390 1_455 S
C237 C236 1.387 . S
C237 C239 1.387 1_455 S
H238 C245 0.950 . S
C239 C237 1.387 1_655 S
C239 C241 1.390 . S
C239 H243 0.950 . S
H240 C236 0.950 . S
C241 C239 1.390 . S
C241 C242 1.387 . S
C241 H244 0.950 . S
C242 C241 1.387 . S
C242 C245 1.387 . S
H243 C239 0.950 . S
H244 C241 0.950 . S
C245 C236 1.390 1_655 S
C245 H238 0.950 . S
C245 C242 1.387 . S
C246 C247 1.387 1_545 S
C246 H250 0.950 . S
C246 C255 1.390 1_554 S
C247 C246 1.387 1_565 S
C247 C249 1.387 1_554 S
H248 C255 0.950 . S
C249 C247 1.387 1_556 S
C249 C251 1.390 . S
C249 H253 0.950 . S
H250 C246 0.950 . S
C251 C249 1.390 . S
C251 C252 1.387 1_565 S
C251 H254 0.950 . S
C252 C251 1.387 1_545 S
C252 C255 1.387 . S
H253 C249 0.950 . S
H254 C251 0.950 . S
C255 C246 1.390 1_556 S
C255 H248 0.950 . S
C255 C252 1.387 . S
C256 C257 1.387 . S
C256 H260 0.950 . S
C256 C265 1.390 . S
C257 C256 1.387 . S
C257 C259 1.387 . S
H258 C265 0.950 . S
C259 C257 1.387 . S
C259 C261 1.390 . S
C259 H263 0.950 . S
H260 C256 0.950 . S
C261 C259 1.390 . S
C261 C262 1.387 . S
C261 H264 0.950 . S
C262 C261 1.387 . S
C262 C265 1.387 . S
H263 C259 0.950 . S
H264 C261 0.950 . S
C265 C256 1.390 . S
C265 H258 0.950 . S
C265 C262 1.387 . S
C266 C267 1.387 . S
C266 H270 0.950 . S
C266 C275 1.390 . S
C267 C266 1.387 . S
C267 C269 1.387 . S
H268 C275 0.950 . S
C269 C267 1.387 . S
C269 C271 1.390 1_455 S
C269 H273 0.950 . S
H270 C266 0.950 . S
C271 C269 1.390 1_655 S
C271 C272 1.387 . S
C271 H274 0.950 . S
C272 C271 1.387 . S
C272 C275 1.387 1_655 S
H273 C269 0.950 . S
H274 C271 0.950 . S
C275 C266 1.390 . S
C275 H268 0.950 . S
C275 C272 1.387 1_455 S
C276 C277 1.387 . S
C276 H280 0.950 . S
C276 C285 1.390 1_565 S
C277 C276 1.387 . S
C277 C279 1.387 . S
H278 C285 0.950 . S
C279 C277 1.387 . S
C279 C281 1.390 1_565 S
C279 H283 0.950 . S
H280 C276 0.950 . S
C281 C279 1.390 1_545 S
C281 C282 1.387 . S
C281 H284 0.950 . S
C282 C281 1.387 . S
C282 C285 1.387 . S
H283 C279 0.950 . S
H284 C281 0.950 . S
C285 C276 1.390 1_545 S
C285 H278 0.950 . S
C285 C282 1.387 . S
C286 C287 1.387 . S
C286 H290 0.950 . S
C286 C295 1.390 . S
C287 C286 1.387 . S
C287 C289 1.387 . S
H288 C295 0.950 . S
C289 C287 1.387 . S
C289 C291 1.390 . S
C289 H293 0.950 . S
H290 C286 0.950 . S
C291 C289 1.390 . S
C291 C292 1.387 . S
C291 H294 0.950 . S
C292 C291 1.387 . S
C292 C295 1.387 . S
H293 C289 0.950 . S
H294 C291 0.950 . S
C295 C286 1.390 . S
C295 H288 0.950 . S
C295 C292 1.387 . S
C296 C297 1.387 . S
C296 H300 0.950 . S
C296 C305 1.390 1_455 S
C297 C296 1.387 . S
C297 C299 1.387 . S
H298 C305 0.950 . S
C299 C297 1.387 . S
C299 C301 1.390 1_455 S
C299 H303 0.950 . S
H300 C296 0.950 . S
C301 C299 1.390 1_655 S
C301 C302 1.387 . S
C301 H304 0.950 . S
C302 C301 1.387 . S
C302 C305 1.387 . S
H303 C299 0.950 . S
H304 C301 0.950 . S
C305 C296 1.390 1_655 S
C305 H298 0.950 . S
C305 C302 1.387 . S
C306 C307 1.387 . S
C306 H310 0.950 . S
C306 C315 1.390 1_655 S
C307 C306 1.387 . S
C307 C309 1.387 . S
H308 C315 0.950 . S
C309 C307 1.387 . S
C309 C311 1.390 1_655 S
C309 H313 0.950 . S
H310 C306 0.950 . S
C311 C309 1.390 1_455 S
C311 C312 1.387 . S
C311 H314 0.950 . S
C312 C311 1.387 . S
C312 C315 1.387 . S
H313 C309 0.950 . S
H314 C311 0.950 . S
C315 C306 1.390 1_455 S
C315 H308 0.950 . S
C315 C312 1.387 . S
C316 C317 1.387 . S
C316 H320 0.950 . S
C316 C325 1.390 1_565 S
C317 C316 1.387 . S
C317 C319 1.387 . S
H318 C325 0.950 . S
C319 C317 1.387 . S
C319 C321 1.390 1_565 S
C319 H323 0.950 . S
H320 C316 0.950 . S
C321 C319 1.390 1_545 S
C321 C322 1.387 . S
C321 H324 0.950 . S
C322 C321 1.387 . S
C322 C325 1.387 . S
H323 C319 0.950 . S
H324 C321 0.950 . S
C325 C316 1.390 1_545 S
C325 H318 0.950 . S
C325 C322 1.387 . S
C326 C327 1.387 . S
C326 H330 0.950 . S
C326 C335 1.390 . S
C327 C326 1.387 . S
C327 C329 1.387 . S
H328 C335 0.950 . S
C329 C327 1.387 . S
C329 C331 1.390 . S
C329 H333 0.950 . S
H330 C326 0.950 . S
C331 C329 1.390 . S
C331 C332 1.387 . S
C331 H334 0.950 . S
C332 C331 1.387 . S
C332 C335 1.387 . S
H333 C329 0.950 . S
H334 C331 0.950 . S
C335 C326 1.390 . S
C335 H328 0.950 . S
C335 C332 1.387 . S
C336 C337 1.387 . S
C336 H340 0.950 . S
C336 C345 1.390 . S
C337 C336 1.387 . S
C337 C339 1.387 . S
H338 C345 0.950 . S
C339 C337 1.387 . S
C339 C341 1.390 . S
C339 H343 0.950 . S
H340 C336 0.950 . S
C341 C339 1.390 . S
C341 C342 1.387 . S
C341 H344 0.950 . S
C342 C341 1.387 . S
C342 C345 1.387 . S
H343 C339 0.950 . S
H344 C341 0.950 . S
C345 C336 1.390 . S
C345 H338 0.950 . S
C345 C342 1.387 . S
C346 C347 1.387 . S
C346 H350 0.950 . S
C346 C355 1.390 . S
C347 C346 1.387 . S
C347 C349 1.387 . S
H348 C355 0.950 . S
C349 C347 1.387 . S
C349 C351 1.390 . S
C349 H353 0.950 . S
H350 C346 0.950 . S
C351 C349 1.390 . S
C351 C352 1.387 . S
C351 H354 0.950 . S
C352 C351 1.387 . S
C352 C355 1.387 . S
H353 C349 0.950 . S
H354 C351 0.950 . S
C355 C346 1.390 . S
C355 H348 0.950 . S
C355 C352 1.387 . S
C356 C357 1.387 . S
C356 H360 0.950 . S
C356 C365 1.390 . S
C357 C356 1.387 . S
C357 C359 1.387 . S
H358 C365 0.950 . S
C359 C357 1.387 . S
C359 C361 1.390 . S
C359 H363 0.950 . S
H360 C356 0.950 . S
C361 C359 1.390 . S
C361 C362 1.387 . S
C361 H364 0.950 . S
C362 C361 1.387 . S
C362 C365 1.387 . S
H363 C359 0.950 . S
H364 C361 0.950 . S
C365 C356 1.390 . S
C365 H358 0.950 . S
C365 C362 1.387 . S
C366 C367 1.387 . S
C366 H370 0.950 . S
C366 C375 1.390 . S
C367 C366 1.387 . S
C367 C369 1.387 . S
H368 C375 0.950 . S
C369 C367 1.387 . S
C369 C371 1.390 . S
C369 H373 0.950 . S
H370 C366 0.950 . S
C371 C369 1.390 . S
C371 C372 1.387 . S
C371 H374 0.950 . S
C372 C371 1.387 . S
C372 C375 1.387 . S
H373 C369 0.950 . S
H374 C371 0.950 . S
C375 C366 1.390 . S
C375 H368 0.950 . S
C375 C372 1.387 . S
C376 C377 1.387 . S
C376 H380 0.950 . S
C376 C385 1.390 . S
C377 C376 1.387 . S
C377 C379 1.387 . S
H378 C385 0.950 . S
C379 C377 1.387 . S
C379 C381 1.390 . S
C379 H383 0.950 . S
H380 C376 0.950 . S
C381 C379 1.390 . S
C381 C382 1.387 . S
C381 H384 0.950 . S
C382 C381 1.387 . S
C382 C385 1.387 . S
H383 C379 0.950 . S
H384 C381 0.950 . S
C385 C376 1.390 . S
C385 H378 0.950 . S
C385 C382 1.387 . S
C386 C387 1.387 . S
C386 H390 0.950 . S
C386 C395 1.390 . S
C387 C386 1.387 . S
C387 C389 1.387 . S
H388 C395 0.950 . S
C389 C387 1.387 . S
C389 C391 1.390 . S
C389 H393 0.950 . S
H390 C386 0.950 . S
C391 C389 1.390 . S
C391 C392 1.387 . S
C391 H394 0.950 . S
C392 C391 1.387 . S
C392 C395 1.387 . S
H393 C389 0.950 . S
H394 C391 0.950 . S
C395 C386 1.390 . S
C395 H388 0.950 . S
C395 C392 1.387 . S
C157 C8 0.781 1_556 S
C162 C138 0.767 . S
C167 C151 1.165 . S
C172 C21 1.159 . S
C177 C86 0.782 . S
C182 C34 0.771 . S
C187 C47 0.784 1_556 S
C192 C99 0.773 . S
C197 C60 1.163 . S
C202 C112 1.158 . S
C207 C125 0.788 . S
C212 C73 0.770 . S
C217 C5 1.049 . S
C222 C96 1.513 . S
C227 C109 1.073 . S
C232 C18 1.076 . S
C237 C122 1.045 . S
C242 C31 1.479 . S
C247 C44 1.049 . S
C252 C135 1.513 . S
C257 C148 1.075 . S
C262 C57 1.073 . S
C267 C70 1.479 . S
C272 C83 1.046 . S
C277 C49 0.992 . S
C282 C10 0.992 . S
C287 C62 1.541 . S
C292 C23 1.541 . S
C297 C75 0.897 . S
C302 C36 0.897 . S
C307 C88 1.006 . S
C312 C127 1.006 . S
C317 C101 0.902 . S
C322 C140 0.902 . S
C327 C114 1.534 . S
C332 C153 1.534 . S
C337 C104 1.723 . S
C342 C0 1.583 . S
C347 C117 1.580 . S
C352 C13 1.713 . S
C357 C130 1.674 . S
C362 C26 1.676 . S
C367 C143 1.723 . S
C372 C39 1.583 . S
C377 C78 1.580 . S
C382 C52 1.713 . S
C387 C65 1.676 . S
C392 C91 1.675 . S
