# Generated by pormake.
# Topology lcy-e, (6)-cn, num edge types: 1
# Building blocks:
#     Node 0, Type 0, BuildingBlock: NUHQIS_clean_sbu_0, # of connection points: 6
#     Node 1, Type 0, BuildingBlock: NUHQIS_clean_sbu_0, # of connection points: 6
#     Node 2, Type 0, BuildingBlock: NUHQIS_clean_sbu_0, # of connection points: 6
#     Node 3, Type 0, BuildingBlock: NUHQIS_clean_sbu_0, # of connection points: 6
#     Node 4, Type 0, BuildingBlock: NUHQIS_clean_sbu_0, # of connection points: 6
#     Node 5, Type 0, BuildingBlock: NUHQIS_clean_sbu_0, # of connection points: 6
#     Node 6, Type 0, BuildingBlock: NUHQIS_clean_sbu_0, # of connection points: 6
#     Node 7, Type 0, BuildingBlock: NUHQIS_clean_sbu_0, # of connection points: 6
#     Node 8, Type 0, BuildingBlock: NUHQIS_clean_sbu_0, # of connection points: 6
#     Node 9, Type 0, BuildingBlock: NUHQIS_clean_sbu_0, # of connection points: 6
#     Node 10, Type 0, BuildingBlock: NUHQIS_clean_sbu_0, # of connection points: 6
#     Node 11, Type 0, BuildingBlock: NUHQIS_clean_sbu_0, # of connection points: 6
#     Edge 12, Type (0, 0), BuildingBlock: OJICUG_clean_linker_0, # of connection points: 2
#     Edge 13, Type (0, 0), BuildingBlock: OJICUG_clean_linker_0, # of connection points: 2
#     Edge 14, Type (0, 0), BuildingBlock: OJICUG_clean_linker_0, # of connection points: 2
#     Edge 15, Type (0, 0), BuildingBlock: OJICUG_clean_linker_0, # of connection points: 2
#     Edge 16, Type (0, 0), BuildingBlock: OJICUG_clean_linker_0, # of connection points: 2
#     Edge 17, Type (0, 0), BuildingBlock: OJICUG_clean_linker_0, # of connection points: 2
#     Edge 18, Type (0, 0), BuildingBlock: OJICUG_clean_linker_0, # of connection points: 2
#     Edge 19, Type (0, 0), BuildingBlock: OJICUG_clean_linker_0, # of connection points: 2
#     Edge 20, Type (0, 0), BuildingBlock: OJICUG_clean_linker_0, # of connection points: 2
#     Edge 21, Type (0, 0), BuildingBlock: OJICUG_clean_linker_0, # of connection points: 2
#     Edge 22, Type (0, 0), BuildingBlock: OJICUG_clean_linker_0, # of connection points: 2
#     Edge 23, Type (0, 0), BuildingBlock: OJICUG_clean_linker_0, # of connection points: 2
#     Edge 24, Type (0, 0), BuildingBlock: OJICUG_clean_linker_0, # of connection points: 2
#     Edge 25, Type (0, 0), BuildingBlock: OJICUG_clean_linker_0, # of connection points: 2
#     Edge 26, Type (0, 0), BuildingBlock: OJICUG_clean_linker_0, # of connection points: 2
#     Edge 27, Type (0, 0), BuildingBlock: OJICUG_clean_linker_0, # of connection points: 2
#     Edge 28, Type (0, 0), BuildingBlock: OJICUG_clean_linker_0, # of connection points: 2
#     Edge 29, Type (0, 0), BuildingBlock: OJICUG_clean_linker_0, # of connection points: 2
#     Edge 30, Type (0, 0), BuildingBlock: OJICUG_clean_linker_0, # of connection points: 2
#     Edge 31, Type (0, 0), BuildingBlock: OJICUG_clean_linker_0, # of connection points: 2
#     Edge 32, Type (0, 0), BuildingBlock: OJICUG_clean_linker_0, # of connection points: 2
#     Edge 33, Type (0, 0), BuildingBlock: OJICUG_clean_linker_0, # of connection points: 2
#     Edge 34, Type (0, 0), BuildingBlock: OJICUG_clean_linker_0, # of connection points: 2
#     Edge 35, Type (0, 0), BuildingBlock: OJICUG_clean_linker_0, # of connection points: 2
#     Edge 36, Type (0, 0), BuildingBlock: OJICUG_clean_linker_0, # of connection points: 2
#     Edge 37, Type (0, 0), BuildingBlock: OJICUG_clean_linker_0, # of connection points: 2
#     Edge 38, Type (0, 0), BuildingBlock: OJICUG_clean_linker_0, # of connection points: 2
#     Edge 39, Type (0, 0), BuildingBlock: OJICUG_clean_linker_0, # of connection points: 2
#     Edge 40, Type (0, 0), BuildingBlock: OJICUG_clean_linker_0, # of connection points: 2
#     Edge 41, Type (0, 0), BuildingBlock: OJICUG_clean_linker_0, # of connection points: 2
#     Edge 42, Type (0, 0), BuildingBlock: OJICUG_clean_linker_0, # of connection points: 2
#     Edge 43, Type (0, 0), BuildingBlock: OJICUG_clean_linker_0, # of connection points: 2
#     Edge 44, Type (0, 0), BuildingBlock: OJICUG_clean_linker_0, # of connection points: 2
#     Edge 45, Type (0, 0), BuildingBlock: OJICUG_clean_linker_0, # of connection points: 2
#     Edge 46, Type (0, 0), BuildingBlock: OJICUG_clean_linker_0, # of connection points: 2
#     Edge 47, Type (0, 0), BuildingBlock: OJICUG_clean_linker_0, # of connection points: 2
# Relax obj value: 0.184
# Max RMSD: 0.299
# Mean RMSD: 0.280
data_MOF--net-lcy-e--node1-NUHQIS_clean_sbu_0--edge1-OJICUG_clean_linker_0
_symmetry_space_group_name_H-M    P1
_symmetry_Int_Tables_number       1
_symmetry_cell_setting            triclinic
loop_
_symmetry_equiv_pos_as_xyz
'x, y, z'
_cell_length_a     34.064907
_cell_length_b     35.993093
_cell_length_c     34.158223
_cell_angle_alpha  89.685304
_cell_angle_beta   89.931753
_cell_angle_gamma 89.26957
loop_
_atom_site_label
_atom_site_type_symbol
_atom_site_fract_x
_atom_site_fract_y
_atom_site_fract_z
_atom_type_partial_charge
Tb0 Tb 0.1381 0.25954 0.53965 0.0
Eu1 Eu 0.11496 0.32442 0.47582 0.0
C2 C 0.18806 0.26873 0.46481 0.0
C3 C 0.17733 0.33956 0.53935 0.0
C4 C 0.13519 0.17188 0.59936 0.0
C5 C 0.10225 0.11355 0.58561 0.0
C6 C 0.11626 0.14811 0.57298 0.0
C7 C 0.13845 0.16119 0.63868 0.0
C8 C 0.12437 0.12686 0.65132 0.0
C9 C 0.10693 0.10216 0.62481 0.0
C10 C 0.15384 0.20669 0.58627 0.0
O11 O 0.08104 0.28055 0.55594 0.0
O12 O 0.08925 0.34014 0.53566 0.0
O13 O 0.0648 0.28558 0.47829 0.0
O14 O 0.10093 0.23399 0.49461 0.0
C15 C 0.0756 0.3161 0.56154 0.0
O16 O 0.11115 0.38252 0.4569 0.0
O17 O 0.09119 0.33887 0.41852 0.0
O18 O 0.15745 0.28362 0.4469 0.0
O19 O 0.18906 0.26623 0.50301 0.0
O20 O 0.16167 0.31302 0.5612 0.0
O21 O 0.17229 0.34019 0.50147 0.0
C22 C 0.06932 0.24947 0.47889 0.0
O23 O 0.16533 0.20795 0.54988 0.0
O24 O 0.1374 0.2379 0.59721 0.0
C25 C 0.12114 0.39054 0.38891 0.0
C26 C 0.16256 0.42297 0.32603 0.0
C27 C 0.12844 0.44013 0.34118 0.0
C28 C 0.10795 0.42404 0.37229 0.0
C29 C 0.15501 0.37306 0.37382 0.0
C30 C 0.17546 0.38907 0.34249 0.0
C31 C 0.09928 0.37406 0.42177 0.0
H32 H 0.08895 0.09531 0.56444 0.0
H33 H 0.11312 0.15582 0.54243 0.0
H34 H 0.15264 0.17914 0.65958 0.0
H35 H 0.12753 0.11952 0.68195 0.0
H36 H 0.11745 0.46602 0.32884 0.0
H37 H 0.0818 0.43782 0.38342 0.0
H38 H 0.16572 0.34715 0.38639 0.0
H39 H 0.2018 0.37537 0.33173 0.0
Tb40 Tb 0.9922 0.90405 0.71541 0.0
Eu41 Eu 0.06188 0.92359 0.77758 0.0
C42 C 0.06658 0.85268 0.72111 0.0
C43 C 0.99783 0.86739 0.80069 0.0
C44 C 0.92228 0.91001 0.63207 0.0
C45 C 0.87165 0.91421 0.5824 0.0
C46 C 0.88827 0.89622 0.6148 0.0
C47 C 0.9398 0.94193 0.61633 0.0
C48 C 0.92325 0.95992 0.58369 0.0
C49 C 0.88876 0.94639 0.56659 0.0
C50 C 0.93953 0.89027 0.66582 0.0
O51 O 0.98018 0.95938 0.73597 0.0
O52 O 1.00409 0.95099 0.79736 0.0
O53 O 0.06009 0.97014 0.73471 0.0
O54 O 0.03382 0.93909 0.68274 0.0
C55 C 0.97762 0.96567 0.77344 0.0
O56 O 0.08439 0.92873 0.83716 0.0
O57 O 0.12063 0.94441 0.78762 0.0
O58 O 0.08688 0.88017 0.73584 0.0
O59 O 0.0282 0.85442 0.7195 0.0
O60 O 0.97458 0.8833 0.77424 0.0
O61 O 0.03589 0.87073 0.79851 0.0
C62 C 0.05397 0.96694 0.69715 0.0
O63 O 0.97624 0.88027 0.66201 0.0
O64 O 0.93234 0.9044 0.70023 0.0
C65 C 0.15287 0.91934 0.8426 0.0
C66 C 0.21779 0.88247 0.87674 0.0
C67 C 0.20601 0.91799 0.8896 0.0
C68 C 0.17384 0.93622 0.87267 0.0
C69 C 0.1648 0.88418 0.82902 0.0
C70 C 0.19718 0.86589 0.84591 0.0
C71 C 0.11908 0.93905 0.82538 0.0
H72 H 0.84539 0.90279 0.56957 0.0
H73 H 0.87456 0.87146 0.62636 0.0
H74 H 0.96618 0.95291 0.62934 0.0
H75 H 0.93691 0.98478 0.57236 0.0
H76 H 0.22163 0.93164 0.91297 0.0
H77 H 0.16521 0.96347 0.88321 0.0
H78 H 0.14889 0.87084 0.80564 0.0
H79 H 0.20542 0.83845 0.83566 0.0
Tb80 Tb 0.38935 0.81353 0.03928 0.0
Eu81 Eu 0.41391 0.75045 0.97481 0.0
C82 C 0.34396 0.80911 0.96157 0.0
C83 C 0.34839 0.73436 0.03434 0.0
C84 C 0.38665 0.89968 0.10112 0.0
C85 C 0.37739 0.95577 0.13925 0.0
C86 C 0.36311 0.92232 0.12491 0.0
C87 C 0.42465 0.91123 0.09119 0.0
C88 C 0.43909 0.94486 0.10566 0.0
C89 C 0.41571 0.96734 0.13026 0.0
C90 C 0.36997 0.86521 0.08565 0.0
O91 O 0.44461 0.79068 0.05925 0.0
O92 O 0.43605 0.7322 0.03545 0.0
O93 O 0.46538 0.78714 0.98141 0.0
O94 O 0.43019 0.83932 0.99721 0.0
C95 C 0.44993 0.75475 0.06239 0.0
O96 O 0.41803 0.69268 0.95566 0.0
O97 O 0.43833 0.73692 0.91761 0.0
O98 O 0.37488 0.79377 0.94476 0.0
O99 O 0.34063 0.80924 0.99967 0.0
O100 O 0.36316 0.75988 0.05781 0.0
O101 O 0.35471 0.73614 0.99672 0.0
C102 C 0.46217 0.82331 0.98291 0.0
O103 O 0.36236 0.8654 0.04831 0.0
O104 O 0.38602 0.83384 0.09694 0.0
C105 C 0.40858 0.68553 0.88766 0.0
C106 C 0.36666 0.65264 0.82586 0.0
C107 C 0.40037 0.63516 0.84163 0.0
C108 C 0.42109 0.65146 0.87221 0.0
C109 C 0.37528 0.70347 0.87175 0.0
C110 C 0.3546 0.68724 0.84091 0.0
C111 C 0.43019 0.70168 0.92065 0.0
H112 H 0.3583 0.97265 0.1575 0.0
H113 H 0.3335 0.91416 0.13236 0.0
H114 H 0.44309 0.89423 0.07241 0.0
H115 H 0.46878 0.95283 0.09836 0.0
H116 H 0.41071 0.60872 0.83035 0.0
H117 H 0.44675 0.63727 0.88401 0.0
H118 H 0.36508 0.7298 0.88344 0.0
H119 H 0.32861 0.70121 0.8296 0.0
Tb120 Tb 0.53479 0.16565 0.21385 0.0
Eu121 Eu 0.46967 0.1497 0.28184 0.0
C122 C 0.4597 0.21525 0.21851 0.0
C123 C 0.53379 0.20752 0.29585 0.0
C124 C 0.59939 0.15496 0.12644 0.0
C125 C 0.61173 0.14927 0.05653 0.0
C126 C 0.59616 0.16907 0.08817 0.0
C127 C 0.6178 0.12025 0.13251 0.0
C128 C 0.63367 0.10058 0.1009 0.0
C129 C 0.63116 0.11507 0.06262 0.0
C130 C 0.58319 0.17688 0.15926 0.0
O131 O 0.55026 0.11231 0.23815 0.0
O132 O 0.52903 0.1239 0.30007 0.0
O133 O 0.47109 0.09946 0.24441 0.0
O134 O 0.49207 0.12718 0.18791 0.0
C135 C 0.55452 0.10814 0.27587 0.0
O136 O 0.45111 0.14965 0.34314 0.0
O137 O 0.41209 0.12927 0.29811 0.0
O138 O 0.44102 0.18857 0.23703 0.0
O139 O 0.498 0.21467 0.21589 0.0
O140 O 0.55573 0.18983 0.26971 0.0
O141 O 0.4957 0.20447 0.29521 0.0
C142 C 0.47467 0.09952 0.20632 0.0
O143 O 0.54588 0.18511 0.15693 0.0
O144 O 0.5934 0.16705 0.19471 0.0
C145 C 0.38296 0.15944 0.35193 0.0
C146 C 0.31927 0.19877 0.38534 0.0
C147 C 0.33525 0.16706 0.40401 0.0
C148 C 0.36678 0.14762 0.38744 0.0
C149 C 0.36712 0.19095 0.33292 0.0
C150 C 0.33534 0.21039 0.34944 0.0
C151 C 0.41585 0.13825 0.33486 0.0
H152 H 0.60976 0.16136 0.02748 0.0
H153 H 0.58195 0.19572 0.08278 0.0
H154 H 0.62032 0.10843 0.16164 0.0
H155 H 0.64823 0.07414 0.10643 0.0
H156 H 0.32317 0.1571 0.43142 0.0
H157 H 0.3785 0.12325 0.40235 0.0
H158 H 0.37934 0.20048 0.3054 0.0
H159 H 0.32384 0.23484 0.33455 0.0
Tb160 Tb 0.64629 0.31291 0.47135 0.0
Eu161 Eu 0.6191 0.25196 0.53615 0.0
C162 C 0.69231 0.30551 0.54868 0.0
C163 C 0.68471 0.2316 0.47719 0.0
C164 C 0.64555 0.39963 0.41094 0.0
C165 C 0.61665 0.46081 0.42365 0.0
C166 C 0.63187 0.4268 0.43736 0.0
C167 C 0.64252 0.40668 0.37068 0.0
C168 C 0.62708 0.44049 0.35698 0.0
C169 C 0.61465 0.46835 0.38325 0.0
C170 C 0.66439 0.36462 0.42469 0.0
O171 O 0.59122 0.29187 0.45024 0.0
O172 O 0.59748 0.23342 0.47587 0.0
O173 O 0.56845 0.2906 0.52705 0.0
O174 O 0.60647 0.34055 0.51343 0.0
C175 C 0.58495 0.25618 0.44797 0.0
O176 O 0.61265 0.19499 0.55743 0.0
O177 O 0.59283 0.24125 0.59315 0.0
O178 O 0.66038 0.29272 0.5655 0.0
O179 O 0.69539 0.30607 0.51053 0.0
O180 O 0.67155 0.25827 0.45344 0.0
O181 O 0.67745 0.23305 0.51469 0.0
C182 C 0.57304 0.32651 0.52562 0.0
O183 O 0.67481 0.36327 0.46137 0.0
O184 O 0.64864 0.33359 0.41346 0.0
C185 C 0.62077 0.18953 0.62575 0.0
C186 C 0.66163 0.15659 0.68901 0.0
C187 C 0.62802 0.13979 0.67341 0.0
C188 C 0.60779 0.15614 0.64209 0.0
C189 C 0.65393 0.20681 0.64156 0.0
C190 C 0.67409 0.19056 0.67314 0.0
C191 C 0.60006 0.20558 0.59177 0.0
H192 H 0.60755 0.48155 0.44474 0.0
H193 H 0.63357 0.42213 0.46867 0.0
H194 H 0.65258 0.38615 0.34973 0.0
H195 H 0.62509 0.44485 0.32565 0.0
H196 H 0.61749 0.1138 0.68533 0.0
H197 H 0.58224 0.14249 0.63034 0.0
H198 H 0.66451 0.23258 0.62914 0.0
H199 H 0.70004 0.20393 0.68434 0.0
Tb200 Tb 0.9704 0.41612 0.73651 0.0
Eu201 Eu 0.03707 0.39981 0.80391 0.0
C202 C 0.97301 0.46552 0.81072 0.0
C203 C 0.05263 0.45805 0.74009 0.0
C204 C 0.885 0.40821 0.66812 0.0
C205 C 0.83829 0.40299 0.61496 0.0
C206 C 0.86963 0.42112 0.63253 0.0
C207 C 0.86845 0.37687 0.68616 0.0
C208 C 0.83684 0.35873 0.66861 0.0
C209 C 0.8216 0.37148 0.63263 0.0
C210 C 0.91738 0.42861 0.68628 0.0
O211 O 0.9964 0.36338 0.72138 0.0
O212 O 0.05745 0.37541 0.74507 0.0
O213 O 1.0004 0.34933 0.8011 0.0
O214 O 0.94391 0.37729 0.77902 0.0
C215 C 0.03444 0.35962 0.71897 0.0
O216 O 0.09778 0.39816 0.82427 0.0
O217 O 0.05089 0.38102 0.86323 0.0
O218 O 0.99076 0.43847 0.83016 0.0
O219 O 0.97116 0.46505 0.77249 0.0
O220 O 0.02698 0.44082 0.71769 0.0
O221 O 0.05104 0.45476 0.77804 0.0
C222 C 0.96229 0.34936 0.79669 0.0
O223 O 0.91367 0.4356 0.72352 0.0
O224 O 0.95297 0.4178 0.67738 0.0
C225 C 0.10394 0.41225 0.89207 0.0
C226 C 0.13448 0.45481 0.95409 0.0
C227 C 0.13305 0.46929 0.91574 0.0
C228 C 0.11776 0.44831 0.88508 0.0
C229 C 0.10465 0.39803 0.93042 0.0
C230 C 0.11964 0.41912 0.96116 0.0
C231 C 0.08793 0.38941 0.86014 0.0
H232 H 0.8269 0.41387 0.58755 0.0
H233 H 0.88178 0.44541 0.61834 0.0
H234 H 0.87995 0.3665 0.71374 0.0
H235 H 0.82481 0.33439 0.68278 0.0
H236 H 0.14396 0.49682 0.90943 0.0
H237 H 0.117 0.46026 0.8559 0.0
H238 H 0.0939 0.3704 0.93654 0.0
H239 H 0.12075 0.40702 0.99024 0.0
Tb240 Tb 0.90972 0.81788 0.03803 0.0
Eu241 Eu 0.88517 0.75627 0.97349 0.0
C242 C 0.95758 0.74506 0.03214 0.0
C243 C 0.94785 0.81471 0.95255 0.0
C244 C 0.90297 0.87907 0.12448 0.0
C245 C 0.8975 0.89422 0.19364 0.0
C246 C 0.91888 0.8792 0.16236 0.0
C247 C 0.86494 0.89356 0.11848 0.0
C248 C 0.84371 0.90888 0.14965 0.0
C249 C 0.85987 0.90965 0.18752 0.0
C250 C 0.92587 0.86268 0.092 0.0
O251 O 0.85392 0.83686 0.01584 0.0
O252 O 0.86019 0.81314 0.9543 0.0
O253 O 0.83369 0.76432 0.0126 0.0
O254 O 0.8692 0.77865 0.06663 0.0
C255 C 0.84719 0.83937 0.97826 0.0
O256 O 0.88221 0.734 0.91414 0.0
O257 O 0.8563 0.70375 0.9626 0.0
O258 O 0.92636 0.72868 0.01792 0.0
O259 O 0.9598 0.78128 0.03179 0.0
O260 O 0.93323 0.83622 0.9805 0.0
O261 O 0.94219 0.77887 0.9531 0.0
C262 C 0.83676 0.76624 0.05057 0.0
O263 O 0.93217 0.82695 0.0944 0.0
O264 O 0.9163 0.873 0.05652 0.0
C265 C 0.88163 0.66822 0.91073 0.0
C266 C 0.91084 0.59949 0.88301 0.0
C267 C 0.87262 0.61183 0.87349 0.0
C268 C 0.85824 0.64585 0.88717 0.0
C269 C 0.91953 0.65591 0.9211 0.0
C270 C 0.93404 0.62175 0.90734 0.0
C271 C 0.86523 0.70342 0.92548 0.0
H272 H 0.91087 0.89477 0.22238 0.0
H273 H 0.94802 0.86786 0.1677 0.0
H274 H 0.85163 0.89324 0.0897 0.0
H275 H 0.81464 0.92026 0.14411 0.0
H276 H 0.85372 0.59513 0.85539 0.0
H277 H 0.82872 0.65468 0.87938 0.0
H278 H 0.93784 0.67276 0.93968 0.0
H279 H 0.96367 0.6132 0.91496 0.0
Tb280 Tb 0.55844 0.65321 0.23732 0.0
Eu281 Eu 0.49061 0.67022 0.30362 0.0
C282 C 0.55595 0.60541 0.3141 0.0
C283 C 0.47692 0.6104 0.24184 0.0
C284 C 0.6438 0.66229 0.16912 0.0
C285 C 0.6888 0.67083 0.11483 0.0
C286 C 0.65748 0.6521 0.13202 0.0
C287 C 0.66201 0.69151 0.18902 0.0
C288 C 0.69362 0.7102 0.17188 0.0
C289 C 0.70718 0.70019 0.13445 0.0
C290 C 0.61133 0.64136 0.18681 0.0
O291 O 0.53263 0.70642 0.22275 0.0
O292 O 0.47104 0.69355 0.24401 0.0
O293 O 0.52905 0.71971 0.30256 0.0
O294 O 0.58524 0.69221 0.2788 0.0
C295 C 0.49467 0.70973 0.21863 0.0
O296 O 0.4291 0.67072 0.32199 0.0
O297 O 0.47404 0.69144 0.36089 0.0
O298 O 0.53535 0.63131 0.33231 0.0
O299 O 0.5601 0.60562 0.27596 0.0
O300 O 0.50252 0.62728 0.21878 0.0
O301 O 0.47931 0.61424 0.27967 0.0
C302 C 0.56715 0.71937 0.29773 0.0
O303 O 0.61489 0.63334 0.2239 0.0
O304 O 0.57579 0.65245 0.17809 0.0
C305 C 0.4198 0.66228 0.39003 0.0
C306 C 0.38565 0.62446 0.45381 0.0
C307 C 0.36783 0.65676 0.43815 0.0
C308 C 0.38476 0.67546 0.40658 0.0
C309 C 0.43801 0.63022 0.40561 0.0
C310 C 0.42112 0.61152 0.43741 0.0
C311 C 0.4372 0.68268 0.35706 0.0
H312 H 0.69887 0.6621 0.08619 0.0
H313 H 0.64402 0.62949 0.11634 0.0
H314 H 0.65183 0.69981 0.21776 0.0
H315 H 0.70698 0.73286 0.18755 0.0
H316 H 0.34079 0.66775 0.45046 0.0
H317 H 0.37048 0.70028 0.3951 0.0
H318 H 0.46516 0.61966 0.39312 0.0
H319 H 0.43535 0.58658 0.44864 0.0
Tb320 Tb 0.23755 0.57189 0.15261 0.0
Eu321 Eu 0.29954 0.50728 0.12547 0.0
C322 C 0.24245 0.49896 0.1993 0.0
C323 C 0.32412 0.56432 0.18852 0.0
C324 C 0.15071 0.63481 0.14986 0.0
C325 C 0.1004 0.68292 0.14477 0.0
C326 C 0.13238 0.66687 0.16446 0.0
C327 C 0.13631 0.61864 0.11544 0.0
C328 C 0.1041 0.6346 0.09577 0.0
C329 C 0.08604 0.66718 0.11002 0.0
C330 C 0.18463 0.6185 0.17081 0.0
O331 O 0.26 0.59131 0.09735 0.0
O332 O 0.32058 0.56324 0.10136 0.0
O333 O 0.25967 0.51841 0.07511 0.0
O334 O 0.2072 0.53326 0.11327 0.0
C335 C 0.29753 0.59091 0.08948 0.0
O336 O 0.35792 0.48189 0.11999 0.0
O337 O 0.30711 0.45372 0.09692 0.0
O338 O 0.25488 0.48219 0.16739 0.0
O339 O 0.24442 0.53508 0.20213 0.0
O340 O 0.29609 0.58714 0.17564 0.0
O341 O 0.32318 0.52868 0.18159 0.0
C342 C 0.22178 0.52139 0.07982 0.0
O343 O 0.18272 0.58302 0.17825 0.0
O344 O 0.21923 0.62773 0.15792 0.0
C345 C 0.35839 0.41605 0.12149 0.0
C346 C 0.3853 0.34748 0.15264 0.0
C347 C 0.39302 0.3573 0.11343 0.0
C348 C 0.37976 0.39124 0.09809 0.0
C349 C 0.34958 0.40617 0.16034 0.0
C350 C 0.36293 0.3721 0.17582 0.0
C351 C 0.34459 0.45149 0.10443 0.0
H352 H 0.08685 0.70775 0.1568 0.0
H353 H 0.14292 0.67962 0.19106 0.0
H354 H 0.15014 0.59384 0.10364 0.0
H355 H 0.09397 0.62201 0.06894 0.0
H356 H 0.40958 0.33876 0.09455 0.0
H357 H 0.38633 0.39817 0.06789 0.0
H358 H 0.3327 0.42492 0.17872 0.0
H359 H 0.35671 0.36552 0.20615 0.0
Tb360 Tb 0.79578 0.06526 0.88705 0.0
Eu361 Eu 0.73454 1.00138 0.85971 0.0
C362 C 0.71847 0.05451 0.93219 0.0
C363 C 0.795 0.98391 0.9248 0.0
C364 C 0.85448 0.15242 0.89065 0.0
C365 C 0.89502 0.20693 0.89708 0.0
C366 C 0.88017 0.174 0.91258 0.0
C367 C 0.84313 0.16453 0.85309 0.0
C368 C 0.85803 0.19766 0.83747 0.0
C369 C 0.88457 0.21899 0.85917 0.0
C370 C 0.83914 0.11804 0.90806 0.0
O371 O 0.81946 0.04532 0.8324 0.0
O372 O 0.79589 0.98609 0.83696 0.0
O373 O 0.74171 0.03966 0.80919 0.0
O374 O 0.75335 0.09094 0.84594 0.0
C375 C 0.82269 1.00982 0.8249 0.0
O376 O 0.7164 0.94366 0.85374 0.0
O377 O 0.67818 0.98842 0.83346 0.0
O378 O 0.70273 0.04201 0.89982 0.0
O379 O 0.75659 0.05626 0.93571 0.0
O380 O 0.81694 1.01116 0.91106 0.0
O381 O 0.75748 0.98286 0.91748 0.0
C382 C 0.74123 0.0757 0.81314 0.0
O383 O 0.80129 0.11736 0.91344 0.0
O384 O 0.85253 0.08676 0.89392 0.0
C385 C 0.64821 0.93644 0.86233 0.0
C386 C 0.58597 0.90315 0.90366 0.0
C387 C 0.60124 0.8868 0.8694 0.0
C388 C 0.63205 0.90331 0.84895 0.0
C389 C 0.63282 0.95322 0.89621 0.0
C390 C 0.60178 0.93681 0.91661 0.0
C391 C 0.68142 0.95295 0.84117 0.0
H392 H 0.91488 0.22297 0.91484 0.0
H393 H 0.88885 0.16533 0.94178 0.0
H394 H 0.82302 0.14827 0.83584 0.0
H395 H 0.84962 0.20604 0.80813 0.0
H396 H 0.58937 0.8611 0.85843 0.0
H397 H 0.64347 0.89005 0.82284 0.0
H398 H 0.64508 0.9788 0.90709 0.0
H399 H 0.59088 0.94986 0.94304 0.0
Tb400 Tb 0.73287 1.00592 0.38562 0.0
Eu401 Eu 0.79793 0.06731 0.35965 0.0
C402 C 0.80848 1.01376 0.43412 0.0
C403 C 0.73592 0.08734 0.4228 0.0
C404 C 0.67156 0.92034 0.38386 0.0
C405 C 0.68165 0.85723 0.35953 0.0
C406 C 0.6967 0.89014 0.37495 0.0
C407 C 0.63136 0.91726 0.37596 0.0
C408 C 0.61638 0.88451 0.36041 0.0
C409 C 0.64117 0.85375 0.35273 0.0
C410 C 0.68628 0.95434 0.40305 0.0
O411 O 0.7131 0.02694 0.32976 0.0
O412 O 0.73763 0.08532 0.33608 0.0
O413 O 0.79092 0.02886 0.30946 0.0
O414 O 0.77642 0.97858 0.34726 0.0
C415 C 0.71051 0.06262 0.32302 0.0
O416 O 0.81815 0.12423 0.35162 0.0
O417 O 0.85595 0.07782 0.33551 0.0
O418 O 0.82639 0.02664 0.40279 0.0
O419 O 0.77016 1.01317 0.43575 0.0
O420 O 0.71336 0.06054 0.40927 0.0
O421 O 0.77366 0.08747 0.41613 0.0
C422 C 0.78938 0.99291 0.31418 0.0
O423 O 0.7233 0.95446 0.4127 0.0
O424 O 0.67486 0.98628 0.38845 0.0
C425 C 0.88632 0.13091 0.36091 0.0
C426 C 0.94867 0.16581 0.39997 0.0
C427 C 0.93575 0.17872 0.36312 0.0
C428 C 0.90488 0.16143 0.34382 0.0
C429 C 0.89944 0.11739 0.39736 0.0
C430 C 0.93052 0.13462 0.41668 0.0
C431 C 0.85324 0.11367 0.34056 0.0
H432 H 0.70157 0.83412 0.3542 0.0
H433 H 0.72792 0.89155 0.38059 0.0
H434 H 0.61134 0.94005 0.3824 0.0
H435 H 0.58516 0.8832 0.35475 0.0
H436 H 0.94946 0.20239 0.34924 0.0
H437 H 0.89527 0.17209 0.31564 0.0
H438 H 0.88536 0.0938 0.41101 0.0
H439 H 0.93957 0.12425 0.44513 0.0
Tb440 Tb 0.22907 0.56197 0.63205 0.0
Eu441 Eu 0.29444 0.49866 0.65557 0.0
C442 C 0.30483 0.55451 0.58345 0.0
C443 C 0.23167 0.48152 0.59321 0.0
C444 C 0.16637 0.64841 0.63162 0.0
C445 C 0.12211 0.70161 0.62751 0.0
C446 C 0.13644 0.66815 0.61233 0.0
C447 C 0.18217 0.66275 0.66631 0.0
C448 C 0.16783 0.69642 0.68159 0.0
C449 C 0.13738 0.71611 0.66246 0.0
C450 C 0.18176 0.61398 0.61394 0.0
O451 O 0.21087 0.54083 0.68816 0.0
O452 O 0.23476 0.48179 0.68096 0.0
O453 O 0.28914 0.53633 0.70661 0.0
O454 O 0.27227 0.58802 0.67122 0.0
C455 C 0.20759 0.50512 0.6943 0.0
O456 O 0.31515 0.4412 0.66068 0.0
O457 O 0.35329 0.48615 0.67766 0.0
O458 O 0.32265 0.54061 0.61446 0.0
O459 O 0.26653 0.55534 0.58166 0.0
O460 O 0.20903 0.50794 0.60849 0.0
O461 O 0.26964 0.4818 0.59832 0.0
C462 C 0.28724 0.57246 0.70306 0.0
O463 O 0.21905 0.61379 0.60546 0.0
O464 O 0.17097 0.58267 0.62979 0.0
C465 C 0.38322 0.43507 0.6462 0.0
C466 C 0.44621 0.4068 0.60087 0.0
C467 C 0.40829 0.4102 0.58485 0.0
C468 C 0.37716 0.42439 0.60719 0.0
C469 C 0.42112 0.43224 0.66209 0.0
C470 C 0.45237 0.41834 0.63962 0.0
C471 C 0.35083 0.45079 0.66996 0.0
H472 H 0.09914 0.71631 0.61164 0.0
H473 H 0.12425 0.65776 0.58528 0.0
H474 H 0.20556 0.64795 0.68148 0.0
H475 H 0.18001 0.70667 0.70868 0.0
H476 H 0.4027 0.40185 0.55497 0.0
H477 H 0.34837 0.42695 0.59392 0.0
H478 H 0.42652 0.4407 0.69198 0.0
H479 H 0.48113 0.41569 0.65291 0.0
C480 C 0.17213 0.39351 0.58526 0.0
C481 C 0.19328 0.37381 0.55655 0.0
H482 H 0.16601 0.44443 0.61752 0.0
C483 C 0.22543 0.39091 0.53849 0.0
H484 H 0.14666 0.38132 0.59893 0.0
C485 C 0.23676 0.42658 0.5494 0.0
C486 C 0.21535 0.44664 0.57763 0.0
H487 H 0.24167 0.37672 0.5156 0.0
H488 H 0.26244 0.43852 0.53573 0.0
C489 C 0.1827 0.42986 0.59529 0.0
C490 C 0.88839 0.98151 0.83802 0.0
C491 C 0.86134 0.99668 0.8111 0.0
H492 H 0.94715 0.96137 0.84789 0.0
C493 C 0.87393 1.00504 0.7731 0.0
H494 H 0.87984 0.97662 0.86812 0.0
C495 C 0.91241 0.99656 0.76153 0.0
C496 C 0.93941 0.98032 0.78805 0.0
H497 H 0.85398 1.01809 0.75235 0.0
H498 H 0.92084 1.00228 0.73153 0.0
C499 C 0.92714 0.97357 0.82668 0.0
C500 C 0.33611 0.68878 0.08928 0.0
C501 C 0.33283 0.69866 0.04959 0.0
H502 H 0.32822 0.64626 0.13276 0.0
C503 C 0.31887 0.67193 0.02304 0.0
H504 H 0.34653 0.70857 0.11053 0.0
C505 C 0.30923 0.63617 0.03567 0.0
C506 C 0.31379 0.62607 0.07498 0.0
H507 H 0.3157 0.67846 0.99221 0.0
H508 H 0.29778 0.61652 0.01479 0.0
C509 C 0.32657 0.65283 0.10184 0.0
C510 C 0.60669 0.10041 0.32758 0.0
C511 C 0.5932 0.09363 0.2895 0.0
H512 H 0.65506 0.09683 0.36756 0.0
C513 C 0.61929 0.07712 0.26237 0.0
H514 H 0.58739 0.11267 0.3493 0.0
C515 C 0.65804 0.06843 0.27277 0.0
C516 C 0.67186 0.07675 0.31021 0.0
H517 H 0.60994 0.07124 0.23277 0.0
H518 H 0.67719 0.05508 0.25159 0.0
C519 C 0.64572 0.09218 0.33776 0.0
C520 C 0.71447 0.16849 0.48878 0.0
C521 C 0.70011 0.19555 0.46214 0.0
H522 H 0.73603 0.11268 0.49729 0.0
C523 C 0.69617 0.18574 0.42263 0.0
H524 H 0.71808 0.17497 0.51949 0.0
C525 C 0.70563 0.14958 0.41032 0.0
C526 C 0.719 0.12253 0.43724 0.0
H527 H 0.6853 0.20575 0.40134 0.0
H528 H 0.70364 0.14314 0.37948 0.0
C529 C 0.72409 0.13254 0.47638 0.0
C530 C 0.10293 0.50705 0.73245 0.0
C531 C 0.09043 0.471 0.72429 0.0
H532 H 0.14981 0.54594 0.72994 0.0
C533 C 0.11773 0.44517 0.70911 0.0
H534 H 0.08299 0.52698 0.74578 0.0
C535 C 0.15652 0.45549 0.70122 0.0
C536 C 0.16876 0.49197 0.70819 0.0
H537 H 0.10964 0.41655 0.70482 0.0
H538 H 0.17669 0.43505 0.68917 0.0
C539 C 0.14146 0.51757 0.72407 0.0
C540 C 0.8273 0.92282 0.91234 0.0
C541 C 0.81262 0.94896 0.93928 0.0
H542 H 0.84843 0.86709 0.90298 0.0
C543 C 0.80667 0.93798 0.97816 0.0
H544 H 0.83013 0.93007 0.88168 0.0
C545 C 0.81659 0.9019 0.99028 0.0
C546 C 0.83193 0.87568 0.96356 0.0
H547 H 0.79375 0.95715 0.99902 0.0
H548 H 0.81226 0.8946 0.02077 0.0
C549 C 0.83681 0.88648 0.92431 0.0
C550 C 0.41299 0.57805 0.25235 0.0
C551 C 0.43921 0.59587 0.22655 0.0
H552 H 0.35578 0.5548 0.2607 0.0
C553 C 0.4265 0.60387 0.18827 0.0
H554 H 0.42171 0.57123 0.28205 0.0
C555 C 0.38811 0.59547 0.17664 0.0
C556 C 0.36182 0.57864 0.2029 0.0
H557 H 0.44591 0.61717 0.16751 0.0
H558 H 0.37941 0.60108 0.14671 0.0
C559 C 0.37494 0.56918 0.2405 0.0
C560 C 0.53178 0.25252 0.35101 0.0
C561 C 0.55057 0.22242 0.33243 0.0
H562 H 0.5279 0.28663 0.40218 0.0
C563 C 0.57992 0.20256 0.35286 0.0
H564 H 0.50856 0.26791 0.33623 0.0
C565 C 0.58938 0.21194 0.39156 0.0
C566 C 0.57065 0.24219 0.40996 0.0
H567 H 0.5945 0.179 0.33945 0.0
H568 H 0.61197 0.19612 0.40673 0.0
C569 C 0.54225 0.26274 0.389 0.0
C570 C 0.06566 0.36515 0.61309 0.0
C571 C 0.06334 0.32791 0.60144 0.0
H572 H 0.05916 0.40412 0.65977 0.0
C573 C 0.05335 0.30094 0.62981 0.0
H574 H 0.07305 0.38666 0.59214 0.0
C575 C 0.0462 0.31092 0.66874 0.0
C576 C 0.04955 0.34793 0.68045 0.0
H577 H 0.05119 0.2719 0.62205 0.0
H578 H 0.03742 0.2898 0.6896 0.0
C579 C 0.05874 0.37502 0.65214 0.0
C580 C 1.0021 0.82244 0.85634 0.0
C581 C 0.98235 0.85227 0.83797 0.0
H582 H 1.00672 0.78734 0.90711 0.0
C583 C 0.95261 0.87116 0.85868 0.0
H584 H 0.02561 0.80777 0.84133 0.0
C585 C 0.94337 0.86081 0.8973 0.0
C586 C 0.96269 0.8305 0.91533 0.0
H587 H 0.93734 0.89458 0.84548 0.0
H588 H 0.92033 0.87576 0.91261 0.0
C589 C 0.99185 0.81122 0.89424 0.0
C590 C 0.50169 0.75069 0.16001 0.0
C591 C 0.48052 0.72325 0.18007 0.0
H592 H 0.50868 0.78197 0.10689 0.0
C593 C 0.45046 0.70476 0.1602 0.0
H594 H 0.52539 0.76504 0.17439 0.0
C595 C 0.44246 0.71295 0.12075 0.0
C596 C 0.46335 0.74077 0.10096 0.0
H597 H 0.43393 0.68328 0.1748 0.0
H598 H 0.41914 0.69838 0.10611 0.0
C599 C 0.49269 0.75985 0.12118 0.0
C600 C 0.19961 0.42122 0.26179 0.0
C601 C 0.18505 0.44132 0.2941 0.0
H602 H 0.22916 0.42355 0.20614 0.0
C603 C 0.19147 0.4797 0.29562 0.0
H604 H 0.19506 0.39157 0.25979 0.0
C605 C 0.21087 0.49783 0.26525 0.0
C606 C 0.22443 0.47817 0.23228 0.0
H607 H 0.18138 0.49588 0.32041 0.0
H608 H 0.21469 0.52757 0.26755 0.0
C609 C 0.21902 0.43952 0.23105 0.0
C610 C 0.82865 0.97136 0.53363 0.0
C611 C 0.8695 0.96613 0.53328 0.0
H612 H 0.77782 0.99057 0.50327 0.0
C613 C 0.89101 0.97887 0.50072 0.0
H614 H 0.81131 0.96263 0.55858 0.0
C615 C 0.87164 0.9952 0.46849 0.0
C616 C 0.83051 0.99918 0.46851 0.0
H617 H 0.9226 0.9752 0.49968 0.0
H618 H 0.88871 1.00394 0.44339 0.0
C619 C 0.80947 0.98762 0.50181 0.0
C620 C 0.31664 0.5765 0.76965 0.0
C621 C 0.30425 0.59477 0.73519 0.0
H622 H 0.34531 0.58041 0.82497 0.0
C623 C 0.31032 0.63323 0.73168 0.0
H624 H 0.31203 0.54703 0.77385 0.0
C625 C 0.32975 0.65255 0.76149 0.0
C626 C 0.34354 0.63365 0.7951 0.0
H627 H 0.30104 0.64814 0.7056 0.0
H628 H 0.33509 0.68195 0.7577 0.0
C629 C 0.33598 0.59561 0.79907 0.0
C630 C 0.69031 0.08342 0.03458 0.0
C631 C 0.65154 0.09619 0.02967 0.0
H632 H 0.74152 0.06023 1.00777 0.0
C633 C 0.63371 0.09282 0.9927 0.0
H634 H 0.70501 0.08595 0.06252 0.0
C635 C 0.65472 0.0778 0.96103 0.0
C636 C 0.69406 0.06654 0.96576 0.0
H637 H 0.60372 0.10223 0.98819 0.0
H638 H 0.64067 0.07624 0.93267 0.0
C639 C 0.71133 0.06893 1.00302 0.0
C640 C 0.69756 0.1561 0.75378 0.0
C641 C 0.68451 0.13734 0.72023 0.0
H642 H 0.7258 0.15137 0.80996 0.0
C643 C 0.69279 0.09927 0.71663 0.0
H644 H 0.69164 0.18554 0.75721 0.0
C645 C 0.71229 0.07998 0.74633 0.0
C646 C 0.72399 0.09812 0.78073 0.0
H647 H 0.68395 0.08422 0.69078 0.0
H648 H 0.7175 0.05049 0.74242 0.0
C649 C 0.71705 0.13658 0.78392 0.0
C650 C 0.159 0.49418 0.05442 0.0
C651 C 0.19644 0.50875 0.04748 0.0
H652 H 0.10987 0.46534 0.03018 0.0
C653 C 0.21164 0.50807 1.0092 0.0
H654 H 0.14662 0.49426 0.08364 0.0
C655 C 0.19072 0.49188 0.9788 0.0
C656 C 0.15417 0.47558 0.98591 0.0
H657 H 0.24034 0.51927 1.00284 0.0
H658 H 0.20405 0.49071 0.95001 0.0
C659 C 0.13817 0.47741 0.02392 0.0
C660 C 0.80501 0.98418 0.24366 0.0
C661 C 0.80383 0.96928 0.28177 0.0
H662 H 0.82346 0.97708 0.18435 0.0
C663 C 0.81903 0.93333 0.2884 0.0
H664 H 0.79333 1.01174 0.23751 0.0
C665 C 0.83671 0.91344 0.25769 0.0
C666 C 0.83876 0.92894 0.2198 0.0
H667 H 0.81856 0.9212 0.31749 0.0
H668 H 0.84911 0.88613 0.26362 0.0
C669 C 0.82207 0.96423 0.21307 0.0
C670 C 0.36797 0.57392 0.55056 0.0
C671 C 0.32698 0.56979 0.54972 0.0
H672 H 0.41891 0.59467 0.52076 0.0
C673 C 0.30623 0.58186 0.5163 0.0
H674 H 0.3848 0.56484 0.57581 0.0
C675 C 0.32556 0.59873 0.48513 0.0
C676 C 0.36624 0.60408 0.48633 0.0
H677 H 0.27471 0.5788 0.51425 0.0
H678 H 0.30847 0.60781 0.46003 0.0
C679 C 0.38747 0.59088 0.51904 0.0
C680 C 0.22157 0.24906 0.40204 0.0
C681 C 0.22245 0.25422 0.4428 0.0
H682 H 0.25165 0.22715 0.35165 0.0
C683 C 0.25643 0.24349 0.46357 0.0
H684 H 0.19589 0.25714 0.38522 0.0
C685 C 0.288 0.22657 0.44456 0.0
C686 C 0.28663 0.21981 0.4042 0.0
H687 H 0.25855 0.24753 0.49489 0.0
H688 H 0.31347 0.21835 0.46166 0.0
C689 C 0.25348 0.23199 0.38286 0.0
C690 C 0.05949 0.04828 0.62641 0.0
C691 C 0.09503 0.06443 0.63835 0.0
H692 H 0.01848 1.00389 0.63535 0.0
C693 C 0.11887 0.04488 0.66517 0.0
H694 H 0.04046 0.06255 0.60572 0.0
C695 C 0.10629 1.01175 0.68197 0.0
C696 C 0.06978 0.99682 0.67208 0.0
H697 H 0.14695 0.05575 0.67413 0.0
H698 H 0.1246 0.99845 0.70402 0.0
C699 C 0.04697 1.01462 0.64314 0.0
C700 C 0.25058 0.86218 0.93837 0.0
C701 C 0.24992 0.86225 0.89736 0.0
H702 H 0.28025 0.84558 0.99033 0.0
C703 C 0.28005 0.84344 0.87694 0.0
H704 H 0.22743 0.87578 0.95496 0.0
C705 C 0.31085 0.82576 0.89742 0.0
C706 C 0.31165 0.82639 0.93857 0.0
H707 H 0.2802 0.84308 0.84524 0.0
H708 H 0.33401 0.81189 0.88113 0.0
C709 C 0.28091 0.84455 0.95865 0.0
C710 C 0.43688 0.04072 0.206 0.0
C711 C 0.45949 0.06667 0.18517 0.0
H712 H 0.40645 0.98937 0.20551 0.0
C713 C 0.46791 0.05975 0.14552 0.0
H714 H 0.42972 0.04483 0.23659 0.0
C715 C 0.45411 0.02738 0.12739 0.0
C716 C 0.43138 1.00164 0.14854 0.0
H717 H 0.4854 0.07904 0.12869 0.0
H718 H 0.46081 1.02272 0.09679 0.0
C719 C 0.42318 1.0088 0.18806 0.0
C720 C 0.79138 0.34597 0.57208 0.0
C721 C 0.78917 0.35182 0.61258 0.0
H722 H 0.76319 0.32675 0.52065 0.0
C723 C 0.75547 0.34005 0.63289 0.0
H724 H 0.81722 0.35392 0.55567 0.0
C725 C 0.72399 0.32412 0.61262 0.0
C726 C 0.72585 0.31963 0.57177 0.0
H727 H 0.75293 0.34421 0.66417 0.0
H728 H 0.698 0.31616 0.62874 0.0
C729 C 0.76027 0.33017 0.55201 0.0
C730 C 0.93369 0.52429 0.80916 0.0
C731 C 0.95655 0.4987 0.83084 0.0
H732 H 0.9023 0.5759 0.80822 0.0
C733 C 0.96418 0.50623 0.87045 0.0
H734 H 0.92711 0.51958 0.77858 0.0
C735 C 0.94952 0.53898 0.88769 0.0
C736 C 0.92674 0.56451 0.86569 0.0
H737 H 0.9818 0.48716 0.8879 0.0
H738 H 0.95573 0.54417 0.91825 0.0
C739 C 0.91911 0.55665 0.82626 0.0
C740 C 0.80623 0.74506 0.11446 0.0
C741 C 0.80307 0.75304 0.07424 0.0
H742 H 0.7782 0.72179 0.16534 0.0
C743 C 0.76724 0.74623 0.05527 0.0
H744 H 0.83336 0.75009 0.12992 0.0
C745 C 0.73606 0.73024 0.07528 0.0
C746 C 0.73961 0.72053 0.11494 0.0
H747 H 0.76334 0.75259 0.02447 0.0
H748 H 0.70917 0.72499 0.05944 0.0
C749 C 0.77467 0.72894 0.1347 0.0
C750 C 0.61939 0.52115 0.33541 0.0
C751 C 0.60097 0.50534 0.36822 0.0
H752 H 0.61988 0.5651 0.29325 0.0
C753 C 0.56941 0.52492 0.38568 0.0
H754 H 0.64451 0.50766 0.32187 0.0
C755 C 0.55562 0.55864 0.36952 0.0
C756 C 0.57299 0.57314 0.33548 0.0
H757 H 0.55448 0.51357 0.41098 0.0
H758 H 0.5304 0.57241 0.38257 0.0
C759 C 0.60546 0.55437 0.31918 0.0
C760 C 0.44193 0.30339 0.16031 0.0
C761 C 0.40294 0.31285 0.16953 0.0
H762 H 0.48973 0.26553 0.16793 0.0
C763 C 0.38186 0.28935 0.19492 0.0
H764 H 0.45932 0.32107 0.14149 0.0
C765 C 0.39959 0.25698 0.21053 0.0
C766 C 0.43879 0.24791 0.20131 0.0
H767 H 0.35167 0.29584 0.20245 0.0
H768 H 0.38289 0.23948 0.23015 0.0
C769 C 0.45951 0.2715 0.17586 0.0
C770 C 0.90058 0.31134 0.80579 0.0
C771 C 0.94099 0.31646 0.8119 0.0
H772 H 0.85075 0.27632 0.8159 0.0
C773 C 0.96218 0.28903 0.83284 0.0
H774 H 0.88344 0.33179 0.78963 0.0
C775 C 0.94374 0.25765 0.84756 0.0
C776 C 0.9034 0.2525 0.84202 0.0
H777 H 0.99337 0.29163 0.83809 0.0
H778 H 0.96135 0.23714 0.86315 0.0
C779 C 0.88195 0.2795 0.82061 0.0
C780 C 0.02192 0.66606 0.07246 0.0
C781 C 0.05356 0.68598 0.08812 0.0
H782 H 0.96635 0.66894 0.04251 0.0
C783 C 0.05397 0.72469 0.0833 0.0
H784 H 0.0208 0.63614 0.07572 0.0
C785 C 0.02322 0.74324 0.06442 0.0
C786 C 0.99087 0.72374 0.04975 0.0
H787 H 0.07824 0.74081 0.09421 0.0
H788 H 0.02476 0.77319 0.06185 0.0
C789 C 0.99073 0.6848 0.05355 0.0
C790 C 0.58848 0.80594 0.35553 0.0
C791 C 0.62423 0.81784 0.3396 0.0
H792 H 0.54315 0.76573 0.35528 0.0
C793 C 0.64297 0.7953 0.31134 0.0
H794 H 0.57374 0.82181 0.37817 0.0
C795 C 0.62545 0.76238 0.29838 0.0
C796 C 0.58885 0.75157 0.31336 0.0
H797 H 0.67057 0.80362 0.29844 0.0
H798 H 0.63986 0.74615 0.27582 0.0
C799 C 0.57104 0.77347 0.34254 0.0
C800 C 0.5021 0.33645 0.53984 0.0
C801 C 0.54054 0.35018 0.54051 0.0
H802 H 0.44251 0.34351 0.55819 0.0
C803 C 0.54747 0.38433 0.55879 0.0
H804 H 0.4958 0.31025 0.52584 0.0
C805 C 0.51672 0.40335 0.57782 0.0
C806 C 0.4785 0.38884 0.57818 0.0
H807 H 0.57683 0.39546 0.55989 0.0
H808 H 0.52291 0.42911 0.59271 0.0
C809 C 0.47147 0.3556 0.55823 0.0
C810 C 0.14389 0.77901 0.69485 0.0
C811 C 0.12024 0.75091 0.67913 0.0
H812 H 0.14575 0.83358 0.72029 0.0
C813 C 0.0794 0.75641 0.67856 0.0
H814 H 0.17551 0.77563 0.69561 0.0
C815 C 0.06257 0.78928 0.69234 0.0
C816 C 0.08596 0.81784 0.70735 0.0
H817 H 0.06021 0.73513 0.66749 0.0
H818 H 0.03091 0.79218 0.69098 0.0
C819 C 0.12689 0.81226 0.70875 0.0
C820 C 0.52855 0.82654 0.95239 0.0
C821 C 0.49462 0.84527 0.96577 0.0
H822 H 0.58367 0.83008 0.9229 0.0
C823 C 0.49182 0.884 0.96055 0.0
H824 H 0.53215 0.7968 0.95623 0.0
C825 C 0.52183 0.90323 0.94113 0.0
C826 C 0.55493 0.88398 0.92644 0.0
H827 H 0.46615 0.89925 0.97059 0.0
H828 H 0.51861 0.93291 0.93656 0.0
C829 C 0.55816 0.84558 0.93299 0.0
C830 C 1.01057 0.1677 0.44084 0.0
C831 C 0.97948 0.18629 0.42147 0.0
H832 H 0.06379 0.17296 0.47412 0.0
C833 C 0.97782 0.22522 0.42244 0.0
H834 H 1.01261 0.13765 0.44054 0.0
C835 C 1.00673 0.24522 0.44151 0.0
C836 C 0.03837 0.22695 0.46021 0.0
H837 H 0.9539 0.24038 0.40853 0.0
H838 H 1.00425 0.27525 0.44119 0.0
C839 C 0.0399 0.18788 0.45992 0.0
loop_
_geom_bond_atom_site_label_1
_geom_bond_atom_site_label_2
_geom_bond_distance
_geom_bond_site_symmetry_2
_ccdc_geom_bond_type
Tb0 C10 2.825 . S
Tb0 O11 2.347 . S
Tb0 O14 2.366 . S
Tb0 O19 2.418 . S
Tb0 O20 2.384 . S
Tb0 O23 2.479 . S
Tb0 O24 2.471 . S
Eu1 O12 2.418 . S
Eu1 O13 2.384 . S
Eu1 O16 2.479 . S
Eu1 O17 2.471 . S
Eu1 O18 2.347 . S
Eu1 O21 2.366 . S
Eu1 C31 2.825 . S
C2 O18 1.259 . S
C2 O19 1.265 . S
C3 O20 1.255 . S
C3 O21 1.265 . S
C4 C6 1.380 . S
C4 C7 1.374 . S
C4 C10 1.507 . S
C5 C6 1.384 . S
C5 C9 1.387 . S
C5 H32 0.930 . S
C6 C4 1.380 . S
C6 C5 1.384 . S
C6 H33 0.931 . S
C7 C4 1.374 . S
C7 C8 1.390 . S
C7 H34 0.930 . S
C8 C7 1.390 . S
C8 C9 1.391 . S
C8 H35 0.930 . S
C9 C5 1.387 . S
C9 C8 1.391 . S
C10 Tb0 2.825 . S
C10 C4 1.507 . S
C10 O23 1.238 . S
C10 O24 1.247 . S
O11 Tb0 2.347 . S
O11 C15 1.259 . S
O12 Eu1 2.418 . S
O12 C15 1.265 . S
O13 Eu1 2.384 . S
O13 C22 1.255 . S
O14 Tb0 2.366 . S
O14 C22 1.265 . S
C15 O11 1.259 . S
C15 O12 1.265 . S
O16 Eu1 2.479 . S
O16 C31 1.238 . S
O17 Eu1 2.471 . S
O17 C31 1.247 . S
O18 Eu1 2.347 . S
O18 C2 1.259 . S
O19 Tb0 2.418 . S
O19 C2 1.265 . S
O20 Tb0 2.384 . S
O20 C3 1.255 . S
O21 Eu1 2.366 . S
O21 C3 1.265 . S
C22 O13 1.255 . S
C22 O14 1.265 . S
O23 Tb0 2.479 . S
O23 C10 1.238 . S
O24 Tb0 2.471 . S
O24 C10 1.247 . S
C25 C28 1.380 . S
C25 C29 1.374 . S
C25 C31 1.507 . S
C26 C27 1.387 . S
C26 C30 1.391 . S
C27 C26 1.387 . S
C27 C28 1.384 . S
C27 H36 0.930 . S
C28 C25 1.380 . S
C28 C27 1.384 . S
C28 H37 0.931 . S
C29 C25 1.374 . S
C29 C30 1.390 . S
C29 H38 0.930 . S
C30 C26 1.391 . S
C30 C29 1.390 . S
C30 H39 0.930 . S
C31 Eu1 2.825 . S
C31 O16 1.238 . S
C31 O17 1.247 . S
C31 C25 1.507 . S
H32 C5 0.930 . S
H33 C6 0.931 . S
H34 C7 0.930 . S
H35 C8 0.930 . S
H36 C27 0.930 . S
H37 C28 0.931 . S
H38 C29 0.930 . S
H39 C30 0.930 . S
Tb40 C50 2.825 . S
Tb40 O51 2.347 . S
Tb40 O54 2.366 1_655 S
Tb40 O59 2.418 1_655 S
Tb40 O60 2.384 . S
Tb40 O63 2.479 . S
Tb40 O64 2.471 . S
Eu41 O52 2.418 1_455 S
Eu41 O53 2.384 . S
Eu41 O56 2.479 . S
Eu41 O57 2.471 . S
Eu41 O58 2.347 . S
Eu41 O61 2.366 . S
Eu41 C71 2.825 . S
C42 O58 1.259 . S
C42 O59 1.265 . S
C43 O60 1.255 . S
C43 O61 1.265 1_655 S
C44 C46 1.380 . S
C44 C47 1.374 . S
C44 C50 1.507 . S
C45 C46 1.384 . S
C45 C49 1.387 . S
C45 H72 0.930 . S
C46 C44 1.380 . S
C46 C45 1.384 . S
C46 H73 0.931 . S
C47 C44 1.374 . S
C47 C48 1.390 . S
C47 H74 0.930 . S
C48 C47 1.390 . S
C48 C49 1.391 . S
C48 H75 0.930 . S
C49 C45 1.387 . S
C49 C48 1.391 . S
C50 Tb40 2.825 . S
C50 C44 1.507 . S
C50 O63 1.238 . S
C50 O64 1.247 . S
O51 Tb40 2.347 . S
O51 C55 1.259 . S
O52 Eu41 2.418 1_655 S
O52 C55 1.265 . S
O53 Eu41 2.384 . S
O53 C62 1.255 . S
O54 Tb40 2.366 1_455 S
O54 C62 1.265 . S
C55 O51 1.259 . S
C55 O52 1.265 . S
O56 Eu41 2.479 . S
O56 C71 1.238 . S
O57 Eu41 2.471 . S
O57 C71 1.247 . S
O58 Eu41 2.347 . S
O58 C42 1.259 . S
O59 Tb40 2.418 1_455 S
O59 C42 1.265 . S
O60 Tb40 2.384 . S
O60 C43 1.255 . S
O61 Eu41 2.366 . S
O61 C43 1.265 1_455 S
C62 O53 1.255 . S
C62 O54 1.265 . S
O63 Tb40 2.479 . S
O63 C50 1.238 . S
O64 Tb40 2.471 . S
O64 C50 1.247 . S
C65 C68 1.380 . S
C65 C69 1.374 . S
C65 C71 1.507 . S
C66 C67 1.387 . S
C66 C70 1.391 . S
C67 C66 1.387 . S
C67 C68 1.384 . S
C67 H76 0.930 . S
C68 C65 1.380 . S
C68 C67 1.384 . S
C68 H77 0.931 . S
C69 C65 1.374 . S
C69 C70 1.390 . S
C69 H78 0.930 . S
C70 C66 1.391 . S
C70 C69 1.390 . S
C70 H79 0.930 . S
C71 Eu41 2.825 . S
C71 O56 1.238 . S
C71 O57 1.247 . S
C71 C65 1.507 . S
H72 C45 0.930 . S
H73 C46 0.931 . S
H74 C47 0.930 . S
H75 C48 0.930 . S
H76 C67 0.930 . S
H77 C68 0.931 . S
H78 C69 0.930 . S
H79 C70 0.930 . S
Tb80 C90 2.825 . S
Tb80 O91 2.347 . S
Tb80 O94 2.366 . S
Tb80 O99 2.418 1_554 S
Tb80 O100 2.384 . S
Tb80 O103 2.479 . S
Tb80 O104 2.471 . S
Eu81 O92 2.418 1_556 S
Eu81 O93 2.384 . S
Eu81 O96 2.479 . S
Eu81 O97 2.471 . S
Eu81 O98 2.347 . S
Eu81 O101 2.366 . S
Eu81 C111 2.825 . S
C82 O98 1.259 . S
C82 O99 1.265 . S
C83 O100 1.255 . S
C83 O101 1.265 1_554 S
C84 C86 1.380 . S
C84 C87 1.374 . S
C84 C90 1.507 . S
C85 C86 1.384 . S
C85 C89 1.387 . S
C85 H112 0.930 . S
C86 C84 1.380 . S
C86 C85 1.384 . S
C86 H113 0.931 . S
C87 C84 1.374 . S
C87 C88 1.390 . S
C87 H114 0.930 . S
C88 C87 1.390 . S
C88 C89 1.391 . S
C88 H115 0.930 . S
C89 C85 1.387 . S
C89 C88 1.391 . S
C90 Tb80 2.825 . S
C90 C84 1.507 . S
C90 O103 1.238 . S
C90 O104 1.247 . S
O91 Tb80 2.347 . S
O91 C95 1.259 . S
O92 Eu81 2.418 1_554 S
O92 C95 1.265 . S
O93 Eu81 2.384 . S
O93 C102 1.255 . S
O94 Tb80 2.366 . S
O94 C102 1.265 1_554 S
C95 O91 1.259 . S
C95 O92 1.265 . S
O96 Eu81 2.479 . S
O96 C111 1.238 . S
O97 Eu81 2.471 . S
O97 C111 1.247 . S
O98 Eu81 2.347 . S
O98 C82 1.259 . S
O99 Tb80 2.418 1_556 S
O99 C82 1.265 . S
O100 Tb80 2.384 . S
O100 C83 1.255 . S
O101 Eu81 2.366 . S
O101 C83 1.265 1_556 S
C102 O93 1.255 . S
C102 O94 1.265 1_556 S
O103 Tb80 2.479 . S
O103 C90 1.238 . S
O104 Tb80 2.471 . S
O104 C90 1.247 . S
C105 C108 1.380 . S
C105 C109 1.374 . S
C105 C111 1.507 . S
C106 C107 1.387 . S
C106 C110 1.391 . S
C107 C106 1.387 . S
C107 C108 1.384 . S
C107 H116 0.930 . S
C108 C105 1.380 . S
C108 C107 1.384 . S
C108 H117 0.931 . S
C109 C105 1.374 . S
C109 C110 1.390 . S
C109 H118 0.930 . S
C110 C106 1.391 . S
C110 C109 1.390 . S
C110 H119 0.930 . S
C111 Eu81 2.825 . S
C111 O96 1.238 . S
C111 O97 1.247 . S
C111 C105 1.507 . S
H112 C85 0.930 . S
H113 C86 0.931 . S
H114 C87 0.930 . S
H115 C88 0.930 . S
H116 C107 0.930 . S
H117 C108 0.931 . S
H118 C109 0.930 . S
H119 C110 0.930 . S
Tb120 C130 2.825 . S
Tb120 O131 2.347 . S
Tb120 O134 2.366 . S
Tb120 O139 2.418 . S
Tb120 O140 2.384 . S
Tb120 O143 2.479 . S
Tb120 O144 2.471 . S
Eu121 O132 2.418 . S
Eu121 O133 2.384 . S
Eu121 O136 2.479 . S
Eu121 O137 2.471 . S
Eu121 O138 2.347 . S
Eu121 O141 2.366 . S
Eu121 C151 2.825 . S
C122 O138 1.259 . S
C122 O139 1.265 . S
C123 O140 1.255 . S
C123 O141 1.265 . S
C124 C126 1.380 . S
C124 C127 1.374 . S
C124 C130 1.507 . S
C125 C126 1.384 . S
C125 C129 1.387 . S
C125 H152 0.930 . S
C126 C124 1.380 . S
C126 C125 1.384 . S
C126 H153 0.931 . S
C127 C124 1.374 . S
C127 C128 1.390 . S
C127 H154 0.930 . S
C128 C127 1.390 . S
C128 C129 1.391 . S
C128 H155 0.930 . S
C129 C125 1.387 . S
C129 C128 1.391 . S
C130 Tb120 2.825 . S
C130 C124 1.507 . S
C130 O143 1.238 . S
C130 O144 1.247 . S
O131 Tb120 2.347 . S
O131 C135 1.259 . S
O132 Eu121 2.418 . S
O132 C135 1.265 . S
O133 Eu121 2.384 . S
O133 C142 1.255 . S
O134 Tb120 2.366 . S
O134 C142 1.265 . S
C135 O131 1.259 . S
C135 O132 1.265 . S
O136 Eu121 2.479 . S
O136 C151 1.238 . S
O137 Eu121 2.471 . S
O137 C151 1.247 . S
O138 Eu121 2.347 . S
O138 C122 1.259 . S
O139 Tb120 2.418 . S
O139 C122 1.265 . S
O140 Tb120 2.384 . S
O140 C123 1.255 . S
O141 Eu121 2.366 . S
O141 C123 1.265 . S
C142 O133 1.255 . S
C142 O134 1.265 . S
O143 Tb120 2.479 . S
O143 C130 1.238 . S
O144 Tb120 2.471 . S
O144 C130 1.247 . S
C145 C148 1.380 . S
C145 C149 1.374 . S
C145 C151 1.507 . S
C146 C147 1.387 . S
C146 C150 1.391 . S
C147 C146 1.387 . S
C147 C148 1.384 . S
C147 H156 0.930 . S
C148 C145 1.380 . S
C148 C147 1.384 . S
C148 H157 0.931 . S
C149 C145 1.374 . S
C149 C150 1.390 . S
C149 H158 0.930 . S
C150 C146 1.391 . S
C150 C149 1.390 . S
C150 H159 0.930 . S
C151 Eu121 2.825 . S
C151 O136 1.238 . S
C151 O137 1.247 . S
C151 C145 1.507 . S
H152 C125 0.930 . S
H153 C126 0.931 . S
H154 C127 0.930 . S
H155 C128 0.930 . S
H156 C147 0.930 . S
H157 C148 0.931 . S
H158 C149 0.930 . S
H159 C150 0.930 . S
Tb160 C170 2.825 . S
Tb160 O171 2.347 . S
Tb160 O174 2.366 . S
Tb160 O179 2.418 . S
Tb160 O180 2.384 . S
Tb160 O183 2.479 . S
Tb160 O184 2.471 . S
Eu161 O172 2.418 . S
Eu161 O173 2.384 . S
Eu161 O176 2.479 . S
Eu161 O177 2.471 . S
Eu161 O178 2.347 . S
Eu161 O181 2.366 . S
Eu161 C191 2.825 . S
C162 O178 1.259 . S
C162 O179 1.265 . S
C163 O180 1.255 . S
C163 O181 1.265 . S
C164 C166 1.380 . S
C164 C167 1.374 . S
C164 C170 1.507 . S
C165 C166 1.384 . S
C165 C169 1.387 . S
C165 H192 0.930 . S
C166 C164 1.380 . S
C166 C165 1.384 . S
C166 H193 0.931 . S
C167 C164 1.374 . S
C167 C168 1.390 . S
C167 H194 0.930 . S
C168 C167 1.390 . S
C168 C169 1.391 . S
C168 H195 0.930 . S
C169 C165 1.387 . S
C169 C168 1.391 . S
C170 Tb160 2.825 . S
C170 C164 1.507 . S
C170 O183 1.238 . S
C170 O184 1.247 . S
O171 Tb160 2.347 . S
O171 C175 1.259 . S
O172 Eu161 2.418 . S
O172 C175 1.265 . S
O173 Eu161 2.384 . S
O173 C182 1.255 . S
O174 Tb160 2.366 . S
O174 C182 1.265 . S
C175 O171 1.259 . S
C175 O172 1.265 . S
O176 Eu161 2.479 . S
O176 C191 1.238 . S
O177 Eu161 2.471 . S
O177 C191 1.247 . S
O178 Eu161 2.347 . S
O178 C162 1.259 . S
O179 Tb160 2.418 . S
O179 C162 1.265 . S
O180 Tb160 2.384 . S
O180 C163 1.255 . S
O181 Eu161 2.366 . S
O181 C163 1.265 . S
C182 O173 1.255 . S
C182 O174 1.265 . S
O183 Tb160 2.479 . S
O183 C170 1.238 . S
O184 Tb160 2.471 . S
O184 C170 1.247 . S
C185 C188 1.380 . S
C185 C189 1.374 . S
C185 C191 1.507 . S
C186 C187 1.387 . S
C186 C190 1.391 . S
C187 C186 1.387 . S
C187 C188 1.384 . S
C187 H196 0.930 . S
C188 C185 1.380 . S
C188 C187 1.384 . S
C188 H197 0.931 . S
C189 C185 1.374 . S
C189 C190 1.390 . S
C189 H198 0.930 . S
C190 C186 1.391 . S
C190 C189 1.390 . S
C190 H199 0.930 . S
C191 Eu161 2.825 . S
C191 O176 1.238 . S
C191 O177 1.247 . S
C191 C185 1.507 . S
H192 C165 0.930 . S
H193 C166 0.931 . S
H194 C167 0.930 . S
H195 C168 0.930 . S
H196 C187 0.930 . S
H197 C188 0.931 . S
H198 C189 0.930 . S
H199 C190 0.930 . S
Tb200 C210 2.825 . S
Tb200 O211 2.347 . S
Tb200 O214 2.366 . S
Tb200 O219 2.418 . S
Tb200 O220 2.384 1_655 S
Tb200 O223 2.479 . S
Tb200 O224 2.471 . S
Eu201 O212 2.418 . S
Eu201 O213 2.384 1_455 S
Eu201 O216 2.479 . S
Eu201 O217 2.471 . S
Eu201 O218 2.347 1_455 S
Eu201 O221 2.366 . S
Eu201 C231 2.825 . S
C202 O218 1.259 . S
C202 O219 1.265 . S
C203 O220 1.255 . S
C203 O221 1.265 . S
C204 C206 1.380 . S
C204 C207 1.374 . S
C204 C210 1.507 . S
C205 C206 1.384 . S
C205 C209 1.387 . S
C205 H232 0.930 . S
C206 C204 1.380 . S
C206 C205 1.384 . S
C206 H233 0.931 . S
C207 C204 1.374 . S
C207 C208 1.390 . S
C207 H234 0.930 . S
C208 C207 1.390 . S
C208 C209 1.391 . S
C208 H235 0.930 . S
C209 C205 1.387 . S
C209 C208 1.391 . S
C210 Tb200 2.825 . S
C210 C204 1.507 . S
C210 O223 1.238 . S
C210 O224 1.247 . S
O211 Tb200 2.347 . S
O211 C215 1.259 1_655 S
O212 Eu201 2.418 . S
O212 C215 1.265 . S
O213 Eu201 2.384 1_655 S
O213 C222 1.255 . S
O214 Tb200 2.366 . S
O214 C222 1.265 . S
C215 O211 1.259 1_455 S
C215 O212 1.265 . S
O216 Eu201 2.479 . S
O216 C231 1.238 . S
O217 Eu201 2.471 . S
O217 C231 1.247 . S
O218 Eu201 2.347 1_655 S
O218 C202 1.259 . S
O219 Tb200 2.418 . S
O219 C202 1.265 . S
O220 Tb200 2.384 1_455 S
O220 C203 1.255 . S
O221 Eu201 2.366 . S
O221 C203 1.265 . S
C222 O213 1.255 . S
C222 O214 1.265 . S
O223 Tb200 2.479 . S
O223 C210 1.238 . S
O224 Tb200 2.471 . S
O224 C210 1.247 . S
C225 C228 1.380 . S
C225 C229 1.374 . S
C225 C231 1.507 . S
C226 C227 1.387 . S
C226 C230 1.391 . S
C227 C226 1.387 . S
C227 C228 1.384 . S
C227 H236 0.930 . S
C228 C225 1.380 . S
C228 C227 1.384 . S
C228 H237 0.931 . S
C229 C225 1.374 . S
C229 C230 1.390 . S
C229 H238 0.930 . S
C230 C226 1.391 . S
C230 C229 1.390 . S
C230 H239 0.930 . S
C231 Eu201 2.825 . S
C231 O216 1.238 . S
C231 O217 1.247 . S
C231 C225 1.507 . S
H232 C205 0.930 . S
H233 C206 0.931 . S
H234 C207 0.930 . S
H235 C208 0.930 . S
H236 C227 0.930 . S
H237 C228 0.931 . S
H238 C229 0.930 . S
H239 C230 0.930 . S
Tb240 C250 2.825 . S
Tb240 O251 2.347 1_554 S
Tb240 O254 2.366 . S
Tb240 O259 2.418 . S
Tb240 O260 2.384 1_554 S
Tb240 O263 2.479 . S
Tb240 O264 2.471 . S
Eu241 O252 2.418 . S
Eu241 O253 2.384 1_556 S
Eu241 O256 2.479 . S
Eu241 O257 2.471 . S
Eu241 O258 2.347 1_556 S
Eu241 O261 2.366 . S
Eu241 C271 2.825 . S
C242 O258 1.259 . S
C242 O259 1.265 . S
C243 O260 1.255 . S
C243 O261 1.265 . S
C244 C246 1.380 . S
C244 C247 1.374 . S
C244 C250 1.507 . S
C245 C246 1.384 . S
C245 C249 1.387 . S
C245 H272 0.930 . S
C246 C244 1.380 . S
C246 C245 1.384 . S
C246 H273 0.931 . S
C247 C244 1.374 . S
C247 C248 1.390 . S
C247 H274 0.930 . S
C248 C247 1.390 . S
C248 C249 1.391 . S
C248 H275 0.930 . S
C249 C245 1.387 . S
C249 C248 1.391 . S
C250 Tb240 2.825 . S
C250 C244 1.507 . S
C250 O263 1.238 . S
C250 O264 1.247 . S
O251 Tb240 2.347 1_556 S
O251 C255 1.259 . S
O252 Eu241 2.418 . S
O252 C255 1.265 . S
O253 Eu241 2.384 1_554 S
O253 C262 1.255 . S
O254 Tb240 2.366 . S
O254 C262 1.265 . S
C255 O251 1.259 . S
C255 O252 1.265 . S
O256 Eu241 2.479 . S
O256 C271 1.238 . S
O257 Eu241 2.471 . S
O257 C271 1.247 . S
O258 Eu241 2.347 1_554 S
O258 C242 1.259 . S
O259 Tb240 2.418 . S
O259 C242 1.265 . S
O260 Tb240 2.384 1_556 S
O260 C243 1.255 . S
O261 Eu241 2.366 . S
O261 C243 1.265 . S
C262 O253 1.255 . S
C262 O254 1.265 . S
O263 Tb240 2.479 . S
O263 C250 1.238 . S
O264 Tb240 2.471 . S
O264 C250 1.247 . S
C265 C268 1.380 . S
C265 C269 1.374 . S
C265 C271 1.507 . S
C266 C267 1.387 . S
C266 C270 1.391 . S
C267 C266 1.387 . S
C267 C268 1.384 . S
C267 H276 0.930 . S
C268 C265 1.380 . S
C268 C267 1.384 . S
C268 H277 0.931 . S
C269 C265 1.374 . S
C269 C270 1.390 . S
C269 H278 0.930 . S
C270 C266 1.391 . S
C270 C269 1.390 . S
C270 H279 0.930 . S
C271 Eu241 2.825 . S
C271 O256 1.238 . S
C271 O257 1.247 . S
C271 C265 1.507 . S
H272 C245 0.930 . S
H273 C246 0.931 . S
H274 C247 0.930 . S
H275 C248 0.930 . S
H276 C267 0.930 . S
H277 C268 0.931 . S
H278 C269 0.930 . S
H279 C270 0.930 . S
Tb280 C290 2.825 . S
Tb280 O291 2.347 . S
Tb280 O294 2.366 . S
Tb280 O299 2.418 . S
Tb280 O300 2.384 . S
Tb280 O303 2.479 . S
Tb280 O304 2.471 . S
Eu281 O292 2.418 . S
Eu281 O293 2.384 . S
Eu281 O296 2.479 . S
Eu281 O297 2.471 . S
Eu281 O298 2.347 . S
Eu281 O301 2.366 . S
Eu281 C311 2.825 . S
C282 O298 1.259 . S
C282 O299 1.265 . S
C283 O300 1.255 . S
C283 O301 1.265 . S
C284 C286 1.380 . S
C284 C287 1.374 . S
C284 C290 1.507 . S
C285 C286 1.384 . S
C285 C289 1.387 . S
C285 H312 0.930 . S
C286 C284 1.380 . S
C286 C285 1.384 . S
C286 H313 0.931 . S
C287 C284 1.374 . S
C287 C288 1.390 . S
C287 H314 0.930 . S
C288 C287 1.390 . S
C288 C289 1.391 . S
C288 H315 0.930 . S
C289 C285 1.387 . S
C289 C288 1.391 . S
C290 Tb280 2.825 . S
C290 C284 1.507 . S
C290 O303 1.238 . S
C290 O304 1.247 . S
O291 Tb280 2.347 . S
O291 C295 1.259 . S
O292 Eu281 2.418 . S
O292 C295 1.265 . S
O293 Eu281 2.384 . S
O293 C302 1.255 . S
O294 Tb280 2.366 . S
O294 C302 1.265 . S
C295 O291 1.259 . S
C295 O292 1.265 . S
O296 Eu281 2.479 . S
O296 C311 1.238 . S
O297 Eu281 2.471 . S
O297 C311 1.247 . S
O298 Eu281 2.347 . S
O298 C282 1.259 . S
O299 Tb280 2.418 . S
O299 C282 1.265 . S
O300 Tb280 2.384 . S
O300 C283 1.255 . S
O301 Eu281 2.366 . S
O301 C283 1.265 . S
C302 O293 1.255 . S
C302 O294 1.265 . S
O303 Tb280 2.479 . S
O303 C290 1.238 . S
O304 Tb280 2.471 . S
O304 C290 1.247 . S
C305 C308 1.380 . S
C305 C309 1.374 . S
C305 C311 1.507 . S
C306 C307 1.387 . S
C306 C310 1.391 . S
C307 C306 1.387 . S
C307 C308 1.384 . S
C307 H316 0.930 . S
C308 C305 1.380 . S
C308 C307 1.384 . S
C308 H317 0.931 . S
C309 C305 1.374 . S
C309 C310 1.390 . S
C309 H318 0.930 . S
C310 C306 1.391 . S
C310 C309 1.390 . S
C310 H319 0.930 . S
C311 Eu281 2.825 . S
C311 O296 1.238 . S
C311 O297 1.247 . S
C311 C305 1.507 . S
H312 C285 0.930 . S
H313 C286 0.931 . S
H314 C287 0.930 . S
H315 C288 0.930 . S
H316 C307 0.930 . S
H317 C308 0.931 . S
H318 C309 0.930 . S
H319 C310 0.930 . S
Tb320 C330 2.825 . S
Tb320 O331 2.347 . S
Tb320 O334 2.366 . S
Tb320 O339 2.418 . S
Tb320 O340 2.384 . S
Tb320 O343 2.479 . S
Tb320 O344 2.471 . S
Eu321 O332 2.418 . S
Eu321 O333 2.384 . S
Eu321 O336 2.479 . S
Eu321 O337 2.471 . S
Eu321 O338 2.347 . S
Eu321 O341 2.366 . S
Eu321 C351 2.825 . S
C322 O338 1.259 . S
C322 O339 1.265 . S
C323 O340 1.255 . S
C323 O341 1.265 . S
C324 C326 1.380 . S
C324 C327 1.374 . S
C324 C330 1.507 . S
C325 C326 1.384 . S
C325 C329 1.387 . S
C325 H352 0.930 . S
C326 C324 1.380 . S
C326 C325 1.384 . S
C326 H353 0.931 . S
C327 C324 1.374 . S
C327 C328 1.390 . S
C327 H354 0.930 . S
C328 C327 1.390 . S
C328 C329 1.391 . S
C328 H355 0.930 . S
C329 C325 1.387 . S
C329 C328 1.391 . S
C330 Tb320 2.825 . S
C330 C324 1.507 . S
C330 O343 1.238 . S
C330 O344 1.247 . S
O331 Tb320 2.347 . S
O331 C335 1.259 . S
O332 Eu321 2.418 . S
O332 C335 1.265 . S
O333 Eu321 2.384 . S
O333 C342 1.255 . S
O334 Tb320 2.366 . S
O334 C342 1.265 . S
C335 O331 1.259 . S
C335 O332 1.265 . S
O336 Eu321 2.479 . S
O336 C351 1.238 . S
O337 Eu321 2.471 . S
O337 C351 1.247 . S
O338 Eu321 2.347 . S
O338 C322 1.259 . S
O339 Tb320 2.418 . S
O339 C322 1.265 . S
O340 Tb320 2.384 . S
O340 C323 1.255 . S
O341 Eu321 2.366 . S
O341 C323 1.265 . S
C342 O333 1.255 . S
C342 O334 1.265 . S
O343 Tb320 2.479 . S
O343 C330 1.238 . S
O344 Tb320 2.471 . S
O344 C330 1.247 . S
C345 C348 1.380 . S
C345 C349 1.374 . S
C345 C351 1.507 . S
C346 C347 1.387 . S
C346 C350 1.391 . S
C347 C346 1.387 . S
C347 C348 1.384 . S
C347 H356 0.930 . S
C348 C345 1.380 . S
C348 C347 1.384 . S
C348 H357 0.931 . S
C349 C345 1.374 . S
C349 C350 1.390 . S
C349 H358 0.930 . S
C350 C346 1.391 . S
C350 C349 1.390 . S
C350 H359 0.930 . S
C351 Eu321 2.825 . S
C351 O336 1.238 . S
C351 O337 1.247 . S
C351 C345 1.507 . S
H352 C325 0.930 . S
H353 C326 0.931 . S
H354 C327 0.930 . S
H355 C328 0.930 . S
H356 C347 0.930 . S
H357 C348 0.931 . S
H358 C349 0.930 . S
H359 C350 0.930 . S
Tb360 C370 2.825 . S
Tb360 O371 2.347 1_545 S
Tb360 O374 2.366 . S
Tb360 O379 2.418 . S
Tb360 O380 2.384 1_545 S
Tb360 O383 2.479 . S
Tb360 O384 2.471 . S
Eu361 O372 2.418 . S
Eu361 O373 2.384 1_565 S
Eu361 O376 2.479 . S
Eu361 O377 2.471 . S
Eu361 O378 2.347 1_565 S
Eu361 O381 2.366 . S
Eu361 C391 2.825 . S
C362 O378 1.259 . S
C362 O379 1.265 . S
C363 O380 1.255 . S
C363 O381 1.265 . S
C364 C366 1.380 . S
C364 C367 1.374 . S
C364 C370 1.507 . S
C365 C366 1.384 . S
C365 C369 1.387 . S
C365 H392 0.930 . S
C366 C364 1.380 . S
C366 C365 1.384 . S
C366 H393 0.931 . S
C367 C364 1.374 . S
C367 C368 1.390 . S
C367 H394 0.930 . S
C368 C367 1.390 . S
C368 C369 1.391 . S
C368 H395 0.930 . S
C369 C365 1.387 . S
C369 C368 1.391 . S
C370 Tb360 2.825 . S
C370 C364 1.507 . S
C370 O383 1.238 . S
C370 O384 1.247 . S
O371 Tb360 2.347 1_565 S
O371 C375 1.259 . S
O372 Eu361 2.418 . S
O372 C375 1.265 . S
O373 Eu361 2.384 1_545 S
O373 C382 1.255 . S
O374 Tb360 2.366 . S
O374 C382 1.265 . S
C375 O371 1.259 . S
C375 O372 1.265 . S
O376 Eu361 2.479 . S
O376 C391 1.238 . S
O377 Eu361 2.471 . S
O377 C391 1.247 . S
O378 Eu361 2.347 1_545 S
O378 C362 1.259 . S
O379 Tb360 2.418 . S
O379 C362 1.265 . S
O380 Tb360 2.384 1_565 S
O380 C363 1.255 . S
O381 Eu361 2.366 . S
O381 C363 1.265 . S
C382 O373 1.255 . S
C382 O374 1.265 . S
O383 Tb360 2.479 . S
O383 C370 1.238 . S
O384 Tb360 2.471 . S
O384 C370 1.247 . S
C385 C388 1.380 . S
C385 C389 1.374 . S
C385 C391 1.507 . S
C386 C387 1.387 . S
C386 C390 1.391 . S
C387 C386 1.387 . S
C387 C388 1.384 . S
C387 H396 0.930 . S
C388 C385 1.380 . S
C388 C387 1.384 . S
C388 H397 0.931 . S
C389 C385 1.374 . S
C389 C390 1.390 . S
C389 H398 0.930 . S
C390 C386 1.391 . S
C390 C389 1.390 . S
C390 H399 0.930 . S
C391 Eu361 2.825 . S
C391 O376 1.238 . S
C391 O377 1.247 . S
C391 C385 1.507 . S
H392 C365 0.930 . S
H393 C366 0.931 . S
H394 C367 0.930 . S
H395 C368 0.930 . S
H396 C387 0.930 . S
H397 C388 0.931 . S
H398 C389 0.930 . S
H399 C390 0.930 . S
Tb400 C410 2.825 . S
Tb400 O411 2.347 1_565 S
Tb400 O414 2.366 . S
Tb400 O419 2.418 . S
Tb400 O420 2.384 1_565 S
Tb400 O423 2.479 . S
Tb400 O424 2.471 . S
Eu401 O412 2.418 . S
Eu401 O413 2.384 1_545 S
Eu401 O416 2.479 . S
Eu401 O417 2.471 . S
Eu401 O418 2.347 1_545 S
Eu401 O421 2.366 . S
Eu401 C431 2.825 . S
C402 O418 1.259 . S
C402 O419 1.265 . S
C403 O420 1.255 . S
C403 O421 1.265 . S
C404 C406 1.380 . S
C404 C407 1.374 . S
C404 C410 1.507 . S
C405 C406 1.384 . S
C405 C409 1.387 . S
C405 H432 0.930 . S
C406 C404 1.380 . S
C406 C405 1.384 . S
C406 H433 0.931 . S
C407 C404 1.374 . S
C407 C408 1.390 . S
C407 H434 0.930 . S
C408 C407 1.390 . S
C408 C409 1.391 . S
C408 H435 0.930 . S
C409 C405 1.387 . S
C409 C408 1.391 . S
C410 Tb400 2.825 . S
C410 C404 1.507 . S
C410 O423 1.238 . S
C410 O424 1.247 . S
O411 Tb400 2.347 1_545 S
O411 C415 1.259 . S
O412 Eu401 2.418 . S
O412 C415 1.265 . S
O413 Eu401 2.384 1_565 S
O413 C422 1.255 . S
O414 Tb400 2.366 . S
O414 C422 1.265 . S
C415 O411 1.259 . S
C415 O412 1.265 . S
O416 Eu401 2.479 . S
O416 C431 1.238 . S
O417 Eu401 2.471 . S
O417 C431 1.247 . S
O418 Eu401 2.347 1_565 S
O418 C402 1.259 . S
O419 Tb400 2.418 . S
O419 C402 1.265 . S
O420 Tb400 2.384 1_545 S
O420 C403 1.255 . S
O421 Eu401 2.366 . S
O421 C403 1.265 . S
C422 O413 1.255 . S
C422 O414 1.265 . S
O423 Tb400 2.479 . S
O423 C410 1.238 . S
O424 Tb400 2.471 . S
O424 C410 1.247 . S
C425 C428 1.380 . S
C425 C429 1.374 . S
C425 C431 1.507 . S
C426 C427 1.387 . S
C426 C430 1.391 . S
C427 C426 1.387 . S
C427 C428 1.384 . S
C427 H436 0.930 . S
C428 C425 1.380 . S
C428 C427 1.384 . S
C428 H437 0.931 . S
C429 C425 1.374 . S
C429 C430 1.390 . S
C429 H438 0.930 . S
C430 C426 1.391 . S
C430 C429 1.390 . S
C430 H439 0.930 . S
C431 Eu401 2.825 . S
C431 O416 1.238 . S
C431 O417 1.247 . S
C431 C425 1.507 . S
H432 C405 0.930 . S
H433 C406 0.931 . S
H434 C407 0.930 . S
H435 C408 0.930 . S
H436 C427 0.930 . S
H437 C428 0.931 . S
H438 C429 0.930 . S
H439 C430 0.930 . S
Tb440 C450 2.825 . S
Tb440 O451 2.347 . S
Tb440 O454 2.366 . S
Tb440 O459 2.418 . S
Tb440 O460 2.384 . S
Tb440 O463 2.479 . S
Tb440 O464 2.471 . S
Eu441 O452 2.418 . S
Eu441 O453 2.384 . S
Eu441 O456 2.479 . S
Eu441 O457 2.471 . S
Eu441 O458 2.347 . S
Eu441 O461 2.366 . S
Eu441 C471 2.825 . S
C442 O458 1.259 . S
C442 O459 1.265 . S
C443 O460 1.255 . S
C443 O461 1.265 . S
C444 C446 1.380 . S
C444 C447 1.374 . S
C444 C450 1.507 . S
C445 C446 1.384 . S
C445 C449 1.387 . S
C445 H472 0.930 . S
C446 C444 1.380 . S
C446 C445 1.384 . S
C446 H473 0.931 . S
C447 C444 1.374 . S
C447 C448 1.390 . S
C447 H474 0.930 . S
C448 C447 1.390 . S
C448 C449 1.391 . S
C448 H475 0.930 . S
C449 C445 1.387 . S
C449 C448 1.391 . S
C450 Tb440 2.825 . S
C450 C444 1.507 . S
C450 O463 1.238 . S
C450 O464 1.247 . S
O451 Tb440 2.347 . S
O451 C455 1.259 . S
O452 Eu441 2.418 . S
O452 C455 1.265 . S
O453 Eu441 2.384 . S
O453 C462 1.255 . S
O454 Tb440 2.366 . S
O454 C462 1.265 . S
C455 O451 1.259 . S
C455 O452 1.265 . S
O456 Eu441 2.479 . S
O456 C471 1.238 . S
O457 Eu441 2.471 . S
O457 C471 1.247 . S
O458 Eu441 2.347 . S
O458 C442 1.259 . S
O459 Tb440 2.418 . S
O459 C442 1.265 . S
O460 Tb440 2.384 . S
O460 C443 1.255 . S
O461 Eu441 2.366 . S
O461 C443 1.265 . S
C462 O453 1.255 . S
C462 O454 1.265 . S
O463 Tb440 2.479 . S
O463 C450 1.238 . S
O464 Tb440 2.471 . S
O464 C450 1.247 . S
C465 C468 1.380 . S
C465 C469 1.374 . S
C465 C471 1.507 . S
C466 C467 1.387 . S
C466 C470 1.391 . S
C467 C466 1.387 . S
C467 C468 1.384 . S
C467 H476 0.930 . S
C468 C465 1.380 . S
C468 C467 1.384 . S
C468 H477 0.931 . S
C469 C465 1.374 . S
C469 C470 1.390 . S
C469 H478 0.930 . S
C470 C466 1.391 . S
C470 C469 1.390 . S
C470 H479 0.930 . S
C471 Eu441 2.825 . S
C471 O456 1.238 . S
C471 O457 1.247 . S
C471 C465 1.507 . S
H472 C445 0.930 . S
H473 C446 0.931 . S
H474 C447 0.930 . S
H475 C448 0.930 . S
H476 C467 0.930 . S
H477 C468 0.931 . S
H478 C469 0.930 . S
H479 C470 0.930 . S
C480 C481 1.387 . S
C480 H484 0.950 . S
C480 C489 1.390 . S
C481 C480 1.387 . S
C481 C483 1.387 . S
H482 C489 0.950 . S
C483 C481 1.387 . S
C483 C485 1.390 . S
C483 H487 0.950 . S
H484 C480 0.950 . S
C485 C483 1.390 . S
C485 C486 1.387 . S
C485 H488 0.950 . S
C486 C485 1.387 . S
C486 C489 1.387 . S
H487 C483 0.950 . S
H488 C485 0.950 . S
C489 C480 1.390 . S
C489 H482 0.950 . S
C489 C486 1.387 . S
C490 C491 1.387 . S
C490 H494 0.950 . S
C490 C499 1.390 . S
C491 C490 1.387 . S
C491 C493 1.387 . S
H492 C499 0.950 . S
C493 C491 1.387 . S
C493 C495 1.390 . S
C493 H497 0.950 . S
H494 C490 0.950 . S
C495 C493 1.390 . S
C495 C496 1.387 . S
C495 H498 0.950 . S
C496 C495 1.387 . S
C496 C499 1.387 . S
H497 C493 0.950 . S
H498 C495 0.950 . S
C499 C490 1.390 . S
C499 H492 0.950 . S
C499 C496 1.387 . S
C500 C501 1.387 . S
C500 H504 0.950 . S
C500 C509 1.390 . S
C501 C500 1.387 . S
C501 C503 1.387 . S
H502 C509 0.950 . S
C503 C501 1.387 . S
C503 C505 1.390 . S
C503 H507 0.950 1_554 S
H504 C500 0.950 . S
C505 C503 1.390 . S
C505 C506 1.387 . S
C505 H508 0.950 1_554 S
C506 C505 1.387 . S
C506 C509 1.387 . S
H507 C503 0.950 1_556 S
H508 C505 0.950 1_556 S
C509 C500 1.390 . S
C509 H502 0.950 . S
C509 C506 1.387 . S
C510 C511 1.387 . S
C510 H514 0.950 . S
C510 C519 1.390 . S
C511 C510 1.387 . S
C511 C513 1.387 . S
H512 C519 0.950 . S
C513 C511 1.387 . S
C513 C515 1.390 . S
C513 H517 0.950 . S
H514 C510 0.950 . S
C515 C513 1.390 . S
C515 C516 1.387 . S
C515 H518 0.950 . S
C516 C515 1.387 . S
C516 C519 1.387 . S
H517 C513 0.950 . S
H518 C515 0.950 . S
C519 C510 1.390 . S
C519 H512 0.950 . S
C519 C516 1.387 . S
C520 C521 1.387 . S
C520 H524 0.950 . S
C520 C529 1.390 . S
C521 C520 1.387 . S
C521 C523 1.387 . S
H522 C529 0.950 . S
C523 C521 1.387 . S
C523 C525 1.390 . S
C523 H527 0.950 . S
H524 C520 0.950 . S
C525 C523 1.390 . S
C525 C526 1.387 . S
C525 H528 0.950 . S
C526 C525 1.387 . S
C526 C529 1.387 . S
H527 C523 0.950 . S
H528 C525 0.950 . S
C529 C520 1.390 . S
C529 H522 0.950 . S
C529 C526 1.387 . S
C530 C531 1.387 . S
C530 H534 0.950 . S
C530 C539 1.390 . S
C531 C530 1.387 . S
C531 C533 1.387 . S
H532 C539 0.950 . S
C533 C531 1.387 . S
C533 C535 1.390 . S
C533 H537 0.950 . S
H534 C530 0.950 . S
C535 C533 1.390 . S
C535 C536 1.387 . S
C535 H538 0.950 . S
C536 C535 1.387 . S
C536 C539 1.387 . S
H537 C533 0.950 . S
H538 C535 0.950 . S
C539 C530 1.390 . S
C539 H532 0.950 . S
C539 C536 1.387 . S
C540 C541 1.387 . S
C540 H544 0.950 . S
C540 C549 1.390 . S
C541 C540 1.387 . S
C541 C543 1.387 . S
H542 C549 0.950 . S
C543 C541 1.387 . S
C543 C545 1.390 . S
C543 H547 0.950 . S
H544 C540 0.950 . S
C545 C543 1.390 . S
C545 C546 1.387 . S
C545 H548 0.950 1_556 S
C546 C545 1.387 . S
C546 C549 1.387 . S
H547 C543 0.950 . S
H548 C545 0.950 1_554 S
C549 C540 1.390 . S
C549 H542 0.950 . S
C549 C546 1.387 . S
C550 C551 1.387 . S
C550 H554 0.950 . S
C550 C559 1.390 . S
C551 C550 1.387 . S
C551 C553 1.387 . S
H552 C559 0.950 . S
C553 C551 1.387 . S
C553 C555 1.390 . S
C553 H557 0.950 . S
H554 C550 0.950 . S
C555 C553 1.390 . S
C555 C556 1.387 . S
C555 H558 0.950 . S
C556 C555 1.387 . S
C556 C559 1.387 . S
H557 C553 0.950 . S
H558 C555 0.950 . S
C559 C550 1.390 . S
C559 H552 0.950 . S
C559 C556 1.387 . S
C560 C561 1.387 . S
C560 H564 0.950 . S
C560 C569 1.390 . S
C561 C560 1.387 . S
C561 C563 1.387 . S
H562 C569 0.950 . S
C563 C561 1.387 . S
C563 C565 1.390 . S
C563 H567 0.950 . S
H564 C560 0.950 . S
C565 C563 1.390 . S
C565 C566 1.387 . S
C565 H568 0.950 . S
C566 C565 1.387 . S
C566 C569 1.387 . S
H567 C563 0.950 . S
H568 C565 0.950 . S
C569 C560 1.390 . S
C569 H562 0.950 . S
C569 C566 1.387 . S
C570 C571 1.387 . S
C570 H574 0.950 . S
C570 C579 1.390 . S
C571 C570 1.387 . S
C571 C573 1.387 . S
H572 C579 0.950 . S
C573 C571 1.387 . S
C573 C575 1.390 . S
C573 H577 0.950 . S
H574 C570 0.950 . S
C575 C573 1.390 . S
C575 C576 1.387 . S
C575 H578 0.950 . S
C576 C575 1.387 . S
C576 C579 1.387 . S
H577 C573 0.950 . S
H578 C575 0.950 . S
C579 C570 1.390 . S
C579 H572 0.950 . S
C579 C576 1.387 . S
C580 C581 1.387 . S
C580 H584 0.950 . S
C580 C589 1.390 . S
C581 C580 1.387 . S
C581 C583 1.387 . S
H582 C589 0.950 . S
C583 C581 1.387 . S
C583 C585 1.390 . S
C583 H587 0.950 . S
H584 C580 0.950 . S
C585 C583 1.390 . S
C585 C586 1.387 . S
C585 H588 0.950 . S
C586 C585 1.387 . S
C586 C589 1.387 . S
H587 C583 0.950 . S
H588 C585 0.950 . S
C589 C580 1.390 . S
C589 H582 0.950 . S
C589 C586 1.387 . S
C590 C591 1.387 . S
C590 H594 0.950 . S
C590 C599 1.390 . S
C591 C590 1.387 . S
C591 C593 1.387 . S
H592 C599 0.950 . S
C593 C591 1.387 . S
C593 C595 1.390 . S
C593 H597 0.950 . S
H594 C590 0.950 . S
C595 C593 1.390 . S
C595 C596 1.387 . S
C595 H598 0.950 . S
C596 C595 1.387 . S
C596 C599 1.387 . S
H597 C593 0.950 . S
H598 C595 0.950 . S
C599 C590 1.390 . S
C599 H592 0.950 . S
C599 C596 1.387 . S
C600 C601 1.387 . S
C600 H604 0.950 . S
C600 C609 1.390 . S
C601 C600 1.387 . S
C601 C603 1.387 . S
H602 C609 0.950 . S
C603 C601 1.387 . S
C603 C605 1.390 . S
C603 H607 0.950 . S
H604 C600 0.950 . S
C605 C603 1.390 . S
C605 C606 1.387 . S
C605 H608 0.950 . S
C606 C605 1.387 . S
C606 C609 1.387 . S
H607 C603 0.950 . S
H608 C605 0.950 . S
C609 C600 1.390 . S
C609 H602 0.950 . S
C609 C606 1.387 . S
C610 C611 1.387 . S
C610 H614 0.950 . S
C610 C619 1.390 . S
C611 C610 1.387 . S
C611 C613 1.387 . S
H612 C619 0.950 . S
C613 C611 1.387 . S
C613 C615 1.390 . S
C613 H617 0.950 1_565 S
H614 C610 0.950 . S
C615 C613 1.390 . S
C615 C616 1.387 . S
C615 H618 0.950 1_565 S
C616 C615 1.387 . S
C616 C619 1.387 . S
H617 C613 0.950 1_545 S
H618 C615 0.950 1_545 S
C619 C610 1.390 . S
C619 H612 0.950 . S
C619 C616 1.387 . S
C620 C621 1.387 . S
C620 H624 0.950 . S
C620 C629 1.390 . S
C621 C620 1.387 . S
C621 C623 1.387 . S
H622 C629 0.950 . S
C623 C621 1.387 . S
C623 C625 1.390 . S
C623 H627 0.950 . S
H624 C620 0.950 . S
C625 C623 1.390 . S
C625 C626 1.387 . S
C625 H628 0.950 . S
C626 C625 1.387 . S
C626 C629 1.387 . S
H627 C623 0.950 . S
H628 C625 0.950 . S
C629 C620 1.390 . S
C629 H622 0.950 . S
C629 C626 1.387 . S
C630 C631 1.387 . S
C630 H634 0.950 . S
C630 C639 1.390 1_554 S
C631 C630 1.387 . S
C631 C633 1.387 1_554 S
H632 C639 0.950 . S
C633 C631 1.387 1_556 S
C633 C635 1.390 . S
C633 H637 0.950 . S
H634 C630 0.950 . S
C635 C633 1.390 . S
C635 C636 1.387 . S
C635 H638 0.950 . S
C636 C635 1.387 . S
C636 C639 1.387 . S
H637 C633 0.950 . S
H638 C635 0.950 . S
C639 C630 1.390 1_556 S
C639 H632 0.950 . S
C639 C636 1.387 . S
C640 C641 1.387 . S
C640 H644 0.950 . S
C640 C649 1.390 . S
C641 C640 1.387 . S
C641 C643 1.387 . S
H642 C649 0.950 . S
C643 C641 1.387 . S
C643 C645 1.390 . S
C643 H647 0.950 . S
H644 C640 0.950 . S
C645 C643 1.390 . S
C645 C646 1.387 . S
C645 H648 0.950 . S
C646 C645 1.387 . S
C646 C649 1.387 . S
H647 C643 0.950 . S
H648 C645 0.950 . S
C649 C640 1.390 . S
C649 H642 0.950 . S
C649 C646 1.387 . S
C650 C651 1.387 . S
C650 H654 0.950 . S
C650 C659 1.390 . S
C651 C650 1.387 . S
C651 C653 1.387 . S
H652 C659 0.950 . S
C653 C651 1.387 . S
C653 C655 1.390 . S
C653 H657 0.950 . S
H654 C650 0.950 . S
C655 C653 1.390 . S
C655 C656 1.387 . S
C655 H658 0.950 . S
C656 C655 1.387 . S
C656 C659 1.387 . S
H657 C653 0.950 . S
H658 C655 0.950 . S
C659 C650 1.390 . S
C659 H652 0.950 . S
C659 C656 1.387 . S
C660 C661 1.387 . S
C660 H664 0.950 . S
C660 C669 1.390 . S
C661 C660 1.387 . S
C661 C663 1.387 . S
H662 C669 0.950 . S
C663 C661 1.387 . S
C663 C665 1.390 . S
C663 H667 0.950 . S
H664 C660 0.950 . S
C665 C663 1.390 . S
C665 C666 1.387 . S
C665 H668 0.950 . S
C666 C665 1.387 . S
C666 C669 1.387 . S
H667 C663 0.950 . S
H668 C665 0.950 . S
C669 C660 1.390 . S
C669 H662 0.950 . S
C669 C666 1.387 . S
C670 C671 1.387 . S
C670 H674 0.950 . S
C670 C679 1.390 . S
C671 C670 1.387 . S
C671 C673 1.387 . S
H672 C679 0.950 . S
C673 C671 1.387 . S
C673 C675 1.390 . S
C673 H677 0.950 . S
H674 C670 0.950 . S
C675 C673 1.390 . S
C675 C676 1.387 . S
C675 H678 0.950 . S
C676 C675 1.387 . S
C676 C679 1.387 . S
H677 C673 0.950 . S
H678 C675 0.950 . S
C679 C670 1.390 . S
C679 H672 0.950 . S
C679 C676 1.387 . S
C680 C681 1.387 . S
C680 H684 0.950 . S
C680 C689 1.390 . S
C681 C680 1.387 . S
C681 C683 1.387 . S
H682 C689 0.950 . S
C683 C681 1.387 . S
C683 C685 1.390 . S
C683 H687 0.950 . S
H684 C680 0.950 . S
C685 C683 1.390 . S
C685 C686 1.387 . S
C685 H688 0.950 . S
C686 C685 1.387 . S
C686 C689 1.387 . S
H687 C683 0.950 . S
H688 C685 0.950 . S
C689 C680 1.390 . S
C689 H682 0.950 . S
C689 C686 1.387 . S
C690 C691 1.387 . S
C690 H694 0.950 . S
C690 C699 1.390 1_545 S
C691 C690 1.387 . S
C691 C693 1.387 . S
H692 C699 0.950 . S
C693 C691 1.387 . S
C693 C695 1.382 1_545 S
C693 H697 0.950 . S
H694 C690 0.950 . S
C695 C693 1.382 1_565 S
C695 C696 1.393 . S
C695 H698 0.953 . S
C696 C695 1.393 . S
C696 C699 1.387 . S
H697 C693 0.950 . S
H698 C695 0.953 . S
C699 C690 1.390 1_565 S
C699 H692 0.950 . S
C699 C696 1.387 . S
C700 C701 1.387 . S
C700 H704 0.950 1_556 S
C700 C709 1.390 . S
C701 C700 1.387 . S
C701 C703 1.387 . S
H702 C709 0.950 . S
C703 C701 1.387 . S
C703 C705 1.390 . S
C703 H707 0.950 . S
H704 C700 0.950 1_554 S
C705 C703 1.390 . S
C705 C706 1.387 . S
C705 H708 0.950 . S
C706 C705 1.387 . S
C706 C709 1.387 . S
H707 C703 0.950 . S
H708 C705 0.950 . S
C709 C700 1.390 . S
C709 H702 0.950 . S
C709 C706 1.387 . S
C710 C711 1.387 . S
C710 H714 0.950 . S
C710 C719 1.390 1_545 S
C711 C710 1.387 . S
C711 C713 1.387 . S
H712 C719 0.950 . S
C713 C711 1.387 . S
C713 C715 1.390 1_545 S
C713 H717 0.950 . S
H714 C710 0.950 . S
C715 C713 1.390 1_565 S
C715 C716 1.387 . S
C715 H718 0.950 . S
C716 C715 1.387 . S
C716 C719 1.387 . S
H717 C713 0.950 . S
H718 C715 0.950 . S
C719 C710 1.390 1_565 S
C719 H712 0.950 . S
C719 C716 1.387 . S
C720 C721 1.387 . S
C720 H724 0.950 . S
C720 C729 1.390 . S
C721 C720 1.387 . S
C721 C723 1.387 . S
H722 C729 0.950 . S
C723 C721 1.387 . S
C723 C725 1.390 . S
C723 H727 0.950 . S
H724 C720 0.950 . S
C725 C723 1.390 . S
C725 C726 1.387 . S
C725 H728 0.950 . S
C726 C725 1.387 . S
C726 C729 1.387 . S
H727 C723 0.950 . S
H728 C725 0.950 . S
C729 C720 1.390 . S
C729 H722 0.950 . S
C729 C726 1.387 . S
C730 C731 1.387 . S
C730 H734 0.950 . S
C730 C739 1.390 . S
C731 C730 1.387 . S
C731 C733 1.387 . S
H732 C739 0.950 . S
C733 C731 1.387 . S
C733 C735 1.390 . S
C733 H737 0.950 . S
H734 C730 0.950 . S
C735 C733 1.390 . S
C735 C736 1.387 . S
C735 H738 0.950 . S
C736 C735 1.387 . S
C736 C739 1.387 . S
H737 C733 0.950 . S
H738 C735 0.950 . S
C739 C730 1.390 . S
C739 H732 0.950 . S
C739 C736 1.387 . S
C740 C741 1.387 . S
C740 H744 0.950 . S
C740 C749 1.390 . S
C741 C740 1.387 . S
C741 C743 1.387 . S
H742 C749 0.950 . S
C743 C741 1.387 . S
C743 C745 1.390 . S
C743 H747 0.950 . S
H744 C740 0.950 . S
C745 C743 1.390 . S
C745 C746 1.387 . S
C745 H748 0.950 . S
C746 C745 1.387 . S
C746 C749 1.387 . S
H747 C743 0.950 . S
H748 C745 0.950 . S
C749 C740 1.390 . S
C749 H742 0.950 . S
C749 C746 1.387 . S
C750 C751 1.387 . S
C750 H754 0.950 . S
C750 C759 1.390 . S
C751 C750 1.387 . S
C751 C753 1.387 . S
H752 C759 0.950 . S
C753 C751 1.387 . S
C753 C755 1.390 . S
C753 H757 0.950 . S
H754 C750 0.950 . S
C755 C753 1.390 . S
C755 C756 1.387 . S
C755 H758 0.950 . S
C756 C755 1.387 . S
C756 C759 1.387 . S
H757 C753 0.950 . S
H758 C755 0.950 . S
C759 C750 1.390 . S
C759 H752 0.950 . S
C759 C756 1.387 . S
C760 C761 1.387 . S
C760 H764 0.950 . S
C760 C769 1.390 . S
C761 C760 1.387 . S
C761 C763 1.387 . S
H762 C769 0.950 . S
C763 C761 1.387 . S
C763 C765 1.390 . S
C763 H767 0.950 . S
H764 C760 0.950 . S
C765 C763 1.390 . S
C765 C766 1.387 . S
C765 H768 0.950 . S
C766 C765 1.387 . S
C766 C769 1.387 . S
H767 C763 0.950 . S
H768 C765 0.950 . S
C769 C760 1.390 . S
C769 H762 0.950 . S
C769 C766 1.387 . S
C770 C771 1.387 . S
C770 H774 0.950 . S
C770 C779 1.390 . S
C771 C770 1.387 . S
C771 C773 1.387 . S
H772 C779 0.950 . S
C773 C771 1.387 . S
C773 C775 1.390 . S
C773 H777 0.950 . S
H774 C770 0.950 . S
C775 C773 1.390 . S
C775 C776 1.387 . S
C775 H778 0.950 . S
C776 C775 1.387 . S
C776 C779 1.387 . S
H777 C773 0.950 . S
H778 C775 0.950 . S
C779 C770 1.390 . S
C779 H772 0.950 . S
C779 C776 1.387 . S
C780 C781 1.387 . S
C780 H784 0.950 1_554 S
C780 C789 1.390 1_455 S
C781 C780 1.387 . S
C781 C783 1.387 . S
H782 C789 0.950 1_556 S
C783 C781 1.387 . S
C783 C785 1.390 1_455 S
C783 H787 0.950 . S
H784 C780 0.950 1_556 S
C785 C783 1.390 1_655 S
C785 C786 1.387 . S
C785 H788 0.950 . S
C786 C785 1.387 . S
C786 C789 1.387 . S
H787 C783 0.950 . S
H788 C785 0.950 . S
C789 C780 1.390 1_655 S
C789 H782 0.950 1_554 S
C789 C786 1.387 . S
C790 C791 1.387 . S
C790 H794 0.950 . S
C790 C799 1.390 . S
C791 C790 1.387 . S
C791 C793 1.387 . S
H792 C799 0.950 . S
C793 C791 1.387 . S
C793 C795 1.390 . S
C793 H797 0.950 . S
H794 C790 0.950 . S
C795 C793 1.390 . S
C795 C796 1.387 . S
C795 H798 0.950 . S
C796 C795 1.387 . S
C796 C799 1.387 . S
H797 C793 0.950 . S
H798 C795 0.950 . S
C799 C790 1.390 . S
C799 H792 0.950 . S
C799 C796 1.387 . S
C800 C801 1.387 . S
C800 H804 0.950 . S
C800 C809 1.390 . S
C801 C800 1.387 . S
C801 C803 1.387 . S
H802 C809 0.950 . S
C803 C801 1.387 . S
C803 C805 1.390 . S
C803 H807 0.950 . S
H804 C800 0.950 . S
C805 C803 1.390 . S
C805 C806 1.387 . S
C805 H808 0.950 . S
C806 C805 1.387 . S
C806 C809 1.387 . S
H807 C803 0.950 . S
H808 C805 0.950 . S
C809 C800 1.390 . S
C809 H802 0.950 . S
C809 C806 1.387 . S
C810 C811 1.387 . S
C810 H814 0.950 . S
C810 C819 1.390 . S
C811 C810 1.387 . S
C811 C813 1.387 . S
H812 C819 0.950 . S
C813 C811 1.387 . S
C813 C815 1.390 . S
C813 H817 0.950 . S
H814 C810 0.950 . S
C815 C813 1.390 . S
C815 C816 1.387 . S
C815 H818 0.950 . S
C816 C815 1.387 . S
C816 C819 1.387 . S
H817 C813 0.950 . S
H818 C815 0.950 . S
C819 C810 1.390 . S
C819 H812 0.950 . S
C819 C816 1.387 . S
C820 C821 1.387 . S
C820 H824 0.950 . S
C820 C829 1.390 . S
C821 C820 1.387 . S
C821 C823 1.387 . S
H822 C829 0.950 . S
C823 C821 1.387 . S
C823 C825 1.390 . S
C823 H827 0.950 . S
H824 C820 0.950 . S
C825 C823 1.390 . S
C825 C826 1.387 . S
C825 H828 0.950 . S
C826 C825 1.387 . S
C826 C829 1.387 . S
H827 C823 0.950 . S
H828 C825 0.950 . S
C829 C820 1.390 . S
C829 H822 0.950 . S
C829 C826 1.387 . S
C830 C831 1.387 . S
C830 H834 0.950 . S
C830 C839 1.390 1_655 S
C831 C830 1.387 . S
C831 C833 1.387 . S
H832 C839 0.950 . S
C833 C831 1.387 . S
C833 C835 1.390 1_655 S
C833 H837 0.950 . S
H834 C830 0.950 . S
C835 C833 1.390 1_455 S
C835 C836 1.387 . S
C835 H838 0.950 . S
C836 C835 1.387 . S
C836 C839 1.387 . S
H837 C833 0.950 . S
H838 C835 0.950 . S
C839 C830 1.390 1_455 S
C839 H832 0.950 . S
C839 C836 1.387 . S
C481 C3 1.660 . S
C486 C443 1.641 . S
C491 C375 1.871 . S
C496 C55 1.889 . S
C501 C83 1.745 . S
C506 C335 1.812 . S
C511 C135 1.861 . S
C516 C415 1.841 . S
C521 C163 1.971 . S
C526 C403 1.960 . S
C531 C203 1.574 . S
C536 C455 1.643 . S
C541 C363 2.113 . S
C546 C255 2.145 . S
C551 C283 1.610 . S
C556 C323 1.609 . S
C561 C123 1.571 . S
C566 C175 1.610 . S
C571 C15 1.670 . S
C576 C215 1.693 . S
C581 C43 1.862 . S
C586 C243 1.853 . S
C591 C295 2.004 . S
C596 C95 2.009 . S
C601 C26 1.949 . S
C606 C322 1.910 . S
C611 C49 1.073 . S
C616 C402 1.041 . S
C621 C462 2.468 . S
C626 C106 2.370 . S
C631 C129 1.508 . S
C636 C362 1.407 . S
C641 C186 1.743 . S
C646 C382 1.801 . S
C651 C342 2.267 1_556 S
C656 C226 2.152 . S
C661 C422 1.509 . S
C666 C249 1.510 . S
C671 C442 1.454 . S
C676 C306 1.469 . S
C681 C2 2.193 . S
C686 C146 2.176 . S
C691 C9 2.003 . S
C696 C62 1.958 . S
C701 C66 1.872 . S
C706 C82 1.867 . S
C711 C142 2.003 . S
C716 C89 2.063 . S
C721 C209 1.164 . S
C726 C162 1.087 . S
C731 C202 1.699 . S
C736 C266 1.705 . S
C741 C262 1.118 . S
C746 C289 1.120 . S
C751 C169 1.593 . S
C756 C282 1.482 . S
C761 C346 2.214 . S
C766 C122 2.229 . S
C771 C222 2.177 . S
C776 C369 2.232 . S
C781 C329 1.490 . S
C786 C242 1.411 . S
C791 C409 1.595 . S
C796 C302 1.560 . S
C801 C182 2.207 . S
C806 C466 2.100 . S
C811 C449 1.374 . S
C816 C42 1.273 . S
C821 C102 2.093 . S
C826 C386 2.023 . S
C831 C426 1.824 . S
C836 C22 1.875 . S
