# Generated by pormake.
# Topology zfp, (5)-cn, num edge types: 1
# Building blocks:
#     Node 0, Type 0, BuildingBlock: XOMCOT_clean_sbu_1, # of connection points: 5
#     Node 1, Type 0, BuildingBlock: XOMCOT_clean_sbu_1, # of connection points: 5
#     Node 2, Type 0, BuildingBlock: XOMCOT_clean_sbu_1, # of connection points: 5
#     Node 3, Type 0, BuildingBlock: XOMCOT_clean_sbu_1, # of connection points: 5
#     Node 4, Type 0, BuildingBlock: XOMCOT_clean_sbu_1, # of connection points: 5
#     Node 5, Type 0, BuildingBlock: XOMCOT_clean_sbu_1, # of connection points: 5
#     Node 6, Type 0, BuildingBlock: XOMCOT_clean_sbu_1, # of connection points: 5
#     Node 7, Type 0, BuildingBlock: XOMCOT_clean_sbu_1, # of connection points: 5
#     Node 8, Type 0, BuildingBlock: XOMCOT_clean_sbu_1, # of connection points: 5
#     Node 9, Type 0, BuildingBlock: XOMCOT_clean_sbu_1, # of connection points: 5
#     Node 10, Type 0, BuildingBlock: XOMCOT_clean_sbu_1, # of connection points: 5
#     Node 11, Type 0, BuildingBlock: XOMCOT_clean_sbu_1, # of connection points: 5
#     Node 12, Type 0, BuildingBlock: XOMCOT_clean_sbu_1, # of connection points: 5
#     Node 13, Type 0, BuildingBlock: XOMCOT_clean_sbu_1, # of connection points: 5
#     Node 14, Type 0, BuildingBlock: XOMCOT_clean_sbu_1, # of connection points: 5
#     Node 15, Type 0, BuildingBlock: XOMCOT_clean_sbu_1, # of connection points: 5
#     Edge 16, Type (0, 0), BuildingBlock: UVAHIK_clean_linker_0, # of connection points: 2
#     Edge 17, Type (0, 0), BuildingBlock: UVAHIK_clean_linker_0, # of connection points: 2
#     Edge 18, Type (0, 0), BuildingBlock: UVAHIK_clean_linker_0, # of connection points: 2
#     Edge 19, Type (0, 0), BuildingBlock: UVAHIK_clean_linker_0, # of connection points: 2
#     Edge 20, Type (0, 0), BuildingBlock: UVAHIK_clean_linker_0, # of connection points: 2
#     Edge 21, Type (0, 0), BuildingBlock: UVAHIK_clean_linker_0, # of connection points: 2
#     Edge 22, Type (0, 0), BuildingBlock: UVAHIK_clean_linker_0, # of connection points: 2
#     Edge 23, Type (0, 0), BuildingBlock: UVAHIK_clean_linker_0, # of connection points: 2
#     Edge 24, Type (0, 0), BuildingBlock: UVAHIK_clean_linker_0, # of connection points: 2
#     Edge 25, Type (0, 0), BuildingBlock: UVAHIK_clean_linker_0, # of connection points: 2
#     Edge 26, Type (0, 0), BuildingBlock: UVAHIK_clean_linker_0, # of connection points: 2
#     Edge 27, Type (0, 0), BuildingBlock: UVAHIK_clean_linker_0, # of connection points: 2
#     Edge 28, Type (0, 0), BuildingBlock: UVAHIK_clean_linker_0, # of connection points: 2
#     Edge 29, Type (0, 0), BuildingBlock: UVAHIK_clean_linker_0, # of connection points: 2
#     Edge 30, Type (0, 0), BuildingBlock: UVAHIK_clean_linker_0, # of connection points: 2
#     Edge 31, Type (0, 0), BuildingBlock: UVAHIK_clean_linker_0, # of connection points: 2
#     Edge 32, Type (0, 0), BuildingBlock: UVAHIK_clean_linker_0, # of connection points: 2
#     Edge 33, Type (0, 0), BuildingBlock: UVAHIK_clean_linker_0, # of connection points: 2
#     Edge 34, Type (0, 0), BuildingBlock: UVAHIK_clean_linker_0, # of connection points: 2
#     Edge 35, Type (0, 0), BuildingBlock: UVAHIK_clean_linker_0, # of connection points: 2
#     Edge 36, Type (0, 0), BuildingBlock: UVAHIK_clean_linker_0, # of connection points: 2
#     Edge 37, Type (0, 0), BuildingBlock: UVAHIK_clean_linker_0, # of connection points: 2
#     Edge 38, Type (0, 0), BuildingBlock: UVAHIK_clean_linker_0, # of connection points: 2
#     Edge 39, Type (0, 0), BuildingBlock: UVAHIK_clean_linker_0, # of connection points: 2
#     Edge 40, Type (0, 0), BuildingBlock: UVAHIK_clean_linker_0, # of connection points: 2
#     Edge 41, Type (0, 0), BuildingBlock: UVAHIK_clean_linker_0, # of connection points: 2
#     Edge 42, Type (0, 0), BuildingBlock: UVAHIK_clean_linker_0, # of connection points: 2
#     Edge 43, Type (0, 0), BuildingBlock: UVAHIK_clean_linker_0, # of connection points: 2
#     Edge 44, Type (0, 0), BuildingBlock: UVAHIK_clean_linker_0, # of connection points: 2
#     Edge 45, Type (0, 0), BuildingBlock: UVAHIK_clean_linker_0, # of connection points: 2
#     Edge 46, Type (0, 0), BuildingBlock: UVAHIK_clean_linker_0, # of connection points: 2
#     Edge 47, Type (0, 0), BuildingBlock: UVAHIK_clean_linker_0, # of connection points: 2
#     Edge 48, Type (0, 0), BuildingBlock: UVAHIK_clean_linker_0, # of connection points: 2
#     Edge 49, Type (0, 0), BuildingBlock: UVAHIK_clean_linker_0, # of connection points: 2
#     Edge 50, Type (0, 0), BuildingBlock: UVAHIK_clean_linker_0, # of connection points: 2
#     Edge 51, Type (0, 0), BuildingBlock: UVAHIK_clean_linker_0, # of connection points: 2
#     Edge 52, Type (0, 0), BuildingBlock: UVAHIK_clean_linker_0, # of connection points: 2
#     Edge 53, Type (0, 0), BuildingBlock: UVAHIK_clean_linker_0, # of connection points: 2
#     Edge 54, Type (0, 0), BuildingBlock: UVAHIK_clean_linker_0, # of connection points: 2
#     Edge 55, Type (0, 0), BuildingBlock: UVAHIK_clean_linker_0, # of connection points: 2
# Relax obj value: 0.293
# Max RMSD: 0.214
# Mean RMSD: 0.214
data_MOF--net-zfp--node1-XOMCOT_clean_sbu_1--edge1-UVAHIK_clean_linker_0
_symmetry_space_group_name_H-M    P1
_symmetry_Int_Tables_number       1
_symmetry_cell_setting            triclinic
loop_
_symmetry_equiv_pos_as_xyz
'x, y, z'
_cell_length_a     38.308885
_cell_length_b     38.269205
_cell_length_c     87.468355
_cell_angle_alpha  90.034119
_cell_angle_beta   90.033772
_cell_angle_gamma 90.02153
loop_
_atom_site_label
_atom_site_type_symbol
_atom_site_fract_x
_atom_site_fract_y
_atom_site_fract_z
_atom_type_partial_charge
C0 C 0.19993 0.3037 0.11197 0.0
C1 C 0.19871 0.30763 0.09639 0.0
N2 N 0.17236 0.28792 0.09099 0.0
N3 N 0.17432 0.28181 0.11641 0.0
C4 C 0.15806 0.27227 0.10331 0.0
H5 H 0.2172 0.31742 0.1197 0.0
Co6 Co 0.16312 0.27607 0.13692 0.0
C7 C 0.09983 0.22328 0.12767 0.0
O8 O 0.11065 0.1942 0.12125 0.0
N9 N 0.15224 0.27093 0.15781 0.0
C10 C 0.12993 0.25311 0.17997 0.0
C11 C 0.13002 0.24805 0.16443 0.0
C12 C 0.16566 0.28927 0.16968 0.0
N13 N 0.15248 0.27898 0.18327 0.0
O14 O 0.19723 0.23826 0.138 0.0
H15 H 0.1151 0.22828 0.15853 0.0
H16 H 0.18479 0.30983 0.16843 0.0
O17 O 0.12262 0.24602 0.13175 0.0
C18 C 0.22609 0.25187 0.1426 0.0
O19 O 0.22565 0.28444 0.14729 0.0
N20 N 0.13532 0.3155 0.13547 0.0
C21 C 0.11769 0.37943 0.12274 0.0
C22 C 0.09723 0.34981 0.11989 0.0
C23 C 0.10673 0.31793 0.1262 0.0
C24 C 0.15354 0.34467 0.1395 0.0
C25 C 0.14517 0.37706 0.13325 0.0
H26 H 0.09329 0.29518 0.12208 0.0
H27 H 0.17729 0.34219 0.14606 0.0
H28 H 0.13485 0.25623 0.10282 0.0
H29 H 0.21521 0.3245 0.08958 0.0
H30 H 0.11521 0.23814 0.18826 0.0
H31 H 0.07522 0.35079 0.11212 0.0
H32 H 0.16165 0.39936 0.13573 0.0
C33 C 0.69735 0.18187 0.61016 0.0
C34 C 0.69335 0.17587 0.59482 0.0
N35 N 0.71877 0.15396 0.59025 0.0
N36 N 0.72489 0.16352 0.61536 0.0
C37 C 0.73787 0.14702 0.6029 0.0
H38 H 0.68094 0.19833 0.61718 0.0
Co39 Co 0.73666 0.16354 0.63597 0.0
C40 C 0.7685 0.09393 0.64305 0.0
O41 O 0.75524 0.0982 0.65675 0.0
N42 N 0.74866 0.16533 0.65694 0.0
C43 C 0.78235 0.17071 0.67756 0.0
C44 C 0.78199 0.16767 0.66193 0.0
C45 C 0.72922 0.16714 0.66986 0.0
N46 N 0.74914 0.17034 0.68252 0.0
O47 O 0.77377 0.19686 0.63157 0.0
H48 H 0.80473 0.1672 0.65461 0.0
H49 H 0.70108 0.16713 0.67012 0.0
O50 O 0.76598 0.1192 0.63326 0.0
C51 C 0.75971 0.22651 0.63469 0.0
O52 O 0.72791 0.22675 0.64029 0.0
N53 N 0.69679 0.13646 0.63959 0.0
C54 C 0.62991 0.11114 0.63478 0.0
C55 C 0.65884 0.09087 0.631 0.0
C56 C 0.69197 0.10445 0.63299 0.0
C57 C 0.66859 0.15582 0.64405 0.0
C58 C 0.63461 0.1436 0.64173 0.0
H59 H 0.71266 0.09093 0.62729 0.0
H60 H 0.67229 0.18245 0.64786 0.0
H61 H 0.76023 0.12976 0.60312 0.0
H62 H 0.67345 0.18702 0.58751 0.0
H63 H 0.80528 0.17312 0.68473 0.0
H64 H 0.65576 0.06619 0.62504 0.0
H65 H 0.6125 0.16022 0.6443 0.0
C66 C 0.83228 0.69837 0.10655 0.0
C67 C 0.83948 0.69642 0.09122 0.0
N68 N 0.86045 0.72336 0.0875 0.0
N69 N 0.84881 0.72623 0.11258 0.0
C70 C 0.86552 0.74131 0.10065 0.0
H71 H 0.8165 0.6802 0.11302 0.0
Co72 Co 0.84784 0.73573 0.13343 0.0
C73 C 0.91591 0.76909 0.1413 0.0
O74 O 0.91269 0.75304 0.15449 0.0
N75 N 0.84524 0.74553 0.15465 0.0
C76 C 0.84301 0.77779 0.17585 0.0
C77 C 0.84367 0.77853 0.16016 0.0
C78 C 0.84436 0.72513 0.16733 0.0
N79 N 0.84347 0.74421 0.18032 0.0
O80 O 0.81352 0.77199 0.12978 0.0
H81 H 0.84396 0.80183 0.15318 0.0
H82 H 0.84523 0.69697 0.16724 0.0
O83 O 0.89058 0.76726 0.13154 0.0
C84 C 0.78458 0.75578 0.13183 0.0
O85 O 0.78566 0.72272 0.13583 0.0
N86 N 0.87668 0.69683 0.13634 0.0
C87 C 0.90833 0.6323 0.13262 0.0
C88 C 0.92556 0.66272 0.12825 0.0
C89 C 0.90878 0.69447 0.12962 0.0
C90 C 0.85965 0.6672 0.14085 0.0
C91 C 0.8751 0.63434 0.13909 0.0
H92 H 0.92022 0.71603 0.12362 0.0
H93 H 0.83279 0.66875 0.14457 0.0
H94 H 0.88186 0.76428 0.10163 0.0
H95 H 0.82991 0.67673 0.08337 0.0
H96 H 0.84211 0.8002 0.18339 0.0
H97 H 0.95052 0.66159 0.12242 0.0
H98 H 0.86066 0.61091 0.14196 0.0
C99 C 0.31125 0.82281 0.60816 0.0
C100 C 0.31472 0.82787 0.59274 0.0
N101 N 0.29341 0.85412 0.58858 0.0
N102 N 0.28808 0.84594 0.61379 0.0
C103 C 0.27717 0.86456 0.60152 0.0
H104 H 0.32567 0.80421 0.61499 0.0
Co105 Co 0.28102 0.84928 0.63476 0.0
C106 C 0.25349 0.92003 0.64146 0.0
O107 O 0.27247 0.91789 0.65393 0.0
N108 N 0.27372 0.85082 0.6562 0.0
C109 C 0.24364 0.84922 0.67797 0.0
C110 C 0.24134 0.85098 0.66235 0.0
C111 C 0.29537 0.84901 0.66847 0.0
N112 N 0.27759 0.848 0.6818 0.0
O113 O 0.24228 0.81693 0.63284 0.0
H114 H 0.21739 0.85197 0.65581 0.0
H115 H 0.32345 0.84725 0.66777 0.0
O116 O 0.25227 0.89358 0.63227 0.0
C117 C 0.25666 0.78769 0.63628 0.0
O118 O 0.28937 0.78786 0.64078 0.0
N119 N 0.3222 0.87536 0.6358 0.0
C120 C 0.38745 0.89209 0.62412 0.0
C121 C 0.3591 0.91442 0.62185 0.0
C122 C 0.32662 0.90532 0.62751 0.0
C123 C 0.35032 0.85489 0.63924 0.0
C124 C 0.38345 0.86295 0.63359 0.0
H125 H 0.30495 0.92003 0.6232 0.0
H126 H 0.34641 0.82983 0.64465 0.0
H127 H 0.25911 0.88625 0.60212 0.0
H128 H 0.33196 0.81367 0.58515 0.0
H129 H 0.222 0.84849 0.68592 0.0
H130 H 0.36139 0.93748 0.61473 0.0
H131 H 0.40494 0.84511 0.63554 0.0
C132 C 0.67652 0.19069 0.91102 0.0
C133 C 0.66934 0.18816 0.92632 0.0
N134 N 0.65021 0.21613 0.93047 0.0
N135 N 0.66175 0.21993 0.9054 0.0
C136 C 0.64615 0.23522 0.91756 0.0
H137 H 0.69172 0.17237 0.90438 0.0
Co138 Co 0.66489 0.23224 0.88486 0.0
C139 C 0.59797 0.26852 0.87666 0.0
O140 O 0.60298 0.25644 0.86279 0.0
N141 N 0.66973 0.24473 0.8641 0.0
C142 C 0.67879 0.27905 0.84397 0.0
C143 C 0.67466 0.2781 0.85953 0.0
C144 C 0.67117 0.22583 0.851 0.0
N145 N 0.6766 0.24617 0.83861 0.0
O146 O 0.69937 0.2677 0.8902 0.0
H147 H 0.67485 0.30052 0.86705 0.0
H148 H 0.66889 0.19776 0.85044 0.0
O149 O 0.62196 0.26369 0.88687 0.0
C150 C 0.72844 0.25134 0.88866 0.0
O151 O 0.72752 0.21865 0.88409 0.0
N152 N 0.63638 0.19385 0.8803 0.0
C153 C 0.60761 0.12811 0.88448 0.0
C154 C 0.58796 0.15797 0.88745 0.0
C155 C 0.60322 0.19049 0.88585 0.0
C156 C 0.65501 0.16479 0.87632 0.0
C157 C 0.64118 0.13134 0.87847 0.0
H158 H 0.58977 0.21175 0.89114 0.0
H159 H 0.68218 0.16735 0.87317 0.0
H160 H 0.63193 0.2596 0.91697 0.0
H161 H 0.67826 0.16769 0.93392 0.0
H162 H 0.68274 0.30224 0.8371 0.0
H163 H 0.56242 0.15605 0.89273 0.0
H164 H 0.65728 0.10851 0.87654 0.0
C165 C 0.81635 0.69375 0.40955 0.0
C166 C 0.82054 0.68829 0.42491 0.0
N167 N 0.79675 0.66459 0.42945 0.0
N168 N 0.79023 0.67342 0.40434 0.0
C169 C 0.77832 0.65613 0.41679 0.0
H170 H 0.83209 0.71071 0.40247 0.0
Co171 Co 0.78084 0.67131 0.38356 0.0
C172 C 0.74924 0.60192 0.37703 0.0
O173 O 0.76653 0.6038 0.36411 0.0
N174 N 0.77137 0.67107 0.36227 0.0
C175 C 0.74023 0.6711 0.34075 0.0
C176 C 0.73868 0.67097 0.35643 0.0
C177 C 0.79233 0.67228 0.3498 0.0
N178 N 0.77402 0.67195 0.3366 0.0
O179 O 0.74387 0.70515 0.3864 0.0
H180 H 0.71508 0.67041 0.36321 0.0
H181 H 0.82043 0.67308 0.3502 0.0
O182 O 0.75008 0.62825 0.38632 0.0
C183 C 0.75875 0.73419 0.38309 0.0
O184 O 0.79112 0.7335 0.37815 0.0
N185 N 0.82037 0.64291 0.38152 0.0
C186 C 0.88519 0.61317 0.38676 0.0
C187 C 0.85495 0.59611 0.39142 0.0
C188 C 0.82301 0.61192 0.38919 0.0
C189 C 0.84989 0.65983 0.37681 0.0
C190 C 0.8829 0.64517 0.3792 0.0
H191 H 0.8014 0.60084 0.39525 0.0
H192 H 0.84811 0.68617 0.37242 0.0
H193 H 0.75772 0.63679 0.41651 0.0
H194 H 0.83979 0.70061 0.43221 0.0
H195 H 0.7182 0.67128 0.33299 0.0
H196 H 0.85625 0.57197 0.3979 0.0
H197 H 0.90619 0.65942 0.37598 0.0
C198 C 0.33135 0.81813 0.91225 0.0
C199 C 0.33817 0.82004 0.92762 0.0
N200 N 0.36185 0.79532 0.93112 0.0
N201 N 0.35089 0.7926 0.90599 0.0
C202 C 0.36897 0.77874 0.91783 0.0
H203 H 0.31375 0.83485 0.90594 0.0
Co204 Co 0.35149 0.78438 0.88499 0.0
C205 C 0.42167 0.75669 0.87721 0.0
O206 O 0.41809 0.77447 0.86448 0.0
N207 N 0.35048 0.77561 0.86365 0.0
C208 C 0.34794 0.74324 0.84254 0.0
C209 C 0.35027 0.74261 0.85815 0.0
C210 C 0.34815 0.79598 0.85098 0.0
N211 N 0.34652 0.77677 0.838 0.0
O212 O 0.31959 0.74568 0.88802 0.0
H213 H 0.35203 0.71932 0.86511 0.0
H214 H 0.34711 0.82417 0.85115 0.0
O215 O 0.3961 0.75596 0.88685 0.0
C216 C 0.2899 0.76032 0.88578 0.0
O217 O 0.28932 0.79343 0.88184 0.0
N218 N 0.37724 0.82556 0.88283 0.0
C219 C 0.39257 0.89103 0.89462 0.0
C220 C 0.41599 0.8634 0.89647 0.0
C221 C 0.40765 0.83074 0.89071 0.0
C222 C 0.35614 0.85326 0.87944 0.0
C223 C 0.36343 0.88652 0.8852 0.0
H224 H 0.42314 0.80942 0.89484 0.0
H225 H 0.33096 0.84876 0.87422 0.0
H226 H 0.38773 0.75777 0.91669 0.0
H227 H 0.32655 0.83817 0.93564 0.0
H228 H 0.34761 0.72067 0.83507 0.0
H229 H 0.43912 0.86622 0.90351 0.0
H230 H 0.34485 0.9075 0.88354 0.0
C231 C 0.20881 0.32749 0.40685 0.0
C232 C 0.20405 0.32807 0.4224 0.0
N233 N 0.22708 0.35075 0.42848 0.0
N234 N 0.23455 0.34988 0.40307 0.0
C235 C 0.24555 0.36341 0.41655 0.0
H236 H 0.19337 0.31288 0.3987 0.0
Co237 Co 0.2444 0.36131 0.38281 0.0
C238 C 0.29421 0.42611 0.39372 0.0
O239 O 0.32415 0.41841 0.40022 0.0
N240 N 0.25373 0.37238 0.36217 0.0
C241 C 0.27215 0.39769 0.34069 0.0
C242 C 0.27476 0.39747 0.35636 0.0
C243 C 0.23927 0.35724 0.34968 0.0
N244 N 0.24985 0.3723 0.33652 0.0
O245 O 0.28145 0.32638 0.383 0.0
H246 H 0.29115 0.41481 0.36291 0.0
H247 H 0.22068 0.33603 0.35017 0.0
O248 O 0.2745 0.40078 0.38941 0.0
C249 C 0.26733 0.29753 0.37867 0.0
O250 O 0.23501 0.29844 0.37371 0.0
N251 N 0.20557 0.38995 0.38287 0.0
C252 C 0.13918 0.40515 0.39343 0.0
C253 C 0.16793 0.42463 0.39846 0.0
C254 C 0.20108 0.4163 0.3932 0.0
C255 C 0.17749 0.37333 0.37664 0.0
C256 C 0.14388 0.38051 0.38179 0.0
H257 H 0.22283 0.42798 0.39903 0.0
H258 H 0.18134 0.3511 0.36925 0.0
H259 H 0.26518 0.38357 0.4176 0.0
H260 H 0.18462 0.31353 0.42874 0.0
H261 H 0.28589 0.41492 0.33294 0.0
H262 H 0.16519 0.44451 0.4072 0.0
H263 H 0.1223 0.36486 0.37762 0.0
C264 C 0.83643 0.70012 0.91093 0.0
C265 C 0.84352 0.69812 0.92627 0.0
N266 N 0.86527 0.72444 0.92996 0.0
N267 N 0.85385 0.72738 0.90486 0.0
C268 C 0.87096 0.74209 0.9168 0.0
H269 H 0.81994 0.68246 0.90452 0.0
Co270 Co 0.85285 0.73679 0.88396 0.0
C271 C 0.9219 0.768 0.87591 0.0
O272 O 0.91773 0.75305 0.86252 0.0
N273 N 0.85013 0.74641 0.86273 0.0
C274 C 0.84663 0.77787 0.84135 0.0
C275 C 0.84921 0.77921 0.857 0.0
C276 C 0.84713 0.72558 0.85025 0.0
N277 N 0.8453 0.74411 0.83712 0.0
O278 O 0.82027 0.77456 0.88769 0.0
H279 H 0.85076 0.80276 0.86381 0.0
H280 H 0.84665 0.69742 0.8506 0.0
O281 O 0.8968 0.76639 0.88575 0.0
C282 C 0.79081 0.75908 0.88598 0.0
O283 O 0.7908 0.72583 0.88224 0.0
N284 N 0.87971 0.69651 0.88097 0.0
C285 C 0.90493 0.63014 0.88711 0.0
C286 C 0.92557 0.6594 0.88994 0.0
C287 C 0.91204 0.69235 0.88733 0.0
C288 C 0.86006 0.66787 0.87733 0.0
C289 C 0.87215 0.63416 0.8804 0.0
H290 H 0.92594 0.71366 0.89242 0.0
H291 H 0.8333 0.67122 0.87369 0.0
H292 H 0.88785 0.76465 0.91582 0.0
H293 H 0.83324 0.67889 0.93415 0.0
H294 H 0.8452 0.80005 0.8337 0.0
H295 H 0.95046 0.65693 0.89577 0.0
H296 H 0.85523 0.61185 0.87859 0.0
C297 C 0.30978 0.82566 0.40637 0.0
C298 C 0.31439 0.8263 0.42194 0.0
N299 N 0.29291 0.85064 0.42784 0.0
N300 N 0.28566 0.84964 0.40243 0.0
C301 C 0.27551 0.86426 0.41581 0.0
H302 H 0.32421 0.80982 0.39833 0.0
Co303 Co 0.2769 0.86118 0.38214 0.0
C304 C 0.2261 0.92551 0.39262 0.0
O305 O 0.19629 0.91719 0.39908 0.0
N306 N 0.26871 0.8724 0.36145 0.0
C307 C 0.24968 0.89649 0.33981 0.0
C308 C 0.24605 0.89576 0.35544 0.0
C309 C 0.28523 0.8588 0.34913 0.0
N310 N 0.27429 0.87314 0.33587 0.0
O311 O 0.23967 0.82639 0.38194 0.0
H312 H 0.22767 0.91131 0.36182 0.0
H313 H 0.30523 0.83895 0.34981 0.0
O314 O 0.2465 0.90066 0.38842 0.0
C315 C 0.25311 0.79752 0.37727 0.0
O316 O 0.28509 0.7982 0.37192 0.0
N317 N 0.31586 0.88973 0.38266 0.0
C318 C 0.38117 0.90662 0.39409 0.0
C319 C 0.3519 0.92646 0.39813 0.0
C320 C 0.31932 0.91727 0.39247 0.0
C321 C 0.34457 0.87245 0.37742 0.0
C322 C 0.37767 0.88049 0.383 0.0
H323 H 0.2971 0.92959 0.39761 0.0
H324 H 0.34145 0.84934 0.37048 0.0
H325 H 0.25736 0.88579 0.41672 0.0
H326 H 0.33268 0.81059 0.4284 0.0
H327 H 0.23483 0.91241 0.33191 0.0
H328 H 0.35374 0.94744 0.40641 0.0
H329 H 0.39971 0.86454 0.37962 0.0
C330 C 0.20053 0.30882 0.90905 0.0
C331 C 0.20014 0.31174 0.92468 0.0
N332 N 0.17454 0.29113 0.93011 0.0
N333 N 0.17518 0.2866 0.9046 0.0
C334 C 0.15993 0.27589 0.91775 0.0
H335 H 0.21684 0.32367 0.90135 0.0
Co336 Co 0.16221 0.28211 0.88419 0.0
C337 C 0.10214 0.22581 0.8934 0.0
O338 O 0.11353 0.19581 0.8987 0.0
N339 N 0.14946 0.27834 0.86337 0.0
C340 C 0.12506 0.26244 0.8413 0.0
C341 C 0.12608 0.25652 0.85678 0.0
C342 C 0.1626 0.29691 0.85151 0.0
N343 N 0.14818 0.28775 0.83799 0.0
O344 O 0.19782 0.24624 0.88176 0.0
H345 H 0.11108 0.23679 0.86262 0.0
H346 H 0.18247 0.31679 0.8527 0.0
O347 O 0.12456 0.24911 0.88959 0.0
C348 C 0.22541 0.26234 0.87731 0.0
O349 O 0.22279 0.29562 0.8739 0.0
N350 N 0.13248 0.31972 0.88687 0.0
C351 C 0.11146 0.38185 0.90039 0.0
C352 C 0.09355 0.35068 0.90336 0.0
C353 C 0.10487 0.31976 0.89672 0.0
C354 C 0.14822 0.35024 0.88278 0.0
C355 C 0.13819 0.38175 0.88946 0.0
H356 H 0.09374 0.29596 0.90097 0.0
H357 H 0.17124 0.34967 0.87566 0.0
H358 H 0.13699 0.25948 0.91828 0.0
H359 H 0.2165 0.32874 0.93152 0.0
H360 H 0.10953 0.24825 0.83302 0.0
H361 H 0.07215 0.34973 0.91144 0.0
H362 H 0.15279 0.40523 0.88685 0.0
C363 C 0.69981 0.18928 0.41009 0.0
C364 C 0.69598 0.18279 0.4254 0.0
N365 N 0.72152 0.16084 0.4298 0.0
N366 N 0.72743 0.17127 0.40474 0.0
C367 C 0.74057 0.15441 0.41709 0.0
H368 H 0.68299 0.20552 0.40317 0.0
Co369 Co 0.73817 0.17116 0.38399 0.0
C370 C 0.77036 0.10218 0.3769 0.0
O371 O 0.75535 0.10555 0.36348 0.0
N372 N 0.74918 0.17288 0.36283 0.0
C373 C 0.78259 0.17619 0.34211 0.0
C374 C 0.78239 0.17389 0.35774 0.0
C375 C 0.72961 0.17532 0.34994 0.0
N376 N 0.7493 0.17717 0.33707 0.0
O377 O 0.77495 0.2048 0.38786 0.0
H378 H 0.80524 0.17261 0.36499 0.0
H379 H 0.70153 0.17604 0.34996 0.0
O380 O 0.7685 0.12778 0.38653 0.0
C381 C 0.75928 0.23378 0.38519 0.0
O382 O 0.72667 0.23276 0.38056 0.0
N383 N 0.69874 0.14315 0.38085 0.0
C384 C 0.63297 0.11533 0.38588 0.0
C385 C 0.66267 0.09673 0.39008 0.0
C386 C 0.69515 0.11157 0.38797 0.0
C387 C 0.66978 0.1611 0.37619 0.0
C388 C 0.63632 0.14754 0.37858 0.0
H389 H 0.71634 0.09944 0.39394 0.0
H390 H 0.67237 0.18762 0.37211 0.0
H391 H 0.76277 0.13695 0.4167 0.0
H392 H 0.67589 0.19334 0.43277 0.0
H393 H 0.80585 0.17711 0.33515 0.0
H394 H 0.6606 0.07235 0.39633 0.0
H395 H 0.61352 0.16292 0.37569 0.0
C396 C 0.33603 0.82013 0.10777 0.0
C397 C 0.34388 0.82285 0.09253 0.0
N398 N 0.36436 0.79569 0.08863 0.0
N399 N 0.35165 0.79154 0.11358 0.0
C400 C 0.36849 0.77682 0.10159 0.0
H401 H 0.32015 0.83813 0.11428 0.0
Co402 Co 0.34898 0.78037 0.13427 0.0
C403 C 0.41551 0.74305 0.14228 0.0
O404 O 0.4108 0.75424 0.15631 0.0
N405 N 0.34455 0.76921 0.15528 0.0
C406 C 0.33621 0.73676 0.17603 0.0
C407 C 0.33958 0.73636 0.16043 0.0
C408 C 0.34343 0.7892 0.16806 0.0
N409 N 0.33859 0.77011 0.18096 0.0
O410 O 0.3143 0.74493 0.1296 0.0
H411 H 0.33899 0.71331 0.15328 0.0
H412 H 0.34597 0.8172 0.16794 0.0
O413 O 0.39119 0.74833 0.13229 0.0
C414 C 0.28552 0.76168 0.13121 0.0
O415 O 0.28695 0.79468 0.13529 0.0
N416 N 0.37814 0.8186 0.13825 0.0
C417 C 0.40898 0.88341 0.134 0.0
C418 C 0.4278 0.85291 0.13125 0.0
C419 C 0.41146 0.82092 0.1328 0.0
C420 C 0.36016 0.84827 0.14191 0.0
C421 C 0.37502 0.88123 0.1397 0.0
H422 H 0.42432 0.79928 0.12754 0.0
H423 H 0.33286 0.84653 0.14494 0.0
H424 H 0.38397 0.75326 0.10237 0.0
H425 H 0.33486 0.84311 0.08485 0.0
H426 H 0.33234 0.71389 0.18306 0.0
H427 H 0.45348 0.85388 0.12605 0.0
H428 H 0.35947 0.90454 0.1414 0.0
C429 C 0.19887 0.33241 0.6099 0.0
C430 C 0.19468 0.33813 0.59456 0.0
N431 N 0.2203 0.3596 0.58981 0.0
N432 N 0.22682 0.35041 0.61495 0.0
C433 C 0.23978 0.3665 0.60237 0.0
H434 H 0.18222 0.31649 0.61705 0.0
Co435 Co 0.23842 0.35074 0.63561 0.0
C436 C 0.2705 0.41982 0.64242 0.0
O437 O 0.25526 0.41678 0.65579 0.0
N438 N 0.25026 0.34923 0.65668 0.0
C439 C 0.28424 0.34703 0.67728 0.0
C440 C 0.28363 0.34903 0.66163 0.0
C441 C 0.23106 0.34643 0.66964 0.0
N442 N 0.2511 0.34528 0.68242 0.0
O443 O 0.27523 0.31738 0.63151 0.0
H444 H 0.30624 0.35084 0.65428 0.0
H445 H 0.20302 0.34475 0.66978 0.0
O446 O 0.2685 0.39417 0.63282 0.0
C447 C 0.25988 0.28828 0.63429 0.0
O448 O 0.22747 0.28903 0.63917 0.0
N449 N 0.19899 0.37857 0.639 0.0
C450 C 0.13302 0.40649 0.63469 0.0
C451 C 0.16252 0.42513 0.63025 0.0
C452 C 0.19507 0.4102 0.63196 0.0
C453 C 0.17027 0.36054 0.64387 0.0
C454 C 0.1367 0.37411 0.64181 0.0
H455 H 0.21594 0.42236 0.6258 0.0
H456 H 0.17304 0.33395 0.64784 0.0
H457 H 0.26234 0.38353 0.60247 0.0
H458 H 0.17444 0.3271 0.58738 0.0
H459 H 0.30758 0.34721 0.68423 0.0
H460 H 0.16015 0.44958 0.62407 0.0
H461 H 0.11404 0.35865 0.64482 0.0
C462 C 0.68468 0.20551 0.11046 0.0
C463 C 0.68332 0.2028 0.09483 0.0
N464 N 0.66441 0.22972 0.08939 0.0
N465 N 0.66666 0.23395 0.11494 0.0
C466 C 0.65503 0.24858 0.1018 0.0
H467 H 0.69627 0.18671 0.11816 0.0
Co468 Co 0.65587 0.24187 0.13546 0.0
C469 C 0.59542 0.29838 0.12728 0.0
O470 O 0.59924 0.33067 0.12248 0.0
N471 N 0.64584 0.24914 0.15639 0.0
C472 C 0.62517 0.26898 0.17857 0.0
C473 C 0.62512 0.27344 0.16299 0.0
C474 C 0.65909 0.231 0.16836 0.0
N475 N 0.6466 0.24229 0.18194 0.0
O476 O 0.69692 0.27233 0.13688 0.0
H477 H 0.61107 0.29375 0.1571 0.0
H478 H 0.67755 0.2098 0.16718 0.0
O479 O 0.62352 0.28077 0.12995 0.0
C480 C 0.72369 0.2534 0.13999 0.0
O481 O 0.71846 0.22032 0.14323 0.0
N482 N 0.62052 0.20894 0.13368 0.0
C483 C 0.59426 0.14738 0.12131 0.0
C484 C 0.58208 0.17984 0.11624 0.0
C485 C 0.59643 0.21022 0.12219 0.0
C486 C 0.62988 0.17768 0.13988 0.0
C487 C 0.61731 0.14649 0.13378 0.0
H488 H 0.59182 0.2338 0.1159 0.0
H489 H 0.65085 0.17648 0.14809 0.0
H490 H 0.63777 0.27092 0.10135 0.0
H491 H 0.69431 0.18189 0.08802 0.0
H492 H 0.61139 0.28489 0.18684 0.0
H493 H 0.56376 0.18196 0.10686 0.0
H494 H 0.62797 0.12213 0.13799 0.0
C495 C 0.81049 0.69663 0.61165 0.0
C496 C 0.81537 0.69584 0.5961 0.0
N497 N 0.79445 0.67097 0.59022 0.0
N498 N 0.78686 0.67214 0.61558 0.0
C499 C 0.77723 0.6571 0.60222 0.0
H500 H 0.82435 0.71302 0.61969 0.0
Co501 Co 0.77747 0.66088 0.63582 0.0
C502 C 0.72571 0.5984 0.62493 0.0
O503 O 0.69724 0.60923 0.61804 0.0
N504 N 0.76817 0.64988 0.65639 0.0
C505 C 0.74083 0.63334 0.67761 0.0
C506 C 0.73908 0.63456 0.66193 0.0
C507 C 0.787 0.65812 0.669 0.0
N508 N 0.77099 0.6483 0.6821 0.0
O509 O 0.74021 0.69519 0.63572 0.0
H510 H 0.71718 0.62596 0.65511 0.0
H511 H 0.81161 0.67181 0.66861 0.0
O512 O 0.74785 0.62112 0.62961 0.0
C513 C 0.7542 0.72302 0.64118 0.0
O514 O 0.78571 0.72073 0.64701 0.0
N515 N 0.81669 0.63262 0.63565 0.0
C516 C 0.88178 0.61503 0.62426 0.0
C517 C 0.85266 0.59423 0.62098 0.0
C518 C 0.82018 0.6037 0.62664 0.0
C519 C 0.84534 0.65109 0.64016 0.0
C520 C 0.87834 0.64267 0.63461 0.0
H521 H 0.79799 0.5901 0.62212 0.0
H522 H 0.84215 0.67526 0.64637 0.0
H523 H 0.75948 0.63525 0.6013 0.0
H524 H 0.83333 0.71189 0.58962 0.0
H525 H 0.72062 0.62359 0.68512 0.0
H526 H 0.85453 0.57213 0.61328 0.0
H527 H 0.90028 0.65938 0.63737 0.0
C528 C 0.137 0.29091 0.21017 0.0
C529 C 0.1617 0.2914 0.19831 0.0
C530 C 0.14629 0.30095 0.22499 0.0
C531 C 0.1773 0.30152 0.25677 0.0
H532 H 0.2423 0.37728 0.26417 0.0
C533 C 0.23357 0.32862 0.31696 0.0
C534 C 0.2393 0.36354 0.32118 0.0
C535 C 0.2243 0.32011 0.30194 0.0
C536 C 0.22383 0.35627 0.26235 0.0
H537 H 0.21547 0.3031 0.19266 0.0
H538 H 0.23198 0.32016 0.21858 0.0
H539 H 0.225 0.3634 0.23809 0.0
H540 H 0.23885 0.41703 0.31316 0.0
H541 H 0.22158 0.40249 0.28708 0.0
H542 H 0.17518 0.29508 0.28102 0.0
C543 C 0.20519 0.31262 0.2164 0.0
C544 C 0.21427 0.34798 0.24734 0.0
C545 C 0.19578 0.30283 0.20153 0.0
C546 C 0.23509 0.38985 0.31015 0.0
C547 C 0.22534 0.38144 0.29518 0.0
C548 C 0.18667 0.30994 0.27178 0.0
C549 C 0.18064 0.31147 0.22836 0.0
C550 C 0.19085 0.3205 0.24434 0.0
C551 C 0.22003 0.34642 0.29083 0.0
C552 C 0.21008 0.33742 0.27479 0.0
H553 H 0.11039 0.28279 0.20798 0.0
H554 H 0.12646 0.30051 0.2338 0.0
H555 H 0.15963 0.27983 0.25493 0.0
H556 H 0.23707 0.30784 0.32521 0.0
H557 H 0.22107 0.29282 0.29899 0.0
C558 C 0.66183 0.20666 0.81706 0.0
C559 C 0.68034 0.23547 0.8229 0.0
C560 C 0.66455 0.19759 0.80157 0.0
C561 C 0.69188 0.23552 0.7643 0.0
H562 H 0.70045 0.13917 0.75105 0.0
C563 C 0.75609 0.19748 0.70786 0.0
C564 C 0.7375 0.17524 0.69802 0.0
C565 C 0.74467 0.20311 0.72279 0.0
C566 C 0.69761 0.16614 0.75461 0.0
H567 H 0.71737 0.27625 0.81729 0.0
H568 H 0.72271 0.26027 0.79057 0.0
H569 H 0.68883 0.15217 0.77804 0.0
H570 H 0.69286 0.14073 0.69618 0.0
H571 H 0.67309 0.15016 0.72264 0.0
H572 H 0.70221 0.24951 0.74105 0.0
C573 C 0.70512 0.24529 0.7977 0.0
C574 C 0.6909 0.17362 0.77002 0.0
C575 C 0.70219 0.25443 0.81307 0.0
C576 C 0.70746 0.15823 0.70352 0.0
C577 C 0.69632 0.16342 0.71862 0.0
C578 C 0.69896 0.22807 0.74901 0.0
C579 C 0.68598 0.2171 0.79167 0.0
C580 C 0.68892 0.20849 0.77511 0.0
C581 C 0.71465 0.18627 0.7283 0.0
C582 C 0.70273 0.1934 0.74409 0.0
H583 H 0.64461 0.19172 0.82438 0.0
H584 H 0.64935 0.17582 0.79729 0.0
H585 H 0.68945 0.26263 0.7677 0.0
H586 H 0.77912 0.21114 0.70391 0.0
H587 H 0.75941 0.22064 0.73008 0.0
C588 C 0.76973 0.65678 0.30921 0.0
C589 C 0.78741 0.6736 0.32123 0.0
C590 C 0.7812 0.66035 0.29413 0.0
C591 C 0.82597 0.72267 0.26972 0.0
H592 H 0.82983 0.64679 0.24037 0.0
C593 C 0.86198 0.74992 0.20718 0.0
C594 C 0.84338 0.73179 0.19585 0.0
C595 C 0.85998 0.73966 0.22247 0.0
C596 C 0.82854 0.66835 0.24837 0.0
H597 H 0.83149 0.7066 0.32691 0.0
H598 H 0.85137 0.71325 0.30048 0.0
H599 H 0.81741 0.63424 0.26722 0.0
H600 H 0.80887 0.68818 0.19149 0.0
H601 H 0.80411 0.67086 0.2183 0.0
H602 H 0.83537 0.75706 0.251 0.0
C603 C 0.82866 0.69722 0.30278 0.0
C604 C 0.8216 0.66109 0.26376 0.0
C605 C 0.81744 0.69324 0.3179 0.0
C606 C 0.82357 0.70247 0.20003 0.0
C607 C 0.82103 0.69252 0.2154 0.0
C608 C 0.83243 0.72999 0.25434 0.0
C609 C 0.81036 0.68121 0.29072 0.0
C610 C 0.82005 0.68823 0.27457 0.0
C611 C 0.83874 0.71139 0.22688 0.0
C612 C 0.83362 0.70299 0.2434 0.0
H613 H 0.74677 0.64112 0.31149 0.0
H614 H 0.76647 0.64787 0.28507 0.0
H615 H 0.82436 0.74419 0.27774 0.0
H616 H 0.878 0.7722 0.20418 0.0
H617 H 0.87485 0.75424 0.23085 0.0
C618 C 0.3242 0.76816 0.8119 0.0
C619 C 0.34297 0.78854 0.82242 0.0
C620 C 0.32262 0.77748 0.79653 0.0
C621 C 0.33407 0.85011 0.76922 0.0
H622 H 0.33476 0.77323 0.74027 0.0
C623 C 0.32079 0.86148 0.70209 0.0
C624 C 0.29122 0.84307 0.69698 0.0
C625 C 0.3327 0.85747 0.71718 0.0
C626 C 0.33485 0.79498 0.74821 0.0
H627 H 0.37404 0.8354 0.82513 0.0
H628 H 0.37153 0.85184 0.79797 0.0
H629 H 0.34559 0.76181 0.76725 0.0
H630 H 0.25155 0.80556 0.70338 0.0
H631 H 0.27283 0.79777 0.72946 0.0
H632 H 0.32299 0.8831 0.7499 0.0
C633 C 0.35789 0.82861 0.80173 0.0
C634 C 0.34075 0.78847 0.76368 0.0
C635 C 0.35929 0.81928 0.81726 0.0
C636 C 0.27423 0.8202 0.70707 0.0
C637 C 0.28649 0.81565 0.72194 0.0
C638 C 0.32855 0.85668 0.75361 0.0
C639 C 0.34002 0.80738 0.79114 0.0
C640 C 0.33909 0.8157 0.77448 0.0
C641 C 0.31568 0.83431 0.72718 0.0
C642 C 0.32776 0.82894 0.74309 0.0
H643 H 0.31065 0.74481 0.81557 0.0
H644 H 0.30762 0.76112 0.78884 0.0
H645 H 0.33263 0.87168 0.77721 0.0
H646 H 0.33413 0.87942 0.69451 0.0
H647 H 0.35531 0.87209 0.72099 0.0
C648 C 0.82239 0.70046 0.81879 0.0
C649 C 0.84163 0.73099 0.82174 0.0
C650 C 0.81696 0.68911 0.80375 0.0
C651 C 0.85004 0.69766 0.76415 0.0
H652 H 0.75589 0.67088 0.75283 0.0
C653 C 0.80549 0.68201 0.70112 0.0
C654 C 0.78208 0.65477 0.69766 0.0
C655 C 0.81461 0.68937 0.7163 0.0
C656 C 0.78245 0.67777 0.75582 0.0
H657 H 0.87152 0.77268 0.81131 0.0
H658 H 0.86212 0.75293 0.78508 0.0
H659 H 0.76877 0.68655 0.77924 0.0
H660 H 0.7512 0.613 0.70759 0.0
H661 H 0.76694 0.62591 0.73393 0.0
H662 H 0.86367 0.68905 0.74069 0.0
C663 C 0.85111 0.73779 0.79436 0.0
C664 C 0.78982 0.68676 0.77098 0.0
C665 C 0.85622 0.74931 0.80937 0.0
C666 C 0.76871 0.63462 0.70978 0.0
C667 C 0.77775 0.64202 0.72492 0.0
C668 C 0.84269 0.68856 0.74897 0.0
C669 C 0.831 0.70783 0.79135 0.0
C670 C 0.82366 0.69696 0.77532 0.0
C671 C 0.80053 0.66972 0.7284 0.0
C672 C 0.80875 0.67863 0.74461 0.0
H673 H 0.81067 0.68592 0.82807 0.0
H674 H 0.80163 0.66573 0.80183 0.0
H675 H 0.87647 0.70502 0.76716 0.0
H676 H 0.81605 0.6984 0.69218 0.0
H677 H 0.83192 0.71115 0.71856 0.0
C678 C 0.2881 0.8909 0.30943 0.0
C679 C 0.28561 0.86472 0.32061 0.0
C680 C 0.29774 0.8826 0.29444 0.0
C681 C 0.33576 0.81085 0.27056 0.0
H682 H 0.29006 0.86059 0.23752 0.0
C683 C 0.3299 0.75885 0.20873 0.0
C684 C 0.33604 0.78244 0.19663 0.0
C685 C 0.32698 0.77056 0.2238 0.0
C686 C 0.30335 0.84675 0.24662 0.0
H687 H 0.29118 0.80937 0.32494 0.0
H688 H 0.30673 0.79444 0.29871 0.0
H689 H 0.27873 0.87758 0.26389 0.0
H690 H 0.34435 0.83751 0.19151 0.0
H691 H 0.33877 0.85761 0.21774 0.0
H692 H 0.35923 0.77915 0.25318 0.0
C693 C 0.30238 0.82164 0.30152 0.0
C694 C 0.29698 0.85654 0.26178 0.0
C695 C 0.29331 0.83009 0.31657 0.0
C696 C 0.33936 0.81824 0.20025 0.0
C697 C 0.33613 0.82995 0.21536 0.0
C698 C 0.34175 0.8008 0.25542 0.0
C699 C 0.30456 0.84776 0.2902 0.0
C700 C 0.31282 0.83851 0.274 0.0
C701 C 0.32987 0.80621 0.22728 0.0
C702 C 0.32536 0.81842 0.24329 0.0
H703 H 0.28277 0.91789 0.31233 0.0
H704 H 0.29988 0.90358 0.2862 0.0
H705 H 0.34912 0.79682 0.27957 0.0
H706 H 0.327 0.73117 0.20673 0.0
H707 H 0.32169 0.75166 0.23272 0.0
C708 C 0.26411 0.33445 0.70984 0.0
C709 C 0.23988 0.34221 0.69821 0.0
C710 C 0.25357 0.33129 0.72506 0.0
C711 C 0.1804 0.35084 0.75188 0.0
H712 H 0.2273 0.28145 0.77681 0.0
C713 C 0.13218 0.30257 0.81141 0.0
C714 C 0.15764 0.29963 0.82293 0.0
C715 C 0.14169 0.31104 0.79642 0.0
C716 C 0.2142 0.30118 0.77004 0.0
H717 H 0.18506 0.35322 0.69394 0.0
H718 H 0.16659 0.3462 0.72032 0.0
H719 H 0.24394 0.28851 0.75017 0.0
H720 H 0.21285 0.30378 0.82786 0.0
H721 H 0.22965 0.318 0.80156 0.0
H722 H 0.14979 0.36237 0.77182 0.0
C723 C 0.19402 0.34324 0.71765 0.0
C724 C 0.2238 0.30538 0.75474 0.0
C725 C 0.20464 0.34682 0.70239 0.0
C726 C 0.19271 0.30616 0.81923 0.0
C727 C 0.2023 0.314 0.80418 0.0
C728 C 0.17044 0.34625 0.76716 0.0
C729 C 0.21834 0.33524 0.72919 0.0
C730 C 0.20727 0.33046 0.74545 0.0
C731 C 0.17694 0.3161 0.79259 0.0
C732 C 0.18745 0.32153 0.77642 0.0
H733 H 0.29141 0.33043 0.70733 0.0
H734 H 0.2733 0.32587 0.7336 0.0
H735 H 0.16734 0.37073 0.74519 0.0
H736 H 0.10495 0.29787 0.814 0.0
H737 H 0.12162 0.31235 0.78771 0.0
C738 C 0.70191 0.18038 0.31746 0.0
C739 C 0.73769 0.18042 0.3213 0.0
C740 C 0.69103 0.18461 0.30225 0.0
C741 C 0.72337 0.21771 0.26481 0.0
H742 H 0.64258 0.16952 0.24839 0.0
C743 C 0.68989 0.22022 0.20053 0.0
C744 C 0.65553 0.23015 0.19703 0.0
C745 C 0.69916 0.21161 0.21555 0.0
C746 C 0.66514 0.18321 0.25286 0.0
H747 H 0.78981 0.18404 0.31147 0.0
H748 H 0.77098 0.1904 0.28542 0.0
H749 H 0.66007 0.1595 0.27495 0.0
H750 H 0.60358 0.23719 0.20627 0.0
H751 H 0.61963 0.22153 0.23249 0.0
H752 H 0.72873 0.24096 0.24268 0.0
C753 C 0.75121 0.18805 0.29421 0.0
C754 C 0.67508 0.17764 0.2681 0.0
C755 C 0.76207 0.18405 0.30934 0.0
C756 C 0.63032 0.22992 0.20871 0.0
C757 C 0.63944 0.22074 0.22367 0.0
C758 C 0.71371 0.22291 0.24958 0.0
C759 C 0.71557 0.18887 0.29044 0.0
C760 C 0.70441 0.19479 0.27427 0.0
C761 C 0.67412 0.21218 0.22731 0.0
C762 C 0.68454 0.20572 0.24343 0.0
H763 H 0.68203 0.17739 0.32611 0.0
H764 H 0.66332 0.18528 0.29983 0.0
H765 H 0.74555 0.23211 0.26921 0.0
H766 H 0.70984 0.22038 0.19177 0.0
H767 H 0.72604 0.20487 0.21801 0.0
C768 C 0.15345 0.25558 0.06795 0.0
C769 C 0.16021 0.28731 0.07545 0.0
C770 C 0.14695 0.25511 0.05216 0.0
C771 C 0.16864 0.30868 0.01869 0.0
H772 H 0.10731 0.24668 0.99611 0.0
C773 C 0.16036 0.32088 0.95417 0.0
C774 C 0.16269 0.28989 0.94568 0.0
C775 C 0.15303 0.31987 0.96977 0.0
C776 C 0.12467 0.26401 1.00229 0.0
H777 H 0.16201 0.34346 0.07291 0.0
H778 H 0.14968 0.34295 0.04557 0.0
H779 H 0.10658 0.24613 0.0242 0.0
H780 H 0.157 0.23373 0.94646 0.0
H781 H 0.1452 0.23164 0.97408 0.0
H782 H 0.18742 0.32615 0.9971 0.0
C783 C 0.15071 0.31827 0.05161 0.0
C784 C 0.12424 0.2637 0.01835 0.0
C785 C 0.15768 0.31865 0.06724 0.0
C786 C 0.15548 0.2579 0.95287 0.0
C787 C 0.1486 0.25679 0.96862 0.0
C788 C 0.16909 0.30897 1.00278 0.0
C789 C 0.14676 0.28646 0.04373 0.0
C790 C 0.1461 0.2863 0.02671 0.0
C791 C 0.14848 0.28776 0.97733 0.0
C792 C 0.14699 0.2869 0.99434 0.0
H793 H 0.1552 0.23114 0.07414 0.0
H794 H 0.144 0.23017 0.04645 0.0
H795 H 0.18664 0.32565 0.02471 0.0
H796 H 0.16495 0.3459 0.94876 0.0
H797 H 0.15202 0.3443 0.97601 0.0
C798 C 0.69626 0.13753 0.45345 0.0
C799 C 0.72584 0.14717 0.445 0.0
C800 C 0.69886 0.13034 0.46902 0.0
C801 C 0.75837 0.11429 0.50176 0.0
H802 H 0.68544 0.16332 0.52376 0.0
C803 C 0.75656 0.14175 0.5679 0.0
C804 C 0.72351 0.14153 0.57486 0.0
C805 C 0.75969 0.13621 0.55207 0.0
C806 C 0.70572 0.14897 0.51785 0.0
H807 H 0.78178 0.1544 0.44589 0.0
H808 H 0.78647 0.14232 0.47346 0.0
H809 H 0.68598 0.16453 0.49612 0.0
H810 H 0.66852 0.13193 0.57123 0.0
H811 H 0.67387 0.1214 0.54387 0.0
H812 H 0.77824 0.09927 0.52383 0.0
C813 C 0.76125 0.1401 0.46795 0.0
C814 C 0.70604 0.14967 0.50194 0.0
C815 C 0.75863 0.14701 0.45221 0.0
C816 C 0.69417 0.13288 0.56604 0.0
C817 C 0.69728 0.12702 0.55038 0.0
C818 C 0.75804 0.11358 0.51784 0.0
C819 C 0.73109 0.13304 0.47662 0.0
C820 C 0.73203 0.13203 0.49365 0.0
C821 C 0.7298 0.13015 0.54306 0.0
C822 C 0.73137 0.13059 0.52604 0.0
H823 H 0.6708 0.13683 0.44807 0.0
H824 H 0.67527 0.12399 0.47526 0.0
H825 H 0.77881 0.10053 0.49569 0.0
H826 H 0.77954 0.14842 0.5745 0.0
H827 H 0.78512 0.13872 0.54679 0.0
C828 C 0.8869 0.70335 0.95478 0.0
C829 C 0.87893 0.73134 0.94501 0.0
C830 C 0.89569 0.70926 0.97004 0.0
C831 C 0.87845 0.77116 1.0008 0.0
H832 H 0.94151 0.71058 0.02315 0.0
C833 C 0.87745 0.76473 0.06701 0.0
C834 C 0.8744 0.73038 0.07252 0.0
C835 C 0.88684 0.7709 0.05174 0.0
C836 C 0.92388 0.72783 0.01709 0.0
H837 H 0.87555 0.78763 0.94334 0.0
H838 H 0.89081 0.79821 0.97026 0.0
H839 H 0.94268 0.71086 0.99526 0.0
H840 H 0.88115 0.67578 0.06675 0.0
H841 H 0.89738 0.68631 0.04029 0.0
H842 H 0.85857 0.78695 0.02263 0.0
C843 C 0.89011 0.7716 0.96604 0.0
C844 C 0.92456 0.72799 1.00111 0.0
C845 C 0.88164 0.76563 0.95064 0.0
C846 C 0.88282 0.7025 0.06275 0.0
C847 C 0.89252 0.7086 0.04762 0.0
C848 C 0.87778 0.77101 0.01681 0.0
C849 C 0.89656 0.74338 0.97599 0.0
C850 C 0.90092 0.74864 0.99276 0.0
C851 C 0.89389 0.74281 0.0418 0.0
C852 C 0.89956 0.74832 0.02512 0.0
H853 H 0.8854 0.67669 0.95068 0.0
H854 H 0.90011 0.68687 0.97735 0.0
H855 H 0.85972 0.78722 0.99475 0.0
H856 H 0.87107 0.78667 0.07431 0.0
H857 H 0.8879 0.79756 0.04762 0.0
C858 C 0.25945 0.86883 0.45071 0.0
C859 C 0.29147 0.86147 0.44358 0.0
C860 C 0.25809 0.8754 0.46648 0.0
C861 C 0.30992 0.85591 0.50105 0.0
H862 H 0.24633 0.9189 0.5218 0.0
C863 C 0.32161 0.87375 0.56499 0.0
C864 C 0.29097 0.86832 0.57342 0.0
C865 C 0.32007 0.88027 0.54934 0.0
C866 C 0.26412 0.90116 0.51612 0.0
H867 H 0.34733 0.85842 0.44693 0.0
H868 H 0.34529 0.87082 0.4742 0.0
H869 H 0.24697 0.91657 0.49371 0.0
H870 H 0.23459 0.86811 0.57248 0.0
H871 H 0.23168 0.87915 0.54477 0.0
H872 H 0.32705 0.84028 0.52321 0.0
C873 C 0.32099 0.8701 0.46787 0.0
C874 C 0.26446 0.89975 0.50006 0.0
C875 C 0.32224 0.86307 0.45224 0.0
C876 C 0.25851 0.8723 0.56616 0.0
C877 C 0.25691 0.87859 0.55035 0.0
C878 C 0.30972 0.85748 0.51694 0.0
C879 C 0.28883 0.8751 0.47533 0.0
C880 C 0.28766 0.87726 0.49234 0.0
C881 C 0.2878 0.8811 0.5417 0.0
C882 C 0.28712 0.88029 0.5247 0.0
H883 H 0.2354 0.86784 0.44421 0.0
H884 H 0.23288 0.87912 0.47183 0.0
H885 H 0.32731 0.83743 0.49559 0.0
H886 H 0.34689 0.87133 0.57044 0.0
H887 H 0.34429 0.88297 0.54306 0.0
C888 C 0.6459 0.2049 0.06467 0.0
C889 C 0.65286 0.23425 0.07384 0.0
C890 C 0.63638 0.20883 0.04937 0.0
C891 C 0.64791 0.26775 0.01708 0.0
H892 H 0.5813 0.20558 0.99767 0.0
C893 C 0.63756 0.25838 0.95124 0.0
C894 C 0.6385 0.22387 0.94576 0.0
C895 C 0.63095 0.26509 0.96674 0.0
C896 C 0.59998 0.22317 1.0029 0.0
H897 H 0.65416 0.29076 0.07432 0.0
H898 H 0.63787 0.29777 0.04732 0.0
H899 H 0.58542 0.20735 0.0255 0.0
H900 H 0.63062 0.16964 0.95191 0.0
H901 H 0.6196 0.18106 0.97878 0.0
H902 H 0.66371 0.28234 0.9945 0.0
C903 C 0.63988 0.2717 0.05205 0.0
C904 C 0.6023 0.2242 0.01884 0.0
C905 C 0.64903 0.26774 0.06748 0.0
C906 C 0.63062 0.19646 0.95585 0.0
C907 C 0.62387 0.2031 0.97125 0.0
C908 C 0.64572 0.2666 1.00111 0.0
C909 C 0.63377 0.24222 0.04279 0.0
C910 C 0.62708 0.24565 0.0261 0.0
C911 C 0.62481 0.2374 0.977 0.0
C912 C 0.62254 0.24342 0.99381 0.0
H913 H 0.64797 0.17878 0.06932 0.0
H914 H 0.63219 0.18557 0.04254 0.0
H915 H 0.66743 0.28439 0.02231 0.0
H916 H 0.64357 0.28001 0.94371 0.0
H917 H 0.63148 0.29185 0.97076 0.0
C918 C 0.82395 0.65807 0.56593 0.0
C919 C 0.7931 0.66009 0.57449 0.0
C920 C 0.8228 0.65082 0.55032 0.0
C921 C 0.76575 0.62168 0.51811 0.0
H922 H 0.8303 0.67871 0.49483 0.0
C923 C 0.76095 0.6489 0.45197 0.0
C924 C 0.79359 0.65113 0.44473 0.0
C925 C 0.75901 0.64291 0.46779 0.0
C926 C 0.81239 0.66222 0.50114 0.0
H927 H 0.73697 0.65444 0.57373 0.0
H928 H 0.7346 0.64295 0.54614 0.0
H929 H 0.83052 0.68214 0.52244 0.0
H930 H 0.84928 0.64514 0.44778 0.0
H931 H 0.84602 0.63422 0.47519 0.0
H932 H 0.74703 0.60278 0.49641 0.0
C933 C 0.7598 0.64637 0.55154 0.0
C934 C 0.81258 0.66408 0.51703 0.0
C935 C 0.76108 0.65308 0.5673 0.0
C936 C 0.82389 0.64422 0.45321 0.0
C937 C 0.82199 0.63804 0.46887 0.0
C938 C 0.76538 0.62004 0.50206 0.0
C939 C 0.79065 0.64611 0.54279 0.0
C940 C 0.78961 0.64359 0.52578 0.0
C941 C 0.78971 0.63894 0.47647 0.0
C942 C 0.78905 0.64004 0.49345 0.0
H943 H 0.84901 0.66253 0.57133 0.0
H944 H 0.84718 0.64966 0.54408 0.0
H945 H 0.74772 0.60549 0.52448 0.0
H946 H 0.73726 0.65417 0.44562 0.0
H947 H 0.73377 0.64368 0.47336 0.0
C948 C 0.38088 0.75473 0.06787 0.0
C949 C 0.37813 0.78896 0.07358 0.0
C950 C 0.38981 0.74892 0.05252 0.0
C951 C 0.42486 0.79331 0.01768 0.0
H952 H 0.361 0.73258 0.9958 0.0
C953 C 0.383 0.8173 0.95587 0.0
C954 C 0.37625 0.78903 0.94607 0.0
C955 C 0.39275 0.81165 0.97104 0.0
C956 C 0.37961 0.74905 1.00173 0.0
H957 H 0.38512 0.84366 0.06806 0.0
H958 H 0.40029 0.83377 0.04146 0.0
H959 H 0.36125 0.73251 0.02368 0.0
H960 H 0.37587 0.73267 0.9442 0.0
H961 H 0.39262 0.72256 0.97099 0.0
H962 H 0.44189 0.81115 0.9957 0.0
C963 C 0.39563 0.81128 0.04869 0.0
C964 C 0.37978 0.74901 0.01774 0.0
C965 C 0.38649 0.81703 0.06392 0.0
C966 C 0.38102 0.75487 0.95155 0.0
C967 C 0.39035 0.74914 0.96686 0.0
C968 C 0.42459 0.79344 1.00169 0.0
C969 C 0.3966 0.77723 0.04267 0.0
C970 C 0.40147 0.77211 0.0259 0.0
C971 C 0.3957 0.77753 0.97684 0.0
C972 C 0.40106 0.77225 0.99354 0.0
H973 H 0.37455 0.73262 0.07507 0.0
H974 H 0.39063 0.72234 0.04827 0.0
H975 H 0.44245 0.81087 0.0236 0.0
H976 H 0.37988 0.84388 0.95187 0.0
H977 H 0.39631 0.83412 0.97842 0.0
C978 C 0.25786 0.37206 0.56738 0.0
C979 C 0.22481 0.37165 0.57434 0.0
C980 C 0.26085 0.37702 0.55151 0.0
C981 C 0.20845 0.35876 0.51765 0.0
H982 H 0.27598 0.41286 0.49467 0.0
C983 C 0.19814 0.3646 0.45282 0.0
C984 C 0.22891 0.36117 0.44428 0.0
C985 C 0.19951 0.37136 0.46848 0.0
C986 C 0.25717 0.39738 0.50094 0.0
H987 H 0.16957 0.37974 0.5706 0.0
H988 H 0.17468 0.38869 0.54313 0.0
H989 H 0.27583 0.41571 0.52275 0.0
H990 H 0.28526 0.36397 0.44517 0.0
H991 H 0.28792 0.37478 0.47284 0.0
H992 H 0.19021 0.33954 0.49623 0.0
C993 C 0.19821 0.38426 0.54973 0.0
C994 C 0.25706 0.39909 0.517 0.0
C995 C 0.19526 0.37919 0.56545 0.0
C996 C 0.26119 0.36638 0.45157 0.0
C997 C 0.26263 0.37269 0.46737 0.0
C998 C 0.20871 0.35685 0.50175 0.0
C999 C 0.2308 0.38172 0.54247 0.0
C1000 C 0.23232 0.38011 0.52549 0.0
C1001 C 0.23176 0.37427 0.47609 0.0
C1002 C 0.23268 0.37645 0.49313 0.0
H1003 H 0.28101 0.3663 0.57402 0.0
H1004 H 0.28633 0.375 0.54622 0.0
H1005 H 0.18967 0.34305 0.52386 0.0
H1006 H 0.1729 0.36164 0.44738 0.0
H1007 H 0.17516 0.37359 0.47468 0.0
C1008 C 0.10044 0.41133 0.09898 0.0
C1009 C 0.11057 0.41221 0.11444 0.0
C1010 C 0.08641 0.44097 0.09207 0.0
C1011 C 0.06141 0.53311 0.09974 0.0
H1012 H 0.96731 0.496 0.0967 0.0
C1013 C 0.95471 0.58865 0.13496 0.0
C1014 C 0.92388 0.59932 0.1278 0.0
C1015 C 0.9784 0.56792 0.12707 0.0
C1016 C 0.99336 0.507 0.09707 0.0
H1017 H 0.1188 0.44573 0.1341 0.0
H1018 H 0.09448 0.49728 0.12216 0.0
H1019 H 0.01681 0.45862 0.09077 0.0
H1020 H 0.89183 0.59499 0.10748 0.0
H1021 H 0.93315 0.55723 0.09376 0.0
H1022 H 0.03778 0.58042 0.10758 0.0
C1023 C 0.0972 0.47388 0.11528 0.0
C1024 C 0.02178 0.48577 0.09354 0.0
C1025 C 0.11086 0.4442 0.12223 0.0
C1026 C 0.91527 0.58622 0.11327 0.0
C1027 C 0.93904 0.56533 0.10535 0.0
C1028 C 0.03302 0.55428 0.10329 0.0
C1029 C 0.0827 0.47187 0.10052 0.0
C1030 C 0.05599 0.49776 0.09625 0.0
C1031 C 0.97152 0.55779 0.11193 0.0
C1032 C 0.99913 0.54029 0.10318 0.0
H1033 H 0.10132 0.38718 0.09251 0.0
H1034 H 0.07576 0.43895 0.08063 0.0
H1035 H 0.08754 0.54308 0.10162 0.0
H1036 H 0.96192 0.59904 0.14605 0.0
H1037 H 1.00297 0.56137 0.13251 0.0
C1038 C 0.45173 0.90124 0.62403 0.0
C1039 C 0.42027 0.89919 0.61596 0.0
C1040 C 0.48029 0.91803 0.61746 0.0
C1041 C 0.48429 0.99569 0.59647 0.0
H1042 H 0.58058 0.99048 0.60977 0.0
C1043 C 0.58925 0.10476 0.61326 0.0
C1044 C 0.59616 0.09966 0.62889 0.0
C1045 C 0.56714 0.08185 0.60549 0.0
C1046 C 0.55398 0.99218 0.60561 0.0
H1047 H 0.39539 0.90685 0.59392 0.0
H1048 H 0.4451 0.93723 0.58261 0.0
H1049 H 0.54853 0.93662 0.60447 0.0
H1050 H 0.58342 0.0696 0.64903 0.0
H1051 H 0.54373 0.0301 0.63553 0.0
H1052 H 0.48896 0.05123 0.59917 0.0
C1053 C 0.44768 0.9263 0.59398 0.0
C1054 C 0.53579 0.9615 0.60252 0.0
C1055 C 0.41924 0.90931 0.60051 0.0
C1056 C 0.5778 0.07423 0.63706 0.0
C1057 C 0.55565 0.05149 0.62932 0.0
C1058 C 0.50254 0.02641 0.5996 0.0
C1059 C 0.47744 0.93305 0.60281 0.0
C1060 C 0.50008 0.96297 0.59909 0.0
C1061 C 0.55194 0.054 0.61339 0.0
C1062 C 0.53666 0.02445 0.60516 0.0
H1063 H 0.45318 0.89323 0.63589 0.0
H1064 H 0.50294 0.92288 0.62457 0.0
H1065 H 0.4567 0.99762 0.59389 0.0
H1066 H 0.60393 0.1239 0.60678 0.0
H1067 H 0.56441 0.08401 0.59319 0.0
C1068 C 0.39962 0.95558 0.89607 0.0
C1069 C 0.3981 0.92324 0.90347 0.0
C1070 C 0.41493 0.98398 0.90346 0.0
C1071 C 0.49113 0.98734 0.92532 0.0
H1072 H 0.48515 0.0839 0.91241 0.0
C1073 C 0.60151 0.08785 0.90617 0.0
C1074 C 0.59449 0.09528 0.89072 0.0
C1075 C 0.57827 0.06748 0.91463 0.0
C1076 C 0.4871 0.05726 0.91652 0.0
H1077 H 0.40501 0.89631 0.92508 0.0
H1078 H 0.43279 0.94581 0.93785 0.0
H1079 H 0.43166 0.05148 0.9178 0.0
H1080 H 0.56023 0.08523 0.87159 0.0
H1081 H 0.52018 0.04848 0.88623 0.0
H1082 H 0.54647 0.99224 0.92234 0.0
C1083 C 0.42258 0.94924 0.92639 0.0
C1084 C 0.4566 0.03883 0.91965 0.0
C1085 C 0.4071 0.92093 0.91903 0.0
C1086 C 0.56633 0.07917 0.88339 0.0
C1087 C 0.54325 0.0588 0.89181 0.0
C1088 C 0.52165 1.00581 0.92215 0.0
C1089 C 0.42903 0.9801 0.91825 0.0
C1090 C 0.45832 1.00292 0.92273 0.0
C1091 C 0.54807 0.05461 0.90761 0.0
C1092 C 0.51939 0.03995 0.9166 0.0
H1093 H 0.39238 0.95797 0.88414 0.0
H1094 H 0.41956 1.00748 0.89687 0.0
H1095 H 0.4933 0.95965 0.92771 0.0
H1096 H 0.62277 0.10087 0.91204 0.0
H1097 H 0.58233 0.06421 0.92681 0.0
C1098 C 0.0745 0.41138 0.39202 0.0
C1099 C 0.10496 0.40972 0.40085 0.0
C1100 C 0.04346 0.42264 0.39861 0.0
C1101 C 0.02714 0.49129 0.42383 0.0
H1102 H 0.93579 0.48008 0.40548 0.0
C1103 C 0.92805 0.60202 0.40703 0.0
C1104 C 0.91825 0.59803 0.39165 0.0
C1105 C 0.94841 0.57653 0.41414 0.0
C1106 C 0.96095 0.48337 0.41097 0.0
H1107 H 0.1258 0.41255 0.42392 0.0
H1108 H 0.07168 0.43397 0.43529 0.0
H1109 H 0.97194 0.42867 0.41008 0.0
H1110 H 0.92404 0.56687 0.3712 0.0
H1111 H 0.96073 0.52282 0.38344 0.0
H1112 H 0.01731 0.54637 0.42334 0.0
C1113 C 0.07189 0.42675 0.42332 0.0
C1114 C 0.98139 0.45402 0.41374 0.0
C1115 C 0.10289 0.41515 0.41674 0.0
C1116 C 0.93192 0.57057 0.38299 0.0
C1117 C 0.95208 0.54511 0.39008 0.0
C1118 C 1.0066 0.52067 0.4211 0.0
C1119 C 0.04259 0.43276 0.41409 0.0
C1120 C 0.01585 0.45816 0.41883 0.0
C1121 C 0.95867 0.54695 0.40586 0.0
C1122 C 0.9747 0.51689 0.4135 0.0
H1123 H 0.07524 0.40691 0.3798 0.0
H1124 H 0.02134 0.42716 0.39115 0.0
H1125 H 0.05358 0.49527 0.42787 0.0
H1126 H 0.91695 0.62279 0.41391 0.0
H1127 H 0.95375 0.57853 0.42627 0.0
C1128 C 0.94327 0.57876 0.88712 0.0
C1129 C 0.91605 0.59726 0.894 0.0
C1130 C 0.96414 0.55693 0.89593 0.0
C1131 C 0.97992 0.50271 0.92621 0.0
H1132 H 0.07296 0.54257 0.92359 0.0
C1133 C 0.09206 0.41192 0.92435 0.0
C1134 C 0.10229 0.41391 0.90891 0.0
C1135 C 0.07604 0.44036 0.9314 0.0
C1136 C 0.04711 0.53155 0.92501 0.0
H1137 H 0.88723 0.60611 0.91495 0.0
H1138 H 0.92381 0.56697 0.93045 0.0
H1139 H 0.02217 0.57874 0.91783 0.0
H1140 H 0.10852 0.44863 0.88952 0.0
H1141 H 0.08115 0.49821 0.90181 0.0
H1142 H 1.00486 0.45448 0.93164 0.0
C1143 C 0.92877 0.56941 0.9183 0.0
C1144 C 0.01815 0.55211 0.92166 0.0
C1145 C 0.90774 0.59124 0.90943 0.0
C1146 C 0.10064 0.44615 0.90136 0.0
C1147 C 0.08517 0.47471 0.90849 0.0
C1148 C 1.00891 0.48211 0.92962 0.0
C1149 C 0.95806 0.5537 0.9117 0.0
C1150 C 0.98483 0.53694 0.92109 0.0
C1151 C 0.07071 0.47131 0.92319 0.0
C1152 C 0.04279 0.49567 0.92765 0.0
H1153 H 0.95038 0.58373 0.87533 0.0
H1154 H 0.98657 0.54452 0.89069 0.0
H1155 H 0.95429 0.49076 0.92585 0.0
H1156 H 0.09443 0.38772 0.93068 0.0
H1157 H 0.06534 0.43729 0.94279 0.0
C1158 C 0.59134 0.10714 0.40689 0.0
C1159 C 0.59961 0.10205 0.39139 0.0
C1160 C 0.57024 0.08306 0.41451 0.0
C1161 C 0.55617 0.99109 0.41309 0.0
H1162 H 0.46166 1.00276 0.42783 0.0
C1163 C 0.4458 0.9141 0.39361 0.0
C1164 C 0.41467 0.91261 0.40197 0.0
C1165 C 0.47594 0.92706 0.40044 0.0
C1166 C 0.48857 0.99893 0.42442 0.0
H1167 H 0.59034 0.07054 0.3713 0.0
H1168 H 0.55242 0.02895 0.38447 0.0
H1169 H 0.49752 0.05414 0.42305 0.0
H1170 H 0.39179 0.91757 0.42458 0.0
H1171 H 0.44431 0.94184 0.43633 0.0
H1172 H 0.54621 0.93614 0.41299 0.0
C1173 C 0.56271 0.05109 0.39076 0.0
C1174 C 0.50888 0.02844 0.42156 0.0
C1175 C 0.58367 0.07511 0.38317 0.0
C1176 C 0.41523 0.91994 0.41773 0.0
C1177 C 0.44533 0.93323 0.42454 0.0
C1178 C 0.53596 0.96163 0.41599 0.0
C1179 C 0.55764 0.05387 0.40662 0.0
C1180 C 0.54162 0.02453 0.41474 0.0
C1181 C 0.47521 0.93901 0.41567 0.0
C1182 C 0.50095 0.96557 0.42031 0.0
H1183 H 0.60418 0.12748 0.41344 0.0
H1184 H 0.56618 0.08566 0.42672 0.0
H1185 H 0.58186 0.98779 0.40811 0.0
H1186 H 0.44619 0.9082 0.3815 0.0
H1187 H 0.49857 0.93136 0.39326 0.0
C1188 C 0.40933 0.92793 0.11362 0.0
C1189 C 0.423 0.91571 0.12754 0.0
C1190 C 0.42951 0.94936 0.10419 0.0
C1191 C 0.52176 0.96826 0.09712 0.0
H1192 H 0.49362 0.06319 0.08814 0.0
C1193 C 0.58107 0.08335 0.12078 0.0
C1194 C 0.58481 0.11507 0.11292 0.0
C1195 C 0.5692 0.0538 0.11316 0.0
C1196 C 0.50173 0.03633 0.08982 0.0
H1197 H 0.4667 0.9178 0.14316 0.0
H1198 H 0.50145 0.95643 0.12706 0.0
H1199 H 0.44935 0.01973 0.09423 0.0
H1200 H 0.58271 0.1394 0.09042 0.0
H1201 H 0.55854 0.08821 0.07752 0.0
H1202 H 0.57435 0.98615 0.09489 0.0
C1203 C 0.47573 0.94863 0.12317 0.0
C1204 C 0.47637 0.01155 0.09344 0.0
C1205 C 0.45565 0.92737 0.13255 0.0
C1206 C 0.57865 0.11582 0.09701 0.0
C1207 C 0.56569 0.0864 0.08947 0.0
C1208 C 0.54707 0.99308 0.09364 0.0
C1209 C 0.46351 0.95834 0.10863 0.0
C1210 C 0.48669 0.97846 0.09855 0.0
C1211 C 0.56007 0.05551 0.09762 0.0
C1212 C 0.53722 0.02802 0.09161 0.0
H1213 H 0.3844 0.91848 0.10946 0.0
H1214 H 0.41943 0.9572 0.09314 0.0
H1215 H 0.53004 0.94239 0.10062 0.0
H1216 H 0.58535 0.08166 0.13299 0.0
H1217 H 0.5643 0.03035 0.11977 0.0
C1218 C 0.08486 0.44802 0.63717 0.0
C1219 C 0.09946 0.41971 0.62938 0.0
C1220 C 0.06414 0.47177 0.62931 0.0
C1221 C 0.00925 0.49159 0.5982 0.0
H1222 H 0.04645 0.58457 0.60541 0.0
C1223 C 0.9152 0.59959 0.60073 0.0
C1224 C 0.91505 0.60844 0.61634 0.0
C1225 C 0.94523 0.586 0.59401 0.0
C1226 C 0.03622 0.55884 0.6028 0.0
H1227 H 0.1018 0.39167 0.60788 0.0
H1228 H 0.06413 0.43302 0.59415 0.0
H1229 H 0.08213 0.53342 0.61112 0.0
H1230 H 0.94706 0.61505 0.63656 0.0
H1231 H 0.99928 0.59117 0.62499 0.0
H1232 H 0.96203 0.51662 0.5915 0.0
C1233 C 0.06911 0.43691 0.60622 0.0
C1234 C 0.05645 0.52967 0.60617 0.0
C1235 C 0.08998 0.41309 0.61412 0.0
C1236 C 0.9464 0.60798 0.62457 0.0
C1237 C 0.97645 0.59462 0.61783 0.0
C1238 C 0.98892 0.5208 0.59488 0.0
C1239 C 0.05796 0.46738 0.6136 0.0
C1240 C 0.04193 0.49609 0.60504 0.0
C1241 C 0.97541 0.58128 0.60283 0.0
C1242 C 1.00121 0.55449 0.59853 0.0
H1243 H 0.09247 0.45376 0.64885 0.0
H1244 H 0.05487 0.49485 0.63524 0.0
H1245 H 0.99793 0.46576 0.59708 0.0
H1246 H 0.89152 0.60108 0.59398 0.0
H1247 H 0.94396 0.57633 0.58238 0.0
C1248 C 0.54657 0.26284 0.14021 0.0
C1249 C 0.55868 0.28428 0.12824 0.0
C1250 C 0.51091 0.25343 0.14125 0.0
C1251 C 0.42223 0.27935 0.1252 0.0
H1252 H 0.39025 0.19656 0.14647 0.0
C1253 C 0.27598 0.24095 0.12496 0.0
C1254 C 0.26118 0.23676 0.13956 0.0
C1255 C 0.31246 0.24091 0.12297 0.0
C1256 C 0.39876 0.21978 0.14046 0.0
H1257 H 0.54254 0.31084 0.10757 0.0
H1258 H 0.48197 0.29321 0.10882 0.0
H1259 H 0.45291 0.20798 0.14415 0.0
H1260 H 0.27335 0.22821 0.1634 0.0
H1261 H 0.3368 0.22602 0.15982 0.0
H1262 H 0.3681 0.29062 0.12126 0.0
C1263 C 0.49909 0.28484 0.11794 0.0
C1264 C 0.4349 0.22659 0.13921 0.0
C1265 C 0.53431 0.29475 0.1171 0.0
C1266 C 0.28378 0.23019 0.15192 0.0
C1267 C 0.32026 0.22938 0.14989 0.0
C1268 C 0.38633 0.27214 0.12618 0.0
C1269 C 0.48626 0.26473 0.13024 0.0
C1270 C 0.44746 0.25664 0.13157 0.0
C1271 C 0.33521 0.23629 0.13549 0.0
C1272 C 0.37392 0.24235 0.13386 0.0
H1273 H 0.56429 0.25393 0.14898 0.0
H1274 H 0.50268 0.23806 0.15098 0.0
H1275 H 0.42993 0.30339 0.11965 0.0
H1276 H 0.25948 0.24737 0.1153 0.0
H1277 H 0.32293 0.24615 0.1117 0.0
C1278 C 0.76651 0.27682 0.61706 0.0
C1279 C 0.77518 0.26102 0.63105 0.0
C1280 C 0.76691 0.31338 0.61547 0.0
C1281 C 0.79432 0.39802 0.63322 0.0
H1282 H 0.70754 0.43213 0.61607 0.0
C1283 C 0.75429 0.54557 0.63737 0.0
C1284 C 0.73349 0.55998 0.62568 0.0
C1285 C 0.76179 0.5095 0.63772 0.0
C1286 C 0.73233 0.42349 0.62063 0.0
H1287 H 0.79209 0.27129 0.6542 0.0
H1288 H 0.79438 0.33493 0.65129 0.0
H1289 H 0.7195 0.36988 0.61624 0.0
H1290 H 0.70462 0.54737 0.60513 0.0
H1291 H 0.71835 0.4854 0.60538 0.0
H1292 H 0.80744 0.45168 0.63744 0.0
C1293 C 0.78742 0.31915 0.64147 0.0
C1294 C 0.73915 0.38744 0.62075 0.0
C1295 C 0.78657 0.28256 0.64309 0.0
C1296 C 0.72042 0.53727 0.6144 0.0
C1297 C 0.72824 0.50141 0.61462 0.0
C1298 C 0.78773 0.43427 0.6329 0.0
C1299 C 0.77604 0.33518 0.62785 0.0
C1300 C 0.77017 0.37405 0.62708 0.0
C1301 C 0.74891 0.48664 0.62633 0.0
C1302 C 0.75649 0.44776 0.62663 0.0
H1303 H 0.75641 0.26108 0.60775 0.0
H1304 H 0.75833 0.32467 0.60476 0.0
H1305 H 0.81855 0.38877 0.63815 0.0
H1306 H 0.76462 0.5622 0.64632 0.0
H1307 H 0.77729 0.49956 0.6471 0.0
C1308 C 0.46526 0.74271 0.12285 0.0
C1309 C 0.45277 0.7365 0.13777 0.0
C1310 C 0.50134 0.74718 0.12012 0.0
C1311 C 0.57924 0.77807 0.14083 0.0
H1312 H 0.6351 0.73578 0.10892 0.0
C1313 C 0.72958 0.77479 0.14395 0.0
C1314 C 0.74962 0.77188 0.13059 0.0
C1315 C 0.69306 0.77622 0.14325 0.0
C1316 C 0.61987 0.74851 0.11773 0.0
H1317 H 0.46928 0.72604 0.16107 0.0
H1318 H 0.53121 0.73355 0.15629 0.0
H1319 H 0.57237 0.72377 0.11016 0.0
H1320 H 0.74712 0.7691 0.10594 0.0
H1321 H 0.68331 0.77323 0.10455 0.0
H1322 H 0.62608 0.80312 0.1484 0.0
C1323 C 0.51326 0.73607 0.14678 0.0
C1324 C 0.58383 0.74138 0.11846 0.0
C1325 C 0.47758 0.7314 0.14947 0.0
C1326 C 0.7324 0.77253 0.11641 0.0
C1327 C 0.69571 0.77402 0.11567 0.0
C1328 C 0.61501 0.78557 0.13999 0.0
C1329 C 0.52559 0.74548 0.13224 0.0
C1330 C 0.56323 0.75534 0.13028 0.0
C1331 C 0.67536 0.77451 0.12912 0.0
C1332 C 0.63623 0.77021 0.12868 0.0
H1333 H 0.44712 0.7468 0.11352 0.0
H1334 H 0.51002 0.75405 0.10873 0.0
H1335 H 0.56404 0.78993 0.14989 0.0
H1336 H 0.74206 0.77305 0.15505 0.0
H1337 H 0.67878 0.77605 0.15392 0.0
C1338 C 0.2711 0.46972 0.62323 0.0
C1339 C 0.27932 0.45637 0.63779 0.0
C1340 C 0.2684 0.50613 0.62085 0.0
C1341 C 0.28751 0.59292 0.63972 0.0
H1342 H 0.20907 0.62652 0.61584 0.0
C1343 C 0.23877 0.73207 0.648 0.0
C1344 C 0.2399 0.75307 0.63485 0.0
C1345 C 0.23935 0.6956 0.64684 0.0
C1346 C 0.23113 0.61748 0.62251 0.0
H1347 H 0.29416 0.47109 0.66081 0.0
H1348 H 0.28975 0.53329 0.65678 0.0
H1349 H 0.2232 0.56391 0.61597 0.0
H1350 H 0.24031 0.75222 0.61013 0.0
H1351 H 0.23995 0.68811 0.60806 0.0
H1352 H 0.29462 0.64608 0.64671 0.0
C1353 C 0.28525 0.51632 0.64708 0.0
C1354 C 0.2395 0.58159 0.62249 0.0
C1355 C 0.28784 0.4803 0.64942 0.0
C1356 C 0.23822 0.73673 0.62045 0.0
C1357 C 0.23856 0.7 0.61928 0.0
C1358 C 0.2788 0.62842 0.63994 0.0
C1359 C 0.27436 0.52998 0.63291 0.0
C1360 C 0.26752 0.56862 0.63134 0.0
C1361 C 0.24108 0.67912 0.63249 0.0
C1362 C 0.2502 0.64116 0.63155 0.0
H1363 H 0.26428 0.45216 0.61398 0.0
H1364 H 0.26063 0.51549 0.60967 0.0
H1365 H 0.30989 0.58453 0.64632 0.0
H1366 H 0.24095 0.74389 0.65922 0.0
H1367 H 0.24084 0.68028 0.65724 0.0
C1368 C 0.04108 0.2145 0.90295 0.0
C1369 C 0.06353 0.23298 0.89312 0.0
C1370 C 1.00499 0.221 0.90311 0.0
C1371 C 0.93595 0.2849 0.88986 0.0
H1372 H 0.87443 0.20789 0.8999 0.0
C1373 C 0.78297 0.28332 0.88136 0.0
C1374 C 0.76329 0.26574 0.89254 0.0
C1375 C 0.81972 0.28458 0.8823 0.0
C1376 C 0.89116 0.22989 0.89725 0.0
H1377 H 0.06482 0.27278 0.87553 0.0
H1378 H 1.00192 0.28333 0.87538 0.0
H1379 H 0.93698 0.1984 0.89904 0.0
H1380 H 0.76667 0.23663 0.91365 0.0
H1381 H 0.83023 0.23939 0.91552 0.0
H1382 H 0.88928 0.31589 0.88752 0.0
C1383 C 0.01226 0.26432 0.88334 0.0
C1384 C 0.92737 0.22448 0.8968 0.0
C1385 C 0.04855 0.25805 0.88331 0.0
C1386 C 0.78099 0.25127 0.9051 0.0
C1387 C 0.81754 0.25228 0.906 0.0
C1388 C 0.89949 0.29018 0.8901 0.0
C1389 C 0.98972 0.24584 0.89323 0.0
C1390 C 0.95063 0.25191 0.89326 0.0
C1391 C 0.83758 0.26765 0.89431 0.0
C1392 C 0.87657 0.2628 0.89397 0.0
H1393 H 0.05148 0.19524 0.91079 0.0
H1394 H 0.98919 0.20667 0.91121 0.0
H1395 H 0.95258 0.30696 0.88725 0.0
H1396 H 0.77021 0.29354 0.87125 0.0
H1397 H 0.83419 0.29651 0.87304 0.0
C1398 C 0.74115 0.78465 0.39946 0.0
C1399 C 0.74258 0.76898 0.38495 0.0
C1400 C 0.73949 0.82127 0.40092 0.0
C1401 C 0.72808 0.90422 0.37815 0.0
H1402 H 0.79063 0.94416 0.40838 0.0
C1403 C 0.78432 0.04075 0.36991 0.0
C1404 C 0.77818 0.06538 0.38157 0.0
C1405 C 0.77975 1.005 0.37247 0.0
C1406 C 0.7728 0.93343 0.39999 0.0
H1407 H 0.74229 0.77909 0.36066 0.0
H1408 H 0.73879 0.84219 0.36303 0.0
H1409 H 0.77812 0.88133 0.40875 0.0
H1410 H 0.76627 0.07083 0.40568 0.0
H1411 H 0.75912 1.00772 0.41027 0.0
H1412 H 0.72408 0.95595 0.36897 0.0
C1413 C 0.73832 0.82678 0.3734 0.0
C1414 C 0.76539 0.89737 0.40023 0.0
C1415 C 0.74006 0.79039 0.37199 0.0
C1416 C 0.77117 0.05276 0.3964 0.0
C1417 C 0.76677 0.01658 0.39901 0.0
C1418 C 0.73584 0.93998 0.3778 0.0
C1419 C 0.73938 0.84298 0.38788 0.0
C1420 C 0.74352 0.88203 0.38907 0.0
C1421 C 0.76935 0.99251 0.38685 0.0
C1422 C 0.75891 0.95497 0.38848 0.0
H1423 H 0.74423 0.76884 0.40965 0.0
H1424 H 0.73986 0.83256 0.41227 0.0
H1425 H 0.7104 0.89387 0.36961 0.0
H1426 H 0.79015 0.04931 0.35838 0.0
H1427 H 0.78285 0.98714 0.36295 0.0
C1428 C 0.98356 0.78032 0.86861 0.0
C1429 C 0.95892 0.77541 0.88037 0.0
C1430 C 0.01928 0.7761 0.8713 0.0
C1431 C 0.09014 0.7721 0.89952 0.0
H1432 H 0.13216 0.70934 0.86995 0.0
C1433 C 0.23877 0.74218 0.90142 0.0
C1434 C 0.25573 0.74274 0.88719 0.0
C1435 C 0.20214 0.74013 0.90228 0.0
C1436 C 0.12114 0.72717 0.87826 0.0
H1437 H 0.95343 0.76568 0.90466 0.0
H1438 H 0.01645 0.7592 0.90946 0.0
H1439 H 0.07006 0.72224 0.8685 0.0
H1440 H 0.24778 0.74062 0.86276 0.0
H1441 H 0.1846 0.73659 0.86409 0.0
H1442 H 0.14152 0.77828 0.9089 0.0
C1443 C 1.00764 0.76569 0.89804 0.0
C1444 C 0.08535 0.7345 0.87744 0.0
C1445 C 0.97151 0.76972 0.89532 0.0
C1446 C 0.23553 0.73893 0.87391 0.0
C1447 C 0.19906 0.73696 0.87472 0.0
C1448 C 0.1262 0.76513 0.90023 0.0
C1449 C 0.03177 0.76724 0.88588 0.0
C1450 C 0.06944 0.7576 0.88785 0.0
C1451 C 0.18158 0.73897 0.88888 0.0
C1452 C 0.14246 0.74305 0.8894 0.0
H1453 H 0.97504 0.78511 0.85699 0.0
H1454 H 0.03715 0.77844 0.86175 0.0
H1455 H 0.07874 0.78999 0.90771 0.0
H1456 H 0.25358 0.7463 0.91183 0.0
H1457 H 0.18991 0.74115 0.91342 0.0
C1458 C 0.29063 0.23988 0.37 0.0
C1459 C 0.28161 0.2623 0.38213 0.0
C1460 C 0.29092 0.20333 0.37196 0.0
C1461 C 0.24415 0.1366 0.39405 0.0
H1462 H 0.31154 0.07076 0.37794 0.0
C1463 C 0.22297 0.9875 0.4023 0.0
C1464 C 0.23629 0.96348 0.39161 0.0
C1465 C 0.23152 0.02319 0.40162 0.0
C1466 C 0.29201 0.08855 0.38233 0.0
H1467 H 0.266 0.26368 0.40587 0.0
H1468 H 0.26649 0.20014 0.40934 0.0
H1469 H 0.32278 0.13353 0.37614 0.0
H1470 H 0.26932 0.95895 0.37163 0.0
H1471 H 0.28299 0.02122 0.36992 0.0
H1472 H 0.21238 0.09255 0.39955 0.0
C1473 C 0.27396 0.21075 0.39835 0.0
C1474 C 0.29872 0.12476 0.38138 0.0
C1475 C 0.27435 0.24728 0.39645 0.0
C1476 C 0.25853 0.97648 0.38011 0.0
C1477 C 0.26663 0.01246 0.37924 0.0
C1478 C 0.23711 0.10058 0.39473 0.0
C1479 C 0.28111 0.18816 0.38599 0.0
C1480 C 0.27497 0.14935 0.38732 0.0
C1481 C 0.25314 0.03668 0.38996 0.0
C1482 C 0.26094 0.07562 0.38899 0.0
H1483 H 0.29498 0.2505 0.35868 0.0
H1484 H 0.2963 0.18691 0.36215 0.0
H1485 H 0.22482 0.15463 0.39846 0.0
H1486 H 0.20612 0.97862 0.41145 0.0
H1487 H 0.22121 0.04006 0.41045 0.0
C1488 C 0.48184 0.74048 0.86937 0.0
C1489 C 0.45827 0.74713 0.88134 0.0
C1490 C 0.5179 0.74181 0.87172 0.0
C1491 C 0.58465 0.78049 0.8979 0.0
H1492 H 0.64733 0.72797 0.8718 0.0
C1493 C 0.73889 0.77633 0.90134 0.0
C1494 C 0.75634 0.77614 0.8872 0.0
C1495 C 0.70216 0.77699 0.90195 0.0
C1496 C 0.6302 0.74311 0.87909 0.0
H1497 H 0.45463 0.75817 0.90557 0.0
H1498 H 0.51801 0.75939 0.90988 0.0
H1499 H 0.58527 0.71514 0.8714 0.0
H1500 H 0.74915 0.77815 0.86271 0.0
H1501 H 0.68546 0.77994 0.86372 0.0
H1502 H 0.63052 0.80765 0.90586 0.0
C1503 C 0.50838 0.75395 0.89849 0.0
C1504 C 0.59439 0.73579 0.87887 0.0
C1505 C 0.47193 0.75259 0.8961 0.0
C1506 C 0.73648 0.7793 0.87377 0.0
C1507 C 0.69995 0.77964 0.87436 0.0
C1508 C 0.62078 0.78743 0.89831 0.0
C1509 C 0.53196 0.74958 0.8862 0.0
C1510 C 0.57077 0.75485 0.88798 0.0
C1511 C 0.68228 0.77679 0.8884 0.0
C1512 C 0.64389 0.76932 0.88864 0.0
H1513 H 0.47235 0.73643 0.85783 0.0
H1514 H 0.53465 0.73872 0.86185 0.0
H1515 H 0.56754 0.79605 0.90501 0.0
H1516 H 0.75346 0.77261 0.91183 0.0
H1517 H 0.6894 0.77466 0.91295 0.0
C1518 C 0.29735 0.48845 0.40297 0.0
C1519 C 0.28342 0.46393 0.39262 0.0
C1520 C 0.28872 0.52408 0.4021 0.0
C1521 C 0.22727 0.58873 0.3829 0.0
H1522 H 0.29569 0.65528 0.39771 0.0
C1523 C 0.22971 0.73948 0.36907 0.0
C1524 C 0.23887 0.76239 0.38101 0.0
C1525 C 0.22918 0.70303 0.37134 0.0
C1526 C 0.27603 0.63712 0.39367 0.0
H1527 H 0.24897 0.45855 0.37313 0.0
H1528 H 0.23509 0.52068 0.3711 0.0
H1529 H 0.30791 0.59321 0.39923 0.0
H1530 H 0.25448 0.76474 0.40474 0.0
H1531 H 0.25378 0.70134 0.40873 0.0
H1532 H 0.19641 0.63358 0.3766 0.0
C1533 C 0.2521 0.51235 0.38027 0.0
C1534 C 0.28294 0.60111 0.39461 0.0
C1535 C 0.26031 0.47641 0.38134 0.0
C1536 C 0.24606 0.74797 0.39546 0.0
C1537 C 0.24629 0.71153 0.39766 0.0
C1538 C 0.22071 0.62494 0.38168 0.0
C1539 C 0.26635 0.53706 0.39059 0.0
C1540 C 0.25866 0.57598 0.38935 0.0
C1541 C 0.23895 0.68844 0.3855 0.0
C1542 C 0.24492 0.64969 0.38714 0.0
H1543 H 0.31489 0.48003 0.41196 0.0
H1544 H 0.29962 0.54133 0.41066 0.0
H1545 H 0.20741 0.57084 0.37889 0.0
H1546 H 0.22535 0.74962 0.35767 0.0
H1547 H 0.22365 0.68619 0.36168 0.0
C1548 C 0.54548 0.26766 0.89466 0.0
C1549 C 0.56077 0.27704 0.88059 0.0
C1550 C 0.50877 0.26577 0.89622 0.0
C1551 C 0.42483 0.29123 0.87645 0.0
H1552 H 0.38521 0.21112 0.8973 0.0
C1553 C 0.28293 0.2529 0.86516 0.0
C1554 C 0.26131 0.24779 0.87793 0.0
C1555 C 0.31934 0.25301 0.86662 0.0
C1556 C 0.39584 0.23373 0.8915 0.0
H1557 H 0.54892 0.29466 0.85763 0.0
H1558 H 0.48624 0.29191 0.86031 0.0
H1559 H 0.44834 0.22202 0.89861 0.0
H1560 H 0.26123 0.23729 0.90223 0.0
H1561 H 0.32522 0.23663 0.90478 0.0
H1562 H 0.3728 0.30258 0.86905 0.0
C1563 C 0.50201 0.2857 0.87022 0.0
C1564 C 0.43211 0.24017 0.89232 0.0
C1565 C 0.53833 0.28733 0.86865 0.0
C1566 C 0.27714 0.24017 0.89207 0.0
C1567 C 0.31386 0.24029 0.89356 0.0
C1568 C 0.38891 0.28462 0.87551 0.0
C1569 C 0.48643 0.27388 0.88384 0.0
C1570 C 0.44733 0.26874 0.88456 0.0
C1571 C 0.3354 0.24839 0.88096 0.0
C1572 C 0.37384 0.25545 0.88277 0.0
H1573 H 0.56175 0.25951 0.90414 0.0
H1574 H 0.49794 0.25716 0.907 0.0
H1575 H 0.43499 0.31406 0.87066 0.0
H1576 H 0.27156 0.25955 0.85419 0.0
H1577 H 0.33495 0.2586 0.85659 0.0
C1578 C 0.77709 0.28935 0.37337 0.0
C1579 C 0.77527 0.26876 0.38663 0.0
C1580 C 0.77648 0.32585 0.3743 0.0
C1581 C 0.78398 0.40456 0.39833 0.0
H1582 H 0.70724 0.43781 0.37337 0.0
C1583 C 0.74606 0.55271 0.39648 0.0
C1584 C 0.73901 0.56584 0.38176 0.0
C1585 C 0.748 0.51633 0.39905 0.0
C1586 C 0.72907 0.42933 0.38029 0.0
H1587 H 0.77333 0.27037 0.41133 0.0
H1588 H 0.77364 0.33455 0.41302 0.0
H1589 H 0.72183 0.37608 0.37344 0.0
H1590 H 0.72543 0.55083 0.35864 0.0
H1591 H 0.72849 0.48865 0.36299 0.0
H1592 H 0.79209 0.45817 0.40473 0.0
C1593 C 0.77564 0.32231 0.40189 0.0
C1594 C 0.73739 0.39373 0.38034 0.0
C1595 C 0.77597 0.28555 0.40094 0.0
C1596 C 0.73079 0.54177 0.37014 0.0
C1597 C 0.73264 0.50577 0.37268 0.0
C1598 C 0.77603 0.44053 0.39808 0.0
C1599 C 0.77401 0.34279 0.38853 0.0
C1600 C 0.76525 0.38087 0.38915 0.0
C1601 C 0.74246 0.49228 0.38702 0.0
C1602 C 0.74875 0.4536 0.38883 0.0
H1603 H 0.77565 0.27716 0.3622 0.0
H1604 H 0.77567 0.34085 0.3638 0.0
H1605 H 0.80549 0.39543 0.40531 0.0
H1606 H 0.7526 0.57037 0.40573 0.0
H1607 H 0.75493 0.50711 0.41035 0.0
C1608 C 0.96581 0.77283 0.12214 0.0
C1609 C 0.95249 0.77857 0.13694 0.0
C1610 C 1.0022 0.77109 0.11962 0.0
C1611 C 0.08894 0.78852 0.13892 0.0
H1612 H 0.12371 0.7164 0.11176 0.0
C1613 C 0.23067 0.74302 0.14348 0.0
C1614 C 0.25036 0.74597 0.13001 0.0
C1615 C 0.19411 0.74336 0.14301 0.0
C1616 C 0.11435 0.73669 0.11936 0.0
H1617 H 0.96731 0.78986 0.16033 0.0
H1618 H 0.02943 0.78687 0.15609 0.0
H1619 H 0.06086 0.72858 0.11286 0.0
H1620 H 0.24709 0.75002 0.1054 0.0
H1621 H 0.18295 0.74914 0.10447 0.0
H1622 H 0.14212 0.79578 0.1458 0.0
C1623 C 0.01245 0.78371 0.14629 0.0
C1624 C 0.07829 0.74397 0.11991 0.0
C1625 C 0.97645 0.78544 0.14877 0.0
C1626 C 0.23264 0.74645 0.11593 0.0
C1627 C 0.19587 0.74644 0.11542 0.0
C1628 C 0.12467 0.78084 0.13856 0.0
C1629 C 0.02612 0.77544 0.13179 0.0
C1630 C 0.06488 0.76973 0.12989 0.0
C1631 C 0.17622 0.74668 0.12903 0.0
C1632 C 0.13789 0.75455 0.12894 0.0
H1633 H 0.94827 0.76732 0.11273 0.0
H1634 H 0.01151 0.76537 0.10821 0.0
H1635 H 0.08023 0.80925 0.14643 0.0
H1636 H 0.24356 0.74365 0.15452 0.0
H1637 H 0.17981 0.74311 0.15369 0.0
C1638 C 0.27862 0.23271 0.64581 0.0
C1639 C 0.27602 0.25345 0.63262 0.0
C1640 C 0.27828 0.19622 0.64478 0.0
C1641 C 0.28529 0.11801 0.62042 0.0
H1642 H 0.2103 0.08355 0.64607 0.0
C1643 C 0.24904 0.96949 0.62227 0.0
C1644 C 0.24292 0.95612 0.63701 0.0
C1645 C 0.25042 1.00592 0.61977 0.0
C1646 C 0.23164 0.09238 0.63895 0.0
H1647 H 0.27296 0.25221 0.60794 0.0
H1648 H 0.27371 0.18807 0.60606 0.0
H1649 H 0.22423 0.14544 0.64601 0.0
H1650 H 0.23084 0.97059 0.66034 0.0
H1651 H 0.23299 0.03289 0.65613 0.0
H1652 H 0.29358 0.0646 0.61379 0.0
C1653 C 0.27612 0.20017 0.61721 0.0
C1654 C 0.23958 0.12807 0.63891 0.0
C1655 C 0.2762 0.2369 0.61826 0.0
C1656 C 0.23535 0.9799 0.64881 0.0
C1657 C 0.23666 0.01594 0.64635 0.0
C1658 C 0.27771 0.08197 0.62065 0.0
C1659 C 0.27528 0.17949 0.63052 0.0
C1660 C 0.26683 0.14135 0.62986 0.0
C1661 C 0.24537 0.02972 0.63193 0.0
C1662 C 0.2511 0.06847 0.63014 0.0
H1663 H 0.2776 0.24472 0.65703 0.0
H1664 H 0.27809 0.18106 0.65524 0.0
H1665 H 0.30631 0.12748 0.61326 0.0
H1666 H 0.25527 0.95201 0.61292 0.0
H1667 H 0.25656 0.01536 0.60842 0.0
C1668 C 0.77703 0.24721 0.12411 0.0
C1669 C 0.76029 0.26382 0.13643 0.0
C1670 C 0.81354 0.24713 0.12282 0.0
C1671 C 0.89713 0.28654 0.13642 0.0
H1672 H 0.9341 0.19461 0.12733 0.0
C1673 C 0.04756 0.25538 0.13922 0.0
C1674 C 0.06119 0.23024 0.12905 0.0
C1675 C 0.01126 0.26153 0.14021 0.0
C1676 C 0.9246 0.22072 0.12961 0.0
H1677 H 0.7691 0.294 0.15697 0.0
H1678 H 0.83318 0.29489 0.15451 0.0
H1679 H 0.87144 0.20355 0.12818 0.0
H1680 H 0.04654 0.19213 0.11188 0.0
H1681 H 0.98421 0.2031 0.11332 0.0
H1682 H 0.95046 0.30383 0.13762 0.0
C1683 C 0.81788 0.28207 0.14573 0.0
C1684 C 0.8883 0.22582 0.13016 0.0
C1685 C 0.78109 0.2819 0.14709 0.0
C1686 C 0.0373 0.2115 0.11996 0.0
C1687 C 1.00119 0.21774 0.12087 0.0
C1688 C 0.93365 0.28153 0.1357 0.0
C1689 C 0.83471 0.26354 0.13387 0.0
C1690 C 0.87385 0.25881 0.13348 0.0
C1691 C 0.98728 0.24271 0.13108 0.0
C1692 C 0.94814 0.24849 0.13219 0.0
H1693 H 0.76185 0.23239 0.1159 0.0
H1694 H 0.82528 0.23304 0.11339 0.0
H1695 H 0.88712 0.31235 0.13896 0.0
H1696 H 0.06492 0.27018 0.14653 0.0
H1697 H 1.00204 0.28066 0.14838 0.0
C1698 C 0.78316 0.03276 0.65039 0.0
C1699 C 0.7755 0.05668 0.63861 0.0
C1700 C 0.77856 0.99679 0.64835 0.0
C1701 C 0.7685 0.92324 0.62171 0.0
H1702 H 0.712 0.88464 0.65438 0.0
C1703 C 0.73641 0.77375 0.6247 0.0
C1704 C 0.73982 0.75877 0.63931 0.0
C1705 C 0.73551 0.8104 0.62289 0.0
C1706 C 0.72807 0.89467 0.6452 0.0
H1707 H 0.76043 0.06045 0.61477 0.0
H1708 H 0.75319 0.99697 0.61108 0.0
H1709 H 0.725 0.94683 0.65401 0.0
H1710 H 0.74395 0.77041 0.66341 0.0
H1711 H 0.74163 0.83338 0.66046 0.0
H1712 H 0.77276 0.87066 0.61324 0.0
C1713 C 0.76216 1.00658 0.62205 0.0
C1714 C 0.73545 0.93055 0.64497 0.0
C1715 C 0.7666 0.04301 0.62413 0.0
C1716 C 0.74024 0.78109 0.65205 0.0
C1717 C 0.73913 0.81744 0.65029 0.0
C1718 C 0.76146 0.88702 0.62204 0.0
C1719 C 0.76652 0.98322 0.63439 0.0
C1720 C 0.75639 0.94532 0.63344 0.0
C1721 C 0.73792 0.8329 0.63567 0.0
C1722 C 0.74176 0.872 0.63401 0.0
H1723 H 0.79041 0.04207 0.66165 0.0
H1724 H 0.78306 0.9796 0.65799 0.0
H1725 H 0.78465 0.93369 0.61264 0.0
H1726 H 0.73723 0.7573 0.61462 0.0
H1727 H 0.73418 0.82106 0.61145 0.0
loop_
_geom_bond_atom_site_label_1
_geom_bond_atom_site_label_2
_geom_bond_distance
_geom_bond_site_symmetry_2
_ccdc_geom_bond_type
C0 C1 1.351 . S
C0 N3 1.368 . S
C0 H5 0.931 . S
C1 C0 1.351 . S
C1 N2 1.373 . S
C1 H29 0.930 . S
N2 C1 1.373 . S
N2 C4 1.340 . S
N3 C0 1.368 . S
N3 C4 1.321 . S
N3 Co6 2.135 . S
C4 N2 1.340 . S
C4 N3 1.321 . S
C4 H28 0.930 . S
H5 C0 0.931 . S
Co6 N3 2.135 . S
Co6 N9 2.121 . S
Co6 O14 2.055 . S
Co6 O17 2.039 . S
Co6 N20 2.140 . S
C7 O8 1.227 . S
C7 O17 1.265 . S
O8 C7 1.227 . S
N9 Co6 2.121 . S
N9 C11 1.375 . S
N9 C12 1.313 . S
C10 C11 1.338 . S
C10 N13 1.377 . S
C10 H30 0.930 . S
C11 N9 1.375 . S
C11 C10 1.338 . S
C11 H15 0.931 . S
C12 N9 1.313 . S
C12 N13 1.344 . S
C12 H16 0.930 . S
N13 C10 1.377 . S
N13 C12 1.344 . S
O14 Co6 2.055 . S
O14 C18 1.253 . S
H15 C11 0.931 . S
H16 C12 0.930 . S
O17 Co6 2.039 . S
O17 C7 1.265 . S
C18 O14 1.253 . S
C18 O19 1.227 . S
O19 C18 1.227 . S
N20 Co6 2.140 . S
N20 C23 1.346 . S
N20 C24 1.345 . S
C21 C22 1.387 . S
C21 C25 1.391 . S
C22 C21 1.387 . S
C22 C23 1.369 . S
C22 H31 0.929 . S
C23 N20 1.346 . S
C23 C22 1.369 . S
C23 H26 0.928 . S
C24 N20 1.345 . S
C24 C25 1.371 . S
C24 H27 0.931 . S
C25 C21 1.391 . S
C25 C24 1.371 . S
C25 H32 0.930 . S
H26 C23 0.928 . S
H27 C24 0.931 . S
H28 C4 0.930 . S
H29 C1 0.930 . S
H30 C10 0.930 . S
H31 C22 0.929 . S
H32 C25 0.930 . S
C33 C34 1.351 . S
C33 N36 1.368 . S
C33 H38 0.931 . S
C34 C33 1.351 . S
C34 N35 1.373 . S
C34 H62 0.930 . S
N35 C34 1.373 . S
N35 C37 1.340 . S
N36 C33 1.368 . S
N36 C37 1.321 . S
N36 Co39 2.135 . S
C37 N35 1.340 . S
C37 N36 1.321 . S
C37 H61 0.930 . S
H38 C33 0.931 . S
Co39 N36 2.135 . S
Co39 N42 2.121 . S
Co39 O47 2.055 . S
Co39 O50 2.039 . S
Co39 N53 2.140 . S
C40 O41 1.227 . S
C40 O50 1.265 . S
O41 C40 1.227 . S
N42 Co39 2.121 . S
N42 C44 1.375 . S
N42 C45 1.313 . S
C43 C44 1.338 . S
C43 N46 1.377 . S
C43 H63 0.930 . S
C44 N42 1.375 . S
C44 C43 1.338 . S
C44 H48 0.931 . S
C45 N42 1.313 . S
C45 N46 1.344 . S
C45 H49 0.930 . S
N46 C43 1.377 . S
N46 C45 1.344 . S
O47 Co39 2.055 . S
O47 C51 1.253 . S
H48 C44 0.931 . S
H49 C45 0.930 . S
O50 Co39 2.039 . S
O50 C40 1.265 . S
C51 O47 1.253 . S
C51 O52 1.227 . S
O52 C51 1.227 . S
N53 Co39 2.140 . S
N53 C56 1.346 . S
N53 C57 1.345 . S
C54 C55 1.387 . S
C54 C58 1.391 . S
C55 C54 1.387 . S
C55 C56 1.369 . S
C55 H64 0.929 . S
C56 N53 1.346 . S
C56 C55 1.369 . S
C56 H59 0.928 . S
C57 N53 1.345 . S
C57 C58 1.371 . S
C57 H60 0.931 . S
C58 C54 1.391 . S
C58 C57 1.371 . S
C58 H65 0.930 . S
H59 C56 0.928 . S
H60 C57 0.931 . S
H61 C37 0.930 . S
H62 C34 0.930 . S
H63 C43 0.930 . S
H64 C55 0.929 . S
H65 C58 0.930 . S
C66 C67 1.351 . S
C66 N69 1.368 . S
C66 H71 0.931 . S
C67 C66 1.351 . S
C67 N68 1.373 . S
C67 H95 0.930 . S
N68 C67 1.373 . S
N68 C70 1.340 . S
N69 C66 1.368 . S
N69 C70 1.321 . S
N69 Co72 2.135 . S
C70 N68 1.340 . S
C70 N69 1.321 . S
C70 H94 0.930 . S
H71 C66 0.931 . S
Co72 N69 2.135 . S
Co72 N75 2.121 . S
Co72 O80 2.055 . S
Co72 O83 2.039 . S
Co72 N86 2.140 . S
C73 O74 1.227 . S
C73 O83 1.265 . S
O74 C73 1.227 . S
N75 Co72 2.121 . S
N75 C77 1.375 . S
N75 C78 1.313 . S
C76 C77 1.338 . S
C76 N79 1.377 . S
C76 H96 0.930 . S
C77 N75 1.375 . S
C77 C76 1.338 . S
C77 H81 0.931 . S
C78 N75 1.313 . S
C78 N79 1.344 . S
C78 H82 0.930 . S
N79 C76 1.377 . S
N79 C78 1.344 . S
O80 Co72 2.055 . S
O80 C84 1.253 . S
H81 C77 0.931 . S
H82 C78 0.930 . S
O83 Co72 2.039 . S
O83 C73 1.265 . S
C84 O80 1.253 . S
C84 O85 1.227 . S
O85 C84 1.227 . S
N86 Co72 2.140 . S
N86 C89 1.346 . S
N86 C90 1.345 . S
C87 C88 1.387 . S
C87 C91 1.391 . S
C88 C87 1.387 . S
C88 C89 1.369 . S
C88 H97 0.929 . S
C89 N86 1.346 . S
C89 C88 1.369 . S
C89 H92 0.928 . S
C90 N86 1.345 . S
C90 C91 1.371 . S
C90 H93 0.931 . S
C91 C87 1.391 . S
C91 C90 1.371 . S
C91 H98 0.930 . S
H92 C89 0.928 . S
H93 C90 0.931 . S
H94 C70 0.930 . S
H95 C67 0.930 . S
H96 C76 0.930 . S
H97 C88 0.929 . S
H98 C91 0.930 . S
C99 C100 1.351 . S
C99 N102 1.368 . S
C99 H104 0.931 . S
C100 C99 1.351 . S
C100 N101 1.373 . S
C100 H128 0.930 . S
N101 C100 1.373 . S
N101 C103 1.340 . S
N102 C99 1.368 . S
N102 C103 1.321 . S
N102 Co105 2.135 . S
C103 N101 1.340 . S
C103 N102 1.321 . S
C103 H127 0.930 . S
H104 C99 0.931 . S
Co105 N102 2.135 . S
Co105 N108 2.121 . S
Co105 O113 2.055 . S
Co105 O116 2.039 . S
Co105 N119 2.140 . S
C106 O107 1.227 . S
C106 O116 1.265 . S
O107 C106 1.227 . S
N108 Co105 2.121 . S
N108 C110 1.375 . S
N108 C111 1.313 . S
C109 C110 1.338 . S
C109 N112 1.377 . S
C109 H129 0.930 . S
C110 N108 1.375 . S
C110 C109 1.338 . S
C110 H114 0.931 . S
C111 N108 1.313 . S
C111 N112 1.344 . S
C111 H115 0.930 . S
N112 C109 1.377 . S
N112 C111 1.344 . S
O113 Co105 2.055 . S
O113 C117 1.253 . S
H114 C110 0.931 . S
H115 C111 0.930 . S
O116 Co105 2.039 . S
O116 C106 1.265 . S
C117 O113 1.253 . S
C117 O118 1.227 . S
O118 C117 1.227 . S
N119 Co105 2.140 . S
N119 C122 1.346 . S
N119 C123 1.345 . S
C120 C121 1.387 . S
C120 C124 1.391 . S
C121 C120 1.387 . S
C121 C122 1.369 . S
C121 H130 0.929 . S
C122 N119 1.346 . S
C122 C121 1.369 . S
C122 H125 0.928 . S
C123 N119 1.345 . S
C123 C124 1.371 . S
C123 H126 0.931 . S
C124 C120 1.391 . S
C124 C123 1.371 . S
C124 H131 0.930 . S
H125 C122 0.928 . S
H126 C123 0.931 . S
H127 C103 0.930 . S
H128 C100 0.930 . S
H129 C109 0.930 . S
H130 C121 0.929 . S
H131 C124 0.930 . S
C132 C133 1.351 . S
C132 N135 1.368 . S
C132 H137 0.931 . S
C133 C132 1.351 . S
C133 N134 1.373 . S
C133 H161 0.930 . S
N134 C133 1.373 . S
N134 C136 1.340 . S
N135 C132 1.368 . S
N135 C136 1.321 . S
N135 Co138 2.135 . S
C136 N134 1.340 . S
C136 N135 1.321 . S
C136 H160 0.930 . S
H137 C132 0.931 . S
Co138 N135 2.135 . S
Co138 N141 2.121 . S
Co138 O146 2.055 . S
Co138 O149 2.039 . S
Co138 N152 2.140 . S
C139 O140 1.227 . S
C139 O149 1.265 . S
O140 C139 1.227 . S
N141 Co138 2.121 . S
N141 C143 1.375 . S
N141 C144 1.313 . S
C142 C143 1.338 . S
C142 N145 1.377 . S
C142 H162 0.930 . S
C143 N141 1.375 . S
C143 C142 1.338 . S
C143 H147 0.931 . S
C144 N141 1.313 . S
C144 N145 1.344 . S
C144 H148 0.930 . S
N145 C142 1.377 . S
N145 C144 1.344 . S
O146 Co138 2.055 . S
O146 C150 1.253 . S
H147 C143 0.931 . S
H148 C144 0.930 . S
O149 Co138 2.039 . S
O149 C139 1.265 . S
C150 O146 1.253 . S
C150 O151 1.227 . S
O151 C150 1.227 . S
N152 Co138 2.140 . S
N152 C155 1.346 . S
N152 C156 1.345 . S
C153 C154 1.387 . S
C153 C157 1.391 . S
C154 C153 1.387 . S
C154 C155 1.369 . S
C154 H163 0.929 . S
C155 N152 1.346 . S
C155 C154 1.369 . S
C155 H158 0.928 . S
C156 N152 1.345 . S
C156 C157 1.371 . S
C156 H159 0.931 . S
C157 C153 1.391 . S
C157 C156 1.371 . S
C157 H164 0.930 . S
H158 C155 0.928 . S
H159 C156 0.931 . S
H160 C136 0.930 . S
H161 C133 0.930 . S
H162 C142 0.930 . S
H163 C154 0.929 . S
H164 C157 0.930 . S
C165 C166 1.351 . S
C165 N168 1.368 . S
C165 H170 0.931 . S
C166 C165 1.351 . S
C166 N167 1.373 . S
C166 H194 0.930 . S
N167 C166 1.373 . S
N167 C169 1.340 . S
N168 C165 1.368 . S
N168 C169 1.321 . S
N168 Co171 2.135 . S
C169 N167 1.340 . S
C169 N168 1.321 . S
C169 H193 0.930 . S
H170 C165 0.931 . S
Co171 N168 2.135 . S
Co171 N174 2.121 . S
Co171 O179 2.055 . S
Co171 O182 2.039 . S
Co171 N185 2.140 . S
C172 O173 1.227 . S
C172 O182 1.265 . S
O173 C172 1.227 . S
N174 Co171 2.121 . S
N174 C176 1.375 . S
N174 C177 1.313 . S
C175 C176 1.338 . S
C175 N178 1.377 . S
C175 H195 0.930 . S
C176 N174 1.375 . S
C176 C175 1.338 . S
C176 H180 0.931 . S
C177 N174 1.313 . S
C177 N178 1.344 . S
C177 H181 0.930 . S
N178 C175 1.377 . S
N178 C177 1.344 . S
O179 Co171 2.055 . S
O179 C183 1.253 . S
H180 C176 0.931 . S
H181 C177 0.930 . S
O182 Co171 2.039 . S
O182 C172 1.265 . S
C183 O179 1.253 . S
C183 O184 1.227 . S
O184 C183 1.227 . S
N185 Co171 2.140 . S
N185 C188 1.346 . S
N185 C189 1.345 . S
C186 C187 1.387 . S
C186 C190 1.391 . S
C187 C186 1.387 . S
C187 C188 1.369 . S
C187 H196 0.929 . S
C188 N185 1.346 . S
C188 C187 1.369 . S
C188 H191 0.928 . S
C189 N185 1.345 . S
C189 C190 1.371 . S
C189 H192 0.931 . S
C190 C186 1.391 . S
C190 C189 1.371 . S
C190 H197 0.930 . S
H191 C188 0.928 . S
H192 C189 0.931 . S
H193 C169 0.930 . S
H194 C166 0.930 . S
H195 C175 0.930 . S
H196 C187 0.929 . S
H197 C190 0.930 . S
C198 C199 1.351 . S
C198 N201 1.368 . S
C198 H203 0.931 . S
C199 C198 1.351 . S
C199 N200 1.373 . S
C199 H227 0.930 . S
N200 C199 1.373 . S
N200 C202 1.340 . S
N201 C198 1.368 . S
N201 C202 1.321 . S
N201 Co204 2.135 . S
C202 N200 1.340 . S
C202 N201 1.321 . S
C202 H226 0.930 . S
H203 C198 0.931 . S
Co204 N201 2.135 . S
Co204 N207 2.121 . S
Co204 O212 2.055 . S
Co204 O215 2.039 . S
Co204 N218 2.140 . S
C205 O206 1.227 . S
C205 O215 1.265 . S
O206 C205 1.227 . S
N207 Co204 2.121 . S
N207 C209 1.375 . S
N207 C210 1.313 . S
C208 C209 1.338 . S
C208 N211 1.377 . S
C208 H228 0.930 . S
C209 N207 1.375 . S
C209 C208 1.338 . S
C209 H213 0.931 . S
C210 N207 1.313 . S
C210 N211 1.344 . S
C210 H214 0.930 . S
N211 C208 1.377 . S
N211 C210 1.344 . S
O212 Co204 2.055 . S
O212 C216 1.253 . S
H213 C209 0.931 . S
H214 C210 0.930 . S
O215 Co204 2.039 . S
O215 C205 1.265 . S
C216 O212 1.253 . S
C216 O217 1.227 . S
O217 C216 1.227 . S
N218 Co204 2.140 . S
N218 C221 1.346 . S
N218 C222 1.345 . S
C219 C220 1.387 . S
C219 C223 1.391 . S
C220 C219 1.387 . S
C220 C221 1.369 . S
C220 H229 0.929 . S
C221 N218 1.346 . S
C221 C220 1.369 . S
C221 H224 0.928 . S
C222 N218 1.345 . S
C222 C223 1.371 . S
C222 H225 0.931 . S
C223 C219 1.391 . S
C223 C222 1.371 . S
C223 H230 0.930 . S
H224 C221 0.928 . S
H225 C222 0.931 . S
H226 C202 0.930 . S
H227 C199 0.930 . S
H228 C208 0.930 . S
H229 C220 0.929 . S
H230 C223 0.930 . S
C231 C232 1.351 . S
C231 N234 1.368 . S
C231 H236 0.931 . S
C232 C231 1.351 . S
C232 N233 1.373 . S
C232 H260 0.930 . S
N233 C232 1.373 . S
N233 C235 1.340 . S
N234 C231 1.368 . S
N234 C235 1.321 . S
N234 Co237 2.135 . S
C235 N233 1.340 . S
C235 N234 1.321 . S
C235 H259 0.930 . S
H236 C231 0.931 . S
Co237 N234 2.135 . S
Co237 N240 2.121 . S
Co237 O245 2.055 . S
Co237 O248 2.039 . S
Co237 N251 2.140 . S
C238 O239 1.227 . S
C238 O248 1.265 . S
O239 C238 1.227 . S
N240 Co237 2.121 . S
N240 C242 1.375 . S
N240 C243 1.313 . S
C241 C242 1.338 . S
C241 N244 1.377 . S
C241 H261 0.930 . S
C242 N240 1.375 . S
C242 C241 1.338 . S
C242 H246 0.931 . S
C243 N240 1.313 . S
C243 N244 1.344 . S
C243 H247 0.930 . S
N244 C241 1.377 . S
N244 C243 1.344 . S
O245 Co237 2.055 . S
O245 C249 1.253 . S
H246 C242 0.931 . S
H247 C243 0.930 . S
O248 Co237 2.039 . S
O248 C238 1.265 . S
C249 O245 1.253 . S
C249 O250 1.227 . S
O250 C249 1.227 . S
N251 Co237 2.140 . S
N251 C254 1.346 . S
N251 C255 1.345 . S
C252 C253 1.387 . S
C252 C256 1.391 . S
C253 C252 1.387 . S
C253 C254 1.369 . S
C253 H262 0.929 . S
C254 N251 1.346 . S
C254 C253 1.369 . S
C254 H257 0.928 . S
C255 N251 1.345 . S
C255 C256 1.371 . S
C255 H258 0.931 . S
C256 C252 1.391 . S
C256 C255 1.371 . S
C256 H263 0.930 . S
H257 C254 0.928 . S
H258 C255 0.931 . S
H259 C235 0.930 . S
H260 C232 0.930 . S
H261 C241 0.930 . S
H262 C253 0.929 . S
H263 C256 0.930 . S
C264 C265 1.351 . S
C264 N267 1.368 . S
C264 H269 0.931 . S
C265 C264 1.351 . S
C265 N266 1.373 . S
C265 H293 0.930 . S
N266 C265 1.373 . S
N266 C268 1.340 . S
N267 C264 1.368 . S
N267 C268 1.321 . S
N267 Co270 2.135 . S
C268 N266 1.340 . S
C268 N267 1.321 . S
C268 H292 0.930 . S
H269 C264 0.931 . S
Co270 N267 2.135 . S
Co270 N273 2.121 . S
Co270 O278 2.055 . S
Co270 O281 2.039 . S
Co270 N284 2.140 . S
C271 O272 1.227 . S
C271 O281 1.265 . S
O272 C271 1.227 . S
N273 Co270 2.121 . S
N273 C275 1.375 . S
N273 C276 1.313 . S
C274 C275 1.338 . S
C274 N277 1.377 . S
C274 H294 0.930 . S
C275 N273 1.375 . S
C275 C274 1.338 . S
C275 H279 0.931 . S
C276 N273 1.313 . S
C276 N277 1.344 . S
C276 H280 0.930 . S
N277 C274 1.377 . S
N277 C276 1.344 . S
O278 Co270 2.055 . S
O278 C282 1.253 . S
H279 C275 0.931 . S
H280 C276 0.930 . S
O281 Co270 2.039 . S
O281 C271 1.265 . S
C282 O278 1.253 . S
C282 O283 1.227 . S
O283 C282 1.227 . S
N284 Co270 2.140 . S
N284 C287 1.346 . S
N284 C288 1.345 . S
C285 C286 1.387 . S
C285 C289 1.391 . S
C286 C285 1.387 . S
C286 C287 1.369 . S
C286 H295 0.929 . S
C287 N284 1.346 . S
C287 C286 1.369 . S
C287 H290 0.928 . S
C288 N284 1.345 . S
C288 C289 1.371 . S
C288 H291 0.931 . S
C289 C285 1.391 . S
C289 C288 1.371 . S
C289 H296 0.930 . S
H290 C287 0.928 . S
H291 C288 0.931 . S
H292 C268 0.930 . S
H293 C265 0.930 . S
H294 C274 0.930 . S
H295 C286 0.929 . S
H296 C289 0.930 . S
C297 C298 1.351 . S
C297 N300 1.368 . S
C297 H302 0.931 . S
C298 C297 1.351 . S
C298 N299 1.373 . S
C298 H326 0.930 . S
N299 C298 1.373 . S
N299 C301 1.340 . S
N300 C297 1.368 . S
N300 C301 1.321 . S
N300 Co303 2.135 . S
C301 N299 1.340 . S
C301 N300 1.321 . S
C301 H325 0.930 . S
H302 C297 0.931 . S
Co303 N300 2.135 . S
Co303 N306 2.121 . S
Co303 O311 2.055 . S
Co303 O314 2.039 . S
Co303 N317 2.140 . S
C304 O305 1.227 . S
C304 O314 1.265 . S
O305 C304 1.227 . S
N306 Co303 2.121 . S
N306 C308 1.375 . S
N306 C309 1.313 . S
C307 C308 1.338 . S
C307 N310 1.377 . S
C307 H327 0.930 . S
C308 N306 1.375 . S
C308 C307 1.338 . S
C308 H312 0.931 . S
C309 N306 1.313 . S
C309 N310 1.344 . S
C309 H313 0.930 . S
N310 C307 1.377 . S
N310 C309 1.344 . S
O311 Co303 2.055 . S
O311 C315 1.253 . S
H312 C308 0.931 . S
H313 C309 0.930 . S
O314 Co303 2.039 . S
O314 C304 1.265 . S
C315 O311 1.253 . S
C315 O316 1.227 . S
O316 C315 1.227 . S
N317 Co303 2.140 . S
N317 C320 1.346 . S
N317 C321 1.345 . S
C318 C319 1.387 . S
C318 C322 1.391 . S
C319 C318 1.387 . S
C319 C320 1.369 . S
C319 H328 0.929 . S
C320 N317 1.346 . S
C320 C319 1.369 . S
C320 H323 0.928 . S
C321 N317 1.345 . S
C321 C322 1.371 . S
C321 H324 0.931 . S
C322 C318 1.391 . S
C322 C321 1.371 . S
C322 H329 0.930 . S
H323 C320 0.928 . S
H324 C321 0.931 . S
H325 C301 0.930 . S
H326 C298 0.930 . S
H327 C307 0.930 . S
H328 C319 0.929 . S
H329 C322 0.930 . S
C330 C331 1.351 . S
C330 N333 1.368 . S
C330 H335 0.931 . S
C331 C330 1.351 . S
C331 N332 1.373 . S
C331 H359 0.930 . S
N332 C331 1.373 . S
N332 C334 1.340 . S
N333 C330 1.368 . S
N333 C334 1.321 . S
N333 Co336 2.135 . S
C334 N332 1.340 . S
C334 N333 1.321 . S
C334 H358 0.930 . S
H335 C330 0.931 . S
Co336 N333 2.135 . S
Co336 N339 2.121 . S
Co336 O344 2.055 . S
Co336 O347 2.039 . S
Co336 N350 2.140 . S
C337 O338 1.227 . S
C337 O347 1.265 . S
O338 C337 1.227 . S
N339 Co336 2.121 . S
N339 C341 1.375 . S
N339 C342 1.313 . S
C340 C341 1.338 . S
C340 N343 1.377 . S
C340 H360 0.930 . S
C341 N339 1.375 . S
C341 C340 1.338 . S
C341 H345 0.931 . S
C342 N339 1.313 . S
C342 N343 1.344 . S
C342 H346 0.930 . S
N343 C340 1.377 . S
N343 C342 1.344 . S
O344 Co336 2.055 . S
O344 C348 1.253 . S
H345 C341 0.931 . S
H346 C342 0.930 . S
O347 Co336 2.039 . S
O347 C337 1.265 . S
C348 O344 1.253 . S
C348 O349 1.227 . S
O349 C348 1.227 . S
N350 Co336 2.140 . S
N350 C353 1.346 . S
N350 C354 1.345 . S
C351 C352 1.387 . S
C351 C355 1.391 . S
C352 C351 1.387 . S
C352 C353 1.369 . S
C352 H361 0.929 . S
C353 N350 1.346 . S
C353 C352 1.369 . S
C353 H356 0.928 . S
C354 N350 1.345 . S
C354 C355 1.371 . S
C354 H357 0.931 . S
C355 C351 1.391 . S
C355 C354 1.371 . S
C355 H362 0.930 . S
H356 C353 0.928 . S
H357 C354 0.931 . S
H358 C334 0.930 . S
H359 C331 0.930 . S
H360 C340 0.930 . S
H361 C352 0.929 . S
H362 C355 0.930 . S
C363 C364 1.351 . S
C363 N366 1.368 . S
C363 H368 0.931 . S
C364 C363 1.351 . S
C364 N365 1.373 . S
C364 H392 0.930 . S
N365 C364 1.373 . S
N365 C367 1.340 . S
N366 C363 1.368 . S
N366 C367 1.321 . S
N366 Co369 2.135 . S
C367 N365 1.340 . S
C367 N366 1.321 . S
C367 H391 0.930 . S
H368 C363 0.931 . S
Co369 N366 2.135 . S
Co369 N372 2.121 . S
Co369 O377 2.055 . S
Co369 O380 2.039 . S
Co369 N383 2.140 . S
C370 O371 1.227 . S
C370 O380 1.265 . S
O371 C370 1.227 . S
N372 Co369 2.121 . S
N372 C374 1.375 . S
N372 C375 1.313 . S
C373 C374 1.338 . S
C373 N376 1.377 . S
C373 H393 0.930 . S
C374 N372 1.375 . S
C374 C373 1.338 . S
C374 H378 0.931 . S
C375 N372 1.313 . S
C375 N376 1.344 . S
C375 H379 0.930 . S
N376 C373 1.377 . S
N376 C375 1.344 . S
O377 Co369 2.055 . S
O377 C381 1.253 . S
H378 C374 0.931 . S
H379 C375 0.930 . S
O380 Co369 2.039 . S
O380 C370 1.265 . S
C381 O377 1.253 . S
C381 O382 1.227 . S
O382 C381 1.227 . S
N383 Co369 2.140 . S
N383 C386 1.346 . S
N383 C387 1.345 . S
C384 C385 1.387 . S
C384 C388 1.391 . S
C385 C384 1.387 . S
C385 C386 1.369 . S
C385 H394 0.929 . S
C386 N383 1.346 . S
C386 C385 1.369 . S
C386 H389 0.928 . S
C387 N383 1.345 . S
C387 C388 1.371 . S
C387 H390 0.931 . S
C388 C384 1.391 . S
C388 C387 1.371 . S
C388 H395 0.930 . S
H389 C386 0.928 . S
H390 C387 0.931 . S
H391 C367 0.930 . S
H392 C364 0.930 . S
H393 C373 0.930 . S
H394 C385 0.929 . S
H395 C388 0.930 . S
C396 C397 1.351 . S
C396 N399 1.368 . S
C396 H401 0.931 . S
C397 C396 1.351 . S
C397 N398 1.373 . S
C397 H425 0.930 . S
N398 C397 1.373 . S
N398 C400 1.340 . S
N399 C396 1.368 . S
N399 C400 1.321 . S
N399 Co402 2.135 . S
C400 N398 1.340 . S
C400 N399 1.321 . S
C400 H424 0.930 . S
H401 C396 0.931 . S
Co402 N399 2.135 . S
Co402 N405 2.121 . S
Co402 O410 2.055 . S
Co402 O413 2.039 . S
Co402 N416 2.140 . S
C403 O404 1.227 . S
C403 O413 1.265 . S
O404 C403 1.227 . S
N405 Co402 2.121 . S
N405 C407 1.375 . S
N405 C408 1.313 . S
C406 C407 1.338 . S
C406 N409 1.377 . S
C406 H426 0.930 . S
C407 N405 1.375 . S
C407 C406 1.338 . S
C407 H411 0.931 . S
C408 N405 1.313 . S
C408 N409 1.344 . S
C408 H412 0.930 . S
N409 C406 1.377 . S
N409 C408 1.344 . S
O410 Co402 2.055 . S
O410 C414 1.253 . S
H411 C407 0.931 . S
H412 C408 0.930 . S
O413 Co402 2.039 . S
O413 C403 1.265 . S
C414 O410 1.253 . S
C414 O415 1.227 . S
O415 C414 1.227 . S
N416 Co402 2.140 . S
N416 C419 1.346 . S
N416 C420 1.345 . S
C417 C418 1.387 . S
C417 C421 1.391 . S
C418 C417 1.387 . S
C418 C419 1.369 . S
C418 H427 0.929 . S
C419 N416 1.346 . S
C419 C418 1.369 . S
C419 H422 0.928 . S
C420 N416 1.345 . S
C420 C421 1.371 . S
C420 H423 0.931 . S
C421 C417 1.391 . S
C421 C420 1.371 . S
C421 H428 0.930 . S
H422 C419 0.928 . S
H423 C420 0.931 . S
H424 C400 0.930 . S
H425 C397 0.930 . S
H426 C406 0.930 . S
H427 C418 0.929 . S
H428 C421 0.930 . S
C429 C430 1.351 . S
C429 N432 1.368 . S
C429 H434 0.931 . S
C430 C429 1.351 . S
C430 N431 1.373 . S
C430 H458 0.930 . S
N431 C430 1.373 . S
N431 C433 1.340 . S
N432 C429 1.368 . S
N432 C433 1.321 . S
N432 Co435 2.135 . S
C433 N431 1.340 . S
C433 N432 1.321 . S
C433 H457 0.930 . S
H434 C429 0.931 . S
Co435 N432 2.135 . S
Co435 N438 2.121 . S
Co435 O443 2.055 . S
Co435 O446 2.039 . S
Co435 N449 2.140 . S
C436 O437 1.227 . S
C436 O446 1.265 . S
O437 C436 1.227 . S
N438 Co435 2.121 . S
N438 C440 1.375 . S
N438 C441 1.313 . S
C439 C440 1.338 . S
C439 N442 1.377 . S
C439 H459 0.930 . S
C440 N438 1.375 . S
C440 C439 1.338 . S
C440 H444 0.931 . S
C441 N438 1.313 . S
C441 N442 1.344 . S
C441 H445 0.930 . S
N442 C439 1.377 . S
N442 C441 1.344 . S
O443 Co435 2.055 . S
O443 C447 1.253 . S
H444 C440 0.931 . S
H445 C441 0.930 . S
O446 Co435 2.039 . S
O446 C436 1.265 . S
C447 O443 1.253 . S
C447 O448 1.227 . S
O448 C447 1.227 . S
N449 Co435 2.140 . S
N449 C452 1.346 . S
N449 C453 1.345 . S
C450 C451 1.387 . S
C450 C454 1.391 . S
C451 C450 1.387 . S
C451 C452 1.369 . S
C451 H460 0.929 . S
C452 N449 1.346 . S
C452 C451 1.369 . S
C452 H455 0.928 . S
C453 N449 1.345 . S
C453 C454 1.371 . S
C453 H456 0.931 . S
C454 C450 1.391 . S
C454 C453 1.371 . S
C454 H461 0.930 . S
H455 C452 0.928 . S
H456 C453 0.931 . S
H457 C433 0.930 . S
H458 C430 0.930 . S
H459 C439 0.930 . S
H460 C451 0.929 . S
H461 C454 0.930 . S
C462 C463 1.351 . S
C462 N465 1.368 . S
C462 H467 0.931 . S
C463 C462 1.351 . S
C463 N464 1.373 . S
C463 H491 0.930 . S
N464 C463 1.373 . S
N464 C466 1.340 . S
N465 C462 1.368 . S
N465 C466 1.321 . S
N465 Co468 2.135 . S
C466 N464 1.340 . S
C466 N465 1.321 . S
C466 H490 0.930 . S
H467 C462 0.931 . S
Co468 N465 2.135 . S
Co468 N471 2.121 . S
Co468 O476 2.055 . S
Co468 O479 2.039 . S
Co468 N482 2.140 . S
C469 O470 1.227 . S
C469 O479 1.265 . S
O470 C469 1.227 . S
N471 Co468 2.121 . S
N471 C473 1.375 . S
N471 C474 1.313 . S
C472 C473 1.338 . S
C472 N475 1.377 . S
C472 H492 0.930 . S
C473 N471 1.375 . S
C473 C472 1.338 . S
C473 H477 0.931 . S
C474 N471 1.313 . S
C474 N475 1.344 . S
C474 H478 0.930 . S
N475 C472 1.377 . S
N475 C474 1.344 . S
O476 Co468 2.055 . S
O476 C480 1.253 . S
H477 C473 0.931 . S
H478 C474 0.930 . S
O479 Co468 2.039 . S
O479 C469 1.265 . S
C480 O476 1.253 . S
C480 O481 1.227 . S
O481 C480 1.227 . S
N482 Co468 2.140 . S
N482 C485 1.346 . S
N482 C486 1.345 . S
C483 C484 1.387 . S
C483 C487 1.391 . S
C484 C483 1.387 . S
C484 C485 1.369 . S
C484 H493 0.929 . S
C485 N482 1.346 . S
C485 C484 1.369 . S
C485 H488 0.928 . S
C486 N482 1.345 . S
C486 C487 1.371 . S
C486 H489 0.931 . S
C487 C483 1.391 . S
C487 C486 1.371 . S
C487 H494 0.930 . S
H488 C485 0.928 . S
H489 C486 0.931 . S
H490 C466 0.930 . S
H491 C463 0.930 . S
H492 C472 0.930 . S
H493 C484 0.929 . S
H494 C487 0.930 . S
C495 C496 1.351 . S
C495 N498 1.368 . S
C495 H500 0.931 . S
C496 C495 1.351 . S
C496 N497 1.373 . S
C496 H524 0.930 . S
N497 C496 1.373 . S
N497 C499 1.340 . S
N498 C495 1.368 . S
N498 C499 1.321 . S
N498 Co501 2.135 . S
C499 N497 1.340 . S
C499 N498 1.321 . S
C499 H523 0.930 . S
H500 C495 0.931 . S
Co501 N498 2.135 . S
Co501 N504 2.121 . S
Co501 O509 2.055 . S
Co501 O512 2.039 . S
Co501 N515 2.140 . S
C502 O503 1.227 . S
C502 O512 1.265 . S
O503 C502 1.227 . S
N504 Co501 2.121 . S
N504 C506 1.375 . S
N504 C507 1.313 . S
C505 C506 1.338 . S
C505 N508 1.377 . S
C505 H525 0.930 . S
C506 N504 1.375 . S
C506 C505 1.338 . S
C506 H510 0.931 . S
C507 N504 1.313 . S
C507 N508 1.344 . S
C507 H511 0.930 . S
N508 C505 1.377 . S
N508 C507 1.344 . S
O509 Co501 2.055 . S
O509 C513 1.253 . S
H510 C506 0.931 . S
H511 C507 0.930 . S
O512 Co501 2.039 . S
O512 C502 1.265 . S
C513 O509 1.253 . S
C513 O514 1.227 . S
O514 C513 1.227 . S
N515 Co501 2.140 . S
N515 C518 1.346 . S
N515 C519 1.345 . S
C516 C517 1.387 . S
C516 C520 1.391 . S
C517 C516 1.387 . S
C517 C518 1.369 . S
C517 H526 0.929 . S
C518 N515 1.346 . S
C518 C517 1.369 . S
C518 H521 0.928 . S
C519 N515 1.345 . S
C519 C520 1.371 . S
C519 H522 0.931 . S
C520 C516 1.391 . S
C520 C519 1.371 . S
C520 H527 0.930 . S
H521 C518 0.928 . S
H522 C519 0.931 . S
H523 C499 0.930 . S
H524 C496 0.930 . S
H525 C505 0.930 . S
H526 C517 0.929 . S
H527 C520 0.930 . S
C528 C529 1.349 . S
C528 C530 1.327 . S
C528 H553 0.950 . S
C529 C528 1.349 . S
C529 C545 1.349 . S
C530 C528 1.327 . S
C530 C549 1.429 . S
C530 H554 0.950 . S
C531 C548 1.574 . S
C531 C550 1.368 . S
C531 H555 0.949 . S
H532 C536 0.949 . S
C533 C534 1.349 . S
C533 C535 1.327 . S
C533 H556 0.950 . S
C534 C533 1.349 . S
C534 C546 1.349 . S
C535 C533 1.327 . S
C535 C551 1.429 . S
C535 H557 0.950 . S
C536 H532 0.949 . S
C536 C544 1.574 . S
C536 C552 1.368 . S
H537 C545 0.950 . S
H538 C543 0.950 . S
H539 C544 0.949 . S
H540 C546 0.950 . S
H541 C547 0.950 . S
H542 C548 0.949 . S
C543 H538 0.950 . S
C543 C545 1.327 . S
C543 C549 1.429 . S
C544 C536 1.574 . S
C544 H539 0.949 . S
C544 C550 1.368 . S
C545 C529 1.349 . S
C545 H537 0.950 . S
C545 C543 1.327 . S
C546 C534 1.349 . S
C546 H540 0.950 . S
C546 C547 1.327 . S
C547 H541 0.950 . S
C547 C546 1.327 . S
C547 C551 1.429 . S
C548 C531 1.574 . S
C548 H542 0.949 . S
C548 C552 1.368 . S
C549 C530 1.429 . S
C549 C543 1.429 . S
C549 C550 1.523 . S
C550 C531 1.368 . S
C550 C544 1.368 . S
C550 C549 1.523 . S
C551 C535 1.429 . S
C551 C547 1.429 . S
C551 C552 1.523 . S
C552 C536 1.368 . S
C552 C548 1.368 . S
C552 C551 1.523 . S
H553 C528 0.950 . S
H554 C530 0.950 . S
H555 C531 0.949 . S
H556 C533 0.950 . S
H557 C535 0.950 . S
C558 C559 1.349 . S
C558 C560 1.327 . S
C558 H583 0.950 . S
C559 C558 1.349 . S
C559 C575 1.349 . S
C560 C558 1.327 . S
C560 C579 1.429 . S
C560 H584 0.950 . S
C561 C578 1.574 . S
C561 C580 1.368 . S
C561 H585 0.949 . S
H562 C566 0.949 . S
C563 C564 1.349 . S
C563 C565 1.327 . S
C563 H586 0.950 . S
C564 C563 1.349 . S
C564 C576 1.349 . S
C565 C563 1.327 . S
C565 C581 1.429 . S
C565 H587 0.950 . S
C566 H562 0.949 . S
C566 C574 1.574 . S
C566 C582 1.368 . S
H567 C575 0.950 . S
H568 C573 0.950 . S
H569 C574 0.949 . S
H570 C576 0.950 . S
H571 C577 0.950 . S
H572 C578 0.949 . S
C573 H568 0.950 . S
C573 C575 1.327 . S
C573 C579 1.429 . S
C574 C566 1.574 . S
C574 H569 0.949 . S
C574 C580 1.368 . S
C575 C559 1.349 . S
C575 H567 0.950 . S
C575 C573 1.327 . S
C576 C564 1.349 . S
C576 H570 0.950 . S
C576 C577 1.327 . S
C577 H571 0.950 . S
C577 C576 1.327 . S
C577 C581 1.429 . S
C578 C561 1.574 . S
C578 H572 0.949 . S
C578 C582 1.368 . S
C579 C560 1.429 . S
C579 C573 1.429 . S
C579 C580 1.523 . S
C580 C561 1.368 . S
C580 C574 1.368 . S
C580 C579 1.523 . S
C581 C565 1.429 . S
C581 C577 1.429 . S
C581 C582 1.523 . S
C582 C566 1.368 . S
C582 C578 1.368 . S
C582 C581 1.523 . S
H583 C558 0.950 . S
H584 C560 0.950 . S
H585 C561 0.949 . S
H586 C563 0.950 . S
H587 C565 0.950 . S
C588 C589 1.349 . S
C588 C590 1.327 . S
C588 H613 0.950 . S
C589 C588 1.349 . S
C589 C605 1.349 . S
C590 C588 1.327 . S
C590 C609 1.429 . S
C590 H614 0.950 . S
C591 C608 1.574 . S
C591 C610 1.368 . S
C591 H615 0.949 . S
H592 C596 0.949 . S
C593 C594 1.349 . S
C593 C595 1.327 . S
C593 H616 0.950 . S
C594 C593 1.349 . S
C594 C606 1.349 . S
C595 C593 1.327 . S
C595 C611 1.429 . S
C595 H617 0.950 . S
C596 H592 0.949 . S
C596 C604 1.574 . S
C596 C612 1.368 . S
H597 C605 0.950 . S
H598 C603 0.950 . S
H599 C604 0.949 . S
H600 C606 0.950 . S
H601 C607 0.950 . S
H602 C608 0.949 . S
C603 H598 0.950 . S
C603 C605 1.327 . S
C603 C609 1.429 . S
C604 C596 1.574 . S
C604 H599 0.949 . S
C604 C610 1.368 . S
C605 C589 1.349 . S
C605 H597 0.950 . S
C605 C603 1.327 . S
C606 C594 1.349 . S
C606 H600 0.950 . S
C606 C607 1.327 . S
C607 H601 0.950 . S
C607 C606 1.327 . S
C607 C611 1.429 . S
C608 C591 1.574 . S
C608 H602 0.949 . S
C608 C612 1.368 . S
C609 C590 1.429 . S
C609 C603 1.429 . S
C609 C610 1.523 . S
C610 C591 1.368 . S
C610 C604 1.368 . S
C610 C609 1.523 . S
C611 C595 1.429 . S
C611 C607 1.429 . S
C611 C612 1.523 . S
C612 C596 1.368 . S
C612 C608 1.368 . S
C612 C611 1.523 . S
H613 C588 0.950 . S
H614 C590 0.950 . S
H615 C591 0.949 . S
H616 C593 0.950 . S
H617 C595 0.950 . S
C618 C619 1.349 . S
C618 C620 1.327 . S
C618 H643 0.950 . S
C619 C618 1.349 . S
C619 C635 1.349 . S
C620 C618 1.327 . S
C620 C639 1.429 . S
C620 H644 0.950 . S
C621 C638 1.574 . S
C621 C640 1.368 . S
C621 H645 0.949 . S
H622 C626 0.949 . S
C623 C624 1.349 . S
C623 C625 1.327 . S
C623 H646 0.950 . S
C624 C623 1.349 . S
C624 C636 1.349 . S
C625 C623 1.327 . S
C625 C641 1.429 . S
C625 H647 0.950 . S
C626 H622 0.949 . S
C626 C634 1.574 . S
C626 C642 1.368 . S
H627 C635 0.950 . S
H628 C633 0.950 . S
H629 C634 0.949 . S
H630 C636 0.950 . S
H631 C637 0.950 . S
H632 C638 0.949 . S
C633 H628 0.950 . S
C633 C635 1.327 . S
C633 C639 1.429 . S
C634 C626 1.574 . S
C634 H629 0.949 . S
C634 C640 1.368 . S
C635 C619 1.349 . S
C635 H627 0.950 . S
C635 C633 1.327 . S
C636 C624 1.349 . S
C636 H630 0.950 . S
C636 C637 1.327 . S
C637 H631 0.950 . S
C637 C636 1.327 . S
C637 C641 1.429 . S
C638 C621 1.574 . S
C638 H632 0.949 . S
C638 C642 1.368 . S
C639 C620 1.429 . S
C639 C633 1.429 . S
C639 C640 1.523 . S
C640 C621 1.368 . S
C640 C634 1.368 . S
C640 C639 1.523 . S
C641 C625 1.429 . S
C641 C637 1.429 . S
C641 C642 1.523 . S
C642 C626 1.368 . S
C642 C638 1.368 . S
C642 C641 1.523 . S
H643 C618 0.950 . S
H644 C620 0.950 . S
H645 C621 0.949 . S
H646 C623 0.950 . S
H647 C625 0.950 . S
C648 C649 1.349 . S
C648 C650 1.327 . S
C648 H673 0.950 . S
C649 C648 1.349 . S
C649 C665 1.349 . S
C650 C648 1.327 . S
C650 C669 1.429 . S
C650 H674 0.950 . S
C651 C668 1.574 . S
C651 C670 1.368 . S
C651 H675 0.949 . S
H652 C656 0.949 . S
C653 C654 1.349 . S
C653 C655 1.327 . S
C653 H676 0.950 . S
C654 C653 1.349 . S
C654 C666 1.349 . S
C655 C653 1.327 . S
C655 C671 1.429 . S
C655 H677 0.950 . S
C656 H652 0.949 . S
C656 C664 1.574 . S
C656 C672 1.368 . S
H657 C665 0.950 . S
H658 C663 0.950 . S
H659 C664 0.949 . S
H660 C666 0.950 . S
H661 C667 0.950 . S
H662 C668 0.949 . S
C663 H658 0.950 . S
C663 C665 1.327 . S
C663 C669 1.429 . S
C664 C656 1.574 . S
C664 H659 0.949 . S
C664 C670 1.368 . S
C665 C649 1.349 . S
C665 H657 0.950 . S
C665 C663 1.327 . S
C666 C654 1.349 . S
C666 H660 0.950 . S
C666 C667 1.327 . S
C667 H661 0.950 . S
C667 C666 1.327 . S
C667 C671 1.429 . S
C668 C651 1.574 . S
C668 H662 0.949 . S
C668 C672 1.368 . S
C669 C650 1.429 . S
C669 C663 1.429 . S
C669 C670 1.523 . S
C670 C651 1.368 . S
C670 C664 1.368 . S
C670 C669 1.523 . S
C671 C655 1.429 . S
C671 C667 1.429 . S
C671 C672 1.523 . S
C672 C656 1.368 . S
C672 C668 1.368 . S
C672 C671 1.523 . S
H673 C648 0.950 . S
H674 C650 0.950 . S
H675 C651 0.949 . S
H676 C653 0.950 . S
H677 C655 0.950 . S
C678 C679 1.349 . S
C678 C680 1.327 . S
C678 H703 0.950 . S
C679 C678 1.349 . S
C679 C695 1.349 . S
C680 C678 1.327 . S
C680 C699 1.429 . S
C680 H704 0.950 . S
C681 C698 1.574 . S
C681 C700 1.368 . S
C681 H705 0.949 . S
H682 C686 0.949 . S
C683 C684 1.349 . S
C683 C685 1.327 . S
C683 H706 0.950 . S
C684 C683 1.349 . S
C684 C696 1.349 . S
C685 C683 1.327 . S
C685 C701 1.429 . S
C685 H707 0.950 . S
C686 H682 0.949 . S
C686 C694 1.574 . S
C686 C702 1.368 . S
H687 C695 0.950 . S
H688 C693 0.950 . S
H689 C694 0.949 . S
H690 C696 0.950 . S
H691 C697 0.950 . S
H692 C698 0.949 . S
C693 H688 0.950 . S
C693 C695 1.327 . S
C693 C699 1.429 . S
C694 C686 1.574 . S
C694 H689 0.949 . S
C694 C700 1.368 . S
C695 C679 1.349 . S
C695 H687 0.950 . S
C695 C693 1.327 . S
C696 C684 1.349 . S
C696 H690 0.950 . S
C696 C697 1.327 . S
C697 H691 0.950 . S
C697 C696 1.327 . S
C697 C701 1.429 . S
C698 C681 1.574 . S
C698 H692 0.949 . S
C698 C702 1.368 . S
C699 C680 1.429 . S
C699 C693 1.429 . S
C699 C700 1.523 . S
C700 C681 1.368 . S
C700 C694 1.368 . S
C700 C699 1.523 . S
C701 C685 1.429 . S
C701 C697 1.429 . S
C701 C702 1.523 . S
C702 C686 1.368 . S
C702 C698 1.368 . S
C702 C701 1.523 . S
H703 C678 0.950 . S
H704 C680 0.950 . S
H705 C681 0.949 . S
H706 C683 0.950 . S
H707 C685 0.950 . S
C708 C709 1.349 . S
C708 C710 1.327 . S
C708 H733 0.950 . S
C709 C708 1.349 . S
C709 C725 1.349 . S
C710 C708 1.327 . S
C710 C729 1.429 . S
C710 H734 0.950 . S
C711 C728 1.574 . S
C711 C730 1.368 . S
C711 H735 0.949 . S
H712 C716 0.949 . S
C713 C714 1.349 . S
C713 C715 1.327 . S
C713 H736 0.950 . S
C714 C713 1.349 . S
C714 C726 1.349 . S
C715 C713 1.327 . S
C715 C731 1.429 . S
C715 H737 0.950 . S
C716 H712 0.949 . S
C716 C724 1.574 . S
C716 C732 1.368 . S
H717 C725 0.950 . S
H718 C723 0.950 . S
H719 C724 0.949 . S
H720 C726 0.950 . S
H721 C727 0.950 . S
H722 C728 0.949 . S
C723 H718 0.950 . S
C723 C725 1.327 . S
C723 C729 1.429 . S
C724 C716 1.574 . S
C724 H719 0.949 . S
C724 C730 1.368 . S
C725 C709 1.349 . S
C725 H717 0.950 . S
C725 C723 1.327 . S
C726 C714 1.349 . S
C726 H720 0.950 . S
C726 C727 1.327 . S
C727 H721 0.950 . S
C727 C726 1.327 . S
C727 C731 1.429 . S
C728 C711 1.574 . S
C728 H722 0.949 . S
C728 C732 1.368 . S
C729 C710 1.429 . S
C729 C723 1.429 . S
C729 C730 1.523 . S
C730 C711 1.368 . S
C730 C724 1.368 . S
C730 C729 1.523 . S
C731 C715 1.429 . S
C731 C727 1.429 . S
C731 C732 1.523 . S
C732 C716 1.368 . S
C732 C728 1.368 . S
C732 C731 1.523 . S
H733 C708 0.950 . S
H734 C710 0.950 . S
H735 C711 0.949 . S
H736 C713 0.950 . S
H737 C715 0.950 . S
C738 C739 1.349 . S
C738 C740 1.327 . S
C738 H763 0.950 . S
C739 C738 1.349 . S
C739 C755 1.349 . S
C740 C738 1.327 . S
C740 C759 1.429 . S
C740 H764 0.950 . S
C741 C758 1.574 . S
C741 C760 1.368 . S
C741 H765 0.949 . S
H742 C746 0.949 . S
C743 C744 1.349 . S
C743 C745 1.327 . S
C743 H766 0.950 . S
C744 C743 1.349 . S
C744 C756 1.349 . S
C745 C743 1.327 . S
C745 C761 1.429 . S
C745 H767 0.950 . S
C746 H742 0.949 . S
C746 C754 1.574 . S
C746 C762 1.368 . S
H747 C755 0.950 . S
H748 C753 0.950 . S
H749 C754 0.949 . S
H750 C756 0.950 . S
H751 C757 0.950 . S
H752 C758 0.949 . S
C753 H748 0.950 . S
C753 C755 1.327 . S
C753 C759 1.429 . S
C754 C746 1.574 . S
C754 H749 0.949 . S
C754 C760 1.368 . S
C755 C739 1.349 . S
C755 H747 0.950 . S
C755 C753 1.327 . S
C756 C744 1.349 . S
C756 H750 0.950 . S
C756 C757 1.327 . S
C757 H751 0.950 . S
C757 C756 1.327 . S
C757 C761 1.429 . S
C758 C741 1.574 . S
C758 H752 0.949 . S
C758 C762 1.368 . S
C759 C740 1.429 . S
C759 C753 1.429 . S
C759 C760 1.523 . S
C760 C741 1.368 . S
C760 C754 1.368 . S
C760 C759 1.523 . S
C761 C745 1.429 . S
C761 C757 1.429 . S
C761 C762 1.523 . S
C762 C746 1.368 . S
C762 C758 1.368 . S
C762 C761 1.523 . S
H763 C738 0.950 . S
H764 C740 0.950 . S
H765 C741 0.949 . S
H766 C743 0.950 . S
H767 C745 0.950 . S
C768 C769 1.349 . S
C768 C770 1.327 . S
C768 H793 0.950 . S
C769 C768 1.349 . S
C769 C785 1.349 . S
C770 C768 1.327 . S
C770 C789 1.429 . S
C770 H794 0.950 . S
C771 C788 1.574 1_554 S
C771 C790 1.368 . S
C771 H795 0.949 . S
H772 C776 0.949 . S
C773 C774 1.349 . S
C773 C775 1.327 . S
C773 H796 0.950 . S
C774 C773 1.349 . S
C774 C786 1.349 . S
C775 C773 1.327 . S
C775 C791 1.429 . S
C775 H797 0.950 . S
C776 H772 0.949 . S
C776 C784 1.574 1_556 S
C776 C792 1.368 . S
H777 C785 0.950 . S
H778 C783 0.950 . S
H779 C784 0.949 . S
H780 C786 0.950 . S
H781 C787 0.950 . S
H782 C788 0.949 . S
C783 H778 0.950 . S
C783 C785 1.327 . S
C783 C789 1.429 . S
C784 C776 1.574 1_554 S
C784 H779 0.949 . S
C784 C790 1.368 . S
C785 C769 1.349 . S
C785 H777 0.950 . S
C785 C783 1.327 . S
C786 C774 1.349 . S
C786 H780 0.950 . S
C786 C787 1.327 . S
C787 H781 0.950 . S
C787 C786 1.327 . S
C787 C791 1.429 . S
C788 C771 1.574 1_556 S
C788 H782 0.949 . S
C788 C792 1.368 . S
C789 C770 1.429 . S
C789 C783 1.429 . S
C789 C790 1.523 . S
C790 C771 1.368 . S
C790 C784 1.368 . S
C790 C789 1.523 . S
C791 C775 1.429 . S
C791 C787 1.429 . S
C791 C792 1.523 . S
C792 C776 1.368 . S
C792 C788 1.368 . S
C792 C791 1.523 . S
H793 C768 0.950 . S
H794 C770 0.950 . S
H795 C771 0.949 . S
H796 C773 0.950 . S
H797 C775 0.950 . S
C798 C799 1.349 . S
C798 C800 1.327 . S
C798 H823 0.950 . S
C799 C798 1.349 . S
C799 C815 1.349 . S
C800 C798 1.327 . S
C800 C819 1.429 . S
C800 H824 0.950 . S
C801 C818 1.574 . S
C801 C820 1.368 . S
C801 H825 0.949 . S
H802 C806 0.949 . S
C803 C804 1.349 . S
C803 C805 1.327 . S
C803 H826 0.950 . S
C804 C803 1.349 . S
C804 C816 1.349 . S
C805 C803 1.327 . S
C805 C821 1.429 . S
C805 H827 0.950 . S
C806 H802 0.949 . S
C806 C814 1.574 . S
C806 C822 1.368 . S
H807 C815 0.950 . S
H808 C813 0.950 . S
H809 C814 0.949 . S
H810 C816 0.950 . S
H811 C817 0.950 . S
H812 C818 0.949 . S
C813 H808 0.950 . S
C813 C815 1.327 . S
C813 C819 1.429 . S
C814 C806 1.574 . S
C814 H809 0.949 . S
C814 C820 1.368 . S
C815 C799 1.349 . S
C815 H807 0.950 . S
C815 C813 1.327 . S
C816 C804 1.349 . S
C816 H810 0.950 . S
C816 C817 1.327 . S
C817 H811 0.950 . S
C817 C816 1.327 . S
C817 C821 1.429 . S
C818 C801 1.574 . S
C818 H812 0.949 . S
C818 C822 1.368 . S
C819 C800 1.429 . S
C819 C813 1.429 . S
C819 C820 1.523 . S
C820 C801 1.368 . S
C820 C814 1.368 . S
C820 C819 1.523 . S
C821 C805 1.429 . S
C821 C817 1.429 . S
C821 C822 1.523 . S
C822 C806 1.368 . S
C822 C818 1.368 . S
C822 C821 1.523 . S
H823 C798 0.950 . S
H824 C800 0.950 . S
H825 C801 0.949 . S
H826 C803 0.950 . S
H827 C805 0.950 . S
C828 C829 1.349 . S
C828 C830 1.327 . S
C828 H853 0.950 . S
C829 C828 1.349 . S
C829 C845 1.349 . S
C830 C828 1.327 . S
C830 C849 1.429 . S
C830 H854 0.950 . S
C831 C848 1.574 1_556 S
C831 C850 1.368 . S
C831 H855 0.949 . S
H832 C836 0.949 . S
C833 C834 1.349 . S
C833 C835 1.327 . S
C833 H856 0.950 . S
C834 C833 1.349 . S
C834 C846 1.349 . S
C835 C833 1.327 . S
C835 C851 1.429 . S
C835 H857 0.950 . S
C836 H832 0.949 . S
C836 C844 1.574 1_554 S
C836 C852 1.368 . S
H837 C845 0.950 . S
H838 C843 0.950 . S
H839 C844 0.949 . S
H840 C846 0.950 . S
H841 C847 0.950 . S
H842 C848 0.949 . S
C843 H838 0.950 . S
C843 C845 1.327 . S
C843 C849 1.429 . S
C844 C836 1.574 1_556 S
C844 H839 0.949 . S
C844 C850 1.368 . S
C845 C829 1.349 . S
C845 H837 0.950 . S
C845 C843 1.327 . S
C846 C834 1.349 . S
C846 H840 0.950 . S
C846 C847 1.327 . S
C847 H841 0.950 . S
C847 C846 1.327 . S
C847 C851 1.429 . S
C848 C831 1.574 1_554 S
C848 H842 0.949 . S
C848 C852 1.368 . S
C849 C830 1.429 . S
C849 C843 1.429 . S
C849 C850 1.523 . S
C850 C831 1.368 . S
C850 C844 1.368 . S
C850 C849 1.523 . S
C851 C835 1.429 . S
C851 C847 1.429 . S
C851 C852 1.523 . S
C852 C836 1.368 . S
C852 C848 1.368 . S
C852 C851 1.523 . S
H853 C828 0.950 . S
H854 C830 0.950 . S
H855 C831 0.949 . S
H856 C833 0.950 . S
H857 C835 0.950 . S
C858 C859 1.349 . S
C858 C860 1.327 . S
C858 H883 0.950 . S
C859 C858 1.349 . S
C859 C875 1.349 . S
C860 C858 1.327 . S
C860 C879 1.429 . S
C860 H884 0.950 . S
C861 C878 1.574 . S
C861 C880 1.368 . S
C861 H885 0.949 . S
H862 C866 0.949 . S
C863 C864 1.349 . S
C863 C865 1.327 . S
C863 H886 0.950 . S
C864 C863 1.349 . S
C864 C876 1.349 . S
C865 C863 1.327 . S
C865 C881 1.429 . S
C865 H887 0.950 . S
C866 H862 0.949 . S
C866 C874 1.574 . S
C866 C882 1.368 . S
H867 C875 0.950 . S
H868 C873 0.950 . S
H869 C874 0.949 . S
H870 C876 0.950 . S
H871 C877 0.950 . S
H872 C878 0.949 . S
C873 H868 0.950 . S
C873 C875 1.327 . S
C873 C879 1.429 . S
C874 C866 1.574 . S
C874 H869 0.949 . S
C874 C880 1.368 . S
C875 C859 1.349 . S
C875 H867 0.950 . S
C875 C873 1.327 . S
C876 C864 1.349 . S
C876 H870 0.950 . S
C876 C877 1.327 . S
C877 H871 0.950 . S
C877 C876 1.327 . S
C877 C881 1.429 . S
C878 C861 1.574 . S
C878 H872 0.949 . S
C878 C882 1.368 . S
C879 C860 1.429 . S
C879 C873 1.429 . S
C879 C880 1.523 . S
C880 C861 1.368 . S
C880 C874 1.368 . S
C880 C879 1.523 . S
C881 C865 1.429 . S
C881 C877 1.429 . S
C881 C882 1.523 . S
C882 C866 1.368 . S
C882 C878 1.368 . S
C882 C881 1.523 . S
H883 C858 0.950 . S
H884 C860 0.950 . S
H885 C861 0.949 . S
H886 C863 0.950 . S
H887 C865 0.950 . S
C888 C889 1.349 . S
C888 C890 1.327 . S
C888 H913 0.950 . S
C889 C888 1.349 . S
C889 C905 1.349 . S
C890 C888 1.327 . S
C890 C909 1.429 . S
C890 H914 0.950 . S
C891 C908 1.574 1_554 S
C891 C910 1.368 . S
C891 H915 0.949 . S
H892 C896 0.949 . S
C893 C894 1.349 . S
C893 C895 1.327 . S
C893 H916 0.950 . S
C894 C893 1.349 . S
C894 C906 1.349 . S
C895 C893 1.327 . S
C895 C911 1.429 . S
C895 H917 0.950 . S
C896 H892 0.949 . S
C896 C904 1.574 1_556 S
C896 C912 1.368 . S
H897 C905 0.950 . S
H898 C903 0.950 . S
H899 C904 0.949 . S
H900 C906 0.950 . S
H901 C907 0.950 . S
H902 C908 0.949 . S
C903 H898 0.950 . S
C903 C905 1.327 . S
C903 C909 1.429 . S
C904 C896 1.574 1_554 S
C904 H899 0.949 . S
C904 C910 1.368 . S
C905 C889 1.349 . S
C905 H897 0.950 . S
C905 C903 1.327 . S
C906 C894 1.349 . S
C906 H900 0.950 . S
C906 C907 1.327 . S
C907 H901 0.950 . S
C907 C906 1.327 . S
C907 C911 1.429 . S
C908 C891 1.574 1_556 S
C908 H902 0.949 . S
C908 C912 1.368 . S
C909 C890 1.429 . S
C909 C903 1.429 . S
C909 C910 1.523 . S
C910 C891 1.368 . S
C910 C904 1.368 . S
C910 C909 1.523 . S
C911 C895 1.429 . S
C911 C907 1.429 . S
C911 C912 1.523 . S
C912 C896 1.368 . S
C912 C908 1.368 . S
C912 C911 1.523 . S
H913 C888 0.950 . S
H914 C890 0.950 . S
H915 C891 0.949 . S
H916 C893 0.950 . S
H917 C895 0.950 . S
C918 C919 1.349 . S
C918 C920 1.327 . S
C918 H943 0.950 . S
C919 C918 1.349 . S
C919 C935 1.349 . S
C920 C918 1.327 . S
C920 C939 1.429 . S
C920 H944 0.950 . S
C921 C938 1.574 . S
C921 C940 1.368 . S
C921 H945 0.949 . S
H922 C926 0.949 . S
C923 C924 1.349 . S
C923 C925 1.327 . S
C923 H946 0.950 . S
C924 C923 1.349 . S
C924 C936 1.349 . S
C925 C923 1.327 . S
C925 C941 1.429 . S
C925 H947 0.950 . S
C926 H922 0.949 . S
C926 C934 1.574 . S
C926 C942 1.368 . S
H927 C935 0.950 . S
H928 C933 0.950 . S
H929 C934 0.949 . S
H930 C936 0.950 . S
H931 C937 0.950 . S
H932 C938 0.949 . S
C933 H928 0.950 . S
C933 C935 1.327 . S
C933 C939 1.429 . S
C934 C926 1.574 . S
C934 H929 0.949 . S
C934 C940 1.368 . S
C935 C919 1.349 . S
C935 H927 0.950 . S
C935 C933 1.327 . S
C936 C924 1.349 . S
C936 H930 0.950 . S
C936 C937 1.327 . S
C937 H931 0.950 . S
C937 C936 1.327 . S
C937 C941 1.429 . S
C938 C921 1.574 . S
C938 H932 0.949 . S
C938 C942 1.368 . S
C939 C920 1.429 . S
C939 C933 1.429 . S
C939 C940 1.523 . S
C940 C921 1.368 . S
C940 C934 1.368 . S
C940 C939 1.523 . S
C941 C925 1.429 . S
C941 C937 1.429 . S
C941 C942 1.523 . S
C942 C926 1.368 . S
C942 C938 1.368 . S
C942 C941 1.523 . S
H943 C918 0.950 . S
H944 C920 0.950 . S
H945 C921 0.949 . S
H946 C923 0.950 . S
H947 C925 0.950 . S
C948 C949 1.349 . S
C948 C950 1.327 . S
C948 H973 0.950 . S
C949 C948 1.349 . S
C949 C965 1.349 . S
C950 C948 1.327 . S
C950 C969 1.429 . S
C950 H974 0.950 . S
C951 C968 1.574 1_554 S
C951 C970 1.368 . S
C951 H975 0.949 . S
H952 C956 0.949 . S
C953 C954 1.349 . S
C953 C955 1.327 . S
C953 H976 0.950 . S
C954 C953 1.349 . S
C954 C966 1.349 . S
C955 C953 1.327 . S
C955 C971 1.429 . S
C955 H977 0.950 . S
C956 H952 0.949 . S
C956 C964 1.574 1_556 S
C956 C972 1.368 . S
H957 C965 0.950 . S
H958 C963 0.950 . S
H959 C964 0.949 . S
H960 C966 0.950 . S
H961 C967 0.950 . S
H962 C968 0.949 . S
C963 H958 0.950 . S
C963 C965 1.327 . S
C963 C969 1.429 . S
C964 C956 1.574 1_554 S
C964 H959 0.949 . S
C964 C970 1.368 . S
C965 C949 1.349 . S
C965 H957 0.950 . S
C965 C963 1.327 . S
C966 C954 1.349 . S
C966 H960 0.950 . S
C966 C967 1.327 . S
C967 H961 0.950 . S
C967 C966 1.327 . S
C967 C971 1.429 . S
C968 C951 1.574 1_556 S
C968 H962 0.949 . S
C968 C972 1.368 . S
C969 C950 1.429 . S
C969 C963 1.429 . S
C969 C970 1.523 . S
C970 C951 1.368 . S
C970 C964 1.368 . S
C970 C969 1.523 . S
C971 C955 1.429 . S
C971 C967 1.429 . S
C971 C972 1.523 . S
C972 C956 1.368 . S
C972 C968 1.368 . S
C972 C971 1.523 . S
H973 C948 0.950 . S
H974 C950 0.950 . S
H975 C951 0.949 . S
H976 C953 0.950 . S
H977 C955 0.950 . S
C978 C979 1.349 . S
C978 C980 1.327 . S
C978 H1003 0.950 . S
C979 C978 1.349 . S
C979 C995 1.349 . S
C980 C978 1.327 . S
C980 C999 1.429 . S
C980 H1004 0.950 . S
C981 C998 1.574 . S
C981 C1000 1.368 . S
C981 H1005 0.949 . S
H982 C986 0.949 . S
C983 C984 1.349 . S
C983 C985 1.327 . S
C983 H1006 0.950 . S
C984 C983 1.349 . S
C984 C996 1.349 . S
C985 C983 1.327 . S
C985 C1001 1.429 . S
C985 H1007 0.950 . S
C986 H982 0.949 . S
C986 C994 1.574 . S
C986 C1002 1.368 . S
H987 C995 0.950 . S
H988 C993 0.950 . S
H989 C994 0.949 . S
H990 C996 0.950 . S
H991 C997 0.950 . S
H992 C998 0.949 . S
C993 H988 0.950 . S
C993 C995 1.327 . S
C993 C999 1.429 . S
C994 C986 1.574 . S
C994 H989 0.949 . S
C994 C1000 1.368 . S
C995 C979 1.349 . S
C995 H987 0.950 . S
C995 C993 1.327 . S
C996 C984 1.349 . S
C996 H990 0.950 . S
C996 C997 1.327 . S
C997 H991 0.950 . S
C997 C996 1.327 . S
C997 C1001 1.429 . S
C998 C981 1.574 . S
C998 H992 0.949 . S
C998 C1002 1.368 . S
C999 C980 1.429 . S
C999 C993 1.429 . S
C999 C1000 1.523 . S
C1000 C981 1.368 . S
C1000 C994 1.368 . S
C1000 C999 1.523 . S
C1001 C985 1.429 . S
C1001 C997 1.429 . S
C1001 C1002 1.523 . S
C1002 C986 1.368 . S
C1002 C998 1.368 . S
C1002 C1001 1.523 . S
H1003 C978 0.950 . S
H1004 C980 0.950 . S
H1005 C981 0.949 . S
H1006 C983 0.950 . S
H1007 C985 0.950 . S
C1008 C1009 1.349 . S
C1008 C1010 1.327 . S
C1008 H1033 0.950 . S
C1009 C1008 1.349 . S
C1009 C1025 1.349 . S
C1010 C1008 1.327 . S
C1010 C1029 1.429 . S
C1010 H1034 0.950 . S
C1011 C1028 1.574 . S
C1011 C1030 1.368 . S
C1011 H1035 0.949 . S
H1012 C1016 0.949 . S
C1013 C1014 1.349 . S
C1013 C1015 1.327 . S
C1013 H1036 0.950 . S
C1014 C1013 1.349 . S
C1014 C1026 1.349 . S
C1015 C1013 1.327 . S
C1015 C1031 1.429 . S
C1015 H1037 0.950 . S
C1016 H1012 0.949 . S
C1016 C1024 1.574 . S
C1016 C1032 1.368 . S
H1017 C1025 0.950 . S
H1018 C1023 0.950 . S
H1019 C1024 0.949 . S
H1020 C1026 0.950 . S
H1021 C1027 0.950 . S
H1022 C1028 0.949 . S
C1023 H1018 0.950 . S
C1023 C1025 1.327 . S
C1023 C1029 1.429 . S
C1024 C1016 1.574 . S
C1024 H1019 0.949 . S
C1024 C1030 1.368 1_655 S
C1025 C1009 1.349 . S
C1025 H1017 0.950 . S
C1025 C1023 1.327 . S
C1026 C1014 1.349 . S
C1026 H1020 0.950 . S
C1026 C1027 1.327 . S
C1027 H1021 0.950 . S
C1027 C1026 1.327 . S
C1027 C1031 1.429 . S
C1028 C1011 1.574 . S
C1028 H1022 0.949 . S
C1028 C1032 1.368 1_455 S
C1029 C1010 1.429 . S
C1029 C1023 1.429 . S
C1029 C1030 1.523 . S
C1030 C1011 1.368 . S
C1030 C1024 1.368 1_455 S
C1030 C1029 1.523 . S
C1031 C1015 1.429 . S
C1031 C1027 1.429 . S
C1031 C1032 1.523 . S
C1032 C1016 1.368 . S
C1032 C1028 1.368 1_655 S
C1032 C1031 1.523 . S
H1033 C1008 0.950 . S
H1034 C1010 0.950 . S
H1035 C1011 0.949 . S
H1036 C1013 0.950 . S
H1037 C1015 0.950 . S
C1038 C1039 1.349 . S
C1038 C1040 1.327 . S
C1038 H1063 0.950 . S
C1039 C1038 1.349 . S
C1039 C1055 1.349 . S
C1040 C1038 1.327 . S
C1040 C1059 1.429 . S
C1040 H1064 0.950 . S
C1041 C1058 1.574 . S
C1041 C1060 1.368 1_545 S
C1041 H1065 0.949 . S
H1042 C1046 0.949 . S
C1043 C1044 1.349 . S
C1043 C1045 1.327 . S
C1043 H1066 0.950 . S
C1044 C1043 1.349 . S
C1044 C1056 1.349 . S
C1045 C1043 1.327 . S
C1045 C1061 1.429 . S
C1045 H1067 0.950 . S
C1046 H1042 0.949 . S
C1046 C1054 1.574 . S
C1046 C1062 1.368 1_565 S
H1047 C1055 0.950 . S
H1048 C1053 0.950 . S
H1049 C1054 0.949 . S
H1050 C1056 0.950 . S
H1051 C1057 0.950 . S
H1052 C1058 0.949 . S
C1053 H1048 0.950 . S
C1053 C1055 1.327 . S
C1053 C1059 1.429 . S
C1054 C1046 1.574 . S
C1054 H1049 0.949 . S
C1054 C1060 1.368 . S
C1055 C1039 1.349 . S
C1055 H1047 0.950 . S
C1055 C1053 1.327 . S
C1056 C1044 1.349 . S
C1056 H1050 0.950 . S
C1056 C1057 1.327 . S
C1057 H1051 0.950 . S
C1057 C1056 1.327 . S
C1057 C1061 1.429 . S
C1058 C1041 1.574 . S
C1058 H1052 0.949 . S
C1058 C1062 1.368 . S
C1059 C1040 1.429 . S
C1059 C1053 1.429 . S
C1059 C1060 1.523 . S
C1060 C1041 1.368 1_565 S
C1060 C1054 1.368 . S
C1060 C1059 1.523 . S
C1061 C1045 1.429 . S
C1061 C1057 1.429 . S
C1061 C1062 1.523 . S
C1062 C1046 1.368 1_545 S
C1062 C1058 1.368 . S
C1062 C1061 1.523 . S
H1063 C1038 0.950 . S
H1064 C1040 0.950 . S
H1065 C1041 0.949 . S
H1066 C1043 0.950 . S
H1067 C1045 0.950 . S
C1068 C1069 1.349 . S
C1068 C1070 1.327 . S
C1068 H1093 0.950 . S
C1069 C1068 1.349 . S
C1069 C1085 1.349 . S
C1070 C1068 1.327 . S
C1070 C1089 1.429 . S
C1070 H1094 0.950 . S
C1071 C1088 1.574 1_565 S
C1071 C1090 1.368 . S
C1071 H1095 0.949 . S
H1072 C1076 0.949 . S
C1073 C1074 1.349 . S
C1073 C1075 1.327 . S
C1073 H1096 0.950 . S
C1074 C1073 1.349 . S
C1074 C1086 1.349 . S
C1075 C1073 1.327 . S
C1075 C1091 1.429 . S
C1075 H1097 0.950 . S
C1076 H1072 0.949 . S
C1076 C1084 1.574 1_545 S
C1076 C1092 1.368 . S
H1077 C1085 0.950 . S
H1078 C1083 0.950 . S
H1079 C1084 0.949 . S
H1080 C1086 0.950 . S
H1081 C1087 0.950 . S
H1082 C1088 0.949 . S
C1083 H1078 0.950 . S
C1083 C1085 1.327 . S
C1083 C1089 1.429 . S
C1084 C1076 1.574 1_565 S
C1084 H1079 0.949 . S
C1084 C1090 1.368 . S
C1085 C1069 1.349 . S
C1085 H1077 0.950 . S
C1085 C1083 1.327 . S
C1086 C1074 1.349 . S
C1086 H1080 0.950 . S
C1086 C1087 1.327 . S
C1087 H1081 0.950 . S
C1087 C1086 1.327 . S
C1087 C1091 1.429 . S
C1088 C1071 1.574 1_545 S
C1088 H1082 0.949 . S
C1088 C1092 1.368 . S
C1089 C1070 1.429 . S
C1089 C1083 1.429 . S
C1089 C1090 1.523 . S
C1090 C1071 1.368 . S
C1090 C1084 1.368 . S
C1090 C1089 1.523 . S
C1091 C1075 1.429 . S
C1091 C1087 1.429 . S
C1091 C1092 1.523 . S
C1092 C1076 1.368 . S
C1092 C1088 1.368 . S
C1092 C1091 1.523 . S
H1093 C1068 0.950 . S
H1094 C1070 0.950 . S
H1095 C1071 0.949 . S
H1096 C1073 0.950 . S
H1097 C1075 0.950 . S
C1098 C1099 1.349 . S
C1098 C1100 1.327 . S
C1098 H1123 0.950 . S
C1099 C1098 1.349 . S
C1099 C1115 1.349 . S
C1100 C1098 1.327 . S
C1100 C1119 1.429 . S
C1100 H1124 0.950 . S
C1101 C1118 1.574 1_455 S
C1101 C1120 1.368 . S
C1101 H1125 0.949 . S
H1102 C1106 0.949 . S
C1103 C1104 1.349 . S
C1103 C1105 1.327 . S
C1103 H1126 0.950 . S
C1104 C1103 1.349 . S
C1104 C1116 1.349 . S
C1105 C1103 1.327 . S
C1105 C1121 1.429 . S
C1105 H1127 0.950 . S
C1106 H1102 0.949 . S
C1106 C1114 1.574 1_655 S
C1106 C1122 1.368 . S
H1107 C1115 0.950 . S
H1108 C1113 0.950 . S
H1109 C1114 0.949 . S
H1110 C1116 0.950 . S
H1111 C1117 0.950 . S
H1112 C1118 0.949 . S
C1113 H1108 0.950 . S
C1113 C1115 1.327 . S
C1113 C1119 1.429 . S
C1114 C1106 1.574 1_455 S
C1114 H1109 0.949 . S
C1114 C1120 1.368 . S
C1115 C1099 1.349 . S
C1115 H1107 0.950 . S
C1115 C1113 1.327 . S
C1116 C1104 1.349 . S
C1116 H1110 0.950 . S
C1116 C1117 1.327 . S
C1117 H1111 0.950 . S
C1117 C1116 1.327 . S
C1117 C1121 1.429 . S
C1118 C1101 1.574 1_655 S
C1118 H1112 0.949 . S
C1118 C1122 1.368 . S
C1119 C1100 1.429 . S
C1119 C1113 1.429 . S
C1119 C1120 1.523 . S
C1120 C1101 1.368 . S
C1120 C1114 1.368 . S
C1120 C1119 1.523 . S
C1121 C1105 1.429 . S
C1121 C1117 1.429 . S
C1121 C1122 1.523 . S
C1122 C1106 1.368 . S
C1122 C1118 1.368 . S
C1122 C1121 1.523 . S
H1123 C1098 0.950 . S
H1124 C1100 0.950 . S
H1125 C1101 0.949 . S
H1126 C1103 0.950 . S
H1127 C1105 0.950 . S
C1128 C1129 1.349 . S
C1128 C1130 1.327 . S
C1128 H1153 0.950 . S
C1129 C1128 1.349 . S
C1129 C1145 1.349 . S
C1130 C1128 1.327 . S
C1130 C1149 1.429 . S
C1130 H1154 0.950 . S
C1131 C1148 1.574 . S
C1131 C1150 1.368 . S
C1131 H1155 0.949 . S
H1132 C1136 0.949 . S
C1133 C1134 1.349 . S
C1133 C1135 1.327 . S
C1133 H1156 0.950 . S
C1134 C1133 1.349 . S
C1134 C1146 1.349 . S
C1135 C1133 1.327 . S
C1135 C1151 1.429 . S
C1135 H1157 0.950 . S
C1136 H1132 0.949 . S
C1136 C1144 1.574 . S
C1136 C1152 1.368 . S
H1137 C1145 0.950 . S
H1138 C1143 0.950 . S
H1139 C1144 0.949 . S
H1140 C1146 0.950 . S
H1141 C1147 0.950 . S
H1142 C1148 0.949 . S
C1143 H1138 0.950 . S
C1143 C1145 1.327 . S
C1143 C1149 1.429 . S
C1144 C1136 1.574 . S
C1144 H1139 0.949 . S
C1144 C1150 1.368 1_455 S
C1145 C1129 1.349 . S
C1145 H1137 0.950 . S
C1145 C1143 1.327 . S
C1146 C1134 1.349 . S
C1146 H1140 0.950 . S
C1146 C1147 1.327 . S
C1147 H1141 0.950 . S
C1147 C1146 1.327 . S
C1147 C1151 1.429 . S
C1148 C1131 1.574 . S
C1148 H1142 0.949 . S
C1148 C1152 1.368 1_655 S
C1149 C1130 1.429 . S
C1149 C1143 1.429 . S
C1149 C1150 1.523 . S
C1150 C1131 1.368 . S
C1150 C1144 1.368 1_655 S
C1150 C1149 1.523 . S
C1151 C1135 1.429 . S
C1151 C1147 1.429 . S
C1151 C1152 1.523 . S
C1152 C1136 1.368 . S
C1152 C1148 1.368 1_455 S
C1152 C1151 1.523 . S
H1153 C1128 0.950 . S
H1154 C1130 0.950 . S
H1155 C1131 0.949 . S
H1156 C1133 0.950 . S
H1157 C1135 0.950 . S
C1158 C1159 1.349 . S
C1158 C1160 1.327 . S
C1158 H1183 0.950 . S
C1159 C1158 1.349 . S
C1159 C1175 1.349 . S
C1160 C1158 1.327 . S
C1160 C1179 1.429 . S
C1160 H1184 0.950 . S
C1161 C1178 1.574 . S
C1161 C1180 1.368 1_565 S
C1161 H1185 0.949 . S
H1162 C1166 0.949 . S
C1163 C1164 1.349 . S
C1163 C1165 1.327 . S
C1163 H1186 0.950 . S
C1164 C1163 1.349 . S
C1164 C1176 1.349 . S
C1165 C1163 1.327 . S
C1165 C1181 1.429 . S
C1165 H1187 0.950 . S
C1166 H1162 0.949 . S
C1166 C1174 1.574 . S
C1166 C1182 1.368 1_545 S
H1167 C1175 0.950 . S
H1168 C1173 0.950 . S
H1169 C1174 0.949 . S
H1170 C1176 0.950 . S
H1171 C1177 0.950 . S
H1172 C1178 0.949 . S
C1173 H1168 0.950 . S
C1173 C1175 1.327 . S
C1173 C1179 1.429 . S
C1174 C1166 1.574 . S
C1174 H1169 0.949 . S
C1174 C1180 1.368 . S
C1175 C1159 1.349 . S
C1175 H1167 0.950 . S
C1175 C1173 1.327 . S
C1176 C1164 1.349 . S
C1176 H1170 0.950 . S
C1176 C1177 1.327 . S
C1177 H1171 0.950 . S
C1177 C1176 1.327 . S
C1177 C1181 1.429 . S
C1178 C1161 1.574 . S
C1178 H1172 0.949 . S
C1178 C1182 1.368 . S
C1179 C1160 1.429 . S
C1179 C1173 1.429 . S
C1179 C1180 1.523 . S
C1180 C1161 1.368 1_545 S
C1180 C1174 1.368 . S
C1180 C1179 1.523 . S
C1181 C1165 1.429 . S
C1181 C1177 1.429 . S
C1181 C1182 1.523 . S
C1182 C1166 1.368 1_565 S
C1182 C1178 1.368 . S
C1182 C1181 1.523 . S
H1183 C1158 0.950 . S
H1184 C1160 0.950 . S
H1185 C1161 0.949 . S
H1186 C1163 0.950 . S
H1187 C1165 0.950 . S
C1188 C1189 1.349 . S
C1188 C1190 1.327 . S
C1188 H1213 0.950 . S
C1189 C1188 1.349 . S
C1189 C1205 1.349 . S
C1190 C1188 1.327 . S
C1190 C1209 1.429 . S
C1190 H1214 0.950 . S
C1191 C1208 1.574 1_565 S
C1191 C1210 1.368 . S
C1191 H1215 0.949 . S
H1192 C1196 0.949 . S
C1193 C1194 1.349 . S
C1193 C1195 1.327 . S
C1193 H1216 0.950 . S
C1194 C1193 1.349 . S
C1194 C1206 1.349 . S
C1195 C1193 1.327 . S
C1195 C1211 1.429 . S
C1195 H1217 0.950 . S
C1196 H1192 0.949 . S
C1196 C1204 1.574 1_545 S
C1196 C1212 1.368 . S
H1197 C1205 0.950 . S
H1198 C1203 0.950 . S
H1199 C1204 0.949 . S
H1200 C1206 0.950 . S
H1201 C1207 0.950 . S
H1202 C1208 0.949 . S
C1203 H1198 0.950 . S
C1203 C1205 1.327 . S
C1203 C1209 1.429 . S
C1204 C1196 1.574 1_565 S
C1204 H1199 0.949 . S
C1204 C1210 1.368 . S
C1205 C1189 1.349 . S
C1205 H1197 0.950 . S
C1205 C1203 1.327 . S
C1206 C1194 1.349 . S
C1206 H1200 0.950 . S
C1206 C1207 1.327 . S
C1207 H1201 0.950 . S
C1207 C1206 1.327 . S
C1207 C1211 1.429 . S
C1208 C1191 1.574 1_545 S
C1208 H1202 0.949 . S
C1208 C1212 1.368 . S
C1209 C1190 1.429 . S
C1209 C1203 1.429 . S
C1209 C1210 1.523 . S
C1210 C1191 1.368 . S
C1210 C1204 1.368 . S
C1210 C1209 1.523 . S
C1211 C1195 1.429 . S
C1211 C1207 1.429 . S
C1211 C1212 1.523 . S
C1212 C1196 1.368 . S
C1212 C1208 1.368 . S
C1212 C1211 1.523 . S
H1213 C1188 0.950 . S
H1214 C1190 0.950 . S
H1215 C1191 0.949 . S
H1216 C1193 0.950 . S
H1217 C1195 0.950 . S
C1218 C1219 1.349 . S
C1218 C1220 1.327 . S
C1218 H1243 0.950 . S
C1219 C1218 1.349 . S
C1219 C1235 1.349 . S
C1220 C1218 1.327 . S
C1220 C1239 1.429 . S
C1220 H1244 0.950 . S
C1221 C1238 1.574 1_455 S
C1221 C1240 1.368 . S
C1221 H1245 0.949 . S
H1222 C1226 0.949 . S
C1223 C1224 1.349 . S
C1223 C1225 1.327 . S
C1223 H1246 0.950 . S
C1224 C1223 1.349 . S
C1224 C1236 1.349 . S
C1225 C1223 1.327 . S
C1225 C1241 1.429 . S
C1225 H1247 0.950 . S
C1226 H1222 0.949 . S
C1226 C1234 1.574 1_655 S
C1226 C1242 1.368 . S
H1227 C1235 0.950 . S
H1228 C1233 0.950 . S
H1229 C1234 0.949 . S
H1230 C1236 0.950 . S
H1231 C1237 0.950 . S
H1232 C1238 0.949 . S
C1233 H1228 0.950 . S
C1233 C1235 1.327 . S
C1233 C1239 1.429 . S
C1234 C1226 1.574 1_455 S
C1234 H1229 0.949 . S
C1234 C1240 1.368 . S
C1235 C1219 1.349 . S
C1235 H1227 0.950 . S
C1235 C1233 1.327 . S
C1236 C1224 1.349 . S
C1236 H1230 0.950 . S
C1236 C1237 1.327 . S
C1237 H1231 0.950 . S
C1237 C1236 1.327 . S
C1237 C1241 1.429 . S
C1238 C1221 1.574 1_655 S
C1238 H1232 0.949 . S
C1238 C1242 1.368 . S
C1239 C1220 1.429 . S
C1239 C1233 1.429 . S
C1239 C1240 1.523 . S
C1240 C1221 1.368 . S
C1240 C1234 1.368 . S
C1240 C1239 1.523 . S
C1241 C1225 1.429 . S
C1241 C1237 1.429 . S
C1241 C1242 1.523 . S
C1242 C1226 1.368 . S
C1242 C1238 1.368 . S
C1242 C1241 1.523 . S
H1243 C1218 0.950 . S
H1244 C1220 0.950 . S
H1245 C1221 0.949 . S
H1246 C1223 0.950 . S
H1247 C1225 0.950 . S
C1248 C1249 1.349 . S
C1248 C1250 1.327 . S
C1248 H1273 0.950 . S
C1249 C1248 1.349 . S
C1249 C1265 1.349 . S
C1250 C1248 1.327 . S
C1250 C1269 1.429 . S
C1250 H1274 0.950 . S
C1251 C1268 1.574 . S
C1251 C1270 1.368 . S
C1251 H1275 0.949 . S
H1252 C1256 0.949 . S
C1253 C1254 1.349 . S
C1253 C1255 1.327 . S
C1253 H1276 0.950 . S
C1254 C1253 1.349 . S
C1254 C1266 1.349 . S
C1255 C1253 1.327 . S
C1255 C1271 1.429 . S
C1255 H1277 0.950 . S
C1256 H1252 0.949 . S
C1256 C1264 1.574 . S
C1256 C1272 1.368 . S
H1257 C1265 0.950 . S
H1258 C1263 0.950 . S
H1259 C1264 0.949 . S
H1260 C1266 0.950 . S
H1261 C1267 0.950 . S
H1262 C1268 0.949 . S
C1263 H1258 0.950 . S
C1263 C1265 1.327 . S
C1263 C1269 1.429 . S
C1264 C1256 1.574 . S
C1264 H1259 0.949 . S
C1264 C1270 1.368 . S
C1265 C1249 1.349 . S
C1265 H1257 0.950 . S
C1265 C1263 1.327 . S
C1266 C1254 1.349 . S
C1266 H1260 0.950 . S
C1266 C1267 1.327 . S
C1267 H1261 0.950 . S
C1267 C1266 1.327 . S
C1267 C1271 1.429 . S
C1268 C1251 1.574 . S
C1268 H1262 0.949 . S
C1268 C1272 1.368 . S
C1269 C1250 1.429 . S
C1269 C1263 1.429 . S
C1269 C1270 1.523 . S
C1270 C1251 1.368 . S
C1270 C1264 1.368 . S
C1270 C1269 1.523 . S
C1271 C1255 1.429 . S
C1271 C1267 1.429 . S
C1271 C1272 1.523 . S
C1272 C1256 1.368 . S
C1272 C1268 1.368 . S
C1272 C1271 1.523 . S
H1273 C1248 0.950 . S
H1274 C1250 0.950 . S
H1275 C1251 0.949 . S
H1276 C1253 0.950 . S
H1277 C1255 0.950 . S
C1278 C1279 1.349 . S
C1278 C1280 1.327 . S
C1278 H1303 0.950 . S
C1279 C1278 1.349 . S
C1279 C1295 1.349 . S
C1280 C1278 1.327 . S
C1280 C1299 1.429 . S
C1280 H1304 0.950 . S
C1281 C1298 1.574 . S
C1281 C1300 1.368 . S
C1281 H1305 0.949 . S
H1282 C1286 0.949 . S
C1283 C1284 1.349 . S
C1283 C1285 1.327 . S
C1283 H1306 0.950 . S
C1284 C1283 1.349 . S
C1284 C1296 1.349 . S
C1285 C1283 1.327 . S
C1285 C1301 1.429 . S
C1285 H1307 0.950 . S
C1286 H1282 0.949 . S
C1286 C1294 1.574 . S
C1286 C1302 1.368 . S
H1287 C1295 0.950 . S
H1288 C1293 0.950 . S
H1289 C1294 0.949 . S
H1290 C1296 0.950 . S
H1291 C1297 0.950 . S
H1292 C1298 0.949 . S
C1293 H1288 0.950 . S
C1293 C1295 1.327 . S
C1293 C1299 1.429 . S
C1294 C1286 1.574 . S
C1294 H1289 0.949 . S
C1294 C1300 1.368 . S
C1295 C1279 1.349 . S
C1295 H1287 0.950 . S
C1295 C1293 1.327 . S
C1296 C1284 1.349 . S
C1296 H1290 0.950 . S
C1296 C1297 1.327 . S
C1297 H1291 0.950 . S
C1297 C1296 1.327 . S
C1297 C1301 1.429 . S
C1298 C1281 1.574 . S
C1298 H1292 0.949 . S
C1298 C1302 1.368 . S
C1299 C1280 1.429 . S
C1299 C1293 1.429 . S
C1299 C1300 1.523 . S
C1300 C1281 1.368 . S
C1300 C1294 1.368 . S
C1300 C1299 1.523 . S
C1301 C1285 1.429 . S
C1301 C1297 1.429 . S
C1301 C1302 1.523 . S
C1302 C1286 1.368 . S
C1302 C1298 1.368 . S
C1302 C1301 1.523 . S
H1303 C1278 0.950 . S
H1304 C1280 0.950 . S
H1305 C1281 0.949 . S
H1306 C1283 0.950 . S
H1307 C1285 0.950 . S
C1308 C1309 1.349 . S
C1308 C1310 1.327 . S
C1308 H1333 0.950 . S
C1309 C1308 1.349 . S
C1309 C1325 1.349 . S
C1310 C1308 1.327 . S
C1310 C1329 1.429 . S
C1310 H1334 0.950 . S
C1311 C1328 1.574 . S
C1311 C1330 1.368 . S
C1311 H1335 0.949 . S
H1312 C1316 0.949 . S
C1313 C1314 1.349 . S
C1313 C1315 1.327 . S
C1313 H1336 0.950 . S
C1314 C1313 1.349 . S
C1314 C1326 1.349 . S
C1315 C1313 1.327 . S
C1315 C1331 1.429 . S
C1315 H1337 0.950 . S
C1316 H1312 0.949 . S
C1316 C1324 1.574 . S
C1316 C1332 1.368 . S
H1317 C1325 0.950 . S
H1318 C1323 0.950 . S
H1319 C1324 0.949 . S
H1320 C1326 0.950 . S
H1321 C1327 0.950 . S
H1322 C1328 0.949 . S
C1323 H1318 0.950 . S
C1323 C1325 1.327 . S
C1323 C1329 1.429 . S
C1324 C1316 1.574 . S
C1324 H1319 0.949 . S
C1324 C1330 1.368 . S
C1325 C1309 1.349 . S
C1325 H1317 0.950 . S
C1325 C1323 1.327 . S
C1326 C1314 1.349 . S
C1326 H1320 0.950 . S
C1326 C1327 1.327 . S
C1327 H1321 0.950 . S
C1327 C1326 1.327 . S
C1327 C1331 1.429 . S
C1328 C1311 1.574 . S
C1328 H1322 0.949 . S
C1328 C1332 1.368 . S
C1329 C1310 1.429 . S
C1329 C1323 1.429 . S
C1329 C1330 1.523 . S
C1330 C1311 1.368 . S
C1330 C1324 1.368 . S
C1330 C1329 1.523 . S
C1331 C1315 1.429 . S
C1331 C1327 1.429 . S
C1331 C1332 1.523 . S
C1332 C1316 1.368 . S
C1332 C1328 1.368 . S
C1332 C1331 1.523 . S
H1333 C1308 0.950 . S
H1334 C1310 0.950 . S
H1335 C1311 0.949 . S
H1336 C1313 0.950 . S
H1337 C1315 0.950 . S
C1338 C1339 1.349 . S
C1338 C1340 1.327 . S
C1338 H1363 0.950 . S
C1339 C1338 1.349 . S
C1339 C1355 1.349 . S
C1340 C1338 1.327 . S
C1340 C1359 1.429 . S
C1340 H1364 0.950 . S
C1341 C1358 1.574 . S
C1341 C1360 1.368 . S
C1341 H1365 0.949 . S
H1342 C1346 0.949 . S
C1343 C1344 1.349 . S
C1343 C1345 1.327 . S
C1343 H1366 0.950 . S
C1344 C1343 1.349 . S
C1344 C1356 1.349 . S
C1345 C1343 1.327 . S
C1345 C1361 1.429 . S
C1345 H1367 0.950 . S
C1346 H1342 0.949 . S
C1346 C1354 1.574 . S
C1346 C1362 1.368 . S
H1347 C1355 0.950 . S
H1348 C1353 0.950 . S
H1349 C1354 0.949 . S
H1350 C1356 0.950 . S
H1351 C1357 0.950 . S
H1352 C1358 0.949 . S
C1353 H1348 0.950 . S
C1353 C1355 1.327 . S
C1353 C1359 1.429 . S
C1354 C1346 1.574 . S
C1354 H1349 0.949 . S
C1354 C1360 1.368 . S
C1355 C1339 1.349 . S
C1355 H1347 0.950 . S
C1355 C1353 1.327 . S
C1356 C1344 1.349 . S
C1356 H1350 0.950 . S
C1356 C1357 1.327 . S
C1357 H1351 0.950 . S
C1357 C1356 1.327 . S
C1357 C1361 1.429 . S
C1358 C1341 1.574 . S
C1358 H1352 0.949 . S
C1358 C1362 1.368 . S
C1359 C1340 1.429 . S
C1359 C1353 1.429 . S
C1359 C1360 1.523 . S
C1360 C1341 1.368 . S
C1360 C1354 1.368 . S
C1360 C1359 1.523 . S
C1361 C1345 1.429 . S
C1361 C1357 1.429 . S
C1361 C1362 1.523 . S
C1362 C1346 1.368 . S
C1362 C1358 1.368 . S
C1362 C1361 1.523 . S
H1363 C1338 0.950 . S
H1364 C1340 0.950 . S
H1365 C1341 0.949 . S
H1366 C1343 0.950 . S
H1367 C1345 0.950 . S
C1368 C1369 1.349 . S
C1368 C1370 1.327 . S
C1368 H1393 0.950 . S
C1369 C1368 1.349 . S
C1369 C1385 1.349 . S
C1370 C1368 1.327 . S
C1370 C1389 1.429 . S
C1370 H1394 0.950 . S
C1371 C1388 1.574 . S
C1371 C1390 1.368 . S
C1371 H1395 0.949 . S
H1372 C1376 0.949 . S
C1373 C1374 1.349 . S
C1373 C1375 1.327 . S
C1373 H1396 0.950 . S
C1374 C1373 1.349 . S
C1374 C1386 1.349 . S
C1375 C1373 1.327 . S
C1375 C1391 1.429 . S
C1375 H1397 0.950 . S
C1376 H1372 0.949 . S
C1376 C1384 1.574 . S
C1376 C1392 1.368 . S
H1377 C1385 0.950 . S
H1378 C1383 0.950 . S
H1379 C1384 0.949 . S
H1380 C1386 0.950 . S
H1381 C1387 0.950 . S
H1382 C1388 0.949 . S
C1383 H1378 0.950 . S
C1383 C1385 1.327 . S
C1383 C1389 1.429 . S
C1384 C1376 1.574 . S
C1384 H1379 0.949 . S
C1384 C1390 1.368 . S
C1385 C1369 1.349 . S
C1385 H1377 0.950 . S
C1385 C1383 1.327 . S
C1386 C1374 1.349 . S
C1386 H1380 0.950 . S
C1386 C1387 1.327 . S
C1387 H1381 0.950 . S
C1387 C1386 1.327 . S
C1387 C1391 1.429 . S
C1388 C1371 1.574 . S
C1388 H1382 0.949 . S
C1388 C1392 1.368 . S
C1389 C1370 1.429 . S
C1389 C1383 1.429 . S
C1389 C1390 1.523 . S
C1390 C1371 1.368 . S
C1390 C1384 1.368 . S
C1390 C1389 1.523 . S
C1391 C1375 1.429 . S
C1391 C1387 1.429 . S
C1391 C1392 1.523 . S
C1392 C1376 1.368 . S
C1392 C1388 1.368 . S
C1392 C1391 1.523 . S
H1393 C1368 0.950 . S
H1394 C1370 0.950 . S
H1395 C1371 0.949 . S
H1396 C1373 0.950 . S
H1397 C1375 0.950 . S
C1398 C1399 1.349 . S
C1398 C1400 1.327 . S
C1398 H1423 0.950 . S
C1399 C1398 1.349 . S
C1399 C1415 1.349 . S
C1400 C1398 1.327 . S
C1400 C1419 1.429 . S
C1400 H1424 0.950 . S
C1401 C1418 1.574 . S
C1401 C1420 1.368 . S
C1401 H1425 0.949 . S
H1402 C1406 0.949 . S
C1403 C1404 1.349 . S
C1403 C1405 1.327 . S
C1403 H1426 0.950 . S
C1404 C1403 1.349 . S
C1404 C1416 1.349 . S
C1405 C1403 1.327 . S
C1405 C1421 1.429 . S
C1405 H1427 0.950 . S
C1406 H1402 0.949 . S
C1406 C1414 1.574 . S
C1406 C1422 1.368 . S
H1407 C1415 0.950 . S
H1408 C1413 0.950 . S
H1409 C1414 0.949 . S
H1410 C1416 0.950 . S
H1411 C1417 0.950 . S
H1412 C1418 0.949 . S
C1413 H1408 0.950 . S
C1413 C1415 1.327 . S
C1413 C1419 1.429 . S
C1414 C1406 1.574 . S
C1414 H1409 0.949 . S
C1414 C1420 1.368 . S
C1415 C1399 1.349 . S
C1415 H1407 0.950 . S
C1415 C1413 1.327 . S
C1416 C1404 1.349 . S
C1416 H1410 0.950 . S
C1416 C1417 1.327 . S
C1417 H1411 0.950 . S
C1417 C1416 1.327 . S
C1417 C1421 1.429 . S
C1418 C1401 1.574 . S
C1418 H1412 0.949 . S
C1418 C1422 1.368 . S
C1419 C1400 1.429 . S
C1419 C1413 1.429 . S
C1419 C1420 1.523 . S
C1420 C1401 1.368 . S
C1420 C1414 1.368 . S
C1420 C1419 1.523 . S
C1421 C1405 1.429 . S
C1421 C1417 1.429 . S
C1421 C1422 1.523 . S
C1422 C1406 1.368 . S
C1422 C1418 1.368 . S
C1422 C1421 1.523 . S
H1423 C1398 0.950 . S
H1424 C1400 0.950 . S
H1425 C1401 0.949 . S
H1426 C1403 0.950 . S
H1427 C1405 0.950 . S
C1428 C1429 1.349 . S
C1428 C1430 1.327 . S
C1428 H1453 0.950 . S
C1429 C1428 1.349 . S
C1429 C1445 1.349 . S
C1430 C1428 1.327 . S
C1430 C1449 1.429 . S
C1430 H1454 0.950 . S
C1431 C1448 1.574 . S
C1431 C1450 1.368 . S
C1431 H1455 0.949 . S
H1432 C1436 0.949 . S
C1433 C1434 1.349 . S
C1433 C1435 1.327 . S
C1433 H1456 0.950 . S
C1434 C1433 1.349 . S
C1434 C1446 1.349 . S
C1435 C1433 1.327 . S
C1435 C1451 1.429 . S
C1435 H1457 0.950 . S
C1436 H1432 0.949 . S
C1436 C1444 1.574 . S
C1436 C1452 1.368 . S
H1437 C1445 0.950 . S
H1438 C1443 0.950 . S
H1439 C1444 0.949 . S
H1440 C1446 0.950 . S
H1441 C1447 0.950 . S
H1442 C1448 0.949 . S
C1443 H1438 0.950 . S
C1443 C1445 1.327 . S
C1443 C1449 1.429 . S
C1444 C1436 1.574 . S
C1444 H1439 0.949 . S
C1444 C1450 1.368 . S
C1445 C1429 1.349 . S
C1445 H1437 0.950 . S
C1445 C1443 1.327 . S
C1446 C1434 1.349 . S
C1446 H1440 0.950 . S
C1446 C1447 1.327 . S
C1447 H1441 0.950 . S
C1447 C1446 1.327 . S
C1447 C1451 1.429 . S
C1448 C1431 1.574 . S
C1448 H1442 0.949 . S
C1448 C1452 1.368 . S
C1449 C1430 1.429 . S
C1449 C1443 1.429 . S
C1449 C1450 1.523 . S
C1450 C1431 1.368 . S
C1450 C1444 1.368 . S
C1450 C1449 1.523 . S
C1451 C1435 1.429 . S
C1451 C1447 1.429 . S
C1451 C1452 1.523 . S
C1452 C1436 1.368 . S
C1452 C1448 1.368 . S
C1452 C1451 1.523 . S
H1453 C1428 0.950 . S
H1454 C1430 0.950 . S
H1455 C1431 0.949 . S
H1456 C1433 0.950 . S
H1457 C1435 0.950 . S
C1458 C1459 1.349 . S
C1458 C1460 1.327 . S
C1458 H1483 0.950 . S
C1459 C1458 1.349 . S
C1459 C1475 1.349 . S
C1460 C1458 1.327 . S
C1460 C1479 1.429 . S
C1460 H1484 0.950 . S
C1461 C1478 1.574 . S
C1461 C1480 1.368 . S
C1461 H1485 0.949 . S
H1462 C1466 0.949 . S
C1463 C1464 1.349 . S
C1463 C1465 1.327 . S
C1463 H1486 0.950 . S
C1464 C1463 1.349 . S
C1464 C1476 1.349 . S
C1465 C1463 1.327 . S
C1465 C1481 1.429 . S
C1465 H1487 0.950 . S
C1466 H1462 0.949 . S
C1466 C1474 1.574 . S
C1466 C1482 1.368 . S
H1467 C1475 0.950 . S
H1468 C1473 0.950 . S
H1469 C1474 0.949 . S
H1470 C1476 0.950 . S
H1471 C1477 0.950 . S
H1472 C1478 0.949 . S
C1473 H1468 0.950 . S
C1473 C1475 1.327 . S
C1473 C1479 1.429 . S
C1474 C1466 1.574 . S
C1474 H1469 0.949 . S
C1474 C1480 1.368 . S
C1475 C1459 1.349 . S
C1475 H1467 0.950 . S
C1475 C1473 1.327 . S
C1476 C1464 1.349 . S
C1476 H1470 0.950 . S
C1476 C1477 1.327 . S
C1477 H1471 0.950 . S
C1477 C1476 1.327 . S
C1477 C1481 1.429 . S
C1478 C1461 1.574 . S
C1478 H1472 0.949 . S
C1478 C1482 1.368 . S
C1479 C1460 1.429 . S
C1479 C1473 1.429 . S
C1479 C1480 1.523 . S
C1480 C1461 1.368 . S
C1480 C1474 1.368 . S
C1480 C1479 1.523 . S
C1481 C1465 1.429 . S
C1481 C1477 1.429 . S
C1481 C1482 1.523 . S
C1482 C1466 1.368 . S
C1482 C1478 1.368 . S
C1482 C1481 1.523 . S
H1483 C1458 0.950 . S
H1484 C1460 0.950 . S
H1485 C1461 0.949 . S
H1486 C1463 0.950 . S
H1487 C1465 0.950 . S
C1488 C1489 1.349 . S
C1488 C1490 1.327 . S
C1488 H1513 0.950 . S
C1489 C1488 1.349 . S
C1489 C1505 1.349 . S
C1490 C1488 1.327 . S
C1490 C1509 1.429 . S
C1490 H1514 0.950 . S
C1491 C1508 1.574 . S
C1491 C1510 1.368 . S
C1491 H1515 0.949 . S
H1492 C1496 0.949 . S
C1493 C1494 1.349 . S
C1493 C1495 1.327 . S
C1493 H1516 0.950 . S
C1494 C1493 1.349 . S
C1494 C1506 1.349 . S
C1495 C1493 1.327 . S
C1495 C1511 1.429 . S
C1495 H1517 0.950 . S
C1496 H1492 0.949 . S
C1496 C1504 1.574 . S
C1496 C1512 1.368 . S
H1497 C1505 0.950 . S
H1498 C1503 0.950 . S
H1499 C1504 0.949 . S
H1500 C1506 0.950 . S
H1501 C1507 0.950 . S
H1502 C1508 0.949 . S
C1503 H1498 0.950 . S
C1503 C1505 1.327 . S
C1503 C1509 1.429 . S
C1504 C1496 1.574 . S
C1504 H1499 0.949 . S
C1504 C1510 1.368 . S
C1505 C1489 1.349 . S
C1505 H1497 0.950 . S
C1505 C1503 1.327 . S
C1506 C1494 1.349 . S
C1506 H1500 0.950 . S
C1506 C1507 1.327 . S
C1507 H1501 0.950 . S
C1507 C1506 1.327 . S
C1507 C1511 1.429 . S
C1508 C1491 1.574 . S
C1508 H1502 0.949 . S
C1508 C1512 1.368 . S
C1509 C1490 1.429 . S
C1509 C1503 1.429 . S
C1509 C1510 1.523 . S
C1510 C1491 1.368 . S
C1510 C1504 1.368 . S
C1510 C1509 1.523 . S
C1511 C1495 1.429 . S
C1511 C1507 1.429 . S
C1511 C1512 1.523 . S
C1512 C1496 1.368 . S
C1512 C1508 1.368 . S
C1512 C1511 1.523 . S
H1513 C1488 0.950 . S
H1514 C1490 0.950 . S
H1515 C1491 0.949 . S
H1516 C1493 0.950 . S
H1517 C1495 0.950 . S
C1518 C1519 1.349 . S
C1518 C1520 1.327 . S
C1518 H1543 0.950 . S
C1519 C1518 1.349 . S
C1519 C1535 1.349 . S
C1520 C1518 1.327 . S
C1520 C1539 1.429 . S
C1520 H1544 0.950 . S
C1521 C1538 1.574 . S
C1521 C1540 1.368 . S
C1521 H1545 0.949 . S
H1522 C1526 0.949 . S
C1523 C1524 1.349 . S
C1523 C1525 1.327 . S
C1523 H1546 0.950 . S
C1524 C1523 1.349 . S
C1524 C1536 1.349 . S
C1525 C1523 1.327 . S
C1525 C1541 1.429 . S
C1525 H1547 0.950 . S
C1526 H1522 0.949 . S
C1526 C1534 1.574 . S
C1526 C1542 1.368 . S
H1527 C1535 0.950 . S
H1528 C1533 0.950 . S
H1529 C1534 0.949 . S
H1530 C1536 0.950 . S
H1531 C1537 0.950 . S
H1532 C1538 0.949 . S
C1533 H1528 0.950 . S
C1533 C1535 1.327 . S
C1533 C1539 1.429 . S
C1534 C1526 1.574 . S
C1534 H1529 0.949 . S
C1534 C1540 1.368 . S
C1535 C1519 1.349 . S
C1535 H1527 0.950 . S
C1535 C1533 1.327 . S
C1536 C1524 1.349 . S
C1536 H1530 0.950 . S
C1536 C1537 1.327 . S
C1537 H1531 0.950 . S
C1537 C1536 1.327 . S
C1537 C1541 1.429 . S
C1538 C1521 1.574 . S
C1538 H1532 0.949 . S
C1538 C1542 1.368 . S
C1539 C1520 1.429 . S
C1539 C1533 1.429 . S
C1539 C1540 1.523 . S
C1540 C1521 1.368 . S
C1540 C1534 1.368 . S
C1540 C1539 1.523 . S
C1541 C1525 1.429 . S
C1541 C1537 1.429 . S
C1541 C1542 1.523 . S
C1542 C1526 1.368 . S
C1542 C1538 1.368 . S
C1542 C1541 1.523 . S
H1543 C1518 0.950 . S
H1544 C1520 0.950 . S
H1545 C1521 0.949 . S
H1546 C1523 0.950 . S
H1547 C1525 0.950 . S
C1548 C1549 1.349 . S
C1548 C1550 1.327 . S
C1548 H1573 0.950 . S
C1549 C1548 1.349 . S
C1549 C1565 1.349 . S
C1550 C1548 1.327 . S
C1550 C1569 1.429 . S
C1550 H1574 0.950 . S
C1551 C1568 1.574 . S
C1551 C1570 1.368 . S
C1551 H1575 0.949 . S
H1552 C1556 0.949 . S
C1553 C1554 1.349 . S
C1553 C1555 1.327 . S
C1553 H1576 0.950 . S
C1554 C1553 1.349 . S
C1554 C1566 1.349 . S
C1555 C1553 1.327 . S
C1555 C1571 1.429 . S
C1555 H1577 0.950 . S
C1556 H1552 0.949 . S
C1556 C1564 1.574 . S
C1556 C1572 1.368 . S
H1557 C1565 0.950 . S
H1558 C1563 0.950 . S
H1559 C1564 0.949 . S
H1560 C1566 0.950 . S
H1561 C1567 0.950 . S
H1562 C1568 0.949 . S
C1563 H1558 0.950 . S
C1563 C1565 1.327 . S
C1563 C1569 1.429 . S
C1564 C1556 1.574 . S
C1564 H1559 0.949 . S
C1564 C1570 1.368 . S
C1565 C1549 1.349 . S
C1565 H1557 0.950 . S
C1565 C1563 1.327 . S
C1566 C1554 1.349 . S
C1566 H1560 0.950 . S
C1566 C1567 1.327 . S
C1567 H1561 0.950 . S
C1567 C1566 1.327 . S
C1567 C1571 1.429 . S
C1568 C1551 1.574 . S
C1568 H1562 0.949 . S
C1568 C1572 1.368 . S
C1569 C1550 1.429 . S
C1569 C1563 1.429 . S
C1569 C1570 1.523 . S
C1570 C1551 1.368 . S
C1570 C1564 1.368 . S
C1570 C1569 1.523 . S
C1571 C1555 1.429 . S
C1571 C1567 1.429 . S
C1571 C1572 1.523 . S
C1572 C1556 1.368 . S
C1572 C1568 1.368 . S
C1572 C1571 1.523 . S
H1573 C1548 0.950 . S
H1574 C1550 0.950 . S
H1575 C1551 0.949 . S
H1576 C1553 0.950 . S
H1577 C1555 0.950 . S
C1578 C1579 1.349 . S
C1578 C1580 1.327 . S
C1578 H1603 0.950 . S
C1579 C1578 1.349 . S
C1579 C1595 1.349 . S
C1580 C1578 1.327 . S
C1580 C1599 1.429 . S
C1580 H1604 0.950 . S
C1581 C1598 1.574 . S
C1581 C1600 1.368 . S
C1581 H1605 0.949 . S
H1582 C1586 0.949 . S
C1583 C1584 1.349 . S
C1583 C1585 1.327 . S
C1583 H1606 0.950 . S
C1584 C1583 1.349 . S
C1584 C1596 1.349 . S
C1585 C1583 1.327 . S
C1585 C1601 1.429 . S
C1585 H1607 0.950 . S
C1586 H1582 0.949 . S
C1586 C1594 1.574 . S
C1586 C1602 1.368 . S
H1587 C1595 0.950 . S
H1588 C1593 0.950 . S
H1589 C1594 0.949 . S
H1590 C1596 0.950 . S
H1591 C1597 0.950 . S
H1592 C1598 0.949 . S
C1593 H1588 0.950 . S
C1593 C1595 1.327 . S
C1593 C1599 1.429 . S
C1594 C1586 1.574 . S
C1594 H1589 0.949 . S
C1594 C1600 1.368 . S
C1595 C1579 1.349 . S
C1595 H1587 0.950 . S
C1595 C1593 1.327 . S
C1596 C1584 1.349 . S
C1596 H1590 0.950 . S
C1596 C1597 1.327 . S
C1597 H1591 0.950 . S
C1597 C1596 1.327 . S
C1597 C1601 1.429 . S
C1598 C1581 1.574 . S
C1598 H1592 0.949 . S
C1598 C1602 1.368 . S
C1599 C1580 1.429 . S
C1599 C1593 1.429 . S
C1599 C1600 1.523 . S
C1600 C1581 1.368 . S
C1600 C1594 1.368 . S
C1600 C1599 1.523 . S
C1601 C1585 1.429 . S
C1601 C1597 1.429 . S
C1601 C1602 1.523 . S
C1602 C1586 1.368 . S
C1602 C1598 1.368 . S
C1602 C1601 1.523 . S
H1603 C1578 0.950 . S
H1604 C1580 0.950 . S
H1605 C1581 0.949 . S
H1606 C1583 0.950 . S
H1607 C1585 0.950 . S
C1608 C1609 1.349 . S
C1608 C1610 1.327 . S
C1608 H1633 0.950 . S
C1609 C1608 1.349 . S
C1609 C1625 1.349 . S
C1610 C1608 1.327 . S
C1610 C1629 1.429 . S
C1610 H1634 0.950 . S
C1611 C1628 1.574 . S
C1611 C1630 1.368 . S
C1611 H1635 0.949 . S
H1612 C1616 0.949 . S
C1613 C1614 1.349 . S
C1613 C1615 1.327 . S
C1613 H1636 0.950 . S
C1614 C1613 1.349 . S
C1614 C1626 1.349 . S
C1615 C1613 1.327 . S
C1615 C1631 1.429 . S
C1615 H1637 0.950 . S
C1616 H1612 0.949 . S
C1616 C1624 1.574 . S
C1616 C1632 1.368 . S
H1617 C1625 0.950 . S
H1618 C1623 0.950 . S
H1619 C1624 0.949 . S
H1620 C1626 0.950 . S
H1621 C1627 0.950 . S
H1622 C1628 0.949 . S
C1623 H1618 0.950 . S
C1623 C1625 1.327 . S
C1623 C1629 1.429 . S
C1624 C1616 1.574 . S
C1624 H1619 0.949 . S
C1624 C1630 1.368 . S
C1625 C1609 1.349 . S
C1625 H1617 0.950 . S
C1625 C1623 1.327 . S
C1626 C1614 1.349 . S
C1626 H1620 0.950 . S
C1626 C1627 1.327 . S
C1627 H1621 0.950 . S
C1627 C1626 1.327 . S
C1627 C1631 1.429 . S
C1628 C1611 1.574 . S
C1628 H1622 0.949 . S
C1628 C1632 1.368 . S
C1629 C1610 1.429 . S
C1629 C1623 1.429 . S
C1629 C1630 1.523 . S
C1630 C1611 1.368 . S
C1630 C1624 1.368 . S
C1630 C1629 1.523 . S
C1631 C1615 1.429 . S
C1631 C1627 1.429 . S
C1631 C1632 1.523 . S
C1632 C1616 1.368 . S
C1632 C1628 1.368 . S
C1632 C1631 1.523 . S
H1633 C1608 0.950 . S
H1634 C1610 0.950 . S
H1635 C1611 0.949 . S
H1636 C1613 0.950 . S
H1637 C1615 0.950 . S
C1638 C1639 1.349 . S
C1638 C1640 1.327 . S
C1638 H1663 0.950 . S
C1639 C1638 1.349 . S
C1639 C1655 1.349 . S
C1640 C1638 1.327 . S
C1640 C1659 1.429 . S
C1640 H1664 0.950 . S
C1641 C1658 1.574 . S
C1641 C1660 1.368 . S
C1641 H1665 0.949 . S
H1642 C1646 0.949 . S
C1643 C1644 1.349 . S
C1643 C1645 1.327 . S
C1643 H1666 0.950 . S
C1644 C1643 1.349 . S
C1644 C1656 1.349 . S
C1645 C1643 1.327 . S
C1645 C1661 1.429 . S
C1645 H1667 0.950 . S
C1646 H1642 0.949 . S
C1646 C1654 1.574 . S
C1646 C1662 1.368 . S
H1647 C1655 0.950 . S
H1648 C1653 0.950 . S
H1649 C1654 0.949 . S
H1650 C1656 0.950 . S
H1651 C1657 0.950 . S
H1652 C1658 0.949 . S
C1653 H1648 0.950 . S
C1653 C1655 1.327 . S
C1653 C1659 1.429 . S
C1654 C1646 1.574 . S
C1654 H1649 0.949 . S
C1654 C1660 1.368 . S
C1655 C1639 1.349 . S
C1655 H1647 0.950 . S
C1655 C1653 1.327 . S
C1656 C1644 1.349 . S
C1656 H1650 0.950 . S
C1656 C1657 1.327 . S
C1657 H1651 0.950 . S
C1657 C1656 1.327 . S
C1657 C1661 1.429 . S
C1658 C1641 1.574 . S
C1658 H1652 0.949 . S
C1658 C1662 1.368 . S
C1659 C1640 1.429 . S
C1659 C1653 1.429 . S
C1659 C1660 1.523 . S
C1660 C1641 1.368 . S
C1660 C1654 1.368 . S
C1660 C1659 1.523 . S
C1661 C1645 1.429 . S
C1661 C1657 1.429 . S
C1661 C1662 1.523 . S
C1662 C1646 1.368 . S
C1662 C1658 1.368 . S
C1662 C1661 1.523 . S
H1663 C1638 0.950 . S
H1664 C1640 0.950 . S
H1665 C1641 0.949 . S
H1666 C1643 0.950 . S
H1667 C1645 0.950 . S
C1668 C1669 1.349 . S
C1668 C1670 1.327 . S
C1668 H1693 0.950 . S
C1669 C1668 1.349 . S
C1669 C1685 1.349 . S
C1670 C1668 1.327 . S
C1670 C1689 1.429 . S
C1670 H1694 0.950 . S
C1671 C1688 1.574 . S
C1671 C1690 1.368 . S
C1671 H1695 0.949 . S
H1672 C1676 0.949 . S
C1673 C1674 1.349 . S
C1673 C1675 1.327 . S
C1673 H1696 0.950 . S
C1674 C1673 1.349 . S
C1674 C1686 1.349 . S
C1675 C1673 1.327 . S
C1675 C1691 1.429 . S
C1675 H1697 0.950 . S
C1676 H1672 0.949 . S
C1676 C1684 1.574 . S
C1676 C1692 1.368 . S
H1677 C1685 0.950 . S
H1678 C1683 0.950 . S
H1679 C1684 0.949 . S
H1680 C1686 0.950 . S
H1681 C1687 0.950 . S
H1682 C1688 0.949 . S
C1683 H1678 0.950 . S
C1683 C1685 1.327 . S
C1683 C1689 1.429 . S
C1684 C1676 1.574 . S
C1684 H1679 0.949 . S
C1684 C1690 1.368 . S
C1685 C1669 1.349 . S
C1685 H1677 0.950 . S
C1685 C1683 1.327 . S
C1686 C1674 1.349 . S
C1686 H1680 0.950 . S
C1686 C1687 1.327 . S
C1687 H1681 0.950 . S
C1687 C1686 1.327 . S
C1687 C1691 1.429 . S
C1688 C1671 1.574 . S
C1688 H1682 0.949 . S
C1688 C1692 1.368 . S
C1689 C1670 1.429 . S
C1689 C1683 1.429 . S
C1689 C1690 1.523 . S
C1690 C1671 1.368 . S
C1690 C1684 1.368 . S
C1690 C1689 1.523 . S
C1691 C1675 1.429 . S
C1691 C1687 1.429 . S
C1691 C1692 1.523 . S
C1692 C1676 1.368 . S
C1692 C1688 1.368 . S
C1692 C1691 1.523 . S
H1693 C1668 0.950 . S
H1694 C1670 0.950 . S
H1695 C1671 0.949 . S
H1696 C1673 0.950 . S
H1697 C1675 0.950 . S
C1698 C1699 1.349 . S
C1698 C1700 1.327 . S
C1698 H1723 0.950 . S
C1699 C1698 1.349 . S
C1699 C1715 1.349 . S
C1700 C1698 1.327 . S
C1700 C1719 1.429 . S
C1700 H1724 0.950 . S
C1701 C1718 1.574 . S
C1701 C1720 1.368 . S
C1701 H1725 0.949 . S
H1702 C1706 0.949 . S
C1703 C1704 1.349 . S
C1703 C1705 1.327 . S
C1703 H1726 0.950 . S
C1704 C1703 1.349 . S
C1704 C1716 1.349 . S
C1705 C1703 1.327 . S
C1705 C1721 1.429 . S
C1705 H1727 0.950 . S
C1706 H1702 0.949 . S
C1706 C1714 1.574 . S
C1706 C1722 1.368 . S
H1707 C1715 0.950 . S
H1708 C1713 0.950 . S
H1709 C1714 0.949 . S
H1710 C1716 0.950 . S
H1711 C1717 0.950 . S
H1712 C1718 0.949 . S
C1713 H1708 0.950 . S
C1713 C1715 1.327 . S
C1713 C1719 1.429 . S
C1714 C1706 1.574 . S
C1714 H1709 0.949 . S
C1714 C1720 1.368 . S
C1715 C1699 1.349 . S
C1715 H1707 0.950 . S
C1715 C1713 1.327 . S
C1716 C1704 1.349 . S
C1716 H1710 0.950 . S
C1716 C1717 1.327 . S
C1717 H1711 0.950 . S
C1717 C1716 1.327 . S
C1717 C1721 1.429 . S
C1718 C1701 1.574 . S
C1718 H1712 0.949 . S
C1718 C1722 1.368 . S
C1719 C1700 1.429 . S
C1719 C1713 1.429 . S
C1719 C1720 1.523 . S
C1720 C1701 1.368 . S
C1720 C1714 1.368 . S
C1720 C1719 1.523 . S
C1721 C1705 1.429 . S
C1721 C1717 1.429 . S
C1721 C1722 1.523 . S
C1722 C1706 1.368 . S
C1722 C1718 1.368 . S
C1722 C1721 1.523 . S
H1723 C1698 0.950 . S
H1724 C1700 0.950 . S
H1725 C1701 0.949 . S
H1726 C1703 0.950 . S
H1727 C1705 0.950 . S
C529 N13 1.755 . S
C534 N244 1.755 . S
C559 N145 1.755 . S
C564 N46 1.755 . S
C589 N178 1.755 . S
C594 N79 1.755 . S
C619 N211 1.755 . S
C624 N112 1.755 . S
C649 N277 1.755 . S
C654 N508 1.755 . S
C679 N310 1.755 . S
C684 N409 1.755 . S
C709 N442 1.755 . S
C714 N343 1.755 . S
C739 N376 1.755 . S
C744 N475 1.755 . S
C769 N2 1.557 . S
C774 N332 1.557 . S
C799 N365 1.557 . S
C804 N35 1.557 . S
C829 N266 1.557 . S
C834 N68 1.557 . S
C859 N299 1.557 . S
C864 N101 1.557 . S
C889 N464 1.557 . S
C894 N134 1.557 . S
C919 N497 1.557 . S
C924 N167 1.557 . S
C949 N398 1.557 . S
C954 N200 1.557 . S
C979 N431 1.557 . S
C984 N233 1.557 . S
C1009 C21 0.944 . S
C1014 C87 0.944 . S
C1039 C120 0.944 . S
C1044 C54 0.944 . S
C1069 C219 0.944 . S
C1074 C153 0.944 . S
C1099 C252 0.944 . S
C1104 C186 0.944 . S
C1129 C285 0.944 . S
C1134 C351 0.944 . S
C1159 C384 0.944 . S
C1164 C318 0.944 . S
C1189 C417 0.944 . S
C1194 C483 0.944 . S
C1219 C450 0.944 . S
C1224 C516 0.944 . S
C1249 C469 1.517 . S
C1254 C18 1.604 . S
C1279 C51 1.604 . S
C1284 C502 1.517 . S
C1309 C403 1.517 . S
C1314 C84 1.604 . S
C1339 C436 1.517 . S
C1344 C117 1.604 . S
C1369 C337 1.517 1_655 S
C1374 C150 1.604 . S
C1399 C183 1.604 . S
C1404 C370 1.517 1_565 S
C1429 C271 1.517 1_455 S
C1434 C216 1.604 . S
C1459 C249 1.604 . S
C1464 C304 1.517 1_545 S
C1489 C205 1.517 . S
C1494 C282 1.604 . S
C1519 C238 1.517 . S
C1524 C315 1.604 . S
C1549 C139 1.517 . S
C1554 C348 1.604 . S
C1579 C381 1.604 . S
C1584 C172 1.517 . S
C1609 C73 1.517 1_455 S
C1614 C414 1.604 . S
C1639 C447 1.604 . S
C1644 C106 1.517 1_545 S
C1669 C480 1.604 . S
C1674 C7 1.517 1_655 S
C1699 C40 1.517 1_565 S
C1704 C513 1.604 . S
