# Generated by pormake.
# Topology vmo, (7)-cn, num edge types: 1
# Building blocks:
#     Node 0, Type 0, BuildingBlock: NUHQUE_clean_sbu_2, # of connection points: 7
#     Node 1, Type 0, BuildingBlock: NUHQUE_clean_sbu_2, # of connection points: 7
#     Node 2, Type 0, BuildingBlock: NUHQUE_clean_sbu_2, # of connection points: 7
#     Node 3, Type 0, BuildingBlock: NUHQUE_clean_sbu_2, # of connection points: 7
#     Node 4, Type 0, BuildingBlock: NUHQUE_clean_sbu_2, # of connection points: 7
#     Node 5, Type 0, BuildingBlock: NUHQUE_clean_sbu_2, # of connection points: 7
#     Node 6, Type 0, BuildingBlock: NUHQUE_clean_sbu_2, # of connection points: 7
#     Node 7, Type 0, BuildingBlock: NUHQUE_clean_sbu_2, # of connection points: 7
#     Edge 8, Type (0, 0), BuildingBlock: KIFKEQ_clean_linker_1, # of connection points: 2
#     Edge 9, Type (0, 0), BuildingBlock: KIFKEQ_clean_linker_1, # of connection points: 2
#     Edge 10, Type (0, 0), BuildingBlock: KIFKEQ_clean_linker_1, # of connection points: 2
#     Edge 11, Type (0, 0), BuildingBlock: KIFKEQ_clean_linker_1, # of connection points: 2
#     Edge 12, Type (0, 0), BuildingBlock: KIFKEQ_clean_linker_1, # of connection points: 2
#     Edge 13, Type (0, 0), BuildingBlock: KIFKEQ_clean_linker_1, # of connection points: 2
#     Edge 14, Type (0, 0), BuildingBlock: KIFKEQ_clean_linker_1, # of connection points: 2
#     Edge 15, Type (0, 0), BuildingBlock: KIFKEQ_clean_linker_1, # of connection points: 2
#     Edge 16, Type (0, 0), BuildingBlock: KIFKEQ_clean_linker_1, # of connection points: 2
#     Edge 17, Type (0, 0), BuildingBlock: KIFKEQ_clean_linker_1, # of connection points: 2
#     Edge 18, Type (0, 0), BuildingBlock: KIFKEQ_clean_linker_1, # of connection points: 2
#     Edge 19, Type (0, 0), BuildingBlock: KIFKEQ_clean_linker_1, # of connection points: 2
#     Edge 20, Type (0, 0), BuildingBlock: KIFKEQ_clean_linker_1, # of connection points: 2
#     Edge 21, Type (0, 0), BuildingBlock: KIFKEQ_clean_linker_1, # of connection points: 2
#     Edge 22, Type (0, 0), BuildingBlock: KIFKEQ_clean_linker_1, # of connection points: 2
#     Edge 23, Type (0, 0), BuildingBlock: KIFKEQ_clean_linker_1, # of connection points: 2
#     Edge 24, Type (0, 0), BuildingBlock: KIFKEQ_clean_linker_1, # of connection points: 2
#     Edge 25, Type (0, 0), BuildingBlock: KIFKEQ_clean_linker_1, # of connection points: 2
#     Edge 26, Type (0, 0), BuildingBlock: KIFKEQ_clean_linker_1, # of connection points: 2
#     Edge 27, Type (0, 0), BuildingBlock: KIFKEQ_clean_linker_1, # of connection points: 2
#     Edge 28, Type (0, 0), BuildingBlock: KIFKEQ_clean_linker_1, # of connection points: 2
#     Edge 29, Type (0, 0), BuildingBlock: KIFKEQ_clean_linker_1, # of connection points: 2
#     Edge 30, Type (0, 0), BuildingBlock: KIFKEQ_clean_linker_1, # of connection points: 2
#     Edge 31, Type (0, 0), BuildingBlock: KIFKEQ_clean_linker_1, # of connection points: 2
#     Edge 32, Type (0, 0), BuildingBlock: KIFKEQ_clean_linker_1, # of connection points: 2
#     Edge 33, Type (0, 0), BuildingBlock: KIFKEQ_clean_linker_1, # of connection points: 2
#     Edge 34, Type (0, 0), BuildingBlock: KIFKEQ_clean_linker_1, # of connection points: 2
#     Edge 35, Type (0, 0), BuildingBlock: KIFKEQ_clean_linker_1, # of connection points: 2
# Relax obj value: 0.230
# Max RMSD: 0.262
# Mean RMSD: 0.262
data_MOF--net-vmo--node1-NUHQUE_clean_sbu_2--edge1-KIFKEQ_clean_linker_1
_symmetry_space_group_name_H-M    P1
_symmetry_Int_Tables_number       1
_symmetry_cell_setting            triclinic
loop_
_symmetry_equiv_pos_as_xyz
'x, y, z'
_cell_length_a     32.498416
_cell_length_b     59.511126
_cell_length_c     26.9618
_cell_angle_alpha  89.912601
_cell_angle_beta   112.19372
_cell_angle_gamma 90.011693
loop_
_atom_site_label
_atom_site_type_symbol
_atom_site_fract_x
_atom_site_fract_y
_atom_site_fract_z
_atom_type_partial_charge
O0 O 0.27498 0.45116 0.29642 0.0
Tb1 Tb 0.24782 0.43697 0.21554 0.0
Eu2 Eu 0.21152 0.3956 0.11622 0.0
C3 C 0.2471 0.45446 0.32075 0.0
O4 O 0.20509 0.44932 0.29496 0.0
C5 C 0.17339 0.40247 0.20831 0.0
O6 O 0.17095 0.38861 1.02762 0.0
C7 C 0.27051 0.36484 0.16248 0.0
C8 C 0.15083 0.40556 0.99603 0.0
O9 O 0.15462 0.42561 1.01757 0.0
C10 C 0.28244 0.4344 0.12544 0.0
C11 C 0.31062 0.3535 0.16018 0.0
C12 C 0.3539 0.36211 0.18724 0.0
C13 C 0.39148 0.35025 0.18705 0.0
C14 C 0.38516 0.32968 0.15953 0.0
C15 C 0.34255 0.32051 0.13375 0.0
C16 C 0.30563 0.33258 0.13443 0.0
O17 O 0.21337 0.40974 0.23874 0.0
O18 O 0.16196 0.40022 0.15613 0.0
O19 O 0.22913 0.47163 0.19279 0.0
O20 O 0.18925 0.44529 0.14523 0.0
C21 C 0.19531 0.46693 0.14937 0.0
O22 O 0.24473 0.42505 0.09478 0.0
O23 O 0.29647 0.43329 0.17834 0.0
O24 O 0.23218 0.36067 0.1233 0.0
O25 O 0.27424 0.38576 0.17932 0.0
H26 H 0.35844 0.37787 0.20874 0.0
H27 H 0.41382 0.32044 0.15939 0.0
H28 H 0.27277 0.32529 0.11635 0.0
O29 O 0.86995 0.44479 0.24403 0.0
Tb30 Tb 0.9083 0.43657 0.32728 0.0
Eu31 Eu 0.913 0.39296 0.4748 0.0
C32 C 0.88983 0.4442 0.20967 0.0
O33 O 0.92912 0.43473 0.2243 0.0
C34 C 0.94354 0.38939 0.3783 0.0
O35 O 0.95011 0.38766 0.56478 0.0
C36 C 0.8314 0.37859 0.4345 0.0
C37 C 0.98506 0.40031 0.5907 0.0
O38 O 0.99764 0.41506 0.56293 0.0
C39 C 0.88871 0.44285 0.42877 0.0
C40 C 0.79646 0.36454 0.44174 0.0
C41 C 0.75143 0.37042 0.41467 0.0
C42 C 0.71714 0.35562 0.41362 0.0
C43 C 0.72883 0.33473 0.43968 0.0
C44 C 0.77347 0.32876 0.4671 0.0
C45 C 0.80716 0.34385 0.46884 0.0
O46 O 0.90838 0.40267 0.35897 0.0
O47 O 0.95207 0.38038 0.42603 0.0
O48 O 0.95253 0.46532 0.35308 0.0
O49 O 0.97888 0.43406 0.34207 0.0
C50 C 0.98819 0.45491 0.35496 0.0
O51 O 0.92039 0.42764 0.4449 0.0
O52 O 0.87803 0.45095 0.37991 0.0
O53 O 0.86533 0.36787 0.43019 0.0
O54 O 0.84244 0.39776 0.46058 0.0
H55 H 0.7432 0.38628 0.39338 0.0
H56 H 0.70317 0.32268 0.43747 0.0
H57 H 0.84166 0.33893 0.48873 0.0
O58 O 0.88316 0.54284 0.76048 0.0
Tb59 Tb 0.91837 0.55955 0.8368 0.0
Eu60 Eu 0.90945 0.6004 0.97913 0.0
C61 C 0.89064 0.54814 0.7172 0.0
O62 O 0.91484 0.56593 0.71816 0.0
C63 C 0.94308 0.60677 0.88433 0.0
O64 O 0.94542 0.60553 0.06944 0.0
C65 C 0.82804 0.6149 0.93784 0.0
C66 C 0.97806 0.59183 0.09718 0.0
O67 O 0.98934 0.57584 0.07119 0.0
C68 C 0.89102 0.55012 0.92928 0.0
C69 C 0.79391 0.62928 0.94585 0.0
C70 C 0.74863 0.62372 0.91977 0.0
C71 C 0.71514 0.63877 0.91982 0.0
C72 C 0.72773 0.65963 0.94557 0.0
C73 C 0.77259 0.66535 0.9717 0.0
C74 C 0.80561 0.64998 0.97271 0.0
O75 O 0.9086 0.59354 0.86045 0.0
O76 O 0.94989 0.61431 0.93304 0.0
O77 O 0.98171 0.55893 0.82521 0.0
O78 O 0.97888 0.54783 0.89914 0.0
C79 C 1.00451 0.55143 0.87296 0.0
O80 O 0.91924 0.56689 0.94624 0.0
O81 O 0.8872 0.54126 0.88307 0.0
O82 O 0.86214 0.6254 0.93339 0.0
O83 O 0.83871 0.59566 0.96391 0.0
H84 H 0.73953 0.60792 0.89846 0.0
H85 H 0.70251 0.67184 0.94406 0.0
H86 H 0.8403 0.65468 0.99175 0.0
O87 O 0.27807 0.54396 0.80591 0.0
Tb88 Tb 0.24436 0.55759 0.72518 0.0
Eu89 Eu 0.20551 0.59943 0.62156 0.0
C90 C 0.25391 0.54044 0.83504 0.0
O91 O 0.21175 0.54613 0.81471 0.0
C92 C 0.17644 0.59523 0.72195 0.0
O93 O 0.16461 0.60667 0.53308 0.0
C94 C 0.27174 0.62687 0.66456 0.0
C95 C 0.1371 0.59102 0.5041 0.0
O96 O 0.13289 0.57253 0.5285 0.0
C97 C 0.26101 0.55482 0.62138 0.0
C98 C 0.30979 0.63889 0.65871 0.0
C99 C 0.35401 0.63211 0.6884 0.0
C100 C 0.39003 0.64566 0.68974 0.0
C101 C 0.38156 0.66564 0.65975 0.0
C102 C 0.33798 0.67269 0.63078 0.0
C103 C 0.30235 0.65932 0.63027 0.0
O104 O 0.2165 0.58713 0.74996 0.0
O105 O 0.16179 0.59701 0.66931 0.0
O106 O 0.21899 0.52345 0.70936 0.0
O107 O 0.17791 0.55056 0.6679 0.0
C108 C 0.18077 0.52886 0.67317 0.0
O109 O 0.22485 0.5666 0.59666 0.0
O110 O 0.283 0.55681 0.67376 0.0
O111 O 0.2313 0.63338 0.63406 0.0
O112 O 0.27497 0.60509 0.67376 0.0
H113 H 0.36035 0.61711 0.71301 0.0
H114 H 0.40899 0.6764 0.66136 0.0
H115 H 0.26878 0.66541 0.6092 0.0
O116 O 0.75186 0.94359 0.34426 0.0
Tb117 Tb 0.72605 0.93812 0.25808 0.0
Eu118 Eu 0.71236 0.89504 0.11119 0.0
C119 C 0.72403 0.94959 0.36688 0.0
O120 O 0.68118 0.94918 0.33812 0.0
C121 C 0.67643 0.89482 0.20232 0.0
O122 O 0.67726 0.89222 1.0205 0.0
C123 C 0.78766 0.87398 0.15296 0.0
C124 C 0.65394 0.90934 0.99265 0.0
O125 O 0.65252 0.92787 1.01844 0.0
C126 C 0.75598 0.94133 0.16441 0.0
C127 C 0.82177 0.8592 0.14622 0.0
C128 C 0.86652 0.86564 0.17039 0.0
C129 C 0.90079 0.85116 0.17081 0.0
C130 C 0.88954 0.8302 0.14528 0.0
C131 C 0.84495 0.82312 0.12169 0.0
C132 C 0.81116 0.83791 0.12211 0.0
O133 O 0.71563 0.90441 0.22496 0.0
O134 O 0.66665 0.88637 0.15411 0.0
O135 O 0.70769 0.97191 0.22983 0.0
O136 O 0.65663 0.94746 0.21498 0.0
C137 C 0.6654 0.9682 0.20636 0.0
O138 O 0.71768 0.93083 0.14177 0.0
O139 O 0.77021 0.94548 0.21641 0.0
O140 O 0.7493 0.86507 0.14839 0.0
O141 O 0.78447 0.89474 0.13506 0.0
H142 H 0.87471 0.8818 0.19025 0.0
H143 H 0.91586 0.81902 0.14546 0.0
H144 H 0.77678 0.83255 0.1057 0.0
O145 O 0.38322 0.94244 0.23768 0.0
Tb146 Tb 0.41011 0.93652 0.32348 0.0
Eu147 Eu 0.41749 0.89539 0.47149 0.0
C148 C 0.4121 0.94726 0.2158 0.0
O149 O 0.45454 0.94484 0.24516 0.0
C150 C 0.44934 0.89115 0.37711 0.0
O151 O 0.4541 0.89226 0.56196 0.0
C152 C 0.33883 0.87766 0.43112 0.0
C153 C 0.48315 0.90785 0.58799 0.0
O154 O 0.48979 0.92471 0.56036 0.0
C155 C 0.38166 0.9427 0.41703 0.0
C156 C 0.30408 0.86338 0.43754 0.0
C157 C 0.25936 0.86854 0.40743 0.0
C158 C 0.22529 0.85381 0.40653 0.0
C159 C 0.23667 0.83375 0.4361 0.0
C160 C 0.28121 0.82834 0.467 0.0
C161 C 0.31481 0.84348 0.46787 0.0
O162 O 0.41233 0.90287 0.3561 0.0
O163 O 0.45954 0.88343 0.42617 0.0
O164 O 0.4458 0.96748 0.35478 0.0
O165 O 0.48244 0.93768 0.35805 0.0
C166 C 0.48537 0.95886 0.37012 0.0
O167 O 0.41771 0.93031 0.4383 0.0
O168 O 0.36981 0.94859 0.36633 0.0
O169 O 0.37504 0.8676 0.43157 0.0
O170 O 0.34599 0.89773 0.4532 0.0
H171 H 0.2512 0.88382 0.38374 0.0
H172 H 0.21066 0.82178 0.43287 0.0
H173 H 0.34934 0.83964 0.49114 0.0
O174 O 0.37392 0.04879 0.73596 0.0
Tb175 Tb 0.40964 0.05526 0.82068 0.0
Eu176 Eu 0.42096 0.09785 0.97154 0.0
C177 C 0.3963 0.04761 0.70436 0.0
O178 O 0.43818 0.05379 0.72305 0.0
C179 C 0.45111 0.10079 0.875 0.0
O180 O 0.4589 0.10133 0.06178 0.0
C181 C 0.34224 0.11554 0.93263 0.0
C182 C 0.49181 0.0874 0.08723 0.0
O183 O 0.50214 0.07194 0.05914 0.0
C184 C 0.38702 0.05014 0.91907 0.0
C185 C 0.30805 0.13006 0.93962 0.0
C186 C 0.263 0.12508 0.91044 0.0
C187 C 0.22942 0.14031 0.90894 0.0
C188 C 0.24165 0.16067 0.93697 0.0
C189 C 0.2864 0.16581 0.96635 0.0
C190 C 0.31953 0.15031 0.96837 0.0
O191 O 0.41396 0.08906 0.85422 0.0
O192 O 0.46116 0.10921 0.92347 0.0
O193 O 0.44655 0.02438 0.8493 0.0
O194 O 0.48162 0.05375 0.84452 0.0
C195 C 0.48561 0.03267 0.858 0.0
O196 O 0.4216 0.06361 0.93598 0.0
O197 O 0.37426 0.04276 0.86946 0.0
O198 O 0.37811 0.12548 0.93159 0.0
O199 O 0.34974 0.09553 0.95533 0.0
H200 H 0.25423 0.1096 0.88768 0.0
H201 H 0.21638 0.17299 0.93458 0.0
H202 H 0.35419 0.15458 0.98973 0.0
O203 O 0.75704 0.05276 0.8473 0.0
Tb204 Tb 0.73018 0.05771 0.76085 0.0
Eu205 Eu 0.71582 0.10025 0.61184 0.0
C206 C 0.7294 0.04683 0.87032 0.0
O207 O 0.68653 0.04718 0.84174 0.0
C208 C 0.67984 0.10067 0.7027 0.0
O209 O 0.68106 0.10331 0.52104 0.0
C210 C 0.79147 0.12089 0.65426 0.0
C211 C 0.66005 0.08584 0.49249 0.0
O212 O 0.66057 0.06684 0.51764 0.0
C213 C 0.75811 0.05376 0.66548 0.0
C214 C 0.82558 0.13572 0.64771 0.0
C215 C 0.87042 0.12953 0.6728 0.0
C216 C 0.90454 0.1441 0.67312 0.0
C217 C 0.89308 0.16489 0.64664 0.0
C218 C 0.84836 0.17171 0.62214 0.0
C219 C 0.81474 0.15683 0.62265 0.0
O220 O 0.71908 0.09108 0.72538 0.0
O221 O 0.67007 0.10914 0.65446 0.0
O222 O 0.71143 0.02369 0.73551 0.0
O223 O 0.66048 0.0482 0.72123 0.0
C224 C 0.66898 0.02728 0.71402 0.0
O225 O 0.72017 0.06462 0.64336 0.0
O226 O 0.77272 0.04951 0.7175 0.0
O227 O 0.75327 0.12986 0.65009 0.0
O228 O 0.78794 0.10026 0.63558 0.0
H229 H 0.87875 0.1135 0.69336 0.0
H230 H 0.9193 0.17613 0.64673 0.0
H231 H 0.78024 0.16198 0.60554 0.0
H232 H 0.67918 0.37566 0.31445 0.0
H233 H 0.64611 0.34733 0.44221 0.0
H234 H 0.60024 0.38013 0.26014 0.0
H235 H 0.56748 0.35073 0.38721 0.0
H236 H 0.42589 0.36716 0.2894 0.0
H237 H 0.50404 0.37378 0.34488 0.0
H238 H 0.54031 0.35614 0.21134 0.0
H239 H 0.46238 0.35057 0.15565 0.0
C240 C 0.65516 0.37067 0.33133 0.0
C241 C 0.6692 0.36092 0.38264 0.0
C242 C 0.60975 0.37297 0.29986 0.0
C243 C 0.57713 0.36558 0.31882 0.0
C244 C 0.59132 0.35682 0.37115 0.0
C245 C 0.63661 0.35459 0.40258 0.0
C246 C 0.45047 0.36532 0.27153 0.0
C247 C 0.43782 0.35807 0.2182 0.0
C248 C 0.49543 0.36882 0.30356 0.0
C249 C 0.52888 0.36518 0.28306 0.0
C250 C 0.51579 0.35927 0.22873 0.0
C251 C 0.47096 0.35583 0.1968 0.0
H252 H 0.44007 0.6074 0.69807 0.0
H253 H 0.44421 0.67339 0.76575 0.0
H254 H 0.51857 0.60158 0.75671 0.0
H255 H 0.52165 0.66771 0.82373 0.0
H256 H 0.64706 0.64613 0.95371 0.0
H257 H 0.56752 0.64429 0.90107 0.0
H258 H 0.59391 0.61865 0.76636 0.0
H259 H 0.67394 0.62065 0.81912 0.0
C260 C 0.45763 0.6205 0.72585 0.0
C261 C 0.43623 0.64087 0.72727 0.0
C262 C 0.5025 0.61725 0.75909 0.0
C263 C 0.52631 0.63415 0.79503 0.0
C264 C 0.50426 0.65423 0.79711 0.0
C265 C 0.45995 0.65756 0.7636 0.0
C266 C 0.63597 0.63989 0.91302 0.0
C267 C 0.66695 0.63387 0.89041 0.0
C268 C 0.59036 0.63883 0.88286 0.0
C269 C 0.57437 0.63164 0.82926 0.0
C270 C 0.60515 0.62417 0.80761 0.0
C271 C 0.65102 0.6253 0.83788 0.0
H272 H 0.93644 0.87064 0.26994 0.0
H273 H 0.97298 0.84408 0.14324 0.0
H274 H 1.01463 0.87582 0.32571 0.0
H275 H 1.0513 0.84828 0.2 0.0
H276 H 0.19081 0.8697 0.30318 0.0
H277 H 0.11252 0.8735 0.24484 0.0
H278 H 0.07454 0.85091 0.37391 0.0
H279 H 0.15247 0.84796 0.43247 0.0
C280 C 0.96109 0.86623 0.25358 0.0
C281 C 0.94831 0.8568 0.20212 0.0
C282 C 1.00603 0.86893 0.2859 0.0
C283 C 1.0394 0.86222 0.2677 0.0
C284 C 1.02659 0.85377 0.2153 0.0
C285 C 0.98163 0.85111 0.18292 0.0
C286 C 0.16571 0.86603 0.31938 0.0
C287 C 0.17791 0.8584 0.37242 0.0
C288 C 0.12082 0.86796 0.28576 0.0
C289 C 0.08711 0.86239 0.30447 0.0
C290 C 0.09945 0.85559 0.35816 0.0
C291 C 0.14421 0.85364 0.39165 0.0
H292 H 0.97695 0.15084 0.64581 0.0
H293 H 0.93994 0.12546 0.77333 0.0
H294 H 1.05525 0.14652 0.70287 0.0
H295 H 1.0181 0.12028 0.82955 0.0
H296 H 0.15701 0.14759 0.93498 0.0
H297 H 0.07886 0.14517 0.87671 0.0
H298 H 0.11559 0.12059 0.74841 0.0
H299 H 0.19408 0.12377 0.80643 0.0
C300 C 0.9855 0.14406 0.68577 0.0
C301 C 0.95207 0.13867 0.70504 0.0
C302 C 1.03043 0.14135 0.71833 0.0
C303 C 1.04308 0.13319 0.77103 0.0
C304 C 1.0096 0.12691 0.78947 0.0
C305 C 0.9647 0.12961 0.75692 0.0
C306 C 0.14842 0.14156 0.89442 0.0
C307 C 0.18183 0.13602 0.8753 0.0
C308 C 0.10354 0.13994 0.8611 0.0
C309 C 0.09082 0.13275 0.8077 0.0
C310 C 0.12421 0.12644 0.78911 0.0
C311 C 0.1692 0.12801 0.82257 0.0
H312 H 0.26897 0.20593 0.91532 0.0
H313 H 0.33034 0.17608 0.0719 0.0
H314 H 0.28567 0.2433 0.95448 0.0
H315 H 0.34492 0.21348 0.11224 0.0
H316 H 0.39615 0.28324 0.16733 0.0
H317 H 0.38616 0.24646 0.12573 0.0
H318 H 0.26311 0.26895 1.00322 0.0
H319 H 0.27528 0.30626 0.04194 0.0
C320 C 0.28585 0.2075 0.95833 0.0
C321 C 0.29829 0.18828 0.99077 0.0
C322 C 0.29512 0.22889 0.98096 0.0
C323 C 0.31625 0.2316 1.03678 0.0
C324 C 0.3292 0.21219 0.06909 0.0
C325 C 0.32066 0.19074 0.0462 0.0
C326 C 0.36747 0.28054 0.13079 0.0
C327 C 0.33662 0.2979 0.10803 0.0
C328 C 0.36129 0.25922 0.10739 0.0
C329 C 0.32371 0.25452 0.06104 0.0
C330 C 0.29289 0.27189 1.03833 0.0
C331 C 0.29947 0.29331 0.06117 0.0
H332 H 0.81855 0.31726 0.57161 0.0
H333 H 0.75355 0.28912 0.41399 0.0
H334 H 0.83494 0.27949 0.60956 0.0
H335 H 0.77227 0.25135 0.45059 0.0
H336 H 0.77583 0.18533 0.53425 0.0
H337 H 0.75666 0.2231 0.49906 0.0
H338 H 0.87832 0.24812 0.61951 0.0
H339 H 0.89501 0.21092 0.65794 0.0
C340 C 0.8083 0.30288 0.54514 0.0
C341 C 0.78471 0.30596 0.4901 0.0
C342 C 0.81793 0.2812 0.56665 0.0
C343 C 0.80507 0.26211 0.53332 0.0
C344 C 0.78191 0.26543 0.47794 0.0
C345 C 0.77147 0.28708 0.45673 0.0
C346 C 0.79816 0.19893 0.55386 0.0
C347 C 0.83715 0.19482 0.59898 0.0
C348 C 0.78752 0.22066 0.53302 0.0
C349 C 0.81596 0.23891 0.55604 0.0
C350 C 0.85507 0.23474 0.60093 0.0
C351 C 0.86521 0.21313 0.62242 0.0
H352 H 0.77246 0.8088 1.03478 0.0
H353 H 0.89261 0.78426 0.15891 0.0
H354 H 0.75446 0.77082 1.00073 0.0
H355 H 0.87702 0.74687 0.12168 0.0
H356 H 0.81861 0.67722 0.07574 0.0
H357 H 0.8346 0.71514 0.11262 0.0
H358 H 0.7712 0.74268 0.95293 0.0
H359 H 0.75297 0.70477 0.91742 0.0
C360 C 0.79523 0.79539 0.05474 0.0
C361 C 0.83419 0.79986 0.09956 0.0
C362 C 0.78527 0.77354 1.03456 0.0
C363 C 0.81435 0.75554 0.05802 0.0
C364 C 0.85334 0.76006 0.10275 0.0
C365 C 0.86282 0.78178 0.12355 0.0
C366 C 0.80823 0.69149 0.04887 0.0
C367 C 0.78451 0.68821 0.99396 0.0
C368 C 0.81757 0.71326 0.06976 0.0
C369 C 0.80422 0.73224 1.03593 0.0
C370 C 0.78116 0.7287 0.98065 0.0
C371 C 0.77104 0.70697 0.96006 0.0
H372 H 0.3599 0.68878 0.54919 0.0
H373 H 0.29883 0.70759 0.65978 0.0
H374 H 0.34699 0.7266 0.51081 0.0
H375 H 0.28848 0.74575 0.62461 0.0
H376 H 0.23429 0.80551 0.51695 0.0
H377 H 0.24719 0.76794 0.55389 0.0
H378 H 0.36829 0.76398 0.52304 0.0
H379 H 0.35288 0.80079 0.48105 0.0
C380 C 0.34391 0.70115 0.56533 0.0
C381 C 0.32979 0.69537 0.60677 0.0
C382 C 0.33692 0.7229 0.5439 0.0
C383 C 0.31659 0.73945 0.56442 0.0
C384 C 0.30318 0.7335 0.60665 0.0
C385 C 0.30928 0.71166 0.62713 0.0
C386 C 0.2634 0.79656 0.51731 0.0
C387 C 0.29221 0.80626 0.49531 0.0
C388 C 0.27128 0.77502 0.53948 0.0
C389 C 0.30885 0.76268 0.54162 0.0
C390 C 0.33852 0.77267 0.52127 0.0
C391 C 0.33013 0.79408 0.49805 0.0
H392 H 0.32703 0.51271 0.87508 0.0
H393 H 0.21948 0.54038 0.91268 0.0
H394 H 0.34814 0.48881 0.9552 0.0
H395 H 0.24059 0.51679 0.99224 0.0
H396 H 0.29583 0.47923 0.14647 0.0
H397 H 0.29913 0.5079 0.08263 0.0
H398 H 0.30894 0.45572 0.97658 0.0
H399 H 0.30469 0.42728 0.0398 0.0
C400 C 0.30853 0.51406 0.90099 0.0
C401 C 0.27144 0.52836 0.88728 0.0
C402 C 0.32049 0.50031 0.94674 0.0
C403 C 0.2961 0.50089 0.98026 0.0
C404 C 0.26051 0.51609 0.9679 0.0
C405 C 0.24819 0.52952 0.92192 0.0
C406 C 0.30079 0.47398 0.11068 0.0
C407 C 0.30072 0.45104 0.09845 0.0
C408 C 0.30204 0.49037 0.07372 0.0
C409 C 0.30405 0.48412 1.02427 0.0
C410 C 0.30789 0.46118 1.01439 0.0
C411 C 0.3057 0.44485 0.05076 0.0
H412 H 0.8918 0.55605 0.61795 0.0
H413 H 0.86282 0.50434 0.71257 0.0
H414 H 0.88175 0.52898 0.54666 0.0
H415 H 0.85267 0.47716 0.64088 0.0
H416 H 0.91173 0.43379 0.53577 0.0
H417 H 0.90333 0.45866 0.60326 0.0
H418 H 0.82731 0.5049 0.47886 0.0
H419 H 0.83608 0.48019 0.41151 0.0
C420 C 0.88253 0.53899 0.6232 0.0
C421 C 0.87823 0.5324 0.67108 0.0
C422 C 0.87654 0.52345 0.58214 0.0
C423 C 0.86648 0.50084 0.58803 0.0
C424 C 0.86073 0.49439 0.63522 0.0
C425 C 0.86623 0.51003 0.67613 0.0
C426 C 0.89246 0.44902 0.5227 0.0
C427 C 0.87523 0.45512 0.46824 0.0
C428 C 0.88749 0.46328 0.56143 0.0
C429 C 0.86525 0.48398 0.54656 0.0
C430 C 0.84535 0.48929 0.49176 0.0
C431 C 0.85013 0.475 0.45309 0.0
H432 H 0.90509 0.4384 0.11821 0.0
H433 H 0.84227 0.48328 0.19393 0.0
H434 H 0.89294 0.46569 0.04636 0.0
H435 H 0.83102 0.51092 0.12235 0.0
H436 H 0.903 0.55967 1.03372 0.0
H437 H 0.89074 0.53386 0.09767 0.0
H438 H 0.82957 0.48629 0.97041 0.0
H439 H 0.84137 0.51195 0.90663 0.0
C440 C 0.88774 0.45389 0.11877 0.0
C441 C 0.8744 0.45864 0.16144 0.0
C442 C 0.88077 0.46951 0.07768 0.0
C443 C 0.86112 0.49045 0.07891 0.0
C444 C 0.84628 0.49493 0.12054 0.0
C445 C 0.85237 0.47903 0.16114 0.0
C446 C 0.88588 0.54399 1.01917 0.0
C447 C 0.87399 0.53771 0.96531 0.0
C448 C 0.87872 0.52924 0.05574 0.0
C449 C 0.85981 0.50794 1.03902 0.0
C450 C 0.84471 0.50248 0.98445 0.0
C451 C 0.85141 0.51726 0.94794 0.0
H452 H 0.19689 0.52931 0.55293 0.0
H453 H 0.33934 0.53755 0.61675 0.0
H454 H 0.20165 0.5023 0.48911 0.0
H455 H 0.34452 0.50964 0.55145 0.0
H456 H 0.31264 0.48582 0.36938 0.0
H457 H 0.32373 0.50675 0.45204 0.0
H458 H 0.22409 0.46556 0.47778 0.0
H459 H 0.21187 0.44564 0.39484 0.0
C460 C 0.22961 0.52489 0.55418 0.0
C461 C 0.26777 0.53552 0.59033 0.0
C462 C 0.23238 0.50921 0.51741 0.0
C463 C 0.27352 0.50353 0.51497 0.0
C464 C 0.31225 0.51365 0.55213 0.0
C465 C 0.30943 0.52941 0.5899 0.0
C466 C 0.29384 0.48104 0.39342 0.0
C467 C 0.26084 0.46437 0.37517 0.0
C468 C 0.30029 0.49296 0.44092 0.0
C469 C 0.27419 0.4882 0.47122 0.0
C470 C 0.24399 0.47017 0.45491 0.0
C471 C 0.23705 0.45865 0.40735 0.0
H472 H 0.77903 0.98549 0.18377 0.0
H473 H 0.75712 0.93324 0.0656 0.0
H474 H 0.78096 0.01352 0.11816 0.0
H475 H 0.76083 0.96128 1.00068 0.0
H476 H 0.80351 0.02069 0.91509 0.0
H477 H 0.82039 0.9955 0.99256 0.0
H478 H 0.70735 0.0215 1.02087 0.0
H479 H 0.68953 0.04608 0.94263 0.0
C480 C 0.77655 0.97985 0.14456 0.0
C481 C 0.76854 0.95709 0.13 0.0
C482 C 0.7773 0.99594 0.10697 0.0
C483 C 0.7713 0.9895 0.05464 0.0
C484 C 0.76611 0.9666 0.04104 0.0
C485 C 0.76414 0.95058 0.07817 0.0
C486 C 0.78301 0.02144 0.93874 0.0
C487 C 0.74532 0.03541 0.92302 0.0
C488 C 0.7925 0.00694 0.98272 0.0
C489 C 0.76519 0.00665 1.01253 0.0
C490 C 0.72912 0.02157 0.99876 0.0
C491 C 0.71897 0.03562 0.95407 0.0
H492 H 0.33778 0.01259 0.68009 0.0
H493 H 0.4174 0.05262 0.61654 0.0
H494 H 0.32193 0.98619 0.60536 0.0
H495 H 0.40035 0.02666 0.54115 0.0
H496 H 0.33736 0.98278 0.39453 0.0
H497 H 0.32943 0.00941 0.45916 0.0
H498 H 0.38417 0.96053 0.58534 0.0
H499 H 0.39331 0.93397 0.5211 0.0
C500 C 0.35061 0.01616 0.64921 0.0
C501 C 0.37877 0.03467 0.65396 0.0
C502 C 0.34176 0.00099 0.60676 0.0
C503 C 0.3599 0.00445 0.56765 0.0
C504 C 0.38563 0.02375 0.57056 0.0
C505 C 0.39541 0.03857 0.61366 0.0
C506 C 0.34656 0.97741 0.43572 0.0
C507 C 0.36633 0.95628 0.45278 0.0
C508 C 0.34216 0.99274 0.47268 0.0
C509 C 0.35639 0.98702 0.5271 0.0
C510 C 0.37269 0.96527 0.54347 0.0
C511 C 0.37797 0.95009 0.50671 0.0
H512 H 0.46635 0.96243 0.16735 0.0
H513 H 0.32842 0.96139 0.14964 0.0
H514 H 0.44842 0.98898 0.09361 0.0
H515 H 0.31051 0.98788 0.07412 0.0
H516 H 0.33199 0.01355 0.9026 0.0
H517 H 0.32894 0.98766 0.97193 0.0
H518 H 0.41016 0.03307 0.09418 0.0
H519 H 0.4126 0.05912 1.02554 0.0
C520 C 0.43203 0.96753 0.14719 0.0
C521 C 0.39888 0.95995 0.16483 0.0
C522 C 0.4219 0.98282 0.10512 0.0
C523 C 0.37832 0.99064 0.0791 0.0
C524 C 0.34441 0.98212 0.09408 0.0
C525 C 0.35468 0.96694 0.137 0.0
C526 C 0.34778 0.01842 0.94422 0.0
C527 C 0.37341 0.03819 0.95863 0.0
C528 C 0.34599 0.00358 0.98377 0.0
C529 C 0.36984 0.00834 1.03803 0.0
C530 C 0.39177 0.02904 0.05242 0.0
C531 C 0.39318 0.04392 1.01309 0.0
H532 H 0.79983 0.97429 0.41333 0.0
H533 H 0.6829 0.95138 0.43801 0.0
H534 H 0.81828 -0.00114 0.49183 0.0
H535 H 0.70226 0.97535 0.51734 0.0
H536 H 0.7763 0.00905 0.68245 0.0
H537 H 0.77567 0.98123 0.61538 0.0
H538 H 0.7625 0.03436 0.50145 0.0
H539 H 0.76138 0.06222 0.56782 0.0
C540 C 0.77888 0.97397 0.43646 0.0
C541 C 0.73998 0.96088 0.41967 0.0
C542 C 0.78931 0.98812 0.48107 0.0
C543 C 0.76172 0.98891 0.51047 0.0
C544 C 0.72425 0.97487 0.49553 0.0
C545 C 0.7132 0.96119 0.45019 0.0
C546 C 0.77485 0.01488 0.64374 0.0
C547 C 0.76956 0.03787 0.63057 0.0
C548 C 0.77409 -0.00108 0.6053 0.0
C549 C 0.76925 0.00571 0.55351 0.0
C550 C 0.76682 0.02876 0.54136 0.0
C551 C 0.76635 0.04468 0.57933 0.0
H552 H 1.06235 0.57173 0.95953 0.0
H553 H 1.05177 0.52126 0.84085 0.0
H554 H 0.12753 0.55321 1.02252 0.0
H555 H 0.11738 0.50228 0.9044 0.0
H556 H 0.12499 0.45976 0.05707 0.0
H557 H 0.09915 0.4837 0.97809 0.0
H558 H 0.19987 0.53278 0.06026 0.0
H559 H 0.22606 0.50851 0.13946 0.0
C560 C 0.07589 0.55744 0.94592 0.0
C561 C 1.05216 0.54756 0.89622 0.0
C562 C 0.11329 0.54679 0.98199 0.0
C563 C 0.12634 0.52589 0.96881 0.0
C564 C 0.1072 0.51819 0.91563 0.0
C565 C 0.06994 0.52907 0.87922 0.0
C566 C 0.1418 0.47556 0.05799 0.0
C567 C 0.17701 0.48245 0.10423 0.0
C568 C 0.12765 0.4891 1.01254 0.0
C569 C 0.14824 0.5099 1.0127 0.0
C570 C 0.18381 0.51672 0.05898 0.0
C571 C 0.19815 0.50306 0.10444 0.0
H572 H 0.09834 0.53653 0.60092 0.0
H573 H 0.20564 0.48831 0.64788 0.0
H574 H 1.06338 0.51731 0.51596 0.0
H575 H 0.17187 0.46957 0.56142 0.0
H576 H 1.05518 0.43116 0.42623 0.0
H577 H 0.10991 0.44772 0.50632 0.0
H578 H 0.0764 0.51375 0.43504 0.0
H579 H 1.01906 0.49714 0.35679 0.0
C580 C 0.11389 0.52152 0.59325 0.0
C581 C 0.15438 0.51381 0.6305 0.0
C582 C 0.09462 0.51085 0.54416 0.0
C583 C 0.11596 0.4925 0.53118 0.0
C584 C 0.15496 0.48381 0.57012 0.0
C585 C 0.17394 0.49434 0.61977 0.0
C586 C 1.06101 0.44911 0.42685 0.0
C587 C 1.03245 0.4631 0.3867 0.0
C588 C 0.09228 0.45862 0.47281 0.0
C589 C 0.09566 0.4821 0.47783 0.0
C590 C 0.07278 0.49564 0.43306 0.0
C591 C 1.04056 0.48619 0.38799 0.0
H592 H 0.50426 0.98856 0.87906 0.0
H593 H 0.55476 0.05531 0.92917 0.0
H594 H 0.55246 0.97373 0.96592 0.0
H595 H 0.6005 0.04097 1.01698 0.0
H596 H 0.69132 0.00497 0.16714 0.0
H597 H 0.65722 0.01946 0.07686 0.0
H598 H 0.54389 0.976 0.0492 0.0
H599 H 0.57991 0.96031 0.13892 0.0
C600 C 0.52683 -0.00012 0.90818 0.0
C601 C 0.52556 0.02301 0.89818 0.0
C602 C 0.55363 0.99154 0.95823 0.0
C603 C 0.57861 0.00634 0.99913 0.0
C604 C 0.58135 0.02911 0.98664 0.0
C605 C 0.55535 0.03734 0.93611 0.0
C606 C 0.65866 -0.00117 0.14215 0.0
C607 C 0.63824 0.98141 0.15968 0.0
C608 C 0.63923 0.00708 0.09019 0.0
C609 C 0.59845 -0.00156 0.05523 0.0
C610 C 0.57624 0.98237 0.07449 0.0
C611 C 0.59621 0.97375 0.12623 0.0
H612 H 0.5012 0.00306 0.39243 0.0
H613 H 0.55276 0.93663 0.44516 0.0
H614 H 0.54825 0.01829 0.47925 0.0
H615 H 0.59736 0.95137 0.5329 0.0
H616 H 0.69266 0.98938 0.67698 0.0
H617 H 0.65516 0.97336 0.58901 0.0
H618 H 0.54242 0.01693 0.56414 0.0
H619 H 0.58189 0.03424 0.65125 0.0
C620 C 0.52354 0.99188 0.42227 0.0
C621 C 0.52328 0.96876 0.41279 0.0
C622 C 0.5497 0.00045 0.47225 0.0
C623 C 0.57506 0.98588 0.5136 0.0
C624 C 0.57803 0.96305 0.50209 0.0
C625 C 0.55267 0.95459 0.45168 0.0
C626 C 0.65941 0.9952 0.65323 0.0
C627 C 0.64018 0.0132 0.67042 0.0
C628 C 0.63797 0.98604 0.60263 0.0
C629 C 0.59634 0.99428 0.56897 0.0
C630 C 0.57529 0.01083 0.58842 0.0
C631 C 0.59729 0.02039 0.63868 0.0
H632 H 0.97376 0.37039 0.66375 0.0
H633 H 1.05202 0.4275 0.65318 0.0
H634 H 1.01334 0.37 0.76167 0.0
H635 H 0.09105 0.42705 0.7497 0.0
H636 H 0.1127 0.43873 0.92346 0.0
H637 H 0.07257 0.43586 0.82747 0.0
H638 H 0.0898 0.36388 0.83666 0.0
H639 H 0.13048 0.36673 0.93419 0.0
C640 C 0.99939 0.38279 0.6821 0.0
C641 C 1.00935 0.39905 0.65024 0.0
C642 C 1.02227 0.38249 0.73824 0.0
C643 C 1.05524 0.39863 0.76391 0.0
C644 C 1.06547 0.41458 0.73173 0.0
C645 C 1.04306 0.41475 0.67602 0.0
C646 C 0.10809 0.42219 0.90544 0.0
C647 C 0.12528 0.40296 0.93702 0.0
C648 C 0.0851 0.42058 0.84999 0.0
C649 C 0.07815 0.39966 0.82386 0.0
C650 C 0.09436 0.38026 0.85537 0.0
C651 C 0.11789 0.38191 0.91127 0.0
H652 H 0.09055 0.55827 0.43523 0.0
H653 H 0.12819 0.62796 0.43751 0.0
H654 H 1.05232 0.55995 0.33863 0.0
H655 H 0.08919 0.62964 0.33949 0.0
H656 H 0.97265 0.62527 0.16623 0.0
H657 H 1.01097 0.62667 0.2643 0.0
H658 H 0.07448 0.56338 0.26076 0.0
H659 H 1.03684 0.56199 0.16397 0.0
C660 C 0.09061 0.57406 0.41523 0.0
C661 C 0.11278 0.59297 0.44464 0.0
C662 C 1.06872 0.57497 0.35946 0.0
C663 C 1.06776 0.59488 0.33086 0.0
C664 C 0.08905 0.61404 0.36015 0.0
C665 C 0.1116 0.61305 0.41633 0.0
C666 C 0.99487 0.6117 0.18645 0.0
C667 C 1.00134 0.59347 0.15684 0.0
C668 C 1.01705 0.61256 0.24267 0.0
C669 C 1.04569 0.59506 0.27074 0.0
C670 C 1.05231 0.57703 0.24087 0.0
C671 C 1.03072 0.57629 0.18502 0.0
H672 H 0.60827 0.94304 0.92544 0.0
H673 H 0.64241 0.87294 0.92504 0.0
H674 H 0.56699 0.9417 0.82922 0.0
H675 H 0.60102 0.87165 0.8278 0.0
H676 H 0.48351 0.87444 0.65974 0.0
H677 H 0.52472 0.8739 0.75711 0.0
H678 H 0.58109 0.93867 0.74749 0.0
H679 H 0.54006 0.9393 0.65122 0.0
C680 C 0.60715 0.92729 0.90486 0.0
C681 C 0.62902 0.90811 0.93334 0.0
C682 C 0.58351 0.92656 0.84935 0.0
C683 C 0.58071 0.9066 0.82028 0.0
C684 C 0.60212 0.88729 0.84876 0.0
C685 C 0.62614 0.88806 0.90453 0.0
C686 C 0.5047 0.88855 0.67847 0.0
C687 C 0.50815 0.90695 0.64735 0.0
C688 C 0.52857 0.88818 0.73432 0.0
C689 C 0.55618 0.9063 0.76054 0.0
C690 C 0.55972 0.92456 0.72914 0.0
C691 C 0.53622 0.92486 0.67359 0.0
H692 H 0.48553 0.11886 0.15963 0.0
H693 H 0.55479 0.05814 0.14994 0.0
H694 H 0.52622 0.11947 0.25711 0.0
H695 H 0.59521 0.05883 0.24636 0.0
H696 H 0.62117 0.05145 0.42375 0.0
H697 H 0.58061 0.05285 0.32737 0.0
H698 H 0.60203 0.12446 0.3287 0.0
H699 H 0.6428 0.12309 0.42611 0.0
C700 C 0.50942 0.10568 0.17812 0.0
C701 C 0.5166 0.08841 0.14663 0.0
C702 C 0.53297 0.1061 0.23405 0.0
C703 C 0.56396 0.08912 0.25997 0.0
C704 C 0.57123 0.07201 0.22822 0.0
C705 C 0.54808 0.0717 0.17258 0.0
C706 C 0.61742 0.06756 0.40375 0.0
C707 C 0.63559 0.08715 0.43306 0.0
C708 C 0.59422 0.06833 0.34815 0.0
C709 C 0.58809 0.08875 0.3198 0.0
C710 C 0.60578 0.10845 0.34909 0.0
C711 C 0.62944 0.10765 0.40496 0.0
H712 H 0.08911 0.38495 0.1606 0.0
H713 H 0.18253 0.40834 0.31299 0.0
H714 H 1.03428 0.3784 0.20052 0.0
H715 H 0.12707 0.40345 0.35197 0.0
H716 H 1.03237 0.37995 0.42539 0.0
H717 H 0.08738 0.37989 0.38432 0.0
H718 H 0.98407 0.39485 0.23066 0.0
H719 H 0.92888 0.39344 0.27178 0.0
C720 C 0.09797 0.38883 0.20259 0.0
C721 C 0.14035 0.3974 0.23325 0.0
C722 C 1.06621 0.38527 0.22555 0.0
C723 C 0.07557 0.39047 0.27979 0.0
C724 C 0.1183 0.39878 0.31046 0.0
C725 C 0.15024 0.40193 0.28776 0.0
C726 C 1.02134 0.38288 0.38267 0.0
C727 C 0.97634 0.38724 0.35207 0.0
C728 C 1.05309 0.38318 0.35903 0.0
C729 C 1.04088 0.38794 0.30401 0.0
C730 C 0.99528 0.39106 0.27298 0.0
C731 C 0.96345 0.39046 0.29659 0.0
H732 H 0.18592 0.58671 0.82631 0.0
H733 H 0.09664 0.61705 0.67959 0.0
H734 H 0.13043 0.59153 0.86597 0.0
H735 H 1.0425 0.62333 0.72016 0.0
H736 H 0.93317 0.60443 0.7799 0.0
H737 H 0.9908 0.60379 0.74297 0.0
H738 H 0.09041 0.61506 0.90122 0.0
H739 H 1.03239 0.61458 0.93819 0.0
C740 C 0.15471 0.59466 0.80266 0.0
C741 C 0.14553 0.60098 0.74924 0.0
C742 C 0.12289 0.59769 0.82568 0.0
C743 C 0.08134 0.60759 0.79625 0.0
C744 C 0.07335 0.61503 0.7438 0.0
C745 C 0.10475 0.61161 0.72055 0.0
C746 C 0.9674 0.60681 0.80672 0.0
C747 C 0.97828 0.60902 0.86204 0.0
C748 C 1.00062 0.6067 0.7855 0.0
C749 C 1.04576 0.60922 0.81894 0.0
C750 C 1.05632 0.61256 0.87417 0.0
C751 C 1.02296 0.61254 0.89541 0.0
H752 H 0.43474 0.8988 0.27207 0.0
H753 H 0.53825 0.88127 0.42305 0.0
H754 H 0.48924 0.90044 0.23024 0.0
H755 H 0.5927 0.88186 0.38089 0.0
H756 H 0.68781 0.90672 0.30473 0.0
H757 H 0.63286 0.90587 0.34634 0.0
H758 H 0.53539 0.87966 0.1994 0.0
H759 H 0.58952 0.88188 0.15738 0.0
C760 C 0.46915 0.89507 0.29619 0.0
C761 C 0.4822 0.89019 0.35099 0.0
C762 C 0.5005 0.89584 0.27213 0.0
C763 C 0.54575 0.89144 0.30207 0.0
C764 C 0.55847 0.88586 0.35665 0.0
C765 C 0.5271 0.88523 0.38078 0.0
C766 C 0.65435 0.90125 0.28114 0.0
C767 C 0.64289 0.89481 0.22751 0.0
C768 C 0.62293 0.90037 0.30521 0.0
C769 C 0.57935 0.89268 0.27643 0.0
C770 C 0.56816 0.8861 0.22276 0.0
C771 C 0.59941 0.88723 0.19864 0.0
H772 H 0.53993 0.10988 0.92191 0.0
H773 H 0.43651 0.09461 0.76938 0.0
H774 H 0.59449 0.11044 0.88023 0.0
H775 H 0.49137 0.09372 0.72782 0.0
H776 H 0.59255 0.11302 0.65697 0.0
H777 H 0.5378 0.11429 0.69814 0.0
H778 H 0.63549 0.08822 0.84543 0.0
H779 H 0.69102 0.08862 0.80486 0.0
C780 C 0.52888 0.10654 0.87938 0.0
C781 C 0.48398 0.10185 0.84903 0.0
C782 C 0.56034 0.10655 0.85547 0.0
C783 C 0.54782 0.1018 0.80054 0.0
C784 C 0.50254 0.09765 0.77004 0.0
C785 C 0.471 0.09792 0.7939 0.0
C786 C 0.60235 0.10754 0.69816 0.0
C787 C 0.64604 0.10033 0.72743 0.0
C788 C 0.57072 0.10808 0.72178 0.0
C789 C 0.58173 0.10122 0.77528 0.0
C790 C 0.62559 0.09394 0.80443 0.0
C791 C 0.65739 0.09376 0.78095 0.0
loop_
_geom_bond_atom_site_label_1
_geom_bond_atom_site_label_2
_geom_bond_distance
_geom_bond_site_symmetry_2
_ccdc_geom_bond_type
O0 Tb1 2.292 . S
O0 C3 1.255 . S
Tb1 O0 2.292 . S
Tb1 O17 2.326 . S
Tb1 O19 2.500 . S
Tb1 O20 2.473 . S
Tb1 O23 2.324 . S
Eu2 O6 2.292 1_554 S
Eu2 C7 2.852 . S
Eu2 O18 2.324 . S
Eu2 O22 2.326 . S
Eu2 O24 2.500 . S
Eu2 O25 2.473 . S
C3 O0 1.255 . S
C3 O4 1.247 . S
O4 C3 1.247 . S
C5 O17 1.242 . S
C5 O18 1.258 . S
O6 Eu2 2.292 1_556 S
O6 C8 1.255 . S
C7 Eu2 2.852 . S
C7 C11 1.503 . S
C7 O24 1.273 . S
C7 O25 1.257 . S
C8 O6 1.255 . S
C8 O9 1.247 . S
O9 C8 1.247 . S
C10 O22 1.242 . S
C10 O23 1.258 . S
C11 C7 1.503 . S
C11 C12 1.379 . S
C11 C16 1.392 . S
C12 C11 1.379 . S
C12 C13 1.404 . S
C12 H26 0.929 . S
C13 C12 1.404 . S
C13 C14 1.389 . S
C14 C13 1.389 . S
C14 C15 1.399 . S
C14 H27 0.931 . S
C15 C14 1.399 . S
C15 C16 1.390 . S
C16 C11 1.392 . S
C16 C15 1.390 . S
C16 H28 0.929 . S
O17 Tb1 2.326 . S
O17 C5 1.242 . S
O18 Eu2 2.324 . S
O18 C5 1.258 . S
O19 Tb1 2.500 . S
O19 C21 1.273 . S
O20 Tb1 2.473 . S
O20 C21 1.257 . S
C21 O19 1.273 . S
C21 O20 1.257 . S
O22 Eu2 2.326 . S
O22 C10 1.242 . S
O23 Tb1 2.324 . S
O23 C10 1.258 . S
O24 Eu2 2.500 . S
O24 C7 1.273 . S
O25 Eu2 2.473 . S
O25 C7 1.257 . S
H26 C12 0.929 . S
H27 C14 0.931 . S
H28 C16 0.929 . S
O29 Tb30 2.292 . S
O29 C32 1.255 . S
Tb30 O29 2.292 . S
Tb30 O46 2.326 . S
Tb30 O48 2.500 . S
Tb30 O49 2.473 . S
Tb30 O52 2.324 . S
Eu31 O35 2.292 . S
Eu31 C36 2.852 . S
Eu31 O47 2.324 . S
Eu31 O51 2.326 . S
Eu31 O53 2.500 . S
Eu31 O54 2.473 . S
C32 O29 1.255 . S
C32 O33 1.247 . S
O33 C32 1.247 . S
C34 O46 1.242 . S
C34 O47 1.258 . S
O35 Eu31 2.292 . S
O35 C37 1.255 . S
C36 Eu31 2.852 . S
C36 C40 1.503 . S
C36 O53 1.273 . S
C36 O54 1.257 . S
C37 O35 1.255 . S
C37 O38 1.247 . S
O38 C37 1.247 . S
C39 O51 1.242 . S
C39 O52 1.258 . S
C40 C36 1.503 . S
C40 C41 1.379 . S
C40 C45 1.392 . S
C41 C40 1.379 . S
C41 C42 1.404 . S
C41 H55 0.929 . S
C42 C41 1.404 . S
C42 C43 1.389 . S
C43 C42 1.389 . S
C43 C44 1.399 . S
C43 H56 0.931 . S
C44 C43 1.399 . S
C44 C45 1.390 . S
C45 C40 1.392 . S
C45 C44 1.390 . S
C45 H57 0.929 . S
O46 Tb30 2.326 . S
O46 C34 1.242 . S
O47 Eu31 2.324 . S
O47 C34 1.258 . S
O48 Tb30 2.500 . S
O48 C50 1.273 . S
O49 Tb30 2.473 . S
O49 C50 1.257 . S
C50 O48 1.273 . S
C50 O49 1.257 . S
O51 Eu31 2.326 . S
O51 C39 1.242 . S
O52 Tb30 2.324 . S
O52 C39 1.258 . S
O53 Eu31 2.500 . S
O53 C36 1.273 . S
O54 Eu31 2.473 . S
O54 C36 1.257 . S
H55 C41 0.929 . S
H56 C43 0.931 . S
H57 C45 0.929 . S
O58 Tb59 2.292 . S
O58 C61 1.255 . S
Tb59 O58 2.292 . S
Tb59 O75 2.326 . S
Tb59 O77 2.500 . S
Tb59 O78 2.473 . S
Tb59 O81 2.324 . S
Eu60 O64 2.292 1_556 S
Eu60 C65 2.852 . S
Eu60 O76 2.324 . S
Eu60 O80 2.326 . S
Eu60 O82 2.500 . S
Eu60 O83 2.473 . S
C61 O58 1.255 . S
C61 O62 1.247 . S
O62 C61 1.247 . S
C63 O75 1.242 . S
C63 O76 1.258 . S
O64 Eu60 2.292 1_554 S
O64 C66 1.255 . S
C65 Eu60 2.852 . S
C65 C69 1.503 . S
C65 O82 1.273 . S
C65 O83 1.257 . S
C66 O64 1.255 . S
C66 O67 1.247 . S
O67 C66 1.247 . S
C68 O80 1.242 . S
C68 O81 1.258 . S
C69 C65 1.503 . S
C69 C70 1.379 . S
C69 C74 1.392 . S
C70 C69 1.379 . S
C70 C71 1.404 . S
C70 H84 0.929 . S
C71 C70 1.404 . S
C71 C72 1.389 . S
C72 C71 1.389 . S
C72 C73 1.399 . S
C72 H85 0.931 . S
C73 C72 1.399 . S
C73 C74 1.390 . S
C74 C69 1.392 . S
C74 C73 1.390 . S
C74 H86 0.929 . S
O75 Tb59 2.326 . S
O75 C63 1.242 . S
O76 Eu60 2.324 . S
O76 C63 1.258 . S
O77 Tb59 2.500 . S
O77 C79 1.273 . S
O78 Tb59 2.473 . S
O78 C79 1.257 . S
C79 O77 1.273 . S
C79 O78 1.257 . S
O80 Eu60 2.326 . S
O80 C68 1.242 . S
O81 Tb59 2.324 . S
O81 C68 1.258 . S
O82 Eu60 2.500 . S
O82 C65 1.273 . S
O83 Eu60 2.473 . S
O83 C65 1.257 . S
H84 C70 0.929 . S
H85 C72 0.931 . S
H86 C74 0.929 . S
O87 Tb88 2.292 . S
O87 C90 1.255 . S
Tb88 O87 2.292 . S
Tb88 O104 2.326 . S
Tb88 O106 2.500 . S
Tb88 O107 2.473 . S
Tb88 O110 2.324 . S
Eu89 O93 2.292 . S
Eu89 C94 2.852 . S
Eu89 O105 2.324 . S
Eu89 O109 2.326 . S
Eu89 O111 2.500 . S
Eu89 O112 2.473 . S
C90 O87 1.255 . S
C90 O91 1.247 . S
O91 C90 1.247 . S
C92 O104 1.242 . S
C92 O105 1.258 . S
O93 Eu89 2.292 . S
O93 C95 1.255 . S
C94 Eu89 2.852 . S
C94 C98 1.503 . S
C94 O111 1.273 . S
C94 O112 1.257 . S
C95 O93 1.255 . S
C95 O96 1.247 . S
O96 C95 1.247 . S
C97 O109 1.242 . S
C97 O110 1.258 . S
C98 C94 1.503 . S
C98 C99 1.379 . S
C98 C103 1.392 . S
C99 C98 1.379 . S
C99 C100 1.404 . S
C99 H113 0.929 . S
C100 C99 1.404 . S
C100 C101 1.389 . S
C101 C100 1.389 . S
C101 C102 1.399 . S
C101 H114 0.931 . S
C102 C101 1.399 . S
C102 C103 1.390 . S
C103 C98 1.392 . S
C103 C102 1.390 . S
C103 H115 0.929 . S
O104 Tb88 2.326 . S
O104 C92 1.242 . S
O105 Eu89 2.324 . S
O105 C92 1.258 . S
O106 Tb88 2.500 . S
O106 C108 1.273 . S
O107 Tb88 2.473 . S
O107 C108 1.257 . S
C108 O106 1.273 . S
C108 O107 1.257 . S
O109 Eu89 2.326 . S
O109 C97 1.242 . S
O110 Tb88 2.324 . S
O110 C97 1.258 . S
O111 Eu89 2.500 . S
O111 C94 1.273 . S
O112 Eu89 2.473 . S
O112 C94 1.257 . S
H113 C99 0.929 . S
H114 C101 0.931 . S
H115 C103 0.929 . S
O116 Tb117 2.292 . S
O116 C119 1.255 . S
Tb117 O116 2.292 . S
Tb117 O133 2.326 . S
Tb117 O135 2.500 . S
Tb117 O136 2.473 . S
Tb117 O139 2.324 . S
Eu118 O122 2.292 1_554 S
Eu118 C123 2.852 . S
Eu118 O134 2.324 . S
Eu118 O138 2.326 . S
Eu118 O140 2.500 . S
Eu118 O141 2.473 . S
C119 O116 1.255 . S
C119 O120 1.247 . S
O120 C119 1.247 . S
C121 O133 1.242 . S
C121 O134 1.258 . S
O122 Eu118 2.292 1_556 S
O122 C124 1.255 . S
C123 Eu118 2.852 . S
C123 C127 1.503 . S
C123 O140 1.273 . S
C123 O141 1.257 . S
C124 O122 1.255 . S
C124 O125 1.247 . S
O125 C124 1.247 . S
C126 O138 1.242 . S
C126 O139 1.258 . S
C127 C123 1.503 . S
C127 C128 1.379 . S
C127 C132 1.392 . S
C128 C127 1.379 . S
C128 C129 1.404 . S
C128 H142 0.929 . S
C129 C128 1.404 . S
C129 C130 1.389 . S
C130 C129 1.389 . S
C130 C131 1.399 . S
C130 H143 0.931 . S
C131 C130 1.399 . S
C131 C132 1.390 . S
C132 C127 1.392 . S
C132 C131 1.390 . S
C132 H144 0.929 . S
O133 Tb117 2.326 . S
O133 C121 1.242 . S
O134 Eu118 2.324 . S
O134 C121 1.258 . S
O135 Tb117 2.500 . S
O135 C137 1.273 . S
O136 Tb117 2.473 . S
O136 C137 1.257 . S
C137 O135 1.273 . S
C137 O136 1.257 . S
O138 Eu118 2.326 . S
O138 C126 1.242 . S
O139 Tb117 2.324 . S
O139 C126 1.258 . S
O140 Eu118 2.500 . S
O140 C123 1.273 . S
O141 Eu118 2.473 . S
O141 C123 1.257 . S
H142 C128 0.929 . S
H143 C130 0.931 . S
H144 C132 0.929 . S
O145 Tb146 2.292 . S
O145 C148 1.255 . S
Tb146 O145 2.292 . S
Tb146 O162 2.326 . S
Tb146 O164 2.500 . S
Tb146 O165 2.473 . S
Tb146 O168 2.324 . S
Eu147 O151 2.292 . S
Eu147 C152 2.852 . S
Eu147 O163 2.324 . S
Eu147 O167 2.326 . S
Eu147 O169 2.500 . S
Eu147 O170 2.473 . S
C148 O145 1.255 . S
C148 O149 1.247 . S
O149 C148 1.247 . S
C150 O162 1.242 . S
C150 O163 1.258 . S
O151 Eu147 2.292 . S
O151 C153 1.255 . S
C152 Eu147 2.852 . S
C152 C156 1.503 . S
C152 O169 1.273 . S
C152 O170 1.257 . S
C153 O151 1.255 . S
C153 O154 1.247 . S
O154 C153 1.247 . S
C155 O167 1.242 . S
C155 O168 1.258 . S
C156 C152 1.503 . S
C156 C157 1.379 . S
C156 C161 1.392 . S
C157 C156 1.379 . S
C157 C158 1.404 . S
C157 H171 0.929 . S
C158 C157 1.404 . S
C158 C159 1.389 . S
C159 C158 1.389 . S
C159 C160 1.399 . S
C159 H172 0.931 . S
C160 C159 1.399 . S
C160 C161 1.390 . S
C161 C156 1.392 . S
C161 C160 1.390 . S
C161 H173 0.929 . S
O162 Tb146 2.326 . S
O162 C150 1.242 . S
O163 Eu147 2.324 . S
O163 C150 1.258 . S
O164 Tb146 2.500 . S
O164 C166 1.273 . S
O165 Tb146 2.473 . S
O165 C166 1.257 . S
C166 O164 1.273 . S
C166 O165 1.257 . S
O167 Eu147 2.326 . S
O167 C155 1.242 . S
O168 Tb146 2.324 . S
O168 C155 1.258 . S
O169 Eu147 2.500 . S
O169 C152 1.273 . S
O170 Eu147 2.473 . S
O170 C152 1.257 . S
H171 C157 0.929 . S
H172 C159 0.931 . S
H173 C161 0.929 . S
O174 Tb175 2.292 . S
O174 C177 1.255 . S
Tb175 O174 2.292 . S
Tb175 O191 2.326 . S
Tb175 O193 2.500 . S
Tb175 O194 2.473 . S
Tb175 O197 2.324 . S
Eu176 O180 2.292 1_556 S
Eu176 C181 2.852 . S
Eu176 O192 2.324 . S
Eu176 O196 2.326 . S
Eu176 O198 2.500 . S
Eu176 O199 2.473 . S
C177 O174 1.255 . S
C177 O178 1.247 . S
O178 C177 1.247 . S
C179 O191 1.242 . S
C179 O192 1.258 . S
O180 Eu176 2.292 1_554 S
O180 C182 1.255 . S
C181 Eu176 2.852 . S
C181 C185 1.503 . S
C181 O198 1.273 . S
C181 O199 1.257 . S
C182 O180 1.255 . S
C182 O183 1.247 . S
O183 C182 1.247 . S
C184 O196 1.242 . S
C184 O197 1.258 . S
C185 C181 1.503 . S
C185 C186 1.379 . S
C185 C190 1.392 . S
C186 C185 1.379 . S
C186 C187 1.404 . S
C186 H200 0.929 . S
C187 C186 1.404 . S
C187 C188 1.389 . S
C188 C187 1.389 . S
C188 C189 1.399 . S
C188 H201 0.931 . S
C189 C188 1.399 . S
C189 C190 1.390 . S
C190 C185 1.392 . S
C190 C189 1.390 . S
C190 H202 0.929 . S
O191 Tb175 2.326 . S
O191 C179 1.242 . S
O192 Eu176 2.324 . S
O192 C179 1.258 . S
O193 Tb175 2.500 . S
O193 C195 1.273 . S
O194 Tb175 2.473 . S
O194 C195 1.257 . S
C195 O193 1.273 . S
C195 O194 1.257 . S
O196 Eu176 2.326 . S
O196 C184 1.242 . S
O197 Tb175 2.324 . S
O197 C184 1.258 . S
O198 Eu176 2.500 . S
O198 C181 1.273 . S
O199 Eu176 2.473 . S
O199 C181 1.257 . S
H200 C186 0.929 . S
H201 C188 0.931 . S
H202 C190 0.929 . S
O203 Tb204 2.292 . S
O203 C206 1.255 . S
Tb204 O203 2.292 . S
Tb204 O220 2.326 . S
Tb204 O222 2.500 . S
Tb204 O223 2.473 . S
Tb204 O226 2.324 . S
Eu205 O209 2.292 . S
Eu205 C210 2.852 . S
Eu205 O221 2.324 . S
Eu205 O225 2.326 . S
Eu205 O227 2.500 . S
Eu205 O228 2.473 . S
C206 O203 1.255 . S
C206 O207 1.247 . S
O207 C206 1.247 . S
C208 O220 1.242 . S
C208 O221 1.258 . S
O209 Eu205 2.292 . S
O209 C211 1.255 . S
C210 Eu205 2.852 . S
C210 C214 1.503 . S
C210 O227 1.273 . S
C210 O228 1.257 . S
C211 O209 1.255 . S
C211 O212 1.247 . S
O212 C211 1.247 . S
C213 O225 1.242 . S
C213 O226 1.258 . S
C214 C210 1.503 . S
C214 C215 1.379 . S
C214 C219 1.392 . S
C215 C214 1.379 . S
C215 C216 1.404 . S
C215 H229 0.929 . S
C216 C215 1.404 . S
C216 C217 1.389 . S
C217 C216 1.389 . S
C217 C218 1.399 . S
C217 H230 0.931 . S
C218 C217 1.399 . S
C218 C219 1.390 . S
C219 C214 1.392 . S
C219 C218 1.390 . S
C219 H231 0.929 . S
O220 Tb204 2.326 . S
O220 C208 1.242 . S
O221 Eu205 2.324 . S
O221 C208 1.258 . S
O222 Tb204 2.500 . S
O222 C224 1.273 . S
O223 Tb204 2.473 . S
O223 C224 1.257 . S
C224 O222 1.273 . S
C224 O223 1.257 . S
O225 Eu205 2.326 . S
O225 C213 1.242 . S
O226 Tb204 2.324 . S
O226 C213 1.258 . S
O227 Eu205 2.500 . S
O227 C210 1.273 . S
O228 Eu205 2.473 . S
O228 C210 1.257 . S
H229 C215 0.929 . S
H230 C217 0.931 . S
H231 C219 0.929 . S
H232 C240 0.950 . S
H233 C245 0.950 . S
H234 C242 0.950 . S
H235 C244 0.950 . S
H236 C246 0.950 . S
H237 C248 0.950 . S
H238 C250 0.950 . S
H239 C251 0.950 . S
C240 H232 0.950 . S
C240 C241 1.386 . S
C240 C242 1.391 . S
C241 C240 1.386 . S
C241 C245 1.393 . S
C242 H234 0.950 . S
C242 C240 1.391 . S
C242 C243 1.400 . S
C243 C242 1.400 . S
C243 C244 1.398 . S
C243 C249 1.491 . S
C244 H235 0.950 . S
C244 C243 1.398 . S
C244 C245 1.391 . S
C245 H233 0.950 . S
C245 C241 1.393 . S
C245 C244 1.391 . S
C246 H236 0.950 . S
C246 C247 1.386 . S
C246 C248 1.391 . S
C247 C246 1.386 . S
C247 C251 1.393 . S
C248 H237 0.950 . S
C248 C246 1.391 . S
C248 C249 1.400 . S
C249 C243 1.491 . S
C249 C248 1.400 . S
C249 C250 1.398 . S
C250 H238 0.950 . S
C250 C249 1.398 . S
C250 C251 1.391 . S
C251 H239 0.950 . S
C251 C247 1.393 . S
C251 C250 1.391 . S
H252 C260 0.950 . S
H253 C265 0.950 . S
H254 C262 0.950 . S
H255 C264 0.950 . S
H256 C266 0.950 . S
H257 C268 0.950 . S
H258 C270 0.950 . S
H259 C271 0.950 . S
C260 H252 0.950 . S
C260 C261 1.386 . S
C260 C262 1.391 . S
C261 C260 1.386 . S
C261 C265 1.393 . S
C262 H254 0.950 . S
C262 C260 1.391 . S
C262 C263 1.400 . S
C263 C262 1.400 . S
C263 C264 1.398 . S
C263 C269 1.491 . S
C264 H255 0.950 . S
C264 C263 1.398 . S
C264 C265 1.391 . S
C265 H253 0.950 . S
C265 C261 1.393 . S
C265 C264 1.391 . S
C266 H256 0.950 . S
C266 C267 1.386 . S
C266 C268 1.391 . S
C267 C266 1.386 . S
C267 C271 1.393 . S
C268 H257 0.950 . S
C268 C266 1.391 . S
C268 C269 1.400 . S
C269 C263 1.491 . S
C269 C268 1.400 . S
C269 C270 1.398 . S
C270 H258 0.950 . S
C270 C269 1.398 . S
C270 C271 1.391 . S
C271 H259 0.950 . S
C271 C267 1.393 . S
C271 C270 1.391 . S
H272 C280 0.950 . S
H273 C285 0.950 . S
H274 C282 0.950 . S
H275 C284 0.950 . S
H276 C286 0.950 . S
H277 C288 0.950 . S
H278 C290 0.950 . S
H279 C291 0.950 . S
C280 H272 0.950 . S
C280 C281 1.386 . S
C280 C282 1.391 . S
C281 C280 1.386 . S
C281 C285 1.393 . S
C282 H274 0.950 . S
C282 C280 1.391 . S
C282 C283 1.400 . S
C283 C282 1.400 . S
C283 C284 1.398 . S
C283 C289 1.491 1_655 S
C284 H275 0.950 . S
C284 C283 1.398 . S
C284 C285 1.391 . S
C285 H273 0.950 . S
C285 C281 1.393 . S
C285 C284 1.391 . S
C286 H276 0.950 . S
C286 C287 1.386 . S
C286 C288 1.391 . S
C287 C286 1.386 . S
C287 C291 1.393 . S
C288 H277 0.950 . S
C288 C286 1.391 . S
C288 C289 1.400 . S
C289 C283 1.491 1_455 S
C289 C288 1.400 . S
C289 C290 1.398 . S
C290 H278 0.950 . S
C290 C289 1.398 . S
C290 C291 1.391 . S
C291 H279 0.950 . S
C291 C287 1.393 . S
C291 C290 1.391 . S
H292 C300 0.950 . S
H293 C305 0.950 . S
H294 C302 0.950 . S
H295 C304 0.950 . S
H296 C306 0.950 . S
H297 C308 0.950 . S
H298 C310 0.950 . S
H299 C311 0.950 . S
C300 H292 0.950 . S
C300 C301 1.386 . S
C300 C302 1.391 . S
C301 C300 1.386 . S
C301 C305 1.393 . S
C302 H294 0.950 . S
C302 C300 1.391 . S
C302 C303 1.400 . S
C303 C302 1.400 . S
C303 C304 1.398 . S
C303 C309 1.491 1_655 S
C304 H295 0.950 . S
C304 C303 1.398 . S
C304 C305 1.391 . S
C305 H293 0.950 . S
C305 C301 1.393 . S
C305 C304 1.391 . S
C306 H296 0.950 . S
C306 C307 1.386 . S
C306 C308 1.391 . S
C307 C306 1.386 . S
C307 C311 1.393 . S
C308 H297 0.950 . S
C308 C306 1.391 . S
C308 C309 1.400 . S
C309 C303 1.491 1_455 S
C309 C308 1.400 . S
C309 C310 1.398 . S
C310 H298 0.950 . S
C310 C309 1.398 . S
C310 C311 1.391 . S
C311 H299 0.950 . S
C311 C307 1.393 . S
C311 C310 1.391 . S
H312 C320 0.950 . S
H313 C325 0.950 . S
H314 C322 0.950 . S
H315 C324 0.950 . S
H316 C326 0.950 . S
H317 C328 0.950 . S
H318 C330 0.950 . S
H319 C331 0.950 . S
C320 H312 0.950 . S
C320 C321 1.386 . S
C320 C322 1.391 . S
C321 C320 1.386 . S
C321 C325 1.393 1_556 S
C322 H314 0.950 . S
C322 C320 1.391 . S
C322 C323 1.400 . S
C323 C322 1.400 . S
C323 C324 1.398 1_556 S
C323 C329 1.491 1_556 S
C324 H315 0.950 . S
C324 C323 1.398 1_554 S
C324 C325 1.391 . S
C325 H313 0.950 . S
C325 C321 1.393 1_554 S
C325 C324 1.391 . S
C326 H316 0.950 . S
C326 C327 1.386 . S
C326 C328 1.391 . S
C327 C326 1.386 . S
C327 C331 1.393 1_554 S
C328 H317 0.950 . S
C328 C326 1.391 . S
C328 C329 1.400 . S
C329 C323 1.491 1_554 S
C329 C328 1.400 . S
C329 C330 1.398 1_554 S
C330 H318 0.950 . S
C330 C329 1.398 1_556 S
C330 C331 1.391 . S
C331 H319 0.950 . S
C331 C327 1.393 1_556 S
C331 C330 1.391 . S
H332 C340 0.950 . S
H333 C345 0.950 . S
H334 C342 0.950 . S
H335 C344 0.950 . S
H336 C346 0.950 . S
H337 C348 0.950 . S
H338 C350 0.950 . S
H339 C351 0.950 . S
C340 H332 0.950 . S
C340 C341 1.386 . S
C340 C342 1.391 . S
C341 C340 1.386 . S
C341 C345 1.393 . S
C342 H334 0.950 . S
C342 C340 1.391 . S
C342 C343 1.400 . S
C343 C342 1.400 . S
C343 C344 1.398 . S
C343 C349 1.491 . S
C344 H335 0.950 . S
C344 C343 1.398 . S
C344 C345 1.391 . S
C345 H333 0.950 . S
C345 C341 1.393 . S
C345 C344 1.391 . S
C346 H336 0.950 . S
C346 C347 1.386 . S
C346 C348 1.391 . S
C347 C346 1.386 . S
C347 C351 1.393 . S
C348 H337 0.950 . S
C348 C346 1.391 . S
C348 C349 1.400 . S
C349 C343 1.491 . S
C349 C348 1.400 . S
C349 C350 1.398 . S
C350 H338 0.950 . S
C350 C349 1.398 . S
C350 C351 1.391 . S
C351 H339 0.950 . S
C351 C347 1.393 . S
C351 C350 1.391 . S
H352 C360 0.950 . S
H353 C365 0.950 . S
H354 C362 0.950 . S
H355 C364 0.950 . S
H356 C366 0.950 . S
H357 C368 0.950 . S
H358 C370 0.950 . S
H359 C371 0.950 . S
C360 H352 0.950 . S
C360 C361 1.386 1_556 S
C360 C362 1.391 . S
C361 C360 1.386 1_554 S
C361 C365 1.393 . S
C362 H354 0.950 . S
C362 C360 1.391 . S
C362 C363 1.400 1_556 S
C363 C362 1.400 1_554 S
C363 C364 1.398 . S
C363 C369 1.491 1_554 S
C364 H355 0.950 . S
C364 C363 1.398 . S
C364 C365 1.391 . S
C365 H353 0.950 . S
C365 C361 1.393 . S
C365 C364 1.391 . S
C366 H356 0.950 . S
C366 C367 1.386 1_554 S
C366 C368 1.391 . S
C367 C366 1.386 1_556 S
C367 C371 1.393 . S
C368 H357 0.950 . S
C368 C366 1.391 . S
C368 C369 1.400 1_554 S
C369 C363 1.491 1_556 S
C369 C368 1.400 1_556 S
C369 C370 1.398 . S
C370 H358 0.950 . S
C370 C369 1.398 . S
C370 C371 1.391 . S
C371 H359 0.950 . S
C371 C367 1.393 . S
C371 C370 1.391 . S
H372 C380 0.950 . S
H373 C385 0.950 . S
H374 C382 0.950 . S
H375 C384 0.950 . S
H376 C386 0.950 . S
H377 C388 0.950 . S
H378 C390 0.950 . S
H379 C391 0.950 . S
C380 H372 0.950 . S
C380 C381 1.386 . S
C380 C382 1.391 . S
C381 C380 1.386 . S
C381 C385 1.393 . S
C382 H374 0.950 . S
C382 C380 1.391 . S
C382 C383 1.400 . S
C383 C382 1.400 . S
C383 C384 1.398 . S
C383 C389 1.491 . S
C384 H375 0.950 . S
C384 C383 1.398 . S
C384 C385 1.391 . S
C385 H373 0.950 . S
C385 C381 1.393 . S
C385 C384 1.391 . S
C386 H376 0.950 . S
C386 C387 1.386 . S
C386 C388 1.391 . S
C387 C386 1.386 . S
C387 C391 1.393 . S
C388 H377 0.950 . S
C388 C386 1.391 . S
C388 C389 1.400 . S
C389 C383 1.491 . S
C389 C388 1.400 . S
C389 C390 1.398 . S
C390 H378 0.950 . S
C390 C389 1.398 . S
C390 C391 1.391 . S
C391 H379 0.950 . S
C391 C387 1.393 . S
C391 C390 1.391 . S
H392 C400 0.950 . S
H393 C405 0.950 . S
H394 C402 0.950 . S
H395 C404 0.950 . S
H396 C406 0.950 . S
H397 C408 0.950 . S
H398 C410 0.950 . S
H399 C411 0.950 . S
C400 H392 0.950 . S
C400 C401 1.386 . S
C400 C402 1.391 . S
C401 C400 1.386 . S
C401 C405 1.393 . S
C402 H394 0.950 . S
C402 C400 1.391 . S
C402 C403 1.400 . S
C403 C402 1.400 . S
C403 C404 1.398 . S
C403 C409 1.491 . S
C404 H395 0.950 . S
C404 C403 1.398 . S
C404 C405 1.391 . S
C405 H393 0.950 . S
C405 C401 1.393 . S
C405 C404 1.391 . S
C406 H396 0.950 . S
C406 C407 1.386 . S
C406 C408 1.391 . S
C407 C406 1.386 . S
C407 C411 1.393 . S
C408 H397 0.950 . S
C408 C406 1.391 . S
C408 C409 1.400 . S
C409 C403 1.491 . S
C409 C408 1.400 . S
C409 C410 1.398 . S
C410 H398 0.950 . S
C410 C409 1.398 . S
C410 C411 1.391 . S
C411 H399 0.950 . S
C411 C407 1.393 . S
C411 C410 1.391 . S
H412 C420 0.950 . S
H413 C425 0.950 . S
H414 C422 0.950 . S
H415 C424 0.950 . S
H416 C426 0.950 . S
H417 C428 0.950 . S
H418 C430 0.950 . S
H419 C431 0.950 . S
C420 H412 0.950 . S
C420 C421 1.386 . S
C420 C422 1.391 . S
C421 C420 1.386 . S
C421 C425 1.393 . S
C422 H414 0.950 . S
C422 C420 1.391 . S
C422 C423 1.400 . S
C423 C422 1.400 . S
C423 C424 1.398 . S
C423 C429 1.491 . S
C424 H415 0.950 . S
C424 C423 1.398 . S
C424 C425 1.391 . S
C425 H413 0.950 . S
C425 C421 1.393 . S
C425 C424 1.391 . S
C426 H416 0.950 . S
C426 C427 1.386 . S
C426 C428 1.391 . S
C427 C426 1.386 . S
C427 C431 1.393 . S
C428 H417 0.950 . S
C428 C426 1.391 . S
C428 C429 1.400 . S
C429 C423 1.491 . S
C429 C428 1.400 . S
C429 C430 1.398 . S
C430 H418 0.950 . S
C430 C429 1.398 . S
C430 C431 1.391 . S
C431 H419 0.950 . S
C431 C427 1.393 . S
C431 C430 1.391 . S
H432 C440 0.950 . S
H433 C445 0.950 . S
H434 C442 0.950 . S
H435 C444 0.950 . S
H436 C446 0.950 . S
H437 C448 0.950 . S
H438 C450 0.950 . S
H439 C451 0.950 . S
C440 H432 0.950 . S
C440 C441 1.386 . S
C440 C442 1.391 . S
C441 C440 1.386 . S
C441 C445 1.393 . S
C442 H434 0.950 . S
C442 C440 1.391 . S
C442 C443 1.400 . S
C443 C442 1.400 . S
C443 C444 1.398 . S
C443 C449 1.491 . S
C444 H435 0.950 . S
C444 C443 1.398 . S
C444 C445 1.391 . S
C445 H433 0.950 . S
C445 C441 1.393 . S
C445 C444 1.391 . S
C446 H436 0.950 . S
C446 C447 1.386 . S
C446 C448 1.391 . S
C447 C446 1.386 . S
C447 C451 1.393 . S
C448 H437 0.950 . S
C448 C446 1.391 . S
C448 C449 1.400 . S
C449 C443 1.491 . S
C449 C448 1.400 . S
C449 C450 1.398 . S
C450 H438 0.950 . S
C450 C449 1.398 . S
C450 C451 1.391 . S
C451 H439 0.950 . S
C451 C447 1.393 . S
C451 C450 1.391 . S
H452 C460 0.950 . S
H453 C465 0.950 . S
H454 C462 0.950 . S
H455 C464 0.950 . S
H456 C466 0.950 . S
H457 C468 0.950 . S
H458 C470 0.950 . S
H459 C471 0.950 . S
C460 H452 0.950 . S
C460 C461 1.386 . S
C460 C462 1.391 . S
C461 C460 1.386 . S
C461 C465 1.393 . S
C462 H454 0.950 . S
C462 C460 1.391 . S
C462 C463 1.400 . S
C463 C462 1.400 . S
C463 C464 1.398 . S
C463 C469 1.491 . S
C464 H455 0.950 . S
C464 C463 1.398 . S
C464 C465 1.391 . S
C465 H453 0.950 . S
C465 C461 1.393 . S
C465 C464 1.391 . S
C466 H456 0.950 . S
C466 C467 1.386 . S
C466 C468 1.391 . S
C467 C466 1.386 . S
C467 C471 1.393 . S
C468 H457 0.950 . S
C468 C466 1.391 . S
C468 C469 1.400 . S
C469 C463 1.491 . S
C469 C468 1.400 . S
C469 C470 1.398 . S
C470 H458 0.950 . S
C470 C469 1.398 . S
C470 C471 1.391 . S
C471 H459 0.950 . S
C471 C467 1.393 . S
C471 C470 1.391 . S
H472 C480 0.950 1_554 S
H473 C485 0.950 . S
H474 C482 0.950 . S
H475 C484 0.950 . S
H476 C486 0.950 . S
H477 C488 0.950 . S
H478 C490 0.950 . S
H479 C491 0.950 . S
C480 H472 0.950 1_556 S
C480 C481 1.386 . S
C480 C482 1.391 . S
C481 C480 1.386 . S
C481 C485 1.393 . S
C482 H474 0.950 . S
C482 C480 1.391 . S
C482 C483 1.400 . S
C483 C482 1.400 . S
C483 C484 1.398 . S
C483 C489 1.491 . S
C484 H475 0.950 . S
C484 C483 1.398 . S
C484 C485 1.391 . S
C485 H473 0.950 . S
C485 C481 1.393 . S
C485 C484 1.391 . S
C486 H476 0.950 . S
C486 C487 1.386 . S
C486 C488 1.391 1_545 S
C487 C486 1.386 . S
C487 C491 1.393 . S
C488 H477 0.950 . S
C488 C486 1.391 1_565 S
C488 C489 1.400 . S
C489 C483 1.491 . S
C489 C488 1.400 . S
C489 C490 1.398 1_565 S
C490 H478 0.950 . S
C490 C489 1.398 1_545 S
C490 C491 1.391 . S
C491 H479 0.950 . S
C491 C487 1.393 . S
C491 C490 1.391 . S
H492 C500 0.951 1_565 S
H493 C505 0.950 . S
H494 C502 0.950 . S
H495 C504 0.950 . S
H496 C506 0.950 . S
H497 C508 0.950 1_545 S
H498 C510 0.950 . S
H499 C511 0.950 . S
C500 H492 0.951 1_545 S
C500 C501 1.386 . S
C500 C502 1.391 1_545 S
C501 C500 1.386 . S
C501 C505 1.393 . S
C502 H494 0.950 . S
C502 C500 1.391 1_565 S
C502 C503 1.400 . S
C503 C502 1.400 . S
C503 C504 1.398 1_565 S
C503 C509 1.491 . S
C504 H495 0.950 . S
C504 C503 1.398 1_545 S
C504 C505 1.391 . S
C505 H493 0.950 . S
C505 C501 1.393 . S
C505 C504 1.391 . S
C506 H496 0.950 . S
C506 C507 1.386 . S
C506 C508 1.391 . S
C507 C506 1.386 . S
C507 C511 1.393 . S
C508 H497 0.950 1_565 S
C508 C506 1.391 . S
C508 C509 1.400 . S
C509 C503 1.491 . S
C509 C508 1.400 . S
C509 C510 1.398 . S
C510 H498 0.950 . S
C510 C509 1.398 . S
C510 C511 1.391 . S
C511 H499 0.950 . S
C511 C507 1.393 . S
C511 C510 1.391 . S
H512 C520 0.950 . S
H513 C525 0.950 . S
H514 C522 0.950 . S
H515 C524 0.950 1_545 S
H516 C526 0.950 . S
H517 C528 0.950 . S
H518 C530 0.950 . S
H519 C531 0.950 . S
C520 H512 0.950 . S
C520 C521 1.386 . S
C520 C522 1.391 . S
C521 C520 1.386 . S
C521 C525 1.393 . S
C522 H514 0.950 . S
C522 C520 1.391 . S
C522 C523 1.400 1_565 S
C523 C522 1.400 1_545 S
C523 C524 1.398 1_545 S
C523 C529 1.491 . S
C524 H515 0.950 1_565 S
C524 C523 1.398 1_565 S
C524 C525 1.391 . S
C525 H513 0.950 . S
C525 C521 1.393 . S
C525 C524 1.391 . S
C526 H516 0.950 . S
C526 C527 1.386 . S
C526 C528 1.391 . S
C527 C526 1.386 . S
C527 C531 1.393 . S
C528 H517 0.950 . S
C528 C526 1.391 . S
C528 C529 1.400 . S
C529 C523 1.491 . S
C529 C528 1.400 . S
C529 C530 1.398 . S
C530 H518 0.950 . S
C530 C529 1.398 . S
C530 C531 1.391 . S
C531 H519 0.950 . S
C531 C527 1.393 . S
C531 C530 1.391 . S
H532 C540 0.955 . S
H533 C545 0.950 . S
H534 C542 0.950 . S
H535 C544 0.950 . S
H536 C546 0.950 . S
H537 C548 0.950 1_565 S
H538 C550 0.950 . S
H539 C551 0.950 . S
C540 H532 0.955 . S
C540 C541 1.386 . S
C540 C542 1.391 1_565 S
C541 C540 1.386 . S
C541 C545 1.393 . S
C542 H534 0.950 . S
C542 C540 1.391 1_545 S
C542 C543 1.400 . S
C543 C542 1.400 . S
C543 C544 1.398 1_545 S
C543 C549 1.491 . S
C544 H535 0.950 . S
C544 C543 1.398 1_565 S
C544 C545 1.391 . S
C545 H533 0.950 . S
C545 C541 1.393 . S
C545 C544 1.391 . S
C546 H536 0.950 . S
C546 C547 1.386 . S
C546 C548 1.391 . S
C547 C546 1.386 . S
C547 C551 1.393 . S
C548 H537 0.950 1_545 S
C548 C546 1.391 . S
C548 C549 1.400 . S
C549 C543 1.491 . S
C549 C548 1.400 . S
C549 C550 1.398 . S
C550 H538 0.950 . S
C550 C549 1.398 . S
C550 C551 1.391 . S
C551 H539 0.950 . S
C551 C547 1.393 . S
C551 C550 1.391 . S
H552 C560 0.950 . S
H553 C565 0.950 . S
H554 C562 0.950 1_455 S
H555 C564 0.950 . S
H556 C566 0.950 . S
H557 C568 0.950 1_655 S
H558 C570 0.950 . S
H559 C571 0.950 . S
C560 H552 0.950 . S
C560 C561 1.386 . S
C560 C562 1.391 . S
C561 C560 1.386 . S
C561 C565 1.393 . S
C562 H554 0.950 1_655 S
C562 C560 1.391 . S
C562 C563 1.400 . S
C563 C562 1.400 . S
C563 C564 1.398 . S
C563 C569 1.491 1_656 S
C564 H555 0.950 . S
C564 C563 1.398 . S
C564 C565 1.391 . S
C565 H553 0.950 . S
C565 C561 1.393 . S
C565 C564 1.391 . S
C566 H556 0.950 . S
C566 C567 1.386 . S
C566 C568 1.391 . S
C567 C566 1.386 . S
C567 C571 1.393 . S
C568 H557 0.950 1_455 S
C568 C566 1.391 . S
C568 C569 1.400 . S
C569 C563 1.491 1_454 S
C569 C568 1.400 . S
C569 C570 1.398 . S
C570 H558 0.950 . S
C570 C569 1.398 . S
C570 C571 1.391 . S
C571 H559 0.950 . S
C571 C567 1.393 . S
C571 C570 1.391 . S
H572 C580 0.950 . S
H573 C585 0.950 . S
H574 C582 0.950 1_655 S
H575 C584 0.950 . S
H576 C586 0.950 . S
H577 C588 0.950 1_455 S
H578 C590 0.950 . S
H579 C591 0.950 . S
C580 H572 0.950 . S
C580 C581 1.386 . S
C580 C582 1.391 . S
C581 C580 1.386 . S
C581 C585 1.393 . S
C582 H574 0.950 1_455 S
C582 C580 1.391 . S
C582 C583 1.400 . S
C583 C582 1.400 . S
C583 C584 1.398 . S
C583 C589 1.491 1_455 S
C584 H575 0.950 . S
C584 C583 1.398 . S
C584 C585 1.391 . S
C585 H573 0.950 . S
C585 C581 1.393 . S
C585 C584 1.391 . S
C586 H576 0.950 . S
C586 C587 1.386 . S
C586 C588 1.391 . S
C587 C586 1.386 . S
C587 C591 1.393 . S
C588 H577 0.950 1_655 S
C588 C586 1.391 . S
C588 C589 1.400 . S
C589 C583 1.491 1_655 S
C589 C588 1.400 . S
C589 C590 1.398 . S
C590 H578 0.950 . S
C590 C589 1.398 . S
C590 C591 1.391 . S
C591 H579 0.950 . S
C591 C587 1.393 . S
C591 C590 1.391 . S
H592 C600 0.950 . S
H593 C605 0.950 . S
H594 C602 0.950 1_565 S
H595 C604 0.950 . S
H596 C606 0.950 . S
H597 C608 0.950 1_545 S
H598 C610 0.950 . S
H599 C611 0.950 . S
C600 H592 0.950 . S
C600 C601 1.386 . S
C600 C602 1.391 . S
C601 C600 1.386 . S
C601 C605 1.393 . S
C602 H594 0.950 1_545 S
C602 C600 1.391 . S
C602 C603 1.400 . S
C603 C602 1.400 . S
C603 C604 1.398 . S
C603 C609 1.491 1_546 S
C604 H595 0.950 . S
C604 C603 1.398 . S
C604 C605 1.391 . S
C605 H593 0.950 . S
C605 C601 1.393 . S
C605 C604 1.391 . S
C606 H596 0.950 . S
C606 C607 1.386 . S
C606 C608 1.391 . S
C607 C606 1.386 . S
C607 C611 1.393 . S
C608 H597 0.950 1_565 S
C608 C606 1.391 . S
C608 C609 1.400 . S
C609 C603 1.491 1_564 S
C609 C608 1.400 . S
C609 C610 1.398 . S
C610 H598 0.950 . S
C610 C609 1.398 . S
C610 C611 1.391 . S
C611 H599 0.950 . S
C611 C607 1.393 . S
C611 C610 1.391 . S
H612 C620 0.950 . S
H613 C625 0.950 . S
H614 C622 0.950 . S
H615 C624 0.950 . S
H616 C626 0.950 . S
H617 C628 0.950 . S
H618 C630 0.950 . S
H619 C631 0.950 . S
C620 H612 0.950 . S
C620 C621 1.386 . S
C620 C622 1.391 1_565 S
C621 C620 1.386 . S
C621 C625 1.393 . S
C622 H614 0.950 . S
C622 C620 1.391 1_545 S
C622 C623 1.400 1_545 S
C623 C622 1.400 1_565 S
C623 C624 1.398 . S
C623 C629 1.491 1_565 S
C624 H615 0.950 . S
C624 C623 1.398 . S
C624 C625 1.391 . S
C625 H613 0.950 . S
C625 C621 1.393 . S
C625 C624 1.391 . S
C626 H616 0.950 . S
C626 C627 1.386 . S
C626 C628 1.391 1_545 S
C627 C626 1.386 . S
C627 C631 1.393 . S
C628 H617 0.950 . S
C628 C626 1.391 1_565 S
C628 C629 1.400 1_565 S
C629 C623 1.491 1_545 S
C629 C628 1.400 1_545 S
C629 C630 1.398 . S
C630 H618 0.950 . S
C630 C629 1.398 . S
C630 C631 1.391 . S
C631 H619 0.950 . S
C631 C627 1.393 . S
C631 C630 1.391 . S
H632 C640 0.950 . S
H633 C645 0.950 . S
H634 C642 0.950 1_455 S
H635 C644 0.950 . S
H636 C646 0.950 . S
H637 C648 0.950 1_655 S
H638 C650 0.950 . S
H639 C651 0.950 . S
C640 H632 0.950 . S
C640 C641 1.386 . S
C640 C642 1.391 . S
C641 C640 1.386 . S
C641 C645 1.393 . S
C642 H634 0.950 1_655 S
C642 C640 1.391 . S
C642 C643 1.400 . S
C643 C642 1.400 . S
C643 C644 1.398 . S
C643 C649 1.491 1_655 S
C644 H635 0.950 . S
C644 C643 1.398 . S
C644 C645 1.391 . S
C645 H633 0.950 . S
C645 C641 1.393 . S
C645 C644 1.391 . S
C646 H636 0.950 . S
C646 C647 1.386 . S
C646 C648 1.391 . S
C647 C646 1.386 . S
C647 C651 1.393 . S
C648 H637 0.950 1_455 S
C648 C646 1.391 . S
C648 C649 1.400 . S
C649 C643 1.491 1_455 S
C649 C648 1.400 . S
C649 C650 1.398 . S
C650 H638 0.950 . S
C650 C649 1.398 . S
C650 C651 1.391 . S
C651 H639 0.950 . S
C651 C647 1.393 . S
C651 C650 1.391 . S
H652 C660 0.950 . S
H653 C665 0.950 . S
H654 C662 0.950 . S
H655 C664 0.950 1_655 S
H656 C666 0.950 . S
H657 C668 0.950 . S
H658 C670 0.950 1_455 S
H659 C671 0.950 . S
C660 H652 0.950 . S
C660 C661 1.386 . S
C660 C662 1.391 . S
C661 C660 1.386 . S
C661 C665 1.393 . S
C662 H654 0.950 . S
C662 C660 1.391 . S
C662 C663 1.400 . S
C663 C662 1.400 . S
C663 C664 1.398 . S
C663 C669 1.491 1_455 S
C664 H655 0.950 1_455 S
C664 C663 1.398 . S
C664 C665 1.391 . S
C665 H653 0.950 . S
C665 C661 1.393 . S
C665 C664 1.391 . S
C666 H656 0.950 . S
C666 C667 1.386 . S
C666 C668 1.391 . S
C667 C666 1.386 . S
C667 C671 1.393 . S
C668 H657 0.950 . S
C668 C666 1.391 . S
C668 C669 1.400 . S
C669 C663 1.491 1_655 S
C669 C668 1.400 . S
C669 C670 1.398 . S
C670 H658 0.950 1_655 S
C670 C669 1.398 . S
C670 C671 1.391 . S
C671 H659 0.950 . S
C671 C667 1.393 . S
C671 C670 1.391 . S
H672 C680 0.950 . S
H673 C685 0.950 . S
H674 C682 0.950 . S
H675 C684 0.950 . S
H676 C686 0.950 . S
H677 C688 0.950 . S
H678 C690 0.950 . S
H679 C691 0.950 . S
C680 H672 0.950 . S
C680 C681 1.386 . S
C680 C682 1.391 . S
C681 C680 1.386 . S
C681 C685 1.393 . S
C682 H674 0.950 . S
C682 C680 1.391 . S
C682 C683 1.400 . S
C683 C682 1.400 . S
C683 C684 1.398 . S
C683 C689 1.491 . S
C684 H675 0.950 . S
C684 C683 1.398 . S
C684 C685 1.391 . S
C685 H673 0.950 . S
C685 C681 1.393 . S
C685 C684 1.391 . S
C686 H676 0.950 . S
C686 C687 1.386 . S
C686 C688 1.391 . S
C687 C686 1.386 . S
C687 C691 1.393 . S
C688 H677 0.950 . S
C688 C686 1.391 . S
C688 C689 1.400 . S
C689 C683 1.491 . S
C689 C688 1.400 . S
C689 C690 1.398 . S
C690 H678 0.950 . S
C690 C689 1.398 . S
C690 C691 1.391 . S
C691 H679 0.950 . S
C691 C687 1.393 . S
C691 C690 1.391 . S
H692 C700 0.950 . S
H693 C705 0.950 . S
H694 C702 0.950 . S
H695 C704 0.950 . S
H696 C706 0.950 . S
H697 C708 0.950 . S
H698 C710 0.950 . S
H699 C711 0.950 . S
C700 H692 0.950 . S
C700 C701 1.386 . S
C700 C702 1.391 . S
C701 C700 1.386 . S
C701 C705 1.393 . S
C702 H694 0.950 . S
C702 C700 1.391 . S
C702 C703 1.400 . S
C703 C702 1.400 . S
C703 C704 1.398 . S
C703 C709 1.491 . S
C704 H695 0.950 . S
C704 C703 1.398 . S
C704 C705 1.391 . S
C705 H693 0.950 . S
C705 C701 1.393 . S
C705 C704 1.391 . S
C706 H696 0.950 . S
C706 C707 1.386 . S
C706 C708 1.391 . S
C707 C706 1.386 . S
C707 C711 1.393 . S
C708 H697 0.950 . S
C708 C706 1.391 . S
C708 C709 1.400 . S
C709 C703 1.491 . S
C709 C708 1.400 . S
C709 C710 1.398 . S
C710 H698 0.950 . S
C710 C709 1.398 . S
C710 C711 1.391 . S
C711 H699 0.950 . S
C711 C707 1.393 . S
C711 C710 1.391 . S
H712 C720 0.950 . S
H713 C725 0.950 . S
H714 C722 0.950 1_655 S
H715 C724 0.950 . S
H716 C726 0.950 . S
H717 C728 0.950 1_455 S
H718 C730 0.950 . S
H719 C731 0.950 . S
C720 H712 0.950 . S
C720 C721 1.386 . S
C720 C722 1.391 . S
C721 C720 1.386 . S
C721 C725 1.393 . S
C722 H714 0.950 1_455 S
C722 C720 1.391 . S
C722 C723 1.400 . S
C723 C722 1.400 . S
C723 C724 1.398 . S
C723 C729 1.491 1_455 S
C724 H715 0.950 . S
C724 C723 1.398 . S
C724 C725 1.391 . S
C725 H713 0.950 . S
C725 C721 1.393 . S
C725 C724 1.391 . S
C726 H716 0.950 . S
C726 C727 1.386 . S
C726 C728 1.391 . S
C727 C726 1.386 . S
C727 C731 1.393 . S
C728 H717 0.950 1_655 S
C728 C726 1.391 . S
C728 C729 1.400 . S
C729 C723 1.491 1_655 S
C729 C728 1.400 . S
C729 C730 1.398 . S
C730 H718 0.950 . S
C730 C729 1.398 . S
C730 C731 1.391 . S
C731 H719 0.950 . S
C731 C727 1.393 . S
C731 C730 1.391 . S
H732 C740 0.950 . S
H733 C745 0.950 . S
H734 C742 0.950 . S
H735 C744 0.966 . S
H736 C746 0.950 . S
H737 C748 0.950 . S
H738 C750 0.966 . S
H739 C751 0.950 . S
C740 H732 0.950 . S
C740 C741 1.386 . S
C740 C742 1.391 . S
C741 C740 1.386 . S
C741 C745 1.393 . S
C742 H734 0.950 . S
C742 C740 1.391 . S
C742 C743 1.400 . S
C743 C742 1.400 . S
C743 C744 1.398 . S
C743 C749 1.491 1_455 S
C744 H735 0.966 . S
C744 C743 1.398 . S
C744 C745 1.391 . S
C745 H733 0.950 . S
C745 C741 1.393 . S
C745 C744 1.391 . S
C746 H736 0.950 . S
C746 C747 1.386 . S
C746 C748 1.391 . S
C747 C746 1.386 . S
C747 C751 1.393 . S
C748 H737 0.950 . S
C748 C746 1.391 . S
C748 C749 1.400 . S
C749 C743 1.491 1_655 S
C749 C748 1.400 . S
C749 C750 1.398 . S
C750 H738 0.966 . S
C750 C749 1.398 . S
C750 C751 1.391 . S
C751 H739 0.950 . S
C751 C747 1.393 . S
C751 C750 1.391 . S
H752 C760 0.950 . S
H753 C765 0.950 . S
H754 C762 0.950 . S
H755 C764 0.950 . S
H756 C766 0.950 . S
H757 C768 0.950 . S
H758 C770 0.950 . S
H759 C771 0.950 . S
C760 H752 0.950 . S
C760 C761 1.386 . S
C760 C762 1.391 . S
C761 C760 1.386 . S
C761 C765 1.393 . S
C762 H754 0.950 . S
C762 C760 1.391 . S
C762 C763 1.400 . S
C763 C762 1.400 . S
C763 C764 1.398 . S
C763 C769 1.491 . S
C764 H755 0.950 . S
C764 C763 1.398 . S
C764 C765 1.391 . S
C765 H753 0.950 . S
C765 C761 1.393 . S
C765 C764 1.391 . S
C766 H756 0.950 . S
C766 C767 1.386 . S
C766 C768 1.391 . S
C767 C766 1.386 . S
C767 C771 1.393 . S
C768 H757 0.950 . S
C768 C766 1.391 . S
C768 C769 1.400 . S
C769 C763 1.491 . S
C769 C768 1.400 . S
C769 C770 1.398 . S
C770 H758 0.950 . S
C770 C769 1.398 . S
C770 C771 1.391 . S
C771 H759 0.950 . S
C771 C767 1.393 . S
C771 C770 1.391 . S
H772 C780 0.950 . S
H773 C785 0.950 . S
H774 C782 0.950 . S
H775 C784 0.950 . S
H776 C786 0.950 . S
H777 C788 0.950 . S
H778 C790 0.950 . S
H779 C791 0.950 . S
C780 H772 0.950 . S
C780 C781 1.386 . S
C780 C782 1.391 . S
C781 C780 1.386 . S
C781 C785 1.393 . S
C782 H774 0.950 . S
C782 C780 1.391 . S
C782 C783 1.400 . S
C783 C782 1.400 . S
C783 C784 1.398 . S
C783 C789 1.491 . S
C784 H775 0.950 . S
C784 C783 1.398 . S
C784 C785 1.391 . S
C785 H773 0.950 . S
C785 C781 1.393 . S
C785 C784 1.391 . S
C786 H776 0.950 . S
C786 C787 1.386 . S
C786 C788 1.391 . S
C787 C786 1.386 . S
C787 C791 1.393 . S
C788 H777 0.950 . S
C788 C786 1.391 . S
C788 C789 1.400 . S
C789 C783 1.491 . S
C789 C788 1.400 . S
C789 C790 1.398 . S
C790 H778 0.950 . S
C790 C789 1.398 . S
C790 C791 1.391 . S
C791 H779 0.950 . S
C791 C787 1.393 . S
C791 C790 1.391 . S
C241 C42 3.174 . S
C247 C13 3.180 . S
C261 C100 3.174 . S
C267 C71 3.180 . S
C281 C129 3.174 . S
C287 C158 3.180 . S
C301 C216 3.183 . S
C307 C187 3.190 . S
C321 C189 2.666 . S
C327 C15 2.666 . S
C341 C44 2.667 . S
C347 C218 2.667 . S
C361 C131 2.667 . S
C367 C73 2.667 . S
C381 C102 2.658 . S
C387 C160 2.658 . S
C401 C90 1.992 . S
C407 C10 1.897 1_556 S
C421 C61 1.985 . S
C427 C39 1.897 . S
C441 C32 1.992 . S
C447 C68 1.896 1_554 S
C461 C97 1.907 . S
C467 C3 1.992 . S
C481 C126 1.907 1_556 S
C487 C206 1.991 . S
C501 C177 1.992 . S
C507 C155 1.895 . S
C521 C148 1.993 . S
C527 C184 1.905 1_554 S
C541 C119 1.985 . S
C547 C213 1.896 . S
C561 C79 0.761 . S
C567 C21 0.761 . S
C581 C108 0.769 . S
C587 C50 0.769 . S
C601 C195 0.782 . S
C607 C137 0.782 . S
C621 C166 0.748 . S
C627 C224 0.748 . S
C641 C37 0.925 . S
C647 C8 0.950 . S
C661 C95 0.925 . S
C667 C66 0.943 . S
C681 C124 0.954 . S
C687 C153 0.977 . S
C701 C182 0.952 . S
C707 C211 0.977 . S
C721 C5 2.338 . S
C727 C34 2.337 . S
C741 C92 2.328 . S
C747 C63 2.328 . S
C761 C150 2.329 . S
C767 C121 2.329 . S
C781 C179 2.330 . S
C787 C208 2.331 . S
