# Generated by pormake.
# Topology snz, (6)-cn, num edge types: 1
# Building blocks:
#     Node 0, Type 0, BuildingBlock: FUNLAD_clean_sbu_0, # of connection points: 6
#     Node 1, Type 0, BuildingBlock: FUNLAD_clean_sbu_0, # of connection points: 6
#     Node 2, Type 0, BuildingBlock: FUNLAD_clean_sbu_0, # of connection points: 6
#     Node 3, Type 0, BuildingBlock: FUNLAD_clean_sbu_0, # of connection points: 6
#     Node 4, Type 0, BuildingBlock: FUNLAD_clean_sbu_0, # of connection points: 6
#     Node 5, Type 0, BuildingBlock: FUNLAD_clean_sbu_0, # of connection points: 6
#     Node 6, Type 0, BuildingBlock: FUNLAD_clean_sbu_0, # of connection points: 6
#     Node 7, Type 0, BuildingBlock: FUNLAD_clean_sbu_0, # of connection points: 6
#     Node 8, Type 0, BuildingBlock: FUNLAD_clean_sbu_0, # of connection points: 6
#     Edge 9, Type (0, 0), BuildingBlock: EZIPEK_clean_linker_0, # of connection points: 2
#     Edge 10, Type (0, 0), BuildingBlock: EZIPEK_clean_linker_0, # of connection points: 2
#     Edge 11, Type (0, 0), BuildingBlock: EZIPEK_clean_linker_0, # of connection points: 2
#     Edge 12, Type (0, 0), BuildingBlock: EZIPEK_clean_linker_0, # of connection points: 2
#     Edge 13, Type (0, 0), BuildingBlock: EZIPEK_clean_linker_0, # of connection points: 2
#     Edge 14, Type (0, 0), BuildingBlock: EZIPEK_clean_linker_0, # of connection points: 2
#     Edge 15, Type (0, 0), BuildingBlock: EZIPEK_clean_linker_0, # of connection points: 2
#     Edge 16, Type (0, 0), BuildingBlock: EZIPEK_clean_linker_0, # of connection points: 2
#     Edge 17, Type (0, 0), BuildingBlock: EZIPEK_clean_linker_0, # of connection points: 2
#     Edge 18, Type (0, 0), BuildingBlock: EZIPEK_clean_linker_0, # of connection points: 2
#     Edge 19, Type (0, 0), BuildingBlock: EZIPEK_clean_linker_0, # of connection points: 2
#     Edge 20, Type (0, 0), BuildingBlock: EZIPEK_clean_linker_0, # of connection points: 2
#     Edge 21, Type (0, 0), BuildingBlock: EZIPEK_clean_linker_0, # of connection points: 2
#     Edge 22, Type (0, 0), BuildingBlock: EZIPEK_clean_linker_0, # of connection points: 2
#     Edge 23, Type (0, 0), BuildingBlock: EZIPEK_clean_linker_0, # of connection points: 2
#     Edge 24, Type (0, 0), BuildingBlock: EZIPEK_clean_linker_0, # of connection points: 2
#     Edge 25, Type (0, 0), BuildingBlock: EZIPEK_clean_linker_0, # of connection points: 2
#     Edge 26, Type (0, 0), BuildingBlock: EZIPEK_clean_linker_0, # of connection points: 2
#     Edge 27, Type (0, 0), BuildingBlock: EZIPEK_clean_linker_0, # of connection points: 2
#     Edge 28, Type (0, 0), BuildingBlock: EZIPEK_clean_linker_0, # of connection points: 2
#     Edge 29, Type (0, 0), BuildingBlock: EZIPEK_clean_linker_0, # of connection points: 2
#     Edge 30, Type (0, 0), BuildingBlock: EZIPEK_clean_linker_0, # of connection points: 2
#     Edge 31, Type (0, 0), BuildingBlock: EZIPEK_clean_linker_0, # of connection points: 2
#     Edge 32, Type (0, 0), BuildingBlock: EZIPEK_clean_linker_0, # of connection points: 2
#     Edge 33, Type (0, 0), BuildingBlock: EZIPEK_clean_linker_0, # of connection points: 2
#     Edge 34, Type (0, 0), BuildingBlock: EZIPEK_clean_linker_0, # of connection points: 2
#     Edge 35, Type (0, 0), BuildingBlock: EZIPEK_clean_linker_0, # of connection points: 2
# Relax obj value: 0.878
# Max RMSD: 0.301
# Mean RMSD: 0.273
data_MOF--net-snz--node1-FUNLAD_clean_sbu_0--edge1-EZIPEK_clean_linker_0
_symmetry_space_group_name_H-M    P1
_symmetry_Int_Tables_number       1
_symmetry_cell_setting            triclinic
loop_
_symmetry_equiv_pos_as_xyz
'x, y, z'
_cell_length_a     35.168365
_cell_length_b     40.77979
_cell_length_c     13.19079
_cell_angle_alpha  88.903465
_cell_angle_beta   89.427737
_cell_angle_gamma 120.49654
loop_
_atom_site_label
_atom_site_type_symbol
_atom_site_fract_x
_atom_site_fract_y
_atom_site_fract_z
_atom_type_partial_charge
C0 C -0.00374 0.53445 1.01591 0.0
N1 N 0.1208 0.54424 0.96376 0.0
C2 C 0.12306 0.57541 0.91825 0.0
C3 C 0.11551 0.57479 0.81485 0.0
C4 C 0.10838 0.54277 0.76206 0.0
C5 C 0.12041 0.51782 0.80549 0.0
C6 C 0.12672 0.51911 0.90957 0.0
Zn7 Zn 0.07308 0.51996 0.07398 0.0
C8 C 0.08442 0.57354 0.23003 0.0
N9 N 0.96193 0.46772 0.26902 0.0
C10 C 0.95328 0.49242 0.31737 0.0
C11 C 0.96001 0.4375 0.31941 0.0
C12 C 0.96635 0.43984 0.42345 0.0
C13 C 0.97223 0.47264 0.4699 0.0
C14 C 0.95815 0.49526 0.42141 0.0
Zn15 Zn 0.01097 0.49303 0.16291 0.0
O16 O 0.03505 0.54129 0.99606 0.0
C17 C -0.00236 0.44118 1.00679 0.0
O18 O 0.97658 0.51529 0.09509 0.0
H19 H 0.96481 0.41712 0.27835 0.0
H20 H 0.11983 0.59573 0.9635 0.0
H21 H 0.95301 0.51533 0.27551 0.0
O22 O 0.0381 0.46626 0.99117 0.0
O23 O 0.97749 0.44644 0.07835 0.0
H24 H 0.12606 0.49513 0.94784 0.0
O25 O 0.04604 0.46592 0.22896 0.0
O26 O 0.10913 0.49873 0.14679 0.0
O27 O 0.0458 0.54548 0.24921 0.0
O28 O 0.1054 0.57087 0.15495 0.0
C29 C 0.085 0.47263 0.21083 0.0
H30 H 0.10716 0.59482 0.78198 0.0
H31 H 0.11616 0.49339 0.76481 0.0
H32 H 0.97581 0.42127 0.46082 0.0
H33 H 0.96014 0.51959 0.45826 0.0
C34 C 0.4131 0.46397 0.16335 0.0
N35 N 0.54805 0.50792 0.23336 0.0
C36 C 0.52849 0.47539 0.29187 0.0
C37 C 0.51857 0.47732 0.39367 0.0
C38 C 0.5254 0.51234 0.4269 0.0
C39 C 0.55649 0.54562 0.37328 0.0
C40 C 0.57023 0.5423 0.27711 0.0
Zn41 Zn 0.51221 0.51117 0.11629 0.0
C42 C 0.48974 0.45185 0.96715 0.0
N43 N 0.43211 0.5184 0.88903 0.0
C44 C 0.40932 0.48758 0.83061 0.0
C45 C 0.43445 0.55202 0.86404 0.0
C46 C 0.42344 0.55777 0.76704 0.0
C47 C 0.4165 0.53059 0.69572 0.0
C48 C 0.40037 0.49299 0.73173 0.0
Zn49 Zn 0.46892 0.51451 1.00074 0.0
O50 O 0.4509 0.47283 0.19692 0.0
C51 C 0.49379 0.57596 0.14509 0.0
O52 O 0.41071 0.47795 0.07896 0.0
H53 H 0.44904 0.57582 0.91348 0.0
H54 H 0.51319 0.44798 0.25684 0.0
H55 H 0.40304 0.45986 0.85534 0.0
O56 O 0.51385 0.56033 0.18329 0.0
O57 O 0.47019 0.56111 0.06903 0.0
H58 H 0.58855 0.56784 0.23011 0.0
O59 O 0.53026 0.55253 0.91669 0.0
O60 O 0.56962 0.54732 1.03788 0.0
O61 O 0.4677 0.4665 0.93408 0.0
O62 O 0.51254 0.46546 1.04569 0.0
C63 C 0.56764 0.56075 0.95222 0.0
H64 H 0.4986 0.45131 0.43806 0.0
H65 H 0.56512 0.57367 0.39839 0.0
H66 H 0.42963 0.58568 0.74375 0.0
H67 H 0.39015 0.46961 0.68062 0.0
C68 C 0.54979 0.03033 0.83515 0.0
N69 N 0.4324 0.92908 0.75869 0.0
C70 C 0.46101 0.91823 0.72555 0.0
C71 C 0.48707 0.93653 0.6401 0.0
C72 C 0.47778 0.96072 0.5823 0.0
C73 C 0.43692 0.95844 0.59816 0.0
C74 C 0.41436 0.94236 0.69018 0.0
Zn75 Zn 0.45895 0.96325 0.88323 0.0
C76 C 0.50501 0.93511 1.0184 0.0
N77 N 0.52081 0.03468 0.13042 0.0
C78 C 0.56554 0.0498 0.13194 0.0
C79 C 0.49877 0.03849 0.20981 0.0
C80 C 0.52048 0.05219 0.30037 0.0
C81 C 0.56502 0.06166 0.30753 0.0
C82 C 0.58876 0.06556 0.21884 0.0
Zn83 Zn 0.48781 0.00016 1.01524 0.0
O84 O 0.51935 0.0013 0.79233 0.0
C85 C 0.44021 0.02815 0.89027 0.0
O86 O 0.54415 0.03409 0.9273 0.0
H87 H 0.46358 0.02722 0.2065 0.0
H88 H 0.47043 0.90215 0.77434 0.0
H89 H 0.58347 0.04623 0.07078 0.0
O90 O 0.43261 -0.00066 0.83901 0.0
O91 O 0.46296 0.03564 0.96969 0.0
H92 H 0.38823 0.94736 0.71371 0.0
O93 O 0.42818 0.96492 0.10256 0.0
O94 O 0.40122 0.92755 0.97245 0.0
O95 O 0.51246 0.9644 0.06608 0.0
O96 O 0.48465 0.92815 0.93567 0.0
C97 C 0.39685 0.93511 0.0636 0.0
H98 H 0.51665 0.93513 0.62646 0.0
H99 H 0.4271 0.97467 0.55044 0.0
H100 H 0.50081 0.04992 0.36666 0.0
H101 H 0.62345 0.07452 0.22031 0.0
C102 C 0.54909 0.83172 0.22725 0.0
N103 N 0.6588 0.81797 0.17221 0.0
C104 C 0.67285 0.85421 0.13892 0.0
C105 C 0.65256 0.8596 0.05558 0.0
C106 C 0.62418 0.82789 0.99899 0.0
C107 C 0.62371 0.79359 1.01619 0.0
C108 C 0.64287 0.78956 0.10423 0.0
Zn109 Zn 0.61399 0.80565 0.29089 0.0
C110 C 0.64024 0.86806 0.42441 0.0
N111 N 0.51389 0.7821 0.51238 0.0
C112 C 0.50175 0.80879 0.52384 0.0
C113 C 0.51056 0.75882 0.5911 0.0
C114 C 0.5069 0.76889 0.68907 0.0
C115 C 0.50609 0.80261 0.70276 0.0
C116 C 0.49601 0.81876 0.62077 0.0
Zn117 Zn 0.5581 0.79061 0.39946 0.0
O118 O 0.58355 0.83087 0.20302 0.0
C119 C 0.534 0.72445 0.2777 0.0
O120 O 0.52743 0.81315 0.30595 0.0
H121 H 0.51814 0.73655 0.57989 0.0
H122 H 0.69149 0.87794 0.18752 0.0
H123 H 0.50371 0.82689 0.46091 0.0
O124 O 0.57096 0.74906 0.2377 0.0
O125 O 0.51715 0.73423 0.3481 0.0
H126 H 0.63676 0.76163 0.12694 0.0
O127 O 0.59216 0.77083 0.49489 0.0
O128 O 0.64497 0.78458 0.38178 0.0
O129 O 0.60069 0.84604 0.45559 0.0
O130 O 0.65519 0.8586 0.3503 0.0
C131 C 0.62865 0.77325 0.47057 0.0
H132 H 0.65584 0.88717 1.04113 0.0
H133 H 0.60431 0.76915 0.96985 0.0
H134 H 0.51282 0.75468 0.75198 0.0
H135 H 0.49361 0.84401 0.62997 0.0
C136 C 0.08148 0.76704 0.53882 0.0
N137 N 0.2115 0.79139 0.60299 0.0
C138 C 0.18658 0.75638 0.64807 0.0
C139 C 0.16488 0.7534 0.73913 0.0
C140 C 0.17336 0.78693 0.78621 0.0
C141 C 0.211 0.82136 0.75532 0.0
C142 C 0.23045 0.82284 0.66106 0.0
Zn143 Zn 0.17813 0.79593 0.48033 0.0
C144 C 0.13916 0.7265 0.35487 0.0
N145 N 0.10263 0.8027 0.24531 0.0
C146 C 0.06036 0.77359 0.23399 0.0
C147 C 0.12193 0.83225 0.17724 0.0
C148 C 0.10262 0.82892 0.0841 0.0
C149 C 0.06419 0.79426 0.06249 0.0
C150 C 0.03898 0.77048 0.14382 0.0
Zn151 Zn 0.1389 0.7999 0.35718 0.0
O152 O 0.11771 0.77308 0.57594 0.0
C153 C 0.17507 0.86811 0.4809 0.0
O154 O 0.08124 0.773 0.44526 0.0
H155 H 0.15442 0.85624 0.19035 0.0
H156 H 0.17548 0.73093 0.6053 0.0
H157 H 0.04451 0.75064 0.28978 0.0
O158 O 0.19373 0.85176 0.52233 0.0
O159 O 0.15013 0.85275 0.4067 0.0
H160 H 0.25359 0.85034 0.62685 0.0
O161 O 0.19941 0.82954 0.26912 0.0
O162 O 0.23623 0.81974 0.38712 0.0
O163 O 0.12608 0.7456 0.30425 0.0
O164 O 0.16128 0.74045 0.43394 0.0
C165 C 0.23587 0.83413 0.30092 0.0
H166 H 0.138 0.7258 0.76469 0.0
H167 H 0.22014 0.8475 0.7938 0.0
H168 H 0.12215 0.84971 1.02489 0.0
H169 H 0.00691 0.74566 0.13243 0.0
C170 C 0.24966 0.36866 0.38936 0.0
N171 N 0.13074 0.26993 0.32017 0.0
C172 C 0.09825 0.26912 0.26364 0.0
C173 C 0.08921 0.25176 0.17059 0.0
C174 C 0.11722 0.2389 0.13586 0.0
C175 C 0.13663 0.22736 0.20903 0.0
C176 C 0.14628 0.24607 0.30037 0.0
Zn177 Zn 0.15601 0.3082 0.43016 0.0
C178 C 0.19598 0.28174 0.58432 0.0
N179 N 0.20614 0.38496 0.66948 0.0
C180 C 0.17621 0.39011 0.72235 0.0
C181 C 0.23794 0.38188 0.71838 0.0
C182 C 0.22918 0.36772 0.81754 0.0
C183 C 0.19024 0.36162 0.86606 0.0
C184 C 0.16901 0.37996 0.8254 0.0
Zn185 Zn 0.18239 0.34868 0.55199 0.0
O186 O 0.21988 0.3366 0.35784 0.0
C187 C 0.14302 0.37548 0.39931 0.0
O188 O 0.24237 0.38219 0.46844 0.0
H189 H 0.26352 0.38072 0.67519 0.0
H190 H 0.08275 0.28509 0.28524 0.0
H191 H 0.15241 0.3946 0.68261 0.0
O192 O 0.14056 0.34739 0.35253 0.0
O193 O 0.15733 0.38154 0.48885 0.0
H194 H 0.16942 0.24419 0.34904 0.0
O195 O 0.11978 0.31273 0.6335 0.0
O196 O 0.09434 0.28048 0.49556 0.0
O197 O 0.20845 0.3147 0.61658 0.0
O198 O 0.1709 0.27054 0.50914 0.0
C199 C 0.08793 0.28631 0.58586 0.0
H200 H 0.06914 0.25719 0.11891 0.0
H201 H 0.15327 0.2122 0.18804 0.0
H202 H 0.24851 0.35624 0.84893 0.0
H203 H 0.14163 0.37936 0.86548 0.0
C204 C 0.30575 0.15061 1.01883 0.0
N205 N 0.3907 0.23388 0.77351 0.0
C206 C 0.37997 0.25232 0.84275 0.0
C207 C 0.40736 0.29072 0.85767 0.0
C208 C 0.44689 0.31089 0.802 0.0
C209 C 0.45832 0.29167 0.73161 0.0
C210 C 0.42911 0.25257 0.71784 0.0
Zn211 Zn 0.34043 0.17879 0.76555 0.0
C212 C 0.36179 0.11979 0.78654 0.0
N213 N 0.2266 0.07088 0.76477 0.0
C214 C 0.22798 0.04342 0.82208 0.0
C215 C 0.20401 0.06258 0.67695 0.0
C216 C 0.18878 0.02724 0.63415 0.0
C217 C 0.19516 5e-05 0.6852 0.0
C218 C 0.21183 0.00716 0.78357 0.0
Zn219 Zn 0.27782 0.12502 0.77136 0.0
O220 O 0.33638 0.17681 0.95924 0.0
C221 C 0.25614 0.18343 0.74775 0.0
O222 O 0.2747 0.12426 0.9647 0.0
H223 H 0.20293 0.08481 0.63347 0.0
H224 H 0.34927 0.23743 0.8856 0.0
H225 H 0.24663 0.05088 0.891 0.0
O226 O 0.29783 0.20133 0.74999 0.0
O227 O 0.23497 0.14751 0.76053 0.0
H228 H 0.43684 0.23739 0.66268 0.0
O229 O 0.28228 0.12674 0.57829 0.0
O230 O 0.34378 0.17954 0.57234 0.0
O231 O 0.32006 0.10196 0.78072 0.0
O232 O 0.38301 0.15599 0.7788 0.0
C233 C 0.31272 0.15301 0.51857 0.0
H234 H 0.39763 0.30472 0.91255 0.0
H235 H 0.48894 0.30668 0.68789 0.0
H236 H 0.17537 0.02223 0.5587 0.0
H237 H 0.21671 0.98642 0.8249 0.0
C238 C 0.81663 0.17019 0.43891 0.0
N239 N 0.7909 0.08263 0.68117 0.0
C240 C 0.76422 0.07084 0.59986 0.0
C241 C 0.74418 0.03388 0.56955 0.0
C242 C 0.74809 0.00701 0.62793 0.0
C243 C 0.77439 0.01871 0.7147 0.0
C244 C 0.79656 0.05749 0.73929 0.0
Zn245 Zn 0.81315 0.13923 0.69503 0.0
C246 C 0.90399 0.19018 0.68355 0.0
N247 N 0.83992 0.2517 0.69541 0.0
C248 C 0.83297 0.27685 0.64054 0.0
C249 C 0.87001 0.26396 0.77006 0.0
C250 C 0.89478 0.30177 0.79235 0.0
C251 C 0.88829 0.32833 0.73971 0.0
C252 C 0.85689 0.31598 0.66261 0.0
Zn253 Zn 0.81681 0.19432 0.68429 0.0
O254 O 0.81664 0.14436 0.49887 0.0
C255 C 0.72564 0.14163 0.69888 0.0
O256 O 0.81685 0.19689 0.49236 0.0
H257 H 0.87591 0.24439 0.81202 0.0
H258 H 0.7564 0.08968 0.5599 0.0
H259 H 0.80933 0.26679 0.58032 0.0
O260 O 0.74556 0.12308 0.70107 0.0
O261 O 0.74831 0.17779 0.68938 0.0
H262 H 0.81696 0.06715 0.80544 0.0
O263 O 0.81486 0.19016 0.87984 0.0
O264 O 0.81192 0.13641 0.88692 0.0
O265 O 0.88537 0.20985 0.67637 0.0
O266 O 0.88004 0.15434 0.69479 0.0
C267 C 0.81351 0.16376 0.94006 0.0
H268 H 0.72356 0.02591 0.50341 0.0
H269 H 0.77731 -0.00174 0.76253 0.0
H270 H 0.91839 0.31019 0.85281 0.0
H271 H 0.85089 0.33604 0.62125 0.0
C272 C 0.83861 0.69308 1.04666 0.0
N273 N 0.84924 0.62065 0.8052 0.0
C274 C 0.87504 0.62426 0.88516 0.0
C275 C 0.89572 0.60332 0.8921 0.0
C276 C 0.89153 0.57925 0.8141 0.0
C277 C 0.86442 0.57507 0.73208 0.0
C278 C 0.84305 0.59627 0.72937 0.0
Zn279 Zn 0.83648 0.66385 0.79695 0.0
C280 C 0.74754 0.64594 0.81121 0.0
N281 N 0.82805 0.76263 0.78652 0.0
C282 C 0.83564 0.78052 0.69417 0.0
C283 C 0.79514 0.75885 0.84979 0.0
C284 C 0.76293 0.766 0.81292 0.0
C285 C 0.76592 0.77807 0.71159 0.0
C286 C 0.80423 0.78813 0.65413 0.0
Zn287 Zn 0.83946 0.71844 0.795 0.0
O288 O 0.83557 0.66575 0.99121 0.0
C289 C 0.92885 0.73498 0.78007 0.0
O290 O 0.84168 0.72059 0.98823 0.0
H291 H 0.78946 0.74426 0.92245 0.0
H292 H 0.88331 0.64594 0.93953 0.0
H293 H 0.86234 0.78369 0.64572 0.0
O294 O 0.90531 0.69911 0.78678 0.0
O295 O 0.90946 0.75415 0.78298 0.0
H296 H 0.82384 0.59492 0.66443 0.0
O297 O 0.83732 0.71589 0.60223 0.0
O298 O 0.83614 0.66287 0.60395 0.0
O299 O 0.76954 0.68202 0.805 0.0
O300 O 0.76763 0.62745 0.80614 0.0
C301 C 0.83676 0.68959 0.54649 0.0
H302 H 0.91701 0.60754 0.95549 0.0
H303 H 0.86101 0.55672 0.6703 0.0
H304 H 0.73376 0.75824 0.85907 0.0
H305 H 0.80753 0.79794 0.57589 0.0
C306 C 0.02837 0.50681 0.7174 0.0
C307 C 0.07373 0.52748 0.68564 0.0
C308 C 0.05243 0.51042 0.51321 0.0
C309 C 0.00696 0.49106 0.54488 0.0
N310 N 0.95152 0.47743 0.67287 0.0
N311 N 0.12856 0.55556 0.55225 0.0
C312 C -0.00512 0.49165 0.64563 0.0
C313 C 0.08571 0.5313 0.58301 0.0
N314 N 0.0174 0.49938 0.81698 0.0
N315 N 0.06379 0.50886 0.41585 0.0
H316 H 0.15371 0.57091 0.60306 0.0
H317 H 0.13863 0.5631 0.47668 0.0
H318 H 0.04028 0.49772 0.3612 0.0
H319 H 0.09573 0.5178 0.39051 0.0
H320 H 0.98554 0.4814 0.84522 0.0
H321 H 0.04162 0.50814 0.86973 0.0
H322 H 0.9413 0.48149 0.74338 0.0
H323 H 0.92569 0.46392 0.6225 0.0
C324 C 0.4267 0.51734 0.5222 0.0
C325 C 0.44524 0.54191 0.60319 0.0
C326 C 0.51516 0.54367 0.57516 0.0
C327 C 0.49528 0.5155 0.50119 0.0
N328 N 0.42638 0.47144 0.4169 0.0
N329 N 0.51437 0.59204 0.67004 0.0
C330 C 0.44992 0.50141 0.47739 0.0
C331 C 0.49143 0.55937 0.61824 0.0
N332 N 0.38445 0.50598 0.49575 0.0
N333 N 0.5577 0.55658 0.60263 0.0
H334 H 0.50126 0.60855 0.69385 0.0
H335 H 0.50126 0.60855 0.69385 0.0
H336 H 0.57578 0.5444 0.5768 0.0
H337 H 0.57379 0.57817 0.65456 0.0
H338 H 0.36826 0.48668 0.43854 0.0
H339 H 0.36684 0.5173 0.52992 0.0
H340 H 0.43733 0.4541 0.38796 0.0
H341 H 0.43733 0.4541 0.38796 0.0
C342 C 0.52899 0.03144 0.54597 0.0
C343 C 0.5141 -0.00748 0.52218 0.0
C344 C 0.57528 0.01553 0.40029 0.0
C345 C 0.5792 0.0516 0.4023 0.0
N346 N 0.58408 0.0984 0.51297 0.0
N347 N 0.52346 0.94824 0.41913 0.0
C348 C 0.56504 0.06099 0.48982 0.0
C349 C 0.53802 0.98458 0.44865 0.0
N350 N 0.50734 0.04074 0.61523 0.0
N351 N 0.60612 0.0111 0.34915 0.0
H352 H 0.49409 0.92488 0.44671 0.0
H353 H 0.53825 0.94192 0.35968 0.0
H354 H 0.63442 0.03451 0.31742 0.0
H355 H 0.60589 0.98545 0.34864 0.0
H356 H 0.51182 0.06793 0.61623 0.0
H357 H 0.4834 0.02172 0.66652 0.0
H358 H 0.57803 0.10779 0.58087 0.0
H359 H 0.6092 0.11943 0.46638 0.0
C360 C 0.57769 0.85104 0.76983 0.0
C361 C 0.53186 0.82624 0.78784 0.0
C362 C 0.54587 0.80843 0.95292 0.0
C363 C 0.59228 0.82972 0.93002 0.0
N364 N 0.65219 0.87986 0.82904 0.0
N365 N 0.47207 0.79441 0.90571 0.0
C366 C 0.6081 0.85429 0.84355 0.0
C367 C 0.51615 0.81043 0.88466 0.0
N368 N 0.59281 0.86746 0.67667 0.0
N369 N 0.52992 0.78481 1.03622 0.0
H370 H 0.45102 0.79579 0.85262 0.0
H371 H 0.45699 0.78262 0.97566 0.0
H372 H 0.54963 0.77998 0.08498 0.0
H373 H 0.49655 0.76841 1.0546 0.0
H374 H 0.62431 0.87494 0.65161 0.0
H375 H 0.57354 0.87166 0.62482 0.0
H376 H 0.66429 0.90219 0.77534 0.0
H377 H 0.67683 0.87965 0.87159 0.0
C378 C 0.12066 0.75897 0.93307 0.0
C379 C 0.13804 0.78583 0.85123 0.0
C380 C 0.07946 0.80107 0.88032 0.0
C381 C 0.06581 0.77677 0.96645 0.0
N382 N 0.05391 0.71601 1.02678 0.0
N383 N 0.12661 0.82618 0.73179 0.0
C384 C 0.0797 0.7499 0.9764 0.0
C385 C 0.11514 0.80494 0.81957 0.0
N386 N 0.14355 0.74285 0.97117 0.0
N387 N 0.06088 0.82305 0.86444 0.0
H388 H 0.15286 0.83111 0.68514 0.0
H389 H 0.10775 0.83667 0.7011 0.0
H390 H 0.03395 0.81894 0.90892 0.0
H391 H 0.07251 0.84554 0.81162 0.0
H392 H 0.13309 0.72525 1.03621 0.0
H393 H 0.17498 0.75027 0.94413 0.0
H394 H 0.06219 0.69483 1.03126 0.0
H395 H 0.02174 0.7073 1.05057 0.0
C396 C 0.12915 0.29479 0.91469 0.0
C397 C 0.16837 0.32927 0.94089 0.0
C398 C 0.18553 0.29325 0.06249 0.0
C399 C 0.14411 0.26028 1.04497 0.0
N400 N 0.0872 0.22554 0.92873 0.0
N401 N 0.22787 0.36198 0.05643 0.0
C402 C 0.11988 0.25985 0.96115 0.0
C403 C 0.19455 0.32861 1.02055 0.0
N404 N 0.09871 0.29516 0.85242 0.0
N405 N 0.21747 0.29023 0.11227 0.0
H406 H 0.23436 0.38847 1.02812 0.0
H407 H 0.24563 0.36323 0.12046 0.0
H408 H 0.21424 0.26394 0.13012 0.0
H409 H 0.24929 0.31315 0.1215 0.0
H410 H 0.06746 0.27146 0.84439 0.0
H411 H 0.10128 0.31938 0.81944 0.0
H412 H 0.07062 0.22212 0.86118 0.0
H413 H 0.08038 0.20014 0.9656 0.0
C414 C 0.2946 0.1183 0.32961 0.0
C415 C 0.31097 0.15254 0.3895 0.0
C416 C 0.32342 0.18529 0.20803 0.0
C417 C 0.30713 0.15103 0.14809 0.0
N418 N 0.27043 0.08292 0.17021 0.0
N419 N 0.34515 0.22041 0.36854 0.0
C420 C 0.29091 0.11736 0.21537 0.0
C421 C 0.32649 0.18616 0.3225 0.0
N422 N 0.2853 0.08573 0.38179 0.0
N423 N 0.33287 0.21785 0.15554 0.0
H424 H 0.34379 0.22276 0.44674 0.0
H425 H 0.364 0.24653 0.33055 0.0
H426 H 0.32995 0.21881 0.07726 0.0
H427 H 0.33924 0.24295 0.18905 0.0
H428 H 0.27924 0.06079 0.34766 0.0
H429 H 0.28815 0.08462 0.4601 0.0
H430 H 0.25127 0.0571 0.20943 0.0
H431 H 0.26991 0.08015 0.092 0.0
C432 C 0.7886 0.13442 0.25257 0.0
C433 C 0.81601 0.16867 0.30999 0.0
C434 C 0.84131 0.19965 0.12644 0.0
C435 C 0.81405 0.16535 0.06899 0.0
N436 N 0.76473 0.09807 0.09444 0.0
N437 N 0.86493 0.23597 0.28479 0.0
C438 C 0.78897 0.13254 0.13818 0.0
C439 C 0.84094 0.2015 0.24087 0.0
N440 N 0.75829 0.10316 0.3078 0.0
N441 N 0.87135 0.23106 0.07122 0.0
H442 H 0.86948 0.23873 0.3627 0.0
H443 H 0.87811 0.26195 0.24547 0.0
H444 H 0.87414 0.23125 0.9926 0.0
H445 H 0.89646 0.25566 0.10254 0.0
H446 H 0.73299 0.07865 0.27652 0.0
H447 H 0.75546 0.10313 0.38637 0.0
H448 H 0.7515 0.07211 0.1339 0.0
H449 H 0.75988 0.09527 1.01665 0.0
C450 C 0.81308 0.70345 0.35485 0.0
C451 C 0.83716 0.69045 0.41759 0.0
C452 C 0.86019 0.67728 0.23926 0.0
C453 C 0.8384 0.69255 0.17599 0.0
N454 N 0.79737 0.72485 0.19196 0.0
N455 N 0.89116 0.67136 0.40193 0.0
C456 C 0.81627 0.70702 0.24031 0.0
C457 C 0.86215 0.67884 0.35361 0.0
N458 N 0.78401 0.71062 0.40478 0.0
N459 N 0.88037 0.66096 0.18992 0.0
H460 H 0.89457 0.67262 0.48036 0.0
H461 H 0.91498 0.66783 0.36451 0.0
H462 H 0.88484 0.66282 0.11156 0.0
H463 H 0.89058 0.6439 0.22601 0.0
H464 H 0.76085 0.7152 0.36874 0.0
H465 H 0.7799 0.70814 0.48341 0.0
H466 H 0.78673 0.7412 0.22887 0.0
H467 H 0.79494 0.72545 0.11351 0.0
C468 C 0.08591 0.3844 0.30948 0.0
C469 C 0.12851 0.40067 0.35142 0.0
C470 C 0.14117 0.46474 0.31032 0.0
C471 C 0.10055 0.44819 0.25868 0.0
N472 N 0.03935 0.39186 0.18916 0.0
N473 N 0.19942 0.45674 0.38034 0.0
C474 C 0.07431 0.4079 0.25277 0.0
C475 C 0.15687 0.44098 0.34898 0.0
N476 N 0.05552 0.34681 0.32798 0.0
N477 N 0.16413 0.50305 0.32594 0.0
H478 H 0.21238 0.44094 0.41142 0.0
H479 H 0.22317 0.48532 0.36795 0.0
H480 H 0.1546 0.52173 0.29741 0.0
H481 H 0.19074 0.51601 0.37429 0.0
H482 H 0.02255 0.33448 0.30807 0.0
H483 H 0.06181 0.32891 0.37317 0.0
H484 H 0.02205 0.3629 0.17413 0.0
H485 H 0.03061 0.4078 0.1427 0.0
C486 C 0.50077 0.61935 0.28808 0.0
C487 C 0.50052 0.61283 0.18256 0.0
C488 C 0.50603 0.67423 0.14782 0.0
C489 C 0.51481 0.68383 0.25045 0.0
N490 N 0.52618 0.66632 0.4189 0.0
N491 N 0.51498 0.64028 1.01158 0.0
C492 C 0.51354 0.65656 0.32126 0.0
C493 C 0.50637 0.64194 0.11197 0.0
N494 N 0.4872 0.58993 0.35672 0.0
N495 N 0.4957 0.69532 0.08536 0.0
H496 H 0.51993 0.61917 0.98231 0.0
H497 H 0.52277 0.6626 0.9599 0.0
H498 H 0.48976 0.71574 0.11532 0.0
H499 H 0.48639 0.68844 1.01038 0.0
H500 H 0.48285 0.59279 0.43348 0.0
H501 H 0.47546 0.56198 0.33545 0.0
H502 H 0.5308 0.64882 0.46974 0.0
H503 H 0.53537 0.69298 0.44697 0.0
C504 C 0.35826 0.90159 0.2295 0.0
C505 C 0.35588 0.90859 0.12441 0.0
C506 C 0.27718 0.85958 0.13269 0.0
C507 C 0.27789 0.85826 0.24047 0.0
N508 N 0.32001 0.88836 0.39073 0.0
N509 N 0.3083 0.9001 0.98315 0.0
C510 C 0.31865 0.88212 0.28907 0.0
C511 C 0.31398 0.88925 0.07775 0.0
N512 N 0.39783 0.91197 0.27266 0.0
N513 N 0.24229 0.83195 0.08181 0.0
H514 H 0.33301 0.92371 0.94295 0.0
H515 H 0.27738 0.88853 0.95045 0.0
H516 H 0.21639 0.80789 0.11803 0.0
H517 H 0.24211 0.83053 1.00294 0.0
H518 H 0.40021 0.90465 0.34758 0.0
H519 H 0.42737 0.92326 0.23107 0.0
H520 H 0.34887 0.9081 0.42593 0.0
H521 H 0.29208 0.87809 0.4375 0.0
C522 C 0.44213 0.08251 0.79071 0.0
C523 C 0.42045 0.05167 0.86202 0.0
C524 C 0.36599 0.07073 0.8965 0.0
C525 C 0.38379 0.09791 0.81432 0.0
N526 N 0.4353 0.12533 0.67255 0.0
N527 N 0.35811 0.01319 0.97401 0.0
C528 C 0.42106 0.10277 0.75859 0.0
C529 C 0.38114 0.04471 0.91192 0.0
N530 N 0.48361 0.09339 0.75632 0.0
N531 N 0.33666 0.07133 0.96407 0.0
H532 H 0.36881 -0.00599 0.98935 0.0
H533 H 0.32667 0.00444 1.0034 0.0
H534 H 0.32735 0.09183 0.96049 0.0
H535 H 0.32574 0.05455 1.03041 0.0
H536 H 0.50322 0.11837 0.71371 0.0
H537 H 0.49948 0.07875 0.77743 0.0
H538 H 0.45953 0.12669 0.62356 0.0
H539 H 0.42017 0.13993 0.645 0.0
C540 C 0.89585 0.37154 0.87121 0.0
C541 C 0.9126 0.3674 0.7784 0.0
C542 C -0.01168 0.40923 0.83555 0.0
C543 C 0.97096 0.41062 0.93271 0.0
N544 N 0.90879 0.37677 1.04992 0.0
N545 N 0.97283 0.38786 0.66083 0.0
C546 C 0.92474 0.38743 0.95264 0.0
C547 C 0.95847 0.38874 0.75667 0.0
N548 N 0.8516 0.35728 0.88335 0.0
N549 N 0.03262 0.42371 0.82209 0.0
H550 H 0.95058 0.37236 0.6045 0.0
H551 H 0.00539 0.40428 0.6349 0.0
H552 H 0.05405 0.43156 0.88254 0.0
H553 H 0.04764 0.42351 0.75403 0.0
H554 H 0.83767 0.36162 0.94816 0.0
H555 H 0.82999 0.34466 0.82374 0.0
H556 H 0.8756 0.35785 0.06768 0.0
H557 H 0.92951 0.38183 0.11103 0.0
C558 C 0.66904 0.59467 0.7814 0.0
C559 C 0.69969 0.62639 0.83698 0.0
C560 C 0.63887 0.62145 0.94148 0.0
C561 C 0.60974 0.58624 0.89765 0.0
N562 N 0.59834 0.53616 0.78578 0.0
N563 N 0.71423 0.66497 0.98525 0.0
C564 C 0.62499 0.57207 0.81948 0.0
C565 C 0.68476 0.63891 0.92036 0.0
N566 N 0.6817 0.58648 0.69169 0.0
N567 N 0.62274 0.63759 1.00585 0.0
H568 H 0.74813 0.67595 0.9793 0.0
H569 H 0.7048 0.67224 1.05235 0.0
H570 H 0.58923 0.62482 1.02467 0.0
H571 H 0.64191 0.66507 1.03244 0.0
H572 H 0.65953 0.5657 0.64372 0.0
H573 H 0.71351 0.60296 0.6606 0.0
H574 H 0.60937 0.52266 0.73738 0.0
H575 H 0.56587 0.51906 0.81172 0.0
C576 C 0.96448 0.58502 0.81733 0.0
C577 C 0.91817 0.56078 0.82164 0.0
C578 C 0.9269 0.51408 0.91999 0.0
C579 C 0.97128 0.54274 0.93985 0.0
N580 N 0.0322 0.60703 0.90781 0.0
N581 N 0.85439 0.50102 0.87193 0.0
C582 C -0.00937 0.57839 0.88649 0.0
C583 C 0.89916 0.52453 0.86953 0.0
N584 N 0.98273 0.61548 0.7509 0.0
N585 N 0.91161 0.47679 0.94628 0.0
H586 H 0.83343 0.50728 0.83139 0.0
H587 H 0.83815 0.47638 0.91756 0.0
H588 H 0.93147 0.46736 0.97777 0.0
H589 H 0.88091 0.45462 0.92513 0.0
H590 H 0.01664 0.6324 0.73758 0.0
H591 H 0.96334 0.62094 0.70181 0.0
H592 H 0.04583 0.63462 0.87767 0.0
H593 H 0.05162 0.60453 0.96295 0.0
C594 C 0.48235 0.41471 0.80847 0.0
C595 C 0.488 0.41872 0.91571 0.0
C596 C 0.49195 0.36041 0.92192 0.0
C597 C 0.47496 0.35182 0.82362 0.0
N598 N 0.45322 0.37046 0.67094 0.0
N599 N 0.48845 0.38867 0.07683 0.0
C600 C 0.47066 0.37917 0.76535 0.0
C601 C 0.49121 0.39023 0.97326 0.0
N602 N 0.48871 0.44457 0.74723 0.0
N603 N 0.50538 0.338 0.96867 0.0
H604 H 0.48089 0.40588 0.11926 0.0
H605 H 0.48717 0.3665 0.1203 0.0
H606 H 0.50496 0.31535 0.93189 0.0
H607 H 0.52099 0.34447 1.03831 0.0
H608 H 0.48883 0.44373 0.66832 0.0
H609 H 0.49849 0.47151 0.77356 0.0
H610 H 0.44383 0.38724 0.63011 0.0
H611 H 0.44612 0.34531 0.63588 0.0
C612 C 0.65327 0.0845 0.66045 0.0
C613 C 0.67655 0.11928 0.71215 0.0
C614 C 0.60988 0.09967 0.81553 0.0
C615 C 0.59093 0.06139 0.78194 0.0
N616 N 0.5995 0.01736 0.67695 0.0
N617 N 0.67729 0.1582 0.84889 0.0
C618 C 0.61361 0.05379 0.70444 0.0
C619 C 0.6548 0.12673 0.79139 0.0
N620 N 0.66977 0.08085 0.56996 0.0
N621 N 0.58514 0.1108 0.86941 0.0
H622 H 0.71004 0.17915 0.8348 0.0
H623 H 0.66417 0.16198 0.9159 0.0
H624 H 0.5519 0.09292 0.88786 0.0
H625 H 0.59649 0.13915 0.886 0.0
H626 H 0.65345 0.05704 0.52525 0.0
H627 H 0.69762 0.10366 0.53472 0.0
H628 H 0.61628 0.01056 0.62386 0.0
H629 H 0.57361 -0.00644 0.7135 0.0
C630 C 0.48179 0.87132 0.10219 0.0
C631 C 0.51604 0.90742 0.06472 0.0
C632 C 0.57092 0.89535 0.14246 0.0
C633 C 0.53728 0.85737 0.16997 0.0
N634 N 0.4606 0.80776 0.16353 0.0
N635 N 0.59348 0.95078 1.03249 0.0
C636 C 0.49264 0.84495 0.1464 0.0
C637 C 0.56067 0.9184 0.07948 0.0
N638 N 0.43885 0.86275 0.09953 0.0
N639 N 0.61195 0.91079 0.1829 0.0
H640 H 0.58717 0.96848 0.98629 0.0
H641 H 0.62648 0.958 1.0315 0.0
H642 H 0.62056 0.89654 0.23569 0.0
H643 H 0.63599 0.93945 0.17355 0.0
H644 H 0.41297 0.83915 0.13712 0.0
H645 H 0.42935 0.88089 0.06694 0.0
H646 H 0.42838 0.79626 0.13886 0.0
H647 H 0.46693 0.78718 0.19307 0.0
C648 C 0.15677 0.67985 0.2763 0.0
C649 C 0.12616 0.68704 0.32726 0.0
C650 C 0.07447 0.61826 0.34697 0.0
C651 C 0.10226 0.61101 0.28357 0.0
N652 N 0.17799 0.63355 0.23508 0.0
N653 N 0.05443 0.66363 0.4055 0.0
C654 C 0.14589 0.6415 0.26119 0.0
C655 C 0.08461 0.65638 0.36099 0.0
N656 N 0.19568 0.70975 0.2392 0.0
N657 N 0.04131 0.58924 0.40313 0.0
H658 H 0.06107 0.69105 0.42047 0.0
H659 H 0.02166 0.64269 0.42022 0.0
H660 H 0.03844 0.56268 0.40956 0.0
H661 H 0.02192 0.59294 0.45657 0.0
H662 H 0.21717 0.70658 0.19105 0.0
H663 H 0.20482 0.73811 0.24979 0.0
H664 H 0.21117 0.65419 0.22512 0.0
H665 H 0.17257 0.60591 0.23813 0.0
C666 C 0.36214 0.40295 0.26255 0.0
C667 C 0.37181 0.43915 0.22318 0.0
C668 C 0.29828 0.42522 0.27777 0.0
C669 C 0.29114 0.39179 0.32949 0.0
N670 N 0.3192 0.35162 0.38502 0.0
N671 N 0.35255 0.48831 0.2169 0.0
C672 C 0.32391 0.38136 0.32587 0.0
C673 C 0.34083 0.45133 0.23732 0.0
N674 N 0.38844 0.38858 0.23689 0.0
N675 N 0.26395 0.43133 0.26341 0.0
H676 H 0.38432 0.50919 0.19332 0.0
H677 H 0.33219 0.49915 0.23502 0.0
H678 H 0.23169 0.41148 0.28659 0.0
H679 H 0.26663 0.4537 0.21825 0.0
H680 H 0.38055 0.36086 0.25568 0.0
H681 H 0.41595 0.40305 0.18856 0.0
H682 H 0.34405 0.34503 0.39297 0.0
H683 H 0.29194 0.33575 0.43338 0.0
C684 C 0.7019 0.74215 0.59784 0.0
C685 C 0.72627 0.77377 0.66085 0.0
C686 C 0.67528 0.79641 0.62447 0.0
C687 C 0.65589 0.76873 0.54817 0.0
N688 N 0.65016 0.71511 0.46102 0.0
N689 N 0.73843 0.8323 0.73094 0.0
C690 C 0.66887 0.74137 0.535 0.0
C691 C 0.71325 0.80101 0.6744 0.0
N692 N 0.70974 0.71254 0.59993 0.0
N693 N 0.65787 0.81859 0.6489 0.0
H694 H 0.76606 0.83625 0.76991 0.0
H695 H 0.73409 0.85571 0.73324 0.0
H696 H 0.63098 0.81734 0.61321 0.0
H697 H 0.66786 0.83617 0.71092 0.0
H698 H 0.69027 0.68706 0.56343 0.0
H699 H 0.7335 0.712 0.6455 0.0
H700 H 0.66196 0.69749 0.43868 0.0
H701 H 0.62378 0.71215 0.41849 0.0
C702 C 0.1468 0.93671 0.60799 0.0
C703 C 0.18971 0.96661 0.63014 0.0
C704 C 0.2226 0.9351 0.53691 0.0
C705 C 0.17981 0.90329 0.52438 0.0
N706 N 0.10079 0.87263 0.55039 0.0
N707 N 0.26902 -0.0047 0.61704 0.0
C708 C 0.14175 0.90403 0.55899 0.0
C709 C 0.2278 0.96606 0.59513 0.0
N710 N 0.11085 0.93954 0.63447 0.0
N711 N 0.25792 0.93655 0.48791 0.0
H712 H 0.27471 0.02032 0.65042 0.0
H713 H 0.29774 -0.00574 0.60636 0.0
H714 H 0.25477 0.91511 0.44073 0.0
H715 H 0.2896 0.96026 0.48553 0.0
H716 H 0.07917 0.92164 0.6086 0.0
H717 H 0.11287 0.96132 0.67845 0.0
H718 H 0.0723 0.86961 0.58391 0.0
H719 H 0.09542 0.84768 0.51811 0.0
C720 C 0.97692 0.19731 0.62155 0.0
C721 C 0.95321 0.2104 0.67935 0.0
C722 C 0.01953 0.27351 0.68568 0.0
C723 C 0.04389 0.26004 0.6329 0.0
N724 N 0.04878 0.20522 0.58634 0.0
N725 N 0.95933 0.25477 0.80539 0.0
C726 C 0.02357 0.22056 0.61294 0.0
C727 C 0.97686 0.24665 0.72383 0.0
N728 N 0.95558 0.16437 0.56935 0.0
N729 N 0.03575 0.31154 0.69642 0.0
H730 H 0.93071 0.23366 0.84249 0.0
H731 H 0.97645 0.28025 0.8437 0.0
H732 H 0.06636 0.33243 0.66675 0.0
H733 H 0.01683 0.32208 0.72765 0.0
H734 H 0.97195 0.15627 0.51834 0.0
H735 H 0.92144 0.14691 0.56888 0.0
H736 H 0.03565 0.17605 0.57854 0.0
H737 H 0.08321 0.2211 0.58423 0.0
C738 C 0.22859 0.22865 0.77678 0.0
C739 C 0.23455 0.20443 0.71132 0.0
C740 C 0.22391 0.23629 0.5647 0.0
C741 C 0.21147 0.25676 0.62982 0.0
N742 N 0.19592 0.26782 0.80033 0.0
N743 N 0.22951 0.1802 0.5435 0.0
C744 C 0.21235 0.25186 0.73674 0.0
C745 C 0.2291 0.20645 0.60556 0.0
N746 N 0.23873 0.22966 0.87687 0.0
N747 N 0.23434 0.24726 0.46498 0.0
H748 H 0.23274 0.15763 0.5708 0.0
H749 H 0.22196 0.17858 0.46687 0.0
H750 H 0.23529 0.27138 0.43414 0.0
H751 H 0.24756 0.23551 0.41653 0.0
H752 H 0.24051 0.25008 0.92594 0.0
H753 H 0.24828 0.21147 0.90931 0.0
H754 H 0.19351 0.26308 0.87826 0.0
H755 H 0.18086 0.28269 0.77496 0.0
C756 C 0.71216 0.91176 0.50911 0.0
C757 C 0.66937 0.90328 0.4784 0.0
C758 C 0.67516 0.95338 0.58482 0.0
C759 C 0.7206 0.96694 0.59797 0.0
N760 N 0.7843 0.96122 0.56031 0.0
N761 N 0.61504 0.92292 0.46954 0.0
C762 C 0.73979 0.94667 0.55725 0.0
C763 C 0.6525 0.92645 0.51008 0.0
N764 N 0.72598 0.88621 0.49664 0.0
N765 N 0.65382 0.9664 0.64379 0.0
H766 H 0.59815 0.9043 0.41156 0.0
H767 H 0.60336 0.94109 0.48748 0.0
H768 H 0.66983 0.98597 0.70064 0.0
H769 H 0.61962 0.95426 0.64363 0.0
H770 H 0.75505 0.8899 0.52739 0.0
H771 H 0.70659 0.85958 0.46563 0.0
H772 H 0.8002 0.94939 0.52138 0.0
H773 H 0.80566 0.98657 0.59551 0.0
C774 C -0.00781 0.77953 0.66739 0.0
C775 C 0.97594 0.75143 0.74518 0.0
C776 C 0.03133 0.7343 0.69358 0.0
C777 C 0.04179 0.75803 0.60465 0.0
N778 N 0.01661 0.79214 0.49416 0.0
N779 N 0.98421 0.7055 0.84423 0.0
C780 C 0.01782 0.77742 0.58729 0.0
C781 C -0.00272 0.73012 0.76236 0.0
N782 N 0.98338 0.80848 0.66953 0.0
N783 N 0.0527 0.71464 0.71032 0.0
H784 H 0.96381 0.70583 0.9018 0.0
H785 H -0.00675 0.68508 0.85561 0.0
H786 H 0.07167 0.71149 0.65439 0.0
H787 H 0.05174 0.7014 0.77927 0.0
H788 H -0.00405 0.83063 0.61533 0.0
H789 H 0.96926 0.81332 0.73313 0.0
H790 H -0.00391 0.80317 0.4798 0.0
H791 H 0.03065 0.78945 0.42784 0.0
loop_
_geom_bond_atom_site_label_1
_geom_bond_atom_site_label_2
_geom_bond_distance
_geom_bond_site_symmetry_2
_ccdc_geom_bond_type
C0 O16 1.251 1_554 S
C0 O18 1.254 . S
N1 C2 1.333 . S
N1 C6 1.307 . S
N1 Zn7 2.020 . S
C2 N1 1.333 . S
C2 C3 1.379 . S
C2 H20 0.952 . S
C3 C2 1.379 . S
C3 C4 1.390 . S
C3 H30 0.949 . S
C4 C3 1.390 . S
C4 C5 1.357 . S
C5 C4 1.357 . S
C5 C6 1.370 . S
C5 H31 0.950 . S
C6 N1 1.307 . S
C6 C5 1.370 . S
C6 H24 0.948 . S
Zn7 N1 2.020 . S
Zn7 O16 2.039 . S
Zn7 O22 2.034 . S
Zn7 O26 2.025 1_556 S
Zn7 O28 2.024 1_556 S
C8 O27 1.246 . S
C8 O28 1.249 . S
N9 C10 1.307 1_455 S
N9 C11 1.333 . S
N9 Zn15 2.020 . S
C10 N9 1.307 1_655 S
C10 C14 1.370 . S
C10 H21 0.948 . S
C11 N9 1.333 . S
C11 C12 1.379 . S
C11 H19 0.952 . S
C12 C11 1.379 . S
C12 C13 1.390 1_455 S
C12 H32 0.949 . S
C13 C12 1.390 1_655 S
C13 C14 1.357 . S
C14 C10 1.370 . S
C14 C13 1.357 . S
C14 H33 0.950 . S
Zn15 N9 2.020 . S
Zn15 O18 2.025 . S
Zn15 O23 2.024 . S
Zn15 O25 2.039 . S
Zn15 O27 2.034 . S
O16 C0 1.251 1_556 S
O16 Zn7 2.039 . S
C17 O22 1.246 1_554 S
C17 O23 1.249 . S
O18 C0 1.254 . S
O18 Zn15 2.025 . S
H19 C11 0.952 . S
H20 C2 0.952 . S
H21 C10 0.948 . S
O22 Zn7 2.034 . S
O22 C17 1.246 1_556 S
O23 Zn15 2.024 . S
O23 C17 1.249 . S
H24 C6 0.948 . S
O25 Zn15 2.039 . S
O25 C29 1.251 . S
O26 Zn7 2.025 1_554 S
O26 C29 1.254 . S
O27 C8 1.246 . S
O27 Zn15 2.034 . S
O28 Zn7 2.024 1_554 S
O28 C8 1.249 . S
C29 O25 1.251 . S
C29 O26 1.254 . S
H30 C3 0.949 . S
H31 C5 0.950 . S
H32 C12 0.949 . S
H33 C14 0.950 . S
C34 O50 1.251 . S
C34 O52 1.247 1_554 S
N35 C36 1.333 . S
N35 C40 1.307 . S
N35 Zn41 2.020 . S
C36 N35 1.333 . S
C36 C37 1.379 . S
C36 H54 0.952 . S
C37 C36 1.379 . S
C37 C38 1.390 . S
C37 H64 0.949 . S
C38 C37 1.390 . S
C38 C39 1.357 . S
C39 C38 1.357 . S
C39 C40 1.370 . S
C39 H65 0.950 . S
C40 N35 1.307 . S
C40 C39 1.370 . S
C40 H58 0.948 . S
Zn41 N35 2.020 . S
Zn41 O50 2.039 . S
Zn41 O56 2.034 . S
Zn41 O60 2.025 . S
Zn41 O62 2.024 . S
C42 O61 1.246 . S
C42 O62 1.249 1_556 S
N43 C44 1.307 . S
N43 C45 1.333 . S
N43 Zn49 2.020 . S
C44 N43 1.307 . S
C44 C48 1.370 . S
C44 H55 0.948 . S
C45 N43 1.333 . S
C45 C46 1.379 . S
C45 H53 0.952 . S
C46 C45 1.379 . S
C46 C47 1.390 . S
C46 H66 0.949 . S
C47 C46 1.390 . S
C47 C48 1.357 . S
C48 C44 1.370 . S
C48 C47 1.357 . S
C48 H67 0.950 . S
Zn49 N43 2.020 . S
Zn49 O52 2.028 . S
Zn49 O57 2.024 . S
Zn49 O59 2.039 . S
Zn49 O61 2.034 . S
O50 C34 1.251 . S
O50 Zn41 2.039 . S
C51 O56 1.246 . S
C51 O57 1.249 1_554 S
O52 C34 1.247 1_556 S
O52 Zn49 2.028 . S
H53 C45 0.952 . S
H54 C36 0.952 . S
H55 C44 0.948 . S
O56 Zn41 2.034 . S
O56 C51 1.246 . S
O57 Zn49 2.024 . S
O57 C51 1.249 1_556 S
H58 C40 0.948 . S
O59 Zn49 2.039 . S
O59 C63 1.251 . S
O60 Zn41 2.025 . S
O60 C63 1.254 1_554 S
O61 C42 1.246 . S
O61 Zn49 2.034 . S
O62 Zn41 2.024 . S
O62 C42 1.249 1_554 S
C63 O59 1.251 . S
C63 O60 1.254 1_556 S
H64 C37 0.949 . S
H65 C39 0.950 . S
H66 C46 0.949 . S
H67 C48 0.950 . S
C68 O84 1.251 . S
C68 O86 1.254 1_556 S
N69 C70 1.333 1_565 S
N69 C74 1.307 . S
N69 Zn75 2.019 1_565 S
C70 N69 1.333 1_545 S
C70 C71 1.379 . S
C70 H88 0.952 . S
C71 C70 1.379 . S
C71 C72 1.390 1_545 S
C71 H98 0.949 . S
C72 C71 1.390 1_565 S
C72 C73 1.357 . S
C73 C72 1.357 . S
C73 C74 1.370 . S
C73 H99 0.950 . S
C74 N69 1.307 . S
C74 C73 1.370 . S
C74 H92 0.948 . S
Zn75 N69 2.019 1_545 S
Zn75 O84 2.040 . S
Zn75 O90 2.039 . S
Zn75 O94 2.025 1_545 S
Zn75 O96 2.020 1_545 S
C76 O95 1.246 . S
C76 O96 1.249 1_554 S
N77 C78 1.307 . S
N77 C79 1.333 . S
N77 Zn83 2.020 . S
C78 N77 1.307 . S
C78 C82 1.370 . S
C78 H89 0.948 . S
C79 N77 1.333 . S
C79 C80 1.379 . S
C79 H87 0.952 1_545 S
C80 C79 1.379 . S
C80 C81 1.390 . S
C80 H100 0.949 . S
C81 C80 1.390 . S
C81 C82 1.357 . S
C82 C78 1.370 . S
C82 C81 1.357 . S
C82 H101 0.950 . S
Zn83 N77 2.020 . S
Zn83 O86 2.025 . S
Zn83 O91 2.024 . S
Zn83 O93 2.039 1_545 S
Zn83 O95 2.034 1_545 S
O84 C68 1.251 . S
O84 Zn75 2.040 . S
C85 O90 1.246 . S
C85 O91 1.249 1_556 S
O86 C68 1.254 1_554 S
O86 Zn83 2.025 . S
H87 C79 0.952 1_565 S
H88 C70 0.952 . S
H89 C78 0.948 . S
O90 Zn75 2.039 . S
O90 C85 1.246 . S
O91 Zn83 2.024 . S
O91 C85 1.249 1_554 S
H92 C74 0.948 . S
O93 Zn83 2.039 1_565 S
O93 C97 1.251 . S
O94 Zn75 2.025 1_565 S
O94 C97 1.254 1_556 S
O95 C76 1.246 . S
O95 Zn83 2.034 1_565 S
O96 Zn75 2.020 1_565 S
O96 C76 1.249 1_556 S
C97 O93 1.251 . S
C97 O94 1.254 1_554 S
H98 C71 0.949 . S
H99 C73 0.950 . S
H100 C80 0.949 . S
H101 C82 0.950 . S
C102 O118 1.251 . S
C102 O120 1.254 . S
N103 C104 1.333 . S
N103 C108 1.307 . S
N103 Zn109 2.020 . S
C104 N103 1.333 . S
C104 C105 1.379 1_554 S
C104 H122 0.952 . S
C105 C104 1.379 1_556 S
C105 C106 1.390 . S
C105 H132 0.949 . S
C106 C105 1.390 . S
C106 C107 1.357 . S
C107 C106 1.357 . S
C107 C108 1.370 1_556 S
C107 H133 0.950 . S
C108 N103 1.307 . S
C108 C107 1.370 1_554 S
C108 H126 0.948 . S
Zn109 N103 2.020 . S
Zn109 O118 2.039 . S
Zn109 O124 2.034 . S
Zn109 O128 2.025 . S
Zn109 O130 2.024 . S
C110 O129 1.246 . S
C110 O130 1.249 . S
N111 C112 1.307 . S
N111 C113 1.333 . S
N111 Zn117 2.020 . S
C112 N111 1.307 . S
C112 C116 1.370 . S
C112 H123 0.948 . S
C113 N111 1.333 . S
C113 C114 1.379 . S
C113 H121 0.952 . S
C114 C113 1.379 . S
C114 C115 1.390 . S
C114 H134 0.949 . S
C115 C114 1.390 . S
C115 C116 1.357 . S
C116 C112 1.370 . S
C116 C115 1.357 . S
C116 H135 0.950 . S
Zn117 N111 2.020 . S
Zn117 O120 2.025 . S
Zn117 O125 2.024 . S
Zn117 O127 2.039 . S
Zn117 O129 2.034 . S
O118 C102 1.251 . S
O118 Zn109 2.039 . S
C119 O124 1.246 . S
C119 O125 1.249 . S
O120 C102 1.254 . S
O120 Zn117 2.025 . S
H121 C113 0.952 . S
H122 C104 0.952 . S
H123 C112 0.948 . S
O124 Zn109 2.034 . S
O124 C119 1.246 . S
O125 Zn117 2.024 . S
O125 C119 1.249 . S
H126 C108 0.948 . S
O127 Zn117 2.039 . S
O127 C131 1.251 . S
O128 Zn109 2.025 . S
O128 C131 1.254 . S
O129 C110 1.246 . S
O129 Zn117 2.034 . S
O130 Zn109 2.024 . S
O130 C110 1.249 . S
C131 O127 1.251 . S
C131 O128 1.254 . S
H132 C105 0.949 . S
H133 C107 0.950 . S
H134 C114 0.949 . S
H135 C116 0.950 . S
C136 O152 1.251 . S
C136 O154 1.254 . S
N137 C138 1.333 . S
N137 C142 1.307 . S
N137 Zn143 2.020 . S
C138 N137 1.333 . S
C138 C139 1.379 . S
C138 H156 0.952 . S
C139 C138 1.379 . S
C139 C140 1.390 . S
C139 H166 0.949 . S
C140 C139 1.390 . S
C140 C141 1.357 . S
C141 C140 1.357 . S
C141 C142 1.370 . S
C141 H167 0.950 . S
C142 N137 1.307 . S
C142 C141 1.370 . S
C142 H160 0.948 . S
Zn143 N137 2.020 . S
Zn143 O152 2.039 . S
Zn143 O158 2.034 . S
Zn143 O162 2.025 . S
Zn143 O164 2.024 . S
C144 O163 1.246 . S
C144 O164 1.249 . S
N145 C146 1.307 . S
N145 C147 1.333 . S
N145 Zn151 2.020 . S
C146 N145 1.307 . S
C146 C150 1.370 1_554 S
C146 H157 0.948 . S
C147 N145 1.333 . S
C147 C148 1.379 1_554 S
C147 H155 0.952 . S
C148 C147 1.379 1_556 S
C148 C149 1.390 . S
C148 H168 0.949 . S
C149 C148 1.390 . S
C149 C150 1.357 . S
C150 C146 1.370 1_556 S
C150 C149 1.357 . S
C150 H169 0.950 . S
Zn151 N145 2.020 . S
Zn151 O154 2.025 . S
Zn151 O159 2.024 . S
Zn151 O161 2.039 . S
Zn151 O163 2.034 . S
O152 C136 1.251 . S
O152 Zn143 2.039 . S
C153 O158 1.246 . S
C153 O159 1.249 . S
O154 C136 1.254 . S
O154 Zn151 2.025 . S
H155 C147 0.952 . S
H156 C138 0.952 . S
H157 C146 0.948 . S
O158 Zn143 2.034 . S
O158 C153 1.246 . S
O159 Zn151 2.024 . S
O159 C153 1.249 . S
H160 C142 0.948 . S
O161 Zn151 2.039 . S
O161 C165 1.251 . S
O162 Zn143 2.025 . S
O162 C165 1.254 . S
O163 C144 1.246 . S
O163 Zn151 2.034 . S
O164 Zn143 2.024 . S
O164 C144 1.249 . S
C165 O161 1.251 . S
C165 O162 1.254 . S
H166 C139 0.949 . S
H167 C141 0.950 . S
H168 C148 0.949 . S
H169 C150 0.950 . S
C170 O186 1.251 . S
C170 O188 1.254 . S
N171 C172 1.333 . S
N171 C176 1.307 . S
N171 Zn177 2.020 . S
C172 N171 1.333 . S
C172 C173 1.379 1_554 S
C172 H190 0.952 . S
C173 C172 1.379 1_556 S
C173 C174 1.390 . S
C173 H200 0.949 . S
C174 C173 1.390 . S
C174 C175 1.357 1_556 S
C175 C174 1.357 1_554 S
C175 C176 1.370 . S
C175 H201 0.950 . S
C176 N171 1.307 . S
C176 C175 1.370 . S
C176 H194 0.948 . S
Zn177 N171 2.020 . S
Zn177 O186 2.039 . S
Zn177 O192 2.034 . S
Zn177 O196 2.025 . S
Zn177 O198 2.024 . S
C178 O197 1.246 . S
C178 O198 1.249 . S
N179 C180 1.307 . S
N179 C181 1.333 . S
N179 Zn185 2.020 . S
C180 N179 1.307 . S
C180 C184 1.370 . S
C180 H191 0.948 . S
C181 N179 1.333 . S
C181 C182 1.379 . S
C181 H189 0.952 . S
C182 C181 1.379 . S
C182 C183 1.390 . S
C182 H202 0.949 . S
C183 C182 1.390 . S
C183 C184 1.357 . S
C184 C180 1.370 . S
C184 C183 1.357 . S
C184 H203 0.950 . S
Zn185 N179 2.020 . S
Zn185 O188 2.025 . S
Zn185 O193 2.024 . S
Zn185 O195 2.039 . S
Zn185 O197 2.034 . S
O186 C170 1.251 . S
O186 Zn177 2.039 . S
C187 O192 1.246 . S
C187 O193 1.249 . S
O188 C170 1.254 . S
O188 Zn185 2.025 . S
H189 C181 0.952 . S
H190 C172 0.952 . S
H191 C180 0.948 . S
O192 Zn177 2.034 . S
O192 C187 1.246 . S
O193 Zn185 2.024 . S
O193 C187 1.249 . S
H194 C176 0.948 . S
O195 Zn185 2.039 . S
O195 C199 1.251 . S
O196 Zn177 2.025 . S
O196 C199 1.254 . S
O197 C178 1.246 . S
O197 Zn185 2.034 . S
O198 Zn177 2.024 . S
O198 C178 1.249 . S
C199 O195 1.251 . S
C199 O196 1.254 . S
H200 C173 0.949 . S
H201 C175 0.950 . S
H202 C182 0.949 . S
H203 C184 0.950 . S
C204 O220 1.251 . S
C204 O222 1.254 . S
N205 C206 1.333 . S
N205 C210 1.307 . S
N205 Zn211 2.020 . S
C206 N205 1.333 . S
C206 C207 1.379 . S
C206 H224 0.952 . S
C207 C206 1.379 . S
C207 C208 1.390 . S
C207 H234 0.949 . S
C208 C207 1.390 . S
C208 C209 1.357 . S
C209 C208 1.357 . S
C209 C210 1.370 . S
C209 H235 0.950 . S
C210 N205 1.307 . S
C210 C209 1.370 . S
C210 H228 0.948 . S
Zn211 N205 2.020 . S
Zn211 O220 2.039 . S
Zn211 O226 2.034 . S
Zn211 O230 2.025 . S
Zn211 O232 2.024 . S
C212 O231 1.246 . S
C212 O232 1.249 . S
N213 C214 1.307 . S
N213 C215 1.333 . S
N213 Zn219 2.020 . S
C214 N213 1.307 . S
C214 C218 1.370 . S
C214 H225 0.948 . S
C215 N213 1.333 . S
C215 C216 1.379 . S
C215 H223 0.952 . S
C216 C215 1.379 . S
C216 C217 1.390 1_545 S
C216 H236 0.949 . S
C217 C216 1.390 1_565 S
C217 C218 1.357 1_565 S
C218 C214 1.370 . S
C218 C217 1.357 1_545 S
C218 H237 0.950 1_545 S
Zn219 N213 2.020 . S
Zn219 O222 2.025 . S
Zn219 O227 2.024 . S
Zn219 O229 2.039 . S
Zn219 O231 2.034 . S
O220 C204 1.251 . S
O220 Zn211 2.039 . S
C221 O226 1.246 . S
C221 O227 1.249 . S
O222 C204 1.254 . S
O222 Zn219 2.025 . S
H223 C215 0.952 . S
H224 C206 0.952 . S
H225 C214 0.948 . S
O226 Zn211 2.034 . S
O226 C221 1.246 . S
O227 Zn219 2.024 . S
O227 C221 1.249 . S
H228 C210 0.948 . S
O229 Zn219 2.039 . S
O229 C233 1.251 . S
O230 Zn211 2.025 . S
O230 C233 1.254 . S
O231 C212 1.246 . S
O231 Zn219 2.034 . S
O232 Zn211 2.024 . S
O232 C212 1.249 . S
C233 O229 1.251 . S
C233 O230 1.254 . S
H234 C207 0.949 . S
H235 C209 0.950 . S
H236 C216 0.949 . S
H237 C218 0.950 1_565 S
C238 O254 1.251 . S
C238 O256 1.254 . S
N239 C240 1.333 . S
N239 C244 1.307 . S
N239 Zn245 2.020 . S
C240 N239 1.333 . S
C240 C241 1.379 . S
C240 H258 0.952 . S
C241 C240 1.379 . S
C241 C242 1.390 1_545 S
C241 H268 0.949 . S
C242 C241 1.390 1_565 S
C242 C243 1.357 1_565 S
C243 C242 1.357 1_545 S
C243 C244 1.370 . S
C243 H269 0.923 1_545 S
C244 N239 1.307 . S
C244 C243 1.370 . S
C244 H262 0.948 . S
Zn245 N239 2.020 . S
Zn245 O254 2.039 . S
Zn245 O260 2.034 . S
Zn245 O264 2.025 . S
Zn245 O266 2.024 . S
C246 O265 1.246 . S
C246 O266 1.249 . S
N247 C248 1.307 . S
N247 C249 1.333 . S
N247 Zn253 2.020 . S
C248 N247 1.307 . S
C248 C252 1.370 . S
C248 H259 0.948 . S
C249 N247 1.333 . S
C249 C250 1.379 . S
C249 H257 0.952 . S
C250 C249 1.379 . S
C250 C251 1.390 . S
C250 H270 0.949 . S
C251 C250 1.390 . S
C251 C252 1.357 . S
C252 C248 1.370 . S
C252 C251 1.357 . S
C252 H271 0.950 . S
Zn253 N247 2.020 . S
Zn253 O256 2.025 . S
Zn253 O261 2.024 . S
Zn253 O263 2.039 . S
Zn253 O265 2.034 . S
O254 C238 1.251 . S
O254 Zn245 2.039 . S
C255 O260 1.246 . S
C255 O261 1.249 . S
O256 C238 1.254 . S
O256 Zn253 2.025 . S
H257 C249 0.952 . S
H258 C240 0.952 . S
H259 C248 0.948 . S
O260 Zn245 2.034 . S
O260 C255 1.246 . S
O261 Zn253 2.024 . S
O261 C255 1.249 . S
H262 C244 0.948 . S
O263 Zn253 2.039 . S
O263 C267 1.251 . S
O264 Zn245 2.025 . S
O264 C267 1.254 . S
O265 C246 1.246 . S
O265 Zn253 2.034 . S
O266 Zn245 2.024 . S
O266 C246 1.249 . S
C267 O263 1.251 . S
C267 O264 1.254 . S
H268 C241 0.949 . S
H269 C243 0.923 1_565 S
H270 C250 0.949 . S
H271 C252 0.950 . S
C272 O288 1.251 . S
C272 O290 1.254 . S
N273 C274 1.333 . S
N273 C278 1.307 . S
N273 Zn279 2.020 . S
C274 N273 1.333 . S
C274 C275 1.379 . S
C274 H292 0.952 . S
C275 C274 1.379 . S
C275 C276 1.390 . S
C275 H302 0.949 . S
C276 C275 1.390 . S
C276 C277 1.357 . S
C277 C276 1.357 . S
C277 C278 1.370 . S
C277 H303 0.950 . S
C278 N273 1.307 . S
C278 C277 1.370 . S
C278 H296 0.948 . S
Zn279 N273 2.020 . S
Zn279 O288 2.039 . S
Zn279 O294 2.034 . S
Zn279 O298 2.025 . S
Zn279 O300 2.024 . S
C280 O299 1.246 . S
C280 O300 1.249 . S
N281 C282 1.307 . S
N281 C283 1.333 . S
N281 Zn287 2.020 . S
C282 N281 1.307 . S
C282 C286 1.370 . S
C282 H293 0.948 . S
C283 N281 1.333 . S
C283 C284 1.379 . S
C283 H291 0.952 . S
C284 C283 1.379 . S
C284 C285 1.390 . S
C284 H304 0.949 . S
C285 C284 1.390 . S
C285 C286 1.357 . S
C286 C282 1.370 . S
C286 C285 1.357 . S
C286 H305 0.950 . S
Zn287 N281 2.020 . S
Zn287 O290 2.025 . S
Zn287 O295 2.024 . S
Zn287 O297 2.039 . S
Zn287 O299 2.034 . S
O288 C272 1.251 . S
O288 Zn279 2.039 . S
C289 O294 1.246 . S
C289 O295 1.249 . S
O290 C272 1.254 . S
O290 Zn287 2.025 . S
H291 C283 0.952 . S
H292 C274 0.952 . S
H293 C282 0.948 . S
O294 Zn279 2.034 . S
O294 C289 1.246 . S
O295 Zn287 2.024 . S
O295 C289 1.249 . S
H296 C278 0.948 . S
O297 Zn287 2.039 . S
O297 C301 1.251 . S
O298 Zn279 2.025 . S
O298 C301 1.254 . S
O299 C280 1.246 . S
O299 Zn287 2.034 . S
O300 Zn279 2.024 . S
O300 C280 1.249 . S
C301 O297 1.251 . S
C301 O298 1.254 . S
H302 C275 0.949 . S
H303 C277 0.950 . S
H304 C284 0.949 . S
H305 C286 0.950 . S
C306 C307 1.363 . S
C306 C312 1.379 . S
C306 N314 1.356 . S
C307 C306 1.363 . S
C307 C313 1.363 . S
C308 C309 1.363 . S
C308 C313 1.379 . S
C308 N315 1.356 . S
C309 C308 1.363 . S
C309 C312 1.363 . S
N310 C312 1.356 1_655 S
N310 H322 0.984 . S
N310 H323 0.985 . S
N311 C313 1.356 . S
N311 H316 0.984 . S
N311 H317 0.985 . S
C312 C306 1.379 . S
C312 C309 1.363 . S
C312 N310 1.356 1_455 S
C313 C307 1.363 . S
C313 C308 1.379 . S
C313 N311 1.356 . S
N314 C306 1.356 . S
N314 H320 0.984 . S
N314 H321 0.984 . S
N315 C308 1.356 . S
N315 H318 0.984 1_455 S
N315 H319 0.985 . S
H316 N311 0.984 . S
H317 N311 0.985 . S
H318 N315 0.984 1_655 S
H319 N315 0.985 . S
H320 N314 0.984 . S
H321 N314 0.984 . S
H322 N310 0.984 . S
H323 N310 0.985 . S
C324 C325 1.363 . S
C324 C330 1.379 . S
C324 N332 1.356 . S
C325 C324 1.363 . S
C325 C331 1.363 . S
C326 C327 1.363 . S
C326 C331 1.379 . S
C326 N333 1.356 . S
C327 C326 1.363 . S
C327 C330 1.363 . S
N328 C330 1.356 . S
N328 H340 0.984 . S
N328 H341 0.985 . S
N329 C331 1.356 . S
N329 H334 0.984 . S
N329 H335 0.985 . S
C330 C324 1.379 . S
C330 C327 1.363 . S
C330 N328 1.356 . S
C331 C325 1.363 . S
C331 C326 1.379 . S
C331 N329 1.356 . S
N332 C324 1.356 . S
N332 H338 0.984 . S
N332 H339 0.984 . S
N333 C326 1.356 . S
N333 H336 0.984 . S
N333 H337 0.985 . S
H334 N329 0.984 . S
H335 N329 0.985 . S
H336 N333 0.984 . S
H337 N333 0.985 . S
H338 N332 0.984 . S
H339 N332 0.984 . S
H340 N328 0.984 . S
H341 N328 0.985 . S
C342 C343 1.363 1_545 S
C342 C348 1.379 . S
C342 N350 1.356 1_545 S
C343 C342 1.363 1_565 S
C343 C349 1.363 . S
C344 C345 1.363 . S
C344 C349 1.379 1_545 S
C344 N351 1.356 . S
C345 C344 1.363 . S
C345 C348 1.363 . S
N346 C348 1.356 . S
N346 H358 0.984 . S
N346 H359 0.985 . S
N347 C349 1.356 . S
N347 H352 0.984 . S
N347 H353 0.985 . S
C348 C342 1.379 . S
C348 C345 1.363 . S
C348 N346 1.356 . S
C349 C343 1.363 . S
C349 C344 1.379 1_565 S
C349 N347 1.356 . S
N350 C342 1.356 1_565 S
N350 H356 0.984 . S
N350 H357 0.984 . S
N351 C344 1.356 . S
N351 H354 0.984 . S
N351 H355 0.985 . S
H352 N347 0.984 . S
H353 N347 0.985 . S
H354 N351 0.984 . S
H355 N351 0.985 . S
H356 N350 0.984 . S
H357 N350 0.984 . S
H358 N346 0.984 . S
H359 N346 0.985 . S
C360 C361 1.363 . S
C360 C366 1.379 . S
C360 N368 1.356 . S
C361 C360 1.363 . S
C361 C367 1.363 . S
C362 C363 1.363 . S
C362 C367 1.379 . S
C362 N369 1.356 . S
C363 C362 1.363 . S
C363 C366 1.363 . S
N364 C366 1.356 . S
N364 H376 0.984 . S
N364 H377 0.985 . S
N365 C367 1.356 . S
N365 H370 0.984 . S
N365 H371 0.985 . S
C366 C360 1.379 . S
C366 C363 1.363 . S
C366 N364 1.356 . S
C367 C361 1.363 . S
C367 C362 1.379 . S
C367 N365 1.356 . S
N368 C360 1.356 . S
N368 H374 0.984 . S
N368 H375 0.984 . S
N369 C362 1.356 . S
N369 H372 0.984 . S
N369 H373 0.985 1_556 S
H370 N365 0.984 . S
H371 N365 0.985 . S
H372 N369 0.984 . S
H373 N369 0.985 1_554 S
H374 N368 0.984 . S
H375 N368 0.984 . S
H376 N364 0.984 . S
H377 N364 0.985 . S
C378 C379 1.363 . S
C378 C384 1.379 . S
C378 N386 1.356 . S
C379 C378 1.363 . S
C379 C385 1.363 . S
C380 C381 1.363 . S
C380 C385 1.379 . S
C380 N387 1.356 . S
C381 C380 1.363 . S
C381 C384 1.363 . S
N382 C384 1.356 . S
N382 H394 0.984 . S
N382 H395 0.985 . S
N383 C385 1.356 . S
N383 H388 0.984 . S
N383 H389 0.985 . S
C384 C378 1.379 . S
C384 C381 1.363 . S
C384 N382 1.356 . S
C385 C379 1.363 . S
C385 C380 1.379 . S
C385 N383 1.356 . S
N386 C378 1.356 . S
N386 H392 0.984 . S
N386 H393 0.984 . S
N387 C380 1.356 . S
N387 H390 0.984 . S
N387 H391 0.985 . S
H388 N383 0.984 . S
H389 N383 0.985 . S
H390 N387 0.984 . S
H391 N387 0.985 . S
H392 N386 0.984 . S
H393 N386 0.984 . S
H394 N382 0.984 . S
H395 N382 0.985 . S
C396 C397 1.363 . S
C396 C402 1.379 . S
C396 N404 1.356 . S
C397 C396 1.363 . S
C397 C403 1.363 . S
C398 C399 1.363 . S
C398 C403 1.379 . S
C398 N405 1.356 . S
C399 C398 1.363 . S
C399 C402 1.363 . S
N400 C402 1.356 . S
N400 H412 0.984 . S
N400 H413 0.985 . S
N401 C403 1.356 . S
N401 H406 0.984 . S
N401 H407 0.985 . S
C402 C396 1.379 . S
C402 C399 1.363 . S
C402 N400 1.356 . S
C403 C397 1.363 . S
C403 C398 1.379 . S
C403 N401 1.356 . S
N404 C396 1.356 . S
N404 H410 0.984 . S
N404 H411 0.984 . S
N405 C398 1.356 . S
N405 H408 0.984 . S
N405 H409 0.985 . S
H406 N401 0.984 . S
H407 N401 0.985 . S
H408 N405 0.984 . S
H409 N405 0.985 . S
H410 N404 0.984 . S
H411 N404 0.984 . S
H412 N400 0.984 . S
H413 N400 0.985 . S
C414 C415 1.363 . S
C414 C420 1.379 . S
C414 N422 1.356 . S
C415 C414 1.363 . S
C415 C421 1.363 . S
C416 C417 1.363 . S
C416 C421 1.379 . S
C416 N423 1.356 . S
C417 C416 1.363 . S
C417 C420 1.363 . S
N418 C420 1.356 . S
N418 H430 0.984 . S
N418 H431 0.985 . S
N419 C421 1.356 . S
N419 H424 0.984 . S
N419 H425 0.985 . S
C420 C414 1.379 . S
C420 C417 1.363 . S
C420 N418 1.356 . S
C421 C415 1.363 . S
C421 C416 1.379 . S
C421 N419 1.356 . S
N422 C414 1.356 . S
N422 H428 0.984 . S
N422 H429 0.984 . S
N423 C416 1.356 . S
N423 H426 0.984 . S
N423 H427 0.985 . S
H424 N419 0.984 . S
H425 N419 0.985 . S
H426 N423 0.984 . S
H427 N423 0.985 . S
H428 N422 0.984 . S
H429 N422 0.984 . S
H430 N418 0.984 . S
H431 N418 0.985 . S
C432 C433 1.363 . S
C432 C438 1.379 . S
C432 N440 1.356 . S
C433 C432 1.363 . S
C433 C439 1.363 . S
C434 C435 1.363 . S
C434 C439 1.379 . S
C434 N441 1.356 . S
C435 C434 1.363 . S
C435 C438 1.363 . S
N436 C438 1.356 . S
N436 H448 0.984 . S
N436 H449 0.985 . S
N437 C439 1.356 . S
N437 H442 0.984 . S
N437 H443 0.985 . S
C438 C432 1.379 . S
C438 C435 1.363 . S
C438 N436 1.356 . S
C439 C433 1.363 . S
C439 C434 1.379 . S
C439 N437 1.356 . S
N440 C432 1.356 . S
N440 H446 0.984 . S
N440 H447 0.984 . S
N441 C434 1.356 . S
N441 H444 0.984 1_554 S
N441 H445 0.985 . S
H442 N437 0.984 . S
H443 N437 0.985 . S
H444 N441 0.984 1_556 S
H445 N441 0.985 . S
H446 N440 0.984 . S
H447 N440 0.984 . S
H448 N436 0.984 . S
H449 N436 0.985 . S
C450 C451 1.363 . S
C450 C456 1.379 . S
C450 N458 1.356 . S
C451 C450 1.363 . S
C451 C457 1.363 . S
C452 C453 1.363 . S
C452 C457 1.379 . S
C452 N459 1.356 . S
C453 C452 1.363 . S
C453 C456 1.363 . S
N454 C456 1.356 . S
N454 H466 0.984 . S
N454 H467 0.985 . S
N455 C457 1.356 . S
N455 H460 0.984 . S
N455 H461 0.985 . S
C456 C450 1.379 . S
C456 C453 1.363 . S
C456 N454 1.356 . S
C457 C451 1.363 . S
C457 C452 1.379 . S
C457 N455 1.356 . S
N458 C450 1.356 . S
N458 H464 0.984 . S
N458 H465 0.984 . S
N459 C452 1.356 . S
N459 H462 0.984 1_554 S
N459 H463 0.985 . S
H460 N455 0.984 . S
H461 N455 0.985 . S
H462 N459 0.984 1_556 S
H463 N459 0.985 . S
H464 N458 0.984 . S
H465 N458 0.984 . S
H466 N454 0.984 . S
H467 N454 0.985 . S
C468 C469 1.363 . S
C468 C474 1.379 . S
C468 N476 1.356 . S
C469 C468 1.363 . S
C469 C475 1.363 . S
C470 C471 1.363 . S
C470 C475 1.379 . S
C470 N477 1.356 . S
C471 C470 1.363 . S
C471 C474 1.363 . S
N472 C474 1.356 . S
N472 H484 0.984 . S
N472 H485 0.985 . S
N473 C475 1.356 . S
N473 H478 0.984 . S
N473 H479 0.985 . S
C474 C468 1.379 . S
C474 C471 1.363 . S
C474 N472 1.356 . S
C475 C469 1.363 . S
C475 C470 1.379 . S
C475 N473 1.356 . S
N476 C468 1.356 . S
N476 H482 0.984 . S
N476 H483 0.984 . S
N477 C470 1.356 . S
N477 H480 0.984 . S
N477 H481 0.985 . S
H478 N473 0.984 . S
H479 N473 0.985 . S
H480 N477 0.984 . S
H481 N477 0.985 . S
H482 N476 0.984 . S
H483 N476 0.984 . S
H484 N472 0.984 . S
H485 N472 0.985 . S
C486 C487 1.363 . S
C486 C492 1.379 . S
C486 N494 1.356 . S
C487 C486 1.363 . S
C487 C493 1.363 . S
C488 C489 1.363 . S
C488 C493 1.379 . S
C488 N495 1.356 . S
C489 C488 1.363 . S
C489 C492 1.363 . S
N490 C492 1.356 . S
N490 H502 0.984 . S
N490 H503 0.985 . S
N491 C493 1.356 1_556 S
N491 H496 0.984 . S
N491 H497 0.985 . S
C492 C486 1.379 . S
C492 C489 1.363 . S
C492 N490 1.356 . S
C493 C487 1.363 . S
C493 C488 1.379 . S
C493 N491 1.356 1_554 S
N494 C486 1.356 . S
N494 H500 0.984 . S
N494 H501 0.984 . S
N495 C488 1.356 . S
N495 H498 0.984 . S
N495 H499 0.985 . S
H496 N491 0.984 . S
H497 N491 0.985 . S
H498 N495 0.984 . S
H499 N495 0.985 . S
H500 N494 0.984 . S
H501 N494 0.984 . S
H502 N490 0.984 . S
H503 N490 0.985 . S
C504 C505 1.363 . S
C504 C510 1.379 . S
C504 N512 1.356 . S
C505 C504 1.363 . S
C505 C511 1.363 . S
C506 C507 1.363 . S
C506 C511 1.379 . S
C506 N513 1.356 . S
C507 C506 1.363 . S
C507 C510 1.363 . S
N508 C510 1.356 . S
N508 H520 0.984 . S
N508 H521 0.985 . S
N509 C511 1.356 1_556 S
N509 H514 0.984 . S
N509 H515 0.985 . S
C510 C504 1.379 . S
C510 C507 1.363 . S
C510 N508 1.356 . S
C511 C505 1.363 . S
C511 C506 1.379 . S
C511 N509 1.356 1_554 S
N512 C504 1.356 . S
N512 H518 0.984 . S
N512 H519 0.984 . S
N513 C506 1.356 . S
N513 H516 0.984 . S
N513 H517 0.985 . S
H514 N509 0.984 . S
H515 N509 0.985 . S
H516 N513 0.984 . S
H517 N513 0.985 . S
H518 N512 0.984 . S
H519 N512 0.984 . S
H520 N508 0.984 . S
H521 N508 0.985 . S
C522 C523 1.363 . S
C522 C528 1.379 . S
C522 N530 1.356 . S
C523 C522 1.363 . S
C523 C529 1.363 . S
C524 C525 1.363 . S
C524 C529 1.379 . S
C524 N531 1.356 . S
C525 C524 1.363 . S
C525 C528 1.363 . S
N526 C528 1.356 . S
N526 H538 0.984 . S
N526 H539 0.985 . S
N527 C529 1.356 1_554 S
N527 H532 0.984 . S
N527 H533 0.985 . S
C528 C522 1.379 . S
C528 C525 1.363 . S
C528 N526 1.356 . S
C529 C523 1.363 . S
C529 C524 1.379 . S
C529 N527 1.356 1_556 S
N530 C522 1.356 . S
N530 H536 0.984 . S
N530 H537 0.984 . S
N531 C524 1.356 . S
N531 H534 0.984 . S
N531 H535 0.985 . S
H532 N527 0.984 . S
H533 N527 0.985 . S
H534 N531 0.984 . S
H535 N531 0.985 . S
H536 N530 0.984 . S
H537 N530 0.984 . S
H538 N526 0.984 . S
H539 N526 0.985 . S
C540 C541 1.363 . S
C540 C546 1.385 . S
C540 N548 1.356 . S
C541 C540 1.363 . S
C541 C547 1.363 . S
C542 C543 1.363 . S
C542 C547 1.379 . S
C542 N549 1.356 1_655 S
C543 C542 1.363 . S
C543 C546 1.365 . S
N544 C546 1.347 1_554 S
N544 H556 0.984 . S
N544 H557 0.985 . S
N545 C547 1.356 . S
N545 H550 0.984 . S
N545 H551 0.985 . S
C546 C540 1.385 . S
C546 C543 1.365 . S
C546 N544 1.347 1_556 S
C547 C541 1.363 . S
C547 C542 1.379 . S
C547 N545 1.356 . S
N548 C540 1.356 . S
N548 H554 0.984 . S
N548 H555 0.984 . S
N549 C542 1.356 1_455 S
N549 H552 0.984 . S
N549 H553 0.985 . S
H550 N545 0.984 . S
H551 N545 0.985 . S
H552 N549 0.984 . S
H553 N549 0.985 . S
H554 N548 0.984 . S
H555 N548 0.984 . S
H556 N544 0.984 . S
H557 N544 0.985 . S
C558 C559 1.363 . S
C558 C564 1.379 . S
C558 N566 1.356 . S
C559 C558 1.363 . S
C559 C565 1.363 . S
C560 C561 1.363 . S
C560 C565 1.379 . S
C560 N567 1.356 1_556 S
C561 C560 1.363 . S
C561 C564 1.363 . S
N562 C564 1.356 . S
N562 H574 0.984 . S
N562 H575 0.985 . S
N563 C565 1.356 . S
N563 H568 0.984 . S
N563 H569 0.985 . S
C564 C558 1.379 . S
C564 C561 1.363 . S
C564 N562 1.356 . S
C565 C559 1.363 . S
C565 C560 1.379 . S
C565 N563 1.356 . S
N566 C558 1.356 . S
N566 H572 0.984 . S
N566 H573 0.984 . S
N567 C560 1.356 1_554 S
N567 H570 0.984 . S
N567 H571 0.985 . S
H568 N563 0.984 . S
H569 N563 0.985 . S
H570 N567 0.984 . S
H571 N567 0.985 . S
H572 N566 0.984 . S
H573 N566 0.984 . S
H574 N562 0.984 . S
H575 N562 0.985 . S
C576 C577 1.363 . S
C576 C582 1.379 . S
C576 N584 1.356 . S
C577 C576 1.363 . S
C577 C583 1.363 . S
C578 C579 1.363 . S
C578 C583 1.379 . S
C578 N585 1.356 1_556 S
C579 C578 1.363 . S
C579 C582 1.363 . S
N580 C582 1.356 1_455 S
N580 H592 0.984 . S
N580 H593 0.985 . S
N581 C583 1.356 . S
N581 H586 0.984 . S
N581 H587 0.985 . S
C582 C576 1.379 . S
C582 C579 1.363 . S
C582 N580 1.356 1_655 S
C583 C577 1.363 . S
C583 C578 1.379 . S
C583 N581 1.356 . S
N584 C576 1.356 . S
N584 H590 0.984 1_655 S
N584 H591 0.984 . S
N585 C578 1.356 1_554 S
N585 H588 0.984 . S
N585 H589 0.985 . S
H586 N581 0.984 . S
H587 N581 0.985 . S
H588 N585 0.984 . S
H589 N585 0.985 . S
H590 N584 0.984 1_455 S
H591 N584 0.984 . S
H592 N580 0.984 . S
H593 N580 0.985 . S
C594 C595 1.363 . S
C594 C600 1.379 . S
C594 N602 1.356 . S
C595 C594 1.363 . S
C595 C601 1.363 . S
C596 C597 1.363 . S
C596 C601 1.379 . S
C596 N603 1.356 . S
C597 C596 1.363 . S
C597 C600 1.363 . S
N598 C600 1.356 . S
N598 H610 0.984 . S
N598 H611 0.985 . S
N599 C601 1.356 1_554 S
N599 H604 0.984 . S
N599 H605 0.985 . S
C600 C594 1.379 . S
C600 C597 1.363 . S
C600 N598 1.356 . S
C601 C595 1.363 . S
C601 C596 1.379 . S
C601 N599 1.356 1_556 S
N602 C594 1.356 . S
N602 H608 0.984 . S
N602 H609 0.984 . S
N603 C596 1.356 . S
N603 H606 0.984 . S
N603 H607 0.985 . S
H604 N599 0.984 . S
H605 N599 0.985 . S
H606 N603 0.984 . S
H607 N603 0.985 . S
H608 N602 0.984 . S
H609 N602 0.984 . S
H610 N598 0.984 . S
H611 N598 0.985 . S
C612 C613 1.363 . S
C612 C618 1.379 . S
C612 N620 1.356 . S
C613 C612 1.363 . S
C613 C619 1.363 . S
C614 C615 1.363 . S
C614 C619 1.379 . S
C614 N621 1.356 1_556 S
C615 C614 1.363 . S
C615 C618 1.363 . S
N616 C618 1.356 . S
N616 H628 0.984 . S
N616 H629 0.985 . S
N617 C619 1.356 . S
N617 H622 0.984 . S
N617 H623 0.985 . S
C618 C612 1.379 . S
C618 C615 1.363 . S
C618 N616 1.356 . S
C619 C613 1.363 . S
C619 C614 1.379 . S
C619 N617 1.356 . S
N620 C612 1.356 . S
N620 H626 0.984 . S
N620 H627 0.984 . S
N621 C614 1.356 1_554 S
N621 H624 0.984 . S
N621 H625 0.985 . S
H622 N617 0.984 . S
H623 N617 0.985 . S
H624 N621 0.984 . S
H625 N621 0.985 . S
H626 N620 0.984 . S
H627 N620 0.984 . S
H628 N616 0.984 . S
H629 N616 0.985 . S
C630 C631 1.363 . S
C630 C636 1.379 . S
C630 N638 1.356 . S
C631 C630 1.363 . S
C631 C637 1.363 . S
C632 C633 1.363 . S
C632 C637 1.379 . S
C632 N639 1.356 . S
C633 C632 1.363 . S
C633 C636 1.363 . S
N634 C636 1.356 . S
N634 H646 0.984 . S
N634 H647 0.985 . S
N635 C637 1.356 . S
N635 H640 0.984 . S
N635 H641 0.985 . S
C636 C630 1.379 . S
C636 C633 1.363 . S
C636 N634 1.356 . S
C637 C631 1.363 . S
C637 C632 1.379 . S
C637 N635 1.356 . S
N638 C630 1.356 . S
N638 H644 0.984 . S
N638 H645 0.984 . S
N639 C632 1.356 . S
N639 H642 0.984 . S
N639 H643 0.985 . S
H640 N635 0.984 . S
H641 N635 0.985 . S
H642 N639 0.984 . S
H643 N639 0.985 . S
H644 N638 0.984 . S
H645 N638 0.984 . S
H646 N634 0.984 . S
H647 N634 0.985 . S
C648 C649 1.363 . S
C648 C654 1.379 . S
C648 N656 1.356 . S
C649 C648 1.363 . S
C649 C655 1.363 . S
C650 C651 1.363 . S
C650 C655 1.379 . S
C650 N657 1.356 . S
C651 C650 1.363 . S
C651 C654 1.363 . S
N652 C654 1.356 . S
N652 H664 0.984 1_554 S
N652 H665 0.985 . S
N653 C655 1.356 . S
N653 H658 0.984 . S
N653 H659 0.985 . S
C654 C648 1.379 . S
C654 C651 1.363 . S
C654 N652 1.356 . S
C655 C649 1.363 . S
C655 C650 1.379 . S
C655 N653 1.356 . S
N656 C648 1.356 . S
N656 H662 0.984 . S
N656 H663 0.984 . S
N657 C650 1.356 . S
N657 H660 0.984 . S
N657 H661 0.985 . S
H658 N653 0.984 . S
H659 N653 0.985 . S
H660 N657 0.984 . S
H661 N657 0.985 . S
H662 N656 0.984 . S
H663 N656 0.984 . S
H664 N652 0.984 1_556 S
H665 N652 0.985 . S
C666 C667 1.363 . S
C666 C672 1.379 . S
C666 N674 1.356 . S
C667 C666 1.363 . S
C667 C673 1.363 . S
C668 C669 1.363 . S
C668 C673 1.379 . S
C668 N675 1.356 . S
C669 C668 1.363 . S
C669 C672 1.363 . S
N670 C672 1.356 . S
N670 H682 0.984 . S
N670 H683 0.985 . S
N671 C673 1.356 . S
N671 H676 0.984 . S
N671 H677 0.985 . S
C672 C666 1.379 . S
C672 C669 1.363 . S
C672 N670 1.356 . S
C673 C667 1.363 . S
C673 C668 1.379 . S
C673 N671 1.356 . S
N674 C666 1.356 . S
N674 H680 0.984 . S
N674 H681 0.984 . S
N675 C668 1.356 . S
N675 H678 0.984 . S
N675 H679 0.985 . S
H676 N671 0.984 . S
H677 N671 0.985 . S
H678 N675 0.984 . S
H679 N675 0.985 . S
H680 N674 0.984 . S
H681 N674 0.984 . S
H682 N670 0.984 . S
H683 N670 0.985 . S
C684 C685 1.363 . S
C684 C690 1.379 . S
C684 N692 1.356 . S
C685 C684 1.363 . S
C685 C691 1.363 . S
C686 C687 1.363 . S
C686 C691 1.379 . S
C686 N693 1.356 . S
C687 C686 1.363 . S
C687 C690 1.363 . S
N688 C690 1.356 . S
N688 H700 0.984 . S
N688 H701 0.985 . S
N689 C691 1.356 . S
N689 H694 0.984 . S
N689 H695 0.985 . S
C690 C684 1.379 . S
C690 C687 1.363 . S
C690 N688 1.356 . S
C691 C685 1.363 . S
C691 C686 1.379 . S
C691 N689 1.356 . S
N692 C684 1.356 . S
N692 H698 0.984 . S
N692 H699 0.984 . S
N693 C686 1.356 . S
N693 H696 0.984 . S
N693 H697 0.985 . S
H694 N689 0.984 . S
H695 N689 0.985 . S
H696 N693 0.984 . S
H697 N693 0.985 . S
H698 N692 0.984 . S
H699 N692 0.984 . S
H700 N688 0.984 . S
H701 N688 0.985 . S
C702 C703 1.363 . S
C702 C708 1.379 . S
C702 N710 1.356 . S
C703 C702 1.363 . S
C703 C709 1.363 . S
C704 C705 1.363 . S
C704 C709 1.379 . S
C704 N711 1.356 . S
C705 C704 1.363 . S
C705 C708 1.363 . S
N706 C708 1.356 . S
N706 H718 0.984 . S
N706 H719 0.985 . S
N707 C709 1.356 . S
N707 H712 0.984 . S
N707 H713 0.985 . S
C708 C702 1.379 . S
C708 C705 1.363 . S
C708 N706 1.356 . S
C709 C703 1.363 . S
C709 C704 1.379 . S
C709 N707 1.356 . S
N710 C702 1.356 . S
N710 H716 0.984 1_565 S
N710 H717 0.984 1_565 S
N711 C704 1.356 . S
N711 H714 0.984 . S
N711 H715 0.985 . S
H712 N707 0.984 . S
H713 N707 0.985 . S
H714 N711 0.984 . S
H715 N711 0.985 . S
H716 N710 0.984 1_545 S
H717 N710 0.984 1_545 S
H718 N706 0.984 . S
H719 N706 0.985 . S
C720 C721 1.363 . S
C720 C726 1.379 1_655 S
C720 N728 1.356 . S
C721 C720 1.363 . S
C721 C727 1.363 . S
C722 C723 1.363 . S
C722 C727 1.379 1_455 S
C722 N729 1.356 . S
C723 C722 1.363 . S
C723 C726 1.363 . S
N724 C726 1.356 . S
N724 H736 0.984 . S
N724 H737 0.985 . S
N725 C727 1.356 . S
N725 H730 0.984 . S
N725 H731 0.985 . S
C726 C720 1.379 1_455 S
C726 C723 1.363 . S
C726 N724 1.356 . S
C727 C721 1.363 . S
C727 C722 1.379 1_655 S
C727 N725 1.356 . S
N728 C720 1.356 . S
N728 H734 0.984 . S
N728 H735 0.984 . S
N729 C722 1.356 . S
N729 H732 0.984 . S
N729 H733 0.985 . S
H730 N725 0.984 . S
H731 N725 0.985 . S
H732 N729 0.984 . S
H733 N729 0.985 . S
H734 N728 0.984 . S
H735 N728 0.984 . S
H736 N724 0.984 . S
H737 N724 0.985 . S
C738 C739 1.363 . S
C738 C744 1.379 . S
C738 N746 1.356 . S
C739 C738 1.363 . S
C739 C745 1.363 . S
C740 C741 1.363 . S
C740 C745 1.379 . S
C740 N747 1.356 . S
C741 C740 1.363 . S
C741 C744 1.363 . S
N742 C744 1.356 . S
N742 H754 0.984 . S
N742 H755 0.985 . S
N743 C745 1.356 . S
N743 H748 0.984 . S
N743 H749 0.985 . S
C744 C738 1.379 . S
C744 C741 1.363 . S
C744 N742 1.356 . S
C745 C739 1.363 . S
C745 C740 1.379 . S
C745 N743 1.356 . S
N746 C738 1.356 . S
N746 H752 0.984 . S
N746 H753 0.984 . S
N747 C740 1.356 . S
N747 H750 0.984 . S
N747 H751 0.985 . S
H748 N743 0.984 . S
H749 N743 0.985 . S
H750 N747 0.984 . S
H751 N747 0.985 . S
H752 N746 0.984 . S
H753 N746 0.984 . S
H754 N742 0.984 . S
H755 N742 0.985 . S
C756 C757 1.363 . S
C756 C762 1.379 . S
C756 N764 1.356 . S
C757 C756 1.363 . S
C757 C763 1.363 . S
C758 C759 1.363 . S
C758 C763 1.379 . S
C758 N765 1.356 . S
C759 C758 1.363 . S
C759 C762 1.363 . S
N760 C762 1.356 . S
N760 H772 0.984 . S
N760 H773 0.985 1_565 S
N761 C763 1.356 . S
N761 H766 0.984 . S
N761 H767 0.985 . S
C762 C756 1.379 . S
C762 C759 1.363 . S
C762 N760 1.356 . S
C763 C757 1.363 . S
C763 C758 1.379 . S
C763 N761 1.356 . S
N764 C756 1.356 . S
N764 H770 0.984 . S
N764 H771 0.984 . S
N765 C758 1.356 . S
N765 H768 0.984 . S
N765 H769 0.985 . S
H766 N761 0.984 . S
H767 N761 0.985 . S
H768 N765 0.984 . S
H769 N765 0.985 . S
H770 N764 0.984 . S
H771 N764 0.984 . S
H772 N760 0.984 . S
H773 N760 0.985 1_545 S
C774 C775 1.363 . S
C774 C780 1.379 . S
C774 N782 1.356 . S
C775 C774 1.363 . S
C775 C781 1.363 . S
C776 C777 1.363 . S
C776 C781 1.379 1_455 S
C776 N783 1.356 . S
C777 C776 1.363 . S
C777 C780 1.363 1_455 S
N778 C780 1.356 . S
N778 H790 0.984 . S
N778 H791 0.985 1_655 S
N779 C781 1.356 . S
N779 H784 0.984 . S
N779 H785 0.985 1_655 S
C780 C774 1.379 . S
C780 C777 1.363 1_655 S
C780 N778 1.356 . S
C781 C775 1.363 . S
C781 C776 1.379 1_655 S
C781 N779 1.356 . S
N782 C774 1.356 . S
N782 H788 0.984 . S
N782 H789 0.984 . S
N783 C776 1.356 . S
N783 H786 0.984 . S
N783 H787 0.985 . S
H784 N779 0.984 . S
H785 N779 0.985 1_455 S
H786 N783 0.984 . S
H787 N783 0.985 . S
H788 N782 0.984 . S
H789 N782 0.984 . S
H790 N778 0.984 . S
H791 N778 0.985 1_455 S
C307 C4 1.186 . S
C309 C13 1.186 1_455 S
C325 C47 1.068 . S
C327 C38 1.068 . S
C343 C72 0.970 . S
C345 C81 0.970 . S
C361 C115 1.186 . S
C363 C106 1.186 . S
C379 C140 1.068 . S
C381 C149 1.068 . S
C397 C183 0.970 . S
C399 C174 0.970 . S
C415 C233 3.526 . S
C417 C204 3.526 1_554 S
C433 C238 3.532 . S
C435 C267 3.532 1_554 S
C451 C301 3.545 . S
C453 C272 3.545 1_554 S
C469 C187 1.827 . S
C471 C29 1.788 . S
C487 C51 1.857 . S
C489 C119 1.821 . S
C505 C97 1.816 . S
C507 C165 1.794 . S
C523 C85 1.781 . S
C525 C212 1.794 . S
C541 C251 1.334 . S
C543 C17 1.337 1_656 S
C559 C280 1.550 . S
C561 C63 1.541 . S
C577 C276 1.244 . S
C579 C0 1.260 1_656 S
C595 C42 1.384 . S
C597 C208 1.371 . S
C613 C255 1.704 . S
C615 C68 1.693 . S
C631 C76 1.827 . S
C633 C102 1.788 . S
C649 C144 1.857 . S
C651 C8 1.821 . S
C667 C34 1.794 . S
C669 C170 1.816 . S
C685 C285 1.244 . S
C687 C131 1.260 . S
C703 C217 1.371 . S
C705 C153 1.384 . S
C721 C246 1.704 . S
C723 C199 1.693 . S
C739 C221 1.794 . S
C741 C178 1.781 . S
C757 C110 1.337 . S
C759 C242 1.334 . S
C775 C289 1.550 . S
C777 C136 1.541 . S
