# Generated by pormake.
# Topology wkj, (6)-cn, num edge types: 1
# Building blocks:
#     Node 0, Type 0, BuildingBlock: KUMJIN_clean_sbu_1, # of connection points: 6
#     Node 1, Type 0, BuildingBlock: KUMJIN_clean_sbu_1, # of connection points: 6
#     Node 2, Type 0, BuildingBlock: KUMJIN_clean_sbu_1, # of connection points: 6
#     Node 3, Type 0, BuildingBlock: KUMJIN_clean_sbu_1, # of connection points: 6
#     Node 4, Type 0, BuildingBlock: KUMJIN_clean_sbu_1, # of connection points: 6
#     Node 5, Type 0, BuildingBlock: KUMJIN_clean_sbu_1, # of connection points: 6
#     Node 6, Type 0, BuildingBlock: KUMJIN_clean_sbu_1, # of connection points: 6
#     Node 7, Type 0, BuildingBlock: KUMJIN_clean_sbu_1, # of connection points: 6
#     Node 8, Type 0, BuildingBlock: KUMJIN_clean_sbu_1, # of connection points: 6
#     Node 9, Type 0, BuildingBlock: KUMJIN_clean_sbu_1, # of connection points: 6
#     Node 10, Type 0, BuildingBlock: KUMJIN_clean_sbu_1, # of connection points: 6
#     Node 11, Type 0, BuildingBlock: KUMJIN_clean_sbu_1, # of connection points: 6
#     Edge 12, Type (0, 0), BuildingBlock: KIFKEQ_clean_linker_1, # of connection points: 2
#     Edge 13, Type (0, 0), BuildingBlock: KIFKEQ_clean_linker_1, # of connection points: 2
#     Edge 14, Type (0, 0), BuildingBlock: KIFKEQ_clean_linker_1, # of connection points: 2
#     Edge 15, Type (0, 0), BuildingBlock: KIFKEQ_clean_linker_1, # of connection points: 2
#     Edge 16, Type (0, 0), BuildingBlock: KIFKEQ_clean_linker_1, # of connection points: 2
#     Edge 17, Type (0, 0), BuildingBlock: KIFKEQ_clean_linker_1, # of connection points: 2
#     Edge 18, Type (0, 0), BuildingBlock: KIFKEQ_clean_linker_1, # of connection points: 2
#     Edge 19, Type (0, 0), BuildingBlock: KIFKEQ_clean_linker_1, # of connection points: 2
#     Edge 20, Type (0, 0), BuildingBlock: KIFKEQ_clean_linker_1, # of connection points: 2
#     Edge 21, Type (0, 0), BuildingBlock: KIFKEQ_clean_linker_1, # of connection points: 2
#     Edge 22, Type (0, 0), BuildingBlock: KIFKEQ_clean_linker_1, # of connection points: 2
#     Edge 23, Type (0, 0), BuildingBlock: KIFKEQ_clean_linker_1, # of connection points: 2
#     Edge 24, Type (0, 0), BuildingBlock: KIFKEQ_clean_linker_1, # of connection points: 2
#     Edge 25, Type (0, 0), BuildingBlock: KIFKEQ_clean_linker_1, # of connection points: 2
#     Edge 26, Type (0, 0), BuildingBlock: KIFKEQ_clean_linker_1, # of connection points: 2
#     Edge 27, Type (0, 0), BuildingBlock: KIFKEQ_clean_linker_1, # of connection points: 2
#     Edge 28, Type (0, 0), BuildingBlock: KIFKEQ_clean_linker_1, # of connection points: 2
#     Edge 29, Type (0, 0), BuildingBlock: KIFKEQ_clean_linker_1, # of connection points: 2
#     Edge 30, Type (0, 0), BuildingBlock: KIFKEQ_clean_linker_1, # of connection points: 2
#     Edge 31, Type (0, 0), BuildingBlock: KIFKEQ_clean_linker_1, # of connection points: 2
#     Edge 32, Type (0, 0), BuildingBlock: KIFKEQ_clean_linker_1, # of connection points: 2
#     Edge 33, Type (0, 0), BuildingBlock: KIFKEQ_clean_linker_1, # of connection points: 2
#     Edge 34, Type (0, 0), BuildingBlock: KIFKEQ_clean_linker_1, # of connection points: 2
#     Edge 35, Type (0, 0), BuildingBlock: KIFKEQ_clean_linker_1, # of connection points: 2
#     Edge 36, Type (0, 0), BuildingBlock: KIFKEQ_clean_linker_1, # of connection points: 2
#     Edge 37, Type (0, 0), BuildingBlock: KIFKEQ_clean_linker_1, # of connection points: 2
#     Edge 38, Type (0, 0), BuildingBlock: KIFKEQ_clean_linker_1, # of connection points: 2
#     Edge 39, Type (0, 0), BuildingBlock: KIFKEQ_clean_linker_1, # of connection points: 2
#     Edge 40, Type (0, 0), BuildingBlock: KIFKEQ_clean_linker_1, # of connection points: 2
#     Edge 41, Type (0, 0), BuildingBlock: KIFKEQ_clean_linker_1, # of connection points: 2
#     Edge 42, Type (0, 0), BuildingBlock: KIFKEQ_clean_linker_1, # of connection points: 2
#     Edge 43, Type (0, 0), BuildingBlock: KIFKEQ_clean_linker_1, # of connection points: 2
#     Edge 44, Type (0, 0), BuildingBlock: KIFKEQ_clean_linker_1, # of connection points: 2
#     Edge 45, Type (0, 0), BuildingBlock: KIFKEQ_clean_linker_1, # of connection points: 2
#     Edge 46, Type (0, 0), BuildingBlock: KIFKEQ_clean_linker_1, # of connection points: 2
#     Edge 47, Type (0, 0), BuildingBlock: KIFKEQ_clean_linker_1, # of connection points: 2
# Relax obj value: 0.648
# Max RMSD: 0.202
# Mean RMSD: 0.202
data_MOF--net-wkj--node1-KUMJIN_clean_sbu_1--edge1-KIFKEQ_clean_linker_1
_symmetry_space_group_name_H-M    P1
_symmetry_Int_Tables_number       1
_symmetry_cell_setting            triclinic
loop_
_symmetry_equiv_pos_as_xyz
'x, y, z'
_cell_length_a     51.878172
_cell_length_b     52.133904
_cell_length_c     29.132967
_cell_angle_alpha  90.50017
_cell_angle_beta   89.895034
_cell_angle_gamma 120.4729
loop_
_atom_site_label
_atom_site_type_symbol
_atom_site_fract_x
_atom_site_fract_y
_atom_site_fract_z
_atom_type_partial_charge
Eu0 Eu 0.54353 0.11502 0.33162 0.0
C1 C 0.39195 0.04694 0.34132 0.0
N2 N 0.41586 0.07149 0.32388 0.0
C3 C 0.38547 0.07271 0.26299 0.0
C4 C 0.3636 0.03414 0.32012 0.0
C5 C 0.41309 0.08457 0.28534 0.0
C6 C 0.36061 0.04731 0.28038 0.0
C7 C 0.37131 0.00966 0.40068 0.0
C8 C 0.39584 0.03484 0.38077 0.0
C9 C 0.34308 0.99657 0.37951 0.0
C10 C 0.33924 0.00876 0.33925 0.0
Eu11 Eu 0.46264 0.08902 0.3598 0.0
N12 N 0.42348 0.04798 0.40007 0.0
C13 C 0.37582 -0.00149 0.44144 0.0
C14 C 0.42774 0.03739 0.44043 0.0
C15 C 0.40412 0.01259 0.46153 0.0
H16 H 0.43227 0.10403 0.27148 0.0
H17 H 0.40787 0.00428 0.49324 0.0
H18 H 0.58603 0.15633 0.42157 0.0
H19 H 0.53336 0.15089 0.15919 0.0
H20 H 0.44929 0.04753 0.45677 0.0
H21 H 0.35759 0.97926 0.45786 0.0
H22 H 0.52229 0.11518 0.2207 0.0
H23 H 0.38341 0.08308 0.23229 0.0
H24 H 0.32406 0.97714 0.39416 0.0
H25 H 0.31732 -0.00146 0.32336 0.0
H26 H 0.62297 0.20844 0.43905 0.0
H27 H 0.33924 0.03813 0.26299 0.0
H28 H 0.5697 0.20409 0.17216 0.0
N29 N 0.57854 0.16476 0.35282 0.0
C30 C 0.58709 0.18535 0.31897 0.0
C31 C 0.61281 0.2023 0.40532 0.0
C32 C 0.60792 0.21561 0.32801 0.0
C33 C 0.59148 0.17272 0.39532 0.0
C34 C 0.62093 0.22389 0.37165 0.0
N35 N 0.55269 0.14717 0.26847 0.0
C36 C 0.53866 0.13799 0.22698 0.0
C37 C 0.58022 0.1978 0.24155 0.0
C38 C 0.57365 0.1764 0.27583 0.0
C39 C 0.56555 0.18838 0.19921 0.0
C40 C 0.54486 0.15835 0.19183 0.0
H41 H 0.63717 0.24689 0.37974 0.0
H42 H 0.63018 0.26017 0.30035 0.0
H43 H 0.60525 0.2448 0.22566 0.0
O44 O 0.57247 0.10764 0.28518 0.0
O45 O 0.53905 0.11202 0.41158 0.0
O46 O 0.48881 0.09162 0.42914 0.0
O47 O 0.5843 0.11712 0.35641 0.0
O48 O 0.52784 0.14951 0.3389 0.0
O49 O 0.48361 0.12367 0.30318 0.0
O50 O 0.43972 0.11221 0.38229 0.0
O51 O 0.46406 0.07078 0.28551 0.0
O52 O 0.51205 0.07838 0.27718 0.0
O53 O 0.48668 0.1299 0.40013 0.0
O54 O 0.47071 0.05122 0.3544 0.0
O55 O 0.52036 0.07189 0.37154 0.0
C56 C 0.51734 0.10254 0.44281 0.0
C57 C 0.62375 0.14014 0.30407 0.0
C58 C 0.65579 0.18382 0.25795 0.0
C59 C 0.6791 0.19235 0.28965 0.0
C60 C 0.64753 0.14862 0.33502 0.0
C61 C 0.67506 0.17453 0.32769 0.0
C62 C 0.62834 0.15756 0.26505 0.0
C63 C 0.50662 0.14971 0.31418 0.0
C64 C 0.59354 0.11551 0.31571 0.0
C65 C 0.61452 0.23679 0.29382 0.0
C66 C 0.60045 0.22797 0.25101 0.0
C67 C 0.48363 0.06579 0.26258 0.0
C68 C 0.45694 0.13555 0.45443 0.0
C69 C 0.43787 0.11237 0.52857 0.0
C70 C 0.4506 0.14073 0.5491 0.0
C71 C 0.46947 0.16376 0.47502 0.0
C72 C 0.44113 0.11019 0.48123 0.0
C73 C 0.46613 0.16629 0.52226 0.0
C74 C 0.49262 0.04971 0.37288 0.0
C75 C 0.46283 0.13204 0.40628 0.0
H76 H 0.70037 0.21261 0.28482 0.0
H77 H 0.64452 0.13568 0.36555 0.0
H78 H 0.69313 0.1811 0.35204 0.0
H79 H 0.61016 0.15153 0.24107 0.0
H80 H 0.4484 0.14313 0.58563 0.0
H81 H 0.48221 0.18366 0.45481 0.0
H82 H 0.43218 0.08861 0.46523 0.0
H83 H 0.47592 0.18809 0.5382 0.0
Eu84 Eu 0.41901 0.54392 0.65822 0.0
C85 C 0.33841 0.39527 0.66245 0.0
N86 N 0.33592 0.4182 0.64642 0.0
C87 C 0.30958 0.38922 0.58 0.0
C88 C 0.32733 0.36851 0.63718 0.0
C89 C 0.32101 0.41532 0.60638 0.0
C90 C 0.3131 0.36583 0.59516 0.0
C91 C 0.35288 0.37449 0.72424 0.0
C92 C 0.35087 0.39822 0.70519 0.0
C93 C 0.343 0.34815 0.69861 0.0
C94 C 0.33025 0.34517 0.65509 0.0
Eu95 Eu 0.35928 0.46341 0.68896 0.0
N96 N 0.3598 0.42386 0.72896 0.0
C97 C 0.36429 0.37777 0.76872 0.0
C98 C 0.36973 0.42658 0.77321 0.0
C99 C 0.37244 0.40383 0.79347 0.0
H100 H 0.31865 0.4335 0.59414 0.0
H101 H 0.38088 0.40644 0.82816 0.0
H102 H 0.48666 0.55756 0.62563 0.0
H103 H 0.38925 0.60671 0.77697 0.0
H104 H 0.37605 0.44644 0.79306 0.0
H105 H 0.36634 0.36015 0.78453 0.0
H106 H 0.37991 0.56833 0.71868 0.0
H107 H 0.29827 0.38726 0.54785 0.0
H108 H 0.34466 0.32982 0.71243 0.0
H109 H 0.3222 0.32456 0.636 0.0
H110 H 0.53981 0.59082 0.64747 0.0
H111 H 0.3043 0.34566 0.57466 0.0
H112 H 0.44065 0.64046 0.80546 0.0
N113 N 0.47025 0.57504 0.67639 0.0
C114 C 0.47704 0.59601 0.7096 0.0
C115 C 0.52237 0.59241 0.66539 0.0
C116 C 0.50696 0.61564 0.7228 0.0
C117 C 0.49236 0.57355 0.6533 0.0
C118 C 0.52968 0.6133 0.70069 0.0
N119 N 0.42548 0.57962 0.71511 0.0
C120 C 0.40244 0.58293 0.73075 0.0
C121 C 0.46043 0.6212 0.7619 0.0
C122 C 0.4541 0.5989 0.72873 0.0
C123 C 0.43672 0.6237 0.77976 0.0
C124 C 0.40766 0.60465 0.76381 0.0
H125 H 0.55294 0.62795 0.70988 0.0
H126 H 0.53613 0.65255 0.76751 0.0
H127 H 0.49538 0.6573 0.8019 0.0
O128 O 0.40088 0.56252 0.60917 0.0
O129 O 0.41755 0.54007 0.7384 0.0
O130 O 0.3828 0.49154 0.75821 0.0
O131 O 0.44826 0.57861 0.6105 0.0
O132 O 0.36931 0.53066 0.65922 0.0
O133 O 0.35097 0.48561 0.62762 0.0
O134 O 0.31236 0.43682 0.7086 0.0
O135 O 0.38047 0.4621 0.61738 0.0
O136 O 0.41953 0.51008 0.60262 0.0
O137 O 0.33561 0.48469 0.71681 0.0
O138 O 0.40382 0.47725 0.71903 0.0
O139 O 0.43382 0.51009 0.66487 0.0
C140 C 0.40341 0.51974 0.77064 0.0
C141 C 0.43358 0.61436 0.59983 0.0
C142 C 0.42334 0.65277 0.57465 0.0
C143 C 0.44574 0.67347 0.60398 0.0
C144 C 0.45638 0.63557 0.62856 0.0
C145 C 0.46194 0.66471 0.63131 0.0
C146 C 0.4169 0.62312 0.57342 0.0
C147 C 0.34827 0.50909 0.63425 0.0
C148 C 0.42736 0.58338 0.59628 0.0
C149 C 0.5133 0.63741 0.75668 0.0
C150 C 0.4901 0.6402 0.77616 0.0
C151 C 0.40334 0.48096 0.59087 0.0
C152 C 0.299 0.45686 0.77026 0.0
C153 C 0.30133 0.44562 0.85016 0.0
C154 C 0.28043 0.45414 0.86147 0.0
C155 C 0.27785 0.46511 0.78117 0.0
C156 C 0.31074 0.44757 0.80478 0.0
C157 C 0.26866 0.46377 0.82684 0.0
C158 C 0.43033 0.49484 0.70233 0.0
C159 C 0.31088 0.4597 0.72394 0.0
H160 H 0.45132 0.69651 0.60451 0.0
H161 H 0.47042 0.63 0.64812 0.0
H162 H 0.47956 0.68079 0.65349 0.0
H163 H 0.40002 0.60726 0.5499 0.0
H164 H 0.27302 0.45295 0.89657 0.0
H165 H 0.26883 0.47284 0.75473 0.0
H166 H 0.32763 0.44201 0.79621 0.0
H167 H 0.25246 0.47022 0.83543 0.0
Eu168 Eu 0.85818 0.41781 0.99714 0.0
C169 C 0.95808 0.3741 0.99973 0.0
N170 N 0.92839 0.36177 0.99197 0.0
C171 C 0.93018 0.3295 0.93448 0.0
C172 C 0.97541 0.36539 0.97387 0.0
C173 C 0.914 0.33896 0.96108 0.0
C174 C 0.96114 0.34316 0.9403 0.0
C175 C 0.00086 0.40545 1.04774 0.0
C176 C 0.97054 0.39381 1.03593 0.0
C177 C 0.01879 0.39833 1.02049 0.0
C178 C 0.00607 0.37832 0.98355 0.0
Eu179 Eu 0.90255 0.3804 1.03494 0.0
N180 N 0.95238 0.39977 1.06171 0.0
C181 C 0.01186 0.42285 1.08761 0.0
C182 C 0.96264 0.41549 1.10182 0.0
C183 C 0.99247 0.42729 1.11531 0.0
H184 H 0.8901 0.32861 0.95626 0.0
H185 H 0.0005 0.43993 0.14699 0.0
H186 H 0.90399 0.48003 0.93852 0.0
H187 H 0.77118 0.40044 0.11976 0.0
H188 H 0.94793 0.41909 0.12366 0.0
H189 H 0.03496 0.43209 1.09807 0.0
H190 H 0.79788 0.38565 1.06484 0.0
H191 H 0.91881 0.31184 0.90932 0.0
H192 H 0.04223 0.40739 1.0286 0.0
H193 H 0.01989 0.37225 0.96369 0.0
H194 H 0.9238 0.5342 0.94492 0.0
H195 H 0.97363 0.33581 0.91969 0.0
H196 H 0.79 0.45383 0.13533 0.0
N197 N 0.87587 0.46961 0.99698 0.0
C198 C 0.86429 0.47988 1.02916 0.0
C199 C 0.90719 0.51919 0.96901 0.0
C200 C 0.87442 0.51052 1.03343 0.0
C201 C 0.89603 0.48853 0.96564 0.0
C202 C 0.89667 0.53029 1.00351 0.0
N203 N 0.83152 0.43015 1.0503 0.0
C204 C 0.80596 0.40897 1.07115 0.0
C205 C 0.82681 0.46899 1.08747 0.0
C206 C 0.84112 0.45948 1.05624 0.0
C207 C 0.80164 0.44744 1.11107 0.0
C208 C 0.79093 0.41728 1.10235 0.0
H209 H 0.90521 0.55402 1.00586 0.0
H210 H 0.86911 0.54378 1.07051 0.0
H211 H 0.82716 0.50735 0.11754 0.0
O212 O 0.82537 0.38687 0.9472 0.0
O213 O 0.8603 0.41554 1.07895 0.0
O214 O 0.89712 0.40491 1.09876 0.0
O215 O 0.83207 0.43103 0.95515 0.0
O216 O 0.83318 0.36979 1.02148 0.0
O217 O 0.8623 0.35586 0.98557 0.0
O218 O 0.9011 0.34244 1.06805 0.0
O219 O 0.91364 0.39231 0.95816 0.0
O220 O 0.89241 0.42068 0.9379 0.0
O221 O 0.86381 0.34973 1.07598 0.0
O222 O 0.92293 0.42995 1.05223 0.0
O223 O 0.90749 0.44362 0.99008 0.0
C224 C 0.87745 0.41301 1.1111 0.0
C225 C 0.78256 0.39221 0.94491 0.0
C226 C 0.73793 0.39488 0.92825 0.0
C227 C 0.72122 0.37095 0.95772 0.0
C228 C 0.76566 0.36855 0.97491 0.0
C229 C 0.73519 0.35806 0.98135 0.0
C230 C 0.76861 0.40545 0.92216 0.0
C231 C 0.83533 0.34922 0.99862 0.0
C232 C 0.81495 0.4044 0.93861 0.0
C233 C 0.86145 0.5203 1.06642 0.0
C234 C 0.83757 0.49956 1.09323 0.0
C235 C 0.90984 0.40887 0.92766 0.0
C236 C 0.87783 0.33316 0.1403 0.0
C237 C 0.9075 0.34892 0.21059 0.0
C238 C 0.88116 0.33276 0.23631 0.0
C239 C 0.85172 0.317 0.16617 0.0
C240 C 0.90541 0.34927 0.16277 0.0
C241 C 0.85342 0.31692 0.21409 0.0
C242 C 0.92354 0.451 1.02688 0.0
C243 C 0.87645 0.33514 1.09023 0.0
H244 H 0.69744 0.36209 0.96196 0.0
H245 H 0.77598 0.35828 0.99347 0.0
H246 H 0.72233 0.33969 1.00432 0.0
H247 H 0.78151 0.42349 0.89852 0.0
H248 H 0.88201 0.33181 0.27336 0.0
H249 H 0.83011 0.30476 0.14939 0.0
H250 H 0.92546 0.36231 0.14288 0.0
H251 H 0.83323 0.30443 0.23403 0.0
Eu252 Eu 0.44716 0.8657 0.32824 0.0
C253 C 0.59168 0.94493 0.31092 0.0
N254 N 0.56991 0.91659 0.30133 0.0
C255 C 0.59462 0.91711 0.23143 0.0
C256 C 0.61531 0.96106 0.27994 0.0
C257 C 0.57156 0.90209 0.26319 0.0
C258 C 0.61634 0.94689 0.23948 0.0
C259 C 0.61442 0.98591 0.36542 0.0
C260 C 0.59129 0.95707 0.35314 0.0
C261 C 0.63707 0.0028 0.33361 0.0
C262 C 0.63755 0.99037 0.29097 0.0
Eu263 Eu 0.53072 0.89322 0.35505 0.0
N264 N 0.56943 0.9399 0.38335 0.0
C265 C 0.61466 0.9965 0.40983 0.0
C266 C 0.57065 0.94943 0.42755 0.0
C267 C 0.59293 0.97797 0.44126 0.0
H268 H 0.55461 0.87913 0.25687 0.0
H269 H 0.5934 0.98559 0.47609 0.0
H270 H 0.44465 0.92367 0.2821 0.0
H271 H 0.3647 0.77577 0.43438 0.0
H272 H 0.55422 0.93504 0.45233 0.0
H273 H 0.63202 0.01853 0.42061 0.0
H274 H 0.41024 0.80253 0.38688 0.0
H275 H 0.59555 0.90579 0.20071 0.0
H276 H 0.65481 0.02513 0.3422 0.0
H277 H 0.65565 0.0033 0.26734 0.0
H278 H 0.41351 0.94677 0.28639 0.0
H279 H 0.63415 0.9585 0.21482 0.0
H280 H 0.33185 0.79692 0.44592 0.0
N281 N 0.41741 0.88846 0.32769 0.0
C282 C 0.3922 0.87556 0.35357 0.0
C283 C 0.40726 0.92674 0.30551 0.0
C284 C 0.37365 0.88802 0.35693 0.0
C285 C 0.4249 0.91351 0.30319 0.0
C286 C 0.38159 0.91403 0.33266 0.0
N287 N 0.40362 0.83876 0.37319 0.0
C288 C 0.39605 0.81193 0.39199 0.0
C289 C 0.35893 0.83548 0.40381 0.0
C290 C 0.38516 0.84996 0.3772 0.0
C291 C 0.35181 0.80873 0.42517 0.0
C292 C 0.37029 0.79673 0.41877 0.0
H293 H 0.368 0.92437 0.33446 0.0
H294 H 0.33338 0.88342 0.38741 0.0
H295 H 0.32031 0.8372 0.42812 0.0
O296 O 0.40762 0.83934 0.28557 0.0
O297 O 0.45163 0.8606 0.40667 0.0
O298 O 0.50251 0.88436 0.42461 0.0
O299 O 0.45034 0.84501 0.2645 0.0
O300 O 0.46164 0.83159 0.34557 0.0
O301 O 0.50385 0.85504 0.30512 0.0
O302 O 0.56841 0.88736 0.37168 0.0
O303 O 0.52635 0.91299 0.28479 0.0
O304 O 0.47787 0.90384 0.27673 0.0
O305 O 0.52376 0.85225 0.38687 0.0
O306 O 0.51376 0.91896 0.39287 0.0
O307 O 0.47661 0.91465 0.3458 0.0
C308 C 0.4735 0.87083 0.43775 0.0
C309 C 0.4079 0.79678 0.25637 0.0
C310 C 0.4126 0.75454 0.23076 0.0
C311 C 0.38724 0.73527 0.25639 0.0
C312 C 0.38248 0.77714 0.2819 0.0
C313 C 0.37225 0.7466 0.28174 0.0
C314 C 0.42234 0.78514 0.2303 0.0
C315 C 0.48215 0.82988 0.32124 0.0
C316 C 0.42128 0.82949 0.25948 0.0
C317 C 0.34787 0.87415 0.38432 0.0
C318 C 0.34047 0.84788 0.40761 0.0
C319 C 0.50629 0.91716 0.26243 0.0
C320 C 0.56146 0.85901 0.43769 0.0
C321 C 0.58185 0.88206 0.51186 0.0
C322 C 0.57699 0.85477 0.52842 0.0
C323 C 0.55696 0.83181 0.45397 0.0
C324 C 0.57369 0.88372 0.46683 0.0
C325 C 0.56472 0.82975 0.49932 0.0
C326 C 0.49301 0.9252 0.38311 0.0
C327 C 0.55208 0.86173 0.39142 0.0
H328 H 0.37932 0.71165 0.25726 0.0
H329 H 0.3707 0.78531 0.30247 0.0
H330 H 0.35282 0.73172 0.30179 0.0
H331 H 0.44159 0.80019 0.20994 0.0
H332 H 0.58301 0.85295 0.56332 0.0
H333 H 0.54725 0.81228 0.43191 0.0
H334 H 0.5767 0.90448 0.45444 0.0
H335 H 0.56116 0.80873 0.51193 0.0
Eu336 Eu 0.57447 0.44952 0.66109 0.0
C337 C 0.68599 0.57243 0.62519 0.0
N338 N 0.68045 0.55024 0.65499 0.0
C339 C 0.72921 0.55733 0.64008 0.0
C340 C 0.71266 0.58645 0.5993 0.0
C341 C 0.70277 0.54466 0.66553 0.0
C342 C 0.73385 0.57778 0.6059 0.0
C343 C 0.67223 0.60713 0.59485 0.0
C344 C 0.66625 0.58297 0.62338 0.0
C345 C 0.69791 0.61999 0.56727 0.0
C346 C 0.71807 0.60968 0.56948 0.0
Eu347 Eu 0.63445 0.52945 0.69591 0.0
N348 N 0.64149 0.57004 0.65031 0.0
C349 C 0.65237 0.61787 0.59522 0.0
C350 C 0.62249 0.58102 0.65173 0.0
C351 C 0.62749 0.60485 0.62399 0.0
H352 H 0.7006 0.53102 0.69453 0.0
H353 H 0.61214 0.61316 0.62483 0.0
H354 H 0.61129 0.43858 0.75408 0.0
H355 H 0.5782 0.42319 0.48201 0.0
H356 H 0.60324 0.57129 0.67392 0.0
H357 H 0.65618 0.63633 0.57375 0.0
H358 H 0.56967 0.44798 0.54775 0.0
H359 H 0.74631 0.55191 0.64768 0.0
H360 H 0.70271 0.63837 0.54486 0.0
H361 H 0.73828 0.62046 0.54907 0.0
H362 H 0.63371 0.40894 0.77085 0.0
H363 H 0.75458 0.588 0.58675 0.0
H364 H 0.59754 0.38898 0.49503 0.0
N365 N 0.60007 0.42399 0.68419 0.0
C366 C 0.60358 0.40798 0.64993 0.0
C367 C 0.62489 0.40807 0.73685 0.0
C368 C 0.61706 0.39074 0.65849 0.0
C369 C 0.61142 0.42477 0.72698 0.0
C370 C 0.6273 0.39061 0.70272 0.0
N371 N 0.5851 0.42905 0.59704 0.0
C372 C 0.57856 0.43351 0.55362 0.0
C373 C 0.6006 0.39554 0.5687 0.0
C374 C 0.59574 0.4105 0.60525 0.0
C375 C 0.59393 0.39997 0.52395 0.0
C376 C 0.58307 0.41923 0.5164 0.0
H377 H 0.63793 0.37784 0.71053 0.0
H378 H 0.63091 0.36144 0.62861 0.0
H379 H 0.61627 0.36545 0.55006 0.0
O380 O 0.53883 0.40393 0.67572 0.0
O381 O 0.57551 0.4519 0.74178 0.0
O382 O 0.61274 0.49953 0.76389 0.0
O383 O 0.5328 0.42888 0.62229 0.0
O384 O 0.62186 0.47166 0.62798 0.0
O385 O 0.6471 0.49359 0.69231 0.0
O386 O 0.63762 0.56427 0.74084 0.0
O387 O 0.61619 0.52681 0.61902 0.0
O388 O 0.57077 0.48288 0.61199 0.0
O389 O 0.67291 0.55411 0.74168 0.0
O390 O 0.58736 0.51919 0.69104 0.0
O391 O 0.55711 0.47127 0.70988 0.0
C392 C 0.59111 0.47162 0.77517 0.0
C393 C 0.48922 0.39246 0.65845 0.0
C394 C 0.43721 0.36378 0.63341 0.0
C395 C 0.42859 0.37436 0.67136 0.0
C396 C 0.48051 0.40266 0.69687 0.0
C397 C 0.45018 0.39332 0.70345 0.0
C398 C 0.46753 0.37277 0.6277 0.0
C399 C 0.64615 0.48079 0.65304 0.0
C400 C 0.52062 0.40433 0.6455 0.0
C401 C 0.62088 0.37496 0.62242 0.0
C402 C 0.61261 0.37729 0.57767 0.0
C403 C 0.59024 0.50987 0.59626 0.0
C404 C 0.66016 0.56788 0.81202 0.0
C405 C 0.64341 0.58123 0.88138 0.0
C406 C 0.65541 0.56738 0.90796 0.0
C407 C 0.67245 0.55437 0.83877 0.0
C408 C 0.64563 0.58099 0.83359 0.0
C409 C 0.6699 0.55405 0.88659 0.0
C410 C 0.5661 0.49944 0.71612 0.0
C411 C 0.66153 0.56843 0.76167 0.0
H412 H 0.40552 0.36853 0.67553 0.0
H413 H 0.49709 0.41832 0.72081 0.0
H414 H 0.44352 0.40159 0.73264 0.0
H415 H 0.47467 0.36602 0.59712 0.0
H416 H 0.65419 0.56744 0.94506 0.0
H417 H 0.68378 0.54395 0.82289 0.0
H418 H 0.6358 0.59104 0.81283 0.0
H419 H 0.67931 0.54358 0.90714 0.0
Eu420 Eu 0.12003 0.57301 1.0075 0.0
C421 C 0.04287 0.63812 1.00161 0.0
N422 N 0.07194 0.64684 0.99367 0.0
C423 C 0.07254 0.67498 0.92857 0.0
C424 C 0.02699 0.64649 0.97198 0.0
C425 C 0.08724 0.66582 0.95871 0.0
C426 C 0.04215 0.66491 0.93481 0.0
C427 C 9e-05 0.61464 1.05222 0.0
C428 C 0.0297 0.6225 1.04119 0.0
C429 C 0.98339 0.62094 1.02115 0.0
C430 C -0.00314 0.63695 0.98115 0.0
Eu431 Eu 0.09469 0.62856 1.04368 0.0
N432 N 0.04674 0.61738 1.07079 0.0
C433 C 0.98871 0.60205 1.09509 0.0
C434 C 0.03659 0.60759 1.11411 0.0
C435 C 0.00735 0.59928 0.12665 0.0
H436 H 0.11062 0.67333 0.95359 0.0
H437 H -0.00071 0.59101 0.16076 0.0
H438 H 0.16205 0.56486 1.08666 0.0
H439 H 0.15243 0.62589 0.83713 0.0
H440 H 0.05124 0.60648 0.1392 0.0
H441 H 0.96611 0.59572 1.10493 0.0
H442 H 0.11779 0.5989 0.89856 0.0
H443 H 0.08458 0.68958 0.90038 0.0
H444 H 0.96045 0.61459 1.02864 0.0
H445 H 0.98409 0.64264 0.95833 0.0
H446 H 0.21436 0.57811 1.09773 0.0
H447 H 0.03078 0.67191 0.91131 0.0
H448 H 0.20571 0.64113 0.84415 0.0
N449 N 0.16976 0.58556 1.02139 0.0
C450 C 0.18961 0.59954 0.98695 0.0
C451 C 0.2078 0.58462 1.06669 0.0
C452 C 0.21992 0.60785 0.99225 0.0
C453 C 0.17818 0.57743 1.06045 0.0
C454 C 0.22884 0.60015 1.03265 0.0
N455 N 0.15036 0.59816 0.94246 0.0
C456 C 0.14061 0.60496 0.90333 0.0
C457 C 0.2005 0.6219 0.91146 0.0
C458 C 0.17977 0.60618 0.94668 0.0
C459 C 0.19045 0.629 0.8718 0.0
C460 C 0.16041 0.62047 0.86775 0.0
H461 H 0.25184 0.60587 1.03772 0.0
H462 H 0.26374 0.63006 0.96077 0.0
H463 H 0.24682 0.64251 0.89022 0.0
O464 O 0.11886 0.53872 0.96249 0.0
O465 O 0.12173 0.57555 1.08714 0.0
O466 O 0.10548 0.60791 1.11015 0.0
O467 O 0.11296 0.53114 1.03536 0.0
O468 O 0.15523 0.62222 1.02525 0.0
O469 O 0.13098 0.64163 0.99012 0.0
O470 O 0.09881 0.66991 1.06892 0.0
O471 O 0.07423 0.60754 0.97139 0.0
O472 O 0.08369 0.56943 0.95487 0.0
O473 O 0.13605 0.66281 1.0769 0.0
O474 O 0.06926 0.585 1.0775 0.0
O475 O 0.07143 0.55089 1.03013 0.0
C476 C 0.11568 0.58924 0.1205 0.0
C477 C 0.13855 0.51082 0.99654 0.0
C478 C 0.1806 0.5089 0.96251 0.0
C479 C 0.17872 0.48955 0.99721 0.0
C480 C 0.13708 0.49159 1.03125 0.0
C481 C 0.15714 0.48113 1.03159 0.0
C482 C 0.16044 0.51942 0.96243 0.0
C483 C 0.15654 0.64466 1.00269 0.0
C484 C 0.11722 0.52172 0.99625 0.0
C485 C 0.24039 0.62345 0.9572 0.0
C486 C 0.23071 0.63044 0.91696 0.0
C487 C 0.07025 0.58489 0.94463 0.0
C488 C 0.12457 0.68398 0.13954 0.0
C489 C 0.09685 0.67272 0.21164 0.0
C490 C 0.12411 0.68681 0.23583 0.0
C491 C 0.15156 0.69808 0.1641 0.0
C492 C 0.0975 0.67204 0.16359 0.0
C493 C 0.15128 0.69968 0.21206 0.0
C494 C 0.06162 0.55768 1.06706 0.0
C495 C 0.12415 0.67852 1.0897 0.0
H496 H 0.19395 0.48108 0.99776 0.0
H497 H 0.12039 0.48462 1.05803 0.0
H498 H 0.15584 0.4663 1.05845 0.0
H499 H 0.1615 0.5339 0.9351 0.0
H500 H 0.12446 0.68807 0.27296 0.0
H501 H 0.17274 0.70726 0.1463 0.0
H502 H 0.0767 0.6612 0.14483 0.0
H503 H 0.17217 0.71049 0.23093 0.0
Eu504 Eu 0.89616 0.47249 0.56385 0.0
C505 C 0.95212 0.60854 0.60252 0.0
N506 N 0.92366 0.58517 0.60365 0.0
C507 C 0.91453 0.60361 0.67378 0.0
C508 C 0.96329 0.62993 0.63828 0.0
C509 C 0.90447 0.58295 0.63759 0.0
C510 C 0.94418 0.627 0.67444 0.0
C511 C -0.00105 0.63646 0.56173 0.0
C512 C 0.96964 0.61169 0.56461 0.0
C513 C 0.01071 0.65696 0.59833 0.0
C514 C 0.99289 0.65374 0.63648 0.0
Eu515 Eu 0.90854 0.5499 0.54336 0.0
N516 N 0.95741 0.59172 0.52937 0.0
C517 C 0.01527 0.64051 0.52152 0.0
C518 C 0.97266 0.59703 0.4888 0.0
C519 C 0.00189 0.62094 0.48468 0.0
H520 H 0.88155 0.5649 0.63713 0.0
H521 H 0.01398 0.6244 0.45287 0.0
H522 H 0.9544 0.47409 0.61791 0.0
H523 H 0.81086 0.38365 0.45614 0.0
H524 H 0.96267 0.58279 0.45921 0.0
H525 H 0.03781 0.65922 0.51802 0.0
H526 H 0.83286 0.42882 0.50501 0.0
H527 H 0.89944 0.60145 0.70114 0.0
H528 H 0.03328 0.67587 0.59687 0.0
H529 H 0.00201 0.67016 0.66393 0.0
H530 H 0.97937 0.44491 0.62158 0.0
H531 H 0.95194 0.64296 0.70254 0.0
H532 H 0.83809 0.35659 0.44414 0.0
N533 N 0.9232 0.44691 0.56641 0.0
C534 C 0.91329 0.42238 0.53928 0.0
C535 C 0.96088 0.43833 0.59815 0.0
C536 C 0.92747 0.40532 0.53948 0.0
C537 C 0.94662 0.45498 0.59579 0.0
C538 C 0.95153 0.41359 0.56943 0.0
N539 N 0.87295 0.42838 0.51829 0.0
C540 C 0.84508 0.41736 0.49958 0.0
C541 C 0.8755 0.38675 0.48718 0.0
C542 C 0.88751 0.41303 0.51396 0.0
C543 C 0.84802 0.37662 0.46513 0.0
C544 C 0.83254 0.39177 0.47193 0.0
H545 H 0.96284 0.40093 0.57096 0.0
H546 H 0.92721 0.36678 0.51046 0.0
H547 H 0.88185 0.35067 0.46419 0.0
O548 O 0.8754 0.47483 0.6279 0.0
O549 O 0.8894 0.47361 0.48657 0.0
O550 O 0.8989 0.52129 0.47165 0.0
O551 O 0.87519 0.43427 0.60916 0.0
O552 O 0.85493 0.47813 0.54724 0.0
O553 O 0.87092 0.51917 0.58992 0.0
O554 O 0.90466 0.58777 0.52206 0.0
O555 O 0.92731 0.54613 0.6164 0.0
O556 O 0.93474 0.5063 0.61121 0.0
O557 O 0.86663 0.54361 0.5144 0.0
O558 O 0.93554 0.53813 0.5003 0.0
O559 O 0.94454 0.50701 0.54309 0.0
C560 C 0.89145 0.49345 0.45679 0.0
C561 C 0.82981 0.42933 0.63629 0.0
C562 C 0.78332 0.42637 0.66204 0.0
C563 C 0.7671 0.39904 0.63812 0.0
C564 C 0.81297 0.40201 0.61301 0.0
C565 C 0.78185 0.38726 0.61349 0.0
C566 C 0.81486 0.44164 0.65953 0.0
C567 C 0.84828 0.49528 0.57239 0.0
C568 C 0.86284 0.44613 0.63396 0.0
C569 C 0.91645 0.37995 0.51118 0.0
C570 C 0.8906 0.37077 0.48486 0.0
C571 C 0.93923 0.5306 0.63334 0.0
C572 C 0.87693 0.5772 0.45451 0.0
C573 C 0.90173 0.58947 0.38006 0.0
C574 C 0.87784 0.59158 0.36171 0.0
C575 C 0.85334 0.57961 0.43619 0.0
C576 C 0.9003 0.58108 0.42592 0.0
C577 C 0.85365 0.5864 0.38967 0.0
C578 C 0.95249 0.52757 0.51119 0.0
C579 C 0.87842 0.57145 0.5034 0.0
H580 H 0.74299 0.38585 0.63955 0.0
H581 H 0.82373 0.39206 0.59408 0.0
H582 H 0.76907 0.36621 0.5955 0.0
H583 H 0.82821 0.46332 0.67534 0.0
H584 H 0.87829 0.5981 0.3264 0.0
H585 H 0.83494 0.57647 0.45774 0.0
H586 H 0.91799 0.57835 0.43997 0.0
H587 H 0.83547 0.58837 0.3755 0.0
Eu588 Eu 0.42282 0.87392 0.89432 0.0
C589 C 0.37303 0.95856 0.92256 0.0
N590 N 0.36318 0.92892 0.92627 0.0
C591 C 0.34225 0.92808 1.00017 0.0
C592 C 0.36885 0.97427 0.95871 0.0
C593 C 0.34716 0.91342 0.96379 0.0
C594 C 0.35341 0.95866 0.99788 0.0
C595 C 0.3985 0.00406 0.8783 0.0
C596 C 0.3878 0.97331 0.88274 0.0
C597 C 0.395 0.01984 0.91472 0.0
C598 C 0.38018 0.00498 0.95476 0.0
Eu599 Eu 0.37483 0.90688 0.86394 0.0
N600 N 0.39099 0.95752 0.84795 0.0
C601 C 0.41212 0.01803 0.83713 0.0
C602 C 0.40305 0.97088 0.80697 0.0
C603 C 0.41404 0.00127 0.80112 0.0
H604 H 0.33859 0.88988 0.96649 0.0
H605 H 0.4239 0.01173 0.76877 0.0
H606 H 0.49154 0.89261 0.8558 0.0
H607 H 0.31797 0.7908 0.8071 0.0
H608 H 0.40414 0.9581 0.77846 0.0
H609 H 0.42066 0.04159 0.83247 0.0
H610 H 0.35239 0.8391 0.84218 0.0
H611 H 0.32999 0.91578 1.03013 0.0
H612 H 0.40335 0.04349 0.91203 0.0
H613 H 0.37741 0.01743 0.98238 0.0
H614 H 0.51579 0.8689 0.81498 0.0
H615 H 0.34976 0.96995 1.02634 0.0
H616 H 0.33624 0.75688 0.78548 0.0
N617 N 0.44773 0.85496 0.84954 0.0
C618 C 0.43048 0.82695 0.83231 0.0
C619 C 0.49181 0.85678 0.81992 0.0
C620 C 0.44351 0.81249 0.80897 0.0
C621 C 0.47795 0.87021 0.84285 0.0
C622 C 0.47459 0.82762 0.80358 0.0
N623 N 0.38812 0.83082 0.85018 0.0
C624 C 0.35993 0.82371 0.83719 0.0
C625 C 0.38126 0.78704 0.80975 0.0
C626 C 0.39962 0.8143 0.83306 0.0
C627 C 0.35104 0.77759 0.80326 0.0
C628 C 0.34062 0.79659 0.81552 0.0
H629 H 0.48539 0.81735 0.78555 0.0
H630 H 0.43475 0.77246 0.77239 0.0
H631 H 0.38016 0.75018 0.77299 0.0
O632 O 0.43432 0.84679 0.93691 0.0
O633 O 0.42471 0.87728 0.81482 0.0
O634 O 0.38989 0.89088 0.79537 0.0
O635 O 0.46667 0.89434 0.92769 0.0
O636 O 0.37805 0.84383 0.92891 0.0
O637 O 0.34934 0.8644 0.90836 0.0
O638 O 0.34188 0.91726 0.83813 0.0
O639 O 0.4057 0.93133 0.92744 0.0
O640 O 0.41582 0.89751 0.9593 0.0
O641 O 0.33324 0.87237 0.83159 0.0
O642 O 0.41739 0.92838 0.82545 0.0
O643 O 0.44696 0.92315 0.87702 0.0
C644 C 0.40866 0.88102 0.78289 0.0
C645 C 0.48241 0.8667 0.97521 0.0
C646 C 0.49688 0.83473 1.01432 0.0
C647 C 0.51835 0.85972 1.03948 0.0
C648 C 0.50415 0.89139 1.00001 0.0
C649 C 0.5222 0.88788 1.03178 0.0
C650 C 0.47977 0.83885 0.98102 0.0
C651 C 0.35243 0.84348 0.92899 0.0
C652 C 0.46087 0.86927 0.94598 0.0
C653 C 0.42512 0.7841 0.78974 0.0
C654 C 0.39402 0.77135 0.79024 0.0
C655 C 0.41534 0.92281 0.963 0.0
C656 C 0.31853 0.89134 0.76988 0.0
C657 C 0.32894 0.9183 0.69762 0.0
C658 C 0.30656 0.89222 0.67609 0.0
C659 C 0.29615 0.86556 0.74805 0.0
C660 C 0.33485 0.91735 0.74427 0.0
C661 C 0.29031 0.86602 0.70127 0.0
C662 C 0.44381 0.93426 0.83869 0.0
C663 C 0.32531 0.8913 0.81902 0.0
H664 H 0.53127 0.85741 1.06657 0.0
H665 H 0.50652 0.91313 0.99595 0.0
H666 H 0.53841 0.90684 1.05179 0.0
H667 H 0.4634 0.82011 0.96077 0.0
H668 H 0.3012 0.89218 0.64018 0.0
H669 H 0.2833 0.84516 0.76711 0.0
H670 H 0.35235 0.9371 0.76072 0.0
H671 H 0.27299 0.84608 0.68454 0.0
Eu672 Eu 0.53844 0.42022 0.2338 0.0
C673 C 0.40761 0.30654 0.26961 0.0
N674 N 0.42982 0.30967 0.24086 0.0
C675 C 0.41988 0.2609 0.26072 0.0
C676 C 0.39193 0.28092 0.29703 0.0
C677 C 0.43429 0.28631 0.23354 0.0
C678 C 0.3991 0.25849 0.29338 0.0
C679 C 0.37432 0.32374 0.29621 0.0
C680 C 0.3987 0.32773 0.26919 0.0
C681 C 0.35982 0.29902 0.32506 0.0
C682 C 0.36864 0.27773 0.32556 0.0
Eu683 Eu 0.45277 0.35406 0.19758 0.0
N684 N 0.41325 0.35179 0.24145 0.0
C685 C 0.36491 0.34456 0.29305 0.0
C686 C 0.40355 0.37169 0.23715 0.0
C687 C 0.37951 0.36854 0.26323 0.0
H688 H 0.44811 0.28662 0.20573 0.0
H689 H 0.37229 0.38464 0.2604 0.0
H690 H 0.55568 0.49173 0.24587 0.0
H691 H 0.59044 0.37174 0.12801 0.0
H692 H 0.41485 0.39036 0.21434 0.0
H693 H 0.3463 0.34223 0.31328 0.0
H694 H 0.55428 0.37112 0.18382 0.0
H695 H 0.4242 0.24284 0.25555 0.0
H696 H 0.3413 0.29581 0.34641 0.0
H697 H 0.35662 0.25833 0.34707 0.0
H698 H 0.59181 0.54079 0.21355 0.0
H699 H 0.38755 0.23851 0.3138 0.0
H700 H 0.62841 0.41928 1.09352 0.0
N701 N 0.57175 0.46833 0.20614 0.0
C702 C 0.59258 0.47015 0.17575 0.0
C703 C 0.59217 0.52109 0.20252 0.0
C704 C 0.61376 0.49778 0.15684 0.0
C705 C 0.57165 0.49329 0.22049 0.0
C706 C 0.61321 0.52334 0.1704 0.0
N707 N 0.57122 0.41764 0.18019 0.0
C708 C 0.5707 0.39191 0.16897 0.0
C709 C 0.61366 0.44561 0.13089 0.0
C710 C 0.59264 0.44429 0.16297 0.0
C711 C 0.61267 0.41916 0.11816 0.0
C712 C 0.59121 0.39224 0.13744 0.0
H713 H 0.62906 0.54493 0.15653 0.0
H714 H 0.65112 0.52011 1.11008 0.0
H715 H 0.65098 0.47453 1.08733 0.0
O716 O 0.57482 0.41767 0.26594 0.0
O717 O 0.53251 0.41445 0.15364 0.0
O718 O 0.48641 0.37306 0.13236 0.0
O719 O 0.56361 0.44984 0.29122 0.0
O720 O 0.51867 0.36992 0.25606 0.0
O721 O 0.48552 0.33778 0.20128 0.0
O722 O 0.42387 0.36066 0.15214 0.0
O723 O 0.45511 0.37879 0.26996 0.0
O724 O 0.50338 0.41812 0.28776 0.0
O725 O 0.42552 0.31996 0.14659 0.0
O726 O 0.48713 0.39825 0.20449 0.0
O727 O 0.51389 0.44431 0.2109 0.0
C728 C 0.51365 0.39666 0.12118 0.0
C729 C 0.5741 0.42232 0.34451 0.0
C730 C 0.53771 0.39072 0.40132 0.0
C731 C 0.55627 0.37954 0.41354 0.0
C732 C 0.59315 0.412 0.35823 0.0
C733 C 0.58432 0.39086 0.39297 0.0
C734 C 0.54714 0.41266 0.36786 0.0
C735 C 0.50533 0.34368 0.23383 0.0
C736 C 0.57802 0.43582 0.29924 0.0
C737 C 0.63475 0.49908 0.125 0.0
C738 C 0.6347 0.47312 1.11209 0.0
C739 C 0.47414 0.40184 0.29758 0.0
C740 C 0.41725 0.33979 1.07858 0.0
C741 C 0.40815 0.36248 1.01284 0.0
C742 C 0.41794 0.34762 0.98345 0.0
C743 C 0.42656 0.32459 1.04912 0.0
C744 C 0.40847 0.35876 1.06016 0.0
C745 C 0.42713 0.32878 1.00167 0.0
C746 C 0.48859 0.42306 0.19616 0.0
C747 C 0.41585 0.33639 0.12859 0.0
H748 H 0.54931 0.36254 0.43948 0.0
H749 H 0.6139 0.41887 0.34016 0.0
H750 H 0.59876 0.38244 0.40277 0.0
H751 H 0.5323 0.42051 0.35786 0.0
H752 H 0.41767 0.34984 0.94656 0.0
H753 H 0.43349 0.30972 1.06258 0.0
H754 H 0.4016 0.37069 1.08311 0.0
H755 H 0.43438 0.31714 0.97894 0.0
Eu756 Eu 0.10017 0.52695 0.56868 0.0
C757 C 0.03917 0.38852 0.59792 0.0
N758 N 0.06721 0.4124 0.60272 0.0
C759 C 0.07299 0.3939 0.6747 0.0
C760 C 0.0265 0.36685 0.63255 0.0
C761 C 0.08459 0.41488 0.63959 0.0
C762 C 0.0437 0.36996 0.67145 0.0
C763 C 0.99428 0.36079 0.5519 0.0
C764 C 0.02333 0.38559 0.55799 0.0
C765 C 0.98114 0.33977 0.58704 0.0
C766 C -0.00277 0.34275 0.62722 0.0
Eu767 Eu 0.08455 0.44796 0.54349 0.0
N768 N 0.03672 0.40621 0.5244 0.0
C769 C 0.97946 0.35748 0.51032 0.0
C770 C 0.02284 0.40201 0.48278 0.0
C771 C 0.99393 0.37802 0.47548 0.0
H772 H 0.10715 0.43343 0.64245 0.0
H773 H 0.98285 0.37534 0.44286 0.0
H774 H 0.04071 0.52444 0.62208 0.0
H775 H 0.18577 0.61634 0.46463 0.0
H776 H 0.03371 0.41725 0.45493 0.0
H777 H 0.95712 0.33879 0.50439 0.0
H778 H 0.16348 0.57076 0.51148 0.0
H779 H 0.08661 0.39625 0.70432 0.0
H780 H 0.95875 0.32079 0.58309 0.0
H781 H 0.98699 0.32609 0.65369 0.0
H782 H 0.01522 0.5531 0.62555 0.0
H783 H 0.03473 0.35381 0.69881 0.0
H784 H 0.15854 0.64343 0.45388 0.0
N785 N 0.07268 0.55216 0.57214 0.0
C786 C 0.08278 0.5769 0.54607 0.0
C787 C 0.03414 0.56001 0.60292 0.0
C788 C 0.06841 0.59378 0.54656 0.0
C789 C 0.04872 0.54364 0.60056 0.0
C790 C 0.04387 0.58509 0.57555 0.0
N791 N 0.12345 0.57127 0.52506 0.0
C792 C 0.15135 0.58235 0.50663 0.0
C793 C 0.12092 0.61297 0.49562 0.0
C794 C 0.10882 0.58656 0.52136 0.0
C795 C 0.14855 0.62329 0.47405 0.0
C796 C 0.16403 0.60813 0.48014 0.0
H797 H 0.03239 0.59758 0.5772 0.0
H798 H 0.06866 0.63234 0.51883 0.0
H799 H 0.11451 0.649 0.47383 0.0
O800 O 0.12024 0.5245 0.63316 0.0
O801 O 0.10816 0.52589 0.49185 0.0
O802 O 0.0944 0.47717 0.47336 0.0
O803 O 0.12341 0.56609 0.61306 0.0
O804 O 0.14022 0.51946 0.55237 0.0
O805 O 0.12147 0.47777 0.59277 0.0
O806 O 0.08854 0.41012 0.52085 0.0
O807 O 0.06034 0.44923 0.61226 0.0
O808 O 0.06253 0.49455 0.61744 0.0
O809 O 0.12699 0.4541 0.51732 0.0
O810 O 0.05867 0.46108 0.50102 0.0
O811 O 0.05166 0.4937 0.54498 0.0
C812 C 0.10391 0.50572 0.46055 0.0
C813 C 0.16722 0.56831 0.64207 0.0
C814 C 0.21116 0.56739 0.66985 0.0
C815 C 0.2294 0.59146 0.64131 0.0
C816 C 0.18593 0.5928 0.61442 0.0
C817 C 0.21678 0.60412 0.61391 0.0
C818 C 0.18007 0.55609 0.67004 0.0
C819 C 0.14521 0.501 0.57648 0.0
C820 C 0.13426 0.55341 0.63889 0.0
C821 C 0.07958 0.61933 0.51934 0.0
C822 C 0.1057 0.62882 0.49372 0.0
C823 C 0.05241 0.46723 0.63291 0.0
C824 C 0.11874 0.42162 0.45617 0.0
C825 C 0.0976 0.41356 0.37938 0.0
C826 C 0.12097 0.41002 0.36248 0.0
C827 C 0.1419 0.41775 0.43954 0.0
C828 C 0.0975 0.4205 0.42572 0.0
C829 C 0.14318 0.41233 0.39256 0.0
C830 C 0.04294 0.47304 0.51233 0.0
C831 C 0.11551 0.42644 0.50494 0.0
H832 H 0.25335 0.60055 0.64034 0.0
H833 H 0.17682 0.60303 0.59276 0.0
H834 H 0.23095 0.62273 0.5921 0.0
H835 H 0.16564 0.5378 0.69229 0.0
H836 H 0.12154 0.40459 0.32666 0.0
H837 H 0.15874 0.4188 0.46266 0.0
H838 H 0.08007 0.42416 0.43861 0.0
H839 H 0.161 0.40925 0.37963 0.0
Eu840 Eu 0.56664 0.11321 0.90406 0.0
C841 C 0.648 0.0467 0.92843 0.0
N842 N 0.65555 0.07503 0.91805 0.0
C843 C 0.7044 0.0934 0.95055 0.0
C844 C 0.66834 0.04083 0.95171 0.0
C845 C 0.68356 0.09812 0.92763 0.0
C846 C 0.69673 0.06462 0.96283 0.0
C847 C 0.6106 0.99418 0.93077 0.0
C848 C 0.61967 0.0235 0.91681 0.0
C849 C 0.63097 0.98828 0.95307 0.0
C850 C 0.65981 0.01152 0.96329 0.0
Eu851 Eu 0.62083 0.0809 0.87357 0.0
N852 N 0.60028 0.02982 0.89519 0.0
C853 C 0.5809 0.97179 0.92392 0.0
C854 C 0.57065 0.00838 0.89274 0.0
C855 C 0.56069 0.97912 0.90592 0.0
H856 H 0.69041 0.12015 0.91637 0.0
H857 H 0.53724 0.96236 0.90324 0.0
H858 H 0.49333 0.08199 0.87376 0.0
H859 H 0.65981 0.20417 0.80717 0.0
H860 H 0.55407 0.01347 0.88234 0.0
H861 H 0.57303 0.94914 0.93457 0.0
H862 H 0.63403 0.15565 0.84459 0.0
H863 H 0.72653 0.11192 0.95809 0.0
H864 H 0.62441 0.96588 0.9635 0.0
H865 H 0.67519 0.00666 0.98094 0.0
H866 H 0.46083 0.09799 0.83759 0.0
H867 H 0.71295 0.06099 0.98051 0.0
H868 H 0.6322 0.22989 0.78894 0.0
N869 N 0.53328 0.12376 0.86445 0.0
C870 C 0.54604 0.1513 0.8455 0.0
C871 C 0.48471 0.11322 0.83985 0.0
C872 C 0.52816 0.16133 0.82494 0.0
C873 C 0.50322 0.10415 0.85982 0.0
C874 C 0.49714 0.14214 0.82326 0.0
N875 N 0.59365 0.15609 0.8565 0.0
C876 C 0.62244 0.16776 0.84122 0.0
C877 C 0.59061 0.19526 0.81779 0.0
C878 C 0.57714 0.1682 0.84212 0.0
C879 C 0.62112 0.20919 0.80772 0.0
C880 C 0.63683 0.19483 0.8181 0.0
H881 H 0.48271 0.14905 0.80765 0.0
H882 H 0.52834 0.19779 0.78951 0.0
H883 H 0.583 0.22747 0.78317 0.0
O884 O 0.57571 0.13717 0.96892 0.0
O885 O 0.57103 0.1123 0.82348 0.0
O886 O 0.60177 0.09266 0.80568 0.0
O887 O 0.53182 0.11812 0.93939 0.0
O888 O 0.61621 0.14399 0.92726 0.0
O889 O 0.64798 0.12662 0.90619 0.0
O890 O 0.63522 0.06094 0.82114 0.0
O891 O 0.60307 0.06834 0.94914 0.0
O892 O 0.56112 0.0743 0.9547 0.0
O893 O 0.66089 0.10914 0.83464 0.0
O894 O 0.57659 0.07471 0.87479 0.0
O895 O 0.53306 0.06733 0.87479 0.0
C896 C 0.58426 0.10376 0.79236 0.0
C897 C 0.5527 0.16605 0.97473 0.0
C898 C 0.58114 0.21696 1.00439 0.0
C899 C 0.56099 0.22366 0.98355 0.0
C900 C 0.53271 0.17301 0.95347 0.0
C901 C 0.53691 0.2017 0.95793 0.0
C902 C 0.57651 0.18811 1.00042 0.0
C903 C 0.64322 0.14691 0.925 0.0
C904 C 0.55037 0.13668 0.96954 0.0
C905 C 0.54176 0.18953 0.80466 0.0
C906 C 0.57292 0.20648 0.80117 0.0
C907 C 0.57773 0.06284 0.97034 0.0
C908 C 0.65827 0.09288 0.75766 0.0
C909 C 0.64872 0.07362 0.67955 0.0
C910 C 0.66232 0.10264 0.66253 0.0
C911 C 0.67168 0.12202 0.74044 0.0
C912 C 0.64677 0.06887 0.72685 0.0
C913 C 0.67354 0.12678 0.69306 0.0
C914 C 0.5498 0.05776 0.85876 0.0
C915 C 0.65663 0.08713 0.80731 0.0
H916 H 0.56387 0.24567 0.98707 0.0
H917 H 0.51402 0.15646 0.93337 0.0
H918 H 0.52144 0.2069 0.94151 0.0
H919 H 0.59166 0.18278 1.01788 0.0
H920 H 0.66429 0.10654 0.62589 0.0
H921 H 0.68085 0.1411 0.76342 0.0
H922 H 0.63687 0.04631 0.73953 0.0
H923 H 0.68395 0.14923 0.68 0.0
Eu924 Eu 0.45849 0.56628 0.2305 0.0
C925 C 0.60262 0.64617 0.23707 0.0
N926 N 0.58017 0.65039 0.25124 0.0
C927 C 0.60725 0.67417 0.32022 0.0
C928 C 0.62795 0.65472 0.26493 0.0
C929 C 0.5825 0.66511 0.29142 0.0
C930 C 0.62988 0.66853 0.30725 0.0
C931 C 0.62432 0.63103 0.17671 0.0
C932 C 0.60087 0.6347 0.19358 0.0
C933 C 0.64888 0.63792 0.20519 0.0
C934 C 0.65074 0.64984 0.2492 0.0
Eu935 Eu 0.53708 0.63086 0.20429 0.0
N936 N 0.57697 0.62866 0.16694 0.0
C937 C 0.62272 0.62122 0.13141 0.0
C938 C 0.57625 0.62078 0.1218 0.0
C939 C 0.59878 0.61649 1.10368 0.0
H940 H 0.56471 0.66893 0.3018 0.0
H941 H 0.5976 0.60942 1.06837 0.0
H942 H 0.45546 0.50537 0.27112 0.0
H943 H 0.37791 0.57604 0.12225 0.0
H944 H 0.55777 0.61683 1.0999 0.0
H945 H 0.64017 0.61794 0.11721 0.0
H946 H 0.42099 0.59377 0.17518 0.0
H947 H 0.60873 0.68524 0.35253 0.0
H948 H 0.66692 0.63487 0.19306 0.0
H949 H 0.67019 0.65584 0.27035 0.0
H950 H 0.42259 0.45059 0.26469 0.0
H951 H 0.64897 0.67546 0.32968 0.0
H952 H 0.34957 0.52308 1.09845 0.0
N953 N 0.43238 0.51426 0.21935 0.0
C954 C 0.40915 0.50289 0.18915 0.0
C955 C 0.41901 0.46507 0.24254 0.0
C956 C 0.3908 0.47187 0.18279 0.0
C957 C 0.43765 0.49598 0.24594 0.0
C958 C 0.39608 0.45294 0.20987 0.0
N959 N 0.41822 0.55169 0.17849 0.0
C960 C 0.40896 0.57071 0.16437 0.0
C961 C 0.37674 0.51096 0.1388 0.0
C962 C 0.4019 0.52217 0.168 0.0
C963 C 0.36866 0.53081 0.12116 0.0
C964 C 0.38458 0.56073 0.13455 0.0
H965 H 0.38208 0.42899 0.20673 0.0
H966 H 0.35271 0.437 0.14582 0.0
H967 H 0.34069 0.47129 1.10672 0.0
O968 O 0.44511 0.58421 0.2883 0.0
O969 O 0.46055 0.57259 0.15151 0.0
O970 O 0.5082 0.61098 0.13356 0.0
O971 O 0.42015 0.5372 0.27323 0.0
O972 O 0.46761 0.61468 0.22636 0.0
O973 O 0.51078 0.63443 0.26371 0.0
O974 O 0.56852 0.67768 0.19031 0.0
O975 O 0.53824 0.60724 0.2736 0.0
O976 O 0.4916 0.56522 0.28453 0.0
O977 O 0.52141 0.66027 0.18013 0.0
O978 O 0.52357 0.58978 0.16531 0.0
O979 O 0.49401 0.55327 0.21547 0.0
C980 C 0.48004 0.59004 0.12021 0.0
C981 C 0.39228 0.56071 0.28889 0.0
C982 C 0.36493 0.5866 0.30341 0.0
C983 C 0.341 0.56541 0.27675 0.0
C984 C 0.36791 0.53943 0.26247 0.0
C985 C 0.34268 0.54208 0.25598 0.0
C986 C 0.39063 0.58436 0.30892 0.0
C987 C 0.48719 0.63609 0.25344 0.0
C988 C 0.41996 0.55931 0.29374 0.0
C989 C 0.36675 0.46074 0.15171 0.0
C990 C 0.35985 0.48027 0.12954 0.0
C991 C 0.5201 0.58268 0.29766 0.0
C992 C 0.55388 0.69662 0.12965 0.0
C993 C 0.56892 0.69625 1.05094 0.0
C994 C 0.56351 0.71929 1.04029 0.0
C995 C 0.5487 0.71986 0.11946 0.0
C996 C 0.56349 0.68483 1.09523 0.0
C997 C 0.55348 0.73111 1.0747 0.0
C998 C 0.51322 0.56324 0.18109 0.0
C999 C 0.54813 0.68306 0.17502 0.0
H1000 H 0.32086 0.56659 0.27291 0.0
H1001 H 0.36827 0.52079 0.24657 0.0
H1002 H 0.32416 0.52568 0.23545 0.0
H1003 H 0.40896 0.60052 0.33016 0.0
H1004 H 0.56748 0.72832 1.00598 0.0
H1005 H 0.54084 0.72905 0.14576 0.0
H1006 H 0.56678 0.66647 1.10306 0.0
H1007 H 0.54951 0.74904 1.06669 0.0
H1008 H 0.46944 0.15951 0.25745 0.0
H1009 H 0.54542 0.20695 0.34725 0.0
H1010 H 0.47077 0.20606 0.24057 0.0
H1011 H 0.54703 0.25372 0.33008 0.0
H1012 H 0.52296 0.33046 0.31812 0.0
H1013 H 0.52384 0.28502 0.33848 0.0
H1014 H 0.49798 0.25199 0.20009 0.0
H1015 H 0.49781 0.29701 0.17988 0.0
C1016 C 0.48655 0.17981 0.27368 0.0
C1017 C 0.50739 0.17886 0.30368 0.0
C1018 C 0.48748 0.2069 0.26372 0.0
C1019 C 0.50916 0.23448 0.28353 0.0
C1020 C 0.52977 0.23341 0.31408 0.0
C1021 C 0.52899 0.20632 0.32372 0.0
C1022 C 0.51787 0.31372 0.29184 0.0
C1023 C 0.50987 0.31781 0.24725 0.0
C1024 C 0.51824 0.28734 0.30358 0.0
C1025 C 0.51039 0.26383 0.27139 0.0
C1026 C 0.50343 0.26864 0.22664 0.0
C1027 C 0.50351 0.29493 0.21486 0.0
H1028 H 0.29268 0.46148 0.6078 0.0
H1029 H 0.33638 0.55546 0.63684 0.0
H1030 H 0.24587 0.46054 0.59273 0.0
H1031 H 0.28941 0.55463 0.62194 0.0
H1032 H 0.20328 0.54767 0.55477 0.0
H1033 H 0.25157 0.55037 0.56769 0.0
H1034 H 0.20515 0.46248 0.62568 0.0
H1035 H 0.1577 0.45995 0.61296 0.0
C1036 C 0.29254 0.4821 0.6108 0.0
C1037 C 0.319 0.50856 0.62355 0.0
C1038 C 0.26526 0.48156 0.60245 0.0
C1039 C 0.263 0.50752 0.60591 0.0
C1040 C 0.28964 0.53407 0.61818 0.0
C1041 C 0.31685 0.53452 0.62708 0.0
C1042 C 0.20333 0.52888 0.57018 0.0
C1043 C 0.17589 0.50362 0.58273 0.0
C1044 C 0.23129 0.53044 0.57793 0.0
C1045 C 0.23308 0.50656 0.59772 0.0
C1046 C 0.20551 0.48133 0.60975 0.0
C1047 C 0.17783 0.47996 0.60262 0.0
H1048 H 0.82619 0.3072 0.93158 0.0
H1049 H 0.78092 0.32268 1.04287 0.0
H1050 H 0.78057 0.26042 0.91338 0.0
H1051 H 0.7355 0.27555 1.02613 0.0
H1052 H 0.64794 0.19732 0.9684 0.0
H1053 H 0.69318 0.24567 0.98341 0.0
H1054 H 0.74718 0.21213 0.92623 0.0
H1055 H 0.70259 0.16619 0.90658 0.0
C1056 C 0.80657 0.30053 0.95257 0.0
C1057 C 0.80757 0.31926 0.98852 0.0
C1058 C 0.78005 0.27329 0.9423 0.0
C1059 C 0.75338 0.26326 0.96799 0.0
C1060 C 0.75476 0.28202 1.00445 0.0
C1061 C 0.78118 0.30932 1.0144 0.0
C1062 C 0.66949 0.20023 0.95923 0.0
C1063 C 0.67097 0.17664 0.93772 0.0
C1064 C 0.69575 0.22809 0.96845 0.0
C1065 C 0.72474 0.23349 0.95737 0.0
C1066 C 0.72594 0.20983 0.9356 0.0
C1067 C 0.69983 0.1825 0.92539 0.0
H1068 H 0.44036 0.64735 0.24214 0.0
H1069 H 0.53122 0.68932 0.29108 0.0
H1070 H 0.43917 0.69289 0.26062 0.0
H1071 H 0.53 0.73438 0.30994 0.0
H1072 H 0.43711 0.77118 0.33595 0.0
H1073 H 0.43788 0.72511 0.32111 0.0
H1074 H 0.53013 0.77692 0.27953 0.0
H1075 H 0.52915 0.82266 0.29371 0.0
C1076 C 0.46011 0.66615 0.25697 0.0
C1077 C 0.48587 0.66409 0.26502 0.0
C1078 C 0.45937 0.69242 0.26804 0.0
C1079 C 0.48441 0.71791 0.28735 0.0
C1080 C 0.51017 0.71576 0.29499 0.0
C1081 C 0.51082 0.68952 0.28433 0.0
C1082 C 0.45766 0.77281 0.32395 0.0
C1083 C 0.48292 0.80111 0.31563 0.0
C1084 C 0.4581 0.74616 0.31518 0.0
C1085 C 0.48404 0.74658 0.29871 0.0
C1086 C 0.50966 0.77503 0.29239 0.0
C1087 C 0.50905 0.80159 0.30035 0.0
H1088 H 0.66417 0.47257 0.56551 0.0
H1089 H 0.68839 0.47963 0.70826 0.0
H1090 H 0.71061 0.4731 0.54457 0.0
H1091 H 0.73493 0.482 0.68762 0.0
H1092 H 0.83088 0.52083 0.63861 0.0
H1093 H 0.78225 0.51462 0.65502 0.0
H1094 H 0.74322 0.44956 0.54593 0.0
H1095 H 0.79294 0.45601 0.52916 0.0
C1096 C 0.67914 0.47401 0.59257 0.0
C1097 C 0.67237 0.47679 0.63877 0.0
C1098 C 0.70603 0.47439 0.58051 0.0
C1099 C 0.72742 0.47797 0.61411 0.0
C1100 C 0.71977 0.4795 0.66022 0.0
C1101 C 0.69274 0.4782 0.67222 0.0
C1102 C 0.81217 0.50514 0.6177 0.0
C1103 C 0.81661 0.48916 0.58213 0.0
C1104 C 0.78378 0.50135 0.62753 0.0
C1105 C 0.75799 0.48149 0.60214 0.0
C1106 C 0.76221 0.46532 0.56633 0.0
C1107 C 0.79089 0.46888 0.55678 0.0
H1108 H 0.34581 0.7891 0.95364 0.0
H1109 H 0.29423 0.8323 0.93877 0.0
H1110 H 0.30038 0.74232 0.97057 0.0
H1111 H 0.24881 0.7859 0.95754 0.0
H1112 H 0.16534 0.69342 0.95336 0.0
H1113 H 0.2112 0.73977 0.93753 0.0
H1114 H 0.26122 0.7092 1.01503 0.0
H1115 H 0.21496 0.66223 1.02955 0.0
C1116 C 0.32487 0.78895 0.9549 0.0
C1117 C 0.32436 0.81522 0.94504 0.0
C1118 C 0.29838 0.7617 0.9648 0.0
C1119 C 0.2699 0.75925 0.96563 0.0
C1120 C 0.2696 0.78581 0.95661 0.0
C1121 C 0.29608 0.81299 0.9463 0.0
C1122 C 0.18604 0.69642 0.9672 0.0
C1123 C 0.18582 0.67353 0.99309 0.0
C1124 C 0.21279 0.72355 0.95833 0.0
C1125 C 0.24091 0.72944 0.97508 0.0
C1126 C 0.24066 0.70626 1.00073 0.0
C1127 C 0.21379 0.67899 1.00947 0.0
H1128 H 0.64026 0.23825 0.99148 0.0
H1129 H 0.57763 0.24154 1.08511 0.0
H1130 H 0.67322 0.24464 1.05592 0.0
H1131 H 0.6116 0.25011 0.14871 0.0
H1132 H 0.67133 0.24237 0.25793 0.0
H1133 H 0.66588 0.2695 0.19339 0.0
H1134 H 0.64195 0.19388 1.10462 0.0
H1135 H 0.64641 0.16679 0.1688 0.0
C1136 C 0.63461 0.24248 1.02541 0.0
C1137 C 0.60605 0.23824 1.03388 0.0
C1138 C 0.65347 0.24616 1.06211 0.0
C1139 C 0.64417 0.24646 1.10721 0.0
C1140 C 0.61878 0.24901 1.11437 0.0
C1141 C 0.59945 0.24448 1.07781 0.0
C1142 C 0.66576 0.23206 0.22419 0.0
C1143 C 0.65905 0.20252 0.2181 0.0
C1144 C 0.6627 0.24754 0.18747 0.0
C1145 C 0.65387 0.23391 0.14408 0.0
C1146 C 0.64935 0.20515 0.13753 0.0
C1147 C 0.65168 0.18954 0.17423 0.0
H1148 H 0.39814 0.64729 0.30093 0.0
H1149 H 0.32524 0.57405 0.37112 0.0
H1150 H 0.40482 0.68024 0.3655 0.0
H1151 H 0.33298 0.60538 0.43677 0.0
H1152 H 0.36547 0.6395 0.5649 0.0
H1153 H 0.34238 0.63899 0.49179 0.0
H1154 H 0.43026 0.68401 0.42923 0.0
H1155 H 0.45261 0.68684 0.50269 0.0
C1156 C 0.38299 0.6386 0.32976 0.0
C1157 C 0.36176 0.60819 0.33202 0.0
C1158 C 0.38695 0.65729 0.36708 0.0
C1159 C 0.37083 0.64534 0.40802 0.0
C1160 C 0.34643 0.61583 0.40677 0.0
C1161 C 0.3419 0.5975 0.36894 0.0
C1162 C 0.37965 0.65067 0.53573 0.0
C1163 C 0.41061 0.66258 0.53863 0.0
C1164 C 0.36652 0.65003 0.49358 0.0
C1165 C 0.38407 0.65951 0.45342 0.0
C1166 C 0.41549 0.67578 0.4585 0.0
C1167 C 0.42859 0.6774 0.50091 0.0
H1168 H 0.69457 0.36386 0.8654 0.0
H1169 H 0.74966 0.45205 0.92186 0.0
H1170 H 0.69209 0.38485 0.79303 0.0
H1171 H 0.74614 0.47341 0.8497 0.0
H1172 H 0.72404 0.41359 0.66058 0.0
H1173 H 0.69656 0.41541 0.72709 0.0
H1174 H 0.78001 0.46821 0.79985 0.0
H1175 H 0.80674 0.46431 0.73722 0.0
C1176 C 0.70442 0.38777 0.86326 0.0
C1177 C 0.72342 0.40643 0.89811 0.0
C1178 C 0.7029 0.39998 0.82163 0.0
C1179 C 0.72074 0.43088 0.81472 0.0
C1180 C 0.73333 0.44945 0.85348 0.0
C1181 C 0.73541 0.43727 0.89483 0.0
C1182 C 0.73662 0.42552 0.6908 0.0
C1183 C 0.76772 0.43679 0.69397 0.0
C1184 C 0.72075 0.42714 0.72858 0.0
C1185 C 0.73585 0.4409 0.76958 0.0
C1186 C 0.76728 0.45705 0.76925 0.0
C1187 C 0.78295 0.45463 0.73242 0.0
H1188 H 0.44129 0.78462 1.01413 0.0
H1189 H 0.53381 0.81461 1.04563 0.0
H1190 H 0.42567 0.74115 1.05842 0.0
H1191 H 0.5177 0.77034 1.09197 0.0
H1192 H 0.47253 0.77893 0.22546 0.0
H1193 H 0.49963 0.77412 0.16336 0.0
H1194 H 0.41739 0.70185 1.10733 0.0
H1195 H 0.39019 0.70566 0.1731 0.0
C1196 C 0.45861 0.78143 1.02872 0.0
C1197 C 0.48885 0.8041 1.02805 0.0
C1198 C 0.44951 0.75591 1.0544 0.0
C1199 C 0.47029 0.75302 1.08158 0.0
C1200 C 0.50095 0.77257 1.07321 0.0
C1201 C 0.51018 0.79825 1.04725 0.0
C1202 C 0.46043 0.76063 0.20186 0.0
C1203 C 0.42916 0.74355 0.20335 0.0
C1204 C 0.47606 0.7577 0.16553 0.0
C1205 C 0.4602 0.73952 0.12783 0.0
C1206 C 0.42998 0.71748 0.13462 0.0
C1207 C 0.41429 0.71982 0.1721 0.0
H1208 H 0.51747 0.42282 0.4452 0.0
H1209 H 0.49116 0.33345 0.40237 0.0
H1210 H 0.47053 0.40463 0.48492 0.0
H1211 H 0.44286 0.3147 0.44072 0.0
H1212 H 0.41019 0.38451 0.57693 0.0
H1213 H 0.41875 0.38227 0.49538 0.0
H1214 H 0.43084 0.30739 0.51859 0.0
H1215 H 0.42038 0.30861 0.59895 0.0
C1216 C 0.50116 0.39921 0.44368 0.0
C1217 C 0.50808 0.37935 0.42226 0.0
C1218 C 0.47384 0.38867 0.46568 0.0
C1219 C 0.45258 0.35794 0.46641 0.0
C1220 C 0.45877 0.33838 0.44158 0.0
C1221 C 0.48645 0.34898 0.42007 0.0
C1222 C 0.41213 0.36601 0.56397 0.0
C1223 C 0.41707 0.34816 0.59428 0.0
C1224 C 0.41764 0.36508 0.51717 0.0
C1225 C 0.42834 0.34659 0.50139 0.0
C1226 C 0.42411 0.323 0.52966 0.0
C1227 C 0.41776 0.32345 0.57616 0.0
H1228 H 0.21735 0.56405 0.92969 0.0
H1229 H 0.19165 0.47221 0.90887 0.0
H1230 H 0.24068 0.57643 0.85525 0.0
H1231 H 0.21578 0.48441 0.83382 0.0
H1232 H 0.26219 0.59862 0.7213 0.0
H1233 H 0.27184 0.58224 0.79371 0.0
H1234 H 0.19763 0.49349 0.76707 0.0
H1235 H 0.18972 0.50936 0.69355 0.0
C1236 C 0.21785 0.54676 0.90971 0.0
C1237 C 0.20218 0.51719 0.92444 0.0
C1238 C 0.23158 0.55381 0.86696 0.0
C1239 C 0.22991 0.53131 0.8378 0.0
C1240 C 0.21729 0.50224 0.85507 0.0
C1241 C 0.20351 0.49522 0.89812 0.0
C1242 C 0.24897 0.57525 0.7298 0.0
C1243 C 0.22414 0.55558 0.70297 0.0
C1244 C 0.25432 0.56589 0.77163 0.0
C1245 C 0.23438 0.53704 0.78763 0.0
C1246 C 0.21313 0.51612 0.75677 0.0
C1247 C 0.20823 0.52532 0.71458 0.0
H1248 H 0.41894 0.90931 1.05723 0.0
H1249 H 0.43552 0.98378 0.97404 0.0
H1250 H 0.43343 0.94148 0.12636 0.0
H1251 H 0.45121 0.01606 1.04236 0.0
H1252 H 0.5056 0.07586 0.17092 0.0
H1253 H 0.48925 0.04312 1.10331 0.0
H1254 H 0.42257 0.97174 0.18452 0.0
H1255 H 0.43774 0.00541 0.25188 0.0
C1256 C 0.42582 0.93252 1.05299 0.0
C1257 C 0.42559 0.94299 1.00801 0.0
C1258 C 0.4342 0.95139 1.09352 0.0
C1259 C 0.44404 0.98244 1.0921 0.0
C1260 C 0.44427 0.99286 1.04694 0.0
C1261 C 0.43499 0.97386 1.00679 0.0
C1262 C 0.48715 0.05341 0.17506 0.0
C1263 C 0.47318 0.04447 0.21883 0.0
C1264 C 0.47754 0.03408 0.13523 0.0
C1265 C 0.4541 0.00369 0.13622 0.0
C1266 C 0.44062 0.99446 0.18037 0.0
C1267 C 0.44942 0.01422 0.21984 0.0
H1268 H 0.5043 0.45272 0.35446 0.0
H1269 H 0.41755 0.37438 0.34477 0.0
H1270 H 0.48823 0.46946 0.42059 0.0
H1271 H 0.40053 0.39178 0.41032 0.0
H1272 H 0.37328 0.42462 0.54433 0.0
H1273 H 0.38818 0.40582 0.47808 0.0
H1274 H 0.47117 0.48906 0.4721 0.0
H1275 H 0.45587 0.50792 0.53669 0.0
C1276 C 0.48141 0.43883 0.36566 0.0
C1277 C 0.46259 0.41181 0.34127 0.0
C1278 C 0.47173 0.44893 0.40476 0.0
C1279 C 0.44218 0.4332 0.42334 0.0
C1280 C 0.42337 0.40581 0.39919 0.0
C1281 C 0.43321 0.39555 0.36007 0.0
C1282 C 0.39477 0.43931 0.52888 0.0
C1283 C 0.41276 0.46856 0.54776 0.0
C1284 C 0.40367 0.42823 0.48973 0.0
C1285 C 0.4317 0.44516 0.46657 0.0
C1286 C 0.44959 0.47425 0.48627 0.0
C1287 C 0.44052 0.48551 0.52467 0.0
H1288 H 0.01172 0.40945 0.66858 0.0
H1289 H 0.04365 0.50165 0.69837 0.0
H1290 H 0.97798 0.39518 0.73529 0.0
H1291 H 0.01152 0.48728 0.76591 0.0
H1292 H 0.92813 0.45608 0.86337 0.0
H1293 H 0.9606 0.4684 0.79572 0.0
H1294 H 0.96913 0.39172 0.81901 0.0
H1295 H 0.93703 0.37969 0.8865 0.0
C1296 C 0.01197 0.42694 0.6891 0.0
C1297 C 0.03115 0.45709 0.67597 0.0
C1298 C 0.99219 0.41863 0.72817 0.0
C1299 C 0.99027 0.4399 0.75706 0.0
C1300 C 0.01011 0.46984 0.74435 0.0
C1301 C 0.02943 0.47815 0.70519 0.0
C1302 C 0.93658 0.44152 0.85428 0.0
C1303 C 0.92885 0.4164 0.88217 0.0
C1304 C 0.95592 0.44889 0.81487 0.0
C1305 C 0.96863 0.4315 0.7999 0.0
C1306 C 0.9604 0.40613 0.82745 0.0
C1307 C 0.94158 0.39911 0.8672 0.0
H1308 H 0.56239 0.94879 0.21821 0.0
H1309 H 0.47419 0.93605 0.20646 0.0
H1310 H 0.57867 0.9818 0.15228 0.0
H1311 H 0.49024 0.96921 0.14039 0.0
H1312 H 0.52578 0.04151 1.02608 0.0
H1313 H 0.50943 0.00834 1.09224 0.0
H1314 H 0.58812 0.00093 1.08086 0.0
H1315 H 0.60444 0.03421 1.0152 0.0
C1316 C 0.54608 0.95266 0.20171 0.0
C1317 C 0.51649 0.93854 0.21951 0.0
C1318 C 0.55559 0.9721 0.16263 0.0
C1319 C 0.53631 0.97931 0.13807 0.0
C1320 C 0.50669 0.96532 0.15635 0.0
C1321 C 0.49714 0.94568 0.19529 0.0
C1322 C 0.53993 0.03309 1.03748 0.0
C1323 C 0.56705 0.04174 1.01354 0.0
C1324 C 0.53026 0.01343 1.07639 0.0
C1325 C 0.54689 0.00086 1.09479 0.0
C1326 C 0.57398 0.00952 1.07042 0.0
C1327 C 0.58361 0.02907 1.03147 0.0
H1328 H 0.62309 0.56294 0.54266 0.0
H1329 H 0.53673 0.48362 0.54456 0.0
H1330 H 0.60812 0.58056 0.47555 0.0
H1331 H 0.52195 0.50034 0.47745 0.0
H1332 H 0.48921 0.53505 0.35877 0.0
H1333 H 0.50576 0.51985 0.4254 0.0
H1334 H 0.59554 0.59202 0.40577 0.0
H1335 H 0.57857 0.60778 0.33857 0.0
C1336 C 0.60071 0.54903 0.52946 0.0
C1337 C 0.5815 0.52153 0.55182 0.0
C1338 C 0.59186 0.55923 0.4895 0.0
C1339 C 0.563 0.54272 0.46816 0.0
C1340 C 0.5441 0.51503 0.49058 0.0
C1341 C 0.55291 0.50496 0.53038 0.0
C1342 C 0.51263 0.54807 0.36805 0.0
C1343 C 0.53191 0.57325 0.34109 0.0
C1344 C 0.52253 0.53888 0.40754 0.0
C1345 C 0.55265 0.55369 0.42401 0.0
C1346 C 0.57211 0.57906 0.3968 0.0
C1347 C 0.56216 0.58842 0.35706 0.0
H1348 H 0.0403 0.61238 0.90545 0.0
H1349 H 0.05437 0.53955 0.87743 0.0
H1350 H 0.01069 0.60134 0.83508 0.0
H1351 H 0.02528 0.52854 0.80706 0.0
H1352 H 0.95913 0.49903 0.68579 0.0
H1353 H 0.98812 0.51174 0.75573 0.0
H1354 H 0.99354 0.59663 0.76041 0.0
H1355 H 0.96355 0.58345 0.68961 0.0
C1356 C 0.03733 0.59392 0.88457 0.0
C1357 C 0.05069 0.57729 0.89933 0.0
C1358 C 0.01992 0.58737 0.84293 0.0
C1359 C 0.0142 0.56342 0.81249 0.0
C1360 C 0.02764 0.54682 0.82764 0.0
C1361 C 0.04508 0.55343 0.86914 0.0
C1362 C 0.96652 0.5207 0.70076 0.0
C1363 C 0.95832 0.53993 0.6793 0.0
C1364 C 0.98384 0.52825 0.74227 0.0
C1365 C 0.99478 0.55571 0.76642 0.0
C1366 C 0.98637 0.57507 0.7451 0.0
C1367 C 0.96879 0.56744 0.70327 0.0
H1368 H 0.52264 0.05156 0.45066 0.0
H1369 H 0.44095 0.99685 0.37486 0.0
H1370 H 0.50503 0.01526 0.51135 0.0
H1371 H 0.42336 0.96038 0.43431 0.0
H1372 H 0.43518 0.90325 0.41134 0.0
H1373 H 0.4182 0.92019 0.47725 0.0
H1374 H 0.50753 0.97353 0.52297 0.0
H1375 H 0.5259 0.95944 0.456 0.0
C1376 C 0.50104 0.03157 0.44674 0.0
C1377 C 0.48392 0.02626 0.40689 0.0
C1378 C 0.49056 0.01089 0.48202 0.0
C1379 C 0.46418 0.98304 0.47591 0.0
C1380 C 0.44508 0.98014 0.43916 0.0
C1381 C 0.45543 0.00079 0.40411 0.0
C1382 C 0.45141 0.9205 0.43303 0.0
C1383 C 0.48213 0.93415 0.42341 0.0
C1384 C 0.44192 0.92899 0.47236 0.0
C1385 C 0.46305 0.95561 0.49414 0.0
C1386 C 0.49153 0.95872 0.49764 0.0
C1387 C 0.50224 0.95128 0.45875 0.0
H1388 H 0.42869 0.48312 0.79451 0.0
H1389 H 0.48904 0.52579 0.68194 0.0
H1390 H 0.4708 0.50147 0.847 0.0
H1391 H 0.53021 0.54846 0.73388 0.0
H1392 H 0.52736 0.46397 0.78312 0.0
H1393 H 0.50462 0.4799 0.841 0.0
H1394 H 0.56498 0.571 0.80926 0.0
H1395 H 0.5883 0.55644 0.75088 0.0
C1396 C 0.45087 0.49746 0.78107 0.0
C1397 C 0.45562 0.50422 0.73394 0.0
C1398 C 0.47488 0.50867 0.81161 0.0
C1399 C 0.50417 0.52637 0.79542 0.0
C1400 C 0.50831 0.5348 0.7487 0.0
C1401 C 0.48458 0.52228 0.7182 0.0
C1402 C 0.53622 0.48757 0.78845 0.0
C1403 C 0.55769 0.50884 0.75875 0.0
C1404 C 0.52387 0.49688 0.82273 0.0
C1405 C 0.52907 0.52603 0.81999 0.0
C1406 C 0.55782 0.54761 0.80572 0.0
C1407 C 0.57085 0.53917 0.77109 0.0
H1408 H 0.96937 0.50681 1.00218 0.0
H1409 H 0.89639 0.4664 1.09635 0.0
H1410 H -0.00254 0.54502 1.06023 0.0
H1411 H 0.92887 0.49672 0.15929 0.0
H1412 H 0.05679 0.56783 0.15829 0.0
H1413 H 0.00687 0.54802 0.18759 0.0
H1414 H 0.97672 0.47272 1.09804 0.0
H1415 H 0.02476 0.49589 1.05949 0.0
C1416 C 0.95924 0.5056 1.03523 0.0
C1417 C 0.93275 0.48009 1.04833 0.0
C1418 C 0.97507 0.5275 1.06874 0.0
C1419 C 0.96736 0.51914 1.1152 0.0
C1420 C 0.93716 0.50054 0.12439 0.0
C1421 C 0.91939 0.4814 1.08956 0.0
C1422 C 0.03963 0.54672 0.14469 0.0
C1423 C 0.04316 0.53563 1.10205 0.0
C1424 C 0.01112 0.53493 0.16294 0.0
C1425 C 0.98774 0.51161 0.13904 0.0
C1426 C 0.99471 0.49283 1.1131 0.0
C1427 C 0.02222 0.50624 1.09022 0.0
H1428 H 0.05 0.47042 0.41987 0.0
H1429 H 0.98591 0.46405 0.51973 0.0
H1430 H 0.02837 0.48817 0.36349 0.0
H1431 H 0.95766 0.46975 0.45804 0.0
H1432 H 0.01046 0.53905 0.51872 0.0
H1433 H 0.0387 0.53276 0.45729 0.0
H1434 H 0.9674 0.51189 0.36248 0.0
H1435 H 0.9451 0.52946 0.41871 0.0
C1436 C 0.03084 0.47201 0.4296 0.0
C1437 C 0.0221 0.47038 0.47598 0.0
C1438 C 0.01726 0.48011 0.39616 0.0
C1439 C 0.99431 0.48496 0.40968 0.0
C1440 C 0.97797 0.46976 0.44924 0.0
C1441 C 0.99406 0.46674 0.48518 0.0
C1442 C 0.00211 0.53565 0.48413 0.0
C1443 C 0.9737 0.53112 0.47487 0.0
C1444 C 0.01823 0.53234 0.4483 0.0
C1445 C 0.00178 0.51629 0.40894 0.0
C1446 C 0.97855 0.52057 0.39515 0.0
C1447 C 0.96469 0.52867 0.42848 0.0
H1448 H 0.43726 0.94328 0.74769 0.0
H1449 H 0.49945 0.94002 0.84268 0.0
H1450 H 0.47574 0.96342 0.68974 0.0
H1451 H 0.53737 0.95995 0.78314 0.0
H1452 H 0.58359 0.03846 0.81494 0.0
H1453 H 0.57147 0.00724 0.74777 0.0
H1454 H 0.49081 0.01086 0.73186 0.0
H1455 H 0.50325 0.04209 0.79977 0.0
C1456 C 0.45913 0.94702 0.7566 0.0
C1457 C 0.46632 0.9432 0.80195 0.0
C1458 C 0.48086 0.95719 0.72237 0.0
C1459 C 0.51061 0.96954 0.73652 0.0
C1460 C 0.51521 0.9557 0.77466 0.0
C1461 C 0.49387 0.94511 0.80957 0.0
C1462 C 0.56327 0.03245 0.79738 0.0
C1463 C 0.54286 0.03992 0.81588 0.0
C1464 C 0.55688 0.01562 0.75736 0.0
C1465 C 0.528 0.00272 0.73909 0.0
C1466 C 0.51164 0.01711 0.74921 0.0
C1467 C 0.51806 0.03418 0.78921 0.0
H1468 H 0.50202 0.55917 1.08956 0.0
H1469 H 0.53367 0.52409 0.19382 0.0
H1470 H 0.48146 0.51305 1.04601 0.0
H1471 H 0.52277 0.48258 0.14171 0.0
H1472 H 0.46132 0.45421 0.21493 0.0
H1473 H 0.45404 0.4832 0.15677 0.0
H1474 H 0.47234 0.4373 1.05108 0.0
H1475 H 0.46842 0.40187 1.10608 0.0
C1476 C 0.50481 0.54172 1.10283 0.0
C1477 C 0.51427 0.54239 0.1483 0.0
C1478 C 0.49502 0.51625 1.07615 0.0
C1479 C 0.49684 0.49275 1.09464 0.0
C1480 C 0.51809 0.49947 0.13008 0.0
C1481 C 0.52375 0.52265 0.16053 0.0
C1482 C 0.45998 0.44785 0.17924 0.0
C1483 C 0.46828 0.42727 0.166 0.0
C1484 C 0.45589 0.46437 0.14545 0.0
C1485 C 0.46808 0.46519 1.10179 0.0
C1486 C 0.46671 0.43929 1.08626 0.0
C1487 C 0.46628 0.41982 0.1189 0.0
H1488 H 0.34962 0.92719 0.60878 0.0
H1489 H 0.34697 0.97439 0.73 0.0
H1490 H 0.37759 0.97466 0.56863 0.0
H1491 H 0.37603 0.0214 0.69061 0.0
H1492 H 0.45379 0.10058 0.61203 0.0
H1493 H 0.42924 0.05317 0.65305 0.0
H1494 H 0.36258 0.01415 0.54593 0.0
H1495 H 0.38634 0.06138 0.50568 0.0
C1496 C 0.35492 0.94754 0.62684 0.0
C1497 C 0.34597 0.94687 0.67261 0.0
C1498 C 0.37113 0.97465 0.60402 0.0
C1499 C 0.37902 0.00154 0.6268 0.0
C1500 C 0.37058 0.00097 0.67261 0.0
C1501 C 0.35397 0.97396 0.69509 0.0
C1502 C 0.43361 0.08201 0.59772 0.0
C1503 C 0.42199 0.0847 0.55568 0.0
C1504 C 0.41979 0.05489 0.62089 0.0
C1505 C 0.39432 0.03005 0.60216 0.0
C1506 C 0.38253 0.03286 0.56056 0.0
C1507 C 0.39608 0.05993 0.53771 0.0
H1508 H 0.35969 0.36392 1.04551 0.0
H1509 H 0.42772 0.40101 0.94019 0.0
H1510 H 0.33678 0.39075 1.01483 0.0
H1511 H 0.40325 0.42669 0.90809 0.0
H1512 H 0.3032 0.39515 0.84345 0.0
H1513 H 0.33441 0.38206 0.88804 0.0
H1514 H 0.35985 0.4575 0.97774 0.0
H1515 H 0.32921 0.47166 0.93152 0.0
C1516 C 0.37029 0.37842 1.01657 0.0
C1517 C 0.39558 0.38033 0.99516 0.0
C1518 C 0.35715 0.39381 0.9993 0.0
C1519 C 0.36866 0.41086 0.95987 0.0
C1520 C 0.39446 0.41382 0.93912 0.0
C1521 C 0.40803 0.39878 0.9569 0.0
C1522 C 0.31514 0.40877 0.87302 0.0
C1523 C 0.31406 0.43447 0.8841 0.0
C1524 C 0.33316 0.40149 0.89799 0.0
C1525 C 0.34992 0.41942 0.93493 0.0
C1526 C 0.34738 0.44392 0.94847 0.0
C1527 C 0.32956 0.4516 0.92278 0.0
H1528 H 0.95861 0.3519 0.17953 0.0
H1529 H 0.92427 0.38119 0.29113 0.0
H1530 H 0.00711 0.37478 0.2169 0.0
H1531 H 0.97299 0.4031 0.32954 0.0
H1532 H 0.03953 0.37887 0.40189 0.0
H1533 H 0.9958 0.37123 0.35992 0.0
H1534 H 0.05229 0.42574 0.24981 0.0
H1535 H 0.09686 0.43462 0.29329 0.0
C1536 C 0.96152 0.36376 0.21159 0.0
C1537 C 0.93742 0.36449 0.2326 0.0
C1538 C 0.9894 0.37694 0.23282 0.0
C1539 C 0.99365 0.39064 0.27586 0.0
C1540 C 0.97006 0.39251 0.29624 0.0
C1541 C 0.94217 0.37967 0.27463 0.0
C1542 C 0.04274 0.38977 0.36915 0.0
C1543 C 0.07155 0.40766 0.35104 0.0
C1544 C 0.01773 0.38551 0.34533 0.0
C1545 C 0.02084 0.39844 0.30228 0.0
C1546 C 0.04953 0.41586 0.28334 0.0
C1547 C 0.07485 0.4206 0.30777 0.0
H1548 H 0.59206 0.02762 0.66825 0.0
H1549 H 0.6832 0.06118 0.62564 0.0
H1550 H 0.57687 0.98015 0.62953 0.0
H1551 H 0.66867 0.0137 0.58842 0.0
H1552 H 0.62689 0.93639 0.48785 0.0
H1553 H 0.64189 0.98348 0.52555 0.0
H1554 H 0.58203 0.93696 0.63799 0.0
H1555 H 0.56559 0.88947 0.59823 0.0
C1556 C 0.60864 0.02478 0.64989 0.0
C1557 C 0.6386 0.04781 0.64905 0.0
C1558 C 0.60014 0.99761 0.62843 0.0
C1559 C 0.62163 0.99305 0.60631 0.0
C1560 C 0.65149 0.01659 0.60459 0.0
C1561 C 0.65985 0.04381 0.62556 0.0
C1562 C 0.61721 0.93621 0.52093 0.0
C1563 C 0.59506 0.90939 0.54019 0.0
C1564 C 0.6259 0.9632 0.54266 0.0
C1565 C 0.61307 0.96401 0.58467 0.0
C1566 C 0.59193 0.93705 0.60519 0.0
C1567 C 0.58294 0.90988 0.58301 0.0
H1568 H 0.61776 0.69145 1.06143 0.0
H1569 H 0.54521 0.67065 0.96752 0.0
H1570 H 0.63101 0.6601 1.01668 0.0
H1571 H 0.55929 0.63963 0.92162 0.0
H1572 H 0.65056 0.63447 0.85565 0.0
H1573 H 0.62809 0.66125 0.88975 0.0
H1574 H 0.5834 0.59187 0.98965 0.0
H1575 H 0.605 0.56401 0.95455 0.0
C1576 C 0.60516 0.6807 1.03049 0.0
C1577 C 0.5806 0.68344 1.01756 0.0
C1578 C 0.61249 0.66259 1.00544 0.0
C1579 C 0.59565 0.64727 0.96676 0.0
C1580 C 0.57215 0.65116 0.95195 0.0
C1581 C 0.56451 0.66916 0.97753 0.0
C1582 C 0.63534 0.62443 0.88416 0.0
C1583 C 0.6295 0.5971 0.9025 0.0
C1584 C 0.62249 0.63976 0.90338 0.0
C1585 C 0.60396 0.62825 0.94159 0.0
C1586 C 0.59758 0.60082 0.95978 0.0
C1587 C 0.6102 0.5852 0.94019 0.0
H1588 H 0.08163 0.63938 0.29009 0.0
H1589 H 0.04536 0.67166 0.18701 0.0
H1590 H 0.03318 0.61485 0.32897 0.0
H1591 H -0.00304 0.64612 0.22476 0.0
H1592 H 0.90737 0.57656 0.28991 0.0
H1593 H 0.95411 0.59287 0.24746 0.0
H1594 H 0.00495 0.63804 0.36901 0.0
H1595 H 0.95892 0.62319 0.41039 0.0
C1596 C 0.06345 0.64134 0.27579 0.0
C1597 C 0.06755 0.65779 0.23569 0.0
C1598 C 0.03568 0.62699 0.2977 0.0
C1599 C 0.01139 0.6285 0.27959 0.0
C1600 C 0.0152 0.64423 0.23898 0.0
C1601 C 0.04301 0.65893 0.2175 0.0
C1602 C 0.92856 0.59005 0.30735 0.0
C1603 C 0.92945 0.59832 0.35361 0.0
C1604 C 0.9552 0.59915 0.28326 0.0
C1605 C 0.98303 0.61637 0.30527 0.0
C1606 C 0.98382 0.62421 0.35156 0.0
C1607 C 0.9574 0.61561 0.37524 0.0
H1608 H 0.57201 0.11438 0.48084 0.0
H1609 H 0.48314 0.08835 0.52578 0.0
H1610 H 0.58703 0.11363 0.56002 0.0
H1611 H 0.49829 0.08784 0.60577 0.0
H1612 H 0.54039 0.11387 0.75488 0.0
H1613 H 0.52401 0.1122 0.67576 0.0
H1614 H 0.58901 0.08985 0.62905 0.0
H1615 H 0.60489 0.09089 0.70898 0.0
C1616 C 0.55535 0.10855 0.50735 0.0
C1617 C 0.526 0.10176 0.49462 0.0
C1618 C 0.56415 0.1079 0.55391 0.0
C1619 C 0.54447 0.10081 0.59191 0.0
C1620 C 0.51497 0.09392 0.57925 0.0
C1621 C 0.506 0.09413 0.53235 0.0
C1622 C 0.5516 0.10868 0.72815 0.0
C1623 C 0.57491 0.10312 0.74054 0.0
C1624 C 0.54178 0.10748 0.68162 0.0
C1625 C 0.55476 0.10109 0.64336 0.0
C1626 C 0.57807 0.09539 0.65574 0.0
C1627 C 0.58752 0.09603 0.70258 0.0
H1628 H 0.3794 0.49067 0.8568 0.0
H1629 H 0.4548 0.57028 0.80557 0.0
H1630 H 0.39757 0.50686 0.9354 0.0
H1631 H 0.47254 0.5872 0.88312 0.0
H1632 H 0.42841 0.54123 1.08363 0.0
H1633 H 0.41106 0.52497 1.0062 0.0
H1634 H 0.49152 0.60038 0.95459 0.0
H1635 H 0.5085 0.61692 1.03378 0.0
C1636 C 0.39968 0.51195 0.86166 0.0
C1637 C 0.41443 0.52918 0.82227 0.0
C1638 C 0.41052 0.52168 0.90808 0.0
C1639 C 0.43711 0.5494 0.91914 0.0
C1640 C 0.45205 0.56607 0.87929 0.0
C1641 C 0.44127 0.5563 0.83319 0.0
C1642 C 0.44248 0.55512 1.05638 0.0
C1643 C 0.46994 0.58145 1.06791 0.0
C1644 C 0.43239 0.54523 1.01017 0.0
C1645 C 0.44892 0.56065 0.9705 0.0
C1646 C 0.47684 0.58701 0.98188 0.0
C1647 C 0.48697 0.59695 1.02862 0.0
H1648 H 0.908 0.41042 0.18973 0.0
H1649 H 0.85049 0.4436 0.15124 0.0
H1650 H 0.91188 0.43027 0.26756 0.0
H1651 H 0.85463 0.46397 0.22894 0.0
H1652 H 0.88417 0.51791 0.3719 0.0
H1653 H 0.88078 0.49966 0.29213 0.0
H1654 H 0.892 0.42834 0.34136 0.0
H1655 H 0.89505 0.44607 0.41954 0.0
C1656 C 0.89582 0.42174 0.19736 0.0
C1657 C 0.87849 0.42451 0.16198 0.0
C1658 C 0.89807 0.43343 0.24313 0.0
C1659 C 0.88362 0.44935 0.25712 0.0
C1660 C 0.86654 0.45237 0.22155 0.0
C1661 C 0.86384 0.44016 0.176 0.0
C1662 C 0.88577 0.49822 0.36612 0.0
C1663 C 0.88946 0.48372 0.40463 0.0
C1664 C 0.88372 0.48743 0.31943 0.0
C1665 C 0.8859 0.46181 0.30784 0.0
C1666 C 0.89025 0.44798 0.34647 0.0
C1667 C 0.89175 0.45834 0.39267 0.0
H1668 H 0.50874 0.89203 0.51936 0.0
H1669 H 0.41719 0.85281 0.47549 0.0
H1670 H 0.49359 0.89512 0.59841 0.0
H1671 H 0.40216 0.85615 0.55368 0.0
H1672 H 0.45453 0.87352 0.74788 0.0
H1673 H 0.47004 0.87201 0.66942 0.0
H1674 H 0.39875 0.88352 0.61854 0.0
H1675 H 0.38331 0.88543 0.69806 0.0
C1676 C 0.48527 0.88366 0.52609 0.0
C1677 C 0.46452 0.87157 0.48912 0.0
C1678 C 0.47635 0.88549 0.57231 0.0
C1679 C 0.44614 0.87586 0.5847 0.0
C1680 C 0.42559 0.86415 0.54747 0.0
C1681 C 0.4344 0.86187 0.50164 0.0
C1682 C 0.44172 0.87561 0.72042 0.0
C1683 C 0.41698 0.87924 0.73146 0.0
C1684 C 0.45105 0.87499 0.67432 0.0
C1685 C 0.4361 0.87747 0.63534 0.0
C1686 C 0.41122 0.88107 0.64619 0.0
C1687 C 0.40213 0.88219 0.69266 0.0
H1688 H 0.60904 0.50326 0.86164 0.0
H1689 H 0.54712 0.4161 0.80887 0.0
H1690 H 0.59066 0.48627 0.9396 0.0
H1691 H 0.52876 0.39889 0.88598 0.0
H1692 H 0.48885 0.36857 1.0335 0.0
H1693 H 0.50597 0.38621 0.95523 0.0
H1694 H 0.58 0.46682 1.01071 0.0
H1695 H 0.56209 0.44961 1.08758 0.0
C1696 C 0.59174 0.48028 0.86609 0.0
C1697 C 0.58058 0.46151 0.82654 0.0
C1698 C 0.58074 0.4701 0.91209 0.0
C1699 C 0.5575 0.4403 0.92246 0.0
C1700 C 0.54629 0.42184 0.88247 0.0
C1701 C 0.5573 0.43198 0.83678 0.0
C1702 C 0.50883 0.39006 1.02944 0.0
C1703 C 0.52387 0.40668 1.06959 0.0
C1704 C 0.51916 0.40056 0.98327 0.0
C1705 C 0.54543 0.42863 0.9733 0.0
C1706 C 0.55999 0.44526 1.01378 0.0
C1707 C 0.54961 0.43483 1.05954 0.0
H1708 H 0.10943 0.55837 0.42863 0.0
H1709 H 0.10143 0.47807 0.37261 0.0
H1710 H 0.11248 0.57751 0.35268 0.0
H1711 H 0.10348 0.49701 0.29469 0.0
H1712 H 0.12346 0.54281 0.15124 0.0
H1713 H 0.12037 0.52274 0.22747 0.0
H1714 H 0.10089 0.58776 0.28385 0.0
H1715 H 0.10477 0.60823 0.20715 0.0
C1716 C 0.1086 0.54448 0.40027 0.0
C1717 C 0.10588 0.51637 0.40932 0.0
C1718 C 0.10993 0.55568 0.35514 0.0
C1719 C 0.10845 0.5397 0.31454 0.0
C1720 C 0.10532 0.51119 0.3233 0.0
C1721 C 0.10403 0.49991 0.36901 0.0
C1722 C 0.11889 0.55339 0.17968 0.0
C1723 C 0.11491 0.57803 0.1709 0.0
C1724 C 0.11672 0.54131 0.2246 0.0
C1725 C 0.11039 0.55286 0.26475 0.0
C1726 C 0.10632 0.57759 0.25589 0.0
C1727 C 0.10853 0.58972 0.21076 0.0
loop_
_geom_bond_atom_site_label_1
_geom_bond_atom_site_label_2
_geom_bond_distance
_geom_bond_site_symmetry_2
_ccdc_geom_bond_type
Eu0 N29 2.600 . S
Eu0 N35 2.562 . S
Eu0 O44 2.462 . S
Eu0 O45 2.373 . S
Eu0 O47 2.432 . S
Eu0 O48 2.291 . S
Eu0 O52 2.335 . S
Eu0 O55 2.372 . S
Eu0 C64 2.787 . S
C1 N2 1.365 . S
C1 C4 1.405 . S
C1 C8 1.448 . S
N2 C1 1.365 . S
N2 C5 1.319 . S
N2 Eu11 2.600 . S
C3 C5 1.397 . S
C3 C6 1.367 . S
C3 H23 0.931 . S
C4 C1 1.405 . S
C4 C6 1.403 . S
C4 C10 1.439 . S
C5 N2 1.319 . S
C5 C3 1.397 . S
C5 H16 0.930 . S
C6 C3 1.367 . S
C6 C4 1.403 . S
C6 H27 0.929 . S
C7 C8 1.430 . S
C7 C9 1.387 . S
C7 C13 1.404 . S
C8 C1 1.448 . S
C8 C7 1.430 . S
C8 N12 1.351 . S
C9 C7 1.387 . S
C9 C10 1.374 . S
C9 H24 0.931 . S
C10 C4 1.439 . S
C10 C9 1.374 . S
C10 H25 0.931 . S
Eu11 N2 2.600 . S
Eu11 N12 2.562 . S
Eu11 O46 2.335 . S
Eu11 O49 2.372 . S
Eu11 O50 2.462 . S
Eu11 O51 2.373 . S
Eu11 O53 2.432 . S
Eu11 O54 2.291 . S
Eu11 C75 2.787 . S
N12 C8 1.351 . S
N12 Eu11 2.562 . S
N12 C14 1.325 . S
C13 C7 1.404 . S
C13 C15 1.366 . S
C13 H21 0.930 1_545 S
C14 N12 1.325 . S
C14 C15 1.416 . S
C14 H20 0.929 . S
C15 C13 1.366 . S
C15 C14 1.416 . S
C15 H17 0.930 1_545 S
H16 C5 0.930 . S
H17 C15 0.930 1_565 S
H18 C33 0.930 . S
H19 C40 0.930 . S
H20 C14 0.929 . S
H21 C13 0.930 1_565 S
H22 C36 0.929 . S
H23 C3 0.931 . S
H24 C9 0.931 . S
H25 C10 0.931 . S
H26 C31 0.931 . S
H27 C6 0.929 . S
H28 C39 0.930 . S
N29 Eu0 2.600 . S
N29 C30 1.365 . S
N29 C33 1.319 . S
C30 N29 1.365 . S
C30 C32 1.405 . S
C30 C38 1.448 . S
C31 H26 0.931 . S
C31 C33 1.397 . S
C31 C34 1.367 . S
C32 C30 1.405 . S
C32 C34 1.403 . S
C32 C65 1.439 . S
C33 H18 0.930 . S
C33 N29 1.319 . S
C33 C31 1.397 . S
C34 C31 1.367 . S
C34 C32 1.403 . S
C34 H41 0.929 . S
N35 Eu0 2.562 . S
N35 C36 1.325 . S
N35 C38 1.351 . S
C36 H22 0.929 . S
C36 N35 1.325 . S
C36 C40 1.416 . S
C37 C38 1.430 . S
C37 C39 1.404 . S
C37 C66 1.387 . S
C38 C30 1.448 . S
C38 N35 1.351 . S
C38 C37 1.430 . S
C39 H28 0.930 . S
C39 C37 1.404 . S
C39 C40 1.366 . S
C40 H19 0.930 . S
C40 C36 1.416 . S
C40 C39 1.366 . S
H41 C34 0.929 . S
H42 C65 0.931 . S
H43 C66 0.931 . S
O44 Eu0 2.462 . S
O44 C64 1.252 . S
O45 Eu0 2.373 . S
O45 C56 1.249 . S
O46 Eu11 2.335 . S
O46 C56 1.264 . S
O47 Eu0 2.432 . S
O47 C64 1.268 . S
O48 Eu0 2.291 . S
O48 C63 1.255 . S
O49 Eu11 2.372 . S
O49 C63 1.257 . S
O50 Eu11 2.462 . S
O50 C75 1.252 . S
O51 Eu11 2.373 . S
O51 C67 1.249 . S
O52 Eu0 2.335 . S
O52 C67 1.264 . S
O53 Eu11 2.432 . S
O53 C75 1.268 . S
O54 Eu11 2.291 . S
O54 C74 1.255 . S
O55 Eu0 2.372 . S
O55 C74 1.257 . S
C56 O45 1.249 . S
C56 O46 1.264 . S
C57 C60 1.382 . S
C57 C62 1.390 . S
C57 C64 1.506 . S
C58 C59 1.398 . S
C58 C62 1.392 . S
C59 C58 1.398 . S
C59 C61 1.372 . S
C59 H76 0.931 . S
C60 C57 1.382 . S
C60 C61 1.390 . S
C60 H77 0.931 . S
C61 C59 1.372 . S
C61 C60 1.390 . S
C61 H78 0.929 . S
C62 C57 1.390 . S
C62 C58 1.392 . S
C62 H79 0.930 . S
C63 O48 1.255 . S
C63 O49 1.257 . S
C64 Eu0 2.787 . S
C64 O44 1.252 . S
C64 O47 1.268 . S
C64 C57 1.506 . S
C65 C32 1.439 . S
C65 H42 0.931 . S
C65 C66 1.374 . S
C66 C37 1.387 . S
C66 H43 0.931 . S
C66 C65 1.374 . S
C67 O51 1.249 . S
C67 O52 1.264 . S
C68 C71 1.382 . S
C68 C72 1.390 . S
C68 C75 1.506 . S
C69 C70 1.398 . S
C69 C72 1.392 . S
C70 C69 1.398 . S
C70 C73 1.372 . S
C70 H80 0.931 . S
C71 C68 1.382 . S
C71 C73 1.390 . S
C71 H81 0.931 . S
C72 C68 1.390 . S
C72 C69 1.392 . S
C72 H82 0.930 . S
C73 C70 1.372 . S
C73 C71 1.390 . S
C73 H83 0.929 . S
C74 O54 1.255 . S
C74 O55 1.257 . S
C75 Eu11 2.787 . S
C75 O50 1.252 . S
C75 O53 1.268 . S
C75 C68 1.506 . S
H76 C59 0.931 . S
H77 C60 0.931 . S
H78 C61 0.929 . S
H79 C62 0.930 . S
H80 C70 0.931 . S
H81 C71 0.931 . S
H82 C72 0.930 . S
H83 C73 0.929 . S
Eu84 N113 2.600 . S
Eu84 N119 2.562 . S
Eu84 O128 2.462 . S
Eu84 O129 2.373 . S
Eu84 O131 2.432 . S
Eu84 O132 2.291 . S
Eu84 O136 2.335 . S
Eu84 O139 2.372 . S
Eu84 C148 2.787 . S
C85 N86 1.365 . S
C85 C88 1.405 . S
C85 C92 1.448 . S
N86 C85 1.365 . S
N86 C89 1.319 . S
N86 Eu95 2.600 . S
C87 C89 1.397 . S
C87 C90 1.367 . S
C87 H107 0.931 . S
C88 C85 1.405 . S
C88 C90 1.403 . S
C88 C94 1.439 . S
C89 N86 1.319 . S
C89 C87 1.397 . S
C89 H100 0.930 . S
C90 C87 1.367 . S
C90 C88 1.403 . S
C90 H111 0.929 . S
C91 C92 1.430 . S
C91 C93 1.387 . S
C91 C97 1.404 . S
C92 C85 1.448 . S
C92 C91 1.430 . S
C92 N96 1.351 . S
C93 C91 1.387 . S
C93 C94 1.374 . S
C93 H108 0.931 . S
C94 C88 1.439 . S
C94 C93 1.374 . S
C94 H109 0.931 . S
Eu95 N86 2.600 . S
Eu95 N96 2.562 . S
Eu95 O130 2.335 . S
Eu95 O133 2.372 . S
Eu95 O134 2.462 . S
Eu95 O135 2.373 . S
Eu95 O137 2.432 . S
Eu95 O138 2.291 . S
Eu95 C159 2.787 . S
N96 C92 1.351 . S
N96 Eu95 2.562 . S
N96 C98 1.325 . S
C97 C91 1.404 . S
C97 C99 1.366 . S
C97 H105 0.930 . S
C98 N96 1.325 . S
C98 C99 1.416 . S
C98 H104 0.929 . S
C99 C97 1.366 . S
C99 C98 1.416 . S
C99 H101 0.930 . S
H100 C89 0.930 . S
H101 C99 0.930 . S
H102 C117 0.930 . S
H103 C124 0.930 . S
H104 C98 0.929 . S
H105 C97 0.930 . S
H106 C120 0.929 . S
H107 C87 0.931 . S
H108 C93 0.931 . S
H109 C94 0.931 . S
H110 C115 0.931 . S
H111 C90 0.929 . S
H112 C123 0.930 . S
N113 Eu84 2.600 . S
N113 C114 1.365 . S
N113 C117 1.319 . S
C114 N113 1.365 . S
C114 C116 1.405 . S
C114 C122 1.448 . S
C115 H110 0.931 . S
C115 C117 1.397 . S
C115 C118 1.367 . S
C116 C114 1.405 . S
C116 C118 1.403 . S
C116 C149 1.439 . S
C117 H102 0.930 . S
C117 N113 1.319 . S
C117 C115 1.397 . S
C118 C115 1.367 . S
C118 C116 1.403 . S
C118 H125 0.929 . S
N119 Eu84 2.562 . S
N119 C120 1.325 . S
N119 C122 1.351 . S
C120 H106 0.929 . S
C120 N119 1.325 . S
C120 C124 1.416 . S
C121 C122 1.430 . S
C121 C123 1.404 . S
C121 C150 1.387 . S
C122 C114 1.448 . S
C122 N119 1.351 . S
C122 C121 1.430 . S
C123 H112 0.930 . S
C123 C121 1.404 . S
C123 C124 1.366 . S
C124 H103 0.930 . S
C124 C120 1.416 . S
C124 C123 1.366 . S
H125 C118 0.929 . S
H126 C149 0.931 . S
H127 C150 0.931 . S
O128 Eu84 2.462 . S
O128 C148 1.252 . S
O129 Eu84 2.373 . S
O129 C140 1.249 . S
O130 Eu95 2.335 . S
O130 C140 1.264 . S
O131 Eu84 2.432 . S
O131 C148 1.268 . S
O132 Eu84 2.291 . S
O132 C147 1.255 . S
O133 Eu95 2.372 . S
O133 C147 1.257 . S
O134 Eu95 2.462 . S
O134 C159 1.252 . S
O135 Eu95 2.373 . S
O135 C151 1.249 . S
O136 Eu84 2.335 . S
O136 C151 1.264 . S
O137 Eu95 2.432 . S
O137 C159 1.268 . S
O138 Eu95 2.291 . S
O138 C158 1.255 . S
O139 Eu84 2.372 . S
O139 C158 1.257 . S
C140 O129 1.249 . S
C140 O130 1.264 . S
C141 C144 1.382 . S
C141 C146 1.390 . S
C141 C148 1.506 . S
C142 C143 1.398 . S
C142 C146 1.392 . S
C143 C142 1.398 . S
C143 C145 1.372 . S
C143 H160 0.931 . S
C144 C141 1.382 . S
C144 C145 1.390 . S
C144 H161 0.931 . S
C145 C143 1.372 . S
C145 C144 1.390 . S
C145 H162 0.929 . S
C146 C141 1.390 . S
C146 C142 1.392 . S
C146 H163 0.930 . S
C147 O132 1.255 . S
C147 O133 1.257 . S
C148 Eu84 2.787 . S
C148 O128 1.252 . S
C148 O131 1.268 . S
C148 C141 1.506 . S
C149 C116 1.439 . S
C149 H126 0.931 . S
C149 C150 1.374 . S
C150 C121 1.387 . S
C150 H127 0.931 . S
C150 C149 1.374 . S
C151 O135 1.249 . S
C151 O136 1.264 . S
C152 C155 1.382 . S
C152 C156 1.390 . S
C152 C159 1.506 . S
C153 C154 1.398 . S
C153 C156 1.392 . S
C154 C153 1.398 . S
C154 C157 1.372 . S
C154 H164 0.931 . S
C155 C152 1.382 . S
C155 C157 1.390 . S
C155 H165 0.931 . S
C156 C152 1.390 . S
C156 C153 1.392 . S
C156 H166 0.930 . S
C157 C154 1.372 . S
C157 C155 1.390 . S
C157 H167 0.929 . S
C158 O138 1.255 . S
C158 O139 1.257 . S
C159 Eu95 2.787 . S
C159 O134 1.252 . S
C159 O137 1.268 . S
C159 C152 1.506 . S
H160 C143 0.931 . S
H161 C144 0.931 . S
H162 C145 0.929 . S
H163 C146 0.930 . S
H164 C154 0.931 . S
H165 C155 0.931 . S
H166 C156 0.930 . S
H167 C157 0.929 . S
Eu168 N197 2.600 . S
Eu168 N203 2.562 . S
Eu168 O212 2.462 . S
Eu168 O213 2.373 . S
Eu168 O215 2.432 . S
Eu168 O216 2.291 . S
Eu168 O220 2.335 . S
Eu168 O223 2.372 . S
Eu168 C232 2.787 . S
C169 N170 1.365 . S
C169 C172 1.405 . S
C169 C176 1.448 . S
N170 C169 1.365 . S
N170 C173 1.319 . S
N170 Eu179 2.600 . S
C171 C173 1.397 . S
C171 C174 1.367 . S
C171 H191 0.931 . S
C172 C169 1.405 . S
C172 C174 1.403 . S
C172 C178 1.439 . S
C173 N170 1.319 . S
C173 C171 1.397 . S
C173 H184 0.930 . S
C174 C171 1.367 . S
C174 C172 1.403 . S
C174 H195 0.929 . S
C175 C176 1.430 . S
C175 C177 1.387 . S
C175 C181 1.404 . S
C176 C169 1.448 . S
C176 C175 1.430 . S
C176 N180 1.351 . S
C177 C175 1.387 . S
C177 C178 1.374 . S
C177 H192 0.931 . S
C178 C172 1.439 . S
C178 C177 1.374 . S
C178 H193 0.931 . S
Eu179 N170 2.600 . S
Eu179 N180 2.562 . S
Eu179 O214 2.335 . S
Eu179 O217 2.372 . S
Eu179 O218 2.462 1_556 S
Eu179 O219 2.373 . S
Eu179 O221 2.432 1_556 S
Eu179 O222 2.291 . S
Eu179 C243 2.787 1_556 S
N180 C176 1.351 . S
N180 Eu179 2.562 . S
N180 C182 1.325 . S
C181 C175 1.404 . S
C181 C183 1.366 . S
C181 H189 0.930 1_655 S
C182 N180 1.325 . S
C182 C183 1.416 . S
C182 H188 0.929 . S
C183 C181 1.366 . S
C183 C182 1.416 . S
C183 H185 0.930 1_655 S
H184 C173 0.930 . S
H185 C183 0.930 1_455 S
H186 C201 0.930 . S
H187 C208 0.930 . S
H188 C182 0.929 . S
H189 C181 0.930 1_455 S
H190 C204 0.929 . S
H191 C171 0.931 . S
H192 C177 0.931 . S
H193 C178 0.931 . S
H194 C199 0.931 . S
H195 C174 0.929 . S
H196 C207 0.930 . S
N197 Eu168 2.600 . S
N197 C198 1.365 . S
N197 C201 1.319 . S
C198 N197 1.365 . S
C198 C200 1.405 . S
C198 C206 1.448 . S
C199 H194 0.931 . S
C199 C201 1.397 . S
C199 C202 1.367 . S
C200 C198 1.405 . S
C200 C202 1.403 . S
C200 C233 1.439 . S
C201 H186 0.930 . S
C201 N197 1.319 . S
C201 C199 1.397 . S
C202 C199 1.367 . S
C202 C200 1.403 . S
C202 H209 0.929 . S
N203 Eu168 2.562 . S
N203 C204 1.325 . S
N203 C206 1.351 . S
C204 H190 0.929 . S
C204 N203 1.325 . S
C204 C208 1.416 . S
C205 C206 1.430 . S
C205 C207 1.404 . S
C205 C234 1.387 . S
C206 C198 1.448 . S
C206 N203 1.351 . S
C206 C205 1.430 . S
C207 H196 0.930 . S
C207 C205 1.404 . S
C207 C208 1.366 . S
C208 H187 0.930 . S
C208 C204 1.416 . S
C208 C207 1.366 . S
H209 C202 0.929 . S
H210 C233 0.931 . S
H211 C234 0.931 . S
O212 Eu168 2.462 . S
O212 C232 1.252 . S
O213 Eu168 2.373 . S
O213 C224 1.249 . S
O214 Eu179 2.335 . S
O214 C224 1.264 . S
O215 Eu168 2.432 . S
O215 C232 1.268 . S
O216 Eu168 2.291 . S
O216 C231 1.255 . S
O217 Eu179 2.372 . S
O217 C231 1.257 . S
O218 Eu179 2.462 1_554 S
O218 C243 1.252 . S
O219 Eu179 2.373 . S
O219 C235 1.249 . S
O220 Eu168 2.335 . S
O220 C235 1.264 . S
O221 Eu179 2.432 1_554 S
O221 C243 1.268 . S
O222 Eu179 2.291 . S
O222 C242 1.255 . S
O223 Eu168 2.372 . S
O223 C242 1.257 . S
C224 O213 1.249 . S
C224 O214 1.264 . S
C225 C228 1.382 . S
C225 C230 1.390 . S
C225 C232 1.506 . S
C226 C227 1.398 . S
C226 C230 1.392 . S
C227 C226 1.398 . S
C227 C229 1.372 . S
C227 H244 0.931 . S
C228 C225 1.382 . S
C228 C229 1.390 . S
C228 H245 0.931 . S
C229 C227 1.372 . S
C229 C228 1.390 . S
C229 H246 0.929 . S
C230 C225 1.390 . S
C230 C226 1.392 . S
C230 H247 0.930 . S
C231 O216 1.255 . S
C231 O217 1.257 . S
C232 Eu168 2.787 . S
C232 O212 1.252 . S
C232 O215 1.268 . S
C232 C225 1.506 . S
C233 C200 1.439 . S
C233 H210 0.931 . S
C233 C234 1.374 . S
C234 C205 1.387 . S
C234 H211 0.931 . S
C234 C233 1.374 . S
C235 O219 1.249 . S
C235 O220 1.264 . S
C236 C239 1.382 . S
C236 C240 1.390 . S
C236 C243 1.506 . S
C237 C238 1.398 . S
C237 C240 1.392 . S
C238 C237 1.398 . S
C238 C241 1.372 . S
C238 H248 0.931 . S
C239 C236 1.382 . S
C239 C241 1.390 . S
C239 H249 0.931 . S
C240 C236 1.390 . S
C240 C237 1.392 . S
C240 H250 0.930 . S
C241 C238 1.372 . S
C241 C239 1.390 . S
C241 H251 0.929 . S
C242 O222 1.255 . S
C242 O223 1.257 . S
C243 Eu179 2.787 1_554 S
C243 O218 1.252 . S
C243 O221 1.268 . S
C243 C236 1.506 . S
H244 C227 0.931 . S
H245 C228 0.931 . S
H246 C229 0.929 . S
H247 C230 0.930 . S
H248 C238 0.931 . S
H249 C239 0.931 . S
H250 C240 0.930 . S
H251 C241 0.929 . S
Eu252 N281 2.600 . S
Eu252 N287 2.562 . S
Eu252 O296 2.462 . S
Eu252 O297 2.373 . S
Eu252 O299 2.432 . S
Eu252 O300 2.291 . S
Eu252 O304 2.335 . S
Eu252 O307 2.372 . S
Eu252 C316 2.787 . S
C253 N254 1.365 . S
C253 C256 1.405 . S
C253 C260 1.448 . S
N254 C253 1.365 . S
N254 C257 1.319 . S
N254 Eu263 2.600 . S
C255 C257 1.397 . S
C255 C258 1.367 . S
C255 H275 0.931 . S
C256 C253 1.405 . S
C256 C258 1.403 . S
C256 C262 1.439 . S
C257 N254 1.319 . S
C257 C255 1.397 . S
C257 H268 0.930 . S
C258 C255 1.367 . S
C258 C256 1.403 . S
C258 H279 0.929 . S
C259 C260 1.430 . S
C259 C261 1.387 . S
C259 C265 1.404 . S
C260 C253 1.448 . S
C260 C259 1.430 . S
C260 N264 1.351 . S
C261 C259 1.387 . S
C261 C262 1.374 . S
C261 H276 0.931 . S
C262 C256 1.439 . S
C262 C261 1.374 . S
C262 H277 0.931 . S
Eu263 N254 2.600 . S
Eu263 N264 2.562 . S
Eu263 O298 2.335 . S
Eu263 O301 2.372 . S
Eu263 O302 2.462 . S
Eu263 O303 2.373 . S
Eu263 O305 2.432 . S
Eu263 O306 2.291 . S
Eu263 C327 2.787 . S
N264 C260 1.351 . S
N264 Eu263 2.562 . S
N264 C266 1.325 . S
C265 C259 1.404 . S
C265 C267 1.366 . S
C265 H273 0.930 1_565 S
C266 N264 1.325 . S
C266 C267 1.416 . S
C266 H272 0.929 . S
C267 C265 1.366 . S
C267 C266 1.416 . S
C267 H269 0.930 1_565 S
H268 C257 0.930 . S
H269 C267 0.930 1_545 S
H270 C285 0.930 . S
H271 C292 0.930 . S
H272 C266 0.929 . S
H273 C265 0.930 1_545 S
H274 C288 0.929 . S
H275 C255 0.931 . S
H276 C261 0.931 . S
H277 C262 0.931 . S
H278 C283 0.931 . S
H279 C258 0.929 . S
H280 C291 0.930 . S
N281 Eu252 2.600 . S
N281 C282 1.365 . S
N281 C285 1.319 . S
C282 N281 1.365 . S
C282 C284 1.405 . S
C282 C290 1.448 . S
C283 H278 0.931 . S
C283 C285 1.397 . S
C283 C286 1.367 . S
C284 C282 1.405 . S
C284 C286 1.403 . S
C284 C317 1.439 . S
C285 H270 0.930 . S
C285 N281 1.319 . S
C285 C283 1.397 . S
C286 C283 1.367 . S
C286 C284 1.403 . S
C286 H293 0.929 . S
N287 Eu252 2.562 . S
N287 C288 1.325 . S
N287 C290 1.351 . S
C288 H274 0.929 . S
C288 N287 1.325 . S
C288 C292 1.416 . S
C289 C290 1.430 . S
C289 C291 1.404 . S
C289 C318 1.387 . S
C290 C282 1.448 . S
C290 N287 1.351 . S
C290 C289 1.430 . S
C291 H280 0.930 . S
C291 C289 1.404 . S
C291 C292 1.366 . S
C292 H271 0.930 . S
C292 C288 1.416 . S
C292 C291 1.366 . S
H293 C286 0.929 . S
H294 C317 0.931 . S
H295 C318 0.931 . S
O296 Eu252 2.462 . S
O296 C316 1.252 . S
O297 Eu252 2.373 . S
O297 C308 1.249 . S
O298 Eu263 2.335 . S
O298 C308 1.264 . S
O299 Eu252 2.432 . S
O299 C316 1.268 . S
O300 Eu252 2.291 . S
O300 C315 1.255 . S
O301 Eu263 2.372 . S
O301 C315 1.257 . S
O302 Eu263 2.462 . S
O302 C327 1.252 . S
O303 Eu263 2.373 . S
O303 C319 1.249 . S
O304 Eu252 2.335 . S
O304 C319 1.264 . S
O305 Eu263 2.432 . S
O305 C327 1.268 . S
O306 Eu263 2.291 . S
O306 C326 1.255 . S
O307 Eu252 2.372 . S
O307 C326 1.257 . S
C308 O297 1.249 . S
C308 O298 1.264 . S
C309 C312 1.382 . S
C309 C314 1.390 . S
C309 C316 1.506 . S
C310 C311 1.398 . S
C310 C314 1.392 . S
C311 C310 1.398 . S
C311 C313 1.372 . S
C311 H328 0.931 . S
C312 C309 1.382 . S
C312 C313 1.390 . S
C312 H329 0.931 . S
C313 C311 1.372 . S
C313 C312 1.390 . S
C313 H330 0.929 . S
C314 C309 1.390 . S
C314 C310 1.392 . S
C314 H331 0.930 . S
C315 O300 1.255 . S
C315 O301 1.257 . S
C316 Eu252 2.787 . S
C316 O296 1.252 . S
C316 O299 1.268 . S
C316 C309 1.506 . S
C317 C284 1.439 . S
C317 H294 0.931 . S
C317 C318 1.374 . S
C318 C289 1.387 . S
C318 H295 0.931 . S
C318 C317 1.374 . S
C319 O303 1.249 . S
C319 O304 1.264 . S
C320 C323 1.382 . S
C320 C324 1.390 . S
C320 C327 1.506 . S
C321 C322 1.398 . S
C321 C324 1.392 . S
C322 C321 1.398 . S
C322 C325 1.372 . S
C322 H332 0.931 . S
C323 C320 1.382 . S
C323 C325 1.390 . S
C323 H333 0.931 . S
C324 C320 1.390 . S
C324 C321 1.392 . S
C324 H334 0.930 . S
C325 C322 1.372 . S
C325 C323 1.390 . S
C325 H335 0.929 . S
C326 O306 1.255 . S
C326 O307 1.257 . S
C327 Eu263 2.787 . S
C327 O302 1.252 . S
C327 O305 1.268 . S
C327 C320 1.506 . S
H328 C311 0.931 . S
H329 C312 0.931 . S
H330 C313 0.929 . S
H331 C314 0.930 . S
H332 C322 0.931 . S
H333 C323 0.931 . S
H334 C324 0.930 . S
H335 C325 0.929 . S
Eu336 N365 2.600 . S
Eu336 N371 2.562 . S
Eu336 O380 2.462 . S
Eu336 O381 2.373 . S
Eu336 O383 2.432 . S
Eu336 O384 2.291 . S
Eu336 O388 2.335 . S
Eu336 O391 2.372 . S
Eu336 C400 2.787 . S
C337 N338 1.365 . S
C337 C340 1.405 . S
C337 C344 1.448 . S
N338 C337 1.365 . S
N338 C341 1.319 . S
N338 Eu347 2.600 . S
C339 C341 1.397 . S
C339 C342 1.367 . S
C339 H359 0.931 . S
C340 C337 1.405 . S
C340 C342 1.403 . S
C340 C346 1.439 . S
C341 N338 1.319 . S
C341 C339 1.397 . S
C341 H352 0.930 . S
C342 C339 1.367 . S
C342 C340 1.403 . S
C342 H363 0.929 . S
C343 C344 1.430 . S
C343 C345 1.387 . S
C343 C349 1.404 . S
C344 C337 1.448 . S
C344 C343 1.430 . S
C344 N348 1.351 . S
C345 C343 1.387 . S
C345 C346 1.374 . S
C345 H360 0.931 . S
C346 C340 1.439 . S
C346 C345 1.374 . S
C346 H361 0.931 . S
Eu347 N338 2.600 . S
Eu347 N348 2.562 . S
Eu347 O382 2.335 . S
Eu347 O385 2.372 . S
Eu347 O386 2.462 . S
Eu347 O387 2.373 . S
Eu347 O389 2.432 . S
Eu347 O390 2.291 . S
Eu347 C411 2.787 . S
N348 C344 1.351 . S
N348 Eu347 2.562 . S
N348 C350 1.325 . S
C349 C343 1.404 . S
C349 C351 1.366 . S
C349 H357 0.930 . S
C350 N348 1.325 . S
C350 C351 1.416 . S
C350 H356 0.929 . S
C351 C349 1.366 . S
C351 C350 1.416 . S
C351 H353 0.930 . S
H352 C341 0.930 . S
H353 C351 0.930 . S
H354 C369 0.930 . S
H355 C376 0.930 . S
H356 C350 0.929 . S
H357 C349 0.930 . S
H358 C372 0.929 . S
H359 C339 0.931 . S
H360 C345 0.931 . S
H361 C346 0.931 . S
H362 C367 0.931 . S
H363 C342 0.929 . S
H364 C375 0.930 . S
N365 Eu336 2.600 . S
N365 C366 1.365 . S
N365 C369 1.319 . S
C366 N365 1.365 . S
C366 C368 1.405 . S
C366 C374 1.448 . S
C367 H362 0.931 . S
C367 C369 1.397 . S
C367 C370 1.367 . S
C368 C366 1.405 . S
C368 C370 1.403 . S
C368 C401 1.439 . S
C369 H354 0.930 . S
C369 N365 1.319 . S
C369 C367 1.397 . S
C370 C367 1.367 . S
C370 C368 1.403 . S
C370 H377 0.929 . S
N371 Eu336 2.562 . S
N371 C372 1.325 . S
N371 C374 1.351 . S
C372 H358 0.929 . S
C372 N371 1.325 . S
C372 C376 1.416 . S
C373 C374 1.430 . S
C373 C375 1.404 . S
C373 C402 1.387 . S
C374 C366 1.448 . S
C374 N371 1.351 . S
C374 C373 1.430 . S
C375 H364 0.930 . S
C375 C373 1.404 . S
C375 C376 1.366 . S
C376 H355 0.930 . S
C376 C372 1.416 . S
C376 C375 1.366 . S
H377 C370 0.929 . S
H378 C401 0.931 . S
H379 C402 0.931 . S
O380 Eu336 2.462 . S
O380 C400 1.252 . S
O381 Eu336 2.373 . S
O381 C392 1.249 . S
O382 Eu347 2.335 . S
O382 C392 1.264 . S
O383 Eu336 2.432 . S
O383 C400 1.268 . S
O384 Eu336 2.291 . S
O384 C399 1.255 . S
O385 Eu347 2.372 . S
O385 C399 1.257 . S
O386 Eu347 2.462 . S
O386 C411 1.252 . S
O387 Eu347 2.373 . S
O387 C403 1.249 . S
O388 Eu336 2.335 . S
O388 C403 1.264 . S
O389 Eu347 2.432 . S
O389 C411 1.268 . S
O390 Eu347 2.291 . S
O390 C410 1.255 . S
O391 Eu336 2.372 . S
O391 C410 1.257 . S
C392 O381 1.249 . S
C392 O382 1.264 . S
C393 C396 1.382 . S
C393 C398 1.390 . S
C393 C400 1.506 . S
C394 C395 1.398 . S
C394 C398 1.392 . S
C395 C394 1.398 . S
C395 C397 1.372 . S
C395 H412 0.931 . S
C396 C393 1.382 . S
C396 C397 1.390 . S
C396 H413 0.931 . S
C397 C395 1.372 . S
C397 C396 1.390 . S
C397 H414 0.929 . S
C398 C393 1.390 . S
C398 C394 1.392 . S
C398 H415 0.930 . S
C399 O384 1.255 . S
C399 O385 1.257 . S
C400 Eu336 2.787 . S
C400 O380 1.252 . S
C400 O383 1.268 . S
C400 C393 1.506 . S
C401 C368 1.439 . S
C401 H378 0.931 . S
C401 C402 1.374 . S
C402 C373 1.387 . S
C402 H379 0.931 . S
C402 C401 1.374 . S
C403 O387 1.249 . S
C403 O388 1.264 . S
C404 C407 1.382 . S
C404 C408 1.390 . S
C404 C411 1.506 . S
C405 C406 1.398 . S
C405 C408 1.392 . S
C406 C405 1.398 . S
C406 C409 1.372 . S
C406 H416 0.931 . S
C407 C404 1.382 . S
C407 C409 1.390 . S
C407 H417 0.931 . S
C408 C404 1.390 . S
C408 C405 1.392 . S
C408 H418 0.930 . S
C409 C406 1.372 . S
C409 C407 1.390 . S
C409 H419 0.929 . S
C410 O390 1.255 . S
C410 O391 1.257 . S
C411 Eu347 2.787 . S
C411 O386 1.252 . S
C411 O389 1.268 . S
C411 C404 1.506 . S
H412 C395 0.931 . S
H413 C396 0.931 . S
H414 C397 0.929 . S
H415 C398 0.930 . S
H416 C406 0.931 . S
H417 C407 0.931 . S
H418 C408 0.930 . S
H419 C409 0.929 . S
Eu420 N449 2.600 . S
Eu420 N455 2.562 . S
Eu420 O464 2.462 . S
Eu420 O465 2.373 . S
Eu420 O467 2.432 . S
Eu420 O468 2.291 . S
Eu420 O472 2.335 . S
Eu420 O475 2.372 . S
Eu420 C484 2.787 . S
C421 N422 1.365 . S
C421 C424 1.405 . S
C421 C428 1.448 . S
N422 C421 1.365 . S
N422 C425 1.319 . S
N422 Eu431 2.600 . S
C423 C425 1.397 . S
C423 C426 1.367 . S
C423 H443 0.931 . S
C424 C421 1.405 . S
C424 C426 1.403 . S
C424 C430 1.439 . S
C425 N422 1.319 . S
C425 C423 1.397 . S
C425 H436 0.930 . S
C426 C423 1.367 . S
C426 C424 1.403 . S
C426 H447 0.929 . S
C427 C428 1.430 . S
C427 C429 1.387 . S
C427 C433 1.404 . S
C428 C421 1.448 . S
C428 C427 1.430 . S
C428 N432 1.351 . S
C429 C427 1.387 . S
C429 C430 1.374 . S
C429 H444 0.931 . S
C430 C424 1.439 . S
C430 C429 1.374 . S
C430 H445 0.931 . S
Eu431 N422 2.600 . S
Eu431 N432 2.562 . S
Eu431 O466 2.335 . S
Eu431 O469 2.372 . S
Eu431 O470 2.462 1_556 S
Eu431 O471 2.373 . S
Eu431 O473 2.432 1_556 S
Eu431 O474 2.291 . S
Eu431 C495 2.787 1_556 S
N432 C428 1.351 . S
N432 Eu431 2.562 . S
N432 C434 1.325 . S
C433 C427 1.404 . S
C433 C435 1.366 . S
C433 H441 0.930 1_455 S
C434 N432 1.325 . S
C434 C435 1.416 . S
C434 H440 0.929 . S
C435 C433 1.366 . S
C435 C434 1.416 . S
C435 H437 0.930 1_455 S
H436 C425 0.930 . S
H437 C435 0.930 1_655 S
H438 C453 0.930 . S
H439 C460 0.930 . S
H440 C434 0.929 . S
H441 C433 0.930 1_655 S
H442 C456 0.929 . S
H443 C423 0.931 . S
H444 C429 0.931 . S
H445 C430 0.931 . S
H446 C451 0.931 . S
H447 C426 0.929 . S
H448 C459 0.930 . S
N449 Eu420 2.600 . S
N449 C450 1.365 . S
N449 C453 1.319 . S
C450 N449 1.365 . S
C450 C452 1.405 . S
C450 C458 1.448 . S
C451 H446 0.931 . S
C451 C453 1.397 . S
C451 C454 1.367 . S
C452 C450 1.405 . S
C452 C454 1.403 . S
C452 C485 1.439 . S
C453 H438 0.930 . S
C453 N449 1.319 . S
C453 C451 1.397 . S
C454 C451 1.367 . S
C454 C452 1.403 . S
C454 H461 0.929 . S
N455 Eu420 2.562 . S
N455 C456 1.325 . S
N455 C458 1.351 . S
C456 H442 0.929 . S
C456 N455 1.325 . S
C456 C460 1.416 . S
C457 C458 1.430 . S
C457 C459 1.404 . S
C457 C486 1.387 . S
C458 C450 1.448 . S
C458 N455 1.351 . S
C458 C457 1.430 . S
C459 H448 0.930 . S
C459 C457 1.404 . S
C459 C460 1.366 . S
C460 H439 0.930 . S
C460 C456 1.416 . S
C460 C459 1.366 . S
H461 C454 0.929 . S
H462 C485 0.931 . S
H463 C486 0.931 . S
O464 Eu420 2.462 . S
O464 C484 1.252 . S
O465 Eu420 2.373 . S
O465 C476 1.249 . S
O466 Eu431 2.335 . S
O466 C476 1.264 . S
O467 Eu420 2.432 . S
O467 C484 1.268 . S
O468 Eu420 2.291 . S
O468 C483 1.255 . S
O469 Eu431 2.372 . S
O469 C483 1.257 . S
O470 Eu431 2.462 1_554 S
O470 C495 1.252 . S
O471 Eu431 2.373 . S
O471 C487 1.249 . S
O472 Eu420 2.335 . S
O472 C487 1.264 . S
O473 Eu431 2.432 1_554 S
O473 C495 1.268 . S
O474 Eu431 2.291 . S
O474 C494 1.255 . S
O475 Eu420 2.372 . S
O475 C494 1.257 . S
C476 O465 1.249 . S
C476 O466 1.264 . S
C477 C480 1.382 . S
C477 C482 1.390 . S
C477 C484 1.506 . S
C478 C479 1.398 . S
C478 C482 1.392 . S
C479 C478 1.398 . S
C479 C481 1.372 . S
C479 H496 0.931 . S
C480 C477 1.382 . S
C480 C481 1.390 . S
C480 H497 0.931 . S
C481 C479 1.372 . S
C481 C480 1.390 . S
C481 H498 0.929 . S
C482 C477 1.390 . S
C482 C478 1.392 . S
C482 H499 0.930 . S
C483 O468 1.255 . S
C483 O469 1.257 . S
C484 Eu420 2.787 . S
C484 O464 1.252 . S
C484 O467 1.268 . S
C484 C477 1.506 . S
C485 C452 1.439 . S
C485 H462 0.931 . S
C485 C486 1.374 . S
C486 C457 1.387 . S
C486 H463 0.931 . S
C486 C485 1.374 . S
C487 O471 1.249 . S
C487 O472 1.264 . S
C488 C491 1.382 . S
C488 C492 1.390 . S
C488 C495 1.506 . S
C489 C490 1.398 . S
C489 C492 1.392 . S
C490 C489 1.398 . S
C490 C493 1.372 . S
C490 H500 0.931 . S
C491 C488 1.382 . S
C491 C493 1.390 . S
C491 H501 0.931 . S
C492 C488 1.390 . S
C492 C489 1.392 . S
C492 H502 0.930 . S
C493 C490 1.372 . S
C493 C491 1.390 . S
C493 H503 0.929 . S
C494 O474 1.255 . S
C494 O475 1.257 . S
C495 Eu431 2.787 1_554 S
C495 O470 1.252 . S
C495 O473 1.268 . S
C495 C488 1.506 . S
H496 C479 0.931 . S
H497 C480 0.931 . S
H498 C481 0.929 . S
H499 C482 0.930 . S
H500 C490 0.931 . S
H501 C491 0.931 . S
H502 C492 0.930 . S
H503 C493 0.929 . S
Eu504 N533 2.600 . S
Eu504 N539 2.562 . S
Eu504 O548 2.462 . S
Eu504 O549 2.373 . S
Eu504 O551 2.432 . S
Eu504 O552 2.291 . S
Eu504 O556 2.335 . S
Eu504 O559 2.372 . S
Eu504 C568 2.787 . S
C505 N506 1.365 . S
C505 C508 1.405 . S
C505 C512 1.448 . S
N506 C505 1.365 . S
N506 C509 1.319 . S
N506 Eu515 2.600 . S
C507 C509 1.397 . S
C507 C510 1.367 . S
C507 H527 0.931 . S
C508 C505 1.405 . S
C508 C510 1.403 . S
C508 C514 1.439 . S
C509 N506 1.319 . S
C509 C507 1.397 . S
C509 H520 0.930 . S
C510 C507 1.367 . S
C510 C508 1.403 . S
C510 H531 0.929 . S
C511 C512 1.430 . S
C511 C513 1.387 . S
C511 C517 1.404 . S
C512 C505 1.448 . S
C512 C511 1.430 . S
C512 N516 1.351 . S
C513 C511 1.387 . S
C513 C514 1.374 . S
C513 H528 0.931 . S
C514 C508 1.439 . S
C514 C513 1.374 . S
C514 H529 0.931 . S
Eu515 N506 2.600 . S
Eu515 N516 2.562 . S
Eu515 O550 2.335 . S
Eu515 O553 2.372 . S
Eu515 O554 2.462 . S
Eu515 O555 2.373 . S
Eu515 O557 2.432 . S
Eu515 O558 2.291 . S
Eu515 C579 2.787 . S
N516 C512 1.351 . S
N516 Eu515 2.562 . S
N516 C518 1.325 . S
C517 C511 1.404 . S
C517 C519 1.366 . S
C517 H525 0.930 1_655 S
C518 N516 1.325 . S
C518 C519 1.416 . S
C518 H524 0.929 . S
C519 C517 1.366 . S
C519 C518 1.416 . S
C519 H521 0.930 1_655 S
H520 C509 0.930 . S
H521 C519 0.930 1_455 S
H522 C537 0.930 . S
H523 C544 0.930 . S
H524 C518 0.929 . S
H525 C517 0.930 1_455 S
H526 C540 0.929 . S
H527 C507 0.931 . S
H528 C513 0.931 . S
H529 C514 0.931 . S
H530 C535 0.931 . S
H531 C510 0.929 . S
H532 C543 0.930 . S
N533 Eu504 2.600 . S
N533 C534 1.365 . S
N533 C537 1.319 . S
C534 N533 1.365 . S
C534 C536 1.405 . S
C534 C542 1.448 . S
C535 H530 0.931 . S
C535 C537 1.397 . S
C535 C538 1.367 . S
C536 C534 1.405 . S
C536 C538 1.403 . S
C536 C569 1.439 . S
C537 H522 0.930 . S
C537 N533 1.319 . S
C537 C535 1.397 . S
C538 C535 1.367 . S
C538 C536 1.403 . S
C538 H545 0.929 . S
N539 Eu504 2.562 . S
N539 C540 1.325 . S
N539 C542 1.351 . S
C540 H526 0.929 . S
C540 N539 1.325 . S
C540 C544 1.416 . S
C541 C542 1.430 . S
C541 C543 1.404 . S
C541 C570 1.387 . S
C542 C534 1.448 . S
C542 N539 1.351 . S
C542 C541 1.430 . S
C543 H532 0.930 . S
C543 C541 1.404 . S
C543 C544 1.366 . S
C544 H523 0.930 . S
C544 C540 1.416 . S
C544 C543 1.366 . S
H545 C538 0.929 . S
H546 C569 0.931 . S
H547 C570 0.931 . S
O548 Eu504 2.462 . S
O548 C568 1.252 . S
O549 Eu504 2.373 . S
O549 C560 1.249 . S
O550 Eu515 2.335 . S
O550 C560 1.264 . S
O551 Eu504 2.432 . S
O551 C568 1.268 . S
O552 Eu504 2.291 . S
O552 C567 1.255 . S
O553 Eu515 2.372 . S
O553 C567 1.257 . S
O554 Eu515 2.462 . S
O554 C579 1.252 . S
O555 Eu515 2.373 . S
O555 C571 1.249 . S
O556 Eu504 2.335 . S
O556 C571 1.264 . S
O557 Eu515 2.432 . S
O557 C579 1.268 . S
O558 Eu515 2.291 . S
O558 C578 1.255 . S
O559 Eu504 2.372 . S
O559 C578 1.257 . S
C560 O549 1.249 . S
C560 O550 1.264 . S
C561 C564 1.382 . S
C561 C566 1.390 . S
C561 C568 1.506 . S
C562 C563 1.398 . S
C562 C566 1.392 . S
C563 C562 1.398 . S
C563 C565 1.372 . S
C563 H580 0.931 . S
C564 C561 1.382 . S
C564 C565 1.390 . S
C564 H581 0.931 . S
C565 C563 1.372 . S
C565 C564 1.390 . S
C565 H582 0.929 . S
C566 C561 1.390 . S
C566 C562 1.392 . S
C566 H583 0.930 . S
C567 O552 1.255 . S
C567 O553 1.257 . S
C568 Eu504 2.787 . S
C568 O548 1.252 . S
C568 O551 1.268 . S
C568 C561 1.506 . S
C569 C536 1.439 . S
C569 H546 0.931 . S
C569 C570 1.374 . S
C570 C541 1.387 . S
C570 H547 0.931 . S
C570 C569 1.374 . S
C571 O555 1.249 . S
C571 O556 1.264 . S
C572 C575 1.382 . S
C572 C576 1.390 . S
C572 C579 1.506 . S
C573 C574 1.398 . S
C573 C576 1.392 . S
C574 C573 1.398 . S
C574 C577 1.372 . S
C574 H584 0.931 . S
C575 C572 1.382 . S
C575 C577 1.390 . S
C575 H585 0.931 . S
C576 C572 1.390 . S
C576 C573 1.392 . S
C576 H586 0.930 . S
C577 C574 1.372 . S
C577 C575 1.390 . S
C577 H587 0.929 . S
C578 O558 1.255 . S
C578 O559 1.257 . S
C579 Eu515 2.787 . S
C579 O554 1.252 . S
C579 O557 1.268 . S
C579 C572 1.506 . S
H580 C563 0.931 . S
H581 C564 0.931 . S
H582 C565 0.929 . S
H583 C566 0.930 . S
H584 C574 0.931 . S
H585 C575 0.931 . S
H586 C576 0.930 . S
H587 C577 0.929 . S
Eu588 N617 2.600 . S
Eu588 N623 2.562 . S
Eu588 O632 2.462 . S
Eu588 O633 2.373 . S
Eu588 O635 2.432 . S
Eu588 O636 2.291 . S
Eu588 O640 2.335 . S
Eu588 O643 2.372 . S
Eu588 C652 2.787 . S
C589 N590 1.365 . S
C589 C592 1.405 . S
C589 C596 1.448 . S
N590 C589 1.365 . S
N590 C593 1.319 . S
N590 Eu599 2.600 . S
C591 C593 1.397 . S
C591 C594 1.367 . S
C591 H611 0.931 . S
C592 C589 1.405 . S
C592 C594 1.403 . S
C592 C598 1.439 . S
C593 N590 1.319 . S
C593 C591 1.397 . S
C593 H604 0.930 . S
C594 C591 1.367 . S
C594 C592 1.403 . S
C594 H615 0.929 . S
C595 C596 1.430 . S
C595 C597 1.387 . S
C595 C601 1.404 . S
C596 C589 1.448 . S
C596 C595 1.430 . S
C596 N600 1.351 . S
C597 C595 1.387 . S
C597 C598 1.374 . S
C597 H612 0.931 . S
C598 C592 1.439 . S
C598 C597 1.374 . S
C598 H613 0.931 . S
Eu599 N590 2.600 . S
Eu599 N600 2.562 . S
Eu599 O634 2.335 . S
Eu599 O637 2.372 . S
Eu599 O638 2.462 . S
Eu599 O639 2.373 . S
Eu599 O641 2.432 . S
Eu599 O642 2.291 . S
Eu599 C663 2.787 . S
N600 C596 1.351 . S
N600 Eu599 2.562 . S
N600 C602 1.325 . S
C601 C595 1.404 . S
C601 C603 1.366 . S
C601 H609 0.930 1_565 S
C602 N600 1.325 . S
C602 C603 1.416 . S
C602 H608 0.929 . S
C603 C601 1.366 . S
C603 C602 1.416 . S
C603 H605 0.930 1_565 S
H604 C593 0.930 . S
H605 C603 0.930 1_545 S
H606 C621 0.930 . S
H607 C628 0.930 . S
H608 C602 0.929 . S
H609 C601 0.930 1_545 S
H610 C624 0.929 . S
H611 C591 0.931 . S
H612 C597 0.931 . S
H613 C598 0.931 . S
H614 C619 0.931 . S
H615 C594 0.929 . S
H616 C627 0.930 . S
N617 Eu588 2.600 . S
N617 C618 1.365 . S
N617 C621 1.319 . S
C618 N617 1.365 . S
C618 C620 1.405 . S
C618 C626 1.448 . S
C619 H614 0.931 . S
C619 C621 1.397 . S
C619 C622 1.367 . S
C620 C618 1.405 . S
C620 C622 1.403 . S
C620 C653 1.439 . S
C621 H606 0.930 . S
C621 N617 1.319 . S
C621 C619 1.397 . S
C622 C619 1.367 . S
C622 C620 1.403 . S
C622 H629 0.929 . S
N623 Eu588 2.562 . S
N623 C624 1.325 . S
N623 C626 1.351 . S
C624 H610 0.929 . S
C624 N623 1.325 . S
C624 C628 1.416 . S
C625 C626 1.430 . S
C625 C627 1.404 . S
C625 C654 1.387 . S
C626 C618 1.448 . S
C626 N623 1.351 . S
C626 C625 1.430 . S
C627 H616 0.930 . S
C627 C625 1.404 . S
C627 C628 1.366 . S
C628 H607 0.930 . S
C628 C624 1.416 . S
C628 C627 1.366 . S
H629 C622 0.929 . S
H630 C653 0.931 . S
H631 C654 0.931 . S
O632 Eu588 2.462 . S
O632 C652 1.252 . S
O633 Eu588 2.373 . S
O633 C644 1.249 . S
O634 Eu599 2.335 . S
O634 C644 1.264 . S
O635 Eu588 2.432 . S
O635 C652 1.268 . S
O636 Eu588 2.291 . S
O636 C651 1.255 . S
O637 Eu599 2.372 . S
O637 C651 1.257 . S
O638 Eu599 2.462 . S
O638 C663 1.252 . S
O639 Eu599 2.373 . S
O639 C655 1.249 . S
O640 Eu588 2.335 . S
O640 C655 1.264 . S
O641 Eu599 2.432 . S
O641 C663 1.268 . S
O642 Eu599 2.291 . S
O642 C662 1.255 . S
O643 Eu588 2.372 . S
O643 C662 1.257 . S
C644 O633 1.249 . S
C644 O634 1.264 . S
C645 C648 1.382 . S
C645 C650 1.390 . S
C645 C652 1.506 . S
C646 C647 1.398 . S
C646 C650 1.392 . S
C647 C646 1.398 . S
C647 C649 1.372 . S
C647 H664 0.931 . S
C648 C645 1.382 . S
C648 C649 1.390 . S
C648 H665 0.931 . S
C649 C647 1.372 . S
C649 C648 1.390 . S
C649 H666 0.929 . S
C650 C645 1.390 . S
C650 C646 1.392 . S
C650 H667 0.930 . S
C651 O636 1.255 . S
C651 O637 1.257 . S
C652 Eu588 2.787 . S
C652 O632 1.252 . S
C652 O635 1.268 . S
C652 C645 1.506 . S
C653 C620 1.439 . S
C653 H630 0.931 . S
C653 C654 1.374 . S
C654 C625 1.387 . S
C654 H631 0.931 . S
C654 C653 1.374 . S
C655 O639 1.249 . S
C655 O640 1.264 . S
C656 C659 1.382 . S
C656 C660 1.390 . S
C656 C663 1.506 . S
C657 C658 1.398 . S
C657 C660 1.392 . S
C658 C657 1.398 . S
C658 C661 1.372 . S
C658 H668 0.931 . S
C659 C656 1.382 . S
C659 C661 1.390 . S
C659 H669 0.931 . S
C660 C656 1.390 . S
C660 C657 1.392 . S
C660 H670 0.930 . S
C661 C658 1.372 . S
C661 C659 1.390 . S
C661 H671 0.929 . S
C662 O642 1.255 . S
C662 O643 1.257 . S
C663 Eu599 2.787 . S
C663 O638 1.252 . S
C663 O641 1.268 . S
C663 C656 1.506 . S
H664 C647 0.931 . S
H665 C648 0.931 . S
H666 C649 0.929 . S
H667 C650 0.930 . S
H668 C658 0.931 . S
H669 C659 0.931 . S
H670 C660 0.930 . S
H671 C661 0.929 . S
Eu672 N701 2.600 . S
Eu672 N707 2.562 . S
Eu672 O716 2.462 . S
Eu672 O717 2.373 . S
Eu672 O719 2.432 . S
Eu672 O720 2.291 . S
Eu672 O724 2.335 . S
Eu672 O727 2.372 . S
Eu672 C736 2.787 . S
C673 N674 1.365 . S
C673 C676 1.405 . S
C673 C680 1.448 . S
N674 C673 1.365 . S
N674 C677 1.319 . S
N674 Eu683 2.600 . S
C675 C677 1.397 . S
C675 C678 1.367 . S
C675 H695 0.931 . S
C676 C673 1.405 . S
C676 C678 1.403 . S
C676 C682 1.439 . S
C677 N674 1.319 . S
C677 C675 1.397 . S
C677 H688 0.930 . S
C678 C675 1.367 . S
C678 C676 1.403 . S
C678 H699 0.929 . S
C679 C680 1.430 . S
C679 C681 1.387 . S
C679 C685 1.404 . S
C680 C673 1.448 . S
C680 C679 1.430 . S
C680 N684 1.351 . S
C681 C679 1.387 . S
C681 C682 1.374 . S
C681 H696 0.931 . S
C682 C676 1.439 . S
C682 C681 1.374 . S
C682 H697 0.931 . S
Eu683 N674 2.600 . S
Eu683 N684 2.562 . S
Eu683 O718 2.335 . S
Eu683 O721 2.372 . S
Eu683 O722 2.462 1_554 S
Eu683 O723 2.373 . S
Eu683 O725 2.432 1_554 S
Eu683 O726 2.291 . S
Eu683 C747 2.787 1_554 S
N684 C680 1.351 . S
N684 Eu683 2.562 . S
N684 C686 1.325 . S
C685 C679 1.404 . S
C685 C687 1.366 . S
C685 H693 0.930 . S
C686 N684 1.325 . S
C686 C687 1.416 . S
C686 H692 0.929 . S
C687 C685 1.366 . S
C687 C686 1.416 . S
C687 H689 0.930 . S
H688 C677 0.930 . S
H689 C687 0.930 . S
H690 C705 0.930 . S
H691 C712 0.930 . S
H692 C686 0.929 . S
H693 C685 0.930 . S
H694 C708 0.929 . S
H695 C675 0.931 . S
H696 C681 0.931 . S
H697 C682 0.931 . S
H698 C703 0.931 . S
H699 C678 0.929 . S
H700 C711 0.930 . S
N701 Eu672 2.600 . S
N701 C702 1.365 . S
N701 C705 1.319 . S
C702 N701 1.365 . S
C702 C704 1.405 . S
C702 C710 1.448 . S
C703 H698 0.931 . S
C703 C705 1.397 . S
C703 C706 1.367 . S
C704 C702 1.405 . S
C704 C706 1.403 . S
C704 C737 1.439 . S
C705 H690 0.930 . S
C705 N701 1.319 . S
C705 C703 1.397 . S
C706 C703 1.367 . S
C706 C704 1.403 . S
C706 H713 0.929 . S
N707 Eu672 2.562 . S
N707 C708 1.325 . S
N707 C710 1.351 . S
C708 H694 0.929 . S
C708 N707 1.325 . S
C708 C712 1.416 . S
C709 C710 1.430 . S
C709 C711 1.404 . S
C709 C738 1.387 . S
C710 C702 1.448 . S
C710 N707 1.351 . S
C710 C709 1.430 . S
C711 H700 0.930 . S
C711 C709 1.404 . S
C711 C712 1.366 . S
C712 H691 0.930 . S
C712 C708 1.416 . S
C712 C711 1.366 . S
H713 C706 0.929 . S
H714 C737 0.931 . S
H715 C738 0.931 . S
O716 Eu672 2.462 . S
O716 C736 1.252 . S
O717 Eu672 2.373 . S
O717 C728 1.249 . S
O718 Eu683 2.335 . S
O718 C728 1.264 . S
O719 Eu672 2.432 . S
O719 C736 1.268 . S
O720 Eu672 2.291 . S
O720 C735 1.255 . S
O721 Eu683 2.372 . S
O721 C735 1.257 . S
O722 Eu683 2.462 1_556 S
O722 C747 1.252 . S
O723 Eu683 2.373 . S
O723 C739 1.249 . S
O724 Eu672 2.335 . S
O724 C739 1.264 . S
O725 Eu683 2.432 1_556 S
O725 C747 1.268 . S
O726 Eu683 2.291 . S
O726 C746 1.255 . S
O727 Eu672 2.372 . S
O727 C746 1.257 . S
C728 O717 1.249 . S
C728 O718 1.264 . S
C729 C732 1.382 . S
C729 C734 1.390 . S
C729 C736 1.506 . S
C730 C731 1.398 . S
C730 C734 1.392 . S
C731 C730 1.398 . S
C731 C733 1.372 . S
C731 H748 0.931 . S
C732 C729 1.382 . S
C732 C733 1.390 . S
C732 H749 0.931 . S
C733 C731 1.372 . S
C733 C732 1.390 . S
C733 H750 0.929 . S
C734 C729 1.390 . S
C734 C730 1.392 . S
C734 H751 0.930 . S
C735 O720 1.255 . S
C735 O721 1.257 . S
C736 Eu672 2.787 . S
C736 O716 1.252 . S
C736 O719 1.268 . S
C736 C729 1.506 . S
C737 C704 1.439 . S
C737 H714 0.931 . S
C737 C738 1.374 . S
C738 C709 1.387 . S
C738 H715 0.931 . S
C738 C737 1.374 . S
C739 O723 1.249 . S
C739 O724 1.264 . S
C740 C743 1.382 . S
C740 C744 1.390 . S
C740 C747 1.506 . S
C741 C742 1.398 . S
C741 C744 1.392 . S
C742 C741 1.398 . S
C742 C745 1.372 . S
C742 H752 0.931 . S
C743 C740 1.382 . S
C743 C745 1.390 . S
C743 H753 0.931 . S
C744 C740 1.390 . S
C744 C741 1.392 . S
C744 H754 0.930 . S
C745 C742 1.372 . S
C745 C743 1.390 . S
C745 H755 0.929 . S
C746 O726 1.255 . S
C746 O727 1.257 . S
C747 Eu683 2.787 1_556 S
C747 O722 1.252 . S
C747 O725 1.268 . S
C747 C740 1.506 . S
H748 C731 0.931 . S
H749 C732 0.931 . S
H750 C733 0.929 . S
H751 C734 0.930 . S
H752 C742 0.931 . S
H753 C743 0.931 . S
H754 C744 0.930 . S
H755 C745 0.929 . S
Eu756 N785 2.600 . S
Eu756 N791 2.562 . S
Eu756 O800 2.462 . S
Eu756 O801 2.373 . S
Eu756 O803 2.432 . S
Eu756 O804 2.291 . S
Eu756 O808 2.335 . S
Eu756 O811 2.372 . S
Eu756 C820 2.787 . S
C757 N758 1.365 . S
C757 C760 1.405 . S
C757 C764 1.448 . S
N758 C757 1.365 . S
N758 C761 1.319 . S
N758 Eu767 2.600 . S
C759 C761 1.397 . S
C759 C762 1.367 . S
C759 H779 0.931 . S
C760 C757 1.405 . S
C760 C762 1.403 . S
C760 C766 1.439 . S
C761 N758 1.319 . S
C761 C759 1.397 . S
C761 H772 0.930 . S
C762 C759 1.367 . S
C762 C760 1.403 . S
C762 H783 0.929 . S
C763 C764 1.430 . S
C763 C765 1.387 . S
C763 C769 1.404 . S
C764 C757 1.448 . S
C764 C763 1.430 . S
C764 N768 1.351 . S
C765 C763 1.387 . S
C765 C766 1.374 . S
C765 H780 0.931 . S
C766 C760 1.439 . S
C766 C765 1.374 . S
C766 H781 0.931 . S
Eu767 N758 2.600 . S
Eu767 N768 2.562 . S
Eu767 O802 2.335 . S
Eu767 O805 2.372 . S
Eu767 O806 2.462 . S
Eu767 O807 2.373 . S
Eu767 O809 2.432 . S
Eu767 O810 2.291 . S
Eu767 C831 2.787 . S
N768 C764 1.351 . S
N768 Eu767 2.562 . S
N768 C770 1.325 . S
C769 C763 1.404 . S
C769 C771 1.366 . S
C769 H777 0.930 1_455 S
C770 N768 1.325 . S
C770 C771 1.416 . S
C770 H776 0.929 . S
C771 C769 1.366 . S
C771 C770 1.416 . S
C771 H773 0.930 1_455 S
H772 C761 0.930 . S
H773 C771 0.930 1_655 S
H774 C789 0.930 . S
H775 C796 0.930 . S
H776 C770 0.929 . S
H777 C769 0.930 1_655 S
H778 C792 0.929 . S
H779 C759 0.931 . S
H780 C765 0.931 . S
H781 C766 0.931 . S
H782 C787 0.931 . S
H783 C762 0.929 . S
H784 C795 0.930 . S
N785 Eu756 2.600 . S
N785 C786 1.365 . S
N785 C789 1.319 . S
C786 N785 1.365 . S
C786 C788 1.405 . S
C786 C794 1.448 . S
C787 H782 0.931 . S
C787 C789 1.397 . S
C787 C790 1.367 . S
C788 C786 1.405 . S
C788 C790 1.403 . S
C788 C821 1.439 . S
C789 H774 0.930 . S
C789 N785 1.319 . S
C789 C787 1.397 . S
C790 C787 1.367 . S
C790 C788 1.403 . S
C790 H797 0.929 . S
N791 Eu756 2.562 . S
N791 C792 1.325 . S
N791 C794 1.351 . S
C792 H778 0.929 . S
C792 N791 1.325 . S
C792 C796 1.416 . S
C793 C794 1.430 . S
C793 C795 1.404 . S
C793 C822 1.387 . S
C794 C786 1.448 . S
C794 N791 1.351 . S
C794 C793 1.430 . S
C795 H784 0.930 . S
C795 C793 1.404 . S
C795 C796 1.366 . S
C796 H775 0.930 . S
C796 C792 1.416 . S
C796 C795 1.366 . S
H797 C790 0.929 . S
H798 C821 0.931 . S
H799 C822 0.931 . S
O800 Eu756 2.462 . S
O800 C820 1.252 . S
O801 Eu756 2.373 . S
O801 C812 1.249 . S
O802 Eu767 2.335 . S
O802 C812 1.264 . S
O803 Eu756 2.432 . S
O803 C820 1.268 . S
O804 Eu756 2.291 . S
O804 C819 1.255 . S
O805 Eu767 2.372 . S
O805 C819 1.257 . S
O806 Eu767 2.462 . S
O806 C831 1.252 . S
O807 Eu767 2.373 . S
O807 C823 1.249 . S
O808 Eu756 2.335 . S
O808 C823 1.264 . S
O809 Eu767 2.432 . S
O809 C831 1.268 . S
O810 Eu767 2.291 . S
O810 C830 1.255 . S
O811 Eu756 2.372 . S
O811 C830 1.257 . S
C812 O801 1.249 . S
C812 O802 1.264 . S
C813 C816 1.382 . S
C813 C818 1.390 . S
C813 C820 1.506 . S
C814 C815 1.398 . S
C814 C818 1.392 . S
C815 C814 1.398 . S
C815 C817 1.372 . S
C815 H832 0.931 . S
C816 C813 1.382 . S
C816 C817 1.390 . S
C816 H833 0.931 . S
C817 C815 1.372 . S
C817 C816 1.390 . S
C817 H834 0.929 . S
C818 C813 1.390 . S
C818 C814 1.392 . S
C818 H835 0.930 . S
C819 O804 1.255 . S
C819 O805 1.257 . S
C820 Eu756 2.787 . S
C820 O800 1.252 . S
C820 O803 1.268 . S
C820 C813 1.506 . S
C821 C788 1.439 . S
C821 H798 0.931 . S
C821 C822 1.374 . S
C822 C793 1.387 . S
C822 H799 0.931 . S
C822 C821 1.374 . S
C823 O807 1.249 . S
C823 O808 1.264 . S
C824 C827 1.382 . S
C824 C828 1.390 . S
C824 C831 1.506 . S
C825 C826 1.398 . S
C825 C828 1.392 . S
C826 C825 1.398 . S
C826 C829 1.372 . S
C826 H836 0.931 . S
C827 C824 1.382 . S
C827 C829 1.390 . S
C827 H837 0.931 . S
C828 C824 1.390 . S
C828 C825 1.392 . S
C828 H838 0.930 . S
C829 C826 1.372 . S
C829 C827 1.390 . S
C829 H839 0.929 . S
C830 O810 1.255 . S
C830 O811 1.257 . S
C831 Eu767 2.787 . S
C831 O806 1.252 . S
C831 O809 1.268 . S
C831 C824 1.506 . S
H832 C815 0.931 . S
H833 C816 0.931 . S
H834 C817 0.929 . S
H835 C818 0.930 . S
H836 C826 0.931 . S
H837 C827 0.931 . S
H838 C828 0.930 . S
H839 C829 0.929 . S
Eu840 N869 2.600 . S
Eu840 N875 2.562 . S
Eu840 O884 2.462 . S
Eu840 O885 2.373 . S
Eu840 O887 2.432 . S
Eu840 O888 2.291 . S
Eu840 O892 2.335 . S
Eu840 O895 2.372 . S
Eu840 C904 2.787 . S
C841 N842 1.365 . S
C841 C844 1.405 . S
C841 C848 1.448 . S
N842 C841 1.365 . S
N842 C845 1.319 . S
N842 Eu851 2.600 . S
C843 C845 1.397 . S
C843 C846 1.367 . S
C843 H863 0.931 . S
C844 C841 1.405 . S
C844 C846 1.403 . S
C844 C850 1.439 . S
C845 N842 1.319 . S
C845 C843 1.397 . S
C845 H856 0.930 . S
C846 C843 1.367 . S
C846 C844 1.403 . S
C846 H867 0.929 . S
C847 C848 1.430 . S
C847 C849 1.387 . S
C847 C853 1.404 . S
C848 C841 1.448 . S
C848 C847 1.430 . S
C848 N852 1.351 . S
C849 C847 1.387 . S
C849 C850 1.374 . S
C849 H864 0.931 . S
C850 C844 1.439 . S
C850 C849 1.374 . S
C850 H865 0.931 . S
Eu851 N842 2.600 . S
Eu851 N852 2.562 . S
Eu851 O886 2.335 . S
Eu851 O889 2.372 . S
Eu851 O890 2.462 . S
Eu851 O891 2.373 . S
Eu851 O893 2.432 . S
Eu851 O894 2.291 . S
Eu851 C915 2.787 . S
N852 C848 1.351 . S
N852 Eu851 2.562 . S
N852 C854 1.325 . S
C853 C847 1.404 . S
C853 C855 1.366 . S
C853 H861 0.930 1_545 S
C854 N852 1.325 . S
C854 C855 1.416 . S
C854 H860 0.929 . S
C855 C853 1.366 . S
C855 C854 1.416 . S
C855 H857 0.930 1_545 S
H856 C845 0.930 . S
H857 C855 0.930 1_565 S
H858 C873 0.930 . S
H859 C880 0.930 . S
H860 C854 0.929 . S
H861 C853 0.930 1_565 S
H862 C876 0.929 . S
H863 C843 0.931 . S
H864 C849 0.931 . S
H865 C850 0.931 . S
H866 C871 0.931 . S
H867 C846 0.929 . S
H868 C879 0.930 . S
N869 Eu840 2.600 . S
N869 C870 1.365 . S
N869 C873 1.319 . S
C870 N869 1.365 . S
C870 C872 1.405 . S
C870 C878 1.448 . S
C871 H866 0.931 . S
C871 C873 1.397 . S
C871 C874 1.367 . S
C872 C870 1.405 . S
C872 C874 1.403 . S
C872 C905 1.439 . S
C873 H858 0.930 . S
C873 N869 1.319 . S
C873 C871 1.397 . S
C874 C871 1.367 . S
C874 C872 1.403 . S
C874 H881 0.929 . S
N875 Eu840 2.562 . S
N875 C876 1.325 . S
N875 C878 1.351 . S
C876 H862 0.929 . S
C876 N875 1.325 . S
C876 C880 1.416 . S
C877 C878 1.430 . S
C877 C879 1.404 . S
C877 C906 1.387 . S
C878 C870 1.448 . S
C878 N875 1.351 . S
C878 C877 1.430 . S
C879 H868 0.930 . S
C879 C877 1.404 . S
C879 C880 1.366 . S
C880 H859 0.930 . S
C880 C876 1.416 . S
C880 C879 1.366 . S
H881 C874 0.929 . S
H882 C905 0.931 . S
H883 C906 0.931 . S
O884 Eu840 2.462 . S
O884 C904 1.252 . S
O885 Eu840 2.373 . S
O885 C896 1.249 . S
O886 Eu851 2.335 . S
O886 C896 1.264 . S
O887 Eu840 2.432 . S
O887 C904 1.268 . S
O888 Eu840 2.291 . S
O888 C903 1.255 . S
O889 Eu851 2.372 . S
O889 C903 1.257 . S
O890 Eu851 2.462 . S
O890 C915 1.252 . S
O891 Eu851 2.373 . S
O891 C907 1.249 . S
O892 Eu840 2.335 . S
O892 C907 1.264 . S
O893 Eu851 2.432 . S
O893 C915 1.268 . S
O894 Eu851 2.291 . S
O894 C914 1.255 . S
O895 Eu840 2.372 . S
O895 C914 1.257 . S
C896 O885 1.249 . S
C896 O886 1.264 . S
C897 C900 1.382 . S
C897 C902 1.390 . S
C897 C904 1.506 . S
C898 C899 1.398 . S
C898 C902 1.392 . S
C899 C898 1.398 . S
C899 C901 1.372 . S
C899 H916 0.931 . S
C900 C897 1.382 . S
C900 C901 1.390 . S
C900 H917 0.931 . S
C901 C899 1.372 . S
C901 C900 1.390 . S
C901 H918 0.929 . S
C902 C897 1.390 . S
C902 C898 1.392 . S
C902 H919 0.930 . S
C903 O888 1.255 . S
C903 O889 1.257 . S
C904 Eu840 2.787 . S
C904 O884 1.252 . S
C904 O887 1.268 . S
C904 C897 1.506 . S
C905 C872 1.439 . S
C905 H882 0.931 . S
C905 C906 1.374 . S
C906 C877 1.387 . S
C906 H883 0.931 . S
C906 C905 1.374 . S
C907 O891 1.249 . S
C907 O892 1.264 . S
C908 C911 1.382 . S
C908 C912 1.390 . S
C908 C915 1.506 . S
C909 C910 1.398 . S
C909 C912 1.392 . S
C910 C909 1.398 . S
C910 C913 1.372 . S
C910 H920 0.931 . S
C911 C908 1.382 . S
C911 C913 1.390 . S
C911 H921 0.931 . S
C912 C908 1.390 . S
C912 C909 1.392 . S
C912 H922 0.930 . S
C913 C910 1.372 . S
C913 C911 1.390 . S
C913 H923 0.929 . S
C914 O894 1.255 . S
C914 O895 1.257 . S
C915 Eu851 2.787 . S
C915 O890 1.252 . S
C915 O893 1.268 . S
C915 C908 1.506 . S
H916 C899 0.931 . S
H917 C900 0.931 . S
H918 C901 0.929 . S
H919 C902 0.930 . S
H920 C910 0.931 . S
H921 C911 0.931 . S
H922 C912 0.930 . S
H923 C913 0.929 . S
Eu924 N953 2.600 . S
Eu924 N959 2.562 . S
Eu924 O968 2.462 . S
Eu924 O969 2.373 . S
Eu924 O971 2.432 . S
Eu924 O972 2.291 . S
Eu924 O976 2.335 . S
Eu924 O979 2.372 . S
Eu924 C988 2.787 . S
C925 N926 1.365 . S
C925 C928 1.405 . S
C925 C932 1.448 . S
N926 C925 1.365 . S
N926 C929 1.319 . S
N926 Eu935 2.600 . S
C927 C929 1.397 . S
C927 C930 1.367 . S
C927 H947 0.931 . S
C928 C925 1.405 . S
C928 C930 1.403 . S
C928 C934 1.439 . S
C929 N926 1.319 . S
C929 C927 1.397 . S
C929 H940 0.930 . S
C930 C927 1.367 . S
C930 C928 1.403 . S
C930 H951 0.929 . S
C931 C932 1.430 . S
C931 C933 1.387 . S
C931 C937 1.404 . S
C932 C925 1.448 . S
C932 C931 1.430 . S
C932 N936 1.351 . S
C933 C931 1.387 . S
C933 C934 1.374 . S
C933 H948 0.931 . S
C934 C928 1.439 . S
C934 C933 1.374 . S
C934 H949 0.931 . S
Eu935 N926 2.600 . S
Eu935 N936 2.562 . S
Eu935 O970 2.335 . S
Eu935 O973 2.372 . S
Eu935 O974 2.462 1_554 S
Eu935 O975 2.373 . S
Eu935 O977 2.432 1_554 S
Eu935 O978 2.291 . S
Eu935 C999 2.787 1_554 S
N936 C932 1.351 . S
N936 Eu935 2.562 . S
N936 C938 1.325 . S
C937 C931 1.404 . S
C937 C939 1.366 . S
C937 H945 0.930 . S
C938 N936 1.325 . S
C938 C939 1.416 . S
C938 H944 0.929 . S
C939 C937 1.366 . S
C939 C938 1.416 . S
C939 H941 0.930 . S
H940 C929 0.930 . S
H941 C939 0.930 . S
H942 C957 0.930 . S
H943 C964 0.930 . S
H944 C938 0.929 . S
H945 C937 0.930 . S
H946 C960 0.929 . S
H947 C927 0.931 . S
H948 C933 0.931 . S
H949 C934 0.931 . S
H950 C955 0.931 . S
H951 C930 0.929 . S
H952 C963 0.930 . S
N953 Eu924 2.600 . S
N953 C954 1.365 . S
N953 C957 1.319 . S
C954 N953 1.365 . S
C954 C956 1.405 . S
C954 C962 1.448 . S
C955 H950 0.931 . S
C955 C957 1.397 . S
C955 C958 1.367 . S
C956 C954 1.405 . S
C956 C958 1.403 . S
C956 C989 1.439 . S
C957 H942 0.930 . S
C957 N953 1.319 . S
C957 C955 1.397 . S
C958 C955 1.367 . S
C958 C956 1.403 . S
C958 H965 0.929 . S
N959 Eu924 2.562 . S
N959 C960 1.325 . S
N959 C962 1.351 . S
C960 H946 0.929 . S
C960 N959 1.325 . S
C960 C964 1.416 . S
C961 C962 1.430 . S
C961 C963 1.404 . S
C961 C990 1.387 . S
C962 C954 1.448 . S
C962 N959 1.351 . S
C962 C961 1.430 . S
C963 H952 0.930 . S
C963 C961 1.404 . S
C963 C964 1.366 . S
C964 H943 0.930 . S
C964 C960 1.416 . S
C964 C963 1.366 . S
H965 C958 0.929 . S
H966 C989 0.931 . S
H967 C990 0.931 . S
O968 Eu924 2.462 . S
O968 C988 1.252 . S
O969 Eu924 2.373 . S
O969 C980 1.249 . S
O970 Eu935 2.335 . S
O970 C980 1.264 . S
O971 Eu924 2.432 . S
O971 C988 1.268 . S
O972 Eu924 2.291 . S
O972 C987 1.255 . S
O973 Eu935 2.372 . S
O973 C987 1.257 . S
O974 Eu935 2.462 1_556 S
O974 C999 1.252 . S
O975 Eu935 2.373 . S
O975 C991 1.249 . S
O976 Eu924 2.335 . S
O976 C991 1.264 . S
O977 Eu935 2.432 1_556 S
O977 C999 1.268 . S
O978 Eu935 2.291 . S
O978 C998 1.255 . S
O979 Eu924 2.372 . S
O979 C998 1.257 . S
C980 O969 1.249 . S
C980 O970 1.264 . S
C981 C984 1.382 . S
C981 C986 1.390 . S
C981 C988 1.506 . S
C982 C983 1.398 . S
C982 C986 1.392 . S
C983 C982 1.398 . S
C983 C985 1.372 . S
C983 H1000 0.931 . S
C984 C981 1.382 . S
C984 C985 1.390 . S
C984 H1001 0.931 . S
C985 C983 1.372 . S
C985 C984 1.390 . S
C985 H1002 0.929 . S
C986 C981 1.390 . S
C986 C982 1.392 . S
C986 H1003 0.930 . S
C987 O972 1.255 . S
C987 O973 1.257 . S
C988 Eu924 2.787 . S
C988 O968 1.252 . S
C988 O971 1.268 . S
C988 C981 1.506 . S
C989 C956 1.439 . S
C989 H966 0.931 . S
C989 C990 1.374 . S
C990 C961 1.387 . S
C990 H967 0.931 . S
C990 C989 1.374 . S
C991 O975 1.249 . S
C991 O976 1.264 . S
C992 C995 1.382 . S
C992 C996 1.390 . S
C992 C999 1.506 . S
C993 C994 1.398 . S
C993 C996 1.392 . S
C994 C993 1.398 . S
C994 C997 1.372 . S
C994 H1004 0.931 . S
C995 C992 1.382 . S
C995 C997 1.390 . S
C995 H1005 0.931 . S
C996 C992 1.390 . S
C996 C993 1.392 . S
C996 H1006 0.930 . S
C997 C994 1.372 . S
C997 C995 1.390 . S
C997 H1007 0.929 . S
C998 O978 1.255 . S
C998 O979 1.257 . S
C999 Eu935 2.787 1_556 S
C999 O974 1.252 . S
C999 O977 1.268 . S
C999 C992 1.506 . S
H1000 C983 0.931 . S
H1001 C984 0.931 . S
H1002 C985 0.929 . S
H1003 C986 0.930 . S
H1004 C994 0.931 . S
H1005 C995 0.931 . S
H1006 C996 0.930 . S
H1007 C997 0.929 . S
H1008 C1016 0.950 . S
H1009 C1021 0.950 . S
H1010 C1018 0.950 . S
H1011 C1020 0.950 . S
H1012 C1022 0.950 . S
H1013 C1024 0.950 . S
H1014 C1026 0.950 . S
H1015 C1027 0.950 . S
C1016 H1008 0.950 . S
C1016 C1017 1.386 . S
C1016 C1018 1.391 . S
C1017 C1016 1.386 . S
C1017 C1021 1.393 . S
C1018 H1010 0.950 . S
C1018 C1016 1.391 . S
C1018 C1019 1.400 . S
C1019 C1018 1.400 . S
C1019 C1020 1.398 . S
C1019 C1025 1.491 . S
C1020 H1011 0.950 . S
C1020 C1019 1.398 . S
C1020 C1021 1.391 . S
C1021 H1009 0.950 . S
C1021 C1017 1.393 . S
C1021 C1020 1.391 . S
C1022 H1012 0.950 . S
C1022 C1023 1.386 . S
C1022 C1024 1.391 . S
C1023 C1022 1.386 . S
C1023 C1027 1.393 . S
C1024 H1013 0.950 . S
C1024 C1022 1.391 . S
C1024 C1025 1.400 . S
C1025 C1019 1.491 . S
C1025 C1024 1.400 . S
C1025 C1026 1.398 . S
C1026 H1014 0.950 . S
C1026 C1025 1.398 . S
C1026 C1027 1.391 . S
C1027 H1015 0.950 . S
C1027 C1023 1.393 . S
C1027 C1026 1.391 . S
H1028 C1036 0.950 . S
H1029 C1041 0.950 . S
H1030 C1038 0.950 . S
H1031 C1040 0.950 . S
H1032 C1042 0.950 . S
H1033 C1044 0.950 . S
H1034 C1046 0.950 . S
H1035 C1047 0.950 . S
C1036 H1028 0.950 . S
C1036 C1037 1.386 . S
C1036 C1038 1.391 . S
C1037 C1036 1.386 . S
C1037 C1041 1.393 . S
C1038 H1030 0.950 . S
C1038 C1036 1.391 . S
C1038 C1039 1.400 . S
C1039 C1038 1.400 . S
C1039 C1040 1.398 . S
C1039 C1045 1.491 . S
C1040 H1031 0.950 . S
C1040 C1039 1.398 . S
C1040 C1041 1.391 . S
C1041 H1029 0.950 . S
C1041 C1037 1.393 . S
C1041 C1040 1.391 . S
C1042 H1032 0.950 . S
C1042 C1043 1.386 . S
C1042 C1044 1.391 . S
C1043 C1042 1.386 . S
C1043 C1047 1.393 . S
C1044 H1033 0.950 . S
C1044 C1042 1.391 . S
C1044 C1045 1.400 . S
C1045 C1039 1.491 . S
C1045 C1044 1.400 . S
C1045 C1046 1.398 . S
C1046 H1034 0.950 . S
C1046 C1045 1.398 . S
C1046 C1047 1.391 . S
C1047 H1035 0.950 . S
C1047 C1043 1.393 . S
C1047 C1046 1.391 . S
H1048 C1056 0.950 . S
H1049 C1061 0.950 . S
H1050 C1058 0.950 . S
H1051 C1060 0.950 . S
H1052 C1062 0.950 . S
H1053 C1064 0.950 . S
H1054 C1066 0.950 . S
H1055 C1067 0.950 . S
C1056 H1048 0.950 . S
C1056 C1057 1.386 . S
C1056 C1058 1.391 . S
C1057 C1056 1.386 . S
C1057 C1061 1.393 . S
C1058 H1050 0.950 . S
C1058 C1056 1.391 . S
C1058 C1059 1.400 . S
C1059 C1058 1.400 . S
C1059 C1060 1.398 . S
C1059 C1065 1.491 . S
C1060 H1051 0.950 . S
C1060 C1059 1.398 . S
C1060 C1061 1.391 . S
C1061 H1049 0.950 . S
C1061 C1057 1.393 . S
C1061 C1060 1.391 . S
C1062 H1052 0.950 . S
C1062 C1063 1.386 . S
C1062 C1064 1.391 . S
C1063 C1062 1.386 . S
C1063 C1067 1.393 . S
C1064 H1053 0.950 . S
C1064 C1062 1.391 . S
C1064 C1065 1.400 . S
C1065 C1059 1.491 . S
C1065 C1064 1.400 . S
C1065 C1066 1.398 . S
C1066 H1054 0.950 . S
C1066 C1065 1.398 . S
C1066 C1067 1.391 . S
C1067 H1055 0.950 . S
C1067 C1063 1.393 . S
C1067 C1066 1.391 . S
H1068 C1076 0.950 . S
H1069 C1081 0.950 . S
H1070 C1078 0.950 . S
H1071 C1080 0.950 . S
H1072 C1082 0.950 . S
H1073 C1084 0.950 . S
H1074 C1086 0.950 . S
H1075 C1087 0.950 . S
C1076 H1068 0.950 . S
C1076 C1077 1.386 . S
C1076 C1078 1.391 . S
C1077 C1076 1.386 . S
C1077 C1081 1.393 . S
C1078 H1070 0.950 . S
C1078 C1076 1.391 . S
C1078 C1079 1.400 . S
C1079 C1078 1.400 . S
C1079 C1080 1.398 . S
C1079 C1085 1.491 . S
C1080 H1071 0.950 . S
C1080 C1079 1.398 . S
C1080 C1081 1.391 . S
C1081 H1069 0.950 . S
C1081 C1077 1.393 . S
C1081 C1080 1.391 . S
C1082 H1072 0.950 . S
C1082 C1083 1.386 . S
C1082 C1084 1.391 . S
C1083 C1082 1.386 . S
C1083 C1087 1.393 . S
C1084 H1073 0.950 . S
C1084 C1082 1.391 . S
C1084 C1085 1.400 . S
C1085 C1079 1.491 . S
C1085 C1084 1.400 . S
C1085 C1086 1.398 . S
C1086 H1074 0.950 . S
C1086 C1085 1.398 . S
C1086 C1087 1.391 . S
C1087 H1075 0.950 . S
C1087 C1083 1.393 . S
C1087 C1086 1.391 . S
H1088 C1096 0.950 . S
H1089 C1101 0.950 . S
H1090 C1098 0.950 . S
H1091 C1100 0.950 . S
H1092 C1102 0.950 . S
H1093 C1104 0.950 . S
H1094 C1106 0.950 . S
H1095 C1107 0.950 . S
C1096 H1088 0.950 . S
C1096 C1097 1.386 . S
C1096 C1098 1.391 . S
C1097 C1096 1.386 . S
C1097 C1101 1.393 . S
C1098 H1090 0.950 . S
C1098 C1096 1.391 . S
C1098 C1099 1.400 . S
C1099 C1098 1.400 . S
C1099 C1100 1.398 . S
C1099 C1105 1.491 . S
C1100 H1091 0.950 . S
C1100 C1099 1.398 . S
C1100 C1101 1.391 . S
C1101 H1089 0.950 . S
C1101 C1097 1.393 . S
C1101 C1100 1.391 . S
C1102 H1092 0.950 . S
C1102 C1103 1.386 . S
C1102 C1104 1.391 . S
C1103 C1102 1.386 . S
C1103 C1107 1.393 . S
C1104 H1093 0.950 . S
C1104 C1102 1.391 . S
C1104 C1105 1.400 . S
C1105 C1099 1.491 . S
C1105 C1104 1.400 . S
C1105 C1106 1.398 . S
C1106 H1094 0.950 . S
C1106 C1105 1.398 . S
C1106 C1107 1.391 . S
C1107 H1095 0.950 . S
C1107 C1103 1.393 . S
C1107 C1106 1.391 . S
H1108 C1116 0.950 . S
H1109 C1121 0.950 . S
H1110 C1118 0.950 . S
H1111 C1120 0.950 . S
H1112 C1122 0.950 . S
H1113 C1124 0.950 . S
H1114 C1126 0.950 . S
H1115 C1127 0.950 . S
C1116 H1108 0.950 . S
C1116 C1117 1.386 . S
C1116 C1118 1.391 . S
C1117 C1116 1.386 . S
C1117 C1121 1.393 . S
C1118 H1110 0.950 . S
C1118 C1116 1.391 . S
C1118 C1119 1.400 . S
C1119 C1118 1.400 . S
C1119 C1120 1.398 . S
C1119 C1125 1.491 . S
C1120 H1111 0.950 . S
C1120 C1119 1.398 . S
C1120 C1121 1.391 . S
C1121 H1109 0.950 . S
C1121 C1117 1.393 . S
C1121 C1120 1.391 . S
C1122 H1112 0.950 . S
C1122 C1123 1.386 . S
C1122 C1124 1.391 . S
C1123 C1122 1.386 . S
C1123 C1127 1.393 . S
C1124 H1113 0.950 . S
C1124 C1122 1.391 . S
C1124 C1125 1.400 . S
C1125 C1119 1.491 . S
C1125 C1124 1.400 . S
C1125 C1126 1.398 . S
C1126 H1114 0.950 . S
C1126 C1125 1.398 . S
C1126 C1127 1.391 . S
C1127 H1115 0.950 . S
C1127 C1123 1.393 . S
C1127 C1126 1.391 . S
H1128 C1136 0.950 . S
H1129 C1141 0.950 . S
H1130 C1138 0.950 . S
H1131 C1140 0.950 . S
H1132 C1142 0.950 . S
H1133 C1144 0.950 . S
H1134 C1146 0.950 . S
H1135 C1147 0.950 . S
C1136 H1128 0.950 . S
C1136 C1137 1.386 . S
C1136 C1138 1.391 . S
C1137 C1136 1.386 . S
C1137 C1141 1.393 . S
C1138 H1130 0.950 . S
C1138 C1136 1.391 . S
C1138 C1139 1.400 . S
C1139 C1138 1.400 . S
C1139 C1140 1.398 . S
C1139 C1145 1.491 1_556 S
C1140 H1131 0.950 . S
C1140 C1139 1.398 . S
C1140 C1141 1.391 . S
C1141 H1129 0.950 . S
C1141 C1137 1.393 . S
C1141 C1140 1.391 . S
C1142 H1132 0.950 . S
C1142 C1143 1.386 . S
C1142 C1144 1.391 . S
C1143 C1142 1.386 . S
C1143 C1147 1.393 . S
C1144 H1133 0.950 . S
C1144 C1142 1.391 . S
C1144 C1145 1.400 . S
C1145 C1139 1.491 1_554 S
C1145 C1144 1.400 . S
C1145 C1146 1.398 . S
C1146 H1134 0.950 . S
C1146 C1145 1.398 . S
C1146 C1147 1.391 . S
C1147 H1135 0.950 . S
C1147 C1143 1.393 . S
C1147 C1146 1.391 . S
H1148 C1156 0.950 . S
H1149 C1161 0.950 . S
H1150 C1158 0.950 . S
H1151 C1160 0.950 . S
H1152 C1162 0.950 . S
H1153 C1164 0.950 . S
H1154 C1166 0.950 . S
H1155 C1167 0.950 . S
C1156 H1148 0.950 . S
C1156 C1157 1.386 . S
C1156 C1158 1.391 . S
C1157 C1156 1.386 . S
C1157 C1161 1.393 . S
C1158 H1150 0.950 . S
C1158 C1156 1.391 . S
C1158 C1159 1.400 . S
C1159 C1158 1.400 . S
C1159 C1160 1.398 . S
C1159 C1165 1.491 . S
C1160 H1151 0.950 . S
C1160 C1159 1.398 . S
C1160 C1161 1.391 . S
C1161 H1149 0.950 . S
C1161 C1157 1.393 . S
C1161 C1160 1.391 . S
C1162 H1152 0.950 . S
C1162 C1163 1.386 . S
C1162 C1164 1.391 . S
C1163 C1162 1.386 . S
C1163 C1167 1.393 . S
C1164 H1153 0.950 . S
C1164 C1162 1.391 . S
C1164 C1165 1.400 . S
C1165 C1159 1.491 . S
C1165 C1164 1.400 . S
C1165 C1166 1.398 . S
C1166 H1154 0.950 . S
C1166 C1165 1.398 . S
C1166 C1167 1.391 . S
C1167 H1155 0.950 . S
C1167 C1163 1.393 . S
C1167 C1166 1.391 . S
H1168 C1176 0.950 . S
H1169 C1181 0.950 . S
H1170 C1178 0.950 . S
H1171 C1180 0.950 . S
H1172 C1182 0.950 . S
H1173 C1184 0.950 . S
H1174 C1186 0.950 . S
H1175 C1187 0.950 . S
C1176 H1168 0.950 . S
C1176 C1177 1.386 . S
C1176 C1178 1.391 . S
C1177 C1176 1.386 . S
C1177 C1181 1.393 . S
C1178 H1170 0.950 . S
C1178 C1176 1.391 . S
C1178 C1179 1.400 . S
C1179 C1178 1.400 . S
C1179 C1180 1.398 . S
C1179 C1185 1.491 . S
C1180 H1171 0.950 . S
C1180 C1179 1.398 . S
C1180 C1181 1.391 . S
C1181 H1169 0.950 . S
C1181 C1177 1.393 . S
C1181 C1180 1.391 . S
C1182 H1172 0.950 . S
C1182 C1183 1.386 . S
C1182 C1184 1.391 . S
C1183 C1182 1.386 . S
C1183 C1187 1.393 . S
C1184 H1173 0.950 . S
C1184 C1182 1.391 . S
C1184 C1185 1.400 . S
C1185 C1179 1.491 . S
C1185 C1184 1.400 . S
C1185 C1186 1.398 . S
C1186 H1174 0.950 . S
C1186 C1185 1.398 . S
C1186 C1187 1.391 . S
C1187 H1175 0.950 . S
C1187 C1183 1.393 . S
C1187 C1186 1.391 . S
H1188 C1196 0.950 . S
H1189 C1201 0.950 . S
H1190 C1198 0.950 . S
H1191 C1200 0.950 . S
H1192 C1202 0.950 . S
H1193 C1204 0.950 . S
H1194 C1206 0.950 . S
H1195 C1207 0.950 . S
C1196 H1188 0.950 . S
C1196 C1197 1.386 . S
C1196 C1198 1.391 . S
C1197 C1196 1.386 . S
C1197 C1201 1.393 . S
C1198 H1190 0.950 . S
C1198 C1196 1.391 . S
C1198 C1199 1.400 . S
C1199 C1198 1.400 . S
C1199 C1200 1.398 . S
C1199 C1205 1.491 1_556 S
C1200 H1191 0.950 . S
C1200 C1199 1.398 . S
C1200 C1201 1.391 . S
C1201 H1189 0.950 . S
C1201 C1197 1.393 . S
C1201 C1200 1.391 . S
C1202 H1192 0.950 . S
C1202 C1203 1.386 . S
C1202 C1204 1.391 . S
C1203 C1202 1.386 . S
C1203 C1207 1.393 . S
C1204 H1193 0.950 . S
C1204 C1202 1.391 . S
C1204 C1205 1.400 . S
C1205 C1199 1.491 1_554 S
C1205 C1204 1.400 . S
C1205 C1206 1.398 . S
C1206 H1194 0.950 . S
C1206 C1205 1.398 . S
C1206 C1207 1.391 . S
C1207 H1195 0.950 . S
C1207 C1203 1.393 . S
C1207 C1206 1.391 . S
H1208 C1216 0.950 . S
H1209 C1221 0.950 . S
H1210 C1218 0.950 . S
H1211 C1220 0.950 . S
H1212 C1222 0.950 . S
H1213 C1224 0.950 . S
H1214 C1226 0.950 . S
H1215 C1227 0.950 . S
C1216 H1208 0.950 . S
C1216 C1217 1.386 . S
C1216 C1218 1.391 . S
C1217 C1216 1.386 . S
C1217 C1221 1.393 . S
C1218 H1210 0.950 . S
C1218 C1216 1.391 . S
C1218 C1219 1.400 . S
C1219 C1218 1.400 . S
C1219 C1220 1.398 . S
C1219 C1225 1.491 . S
C1220 H1211 0.950 . S
C1220 C1219 1.398 . S
C1220 C1221 1.391 . S
C1221 H1209 0.950 . S
C1221 C1217 1.393 . S
C1221 C1220 1.391 . S
C1222 H1212 0.950 . S
C1222 C1223 1.386 . S
C1222 C1224 1.391 . S
C1223 C1222 1.386 . S
C1223 C1227 1.393 . S
C1224 H1213 0.950 . S
C1224 C1222 1.391 . S
C1224 C1225 1.400 . S
C1225 C1219 1.491 . S
C1225 C1224 1.400 . S
C1225 C1226 1.398 . S
C1226 H1214 0.950 . S
C1226 C1225 1.398 . S
C1226 C1227 1.391 . S
C1227 H1215 0.950 . S
C1227 C1223 1.393 . S
C1227 C1226 1.391 . S
H1228 C1236 0.950 . S
H1229 C1241 0.950 . S
H1230 C1238 0.950 . S
H1231 C1240 0.950 . S
H1232 C1242 0.950 . S
H1233 C1244 0.950 . S
H1234 C1246 0.950 . S
H1235 C1247 0.950 . S
C1236 H1228 0.950 . S
C1236 C1237 1.386 . S
C1236 C1238 1.391 . S
C1237 C1236 1.386 . S
C1237 C1241 1.393 . S
C1238 H1230 0.950 . S
C1238 C1236 1.391 . S
C1238 C1239 1.400 . S
C1239 C1238 1.400 . S
C1239 C1240 1.398 . S
C1239 C1245 1.491 . S
C1240 H1231 0.950 . S
C1240 C1239 1.398 . S
C1240 C1241 1.391 . S
C1241 H1229 0.950 . S
C1241 C1237 1.393 . S
C1241 C1240 1.391 . S
C1242 H1232 0.950 . S
C1242 C1243 1.386 . S
C1242 C1244 1.391 . S
C1243 C1242 1.386 . S
C1243 C1247 1.393 . S
C1244 H1233 0.950 . S
C1244 C1242 1.391 . S
C1244 C1245 1.400 . S
C1245 C1239 1.491 . S
C1245 C1244 1.400 . S
C1245 C1246 1.398 . S
C1246 H1234 0.950 . S
C1246 C1245 1.398 . S
C1246 C1247 1.391 . S
C1247 H1235 0.950 . S
C1247 C1243 1.393 . S
C1247 C1246 1.391 . S
H1248 C1256 0.950 . S
H1249 C1261 0.950 . S
H1250 C1258 0.950 1_554 S
H1251 C1260 0.950 . S
H1252 C1262 0.950 . S
H1253 C1264 0.950 1_556 S
H1254 C1266 0.950 . S
H1255 C1267 0.950 . S
C1256 H1248 0.950 . S
C1256 C1257 1.386 . S
C1256 C1258 1.391 . S
C1257 C1256 1.386 . S
C1257 C1261 1.393 . S
C1258 H1250 0.950 1_556 S
C1258 C1256 1.391 . S
C1258 C1259 1.400 . S
C1259 C1258 1.400 . S
C1259 C1260 1.398 1_565 S
C1259 C1265 1.491 1_566 S
C1260 H1251 0.950 . S
C1260 C1259 1.398 1_545 S
C1260 C1261 1.391 1_545 S
C1261 H1249 0.950 . S
C1261 C1257 1.393 . S
C1261 C1260 1.391 1_565 S
C1262 H1252 0.950 . S
C1262 C1263 1.386 . S
C1262 C1264 1.391 . S
C1263 C1262 1.386 . S
C1263 C1267 1.393 . S
C1264 H1253 0.950 1_554 S
C1264 C1262 1.391 . S
C1264 C1265 1.400 . S
C1265 C1259 1.491 1_544 S
C1265 C1264 1.400 . S
C1265 C1266 1.398 1_545 S
C1266 H1254 0.950 . S
C1266 C1265 1.398 1_565 S
C1266 C1267 1.391 1_565 S
C1267 H1255 0.950 . S
C1267 C1263 1.393 . S
C1267 C1266 1.391 1_545 S
H1268 C1276 0.950 . S
H1269 C1281 0.950 . S
H1270 C1278 0.950 . S
H1271 C1280 0.950 . S
H1272 C1282 0.950 . S
H1273 C1284 0.950 . S
H1274 C1286 0.950 . S
H1275 C1287 0.950 . S
C1276 H1268 0.950 . S
C1276 C1277 1.386 . S
C1276 C1278 1.391 . S
C1277 C1276 1.386 . S
C1277 C1281 1.393 . S
C1278 H1270 0.950 . S
C1278 C1276 1.391 . S
C1278 C1279 1.400 . S
C1279 C1278 1.400 . S
C1279 C1280 1.398 . S
C1279 C1285 1.491 . S
C1280 H1271 0.950 . S
C1280 C1279 1.398 . S
C1280 C1281 1.391 . S
C1281 H1269 0.950 . S
C1281 C1277 1.393 . S
C1281 C1280 1.391 . S
C1282 H1272 0.950 . S
C1282 C1283 1.386 . S
C1282 C1284 1.391 . S
C1283 C1282 1.386 . S
C1283 C1287 1.393 . S
C1284 H1273 0.950 . S
C1284 C1282 1.391 . S
C1284 C1285 1.400 . S
C1285 C1279 1.491 . S
C1285 C1284 1.400 . S
C1285 C1286 1.398 . S
C1286 H1274 0.950 . S
C1286 C1285 1.398 . S
C1286 C1287 1.391 . S
C1287 H1275 0.950 . S
C1287 C1283 1.393 . S
C1287 C1286 1.391 . S
H1288 C1296 0.950 . S
H1289 C1301 0.950 . S
H1290 C1298 0.950 . S
H1291 C1300 0.950 . S
H1292 C1302 0.950 . S
H1293 C1304 0.950 . S
H1294 C1306 0.950 . S
H1295 C1307 0.950 . S
C1296 H1288 0.950 . S
C1296 C1297 1.386 . S
C1296 C1298 1.391 . S
C1297 C1296 1.386 . S
C1297 C1301 1.393 . S
C1298 H1290 0.950 . S
C1298 C1296 1.391 . S
C1298 C1299 1.400 . S
C1299 C1298 1.400 . S
C1299 C1300 1.398 . S
C1299 C1305 1.491 1_455 S
C1300 H1291 0.950 . S
C1300 C1299 1.398 . S
C1300 C1301 1.391 . S
C1301 H1289 0.950 . S
C1301 C1297 1.393 . S
C1301 C1300 1.391 . S
C1302 H1292 0.950 . S
C1302 C1303 1.386 . S
C1302 C1304 1.391 . S
C1303 C1302 1.386 . S
C1303 C1307 1.393 . S
C1304 H1293 0.950 . S
C1304 C1302 1.391 . S
C1304 C1305 1.400 . S
C1305 C1299 1.491 1_655 S
C1305 C1304 1.400 . S
C1305 C1306 1.398 . S
C1306 H1294 0.950 . S
C1306 C1305 1.398 . S
C1306 C1307 1.391 . S
C1307 H1295 0.950 . S
C1307 C1303 1.393 . S
C1307 C1306 1.391 . S
H1308 C1316 0.950 . S
H1309 C1321 0.950 . S
H1310 C1318 0.950 . S
H1311 C1320 0.950 . S
H1312 C1322 0.950 . S
H1313 C1324 0.950 . S
H1314 C1326 0.950 . S
H1315 C1327 0.950 . S
C1316 H1308 0.950 . S
C1316 C1317 1.386 . S
C1316 C1318 1.391 . S
C1317 C1316 1.386 . S
C1317 C1321 1.393 . S
C1318 H1310 0.950 . S
C1318 C1316 1.391 . S
C1318 C1319 1.400 . S
C1319 C1318 1.400 . S
C1319 C1320 1.398 . S
C1319 C1325 1.491 1_564 S
C1320 H1311 0.950 . S
C1320 C1319 1.398 . S
C1320 C1321 1.391 . S
C1321 H1309 0.950 . S
C1321 C1317 1.393 . S
C1321 C1320 1.391 . S
C1322 H1312 0.950 . S
C1322 C1323 1.386 . S
C1322 C1324 1.391 . S
C1323 C1322 1.386 . S
C1323 C1327 1.393 . S
C1324 H1313 0.950 . S
C1324 C1322 1.391 . S
C1324 C1325 1.400 . S
C1325 C1319 1.491 1_546 S
C1325 C1324 1.400 . S
C1325 C1326 1.398 . S
C1326 H1314 0.950 . S
C1326 C1325 1.398 . S
C1326 C1327 1.391 . S
C1327 H1315 0.950 . S
C1327 C1323 1.393 . S
C1327 C1326 1.391 . S
H1328 C1336 0.950 . S
H1329 C1341 0.950 . S
H1330 C1338 0.950 . S
H1331 C1340 0.950 . S
H1332 C1342 0.950 . S
H1333 C1344 0.950 . S
H1334 C1346 0.950 . S
H1335 C1347 0.950 . S
C1336 H1328 0.950 . S
C1336 C1337 1.386 . S
C1336 C1338 1.391 . S
C1337 C1336 1.386 . S
C1337 C1341 1.393 . S
C1338 H1330 0.950 . S
C1338 C1336 1.391 . S
C1338 C1339 1.400 . S
C1339 C1338 1.400 . S
C1339 C1340 1.398 . S
C1339 C1345 1.491 . S
C1340 H1331 0.950 . S
C1340 C1339 1.398 . S
C1340 C1341 1.391 . S
C1341 H1329 0.950 . S
C1341 C1337 1.393 . S
C1341 C1340 1.391 . S
C1342 H1332 0.950 . S
C1342 C1343 1.386 . S
C1342 C1344 1.391 . S
C1343 C1342 1.386 . S
C1343 C1347 1.393 . S
C1344 H1333 0.950 . S
C1344 C1342 1.391 . S
C1344 C1345 1.400 . S
C1345 C1339 1.491 . S
C1345 C1344 1.400 . S
C1345 C1346 1.398 . S
C1346 H1334 0.950 . S
C1346 C1345 1.398 . S
C1346 C1347 1.391 . S
C1347 H1335 0.950 . S
C1347 C1343 1.393 . S
C1347 C1346 1.391 . S
H1348 C1356 0.950 . S
H1349 C1361 0.950 . S
H1350 C1358 0.950 1_655 S
H1351 C1360 0.950 . S
H1352 C1362 0.950 . S
H1353 C1364 0.950 1_455 S
H1354 C1366 0.950 . S
H1355 C1367 0.950 . S
C1356 H1348 0.950 . S
C1356 C1357 1.386 . S
C1356 C1358 1.391 . S
C1357 C1356 1.386 . S
C1357 C1361 1.393 . S
C1358 H1350 0.950 1_455 S
C1358 C1356 1.391 . S
C1358 C1359 1.400 . S
C1359 C1358 1.400 . S
C1359 C1360 1.398 . S
C1359 C1365 1.491 1_455 S
C1360 H1351 0.950 . S
C1360 C1359 1.398 . S
C1360 C1361 1.391 . S
C1361 H1349 0.950 . S
C1361 C1357 1.393 . S
C1361 C1360 1.391 . S
C1362 H1352 0.950 . S
C1362 C1363 1.386 . S
C1362 C1364 1.391 . S
C1363 C1362 1.386 . S
C1363 C1367 1.393 . S
C1364 H1353 0.950 1_655 S
C1364 C1362 1.391 . S
C1364 C1365 1.400 . S
C1365 C1359 1.491 1_655 S
C1365 C1364 1.400 . S
C1365 C1366 1.398 . S
C1366 H1354 0.950 . S
C1366 C1365 1.398 . S
C1366 C1367 1.391 . S
C1367 H1355 0.950 . S
C1367 C1363 1.393 . S
C1367 C1366 1.391 . S
H1368 C1376 0.950 . S
H1369 C1381 0.950 . S
H1370 C1378 0.950 . S
H1371 C1380 0.970 . S
H1372 C1382 0.950 . S
H1373 C1384 0.950 . S
H1374 C1386 0.970 . S
H1375 C1387 0.950 . S
C1376 H1368 0.950 . S
C1376 C1377 1.386 . S
C1376 C1378 1.391 . S
C1377 C1376 1.386 . S
C1377 C1381 1.393 . S
C1378 H1370 0.950 . S
C1378 C1376 1.391 . S
C1378 C1379 1.400 . S
C1379 C1378 1.400 . S
C1379 C1380 1.398 . S
C1379 C1385 1.491 1_545 S
C1380 H1371 0.970 . S
C1380 C1379 1.398 . S
C1380 C1381 1.391 . S
C1381 H1369 0.950 . S
C1381 C1377 1.393 . S
C1381 C1380 1.391 . S
C1382 H1372 0.950 . S
C1382 C1383 1.386 . S
C1382 C1384 1.391 . S
C1383 C1382 1.386 . S
C1383 C1387 1.393 . S
C1384 H1373 0.950 . S
C1384 C1382 1.391 . S
C1384 C1385 1.400 . S
C1385 C1379 1.491 1_565 S
C1385 C1384 1.400 . S
C1385 C1386 1.398 . S
C1386 H1374 0.970 . S
C1386 C1385 1.398 . S
C1386 C1387 1.391 . S
C1387 H1375 0.950 . S
C1387 C1383 1.393 . S
C1387 C1386 1.391 . S
H1388 C1396 0.950 . S
H1389 C1401 0.950 . S
H1390 C1398 0.950 . S
H1391 C1400 0.950 . S
H1392 C1402 0.950 . S
H1393 C1404 0.950 . S
H1394 C1406 0.950 . S
H1395 C1407 0.950 . S
C1396 H1388 0.950 . S
C1396 C1397 1.386 . S
C1396 C1398 1.391 . S
C1397 C1396 1.386 . S
C1397 C1401 1.393 . S
C1398 H1390 0.950 . S
C1398 C1396 1.391 . S
C1398 C1399 1.400 . S
C1399 C1398 1.400 . S
C1399 C1400 1.398 . S
C1399 C1405 1.491 . S
C1400 H1391 0.950 . S
C1400 C1399 1.398 . S
C1400 C1401 1.391 . S
C1401 H1389 0.950 . S
C1401 C1397 1.393 . S
C1401 C1400 1.391 . S
C1402 H1392 0.950 . S
C1402 C1403 1.386 . S
C1402 C1404 1.391 . S
C1403 C1402 1.386 . S
C1403 C1407 1.393 . S
C1404 H1393 0.950 . S
C1404 C1402 1.391 . S
C1404 C1405 1.400 . S
C1405 C1399 1.491 . S
C1405 C1404 1.400 . S
C1405 C1406 1.398 . S
C1406 H1394 0.950 . S
C1406 C1405 1.398 . S
C1406 C1407 1.391 . S
C1407 H1395 0.950 . S
C1407 C1403 1.393 . S
C1407 C1406 1.391 . S
H1408 C1416 0.950 . S
H1409 C1421 0.950 . S
H1410 C1418 0.950 1_455 S
H1411 C1420 0.950 . S
H1412 C1422 0.950 . S
H1413 C1424 0.950 1_655 S
H1414 C1426 0.950 . S
H1415 C1427 0.950 . S
C1416 H1408 0.950 . S
C1416 C1417 1.386 . S
C1416 C1418 1.391 . S
C1417 C1416 1.386 . S
C1417 C1421 1.393 . S
C1418 H1410 0.950 1_655 S
C1418 C1416 1.391 . S
C1418 C1419 1.400 . S
C1419 C1418 1.400 . S
C1419 C1420 1.398 . S
C1419 C1425 1.491 1_655 S
C1420 H1411 0.950 . S
C1420 C1419 1.398 . S
C1420 C1421 1.391 . S
C1421 H1409 0.950 . S
C1421 C1417 1.393 . S
C1421 C1420 1.391 . S
C1422 H1412 0.950 . S
C1422 C1423 1.386 . S
C1422 C1424 1.391 . S
C1423 C1422 1.386 . S
C1423 C1427 1.393 . S
C1424 H1413 0.950 1_455 S
C1424 C1422 1.391 . S
C1424 C1425 1.400 . S
C1425 C1419 1.491 1_455 S
C1425 C1424 1.400 . S
C1425 C1426 1.398 . S
C1426 H1414 0.950 . S
C1426 C1425 1.398 . S
C1426 C1427 1.391 . S
C1427 H1415 0.950 . S
C1427 C1423 1.393 . S
C1427 C1426 1.391 . S
H1428 C1436 0.950 . S
H1429 C1441 0.950 . S
H1430 C1438 0.950 . S
H1431 C1440 0.950 . S
H1432 C1442 0.950 . S
H1433 C1444 0.950 . S
H1434 C1446 0.950 . S
H1435 C1447 0.950 . S
C1436 H1428 0.950 . S
C1436 C1437 1.386 . S
C1436 C1438 1.391 . S
C1437 C1436 1.386 . S
C1437 C1441 1.393 . S
C1438 H1430 0.950 . S
C1438 C1436 1.391 . S
C1438 C1439 1.400 . S
C1439 C1438 1.400 . S
C1439 C1440 1.398 . S
C1439 C1445 1.491 1_455 S
C1440 H1431 0.950 . S
C1440 C1439 1.398 . S
C1440 C1441 1.391 . S
C1441 H1429 0.950 . S
C1441 C1437 1.393 . S
C1441 C1440 1.391 . S
C1442 H1432 0.950 . S
C1442 C1443 1.386 . S
C1442 C1444 1.391 . S
C1443 C1442 1.386 . S
C1443 C1447 1.393 . S
C1444 H1433 0.950 . S
C1444 C1442 1.391 . S
C1444 C1445 1.400 . S
C1445 C1439 1.491 1_655 S
C1445 C1444 1.400 . S
C1445 C1446 1.398 . S
C1446 H1434 0.950 . S
C1446 C1445 1.398 . S
C1446 C1447 1.391 . S
C1447 H1435 0.950 . S
C1447 C1443 1.393 . S
C1447 C1446 1.391 . S
H1448 C1456 0.950 . S
H1449 C1461 0.950 . S
H1450 C1458 0.950 1_545 S
H1451 C1460 0.950 . S
H1452 C1462 0.950 . S
H1453 C1464 0.950 1_565 S
H1454 C1466 0.950 . S
H1455 C1467 0.950 . S
C1456 H1448 0.950 . S
C1456 C1457 1.386 . S
C1456 C1458 1.391 . S
C1457 C1456 1.386 . S
C1457 C1461 1.393 . S
C1458 H1450 0.950 1_565 S
C1458 C1456 1.391 . S
C1458 C1459 1.400 . S
C1459 C1458 1.400 . S
C1459 C1460 1.398 . S
C1459 C1465 1.491 1_565 S
C1460 H1451 0.950 . S
C1460 C1459 1.398 . S
C1460 C1461 1.391 . S
C1461 H1449 0.950 . S
C1461 C1457 1.393 . S
C1461 C1460 1.391 . S
C1462 H1452 0.950 . S
C1462 C1463 1.386 . S
C1462 C1464 1.391 . S
C1463 C1462 1.386 . S
C1463 C1467 1.393 . S
C1464 H1453 0.950 1_545 S
C1464 C1462 1.391 . S
C1464 C1465 1.400 . S
C1465 C1459 1.491 1_545 S
C1465 C1464 1.400 . S
C1465 C1466 1.398 . S
C1466 H1454 0.950 . S
C1466 C1465 1.398 . S
C1466 C1467 1.391 . S
C1467 H1455 0.950 . S
C1467 C1463 1.393 . S
C1467 C1466 1.391 . S
H1468 C1476 0.950 . S
H1469 C1481 0.950 . S
H1470 C1478 0.950 . S
H1471 C1480 0.950 . S
H1472 C1482 0.950 . S
H1473 C1484 0.950 . S
H1474 C1486 0.950 . S
H1475 C1487 0.950 . S
C1476 H1468 0.950 . S
C1476 C1477 1.386 . S
C1476 C1478 1.391 . S
C1477 C1476 1.386 . S
C1477 C1481 1.393 . S
C1478 H1470 0.950 . S
C1478 C1476 1.391 . S
C1478 C1479 1.400 . S
C1479 C1478 1.400 . S
C1479 C1480 1.398 . S
C1479 C1485 1.491 . S
C1480 H1471 0.950 . S
C1480 C1479 1.398 . S
C1480 C1481 1.391 . S
C1481 H1469 0.950 . S
C1481 C1477 1.393 . S
C1481 C1480 1.391 . S
C1482 H1472 0.950 . S
C1482 C1483 1.386 . S
C1482 C1484 1.391 . S
C1483 C1482 1.386 . S
C1483 C1487 1.393 . S
C1484 H1473 0.950 . S
C1484 C1482 1.391 . S
C1484 C1485 1.400 . S
C1485 C1479 1.491 . S
C1485 C1484 1.400 . S
C1485 C1486 1.398 . S
C1486 H1474 0.950 . S
C1486 C1485 1.398 . S
C1486 C1487 1.391 . S
C1487 H1475 0.950 . S
C1487 C1483 1.393 . S
C1487 C1486 1.391 . S
H1488 C1496 0.950 . S
H1489 C1501 0.950 . S
H1490 C1498 0.950 . S
H1491 C1500 0.950 1_545 S
H1492 C1502 0.950 . S
H1493 C1504 0.950 . S
H1494 C1506 0.950 1_565 S
H1495 C1507 0.950 . S
C1496 H1488 0.950 . S
C1496 C1497 1.386 . S
C1496 C1498 1.391 . S
C1497 C1496 1.386 . S
C1497 C1501 1.393 . S
C1498 H1490 0.950 . S
C1498 C1496 1.391 . S
C1498 C1499 1.400 . S
C1499 C1498 1.400 . S
C1499 C1500 1.398 . S
C1499 C1505 1.491 1_565 S
C1500 H1491 0.950 1_565 S
C1500 C1499 1.398 . S
C1500 C1501 1.391 . S
C1501 H1489 0.950 . S
C1501 C1497 1.393 . S
C1501 C1500 1.391 . S
C1502 H1492 0.950 . S
C1502 C1503 1.386 . S
C1502 C1504 1.391 . S
C1503 C1502 1.386 . S
C1503 C1507 1.393 . S
C1504 H1493 0.950 . S
C1504 C1502 1.391 . S
C1504 C1505 1.400 . S
C1505 C1499 1.491 1_545 S
C1505 C1504 1.400 . S
C1505 C1506 1.398 . S
C1506 H1494 0.950 1_545 S
C1506 C1505 1.398 . S
C1506 C1507 1.391 . S
C1507 H1495 0.950 . S
C1507 C1503 1.393 . S
C1507 C1506 1.391 . S
H1508 C1516 0.950 . S
H1509 C1521 0.950 . S
H1510 C1518 0.950 . S
H1511 C1520 0.950 . S
H1512 C1522 0.950 . S
H1513 C1524 0.950 . S
H1514 C1526 0.950 . S
H1515 C1527 0.950 . S
C1516 H1508 0.950 . S
C1516 C1517 1.386 . S
C1516 C1518 1.391 . S
C1517 C1516 1.386 . S
C1517 C1521 1.393 . S
C1518 H1510 0.950 . S
C1518 C1516 1.391 . S
C1518 C1519 1.400 . S
C1519 C1518 1.400 . S
C1519 C1520 1.398 . S
C1519 C1525 1.491 . S
C1520 H1511 0.950 . S
C1520 C1519 1.398 . S
C1520 C1521 1.391 . S
C1521 H1509 0.950 . S
C1521 C1517 1.393 . S
C1521 C1520 1.391 . S
C1522 H1512 0.950 . S
C1522 C1523 1.386 . S
C1522 C1524 1.391 . S
C1523 C1522 1.386 . S
C1523 C1527 1.393 . S
C1524 H1513 0.950 . S
C1524 C1522 1.391 . S
C1524 C1525 1.400 . S
C1525 C1519 1.491 . S
C1525 C1524 1.400 . S
C1525 C1526 1.398 . S
C1526 H1514 0.950 . S
C1526 C1525 1.398 . S
C1526 C1527 1.391 . S
C1527 H1515 0.950 . S
C1527 C1523 1.393 . S
C1527 C1526 1.391 . S
H1528 C1536 0.950 . S
H1529 C1541 0.950 . S
H1530 C1538 0.950 1_455 S
H1531 C1540 0.950 . S
H1532 C1542 0.950 . S
H1533 C1544 0.950 1_655 S
H1534 C1546 0.950 . S
H1535 C1547 0.950 . S
C1536 H1528 0.950 . S
C1536 C1537 1.386 . S
C1536 C1538 1.391 . S
C1537 C1536 1.386 . S
C1537 C1541 1.393 . S
C1538 H1530 0.950 1_655 S
C1538 C1536 1.391 . S
C1538 C1539 1.400 . S
C1539 C1538 1.400 . S
C1539 C1540 1.398 . S
C1539 C1545 1.491 1_655 S
C1540 H1531 0.950 . S
C1540 C1539 1.398 . S
C1540 C1541 1.391 . S
C1541 H1529 0.950 . S
C1541 C1537 1.393 . S
C1541 C1540 1.391 . S
C1542 H1532 0.950 . S
C1542 C1543 1.386 . S
C1542 C1544 1.391 . S
C1543 C1542 1.386 . S
C1543 C1547 1.393 . S
C1544 H1533 0.950 1_455 S
C1544 C1542 1.391 . S
C1544 C1545 1.400 . S
C1545 C1539 1.491 1_455 S
C1545 C1544 1.400 . S
C1545 C1546 1.398 . S
C1546 H1534 0.950 . S
C1546 C1545 1.398 . S
C1546 C1547 1.391 . S
C1547 H1535 0.950 . S
C1547 C1543 1.393 . S
C1547 C1546 1.391 . S
H1548 C1556 0.950 . S
H1549 C1561 0.950 . S
H1550 C1558 0.950 . S
H1551 C1560 0.950 . S
H1552 C1562 0.950 . S
H1553 C1564 0.950 . S
H1554 C1566 0.950 . S
H1555 C1567 0.950 . S
C1556 H1548 0.950 . S
C1556 C1557 1.386 . S
C1556 C1558 1.391 . S
C1557 C1556 1.386 . S
C1557 C1561 1.393 . S
C1558 H1550 0.950 . S
C1558 C1556 1.391 . S
C1558 C1559 1.400 . S
C1559 C1558 1.400 . S
C1559 C1560 1.398 . S
C1559 C1565 1.491 1_545 S
C1560 H1551 0.950 . S
C1560 C1559 1.398 . S
C1560 C1561 1.391 . S
C1561 H1549 0.950 . S
C1561 C1557 1.393 . S
C1561 C1560 1.391 . S
C1562 H1552 0.950 . S
C1562 C1563 1.386 . S
C1562 C1564 1.391 . S
C1563 C1562 1.386 . S
C1563 C1567 1.393 . S
C1564 H1553 0.950 . S
C1564 C1562 1.391 . S
C1564 C1565 1.400 . S
C1565 C1559 1.491 1_565 S
C1565 C1564 1.400 . S
C1565 C1566 1.398 . S
C1566 H1554 0.950 . S
C1566 C1565 1.398 . S
C1566 C1567 1.391 . S
C1567 H1555 0.950 . S
C1567 C1563 1.393 . S
C1567 C1566 1.391 . S
H1568 C1576 0.950 . S
H1569 C1581 0.950 . S
H1570 C1578 0.950 . S
H1571 C1580 0.950 . S
H1572 C1582 0.950 . S
H1573 C1584 0.950 . S
H1574 C1586 0.950 . S
H1575 C1587 0.950 . S
C1576 H1568 0.950 . S
C1576 C1577 1.386 . S
C1576 C1578 1.391 . S
C1577 C1576 1.386 . S
C1577 C1581 1.393 . S
C1578 H1570 0.950 . S
C1578 C1576 1.391 . S
C1578 C1579 1.400 . S
C1579 C1578 1.400 . S
C1579 C1580 1.398 . S
C1579 C1585 1.491 . S
C1580 H1571 0.950 . S
C1580 C1579 1.398 . S
C1580 C1581 1.391 . S
C1581 H1569 0.950 . S
C1581 C1577 1.393 . S
C1581 C1580 1.391 . S
C1582 H1572 0.950 . S
C1582 C1583 1.386 . S
C1582 C1584 1.391 . S
C1583 C1582 1.386 . S
C1583 C1587 1.393 . S
C1584 H1573 0.950 . S
C1584 C1582 1.391 . S
C1584 C1585 1.400 . S
C1585 C1579 1.491 . S
C1585 C1584 1.400 . S
C1585 C1586 1.398 . S
C1586 H1574 0.950 . S
C1586 C1585 1.398 . S
C1586 C1587 1.391 . S
C1587 H1575 0.950 . S
C1587 C1583 1.393 . S
C1587 C1586 1.391 . S
H1588 C1596 0.950 . S
H1589 C1601 0.950 . S
H1590 C1598 0.950 . S
H1591 C1600 0.919 1_655 S
H1592 C1602 0.950 . S
H1593 C1604 0.950 . S
H1594 C1606 0.916 1_455 S
H1595 C1607 0.950 . S
C1596 H1588 0.950 . S
C1596 C1597 1.386 . S
C1596 C1598 1.391 . S
C1597 C1596 1.386 . S
C1597 C1601 1.393 . S
C1598 H1590 0.950 . S
C1598 C1596 1.391 . S
C1598 C1599 1.400 . S
C1599 C1598 1.400 . S
C1599 C1600 1.398 . S
C1599 C1605 1.491 1_455 S
C1600 H1591 0.919 1_455 S
C1600 C1599 1.398 . S
C1600 C1601 1.391 . S
C1601 H1589 0.950 . S
C1601 C1597 1.393 . S
C1601 C1600 1.391 . S
C1602 H1592 0.950 . S
C1602 C1603 1.386 . S
C1602 C1604 1.391 . S
C1603 C1602 1.386 . S
C1603 C1607 1.393 . S
C1604 H1593 0.950 . S
C1604 C1602 1.391 . S
C1604 C1605 1.400 . S
C1605 C1599 1.491 1_655 S
C1605 C1604 1.400 . S
C1605 C1606 1.398 . S
C1606 H1594 0.916 1_655 S
C1606 C1605 1.398 . S
C1606 C1607 1.391 . S
C1607 H1595 0.950 . S
C1607 C1603 1.393 . S
C1607 C1606 1.391 . S
H1608 C1616 0.950 . S
H1609 C1621 0.950 . S
H1610 C1618 0.950 . S
H1611 C1620 0.950 . S
H1612 C1622 0.950 . S
H1613 C1624 0.950 . S
H1614 C1626 0.950 . S
H1615 C1627 0.950 . S
C1616 H1608 0.950 . S
C1616 C1617 1.386 . S
C1616 C1618 1.391 . S
C1617 C1616 1.386 . S
C1617 C1621 1.393 . S
C1618 H1610 0.950 . S
C1618 C1616 1.391 . S
C1618 C1619 1.400 . S
C1619 C1618 1.400 . S
C1619 C1620 1.398 . S
C1619 C1625 1.491 . S
C1620 H1611 0.950 . S
C1620 C1619 1.398 . S
C1620 C1621 1.391 . S
C1621 H1609 0.950 . S
C1621 C1617 1.393 . S
C1621 C1620 1.391 . S
C1622 H1612 0.950 . S
C1622 C1623 1.386 . S
C1622 C1624 1.391 . S
C1623 C1622 1.386 . S
C1623 C1627 1.393 . S
C1624 H1613 0.950 . S
C1624 C1622 1.391 . S
C1624 C1625 1.400 . S
C1625 C1619 1.491 . S
C1625 C1624 1.400 . S
C1625 C1626 1.398 . S
C1626 H1614 0.950 . S
C1626 C1625 1.398 . S
C1626 C1627 1.391 . S
C1627 H1615 0.950 . S
C1627 C1623 1.393 . S
C1627 C1626 1.391 . S
H1628 C1636 0.950 . S
H1629 C1641 0.950 . S
H1630 C1638 0.950 . S
H1631 C1640 0.950 . S
H1632 C1642 0.950 . S
H1633 C1644 0.950 . S
H1634 C1646 0.950 . S
H1635 C1647 0.950 . S
C1636 H1628 0.950 . S
C1636 C1637 1.386 . S
C1636 C1638 1.391 . S
C1637 C1636 1.386 . S
C1637 C1641 1.393 . S
C1638 H1630 0.950 . S
C1638 C1636 1.391 . S
C1638 C1639 1.400 . S
C1639 C1638 1.400 . S
C1639 C1640 1.398 . S
C1639 C1645 1.491 . S
C1640 H1631 0.950 . S
C1640 C1639 1.398 . S
C1640 C1641 1.391 . S
C1641 H1629 0.950 . S
C1641 C1637 1.393 . S
C1641 C1640 1.391 . S
C1642 H1632 0.950 . S
C1642 C1643 1.386 . S
C1642 C1644 1.391 . S
C1643 C1642 1.386 . S
C1643 C1647 1.393 . S
C1644 H1633 0.950 . S
C1644 C1642 1.391 . S
C1644 C1645 1.400 . S
C1645 C1639 1.491 . S
C1645 C1644 1.400 . S
C1645 C1646 1.398 . S
C1646 H1634 0.950 . S
C1646 C1645 1.398 . S
C1646 C1647 1.391 . S
C1647 H1635 0.950 . S
C1647 C1643 1.393 . S
C1647 C1646 1.391 . S
H1648 C1656 0.950 . S
H1649 C1661 0.950 . S
H1650 C1658 0.950 . S
H1651 C1660 0.950 . S
H1652 C1662 0.950 . S
H1653 C1664 0.950 . S
H1654 C1666 0.950 . S
H1655 C1667 0.950 . S
C1656 H1648 0.950 . S
C1656 C1657 1.386 . S
C1656 C1658 1.391 . S
C1657 C1656 1.386 . S
C1657 C1661 1.393 . S
C1658 H1650 0.950 . S
C1658 C1656 1.391 . S
C1658 C1659 1.400 . S
C1659 C1658 1.400 . S
C1659 C1660 1.398 . S
C1659 C1665 1.491 . S
C1660 H1651 0.950 . S
C1660 C1659 1.398 . S
C1660 C1661 1.391 . S
C1661 H1649 0.950 . S
C1661 C1657 1.393 . S
C1661 C1660 1.391 . S
C1662 H1652 0.950 . S
C1662 C1663 1.386 . S
C1662 C1664 1.391 . S
C1663 C1662 1.386 . S
C1663 C1667 1.393 . S
C1664 H1653 0.950 . S
C1664 C1662 1.391 . S
C1664 C1665 1.400 . S
C1665 C1659 1.491 . S
C1665 C1664 1.400 . S
C1665 C1666 1.398 . S
C1666 H1654 0.950 . S
C1666 C1665 1.398 . S
C1666 C1667 1.391 . S
C1667 H1655 0.950 . S
C1667 C1663 1.393 . S
C1667 C1666 1.391 . S
H1668 C1676 0.950 . S
H1669 C1681 0.950 . S
H1670 C1678 0.950 . S
H1671 C1680 0.950 . S
H1672 C1682 0.950 . S
H1673 C1684 0.950 . S
H1674 C1686 0.950 . S
H1675 C1687 0.950 . S
C1676 H1668 0.950 . S
C1676 C1677 1.386 . S
C1676 C1678 1.391 . S
C1677 C1676 1.386 . S
C1677 C1681 1.393 . S
C1678 H1670 0.950 . S
C1678 C1676 1.391 . S
C1678 C1679 1.400 . S
C1679 C1678 1.400 . S
C1679 C1680 1.398 . S
C1679 C1685 1.491 . S
C1680 H1671 0.950 . S
C1680 C1679 1.398 . S
C1680 C1681 1.391 . S
C1681 H1669 0.950 . S
C1681 C1677 1.393 . S
C1681 C1680 1.391 . S
C1682 H1672 0.950 . S
C1682 C1683 1.386 . S
C1682 C1684 1.391 . S
C1683 C1682 1.386 . S
C1683 C1687 1.393 . S
C1684 H1673 0.950 . S
C1684 C1682 1.391 . S
C1684 C1685 1.400 . S
C1685 C1679 1.491 . S
C1685 C1684 1.400 . S
C1685 C1686 1.398 . S
C1686 H1674 0.950 . S
C1686 C1685 1.398 . S
C1686 C1687 1.391 . S
C1687 H1675 0.950 . S
C1687 C1683 1.393 . S
C1687 C1686 1.391 . S
H1688 C1696 0.950 . S
H1689 C1701 0.950 . S
H1690 C1698 0.950 . S
H1691 C1700 0.950 . S
H1692 C1702 0.950 . S
H1693 C1704 0.950 . S
H1694 C1706 0.950 . S
H1695 C1707 0.950 . S
C1696 H1688 0.950 . S
C1696 C1697 1.386 . S
C1696 C1698 1.391 . S
C1697 C1696 1.386 . S
C1697 C1701 1.393 . S
C1698 H1690 0.950 . S
C1698 C1696 1.391 . S
C1698 C1699 1.400 . S
C1699 C1698 1.400 . S
C1699 C1700 1.398 . S
C1699 C1705 1.491 . S
C1700 H1691 0.950 . S
C1700 C1699 1.398 . S
C1700 C1701 1.391 . S
C1701 H1689 0.950 . S
C1701 C1697 1.393 . S
C1701 C1700 1.391 . S
C1702 H1692 0.950 . S
C1702 C1703 1.386 . S
C1702 C1704 1.391 . S
C1703 C1702 1.386 . S
C1703 C1707 1.393 . S
C1704 H1693 0.950 . S
C1704 C1702 1.391 . S
C1704 C1705 1.400 . S
C1705 C1699 1.491 . S
C1705 C1704 1.400 . S
C1705 C1706 1.398 . S
C1706 H1694 0.950 . S
C1706 C1705 1.398 . S
C1706 C1707 1.391 . S
C1707 H1695 0.950 . S
C1707 C1703 1.393 . S
C1707 C1706 1.391 . S
H1708 C1716 0.950 . S
H1709 C1721 0.950 . S
H1710 C1718 0.950 . S
H1711 C1720 0.950 . S
H1712 C1722 0.950 . S
H1713 C1724 0.950 . S
H1714 C1726 0.950 . S
H1715 C1727 0.950 . S
C1716 H1708 0.950 . S
C1716 C1717 1.386 . S
C1716 C1718 1.391 . S
C1717 C1716 1.386 . S
C1717 C1721 1.393 . S
C1718 H1710 0.950 . S
C1718 C1716 1.391 . S
C1718 C1719 1.400 . S
C1719 C1718 1.400 . S
C1719 C1720 1.398 . S
C1719 C1725 1.491 . S
C1720 H1711 0.950 . S
C1720 C1719 1.398 . S
C1720 C1721 1.391 . S
C1721 H1709 0.950 . S
C1721 C1717 1.393 . S
C1721 C1720 1.391 . S
C1722 H1712 0.950 . S
C1722 C1723 1.386 . S
C1722 C1724 1.391 . S
C1723 C1722 1.386 . S
C1723 C1727 1.393 . S
C1724 H1713 0.950 . S
C1724 C1722 1.391 . S
C1724 C1725 1.400 . S
C1725 C1719 1.491 . S
C1725 C1724 1.400 . S
C1725 C1726 1.398 . S
C1726 H1714 0.950 . S
C1726 C1725 1.398 . S
C1726 C1727 1.391 . S
C1727 H1715 0.950 . S
C1727 C1723 1.393 . S
C1727 C1726 1.391 . S
C1017 C63 1.097 . S
C1023 C735 1.099 . S
C1037 C147 1.100 . S
C1043 C819 1.097 . S
C1057 C231 1.101 . S
C1063 C903 1.101 . S
C1077 C987 1.097 . S
C1083 C315 1.098 . S
C1097 C399 1.097 . S
C1103 C567 1.100 . S
C1117 C651 1.097 . S
C1123 C483 1.098 . S
C1137 C898 1.598 . S
C1143 C58 1.580 . S
C1157 C982 1.566 . S
C1163 C142 1.560 . S
C1177 C226 1.597 . S
C1183 C562 1.581 . S
C1197 C646 1.580 . S
C1203 C310 1.554 . S
C1217 C730 1.599 . S
C1223 C394 1.573 . S
C1237 C478 1.597 . S
C1243 C814 1.581 . S
C1257 C655 4.548 . S
C1263 C67 4.552 . S
C1277 C739 4.550 . S
C1283 C151 4.550 . S
C1297 C823 4.550 . S
C1303 C235 4.551 . S
C1317 C319 4.549 . S
C1323 C907 4.551 . S
C1337 C403 4.550 . S
C1343 C991 4.551 . S
C1357 C487 4.551 . S
C1363 C571 4.549 . S
C1377 C74 0.558 . S
C1383 C326 0.506 . S
C1397 C158 0.565 . S
C1403 C410 0.496 . S
C1417 C242 0.493 . S
C1423 C494 0.565 . S
C1437 C830 0.528 . S
C1443 C578 0.538 . S
C1457 C662 0.494 . S
C1463 C914 0.563 . S
C1477 C998 0.554 . S
C1483 C746 0.511 . S
C1497 C657 0.584 . S
C1503 C69 0.614 . S
C1517 C741 0.618 . S
C1523 C153 0.566 . S
C1537 C237 0.619 . S
C1543 C825 0.569 . S
C1557 C909 0.587 . S
C1563 C321 0.577 . S
C1577 C993 0.616 . S
C1583 C405 0.563 . S
C1597 C489 0.566 . S
C1603 C573 0.602 . S
C1617 C56 3.522 . S
C1623 C896 3.511 . S
C1637 C140 3.517 . S
C1643 C980 3.514 1_556 S
C1657 C224 3.514 1_554 S
C1663 C560 3.517 . S
C1677 C308 3.515 . S
C1683 C644 3.516 . S
C1697 C392 3.514 . S
C1703 C728 3.517 1_556 S
C1717 C812 3.521 . S
C1723 C476 3.512 1_554 S
