# Generated by pormake.
# Topology atn, (4)-cn, num edge types: 1
# Building blocks:
#     Node 0, Type 0, BuildingBlock: KUFVIS_clean_sbu_0, # of connection points: 4
#     Node 1, Type 0, BuildingBlock: KUFVIS_clean_sbu_0, # of connection points: 4
#     Node 2, Type 0, BuildingBlock: KUFVIS_clean_sbu_0, # of connection points: 4
#     Node 3, Type 0, BuildingBlock: KUFVIS_clean_sbu_0, # of connection points: 4
#     Node 4, Type 0, BuildingBlock: KUFVIS_clean_sbu_0, # of connection points: 4
#     Node 5, Type 0, BuildingBlock: KUFVIS_clean_sbu_0, # of connection points: 4
#     Node 6, Type 0, BuildingBlock: KUFVIS_clean_sbu_0, # of connection points: 4
#     Node 7, Type 0, BuildingBlock: KUFVIS_clean_sbu_0, # of connection points: 4
#     Node 8, Type 0, BuildingBlock: KUFVIS_clean_sbu_0, # of connection points: 4
#     Node 9, Type 0, BuildingBlock: KUFVIS_clean_sbu_0, # of connection points: 4
#     Node 10, Type 0, BuildingBlock: KUFVIS_clean_sbu_0, # of connection points: 4
#     Node 11, Type 0, BuildingBlock: KUFVIS_clean_sbu_0, # of connection points: 4
#     Node 12, Type 0, BuildingBlock: KUFVIS_clean_sbu_0, # of connection points: 4
#     Node 13, Type 0, BuildingBlock: KUFVIS_clean_sbu_0, # of connection points: 4
#     Node 14, Type 0, BuildingBlock: KUFVIS_clean_sbu_0, # of connection points: 4
#     Node 15, Type 0, BuildingBlock: KUFVIS_clean_sbu_0, # of connection points: 4
#     Edge 16, Type (0, 0), BuildingBlock: TEMPAE_clean_linker_10, # of connection points: 2
#     Edge 17, Type (0, 0), BuildingBlock: TEMPAE_clean_linker_10, # of connection points: 2
#     Edge 18, Type (0, 0), BuildingBlock: TEMPAE_clean_linker_10, # of connection points: 2
#     Edge 19, Type (0, 0), BuildingBlock: TEMPAE_clean_linker_10, # of connection points: 2
#     Edge 20, Type (0, 0), BuildingBlock: TEMPAE_clean_linker_10, # of connection points: 2
#     Edge 21, Type (0, 0), BuildingBlock: TEMPAE_clean_linker_10, # of connection points: 2
#     Edge 22, Type (0, 0), BuildingBlock: TEMPAE_clean_linker_10, # of connection points: 2
#     Edge 23, Type (0, 0), BuildingBlock: TEMPAE_clean_linker_10, # of connection points: 2
#     Edge 24, Type (0, 0), BuildingBlock: TEMPAE_clean_linker_10, # of connection points: 2
#     Edge 25, Type (0, 0), BuildingBlock: TEMPAE_clean_linker_10, # of connection points: 2
#     Edge 26, Type (0, 0), BuildingBlock: TEMPAE_clean_linker_10, # of connection points: 2
#     Edge 27, Type (0, 0), BuildingBlock: TEMPAE_clean_linker_10, # of connection points: 2
#     Edge 28, Type (0, 0), BuildingBlock: TEMPAE_clean_linker_10, # of connection points: 2
#     Edge 29, Type (0, 0), BuildingBlock: TEMPAE_clean_linker_10, # of connection points: 2
#     Edge 30, Type (0, 0), BuildingBlock: TEMPAE_clean_linker_10, # of connection points: 2
#     Edge 31, Type (0, 0), BuildingBlock: TEMPAE_clean_linker_10, # of connection points: 2
#     Edge 32, Type (0, 0), BuildingBlock: TEMPAE_clean_linker_10, # of connection points: 2
#     Edge 33, Type (0, 0), BuildingBlock: TEMPAE_clean_linker_10, # of connection points: 2
#     Edge 34, Type (0, 0), BuildingBlock: TEMPAE_clean_linker_10, # of connection points: 2
#     Edge 35, Type (0, 0), BuildingBlock: TEMPAE_clean_linker_10, # of connection points: 2
#     Edge 36, Type (0, 0), BuildingBlock: TEMPAE_clean_linker_10, # of connection points: 2
#     Edge 37, Type (0, 0), BuildingBlock: TEMPAE_clean_linker_10, # of connection points: 2
#     Edge 38, Type (0, 0), BuildingBlock: TEMPAE_clean_linker_10, # of connection points: 2
#     Edge 39, Type (0, 0), BuildingBlock: TEMPAE_clean_linker_10, # of connection points: 2
#     Edge 40, Type (0, 0), BuildingBlock: TEMPAE_clean_linker_10, # of connection points: 2
#     Edge 41, Type (0, 0), BuildingBlock: TEMPAE_clean_linker_10, # of connection points: 2
#     Edge 42, Type (0, 0), BuildingBlock: TEMPAE_clean_linker_10, # of connection points: 2
#     Edge 43, Type (0, 0), BuildingBlock: TEMPAE_clean_linker_10, # of connection points: 2
#     Edge 44, Type (0, 0), BuildingBlock: TEMPAE_clean_linker_10, # of connection points: 2
#     Edge 45, Type (0, 0), BuildingBlock: TEMPAE_clean_linker_10, # of connection points: 2
#     Edge 46, Type (0, 0), BuildingBlock: TEMPAE_clean_linker_10, # of connection points: 2
#     Edge 47, Type (0, 0), BuildingBlock: TEMPAE_clean_linker_10, # of connection points: 2
# Relax obj value: 0.056
# Max RMSD: 0.082
# Mean RMSD: 0.082
data_MOF--net-atn--node1-KUFVIS_clean_sbu_0--edge1-TEMPAE_clean_linker_10
_symmetry_space_group_name_H-M    P1
_symmetry_Int_Tables_number       1
_symmetry_cell_setting            triclinic
loop_
_symmetry_equiv_pos_as_xyz
'x, y, z'
_cell_length_a     61.505164
_cell_length_b     61.474621
_cell_length_c     26.896672
_cell_angle_alpha  90.025785
_cell_angle_beta   89.984323
_cell_angle_gamma 89.997854
loop_
_atom_site_label
_atom_site_type_symbol
_atom_site_fract_x
_atom_site_fract_y
_atom_site_fract_z
_atom_type_partial_charge
Mn0 Mn 0.20757 0.37553 0.01048 0.0
Mn1 Mn 0.15444 0.38861 0.01112 0.0
C2 C 0.18905 0.37842 0.08562 0.0
C3 C 0.23468 0.34901 0.00373 0.0
C4 C 0.19051 0.42115 0.99052 0.0
O5 O 0.19781 0.37003 0.93869 0.0
O6 O 0.1616 0.37362 0.94822 0.0
C7 C 0.13483 0.34463 0.01269 0.0
N8 N 0.13712 0.36473 0.03331 0.0
C9 C 0.10935 0.35728 0.09385 0.0
C10 C 0.10654 0.33654 0.07308 0.0
C11 C 0.11952 0.3301 0.03265 0.0
C12 C 0.12533 0.37077 0.07337 0.0
H13 H 0.14454 0.33977 0.98114 0.0
C14 C 0.1783 0.36803 0.92288 0.0
O15 O 0.23845 0.36921 0.99257 0.0
O16 O 0.21516 0.3442 0.01832 0.0
N17 N 0.14514 0.403 0.07057 0.0
C18 C 0.14983 0.42355 0.08637 0.0
C19 C 0.13868 0.43223 0.12741 0.0
C20 C 0.12241 0.41995 0.15093 0.0
C21 C 0.11752 0.39905 0.13334 0.0
C22 C 0.12946 0.39108 0.09291 0.0
H23 H 0.16189 0.43334 0.06777 0.0
O24 O 0.21013 0.37945 0.0844 0.0
O25 O 0.1797 0.37542 0.04307 0.0
O26 O 0.2064 0.4086 0.00076 0.0
O27 O 0.17077 0.41469 0.98896 0.0
C28 C 0.10093 0.38601 0.15362 0.0
C29 C 0.09676 0.36518 0.13371 0.0
H30 H 0.09451 0.32543 0.08788 0.0
H31 H 0.11752 0.3141 0.01651 0.0
H32 H 0.14243 0.44845 0.14049 0.0
H33 H 0.11369 0.42678 0.18226 0.0
H34 H 0.09127 0.39183 0.18458 0.0
H35 H 0.08402 0.35526 0.14979 0.0
Mn36 Mn 0.63133 0.20645 0.01797 0.0
Mn37 Mn 0.61867 0.15316 0.01716 0.0
C38 C 0.62912 0.18736 0.09245 0.0
C39 C 0.65755 0.23387 0.01154 0.0
C40 C 0.5857 0.18909 -0.00106 0.0
O41 O 0.63651 0.19722 0.9457 0.0
O42 O 0.63294 0.16093 0.95384 0.0
C43 C 0.66279 0.13392 0.01562 0.0
N44 N 0.64292 0.13593 0.03748 0.0
C45 C 0.65132 0.10796 0.09688 0.0
C46 C 0.67185 0.10549 0.0749 0.0
C47 C 0.67769 0.11869 0.03441 0.0
C48 C 0.63744 0.12387 0.07754 0.0
H49 H 0.66718 0.14378 0.98395 0.0
C50 C 0.63834 0.17783 0.92896 0.0
O51 O 0.63727 0.23753 0.00104 0.0
O52 O 0.66261 0.21429 0.02525 0.0
N53 N 0.60495 0.14329 0.07692 0.0
C54 C 0.5845 0.14761 0.09382 0.0
C55 C 0.57636 0.13612 0.13491 0.0
C56 C 0.58907 0.11989 0.15736 0.0
C57 C 0.60986 0.11539 0.13865 0.0
C58 C 0.61728 0.12764 0.0982 0.0
H59 H 0.57439 0.15965 0.07604 0.0
O60 O 0.62783 0.20845 0.0921 0.0
O61 O 0.6319 0.17834 0.04946 0.0
O62 O 0.59821 0.20505 0.00906 0.0
O63 O 0.59226 0.16939 0.99689 0.0
C64 C 0.62331 0.09887 0.15784 0.0
C65 C 0.64399 0.0951 0.13682 0.0
H66 H 0.68325 0.09351 0.08879 0.0
H67 H 0.69352 0.11692 0.01729 0.0
H68 H 0.56022 0.13958 0.14886 0.0
H69 H 0.58265 0.11091 0.18874 0.0
H70 H 0.61791 0.08898 0.18879 0.0
H71 H 0.65423 0.08241 0.15207 0.0
Mn72 Mn 0.79986 0.63148 0.00443 0.0
Mn73 Mn 0.85326 0.61906 0.00213 0.0
C74 C 0.81978 0.63039 0.07758 0.0
C75 C 0.77207 0.65734 -0.00118 0.0
C76 C 0.81754 0.58531 0.99048 0.0
O77 O 0.80808 0.63602 0.93145 0.0
O78 O 0.84415 0.63021 0.93651 0.0
C79 C 0.8714 0.66325 0.98821 0.0
N80 N 0.87027 0.64444 0.01481 0.0
C81 C 0.89907 0.65607 0.06905 0.0
C82 C 0.90059 0.67557 0.04224 0.0
C83 C 0.88655 0.67925 0.00191 0.0
C84 C 0.88325 0.641 0.0545 0.0
H85 H 0.86091 0.66596 0.95663 0.0
C86 C 0.82714 0.63592 0.91245 0.0
O87 O 0.76849 0.63693 0.98937 0.0
O88 O 0.79177 0.66272 0.01081 0.0
N89 N 0.86441 0.60842 0.06389 0.0
C90 C 0.86014 0.58924 0.08731 0.0
C91 C 0.87223 0.58347 0.1296 0.0
C92 C 0.88899 0.59714 0.14641 0.0
C93 C 0.89328 0.61663 0.1212 0.0
C94 C 0.88027 0.62185 0.08028 0.0
H95 H 0.84764 0.57842 0.07381 0.0
O96 O 0.79875 0.62857 0.07867 0.0
O97 O 0.82836 0.63294 0.03402 0.0
O98 O 0.80149 0.59818 0.99697 0.0
O99 O 0.83731 0.59166 0.98964 0.0
C100 C 0.91014 0.63098 0.13468 0.0
C101 C 0.91282 0.65084 0.10916 0.0
H102 H 0.91249 0.6878 0.05225 0.0
H103 H 0.88761 0.69426 0.98104 0.0
H104 H 0.86884 0.56837 0.14876 0.0
H105 H 0.89847 0.5925 0.17865 0.0
H106 H 0.92093 0.62706 0.16521 0.0
H107 H 0.92549 0.66198 0.12073 0.0
Mn108 Mn 0.37452 0.80025 0.02187 0.0
Mn109 Mn 0.38744 0.85347 0.02003 0.0
C110 C 0.37691 0.81964 0.09596 0.0
C111 C 0.34823 0.77289 0.01608 0.0
C112 C 0.4202 0.81731 0.00215 0.0
O113 O 0.36926 0.80923 0.94948 0.0
O114 O 0.37311 0.84552 0.95691 0.0
C115 C 0.3434 0.8729 0.01833 0.0
N116 N 0.36328 0.87088 0.04013 0.0
C117 C 0.35503 0.89909 0.09913 0.0
C118 C 0.33449 0.90156 0.07723 0.0
C119 C 0.32857 0.88824 0.03696 0.0
C120 C 0.36884 0.88306 0.07996 0.0
H121 H 0.33896 0.86295 0.98682 0.0
C122 C 0.36757 0.82857 0.93238 0.0
O123 O 0.36849 0.76914 0.00551 0.0
O124 O 0.34323 0.79252 0.02955 0.0
N125 N 0.40122 0.86347 0.07958 0.0
C126 C 0.42163 0.85905 0.09659 0.0
C127 C 0.42985 0.87064 0.13748 0.0
C128 C 0.41726 0.88707 0.15958 0.0
C129 C 0.39651 0.89166 0.14076 0.0
C130 C 0.389 0.87927 0.10059 0.0
H131 H 0.43165 0.84686 0.07905 0.0
O132 O 0.37813 0.79855 0.09602 0.0
O133 O 0.3741 0.82848 0.05281 0.0
O134 O 0.40762 0.80146 0.01261 0.0
O135 O 0.41376 0.83704 -7e-05 0.0
C136 C 0.38319 0.90837 0.15957 0.0
C137 C 0.36246 0.91208 0.13877 0.0
H138 H 0.32315 0.91363 0.09098 0.0
H139 H 0.31274 0.89002 0.0199 0.0
H140 H 0.44595 0.86711 0.15153 0.0
H141 H 0.42374 0.89613 0.19078 0.0
H142 H 0.3887 0.91842 0.19016 0.0
H143 H 0.35229 0.92486 0.15387 0.0
Mn144 Mn 0.20444 0.63097 0.98806 0.0
Mn145 Mn 0.15124 0.61769 0.98953 0.0
C146 C 0.18466 0.63008 0.91467 0.0
C147 C 0.23187 0.65712 0.99536 0.0
C148 C 0.1875 0.58447 2e-05 0.0
O149 O 0.19603 0.63477 0.06117 0.0
O150 O 0.16003 0.62875 0.05549 0.0
C151 C 0.1323 0.6615 0.00428 0.0
N152 N 0.13382 0.64282 0.97723 0.0
C153 C 0.10481 0.6541 0.92321 0.0
C154 C 0.10288 0.67345 0.95048 0.0
C155 C 0.11683 0.67725 0.99092 0.0
C156 C 0.12096 0.63931 0.93736 0.0
H157 H 0.14271 0.66428 0.036 0.0
C158 C 0.17693 0.63448 0.07992 0.0
O159 O 0.23567 0.63667 0.00374 0.0
O160 O 0.21214 0.66239 0.98331 0.0
N161 N 0.14034 0.60708 0.92748 0.0
C162 C 0.14477 0.58791 0.90407 0.0
C163 C 0.13271 0.58199 0.86184 0.0
C164 C 0.11578 0.59547 0.84512 0.0
C165 C 0.11127 0.61491 0.87041 0.0
C166 C 0.12429 0.6203 0.91125 0.0
H167 H 0.15737 0.57721 0.91753 0.0
O168 O 0.20572 0.62871 0.91372 0.0
O169 O 0.17595 0.63218 0.95823 0.0
O170 O 0.20332 0.59763 0.99385 0.0
O171 O 0.16764 0.5905 0.00149 0.0
C172 C 0.09414 0.62897 0.85724 0.0
C173 C 0.09112 0.64872 0.8831 0.0
H174 H 0.09072 0.68546 0.94079 0.0
H175 H 0.11545 0.69214 0.01217 0.0
H176 H 0.13624 0.56692 0.84266 0.0
H177 H 0.10631 0.59071 0.81295 0.0
H178 H 0.08338 0.62492 0.82674 0.0
H179 H 0.0782 0.65963 0.87183 0.0
Mn180 Mn 0.37658 0.20513 0.97577 0.0
Mn181 Mn 0.38964 0.15197 0.97521 0.0
C182 C 0.37935 0.18652 0.90065 0.0
C183 C 0.35022 0.23237 0.98247 0.0
C184 C 0.42221 0.18805 0.99562 0.0
O185 O 0.37106 0.1954 0.04759 0.0
O186 O 0.37479 0.15918 0.03826 0.0
C187 C 0.34567 0.13237 0.97417 0.0
N188 N 0.36572 0.13464 0.95331 0.0
C189 C 0.35808 0.10691 0.89276 0.0
C190 C 0.33739 0.10414 0.91374 0.0
C191 C 0.33108 0.1171 0.9543 0.0
C192 C 0.37165 0.12285 0.91316 0.0
H193 H 0.34091 0.14205 0.00585 0.0
C194 C 0.36915 0.1759 0.06354 0.0
O195 O 0.37042 0.23605 0.9936 0.0
O196 O 0.3453 0.21286 0.96794 0.0
N197 N 0.4039 0.14262 0.91564 0.0
C198 C 0.4244 0.14731 0.89958 0.0
C199 C 0.43298 0.13614 0.85846 0.0
C200 C 0.42065 0.11985 0.83512 0.0
C201 C 0.3998 0.11498 0.85295 0.0
C202 C 0.39192 0.12695 0.89344 0.0
H203 H 0.43422 0.15939 0.91806 0.0
O204 O 0.38048 0.20761 0.90181 0.0
O205 O 0.37639 0.17722 0.94326 0.0
O206 O 0.40963 0.20393 0.98549 0.0
O207 O 0.41578 0.16829 -0.00291 0.0
C208 C 0.38671 0.09838 0.83285 0.0
C209 C 0.36588 0.09431 0.85281 0.0
H210 H 0.32623 0.09213 0.89901 0.0
H211 H 0.31512 0.11511 0.97062 0.0
H212 H 0.44916 0.13989 0.84518 0.0
H213 H 0.4274 0.11111 0.80373 0.0
H214 H 0.39247 0.08868 0.8019 0.0
H215 H 0.3559 0.0816 0.83677 0.0
Mn216 Mn 0.80174 0.37549 0.98455 0.0
Mn217 Mn 0.85502 0.38842 0.98684 0.0
C218 C 0.82173 0.37646 0.91139 0.0
C219 C 0.77409 0.34951 0.99098 0.0
C220 C 0.81896 0.42186 -0.00224 0.0
O221 O 0.80995 0.37135 0.05769 0.0
O222 O 0.84598 0.37732 0.05257 0.0
C223 C 0.87362 0.34446 0.0013 0.0
N224 N 0.87231 0.3632 0.9745 0.0
C225 C 0.90131 0.35178 0.92054 0.0
C226 C 0.90302 0.33236 0.94756 0.0
C227 C 0.88897 0.3286 0.98786 0.0
C228 C 0.8853 0.3667 0.93483 0.0
H229 H 0.86312 0.34169 0.03287 0.0
C230 C 0.82899 0.37158 0.0767 0.0
O231 O 0.77042 0.36995 -0.00025 0.0
O232 O 0.79381 0.34415 0.97901 0.0
N233 N 0.86611 0.39905 0.925 0.0
C234 C 0.86168 0.41815 0.9014 0.0
C235 C 0.87378 0.42399 0.85916 0.0
C236 C 0.89071 0.41047 0.84258 0.0
C237 C 0.89517 0.39106 0.86796 0.0
C238 C 0.88214 0.38576 0.90883 0.0
H239 H 0.84905 0.42887 0.91474 0.0
O240 O 0.80068 0.37805 0.91021 0.0
O241 O 0.83029 0.37416 0.95504 0.0
O242 O 0.80306 0.40882 0.99121 0.0
O243 O 0.83878 0.4157 -0.00101 0.0
C244 C 0.91221 0.37688 0.85475 0.0
C245 C 0.91506 0.35709 0.88047 0.0
H246 H 0.91507 0.32024 0.93776 0.0
H247 H 0.89018 0.31365 0.0089 0.0
H248 H 0.87026 0.43903 0.83985 0.0
H249 H 0.90019 0.41516 0.81037 0.0
H250 H 0.92301 0.38087 0.82428 0.0
H251 H 0.92788 0.34607 0.8691 0.0
Mn252 Mn 0.62936 0.80066 0.9794 0.0
Mn253 Mn 0.61632 0.85387 0.98076 0.0
C254 C 0.62706 0.81992 0.90515 0.0
C255 C 0.65567 0.77329 0.98515 0.0
C256 C 0.5836 0.81767 -0.00146 0.0
O257 O 0.63452 0.80975 0.05181 0.0
O258 O 0.63049 0.84601 0.04412 0.0
C259 C 0.66033 0.87335 0.983 0.0
N260 N 0.64052 0.87128 0.9609 0.0
C261 C 0.64894 0.89934 0.90175 0.0
C262 C 0.66941 0.90188 0.92398 0.0
C263 C 0.67521 0.88867 0.96448 0.0
C264 C 0.63508 0.88336 0.92086 0.0
H265 H 0.66469 0.86347 0.01465 0.0
C266 C 0.63606 0.82913 0.06883 0.0
O267 O 0.63542 0.76955 0.99577 0.0
O268 O 0.66067 0.79295 0.97188 0.0
N269 N 0.60268 0.8638 0.92098 0.0
C270 C 0.58228 0.85941 0.90385 0.0
C271 C 0.57418 0.87093 0.86278 0.0
C272 C 0.58686 0.88725 0.84058 0.0
C273 C 0.60759 0.89181 0.85952 0.0
C274 C 0.61498 0.87953 0.89996 0.0
H275 H 0.5722 0.84729 0.92144 0.0
O276 O 0.62584 0.79883 0.90524 0.0
O277 O 0.62978 0.82885 0.94825 0.0
O278 O 0.59625 0.80183 0.98845 0.0
O279 O 0.58997 0.83743 0.00056 0.0
C280 C 0.62102 0.9084 0.84058 0.0
C281 C 0.64165 0.91222 0.86179 0.0
H282 H 0.68079 0.91393 0.91028 0.0
H283 H 0.69098 0.89049 0.98178 0.0
H284 H 0.55808 0.86742 0.84863 0.0
H285 H 0.58047 0.89625 0.80919 0.0
H286 H 0.61564 0.91833 0.80966 0.0
H287 H 0.65188 0.92495 0.84671 0.0
Mn288 Mn 0.70424 0.87577 0.50849 0.0
Mn289 Mn 0.65096 0.88867 0.50709 0.0
C290 C 0.68451 0.87692 0.58199 0.0
C291 C 0.73185 0.84978 0.50192 0.0
C292 C 0.68696 0.9221 0.49507 0.0
O293 O 0.69577 0.8714 0.4356 0.0
O294 O 0.65975 0.87738 0.4413 0.0
C295 C 0.6323 0.84467 0.49347 0.0
N296 N 0.63371 0.86348 0.52004 0.0
C297 C 0.60484 0.85225 0.57454 0.0
C298 C 0.60303 0.83275 0.54777 0.0
C299 C 0.61696 0.82887 0.50733 0.0
C300 C 0.62084 0.8671 0.55987 0.0
H301 H 0.64271 0.8418 0.46179 0.0
C302 C 0.67665 0.87155 0.41696 0.0
O303 O 0.7355 0.87019 0.49279 0.0
O304 O 0.71218 0.84446 0.51432 0.0
N305 N 0.6401 0.89944 0.56904 0.0
C306 C 0.64464 0.91858 0.59239 0.0
C307 C 0.63269 0.92453 0.63479 0.0
C308 C 0.61578 0.91108 0.65176 0.0
C309 C 0.61121 0.89163 0.62662 0.0
C310 C 0.62411 0.88621 0.58561 0.0
H311 H 0.65724 0.92925 0.57874 0.0
O312 O 0.70556 0.87856 0.58276 0.0
O313 O 0.6758 0.8745 0.53853 0.0
O314 O 0.70288 0.90907 0.50137 0.0
O315 O 0.66714 0.91593 0.49435 0.0
C316 C 0.59417 0.87753 0.64022 0.0
C317 C 0.5912 0.85768 0.61472 0.0
H318 H 0.59098 0.82068 0.55787 0.0
H319 H 0.61568 0.81386 0.48647 0.0
H320 H 0.63629 0.9396 0.6539 0.0
H321 H 0.60641 0.91586 0.68408 0.0
H322 H 0.58347 0.8816 0.67084 0.0
H323 H 0.57838 0.84673 0.62638 0.0
Mn324 Mn 0.12921 0.70541 0.51718 0.0
Mn325 Mn 0.11602 0.65226 0.51619 0.0
C326 C 0.12671 0.68629 0.59158 0.0
C327 C 0.15561 0.73267 0.51139 0.0
C328 C 0.08345 0.68852 0.49774 0.0
O329 O 0.13448 0.69616 0.44492 0.0
O330 O 0.1304 0.65991 0.45292 0.0
C331 C 0.15996 0.63261 0.51485 0.0
N332 N 0.14008 0.63479 0.53658 0.0
C333 C 0.14819 0.60677 0.59608 0.0
C334 C 0.16872 0.60412 0.57423 0.0
C335 C 0.17472 0.61726 0.53374 0.0
C336 C 0.13446 0.62279 0.57662 0.0
H337 H 0.16447 0.64243 0.4832 0.0
C338 C 0.13605 0.67675 0.42812 0.0
O339 O 0.13539 0.73646 0.50052 0.0
O340 O 0.16053 0.71303 0.52493 0.0
N341 N 0.10217 0.64252 0.5759 0.0
C342 C 0.08177 0.64709 0.5928 0.0
C343 C 0.07349 0.63569 0.63388 0.0
C344 C 0.086 0.6193 0.65631 0.0
C345 C 0.10674 0.61456 0.6376 0.0
C346 C 0.11431 0.62675 0.5972 0.0
H347 H 0.07181 0.65925 0.57502 0.0
O348 O 0.12555 0.70738 0.59128 0.0
O349 O 0.12949 0.67728 0.54858 0.0
O350 O 0.09612 0.70433 0.50787 0.0
O351 O 0.08978 0.66874 0.49584 0.0
C352 C 0.12 0.59789 0.65678 0.0
C353 C 0.1407 0.59398 0.63599 0.0
H354 H 0.18001 0.59206 0.58821 0.0
H355 H 0.19055 0.61536 0.51673 0.0
H356 H 0.05739 0.63933 0.64783 0.0
H357 H 0.07948 0.61039 0.68768 0.0
H358 H 0.11446 0.58802 0.68764 0.0
H359 H 0.15082 0.58121 0.65132 0.0
Mn360 Mn 0.30086 0.13077 0.50404 0.0
Mn361 Mn 0.35418 0.11805 0.50125 0.0
C362 C 0.3213 0.13144 0.57653 0.0
C363 C 0.27308 0.1564 0.49599 0.0
C364 C 0.31815 0.08433 0.49487 0.0
O365 O 0.30852 0.13313 0.43001 0.0
O366 O 0.34473 0.12822 0.43515 0.0
C367 C 0.37259 0.16183 0.4831 0.0
N368 N 0.37146 0.14347 0.51133 0.0
C369 C 0.40047 0.15586 0.56408 0.0
C370 C 0.402 0.1749 0.53558 0.0
C371 C 0.38786 0.17797 0.49516 0.0
C372 C 0.38453 0.14064 0.55112 0.0
H373 H 0.36201 0.16406 0.45146 0.0
C374 C 0.32755 0.13307 0.41074 0.0
O375 O 0.2693 0.13575 0.49095 0.0
O376 O 0.29296 0.16224 0.50494 0.0
N377 N 0.36565 0.10827 0.56346 0.0
C378 C 0.36169 0.08929 0.58799 0.0
C379 C 0.37406 0.08402 0.63019 0.0
C380 C 0.39083 0.09797 0.64574 0.0
C381 C 0.39488 0.1172 0.61929 0.0
C382 C 0.3816 0.1219 0.57845 0.0
H383 H 0.3492 0.07823 0.57547 0.0
O384 O 0.30027 0.13004 0.57856 0.0
O385 O 0.32963 0.13282 0.53243 0.0
O386 O 0.30227 0.09735 0.50173 0.0
O387 O 0.3379 0.0906 0.4915 0.0
C388 C 0.41179 0.13171 0.63132 0.0
C389 C 0.41436 0.15122 0.60431 0.0
H390 H 0.41399 0.18722 0.54431 0.0
H391 H 0.38893 0.19261 0.47297 0.0
H392 H 0.37089 0.06911 0.65027 0.0
H393 H 0.40052 0.09373 0.67793 0.0
H394 H 0.42276 0.12819 0.66176 0.0
H395 H 0.42711 0.16248 0.61471 0.0
Mn396 Mn 0.87712 0.301 0.51372 0.0
Mn397 Mn 0.88996 0.35423 0.51224 0.0
C398 C 0.87986 0.32021 0.58805 0.0
C399 C 0.85082 0.2736 0.50868 0.0
C400 C 0.92264 0.31815 0.49259 0.0
O401 O 0.87142 0.31018 0.4416 0.0
O402 O 0.87522 0.34647 0.44945 0.0
C403 C 0.84591 0.37366 0.51238 0.0
N404 N 0.86593 0.37157 0.53348 0.0
C405 C 0.85799 0.39946 0.59348 0.0
C406 C 0.83733 0.40202 0.57227 0.0
C407 C 0.83118 0.3889 0.53185 0.0
C408 C 0.87171 0.38356 0.57344 0.0
H409 H 0.84128 0.36384 0.4808 0.0
C410 C 0.86959 0.32956 0.42483 0.0
O411 O 0.871 0.2699 0.49727 0.0
O412 O 0.84589 0.29322 0.52238 0.0
N413 N 0.90412 0.36403 0.57151 0.0
C414 C 0.92464 0.35956 0.58776 0.0
C415 C 0.93307 0.37094 0.62871 0.0
C416 C 0.92058 0.3872 0.65172 0.0
C417 C 0.8997 0.39183 0.63372 0.0
C418 C 0.892 0.37969 0.59335 0.0
H419 H 0.93457 0.34748 0.56956 0.0
O420 O 0.88116 0.29912 0.58775 0.0
O421 O 0.87684 0.32915 0.54508 0.0
O422 O 0.91016 0.30227 0.50336 0.0
O423 O 0.91616 0.33789 0.49092 0.0
C424 C 0.88642 0.40834 0.6536 0.0
C425 C 0.86561 0.41221 0.63334 0.0
H426 H 0.82605 0.41399 0.58672 0.0
H427 H 0.81525 0.39073 0.51534 0.0
H428 H 0.94927 0.36737 0.64214 0.0
H429 H 0.92721 0.39609 0.68302 0.0
H430 H 0.89203 0.41814 0.68452 0.0
H431 H 0.8555 0.42489 0.6491 0.0
Mn432 Mn 0.70663 0.13176 0.48893 0.0
Mn433 Mn 0.6533 0.11904 0.49082 0.0
C434 C 0.68678 0.13073 0.41565 0.0
C435 C 0.73428 0.15776 0.49511 0.0
C436 C 0.68921 0.08551 0.50238 0.0
O437 O 0.69829 0.13605 0.56197 0.0
O438 O 0.66223 0.13025 0.55651 0.0
C439 C 0.63477 0.16308 0.50471 0.0
N440 N 0.6361 0.14427 0.47807 0.0
C441 C 0.60718 0.1556 0.42384 0.0
C442 C 0.60546 0.17509 0.45068 0.0
C443 C 0.61946 0.17892 0.49102 0.0
C444 C 0.62316 0.1407 0.43835 0.0
H445 H 0.64523 0.16589 0.53632 0.0
C446 C 0.67919 0.13594 0.58077 0.0
O447 O 0.73796 0.13734 0.5042 0.0
O448 O 0.71456 0.16307 0.48315 0.0
N449 N 0.64233 0.10832 0.42894 0.0
C450 C 0.64682 0.08919 0.40545 0.0
C451 C 0.63482 0.0833 0.36311 0.0
C452 C 0.61791 0.09679 0.34633 0.0
C453 C 0.61339 0.11623 0.37159 0.0
C454 C 0.62635 0.12159 0.41254 0.0
H455 H 0.65944 0.0785 0.41894 0.0
O456 O 0.70782 0.12906 0.41465 0.0
O457 O 0.67815 0.13313 0.4592 0.0
O458 O 0.70519 0.09844 0.4958 0.0
O459 O 0.66941 0.09175 0.50341 0.0
C460 C 0.59638 0.13039 0.35816 0.0
C461 C 0.59348 0.15023 0.38374 0.0
H462 H 0.59343 0.1872 0.4407 0.0
H463 H 0.61824 0.19392 0.51192 0.0
H464 H 0.63838 0.06825 0.34389 0.0
H465 H 0.60849 0.09206 0.31405 0.0
H466 H 0.58564 0.12636 0.32761 0.0
H467 H 0.58069 0.16123 0.37219 0.0
Mn468 Mn 0.87447 0.70662 0.47525 0.0
Mn469 Mn 0.88722 0.65336 0.47653 0.0
C470 C 0.87682 0.6874 0.40093 0.0
C471 C 0.84824 0.73403 0.48137 0.0
C472 C 0.92007 0.68939 0.49482 0.0
O473 O 0.86921 0.6975 0.54755 0.0
O474 O 0.8728 0.6612 0.53964 0.0
C475 C 0.84312 0.63406 0.47763 0.0
N476 N 0.86305 0.63604 0.45605 0.0
C477 C 0.85485 0.60794 0.39679 0.0
C478 C 0.83427 0.60547 0.41851 0.0
C479 C 0.8283 0.61876 0.45879 0.0
C480 C 0.86866 0.62391 0.41618 0.0
H481 H 0.83862 0.64399 0.50912 0.0
C482 C 0.86736 0.67813 0.56438 0.0
O483 O 0.8685 0.73771 0.49195 0.0
O484 O 0.84319 0.71443 0.46773 0.0
N485 N 0.90108 0.64342 0.41699 0.0
C486 C 0.92155 0.64778 0.40026 0.0
C487 C 0.92981 0.63623 0.35936 0.0
C488 C 0.91721 0.61991 0.33693 0.0
C489 C 0.8964 0.61537 0.35547 0.0
C490 C 0.88885 0.6277 0.39572 0.0
H491 H 0.93158 0.6599 0.41803 0.0
O492 O 0.87807 0.70849 0.40112 0.0
O493 O 0.87399 0.67845 0.44396 0.0
O494 O 0.90755 0.70529 0.4844 0.0
O495 O 0.91355 0.66968 0.497 0.0
C496 C 0.88305 0.59877 0.33631 0.0
C497 C 0.86232 0.595 0.35708 0.0
H498 H 0.82293 0.59344 0.40458 0.0
H499 H 0.81242 0.617 0.47569 0.0
H500 H 0.94597 0.63972 0.34553 0.0
H501 H 0.92372 0.61088 0.3057 0.0
H502 H 0.88855 0.58881 0.30555 0.0
H503 H 0.85214 0.58226 0.34182 0.0
Mn504 Mn 0.29955 0.87475 0.49244 0.0
Mn505 Mn 0.35285 0.88751 0.49479 0.0
C506 C 0.31944 0.87614 0.4192 0.0
C507 C 0.27195 0.84868 0.498 0.0
C508 C 0.31688 0.92095 0.50724 0.0
O509 O 0.30784 0.87016 0.56538 0.0
O510 O 0.34392 0.87584 0.56006 0.0
C511 C 0.37144 0.84341 0.50703 0.0
N512 N 0.37006 0.86238 0.48105 0.0
C513 C 0.39896 0.85143 0.42631 0.0
C514 C 0.40074 0.83178 0.45248 0.0
C515 C 0.38677 0.82768 0.49274 0.0
C516 C 0.38295 0.8662 0.44136 0.0
H517 H 0.36101 0.84039 0.5386 0.0
C518 C 0.32694 0.87007 0.58415 0.0
O519 O 0.26823 0.86906 0.50755 0.0
O520 O 0.29168 0.84345 0.4859 0.0
N521 N 0.36383 0.89868 0.43334 0.0
C522 C 0.3595 0.91808 0.41092 0.0
C523 C 0.37155 0.92431 0.36892 0.0
C524 C 0.38837 0.91087 0.3514 0.0
C525 C 0.39277 0.89118 0.37566 0.0
C526 C 0.37977 0.8855 0.41631 0.0
H527 H 0.34697 0.92874 0.425 0.0
O528 O 0.2984 0.87774 0.41819 0.0
O529 O 0.32804 0.87358 0.46271 0.0
O530 O 0.30093 0.90803 0.50012 0.0
O531 O 0.33668 0.91469 0.50836 0.0
C532 C 0.40977 0.87711 0.36162 0.0
C533 C 0.41268 0.8571 0.38644 0.0
H534 H 0.4128 0.81977 0.44207 0.0
H535 H 0.38803 0.81256 0.51313 0.0
H536 H 0.36811 0.93958 0.35054 0.0
H537 H 0.39784 0.91587 0.31941 0.0
H538 H 0.42052 0.88136 0.33123 0.0
H539 H 0.42549 0.8462 0.3745 0.0
Mn540 Mn 0.13231 0.30098 0.48224 0.0
Mn541 Mn 0.12041 0.35452 0.48537 0.0
C542 C 0.13324 0.32148 0.40994 0.0
C543 C 0.15764 0.27288 0.49006 0.0
C544 C 0.08614 0.319 0.49152 0.0
O545 O 0.13482 0.30851 0.55624 0.0
O546 O 0.13025 0.34479 0.55154 0.0
C547 C 0.16444 0.37214 0.50422 0.0
N548 N 0.14613 0.3714 0.47581 0.0
C549 C 0.15921 0.4002 0.42329 0.0
C550 C 0.1782 0.40133 0.45199 0.0
C551 C 0.1809 0.3871 0.4924 0.0
C552 C 0.14363 0.38459 0.4361 0.0
H553 H 0.16642 0.36147 0.5358 0.0
C554 C 0.13488 0.32749 0.57575 0.0
O555 O 0.13696 0.26932 0.49511 0.0
O556 O 0.16366 0.29272 0.48118 0.0
N557 N 0.11101 0.36625 0.42311 0.0
C558 C 0.09216 0.36246 0.39795 0.0
C559 C 0.0873 0.37488 0.35556 0.0
C560 C 0.10153 0.39147 0.34039 0.0
C561 C 0.12066 0.39529 0.36739 0.0
C562 C 0.12494 0.382 0.40844 0.0
H563 H 0.08091 0.35008 0.41013 0.0
O564 O 0.13149 0.30047 0.40778 0.0
O565 O 0.13479 0.32975 0.45408 0.0
O566 O 0.09891 0.30288 0.48479 0.0
O567 O 0.09271 0.33866 0.49465 0.0
C568 C 0.13553 0.41192 0.35556 0.0
C569 C 0.15497 0.41414 0.3829 0.0
H570 H 0.19079 0.41306 0.44339 0.0
H571 H 0.19552 0.38785 0.51473 0.0
H572 H 0.07248 0.37186 0.335 0.0
H573 H 0.09761 0.40118 0.30801 0.0
H574 H 0.13232 0.42293 0.325 0.0
H575 H 0.16653 0.42665 0.37261 0.0
C576 C 0.20785 0.55147 0.97114 0.0
C577 C 0.19189 0.56076 0.00179 0.0
C578 C 0.21004 0.52873 0.96721 0.0
C579 C 0.19633 0.51498 0.99562 0.0
C580 C 0.18093 0.52437 0.02845 0.0
C581 C 0.17867 0.54709 0.03052 0.0
C582 C 0.22627 0.51943 0.93087 0.0
C583 C 0.16638 0.51038 0.06045 0.0
C584 C 0.18108 0.45764 0.95543 0.0
C585 C 0.19448 0.44486 0.98579 0.0
C586 C 0.18244 0.48047 0.95616 0.0
C587 C 0.19709 0.49083 0.98926 0.0
C588 C 0.21115 0.47797 0.01888 0.0
C589 C 0.20988 0.45514 0.0163 0.0
C590 C 0.16757 0.4935 0.92291 0.0
C591 C 0.22662 0.48829 0.05551 0.0
H592 H 0.2179 0.56197 0.94831 0.0
H593 H 0.16635 0.55421 0.05434 0.0
H594 H 0.23688 0.50735 0.94955 0.0
H595 H 0.2175 0.51076 0.90073 0.0
H596 H 0.23666 0.53221 0.91391 0.0
H597 H 0.15673 0.52016 0.08729 0.0
H598 H 0.15497 0.5011 0.03657 0.0
H599 H 0.17623 0.49837 0.08147 0.0
H600 H 0.16917 0.44977 0.93175 0.0
H601 H 0.22005 0.44535 0.04042 0.0
H602 H 0.17694 0.50612 0.90264 0.0
H603 H 0.15521 0.50201 0.94582 0.0
H604 H 0.159 0.48311 0.89538 0.0
H605 H 0.23651 0.50104 0.0371 0.0
H606 H 0.23773 0.47619 0.0727 0.0
H607 H 0.21717 0.49634 0.08549 0.0
C608 C 0.45866 0.17862 0.03102 0.0
C609 C 0.44588 0.19214 0.00089 0.0
C610 C 0.48144 0.18047 0.03151 0.0
C611 C 0.49179 0.19573 -0.0001 0.0
C612 C 0.47893 0.20979 0.97027 0.0
C613 C 0.45612 0.20801 0.97162 0.0
C614 C 0.49447 0.16556 0.06473 0.0
C615 C 0.48928 0.2259 0.93516 0.0
C616 C 0.55158 0.20832 0.02454 0.0
C617 C 0.56199 0.19298 0.9941 0.0
C618 C 0.52875 0.20976 0.02617 0.0
C619 C 0.51604 0.19591 0.99566 0.0
C620 C 0.52656 0.1812 0.96294 0.0
C621 C 0.54936 0.17967 0.96315 0.0
C622 C 0.51823 0.22527 0.06242 0.0
C623 C 0.5137 0.16655 0.92877 0.0
H624 H 0.45082 0.16635 0.05376 0.0
H625 H 0.44635 0.21828 0.94767 0.0
H626 H 0.50381 0.15388 0.04167 0.0
H627 H 0.50637 0.17509 0.08679 0.0
H628 H 0.48397 0.15621 0.09067 0.0
H629 H 0.47708 0.23665 0.91718 0.0
H630 H 0.50125 0.23616 0.95515 0.0
H631 H 0.49825 0.217 0.90569 0.0
H632 H 0.56126 0.21841 0.04911 0.0
H633 H 0.55733 0.16781 0.93953 0.0
H634 H 0.50939 0.21587 0.09128 0.0
H635 H 0.5061 0.23563 0.0432 0.0
H636 H 0.5303 0.23594 0.0811 0.0
H637 H 0.5045 0.15448 0.95106 0.0
H638 H 0.52429 0.15764 0.90221 0.0
H639 H 0.50167 0.1762 0.90737 0.0
C640 C 0.79885 0.45526 0.97041 0.0
C641 C 0.81469 0.44557 0.00071 0.0
C642 C 0.79684 0.47806 0.96764 0.0
C643 C 0.81059 0.49144 0.99687 0.0
C644 C 0.8258 0.48162 0.02949 0.0
C645 C 0.8279 0.45887 0.03039 0.0
C646 C 0.78081 0.48781 0.9315 0.0
C647 C 0.84039 0.49519 0.06232 0.0
C648 C 0.82694 0.54853 0.95729 0.0
C649 C 0.81357 0.56156 0.98723 0.0
C650 C 0.82527 0.52574 0.95816 0.0
C651 C 0.81034 0.51563 0.99098 0.0
C652 C 0.7964 0.52874 0.02042 0.0
C653 C 0.79798 0.55157 0.01769 0.0
C654 C 0.84004 0.51246 0.92511 0.0
C655 C 0.78065 0.51867 0.05676 0.0
H656 H 0.7888 0.44505 0.94691 0.0
H657 H 0.8401 0.45144 0.054 0.0
H658 H 0.77042 0.50002 0.9504 0.0
H659 H 0.78977 0.4964 0.90155 0.0
H660 H 0.77019 0.47529 0.91424 0.0
H661 H 0.84967 0.48511 0.08921 0.0
H662 H 0.85213 0.50435 0.03904 0.0
H663 H 0.83064 0.5073 0.08332 0.0
H664 H 0.83896 0.5562 0.93358 0.0
H665 H 0.78782 0.56158 0.0414 0.0
H666 H 0.83049 0.50015 0.90428 0.0
H667 H 0.85204 0.50356 0.94822 0.0
H668 H 0.84904 0.52273 0.89806 0.0
H669 H 0.77049 0.50622 0.03802 0.0
H670 H 0.76979 0.53097 0.07408 0.0
H671 H 0.78985 0.5103 0.08665 0.0
C672 C 0.54715 0.82687 0.03414 0.0
C673 C 0.55993 0.81354 0.00354 0.0
C674 C 0.52438 0.82505 0.03454 0.0
C675 C 0.51403 0.80999 0.0024 0.0
C676 C 0.52689 0.7961 0.97232 0.0
C677 C 0.5497 0.79785 0.97373 0.0
C678 C 0.51135 0.83977 0.06823 0.0
C679 C 0.51654 0.7802 0.93669 0.0
C680 C 0.45419 0.79764 0.02689 0.0
C681 C 0.44387 0.81324 -0.00297 0.0
C682 C 0.47702 0.796 0.02826 0.0
C683 C 0.4898 0.80992 -0.00191 0.0
C684 C 0.47936 0.82488 0.96588 0.0
C685 C 0.45658 0.82658 0.96632 0.0
C686 C 0.48745 0.7802 0.06395 0.0
C687 C 0.4923 0.83962 0.93211 0.0
H688 H 0.55499 0.83899 0.05732 0.0
H689 H 0.55949 0.78772 0.94946 0.0
H690 H 0.50203 0.8516 0.04554 0.0
H691 H 0.49943 0.83013 0.08997 0.0
H692 H 0.52184 0.84897 0.09448 0.0
H693 H 0.52873 0.76948 0.91853 0.0
H694 H 0.50449 0.76989 0.9563 0.0
H695 H 0.50766 0.78928 0.90739 0.0
H696 H 0.44447 0.7875 0.05125 0.0
H697 H 0.44868 0.83864 0.9431 0.0
H698 H 0.49627 0.78937 0.09323 0.0
H699 H 0.49958 0.76995 0.04439 0.0
H700 H 0.47533 0.76942 0.08213 0.0
H701 H 0.50155 0.85154 0.95473 0.0
H702 H 0.48176 0.84872 0.9058 0.0
H703 H 0.50429 0.83002 0.91043 0.0
C704 C 0.68073 0.04885 0.5373 0.0
C705 C 0.69327 0.06179 0.5054 0.0
C706 C 0.68231 0.02606 0.53631 0.0
C707 C 0.69622 0.01586 0.50135 0.0
C708 C 0.70935 0.02889 0.46986 0.0
C709 C 0.70794 0.05172 0.47276 0.0
C710 C 0.66847 0.01287 0.57156 0.0
C711 C 0.72396 0.01873 0.4312 0.0
C712 C 0.70792 0.95541 0.51985 0.0
C713 C 0.69122 0.94582 0.49185 0.0
C714 C 0.71013 0.97819 0.52246 0.0
C715 C 0.69565 0.99167 0.49543 0.0
C716 C 0.6795 0.98198 0.46508 0.0
C717 C 0.67728 0.95923 0.46425 0.0
C718 C 0.72724 0.98782 0.55613 0.0
C719 C 0.66406 0.99566 0.43463 0.0
H720 H 0.6694 0.05661 0.56263 0.0
H721 H 0.71742 0.06168 0.44754 0.0
H722 H 0.65576 0.00405 0.55035 0.0
H723 H 0.67854 1.00049 0.59083 0.0
H724 H 0.66036 0.02319 0.59996 0.0
H725 H 0.73439 0.03097 0.41236 0.0
H726 H 0.73454 0.00619 0.44832 0.0
H727 H 0.71387 0.01045 0.40271 0.0
H728 H 0.71858 0.94514 0.54173 0.0
H729 H 0.66442 0.95191 0.44237 0.0
H730 H 0.71922 0.99647 0.58738 0.0
H731 H 0.73714 0.99997 0.53572 0.0
H732 H 0.73825 0.97523 0.57172 0.0
H733 H 0.65309 0.00488 0.45971 0.0
H734 H 0.65393 0.98565 0.4092 0.0
H735 H 0.67325 0.00771 0.41221 0.0
C736 C 0.95411 0.70887 0.46977 0.0
C737 C 0.94375 0.69336 0.49983 0.0
C738 C 0.97693 0.71041 0.46825 0.0
C739 C 0.98968 0.6965 0.49848 0.0
C740 C 0.97921 0.68163 0.53088 0.0
C741 C 0.95642 0.68001 0.53058 0.0
C742 C 0.9874 0.72611 0.43235 0.0
C743 C 0.99212 0.6669 0.56472 0.0
C744 C 0.04697 0.67934 0.46233 0.0
C745 C 0.0598 0.69271 0.49273 0.0
C746 C 0.0242 0.68121 0.46203 0.0
C747 C 0.01391 0.69635 0.49408 0.0
C748 C 0.02681 0.71027 0.52396 0.0
C749 C 0.04962 0.70847 0.52244 0.0
C750 C 0.01112 0.66645 0.42856 0.0
C751 C 0.01652 0.72626 0.55949 0.0
H752 H 0.94441 0.719 0.44537 0.0
H753 H 0.94849 0.66803 0.55393 0.0
H754 H 0.99956 0.73637 0.45176 0.0
H755 H 0.99619 0.71685 0.40316 0.0
H756 H 0.9753 0.73687 0.41408 0.0
H757 H 0.98156 0.65789 0.59116 0.0
H758 H 1.00131 0.65491 0.54217 0.0
H759 H 0.00416 0.6765 0.58626 0.0
H760 H 0.05477 0.66716 0.43924 0.0
H761 H 0.05944 0.71862 0.54657 0.0
H762 H 0.9992 0.67607 0.40677 0.0
H763 H 1.00179 0.65468 0.45141 0.0
H764 H 0.02157 0.65718 0.40235 0.0
H765 H 0.00449 0.73657 0.53983 0.0
H766 H 0.02875 0.73697 0.57753 0.0
H767 H 0.00763 0.71724 0.58889 0.0
C768 C 0.29828 0.05115 0.52467 0.0
C769 C 0.314 0.06056 0.49359 0.0
C770 C 0.29624 0.02838 0.52848 0.0
C771 C 0.30986 0.01474 0.49953 0.0
C772 C 0.32499 0.02425 0.46626 0.0
C773 C 0.3271 0.04699 0.46428 0.0
C774 C 0.28028 0.01895 0.56524 0.0
C775 C 0.33945 0.01038 0.43375 0.0
C776 C 0.32618 0.9578 0.54019 0.0
C777 C 0.31278 0.94468 0.51054 0.0
C778 C 0.32449 0.98059 0.53901 0.0
C779 C 0.3095 0.99059 0.50618 0.0
C780 C 0.29548 0.97739 0.47718 0.0
C781 C 0.2971 0.95457 0.4802 0.0
C782 C 0.33936 0.99398 0.57158 0.0
C783 C 0.27964 0.98734 0.44089 0.0
H784 H 0.2883 0.06157 0.54786 0.0
H785 H 0.3392 0.05419 0.44001 0.0
H786 H 0.26976 0.00669 0.54692 0.0
H787 H 0.2893 0.01048 0.59527 0.0
H788 H 0.2698 0.03164 0.58232 0.0
H789 H 0.34879 0.02024 0.4065 0.0
H790 H 0.35114 1.00127 0.45723 0.0
H791 H 0.32959 0.99824 0.41316 0.0
H792 H 0.33828 0.95022 0.56383 0.0
H793 H 0.28691 0.9445 0.45671 0.0
H794 H 0.32989 0.00645 0.59212 0.0
H795 H 0.35137 1.00268 0.54813 0.0
H796 H 0.34833 0.98381 0.59885 0.0
H797 H 0.26964 0.99997 0.45944 0.0
H798 H 0.26864 0.975 0.42421 0.0
H799 H 0.28877 0.99546 0.41052 0.0
C800 C 0.04921 0.32842 0.52365 0.0
C801 C 0.06234 0.3152 0.49357 0.0
C802 C 0.02646 0.3265 0.52297 0.0
C803 C 0.01646 0.31145 0.49025 0.0
C804 C 0.02966 0.29779 0.46032 0.0
C805 C 0.05247 0.29963 0.46283 0.0
C806 C 0.01309 0.34099 0.55651 0.0
C807 C 0.01968 0.28192 0.42409 0.0
C808 C 0.95685 0.29842 0.51551 0.0
C809 C 0.94628 0.31412 0.48638 0.0
C810 C 0.97969 0.29686 0.51608 0.0
C811 C 0.99223 0.31096 0.48584 0.0
C812 C 0.98153 0.32596 0.45417 0.0
C813 C 0.95874 0.32758 0.45541 0.0
C814 C 0.99039 0.28101 0.55123 0.0
C815 C 0.9942 0.34091 0.42035 0.0
H816 H 0.05678 0.3404 0.54764 0.0
H817 H 0.06255 0.28956 0.43907 0.0
H818 H 0.00352 0.35258 0.53373 0.0
H819 H 1.00136 0.3311 0.57825 0.0
H820 H 0.02334 0.35044 0.58278 0.0
H821 H 0.03211 0.27162 0.40552 0.0
H822 H 0.00788 0.2712 0.44336 0.0
H823 H 0.01056 0.29099 0.39517 0.0
H824 H 0.94732 0.28817 0.54003 0.0
H825 H 0.95065 0.3397 0.43271 0.0
H826 H 0.99907 0.29015 0.58079 0.0
H827 H 1.00267 0.27106 0.53135 0.0
H828 H 0.97845 0.26994 0.56911 0.0
H829 H 0.00321 0.35302 0.44295 0.0
H830 H 0.98348 0.34979 0.39403 0.0
H831 H 0.00636 0.33152 0.3987 0.0
C832 C 0.26972 0.33494 0.96885 0.0
C833 C 0.25186 0.33219 0.00058 0.0
C834 C 0.28592 0.31887 0.96505 0.0
C835 C 0.28451 0.29989 0.99477 0.0
C836 C 0.26666 0.29724 0.02753 0.0
C837 C 0.2504 0.31328 0.0295 0.0
C838 C 0.30437 0.32206 0.92874 0.0
C839 C 0.26481 0.27754 0.06075 0.0
C840 C 0.3146 0.24837 0.95675 0.0
C841 C 0.33353 0.24968 0.98562 0.0
C842 C 0.29873 0.2648 0.95865 0.0
C843 C 0.30156 0.28267 0.99129 0.0
C844 C 0.32055 0.28393 0.02098 0.0
C845 C 0.33646 0.26757 0.01725 0.0
C846 C 0.279 0.2631 0.92548 0.0
C847 C 0.32394 0.3024 0.05717 0.0
H848 H 0.27083 0.34949 0.94621 0.0
H849 H 0.2367 0.31117 0.05439 0.0
H850 H 0.32012 0.32212 0.94879 0.0
H851 H 0.30482 0.30832 0.90198 0.0
H852 H 0.30286 0.3375 0.90759 0.0
H853 H 0.25039 0.27835 0.08557 0.0
H854 H 0.26363 0.26258 0.03785 0.0
H855 H 0.27963 0.276 0.08404 0.0
H856 H 0.31235 0.23465 0.93193 0.0
H857 H 0.35102 0.26857 0.03985 0.0
H858 H 0.27758 0.27791 0.90213 0.0
H859 H 0.26405 0.26207 0.94843 0.0
H860 H 0.27966 0.24864 0.90073 0.0
H861 H 0.32413 0.31814 0.03704 0.0
H862 H 0.33937 0.30077 0.07829 0.0
H863 H 0.31023 0.30301 0.08398 0.0
C864 C 0.73848 0.33627 0.02455 0.0
C865 C 0.75661 0.333 0.99383 0.0
C866 C 0.72205 0.32043 0.02825 0.0
C867 C 0.72346 0.30119 -0.00064 0.0
C868 C 0.74154 0.29807 0.96749 0.0
C869 C 0.75804 0.31385 0.96571 0.0
C870 C 0.70337 0.32412 0.06371 0.0
C871 C 0.7434 0.27809 0.93507 0.0
C872 C 0.69292 0.25008 0.03819 0.0
C873 C 0.67419 0.25123 0.00864 0.0
C874 C 0.70882 0.26648 0.03637 0.0
C875 C 0.70625 0.28413 0.00304 0.0
C876 C 0.68744 0.28524 0.9727 0.0
C877 C 0.67147 0.26894 0.97644 0.0
C878 C 0.72831 0.26495 0.07031 0.0
C879 C 0.68437 0.30344 0.9357 0.0
H880 H 0.7374 0.351 0.04657 0.0
H881 H 0.77195 0.31136 0.94158 0.0
H882 H 0.68776 0.32407 0.04311 0.0
H883 H 0.70265 0.31066 0.09114 0.0
H884 H 0.70484 0.33976 0.08412 0.0
H885 H 0.75793 0.27863 0.91053 0.0
H886 H 0.74442 0.26331 0.95859 0.0
H887 H 0.72867 0.27644 0.91154 0.0
H888 H 0.69499 0.23649 0.06346 0.0
H889 H 0.65706 0.2698 0.95331 0.0
H890 H 0.72973 0.28 0.09289 0.0
H891 H 0.74339 0.26353 0.04793 0.0
H892 H 0.72735 0.25077 0.09581 0.0
H893 H 0.68423 0.31934 0.95516 0.0
H894 H 0.66902 0.30177 0.91429 0.0
H895 H 0.6982 0.3037 0.90919 0.0
C896 C 0.75568 0.69235 0.02714 0.0
C897 C 0.75452 0.67378 0.99698 0.0
C898 C 0.73915 0.70812 0.02633 0.0
C899 C 0.72137 0.70564 0.99335 0.0
C900 C 0.72024 0.68699 0.96243 0.0
C901 C 0.73666 0.6711 0.96522 0.0
C902 C 0.7407 0.72742 0.06093 0.0
C903 C 0.7019 0.68402 0.92576 0.0
C904 C 0.66928 0.73757 0.01739 0.0
C905 C 0.67231 0.75589 0.98718 0.0
C906 C 0.68516 0.72114 0.02003 0.0
C907 C 0.70422 0.72278 0.99065 0.0
C908 C 0.70712 0.74109 0.95935 0.0
C909 C 0.69128 0.75756 0.95855 0.0
C910 C 0.68171 0.7022 0.05488 0.0
C911 C 0.72693 0.74324 0.92651 0.0
H912 H 0.76937 0.69437 0.05209 0.0
H913 H 0.73581 0.65681 0.94164 0.0
H914 H 0.74197 0.74265 0.03907 0.0
H915 H 0.72574 0.72861 0.08384 0.0
H916 H 0.75497 0.72636 0.08614 0.0
H917 H 0.70354 0.66878 0.90389 0.0
H918 H 0.68609 0.68372 0.94558 0.0
H919 H 0.70147 0.698 0.89966 0.0
H920 H 0.65468 0.73628 0.03978 0.0
H921 H 0.6936 0.77161 0.93479 0.0
H922 H 0.69528 0.70136 0.08199 0.0
H923 H 0.68173 0.68672 0.03372 0.0
H924 H 0.66615 0.70347 0.07568 0.0
H925 H 0.7418 0.74418 0.94971 0.0
H926 H 0.72622 0.75791 0.90248 0.0
H927 H 0.72853 0.72865 0.90246 0.0
C928 C 0.24774 0.6929 0.97063 0.0
C929 C 0.24924 0.67372 -0.00141 0.0
C930 C 0.26419 0.70874 0.97259 0.0
C931 C 0.28225 0.70565 0.00448 0.0
C932 C 0.2837 0.6864 0.03328 0.0
C933 C 0.26733 0.6705 0.02939 0.0
C934 C 0.2623 0.72873 0.94025 0.0
C935 C 0.30236 0.68274 0.06876 0.0
C936 C 0.33424 0.73781 0.98122 0.0
C937 C 0.33157 0.75556 0.01337 0.0
C938 C 0.31825 0.72153 0.97762 0.0
C939 C 0.29947 0.72269 0.00806 0.0
C940 C 0.29695 0.74038 0.04135 0.0
C941 C 0.31286 0.75677 0.04303 0.0
C942 C 0.32128 0.70329 0.94065 0.0
C943 C 0.27748 0.74195 0.0754 0.0
H944 H 0.23386 0.69536 0.94644 0.0
H945 H 0.26845 0.65574 0.05129 0.0
H946 H 0.26134 0.74351 0.96382 0.0
H947 H 0.27699 0.73036 0.91659 0.0
H948 H 0.24774 0.72822 0.91585 0.0
H949 H 0.30085 0.66714 0.08929 0.0
H950 H 0.31797 0.6827 0.04814 0.0
H951 H 0.30311 0.69625 0.09609 0.0
H952 H 0.34863 0.73691 0.95801 0.0
H953 H 0.31083 0.77038 0.06826 0.0
H954 H 0.30742 0.70301 0.91423 0.0
H955 H 0.32143 0.68741 0.96016 0.0
H956 H 0.33661 0.70493 0.91914 0.0
H957 H 0.26238 0.74337 0.0531 0.0
H958 H 0.27848 0.75614 0.10086 0.0
H959 H 0.27607 0.72692 0.09801 0.0
C960 C 0.83442 0.76921 0.51608 0.0
C961 C 0.83161 0.75139 0.48419 0.0
C962 C 0.81847 0.78553 0.51975 0.0
C963 C 0.79959 0.78433 0.48967 0.0
C964 C 0.79693 0.76657 0.45665 0.0
C965 C 0.81281 0.75015 0.45488 0.0
C966 C 0.82165 0.80386 0.55641 0.0
C967 C 0.77734 0.76494 0.42301 0.0
C968 C 0.74795 0.8142 0.52741 0.0
C969 C 0.74931 0.83326 0.49899 0.0
C970 C 0.76443 0.7984 0.52556 0.0
C971 C 0.7824 0.8014 0.49334 0.0
C972 C 0.78374 0.82055 0.46415 0.0
C973 C 0.76733 0.83641 0.46791 0.0
C974 C 0.76265 0.77852 0.55829 0.0
C975 C 0.80231 0.82411 0.42835 0.0
H976 H 0.84888 0.77014 0.53902 0.0
H977 H 0.81068 0.73649 0.42985 0.0
H978 H 0.82173 0.8197 0.53669 0.0
H979 H 0.8079 0.80422 0.58313 0.0
H980 H 0.83707 0.80227 0.5776 0.0
H981 H 0.77823 0.75068 0.39771 0.0
H982 H 0.76232 0.7636 0.44562 0.0
H983 H 0.77587 0.77992 0.40022 0.0
H984 H 0.73412 0.8118 0.55181 0.0
H985 H 0.76836 0.85108 0.44567 0.0
H986 H 0.77744 0.77695 0.58164 0.0
H987 H 0.76157 0.76367 0.535 0.0
H988 H 0.7482 0.77913 0.58303 0.0
H989 H 0.81799 0.82413 0.44869 0.0
H990 H 0.80078 0.83969 0.40772 0.0
H991 H 0.80294 0.81056 0.4011 0.0
C992 C 0.23626 0.83509 0.53041 0.0
C993 C 0.2545 0.83212 0.49991 0.0
C994 C 0.21986 0.81917 0.53312 0.0
C995 C 0.22144 0.80017 0.50344 0.0
C996 C 0.23964 0.79736 0.4718 0.0
C997 C 0.2561 0.81321 0.47101 0.0
C998 C 0.20103 0.82251 0.56833 0.0
C999 C 0.2417 0.77766 0.43858 0.0
C1000 C 0.19089 0.74866 0.5393 0.0
C1001 C 0.17229 0.75001 0.50937 0.0
C1002 C 0.20675 0.76511 0.53857 0.0
C1003 C 0.20427 0.78304 0.50598 0.0
C1004 C 0.1856 0.78435 0.47523 0.0
C1005 C 0.16967 0.76798 0.47786 0.0
C1006 C 0.2261 0.76336 0.57289 0.0
C1007 C 0.18264 0.80285 0.43898 0.0
H1008 H 0.23504 0.84964 0.55302 0.0
H1009 H 0.27009 0.81095 0.44703 0.0
H1010 H 0.1855 0.82261 0.5474 0.0
H1011 H 0.20024 0.80882 0.59515 0.0
H1012 H 0.20238 0.83799 0.58945 0.0
H1013 H 0.25632 0.77842 0.4144 0.0
H1014 H 0.24264 0.76269 0.46148 0.0
H1015 H 0.22708 0.77617 0.41464 0.0
H1016 H 0.19287 0.73489 0.56405 0.0
H1017 H 0.15535 0.769 0.45447 0.0
H1018 H 0.22735 0.77821 0.5962 0.0
H1019 H 0.24128 0.76219 0.55081 0.0
H1020 H 0.22507 0.74896 0.59771 0.0
H1021 H 0.18234 0.81859 0.45917 0.0
H1022 H 0.16739 0.80131 0.41712 0.0
H1023 H 0.19659 0.8034 0.41284 0.0
C1024 C 0.25683 0.19025 0.46115 0.0
C1025 C 0.25543 0.17256 0.49371 0.0
C1026 C 0.2403 0.20603 0.45947 0.0
C1027 C 0.22251 0.20458 0.49286 0.0
C1028 C 0.22125 0.18681 0.5263 0.0
C1029 C 0.23751 0.17074 0.52553 0.0
C1030 C 0.24185 0.2242 0.42191 0.0
C1031 C 0.20308 0.18509 0.56385 0.0
C1032 C 0.19299 0.2578 0.51951 0.0
C1033 C 0.1737 0.25509 0.49261 0.0
C1034 C 0.20869 0.2412 0.52122 0.0
C1035 C 0.20545 0.22187 0.4934 0.0
C1036 C 0.18604 0.21924 0.46564 0.0
C1037 C 0.17016 0.2357 0.4665 0.0
C1038 C 0.22871 0.24432 0.55292 0.0
C1039 C 0.18231 0.19932 0.43391 0.0
H1040 H 0.27072 0.19153 0.43647 0.0
H1041 H 0.23665 0.15712 0.55108 0.0
H1042 H 0.22664 0.22511 0.39981 0.0
H1043 H 0.24377 0.24001 0.44128 0.0
H1044 H 0.25578 0.22203 0.39606 0.0
H1045 H 0.20475 0.17055 0.58804 0.0
H1046 H 0.20286 0.19984 0.58768 0.0
H1047 H 0.18716 0.18427 0.54462 0.0
H1048 H 0.19562 0.2728 0.53987 0.0
H1049 H 0.15532 0.23378 0.44522 0.0
H1050 H 0.24338 0.24494 0.52902 0.0
H1051 H 0.23069 0.23033 0.57857 0.0
H1052 H 0.22797 0.25952 0.57523 0.0
H1053 H 0.19569 0.19765 0.40648 0.0
H1054 H 0.16661 0.20001 0.41353 0.0
H1055 H 0.18244 0.18448 0.45732 0.0
C1056 C 0.8367 0.23831 0.47515 0.0
C1057 C 0.83419 0.25621 0.50694 0.0
C1058 C 0.82075 0.22194 0.4726 0.0
C1059 C 0.80218 0.22319 0.5037 0.0
C1060 C 0.79984 0.24103 0.53664 0.0
C1061 C 0.8157 0.25748 0.53729 0.0
C1062 C 0.82357 0.20354 0.43599 0.0
C1063 C 0.78061 0.24271 0.57135 0.0
C1064 C 0.75017 0.19331 0.46881 0.0
C1065 C 0.75178 0.17428 0.49725 0.0
C1066 C 0.76667 0.20911 0.46974 0.0
C1067 C 0.78494 0.20612 0.50107 0.0
C1068 C 0.78653 0.18701 0.53031 0.0
C1069 C 0.77007 0.17115 0.52746 0.0
C1070 C 0.7646 0.22895 0.43699 0.0
C1071 C 0.80542 0.18347 0.56519 0.0
H1072 H 0.85092 0.23735 0.45143 0.0
H1073 H 0.8138 0.2712 0.56226 0.0
H1074 H 0.82383 0.18774 0.45587 0.0
H1075 H 0.80957 0.20314 0.40997 0.0
H1076 H 0.83879 0.20508 0.41401 0.0
H1077 H 0.78177 0.257 0.5965 0.0
H1078 H 0.76536 0.24404 0.54957 0.0
H1079 H 0.77936 0.22776 0.5943 0.0
H1080 H 0.73613 0.1957 0.44505 0.0
H1081 H 0.7713 0.1565 0.54972 0.0
H1082 H 0.77916 0.23047 0.41286 0.0
H1083 H 0.76377 0.24383 0.46023 0.0
H1084 H 0.74991 0.22833 0.41302 0.0
H1085 H 0.8209 0.18339 0.54405 0.0
H1086 H 0.80407 0.16793 0.58602 0.0
H1087 H 0.80634 0.19707 0.59228 0.0
C1088 C 0.15931 0.34342 0.3609 0.0
C1089 C 0.1388 0.33378 0.36498 0.0
C1090 C 0.16649 0.3521 0.31552 0.0
C1091 C 0.15233 0.35202 0.27378 0.0
C1092 C 0.13107 0.34328 0.27907 0.0
C1093 C 0.12482 0.33374 0.32422 0.0
C1094 C 0.18952 0.36059 0.313 0.0
C1095 C 0.11453 0.34436 0.23797 0.0
C1096 C 0.17266 0.38781 0.16768 0.0
C1097 C 0.1782 0.37227 0.13209 0.0
C1098 C 0.16281 0.38154 0.21255 0.0
C1099 C 0.16039 0.35916 0.22395 0.0
C1100 C 0.16694 0.34339 0.18849 0.0
C1101 C 0.17509 0.35019 0.14234 0.0
C1102 C 0.15496 0.39885 0.24755 0.0
C1103 C 0.16591 0.31933 0.19964 0.0
H1104 H 0.1702 0.34318 0.39262 0.0
H1105 H 0.10889 0.32633 0.32783 0.0
H1106 H 0.19606 0.36126 0.27463 0.0
H1107 H 0.18999 0.37719 0.32918 0.0
H1108 H 0.20053 0.3503 0.33578 0.0
H1109 H 0.10185 0.33161 0.24203 0.0
H1110 H 0.10637 0.36042 0.24011 0.0
H1111 H 0.12205 0.34273 0.20079 0.0
H1112 H 0.17576 0.40483 0.16016 0.0
H1113 H 0.17992 0.33819 0.11489 0.0
H1114 H 0.16499 0.39861 0.2817 0.0
H1115 H 0.13783 0.39542 0.25787 0.0
H1116 H 0.15592 0.4154 0.23113 0.0
H1117 H 0.17328 0.31589 0.23649 0.0
H1118 H 0.17447 0.30946 0.17108 0.0
H1119 H 0.14871 0.31395 0.20102 0.0
C1120 C 0.67502 0.12227 0.32936 0.0
C1121 C 0.67492 0.1363 0.37006 0.0
C1122 C 0.66563 0.12854 0.28402 0.0
C1123 C 0.65696 0.14983 0.27858 0.0
C1124 C 0.65694 0.16407 0.32021 0.0
C1125 C 0.66543 0.15688 0.36571 0.0
C1126 C 0.66461 0.11198 0.24292 0.0
C1127 C 0.64862 0.18717 0.31744 0.0
C1128 C 0.65782 0.17301 0.14746 0.0
C1129 C 0.63567 0.17622 0.13826 0.0
C1130 C 0.66499 0.16456 0.19306 0.0
C1131 C 0.6495 0.15782 0.22894 0.0
C1132 C 0.62704 0.16027 0.21847 0.0
C1133 C 0.62043 0.17042 0.17424 0.0
C1134 C 0.68911 0.16353 0.20329 0.0
C1135 C 0.61004 0.1521 0.25378 0.0
H1136 H 0.68231 0.10629 0.33316 0.0
H1137 H 0.66562 0.16781 0.39739 0.0
H1138 H 0.64866 0.10363 0.24523 0.0
H1139 H 0.66608 0.11951 0.20573 0.0
H1140 H 0.6775 0.09944 0.24684 0.0
H1141 H 0.65867 0.1981 0.341 0.0
H1142 H 0.64849 0.19378 0.2791 0.0
H1143 H 0.63183 0.18773 0.33248 0.0
H1144 H 0.66959 0.17802 0.1197 0.0
H1145 H 0.60335 0.17354 0.16751 0.0
H1146 H 0.69448 0.14632 0.20476 0.0
H1147 H 0.69281 0.17101 0.23991 0.0
H1148 H 0.69878 0.17199 0.17425 0.0
H1149 H 0.61353 0.13485 0.26289 0.0
H1150 H 0.59335 0.15328 0.2382 0.0
H1151 H 0.61063 0.16174 0.28848 0.0
C1152 C 0.84833 0.67273 0.34579 0.0
C1153 C 0.87044 0.67614 0.35513 0.0
C1154 C 0.84129 0.66418 0.30018 0.0
C1155 C 0.85689 0.65754 0.26441 0.0
C1156 C 0.87931 0.66016 0.27506 0.0
C1157 C 0.88578 0.6704 0.3193 0.0
C1158 C 0.8172 0.66296 0.28975 0.0
C1159 C 0.89643 0.6521 0.23988 0.0
C1160 C 0.83169 0.62189 0.16373 0.0
C1161 C 0.83163 0.63599 0.12316 0.0
C1162 C 0.84108 0.62817 0.20907 0.0
C1163 C 0.84955 0.64953 0.21468 0.0
C1164 C 0.84944 0.66383 0.17319 0.0
C1165 C 0.84096 0.65663 0.12766 0.0
C1166 C 0.84234 0.61157 0.25001 0.0
C1167 C 0.85759 0.68698 0.17617 0.0
H1168 H 0.83648 0.67768 0.37345 0.0
H1169 H 0.90282 0.67366 0.32616 0.0
H1170 H 0.81349 0.67053 0.25324 0.0
H1171 H 0.81198 0.64572 0.2879 0.0
H1172 H 0.80741 0.67125 0.31886 0.0
H1173 H 0.893 0.63487 0.23037 0.0
H1174 H 0.89593 0.66186 0.20535 0.0
H1175 H 0.91306 0.65326 0.25574 0.0
H1176 H 0.82454 0.60585 0.15979 0.0
H1177 H 0.84066 0.6676 0.09608 0.0
H1178 H 0.82992 0.5986 0.24549 0.0
H1179 H 0.84033 0.61901 0.28717 0.0
H1180 H 0.85859 0.6038 0.24829 0.0
H1181 H 0.84759 0.69785 0.15235 0.0
H1182 H 0.87446 0.68764 0.16163 0.0
H1183 H 0.85747 0.69359 0.21453 0.0
C1184 C 0.33242 0.88518 0.33411 0.0
C1185 C 0.33131 0.87056 0.37363 0.0
C1186 C 0.34194 0.87905 0.28879 0.0
C1187 C 0.34934 0.85738 0.28202 0.0
C1188 C 0.348 0.84251 0.32221 0.0
C1189 C 0.3395 0.84948 0.36794 0.0
C1190 C 0.34441 0.89598 0.24888 0.0
C1191 C 0.35428 0.81889 0.3162 0.0
C1192 C 0.34838 0.83474 0.15044 0.0
C1193 C 0.37048 0.83102 0.14159 0.0
C1194 C 0.34126 0.84337 0.19593 0.0
C1195 C 0.35678 0.84961 0.23219 0.0
C1196 C 0.37921 0.84686 0.22187 0.0
C1197 C 0.38575 0.83662 0.17767 0.0
C1198 C 0.31715 0.84509 0.20575 0.0
C1199 C 0.39628 0.85498 0.25717 0.0
H1200 H 0.32598 0.90147 0.33885 0.0
H1201 H 0.33819 0.8381 0.3986 0.0
H1202 H 0.36156 0.90148 0.24882 0.0
H1203 H 0.34058 0.88925 0.21172 0.0
H1204 H 0.33391 0.91039 0.25561 0.0
H1205 H 0.35071 0.80917 0.35004 0.0
H1206 H 0.34534 0.81167 0.28436 0.0
H1207 H 0.37187 0.81747 0.30803 0.0
H1208 H 0.33658 0.82999 0.1225 0.0
H1209 H 0.4028 0.83326 0.17104 0.0
H1210 H 0.31245 0.8624 0.21013 0.0
H1211 H 0.313 0.83662 0.24096 0.0
H1212 H 0.30729 0.83795 0.17522 0.0
H1213 H 0.39339 0.8725 0.26459 0.0
H1214 H 0.41302 0.85291 0.24238 0.0
H1215 H 0.39504 0.84609 0.29279 0.0
C1216 C 0.15541 0.67168 0.6462 0.0
C1217 C 0.13327 0.67511 0.63735 0.0
C1218 C 0.16264 0.6632 0.69171 0.0
C1219 C 0.1472 0.6568 0.728 0.0
C1220 C 0.12473 0.65931 0.71777 0.0
C1221 C 0.11807 0.66942 0.67353 0.0
C1222 C 0.18677 0.66174 0.70146 0.0
C1223 C 0.10776 0.65103 0.75311 0.0
C1224 C 0.17193 0.62121 0.82932 0.0
C1225 C 0.17278 0.6357 0.86916 0.0
C1226 C 0.1624 0.62738 0.78406 0.0
C1227 C 0.15473 0.64898 0.77769 0.0
C1228 C 0.15587 0.66374 0.81816 0.0
C1229 C 0.16435 0.6567 0.86384 0.0
C1230 C 0.16023 0.61054 0.74384 0.0
C1231 C 0.14938 0.68731 0.81254 0.0
H1232 H 0.16715 0.67652 0.6182 0.0
H1233 H 0.10099 0.6726 0.66694 0.0
H1234 H 0.19082 0.67007 0.7369 0.0
H1235 H 0.19168 0.64446 0.7053 0.0
H1236 H 0.19653 0.66916 0.67112 0.0
H1237 H 0.1107 0.63348 0.76005 0.0
H1238 H 0.10906 0.65975 0.78895 0.0
H1239 H 0.09099 0.65312 0.73861 0.0
H1240 H 0.17856 0.60499 0.83377 0.0
H1241 H 0.16549 0.66799 0.89474 0.0
H1242 H 0.1635 0.61749 0.70662 0.0
H1243 H 0.1433 0.60438 0.74444 0.0
H1244 H 0.1713 0.5965 0.74983 0.0
H1245 H 0.1582 0.69468 0.7807 0.0
H1246 H 0.15293 0.69699 0.84648 0.0
H1247 H 0.13176 0.6886 0.80457 0.0
C1248 C 0.34231 0.15791 0.62657 0.0
C1249 C 0.33362 0.13701 0.62148 0.0
C1250 C 0.35098 0.16492 0.67214 0.0
C1251 C 0.35198 0.15022 0.71274 0.0
C1252 C 0.34409 0.1287 0.70652 0.0
C1253 C 0.33442 0.12258 0.66141 0.0
C1254 C 0.35767 0.18844 0.67765 0.0
C1255 C 0.34614 0.11189 0.74682 0.0
C1256 C 0.3883 0.17002 0.81838 0.0
C1257 C 0.37295 0.17568 0.85428 0.0
C1258 C 0.38179 0.16024 0.77359 0.0
C1259 C 0.35936 0.15806 0.76257 0.0
C1260 C 0.34378 0.1645 0.79855 0.0
C1261 C 0.35082 0.17263 0.84455 0.0
C1262 C 0.39888 0.15196 0.73851 0.0
C1263 C 0.31969 0.16332 0.78807 0.0
H1264 H 0.34118 0.16918 0.59564 0.0
H1265 H 0.32756 0.10643 0.65717 0.0
H1266 H 0.3485 0.19604 0.7087 0.0
H1267 H 0.37517 0.18959 0.68687 0.0
H1268 H 0.35468 0.19799 0.64327 0.0
H1269 H 0.36305 0.10568 0.74636 0.0
H1270 H 0.34284 0.11889 0.784 0.0
H1271 H 0.33502 0.09788 0.74081 0.0
H1272 H 0.40537 0.17294 0.82562 0.0
H1273 H 0.33897 0.17747 0.87231 0.0
H1274 H 0.41557 0.15361 0.75382 0.0
H1275 H 0.39805 0.16107 0.70312 0.0
H1276 H 0.3957 0.13454 0.73046 0.0
H1277 H 0.31593 0.17163 0.75244 0.0
H1278 H 0.30985 0.17092 0.81806 0.0
H1279 H 0.3146 0.1461 0.78426 0.0
C1280 C 0.83379 0.38511 0.82536 0.0
C1281 C 0.83373 0.37098 0.86587 0.0
C1282 C 0.84339 0.37896 0.78012 0.0
C1283 C 0.85205 0.35768 0.7745 0.0
C1284 C 0.85194 0.34335 0.81593 0.0
C1285 C 0.84327 0.35043 0.86139 0.0
C1286 C 0.84472 0.39562 0.73931 0.0
C1287 C 0.86033 0.32028 0.81293 0.0
C1288 C 0.85119 0.33454 0.64327 0.0
C1289 C 0.87335 0.33138 0.63393 0.0
C1290 C 0.84404 0.34299 0.6889 0.0
C1291 C 0.85953 0.34977 0.72475 0.0
C1292 C 0.88198 0.34739 0.71412 0.0
C1293 C 0.8886 0.33727 0.66982 0.0
C1294 C 0.81992 0.34394 0.69929 0.0
C1295 C 0.89899 0.3556 0.74938 0.0
H1296 H 0.82648 0.40108 0.82927 0.0
H1297 H 0.843 0.33943 0.89293 0.0
H1298 H 0.86113 0.40307 0.74056 0.0
H1299 H 0.84238 0.38825 0.70215 0.0
H1300 H 0.83257 0.40882 0.74426 0.0
H1301 H 0.85051 0.30931 0.83689 0.0
H1302 H 0.8602 0.31366 0.77457 0.0
H1303 H 0.87724 0.31981 0.82723 0.0
H1304 H 0.83941 0.32947 0.61559 0.0
H1305 H 0.90568 0.33422 0.66296 0.0
H1306 H 0.81452 0.36112 0.70144 0.0
H1307 H 0.81627 0.3362 0.73565 0.0
H1308 H 0.81023 0.33565 0.67001 0.0
H1309 H 0.89544 0.37283 0.75868 0.0
H1310 H 0.91566 0.35451 0.73367 0.0
H1311 H 0.89848 0.34591 0.784 0.0
C1312 C 0.6557 0.83465 0.85045 0.0
C1313 C 0.63357 0.8312 0.85946 0.0
C1314 C 0.66287 0.8432 0.80494 0.0
C1315 C 0.64738 0.84979 0.76893 0.0
C1316 C 0.62493 0.84713 0.77926 0.0
C1317 C 0.61833 0.83689 0.8234 0.0
C1318 C 0.68699 0.84446 0.79486 0.0
C1319 C 0.6079 0.85522 0.74392 0.0
C1320 C 0.67266 0.88542 0.66827 0.0
C1321 C 0.67273 0.87131 0.62768 0.0
C1322 C 0.66327 0.87914 0.71363 0.0
C1323 C 0.65483 0.85777 0.71926 0.0
C1324 C 0.65501 0.84345 0.67779 0.0
C1325 C 0.66345 0.85065 0.63222 0.0
C1326 C 0.66197 0.89577 0.75455 0.0
C1327 C 0.64696 0.82025 0.68083 0.0
H1328 H 0.66748 0.82973 0.87828 0.0
H1329 H 0.60128 0.8336 0.83 0.0
H1330 H 0.69082 0.83687 0.75841 0.0
H1331 H 0.69219 0.86171 0.79309 0.0
H1332 H 0.6967 0.8362 0.82412 0.0
H1333 H 0.61121 0.87256 0.73523 0.0
H1334 H 0.6087 0.84575 0.709 0.0
H1335 H 0.5912 0.85378 0.75927 0.0
H1336 H 0.67979 0.90146 0.66433 0.0
H1337 H 0.66376 0.83967 0.60063 0.0
H1338 H 0.66381 0.88834 0.79177 0.0
H1339 H 0.64577 0.90364 0.75257 0.0
H1340 H 0.67448 0.90867 0.75021 0.0
H1341 H 0.64726 0.81365 0.71918 0.0
H1342 H 0.65691 0.80943 0.65678 0.0
H1343 H 0.63004 0.81953 0.66666 0.0
C1344 C 0.85061 0.65351 0.62719 0.0
C1345 C 0.8579 0.67444 0.6144 0.0
C1346 C 0.84278 0.6489 0.67483 0.0
C1347 C 0.84231 0.66556 0.71103 0.0
C1348 C 0.84862 0.68698 0.69792 0.0
C1349 C 0.8563 0.69121 0.64957 0.0
C1350 C 0.83614 0.62584 0.6871 0.0
C1351 C 0.84831 0.70516 0.73563 0.0
C1352 C 0.81312 0.65139 0.83166 0.0
C1353 C 0.83047 0.64383 0.86083 0.0
C1354 C 0.81672 0.65931 0.78323 0.0
C1355 C 0.83813 0.65965 0.76375 0.0
C1356 C 0.85568 0.65243 0.79335 0.0
C1357 C 0.85165 0.64461 0.84126 0.0
C1358 C 0.79763 0.6669 0.75259 0.0
C1359 C 0.87877 0.65242 0.77398 0.0
H1360 H 0.85136 0.64047 0.60013 0.0
H1361 H 0.8617 0.70745 0.63989 0.0
H1362 H 0.84814 0.61861 0.71307 0.0
H1363 H 0.8201 0.62564 0.70595 0.0
H1364 H 0.8352 0.61538 0.65348 0.0
H1365 H 0.85079 0.72133 0.71809 0.0
H1366 H 0.83267 0.7053 0.75615 0.0
H1367 H 0.86143 0.70251 0.76327 0.0
H1368 H 0.79674 0.65107 0.84651 0.0
H1369 H 0.86528 0.63902 0.86335 0.0
H1370 H 0.79532 0.65584 0.72042 0.0
H1371 H 0.80081 0.68338 0.73746 0.0
H1372 H 0.78231 0.66732 0.77446 0.0
H1373 H 0.88014 0.641 0.74217 0.0
H1374 H 0.89073 0.6475 0.80281 0.0
H1375 H 0.88321 0.66883 0.76023 0.0
C1376 C 0.31291 0.85535 0.66571 0.0
C1377 C 0.33034 0.86195 0.63557 0.0
C1378 C 0.31655 0.84753 0.7142 0.0
C1379 C 0.33807 0.84629 0.73276 0.0
C1380 C 0.3557 0.85241 0.70208 0.0
C1381 C 0.35163 0.86015 0.65413 0.0
C1382 C 0.29737 0.8411 0.74597 0.0
C1383 C 0.37892 0.85142 0.7204 0.0
C1384 C 0.35176 0.8533 0.86849 0.0
C1385 C 0.35816 0.8322 0.88227 0.0
C1386 C 0.34388 0.85776 0.82083 0.0
C1387 C 0.3424 0.84076 0.78562 0.0
C1388 C 0.34782 0.81921 0.79974 0.0
C1389 C 0.35562 0.81515 0.84806 0.0
C1390 C 0.33825 0.88097 0.80744 0.0
C1391 C 0.34639 0.80067 0.76313 0.0
H1392 H 0.29644 0.85646 0.65164 0.0
H1393 H 0.36533 0.86492 0.63124 0.0
H1394 H 0.30001 0.82473 0.76224 0.0
H1395 H 0.29568 0.8527 0.77734 0.0
H1396 H 0.28192 0.84097 0.7246 0.0
H1397 H 0.39085 0.85542 0.69077 0.0
H1398 H 0.38116 0.86308 0.75148 0.0
H1399 H 0.38265 0.83495 0.73489 0.0
H1400 H 0.35323 0.86658 0.89479 0.0
H1401 H 0.3603 0.79878 0.85849 0.0
H1402 H 0.32206 0.88173 0.78939 0.0
H1403 H 0.35033 0.8873 0.78042 0.0
H1404 H 0.33814 0.89186 0.84042 0.0
H1405 H 0.33059 0.80104 0.74323 0.0
H1406 H 0.34825 0.78459 0.78151 0.0
H1407 H 0.3594 0.8024 0.73482 0.0
C1408 C 0.15036 0.31319 0.65633 0.0
C1409 C 0.14196 0.33046 0.62813 0.0
C1410 C 0.15822 0.31668 0.70489 0.0
C1411 C 0.15766 0.33791 0.72544 0.0
C1412 C 0.14927 0.35534 0.69709 0.0
C1413 C 0.14148 0.3514 0.64912 0.0
C1414 C 0.16697 0.29771 0.73429 0.0
C1415 C 0.14826 0.37823 0.7176 0.0
C1416 C 0.15342 0.34992 0.86261 0.0
C1417 C 0.17419 0.35817 0.87344 0.0
C1418 C 0.14834 0.34176 0.81547 0.0
C1419 C 0.16433 0.34206 0.77773 0.0
C1420 C 0.18566 0.34932 0.78889 0.0
C1421 C 0.19039 0.35721 0.83682 0.0
C1422 C 0.12544 0.33404 0.80534 0.0
C1423 C 0.20311 0.34992 0.74948 0.0
H1424 H 0.15099 0.297 0.6404 0.0
H1425 H 0.1351 0.36496 0.62792 0.0
H1426 H 0.18375 0.30125 0.74706 0.0
H1427 H 0.15688 0.29516 0.76798 0.0
H1428 H 0.16714 0.28241 0.7123 0.0
H1429 H 0.14218 0.39014 0.68984 0.0
H1430 H 0.13737 0.3787 0.75047 0.0
H1431 H 0.16463 0.38349 0.73008 0.0
H1432 H 0.14084 0.35018 0.89082 0.0
H1433 H 0.20651 0.36337 0.84499 0.0
H1434 H 0.12564 0.31819 0.78563 0.0
H1435 H 0.11706 0.34592 0.78089 0.0
H1436 H 0.11579 0.33225 0.84002 0.0
H1437 H 0.20359 0.33435 0.72868 0.0
H1438 H 0.21946 0.3531 0.76551 0.0
H1439 H 0.19936 0.36299 0.72235 0.0
C1440 C 0.65472 0.15305 0.86585 0.0
C1441 C 0.64776 0.17407 0.8789 0.0
C1442 C 0.66263 0.14844 0.81826 0.0
C1443 C 0.66352 0.1652 0.78237 0.0
C1444 C 0.65752 0.18669 0.79574 0.0
C1445 C 0.64975 0.19091 0.84402 0.0
C1446 C 0.66892 0.12531 0.8057 0.0
C1447 C 0.65829 0.20497 0.75837 0.0
C1448 C 0.69307 0.15098 0.66218 0.0
C1449 C 0.67574 0.14379 0.63243 0.0
C1450 C 0.68936 0.15878 0.71068 0.0
C1451 C 0.66787 0.15939 0.72965 0.0
C1452 C 0.65035 0.15256 0.69946 0.0
C1453 C 0.65449 0.14485 0.65149 0.0
C1454 C 0.70843 0.16594 0.74196 0.0
C1455 C 0.62718 0.15286 0.71824 0.0
H1456 H 0.65367 0.13994 0.89267 0.0
H1457 H 0.64461 0.20721 0.85389 0.0
H1458 H 0.65693 0.11838 0.77926 0.0
H1459 H 0.68505 0.1249 0.78727 0.0
H1460 H 0.66951 0.11472 0.83912 0.0
H1461 H 0.65593 0.22112 0.77611 0.0
H1462 H 0.67405 0.20495 0.73831 0.0
H1463 H 0.64529 0.20258 0.73028 0.0
H1464 H 0.70951 0.15043 0.64773 0.0
H1465 H 0.64087 0.13957 0.62895 0.0
H1466 H 0.71039 0.15473 0.77395 0.0
H1467 H 0.70544 0.18242 0.75735 0.0
H1468 H 0.72386 0.16619 0.72049 0.0
H1469 H 0.62546 0.14136 0.74978 0.0
H1470 H 0.61528 0.14824 0.68901 0.0
H1471 H 0.62293 0.1693 0.73222 0.0
C1472 C 0.85294 0.35431 0.3621 0.0
C1473 C 0.86001 0.33331 0.37493 0.0
C1474 C 0.84507 0.35897 0.31451 0.0
C1475 C 0.84431 0.34228 0.27841 0.0
C1476 C 0.85039 0.32079 0.29159 0.0
C1477 C 0.85813 0.31652 0.33987 0.0
C1478 C 0.8387 0.38209 0.30217 0.0
C1479 C 0.84976 0.30257 0.25401 0.0
C1480 C 0.81499 0.35651 0.15796 0.0
C1481 C 0.83236 0.36379 0.12843 0.0
C1482 C 0.81862 0.3487 0.20647 0.0
C1483 C 0.84006 0.34816 0.22569 0.0
C1484 C 0.85762 0.35511 0.19574 0.0
C1485 C 0.85357 0.36284 0.14776 0.0
C1486 C 0.79951 0.34142 0.23749 0.0
C1487 C 0.88075 0.35489 0.21478 0.0
H1488 H 0.85391 0.36738 0.38907 0.0
H1489 H 0.86336 0.30023 0.34956 0.0
H1490 H 0.85073 0.38914 0.27599 0.0
H1491 H 0.82262 0.38247 0.28353 0.0
H1492 H 0.83797 0.39261 0.33573 0.0
H1493 H 0.8521 0.28639 0.27162 0.0
H1494 H 0.83406 0.30259 0.23374 0.0
H1495 H 0.86283 0.30503 0.22614 0.0
H1496 H 0.79858 0.35698 0.14332 0.0
H1497 H 0.86721 0.36819 0.12539 0.0
H1498 H 0.79745 0.35256 0.26961 0.0
H1499 H 0.80251 0.32492 0.25269 0.0
H1500 H 0.78412 0.34118 0.21587 0.0
H1501 H 0.88234 0.36633 0.24649 0.0
H1502 H 0.8927 0.35963 0.18574 0.0
H1503 H 0.88505 0.33845 0.22859 0.0
C1504 C 0.64752 0.81604 0.15376 0.0
C1505 C 0.64531 0.83292 0.11904 0.0
C1506 C 0.65515 0.82029 0.20216 0.0
C1507 C 0.66077 0.84185 0.2158 0.0
C1508 C 0.6596 0.85867 0.18012 0.0
C1509 C 0.65185 0.85402 0.13242 0.0
C1510 C 0.65623 0.80194 0.2393 0.0
C1511 C 0.66547 0.88188 0.19298 0.0
C1512 C 0.65181 0.86203 0.34689 0.0
C1513 C 0.67312 0.8635 0.36549 0.0
C1514 C 0.64763 0.85416 0.29907 0.0
C1515 C 0.66516 0.84761 0.26855 0.0
C1516 C 0.6867 0.84859 0.28711 0.0
C1517 C 0.69045 0.85653 0.33547 0.0
C1518 C 0.62441 0.85344 0.28074 0.0
C1519 C 0.70578 0.84174 0.25549 0.0
H1520 H 0.64269 0.79967 0.14367 0.0
H1521 H 0.65062 0.86718 0.10575 0.0
H1522 H 0.67202 0.80215 0.25923 0.0
H1523 H 0.64325 0.80408 0.26753 0.0
H1524 H 0.65409 0.78579 0.2214 0.0
H1525 H 0.66573 0.8926 0.15974 0.0
H1526 H 0.65343 0.88849 0.21977 0.0
H1527 H 0.68165 0.88255 0.2111 0.0
H1528 H 0.63819 0.8671 0.36969 0.0
H1529 H 0.70693 0.85739 0.34956 0.0
H1530 H 0.62043 0.83696 0.26661 0.0
H1531 H 0.62235 0.86499 0.24938 0.0
H1532 H 0.61253 0.85776 0.31026 0.0
H1533 H 0.70296 0.82527 0.23987 0.0
H1534 H 0.72126 0.84161 0.27678 0.0
H1535 H 0.70755 0.85307 0.22366 0.0
C1536 C 0.14753 0.68965 0.34306 0.0
C1537 C 0.14542 0.67287 0.37804 0.0
C1538 C 0.15522 0.68531 0.29475 0.0
C1539 C 0.16103 0.66376 0.28147 0.0
C1540 C 0.15998 0.64704 0.31744 0.0
C1541 C 0.15215 0.65178 0.36504 0.0
C1542 C 0.15614 0.70355 0.25729 0.0
C1543 C 0.16606 0.62385 0.30498 0.0
C1544 C 0.15213 0.6434 0.15048 0.0
C1545 C 0.17341 0.64224 0.13163 0.0
C1546 C 0.14794 0.65115 0.19842 0.0
C1547 C 0.16544 0.65788 0.22879 0.0
C1548 C 0.18696 0.65713 0.21006 0.0
C1549 C 0.19072 0.64932 0.16158 0.0
C1550 C 0.12473 0.65161 0.21694 0.0
C1551 C 0.20601 0.66416 0.24155 0.0
H1552 H 0.14255 0.70602 0.35287 0.0
H1553 H 0.151 0.6387 0.39193 0.0
H1554 H 0.17194 0.70343 0.23739 0.0
H1555 H 0.14319 0.7012 0.22909 0.0
H1556 H 0.15384 0.71974 0.27492 0.0
H1557 H 0.16649 0.61326 0.33843 0.0
H1558 H 0.15405 0.61702 0.27845 0.0
H1559 H 0.18222 0.62327 0.28669 0.0
H1560 H 0.13853 0.63822 0.12777 0.0
H1561 H 0.20719 0.64869 0.14731 0.0
H1562 H 0.12056 0.66808 0.23085 0.0
H1563 H 0.12287 0.64013 0.24848 0.0
H1564 H 0.11286 0.64706 0.18759 0.0
H1565 H 0.20313 0.68069 0.25677 0.0
H1566 H 0.2215 0.66423 0.2203 0.0
H1567 H 0.20778 0.65298 0.27366 0.0
C1568 C 0.35187 0.14037 0.33843 0.0
C1569 C 0.33075 0.14023 0.35845 0.0
C1570 C 0.35598 0.14806 0.29045 0.0
C1571 C 0.33855 0.15572 0.26106 0.0
C1572 C 0.31716 0.15574 0.2807 0.0
C1573 C 0.31349 0.14801 0.32931 0.0
C1574 C 0.37905 0.14766 0.27098 0.0
C1575 C 0.29818 0.16372 0.25021 0.0
C1576 C 0.35765 0.18821 0.14904 0.0
C1577 C 0.3593 0.17179 0.11304 0.0
C1578 C 0.34961 0.18359 0.19691 0.0
C1579 C 0.34292 0.16213 0.20867 0.0
C1580 C 0.34338 0.14585 0.17155 0.0
C1581 C 0.35164 0.15084 0.12445 0.0
C1582 C 0.3494 0.20136 0.23561 0.0
C1583 C 0.33632 0.12278 0.18233 0.0
H1584 H 0.36545 0.13453 0.36037 0.0
H1585 H 0.29716 0.14816 0.34447 0.0
H1586 H 0.38015 0.13654 0.23859 0.0
H1587 H 0.38387 0.16411 0.25806 0.0
H1588 H 0.39091 0.14219 0.2995 0.0
H1589 H 0.28275 0.16375 0.27169 0.0
H1590 H 0.30139 0.18045 0.23661 0.0
H1591 H 0.29609 0.1532 0.21703 0.0
H1592 H 0.36334 0.20447 0.14044 0.0
H1593 H 0.35242 0.13806 0.09673 0.0
H1594 H 0.36233 0.1982 0.26343 0.0
H1595 H 0.33365 0.20153 0.25574 0.0
H1596 H 0.35222 0.21767 0.21906 0.0
H1597 H 0.34822 0.115 0.20771 0.0
H1598 H 0.33515 0.11278 0.14802 0.0
H1599 H 0.3203 0.12264 0.20128 0.0
loop_
_geom_bond_atom_site_label_1
_geom_bond_atom_site_label_2
_geom_bond_distance
_geom_bond_site_symmetry_2
_ccdc_geom_bond_type
Mn0 O5 2.095 1_554 S
Mn0 O15 2.160 1_554 S
Mn0 O16 2.297 . S
Mn0 O24 2.385 . S
Mn0 O25 2.209 . S
Mn0 O26 2.094 . S
Mn1 O6 2.121 1_554 S
Mn1 N8 2.257 . S
Mn1 N17 2.282 . S
Mn1 O25 2.215 . S
Mn1 O27 2.117 . S
C2 O24 1.234 . S
C2 O25 1.283 . S
C3 O15 1.279 1_554 S
C3 O16 1.236 . S
C4 O26 1.240 . S
C4 O27 1.264 . S
O5 Mn0 2.095 1_556 S
O5 C14 1.250 . S
O6 Mn1 2.121 1_556 S
O6 C14 1.258 . S
C7 N8 1.326 1_556 S
C7 C11 1.460 1_556 S
C7 H13 0.929 . S
N8 Mn1 2.257 . S
N8 C7 1.326 1_554 S
N8 C12 1.362 . S
C9 C10 1.258 . S
C9 C12 1.431 . S
C9 C29 1.449 . S
C10 C9 1.258 . S
C10 C11 1.477 . S
C10 H30 0.931 . S
C11 C7 1.460 1_554 S
C11 C10 1.477 . S
C11 H31 0.930 1_554 S
C12 N8 1.362 . S
C12 C9 1.431 . S
C12 C22 1.476 . S
H13 C7 0.929 . S
C14 O5 1.250 . S
C14 O6 1.258 . S
O15 Mn0 2.160 1_556 S
O15 C3 1.279 1_556 S
O16 Mn0 2.297 . S
O16 C3 1.236 . S
N17 Mn1 2.282 . S
N17 C18 1.328 . S
N17 C22 1.318 . S
C18 N17 1.328 . S
C18 C19 1.457 . S
C18 H23 0.929 . S
C19 C18 1.457 . S
C19 C20 1.291 . S
C19 H32 0.931 . S
C20 C19 1.291 . S
C20 C21 1.373 . S
C20 H33 0.929 . S
C21 C20 1.373 . S
C21 C22 1.396 . S
C21 C28 1.403 . S
C22 C12 1.476 . S
C22 N17 1.318 . S
C22 C21 1.396 . S
H23 C18 0.929 . S
O24 Mn0 2.385 . S
O24 C2 1.234 . S
O25 Mn0 2.209 . S
O25 Mn1 2.215 . S
O25 C2 1.283 . S
O26 Mn0 2.094 . S
O26 C4 1.240 . S
O27 Mn1 2.117 . S
O27 C4 1.264 . S
C28 C21 1.403 . S
C28 C29 1.399 . S
C28 H34 0.929 . S
C29 C9 1.449 . S
C29 C28 1.399 . S
C29 H35 0.930 . S
H30 C10 0.931 . S
H31 C11 0.930 1_556 S
H32 C19 0.931 . S
H33 C20 0.929 . S
H34 C28 0.929 . S
H35 C29 0.930 . S
Mn36 O41 2.095 1_554 S
Mn36 O51 2.160 1_554 S
Mn36 O52 2.297 . S
Mn36 O60 2.385 . S
Mn36 O61 2.209 . S
Mn36 O62 2.094 . S
Mn37 O42 2.121 1_554 S
Mn37 N44 2.257 . S
Mn37 N53 2.282 . S
Mn37 O61 2.215 . S
Mn37 O63 2.117 . S
C38 O60 1.234 . S
C38 O61 1.283 . S
C39 O51 1.279 1_554 S
C39 O52 1.236 . S
C40 O62 1.240 . S
C40 O63 1.264 . S
O41 Mn36 2.095 1_556 S
O41 C50 1.250 . S
O42 Mn37 2.121 1_556 S
O42 C50 1.258 . S
C43 N44 1.326 1_556 S
C43 C47 1.460 1_556 S
C43 H49 0.929 . S
N44 Mn37 2.257 . S
N44 C43 1.326 1_554 S
N44 C48 1.362 . S
C45 C46 1.258 . S
C45 C48 1.431 . S
C45 C65 1.449 . S
C46 C45 1.258 . S
C46 C47 1.477 . S
C46 H66 0.931 . S
C47 C43 1.460 1_554 S
C47 C46 1.477 . S
C47 H67 0.930 1_554 S
C48 N44 1.362 . S
C48 C45 1.431 . S
C48 C58 1.476 . S
H49 C43 0.929 . S
C50 O41 1.250 . S
C50 O42 1.258 . S
O51 Mn36 2.160 1_556 S
O51 C39 1.279 1_556 S
O52 Mn36 2.297 . S
O52 C39 1.236 . S
N53 Mn37 2.282 . S
N53 C54 1.328 . S
N53 C58 1.318 . S
C54 N53 1.328 . S
C54 C55 1.457 . S
C54 H59 0.929 . S
C55 C54 1.457 . S
C55 C56 1.291 . S
C55 H68 0.931 . S
C56 C55 1.291 . S
C56 C57 1.373 . S
C56 H69 0.929 . S
C57 C56 1.373 . S
C57 C58 1.396 . S
C57 C64 1.403 . S
C58 C48 1.476 . S
C58 N53 1.318 . S
C58 C57 1.396 . S
H59 C54 0.929 . S
O60 Mn36 2.385 . S
O60 C38 1.234 . S
O61 Mn36 2.209 . S
O61 Mn37 2.215 . S
O61 C38 1.283 . S
O62 Mn36 2.094 . S
O62 C40 1.240 . S
O63 Mn37 2.117 . S
O63 C40 1.264 . S
C64 C57 1.403 . S
C64 C65 1.399 . S
C64 H70 0.929 . S
C65 C45 1.449 . S
C65 C64 1.399 . S
C65 H71 0.930 . S
H66 C46 0.931 . S
H67 C47 0.930 1_556 S
H68 C55 0.931 . S
H69 C56 0.929 . S
H70 C64 0.929 . S
H71 C65 0.930 . S
Mn72 O77 2.095 1_554 S
Mn72 O87 2.160 1_554 S
Mn72 O88 2.297 . S
Mn72 O96 2.385 . S
Mn72 O97 2.209 . S
Mn72 O98 2.094 . S
Mn73 O78 2.121 1_554 S
Mn73 N80 2.257 . S
Mn73 N89 2.282 . S
Mn73 O97 2.215 . S
Mn73 O99 2.117 . S
C74 O96 1.234 . S
C74 O97 1.283 . S
C75 O87 1.279 1_554 S
C75 O88 1.236 . S
C76 O98 1.240 . S
C76 O99 1.264 . S
O77 Mn72 2.095 1_556 S
O77 C86 1.250 . S
O78 Mn73 2.121 1_556 S
O78 C86 1.258 . S
C79 N80 1.326 1_556 S
C79 C83 1.460 1_556 S
C79 H85 0.929 . S
N80 Mn73 2.257 . S
N80 C79 1.326 1_554 S
N80 C84 1.362 . S
C81 C82 1.258 . S
C81 C84 1.431 . S
C81 C101 1.449 . S
C82 C81 1.258 . S
C82 C83 1.477 . S
C82 H102 0.931 . S
C83 C79 1.460 1_554 S
C83 C82 1.477 . S
C83 H103 0.930 1_554 S
C84 N80 1.362 . S
C84 C81 1.431 . S
C84 C94 1.476 . S
H85 C79 0.929 . S
C86 O77 1.250 . S
C86 O78 1.258 . S
O87 Mn72 2.160 1_556 S
O87 C75 1.279 1_556 S
O88 Mn72 2.297 . S
O88 C75 1.236 . S
N89 Mn73 2.282 . S
N89 C90 1.328 . S
N89 C94 1.318 . S
C90 N89 1.328 . S
C90 C91 1.457 . S
C90 H95 0.929 . S
C91 C90 1.457 . S
C91 C92 1.291 . S
C91 H104 0.931 . S
C92 C91 1.291 . S
C92 C93 1.373 . S
C92 H105 0.929 . S
C93 C92 1.373 . S
C93 C94 1.396 . S
C93 C100 1.403 . S
C94 C84 1.476 . S
C94 N89 1.318 . S
C94 C93 1.396 . S
H95 C90 0.929 . S
O96 Mn72 2.385 . S
O96 C74 1.234 . S
O97 Mn72 2.209 . S
O97 Mn73 2.215 . S
O97 C74 1.283 . S
O98 Mn72 2.094 . S
O98 C76 1.240 . S
O99 Mn73 2.117 . S
O99 C76 1.264 . S
C100 C93 1.403 . S
C100 C101 1.399 . S
C100 H106 0.929 . S
C101 C81 1.449 . S
C101 C100 1.399 . S
C101 H107 0.930 . S
H102 C82 0.931 . S
H103 C83 0.930 1_556 S
H104 C91 0.931 . S
H105 C92 0.929 . S
H106 C100 0.929 . S
H107 C101 0.930 . S
Mn108 O113 2.095 1_554 S
Mn108 O123 2.160 1_554 S
Mn108 O124 2.297 . S
Mn108 O132 2.385 . S
Mn108 O133 2.209 . S
Mn108 O134 2.094 . S
Mn109 O114 2.121 1_554 S
Mn109 N116 2.257 . S
Mn109 N125 2.282 . S
Mn109 O133 2.215 . S
Mn109 O135 2.117 . S
C110 O132 1.234 . S
C110 O133 1.283 . S
C111 O123 1.279 1_554 S
C111 O124 1.236 . S
C112 O134 1.240 . S
C112 O135 1.264 . S
O113 Mn108 2.095 1_556 S
O113 C122 1.250 . S
O114 Mn109 2.121 1_556 S
O114 C122 1.258 . S
C115 N116 1.326 1_556 S
C115 C119 1.460 1_556 S
C115 H121 0.929 . S
N116 Mn109 2.257 . S
N116 C115 1.326 1_554 S
N116 C120 1.362 . S
C117 C118 1.258 . S
C117 C120 1.431 . S
C117 C137 1.449 . S
C118 C117 1.258 . S
C118 C119 1.477 . S
C118 H138 0.931 . S
C119 C115 1.460 1_554 S
C119 C118 1.477 . S
C119 H139 0.930 1_554 S
C120 N116 1.362 . S
C120 C117 1.431 . S
C120 C130 1.476 . S
H121 C115 0.929 . S
C122 O113 1.250 . S
C122 O114 1.258 . S
O123 Mn108 2.160 1_556 S
O123 C111 1.279 1_556 S
O124 Mn108 2.297 . S
O124 C111 1.236 . S
N125 Mn109 2.282 . S
N125 C126 1.328 . S
N125 C130 1.318 . S
C126 N125 1.328 . S
C126 C127 1.457 . S
C126 H131 0.929 . S
C127 C126 1.457 . S
C127 C128 1.291 . S
C127 H140 0.931 . S
C128 C127 1.291 . S
C128 C129 1.373 . S
C128 H141 0.929 . S
C129 C128 1.373 . S
C129 C130 1.396 . S
C129 C136 1.403 . S
C130 C120 1.476 . S
C130 N125 1.318 . S
C130 C129 1.396 . S
H131 C126 0.929 . S
O132 Mn108 2.385 . S
O132 C110 1.234 . S
O133 Mn108 2.209 . S
O133 Mn109 2.215 . S
O133 C110 1.283 . S
O134 Mn108 2.094 . S
O134 C112 1.240 . S
O135 Mn109 2.117 . S
O135 C112 1.264 . S
C136 C129 1.403 . S
C136 C137 1.399 . S
C136 H142 0.929 . S
C137 C117 1.449 . S
C137 C136 1.399 . S
C137 H143 0.930 . S
H138 C118 0.931 . S
H139 C119 0.930 1_556 S
H140 C127 0.931 . S
H141 C128 0.929 . S
H142 C136 0.929 . S
H143 C137 0.930 . S
Mn144 O149 2.095 1_556 S
Mn144 O159 2.162 1_556 S
Mn144 O160 2.297 . S
Mn144 O168 2.385 . S
Mn144 O169 2.209 . S
Mn144 O170 2.094 . S
Mn145 O150 2.121 1_556 S
Mn145 N152 2.257 . S
Mn145 N161 2.282 . S
Mn145 O169 2.215 . S
Mn145 O171 2.117 . S
C146 O168 1.234 . S
C146 O169 1.283 . S
C147 O159 1.279 1_556 S
C147 O160 1.237 . S
C148 O170 1.240 . S
C148 O171 1.264 . S
O149 Mn144 2.095 1_554 S
O149 C158 1.250 . S
O150 Mn145 2.121 1_554 S
O150 C158 1.258 . S
C151 N152 1.326 1_554 S
C151 C155 1.460 1_554 S
C151 H157 0.929 . S
N152 Mn145 2.257 . S
N152 C151 1.326 1_556 S
N152 C156 1.362 . S
C153 C154 1.258 . S
C153 C156 1.431 . S
C153 C173 1.449 . S
C154 C153 1.258 . S
C154 C155 1.477 . S
C154 H174 0.931 . S
C155 C151 1.460 1_556 S
C155 C154 1.477 . S
C155 H175 0.930 1_556 S
C156 N152 1.362 . S
C156 C153 1.431 . S
C156 C166 1.476 . S
H157 C151 0.929 . S
C158 O149 1.250 . S
C158 O150 1.258 . S
O159 Mn144 2.162 1_554 S
O159 C147 1.279 1_554 S
O160 Mn144 2.297 . S
O160 C147 1.237 . S
N161 Mn145 2.282 . S
N161 C162 1.328 . S
N161 C166 1.318 . S
C162 N161 1.328 . S
C162 C163 1.457 . S
C162 H167 0.929 . S
C163 C162 1.457 . S
C163 C164 1.291 . S
C163 H176 0.931 . S
C164 C163 1.291 . S
C164 C165 1.373 . S
C164 H177 0.929 . S
C165 C164 1.373 . S
C165 C166 1.396 . S
C165 C172 1.403 . S
C166 C156 1.476 . S
C166 N161 1.318 . S
C166 C165 1.396 . S
H167 C162 0.929 . S
O168 Mn144 2.385 . S
O168 C146 1.234 . S
O169 Mn144 2.209 . S
O169 Mn145 2.215 . S
O169 C146 1.283 . S
O170 Mn144 2.094 . S
O170 C148 1.240 . S
O171 Mn145 2.117 . S
O171 C148 1.264 . S
C172 C165 1.403 . S
C172 C173 1.399 . S
C172 H178 0.929 . S
C173 C153 1.449 . S
C173 C172 1.399 . S
C173 H179 0.930 . S
H174 C154 0.931 . S
H175 C155 0.930 1_554 S
H176 C163 0.931 . S
H177 C164 0.929 . S
H178 C172 0.929 . S
H179 C173 0.930 . S
Mn180 O185 2.095 1_556 S
Mn180 O195 2.162 1_556 S
Mn180 O196 2.297 . S
Mn180 O204 2.385 . S
Mn180 O205 2.209 . S
Mn180 O206 2.094 . S
Mn181 O186 2.121 1_556 S
Mn181 N188 2.257 . S
Mn181 N197 2.282 . S
Mn181 O205 2.215 . S
Mn181 O207 2.117 . S
C182 O204 1.234 . S
C182 O205 1.283 . S
C183 O195 1.279 1_556 S
C183 O196 1.237 . S
C184 O206 1.240 . S
C184 O207 1.264 . S
O185 Mn180 2.095 1_554 S
O185 C194 1.250 . S
O186 Mn181 2.121 1_554 S
O186 C194 1.258 . S
C187 N188 1.326 1_554 S
C187 C191 1.460 1_554 S
C187 H193 0.929 . S
N188 Mn181 2.257 . S
N188 C187 1.326 1_556 S
N188 C192 1.362 . S
C189 C190 1.258 . S
C189 C192 1.431 . S
C189 C209 1.449 . S
C190 C189 1.258 . S
C190 C191 1.477 . S
C190 H210 0.931 . S
C191 C187 1.460 1_556 S
C191 C190 1.477 . S
C191 H211 0.930 1_556 S
C192 N188 1.362 . S
C192 C189 1.431 . S
C192 C202 1.476 . S
H193 C187 0.929 . S
C194 O185 1.250 . S
C194 O186 1.258 . S
O195 Mn180 2.162 1_554 S
O195 C183 1.279 1_554 S
O196 Mn180 2.297 . S
O196 C183 1.237 . S
N197 Mn181 2.282 . S
N197 C198 1.328 . S
N197 C202 1.318 . S
C198 N197 1.328 . S
C198 C199 1.457 . S
C198 H203 0.929 . S
C199 C198 1.457 . S
C199 C200 1.291 . S
C199 H212 0.931 . S
C200 C199 1.291 . S
C200 C201 1.373 . S
C200 H213 0.929 . S
C201 C200 1.373 . S
C201 C202 1.396 . S
C201 C208 1.403 . S
C202 C192 1.476 . S
C202 N197 1.318 . S
C202 C201 1.396 . S
H203 C198 0.929 . S
O204 Mn180 2.385 . S
O204 C182 1.234 . S
O205 Mn180 2.209 . S
O205 Mn181 2.215 . S
O205 C182 1.283 . S
O206 Mn180 2.094 . S
O206 C184 1.240 . S
O207 Mn181 2.117 . S
O207 C184 1.264 . S
C208 C201 1.403 . S
C208 C209 1.399 . S
C208 H214 0.929 . S
C209 C189 1.449 . S
C209 C208 1.399 . S
C209 H215 0.930 . S
H210 C190 0.931 . S
H211 C191 0.930 1_554 S
H212 C199 0.931 . S
H213 C200 0.929 . S
H214 C208 0.929 . S
H215 C209 0.930 . S
Mn216 O221 2.095 1_556 S
Mn216 O231 2.162 1_556 S
Mn216 O232 2.297 . S
Mn216 O240 2.385 . S
Mn216 O241 2.209 . S
Mn216 O242 2.094 . S
Mn217 O222 2.121 1_556 S
Mn217 N224 2.257 . S
Mn217 N233 2.282 . S
Mn217 O241 2.215 . S
Mn217 O243 2.117 . S
C218 O240 1.234 . S
C218 O241 1.283 . S
C219 O231 1.279 1_556 S
C219 O232 1.237 . S
C220 O242 1.240 . S
C220 O243 1.264 . S
O221 Mn216 2.095 1_554 S
O221 C230 1.250 . S
O222 Mn217 2.121 1_554 S
O222 C230 1.258 . S
C223 N224 1.326 1_554 S
C223 C227 1.460 1_554 S
C223 H229 0.929 . S
N224 Mn217 2.257 . S
N224 C223 1.326 1_556 S
N224 C228 1.362 . S
C225 C226 1.258 . S
C225 C228 1.431 . S
C225 C245 1.449 . S
C226 C225 1.258 . S
C226 C227 1.477 . S
C226 H246 0.931 . S
C227 C223 1.460 1_556 S
C227 C226 1.477 . S
C227 H247 0.930 1_556 S
C228 N224 1.362 . S
C228 C225 1.431 . S
C228 C238 1.476 . S
H229 C223 0.929 . S
C230 O221 1.250 . S
C230 O222 1.258 . S
O231 Mn216 2.162 1_554 S
O231 C219 1.279 1_554 S
O232 Mn216 2.297 . S
O232 C219 1.237 . S
N233 Mn217 2.282 . S
N233 C234 1.328 . S
N233 C238 1.318 . S
C234 N233 1.328 . S
C234 C235 1.457 . S
C234 H239 0.929 . S
C235 C234 1.457 . S
C235 C236 1.291 . S
C235 H248 0.931 . S
C236 C235 1.291 . S
C236 C237 1.373 . S
C236 H249 0.929 . S
C237 C236 1.373 . S
C237 C238 1.396 . S
C237 C244 1.403 . S
C238 C228 1.476 . S
C238 N233 1.318 . S
C238 C237 1.396 . S
H239 C234 0.929 . S
O240 Mn216 2.385 . S
O240 C218 1.234 . S
O241 Mn216 2.209 . S
O241 Mn217 2.215 . S
O241 C218 1.283 . S
O242 Mn216 2.094 . S
O242 C220 1.240 . S
O243 Mn217 2.117 . S
O243 C220 1.264 . S
C244 C237 1.403 . S
C244 C245 1.399 . S
C244 H250 0.929 . S
C245 C225 1.449 . S
C245 C244 1.399 . S
C245 H251 0.930 . S
H246 C226 0.931 . S
H247 C227 0.930 1_554 S
H248 C235 0.931 . S
H249 C236 0.929 . S
H250 C244 0.929 . S
H251 C245 0.930 . S
Mn252 O257 2.095 1_556 S
Mn252 O267 2.162 1_556 S
Mn252 O268 2.297 . S
Mn252 O276 2.385 . S
Mn252 O277 2.209 . S
Mn252 O278 2.094 . S
Mn253 O258 2.121 1_556 S
Mn253 N260 2.257 . S
Mn253 N269 2.282 . S
Mn253 O277 2.215 . S
Mn253 O279 2.117 . S
C254 O276 1.234 . S
C254 O277 1.283 . S
C255 O267 1.279 1_556 S
C255 O268 1.237 . S
C256 O278 1.240 . S
C256 O279 1.264 . S
O257 Mn252 2.095 1_554 S
O257 C266 1.250 . S
O258 Mn253 2.121 1_554 S
O258 C266 1.258 . S
C259 N260 1.326 1_554 S
C259 C263 1.460 1_554 S
C259 H265 0.929 . S
N260 Mn253 2.257 . S
N260 C259 1.326 1_556 S
N260 C264 1.362 . S
C261 C262 1.258 . S
C261 C264 1.431 . S
C261 C281 1.449 . S
C262 C261 1.258 . S
C262 C263 1.477 . S
C262 H282 0.931 . S
C263 C259 1.460 1_556 S
C263 C262 1.477 . S
C263 H283 0.930 1_556 S
C264 N260 1.362 . S
C264 C261 1.431 . S
C264 C274 1.476 . S
H265 C259 0.929 . S
C266 O257 1.250 . S
C266 O258 1.258 . S
O267 Mn252 2.162 1_554 S
O267 C255 1.279 1_554 S
O268 Mn252 2.297 . S
O268 C255 1.237 . S
N269 Mn253 2.282 . S
N269 C270 1.328 . S
N269 C274 1.318 . S
C270 N269 1.328 . S
C270 C271 1.457 . S
C270 H275 0.929 . S
C271 C270 1.457 . S
C271 C272 1.291 . S
C271 H284 0.931 . S
C272 C271 1.291 . S
C272 C273 1.373 . S
C272 H285 0.929 . S
C273 C272 1.373 . S
C273 C274 1.396 . S
C273 C280 1.403 . S
C274 C264 1.476 . S
C274 N269 1.318 . S
C274 C273 1.396 . S
H275 C270 0.929 . S
O276 Mn252 2.385 . S
O276 C254 1.234 . S
O277 Mn252 2.209 . S
O277 Mn253 2.215 . S
O277 C254 1.283 . S
O278 Mn252 2.094 . S
O278 C256 1.240 . S
O279 Mn253 2.117 . S
O279 C256 1.264 . S
C280 C273 1.403 . S
C280 C281 1.399 . S
C280 H286 0.929 . S
C281 C261 1.449 . S
C281 C280 1.399 . S
C281 H287 0.930 . S
H282 C262 0.931 . S
H283 C263 0.930 1_554 S
H284 C271 0.931 . S
H285 C272 0.929 . S
H286 C280 0.929 . S
H287 C281 0.930 . S
Mn288 O293 2.095 . S
Mn288 O303 2.162 . S
Mn288 O304 2.297 . S
Mn288 O312 2.385 . S
Mn288 O313 2.209 . S
Mn288 O314 2.094 . S
Mn289 O294 2.121 . S
Mn289 N296 2.257 . S
Mn289 N305 2.282 . S
Mn289 O313 2.215 . S
Mn289 O315 2.117 . S
C290 O312 1.234 . S
C290 O313 1.283 . S
C291 O303 1.281 . S
C291 O304 1.236 . S
C292 O314 1.240 . S
C292 O315 1.264 . S
O293 Mn288 2.095 . S
O293 C302 1.250 . S
O294 Mn289 2.121 . S
O294 C302 1.258 . S
C295 N296 1.326 . S
C295 C299 1.460 . S
C295 H301 0.929 . S
N296 Mn289 2.257 . S
N296 C295 1.326 . S
N296 C300 1.362 . S
C297 C298 1.258 . S
C297 C300 1.431 . S
C297 C317 1.449 . S
C298 C297 1.258 . S
C298 C299 1.477 . S
C298 H318 0.931 . S
C299 C295 1.460 . S
C299 C298 1.477 . S
C299 H319 0.930 . S
C300 N296 1.362 . S
C300 C297 1.431 . S
C300 C310 1.476 . S
H301 C295 0.929 . S
C302 O293 1.250 . S
C302 O294 1.258 . S
O303 Mn288 2.162 . S
O303 C291 1.281 . S
O304 Mn288 2.297 . S
O304 C291 1.236 . S
N305 Mn289 2.282 . S
N305 C306 1.328 . S
N305 C310 1.318 . S
C306 N305 1.328 . S
C306 C307 1.457 . S
C306 H311 0.929 . S
C307 C306 1.457 . S
C307 C308 1.291 . S
C307 H320 0.931 . S
C308 C307 1.291 . S
C308 C309 1.373 . S
C308 H321 0.929 . S
C309 C308 1.373 . S
C309 C310 1.396 . S
C309 C316 1.403 . S
C310 C300 1.476 . S
C310 N305 1.318 . S
C310 C309 1.396 . S
H311 C306 0.929 . S
O312 Mn288 2.385 . S
O312 C290 1.234 . S
O313 Mn288 2.209 . S
O313 Mn289 2.215 . S
O313 C290 1.283 . S
O314 Mn288 2.094 . S
O314 C292 1.240 . S
O315 Mn289 2.117 . S
O315 C292 1.264 . S
C316 C309 1.403 . S
C316 C317 1.399 . S
C316 H322 0.929 . S
C317 C297 1.449 . S
C317 C316 1.399 . S
C317 H323 0.930 . S
H318 C298 0.931 . S
H319 C299 0.930 . S
H320 C307 0.931 . S
H321 C308 0.929 . S
H322 C316 0.929 . S
H323 C317 0.930 . S
Mn324 O329 2.095 . S
Mn324 O339 2.162 . S
Mn324 O340 2.297 . S
Mn324 O348 2.385 . S
Mn324 O349 2.209 . S
Mn324 O350 2.094 . S
Mn325 O330 2.121 . S
Mn325 N332 2.257 . S
Mn325 N341 2.282 . S
Mn325 O349 2.215 . S
Mn325 O351 2.117 . S
C326 O348 1.234 . S
C326 O349 1.283 . S
C327 O339 1.281 . S
C327 O340 1.236 . S
C328 O350 1.240 . S
C328 O351 1.264 . S
O329 Mn324 2.095 . S
O329 C338 1.250 . S
O330 Mn325 2.121 . S
O330 C338 1.258 . S
C331 N332 1.326 . S
C331 C335 1.460 . S
C331 H337 0.929 . S
N332 Mn325 2.257 . S
N332 C331 1.326 . S
N332 C336 1.362 . S
C333 C334 1.258 . S
C333 C336 1.431 . S
C333 C353 1.449 . S
C334 C333 1.258 . S
C334 C335 1.477 . S
C334 H354 0.931 . S
C335 C331 1.460 . S
C335 C334 1.477 . S
C335 H355 0.930 . S
C336 N332 1.362 . S
C336 C333 1.431 . S
C336 C346 1.476 . S
H337 C331 0.929 . S
C338 O329 1.250 . S
C338 O330 1.258 . S
O339 Mn324 2.162 . S
O339 C327 1.281 . S
O340 Mn324 2.297 . S
O340 C327 1.236 . S
N341 Mn325 2.282 . S
N341 C342 1.328 . S
N341 C346 1.318 . S
C342 N341 1.328 . S
C342 C343 1.457 . S
C342 H347 0.929 . S
C343 C342 1.457 . S
C343 C344 1.291 . S
C343 H356 0.931 . S
C344 C343 1.291 . S
C344 C345 1.373 . S
C344 H357 0.929 . S
C345 C344 1.373 . S
C345 C346 1.396 . S
C345 C352 1.403 . S
C346 C336 1.476 . S
C346 N341 1.318 . S
C346 C345 1.396 . S
H347 C342 0.929 . S
O348 Mn324 2.385 . S
O348 C326 1.234 . S
O349 Mn324 2.209 . S
O349 Mn325 2.215 . S
O349 C326 1.283 . S
O350 Mn324 2.094 . S
O350 C328 1.240 . S
O351 Mn325 2.117 . S
O351 C328 1.264 . S
C352 C345 1.403 . S
C352 C353 1.399 . S
C352 H358 0.929 . S
C353 C333 1.449 . S
C353 C352 1.399 . S
C353 H359 0.930 . S
H354 C334 0.931 . S
H355 C335 0.930 . S
H356 C343 0.931 . S
H357 C344 0.929 . S
H358 C352 0.929 . S
H359 C353 0.930 . S
Mn360 O365 2.095 . S
Mn360 O375 2.162 . S
Mn360 O376 2.297 . S
Mn360 O384 2.385 . S
Mn360 O385 2.209 . S
Mn360 O386 2.094 . S
Mn361 O366 2.121 . S
Mn361 N368 2.257 . S
Mn361 N377 2.282 . S
Mn361 O385 2.215 . S
Mn361 O387 2.117 . S
C362 O384 1.234 . S
C362 O385 1.283 . S
C363 O375 1.281 . S
C363 O376 1.236 . S
C364 O386 1.240 . S
C364 O387 1.264 . S
O365 Mn360 2.095 . S
O365 C374 1.250 . S
O366 Mn361 2.121 . S
O366 C374 1.258 . S
C367 N368 1.326 . S
C367 C371 1.460 . S
C367 H373 0.929 . S
N368 Mn361 2.257 . S
N368 C367 1.326 . S
N368 C372 1.362 . S
C369 C370 1.258 . S
C369 C372 1.431 . S
C369 C389 1.449 . S
C370 C369 1.258 . S
C370 C371 1.477 . S
C370 H390 0.931 . S
C371 C367 1.460 . S
C371 C370 1.477 . S
C371 H391 0.930 . S
C372 N368 1.362 . S
C372 C369 1.431 . S
C372 C382 1.476 . S
H373 C367 0.929 . S
C374 O365 1.250 . S
C374 O366 1.258 . S
O375 Mn360 2.162 . S
O375 C363 1.281 . S
O376 Mn360 2.297 . S
O376 C363 1.236 . S
N377 Mn361 2.282 . S
N377 C378 1.328 . S
N377 C382 1.318 . S
C378 N377 1.328 . S
C378 C379 1.457 . S
C378 H383 0.929 . S
C379 C378 1.457 . S
C379 C380 1.291 . S
C379 H392 0.931 . S
C380 C379 1.291 . S
C380 C381 1.373 . S
C380 H393 0.929 . S
C381 C380 1.373 . S
C381 C382 1.396 . S
C381 C388 1.403 . S
C382 C372 1.476 . S
C382 N377 1.318 . S
C382 C381 1.396 . S
H383 C378 0.929 . S
O384 Mn360 2.385 . S
O384 C362 1.234 . S
O385 Mn360 2.209 . S
O385 Mn361 2.215 . S
O385 C362 1.283 . S
O386 Mn360 2.094 . S
O386 C364 1.240 . S
O387 Mn361 2.117 . S
O387 C364 1.264 . S
C388 C381 1.403 . S
C388 C389 1.399 . S
C388 H394 0.929 . S
C389 C369 1.449 . S
C389 C388 1.399 . S
C389 H395 0.930 . S
H390 C370 0.931 . S
H391 C371 0.930 . S
H392 C379 0.931 . S
H393 C380 0.929 . S
H394 C388 0.929 . S
H395 C389 0.930 . S
Mn396 O401 2.095 . S
Mn396 O411 2.162 . S
Mn396 O412 2.297 . S
Mn396 O420 2.385 . S
Mn396 O421 2.209 . S
Mn396 O422 2.094 . S
Mn397 O402 2.121 . S
Mn397 N404 2.257 . S
Mn397 N413 2.282 . S
Mn397 O421 2.215 . S
Mn397 O423 2.117 . S
C398 O420 1.234 . S
C398 O421 1.283 . S
C399 O411 1.281 . S
C399 O412 1.236 . S
C400 O422 1.240 . S
C400 O423 1.264 . S
O401 Mn396 2.095 . S
O401 C410 1.250 . S
O402 Mn397 2.121 . S
O402 C410 1.258 . S
C403 N404 1.326 . S
C403 C407 1.460 . S
C403 H409 0.929 . S
N404 Mn397 2.257 . S
N404 C403 1.326 . S
N404 C408 1.362 . S
C405 C406 1.258 . S
C405 C408 1.431 . S
C405 C425 1.449 . S
C406 C405 1.258 . S
C406 C407 1.477 . S
C406 H426 0.931 . S
C407 C403 1.460 . S
C407 C406 1.477 . S
C407 H427 0.930 . S
C408 N404 1.362 . S
C408 C405 1.431 . S
C408 C418 1.476 . S
H409 C403 0.929 . S
C410 O401 1.250 . S
C410 O402 1.258 . S
O411 Mn396 2.162 . S
O411 C399 1.281 . S
O412 Mn396 2.297 . S
O412 C399 1.236 . S
N413 Mn397 2.282 . S
N413 C414 1.328 . S
N413 C418 1.318 . S
C414 N413 1.328 . S
C414 C415 1.457 . S
C414 H419 0.929 . S
C415 C414 1.457 . S
C415 C416 1.291 . S
C415 H428 0.931 . S
C416 C415 1.291 . S
C416 C417 1.373 . S
C416 H429 0.929 . S
C417 C416 1.373 . S
C417 C418 1.396 . S
C417 C424 1.403 . S
C418 C408 1.476 . S
C418 N413 1.318 . S
C418 C417 1.396 . S
H419 C414 0.929 . S
O420 Mn396 2.385 . S
O420 C398 1.234 . S
O421 Mn396 2.209 . S
O421 Mn397 2.215 . S
O421 C398 1.283 . S
O422 Mn396 2.094 . S
O422 C400 1.240 . S
O423 Mn397 2.117 . S
O423 C400 1.264 . S
C424 C417 1.403 . S
C424 C425 1.399 . S
C424 H430 0.929 . S
C425 C405 1.449 . S
C425 C424 1.399 . S
C425 H431 0.930 . S
H426 C406 0.931 . S
H427 C407 0.930 . S
H428 C415 0.931 . S
H429 C416 0.929 . S
H430 C424 0.929 . S
H431 C425 0.930 . S
Mn432 O437 2.095 . S
Mn432 O447 2.162 . S
Mn432 O448 2.297 . S
Mn432 O456 2.385 . S
Mn432 O457 2.209 . S
Mn432 O458 2.094 . S
Mn433 O438 2.121 . S
Mn433 N440 2.257 . S
Mn433 N449 2.282 . S
Mn433 O457 2.215 . S
Mn433 O459 2.117 . S
C434 O456 1.234 . S
C434 O457 1.283 . S
C435 O447 1.281 . S
C435 O448 1.236 . S
C436 O458 1.240 . S
C436 O459 1.264 . S
O437 Mn432 2.095 . S
O437 C446 1.250 . S
O438 Mn433 2.121 . S
O438 C446 1.258 . S
C439 N440 1.326 . S
C439 C443 1.460 . S
C439 H445 0.929 . S
N440 Mn433 2.257 . S
N440 C439 1.326 . S
N440 C444 1.362 . S
C441 C442 1.258 . S
C441 C444 1.431 . S
C441 C461 1.449 . S
C442 C441 1.258 . S
C442 C443 1.477 . S
C442 H462 0.931 . S
C443 C439 1.460 . S
C443 C442 1.477 . S
C443 H463 0.930 . S
C444 N440 1.362 . S
C444 C441 1.431 . S
C444 C454 1.476 . S
H445 C439 0.929 . S
C446 O437 1.250 . S
C446 O438 1.258 . S
O447 Mn432 2.162 . S
O447 C435 1.281 . S
O448 Mn432 2.297 . S
O448 C435 1.236 . S
N449 Mn433 2.282 . S
N449 C450 1.328 . S
N449 C454 1.318 . S
C450 N449 1.328 . S
C450 C451 1.457 . S
C450 H455 0.929 . S
C451 C450 1.457 . S
C451 C452 1.291 . S
C451 H464 0.931 . S
C452 C451 1.291 . S
C452 C453 1.373 . S
C452 H465 0.929 . S
C453 C452 1.373 . S
C453 C454 1.396 . S
C453 C460 1.403 . S
C454 C444 1.476 . S
C454 N449 1.318 . S
C454 C453 1.396 . S
H455 C450 0.929 . S
O456 Mn432 2.385 . S
O456 C434 1.234 . S
O457 Mn432 2.209 . S
O457 Mn433 2.215 . S
O457 C434 1.283 . S
O458 Mn432 2.094 . S
O458 C436 1.240 . S
O459 Mn433 2.117 . S
O459 C436 1.264 . S
C460 C453 1.403 . S
C460 C461 1.399 . S
C460 H466 0.929 . S
C461 C441 1.449 . S
C461 C460 1.399 . S
C461 H467 0.930 . S
H462 C442 0.931 . S
H463 C443 0.930 . S
H464 C451 0.931 . S
H465 C452 0.929 . S
H466 C460 0.929 . S
H467 C461 0.930 . S
Mn468 O473 2.095 . S
Mn468 O483 2.162 . S
Mn468 O484 2.297 . S
Mn468 O492 2.385 . S
Mn468 O493 2.209 . S
Mn468 O494 2.094 . S
Mn469 O474 2.121 . S
Mn469 N476 2.257 . S
Mn469 N485 2.282 . S
Mn469 O493 2.215 . S
Mn469 O495 2.117 . S
C470 O492 1.234 . S
C470 O493 1.283 . S
C471 O483 1.281 . S
C471 O484 1.236 . S
C472 O494 1.240 . S
C472 O495 1.264 . S
O473 Mn468 2.095 . S
O473 C482 1.250 . S
O474 Mn469 2.121 . S
O474 C482 1.258 . S
C475 N476 1.326 . S
C475 C479 1.460 . S
C475 H481 0.929 . S
N476 Mn469 2.257 . S
N476 C475 1.326 . S
N476 C480 1.362 . S
C477 C478 1.258 . S
C477 C480 1.431 . S
C477 C497 1.449 . S
C478 C477 1.258 . S
C478 C479 1.477 . S
C478 H498 0.931 . S
C479 C475 1.460 . S
C479 C478 1.477 . S
C479 H499 0.930 . S
C480 N476 1.362 . S
C480 C477 1.431 . S
C480 C490 1.476 . S
H481 C475 0.929 . S
C482 O473 1.250 . S
C482 O474 1.258 . S
O483 Mn468 2.162 . S
O483 C471 1.281 . S
O484 Mn468 2.297 . S
O484 C471 1.236 . S
N485 Mn469 2.282 . S
N485 C486 1.328 . S
N485 C490 1.318 . S
C486 N485 1.328 . S
C486 C487 1.457 . S
C486 H491 0.929 . S
C487 C486 1.457 . S
C487 C488 1.291 . S
C487 H500 0.931 . S
C488 C487 1.291 . S
C488 C489 1.373 . S
C488 H501 0.929 . S
C489 C488 1.373 . S
C489 C490 1.396 . S
C489 C496 1.403 . S
C490 C480 1.476 . S
C490 N485 1.318 . S
C490 C489 1.396 . S
H491 C486 0.929 . S
O492 Mn468 2.385 . S
O492 C470 1.234 . S
O493 Mn468 2.209 . S
O493 Mn469 2.215 . S
O493 C470 1.283 . S
O494 Mn468 2.094 . S
O494 C472 1.240 . S
O495 Mn469 2.117 . S
O495 C472 1.264 . S
C496 C489 1.403 . S
C496 C497 1.399 . S
C496 H502 0.929 . S
C497 C477 1.449 . S
C497 C496 1.399 . S
C497 H503 0.930 . S
H498 C478 0.931 . S
H499 C479 0.930 . S
H500 C487 0.931 . S
H501 C488 0.929 . S
H502 C496 0.929 . S
H503 C497 0.930 . S
Mn504 O509 2.095 . S
Mn504 O519 2.162 . S
Mn504 O520 2.297 . S
Mn504 O528 2.385 . S
Mn504 O529 2.209 . S
Mn504 O530 2.094 . S
Mn505 O510 2.121 . S
Mn505 N512 2.257 . S
Mn505 N521 2.282 . S
Mn505 O529 2.215 . S
Mn505 O531 2.117 . S
C506 O528 1.234 . S
C506 O529 1.283 . S
C507 O519 1.281 . S
C507 O520 1.236 . S
C508 O530 1.240 . S
C508 O531 1.264 . S
O509 Mn504 2.095 . S
O509 C518 1.250 . S
O510 Mn505 2.121 . S
O510 C518 1.258 . S
C511 N512 1.326 . S
C511 C515 1.460 . S
C511 H517 0.929 . S
N512 Mn505 2.257 . S
N512 C511 1.326 . S
N512 C516 1.362 . S
C513 C514 1.258 . S
C513 C516 1.431 . S
C513 C533 1.449 . S
C514 C513 1.258 . S
C514 C515 1.477 . S
C514 H534 0.931 . S
C515 C511 1.460 . S
C515 C514 1.477 . S
C515 H535 0.930 . S
C516 N512 1.362 . S
C516 C513 1.431 . S
C516 C526 1.476 . S
H517 C511 0.929 . S
C518 O509 1.250 . S
C518 O510 1.258 . S
O519 Mn504 2.162 . S
O519 C507 1.281 . S
O520 Mn504 2.297 . S
O520 C507 1.236 . S
N521 Mn505 2.282 . S
N521 C522 1.328 . S
N521 C526 1.318 . S
C522 N521 1.328 . S
C522 C523 1.457 . S
C522 H527 0.929 . S
C523 C522 1.457 . S
C523 C524 1.291 . S
C523 H536 0.931 . S
C524 C523 1.291 . S
C524 C525 1.373 . S
C524 H537 0.929 . S
C525 C524 1.373 . S
C525 C526 1.396 . S
C525 C532 1.403 . S
C526 C516 1.476 . S
C526 N521 1.318 . S
C526 C525 1.396 . S
H527 C522 0.929 . S
O528 Mn504 2.385 . S
O528 C506 1.234 . S
O529 Mn504 2.209 . S
O529 Mn505 2.215 . S
O529 C506 1.283 . S
O530 Mn504 2.094 . S
O530 C508 1.240 . S
O531 Mn505 2.117 . S
O531 C508 1.264 . S
C532 C525 1.403 . S
C532 C533 1.399 . S
C532 H538 0.929 . S
C533 C513 1.449 . S
C533 C532 1.399 . S
C533 H539 0.930 . S
H534 C514 0.931 . S
H535 C515 0.930 . S
H536 C523 0.931 . S
H537 C524 0.929 . S
H538 C532 0.929 . S
H539 C533 0.930 . S
Mn540 O545 2.095 . S
Mn540 O555 2.162 . S
Mn540 O556 2.297 . S
Mn540 O564 2.385 . S
Mn540 O565 2.209 . S
Mn540 O566 2.094 . S
Mn541 O546 2.121 . S
Mn541 N548 2.257 . S
Mn541 N557 2.282 . S
Mn541 O565 2.215 . S
Mn541 O567 2.117 . S
C542 O564 1.234 . S
C542 O565 1.283 . S
C543 O555 1.281 . S
C543 O556 1.236 . S
C544 O566 1.240 . S
C544 O567 1.264 . S
O545 Mn540 2.095 . S
O545 C554 1.250 . S
O546 Mn541 2.121 . S
O546 C554 1.258 . S
C547 N548 1.326 . S
C547 C551 1.460 . S
C547 H553 0.929 . S
N548 Mn541 2.257 . S
N548 C547 1.326 . S
N548 C552 1.362 . S
C549 C550 1.258 . S
C549 C552 1.431 . S
C549 C569 1.449 . S
C550 C549 1.258 . S
C550 C551 1.477 . S
C550 H570 0.931 . S
C551 C547 1.460 . S
C551 C550 1.477 . S
C551 H571 0.930 . S
C552 N548 1.362 . S
C552 C549 1.431 . S
C552 C562 1.476 . S
H553 C547 0.929 . S
C554 O545 1.250 . S
C554 O546 1.258 . S
O555 Mn540 2.162 . S
O555 C543 1.281 . S
O556 Mn540 2.297 . S
O556 C543 1.236 . S
N557 Mn541 2.282 . S
N557 C558 1.328 . S
N557 C562 1.318 . S
C558 N557 1.328 . S
C558 C559 1.457 . S
C558 H563 0.929 . S
C559 C558 1.457 . S
C559 C560 1.291 . S
C559 H572 0.931 . S
C560 C559 1.291 . S
C560 C561 1.373 . S
C560 H573 0.929 . S
C561 C560 1.373 . S
C561 C562 1.396 . S
C561 C568 1.403 . S
C562 C552 1.476 . S
C562 N557 1.318 . S
C562 C561 1.396 . S
H563 C558 0.929 . S
O564 Mn540 2.385 . S
O564 C542 1.234 . S
O565 Mn540 2.209 . S
O565 Mn541 2.215 . S
O565 C542 1.283 . S
O566 Mn540 2.094 . S
O566 C544 1.240 . S
O567 Mn541 2.117 . S
O567 C544 1.264 . S
C568 C561 1.403 . S
C568 C569 1.399 . S
C568 H574 0.929 . S
C569 C549 1.449 . S
C569 C568 1.399 . S
C569 H575 0.930 . S
H570 C550 0.931 . S
H571 C551 0.930 . S
H572 C559 0.931 . S
H573 C560 0.929 . S
H574 C568 0.929 . S
H575 C569 0.930 . S
C576 C577 1.391 . S
C576 C578 1.394 . S
C576 H592 0.931 . S
C577 C576 1.391 . S
C577 C581 1.376 1_556 S
C578 C576 1.394 . S
C578 C579 1.369 . S
C578 C582 1.531 . S
C579 C578 1.369 . S
C579 C580 1.410 1_556 S
C579 C587 1.503 . S
C580 C579 1.410 1_554 S
C580 C581 1.392 . S
C580 C583 1.511 . S
C581 C577 1.376 1_554 S
C581 C580 1.392 . S
C581 H593 0.929 . S
C582 C578 1.531 . S
C582 H594 0.960 . S
C582 H595 0.962 . S
C582 H596 0.960 . S
C583 C580 1.511 . S
C583 H597 0.961 . S
C583 H598 0.961 . S
C583 H599 0.961 . S
C584 C585 1.375 . S
C584 C586 1.363 . S
C584 H600 0.931 . S
C585 C584 1.375 . S
C585 C589 1.403 1_554 S
C586 C584 1.363 . S
C586 C587 1.370 1_554 S
C586 C590 1.524 . S
C587 C579 1.503 . S
C587 C586 1.370 1_556 S
C587 C588 1.403 . S
C588 C587 1.403 . S
C588 C589 1.404 . S
C588 C591 1.539 . S
C589 C585 1.403 1_556 S
C589 C588 1.404 . S
C589 H601 0.930 . S
C590 C586 1.524 . S
C590 H602 0.956 1_554 S
C590 H603 0.961 . S
C590 H604 0.961 . S
C591 C588 1.539 . S
C591 H605 0.958 . S
C591 H606 0.961 . S
C591 H607 0.960 . S
H592 C576 0.931 . S
H593 C581 0.929 . S
H594 C582 0.960 . S
H595 C582 0.962 . S
H596 C582 0.960 . S
H597 C583 0.961 . S
H598 C583 0.961 . S
H599 C583 0.961 . S
H600 C584 0.931 . S
H601 C589 0.930 . S
H602 C590 0.956 1_556 S
H603 C590 0.961 . S
H604 C590 0.961 . S
H605 C591 0.958 . S
H606 C591 0.961 . S
H607 C591 0.960 . S
C608 C609 1.391 . S
C608 C610 1.394 . S
C608 H624 0.931 . S
C609 C608 1.391 . S
C609 C613 1.376 1_554 S
C610 C608 1.394 . S
C610 C611 1.369 . S
C610 C614 1.531 . S
C611 C610 1.369 . S
C611 C612 1.410 1_554 S
C611 C619 1.503 . S
C612 C611 1.410 1_556 S
C612 C613 1.392 . S
C612 C615 1.511 . S
C613 C609 1.376 1_556 S
C613 C612 1.392 . S
C613 H625 0.929 . S
C614 C610 1.531 . S
C614 H626 0.960 . S
C614 H627 0.962 . S
C614 H628 0.960 . S
C615 C612 1.511 . S
C615 H629 0.961 . S
C615 H630 0.961 . S
C615 H631 0.961 . S
C616 C617 1.370 1_556 S
C616 C618 1.363 . S
C616 H632 0.931 . S
C617 C616 1.370 1_554 S
C617 C621 1.408 . S
C618 C616 1.363 . S
C618 C619 1.370 1_556 S
C618 C622 1.524 . S
C619 C611 1.503 . S
C619 C618 1.370 1_554 S
C619 C620 1.403 . S
C620 C619 1.403 . S
C620 C621 1.404 . S
C620 C623 1.539 . S
C621 C617 1.408 . S
C621 C620 1.404 . S
C621 H633 0.930 . S
C622 C618 1.524 . S
C622 H634 0.956 . S
C622 H635 0.961 . S
C622 H636 0.961 . S
C623 C620 1.539 . S
C623 H637 0.958 . S
C623 H638 0.961 . S
C623 H639 0.960 . S
H624 C608 0.931 . S
H625 C613 0.929 . S
H626 C614 0.960 . S
H627 C614 0.962 . S
H628 C614 0.960 . S
H629 C615 0.961 . S
H630 C615 0.961 . S
H631 C615 0.961 . S
H632 C616 0.931 . S
H633 C621 0.930 . S
H634 C622 0.956 . S
H635 C622 0.961 . S
H636 C622 0.961 . S
H637 C623 0.958 . S
H638 C623 0.961 . S
H639 C623 0.960 . S
C640 C641 1.391 . S
C640 C642 1.394 . S
C640 H656 0.931 . S
C641 C640 1.391 . S
C641 C645 1.376 1_554 S
C642 C640 1.394 . S
C642 C643 1.369 . S
C642 C646 1.531 . S
C643 C642 1.369 . S
C643 C644 1.410 1_554 S
C643 C651 1.503 . S
C644 C643 1.410 1_556 S
C644 C645 1.392 . S
C644 C647 1.511 . S
C645 C641 1.376 1_556 S
C645 C644 1.392 . S
C645 H657 0.929 . S
C646 C642 1.531 . S
C646 H658 0.960 . S
C646 H659 0.962 . S
C646 H660 0.960 . S
C647 C644 1.511 . S
C647 H661 0.961 . S
C647 H662 0.961 . S
C647 H663 0.961 1_556 S
C648 C649 1.370 1_556 S
C648 C650 1.363 . S
C648 H664 0.931 . S
C649 C648 1.370 1_554 S
C649 C653 1.408 . S
C650 C648 1.363 . S
C650 C651 1.370 1_556 S
C650 C654 1.524 . S
C651 C643 1.503 . S
C651 C650 1.370 1_554 S
C651 C652 1.403 . S
C652 C651 1.403 . S
C652 C653 1.404 . S
C652 C655 1.539 . S
C653 C649 1.408 . S
C653 C652 1.404 . S
C653 H665 0.930 . S
C654 C650 1.524 . S
C654 H666 0.956 . S
C654 H667 0.961 . S
C654 H668 0.961 . S
C655 C652 1.539 . S
C655 H669 0.958 . S
C655 H670 0.961 . S
C655 H671 0.960 . S
H656 C640 0.931 . S
H657 C645 0.929 . S
H658 C646 0.960 . S
H659 C646 0.962 . S
H660 C646 0.960 . S
H661 C647 0.961 . S
H662 C647 0.961 . S
H663 C647 0.961 1_554 S
H664 C648 0.931 . S
H665 C653 0.930 . S
H666 C654 0.956 . S
H667 C654 0.961 . S
H668 C654 0.961 . S
H669 C655 0.958 . S
H670 C655 0.961 . S
H671 C655 0.960 . S
C672 C673 1.391 . S
C672 C674 1.394 . S
C672 H688 0.931 . S
C673 C672 1.391 . S
C673 C677 1.376 1_554 S
C674 C672 1.394 . S
C674 C675 1.369 . S
C674 C678 1.531 . S
C675 C674 1.369 . S
C675 C676 1.410 1_554 S
C675 C683 1.503 . S
C676 C675 1.410 1_556 S
C676 C677 1.392 . S
C676 C679 1.511 . S
C677 C673 1.376 1_556 S
C677 C676 1.392 . S
C677 H689 0.929 . S
C678 C674 1.531 . S
C678 H690 0.960 . S
C678 H691 0.962 . S
C678 H692 0.960 . S
C679 C676 1.511 . S
C679 H693 0.961 . S
C679 H694 0.961 . S
C679 H695 0.961 . S
C680 C681 1.370 1_556 S
C680 C682 1.363 . S
C680 H696 0.931 . S
C681 C680 1.370 1_554 S
C681 C685 1.408 . S
C682 C680 1.363 . S
C682 C683 1.370 1_556 S
C682 C686 1.524 . S
C683 C675 1.503 . S
C683 C682 1.370 1_554 S
C683 C684 1.403 . S
C684 C683 1.403 . S
C684 C685 1.404 . S
C684 C687 1.539 . S
C685 C681 1.408 . S
C685 C684 1.404 . S
C685 H697 0.930 . S
C686 C682 1.524 . S
C686 H698 0.956 1_556 S
C686 H699 0.961 . S
C686 H700 0.961 . S
C687 C684 1.539 . S
C687 H701 0.958 . S
C687 H702 0.961 . S
C687 H703 0.960 . S
H688 C672 0.931 . S
H689 C677 0.929 . S
H690 C678 0.960 . S
H691 C678 0.962 . S
H692 C678 0.960 . S
H693 C679 0.961 . S
H694 C679 0.961 . S
H695 C679 0.961 . S
H696 C680 0.931 . S
H697 C685 0.930 . S
H698 C686 0.956 1_554 S
H699 C686 0.961 . S
H700 C686 0.961 . S
H701 C687 0.958 . S
H702 C687 0.961 . S
H703 C687 0.960 . S
C704 C705 1.391 . S
C704 C706 1.394 . S
C704 H720 0.931 . S
C705 C704 1.391 . S
C705 C709 1.376 . S
C706 C704 1.394 . S
C706 C707 1.369 . S
C706 C710 1.531 . S
C707 C706 1.369 . S
C707 C708 1.410 . S
C707 C715 1.503 1_545 S
C708 C707 1.410 . S
C708 C709 1.392 . S
C708 C711 1.511 . S
C709 C705 1.376 . S
C709 C708 1.392 . S
C709 H721 0.929 . S
C710 C706 1.531 . S
C710 H722 0.960 1_545 S
C710 H723 0.962 . S
C710 H724 0.960 . S
C711 C708 1.511 . S
C711 H725 0.961 . S
C711 H726 0.961 1_545 S
C711 H727 0.961 . S
C712 C713 1.370 . S
C712 C714 1.363 . S
C712 H728 0.931 . S
C713 C712 1.370 . S
C713 C717 1.408 . S
C714 C712 1.363 . S
C714 C715 1.370 . S
C714 C718 1.524 . S
C715 C707 1.503 1_565 S
C715 C714 1.370 . S
C715 C716 1.403 . S
C716 C715 1.403 . S
C716 C717 1.404 . S
C716 C719 1.539 . S
C717 C713 1.408 . S
C717 C716 1.404 . S
C717 H729 0.930 . S
C718 C714 1.524 . S
C718 H730 0.956 . S
C718 H731 0.961 1_565 S
C718 H732 0.961 . S
C719 C716 1.539 . S
C719 H733 0.958 . S
C719 H734 0.961 . S
C719 H735 0.965 . S
H720 C704 0.931 . S
H721 C709 0.929 . S
H722 C710 0.960 1_565 S
H723 C710 0.962 . S
H724 C710 0.960 . S
H725 C711 0.961 . S
H726 C711 0.961 1_565 S
H727 C711 0.961 . S
H728 C712 0.931 . S
H729 C717 0.930 . S
H730 C718 0.956 . S
H731 C718 0.961 1_545 S
H732 C718 0.961 . S
H733 C719 0.958 . S
H734 C719 0.961 . S
H735 C719 0.965 . S
C736 C737 1.391 . S
C736 C738 1.394 . S
C736 H752 0.931 . S
C737 C736 1.391 . S
C737 C741 1.376 . S
C738 C736 1.394 . S
C738 C739 1.369 . S
C738 C742 1.531 . S
C739 C738 1.369 . S
C739 C740 1.410 . S
C739 C747 1.503 1_655 S
C740 C739 1.410 . S
C740 C741 1.392 . S
C740 C743 1.511 . S
C741 C737 1.376 . S
C741 C740 1.392 . S
C741 H753 0.929 . S
C742 C738 1.531 . S
C742 H754 0.960 1_655 S
C742 H755 0.962 . S
C742 H756 0.960 . S
C743 C740 1.511 . S
C743 H757 0.961 . S
C743 H758 0.961 1_655 S
C743 H759 0.961 . S
C744 C745 1.370 . S
C744 C746 1.363 . S
C744 H760 0.931 . S
C745 C744 1.370 . S
C745 C749 1.408 . S
C746 C744 1.363 . S
C746 C747 1.370 . S
C746 C750 1.524 . S
C747 C739 1.503 1_455 S
C747 C746 1.370 . S
C747 C748 1.403 . S
C748 C747 1.403 . S
C748 C749 1.404 . S
C748 C751 1.539 . S
C749 C745 1.408 . S
C749 C748 1.404 . S
C749 H761 0.930 . S
C750 C746 1.524 . S
C750 H762 0.956 . S
C750 H763 0.961 1_455 S
C750 H764 0.961 . S
C751 C748 1.539 . S
C751 H765 0.958 . S
C751 H766 0.961 . S
C751 H767 0.961 . S
H752 C736 0.931 . S
H753 C741 0.929 . S
H754 C742 0.960 1_455 S
H755 C742 0.962 . S
H756 C742 0.960 . S
H757 C743 0.961 . S
H758 C743 0.961 1_455 S
H759 C743 0.961 . S
H760 C744 0.931 . S
H761 C749 0.930 . S
H762 C750 0.956 . S
H763 C750 0.961 1_655 S
H764 C750 0.961 . S
H765 C751 0.958 . S
H766 C751 0.961 . S
H767 C751 0.961 . S
C768 C769 1.391 . S
C768 C770 1.394 . S
C768 H784 0.931 . S
C769 C768 1.391 . S
C769 C773 1.376 . S
C770 C768 1.394 . S
C770 C771 1.369 . S
C770 C774 1.531 . S
C771 C770 1.369 . S
C771 C772 1.410 . S
C771 C779 1.503 1_545 S
C772 C771 1.410 . S
C772 C773 1.392 . S
C772 C775 1.511 . S
C773 C769 1.376 . S
C773 C772 1.392 . S
C773 H785 0.929 . S
C774 C770 1.531 . S
C774 H786 0.960 1_545 S
C774 H787 0.962 . S
C774 H788 0.960 . S
C775 C772 1.511 . S
C775 H789 0.961 . S
C775 H790 0.961 1_545 S
C775 H791 0.961 . S
C776 C777 1.370 . S
C776 C778 1.363 . S
C776 H792 0.931 . S
C777 C776 1.370 . S
C777 C781 1.408 . S
C778 C776 1.363 . S
C778 C779 1.370 . S
C778 C782 1.524 . S
C779 C771 1.503 1_565 S
C779 C778 1.370 . S
C779 C780 1.403 . S
C780 C779 1.403 . S
C780 C781 1.404 . S
C780 C783 1.539 . S
C781 C777 1.408 . S
C781 C780 1.404 . S
C781 H793 0.930 . S
C782 C778 1.524 . S
C782 H794 0.956 . S
C782 H795 0.961 1_565 S
C782 H796 0.961 . S
C783 C780 1.539 . S
C783 H797 0.958 . S
C783 H798 0.961 . S
C783 H799 0.961 . S
H784 C768 0.931 . S
H785 C773 0.929 . S
H786 C774 0.960 1_565 S
H787 C774 0.962 . S
H788 C774 0.960 . S
H789 C775 0.961 . S
H790 C775 0.961 1_565 S
H791 C775 0.961 . S
H792 C776 0.931 . S
H793 C781 0.930 . S
H794 C782 0.956 . S
H795 C782 0.961 1_545 S
H796 C782 0.961 . S
H797 C783 0.958 . S
H798 C783 0.961 . S
H799 C783 0.961 . S
C800 C801 1.391 . S
C800 C802 1.394 . S
C800 H816 0.931 . S
C801 C800 1.391 . S
C801 C805 1.376 . S
C802 C800 1.394 . S
C802 C803 1.369 . S
C802 C806 1.531 . S
C803 C802 1.369 . S
C803 C804 1.410 . S
C803 C811 1.503 1_455 S
C804 C803 1.410 . S
C804 C805 1.392 . S
C804 C807 1.511 . S
C805 C801 1.376 . S
C805 C804 1.392 . S
C805 H817 0.929 . S
C806 C802 1.531 . S
C806 H818 0.960 1_455 S
C806 H819 0.962 . S
C806 H820 0.960 . S
C807 C804 1.511 . S
C807 H821 0.961 . S
C807 H822 0.961 1_455 S
C807 H823 0.961 . S
C808 C809 1.370 . S
C808 C810 1.363 . S
C808 H824 0.931 . S
C809 C808 1.370 . S
C809 C813 1.408 . S
C810 C808 1.363 . S
C810 C811 1.370 . S
C810 C814 1.524 . S
C811 C803 1.503 1_655 S
C811 C810 1.370 . S
C811 C812 1.403 . S
C812 C811 1.403 . S
C812 C813 1.404 . S
C812 C815 1.539 . S
C813 C809 1.408 . S
C813 C812 1.404 . S
C813 H825 0.930 . S
C814 C810 1.524 . S
C814 H826 0.956 . S
C814 H827 0.961 1_655 S
C814 H828 0.961 . S
C815 C812 1.539 . S
C815 H829 0.958 . S
C815 H830 0.961 . S
C815 H831 0.964 . S
H816 C800 0.931 . S
H817 C805 0.929 . S
H818 C806 0.960 1_655 S
H819 C806 0.962 . S
H820 C806 0.960 . S
H821 C807 0.961 . S
H822 C807 0.961 1_655 S
H823 C807 0.961 . S
H824 C808 0.931 . S
H825 C813 0.930 . S
H826 C814 0.956 . S
H827 C814 0.961 1_455 S
H828 C814 0.961 . S
H829 C815 0.958 . S
H830 C815 0.961 . S
H831 C815 0.964 . S
C832 C833 1.391 1_556 S
C832 C834 1.394 . S
C832 H848 0.931 . S
C833 C832 1.391 1_554 S
C833 C837 1.376 . S
C834 C832 1.394 . S
C834 C835 1.369 1_556 S
C834 C838 1.531 . S
C835 C834 1.369 1_554 S
C835 C836 1.410 . S
C835 C843 1.503 . S
C836 C835 1.410 . S
C836 C837 1.392 . S
C836 C839 1.511 . S
C837 C833 1.376 . S
C837 C836 1.392 . S
C837 H849 0.929 . S
C838 C834 1.531 . S
C838 H850 0.960 . S
C838 H851 0.962 . S
C838 H852 0.960 . S
C839 C836 1.511 . S
C839 H853 0.961 . S
C839 H854 0.961 . S
C839 H855 0.961 . S
C840 C841 1.370 . S
C840 C842 1.363 . S
C840 H856 0.931 . S
C841 C840 1.370 . S
C841 C845 1.408 1_556 S
C842 C840 1.363 . S
C842 C843 1.370 1_556 S
C842 C846 1.524 . S
C843 C835 1.503 . S
C843 C842 1.370 1_554 S
C843 C844 1.403 . S
C844 C843 1.403 . S
C844 C845 1.404 . S
C844 C847 1.539 . S
C845 C841 1.408 1_554 S
C845 C844 1.404 . S
C845 H857 0.930 . S
C846 C842 1.524 . S
C846 H858 0.956 . S
C846 H859 0.961 . S
C846 H860 0.961 . S
C847 C844 1.539 . S
C847 H861 0.958 . S
C847 H862 0.961 . S
C847 H863 0.960 . S
H848 C832 0.931 . S
H849 C837 0.929 . S
H850 C838 0.960 . S
H851 C838 0.962 . S
H852 C838 0.960 . S
H853 C839 0.961 . S
H854 C839 0.961 . S
H855 C839 0.961 . S
H856 C840 0.931 . S
H857 C845 0.930 . S
H858 C846 0.956 . S
H859 C846 0.961 . S
H860 C846 0.961 . S
H861 C847 0.958 . S
H862 C847 0.961 . S
H863 C847 0.960 . S
C864 C865 1.391 1_554 S
C864 C866 1.394 . S
C864 H880 0.931 . S
C865 C864 1.391 1_556 S
C865 C869 1.376 . S
C866 C864 1.394 . S
C866 C867 1.369 1_554 S
C866 C870 1.531 . S
C867 C866 1.369 1_556 S
C867 C868 1.410 . S
C867 C875 1.504 . S
C868 C867 1.410 . S
C868 C869 1.392 . S
C868 C871 1.511 . S
C869 C865 1.376 . S
C869 C868 1.392 . S
C869 H881 0.929 . S
C870 C866 1.531 . S
C870 H882 0.960 . S
C870 H883 0.962 . S
C870 H884 0.960 . S
C871 C868 1.511 . S
C871 H885 0.961 . S
C871 H886 0.961 . S
C871 H887 0.961 . S
C872 C873 1.370 . S
C872 C874 1.363 . S
C872 H888 0.931 . S
C873 C872 1.370 . S
C873 C877 1.408 1_554 S
C874 C872 1.363 . S
C874 C875 1.368 1_554 S
C874 C878 1.524 . S
C875 C867 1.504 . S
C875 C874 1.368 1_556 S
C875 C876 1.404 . S
C876 C875 1.404 . S
C876 C877 1.404 . S
C876 C879 1.539 . S
C877 C873 1.408 1_556 S
C877 C876 1.404 . S
C877 H889 0.930 . S
C878 C874 1.524 . S
C878 H890 0.956 . S
C878 H891 0.961 1_554 S
C878 H892 0.961 . S
C879 C876 1.539 . S
C879 H893 0.958 1_556 S
C879 H894 0.961 . S
C879 H895 0.960 . S
H880 C864 0.931 . S
H881 C869 0.929 . S
H882 C870 0.960 . S
H883 C870 0.962 . S
H884 C870 0.960 . S
H885 C871 0.961 . S
H886 C871 0.961 . S
H887 C871 0.961 . S
H888 C872 0.931 . S
H889 C877 0.930 . S
H890 C878 0.956 . S
H891 C878 0.961 1_556 S
H892 C878 0.961 . S
H893 C879 0.958 1_554 S
H894 C879 0.961 . S
H895 C879 0.960 . S
C896 C897 1.391 . S
C896 C898 1.394 . S
C896 H912 0.931 . S
C897 C896 1.391 . S
C897 C901 1.376 1_554 S
C898 C896 1.394 . S
C898 C899 1.369 . S
C898 C902 1.531 . S
C899 C898 1.369 . S
C899 C900 1.410 1_554 S
C899 C907 1.503 . S
C900 C899 1.410 1_556 S
C900 C901 1.392 . S
C900 C903 1.511 . S
C901 C897 1.376 1_556 S
C901 C900 1.392 . S
C901 H913 0.929 . S
C902 C898 1.531 . S
C902 H914 0.960 . S
C902 H915 0.962 . S
C902 H916 0.960 . S
C903 C900 1.511 . S
C903 H917 0.961 . S
C903 H918 0.961 . S
C903 H919 0.961 . S
C904 C905 1.370 . S
C904 C906 1.363 . S
C904 H920 0.931 . S
C905 C904 1.370 . S
C905 C909 1.408 1_556 S
C906 C904 1.363 . S
C906 C907 1.370 1_556 S
C906 C910 1.524 . S
C907 C899 1.503 . S
C907 C906 1.370 1_554 S
C907 C908 1.403 . S
C908 C907 1.403 . S
C908 C909 1.404 . S
C908 C911 1.539 . S
C909 C905 1.408 1_554 S
C909 C908 1.404 . S
C909 H921 0.930 . S
C910 C906 1.524 . S
C910 H922 0.956 . S
C910 H923 0.961 . S
C910 H924 0.961 . S
C911 C908 1.539 . S
C911 H925 0.958 . S
C911 H926 0.961 . S
C911 H927 0.960 . S
H912 C896 0.931 . S
H913 C901 0.929 . S
H914 C902 0.960 . S
H915 C902 0.962 . S
H916 C902 0.960 . S
H917 C903 0.961 . S
H918 C903 0.961 . S
H919 C903 0.961 . S
H920 C904 0.931 . S
H921 C909 0.930 . S
H922 C910 0.956 . S
H923 C910 0.961 . S
H924 C910 0.961 . S
H925 C911 0.958 . S
H926 C911 0.961 . S
H927 C911 0.960 . S
C928 C929 1.391 . S
C928 C930 1.394 . S
C928 H944 0.931 1_554 S
C929 C928 1.391 . S
C929 C933 1.376 . S
C930 C928 1.394 . S
C930 C931 1.369 . S
C930 C934 1.531 . S
C931 C930 1.369 . S
C931 C932 1.410 . S
C931 C939 1.503 . S
C932 C931 1.410 . S
C932 C933 1.392 . S
C932 C935 1.511 . S
C933 C929 1.376 . S
C933 C932 1.392 . S
C933 H945 0.929 . S
C934 C930 1.531 . S
C934 H946 0.960 . S
C934 H947 0.962 1_554 S
C934 H948 0.960 . S
C935 C932 1.511 . S
C935 H949 0.961 . S
C935 H950 0.961 . S
C935 H951 0.961 . S
C936 C937 1.370 1_556 S
C936 C938 1.363 . S
C936 H952 0.931 . S
C937 C936 1.370 1_554 S
C937 C941 1.408 . S
C938 C936 1.363 . S
C938 C939 1.370 1_556 S
C938 C942 1.524 . S
C939 C931 1.503 . S
C939 C938 1.370 1_554 S
C939 C940 1.403 . S
C940 C939 1.403 . S
C940 C941 1.404 . S
C940 C943 1.539 . S
C941 C937 1.408 . S
C941 C940 1.404 . S
C941 H953 0.930 . S
C942 C938 1.524 . S
C942 H954 0.956 . S
C942 H955 0.961 . S
C942 H956 0.961 . S
C943 C940 1.539 . S
C943 H957 0.958 . S
C943 H958 0.961 . S
C943 H959 0.960 . S
H944 C928 0.931 1_556 S
H945 C933 0.929 . S
H946 C934 0.960 . S
H947 C934 0.962 1_556 S
H948 C934 0.960 . S
H949 C935 0.961 . S
H950 C935 0.961 . S
H951 C935 0.961 . S
H952 C936 0.931 . S
H953 C941 0.930 . S
H954 C942 0.956 . S
H955 C942 0.961 . S
H956 C942 0.961 . S
H957 C943 0.958 . S
H958 C943 0.961 . S
H959 C943 0.960 . S
C960 C961 1.391 . S
C960 C962 1.394 . S
C960 H976 0.931 . S
C961 C960 1.391 . S
C961 C965 1.376 . S
C962 C960 1.394 . S
C962 C963 1.369 . S
C962 C966 1.531 . S
C963 C962 1.369 . S
C963 C964 1.410 . S
C963 C971 1.503 . S
C964 C963 1.410 . S
C964 C965 1.392 . S
C964 C967 1.511 . S
C965 C961 1.376 . S
C965 C964 1.392 . S
C965 H977 0.929 . S
C966 C962 1.531 . S
C966 H978 0.960 . S
C966 H979 0.962 . S
C966 H980 0.960 . S
C967 C964 1.511 . S
C967 H981 0.961 . S
C967 H982 0.961 . S
C967 H983 0.961 . S
C968 C969 1.370 . S
C968 C970 1.363 . S
C968 H984 0.931 . S
C969 C968 1.370 . S
C969 C973 1.408 . S
C970 C968 1.363 . S
C970 C971 1.370 . S
C970 C974 1.524 . S
C971 C963 1.503 . S
C971 C970 1.370 . S
C971 C972 1.403 . S
C972 C971 1.403 . S
C972 C973 1.404 . S
C972 C975 1.539 . S
C973 C969 1.408 . S
C973 C972 1.404 . S
C973 H985 0.930 . S
C974 C970 1.524 . S
C974 H986 0.956 . S
C974 H987 0.961 . S
C974 H988 0.961 . S
C975 C972 1.539 . S
C975 H989 0.958 . S
C975 H990 0.961 . S
C975 H991 0.960 . S
H976 C960 0.931 . S
H977 C965 0.929 . S
H978 C966 0.960 . S
H979 C966 0.962 . S
H980 C966 0.960 . S
H981 C967 0.961 . S
H982 C967 0.961 . S
H983 C967 0.961 . S
H984 C968 0.931 . S
H985 C973 0.930 . S
H986 C974 0.956 . S
H987 C974 0.961 . S
H988 C974 0.961 . S
H989 C975 0.958 . S
H990 C975 0.961 . S
H991 C975 0.960 . S
C992 C993 1.391 . S
C992 C994 1.394 . S
C992 H1008 0.931 . S
C993 C992 1.391 . S
C993 C997 1.376 . S
C994 C992 1.394 . S
C994 C995 1.369 . S
C994 C998 1.531 . S
C995 C994 1.369 . S
C995 C996 1.410 . S
C995 C1003 1.503 . S
C996 C995 1.410 . S
C996 C997 1.392 . S
C996 C999 1.511 . S
C997 C993 1.376 . S
C997 C996 1.392 . S
C997 H1009 0.929 . S
C998 C994 1.531 . S
C998 H1010 0.960 . S
C998 H1011 0.962 . S
C998 H1012 0.960 . S
C999 C996 1.511 . S
C999 H1013 0.961 . S
C999 H1014 0.961 . S
C999 H1015 0.961 . S
C1000 C1001 1.370 . S
C1000 C1002 1.363 . S
C1000 H1016 0.931 . S
C1001 C1000 1.370 . S
C1001 C1005 1.408 . S
C1002 C1000 1.363 . S
C1002 C1003 1.370 . S
C1002 C1006 1.524 . S
C1003 C995 1.503 . S
C1003 C1002 1.370 . S
C1003 C1004 1.403 . S
C1004 C1003 1.403 . S
C1004 C1005 1.404 . S
C1004 C1007 1.539 . S
C1005 C1001 1.408 . S
C1005 C1004 1.404 . S
C1005 H1017 0.930 . S
C1006 C1002 1.524 . S
C1006 H1018 0.956 . S
C1006 H1019 0.961 . S
C1006 H1020 0.961 . S
C1007 C1004 1.539 . S
C1007 H1021 0.958 . S
C1007 H1022 0.961 . S
C1007 H1023 0.960 . S
H1008 C992 0.931 . S
H1009 C997 0.929 . S
H1010 C998 0.960 . S
H1011 C998 0.962 . S
H1012 C998 0.960 . S
H1013 C999 0.961 . S
H1014 C999 0.961 . S
H1015 C999 0.961 . S
H1016 C1000 0.931 . S
H1017 C1005 0.930 . S
H1018 C1006 0.956 . S
H1019 C1006 0.961 . S
H1020 C1006 0.961 . S
H1021 C1007 0.958 . S
H1022 C1007 0.961 . S
H1023 C1007 0.960 . S
C1024 C1025 1.391 . S
C1024 C1026 1.394 . S
C1024 H1040 0.931 . S
C1025 C1024 1.391 . S
C1025 C1029 1.376 . S
C1026 C1024 1.394 . S
C1026 C1027 1.369 . S
C1026 C1030 1.531 . S
C1027 C1026 1.369 . S
C1027 C1028 1.410 . S
C1027 C1035 1.503 . S
C1028 C1027 1.410 . S
C1028 C1029 1.392 . S
C1028 C1031 1.511 . S
C1029 C1025 1.376 . S
C1029 C1028 1.392 . S
C1029 H1041 0.929 . S
C1030 C1026 1.531 . S
C1030 H1042 0.960 . S
C1030 H1043 0.962 . S
C1030 H1044 0.960 . S
C1031 C1028 1.511 . S
C1031 H1045 0.961 . S
C1031 H1046 0.961 . S
C1031 H1047 0.961 . S
C1032 C1033 1.370 . S
C1032 C1034 1.363 . S
C1032 H1048 0.931 . S
C1033 C1032 1.370 . S
C1033 C1037 1.408 . S
C1034 C1032 1.363 . S
C1034 C1035 1.370 . S
C1034 C1038 1.524 . S
C1035 C1027 1.503 . S
C1035 C1034 1.370 . S
C1035 C1036 1.403 . S
C1036 C1035 1.403 . S
C1036 C1037 1.404 . S
C1036 C1039 1.539 . S
C1037 C1033 1.408 . S
C1037 C1036 1.404 . S
C1037 H1049 0.930 . S
C1038 C1034 1.524 . S
C1038 H1050 0.956 . S
C1038 H1051 0.961 . S
C1038 H1052 0.961 . S
C1039 C1036 1.539 . S
C1039 H1053 0.958 . S
C1039 H1054 0.961 . S
C1039 H1055 0.960 . S
H1040 C1024 0.931 . S
H1041 C1029 0.929 . S
H1042 C1030 0.960 . S
H1043 C1030 0.962 . S
H1044 C1030 0.960 . S
H1045 C1031 0.961 . S
H1046 C1031 0.961 . S
H1047 C1031 0.961 . S
H1048 C1032 0.931 . S
H1049 C1037 0.930 . S
H1050 C1038 0.956 . S
H1051 C1038 0.961 . S
H1052 C1038 0.961 . S
H1053 C1039 0.958 . S
H1054 C1039 0.961 . S
H1055 C1039 0.960 . S
C1056 C1057 1.391 . S
C1056 C1058 1.394 . S
C1056 H1072 0.931 . S
C1057 C1056 1.391 . S
C1057 C1061 1.376 . S
C1058 C1056 1.394 . S
C1058 C1059 1.369 . S
C1058 C1062 1.531 . S
C1059 C1058 1.369 . S
C1059 C1060 1.410 . S
C1059 C1067 1.503 . S
C1060 C1059 1.410 . S
C1060 C1061 1.392 . S
C1060 C1063 1.511 . S
C1061 C1057 1.376 . S
C1061 C1060 1.392 . S
C1061 H1073 0.929 . S
C1062 C1058 1.531 . S
C1062 H1074 0.960 . S
C1062 H1075 0.962 . S
C1062 H1076 0.960 . S
C1063 C1060 1.511 . S
C1063 H1077 0.961 . S
C1063 H1078 0.961 . S
C1063 H1079 0.961 . S
C1064 C1065 1.370 . S
C1064 C1066 1.363 . S
C1064 H1080 0.931 . S
C1065 C1064 1.370 . S
C1065 C1069 1.408 . S
C1066 C1064 1.363 . S
C1066 C1067 1.370 . S
C1066 C1070 1.524 . S
C1067 C1059 1.503 . S
C1067 C1066 1.370 . S
C1067 C1068 1.403 . S
C1068 C1067 1.403 . S
C1068 C1069 1.404 . S
C1068 C1071 1.539 . S
C1069 C1065 1.408 . S
C1069 C1068 1.404 . S
C1069 H1081 0.930 . S
C1070 C1066 1.524 . S
C1070 H1082 0.956 . S
C1070 H1083 0.961 . S
C1070 H1084 0.961 . S
C1071 C1068 1.539 . S
C1071 H1085 0.958 . S
C1071 H1086 0.961 . S
C1071 H1087 0.960 . S
H1072 C1056 0.931 . S
H1073 C1061 0.929 . S
H1074 C1062 0.960 . S
H1075 C1062 0.962 . S
H1076 C1062 0.960 . S
H1077 C1063 0.961 . S
H1078 C1063 0.961 . S
H1079 C1063 0.961 . S
H1080 C1064 0.931 . S
H1081 C1069 0.930 . S
H1082 C1070 0.956 . S
H1083 C1070 0.961 . S
H1084 C1070 0.961 . S
H1085 C1071 0.958 . S
H1086 C1071 0.961 . S
H1087 C1071 0.960 . S
C1088 C1089 1.391 . S
C1088 C1090 1.394 . S
C1088 H1104 0.931 . S
C1089 C1088 1.391 . S
C1089 C1093 1.376 . S
C1090 C1088 1.394 . S
C1090 C1091 1.369 . S
C1090 C1094 1.531 . S
C1091 C1090 1.369 . S
C1091 C1092 1.410 . S
C1091 C1099 1.503 . S
C1092 C1091 1.410 . S
C1092 C1093 1.392 . S
C1092 C1095 1.511 . S
C1093 C1089 1.376 . S
C1093 C1092 1.392 . S
C1093 H1105 0.929 . S
C1094 C1090 1.531 . S
C1094 H1106 0.960 . S
C1094 H1107 0.962 . S
C1094 H1108 0.960 . S
C1095 C1092 1.511 . S
C1095 H1109 0.961 . S
C1095 H1110 0.961 . S
C1095 H1111 0.961 . S
C1096 C1097 1.370 . S
C1096 C1098 1.363 . S
C1096 H1112 0.931 . S
C1097 C1096 1.370 . S
C1097 C1101 1.408 . S
C1098 C1096 1.363 . S
C1098 C1099 1.370 . S
C1098 C1102 1.524 . S
C1099 C1091 1.503 . S
C1099 C1098 1.370 . S
C1099 C1100 1.403 . S
C1100 C1099 1.403 . S
C1100 C1101 1.404 . S
C1100 C1103 1.539 . S
C1101 C1097 1.408 . S
C1101 C1100 1.404 . S
C1101 H1113 0.930 . S
C1102 C1098 1.524 . S
C1102 H1114 0.956 . S
C1102 H1115 0.961 . S
C1102 H1116 0.961 . S
C1103 C1100 1.539 . S
C1103 H1117 0.958 . S
C1103 H1118 0.961 . S
C1103 H1119 0.960 . S
H1104 C1088 0.931 . S
H1105 C1093 0.929 . S
H1106 C1094 0.960 . S
H1107 C1094 0.962 . S
H1108 C1094 0.960 . S
H1109 C1095 0.961 . S
H1110 C1095 0.961 . S
H1111 C1095 0.961 . S
H1112 C1096 0.931 . S
H1113 C1101 0.930 . S
H1114 C1102 0.956 . S
H1115 C1102 0.961 . S
H1116 C1102 0.961 . S
H1117 C1103 0.958 . S
H1118 C1103 0.961 . S
H1119 C1103 0.960 . S
C1120 C1121 1.391 . S
C1120 C1122 1.394 . S
C1120 H1136 0.931 . S
C1121 C1120 1.391 . S
C1121 C1125 1.376 . S
C1122 C1120 1.394 . S
C1122 C1123 1.369 . S
C1122 C1126 1.531 . S
C1123 C1122 1.369 . S
C1123 C1124 1.410 . S
C1123 C1131 1.503 . S
C1124 C1123 1.410 . S
C1124 C1125 1.392 . S
C1124 C1127 1.511 . S
C1125 C1121 1.376 . S
C1125 C1124 1.392 . S
C1125 H1137 0.929 . S
C1126 C1122 1.531 . S
C1126 H1138 0.960 . S
C1126 H1139 0.962 . S
C1126 H1140 0.960 . S
C1127 C1124 1.511 . S
C1127 H1141 0.961 . S
C1127 H1142 0.961 . S
C1127 H1143 0.961 . S
C1128 C1129 1.370 . S
C1128 C1130 1.363 . S
C1128 H1144 0.931 . S
C1129 C1128 1.370 . S
C1129 C1133 1.408 . S
C1130 C1128 1.363 . S
C1130 C1131 1.370 . S
C1130 C1134 1.524 . S
C1131 C1123 1.503 . S
C1131 C1130 1.370 . S
C1131 C1132 1.403 . S
C1132 C1131 1.403 . S
C1132 C1133 1.404 . S
C1132 C1135 1.539 . S
C1133 C1129 1.408 . S
C1133 C1132 1.404 . S
C1133 H1145 0.930 . S
C1134 C1130 1.524 . S
C1134 H1146 0.956 . S
C1134 H1147 0.961 . S
C1134 H1148 0.961 . S
C1135 C1132 1.539 . S
C1135 H1149 0.958 . S
C1135 H1150 0.961 . S
C1135 H1151 0.960 . S
H1136 C1120 0.931 . S
H1137 C1125 0.929 . S
H1138 C1126 0.960 . S
H1139 C1126 0.962 . S
H1140 C1126 0.960 . S
H1141 C1127 0.961 . S
H1142 C1127 0.961 . S
H1143 C1127 0.961 . S
H1144 C1128 0.931 . S
H1145 C1133 0.930 . S
H1146 C1134 0.956 . S
H1147 C1134 0.961 . S
H1148 C1134 0.961 . S
H1149 C1135 0.958 . S
H1150 C1135 0.961 . S
H1151 C1135 0.960 . S
C1152 C1153 1.391 . S
C1152 C1154 1.394 . S
C1152 H1168 0.931 . S
C1153 C1152 1.391 . S
C1153 C1157 1.376 . S
C1154 C1152 1.394 . S
C1154 C1155 1.369 . S
C1154 C1158 1.531 . S
C1155 C1154 1.369 . S
C1155 C1156 1.410 . S
C1155 C1163 1.503 . S
C1156 C1155 1.410 . S
C1156 C1157 1.392 . S
C1156 C1159 1.511 . S
C1157 C1153 1.376 . S
C1157 C1156 1.392 . S
C1157 H1169 0.929 . S
C1158 C1154 1.531 . S
C1158 H1170 0.960 . S
C1158 H1171 0.962 . S
C1158 H1172 0.960 . S
C1159 C1156 1.511 . S
C1159 H1173 0.961 . S
C1159 H1174 0.961 . S
C1159 H1175 0.961 . S
C1160 C1161 1.370 . S
C1160 C1162 1.363 . S
C1160 H1176 0.931 . S
C1161 C1160 1.370 . S
C1161 C1165 1.408 . S
C1162 C1160 1.363 . S
C1162 C1163 1.370 . S
C1162 C1166 1.524 . S
C1163 C1155 1.503 . S
C1163 C1162 1.370 . S
C1163 C1164 1.403 . S
C1164 C1163 1.403 . S
C1164 C1165 1.404 . S
C1164 C1167 1.539 . S
C1165 C1161 1.408 . S
C1165 C1164 1.404 . S
C1165 H1177 0.930 . S
C1166 C1162 1.524 . S
C1166 H1178 0.956 . S
C1166 H1179 0.961 . S
C1166 H1180 0.961 . S
C1167 C1164 1.539 . S
C1167 H1181 0.958 . S
C1167 H1182 0.961 . S
C1167 H1183 0.960 . S
H1168 C1152 0.931 . S
H1169 C1157 0.929 . S
H1170 C1158 0.960 . S
H1171 C1158 0.962 . S
H1172 C1158 0.960 . S
H1173 C1159 0.961 . S
H1174 C1159 0.961 . S
H1175 C1159 0.961 . S
H1176 C1160 0.931 . S
H1177 C1165 0.930 . S
H1178 C1166 0.956 . S
H1179 C1166 0.961 . S
H1180 C1166 0.961 . S
H1181 C1167 0.958 . S
H1182 C1167 0.961 . S
H1183 C1167 0.960 . S
C1184 C1185 1.391 . S
C1184 C1186 1.394 . S
C1184 H1200 0.931 . S
C1185 C1184 1.391 . S
C1185 C1189 1.376 . S
C1186 C1184 1.394 . S
C1186 C1187 1.369 . S
C1186 C1190 1.531 . S
C1187 C1186 1.369 . S
C1187 C1188 1.410 . S
C1187 C1195 1.503 . S
C1188 C1187 1.410 . S
C1188 C1189 1.392 . S
C1188 C1191 1.511 . S
C1189 C1185 1.376 . S
C1189 C1188 1.392 . S
C1189 H1201 0.929 . S
C1190 C1186 1.531 . S
C1190 H1202 0.960 . S
C1190 H1203 0.962 . S
C1190 H1204 0.960 . S
C1191 C1188 1.511 . S
C1191 H1205 0.961 . S
C1191 H1206 0.961 . S
C1191 H1207 0.961 . S
C1192 C1193 1.370 . S
C1192 C1194 1.363 . S
C1192 H1208 0.931 . S
C1193 C1192 1.370 . S
C1193 C1197 1.408 . S
C1194 C1192 1.363 . S
C1194 C1195 1.370 . S
C1194 C1198 1.524 . S
C1195 C1187 1.503 . S
C1195 C1194 1.370 . S
C1195 C1196 1.403 . S
C1196 C1195 1.403 . S
C1196 C1197 1.404 . S
C1196 C1199 1.539 . S
C1197 C1193 1.408 . S
C1197 C1196 1.404 . S
C1197 H1209 0.930 . S
C1198 C1194 1.524 . S
C1198 H1210 0.956 . S
C1198 H1211 0.961 . S
C1198 H1212 0.961 . S
C1199 C1196 1.539 . S
C1199 H1213 0.958 . S
C1199 H1214 0.961 . S
C1199 H1215 0.960 . S
H1200 C1184 0.931 . S
H1201 C1189 0.929 . S
H1202 C1190 0.960 . S
H1203 C1190 0.962 . S
H1204 C1190 0.960 . S
H1205 C1191 0.961 . S
H1206 C1191 0.961 . S
H1207 C1191 0.961 . S
H1208 C1192 0.931 . S
H1209 C1197 0.930 . S
H1210 C1198 0.956 . S
H1211 C1198 0.961 . S
H1212 C1198 0.961 . S
H1213 C1199 0.958 . S
H1214 C1199 0.961 . S
H1215 C1199 0.960 . S
C1216 C1217 1.391 . S
C1216 C1218 1.394 . S
C1216 H1232 0.931 . S
C1217 C1216 1.391 . S
C1217 C1221 1.376 . S
C1218 C1216 1.394 . S
C1218 C1219 1.369 . S
C1218 C1222 1.531 . S
C1219 C1218 1.369 . S
C1219 C1220 1.410 . S
C1219 C1227 1.503 . S
C1220 C1219 1.410 . S
C1220 C1221 1.392 . S
C1220 C1223 1.511 . S
C1221 C1217 1.376 . S
C1221 C1220 1.392 . S
C1221 H1233 0.929 . S
C1222 C1218 1.531 . S
C1222 H1234 0.960 . S
C1222 H1235 0.962 . S
C1222 H1236 0.960 . S
C1223 C1220 1.511 . S
C1223 H1237 0.961 . S
C1223 H1238 0.961 . S
C1223 H1239 0.961 . S
C1224 C1225 1.370 . S
C1224 C1226 1.363 . S
C1224 H1240 0.931 . S
C1225 C1224 1.370 . S
C1225 C1229 1.408 . S
C1226 C1224 1.363 . S
C1226 C1227 1.370 . S
C1226 C1230 1.524 . S
C1227 C1219 1.503 . S
C1227 C1226 1.370 . S
C1227 C1228 1.403 . S
C1228 C1227 1.403 . S
C1228 C1229 1.404 . S
C1228 C1231 1.539 . S
C1229 C1225 1.408 . S
C1229 C1228 1.404 . S
C1229 H1241 0.930 . S
C1230 C1226 1.524 . S
C1230 H1242 0.956 . S
C1230 H1243 0.961 . S
C1230 H1244 0.961 . S
C1231 C1228 1.539 . S
C1231 H1245 0.958 . S
C1231 H1246 0.961 . S
C1231 H1247 0.960 . S
H1232 C1216 0.931 . S
H1233 C1221 0.929 . S
H1234 C1222 0.960 . S
H1235 C1222 0.962 . S
H1236 C1222 0.960 . S
H1237 C1223 0.961 . S
H1238 C1223 0.961 . S
H1239 C1223 0.961 . S
H1240 C1224 0.931 . S
H1241 C1229 0.930 . S
H1242 C1230 0.956 . S
H1243 C1230 0.961 . S
H1244 C1230 0.961 . S
H1245 C1231 0.958 . S
H1246 C1231 0.961 . S
H1247 C1231 0.960 . S
C1248 C1249 1.391 . S
C1248 C1250 1.394 . S
C1248 H1264 0.931 . S
C1249 C1248 1.391 . S
C1249 C1253 1.376 . S
C1250 C1248 1.394 . S
C1250 C1251 1.369 . S
C1250 C1254 1.531 . S
C1251 C1250 1.369 . S
C1251 C1252 1.410 . S
C1251 C1259 1.503 . S
C1252 C1251 1.410 . S
C1252 C1253 1.392 . S
C1252 C1255 1.511 . S
C1253 C1249 1.376 . S
C1253 C1252 1.392 . S
C1253 H1265 0.929 . S
C1254 C1250 1.531 . S
C1254 H1266 0.960 . S
C1254 H1267 0.962 . S
C1254 H1268 0.960 . S
C1255 C1252 1.511 . S
C1255 H1269 0.961 . S
C1255 H1270 0.961 . S
C1255 H1271 0.961 . S
C1256 C1257 1.370 . S
C1256 C1258 1.363 . S
C1256 H1272 0.931 . S
C1257 C1256 1.370 . S
C1257 C1261 1.408 . S
C1258 C1256 1.363 . S
C1258 C1259 1.370 . S
C1258 C1262 1.524 . S
C1259 C1251 1.503 . S
C1259 C1258 1.370 . S
C1259 C1260 1.403 . S
C1260 C1259 1.403 . S
C1260 C1261 1.404 . S
C1260 C1263 1.539 . S
C1261 C1257 1.408 . S
C1261 C1260 1.404 . S
C1261 H1273 0.930 . S
C1262 C1258 1.524 . S
C1262 H1274 0.956 . S
C1262 H1275 0.961 . S
C1262 H1276 0.961 . S
C1263 C1260 1.539 . S
C1263 H1277 0.958 . S
C1263 H1278 0.961 . S
C1263 H1279 0.960 . S
H1264 C1248 0.931 . S
H1265 C1253 0.929 . S
H1266 C1254 0.960 . S
H1267 C1254 0.962 . S
H1268 C1254 0.960 . S
H1269 C1255 0.961 . S
H1270 C1255 0.961 . S
H1271 C1255 0.961 . S
H1272 C1256 0.931 . S
H1273 C1261 0.930 . S
H1274 C1262 0.956 . S
H1275 C1262 0.961 . S
H1276 C1262 0.961 . S
H1277 C1263 0.958 . S
H1278 C1263 0.961 . S
H1279 C1263 0.960 . S
C1280 C1281 1.391 . S
C1280 C1282 1.394 . S
C1280 H1296 0.931 . S
C1281 C1280 1.391 . S
C1281 C1285 1.376 . S
C1282 C1280 1.394 . S
C1282 C1283 1.369 . S
C1282 C1286 1.531 . S
C1283 C1282 1.369 . S
C1283 C1284 1.410 . S
C1283 C1291 1.503 . S
C1284 C1283 1.410 . S
C1284 C1285 1.392 . S
C1284 C1287 1.511 . S
C1285 C1281 1.376 . S
C1285 C1284 1.392 . S
C1285 H1297 0.929 . S
C1286 C1282 1.531 . S
C1286 H1298 0.960 . S
C1286 H1299 0.962 . S
C1286 H1300 0.960 . S
C1287 C1284 1.511 . S
C1287 H1301 0.961 . S
C1287 H1302 0.961 . S
C1287 H1303 0.961 . S
C1288 C1289 1.370 . S
C1288 C1290 1.363 . S
C1288 H1304 0.931 . S
C1289 C1288 1.370 . S
C1289 C1293 1.408 . S
C1290 C1288 1.363 . S
C1290 C1291 1.370 . S
C1290 C1294 1.524 . S
C1291 C1283 1.503 . S
C1291 C1290 1.370 . S
C1291 C1292 1.403 . S
C1292 C1291 1.403 . S
C1292 C1293 1.404 . S
C1292 C1295 1.539 . S
C1293 C1289 1.408 . S
C1293 C1292 1.404 . S
C1293 H1305 0.930 . S
C1294 C1290 1.524 . S
C1294 H1306 0.956 . S
C1294 H1307 0.961 . S
C1294 H1308 0.961 . S
C1295 C1292 1.539 . S
C1295 H1309 0.958 . S
C1295 H1310 0.961 . S
C1295 H1311 0.960 . S
H1296 C1280 0.931 . S
H1297 C1285 0.929 . S
H1298 C1286 0.960 . S
H1299 C1286 0.962 . S
H1300 C1286 0.960 . S
H1301 C1287 0.961 . S
H1302 C1287 0.961 . S
H1303 C1287 0.961 . S
H1304 C1288 0.931 . S
H1305 C1293 0.930 . S
H1306 C1294 0.956 . S
H1307 C1294 0.961 . S
H1308 C1294 0.961 . S
H1309 C1295 0.958 . S
H1310 C1295 0.961 . S
H1311 C1295 0.960 . S
C1312 C1313 1.391 . S
C1312 C1314 1.394 . S
C1312 H1328 0.931 . S
C1313 C1312 1.391 . S
C1313 C1317 1.376 . S
C1314 C1312 1.394 . S
C1314 C1315 1.369 . S
C1314 C1318 1.531 . S
C1315 C1314 1.369 . S
C1315 C1316 1.410 . S
C1315 C1323 1.503 . S
C1316 C1315 1.410 . S
C1316 C1317 1.392 . S
C1316 C1319 1.511 . S
C1317 C1313 1.376 . S
C1317 C1316 1.392 . S
C1317 H1329 0.929 . S
C1318 C1314 1.531 . S
C1318 H1330 0.960 . S
C1318 H1331 0.962 . S
C1318 H1332 0.960 . S
C1319 C1316 1.511 . S
C1319 H1333 0.961 . S
C1319 H1334 0.961 . S
C1319 H1335 0.961 . S
C1320 C1321 1.370 . S
C1320 C1322 1.363 . S
C1320 H1336 0.931 . S
C1321 C1320 1.370 . S
C1321 C1325 1.408 . S
C1322 C1320 1.363 . S
C1322 C1323 1.370 . S
C1322 C1326 1.524 . S
C1323 C1315 1.503 . S
C1323 C1322 1.370 . S
C1323 C1324 1.403 . S
C1324 C1323 1.403 . S
C1324 C1325 1.404 . S
C1324 C1327 1.539 . S
C1325 C1321 1.408 . S
C1325 C1324 1.404 . S
C1325 H1337 0.930 . S
C1326 C1322 1.524 . S
C1326 H1338 0.956 . S
C1326 H1339 0.961 . S
C1326 H1340 0.961 . S
C1327 C1324 1.539 . S
C1327 H1341 0.958 . S
C1327 H1342 0.961 . S
C1327 H1343 0.960 . S
H1328 C1312 0.931 . S
H1329 C1317 0.929 . S
H1330 C1318 0.960 . S
H1331 C1318 0.962 . S
H1332 C1318 0.960 . S
H1333 C1319 0.961 . S
H1334 C1319 0.961 . S
H1335 C1319 0.961 . S
H1336 C1320 0.931 . S
H1337 C1325 0.930 . S
H1338 C1326 0.956 . S
H1339 C1326 0.961 . S
H1340 C1326 0.961 . S
H1341 C1327 0.958 . S
H1342 C1327 0.961 . S
H1343 C1327 0.960 . S
C1344 C1345 1.391 . S
C1344 C1346 1.394 . S
C1344 H1360 0.931 . S
C1345 C1344 1.391 . S
C1345 C1349 1.376 . S
C1346 C1344 1.394 . S
C1346 C1347 1.369 . S
C1346 C1350 1.531 . S
C1347 C1346 1.369 . S
C1347 C1348 1.410 . S
C1347 C1355 1.503 . S
C1348 C1347 1.410 . S
C1348 C1349 1.392 . S
C1348 C1351 1.511 . S
C1349 C1345 1.376 . S
C1349 C1348 1.392 . S
C1349 H1361 0.929 . S
C1350 C1346 1.531 . S
C1350 H1362 0.960 . S
C1350 H1363 0.962 . S
C1350 H1364 0.960 . S
C1351 C1348 1.511 . S
C1351 H1365 0.961 . S
C1351 H1366 0.961 . S
C1351 H1367 0.961 . S
C1352 C1353 1.370 . S
C1352 C1354 1.363 . S
C1352 H1368 0.931 . S
C1353 C1352 1.370 . S
C1353 C1357 1.408 . S
C1354 C1352 1.363 . S
C1354 C1355 1.370 . S
C1354 C1358 1.524 . S
C1355 C1347 1.503 . S
C1355 C1354 1.370 . S
C1355 C1356 1.403 . S
C1356 C1355 1.403 . S
C1356 C1357 1.404 . S
C1356 C1359 1.539 . S
C1357 C1353 1.408 . S
C1357 C1356 1.404 . S
C1357 H1369 0.930 . S
C1358 C1354 1.524 . S
C1358 H1370 0.956 . S
C1358 H1371 0.961 . S
C1358 H1372 0.961 . S
C1359 C1356 1.539 . S
C1359 H1373 0.958 . S
C1359 H1374 0.961 . S
C1359 H1375 0.960 . S
H1360 C1344 0.931 . S
H1361 C1349 0.929 . S
H1362 C1350 0.960 . S
H1363 C1350 0.962 . S
H1364 C1350 0.960 . S
H1365 C1351 0.961 . S
H1366 C1351 0.961 . S
H1367 C1351 0.961 . S
H1368 C1352 0.931 . S
H1369 C1357 0.930 . S
H1370 C1358 0.956 . S
H1371 C1358 0.961 . S
H1372 C1358 0.961 . S
H1373 C1359 0.958 . S
H1374 C1359 0.961 . S
H1375 C1359 0.960 . S
C1376 C1377 1.391 . S
C1376 C1378 1.394 . S
C1376 H1392 0.931 . S
C1377 C1376 1.391 . S
C1377 C1381 1.376 . S
C1378 C1376 1.394 . S
C1378 C1379 1.369 . S
C1378 C1382 1.531 . S
C1379 C1378 1.369 . S
C1379 C1380 1.410 . S
C1379 C1387 1.503 . S
C1380 C1379 1.410 . S
C1380 C1381 1.392 . S
C1380 C1383 1.511 . S
C1381 C1377 1.376 . S
C1381 C1380 1.392 . S
C1381 H1393 0.929 . S
C1382 C1378 1.531 . S
C1382 H1394 0.960 . S
C1382 H1395 0.962 . S
C1382 H1396 0.960 . S
C1383 C1380 1.511 . S
C1383 H1397 0.961 . S
C1383 H1398 0.961 . S
C1383 H1399 0.961 . S
C1384 C1385 1.370 . S
C1384 C1386 1.363 . S
C1384 H1400 0.931 . S
C1385 C1384 1.370 . S
C1385 C1389 1.408 . S
C1386 C1384 1.363 . S
C1386 C1387 1.370 . S
C1386 C1390 1.524 . S
C1387 C1379 1.503 . S
C1387 C1386 1.370 . S
C1387 C1388 1.403 . S
C1388 C1387 1.403 . S
C1388 C1389 1.404 . S
C1388 C1391 1.539 . S
C1389 C1385 1.408 . S
C1389 C1388 1.404 . S
C1389 H1401 0.930 . S
C1390 C1386 1.524 . S
C1390 H1402 0.956 . S
C1390 H1403 0.961 . S
C1390 H1404 0.961 . S
C1391 C1388 1.539 . S
C1391 H1405 0.958 . S
C1391 H1406 0.961 . S
C1391 H1407 0.960 . S
H1392 C1376 0.931 . S
H1393 C1381 0.929 . S
H1394 C1382 0.960 . S
H1395 C1382 0.962 . S
H1396 C1382 0.960 . S
H1397 C1383 0.961 . S
H1398 C1383 0.961 . S
H1399 C1383 0.961 . S
H1400 C1384 0.931 . S
H1401 C1389 0.930 . S
H1402 C1390 0.956 . S
H1403 C1390 0.961 . S
H1404 C1390 0.961 . S
H1405 C1391 0.958 . S
H1406 C1391 0.961 . S
H1407 C1391 0.960 . S
C1408 C1409 1.391 . S
C1408 C1410 1.394 . S
C1408 H1424 0.931 . S
C1409 C1408 1.391 . S
C1409 C1413 1.376 . S
C1410 C1408 1.394 . S
C1410 C1411 1.369 . S
C1410 C1414 1.531 . S
C1411 C1410 1.369 . S
C1411 C1412 1.410 . S
C1411 C1419 1.503 . S
C1412 C1411 1.410 . S
C1412 C1413 1.392 . S
C1412 C1415 1.511 . S
C1413 C1409 1.376 . S
C1413 C1412 1.392 . S
C1413 H1425 0.929 . S
C1414 C1410 1.531 . S
C1414 H1426 0.960 . S
C1414 H1427 0.962 . S
C1414 H1428 0.960 . S
C1415 C1412 1.511 . S
C1415 H1429 0.961 . S
C1415 H1430 0.961 . S
C1415 H1431 0.961 . S
C1416 C1417 1.370 . S
C1416 C1418 1.363 . S
C1416 H1432 0.931 . S
C1417 C1416 1.370 . S
C1417 C1421 1.408 . S
C1418 C1416 1.363 . S
C1418 C1419 1.370 . S
C1418 C1422 1.524 . S
C1419 C1411 1.503 . S
C1419 C1418 1.370 . S
C1419 C1420 1.403 . S
C1420 C1419 1.403 . S
C1420 C1421 1.404 . S
C1420 C1423 1.539 . S
C1421 C1417 1.408 . S
C1421 C1420 1.404 . S
C1421 H1433 0.930 . S
C1422 C1418 1.524 . S
C1422 H1434 0.956 . S
C1422 H1435 0.961 . S
C1422 H1436 0.961 . S
C1423 C1420 1.539 . S
C1423 H1437 0.958 . S
C1423 H1438 0.961 . S
C1423 H1439 0.960 . S
H1424 C1408 0.931 . S
H1425 C1413 0.929 . S
H1426 C1414 0.960 . S
H1427 C1414 0.962 . S
H1428 C1414 0.960 . S
H1429 C1415 0.961 . S
H1430 C1415 0.961 . S
H1431 C1415 0.961 . S
H1432 C1416 0.931 . S
H1433 C1421 0.930 . S
H1434 C1422 0.956 . S
H1435 C1422 0.961 . S
H1436 C1422 0.961 . S
H1437 C1423 0.958 . S
H1438 C1423 0.961 . S
H1439 C1423 0.960 . S
C1440 C1441 1.391 . S
C1440 C1442 1.394 . S
C1440 H1456 0.931 . S
C1441 C1440 1.391 . S
C1441 C1445 1.376 . S
C1442 C1440 1.394 . S
C1442 C1443 1.369 . S
C1442 C1446 1.531 . S
C1443 C1442 1.369 . S
C1443 C1444 1.410 . S
C1443 C1451 1.503 . S
C1444 C1443 1.410 . S
C1444 C1445 1.392 . S
C1444 C1447 1.511 . S
C1445 C1441 1.376 . S
C1445 C1444 1.392 . S
C1445 H1457 0.929 . S
C1446 C1442 1.531 . S
C1446 H1458 0.960 . S
C1446 H1459 0.962 . S
C1446 H1460 0.960 . S
C1447 C1444 1.511 . S
C1447 H1461 0.961 . S
C1447 H1462 0.961 . S
C1447 H1463 0.961 . S
C1448 C1449 1.370 . S
C1448 C1450 1.363 . S
C1448 H1464 0.931 . S
C1449 C1448 1.370 . S
C1449 C1453 1.408 . S
C1450 C1448 1.363 . S
C1450 C1451 1.370 . S
C1450 C1454 1.524 . S
C1451 C1443 1.503 . S
C1451 C1450 1.370 . S
C1451 C1452 1.403 . S
C1452 C1451 1.403 . S
C1452 C1453 1.404 . S
C1452 C1455 1.539 . S
C1453 C1449 1.408 . S
C1453 C1452 1.404 . S
C1453 H1465 0.930 . S
C1454 C1450 1.524 . S
C1454 H1466 0.956 . S
C1454 H1467 0.961 . S
C1454 H1468 0.961 . S
C1455 C1452 1.539 . S
C1455 H1469 0.958 . S
C1455 H1470 0.961 . S
C1455 H1471 0.960 . S
H1456 C1440 0.931 . S
H1457 C1445 0.929 . S
H1458 C1446 0.960 . S
H1459 C1446 0.962 . S
H1460 C1446 0.960 . S
H1461 C1447 0.961 . S
H1462 C1447 0.961 . S
H1463 C1447 0.961 . S
H1464 C1448 0.931 . S
H1465 C1453 0.930 . S
H1466 C1454 0.956 . S
H1467 C1454 0.961 . S
H1468 C1454 0.961 . S
H1469 C1455 0.958 . S
H1470 C1455 0.961 . S
H1471 C1455 0.960 . S
C1472 C1473 1.391 . S
C1472 C1474 1.394 . S
C1472 H1488 0.931 . S
C1473 C1472 1.391 . S
C1473 C1477 1.376 . S
C1474 C1472 1.394 . S
C1474 C1475 1.369 . S
C1474 C1478 1.531 . S
C1475 C1474 1.369 . S
C1475 C1476 1.410 . S
C1475 C1483 1.503 . S
C1476 C1475 1.410 . S
C1476 C1477 1.392 . S
C1476 C1479 1.511 . S
C1477 C1473 1.376 . S
C1477 C1476 1.392 . S
C1477 H1489 0.929 . S
C1478 C1474 1.531 . S
C1478 H1490 0.960 . S
C1478 H1491 0.962 . S
C1478 H1492 0.960 . S
C1479 C1476 1.511 . S
C1479 H1493 0.961 . S
C1479 H1494 0.961 . S
C1479 H1495 0.961 . S
C1480 C1481 1.370 . S
C1480 C1482 1.363 . S
C1480 H1496 0.931 . S
C1481 C1480 1.370 . S
C1481 C1485 1.408 . S
C1482 C1480 1.363 . S
C1482 C1483 1.370 . S
C1482 C1486 1.524 . S
C1483 C1475 1.503 . S
C1483 C1482 1.370 . S
C1483 C1484 1.403 . S
C1484 C1483 1.403 . S
C1484 C1485 1.404 . S
C1484 C1487 1.539 . S
C1485 C1481 1.408 . S
C1485 C1484 1.404 . S
C1485 H1497 0.930 . S
C1486 C1482 1.524 . S
C1486 H1498 0.956 . S
C1486 H1499 0.961 . S
C1486 H1500 0.961 . S
C1487 C1484 1.539 . S
C1487 H1501 0.958 . S
C1487 H1502 0.961 . S
C1487 H1503 0.960 . S
H1488 C1472 0.931 . S
H1489 C1477 0.929 . S
H1490 C1478 0.960 . S
H1491 C1478 0.962 . S
H1492 C1478 0.960 . S
H1493 C1479 0.961 . S
H1494 C1479 0.961 . S
H1495 C1479 0.961 . S
H1496 C1480 0.931 . S
H1497 C1485 0.930 . S
H1498 C1486 0.956 . S
H1499 C1486 0.961 . S
H1500 C1486 0.961 . S
H1501 C1487 0.958 . S
H1502 C1487 0.961 . S
H1503 C1487 0.960 . S
C1504 C1505 1.391 . S
C1504 C1506 1.394 . S
C1504 H1520 0.931 . S
C1505 C1504 1.391 . S
C1505 C1509 1.376 . S
C1506 C1504 1.394 . S
C1506 C1507 1.369 . S
C1506 C1510 1.531 . S
C1507 C1506 1.369 . S
C1507 C1508 1.410 . S
C1507 C1515 1.503 . S
C1508 C1507 1.410 . S
C1508 C1509 1.392 . S
C1508 C1511 1.511 . S
C1509 C1505 1.376 . S
C1509 C1508 1.392 . S
C1509 H1521 0.929 . S
C1510 C1506 1.531 . S
C1510 H1522 0.960 . S
C1510 H1523 0.962 . S
C1510 H1524 0.960 . S
C1511 C1508 1.511 . S
C1511 H1525 0.961 . S
C1511 H1526 0.961 . S
C1511 H1527 0.961 . S
C1512 C1513 1.370 . S
C1512 C1514 1.363 . S
C1512 H1528 0.931 . S
C1513 C1512 1.370 . S
C1513 C1517 1.408 . S
C1514 C1512 1.363 . S
C1514 C1515 1.370 . S
C1514 C1518 1.524 . S
C1515 C1507 1.503 . S
C1515 C1514 1.370 . S
C1515 C1516 1.403 . S
C1516 C1515 1.403 . S
C1516 C1517 1.404 . S
C1516 C1519 1.539 . S
C1517 C1513 1.408 . S
C1517 C1516 1.404 . S
C1517 H1529 0.930 . S
C1518 C1514 1.524 . S
C1518 H1530 0.956 . S
C1518 H1531 0.961 . S
C1518 H1532 0.961 . S
C1519 C1516 1.539 . S
C1519 H1533 0.958 . S
C1519 H1534 0.961 . S
C1519 H1535 0.960 . S
H1520 C1504 0.931 . S
H1521 C1509 0.929 . S
H1522 C1510 0.960 . S
H1523 C1510 0.962 . S
H1524 C1510 0.960 . S
H1525 C1511 0.961 . S
H1526 C1511 0.961 . S
H1527 C1511 0.961 . S
H1528 C1512 0.931 . S
H1529 C1517 0.930 . S
H1530 C1518 0.956 . S
H1531 C1518 0.961 . S
H1532 C1518 0.961 . S
H1533 C1519 0.958 . S
H1534 C1519 0.961 . S
H1535 C1519 0.960 . S
C1536 C1537 1.391 . S
C1536 C1538 1.394 . S
C1536 H1552 0.931 . S
C1537 C1536 1.391 . S
C1537 C1541 1.376 . S
C1538 C1536 1.394 . S
C1538 C1539 1.369 . S
C1538 C1542 1.531 . S
C1539 C1538 1.369 . S
C1539 C1540 1.410 . S
C1539 C1547 1.503 . S
C1540 C1539 1.410 . S
C1540 C1541 1.392 . S
C1540 C1543 1.511 . S
C1541 C1537 1.376 . S
C1541 C1540 1.392 . S
C1541 H1553 0.929 . S
C1542 C1538 1.531 . S
C1542 H1554 0.960 . S
C1542 H1555 0.962 . S
C1542 H1556 0.960 . S
C1543 C1540 1.511 . S
C1543 H1557 0.961 . S
C1543 H1558 0.961 . S
C1543 H1559 0.961 . S
C1544 C1545 1.370 . S
C1544 C1546 1.363 . S
C1544 H1560 0.931 . S
C1545 C1544 1.370 . S
C1545 C1549 1.408 . S
C1546 C1544 1.363 . S
C1546 C1547 1.370 . S
C1546 C1550 1.524 . S
C1547 C1539 1.503 . S
C1547 C1546 1.370 . S
C1547 C1548 1.403 . S
C1548 C1547 1.403 . S
C1548 C1549 1.404 . S
C1548 C1551 1.539 . S
C1549 C1545 1.408 . S
C1549 C1548 1.404 . S
C1549 H1561 0.930 . S
C1550 C1546 1.524 . S
C1550 H1562 0.956 . S
C1550 H1563 0.961 . S
C1550 H1564 0.961 . S
C1551 C1548 1.539 . S
C1551 H1565 0.958 . S
C1551 H1566 0.961 . S
C1551 H1567 0.960 . S
H1552 C1536 0.931 . S
H1553 C1541 0.929 . S
H1554 C1542 0.960 . S
H1555 C1542 0.962 . S
H1556 C1542 0.960 . S
H1557 C1543 0.961 . S
H1558 C1543 0.961 . S
H1559 C1543 0.961 . S
H1560 C1544 0.931 . S
H1561 C1549 0.930 . S
H1562 C1550 0.956 . S
H1563 C1550 0.961 . S
H1564 C1550 0.961 . S
H1565 C1551 0.958 . S
H1566 C1551 0.961 . S
H1567 C1551 0.960 . S
C1568 C1569 1.391 . S
C1568 C1570 1.394 . S
C1568 H1584 0.931 . S
C1569 C1568 1.391 . S
C1569 C1573 1.376 . S
C1570 C1568 1.394 . S
C1570 C1571 1.369 . S
C1570 C1574 1.531 . S
C1571 C1570 1.369 . S
C1571 C1572 1.410 . S
C1571 C1579 1.503 . S
C1572 C1571 1.410 . S
C1572 C1573 1.392 . S
C1572 C1575 1.511 . S
C1573 C1569 1.376 . S
C1573 C1572 1.392 . S
C1573 H1585 0.929 . S
C1574 C1570 1.531 . S
C1574 H1586 0.960 . S
C1574 H1587 0.962 . S
C1574 H1588 0.960 . S
C1575 C1572 1.511 . S
C1575 H1589 0.961 . S
C1575 H1590 0.961 . S
C1575 H1591 0.961 . S
C1576 C1577 1.370 . S
C1576 C1578 1.363 . S
C1576 H1592 0.931 . S
C1577 C1576 1.370 . S
C1577 C1581 1.408 . S
C1578 C1576 1.363 . S
C1578 C1579 1.370 . S
C1578 C1582 1.524 . S
C1579 C1571 1.503 . S
C1579 C1578 1.370 . S
C1579 C1580 1.403 . S
C1580 C1579 1.403 . S
C1580 C1581 1.404 . S
C1580 C1583 1.539 . S
C1581 C1577 1.408 . S
C1581 C1580 1.404 . S
C1581 H1593 0.930 . S
C1582 C1578 1.524 . S
C1582 H1594 0.956 . S
C1582 H1595 0.961 . S
C1582 H1596 0.961 . S
C1583 C1580 1.539 . S
C1583 H1597 0.958 . S
C1583 H1598 0.961 . S
C1583 H1599 0.960 . S
H1584 C1568 0.931 . S
H1585 C1573 0.929 . S
H1586 C1574 0.960 . S
H1587 C1574 0.962 . S
H1588 C1574 0.960 . S
H1589 C1575 0.961 . S
H1590 C1575 0.961 . S
H1591 C1575 0.961 . S
H1592 C1576 0.931 . S
H1593 C1581 0.930 . S
H1594 C1582 0.956 . S
H1595 C1582 0.961 . S
H1596 C1582 0.961 . S
H1597 C1583 0.958 . S
H1598 C1583 0.961 . S
H1599 C1583 0.960 . S
C577 C148 1.345 . S
C585 C4 1.345 . S
C609 C184 1.326 1_554 S
C617 C40 1.334 . S
C641 C220 1.335 1_554 S
C649 C76 1.335 . S
C673 C256 1.324 1_554 S
C681 C112 1.334 . S
C705 C436 1.329 . S
C713 C292 1.334 . S
C737 C472 1.336 . S
C745 C328 1.335 . S
C769 C364 1.340 . S
C777 C508 1.337 . S
C801 C544 1.330 . S
C809 C400 1.334 . S
C833 C3 1.456 . S
C841 C183 1.451 . S
C865 C219 1.455 . S
C873 C39 1.453 . S
C897 C75 1.450 . S
C905 C255 1.450 . S
C929 C147 1.441 1_554 S
C937 C111 1.455 . S
C961 C471 1.451 . S
C969 C291 1.449 . S
C993 C507 1.455 . S
C1001 C327 1.449 . S
C1025 C363 1.447 . S
C1033 C543 1.455 . S
C1057 C399 1.454 . S
C1065 C435 1.449 . S
C1089 C542 1.427 . S
C1097 C2 1.434 . S
C1121 C434 1.446 . S
C1129 C38 1.444 . S
C1153 C470 1.418 . S
C1161 C74 1.447 . S
C1185 C506 1.446 . S
C1193 C110 1.444 . S
C1217 C326 1.417 . S
C1225 C146 1.440 . S
C1249 C362 1.439 . S
C1257 C182 1.431 . S
C1281 C218 1.444 . S
C1289 C398 1.445 . S
C1313 C254 1.422 . S
C1321 C290 1.448 . S
C1345 C482 1.298 . S
C1353 C86 1.312 . S
C1377 C518 1.311 . S
C1385 C122 1.315 . S
C1409 C554 1.298 . S
C1417 C14 1.310 . S
C1441 C50 1.293 . S
C1449 C446 1.308 . S
C1473 C410 1.292 . S
C1481 C230 1.308 . S
C1505 C266 1.335 . S
C1513 C302 1.326 . S
C1537 C338 1.335 . S
C1545 C158 1.326 . S
C1569 C374 1.305 . S
C1577 C194 1.315 . S
