# Generated by pormake.
# Topology uki, (4)-cn, num edge types: 1
# Building blocks:
#     Node 0, Type 0, BuildingBlock: KOZSID_clean_sbu_0, # of connection points: 4
#     Node 1, Type 0, BuildingBlock: KOZSID_clean_sbu_0, # of connection points: 4
#     Node 2, Type 0, BuildingBlock: KOZSID_clean_sbu_0, # of connection points: 4
#     Node 3, Type 0, BuildingBlock: KOZSID_clean_sbu_0, # of connection points: 4
#     Node 4, Type 0, BuildingBlock: KOZSID_clean_sbu_0, # of connection points: 4
#     Node 5, Type 0, BuildingBlock: KOZSID_clean_sbu_0, # of connection points: 4
#     Node 6, Type 0, BuildingBlock: KOZSID_clean_sbu_0, # of connection points: 4
#     Node 7, Type 0, BuildingBlock: KOZSID_clean_sbu_0, # of connection points: 4
#     Node 8, Type 0, BuildingBlock: KOZSID_clean_sbu_0, # of connection points: 4
#     Node 9, Type 0, BuildingBlock: KOZSID_clean_sbu_0, # of connection points: 4
#     Node 10, Type 0, BuildingBlock: KOZSID_clean_sbu_0, # of connection points: 4
#     Node 11, Type 0, BuildingBlock: KOZSID_clean_sbu_0, # of connection points: 4
#     Node 12, Type 0, BuildingBlock: KOZSID_clean_sbu_0, # of connection points: 4
#     Node 13, Type 0, BuildingBlock: KOZSID_clean_sbu_0, # of connection points: 4
#     Node 14, Type 0, BuildingBlock: KOZSID_clean_sbu_0, # of connection points: 4
#     Node 15, Type 0, BuildingBlock: KOZSID_clean_sbu_0, # of connection points: 4
#     Edge 16, Type (0, 0), BuildingBlock: XUDNAN_clean_linker_2, # of connection points: 2
#     Edge 17, Type (0, 0), BuildingBlock: XUDNAN_clean_linker_2, # of connection points: 2
#     Edge 18, Type (0, 0), BuildingBlock: XUDNAN_clean_linker_2, # of connection points: 2
#     Edge 19, Type (0, 0), BuildingBlock: XUDNAN_clean_linker_2, # of connection points: 2
#     Edge 20, Type (0, 0), BuildingBlock: XUDNAN_clean_linker_2, # of connection points: 2
#     Edge 21, Type (0, 0), BuildingBlock: XUDNAN_clean_linker_2, # of connection points: 2
#     Edge 22, Type (0, 0), BuildingBlock: XUDNAN_clean_linker_2, # of connection points: 2
#     Edge 23, Type (0, 0), BuildingBlock: XUDNAN_clean_linker_2, # of connection points: 2
#     Edge 24, Type (0, 0), BuildingBlock: XUDNAN_clean_linker_2, # of connection points: 2
#     Edge 25, Type (0, 0), BuildingBlock: XUDNAN_clean_linker_2, # of connection points: 2
#     Edge 26, Type (0, 0), BuildingBlock: XUDNAN_clean_linker_2, # of connection points: 2
#     Edge 27, Type (0, 0), BuildingBlock: XUDNAN_clean_linker_2, # of connection points: 2
#     Edge 28, Type (0, 0), BuildingBlock: XUDNAN_clean_linker_2, # of connection points: 2
#     Edge 29, Type (0, 0), BuildingBlock: XUDNAN_clean_linker_2, # of connection points: 2
#     Edge 30, Type (0, 0), BuildingBlock: XUDNAN_clean_linker_2, # of connection points: 2
#     Edge 31, Type (0, 0), BuildingBlock: XUDNAN_clean_linker_2, # of connection points: 2
#     Edge 32, Type (0, 0), BuildingBlock: XUDNAN_clean_linker_2, # of connection points: 2
#     Edge 33, Type (0, 0), BuildingBlock: XUDNAN_clean_linker_2, # of connection points: 2
#     Edge 34, Type (0, 0), BuildingBlock: XUDNAN_clean_linker_2, # of connection points: 2
#     Edge 35, Type (0, 0), BuildingBlock: XUDNAN_clean_linker_2, # of connection points: 2
#     Edge 36, Type (0, 0), BuildingBlock: XUDNAN_clean_linker_2, # of connection points: 2
#     Edge 37, Type (0, 0), BuildingBlock: XUDNAN_clean_linker_2, # of connection points: 2
#     Edge 38, Type (0, 0), BuildingBlock: XUDNAN_clean_linker_2, # of connection points: 2
#     Edge 39, Type (0, 0), BuildingBlock: XUDNAN_clean_linker_2, # of connection points: 2
#     Edge 40, Type (0, 0), BuildingBlock: XUDNAN_clean_linker_2, # of connection points: 2
#     Edge 41, Type (0, 0), BuildingBlock: XUDNAN_clean_linker_2, # of connection points: 2
#     Edge 42, Type (0, 0), BuildingBlock: XUDNAN_clean_linker_2, # of connection points: 2
#     Edge 43, Type (0, 0), BuildingBlock: XUDNAN_clean_linker_2, # of connection points: 2
#     Edge 44, Type (0, 0), BuildingBlock: XUDNAN_clean_linker_2, # of connection points: 2
#     Edge 45, Type (0, 0), BuildingBlock: XUDNAN_clean_linker_2, # of connection points: 2
#     Edge 46, Type (0, 0), BuildingBlock: XUDNAN_clean_linker_2, # of connection points: 2
#     Edge 47, Type (0, 0), BuildingBlock: XUDNAN_clean_linker_2, # of connection points: 2
# Relax obj value: 0.121
# Max RMSD: 0.240
# Mean RMSD: 0.240
data_MOF--net-uki--node1-KOZSID_clean_sbu_0--edge1-XUDNAN_clean_linker_2
_symmetry_space_group_name_H-M    P1
_symmetry_Int_Tables_number       1
_symmetry_cell_setting            triclinic
loop_
_symmetry_equiv_pos_as_xyz
'x, y, z'
_cell_length_a     37.78218
_cell_length_b     37.820822
_cell_length_c     88.994756
_cell_angle_alpha  89.992907
_cell_angle_beta   89.940924
_cell_angle_gamma 90.112526
loop_
_atom_site_label
_atom_site_type_symbol
_atom_site_fract_x
_atom_site_fract_y
_atom_site_fract_z
_atom_type_partial_charge
C0 C 0.18531 0.22632 0.32722 0.0
C1 C 0.2168 0.21031 0.32299 0.0
C2 C 0.21348 0.20166 0.30816 0.0
C3 C 0.18041 0.21307 0.30411 0.0
N4 N 0.16239 0.22859 0.31538 0.0
Co5 Co 0.11351 0.2493 0.31383 0.0
N6 N 0.10952 0.23785 0.29184 0.0
C7 C 0.13383 0.22069 0.28354 0.0
C8 C 0.12428 0.21642 0.26878 0.0
C9 C 0.09178 0.23194 0.26756 0.0
C10 C 0.0834 0.24487 0.2817 0.0
N11 N 0.06447 0.26971 0.31242 0.0
C12 C 0.0421 0.27342 0.30051 0.0
C13 C 1.01041 0.28901 0.30479 0.0
C14 C 0.01263 0.29496 0.31987 0.0
C15 C 0.04544 0.28296 0.32391 0.0
N16 N 0.11742 0.26084 0.33586 0.0
C17 C 0.09179 0.2752 0.34443 0.0
C18 C 0.10088 0.27923 0.35922 0.0
C19 C 0.13452 0.26657 0.36025 0.0
C20 C 0.1442 0.25571 0.34592 0.0
N21 N 0.13475 0.29626 0.3085 0.0
C22 C 0.17085 0.3572 0.29746 0.0
C23 C 0.13883 0.34578 0.29118 0.0
C24 C 0.1213 0.31597 0.29691 0.0
C25 C 0.18317 0.33847 0.31006 0.0
C26 C 0.16489 0.30847 0.31535 0.0
N27 N 0.09272 0.20203 0.31874 0.0
C28 C 0.09575 0.14605 0.33199 0.0
C29 C 0.06864 0.13137 0.32314 0.0
C30 C 0.05268 0.15371 0.31256 0.0
C31 C 0.06495 0.18858 0.31058 0.0
C32 C 0.1072 0.18102 0.32966 0.0
H33 H 0.05226 0.20405 0.30207 0.0
H34 H 0.1284 0.19045 0.33658 0.0
H35 H 0.09732 0.30881 0.29149 0.0
H36 H 0.17594 0.29506 0.32482 0.0
C37 C 0.16574 0.21011 0.28985 0.0
C38 C 0.17857 0.23929 0.34258 0.0
C39 C 0.05029 0.26377 0.2849 0.0
C40 C 0.05946 0.28457 0.33828 0.0
H41 H 0.23987 0.20551 0.32988 0.0
H42 H 0.23298 0.18879 0.30113 0.0
H43 H 0.13932 0.20382 0.25992 0.0
H44 H 0.07599 0.23366 0.25745 0.0
H45 H 0.98802 0.2957 0.2978 0.0
H46 H 0.9928 0.30698 0.32701 0.0
H47 H 0.0848 0.28982 0.36823 0.0
H48 H 0.14984 0.26502 0.37049 0.0
H49 H 0.12768 0.35885 0.28146 0.0
H50 H 0.20709 0.34659 0.3158 0.0
H51 H 0.10853 0.13049 0.34063 0.0
H52 H 0.03169 0.14401 0.30538 0.0
C53 C 0.27736 0.9879 0.71642 0.0
C54 C 0.2894 0.02153 0.71276 0.0
C55 C 0.28725 0.02441 0.69743 0.0
C56 C 0.27421 0.99248 0.69259 0.0
N57 N 0.26812 0.96968 0.70392 0.0
Co58 Co 0.24944 0.92081 0.70181 0.0
N59 N 0.26255 0.91887 0.6802 0.0
C60 C 0.26971 0.94702 0.67143 0.0
C61 C 0.27664 0.93803 0.65679 0.0
C62 C 0.27334 0.90198 0.65625 0.0
C63 C 0.26462 0.8909 0.67067 0.0
N64 N 0.2299 0.87217 0.69949 0.0
C65 C 0.23443 0.84805 0.68831 0.0
C66 C 0.21528 0.81749 0.69129 0.0
C67 C 0.19768 0.82306 0.70459 0.0
C68 C 0.20711 0.85653 0.70907 0.0
N69 N 0.23689 0.9229 0.72344 0.0
C70 C 0.21368 0.90165 0.73051 0.0
C71 C 0.21096 0.90909 0.74559 0.0
C72 C 0.23385 0.9368 0.7481 0.0
C73 C 0.24933 0.94469 0.73438 0.0
N74 N 0.20245 0.94014 0.69657 0.0
C75 C 0.13137 0.9605 0.69182 0.0
C76 C 0.15216 0.97691 0.70288 0.0
C77 C 0.18748 0.96641 0.70506 0.0
C78 C 0.14782 0.93515 0.68264 0.0
C79 C 0.18312 0.92549 0.68515 0.0
N80 N 0.2959 0.90122 0.7075 0.0
C81 C 0.3292 0.85976 0.72249 0.0
C82 C 0.36121 0.87736 0.71942 0.0
C83 C 0.35949 0.90649 0.70952 0.0
C84 C 0.32686 0.91749 0.7035 0.0
C85 C 0.29721 0.87239 0.71675 0.0
H86 H 0.32661 0.93991 0.69601 0.0
H87 H 0.27338 0.85909 0.72022 0.0
H88 H 0.20226 0.97873 0.71401 0.0
H89 H 0.19433 0.9052 0.67812 0.0
C90 C 0.27372 0.98072 0.6777 0.0
C91 C 0.27368 0.97452 0.73181 0.0
C92 C 0.25484 0.85426 0.67442 0.0
C93 C 0.1999 0.87182 0.72314 0.0
H94 H 0.2989 0.04182 0.72033 0.0
H95 H 0.29579 0.04653 0.6906 0.0
H96 H 0.28381 0.95551 0.64764 0.0
H97 H 0.27616 0.88581 0.64629 0.0
H98 H 0.21398 0.79371 0.68456 0.0
H99 H 0.18099 0.80442 0.71053 0.0
H100 H 0.19526 0.89521 0.7539 0.0
H101 H 0.23851 0.94982 0.75875 0.0
H102 H 0.14084 0.99661 0.71028 0.0
H103 H 0.1333 0.92222 0.6737 0.0
H104 H 0.32829 0.83637 0.72946 0.0
H105 H 0.38286 0.9216 0.70666 0.0
C106 C 0.84346 0.7985 0.32687 0.0
C107 C 0.81254 0.81613 0.32322 0.0
C108 C 0.81532 0.82532 0.30839 0.0
C109 C 0.84761 0.81268 0.3038 0.0
N110 N 0.86563 0.79601 0.31474 0.0
Co111 Co 0.91363 0.77357 0.31249 0.0
N112 N 0.91577 0.78337 0.29033 0.0
C113 C 0.89154 0.80141 0.28236 0.0
C114 C 0.89964 0.80409 0.26736 0.0
C115 C 0.93111 0.78667 0.26567 0.0
C116 C 0.94043 0.77436 0.27978 0.0
N117 N 0.96185 0.75147 0.3105 0.0
C118 C 0.98282 0.74607 0.29824 0.0
C119 C 0.01485 0.73075 0.30216 0.0
C120 C 0.01436 0.72678 0.31739 0.0
C121 C 0.98215 0.73967 0.32187 0.0
N122 N 0.91181 0.76399 0.33468 0.0
C123 C 0.93845 0.75119 0.34312 0.0
C124 C 0.93066 0.7488 0.35813 0.0
C125 C 0.89681 0.76087 0.3594 0.0
C126 C 0.88587 0.76983 0.34502 0.0
N127 N 0.89045 0.72687 0.30804 0.0
C128 C 0.85145 0.66734 0.29739 0.0
C129 C 0.88413 0.67678 0.29114 0.0
C130 C 0.90304 0.70585 0.29669 0.0
C131 C 0.83994 0.68712 0.30984 0.0
C132 C 0.85974 0.71633 0.31497 0.0
N133 N 0.93646 0.82039 0.3164 0.0
C134 C 0.93928 0.87724 0.32918 0.0
C135 C 0.96901 0.88741 0.32073 0.0
C136 C 0.98173 0.86345 0.31006 0.0
C137 C 0.96512 0.8307 0.308 0.0
C138 C 0.9237 0.8436 0.32696 0.0
H139 H 0.97585 0.81403 0.29944 0.0
H140 H 0.90138 0.83661 0.33386 0.0
H141 H 0.92734 0.71137 0.29123 0.0
H142 H 0.84938 0.73041 0.32435 0.0
C143 C 0.86104 0.81433 0.28923 0.0
C144 C 0.85045 0.78374 0.34188 0.0
C145 C 0.97333 0.75479 0.28269 0.0
C146 C 0.97004 0.74064 0.33657 0.0
H147 H 0.79024 0.82159 0.33049 0.0
H148 H 0.79583 0.83909 0.30169 0.0
H149 H 0.88438 0.81698 0.25866 0.0
H150 H 0.94571 0.78352 0.25528 0.0
H151 H 0.03644 0.72336 0.29482 0.0
H152 H 0.03502 0.71577 0.32438 0.0
H153 H 0.94753 0.73925 0.36707 0.0
H154 H 0.88185 0.76299 0.36974 0.0
H155 H 0.89476 0.66279 0.28154 0.0
H156 H 0.81552 0.68046 0.31556 0.0
H157 H 0.92866 0.89474 0.33768 0.0
H158 H 1.0045 0.87007 0.3032 0.0
C159 C 0.74084 0.0428 0.72002 0.0
C160 C 0.72345 1.01105 0.71716 0.0
C161 C 0.71993 1.00844 0.70194 0.0
C162 C 0.73548 0.0384 0.69632 0.0
N163 N 0.74851 0.06001 0.707 0.0
Co164 Co 0.77444 0.10531 0.70326 0.0
N165 N 0.75809 0.10765 0.68197 0.0
C166 C 0.7409 0.08177 0.67453 0.0
C167 C 0.72767 0.0923 0.66094 0.0
C168 C 0.73764 0.12683 0.65952 0.0
C169 C 0.75773 0.1352 0.67212 0.0
N170 N 0.80072 0.15044 0.69929 0.0
C171 C 0.80069 0.17259 0.68715 0.0
C172 C 0.82657 0.19851 0.68869 0.0
C173 C 0.84302 0.19265 0.70215 0.0
C174 C 0.82677 0.16336 0.70806 0.0
N175 N 0.79028 0.10307 0.72461 0.0
C176 C 0.81657 0.12244 0.73065 0.0
C177 C 0.8214 0.11609 0.74568 0.0
C178 C 0.79687 0.09079 0.74934 0.0
C179 C 0.77858 0.08276 0.73625 0.0
N180 N 0.81709 0.07831 0.69731 0.0
C181 C 0.88291 0.04505 0.69229 0.0
C182 C 0.85963 0.03282 0.70337 0.0
C183 C 0.82727 0.04982 0.70577 0.0
C184 C 0.87202 0.07361 0.68337 0.0
C185 C 0.83879 0.08941 0.68587 0.0
N186 N 0.73243 0.13219 0.70976 0.0
C187 C 0.70765 0.17838 0.72523 0.0
C188 C 0.67314 0.16683 0.72216 0.0
C189 C 0.66895 0.13787 0.71247 0.0
C190 C 0.69884 0.12123 0.70625 0.0
C191 C 0.73669 0.16073 0.71902 0.0
H192 H 0.69468 0.0991 0.69885 0.0
H193 H 0.76268 0.16981 0.7221 0.0
H194 H 0.81103 0.04032 0.71484 0.0
H195 H 0.8311 0.11111 0.67875 0.0
C196 C 0.73285 0.04984 0.68152 0.0
C197 C 0.75261 0.05366 0.73508 0.0
C198 C 0.77936 0.16776 0.67336 0.0
C199 C 0.83316 0.14902 0.72228 0.0
H200 H 0.71456 0.9914 0.72515 0.0
H201 H 0.70658 0.98772 0.69574 0.0
H202 H 0.71142 0.07715 0.65326 0.0
H203 H 0.73118 0.14366 0.65009 0.0
H204 H 0.8338 0.21896 0.68077 0.0
H205 H 0.86431 0.20799 0.70704 0.0
H206 H 0.83996 0.12891 0.75318 0.0
H207 H 0.79323 0.07923 0.76036 0.0
H208 H 0.86683 1.01074 0.71049 0.0
H209 H 0.88893 0.08348 0.67447 0.0
H210 H 0.71233 0.20042 0.73274 0.0
H211 H 0.64278 0.12827 0.70962 0.0
C212 C 0.17938 0.29831 0.94033 0.0
C213 C 0.20853 0.31848 0.9445 0.0
C214 C 0.2005 0.33374 0.95805 0.0
C215 C 0.16716 0.32187 0.96154 0.0
N216 N 0.15388 0.29956 0.95116 0.0
Co217 Co 0.10641 0.27657 0.9522 0.0
N218 N 0.10074 0.2875 0.97394 0.0
C219 C 0.11987 0.31114 0.98178 0.0
C220 C 0.11017 0.31281 0.99665 0.0
C221 C 0.08313 0.28876 0.99824 0.0
C222 C 0.07789 0.27372 0.98422 0.0
N223 N 0.0586 0.25441 0.95305 0.0
C224 C 0.03897 0.24399 0.96502 0.0
C225 C 1.00678 0.22985 0.96046 0.0
C226 C 1.00619 0.23182 0.9451 0.0
C227 C 0.03794 0.24689 0.94116 0.0
N228 N 0.11205 0.26501 0.93046 0.0
C229 C 0.08563 0.25546 0.92113 0.0
C230 C 0.09652 0.25033 0.9066 0.0
C231 C 0.13199 0.25749 0.90666 0.0
C232 C 0.14093 0.26659 0.92131 0.0
N233 N 0.12854 0.23116 0.95786 0.0
C234 C 0.15564 0.16667 0.96944 0.0
C235 C 0.12762 0.16724 0.95895 0.0
C236 C 0.115 0.19949 0.95314 0.0
C237 C 0.17043 0.19955 0.97336 0.0
C238 C 0.15624 0.23104 0.96775 0.0
N239 N 0.08432 0.32243 0.94702 0.0
C240 C 0.0843 0.37702 0.93285 0.0
C241 C 0.05614 0.39047 0.94143 0.0
C242 C 0.04207 0.36865 0.95271 0.0
C243 C 0.05621 0.33483 0.95522 0.0
C244 C 0.09801 0.34325 0.93584 0.0
H245 H 0.04455 0.31891 0.96396 0.0
H246 H 0.12012 0.33433 0.92922 0.0
H247 H 0.09353 0.19876 0.94517 0.0
H248 H 0.16741 0.25539 0.9718 0.0
C249 C 0.14981 0.32689 0.97532 0.0
C250 C 0.17583 0.28098 0.92551 0.0
C251 C 0.04934 0.24856 0.98076 0.0
C252 C 0.0517 0.24855 0.92663 0.0
H253 H 0.23294 0.32216 0.93833 0.0
H254 H 0.21741 0.35065 0.96474 0.0
H255 H 0.12208 0.3287 1.00541 0.0
H256 H 0.06872 0.28311 0.00849 0.0
H257 H 0.98594 0.21914 0.96747 0.0
H258 H 0.98571 0.22202 0.93769 0.0
H259 H 0.0806 0.24218 0.8971 0.0
H260 H 0.14897 0.25716 0.89686 0.0
H261 H 0.11456 0.14319 0.95544 0.0
H262 H 0.19281 0.2015 0.98086 0.0
H263 H 0.0963 0.39281 0.92405 0.0
H264 H 0.01997 0.37747 0.95949 0.0
C265 C 0.2364 0.98082 0.05004 0.0
C266 C 0.21399 1.00822 0.05425 0.0
C267 C 0.2114 1.00719 0.06955 0.0
C268 C 0.23164 0.97896 0.07388 0.0
N269 N 0.24677 0.96189 0.06226 0.0
Co270 Co 0.27533 0.91769 0.0637 0.0
N271 N 0.25897 0.90782 0.08465 0.0
C272 C 0.24031 0.93019 0.09336 0.0
C273 C 0.22699 0.91458 0.10604 0.0
C274 C 0.23843 0.88039 0.10549 0.0
C275 C 0.25953 0.87723 0.09275 0.0
N276 N 0.30468 0.87408 0.06533 0.0
C277 C 0.30599 0.84865 0.07618 0.0
C278 C 0.33511 0.82679 0.07393 0.0
C279 C 0.35187 0.83834 0.0612 0.0
C280 C 0.33273 0.86695 0.05647 0.0
N281 N 0.29094 0.92711 0.04269 0.0
C282 C 0.31959 0.91294 0.03607 0.0
C283 C 0.32466 0.92476 0.02164 0.0
C284 C 0.29759 0.94808 0.01904 0.0
C285 C 0.27736 0.94914 0.03206 0.0
N286 N 0.31613 0.94528 0.07127 0.0
C287 C 0.38261 0.97578 0.07796 0.0
C288 C 0.36107 0.9896 0.06656 0.0
C289 C 0.32787 0.9744 0.06356 0.0
C290 C 0.36894 0.94774 0.08655 0.0
C291 C 0.33583 0.933 0.08307 0.0
N292 N 0.23535 0.88993 0.05573 0.0
C293 C 0.21404 0.84509 0.03866 0.0
C294 C 0.17884 0.85262 0.04242 0.0
C295 C 0.17254 0.87908 0.05313 0.0
C296 C 0.20111 0.89706 0.05978 0.0
C297 C 0.24171 0.86413 0.04529 0.0
H298 H 0.19537 0.91697 0.06807 0.0
H299 H 0.26832 0.85828 0.04175 0.0
H300 H 0.31236 0.98543 0.05455 0.0
H301 H 0.32699 0.9106 0.08955 0.0
C302 C 0.22997 0.96314 0.08797 0.0
C303 C 0.2481 0.97425 0.03448 0.0
C304 C 0.2823 0.84628 0.08946 0.0
C305 C 0.33862 0.88612 0.04323 0.0
H306 H 0.20006 0.02664 0.04712 0.0
H307 H 0.19469 0.02354 0.07657 0.0
H308 H 0.20922 0.92606 0.11424 0.0
H309 H 0.23132 0.86021 0.11355 0.0
H310 H 0.34427 0.80539 0.08096 0.0
H311 H 0.37534 0.82726 0.05606 0.0
H312 H 0.34527 0.91701 0.01386 0.0
H313 H 0.29374 0.96324 0.00886 0.0
H314 H 0.36992 1.01186 0.05987 0.0
H315 H 0.38434 0.93616 0.09554 0.0
H316 H 0.22019 0.82507 0.03036 0.0
H317 H 0.14576 0.88554 0.05649 0.0
C318 C 0.84211 0.72849 0.94016 0.0
C319 C 0.81072 0.71287 0.94484 0.0
C320 C 0.81484 0.70474 0.95968 0.0
C321 C 0.84827 0.71603 0.96328 0.0
N322 N 0.86582 0.73092 0.95172 0.0
Co323 Co 0.91483 0.75175 0.95265 0.0
N324 N 0.9206 0.73974 0.97454 0.0
C325 C 0.89638 0.7235 0.98325 0.0
C326 C 0.90695 0.71913 0.99787 0.0
C327 C 0.94008 0.73357 0.99857 0.0
C328 C 0.94789 0.74587 0.98427 0.0
N329 N 0.96387 0.77252 0.95344 0.0
C330 C 0.98742 0.77552 0.96496 0.0
C331 C 0.01899 0.79076 0.96024 0.0
C332 C 0.01524 0.79786 0.94532 0.0
C333 C 0.98183 0.78647 0.94177 0.0
N334 N 0.90909 0.7639 0.93074 0.0
C335 C 0.93386 0.77902 0.92192 0.0
C336 C 0.92371 0.78318 0.90726 0.0
C337 C 0.89025 0.76982 0.90659 0.0
C338 C 0.8817 0.75846 0.92099 0.0
N339 N 0.89422 0.79833 0.95854 0.0
C340 C 0.85916 0.85853 0.97047 0.0
C341 C 0.89165 0.8471 0.97623 0.0
C342 C 0.90864 0.81755 0.97009 0.0
C343 C 0.8458 0.84032 0.95792 0.0
C344 C 0.86363 0.81065 0.95216 0.0
N345 N 0.93518 0.70475 0.9472 0.0
C346 C 0.93265 0.64981 0.93315 0.0
C347 C 0.96079 0.63546 0.94142 0.0
C348 C 0.97625 0.65696 0.95241 0.0
C349 C 0.96341 0.69123 0.955 0.0
C350 C 0.92031 0.68412 0.93621 0.0
H351 H 0.97652 0.70633 0.96349 0.0
H352 H 0.89838 0.69341 0.92972 0.0
H353 H 0.93295 0.81004 0.97521 0.0
H354 H 0.85186 0.79746 0.94276 0.0
C355 C 0.8638 0.71344 0.9774 0.0
C356 C 0.84783 0.74127 0.92468 0.0
C357 C 0.98127 0.76391 0.98049 0.0
C358 C 0.96659 0.78855 0.92765 0.0
H359 H 0.78713 0.70813 0.93825 0.0
H360 H 0.79561 0.69233 0.96701 0.0
H361 H 0.89217 0.70718 1.00698 0.0
H362 H 0.95649 0.73518 0.00851 0.0
H363 H 0.04245 0.79599 0.96685 0.0
H364 H 0.03461 0.80979 0.93791 0.0
H365 H 0.93904 0.79418 0.8981 0.0
H366 H 0.87437 0.76809 0.89651 0.0
H367 H 0.90347 0.85989 0.98588 0.0
H368 H 0.82137 0.84854 0.95263 0.0
H369 H 0.9196 0.63438 0.92452 0.0
H370 H 0.99854 0.64758 0.95893 0.0
C371 C 0.77506 0.04341 0.05041 0.0
C372 C 0.78991 1.01165 0.05505 0.0
C373 C 0.79126 0.01267 0.0704 0.0
C374 C 0.77707 0.04473 0.07429 0.0
N375 N 0.76694 0.06416 0.06239 0.0
Co376 Co 0.74422 0.11166 0.06335 0.0
N377 N 0.75865 0.119 0.08474 0.0
C378 C 0.77271 0.09413 0.09378 0.0
C379 C 0.78615 0.10765 0.10686 0.0
C380 C 0.77947 0.14311 0.10623 0.0
C381 C 0.76077 0.14924 0.09304 0.0
N382 N 0.72087 0.15886 0.06445 0.0
C383 C 0.72058 0.1837 0.07558 0.0
C384 C 0.69458 0.2089 0.07276 0.0
C385 C 0.67912 0.20028 0.05938 0.0
C386 C 0.69565 0.16995 0.05485 0.0
N387 N 0.73029 0.10445 0.04196 0.0
C388 C 0.7055 0.12304 0.03456 0.0
C389 C 0.70188 0.11305 0.01982 0.0
C390 C 0.72566 0.08615 0.01783 0.0
C391 C 0.74227 0.08095 0.03156 0.0
N392 N 0.69928 0.0894 0.06987 0.0
C393 C 0.6309 0.0631 0.07656 0.0
C394 C 0.65155 0.04809 0.06512 0.0
C395 C 0.68558 0.06128 0.06208 0.0
C396 C 0.64599 0.09076 0.08494 0.0
C397 C 0.67998 0.10341 0.08145 0.0
N398 N 0.78878 0.13369 0.05647 0.0
C399 C 0.82034 0.16921 0.03822 0.0
C400 C 0.8532 0.15761 0.04373 0.0
C401 C 0.85268 0.13518 0.05634 0.0
C402 C 0.8205 0.12342 0.06241 0.0
C403 C 0.78866 0.15727 0.0448 0.0
H404 H 0.82146 0.10519 0.07168 0.0
H405 H 0.76401 0.16618 0.04006 0.0
H406 H 0.70047 0.04905 0.05316 0.0
H407 H 0.69019 0.12517 0.08795 0.0
C408 C 0.7789 0.05995 0.08853 0.0
C409 C 0.76672 0.05151 0.03465 0.0
C410 C 0.7421 0.18273 0.08954 0.0
C411 C 0.68948 0.15219 0.04133 0.0
H412 H 0.79876 0.98991 0.04811 0.0
H413 H 0.80256 0.99297 0.07779 0.0
H414 H 0.80089 0.09375 0.11544 0.0
H415 H 0.7879 0.16205 0.11458 0.0
H416 H 0.68635 0.23062 0.07982 0.0
H417 H 0.65798 0.21425 0.05374 0.0
H418 H 0.68468 0.12452 0.01142 0.0
H419 H 0.72988 0.07172 1.00748 0.0
H420 H 0.64157 0.02615 0.05854 0.0
H421 H 0.63126 0.10335 0.0939 0.0
H422 H 0.81881 0.18638 0.02852 0.0
H423 H 0.87702 0.12617 0.06146 0.0
C424 C 0.6776 0.72265 0.82526 0.0
C425 C 0.70443 0.69971 0.82097 0.0
C426 C 0.69469 0.68551 0.80741 0.0
C427 C 0.66277 0.70078 0.80403 0.0
N428 N 0.652 0.72411 0.8145 0.0
Co429 Co 0.60752 0.75235 0.81354 0.0
N430 N 0.60119 0.74318 0.79169 0.0
C431 C 0.61712 0.7172 0.78389 0.0
C432 C 0.60677 0.71597 0.76913 0.0
C433 C 0.5826 0.74271 0.76754 0.0
C434 C 0.57965 0.75902 0.78147 0.0
N435 N 0.56305 0.78058 0.81271 0.0
C436 C 0.5458 0.7948 0.80076 0.0
C437 C 0.51754 0.81545 0.80554 0.0
C438 C 0.51614 0.81265 0.82085 0.0
C439 C 0.54391 0.7912 0.82465 0.0
N440 N 0.61372 0.76144 0.83544 0.0
C441 C 0.58833 0.77313 0.84482 0.0
C442 C 0.59928 0.77575 0.85945 0.0
C443 C 0.63374 0.76479 0.85938 0.0
C444 C 0.64204 0.75622 0.8446 0.0
N445 N 0.63517 0.79507 0.80852 0.0
C446 C 0.67019 0.8561 0.79789 0.0
C447 C 0.64345 0.85857 0.80881 0.0
C448 C 0.62665 0.8277 0.81414 0.0
C449 C 0.67939 0.82241 0.79271 0.0
C450 C 0.66155 0.79255 0.79802 0.0
N451 N 0.5798 0.70902 0.81793 0.0
C452 C 0.53352 0.66914 0.80995 0.0
C453 C 0.54785 0.64136 0.81842 0.0
C454 C 0.57679 0.64925 0.82775 0.0
C455 C 0.59225 0.68326 0.82739 0.0
C456 C 0.54969 0.70243 0.80986 0.0
H457 H 0.61538 0.68803 0.8342 0.0
H458 H 0.53878 0.72221 0.80252 0.0
H459 H 0.60627 0.83032 0.82256 0.0
H460 H 0.66859 0.76743 0.79324 0.0
C461 C 0.6449 0.69792 0.79029 0.0
C462 C 0.67589 0.74018 0.8401 0.0
C463 C 0.55382 0.78711 0.78486 0.0
C464 C 0.55638 0.7859 0.83921 0.0
H465 H 0.72844 0.69355 0.82703 0.0
H466 H 0.7097 0.66713 0.80062 0.0
H467 H 0.61622 0.6983 0.76045 0.0
H468 H 0.56837 0.74905 0.75735 0.0
H469 H 0.49971 0.83112 0.79879 0.0
H470 H 0.49807 0.8261 0.82836 0.0
H471 H 0.58428 0.78527 0.86899 0.0
H472 H 0.65054 0.76282 0.86918 0.0
H473 H 0.63575 0.88408 0.81325 0.0
H474 H 0.69971 0.81917 0.78422 0.0
H475 H 0.51062 0.66483 0.80286 0.0
H476 H 0.58868 0.62885 0.83462 0.0
C477 C 0.76418 0.48725 0.21829 0.0
C478 C 0.77898 0.51978 0.21458 0.0
C479 C 0.79454 0.51586 0.20083 0.0
C480 C 0.78805 0.48146 0.19685 0.0
N481 N 0.76884 0.46341 0.20704 0.0
Co482 Co 0.75335 0.41299 0.2052 0.0
N483 N 0.76632 0.41122 0.1835 0.0
C484 C 0.78865 0.4339 0.17663 0.0
C485 C 0.79857 0.42349 0.16253 0.0
C486 C 0.78153 0.39214 0.16026 0.0
C487 C 0.7612 0.38553 0.17302 0.0
N488 N 0.73756 0.36261 0.20305 0.0
C489 C 0.72963 0.34334 0.1905 0.0
C490 C 0.71499 0.31095 0.1945 0.0
C491 C 0.716 0.309 0.20986 0.0
C492 C 0.73017 0.34054 0.21452 0.0
N493 N 0.74148 0.41463 0.22707 0.0
C494 C 0.73496 0.38622 0.23578 0.0
C495 C 0.72957 0.39466 0.2506 0.0
C496 C 0.7335 0.43063 0.25138 0.0
C497 C 0.74103 0.4422 0.23693 0.0
N498 N 0.70472 0.42889 0.20043 0.0
C499 C 0.63527 0.45633 0.19859 0.0
C500 C 0.64261 0.42547 0.20666 0.0
C501 C 0.67703 0.41247 0.20749 0.0
C502 C 0.66326 0.4719 0.19048 0.0
C503 C 0.69783 0.45767 0.19152 0.0
N504 N 0.80146 0.39675 0.21058 0.0
C505 C 0.84718 0.35204 0.20991 0.0
C506 C 0.86577 0.36924 0.2214 0.0
C507 C 0.85223 0.40096 0.22698 0.0
C508 C 0.8201 0.41402 0.22157 0.0
C509 C 0.81541 0.36651 0.2045 0.0
H510 H 0.81006 0.43765 0.22669 0.0
H511 H 0.80182 0.35266 0.19563 0.0
H512 H 0.68116 0.38986 0.21452 0.0
H513 H 0.71912 0.47074 0.18562 0.0
C514 C 0.79773 0.46588 0.18331 0.0
C515 C 0.75101 0.47891 0.2334 0.0
C516 C 0.73873 0.3538 0.17489 0.0
C517 C 0.73064 0.35272 0.22937 0.0
H518 H 0.77973 0.54351 0.22138 0.0
H519 H 0.80888 0.53571 0.19451 0.0
H520 H 0.81613 0.43704 0.15482 0.0
H521 H 0.78451 0.3758 0.15037 0.0
H522 H 0.70409 0.29083 0.18724 0.0
H523 H 0.70579 0.28783 0.21682 0.0
H524 H 0.72319 0.37686 0.25974 0.0
H525 H 0.73179 0.44648 0.26148 0.0
H526 H 0.62192 0.41201 0.21288 0.0
H527 H 0.65889 0.49575 0.18402 0.0
H528 H 0.85712 0.32762 0.20517 0.0
H529 H 0.86591 0.41511 0.23584 0.0
C530 C 0.34139 0.2986 0.82489 0.0
C531 C 0.31192 0.31808 0.82065 0.0
C532 C 0.3192 0.33214 0.80681 0.0
C533 C 0.35241 0.32022 0.80322 0.0
N534 N 0.36642 0.29911 0.81385 0.0
Co535 Co 0.41369 0.2758 0.81268 0.0
N536 N 0.41837 0.28513 0.79071 0.0
C537 C 0.39857 0.30802 0.78276 0.0
C538 C 0.4073 0.30892 0.7678 0.0
C539 C 0.43462 0.28544 0.76624 0.0
C540 C 0.44129 0.27164 0.78041 0.0
N541 N 0.46088 0.25232 0.81164 0.0
C542 C 0.48023 0.24137 0.79963 0.0
C543 C 0.51226 0.22695 0.80424 0.0
C544 C 0.51304 0.22916 0.81957 0.0
C545 C 0.48168 0.24479 0.8235 0.0
N546 N 0.40922 0.26665 0.83469 0.0
C547 C 0.43603 0.25779 0.84391 0.0
C548 C 0.426 0.25446 0.85864 0.0
C549 C 0.39064 0.26198 0.85883 0.0
C550 C 0.38094 0.26942 0.84411 0.0
N551 N 0.39062 0.23024 0.80802 0.0
C552 C 0.36574 0.16448 0.79705 0.0
C553 C 0.38962 0.16639 0.80919 0.0
C554 C 0.4017 0.19936 0.81446 0.0
C555 C 0.35329 0.1966 0.79121 0.0
C556 C 0.36568 0.22883 0.79689 0.0
N557 N 0.43698 0.32184 0.81673 0.0
C558 C 0.43593 0.38111 0.82716 0.0
C559 C 0.46377 0.39165 0.81768 0.0
C560 C 0.47941 0.36574 0.80861 0.0
C561 C 0.4659 0.33133 0.80835 0.0
C562 C 0.42295 0.34608 0.82653 0.0
H563 H 0.47799 0.31296 0.80071 0.0
H564 H 0.40059 0.33915 0.83348 0.0
H565 H 0.42091 0.19982 0.82342 0.0
H566 H 0.35609 0.25264 0.79172 0.0
C567 C 0.36898 0.32409 0.78926 0.0
C568 C 0.34564 0.28249 0.83991 0.0
C569 C 0.47148 0.24827 0.78379 0.0
C570 C 0.46911 0.24882 0.83812 0.0
H571 H 0.28774 0.32204 0.82695 0.0
H572 H 0.30185 0.34822 0.79997 0.0
H573 H 0.39463 0.324 0.75899 0.0
H574 H 0.4483 0.27946 0.75586 0.0
H575 H 0.53336 0.21669 0.79728 0.0
H576 H 0.53377 0.21991 0.82697 0.0
H577 H 0.44232 0.24688 0.8681 0.0
H578 H 0.37417 0.26266 0.86878 0.0
H579 H 0.39949 0.14261 0.81448 0.0
H580 H 0.33522 0.1972 0.78179 0.0
H581 H 0.42304 0.40017 0.8344 0.0
H582 H 0.50131 0.37239 0.80126 0.0
C583 C 0.25491 0.54019 0.2187 0.0
C584 C 0.23949 0.50778 0.21527 0.0
C585 C 0.23169 0.50844 0.20035 0.0
C586 C 0.24295 0.5409 0.19549 0.0
N587 N 0.25801 0.56098 0.2063 0.0
Co588 Co 0.27785 0.61004 0.20373 0.0
N589 N 0.26387 0.61175 0.18198 0.0
C590 C 0.24733 0.58578 0.17424 0.0
C591 C 0.23668 0.59555 0.16017 0.0
C592 C 0.24762 0.62964 0.15865 0.0
C593 C 0.26551 0.63854 0.17178 0.0
N594 N 0.29658 0.65969 0.20112 0.0
C595 C 0.29914 0.68066 0.18864 0.0
C596 C 0.31705 0.71186 0.19188 0.0
C597 C 0.32492 0.71116 0.20685 0.0
C598 C 0.31205 0.67951 0.21196 0.0
N599 N 0.2922 0.60789 0.22546 0.0
C600 C 0.31028 0.63305 0.23304 0.0
C601 C 0.31579 0.62485 0.24786 0.0
C602 C 0.30019 0.59257 0.2499 0.0
C603 C 0.28603 0.58273 0.23614 0.0
N604 N 0.32544 0.58998 0.19815 0.0
C605 C 0.39286 0.55725 0.19578 0.0
C606 C 0.38916 0.59106 0.20174 0.0
C607 C 0.35585 0.6068 0.20269 0.0
C608 C 0.36254 0.54093 0.18993 0.0
C609 C 0.32928 0.55787 0.19107 0.0
N610 N 0.23092 0.62993 0.20977 0.0
C611 C 0.19659 0.66681 0.22666 0.0
C612 C 0.16456 0.65478 0.22062 0.0
C613 C 0.16669 0.63052 0.20868 0.0
C614 C 0.19977 0.61842 0.20355 0.0
C615 C 0.22889 0.65456 0.22104 0.0
H616 H 0.19956 0.59941 0.19466 0.0
H617 H 0.25191 0.66495 0.22629 0.0
H618 H 0.35563 0.63217 0.20771 0.0
H619 H 0.30696 0.54406 0.18657 0.0
C620 C 0.23895 0.55368 0.18097 0.0
C621 C 0.26593 0.54986 0.23391 0.0
C622 C 0.28537 0.67187 0.17356 0.0
C623 C 0.31826 0.66558 0.22632 0.0
H624 H 0.2342 0.48587 0.22277 0.0
H625 H 0.21894 0.48787 0.19384 0.0
H626 H 0.22177 0.58005 0.15213 0.0
H627 H 0.2429 0.64597 0.14888 0.0
H628 H 0.32476 0.73272 0.18426 0.0
H629 H 0.33974 0.73075 0.21311 0.0
H630 H 0.32851 0.64101 0.25632 0.0
H631 H 0.2987 0.57827 0.26041 0.0
H632 H 0.4119 0.60484 0.20633 0.0
H633 H 0.36417 0.51466 0.18514 0.0
H634 H 0.19712 0.68497 0.23605 0.0
H635 H 0.143 0.62067 0.20328 0.0
C636 C 0.68181 0.79365 0.43935 0.0
C637 C 0.71191 0.81359 0.44224 0.0
C638 C 0.70657 0.82999 0.45582 0.0
C639 C 0.67371 0.81907 0.46057 0.0
N640 N 0.65825 0.79649 0.45087 0.0
Co641 Co 0.61058 0.77485 0.45355 0.0
N642 N 0.60948 0.78573 0.47536 0.0
C643 C 0.63027 0.80924 0.48246 0.0
C644 C 0.62376 0.81054 0.49766 0.0
C645 C 0.59716 0.78635 0.50021 0.0
C646 C 0.58895 0.7716 0.48639 0.0
N647 N 0.56266 0.75404 0.45602 0.0
C648 C 0.54581 0.74302 0.46862 0.0
C649 C 0.51224 0.73029 0.46528 0.0
C650 C 0.50806 0.73364 0.45004 0.0
C651 C 0.53918 0.74815 0.44494 0.0
N652 N 0.61148 0.76343 0.43177 0.0
C653 C 0.58294 0.756 0.42327 0.0
C654 C 0.59111 0.7507 0.40842 0.0
C655 C 0.62701 0.75539 0.40746 0.0
C656 C 0.63884 0.76324 0.42185 0.0
N657 N 0.63233 0.72886 0.45839 0.0
C658 C 0.6581 0.66373 0.46968 0.0
C659 C 0.62877 0.66514 0.45989 0.0
C660 C 0.61683 0.6977 0.45419 0.0
C661 C 0.67507 0.69597 0.4729 0.0
C662 C 0.66155 0.72787 0.46744 0.0
N663 N 0.58885 0.82126 0.44916 0.0
C664 C 0.58726 0.87553 0.43483 0.0
C665 C 0.56053 0.88941 0.44408 0.0
C666 C 0.54814 0.86806 0.45587 0.0
C667 C 0.56238 0.83419 0.45815 0.0
C668 C 0.60102 0.84169 0.43755 0.0
H669 H 0.55206 0.81856 0.4673 0.0
H670 H 0.62189 0.83231 0.43033 0.0
H671 H 0.59416 0.69772 0.44682 0.0
H672 H 0.67433 0.75188 0.471 0.0
C673 C 0.6591 0.82466 0.47491 0.0
C674 C 0.6754 0.77402 0.42527 0.0
C675 C 0.56023 0.74594 0.48385 0.0
C676 C 0.5498 0.75031 0.42991 0.0
H677 H 0.73527 0.81618 0.43529 0.0
H678 H 0.72503 0.84682 0.46177 0.0
H679 H 0.63762 0.82611 0.50599 0.0
H680 H 0.58515 0.78029 0.51095 0.0
H681 H 0.49285 0.71967 0.47303 0.0
H682 H 0.48564 0.72501 0.44341 0.0
H683 H 0.57323 0.74373 0.3994 0.0
H684 H 0.64255 0.75409 0.39725 0.0
H685 H 0.61417 0.64155 0.45693 0.0
H686 H 0.69855 0.69707 0.47981 0.0
H687 H 0.59806 0.89096 0.42565 0.0
H688 H 0.5272 0.87722 0.46321 0.0
C689 C 0.73681 0.47884 0.55087 0.0
C690 C 0.71519 0.50685 0.55509 0.0
C691 C 0.71503 0.50773 0.57044 0.0
C692 C 0.73584 0.47994 0.5748 0.0
N693 N 0.74893 0.46133 0.56317 0.0
Co694 Co 0.77728 0.41704 0.56473 0.0
N695 N 0.76421 0.40984 0.58626 0.0
C696 C 0.74801 0.43382 0.59509 0.0
C697 C 0.73672 0.42009 0.6085 0.0
C698 C 0.74673 0.38542 0.60825 0.0
C699 C 0.76501 0.38003 0.59488 0.0
N700 N 0.80591 0.37306 0.56642 0.0
C701 C 0.80712 0.34803 0.57743 0.0
C702 C 0.83483 0.32466 0.57481 0.0
C703 C 0.85084 0.33499 0.5617 0.0
C704 C 0.83259 0.36433 0.55709 0.0
N705 N 0.79008 0.42395 0.54324 0.0
C706 C 0.8178 0.40882 0.53628 0.0
C707 C 0.82136 0.41935 0.52159 0.0
C708 C 0.79431 0.44283 0.51919 0.0
C709 C 0.77559 0.44528 0.53258 0.0
N710 N 0.8196 0.44496 0.5705 0.0
C711 C 0.88856 0.47379 0.57139 0.0
C712 C 0.86193 0.48908 0.56257 0.0
C713 C 0.82786 0.47456 0.56236 0.0
C714 C 0.87872 0.44614 0.58108 0.0
C715 C 0.844 0.4323 0.58055 0.0
N716 N 0.73578 0.3892 0.55832 0.0
C717 C 0.71144 0.34492 0.54172 0.0
C718 C 0.67684 0.35405 0.54583 0.0
C719 C 0.6724 0.3807 0.55663 0.0
C720 C 0.70218 0.39757 0.56289 0.0
C721 C 0.74031 0.36286 0.54796 0.0
H722 H 0.69791 0.41786 0.57118 0.0
H723 H 0.76636 0.35596 0.54403 0.0
H724 H 0.80906 0.48585 0.55466 0.0
H725 H 0.83772 0.40983 0.58754 0.0
C726 C 0.7369 0.46613 0.58928 0.0
C727 C 0.74689 0.47094 0.53521 0.0
C728 C 0.7847 0.34733 0.59111 0.0
C729 C 0.83729 0.38225 0.54344 0.0
H730 H 0.70049 0.52463 0.54793 0.0
H731 H 0.69969 0.52516 0.57755 0.0
H732 H 0.72075 0.43301 0.61698 0.0
H733 H 0.74003 0.36643 0.61685 0.0
H734 H 0.84334 0.3029 0.5818 0.0
H735 H 0.873 0.32242 0.55615 0.0
H736 H 0.84094 0.41065 0.51352 0.0
H737 H 0.78951 0.45715 0.50887 0.0
H738 H 0.86788 0.51109 0.55519 0.0
H739 H 0.8982 0.43372 0.58826 0.0
H740 H 0.71622 0.32464 0.53337 0.0
H741 H 0.64615 0.38831 0.56029 0.0
C742 C 0.34191 0.22828 0.44364 0.0
C743 C 0.31206 0.20925 0.44789 0.0
C744 C 0.31933 0.19447 0.46158 0.0
C745 C 0.35294 0.2055 0.46505 0.0
N746 N 0.36722 0.22681 0.45452 0.0
Co747 Co 0.41541 0.24845 0.45549 0.0
N748 N 0.42104 0.23697 0.47724 0.0
C749 C 0.40084 0.21413 0.48508 0.0
C750 C 0.4104 0.21168 0.49991 0.0
C751 C 0.43865 0.23412 0.50151 0.0
C752 C 0.44496 0.24892 0.48748 0.0
N753 N 0.46357 0.27007 0.45635 0.0
C754 C 0.48397 0.27926 0.46831 0.0
C755 C 0.51632 0.29291 0.4636 0.0
C756 C 0.5162 0.29209 0.44824 0.0
C757 C 0.484 0.278 0.44441 0.0
N758 N 0.41002 0.25989 0.43368 0.0
C759 C 0.43658 0.26912 0.42435 0.0
C760 C 0.42595 0.27412 0.40979 0.0
C761 C 0.39046 0.2672 0.40981 0.0
C762 C 0.38128 0.25836 0.42447 0.0
N763 N 0.39433 0.2943 0.46107 0.0
C764 C 0.36947 0.36023 0.47178 0.0
C765 C 0.39306 0.35809 0.45954 0.0
C766 C 0.40522 0.32508 0.45444 0.0
C767 C 0.35775 0.3282 0.47805 0.0
C768 C 0.37011 0.29587 0.47249 0.0
N769 N 0.43655 0.20217 0.45029 0.0
C770 C 0.43496 0.14726 0.43637 0.0
C771 C 0.46361 0.13372 0.44461 0.0
C772 C 0.47871 0.15565 0.45559 0.0
C773 C 0.46506 0.18963 0.45816 0.0
C774 C 0.42189 0.18126 0.43938 0.0
H775 H 0.47748 0.20554 0.4667 0.0
H776 H 0.3995 0.1903 0.43298 0.0
H777 H 0.42402 0.32453 0.44532 0.0
H778 H 0.36074 0.27212 0.47783 0.0
C779 C 0.37016 0.19985 0.47874 0.0
C780 C 0.3462 0.2445 0.42865 0.0
C781 C 0.47545 0.27202 0.48413 0.0
C782 C 0.47035 0.27619 0.42989 0.0
H783 H 0.28774 0.20588 0.44164 0.0
H784 H 0.30187 0.17822 0.46834 0.0
H785 H 0.39763 0.19635 0.50865 0.0
H786 H 0.45306 0.23886 0.51182 0.0
H787 H 0.53808 0.30193 0.47051 0.0
H788 H 0.53682 0.3014 0.44077 0.0
H789 H 0.44203 0.28214 0.4003 0.0
H790 H 0.37359 0.26759 0.4 0.0
H791 H 0.40245 0.38172 0.45394 0.0
H792 H 0.34 0.32781 0.4876 0.0
H793 H 0.42211 0.13142 0.42783 0.0
H794 H 0.50124 0.14681 0.46209 0.0
C795 C 0.27794 0.54349 0.54879 0.0
C796 C 0.29201 0.51083 0.55269 0.0
C797 C 0.29494 0.51052 0.56795 0.0
C798 C 0.28273 0.54286 0.5725 0.0
N799 N 0.27166 0.56374 0.56111 0.0
Co800 Co 0.25368 0.61353 0.56284 0.0
N801 N 0.26344 0.61494 0.585 0.0
C802 C 0.27514 0.58788 0.59356 0.0
C803 C 0.27934 0.59636 0.60842 0.0
C804 C 0.27015 0.63112 0.60943 0.0
C805 C 0.26104 0.64194 0.59503 0.0
N806 N 0.236 0.66359 0.56469 0.0
C807 C 0.23671 0.68634 0.57659 0.0
C808 C 0.2231 0.71914 0.57274 0.0
C809 C 0.21361 0.71719 0.55794 0.0
C810 C 0.22201 0.68348 0.55354 0.0
N811 N 0.24433 0.61217 0.54065 0.0
C812 C 0.22903 0.63789 0.53235 0.0
C813 C 0.22783 0.63022 0.51728 0.0
C814 C 0.24373 0.59793 0.51586 0.0
C815 C 0.25382 0.58769 0.53018 0.0
N816 N 0.20436 0.59491 0.56674 0.0
C817 C 0.13552 0.56412 0.56825 0.0
C818 C 0.14199 0.59494 0.56008 0.0
C819 C 0.17587 0.60977 0.5596 0.0
C820 C 0.16371 0.55013 0.57653 0.0
C821 C 0.19767 0.56586 0.57564 0.0
N822 N 0.30227 0.63176 0.55847 0.0
C823 C 0.34001 0.6691 0.54314 0.0
C824 C 0.37062 0.65231 0.54827 0.0
C825 C 0.36625 0.62581 0.55923 0.0
C826 C 0.33209 0.61616 0.56421 0.0
C827 C 0.30673 0.65877 0.54838 0.0
H828 H 0.33012 0.59555 0.57246 0.0
H829 H 0.28485 0.67238 0.54364 0.0
H830 H 0.17819 0.63286 0.55298 0.0
H831 H 0.21815 0.55351 0.58197 0.0
C832 C 0.28382 0.55539 0.5872 0.0
C833 C 0.27281 0.5547 0.53324 0.0
C834 C 0.25107 0.67838 0.59152 0.0
C835 C 0.2194 0.67032 0.53882 0.0
H836 H 0.30023 0.48969 0.54529 0.0
H837 H 0.30585 0.48968 0.57487 0.0
H838 H 0.28865 0.57947 0.6174 0.0
H839 H 0.27054 0.64686 0.61958 0.0
H840 H 0.22084 0.74228 0.57981 0.0
H841 H 0.20279 0.73819 0.55108 0.0
H842 H 0.21776 0.64672 0.50832 0.0
H843 H 0.24804 0.58376 0.50545 0.0
H844 H 0.12094 0.60726 0.5537 0.0
H845 H 0.16002 0.52636 0.58314 0.0
H846 H 0.3413 0.68938 0.53456 0.0
H847 H 0.38899 0.61232 0.56388 0.0
H848 H 0.14616 0.41683 0.28223 0.0
H849 H 0.24347 0.3656 0.29632 0.0
H850 H 0.278 0.41236 0.2838 0.0
H851 H 0.17668 0.43948 0.24564 0.0
H852 H 0.15354 0.48107 0.24493 0.0
H853 H 0.13638 0.44541 0.25621 0.0
H854 H 0.13663 0.48626 0.27958 0.0
H855 H 0.154 0.52199 0.26836 0.0
H856 H 0.1771 0.50805 0.28505 0.0
H857 H 0.3026 0.4627 0.26795 0.0
H858 H 0.31432 0.51117 0.24983 0.0
H859 H 0.20166 0.52933 0.24565 0.0
C860 C 0.17472 0.41524 0.28276 0.0
C861 C 0.19175 0.38715 0.29052 0.0
C862 C 0.22935 0.3869 0.29087 0.0
C863 C 0.24938 0.41336 0.28366 0.0
C864 C 0.2317 0.44025 0.27602 0.0
C865 C 0.19518 0.44136 0.27552 0.0
C866 C 0.18264 0.47207 0.26587 0.0
C867 C 0.16104 0.4587 0.25236 0.0
C868 C 0.16133 0.49867 0.27528 0.0
C869 C 0.21778 0.48779 0.26087 0.0
C870 C 0.24581 0.46918 0.26692 0.0
C871 C 0.28081 0.4777 0.26332 0.0
C872 C 0.28729 0.50541 0.2531 0.0
C873 C 0.25899 0.52442 0.24657 0.0
C874 C 0.22382 0.51571 0.25073 0.0
H875 H 0.48128 0.78174 0.78193 0.0
H876 H 0.57417 0.82466 0.7599 0.0
H877 H 0.53593 0.85028 0.74 0.0
H878 H 0.42848 0.76292 0.74925 0.0
H879 H 0.38775 0.77742 0.7578 0.0
H880 H 0.42272 0.75986 0.76932 0.0
H881 H 0.42272 0.81709 0.78534 0.0
H882 H 0.3876 0.8347 0.77393 0.0
H883 H 0.42817 0.85928 0.7762 0.0
H884 H 0.48604 0.87088 0.7223 0.0
H885 H 0.43079 0.88817 0.70974 0.0
H886 H 0.3708 0.8396 0.7461 0.0
C887 C 0.49359 0.79678 0.77298 0.0
C888 C 0.53073 0.80165 0.77258 0.0
C889 C 0.54578 0.82077 0.76046 0.0
C890 C 0.52424 0.83541 0.74913 0.0
C891 C 0.48757 0.83106 0.75015 0.0
C892 C 0.47242 0.81253 0.76191 0.0
C893 C 0.43236 0.81364 0.76109 0.0
C894 C 0.41693 0.77623 0.75925 0.0
C895 C 0.4168 0.8323 0.77496 0.0
C896 C 0.42716 0.83548 0.74697 0.0
C897 C 0.45923 0.84482 0.74066 0.0
C898 C 0.46082 0.86407 0.72731 0.0
C899 C 0.42895 0.87415 0.7203 0.0
C900 C 0.39546 0.86576 0.72674 0.0
C901 C 0.39519 0.84619 0.7404 0.0
H902 H 0.81501 0.49685 0.24569 0.0
H903 H 0.70317 0.52052 0.24836 0.0
H904 H 0.71594 0.56883 0.26651 0.0
H905 H 0.83714 0.51666 0.28527 0.0
H906 H 0.87928 0.53592 0.28038 0.0
H907 H 0.86064 0.50137 0.26888 0.0
H908 H 0.86543 0.54197 0.24553 0.0
H909 H 0.88381 0.57673 0.25694 0.0
H910 H 0.84475 0.58487 0.24586 0.0
H911 H 0.74219 0.61812 0.28277 0.0
H912 H 0.77851 0.66295 0.29571 0.0
H913 H 0.87358 0.60597 0.28286 0.0
C914 C 0.79321 0.51177 0.2504 0.0
C915 C 0.75803 0.50486 0.24579 0.0
C916 C 0.73019 0.52522 0.25191 0.0
C917 C 0.73728 0.55273 0.26217 0.0
C918 C 0.7724 0.55946 0.26625 0.0
C919 C 0.79988 0.53932 0.26061 0.0
C920 C 0.83539 0.55303 0.2661 0.0
C921 C 0.85422 0.52508 0.27573 0.0
C922 C 0.85871 0.56485 0.25282 0.0
C923 C 0.82378 0.58439 0.27554 0.0
C924 C 0.78736 0.58759 0.27555 0.0
C925 C 0.7707 0.61547 0.28298 0.0
C926 C 0.7917 0.6408 0.29044 0.0
C927 C 0.82923 0.63838 0.2905 0.0
C928 C 0.84514 0.60924 0.28304 0.0
H929 H 0.49615 0.18511 0.77214 0.0
H930 H 0.51218 0.29847 0.77024 0.0
H931 H 0.5627 0.28997 0.75294 0.0
H932 H 0.5873 0.16275 0.77307 0.0
H933 H 0.58322 0.12351 0.7617 0.0
H934 H 0.54623 0.13842 0.77278 0.0
H935 H 0.50706 0.14019 0.74894 0.0
H936 H 0.54392 0.12518 0.73777 0.0
H937 H 0.5214 0.16554 0.73288 0.0
H938 H 0.61369 0.26933 0.73725 0.0
H939 H 0.66203 0.23802 0.72421 0.0
H940 H 0.6145 0.13737 0.7362 0.0
C941 C 0.50991 0.20806 0.76777 0.0
C942 C 0.49973 0.24255 0.7722 0.0
C943 C 0.51899 0.27196 0.76667 0.0
C944 C 0.54781 0.26734 0.7569 0.0
C945 C 0.55735 0.23307 0.7528 0.0
C946 C 0.53901 0.20388 0.75802 0.0
C947 C 0.55615 0.16989 0.75251 0.0
C948 C 0.56899 0.14732 0.76581 0.0
C949 C 0.53061 0.14897 0.74242 0.0
C950 C 0.58714 0.18454 0.74351 0.0
C951 C 0.58717 0.22107 0.74381 0.0
C952 C 0.61379 0.24073 0.73686 0.0
C953 C 0.64126 0.22268 0.72952 0.0
C954 C 0.64215 0.18523 0.72912 0.0
C955 C 0.61434 0.166 0.73609 0.0
H956 H 0.2514 0.0471 0.03227 0.0
H957 H 0.21646 0.95402 0.00809 0.0
H958 H 0.19185 0.99237 0.988 0.0
H959 H 0.17231 0.09612 0.02544 0.0
H960 H 0.19464 0.13819 0.02423 0.0
H961 H 0.21306 0.10328 0.03551 0.0
H962 H 0.27199 0.10787 0.02071 0.0
H963 H 0.25369 0.14274 0.00934 0.0
H964 H 0.27154 0.10373 1.00053 0.0
H965 H 0.17026 0.04244 0.9706 0.0
H966 H 0.15066 0.09748 0.95856 0.0
H967 H 0.19159 0.15706 0.99664 0.0
C968 C 0.23847 0.03476 0.02276 0.0
C969 C 0.23539 0.99749 0.02185 0.0
C970 C 0.21898 0.98246 0.00905 0.0
C971 C 0.20489 1.00409 0.99761 0.0
C972 C 0.20711 0.04081 0.99918 0.0
C973 C 0.22324 0.05594 0.01154 0.0
C974 C 0.21981 0.0959 0.01124 0.0
C975 C 0.19869 0.10915 0.02491 0.0
C976 C 0.25644 0.1136 0.0104 0.0
C977 C 0.19931 0.10107 0.99675 0.0
C978 C 0.19273 0.06911 0.98981 0.0
C979 C 0.17495 0.06754 0.97609 0.0
C980 C 0.16348 0.0993 0.96938 0.0
C981 C 0.16895 0.13262 0.97646 0.0
C982 C 0.18718 0.13288 0.99046 0.0
H983 H 0.11898 0.87918 0.02867 0.0
H984 H 0.1723 0.78102 0.03945 0.0
H985 H 0.12533 0.74746 0.02635 0.0
H986 H 0.02784 0.84626 0.03185 0.0
H987 H 1.01233 0.87159 0.01603 0.0
H988 H 0.04862 0.88781 0.02722 0.0
H989 H 0.08769 0.89237 1.00336 0.0
H990 H 0.05152 0.87623 0.99211 0.0
H991 H 0.0936 0.85389 0.99167 0.0
H992 H 0.07374 0.7245 0.01112 0.0
H993 H 0.02301 0.71441 0.99396 0.0
H994 H 1.00351 0.82713 0.99249 0.0
C995 C 0.12038 0.85059 0.02848 0.0
C996 C 0.14922 0.83268 0.03519 0.0
C997 C 0.15052 0.79528 0.03439 0.0
C998 C 0.12387 0.77599 0.02702 0.0
C999 C 0.09602 0.7944 0.02038 0.0
C1000 C 0.09414 0.83089 0.02098 0.0
C1001 C 0.06254 0.8443 0.01211 0.0
C1002 C 0.03628 0.86363 0.02242 0.0
C1003 C 0.07457 0.8681 0.99904 0.0
C1004 C 0.04707 0.80972 1.00639 0.0
C1005 C 0.06662 0.78121 0.0114 0.0
C1006 C 0.05811 0.74662 1.00723 0.0
C1007 C 0.02924 0.74107 0.99755 0.0
C1008 C 1.00927 0.76991 0.99208 0.0
C1009 C 0.01815 0.80462 0.9967 0.0
H1010 H 0.88464 0.91856 0.98515 0.0
H1011 H 0.78687 0.86451 0.97348 0.0
H1012 H 0.75297 0.90986 0.9871 0.0
H1013 H 0.85898 0.94069 0.02257 0.0
H1014 H 0.88075 0.98314 0.0226 0.0
H1015 H 0.89744 0.94798 0.01095 0.0
H1016 H 0.89241 0.98834 0.98754 0.0
H1017 H 0.87565 0.02362 0.99913 0.0
H1018 H 0.85055 1.00862 0.98313 0.0
H1019 H 0.72944 0.95878 1.00354 0.0
H1020 H 0.71842 1.00805 0.02123 0.0
H1021 H 0.83078 0.03072 0.02261 0.0
C1022 C 0.8561 0.91613 0.9854 0.0
C1023 C 0.83866 0.88769 0.97801 0.0
C1024 C 0.80113 0.88616 0.97865 0.0
C1025 C 0.78152 0.91177 0.9865 0.0
C1026 C 0.79958 0.93904 0.99375 0.0
C1027 C 0.83604 0.94147 0.99325 0.0
C1028 C 0.849 0.97277 1.00249 0.0
C1029 C 0.87296 0.9604 0.01542 0.0
C1030 C 0.86803 0.99995 0.99247 0.0
C1031 C 0.81417 0.98731 0.00838 0.0
C1032 C 0.78598 0.96747 1.00315 0.0
C1033 C 0.75128 0.97479 1.00751 0.0
C1034 C 0.74522 1.00294 0.01749 0.0
C1035 C 0.7736 0.02377 0.02295 0.0
C1036 C 0.80854 0.01574 0.01831 0.0
H1037 H 0.87093 0.21932 0.0281 0.0
H1038 H 0.9138 0.11741 0.04133 0.0
H1039 H 0.96977 0.13207 0.02872 0.0
H1040 H 0.90907 0.21864 0.99119 0.0
H1041 H 0.91754 0.26555 0.99079 0.0
H1042 H 0.88155 0.24833 1.00189 0.0
H1043 H 0.90735 0.27905 0.02549 0.0
H1044 H 0.94358 0.29613 0.01446 0.0
H1045 H 0.95235 0.27011 0.03101 0.0
H1046 H 0.02098 0.15638 0.01361 0.0
H1047 H 0.0616 0.18766 0.99614 0.0
H1048 H 0.98572 0.27265 0.99182 0.0
C1049 C 0.89194 0.19994 0.02838 0.0
C1050 C 0.88755 0.16728 0.03608 0.0
C1051 C 0.91628 0.14305 0.03604 0.0
C1052 C 0.94834 0.15101 0.02876 0.0
C1053 C 0.95167 0.18331 0.02136 0.0
C1054 C 0.92417 0.20733 0.02103 0.0
C1055 C 0.93408 0.23942 0.0116 0.0
C1056 C 0.90907 0.24319 0.99807 0.0
C1057 C 0.93435 0.27318 0.02122 0.0
C1058 C 0.97127 0.22955 1.00662 0.0
C1059 C 0.98101 0.19715 0.01248 0.0
C1060 C 0.0137 0.18189 0.00907 0.0
C1061 C 0.03669 0.19984 0.99921 0.0
C1062 C 0.02694 0.23263 0.99286 0.0
C1063 C 0.99399 0.24785 0.99678 0.0
H1064 H 0.64139 0.91675 0.78545 0.0
H1065 H 0.74139 0.86636 0.79582 0.0
H1066 H 0.77339 0.91489 0.78312 0.0
H1067 H 0.66509 0.94387 0.74892 0.0
H1068 H 0.64191 0.98545 0.74945 0.0
H1069 H 0.62679 0.94907 0.76082 0.0
H1070 H 0.63132 0.98822 0.78463 0.0
H1071 H 0.64646 0.02476 0.77329 0.0
H1072 H 0.67261 1.00986 0.78898 0.0
H1073 H 0.79447 0.96499 0.76705 0.0
H1074 H 0.80305 0.0135 0.7488 0.0
H1075 H 0.69021 0.03359 0.74895 0.0
C1076 C 0.67005 0.91652 0.78538 0.0
C1077 C 0.68893 0.88786 0.79177 0.0
C1078 C 0.7264 0.88802 0.79105 0.0
C1079 C 0.74482 0.91555 0.78389 0.0
C1080 C 0.72552 0.94299 0.77742 0.0
C1081 C 0.68896 0.94384 0.77813 0.0
C1082 C 0.67468 0.97516 0.76927 0.0
C1083 C 0.6507 0.96263 0.75635 0.0
C1084 C 0.65511 1.00104 0.77967 0.0
C1085 C 0.70883 0.99135 0.76332 0.0
C1086 C 0.73783 0.97241 0.76825 0.0
C1087 C 0.77203 0.98051 0.7634 0.0
C1088 C 0.77672 1.0083 0.75311 0.0
C1089 C 0.74749 0.02807 0.74782 0.0
C1090 C 0.71314 0.01964 0.75318 0.0
H1091 H 0.98206 0.24785 0.27608 0.0
H1092 H 0.0709 0.31636 0.2659 0.0
H1093 H 0.03462 0.34806 0.2471 0.0
H1094 H 0.94582 0.24344 0.23744 0.0
H1095 H 0.90056 0.24418 0.24386 0.0
H1096 H 0.93448 0.22488 0.25547 0.0
H1097 H 0.91685 0.26654 0.27732 0.0
H1098 H 0.883 0.28603 0.26578 0.0
H1099 H 0.9164 0.31365 0.27425 0.0
H1100 H 0.98687 0.37631 0.23143 0.0
H1101 H 0.93195 0.39716 0.2191 0.0
H1102 H 0.87399 0.30959 0.23866 0.0
C1103 C 0.99393 0.26911 0.26965 0.0
C1104 C 0.02927 0.27972 0.27239 0.0
C1105 C 0.04394 0.3078 0.26391 0.0
C1106 C 0.02349 0.32596 0.25323 0.0
C1107 C 0.98843 0.31552 0.25105 0.0
C1108 C 0.97382 0.28751 0.25891 0.0
C1109 C 0.93499 0.28277 0.25494 0.0
C1110 C 0.9286 0.24667 0.24748 0.0
C1111 C 0.91143 0.28754 0.2689 0.0
C1112 C 0.92988 0.31279 0.24381 0.0
C1113 C 0.96108 0.33135 0.24173 0.0
C1114 C 0.96248 0.36159 0.23276 0.0
C1115 C 0.93123 0.37326 0.2258 0.0
C1116 C 0.89906 0.35459 0.22771 0.0
C1117 C 0.8985 0.32379 0.23673 0.0
H1118 H 0.2491 0.03578 0.74473 0.0
H1119 H 0.3349 0.96032 0.74674 0.0
H1120 H 0.36613 0.99847 0.76518 0.0
H1121 H 0.30215 0.11186 0.74545 0.0
H1122 H 0.27258 0.138 0.75681 0.0
H1123 H 0.25525 0.10303 0.74522 0.0
H1124 H 0.22571 0.07423 0.76848 0.0
H1125 H 0.24266 0.10932 0.78014 0.0
H1126 H 0.25224 0.06391 0.78472 0.0
H1127 H 0.39055 0.04813 0.78148 0.0
H1128 H 0.40556 0.10345 0.7946 0.0
H1129 H 0.30265 0.14625 0.78271 0.0
C1130 C 0.27402 0.02697 0.74941 0.0
C1131 C 0.2895 0.99492 0.74454 0.0
C1132 C 0.32249 0.98452 0.75054 0.0
C1133 C 0.34041 1.00612 0.76096 0.0
C1134 C 0.3249 0.03805 0.7653 0.0
C1135 C 0.29226 0.04828 0.7598 0.0
C1136 C 0.28232 0.08475 0.76557 0.0
C1137 C 0.27782 0.11095 0.75248 0.0
C1138 C 0.24874 0.08293 0.77531 0.0
C1139 C 0.31465 0.09375 0.77497 0.0
C1140 C 0.33885 0.06643 0.77472 0.0
C1141 C 0.37146 0.06941 0.78195 0.0
C1142 C 0.37966 0.10106 0.78952 0.0
C1143 C 0.35539 0.12972 0.78994 0.0
C1144 C 0.32221 0.1254 0.78264 0.0
H1145 H 0.03701 0.77674 0.27093 0.0
H1146 H 0.95711 0.6951 0.26701 0.0
H1147 H 0.99544 0.66229 0.24924 0.0
H1148 H 0.06828 0.77251 0.23115 0.0
H1149 H 0.1137 0.78014 0.23643 0.0
H1150 H 0.07838 0.79866 0.24754 0.0
H1151 H 0.10377 0.76813 0.27123 0.0
H1152 H 0.13889 0.74918 0.2602 0.0
H1153 H 0.11035 0.72093 0.27116 0.0
H1154 H 0.04565 0.63516 0.23423 0.0
H1155 H 0.10155 0.61743 0.22221 0.0
H1156 H 0.14786 0.71869 0.2345 0.0
C1157 C 0.02732 0.75246 0.26595 0.0
C1158 C 0.99401 0.73854 0.27015 0.0
C1159 C 0.98237 0.70633 0.26375 0.0
C1160 C 1.00403 0.6875 0.2537 0.0
C1161 C 0.03719 0.70142 0.25004 0.0
C1162 C 0.04858 0.73345 0.2558 0.0
C1163 C 0.08598 0.74174 0.25062 0.0
C1164 C 0.08661 0.77525 0.24085 0.0
C1165 C 0.11123 0.74519 0.2641 0.0
C1166 C 0.09422 0.70902 0.24137 0.0
C1167 C 0.06573 0.68612 0.24115 0.0
C1168 C 0.06786 0.65327 0.23409 0.0
C1169 C 0.09988 0.64351 0.22715 0.0
C1170 C 0.12966 0.6665 0.22717 0.0
C1171 C 0.12618 0.69998 0.23428 0.0
H1172 H 0.75256 0.54339 0.53242 0.0
H1173 H 0.71242 0.45068 0.50947 0.0
H1174 H 0.68797 0.48907 0.48935 0.0
H1175 H 0.67505 0.59532 0.52601 0.0
H1176 H 0.69905 0.63635 0.5242 0.0
H1177 H 0.71663 0.60122 0.53561 0.0
H1178 H 0.77484 0.60264 0.52018 0.0
H1179 H 0.75735 0.63769 0.50868 0.0
H1180 H 0.77305 0.59755 0.50005 0.0
H1181 H 0.66735 0.53914 0.47176 0.0
H1182 H 0.64935 0.59447 0.45944 0.0
H1183 H 0.69532 0.65402 0.49646 0.0
C1184 C 0.73852 0.53115 0.52318 0.0
C1185 C 0.73395 0.49401 0.5226 0.0
C1186 C 0.71607 0.47904 0.51015 0.0
C1187 C 0.70209 0.50068 0.4987 0.0
C1188 C 0.7059 0.53735 0.49993 0.0
C1189 C 0.72343 0.55239 0.51196 0.0
C1190 C 0.72168 0.59242 0.51135 0.0
C1191 C 0.70192 0.60719 0.5251 0.0
C1192 C 0.75895 0.60851 0.50998 0.0
C1193 C 0.70058 0.59773 0.49703 0.0
C1194 C 0.69218 0.56575 0.49046 0.0
C1195 C 0.67349 0.56428 0.47696 0.0
C1196 C 0.66299 0.59617 0.47009 0.0
C1197 C 0.6704 0.62952 0.47681 0.0
C1198 C 0.68949 0.62971 0.49058 0.0
H1199 H 0.61737 0.38307 0.53248 0.0
H1200 H 0.66728 0.28289 0.54289 0.0
H1201 H 0.61917 0.25125 0.52974 0.0
H1202 H 0.52493 0.35277 0.53568 0.0
H1203 H 0.51008 0.37893 0.51998 0.0
H1204 H 0.5469 0.39381 0.5312 0.0
H1205 H 0.58589 0.3978 0.5073 0.0
H1206 H 0.54921 0.38293 0.49603 0.0
H1207 H 0.59064 0.35943 0.49545 0.0
H1208 H 0.56777 0.23037 0.51426 0.0
H1209 H 0.51695 0.22183 0.49713 0.0
H1210 H 0.49951 0.33497 0.49626 0.0
C1211 C 0.61773 0.35445 0.53222 0.0
C1212 C 0.64604 0.33542 0.53883 0.0
C1213 C 0.64597 0.29801 0.53793 0.0
C1214 C 0.61867 0.2798 0.53052 0.0
C1215 C 0.59147 0.29926 0.52394 0.0
C1216 C 0.59074 0.33577 0.52468 0.0
C1217 C 0.55943 0.35027 0.51589 0.0
C1218 C 0.53382 0.37012 0.52631 0.0
C1219 C 0.57206 0.37401 0.5029 0.0
C1220 C 0.54287 0.31626 0.51003 0.0
C1221 C 0.56173 0.28716 0.51491 0.0
C1222 C 0.55254 0.25293 0.51055 0.0
C1223 C 0.52354 0.24828 0.50088 0.0
C1224 C 0.50381 0.27761 0.49569 0.0
C1225 C 0.51365 0.31205 0.50036 0.0
H1226 H 0.24981 0.49103 0.52183 0.0
H1227 H 0.33295 0.56926 0.51749 0.0
H1228 H 0.36506 0.52987 0.49986 0.0
H1229 H 0.30511 0.417 0.52266 0.0
H1230 H 0.27632 0.38832 0.51205 0.0
H1231 H 0.25795 0.42412 0.52283 0.0
H1232 H 0.22726 0.44873 0.49904 0.0
H1233 H 0.2452 0.41275 0.48818 0.0
H1234 H 0.25327 0.45779 0.48248 0.0
H1235 H 0.39101 0.47897 0.48487 0.0
H1236 H 0.40765 0.42266 0.473 0.0
H1237 H 0.30627 0.37779 0.48619 0.0
C1238 C 0.27429 0.50013 0.51679 0.0
C1239 C 0.28882 0.53331 0.52082 0.0
C1240 C 0.32126 0.54415 0.51435 0.0
C1241 C 0.33969 0.52186 0.50439 0.0
C1242 C 0.32521 0.48883 0.50094 0.0
C1243 C 0.29302 0.47816 0.50683 0.0
C1244 C 0.2842 0.44064 0.50199 0.0
C1245 C 0.2807 0.41608 0.5157 0.0
C1246 C 0.25048 0.43995 0.49234 0.0
C1247 C 0.31671 0.43157 0.4927 0.0
C1248 C 0.33999 0.45974 0.4922 0.0
C1249 C 0.37262 0.457 0.48496 0.0
C1250 C 0.38175 0.42474 0.47811 0.0
C1251 C 0.35836 0.39526 0.47839 0.0
C1252 C 0.32518 0.39928 0.48574 0.0
H1253 H 0.50516 0.7723 0.50056 0.0
H1254 H 0.56998 0.67922 0.49449 0.0
H1255 H 0.53175 0.64612 0.51232 0.0
H1256 H 0.48308 0.75778 0.54099 0.0
H1257 H 0.43848 0.77364 0.5386 0.0
H1258 H 0.47362 0.79086 0.52698 0.0
H1259 H 0.4383 0.77345 0.50317 0.0
H1260 H 0.40324 0.75588 0.51468 0.0
H1261 H 0.42414 0.72826 0.50077 0.0
H1262 H 0.48231 0.62158 0.52887 0.0
H1263 H 0.42693 0.60784 0.54244 0.0
H1264 H 0.39478 0.71756 0.53821 0.0
C1265 C 0.51188 0.74532 0.50344 0.0
C1266 C 0.54099 0.72844 0.49651 0.0
C1267 C 0.54828 0.69272 0.5 0.0
C1268 C 0.5266 0.67375 0.51006 0.0
C1269 C 0.49761 0.69087 0.51653 0.0
C1270 C 0.49039 0.72599 0.51343 0.0
C1271 C 0.4562 0.73748 0.52094 0.0
C1272 C 0.46328 0.76667 0.53257 0.0
C1273 C 0.42886 0.74947 0.50919 0.0
C1274 C 0.44488 0.70326 0.52849 0.0
C1275 C 0.4692 0.67673 0.52592 0.0
C1276 C 0.46339 0.64237 0.53113 0.0
C1277 C 0.43182 0.63483 0.53896 0.0
C1278 C 0.40608 0.66146 0.54154 0.0
C1279 C 0.41341 0.69629 0.5364 0.0
H1280 H 0.30802 0.2919 0.41128 0.0
H1281 H 0.32649 0.1799 0.41767 0.0
H1282 H 0.28599 0.16641 0.39659 0.0
H1283 H 0.21503 0.2858 0.40064 0.0
H1284 H 0.21811 0.32002 0.3866 0.0
H1285 H 0.24716 0.32079 0.40264 0.0
H1286 H 0.30149 0.3226 0.38489 0.0
H1287 H 0.27261 0.32166 0.3688 0.0
H1288 H 0.30667 0.2887 0.37083 0.0
H1289 H 0.24309 0.16499 0.37469 0.0
H1290 H 0.20202 0.17592 0.3535 0.0
H1291 H 0.2136 0.28884 0.36005 0.0
C1292 C 0.3031 0.26456 0.40832 0.0
C1293 C 0.31978 0.23686 0.41637 0.0
C1294 C 0.31336 0.20145 0.41193 0.0
C1295 C 0.29056 0.19357 0.39989 0.0
C1296 C 0.27456 0.22139 0.39217 0.0
C1297 C 0.28062 0.25622 0.39617 0.0
C1298 C 0.26094 0.28114 0.38568 0.0
C1299 C 0.23369 0.30324 0.39442 0.0
C1300 C 0.28698 0.30493 0.37704 0.0
C1301 C 0.2428 0.25496 0.37522 0.0
C1302 C 0.25092 0.2206 0.37921 0.0
C1303 C 0.23677 0.1918 0.37143 0.0
C1304 C 0.21359 0.19822 0.35936 0.0
C1305 C 0.20488 0.23315 0.35502 0.0
C1306 C 0.21997 0.26184 0.36305 0.0
H1307 H 0.20266 0.7175 0.60816 0.0
H1308 H 0.31504 0.70215 0.60116 0.0
H1309 H 0.32805 0.74401 0.62183 0.0
H1310 H 0.20796 0.81219 0.6172 0.0
H1311 H 0.17358 0.80991 0.63123 0.0
H1312 H 0.17326 0.77961 0.61561 0.0
H1313 H 0.17159 0.72697 0.63419 0.0
H1314 H 0.17242 0.7571 0.64987 0.0
H1315 H 0.20558 0.7231 0.6483 0.0
H1316 H 0.32898 0.78613 0.64387 0.0
H1317 H 0.31778 0.82822 0.66465 0.0
H1318 H 0.20487 0.81791 0.65744 0.0
C1319 C 0.22996 0.72353 0.61085 0.0
C1320 C 0.25795 0.70689 0.60294 0.0
C1321 C 0.29331 0.71488 0.60697 0.0
C1322 C 0.3009 0.7385 0.61874 0.0
C1323 C 0.27283 0.75412 0.62646 0.0
C1324 C 0.23803 0.74727 0.6226 0.0
C1325 C 0.21289 0.7676 0.63281 0.0
C1326 C 0.1906 0.79389 0.62367 0.0
C1327 C 0.18922 0.74217 0.64183 0.0
C1328 C 0.23892 0.78676 0.64302 0.0
C1329 C 0.27338 0.77844 0.63919 0.0
C1330 C 0.3021 0.79277 0.64696 0.0
C1331 C 0.29553 0.8165 0.6588 0.0
C1332 C 0.26055 0.8258 0.66288 0.0
C1333 C 0.23189 0.81065 0.65483 0.0
H1334 H 0.71151 0.82547 0.40882 0.0
H1335 H 0.70085 0.71212 0.41429 0.0
H1336 H 0.74205 0.70266 0.39303 0.0
H1337 H 0.71623 0.82635 0.36859 0.0
H1338 H 0.74908 0.86086 0.36744 0.0
H1339 H 0.71924 0.85916 0.38323 0.0
H1340 H 0.77234 0.85787 0.40159 0.0
H1341 H 0.80233 0.86013 0.38586 0.0
H1342 H 0.80609 0.82467 0.39929 0.0
H1343 H 0.78315 0.70527 0.37078 0.0
H1344 H 0.82504 0.71955 0.35031 0.0
H1345 H 0.81157 0.83135 0.35921 0.0
C1346 C 0.71853 0.7987 0.40573 0.0
C1347 C 0.70347 0.76941 0.41343 0.0
C1348 C 0.71245 0.73483 0.40872 0.0
C1349 C 0.73568 0.72925 0.39659 0.0
C1350 C 0.74992 0.75855 0.38919 0.0
C1351 C 0.74204 0.79264 0.39366 0.0
C1352 C 0.76133 0.81941 0.38378 0.0
C1353 C 0.73489 0.84283 0.37526 0.0
C1354 C 0.78705 0.84184 0.39319 0.0
C1355 C 0.78119 0.79508 0.37306 0.0
C1356 C 0.77392 0.76007 0.37636 0.0
C1357 C 0.789 0.73259 0.36812 0.0
C1358 C 0.81264 0.74095 0.35644 0.0
C1359 C 0.82127 0.77651 0.35301 0.0
C1360 C 0.80503 0.80395 0.3614 0.0
H1361 H 0.77841 0.24169 0.67028 0.0
H1362 H 0.79745 0.14571 0.64488 0.0
H1363 H 0.79783 0.18013 0.62138 0.0
H1364 H 0.72962 0.29214 0.6445 0.0
H1365 H 0.75318 0.33314 0.64716 0.0
H1366 H 0.75118 0.3012 0.66216 0.0
H1367 H 0.8196 0.29977 0.66361 0.0
H1368 H 0.82177 0.33232 0.64884 0.0
H1369 H 0.84489 0.29094 0.64684 0.0
H1370 H 0.78448 0.22471 0.60032 0.0
H1371 H 0.77977 0.27699 0.58379 0.0
H1372 H 0.79371 0.3451 0.62262 0.0
C1373 C 0.78318 0.22791 0.65982 0.0
C1374 C 0.78559 0.19041 0.65948 0.0
C1375 C 0.79315 0.17397 0.64548 0.0
C1376 C 0.79371 0.19337 0.63201 0.0
C1377 C 0.78951 0.22989 0.63268 0.0
C1378 C 0.78664 0.24725 0.64629 0.0
C1379 C 0.78741 0.28713 0.64387 0.0
C1380 C 0.75332 0.3044 0.64978 0.0
C1381 C 0.82038 0.30351 0.65123 0.0
C1382 C 0.78947 0.28925 0.62679 0.0
C1383 C 0.78927 0.25587 0.62056 0.0
C1384 C 0.78608 0.25101 0.60507 0.0
C1385 C 0.7835 0.28096 0.59573 0.0
C1386 C 0.78601 0.31571 0.60167 0.0
C1387 C 0.79013 0.31943 0.6175 0.0
H1388 H 0.21398 0.23263 0.90851 0.0
H1389 H 0.19633 0.34501 0.91413 0.0
H1390 H 0.23754 0.35742 0.89318 0.0
H1391 H 0.30729 0.2374 0.898 0.0
H1392 H 0.30405 0.20286 0.88411 0.0
H1393 H 0.27475 0.20281 0.9001 0.0
H1394 H 0.22069 0.20114 0.88225 0.0
H1395 H 0.24983 0.20137 0.86621 0.0
H1396 H 0.21609 0.23474 0.86803 0.0
H1397 H 0.28145 0.35786 0.87173 0.0
H1398 H 0.32295 0.3462 0.85081 0.0
H1399 H 0.30954 0.23346 0.85739 0.0
C1400 C 0.21925 0.25983 0.90542 0.0
C1401 C 0.20265 0.28794 0.91327 0.0
C1402 C 0.20946 0.32314 0.90861 0.0
C1403 C 0.23266 0.33041 0.89663 0.0
C1404 C 0.24859 0.30221 0.88913 0.0
C1405 C 0.24207 0.26757 0.89328 0.0
C1406 C 0.26168 0.24217 0.88293 0.0
C1407 C 0.28854 0.22 0.89182 0.0
C1408 C 0.23551 0.21845 0.87435 0.0
C1409 C 0.28029 0.2679 0.87237 0.0
C1410 C 0.27249 0.30242 0.87624 0.0
C1411 C 0.28731 0.33092 0.86849 0.0
C1412 C 0.31068 0.32406 0.85653 0.0
C1413 C 0.31873 0.28897 0.85214 0.0
C1414 C 0.30329 0.26056 0.86026 0.0
H1415 H 0.27598 0.74517 0.16943 0.0
H1416 H 0.31149 0.65074 0.14622 0.0
H1417 H 0.31172 0.68358 0.12226 0.0
H1418 H 0.22686 0.78755 0.142 0.0
H1419 H 0.24471 0.83133 0.14462 0.0
H1420 H 0.24445 0.80043 0.16002 0.0
H1421 H 0.31219 0.80749 0.16323 0.0
H1422 H 0.3125 0.83922 0.14812 0.0
H1423 H 0.34083 0.80097 0.14726 0.0
H1424 H 0.29462 0.72487 0.10025 0.0
H1425 H 0.28525 0.77516 0.08297 0.0
H1426 H 0.28732 0.84678 0.1211 0.0
C1427 C 0.28508 0.73153 0.15947 0.0
C1428 C 0.29246 0.69467 0.1598 0.0
C1429 C 0.30423 0.67843 0.14629 0.0
C1430 C 0.30452 0.6969 0.13258 0.0
C1431 C 0.29573 0.73265 0.13259 0.0
C1432 C 0.28863 0.75033 0.14583 0.0
C1433 C 0.28481 0.78981 0.14289 0.0
C1434 C 0.24802 0.80304 0.14767 0.0
C1435 C 0.31435 0.81061 0.15085 0.0
C1436 C 0.28915 0.79113 0.12589 0.0
C1437 C 0.29385 0.75763 0.12012 0.0
C1438 C 0.29272 0.75146 0.10466 0.0
C1439 C 0.28748 0.78031 0.0949 0.0
C1440 C 0.28565 0.8155 0.1004 0.0
C1441 C 0.28743 0.8206 0.11624 0.0
H1442 H 0.81178 0.78939 0.90688 0.0
H1443 H 0.82409 0.67704 0.91468 0.0
H1444 H 0.78214 0.66443 0.89396 0.0
H1445 H 0.71865 0.78805 0.89677 0.0
H1446 H 0.72328 0.82109 0.8823 0.0
H1447 H 0.75287 0.82118 0.89816 0.0
H1448 H 0.80659 0.81856 0.8801 0.0
H1449 H 0.77714 0.81828 0.86418 0.0
H1450 H 0.80925 0.78349 0.86643 0.0
H1451 H 0.73773 0.66418 0.87251 0.0
H1452 H 0.69597 0.67612 0.85174 0.0
H1453 H 0.71562 0.78849 0.85629 0.0
C1454 C 0.80545 0.76216 0.90424 0.0
C1455 C 0.82102 0.73413 0.9125 0.0
C1456 C 0.81222 0.69887 0.90864 0.0
C1457 C 0.78853 0.69149 0.89684 0.0
C1458 C 0.77398 0.71966 0.8888 0.0
C1459 C 0.7822 0.75432 0.89231 0.0
C1460 C 0.76367 0.77967 0.88162 0.0
C1461 C 0.7381 0.80393 0.89023 0.0
C1462 C 0.79078 0.80127 0.87255 0.0
C1463 C 0.74365 0.75393 0.87159 0.0
C1464 C 0.7498 0.71943 0.876 0.0
C1465 C 0.73322 0.69107 0.86884 0.0
C1466 C 0.70975 0.69807 0.85694 0.0
C1467 C 0.70337 0.73312 0.85201 0.0
C1468 C 0.72064 0.76136 0.85953 0.0
H1469 H 0.73328 0.18107 0.12112 0.0
H1470 H 0.7463 0.25433 0.08391 0.0
H1471 H 0.73654 0.30415 0.10136 0.0
H1472 H 0.67986 0.22767 0.14654 0.0
H1473 H 0.70624 0.21914 0.163 0.0
H1474 H 0.70652 0.18826 0.14758 0.0
H1475 H 0.77469 0.19336 0.14539 0.0
H1476 H 0.7747 0.22326 0.16114 0.0
H1477 H 0.79476 0.23644 0.14362 0.0
H1478 H 0.71596 0.3449 0.12333 0.0
H1479 H 0.71474 0.37656 0.14758 0.0
H1480 H 0.74598 0.27988 0.17028 0.0
C1481 C 0.73569 0.20738 0.1165 0.0
C1482 C 0.74003 0.2131 0.10078 0.0
C1483 C 0.74161 0.24866 0.09567 0.0
C1484 C 0.73618 0.27728 0.10554 0.0
C1485 C 0.73198 0.27041 0.12084 0.0
C1486 C 0.73432 0.23646 0.12638 0.0
C1487 C 0.73672 0.23683 0.14347 0.0
C1488 C 0.70547 0.21677 0.15056 0.0
C1489 C 0.77234 0.22158 0.14871 0.0
C1490 C 0.73426 0.2763 0.14666 0.0
C1491 C 0.72931 0.29485 0.13348 0.0
C1492 C 0.72154 0.33083 0.13365 0.0
C1493 C 0.72083 0.34859 0.14753 0.0
C1494 C 0.73087 0.33139 0.16108 0.0
C1495 C 0.73727 0.29433 0.1605 0.0
H1496 H 0.94342 0.95663 0.31987 0.0
H1497 H 0.03895 0.8955 0.32687 0.0
H1498 H 0.07359 0.95064 0.32913 0.0
H1499 H 0.98392 0.02326 0.29693 0.0
H1500 H 0.95843 0.05955 0.30433 0.0
H1501 H 0.94017 0.01551 0.30437 0.0
H1502 H 0.92974 0.01957 0.33306 0.0
H1503 H 0.94781 0.06372 0.33309 0.0
H1504 H 0.96625 0.03041 0.34526 0.0
H1505 H 0.09872 0.01196 0.32969 0.0
H1506 H 0.11303 0.07531 0.32819 0.0
H1507 H 1.00209 0.09898 0.32044 0.0
C1508 C 0.97152 0.95498 0.32214 0.0
C1509 C 0.98842 0.92156 0.32331 0.0
C1510 C 0.02539 0.92063 0.32596 0.0
C1511 C 0.04531 0.95188 0.32727 0.0
C1512 C 0.02812 0.98429 0.32583 0.0
C1513 C 0.99207 0.9862 0.32331 0.0
C1514 C 0.98073 0.02468 0.32152 0.0
C1515 C 0.96487 0.03112 0.30586 0.0
C1516 C 0.95457 0.03521 0.33398 0.0
C1517 C 0.01601 0.04391 0.32334 0.0
C1518 C 0.04286 0.01996 0.32592 0.0
C1519 C 0.07781 0.03096 0.3278 0.0
C1520 C 0.08566 0.06726 0.32703 0.0
C1521 C 0.05883 0.09273 0.32436 0.0
C1522 C 0.02342 0.08053 0.32246 0.0
H1523 H 0.95018 0.07438 0.6932 0.0
H1524 H 0.89444 0.97517 0.68705 0.0
H1525 H 0.95157 0.94369 0.68536 0.0
H1526 H 0.02583 0.05491 0.66851 0.0
H1527 H 0.0576 0.07595 0.6807 0.0
H1528 H 0.01246 0.09125 0.68032 0.0
H1529 H 1.00793 0.08202 0.70908 0.0
H1530 H 0.05297 0.06653 0.70953 0.0
H1531 H 0.01788 0.03925 0.71695 0.0
H1532 H 0.01431 0.92247 0.68512 0.0
H1533 H 0.07849 0.91235 0.68693 0.0
H1534 H 0.09534 0.02472 0.694 0.0
C1535 C 0.95015 0.04613 0.69122 0.0
C1536 C 0.9178 0.02722 0.69008 0.0
C1537 C 0.91882 0.99015 0.68788 0.0
C1538 C 0.95118 0.97207 0.6869 0.0
C1539 C 0.98255 0.99128 0.68828 0.0
C1540 C 0.98242 0.02748 0.69044 0.0
C1541 C 0.02005 0.0413 0.69234 0.0
C1542 C 0.02954 0.0674 0.67971 0.0
C1543 C 0.02499 0.05828 0.7079 0.0
C1544 C 0.04125 1.00725 0.69096 0.0
C1545 C 0.01897 0.97882 0.6885 0.0
C1546 C 0.03201 0.94458 0.68694 0.0
C1547 C 0.06869 0.93914 0.68789 0.0
C1548 C 0.09237 0.96767 0.69047 0.0
C1549 C 0.07817 1.00224 0.69206 0.0
H1550 H 0.03622 0.44188 0.96203 0.0
H1551 H 0.04261 0.42141 0.91413 0.0
H1552 H 0.01881 0.48098 0.909 0.0
H1553 H 0.95474 0.49229 0.96125 0.0
H1554 H 0.96882 0.52313 0.97549 0.0
H1555 H 0.98587 0.47868 0.97545 0.0
H1556 H 0.04988 0.50318 0.97476 0.0
H1557 H 0.03303 0.54771 0.97478 0.0
H1558 H 0.06259 0.5335 0.96007 0.0
H1559 H 0.99332 0.54296 0.90899 0.0
H1560 H 0.97072 0.60301 0.9141 0.0
H1561 H 0.98166 0.58438 0.96199 0.0
C1562 C 0.03237 0.44981 0.95045 0.0
C1563 C 0.04138 0.42669 0.93848 0.0
C1564 C 0.03633 0.43854 0.92351 0.0
C1565 C 0.02261 0.47235 0.92048 0.0
C1566 C 0.01414 0.49445 0.9325 0.0
C1567 C 0.01899 0.48374 0.94721 0.0
C1568 C 1.00847 0.513 0.95806 0.0
C1569 C 0.97764 0.50106 0.96816 0.0
C1570 C 0.0404 0.52506 0.96747 0.0
C1571 C 0.99688 0.54176 0.94718 0.0
C1572 C 1.00016 0.5304 0.93249 0.0
C1573 C 0.99068 0.55207 0.92046 0.0
C1574 C 0.97764 0.58618 0.92349 0.0
C1575 C 0.97428 0.59873 0.93844 0.0
C1576 C 0.98418 0.57594 0.95041 0.0
H1577 H 0.4339 0.99453 0.05713 0.0
H1578 H 0.41456 0.98887 0.10514 0.0
H1579 H 0.47533 1.01025 0.10993 0.0
H1580 H 0.52414 0.96462 0.05845 0.0
H1581 H 0.53927 0.99365 0.0437 0.0
H1582 H 0.49396 0.97873 0.04397 0.0
H1583 H 0.47235 0.04365 0.04356 0.0
H1584 H 0.5176 0.05876 0.04323 0.0
H1585 H 0.48793 0.07403 0.05771 0.0
H1586 H 0.53862 0.03257 0.10957 0.0
H1587 H 0.59943 0.05291 0.10409 0.0
H1588 H 0.5785 0.04375 0.05631 0.0
C1589 C 0.44229 0.99815 0.06866 0.0
C1590 C 0.41916 0.98999 0.08077 0.0
C1591 C 0.43164 0.99458 0.09567 0.0
C1592 C 0.46617 1.00688 0.09851 0.0
C1593 C 0.48828 0.01441 0.08635 0.0
C1594 C 0.47687 1.01016 0.07171 0.0
C1595 C 0.50623 0.01949 0.06068 0.0
C1596 C 0.5165 0.98719 0.05114 0.0
C1597 C 0.49537 0.05085 0.05071 0.0
C1598 C 0.53587 0.02974 0.07138 0.0
C1599 C 0.52488 0.02674 0.08614 0.0
C1600 C 0.54743 0.03504 0.09804 0.0
C1601 C 0.58197 0.04678 0.09481 0.0
C1602 C 0.59405 0.05008 0.07977 0.0
C1603 C 0.57044 0.04121 0.06794 0.0
H1604 H 0.48264 0.4422 0.83933 0.0
H1605 H 0.46869 0.42717 0.79136 0.0
H1606 H 0.48813 0.48836 0.7868 0.0
H1607 H 0.45371 0.53465 0.84046 0.0
H1608 H 0.48628 0.54803 0.85413 0.0
H1609 H 0.47013 0.50315 0.85396 0.0
H1610 H 0.53437 0.48022 0.85156 0.0
H1611 H 0.55069 0.52502 0.85166 0.0
H1612 H 0.56186 0.49584 0.83637 0.0
H1613 H 0.50955 0.55011 0.78695 0.0
H1614 H 0.53212 0.60998 0.79177 0.0
H1615 H 0.53429 0.588 0.83966 0.0
C1616 C 0.48343 0.45201 0.8279 0.0
C1617 C 0.47421 0.42965 0.81567 0.0
C1618 C 0.47591 0.44348 0.80089 0.0
C1619 C 0.48684 0.47833 0.79817 0.0
C1620 C 0.49627 0.49945 0.81035 0.0
C1621 C 0.49479 0.48702 0.82494 0.0
C1622 C 0.50737 0.5156 0.83583 0.0
C1623 C 0.4776 0.52597 0.84674 0.0
C1624 C 0.54055 0.50343 0.84436 0.0
C1625 C 0.51605 0.54581 0.82505 0.0
C1626 C 0.5092 0.53566 0.81042 0.0
C1627 C 0.51481 0.55845 0.79837 0.0
C1628 C 0.52749 0.59262 0.80126 0.0
C1629 C 0.53464 0.60422 0.81611 0.0
C1630 C 0.52913 0.58013 0.82817 0.0
H1631 H 0.58889 0.48238 0.17651 0.0
H1632 H 0.60036 0.46813 0.22466 0.0
H1633 H 0.53978 0.48975 0.22855 0.0
H1634 H 0.53565 0.56367 0.17898 0.0
H1635 H 0.50772 0.55238 0.16328 0.0
H1636 H 0.55257 0.53634 0.16402 0.0
H1637 H 0.52955 0.47221 0.16117 0.0
H1638 H 0.48461 0.48804 0.16059 0.0
H1639 H 0.49733 0.45543 0.17433 0.0
H1640 H 0.47819 0.51101 0.22772 0.0
H1641 H 0.4192 0.5356 0.22224 0.0
H1642 H 0.44435 0.5378 0.1747 0.0
C1643 C 0.57869 0.48425 0.18786 0.0
C1644 C 0.59948 0.47307 0.20028 0.0
C1645 C 0.58498 0.47589 0.21494 0.0
C1646 C 0.5505 0.48822 0.21729 0.0
C1647 C 0.53039 0.498 0.20489 0.0
C1648 C 0.54384 0.49662 0.19045 0.0
C1649 C 0.51596 0.50911 0.17923 0.0
C1650 C 0.52874 0.54235 0.17088 0.0
C1651 C 0.5063 0.47942 0.16817 0.0
C1652 C 0.48497 0.51754 0.18966 0.0
C1653 C 0.49415 0.51069 0.20441 0.0
C1654 C 0.47067 0.51647 0.21623 0.0
C1655 C 0.43714 0.53028 0.213 0.0
C1656 C 0.42701 0.53821 0.19808 0.0
C1657 C 0.45118 0.53141 0.1862 0.0
H1658 H 0.48655 0.08331 0.4651 0.0
H1659 H 0.47301 0.10126 0.41728 0.0
H1660 H 0.49569 0.04135 0.41209 0.0
H1661 H 0.56786 0.03313 0.46236 0.0
H1662 H 0.55632 1.00309 0.47731 0.0
H1663 H 0.53909 0.04747 0.47733 0.0
H1664 H 0.47525 0.0227 0.47887 0.0
H1665 H 0.49228 0.97824 0.47881 0.0
H1666 H 0.46029 0.99153 0.46491 0.0
H1667 H 0.52063 0.97939 0.41195 0.0
H1668 H 0.54461 0.91989 0.41692 0.0
H1669 H 0.54212 0.94118 0.46483 0.0
C1670 C 0.48858 0.07477 0.45352 0.0
C1671 C 0.4778 0.09729 0.4416 0.0
C1672 C 0.48056 0.08462 0.42664 0.0
C1673 C 0.49364 0.05059 0.42356 0.0
C1674 C 0.50385 0.02913 0.43554 0.0
C1675 C 0.50141 0.04066 0.45023 0.0
C1676 C 0.51384 0.01208 0.46104 0.0
C1677 C 0.5462 0.0247 0.47004 0.0
C1678 C 0.48361 1.00045 0.47153 0.0
C1679 C 0.52374 0.98274 0.45013 0.0
C1680 C 0.51788 0.99324 0.43547 0.0
C1681 C 0.52535 0.97095 0.4234 0.0
C1682 C 0.53919 0.93717 0.42634 0.0
C1683 C 0.54547 0.92557 0.44126 0.0
C1684 C 0.53738 0.94889 0.45329 0.0
H1685 H 0.94188 0.4899 0.59231 0.0
H1686 H 0.92148 0.48057 0.54448 0.0
H1687 H 0.98258 0.49903 0.53904 0.0
H1688 H 0.99628 0.56782 0.58969 0.0
H1689 H 0.02699 0.55491 0.60417 0.0
H1690 H 0.98204 0.53897 0.60466 0.0
H1691 H 1.00475 0.4745 0.60543 0.0
H1692 H 0.0498 0.49026 0.60491 0.0
H1693 H 0.03451 0.45919 0.59099 0.0
H1694 H 0.04428 0.52054 0.53827 0.0
H1695 H 0.10378 0.54547 0.54223 0.0
H1696 H 0.08759 0.5421 0.59048 0.0
C1697 C 0.95048 0.49145 0.58072 0.0
C1698 C 0.92653 0.484 0.56881 0.0
C1699 C 0.93891 0.48661 0.5538 0.0
C1700 C 0.97375 0.49687 0.55058 0.0
C1701 C 0.99644 0.50455 0.56246 0.0
C1702 C 0.98552 0.50206 0.57725 0.0
C1703 C 0.01545 0.51335 0.58775 0.0
C1704 C 1.00453 0.54569 0.59712 0.0
C1705 C 0.0268 0.48248 0.59787 0.0
C1706 C 0.04454 0.52283 0.57651 0.0
C1707 C 0.03277 0.51723 0.562 0.0
C1708 C 0.05386 0.52488 0.54958 0.0
C1709 C 0.08766 0.53912 0.55194 0.0
C1710 C 0.10052 0.54577 0.56663 0.0
C1711 C 0.07873 0.53695 0.57912 0.0
loop_
_geom_bond_atom_site_label_1
_geom_bond_atom_site_label_2
_geom_bond_distance
_geom_bond_site_symmetry_2
_ccdc_geom_bond_type
C0 C1 1.443 . S
C0 N4 1.376 . S
C0 C38 1.389 . S
C1 C0 1.443 . S
C1 C2 1.340 . S
C1 H41 0.951 . S
C2 C1 1.340 . S
C2 C3 1.439 . S
C2 H42 0.950 . S
C3 C2 1.439 . S
C3 N4 1.374 . S
C3 C37 1.395 . S
N4 C0 1.376 . S
N4 C3 1.374 . S
N4 Co5 2.008 . S
Co5 N4 2.008 . S
Co5 N6 1.995 . S
Co5 N11 2.008 . S
Co5 N16 1.995 . S
Co5 N21 2.282 . S
Co5 N27 2.282 . S
N6 Co5 1.995 . S
N6 C7 1.376 . S
N6 C10 1.383 . S
C7 N6 1.376 . S
C7 C8 1.446 . S
C7 C37 1.391 . S
C8 C7 1.446 . S
C8 C9 1.339 . S
C8 H43 0.949 . S
C9 C8 1.339 . S
C9 C10 1.439 . S
C9 H44 0.950 . S
C10 N6 1.383 . S
C10 C9 1.439 . S
C10 C39 1.392 . S
N11 Co5 2.008 . S
N11 C12 1.376 . S
N11 C15 1.374 . S
C12 N11 1.376 . S
C12 C13 1.443 1_455 S
C12 C39 1.389 . S
C13 C12 1.443 1_655 S
C13 C14 1.340 . S
C13 H45 0.951 . S
C14 C13 1.340 . S
C14 C15 1.439 1_655 S
C14 H46 0.950 . S
C15 N11 1.374 . S
C15 C14 1.439 1_455 S
C15 C40 1.395 . S
N16 Co5 1.995 . S
N16 C17 1.376 . S
N16 C20 1.383 . S
C17 N16 1.376 . S
C17 C18 1.446 . S
C17 C40 1.391 . S
C18 C17 1.446 . S
C18 C19 1.339 . S
C18 H47 0.949 . S
C19 C18 1.339 . S
C19 C20 1.439 . S
C19 H48 0.950 . S
C20 N16 1.383 . S
C20 C19 1.439 . S
C20 C38 1.392 . S
N21 Co5 2.282 . S
N21 C24 1.332 . S
N21 C26 1.332 . S
C22 C23 1.386 . S
C22 C25 1.388 . S
C23 C22 1.386 . S
C23 C24 1.382 . S
C23 H49 0.950 . S
C24 N21 1.332 . S
C24 C23 1.382 . S
C24 H35 0.952 . S
C25 C22 1.388 . S
C25 C26 1.382 . S
C25 H50 0.950 . S
C26 N21 1.332 . S
C26 C25 1.382 . S
C26 H36 0.948 . S
N27 Co5 2.282 . S
N27 C31 1.332 . S
N27 C32 1.332 . S
C28 C29 1.388 . S
C28 C32 1.382 . S
C28 H51 0.950 . S
C29 C28 1.388 . S
C29 C30 1.386 . S
C30 C29 1.386 . S
C30 C31 1.382 . S
C30 H52 0.950 . S
C31 N27 1.332 . S
C31 C30 1.382 . S
C31 H33 0.952 . S
C32 N27 1.332 . S
C32 C28 1.382 . S
C32 H34 0.948 . S
H33 C31 0.952 . S
H34 C32 0.948 . S
H35 C24 0.952 . S
H36 C26 0.948 . S
C37 C3 1.395 . S
C37 C7 1.391 . S
C38 C0 1.389 . S
C38 C20 1.392 . S
C39 C10 1.392 . S
C39 C12 1.389 . S
C40 C15 1.395 . S
C40 C17 1.391 . S
H41 C1 0.951 . S
H42 C2 0.950 . S
H43 C8 0.949 . S
H44 C9 0.950 . S
H45 C13 0.951 . S
H46 C14 0.950 . S
H47 C18 0.949 . S
H48 C19 0.950 . S
H49 C23 0.950 . S
H50 C25 0.950 . S
H51 C28 0.950 . S
H52 C30 0.950 . S
C53 C54 1.443 1_565 S
C53 N57 1.376 . S
C53 C91 1.389 . S
C54 C53 1.443 1_545 S
C54 C55 1.340 . S
C54 H94 0.951 . S
C55 C54 1.340 . S
C55 C56 1.439 1_545 S
C55 H95 0.950 . S
C56 C55 1.439 1_565 S
C56 N57 1.374 . S
C56 C90 1.395 . S
N57 C53 1.376 . S
N57 C56 1.374 . S
N57 Co58 2.008 . S
Co58 N57 2.008 . S
Co58 N59 1.995 . S
Co58 N64 2.008 . S
Co58 N69 1.995 . S
Co58 N74 2.282 . S
Co58 N80 2.282 . S
N59 Co58 1.995 . S
N59 C60 1.376 . S
N59 C63 1.383 . S
C60 N59 1.376 . S
C60 C61 1.446 . S
C60 C90 1.391 . S
C61 C60 1.446 . S
C61 C62 1.339 . S
C61 H96 0.949 . S
C62 C61 1.339 . S
C62 C63 1.439 . S
C62 H97 0.950 . S
C63 N59 1.383 . S
C63 C62 1.439 . S
C63 C92 1.392 . S
N64 Co58 2.008 . S
N64 C65 1.376 . S
N64 C68 1.374 . S
C65 N64 1.376 . S
C65 C66 1.443 . S
C65 C92 1.389 . S
C66 C65 1.443 . S
C66 C67 1.340 . S
C66 H98 0.951 . S
C67 C66 1.340 . S
C67 C68 1.439 . S
C67 H99 0.950 . S
C68 N64 1.374 . S
C68 C67 1.439 . S
C68 C93 1.395 . S
N69 Co58 1.995 . S
N69 C70 1.376 . S
N69 C73 1.383 . S
C70 N69 1.376 . S
C70 C71 1.446 . S
C70 C93 1.391 . S
C71 C70 1.446 . S
C71 C72 1.339 . S
C71 H100 0.949 . S
C72 C71 1.339 . S
C72 C73 1.439 . S
C72 H101 0.950 . S
C73 N69 1.383 . S
C73 C72 1.439 . S
C73 C91 1.392 . S
N74 Co58 2.282 . S
N74 C77 1.332 . S
N74 C79 1.332 . S
C75 C76 1.386 . S
C75 C78 1.388 . S
C76 C75 1.386 . S
C76 C77 1.382 . S
C76 H102 0.950 . S
C77 N74 1.332 . S
C77 C76 1.382 . S
C77 H88 0.952 . S
C78 C75 1.388 . S
C78 C79 1.382 . S
C78 H103 0.950 . S
C79 N74 1.332 . S
C79 C78 1.382 . S
C79 H89 0.948 . S
N80 Co58 2.282 . S
N80 C84 1.332 . S
N80 C85 1.332 . S
C81 C82 1.388 . S
C81 C85 1.382 . S
C81 H104 0.950 . S
C82 C81 1.388 . S
C82 C83 1.386 . S
C83 C82 1.386 . S
C83 C84 1.382 . S
C83 H105 0.950 . S
C84 N80 1.332 . S
C84 C83 1.382 . S
C84 H86 0.952 . S
C85 N80 1.332 . S
C85 C81 1.382 . S
C85 H87 0.948 . S
H86 C84 0.952 . S
H87 C85 0.948 . S
H88 C77 0.952 . S
H89 C79 0.948 . S
C90 C56 1.395 . S
C90 C60 1.391 . S
C91 C53 1.389 . S
C91 C73 1.392 . S
C92 C63 1.392 . S
C92 C65 1.389 . S
C93 C68 1.395 . S
C93 C70 1.391 . S
H94 C54 0.951 . S
H95 C55 0.950 . S
H96 C61 0.949 . S
H97 C62 0.950 . S
H98 C66 0.951 . S
H99 C67 0.950 . S
H100 C71 0.949 . S
H101 C72 0.950 . S
H102 C76 0.950 . S
H103 C78 0.950 . S
H104 C81 0.950 . S
H105 C83 0.950 . S
C106 C107 1.443 . S
C106 N110 1.376 . S
C106 C144 1.389 . S
C107 C106 1.443 . S
C107 C108 1.340 . S
C107 H147 0.951 . S
C108 C107 1.340 . S
C108 C109 1.439 . S
C108 H148 0.950 . S
C109 C108 1.439 . S
C109 N110 1.374 . S
C109 C143 1.395 . S
N110 C106 1.376 . S
N110 C109 1.374 . S
N110 Co111 2.008 . S
Co111 N110 2.008 . S
Co111 N112 1.995 . S
Co111 N117 2.008 . S
Co111 N122 1.995 . S
Co111 N127 2.282 . S
Co111 N133 2.282 . S
N112 Co111 1.995 . S
N112 C113 1.376 . S
N112 C116 1.383 . S
C113 N112 1.376 . S
C113 C114 1.446 . S
C113 C143 1.391 . S
C114 C113 1.446 . S
C114 C115 1.339 . S
C114 H149 0.949 . S
C115 C114 1.339 . S
C115 C116 1.439 . S
C115 H150 0.950 . S
C116 N112 1.383 . S
C116 C115 1.439 . S
C116 C145 1.392 . S
N117 Co111 2.008 . S
N117 C118 1.376 . S
N117 C121 1.374 . S
C118 N117 1.376 . S
C118 C119 1.443 1_655 S
C118 C145 1.389 . S
C119 C118 1.443 1_455 S
C119 C120 1.340 . S
C119 H151 0.951 . S
C120 C119 1.340 . S
C120 C121 1.439 1_455 S
C120 H152 0.950 . S
C121 N117 1.374 . S
C121 C120 1.439 1_655 S
C121 C146 1.395 . S
N122 Co111 1.995 . S
N122 C123 1.376 . S
N122 C126 1.383 . S
C123 N122 1.376 . S
C123 C124 1.446 . S
C123 C146 1.391 . S
C124 C123 1.446 . S
C124 C125 1.339 . S
C124 H153 0.949 . S
C125 C124 1.339 . S
C125 C126 1.439 . S
C125 H154 0.950 . S
C126 N122 1.383 . S
C126 C125 1.439 . S
C126 C144 1.392 . S
N127 Co111 2.282 . S
N127 C130 1.332 . S
N127 C132 1.332 . S
C128 C129 1.386 . S
C128 C131 1.388 . S
C129 C128 1.386 . S
C129 C130 1.382 . S
C129 H155 0.950 . S
C130 N127 1.332 . S
C130 C129 1.382 . S
C130 H141 0.952 . S
C131 C128 1.388 . S
C131 C132 1.382 . S
C131 H156 0.950 . S
C132 N127 1.332 . S
C132 C131 1.382 . S
C132 H142 0.948 . S
N133 Co111 2.282 . S
N133 C137 1.332 . S
N133 C138 1.332 . S
C134 C135 1.388 . S
C134 C138 1.382 . S
C134 H157 0.950 . S
C135 C134 1.388 . S
C135 C136 1.386 . S
C136 C135 1.386 . S
C136 C137 1.382 . S
C136 H158 0.950 . S
C137 N133 1.332 . S
C137 C136 1.382 . S
C137 H139 0.952 . S
C138 N133 1.332 . S
C138 C134 1.382 . S
C138 H140 0.948 . S
H139 C137 0.952 . S
H140 C138 0.948 . S
H141 C130 0.952 . S
H142 C132 0.948 . S
C143 C109 1.395 . S
C143 C113 1.391 . S
C144 C106 1.389 . S
C144 C126 1.392 . S
C145 C116 1.392 . S
C145 C118 1.389 . S
C146 C121 1.395 . S
C146 C123 1.391 . S
H147 C107 0.951 . S
H148 C108 0.950 . S
H149 C114 0.949 . S
H150 C115 0.950 . S
H151 C119 0.951 . S
H152 C120 0.950 . S
H153 C124 0.949 . S
H154 C125 0.950 . S
H155 C129 0.950 . S
H156 C131 0.950 . S
H157 C134 0.950 . S
H158 C136 0.950 . S
C159 C160 1.443 1_545 S
C159 N163 1.376 . S
C159 C197 1.389 . S
C160 C159 1.443 1_565 S
C160 C161 1.340 . S
C160 H200 0.951 . S
C161 C160 1.340 . S
C161 C162 1.439 1_565 S
C161 H201 0.950 . S
C162 C161 1.439 1_545 S
C162 N163 1.374 . S
C162 C196 1.395 . S
N163 C159 1.376 . S
N163 C162 1.374 . S
N163 Co164 2.008 . S
Co164 N163 2.008 . S
Co164 N165 1.995 . S
Co164 N170 2.008 . S
Co164 N175 1.995 . S
Co164 N180 2.282 . S
Co164 N186 2.282 . S
N165 Co164 1.995 . S
N165 C166 1.376 . S
N165 C169 1.383 . S
C166 N165 1.376 . S
C166 C167 1.446 . S
C166 C196 1.391 . S
C167 C166 1.446 . S
C167 C168 1.339 . S
C167 H202 0.949 . S
C168 C167 1.339 . S
C168 C169 1.439 . S
C168 H203 0.950 . S
C169 N165 1.383 . S
C169 C168 1.439 . S
C169 C198 1.392 . S
N170 Co164 2.008 . S
N170 C171 1.376 . S
N170 C174 1.374 . S
C171 N170 1.376 . S
C171 C172 1.443 . S
C171 C198 1.389 . S
C172 C171 1.443 . S
C172 C173 1.340 . S
C172 H204 0.951 . S
C173 C172 1.340 . S
C173 C174 1.439 . S
C173 H205 0.950 . S
C174 N170 1.374 . S
C174 C173 1.439 . S
C174 C199 1.395 . S
N175 Co164 1.995 . S
N175 C176 1.376 . S
N175 C179 1.383 . S
C176 N175 1.376 . S
C176 C177 1.446 . S
C176 C199 1.391 . S
C177 C176 1.446 . S
C177 C178 1.339 . S
C177 H206 0.949 . S
C178 C177 1.339 . S
C178 C179 1.439 . S
C178 H207 0.950 . S
C179 N175 1.383 . S
C179 C178 1.439 . S
C179 C197 1.392 . S
N180 Co164 2.282 . S
N180 C183 1.332 . S
N180 C185 1.332 . S
C181 C182 1.386 . S
C181 C184 1.388 . S
C182 C181 1.386 . S
C182 C183 1.382 . S
C182 H208 0.950 . S
C183 N180 1.332 . S
C183 C182 1.382 . S
C183 H194 0.952 . S
C184 C181 1.388 . S
C184 C185 1.382 . S
C184 H209 0.950 . S
C185 N180 1.332 . S
C185 C184 1.382 . S
C185 H195 0.948 . S
N186 Co164 2.282 . S
N186 C190 1.332 . S
N186 C191 1.332 . S
C187 C188 1.388 . S
C187 C191 1.382 . S
C187 H210 0.950 . S
C188 C187 1.388 . S
C188 C189 1.386 . S
C189 C188 1.386 . S
C189 C190 1.382 . S
C189 H211 0.950 . S
C190 N186 1.332 . S
C190 C189 1.382 . S
C190 H192 0.952 . S
C191 N186 1.332 . S
C191 C187 1.382 . S
C191 H193 0.948 . S
H192 C190 0.952 . S
H193 C191 0.948 . S
H194 C183 0.952 . S
H195 C185 0.948 . S
C196 C162 1.395 . S
C196 C166 1.391 . S
C197 C159 1.389 . S
C197 C179 1.392 . S
C198 C169 1.392 . S
C198 C171 1.389 . S
C199 C174 1.395 . S
C199 C176 1.391 . S
H200 C160 0.951 . S
H201 C161 0.950 . S
H202 C167 0.949 . S
H203 C168 0.950 . S
H204 C172 0.951 . S
H205 C173 0.950 . S
H206 C177 0.949 . S
H207 C178 0.950 . S
H208 C182 0.950 . S
H209 C184 0.950 . S
H210 C187 0.950 . S
H211 C189 0.950 . S
C212 C213 1.443 . S
C212 N216 1.376 . S
C212 C250 1.389 . S
C213 C212 1.443 . S
C213 C214 1.340 . S
C213 H253 0.951 . S
C214 C213 1.340 . S
C214 C215 1.439 . S
C214 H254 0.950 . S
C215 C214 1.439 . S
C215 N216 1.374 . S
C215 C249 1.395 . S
N216 C212 1.376 . S
N216 C215 1.374 . S
N216 Co217 2.008 . S
Co217 N216 2.008 . S
Co217 N218 1.995 . S
Co217 N223 2.008 . S
Co217 N228 1.995 . S
Co217 N233 2.282 . S
Co217 N239 2.282 . S
N218 Co217 1.995 . S
N218 C219 1.376 . S
N218 C222 1.383 . S
C219 N218 1.376 . S
C219 C220 1.446 . S
C219 C249 1.391 . S
C220 C219 1.446 . S
C220 C221 1.339 . S
C220 H255 0.949 . S
C221 C220 1.339 . S
C221 C222 1.439 . S
C221 H256 0.950 . S
C222 N218 1.383 . S
C222 C221 1.439 . S
C222 C251 1.392 . S
N223 Co217 2.008 . S
N223 C224 1.376 . S
N223 C227 1.374 . S
C224 N223 1.376 . S
C224 C225 1.443 1_455 S
C224 C251 1.389 . S
C225 C224 1.443 1_655 S
C225 C226 1.340 . S
C225 H257 0.951 . S
C226 C225 1.340 . S
C226 C227 1.439 1_655 S
C226 H258 0.950 . S
C227 N223 1.374 . S
C227 C226 1.439 1_455 S
C227 C252 1.395 . S
N228 Co217 1.995 . S
N228 C229 1.376 . S
N228 C232 1.383 . S
C229 N228 1.376 . S
C229 C230 1.446 . S
C229 C252 1.391 . S
C230 C229 1.446 . S
C230 C231 1.339 . S
C230 H259 0.949 . S
C231 C230 1.339 . S
C231 C232 1.439 . S
C231 H260 0.950 . S
C232 N228 1.383 . S
C232 C231 1.439 . S
C232 C250 1.392 . S
N233 Co217 2.282 . S
N233 C236 1.332 . S
N233 C238 1.332 . S
C234 C235 1.386 . S
C234 C237 1.388 . S
C235 C234 1.386 . S
C235 C236 1.382 . S
C235 H261 0.950 . S
C236 N233 1.332 . S
C236 C235 1.382 . S
C236 H247 0.952 . S
C237 C234 1.388 . S
C237 C238 1.382 . S
C237 H262 0.950 . S
C238 N233 1.332 . S
C238 C237 1.382 . S
C238 H248 0.948 . S
N239 Co217 2.282 . S
N239 C243 1.332 . S
N239 C244 1.332 . S
C240 C241 1.388 . S
C240 C244 1.382 . S
C240 H263 0.950 . S
C241 C240 1.388 . S
C241 C242 1.386 . S
C242 C241 1.386 . S
C242 C243 1.382 . S
C242 H264 0.950 . S
C243 N239 1.332 . S
C243 C242 1.382 . S
C243 H245 0.952 . S
C244 N239 1.332 . S
C244 C240 1.382 . S
C244 H246 0.948 . S
H245 C243 0.952 . S
H246 C244 0.948 . S
H247 C236 0.952 . S
H248 C238 0.948 . S
C249 C215 1.395 . S
C249 C219 1.391 . S
C250 C212 1.389 . S
C250 C232 1.392 . S
C251 C222 1.392 . S
C251 C224 1.389 . S
C252 C227 1.395 . S
C252 C229 1.391 . S
H253 C213 0.951 . S
H254 C214 0.950 . S
H255 C220 0.949 . S
H256 C221 0.950 . S
H257 C225 0.951 . S
H258 C226 0.950 . S
H259 C230 0.949 . S
H260 C231 0.950 . S
H261 C235 0.950 . S
H262 C237 0.950 . S
H263 C240 0.950 . S
H264 C242 0.950 . S
C265 C266 1.443 1_565 S
C265 N269 1.376 . S
C265 C303 1.389 . S
C266 C265 1.443 1_545 S
C266 C267 1.340 . S
C266 H306 0.951 . S
C267 C266 1.340 . S
C267 C268 1.439 1_545 S
C267 H307 0.950 . S
C268 C267 1.439 1_565 S
C268 N269 1.374 . S
C268 C302 1.395 . S
N269 C265 1.376 . S
N269 C268 1.374 . S
N269 Co270 2.008 . S
Co270 N269 2.008 . S
Co270 N271 1.995 . S
Co270 N276 2.008 . S
Co270 N281 1.995 . S
Co270 N286 2.282 . S
Co270 N292 2.282 . S
N271 Co270 1.995 . S
N271 C272 1.376 . S
N271 C275 1.383 . S
C272 N271 1.376 . S
C272 C273 1.446 . S
C272 C302 1.391 . S
C273 C272 1.446 . S
C273 C274 1.339 . S
C273 H308 0.949 . S
C274 C273 1.339 . S
C274 C275 1.439 . S
C274 H309 0.950 . S
C275 N271 1.383 . S
C275 C274 1.439 . S
C275 C304 1.392 . S
N276 Co270 2.008 . S
N276 C277 1.376 . S
N276 C280 1.374 . S
C277 N276 1.376 . S
C277 C278 1.443 . S
C277 C304 1.389 . S
C278 C277 1.443 . S
C278 C279 1.340 . S
C278 H310 0.951 . S
C279 C278 1.340 . S
C279 C280 1.439 . S
C279 H311 0.950 . S
C280 N276 1.374 . S
C280 C279 1.439 . S
C280 C305 1.395 . S
N281 Co270 1.995 . S
N281 C282 1.376 . S
N281 C285 1.383 . S
C282 N281 1.376 . S
C282 C283 1.446 . S
C282 C305 1.391 . S
C283 C282 1.446 . S
C283 C284 1.339 . S
C283 H312 0.949 . S
C284 C283 1.339 . S
C284 C285 1.439 . S
C284 H313 0.950 . S
C285 N281 1.383 . S
C285 C284 1.439 . S
C285 C303 1.392 . S
N286 Co270 2.282 . S
N286 C289 1.332 . S
N286 C291 1.332 . S
C287 C288 1.386 . S
C287 C290 1.388 . S
C288 C287 1.386 . S
C288 C289 1.382 . S
C288 H314 0.950 . S
C289 N286 1.332 . S
C289 C288 1.382 . S
C289 H300 0.952 . S
C290 C287 1.388 . S
C290 C291 1.382 . S
C290 H315 0.950 . S
C291 N286 1.332 . S
C291 C290 1.382 . S
C291 H301 0.948 . S
N292 Co270 2.282 . S
N292 C296 1.332 . S
N292 C297 1.332 . S
C293 C294 1.388 . S
C293 C297 1.382 . S
C293 H316 0.950 . S
C294 C293 1.388 . S
C294 C295 1.386 . S
C295 C294 1.386 . S
C295 C296 1.382 . S
C295 H317 0.950 . S
C296 N292 1.332 . S
C296 C295 1.382 . S
C296 H298 0.952 . S
C297 N292 1.332 . S
C297 C293 1.382 . S
C297 H299 0.948 . S
H298 C296 0.952 . S
H299 C297 0.948 . S
H300 C289 0.952 . S
H301 C291 0.948 . S
C302 C268 1.395 . S
C302 C272 1.391 . S
C303 C265 1.389 . S
C303 C285 1.392 . S
C304 C275 1.392 . S
C304 C277 1.389 . S
C305 C280 1.395 . S
C305 C282 1.391 . S
H306 C266 0.951 . S
H307 C267 0.950 . S
H308 C273 0.949 . S
H309 C274 0.950 . S
H310 C278 0.951 . S
H311 C279 0.950 . S
H312 C283 0.949 . S
H313 C284 0.950 . S
H314 C288 0.950 . S
H315 C290 0.950 . S
H316 C293 0.950 . S
H317 C295 0.950 . S
C318 C319 1.443 . S
C318 N322 1.376 . S
C318 C356 1.389 . S
C319 C318 1.443 . S
C319 C320 1.340 . S
C319 H359 0.951 . S
C320 C319 1.340 . S
C320 C321 1.439 . S
C320 H360 0.950 . S
C321 C320 1.439 . S
C321 N322 1.374 . S
C321 C355 1.395 . S
N322 C318 1.376 . S
N322 C321 1.374 . S
N322 Co323 2.008 . S
Co323 N322 2.008 . S
Co323 N324 1.995 . S
Co323 N329 2.008 . S
Co323 N334 1.995 . S
Co323 N339 2.282 . S
Co323 N345 2.282 . S
N324 Co323 1.995 . S
N324 C325 1.376 . S
N324 C328 1.383 . S
C325 N324 1.376 . S
C325 C326 1.446 . S
C325 C355 1.391 . S
C326 C325 1.446 . S
C326 C327 1.339 . S
C326 H361 0.949 . S
C327 C326 1.339 . S
C327 C328 1.439 . S
C327 H362 0.950 . S
C328 N324 1.383 . S
C328 C327 1.439 . S
C328 C357 1.392 . S
N329 Co323 2.008 . S
N329 C330 1.376 . S
N329 C333 1.374 . S
C330 N329 1.376 . S
C330 C331 1.443 1_655 S
C330 C357 1.389 . S
C331 C330 1.443 1_455 S
C331 C332 1.340 . S
C331 H363 0.951 . S
C332 C331 1.340 . S
C332 C333 1.439 1_455 S
C332 H364 0.950 . S
C333 N329 1.374 . S
C333 C332 1.439 1_655 S
C333 C358 1.395 . S
N334 Co323 1.995 . S
N334 C335 1.376 . S
N334 C338 1.383 . S
C335 N334 1.376 . S
C335 C336 1.446 . S
C335 C358 1.391 . S
C336 C335 1.446 . S
C336 C337 1.339 . S
C336 H365 0.949 . S
C337 C336 1.339 . S
C337 C338 1.439 . S
C337 H366 0.950 . S
C338 N334 1.383 . S
C338 C337 1.439 . S
C338 C356 1.392 . S
N339 Co323 2.282 . S
N339 C342 1.332 . S
N339 C344 1.332 . S
C340 C341 1.386 . S
C340 C343 1.388 . S
C341 C340 1.386 . S
C341 C342 1.382 . S
C341 H367 0.950 . S
C342 N339 1.332 . S
C342 C341 1.382 . S
C342 H353 0.952 . S
C343 C340 1.388 . S
C343 C344 1.382 . S
C343 H368 0.950 . S
C344 N339 1.332 . S
C344 C343 1.382 . S
C344 H354 0.948 . S
N345 Co323 2.282 . S
N345 C349 1.332 . S
N345 C350 1.332 . S
C346 C347 1.388 . S
C346 C350 1.382 . S
C346 H369 0.950 . S
C347 C346 1.388 . S
C347 C348 1.386 . S
C348 C347 1.386 . S
C348 C349 1.382 . S
C348 H370 0.950 . S
C349 N345 1.332 . S
C349 C348 1.382 . S
C349 H351 0.952 . S
C350 N345 1.332 . S
C350 C346 1.382 . S
C350 H352 0.948 . S
H351 C349 0.952 . S
H352 C350 0.948 . S
H353 C342 0.952 . S
H354 C344 0.948 . S
C355 C321 1.395 . S
C355 C325 1.391 . S
C356 C318 1.389 . S
C356 C338 1.392 . S
C357 C328 1.392 . S
C357 C330 1.389 . S
C358 C333 1.395 . S
C358 C335 1.391 . S
H359 C319 0.951 . S
H360 C320 0.950 . S
H361 C326 0.949 . S
H362 C327 0.950 . S
H363 C331 0.951 . S
H364 C332 0.950 . S
H365 C336 0.949 . S
H366 C337 0.950 . S
H367 C341 0.950 . S
H368 C343 0.950 . S
H369 C346 0.950 . S
H370 C348 0.950 . S
C371 C372 1.443 1_545 S
C371 N375 1.376 . S
C371 C409 1.389 . S
C372 C371 1.443 1_565 S
C372 C373 1.340 . S
C372 H412 0.951 . S
C373 C372 1.340 . S
C373 C374 1.439 1_565 S
C373 H413 0.950 . S
C374 C373 1.439 1_545 S
C374 N375 1.374 . S
C374 C408 1.395 . S
N375 C371 1.376 . S
N375 C374 1.374 . S
N375 Co376 2.008 . S
Co376 N375 2.008 . S
Co376 N377 1.995 . S
Co376 N382 2.008 . S
Co376 N387 1.995 . S
Co376 N392 2.282 . S
Co376 N398 2.282 . S
N377 Co376 1.995 . S
N377 C378 1.376 . S
N377 C381 1.383 . S
C378 N377 1.376 . S
C378 C379 1.446 . S
C378 C408 1.391 . S
C379 C378 1.446 . S
C379 C380 1.339 . S
C379 H414 0.949 . S
C380 C379 1.339 . S
C380 C381 1.439 . S
C380 H415 0.950 . S
C381 N377 1.383 . S
C381 C380 1.439 . S
C381 C410 1.392 . S
N382 Co376 2.008 . S
N382 C383 1.376 . S
N382 C386 1.374 . S
C383 N382 1.376 . S
C383 C384 1.443 . S
C383 C410 1.389 . S
C384 C383 1.443 . S
C384 C385 1.340 . S
C384 H416 0.951 . S
C385 C384 1.340 . S
C385 C386 1.439 . S
C385 H417 0.950 . S
C386 N382 1.374 . S
C386 C385 1.439 . S
C386 C411 1.395 . S
N387 Co376 1.995 . S
N387 C388 1.376 . S
N387 C391 1.383 . S
C388 N387 1.376 . S
C388 C389 1.446 . S
C388 C411 1.391 . S
C389 C388 1.446 . S
C389 C390 1.339 . S
C389 H418 0.949 . S
C390 C389 1.339 . S
C390 C391 1.439 . S
C390 H419 0.950 . S
C391 N387 1.383 . S
C391 C390 1.439 . S
C391 C409 1.392 . S
N392 Co376 2.282 . S
N392 C395 1.332 . S
N392 C397 1.332 . S
C393 C394 1.386 . S
C393 C396 1.388 . S
C394 C393 1.386 . S
C394 C395 1.382 . S
C394 H420 0.950 . S
C395 N392 1.332 . S
C395 C394 1.382 . S
C395 H406 0.952 . S
C396 C393 1.388 . S
C396 C397 1.382 . S
C396 H421 0.950 . S
C397 N392 1.332 . S
C397 C396 1.382 . S
C397 H407 0.948 . S
N398 Co376 2.282 . S
N398 C402 1.332 . S
N398 C403 1.332 . S
C399 C400 1.388 . S
C399 C403 1.382 . S
C399 H422 0.950 . S
C400 C399 1.388 . S
C400 C401 1.386 . S
C401 C400 1.386 . S
C401 C402 1.382 . S
C401 H423 0.950 . S
C402 N398 1.332 . S
C402 C401 1.382 . S
C402 H404 0.952 . S
C403 N398 1.332 . S
C403 C399 1.382 . S
C403 H405 0.948 . S
H404 C402 0.952 . S
H405 C403 0.948 . S
H406 C395 0.952 . S
H407 C397 0.948 . S
C408 C374 1.395 . S
C408 C378 1.391 . S
C409 C371 1.389 . S
C409 C391 1.392 . S
C410 C381 1.392 . S
C410 C383 1.389 . S
C411 C386 1.395 . S
C411 C388 1.391 . S
H412 C372 0.951 . S
H413 C373 0.950 . S
H414 C379 0.949 . S
H415 C380 0.950 . S
H416 C384 0.951 . S
H417 C385 0.950 . S
H418 C389 0.949 . S
H419 C390 0.950 . S
H420 C394 0.950 . S
H421 C396 0.950 . S
H422 C399 0.950 . S
H423 C401 0.950 . S
C424 C425 1.443 . S
C424 N428 1.376 . S
C424 C462 1.389 . S
C425 C424 1.443 . S
C425 C426 1.340 . S
C425 H465 0.951 . S
C426 C425 1.340 . S
C426 C427 1.439 . S
C426 H466 0.950 . S
C427 C426 1.439 . S
C427 N428 1.374 . S
C427 C461 1.395 . S
N428 C424 1.376 . S
N428 C427 1.374 . S
N428 Co429 2.008 . S
Co429 N428 2.008 . S
Co429 N430 1.995 . S
Co429 N435 2.008 . S
Co429 N440 1.995 . S
Co429 N445 2.282 . S
Co429 N451 2.282 . S
N430 Co429 1.995 . S
N430 C431 1.376 . S
N430 C434 1.383 . S
C431 N430 1.376 . S
C431 C432 1.446 . S
C431 C461 1.391 . S
C432 C431 1.446 . S
C432 C433 1.339 . S
C432 H467 0.949 . S
C433 C432 1.339 . S
C433 C434 1.439 . S
C433 H468 0.950 . S
C434 N430 1.383 . S
C434 C433 1.439 . S
C434 C463 1.392 . S
N435 Co429 2.008 . S
N435 C436 1.376 . S
N435 C439 1.374 . S
C436 N435 1.376 . S
C436 C437 1.443 . S
C436 C463 1.389 . S
C437 C436 1.443 . S
C437 C438 1.340 . S
C437 H469 0.951 . S
C438 C437 1.340 . S
C438 C439 1.439 . S
C438 H470 0.950 . S
C439 N435 1.374 . S
C439 C438 1.439 . S
C439 C464 1.395 . S
N440 Co429 1.995 . S
N440 C441 1.376 . S
N440 C444 1.383 . S
C441 N440 1.376 . S
C441 C442 1.446 . S
C441 C464 1.391 . S
C442 C441 1.446 . S
C442 C443 1.339 . S
C442 H471 0.949 . S
C443 C442 1.339 . S
C443 C444 1.439 . S
C443 H472 0.950 . S
C444 N440 1.383 . S
C444 C443 1.439 . S
C444 C462 1.392 . S
N445 Co429 2.282 . S
N445 C448 1.332 . S
N445 C450 1.332 . S
C446 C447 1.386 . S
C446 C449 1.388 . S
C447 C446 1.386 . S
C447 C448 1.382 . S
C447 H473 0.950 . S
C448 N445 1.332 . S
C448 C447 1.382 . S
C448 H459 0.952 . S
C449 C446 1.388 . S
C449 C450 1.382 . S
C449 H474 0.950 . S
C450 N445 1.332 . S
C450 C449 1.382 . S
C450 H460 0.948 . S
N451 Co429 2.282 . S
N451 C455 1.332 . S
N451 C456 1.332 . S
C452 C453 1.388 . S
C452 C456 1.382 . S
C452 H475 0.950 . S
C453 C452 1.388 . S
C453 C454 1.386 . S
C454 C453 1.386 . S
C454 C455 1.382 . S
C454 H476 0.950 . S
C455 N451 1.332 . S
C455 C454 1.382 . S
C455 H457 0.952 . S
C456 N451 1.332 . S
C456 C452 1.382 . S
C456 H458 0.948 . S
H457 C455 0.952 . S
H458 C456 0.948 . S
H459 C448 0.952 . S
H460 C450 0.948 . S
C461 C427 1.395 . S
C461 C431 1.391 . S
C462 C424 1.389 . S
C462 C444 1.392 . S
C463 C434 1.392 . S
C463 C436 1.389 . S
C464 C439 1.395 . S
C464 C441 1.391 . S
H465 C425 0.951 . S
H466 C426 0.950 . S
H467 C432 0.949 . S
H468 C433 0.950 . S
H469 C437 0.951 . S
H470 C438 0.950 . S
H471 C442 0.949 . S
H472 C443 0.950 . S
H473 C447 0.950 . S
H474 C449 0.950 . S
H475 C452 0.950 . S
H476 C454 0.950 . S
C477 C478 1.443 . S
C477 N481 1.376 . S
C477 C515 1.389 . S
C478 C477 1.443 . S
C478 C479 1.340 . S
C478 H518 0.951 . S
C479 C478 1.340 . S
C479 C480 1.439 . S
C479 H519 0.950 . S
C480 C479 1.439 . S
C480 N481 1.374 . S
C480 C514 1.395 . S
N481 C477 1.376 . S
N481 C480 1.374 . S
N481 Co482 2.008 . S
Co482 N481 2.008 . S
Co482 N483 1.995 . S
Co482 N488 2.008 . S
Co482 N493 1.995 . S
Co482 N498 2.282 . S
Co482 N504 2.282 . S
N483 Co482 1.995 . S
N483 C484 1.376 . S
N483 C487 1.383 . S
C484 N483 1.376 . S
C484 C485 1.446 . S
C484 C514 1.391 . S
C485 C484 1.446 . S
C485 C486 1.339 . S
C485 H520 0.949 . S
C486 C485 1.339 . S
C486 C487 1.439 . S
C486 H521 0.950 . S
C487 N483 1.383 . S
C487 C486 1.439 . S
C487 C516 1.392 . S
N488 Co482 2.008 . S
N488 C489 1.376 . S
N488 C492 1.374 . S
C489 N488 1.376 . S
C489 C490 1.443 . S
C489 C516 1.389 . S
C490 C489 1.443 . S
C490 C491 1.340 . S
C490 H522 0.951 . S
C491 C490 1.340 . S
C491 C492 1.439 . S
C491 H523 0.950 . S
C492 N488 1.374 . S
C492 C491 1.439 . S
C492 C517 1.395 . S
N493 Co482 1.995 . S
N493 C494 1.376 . S
N493 C497 1.383 . S
C494 N493 1.376 . S
C494 C495 1.446 . S
C494 C517 1.391 . S
C495 C494 1.446 . S
C495 C496 1.339 . S
C495 H524 0.949 . S
C496 C495 1.339 . S
C496 C497 1.439 . S
C496 H525 0.950 . S
C497 N493 1.383 . S
C497 C496 1.439 . S
C497 C515 1.392 . S
N498 Co482 2.282 . S
N498 C501 1.332 . S
N498 C503 1.332 . S
C499 C500 1.386 . S
C499 C502 1.388 . S
C500 C499 1.386 . S
C500 C501 1.382 . S
C500 H526 0.950 . S
C501 N498 1.332 . S
C501 C500 1.382 . S
C501 H512 0.952 . S
C502 C499 1.388 . S
C502 C503 1.382 . S
C502 H527 0.950 . S
C503 N498 1.332 . S
C503 C502 1.382 . S
C503 H513 0.948 . S
N504 Co482 2.282 . S
N504 C508 1.332 . S
N504 C509 1.332 . S
C505 C506 1.388 . S
C505 C509 1.382 . S
C505 H528 0.950 . S
C506 C505 1.388 . S
C506 C507 1.386 . S
C507 C506 1.386 . S
C507 C508 1.382 . S
C507 H529 0.950 . S
C508 N504 1.332 . S
C508 C507 1.382 . S
C508 H510 0.952 . S
C509 N504 1.332 . S
C509 C505 1.382 . S
C509 H511 0.948 . S
H510 C508 0.952 . S
H511 C509 0.948 . S
H512 C501 0.952 . S
H513 C503 0.948 . S
C514 C480 1.395 . S
C514 C484 1.391 . S
C515 C477 1.389 . S
C515 C497 1.392 . S
C516 C487 1.392 . S
C516 C489 1.389 . S
C517 C492 1.395 . S
C517 C494 1.391 . S
H518 C478 0.951 . S
H519 C479 0.950 . S
H520 C485 0.949 . S
H521 C486 0.950 . S
H522 C490 0.951 . S
H523 C491 0.950 . S
H524 C495 0.949 . S
H525 C496 0.950 . S
H526 C500 0.950 . S
H527 C502 0.950 . S
H528 C505 0.950 . S
H529 C507 0.950 . S
C530 C531 1.443 . S
C530 N534 1.376 . S
C530 C568 1.389 . S
C531 C530 1.443 . S
C531 C532 1.340 . S
C531 H571 0.951 . S
C532 C531 1.340 . S
C532 C533 1.439 . S
C532 H572 0.950 . S
C533 C532 1.439 . S
C533 N534 1.374 . S
C533 C567 1.395 . S
N534 C530 1.376 . S
N534 C533 1.374 . S
N534 Co535 2.008 . S
Co535 N534 2.008 . S
Co535 N536 1.995 . S
Co535 N541 2.008 . S
Co535 N546 1.995 . S
Co535 N551 2.282 . S
Co535 N557 2.282 . S
N536 Co535 1.995 . S
N536 C537 1.376 . S
N536 C540 1.383 . S
C537 N536 1.376 . S
C537 C538 1.446 . S
C537 C567 1.391 . S
C538 C537 1.446 . S
C538 C539 1.339 . S
C538 H573 0.949 . S
C539 C538 1.339 . S
C539 C540 1.439 . S
C539 H574 0.950 . S
C540 N536 1.383 . S
C540 C539 1.439 . S
C540 C569 1.392 . S
N541 Co535 2.008 . S
N541 C542 1.376 . S
N541 C545 1.374 . S
C542 N541 1.376 . S
C542 C543 1.443 . S
C542 C569 1.389 . S
C543 C542 1.443 . S
C543 C544 1.340 . S
C543 H575 0.951 . S
C544 C543 1.340 . S
C544 C545 1.439 . S
C544 H576 0.950 . S
C545 N541 1.374 . S
C545 C544 1.439 . S
C545 C570 1.395 . S
N546 Co535 1.995 . S
N546 C547 1.376 . S
N546 C550 1.383 . S
C547 N546 1.376 . S
C547 C548 1.446 . S
C547 C570 1.391 . S
C548 C547 1.446 . S
C548 C549 1.339 . S
C548 H577 0.949 . S
C549 C548 1.339 . S
C549 C550 1.439 . S
C549 H578 0.950 . S
C550 N546 1.383 . S
C550 C549 1.439 . S
C550 C568 1.392 . S
N551 Co535 2.282 . S
N551 C554 1.332 . S
N551 C556 1.332 . S
C552 C553 1.386 . S
C552 C555 1.388 . S
C553 C552 1.386 . S
C553 C554 1.382 . S
C553 H579 0.950 . S
C554 N551 1.332 . S
C554 C553 1.382 . S
C554 H565 0.952 . S
C555 C552 1.388 . S
C555 C556 1.382 . S
C555 H580 0.950 . S
C556 N551 1.332 . S
C556 C555 1.382 . S
C556 H566 0.948 . S
N557 Co535 2.282 . S
N557 C561 1.332 . S
N557 C562 1.332 . S
C558 C559 1.388 . S
C558 C562 1.382 . S
C558 H581 0.950 . S
C559 C558 1.388 . S
C559 C560 1.386 . S
C560 C559 1.386 . S
C560 C561 1.382 . S
C560 H582 0.950 . S
C561 N557 1.332 . S
C561 C560 1.382 . S
C561 H563 0.952 . S
C562 N557 1.332 . S
C562 C558 1.382 . S
C562 H564 0.948 . S
H563 C561 0.952 . S
H564 C562 0.948 . S
H565 C554 0.952 . S
H566 C556 0.948 . S
C567 C533 1.395 . S
C567 C537 1.391 . S
C568 C530 1.389 . S
C568 C550 1.392 . S
C569 C540 1.392 . S
C569 C542 1.389 . S
C570 C545 1.395 . S
C570 C547 1.391 . S
H571 C531 0.951 . S
H572 C532 0.950 . S
H573 C538 0.949 . S
H574 C539 0.950 . S
H575 C543 0.951 . S
H576 C544 0.950 . S
H577 C548 0.949 . S
H578 C549 0.950 . S
H579 C553 0.950 . S
H580 C555 0.950 . S
H581 C558 0.950 . S
H582 C560 0.950 . S
C583 C584 1.443 . S
C583 N587 1.376 . S
C583 C621 1.389 . S
C584 C583 1.443 . S
C584 C585 1.340 . S
C584 H624 0.951 . S
C585 C584 1.340 . S
C585 C586 1.439 . S
C585 H625 0.950 . S
C586 C585 1.439 . S
C586 N587 1.374 . S
C586 C620 1.395 . S
N587 C583 1.376 . S
N587 C586 1.374 . S
N587 Co588 2.008 . S
Co588 N587 2.008 . S
Co588 N589 1.995 . S
Co588 N594 2.008 . S
Co588 N599 1.995 . S
Co588 N604 2.282 . S
Co588 N610 2.282 . S
N589 Co588 1.995 . S
N589 C590 1.376 . S
N589 C593 1.383 . S
C590 N589 1.376 . S
C590 C591 1.446 . S
C590 C620 1.391 . S
C591 C590 1.446 . S
C591 C592 1.339 . S
C591 H626 0.949 . S
C592 C591 1.339 . S
C592 C593 1.439 . S
C592 H627 0.950 . S
C593 N589 1.383 . S
C593 C592 1.439 . S
C593 C622 1.392 . S
N594 Co588 2.008 . S
N594 C595 1.376 . S
N594 C598 1.374 . S
C595 N594 1.376 . S
C595 C596 1.443 . S
C595 C622 1.389 . S
C596 C595 1.443 . S
C596 C597 1.340 . S
C596 H628 0.951 . S
C597 C596 1.340 . S
C597 C598 1.439 . S
C597 H629 0.950 . S
C598 N594 1.374 . S
C598 C597 1.439 . S
C598 C623 1.395 . S
N599 Co588 1.995 . S
N599 C600 1.376 . S
N599 C603 1.383 . S
C600 N599 1.376 . S
C600 C601 1.446 . S
C600 C623 1.391 . S
C601 C600 1.446 . S
C601 C602 1.339 . S
C601 H630 0.949 . S
C602 C601 1.339 . S
C602 C603 1.439 . S
C602 H631 0.950 . S
C603 N599 1.383 . S
C603 C602 1.439 . S
C603 C621 1.392 . S
N604 Co588 2.282 . S
N604 C607 1.332 . S
N604 C609 1.332 . S
C605 C606 1.386 . S
C605 C608 1.388 . S
C606 C605 1.386 . S
C606 C607 1.382 . S
C606 H632 0.950 . S
C607 N604 1.332 . S
C607 C606 1.382 . S
C607 H618 0.952 . S
C608 C605 1.388 . S
C608 C609 1.382 . S
C608 H633 0.950 . S
C609 N604 1.332 . S
C609 C608 1.382 . S
C609 H619 0.948 . S
N610 Co588 2.282 . S
N610 C614 1.332 . S
N610 C615 1.332 . S
C611 C612 1.388 . S
C611 C615 1.382 . S
C611 H634 0.950 . S
C612 C611 1.388 . S
C612 C613 1.386 . S
C613 C612 1.386 . S
C613 C614 1.382 . S
C613 H635 0.950 . S
C614 N610 1.332 . S
C614 C613 1.382 . S
C614 H616 0.952 . S
C615 N610 1.332 . S
C615 C611 1.382 . S
C615 H617 0.948 . S
H616 C614 0.952 . S
H617 C615 0.948 . S
H618 C607 0.952 . S
H619 C609 0.948 . S
C620 C586 1.395 . S
C620 C590 1.391 . S
C621 C583 1.389 . S
C621 C603 1.392 . S
C622 C593 1.392 . S
C622 C595 1.389 . S
C623 C598 1.395 . S
C623 C600 1.391 . S
H624 C584 0.951 . S
H625 C585 0.950 . S
H626 C591 0.949 . S
H627 C592 0.950 . S
H628 C596 0.951 . S
H629 C597 0.950 . S
H630 C601 0.949 . S
H631 C602 0.950 . S
H632 C606 0.950 . S
H633 C608 0.950 . S
H634 C611 0.950 . S
H635 C613 0.950 . S
C636 C637 1.443 . S
C636 N640 1.376 . S
C636 C674 1.389 . S
C637 C636 1.443 . S
C637 C638 1.340 . S
C637 H677 0.951 . S
C638 C637 1.340 . S
C638 C639 1.439 . S
C638 H678 0.950 . S
C639 C638 1.439 . S
C639 N640 1.374 . S
C639 C673 1.395 . S
N640 C636 1.376 . S
N640 C639 1.374 . S
N640 Co641 2.008 . S
Co641 N640 2.008 . S
Co641 N642 1.995 . S
Co641 N647 2.008 . S
Co641 N652 1.995 . S
Co641 N657 2.282 . S
Co641 N663 2.282 . S
N642 Co641 1.995 . S
N642 C643 1.376 . S
N642 C646 1.383 . S
C643 N642 1.376 . S
C643 C644 1.446 . S
C643 C673 1.391 . S
C644 C643 1.446 . S
C644 C645 1.339 . S
C644 H679 0.949 . S
C645 C644 1.339 . S
C645 C646 1.439 . S
C645 H680 0.950 . S
C646 N642 1.383 . S
C646 C645 1.439 . S
C646 C675 1.392 . S
N647 Co641 2.008 . S
N647 C648 1.376 . S
N647 C651 1.374 . S
C648 N647 1.376 . S
C648 C649 1.443 . S
C648 C675 1.389 . S
C649 C648 1.443 . S
C649 C650 1.340 . S
C649 H681 0.951 . S
C650 C649 1.340 . S
C650 C651 1.439 . S
C650 H682 0.950 . S
C651 N647 1.374 . S
C651 C650 1.439 . S
C651 C676 1.395 . S
N652 Co641 1.995 . S
N652 C653 1.376 . S
N652 C656 1.383 . S
C653 N652 1.376 . S
C653 C654 1.446 . S
C653 C676 1.391 . S
C654 C653 1.446 . S
C654 C655 1.339 . S
C654 H683 0.949 . S
C655 C654 1.339 . S
C655 C656 1.439 . S
C655 H684 0.950 . S
C656 N652 1.383 . S
C656 C655 1.439 . S
C656 C674 1.392 . S
N657 Co641 2.282 . S
N657 C660 1.332 . S
N657 C662 1.332 . S
C658 C659 1.386 . S
C658 C661 1.388 . S
C659 C658 1.386 . S
C659 C660 1.382 . S
C659 H685 0.950 . S
C660 N657 1.332 . S
C660 C659 1.382 . S
C660 H671 0.952 . S
C661 C658 1.388 . S
C661 C662 1.382 . S
C661 H686 0.950 . S
C662 N657 1.332 . S
C662 C661 1.382 . S
C662 H672 0.948 . S
N663 Co641 2.282 . S
N663 C667 1.332 . S
N663 C668 1.332 . S
C664 C665 1.388 . S
C664 C668 1.382 . S
C664 H687 0.950 . S
C665 C664 1.388 . S
C665 C666 1.386 . S
C666 C665 1.386 . S
C666 C667 1.382 . S
C666 H688 0.950 . S
C667 N663 1.332 . S
C667 C666 1.382 . S
C667 H669 0.952 . S
C668 N663 1.332 . S
C668 C664 1.382 . S
C668 H670 0.948 . S
H669 C667 0.952 . S
H670 C668 0.948 . S
H671 C660 0.952 . S
H672 C662 0.948 . S
C673 C639 1.395 . S
C673 C643 1.391 . S
C674 C636 1.389 . S
C674 C656 1.392 . S
C675 C646 1.392 . S
C675 C648 1.389 . S
C676 C651 1.395 . S
C676 C653 1.391 . S
H677 C637 0.951 . S
H678 C638 0.950 . S
H679 C644 0.949 . S
H680 C645 0.950 . S
H681 C649 0.951 . S
H682 C650 0.950 . S
H683 C654 0.949 . S
H684 C655 0.950 . S
H685 C659 0.950 . S
H686 C661 0.950 . S
H687 C664 0.950 . S
H688 C666 0.950 . S
C689 C690 1.443 . S
C689 N693 1.376 . S
C689 C727 1.389 . S
C690 C689 1.443 . S
C690 C691 1.340 . S
C690 H730 0.951 . S
C691 C690 1.340 . S
C691 C692 1.439 . S
C691 H731 0.950 . S
C692 C691 1.439 . S
C692 N693 1.374 . S
C692 C726 1.395 . S
N693 C689 1.376 . S
N693 C692 1.374 . S
N693 Co694 2.008 . S
Co694 N693 2.008 . S
Co694 N695 1.995 . S
Co694 N700 2.008 . S
Co694 N705 1.995 . S
Co694 N710 2.282 . S
Co694 N716 2.282 . S
N695 Co694 1.995 . S
N695 C696 1.376 . S
N695 C699 1.383 . S
C696 N695 1.376 . S
C696 C697 1.446 . S
C696 C726 1.391 . S
C697 C696 1.446 . S
C697 C698 1.339 . S
C697 H732 0.949 . S
C698 C697 1.339 . S
C698 C699 1.439 . S
C698 H733 0.950 . S
C699 N695 1.383 . S
C699 C698 1.439 . S
C699 C728 1.392 . S
N700 Co694 2.008 . S
N700 C701 1.376 . S
N700 C704 1.374 . S
C701 N700 1.376 . S
C701 C702 1.443 . S
C701 C728 1.389 . S
C702 C701 1.443 . S
C702 C703 1.340 . S
C702 H734 0.951 . S
C703 C702 1.340 . S
C703 C704 1.439 . S
C703 H735 0.950 . S
C704 N700 1.374 . S
C704 C703 1.439 . S
C704 C729 1.395 . S
N705 Co694 1.995 . S
N705 C706 1.376 . S
N705 C709 1.383 . S
C706 N705 1.376 . S
C706 C707 1.446 . S
C706 C729 1.391 . S
C707 C706 1.446 . S
C707 C708 1.339 . S
C707 H736 0.949 . S
C708 C707 1.339 . S
C708 C709 1.439 . S
C708 H737 0.950 . S
C709 N705 1.383 . S
C709 C708 1.439 . S
C709 C727 1.392 . S
N710 Co694 2.282 . S
N710 C713 1.332 . S
N710 C715 1.332 . S
C711 C712 1.386 . S
C711 C714 1.388 . S
C712 C711 1.386 . S
C712 C713 1.382 . S
C712 H738 0.950 . S
C713 N710 1.332 . S
C713 C712 1.382 . S
C713 H724 0.952 . S
C714 C711 1.388 . S
C714 C715 1.382 . S
C714 H739 0.950 . S
C715 N710 1.332 . S
C715 C714 1.382 . S
C715 H725 0.948 . S
N716 Co694 2.282 . S
N716 C720 1.332 . S
N716 C721 1.332 . S
C717 C718 1.388 . S
C717 C721 1.382 . S
C717 H740 0.950 . S
C718 C717 1.388 . S
C718 C719 1.386 . S
C719 C718 1.386 . S
C719 C720 1.382 . S
C719 H741 0.950 . S
C720 N716 1.332 . S
C720 C719 1.382 . S
C720 H722 0.952 . S
C721 N716 1.332 . S
C721 C717 1.382 . S
C721 H723 0.948 . S
H722 C720 0.952 . S
H723 C721 0.948 . S
H724 C713 0.952 . S
H725 C715 0.948 . S
C726 C692 1.395 . S
C726 C696 1.391 . S
C727 C689 1.389 . S
C727 C709 1.392 . S
C728 C699 1.392 . S
C728 C701 1.389 . S
C729 C704 1.395 . S
C729 C706 1.391 . S
H730 C690 0.951 . S
H731 C691 0.950 . S
H732 C697 0.949 . S
H733 C698 0.950 . S
H734 C702 0.951 . S
H735 C703 0.950 . S
H736 C707 0.949 . S
H737 C708 0.950 . S
H738 C712 0.950 . S
H739 C714 0.950 . S
H740 C717 0.950 . S
H741 C719 0.950 . S
C742 C743 1.443 . S
C742 N746 1.376 . S
C742 C780 1.389 . S
C743 C742 1.443 . S
C743 C744 1.340 . S
C743 H783 0.951 . S
C744 C743 1.340 . S
C744 C745 1.439 . S
C744 H784 0.950 . S
C745 C744 1.439 . S
C745 N746 1.374 . S
C745 C779 1.395 . S
N746 C742 1.376 . S
N746 C745 1.374 . S
N746 Co747 2.008 . S
Co747 N746 2.008 . S
Co747 N748 1.995 . S
Co747 N753 2.008 . S
Co747 N758 1.995 . S
Co747 N763 2.282 . S
Co747 N769 2.282 . S
N748 Co747 1.995 . S
N748 C749 1.376 . S
N748 C752 1.383 . S
C749 N748 1.376 . S
C749 C750 1.446 . S
C749 C779 1.391 . S
C750 C749 1.446 . S
C750 C751 1.339 . S
C750 H785 0.949 . S
C751 C750 1.339 . S
C751 C752 1.439 . S
C751 H786 0.950 . S
C752 N748 1.383 . S
C752 C751 1.439 . S
C752 C781 1.392 . S
N753 Co747 2.008 . S
N753 C754 1.376 . S
N753 C757 1.374 . S
C754 N753 1.376 . S
C754 C755 1.443 . S
C754 C781 1.389 . S
C755 C754 1.443 . S
C755 C756 1.340 . S
C755 H787 0.951 . S
C756 C755 1.340 . S
C756 C757 1.439 . S
C756 H788 0.950 . S
C757 N753 1.374 . S
C757 C756 1.439 . S
C757 C782 1.395 . S
N758 Co747 1.995 . S
N758 C759 1.376 . S
N758 C762 1.383 . S
C759 N758 1.376 . S
C759 C760 1.446 . S
C759 C782 1.391 . S
C760 C759 1.446 . S
C760 C761 1.339 . S
C760 H789 0.949 . S
C761 C760 1.339 . S
C761 C762 1.439 . S
C761 H790 0.950 . S
C762 N758 1.383 . S
C762 C761 1.439 . S
C762 C780 1.392 . S
N763 Co747 2.282 . S
N763 C766 1.332 . S
N763 C768 1.332 . S
C764 C765 1.386 . S
C764 C767 1.388 . S
C765 C764 1.386 . S
C765 C766 1.382 . S
C765 H791 0.950 . S
C766 N763 1.332 . S
C766 C765 1.382 . S
C766 H777 0.952 . S
C767 C764 1.388 . S
C767 C768 1.382 . S
C767 H792 0.950 . S
C768 N763 1.332 . S
C768 C767 1.382 . S
C768 H778 0.948 . S
N769 Co747 2.282 . S
N769 C773 1.332 . S
N769 C774 1.332 . S
C770 C771 1.388 . S
C770 C774 1.382 . S
C770 H793 0.950 . S
C771 C770 1.388 . S
C771 C772 1.386 . S
C772 C771 1.386 . S
C772 C773 1.382 . S
C772 H794 0.950 . S
C773 N769 1.332 . S
C773 C772 1.382 . S
C773 H775 0.952 . S
C774 N769 1.332 . S
C774 C770 1.382 . S
C774 H776 0.948 . S
H775 C773 0.952 . S
H776 C774 0.948 . S
H777 C766 0.952 . S
H778 C768 0.948 . S
C779 C745 1.395 . S
C779 C749 1.391 . S
C780 C742 1.389 . S
C780 C762 1.392 . S
C781 C752 1.392 . S
C781 C754 1.389 . S
C782 C757 1.395 . S
C782 C759 1.391 . S
H783 C743 0.951 . S
H784 C744 0.950 . S
H785 C750 0.949 . S
H786 C751 0.950 . S
H787 C755 0.951 . S
H788 C756 0.950 . S
H789 C760 0.949 . S
H790 C761 0.950 . S
H791 C765 0.950 . S
H792 C767 0.950 . S
H793 C770 0.950 . S
H794 C772 0.950 . S
C795 C796 1.443 . S
C795 N799 1.376 . S
C795 C833 1.389 . S
C796 C795 1.443 . S
C796 C797 1.340 . S
C796 H836 0.951 . S
C797 C796 1.340 . S
C797 C798 1.439 . S
C797 H837 0.950 . S
C798 C797 1.439 . S
C798 N799 1.374 . S
C798 C832 1.395 . S
N799 C795 1.376 . S
N799 C798 1.374 . S
N799 Co800 2.008 . S
Co800 N799 2.008 . S
Co800 N801 1.995 . S
Co800 N806 2.008 . S
Co800 N811 1.995 . S
Co800 N816 2.282 . S
Co800 N822 2.282 . S
N801 Co800 1.995 . S
N801 C802 1.376 . S
N801 C805 1.383 . S
C802 N801 1.376 . S
C802 C803 1.446 . S
C802 C832 1.391 . S
C803 C802 1.446 . S
C803 C804 1.339 . S
C803 H838 0.949 . S
C804 C803 1.339 . S
C804 C805 1.439 . S
C804 H839 0.950 . S
C805 N801 1.383 . S
C805 C804 1.439 . S
C805 C834 1.392 . S
N806 Co800 2.008 . S
N806 C807 1.376 . S
N806 C810 1.374 . S
C807 N806 1.376 . S
C807 C808 1.443 . S
C807 C834 1.389 . S
C808 C807 1.443 . S
C808 C809 1.340 . S
C808 H840 0.951 . S
C809 C808 1.340 . S
C809 C810 1.439 . S
C809 H841 0.950 . S
C810 N806 1.374 . S
C810 C809 1.439 . S
C810 C835 1.395 . S
N811 Co800 1.995 . S
N811 C812 1.376 . S
N811 C815 1.383 . S
C812 N811 1.376 . S
C812 C813 1.446 . S
C812 C835 1.391 . S
C813 C812 1.446 . S
C813 C814 1.339 . S
C813 H842 0.949 . S
C814 C813 1.339 . S
C814 C815 1.439 . S
C814 H843 0.950 . S
C815 N811 1.383 . S
C815 C814 1.439 . S
C815 C833 1.392 . S
N816 Co800 2.282 . S
N816 C819 1.332 . S
N816 C821 1.332 . S
C817 C818 1.386 . S
C817 C820 1.388 . S
C818 C817 1.386 . S
C818 C819 1.382 . S
C818 H844 0.950 . S
C819 N816 1.332 . S
C819 C818 1.382 . S
C819 H830 0.952 . S
C820 C817 1.388 . S
C820 C821 1.382 . S
C820 H845 0.950 . S
C821 N816 1.332 . S
C821 C820 1.382 . S
C821 H831 0.948 . S
N822 Co800 2.282 . S
N822 C826 1.332 . S
N822 C827 1.332 . S
C823 C824 1.388 . S
C823 C827 1.382 . S
C823 H846 0.950 . S
C824 C823 1.388 . S
C824 C825 1.386 . S
C825 C824 1.386 . S
C825 C826 1.382 . S
C825 H847 0.950 . S
C826 N822 1.332 . S
C826 C825 1.382 . S
C826 H828 0.952 . S
C827 N822 1.332 . S
C827 C823 1.382 . S
C827 H829 0.948 . S
H828 C826 0.952 . S
H829 C827 0.948 . S
H830 C819 0.952 . S
H831 C821 0.948 . S
C832 C798 1.395 . S
C832 C802 1.391 . S
C833 C795 1.389 . S
C833 C815 1.392 . S
C834 C805 1.392 . S
C834 C807 1.389 . S
C835 C810 1.395 . S
C835 C812 1.391 . S
H836 C796 0.951 . S
H837 C797 0.950 . S
H838 C803 0.949 . S
H839 C804 0.950 . S
H840 C808 0.951 . S
H841 C809 0.950 . S
H842 C813 0.949 . S
H843 C814 0.950 . S
H844 C818 0.950 . S
H845 C820 0.950 . S
H846 C823 0.950 . S
H847 C825 0.950 . S
H848 C860 0.930 . S
H849 C862 0.930 . S
H850 C863 0.930 . S
H851 C867 0.959 . S
H852 C867 0.959 . S
H853 C867 0.961 . S
H854 C868 0.960 . S
H855 C868 0.961 . S
H856 C868 0.959 . S
H857 C871 0.929 . S
H858 C872 0.931 . S
H859 C874 0.930 . S
C860 H848 0.930 . S
C860 C861 1.399 . S
C860 C865 1.399 . S
C861 C860 1.399 . S
C861 C862 1.376 . S
C862 H849 0.930 . S
C862 C861 1.376 . S
C862 C863 1.388 . S
C863 H850 0.930 . S
C863 C862 1.388 . S
C863 C864 1.390 . S
C864 C863 1.390 . S
C864 C865 1.394 . S
C864 C870 1.465 . S
C865 C860 1.399 . S
C865 C864 1.394 . S
C865 C866 1.516 . S
C866 C865 1.516 . S
C866 C867 1.502 . S
C866 C868 1.561 . S
C866 C869 1.526 . S
C867 H851 0.959 . S
C867 H852 0.959 . S
C867 H853 0.961 . S
C867 C866 1.502 . S
C868 H854 0.960 . S
C868 H855 0.961 . S
C868 H856 0.959 . S
C868 C866 1.561 . S
C869 C866 1.526 . S
C869 C870 1.396 . S
C869 C874 1.390 . S
C870 C864 1.465 . S
C870 C869 1.396 . S
C870 C871 1.399 . S
C871 H857 0.929 . S
C871 C870 1.399 . S
C871 C872 1.385 . S
C872 H858 0.931 . S
C872 C871 1.385 . S
C872 C873 1.389 . S
C873 C872 1.389 . S
C873 C874 1.387 . S
C874 H859 0.930 . S
C874 C869 1.390 . S
C874 C873 1.387 . S
H875 C887 0.930 . S
H876 C889 0.930 . S
H877 C890 0.930 . S
H878 C894 0.959 . S
H879 C894 0.959 . S
H880 C894 0.961 . S
H881 C895 0.960 . S
H882 C895 0.961 . S
H883 C895 0.959 . S
H884 C898 0.929 . S
H885 C899 0.931 . S
H886 C901 0.930 . S
C887 H875 0.930 . S
C887 C888 1.399 . S
C887 C892 1.399 . S
C888 C887 1.399 . S
C888 C889 1.376 . S
C889 H876 0.930 . S
C889 C888 1.376 . S
C889 C890 1.388 . S
C890 H877 0.930 . S
C890 C889 1.388 . S
C890 C891 1.390 . S
C891 C890 1.390 . S
C891 C892 1.394 . S
C891 C897 1.465 . S
C892 C887 1.399 . S
C892 C891 1.394 . S
C892 C893 1.516 . S
C893 C892 1.516 . S
C893 C894 1.502 . S
C893 C895 1.561 . S
C893 C896 1.526 . S
C894 H878 0.959 . S
C894 H879 0.959 . S
C894 H880 0.961 . S
C894 C893 1.502 . S
C895 H881 0.960 . S
C895 H882 0.961 . S
C895 H883 0.959 . S
C895 C893 1.561 . S
C896 C893 1.526 . S
C896 C897 1.396 . S
C896 C901 1.390 . S
C897 C891 1.465 . S
C897 C896 1.396 . S
C897 C898 1.399 . S
C898 H884 0.929 . S
C898 C897 1.399 . S
C898 C899 1.385 . S
C899 H885 0.931 . S
C899 C898 1.385 . S
C899 C900 1.389 . S
C900 C899 1.389 . S
C900 C901 1.387 . S
C901 H886 0.930 . S
C901 C896 1.390 . S
C901 C900 1.387 . S
H902 C914 0.930 . S
H903 C916 0.930 . S
H904 C917 0.930 . S
H905 C921 0.959 . S
H906 C921 0.959 . S
H907 C921 0.961 . S
H908 C922 0.960 . S
H909 C922 0.961 . S
H910 C922 0.959 . S
H911 C925 0.929 . S
H912 C926 0.931 . S
H913 C928 0.930 . S
C914 H902 0.930 . S
C914 C915 1.399 . S
C914 C919 1.399 . S
C915 C914 1.399 . S
C915 C916 1.376 . S
C916 H903 0.930 . S
C916 C915 1.376 . S
C916 C917 1.388 . S
C917 H904 0.930 . S
C917 C916 1.388 . S
C917 C918 1.390 . S
C918 C917 1.390 . S
C918 C919 1.394 . S
C918 C924 1.465 . S
C919 C914 1.399 . S
C919 C918 1.394 . S
C919 C920 1.516 . S
C920 C919 1.516 . S
C920 C921 1.502 . S
C920 C922 1.561 . S
C920 C923 1.526 . S
C921 H905 0.959 . S
C921 H906 0.959 . S
C921 H907 0.961 . S
C921 C920 1.502 . S
C922 H908 0.960 . S
C922 H909 0.961 . S
C922 H910 0.959 . S
C922 C920 1.561 . S
C923 C920 1.526 . S
C923 C924 1.396 . S
C923 C928 1.390 . S
C924 C918 1.465 . S
C924 C923 1.396 . S
C924 C925 1.399 . S
C925 H911 0.929 . S
C925 C924 1.399 . S
C925 C926 1.385 . S
C926 H912 0.931 . S
C926 C925 1.385 . S
C926 C927 1.389 . S
C927 C926 1.389 . S
C927 C928 1.387 . S
C928 H913 0.930 . S
C928 C923 1.390 . S
C928 C927 1.387 . S
H929 C941 0.930 . S
H930 C943 0.930 . S
H931 C944 0.930 . S
H932 C948 0.959 . S
H933 C948 0.959 . S
H934 C948 0.961 . S
H935 C949 0.960 . S
H936 C949 0.961 . S
H937 C949 0.959 . S
H938 C952 0.929 . S
H939 C953 0.931 . S
H940 C955 0.930 . S
C941 H929 0.930 . S
C941 C942 1.399 . S
C941 C946 1.399 . S
C942 C941 1.399 . S
C942 C943 1.376 . S
C943 H930 0.930 . S
C943 C942 1.376 . S
C943 C944 1.388 . S
C944 H931 0.930 . S
C944 C943 1.388 . S
C944 C945 1.390 . S
C945 C944 1.390 . S
C945 C946 1.394 . S
C945 C951 1.465 . S
C946 C941 1.399 . S
C946 C945 1.394 . S
C946 C947 1.516 . S
C947 C946 1.516 . S
C947 C948 1.502 . S
C947 C949 1.561 . S
C947 C950 1.526 . S
C948 H932 0.959 . S
C948 H933 0.959 . S
C948 H934 0.961 . S
C948 C947 1.502 . S
C949 H935 0.960 . S
C949 H936 0.961 . S
C949 H937 0.959 . S
C949 C947 1.561 . S
C950 C947 1.526 . S
C950 C951 1.396 . S
C950 C955 1.390 . S
C951 C945 1.465 . S
C951 C950 1.396 . S
C951 C952 1.399 . S
C952 H938 0.929 . S
C952 C951 1.399 . S
C952 C953 1.385 . S
C953 H939 0.931 . S
C953 C952 1.385 . S
C953 C954 1.389 . S
C954 C953 1.389 . S
C954 C955 1.387 . S
C955 H940 0.930 . S
C955 C950 1.390 . S
C955 C954 1.387 . S
H956 C968 0.930 . S
H957 C970 0.930 . S
H958 C971 0.941 1_556 S
H959 C975 0.959 . S
H960 C975 0.959 . S
H961 C975 0.961 . S
H962 C976 0.902 1_554 S
H963 C976 0.988 . S
H964 C976 1.017 . S
H965 C979 0.929 . S
H966 C980 0.931 . S
H967 C982 0.930 . S
C968 H956 0.930 . S
C968 C969 1.399 . S
C968 C973 1.399 . S
C969 C968 1.399 . S
C969 C970 1.376 1_545 S
C970 H957 0.930 . S
C970 C969 1.376 1_565 S
C970 C971 1.394 . S
C971 H958 0.941 1_554 S
C971 C970 1.394 . S
C971 C972 1.366 1_564 S
C972 C971 1.366 1_546 S
C972 C973 1.358 1_556 S
C972 C978 1.507 . S
C973 C968 1.399 . S
C973 C972 1.358 1_554 S
C973 C974 1.516 . S
C974 C973 1.516 . S
C974 C975 1.502 . S
C974 C976 1.542 1_554 S
C974 C977 1.526 1_554 S
C975 H959 0.959 . S
C975 H960 0.959 . S
C975 H961 0.961 . S
C975 C974 1.502 . S
C976 H962 0.902 1_556 S
C976 H963 0.988 . S
C976 H964 1.017 . S
C976 C974 1.542 1_556 S
C977 C974 1.526 1_556 S
C977 C978 1.396 . S
C977 C982 1.390 . S
C978 C972 1.507 . S
C978 C977 1.396 . S
C978 C979 1.399 . S
C979 H965 0.929 . S
C979 C978 1.399 . S
C979 C980 1.385 . S
C980 H966 0.931 . S
C980 C979 1.385 . S
C980 C981 1.389 . S
C981 C980 1.389 . S
C981 C982 1.387 . S
C982 H967 0.930 . S
C982 C977 1.390 . S
C982 C981 1.387 . S
H983 C995 0.930 . S
H984 C997 0.930 . S
H985 C998 0.930 . S
H986 C1002 0.959 . S
H987 C1002 0.959 . S
H988 C1002 0.961 . S
H989 C1003 0.960 . S
H990 C1003 0.961 . S
H991 C1003 0.959 . S
H992 C1006 0.929 1_554 S
H993 C1007 0.931 . S
H994 C1009 0.930 . S
C995 H983 0.930 . S
C995 C996 1.399 . S
C995 C1000 1.399 . S
C996 C995 1.399 . S
C996 C997 1.376 . S
C997 H984 0.930 . S
C997 C996 1.376 . S
C997 C998 1.388 . S
C998 H985 0.930 . S
C998 C997 1.388 . S
C998 C999 1.390 . S
C999 C998 1.390 . S
C999 C1000 1.394 . S
C999 C1005 1.462 . S
C1000 C995 1.399 . S
C1000 C999 1.394 . S
C1000 C1001 1.516 1_554 S
C1001 C1000 1.516 1_556 S
C1001 C1002 1.502 . S
C1001 C1003 1.561 . S
C1001 C1004 1.526 . S
C1002 H986 0.959 . S
C1002 H987 0.959 . S
C1002 H988 0.961 . S
C1002 C1001 1.502 . S
C1003 H989 0.960 . S
C1003 H990 0.961 . S
C1003 H991 0.959 . S
C1003 C1001 1.561 . S
C1004 C1001 1.526 . S
C1004 C1005 1.400 1_556 S
C1004 C1009 1.390 . S
C1005 C999 1.462 . S
C1005 C1004 1.400 1_554 S
C1005 C1006 1.399 1_554 S
C1006 H992 0.929 1_556 S
C1006 C1005 1.399 1_556 S
C1006 C1007 1.385 . S
C1007 H993 0.931 . S
C1007 C1006 1.385 . S
C1007 C1008 1.389 . S
C1008 C1007 1.389 . S
C1008 C1009 1.387 . S
C1009 H994 0.930 . S
C1009 C1004 1.390 . S
C1009 C1008 1.387 . S
H1010 C1022 0.930 . S
H1011 C1024 0.930 . S
H1012 C1025 0.930 1_554 S
H1013 C1029 0.959 . S
H1014 C1029 0.959 . S
H1015 C1029 0.961 . S
H1016 C1030 0.960 . S
H1017 C1030 0.961 . S
H1018 C1030 0.959 . S
H1019 C1033 0.929 . S
H1020 C1034 0.931 . S
H1021 C1036 0.930 1_545 S
C1022 H1010 0.930 . S
C1022 C1023 1.399 . S
C1022 C1027 1.399 . S
C1023 C1022 1.399 . S
C1023 C1024 1.376 . S
C1024 H1011 0.930 . S
C1024 C1023 1.376 . S
C1024 C1025 1.388 . S
C1025 H1012 0.930 1_556 S
C1025 C1024 1.388 . S
C1025 C1026 1.390 . S
C1026 C1025 1.390 . S
C1026 C1027 1.394 . S
C1026 C1032 1.465 1_556 S
C1027 C1022 1.399 . S
C1027 C1026 1.394 . S
C1027 C1028 1.516 . S
C1028 C1027 1.516 . S
C1028 C1029 1.502 1_565 S
C1028 C1030 1.561 . S
C1028 C1031 1.526 1_556 S
C1029 H1013 0.959 . S
C1029 H1014 0.959 . S
C1029 H1015 0.961 . S
C1029 C1028 1.502 1_545 S
C1030 H1016 0.960 . S
C1030 H1017 0.961 . S
C1030 H1018 0.959 . S
C1030 C1028 1.561 . S
C1031 C1028 1.526 1_554 S
C1031 C1032 1.396 . S
C1031 C1036 1.390 . S
C1032 C1026 1.465 1_554 S
C1032 C1031 1.396 . S
C1032 C1033 1.399 . S
C1033 H1019 0.929 . S
C1033 C1032 1.399 . S
C1033 C1034 1.385 . S
C1034 H1020 0.931 . S
C1034 C1033 1.385 . S
C1034 C1035 1.389 . S
C1035 C1034 1.389 . S
C1035 C1036 1.387 . S
C1036 H1021 0.930 1_565 S
C1036 C1031 1.390 . S
C1036 C1035 1.387 . S
H1037 C1049 0.930 . S
H1038 C1051 0.930 . S
H1039 C1052 0.930 1_556 S
H1040 C1056 0.959 . S
H1041 C1056 0.959 . S
H1042 C1056 0.961 . S
H1043 C1057 0.960 . S
H1044 C1057 0.961 . S
H1045 C1057 0.959 . S
H1046 C1060 0.929 . S
H1047 C1061 0.931 . S
H1048 C1063 0.930 . S
C1049 H1037 0.930 . S
C1049 C1050 1.399 . S
C1049 C1054 1.399 . S
C1050 C1049 1.399 . S
C1050 C1051 1.376 . S
C1051 H1038 0.930 . S
C1051 C1050 1.376 . S
C1051 C1052 1.388 . S
C1052 H1039 0.930 1_554 S
C1052 C1051 1.388 . S
C1052 C1053 1.390 . S
C1053 C1052 1.390 . S
C1053 C1054 1.394 . S
C1053 C1059 1.465 1_554 S
C1054 C1049 1.399 . S
C1054 C1053 1.394 . S
C1054 C1055 1.516 . S
C1055 C1054 1.516 . S
C1055 C1056 1.502 . S
C1055 C1057 1.561 . S
C1055 C1058 1.526 1_554 S
C1056 H1040 0.959 . S
C1056 H1041 0.959 . S
C1056 H1042 0.961 . S
C1056 C1055 1.502 . S
C1057 H1043 0.960 . S
C1057 H1044 0.961 . S
C1057 H1045 0.959 . S
C1057 C1055 1.561 . S
C1058 C1055 1.526 1_556 S
C1058 C1059 1.396 . S
C1058 C1063 1.390 . S
C1059 C1053 1.465 1_556 S
C1059 C1058 1.396 . S
C1059 C1060 1.399 . S
C1060 H1046 0.929 . S
C1060 C1059 1.399 . S
C1060 C1061 1.385 . S
C1061 H1047 0.931 . S
C1061 C1060 1.385 . S
C1061 C1062 1.389 . S
C1062 C1061 1.389 . S
C1062 C1063 1.387 . S
C1063 H1048 0.930 . S
C1063 C1058 1.390 . S
C1063 C1062 1.387 . S
H1064 C1076 0.930 . S
H1065 C1078 0.930 . S
H1066 C1079 0.930 . S
H1067 C1083 0.959 . S
H1068 C1083 0.959 . S
H1069 C1083 0.961 . S
H1070 C1084 0.960 . S
H1071 C1084 0.961 . S
H1072 C1084 0.960 . S
H1073 C1087 0.929 . S
H1074 C1088 0.931 . S
H1075 C1090 0.930 1_545 S
C1076 H1064 0.930 . S
C1076 C1077 1.399 . S
C1076 C1081 1.399 . S
C1077 C1076 1.399 . S
C1077 C1078 1.376 . S
C1078 H1065 0.930 . S
C1078 C1077 1.376 . S
C1078 C1079 1.388 . S
C1079 H1066 0.930 . S
C1079 C1078 1.388 . S
C1079 C1080 1.390 . S
C1080 C1079 1.390 . S
C1080 C1081 1.394 . S
C1080 C1086 1.465 . S
C1081 C1076 1.399 . S
C1081 C1080 1.394 . S
C1081 C1082 1.516 . S
C1082 C1081 1.516 . S
C1082 C1083 1.502 . S
C1082 C1084 1.561 1_565 S
C1082 C1085 1.526 . S
C1083 H1067 0.959 . S
C1083 H1068 0.959 . S
C1083 H1069 0.961 . S
C1083 C1082 1.502 . S
C1084 H1070 0.960 . S
C1084 H1071 0.961 . S
C1084 H1072 0.960 . S
C1084 C1082 1.561 1_545 S
C1085 C1082 1.526 . S
C1085 C1086 1.396 . S
C1085 C1090 1.390 . S
C1086 C1080 1.465 . S
C1086 C1085 1.396 . S
C1086 C1087 1.399 . S
C1087 H1073 0.929 . S
C1087 C1086 1.399 . S
C1087 C1088 1.385 . S
C1088 H1074 0.931 . S
C1088 C1087 1.385 . S
C1088 C1089 1.389 . S
C1089 C1088 1.389 . S
C1089 C1090 1.387 . S
C1090 H1075 0.930 1_565 S
C1090 C1085 1.390 . S
C1090 C1089 1.387 . S
H1091 C1103 0.930 . S
H1092 C1105 0.930 . S
H1093 C1106 0.930 1_455 S
H1094 C1110 0.959 . S
H1095 C1110 0.959 . S
H1096 C1110 0.961 . S
H1097 C1111 0.960 . S
H1098 C1111 0.961 . S
H1099 C1111 0.959 . S
H1100 C1114 0.929 . S
H1101 C1115 0.931 . S
H1102 C1117 0.930 . S
C1103 H1091 0.930 . S
C1103 C1104 1.399 . S
C1103 C1108 1.399 . S
C1104 C1103 1.399 . S
C1104 C1105 1.376 1_655 S
C1105 H1092 0.930 . S
C1105 C1104 1.376 1_455 S
C1105 C1106 1.388 1_455 S
C1106 H1093 0.930 1_655 S
C1106 C1105 1.388 1_655 S
C1106 C1107 1.390 . S
C1107 C1106 1.390 . S
C1107 C1108 1.394 . S
C1107 C1113 1.465 . S
C1108 C1103 1.399 . S
C1108 C1107 1.394 . S
C1108 C1109 1.516 . S
C1109 C1108 1.516 . S
C1109 C1110 1.502 . S
C1109 C1111 1.561 . S
C1109 C1112 1.526 . S
C1110 H1094 0.959 . S
C1110 H1095 0.959 . S
C1110 H1096 0.961 . S
C1110 C1109 1.502 . S
C1111 H1097 0.960 . S
C1111 H1098 0.961 . S
C1111 H1099 0.959 . S
C1111 C1109 1.561 . S
C1112 C1109 1.526 . S
C1112 C1113 1.396 . S
C1112 C1117 1.390 . S
C1113 C1107 1.465 . S
C1113 C1112 1.396 . S
C1113 C1114 1.399 . S
C1114 H1100 0.929 . S
C1114 C1113 1.399 . S
C1114 C1115 1.385 . S
C1115 H1101 0.931 . S
C1115 C1114 1.385 . S
C1115 C1116 1.389 . S
C1116 C1115 1.389 . S
C1116 C1117 1.387 . S
C1117 H1102 0.930 . S
C1117 C1112 1.390 . S
C1117 C1116 1.387 . S
H1118 C1130 0.930 . S
H1119 C1132 0.930 . S
H1120 C1133 0.929 1_565 S
H1121 C1137 0.959 . S
H1122 C1137 0.959 . S
H1123 C1137 0.961 . S
H1124 C1138 0.960 . S
H1125 C1138 0.961 . S
H1126 C1138 0.959 . S
H1127 C1141 0.929 . S
H1128 C1142 0.931 . S
H1129 C1144 0.930 . S
C1130 H1118 0.930 . S
C1130 C1131 1.399 . S
C1130 C1135 1.399 . S
C1131 C1130 1.399 . S
C1131 C1132 1.376 1_545 S
C1132 H1119 0.930 . S
C1132 C1131 1.376 1_565 S
C1132 C1133 1.388 1_565 S
C1133 H1120 0.929 1_545 S
C1133 C1132 1.388 1_545 S
C1133 C1134 1.391 . S
C1134 C1133 1.391 . S
C1134 C1135 1.394 . S
C1134 C1140 1.465 . S
C1135 C1130 1.399 . S
C1135 C1134 1.394 . S
C1135 C1136 1.516 . S
C1136 C1135 1.516 . S
C1136 C1137 1.502 . S
C1136 C1138 1.561 . S
C1136 C1139 1.526 . S
C1137 H1121 0.959 . S
C1137 H1122 0.959 . S
C1137 H1123 0.961 . S
C1137 C1136 1.502 . S
C1138 H1124 0.960 . S
C1138 H1125 0.961 . S
C1138 H1126 0.959 . S
C1138 C1136 1.561 . S
C1139 C1136 1.526 . S
C1139 C1140 1.396 . S
C1139 C1144 1.390 . S
C1140 C1134 1.465 . S
C1140 C1139 1.396 . S
C1140 C1141 1.399 . S
C1141 H1127 0.929 . S
C1141 C1140 1.399 . S
C1141 C1142 1.385 . S
C1142 H1128 0.931 . S
C1142 C1141 1.385 . S
C1142 C1143 1.389 . S
C1143 C1142 1.389 . S
C1143 C1144 1.387 . S
C1144 H1129 0.930 . S
C1144 C1139 1.390 . S
C1144 C1143 1.387 . S
H1145 C1157 0.930 . S
H1146 C1159 0.930 . S
H1147 C1160 0.930 . S
H1148 C1164 0.959 . S
H1149 C1164 0.959 . S
H1150 C1164 0.961 . S
H1151 C1165 0.960 . S
H1152 C1165 0.961 . S
H1153 C1165 0.959 . S
H1154 C1168 0.929 . S
H1155 C1169 0.931 . S
H1156 C1171 0.930 . S
C1157 H1145 0.930 . S
C1157 C1158 1.399 . S
C1157 C1162 1.399 . S
C1158 C1157 1.399 . S
C1158 C1159 1.376 . S
C1159 H1146 0.930 . S
C1159 C1158 1.376 . S
C1159 C1160 1.388 . S
C1160 H1147 0.930 . S
C1160 C1159 1.388 . S
C1160 C1161 1.390 . S
C1161 C1160 1.390 . S
C1161 C1162 1.394 . S
C1161 C1167 1.465 . S
C1162 C1157 1.399 . S
C1162 C1161 1.394 . S
C1162 C1163 1.516 . S
C1163 C1162 1.516 . S
C1163 C1164 1.502 . S
C1163 C1165 1.561 . S
C1163 C1166 1.526 . S
C1164 H1148 0.959 . S
C1164 H1149 0.959 . S
C1164 H1150 0.961 . S
C1164 C1163 1.502 . S
C1165 H1151 0.960 . S
C1165 H1152 0.961 . S
C1165 H1153 0.959 . S
C1165 C1163 1.561 . S
C1166 C1163 1.526 . S
C1166 C1167 1.396 . S
C1166 C1171 1.390 . S
C1167 C1161 1.465 . S
C1167 C1166 1.396 . S
C1167 C1168 1.399 . S
C1168 H1154 0.929 . S
C1168 C1167 1.399 . S
C1168 C1169 1.385 . S
C1169 H1155 0.931 . S
C1169 C1168 1.385 . S
C1169 C1170 1.389 . S
C1170 C1169 1.389 . S
C1170 C1171 1.387 . S
C1171 H1156 0.930 . S
C1171 C1166 1.390 . S
C1171 C1170 1.387 . S
H1172 C1184 0.930 . S
H1173 C1186 0.930 . S
H1174 C1187 0.930 . S
H1175 C1191 0.959 . S
H1176 C1191 0.959 . S
H1177 C1191 0.961 . S
H1178 C1192 0.960 . S
H1179 C1192 0.961 . S
H1180 C1192 0.959 . S
H1181 C1195 0.929 . S
H1182 C1196 0.931 . S
H1183 C1198 0.930 . S
C1184 H1172 0.930 . S
C1184 C1185 1.399 . S
C1184 C1189 1.399 . S
C1185 C1184 1.399 . S
C1185 C1186 1.376 . S
C1186 H1173 0.930 . S
C1186 C1185 1.376 . S
C1186 C1187 1.388 . S
C1187 H1174 0.930 . S
C1187 C1186 1.388 . S
C1187 C1188 1.390 . S
C1188 C1187 1.390 . S
C1188 C1189 1.394 . S
C1188 C1194 1.465 . S
C1189 C1184 1.399 . S
C1189 C1188 1.394 . S
C1189 C1190 1.516 . S
C1190 C1189 1.516 . S
C1190 C1191 1.502 . S
C1190 C1192 1.561 . S
C1190 C1193 1.526 . S
C1191 H1175 0.959 . S
C1191 H1176 0.959 . S
C1191 H1177 0.961 . S
C1191 C1190 1.502 . S
C1192 H1178 0.960 . S
C1192 H1179 0.961 . S
C1192 H1180 0.959 . S
C1192 C1190 1.561 . S
C1193 C1190 1.526 . S
C1193 C1194 1.396 . S
C1193 C1198 1.390 . S
C1194 C1188 1.465 . S
C1194 C1193 1.396 . S
C1194 C1195 1.399 . S
C1195 H1181 0.929 . S
C1195 C1194 1.399 . S
C1195 C1196 1.385 . S
C1196 H1182 0.931 . S
C1196 C1195 1.385 . S
C1196 C1197 1.389 . S
C1197 C1196 1.389 . S
C1197 C1198 1.387 . S
C1198 H1183 0.930 . S
C1198 C1193 1.390 . S
C1198 C1197 1.387 . S
H1199 C1211 0.930 . S
H1200 C1213 0.930 . S
H1201 C1214 0.930 . S
H1202 C1218 0.959 . S
H1203 C1218 0.959 . S
H1204 C1218 0.961 . S
H1205 C1219 0.960 . S
H1206 C1219 0.961 . S
H1207 C1219 0.959 . S
H1208 C1222 0.929 . S
H1209 C1223 0.931 . S
H1210 C1225 0.930 . S
C1211 H1199 0.930 . S
C1211 C1212 1.399 . S
C1211 C1216 1.399 . S
C1212 C1211 1.399 . S
C1212 C1213 1.376 . S
C1213 H1200 0.930 . S
C1213 C1212 1.376 . S
C1213 C1214 1.388 . S
C1214 H1201 0.930 . S
C1214 C1213 1.388 . S
C1214 C1215 1.390 . S
C1215 C1214 1.390 . S
C1215 C1216 1.394 . S
C1215 C1221 1.465 . S
C1216 C1211 1.399 . S
C1216 C1215 1.394 . S
C1216 C1217 1.516 . S
C1217 C1216 1.516 . S
C1217 C1218 1.502 . S
C1217 C1219 1.561 . S
C1217 C1220 1.526 . S
C1218 H1202 0.959 . S
C1218 H1203 0.959 . S
C1218 H1204 0.961 . S
C1218 C1217 1.502 . S
C1219 H1205 0.960 . S
C1219 H1206 0.961 . S
C1219 H1207 0.959 . S
C1219 C1217 1.561 . S
C1220 C1217 1.526 . S
C1220 C1221 1.396 . S
C1220 C1225 1.390 . S
C1221 C1215 1.465 . S
C1221 C1220 1.396 . S
C1221 C1222 1.399 . S
C1222 H1208 0.929 . S
C1222 C1221 1.399 . S
C1222 C1223 1.385 . S
C1223 H1209 0.931 . S
C1223 C1222 1.385 . S
C1223 C1224 1.389 . S
C1224 C1223 1.389 . S
C1224 C1225 1.387 . S
C1225 H1210 0.930 . S
C1225 C1220 1.390 . S
C1225 C1224 1.387 . S
H1226 C1238 0.930 . S
H1227 C1240 0.930 . S
H1228 C1241 0.930 . S
H1229 C1245 0.959 . S
H1230 C1245 0.959 . S
H1231 C1245 0.961 . S
H1232 C1246 0.960 . S
H1233 C1246 0.961 . S
H1234 C1246 0.959 . S
H1235 C1249 0.929 . S
H1236 C1250 0.931 . S
H1237 C1252 0.930 . S
C1238 H1226 0.930 . S
C1238 C1239 1.399 . S
C1238 C1243 1.399 . S
C1239 C1238 1.399 . S
C1239 C1240 1.376 . S
C1240 H1227 0.930 . S
C1240 C1239 1.376 . S
C1240 C1241 1.388 . S
C1241 H1228 0.930 . S
C1241 C1240 1.388 . S
C1241 C1242 1.390 . S
C1242 C1241 1.390 . S
C1242 C1243 1.394 . S
C1242 C1248 1.465 . S
C1243 C1238 1.399 . S
C1243 C1242 1.394 . S
C1243 C1244 1.516 . S
C1244 C1243 1.516 . S
C1244 C1245 1.502 . S
C1244 C1246 1.561 . S
C1244 C1247 1.526 . S
C1245 H1229 0.959 . S
C1245 H1230 0.959 . S
C1245 H1231 0.961 . S
C1245 C1244 1.502 . S
C1246 H1232 0.960 . S
C1246 H1233 0.961 . S
C1246 H1234 0.959 . S
C1246 C1244 1.561 . S
C1247 C1244 1.526 . S
C1247 C1248 1.396 . S
C1247 C1252 1.390 . S
C1248 C1242 1.465 . S
C1248 C1247 1.396 . S
C1248 C1249 1.399 . S
C1249 H1235 0.929 . S
C1249 C1248 1.399 . S
C1249 C1250 1.385 . S
C1250 H1236 0.931 . S
C1250 C1249 1.385 . S
C1250 C1251 1.389 . S
C1251 C1250 1.389 . S
C1251 C1252 1.387 . S
C1252 H1237 0.930 . S
C1252 C1247 1.390 . S
C1252 C1251 1.387 . S
H1253 C1265 0.930 . S
H1254 C1267 0.930 . S
H1255 C1268 0.930 . S
H1256 C1272 0.959 . S
H1257 C1272 0.959 . S
H1258 C1272 0.961 . S
H1259 C1273 0.960 . S
H1260 C1273 0.961 . S
H1261 C1273 0.959 . S
H1262 C1276 0.929 . S
H1263 C1277 0.931 . S
H1264 C1279 0.930 . S
C1265 H1253 0.930 . S
C1265 C1266 1.399 . S
C1265 C1270 1.399 . S
C1266 C1265 1.399 . S
C1266 C1267 1.376 . S
C1267 H1254 0.930 . S
C1267 C1266 1.376 . S
C1267 C1268 1.388 . S
C1268 H1255 0.930 . S
C1268 C1267 1.388 . S
C1268 C1269 1.390 . S
C1269 C1268 1.390 . S
C1269 C1270 1.394 . S
C1269 C1275 1.465 . S
C1270 C1265 1.399 . S
C1270 C1269 1.394 . S
C1270 C1271 1.516 . S
C1271 C1270 1.516 . S
C1271 C1272 1.502 . S
C1271 C1273 1.561 . S
C1271 C1274 1.526 . S
C1272 H1256 0.959 . S
C1272 H1257 0.959 . S
C1272 H1258 0.961 . S
C1272 C1271 1.502 . S
C1273 H1259 0.960 . S
C1273 H1260 0.961 . S
C1273 H1261 0.959 . S
C1273 C1271 1.561 . S
C1274 C1271 1.526 . S
C1274 C1275 1.396 . S
C1274 C1279 1.390 . S
C1275 C1269 1.465 . S
C1275 C1274 1.396 . S
C1275 C1276 1.399 . S
C1276 H1262 0.929 . S
C1276 C1275 1.399 . S
C1276 C1277 1.385 . S
C1277 H1263 0.931 . S
C1277 C1276 1.385 . S
C1277 C1278 1.389 . S
C1278 C1277 1.389 . S
C1278 C1279 1.387 . S
C1279 H1264 0.930 . S
C1279 C1274 1.390 . S
C1279 C1278 1.387 . S
H1280 C1292 0.930 . S
H1281 C1294 0.930 . S
H1282 C1295 0.930 . S
H1283 C1299 0.959 . S
H1284 C1299 0.959 . S
H1285 C1299 0.961 . S
H1286 C1300 0.960 . S
H1287 C1300 0.961 . S
H1288 C1300 0.959 . S
H1289 C1303 0.929 . S
H1290 C1304 0.931 . S
H1291 C1306 0.930 . S
C1292 H1280 0.930 . S
C1292 C1293 1.399 . S
C1292 C1297 1.399 . S
C1293 C1292 1.399 . S
C1293 C1294 1.376 . S
C1294 H1281 0.930 . S
C1294 C1293 1.376 . S
C1294 C1295 1.388 . S
C1295 H1282 0.930 . S
C1295 C1294 1.388 . S
C1295 C1296 1.390 . S
C1296 C1295 1.390 . S
C1296 C1297 1.394 . S
C1296 C1302 1.465 . S
C1297 C1292 1.399 . S
C1297 C1296 1.394 . S
C1297 C1298 1.516 . S
C1298 C1297 1.516 . S
C1298 C1299 1.502 . S
C1298 C1300 1.561 . S
C1298 C1301 1.526 . S
C1299 H1283 0.959 . S
C1299 H1284 0.959 . S
C1299 H1285 0.961 . S
C1299 C1298 1.502 . S
C1300 H1286 0.960 . S
C1300 H1287 0.961 . S
C1300 H1288 0.959 . S
C1300 C1298 1.561 . S
C1301 C1298 1.526 . S
C1301 C1302 1.396 . S
C1301 C1306 1.390 . S
C1302 C1296 1.465 . S
C1302 C1301 1.396 . S
C1302 C1303 1.399 . S
C1303 H1289 0.929 . S
C1303 C1302 1.399 . S
C1303 C1304 1.385 . S
C1304 H1290 0.931 . S
C1304 C1303 1.385 . S
C1304 C1305 1.389 . S
C1305 C1304 1.389 . S
C1305 C1306 1.387 . S
C1306 H1291 0.930 . S
C1306 C1301 1.390 . S
C1306 C1305 1.387 . S
H1307 C1319 0.930 . S
H1308 C1321 0.930 . S
H1309 C1322 0.930 . S
H1310 C1326 0.959 . S
H1311 C1326 0.959 . S
H1312 C1326 0.961 . S
H1313 C1327 0.960 . S
H1314 C1327 0.961 . S
H1315 C1327 0.959 . S
H1316 C1330 0.929 . S
H1317 C1331 0.931 . S
H1318 C1333 0.930 . S
C1319 H1307 0.930 . S
C1319 C1320 1.399 . S
C1319 C1324 1.399 . S
C1320 C1319 1.399 . S
C1320 C1321 1.376 . S
C1321 H1308 0.930 . S
C1321 C1320 1.376 . S
C1321 C1322 1.388 . S
C1322 H1309 0.930 . S
C1322 C1321 1.388 . S
C1322 C1323 1.390 . S
C1323 C1322 1.390 . S
C1323 C1324 1.394 . S
C1323 C1329 1.465 . S
C1324 C1319 1.399 . S
C1324 C1323 1.394 . S
C1324 C1325 1.516 . S
C1325 C1324 1.516 . S
C1325 C1326 1.502 . S
C1325 C1327 1.561 . S
C1325 C1328 1.526 . S
C1326 H1310 0.959 . S
C1326 H1311 0.959 . S
C1326 H1312 0.961 . S
C1326 C1325 1.502 . S
C1327 H1313 0.960 . S
C1327 H1314 0.961 . S
C1327 H1315 0.959 . S
C1327 C1325 1.561 . S
C1328 C1325 1.526 . S
C1328 C1329 1.396 . S
C1328 C1333 1.390 . S
C1329 C1323 1.465 . S
C1329 C1328 1.396 . S
C1329 C1330 1.399 . S
C1330 H1316 0.929 . S
C1330 C1329 1.399 . S
C1330 C1331 1.385 . S
C1331 H1317 0.931 . S
C1331 C1330 1.385 . S
C1331 C1332 1.389 . S
C1332 C1331 1.389 . S
C1332 C1333 1.387 . S
C1333 H1318 0.930 . S
C1333 C1328 1.390 . S
C1333 C1332 1.387 . S
H1334 C1346 0.930 . S
H1335 C1348 0.930 . S
H1336 C1349 0.930 . S
H1337 C1353 0.959 . S
H1338 C1353 0.959 . S
H1339 C1353 0.961 . S
H1340 C1354 0.960 . S
H1341 C1354 0.961 . S
H1342 C1354 0.959 . S
H1343 C1357 0.929 . S
H1344 C1358 0.931 . S
H1345 C1360 0.930 . S
C1346 H1334 0.930 . S
C1346 C1347 1.399 . S
C1346 C1351 1.399 . S
C1347 C1346 1.399 . S
C1347 C1348 1.376 . S
C1348 H1335 0.930 . S
C1348 C1347 1.376 . S
C1348 C1349 1.388 . S
C1349 H1336 0.930 . S
C1349 C1348 1.388 . S
C1349 C1350 1.390 . S
C1350 C1349 1.390 . S
C1350 C1351 1.394 . S
C1350 C1356 1.465 . S
C1351 C1346 1.399 . S
C1351 C1350 1.394 . S
C1351 C1352 1.516 . S
C1352 C1351 1.516 . S
C1352 C1353 1.502 . S
C1352 C1354 1.561 . S
C1352 C1355 1.526 . S
C1353 H1337 0.959 . S
C1353 H1338 0.959 . S
C1353 H1339 0.961 . S
C1353 C1352 1.502 . S
C1354 H1340 0.960 . S
C1354 H1341 0.961 . S
C1354 H1342 0.959 . S
C1354 C1352 1.561 . S
C1355 C1352 1.526 . S
C1355 C1356 1.396 . S
C1355 C1360 1.390 . S
C1356 C1350 1.465 . S
C1356 C1355 1.396 . S
C1356 C1357 1.399 . S
C1357 H1343 0.929 . S
C1357 C1356 1.399 . S
C1357 C1358 1.385 . S
C1358 H1344 0.931 . S
C1358 C1357 1.385 . S
C1358 C1359 1.389 . S
C1359 C1358 1.389 . S
C1359 C1360 1.387 . S
C1360 H1345 0.930 . S
C1360 C1355 1.390 . S
C1360 C1359 1.387 . S
H1361 C1373 0.930 . S
H1362 C1375 0.930 . S
H1363 C1376 0.930 . S
H1364 C1380 0.959 . S
H1365 C1380 0.959 . S
H1366 C1380 0.961 . S
H1367 C1381 0.960 . S
H1368 C1381 0.961 . S
H1369 C1381 0.959 . S
H1370 C1384 0.929 . S
H1371 C1385 0.931 . S
H1372 C1387 0.930 . S
C1373 H1361 0.930 . S
C1373 C1374 1.399 . S
C1373 C1378 1.399 . S
C1374 C1373 1.399 . S
C1374 C1375 1.376 . S
C1375 H1362 0.930 . S
C1375 C1374 1.376 . S
C1375 C1376 1.388 . S
C1376 H1363 0.930 . S
C1376 C1375 1.388 . S
C1376 C1377 1.390 . S
C1377 C1376 1.390 . S
C1377 C1378 1.394 . S
C1377 C1383 1.465 . S
C1378 C1373 1.399 . S
C1378 C1377 1.394 . S
C1378 C1379 1.516 . S
C1379 C1378 1.516 . S
C1379 C1380 1.502 . S
C1379 C1381 1.561 . S
C1379 C1382 1.526 . S
C1380 H1364 0.959 . S
C1380 H1365 0.959 . S
C1380 H1366 0.961 . S
C1380 C1379 1.502 . S
C1381 H1367 0.960 . S
C1381 H1368 0.961 . S
C1381 H1369 0.959 . S
C1381 C1379 1.561 . S
C1382 C1379 1.526 . S
C1382 C1383 1.396 . S
C1382 C1387 1.390 . S
C1383 C1377 1.465 . S
C1383 C1382 1.396 . S
C1383 C1384 1.399 . S
C1384 H1370 0.929 . S
C1384 C1383 1.399 . S
C1384 C1385 1.385 . S
C1385 H1371 0.931 . S
C1385 C1384 1.385 . S
C1385 C1386 1.389 . S
C1386 C1385 1.389 . S
C1386 C1387 1.387 . S
C1387 H1372 0.930 . S
C1387 C1382 1.390 . S
C1387 C1386 1.387 . S
H1388 C1400 0.930 . S
H1389 C1402 0.930 . S
H1390 C1403 0.930 . S
H1391 C1407 0.959 . S
H1392 C1407 0.959 . S
H1393 C1407 0.961 . S
H1394 C1408 0.960 . S
H1395 C1408 0.961 . S
H1396 C1408 0.959 . S
H1397 C1411 0.929 . S
H1398 C1412 0.931 . S
H1399 C1414 0.930 . S
C1400 H1388 0.930 . S
C1400 C1401 1.399 . S
C1400 C1405 1.399 . S
C1401 C1400 1.399 . S
C1401 C1402 1.376 . S
C1402 H1389 0.930 . S
C1402 C1401 1.376 . S
C1402 C1403 1.388 . S
C1403 H1390 0.930 . S
C1403 C1402 1.388 . S
C1403 C1404 1.390 . S
C1404 C1403 1.390 . S
C1404 C1405 1.394 . S
C1404 C1410 1.465 . S
C1405 C1400 1.399 . S
C1405 C1404 1.394 . S
C1405 C1406 1.516 . S
C1406 C1405 1.516 . S
C1406 C1407 1.502 . S
C1406 C1408 1.561 . S
C1406 C1409 1.526 . S
C1407 H1391 0.959 . S
C1407 H1392 0.959 . S
C1407 H1393 0.961 . S
C1407 C1406 1.502 . S
C1408 H1394 0.960 . S
C1408 H1395 0.961 . S
C1408 H1396 0.959 . S
C1408 C1406 1.561 . S
C1409 C1406 1.526 . S
C1409 C1410 1.396 . S
C1409 C1414 1.390 . S
C1410 C1404 1.465 . S
C1410 C1409 1.396 . S
C1410 C1411 1.399 . S
C1411 H1397 0.929 . S
C1411 C1410 1.399 . S
C1411 C1412 1.385 . S
C1412 H1398 0.931 . S
C1412 C1411 1.385 . S
C1412 C1413 1.389 . S
C1413 C1412 1.389 . S
C1413 C1414 1.387 . S
C1414 H1399 0.930 . S
C1414 C1409 1.390 . S
C1414 C1413 1.387 . S
H1415 C1427 0.930 . S
H1416 C1429 0.930 . S
H1417 C1430 0.930 . S
H1418 C1434 0.959 . S
H1419 C1434 0.959 . S
H1420 C1434 0.961 . S
H1421 C1435 0.960 . S
H1422 C1435 0.961 . S
H1423 C1435 0.959 . S
H1424 C1438 0.929 . S
H1425 C1439 0.931 . S
H1426 C1441 0.930 . S
C1427 H1415 0.930 . S
C1427 C1428 1.399 . S
C1427 C1432 1.399 . S
C1428 C1427 1.399 . S
C1428 C1429 1.376 . S
C1429 H1416 0.930 . S
C1429 C1428 1.376 . S
C1429 C1430 1.388 . S
C1430 H1417 0.930 . S
C1430 C1429 1.388 . S
C1430 C1431 1.390 . S
C1431 C1430 1.390 . S
C1431 C1432 1.394 . S
C1431 C1437 1.465 . S
C1432 C1427 1.399 . S
C1432 C1431 1.394 . S
C1432 C1433 1.516 . S
C1433 C1432 1.516 . S
C1433 C1434 1.502 . S
C1433 C1435 1.561 . S
C1433 C1436 1.526 . S
C1434 H1418 0.959 . S
C1434 H1419 0.959 . S
C1434 H1420 0.961 . S
C1434 C1433 1.502 . S
C1435 H1421 0.960 . S
C1435 H1422 0.961 . S
C1435 H1423 0.959 . S
C1435 C1433 1.561 . S
C1436 C1433 1.526 . S
C1436 C1437 1.396 . S
C1436 C1441 1.390 . S
C1437 C1431 1.465 . S
C1437 C1436 1.396 . S
C1437 C1438 1.399 . S
C1438 H1424 0.929 . S
C1438 C1437 1.399 . S
C1438 C1439 1.385 . S
C1439 H1425 0.931 . S
C1439 C1438 1.385 . S
C1439 C1440 1.389 . S
C1440 C1439 1.389 . S
C1440 C1441 1.387 . S
C1441 H1426 0.930 . S
C1441 C1436 1.390 . S
C1441 C1440 1.387 . S
H1442 C1454 0.930 . S
H1443 C1456 0.930 . S
H1444 C1457 0.930 . S
H1445 C1461 0.959 . S
H1446 C1461 0.959 . S
H1447 C1461 0.961 . S
H1448 C1462 0.960 . S
H1449 C1462 0.961 . S
H1450 C1462 0.959 . S
H1451 C1465 0.929 . S
H1452 C1466 0.931 . S
H1453 C1468 0.930 . S
C1454 H1442 0.930 . S
C1454 C1455 1.399 . S
C1454 C1459 1.399 . S
C1455 C1454 1.399 . S
C1455 C1456 1.376 . S
C1456 H1443 0.930 . S
C1456 C1455 1.376 . S
C1456 C1457 1.388 . S
C1457 H1444 0.930 . S
C1457 C1456 1.388 . S
C1457 C1458 1.390 . S
C1458 C1457 1.390 . S
C1458 C1459 1.394 . S
C1458 C1464 1.465 . S
C1459 C1454 1.399 . S
C1459 C1458 1.394 . S
C1459 C1460 1.516 . S
C1460 C1459 1.516 . S
C1460 C1461 1.502 . S
C1460 C1462 1.561 . S
C1460 C1463 1.526 . S
C1461 H1445 0.959 . S
C1461 H1446 0.959 . S
C1461 H1447 0.961 . S
C1461 C1460 1.502 . S
C1462 H1448 0.960 . S
C1462 H1449 0.961 . S
C1462 H1450 0.959 . S
C1462 C1460 1.561 . S
C1463 C1460 1.526 . S
C1463 C1464 1.396 . S
C1463 C1468 1.390 . S
C1464 C1458 1.465 . S
C1464 C1463 1.396 . S
C1464 C1465 1.399 . S
C1465 H1451 0.929 . S
C1465 C1464 1.399 . S
C1465 C1466 1.385 . S
C1466 H1452 0.931 . S
C1466 C1465 1.385 . S
C1466 C1467 1.389 . S
C1467 C1466 1.389 . S
C1467 C1468 1.387 . S
C1468 H1453 0.930 . S
C1468 C1463 1.390 . S
C1468 C1467 1.387 . S
H1469 C1481 0.930 . S
H1470 C1483 0.930 . S
H1471 C1484 0.930 . S
H1472 C1488 0.959 . S
H1473 C1488 0.959 . S
H1474 C1488 0.961 . S
H1475 C1489 0.960 . S
H1476 C1489 0.961 . S
H1477 C1489 0.959 . S
H1478 C1492 0.929 . S
H1479 C1493 0.931 . S
H1480 C1495 0.930 . S
C1481 H1469 0.930 . S
C1481 C1482 1.399 . S
C1481 C1486 1.399 . S
C1482 C1481 1.399 . S
C1482 C1483 1.376 . S
C1483 H1470 0.930 . S
C1483 C1482 1.376 . S
C1483 C1484 1.388 . S
C1484 H1471 0.930 . S
C1484 C1483 1.388 . S
C1484 C1485 1.390 . S
C1485 C1484 1.390 . S
C1485 C1486 1.394 . S
C1485 C1491 1.465 . S
C1486 C1481 1.399 . S
C1486 C1485 1.394 . S
C1486 C1487 1.516 . S
C1487 C1486 1.516 . S
C1487 C1488 1.502 . S
C1487 C1489 1.561 . S
C1487 C1490 1.526 . S
C1488 H1472 0.959 . S
C1488 H1473 0.959 . S
C1488 H1474 0.961 . S
C1488 C1487 1.502 . S
C1489 H1475 0.960 . S
C1489 H1476 0.961 . S
C1489 H1477 0.959 . S
C1489 C1487 1.561 . S
C1490 C1487 1.526 . S
C1490 C1491 1.396 . S
C1490 C1495 1.390 . S
C1491 C1485 1.465 . S
C1491 C1490 1.396 . S
C1491 C1492 1.399 . S
C1492 H1478 0.929 . S
C1492 C1491 1.399 . S
C1492 C1493 1.385 . S
C1493 H1479 0.931 . S
C1493 C1492 1.385 . S
C1493 C1494 1.389 . S
C1494 C1493 1.389 . S
C1494 C1495 1.387 . S
C1495 H1480 0.930 . S
C1495 C1490 1.390 . S
C1495 C1494 1.387 . S
H1496 C1508 0.930 . S
H1497 C1510 0.930 . S
H1498 C1511 0.930 . S
H1499 C1515 0.959 . S
H1500 C1515 0.959 . S
H1501 C1515 0.961 1_565 S
H1502 C1516 0.960 1_565 S
H1503 C1516 0.961 . S
H1504 C1516 0.958 1_465 S
H1505 C1519 0.929 . S
H1506 C1520 0.931 . S
H1507 C1522 0.930 1_655 S
C1508 H1496 0.930 . S
C1508 C1509 1.399 . S
C1508 C1513 1.399 . S
C1509 C1508 1.399 . S
C1509 C1510 1.376 1_655 S
C1510 H1497 0.930 . S
C1510 C1509 1.376 1_455 S
C1510 C1511 1.388 . S
C1511 H1498 0.930 . S
C1511 C1510 1.388 . S
C1511 C1512 1.390 . S
C1512 C1511 1.390 . S
C1512 C1513 1.394 1_455 S
C1512 C1518 1.465 1_565 S
C1513 C1508 1.399 . S
C1513 C1512 1.394 1_655 S
C1513 C1514 1.516 1_565 S
C1514 C1513 1.516 1_545 S
C1514 C1515 1.502 . S
C1514 C1516 1.561 . S
C1514 C1517 1.526 . S
C1515 H1499 0.959 . S
C1515 H1500 0.959 . S
C1515 H1501 0.961 1_545 S
C1515 C1514 1.502 . S
C1516 H1502 0.960 1_545 S
C1516 H1503 0.961 . S
C1516 H1504 0.958 1_645 S
C1516 C1514 1.561 . S
C1517 C1514 1.526 . S
C1517 C1518 1.396 1_655 S
C1517 C1522 1.390 1_655 S
C1518 C1512 1.465 1_545 S
C1518 C1517 1.396 1_455 S
C1518 C1519 1.399 . S
C1519 H1505 0.929 . S
C1519 C1518 1.399 . S
C1519 C1520 1.385 . S
C1520 H1506 0.931 . S
C1520 C1519 1.385 . S
C1520 C1521 1.389 . S
C1521 C1520 1.389 . S
C1521 C1522 1.387 . S
C1522 H1507 0.930 1_455 S
C1522 C1517 1.390 1_455 S
C1522 C1521 1.387 . S
H1523 C1535 0.930 . S
H1524 C1537 0.930 . S
H1525 C1538 0.930 . S
H1526 C1542 0.959 . S
H1527 C1542 0.959 . S
H1528 C1542 0.961 . S
H1529 C1543 0.960 1_655 S
H1530 C1543 0.961 . S
H1531 C1543 0.959 . S
H1532 C1546 0.929 . S
H1533 C1547 0.931 . S
H1534 C1549 0.930 . S
C1535 H1523 0.930 . S
C1535 C1536 1.399 . S
C1535 C1540 1.399 . S
C1536 C1535 1.399 . S
C1536 C1537 1.376 1_545 S
C1537 H1524 0.930 . S
C1537 C1536 1.376 1_565 S
C1537 C1538 1.388 . S
C1538 H1525 0.930 . S
C1538 C1537 1.388 . S
C1538 C1539 1.390 . S
C1539 C1538 1.390 . S
C1539 C1540 1.394 1_565 S
C1539 C1545 1.465 1_655 S
C1540 C1535 1.399 . S
C1540 C1539 1.394 1_545 S
C1540 C1541 1.516 1_655 S
C1541 C1540 1.516 1_455 S
C1541 C1542 1.502 . S
C1541 C1543 1.561 . S
C1541 C1544 1.526 . S
C1542 H1526 0.959 . S
C1542 H1527 0.959 . S
C1542 H1528 0.961 . S
C1542 C1541 1.502 . S
C1543 H1529 0.960 1_455 S
C1543 H1530 0.961 . S
C1543 H1531 0.959 . S
C1543 C1541 1.561 . S
C1544 C1541 1.526 . S
C1544 C1545 1.396 1_545 S
C1544 C1549 1.390 . S
C1545 C1539 1.465 1_455 S
C1545 C1544 1.396 1_565 S
C1545 C1546 1.399 . S
C1546 H1532 0.929 . S
C1546 C1545 1.399 . S
C1546 C1547 1.385 . S
C1547 H1533 0.931 . S
C1547 C1546 1.385 . S
C1547 C1548 1.389 . S
C1548 C1547 1.389 . S
C1548 C1549 1.387 1_565 S
C1549 H1534 0.930 . S
C1549 C1544 1.390 . S
C1549 C1548 1.387 1_545 S
H1550 C1562 0.930 1_655 S
H1551 C1564 0.930 . S
H1552 C1565 0.930 . S
H1553 C1569 0.959 . S
H1554 C1569 0.959 . S
H1555 C1569 0.961 . S
H1556 C1570 0.960 . S
H1557 C1570 0.961 1_655 S
H1558 C1570 0.959 . S
H1559 C1573 0.929 . S
H1560 C1574 0.928 1_455 S
H1561 C1576 0.930 . S
C1562 H1550 0.930 1_455 S
C1562 C1563 1.399 . S
C1562 C1567 1.399 . S
C1563 C1562 1.399 . S
C1563 C1564 1.376 . S
C1564 H1551 0.930 . S
C1564 C1563 1.376 . S
C1564 C1565 1.388 . S
C1565 H1552 0.930 . S
C1565 C1564 1.388 . S
C1565 C1566 1.390 . S
C1566 C1565 1.390 . S
C1566 C1567 1.394 . S
C1566 C1572 1.465 . S
C1567 C1562 1.399 . S
C1567 C1566 1.394 . S
C1567 C1568 1.516 1_455 S
C1568 C1567 1.516 1_655 S
C1568 C1569 1.502 . S
C1568 C1570 1.561 1_655 S
C1568 C1571 1.526 . S
C1569 H1553 0.959 . S
C1569 H1554 0.959 . S
C1569 H1555 0.961 . S
C1569 C1568 1.502 . S
C1570 H1556 0.960 . S
C1570 H1557 0.961 1_455 S
C1570 H1558 0.959 . S
C1570 C1568 1.561 1_455 S
C1571 C1568 1.526 . S
C1571 C1572 1.396 1_655 S
C1571 C1576 1.390 . S
C1572 C1566 1.465 . S
C1572 C1571 1.396 1_455 S
C1572 C1573 1.399 . S
C1573 H1559 0.929 . S
C1573 C1572 1.399 . S
C1573 C1574 1.385 1_455 S
C1574 H1560 0.928 1_655 S
C1574 C1573 1.385 1_655 S
C1574 C1575 1.389 . S
C1575 C1574 1.389 . S
C1575 C1576 1.387 . S
C1576 H1561 0.930 . S
C1576 C1571 1.390 . S
C1576 C1575 1.387 . S
H1577 C1589 0.930 . S
H1578 C1591 0.930 1_545 S
H1579 C1592 0.930 . S
H1580 C1596 0.959 . S
H1581 C1596 0.959 . S
H1582 C1596 0.961 . S
H1583 C1597 0.960 . S
H1584 C1597 0.961 . S
H1585 C1597 0.959 . S
H1586 C1600 0.929 . S
H1587 C1601 0.931 . S
H1588 C1603 0.930 . S
C1589 H1577 0.930 . S
C1589 C1590 1.399 . S
C1589 C1594 1.399 . S
C1590 C1589 1.399 . S
C1590 C1591 1.376 . S
C1591 H1578 0.930 1_565 S
C1591 C1590 1.376 . S
C1591 C1592 1.388 1_565 S
C1592 H1579 0.930 . S
C1592 C1591 1.388 1_545 S
C1592 C1593 1.390 . S
C1593 C1592 1.390 . S
C1593 C1594 1.394 1_545 S
C1593 C1599 1.465 . S
C1594 C1589 1.399 . S
C1594 C1593 1.394 1_565 S
C1594 C1595 1.516 . S
C1595 C1594 1.516 . S
C1595 C1596 1.502 . S
C1595 C1597 1.561 1_565 S
C1595 C1598 1.526 1_565 S
C1596 H1580 0.959 . S
C1596 H1581 0.959 . S
C1596 H1582 0.961 . S
C1596 C1595 1.502 . S
C1597 H1583 0.960 . S
C1597 H1584 0.961 . S
C1597 H1585 0.959 . S
C1597 C1595 1.561 1_545 S
C1598 C1595 1.526 1_545 S
C1598 C1599 1.396 . S
C1598 C1603 1.390 . S
C1599 C1593 1.465 . S
C1599 C1598 1.396 . S
C1599 C1600 1.399 . S
C1600 H1586 0.929 . S
C1600 C1599 1.399 . S
C1600 C1601 1.385 . S
C1601 H1587 0.931 . S
C1601 C1600 1.385 . S
C1601 C1602 1.389 . S
C1602 C1601 1.389 . S
C1602 C1603 1.387 . S
C1603 H1588 0.930 . S
C1603 C1598 1.390 . S
C1603 C1602 1.387 . S
H1604 C1616 0.930 . S
H1605 C1618 0.930 . S
H1606 C1619 0.930 . S
H1607 C1623 0.959 . S
H1608 C1623 0.959 . S
H1609 C1623 0.961 . S
H1610 C1624 0.960 . S
H1611 C1624 0.961 . S
H1612 C1624 0.959 . S
H1613 C1627 0.929 . S
H1614 C1628 0.931 . S
H1615 C1630 0.930 . S
C1616 H1604 0.930 . S
C1616 C1617 1.399 . S
C1616 C1621 1.399 . S
C1617 C1616 1.399 . S
C1617 C1618 1.376 . S
C1618 H1605 0.930 . S
C1618 C1617 1.376 . S
C1618 C1619 1.388 . S
C1619 H1606 0.930 . S
C1619 C1618 1.388 . S
C1619 C1620 1.390 . S
C1620 C1619 1.390 . S
C1620 C1621 1.394 . S
C1620 C1626 1.465 . S
C1621 C1616 1.399 . S
C1621 C1620 1.394 . S
C1621 C1622 1.516 . S
C1622 C1621 1.516 . S
C1622 C1623 1.502 . S
C1622 C1624 1.561 . S
C1622 C1625 1.526 . S
C1623 H1607 0.959 . S
C1623 H1608 0.959 . S
C1623 H1609 0.961 . S
C1623 C1622 1.502 . S
C1624 H1610 0.960 . S
C1624 H1611 0.961 . S
C1624 H1612 0.959 . S
C1624 C1622 1.561 . S
C1625 C1622 1.526 . S
C1625 C1626 1.396 . S
C1625 C1630 1.390 . S
C1626 C1620 1.465 . S
C1626 C1625 1.396 . S
C1626 C1627 1.399 . S
C1627 H1613 0.929 . S
C1627 C1626 1.399 . S
C1627 C1628 1.385 . S
C1628 H1614 0.931 . S
C1628 C1627 1.385 . S
C1628 C1629 1.389 . S
C1629 C1628 1.389 . S
C1629 C1630 1.387 . S
C1630 H1615 0.930 . S
C1630 C1625 1.390 . S
C1630 C1629 1.387 . S
H1631 C1643 0.930 . S
H1632 C1645 0.930 . S
H1633 C1646 0.930 . S
H1634 C1650 0.959 . S
H1635 C1650 0.959 . S
H1636 C1650 0.961 . S
H1637 C1651 0.960 . S
H1638 C1651 0.961 . S
H1639 C1651 0.959 . S
H1640 C1654 0.929 . S
H1641 C1655 0.931 . S
H1642 C1657 0.930 . S
C1643 H1631 0.930 . S
C1643 C1644 1.399 . S
C1643 C1648 1.399 . S
C1644 C1643 1.399 . S
C1644 C1645 1.376 . S
C1645 H1632 0.930 . S
C1645 C1644 1.376 . S
C1645 C1646 1.388 . S
C1646 H1633 0.930 . S
C1646 C1645 1.388 . S
C1646 C1647 1.390 . S
C1647 C1646 1.390 . S
C1647 C1648 1.394 . S
C1647 C1653 1.465 . S
C1648 C1643 1.399 . S
C1648 C1647 1.394 . S
C1648 C1649 1.516 . S
C1649 C1648 1.516 . S
C1649 C1650 1.502 . S
C1649 C1651 1.561 . S
C1649 C1652 1.526 . S
C1650 H1634 0.959 . S
C1650 H1635 0.959 . S
C1650 H1636 0.961 . S
C1650 C1649 1.502 . S
C1651 H1637 0.960 . S
C1651 H1638 0.961 . S
C1651 H1639 0.959 . S
C1651 C1649 1.561 . S
C1652 C1649 1.526 . S
C1652 C1653 1.396 . S
C1652 C1657 1.390 . S
C1653 C1647 1.465 . S
C1653 C1652 1.396 . S
C1653 C1654 1.399 . S
C1654 H1640 0.929 . S
C1654 C1653 1.399 . S
C1654 C1655 1.385 . S
C1655 H1641 0.931 . S
C1655 C1654 1.385 . S
C1655 C1656 1.389 . S
C1656 C1655 1.389 . S
C1656 C1657 1.387 . S
C1657 H1642 0.930 . S
C1657 C1652 1.390 . S
C1657 C1656 1.387 . S
H1658 C1670 0.930 . S
H1659 C1672 0.930 . S
H1660 C1673 0.930 . S
H1661 C1677 0.959 . S
H1662 C1677 0.959 1_565 S
H1663 C1677 0.961 . S
H1664 C1678 0.943 1_545 S
H1665 C1678 0.974 . S
H1666 C1678 0.966 . S
H1667 C1681 0.929 . S
H1668 C1682 0.931 . S
H1669 C1684 0.930 . S
C1670 H1658 0.930 . S
C1670 C1671 1.399 . S
C1670 C1675 1.399 . S
C1671 C1670 1.399 . S
C1671 C1672 1.376 . S
C1672 H1659 0.930 . S
C1672 C1671 1.376 . S
C1672 C1673 1.388 . S
C1673 H1660 0.930 . S
C1673 C1672 1.388 . S
C1673 C1674 1.390 . S
C1674 C1673 1.390 . S
C1674 C1675 1.394 . S
C1674 C1680 1.465 1_545 S
C1675 C1670 1.399 . S
C1675 C1674 1.394 . S
C1675 C1676 1.516 . S
C1676 C1675 1.516 . S
C1676 C1677 1.502 . S
C1676 C1678 1.559 1_545 S
C1676 C1679 1.526 1_545 S
C1677 H1661 0.959 . S
C1677 H1662 0.959 1_545 S
C1677 H1663 0.961 . S
C1677 C1676 1.502 . S
C1678 H1664 0.943 1_565 S
C1678 H1665 0.974 . S
C1678 H1666 0.966 . S
C1678 C1676 1.559 1_565 S
C1679 C1676 1.526 1_565 S
C1679 C1680 1.396 . S
C1679 C1684 1.390 . S
C1680 C1674 1.465 1_565 S
C1680 C1679 1.396 . S
C1680 C1681 1.399 . S
C1681 H1667 0.929 . S
C1681 C1680 1.399 . S
C1681 C1682 1.385 . S
C1682 H1668 0.931 . S
C1682 C1681 1.385 . S
C1682 C1683 1.389 . S
C1683 C1682 1.389 . S
C1683 C1684 1.387 . S
C1684 H1669 0.930 . S
C1684 C1679 1.390 . S
C1684 C1683 1.387 . S
H1685 C1697 0.930 . S
H1686 C1699 0.930 . S
H1687 C1700 0.930 . S
H1688 C1704 0.959 . S
H1689 C1704 0.959 1_455 S
H1690 C1704 0.961 . S
H1691 C1705 0.960 1_655 S
H1692 C1705 0.961 . S
H1693 C1705 0.959 . S
H1694 C1708 0.929 . S
H1695 C1709 0.931 . S
H1696 C1711 0.930 . S
C1697 H1685 0.930 . S
C1697 C1698 1.399 . S
C1697 C1702 1.399 . S
C1698 C1697 1.399 . S
C1698 C1699 1.376 . S
C1699 H1686 0.930 . S
C1699 C1698 1.376 . S
C1699 C1700 1.388 . S
C1700 H1687 0.930 . S
C1700 C1699 1.388 . S
C1700 C1701 1.390 . S
C1701 C1700 1.390 . S
C1701 C1702 1.394 . S
C1701 C1707 1.465 1_655 S
C1702 C1697 1.399 . S
C1702 C1701 1.394 . S
C1702 C1703 1.516 . S
C1703 C1702 1.516 . S
C1703 C1704 1.502 . S
C1703 C1705 1.561 1_655 S
C1703 C1706 1.526 1_655 S
C1704 H1688 0.959 . S
C1704 H1689 0.959 1_655 S
C1704 H1690 0.961 . S
C1704 C1703 1.502 . S
C1705 H1691 0.960 1_455 S
C1705 H1692 0.961 . S
C1705 H1693 0.959 . S
C1705 C1703 1.561 1_455 S
C1706 C1703 1.526 1_455 S
C1706 C1707 1.396 . S
C1706 C1711 1.390 . S
C1707 C1701 1.465 1_455 S
C1707 C1706 1.396 . S
C1707 C1708 1.399 . S
C1708 H1694 0.929 . S
C1708 C1707 1.399 . S
C1708 C1709 1.385 . S
C1709 H1695 0.931 . S
C1709 C1708 1.385 . S
C1709 C1710 1.389 . S
C1710 C1709 1.389 . S
C1710 C1711 1.387 . S
C1711 H1696 0.930 . S
C1711 C1706 1.390 . S
C1711 C1710 1.387 . S
C861 C22 1.647 . S
C873 C621 1.744 . S
C888 C463 1.727 . S
C900 C82 1.707 . S
C915 C515 1.735 . S
C927 C128 1.659 . S
C942 C569 1.732 . S
C954 C188 1.694 . S
C969 C303 1.727 1_545 S
C981 C234 1.714 . S
C996 C294 1.666 . S
C1008 C357 1.743 1_455 S
C1023 C340 1.647 . S
C1035 C409 1.745 1_565 S
C1050 C400 1.695 . S
C1062 C251 1.729 1_655 S
C1077 C446 1.664 . S
C1089 C197 1.748 1_565 S
C1104 C39 1.724 1_655 S
C1116 C506 1.712 . S
C1131 C91 1.724 1_545 S
C1143 C552 1.714 . S
C1158 C145 1.740 1_455 S
C1170 C612 1.666 . S
C1185 C727 1.730 . S
C1197 C658 1.712 . S
C1212 C718 1.651 . S
C1224 C781 1.746 . S
C1239 C833 1.733 . S
C1251 C764 1.709 . S
C1266 C675 1.739 . S
C1278 C824 1.667 . S
C1293 C780 2.114 . S
C1305 C38 2.108 . S
C1320 C834 2.088 . S
C1332 C92 2.080 . S
C1347 C674 2.083 . S
C1359 C144 2.092 . S
C1374 C198 2.112 . S
C1386 C728 2.094 . S
C1401 C250 2.115 . S
C1413 C568 2.108 . S
C1428 C622 2.115 . S
C1440 C304 2.098 . S
C1455 C356 2.115 . S
C1467 C462 2.109 . S
C1482 C410 2.080 . S
C1494 C516 2.096 . S
C1509 C135 1.997 . S
C1521 C29 1.992 . S
C1536 C181 2.006 . S
C1548 C75 2.013 . S
C1563 C241 2.018 . S
C1575 C347 2.022 . S
C1590 C287 2.018 . S
C1602 C393 2.023 . S
C1617 C559 1.982 . S
C1629 C453 1.985 . S
C1644 C499 1.986 . S
C1656 C605 1.984 . S
C1671 C771 2.016 . S
C1683 C665 2.021 . S
C1698 C711 1.990 . S
C1710 C817 1.986 . S
