# Generated by pormake.
# Topology wmi, (6)-cn, num edge types: 1
# Building blocks:
#     Node 0, Type 0, BuildingBlock: KUMBOL_clean_sbu_1, # of connection points: 6
#     Node 1, Type 0, BuildingBlock: KUMBOL_clean_sbu_1, # of connection points: 6
#     Node 2, Type 0, BuildingBlock: KUMBOL_clean_sbu_1, # of connection points: 6
#     Node 3, Type 0, BuildingBlock: KUMBOL_clean_sbu_1, # of connection points: 6
#     Node 4, Type 0, BuildingBlock: KUMBOL_clean_sbu_1, # of connection points: 6
#     Node 5, Type 0, BuildingBlock: KUMBOL_clean_sbu_1, # of connection points: 6
#     Node 6, Type 0, BuildingBlock: KUMBOL_clean_sbu_1, # of connection points: 6
#     Node 7, Type 0, BuildingBlock: KUMBOL_clean_sbu_1, # of connection points: 6
#     Node 8, Type 0, BuildingBlock: KUMBOL_clean_sbu_1, # of connection points: 6
#     Node 9, Type 0, BuildingBlock: KUMBOL_clean_sbu_1, # of connection points: 6
#     Node 10, Type 0, BuildingBlock: KUMBOL_clean_sbu_1, # of connection points: 6
#     Node 11, Type 0, BuildingBlock: KUMBOL_clean_sbu_1, # of connection points: 6
#     Node 12, Type 0, BuildingBlock: KUMBOL_clean_sbu_1, # of connection points: 6
#     Node 13, Type 0, BuildingBlock: KUMBOL_clean_sbu_1, # of connection points: 6
#     Node 14, Type 0, BuildingBlock: KUMBOL_clean_sbu_1, # of connection points: 6
#     Node 15, Type 0, BuildingBlock: KUMBOL_clean_sbu_1, # of connection points: 6
#     Node 16, Type 0, BuildingBlock: KUMBOL_clean_sbu_1, # of connection points: 6
#     Node 17, Type 0, BuildingBlock: KUMBOL_clean_sbu_1, # of connection points: 6
#     Edge 18, Type (0, 0), BuildingBlock: TEMPAE_clean_linker_10, # of connection points: 2
#     Edge 19, Type (0, 0), BuildingBlock: TEMPAE_clean_linker_10, # of connection points: 2
#     Edge 20, Type (0, 0), BuildingBlock: TEMPAE_clean_linker_10, # of connection points: 2
#     Edge 21, Type (0, 0), BuildingBlock: TEMPAE_clean_linker_10, # of connection points: 2
#     Edge 22, Type (0, 0), BuildingBlock: TEMPAE_clean_linker_10, # of connection points: 2
#     Edge 23, Type (0, 0), BuildingBlock: TEMPAE_clean_linker_10, # of connection points: 2
#     Edge 24, Type (0, 0), BuildingBlock: TEMPAE_clean_linker_10, # of connection points: 2
#     Edge 25, Type (0, 0), BuildingBlock: TEMPAE_clean_linker_10, # of connection points: 2
#     Edge 26, Type (0, 0), BuildingBlock: TEMPAE_clean_linker_10, # of connection points: 2
#     Edge 27, Type (0, 0), BuildingBlock: TEMPAE_clean_linker_10, # of connection points: 2
#     Edge 28, Type (0, 0), BuildingBlock: TEMPAE_clean_linker_10, # of connection points: 2
#     Edge 29, Type (0, 0), BuildingBlock: TEMPAE_clean_linker_10, # of connection points: 2
#     Edge 30, Type (0, 0), BuildingBlock: TEMPAE_clean_linker_10, # of connection points: 2
#     Edge 31, Type (0, 0), BuildingBlock: TEMPAE_clean_linker_10, # of connection points: 2
#     Edge 32, Type (0, 0), BuildingBlock: TEMPAE_clean_linker_10, # of connection points: 2
#     Edge 33, Type (0, 0), BuildingBlock: TEMPAE_clean_linker_10, # of connection points: 2
#     Edge 34, Type (0, 0), BuildingBlock: TEMPAE_clean_linker_10, # of connection points: 2
#     Edge 35, Type (0, 0), BuildingBlock: TEMPAE_clean_linker_10, # of connection points: 2
#     Edge 36, Type (0, 0), BuildingBlock: TEMPAE_clean_linker_10, # of connection points: 2
#     Edge 37, Type (0, 0), BuildingBlock: TEMPAE_clean_linker_10, # of connection points: 2
#     Edge 38, Type (0, 0), BuildingBlock: TEMPAE_clean_linker_10, # of connection points: 2
#     Edge 39, Type (0, 0), BuildingBlock: TEMPAE_clean_linker_10, # of connection points: 2
#     Edge 40, Type (0, 0), BuildingBlock: TEMPAE_clean_linker_10, # of connection points: 2
#     Edge 41, Type (0, 0), BuildingBlock: TEMPAE_clean_linker_10, # of connection points: 2
#     Edge 42, Type (0, 0), BuildingBlock: TEMPAE_clean_linker_10, # of connection points: 2
#     Edge 43, Type (0, 0), BuildingBlock: TEMPAE_clean_linker_10, # of connection points: 2
#     Edge 44, Type (0, 0), BuildingBlock: TEMPAE_clean_linker_10, # of connection points: 2
#     Edge 45, Type (0, 0), BuildingBlock: TEMPAE_clean_linker_10, # of connection points: 2
#     Edge 46, Type (0, 0), BuildingBlock: TEMPAE_clean_linker_10, # of connection points: 2
#     Edge 47, Type (0, 0), BuildingBlock: TEMPAE_clean_linker_10, # of connection points: 2
#     Edge 48, Type (0, 0), BuildingBlock: TEMPAE_clean_linker_10, # of connection points: 2
#     Edge 49, Type (0, 0), BuildingBlock: TEMPAE_clean_linker_10, # of connection points: 2
#     Edge 50, Type (0, 0), BuildingBlock: TEMPAE_clean_linker_10, # of connection points: 2
#     Edge 51, Type (0, 0), BuildingBlock: TEMPAE_clean_linker_10, # of connection points: 2
#     Edge 52, Type (0, 0), BuildingBlock: TEMPAE_clean_linker_10, # of connection points: 2
#     Edge 53, Type (0, 0), BuildingBlock: TEMPAE_clean_linker_10, # of connection points: 2
#     Edge 54, Type (0, 0), BuildingBlock: TEMPAE_clean_linker_10, # of connection points: 2
#     Edge 55, Type (0, 0), BuildingBlock: TEMPAE_clean_linker_10, # of connection points: 2
#     Edge 56, Type (0, 0), BuildingBlock: TEMPAE_clean_linker_10, # of connection points: 2
#     Edge 57, Type (0, 0), BuildingBlock: TEMPAE_clean_linker_10, # of connection points: 2
#     Edge 58, Type (0, 0), BuildingBlock: TEMPAE_clean_linker_10, # of connection points: 2
#     Edge 59, Type (0, 0), BuildingBlock: TEMPAE_clean_linker_10, # of connection points: 2
#     Edge 60, Type (0, 0), BuildingBlock: TEMPAE_clean_linker_10, # of connection points: 2
#     Edge 61, Type (0, 0), BuildingBlock: TEMPAE_clean_linker_10, # of connection points: 2
#     Edge 62, Type (0, 0), BuildingBlock: TEMPAE_clean_linker_10, # of connection points: 2
#     Edge 63, Type (0, 0), BuildingBlock: TEMPAE_clean_linker_10, # of connection points: 2
#     Edge 64, Type (0, 0), BuildingBlock: TEMPAE_clean_linker_10, # of connection points: 2
#     Edge 65, Type (0, 0), BuildingBlock: TEMPAE_clean_linker_10, # of connection points: 2
#     Edge 66, Type (0, 0), BuildingBlock: TEMPAE_clean_linker_10, # of connection points: 2
#     Edge 67, Type (0, 0), BuildingBlock: TEMPAE_clean_linker_10, # of connection points: 2
#     Edge 68, Type (0, 0), BuildingBlock: TEMPAE_clean_linker_10, # of connection points: 2
#     Edge 69, Type (0, 0), BuildingBlock: TEMPAE_clean_linker_10, # of connection points: 2
#     Edge 70, Type (0, 0), BuildingBlock: TEMPAE_clean_linker_10, # of connection points: 2
#     Edge 71, Type (0, 0), BuildingBlock: TEMPAE_clean_linker_10, # of connection points: 2
# Relax obj value: 0.064
# Max RMSD: 0.178
# Mean RMSD: 0.178
data_MOF--net-wmi--node1-KUMBOL_clean_sbu_1--edge1-TEMPAE_clean_linker_10
_symmetry_space_group_name_H-M    P1
_symmetry_Int_Tables_number       1
_symmetry_cell_setting            triclinic
loop_
_symmetry_equiv_pos_as_xyz
'x, y, z'
_cell_length_a     39.607607
_cell_length_b     39.631569
_cell_length_c     81.687378
_cell_angle_alpha  89.965643
_cell_angle_beta   89.93304
_cell_angle_gamma 119.98833
loop_
_atom_site_label
_atom_site_type_symbol
_atom_site_fract_x
_atom_site_fract_y
_atom_site_fract_z
_atom_type_partial_charge
C0 C 0.57712 0.01485 0.13225 0.0
C1 C 0.61119 0.99204 0.11477 0.0
C2 C 0.58953 0.01118 0.11679 0.0
C3 C 0.62002 0.97654 0.1285 0.0
C4 C 0.58622 0.99964 0.14608 0.0
C5 C 0.60761 0.98036 0.14411 0.0
N6 N 0.55615 0.03333 0.13373 0.0
C7 C 0.54444 0.03869 0.14874 0.0
C8 C 0.57358 1.00431 0.16148 0.0
C9 C 0.55277 0.0241 0.16282 0.0
Gd10 Gd 0.43983 0.99795 0.08559 0.0
Gd11 Gd 0.5433 0.05636 0.10942 0.0
N12 N 0.57953 0.02551 0.10369 0.0
C13 C 0.62318 0.98897 0.09899 0.0
C14 C 0.59301 0.02452 0.08845 0.0
C15 C 0.6144 1.00566 0.0858 0.0
H16 H 0.58797 0.0388 0.07836 0.0
H17 H 0.62445 1.00438 0.07361 0.0
H18 H 0.40291 0.02823 0.11558 0.0
H19 H 0.52927 0.05483 0.14993 0.0
H20 H 0.36806 0.06489 0.11823 0.0
H21 H 0.63975 0.97437 0.09691 0.0
H22 H 0.63644 0.96155 0.12717 0.0
H23 H 0.45158 0.99031 0.04546 0.0
H24 H 0.58 0.99307 0.17241 0.0
H25 H 0.54332 0.02831 0.1747 0.0
H26 H 0.35192 0.09437 0.06277 0.0
H27 H 0.61473 0.96833 0.15459 0.0
H28 H 0.40152 0.04887 0.01974 0.0
H29 H 0.4359 0.01125 0.01947 0.0
N30 N 0.42683 0.01647 0.06027 0.0
C31 C 0.40723 0.03646 0.06076 0.0
C32 C 0.43688 1.00708 0.04571 0.0
C33 C 0.40835 0.03986 0.0312 0.0
C34 C 0.42781 0.01864 0.03098 0.0
C35 C 0.39767 0.04894 0.04621 0.0
H36 H 0.37025 0.0798 0.03602 0.0
N37 N 0.40688 0.03265 0.08973 0.0
C38 C 0.39665 0.04451 0.07588 0.0
C39 C 0.36653 0.07309 0.09222 0.0
C40 C 0.37658 0.06546 0.07678 0.0
C41 C 0.39613 0.03895 0.10475 0.0
C42 C 0.37614 0.05956 0.10625 0.0
O43 O 0.51366 0.99034 0.10927 0.0
O44 O 0.47917 0.97176 0.08508 0.0
O45 O 0.38643 0.95041 0.09586 0.0
O46 O 0.40178 0.94827 0.07058 0.0
O47 O 0.54204 0.06487 0.08144 0.0
O48 O 0.49192 1.00649 0.07162 0.0
O49 O 0.47113 0.06504 0.08528 0.0
O50 O 0.50076 0.07756 0.11003 0.0
O51 O 0.59573 0.10714 0.09984 0.0
O52 O 0.58091 0.1045 0.12536 0.0
O53 O 0.44402 0.98635 0.11236 0.0
O54 O 0.48932 0.0427 0.12503 0.0
C55 C 0.49687 0.9653 0.09729 0.0
C56 C 0.52385 0.03991 0.06938 0.0
C57 C 0.3352 0.91078 0.07756 0.0
C58 C 0.27292 0.84967 0.07577 0.0
C59 C 0.28127 0.90907 0.06294 0.0
C60 C 0.31972 0.92978 0.06844 0.0
C61 C 0.25815 0.86933 0.0664 0.0
C62 C 0.31169 0.87108 0.0814 0.0
C63 C 0.37649 0.93074 0.08222 0.0
C64 C 0.36727 0.07817 0.06231 0.0
C65 C 0.37775 0.0699 0.04707 0.0
H66 H 0.35112 0.08913 0.09343 0.0
C67 C 0.49096 0.08975 0.09707 0.0
C68 C 0.4551 0.00987 0.12498 0.0
C69 C 0.64847 0.13501 0.11878 0.0
C70 C 0.71952 0.1774 0.11522 0.0
C71 C 0.69354 0.12689 0.13626 0.0
C72 C 0.65563 0.11584 0.13163 0.0
C73 C 0.7251 0.15738 0.12825 0.0
C74 C 0.68069 0.166 0.11058 0.0
C75 C 0.60751 0.12282 0.11422 0.0
H76 H 0.26952 0.9237 0.05572 0.0
H77 H 0.33748 0.96031 0.06534 0.0
H78 H 0.22893 0.85399 0.06145 0.0
H79 H 0.32391 0.85698 0.08872 0.0
H80 H 0.6985 0.11201 0.14628 0.0
H81 H 0.63194 0.09251 0.13833 0.0
H82 H 0.75407 0.16577 0.1326 0.0
H83 H 0.67549 0.18094 0.10064 0.0
C84 C 0.04626 0.58757 0.12881 0.0
C85 C 0.05804 0.64126 0.11087 0.0
C86 C 0.04587 0.60155 0.11322 0.0
C87 C 0.07241 0.66702 0.12419 0.0
C88 C 0.06075 0.61339 0.1422 0.0
C89 C 0.07419 0.65321 0.13977 0.0
N90 N 0.03226 0.54874 0.13087 0.0
C91 C 0.03113 0.53373 0.14603 0.0
C92 C 0.06081 0.59832 0.1577 0.0
C93 C 0.04581 0.55831 0.15962 0.0
Gd94 Gd 0.06983 0.46943 0.08508 0.0
Gd95 Gd 1.0074 0.51049 0.10726 0.0
N96 N 0.03295 0.5762 0.10043 0.0
C97 C 0.05453 0.6537 0.09526 0.0
C98 C 0.02917 0.58818 0.08524 0.0
C99 C 0.04034 0.62713 0.08237 0.0
H100 H 0.01578 0.56756 0.07548 0.0
H101 H 0.03694 0.63641 0.07032 0.0
H102 H 0.03993 0.4002 0.11409 0.0
H103 H 0.01821 0.50276 0.14783 0.0
H104 H 1.00333 0.32852 0.11594 0.0
H105 H 0.06172 0.68351 0.09312 0.0
H106 H 0.08212 0.69768 0.12259 0.0
H107 H 0.08367 0.49137 0.04508 0.0
H108 H 0.07179 0.61722 0.16828 0.0
H109 H 0.04504 0.54631 0.17161 0.0
H110 H 0.97777 0.28664 0.05992 0.0
H111 H 0.0854 0.67346 0.14992 0.0
H112 H 0.02819 0.38465 0.01804 0.0
H113 H 0.06643 0.45653 0.01865 0.0
N114 N 0.05515 0.43951 0.05931 0.0
C115 C 0.0352 0.39991 0.05928 0.0
C116 C 0.06675 0.45991 0.04497 0.0
C117 C 0.03568 0.39968 0.0297 0.0
C118 C 0.05722 0.44031 0.02998 0.0
C119 C 0.02456 0.37891 0.04446 0.0
H120 H 0.99499 0.32139 0.03355 0.0
N121 N 0.03664 0.40141 0.08824 0.0
C122 C 0.02591 0.38026 0.07416 0.0
C123 C 0.99657 0.3205 0.08982 0.0
C124 C 1.00518 0.33921 0.07458 0.0
C125 C 0.02984 0.38337 0.10307 0.0
C126 C 1.00928 0.3427 0.10411 0.0
O127 O 0.07336 0.54883 0.10756 0.0
O128 O 0.09437 0.53484 0.08363 0.0
O129 O 0.1165 0.46363 0.09641 0.0
O130 O 0.12223 0.48425 0.07147 0.0
O131 O 0.9999 0.49878 0.07939 0.0
O132 O 0.05993 0.51064 0.07014 0.0
O133 O 1.00271 0.43077 0.08488 0.0
O134 O 0.98259 0.44612 0.10873 0.0
O135 O 0.95694 0.51127 0.09739 0.0
O136 O 0.9614 0.50528 0.12353 0.0
O137 O 0.07784 0.48498 0.11193 0.0
O138 O 0.01905 0.46964 0.1232 0.0
C139 C 0.0975 0.55958 0.0951 0.0
C140 C 0.02602 0.50771 0.0676 0.0
C141 C 0.15874 0.45464 0.07851 0.0
C142 C 0.22088 0.45596 0.07564 0.0
C143 C 0.16168 0.40412 0.06306 0.0
C144 C 0.14021 0.42045 0.06921 0.0
C145 C 0.20171 0.42189 0.06604 0.0
C146 C 0.19869 0.47185 0.08194 0.0
C147 C 0.1382 0.47527 0.0833 0.0
C148 C 0.99384 0.31821 0.05984 0.0
C149 C 1.00359 0.338 0.04482 0.0
H150 H 0.98057 0.289 0.09067 0.0
C151 C 0.97621 0.42267 0.09639 0.0
C152 C 0.05231 0.46931 0.12379 0.0
C153 C 0.89817 0.48465 0.1125 0.0
C154 C 0.83506 0.48151 0.10913 0.0
C155 C 0.83851 0.42503 0.11892 0.0
C156 C 0.87913 0.44587 0.11783 0.0
C157 C 0.81663 0.44261 0.1147 0.0
C158 C 0.87612 0.50216 0.10802 0.0
C159 C 0.94097 0.50807 0.11166 0.0
H160 H 0.14742 0.37802 0.05566 0.0
H161 H 0.1095 0.40699 0.06639 0.0
H162 H 0.21761 0.40915 0.06053 0.0
H163 H 0.21239 0.49793 0.0894 0.0
H164 H 0.8239 0.39523 0.12326 0.0
H165 H 0.89563 0.43191 0.12126 0.0
H166 H 0.78528 0.42585 0.11613 0.0
H167 H 0.89118 0.53196 0.10362 0.0
C168 C 0.47618 0.4837 0.12975 0.0
C169 C 0.42265 0.444 0.11143 0.0
C170 C 0.46245 0.47081 0.11402 0.0
C171 C 0.39648 0.43231 0.12464 0.0
C172 C 0.44999 0.47197 0.14307 0.0
C173 C 0.41003 0.44667 0.14038 0.0
N174 N 0.51516 0.50709 0.13206 0.0
C175 C 0.52993 0.51926 0.14739 0.0
C176 C 0.46484 0.48545 0.15874 0.0
C177 C 0.505 0.50908 0.16091 0.0
Gd178 Gd 0.60109 0.62585 0.08681 0.0
Gd179 Gd 0.55399 0.52128 0.10854 0.0
N180 N 0.48821 0.48361 0.10133 0.0
C181 C 0.41056 0.42885 0.0957 0.0
C182 C 0.47645 0.469 0.08598 0.0
C183 C 0.43746 0.44173 0.08289 0.0
H184 H 0.49722 0.47657 0.07623 0.0
H185 H 0.4284 0.4298 0.07072 0.0
H186 H 0.66203 0.66709 0.11867 0.0
H187 H 0.56097 0.53611 0.14937 0.0
H188 H 0.7326 0.70048 0.12401 0.0
H189 H 0.38072 0.40652 0.09338 0.0
H190 H 0.36571 0.41202 0.12283 0.0
H191 H 0.59038 0.61431 0.04601 0.0
H192 H 0.44566 0.47721 0.16927 0.0
H193 H 0.51682 0.51898 0.17303 0.0
H194 H 0.78941 0.71022 0.07104 0.0
H195 H 0.38949 0.43735 0.15046 0.0
H196 H 0.70387 0.6598 0.02485 0.0
H197 H 0.63235 0.62735 0.02172 0.0
N198 N 0.63775 0.63813 0.06277 0.0
C199 C 0.67712 0.65712 0.06475 0.0
C200 C 0.62156 0.6279 0.04756 0.0
C201 C 0.68565 0.65403 0.03558 0.0
C202 C 0.64524 0.63559 0.03376 0.0
C203 C 0.70212 0.66524 0.05119 0.0
H204 H 0.76226 0.69061 0.04335 0.0
N205 N 0.66763 0.65931 0.09337 0.0
C206 C 0.69251 0.66829 0.08044 0.0
C207 C 0.7476 0.69883 0.09878 0.0
C208 C 0.73318 0.68772 0.08287 0.0
C209 C 0.68158 0.67168 0.10874 0.0
C210 C 0.72169 0.69116 0.11173 0.0
O211 O 0.51736 0.55068 0.10818 0.0
O212 O 0.53545 0.58735 0.08456 0.0
O213 O 0.59758 0.67494 0.09689 0.0
O214 O 0.60367 0.67079 0.07083 0.0
O215 O 0.56741 0.52616 0.08076 0.0
O216 O 0.5588 0.57635 0.07147 0.0
O217 O 0.63615 0.59381 0.0875 0.0
O218 O 0.61798 0.56041 0.1117 0.0
O219 O 0.55366 0.47088 0.09787 0.0
O220 O 0.55596 0.47765 0.12418 0.0
O221 O 0.58422 0.62058 0.11349 0.0
O222 O 0.59346 0.57296 0.12516 0.0
C223 C 0.50939 0.56683 0.09587 0.0
C224 C 0.55958 0.54415 0.06897 0.0
C225 C 0.56134 0.69265 0.07954 0.0
C226 C 0.52757 0.72984 0.08236 0.0
C227 C 0.49575 0.66664 0.06886 0.0
C228 C 0.52862 0.66316 0.07141 0.0
C229 C 0.49518 0.69971 0.07423 0.0
C230 C 0.56073 0.72601 0.08501 0.0
C231 C 0.59553 0.68794 0.08247 0.0
C232 C 0.75809 0.69546 0.0694 0.0
C233 C 0.74262 0.68428 0.05362 0.0
H234 H 0.77866 0.71385 0.10115 0.0
C235 C 0.64252 0.5756 0.09956 0.0
C236 C 0.59394 0.60662 0.12605 0.0
C237 C 0.5766 0.43515 0.11286 0.0
C238 C 0.57984 0.37557 0.1082 0.0
C239 C 0.63527 0.43354 0.11971 0.0
C240 C 0.61467 0.4536 0.11899 0.0
C241 C 0.6182 0.39501 0.11429 0.0
C242 C 0.55918 0.39605 0.10756 0.0
C243 C 0.55421 0.45573 0.11194 0.0
H244 H 0.47073 0.64375 0.06257 0.0
H245 H 0.52851 0.63745 0.0669 0.0
H246 H 0.46955 0.70198 0.0717 0.0
H247 H 0.58582 0.74865 0.09139 0.0
H248 H 0.66459 0.44781 0.12453 0.0
H249 H 0.62827 0.48331 0.12332 0.0
H250 H 0.63481 0.38015 0.11522 0.0
H251 H 0.52965 0.38171 0.10286 0.0
C252 C 0.02384 0.56902 0.88423 0.0
C253 C 1.00676 0.60976 0.90032 0.0
C254 C 0.02222 0.58463 0.89916 0.0
C255 C 0.99208 0.61825 0.88624 0.0
C256 C 1.0103 0.57853 0.86995 0.0
C257 C 0.99358 0.60245 0.87111 0.0
N258 N 0.04164 0.5473 0.88344 0.0
C259 C 0.04975 0.53716 0.86857 0.0
C260 C 0.01568 0.56531 0.85484 0.0
C261 C 0.03608 0.5451 0.85413 0.0
Gd262 Gd 0.993 0.42691 0.93101 0.0
Gd263 Gd 0.06337 0.53519 0.9085 0.0
N264 N 0.03733 0.57644 0.91249 0.0
C265 C 1.00754 0.62647 0.91552 0.0
C266 C 0.04052 0.59465 0.92709 0.0
C267 C 0.02489 0.61921 0.92891 0.0
H268 H 0.05442 0.5895 0.93739 0.0
H269 H 0.02644 0.63271 0.94062 0.0
H270 H 0.95345 0.3507 0.90507 0.0
H271 H 0.06718 0.52323 0.86772 0.0
H272 H 0.95777 0.29182 0.8994 0.0
H273 H 0.9957 0.64574 0.91693 0.0
H274 H 0.98012 0.63755 0.88687 0.0
H275 H 0.02658 0.45243 0.96902 0.0
H276 H 1.00567 0.57197 0.8436 0.0
H277 H 0.04186 0.53615 0.84243 0.0
H278 H 0.0456 0.29372 0.94024 0.0
H279 H 0.98287 0.60991 0.86029 0.0
H280 H 0.08114 0.38722 0.98345 0.0
H281 H 0.06405 0.43814 0.98932 0.0
N282 N 0.02606 0.41304 0.95137 0.0
C283 C 0.0325 0.38302 0.94841 0.0
C284 C 0.0353 0.43138 0.96618 0.0
C285 C 0.06545 0.39403 0.9744 0.0
C286 C 0.05594 0.42285 0.97776 0.0
C287 C 0.05286 0.373 0.95975 0.0
H288 H 0.07458 0.3336 0.96486 0.0
N289 N 0.995 0.3701 0.92438 0.0
C290 C 0.0166 0.36097 0.93443 0.0
C291 C 0.99962 0.30335 0.91847 0.0
C292 C 0.02008 0.32773 0.93158 0.0
C293 C 0.97289 0.34495 0.91229 0.0
C294 C 0.97512 0.31146 0.90907 0.0
O295 O 1.00345 0.51877 0.91728 0.0
O296 O 0.96848 0.45292 0.9129 0.0
O297 O 0.93547 0.37486 0.93284 0.0
O298 O 0.95422 0.4196 0.95117 0.0
O299 O 0.06788 0.5303 0.93634 0.0
O300 O 1.00516 0.48278 0.94311 0.0
O301 O 0.05964 0.45594 0.93416 0.0
O302 O 0.07576 0.48621 0.90964 0.0
O303 O 0.11592 0.58426 0.91905 0.0
O304 O 0.11466 0.57071 0.8936 0.0
O305 O 0.99538 0.42303 0.90341 0.0
O306 O 0.04295 0.48196 0.89133 0.0
C307 C 0.97015 0.4866 0.91512 0.0
C308 C 0.03905 0.51266 0.94701 0.0
C309 C 0.88656 0.38515 0.94469 0.0
C310 C 0.81564 0.34674 0.94016 0.0
C311 C 0.84606 0.41408 0.94962 0.0
C312 C 0.8826 0.41711 0.94935 0.0
C313 C 0.81289 0.37931 0.94524 0.0
C314 C 0.85301 0.35017 0.93994 0.0
C315 C 0.92519 0.38762 0.94542 0.0
C316 C 0.0422 0.31885 0.94235 0.0
C317 C 0.05864 0.34151 0.95639 0.0
H318 H 1.00123 0.27735 0.91595 0.0
C319 C 0.08628 0.47624 0.92302 0.0
C320 C 0.01623 0.4441 0.89076 0.0
C321 C 0.14583 0.63771 0.90046 0.0
C322 C 0.18876 0.70856 0.90382 0.0
C323 C 0.13664 0.68312 0.8836 0.0
C324 C 0.12585 0.6452 0.88806 0.0
C325 C 0.16776 0.71445 0.89132 0.0
C326 C 0.17764 0.66971 0.90832 0.0
C327 C 0.1329 0.59652 0.90493 0.0
H328 H 0.84339 0.43869 0.95355 0.0
H329 H 0.90764 0.44443 0.95302 0.0
H330 H 0.78499 0.37794 0.94622 0.0
H331 H 0.85626 0.3258 0.93609 0.0
H332 H 0.12101 0.68825 0.87396 0.0
H333 H 0.10198 0.62172 0.88156 0.0
H334 H 0.17591 0.74353 0.88719 0.0
H335 H 0.19336 0.66441 0.91788 0.0
C336 C 0.48261 0.47019 0.88625 0.0
C337 C 0.45359 0.41285 0.90375 0.0
C338 C 0.47434 0.45366 0.9018 0.0
C339 C 0.44164 0.38885 0.88984 0.0
C340 C 0.47041 0.44615 0.87227 0.0
C341 C 0.45007 0.40544 0.87415 0.0
N342 N 0.50269 0.5097 0.88481 0.0
C343 C 0.51026 0.52702 0.86977 0.0
C344 C 0.47898 0.46375 0.8568 0.0
C345 C 0.4988 0.50434 0.85556 0.0
Gd346 Gd 0.62927 0.58918 0.92763 0.0
Gd347 Gd 0.52076 0.54462 0.9095 0.0
N348 N 0.48769 0.47761 0.91504 0.0
C349 C 0.44567 0.39745 0.91963 0.0
C350 C 0.47856 0.46287 0.93051 0.0
C351 C 0.45798 0.42258 0.93307 0.0
H352 H 0.48689 0.48216 0.94085 0.0
H353 H 0.45137 0.41095 0.94538 0.0
H354 H 0.66608 0.65507 0.89731 0.0
H355 H 0.5246 0.55833 0.86865 0.0
H356 H 0.70195 0.72654 0.89418 0.0
H357 H 0.42964 0.36626 0.92164 0.0
H358 H 0.42592 0.35742 0.89109 0.0
H359 H 0.62685 0.57095 0.96796 0.0
H360 H 0.47012 0.44629 0.84576 0.0
H361 H 0.50503 0.51818 0.84365 0.0
H362 H 0.7262 0.77406 0.94945 0.0
H363 H 0.44062 0.38652 0.86354 0.0
H364 H 0.68187 0.68039 0.99303 0.0
H365 H 0.64698 0.6085 0.99374 0.0
N366 N 0.64922 0.62135 0.95283 0.0
C367 C 0.66925 0.66092 0.95212 0.0
C368 C 0.64164 0.60239 0.9675 0.0
C369 C 0.67301 0.66417 0.98166 0.0
C370 C 0.65322 0.62352 0.98212 0.0
C371 C 0.68152 0.68342 0.96655 0.0
H372 H 0.71141 0.74201 0.9764 0.0
N373 N 0.66487 0.6566 0.9232 0.0
C374 C 0.67767 0.67908 0.93689 0.0
C375 C 0.70675 0.73721 0.92018 0.0
C376 C 0.69847 0.72006 0.93574 0.0
C377 C 0.67438 0.67305 0.90803 0.0
C378 C 0.69502 0.71357 0.90626 0.0
O379 O 0.55017 0.50756 0.90822 0.0
O380 O 0.58943 0.52456 0.93096 0.0
O381 O 0.67148 0.5835 0.9128 0.0
O382 O 0.67571 0.58366 0.93926 0.0
O383 O 0.53079 0.55886 0.93712 0.0
O384 O 0.58142 0.54881 0.9443 0.0
O385 O 0.60178 0.62853 0.92816 0.0
O386 O 0.55711 0.60956 0.90699 0.0
O387 O 0.47071 0.53833 0.92305 0.0
O388 O 0.47361 0.54739 0.89692 0.0
O389 O 0.61478 0.57156 0.90123 0.0
O390 O 0.56915 0.58543 0.89164 0.0
C391 C 0.56869 0.4994 0.91952 0.0
C392 C 0.55064 0.55126 0.94811 0.0
C393 C 0.7327 0.59961 0.92392 0.0
C394 C 0.79025 0.59275 0.9202 0.0
C395 C 0.79656 0.65712 0.922 0.0
C396 C 0.75625 0.64022 0.92384 0.0
C397 C 0.81351 0.63368 0.92018 0.0
C398 C 0.74969 0.57603 0.92212 0.0
C399 C 0.69022 0.58078 0.92536 0.0
C400 C 0.71034 0.74253 0.95009 0.0
C401 C 0.7019 0.72427 0.96545 0.0
H402 H 0.72261 0.7686 0.91877 0.0
C403 C 0.57987 0.63509 0.91791 0.0
C404 C 0.60311 0.58688 0.88999 0.0
C405 C 0.43415 0.56555 0.91244 0.0
C406 C 0.37497 0.56877 0.91862 0.0
C407 C 0.43739 0.6281 0.91404 0.0
C408 C 0.45574 0.60626 0.91157 0.0
C409 C 0.3975 0.60968 0.9175 0.0
C410 C 0.39381 0.54687 0.91597 0.0
C411 C 0.45339 0.54214 0.91023 0.0
H412 H 0.81478 0.68852 0.92198 0.0
H413 H 0.74347 0.65869 0.92515 0.0
H414 H 0.84489 0.64761 0.91899 0.0
H415 H 0.73115 0.54461 0.92195 0.0
H416 H 0.45415 0.65952 0.91324 0.0
H417 H 0.48674 0.62111 0.90901 0.0
H418 H 0.3842 0.62761 0.91905 0.0
H419 H 0.37734 0.51539 0.9169 0.0
C420 C 0.59402 0.05559 0.88648 0.0
C421 C 0.65141 0.0839 0.90383 0.0
C422 C 0.61066 0.06128 0.90191 0.0
C423 C 0.67515 0.10086 0.89002 0.0
C424 C 0.61778 0.07219 0.87257 0.0
C425 C 0.65838 0.09502 0.87444 0.0
N426 N 0.55464 0.03333 0.88508 0.0
C427 C 0.53727 0.0255 0.87007 0.0
C428 C 0.60003 0.06511 0.85718 0.0
C429 C 0.55962 0.04149 0.85592 0.0
Gd430 Gd 0.46361 0.05834 0.93144 0.0
Gd431 Gd 0.51962 1.00867 0.90958 0.0
N432 N 0.58679 0.04531 0.91508 0.0
C433 C 0.66704 0.08894 0.91959 0.0
C434 C 0.602 0.04859 0.93034 0.0
C435 C 0.64223 0.07093 0.93288 0.0
H436 H 0.58336 0.03375 0.94058 0.0
H437 H 0.65409 0.07398 0.94507 0.0
H438 H 0.41136 0.05467 0.89806 0.0
H439 H 0.50618 1.00646 0.86891 0.0
H440 H 0.34446 0.01464 0.88773 0.0
H441 H 0.69819 0.1062 0.92159 0.0
H442 H 0.7065 0.11853 0.89127 0.0
H443 H 0.461 0.03958 0.97144 0.0
H444 H 0.61726 0.07735 0.84619 0.0
H445 H 0.54569 0.03538 0.84405 0.0
H446 H 0.27392 0.93571 0.93386 0.0
H447 H 0.67709 0.10815 0.86389 0.0
H448 H 0.34353 0.95508 0.98418 0.0
H449 H 0.41256 0.99704 0.99205 0.0
N450 N 0.41968 0.02139 0.95215 0.0
C451 C 0.38167 0.99956 0.94764 0.0
C452 C 0.43094 0.02114 0.96789 0.0
C453 C 0.36457 0.97375 0.9751 0.0
C454 C 0.40357 0.9973 0.97959 0.0
C455 C 0.35314 0.97471 0.95897 0.0
H456 H 0.29208 0.93195 0.96231 0.0
N457 N 0.39997 0.02512 0.92075 0.0
C458 C 0.3716 1.0012 0.93146 0.0
C459 C 0.32299 0.98255 0.91027 0.0
C460 C 0.33248 0.97862 0.92638 0.0
C461 C 0.39018 0.03167 0.90559 0.0
C462 C 0.35185 0.00985 0.89993 0.0
O463 O 0.55146 0.07506 0.91016 0.0
O464 O 0.52947 0.0925 0.9331 0.0
O465 O 0.46134 0.11032 0.92445 0.0
O466 O 0.45622 0.09354 0.94986 0.0
O467 O 0.51057 1.00222 0.93761 0.0
O468 O 0.50878 0.05663 0.94714 0.0
O469 O 0.43911 0.99243 0.93273 0.0
O470 O 0.45444 0.97886 0.90766 0.0
O471 O 0.52568 0.96112 0.92016 0.0
O472 O 0.5163 0.96222 0.89429 0.0
O473 O 0.48142 0.07208 0.90491 0.0
O474 O 0.47686 0.01688 0.89345 0.0
C475 C 0.55643 0.09961 0.92202 0.0
C476 C 0.51519 0.02748 0.94927 0.0
C477 C 0.49423 0.16062 0.94379 0.0
C478 C 0.52752 0.23147 0.94036 0.0
C479 C 0.55578 0.20191 0.95757 0.0
C480 C 0.5246 0.16503 0.9541 0.0
C481 C 0.55743 0.23487 0.95071 0.0
C482 C 0.4957 0.19406 0.937 0.0
C483 C 0.46229 0.12113 0.93958 0.0
C484 C 0.30406 0.95345 0.93759 0.0
C485 C 0.31436 0.95145 0.95382 0.0
H486 H 0.29328 0.96574 0.90589 0.0
C487 C 0.43116 0.96859 0.92032 0.0
C488 C 0.47493 0.0492 0.89226 0.0
C489 C 0.55528 0.93511 0.90254 0.0
C490 C 0.58206 0.89068 0.90465 0.0
C491 C 0.61465 0.94976 0.88803 0.0
C492 C 0.58642 0.95931 0.89221 0.0
C493 C 0.6124 0.9158 0.89402 0.0
C494 C 0.55321 0.90067 0.90882 0.0
C495 C 0.52444 0.94525 0.90605 0.0
H496 H 0.57876 0.20498 0.96565 0.0
H497 H 0.52443 0.13993 0.95945 0.0
H498 H 0.58187 0.2632 0.95375 0.0
H499 H 0.47258 0.19091 0.92895 0.0
H500 H 0.63815 0.96852 0.87985 0.0
H501 H 0.5886 0.98533 0.887 0.0
H502 H 0.63425 0.90891 0.88993 0.0
H503 H 0.52932 0.88189 0.91684 0.0
C504 C 0.24286 0.3432 0.45923 0.0
C505 C 0.28125 0.33071 0.43955 0.0
C506 C 0.25621 0.34536 0.4433 0.0
C507 C 0.29173 0.31297 0.45187 0.0
C508 C 0.25336 0.32542 0.47163 0.0
C509 C 0.27765 0.31013 0.46784 0.0
N510 N 0.21969 0.3586 0.46259 0.0
C511 C 0.20678 0.35801 0.47814 0.0
C512 C 0.23937 0.32382 0.48752 0.0
C513 C 0.2161 0.34031 0.49079 0.0
Gd514 Gd 0.1015 0.33047 0.41918 0.0
Gd515 Gd 0.20689 0.38864 0.44063 0.0
N516 N 0.24519 0.36229 0.43155 0.0
C517 C 0.29565 0.33502 0.42358 0.0
C518 C 0.26076 0.36824 0.41621 0.0
C519 C 0.28548 0.35401 0.41188 0.0
H520 H 0.25569 0.38533 0.40739 0.0
H521 H 0.29746 0.35859 0.39964 0.0
H522 H 0.06123 0.3526 0.45086 0.0
H523 H 0.18987 0.37177 0.48095 0.0
H524 H 0.02955 0.39155 0.45584 0.0
H525 H 0.31548 0.32479 0.42026 0.0
H526 H 0.31088 0.3015 0.4492 0.0
H527 H 0.11154 0.32836 0.3785 0.0
H528 H 0.24674 0.31035 0.49738 0.0
H529 H 0.20566 0.33976 0.5031 0.0
H530 H 0.01912 0.43574 0.40236 0.0
H531 H 0.286 0.29635 0.47721 0.0
H532 H 0.06648 0.39586 0.35654 0.0
H533 H 0.09802 0.35582 0.35389 0.0
N534 N 0.08832 0.35317 0.39493 0.0
C535 C 0.0698 0.37406 0.39668 0.0
C536 C 0.09807 0.34613 0.37981 0.0
C537 C 0.07227 0.38389 0.3674 0.0
C538 C 0.09021 0.36139 0.36584 0.0
C539 C 0.06171 0.3904 0.38295 0.0
H540 H 0.03725 0.42568 0.37474 0.0
N541 N 0.06831 0.36415 0.42539 0.0
C542 C 0.05928 0.37952 0.41232 0.0
C543 C 0.0306 0.40656 0.43041 0.0
C544 C 0.04077 0.40171 0.41453 0.0
C545 C 0.05667 0.3671 0.44076 0.0
C546 C 0.03815 0.38876 0.44355 0.0
O547 O 0.17527 0.32231 0.4412 0.0
O548 O 0.14036 0.30383 0.41721 0.0
O549 O 0.053 0.27822 0.42985 0.0
O550 O 0.0562 0.28707 0.4037 0.0
O551 O 0.20172 0.397 0.41288 0.0
O552 O 0.15142 0.33771 0.40396 0.0
O553 O 0.13362 0.3973 0.4191 0.0
O554 O 0.16865 0.41507 0.44295 0.0
O555 O 0.25996 0.44082 0.43236 0.0
O556 O 0.2453 0.43259 0.45799 0.0
O557 O 0.10683 0.32064 0.446 0.0
O558 O 0.15556 0.37738 0.45734 0.0
C559 C 0.15996 0.2981 0.42885 0.0
C560 C 0.18343 0.37082 0.40123 0.0
C561 C 0.03502 0.22344 0.41301 0.0
C562 C 0.99859 0.15268 0.41676 0.0
C563 C 0.0607 0.18363 0.40226 0.0
C564 C 0.06404 0.21997 0.40454 0.0
C565 C 0.02824 0.15022 0.40824 0.0
C566 C 1.00231 0.18971 0.41914 0.0
C567 C 0.03958 0.26237 0.4156 0.0
C568 C 0.03313 0.41842 0.40088 0.0
C569 C 0.04348 0.41271 0.38514 0.0
H570 H 0.01644 0.4235 0.43263 0.0
C571 C 0.15162 0.42253 0.43093 0.0
C572 C 0.12134 0.34486 0.45835 0.0
C573 C 0.31279 0.46351 0.45125 0.0
C574 C 0.38399 0.50557 0.44798 0.0
C575 C 0.35724 0.45135 0.46732 0.0
C576 C 0.3195 0.44183 0.4631 0.0
C577 C 0.38911 0.4829 0.45996 0.0
C578 C 0.34531 0.49556 0.44369 0.0
C579 C 0.272 0.45303 0.44717 0.0
H580 H 0.08319 0.18129 0.39568 0.0
H581 H 0.08924 0.24539 0.39956 0.0
H582 H 0.02604 0.12231 0.40586 0.0
H583 H 0.98008 0.19238 0.42579 0.0
H584 H 0.36185 0.43449 0.47656 0.0
H585 H 0.29559 0.41774 0.46938 0.0
H586 H 0.41793 0.49005 0.46403 0.0
H587 H 0.34045 0.51249 0.43455 0.0
C588 C 0.71777 0.92166 0.46226 0.0
C589 C 0.74019 0.97571 0.4432 0.0
C590 C 0.72066 0.93529 0.44635 0.0
C591 C 0.75699 1.00208 0.45622 0.0
C592 C 0.73436 0.94805 0.47537 0.0
C593 C 0.75404 0.9883 0.47225 0.0
N594 N 0.699 0.88253 0.46488 0.0
C595 C 0.69473 0.86786 0.48034 0.0
C596 C 0.73074 0.93318 0.49122 0.0
C597 C 0.71068 0.89292 0.49372 0.0
Gd598 Gd 0.73308 0.79681 0.42027 0.0
Gd599 Gd 0.67338 0.84285 0.4417 0.0
N600 N 0.70486 0.909 0.43394 0.0
C601 C 0.74217 0.98842 0.42707 0.0
C602 C 0.70445 0.92135 0.4184 0.0
C603 C 0.72378 0.9611 0.41465 0.0
H604 H 0.68839 0.90091 0.40889 0.0
H605 H 0.72393 0.97064 0.40222 0.0
H606 H 0.70508 0.73067 0.45061 0.0
H607 H 0.67845 0.83684 0.48243 0.0
H608 H 0.66651 0.65941 0.4539 0.0
H609 H 0.757 0.01921 0.42414 0.0
H610 H 0.77228 0.03321 0.45401 0.0
H611 H 0.7405 0.81432 0.37993 0.0
H612 H 0.74307 0.95251 0.50162 0.0
H613 H 0.70732 0.88115 0.50595 0.0
H614 H 0.63216 0.61163 0.39893 0.0
H615 H 0.76712 0.00901 0.48216 0.0
H616 H 0.67754 0.70486 0.35518 0.0
H617 H 0.71721 0.77671 0.3543 0.0
N618 N 0.71387 0.76414 0.39519 0.0
C619 C 0.69314 0.72459 0.39597 0.0
C620 C 0.72294 0.78295 0.38047 0.0
C621 C 0.68774 0.72115 0.36648 0.0
C622 C 0.70998 0.76175 0.36592 0.0
C623 C 0.67919 0.70202 0.38162 0.0
H624 H 0.64605 0.64344 0.37193 0.0
N625 N 0.69867 0.72926 0.42484 0.0
C626 C 0.68553 0.70659 0.41121 0.0
C627 C 0.65626 0.64864 0.42803 0.0
C628 C 0.6635 0.66566 0.41246 0.0
C629 C 0.69303 0.71279 0.43997 0.0
C630 C 0.67141 0.67232 0.44183 0.0
O631 O 0.73948 0.87639 0.44378 0.0
O632 O 0.75976 0.86224 0.41975 0.0
O633 O 0.78102 0.79267 0.43127 0.0
O634 O 0.78274 0.80699 0.40556 0.0
O635 O 0.6671 0.83137 0.41374 0.0
O636 O 0.72724 0.84128 0.40583 0.0
O637 O 0.66614 0.76181 0.4194 0.0
O638 O 0.64677 0.77798 0.44322 0.0
O639 O 0.62347 0.84601 0.43207 0.0
O640 O 0.62663 0.83621 0.45779 0.0
O641 O 0.7408 0.81023 0.44727 0.0
O642 O 0.68362 0.80188 0.45841 0.0
C643 C 0.76547 0.88571 0.43211 0.0
C644 C 0.69406 0.83926 0.40241 0.0
C645 C 0.82162 0.78029 0.41372 0.0
C646 C 0.8838 0.78087 0.41315 0.0
C647 C 0.82647 0.72978 0.39915 0.0
C648 C 0.80437 0.74635 0.40424 0.0
C649 C 0.86588 0.74705 0.40334 0.0
C650 C 0.8609 0.79697 0.4184 0.0
C651 C 0.80063 0.80107 0.4176 0.0
C652 C 0.64927 0.64312 0.3982 0.0
C653 C 0.65715 0.66124 0.38282 0.0
H654 H 0.63934 0.6173 0.42952 0.0
C655 C 0.6401 0.75408 0.43101 0.0
C656 C 0.71572 0.79926 0.45939 0.0
C657 C 0.59768 0.87424 0.45041 0.0
C658 C 0.5558 0.90337 0.4467 0.0
C659 C 0.61003 0.93161 0.46593 0.0
C660 C 0.61934 0.90304 0.46208 0.0
C661 C 0.57864 0.93181 0.45838 0.0
C662 C 0.56558 0.87437 0.44277 0.0
C663 C 0.60846 0.84409 0.44647 0.0
H664 H 0.81324 0.70388 0.3916 0.0
H665 H 0.77418 0.73326 0.40049 0.0
H666 H 0.88233 0.73416 0.39856 0.0
H667 H 0.87351 0.82281 0.426 0.0
H668 H 0.62696 0.95348 0.47501 0.0
H669 H 0.64327 0.90331 0.46849 0.0
H670 H 0.57167 0.95388 0.46206 0.0
H671 H 0.54846 0.85216 0.43382 0.0
C672 C 0.14141 0.81443 0.46359 0.0
C673 C 0.08959 0.7715 0.44521 0.0
C674 C 0.12883 0.80008 0.4479 0.0
C675 C 0.06303 0.75875 0.45832 0.0
C676 C 0.11471 0.80206 0.47673 0.0
C677 C 0.07543 0.77438 0.47398 0.0
N678 N 0.17987 0.84018 0.46603 0.0
C679 C 0.19363 0.8543 0.48129 0.0
C680 C 0.12844 0.81737 0.49232 0.0
C681 C 0.16808 0.84357 0.49461 0.0
Gd682 Gd 0.26466 0.96166 0.42318 0.0
Gd683 Gd 0.22035 0.85394 0.44312 0.0
N684 N 0.1551 0.81333 0.43537 0.0
C685 C 0.07837 0.75588 0.4295 0.0
C686 C 0.14416 0.79803 0.42005 0.0
C687 C 0.10565 0.76949 0.41684 0.0
H688 H 0.16511 0.80614 0.41035 0.0
H689 H 0.09729 0.75722 0.4047 0.0
H690 H 0.29458 0.02447 0.45487 0.0
H691 H 0.22439 0.87319 0.48337 0.0
H692 H 0.35664 0.07196 0.46778 0.0
H693 H 0.04886 0.7329 0.42706 0.0
H694 H 0.0328 0.73673 0.45648 0.0
H695 H 0.28871 0.94571 0.38563 0.0
H696 H 0.10881 0.80869 0.50271 0.0
H697 H 0.17909 0.85501 0.50668 0.0
H698 H 0.45461 0.07048 0.43384 0.0
H699 H 0.05454 0.76437 0.48394 0.0
H700 H 0.41322 1.00156 0.38303 0.0
H701 H 0.3486 0.96138 0.37016 0.0
N702 N 0.31931 0.97591 0.40701 0.0
C703 C 0.35456 0.99992 0.41398 0.0
C704 C 0.31683 0.96336 0.39123 0.0
C705 C 0.38708 0.99488 0.38981 0.0
C706 C 0.35065 0.97218 0.3825 0.0
C707 C 0.38942 0.00954 0.40563 0.0
H708 H 0.45249 0.04126 0.40704 0.0
N709 N 0.32151 1.00647 0.43701 0.0
C710 C 0.35564 0.0153 0.42943 0.0
C711 C 0.39196 0.06166 0.45073 0.0
C712 C 0.39181 0.04221 0.43642 0.0
C713 C 0.32159 0.02811 0.45002 0.0
C714 C 0.35674 0.05554 0.45723 0.0
O715 O 0.18442 0.88368 0.44594 0.0
O716 O 0.19857 0.92344 0.42337 0.0
O717 O 0.25746 0.01318 0.42551 0.0
O718 O 0.26448 0.99294 0.40154 0.0
O719 O 0.22953 0.85978 0.41504 0.0
O720 O 0.2208 0.91141 0.40865 0.0
O721 O 0.29649 0.92669 0.42039 0.0
O722 O 0.28505 0.89331 0.44444 0.0
O723 O 0.2201 0.8015 0.43447 0.0
O724 O 0.22994 0.81723 0.45996 0.0
O725 O 0.24961 0.95417 0.45024 0.0
O726 O 0.26219 0.90588 0.45887 0.0
C727 C 0.17373 0.89923 0.43433 0.0
C728 C 0.22238 0.88052 0.40429 0.0
C729 C 0.25814 0.05066 0.40129 0.0
C730 C 0.24549 0.10515 0.40107 0.0
C731 C 0.26986 0.08942 0.37663 0.0
C732 C 0.27006 0.0587 0.38485 0.0
C733 C 0.25786 0.11261 0.38468 0.0
C734 C 0.24544 0.07387 0.40938 0.0
C735 C 0.26 0.01853 0.40973 0.0
C736 C 0.4266 0.05042 0.42848 0.0
C737 C 0.4254 0.03396 0.41317 0.0
H738 H 0.41912 0.08282 0.4564 0.0
C739 C 0.30795 0.91197 0.43214 0.0
C740 C 0.26152 0.93852 0.46142 0.0
C741 C 0.19321 0.74958 0.45391 0.0
C742 C 0.16291 0.67853 0.45037 0.0
C743 C 0.14024 0.70535 0.47176 0.0
C744 C 0.16781 0.743 0.46711 0.0
C745 C 0.13786 0.67345 0.46357 0.0
C746 C 0.19071 0.71706 0.44557 0.0
C747 C 0.22253 0.79021 0.44919 0.0
H748 H 0.27922 0.09539 0.36399 0.0
H749 H 0.27996 0.04145 0.37831 0.0
H750 H 0.25795 0.13634 0.37804 0.0
H751 H 0.23616 0.06808 0.42205 0.0
H752 H 0.121 0.70084 0.48198 0.0
H753 H 0.16945 0.76693 0.47407 0.0
H754 H 0.11693 0.64464 0.46796 0.0
H755 H 0.2103 0.72178 0.43545 0.0
C756 C 0.68897 0.91598 0.22267 0.0
C757 C 0.68136 0.95851 0.24182 0.0
C758 C 0.69225 0.93032 0.23848 0.0
C759 C 0.66623 0.9712 0.22923 0.0
C760 C 0.67357 0.92853 0.21003 0.0
C761 C 0.66208 0.95605 0.21341 0.0
N762 N 0.70071 0.88965 0.21967 0.0
C763 C 0.6986 0.87534 0.20429 0.0
C764 C 0.67045 0.91323 0.1943 0.0
C765 C 0.6831 0.8866 0.19142 0.0
Gd766 Gd 0.66503 0.77064 0.2637 0.0
Gd767 Gd 0.72833 0.87465 0.24186 0.0
N768 N 0.70654 0.91712 0.25051 0.0
C769 C 0.68668 0.97366 0.25767 0.0
C770 C 0.713 0.93291 0.26582 0.0
C771 C 0.70253 0.96079 0.26971 0.0
H772 H 0.72779 0.92565 0.27496 0.0
H773 H 0.70767 0.9731 0.28189 0.0
H774 H 0.68897 0.72968 0.23303 0.0
H775 H 0.70955 0.85585 0.20176 0.0
H776 H 0.72325 0.69282 0.22937 0.0
H777 H 0.6795 0.99597 0.26065 0.0
H778 H 0.65772 0.99282 0.23159 0.0
H779 H 0.6596 0.78114 0.30413 0.0
H780 H 0.65872 0.9221 0.18427 0.0
H781 H 0.68137 0.87508 0.17925 0.0
H782 H 0.7567 0.67602 0.28404 0.0
H783 H 0.65024 0.96606 0.20385 0.0
H784 H 0.71743 0.72824 0.32826 0.0
H785 H 0.68143 0.76417 0.32954 0.0
N786 N 0.6837 0.75557 0.28859 0.0
C787 C 0.70247 0.73478 0.28758 0.0
C788 C 0.67566 0.76576 0.30341 0.0
C789 C 0.70794 0.73555 0.31705 0.0
C790 C 0.68772 0.75597 0.31783 0.0
C791 C 0.71536 0.72447 0.30181 0.0
H792 H 0.74529 0.69532 0.31119 0.0
N793 N 0.69666 0.73483 0.25872 0.0
C794 C 0.70881 0.72377 0.27224 0.0
C795 C 0.73397 0.6916 0.25515 0.0
C796 C 0.72833 0.70235 0.27079 0.0
C797 C 0.70071 0.72308 0.24355 0.0
C798 C 0.71976 0.7017 0.24149 0.0
O799 O 0.66241 0.8476 0.24087 0.0
O800 O 0.64042 0.81169 0.2646 0.0
O801 O 0.61607 0.71839 0.25335 0.0
O802 O 0.61498 0.73372 0.27873 0.0
O803 O 0.73542 0.86973 0.26978 0.0
O804 O 0.67443 0.82204 0.27829 0.0
O805 O 0.73208 0.79946 0.26493 0.0
O806 O 0.74931 0.83181 0.24066 0.0
O807 O 0.78241 0.92631 0.24953 0.0
O808 O 0.77369 0.90893 0.22421 0.0
O809 O 0.65584 0.77704 0.23684 0.0
O810 O 0.71456 0.82194 0.22565 0.0
C811 C 0.6375 0.83345 0.25308 0.0
C812 C 0.70847 0.85247 0.28129 0.0
C813 C 0.57671 0.66741 0.27188 0.0
C814 C 0.51544 0.60538 0.27373 0.0
C815 C 0.57407 0.61414 0.28743 0.0
C816 C 0.59514 0.65226 0.28159 0.0
C817 C 0.5345 0.591 0.28373 0.0
C818 C 0.53724 0.64381 0.26775 0.0
C819 C 0.59682 0.70864 0.26713 0.0
C820 C 0.74154 0.69237 0.28493 0.0
C821 C 0.73506 0.70338 0.30039 0.0
H822 H 0.7488 0.6751 0.25352 0.0
C823 C 0.75838 0.81841 0.25348 0.0
C824 C 0.68081 0.78892 0.22467 0.0
C825 C 0.80675 0.97698 0.22957 0.0
C826 C 0.84807 0.04801 0.23285 0.0
C827 C 0.79873 0.02113 0.21144 0.0
C828 C 0.78807 0.98348 0.21632 0.0
C829 C 0.82847 0.05305 0.21951 0.0
C830 C 0.83693 0.00951 0.23782 0.0
C831 C 0.79484 0.93639 0.23457 0.0
H832 H 0.58825 0.6027 0.29512 0.0
H833 H 0.62547 0.67008 0.28494 0.0
H834 H 0.51881 0.56209 0.289 0.0
H835 H 0.52362 0.65577 0.25999 0.0
H836 H 0.78418 0.02561 0.20116 0.0
H837 H 0.76536 0.95949 0.20952 0.0
H838 H 0.83673 0.08183 0.21497 0.0
H839 H 0.85149 1.0048 0.24804 0.0
C840 C 0.15957 0.80997 0.2166 0.0
C841 C 0.13443 0.74711 0.22991 0.0
C842 C 0.15214 0.788 0.23077 0.0
C843 C 0.12582 0.72879 0.21455 0.0
C844 C 0.14951 0.79155 0.20119 0.0
C845 C 0.13337 0.75095 0.20022 0.0
N846 N 0.17461 0.84907 0.21796 0.0
C847 C 0.17801 0.87113 0.20455 0.0
C848 C 0.155 0.81437 0.18727 0.0
C849 C 0.16886 0.85425 0.18898 0.0
Gd850 Gd 0.30477 0.93808 0.26031 0.0
Gd851 Gd 0.19188 0.87488 0.24444 0.0
N852 N 0.16114 0.80659 0.24544 0.0
C853 C 0.12525 0.72585 0.24454 0.0
C854 C 0.14975 0.78588 0.25975 0.0
C855 C 0.13246 0.74528 0.25952 0.0
H856 H 0.15533 0.80092 0.27132 0.0
H857 H 0.12469 0.72901 0.27088 0.0
H858 H 0.34971 0.97676 0.22434 0.0
H859 H 0.18796 0.90186 0.20586 0.0
H860 H 0.37232 0.03784 0.20889 0.0
H861 H 0.11178 0.69439 0.2444 0.0
H862 H 0.11263 0.69743 0.21363 0.0
H863 H 0.28916 0.95557 0.29872 0.0
H864 H 0.14767 0.80133 0.1752 0.0
H865 H 0.17226 0.87196 0.17834 0.0
H866 H 0.36229 0.12348 0.24751 0.0
H867 H 0.12579 0.73632 0.18848 0.0
H868 H 0.31941 0.07541 0.30191 0.0
H869 H 0.2954 0.01105 0.31505 0.0
N870 N 0.30935 0.98844 0.27677 0.0
C871 C 0.32399 0.02385 0.26943 0.0
C872 C 0.29982 0.98366 0.29299 0.0
C873 C 0.31708 0.05131 0.29477 0.0
C874 C 0.30339 0.01498 0.30222 0.0
C875 C 0.32758 0.05612 0.27818 0.0
H876 H 0.34345 0.11687 0.27655 0.0
N877 N 0.3311 0.99581 0.24491 0.0
C878 C 0.33431 0.02738 0.25296 0.0
C879 C 0.36134 0.06683 0.22871 0.0
C880 C 0.34893 0.0636 0.24497 0.0
C881 C 0.34682 0.99996 0.2297 0.0
C882 C 0.361 0.03507 0.22116 0.0
O883 O 0.22036 0.839 0.24875 0.0
O884 O 0.28588 0.87434 0.25643 0.0
O885 O 0.3659 0.95504 0.2557 0.0
O886 O 0.3419 0.94158 0.28057 0.0
O887 O 0.20192 0.87655 0.27236 0.0
O888 O 0.26618 0.89349 0.27821 0.0
O889 O 0.25734 0.9551 0.26331 0.0
O890 O 0.22691 0.93836 0.23886 0.0
O891 O 0.15628 0.89096 0.25937 0.0
O892 O 0.13259 0.85783 0.23726 0.0
O893 O 0.29441 0.91233 0.23506 0.0
O894 O 0.23988 0.91339 0.2259 0.0
C895 C 0.25386 0.84178 0.25245 0.0
C896 C 0.22955 0.87907 0.28238 0.0
C897 C 0.40974 0.95931 0.27772 0.0
C898 C 0.46625 0.94954 0.27784 0.0
C899 C 0.45885 0.98902 0.29887 0.0
C900 C 0.42394 0.98215 0.29185 0.0
C901 C 0.47978 0.97282 0.292 0.0
C902 C 0.43097 0.943 0.27067 0.0
C903 C 0.37172 0.95103 0.27108 0.0
C904 C 0.35154 0.09557 0.25353 0.0
C905 C 0.34098 0.09186 0.27009 0.0
H906 H 0.37268 0.09411 0.22211 0.0
C907 C 0.24143 0.9632 0.25086 0.0
C908 C 0.27311 0.91386 0.22312 0.0
C909 C 0.10405 0.89445 0.24646 0.0
C910 C 0.04322 0.89694 0.24792 0.0
C911 C 0.10112 0.94904 0.23467 0.0
C912 C 0.12188 0.92995 0.23802 0.0
C913 C 0.06232 0.93293 0.23964 0.0
C914 C 0.06448 0.8777 0.25124 0.0
C915 C 0.12599 0.874 0.24975 0.0
H916 H 0.46955 1.00663 0.30982 0.0
H917 H 0.40792 0.99465 0.2975 0.0
H918 H 0.50629 0.97793 0.29801 0.0
H919 H 0.41987 0.92503 0.25983 0.0
H920 H 0.11511 0.97643 0.2281 0.0
H921 H 0.1517 0.94257 0.23387 0.0
H922 H 0.04693 0.9483 0.23666 0.0
H923 H 0.0504 0.84994 0.25757 0.0
C924 C 0.25915 0.37257 0.22045 0.0
C925 C 0.31261 0.38726 0.23898 0.0
C926 C 0.27277 0.37396 0.23626 0.0
C927 C 0.33884 0.40116 0.22577 0.0
C928 C 0.2854 0.38645 0.20715 0.0
C929 C 0.32534 0.40119 0.20993 0.0
N930 N 0.22021 0.35725 0.21807 0.0
C931 C 0.20553 0.35425 0.20269 0.0
C932 C 0.27065 0.3846 0.19141 0.0
C933 C 0.23054 0.36829 0.18917 0.0
Gd934 Gd 0.13684 0.3962 0.26187 0.0
Gd935 Gd 0.18125 0.33415 0.24162 0.0
N936 N 0.24694 0.36153 0.24893 0.0
C937 C 0.32473 0.38526 0.25485 0.0
C938 C 0.25864 0.35928 0.26438 0.0
C939 C 0.29771 0.37153 0.26762 0.0
H940 H 0.23782 0.34634 0.27413 0.0
H941 H 0.30676 0.36934 0.27988 0.0
H942 H 0.08232 0.39009 0.22906 0.0
H943 H 0.17452 0.34035 0.20069 0.0
H944 H 1.01326 0.35464 0.22092 0.0
H945 H 0.35467 0.3933 0.2573 0.0
H946 H 0.36962 0.4118 0.22766 0.0
H947 H 0.13893 0.38819 0.30264 0.0
H948 H 0.2899 0.39508 0.18088 0.0
H949 H 0.2188 0.36605 0.177 0.0
H950 H 0.94565 0.29309 0.27065 0.0
H951 H 0.34594 0.412 0.19986 0.0
H952 H 0.02149 0.31743 0.31949 0.0
H953 H 0.09224 0.35493 0.32515 0.0
N954 N 0.09503 0.36896 0.28437 0.0
C955 C 0.05619 0.34976 0.28104 0.0
C956 C 0.10813 0.37156 0.3 0.0
C957 C 0.0418 0.33198 0.30954 0.0
C958 C 0.08174 0.35304 0.3128 0.0
C959 C 0.02853 0.33026 0.29352 0.0
H960 H 0.96701 0.29412 0.29901 0.0
N961 N 0.07167 0.3676 0.25317 0.0
C962 C 0.04416 0.34899 0.26498 0.0
C963 C 0.99306 0.33016 0.24493 0.0
C964 C 1.00413 0.32901 0.26109 0.0
C965 C 0.0609 0.37136 0.23776 0.0
C966 C 0.02157 0.35211 0.23329 0.0
O967 O 0.21861 0.40008 0.2408 0.0
O968 O 0.20205 0.4211 0.26406 0.0
O969 O 0.14375 0.45099 0.25262 0.0
O970 O 0.13644 0.43873 0.27849 0.0
O971 O 0.16897 0.32854 0.26946 0.0
O972 O 0.17771 0.3881 0.27798 0.0
O973 O 0.10192 0.32922 0.2628 0.0
O974 O 0.11707 0.30967 0.23887 0.0
O975 O 0.17948 0.28339 0.25279 0.0
O976 O 0.17916 0.28796 0.22643 0.0
O977 O 0.15311 0.40461 0.23501 0.0
O978 O 0.14186 0.3457 0.22473 0.0
C979 C 0.22761 0.42502 0.25283 0.0
C980 C 0.17692 0.35518 0.28089 0.0
C981 C 0.18168 0.50306 0.27061 0.0
C982 C 0.21946 0.57419 0.26834 0.0
C983 C 0.24815 0.53867 0.28084 0.0
C984 C 0.21363 0.50365 0.27837 0.0
C985 C 0.25117 0.57368 0.27582 0.0
C986 C 0.18457 0.53856 0.26574 0.0
C987 C 0.14621 0.46525 0.26723 0.0
C988 C 0.97652 0.30892 0.27344 0.0
C989 C 0.98868 0.30957 0.28961 0.0
H990 H 0.9626 0.31522 0.24144 0.0
C991 C 0.09295 0.30364 0.25093 0.0
C992 C 0.14263 0.37934 0.22297 0.0
C993 C 0.15563 0.22453 0.23779 0.0
C994 C 0.15088 0.16042 0.24082 0.0
C995 C 0.09584 0.16594 0.23055 0.0
C996 C 0.11721 0.2064 0.23207 0.0
C997 C 0.11243 0.14318 0.23477 0.0
C998 C 0.17226 0.20151 0.24226 0.0
C999 C 0.17933 0.2674 0.23885 0.0
H1000 H 0.27262 0.53868 0.28675 0.0
H1001 H 0.21194 0.47698 0.28259 0.0
H1002 H 0.27816 0.60055 0.2781 0.0
H1003 H 0.16006 0.53843 0.25979 0.0
H1004 H 0.06636 0.15212 0.22588 0.0
H1005 H 0.10395 0.22353 0.22862 0.0
H1006 H 0.09517 0.112 0.23297 0.0
H1007 H 0.20181 0.21578 0.24692 0.0
C1008 C 0.90973 0.6804 0.79855 0.0
C1009 C 0.95107 0.66643 0.78123 0.0
C1010 C 0.92458 0.68008 0.78316 0.0
C1011 C 0.96074 0.65112 0.79478 0.0
C1012 C 0.91945 0.66514 0.8122 0.0
C1013 C 0.94462 0.65006 0.81018 0.0
N1014 N 0.8862 0.69607 0.80021 0.0
C1015 C 0.87211 0.69813 0.81521 0.0
C1016 C 0.90404 0.66602 0.82751 0.0
C1017 C 0.8804 0.68273 0.82903 0.0
Gd1018 Gd 0.77221 0.66274 0.75297 0.0
Gd1019 Gd 0.87513 0.72164 0.77622 0.0
N1020 N 0.91374 0.6939 0.77013 0.0
C1021 C 0.96781 0.66952 0.76582 0.0
C1022 C 0.93022 0.6972 0.75513 0.0
C1023 C 0.95711 0.68465 0.75269 0.0
H1024 H 0.92421 0.71118 0.74519 0.0
H1025 H 0.97039 0.68768 0.74079 0.0
H1026 H 0.73352 0.69341 0.78192 0.0
H1027 H 0.85514 0.71234 0.81668 0.0
H1028 H 0.69959 0.73114 0.78375 0.0
H1029 H 0.98982 0.6613 0.76403 0.0
H1030 H 0.98079 0.64018 0.79349 0.0
H1031 H 0.78222 0.65086 0.71291 0.0
H1032 H 0.91073 0.65448 0.83828 0.0
H1033 H 0.86898 0.68423 0.84088 0.0
H1034 H 0.68666 0.75995 0.72778 0.0
H1035 H 0.9524 0.6382 0.82052 0.0
H1036 H 0.73473 0.71009 0.68592 0.0
H1037 H 0.76693 0.6705 0.68646 0.0
N1038 N 0.75911 0.67953 0.72717 0.0
C1039 C 0.74036 0.70037 0.72715 0.0
C1040 C 0.76838 0.66843 0.71282 0.0
C1041 C 0.74132 0.70162 0.69757 0.0
C1042 C 0.75962 0.67931 0.69783 0.0
C1043 C 0.73123 0.71225 0.71233 0.0
H1044 H 0.70495 0.74349 0.70143 0.0
N1045 N 0.73917 0.6977 0.75611 0.0
C1046 C 0.72977 0.70945 0.74203 0.0
C1047 C 0.69967 0.73914 0.75765 0.0
C1048 C 0.71018 0.73091 0.74244 0.0
C1049 C 0.72766 0.70431 0.77092 0.0
C1050 C 0.70817 0.72549 0.77194 0.0
O1051 O 0.8458 0.65561 0.77597 0.0
O1052 O 0.81145 0.63639 0.75181 0.0
O1053 O 0.71895 0.61643 0.76396 0.0
O1054 O 0.73354 0.61187 0.7388 0.0
O1055 O 0.87319 0.73002 0.74828 0.0
O1056 O 0.82359 0.67151 0.73836 0.0
O1057 O 0.80307 0.72975 0.75279 0.0
O1058 O 0.83542 0.74624 0.77728 0.0
O1059 O 0.92685 0.77195 0.76638 0.0
O1060 O 0.91657 0.76688 0.79253 0.0
O1061 O 0.77753 0.6531 0.77995 0.0
O1062 O 0.82204 0.71085 0.79166 0.0
C1063 C 0.83206 0.63201 0.76339 0.0
C1064 C 0.85583 0.70473 0.73627 0.0
C1065 C 0.66719 0.57671 0.74589 0.0
C1066 C 0.60481 0.51609 0.74343 0.0
C1067 C 0.61438 0.5761 0.73078 0.0
C1068 C 0.65252 0.5963 0.73665 0.0
C1069 C 0.59082 0.53628 0.73394 0.0
C1070 C 0.64318 0.53704 0.74951 0.0
C1071 C 0.70836 0.59576 0.75058 0.0
C1072 C 0.7016 0.74332 0.72771 0.0
C1073 C 0.71205 0.73398 0.7127 0.0
H1074 H 0.68461 0.75558 0.75849 0.0
C1075 C 0.82176 0.75528 0.7645 0.0
C1076 C 0.78787 0.67814 0.79201 0.0
C1077 C 0.96019 0.83034 0.78175 0.0
C1078 C 0.01994 0.89334 0.77752 0.0
C1079 C 0.96242 0.89006 0.79007 0.0
C1080 C 0.94207 0.84954 0.78869 0.0
C1081 C 1.00089 0.9118 0.78455 0.0
C1082 C 0.99906 0.85232 0.77616 0.0
C1083 C 0.93995 0.78743 0.78068 0.0
H1084 H 0.60327 0.59117 0.72345 0.0
H1085 H 0.67073 0.62683 0.73369 0.0
H1086 H 0.56193 0.52131 0.72865 0.0
H1087 H 0.65482 0.52257 0.75694 0.0
H1088 H 0.94853 0.90477 0.79563 0.0
H1089 H 0.91246 0.8332 0.79321 0.0
H1090 H 0.016 0.9431 0.78618 0.0
H1091 H 1.01297 0.83735 0.77079 0.0
C1092 C 0.37255 0.25537 0.79998 0.0
C1093 C 0.38866 0.31089 0.78244 0.0
C1094 C 0.37533 0.27086 0.78443 0.0
C1095 C 0.40122 0.33552 0.79615 0.0
C1096 C 0.38496 0.27998 0.81379 0.0
C1097 C 0.39977 0.32018 0.81176 0.0
N1098 N 0.35705 0.21621 0.80161 0.0
C1099 C 0.35236 0.19971 0.81673 0.0
C1100 C 0.38148 0.26338 0.82927 0.0
C1101 C 0.36497 0.22306 0.83074 0.0
Gd1102 Gd 0.39705 0.13588 0.75615 0.0
Gd1103 Gd 0.33634 0.18023 0.77723 0.0
N1104 N 0.36431 0.2466 0.77129 0.0
C1105 C 0.38806 0.32477 0.76676 0.0
C1106 C 0.36376 0.26002 0.75598 0.0
C1107 C 0.37592 0.29933 0.75345 0.0
H1108 H 0.35251 0.24029 0.74579 0.0
H1109 H 0.37502 0.30979 0.74131 0.0
H1110 H 0.36586 0.06939 0.78639 0.0
H1111 H 0.33816 0.16851 0.81814 0.0
H1112 H 0.32805 0.99796 0.78939 0.0
H1113 H 0.39592 0.35484 0.76486 0.0
H1114 H 0.41194 0.36645 0.79481 0.0
H1115 H 0.41009 0.15408 0.71586 0.0
H1116 H 0.3908 0.28132 0.84017 0.0
H1117 H 0.36141 0.20988 0.84269 0.0
H1118 H 0.29988 0.95108 0.73408 0.0
H1119 H 0.40948 0.33954 0.82223 0.0
H1120 H 0.35081 0.04503 0.69064 0.0
H1121 H 0.39126 0.11694 0.69013 0.0
N1122 N 0.38058 0.10372 0.73093 0.0
C1123 C 0.35966 0.06416 0.73158 0.0
C1124 C 0.39217 0.12272 0.71629 0.0
C1125 C 0.35905 0.06115 0.70203 0.0
C1126 C 0.38164 0.10174 0.70166 0.0
C1127 C 0.348 0.0418 0.71711 0.0
H1128 H 0.31682 0.98335 0.70716 0.0
N1129 N 0.36193 0.0683 0.76052 0.0
C1130 C 0.35038 0.04588 0.74678 0.0
C1131 C 0.32038 0.98763 0.7634 0.0
C1132 C 0.32884 1.00492 0.74787 0.0
C1133 C 0.35513 0.0516 0.77564 0.0
C1134 C 0.33389 0.01108 0.77734 0.0
O1135 O 0.40208 0.21955 0.77662 0.0
O1136 O 0.42422 0.20152 0.75391 0.0
O1137 O 0.44206 0.12851 0.76811 0.0
O1138 O 0.44848 0.14648 0.7427 0.0
O1139 O 0.33027 0.16856 0.74932 0.0
O1140 O 0.38936 0.17709 0.74021 0.0
O1141 O 0.3298 0.09937 0.75588 0.0
O1142 O 0.31264 0.11637 0.77989 0.0
O1143 O 0.28645 0.17866 0.76534 0.0
O1144 O 0.28904 0.17759 0.79182 0.0
O1145 O 0.40677 0.15604 0.78239 0.0
O1146 O 0.34842 0.14048 0.79385 0.0
C1147 C 0.42708 0.22778 0.76459 0.0
C1148 C 0.3566 0.17677 0.73767 0.0
C1149 C 0.48212 0.1146 0.75104 0.0
C1150 C 0.54224 0.11158 0.74959 0.0
C1151 C 0.48231 0.061 0.73697 0.0
C1152 C 0.46243 0.07984 0.74217 0.0
C1153 C 0.52195 0.0769 0.74043 0.0
C1154 C 0.52154 0.12985 0.75502 0.0
C1155 C 0.46353 0.13761 0.75495 0.0
C1156 C 0.31658 0.9826 0.73348 0.0
C1157 C 0.32617 1.00098 0.71815 0.0
H1158 H 0.30388 0.95624 0.76476 0.0
C1159 C 0.30399 0.09269 0.76751 0.0
C1160 C 0.38206 0.14095 0.7945 0.0
C1161 C 0.22664 0.15609 0.77964 0.0
C1162 C 0.16446 0.15362 0.77409 0.0
C1163 C 0.16596 0.10024 0.78837 0.0
C1164 C 0.20655 0.11964 0.78729 0.0
C1165 C 0.14507 0.11696 0.78188 0.0
C1166 C 0.20554 0.17285 0.77298 0.0
C1167 C 0.2696 0.17834 0.77909 0.0
H1168 H 0.46718 0.03444 0.72991 0.0
H1169 H 0.43208 0.06781 0.73894 0.0
H1170 H 0.53672 0.06231 0.73559 0.0
H1171 H 0.53604 0.15636 0.76218 0.0
H1172 H 0.15055 0.07231 0.79448 0.0
H1173 H 0.22225 0.10654 0.79265 0.0
H1174 H 0.11371 0.10151 0.78339 0.0
H1175 H 0.22128 0.20103 0.76704 0.0
C1176 C 0.80481 0.14191 0.79658 0.0
C1177 C 0.75076 0.10083 0.77871 0.0
C1178 C 0.79045 0.12859 0.78093 0.0
C1179 C 0.72546 0.08803 0.79225 0.0
C1180 C 0.77938 0.1295 0.81016 0.0
C1181 C 0.73961 0.10274 0.80788 0.0
N1182 N 0.84362 0.167 0.7985 0.0
C1183 C 0.85897 0.18047 0.81364 0.0
C1184 C 0.79476 0.14401 0.82567 0.0
C1185 C 0.83473 0.16957 0.82741 0.0
Gd1186 Gd 0.92159 0.28697 0.75409 0.0
Gd1187 Gd 0.88134 0.18177 0.77467 0.0
N1188 N 0.8154 0.14226 0.76796 0.0
C1189 C 0.73786 0.0861 0.76299 0.0
C1190 C 0.8029 0.12778 0.75263 0.0
C1191 C 0.76392 0.0999 0.74988 0.0
H1192 H 0.82304 0.13601 0.7426 0.0
H1193 H 0.75426 0.08825 0.73772 0.0
H1194 H 0.96777 0.34779 0.7852 0.0
H1195 H 0.88996 0.19901 0.81526 0.0
H1196 H 0.03522 0.39453 0.79349 0.0
H1197 H 0.70803 0.06345 0.76088 0.0
H1198 H 0.69487 0.06672 0.79077 0.0
H1199 H 0.92491 0.27187 0.714 0.0
H1200 H 0.77613 0.13529 0.83639 0.0
H1201 H 0.84698 0.18046 0.83939 0.0
H1202 H 0.11257 0.39815 0.74756 0.0
H1203 H 0.71965 0.09276 0.81818 0.0
H1204 H 0.04469 0.32888 0.69923 0.0
H1205 H 0.97476 0.28738 0.6926 0.0
N1206 N 0.96635 0.30208 0.73269 0.0
C1207 C 1.00446 0.32638 0.73644 0.0
C1208 C 0.95539 0.28894 0.7171 0.0
C1209 C 0.02298 0.3217 0.70871 0.0
C1210 C 0.98352 0.29816 0.70492 0.0
C1211 C 0.03387 0.33659 0.72458 0.0
H1212 H 0.09604 0.3698 0.71993 0.0
N1213 N 0.98456 0.33156 0.76322 0.0
C1214 C 0.01383 0.34145 0.75219 0.0
C1215 C 0.06063 0.3865 0.77157 0.0
C1216 C 0.05281 0.36844 0.75623 0.0
C1217 C 0.99159 0.35176 0.77749 0.0
C1218 C 0.02975 0.37894 0.78204 0.0
O1219 O 0.84438 0.21045 0.77712 0.0
O1220 O 0.85639 0.24563 0.75343 0.0
O1221 O 0.9133 0.33519 0.76139 0.0
O1222 O 0.91326 0.32156 0.73574 0.0
O1223 O 0.8921 0.18745 0.74686 0.0
O1224 O 0.88013 0.23633 0.73881 0.0
O1225 O 0.95912 0.25758 0.75183 0.0
O1226 O 0.94543 0.22301 0.77572 0.0
O1227 O 0.88096 0.13117 0.76424 0.0
O1228 O 0.88774 0.14099 0.79041 0.0
O1229 O 0.90996 0.2806 0.78154 0.0
O1230 O 0.92356 0.23323 0.79039 0.0
C1231 C 0.83273 0.22441 0.76525 0.0
C1232 C 0.88256 0.20524 0.73564 0.0
C1233 C 0.93445 0.38713 0.74247 0.0
C1234 C 0.93825 0.45068 0.74217 0.0
C1235 C 0.98909 0.44211 0.7293 0.0
C1236 C 0.96977 0.40295 0.73385 0.0
C1237 C 0.97336 0.46573 0.73325 0.0
C1238 C 0.91917 0.41112 0.74682 0.0
C1239 C 0.91197 0.34534 0.74635 0.0
C1240 C 0.0824 0.3778 0.74461 0.0
C1241 C 0.07297 0.36178 0.72884 0.0
H1242 H 0.09014 0.40768 0.7751 0.0
C1243 C 0.96825 0.23983 0.76318 0.0
C1244 C 0.92289 0.26592 0.79272 0.0
C1245 C 0.90869 0.0992 0.77876 0.0
C1246 C 0.91255 0.04 0.77417 0.0
C1247 C 0.967 0.09778 0.7864 0.0
C1248 C 0.94635 0.11775 0.78535 0.0
C1249 C 0.95033 0.05929 0.78094 0.0
C1250 C 0.89215 0.06064 0.77303 0.0
C1251 C 0.88495 0.11828 0.77834 0.0
H1252 H 0.01609 0.45408 0.72246 0.0
H1253 H 0.98207 0.38497 0.7304 0.0
H1254 H 0.98852 0.49563 0.72903 0.0
H1255 H 0.8923 0.39871 0.75379 0.0
H1256 H 0.9959 0.11197 0.79168 0.0
H1257 H 0.95951 0.14734 0.78985 0.0
H1258 H 0.9668 0.04443 0.78244 0.0
H1259 H 0.86316 0.04676 0.76779 0.0
C1260 C 0.34536 0.23847 0.55942 0.0
C1261 C 0.32306 0.26766 0.57967 0.0
C1262 C 0.34261 0.2472 0.57565 0.0
C1263 C 0.30572 0.27832 0.56723 0.0
C1264 C 0.32804 0.24917 0.5469 0.0
C1265 C 0.30807 0.26898 0.55091 0.0
N1266 N 0.36501 0.21943 0.55588 0.0
C1267 C 0.36912 0.21089 0.54008 0.0
C1268 C 0.33144 0.23977 0.53069 0.0
C1269 C 0.35218 0.22065 0.52727 0.0
Gd1270 Gd 0.3335 0.09647 0.59992 0.0
Gd1271 Gd 0.39232 0.20391 0.57802 0.0
N1272 N 0.35996 0.2367 0.58742 0.0
C1273 C 0.32245 0.27779 0.59601 0.0
C1274 C 0.3626 0.24997 0.60304 0.0
C1275 C 0.34291 0.26949 0.60769 0.0
H1276 H 0.38118 0.24734 0.61185 0.0
H1277 H 0.34445 0.2791 0.62021 0.0
H1278 H 0.33314 0.02975 0.5753 0.0
H1279 H 0.38596 0.197 0.53729 0.0
H1280 H 0.36579 0.99033 0.57311 0.0
H1281 H 0.30765 0.2934 0.5996 0.0
H1282 H 0.29088 0.29431 0.57008 0.0
H1283 H 0.32917 0.11363 0.63991 0.0
H1284 H 0.31845 0.24742 0.52074 0.0
H1285 H 0.35536 0.21365 0.51477 0.0
H1286 H 0.42855 1.00868 0.62531 0.0
H1287 H 0.29458 0.27745 0.54146 0.0
H1288 H 0.39898 0.07705 0.66613 0.0
H1289 H 0.35804 0.10796 0.66578 0.0
N1290 N 0.35552 0.0884 0.62556 0.0
C1291 C 0.3757 0.069 0.62567 0.0
C1292 C 0.34779 0.10097 0.63984 0.0
C1293 C 0.38672 0.07981 0.6547 0.0
C1294 C 0.36365 0.0973 0.65456 0.0
C1295 C 0.39225 0.06453 0.64018 0.0
H1296 H 0.42584 0.04046 0.6508 0.0
N1297 N 0.35926 0.05474 0.59795 0.0
C1298 C 0.37755 0.05147 0.61137 0.0
C1299 C 0.39264 1.00759 0.59688 0.0
C1300 C 0.39552 0.02848 0.61112 0.0
C1301 C 0.35276 0.03135 0.58478 0.0
C1302 C 0.37021 1.00819 0.5838 0.0
O1303 O 0.32731 0.16717 0.57343 0.0
O1304 O 0.3087 0.13665 0.59803 0.0
O1305 O 0.28084 0.04749 0.58969 0.0
O1306 O 0.28497 0.06016 0.61566 0.0
O1307 O 0.39964 0.1984 0.60575 0.0
O1308 O 0.33881 0.14914 0.61233 0.0
O1309 O 0.40044 0.12722 0.60034 0.0
O1310 O 0.41865 0.16546 0.57717 0.0
O1311 O 0.44267 0.25725 0.58697 0.0
O1312 O 0.43824 0.24317 0.56137 0.0
O1313 O 0.33598 0.09536 0.57214 0.0
O1314 O 0.38283 0.15488 0.56041 0.0
C1315 C 0.30042 0.14902 0.58458 0.0
C1316 C 0.37226 0.17859 0.61672 0.0
C1317 C 0.24287 0.99519 0.60803 0.0
C1318 C 0.17995 0.93481 0.61052 0.0
C1319 C 0.23859 0.94078 0.62322 0.0
C1320 C 0.26073 0.97863 0.61724 0.0
C1321 C 0.19855 0.91931 0.6202 0.0
C1322 C 0.20299 0.97299 0.60431 0.0
C1323 C 0.26395 0.03688 0.60398 0.0
C1324 C 0.41409 0.02576 0.62529 0.0
C1325 C 0.4125 0.04381 0.63981 0.0
H1326 H 0.40586 0.98941 0.59618 0.0
C1327 C 0.4267 0.14891 0.58924 0.0
C1328 C 0.35667 0.11705 0.55959 0.0
C1329 C 0.46768 0.31033 0.56838 0.0
C1330 C 0.51012 0.38106 0.572 0.0
C1331 C 0.45466 0.35563 0.55343 0.0
C1332 C 0.4453 0.31763 0.55713 0.0
C1333 C 0.48672 0.38704 0.56074 0.0
C1334 C 0.5003 0.34228 0.57577 0.0
C1335 C 0.45699 0.26961 0.57244 0.0
H1336 H 0.25232 0.92838 0.63064 0.0
H1337 H 0.29142 0.99539 0.62026 0.0
H1338 H 0.18233 0.89089 0.62583 0.0
H1339 H 0.19014 0.98611 0.59681 0.0
H1340 H 0.4372 0.36078 0.54469 0.0
H1341 H 0.4207 0.29405 0.55102 0.0
H1342 H 0.49372 0.41618 0.55721 0.0
H1343 H 0.51777 0.33692 0.58444 0.0
C1344 C 0.82144 0.13057 0.5545 0.0
C1345 C 0.78336 0.07648 0.57292 0.0
C1346 C 0.8088 0.11657 0.57025 0.0
C1347 C 0.7725 0.05043 0.55973 0.0
C1348 C 0.81053 0.10449 0.54121 0.0
C1349 C 0.78641 0.06434 0.54395 0.0
N1350 N 0.84399 0.16967 0.55216 0.0
C1351 C 0.85588 0.18464 0.53681 0.0
C1352 C 0.82374 0.11959 0.52552 0.0
C1353 C 0.84638 0.15984 0.52332 0.0
Gd1354 Gd 0.96255 0.25645 0.59667 0.0
Gd1355 Gd 0.85711 0.20812 0.57572 0.0
N1356 N 0.82084 0.14225 0.58291 0.0
C1357 C 0.76883 0.06392 0.58873 0.0
C1358 C 0.80648 0.13017 0.59829 0.0
C1359 C 0.78066 0.09082 0.60149 0.0
H1360 H 0.81325 0.15094 0.60795 0.0
H1361 H 0.76905 0.08143 0.61369 0.0
H1362 H 1.00116 0.32061 0.56563 0.0
H1363 H 0.87202 0.21569 0.53481 0.0
H1364 H 0.03357 0.39162 0.56151 0.0
H1365 H 0.74765 0.03371 0.59113 0.0
H1366 H 0.75329 0.01946 0.56159 0.0
H1367 H 0.95466 0.24163 0.63741 0.0
H1368 H 0.8161 0.1005 0.51501 0.0
H1369 H 0.85607 0.17182 0.51118 0.0
H1370 H 0.04584 0.44274 0.6158 0.0
H1371 H 0.77777 0.04388 0.53389 0.0
H1372 H 0.99991 0.35265 0.66068 0.0
H1373 H 0.96909 0.28106 0.66253 0.0
N1374 N 0.97626 0.29055 0.62144 0.0
C1375 C 0.99447 0.33003 0.62013 0.0
C1376 C 0.96762 0.27288 0.63642 0.0
C1377 C 0.99357 0.33558 0.64958 0.0
C1378 C 0.97604 0.29511 0.65069 0.0
C1379 C 1.00327 0.35359 0.63419 0.0
H1380 H 0.0284 0.41277 0.64314 0.0
N1381 N 0.99508 0.32356 0.59125 0.0
C1382 C 1.00453 0.34705 0.60465 0.0
C1383 C 0.03331 0.40393 0.58719 0.0
C1384 C 0.02333 0.38788 0.60293 0.0
C1385 C 1.00636 0.3391 0.576 0.0
C1386 C 0.02518 0.37944 0.57369 0.0
O1387 O 0.88757 0.17222 0.57609 0.0
O1388 O 0.92462 0.19092 0.59955 0.0
O1389 O 1.00989 0.25227 0.58498 0.0
O1390 O 1.01019 0.26009 0.61111 0.0
O1391 O 0.86266 0.22188 0.60341 0.0
O1392 O 0.91375 0.21445 0.6125 0.0
O1393 O 0.93102 0.29219 0.59597 0.0
O1394 O 0.89352 0.27268 0.57272 0.0
O1395 O 0.80594 0.2057 0.58671 0.0
O1396 O 0.81209 0.20805 0.56036 0.0
O1397 O 0.95491 0.2393 0.57003 0.0
O1398 O 0.90762 0.24939 0.55894 0.0
C1399 C 0.9041 0.16456 0.58838 0.0
C1400 C 0.8813 0.21472 0.61512 0.0
C1401 C 0.03004 0.21676 0.6016 0.0
C1402 C 0.06615 0.18209 0.59775 0.0
C1403 C 1.00479 0.15166 0.61277 0.0
C1404 C 1.00153 0.18471 0.61046 0.0
C1405 C 0.0368 0.1503 0.60652 0.0
C1406 C 0.06245 0.21541 0.59528 0.0
C1407 C 0.02524 0.25101 0.59892 0.0
C1408 C 0.03157 0.41133 0.6169 0.0
C1409 C 0.02161 0.39424 0.63248 0.0
H1410 H 0.04779 0.43517 0.58535 0.0
C1411 C 0.91069 0.29776 0.58456 0.0
C1412 C 0.94197 0.25143 0.55795 0.0
C1413 C 0.76933 0.22791 0.57198 0.0
C1414 C 0.70963 0.23065 0.57714 0.0
C1415 C 0.76658 0.28576 0.56474 0.0
C1416 C 0.78709 0.26562 0.56545 0.0
C1417 C 0.72832 0.26861 0.57056 0.0
C1418 C 0.73057 0.21046 0.57776 0.0
C1419 C 0.79027 0.20587 0.57274 0.0
H1420 H 0.98262 0.12715 0.61962 0.0
H1421 H 0.97679 0.1853 0.61574 0.0
H1422 H 0.03904 0.1246 0.60892 0.0
H1423 H 0.08451 0.24006 0.58844 0.0
H1424 H 0.78025 0.31473 0.55954 0.0
H1425 H 0.81658 0.27928 0.56079 0.0
H1426 H 0.71307 0.28482 0.56956 0.0
H1427 H 0.71686 0.18126 0.58281 0.0
C1428 C 0.90895 0.69932 0.54752 0.0
C1429 C 0.97293 0.72676 0.55995 0.0
C1430 C 0.93214 0.70913 0.5614 0.0
C1431 C 0.99027 0.73642 0.54437 0.0
C1432 C 0.92615 0.70806 0.53183 0.0
C1433 C 0.96695 0.72732 0.53035 0.0
N1434 N 0.86956 0.67962 0.54936 0.0
C1435 C 0.84567 0.6665 0.53602 0.0
C1436 C 0.90178 0.69632 0.5181 0.0
C1437 C 0.86137 0.67519 0.52021 0.0
Gd1438 Gd 0.79821 0.72466 0.59873 0.0
Gd1439 Gd 0.84658 0.66796 0.57644 0.0
N1440 N 0.91465 0.70037 0.57634 0.0
C1441 C 0.99492 0.73306 0.57419 0.0
C1442 C 0.93568 0.70524 0.59023 0.0
C1443 C 0.97615 0.72178 0.58937 0.0
H1444 H 0.92113 0.69614 0.60193 0.0
H1445 H 0.9927 0.72528 0.60038 0.0
H1446 H 0.75434 0.73935 0.56638 0.0
H1447 H 0.81446 0.64891 0.53753 0.0
H1448 H 0.68927 0.70786 0.55359 0.0
H1449 H 0.02624 0.74563 0.5735 0.0
H1450 H 0.02164 0.75037 0.54302 0.0
H1451 H 0.78634 0.69208 0.63721 0.0
H1452 H 0.91386 0.70259 0.50584 0.0
H1453 H 0.84232 0.66516 0.50967 0.0
H1454 H 0.60684 0.61423 0.59373 0.0
H1455 H 0.9807 0.73444 0.5184 0.0
H1456 H 0.66493 0.61111 0.64479 0.0
H1457 H 0.73263 0.64597 0.65522 0.0
N1458 N 0.74929 0.68275 0.61691 0.0
C1459 C 0.71213 0.66525 0.61115 0.0
C1460 C 0.75687 0.67677 0.6326 0.0
C1461 C 0.68832 0.63141 0.63689 0.0
C1462 C 0.72654 0.65088 0.64281 0.0
C1463 C 0.68067 0.63859 0.62091 0.0
H1464 H 0.6183 0.59891 0.62165 0.0
N1465 N 0.73686 0.69973 0.58623 0.0
C1466 C 0.70585 0.67345 0.59526 0.0
C1467 C 0.66199 0.66714 0.57342 0.0
C1468 C 0.66766 0.6558 0.58893 0.0
C1469 C 0.73083 0.714 0.57205 0.0
C1470 C 0.69363 0.69712 0.56512 0.0
O1471 O 0.88678 0.73308 0.57849 0.0
O1472 O 0.86421 0.75886 0.59851 0.0
O1473 O 0.79496 0.77804 0.59495 0.0
O1474 O 0.79692 0.75754 0.61961 0.0
O1475 O 0.84591 0.66809 0.60466 0.0
O1476 O 0.84197 0.72117 0.61468 0.0
O1477 O 0.7728 0.65828 0.60006 0.0
O1478 O 0.78218 0.64229 0.57444 0.0
O1479 O 0.84013 0.61816 0.59042 0.0
O1480 O 0.85054 0.62114 0.56435 0.0
O1481 O 0.81734 0.73879 0.57224 0.0
O1482 O 0.80488 0.68009 0.56155 0.0
C1483 C 0.8918 0.7605 0.58891 0.0
C1484 C 0.85061 0.6934 0.61628 0.0
C1485 C 0.79292 0.81641 0.6182 0.0
C1486 C 0.80616 0.88377 0.61823 0.0
C1487 C 0.77304 0.84095 0.64132 0.0
C1488 C 0.77537 0.81079 0.63366 0.0
C1489 C 0.78825 0.87713 0.63369 0.0
C1490 C 0.8085 0.85314 0.61048 0.0
C1491 C 0.79552 0.7839 0.61066 0.0
C1492 C 0.63632 0.6284 0.59846 0.0
C1493 C 0.64281 0.61983 0.61441 0.0
H1494 H 0.63312 0.65431 0.56812 0.0
C1495 C 0.76024 0.63457 0.58741 0.0
C1496 C 0.80748 0.71449 0.55986 0.0
C1497 C 0.82361 0.55874 0.57678 0.0
C1498 C 0.82174 0.49585 0.57902 0.0
C1499 C 0.76457 0.49899 0.56999 0.0
C1500 C 0.78475 0.53945 0.57161 0.0
C1501 C 0.78275 0.47739 0.57361 0.0
C1502 C 0.84201 0.53693 0.58052 0.0
C1503 C 0.84599 0.60164 0.57778 0.0
H1504 H 0.75945 0.8363 0.65324 0.0
H1505 H 0.7633 0.78293 0.63985 0.0
H1506 H 0.78634 0.90017 0.63999 0.0
H1507 H 0.82226 0.85785 0.59857 0.0
H1508 H 0.73481 0.48428 0.56567 0.0
H1509 H 0.77025 0.55572 0.56863 0.0
H1510 H 0.76633 0.44616 0.5718 0.0
H1511 H 0.87202 0.55205 0.58463 0.0
C1512 C 0.51534 0.91936 0.1102 0.0
C1513 C 0.50252 0.93107 0.09646 0.0
C1514 C 0.52221 0.88789 0.10936 0.0
C1515 C 0.51535 0.86714 0.09449 0.0
C1516 C 0.50206 0.8786 0.08062 0.0
C1517 C 0.49593 0.91046 0.08176 0.0
C1518 C 0.53687 0.87694 0.12435 0.0
C1519 C 0.49406 0.85704 0.06457 0.0
C1520 C 0.55868 0.80267 0.08494 0.0
C1521 C 0.5265 0.76536 0.08753 0.0
C1522 C 0.55611 0.83628 0.0879 0.0
C1523 C 0.52046 0.83244 0.09347 0.0
C1524 C 0.48855 0.79497 0.09687 0.0
C1525 C 0.49205 0.76197 0.09396 0.0
C1526 C 0.59097 0.87583 0.08442 0.0
C1527 C 0.45009 0.78959 0.10289 0.0
H1528 H 0.51997 0.93473 0.12168 0.0
H1529 H 0.48618 0.91934 0.07105 0.0
H1530 H 0.51708 0.84589 0.12751 0.0
H1531 H 0.56598 0.88049 0.12179 0.0
H1532 H 0.53933 0.89511 0.13514 0.0
H1533 H 0.48425 0.8699 0.05489 0.0
H1534 H 0.52075 0.85731 0.06023 0.0
H1535 H 0.47123 0.82612 0.06632 0.0
H1536 H 0.58537 0.80562 0.07992 0.0
H1537 H 0.46734 0.73331 0.09638 0.0
H1538 H 0.5973 0.89531 0.09512 0.0
H1539 H 0.58452 0.8895 0.07393 0.0
H1540 H 0.61745 0.87409 0.08146 0.0
H1541 H 0.45459 0.80769 0.11391 0.0
H1542 H 0.42894 0.75873 0.10594 0.0
H1543 H 0.43707 0.79945 0.09331 0.0
C1544 C 0.26452 0.78267 0.08039 0.0
C1545 C 0.24816 0.807 0.07937 0.0
C1546 C 0.24125 0.7425 0.08356 0.0
C1547 C 0.20041 0.72581 0.08532 0.0
C1548 C 0.18377 0.7501 0.08422 0.0
C1549 C 0.20777 0.79027 0.08159 0.0
C1550 C 0.26036 0.71785 0.0849 0.0
C1551 C 0.1405 0.73374 0.0858 0.0
C1552 C 0.13627 0.61714 0.0769 0.0
C1553 C 0.12551 0.60171 0.09274 0.0
C1554 C 0.16037 0.65738 0.07433 0.0
C1555 C 0.17496 0.68287 0.08794 0.0
C1556 C 0.16466 0.66732 0.10399 0.0
C1557 C 0.13983 0.627 0.10618 0.0
C1558 C 0.16939 0.67271 0.05701 0.0
C1559 C 0.17968 0.69326 0.11885 0.0
H1560 H 0.29551 0.79478 0.07844 0.0
H1561 H 0.19466 0.80858 0.08131 0.0
H1562 H 0.2522 0.70165 0.09666 0.0
H1563 H 0.24985 0.69596 0.07492 0.0
H1564 H 0.29266 0.73553 0.08416 0.0
H1565 H 0.13163 0.75565 0.08302 0.0
H1566 H 0.12474 0.70862 0.07741 0.0
H1567 H 0.13143 0.72323 0.09849 0.0
H1568 H 0.12486 0.59784 0.06644 0.0
H1569 H 0.13158 0.61523 0.11845 0.0
H1570 H 0.20134 0.6884 0.05492 0.0
H1571 H 0.15923 0.69391 0.05503 0.0
H1572 H 0.15531 0.64913 0.04777 0.0
H1573 H 0.212 0.71058 0.1185 0.0
H1574 H 0.1705 0.67642 0.13047 0.0
H1575 H 0.16876 0.71413 0.11885 0.0
C1576 C 0.28708 0.51559 0.08054 0.0
C1577 C 0.26376 0.4749 0.07886 0.0
C1578 C 0.32733 0.53327 0.0837 0.0
C1579 C 0.3451 0.50997 0.08467 0.0
C1580 C 0.3219 0.46916 0.08268 0.0
C1581 C 0.28164 0.45214 0.08021 0.0
C1582 C 0.35081 0.57683 0.08608 0.0
C1583 C 0.33926 0.44304 0.0835 0.0
C1584 C 0.45432 0.55558 0.0774 0.0
C1585 C 0.46814 0.55607 0.09324 0.0
C1586 C 0.41449 0.54125 0.07446 0.0
C1587 C 0.38787 0.52802 0.08775 0.0
C1588 C 0.40195 0.52994 0.10386 0.0
C1589 C 0.44182 0.54362 0.10639 0.0
C1590 C 0.40069 0.5384 0.05703 0.0
C1591 C 0.37479 0.51669 0.11842 0.0
H1592 H 0.27409 0.53386 0.07925 0.0
H1593 H 0.26417 0.4207 0.07948 0.0
H1594 H 0.36569 0.58352 0.09814 0.0
H1595 H 0.37382 0.59013 0.07657 0.0
H1596 H 0.33247 0.59073 0.0855 0.0
H1597 H 0.31928 0.41352 0.07855 0.0
H1598 H 0.36713 0.45583 0.07661 0.0
H1599 H 0.34517 0.4399 0.09649 0.0
H1600 H 0.4744 0.56492 0.06715 0.0
H1601 H 0.45235 0.54417 0.11869 0.0
H1602 H 0.38318 0.55301 0.05574 0.0
H1603 H 0.38153 0.5073 0.05376 0.0
H1604 H 0.42526 0.55163 0.04816 0.0
H1605 H 0.35621 0.53033 0.11817 0.0
H1606 H 0.39082 0.52394 0.13022 0.0
H1607 H 0.35517 0.48469 0.1179 0.0
C1608 C 0.93624 0.51706 0.92875 0.0
C1609 C 0.93455 0.48932 0.91764 0.0
C1610 C 0.90686 0.52681 0.92945 0.0
C1611 C 0.87468 0.50843 0.91871 0.0
C1612 C 0.87114 0.47805 0.90834 0.0
C1613 C 0.90122 0.46873 0.90794 0.0
C1614 C 0.91192 0.55895 0.94089 0.0
C1615 C 0.83695 0.45721 0.89693 0.0
C1616 C 0.79629 0.53448 0.92817 0.0
C1617 C 0.80842 0.56779 0.91839 0.0
C1618 C 0.81567 0.51286 0.92757 0.0
C1619 C 0.84817 0.52496 0.91704 0.0
C1620 C 0.85897 0.55714 0.90646 0.0
C1621 C 0.83904 0.57809 0.90725 0.0
C1622 C 0.80277 0.47861 0.93895 0.0
C1623 C 0.89337 0.57111 0.89505 0.0
H1624 H 0.96158 0.53252 0.93652 0.0
H1625 H 0.89975 0.44715 0.89938 0.0
H1626 H 0.91813 0.58514 0.93365 0.0
H1627 H 0.88476 0.54993 0.94794 0.0
H1628 H 0.93624 0.56721 0.94966 0.0
H1629 H 0.83485 0.43018 0.8919 0.0
H1630 H 0.80929 0.44965 0.90329 0.0
H1631 H 0.84026 0.47675 0.88656 0.0
H1632 H 0.77269 0.52623 0.93683 0.0
H1633 H 0.84803 0.60316 0.89936 0.0
H1634 H 0.82251 0.48776 0.94969 0.0
H1635 H 0.80428 0.45444 0.93281 0.0
H1636 H 0.77257 0.4676 0.94346 0.0
H1637 H 0.92032 0.58276 0.90245 0.0
H1638 H 0.89611 0.59437 0.88663 0.0
H1639 H 0.89111 0.54656 0.88768 0.0
C1640 C 0.56518 0.29729 0.92732 0.0
C1641 C 0.52979 0.26744 0.93362 0.0
C1642 C 0.56986 0.33378 0.92321 0.0
C1643 C 0.53841 0.34072 0.92548 0.0
C1644 C 0.50191 0.31 0.93094 0.0
C1645 C 0.49797 0.27361 0.93488 0.0
C1646 C 0.60915 0.36552 0.91725 0.0
C1647 C 0.46752 0.31607 0.93328 0.0
C1648 C 0.56662 0.44502 0.9358 0.0
C1649 C 0.56126 0.45892 0.92081 0.0
C1650 C 0.55861 0.40648 0.93749 0.0
C1651 C 0.54509 0.38112 0.92382 0.0
C1652 C 0.53947 0.39492 0.90865 0.0
C1653 C 0.54775 0.43371 0.90732 0.0
C1654 C 0.56468 0.39292 0.95394 0.0
C1655 C 0.52487 0.36881 0.89382 0.0
H1656 H 0.58969 0.29243 0.92605 0.0
H1657 H 0.47057 0.25065 0.93974 0.0
H1658 H 0.60581 0.37922 0.90599 0.0
H1659 H 0.62259 0.38863 0.92669 0.0
H1660 H 0.62939 0.35441 0.91464 0.0
H1661 H 0.44149 0.28963 0.93809 0.0
H1662 H 0.47515 0.34055 0.94186 0.0
H1663 H 0.4598 0.32403 0.92142 0.0
H1664 H 0.57663 0.46415 0.94635 0.0
H1665 H 0.54373 0.44434 0.89567 0.0
H1666 H 0.58697 0.38388 0.95287 0.0
H1667 H 0.53721 0.36714 0.9581 0.0
H1668 H 0.57429 0.41593 0.96345 0.0
H1669 H 0.54469 0.35739 0.89095 0.0
H1670 H 0.52259 0.38419 0.88287 0.0
H1671 H 0.49572 0.34338 0.89641 0.0
C1672 C 0.62138 0.15 0.91062 0.0
C1673 C 0.59524 0.13532 0.92383 0.0
C1674 C 0.6586 0.18308 0.91239 0.0
C1675 C 0.66977 0.20249 0.92768 0.0
C1676 C 0.64353 0.18768 0.94107 0.0
C1677 C 0.60673 0.15433 0.93899 0.0
C1678 C 0.68602 0.1971 0.89793 0.0
C1679 C 0.65398 0.20745 0.95757 0.0
C1680 C 0.77597 0.27287 0.93881 0.0
C1681 C 0.77935 0.30937 0.93568 0.0
C1682 C 0.74109 0.23786 0.93561 0.0
C1683 C 0.7082 0.23911 0.92959 0.0
C1684 C 0.71147 0.27562 0.92614 0.0
C1685 C 0.74704 0.31006 0.92888 0.0
C1686 C 0.7391 0.19946 0.93905 0.0
C1687 C 0.67698 0.2784 0.91998 0.0
H1688 H 0.61272 0.13571 0.89883 0.0
H1689 H 0.58707 0.14294 0.94935 0.0
H1690 H 0.69522 0.22791 0.89513 0.0
H1691 H 0.7127 0.19589 0.90094 0.0
H1692 H 0.67261 0.17932 0.88679 0.0
H1693 H 0.63268 0.18957 0.96721 0.0
H1694 H 0.68333 0.21357 0.96145 0.0
H1695 H 0.65481 0.2358 0.95669 0.0
H1696 H 0.80017 0.27143 0.9442 0.0
H1697 H 0.74922 0.33766 0.9258 0.0
H1698 H 0.72899 0.18078 0.92798 0.0
H1699 H 0.71758 0.18369 0.94891 0.0
H1700 H 0.76773 0.20327 0.94282 0.0
H1701 H 0.66591 0.26176 0.90843 0.0
H1702 H 0.6843 0.30898 0.91774 0.0
H1703 H 0.6529 0.26521 0.92906 0.0
C1704 C 0.25859 0.17114 0.40924 0.0
C1705 C 0.23312 0.1308 0.40911 0.0
C1706 C 0.24592 0.19686 0.41422 0.0
C1707 C 0.20664 0.182 0.41906 0.0
C1708 C 0.18118 0.14109 0.41964 0.0
C1709 C 0.19482 0.1159 0.41475 0.0
C1710 C 0.27429 0.24007 0.41376 0.0
C1711 C 0.13902 0.12405 0.42457 0.0
C1712 C 0.18158 0.25278 0.44005 0.0
C1713 C 0.16929 0.26639 0.42676 0.0
C1714 C 0.19309 0.22473 0.43785 0.0
C1715 C 0.19171 0.20946 0.42202 0.0
C1716 C 0.17815 0.22227 0.40868 0.0
C1717 C 0.16733 0.25063 0.41119 0.0
C1718 C 0.20758 0.21213 0.45239 0.0
C1719 C 0.17618 0.2069 0.39158 0.0
H1720 H 0.28827 0.18262 0.40494 0.0
H1721 H 0.17502 0.0847 0.41449 0.0
H1722 H 0.26373 0.2546 0.40523 0.0
H1723 H 0.27625 0.2525 0.42609 0.0
H1724 H 0.30395 0.24699 0.40986 0.0
H1725 H 0.12394 0.09183 0.42579 0.0
H1726 H 0.13678 0.13666 0.43636 0.0
H1727 H 0.12353 0.1316 0.41523 0.0
H1728 H 0.18258 0.26434 0.45216 0.0
H1729 H 0.15828 0.26118 0.4008 0.0
H1730 H 0.23864 0.22085 0.45054 0.0
H1731 H 0.19102 0.17995 0.45359 0.0
H1732 H 0.20495 0.2252 0.46401 0.0
H1733 H 0.20598 0.21553 0.38725 0.0
H1734 H 0.16279 0.21807 0.38273 0.0
H1735 H 0.159 0.1746 0.39159 0.0
C1736 C 0.96755 0.08532 0.42866 0.0
C1737 C 0.96356 0.11624 0.4225 0.0
C1738 C 0.93486 0.04875 0.43183 0.0
C1739 C 0.89708 0.04301 0.42908 0.0
C1740 C 0.89267 0.07475 0.42397 0.0
C1741 C 0.92597 0.11096 0.42064 0.0
C1742 C 0.94088 0.0157 0.43728 0.0
C1743 C 0.85279 0.06992 0.42127 0.0
C1744 C 0.81927 0.94101 0.41678 0.0
C1745 C 0.79934 0.92581 0.43156 0.0
C1746 C 0.8508 0.97919 0.41583 0.0
C1747 C 0.86264 1.00297 0.42998 0.0
C1748 C 0.84256 0.9879 0.44494 0.0
C1749 C 0.81138 0.94935 0.44558 0.0
C1750 C 0.87164 0.99396 0.39966 0.0
C1751 C 0.85392 0.01248 0.46024 0.0
H1752 H 0.99642 0.08938 0.43057 0.0
H1753 H 0.92249 0.13456 0.41587 0.0
H1754 H 0.92313 1.00136 0.44832 0.0
H1755 H 0.93103 0.99338 0.42748 0.0
H1756 H 0.97191 0.02564 0.44006 0.0
H1757 H 0.85416 0.09811 0.41871 0.0
H1758 H 0.83841 0.05006 0.41078 0.0
H1759 H 0.83412 0.05641 0.43218 0.0
H1760 H 0.81008 0.92315 0.40584 0.0
H1761 H 0.79647 0.93762 0.4571 0.0
H1762 H 0.90277 1.0024 0.401 0.0
H1763 H 0.87075 0.02036 0.39583 0.0
H1764 H 0.85861 0.97186 0.38978 0.0
H1765 H 0.88507 0.02352 0.46312 0.0
H1766 H 0.83602 0.99607 0.471 0.0
H1767 H 0.85039 0.03823 0.45822 0.0
C1768 C 0.11653 0.88257 0.41631 0.0
C1769 C 0.13153 0.88513 0.43209 0.0
C1770 C 0.0763 0.86638 0.41367 0.0
C1771 C 0.0503 0.85307 0.42718 0.0
C1772 C 0.06542 0.8563 0.4432 0.0
C1773 C 0.10579 0.87202 0.44545 0.0
C1774 C 0.06151 0.86242 0.39635 0.0
C1775 C 0.03893 0.84289 0.45797 0.0
C1776 C 0.94939 0.8402 0.41953 0.0
C1777 C 0.92625 0.79959 0.41748 0.0
C1778 C 0.98939 0.85784 0.42325 0.0
C1779 C 1.00729 0.83467 0.4244 0.0
C1780 C 0.98423 0.79388 0.42227 0.0
C1781 C 0.94412 0.77684 0.41925 0.0
C1782 C 1.01264 0.90138 0.42573 0.0
C1783 C 1.00198 0.76807 0.42299 0.0
H1784 H 0.13616 0.89204 0.4059 0.0
H1785 H 0.11725 0.87403 0.45767 0.0
H1786 H 0.0414 0.83123 0.39353 0.0
H1787 H 0.04472 0.87779 0.395 0.0
H1788 H 0.08551 0.87436 0.3872 0.0
H1789 H 0.05545 0.84951 0.46963 0.0
H1790 H 0.02084 0.85707 0.45813 0.0
H1791 H 0.01876 0.811 0.45731 0.0
H1792 H 0.93658 0.85855 0.41795 0.0
H1793 H 0.92681 0.74545 0.41824 0.0
H1794 H 0.03471 0.91494 0.41586 0.0
H1795 H 0.0286 0.90817 0.43752 0.0
H1796 H 0.99394 0.91492 0.42571 0.0
H1797 H 0.02695 0.77891 0.41438 0.0
H1798 H 0.98079 0.73726 0.41994 0.0
H1799 H 1.01313 0.76906 0.43549 0.0
C1800 C 0.5298 0.95355 0.27067 0.0
C1801 C 0.48893 0.93167 0.27118 0.0
C1802 C 0.55227 0.93638 0.26658 0.0
C1803 C 0.53369 0.89627 0.26263 0.0
C1804 C 0.49235 0.87431 0.26236 0.0
C1805 C 0.47046 0.89224 0.26664 0.0
C1806 C 0.59606 0.96115 0.26682 0.0
C1807 C 0.47127 0.83153 0.25815 0.0
C1808 C 0.597 0.86094 0.24182 0.0
C1809 C 0.60843 0.84657 0.25514 0.0
C1810 C 0.57192 0.87625 0.24395 0.0
C1811 C 0.55771 0.87715 0.25979 0.0
C1812 C 0.56843 0.86178 0.27321 0.0
C1813 C 0.59343 0.84659 0.27072 0.0
C1814 C 0.56131 0.8922 0.22929 0.0
C1815 C 0.55459 0.86262 0.29036 0.0
H1816 H 0.54436 0.98421 0.27381 0.0
H1817 H 0.43894 0.87497 0.26708 0.0
H1818 H 0.60872 0.94816 0.2751 0.0
H1819 H 0.6075 0.96207 0.25436 0.0
H1820 H 0.60616 0.9915 0.27084 0.0
H1821 H 0.43927 0.8193 0.25714 0.0
H1822 H 0.48236 0.82673 0.24641 0.0
H1823 H 0.47694 0.81517 0.26775 0.0
H1824 H 0.60792 0.8605 0.22971 0.0
H1825 H 0.60217 0.83577 0.28112 0.0
H1826 H 0.57309 0.92395 0.23081 0.0
H1827 H 0.52917 0.87838 0.22829 0.0
H1828 H 0.57292 0.88736 0.21768 0.0
H1829 H 0.56607 0.89326 0.29425 0.0
H1830 H 0.56417 0.84809 0.29936 0.0
H1831 H 0.52231 0.84807 0.29065 0.0
C1832 C 0.26989 0.79529 0.26633 0.0
C1833 C 0.25403 0.80461 0.25295 0.0
C1834 C 0.26452 0.75758 0.2681 0.0
C1835 C 0.2433 0.72883 0.25608 0.0
C1836 C 0.22874 0.7388 0.24219 0.0
C1837 C 0.23414 0.77649 0.24085 0.0
C1838 C 0.28028 0.74809 0.28315 0.0
C1839 C 0.20649 0.70941 0.22896 0.0
C1840 C 0.25663 0.64016 0.25534 0.0
C1841 C 0.22331 0.61229 0.26372 0.0
C1842 C 0.26303 0.67786 0.25242 0.0
C1843 C 0.23571 0.68819 0.25821 0.0
C1844 C 0.20147 0.65985 0.2663 0.0
C1845 C 0.19556 0.62213 0.26886 0.0
C1846 C 0.2994 0.70685 0.2434 0.0
C1847 C 0.17166 0.66972 0.27267 0.0
H1848 H 0.28487 0.81691 0.27578 0.0
H1849 H 0.22233 0.78391 0.23039 0.0
H1850 H 0.25584 0.725 0.29034 0.0
H1851 H 0.29962 0.73657 0.27955 0.0
H1852 H 0.29692 0.77389 0.29114 0.0
H1853 H 0.20123 0.72303 0.21809 0.0
H1854 H 0.22254 0.69454 0.22499 0.0
H1855 H 0.17787 0.68676 0.23383 0.0
H1856 H 0.27798 0.63254 0.2512 0.0
H1857 H 0.16996 0.6008 0.27547 0.0
H1858 H 0.31798 0.73163 0.25157 0.0
H1859 H 0.29155 0.7189 0.23275 0.0
H1860 H 0.31678 0.69369 0.23899 0.0
H1861 H 0.18546 0.69385 0.28166 0.0
H1862 H 0.14656 0.64443 0.27865 0.0
H1863 H 0.16055 0.67997 0.26249 0.0
C1864 C 0.45629 0.54005 0.26828 0.0
C1865 C 0.47299 0.58055 0.26984 0.0
C1866 C 0.41628 0.51597 0.26545 0.0
C1867 C 0.3922 0.53259 0.26334 0.0
C1868 C 0.40886 0.57351 0.26437 0.0
C1869 C 0.44883 0.59692 0.26787 0.0
C1870 C 0.3999 0.47261 0.2647 0.0
C1871 C 0.3844 0.59254 0.26186 0.0
C1872 C 0.29515 0.46831 0.242 0.0
C1873 C 0.26915 0.45476 0.25526 0.0
C1874 C 0.33509 0.49455 0.24437 0.0
C1875 C 0.3495 0.50697 0.26042 0.0
C1876 C 0.32324 0.49355 0.27383 0.0
C1877 C 0.28338 0.46807 0.27105 0.0
C1878 C 0.36188 0.50854 0.2297 0.0
C1879 C 0.33739 0.50486 0.2912 0.0
H1880 H 0.47449 0.5269 0.26925 0.0
H1881 H 0.4609 0.62802 0.26929 0.0
H1882 H 0.37349 0.45741 0.2725 0.0
H1883 H 0.39143 0.46277 0.25191 0.0
H1884 H 0.42124 0.46388 0.26872 0.0
H1885 H 0.40209 0.62484 0.26218 0.0
H1886 H 0.36919 0.58354 0.24989 0.0
H1887 H 0.36164 0.58277 0.27148 0.0
H1888 H 0.28427 0.45824 0.22975 0.0
H1889 H 0.26355 0.45752 0.28137 0.0
H1890 H 0.38222 0.49699 0.23025 0.0
H1891 H 0.37975 0.54081 0.22976 0.0
H1892 H 0.34561 0.49905 0.21797 0.0
H1893 H 0.358 0.49451 0.29426 0.0
H1894 H 0.31312 0.49238 0.30022 0.0
H1895 H 0.35343 0.53701 0.29248 0.0
C1896 C 0.85044 0.5934 0.74504 0.0
C1897 C 0.84496 0.60315 0.76093 0.0
C1898 C 0.86551 0.56845 0.74239 0.0
C1899 C 0.87421 0.55182 0.75595 0.0
C1900 C 0.86804 0.56104 0.77204 0.0
C1901 C 0.85393 0.58697 0.77434 0.0
C1902 C 0.87307 0.56073 0.72505 0.0
C1903 C 0.8765 0.54368 0.78685 0.0
C1904 C 0.88094 0.46106 0.74687 0.0
C1905 C 0.92149 0.47608 0.74638 0.0
C1906 C 0.86516 0.48507 0.7505 0.0
C1907 C 0.8904 0.52537 0.75321 0.0
C1908 C 0.9312 0.54063 0.75273 0.0
C1909 C 0.94618 0.51581 0.74966 0.0
C1910 C 0.82145 0.4674 0.75124 0.0
C1911 C 0.95921 0.58334 0.75528 0.0
H1912 H 0.8441 0.60629 0.73464 0.0
H1913 H 0.8498 0.59453 0.78664 0.0
H1914 H 0.90431 0.56971 0.72356 0.0
H1915 H 0.85587 0.5291 0.72238 0.0
H1916 H 0.86551 0.5766 0.71588 0.0
H1917 H 0.86742 0.55154 0.79844 0.0
H1918 H 0.86121 0.51146 0.78579 0.0
H1919 H 0.90816 0.55412 0.78754 0.0
H1920 H 0.86134 0.43062 0.74413 0.0
H1921 H 0.97746 0.52775 0.74982 0.0
H1922 H 0.81166 0.47949 0.74126 0.0
H1923 H 0.81288 0.47506 0.763 0.0
H1924 H 0.80587 0.43517 0.75005 0.0
H1925 H 0.9519 0.60085 0.74694 0.0
H1926 H 0.99 0.59126 0.7531 0.0
H1927 H 0.95654 0.5912 0.76804 0.0
C1928 C 0.53926 0.45661 0.74834 0.0
C1929 C 0.57978 0.47337 0.74672 0.0
C1930 C 0.51515 0.41649 0.75094 0.0
C1931 C 0.53182 0.39236 0.75276 0.0
C1932 C 0.57274 0.40904 0.7515 0.0
C1933 C 0.59611 0.44909 0.7482 0.0
C1934 C 0.47184 0.40034 0.75208 0.0
C1935 C 0.59187 0.38459 0.75372 0.0
C1936 C 0.46981 0.29574 0.77482 0.0
C1937 C 0.45634 0.26927 0.76176 0.0
C1938 C 0.4951 0.33573 0.77212 0.0
C1939 C 0.50648 0.34974 0.75593 0.0
C1940 C 0.49284 0.32306 0.7427 0.0
C1941 C 0.46853 0.28311 0.74581 0.0
C1942 C 0.50908 0.36299 0.7866 0.0
C1943 C 0.50265 0.33689 0.7252 0.0
H1944 H 0.52611 0.47485 0.74771 0.0
H1945 H 0.62721 0.46117 0.74666 0.0
H1946 H 0.45567 0.37176 0.74583 0.0
H1947 H 0.46345 0.3963 0.76518 0.0
H1948 H 0.46289 0.42038 0.74665 0.0
H1949 H 0.62418 0.40225 0.75311 0.0
H1950 H 0.58339 0.36945 0.76573 0.0
H1951 H 0.58166 0.36183 0.74411 0.0
H1952 H 0.46041 0.28518 0.78717 0.0
H1953 H 0.45782 0.26285 0.73565 0.0
H1954 H 0.49617 0.38217 0.78617 0.0
H1955 H 0.54124 0.38197 0.78615 0.0
H1956 H 0.50089 0.34706 0.79845 0.0
H1957 H 0.49181 0.35723 0.72241 0.0
H1958 H 0.4896 0.31245 0.7163 0.0
H1959 H 0.53471 0.35314 0.72343 0.0
C1960 C 0.60949 0.16975 0.75408 0.0
C1961 C 0.58489 0.12911 0.75302 0.0
C1962 C 0.64967 0.18634 0.75703 0.0
C1963 C 0.66614 0.16195 0.75834 0.0
C1964 C 0.64163 0.1211 0.75719 0.0
C1965 C 0.60141 0.1052 0.75493 0.0
C1966 C 0.67457 0.23003 0.75855 0.0
C1967 C 0.65794 0.09407 0.75804 0.0
C1968 C 0.77392 0.20663 0.74817 0.0
C1969 C 0.79051 0.21053 0.76369 0.0
C1970 C 0.73353 0.19051 0.74626 0.0
C1971 C 0.70915 0.17917 0.76027 0.0
C1972 C 0.72589 0.1839 0.77603 0.0
C1973 C 0.76633 0.19914 0.77754 0.0
C1974 C 0.71687 0.18475 0.7292 0.0
C1975 C 0.70113 0.17276 0.79131 0.0
H1976 H 0.59765 0.18889 0.75231 0.0
H1977 H 0.58295 0.07382 0.75461 0.0
H1978 H 0.6919 0.23766 0.77 0.0
H1979 H 0.69548 0.24171 0.74819 0.0
H1980 H 0.6569 0.2447 0.75859 0.0
H1981 H 0.63529 0.06305 0.75631 0.0
H1982 H 0.68063 0.10219 0.74847 0.0
H1983 H 0.67183 0.09713 0.7701 0.0
H1984 H 0.79241 0.21513 0.73741 0.0
H1985 H 0.77907 0.2022 0.78957 0.0
H1986 H 0.70137 0.20136 0.72769 0.0
H1987 H 0.69524 0.15353 0.72724 0.0
H1988 H 0.73971 0.19424 0.71958 0.0
H1989 H 0.68374 0.18769 0.79151 0.0
H1990 H 0.7189 0.18033 0.80265 0.0
H1991 H 0.68029 0.14097 0.79137 0.0
C1992 C 0.0968 0.14562 0.58564 0.0
C1993 C 0.10102 0.18043 0.59201 0.0
C1994 C 0.12933 0.1413 0.58262 0.0
C1995 C 0.16717 0.17273 0.58585 0.0
C1996 C 0.17179 0.20876 0.59129 0.0
C1997 C 0.13867 0.21218 0.59433 0.0
C1998 C 0.123 0.10232 0.57691 0.0
C1999 C 0.21166 0.24308 0.59468 0.0
C2000 C 0.24393 0.14756 0.59893 0.0
C2001 C 0.26544 0.15363 0.58448 0.0
C2002 C 0.21202 0.1537 0.59947 0.0
C2003 C 0.20132 0.16653 0.58524 0.0
C2004 C 0.22266 0.17244 0.57056 0.0
C2005 C 0.25417 0.16545 0.57031 0.0
C2006 C 0.18978 0.1465 0.61534 0.0
C2007 C 0.21244 0.18649 0.55519 0.0
H2008 H 0.06783 0.12117 0.58349 0.0
H2009 H 0.14226 0.23911 0.59931 0.0
H2010 H 0.14169 0.10605 0.56617 0.0
H2011 H 0.13145 0.08878 0.5868 0.0
H2012 H 0.09214 0.08197 0.57359 0.0
H2013 H 0.21069 0.27013 0.59719 0.0
H2014 H 0.22473 0.23668 0.6054 0.0
H2015 H 0.23113 0.24826 0.58409 0.0
H2016 H 0.25224 0.13837 0.60998 0.0
H2017 H 0.27014 0.1695 0.55902 0.0
H2018 H 0.15867 0.1244 0.61345 0.0
H2019 H 0.19088 0.17369 0.61947 0.0
H2020 H 0.2016 0.13616 0.62525 0.0
H2021 H 0.18172 0.16616 0.55173 0.0
H2022 H 0.23158 0.18919 0.54472 0.0
H2023 H 0.2151 0.21533 0.55743 0.0
C2024 C 0.79842 0.94013 0.61005 0.0
C2025 C 0.82181 0.92289 0.61056 0.0
C2026 C 0.81357 0.97896 0.60513 0.0
C2027 C 0.85321 1.00142 0.60044 0.0
C2028 C 0.87668 0.98366 0.60023 0.0
C2029 C 0.86066 0.94449 0.60526 0.0
C2030 C 0.78688 0.99576 0.60496 0.0
C2031 C 0.91904 1.00646 0.5953 0.0
C2032 C 0.88086 0.09656 0.57813 0.0
C2033 C 0.89463 0.12356 0.59102 0.0
C2034 C 0.86859 0.05697 0.58084 0.0
C2035 C 0.87027 0.04397 0.59683 0.0
C2036 C 0.88529 0.0714 0.60978 0.0
C2037 C 0.89723 0.11072 0.60673 0.0
C2038 C 0.8527 0.02888 0.56668 0.0
C2039 C 0.88697 0.05891 0.62708 0.0
H2040 H 0.76818 0.92329 0.61385 0.0
H2041 H 0.87894 0.93133 0.60571 0.0
H2042 H 0.80086 0.02487 0.61084 0.0
H2043 H 0.7807 0.99916 0.59203 0.0
H2044 H 0.75871 0.97664 0.61123 0.0
H2045 H 0.93262 0.98783 0.59463 0.0
H2046 H 0.92205 0.02049 0.58321 0.0
H2047 H 0.93542 0.03007 0.60429 0.0
H2048 H 0.87907 0.10625 0.56592 0.0
H2049 H 0.90733 0.13114 0.61683 0.0
H2050 H 0.82118 1.00834 0.5686 0.0
H2051 H 0.86739 0.01132 0.56597 0.0
H2052 H 0.85644 0.04403 0.5548 0.0
H2053 H 0.8569 0.0396 0.63168 0.0
H2054 H 0.90195 0.0841 0.63554 0.0
H2055 H 0.90237 0.042 0.62738 0.0
C2056 C 0.11481 0.93 0.60418 0.0
C2057 C 0.13679 0.91162 0.60732 0.0
C2058 C 0.0746 0.90829 0.60085 0.0
C2059 C 0.05514 0.86712 0.6015 0.0
C2060 C 0.07667 0.84844 0.60531 0.0
C2061 C 0.11712 0.87068 0.60755 0.0
C2062 C 0.05296 0.92943 0.59652 0.0
C2063 C 0.05754 0.80478 0.60671 0.0
C2064 C 0.94487 0.80862 0.60709 0.0
C2065 C 0.93247 0.79236 0.59148 0.0
C2066 C 0.98462 0.83352 0.61048 0.0
C2067 C 1.01256 0.84345 0.59782 0.0
C2068 C 0.9999 0.82873 0.58183 0.0
C2069 C 0.96009 0.80324 0.57889 0.0
C2070 C 0.99691 0.84705 0.62784 0.0
C2071 C 0.02857 0.83867 0.56796 0.0
H2072 H 0.12871 0.96143 0.60437 0.0
H2073 H 0.13314 0.85548 0.60937 0.0
H2074 H 0.03865 0.91935 0.58442 0.0
H2075 H 0.02964 0.92263 0.60563 0.0
H2076 H 0.07248 0.96153 0.59603 0.0
H2077 H 0.0744 0.79609 0.61482 0.0
H2078 H 0.02738 0.7916 0.61153 0.0
H2079 H 0.05664 0.7927 0.59441 0.0
H2080 H 0.92374 0.80017 0.61691 0.0
H2081 H 0.95064 0.79104 0.56676 0.0
H2082 H 0.01562 0.87919 0.62825 0.0
H2083 H 0.01447 0.83441 0.63258 0.0
H2084 H 0.97157 0.83825 0.63613 0.0
H2085 H 0.04806 0.87069 0.56713 0.0
H2086 H 0.01382 0.82772 0.55599 0.0
H2087 H 0.04716 0.82558 0.57035 0.0
C2088 C 0.5305 0.06973 0.042 0.0
C2089 C 0.53934 0.04736 0.05252 0.0
C2090 C 0.53164 0.06603 0.02488 0.0
C2091 C 0.54361 0.04059 0.01816 0.0
C2092 C 0.55566 0.02047 0.02883 0.0
C2093 C 0.55224 0.02318 0.04584 0.0
C2094 C 0.51726 0.08717 0.01407 0.0
C2095 C 0.56973 0.99402 0.02233 0.0
C2096 C 0.50103 0.99541 0.97656 0.0
C2097 C 0.52749 0.02413 0.96593 0.0
C2098 C 0.50653 0.99947 0.99364 0.0
C2099 C 0.5401 0.03253 1.00014 0.0
C2100 C 0.56878 0.05942 0.98922 0.0
C2101 C 0.56158 0.05549 0.9723 0.0
C2102 C 0.47537 0.96866 1.00443 0.0
C2103 C 0.6064 0.09338 0.99531 0.0
H2104 H 0.51917 0.08731 0.04715 0.0
H2105 H 0.55763 1.00463 0.05389 0.0
H2106 H 0.54203 0.11042 1.00713 0.0
H2107 H 0.49583 0.06688 1.00503 0.0
H2108 H 0.50336 0.1008 0.02124 0.0
H2109 H 0.58604 0.98776 0.03178 0.0
H2110 H 0.5443 0.96597 0.01851 0.0
H2111 H 0.58881 1.00717 0.01148 0.0
H2112 H 0.47439 0.97145 0.97164 0.0
H2113 H 0.58192 0.07799 0.96406 0.0
H2114 H 0.47549 0.97882 0.01707 0.0
H2115 H 0.48003 0.94331 1.00509 0.0
H2116 H 0.44599 0.95807 0.99909 0.0
H2117 H 0.60168 0.11795 0.99839 0.0
H2118 H 0.62955 0.10376 0.98579 0.0
H2119 H 0.61691 0.08549 1.00647 0.0
C2120 C 1.01088 0.5293 0.97069 0.0
C2121 C 0.04243 0.52736 0.96392 0.0
C2122 C 1.00751 0.53246 0.98765 0.0
C2123 C 0.03539 0.53174 0.99824 0.0
C2124 C 0.06895 0.53275 0.99137 0.0
C2125 C 0.07238 0.53133 0.97423 0.0
C2126 C 0.97314 0.53489 0.9942 0.0
C2127 C 0.10092 0.53378 1.00177 0.0
C2128 C 0.04192 0.55251 0.04404 0.0
C2129 C 0.01886 0.51507 0.05061 0.0
C2130 C 0.04578 0.55876 0.02703 0.0
C2131 C 0.02757 0.52653 0.01628 0.0
C2132 C 1.00334 0.48869 0.02288 0.0
C2133 C 0.99873 0.48356 0.03997 0.0
C2134 C 0.07142 0.59955 0.02063 0.0
C2135 C 0.98458 0.45319 0.01198 0.0
H2136 H 0.98781 0.52665 0.96272 0.0
H2137 H 0.09677 0.52974 0.96904 0.0
H2138 H 0.95105 0.50616 0.99916 0.0
H2139 H 0.98233 0.55636 1.00433 0.0
H2140 H 0.95907 0.54332 0.98452 0.0
H2141 H 0.12742 0.5629 1.00054 0.0
H2142 H 0.0934 0.52822 0.01494 0.0
H2143 H 0.10864 0.51207 0.99724 0.0
H2144 H 0.05873 0.57674 0.05223 0.0
H2145 H 0.98222 0.45443 0.04505 0.0
H2146 H 0.05726 0.60541 0.01014 0.0
H2147 H 0.0993 0.60262 0.01618 0.0
H2148 H 0.07812 0.62185 0.03024 0.0
H2149 H 0.96217 0.45406 1.00417 0.0
H2150 H 0.97046 0.4256 0.0191 0.0
H2151 H 1.00667 0.45287 1.00369 0.0
C2152 C 0.5446 0.5728 0.97603 0.0
C2153 C 0.53814 0.54259 0.96536 0.0
C2154 C 0.54485 0.568 0.99312 0.0
C2155 C 0.53733 0.53159 0.99969 0.0
C2156 C 0.5283 0.5003 0.98887 0.0
C2157 C 0.5298 0.50649 0.97189 0.0
C2158 C 0.5549 0.60296 1.00373 0.0
C2159 C 0.51903 0.4608 0.99518 0.0
C2160 C 0.57934 0.53105 0.04181 0.0
C2161 C 0.55008 0.52876 0.05213 0.0
C2162 C 0.57515 0.53037 0.02465 0.0
C2163 C 0.54046 0.52664 0.01772 0.0
C2164 C 0.50954 0.52075 0.02826 0.0
C2165 C 0.51497 0.52245 0.04528 0.0
C2166 C 0.60908 0.53558 0.01434 0.0
C2167 C 0.47156 0.5151 0.02158 0.0
H2168 H 0.55241 0.60115 0.97102 0.0
H2169 H 0.52617 0.48344 0.96366 0.0
H2170 H 0.53116 0.61004 1.00283 0.0
H2171 H 0.5592 0.59874 0.0168 0.0
H2172 H 0.58186 0.62868 0.99908 0.0
H2173 H 0.50665 0.43817 0.98548 0.0
H2174 H 0.54609 0.46236 0.99983 0.0
H2175 H 0.498 0.4517 1.00551 0.0
H2176 H 0.60683 0.53671 0.04706 0.0
H2177 H 0.49242 0.52103 0.05327 0.0
H2178 H 0.60573 0.53915 1.0011 0.0
H2179 H 0.61273 0.50977 0.01599 0.0
H2180 H 0.63642 0.56126 0.01868 0.0
H2181 H 0.476 0.54336 0.01695 0.0
H2182 H 0.44837 0.50419 0.0311 0.0
H2183 H 0.46142 0.49427 0.0112 0.0
C2184 C 0.20771 0.34892 0.37799 0.0
C2185 C 0.19858 0.37628 0.38434 0.0
C2186 C 0.21024 0.34464 0.36104 0.0
C2187 C 0.20173 0.36709 0.3501 0.0
C2188 C 0.194 0.39592 0.35648 0.0
C2189 C 0.19321 0.40062 0.37356 0.0
C2190 C 0.21961 0.31435 0.35492 0.0
C2191 C 0.18372 0.41985 0.34533 0.0
C2192 C 0.22247 0.37777 0.30435 0.0
C2193 C 0.18642 0.35002 0.29784 0.0
C2194 C 0.22881 0.38172 0.32132 0.0
C2195 C 0.19773 0.35846 0.33212 0.0
C2196 C 0.16187 0.3287 0.32554 0.0
C2197 C 0.15691 0.32449 0.30844 0.0
C2198 C 0.26828 0.41203 0.32763 0.0
C2199 C 0.128 0.30188 0.33637 0.0
H2200 H 0.21083 0.32933 0.38632 0.0
H2201 H 0.18485 0.42082 0.37846 0.0
H2202 H 0.19235 0.2882 0.3509 0.0
H2203 H 0.23963 0.32549 0.34424 0.0
H2204 H 0.23312 0.30528 0.36461 0.0
H2205 H 0.17464 0.43813 0.35225 0.0
H2206 H 0.20919 0.43921 0.33761 0.0
H2207 H 0.15971 0.40051 0.33698 0.0
H2208 H 0.2453 0.39762 0.29613 0.0
H2209 H 0.12886 0.30336 0.30341 0.0
H2210 H 0.2771 0.40055 0.33819 0.0
H2211 H 0.26698 0.43791 0.33188 0.0
H2212 H 0.29107 0.42164 0.31798 0.0
H2213 H 0.13026 0.27572 0.33925 0.0
H2214 H 0.09971 0.29182 0.33007 0.0
H2215 H 0.12764 0.31576 0.34808 0.0
C2216 C 0.66317 0.82159 0.37475 0.0
C2217 C 0.69014 0.84972 0.3854 0.0
C2218 C 0.66715 0.82708 0.35764 0.0
C2219 C 0.69856 0.86205 0.35104 0.0
C2220 C 0.7238 0.89179 0.36194 0.0
C2221 C 0.71984 0.8849 0.3789 0.0
C2222 C 0.63815 0.79419 0.34703 0.0
C2223 C 0.75636 0.93023 0.35572 0.0
C2224 C 0.73952 0.86061 0.30864 0.0
C2225 C 0.71454 0.86635 0.29841 0.0
C2226 C 0.73566 0.86034 0.32581 0.0
C2227 C 0.7065 0.86678 0.33294 0.0
C2228 C 0.68367 0.87608 0.32254 0.0
C2229 C 0.68743 0.87497 0.30546 0.0
C2230 C 0.76215 0.8514 0.33591 0.0
C2231 C 0.65368 0.88511 0.32939 0.0
H2232 H 0.64069 0.79402 0.3797 0.0
H2233 H 0.74116 0.90653 0.38713 0.0
H2234 H 0.60876 0.7905 0.34903 0.0
H2235 H 0.64485 0.79866 0.33378 0.0
H2236 H 0.63649 0.76648 0.35083 0.0
H2237 H 0.76808 0.9527 0.36549 0.0
H2238 H 0.7805 0.92623 0.35113 0.0
H2239 H 0.74614 0.94109 0.3454 0.0
H2240 H 0.75993 0.85309 0.30323 0.0
H2241 H 0.6677 0.87892 0.29755 0.0
H2242 H 0.75459 0.84689 0.34908 0.0
H2243 H 0.79254 0.87586 0.33467 0.0
H2244 H 0.76174 0.82502 0.33106 0.0
H2245 H 0.62791 0.85774 0.33363 0.0
H2246 H 0.64379 0.89874 0.32009 0.0
H2247 H 0.66564 0.90495 0.34008 0.0
C2248 C 0.18321 0.84973 0.3066 0.0
C2249 C 0.22093 0.86714 0.29996 0.0
C2250 C 0.17701 0.84219 0.3236 0.0
C2251 C 0.20934 0.85356 0.3342 0.0
C2252 C 0.24708 0.86933 0.32742 0.0
C2253 C 0.2522 0.87513 0.31051 0.0
C2254 C 0.13607 0.8236 0.33027 0.0
C2255 C 0.28273 0.88311 0.33812 0.0
C2256 C 0.21186 0.89613 0.37584 0.0
C2257 C 0.21481 0.86991 0.38658 0.0
C2258 C 0.2082 0.89006 0.35892 0.0
C2259 C 0.20555 0.85586 0.35234 0.0
C2260 C 0.2056 0.82771 0.36312 0.0
C2261 C 0.21111 0.83544 0.38011 0.0
C2262 C 0.21001 0.92185 0.34804 0.0
C2263 C 0.20123 0.79007 0.3567 0.0
H2264 H 0.15869 0.84268 0.29864 0.0
H2265 H 0.28159 0.88796 0.30572 0.0
H2266 H 0.13174 0.80257 0.34016 0.0
H2267 H 0.13089 0.84636 0.3356 0.0
H2268 H 0.11403 0.80827 0.32055 0.0
H2269 H 0.30992 0.89351 0.33088 0.0
H2270 H 0.2861 0.90737 0.34604 0.0
H2271 H 0.27942 0.85929 0.34628 0.0
H2272 H 0.21432 0.92284 0.38051 0.0
H2273 H 0.21281 0.81469 0.38822 0.0
H2274 H 0.18427 0.90994 0.33988 0.0
H2275 H 0.23634 0.93373 0.34014 0.0
H2276 H 0.21114 0.94628 0.35515 0.0
H2277 H 0.19023 0.76723 0.36635 0.0
H2278 H 0.23001 0.79496 0.35256 0.0
H2279 H 0.18106 0.77922 0.3461 0.0
C2280 C 0.88601 0.68905 0.71306 0.0
C2281 C 0.87169 0.71229 0.71947 0.0
C2282 C 0.88996 0.6862 0.69608 0.0
C2283 C 0.8776 0.70566 0.68517 0.0
C2284 C 0.86425 0.73021 0.69164 0.0
C2285 C 0.86213 0.73374 0.70873 0.0
C2286 C 0.90472 0.66011 0.68984 0.0
C2287 C 0.84925 0.75033 0.68056 0.0
C2288 C 0.89722 0.72057 0.63937 0.0
C2289 C 0.86298 0.68967 0.63288 0.0
C2290 C 0.90391 0.72438 0.65635 0.0
C2291 C 0.87484 0.69753 0.66716 0.0
C2292 C 0.84142 0.6646 0.66052 0.0
C2293 C 0.83624 0.66087 0.64343 0.0
C2294 C 0.9413 0.75825 0.66267 0.0
C2295 C 0.80997 0.63359 0.67115 0.0
H2296 H 0.89211 0.67132 0.72129 0.0
H2297 H 0.84966 0.75052 0.71366 0.0
H2298 H 0.87973 0.63238 0.68544 0.0
H2299 H 0.925 0.67397 0.67939 0.0
H2300 H 0.9199 0.65315 0.69957 0.0
H2301 H 0.83675 0.76558 0.68754 0.0
H2302 H 0.87326 0.77195 0.67276 0.0
H2303 H 0.82644 0.7288 0.67228 0.0
H2304 H 0.91802 0.74279 0.63118 0.0
H2305 H 0.8096 0.63708 0.63842 0.0
H2306 H 0.9524 0.74935 0.67334 0.0
H2307 H 0.93588 0.78182 0.66672 0.0
H2308 H 0.96423 0.77032 0.65305 0.0
H2309 H 0.81325 0.60737 0.67101 0.0
H2310 H 0.78068 0.62477 0.66609 0.0
H2311 H 0.81093 0.64265 0.68404 0.0
C2312 C 0.40333 0.19464 0.64449 0.0
C2313 C 0.37494 0.19271 0.63376 0.0
C2314 C 0.39892 0.19603 0.66159 0.0
C2315 C 0.36607 0.19723 0.66804 0.0
C2316 C 0.33977 0.19964 0.65701 0.0
C2317 C 0.34386 0.19616 0.6401 0.0
C2318 C 0.42896 0.19439 0.6724 0.0
C2319 C 0.30598 0.20374 0.66304 0.0
C2320 C 0.32608 0.15376 0.71037 0.0
C2321 C 0.35029 0.18469 0.72063 0.0
C2322 C 0.32957 0.15766 0.69322 0.0
C2323 C 0.35789 0.19375 0.68612 0.0
C2324 C 0.37991 0.226 0.69657 0.0
C2325 C 0.37644 0.22083 0.71365 0.0
C2326 C 0.30365 0.12198 0.68317 0.0
C2327 C 0.40872 0.26559 0.68982 0.0
H2328 H 0.42716 0.19156 0.63964 0.0
H2329 H 0.32176 0.19466 0.63182 0.0
H2330 H 0.45638 0.22289 0.67181 0.0
H2331 H 0.4199 0.1878 0.68538 0.0
H2332 H 0.4358 0.17212 0.66778 0.0
H2333 H 0.29405 0.21414 0.6532 0.0
H2334 H 0.28231 0.17501 0.66734 0.0
H2335 H 0.31495 0.22435 0.67349 0.0
H2336 H 0.30646 0.12552 0.71574 0.0
H2337 H 0.39561 0.2447 0.72158 0.0
H2338 H 0.30759 0.09737 0.68715 0.0
H2339 H 0.30882 0.1261 0.66982 0.0
H2340 H 0.27272 0.11311 0.6856 0.0
H2341 H 0.4362 0.26612 0.68661 0.0
H2342 H 0.41577 0.28899 0.69894 0.0
H2343 H 0.39729 0.27209 0.67858 0.0
C2344 C 0.87262 0.2354 0.64273 0.0
C2345 C 0.86622 0.20532 0.63199 0.0
C2346 C 0.87145 0.22986 0.6598 0.0
C2347 C 0.86216 0.19286 0.66623 0.0
C2348 C 0.85307 0.16172 0.65533 0.0
C2349 C 0.85617 0.16861 0.63838 0.0
C2350 C 0.88309 0.26438 0.67092 0.0
C2351 C 0.84244 0.12173 0.6615 0.0
C2352 C 0.90323 0.19294 0.70852 0.0
C2353 C 0.87377 0.1909 0.71864 0.0
C2354 C 0.89949 0.19227 0.69136 0.0
C2355 C 0.86469 0.1878 0.68426 0.0
C2356 C 0.83334 0.18145 0.6946 0.0
C2357 C 0.8386 0.18399 0.71164 0.0
C2358 C 0.93355 0.19773 0.68105 0.0
C2359 C 0.79476 0.17365 0.6877 0.0
H2360 H 0.88196 0.26417 0.6378 0.0
H2361 H 0.85267 0.14569 0.6301 0.0
H2362 H 0.8583 0.25902 0.67894 0.0
H2363 H 0.9074 0.26852 0.67899 0.0
H2364 H 0.89241 0.29176 0.66397 0.0
H2365 H 0.82867 0.09927 0.65179 0.0
H2366 H 0.86919 0.12196 0.66567 0.0
H2367 H 0.8222 0.11332 0.67209 0.0
H2368 H 0.93053 0.19855 0.71395 0.0
H2369 H 0.81568 0.18213 0.71951 0.0
H2370 H 0.93483 0.21119 0.669 0.0
H2371 H 0.93078 0.16884 0.67885 0.0
H2372 H 0.96162 0.21598 0.68749 0.0
H2373 H 0.79778 0.20094 0.68258 0.0
H2374 H 0.77153 0.16254 0.69719 0.0
H2375 H 0.78546 0.15211 0.6776 0.0
C2376 C 0.28998 0.95026 0.19613 0.0
C2377 C 0.29239 0.92365 0.20672 0.0
C2378 C 0.31579 0.96645 0.18267 0.0
C2379 C 0.3447 0.95589 0.17977 0.0
C2380 C 0.34608 0.92793 0.19011 0.0
C2381 C 0.31979 0.91195 0.20323 0.0
C2382 C 0.31307 0.99591 0.17191 0.0
C2383 C 0.37643 0.91591 0.1877 0.0
C2384 C 0.39062 0.96376 0.13796 0.0
C2385 C 0.4275 0.9976 0.13927 0.0
C2386 C 0.36303 0.95131 0.15065 0.0
C2387 C 0.3725 0.97221 0.16553 0.0
C2388 C 0.40967 1.0064 0.16709 0.0
C2389 C 0.43641 0.01905 0.15386 0.0
C2390 C 0.32379 0.91514 0.14818 0.0
C2391 C 0.42135 0.02986 0.18267 0.0
H2392 H 0.26947 0.96005 0.19887 0.0
H2393 H 0.32198 0.89148 0.21136 0.0
H2394 H 0.33973 0.02475 0.17343 0.0
H2395 H 0.31146 0.98759 0.15885 0.0
H2396 H 0.28727 0.99881 0.17493 0.0
H2397 H 0.37425 0.8945 0.19704 0.0
H2398 H 0.3733 0.90285 0.1754 0.0
H2399 H 0.40603 0.94195 0.18835 0.0
H2400 H 0.38286 0.94659 0.12689 0.0
H2401 H 0.46433 0.0455 0.15503 0.0
H2402 H 0.30003 0.92114 0.15133 0.0
H2403 H 0.32098 0.89166 0.15645 0.0
H2404 H 0.31951 0.90428 0.13538 0.0
H2405 H 0.40694 0.04769 0.1831 0.0
H2406 H 0.45336 0.04988 0.18333 0.0
H2407 H 0.41197 0.01065 0.19361 0.0
C2408 C 0.09921 0.45429 0.1383 0.0
C2409 C 0.06325 0.45347 0.1383 0.0
C2410 C 0.11054 0.43889 0.1513 0.0
C2411 C 0.08592 0.42285 0.16509 0.0
C2412 C 0.04945 0.42168 0.16525 0.0
C2413 C 0.03838 0.43662 0.15181 0.0
C2414 C 0.14946 0.44058 0.15038 0.0
C2415 C 0.02251 0.40541 0.1798 0.0
C2416 C 0.10801 0.36202 0.19544 0.0
C2417 C 0.13043 0.38992 0.2073 0.0
C2418 C 0.09304 0.37205 0.18169 0.0
C2419 C 0.10023 0.41077 0.17982 0.0
C2420 C 0.12322 0.43899 0.19167 0.0
C2421 C 0.13829 0.42841 0.20503 0.0
C2422 C 0.06935 0.34119 0.1692 0.0
C2423 C 0.13172 0.48055 0.19034 0.0
H2424 H 0.11898 0.46716 0.12808 0.0
H2425 H 1.01042 0.43537 0.15198 0.0
H2426 H 0.16936 0.4609 0.15981 0.0
H2427 H 0.14587 0.41147 0.15296 0.0
H2428 H 0.16355 0.45053 0.1382 0.0
H2429 H 0.9945 0.40488 0.17782 0.0
H2430 H 0.01623 0.37537 0.18248 0.0
H2431 H 0.0369 0.42331 0.19079 0.0
H2432 H 0.10144 0.3322 0.19706 0.0
H2433 H 0.15563 0.45045 0.21401 0.0
H2434 H 0.08297 0.35048 0.15692 0.0
H2435 H 0.03969 0.33739 0.16838 0.0
H2436 H 0.06671 0.31264 0.17223 0.0
H2437 H 0.14865 0.49417 0.17903 0.0
H2438 H 0.1485 0.49858 0.20098 0.0
H2439 H 0.10406 0.48112 0.18946 0.0
C2440 C 0.69608 0.77016 0.19696 0.0
C2441 C 0.66979 0.76323 0.20982 0.0
C2442 C 0.6857 0.74407 0.1836 0.0
C2443 C 0.64825 0.71003 0.18306 0.0
C2444 C 0.62182 0.70292 0.19605 0.0
C2445 C 0.63273 0.72949 0.20909 0.0
C2446 C 0.71471 0.75305 0.16997 0.0
C2447 C 0.58161 0.66728 0.19612 0.0
C2448 C 0.6017 0.66399 0.14215 0.0
C2449 C 0.60656 0.63117 0.14126 0.0
C2450 C 0.61585 0.69001 0.1554 0.0
C2451 C 0.63525 0.68331 0.16844 0.0
C2452 C 0.63998 0.65004 0.16781 0.0
C2453 C 0.62571 0.62445 0.15423 0.0
C2454 C 0.60983 0.72478 0.15543 0.0
C2455 C 0.66015 0.64153 0.1815 0.0
H2456 H 0.72485 0.79578 0.19739 0.0
H2457 H 0.61194 0.72344 0.21885 0.0
H2458 H 0.71991 0.72824 0.16824 0.0
H2459 H 0.70274 0.75696 0.1583 0.0
H2460 H 0.74304 0.7798 0.1724 0.0
H2461 H 0.5653 0.66466 0.20757 0.0
H2462 H 0.56453 0.6685 0.18561 0.0
H2463 H 0.58373 0.64057 0.19467 0.0
H2464 H 0.58695 0.66978 0.13232 0.0
H2465 H 0.63006 0.59957 0.15367 0.0
H2466 H 0.63823 0.75205 0.15682 0.0
H2467 H 0.59139 0.72291 0.16602 0.0
H2468 H 0.59567 0.72687 0.14405 0.0
H2469 H 0.69003 0.66657 0.18318 0.0
H2470 H 0.66208 0.61494 0.17915 0.0
H2471 H 0.6442 0.63763 0.19317 0.0
C2472 C 1.00263 0.43294 0.8604 0.0
C2473 C 1.01116 0.42177 0.87541 0.0
C2474 C 0.99218 0.40826 0.8466 0.0
C2475 C 0.9881 0.37065 0.84808 0.0
C2476 C 0.99833 0.36011 0.86306 0.0
C2477 C 1.01091 0.38632 0.87626 0.0
C2478 C 0.98452 0.42211 0.83056 0.0
C2479 C 0.99326 0.32011 0.86573 0.0
C2480 C 0.91464 0.29453 0.81861 0.0
C2481 C 0.93881 0.28824 0.80805 0.0
C2482 C 0.93016 0.31985 0.83209 0.0
C2483 C 0.97115 0.34162 0.83438 0.0
C2484 C 0.99562 0.33513 0.8237 0.0
C2485 C 0.97897 0.30726 0.81111 0.0
C2486 C 0.90262 0.32335 0.84383 0.0
C2487 C 0.03945 0.35871 0.82515 0.0
H2488 H 1.0026 0.46015 0.85957 0.0
H2489 H 0.01969 0.37859 0.88751 0.0
H2490 H 0.99743 0.41417 0.82022 0.0
H2491 H 0.95268 0.40787 0.82844 0.0
H2492 H 0.99663 0.45416 0.83047 0.0
H2493 H 0.96209 0.29938 0.8684 0.0
H2494 H 1.00117 0.30916 0.85476 0.0
H2495 H 1.01093 0.31975 0.8762 0.0
H2496 H 0.88352 0.27954 0.81631 0.0
H2497 H 0.99765 0.30243 0.80288 0.0
H2498 H 0.90498 0.35227 0.84244 0.0
H2499 H 0.91043 0.32096 0.85666 0.0
H2500 H 0.8718 0.30057 0.84169 0.0
H2501 H 0.04911 0.39028 0.82507 0.0
H2502 H 0.05439 0.35259 0.81503 0.0
H2503 H 0.04902 0.35235 0.83692 0.0
C2504 C 0.62226 0.62418 0.86289 0.0
C2505 C 0.62732 0.60126 0.87467 0.0
C2506 C 0.6478 0.6397 0.84926 0.0
C2507 C 0.6794 0.6325 0.84742 0.0
C2508 C 0.68443 0.6094 0.85929 0.0
C2509 C 0.65833 0.59386 0.8725 0.0
C2510 C 0.64098 0.66373 0.83681 0.0
C2511 C 0.71745 0.60076 0.85804 0.0
C2512 C 0.72469 0.63246 0.80617 0.0
C2513 C 0.76041 0.66781 0.8063 0.0
C2514 C 0.69744 0.62183 0.81898 0.0
C2515 C 0.70597 0.6466 0.83269 0.0
C2516 C 0.74177 0.68256 0.83293 0.0
C2517 C 0.76837 0.69287 0.81972 0.0
C2518 C 0.65981 0.58334 0.81799 0.0
C2519 C 0.75243 0.70968 0.84738 0.0
H2520 H 0.59873 0.6304 0.86442 0.0
H2521 H 0.66259 0.5758 0.88124 0.0
H2522 H 0.66728 0.69303 0.83577 0.0
H2523 H 0.63589 0.64981 0.82459 0.0
H2524 H 0.61561 0.66719 0.84001 0.0
H2525 H 0.71892 0.58445 0.86883 0.0
H2526 H 0.71381 0.58329 0.8469 0.0
H2527 H 0.74572 0.62829 0.8569 0.0
H2528 H 0.71778 0.6126 0.796 0.0
H2529 H 0.7955 0.7204 0.81997 0.0
H2530 H 0.63458 0.58747 0.8205 0.0
H2531 H 0.65968 0.56318 0.82745 0.0
H2532 H 0.65566 0.56929 0.80583 0.0
H2533 H 0.72862 0.71592 0.85004 0.0
H2534 H 0.77986 0.73766 0.84529 0.0
H2535 H 0.7561 0.69547 0.85841 0.0
C2536 C 0.43095 0.12902 0.80907 0.0
C2537 C 0.39384 0.12569 0.80894 0.0
C2538 C 0.44288 0.11341 0.82176 0.0
C2539 C 0.4177 0.09466 0.83516 0.0
C2540 C 0.3802 0.09124 0.83526 0.0
C2541 C 0.36859 0.10648 0.82211 0.0
C2542 C 0.48295 0.11768 0.82093 0.0
C2543 C 0.35262 0.07205 0.84942 0.0
C2544 C 0.44253 0.0336 0.86423 0.0
C2545 C 0.46306 0.06052 0.87669 0.0
C2546 C 0.42734 0.04403 0.85067 0.0
C2547 C 0.43234 0.08209 0.84962 0.0
C2548 C 0.45352 0.10936 0.86207 0.0
C2549 C 0.46891 0.09848 0.8752 0.0
C2550 C 0.4057 0.01427 0.83752 0.0
C2551 C 0.45968 0.15019 0.86163 0.0
H2552 H 0.45115 0.14403 0.79916 0.0
H2553 H 0.33982 0.1034 0.82217 0.0
H2554 H 0.50157 0.13747 0.83078 0.0
H2555 H 0.48101 0.08907 0.82293 0.0
H2556 H 0.49754 0.12961 0.80898 0.0
H2557 H 0.32402 0.07026 0.84745 0.0
H2558 H 0.34771 0.04222 0.85136 0.0
H2559 H 0.36575 0.08873 0.86081 0.0
H2560 H 0.43749 1.00417 0.86525 0.0
H2561 H 0.48482 0.11977 0.88465 0.0
H2562 H 0.41979 0.02568 0.82546 0.0
H2563 H 0.37539 1.0087 0.83663 0.0
H2564 H 0.40478 0.98623 0.83991 0.0
H2565 H 0.4769 0.16579 0.85063 0.0
H2566 H 0.47519 0.16737 0.87264 0.0
H2567 H 0.43119 0.14908 0.86074 0.0
C2568 C 1.00089 0.26317 0.54186 0.0
C2569 C 0.96708 0.26632 0.54293 0.0
C2570 C 0.02703 0.27896 0.52867 0.0
C2571 C 0.01938 0.29825 0.51587 0.0
C2572 C 0.9853 0.30157 0.51675 0.0
C2573 C 0.95962 0.2857 0.53027 0.0
C2574 C 0.0627 0.27442 0.52835 0.0
C2575 C 0.9758 0.32159 0.50331 0.0
C2576 C 0.10433 0.36005 0.48648 0.0
C2577 C 0.09703 0.33374 0.47364 0.0
C2578 C 0.07897 0.34939 0.50015 0.0
C2579 C 0.04541 0.31162 0.50101 0.0
C2580 C 0.03806 0.28513 0.48807 0.0
C2581 C 0.06384 0.29634 0.47473 0.0
C2582 C 0.08811 0.37846 0.51373 0.0
C2583 C 1.00297 0.24455 0.48836 0.0
H2584 H 1.00727 0.2483 0.55144 0.0
H2585 H 0.93395 0.28875 0.53098 0.0
H2586 H 0.06095 0.25592 0.51783 0.0
H2587 H 0.08936 0.3032 0.52667 0.0
H2588 H 0.06587 0.26094 0.53975 0.0
H2589 H 0.9493 0.32342 0.50609 0.0
H2590 H 1.00066 0.35147 0.50137 0.0
H2591 H 0.97113 0.30552 0.49164 0.0
H2592 H 0.12953 0.38907 0.48575 0.0
H2593 H 0.0576 0.27545 0.46501 0.0
H2594 H 0.09289 0.36688 0.52533 0.0
H2595 H 0.06301 0.3831 0.51574 0.0
H2596 H 0.11443 0.407 0.51105 0.0
H2597 H 1.00515 0.22795 0.49885 0.0
H2598 H 1.00015 0.22813 0.47694 0.0
H2599 H 0.97593 0.246 0.49007 0.0
C2600 C 0.70324 0.77339 0.48881 0.0
C2601 C 0.72636 0.78518 0.47459 0.0
C2602 C 0.71443 0.76009 0.50279 0.0
C2603 C 0.7491 0.75771 0.50249 0.0
C2604 C 0.77194 0.7688 0.48808 0.0
C2605 C 0.76064 0.78266 0.47455 0.0
C2606 C 0.6894 0.74894 0.51797 0.0
C2607 C 0.80883 0.76647 0.48695 0.0
C2608 C 0.8055 0.76413 0.54138 0.0
C2609 C 0.79458 0.72504 0.5444 0.0
C2610 C 0.78989 0.77478 0.5282 0.0
C2611 C 0.76319 0.74588 0.51736 0.0
C2612 C 0.75276 0.70642 0.52006 0.0
C2613 C 0.76841 0.69645 0.53355 0.0
C2614 C 0.80197 0.81717 0.52593 0.0
C2615 C 0.72504 0.67469 0.50867 0.0
H2616 H 0.67657 0.7747 0.48906 0.0
H2617 H 0.77904 0.79137 0.46378 0.0
H2618 H 0.67897 0.71803 0.5211 0.0
H2619 H 0.7069 0.7668 0.52849 0.0
H2620 H 0.66375 0.75293 0.51643 0.0
H2621 H 0.82199 0.77373 0.47452 0.0
H2622 H 0.83062 0.78692 0.49582 0.0
H2623 H 0.80268 0.73673 0.49019 0.0
H2624 H 0.82567 0.78653 0.54964 0.0
H2625 H 0.75936 0.66615 0.53584 0.0
H2626 H 0.7758 0.82052 0.52535 0.0
H2627 H 0.8178 0.82799 0.51416 0.0
H2628 H 0.82109 0.83579 0.53596 0.0
H2629 H 0.69677 0.67413 0.50833 0.0
H2630 H 0.71967 0.64546 0.51243 0.0
H2631 H 0.73697 0.68076 0.49604 0.0
C2632 C 0.25331 0.96819 0.48699 0.0
C2633 C 0.27711 0.96029 0.47691 0.0
C2634 C 0.26875 0.99337 0.50052 0.0
C2635 C 0.30967 0.01381 0.50331 0.0
C2636 C 0.33375 1.00541 0.49313 0.0
C2637 C 0.31687 0.97755 0.48053 0.0
C2638 C 0.24082 0.9981 0.51156 0.0
C2639 C 0.37751 0.02647 0.49504 0.0
C2640 C 0.33798 0.10431 0.52975 0.0
C2641 C 0.35188 0.09569 0.54397 0.0
C2642 C 0.32684 0.07944 0.51597 0.0
C2643 C 0.32687 0.04349 0.51686 0.0
C2644 C 0.34216 0.03562 0.53115 0.0
C2645 C 0.35649 0.06293 0.54394 0.0
C2646 C 0.31426 0.09193 0.5008 0.0
C2647 C 0.34223 0.99791 0.53376 0.0
H2648 H 0.22244 0.95459 0.48428 0.0
H2649 H 0.33536 0.97164 0.47264 0.0
H2650 H 0.25184 1.00544 0.5243 0.0
H2651 H 0.23633 0.02171 0.50673 0.0
H2652 H 0.2119 0.97103 0.51183 0.0
H2653 H 0.39217 0.02716 0.48334 0.0
H2654 H 0.38909 0.05685 0.49934 0.0
H2655 H 0.38548 0.01075 0.50407 0.0
H2656 H 0.3347 0.12985 0.52948 0.0
H2657 H 0.37054 0.05798 0.55421 0.0
H2658 H 0.28526 0.08902 0.50298 0.0
H2659 H 0.3127 0.07488 0.48979 0.0
H2660 H 0.33484 0.12323 0.49827 0.0
H2661 H 0.33104 0.98638 0.5462 0.0
H2662 H 0.37268 1.00372 0.53323 0.0
H2663 H 0.32431 0.9749 0.52479 0.0
C2664 C 0.58305 0.32065 0.09416 0.0
C2665 C 0.56155 0.33373 0.10315 0.0
C2666 C 0.56831 0.28076 0.09108 0.0
C2667 C 0.53113 0.25292 0.0972 0.0
C2668 C 0.50835 0.26608 0.10547 0.0
C2669 C 0.52375 0.30626 0.10831 0.0
C2670 C 0.59356 0.26829 0.08207 0.0
C2671 C 0.46866 0.23758 0.11226 0.0
C2672 C 0.48756 0.14611 0.08399 0.0
C2673 C 0.49951 0.13095 0.09685 0.0
C2674 C 0.49691 0.18554 0.08397 0.0
C2675 C 0.51886 0.21043 0.09707 0.0
C2676 C 0.5305 0.195 0.11011 0.0
C2677 C 0.52077 0.15577 0.10983 0.0
C2678 C 0.48387 0.20071 0.06983 0.0
C2679 C 0.55383 0.22012 0.12437 0.0
H2680 H 0.61198 0.34165 0.08985 0.0
H2681 H 0.50692 0.31594 0.11531 0.0
H2682 H 0.60385 0.2538 0.09074 0.0
H2683 H 0.57654 0.24686 0.07239 0.0
H2684 H 0.61943 0.29334 0.07636 0.0
H2685 H 0.45245 0.25227 0.11632 0.0
H2686 H 0.45099 0.21527 0.10297 0.0
H2687 H 0.47204 0.22212 0.12291 0.0
H2688 H 0.47117 0.1273 0.0739 0.0
H2689 H 0.53033 0.14468 0.11985 0.0
H2690 H 0.50973 0.22245 0.06287 0.0
H2691 H 0.46846 0.21575 0.0744 0.0
H2692 H 0.46427 0.17709 0.06135 0.0
H2693 H 0.58218 0.24424 0.11994 0.0
H2694 H 0.55964 0.20343 0.13378 0.0
H2695 H 0.53804 0.23344 0.13026 0.0
C2696 C 0.7893 0.20914 0.10551 0.0
C2697 C 0.75479 0.21079 0.10734 0.0
C2698 C 0.82493 0.24232 0.10135 0.0
C2699 C 0.82631 0.27819 0.0984 0.0
C2700 C 0.79102 0.27928 0.0987 0.0
C2701 C 0.75579 0.24575 0.1033 0.0
C2702 C 0.86162 0.23956 0.1014 0.0
C2703 C 0.79085 0.31654 0.09514 0.0
C2704 C 0.9186 0.37055 0.11132 0.0
C2705 C 0.93892 0.38468 0.09651 0.0
C2706 C 0.88226 0.33618 0.112 0.0
C2707 C 0.86504 0.31518 0.09744 0.0
C2708 C 0.88549 0.32903 0.0824 0.0
C2709 C 0.92237 0.36342 0.08213 0.0
C2710 C 0.86232 0.32232 0.1284 0.0
C2711 C 0.868 0.30806 0.06655 0.0
H2712 H 0.78887 0.18209 0.10804 0.0
H2713 H 0.72954 0.24762 0.10457 0.0
H2714 H 0.87921 0.25319 0.09024 0.0
H2715 H 0.8798 0.25573 0.11208 0.0
H2716 H 0.85526 0.20894 0.10214 0.0
H2717 H 0.76085 0.31141 0.09332 0.0
H2718 H 0.80429 0.33698 0.10551 0.0
H2719 H 0.80846 0.33091 0.08405 0.0
H2720 H 0.9312 0.38642 0.12256 0.0
H2721 H 0.93774 0.3742 0.07062 0.0
H2722 H 0.85606 0.29216 0.1308 0.0
H2723 H 0.83404 0.32175 0.12832 0.0
H2724 H 0.8802 0.34123 0.13864 0.0
H2725 H 0.86005 0.27704 0.06752 0.0
H2726 H 0.88821 0.32145 0.05603 0.0
H2727 H 0.84077 0.30862 0.06403 0.0
C2728 C 0.68745 0.55884 0.11415 0.0
C2729 C 0.6774 0.57073 0.09966 0.0
C2730 C 0.7162 0.54808 0.11436 0.0
C2731 C 0.73669 0.55046 0.09978 0.0
C2732 C 0.72875 0.56521 0.08534 0.0
C2733 C 0.69898 0.57495 0.08541 0.0
C2734 C 0.72379 0.5333 0.13021 0.0
C2735 C 0.75076 0.56952 0.06969 0.0
C2736 C 0.82555 0.54014 0.10848 0.0
C2737 C 0.81152 0.50057 0.10499 0.0
C2738 C 0.8026 0.55756 0.10564 0.0
C2739 C 0.7641 0.53474 0.09965 0.0
C2740 C 0.75028 0.49522 0.0955 0.0
C2741 C 0.7743 0.4789 0.09798 0.0
C2742 C 0.81926 0.60018 0.10958 0.0
C2743 C 0.70998 0.4696 0.08854 0.0
H2744 H 0.67183 0.55662 0.12538 0.0
H2745 H 0.6918 0.5846 0.07419 0.0
H2746 H 0.72767 0.50779 0.12812 0.0
H2747 H 0.75099 0.5566 0.1358 0.0
H2748 H 0.69976 0.52487 0.13918 0.0
H2749 H 0.74662 0.58803 0.06062 0.0
H2750 H 0.78238 0.58239 0.07217 0.0
H2751 H 0.74022 0.54035 0.06421 0.0
H2752 H 0.85408 0.55744 0.11394 0.0
H2753 H 0.7635 0.44879 0.0946 0.0
H2754 H 0.80765 0.60312 0.12152 0.0
H2755 H 0.81072 0.6147 0.10016 0.0
H2756 H 0.85158 0.61567 0.1104 0.0
H2757 H 0.68847 0.47719 0.0934 0.0
H2758 H 0.6992 0.43831 0.09112 0.0
H2759 H 0.71122 0.47341 0.07506 0.0
C2760 C 0.30498 0.51558 0.91404 0.0
C2761 C 0.33203 0.54964 0.92224 0.0
C2762 C 0.26444 0.50003 0.91603 0.0
C2763 C 0.25031 0.51895 0.92641 0.0
C2764 C 0.27743 0.55209 0.93538 0.0
C2765 C 0.31772 0.56685 0.93324 0.0
C2766 C 0.23675 0.46452 0.90629 0.0
C2767 C 0.26398 0.57339 0.94655 0.0
C2768 C 0.15555 0.51416 0.91369 0.0
C2769 C 0.1281 0.48718 0.92475 0.0
C2770 C 0.19504 0.52475 0.91428 0.0
C2771 C 0.20797 0.50764 0.9261 0.0
C2772 C 0.18056 0.4804 0.93741 0.0
C2773 C 0.14098 0.4707 0.93668 0.0
C2774 C 0.22294 0.55435 0.90211 0.0
C2775 C 0.19295 0.46122 0.95014 0.0
H2776 H 0.3154 0.50197 0.90547 0.0
H2777 H 0.33813 0.59257 0.93999 0.0
H2778 H 0.21284 0.44311 0.91422 0.0
H2779 H 0.22326 0.47316 0.89646 0.0
H2780 H 0.25171 0.45012 0.90056 0.0
H2781 H 0.28817 0.59585 0.95404 0.0
H2782 H 0.25149 0.58793 0.93912 0.0
H2783 H 0.24067 0.55263 0.95488 0.0
H2784 H 0.14622 0.52722 0.90441 0.0
H2785 H 0.12011 0.44978 0.94525 0.0
H2786 H 0.23637 0.54109 0.89445 0.0
H2787 H 0.24688 0.57936 0.90867 0.0
H2788 H 0.20841 0.56559 0.89393 0.0
H2789 H 0.20568 0.44509 0.94407 0.0
H2790 H 0.16824 0.44064 0.958 0.0
H2791 H 0.21595 0.48369 0.95804 0.0
C2792 C 0.5455 0.8186 0.91213 0.0
C2793 C 0.58083 0.85392 0.9105 0.0
C2794 C 0.5449 0.78322 0.91533 0.0
C2795 C 0.58041 0.78269 0.91653 0.0
C2796 C 0.61604 0.81842 0.91568 0.0
C2797 C 0.61577 0.85339 0.91305 0.0
C2798 C 0.50613 0.74612 0.91663 0.0
C2799 C 0.6547 0.81954 0.91656 0.0
C2800 C 0.58496 0.69371 0.93239 0.0
C2801 C 0.58217 0.67378 0.91781 0.0
C2802 C 0.5835 0.72863 0.93226 0.0
C2803 C 0.5806 0.7448 0.91716 0.0
C2804 C 0.57905 0.72524 0.9024 0.0
C2805 C 0.57919 0.68982 0.90294 0.0
C2806 C 0.58398 0.74766 0.94831 0.0
C2807 C 0.57746 0.74183 0.88596 0.0
H2808 H 0.51822 0.81817 0.91022 0.0
H2809 H 0.64336 0.88041 0.91248 0.0
H2810 H 0.5003 0.72944 0.90507 0.0
H2811 H 0.50645 0.72752 0.92672 0.0
H2812 H 0.48184 0.75201 0.91875 0.0
H2813 H 0.67984 0.84977 0.9165 0.0
H2814 H 0.65628 0.80461 0.92777 0.0
H2815 H 0.65758 0.80372 0.90593 0.0
H2816 H 0.5869 0.68126 0.94393 0.0
H2817 H 0.57734 0.67473 0.89161 0.0
H2818 H 0.55704 0.74953 0.94949 0.0
H2819 H 0.60898 0.77786 0.94868 0.0
H2820 H 0.58599 0.73138 0.95899 0.0
H2821 H 0.55034 0.74338 0.88501 0.0
H2822 H 0.57832 0.72409 0.87561 0.0
H2823 H 0.60238 0.77195 0.8847 0.0
C2824 C 0.37639 0.91102 0.93487 0.0
C2825 C 0.39503 0.92974 0.92025 0.0
C2826 C 0.34275 0.87371 0.93471 0.0
C2827 C 0.32708 0.85482 0.91957 0.0
C2828 C 0.3456 0.87397 0.9048 0.0
C2829 C 0.37936 0.91089 0.90533 0.0
C2830 C 0.32429 0.85435 0.95075 0.0
C2831 C 0.32946 0.85566 0.88834 0.0
C2832 C 0.25878 0.74551 0.91354 0.0
C2833 C 0.22278 0.74369 0.91127 0.0
C2834 C 0.29264 0.78105 0.91742 0.0
C2835 C 0.29062 0.81571 0.91886 0.0
C2836 C 0.25389 0.81343 0.91768 0.0
C2837 C 0.22052 0.77752 0.91414 0.0
C2838 C 0.33101 0.78193 0.919 0.0
C2839 C 0.25013 0.84943 0.91907 0.0
H2840 H 0.38849 0.92526 0.94645 0.0
H2841 H 0.3933 0.92527 0.89397 0.0
H2842 H 0.2936 0.84771 0.95122 0.0
H2843 H 0.32389 0.82623 0.9518 0.0
H2844 H 0.34004 0.87281 0.96145 0.0
H2845 H 0.34705 0.87449 0.878 0.0
H2846 H 0.32858 0.82732 0.88738 0.0
H2847 H 0.29911 0.8498 0.88707 0.0
H2848 H 0.26101 0.71971 0.91139 0.0
H2849 H 0.1927 0.77631 0.91287 0.0
H2850 H 0.34716 0.79908 0.9299 0.0
H2851 H 0.34932 0.79639 0.90809 0.0
H2852 H 0.32702 0.75219 0.92001 0.0
H2853 H 0.26289 0.86464 0.93076 0.0
H2854 H 0.21933 0.84259 0.91847 0.0
H2855 H 0.26665 0.87001 0.90902 0.0
C2856 C 0.12423 0.60884 0.44083 0.0
C2857 C 0.16055 0.64311 0.44258 0.0
C2858 C 0.1215 0.5731 0.43675 0.0
C2859 C 0.15589 0.57144 0.43387 0.0
C2860 C 0.19243 0.60647 0.43415 0.0
C2861 C 0.19438 0.64179 0.43862 0.0
C2862 C 0.08191 0.53662 0.43674 0.0
C2863 C 0.22976 0.60625 0.43073 0.0
C2864 C 0.15636 0.47913 0.44638 0.0
C2865 C 0.15096 0.45972 0.43142 0.0
C2866 C 0.15753 0.51507 0.44727 0.0
C2867 C 0.15394 0.53274 0.4328 0.0
C2868 C 0.14802 0.5131 0.41763 0.0
C2869 C 0.14624 0.47664 0.41714 0.0
C2870 C 0.16261 0.53414 0.46379 0.0
C2871 C 0.14449 0.53099 0.40188 0.0
H2872 H 0.09774 0.60957 0.44337 0.0
H2873 H 0.22261 0.66787 0.43988 0.0
H2874 H 0.07804 0.51899 0.42563 0.0
H2875 H 0.07951 0.51838 0.44748 0.0
H2876 H 0.0578 0.54326 0.43735 0.0
H2877 H 0.25485 0.63614 0.42895 0.0
H2878 H 0.23639 0.59256 0.44115 0.0
H2879 H 0.2266 0.58872 0.41965 0.0
H2880 H 0.15949 0.46606 0.45752 0.0
H2881 H 0.14213 0.46186 0.40553 0.0
H2882 H 0.13823 0.53972 0.46614 0.0
H2883 H 0.18999 0.5627 0.46395 0.0
H2884 H 0.16364 0.51599 0.47394 0.0
H2885 H 0.12139 0.53891 0.40296 0.0
H2886 H 0.13768 0.51107 0.39128 0.0
H2887 H 0.17228 0.55827 0.39939 0.0
C2888 C 0.58406 0.7005 0.44618 0.0
C2889 C 0.60302 0.71599 0.43123 0.0
C2890 C 0.54812 0.66559 0.44689 0.0
C2891 C 0.52985 0.64578 0.43223 0.0
C2892 C 0.54902 0.66106 0.41705 0.0
C2893 C 0.58561 0.69572 0.41675 0.0
C2894 C 0.52972 0.64989 0.4634 0.0
C2895 C 0.53045 0.64134 0.40112 0.0
C2896 C 0.45399 0.53879 0.43838 0.0
C2897 C 0.41952 0.5402 0.44089 0.0
C2898 C 0.48968 0.57251 0.43479 0.0
C2899 C 0.49114 0.60877 0.4331 0.0
C2900 C 0.45596 0.60993 0.43421 0.0
C2901 C 0.4207 0.5758 0.43822 0.0
C2902 C 0.5263 0.56969 0.43394 0.0
C2903 C 0.4559 0.6477 0.43204 0.0
H2904 H 0.59752 0.71562 0.45747 0.0
H2905 H 0.60004 0.70754 0.40514 0.0
H2906 H 0.50117 0.64867 0.4642 0.0
H2907 H 0.5242 0.61973 0.46498 0.0
H2908 H 0.54831 0.66799 0.47367 0.0
H2909 H 0.54964 0.656 0.39042 0.0
H2910 H 0.52325 0.61047 0.40134 0.0
H2911 H 0.50267 0.64139 0.39944 0.0
H2912 H 0.45347 0.51136 0.43986 0.0
H2913 H 0.39453 0.57756 0.44007 0.0
H2914 H 0.545 0.58475 0.44466 0.0
H2915 H 0.54341 0.58443 0.42281 0.0
H2916 H 0.51989 0.53901 0.43392 0.0
H2917 H 0.46991 0.66674 0.44279 0.0
H2918 H 0.4259 0.64296 0.43083 0.0
H2919 H 0.47303 0.66346 0.42105 0.0
C2920 C 0.48478 0.86984 0.43831 0.0
C2921 C 0.52118 0.90401 0.43956 0.0
C2922 C 0.45075 0.87137 0.43459 0.0
C2923 C 0.45297 0.90791 0.43215 0.0
C2924 C 0.48998 0.94219 0.43227 0.0
C2925 C 0.52348 0.93979 0.43581 0.0
C2926 C 0.41204 0.83399 0.43427 0.0
C2927 C 0.49398 0.98181 0.42978 0.0
C2928 C 0.36367 0.91247 0.41681 0.0
C2929 C 0.34656 0.9142 0.43159 0.0
C2930 C 0.39841 0.91064 0.41669 0.0
C2931 C 0.41656 0.91079 0.4317 0.0
C2932 C 0.39988 0.91384 0.44659 0.0
C2933 C 0.36514 0.91523 0.44635 0.0
C2934 C 0.41497 0.90732 0.40053 0.0
C2935 C 0.4185 0.91517 0.46289 0.0
H2936 H 0.48247 0.84205 0.44117 0.0
H2937 H 0.55151 0.96636 0.43633 0.0
H2938 H 0.39486 0.83244 0.44527 0.0
H2939 H 0.39496 0.8332 0.42337 0.0
H2940 H 0.41557 0.80789 0.43412 0.0
H2941 H 0.52487 1.00508 0.42829 0.0
H2942 H 0.47735 0.98181 0.41886 0.0
H2943 H 0.4816 0.98904 0.44052 0.0
H2944 H 0.34919 0.91113 0.40539 0.0
H2945 H 0.35227 0.91692 0.45782 0.0
H2946 H 0.4125 0.87823 0.39964 0.0
H2947 H 0.44639 0.92939 0.39968 0.0
H2948 H 0.39956 0.91111 0.38995 0.0
H2949 H 0.41926 0.88784 0.46478 0.0
H2950 H 0.40262 0.91891 0.47331 0.0
H2951 H 0.44907 0.93958 0.46303 0.0
C2952 C 0.81238 0.8136 0.2682 0.0
C2953 C 0.79849 0.82361 0.25426 0.0
C2954 C 0.85135 0.82135 0.26901 0.0
C2955 C 0.8771 0.83953 0.2556 0.0
C2956 C 0.86271 0.8485 0.24137 0.0
C2957 C 0.82394 0.84053 0.2409 0.0
C2958 C 0.86524 0.81117 0.28442 0.0
C2959 C 0.88863 0.86758 0.22669 0.0
C2960 C 0.98752 0.90343 0.25925 0.0
C2961 C 1.00099 0.87978 0.25242 0.0
C2962 C 0.94743 0.88978 0.26139 0.0
C2963 C 0.91964 0.85145 0.25647 0.0
C2964 C 0.9331 0.82668 0.25041 0.0
C2965 C 0.97352 0.84104 0.24852 0.0
C2966 C 0.93478 0.91723 0.26809 0.0
C2967 C 0.90474 0.7857 0.24496 0.0
H2968 H 0.79312 0.80049 0.27859 0.0
H2969 H 0.81377 0.84826 0.22999 0.0
H2970 H 0.88079 0.79518 0.28142 0.0
H2971 H 0.88623 0.83832 0.29083 0.0
H2972 H 0.84082 0.79312 0.29292 0.0
H2973 H 0.87253 0.87083 0.21625 0.0
H2974 H 0.91273 0.8969 0.2301 0.0
H2975 H 0.90198 0.8502 0.22258 0.0
H2976 H 1.00846 0.93322 0.26254 0.0
H2977 H 0.9835 0.82254 0.24317 0.0
H2978 H 0.91274 0.90279 0.2779 0.0
H2979 H 0.92093 0.92531 0.2582 0.0
H2980 H 0.95964 0.94435 0.27307 0.0
H2981 H 0.8816 0.77043 0.2543 0.0
H2982 H 0.91939 0.76846 0.24267 0.0
H2983 H 0.89028 0.78669 0.23349 0.0
C2984 C 0.23435 0.01573 0.2655 0.0
C2985 C 0.23399 0.99661 0.251 0.0
C2986 C 0.22491 0.04573 0.26544 0.0
C2987 C 0.21333 0.05586 0.25065 0.0
C2988 C 0.21309 0.03662 0.236 0.0
C2989 C 0.22433 1.00815 0.23631 0.0
C2990 C 0.22619 0.06576 0.2813 0.0
C2991 C 0.19966 0.04507 0.22 0.0
C2992 C 0.14477 0.0976 0.2515 0.0
C2993 C 0.16833 0.13533 0.24513 0.0
C2994 C 0.15922 0.07196 0.25396 0.0
C2995 C 0.19885 0.08444 0.25045 0.0
C2996 C 0.2236 0.12341 0.24523 0.0
C2997 C 0.20801 0.1481 0.24239 0.0
C2998 C 0.13122 0.03155 0.26027 0.0
C2999 C 0.26652 0.1389 0.24234 0.0
H3000 H 0.24115 1.00671 0.27695 0.0
H3001 H 0.22425 0.99386 0.22498 0.0
H3002 H 0.24171 0.09784 0.27953 0.0
H3003 H 0.19602 0.05656 0.28529 0.0
H3004 H 0.24088 0.05864 0.29118 0.0
H3005 H 0.19612 0.02397 0.21027 0.0
H3006 H 0.17141 0.0442 0.22166 0.0
H3007 H 0.22119 0.07473 0.21572 0.0
H3008 H 0.11452 0.0876 0.25442 0.0
H3009 H 0.22688 0.17704 0.23755 0.0
H3010 H 0.12638 0.03338 0.27355 0.0
H3011 H 0.1417 0.01058 0.25859 0.0
H3012 H 0.10247 0.01978 0.25415 0.0
H3013 H 0.27913 0.12982 0.25239 0.0
H3014 H 0.28301 0.17119 0.2414 0.0
H3015 H 0.27069 0.12676 0.23078 0.0
C3016 C 0.91583 0.0844 0.24504 0.0
C3017 C 0.88105 0.08339 0.24067 0.0
C3018 C 0.94921 0.11964 0.24956 0.0
C3019 C 0.9481 0.15487 0.24945 0.0
C3020 C 0.91236 0.15354 0.24621 0.0
C3021 C 0.87929 0.11787 0.24213 0.0
C3022 C 0.9864 0.11953 0.25343 0.0
C3023 C 0.9097 0.19025 0.24579 0.0
C3024 C 0.03353 0.25062 0.2653 0.0
C3025 C 0.05499 0.26658 0.25088 0.0
C3026 C 0.99882 0.21413 0.26516 0.0
C3027 C 0.98508 0.19341 0.25022 0.0
C3028 C 1.00633 0.20997 0.23562 0.0
C3029 C 0.04094 0.24606 0.23616 0.0
C3030 C 0.97744 0.19738 0.28104 0.0
C3031 C 0.99254 0.18958 0.21933 0.0
H3032 H 0.91774 0.05814 0.24405 0.0
H3033 H 0.85231 0.11738 0.23933 0.0
H3034 H 1.00703 0.13252 0.24305 0.0
H3035 H 1.00061 0.13755 0.26441 0.0
H3036 H 0.98117 0.08961 0.25556 0.0
H3037 H 0.87907 0.18391 0.24498 0.0
H3038 H 0.92333 0.20825 0.25682 0.0
H3039 H 0.92592 0.20798 0.23498 0.0
H3040 H 0.04435 0.26615 0.27675 0.0
H3041 H 0.05707 0.25829 0.22491 0.0
H3042 H 0.97844 0.1706 0.28407 0.0
H3043 H 0.9463 0.18889 0.27983 0.0
H3044 H 0.99029 0.21825 0.29136 0.0
H3045 H 0.99171 0.16119 0.21968 0.0
H3046 H 1.01168 0.20703 0.20904 0.0
H3047 H 0.96248 0.18351 0.21682 0.0
C3048 C 0.838 0.81753 0.77837 0.0
C3049 C 0.8265 0.79493 0.76407 0.0
C3050 C 0.8481 0.8568 0.7782 0.0
C3051 C 0.84586 0.8741 0.76338 0.0
C3052 C 0.83163 0.85081 0.74909 0.0
C3053 C 0.82233 0.81146 0.74956 0.0
C3054 C 0.86198 0.8799 0.79391 0.0
C3055 C 0.8273 0.8676 0.73319 0.0
C3056 C 0.85397 0.97229 0.77156 0.0
C3057 C 0.89404 0.99807 0.76911 0.0
C3058 C 0.83709 0.93218 0.76835 0.0
C3059 C 0.86088 0.91704 0.76299 0.0
C3060 C 0.90086 0.94303 0.75971 0.0
C3061 C 0.91676 0.98313 0.76258 0.0
C3062 C 0.7941 0.90579 0.77151 0.0
C3063 C 0.92737 0.92825 0.75395 0.0
H3064 H 0.84014 0.80478 0.78979 0.0
H3065 H 0.81299 0.7941 0.73849 0.0
H3066 H 0.8891 0.90807 0.79181 0.0
H3067 H 0.83953 0.88655 0.7984 0.0
H3068 H 0.86755 0.86379 0.80368 0.0
H3069 H 0.8082 0.84439 0.72444 0.0
H3070 H 0.81509 0.88706 0.73533 0.0
H3071 H 0.85637 0.88526 0.72743 0.0
H3072 H 0.83587 0.98303 0.77666 0.0
H3073 H 0.94739 1.00269 0.76007 0.0
H3074 H 0.78996 0.89077 0.78342 0.0
H3075 H 0.78078 0.88309 0.76189 0.0
H3076 H 0.77829 0.92234 0.77197 0.0
H3077 H 0.92625 0.90623 0.76266 0.0
H3078 H 0.95816 0.95196 0.7527 0.0
H3079 H 0.91725 0.91368 0.74192 0.0
C3080 C 0.2411 0.04758 0.78141 0.0
C3081 C 0.26445 0.05733 0.7673 0.0
C3082 C 0.2021 0.01756 0.78136 0.0
C3083 C 0.18574 0.99575 0.7669 0.0
C3084 C 0.20975 1.00376 0.75285 0.0
C3085 C 0.24881 0.03464 0.75317 0.0
C3086 C 0.17811 0.00993 0.79675 0.0
C3087 C 0.19398 0.98065 0.73731 0.0
C3088 C 0.08845 0.90415 0.77556 0.0
C3089 C 0.06186 0.91706 0.77239 0.0
C3090 C 0.12869 0.92834 0.7726 0.0
C3091 C 0.14295 0.96664 0.76654 0.0
C3092 C 0.11604 0.97896 0.76242 0.0
C3093 C 0.07598 0.95401 0.76527 0.0
C3094 C 0.15613 0.91357 0.77678 0.0
C3095 C 0.12974 0.01929 0.75572 0.0
H3096 H 0.25304 0.06414 0.79255 0.0
H3097 H 0.26666 0.04163 0.74225 0.0
H3098 H 0.15079 0.01016 0.79403 0.0
H3099 H 0.16973 0.98064 0.80161 0.0
H3100 H 0.19413 0.03177 0.80646 0.0
H3101 H 0.21777 0.98444 0.72893 0.0
H3102 H 0.1751 0.94918 0.74003 0.0
H3103 H 0.17593 0.99064 0.73084 0.0
H3104 H 0.07814 0.87576 0.78106 0.0
H3105 H 0.05571 0.96395 0.76229 0.0
H3106 H 0.17162 0.92723 0.78833 0.0
H3107 H 0.17848 0.9216 0.76706 0.0
H3108 H 0.14043 0.88144 0.77842 0.0
H3109 H 0.15109 0.04155 0.7642 0.0
H3110 H 0.10536 0.02514 0.75381 0.0
H3111 H 0.14484 0.02288 0.74386 0.0
C3112 C 0.10424 0.14921 0.76142 0.0
C3113 C 0.14175 0.17218 0.76803 0.0
C3114 C 0.08013 0.165 0.75799 0.0
C3115 C 0.094 0.2051 0.76085 0.0
C3116 C 0.133 0.22915 0.76609 0.0
C3117 C 0.15621 0.21241 0.7698 0.0
C3118 C 0.0391 0.13828 0.75204 0.0
C3119 C 0.14958 0.27229 0.76865 0.0
C3120 C 0.02458 0.24138 0.74769 0.0
C3121 C 1.00449 0.23732 0.76238 0.0
C3122 C 0.05536 0.23302 0.74704 0.0
C3123 C 0.06574 0.21982 0.76133 0.0
C3124 C 0.04675 0.21775 0.77629 0.0
C3125 C 0.01698 0.227 0.77665 0.0
C3126 C 0.07555 0.23689 0.73092 0.0
C3127 C 0.05675 0.20424 0.79193 0.0
H3128 H 0.09315 0.11843 0.75938 0.0
H3129 H 0.18505 0.23072 0.77483 0.0
H3130 H 0.01776 0.14148 0.75971 0.0
H3131 H 0.03616 0.1464 0.73935 0.0
H3132 H 0.03131 0.10718 0.75214 0.0
H3133 H 0.18193 0.28807 0.76925 0.0
H3134 H 0.14045 0.28495 0.75865 0.0
H3135 H 0.13837 0.27722 0.78032 0.0
H3136 H 0.01538 0.2496 0.73663 0.0
H3137 H 1.00242 0.22473 0.78818 0.0
H3138 H 0.06256 0.2079 0.72499 0.0
H3139 H 0.1071 0.24768 0.7327 0.0
H3140 H 0.07209 0.25695 0.72248 0.0
H3141 H 0.05578 0.17608 0.78996 0.0
H3142 H 0.03661 0.20056 0.80213 0.0
H3143 H 0.08683 0.22577 0.79574 0.0
C3144 C 0.48099 0.142 0.60246 0.0
C3145 C 0.46641 0.15327 0.58916 0.0
C3146 C 0.51991 0.14961 0.60252 0.0
C3147 C 0.5448 0.16906 0.58901 0.0
C3148 C 0.52964 0.1791 0.57537 0.0
C3149 C 0.49095 0.17108 0.5756 0.0
C3150 C 0.53469 0.138 0.61725 0.0
C3151 C 0.55471 0.19961 0.56062 0.0
C3152 C 0.65482 0.23431 0.59113 0.0
C3153 C 0.66803 0.21223 0.58267 0.0
C3154 C 0.61497 0.21941 0.59442 0.0
C3155 C 0.58731 0.18137 0.58917 0.0
C3156 C 0.60068 0.15793 0.58165 0.0
C3157 C 0.6408 0.17361 0.57848 0.0
C3158 C 0.60228 0.24546 0.60256 0.0
C3159 C 0.57238 0.11716 0.57594 0.0
H3160 H 0.46241 0.12817 0.61297 0.0
H3161 H 0.4802 0.17962 0.56512 0.0
H3162 H 0.55143 0.12374 0.61342 0.0
H3163 H 0.55476 0.16445 0.6243 0.0
H3164 H 0.51056 0.11792 0.62547 0.0
H3165 H 0.53805 0.20394 0.55071 0.0
H3166 H 0.57908 0.22856 0.56429 0.0
H3167 H 0.5677 0.18263 0.55563 0.0
H3168 H 0.67564 0.26385 0.59477 0.0
H3169 H 0.65053 0.15623 0.57193 0.0
H3170 H 0.58121 0.22962 0.61254 0.0
H3171 H 0.5873 0.25424 0.59347 0.0
H3172 H 0.6273 0.27224 0.60769 0.0
H3173 H 0.54997 0.10099 0.58545 0.0
H3174 H 0.58731 0.10055 0.57289 0.0
H3175 H 0.55702 0.1186 0.56484 0.0
C3176 C 0.89206 0.34251 0.57074 0.0
C3177 C 0.9065 0.3332 0.5847 0.0
C3178 C 0.88259 0.37226 0.57095 0.0
C3179 C 0.88855 0.39437 0.58537 0.0
C3180 C 0.90568 0.387 0.59919 0.0
C3181 C 0.91421 0.35635 0.59874 0.0
C3182 C 0.86527 0.37932 0.55575 0.0
C3183 C 0.9139 0.41061 0.61464 0.0
C3184 C 0.87998 0.48531 0.57827 0.0
C3185 C 0.84089 0.47198 0.58255 0.0
C3186 C 0.89677 0.46136 0.5801 0.0
C3187 C 0.8739 0.4228 0.58613 0.0
C3188 C 0.83503 0.40983 0.59115 0.0
C3189 C 0.81926 0.43457 0.58947 0.0
C3190 C 0.93857 0.47689 0.57497 0.0
C3191 C 0.80945 0.3691 0.59769 0.0
H3192 H 0.88713 0.32576 0.55963 0.0
H3193 H 0.92577 0.34981 0.60954 0.0
H3194 H 0.88639 0.40794 0.55038 0.0
H3195 H 0.85794 0.35652 0.54631 0.0
H3196 H 0.83847 0.38028 0.55881 0.0
H3197 H 0.93389 0.40665 0.62293 0.0
H3198 H 0.92693 0.44205 0.61174 0.0
H3199 H 0.88616 0.40137 0.62127 0.0
H3200 H 0.89718 0.51398 0.57288 0.0
H3201 H 0.78947 0.42416 0.59332 0.0
H3202 H 0.93935 0.46396 0.56303 0.0
H3203 H 0.95415 0.46868 0.584 0.0
H3204 H 0.95448 0.50909 0.57361 0.0
H3205 H 0.80773 0.34743 0.58865 0.0
H3206 H 0.7794 0.36284 0.60047 0.0
H3207 H 0.82239 0.365 0.60901 0.0
C3208 C 0.58131 0.41677 0.57986 0.0
C3209 C 0.54543 0.41575 0.57894 0.0
C3210 C 0.61592 0.45152 0.5837 0.0
C3211 C 0.61482 0.48628 0.58654 0.0
C3212 C 0.57835 0.48478 0.5867 0.0
C3213 C 0.54421 0.4496 0.58303 0.0
C3214 C 0.65397 0.45152 0.5834 0.0
C3215 C 0.57562 0.52091 0.58975 0.0
C3216 C 0.70558 0.57765 0.60234 0.0
C3217 C 0.72232 0.59752 0.58769 0.0
C3218 C 0.67052 0.54149 0.60226 0.0
C3219 C 0.65183 0.52487 0.58718 0.0
C3220 C 0.66852 0.54526 0.57242 0.0
C3221 C 0.70346 0.5811 0.57286 0.0
C3222 C 0.65394 0.52072 0.61826 0.0
C3223 C 0.64953 0.52915 0.55606 0.0
H3224 H 0.5828 0.39101 0.57667 0.0
H3225 H 0.51654 0.44898 0.58278 0.0
H3226 H 0.66825 0.4629 0.5714 0.0
H3227 H 0.67403 0.47064 0.59308 0.0
H3228 H 0.64949 0.4217 0.58497 0.0
H3229 H 0.54495 0.51446 0.59055 0.0
H3230 H 0.59078 0.53515 0.60128 0.0
H3231 H 0.59038 0.54214 0.57968 0.0
H3232 H 0.72031 0.58996 0.61381 0.0
H3233 H 0.71609 0.59642 0.56149 0.0
H3234 H 0.65341 0.49246 0.61828 0.0
H3235 H 0.62341 0.51421 0.61971 0.0
H3236 H 0.67113 0.53811 0.62895 0.0
H3237 H 0.64775 0.50069 0.55385 0.0
H3238 H 0.66575 0.54902 0.54575 0.0
H3239 H 0.6193 0.52402 0.55607 0.0
loop_
_geom_bond_atom_site_label_1
_geom_bond_atom_site_label_2
_geom_bond_distance
_geom_bond_site_symmetry_2
_ccdc_geom_bond_type
C0 C2 1.422 . S
C0 C4 1.415 1_545 S
C0 N6 1.369 . S
C1 C2 1.421 1_565 S
C1 C3 1.417 . S
C1 C13 1.422 . S
C2 C0 1.422 . S
C2 C1 1.421 1_545 S
C2 N12 1.359 . S
C3 C1 1.417 . S
C3 C5 1.329 . S
C3 H22 0.930 . S
C4 C0 1.415 1_565 S
C4 C5 1.437 . S
C4 C8 1.413 . S
C5 C3 1.329 . S
C5 C4 1.437 . S
C5 H27 0.929 . S
N6 C0 1.369 . S
N6 C7 1.338 . S
N6 Gd11 2.622 . S
C7 N6 1.338 . S
C7 C9 1.370 1_545 S
C7 H19 0.929 . S
C8 C4 1.413 . S
C8 C9 1.358 . S
C8 H24 0.931 . S
C9 C7 1.370 1_565 S
C9 C8 1.358 . S
C9 H25 0.927 . S
Gd10 N30 2.622 . S
Gd10 N37 2.570 . S
Gd10 O44 2.353 . S
Gd10 O45 2.468 . S
Gd10 O46 2.427 . S
Gd10 O48 2.388 . S
Gd10 O49 2.386 1_565 S
Gd10 O53 2.307 . S
Gd10 C63 2.805 . S
Gd11 N6 2.622 . S
Gd11 N12 2.570 . S
Gd11 O43 2.386 1_545 S
Gd11 O47 2.307 . S
Gd11 O50 2.353 . S
Gd11 O51 2.468 . S
Gd11 O52 2.427 . S
Gd11 O54 2.388 . S
Gd11 C75 2.805 . S
N12 C2 1.359 . S
N12 Gd11 2.570 . S
N12 C14 1.343 . S
C13 C1 1.422 . S
C13 C15 1.321 1_565 S
C13 H21 0.931 . S
C14 N12 1.343 . S
C14 C15 1.390 . S
C14 H16 0.931 . S
C15 C13 1.321 1_545 S
C15 C14 1.390 . S
C15 H17 0.930 . S
H16 C14 0.931 . S
H17 C15 0.930 . S
H18 C41 0.931 . S
H19 C7 0.929 . S
H20 C42 0.930 . S
H21 C13 0.931 . S
H22 C3 0.930 . S
H23 C32 0.954 . S
H24 C8 0.931 . S
H25 C9 0.927 . S
H26 C64 0.930 . S
H27 C5 0.929 . S
H28 C33 0.931 . S
H29 C34 0.930 . S
N30 Gd10 2.622 . S
N30 C31 1.369 1_565 S
N30 C32 1.333 . S
C31 N30 1.369 1_545 S
C31 C35 1.415 . S
C31 C38 1.422 . S
C32 H23 0.954 . S
C32 N30 1.333 . S
C32 C34 1.359 1_565 S
C33 H28 0.931 . S
C33 C34 1.348 . S
C33 C35 1.413 . S
C34 H29 0.930 . S
C34 C32 1.359 1_545 S
C34 C33 1.348 . S
C35 C31 1.415 . S
C35 C33 1.413 . S
C35 C65 1.437 . S
H36 C65 0.929 . S
N37 Gd10 2.570 . S
N37 C38 1.359 1_565 S
N37 C41 1.343 . S
C38 C31 1.422 . S
C38 N37 1.359 1_545 S
C38 C40 1.421 . S
C39 C40 1.422 . S
C39 C42 1.321 . S
C39 H66 0.931 . S
C40 C38 1.421 . S
C40 C39 1.422 . S
C40 C64 1.417 . S
C41 H18 0.931 . S
C41 N37 1.343 . S
C41 C42 1.390 1_565 S
C42 H20 0.930 . S
C42 C39 1.321 . S
C42 C41 1.390 1_545 S
O43 Gd11 2.386 1_565 S
O43 C55 1.265 . S
O44 Gd10 2.353 . S
O44 C55 1.242 . S
O45 Gd10 2.468 . S
O45 C63 1.263 . S
O46 Gd10 2.427 . S
O46 C63 1.252 . S
O47 Gd11 2.307 . S
O47 C56 1.261 . S
O48 Gd10 2.388 . S
O48 C56 1.252 1_565 S
O49 Gd10 2.386 1_545 S
O49 C67 1.265 . S
O50 Gd11 2.353 . S
O50 C67 1.242 . S
O51 Gd11 2.468 . S
O51 C75 1.263 . S
O52 Gd11 2.427 . S
O52 C75 1.252 . S
O53 Gd10 2.307 . S
O53 C68 1.261 . S
O54 Gd11 2.388 . S
O54 C68 1.252 1_545 S
C55 O43 1.265 . S
C55 O44 1.242 . S
C56 O47 1.261 . S
C56 O48 1.252 1_545 S
C57 C60 1.394 . S
C57 C62 1.370 . S
C57 C63 1.500 . S
C58 C61 1.383 . S
C58 C62 1.395 . S
C59 C60 1.396 . S
C59 C61 1.365 . S
C59 H76 0.929 . S
C60 C57 1.394 . S
C60 C59 1.396 . S
C60 H77 0.930 . S
C61 C58 1.383 . S
C61 C59 1.365 . S
C61 H78 0.931 . S
C62 C57 1.370 . S
C62 C58 1.395 . S
C62 H79 0.930 . S
C63 Gd10 2.805 . S
C63 O45 1.263 . S
C63 O46 1.252 . S
C63 C57 1.500 . S
C64 H26 0.930 . S
C64 C40 1.417 . S
C64 C65 1.329 . S
C65 C35 1.437 . S
C65 H36 0.929 . S
C65 C64 1.329 . S
H66 C39 0.931 . S
C67 O49 1.265 . S
C67 O50 1.242 . S
C68 O53 1.261 . S
C68 O54 1.252 1_565 S
C69 C72 1.394 . S
C69 C74 1.370 . S
C69 C75 1.500 . S
C70 C73 1.383 . S
C70 C74 1.395 . S
C71 C72 1.396 . S
C71 C73 1.365 . S
C71 H80 0.929 . S
C72 C69 1.394 . S
C72 C71 1.396 . S
C72 H81 0.930 . S
C73 C70 1.383 . S
C73 C71 1.365 . S
C73 H82 0.931 . S
C74 C69 1.370 . S
C74 C70 1.395 . S
C74 H83 0.930 . S
C75 Gd11 2.805 . S
C75 O51 1.263 . S
C75 O52 1.252 . S
C75 C69 1.500 . S
H76 C59 0.929 . S
H77 C60 0.930 . S
H78 C61 0.931 . S
H79 C62 0.930 . S
H80 C71 0.929 . S
H81 C72 0.930 . S
H82 C73 0.931 . S
H83 C74 0.930 . S
C84 C86 1.422 . S
C84 C88 1.415 . S
C84 N90 1.369 . S
C85 C86 1.421 . S
C85 C87 1.417 . S
C85 C97 1.422 . S
C86 C84 1.422 . S
C86 C85 1.421 . S
C86 N96 1.359 . S
C87 C85 1.417 . S
C87 C89 1.329 . S
C87 H106 0.930 . S
C88 C84 1.415 . S
C88 C89 1.437 . S
C88 C92 1.413 . S
C89 C87 1.329 . S
C89 C88 1.437 . S
C89 H111 0.929 . S
N90 C84 1.369 . S
N90 C91 1.338 . S
N90 Gd95 2.622 . S
C91 N90 1.338 . S
C91 C93 1.378 . S
C91 H103 0.929 . S
C92 C88 1.413 . S
C92 C93 1.348 . S
C92 H108 0.931 . S
C93 C91 1.378 . S
C93 C92 1.348 . S
C93 H109 0.930 . S
Gd94 N114 2.622 . S
Gd94 N121 2.570 . S
Gd94 O128 2.353 . S
Gd94 O129 2.468 . S
Gd94 O130 2.427 . S
Gd94 O132 2.388 . S
Gd94 O133 2.386 1_455 S
Gd94 O137 2.307 . S
Gd94 C147 2.805 . S
Gd95 N90 2.622 . S
Gd95 N96 2.570 . S
Gd95 O127 2.386 . S
Gd95 O131 2.307 . S
Gd95 O134 2.353 1_455 S
Gd95 O135 2.468 1_455 S
Gd95 O136 2.427 1_455 S
Gd95 O138 2.388 . S
Gd95 C159 2.805 1_455 S
N96 C86 1.359 . S
N96 Gd95 2.570 . S
N96 C98 1.343 . S
C97 C85 1.422 . S
C97 C99 1.321 . S
C97 H105 0.931 . S
C98 N96 1.343 . S
C98 C99 1.390 . S
C98 H100 0.931 . S
C99 C97 1.321 . S
C99 C98 1.390 . S
C99 H101 0.930 . S
H100 C98 0.931 . S
H101 C99 0.930 . S
H102 C125 0.931 . S
H103 C91 0.929 . S
H104 C126 0.930 . S
H105 C97 0.931 . S
H106 C87 0.930 . S
H107 C116 0.929 . S
H108 C92 0.931 . S
H109 C93 0.930 . S
H110 C148 0.930 . S
H111 C89 0.929 . S
H112 C117 0.931 1_655 S
H113 C118 0.930 . S
N114 Gd94 2.622 . S
N114 C115 1.369 . S
N114 C116 1.338 . S
C115 N114 1.369 . S
C115 C119 1.415 . S
C115 C122 1.422 . S
C116 H107 0.929 . S
C116 N114 1.338 . S
C116 C118 1.378 . S
C117 H112 0.931 1_455 S
C117 C118 1.348 . S
C117 C119 1.413 . S
C118 H113 0.930 . S
C118 C116 1.378 . S
C118 C117 1.348 . S
C119 C115 1.415 . S
C119 C117 1.413 . S
C119 C149 1.437 1_455 S
H120 C149 0.929 . S
N121 Gd94 2.570 . S
N121 C122 1.359 . S
N121 C125 1.343 . S
C122 C115 1.422 . S
C122 N121 1.359 . S
C122 C124 1.421 . S
C123 C124 1.422 . S
C123 C126 1.321 . S
C123 H150 0.931 . S
C124 C122 1.421 . S
C124 C123 1.422 . S
C124 C148 1.417 1_455 S
C125 H102 0.931 . S
C125 N121 1.343 . S
C125 C126 1.390 . S
C126 H104 0.930 . S
C126 C123 1.321 . S
C126 C125 1.390 . S
O127 Gd95 2.386 . S
O127 C139 1.265 . S
O128 Gd94 2.353 . S
O128 C139 1.242 . S
O129 Gd94 2.468 . S
O129 C147 1.263 . S
O130 Gd94 2.427 . S
O130 C147 1.252 . S
O131 Gd95 2.307 . S
O131 C140 1.261 . S
O132 Gd94 2.388 . S
O132 C140 1.252 . S
O133 Gd94 2.386 1_655 S
O133 C151 1.265 . S
O134 Gd95 2.353 1_655 S
O134 C151 1.242 . S
O135 Gd95 2.468 1_655 S
O135 C159 1.263 . S
O136 Gd95 2.427 1_655 S
O136 C159 1.252 . S
O137 Gd94 2.307 . S
O137 C152 1.261 . S
O138 Gd95 2.388 . S
O138 C152 1.252 . S
C139 O127 1.265 . S
C139 O128 1.242 . S
C140 O131 1.261 . S
C140 O132 1.252 . S
C141 C144 1.394 . S
C141 C146 1.370 . S
C141 C147 1.500 . S
C142 C145 1.383 . S
C142 C146 1.395 . S
C143 C144 1.396 . S
C143 C145 1.365 . S
C143 H160 0.929 . S
C144 C141 1.394 . S
C144 C143 1.396 . S
C144 H161 0.930 . S
C145 C142 1.383 . S
C145 C143 1.365 . S
C145 H162 0.931 . S
C146 C141 1.370 . S
C146 C142 1.395 . S
C146 H163 0.930 . S
C147 Gd94 2.805 . S
C147 O129 1.263 . S
C147 O130 1.252 . S
C147 C141 1.500 . S
C148 H110 0.930 . S
C148 C124 1.417 1_655 S
C148 C149 1.329 . S
C149 C119 1.437 1_655 S
C149 H120 0.929 . S
C149 C148 1.329 . S
H150 C123 0.931 . S
C151 O133 1.265 . S
C151 O134 1.242 . S
C152 O137 1.261 . S
C152 O138 1.252 . S
C153 C156 1.394 . S
C153 C158 1.370 . S
C153 C159 1.500 . S
C154 C157 1.383 . S
C154 C158 1.395 . S
C155 C156 1.396 . S
C155 C157 1.365 . S
C155 H164 0.929 . S
C156 C153 1.394 . S
C156 C155 1.396 . S
C156 H165 0.930 . S
C157 C154 1.383 . S
C157 C155 1.365 . S
C157 H166 0.931 . S
C158 C153 1.370 . S
C158 C154 1.395 . S
C158 H167 0.930 . S
C159 Gd95 2.805 1_655 S
C159 O135 1.263 . S
C159 O136 1.252 . S
C159 C153 1.500 . S
H160 C143 0.929 . S
H161 C144 0.930 . S
H162 C145 0.931 . S
H163 C146 0.930 . S
H164 C155 0.929 . S
H165 C156 0.930 . S
H166 C157 0.931 . S
H167 C158 0.930 . S
C168 C170 1.422 . S
C168 C172 1.415 . S
C168 N174 1.369 . S
C169 C170 1.421 . S
C169 C171 1.417 . S
C169 C181 1.422 . S
C170 C168 1.422 . S
C170 C169 1.421 . S
C170 N180 1.359 . S
C171 C169 1.417 . S
C171 C173 1.329 . S
C171 H190 0.930 . S
C172 C168 1.415 . S
C172 C173 1.437 . S
C172 C176 1.413 . S
C173 C171 1.329 . S
C173 C172 1.437 . S
C173 H195 0.929 . S
N174 C168 1.369 . S
N174 C175 1.338 . S
N174 Gd179 2.622 . S
C175 N174 1.338 . S
C175 C177 1.378 . S
C175 H187 0.929 . S
C176 C172 1.413 . S
C176 C177 1.348 . S
C176 H192 0.931 . S
C177 C175 1.378 . S
C177 C176 1.348 . S
C177 H193 0.930 . S
Gd178 N198 2.622 . S
Gd178 N205 2.570 . S
Gd178 O212 2.353 . S
Gd178 O213 2.468 . S
Gd178 O214 2.427 . S
Gd178 O216 2.388 . S
Gd178 O217 2.386 . S
Gd178 O221 2.307 . S
Gd178 C231 2.805 . S
Gd179 N174 2.622 . S
Gd179 N180 2.570 . S
Gd179 O211 2.386 . S
Gd179 O215 2.307 . S
Gd179 O218 2.353 . S
Gd179 O219 2.468 . S
Gd179 O220 2.427 . S
Gd179 O222 2.388 . S
Gd179 C243 2.805 . S
N180 C170 1.359 . S
N180 Gd179 2.570 . S
N180 C182 1.343 . S
C181 C169 1.422 . S
C181 C183 1.321 . S
C181 H189 0.931 . S
C182 N180 1.343 . S
C182 C183 1.390 . S
C182 H184 0.931 . S
C183 C181 1.321 . S
C183 C182 1.390 . S
C183 H185 0.930 . S
H184 C182 0.931 . S
H185 C183 0.930 . S
H186 C209 0.931 . S
H187 C175 0.929 . S
H188 C210 0.930 . S
H189 C181 0.931 . S
H190 C171 0.930 . S
H191 C200 0.929 . S
H192 C176 0.931 . S
H193 C177 0.930 . S
H194 C232 0.930 . S
H195 C173 0.929 . S
H196 C201 0.931 . S
H197 C202 0.930 . S
N198 Gd178 2.622 . S
N198 C199 1.369 . S
N198 C200 1.338 . S
C199 N198 1.369 . S
C199 C203 1.415 . S
C199 C206 1.422 . S
C200 H191 0.929 . S
C200 N198 1.338 . S
C200 C202 1.378 . S
C201 H196 0.931 . S
C201 C202 1.348 . S
C201 C203 1.413 . S
C202 H197 0.930 . S
C202 C200 1.378 . S
C202 C201 1.348 . S
C203 C199 1.415 . S
C203 C201 1.413 . S
C203 C233 1.437 . S
H204 C233 0.929 . S
N205 Gd178 2.570 . S
N205 C206 1.359 . S
N205 C209 1.343 . S
C206 C199 1.422 . S
C206 N205 1.359 . S
C206 C208 1.421 . S
C207 C208 1.422 . S
C207 C210 1.321 . S
C207 H234 0.931 . S
C208 C206 1.421 . S
C208 C207 1.422 . S
C208 C232 1.417 . S
C209 H186 0.931 . S
C209 N205 1.343 . S
C209 C210 1.390 . S
C210 H188 0.930 . S
C210 C207 1.321 . S
C210 C209 1.390 . S
O211 Gd179 2.386 . S
O211 C223 1.265 . S
O212 Gd178 2.353 . S
O212 C223 1.242 . S
O213 Gd178 2.468 . S
O213 C231 1.263 . S
O214 Gd178 2.427 . S
O214 C231 1.252 . S
O215 Gd179 2.307 . S
O215 C224 1.261 . S
O216 Gd178 2.388 . S
O216 C224 1.252 . S
O217 Gd178 2.386 . S
O217 C235 1.265 . S
O218 Gd179 2.353 . S
O218 C235 1.242 . S
O219 Gd179 2.468 . S
O219 C243 1.263 . S
O220 Gd179 2.427 . S
O220 C243 1.252 . S
O221 Gd178 2.307 . S
O221 C236 1.261 . S
O222 Gd179 2.388 . S
O222 C236 1.252 . S
C223 O211 1.265 . S
C223 O212 1.242 . S
C224 O215 1.261 . S
C224 O216 1.252 . S
C225 C228 1.394 . S
C225 C230 1.370 . S
C225 C231 1.500 . S
C226 C229 1.383 . S
C226 C230 1.395 . S
C227 C228 1.396 . S
C227 C229 1.365 . S
C227 H244 0.929 . S
C228 C225 1.394 . S
C228 C227 1.396 . S
C228 H245 0.930 . S
C229 C226 1.383 . S
C229 C227 1.365 . S
C229 H246 0.931 . S
C230 C225 1.370 . S
C230 C226 1.395 . S
C230 H247 0.930 . S
C231 Gd178 2.805 . S
C231 O213 1.263 . S
C231 O214 1.252 . S
C231 C225 1.500 . S
C232 H194 0.930 . S
C232 C208 1.417 . S
C232 C233 1.329 . S
C233 C203 1.437 . S
C233 H204 0.929 . S
C233 C232 1.329 . S
H234 C207 0.931 . S
C235 O217 1.265 . S
C235 O218 1.242 . S
C236 O221 1.261 . S
C236 O222 1.252 . S
C237 C240 1.394 . S
C237 C242 1.370 . S
C237 C243 1.500 . S
C238 C241 1.383 . S
C238 C242 1.395 . S
C239 C240 1.396 . S
C239 C241 1.365 . S
C239 H248 0.929 . S
C240 C237 1.394 . S
C240 C239 1.396 . S
C240 H249 0.930 . S
C241 C238 1.383 . S
C241 C239 1.365 . S
C241 H250 0.931 . S
C242 C237 1.370 . S
C242 C238 1.395 . S
C242 H251 0.930 . S
C243 Gd179 2.805 . S
C243 O219 1.263 . S
C243 O220 1.252 . S
C243 C237 1.500 . S
H244 C227 0.929 . S
H245 C228 0.930 . S
H246 C229 0.931 . S
H247 C230 0.930 . S
H248 C239 0.929 . S
H249 C240 0.930 . S
H250 C241 0.931 . S
H251 C242 0.930 . S
C252 C254 1.422 . S
C252 C256 1.415 1_455 S
C252 N258 1.369 . S
C253 C254 1.421 1_655 S
C253 C255 1.417 . S
C253 C265 1.422 . S
C254 C252 1.422 . S
C254 C253 1.421 1_455 S
C254 N264 1.359 . S
C255 C253 1.417 . S
C255 C257 1.329 . S
C255 H274 0.930 . S
C256 C252 1.415 1_655 S
C256 C257 1.437 . S
C256 C260 1.413 . S
C257 C255 1.329 . S
C257 C256 1.437 . S
C257 H279 0.929 . S
N258 C252 1.369 . S
N258 C259 1.338 . S
N258 Gd263 2.622 . S
C259 N258 1.338 . S
C259 C261 1.370 1_455 S
C259 H271 0.929 . S
C260 C256 1.413 . S
C260 C261 1.358 . S
C260 H276 0.931 . S
C261 C259 1.370 1_655 S
C261 C260 1.358 . S
C261 H277 0.927 . S
Gd262 N282 2.622 . S
Gd262 N289 2.570 . S
Gd262 O296 2.353 . S
Gd262 O297 2.468 . S
Gd262 O298 2.427 . S
Gd262 O300 2.388 . S
Gd262 O301 2.386 1_655 S
Gd262 O305 2.307 . S
Gd262 C315 2.805 . S
Gd263 N258 2.622 . S
Gd263 N264 2.570 . S
Gd263 O295 2.386 1_455 S
Gd263 O299 2.307 . S
Gd263 O302 2.353 . S
Gd263 O303 2.468 . S
Gd263 O304 2.427 . S
Gd263 O306 2.388 . S
Gd263 C327 2.805 . S
N264 C254 1.359 . S
N264 Gd263 2.570 . S
N264 C266 1.343 . S
C265 C253 1.422 . S
C265 C267 1.321 1_655 S
C265 H273 0.931 . S
C266 N264 1.343 . S
C266 C267 1.390 . S
C266 H268 0.931 . S
C267 C265 1.321 1_455 S
C267 C266 1.390 . S
C267 H269 0.930 . S
H268 C266 0.931 . S
H269 C267 0.930 . S
H270 C293 0.931 . S
H271 C259 0.929 . S
H272 C294 0.930 . S
H273 C265 0.931 . S
H274 C255 0.930 . S
H275 C284 0.954 . S
H276 C260 0.931 . S
H277 C261 0.927 . S
H278 C316 0.930 . S
H279 C257 0.929 . S
H280 C285 0.931 . S
H281 C286 0.930 . S
N282 Gd262 2.622 . S
N282 C283 1.369 1_655 S
N282 C284 1.333 . S
C283 N282 1.369 1_455 S
C283 C287 1.415 . S
C283 C290 1.422 . S
C284 H275 0.954 . S
C284 N282 1.333 . S
C284 C286 1.359 1_655 S
C285 H280 0.931 . S
C285 C286 1.348 . S
C285 C287 1.413 . S
C286 H281 0.930 . S
C286 C284 1.359 1_455 S
C286 C285 1.348 . S
C287 C283 1.415 . S
C287 C285 1.413 . S
C287 C317 1.437 . S
H288 C317 0.929 . S
N289 Gd262 2.570 . S
N289 C290 1.359 1_655 S
N289 C293 1.343 . S
C290 C283 1.422 . S
C290 N289 1.359 1_455 S
C290 C292 1.421 . S
C291 C292 1.422 . S
C291 C294 1.321 . S
C291 H318 0.931 . S
C292 C290 1.421 . S
C292 C291 1.422 . S
C292 C316 1.417 . S
C293 H270 0.931 . S
C293 N289 1.343 . S
C293 C294 1.390 1_655 S
C294 H272 0.930 . S
C294 C291 1.321 . S
C294 C293 1.390 1_455 S
O295 Gd263 2.386 1_655 S
O295 C307 1.265 . S
O296 Gd262 2.353 . S
O296 C307 1.242 . S
O297 Gd262 2.468 . S
O297 C315 1.263 . S
O298 Gd262 2.427 . S
O298 C315 1.252 . S
O299 Gd263 2.307 . S
O299 C308 1.261 . S
O300 Gd262 2.388 . S
O300 C308 1.252 1_655 S
O301 Gd262 2.386 1_455 S
O301 C319 1.265 . S
O302 Gd263 2.353 . S
O302 C319 1.242 . S
O303 Gd263 2.468 . S
O303 C327 1.263 . S
O304 Gd263 2.427 . S
O304 C327 1.252 . S
O305 Gd262 2.307 . S
O305 C320 1.261 . S
O306 Gd263 2.388 . S
O306 C320 1.252 1_455 S
C307 O295 1.265 . S
C307 O296 1.242 . S
C308 O299 1.261 . S
C308 O300 1.252 1_455 S
C309 C312 1.394 . S
C309 C314 1.370 . S
C309 C315 1.500 . S
C310 C313 1.383 . S
C310 C314 1.395 . S
C311 C312 1.396 . S
C311 C313 1.365 . S
C311 H328 0.929 . S
C312 C309 1.394 . S
C312 C311 1.396 . S
C312 H329 0.930 . S
C313 C310 1.383 . S
C313 C311 1.365 . S
C313 H330 0.931 . S
C314 C309 1.370 . S
C314 C310 1.395 . S
C314 H331 0.930 . S
C315 Gd262 2.805 . S
C315 O297 1.263 . S
C315 O298 1.252 . S
C315 C309 1.500 . S
C316 H278 0.930 . S
C316 C292 1.417 . S
C316 C317 1.329 . S
C317 C287 1.437 . S
C317 H288 0.929 . S
C317 C316 1.329 . S
H318 C291 0.931 . S
C319 O301 1.265 . S
C319 O302 1.242 . S
C320 O305 1.261 . S
C320 O306 1.252 1_655 S
C321 C324 1.394 . S
C321 C326 1.370 . S
C321 C327 1.500 . S
C322 C325 1.383 . S
C322 C326 1.395 . S
C323 C324 1.396 . S
C323 C325 1.365 . S
C323 H332 0.929 . S
C324 C321 1.394 . S
C324 C323 1.396 . S
C324 H333 0.930 . S
C325 C322 1.383 . S
C325 C323 1.365 . S
C325 H334 0.931 . S
C326 C321 1.370 . S
C326 C322 1.395 . S
C326 H335 0.930 . S
C327 Gd263 2.805 . S
C327 O303 1.263 . S
C327 O304 1.252 . S
C327 C321 1.500 . S
H328 C311 0.929 . S
H329 C312 0.930 . S
H330 C313 0.931 . S
H331 C314 0.930 . S
H332 C323 0.929 . S
H333 C324 0.930 . S
H334 C325 0.931 . S
H335 C326 0.930 . S
C336 C338 1.422 . S
C336 C340 1.415 . S
C336 N342 1.369 . S
C337 C338 1.421 . S
C337 C339 1.417 . S
C337 C349 1.422 . S
C338 C336 1.422 . S
C338 C337 1.421 . S
C338 N348 1.359 . S
C339 C337 1.417 . S
C339 C341 1.329 . S
C339 H358 0.930 . S
C340 C336 1.415 . S
C340 C341 1.437 . S
C340 C344 1.413 . S
C341 C339 1.329 . S
C341 C340 1.437 . S
C341 H363 0.929 . S
N342 C336 1.369 . S
N342 C343 1.338 . S
N342 Gd347 2.622 . S
C343 N342 1.338 . S
C343 C345 1.378 . S
C343 H355 0.929 . S
C344 C340 1.413 . S
C344 C345 1.348 . S
C344 H360 0.931 . S
C345 C343 1.378 . S
C345 C344 1.348 . S
C345 H361 0.930 . S
Gd346 N366 2.622 . S
Gd346 N373 2.570 . S
Gd346 O380 2.353 . S
Gd346 O381 2.468 . S
Gd346 O382 2.427 . S
Gd346 O384 2.388 . S
Gd346 O385 2.386 . S
Gd346 O389 2.307 . S
Gd346 C399 2.805 . S
Gd347 N342 2.622 . S
Gd347 N348 2.570 . S
Gd347 O379 2.386 . S
Gd347 O383 2.307 . S
Gd347 O386 2.353 . S
Gd347 O387 2.468 . S
Gd347 O388 2.427 . S
Gd347 O390 2.388 . S
Gd347 C411 2.805 . S
N348 C338 1.359 . S
N348 Gd347 2.570 . S
N348 C350 1.343 . S
C349 C337 1.422 . S
C349 C351 1.321 . S
C349 H357 0.931 . S
C350 N348 1.343 . S
C350 C351 1.390 . S
C350 H352 0.931 . S
C351 C349 1.321 . S
C351 C350 1.390 . S
C351 H353 0.930 . S
H352 C350 0.931 . S
H353 C351 0.930 . S
H354 C377 0.931 . S
H355 C343 0.929 . S
H356 C378 0.930 . S
H357 C349 0.931 . S
H358 C339 0.930 . S
H359 C368 0.929 . S
H360 C344 0.931 . S
H361 C345 0.930 . S
H362 C400 0.930 . S
H363 C341 0.929 . S
H364 C369 0.931 . S
H365 C370 0.930 . S
N366 Gd346 2.622 . S
N366 C367 1.369 . S
N366 C368 1.338 . S
C367 N366 1.369 . S
C367 C371 1.415 . S
C367 C374 1.422 . S
C368 H359 0.929 . S
C368 N366 1.338 . S
C368 C370 1.378 . S
C369 H364 0.931 . S
C369 C370 1.348 . S
C369 C371 1.413 . S
C370 H365 0.930 . S
C370 C368 1.378 . S
C370 C369 1.348 . S
C371 C367 1.415 . S
C371 C369 1.413 . S
C371 C401 1.437 . S
H372 C401 0.929 . S
N373 Gd346 2.570 . S
N373 C374 1.359 . S
N373 C377 1.343 . S
C374 C367 1.422 . S
C374 N373 1.359 . S
C374 C376 1.421 . S
C375 C376 1.422 . S
C375 C378 1.321 . S
C375 H402 0.931 . S
C376 C374 1.421 . S
C376 C375 1.422 . S
C376 C400 1.417 . S
C377 H354 0.931 . S
C377 N373 1.343 . S
C377 C378 1.390 . S
C378 H356 0.930 . S
C378 C375 1.321 . S
C378 C377 1.390 . S
O379 Gd347 2.386 . S
O379 C391 1.265 . S
O380 Gd346 2.353 . S
O380 C391 1.242 . S
O381 Gd346 2.468 . S
O381 C399 1.263 . S
O382 Gd346 2.427 . S
O382 C399 1.252 . S
O383 Gd347 2.307 . S
O383 C392 1.261 . S
O384 Gd346 2.388 . S
O384 C392 1.252 . S
O385 Gd346 2.386 . S
O385 C403 1.265 . S
O386 Gd347 2.353 . S
O386 C403 1.242 . S
O387 Gd347 2.468 . S
O387 C411 1.263 . S
O388 Gd347 2.427 . S
O388 C411 1.252 . S
O389 Gd346 2.307 . S
O389 C404 1.261 . S
O390 Gd347 2.388 . S
O390 C404 1.252 . S
C391 O379 1.265 . S
C391 O380 1.242 . S
C392 O383 1.261 . S
C392 O384 1.252 . S
C393 C396 1.394 . S
C393 C398 1.370 . S
C393 C399 1.500 . S
C394 C397 1.383 . S
C394 C398 1.395 . S
C395 C396 1.396 . S
C395 C397 1.365 . S
C395 H412 0.929 . S
C396 C393 1.394 . S
C396 C395 1.396 . S
C396 H413 0.930 . S
C397 C394 1.383 . S
C397 C395 1.365 . S
C397 H414 0.931 . S
C398 C393 1.370 . S
C398 C394 1.395 . S
C398 H415 0.930 . S
C399 Gd346 2.805 . S
C399 O381 1.263 . S
C399 O382 1.252 . S
C399 C393 1.500 . S
C400 H362 0.930 . S
C400 C376 1.417 . S
C400 C401 1.329 . S
C401 C371 1.437 . S
C401 H372 0.929 . S
C401 C400 1.329 . S
H402 C375 0.931 . S
C403 O385 1.265 . S
C403 O386 1.242 . S
C404 O389 1.261 . S
C404 O390 1.252 . S
C405 C408 1.394 . S
C405 C410 1.370 . S
C405 C411 1.500 . S
C406 C409 1.383 . S
C406 C410 1.395 . S
C407 C408 1.396 . S
C407 C409 1.365 . S
C407 H416 0.929 . S
C408 C405 1.394 . S
C408 C407 1.396 . S
C408 H417 0.930 . S
C409 C406 1.383 . S
C409 C407 1.365 . S
C409 H418 0.931 . S
C410 C405 1.370 . S
C410 C406 1.395 . S
C410 H419 0.930 . S
C411 Gd347 2.805 . S
C411 O387 1.263 . S
C411 O388 1.252 . S
C411 C405 1.500 . S
H412 C395 0.929 . S
H413 C396 0.930 . S
H414 C397 0.931 . S
H415 C398 0.930 . S
H416 C407 0.929 . S
H417 C408 0.930 . S
H418 C409 0.931 . S
H419 C410 0.930 . S
C420 C422 1.422 . S
C420 C424 1.415 . S
C420 N426 1.369 . S
C421 C422 1.421 . S
C421 C423 1.417 . S
C421 C433 1.422 . S
C422 C420 1.422 . S
C422 C421 1.421 . S
C422 N432 1.359 . S
C423 C421 1.417 . S
C423 C425 1.329 . S
C423 H442 0.930 . S
C424 C420 1.415 . S
C424 C425 1.437 . S
C424 C428 1.413 . S
C425 C423 1.329 . S
C425 C424 1.437 . S
C425 H447 0.929 . S
N426 C420 1.369 . S
N426 C427 1.338 . S
N426 Gd431 2.622 . S
C427 N426 1.338 . S
C427 C429 1.378 . S
C427 H439 0.929 . S
C428 C424 1.413 . S
C428 C429 1.348 . S
C428 H444 0.931 . S
C429 C427 1.378 . S
C429 C428 1.348 . S
C429 H445 0.930 . S
Gd430 N450 2.622 . S
Gd430 N457 2.570 . S
Gd430 O464 2.353 . S
Gd430 O465 2.468 . S
Gd430 O466 2.427 . S
Gd430 O468 2.388 . S
Gd430 O469 2.386 1_545 S
Gd430 O473 2.307 . S
Gd430 C483 2.805 . S
Gd431 N426 2.622 . S
Gd431 N432 2.570 . S
Gd431 O463 2.386 . S
Gd431 O467 2.307 . S
Gd431 O470 2.353 1_545 S
Gd431 O471 2.468 1_545 S
Gd431 O472 2.427 1_545 S
Gd431 O474 2.388 . S
Gd431 C495 2.805 1_545 S
N432 C422 1.359 . S
N432 Gd431 2.570 . S
N432 C434 1.343 . S
C433 C421 1.422 . S
C433 C435 1.321 . S
C433 H441 0.931 . S
C434 N432 1.343 . S
C434 C435 1.390 . S
C434 H436 0.931 . S
C435 C433 1.321 . S
C435 C434 1.390 . S
C435 H437 0.930 . S
H436 C434 0.931 . S
H437 C435 0.930 . S
H438 C461 0.931 . S
H439 C427 0.929 . S
H440 C462 0.930 . S
H441 C433 0.931 . S
H442 C423 0.930 . S
H443 C452 0.929 . S
H444 C428 0.931 . S
H445 C429 0.930 . S
H446 C484 0.930 . S
H447 C425 0.929 . S
H448 C453 0.931 1_565 S
H449 C454 0.930 . S
N450 Gd430 2.622 . S
N450 C451 1.369 . S
N450 C452 1.338 . S
C451 N450 1.369 . S
C451 C455 1.415 . S
C451 C458 1.422 . S
C452 H443 0.929 . S
C452 N450 1.338 . S
C452 C454 1.378 . S
C453 H448 0.931 1_545 S
C453 C454 1.348 . S
C453 C455 1.413 . S
C454 H449 0.930 . S
C454 C452 1.378 . S
C454 C453 1.348 . S
C455 C451 1.415 . S
C455 C453 1.413 . S
C455 C485 1.437 1_545 S
H456 C485 0.929 . S
N457 Gd430 2.570 . S
N457 C458 1.359 . S
N457 C461 1.343 . S
C458 C451 1.422 . S
C458 N457 1.359 . S
C458 C460 1.421 . S
C459 C460 1.422 . S
C459 C462 1.321 . S
C459 H486 0.931 . S
C460 C458 1.421 . S
C460 C459 1.422 . S
C460 C484 1.417 1_545 S
C461 H438 0.931 . S
C461 N457 1.343 . S
C461 C462 1.390 . S
C462 H440 0.930 . S
C462 C459 1.321 . S
C462 C461 1.390 . S
O463 Gd431 2.386 . S
O463 C475 1.265 . S
O464 Gd430 2.353 . S
O464 C475 1.242 . S
O465 Gd430 2.468 . S
O465 C483 1.263 . S
O466 Gd430 2.427 . S
O466 C483 1.252 . S
O467 Gd431 2.307 . S
O467 C476 1.261 . S
O468 Gd430 2.388 . S
O468 C476 1.252 . S
O469 Gd430 2.386 1_565 S
O469 C487 1.265 . S
O470 Gd431 2.353 1_565 S
O470 C487 1.242 . S
O471 Gd431 2.468 1_565 S
O471 C495 1.263 . S
O472 Gd431 2.427 1_565 S
O472 C495 1.252 . S
O473 Gd430 2.307 . S
O473 C488 1.261 . S
O474 Gd431 2.388 . S
O474 C488 1.252 . S
C475 O463 1.265 . S
C475 O464 1.242 . S
C476 O467 1.261 . S
C476 O468 1.252 . S
C477 C480 1.394 . S
C477 C482 1.370 . S
C477 C483 1.500 . S
C478 C481 1.383 . S
C478 C482 1.395 . S
C479 C480 1.396 . S
C479 C481 1.365 . S
C479 H496 0.929 . S
C480 C477 1.394 . S
C480 C479 1.396 . S
C480 H497 0.930 . S
C481 C478 1.383 . S
C481 C479 1.365 . S
C481 H498 0.931 . S
C482 C477 1.370 . S
C482 C478 1.395 . S
C482 H499 0.930 . S
C483 Gd430 2.805 . S
C483 O465 1.263 . S
C483 O466 1.252 . S
C483 C477 1.500 . S
C484 H446 0.930 . S
C484 C460 1.417 1_565 S
C484 C485 1.329 . S
C485 C455 1.437 1_565 S
C485 H456 0.929 . S
C485 C484 1.329 . S
H486 C459 0.931 . S
C487 O469 1.265 . S
C487 O470 1.242 . S
C488 O473 1.261 . S
C488 O474 1.252 . S
C489 C492 1.394 . S
C489 C494 1.370 . S
C489 C495 1.500 . S
C490 C493 1.383 . S
C490 C494 1.395 . S
C491 C492 1.396 . S
C491 C493 1.365 . S
C491 H500 0.929 . S
C492 C489 1.394 . S
C492 C491 1.396 . S
C492 H501 0.930 . S
C493 C490 1.383 . S
C493 C491 1.365 . S
C493 H502 0.931 . S
C494 C489 1.370 . S
C494 C490 1.395 . S
C494 H503 0.930 . S
C495 Gd431 2.805 1_565 S
C495 O471 1.263 . S
C495 O472 1.252 . S
C495 C489 1.500 . S
H496 C479 0.929 . S
H497 C480 0.930 . S
H498 C481 0.931 . S
H499 C482 0.930 . S
H500 C491 0.929 . S
H501 C492 0.930 . S
H502 C493 0.931 . S
H503 C494 0.930 . S
C504 C506 1.422 . S
C504 C508 1.415 . S
C504 N510 1.369 . S
C505 C506 1.421 . S
C505 C507 1.417 . S
C505 C517 1.422 . S
C506 C504 1.422 . S
C506 C505 1.421 . S
C506 N516 1.359 . S
C507 C505 1.417 . S
C507 C509 1.329 . S
C507 H526 0.930 . S
C508 C504 1.415 . S
C508 C509 1.437 . S
C508 C512 1.413 . S
C509 C507 1.329 . S
C509 C508 1.437 . S
C509 H531 0.929 . S
N510 C504 1.369 . S
N510 C511 1.338 . S
N510 Gd515 2.622 . S
C511 N510 1.338 . S
C511 C513 1.378 . S
C511 H523 0.929 . S
C512 C508 1.413 . S
C512 C513 1.348 . S
C512 H528 0.931 . S
C513 C511 1.378 . S
C513 C512 1.348 . S
C513 H529 0.930 . S
Gd514 N534 2.622 . S
Gd514 N541 2.570 . S
Gd514 O548 2.353 . S
Gd514 O549 2.468 . S
Gd514 O550 2.427 . S
Gd514 O552 2.388 . S
Gd514 O553 2.386 . S
Gd514 O557 2.307 . S
Gd514 C567 2.805 . S
Gd515 N510 2.622 . S
Gd515 N516 2.570 . S
Gd515 O547 2.386 . S
Gd515 O551 2.307 . S
Gd515 O554 2.353 . S
Gd515 O555 2.468 . S
Gd515 O556 2.427 . S
Gd515 O558 2.388 . S
Gd515 C579 2.805 . S
N516 C506 1.359 . S
N516 Gd515 2.570 . S
N516 C518 1.343 . S
C517 C505 1.422 . S
C517 C519 1.321 . S
C517 H525 0.931 . S
C518 N516 1.343 . S
C518 C519 1.390 . S
C518 H520 0.931 . S
C519 C517 1.321 . S
C519 C518 1.390 . S
C519 H521 0.930 . S
H520 C518 0.931 . S
H521 C519 0.930 . S
H522 C545 0.931 . S
H523 C511 0.929 . S
H524 C546 0.930 . S
H525 C517 0.931 . S
H526 C507 0.930 . S
H527 C536 0.929 . S
H528 C512 0.931 . S
H529 C513 0.930 . S
H530 C568 0.930 1_655 S
H531 C509 0.929 . S
H532 C537 0.931 . S
H533 C538 0.930 . S
N534 Gd514 2.622 . S
N534 C535 1.369 . S
N534 C536 1.338 . S
C535 N534 1.369 . S
C535 C539 1.415 . S
C535 C542 1.422 . S
C536 H527 0.929 . S
C536 N534 1.338 . S
C536 C538 1.378 . S
C537 H532 0.931 . S
C537 C538 1.348 . S
C537 C539 1.413 . S
C538 H533 0.930 . S
C538 C536 1.378 . S
C538 C537 1.348 . S
C539 C535 1.415 . S
C539 C537 1.413 . S
C539 C569 1.437 . S
H540 C569 0.929 . S
N541 Gd514 2.570 . S
N541 C542 1.359 . S
N541 C545 1.343 . S
C542 C535 1.422 . S
C542 N541 1.359 . S
C542 C544 1.421 . S
C543 C544 1.422 . S
C543 C546 1.321 . S
C543 H570 0.931 1_455 S
C544 C542 1.421 . S
C544 C543 1.422 . S
C544 C568 1.417 . S
C545 H522 0.931 . S
C545 N541 1.343 . S
C545 C546 1.390 . S
C546 H524 0.930 . S
C546 C543 1.321 . S
C546 C545 1.390 . S
O547 Gd515 2.386 . S
O547 C559 1.265 . S
O548 Gd514 2.353 . S
O548 C559 1.242 . S
O549 Gd514 2.468 . S
O549 C567 1.263 . S
O550 Gd514 2.427 . S
O550 C567 1.252 . S
O551 Gd515 2.307 . S
O551 C560 1.261 . S
O552 Gd514 2.388 . S
O552 C560 1.252 . S
O553 Gd514 2.386 . S
O553 C571 1.265 . S
O554 Gd515 2.353 . S
O554 C571 1.242 . S
O555 Gd515 2.468 . S
O555 C579 1.263 . S
O556 Gd515 2.427 . S
O556 C579 1.252 . S
O557 Gd514 2.307 . S
O557 C572 1.261 . S
O558 Gd515 2.388 . S
O558 C572 1.252 . S
C559 O547 1.265 . S
C559 O548 1.242 . S
C560 O551 1.261 . S
C560 O552 1.252 . S
C561 C564 1.394 . S
C561 C566 1.370 1_455 S
C561 C567 1.500 . S
C562 C565 1.383 . S
C562 C566 1.395 . S
C563 C564 1.396 1_655 S
C563 C565 1.365 . S
C563 H580 0.929 . S
C564 C561 1.394 . S
C564 C563 1.396 1_455 S
C564 H581 0.930 . S
C565 C562 1.383 . S
C565 C563 1.365 . S
C565 H582 0.931 . S
C566 C561 1.370 1_655 S
C566 C562 1.395 . S
C566 H583 0.930 1_655 S
C567 Gd514 2.805 . S
C567 O549 1.263 . S
C567 O550 1.252 . S
C567 C561 1.500 . S
C568 H530 0.930 1_455 S
C568 C544 1.417 . S
C568 C569 1.329 . S
C569 C539 1.437 . S
C569 H540 0.929 . S
C569 C568 1.329 . S
H570 C543 0.931 1_655 S
C571 O553 1.265 . S
C571 O554 1.242 . S
C572 O557 1.261 . S
C572 O558 1.252 . S
C573 C576 1.394 . S
C573 C578 1.370 . S
C573 C579 1.500 . S
C574 C577 1.383 . S
C574 C578 1.395 . S
C575 C576 1.396 . S
C575 C577 1.365 . S
C575 H584 0.929 . S
C576 C573 1.394 . S
C576 C575 1.396 . S
C576 H585 0.930 . S
C577 C574 1.383 . S
C577 C575 1.365 . S
C577 H586 0.931 . S
C578 C573 1.370 . S
C578 C574 1.395 . S
C578 H587 0.930 . S
C579 Gd515 2.805 . S
C579 O555 1.263 . S
C579 O556 1.252 . S
C579 C573 1.500 . S
H580 C563 0.929 . S
H581 C564 0.930 . S
H582 C565 0.931 . S
H583 C566 0.930 1_455 S
H584 C575 0.929 . S
H585 C576 0.930 . S
H586 C577 0.931 . S
H587 C578 0.930 . S
C588 C590 1.422 . S
C588 C592 1.415 . S
C588 N594 1.369 . S
C589 C590 1.421 1_545 S
C589 C591 1.417 . S
C589 C601 1.422 . S
C590 C588 1.422 . S
C590 C589 1.421 1_565 S
C590 N600 1.359 . S
C591 C589 1.417 . S
C591 C593 1.329 . S
C591 H610 0.930 . S
C592 C588 1.415 . S
C592 C593 1.437 1_565 S
C592 C596 1.413 . S
C593 C591 1.329 . S
C593 C592 1.437 1_545 S
C593 H615 0.929 . S
N594 C588 1.369 . S
N594 C595 1.338 . S
N594 Gd599 2.622 . S
C595 N594 1.338 . S
C595 C597 1.378 . S
C595 H607 0.929 . S
C596 C592 1.413 . S
C596 C597 1.348 . S
C596 H612 0.931 . S
C597 C595 1.378 . S
C597 C596 1.348 . S
C597 H613 0.930 . S
Gd598 N618 2.622 . S
Gd598 N625 2.570 . S
Gd598 O632 2.353 . S
Gd598 O633 2.468 . S
Gd598 O634 2.427 . S
Gd598 O636 2.388 . S
Gd598 O637 2.386 . S
Gd598 O641 2.307 . S
Gd598 C651 2.805 . S
Gd599 N594 2.622 . S
Gd599 N600 2.570 . S
Gd599 O631 2.386 . S
Gd599 O635 2.307 . S
Gd599 O638 2.353 . S
Gd599 O639 2.468 . S
Gd599 O640 2.427 . S
Gd599 O642 2.388 . S
Gd599 C663 2.805 . S
N600 C590 1.359 . S
N600 Gd599 2.570 . S
N600 C602 1.343 . S
C601 C589 1.422 . S
C601 C603 1.321 1_545 S
C601 H609 0.931 . S
C602 N600 1.343 . S
C602 C603 1.390 . S
C602 H604 0.931 . S
C603 C601 1.321 1_565 S
C603 C602 1.390 . S
C603 H605 0.936 . S
H604 C602 0.931 . S
H605 C603 0.936 . S
H606 C629 0.931 . S
H607 C595 0.929 . S
H608 C630 0.930 . S
H609 C601 0.931 . S
H610 C591 0.930 . S
H611 C620 0.929 . S
H612 C596 0.931 . S
H613 C597 0.930 . S
H614 C652 0.930 . S
H615 C593 0.929 . S
H616 C621 0.931 . S
H617 C622 0.930 . S
N618 Gd598 2.622 . S
N618 C619 1.369 . S
N618 C620 1.338 . S
C619 N618 1.369 . S
C619 C623 1.415 . S
C619 C626 1.422 . S
C620 H611 0.929 . S
C620 N618 1.338 . S
C620 C622 1.378 . S
C621 H616 0.931 . S
C621 C622 1.348 . S
C621 C623 1.413 . S
C622 H617 0.930 . S
C622 C620 1.378 . S
C622 C621 1.348 . S
C623 C619 1.415 . S
C623 C621 1.413 . S
C623 C653 1.437 . S
H624 C653 0.929 . S
N625 Gd598 2.570 . S
N625 C626 1.359 . S
N625 C629 1.343 . S
C626 C619 1.422 . S
C626 N625 1.359 . S
C626 C628 1.421 . S
C627 C628 1.422 . S
C627 C630 1.321 . S
C627 H654 0.931 . S
C628 C626 1.421 . S
C628 C627 1.422 . S
C628 C652 1.417 . S
C629 H606 0.931 . S
C629 N625 1.343 . S
C629 C630 1.390 . S
C630 H608 0.930 . S
C630 C627 1.321 . S
C630 C629 1.390 . S
O631 Gd599 2.386 . S
O631 C643 1.265 . S
O632 Gd598 2.353 . S
O632 C643 1.242 . S
O633 Gd598 2.468 . S
O633 C651 1.263 . S
O634 Gd598 2.427 . S
O634 C651 1.252 . S
O635 Gd599 2.307 . S
O635 C644 1.261 . S
O636 Gd598 2.388 . S
O636 C644 1.252 . S
O637 Gd598 2.386 . S
O637 C655 1.265 . S
O638 Gd599 2.353 . S
O638 C655 1.242 . S
O639 Gd599 2.468 . S
O639 C663 1.263 . S
O640 Gd599 2.427 . S
O640 C663 1.252 . S
O641 Gd598 2.307 . S
O641 C656 1.261 . S
O642 Gd599 2.388 . S
O642 C656 1.252 . S
C643 O631 1.265 . S
C643 O632 1.242 . S
C644 O635 1.261 . S
C644 O636 1.252 . S
C645 C648 1.394 . S
C645 C650 1.370 . S
C645 C651 1.500 . S
C646 C649 1.383 . S
C646 C650 1.395 . S
C647 C648 1.396 . S
C647 C649 1.365 . S
C647 H664 0.929 . S
C648 C645 1.394 . S
C648 C647 1.396 . S
C648 H665 0.930 . S
C649 C646 1.383 . S
C649 C647 1.365 . S
C649 H666 0.931 . S
C650 C645 1.370 . S
C650 C646 1.395 . S
C650 H667 0.930 . S
C651 Gd598 2.805 . S
C651 O633 1.263 . S
C651 O634 1.252 . S
C651 C645 1.500 . S
C652 H614 0.930 . S
C652 C628 1.417 . S
C652 C653 1.329 . S
C653 C623 1.437 . S
C653 H624 0.929 . S
C653 C652 1.329 . S
H654 C627 0.931 . S
C655 O637 1.265 . S
C655 O638 1.242 . S
C656 O641 1.261 . S
C656 O642 1.252 . S
C657 C660 1.394 . S
C657 C662 1.370 . S
C657 C663 1.500 . S
C658 C661 1.383 . S
C658 C662 1.395 . S
C659 C660 1.396 . S
C659 C661 1.365 . S
C659 H668 0.929 . S
C660 C657 1.394 . S
C660 C659 1.396 . S
C660 H669 0.930 . S
C661 C658 1.383 . S
C661 C659 1.365 . S
C661 H670 0.931 . S
C662 C657 1.370 . S
C662 C658 1.395 . S
C662 H671 0.930 . S
C663 Gd599 2.805 . S
C663 O639 1.263 . S
C663 O640 1.252 . S
C663 C657 1.500 . S
H664 C647 0.929 . S
H665 C648 0.930 . S
H666 C649 0.931 . S
H667 C650 0.930 . S
H668 C659 0.929 . S
H669 C660 0.930 . S
H670 C661 0.931 . S
H671 C662 0.930 . S
C672 C674 1.422 . S
C672 C676 1.415 . S
C672 N678 1.369 . S
C673 C674 1.421 . S
C673 C675 1.417 . S
C673 C685 1.422 . S
C674 C672 1.422 . S
C674 C673 1.421 . S
C674 N684 1.359 . S
C675 C673 1.417 . S
C675 C677 1.329 . S
C675 H694 0.930 1_455 S
C676 C672 1.415 . S
C676 C677 1.437 . S
C676 C680 1.413 . S
C677 C675 1.329 . S
C677 C676 1.437 . S
C677 H699 0.929 1_455 S
N678 C672 1.369 . S
N678 C679 1.338 . S
N678 Gd683 2.622 . S
C679 N678 1.338 . S
C679 C681 1.378 . S
C679 H691 0.929 . S
C680 C676 1.413 . S
C680 C681 1.348 . S
C680 H696 0.931 . S
C681 C679 1.378 . S
C681 C680 1.348 . S
C681 H697 0.930 . S
Gd682 N702 2.622 . S
Gd682 N709 2.570 . S
Gd682 O716 2.353 . S
Gd682 O717 2.468 . S
Gd682 O718 2.427 . S
Gd682 O720 2.388 . S
Gd682 O721 2.386 . S
Gd682 O725 2.307 . S
Gd682 C735 2.805 . S
Gd683 N678 2.622 . S
Gd683 N684 2.570 . S
Gd683 O715 2.386 . S
Gd683 O719 2.307 . S
Gd683 O722 2.353 . S
Gd683 O723 2.468 . S
Gd683 O724 2.427 . S
Gd683 O726 2.388 . S
Gd683 C747 2.805 . S
N684 C674 1.359 . S
N684 Gd683 2.570 . S
N684 C686 1.343 . S
C685 C673 1.422 . S
C685 C687 1.321 . S
C685 H693 0.931 1_455 S
C686 N684 1.343 . S
C686 C687 1.390 . S
C686 H688 0.931 . S
C687 C685 1.321 . S
C687 C686 1.390 . S
C687 H689 0.930 . S
H688 C686 0.931 . S
H689 C687 0.930 . S
H690 C713 0.931 . S
H691 C679 0.929 . S
H692 C714 0.930 . S
H693 C685 0.931 1_655 S
H694 C675 0.930 1_655 S
H695 C704 0.929 . S
H696 C680 0.931 . S
H697 C681 0.930 . S
H698 C736 0.930 . S
H699 C677 0.929 1_655 S
H700 C705 0.931 . S
H701 C706 0.930 . S
N702 Gd682 2.622 . S
N702 C703 1.369 . S
N702 C704 1.338 . S
C703 N702 1.369 . S
C703 C707 1.415 . S
C703 C710 1.422 . S
C704 H695 0.929 . S
C704 N702 1.338 . S
C704 C706 1.378 . S
C705 H700 0.931 . S
C705 C706 1.348 . S
C705 C707 1.413 . S
C706 H701 0.930 . S
C706 C704 1.378 . S
C706 C705 1.348 . S
C707 C703 1.415 . S
C707 C705 1.413 . S
C707 C737 1.437 1_565 S
H708 C737 0.929 . S
N709 Gd682 2.570 . S
N709 C710 1.359 . S
N709 C713 1.343 . S
C710 C703 1.422 . S
C710 N709 1.359 . S
C710 C712 1.421 1_565 S
C711 C712 1.422 . S
C711 C714 1.321 . S
C711 H738 0.931 . S
C712 C710 1.421 1_545 S
C712 C711 1.422 . S
C712 C736 1.417 . S
C713 H690 0.931 . S
C713 N709 1.343 . S
C713 C714 1.390 1_565 S
C714 H692 0.930 . S
C714 C711 1.321 . S
C714 C713 1.390 1_545 S
O715 Gd683 2.386 . S
O715 C727 1.265 . S
O716 Gd682 2.353 . S
O716 C727 1.242 . S
O717 Gd682 2.468 . S
O717 C735 1.263 . S
O718 Gd682 2.427 . S
O718 C735 1.252 . S
O719 Gd683 2.307 . S
O719 C728 1.261 . S
O720 Gd682 2.388 . S
O720 C728 1.252 . S
O721 Gd682 2.386 . S
O721 C739 1.265 . S
O722 Gd683 2.353 . S
O722 C739 1.242 . S
O723 Gd683 2.468 . S
O723 C747 1.263 . S
O724 Gd683 2.427 . S
O724 C747 1.252 . S
O725 Gd682 2.307 . S
O725 C740 1.261 . S
O726 Gd683 2.388 . S
O726 C740 1.252 . S
C727 O715 1.265 . S
C727 O716 1.242 . S
C728 O719 1.261 . S
C728 O720 1.252 . S
C729 C732 1.394 . S
C729 C734 1.370 . S
C729 C735 1.500 1_545 S
C730 C733 1.383 . S
C730 C734 1.395 . S
C731 C732 1.396 . S
C731 C733 1.365 . S
C731 H748 0.929 . S
C732 C729 1.394 . S
C732 C731 1.396 . S
C732 H749 0.930 . S
C733 C730 1.383 . S
C733 C731 1.365 . S
C733 H750 0.931 . S
C734 C729 1.370 . S
C734 C730 1.395 . S
C734 H751 0.930 . S
C735 Gd682 2.805 . S
C735 O717 1.263 . S
C735 O718 1.252 . S
C735 C729 1.500 1_565 S
C736 H698 0.930 . S
C736 C712 1.417 . S
C736 C737 1.329 . S
C737 C707 1.437 1_545 S
C737 H708 0.929 . S
C737 C736 1.329 . S
H738 C711 0.931 . S
C739 O721 1.265 . S
C739 O722 1.242 . S
C740 O725 1.261 . S
C740 O726 1.252 . S
C741 C744 1.394 . S
C741 C746 1.370 . S
C741 C747 1.500 . S
C742 C745 1.383 . S
C742 C746 1.395 . S
C743 C744 1.396 . S
C743 C745 1.365 . S
C743 H752 0.929 . S
C744 C741 1.394 . S
C744 C743 1.396 . S
C744 H753 0.930 . S
C745 C742 1.383 . S
C745 C743 1.365 . S
C745 H754 0.931 . S
C746 C741 1.370 . S
C746 C742 1.395 . S
C746 H755 0.930 . S
C747 Gd683 2.805 . S
C747 O723 1.263 . S
C747 O724 1.252 . S
C747 C741 1.500 . S
H748 C731 0.929 . S
H749 C732 0.930 . S
H750 C733 0.931 . S
H751 C734 0.930 . S
H752 C743 0.929 . S
H753 C744 0.930 . S
H754 C745 0.931 . S
H755 C746 0.930 . S
C756 C758 1.422 . S
C756 C760 1.415 . S
C756 N762 1.369 . S
C757 C758 1.421 . S
C757 C759 1.417 . S
C757 C769 1.422 . S
C758 C756 1.422 . S
C758 C757 1.421 . S
C758 N768 1.359 . S
C759 C757 1.417 . S
C759 C761 1.329 . S
C759 H778 0.930 1_565 S
C760 C756 1.415 . S
C760 C761 1.437 . S
C760 C764 1.413 . S
C761 C759 1.329 . S
C761 C760 1.437 . S
C761 H783 0.929 . S
N762 C756 1.369 . S
N762 C763 1.338 . S
N762 Gd767 2.622 . S
C763 N762 1.338 . S
C763 C765 1.378 . S
C763 H775 0.929 . S
C764 C760 1.413 . S
C764 C765 1.348 . S
C764 H780 0.931 . S
C765 C763 1.378 . S
C765 C764 1.348 . S
C765 H781 0.930 . S
Gd766 N786 2.622 . S
Gd766 N793 2.570 . S
Gd766 O800 2.353 . S
Gd766 O801 2.468 . S
Gd766 O802 2.427 . S
Gd766 O804 2.388 . S
Gd766 O805 2.386 . S
Gd766 O809 2.307 . S
Gd766 C819 2.805 . S
Gd767 N762 2.622 . S
Gd767 N768 2.570 . S
Gd767 O799 2.386 . S
Gd767 O803 2.307 . S
Gd767 O806 2.353 . S
Gd767 O807 2.468 . S
Gd767 O808 2.427 . S
Gd767 O810 2.388 . S
Gd767 C831 2.805 . S
N768 C758 1.359 . S
N768 Gd767 2.570 . S
N768 C770 1.343 . S
C769 C757 1.422 . S
C769 C771 1.321 . S
C769 H777 0.931 1_565 S
C770 N768 1.343 . S
C770 C771 1.390 . S
C770 H772 0.931 . S
C771 C769 1.321 . S
C771 C770 1.390 . S
C771 H773 0.930 . S
H772 C770 0.931 . S
H773 C771 0.930 . S
H774 C797 0.931 . S
H775 C763 0.929 . S
H776 C798 0.930 . S
H777 C769 0.931 1_545 S
H778 C759 0.930 1_545 S
H779 C788 0.929 . S
H780 C764 0.931 . S
H781 C765 0.930 . S
H782 C820 0.930 . S
H783 C761 0.929 . S
H784 C789 0.931 . S
H785 C790 0.930 . S
N786 Gd766 2.622 . S
N786 C787 1.369 . S
N786 C788 1.338 . S
C787 N786 1.369 . S
C787 C791 1.415 . S
C787 C794 1.422 . S
C788 H779 0.929 . S
C788 N786 1.338 . S
C788 C790 1.378 . S
C789 H784 0.931 . S
C789 C790 1.348 . S
C789 C791 1.413 . S
C790 H785 0.930 . S
C790 C788 1.378 . S
C790 C789 1.348 . S
C791 C787 1.415 . S
C791 C789 1.413 . S
C791 C821 1.437 . S
H792 C821 0.929 . S
N793 Gd766 2.570 . S
N793 C794 1.359 . S
N793 C797 1.343 . S
C794 C787 1.422 . S
C794 N793 1.359 . S
C794 C796 1.421 . S
C795 C796 1.422 . S
C795 C798 1.321 . S
C795 H822 0.931 . S
C796 C794 1.421 . S
C796 C795 1.422 . S
C796 C820 1.417 . S
C797 H774 0.931 . S
C797 N793 1.343 . S
C797 C798 1.390 . S
C798 H776 0.930 . S
C798 C795 1.321 . S
C798 C797 1.390 . S
O799 Gd767 2.386 . S
O799 C811 1.265 . S
O800 Gd766 2.353 . S
O800 C811 1.242 . S
O801 Gd766 2.468 . S
O801 C819 1.263 . S
O802 Gd766 2.427 . S
O802 C819 1.252 . S
O803 Gd767 2.307 . S
O803 C812 1.261 . S
O804 Gd766 2.388 . S
O804 C812 1.252 . S
O805 Gd766 2.386 . S
O805 C823 1.265 . S
O806 Gd767 2.353 . S
O806 C823 1.242 . S
O807 Gd767 2.468 . S
O807 C831 1.263 . S
O808 Gd767 2.427 . S
O808 C831 1.252 . S
O809 Gd766 2.307 . S
O809 C824 1.261 . S
O810 Gd767 2.388 . S
O810 C824 1.252 . S
C811 O799 1.265 . S
C811 O800 1.242 . S
C812 O803 1.261 . S
C812 O804 1.252 . S
C813 C816 1.394 . S
C813 C818 1.370 . S
C813 C819 1.500 . S
C814 C817 1.383 . S
C814 C818 1.395 . S
C815 C816 1.396 . S
C815 C817 1.365 . S
C815 H832 0.929 . S
C816 C813 1.394 . S
C816 C815 1.396 . S
C816 H833 0.930 . S
C817 C814 1.383 . S
C817 C815 1.365 . S
C817 H834 0.931 . S
C818 C813 1.370 . S
C818 C814 1.395 . S
C818 H835 0.930 . S
C819 Gd766 2.805 . S
C819 O801 1.263 . S
C819 O802 1.252 . S
C819 C813 1.500 . S
C820 H782 0.930 . S
C820 C796 1.417 . S
C820 C821 1.329 . S
C821 C791 1.437 . S
C821 H792 0.929 . S
C821 C820 1.329 . S
H822 C795 0.931 . S
C823 O805 1.265 . S
C823 O806 1.242 . S
C824 O809 1.261 . S
C824 O810 1.252 . S
C825 C828 1.395 . S
C825 C830 1.370 1_565 S
C825 C831 1.500 . S
C826 C829 1.383 . S
C826 C830 1.395 . S
C827 C828 1.389 1_545 S
C827 C829 1.365 . S
C827 H836 0.929 . S
C828 C825 1.395 . S
C828 C827 1.389 1_565 S
C828 H837 0.935 . S
C829 C826 1.383 . S
C829 C827 1.365 . S
C829 H838 0.931 . S
C830 C825 1.370 1_545 S
C830 C826 1.395 . S
C830 H839 0.930 1_545 S
C831 Gd767 2.805 . S
C831 O807 1.263 . S
C831 O808 1.252 . S
C831 C825 1.500 . S
H832 C815 0.929 . S
H833 C816 0.930 . S
H834 C817 0.931 . S
H835 C818 0.930 . S
H836 C827 0.929 . S
H837 C828 0.935 . S
H838 C829 0.931 . S
H839 C830 0.930 1_565 S
C840 C842 1.422 . S
C840 C844 1.415 . S
C840 N846 1.369 . S
C841 C842 1.421 . S
C841 C843 1.417 . S
C841 C853 1.422 . S
C842 C840 1.422 . S
C842 C841 1.421 . S
C842 N852 1.359 . S
C843 C841 1.417 . S
C843 C845 1.329 . S
C843 H862 0.930 . S
C844 C840 1.415 . S
C844 C845 1.437 . S
C844 C848 1.413 . S
C845 C843 1.329 . S
C845 C844 1.437 . S
C845 H867 0.929 . S
N846 C840 1.369 . S
N846 C847 1.338 . S
N846 Gd851 2.622 . S
C847 N846 1.338 . S
C847 C849 1.378 . S
C847 H859 0.929 . S
C848 C844 1.413 . S
C848 C849 1.348 . S
C848 H864 0.931 . S
C849 C847 1.378 . S
C849 C848 1.348 . S
C849 H865 0.930 . S
Gd850 N870 2.622 . S
Gd850 N877 2.570 . S
Gd850 O884 2.353 . S
Gd850 O885 2.468 . S
Gd850 O886 2.427 . S
Gd850 O888 2.388 . S
Gd850 O889 2.386 . S
Gd850 O893 2.307 . S
Gd850 C903 2.805 . S
Gd851 N846 2.622 . S
Gd851 N852 2.570 . S
Gd851 O883 2.386 . S
Gd851 O887 2.307 . S
Gd851 O890 2.353 . S
Gd851 O891 2.468 . S
Gd851 O892 2.427 . S
Gd851 O894 2.388 . S
Gd851 C915 2.805 . S
N852 C842 1.359 . S
N852 Gd851 2.570 . S
N852 C854 1.343 . S
C853 C841 1.422 . S
C853 C855 1.321 . S
C853 H861 0.931 . S
C854 N852 1.343 . S
C854 C855 1.390 . S
C854 H856 0.931 . S
C855 C853 1.321 . S
C855 C854 1.390 . S
C855 H857 0.930 . S
H856 C854 0.931 . S
H857 C855 0.930 . S
H858 C881 0.931 . S
H859 C847 0.929 . S
H860 C882 0.930 . S
H861 C853 0.931 . S
H862 C843 0.930 . S
H863 C872 0.929 . S
H864 C848 0.931 . S
H865 C849 0.930 . S
H866 C904 0.930 . S
H867 C845 0.929 . S
H868 C873 0.931 1_545 S
H869 C874 0.930 . S
N870 Gd850 2.622 . S
N870 C871 1.369 . S
N870 C872 1.338 . S
C871 N870 1.369 . S
C871 C875 1.415 . S
C871 C878 1.422 . S
C872 H863 0.929 . S
C872 N870 1.338 . S
C872 C874 1.378 . S
C873 H868 0.931 1_565 S
C873 C874 1.348 . S
C873 C875 1.413 . S
C874 H869 0.930 . S
C874 C872 1.378 . S
C874 C873 1.348 . S
C875 C871 1.415 . S
C875 C873 1.413 . S
C875 C905 1.437 1_565 S
H876 C905 0.929 . S
N877 Gd850 2.570 . S
N877 C878 1.359 . S
N877 C881 1.343 . S
C878 C871 1.422 . S
C878 N877 1.359 . S
C878 C880 1.421 1_565 S
C879 C880 1.422 . S
C879 C882 1.321 . S
C879 H906 0.931 . S
C880 C878 1.421 1_545 S
C880 C879 1.422 . S
C880 C904 1.417 . S
C881 H858 0.931 . S
C881 N877 1.343 . S
C881 C882 1.390 1_565 S
C882 H860 0.930 . S
C882 C879 1.321 . S
C882 C881 1.390 1_545 S
O883 Gd851 2.386 . S
O883 C895 1.265 . S
O884 Gd850 2.353 . S
O884 C895 1.242 . S
O885 Gd850 2.468 . S
O885 C903 1.263 . S
O886 Gd850 2.427 . S
O886 C903 1.252 . S
O887 Gd851 2.307 . S
O887 C896 1.261 . S
O888 Gd850 2.388 . S
O888 C896 1.252 . S
O889 Gd850 2.386 . S
O889 C907 1.265 . S
O890 Gd851 2.353 . S
O890 C907 1.242 . S
O891 Gd851 2.468 . S
O891 C915 1.263 . S
O892 Gd851 2.427 . S
O892 C915 1.252 . S
O893 Gd850 2.307 . S
O893 C908 1.261 . S
O894 Gd851 2.388 . S
O894 C908 1.252 . S
C895 O883 1.265 . S
C895 O884 1.242 . S
C896 O887 1.261 . S
C896 O888 1.252 . S
C897 C900 1.394 . S
C897 C902 1.370 . S
C897 C903 1.500 . S
C898 C901 1.383 . S
C898 C902 1.395 . S
C899 C900 1.396 . S
C899 C901 1.365 . S
C899 H916 0.929 . S
C900 C897 1.394 . S
C900 C899 1.396 . S
C900 H917 0.930 . S
C901 C898 1.383 . S
C901 C899 1.365 . S
C901 H918 0.931 . S
C902 C897 1.370 . S
C902 C898 1.395 . S
C902 H919 0.930 . S
C903 Gd850 2.805 . S
C903 O885 1.263 . S
C903 O886 1.252 . S
C903 C897 1.500 . S
C904 H866 0.930 . S
C904 C880 1.417 . S
C904 C905 1.329 . S
C905 C875 1.437 1_545 S
C905 H876 0.929 . S
C905 C904 1.329 . S
H906 C879 0.931 . S
C907 O889 1.265 . S
C907 O890 1.242 . S
C908 O893 1.261 . S
C908 O894 1.252 . S
C909 C912 1.394 . S
C909 C914 1.370 . S
C909 C915 1.500 . S
C910 C913 1.391 . S
C910 C914 1.377 1_655 S
C911 C912 1.396 . S
C911 C913 1.365 1_455 S
C911 H920 0.918 1_455 S
C912 C909 1.394 . S
C912 C911 1.396 . S
C912 H921 0.930 . S
C913 C910 1.391 . S
C913 C911 1.365 1_655 S
C913 H922 0.931 . S
C914 C909 1.370 . S
C914 C910 1.377 1_455 S
C914 H923 0.930 . S
C915 Gd851 2.805 . S
C915 O891 1.263 . S
C915 O892 1.252 . S
C915 C909 1.500 . S
H916 C899 0.929 . S
H917 C900 0.930 . S
H918 C901 0.931 . S
H919 C902 0.930 . S
H920 C911 0.918 1_655 S
H921 C912 0.930 . S
H922 C913 0.931 . S
H923 C914 0.930 . S
C924 C926 1.422 . S
C924 C928 1.415 . S
C924 N930 1.369 . S
C925 C926 1.421 . S
C925 C927 1.417 . S
C925 C937 1.422 . S
C926 C924 1.422 . S
C926 C925 1.421 . S
C926 N936 1.359 . S
C927 C925 1.417 . S
C927 C929 1.329 . S
C927 H946 0.930 . S
C928 C924 1.415 . S
C928 C929 1.437 . S
C928 C932 1.413 . S
C929 C927 1.329 . S
C929 C928 1.437 . S
C929 H951 0.929 . S
N930 C924 1.369 . S
N930 C931 1.338 . S
N930 Gd935 2.622 . S
C931 N930 1.338 . S
C931 C933 1.378 . S
C931 H943 0.929 . S
C932 C928 1.413 . S
C932 C933 1.348 . S
C932 H948 0.931 . S
C933 C931 1.378 . S
C933 C932 1.348 . S
C933 H949 0.930 . S
Gd934 N954 2.622 . S
Gd934 N961 2.570 . S
Gd934 O968 2.353 . S
Gd934 O969 2.468 . S
Gd934 O970 2.427 . S
Gd934 O972 2.388 . S
Gd934 O973 2.386 . S
Gd934 O977 2.307 . S
Gd934 C987 2.805 . S
Gd935 N930 2.622 . S
Gd935 N936 2.570 . S
Gd935 O967 2.386 . S
Gd935 O971 2.307 . S
Gd935 O974 2.353 . S
Gd935 O975 2.468 . S
Gd935 O976 2.427 . S
Gd935 O978 2.388 . S
Gd935 C999 2.805 . S
N936 C926 1.359 . S
N936 Gd935 2.570 . S
N936 C938 1.343 . S
C937 C925 1.422 . S
C937 C939 1.321 . S
C937 H945 0.931 . S
C938 N936 1.343 . S
C938 C939 1.390 . S
C938 H940 0.931 . S
C939 C937 1.321 . S
C939 C938 1.390 . S
C939 H941 0.930 . S
H940 C938 0.931 . S
H941 C939 0.930 . S
H942 C965 0.931 . S
H943 C931 0.929 . S
H944 C966 0.930 . S
H945 C937 0.931 . S
H946 C927 0.930 . S
H947 C956 0.929 . S
H948 C932 0.931 . S
H949 C933 0.930 . S
H950 C988 0.930 . S
H951 C929 0.929 . S
H952 C957 0.931 . S
H953 C958 0.930 . S
N954 Gd934 2.622 . S
N954 C955 1.369 . S
N954 C956 1.338 . S
C955 N954 1.369 . S
C955 C959 1.415 . S
C955 C962 1.422 . S
C956 H947 0.929 . S
C956 N954 1.338 . S
C956 C958 1.378 . S
C957 H952 0.931 . S
C957 C958 1.348 . S
C957 C959 1.413 . S
C958 H953 0.930 . S
C958 C956 1.378 . S
C958 C957 1.348 . S
C959 C955 1.415 . S
C959 C957 1.413 . S
C959 C989 1.437 . S
H960 C989 0.929 1_655 S
N961 Gd934 2.570 . S
N961 C962 1.359 . S
N961 C965 1.343 . S
C962 C955 1.422 . S
C962 N961 1.359 . S
C962 C964 1.421 . S
C963 C964 1.422 . S
C963 C966 1.321 . S
C963 H990 0.931 1_455 S
C964 C962 1.421 . S
C964 C963 1.422 . S
C964 C988 1.417 1_455 S
C965 H942 0.931 . S
C965 N961 1.343 . S
C965 C966 1.390 . S
C966 H944 0.930 . S
C966 C963 1.321 . S
C966 C965 1.390 . S
O967 Gd935 2.386 . S
O967 C979 1.265 . S
O968 Gd934 2.353 . S
O968 C979 1.242 . S
O969 Gd934 2.468 . S
O969 C987 1.263 . S
O970 Gd934 2.427 . S
O970 C987 1.252 . S
O971 Gd935 2.307 . S
O971 C980 1.261 . S
O972 Gd934 2.388 . S
O972 C980 1.252 . S
O973 Gd934 2.386 . S
O973 C991 1.265 . S
O974 Gd935 2.353 . S
O974 C991 1.242 . S
O975 Gd935 2.468 . S
O975 C999 1.263 . S
O976 Gd935 2.427 . S
O976 C999 1.252 . S
O977 Gd934 2.307 . S
O977 C992 1.261 . S
O978 Gd935 2.388 . S
O978 C992 1.252 . S
C979 O967 1.265 . S
C979 O968 1.242 . S
C980 O971 1.261 . S
C980 O972 1.252 . S
C981 C984 1.394 . S
C981 C986 1.370 . S
C981 C987 1.500 . S
C982 C985 1.383 . S
C982 C986 1.395 . S
C983 C984 1.396 . S
C983 C985 1.365 . S
C983 H1000 0.929 . S
C984 C981 1.394 . S
C984 C983 1.396 . S
C984 H1001 0.930 . S
C985 C982 1.383 . S
C985 C983 1.365 . S
C985 H1002 0.931 . S
C986 C981 1.370 . S
C986 C982 1.395 . S
C986 H1003 0.930 . S
C987 Gd934 2.805 . S
C987 O969 1.263 . S
C987 O970 1.252 . S
C987 C981 1.500 . S
C988 H950 0.930 . S
C988 C964 1.417 1_655 S
C988 C989 1.329 1_655 S
C989 C959 1.437 . S
C989 H960 0.929 1_455 S
C989 C988 1.329 1_455 S
H990 C963 0.931 1_655 S
C991 O973 1.265 . S
C991 O974 1.242 . S
C992 O977 1.261 . S
C992 O978 1.252 . S
C993 C996 1.394 . S
C993 C998 1.370 . S
C993 C999 1.500 . S
C994 C997 1.383 . S
C994 C998 1.395 . S
C995 C996 1.396 . S
C995 C997 1.365 . S
C995 H1004 0.929 . S
C996 C993 1.394 . S
C996 C995 1.396 . S
C996 H1005 0.930 . S
C997 C994 1.383 . S
C997 C995 1.365 . S
C997 H1006 0.931 . S
C998 C993 1.370 . S
C998 C994 1.395 . S
C998 H1007 0.930 . S
C999 Gd935 2.805 . S
C999 O975 1.263 . S
C999 O976 1.252 . S
C999 C993 1.500 . S
H1000 C983 0.929 . S
H1001 C984 0.930 . S
H1002 C985 0.931 . S
H1003 C986 0.930 . S
H1004 C995 0.929 . S
H1005 C996 0.930 . S
H1006 C997 0.931 . S
H1007 C998 0.930 . S
C1008 C1010 1.422 . S
C1008 C1012 1.415 . S
C1008 N1014 1.369 . S
C1009 C1010 1.421 . S
C1009 C1011 1.417 . S
C1009 C1021 1.422 . S
C1010 C1008 1.422 . S
C1010 C1009 1.421 . S
C1010 N1020 1.359 . S
C1011 C1009 1.417 . S
C1011 C1013 1.329 . S
C1011 H1030 0.930 1_655 S
C1012 C1008 1.415 . S
C1012 C1013 1.437 . S
C1012 C1016 1.413 . S
C1013 C1011 1.329 . S
C1013 C1012 1.437 . S
C1013 H1035 0.929 . S
N1014 C1008 1.369 . S
N1014 C1015 1.338 . S
N1014 Gd1019 2.622 . S
C1015 N1014 1.338 . S
C1015 C1017 1.378 . S
C1015 H1027 0.929 . S
C1016 C1012 1.413 . S
C1016 C1017 1.348 . S
C1016 H1032 0.931 . S
C1017 C1015 1.378 . S
C1017 C1016 1.348 . S
C1017 H1033 0.930 . S
Gd1018 N1038 2.622 . S
Gd1018 N1045 2.570 . S
Gd1018 O1052 2.353 . S
Gd1018 O1053 2.468 . S
Gd1018 O1054 2.427 . S
Gd1018 O1056 2.388 . S
Gd1018 O1057 2.386 . S
Gd1018 O1061 2.307 . S
Gd1018 C1071 2.805 . S
Gd1019 N1014 2.622 . S
Gd1019 N1020 2.570 . S
Gd1019 O1051 2.386 . S
Gd1019 O1055 2.307 . S
Gd1019 O1058 2.353 . S
Gd1019 O1059 2.468 . S
Gd1019 O1060 2.427 . S
Gd1019 O1062 2.388 . S
Gd1019 C1083 2.805 . S
N1020 C1010 1.359 . S
N1020 Gd1019 2.570 . S
N1020 C1022 1.343 . S
C1021 C1009 1.422 . S
C1021 C1023 1.321 . S
C1021 H1029 0.931 1_655 S
C1022 N1020 1.343 . S
C1022 C1023 1.390 . S
C1022 H1024 0.931 . S
C1023 C1021 1.321 . S
C1023 C1022 1.390 . S
C1023 H1025 0.930 . S
H1024 C1022 0.931 . S
H1025 C1023 0.930 . S
H1026 C1049 0.931 . S
H1027 C1015 0.929 . S
H1028 C1050 0.930 . S
H1029 C1021 0.931 1_455 S
H1030 C1011 0.930 1_455 S
H1031 C1040 0.929 . S
H1032 C1016 0.931 . S
H1033 C1017 0.930 . S
H1034 C1072 0.930 . S
H1035 C1013 0.929 . S
H1036 C1041 0.931 . S
H1037 C1042 0.930 . S
N1038 Gd1018 2.622 . S
N1038 C1039 1.369 . S
N1038 C1040 1.338 . S
C1039 N1038 1.369 . S
C1039 C1043 1.415 . S
C1039 C1046 1.422 . S
C1040 H1031 0.929 . S
C1040 N1038 1.338 . S
C1040 C1042 1.378 . S
C1041 H1036 0.931 . S
C1041 C1042 1.348 . S
C1041 C1043 1.413 . S
C1042 H1037 0.930 . S
C1042 C1040 1.378 . S
C1042 C1041 1.348 . S
C1043 C1039 1.415 . S
C1043 C1041 1.413 . S
C1043 C1073 1.437 . S
H1044 C1073 0.929 . S
N1045 Gd1018 2.570 . S
N1045 C1046 1.359 . S
N1045 C1049 1.343 . S
C1046 C1039 1.422 . S
C1046 N1045 1.359 . S
C1046 C1048 1.421 . S
C1047 C1048 1.422 . S
C1047 C1050 1.321 . S
C1047 H1074 0.931 . S
C1048 C1046 1.421 . S
C1048 C1047 1.422 . S
C1048 C1072 1.417 . S
C1049 H1026 0.931 . S
C1049 N1045 1.343 . S
C1049 C1050 1.390 . S
C1050 H1028 0.930 . S
C1050 C1047 1.321 . S
C1050 C1049 1.390 . S
O1051 Gd1019 2.386 . S
O1051 C1063 1.265 . S
O1052 Gd1018 2.353 . S
O1052 C1063 1.242 . S
O1053 Gd1018 2.468 . S
O1053 C1071 1.263 . S
O1054 Gd1018 2.427 . S
O1054 C1071 1.252 . S
O1055 Gd1019 2.307 . S
O1055 C1064 1.261 . S
O1056 Gd1018 2.388 . S
O1056 C1064 1.252 . S
O1057 Gd1018 2.386 . S
O1057 C1075 1.265 . S
O1058 Gd1019 2.353 . S
O1058 C1075 1.242 . S
O1059 Gd1019 2.468 . S
O1059 C1083 1.263 . S
O1060 Gd1019 2.427 . S
O1060 C1083 1.252 . S
O1061 Gd1018 2.307 . S
O1061 C1076 1.261 . S
O1062 Gd1019 2.388 . S
O1062 C1076 1.252 . S
C1063 O1051 1.265 . S
C1063 O1052 1.242 . S
C1064 O1055 1.261 . S
C1064 O1056 1.252 . S
C1065 C1068 1.394 . S
C1065 C1070 1.370 . S
C1065 C1071 1.500 . S
C1066 C1069 1.383 . S
C1066 C1070 1.395 . S
C1067 C1068 1.396 . S
C1067 C1069 1.365 . S
C1067 H1084 0.929 . S
C1068 C1065 1.394 . S
C1068 C1067 1.396 . S
C1068 H1085 0.930 . S
C1069 C1066 1.383 . S
C1069 C1067 1.365 . S
C1069 H1086 0.931 . S
C1070 C1065 1.370 . S
C1070 C1066 1.395 . S
C1070 H1087 0.930 . S
C1071 Gd1018 2.805 . S
C1071 O1053 1.263 . S
C1071 O1054 1.252 . S
C1071 C1065 1.500 . S
C1072 H1034 0.930 . S
C1072 C1048 1.417 . S
C1072 C1073 1.329 . S
C1073 C1043 1.437 . S
C1073 H1044 0.929 . S
C1073 C1072 1.329 . S
H1074 C1047 0.931 . S
C1075 O1057 1.265 . S
C1075 O1058 1.242 . S
C1076 O1061 1.261 . S
C1076 O1062 1.252 . S
C1077 C1080 1.395 . S
C1077 C1082 1.370 1_655 S
C1077 C1083 1.500 . S
C1078 C1081 1.383 . S
C1078 C1082 1.395 . S
C1079 C1080 1.389 1_455 S
C1079 C1081 1.365 . S
C1079 H1088 0.929 . S
C1080 C1077 1.395 . S
C1080 C1079 1.389 1_655 S
C1080 H1089 0.935 . S
C1081 C1078 1.383 . S
C1081 C1079 1.365 . S
C1081 H1090 0.931 . S
C1082 C1077 1.370 1_455 S
C1082 C1078 1.395 . S
C1082 H1091 0.930 1_455 S
C1083 Gd1019 2.805 . S
C1083 O1059 1.263 . S
C1083 O1060 1.252 . S
C1083 C1077 1.500 . S
H1084 C1067 0.929 . S
H1085 C1068 0.930 . S
H1086 C1069 0.931 . S
H1087 C1070 0.930 . S
H1088 C1079 0.929 . S
H1089 C1080 0.935 . S
H1090 C1081 0.931 . S
H1091 C1082 0.930 1_655 S
C1092 C1094 1.422 . S
C1092 C1096 1.415 . S
C1092 N1098 1.369 . S
C1093 C1094 1.421 . S
C1093 C1095 1.417 . S
C1093 C1105 1.422 . S
C1094 C1092 1.422 . S
C1094 C1093 1.421 . S
C1094 N1104 1.359 . S
C1095 C1093 1.417 . S
C1095 C1097 1.329 . S
C1095 H1114 0.930 . S
C1096 C1092 1.415 . S
C1096 C1097 1.437 . S
C1096 C1100 1.413 . S
C1097 C1095 1.329 . S
C1097 C1096 1.437 . S
C1097 H1119 0.929 . S
N1098 C1092 1.369 . S
N1098 C1099 1.338 . S
N1098 Gd1103 2.622 . S
C1099 N1098 1.338 . S
C1099 C1101 1.378 . S
C1099 H1111 0.929 . S
C1100 C1096 1.413 . S
C1100 C1101 1.348 . S
C1100 H1116 0.931 . S
C1101 C1099 1.378 . S
C1101 C1100 1.348 . S
C1101 H1117 0.930 . S
Gd1102 N1122 2.622 . S
Gd1102 N1129 2.570 . S
Gd1102 O1136 2.353 . S
Gd1102 O1137 2.468 . S
Gd1102 O1138 2.427 . S
Gd1102 O1140 2.388 . S
Gd1102 O1141 2.386 . S
Gd1102 O1145 2.307 . S
Gd1102 C1155 2.805 . S
Gd1103 N1098 2.622 . S
Gd1103 N1104 2.570 . S
Gd1103 O1135 2.386 . S
Gd1103 O1139 2.307 . S
Gd1103 O1142 2.353 . S
Gd1103 O1143 2.468 . S
Gd1103 O1144 2.427 . S
Gd1103 O1146 2.388 . S
Gd1103 C1167 2.805 . S
N1104 C1094 1.359 . S
N1104 Gd1103 2.570 . S
N1104 C1106 1.343 . S
C1105 C1093 1.422 . S
C1105 C1107 1.321 . S
C1105 H1113 0.931 . S
C1106 N1104 1.343 . S
C1106 C1107 1.390 . S
C1106 H1108 0.931 . S
C1107 C1105 1.321 . S
C1107 C1106 1.390 . S
C1107 H1109 0.930 . S
H1108 C1106 0.931 . S
H1109 C1107 0.930 . S
H1110 C1133 0.931 . S
H1111 C1099 0.929 . S
H1112 C1134 0.930 . S
H1113 C1105 0.931 . S
H1114 C1095 0.930 . S
H1115 C1124 0.929 . S
H1116 C1100 0.931 . S
H1117 C1101 0.930 . S
H1118 C1156 0.930 . S
H1119 C1097 0.929 . S
H1120 C1125 0.931 . S
H1121 C1126 0.930 . S
N1122 Gd1102 2.622 . S
N1122 C1123 1.369 . S
N1122 C1124 1.338 . S
C1123 N1122 1.369 . S
C1123 C1127 1.415 . S
C1123 C1130 1.422 . S
C1124 H1115 0.929 . S
C1124 N1122 1.338 . S
C1124 C1126 1.378 . S
C1125 H1120 0.931 . S
C1125 C1126 1.348 . S
C1125 C1127 1.413 . S
C1126 H1121 0.930 . S
C1126 C1124 1.378 . S
C1126 C1125 1.348 . S
C1127 C1123 1.415 . S
C1127 C1125 1.413 . S
C1127 C1157 1.437 . S
H1128 C1157 0.929 1_565 S
N1129 Gd1102 2.570 . S
N1129 C1130 1.359 . S
N1129 C1133 1.343 . S
C1130 C1123 1.422 . S
C1130 N1129 1.359 . S
C1130 C1132 1.421 . S
C1131 C1132 1.422 . S
C1131 C1134 1.321 . S
C1131 H1158 0.931 1_545 S
C1132 C1130 1.421 . S
C1132 C1131 1.422 . S
C1132 C1156 1.417 1_545 S
C1133 H1110 0.931 . S
C1133 N1129 1.343 . S
C1133 C1134 1.390 . S
C1134 H1112 0.930 . S
C1134 C1131 1.321 . S
C1134 C1133 1.390 . S
O1135 Gd1103 2.386 . S
O1135 C1147 1.265 . S
O1136 Gd1102 2.353 . S
O1136 C1147 1.242 . S
O1137 Gd1102 2.468 . S
O1137 C1155 1.263 . S
O1138 Gd1102 2.427 . S
O1138 C1155 1.252 . S
O1139 Gd1103 2.307 . S
O1139 C1148 1.261 . S
O1140 Gd1102 2.388 . S
O1140 C1148 1.252 . S
O1141 Gd1102 2.386 . S
O1141 C1159 1.265 . S
O1142 Gd1103 2.353 . S
O1142 C1159 1.242 . S
O1143 Gd1103 2.468 . S
O1143 C1167 1.263 . S
O1144 Gd1103 2.427 . S
O1144 C1167 1.252 . S
O1145 Gd1102 2.307 . S
O1145 C1160 1.261 . S
O1146 Gd1103 2.388 . S
O1146 C1160 1.252 . S
C1147 O1135 1.265 . S
C1147 O1136 1.242 . S
C1148 O1139 1.261 . S
C1148 O1140 1.252 . S
C1149 C1152 1.394 . S
C1149 C1154 1.370 . S
C1149 C1155 1.500 . S
C1150 C1153 1.383 . S
C1150 C1154 1.395 . S
C1151 C1152 1.396 . S
C1151 C1153 1.365 . S
C1151 H1168 0.929 . S
C1152 C1149 1.394 . S
C1152 C1151 1.396 . S
C1152 H1169 0.930 . S
C1153 C1150 1.383 . S
C1153 C1151 1.365 . S
C1153 H1170 0.931 . S
C1154 C1149 1.370 . S
C1154 C1150 1.395 . S
C1154 H1171 0.930 . S
C1155 Gd1102 2.805 . S
C1155 O1137 1.263 . S
C1155 O1138 1.252 . S
C1155 C1149 1.500 . S
C1156 H1118 0.930 . S
C1156 C1132 1.417 1_565 S
C1156 C1157 1.329 1_565 S
C1157 C1127 1.437 . S
C1157 H1128 0.929 1_545 S
C1157 C1156 1.329 1_545 S
H1158 C1131 0.931 1_565 S
C1159 O1141 1.265 . S
C1159 O1142 1.242 . S
C1160 O1145 1.261 . S
C1160 O1146 1.252 . S
C1161 C1164 1.394 . S
C1161 C1166 1.370 . S
C1161 C1167 1.500 . S
C1162 C1165 1.383 . S
C1162 C1166 1.395 . S
C1163 C1164 1.396 . S
C1163 C1165 1.365 . S
C1163 H1172 0.929 . S
C1164 C1161 1.394 . S
C1164 C1163 1.396 . S
C1164 H1173 0.930 . S
C1165 C1162 1.383 . S
C1165 C1163 1.365 . S
C1165 H1174 0.931 . S
C1166 C1161 1.370 . S
C1166 C1162 1.395 . S
C1166 H1175 0.930 . S
C1167 Gd1103 2.805 . S
C1167 O1143 1.263 . S
C1167 O1144 1.252 . S
C1167 C1161 1.500 . S
H1168 C1151 0.929 . S
H1169 C1152 0.930 . S
H1170 C1153 0.931 . S
H1171 C1154 0.930 . S
H1172 C1163 0.929 . S
H1173 C1164 0.930 . S
H1174 C1165 0.931 . S
H1175 C1166 0.930 . S
C1176 C1178 1.422 . S
C1176 C1180 1.415 . S
C1176 N1182 1.369 . S
C1177 C1178 1.421 . S
C1177 C1179 1.417 . S
C1177 C1189 1.422 . S
C1178 C1176 1.422 . S
C1178 C1177 1.421 . S
C1178 N1188 1.359 . S
C1179 C1177 1.417 . S
C1179 C1181 1.329 . S
C1179 H1198 0.930 . S
C1180 C1176 1.415 . S
C1180 C1181 1.437 . S
C1180 C1184 1.413 . S
C1181 C1179 1.329 . S
C1181 C1180 1.437 . S
C1181 H1203 0.929 . S
N1182 C1176 1.369 . S
N1182 C1183 1.338 . S
N1182 Gd1187 2.622 . S
C1183 N1182 1.338 . S
C1183 C1185 1.378 . S
C1183 H1195 0.929 . S
C1184 C1180 1.413 . S
C1184 C1185 1.348 . S
C1184 H1200 0.931 . S
C1185 C1183 1.378 . S
C1185 C1184 1.348 . S
C1185 H1201 0.930 . S
Gd1186 N1206 2.622 . S
Gd1186 N1213 2.570 . S
Gd1186 O1220 2.353 . S
Gd1186 O1221 2.468 . S
Gd1186 O1222 2.427 . S
Gd1186 O1224 2.388 . S
Gd1186 O1225 2.386 . S
Gd1186 O1229 2.307 . S
Gd1186 C1239 2.805 . S
Gd1187 N1182 2.622 . S
Gd1187 N1188 2.570 . S
Gd1187 O1219 2.386 . S
Gd1187 O1223 2.307 . S
Gd1187 O1226 2.353 . S
Gd1187 O1227 2.468 . S
Gd1187 O1228 2.427 . S
Gd1187 O1230 2.388 . S
Gd1187 C1251 2.805 . S
N1188 C1178 1.359 . S
N1188 Gd1187 2.570 . S
N1188 C1190 1.343 . S
C1189 C1177 1.422 . S
C1189 C1191 1.321 . S
C1189 H1197 0.931 . S
C1190 N1188 1.343 . S
C1190 C1191 1.390 . S
C1190 H1192 0.931 . S
C1191 C1189 1.321 . S
C1191 C1190 1.390 . S
C1191 H1193 0.930 . S
H1192 C1190 0.931 . S
H1193 C1191 0.930 . S
H1194 C1217 0.931 . S
H1195 C1183 0.929 . S
H1196 C1218 0.930 . S
H1197 C1189 0.931 . S
H1198 C1179 0.930 . S
H1199 C1208 0.929 . S
H1200 C1184 0.931 . S
H1201 C1185 0.930 . S
H1202 C1240 0.930 . S
H1203 C1181 0.929 . S
H1204 C1209 0.931 1_455 S
H1205 C1210 0.930 . S
N1206 Gd1186 2.622 . S
N1206 C1207 1.369 . S
N1206 C1208 1.338 . S
C1207 N1206 1.369 . S
C1207 C1211 1.415 . S
C1207 C1214 1.422 . S
C1208 H1199 0.929 . S
C1208 N1206 1.338 . S
C1208 C1210 1.378 . S
C1209 H1204 0.931 1_655 S
C1209 C1210 1.348 . S
C1209 C1211 1.413 . S
C1210 H1205 0.930 . S
C1210 C1208 1.378 . S
C1210 C1209 1.348 . S
C1211 C1207 1.415 . S
C1211 C1209 1.413 . S
C1211 C1241 1.437 1_655 S
H1212 C1241 0.929 . S
N1213 Gd1186 2.570 . S
N1213 C1214 1.359 . S
N1213 C1217 1.343 . S
C1214 C1207 1.422 . S
C1214 N1213 1.359 . S
C1214 C1216 1.421 1_655 S
C1215 C1216 1.422 . S
C1215 C1218 1.321 . S
C1215 H1242 0.931 . S
C1216 C1214 1.421 1_455 S
C1216 C1215 1.422 . S
C1216 C1240 1.417 . S
C1217 H1194 0.931 . S
C1217 N1213 1.343 . S
C1217 C1218 1.390 1_655 S
C1218 H1196 0.930 . S
C1218 C1215 1.321 . S
C1218 C1217 1.390 1_455 S
O1219 Gd1187 2.386 . S
O1219 C1231 1.265 . S
O1220 Gd1186 2.353 . S
O1220 C1231 1.242 . S
O1221 Gd1186 2.468 . S
O1221 C1239 1.263 . S
O1222 Gd1186 2.427 . S
O1222 C1239 1.252 . S
O1223 Gd1187 2.307 . S
O1223 C1232 1.261 . S
O1224 Gd1186 2.388 . S
O1224 C1232 1.252 . S
O1225 Gd1186 2.386 . S
O1225 C1243 1.265 . S
O1226 Gd1187 2.353 . S
O1226 C1243 1.242 . S
O1227 Gd1187 2.468 . S
O1227 C1251 1.263 . S
O1228 Gd1187 2.427 . S
O1228 C1251 1.252 . S
O1229 Gd1186 2.307 . S
O1229 C1244 1.261 . S
O1230 Gd1187 2.388 . S
O1230 C1244 1.252 . S
C1231 O1219 1.265 . S
C1231 O1220 1.242 . S
C1232 O1223 1.261 . S
C1232 O1224 1.252 . S
C1233 C1236 1.394 . S
C1233 C1238 1.370 . S
C1233 C1239 1.500 . S
C1234 C1237 1.383 . S
C1234 C1238 1.395 . S
C1235 C1236 1.396 . S
C1235 C1237 1.365 . S
C1235 H1252 0.929 . S
C1236 C1233 1.394 . S
C1236 C1235 1.396 . S
C1236 H1253 0.930 . S
C1237 C1234 1.383 . S
C1237 C1235 1.365 . S
C1237 H1254 0.931 . S
C1238 C1233 1.370 . S
C1238 C1234 1.395 . S
C1238 H1255 0.930 . S
C1239 Gd1186 2.805 . S
C1239 O1221 1.263 . S
C1239 O1222 1.252 . S
C1239 C1233 1.500 . S
C1240 H1202 0.930 . S
C1240 C1216 1.417 . S
C1240 C1241 1.329 . S
C1241 C1211 1.437 1_455 S
C1241 H1212 0.929 . S
C1241 C1240 1.329 . S
H1242 C1215 0.931 . S
C1243 O1225 1.265 . S
C1243 O1226 1.242 . S
C1244 O1229 1.261 . S
C1244 O1230 1.252 . S
C1245 C1248 1.394 . S
C1245 C1250 1.370 . S
C1245 C1251 1.500 . S
C1246 C1249 1.391 . S
C1246 C1250 1.377 1_565 S
C1247 C1248 1.396 . S
C1247 C1249 1.365 1_545 S
C1247 H1256 0.918 1_545 S
C1248 C1245 1.394 . S
C1248 C1247 1.396 . S
C1248 H1257 0.930 . S
C1249 C1246 1.391 . S
C1249 C1247 1.365 1_565 S
C1249 H1258 0.931 . S
C1250 C1245 1.370 . S
C1250 C1246 1.377 1_545 S
C1250 H1259 0.930 . S
C1251 Gd1187 2.805 . S
C1251 O1227 1.263 . S
C1251 O1228 1.252 . S
C1251 C1245 1.500 . S
H1252 C1235 0.929 . S
H1253 C1236 0.930 . S
H1254 C1237 0.931 . S
H1255 C1238 0.930 . S
H1256 C1247 0.918 1_565 S
H1257 C1248 0.930 . S
H1258 C1249 0.931 . S
H1259 C1250 0.930 . S
C1260 C1262 1.422 . S
C1260 C1264 1.415 . S
C1260 N1266 1.369 . S
C1261 C1262 1.421 . S
C1261 C1263 1.417 . S
C1261 C1273 1.422 . S
C1262 C1260 1.422 . S
C1262 C1261 1.421 . S
C1262 N1272 1.359 . S
C1263 C1261 1.417 . S
C1263 C1265 1.329 . S
C1263 H1282 0.930 . S
C1264 C1260 1.415 . S
C1264 C1265 1.437 . S
C1264 C1268 1.413 . S
C1265 C1263 1.329 . S
C1265 C1264 1.437 . S
C1265 H1287 0.929 . S
N1266 C1260 1.369 . S
N1266 C1267 1.338 . S
N1266 Gd1271 2.622 . S
C1267 N1266 1.338 . S
C1267 C1269 1.378 . S
C1267 H1279 0.929 . S
C1268 C1264 1.413 . S
C1268 C1269 1.348 . S
C1268 H1284 0.931 . S
C1269 C1267 1.378 . S
C1269 C1268 1.348 . S
C1269 H1285 0.930 . S
Gd1270 N1290 2.622 . S
Gd1270 N1297 2.570 . S
Gd1270 O1304 2.353 . S
Gd1270 O1305 2.468 . S
Gd1270 O1306 2.427 . S
Gd1270 O1308 2.388 . S
Gd1270 O1309 2.386 . S
Gd1270 O1313 2.307 . S
Gd1270 C1323 2.805 . S
Gd1271 N1266 2.622 . S
Gd1271 N1272 2.570 . S
Gd1271 O1303 2.386 . S
Gd1271 O1307 2.307 . S
Gd1271 O1310 2.353 . S
Gd1271 O1311 2.468 . S
Gd1271 O1312 2.427 . S
Gd1271 O1314 2.388 . S
Gd1271 C1335 2.805 . S
N1272 C1262 1.359 . S
N1272 Gd1271 2.570 . S
N1272 C1274 1.343 . S
C1273 C1261 1.422 . S
C1273 C1275 1.321 . S
C1273 H1281 0.931 . S
C1274 N1272 1.343 . S
C1274 C1275 1.390 . S
C1274 H1276 0.931 . S
C1275 C1273 1.321 . S
C1275 C1274 1.390 . S
C1275 H1277 0.930 . S
H1276 C1274 0.931 . S
H1277 C1275 0.930 . S
H1278 C1301 0.931 . S
H1279 C1267 0.929 . S
H1280 C1302 0.930 . S
H1281 C1273 0.931 . S
H1282 C1263 0.930 . S
H1283 C1292 0.929 . S
H1284 C1268 0.931 . S
H1285 C1269 0.930 . S
H1286 C1324 0.930 1_565 S
H1287 C1265 0.929 . S
H1288 C1293 0.931 . S
H1289 C1294 0.930 . S
N1290 Gd1270 2.622 . S
N1290 C1291 1.369 . S
N1290 C1292 1.338 . S
C1291 N1290 1.369 . S
C1291 C1295 1.415 . S
C1291 C1298 1.422 . S
C1292 H1283 0.929 . S
C1292 N1290 1.338 . S
C1292 C1294 1.378 . S
C1293 H1288 0.931 . S
C1293 C1294 1.348 . S
C1293 C1295 1.413 . S
C1294 H1289 0.930 . S
C1294 C1292 1.378 . S
C1294 C1293 1.348 . S
C1295 C1291 1.415 . S
C1295 C1293 1.413 . S
C1295 C1325 1.437 . S
H1296 C1325 0.929 . S
N1297 Gd1270 2.570 . S
N1297 C1298 1.359 . S
N1297 C1301 1.343 . S
C1298 C1291 1.422 . S
C1298 N1297 1.359 . S
C1298 C1300 1.421 . S
C1299 C1300 1.422 . S
C1299 C1302 1.321 . S
C1299 H1326 0.931 1_545 S
C1300 C1298 1.421 . S
C1300 C1299 1.422 . S
C1300 C1324 1.417 . S
C1301 H1278 0.931 . S
C1301 N1297 1.343 . S
C1301 C1302 1.390 . S
C1302 H1280 0.930 . S
C1302 C1299 1.321 . S
C1302 C1301 1.390 . S
O1303 Gd1271 2.386 . S
O1303 C1315 1.265 . S
O1304 Gd1270 2.353 . S
O1304 C1315 1.242 . S
O1305 Gd1270 2.468 . S
O1305 C1323 1.263 . S
O1306 Gd1270 2.427 . S
O1306 C1323 1.252 . S
O1307 Gd1271 2.307 . S
O1307 C1316 1.261 . S
O1308 Gd1270 2.388 . S
O1308 C1316 1.252 . S
O1309 Gd1270 2.386 . S
O1309 C1327 1.265 . S
O1310 Gd1271 2.353 . S
O1310 C1327 1.242 . S
O1311 Gd1271 2.468 . S
O1311 C1335 1.263 . S
O1312 Gd1271 2.427 . S
O1312 C1335 1.252 . S
O1313 Gd1270 2.307 . S
O1313 C1328 1.261 . S
O1314 Gd1271 2.388 . S
O1314 C1328 1.252 . S
C1315 O1303 1.265 . S
C1315 O1304 1.242 . S
C1316 O1307 1.261 . S
C1316 O1308 1.252 . S
C1317 C1320 1.394 . S
C1317 C1322 1.370 1_545 S
C1317 C1323 1.500 . S
C1318 C1321 1.383 . S
C1318 C1322 1.395 . S
C1319 C1320 1.396 1_565 S
C1319 C1321 1.365 . S
C1319 H1336 0.929 . S
C1320 C1317 1.394 . S
C1320 C1319 1.396 1_545 S
C1320 H1337 0.930 . S
C1321 C1318 1.383 . S
C1321 C1319 1.365 . S
C1321 H1338 0.931 . S
C1322 C1317 1.370 1_565 S
C1322 C1318 1.395 . S
C1322 H1339 0.930 1_565 S
C1323 Gd1270 2.805 . S
C1323 O1305 1.263 . S
C1323 O1306 1.252 . S
C1323 C1317 1.500 . S
C1324 H1286 0.930 1_545 S
C1324 C1300 1.417 . S
C1324 C1325 1.329 . S
C1325 C1295 1.437 . S
C1325 H1296 0.929 . S
C1325 C1324 1.329 . S
H1326 C1299 0.931 1_565 S
C1327 O1309 1.265 . S
C1327 O1310 1.242 . S
C1328 O1313 1.261 . S
C1328 O1314 1.252 . S
C1329 C1332 1.394 . S
C1329 C1334 1.370 . S
C1329 C1335 1.500 . S
C1330 C1333 1.383 . S
C1330 C1334 1.395 . S
C1331 C1332 1.396 . S
C1331 C1333 1.365 . S
C1331 H1340 0.929 . S
C1332 C1329 1.394 . S
C1332 C1331 1.396 . S
C1332 H1341 0.930 . S
C1333 C1330 1.383 . S
C1333 C1331 1.365 . S
C1333 H1342 0.931 . S
C1334 C1329 1.370 . S
C1334 C1330 1.395 . S
C1334 H1343 0.930 . S
C1335 Gd1271 2.805 . S
C1335 O1311 1.263 . S
C1335 O1312 1.252 . S
C1335 C1329 1.500 . S
H1336 C1319 0.929 . S
H1337 C1320 0.930 . S
H1338 C1321 0.931 . S
H1339 C1322 0.930 1_545 S
H1340 C1331 0.929 . S
H1341 C1332 0.930 . S
H1342 C1333 0.931 . S
H1343 C1334 0.930 . S
C1344 C1346 1.422 . S
C1344 C1348 1.415 . S
C1344 N1350 1.369 . S
C1345 C1346 1.421 . S
C1345 C1347 1.417 . S
C1345 C1357 1.422 . S
C1346 C1344 1.422 . S
C1346 C1345 1.421 . S
C1346 N1356 1.359 . S
C1347 C1345 1.417 . S
C1347 C1349 1.329 . S
C1347 H1366 0.930 1_545 S
C1348 C1344 1.415 . S
C1348 C1349 1.437 . S
C1348 C1352 1.413 . S
C1349 C1347 1.329 . S
C1349 C1348 1.437 . S
C1349 H1371 0.929 1_545 S
N1350 C1344 1.369 . S
N1350 C1351 1.338 . S
N1350 Gd1355 2.622 . S
C1351 N1350 1.338 . S
C1351 C1353 1.378 . S
C1351 H1363 0.929 . S
C1352 C1348 1.413 . S
C1352 C1353 1.348 . S
C1352 H1368 0.931 . S
C1353 C1351 1.378 . S
C1353 C1352 1.348 . S
C1353 H1369 0.930 . S
Gd1354 N1374 2.622 . S
Gd1354 N1381 2.570 . S
Gd1354 O1388 2.353 . S
Gd1354 O1389 2.468 . S
Gd1354 O1390 2.427 . S
Gd1354 O1392 2.388 . S
Gd1354 O1393 2.386 . S
Gd1354 O1397 2.307 . S
Gd1354 C1407 2.805 . S
Gd1355 N1350 2.622 . S
Gd1355 N1356 2.570 . S
Gd1355 O1387 2.386 . S
Gd1355 O1391 2.307 . S
Gd1355 O1394 2.353 . S
Gd1355 O1395 2.468 . S
Gd1355 O1396 2.427 . S
Gd1355 O1398 2.388 . S
Gd1355 C1419 2.805 . S
N1356 C1346 1.359 . S
N1356 Gd1355 2.570 . S
N1356 C1358 1.343 . S
C1357 C1345 1.422 . S
C1357 C1359 1.321 . S
C1357 H1365 0.931 1_545 S
C1358 N1356 1.343 . S
C1358 C1359 1.390 . S
C1358 H1360 0.931 . S
C1359 C1357 1.321 . S
C1359 C1358 1.390 . S
C1359 H1361 0.930 . S
H1360 C1358 0.931 . S
H1361 C1359 0.930 . S
H1362 C1385 0.931 . S
H1363 C1351 0.929 . S
H1364 C1386 0.930 . S
H1365 C1357 0.931 1_565 S
H1366 C1347 0.930 1_565 S
H1367 C1376 0.929 . S
H1368 C1352 0.931 . S
H1369 C1353 0.930 . S
H1370 C1408 0.930 . S
H1371 C1349 0.929 1_565 S
H1372 C1377 0.931 . S
H1373 C1378 0.930 . S
N1374 Gd1354 2.622 . S
N1374 C1375 1.369 . S
N1374 C1376 1.338 . S
C1375 N1374 1.369 . S
C1375 C1379 1.415 . S
C1375 C1382 1.422 . S
C1376 H1367 0.929 . S
C1376 N1374 1.338 . S
C1376 C1378 1.378 . S
C1377 H1372 0.931 . S
C1377 C1378 1.348 . S
C1377 C1379 1.413 . S
C1378 H1373 0.930 . S
C1378 C1376 1.378 . S
C1378 C1377 1.348 . S
C1379 C1375 1.415 . S
C1379 C1377 1.413 . S
C1379 C1409 1.437 1_655 S
H1380 C1409 0.929 . S
N1381 Gd1354 2.570 . S
N1381 C1382 1.359 . S
N1381 C1385 1.343 . S
C1382 C1375 1.422 . S
C1382 N1381 1.359 . S
C1382 C1384 1.421 1_655 S
C1383 C1384 1.422 . S
C1383 C1386 1.321 . S
C1383 H1410 0.931 . S
C1384 C1382 1.421 1_455 S
C1384 C1383 1.422 . S
C1384 C1408 1.417 . S
C1385 H1362 0.931 . S
C1385 N1381 1.343 . S
C1385 C1386 1.390 1_655 S
C1386 H1364 0.930 . S
C1386 C1383 1.321 . S
C1386 C1385 1.390 1_455 S
O1387 Gd1355 2.386 . S
O1387 C1399 1.265 . S
O1388 Gd1354 2.353 . S
O1388 C1399 1.242 . S
O1389 Gd1354 2.468 . S
O1389 C1407 1.263 . S
O1390 Gd1354 2.427 . S
O1390 C1407 1.252 . S
O1391 Gd1355 2.307 . S
O1391 C1400 1.261 . S
O1392 Gd1354 2.388 . S
O1392 C1400 1.252 . S
O1393 Gd1354 2.386 . S
O1393 C1411 1.265 . S
O1394 Gd1355 2.353 . S
O1394 C1411 1.242 . S
O1395 Gd1355 2.468 . S
O1395 C1419 1.263 . S
O1396 Gd1355 2.427 . S
O1396 C1419 1.252 . S
O1397 Gd1354 2.307 . S
O1397 C1412 1.261 . S
O1398 Gd1355 2.388 . S
O1398 C1412 1.252 . S
C1399 O1387 1.265 . S
C1399 O1388 1.242 . S
C1400 O1391 1.261 . S
C1400 O1392 1.252 . S
C1401 C1404 1.394 . S
C1401 C1406 1.370 . S
C1401 C1407 1.500 1_455 S
C1402 C1405 1.383 . S
C1402 C1406 1.395 . S
C1403 C1404 1.396 . S
C1403 C1405 1.365 . S
C1403 H1420 0.929 . S
C1404 C1401 1.394 . S
C1404 C1403 1.396 . S
C1404 H1421 0.930 . S
C1405 C1402 1.383 . S
C1405 C1403 1.365 . S
C1405 H1422 0.931 . S
C1406 C1401 1.370 . S
C1406 C1402 1.395 . S
C1406 H1423 0.930 . S
C1407 Gd1354 2.805 . S
C1407 O1389 1.263 . S
C1407 O1390 1.252 . S
C1407 C1401 1.500 1_655 S
C1408 H1370 0.930 . S
C1408 C1384 1.417 . S
C1408 C1409 1.329 . S
C1409 C1379 1.437 1_455 S
C1409 H1380 0.929 . S
C1409 C1408 1.329 . S
H1410 C1383 0.931 . S
C1411 O1393 1.265 . S
C1411 O1394 1.242 . S
C1412 O1397 1.261 . S
C1412 O1398 1.252 . S
C1413 C1416 1.394 . S
C1413 C1418 1.370 . S
C1413 C1419 1.500 . S
C1414 C1417 1.383 . S
C1414 C1418 1.395 . S
C1415 C1416 1.396 . S
C1415 C1417 1.365 . S
C1415 H1424 0.929 . S
C1416 C1413 1.394 . S
C1416 C1415 1.396 . S
C1416 H1425 0.930 . S
C1417 C1414 1.383 . S
C1417 C1415 1.365 . S
C1417 H1426 0.931 . S
C1418 C1413 1.370 . S
C1418 C1414 1.395 . S
C1418 H1427 0.930 . S
C1419 Gd1355 2.805 . S
C1419 O1395 1.263 . S
C1419 O1396 1.252 . S
C1419 C1413 1.500 . S
H1420 C1403 0.929 . S
H1421 C1404 0.930 . S
H1422 C1405 0.931 . S
H1423 C1406 0.930 . S
H1424 C1415 0.929 . S
H1425 C1416 0.930 . S
H1426 C1417 0.931 . S
H1427 C1418 0.930 . S
C1428 C1430 1.422 . S
C1428 C1432 1.415 . S
C1428 N1434 1.369 . S
C1429 C1430 1.421 1_455 S
C1429 C1431 1.417 . S
C1429 C1441 1.422 . S
C1430 C1428 1.422 . S
C1430 C1429 1.421 1_655 S
C1430 N1440 1.359 . S
C1431 C1429 1.417 . S
C1431 C1433 1.329 . S
C1431 H1450 0.930 . S
C1432 C1428 1.415 . S
C1432 C1433 1.437 1_655 S
C1432 C1436 1.413 . S
C1433 C1431 1.329 . S
C1433 C1432 1.437 1_455 S
C1433 H1455 0.929 . S
N1434 C1428 1.369 . S
N1434 C1435 1.338 . S
N1434 Gd1439 2.622 . S
C1435 N1434 1.338 . S
C1435 C1437 1.378 . S
C1435 H1447 0.929 . S
C1436 C1432 1.413 . S
C1436 C1437 1.348 . S
C1436 H1452 0.931 . S
C1437 C1435 1.378 . S
C1437 C1436 1.348 . S
C1437 H1453 0.930 . S
Gd1438 N1458 2.622 . S
Gd1438 N1465 2.570 . S
Gd1438 O1472 2.353 . S
Gd1438 O1473 2.468 . S
Gd1438 O1474 2.427 . S
Gd1438 O1476 2.388 . S
Gd1438 O1477 2.386 . S
Gd1438 O1481 2.307 . S
Gd1438 C1491 2.805 . S
Gd1439 N1434 2.622 . S
Gd1439 N1440 2.570 . S
Gd1439 O1471 2.386 . S
Gd1439 O1475 2.307 . S
Gd1439 O1478 2.353 . S
Gd1439 O1479 2.468 . S
Gd1439 O1480 2.427 . S
Gd1439 O1482 2.388 . S
Gd1439 C1503 2.805 . S
N1440 C1430 1.359 . S
N1440 Gd1439 2.570 . S
N1440 C1442 1.343 . S
C1441 C1429 1.422 . S
C1441 C1443 1.321 1_455 S
C1441 H1449 0.931 . S
C1442 N1440 1.343 . S
C1442 C1443 1.390 . S
C1442 H1444 0.931 . S
C1443 C1441 1.321 1_655 S
C1443 C1442 1.390 . S
C1443 H1445 0.936 . S
H1444 C1442 0.931 . S
H1445 C1443 0.936 . S
H1446 C1469 0.931 . S
H1447 C1435 0.929 . S
H1448 C1470 0.930 . S
H1449 C1441 0.931 . S
H1450 C1431 0.930 . S
H1451 C1460 0.929 . S
H1452 C1436 0.931 . S
H1453 C1437 0.930 . S
H1454 C1492 0.930 . S
H1455 C1433 0.929 . S
H1456 C1461 0.931 . S
H1457 C1462 0.930 . S
N1458 Gd1438 2.622 . S
N1458 C1459 1.369 . S
N1458 C1460 1.338 . S
C1459 N1458 1.369 . S
C1459 C1463 1.415 . S
C1459 C1466 1.422 . S
C1460 H1451 0.929 . S
C1460 N1458 1.338 . S
C1460 C1462 1.378 . S
C1461 H1456 0.931 . S
C1461 C1462 1.348 . S
C1461 C1463 1.413 . S
C1462 H1457 0.930 . S
C1462 C1460 1.378 . S
C1462 C1461 1.348 . S
C1463 C1459 1.415 . S
C1463 C1461 1.413 . S
C1463 C1493 1.437 . S
H1464 C1493 0.929 . S
N1465 Gd1438 2.570 . S
N1465 C1466 1.359 . S
N1465 C1469 1.343 . S
C1466 C1459 1.422 . S
C1466 N1465 1.359 . S
C1466 C1468 1.421 . S
C1467 C1468 1.422 . S
C1467 C1470 1.321 . S
C1467 H1494 0.931 . S
C1468 C1466 1.421 . S
C1468 C1467 1.422 . S
C1468 C1492 1.417 . S
C1469 H1446 0.931 . S
C1469 N1465 1.343 . S
C1469 C1470 1.390 . S
C1470 H1448 0.930 . S
C1470 C1467 1.321 . S
C1470 C1469 1.390 . S
O1471 Gd1439 2.386 . S
O1471 C1483 1.265 . S
O1472 Gd1438 2.353 . S
O1472 C1483 1.242 . S
O1473 Gd1438 2.468 . S
O1473 C1491 1.263 . S
O1474 Gd1438 2.427 . S
O1474 C1491 1.252 . S
O1475 Gd1439 2.307 . S
O1475 C1484 1.261 . S
O1476 Gd1438 2.388 . S
O1476 C1484 1.252 . S
O1477 Gd1438 2.386 . S
O1477 C1495 1.265 . S
O1478 Gd1439 2.353 . S
O1478 C1495 1.242 . S
O1479 Gd1439 2.468 . S
O1479 C1503 1.263 . S
O1480 Gd1439 2.427 . S
O1480 C1503 1.252 . S
O1481 Gd1438 2.307 . S
O1481 C1496 1.261 . S
O1482 Gd1439 2.388 . S
O1482 C1496 1.252 . S
C1483 O1471 1.265 . S
C1483 O1472 1.242 . S
C1484 O1475 1.261 . S
C1484 O1476 1.252 . S
C1485 C1488 1.394 . S
C1485 C1490 1.370 . S
C1485 C1491 1.500 . S
C1486 C1489 1.383 . S
C1486 C1490 1.395 . S
C1487 C1488 1.396 . S
C1487 C1489 1.365 . S
C1487 H1504 0.929 . S
C1488 C1485 1.394 . S
C1488 C1487 1.396 . S
C1488 H1505 0.930 . S
C1489 C1486 1.383 . S
C1489 C1487 1.365 . S
C1489 H1506 0.931 . S
C1490 C1485 1.370 . S
C1490 C1486 1.395 . S
C1490 H1507 0.930 . S
C1491 Gd1438 2.805 . S
C1491 O1473 1.263 . S
C1491 O1474 1.252 . S
C1491 C1485 1.500 . S
C1492 H1454 0.930 . S
C1492 C1468 1.417 . S
C1492 C1493 1.329 . S
C1493 C1463 1.437 . S
C1493 H1464 0.929 . S
C1493 C1492 1.329 . S
H1494 C1467 0.931 . S
C1495 O1477 1.265 . S
C1495 O1478 1.242 . S
C1496 O1481 1.261 . S
C1496 O1482 1.252 . S
C1497 C1500 1.394 . S
C1497 C1502 1.370 . S
C1497 C1503 1.500 . S
C1498 C1501 1.383 . S
C1498 C1502 1.395 . S
C1499 C1500 1.396 . S
C1499 C1501 1.365 . S
C1499 H1508 0.929 . S
C1500 C1497 1.394 . S
C1500 C1499 1.396 . S
C1500 H1509 0.930 . S
C1501 C1498 1.383 . S
C1501 C1499 1.365 . S
C1501 H1510 0.931 . S
C1502 C1497 1.370 . S
C1502 C1498 1.395 . S
C1502 H1511 0.930 . S
C1503 Gd1439 2.805 . S
C1503 O1479 1.263 . S
C1503 O1480 1.252 . S
C1503 C1497 1.500 . S
H1504 C1487 0.929 . S
H1505 C1488 0.930 . S
H1506 C1489 0.931 . S
H1507 C1490 0.930 . S
H1508 C1499 0.929 . S
H1509 C1500 0.930 . S
H1510 C1501 0.931 . S
H1511 C1502 0.930 . S
C1512 C1513 1.391 . S
C1512 C1514 1.394 . S
C1512 H1528 0.931 . S
C1513 C1512 1.391 . S
C1513 C1517 1.376 . S
C1514 C1512 1.394 . S
C1514 C1515 1.369 . S
C1514 C1518 1.531 . S
C1515 C1514 1.369 . S
C1515 C1516 1.410 . S
C1515 C1523 1.503 . S
C1516 C1515 1.410 . S
C1516 C1517 1.392 . S
C1516 C1519 1.511 . S
C1517 C1513 1.376 . S
C1517 C1516 1.392 . S
C1517 H1529 0.929 . S
C1518 C1514 1.531 . S
C1518 H1530 0.960 . S
C1518 H1531 0.962 . S
C1518 H1532 0.960 . S
C1519 C1516 1.511 . S
C1519 H1533 0.961 . S
C1519 H1534 0.961 . S
C1519 H1535 0.961 . S
C1520 C1521 1.370 . S
C1520 C1522 1.363 . S
C1520 H1536 0.931 . S
C1521 C1520 1.370 . S
C1521 C1525 1.408 . S
C1522 C1520 1.363 . S
C1522 C1523 1.370 . S
C1522 C1526 1.524 . S
C1523 C1515 1.503 . S
C1523 C1522 1.370 . S
C1523 C1524 1.403 . S
C1524 C1523 1.403 . S
C1524 C1525 1.404 . S
C1524 C1527 1.539 . S
C1525 C1521 1.408 . S
C1525 C1524 1.404 . S
C1525 H1537 0.930 . S
C1526 C1522 1.524 . S
C1526 H1538 0.956 . S
C1526 H1539 0.961 . S
C1526 H1540 0.961 . S
C1527 C1524 1.539 . S
C1527 H1541 0.958 . S
C1527 H1542 0.961 . S
C1527 H1543 0.960 . S
H1528 C1512 0.931 . S
H1529 C1517 0.929 . S
H1530 C1518 0.960 . S
H1531 C1518 0.962 . S
H1532 C1518 0.960 . S
H1533 C1519 0.961 . S
H1534 C1519 0.961 . S
H1535 C1519 0.961 . S
H1536 C1520 0.931 . S
H1537 C1525 0.930 . S
H1538 C1526 0.956 . S
H1539 C1526 0.961 . S
H1540 C1526 0.961 . S
H1541 C1527 0.958 . S
H1542 C1527 0.961 . S
H1543 C1527 0.960 . S
C1544 C1545 1.391 . S
C1544 C1546 1.394 . S
C1544 H1560 0.931 . S
C1545 C1544 1.391 . S
C1545 C1549 1.376 . S
C1546 C1544 1.394 . S
C1546 C1547 1.369 . S
C1546 C1550 1.531 . S
C1547 C1546 1.369 . S
C1547 C1548 1.410 . S
C1547 C1555 1.503 . S
C1548 C1547 1.410 . S
C1548 C1549 1.392 . S
C1548 C1551 1.511 . S
C1549 C1545 1.376 . S
C1549 C1548 1.392 . S
C1549 H1561 0.929 . S
C1550 C1546 1.531 . S
C1550 H1562 0.960 . S
C1550 H1563 0.962 . S
C1550 H1564 0.960 . S
C1551 C1548 1.511 . S
C1551 H1565 0.961 . S
C1551 H1566 0.961 . S
C1551 H1567 0.961 . S
C1552 C1553 1.370 . S
C1552 C1554 1.363 . S
C1552 H1568 0.931 . S
C1553 C1552 1.370 . S
C1553 C1557 1.408 . S
C1554 C1552 1.363 . S
C1554 C1555 1.370 . S
C1554 C1558 1.524 . S
C1555 C1547 1.503 . S
C1555 C1554 1.370 . S
C1555 C1556 1.403 . S
C1556 C1555 1.403 . S
C1556 C1557 1.404 . S
C1556 C1559 1.539 . S
C1557 C1553 1.408 . S
C1557 C1556 1.404 . S
C1557 H1569 0.930 . S
C1558 C1554 1.524 . S
C1558 H1570 0.956 . S
C1558 H1571 0.961 . S
C1558 H1572 0.961 . S
C1559 C1556 1.539 . S
C1559 H1573 0.958 . S
C1559 H1574 0.961 . S
C1559 H1575 0.960 . S
H1560 C1544 0.931 . S
H1561 C1549 0.929 . S
H1562 C1550 0.960 . S
H1563 C1550 0.962 . S
H1564 C1550 0.960 . S
H1565 C1551 0.961 . S
H1566 C1551 0.961 . S
H1567 C1551 0.961 . S
H1568 C1552 0.931 . S
H1569 C1557 0.930 . S
H1570 C1558 0.956 . S
H1571 C1558 0.961 . S
H1572 C1558 0.961 . S
H1573 C1559 0.958 . S
H1574 C1559 0.961 . S
H1575 C1559 0.960 . S
C1576 C1577 1.391 . S
C1576 C1578 1.394 . S
C1576 H1592 0.931 . S
C1577 C1576 1.391 . S
C1577 C1581 1.376 . S
C1578 C1576 1.394 . S
C1578 C1579 1.369 . S
C1578 C1582 1.531 . S
C1579 C1578 1.369 . S
C1579 C1580 1.410 . S
C1579 C1587 1.503 . S
C1580 C1579 1.410 . S
C1580 C1581 1.392 . S
C1580 C1583 1.511 . S
C1581 C1577 1.376 . S
C1581 C1580 1.392 . S
C1581 H1593 0.929 . S
C1582 C1578 1.531 . S
C1582 H1594 0.960 . S
C1582 H1595 0.962 . S
C1582 H1596 0.960 . S
C1583 C1580 1.511 . S
C1583 H1597 0.961 . S
C1583 H1598 0.961 . S
C1583 H1599 0.961 . S
C1584 C1585 1.370 . S
C1584 C1586 1.363 . S
C1584 H1600 0.931 . S
C1585 C1584 1.370 . S
C1585 C1589 1.408 . S
C1586 C1584 1.363 . S
C1586 C1587 1.370 . S
C1586 C1590 1.524 . S
C1587 C1579 1.503 . S
C1587 C1586 1.370 . S
C1587 C1588 1.403 . S
C1588 C1587 1.403 . S
C1588 C1589 1.404 . S
C1588 C1591 1.539 . S
C1589 C1585 1.408 . S
C1589 C1588 1.404 . S
C1589 H1601 0.930 . S
C1590 C1586 1.524 . S
C1590 H1602 0.956 . S
C1590 H1603 0.961 . S
C1590 H1604 0.961 . S
C1591 C1588 1.539 . S
C1591 H1605 0.958 . S
C1591 H1606 0.961 . S
C1591 H1607 0.960 . S
H1592 C1576 0.931 . S
H1593 C1581 0.929 . S
H1594 C1582 0.960 . S
H1595 C1582 0.962 . S
H1596 C1582 0.960 . S
H1597 C1583 0.961 . S
H1598 C1583 0.961 . S
H1599 C1583 0.961 . S
H1600 C1584 0.931 . S
H1601 C1589 0.930 . S
H1602 C1590 0.956 . S
H1603 C1590 0.961 . S
H1604 C1590 0.961 . S
H1605 C1591 0.958 . S
H1606 C1591 0.961 . S
H1607 C1591 0.960 . S
C1608 C1609 1.391 . S
C1608 C1610 1.394 . S
C1608 H1624 0.931 . S
C1609 C1608 1.391 . S
C1609 C1613 1.376 . S
C1610 C1608 1.394 . S
C1610 C1611 1.369 . S
C1610 C1614 1.531 . S
C1611 C1610 1.369 . S
C1611 C1612 1.410 . S
C1611 C1619 1.503 . S
C1612 C1611 1.410 . S
C1612 C1613 1.392 . S
C1612 C1615 1.511 . S
C1613 C1609 1.376 . S
C1613 C1612 1.392 . S
C1613 H1625 0.929 . S
C1614 C1610 1.531 . S
C1614 H1626 0.960 . S
C1614 H1627 0.962 . S
C1614 H1628 0.960 . S
C1615 C1612 1.511 . S
C1615 H1629 0.961 . S
C1615 H1630 0.961 . S
C1615 H1631 0.961 . S
C1616 C1617 1.370 . S
C1616 C1618 1.363 . S
C1616 H1632 0.931 . S
C1617 C1616 1.370 . S
C1617 C1621 1.408 . S
C1618 C1616 1.363 . S
C1618 C1619 1.370 . S
C1618 C1622 1.524 . S
C1619 C1611 1.503 . S
C1619 C1618 1.370 . S
C1619 C1620 1.403 . S
C1620 C1619 1.403 . S
C1620 C1621 1.404 . S
C1620 C1623 1.539 . S
C1621 C1617 1.408 . S
C1621 C1620 1.404 . S
C1621 H1633 0.930 . S
C1622 C1618 1.524 . S
C1622 H1634 0.956 . S
C1622 H1635 0.961 . S
C1622 H1636 0.961 . S
C1623 C1620 1.539 . S
C1623 H1637 0.958 . S
C1623 H1638 0.961 . S
C1623 H1639 0.960 . S
H1624 C1608 0.931 . S
H1625 C1613 0.929 . S
H1626 C1614 0.960 . S
H1627 C1614 0.962 . S
H1628 C1614 0.960 . S
H1629 C1615 0.961 . S
H1630 C1615 0.961 . S
H1631 C1615 0.961 . S
H1632 C1616 0.931 . S
H1633 C1621 0.930 . S
H1634 C1622 0.956 . S
H1635 C1622 0.961 . S
H1636 C1622 0.961 . S
H1637 C1623 0.958 . S
H1638 C1623 0.961 . S
H1639 C1623 0.960 . S
C1640 C1641 1.391 . S
C1640 C1642 1.394 . S
C1640 H1656 0.931 . S
C1641 C1640 1.391 . S
C1641 C1645 1.376 . S
C1642 C1640 1.394 . S
C1642 C1643 1.369 . S
C1642 C1646 1.531 . S
C1643 C1642 1.369 . S
C1643 C1644 1.410 . S
C1643 C1651 1.503 . S
C1644 C1643 1.410 . S
C1644 C1645 1.392 . S
C1644 C1647 1.511 . S
C1645 C1641 1.376 . S
C1645 C1644 1.392 . S
C1645 H1657 0.929 . S
C1646 C1642 1.531 . S
C1646 H1658 0.960 . S
C1646 H1659 0.962 . S
C1646 H1660 0.960 . S
C1647 C1644 1.511 . S
C1647 H1661 0.961 . S
C1647 H1662 0.961 . S
C1647 H1663 0.961 . S
C1648 C1649 1.370 . S
C1648 C1650 1.363 . S
C1648 H1664 0.931 . S
C1649 C1648 1.370 . S
C1649 C1653 1.408 . S
C1650 C1648 1.363 . S
C1650 C1651 1.370 . S
C1650 C1654 1.524 . S
C1651 C1643 1.503 . S
C1651 C1650 1.370 . S
C1651 C1652 1.403 . S
C1652 C1651 1.403 . S
C1652 C1653 1.404 . S
C1652 C1655 1.539 . S
C1653 C1649 1.408 . S
C1653 C1652 1.404 . S
C1653 H1665 0.930 . S
C1654 C1650 1.524 . S
C1654 H1666 0.956 . S
C1654 H1667 0.961 . S
C1654 H1668 0.961 . S
C1655 C1652 1.539 . S
C1655 H1669 0.958 . S
C1655 H1670 0.961 . S
C1655 H1671 0.960 . S
H1656 C1640 0.931 . S
H1657 C1645 0.929 . S
H1658 C1646 0.960 . S
H1659 C1646 0.962 . S
H1660 C1646 0.960 . S
H1661 C1647 0.961 . S
H1662 C1647 0.961 . S
H1663 C1647 0.961 . S
H1664 C1648 0.931 . S
H1665 C1653 0.930 . S
H1666 C1654 0.956 . S
H1667 C1654 0.961 . S
H1668 C1654 0.961 . S
H1669 C1655 0.958 . S
H1670 C1655 0.961 . S
H1671 C1655 0.960 . S
C1672 C1673 1.391 . S
C1672 C1674 1.394 . S
C1672 H1688 0.931 . S
C1673 C1672 1.391 . S
C1673 C1677 1.376 . S
C1674 C1672 1.394 . S
C1674 C1675 1.369 . S
C1674 C1678 1.531 . S
C1675 C1674 1.369 . S
C1675 C1676 1.410 . S
C1675 C1683 1.503 . S
C1676 C1675 1.410 . S
C1676 C1677 1.392 . S
C1676 C1679 1.511 . S
C1677 C1673 1.376 . S
C1677 C1676 1.392 . S
C1677 H1689 0.929 . S
C1678 C1674 1.531 . S
C1678 H1690 0.960 . S
C1678 H1691 0.962 . S
C1678 H1692 0.960 . S
C1679 C1676 1.511 . S
C1679 H1693 0.961 . S
C1679 H1694 0.961 . S
C1679 H1695 0.961 . S
C1680 C1681 1.370 . S
C1680 C1682 1.363 . S
C1680 H1696 0.931 . S
C1681 C1680 1.370 . S
C1681 C1685 1.408 . S
C1682 C1680 1.363 . S
C1682 C1683 1.370 . S
C1682 C1686 1.524 . S
C1683 C1675 1.503 . S
C1683 C1682 1.370 . S
C1683 C1684 1.403 . S
C1684 C1683 1.403 . S
C1684 C1685 1.404 . S
C1684 C1687 1.539 . S
C1685 C1681 1.408 . S
C1685 C1684 1.404 . S
C1685 H1697 0.930 . S
C1686 C1682 1.524 . S
C1686 H1698 0.956 . S
C1686 H1699 0.961 . S
C1686 H1700 0.961 . S
C1687 C1684 1.539 . S
C1687 H1701 0.958 . S
C1687 H1702 0.961 . S
C1687 H1703 0.960 . S
H1688 C1672 0.931 . S
H1689 C1677 0.929 . S
H1690 C1678 0.960 . S
H1691 C1678 0.962 . S
H1692 C1678 0.960 . S
H1693 C1679 0.961 . S
H1694 C1679 0.961 . S
H1695 C1679 0.961 . S
H1696 C1680 0.931 . S
H1697 C1685 0.930 . S
H1698 C1686 0.956 . S
H1699 C1686 0.961 . S
H1700 C1686 0.961 . S
H1701 C1687 0.958 . S
H1702 C1687 0.961 . S
H1703 C1687 0.960 . S
C1704 C1705 1.391 . S
C1704 C1706 1.394 . S
C1704 H1720 0.931 . S
C1705 C1704 1.391 . S
C1705 C1709 1.376 . S
C1706 C1704 1.394 . S
C1706 C1707 1.369 . S
C1706 C1710 1.531 . S
C1707 C1706 1.369 . S
C1707 C1708 1.410 . S
C1707 C1715 1.503 . S
C1708 C1707 1.410 . S
C1708 C1709 1.392 . S
C1708 C1711 1.511 . S
C1709 C1705 1.376 . S
C1709 C1708 1.392 . S
C1709 H1721 0.929 . S
C1710 C1706 1.531 . S
C1710 H1722 0.960 . S
C1710 H1723 0.962 . S
C1710 H1724 0.960 . S
C1711 C1708 1.511 . S
C1711 H1725 0.961 . S
C1711 H1726 0.961 . S
C1711 H1727 0.961 . S
C1712 C1713 1.370 . S
C1712 C1714 1.363 . S
C1712 H1728 0.931 . S
C1713 C1712 1.370 . S
C1713 C1717 1.408 . S
C1714 C1712 1.363 . S
C1714 C1715 1.370 . S
C1714 C1718 1.524 . S
C1715 C1707 1.503 . S
C1715 C1714 1.370 . S
C1715 C1716 1.403 . S
C1716 C1715 1.403 . S
C1716 C1717 1.404 . S
C1716 C1719 1.539 . S
C1717 C1713 1.408 . S
C1717 C1716 1.404 . S
C1717 H1729 0.930 . S
C1718 C1714 1.524 . S
C1718 H1730 0.956 . S
C1718 H1731 0.961 . S
C1718 H1732 0.961 . S
C1719 C1716 1.539 . S
C1719 H1733 0.958 . S
C1719 H1734 0.961 . S
C1719 H1735 0.960 . S
H1720 C1704 0.931 . S
H1721 C1709 0.929 . S
H1722 C1710 0.960 . S
H1723 C1710 0.962 . S
H1724 C1710 0.960 . S
H1725 C1711 0.961 . S
H1726 C1711 0.961 . S
H1727 C1711 0.961 . S
H1728 C1712 0.931 . S
H1729 C1717 0.930 . S
H1730 C1718 0.956 . S
H1731 C1718 0.961 . S
H1732 C1718 0.961 . S
H1733 C1719 0.958 . S
H1734 C1719 0.961 . S
H1735 C1719 0.960 . S
C1736 C1737 1.391 . S
C1736 C1738 1.394 . S
C1736 H1752 0.931 . S
C1737 C1736 1.391 . S
C1737 C1741 1.376 . S
C1738 C1736 1.394 . S
C1738 C1739 1.369 . S
C1738 C1742 1.531 . S
C1739 C1738 1.369 . S
C1739 C1740 1.410 . S
C1739 C1747 1.503 . S
C1740 C1739 1.410 . S
C1740 C1741 1.392 . S
C1740 C1743 1.511 . S
C1741 C1737 1.376 . S
C1741 C1740 1.392 . S
C1741 H1753 0.929 . S
C1742 C1738 1.531 . S
C1742 H1754 0.960 . S
C1742 H1755 0.962 . S
C1742 H1756 0.960 . S
C1743 C1740 1.511 . S
C1743 H1757 0.961 . S
C1743 H1758 0.961 . S
C1743 H1759 0.961 . S
C1744 C1745 1.370 . S
C1744 C1746 1.363 . S
C1744 H1760 0.931 . S
C1745 C1744 1.370 . S
C1745 C1749 1.408 . S
C1746 C1744 1.363 . S
C1746 C1747 1.370 1_565 S
C1746 C1750 1.524 1_565 S
C1747 C1739 1.503 . S
C1747 C1746 1.370 1_545 S
C1747 C1748 1.403 . S
C1748 C1747 1.403 . S
C1748 C1749 1.404 1_545 S
C1748 C1751 1.539 . S
C1749 C1745 1.408 . S
C1749 C1748 1.404 1_565 S
C1749 H1761 0.930 . S
C1750 C1746 1.524 1_545 S
C1750 H1762 0.956 . S
C1750 H1763 0.961 . S
C1750 H1764 0.961 1_545 S
C1751 C1748 1.539 . S
C1751 H1765 0.958 . S
C1751 H1766 0.961 . S
C1751 H1767 0.960 . S
H1752 C1736 0.931 . S
H1753 C1741 0.929 . S
H1754 C1742 0.960 . S
H1755 C1742 0.962 . S
H1756 C1742 0.960 . S
H1757 C1743 0.961 . S
H1758 C1743 0.961 . S
H1759 C1743 0.961 . S
H1760 C1744 0.931 . S
H1761 C1749 0.930 . S
H1762 C1750 0.956 . S
H1763 C1750 0.961 . S
H1764 C1750 0.961 1_565 S
H1765 C1751 0.958 . S
H1766 C1751 0.961 . S
H1767 C1751 0.960 . S
C1768 C1769 1.391 . S
C1768 C1770 1.394 . S
C1768 H1784 0.931 . S
C1769 C1768 1.391 . S
C1769 C1773 1.376 . S
C1770 C1768 1.394 . S
C1770 C1771 1.369 . S
C1770 C1774 1.531 . S
C1771 C1770 1.369 . S
C1771 C1772 1.410 . S
C1771 C1779 1.503 1_455 S
C1772 C1771 1.410 . S
C1772 C1773 1.392 . S
C1772 C1775 1.511 . S
C1773 C1769 1.376 . S
C1773 C1772 1.392 . S
C1773 H1785 0.929 . S
C1774 C1770 1.531 . S
C1774 H1786 0.960 1_455 S
C1774 H1787 0.962 . S
C1774 H1788 0.960 . S
C1775 C1772 1.511 . S
C1775 H1789 0.961 . S
C1775 H1790 0.961 . S
C1775 H1791 0.961 . S
C1776 C1777 1.370 . S
C1776 C1778 1.363 . S
C1776 H1792 0.931 . S
C1777 C1776 1.370 . S
C1777 C1781 1.408 . S
C1778 C1776 1.363 . S
C1778 C1779 1.370 . S
C1778 C1782 1.524 1_655 S
C1779 C1771 1.503 1_655 S
C1779 C1778 1.370 . S
C1779 C1780 1.403 . S
C1780 C1779 1.403 . S
C1780 C1781 1.404 . S
C1780 C1783 1.539 . S
C1781 C1777 1.408 . S
C1781 C1780 1.404 . S
C1781 H1793 0.930 . S
C1782 C1778 1.524 1_455 S
C1782 H1794 0.956 . S
C1782 H1795 0.961 . S
C1782 H1796 0.961 . S
C1783 C1780 1.539 . S
C1783 H1797 0.958 . S
C1783 H1798 0.961 . S
C1783 H1799 0.960 . S
H1784 C1768 0.931 . S
H1785 C1773 0.929 . S
H1786 C1774 0.960 1_655 S
H1787 C1774 0.962 . S
H1788 C1774 0.960 . S
H1789 C1775 0.961 . S
H1790 C1775 0.961 . S
H1791 C1775 0.961 . S
H1792 C1776 0.931 . S
H1793 C1781 0.930 . S
H1794 C1782 0.956 . S
H1795 C1782 0.961 . S
H1796 C1782 0.961 . S
H1797 C1783 0.958 . S
H1798 C1783 0.961 . S
H1799 C1783 0.960 . S
C1800 C1801 1.391 . S
C1800 C1802 1.394 . S
C1800 H1816 0.931 . S
C1801 C1800 1.391 . S
C1801 C1805 1.376 . S
C1802 C1800 1.394 . S
C1802 C1803 1.369 . S
C1802 C1806 1.531 . S
C1803 C1802 1.369 . S
C1803 C1804 1.410 . S
C1803 C1811 1.503 . S
C1804 C1803 1.410 . S
C1804 C1805 1.392 . S
C1804 C1807 1.511 . S
C1805 C1801 1.376 . S
C1805 C1804 1.392 . S
C1805 H1817 0.929 . S
C1806 C1802 1.531 . S
C1806 H1818 0.960 . S
C1806 H1819 0.962 . S
C1806 H1820 0.960 . S
C1807 C1804 1.511 . S
C1807 H1821 0.961 . S
C1807 H1822 0.961 . S
C1807 H1823 0.961 . S
C1808 C1809 1.370 . S
C1808 C1810 1.363 . S
C1808 H1824 0.931 . S
C1809 C1808 1.370 . S
C1809 C1813 1.408 . S
C1810 C1808 1.363 . S
C1810 C1811 1.370 . S
C1810 C1814 1.524 . S
C1811 C1803 1.503 . S
C1811 C1810 1.370 . S
C1811 C1812 1.403 . S
C1812 C1811 1.403 . S
C1812 C1813 1.404 . S
C1812 C1815 1.539 . S
C1813 C1809 1.408 . S
C1813 C1812 1.404 . S
C1813 H1825 0.930 . S
C1814 C1810 1.524 . S
C1814 H1826 0.956 . S
C1814 H1827 0.961 . S
C1814 H1828 0.961 . S
C1815 C1812 1.539 . S
C1815 H1829 0.958 . S
C1815 H1830 0.961 . S
C1815 H1831 0.960 . S
H1816 C1800 0.931 . S
H1817 C1805 0.929 . S
H1818 C1806 0.960 . S
H1819 C1806 0.962 . S
H1820 C1806 0.960 . S
H1821 C1807 0.961 . S
H1822 C1807 0.961 . S
H1823 C1807 0.961 . S
H1824 C1808 0.931 . S
H1825 C1813 0.930 . S
H1826 C1814 0.956 . S
H1827 C1814 0.961 . S
H1828 C1814 0.961 . S
H1829 C1815 0.958 . S
H1830 C1815 0.961 . S
H1831 C1815 0.960 . S
C1832 C1833 1.391 . S
C1832 C1834 1.394 . S
C1832 H1848 0.931 . S
C1833 C1832 1.391 . S
C1833 C1837 1.376 . S
C1834 C1832 1.394 . S
C1834 C1835 1.369 . S
C1834 C1838 1.531 . S
C1835 C1834 1.369 . S
C1835 C1836 1.410 . S
C1835 C1843 1.503 . S
C1836 C1835 1.410 . S
C1836 C1837 1.392 . S
C1836 C1839 1.511 . S
C1837 C1833 1.376 . S
C1837 C1836 1.392 . S
C1837 H1849 0.929 . S
C1838 C1834 1.531 . S
C1838 H1850 0.960 . S
C1838 H1851 0.962 . S
C1838 H1852 0.960 . S
C1839 C1836 1.511 . S
C1839 H1853 0.961 . S
C1839 H1854 0.961 . S
C1839 H1855 0.961 . S
C1840 C1841 1.370 . S
C1840 C1842 1.363 . S
C1840 H1856 0.931 . S
C1841 C1840 1.370 . S
C1841 C1845 1.408 . S
C1842 C1840 1.363 . S
C1842 C1843 1.370 . S
C1842 C1846 1.524 . S
C1843 C1835 1.503 . S
C1843 C1842 1.370 . S
C1843 C1844 1.403 . S
C1844 C1843 1.403 . S
C1844 C1845 1.404 . S
C1844 C1847 1.539 . S
C1845 C1841 1.408 . S
C1845 C1844 1.404 . S
C1845 H1857 0.930 . S
C1846 C1842 1.524 . S
C1846 H1858 0.956 . S
C1846 H1859 0.961 . S
C1846 H1860 0.961 . S
C1847 C1844 1.539 . S
C1847 H1861 0.958 . S
C1847 H1862 0.961 . S
C1847 H1863 0.960 . S
H1848 C1832 0.931 . S
H1849 C1837 0.929 . S
H1850 C1838 0.960 . S
H1851 C1838 0.962 . S
H1852 C1838 0.960 . S
H1853 C1839 0.961 . S
H1854 C1839 0.961 . S
H1855 C1839 0.961 . S
H1856 C1840 0.931 . S
H1857 C1845 0.930 . S
H1858 C1846 0.956 . S
H1859 C1846 0.961 . S
H1860 C1846 0.961 . S
H1861 C1847 0.958 . S
H1862 C1847 0.961 . S
H1863 C1847 0.960 . S
C1864 C1865 1.391 . S
C1864 C1866 1.394 . S
C1864 H1880 0.931 . S
C1865 C1864 1.391 . S
C1865 C1869 1.376 . S
C1866 C1864 1.394 . S
C1866 C1867 1.369 . S
C1866 C1870 1.531 . S
C1867 C1866 1.369 . S
C1867 C1868 1.410 . S
C1867 C1875 1.503 . S
C1868 C1867 1.410 . S
C1868 C1869 1.392 . S
C1868 C1871 1.511 . S
C1869 C1865 1.376 . S
C1869 C1868 1.392 . S
C1869 H1881 0.929 . S
C1870 C1866 1.531 . S
C1870 H1882 0.960 . S
C1870 H1883 0.962 . S
C1870 H1884 0.960 . S
C1871 C1868 1.511 . S
C1871 H1885 0.961 . S
C1871 H1886 0.961 . S
C1871 H1887 0.961 . S
C1872 C1873 1.370 . S
C1872 C1874 1.363 . S
C1872 H1888 0.931 . S
C1873 C1872 1.370 . S
C1873 C1877 1.408 . S
C1874 C1872 1.363 . S
C1874 C1875 1.370 . S
C1874 C1878 1.524 . S
C1875 C1867 1.503 . S
C1875 C1874 1.370 . S
C1875 C1876 1.403 . S
C1876 C1875 1.403 . S
C1876 C1877 1.404 . S
C1876 C1879 1.539 . S
C1877 C1873 1.408 . S
C1877 C1876 1.404 . S
C1877 H1889 0.930 . S
C1878 C1874 1.524 . S
C1878 H1890 0.956 . S
C1878 H1891 0.961 . S
C1878 H1892 0.961 . S
C1879 C1876 1.539 . S
C1879 H1893 0.958 . S
C1879 H1894 0.961 . S
C1879 H1895 0.960 . S
H1880 C1864 0.931 . S
H1881 C1869 0.929 . S
H1882 C1870 0.960 . S
H1883 C1870 0.962 . S
H1884 C1870 0.960 . S
H1885 C1871 0.961 . S
H1886 C1871 0.961 . S
H1887 C1871 0.961 . S
H1888 C1872 0.931 . S
H1889 C1877 0.930 . S
H1890 C1878 0.956 . S
H1891 C1878 0.961 . S
H1892 C1878 0.961 . S
H1893 C1879 0.958 . S
H1894 C1879 0.961 . S
H1895 C1879 0.960 . S
C1896 C1897 1.391 . S
C1896 C1898 1.394 . S
C1896 H1912 0.931 . S
C1897 C1896 1.391 . S
C1897 C1901 1.376 . S
C1898 C1896 1.394 . S
C1898 C1899 1.369 . S
C1898 C1902 1.531 . S
C1899 C1898 1.369 . S
C1899 C1900 1.410 . S
C1899 C1907 1.503 . S
C1900 C1899 1.410 . S
C1900 C1901 1.392 . S
C1900 C1903 1.511 . S
C1901 C1897 1.376 . S
C1901 C1900 1.392 . S
C1901 H1913 0.929 . S
C1902 C1898 1.531 . S
C1902 H1914 0.960 . S
C1902 H1915 0.962 . S
C1902 H1916 0.960 . S
C1903 C1900 1.511 . S
C1903 H1917 0.961 . S
C1903 H1918 0.961 . S
C1903 H1919 0.961 . S
C1904 C1905 1.370 . S
C1904 C1906 1.363 . S
C1904 H1920 0.931 . S
C1905 C1904 1.370 . S
C1905 C1909 1.408 . S
C1906 C1904 1.363 . S
C1906 C1907 1.370 . S
C1906 C1910 1.524 . S
C1907 C1899 1.503 . S
C1907 C1906 1.370 . S
C1907 C1908 1.403 . S
C1908 C1907 1.403 . S
C1908 C1909 1.404 . S
C1908 C1911 1.539 . S
C1909 C1905 1.408 . S
C1909 C1908 1.404 . S
C1909 H1921 0.930 . S
C1910 C1906 1.524 . S
C1910 H1922 0.956 . S
C1910 H1923 0.961 . S
C1910 H1924 0.961 . S
C1911 C1908 1.539 . S
C1911 H1925 0.958 . S
C1911 H1926 0.961 . S
C1911 H1927 0.960 . S
H1912 C1896 0.931 . S
H1913 C1901 0.929 . S
H1914 C1902 0.960 . S
H1915 C1902 0.962 . S
H1916 C1902 0.960 . S
H1917 C1903 0.961 . S
H1918 C1903 0.961 . S
H1919 C1903 0.961 . S
H1920 C1904 0.931 . S
H1921 C1909 0.930 . S
H1922 C1910 0.956 . S
H1923 C1910 0.961 . S
H1924 C1910 0.961 . S
H1925 C1911 0.958 . S
H1926 C1911 0.961 . S
H1927 C1911 0.960 . S
C1928 C1929 1.391 . S
C1928 C1930 1.394 . S
C1928 H1944 0.931 . S
C1929 C1928 1.391 . S
C1929 C1933 1.376 . S
C1930 C1928 1.394 . S
C1930 C1931 1.369 . S
C1930 C1934 1.531 . S
C1931 C1930 1.369 . S
C1931 C1932 1.410 . S
C1931 C1939 1.503 . S
C1932 C1931 1.410 . S
C1932 C1933 1.392 . S
C1932 C1935 1.511 . S
C1933 C1929 1.376 . S
C1933 C1932 1.392 . S
C1933 H1945 0.929 . S
C1934 C1930 1.531 . S
C1934 H1946 0.960 . S
C1934 H1947 0.962 . S
C1934 H1948 0.960 . S
C1935 C1932 1.511 . S
C1935 H1949 0.961 . S
C1935 H1950 0.961 . S
C1935 H1951 0.961 . S
C1936 C1937 1.370 . S
C1936 C1938 1.363 . S
C1936 H1952 0.931 . S
C1937 C1936 1.370 . S
C1937 C1941 1.408 . S
C1938 C1936 1.363 . S
C1938 C1939 1.370 . S
C1938 C1942 1.524 . S
C1939 C1931 1.503 . S
C1939 C1938 1.370 . S
C1939 C1940 1.403 . S
C1940 C1939 1.403 . S
C1940 C1941 1.404 . S
C1940 C1943 1.539 . S
C1941 C1937 1.408 . S
C1941 C1940 1.404 . S
C1941 H1953 0.930 . S
C1942 C1938 1.524 . S
C1942 H1954 0.956 . S
C1942 H1955 0.961 . S
C1942 H1956 0.961 . S
C1943 C1940 1.539 . S
C1943 H1957 0.958 . S
C1943 H1958 0.961 . S
C1943 H1959 0.960 . S
H1944 C1928 0.931 . S
H1945 C1933 0.929 . S
H1946 C1934 0.960 . S
H1947 C1934 0.962 . S
H1948 C1934 0.960 . S
H1949 C1935 0.961 . S
H1950 C1935 0.961 . S
H1951 C1935 0.961 . S
H1952 C1936 0.931 . S
H1953 C1941 0.930 . S
H1954 C1942 0.956 . S
H1955 C1942 0.961 . S
H1956 C1942 0.961 . S
H1957 C1943 0.958 . S
H1958 C1943 0.961 . S
H1959 C1943 0.960 . S
C1960 C1961 1.391 . S
C1960 C1962 1.394 . S
C1960 H1976 0.931 . S
C1961 C1960 1.391 . S
C1961 C1965 1.376 . S
C1962 C1960 1.394 . S
C1962 C1963 1.369 . S
C1962 C1966 1.531 . S
C1963 C1962 1.369 . S
C1963 C1964 1.410 . S
C1963 C1971 1.503 . S
C1964 C1963 1.410 . S
C1964 C1965 1.392 . S
C1964 C1967 1.511 . S
C1965 C1961 1.376 . S
C1965 C1964 1.392 . S
C1965 H1977 0.929 . S
C1966 C1962 1.531 . S
C1966 H1978 0.960 . S
C1966 H1979 0.962 . S
C1966 H1980 0.960 . S
C1967 C1964 1.511 . S
C1967 H1981 0.961 . S
C1967 H1982 0.961 . S
C1967 H1983 0.961 . S
C1968 C1969 1.370 . S
C1968 C1970 1.363 . S
C1968 H1984 0.931 . S
C1969 C1968 1.370 . S
C1969 C1973 1.408 . S
C1970 C1968 1.363 . S
C1970 C1971 1.370 . S
C1970 C1974 1.524 . S
C1971 C1963 1.503 . S
C1971 C1970 1.370 . S
C1971 C1972 1.403 . S
C1972 C1971 1.403 . S
C1972 C1973 1.404 . S
C1972 C1975 1.539 . S
C1973 C1969 1.408 . S
C1973 C1972 1.404 . S
C1973 H1985 0.930 . S
C1974 C1970 1.524 . S
C1974 H1986 0.956 . S
C1974 H1987 0.961 . S
C1974 H1988 0.961 . S
C1975 C1972 1.539 . S
C1975 H1989 0.958 . S
C1975 H1990 0.961 . S
C1975 H1991 0.960 . S
H1976 C1960 0.931 . S
H1977 C1965 0.929 . S
H1978 C1966 0.960 . S
H1979 C1966 0.962 . S
H1980 C1966 0.960 . S
H1981 C1967 0.961 . S
H1982 C1967 0.961 . S
H1983 C1967 0.961 . S
H1984 C1968 0.931 . S
H1985 C1973 0.930 . S
H1986 C1974 0.956 . S
H1987 C1974 0.961 . S
H1988 C1974 0.961 . S
H1989 C1975 0.958 . S
H1990 C1975 0.961 . S
H1991 C1975 0.960 . S
C1992 C1993 1.391 . S
C1992 C1994 1.394 . S
C1992 H2008 0.931 . S
C1993 C1992 1.391 . S
C1993 C1997 1.376 . S
C1994 C1992 1.394 . S
C1994 C1995 1.369 . S
C1994 C1998 1.531 . S
C1995 C1994 1.369 . S
C1995 C1996 1.410 . S
C1995 C2003 1.503 . S
C1996 C1995 1.410 . S
C1996 C1997 1.392 . S
C1996 C1999 1.511 . S
C1997 C1993 1.376 . S
C1997 C1996 1.392 . S
C1997 H2009 0.929 . S
C1998 C1994 1.531 . S
C1998 H2010 0.960 . S
C1998 H2011 0.962 . S
C1998 H2012 0.960 . S
C1999 C1996 1.511 . S
C1999 H2013 0.961 . S
C1999 H2014 0.961 . S
C1999 H2015 0.961 . S
C2000 C2001 1.370 . S
C2000 C2002 1.363 . S
C2000 H2016 0.931 . S
C2001 C2000 1.370 . S
C2001 C2005 1.408 . S
C2002 C2000 1.363 . S
C2002 C2003 1.370 . S
C2002 C2006 1.524 . S
C2003 C1995 1.503 . S
C2003 C2002 1.370 . S
C2003 C2004 1.403 . S
C2004 C2003 1.403 . S
C2004 C2005 1.404 . S
C2004 C2007 1.539 . S
C2005 C2001 1.408 . S
C2005 C2004 1.404 . S
C2005 H2017 0.930 . S
C2006 C2002 1.524 . S
C2006 H2018 0.956 . S
C2006 H2019 0.961 . S
C2006 H2020 0.961 . S
C2007 C2004 1.539 . S
C2007 H2021 0.958 . S
C2007 H2022 0.961 . S
C2007 H2023 0.960 . S
H2008 C1992 0.931 . S
H2009 C1997 0.929 . S
H2010 C1998 0.960 . S
H2011 C1998 0.962 . S
H2012 C1998 0.960 . S
H2013 C1999 0.961 . S
H2014 C1999 0.961 . S
H2015 C1999 0.961 . S
H2016 C2000 0.931 . S
H2017 C2005 0.930 . S
H2018 C2006 0.956 . S
H2019 C2006 0.961 . S
H2020 C2006 0.961 . S
H2021 C2007 0.958 . S
H2022 C2007 0.961 . S
H2023 C2007 0.960 . S
C2024 C2025 1.391 . S
C2024 C2026 1.394 . S
C2024 H2040 0.931 . S
C2025 C2024 1.391 . S
C2025 C2029 1.376 . S
C2026 C2024 1.394 . S
C2026 C2027 1.369 . S
C2026 C2030 1.531 . S
C2027 C2026 1.369 . S
C2027 C2028 1.410 . S
C2027 C2035 1.503 1_565 S
C2028 C2027 1.410 . S
C2028 C2029 1.392 . S
C2028 C2031 1.511 1_565 S
C2029 C2025 1.376 . S
C2029 C2028 1.392 . S
C2029 H2041 0.929 . S
C2030 C2026 1.531 . S
C2030 H2042 0.960 . S
C2030 H2043 0.962 . S
C2030 H2044 0.960 . S
C2031 C2028 1.511 1_545 S
C2031 H2045 0.961 . S
C2031 H2046 0.961 . S
C2031 H2047 0.961 . S
C2032 C2033 1.370 . S
C2032 C2034 1.363 . S
C2032 H2048 0.931 . S
C2033 C2032 1.370 . S
C2033 C2037 1.408 . S
C2034 C2032 1.363 . S
C2034 C2035 1.370 . S
C2034 C2038 1.524 . S
C2035 C2027 1.503 1_545 S
C2035 C2034 1.370 . S
C2035 C2036 1.403 . S
C2036 C2035 1.403 . S
C2036 C2037 1.404 . S
C2036 C2039 1.539 . S
C2037 C2033 1.408 . S
C2037 C2036 1.404 . S
C2037 H2049 0.930 . S
C2038 C2034 1.524 . S
C2038 H2050 0.956 1_545 S
C2038 H2051 0.961 . S
C2038 H2052 0.961 . S
C2039 C2036 1.539 . S
C2039 H2053 0.958 . S
C2039 H2054 0.961 . S
C2039 H2055 0.960 . S
H2040 C2024 0.931 . S
H2041 C2029 0.929 . S
H2042 C2030 0.960 . S
H2043 C2030 0.962 . S
H2044 C2030 0.960 . S
H2045 C2031 0.961 . S
H2046 C2031 0.961 . S
H2047 C2031 0.961 . S
H2048 C2032 0.931 . S
H2049 C2037 0.930 . S
H2050 C2038 0.956 1_565 S
H2051 C2038 0.961 . S
H2052 C2038 0.961 . S
H2053 C2039 0.958 . S
H2054 C2039 0.961 . S
H2055 C2039 0.960 . S
C2056 C2057 1.391 . S
C2056 C2058 1.394 . S
C2056 H2072 0.931 . S
C2057 C2056 1.391 . S
C2057 C2061 1.376 . S
C2058 C2056 1.394 . S
C2058 C2059 1.369 . S
C2058 C2062 1.531 . S
C2059 C2058 1.369 . S
C2059 C2060 1.410 . S
C2059 C2067 1.503 . S
C2060 C2059 1.410 . S
C2060 C2061 1.392 . S
C2060 C2063 1.511 . S
C2061 C2057 1.376 . S
C2061 C2060 1.392 . S
C2061 H2073 0.929 . S
C2062 C2058 1.531 . S
C2062 H2074 0.960 . S
C2062 H2075 0.962 . S
C2062 H2076 0.960 . S
C2063 C2060 1.511 . S
C2063 H2077 0.961 . S
C2063 H2078 0.961 . S
C2063 H2079 0.961 . S
C2064 C2065 1.370 . S
C2064 C2066 1.363 1_655 S
C2064 H2080 0.931 . S
C2065 C2064 1.370 . S
C2065 C2069 1.408 . S
C2066 C2064 1.363 1_455 S
C2066 C2067 1.370 . S
C2066 C2070 1.524 . S
C2067 C2059 1.503 . S
C2067 C2066 1.370 . S
C2067 C2068 1.403 1_455 S
C2068 C2067 1.403 1_655 S
C2068 C2069 1.404 . S
C2068 C2071 1.539 . S
C2069 C2065 1.408 . S
C2069 C2068 1.404 . S
C2069 H2081 0.930 . S
C2070 C2066 1.524 . S
C2070 H2082 0.956 . S
C2070 H2083 0.961 . S
C2070 H2084 0.961 . S
C2071 C2068 1.539 . S
C2071 H2085 0.958 . S
C2071 H2086 0.961 . S
C2071 H2087 0.960 1_655 S
H2072 C2056 0.931 . S
H2073 C2061 0.929 . S
H2074 C2062 0.960 . S
H2075 C2062 0.962 . S
H2076 C2062 0.960 . S
H2077 C2063 0.961 . S
H2078 C2063 0.961 . S
H2079 C2063 0.961 . S
H2080 C2064 0.931 . S
H2081 C2069 0.930 . S
H2082 C2070 0.956 . S
H2083 C2070 0.961 . S
H2084 C2070 0.961 . S
H2085 C2071 0.958 . S
H2086 C2071 0.961 . S
H2087 C2071 0.960 1_455 S
C2088 C2089 1.391 . S
C2088 C2090 1.394 . S
C2088 H2104 0.931 . S
C2089 C2088 1.391 . S
C2089 C2093 1.376 . S
C2090 C2088 1.394 . S
C2090 C2091 1.369 . S
C2090 C2094 1.531 . S
C2091 C2090 1.369 . S
C2091 C2092 1.410 . S
C2091 C2099 1.503 1_554 S
C2092 C2091 1.410 . S
C2092 C2093 1.392 . S
C2092 C2095 1.511 1_545 S
C2093 C2089 1.376 . S
C2093 C2092 1.392 . S
C2093 H2105 0.929 1_545 S
C2094 C2090 1.531 . S
C2094 H2106 0.960 1_554 S
C2094 H2107 0.962 . S
C2094 H2108 0.960 . S
C2095 C2092 1.511 1_565 S
C2095 H2109 0.961 . S
C2095 H2110 0.967 1_554 S
C2095 H2111 0.961 . S
C2096 C2097 1.370 1_565 S
C2096 C2098 1.363 . S
C2096 H2112 0.931 . S
C2097 C2096 1.370 1_545 S
C2097 C2101 1.408 . S
C2098 C2096 1.363 . S
C2098 C2099 1.370 1_565 S
C2098 C2102 1.524 . S
C2099 C2091 1.503 1_556 S
C2099 C2098 1.370 1_545 S
C2099 C2100 1.403 . S
C2100 C2099 1.403 . S
C2100 C2101 1.404 . S
C2100 C2103 1.539 . S
C2101 C2097 1.408 . S
C2101 C2100 1.404 . S
C2101 H2113 0.930 . S
C2102 C2098 1.524 . S
C2102 H2114 0.959 1_556 S
C2102 H2115 0.961 1_556 S
C2102 H2116 0.961 . S
C2103 C2100 1.539 . S
C2103 H2117 0.958 . S
C2103 H2118 0.961 . S
C2103 H2119 0.960 . S
H2104 C2088 0.931 . S
H2105 C2093 0.929 1_565 S
H2106 C2094 0.960 1_556 S
H2107 C2094 0.962 . S
H2108 C2094 0.960 . S
H2109 C2095 0.961 . S
H2110 C2095 0.967 1_556 S
H2111 C2095 0.961 . S
H2112 C2096 0.931 . S
H2113 C2101 0.930 . S
H2114 C2102 0.959 1_554 S
H2115 C2102 0.961 1_554 S
H2116 C2102 0.961 . S
H2117 C2103 0.958 . S
H2118 C2103 0.961 . S
H2119 C2103 0.960 . S
C2120 C2121 1.391 1_655 S
C2120 C2122 1.394 . S
C2120 H2136 0.931 . S
C2121 C2120 1.391 1_455 S
C2121 C2125 1.376 . S
C2122 C2120 1.394 . S
C2122 C2123 1.369 1_655 S
C2122 C2126 1.531 . S
C2123 C2122 1.369 1_455 S
C2123 C2124 1.410 . S
C2123 C2131 1.503 1_556 S
C2124 C2123 1.410 . S
C2124 C2125 1.392 . S
C2124 C2127 1.511 . S
C2125 C2121 1.376 . S
C2125 C2124 1.392 . S
C2125 H2137 0.929 . S
C2126 C2122 1.531 . S
C2126 H2138 1.007 . S
C2126 H2139 0.962 . S
C2126 H2140 0.960 . S
C2127 C2124 1.511 . S
C2127 H2141 0.961 . S
C2127 H2142 0.961 1_556 S
C2127 H2143 0.961 . S
C2128 C2129 1.370 . S
C2128 C2130 1.363 . S
C2128 H2144 0.931 . S
C2129 C2128 1.370 . S
C2129 C2133 1.408 1_455 S
C2130 C2128 1.363 . S
C2130 C2131 1.370 . S
C2130 C2134 1.524 . S
C2131 C2123 1.503 1_554 S
C2131 C2130 1.370 . S
C2131 C2132 1.403 1_455 S
C2132 C2131 1.403 1_655 S
C2132 C2133 1.404 . S
C2132 C2135 1.539 . S
C2133 C2129 1.408 1_655 S
C2133 C2132 1.404 . S
C2133 H2145 0.930 . S
C2134 C2130 1.524 . S
C2134 H2146 0.956 . S
C2134 H2147 0.987 . S
C2134 H2148 0.961 . S
C2135 C2132 1.539 . S
C2135 H2149 0.958 . S
C2135 H2150 0.961 . S
C2135 H2151 0.925 1_554 S
H2136 C2120 0.931 . S
H2137 C2125 0.929 . S
H2138 C2126 1.007 . S
H2139 C2126 0.962 . S
H2140 C2126 0.960 . S
H2141 C2127 0.961 . S
H2142 C2127 0.961 1_554 S
H2143 C2127 0.961 . S
H2144 C2128 0.931 . S
H2145 C2133 0.930 . S
H2146 C2134 0.956 . S
H2147 C2134 0.987 . S
H2148 C2134 0.961 . S
H2149 C2135 0.958 . S
H2150 C2135 0.961 . S
H2151 C2135 0.925 1_556 S
C2152 C2153 1.391 . S
C2152 C2154 1.394 . S
C2152 H2168 0.931 . S
C2153 C2152 1.391 . S
C2153 C2157 1.376 . S
C2154 C2152 1.394 . S
C2154 C2155 1.369 . S
C2154 C2158 1.531 . S
C2155 C2154 1.369 . S
C2155 C2156 1.410 . S
C2155 C2163 1.503 1_556 S
C2156 C2155 1.410 . S
C2156 C2157 1.392 . S
C2156 C2159 1.511 . S
C2157 C2153 1.376 . S
C2157 C2156 1.392 . S
C2157 H2169 0.929 . S
C2158 C2154 1.531 . S
C2158 H2170 0.960 1_556 S
C2158 H2171 0.962 . S
C2158 H2172 0.960 . S
C2159 C2156 1.511 . S
C2159 H2173 0.961 . S
C2159 H2174 0.961 1_556 S
C2159 H2175 0.961 . S
C2160 C2161 1.370 . S
C2160 C2162 1.363 . S
C2160 H2176 0.931 . S
C2161 C2160 1.370 . S
C2161 C2165 1.408 . S
C2162 C2160 1.363 . S
C2162 C2163 1.370 . S
C2162 C2166 1.524 . S
C2163 C2155 1.503 1_554 S
C2163 C2162 1.370 . S
C2163 C2164 1.403 . S
C2164 C2163 1.403 . S
C2164 C2165 1.404 . S
C2164 C2167 1.539 . S
C2165 C2161 1.408 . S
C2165 C2164 1.404 . S
C2165 H2177 0.930 . S
C2166 C2162 1.524 . S
C2166 H2178 0.956 1_554 S
C2166 H2179 0.961 1_554 S
C2166 H2180 0.961 . S
C2167 C2164 1.539 . S
C2167 H2181 0.958 . S
C2167 H2182 0.961 . S
C2167 H2183 0.960 . S
H2168 C2152 0.931 . S
H2169 C2157 0.929 . S
H2170 C2158 0.960 1_554 S
H2171 C2158 0.962 . S
H2172 C2158 0.960 . S
H2173 C2159 0.961 . S
H2174 C2159 0.961 1_554 S
H2175 C2159 0.961 . S
H2176 C2160 0.931 . S
H2177 C2165 0.930 . S
H2178 C2166 0.956 1_556 S
H2179 C2166 0.961 1_556 S
H2180 C2166 0.961 . S
H2181 C2167 0.958 . S
H2182 C2167 0.961 . S
H2183 C2167 0.960 . S
C2184 C2185 1.391 . S
C2184 C2186 1.394 . S
C2184 H2200 0.931 . S
C2185 C2184 1.391 . S
C2185 C2189 1.376 . S
C2186 C2184 1.394 . S
C2186 C2187 1.369 . S
C2186 C2190 1.531 . S
C2187 C2186 1.369 . S
C2187 C2188 1.410 . S
C2187 C2195 1.503 . S
C2188 C2187 1.410 . S
C2188 C2189 1.392 . S
C2188 C2191 1.511 . S
C2189 C2185 1.376 . S
C2189 C2188 1.392 . S
C2189 H2201 0.929 . S
C2190 C2186 1.531 . S
C2190 H2202 0.960 . S
C2190 H2203 0.962 . S
C2190 H2204 0.960 . S
C2191 C2188 1.511 . S
C2191 H2205 0.961 . S
C2191 H2206 0.961 . S
C2191 H2207 0.961 . S
C2192 C2193 1.370 . S
C2192 C2194 1.363 . S
C2192 H2208 0.931 . S
C2193 C2192 1.370 . S
C2193 C2197 1.408 . S
C2194 C2192 1.363 . S
C2194 C2195 1.370 . S
C2194 C2198 1.524 . S
C2195 C2187 1.503 . S
C2195 C2194 1.370 . S
C2195 C2196 1.403 . S
C2196 C2195 1.403 . S
C2196 C2197 1.404 . S
C2196 C2199 1.539 . S
C2197 C2193 1.408 . S
C2197 C2196 1.404 . S
C2197 H2209 0.930 . S
C2198 C2194 1.524 . S
C2198 H2210 0.956 . S
C2198 H2211 0.961 . S
C2198 H2212 0.961 . S
C2199 C2196 1.539 . S
C2199 H2213 0.958 . S
C2199 H2214 0.961 . S
C2199 H2215 0.960 . S
H2200 C2184 0.931 . S
H2201 C2189 0.929 . S
H2202 C2190 0.960 . S
H2203 C2190 0.962 . S
H2204 C2190 0.960 . S
H2205 C2191 0.961 . S
H2206 C2191 0.961 . S
H2207 C2191 0.961 . S
H2208 C2192 0.931 . S
H2209 C2197 0.930 . S
H2210 C2198 0.956 . S
H2211 C2198 0.961 . S
H2212 C2198 0.961 . S
H2213 C2199 0.958 . S
H2214 C2199 0.961 . S
H2215 C2199 0.960 . S
C2216 C2217 1.391 . S
C2216 C2218 1.394 . S
C2216 H2232 0.931 . S
C2217 C2216 1.391 . S
C2217 C2221 1.376 . S
C2218 C2216 1.394 . S
C2218 C2219 1.369 . S
C2218 C2222 1.531 . S
C2219 C2218 1.369 . S
C2219 C2220 1.410 . S
C2219 C2227 1.503 . S
C2220 C2219 1.410 . S
C2220 C2221 1.392 . S
C2220 C2223 1.511 . S
C2221 C2217 1.376 . S
C2221 C2220 1.392 . S
C2221 H2233 0.929 . S
C2222 C2218 1.531 . S
C2222 H2234 0.960 . S
C2222 H2235 0.962 . S
C2222 H2236 0.960 . S
C2223 C2220 1.511 . S
C2223 H2237 0.961 . S
C2223 H2238 0.961 . S
C2223 H2239 0.961 . S
C2224 C2225 1.370 . S
C2224 C2226 1.363 . S
C2224 H2240 0.931 . S
C2225 C2224 1.370 . S
C2225 C2229 1.408 . S
C2226 C2224 1.363 . S
C2226 C2227 1.370 . S
C2226 C2230 1.524 . S
C2227 C2219 1.503 . S
C2227 C2226 1.370 . S
C2227 C2228 1.403 . S
C2228 C2227 1.403 . S
C2228 C2229 1.404 . S
C2228 C2231 1.539 . S
C2229 C2225 1.408 . S
C2229 C2228 1.404 . S
C2229 H2241 0.930 . S
C2230 C2226 1.524 . S
C2230 H2242 0.956 . S
C2230 H2243 0.961 . S
C2230 H2244 0.961 . S
C2231 C2228 1.539 . S
C2231 H2245 0.958 . S
C2231 H2246 0.961 . S
C2231 H2247 0.960 . S
H2232 C2216 0.931 . S
H2233 C2221 0.929 . S
H2234 C2222 0.960 . S
H2235 C2222 0.962 . S
H2236 C2222 0.960 . S
H2237 C2223 0.961 . S
H2238 C2223 0.961 . S
H2239 C2223 0.961 . S
H2240 C2224 0.931 . S
H2241 C2229 0.930 . S
H2242 C2230 0.956 . S
H2243 C2230 0.961 . S
H2244 C2230 0.961 . S
H2245 C2231 0.958 . S
H2246 C2231 0.961 . S
H2247 C2231 0.960 . S
C2248 C2249 1.391 . S
C2248 C2250 1.394 . S
C2248 H2264 0.931 . S
C2249 C2248 1.391 . S
C2249 C2253 1.376 . S
C2250 C2248 1.394 . S
C2250 C2251 1.369 . S
C2250 C2254 1.531 . S
C2251 C2250 1.369 . S
C2251 C2252 1.410 . S
C2251 C2259 1.503 . S
C2252 C2251 1.410 . S
C2252 C2253 1.392 . S
C2252 C2255 1.511 . S
C2253 C2249 1.376 . S
C2253 C2252 1.392 . S
C2253 H2265 0.929 . S
C2254 C2250 1.531 . S
C2254 H2266 0.960 . S
C2254 H2267 0.962 . S
C2254 H2268 0.960 . S
C2255 C2252 1.511 . S
C2255 H2269 0.961 . S
C2255 H2270 0.961 . S
C2255 H2271 0.961 . S
C2256 C2257 1.370 . S
C2256 C2258 1.363 . S
C2256 H2272 0.931 . S
C2257 C2256 1.370 . S
C2257 C2261 1.408 . S
C2258 C2256 1.363 . S
C2258 C2259 1.370 . S
C2258 C2262 1.524 . S
C2259 C2251 1.503 . S
C2259 C2258 1.370 . S
C2259 C2260 1.403 . S
C2260 C2259 1.403 . S
C2260 C2261 1.404 . S
C2260 C2263 1.539 . S
C2261 C2257 1.408 . S
C2261 C2260 1.404 . S
C2261 H2273 0.930 . S
C2262 C2258 1.524 . S
C2262 H2274 0.956 . S
C2262 H2275 0.961 . S
C2262 H2276 0.961 . S
C2263 C2260 1.539 . S
C2263 H2277 0.958 . S
C2263 H2278 0.961 . S
C2263 H2279 0.960 . S
H2264 C2248 0.931 . S
H2265 C2253 0.929 . S
H2266 C2254 0.960 . S
H2267 C2254 0.962 . S
H2268 C2254 0.960 . S
H2269 C2255 0.961 . S
H2270 C2255 0.961 . S
H2271 C2255 0.961 . S
H2272 C2256 0.931 . S
H2273 C2261 0.930 . S
H2274 C2262 0.956 . S
H2275 C2262 0.961 . S
H2276 C2262 0.961 . S
H2277 C2263 0.958 . S
H2278 C2263 0.961 . S
H2279 C2263 0.960 . S
C2280 C2281 1.391 . S
C2280 C2282 1.394 . S
C2280 H2296 0.931 . S
C2281 C2280 1.391 . S
C2281 C2285 1.376 . S
C2282 C2280 1.394 . S
C2282 C2283 1.369 . S
C2282 C2286 1.531 . S
C2283 C2282 1.369 . S
C2283 C2284 1.410 . S
C2283 C2291 1.503 . S
C2284 C2283 1.410 . S
C2284 C2285 1.392 . S
C2284 C2287 1.511 . S
C2285 C2281 1.376 . S
C2285 C2284 1.392 . S
C2285 H2297 0.929 . S
C2286 C2282 1.531 . S
C2286 H2298 0.960 . S
C2286 H2299 0.962 . S
C2286 H2300 0.960 . S
C2287 C2284 1.511 . S
C2287 H2301 0.961 . S
C2287 H2302 0.961 . S
C2287 H2303 0.961 . S
C2288 C2289 1.370 . S
C2288 C2290 1.363 . S
C2288 H2304 0.931 . S
C2289 C2288 1.370 . S
C2289 C2293 1.408 . S
C2290 C2288 1.363 . S
C2290 C2291 1.370 . S
C2290 C2294 1.524 . S
C2291 C2283 1.503 . S
C2291 C2290 1.370 . S
C2291 C2292 1.403 . S
C2292 C2291 1.403 . S
C2292 C2293 1.404 . S
C2292 C2295 1.539 . S
C2293 C2289 1.408 . S
C2293 C2292 1.404 . S
C2293 H2305 0.930 . S
C2294 C2290 1.524 . S
C2294 H2306 0.956 . S
C2294 H2307 0.961 . S
C2294 H2308 0.961 . S
C2295 C2292 1.539 . S
C2295 H2309 0.958 . S
C2295 H2310 0.961 . S
C2295 H2311 0.960 . S
H2296 C2280 0.931 . S
H2297 C2285 0.929 . S
H2298 C2286 0.960 . S
H2299 C2286 0.962 . S
H2300 C2286 0.960 . S
H2301 C2287 0.961 . S
H2302 C2287 0.961 . S
H2303 C2287 0.961 . S
H2304 C2288 0.931 . S
H2305 C2293 0.930 . S
H2306 C2294 0.956 . S
H2307 C2294 0.961 . S
H2308 C2294 0.961 . S
H2309 C2295 0.958 . S
H2310 C2295 0.961 . S
H2311 C2295 0.960 . S
C2312 C2313 1.391 . S
C2312 C2314 1.394 . S
C2312 H2328 0.931 . S
C2313 C2312 1.391 . S
C2313 C2317 1.376 . S
C2314 C2312 1.394 . S
C2314 C2315 1.369 . S
C2314 C2318 1.531 . S
C2315 C2314 1.369 . S
C2315 C2316 1.410 . S
C2315 C2323 1.503 . S
C2316 C2315 1.410 . S
C2316 C2317 1.392 . S
C2316 C2319 1.511 . S
C2317 C2313 1.376 . S
C2317 C2316 1.392 . S
C2317 H2329 0.929 . S
C2318 C2314 1.531 . S
C2318 H2330 0.960 . S
C2318 H2331 0.962 . S
C2318 H2332 0.960 . S
C2319 C2316 1.511 . S
C2319 H2333 0.961 . S
C2319 H2334 0.961 . S
C2319 H2335 0.961 . S
C2320 C2321 1.370 . S
C2320 C2322 1.363 . S
C2320 H2336 0.931 . S
C2321 C2320 1.370 . S
C2321 C2325 1.408 . S
C2322 C2320 1.363 . S
C2322 C2323 1.370 . S
C2322 C2326 1.524 . S
C2323 C2315 1.503 . S
C2323 C2322 1.370 . S
C2323 C2324 1.403 . S
C2324 C2323 1.403 . S
C2324 C2325 1.404 . S
C2324 C2327 1.539 . S
C2325 C2321 1.408 . S
C2325 C2324 1.404 . S
C2325 H2337 0.930 . S
C2326 C2322 1.524 . S
C2326 H2338 0.956 . S
C2326 H2339 0.961 . S
C2326 H2340 0.961 . S
C2327 C2324 1.539 . S
C2327 H2341 0.958 . S
C2327 H2342 0.961 . S
C2327 H2343 0.960 . S
H2328 C2312 0.931 . S
H2329 C2317 0.929 . S
H2330 C2318 0.960 . S
H2331 C2318 0.962 . S
H2332 C2318 0.960 . S
H2333 C2319 0.961 . S
H2334 C2319 0.961 . S
H2335 C2319 0.961 . S
H2336 C2320 0.931 . S
H2337 C2325 0.930 . S
H2338 C2326 0.956 . S
H2339 C2326 0.961 . S
H2340 C2326 0.961 . S
H2341 C2327 0.958 . S
H2342 C2327 0.961 . S
H2343 C2327 0.960 . S
C2344 C2345 1.391 . S
C2344 C2346 1.394 . S
C2344 H2360 0.931 . S
C2345 C2344 1.391 . S
C2345 C2349 1.376 . S
C2346 C2344 1.394 . S
C2346 C2347 1.369 . S
C2346 C2350 1.531 . S
C2347 C2346 1.369 . S
C2347 C2348 1.410 . S
C2347 C2355 1.503 . S
C2348 C2347 1.410 . S
C2348 C2349 1.392 . S
C2348 C2351 1.511 . S
C2349 C2345 1.376 . S
C2349 C2348 1.392 . S
C2349 H2361 0.929 . S
C2350 C2346 1.531 . S
C2350 H2362 0.960 . S
C2350 H2363 0.962 . S
C2350 H2364 0.960 . S
C2351 C2348 1.511 . S
C2351 H2365 0.961 . S
C2351 H2366 0.961 . S
C2351 H2367 0.961 . S
C2352 C2353 1.370 . S
C2352 C2354 1.363 . S
C2352 H2368 0.931 . S
C2353 C2352 1.370 . S
C2353 C2357 1.408 . S
C2354 C2352 1.363 . S
C2354 C2355 1.370 . S
C2354 C2358 1.524 . S
C2355 C2347 1.503 . S
C2355 C2354 1.370 . S
C2355 C2356 1.403 . S
C2356 C2355 1.403 . S
C2356 C2357 1.404 . S
C2356 C2359 1.539 . S
C2357 C2353 1.408 . S
C2357 C2356 1.404 . S
C2357 H2369 0.930 . S
C2358 C2354 1.524 . S
C2358 H2370 0.956 . S
C2358 H2371 0.961 . S
C2358 H2372 0.961 . S
C2359 C2356 1.539 . S
C2359 H2373 0.958 . S
C2359 H2374 0.961 . S
C2359 H2375 0.960 . S
H2360 C2344 0.931 . S
H2361 C2349 0.929 . S
H2362 C2350 0.960 . S
H2363 C2350 0.962 . S
H2364 C2350 0.960 . S
H2365 C2351 0.961 . S
H2366 C2351 0.961 . S
H2367 C2351 0.961 . S
H2368 C2352 0.931 . S
H2369 C2357 0.930 . S
H2370 C2358 0.956 . S
H2371 C2358 0.961 . S
H2372 C2358 0.961 . S
H2373 C2359 0.958 . S
H2374 C2359 0.961 . S
H2375 C2359 0.960 . S
C2376 C2377 1.391 . S
C2376 C2378 1.394 . S
C2376 H2392 0.931 . S
C2377 C2376 1.391 . S
C2377 C2381 1.376 . S
C2378 C2376 1.394 . S
C2378 C2379 1.369 . S
C2378 C2382 1.531 . S
C2379 C2378 1.369 . S
C2379 C2380 1.410 . S
C2379 C2387 1.503 . S
C2380 C2379 1.410 . S
C2380 C2381 1.392 . S
C2380 C2383 1.511 . S
C2381 C2377 1.376 . S
C2381 C2380 1.392 . S
C2381 H2393 0.929 . S
C2382 C2378 1.531 . S
C2382 H2394 0.960 . S
C2382 H2395 0.962 . S
C2382 H2396 0.960 . S
C2383 C2380 1.511 . S
C2383 H2397 0.961 . S
C2383 H2398 0.961 . S
C2383 H2399 0.961 . S
C2384 C2385 1.370 . S
C2384 C2386 1.363 . S
C2384 H2400 0.931 . S
C2385 C2384 1.370 . S
C2385 C2389 1.408 . S
C2386 C2384 1.363 . S
C2386 C2387 1.370 . S
C2386 C2390 1.524 . S
C2387 C2379 1.503 . S
C2387 C2386 1.370 . S
C2387 C2388 1.403 . S
C2388 C2387 1.403 . S
C2388 C2389 1.404 . S
C2388 C2391 1.539 . S
C2389 C2385 1.408 . S
C2389 C2388 1.404 . S
C2389 H2401 0.930 1_565 S
C2390 C2386 1.524 . S
C2390 H2402 0.956 . S
C2390 H2403 0.961 . S
C2390 H2404 0.961 . S
C2391 C2388 1.539 . S
C2391 H2405 0.958 1_565 S
C2391 H2406 0.961 1_565 S
C2391 H2407 0.960 . S
H2392 C2376 0.931 . S
H2393 C2381 0.929 . S
H2394 C2382 0.960 . S
H2395 C2382 0.962 . S
H2396 C2382 0.960 . S
H2397 C2383 0.961 . S
H2398 C2383 0.961 . S
H2399 C2383 0.961 . S
H2400 C2384 0.931 . S
H2401 C2389 0.930 1_545 S
H2402 C2390 0.956 . S
H2403 C2390 0.961 . S
H2404 C2390 0.961 . S
H2405 C2391 0.958 1_545 S
H2406 C2391 0.961 1_545 S
H2407 C2391 0.960 . S
C2408 C2409 1.391 . S
C2408 C2410 1.394 . S
C2408 H2424 0.931 . S
C2409 C2408 1.391 . S
C2409 C2413 1.376 . S
C2410 C2408 1.394 . S
C2410 C2411 1.369 . S
C2410 C2414 1.531 . S
C2411 C2410 1.369 . S
C2411 C2412 1.410 . S
C2411 C2419 1.503 . S
C2412 C2411 1.410 . S
C2412 C2413 1.392 . S
C2412 C2415 1.511 . S
C2413 C2409 1.376 . S
C2413 C2412 1.392 . S
C2413 H2425 0.929 . S
C2414 C2410 1.531 . S
C2414 H2426 0.960 . S
C2414 H2427 0.962 . S
C2414 H2428 0.960 . S
C2415 C2412 1.511 . S
C2415 H2429 0.961 . S
C2415 H2430 0.961 . S
C2415 H2431 0.961 . S
C2416 C2417 1.370 . S
C2416 C2418 1.363 . S
C2416 H2432 0.931 . S
C2417 C2416 1.370 . S
C2417 C2421 1.408 . S
C2418 C2416 1.363 . S
C2418 C2419 1.370 . S
C2418 C2422 1.524 . S
C2419 C2411 1.503 . S
C2419 C2418 1.370 . S
C2419 C2420 1.403 . S
C2420 C2419 1.403 . S
C2420 C2421 1.404 . S
C2420 C2423 1.539 . S
C2421 C2417 1.408 . S
C2421 C2420 1.404 . S
C2421 H2433 0.930 . S
C2422 C2418 1.524 . S
C2422 H2434 0.956 . S
C2422 H2435 0.961 . S
C2422 H2436 0.961 . S
C2423 C2420 1.539 . S
C2423 H2437 0.958 . S
C2423 H2438 0.961 . S
C2423 H2439 0.960 . S
H2424 C2408 0.931 . S
H2425 C2413 0.929 . S
H2426 C2414 0.960 . S
H2427 C2414 0.962 . S
H2428 C2414 0.960 . S
H2429 C2415 0.961 . S
H2430 C2415 0.961 . S
H2431 C2415 0.961 . S
H2432 C2416 0.931 . S
H2433 C2421 0.930 . S
H2434 C2422 0.956 . S
H2435 C2422 0.961 . S
H2436 C2422 0.961 . S
H2437 C2423 0.958 . S
H2438 C2423 0.961 . S
H2439 C2423 0.960 . S
C2440 C2441 1.391 . S
C2440 C2442 1.394 . S
C2440 H2456 0.931 . S
C2441 C2440 1.391 . S
C2441 C2445 1.376 . S
C2442 C2440 1.394 . S
C2442 C2443 1.369 . S
C2442 C2446 1.531 . S
C2443 C2442 1.369 . S
C2443 C2444 1.410 . S
C2443 C2451 1.503 . S
C2444 C2443 1.410 . S
C2444 C2445 1.392 . S
C2444 C2447 1.511 . S
C2445 C2441 1.376 . S
C2445 C2444 1.392 . S
C2445 H2457 0.929 . S
C2446 C2442 1.531 . S
C2446 H2458 0.960 . S
C2446 H2459 0.962 . S
C2446 H2460 0.960 . S
C2447 C2444 1.511 . S
C2447 H2461 0.961 . S
C2447 H2462 0.961 . S
C2447 H2463 0.961 . S
C2448 C2449 1.370 . S
C2448 C2450 1.363 . S
C2448 H2464 0.931 . S
C2449 C2448 1.370 . S
C2449 C2453 1.408 . S
C2450 C2448 1.363 . S
C2450 C2451 1.370 . S
C2450 C2454 1.524 . S
C2451 C2443 1.503 . S
C2451 C2450 1.370 . S
C2451 C2452 1.403 . S
C2452 C2451 1.403 . S
C2452 C2453 1.404 . S
C2452 C2455 1.539 . S
C2453 C2449 1.408 . S
C2453 C2452 1.404 . S
C2453 H2465 0.930 . S
C2454 C2450 1.524 . S
C2454 H2466 0.956 . S
C2454 H2467 0.961 . S
C2454 H2468 0.961 . S
C2455 C2452 1.539 . S
C2455 H2469 0.958 . S
C2455 H2470 0.961 . S
C2455 H2471 0.960 . S
H2456 C2440 0.931 . S
H2457 C2445 0.929 . S
H2458 C2446 0.960 . S
H2459 C2446 0.962 . S
H2460 C2446 0.960 . S
H2461 C2447 0.961 . S
H2462 C2447 0.961 . S
H2463 C2447 0.961 . S
H2464 C2448 0.931 . S
H2465 C2453 0.930 . S
H2466 C2454 0.956 . S
H2467 C2454 0.961 . S
H2468 C2454 0.961 . S
H2469 C2455 0.958 . S
H2470 C2455 0.961 . S
H2471 C2455 0.960 . S
C2472 C2473 1.391 . S
C2472 C2474 1.394 . S
C2472 H2488 0.931 . S
C2473 C2472 1.391 . S
C2473 C2477 1.376 . S
C2474 C2472 1.394 . S
C2474 C2475 1.369 . S
C2474 C2478 1.531 . S
C2475 C2474 1.369 . S
C2475 C2476 1.410 . S
C2475 C2483 1.503 . S
C2476 C2475 1.410 . S
C2476 C2477 1.392 . S
C2476 C2479 1.511 . S
C2477 C2473 1.376 . S
C2477 C2476 1.392 . S
C2477 H2489 0.929 . S
C2478 C2474 1.531 . S
C2478 H2490 0.960 . S
C2478 H2491 0.962 . S
C2478 H2492 0.960 . S
C2479 C2476 1.511 . S
C2479 H2493 0.961 . S
C2479 H2494 0.961 . S
C2479 H2495 0.961 1_655 S
C2480 C2481 1.370 . S
C2480 C2482 1.363 . S
C2480 H2496 0.931 . S
C2481 C2480 1.370 . S
C2481 C2485 1.408 . S
C2482 C2480 1.363 . S
C2482 C2483 1.370 . S
C2482 C2486 1.524 . S
C2483 C2475 1.503 . S
C2483 C2482 1.370 . S
C2483 C2484 1.403 . S
C2484 C2483 1.403 . S
C2484 C2485 1.404 . S
C2484 C2487 1.539 . S
C2485 C2481 1.408 . S
C2485 C2484 1.404 . S
C2485 H2497 0.930 . S
C2486 C2482 1.524 . S
C2486 H2498 0.956 . S
C2486 H2499 0.961 . S
C2486 H2500 0.961 . S
C2487 C2484 1.539 . S
C2487 H2501 0.958 . S
C2487 H2502 0.961 . S
C2487 H2503 0.960 . S
H2488 C2472 0.931 . S
H2489 C2477 0.929 . S
H2490 C2478 0.960 . S
H2491 C2478 0.962 . S
H2492 C2478 0.960 . S
H2493 C2479 0.961 . S
H2494 C2479 0.961 . S
H2495 C2479 0.961 1_455 S
H2496 C2480 0.931 . S
H2497 C2485 0.930 . S
H2498 C2486 0.956 . S
H2499 C2486 0.961 . S
H2500 C2486 0.961 . S
H2501 C2487 0.958 . S
H2502 C2487 0.961 . S
H2503 C2487 0.960 . S
C2504 C2505 1.391 . S
C2504 C2506 1.394 . S
C2504 H2520 0.931 . S
C2505 C2504 1.391 . S
C2505 C2509 1.376 . S
C2506 C2504 1.394 . S
C2506 C2507 1.369 . S
C2506 C2510 1.531 . S
C2507 C2506 1.369 . S
C2507 C2508 1.410 . S
C2507 C2515 1.503 . S
C2508 C2507 1.410 . S
C2508 C2509 1.392 . S
C2508 C2511 1.511 . S
C2509 C2505 1.376 . S
C2509 C2508 1.392 . S
C2509 H2521 0.929 . S
C2510 C2506 1.531 . S
C2510 H2522 0.960 . S
C2510 H2523 0.962 . S
C2510 H2524 0.960 . S
C2511 C2508 1.511 . S
C2511 H2525 0.961 . S
C2511 H2526 0.961 . S
C2511 H2527 0.961 . S
C2512 C2513 1.370 . S
C2512 C2514 1.363 . S
C2512 H2528 0.931 . S
C2513 C2512 1.370 . S
C2513 C2517 1.408 . S
C2514 C2512 1.363 . S
C2514 C2515 1.370 . S
C2514 C2518 1.524 . S
C2515 C2507 1.503 . S
C2515 C2514 1.370 . S
C2515 C2516 1.403 . S
C2516 C2515 1.403 . S
C2516 C2517 1.404 . S
C2516 C2519 1.539 . S
C2517 C2513 1.408 . S
C2517 C2516 1.404 . S
C2517 H2529 0.930 . S
C2518 C2514 1.524 . S
C2518 H2530 0.956 . S
C2518 H2531 0.961 . S
C2518 H2532 0.961 . S
C2519 C2516 1.539 . S
C2519 H2533 0.958 . S
C2519 H2534 0.961 . S
C2519 H2535 0.960 . S
H2520 C2504 0.931 . S
H2521 C2509 0.929 . S
H2522 C2510 0.960 . S
H2523 C2510 0.962 . S
H2524 C2510 0.960 . S
H2525 C2511 0.961 . S
H2526 C2511 0.961 . S
H2527 C2511 0.961 . S
H2528 C2512 0.931 . S
H2529 C2517 0.930 . S
H2530 C2518 0.956 . S
H2531 C2518 0.961 . S
H2532 C2518 0.961 . S
H2533 C2519 0.958 . S
H2534 C2519 0.961 . S
H2535 C2519 0.960 . S
C2536 C2537 1.391 . S
C2536 C2538 1.394 . S
C2536 H2552 0.931 . S
C2537 C2536 1.391 . S
C2537 C2541 1.376 . S
C2538 C2536 1.394 . S
C2538 C2539 1.369 . S
C2538 C2542 1.531 . S
C2539 C2538 1.369 . S
C2539 C2540 1.410 . S
C2539 C2547 1.503 . S
C2540 C2539 1.410 . S
C2540 C2541 1.392 . S
C2540 C2543 1.511 . S
C2541 C2537 1.376 . S
C2541 C2540 1.392 . S
C2541 H2553 0.929 . S
C2542 C2538 1.531 . S
C2542 H2554 0.960 . S
C2542 H2555 0.962 . S
C2542 H2556 0.960 . S
C2543 C2540 1.511 . S
C2543 H2557 0.961 . S
C2543 H2558 0.961 . S
C2543 H2559 0.961 . S
C2544 C2545 1.370 . S
C2544 C2546 1.363 . S
C2544 H2560 0.931 . S
C2545 C2544 1.370 . S
C2545 C2549 1.408 . S
C2546 C2544 1.363 . S
C2546 C2547 1.370 . S
C2546 C2550 1.524 . S
C2547 C2539 1.503 . S
C2547 C2546 1.370 . S
C2547 C2548 1.403 . S
C2548 C2547 1.403 . S
C2548 C2549 1.404 . S
C2548 C2551 1.539 . S
C2549 C2545 1.408 . S
C2549 C2548 1.404 . S
C2549 H2561 0.930 . S
C2550 C2546 1.524 . S
C2550 H2562 0.956 . S
C2550 H2563 0.961 . S
C2550 H2564 0.961 . S
C2551 C2548 1.539 . S
C2551 H2565 0.958 . S
C2551 H2566 0.961 . S
C2551 H2567 0.960 . S
H2552 C2536 0.931 . S
H2553 C2541 0.929 . S
H2554 C2542 0.960 . S
H2555 C2542 0.962 . S
H2556 C2542 0.960 . S
H2557 C2543 0.961 . S
H2558 C2543 0.961 . S
H2559 C2543 0.961 . S
H2560 C2544 0.931 . S
H2561 C2549 0.930 . S
H2562 C2550 0.956 . S
H2563 C2550 0.961 . S
H2564 C2550 0.961 . S
H2565 C2551 0.958 . S
H2566 C2551 0.961 . S
H2567 C2551 0.960 . S
C2568 C2569 1.391 . S
C2568 C2570 1.394 1_655 S
C2568 H2584 0.931 . S
C2569 C2568 1.391 . S
C2569 C2573 1.376 . S
C2570 C2568 1.394 1_455 S
C2570 C2571 1.369 . S
C2570 C2574 1.531 . S
C2571 C2570 1.369 . S
C2571 C2572 1.410 1_455 S
C2571 C2579 1.503 . S
C2572 C2571 1.410 1_655 S
C2572 C2573 1.392 . S
C2572 C2575 1.511 . S
C2573 C2569 1.376 . S
C2573 C2572 1.392 . S
C2573 H2585 0.929 . S
C2574 C2570 1.531 . S
C2574 H2586 0.960 . S
C2574 H2587 0.962 . S
C2574 H2588 0.960 . S
C2575 C2572 1.511 . S
C2575 H2589 0.961 . S
C2575 H2590 0.961 . S
C2575 H2591 0.961 . S
C2576 C2577 1.370 . S
C2576 C2578 1.363 . S
C2576 H2592 0.931 . S
C2577 C2576 1.370 . S
C2577 C2581 1.408 . S
C2578 C2576 1.363 . S
C2578 C2579 1.370 . S
C2578 C2582 1.524 . S
C2579 C2571 1.503 . S
C2579 C2578 1.370 . S
C2579 C2580 1.403 . S
C2580 C2579 1.403 . S
C2580 C2581 1.404 . S
C2580 C2583 1.539 . S
C2581 C2577 1.408 . S
C2581 C2580 1.404 . S
C2581 H2593 0.930 . S
C2582 C2578 1.524 . S
C2582 H2594 0.956 . S
C2582 H2595 0.961 1_455 S
C2582 H2596 0.961 . S
C2583 C2580 1.539 . S
C2583 H2597 0.958 . S
C2583 H2598 0.961 . S
C2583 H2599 0.960 . S
H2584 C2568 0.931 . S
H2585 C2573 0.929 . S
H2586 C2574 0.960 . S
H2587 C2574 0.962 . S
H2588 C2574 0.960 . S
H2589 C2575 0.961 . S
H2590 C2575 0.961 . S
H2591 C2575 0.961 . S
H2592 C2576 0.931 . S
H2593 C2581 0.930 . S
H2594 C2582 0.956 . S
H2595 C2582 0.961 1_655 S
H2596 C2582 0.961 . S
H2597 C2583 0.958 . S
H2598 C2583 0.961 . S
H2599 C2583 0.960 . S
C2600 C2601 1.391 . S
C2600 C2602 1.394 . S
C2600 H2616 0.931 . S
C2601 C2600 1.391 . S
C2601 C2605 1.376 . S
C2602 C2600 1.394 . S
C2602 C2603 1.369 . S
C2602 C2606 1.531 . S
C2603 C2602 1.369 . S
C2603 C2604 1.410 . S
C2603 C2611 1.503 . S
C2604 C2603 1.410 . S
C2604 C2605 1.392 . S
C2604 C2607 1.511 . S
C2605 C2601 1.376 . S
C2605 C2604 1.392 . S
C2605 H2617 0.929 . S
C2606 C2602 1.531 . S
C2606 H2618 0.960 . S
C2606 H2619 0.962 . S
C2606 H2620 0.960 . S
C2607 C2604 1.511 . S
C2607 H2621 0.961 . S
C2607 H2622 0.961 . S
C2607 H2623 0.961 . S
C2608 C2609 1.370 . S
C2608 C2610 1.363 . S
C2608 H2624 0.931 . S
C2609 C2608 1.370 . S
C2609 C2613 1.408 . S
C2610 C2608 1.363 . S
C2610 C2611 1.370 . S
C2610 C2614 1.524 . S
C2611 C2603 1.503 . S
C2611 C2610 1.370 . S
C2611 C2612 1.403 . S
C2612 C2611 1.403 . S
C2612 C2613 1.404 . S
C2612 C2615 1.539 . S
C2613 C2609 1.408 . S
C2613 C2612 1.404 . S
C2613 H2625 0.930 . S
C2614 C2610 1.524 . S
C2614 H2626 0.956 . S
C2614 H2627 0.961 . S
C2614 H2628 0.961 . S
C2615 C2612 1.539 . S
C2615 H2629 0.958 . S
C2615 H2630 0.961 . S
C2615 H2631 0.960 . S
H2616 C2600 0.931 . S
H2617 C2605 0.929 . S
H2618 C2606 0.960 . S
H2619 C2606 0.962 . S
H2620 C2606 0.960 . S
H2621 C2607 0.961 . S
H2622 C2607 0.961 . S
H2623 C2607 0.961 . S
H2624 C2608 0.931 . S
H2625 C2613 0.930 . S
H2626 C2614 0.956 . S
H2627 C2614 0.961 . S
H2628 C2614 0.961 . S
H2629 C2615 0.958 . S
H2630 C2615 0.961 . S
H2631 C2615 0.960 . S
C2632 C2633 1.391 . S
C2632 C2634 1.394 . S
C2632 H2648 0.931 . S
C2633 C2632 1.391 . S
C2633 C2637 1.376 . S
C2634 C2632 1.394 . S
C2634 C2635 1.369 . S
C2634 C2638 1.531 . S
C2635 C2634 1.369 . S
C2635 C2636 1.410 . S
C2635 C2643 1.503 1_565 S
C2636 C2635 1.410 . S
C2636 C2637 1.392 . S
C2636 C2639 1.511 1_565 S
C2637 C2633 1.376 . S
C2637 C2636 1.392 . S
C2637 H2649 0.929 . S
C2638 C2634 1.531 . S
C2638 H2650 0.960 . S
C2638 H2651 0.962 . S
C2638 H2652 0.960 . S
C2639 C2636 1.511 1_545 S
C2639 H2653 0.961 . S
C2639 H2654 0.961 . S
C2639 H2655 0.961 . S
C2640 C2641 1.370 . S
C2640 C2642 1.363 . S
C2640 H2656 0.931 . S
C2641 C2640 1.370 . S
C2641 C2645 1.408 . S
C2642 C2640 1.363 . S
C2642 C2643 1.370 . S
C2642 C2646 1.524 . S
C2643 C2635 1.503 1_545 S
C2643 C2642 1.370 . S
C2643 C2644 1.403 . S
C2644 C2643 1.403 . S
C2644 C2645 1.404 . S
C2644 C2647 1.528 1_545 S
C2645 C2641 1.408 . S
C2645 C2644 1.404 . S
C2645 H2657 0.930 . S
C2646 C2642 1.524 . S
C2646 H2658 0.956 . S
C2646 H2659 0.961 . S
C2646 H2660 0.961 . S
C2647 C2644 1.528 1_565 S
C2647 H2661 0.961 . S
C2647 H2662 0.962 1_565 S
C2647 H2663 0.967 . S
H2648 C2632 0.931 . S
H2649 C2637 0.929 . S
H2650 C2638 0.960 . S
H2651 C2638 0.962 . S
H2652 C2638 0.960 . S
H2653 C2639 0.961 . S
H2654 C2639 0.961 . S
H2655 C2639 0.961 . S
H2656 C2640 0.931 . S
H2657 C2645 0.930 . S
H2658 C2646 0.956 . S
H2659 C2646 0.961 . S
H2660 C2646 0.961 . S
H2661 C2647 0.961 . S
H2662 C2647 0.962 1_545 S
H2663 C2647 0.967 . S
C2664 C2665 1.391 . S
C2664 C2666 1.394 . S
C2664 H2680 0.931 . S
C2665 C2664 1.391 . S
C2665 C2669 1.376 . S
C2666 C2664 1.394 . S
C2666 C2667 1.369 . S
C2666 C2670 1.531 . S
C2667 C2666 1.369 . S
C2667 C2668 1.410 . S
C2667 C2675 1.503 . S
C2668 C2667 1.410 . S
C2668 C2669 1.392 . S
C2668 C2671 1.511 . S
C2669 C2665 1.376 . S
C2669 C2668 1.392 . S
C2669 H2681 0.929 . S
C2670 C2666 1.531 . S
C2670 H2682 0.960 . S
C2670 H2683 0.962 . S
C2670 H2684 0.960 . S
C2671 C2668 1.511 . S
C2671 H2685 0.961 . S
C2671 H2686 0.961 . S
C2671 H2687 0.961 . S
C2672 C2673 1.370 . S
C2672 C2674 1.363 . S
C2672 H2688 0.931 . S
C2673 C2672 1.370 . S
C2673 C2677 1.408 . S
C2674 C2672 1.363 . S
C2674 C2675 1.370 . S
C2674 C2678 1.524 . S
C2675 C2667 1.503 . S
C2675 C2674 1.370 . S
C2675 C2676 1.403 . S
C2676 C2675 1.403 . S
C2676 C2677 1.404 . S
C2676 C2679 1.539 . S
C2677 C2673 1.408 . S
C2677 C2676 1.404 . S
C2677 H2689 0.930 . S
C2678 C2674 1.524 . S
C2678 H2690 0.956 . S
C2678 H2691 0.961 . S
C2678 H2692 0.961 . S
C2679 C2676 1.539 . S
C2679 H2693 0.958 . S
C2679 H2694 0.961 . S
C2679 H2695 0.960 . S
H2680 C2664 0.931 . S
H2681 C2669 0.929 . S
H2682 C2670 0.960 . S
H2683 C2670 0.962 . S
H2684 C2670 0.960 . S
H2685 C2671 0.961 . S
H2686 C2671 0.961 . S
H2687 C2671 0.961 . S
H2688 C2672 0.931 . S
H2689 C2677 0.930 . S
H2690 C2678 0.956 . S
H2691 C2678 0.961 . S
H2692 C2678 0.961 . S
H2693 C2679 0.958 . S
H2694 C2679 0.961 . S
H2695 C2679 0.960 . S
C2696 C2697 1.391 . S
C2696 C2698 1.394 . S
C2696 H2712 0.931 . S
C2697 C2696 1.391 . S
C2697 C2701 1.376 . S
C2698 C2696 1.394 . S
C2698 C2699 1.369 . S
C2698 C2702 1.531 . S
C2699 C2698 1.369 . S
C2699 C2700 1.410 . S
C2699 C2707 1.503 . S
C2700 C2699 1.410 . S
C2700 C2701 1.392 . S
C2700 C2703 1.511 . S
C2701 C2697 1.376 . S
C2701 C2700 1.392 . S
C2701 H2713 0.929 . S
C2702 C2698 1.531 . S
C2702 H2714 0.960 . S
C2702 H2715 0.962 . S
C2702 H2716 0.960 . S
C2703 C2700 1.511 . S
C2703 H2717 0.961 . S
C2703 H2718 0.961 . S
C2703 H2719 0.961 . S
C2704 C2705 1.370 . S
C2704 C2706 1.363 . S
C2704 H2720 0.931 . S
C2705 C2704 1.370 . S
C2705 C2709 1.408 . S
C2706 C2704 1.363 . S
C2706 C2707 1.370 . S
C2706 C2710 1.524 . S
C2707 C2699 1.503 . S
C2707 C2706 1.370 . S
C2707 C2708 1.403 . S
C2708 C2707 1.403 . S
C2708 C2709 1.404 . S
C2708 C2711 1.539 . S
C2709 C2705 1.408 . S
C2709 C2708 1.404 . S
C2709 H2721 0.930 . S
C2710 C2706 1.524 . S
C2710 H2722 0.956 . S
C2710 H2723 0.961 . S
C2710 H2724 0.961 . S
C2711 C2708 1.539 . S
C2711 H2725 0.958 . S
C2711 H2726 0.961 . S
C2711 H2727 0.960 . S
H2712 C2696 0.931 . S
H2713 C2701 0.929 . S
H2714 C2702 0.960 . S
H2715 C2702 0.962 . S
H2716 C2702 0.960 . S
H2717 C2703 0.961 . S
H2718 C2703 0.961 . S
H2719 C2703 0.961 . S
H2720 C2704 0.931 . S
H2721 C2709 0.930 . S
H2722 C2710 0.956 . S
H2723 C2710 0.961 . S
H2724 C2710 0.961 . S
H2725 C2711 0.958 . S
H2726 C2711 0.961 . S
H2727 C2711 0.960 . S
C2728 C2729 1.391 . S
C2728 C2730 1.394 . S
C2728 H2744 0.931 . S
C2729 C2728 1.391 . S
C2729 C2733 1.376 . S
C2730 C2728 1.394 . S
C2730 C2731 1.369 . S
C2730 C2734 1.531 . S
C2731 C2730 1.369 . S
C2731 C2732 1.410 . S
C2731 C2739 1.503 . S
C2732 C2731 1.410 . S
C2732 C2733 1.392 . S
C2732 C2735 1.511 . S
C2733 C2729 1.376 . S
C2733 C2732 1.392 . S
C2733 H2745 0.929 . S
C2734 C2730 1.531 . S
C2734 H2746 0.960 . S
C2734 H2747 0.962 . S
C2734 H2748 0.960 . S
C2735 C2732 1.511 . S
C2735 H2749 0.961 . S
C2735 H2750 0.961 . S
C2735 H2751 0.961 . S
C2736 C2737 1.370 . S
C2736 C2738 1.363 . S
C2736 H2752 0.931 . S
C2737 C2736 1.370 . S
C2737 C2741 1.408 . S
C2738 C2736 1.363 . S
C2738 C2739 1.370 . S
C2738 C2742 1.524 . S
C2739 C2731 1.503 . S
C2739 C2738 1.370 . S
C2739 C2740 1.403 . S
C2740 C2739 1.403 . S
C2740 C2741 1.404 . S
C2740 C2743 1.539 . S
C2741 C2737 1.408 . S
C2741 C2740 1.404 . S
C2741 H2753 0.930 . S
C2742 C2738 1.524 . S
C2742 H2754 0.956 . S
C2742 H2755 0.961 . S
C2742 H2756 0.961 . S
C2743 C2740 1.539 . S
C2743 H2757 0.958 . S
C2743 H2758 0.961 . S
C2743 H2759 0.960 . S
H2744 C2728 0.931 . S
H2745 C2733 0.929 . S
H2746 C2734 0.960 . S
H2747 C2734 0.962 . S
H2748 C2734 0.960 . S
H2749 C2735 0.961 . S
H2750 C2735 0.961 . S
H2751 C2735 0.961 . S
H2752 C2736 0.931 . S
H2753 C2741 0.930 . S
H2754 C2742 0.956 . S
H2755 C2742 0.961 . S
H2756 C2742 0.961 . S
H2757 C2743 0.958 . S
H2758 C2743 0.961 . S
H2759 C2743 0.960 . S
C2760 C2761 1.391 . S
C2760 C2762 1.394 . S
C2760 H2776 0.931 . S
C2761 C2760 1.391 . S
C2761 C2765 1.376 . S
C2762 C2760 1.394 . S
C2762 C2763 1.369 . S
C2762 C2766 1.531 . S
C2763 C2762 1.369 . S
C2763 C2764 1.410 . S
C2763 C2771 1.503 . S
C2764 C2763 1.410 . S
C2764 C2765 1.392 . S
C2764 C2767 1.511 . S
C2765 C2761 1.376 . S
C2765 C2764 1.392 . S
C2765 H2777 0.929 . S
C2766 C2762 1.531 . S
C2766 H2778 0.960 . S
C2766 H2779 0.962 . S
C2766 H2780 0.960 . S
C2767 C2764 1.511 . S
C2767 H2781 0.961 . S
C2767 H2782 0.961 . S
C2767 H2783 0.961 . S
C2768 C2769 1.370 . S
C2768 C2770 1.363 . S
C2768 H2784 0.931 . S
C2769 C2768 1.370 . S
C2769 C2773 1.408 . S
C2770 C2768 1.363 . S
C2770 C2771 1.370 . S
C2770 C2774 1.524 . S
C2771 C2763 1.503 . S
C2771 C2770 1.370 . S
C2771 C2772 1.403 . S
C2772 C2771 1.403 . S
C2772 C2773 1.404 . S
C2772 C2775 1.539 . S
C2773 C2769 1.408 . S
C2773 C2772 1.404 . S
C2773 H2785 0.930 . S
C2774 C2770 1.524 . S
C2774 H2786 0.956 . S
C2774 H2787 0.961 . S
C2774 H2788 0.961 . S
C2775 C2772 1.539 . S
C2775 H2789 0.958 . S
C2775 H2790 0.961 . S
C2775 H2791 0.960 . S
H2776 C2760 0.931 . S
H2777 C2765 0.929 . S
H2778 C2766 0.960 . S
H2779 C2766 0.962 . S
H2780 C2766 0.960 . S
H2781 C2767 0.961 . S
H2782 C2767 0.961 . S
H2783 C2767 0.961 . S
H2784 C2768 0.931 . S
H2785 C2773 0.930 . S
H2786 C2774 0.956 . S
H2787 C2774 0.961 . S
H2788 C2774 0.961 . S
H2789 C2775 0.958 . S
H2790 C2775 0.961 . S
H2791 C2775 0.960 . S
C2792 C2793 1.391 . S
C2792 C2794 1.394 . S
C2792 H2808 0.931 . S
C2793 C2792 1.391 . S
C2793 C2797 1.376 . S
C2794 C2792 1.394 . S
C2794 C2795 1.369 . S
C2794 C2798 1.531 . S
C2795 C2794 1.369 . S
C2795 C2796 1.410 . S
C2795 C2803 1.503 . S
C2796 C2795 1.410 . S
C2796 C2797 1.392 . S
C2796 C2799 1.511 . S
C2797 C2793 1.376 . S
C2797 C2796 1.392 . S
C2797 H2809 0.929 . S
C2798 C2794 1.531 . S
C2798 H2810 0.960 . S
C2798 H2811 0.962 . S
C2798 H2812 0.960 . S
C2799 C2796 1.511 . S
C2799 H2813 0.961 . S
C2799 H2814 0.961 . S
C2799 H2815 0.961 . S
C2800 C2801 1.370 . S
C2800 C2802 1.363 . S
C2800 H2816 0.931 . S
C2801 C2800 1.370 . S
C2801 C2805 1.408 . S
C2802 C2800 1.363 . S
C2802 C2803 1.370 . S
C2802 C2806 1.524 . S
C2803 C2795 1.503 . S
C2803 C2802 1.370 . S
C2803 C2804 1.403 . S
C2804 C2803 1.403 . S
C2804 C2805 1.404 . S
C2804 C2807 1.539 . S
C2805 C2801 1.408 . S
C2805 C2804 1.404 . S
C2805 H2817 0.930 . S
C2806 C2802 1.524 . S
C2806 H2818 0.956 . S
C2806 H2819 0.961 . S
C2806 H2820 0.961 . S
C2807 C2804 1.539 . S
C2807 H2821 0.958 . S
C2807 H2822 0.961 . S
C2807 H2823 0.960 . S
H2808 C2792 0.931 . S
H2809 C2797 0.929 . S
H2810 C2798 0.960 . S
H2811 C2798 0.962 . S
H2812 C2798 0.960 . S
H2813 C2799 0.961 . S
H2814 C2799 0.961 . S
H2815 C2799 0.961 . S
H2816 C2800 0.931 . S
H2817 C2805 0.930 . S
H2818 C2806 0.956 . S
H2819 C2806 0.961 . S
H2820 C2806 0.961 . S
H2821 C2807 0.958 . S
H2822 C2807 0.961 . S
H2823 C2807 0.960 . S
C2824 C2825 1.391 . S
C2824 C2826 1.394 . S
C2824 H2840 0.931 . S
C2825 C2824 1.391 . S
C2825 C2829 1.376 . S
C2826 C2824 1.394 . S
C2826 C2827 1.369 . S
C2826 C2830 1.531 . S
C2827 C2826 1.369 . S
C2827 C2828 1.410 . S
C2827 C2835 1.503 . S
C2828 C2827 1.410 . S
C2828 C2829 1.392 . S
C2828 C2831 1.511 . S
C2829 C2825 1.376 . S
C2829 C2828 1.392 . S
C2829 H2841 0.929 . S
C2830 C2826 1.531 . S
C2830 H2842 0.960 . S
C2830 H2843 0.962 . S
C2830 H2844 0.960 . S
C2831 C2828 1.511 . S
C2831 H2845 0.961 . S
C2831 H2846 0.961 . S
C2831 H2847 0.961 . S
C2832 C2833 1.370 . S
C2832 C2834 1.363 . S
C2832 H2848 0.931 . S
C2833 C2832 1.370 . S
C2833 C2837 1.408 . S
C2834 C2832 1.363 . S
C2834 C2835 1.370 . S
C2834 C2838 1.524 . S
C2835 C2827 1.503 . S
C2835 C2834 1.370 . S
C2835 C2836 1.403 . S
C2836 C2835 1.403 . S
C2836 C2837 1.404 . S
C2836 C2839 1.539 . S
C2837 C2833 1.408 . S
C2837 C2836 1.404 . S
C2837 H2849 0.930 . S
C2838 C2834 1.524 . S
C2838 H2850 0.956 . S
C2838 H2851 0.961 . S
C2838 H2852 0.961 . S
C2839 C2836 1.539 . S
C2839 H2853 0.958 . S
C2839 H2854 0.961 . S
C2839 H2855 0.960 . S
H2840 C2824 0.931 . S
H2841 C2829 0.929 . S
H2842 C2830 0.960 . S
H2843 C2830 0.962 . S
H2844 C2830 0.960 . S
H2845 C2831 0.961 . S
H2846 C2831 0.961 . S
H2847 C2831 0.961 . S
H2848 C2832 0.931 . S
H2849 C2837 0.930 . S
H2850 C2838 0.956 . S
H2851 C2838 0.961 . S
H2852 C2838 0.961 . S
H2853 C2839 0.958 . S
H2854 C2839 0.961 . S
H2855 C2839 0.960 . S
C2856 C2857 1.391 . S
C2856 C2858 1.394 . S
C2856 H2872 0.931 . S
C2857 C2856 1.391 . S
C2857 C2861 1.376 . S
C2858 C2856 1.394 . S
C2858 C2859 1.369 . S
C2858 C2862 1.531 . S
C2859 C2858 1.369 . S
C2859 C2860 1.410 . S
C2859 C2867 1.503 . S
C2860 C2859 1.410 . S
C2860 C2861 1.392 . S
C2860 C2863 1.511 . S
C2861 C2857 1.376 . S
C2861 C2860 1.392 . S
C2861 H2873 0.929 . S
C2862 C2858 1.531 . S
C2862 H2874 0.960 . S
C2862 H2875 0.962 . S
C2862 H2876 0.960 . S
C2863 C2860 1.511 . S
C2863 H2877 0.961 . S
C2863 H2878 0.961 . S
C2863 H2879 0.961 . S
C2864 C2865 1.370 . S
C2864 C2866 1.363 . S
C2864 H2880 0.931 . S
C2865 C2864 1.370 . S
C2865 C2869 1.408 . S
C2866 C2864 1.363 . S
C2866 C2867 1.370 . S
C2866 C2870 1.524 . S
C2867 C2859 1.503 . S
C2867 C2866 1.370 . S
C2867 C2868 1.403 . S
C2868 C2867 1.403 . S
C2868 C2869 1.404 . S
C2868 C2871 1.539 . S
C2869 C2865 1.408 . S
C2869 C2868 1.404 . S
C2869 H2881 0.930 . S
C2870 C2866 1.524 . S
C2870 H2882 0.956 . S
C2870 H2883 0.961 . S
C2870 H2884 0.961 . S
C2871 C2868 1.539 . S
C2871 H2885 0.958 . S
C2871 H2886 0.961 . S
C2871 H2887 0.960 . S
H2872 C2856 0.931 . S
H2873 C2861 0.929 . S
H2874 C2862 0.960 . S
H2875 C2862 0.962 . S
H2876 C2862 0.960 . S
H2877 C2863 0.961 . S
H2878 C2863 0.961 . S
H2879 C2863 0.961 . S
H2880 C2864 0.931 . S
H2881 C2869 0.930 . S
H2882 C2870 0.956 . S
H2883 C2870 0.961 . S
H2884 C2870 0.961 . S
H2885 C2871 0.958 . S
H2886 C2871 0.961 . S
H2887 C2871 0.960 . S
C2888 C2889 1.391 . S
C2888 C2890 1.394 . S
C2888 H2904 0.931 . S
C2889 C2888 1.391 . S
C2889 C2893 1.376 . S
C2890 C2888 1.394 . S
C2890 C2891 1.369 . S
C2890 C2894 1.531 . S
C2891 C2890 1.369 . S
C2891 C2892 1.410 . S
C2891 C2899 1.503 . S
C2892 C2891 1.410 . S
C2892 C2893 1.392 . S
C2892 C2895 1.511 . S
C2893 C2889 1.376 . S
C2893 C2892 1.392 . S
C2893 H2905 0.929 . S
C2894 C2890 1.531 . S
C2894 H2906 0.960 . S
C2894 H2907 0.962 . S
C2894 H2908 0.960 . S
C2895 C2892 1.511 . S
C2895 H2909 0.961 . S
C2895 H2910 0.961 . S
C2895 H2911 0.961 . S
C2896 C2897 1.370 . S
C2896 C2898 1.363 . S
C2896 H2912 0.931 . S
C2897 C2896 1.370 . S
C2897 C2901 1.408 . S
C2898 C2896 1.363 . S
C2898 C2899 1.370 . S
C2898 C2902 1.524 . S
C2899 C2891 1.503 . S
C2899 C2898 1.370 . S
C2899 C2900 1.403 . S
C2900 C2899 1.403 . S
C2900 C2901 1.404 . S
C2900 C2903 1.539 . S
C2901 C2897 1.408 . S
C2901 C2900 1.404 . S
C2901 H2913 0.930 . S
C2902 C2898 1.524 . S
C2902 H2914 0.956 . S
C2902 H2915 0.961 . S
C2902 H2916 0.961 . S
C2903 C2900 1.539 . S
C2903 H2917 0.958 . S
C2903 H2918 0.961 . S
C2903 H2919 0.960 . S
H2904 C2888 0.931 . S
H2905 C2893 0.929 . S
H2906 C2894 0.960 . S
H2907 C2894 0.962 . S
H2908 C2894 0.960 . S
H2909 C2895 0.961 . S
H2910 C2895 0.961 . S
H2911 C2895 0.961 . S
H2912 C2896 0.931 . S
H2913 C2901 0.930 . S
H2914 C2902 0.956 . S
H2915 C2902 0.961 . S
H2916 C2902 0.961 . S
H2917 C2903 0.958 . S
H2918 C2903 0.961 . S
H2919 C2903 0.960 . S
C2920 C2921 1.391 . S
C2920 C2922 1.394 . S
C2920 H2936 0.931 . S
C2921 C2920 1.391 . S
C2921 C2925 1.376 . S
C2922 C2920 1.394 . S
C2922 C2923 1.369 . S
C2922 C2926 1.531 . S
C2923 C2922 1.369 . S
C2923 C2924 1.410 . S
C2923 C2931 1.503 . S
C2924 C2923 1.410 . S
C2924 C2925 1.392 . S
C2924 C2927 1.511 . S
C2925 C2921 1.376 . S
C2925 C2924 1.392 . S
C2925 H2937 0.929 . S
C2926 C2922 1.531 . S
C2926 H2938 0.960 . S
C2926 H2939 0.962 . S
C2926 H2940 0.960 . S
C2927 C2924 1.511 . S
C2927 H2941 0.961 . S
C2927 H2942 0.961 . S
C2927 H2943 0.961 . S
C2928 C2929 1.370 . S
C2928 C2930 1.363 . S
C2928 H2944 0.931 . S
C2929 C2928 1.370 . S
C2929 C2933 1.408 . S
C2930 C2928 1.363 . S
C2930 C2931 1.370 . S
C2930 C2934 1.524 . S
C2931 C2923 1.503 . S
C2931 C2930 1.370 . S
C2931 C2932 1.403 . S
C2932 C2931 1.403 . S
C2932 C2933 1.404 . S
C2932 C2935 1.539 . S
C2933 C2929 1.408 . S
C2933 C2932 1.404 . S
C2933 H2945 0.930 . S
C2934 C2930 1.524 . S
C2934 H2946 0.956 . S
C2934 H2947 0.961 . S
C2934 H2948 0.961 . S
C2935 C2932 1.539 . S
C2935 H2949 0.958 . S
C2935 H2950 0.961 . S
C2935 H2951 0.960 . S
H2936 C2920 0.931 . S
H2937 C2925 0.929 . S
H2938 C2926 0.960 . S
H2939 C2926 0.962 . S
H2940 C2926 0.960 . S
H2941 C2927 0.961 . S
H2942 C2927 0.961 . S
H2943 C2927 0.961 . S
H2944 C2928 0.931 . S
H2945 C2933 0.930 . S
H2946 C2934 0.956 . S
H2947 C2934 0.961 . S
H2948 C2934 0.961 . S
H2949 C2935 0.958 . S
H2950 C2935 0.961 . S
H2951 C2935 0.960 . S
C2952 C2953 1.391 . S
C2952 C2954 1.394 . S
C2952 H2968 0.931 . S
C2953 C2952 1.391 . S
C2953 C2957 1.376 . S
C2954 C2952 1.394 . S
C2954 C2955 1.369 . S
C2954 C2958 1.531 . S
C2955 C2954 1.369 . S
C2955 C2956 1.410 . S
C2955 C2963 1.503 . S
C2956 C2955 1.410 . S
C2956 C2957 1.392 . S
C2956 C2959 1.511 . S
C2957 C2953 1.376 . S
C2957 C2956 1.392 . S
C2957 H2969 0.929 . S
C2958 C2954 1.531 . S
C2958 H2970 0.960 . S
C2958 H2971 0.962 . S
C2958 H2972 0.960 . S
C2959 C2956 1.511 . S
C2959 H2973 0.961 . S
C2959 H2974 0.961 . S
C2959 H2975 0.961 . S
C2960 C2961 1.370 . S
C2960 C2962 1.363 . S
C2960 H2976 0.931 . S
C2961 C2960 1.370 . S
C2961 C2965 1.408 . S
C2962 C2960 1.363 . S
C2962 C2963 1.370 . S
C2962 C2966 1.524 . S
C2963 C2955 1.503 . S
C2963 C2962 1.370 . S
C2963 C2964 1.403 . S
C2964 C2963 1.403 . S
C2964 C2965 1.404 . S
C2964 C2967 1.539 . S
C2965 C2961 1.408 . S
C2965 C2964 1.404 . S
C2965 H2977 0.930 . S
C2966 C2962 1.524 . S
C2966 H2978 0.956 . S
C2966 H2979 0.961 . S
C2966 H2980 0.961 . S
C2967 C2964 1.539 . S
C2967 H2981 0.958 . S
C2967 H2982 0.961 . S
C2967 H2983 0.960 . S
H2968 C2952 0.931 . S
H2969 C2957 0.929 . S
H2970 C2958 0.960 . S
H2971 C2958 0.962 . S
H2972 C2958 0.960 . S
H2973 C2959 0.961 . S
H2974 C2959 0.961 . S
H2975 C2959 0.961 . S
H2976 C2960 0.931 . S
H2977 C2965 0.930 . S
H2978 C2966 0.956 . S
H2979 C2966 0.961 . S
H2980 C2966 0.961 . S
H2981 C2967 0.958 . S
H2982 C2967 0.961 . S
H2983 C2967 0.960 . S
C2984 C2985 1.376 1_545 S
C2984 C2986 1.423 . S
C2984 H3000 0.918 1_545 S
C2985 C2984 1.376 1_565 S
C2985 C2989 1.376 . S
C2986 C2984 1.423 . S
C2986 C2987 1.369 . S
C2986 C2990 1.531 . S
C2987 C2986 1.369 . S
C2987 C2988 1.410 . S
C2987 C2995 1.503 . S
C2988 C2987 1.410 . S
C2988 C2989 1.392 1_545 S
C2988 C2991 1.511 . S
C2989 C2985 1.376 . S
C2989 C2988 1.392 1_565 S
C2989 H3001 0.929 . S
C2990 C2986 1.531 . S
C2990 H3002 0.960 . S
C2990 H3003 0.962 . S
C2990 H3004 0.960 . S
C2991 C2988 1.511 . S
C2991 H3005 0.961 1_545 S
C2991 H3006 0.961 . S
C2991 H3007 0.961 . S
C2992 C2993 1.370 . S
C2992 C2994 1.363 . S
C2992 H3008 0.931 . S
C2993 C2992 1.370 . S
C2993 C2997 1.408 . S
C2994 C2992 1.363 . S
C2994 C2995 1.370 . S
C2994 C2998 1.524 . S
C2995 C2987 1.503 . S
C2995 C2994 1.370 . S
C2995 C2996 1.403 . S
C2996 C2995 1.403 . S
C2996 C2997 1.404 . S
C2996 C2999 1.539 . S
C2997 C2993 1.408 . S
C2997 C2996 1.404 . S
C2997 H3009 0.930 . S
C2998 C2994 1.524 . S
C2998 H3010 0.956 . S
C2998 H3011 0.961 . S
C2998 H3012 0.961 . S
C2999 C2996 1.539 . S
C2999 H3013 0.958 . S
C2999 H3014 0.961 . S
C2999 H3015 0.960 . S
H3000 C2984 0.918 1_565 S
H3001 C2989 0.929 . S
H3002 C2990 0.960 . S
H3003 C2990 0.962 . S
H3004 C2990 0.960 . S
H3005 C2991 0.961 1_565 S
H3006 C2991 0.961 . S
H3007 C2991 0.961 . S
H3008 C2992 0.931 . S
H3009 C2997 0.930 . S
H3010 C2998 0.956 . S
H3011 C2998 0.961 . S
H3012 C2998 0.961 . S
H3013 C2999 0.958 . S
H3014 C2999 0.961 . S
H3015 C2999 0.960 . S
C3016 C3017 1.391 . S
C3016 C3018 1.394 . S
C3016 H3032 0.931 . S
C3017 C3016 1.391 . S
C3017 C3021 1.376 . S
C3018 C3016 1.394 . S
C3018 C3019 1.369 . S
C3018 C3022 1.518 1_655 S
C3019 C3018 1.369 . S
C3019 C3020 1.410 . S
C3019 C3027 1.503 1_655 S
C3020 C3019 1.410 . S
C3020 C3021 1.392 . S
C3020 C3023 1.511 . S
C3021 C3017 1.376 . S
C3021 C3020 1.392 . S
C3021 H3033 0.929 . S
C3022 C3018 1.518 1_455 S
C3022 H3034 0.960 . S
C3022 H3035 0.975 . S
C3022 H3036 0.961 1_455 S
C3023 C3020 1.511 . S
C3023 H3037 0.961 . S
C3023 H3038 0.961 . S
C3023 H3039 0.961 . S
C3024 C3025 1.370 . S
C3024 C3026 1.363 . S
C3024 H3040 0.931 . S
C3025 C3024 1.370 . S
C3025 C3029 1.408 . S
C3026 C3024 1.363 . S
C3026 C3027 1.370 . S
C3026 C3030 1.524 . S
C3027 C3019 1.503 1_455 S
C3027 C3026 1.370 . S
C3027 C3028 1.403 . S
C3028 C3027 1.403 . S
C3028 C3029 1.404 . S
C3028 C3031 1.539 1_455 S
C3029 C3025 1.408 . S
C3029 C3028 1.404 . S
C3029 H3041 0.930 . S
C3030 C3026 1.524 . S
C3030 H3042 0.956 . S
C3030 H3043 0.987 . S
C3030 H3044 0.961 . S
C3031 C3028 1.539 1_655 S
C3031 H3045 0.958 . S
C3031 H3046 0.961 . S
C3031 H3047 0.960 . S
H3032 C3016 0.931 . S
H3033 C3021 0.929 . S
H3034 C3022 0.960 . S
H3035 C3022 0.975 . S
H3036 C3022 0.961 1_655 S
H3037 C3023 0.961 . S
H3038 C3023 0.961 . S
H3039 C3023 0.961 . S
H3040 C3024 0.931 . S
H3041 C3029 0.930 . S
H3042 C3030 0.956 . S
H3043 C3030 0.987 . S
H3044 C3030 0.961 . S
H3045 C3031 0.958 . S
H3046 C3031 0.961 . S
H3047 C3031 0.960 . S
C3048 C3049 1.391 . S
C3048 C3050 1.394 . S
C3048 H3064 0.931 . S
C3049 C3048 1.391 . S
C3049 C3053 1.376 . S
C3050 C3048 1.394 . S
C3050 C3051 1.369 . S
C3050 C3054 1.531 . S
C3051 C3050 1.369 . S
C3051 C3052 1.410 . S
C3051 C3059 1.503 . S
C3052 C3051 1.410 . S
C3052 C3053 1.392 . S
C3052 C3055 1.511 . S
C3053 C3049 1.376 . S
C3053 C3052 1.392 . S
C3053 H3065 0.929 . S
C3054 C3050 1.531 . S
C3054 H3066 0.960 . S
C3054 H3067 0.962 . S
C3054 H3068 0.960 . S
C3055 C3052 1.511 . S
C3055 H3069 0.961 . S
C3055 H3070 0.961 . S
C3055 H3071 0.961 . S
C3056 C3057 1.370 . S
C3056 C3058 1.363 . S
C3056 H3072 0.931 . S
C3057 C3056 1.370 . S
C3057 C3061 1.408 . S
C3058 C3056 1.363 . S
C3058 C3059 1.370 . S
C3058 C3062 1.524 . S
C3059 C3051 1.503 . S
C3059 C3058 1.370 . S
C3059 C3060 1.403 . S
C3060 C3059 1.403 . S
C3060 C3061 1.404 . S
C3060 C3063 1.539 . S
C3061 C3057 1.408 . S
C3061 C3060 1.404 . S
C3061 H3073 0.930 . S
C3062 C3058 1.524 . S
C3062 H3074 0.956 . S
C3062 H3075 0.961 . S
C3062 H3076 0.961 . S
C3063 C3060 1.539 . S
C3063 H3077 0.958 . S
C3063 H3078 0.961 . S
C3063 H3079 0.960 . S
H3064 C3048 0.931 . S
H3065 C3053 0.929 . S
H3066 C3054 0.960 . S
H3067 C3054 0.962 . S
H3068 C3054 0.960 . S
H3069 C3055 0.961 . S
H3070 C3055 0.961 . S
H3071 C3055 0.961 . S
H3072 C3056 0.931 . S
H3073 C3061 0.930 . S
H3074 C3062 0.956 . S
H3075 C3062 0.961 . S
H3076 C3062 0.961 . S
H3077 C3063 0.958 . S
H3078 C3063 0.961 . S
H3079 C3063 0.960 . S
C3080 C3081 1.391 . S
C3080 C3082 1.394 . S
C3080 H3096 0.931 . S
C3081 C3080 1.391 . S
C3081 C3085 1.376 . S
C3082 C3080 1.394 . S
C3082 C3083 1.369 . S
C3082 C3086 1.531 . S
C3083 C3082 1.369 . S
C3083 C3084 1.410 . S
C3083 C3091 1.503 1_545 S
C3084 C3083 1.410 . S
C3084 C3085 1.392 . S
C3084 C3087 1.511 1_545 S
C3085 C3081 1.376 . S
C3085 C3084 1.392 . S
C3085 H3097 0.929 . S
C3086 C3082 1.531 . S
C3086 H3098 0.960 . S
C3086 H3099 0.962 . S
C3086 H3100 0.960 . S
C3087 C3084 1.511 1_565 S
C3087 H3101 0.961 . S
C3087 H3102 0.961 . S
C3087 H3103 0.961 . S
C3088 C3089 1.370 . S
C3088 C3090 1.363 . S
C3088 H3104 0.931 . S
C3089 C3088 1.370 . S
C3089 C3093 1.408 . S
C3090 C3088 1.363 . S
C3090 C3091 1.370 . S
C3090 C3094 1.524 . S
C3091 C3083 1.503 1_565 S
C3091 C3090 1.370 . S
C3091 C3092 1.403 . S
C3092 C3091 1.403 . S
C3092 C3093 1.404 . S
C3092 C3095 1.539 . S
C3093 C3089 1.408 . S
C3093 C3092 1.404 . S
C3093 H3105 0.930 . S
C3094 C3090 1.524 . S
C3094 H3106 0.956 . S
C3094 H3107 0.961 . S
C3094 H3108 0.961 . S
C3095 C3092 1.539 . S
C3095 H3109 0.958 . S
C3095 H3110 0.961 . S
C3095 H3111 0.960 . S
H3096 C3080 0.931 . S
H3097 C3085 0.929 . S
H3098 C3086 0.960 . S
H3099 C3086 0.962 . S
H3100 C3086 0.960 . S
H3101 C3087 0.961 . S
H3102 C3087 0.961 . S
H3103 C3087 0.961 . S
H3104 C3088 0.931 . S
H3105 C3093 0.930 . S
H3106 C3094 0.956 . S
H3107 C3094 0.961 . S
H3108 C3094 0.961 . S
H3109 C3095 0.958 . S
H3110 C3095 0.961 . S
H3111 C3095 0.960 . S
C3112 C3113 1.391 . S
C3112 C3114 1.394 . S
C3112 H3128 0.931 . S
C3113 C3112 1.391 . S
C3113 C3117 1.376 . S
C3114 C3112 1.394 . S
C3114 C3115 1.369 . S
C3114 C3118 1.531 . S
C3115 C3114 1.369 . S
C3115 C3116 1.410 . S
C3115 C3123 1.503 . S
C3116 C3115 1.410 . S
C3116 C3117 1.392 . S
C3116 C3119 1.511 . S
C3117 C3113 1.376 . S
C3117 C3116 1.392 . S
C3117 H3129 0.929 . S
C3118 C3114 1.531 . S
C3118 H3130 0.960 . S
C3118 H3131 0.962 . S
C3118 H3132 0.960 . S
C3119 C3116 1.511 . S
C3119 H3133 0.961 . S
C3119 H3134 0.961 . S
C3119 H3135 0.961 . S
C3120 C3121 1.370 . S
C3120 C3122 1.363 1_655 S
C3120 H3136 0.931 . S
C3121 C3120 1.370 . S
C3121 C3125 1.408 . S
C3122 C3120 1.363 1_455 S
C3122 C3123 1.370 . S
C3122 C3126 1.524 . S
C3123 C3115 1.503 . S
C3123 C3122 1.370 . S
C3123 C3124 1.403 . S
C3124 C3123 1.403 . S
C3124 C3125 1.404 1_455 S
C3124 C3127 1.539 . S
C3125 C3121 1.408 . S
C3125 C3124 1.404 1_655 S
C3125 H3137 0.930 . S
C3126 C3122 1.524 . S
C3126 H3138 0.956 . S
C3126 H3139 0.961 . S
C3126 H3140 0.961 . S
C3127 C3124 1.539 . S
C3127 H3141 0.958 . S
C3127 H3142 0.961 . S
C3127 H3143 0.960 . S
H3128 C3112 0.931 . S
H3129 C3117 0.929 . S
H3130 C3118 0.960 . S
H3131 C3118 0.962 . S
H3132 C3118 0.960 . S
H3133 C3119 0.961 . S
H3134 C3119 0.961 . S
H3135 C3119 0.961 . S
H3136 C3120 0.931 . S
H3137 C3125 0.930 . S
H3138 C3126 0.956 . S
H3139 C3126 0.961 . S
H3140 C3126 0.961 . S
H3141 C3127 0.958 . S
H3142 C3127 0.961 . S
H3143 C3127 0.960 . S
C3144 C3145 1.391 . S
C3144 C3146 1.394 . S
C3144 H3160 0.931 . S
C3145 C3144 1.391 . S
C3145 C3149 1.376 . S
C3146 C3144 1.394 . S
C3146 C3147 1.369 . S
C3146 C3150 1.531 . S
C3147 C3146 1.369 . S
C3147 C3148 1.410 . S
C3147 C3155 1.503 . S
C3148 C3147 1.410 . S
C3148 C3149 1.392 . S
C3148 C3151 1.511 . S
C3149 C3145 1.376 . S
C3149 C3148 1.392 . S
C3149 H3161 0.929 . S
C3150 C3146 1.531 . S
C3150 H3162 0.960 . S
C3150 H3163 0.962 . S
C3150 H3164 0.960 . S
C3151 C3148 1.511 . S
C3151 H3165 0.961 . S
C3151 H3166 0.961 . S
C3151 H3167 0.961 . S
C3152 C3153 1.370 . S
C3152 C3154 1.363 . S
C3152 H3168 0.931 . S
C3153 C3152 1.370 . S
C3153 C3157 1.408 . S
C3154 C3152 1.363 . S
C3154 C3155 1.370 . S
C3154 C3158 1.524 . S
C3155 C3147 1.503 . S
C3155 C3154 1.370 . S
C3155 C3156 1.403 . S
C3156 C3155 1.403 . S
C3156 C3157 1.404 . S
C3156 C3159 1.539 . S
C3157 C3153 1.408 . S
C3157 C3156 1.404 . S
C3157 H3169 0.930 . S
C3158 C3154 1.524 . S
C3158 H3170 0.956 . S
C3158 H3171 0.961 . S
C3158 H3172 0.961 . S
C3159 C3156 1.539 . S
C3159 H3173 0.958 . S
C3159 H3174 0.961 . S
C3159 H3175 0.960 . S
H3160 C3144 0.931 . S
H3161 C3149 0.929 . S
H3162 C3150 0.960 . S
H3163 C3150 0.962 . S
H3164 C3150 0.960 . S
H3165 C3151 0.961 . S
H3166 C3151 0.961 . S
H3167 C3151 0.961 . S
H3168 C3152 0.931 . S
H3169 C3157 0.930 . S
H3170 C3158 0.956 . S
H3171 C3158 0.961 . S
H3172 C3158 0.961 . S
H3173 C3159 0.958 . S
H3174 C3159 0.961 . S
H3175 C3159 0.960 . S
C3176 C3177 1.391 . S
C3176 C3178 1.394 . S
C3176 H3192 0.931 . S
C3177 C3176 1.391 . S
C3177 C3181 1.376 . S
C3178 C3176 1.394 . S
C3178 C3179 1.369 . S
C3178 C3182 1.531 . S
C3179 C3178 1.369 . S
C3179 C3180 1.410 . S
C3179 C3187 1.503 . S
C3180 C3179 1.410 . S
C3180 C3181 1.392 . S
C3180 C3183 1.511 . S
C3181 C3177 1.376 . S
C3181 C3180 1.392 . S
C3181 H3193 0.929 . S
C3182 C3178 1.531 . S
C3182 H3194 0.960 . S
C3182 H3195 0.962 . S
C3182 H3196 0.960 . S
C3183 C3180 1.511 . S
C3183 H3197 0.961 . S
C3183 H3198 0.961 . S
C3183 H3199 0.961 . S
C3184 C3185 1.370 . S
C3184 C3186 1.363 . S
C3184 H3200 0.931 . S
C3185 C3184 1.370 . S
C3185 C3189 1.408 . S
C3186 C3184 1.363 . S
C3186 C3187 1.370 . S
C3186 C3190 1.524 . S
C3187 C3179 1.503 . S
C3187 C3186 1.370 . S
C3187 C3188 1.403 . S
C3188 C3187 1.403 . S
C3188 C3189 1.404 . S
C3188 C3191 1.539 . S
C3189 C3185 1.408 . S
C3189 C3188 1.404 . S
C3189 H3201 0.930 . S
C3190 C3186 1.524 . S
C3190 H3202 0.956 . S
C3190 H3203 0.961 . S
C3190 H3204 0.961 . S
C3191 C3188 1.539 . S
C3191 H3205 0.958 . S
C3191 H3206 0.961 . S
C3191 H3207 0.960 . S
H3192 C3176 0.931 . S
H3193 C3181 0.929 . S
H3194 C3182 0.960 . S
H3195 C3182 0.962 . S
H3196 C3182 0.960 . S
H3197 C3183 0.961 . S
H3198 C3183 0.961 . S
H3199 C3183 0.961 . S
H3200 C3184 0.931 . S
H3201 C3189 0.930 . S
H3202 C3190 0.956 . S
H3203 C3190 0.961 . S
H3204 C3190 0.961 . S
H3205 C3191 0.958 . S
H3206 C3191 0.961 . S
H3207 C3191 0.960 . S
C3208 C3209 1.391 . S
C3208 C3210 1.394 . S
C3208 H3224 0.931 . S
C3209 C3208 1.391 . S
C3209 C3213 1.376 . S
C3210 C3208 1.394 . S
C3210 C3211 1.369 . S
C3210 C3214 1.531 . S
C3211 C3210 1.369 . S
C3211 C3212 1.410 . S
C3211 C3219 1.503 . S
C3212 C3211 1.410 . S
C3212 C3213 1.392 . S
C3212 C3215 1.511 . S
C3213 C3209 1.376 . S
C3213 C3212 1.392 . S
C3213 H3225 0.929 . S
C3214 C3210 1.531 . S
C3214 H3226 0.960 . S
C3214 H3227 0.962 . S
C3214 H3228 0.960 . S
C3215 C3212 1.511 . S
C3215 H3229 0.961 . S
C3215 H3230 0.961 . S
C3215 H3231 0.961 . S
C3216 C3217 1.370 . S
C3216 C3218 1.363 . S
C3216 H3232 0.931 . S
C3217 C3216 1.370 . S
C3217 C3221 1.408 . S
C3218 C3216 1.363 . S
C3218 C3219 1.370 . S
C3218 C3222 1.524 . S
C3219 C3211 1.503 . S
C3219 C3218 1.370 . S
C3219 C3220 1.403 . S
C3220 C3219 1.403 . S
C3220 C3221 1.404 . S
C3220 C3223 1.539 . S
C3221 C3217 1.408 . S
C3221 C3220 1.404 . S
C3221 H3233 0.930 . S
C3222 C3218 1.524 . S
C3222 H3234 0.956 . S
C3222 H3235 0.961 . S
C3222 H3236 0.961 . S
C3223 C3220 1.539 . S
C3223 H3237 0.958 . S
C3223 H3238 0.961 . S
C3223 H3239 0.960 . S
H3224 C3208 0.931 . S
H3225 C3213 0.929 . S
H3226 C3214 0.960 . S
H3227 C3214 0.962 . S
H3228 C3214 0.960 . S
H3229 C3215 0.961 . S
H3230 C3215 0.961 . S
H3231 C3215 0.961 . S
H3232 C3216 0.931 . S
H3233 C3221 0.930 . S
H3234 C3222 0.956 . S
H3235 C3222 0.961 . S
H3236 C3222 0.961 . S
H3237 C3223 0.958 . S
H3238 C3223 0.961 . S
H3239 C3223 0.960 . S
C1513 C55 0.954 . S
C1521 C226 0.918 . S
C1545 C58 0.954 . S
C1553 C139 0.965 . S
C1577 C142 0.951 . S
C1585 C223 0.965 . S
C1609 C307 0.951 . S
C1617 C394 0.926 . S
C1641 C478 0.957 . S
C1649 C391 0.966 . S
C1673 C475 0.953 . S
C1681 C310 0.919 . S
C1705 C730 0.805 . S
C1713 C559 0.980 . S
C1737 C562 0.955 . S
C1745 C643 0.966 . S
C1769 C727 0.964 . S
C1777 C646 0.907 . S
C1801 C898 0.805 . S
C1809 C811 0.980 . S
C1833 C895 0.983 . S
C1841 C982 0.871 . S
C1865 C814 0.806 . S
C1873 C979 0.979 . S
C1897 C1063 0.951 . S
C1905 C1234 0.926 . S
C1929 C1066 0.804 . S
C1937 C1147 0.979 . S
C1961 C1150 0.905 . S
C1969 C1231 0.969 . S
C1993 C1402 0.971 . S
C2001 C1315 0.964 . S
C2025 C1486 0.810 . S
C2033 C1399 0.979 . S
C2057 C1318 0.914 . S
C2065 C1483 0.968 . S
C2089 C56 1.905 . S
C2097 C476 1.880 . S
C2121 C308 1.847 . S
C2129 C140 1.877 . S
C2153 C392 1.897 . S
C2161 C224 1.867 . S
C2185 C560 1.843 . S
C2193 C980 1.886 . S
C2217 C644 1.896 . S
C2225 C812 1.867 . S
C2249 C896 1.862 . S
C2257 C728 1.893 . S
C2281 C1064 1.843 . S
C2289 C1484 1.886 . S
C2313 C1316 1.891 . S
C2321 C1148 1.888 . S
C2345 C1400 1.898 . S
C2353 C1232 1.867 . S
C2377 C908 2.070 . S
C2385 C68 2.094 . S
C2409 C152 2.093 . S
C2417 C992 2.097 . S
C2441 C824 2.075 . S
C2449 C236 2.097 . S
C2473 C320 2.087 . S
C2481 C1244 2.085 . S
C2505 C404 2.071 . S
C2513 C1076 2.090 . S
C2537 C1160 2.102 . S
C2545 C488 2.089 . S
C2569 C1412 2.090 . S
C2577 C572 2.098 . S
C2601 C656 2.077 . S
C2609 C1496 2.086 . S
C2633 C740 2.089 . S
C2641 C1328 2.085 . S
C2665 C238 1.474 . S
C2673 C67 1.716 . S
C2697 C70 1.565 . S
C2705 C151 1.707 . S
C2729 C235 1.695 . S
C2737 C154 1.545 . S
C2761 C406 1.570 . S
C2769 C319 1.708 . S
C2793 C490 1.477 . S
C2801 C403 1.718 . S
C2825 C487 1.708 . S
C2833 C322 1.535 . S
C2857 C742 1.565 . S
C2865 C571 1.707 . S
C2889 C655 1.712 . S
C2897 C574 1.510 . S
C2921 C658 1.478 . S
C2929 C739 1.718 . S
C2953 C823 1.721 . S
C2961 C910 1.528 . S
C2985 C907 1.722 . S
C2993 C994 1.506 . S
C3017 C826 1.481 . S
C3025 C991 1.718 . S
C3049 C1075 1.697 . S
C3057 C1246 1.551 . S
C3081 C1159 1.696 . S
C3089 C1078 1.545 . S
C3113 C1162 1.472 . S
C3121 C1243 1.717 . S
C3145 C1327 1.716 . S
C3153 C1414 1.523 . S
C3177 C1411 1.699 . S
C3185 C1498 1.544 . S
C3209 C1330 1.491 . S
C3217 C1495 1.718 . S
