# Generated by pormake.
# Topology vbe, (5)-cn, num edge types: 1
# Building blocks:
#     Node 0, Type 0, BuildingBlock: XOMCOT_clean_sbu_0, # of connection points: 5
#     Node 1, Type 0, BuildingBlock: XOMCOT_clean_sbu_0, # of connection points: 5
#     Node 2, Type 0, BuildingBlock: XOMCOT_clean_sbu_0, # of connection points: 5
#     Node 3, Type 0, BuildingBlock: XOMCOT_clean_sbu_0, # of connection points: 5
#     Node 4, Type 0, BuildingBlock: XOMCOT_clean_sbu_0, # of connection points: 5
#     Node 5, Type 0, BuildingBlock: XOMCOT_clean_sbu_0, # of connection points: 5
#     Node 6, Type 0, BuildingBlock: XOMCOT_clean_sbu_0, # of connection points: 5
#     Node 7, Type 0, BuildingBlock: XOMCOT_clean_sbu_0, # of connection points: 5
#     Node 8, Type 0, BuildingBlock: XOMCOT_clean_sbu_0, # of connection points: 5
#     Node 9, Type 0, BuildingBlock: XOMCOT_clean_sbu_0, # of connection points: 5
#     Node 10, Type 0, BuildingBlock: XOMCOT_clean_sbu_0, # of connection points: 5
#     Node 11, Type 0, BuildingBlock: XOMCOT_clean_sbu_0, # of connection points: 5
#     Node 12, Type 0, BuildingBlock: XOMCOT_clean_sbu_0, # of connection points: 5
#     Node 13, Type 0, BuildingBlock: XOMCOT_clean_sbu_0, # of connection points: 5
#     Node 14, Type 0, BuildingBlock: XOMCOT_clean_sbu_0, # of connection points: 5
#     Node 15, Type 0, BuildingBlock: XOMCOT_clean_sbu_0, # of connection points: 5
#     Edge 16, Type (0, 0), BuildingBlock: OJICUG_clean_linker_0, # of connection points: 2
#     Edge 17, Type (0, 0), BuildingBlock: OJICUG_clean_linker_0, # of connection points: 2
#     Edge 18, Type (0, 0), BuildingBlock: OJICUG_clean_linker_0, # of connection points: 2
#     Edge 19, Type (0, 0), BuildingBlock: OJICUG_clean_linker_0, # of connection points: 2
#     Edge 20, Type (0, 0), BuildingBlock: OJICUG_clean_linker_0, # of connection points: 2
#     Edge 21, Type (0, 0), BuildingBlock: OJICUG_clean_linker_0, # of connection points: 2
#     Edge 22, Type (0, 0), BuildingBlock: OJICUG_clean_linker_0, # of connection points: 2
#     Edge 23, Type (0, 0), BuildingBlock: OJICUG_clean_linker_0, # of connection points: 2
#     Edge 24, Type (0, 0), BuildingBlock: OJICUG_clean_linker_0, # of connection points: 2
#     Edge 25, Type (0, 0), BuildingBlock: OJICUG_clean_linker_0, # of connection points: 2
#     Edge 26, Type (0, 0), BuildingBlock: OJICUG_clean_linker_0, # of connection points: 2
#     Edge 27, Type (0, 0), BuildingBlock: OJICUG_clean_linker_0, # of connection points: 2
#     Edge 28, Type (0, 0), BuildingBlock: OJICUG_clean_linker_0, # of connection points: 2
#     Edge 29, Type (0, 0), BuildingBlock: OJICUG_clean_linker_0, # of connection points: 2
#     Edge 30, Type (0, 0), BuildingBlock: OJICUG_clean_linker_0, # of connection points: 2
#     Edge 31, Type (0, 0), BuildingBlock: OJICUG_clean_linker_0, # of connection points: 2
#     Edge 32, Type (0, 0), BuildingBlock: OJICUG_clean_linker_0, # of connection points: 2
#     Edge 33, Type (0, 0), BuildingBlock: OJICUG_clean_linker_0, # of connection points: 2
#     Edge 34, Type (0, 0), BuildingBlock: OJICUG_clean_linker_0, # of connection points: 2
#     Edge 35, Type (0, 0), BuildingBlock: OJICUG_clean_linker_0, # of connection points: 2
#     Edge 36, Type (0, 0), BuildingBlock: OJICUG_clean_linker_0, # of connection points: 2
#     Edge 37, Type (0, 0), BuildingBlock: OJICUG_clean_linker_0, # of connection points: 2
#     Edge 38, Type (0, 0), BuildingBlock: OJICUG_clean_linker_0, # of connection points: 2
#     Edge 39, Type (0, 0), BuildingBlock: OJICUG_clean_linker_0, # of connection points: 2
#     Edge 40, Type (0, 0), BuildingBlock: OJICUG_clean_linker_0, # of connection points: 2
#     Edge 41, Type (0, 0), BuildingBlock: OJICUG_clean_linker_0, # of connection points: 2
#     Edge 42, Type (0, 0), BuildingBlock: OJICUG_clean_linker_0, # of connection points: 2
#     Edge 43, Type (0, 0), BuildingBlock: OJICUG_clean_linker_0, # of connection points: 2
#     Edge 44, Type (0, 0), BuildingBlock: OJICUG_clean_linker_0, # of connection points: 2
#     Edge 45, Type (0, 0), BuildingBlock: OJICUG_clean_linker_0, # of connection points: 2
#     Edge 46, Type (0, 0), BuildingBlock: OJICUG_clean_linker_0, # of connection points: 2
#     Edge 47, Type (0, 0), BuildingBlock: OJICUG_clean_linker_0, # of connection points: 2
#     Edge 48, Type (0, 0), BuildingBlock: OJICUG_clean_linker_0, # of connection points: 2
#     Edge 49, Type (0, 0), BuildingBlock: OJICUG_clean_linker_0, # of connection points: 2
#     Edge 50, Type (0, 0), BuildingBlock: OJICUG_clean_linker_0, # of connection points: 2
#     Edge 51, Type (0, 0), BuildingBlock: OJICUG_clean_linker_0, # of connection points: 2
#     Edge 52, Type (0, 0), BuildingBlock: OJICUG_clean_linker_0, # of connection points: 2
#     Edge 53, Type (0, 0), BuildingBlock: OJICUG_clean_linker_0, # of connection points: 2
#     Edge 54, Type (0, 0), BuildingBlock: OJICUG_clean_linker_0, # of connection points: 2
#     Edge 55, Type (0, 0), BuildingBlock: OJICUG_clean_linker_0, # of connection points: 2
# Relax obj value: 0.342
# Max RMSD: 0.249
# Mean RMSD: 0.249
data_MOF--net-vbe--node1-XOMCOT_clean_sbu_0--edge1-OJICUG_clean_linker_0
_symmetry_space_group_name_H-M    P1
_symmetry_Int_Tables_number       1
_symmetry_cell_setting            triclinic
loop_
_symmetry_equiv_pos_as_xyz
'x, y, z'
_cell_length_a     36.518274
_cell_length_b     28.133775
_cell_length_c     42.334176
_cell_angle_alpha  90.03369
_cell_angle_beta   89.970705
_cell_angle_gamma 89.990643
loop_
_atom_site_label
_atom_site_type_symbol
_atom_site_fract_x
_atom_site_fract_y
_atom_site_fract_z
_atom_type_partial_charge
Co0 Co 0.06584 0.08351 0.36222 0.0
C1 C 0.04614 0.02406 0.41552 0.0
C2 C 1.00236 0.02686 0.38192 0.0
C3 C 0.98947 0.00618 0.40928 0.0
N4 N 0.03802 0.03767 0.38588 0.0
N5 N 0.01702 0.00521 0.43048 0.0
H6 H 0.0719 0.03155 0.42688 0.0
H7 H 0.98605 0.03722 0.36175 0.0
C8 C 0.03959 0.01389 0.31048 0.0
O9 O 0.03824 0.97664 0.32912 0.0
N10 N 0.09378 0.13008 0.33962 0.0
C11 C 0.12484 0.15156 0.34924 0.0
C12 C 0.13546 0.18348 0.32646 0.0
C13 C 0.08545 0.14967 0.31167 0.0
N14 N 0.11059 0.18213 0.30299 0.0
C15 C 0.13191 0.05538 0.39332 0.0
C16 C 0.16014 0.00024 0.34526 0.0
C17 C 0.18302 0.01172 0.37085 0.0
C18 C 0.1679 0.03896 0.3954 0.0
C19 C 0.12461 0.0187 0.34362 0.0
N20 N 0.11086 0.04649 0.3673 0.0
H21 H 0.12197 0.07822 0.4119 0.0
H22 H 0.10939 0.01211 0.32239 0.0
H23 H 0.13847 0.14537 0.37148 0.0
H24 H 0.0615 0.14051 0.29804 0.0
O25 O 0.0684 0.12457 0.39935 0.0
O26 O 0.02462 0.12608 0.36324 0.0
O27 O 0.0521 0.05362 0.32043 0.0
C28 C 0.0384 0.14393 0.38883 0.0
H29 H 0.96129 -0.00327 0.41413 0.0
H30 H 0.15909 0.20667 0.32742 0.0
H31 H 0.16973 0.9783 0.32596 0.0
H32 H 0.18409 0.04996 0.4155 0.0
Co33 Co 0.45602 0.89094 0.3629 0.0
C34 C 0.4757 0.9508 0.41608 0.0
C35 C 0.51934 0.94811 0.38231 0.0
C36 C 0.53226 0.96905 0.40957 0.0
N37 N 0.48374 0.93705 0.38643 0.0
N38 N 0.5048 0.96997 0.43089 0.0
H39 H 0.45002 0.9432 0.42757 0.0
H40 H 0.53561 0.93773 0.36209 0.0
C41 C 0.48215 0.96024 0.31095 0.0
O42 O 0.48307 -0.00228 0.32944 0.0
N43 N 0.42819 0.84412 0.34042 0.0
C44 C 0.39715 0.82267 0.35012 0.0
C45 C 0.38651 0.79064 0.3274 0.0
C46 C 0.43649 0.82441 0.31247 0.0
N47 N 0.41135 0.7919 0.30387 0.0
C48 C 0.38993 0.91951 0.39386 0.0
C49 C 0.36152 0.97338 0.3453 0.0
C50 C 0.33868 0.96239 0.37102 0.0
C51 C 0.35388 0.9358 0.39582 0.0
C52 C 0.39709 0.95506 0.3438 0.0
N53 N 0.41095 0.92793 0.36775 0.0
H54 H 0.39992 0.8971 0.41262 0.0
H55 H 0.41226 0.96113 0.32247 0.0
H56 H 0.38352 0.82902 0.37236 0.0
H57 H 0.4604 0.83356 0.29877 0.0
O58 O 0.45335 0.85025 0.40017 0.0
O59 O 0.49727 0.84843 0.36416 0.0
O60 O 0.46991 0.92045 0.32104 0.0
C61 C 0.4834 0.83081 0.38978 0.0
H62 H 0.56042 0.97872 0.41427 0.0
H63 H 0.36288 0.76746 0.32844 0.0
H64 H 0.35186 -0.00522 0.32579 0.0
H65 H 0.33771 0.92519 0.41603 0.0
Co66 Co 0.56628 0.88946 0.1312 0.0
C67 C 0.54646 0.94849 0.07771 0.0
C68 C 0.50271 0.94581 0.11137 0.0
C69 C 0.48979 0.96636 0.08399 0.0
N70 N 0.53838 0.93502 0.10739 0.0
N71 N 0.51733 0.96726 0.06275 0.0
H72 H 0.57223 0.94099 0.06633 0.0
H73 H 0.48642 0.93555 0.1316 0.0
C74 C 0.53984 0.95939 0.18272 0.0
O75 O 0.53848 -0.00352 0.16394 0.0
N76 N 0.5943 0.84315 0.15395 0.0
C77 C 0.62549 0.82183 0.14446 0.0
C78 C 0.6361 0.79001 0.16729 0.0
C79 C 0.58587 0.82355 0.18189 0.0
N80 N 0.61108 0.79125 0.19068 0.0
C81 C 0.63229 0.91776 0.1 0.0
C82 C 0.66036 0.97313 0.14799 0.0
C83 C 0.68327 0.96169 0.12239 0.0
C84 C 0.66824 0.93435 0.09787 0.0
C85 C 0.62489 0.95451 0.14968 0.0
N86 N 0.61121 0.92663 0.12603 0.0
H87 H 0.62242 0.89482 0.08146 0.0
H88 H 0.60966 0.96105 0.17092 0.0
H89 H 0.63923 0.82806 0.12226 0.0
H90 H 0.5618 0.83257 0.1954 0.0
O91 O 0.56902 0.84816 0.0942 0.0
O92 O 0.52517 0.84673 0.13029 0.0
O93 O 0.5524 0.91959 0.1729 0.0
C94 C 0.53904 0.82876 0.10476 0.0
H95 H 0.4616 0.97579 0.07917 0.0
H96 H 0.65981 0.76696 0.16643 0.0
H97 H 0.66989 -0.00487 0.16727 0.0
H98 H 0.68447 0.92339 0.07777 0.0
Co99 Co 0.95581 0.08391 0.13058 0.0
C100 C 0.97578 0.02463 0.07715 0.0
C101 C 0.01935 0.02728 0.11095 0.0
C102 C 0.03238 0.00659 0.08363 0.0
N103 N 0.98373 0.03818 0.10685 0.0
N104 N 1.00496 0.0057 0.0623 0.0
H105 H 0.95009 0.03218 0.06569 0.0
H106 H 0.03555 0.03756 0.13122 0.0
C107 C 0.9821 0.01425 0.18223 0.0
O108 O 0.98319 0.97698 0.16356 0.0
N109 N 0.92779 0.13037 0.15324 0.0
C110 C 0.8966 0.15161 0.1437 0.0
C111 C 0.8859 0.18349 0.1665 0.0
C112 C 0.9361 0.15005 0.18119 0.0
N113 N 0.91085 0.18235 0.18993 0.0
C114 C 0.88986 0.05515 0.09949 0.0
C115 C 0.86162 0.00077 0.14788 0.0
C116 C 0.83876 0.01179 0.1222 0.0
C117 C 0.85388 0.03863 0.09747 0.0
C118 C 0.8971 0.01931 0.14945 0.0
N119 N 0.91089 0.04669 0.12558 0.0
H120 H 0.89979 0.07777 0.08081 0.0
H121 H 0.91225 0.0132 0.17077 0.0
H122 H 0.88292 0.14525 0.12149 0.0
H123 H 0.96013 0.14106 0.19476 0.0
O124 O 0.95302 0.12493 0.09346 0.0
O125 O 0.9969 0.12665 0.12948 0.0
O126 O 0.96975 0.05408 0.17232 0.0
C127 C 0.98301 0.14441 0.10392 0.0
H128 H 0.06058 -0.00295 0.07891 0.0
H129 H 0.86217 0.20649 0.16559 0.0
H130 H 0.85201 0.97917 0.16733 0.0
H131 H 0.83769 0.04927 0.07729 0.0
Co132 Co 0.95654 0.88879 0.63075 0.0
C133 C 0.97608 0.94817 0.57735 0.0
C134 C 0.01993 0.94549 0.61089 0.0
C135 C 0.03273 0.96621 0.58352 0.0
N136 N 0.98428 0.93459 0.60698 0.0
N137 N 1.00514 0.96711 0.56235 0.0
H138 H 0.95031 0.94062 0.56603 0.0
H139 H 0.03629 0.93519 0.63105 0.0
C140 C 0.98296 0.95852 0.68236 0.0
O141 O 0.98408 -0.00423 0.6637 0.0
N142 N 0.92867 0.84227 0.65345 0.0
C143 C 0.89766 0.82066 0.64385 0.0
C144 C 0.88702 0.78888 0.66669 0.0
C145 C 0.93695 0.8229 0.68149 0.0
N146 N 0.91183 0.79045 0.69022 0.0
C147 C 0.89036 0.91701 0.59984 0.0
C148 C 0.86241 0.97226 0.64797 0.0
C149 C 0.83943 0.9609 0.62243 0.0
C150 C 0.85439 0.93358 0.59784 0.0
C151 C 0.89789 0.95365 0.64953 0.0
N152 N 0.91152 0.92585 0.6258 0.0
H153 H 0.90019 0.89414 0.58124 0.0
H154 H 0.91317 0.96014 0.67074 0.0
H155 H 0.88407 0.8267 0.62156 0.0
H156 H 0.96083 0.83224 0.69515 0.0
O157 O 0.9538 0.84771 0.59364 0.0
O158 O 0.99774 0.84619 0.6296 0.0
O159 O 0.97049 0.91873 0.67247 0.0
C160 C 0.98384 0.82833 0.60406 0.0
H161 H 0.06089 0.97575 0.57864 0.0
H162 H 0.86343 0.76563 0.66575 0.0
H163 H 0.85293 -0.00578 0.6673 0.0
H164 H 0.83811 0.92268 0.57777 0.0
Co165 Co 0.56747 0.08517 0.63129 0.0
C166 C 0.5471 0.02681 0.57751 0.0
C167 C 0.50371 0.02912 0.61154 0.0
C168 C 0.49051 0.00882 0.58417 0.0
N169 N 0.53933 0.03998 0.60733 0.0
N170 N 0.51781 0.00813 0.5627 0.0
H171 H 0.57274 0.0344 0.56596 0.0
H172 H 0.48764 0.03916 0.63195 0.0
C173 C 0.54083 0.01522 0.68267 0.0
O174 O 0.53984 0.97803 0.66393 0.0
N175 N 0.59567 0.13108 0.65423 0.0
C176 C 0.6272 0.15182 0.64502 0.0
C177 C 0.63781 0.18357 0.66792 0.0
C178 C 0.58709 0.15093 0.68207 0.0
N179 N 0.61247 0.18286 0.69107 0.0
C180 C 0.63319 0.05577 0.60005 0.0
C181 C 0.66125 0.00116 0.64839 0.0
C182 C 0.6841 0.01191 0.62263 0.0
C183 C 0.66907 0.03889 0.59794 0.0
C184 C 0.62587 0.02006 0.65004 0.0
N185 N 0.61218 0.04752 0.62619 0.0
H186 H 0.62337 0.07852 0.5814 0.0
H187 H 0.61076 0.01419 0.67143 0.0
H188 H 0.64117 0.14522 0.62296 0.0
H189 H 0.56275 0.14231 0.69537 0.0
O190 O 0.57065 0.12654 0.59438 0.0
O191 O 0.52664 0.12834 0.63032 0.0
O192 O 0.55321 0.05509 0.67287 0.0
C193 C 0.54073 0.1462 0.60486 0.0
H194 H 0.46229 -0.00064 0.57955 0.0
H195 H 0.66175 0.20622 0.66725 0.0
H196 H 0.67079 0.97951 0.66783 0.0
H197 H 0.68527 0.04936 0.57771 0.0
Co198 Co 0.45652 0.08377 0.86272 0.0
C199 C 0.47618 0.02415 0.91595 0.0
C200 C 0.51997 0.02702 0.88234 0.0
C201 C 0.53285 0.00628 0.90967 0.0
N202 N 0.48431 0.03784 0.88632 0.0
N203 N 0.50528 0.00526 0.93089 0.0
H204 H 0.45041 0.03163 0.92734 0.0
H205 H 0.5363 0.03745 0.86218 0.0
C206 C 0.48296 0.01445 0.81085 0.0
O207 O 0.48414 0.97707 0.82939 0.0
N208 N 0.42863 0.13042 0.84018 0.0
C209 C 0.39739 0.15161 0.84969 0.0
C210 C 0.38684 0.18366 0.82698 0.0
C211 C 0.43713 0.15033 0.81235 0.0
N212 N 0.41194 0.18269 0.80365 0.0
C213 C 0.39043 0.05515 0.89364 0.0
C214 C 0.36239 0.0005 0.84527 0.0
C215 C 0.33945 0.01157 0.87092 0.0
C216 C 0.35446 0.03858 0.89563 0.0
C217 C 0.39787 0.01911 0.84374 0.0
N218 N 0.41154 0.04662 0.86759 0.0
H219 H 0.40028 0.07783 0.91233 0.0
H220 H 0.41312 0.01288 0.82246 0.0
H221 H 0.38357 0.14511 0.87182 0.0
H222 H 0.46124 0.14143 0.79883 0.0
O223 O 0.45373 0.1246 0.89996 0.0
O224 O 0.49768 0.12641 0.86398 0.0
O225 O 0.47049 0.05416 0.82088 0.0
C226 C 0.48376 0.14407 0.88958 0.0
H227 H 0.56103 -0.00317 0.9145 0.0
H228 H 0.36309 0.20666 0.82788 0.0
H229 H 0.35287 0.97878 0.82585 0.0
H230 H 0.33821 0.04927 0.91578 0.0
Co231 Co 0.06696 0.88909 0.86227 0.0
C232 C 0.04697 0.94846 0.91563 0.0
C233 C 1.00339 0.9457 0.88185 0.0
C234 C 0.99035 0.9664 0.90916 0.0
N235 N 0.03902 0.93486 0.88594 0.0
N236 N 0.01778 0.96736 0.93048 0.0
H237 H 0.07267 0.94096 0.92709 0.0
H238 H 0.98718 0.93536 0.8616 0.0
C239 C 0.04066 0.95862 0.81053 0.0
O240 O 0.03939 -0.0041 0.82919 0.0
N241 N 0.09499 0.84259 0.83965 0.0
C242 C 0.12624 0.82145 0.84913 0.0
C243 C 0.13683 0.7894 0.8264 0.0
C244 C 0.08652 0.82266 0.81182 0.0
N245 N 0.11174 0.79032 0.80308 0.0
C246 C 0.13289 0.91778 0.89339 0.0
C247 C 0.16113 0.9724 0.84512 0.0
C248 C 0.18398 0.9613 0.8708 0.0
C249 C 0.16886 0.93432 0.89546 0.0
C250 C 0.12565 0.95382 0.8435 0.0
N251 N 0.11188 0.92631 0.8673 0.0
H252 H 0.12296 0.89509 0.91204 0.0
H253 H 0.11049 0.96005 0.8222 0.0
H254 H 0.14003 0.82797 0.87127 0.0
H255 H 0.06239 0.83148 0.79834 0.0
O256 O 0.06969 0.84812 0.89939 0.0
O257 O 0.02585 0.84637 0.86333 0.0
O258 O 0.05311 0.91886 0.82048 0.0
C259 C 0.03971 0.82863 0.88891 0.0
H260 H 0.96215 0.97589 0.91389 0.0
H261 H 0.16058 0.76642 0.82729 0.0
H262 H 0.17073 -0.00589 0.82573 0.0
H263 H 0.18503 0.9236 0.91563 0.0
Co264 Co 0.56636 0.58596 0.36364 0.0
C265 C 0.54657 0.52711 0.41729 0.0
C266 C 0.50288 0.52949 0.38359 0.0
C267 C 0.48997 0.50894 0.41097 0.0
N268 N 0.53851 0.54046 0.38758 0.0
N269 N 0.51746 0.5082 0.43224 0.0
H270 H 0.57229 0.53472 0.42868 0.0
H271 H 0.48661 0.5396 0.36333 0.0
C272 C 0.53973 0.51606 0.31219 0.0
O273 O 0.53885 0.47883 0.33088 0.0
N274 N 0.59431 0.63217 0.34076 0.0
C275 C 0.62557 0.6534 0.35014 0.0
C276 C 0.63618 0.68513 0.32725 0.0
C277 C 0.58586 0.65171 0.31281 0.0
N278 N 0.6111 0.68391 0.30392 0.0
C279 C 0.63242 0.55709 0.39449 0.0
C280 C 0.6603 0.50238 0.34605 0.0
C281 C 0.68331 0.51336 0.37166 0.0
C282 C 0.66837 0.5404 0.3964 0.0
C283 C 0.62486 0.5211 0.34459 0.0
N284 N 0.61125 0.54861 0.36849 0.0
H285 H 0.62265 0.57984 0.41318 0.0
H286 H 0.60961 0.51501 0.32332 0.0
H287 H 0.63936 0.64713 0.37231 0.0
H288 H 0.56177 0.64266 0.29934 0.0
O289 O 0.56946 0.62719 0.40066 0.0
O290 O 0.52535 0.62884 0.36485 0.0
O291 O 0.55208 0.55595 0.32201 0.0
C292 C 0.53944 0.64672 0.3903 0.0
H293 H 0.4618 0.49934 0.41576 0.0
H294 H 0.65994 0.70809 0.32803 0.0
H295 H 0.66975 0.48065 0.3266 0.0
H296 H 0.68468 0.55104 0.41651 0.0
Co297 Co 0.95529 0.38879 0.36237 0.0
C298 C 0.97546 0.44777 0.4159 0.0
C299 C 0.01897 0.44513 0.382 0.0
C300 C 0.03206 0.46575 0.40931 0.0
N301 N 0.98334 0.43429 0.38617 0.0
N302 N 1.00468 0.46664 0.43071 0.0
H303 H 0.94978 0.44027 0.42742 0.0
H304 H 0.03512 0.4349 0.36168 0.0
C305 C 0.98185 0.45839 0.31072 0.0
O306 O 0.98303 0.49567 0.32938 0.0
N307 N 0.92717 0.34259 0.33962 0.0
C308 C 0.89576 0.32169 0.34897 0.0
C309 C 0.88517 0.28976 0.32616 0.0
C310 C 0.93572 0.32265 0.3118 0.0
N311 N 0.91041 0.29052 0.30294 0.0
C312 C 0.88948 0.41791 0.39357 0.0
C313 C 0.86143 0.47278 0.34536 0.0
C314 C 0.83858 0.46193 0.37111 0.0
C315 C 0.85361 0.43479 0.39572 0.0
C316 C 0.89681 0.45387 0.34366 0.0
N317 N 0.91049 0.42628 0.36745 0.0
H318 H 0.89932 0.39513 0.41219 0.0
H319 H 0.91196 0.45992 0.32231 0.0
H320 H 0.88185 0.32829 0.37105 0.0
H321 H 0.95997 0.33133 0.29841 0.0
O322 O 0.95232 0.34767 0.39941 0.0
O323 O 0.99625 0.34581 0.3634 0.0
O324 O 0.96937 0.41863 0.32065 0.0
C325 C 0.98226 0.32805 0.38893 0.0
H326 H 0.06027 0.47527 0.41397 0.0
H327 H 0.86131 0.26697 0.32694 0.0
H328 H 0.8519 0.49456 0.32598 0.0
H329 H 0.83741 0.42423 0.41593 0.0
Co330 Co 0.06627 0.38881 0.13079 0.0
C331 C 0.04667 0.4483 0.07742 0.0
C332 C 1.00291 0.44566 0.11107 0.0
C333 C 0.99006 0.46646 0.08376 0.0
N334 N 0.03854 0.43468 0.10707 0.0
N335 N 0.0176 0.46734 0.06251 0.0
H336 H 0.07242 0.44071 0.06603 0.0
H337 H 0.98658 0.43537 0.13127 0.0
C338 C 0.03977 0.45831 0.18255 0.0
O339 O 0.03882 0.49567 0.16397 0.0
N340 N 0.09411 0.34223 0.15342 0.0
C341 C 0.12532 0.32095 0.14392 0.0
C342 C 0.13585 0.28895 0.16666 0.0
C343 C 0.08561 0.32244 0.18129 0.0
N344 N 0.11078 0.29005 0.19001 0.0
C345 C 0.13244 0.41751 0.09999 0.0
C346 C 0.16042 0.47186 0.14853 0.0
C347 C 0.18343 0.46085 0.12291 0.0
C348 C 0.16844 0.43399 0.09812 0.0
C349 C 0.12492 0.45332 0.14996 0.0
N350 N 0.11126 0.42597 0.12601 0.0
H351 H 0.12261 0.39491 0.08125 0.0
H352 H 0.10965 0.45944 0.17123 0.0
H353 H 0.13913 0.32737 0.12177 0.0
H354 H 0.06153 0.33144 0.19482 0.0
O355 O 0.0692 0.3479 0.0936 0.0
O356 O 0.02513 0.34616 0.12947 0.0
O357 O 0.05213 0.4185 0.17257 0.0
C358 C 0.03915 0.32843 0.10393 0.0
H359 H 0.96191 0.47609 0.07897 0.0
H360 H 0.15957 0.26591 0.16578 0.0
H361 H 0.16991 0.49346 0.16802 0.0
H362 H 0.18473 0.42335 0.07798 0.0
Co363 Co 0.4557 0.58427 0.13206 0.0
C364 C 0.47576 0.52474 0.07879 0.0
C365 C 0.51933 0.52767 0.11257 0.0
C366 C 0.53239 0.50688 0.08529 0.0
N367 N 0.48369 0.53846 0.10845 0.0
N368 N 0.50497 0.50582 0.06396 0.0
H369 H 0.45006 0.53216 0.0673 0.0
H370 H 0.53552 0.5381 0.13281 0.0
C371 C 0.48207 0.51506 0.18398 0.0
O372 O 0.48342 0.47767 0.16542 0.0
N373 N 0.42763 0.63081 0.15461 0.0
C374 C 0.39626 0.65172 0.14519 0.0
C375 C 0.38571 0.68388 0.16788 0.0
C376 C 0.4362 0.65099 0.18234 0.0
N377 N 0.41093 0.68325 0.19109 0.0
C378 C 0.38984 0.55533 0.10093 0.0
C379 C 0.36165 0.50067 0.14921 0.0
C380 C 0.33883 0.51157 0.12346 0.0
C381 C 0.35394 0.5386 0.09881 0.0
C382 C 0.39707 0.51944 0.15087 0.0
N383 N 0.41082 0.54695 0.12706 0.0
H384 H 0.39974 0.57802 0.08228 0.0
H385 H 0.41221 0.51333 0.1722 0.0
H386 H 0.38236 0.64498 0.12314 0.0
H387 H 0.46043 0.64237 0.19575 0.0
O388 O 0.45293 0.6251 0.09487 0.0
O389 O 0.49676 0.62707 0.13092 0.0
O390 O 0.46957 0.55472 0.17391 0.0
C391 C 0.48288 0.64468 0.10531 0.0
H392 H 0.5606 0.4974 0.08059 0.0
H393 H 0.36187 0.70671 0.16703 0.0
H394 H 0.35207 0.47895 0.1686 0.0
H395 H 0.33779 0.54919 0.0786 0.0
Co396 Co 0.45676 0.39034 0.63201 0.0
C397 C 0.47632 0.45036 0.57894 0.0
C398 C 0.52011 0.44743 0.61251 0.0
C399 C 0.53294 0.46841 0.58523 0.0
N400 N 0.48447 0.43651 0.60852 0.0
N401 N 0.50538 0.46946 0.56403 0.0
H402 H 0.45056 0.44286 0.56756 0.0
H403 H 0.53646 0.43696 0.63264 0.0
C404 C 0.48279 0.45968 0.68402 0.0
O405 O 0.48418 0.49704 0.66548 0.0
N406 N 0.42893 0.34345 0.65441 0.0
C407 C 0.39799 0.32182 0.64466 0.0
C408 C 0.3874 0.2897 0.66732 0.0
C409 C 0.43723 0.32374 0.68234 0.0
N410 N 0.41219 0.29107 0.69087 0.0
C411 C 0.39063 0.41821 0.60091 0.0
C412 C 0.36227 0.47331 0.64894 0.0
C413 C 0.33943 0.46179 0.62332 0.0
C414 C 0.35461 0.43455 0.59879 0.0
C415 C 0.39781 0.45492 0.65062 0.0
N416 N 0.41163 0.42715 0.62695 0.0
H417 H 0.40063 0.39543 0.58233 0.0
H418 H 0.41303 0.46159 0.67184 0.0
H419 H 0.38441 0.32804 0.62239 0.0
H420 H 0.4611 0.33296 0.69605 0.0
O421 O 0.45444 0.34953 0.59475 0.0
O422 O 0.49813 0.34802 0.63094 0.0
O423 O 0.4703 0.42001 0.67394 0.0
C424 C 0.48447 0.33025 0.60527 0.0
H425 H 0.5611 0.478 0.58041 0.0
H426 H 0.36387 0.26636 0.66624 0.0
H427 H 0.35263 0.49525 0.66822 0.0
H428 H 0.33847 0.42352 0.57867 0.0
Co429 Co 0.06673 0.58363 0.63076 0.0
C430 C 0.04678 0.52443 0.57727 0.0
C431 C 1.00325 0.52691 0.61116 0.0
C432 C 0.99022 0.50621 0.58386 0.0
N433 N 0.03885 0.53793 0.607 0.0
N434 N 0.01761 0.50541 0.56247 0.0
H435 H 0.07244 0.53203 0.56576 0.0
H436 H 0.98706 0.53712 0.63147 0.0
C437 C 0.04025 0.51413 0.68248 0.0
O438 O 0.03948 0.4767 0.66394 0.0
N439 N 0.09471 0.63002 0.65347 0.0
C440 C 0.12598 0.65115 0.64398 0.0
C441 C 0.13663 0.68301 0.66679 0.0
C442 C 0.08632 0.64975 0.68139 0.0
N443 N 0.11159 0.68198 0.69017 0.0
C444 C 0.1327 0.55444 0.59984 0.0
C445 C 0.16091 0.50071 0.64855 0.0
C446 C 0.18381 0.51145 0.62282 0.0
C447 C 0.16871 0.53796 0.59794 0.0
C448 C 0.12539 0.51922 0.64999 0.0
N449 N 0.11162 0.54626 0.62595 0.0
H450 H 0.12281 0.57687 0.58104 0.0
H451 H 0.11021 0.51342 0.67135 0.0
H452 H 0.13974 0.64469 0.62181 0.0
H453 H 0.06224 0.64081 0.69494 0.0
O454 O 0.0698 0.62456 0.59362 0.0
O455 O 0.02572 0.6265 0.62949 0.0
O456 O 0.05249 0.55397 0.67249 0.0
C457 C 0.0398 0.64418 0.60397 0.0
H458 H 0.96204 0.49657 0.5792 0.0
H459 H 0.16042 0.70594 0.66592 0.0
H460 H 0.17049 0.47939 0.66813 0.0
H461 H 0.18492 0.54841 0.57773 0.0
Co462 Co 0.9562 0.58405 0.86248 0.0
C463 C 0.97618 0.52484 0.91586 0.0
C464 C 0.01981 0.52756 0.88209 0.0
C465 C 0.03281 0.50693 0.90941 0.0
N466 N 0.98416 0.53838 0.88617 0.0
N467 N 1.00535 0.50599 0.93072 0.0
H468 H 0.95046 0.53232 0.92732 0.0
H469 H 0.03603 0.53786 0.86183 0.0
C470 C 0.98254 0.51441 0.81073 0.0
O471 O 0.98391 0.4772 0.82941 0.0
N472 N 0.92816 0.63046 0.83984 0.0
C473 C 0.8968 0.65146 0.84926 0.0
C474 C 0.88626 0.68348 0.82652 0.0
C475 C 0.93673 0.65046 0.81207 0.0
N476 N 0.91148 0.68269 0.80328 0.0
C477 C 0.89032 0.55541 0.89373 0.0
C478 C 0.8621 0.50043 0.84561 0.0
C479 C 0.83929 0.51155 0.87135 0.0
C480 C 0.8544 0.53873 0.89592 0.0
C481 C 0.89754 0.51914 0.84388 0.0
N482 N 0.9113 0.54682 0.86761 0.0
H483 H 0.90023 0.57823 0.91232 0.0
H484 H 0.91268 0.51286 0.82256 0.0
H485 H 0.8829 0.64488 0.87134 0.0
H486 H 0.96096 0.64175 0.79865 0.0
O487 O 0.95347 0.62517 0.89957 0.0
O488 O 0.9973 0.6268 0.86346 0.0
O489 O 0.97004 0.55416 0.82068 0.0
C490 C 0.98344 0.64463 0.88904 0.0
H491 H 0.06101 0.49744 0.91414 0.0
H492 H 0.86243 0.70634 0.82735 0.0
H493 H 0.85251 0.4786 0.82628 0.0
H494 H 0.83824 0.54947 0.91612 0.0
Co495 Co 0.56684 0.38886 0.86375 0.0
C496 C 0.54686 0.4479 0.91732 0.0
C497 C 0.50325 0.44527 0.88355 0.0
C498 C 0.49025 0.46593 0.91089 0.0
N499 N 0.53889 0.4344 0.88761 0.0
N500 N 0.51769 0.46682 0.9322 0.0
H501 H 0.57258 0.44039 0.92875 0.0
H502 H 0.48704 0.43503 0.86329 0.0
C503 C 0.54032 0.45867 0.81227 0.0
O504 O 0.53925 0.49586 0.83101 0.0
N505 N 0.59492 0.34259 0.84096 0.0
C506 C 0.62608 0.3213 0.85049 0.0
C507 C 0.63681 0.28952 0.82764 0.0
C508 C 0.58664 0.32304 0.81296 0.0
N509 N 0.61191 0.29077 0.80418 0.0
C510 C 0.63283 0.41768 0.89476 0.0
C511 C 0.66087 0.47225 0.84637 0.0
C512 C 0.68384 0.46115 0.87197 0.0
C513 C 0.66882 0.43421 0.8967 0.0
C514 C 0.62539 0.45368 0.84488 0.0
N515 N 0.61171 0.4262 0.86873 0.0
H516 H 0.62298 0.39499 0.91343 0.0
H517 H 0.61017 0.45985 0.8236 0.0
H518 H 0.63972 0.32754 0.87274 0.0
H519 H 0.56263 0.33209 0.79938 0.0
O520 O 0.56978 0.34768 0.90077 0.0
O521 O 0.52584 0.34599 0.86482 0.0
O522 O 0.55274 0.41882 0.82208 0.0
C523 C 0.53982 0.32814 0.89031 0.0
H524 H 0.46206 0.47549 0.91563 0.0
H525 H 0.66053 0.26649 0.82855 0.0
H526 H 0.67039 0.49394 0.82694 0.0
H527 H 0.68508 0.42351 0.91682 0.0
C528 C 1.00398 0.96884 0.2307 0.0
C529 C 0.99652 0.01204 0.21513 0.0
H530 H 0.02331 0.9351 0.2733 0.0
C531 C 1.0037 0.05472 0.2312 0.0
H532 H 0.99888 0.93526 0.219 0.0
C533 C 0.0176 0.05463 0.26178 0.0
C534 C 0.02512 0.01186 0.27759 0.0
H535 H 0.99901 0.08874 0.22006 0.0
H536 H 0.022 0.08857 0.27313 0.0
C537 C 0.01794 0.96875 0.26178 0.0
C538 C 0.51775 0.00498 0.2311 0.0
C539 C 0.5254 0.96173 0.21563 0.0
H540 H 0.49824 0.03888 0.27362 0.0
C541 C 0.51834 0.91911 0.23178 0.0
H542 H 0.52276 0.03852 0.21933 0.0
C543 C 0.50438 0.91931 0.26235 0.0
C544 C 0.49669 0.96214 0.27807 0.0
H545 H 0.52315 0.88505 0.22071 0.0
H546 H 0.50006 0.88542 0.27377 0.0
C547 C 0.50374 0.00519 0.26218 0.0
C548 C 1.00535 0.91795 0.73098 0.0
C549 C 0.99755 0.96067 0.7152 0.0
H550 H 0.02419 0.884 0.77266 0.0
C551 C 1.00453 0.00383 0.731 0.0
H552 H 1.0011 0.88398 0.71962 0.0
C553 C 0.01855 0.00385 0.76206 0.0
C554 C 0.02626 0.96072 0.77762 0.0
H555 H 0.99896 0.03743 0.7195 0.0
H556 H 0.02348 0.03747 0.77377 0.0
C557 C 0.01931 0.91797 0.76154 0.0
C558 C 0.51882 0.96965 0.73106 0.0
C559 C 0.52627 0.0129 0.71554 0.0
H560 H 0.49945 0.93578 0.7736 0.0
C561 C 0.51897 0.05554 0.73163 0.0
H562 H 0.52403 0.93611 0.71933 0.0
C563 C 0.50497 0.05535 0.76219 0.0
C564 C 0.49749 0.01253 0.77796 0.0
H565 H 0.52365 0.08959 0.72053 0.0
H566 H 0.50046 0.08926 0.77356 0.0
C567 C 0.50478 0.96947 0.76212 0.0
C568 C 0.51807 0.47043 0.2637 0.0
C569 C 0.52514 0.5137 0.27935 0.0
H570 H 0.49908 0.43648 0.22105 0.0
C571 C 0.51746 0.55631 0.26339 0.0
H572 H 0.52357 0.43691 0.27533 0.0
C573 C 0.50351 0.55607 0.23282 0.0
C574 C 0.49646 0.51321 0.21691 0.0
H575 H 0.52182 0.59037 0.27461 0.0
H576 H 0.49871 0.58996 0.22156 0.0
C577 C 0.50408 0.47019 0.23263 0.0
C578 C 1.00389 0.5036 0.26221 0.0
C579 C 0.99637 0.46046 0.27783 0.0
H580 H 0.02333 0.53719 0.21959 0.0
C581 C 1.00362 0.41772 0.26185 0.0
H582 H 0.99873 0.53722 0.27385 0.0
C583 C 0.01764 0.4177 0.23128 0.0
C584 C 0.02519 0.46042 0.21542 0.0
H585 H 0.9989 0.38375 0.27303 0.0
H586 H 0.02214 0.38372 0.22 0.0
C587 C 0.01795 0.50358 0.23115 0.0
C588 C 0.51835 0.5043 0.76392 0.0
C589 C 0.52585 0.46103 0.77938 0.0
H590 H 0.499 0.53825 0.72141 0.0
C591 C 0.51868 0.41842 0.76322 0.0
H592 H 0.52345 0.53782 0.7757 0.0
C593 C 0.50475 0.41867 0.73264 0.0
C594 C 0.49721 0.46152 0.71693 0.0
H595 H 0.5234 0.38435 0.77428 0.0
H596 H 0.50037 0.38479 0.72121 0.0
C597 C 0.50437 0.50455 0.73284 0.0
C598 C 1.0038 0.55493 0.76166 0.0
C599 C 0.99691 0.51224 0.77779 0.0
H600 H 0.02201 0.58881 0.7197 0.0
C601 C 1.00468 0.46906 0.76226 0.0
H602 H 0.99886 0.58894 0.77275 0.0
C603 C 0.01869 0.46899 0.73118 0.0
C604 C 0.02562 0.5121 0.71533 0.0
H605 H 0.9998 0.43547 0.77401 0.0
H606 H 0.02431 0.43535 0.71972 0.0
C607 C 0.01777 0.55487 0.73108 0.0
C608 C 0.07746 0.22276 0.2603 0.0
C609 C 0.11064 0.20963 0.27456 0.0
H610 H 0.05156 0.25852 0.22185 0.0
C611 C 0.14385 0.22311 0.26053 0.0
H612 H 0.05147 0.21316 0.27082 0.0
C613 C 0.1439 0.24918 0.23258 0.0
C614 C 0.11074 0.26247 0.2184 0.0
H615 H 0.16976 0.21296 0.27093 0.0
H616 H 0.16985 0.25951 0.2223 0.0
C617 C 0.0775 0.24908 0.23249 0.0
C618 C 0.37789 0.72436 0.23368 0.0
C619 C 0.41103 0.71111 0.21939 0.0
H620 H 0.3521 0.7607 0.27207 0.0
C621 C 0.44428 0.72474 0.23332 0.0
H622 H 0.35192 0.71385 0.22353 0.0
C623 C 0.44439 0.75121 0.26109 0.0
C624 C 0.41124 0.76429 0.27546 0.0
H625 H 0.47021 0.71534 0.2226 0.0
H626 H 0.4704 0.76097 0.27149 0.0
C627 C 0.378 0.7506 0.26158 0.0
C628 C 0.57789 0.72453 0.26128 0.0
C629 C 0.6111 0.71127 0.27543 0.0
H630 H 0.55191 0.76021 0.22284 0.0
C631 C 0.64429 0.72451 0.26124 0.0
H632 H 0.55192 0.71514 0.27192 0.0
C633 C 0.64428 0.75044 0.23324 0.0
C634 C 0.61108 0.76383 0.21915 0.0
H635 H 0.67022 0.71426 0.27157 0.0
H636 H 0.67021 0.76058 0.22285 0.0
C637 C 0.57788 0.7507 0.2334 0.0
C638 C 0.87737 0.24957 0.2603 0.0
C639 C 0.91051 0.26284 0.27455 0.0
H640 H 0.85159 0.2133 0.22191 0.0
C641 C 0.94377 0.24936 0.26053 0.0
H642 H 0.8514 0.25997 0.27052 0.0
C643 C 0.94388 0.223 0.23271 0.0
C644 C 0.91073 0.20987 0.21838 0.0
H645 H 0.9697 0.25875 0.27122 0.0
H646 H 0.96989 0.21336 0.22225 0.0
C647 C 0.87749 0.22343 0.23236 0.0
C648 C 0.94481 0.72392 0.76094 0.0
C649 C 0.91156 0.71035 0.77492 0.0
H650 H 0.9709 0.75989 0.72266 0.0
C651 C 0.87841 0.72346 0.76063 0.0
H652 H 0.97074 0.71463 0.77167 0.0
C653 C 0.8785 0.74949 0.73267 0.0
C654 C 0.91174 0.76311 0.71872 0.0
H655 H 0.85245 0.71299 0.77082 0.0
H656 H 0.85261 0.75947 0.72216 0.0
C657 C 0.9449 0.75019 0.73311 0.0
C658 C 0.64532 0.24967 0.76179 0.0
C659 C 0.61206 0.26332 0.7757 0.0
H660 H 0.67144 0.21311 0.72366 0.0
C661 C 0.57893 0.25032 0.76129 0.0
H662 H 0.6712 0.2597 0.7723 0.0
C663 C 0.57907 0.22402 0.73345 0.0
C664 C 0.61234 0.21045 0.71949 0.0
H665 H 0.5529 0.26001 0.77171 0.0
H666 H 0.55315 0.21473 0.7227 0.0
C667 C 0.64546 0.22358 0.73383 0.0
C668 C 0.3789 0.24974 0.73317 0.0
C669 C 0.41213 0.26343 0.71923 0.0
H670 H 0.35289 0.21309 0.77129 0.0
C671 C 0.4453 0.25037 0.73354 0.0
H672 H 0.353 0.25983 0.72272 0.0
C673 C 0.44523 0.22393 0.7613 0.0
C674 C 0.412 0.21037 0.7753 0.0
H675 H 0.47129 0.26012 0.72309 0.0
H676 H 0.47117 0.21456 0.77198 0.0
C677 C 0.37884 0.22357 0.76108 0.0
C678 C 0.07845 0.72292 0.73278 0.0
C679 C 0.11164 0.70955 0.71859 0.0
H680 H 0.05252 0.75892 0.77116 0.0
C681 C 0.14485 0.7229 0.73268 0.0
H682 H 0.05247 0.71344 0.72222 0.0
C683 C 0.14488 0.74908 0.7606 0.0
C684 C 0.11171 0.7626 0.77472 0.0
H685 H 0.17076 0.71258 0.72233 0.0
H686 H 0.17083 0.75933 0.7709 0.0
C687 C 0.07848 0.74933 0.76058 0.0
C688 C 0.98886 0.96182 0.47487 0.0
C689 C 0.01423 -0.00475 0.46375 0.0
H690 H 0.96651 0.9259 0.5148 0.0
C691 C 0.03632 0.01966 0.48567 0.0
H692 H 0.97177 0.94222 0.45853 0.0
C693 C 0.03321 0.0106 0.51797 0.0
C694 C 1.00786 0.97715 0.52909 0.0
H695 H 0.05557 0.04651 0.47804 0.0
H696 H 0.0503 0.0302 0.5343 0.0
C697 C 0.98575 0.95276 0.50717 0.0
C698 C 0.53318 0.0136 0.47509 0.0
C699 C 0.50774 0.98013 0.46413 0.0
H700 H 0.5559 0.0495 0.5149 0.0
C701 C 0.48582 0.95577 0.4862 0.0
H702 H 0.55014 0.03319 0.45865 0.0
C703 C 0.48921 0.96484 0.51848 0.0
C704 C 0.51468 -0.00174 0.52944 0.0
H705 H 0.46651 0.9289 0.4787 0.0
H706 H 0.47227 0.94523 0.53492 0.0
C707 C 0.53657 0.02267 0.50737 0.0
C708 C 0.48596 0.01963 0.9861 0.0
C709 C 0.50807 -0.00474 0.96414 0.0
H710 H 0.472 0.03018 0.03474 0.0
C711 C 0.53348 0.96188 0.97524 0.0
H712 H 0.46667 0.04645 0.97849 0.0
C713 C 0.53663 0.95284 0.00754 0.0
C714 C 0.51452 0.97721 0.02949 0.0
H715 H 0.55059 0.9423 0.95889 0.0
H716 H 0.55593 0.92603 0.01515 0.0
C717 C 0.48911 0.01059 0.01839 0.0
C718 C 0.03341 0.96221 0.01805 0.0
C719 C 1.00795 -0.00436 0.02905 0.0
H720 H 0.05609 0.92625 0.97823 0.0
C721 C 0.98598 0.01997 0.00701 0.0
H722 H 0.05041 0.94265 0.03447 0.0
C723 C 0.98932 0.01085 0.97473 0.0
C724 C 0.01479 0.97742 0.96373 0.0
H725 H 0.96665 0.04681 0.01454 0.0
H726 H 0.97232 0.0304 0.95831 0.0
C727 C 0.03676 0.95309 0.98577 0.0
C728 C 0.48925 0.46462 0.47652 0.0
C729 C 0.51462 0.49811 0.46549 0.0
H730 H 0.46683 0.4285 0.51634 0.0
C731 C 0.53669 0.52241 0.48749 0.0
H732 H 0.47218 0.44508 0.46013 0.0
C733 C 0.53353 0.51319 0.51977 0.0
C734 C 0.50815 0.47968 0.5308 0.0
H735 H 0.55596 0.54928 0.47993 0.0
H736 H 0.5506 0.5327 0.53616 0.0
C737 C 0.48609 0.4554 0.50879 0.0
C738 C 0.03658 0.51944 0.50713 0.0
C739 C 0.01461 0.49523 0.52923 0.0
H740 H 0.05021 0.52969 0.45839 0.0
C741 C 0.98911 0.46179 0.51832 0.0
H742 H 0.05593 0.54628 0.51459 0.0
C743 C 0.98574 0.45257 0.48605 0.0
C744 C 1.00771 0.47679 0.46394 0.0
H745 H 0.97211 0.44231 0.53478 0.0
H746 H 0.96639 0.42574 0.47857 0.0
C747 C 0.03321 0.51021 0.47486 0.0
C748 C 0.03689 0.45328 0.00724 0.0
C749 C 0.01481 0.47754 0.02928 0.0
H750 H 0.05076 0.44296 0.95855 0.0
C751 C 0.98941 0.51102 0.01828 0.0
H752 H 0.05619 0.42642 0.01477 0.0
C753 C 0.98621 0.52021 0.986 0.0
C754 C 1.00826 0.49592 0.96397 0.0
H755 H 0.97233 0.53053 0.03469 0.0
H756 H 0.96691 0.54707 0.97847 0.0
C757 C 0.03369 0.46248 0.97496 0.0
C758 C 0.53682 0.45294 0.98751 0.0
C759 C 0.51476 0.47706 0.96544 0.0
H760 H 0.55056 0.44281 0.03623 0.0
C761 C 0.48925 0.51047 0.97639 0.0
H762 H 0.5562 0.42613 0.98001 0.0
C763 C 0.48593 0.51975 0.00865 0.0
C764 C 0.50797 0.49561 0.03073 0.0
H765 H 0.47219 0.52989 0.95995 0.0
H766 H 0.46655 0.54657 0.01614 0.0
C767 C 0.5335 0.46221 0.01978 0.0
C768 C 0.24207 -0.00762 0.39959 0.0
C769 C 0.22275 -0.00192 0.37104 0.0
H770 H 0.29329 0.97961 0.4222 0.0
C771 C 0.24222 -0.00758 0.34256 0.0
H772 H 0.22837 -0.00446 0.42215 0.0
C773 C 0.27943 0.9808 0.3426 0.0
C774 C 0.29892 0.97587 0.37112 0.0
H775 H 0.22903 -0.00253 0.31994 0.0
H776 H 0.29262 0.97519 0.32002 0.0
C777 C 0.27959 0.98222 0.39962 0.0
C778 C 0.77976 -0.00828 0.09358 0.0
C779 C 0.79905 -0.0019 0.12209 0.0
H780 H 0.72859 0.97815 0.07107 0.0
C781 C 0.77957 -0.00701 0.15061 0.0
H782 H 0.79348 -0.00552 0.071 0.0
C783 C 0.7424 0.98118 0.15065 0.0
C784 C 0.72296 0.97549 0.12218 0.0
H785 H 0.79273 -0.00138 0.17319 0.0
H786 H 0.72922 0.976 0.17328 0.0
C787 C 0.74228 0.98135 0.09362 0.0
C788 C 0.74326 -0.00739 0.65089 0.0
C789 C 0.72374 -0.00213 0.62242 0.0
H790 H 0.79361 0.97531 0.67343 0.0
C791 C 0.74294 -0.00865 0.59387 0.0
H792 H 0.73018 -0.00169 0.67351 0.0
C793 C 0.78039 0.98075 0.59381 0.0
C794 C 0.79976 0.9748 0.62231 0.0
H795 H 0.72919 -0.0058 0.57132 0.0
H796 H 0.79401 0.97749 0.57122 0.0
C797 C 0.78039 0.98057 0.65084 0.0
C798 C 0.28035 -0.00767 0.84253 0.0
C799 C 0.29976 -0.00225 0.87104 0.0
H800 H 0.23005 0.97506 0.81988 0.0
C801 C 0.28042 -0.00841 0.89955 0.0
H802 H 0.29354 -0.00225 0.81994 0.0
C803 C 0.24294 0.9812 0.89952 0.0
C804 C 0.22368 0.97506 0.87098 0.0
H805 H 0.29408 -0.00544 0.92213 0.0
H806 H 0.22922 0.97822 0.92208 0.0
C807 C 0.24318 0.98048 0.8425 0.0
C808 C 0.77941 0.48169 0.34297 0.0
C809 C 0.79896 0.47609 0.3714 0.0
H810 H 0.72908 0.49938 0.32055 0.0
C811 C 0.7798 0.4824 0.4 0.0
H812 H 0.79246 0.47618 0.32032 0.0
C813 C 0.74236 0.49309 0.40013 0.0
C814 C 0.72297 0.49937 0.37167 0.0
H815 H 0.79356 0.47931 0.42252 0.0
H816 H 0.72877 0.49617 0.42275 0.0
C817 C 0.7423 0.49384 0.34311 0.0
C818 C 0.27959 0.49201 0.15161 0.0
C819 C 0.29918 0.49755 0.12317 0.0
H820 H 0.22919 0.47455 0.17402 0.0
C821 C 0.28003 0.49135 0.09458 0.0
H822 H 0.29263 0.49744 0.17425 0.0
C823 C 0.24257 0.48085 0.09445 0.0
C824 C 0.22313 0.47464 0.1229 0.0
H825 H 0.29382 0.49438 0.07206 0.0
H826 H 0.229 0.47788 0.07183 0.0
C827 C 0.24245 0.48004 0.15147 0.0
C828 C 0.28044 0.48107 0.59446 0.0
C829 C 0.2997 0.47545 0.62304 0.0
H830 H 0.22928 0.49387 0.57175 0.0
C831 C 0.28017 0.48125 0.65149 0.0
H832 H 0.29417 0.47781 0.57192 0.0
C833 C 0.24297 0.49296 0.65137 0.0
C834 C 0.22355 0.49783 0.62281 0.0
H835 H 0.2933 0.47625 0.67414 0.0
H836 H 0.22975 0.49869 0.67392 0.0
C837 C 0.24293 0.49131 0.59435 0.0
C838 C 0.74298 0.48107 0.90042 0.0
C839 C 0.72355 0.47486 0.87198 0.0
H840 H 0.79425 0.49458 0.92279 0.0
C841 C 0.74289 0.48018 0.8434 0.0
H842 H 0.72939 0.47813 0.92305 0.0
C843 C 0.78005 0.49208 0.84324 0.0
C844 C 0.79962 0.49763 0.87167 0.0
H845 H 0.72963 0.47469 0.82085 0.0
H846 H 0.79311 0.49744 0.82059 0.0
C847 C 0.78046 0.49152 0.90027 0.0
C848 C 0.98628 0.19717 0.40188 0.0
C849 C 0.02426 0.18943 0.40078 0.0
H850 H 0.94296 0.24859 0.4006 0.0
C851 C 0.04808 0.2284 0.40299 0.0
H852 H 0.96747 0.16756 0.39973 0.0
C853 C 0.03409 0.2747 0.40245 0.0
C854 C 0.99615 0.28244 0.40085 0.0
H855 H 0.07745 0.22328 0.40152 0.0
H856 H 0.05295 0.30433 0.40075 0.0
C857 C 0.97229 0.24345 0.40248 0.0
C858 C 0.47369 0.7465 0.40426 0.0
C859 C 0.49753 0.78543 0.4019 0.0
H860 H 0.46877 0.67057 0.40223 0.0
C861 C 0.5355 0.77766 0.403 0.0
H862 H 0.44432 0.75163 0.40281 0.0
C863 C 0.54947 0.73136 0.40371 0.0
C864 C 0.52558 0.69239 0.40221 0.0
H865 H 0.55433 0.80723 0.40074 0.0
H866 H 0.5788 0.72619 0.40181 0.0
C867 C 0.48764 0.70019 0.40385 0.0
C868 C 0.48705 0.77541 0.09167 0.0
C869 C 0.52501 0.78314 0.09295 0.0
H870 H 0.44371 0.72403 0.09297 0.0
C871 C 0.54885 0.74413 0.09111 0.0
H872 H 0.46822 0.80505 0.09354 0.0
C873 C 0.53486 0.69785 0.09182 0.0
C874 C 0.4969 0.69015 0.09324 0.0
H875 H 0.5782 0.74926 0.09273 0.0
H876 H 0.55369 0.66824 0.09381 0.0
C877 C 0.47306 0.72912 0.09124 0.0
C878 C 0.97324 0.22888 0.08989 0.0
C879 C 0.99707 0.1899 0.09192 0.0
H880 H 0.96838 0.3048 0.0923 0.0
C881 C 0.03504 0.19762 0.09064 0.0
H882 H 0.94388 0.22377 0.0915 0.0
C883 C 0.04903 0.24391 0.09006 0.0
C884 C 0.02518 0.2829 0.09189 0.0
H885 H 0.05387 0.16801 0.09265 0.0
H886 H 0.07837 0.24902 0.09181 0.0
C887 C 0.98722 0.27517 0.09044 0.0
C888 C 0.97409 0.74391 0.58982 0.0
C889 C 0.99795 0.78283 0.59207 0.0
H890 H 0.96914 0.66799 0.59204 0.0
C891 C 0.03591 0.77503 0.59096 0.0
H892 H 0.94473 0.74908 0.59128 0.0
C893 C 0.04986 0.72872 0.59035 0.0
C894 C 0.02596 0.68977 0.59197 0.0
H895 H 0.05476 0.8046 0.59313 0.0
H896 H 0.07919 0.72354 0.59224 0.0
C897 C 0.98802 0.69759 0.59034 0.0
C898 C 0.47499 0.2459 0.59072 0.0
C899 C 0.49876 0.28487 0.59325 0.0
H900 H 0.47014 0.16995 0.59264 0.0
C901 C 0.53675 0.27718 0.59238 0.0
H902 H 0.4456 0.25098 0.59201 0.0
C903 C 0.55078 0.23091 0.59169 0.0
C904 C 0.52692 0.19189 0.593 0.0
H905 H 0.55553 0.30678 0.59477 0.0
H906 H 0.58009 0.22578 0.59375 0.0
C907 C 0.48899 0.19961 0.59117 0.0
C908 C 0.474 0.22841 0.90404 0.0
C909 C 0.49785 0.18947 0.90173 0.0
H910 H 0.4691 0.30435 0.90203 0.0
C911 C 0.53581 0.19721 0.90293 0.0
H912 H 0.44464 0.2233 0.9025 0.0
C913 C 0.54978 0.2435 0.90371 0.0
C914 C 0.52591 0.28249 0.90217 0.0
H915 H 0.55465 0.16763 0.90072 0.0
H916 H 0.57912 0.24866 0.9019 0.0
C917 C 0.48796 0.27472 0.90369 0.0
C918 C 0.03544 0.69786 0.90232 0.0
C919 C 0.99748 0.69018 0.90096 0.0
H920 H 0.07882 0.7492 0.90119 0.0
C921 C 0.97366 0.7292 0.90284 0.0
H922 H 0.05425 0.6682 0.90042 0.0
C923 C 0.98768 0.77547 0.90224 0.0
C924 C 0.02565 0.78314 0.9009 0.0
H925 H 0.94431 0.72412 0.90116 0.0
H926 H 0.96887 0.80511 0.90028 0.0
C927 C 0.04946 0.74413 0.90286 0.0
loop_
_geom_bond_atom_site_label_1
_geom_bond_atom_site_label_2
_geom_bond_distance
_geom_bond_site_symmetry_2
_ccdc_geom_bond_type
Co0 N4 2.148 . S
Co0 N10 2.128 . S
Co0 N20 2.194 . S
Co0 O25 2.351 . S
Co0 O26 2.155 . S
Co0 O27 2.096 . S
C1 N4 1.301 . S
C1 N5 1.328 . S
C1 H6 0.930 . S
C2 C3 1.333 . S
C2 N4 1.317 . S
C2 H7 0.930 . S
C3 C2 1.333 . S
C3 N5 1.350 . S
C3 H29 0.931 1_445 S
N4 Co0 2.148 . S
N4 C1 1.301 . S
N4 C2 1.317 . S
N5 C1 1.328 . S
N5 C3 1.350 . S
H6 C1 0.930 . S
H7 C2 0.930 . S
C8 O9 1.224 . S
C8 O27 1.247 . S
O9 C8 1.224 . S
N10 Co0 2.128 . S
N10 C11 1.355 . S
N10 C13 1.311 . S
C11 N10 1.355 . S
C11 C12 1.363 . S
C11 H23 0.929 . S
C12 C11 1.363 . S
C12 N14 1.375 . S
C12 H30 0.931 . S
C13 N10 1.311 . S
C13 N14 1.347 . S
C13 H24 0.929 . S
N14 C12 1.375 . S
N14 C13 1.347 . S
C15 C18 1.365 . S
C15 N20 1.328 . S
C15 H21 0.929 . S
C16 C17 1.362 . S
C16 C19 1.378 . S
C16 H31 0.929 . S
C17 C16 1.362 . S
C17 C18 1.366 . S
C18 C15 1.365 . S
C18 C17 1.366 . S
C18 H32 0.930 . S
C19 C16 1.378 . S
C19 N20 1.315 . S
C19 H22 0.930 . S
N20 Co0 2.194 . S
N20 C15 1.328 . S
N20 C19 1.315 . S
H21 C15 0.929 . S
H22 C19 0.930 . S
H23 C11 0.929 . S
H24 C13 0.929 . S
O25 Co0 2.351 . S
O25 C28 1.244 . S
O26 Co0 2.155 . S
O26 C28 1.240 . S
O27 Co0 2.096 . S
O27 C8 1.247 . S
C28 O25 1.244 . S
C28 O26 1.240 . S
H29 C3 0.931 1_665 S
H30 C12 0.931 . S
H31 C16 0.929 . S
H32 C18 0.930 . S
Co33 N37 2.148 . S
Co33 N43 2.128 . S
Co33 N53 2.194 . S
Co33 O58 2.351 . S
Co33 O59 2.155 . S
Co33 O60 2.096 . S
C34 N37 1.301 . S
C34 N38 1.328 . S
C34 H39 0.930 . S
C35 C36 1.333 . S
C35 N37 1.317 . S
C35 H40 0.930 . S
C36 C35 1.333 . S
C36 N38 1.350 . S
C36 H62 0.931 1_565 S
N37 Co33 2.148 . S
N37 C34 1.301 . S
N37 C35 1.317 . S
N38 C34 1.328 . S
N38 C36 1.350 . S
H39 C34 0.930 . S
H40 C35 0.930 . S
C41 O42 1.224 . S
C41 O60 1.247 . S
O42 C41 1.224 . S
N43 Co33 2.128 . S
N43 C44 1.355 . S
N43 C46 1.311 . S
C44 N43 1.355 . S
C44 C45 1.363 . S
C44 H56 0.929 . S
C45 C44 1.363 . S
C45 N47 1.375 . S
C45 H63 0.931 . S
C46 N43 1.311 . S
C46 N47 1.347 . S
C46 H57 0.929 . S
N47 C45 1.375 . S
N47 C46 1.347 . S
C48 C51 1.365 . S
C48 N53 1.328 . S
C48 H54 0.929 . S
C49 C50 1.362 . S
C49 C52 1.378 . S
C49 H64 0.929 . S
C50 C49 1.362 . S
C50 C51 1.366 . S
C51 C48 1.365 . S
C51 C50 1.366 . S
C51 H65 0.930 . S
C52 C49 1.378 . S
C52 N53 1.315 . S
C52 H55 0.930 . S
N53 Co33 2.194 . S
N53 C48 1.328 . S
N53 C52 1.315 . S
H54 C48 0.929 . S
H55 C52 0.930 . S
H56 C44 0.929 . S
H57 C46 0.929 . S
O58 Co33 2.351 . S
O58 C61 1.244 . S
O59 Co33 2.155 . S
O59 C61 1.240 . S
O60 Co33 2.096 . S
O60 C41 1.247 . S
C61 O58 1.244 . S
C61 O59 1.240 . S
H62 C36 0.931 1_545 S
H63 C45 0.931 . S
H64 C49 0.929 . S
H65 C51 0.930 . S
Co66 N70 2.148 . S
Co66 N76 2.128 . S
Co66 N86 2.194 . S
Co66 O91 2.351 . S
Co66 O92 2.155 . S
Co66 O93 2.096 . S
C67 N70 1.301 . S
C67 N71 1.328 . S
C67 H72 0.930 . S
C68 C69 1.333 . S
C68 N70 1.317 . S
C68 H73 0.930 . S
C69 C68 1.333 . S
C69 N71 1.350 . S
C69 H95 0.931 1_565 S
N70 Co66 2.148 . S
N70 C67 1.301 . S
N70 C68 1.317 . S
N71 C67 1.328 . S
N71 C69 1.350 . S
H72 C67 0.930 . S
H73 C68 0.930 . S
C74 O75 1.224 . S
C74 O93 1.247 . S
O75 C74 1.224 . S
N76 Co66 2.128 . S
N76 C77 1.355 . S
N76 C79 1.311 . S
C77 N76 1.355 . S
C77 C78 1.363 . S
C77 H89 0.929 . S
C78 C77 1.363 . S
C78 N80 1.375 . S
C78 H96 0.931 . S
C79 N76 1.311 . S
C79 N80 1.347 . S
C79 H90 0.929 . S
N80 C78 1.375 . S
N80 C79 1.347 . S
C81 C84 1.365 . S
C81 N86 1.328 . S
C81 H87 0.929 . S
C82 C83 1.362 . S
C82 C85 1.378 . S
C82 H97 0.929 . S
C83 C82 1.362 . S
C83 C84 1.366 . S
C84 C81 1.365 . S
C84 C83 1.366 . S
C84 H98 0.930 . S
C85 C82 1.378 . S
C85 N86 1.315 . S
C85 H88 0.930 . S
N86 Co66 2.194 . S
N86 C81 1.328 . S
N86 C85 1.315 . S
H87 C81 0.929 . S
H88 C85 0.930 . S
H89 C77 0.929 . S
H90 C79 0.929 . S
O91 Co66 2.351 . S
O91 C94 1.244 . S
O92 Co66 2.155 . S
O92 C94 1.240 . S
O93 Co66 2.096 . S
O93 C74 1.247 . S
C94 O91 1.244 . S
C94 O92 1.240 . S
H95 C69 0.931 1_545 S
H96 C78 0.931 . S
H97 C82 0.929 . S
H98 C84 0.930 . S
Co99 N103 2.148 . S
Co99 N109 2.128 . S
Co99 N119 2.194 . S
Co99 O124 2.351 . S
Co99 O125 2.155 . S
Co99 O126 2.096 . S
C100 N103 1.301 . S
C100 N104 1.328 . S
C100 H105 0.930 . S
C101 C102 1.333 . S
C101 N103 1.317 . S
C101 H106 0.930 . S
C102 C101 1.333 . S
C102 N104 1.350 . S
C102 H128 0.931 1_645 S
N103 Co99 2.148 . S
N103 C100 1.301 . S
N103 C101 1.317 . S
N104 C100 1.328 . S
N104 C102 1.350 . S
H105 C100 0.930 . S
H106 C101 0.930 . S
C107 O108 1.224 . S
C107 O126 1.247 . S
O108 C107 1.224 . S
N109 Co99 2.128 . S
N109 C110 1.355 . S
N109 C112 1.311 . S
C110 N109 1.355 . S
C110 C111 1.363 . S
C110 H122 0.929 . S
C111 C110 1.363 . S
C111 N113 1.375 . S
C111 H129 0.931 . S
C112 N109 1.311 . S
C112 N113 1.347 . S
C112 H123 0.929 . S
N113 C111 1.375 . S
N113 C112 1.347 . S
C114 C117 1.365 . S
C114 N119 1.328 . S
C114 H120 0.929 . S
C115 C116 1.362 . S
C115 C118 1.378 . S
C115 H130 0.929 . S
C116 C115 1.362 . S
C116 C117 1.366 . S
C117 C114 1.365 . S
C117 C116 1.366 . S
C117 H131 0.930 . S
C118 C115 1.378 . S
C118 N119 1.315 . S
C118 H121 0.930 . S
N119 Co99 2.194 . S
N119 C114 1.328 . S
N119 C118 1.315 . S
H120 C114 0.929 . S
H121 C118 0.930 . S
H122 C110 0.929 . S
H123 C112 0.929 . S
O124 Co99 2.351 . S
O124 C127 1.244 . S
O125 Co99 2.155 . S
O125 C127 1.240 . S
O126 Co99 2.096 . S
O126 C107 1.247 . S
C127 O124 1.244 . S
C127 O125 1.240 . S
H128 C102 0.931 1_465 S
H129 C111 0.931 . S
H130 C115 0.929 . S
H131 C117 0.930 . S
Co132 N136 2.148 . S
Co132 N142 2.128 . S
Co132 N152 2.194 . S
Co132 O157 2.351 . S
Co132 O158 2.155 . S
Co132 O159 2.096 . S
C133 N136 1.301 . S
C133 N137 1.328 . S
C133 H138 0.930 . S
C134 C135 1.333 . S
C134 N136 1.317 . S
C134 H139 0.930 . S
C135 C134 1.333 . S
C135 N137 1.350 . S
C135 H161 0.931 1_665 S
N136 Co132 2.148 . S
N136 C133 1.301 . S
N136 C134 1.317 . S
N137 C133 1.328 . S
N137 C135 1.350 . S
H138 C133 0.930 . S
H139 C134 0.930 . S
C140 O141 1.224 . S
C140 O159 1.247 . S
O141 C140 1.224 . S
N142 Co132 2.128 . S
N142 C143 1.355 . S
N142 C145 1.311 . S
C143 N142 1.355 . S
C143 C144 1.363 . S
C143 H155 0.929 . S
C144 C143 1.363 . S
C144 N146 1.375 . S
C144 H162 0.931 . S
C145 N142 1.311 . S
C145 N146 1.347 . S
C145 H156 0.929 . S
N146 C144 1.375 . S
N146 C145 1.347 . S
C147 C150 1.365 . S
C147 N152 1.328 . S
C147 H153 0.929 . S
C148 C149 1.362 . S
C148 C151 1.378 . S
C148 H163 0.929 . S
C149 C148 1.362 . S
C149 C150 1.366 . S
C150 C147 1.365 . S
C150 C149 1.366 . S
C150 H164 0.930 . S
C151 C148 1.378 . S
C151 N152 1.315 . S
C151 H154 0.930 . S
N152 Co132 2.194 . S
N152 C147 1.328 . S
N152 C151 1.315 . S
H153 C147 0.929 . S
H154 C151 0.930 . S
H155 C143 0.929 . S
H156 C145 0.929 . S
O157 Co132 2.351 . S
O157 C160 1.244 . S
O158 Co132 2.155 . S
O158 C160 1.240 . S
O159 Co132 2.096 . S
O159 C140 1.247 . S
C160 O157 1.244 . S
C160 O158 1.240 . S
H161 C135 0.931 1_445 S
H162 C144 0.931 . S
H163 C148 0.929 . S
H164 C150 0.930 . S
Co165 N169 2.148 . S
Co165 N175 2.128 . S
Co165 N185 2.194 . S
Co165 O190 2.351 . S
Co165 O191 2.155 . S
Co165 O192 2.096 . S
C166 N169 1.301 . S
C166 N170 1.328 . S
C166 H171 0.930 . S
C167 C168 1.333 . S
C167 N169 1.317 . S
C167 H172 0.930 . S
C168 C167 1.333 . S
C168 N170 1.350 . S
C168 H194 0.931 1_545 S
N169 Co165 2.148 . S
N169 C166 1.301 . S
N169 C167 1.317 . S
N170 C166 1.328 . S
N170 C168 1.350 . S
H171 C166 0.930 . S
H172 C167 0.930 . S
C173 O174 1.224 . S
C173 O192 1.247 . S
O174 C173 1.224 . S
N175 Co165 2.128 . S
N175 C176 1.355 . S
N175 C178 1.311 . S
C176 N175 1.355 . S
C176 C177 1.363 . S
C176 H188 0.929 . S
C177 C176 1.363 . S
C177 N179 1.375 . S
C177 H195 0.931 . S
C178 N175 1.311 . S
C178 N179 1.347 . S
C178 H189 0.929 . S
N179 C177 1.375 . S
N179 C178 1.347 . S
C180 C183 1.365 . S
C180 N185 1.328 . S
C180 H186 0.929 . S
C181 C182 1.362 . S
C181 C184 1.378 . S
C181 H196 0.929 . S
C182 C181 1.362 . S
C182 C183 1.366 . S
C183 C180 1.365 . S
C183 C182 1.366 . S
C183 H197 0.930 . S
C184 C181 1.378 . S
C184 N185 1.315 . S
C184 H187 0.930 . S
N185 Co165 2.194 . S
N185 C180 1.328 . S
N185 C184 1.315 . S
H186 C180 0.929 . S
H187 C184 0.930 . S
H188 C176 0.929 . S
H189 C178 0.929 . S
O190 Co165 2.351 . S
O190 C193 1.244 . S
O191 Co165 2.155 . S
O191 C193 1.240 . S
O192 Co165 2.096 . S
O192 C173 1.247 . S
C193 O190 1.244 . S
C193 O191 1.240 . S
H194 C168 0.931 1_565 S
H195 C177 0.931 . S
H196 C181 0.929 . S
H197 C183 0.930 . S
Co198 N202 2.148 . S
Co198 N208 2.128 . S
Co198 N218 2.194 . S
Co198 O223 2.351 . S
Co198 O224 2.155 . S
Co198 O225 2.096 . S
C199 N202 1.301 . S
C199 N203 1.328 . S
C199 H204 0.930 . S
C200 C201 1.333 . S
C200 N202 1.317 . S
C200 H205 0.930 . S
C201 C200 1.333 . S
C201 N203 1.350 . S
C201 H227 0.931 1_545 S
N202 Co198 2.148 . S
N202 C199 1.301 . S
N202 C200 1.317 . S
N203 C199 1.328 . S
N203 C201 1.350 . S
H204 C199 0.930 . S
H205 C200 0.930 . S
C206 O207 1.224 . S
C206 O225 1.247 . S
O207 C206 1.224 . S
N208 Co198 2.128 . S
N208 C209 1.355 . S
N208 C211 1.311 . S
C209 N208 1.355 . S
C209 C210 1.363 . S
C209 H221 0.929 . S
C210 C209 1.363 . S
C210 N212 1.375 . S
C210 H228 0.931 . S
C211 N208 1.311 . S
C211 N212 1.347 . S
C211 H222 0.929 . S
N212 C210 1.375 . S
N212 C211 1.347 . S
C213 C216 1.365 . S
C213 N218 1.328 . S
C213 H219 0.929 . S
C214 C215 1.362 . S
C214 C217 1.378 . S
C214 H229 0.929 . S
C215 C214 1.362 . S
C215 C216 1.366 . S
C216 C213 1.365 . S
C216 C215 1.366 . S
C216 H230 0.930 . S
C217 C214 1.378 . S
C217 N218 1.315 . S
C217 H220 0.930 . S
N218 Co198 2.194 . S
N218 C213 1.328 . S
N218 C217 1.315 . S
H219 C213 0.929 . S
H220 C217 0.930 . S
H221 C209 0.929 . S
H222 C211 0.929 . S
O223 Co198 2.351 . S
O223 C226 1.244 . S
O224 Co198 2.155 . S
O224 C226 1.240 . S
O225 Co198 2.096 . S
O225 C206 1.247 . S
C226 O223 1.244 . S
C226 O224 1.240 . S
H227 C201 0.931 1_565 S
H228 C210 0.931 . S
H229 C214 0.929 . S
H230 C216 0.930 . S
Co231 N235 2.148 . S
Co231 N241 2.128 . S
Co231 N251 2.194 . S
Co231 O256 2.351 . S
Co231 O257 2.155 . S
Co231 O258 2.096 . S
C232 N235 1.301 . S
C232 N236 1.328 . S
C232 H237 0.930 . S
C233 C234 1.333 . S
C233 N235 1.317 . S
C233 H238 0.930 . S
C234 C233 1.333 . S
C234 N236 1.350 . S
C234 H260 0.931 1_465 S
N235 Co231 2.148 . S
N235 C232 1.301 . S
N235 C233 1.317 . S
N236 C232 1.328 . S
N236 C234 1.350 . S
H237 C232 0.930 . S
H238 C233 0.930 . S
C239 O240 1.224 . S
C239 O258 1.247 . S
O240 C239 1.224 . S
N241 Co231 2.128 . S
N241 C242 1.355 . S
N241 C244 1.311 . S
C242 N241 1.355 . S
C242 C243 1.363 . S
C242 H254 0.929 . S
C243 C242 1.363 . S
C243 N245 1.375 . S
C243 H261 0.931 . S
C244 N241 1.311 . S
C244 N245 1.347 . S
C244 H255 0.929 . S
N245 C243 1.375 . S
N245 C244 1.347 . S
C246 C249 1.365 . S
C246 N251 1.328 . S
C246 H252 0.929 . S
C247 C248 1.362 . S
C247 C250 1.378 . S
C247 H262 0.929 . S
C248 C247 1.362 . S
C248 C249 1.366 . S
C249 C246 1.365 . S
C249 C248 1.366 . S
C249 H263 0.930 . S
C250 C247 1.378 . S
C250 N251 1.315 . S
C250 H253 0.930 . S
N251 Co231 2.194 . S
N251 C246 1.328 . S
N251 C250 1.315 . S
H252 C246 0.929 . S
H253 C250 0.930 . S
H254 C242 0.929 . S
H255 C244 0.929 . S
O256 Co231 2.351 . S
O256 C259 1.244 . S
O257 Co231 2.155 . S
O257 C259 1.240 . S
O258 Co231 2.096 . S
O258 C239 1.247 . S
C259 O256 1.244 . S
C259 O257 1.240 . S
H260 C234 0.931 1_645 S
H261 C243 0.931 . S
H262 C247 0.929 . S
H263 C249 0.930 . S
Co264 N268 2.148 . S
Co264 N274 2.128 . S
Co264 N284 2.194 . S
Co264 O289 2.351 . S
Co264 O290 2.155 . S
Co264 O291 2.096 . S
C265 N268 1.301 . S
C265 N269 1.328 . S
C265 H270 0.930 . S
C266 C267 1.333 . S
C266 N268 1.317 . S
C266 H271 0.930 . S
C267 C266 1.333 . S
C267 N269 1.350 . S
C267 H293 0.931 . S
N268 Co264 2.148 . S
N268 C265 1.301 . S
N268 C266 1.317 . S
N269 C265 1.328 . S
N269 C267 1.350 . S
H270 C265 0.930 . S
H271 C266 0.930 . S
C272 O273 1.224 . S
C272 O291 1.247 . S
O273 C272 1.224 . S
N274 Co264 2.128 . S
N274 C275 1.355 . S
N274 C277 1.311 . S
C275 N274 1.355 . S
C275 C276 1.363 . S
C275 H287 0.929 . S
C276 C275 1.363 . S
C276 N278 1.375 . S
C276 H294 0.931 . S
C277 N274 1.311 . S
C277 N278 1.347 . S
C277 H288 0.929 . S
N278 C276 1.375 . S
N278 C277 1.347 . S
C279 C282 1.365 . S
C279 N284 1.328 . S
C279 H285 0.929 . S
C280 C281 1.362 . S
C280 C283 1.378 . S
C280 H295 0.929 . S
C281 C280 1.362 . S
C281 C282 1.366 . S
C282 C279 1.365 . S
C282 C281 1.366 . S
C282 H296 0.930 . S
C283 C280 1.378 . S
C283 N284 1.315 . S
C283 H286 0.930 . S
N284 Co264 2.194 . S
N284 C279 1.328 . S
N284 C283 1.315 . S
H285 C279 0.929 . S
H286 C283 0.930 . S
H287 C275 0.929 . S
H288 C277 0.929 . S
O289 Co264 2.351 . S
O289 C292 1.244 . S
O290 Co264 2.155 . S
O290 C292 1.240 . S
O291 Co264 2.096 . S
O291 C272 1.247 . S
C292 O289 1.244 . S
C292 O290 1.240 . S
H293 C267 0.931 . S
H294 C276 0.931 . S
H295 C280 0.929 . S
H296 C282 0.930 . S
Co297 N301 2.148 . S
Co297 N307 2.128 . S
Co297 N317 2.194 . S
Co297 O322 2.351 . S
Co297 O323 2.155 . S
Co297 O324 2.096 . S
C298 N301 1.301 . S
C298 N302 1.328 . S
C298 H303 0.930 . S
C299 C300 1.333 . S
C299 N301 1.317 . S
C299 H304 0.930 . S
C300 C299 1.333 . S
C300 N302 1.350 . S
C300 H326 0.931 1_655 S
N301 Co297 2.148 . S
N301 C298 1.301 . S
N301 C299 1.317 . S
N302 C298 1.328 . S
N302 C300 1.350 . S
H303 C298 0.930 . S
H304 C299 0.930 . S
C305 O306 1.224 . S
C305 O324 1.247 . S
O306 C305 1.224 . S
N307 Co297 2.128 . S
N307 C308 1.355 . S
N307 C310 1.311 . S
C308 N307 1.355 . S
C308 C309 1.363 . S
C308 H320 0.929 . S
C309 C308 1.363 . S
C309 N311 1.375 . S
C309 H327 0.931 . S
C310 N307 1.311 . S
C310 N311 1.347 . S
C310 H321 0.929 . S
N311 C309 1.375 . S
N311 C310 1.347 . S
C312 C315 1.365 . S
C312 N317 1.328 . S
C312 H318 0.929 . S
C313 C314 1.362 . S
C313 C316 1.378 . S
C313 H328 0.929 . S
C314 C313 1.362 . S
C314 C315 1.366 . S
C315 C312 1.365 . S
C315 C314 1.366 . S
C315 H329 0.930 . S
C316 C313 1.378 . S
C316 N317 1.315 . S
C316 H319 0.930 . S
N317 Co297 2.194 . S
N317 C312 1.328 . S
N317 C316 1.315 . S
H318 C312 0.929 . S
H319 C316 0.930 . S
H320 C308 0.929 . S
H321 C310 0.929 . S
O322 Co297 2.351 . S
O322 C325 1.244 . S
O323 Co297 2.155 . S
O323 C325 1.240 . S
O324 Co297 2.096 . S
O324 C305 1.247 . S
C325 O322 1.244 . S
C325 O323 1.240 . S
H326 C300 0.931 1_455 S
H327 C309 0.931 . S
H328 C313 0.929 . S
H329 C315 0.930 . S
Co330 N334 2.148 . S
Co330 N340 2.128 . S
Co330 N350 2.194 . S
Co330 O355 2.351 . S
Co330 O356 2.155 . S
Co330 O357 2.096 . S
C331 N334 1.301 . S
C331 N335 1.328 . S
C331 H336 0.930 . S
C332 C333 1.333 . S
C332 N334 1.317 . S
C332 H337 0.930 . S
C333 C332 1.333 . S
C333 N335 1.350 . S
C333 H359 0.931 1_455 S
N334 Co330 2.148 . S
N334 C331 1.301 . S
N334 C332 1.317 . S
N335 C331 1.328 . S
N335 C333 1.350 . S
H336 C331 0.930 . S
H337 C332 0.930 . S
C338 O339 1.224 . S
C338 O357 1.247 . S
O339 C338 1.224 . S
N340 Co330 2.128 . S
N340 C341 1.355 . S
N340 C343 1.311 . S
C341 N340 1.355 . S
C341 C342 1.363 . S
C341 H353 0.929 . S
C342 C341 1.363 . S
C342 N344 1.375 . S
C342 H360 0.931 . S
C343 N340 1.311 . S
C343 N344 1.347 . S
C343 H354 0.929 . S
N344 C342 1.375 . S
N344 C343 1.347 . S
C345 C348 1.365 . S
C345 N350 1.328 . S
C345 H351 0.929 . S
C346 C347 1.362 . S
C346 C349 1.378 . S
C346 H361 0.929 . S
C347 C346 1.362 . S
C347 C348 1.366 . S
C348 C345 1.365 . S
C348 C347 1.366 . S
C348 H362 0.930 . S
C349 C346 1.378 . S
C349 N350 1.315 . S
C349 H352 0.930 . S
N350 Co330 2.194 . S
N350 C345 1.328 . S
N350 C349 1.315 . S
H351 C345 0.929 . S
H352 C349 0.930 . S
H353 C341 0.929 . S
H354 C343 0.929 . S
O355 Co330 2.351 . S
O355 C358 1.244 . S
O356 Co330 2.155 . S
O356 C358 1.240 . S
O357 Co330 2.096 . S
O357 C338 1.247 . S
C358 O355 1.244 . S
C358 O356 1.240 . S
H359 C333 0.931 1_655 S
H360 C342 0.931 . S
H361 C346 0.929 . S
H362 C348 0.930 . S
Co363 N367 2.148 . S
Co363 N373 2.128 . S
Co363 N383 2.194 . S
Co363 O388 2.351 . S
Co363 O389 2.155 . S
Co363 O390 2.096 . S
C364 N367 1.301 . S
C364 N368 1.328 . S
C364 H369 0.930 . S
C365 C366 1.333 . S
C365 N367 1.317 . S
C365 H370 0.930 . S
C366 C365 1.333 . S
C366 N368 1.350 . S
C366 H392 0.931 . S
N367 Co363 2.148 . S
N367 C364 1.301 . S
N367 C365 1.317 . S
N368 C364 1.328 . S
N368 C366 1.350 . S
H369 C364 0.930 . S
H370 C365 0.930 . S
C371 O372 1.224 . S
C371 O390 1.247 . S
O372 C371 1.224 . S
N373 Co363 2.128 . S
N373 C374 1.355 . S
N373 C376 1.311 . S
C374 N373 1.355 . S
C374 C375 1.363 . S
C374 H386 0.929 . S
C375 C374 1.363 . S
C375 N377 1.375 . S
C375 H393 0.931 . S
C376 N373 1.311 . S
C376 N377 1.347 . S
C376 H387 0.929 . S
N377 C375 1.375 . S
N377 C376 1.347 . S
C378 C381 1.365 . S
C378 N383 1.328 . S
C378 H384 0.929 . S
C379 C380 1.362 . S
C379 C382 1.378 . S
C379 H394 0.929 . S
C380 C379 1.362 . S
C380 C381 1.366 . S
C381 C378 1.365 . S
C381 C380 1.366 . S
C381 H395 0.930 . S
C382 C379 1.378 . S
C382 N383 1.315 . S
C382 H385 0.930 . S
N383 Co363 2.194 . S
N383 C378 1.328 . S
N383 C382 1.315 . S
H384 C378 0.929 . S
H385 C382 0.930 . S
H386 C374 0.929 . S
H387 C376 0.929 . S
O388 Co363 2.351 . S
O388 C391 1.244 . S
O389 Co363 2.155 . S
O389 C391 1.240 . S
O390 Co363 2.096 . S
O390 C371 1.247 . S
C391 O388 1.244 . S
C391 O389 1.240 . S
H392 C366 0.931 . S
H393 C375 0.931 . S
H394 C379 0.929 . S
H395 C381 0.930 . S
Co396 N400 2.148 . S
Co396 N406 2.128 . S
Co396 N416 2.194 . S
Co396 O421 2.351 . S
Co396 O422 2.155 . S
Co396 O423 2.096 . S
C397 N400 1.301 . S
C397 N401 1.328 . S
C397 H402 0.930 . S
C398 C399 1.333 . S
C398 N400 1.317 . S
C398 H403 0.930 . S
C399 C398 1.333 . S
C399 N401 1.350 . S
C399 H425 0.931 . S
N400 Co396 2.148 . S
N400 C397 1.301 . S
N400 C398 1.317 . S
N401 C397 1.328 . S
N401 C399 1.350 . S
H402 C397 0.930 . S
H403 C398 0.930 . S
C404 O405 1.224 . S
C404 O423 1.247 . S
O405 C404 1.224 . S
N406 Co396 2.128 . S
N406 C407 1.355 . S
N406 C409 1.311 . S
C407 N406 1.355 . S
C407 C408 1.363 . S
C407 H419 0.929 . S
C408 C407 1.363 . S
C408 N410 1.375 . S
C408 H426 0.931 . S
C409 N406 1.311 . S
C409 N410 1.347 . S
C409 H420 0.929 . S
N410 C408 1.375 . S
N410 C409 1.347 . S
C411 C414 1.365 . S
C411 N416 1.328 . S
C411 H417 0.929 . S
C412 C413 1.362 . S
C412 C415 1.378 . S
C412 H427 0.929 . S
C413 C412 1.362 . S
C413 C414 1.366 . S
C414 C411 1.365 . S
C414 C413 1.366 . S
C414 H428 0.930 . S
C415 C412 1.378 . S
C415 N416 1.315 . S
C415 H418 0.930 . S
N416 Co396 2.194 . S
N416 C411 1.328 . S
N416 C415 1.315 . S
H417 C411 0.929 . S
H418 C415 0.930 . S
H419 C407 0.929 . S
H420 C409 0.929 . S
O421 Co396 2.351 . S
O421 C424 1.244 . S
O422 Co396 2.155 . S
O422 C424 1.240 . S
O423 Co396 2.096 . S
O423 C404 1.247 . S
C424 O421 1.244 . S
C424 O422 1.240 . S
H425 C399 0.931 . S
H426 C408 0.931 . S
H427 C412 0.929 . S
H428 C414 0.930 . S
Co429 N433 2.148 . S
Co429 N439 2.128 . S
Co429 N449 2.194 . S
Co429 O454 2.351 . S
Co429 O455 2.155 . S
Co429 O456 2.096 . S
C430 N433 1.301 . S
C430 N434 1.328 . S
C430 H435 0.930 . S
C431 C432 1.333 . S
C431 N433 1.317 . S
C431 H436 0.930 . S
C432 C431 1.333 . S
C432 N434 1.350 . S
C432 H458 0.931 1_455 S
N433 Co429 2.148 . S
N433 C430 1.301 . S
N433 C431 1.317 . S
N434 C430 1.328 . S
N434 C432 1.350 . S
H435 C430 0.930 . S
H436 C431 0.930 . S
C437 O438 1.224 . S
C437 O456 1.247 . S
O438 C437 1.224 . S
N439 Co429 2.128 . S
N439 C440 1.355 . S
N439 C442 1.311 . S
C440 N439 1.355 . S
C440 C441 1.363 . S
C440 H452 0.929 . S
C441 C440 1.363 . S
C441 N443 1.375 . S
C441 H459 0.931 . S
C442 N439 1.311 . S
C442 N443 1.347 . S
C442 H453 0.929 . S
N443 C441 1.375 . S
N443 C442 1.347 . S
C444 C447 1.365 . S
C444 N449 1.328 . S
C444 H450 0.929 . S
C445 C446 1.362 . S
C445 C448 1.378 . S
C445 H460 0.929 . S
C446 C445 1.362 . S
C446 C447 1.366 . S
C447 C444 1.365 . S
C447 C446 1.366 . S
C447 H461 0.930 . S
C448 C445 1.378 . S
C448 N449 1.315 . S
C448 H451 0.930 . S
N449 Co429 2.194 . S
N449 C444 1.328 . S
N449 C448 1.315 . S
H450 C444 0.929 . S
H451 C448 0.930 . S
H452 C440 0.929 . S
H453 C442 0.929 . S
O454 Co429 2.351 . S
O454 C457 1.244 . S
O455 Co429 2.155 . S
O455 C457 1.240 . S
O456 Co429 2.096 . S
O456 C437 1.247 . S
C457 O454 1.244 . S
C457 O455 1.240 . S
H458 C432 0.931 1_655 S
H459 C441 0.931 . S
H460 C445 0.929 . S
H461 C447 0.930 . S
Co462 N466 2.148 . S
Co462 N472 2.128 . S
Co462 N482 2.194 . S
Co462 O487 2.351 . S
Co462 O488 2.155 . S
Co462 O489 2.096 . S
C463 N466 1.301 . S
C463 N467 1.328 . S
C463 H468 0.930 . S
C464 C465 1.333 . S
C464 N466 1.317 . S
C464 H469 0.930 . S
C465 C464 1.333 . S
C465 N467 1.350 . S
C465 H491 0.931 1_655 S
N466 Co462 2.148 . S
N466 C463 1.301 . S
N466 C464 1.317 . S
N467 C463 1.328 . S
N467 C465 1.350 . S
H468 C463 0.930 . S
H469 C464 0.930 . S
C470 O471 1.224 . S
C470 O489 1.247 . S
O471 C470 1.224 . S
N472 Co462 2.128 . S
N472 C473 1.355 . S
N472 C475 1.311 . S
C473 N472 1.355 . S
C473 C474 1.363 . S
C473 H485 0.929 . S
C474 C473 1.363 . S
C474 N476 1.375 . S
C474 H492 0.931 . S
C475 N472 1.311 . S
C475 N476 1.347 . S
C475 H486 0.929 . S
N476 C474 1.375 . S
N476 C475 1.347 . S
C477 C480 1.365 . S
C477 N482 1.328 . S
C477 H483 0.929 . S
C478 C479 1.362 . S
C478 C481 1.378 . S
C478 H493 0.929 . S
C479 C478 1.362 . S
C479 C480 1.366 . S
C480 C477 1.365 . S
C480 C479 1.366 . S
C480 H494 0.930 . S
C481 C478 1.378 . S
C481 N482 1.315 . S
C481 H484 0.930 . S
N482 Co462 2.194 . S
N482 C477 1.328 . S
N482 C481 1.315 . S
H483 C477 0.929 . S
H484 C481 0.930 . S
H485 C473 0.929 . S
H486 C475 0.929 . S
O487 Co462 2.351 . S
O487 C490 1.244 . S
O488 Co462 2.155 . S
O488 C490 1.240 . S
O489 Co462 2.096 . S
O489 C470 1.247 . S
C490 O487 1.244 . S
C490 O488 1.240 . S
H491 C465 0.931 1_455 S
H492 C474 0.931 . S
H493 C478 0.929 . S
H494 C480 0.930 . S
Co495 N499 2.148 . S
Co495 N505 2.128 . S
Co495 N515 2.194 . S
Co495 O520 2.351 . S
Co495 O521 2.155 . S
Co495 O522 2.096 . S
C496 N499 1.301 . S
C496 N500 1.328 . S
C496 H501 0.930 . S
C497 C498 1.333 . S
C497 N499 1.317 . S
C497 H502 0.930 . S
C498 C497 1.333 . S
C498 N500 1.350 . S
C498 H524 0.931 . S
N499 Co495 2.148 . S
N499 C496 1.301 . S
N499 C497 1.317 . S
N500 C496 1.328 . S
N500 C498 1.350 . S
H501 C496 0.930 . S
H502 C497 0.930 . S
C503 O504 1.224 . S
C503 O522 1.247 . S
O504 C503 1.224 . S
N505 Co495 2.128 . S
N505 C506 1.355 . S
N505 C508 1.311 . S
C506 N505 1.355 . S
C506 C507 1.363 . S
C506 H518 0.929 . S
C507 C506 1.363 . S
C507 N509 1.375 . S
C507 H525 0.931 . S
C508 N505 1.311 . S
C508 N509 1.347 . S
C508 H519 0.929 . S
N509 C507 1.375 . S
N509 C508 1.347 . S
C510 C513 1.365 . S
C510 N515 1.328 . S
C510 H516 0.929 . S
C511 C512 1.362 . S
C511 C514 1.378 . S
C511 H526 0.929 . S
C512 C511 1.362 . S
C512 C513 1.366 . S
C513 C510 1.365 . S
C513 C512 1.366 . S
C513 H527 0.930 . S
C514 C511 1.378 . S
C514 N515 1.315 . S
C514 H517 0.930 . S
N515 Co495 2.194 . S
N515 C510 1.328 . S
N515 C514 1.315 . S
H516 C510 0.929 . S
H517 C514 0.930 . S
H518 C506 0.929 . S
H519 C508 0.929 . S
O520 Co495 2.351 . S
O520 C523 1.244 . S
O521 Co495 2.155 . S
O521 C523 1.240 . S
O522 Co495 2.096 . S
O522 C503 1.247 . S
C523 O520 1.244 . S
C523 O521 1.240 . S
H524 C498 0.931 . S
H525 C507 0.931 . S
H526 C511 0.929 . S
H527 C513 0.930 . S
C528 C529 1.387 . S
C528 H532 0.950 1_545 S
C528 C537 1.390 1_655 S
C529 C528 1.387 . S
C529 C531 1.387 . S
H530 C537 0.950 1_565 S
C531 C529 1.387 . S
C531 C533 1.390 1_655 S
C531 H535 0.950 . S
H532 C528 0.950 1_565 S
C533 C531 1.390 1_455 S
C533 C534 1.387 . S
C533 H536 0.950 . S
C534 C533 1.387 . S
C534 C537 1.387 . S
H535 C531 0.950 . S
H536 C533 0.950 . S
C537 C528 1.390 1_455 S
C537 H530 0.950 1_545 S
C537 C534 1.387 . S
C538 C539 1.387 . S
C538 H542 0.950 1_565 S
C538 C547 1.390 . S
C539 C538 1.387 . S
C539 C541 1.387 . S
H540 C547 0.950 1_545 S
C541 C539 1.387 . S
C541 C543 1.390 . S
C541 H545 0.950 . S
H542 C538 0.950 1_545 S
C543 C541 1.390 . S
C543 C544 1.387 . S
C543 H546 0.950 . S
C544 C543 1.387 . S
C544 C547 1.387 . S
H545 C541 0.950 . S
H546 C543 0.950 . S
C547 C538 1.390 . S
C547 H540 0.950 1_565 S
C547 C544 1.387 . S
C548 C549 1.387 . S
C548 H552 0.950 . S
C548 C557 1.390 1_655 S
C549 C548 1.387 . S
C549 C551 1.387 . S
H550 C557 0.950 . S
C551 C549 1.387 . S
C551 C553 1.390 1_655 S
C551 H555 0.950 1_565 S
H552 C548 0.950 . S
C553 C551 1.390 1_455 S
C553 C554 1.387 . S
C553 H556 0.950 1_565 S
C554 C553 1.387 . S
C554 C557 1.387 . S
H555 C551 0.950 1_545 S
H556 C553 0.950 1_545 S
C557 C548 1.390 1_455 S
C557 H550 0.950 . S
C557 C554 1.387 . S
C558 C559 1.387 . S
C558 H562 0.950 1_545 S
C558 C567 1.390 . S
C559 C558 1.387 . S
C559 C561 1.387 . S
H560 C567 0.950 1_565 S
C561 C559 1.387 . S
C561 C563 1.390 . S
C561 H565 0.950 . S
H562 C558 0.950 1_565 S
C563 C561 1.390 . S
C563 C564 1.387 . S
C563 H566 0.950 . S
C564 C563 1.387 . S
C564 C567 1.387 . S
H565 C561 0.950 . S
H566 C563 0.950 . S
C567 C558 1.390 . S
C567 H560 0.950 1_545 S
C567 C564 1.387 . S
C568 C569 1.387 . S
C568 H572 0.950 . S
C568 C577 1.390 . S
C569 C568 1.387 . S
C569 C571 1.387 . S
H570 C577 0.950 . S
C571 C569 1.387 . S
C571 C573 1.390 . S
C571 H575 0.950 . S
H572 C568 0.950 . S
C573 C571 1.390 . S
C573 C574 1.387 . S
C573 H576 0.950 . S
C574 C573 1.387 . S
C574 C577 1.387 . S
H575 C571 0.950 . S
H576 C573 0.950 . S
C577 C568 1.390 . S
C577 H570 0.950 . S
C577 C574 1.387 . S
C578 C579 1.387 . S
C578 H582 0.950 . S
C578 C587 1.390 1_655 S
C579 C578 1.387 . S
C579 C581 1.387 . S
H580 C587 0.950 . S
C581 C579 1.387 . S
C581 C583 1.390 1_655 S
C581 H585 0.950 . S
H582 C578 0.950 . S
C583 C581 1.390 1_455 S
C583 C584 1.387 . S
C583 H586 0.950 . S
C584 C583 1.387 . S
C584 C587 1.387 . S
H585 C581 0.950 . S
H586 C583 0.950 . S
C587 C578 1.390 1_455 S
C587 H580 0.950 . S
C587 C584 1.387 . S
C588 C589 1.387 . S
C588 H592 0.950 . S
C588 C597 1.390 . S
C589 C588 1.387 . S
C589 C591 1.387 . S
H590 C597 0.950 . S
C591 C589 1.387 . S
C591 C593 1.390 . S
C591 H595 0.950 . S
H592 C588 0.950 . S
C593 C591 1.390 . S
C593 C594 1.387 . S
C593 H596 0.950 . S
C594 C593 1.387 . S
C594 C597 1.387 . S
H595 C591 0.950 . S
H596 C593 0.950 . S
C597 C588 1.390 . S
C597 H590 0.950 . S
C597 C594 1.387 . S
C598 C599 1.387 . S
C598 H602 0.950 . S
C598 C607 1.390 1_655 S
C599 C598 1.387 . S
C599 C601 1.387 . S
H600 C607 0.950 . S
C601 C599 1.387 . S
C601 C603 1.390 1_655 S
C601 H605 0.950 . S
H602 C598 0.950 . S
C603 C601 1.390 1_455 S
C603 C604 1.387 . S
C603 H606 0.950 . S
C604 C603 1.387 . S
C604 C607 1.387 . S
H605 C601 0.950 . S
H606 C603 0.950 . S
C607 C598 1.390 1_455 S
C607 H600 0.950 . S
C607 C604 1.387 . S
C608 C609 1.387 . S
C608 H612 0.950 . S
C608 C617 1.390 . S
C609 C608 1.387 . S
C609 C611 1.387 . S
H610 C617 0.950 . S
C611 C609 1.387 . S
C611 C613 1.390 . S
C611 H615 0.950 . S
H612 C608 0.950 . S
C613 C611 1.390 . S
C613 C614 1.387 . S
C613 H616 0.950 . S
C614 C613 1.387 . S
C614 C617 1.387 . S
H615 C611 0.950 . S
H616 C613 0.950 . S
C617 C608 1.390 . S
C617 H610 0.950 . S
C617 C614 1.387 . S
C618 C619 1.387 . S
C618 H622 0.950 . S
C618 C627 1.390 . S
C619 C618 1.387 . S
C619 C621 1.387 . S
H620 C627 0.950 . S
C621 C619 1.387 . S
C621 C623 1.390 . S
C621 H625 0.950 . S
H622 C618 0.950 . S
C623 C621 1.390 . S
C623 C624 1.387 . S
C623 H626 0.950 . S
C624 C623 1.387 . S
C624 C627 1.387 . S
H625 C621 0.950 . S
H626 C623 0.950 . S
C627 C618 1.390 . S
C627 H620 0.950 . S
C627 C624 1.387 . S
C628 C629 1.387 . S
C628 H632 0.950 . S
C628 C637 1.390 . S
C629 C628 1.387 . S
C629 C631 1.387 . S
H630 C637 0.950 . S
C631 C629 1.387 . S
C631 C633 1.390 . S
C631 H635 0.950 . S
H632 C628 0.950 . S
C633 C631 1.390 . S
C633 C634 1.387 . S
C633 H636 0.950 . S
C634 C633 1.387 . S
C634 C637 1.387 . S
H635 C631 0.950 . S
H636 C633 0.950 . S
C637 C628 1.390 . S
C637 H630 0.950 . S
C637 C634 1.387 . S
C638 C639 1.387 . S
C638 H642 0.950 . S
C638 C647 1.390 . S
C639 C638 1.387 . S
C639 C641 1.387 . S
H640 C647 0.950 . S
C641 C639 1.387 . S
C641 C643 1.390 . S
C641 H645 0.950 . S
H642 C638 0.950 . S
C643 C641 1.390 . S
C643 C644 1.387 . S
C643 H646 0.950 . S
C644 C643 1.387 . S
C644 C647 1.387 . S
H645 C641 0.950 . S
H646 C643 0.950 . S
C647 C638 1.390 . S
C647 H640 0.950 . S
C647 C644 1.387 . S
C648 C649 1.387 . S
C648 H652 0.950 . S
C648 C657 1.390 . S
C649 C648 1.387 . S
C649 C651 1.387 . S
H650 C657 0.950 . S
C651 C649 1.387 . S
C651 C653 1.390 . S
C651 H655 0.950 . S
H652 C648 0.950 . S
C653 C651 1.390 . S
C653 C654 1.387 . S
C653 H656 0.950 . S
C654 C653 1.387 . S
C654 C657 1.387 . S
H655 C651 0.950 . S
H656 C653 0.950 . S
C657 C648 1.390 . S
C657 H650 0.950 . S
C657 C654 1.387 . S
C658 C659 1.387 . S
C658 H662 0.950 . S
C658 C667 1.390 . S
C659 C658 1.387 . S
C659 C661 1.387 . S
H660 C667 0.950 . S
C661 C659 1.387 . S
C661 C663 1.390 . S
C661 H665 0.950 . S
H662 C658 0.950 . S
C663 C661 1.390 . S
C663 C664 1.387 . S
C663 H666 0.950 . S
C664 C663 1.387 . S
C664 C667 1.387 . S
H665 C661 0.950 . S
H666 C663 0.950 . S
C667 C658 1.390 . S
C667 H660 0.950 . S
C667 C664 1.387 . S
C668 C669 1.387 . S
C668 H672 0.950 . S
C668 C677 1.390 . S
C669 C668 1.387 . S
C669 C671 1.387 . S
H670 C677 0.950 . S
C671 C669 1.387 . S
C671 C673 1.390 . S
C671 H675 0.950 . S
H672 C668 0.950 . S
C673 C671 1.390 . S
C673 C674 1.387 . S
C673 H676 0.950 . S
C674 C673 1.387 . S
C674 C677 1.387 . S
H675 C671 0.950 . S
H676 C673 0.950 . S
C677 C668 1.390 . S
C677 H670 0.950 . S
C677 C674 1.387 . S
C678 C679 1.387 . S
C678 H682 0.950 . S
C678 C687 1.390 . S
C679 C678 1.387 . S
C679 C681 1.387 . S
H680 C687 0.950 . S
C681 C679 1.387 . S
C681 C683 1.390 . S
C681 H685 0.950 . S
H682 C678 0.950 . S
C683 C681 1.390 . S
C683 C684 1.387 . S
C683 H686 0.950 . S
C684 C683 1.387 . S
C684 C687 1.387 . S
H685 C681 0.950 . S
H686 C683 0.950 . S
C687 C678 1.390 . S
C687 H680 0.950 . S
C687 C684 1.387 . S
C688 C689 1.387 1_565 S
C688 H692 0.950 . S
C688 C697 1.390 1_455 S
C689 C688 1.387 1_545 S
C689 C691 1.387 . S
H690 C697 0.950 . S
C691 C689 1.387 . S
C691 C693 1.390 1_455 S
C691 H695 0.950 . S
H692 C688 0.950 . S
C693 C691 1.390 1_655 S
C693 C694 1.387 1_545 S
C693 H696 0.950 . S
C694 C693 1.387 1_565 S
C694 C697 1.387 . S
H695 C691 0.950 . S
H696 C693 0.950 . S
C697 C688 1.390 1_655 S
C697 H690 0.950 . S
C697 C694 1.387 . S
C698 C699 1.387 1_545 S
C698 H702 0.950 . S
C698 C707 1.390 . S
C699 C698 1.387 1_565 S
C699 C701 1.387 . S
H700 C707 0.950 . S
C701 C699 1.387 . S
C701 C703 1.390 . S
C701 H705 0.950 . S
H702 C698 0.950 . S
C703 C701 1.390 . S
C703 C704 1.387 1_565 S
C703 H706 0.950 . S
C704 C703 1.387 1_545 S
C704 C707 1.387 . S
H705 C701 0.950 . S
H706 C703 0.950 . S
C707 C698 1.390 . S
C707 H700 0.950 . S
C707 C704 1.387 . S
C708 C709 1.387 . S
C708 H712 0.950 . S
C708 C717 1.390 1_556 S
C709 C708 1.387 . S
C709 C711 1.387 1_545 S
H710 C717 0.950 . S
C711 C709 1.387 1_565 S
C711 C713 1.390 1_556 S
C711 H715 0.950 . S
H712 C708 0.950 . S
C713 C711 1.390 1_554 S
C713 C714 1.387 . S
C713 H716 0.950 . S
C714 C713 1.387 . S
C714 C717 1.387 1_565 S
H715 C711 0.950 . S
H716 C713 0.950 . S
C717 C708 1.390 1_554 S
C717 H710 0.950 . S
C717 C714 1.387 1_545 S
C718 C719 1.387 1_565 S
C718 H722 0.950 . S
C718 C727 1.390 1_654 S
C719 C718 1.387 1_545 S
C719 C721 1.387 . S
H720 C727 0.950 . S
C721 C719 1.387 . S
C721 C723 1.390 1_654 S
C721 H725 0.950 . S
H722 C718 0.950 . S
C723 C721 1.390 1_456 S
C723 C724 1.387 1_545 S
C723 H726 0.950 . S
C724 C723 1.387 1_565 S
C724 C727 1.387 . S
H725 C721 0.950 . S
H726 C723 0.950 . S
C727 C718 1.390 1_456 S
C727 H720 0.950 . S
C727 C724 1.387 . S
C728 C729 1.387 . S
C728 H732 0.950 . S
C728 C737 1.390 . S
C729 C728 1.387 . S
C729 C731 1.387 . S
H730 C737 0.950 . S
C731 C729 1.387 . S
C731 C733 1.390 . S
C731 H735 0.950 . S
H732 C728 0.950 . S
C733 C731 1.390 . S
C733 C734 1.387 . S
C733 H736 0.950 . S
C734 C733 1.387 . S
C734 C737 1.387 . S
H735 C731 0.950 . S
H736 C733 0.950 . S
C737 C728 1.390 . S
C737 H730 0.950 . S
C737 C734 1.387 . S
C738 C739 1.387 . S
C738 H742 0.950 . S
C738 C747 1.390 1_455 S
C739 C738 1.387 . S
C739 C741 1.387 . S
H740 C747 0.950 . S
C741 C739 1.387 . S
C741 C743 1.390 1_455 S
C741 H745 0.950 . S
H742 C738 0.950 . S
C743 C741 1.390 1_655 S
C743 C744 1.387 . S
C743 H746 0.950 . S
C744 C743 1.387 . S
C744 C747 1.387 . S
H745 C741 0.950 . S
H746 C743 0.950 . S
C747 C738 1.390 1_655 S
C747 H740 0.950 . S
C747 C744 1.387 . S
C748 C749 1.387 1_655 S
C748 H752 0.950 . S
C748 C757 1.390 1_554 S
C749 C748 1.387 1_455 S
C749 C751 1.387 . S
H750 C757 0.950 . S
C751 C749 1.387 . S
C751 C753 1.390 1_554 S
C751 H755 0.950 . S
H752 C748 0.950 . S
C753 C751 1.390 1_556 S
C753 C754 1.387 1_455 S
C753 H756 0.950 . S
C754 C753 1.387 1_655 S
C754 C757 1.387 . S
H755 C751 0.950 . S
H756 C753 0.950 . S
C757 C748 1.390 1_556 S
C757 H750 0.950 . S
C757 C754 1.387 . S
C758 C759 1.387 . S
C758 H762 0.950 . S
C758 C767 1.390 1_556 S
C759 C758 1.387 . S
C759 C761 1.387 . S
H760 C767 0.950 . S
C761 C759 1.387 . S
C761 C763 1.390 1_556 S
C761 H765 0.950 . S
H762 C758 0.950 . S
C763 C761 1.390 1_554 S
C763 C764 1.387 . S
C763 H766 0.950 . S
C764 C763 1.387 . S
C764 C767 1.387 . S
H765 C761 0.950 . S
H766 C763 0.950 . S
C767 C758 1.390 1_554 S
C767 H760 0.950 . S
C767 C764 1.387 . S
C768 C769 1.387 . S
C768 H772 0.950 . S
C768 C777 1.390 1_545 S
C769 C768 1.387 . S
C769 C771 1.387 . S
H770 C777 0.950 . S
C771 C769 1.387 . S
C771 C773 1.390 1_545 S
C771 H775 0.950 . S
H772 C768 0.950 . S
C773 C771 1.390 1_565 S
C773 C774 1.387 . S
C773 H776 0.950 . S
C774 C773 1.387 . S
C774 C777 1.387 . S
H775 C771 0.950 . S
H776 C773 0.950 . S
C777 C768 1.390 1_565 S
C777 H770 0.950 . S
C777 C774 1.387 . S
C778 C779 1.387 . S
C778 H782 0.950 . S
C778 C787 1.390 1_545 S
C779 C778 1.387 . S
C779 C781 1.387 . S
H780 C787 0.950 . S
C781 C779 1.387 . S
C781 C783 1.390 1_545 S
C781 H785 0.950 . S
H782 C778 0.950 . S
C783 C781 1.390 1_565 S
C783 C784 1.387 . S
C783 H786 0.950 . S
C784 C783 1.387 . S
C784 C787 1.387 . S
H785 C781 0.950 . S
H786 C783 0.950 . S
C787 C778 1.390 1_565 S
C787 H780 0.950 . S
C787 C784 1.387 . S
C788 C789 1.387 . S
C788 H792 0.950 . S
C788 C797 1.390 1_545 S
C789 C788 1.387 . S
C789 C791 1.387 . S
H790 C797 0.950 . S
C791 C789 1.387 . S
C791 C793 1.390 1_545 S
C791 H795 0.950 . S
H792 C788 0.950 . S
C793 C791 1.390 1_565 S
C793 C794 1.387 . S
C793 H796 0.950 . S
C794 C793 1.387 . S
C794 C797 1.387 . S
H795 C791 0.950 . S
H796 C793 0.950 . S
C797 C788 1.390 1_565 S
C797 H790 0.950 . S
C797 C794 1.387 . S
C798 C799 1.387 . S
C798 H802 0.950 . S
C798 C807 1.390 1_545 S
C799 C798 1.387 . S
C799 C801 1.387 . S
H800 C807 0.950 . S
C801 C799 1.387 . S
C801 C803 1.390 1_545 S
C801 H805 0.950 . S
H802 C798 0.950 . S
C803 C801 1.390 1_565 S
C803 C804 1.387 . S
C803 H806 0.950 . S
C804 C803 1.387 . S
C804 C807 1.387 . S
H805 C801 0.950 . S
H806 C803 0.950 . S
C807 C798 1.390 1_565 S
C807 H800 0.950 . S
C807 C804 1.387 . S
C808 C809 1.387 . S
C808 H812 0.950 . S
C808 C817 1.390 . S
C809 C808 1.387 . S
C809 C811 1.387 . S
H810 C817 0.950 . S
C811 C809 1.387 . S
C811 C813 1.390 . S
C811 H815 0.950 . S
H812 C808 0.950 . S
C813 C811 1.390 . S
C813 C814 1.387 . S
C813 H816 0.950 . S
C814 C813 1.387 . S
C814 C817 1.387 . S
H815 C811 0.950 . S
H816 C813 0.950 . S
C817 C808 1.390 . S
C817 H810 0.950 . S
C817 C814 1.387 . S
C818 C819 1.387 . S
C818 H822 0.950 . S
C818 C827 1.390 . S
C819 C818 1.387 . S
C819 C821 1.387 . S
H820 C827 0.950 . S
C821 C819 1.387 . S
C821 C823 1.390 . S
C821 H825 0.950 . S
H822 C818 0.950 . S
C823 C821 1.390 . S
C823 C824 1.387 . S
C823 H826 0.950 . S
C824 C823 1.387 . S
C824 C827 1.387 . S
H825 C821 0.950 . S
H826 C823 0.950 . S
C827 C818 1.390 . S
C827 H820 0.950 . S
C827 C824 1.387 . S
C828 C829 1.387 . S
C828 H832 0.950 . S
C828 C837 1.390 . S
C829 C828 1.387 . S
C829 C831 1.387 . S
H830 C837 0.950 . S
C831 C829 1.387 . S
C831 C833 1.390 . S
C831 H835 0.950 . S
H832 C828 0.950 . S
C833 C831 1.390 . S
C833 C834 1.387 . S
C833 H836 0.950 . S
C834 C833 1.387 . S
C834 C837 1.387 . S
H835 C831 0.950 . S
H836 C833 0.950 . S
C837 C828 1.390 . S
C837 H830 0.950 . S
C837 C834 1.387 . S
C838 C839 1.387 . S
C838 H842 0.950 . S
C838 C847 1.390 . S
C839 C838 1.387 . S
C839 C841 1.387 . S
H840 C847 0.950 . S
C841 C839 1.387 . S
C841 C843 1.390 . S
C841 H845 0.950 . S
H842 C838 0.950 . S
C843 C841 1.390 . S
C843 C844 1.387 . S
C843 H846 0.950 . S
C844 C843 1.387 . S
C844 C847 1.387 . S
H845 C841 0.950 . S
H846 C843 0.950 . S
C847 C838 1.390 . S
C847 H840 0.950 . S
C847 C844 1.387 . S
C848 C849 1.387 . S
C848 H852 0.950 . S
C848 C857 1.390 1_455 S
C849 C848 1.387 . S
C849 C851 1.387 . S
H850 C857 0.950 . S
C851 C849 1.387 . S
C851 C853 1.390 1_455 S
C851 H855 0.950 . S
H852 C848 0.950 . S
C853 C851 1.390 1_655 S
C853 C854 1.387 . S
C853 H856 0.950 . S
C854 C853 1.387 . S
C854 C857 1.387 . S
H855 C851 0.950 . S
H856 C853 0.950 . S
C857 C848 1.390 1_655 S
C857 H850 0.950 . S
C857 C854 1.387 . S
C858 C859 1.387 . S
C858 H862 0.950 . S
C858 C867 1.390 . S
C859 C858 1.387 . S
C859 C861 1.387 . S
H860 C867 0.950 . S
C861 C859 1.387 . S
C861 C863 1.390 . S
C861 H865 0.950 . S
H862 C858 0.950 . S
C863 C861 1.390 . S
C863 C864 1.387 . S
C863 H866 0.950 . S
C864 C863 1.387 . S
C864 C867 1.387 . S
H865 C861 0.950 . S
H866 C863 0.950 . S
C867 C858 1.390 . S
C867 H860 0.950 . S
C867 C864 1.387 . S
C868 C869 1.387 . S
C868 H872 0.950 . S
C868 C877 1.390 . S
C869 C868 1.387 . S
C869 C871 1.387 . S
H870 C877 0.950 . S
C871 C869 1.387 . S
C871 C873 1.390 . S
C871 H875 0.950 . S
H872 C868 0.950 . S
C873 C871 1.390 . S
C873 C874 1.387 . S
C873 H876 0.950 . S
C874 C873 1.387 . S
C874 C877 1.387 . S
H875 C871 0.950 . S
H876 C873 0.950 . S
C877 C868 1.390 . S
C877 H870 0.950 . S
C877 C874 1.387 . S
C878 C879 1.387 . S
C878 H882 0.950 . S
C878 C887 1.390 1_655 S
C879 C878 1.387 . S
C879 C881 1.387 . S
H880 C887 0.950 . S
C881 C879 1.387 . S
C881 C883 1.390 1_655 S
C881 H885 0.950 . S
H882 C878 0.950 . S
C883 C881 1.390 1_455 S
C883 C884 1.387 . S
C883 H886 0.950 . S
C884 C883 1.387 . S
C884 C887 1.387 . S
H885 C881 0.950 . S
H886 C883 0.950 . S
C887 C878 1.390 1_455 S
C887 H880 0.950 . S
C887 C884 1.387 . S
C888 C889 1.387 . S
C888 H892 0.950 . S
C888 C897 1.390 1_655 S
C889 C888 1.387 . S
C889 C891 1.387 . S
H890 C897 0.950 . S
C891 C889 1.387 . S
C891 C893 1.390 1_655 S
C891 H895 0.950 . S
H892 C888 0.950 . S
C893 C891 1.390 1_455 S
C893 C894 1.387 . S
C893 H896 0.950 . S
C894 C893 1.387 . S
C894 C897 1.387 . S
H895 C891 0.950 . S
H896 C893 0.950 . S
C897 C888 1.390 1_455 S
C897 H890 0.950 . S
C897 C894 1.387 . S
C898 C899 1.387 . S
C898 H902 0.950 . S
C898 C907 1.390 . S
C899 C898 1.387 . S
C899 C901 1.387 . S
H900 C907 0.950 . S
C901 C899 1.387 . S
C901 C903 1.390 . S
C901 H905 0.950 . S
H902 C898 0.950 . S
C903 C901 1.390 . S
C903 C904 1.387 . S
C903 H906 0.950 . S
C904 C903 1.387 . S
C904 C907 1.387 . S
H905 C901 0.950 . S
H906 C903 0.950 . S
C907 C898 1.390 . S
C907 H900 0.950 . S
C907 C904 1.387 . S
C908 C909 1.387 . S
C908 H912 0.950 . S
C908 C917 1.390 . S
C909 C908 1.387 . S
C909 C911 1.387 . S
H910 C917 0.950 . S
C911 C909 1.387 . S
C911 C913 1.390 . S
C911 H915 0.950 . S
H912 C908 0.950 . S
C913 C911 1.390 . S
C913 C914 1.387 . S
C913 H916 0.950 . S
C914 C913 1.387 . S
C914 C917 1.387 . S
H915 C911 0.950 . S
H916 C913 0.950 . S
C917 C908 1.390 . S
C917 H910 0.950 . S
C917 C914 1.387 . S
C918 C919 1.387 . S
C918 H922 0.950 . S
C918 C927 1.390 1_655 S
C919 C918 1.387 . S
C919 C921 1.387 . S
H920 C927 0.950 . S
C921 C919 1.387 . S
C921 C923 1.390 1_655 S
C921 H925 0.950 . S
H922 C918 0.950 . S
C923 C921 1.390 1_455 S
C923 C924 1.387 . S
C923 H926 0.950 . S
C924 C923 1.387 . S
C924 C927 1.387 . S
H925 C921 0.950 . S
H926 C923 0.950 . S
C927 C918 1.390 1_455 S
C927 H920 0.950 . S
C927 C924 1.387 . S
C529 C107 1.654 . S
C534 C8 1.654 . S
C539 C74 1.654 . S
C544 C41 1.654 . S
C549 C140 1.654 . S
C554 C239 1.654 . S
C559 C173 1.655 . S
C564 C206 1.655 . S
C569 C272 1.654 . S
C574 C371 1.654 . S
C579 C305 1.654 . S
C584 C338 1.654 . S
C589 C503 1.655 . S
C594 C404 1.655 . S
C599 C470 1.654 . S
C604 C437 1.654 . S
C609 N14 0.710 . S
C614 N344 0.710 . S
C619 N377 0.705 . S
C624 N47 0.705 . S
C629 N278 0.710 . S
C634 N80 0.710 . S
C639 N311 0.705 . S
C644 N113 0.705 . S
C649 N476 0.705 . S
C654 N146 0.705 . S
C659 N509 0.710 . S
C664 N179 0.710 . S
C669 N410 0.710 . S
C674 N212 0.710 . S
C679 N443 0.705 . S
C684 N245 0.705 . S
C689 N5 1.492 . S
C694 N137 1.492 . S
C699 N38 1.492 . S
C704 N170 1.492 . S
C709 N203 1.492 . S
C714 N71 1.492 . S
C719 N104 1.492 . S
C724 N236 1.492 . S
C729 N269 1.492 . S
C734 N401 1.492 . S
C739 N434 1.492 . S
C744 N302 1.492 . S
C749 N335 1.493 . S
C754 N467 1.493 . S
C759 N500 1.492 . S
C764 N368 1.492 . S
C769 C17 1.435 . S
C774 C50 1.435 . S
C779 C116 1.435 . S
C784 C83 1.435 . S
C789 C182 1.435 . S
C794 C149 1.435 . S
C799 C215 1.435 . S
C804 C248 1.435 . S
C809 C314 1.433 . S
C814 C281 1.433 . S
C819 C380 1.433 . S
C824 C347 1.433 . S
C829 C413 1.433 . S
C834 C446 1.433 . S
C839 C512 1.433 . S
C844 C479 1.433 . S
C849 C28 1.079 . S
C854 C325 1.079 . S
C859 C61 1.076 . S
C864 C292 1.076 . S
C869 C94 1.079 . S
C874 C391 1.079 . S
C879 C127 1.076 . S
C884 C358 1.076 . S
C889 C160 1.079 . S
C894 C457 1.079 . S
C899 C424 1.079 . S
C904 C193 1.079 . S
C909 C226 1.079 . S
C914 C523 1.079 . S
C919 C490 1.079 . S
C924 C259 1.079 . S
