# Generated by pormake.
# Topology why, (6)-cn, num edge types: 1
# Building blocks:
#     Node 0, Type 0, BuildingBlock: PAMTOO_clean_sbu_0, # of connection points: 6
#     Node 1, Type 0, BuildingBlock: PAMTOO_clean_sbu_0, # of connection points: 6
#     Node 2, Type 0, BuildingBlock: PAMTOO_clean_sbu_0, # of connection points: 6
#     Node 3, Type 0, BuildingBlock: PAMTOO_clean_sbu_0, # of connection points: 6
#     Node 4, Type 0, BuildingBlock: PAMTOO_clean_sbu_0, # of connection points: 6
#     Node 5, Type 0, BuildingBlock: PAMTOO_clean_sbu_0, # of connection points: 6
#     Node 6, Type 0, BuildingBlock: PAMTOO_clean_sbu_0, # of connection points: 6
#     Node 7, Type 0, BuildingBlock: PAMTOO_clean_sbu_0, # of connection points: 6
#     Node 8, Type 0, BuildingBlock: PAMTOO_clean_sbu_0, # of connection points: 6
#     Node 9, Type 0, BuildingBlock: PAMTOO_clean_sbu_0, # of connection points: 6
#     Node 10, Type 0, BuildingBlock: PAMTOO_clean_sbu_0, # of connection points: 6
#     Node 11, Type 0, BuildingBlock: PAMTOO_clean_sbu_0, # of connection points: 6
#     Node 12, Type 0, BuildingBlock: PAMTOO_clean_sbu_0, # of connection points: 6
#     Node 13, Type 0, BuildingBlock: PAMTOO_clean_sbu_0, # of connection points: 6
#     Node 14, Type 0, BuildingBlock: PAMTOO_clean_sbu_0, # of connection points: 6
#     Node 15, Type 0, BuildingBlock: PAMTOO_clean_sbu_0, # of connection points: 6
#     Edge 16, Type (0, 0), BuildingBlock: OJICUG_clean_linker_0, # of connection points: 2
#     Edge 17, Type (0, 0), BuildingBlock: OJICUG_clean_linker_0, # of connection points: 2
#     Edge 18, Type (0, 0), BuildingBlock: OJICUG_clean_linker_0, # of connection points: 2
#     Edge 19, Type (0, 0), BuildingBlock: OJICUG_clean_linker_0, # of connection points: 2
#     Edge 20, Type (0, 0), BuildingBlock: OJICUG_clean_linker_0, # of connection points: 2
#     Edge 21, Type (0, 0), BuildingBlock: OJICUG_clean_linker_0, # of connection points: 2
#     Edge 22, Type (0, 0), BuildingBlock: OJICUG_clean_linker_0, # of connection points: 2
#     Edge 23, Type (0, 0), BuildingBlock: OJICUG_clean_linker_0, # of connection points: 2
#     Edge 24, Type (0, 0), BuildingBlock: OJICUG_clean_linker_0, # of connection points: 2
#     Edge 25, Type (0, 0), BuildingBlock: OJICUG_clean_linker_0, # of connection points: 2
#     Edge 26, Type (0, 0), BuildingBlock: OJICUG_clean_linker_0, # of connection points: 2
#     Edge 27, Type (0, 0), BuildingBlock: OJICUG_clean_linker_0, # of connection points: 2
#     Edge 28, Type (0, 0), BuildingBlock: OJICUG_clean_linker_0, # of connection points: 2
#     Edge 29, Type (0, 0), BuildingBlock: OJICUG_clean_linker_0, # of connection points: 2
#     Edge 30, Type (0, 0), BuildingBlock: OJICUG_clean_linker_0, # of connection points: 2
#     Edge 31, Type (0, 0), BuildingBlock: OJICUG_clean_linker_0, # of connection points: 2
#     Edge 32, Type (0, 0), BuildingBlock: OJICUG_clean_linker_0, # of connection points: 2
#     Edge 33, Type (0, 0), BuildingBlock: OJICUG_clean_linker_0, # of connection points: 2
#     Edge 34, Type (0, 0), BuildingBlock: OJICUG_clean_linker_0, # of connection points: 2
#     Edge 35, Type (0, 0), BuildingBlock: OJICUG_clean_linker_0, # of connection points: 2
#     Edge 36, Type (0, 0), BuildingBlock: OJICUG_clean_linker_0, # of connection points: 2
#     Edge 37, Type (0, 0), BuildingBlock: OJICUG_clean_linker_0, # of connection points: 2
#     Edge 38, Type (0, 0), BuildingBlock: OJICUG_clean_linker_0, # of connection points: 2
#     Edge 39, Type (0, 0), BuildingBlock: OJICUG_clean_linker_0, # of connection points: 2
#     Edge 40, Type (0, 0), BuildingBlock: OJICUG_clean_linker_0, # of connection points: 2
#     Edge 41, Type (0, 0), BuildingBlock: OJICUG_clean_linker_0, # of connection points: 2
#     Edge 42, Type (0, 0), BuildingBlock: OJICUG_clean_linker_0, # of connection points: 2
#     Edge 43, Type (0, 0), BuildingBlock: OJICUG_clean_linker_0, # of connection points: 2
#     Edge 44, Type (0, 0), BuildingBlock: OJICUG_clean_linker_0, # of connection points: 2
#     Edge 45, Type (0, 0), BuildingBlock: OJICUG_clean_linker_0, # of connection points: 2
#     Edge 46, Type (0, 0), BuildingBlock: OJICUG_clean_linker_0, # of connection points: 2
#     Edge 47, Type (0, 0), BuildingBlock: OJICUG_clean_linker_0, # of connection points: 2
#     Edge 48, Type (0, 0), BuildingBlock: OJICUG_clean_linker_0, # of connection points: 2
#     Edge 49, Type (0, 0), BuildingBlock: OJICUG_clean_linker_0, # of connection points: 2
#     Edge 50, Type (0, 0), BuildingBlock: OJICUG_clean_linker_0, # of connection points: 2
#     Edge 51, Type (0, 0), BuildingBlock: OJICUG_clean_linker_0, # of connection points: 2
#     Edge 52, Type (0, 0), BuildingBlock: OJICUG_clean_linker_0, # of connection points: 2
#     Edge 53, Type (0, 0), BuildingBlock: OJICUG_clean_linker_0, # of connection points: 2
#     Edge 54, Type (0, 0), BuildingBlock: OJICUG_clean_linker_0, # of connection points: 2
#     Edge 55, Type (0, 0), BuildingBlock: OJICUG_clean_linker_0, # of connection points: 2
#     Edge 56, Type (0, 0), BuildingBlock: OJICUG_clean_linker_0, # of connection points: 2
#     Edge 57, Type (0, 0), BuildingBlock: OJICUG_clean_linker_0, # of connection points: 2
#     Edge 58, Type (0, 0), BuildingBlock: OJICUG_clean_linker_0, # of connection points: 2
#     Edge 59, Type (0, 0), BuildingBlock: OJICUG_clean_linker_0, # of connection points: 2
#     Edge 60, Type (0, 0), BuildingBlock: OJICUG_clean_linker_0, # of connection points: 2
#     Edge 61, Type (0, 0), BuildingBlock: OJICUG_clean_linker_0, # of connection points: 2
#     Edge 62, Type (0, 0), BuildingBlock: OJICUG_clean_linker_0, # of connection points: 2
#     Edge 63, Type (0, 0), BuildingBlock: OJICUG_clean_linker_0, # of connection points: 2
# Relax obj value: 0.488
# Max RMSD: 0.238
# Mean RMSD: 0.238
data_MOF--net-why--node1-PAMTOO_clean_sbu_0--edge1-OJICUG_clean_linker_0
_symmetry_space_group_name_H-M    P1
_symmetry_Int_Tables_number       1
_symmetry_cell_setting            triclinic
loop_
_symmetry_equiv_pos_as_xyz
'x, y, z'
_cell_length_a     33.85481
_cell_length_b     34.031516
_cell_length_c     32.548313
_cell_angle_alpha  90.15539
_cell_angle_beta   90.260973
_cell_angle_gamma 89.813209
loop_
_atom_site_label
_atom_site_type_symbol
_atom_site_fract_x
_atom_site_fract_y
_atom_site_fract_z
_atom_type_partial_charge
Dy0 Dy 0.51458 0.3267 0.13319 0.0
Dy1 Dy 0.5706 0.27323 0.08056 0.0
C2 C 0.54122 0.24105 0.17125 0.0
O3 O 0.57041 0.36486 0.12968 0.0
O4 O 0.6146 0.31963 0.10563 0.0
O5 O 0.45699 0.33888 0.15834 0.0
O6 O 0.50673 0.37632 0.1738 0.0
O7 O 0.56518 0.32644 0.04124 0.0
O8 O 0.51367 0.35773 0.07314 0.0
O9 O 0.51418 0.27442 0.04037 0.0
O10 O 0.47053 0.30054 0.08641 0.0
O11 O 0.57742 0.22371 0.03965 0.0
O12 O 0.62901 0.25373 0.06299 0.0
C13 C 0.60702 0.35588 0.11895 0.0
O14 O 0.52918 0.27729 0.17897 0.0
O15 O 0.55447 0.23273 0.13415 0.0
C16 C 0.44738 0.40752 0.15637 0.0
C17 C 0.40716 0.47454 0.1271 0.0
C18 C 0.40712 0.43962 0.10399 0.0
C19 C 0.42732 0.40642 0.11836 0.0
C20 C 0.44962 0.44283 0.17806 0.0
C21 C 0.43005 0.47601 0.16355 0.0
C22 C 0.46841 0.37298 0.17235 0.0
C23 C 0.53821 0.35414 0.04237 0.0
C24 C 0.4776 0.28548 0.0495 0.0
C25 C 0.62904 0.23479 0.99393 0.0
C26 C 0.65692 0.24981 0.91452 0.0
C27 C 0.62719 0.27346 0.93148 0.0
C28 C 0.61317 0.2658 0.97074 0.0
C29 C 0.6584 0.21073 0.97697 0.0
C30 C 0.67213 0.21804 0.93726 0.0
C31 C 0.61534 0.22882 0.03602 0.0
H32 H 0.38972 0.4374 0.07607 0.0
H33 H 0.42633 0.37967 0.10027 0.0
H34 H 0.46576 0.44452 0.20684 0.0
H35 H 0.43069 0.50192 0.18288 0.0
H36 H 0.61477 0.29784 0.91433 0.0
H37 H 0.59007 0.28428 0.98307 0.0
H38 H 0.67096 0.18671 0.99449 0.0
H39 H 0.69529 0.19958 0.92473 0.0
Dy40 Dy 0.76123 0.7635 0.38 0.0
Dy41 Dy 0.81562 0.81944 0.32927 0.0
C42 C 0.84759 0.78797 0.41913 0.0
O43 O 0.72211 0.81867 0.37627 0.0
O44 O 0.76773 0.86266 0.35343 0.0
O45 O 0.74573 0.70462 0.39834 0.0
O46 O 0.71526 0.75485 0.42463 0.0
O47 O 0.76331 0.81549 0.28817 0.0
O48 O 0.72941 0.76596 0.31984 0.0
O49 O 0.81458 0.76368 0.28846 0.0
O50 O 0.78919 0.72001 0.33439 0.0
O51 O 0.86184 0.82813 0.28471 0.0
O52 O 0.83897 0.87761 0.31902 0.0
C53 C 0.73121 0.85518 0.3662 0.0
O54 O 0.81079 0.77731 0.42651 0.0
O55 O 0.85646 0.80036 0.38195 0.0
C56 C 0.67702 0.70114 0.40287 0.0
C57 C 0.60296 0.67174 0.37828 0.0
C58 C 0.62975 0.64833 0.40117 0.0
C59 C 0.66624 0.66304 0.41348 0.0
C60 C 0.65235 0.72332 0.37678 0.0
C61 C 0.61554 0.70875 0.36464 0.0
C62 C 0.71459 0.71706 0.41782 0.0
C63 C 0.73437 0.79007 0.28894 0.0
C64 C 0.80375 0.72724 0.29747 0.0
C65 C 0.84978 0.88578 0.24847 0.0
C66 C 0.82947 0.91404 0.16998 0.0
C67 C 0.79999 0.90284 0.19779 0.0
C68 C 0.81006 0.88923 0.23668 0.0
C69 C 0.87948 0.89717 0.22121 0.0
C70 C 0.86939 0.91146 0.18223 0.0
C71 C 0.85949 0.86625 0.28728 0.0
H72 H 0.62153 0.61974 0.41278 0.0
H73 H 0.6854 0.64517 0.43263 0.0
H74 H 0.66082 0.75252 0.3671 0.0
H75 H 0.59588 0.72744 0.34698 0.0
H76 H 0.76904 0.90382 0.18931 0.0
H77 H 0.78668 0.88057 0.25728 0.0
H78 H 0.91032 0.89445 0.2298 0.0
H79 H 0.89278 0.9205 0.16177 0.0
Dy80 Dy 0.32223 1.01038 0.62973 0.0
Dy81 Dy 0.2657 1.064 0.57703 0.0
C82 C 0.29673 1.09691 0.66761 0.0
O83 O 0.26595 0.97288 0.62747 0.0
O84 O 0.22175 1.01786 0.60259 0.0
O85 O 0.38046 0.99703 0.65313 0.0
O86 O 0.3302 0.96194 0.67161 0.0
O87 O 0.26971 1.01047 0.53805 0.0
O88 O 0.32077 0.97822 0.57003 0.0
O89 O 0.32191 1.06178 0.53676 0.0
O90 O 0.3658 1.03499 0.5824 0.0
O91 O 0.25913 1.11334 0.536 0.0
O92 O 0.20739 1.08352 0.55853 0.0
C93 C 0.22928 0.98185 0.61667 0.0
O94 O 0.30958 1.06088 0.67507 0.0
O95 O 0.28201 1.10481 0.63088 0.0
C96 C 0.38759 0.92783 0.65235 0.0
C97 C 0.42418 0.8584 0.62383 0.0
C98 C 0.43153 0.89447 0.60441 0.0
C99 C 0.4133 0.92889 0.61845 0.0
C100 C 0.37787 0.89159 0.66955 0.0
C101 C 0.39552 0.85727 0.65522 0.0
C102 C 0.36852 0.96369 0.66829 0.0
C103 C 0.29586 0.98205 0.53936 0.0
C104 C 0.35843 1.04995 0.54557 0.0
C105 C 0.20757 1.10242 0.48939 0.0
C106 C 0.17935 1.08727 0.40958 0.0
C107 C 0.20948 1.06395 0.42653 0.0
C108 C 0.22364 1.07166 0.46596 0.0
C109 C 0.17799 1.12632 0.47239 0.0
C110 C 0.16408 1.11892 0.43254 0.0
C111 C 0.2212 1.10832 0.53179 0.0
H112 H 0.45329 0.89642 0.5802 0.0
H113 H 0.42031 0.95639 0.60351 0.0
H114 H 0.35733 0.88988 0.69493 0.0
H115 H 0.38886 0.83036 0.67136 0.0
H116 H 0.22199 1.03965 0.40932 0.0
H117 H 0.24694 1.05332 0.4783 0.0
H118 H 0.16533 1.15023 0.49007 0.0
H119 H 1.1406 1.13714 0.42014 0.0
Dy120 Dy 1.07581 0.57205 0.8795 0.0
Dy121 Dy 1.02162 0.51495 0.82755 0.0
C122 C 0.98978 0.54626 0.91818 0.0
O123 O 1.11435 0.51645 0.8764 0.0
O124 O 1.06866 0.47192 0.85383 0.0
O125 O 1.09076 0.63121 0.89784 0.0
O126 O 1.12251 0.58154 0.92368 0.0
O127 O 1.07459 0.51877 0.78808 0.0
O128 O 1.10786 0.56905 0.81987 0.0
O129 O 1.02399 0.57048 0.78674 0.0
O130 O 1.0477 0.61478 0.83342 0.0
O131 O 0.97093 0.5082 0.78769 0.0
O132 O 1.00282 0.45691 0.80859 0.0
C133 C 1.10526 0.47978 0.86661 0.0
O134 O 1.02594 0.55928 0.92533 0.0
O135 O 0.98142 0.53146 0.88161 0.0
C136 C 1.15959 0.63592 0.90135 0.0
C137 C 0.23261 0.66723 0.87661 0.0
C138 C 0.20364 0.69126 0.89535 0.0
C139 C 0.16774 0.6756 0.90796 0.0
C140 C 0.18617 0.61292 0.87834 0.0
C141 C 0.22243 0.62845 0.86611 0.0
C142 C 1.12255 0.6193 0.91678 0.0
C143 C 1.1034 0.54432 0.78926 0.0
C144 C 1.03414 0.60711 0.79606 0.0
C145 C 0.98144 0.45772 0.73997 0.0
C146 C 0.99443 0.43076 0.65935 0.0
C147 C 1.0177 0.46102 0.67588 0.0
C148 C 1.01105 0.47455 0.71572 0.0
C149 C 0.95758 0.42803 0.7234 0.0
C150 C 0.96388 0.41476 0.68318 0.0
C151 C 0.97672 0.47063 0.78276 0.0
H152 H 0.20976 0.72139 0.90383 0.0
H153 H 1.14698 0.69415 0.92432 0.0
H154 H 0.17968 0.58248 0.87129 0.0
H155 H 0.24366 0.60929 0.85127 0.0
H156 H 1.04117 0.47409 0.65804 0.0
H157 H 1.02933 0.49794 0.72775 0.0
H158 H 0.93455 0.41476 0.74165 0.0
H159 H 0.94574 0.39116 0.67118 0.0
Dy160 Dy 0.76071 1.06305 0.97288 0.0
Dy161 Dy 0.81733 1.00816 0.92162 0.0
C162 C 0.79108 0.9821 1.01293 0.0
O163 O 0.81714 1.0612 1.01347 0.0
O164 O 0.86098 1.03428 0.96817 0.0
O165 O 0.75383 1.11488 1.01062 0.0
O166 O 0.70256 1.08113 0.9929 0.0
O167 O 0.80587 1.05867 0.87579 0.0
O168 O 0.77637 1.10282 0.91843 0.0
O169 O 0.76143 0.97042 0.9251 0.0
O170 O 0.717 1.01658 0.94682 0.0
O171 O 0.8763 0.99089 0.90392 0.0
O172 O 0.82532 0.96265 0.87616 0.0
C173 C 0.85364 1.04927 1.00493 0.0
O174 O 0.76629 1.0117 1.01432 0.0
O175 O 0.81438 0.9761 0.9814 0.0
C176 C 0.70538 1.1046 0.06052 0.0
C177 C 0.68071 1.09165 0.14169 0.0
C178 C 0.71296 1.07077 0.12567 0.0
C179 C 0.72538 1.07746 0.08554 0.0
C180 C 0.67373 1.12622 0.07665 0.0
C181 C 0.66162 1.12 0.11718 0.0
C182 C 0.7165 1.10831 0.01718 0.0
C183 C 0.79204 1.09458 0.88232 0.0
C184 C 0.72464 0.97997 0.93447 0.0
C185 C 0.87824 0.92238 0.89782 0.0
C186 C 0.90689 0.84757 0.92006 0.0
C187 C 0.93243 0.8764 0.90392 0.0
C188 C 0.9181 0.91322 0.89257 0.0
C189 C 0.85357 0.89556 0.91816 0.0
C190 C 0.86777 0.85839 0.92909 0.0
C191 C 0.86317 0.96054 0.88365 0.0
H192 H 0.72827 1.04898 0.14407 0.0
H193 H 0.75022 1.06088 0.07379 0.0
H194 H 0.65789 1.14718 0.05774 0.0
H195 H 0.63644 1.13621 0.12885 0.0
H196 H 0.96282 0.86966 0.89648 0.0
H197 H 0.93788 0.93401 0.87821 0.0
H198 H 0.82291 0.90268 0.92413 0.0
H199 H 0.84745 0.83718 0.94181 0.0
Dy200 Dy 0.51961 0.51599 0.72196 0.0
Dy201 Dy 0.56964 0.56985 0.66684 0.0
C202 C 0.60353 0.54992 0.75586 0.0
O203 O 0.52162 0.57117 0.76261 0.0
O204 O 0.5459 0.61392 0.71514 0.0
O205 O 0.47238 0.50704 0.76519 0.0
O206 O 0.50203 0.45705 0.73817 0.0
O207 O 0.52092 0.54576 0.62446 0.0
O208 O 0.47509 0.53536 0.67234 0.0
O209 O 0.61147 0.51671 0.67078 0.0
O210 O 0.56636 0.47293 0.69521 0.0
O211 O 0.61123 0.58117 0.61808 0.0
O212 O 0.57361 0.62794 0.64094 0.0
C213 C 0.53241 0.6073 0.75277 0.0
O214 O 0.57378 0.52553 0.76032 0.0
O215 O 0.60786 0.57144 0.72273 0.0
C216 C 0.486 0.45385 0.80786 0.0
C217 C 0.50262 0.42552 0.88693 0.0
C218 C 0.52923 0.45064 0.86728 0.0
C219 C 0.52092 0.46471 0.82813 0.0
C220 C 0.45906 0.42904 0.82735 0.0
C221 C 0.46729 0.41497 0.86683 0.0
C222 C 0.47805 0.46923 0.76675 0.0
C223 C 0.48348 0.54103 0.63343 0.0
C224 C 0.60271 0.4803 0.68175 0.0
C225 C 0.57861 0.62195 0.56999 0.0
C226 C 0.53763 0.63536 0.49538 0.0
C227 C 0.53877 0.59769 0.51295 0.0
C228 C 0.55953 0.59097 0.54941 0.0
C229 C 0.57633 0.65982 0.55375 0.0
C230 C 0.55644 0.66646 0.51674 0.0
C231 C 0.59592 0.61579 0.61096 0.0
H232 H 0.5564 0.4596 0.88228 0.0
H233 H 0.54181 0.48413 0.81372 0.0
H234 H 0.43189 0.42053 0.81209 0.0
H235 H 0.44648 0.39532 0.88132 0.0
H236 H 0.52465 0.57301 0.49801 0.0
H237 H 0.5607 0.56139 0.5614 0.0
H238 H 0.59017 0.68426 0.56956 0.0
H239 H 0.55755 0.69586 0.50428 0.0
Dy240 Dy 1.06312 0.27074 0.47256 0.0
Dy241 Dy 1.00985 0.32033 0.41673 0.0
C242 C 1.02837 0.35376 0.50611 0.0
O243 O 1.00714 0.2725 0.512 0.0
O244 O 0.96447 0.29669 0.46367 0.0
O245 O 1.07175 0.22565 0.51818 0.0
O246 O 1.12205 0.25013 0.4868 0.0
O247 O 1.03617 0.2727 0.37477 0.0
O248 O 1.04274 0.22686 0.42309 0.0
O249 O 1.06319 0.36162 0.42099 0.0
O250 O 1.10698 0.317 0.44697 0.0
O251 O 0.99836 0.36577 0.3719 0.0
O252 O 0.95446 0.32091 0.38371 0.0
C253 C 0.97079 0.28292 0.50137 0.0
O254 O 1.05455 0.32533 0.51011 0.0
O255 O 1.00549 0.35681 0.47352 0.0
C256 C 1.1282 0.23733 0.55714 0.0
C257 C 1.15873 0.25414 0.63553 0.0
C258 C 1.13842 0.28315 0.61322 0.0
C259 C 1.12342 0.27483 0.57434 0.0
C260 C 1.14838 0.20815 0.57909 0.0
C261 C 0.16367 0.21652 0.61812 0.0
C262 C 1.11004 0.22865 0.51737 0.0
C263 C 1.03902 0.23525 0.3839 0.0
C264 C 1.09967 0.35297 0.4327 0.0
C265 C 0.97087 0.33371 0.3147 0.0
C266 C 0.98764 0.30795 0.23403 0.0
C267 C 0.98818 0.34831 0.24434 0.0
C268 C 0.97994 0.36096 0.28415 0.0
C269 C 0.97036 0.29336 0.30467 0.0
C270 C 0.97842 0.28067 0.26471 0.0
C271 C 0.96766 0.34687 0.35775 0.0
H272 H 1.1337 0.31222 0.62598 0.0
H273 H 1.10772 0.29761 0.55786 0.0
H274 H 1.15212 0.17899 0.56619 0.0
H275 H 0.17968 0.19375 0.63444 0.0
H276 H 0.99354 0.37054 0.2213 0.0
H277 H 0.98099 0.39209 0.29119 0.0
H278 H 0.96416 0.27141 0.32776 0.0
H279 H 0.97699 0.24959 0.25768 0.0
Dy280 Dy 0.30797 0.8133 0.22085 0.0
Dy281 Dy 0.25739 0.75999 0.16577 0.0
C282 C 0.22379 0.78084 0.25415 0.0
O283 O 0.30616 0.75803 0.26124 0.0
O284 O 0.2803 0.7155 0.214 0.0
O285 O 0.35441 0.82199 0.2655 0.0
O286 O 0.32746 0.87207 0.23568 0.0
O287 O 0.30613 0.78242 0.12308 0.0
O288 O 0.35205 0.79386 0.17119 0.0
O289 O 0.21572 0.81328 0.16963 0.0
O290 O 0.26085 0.85675 0.19519 0.0
O291 O 0.21613 0.74995 0.11595 0.0
O292 O 0.25162 0.70191 0.1398 0.0
C293 C 0.29451 0.72203 0.25152 0.0
O294 O 0.2539 0.80479 0.25892 0.0
O295 O 0.21911 0.75909 0.22109 0.0
C296 C 0.34225 0.87723 0.30576 0.0
C297 C 0.32653 0.90668 0.38464 0.0
C298 C 0.29724 0.88637 0.36265 0.0
C299 C 0.30504 0.87187 0.32354 0.0
C300 C 0.37173 0.89734 0.32745 0.0
C301 C 0.36392 0.91206 0.36675 0.0
C302 C 0.35029 0.86003 0.26548 0.0
C303 C 0.34356 0.78752 0.13229 0.0
C304 C 0.2245 0.84958 0.18124 0.0
C305 C 0.25167 0.71193 0.06811 0.0
C306 C 0.29279 0.71414 0.99282 0.0
C307 C 0.3108 0.69804 0.02784 0.0
C308 C 0.29057 0.69714 0.06517 0.0
C309 C 0.23398 0.72851 0.03328 0.0
C310 C 0.25432 0.72983 0.99622 0.0
C311 C 0.23198 0.71565 0.10835 0.0
H312 H 0.26835 0.88138 0.37581 0.0
H313 H 0.28202 0.85625 0.30727 0.0
H314 H 0.40067 0.90155 0.31408 0.0
H315 H 0.38687 0.92807 0.38287 0.0
H316 H 0.34011 0.6853 0.02608 0.0
H317 H 0.3056 0.68498 0.0917 0.0
H318 H 0.20443 0.74075 0.03478 0.0
H319 H 0.23897 0.7416 0.96972 0.0
Dy320 Dy 1.01355 0.82098 0.63389 0.0
Dy321 Dy 1.06858 0.77124 0.57855 0.0
C322 C 1.04174 0.7344 0.6668 0.0
O323 O 1.06682 0.86248 0.62911 0.0
O324 O 1.1117 0.81758 0.60583 0.0
O325 O 1.00564 0.86082 0.68501 0.0
O326 O 0.9552 0.8308 0.65839 0.0
O327 O 1.05785 0.82466 0.54034 0.0
O328 O 1.01168 0.85876 0.57825 0.0
O329 O 1.01232 0.77346 0.53879 0.0
O330 O 0.96891 0.79554 0.58719 0.0
O331 O 1.07692 0.72217 0.53736 0.0
O332 O 1.12726 0.7559 0.55786 0.0
C333 C 1.10365 0.85397 0.61863 0.0
O334 O 1.03369 0.77109 0.67629 0.0
O335 O 1.05149 0.72679 0.62849 0.0
C336 C 0.96334 0.82824 0.73041 0.0
C337 C 0.95996 0.78708 0.80547 0.0
C338 C 0.94668 0.76927 0.76908 0.0
C339 C 0.94865 0.7895 0.73183 0.0
C340 C 0.97719 0.8457 0.76662 0.0
C341 C 0.97576 0.82534 0.80362 0.0
C342 C 0.96973 0.8482 0.69084 0.0
C343 C 1.03327 0.85432 0.54513 0.0
C344 C 0.97569 0.78283 0.54927 0.0
C345 C 1.12589 0.73526 0.48922 0.0
C346 C 1.14916 0.74846 0.40777 0.0
C347 C 1.12174 0.77358 0.42666 0.0
C348 C 1.11011 0.76692 0.46699 0.0
C349 C 1.15268 0.70959 0.47036 0.0
C350 C 0.16419 0.71607 0.42971 0.0
C351 C 1.11423 0.72959 0.53202 0.0
H352 H 0.93388 0.74014 0.76967 0.0
H353 H 0.93872 0.77468 0.70419 0.0
H354 H 0.98937 0.87511 0.76626 0.0
H355 H 0.98536 0.84049 0.83116 0.0
H356 H 1.10949 0.79852 0.4103 0.0
H357 H 1.08899 0.78671 0.48092 0.0
H358 H 0.16499 0.68493 0.48714 0.0
H359 H 0.18569 0.69652 0.41587 0.0
Dy360 Dy 0.2638 0.26266 0.88054 0.0
Dy361 Dy 0.31688 0.31817 0.8269 0.0
C362 C 0.35004 0.28993 0.91824 0.0
O363 O 0.22545 0.31837 0.87756 0.0
O364 O 0.27023 0.36206 0.85221 0.0
O365 O 0.25262 0.20553 0.90642 0.0
O366 O 0.21437 0.25482 0.9213 0.0
O367 O 0.26245 0.31351 0.78876 0.0
O368 O 0.23157 0.26222 0.8207 0.0
O369 O 0.3148 0.26154 0.78742 0.0
O370 O 0.2896 0.21848 0.83415 0.0
O371 O 0.36545 0.32418 0.78464 0.0
O372 O 0.33605 0.37595 0.80796 0.0
C373 C 0.23415 0.35468 0.86637 0.0
O374 O 0.31377 0.27782 0.9259 0.0
O375 O 0.35818 0.30292 0.88099 0.0
C376 C 0.18376 0.19518 0.90531 0.0
C377 C 1.11649 1.15433 0.87748 0.0
C378 C 1.15135 1.1537 0.85428 0.0
C379 C 0.18467 0.17427 0.8679 0.0
C380 C 1.14853 0.19765 0.92721 0.0
C381 C 1.11523 0.17772 0.91343 0.0
C382 C 0.21837 0.21673 0.92052 0.0
C383 C 0.2346 0.28691 0.79006 0.0
C384 C 0.30398 0.22523 0.79703 0.0
C385 C 0.35355 0.3754 0.73832 0.0
C386 C 0.33718 0.40302 0.6586 0.0
C387 C 0.31365 0.37372 0.67614 0.0
C388 C 0.32196 0.35986 0.71551 0.0
C389 C 0.37758 0.40423 0.72076 0.0
C390 C 0.36959 0.41782 0.68098 0.0
C391 C 0.36033 0.36192 0.7806 0.0
H392 H 1.15339 1.13575 0.82682 0.0
H393 H 0.21136 0.17297 0.8497 0.0
H394 H 1.147 0.21432 0.95559 0.0
H395 H 1.08939 0.17855 0.93287 0.0
H396 H 0.28878 0.36154 0.6594 0.0
H397 H 0.3035 0.33713 0.72824 0.0
H398 H 0.40213 0.4165 0.73791 0.0
H399 H 0.38801 0.44066 0.66817 0.0
Dy400 Dy 0.82549 0.51281 0.13123 0.0
Dy401 Dy 0.76879 0.56501 0.07707 0.0
C402 C 0.79857 0.59924 0.16768 0.0
O403 O 0.76978 0.47439 0.12762 0.0
O404 O 0.72516 0.51912 0.1032 0.0
O405 O 0.88359 0.49947 0.15495 0.0
O406 O 0.83291 0.46574 0.1749 0.0
O407 O 0.77455 0.51069 0.03898 0.0
O408 O 0.82627 0.48032 0.07184 0.0
O409 O 0.82546 0.56311 0.03786 0.0
O410 O 0.86938 0.53906 0.08512 0.0
O411 O 0.76178 0.61295 0.03427 0.0
O412 O 0.71033 0.5838 0.0583 0.0
C413 C 0.73299 0.48315 0.11704 0.0
O414 O 0.81134 0.56334 0.17578 0.0
O415 O 0.78451 0.60675 0.13053 0.0
C416 C 0.8897 0.43041 0.15716 0.0
C417 C 0.92284 0.35898 0.1297 0.0
C418 C 0.92581 0.39294 0.10552 0.0
C419 C 0.90903 0.42832 0.11894 0.0
C420 C 0.88513 0.39633 0.18032 0.0
C421 C 0.90123 0.36103 0.16674 0.0
C422 C 0.87125 0.46698 0.17165 0.0
C423 C 0.80165 0.48313 0.04083 0.0
C424 C 0.86217 0.55293 0.04779 0.0
C425 C 0.70959 0.60112 0.98863 0.0
C426 C 0.68139 0.58567 0.90877 0.0
C427 C 0.70781 0.5596 0.92791 0.0
C428 C 0.72189 0.56738 0.96735 0.0
C429 C 0.68373 0.62768 0.96951 0.0
C430 C 0.66981 0.62009 0.92967 0.0
C431 C 0.72381 0.60792 0.03071 0.0
H432 H 0.94258 0.39247 0.07726 0.0
H433 H 0.91189 0.45414 0.0998 0.0
H434 H 0.86962 0.39713 0.20937 0.0
H435 H 0.8988 0.33597 0.18697 0.0
H436 H 0.71755 0.53311 0.91238 0.0
H437 H 0.74225 0.54685 0.98129 0.0
H438 H 0.67405 0.65395 0.98549 0.0
H439 H 0.64919 0.64052 0.91567 0.0
Dy440 Dy 0.57144 1.07155 0.3835 0.0
Dy441 Dy 0.52172 1.01995 0.32585 0.0
C442 C 0.48551 1.04294 0.4149 0.0
O443 O 0.61223 1.01774 0.37966 0.0
O444 O 0.56773 0.97519 0.35142 0.0
O445 O 0.61854 1.08344 0.42672 0.0
O446 O 0.56976 1.12459 0.41994 0.0
O447 O 0.57687 1.02894 0.28931 0.0
O448 O 0.60808 1.07706 0.32716 0.0
O449 O 0.52432 1.07642 0.28759 0.0
O450 O 0.54845 1.11781 0.33699 0.0
O451 O 0.47452 1.01364 0.28167 0.0
O452 O 0.50286 0.96201 0.30677 0.0
C453 C 0.6037 0.98185 0.36672 0.0
O454 O 0.52309 1.04578 0.42455 0.0
O455 O 0.47729 1.03882 0.37562 0.0
C456 C 0.58591 1.10522 0.48655 0.0
C457 C 0.55374 1.09229 0.56519 0.0
C458 C 0.55713 1.13065 0.54916 0.0
C459 C 0.57311 1.13699 0.51033 0.0
C460 C 0.58117 1.06678 0.50165 0.0
C461 C 0.56544 1.0604 0.54064 0.0
C462 C 0.59802 1.11164 0.44376 0.0
C463 C 0.60538 1.05477 0.29423 0.0
C464 C 0.53483 1.1123 0.29901 0.0
C465 C 0.48541 0.96113 0.23704 0.0
C466 C 0.49881 0.93339 0.15697 0.0
C467 C 0.52581 0.95906 0.17578 0.0
C468 C 0.51912 0.97284 0.21547 0.0
C469 C 0.45804 0.93598 0.21834 0.0
C470 C 0.46465 0.9222 0.17844 0.0
C471 C 0.47894 0.97574 0.27877 0.0
H472 H 0.54923 1.15616 0.5673 0.0
H473 H 0.57538 0.16675 0.49882 0.0
H474 H 0.58945 1.04151 0.48326 0.0
H475 H 0.56333 1.0306 0.552 0.0
H476 H 0.55215 0.96844 0.15982 0.0
H477 H 0.54035 0.99258 0.22936 0.0
H478 H 0.43182 0.9268 0.23466 0.0
H479 H 0.44362 0.90204 0.16479 0.0
Dy480 Dy 0.26504 0.5613 0.47098 0.0
Dy481 Dy 0.31694 0.51054 0.41576 0.0
C482 C 0.29893 0.47831 0.50544 0.0
O483 O 0.32094 0.55972 0.51098 0.0
O484 O 0.36277 0.53222 0.464 0.0
O485 O 0.25676 0.60677 0.51639 0.0
O486 O 0.2064 0.58346 0.48345 0.0
O487 O 0.2906 0.55827 0.37369 0.0
O488 O 0.28619 0.60458 0.42179 0.0
O489 O 0.2633 0.46984 0.4195 0.0
O490 O 0.22048 0.5146 0.44676 0.0
O491 O 0.32819 0.46416 0.3718 0.0
O492 O 0.37159 0.51007 0.38194 0.0
C493 C 0.35684 0.5473 0.5013 0.0
O494 O 0.27362 0.50748 0.50958 0.0
O495 O 0.32092 0.47423 0.4725 0.0
C496 C 0.20005 0.59522 0.5539 0.0
C497 C 0.17285 0.57726 0.63285 0.0
C498 C 0.18865 0.54766 0.60764 0.0
C499 C 0.20187 0.55655 0.56846 0.0
C500 C 0.18413 0.62496 0.5786 0.0
C501 C 0.17039 0.616 0.6179 0.0
C502 C 0.21844 0.60438 0.51468 0.0
C503 C 0.28888 0.59589 0.38262 0.0
C504 C 0.22721 0.47864 0.43201 0.0
C505 C 0.3541 0.49489 0.31348 0.0
C506 C 0.33593 0.51767 0.23209 0.0
C507 C 0.33749 0.47759 0.24334 0.0
C508 C 0.34635 0.46642 0.28353 0.0
C509 C 0.35246 0.53492 0.30256 0.0
C510 C 0.34355 0.54614 0.26232 0.0
C511 C 0.35834 0.48309 0.35683 0.0
H512 H 0.19144 0.51768 0.61841 0.0
H513 H 0.21425 0.53329 0.54979 0.0
H514 H 0.18283 0.65502 0.56775 0.0
H515 H 1.15775 0.63927 0.63646 0.0
H516 H 0.33336 0.45449 0.22081 0.0
H517 H 0.34693 0.43547 0.29129 0.0
H518 H 0.3577 0.55774 0.32515 0.0
H519 H 0.34321 0.5771 0.25475 0.0
Dy520 Dy 1.01736 1.01629 0.22466 0.0
Dy521 Dy 1.06776 1.06807 0.16795 0.0
C522 C 1.10154 1.0501 0.25725 0.0
O523 O 1.02032 1.07253 0.26364 0.0
O524 O 1.04626 1.11399 0.2157 0.0
O525 O 0.96998 1.00999 0.26818 0.0
O526 O 0.99853 0.95838 0.24335 0.0
O527 O 1.01859 1.04356 0.12646 0.0
O528 O 0.97294 1.03597 0.1751 0.0
O529 O 1.10756 1.01355 0.17135 0.0
O530 O 1.06238 0.97121 0.19804 0.0
O531 O 1.11522 1.07855 0.12526 0.0
O532 O 1.06822 1.12154 0.1325 0.0
C533 C 1.03203 1.10826 0.25328 0.0
O534 O 1.07269 1.02465 0.26165 0.0
O535 O 1.10461 1.07239 0.22454 0.0
C536 C 0.98199 0.95814 0.31307 0.0
C537 C 0.99761 0.93137 0.39299 0.0
C538 C 1.02389 0.95707 0.37361 0.0
C539 C 1.01608 0.97039 0.33404 0.0
C540 C 0.95527 0.93298 0.33238 0.0
C541 C 0.96298 0.9197 0.37227 0.0
C542 C 0.97473 0.97216 0.27129 0.0
C543 C 0.98105 1.04065 0.13599 0.0
C544 C 1.09844 0.97757 0.18323 0.0
C545 C 1.08629 1.10328 0.06512 0.0
C546 C 1.06724 1.08469 0.98277 0.0
C547 C 1.10695 1.08668 0.99614 0.0
C548 C 1.11629 1.09578 0.03681 0.0
C549 C 1.04659 1.10106 0.05212 0.0
C550 C 1.03719 1.09192 1.01137 0.0
C551 C 1.09637 1.10818 0.10891 0.0
H552 H 1.05056 0.9668 0.38905 0.0
H553 H 1.03677 0.99018 0.31976 0.0
H554 H 0.92875 0.92342 0.31655 0.0
H555 H 0.94247 0.89955 0.38648 0.0
H556 H 1.13117 1.08281 0.97488 0.0
H557 H 1.14702 1.09682 0.04619 0.0
H558 H 1.02264 1.10615 0.07345 0.0
H559 H 1.00645 1.09122 1.00206 0.0
Dy560 Dy 0.56281 0.76945 0.97232 0.0
Dy561 Dy 0.50947 0.81889 0.91651 0.0
C562 C 0.52923 0.85294 1.00522 0.0
O563 O 0.50701 0.77103 1.01207 0.0
O564 O 0.46439 0.79672 0.96452 0.0
O565 O 0.57195 0.72596 0.01948 0.0
O566 O 0.62162 0.74736 0.98462 0.0
O567 O 0.53636 0.77138 0.8748 0.0
O568 O 0.54204 0.7255 0.92308 0.0
O569 O 0.5628 0.86018 0.91901 0.0
O570 O 0.60626 0.81694 0.94821 0.0
O571 O 0.49506 0.865 0.87343 0.0
O572 O 0.4551 0.81586 0.88182 0.0
C573 C 0.47079 0.7824 1.00198 0.0
O574 O 0.55504 0.82423 1.00933 0.0
O575 O 0.50595 0.85587 0.97293 0.0
C576 C 0.63018 0.73753 0.05537 0.0
C577 C 0.66089 0.75643 0.1332 0.0
C578 C 0.645 0.78592 0.1079 0.0
C579 C 0.62987 0.77654 0.0693 0.0
C580 C 0.64634 0.70796 0.08013 0.0
C581 C 0.66174 0.71736 0.11884 0.0
C582 C 0.61024 0.72771 0.0168 0.0
C583 C 0.53863 0.73389 0.88387 0.0
C584 C 0.59893 0.85238 0.93246 0.0
C585 C 0.47154 0.83179 0.81455 0.0
C586 C 0.48183 0.79974 0.73523 0.0
C587 C 0.44373 0.80464 0.75205 0.0
C588 C 0.4387 0.82048 0.79127 0.0
C589 C 0.50966 0.82565 0.7986 0.0
C590 C 0.51473 0.80989 0.75934 0.0
C591 C 0.46649 0.84405 0.85755 0.0
H592 H 0.64353 0.81618 0.11824 0.0
H593 H 0.61721 0.79968 0.05063 0.0
H594 H 0.64653 0.67766 0.06979 0.0
H595 H 0.67438 0.69413 0.13746 0.0
H596 H 0.41747 0.79804 0.73428 0.0
H597 H 0.40914 0.8239 0.80344 0.0
H598 H 0.53567 0.83287 0.81655 0.0
H599 H 0.54439 0.80655 0.74745 0.0
Dy600 Dy 0.81106 0.31479 0.7226 0.0
Dy601 Dy 0.75709 0.25986 0.66892 0.0
C602 C 0.72934 0.28382 0.7597 0.0
O603 O 0.80941 0.25828 0.76194 0.0
O604 O 0.78322 0.2154 0.71513 0.0
O605 O 0.85964 0.32064 0.76534 0.0
O606 O 0.83195 0.37249 0.74 0.0
O607 O 0.80658 0.27448 0.62329 0.0
O608 O 0.85157 0.29896 0.66848 0.0
O609 O 0.71958 0.31627 0.67196 0.0
O610 O 0.76511 0.35938 0.69744 0.0
O611 O 0.74471 0.20296 0.6425 0.0
O612 O 0.70645 0.25265 0.62917 0.0
C613 C 0.79825 0.22202 0.75224 0.0
O614 O 0.75677 0.31089 0.76086 0.0
O615 O 0.72629 0.25899 0.72907 0.0
C616 C 0.84958 0.37387 0.80958 0.0
C617 C 0.83475 0.40457 0.88821 0.0
C618 C 0.80892 0.37704 0.87067 0.0
C619 C 0.81641 0.36169 0.83179 0.0
C620 C 0.87583 0.40092 0.82712 0.0
C621 C 0.86856 0.41609 0.86637 0.0
C622 C 0.85584 0.35865 0.76797 0.0
C623 C 0.84298 0.28636 0.63107 0.0
C624 C 0.72892 0.35254 0.68307 0.0
C625 C 0.67561 0.19344 0.6464 0.0
C626 C 0.60908 1.15281 0.67598 0.0
C627 C 0.64625 1.14749 0.69463 0.0
C628 C 0.67923 0.16772 0.68007 0.0
C629 C 0.63816 0.20128 0.63017 0.0
C630 C 0.60524 0.18166 0.64505 0.0
C631 C 0.70993 0.21451 0.62988 0.0
H632 H 0.78293 0.36736 0.88706 0.0
H633 H 0.79613 0.34044 0.81901 0.0
H634 H 0.90161 0.41056 0.8104 0.0
H635 H 0.88876 0.43753 0.87922 0.0
H636 H 0.65026 1.12579 0.7186 0.0
H637 H 0.70766 0.16226 0.69437 0.0
H638 H 0.63447 0.22191 0.60511 0.0
H639 H 0.57737 0.18702 0.62965 0.0
C640 C 0.62998 0.42907 0.11994 0.0
C641 C 0.63958 0.38831 0.11999 0.0
H642 H 0.6498 0.48963 0.11826 0.0
C643 C 0.68062 0.37977 0.11954 0.0
H644 H 0.59922 0.43789 0.11986 0.0
C645 C 0.71008 0.40999 0.11959 0.0
C646 C 0.70047 0.45073 0.11897 0.0
H647 H 0.69024 0.3494 0.11931 0.0
H648 H 0.74083 0.40116 0.11929 0.0
C649 C 0.65942 0.45927 0.11891 0.0
C650 C 0.7074 0.92858 0.36878 0.0
C651 C 0.69867 0.88784 0.36758 0.0
H652 H 0.68611 0.98867 0.3705 0.0
C653 C 0.65767 0.87872 0.36652 0.0
H654 H 0.73797 0.93782 0.36943 0.0
C655 C 0.62742 0.90836 0.3661 0.0
C656 C 0.63614 0.94908 0.36789 0.0
H657 H 0.64871 0.84823 0.3652 0.0
H658 H 0.59687 0.89913 0.3646 0.0
C659 C 0.67713 0.95818 0.3695 0.0
C660 C 1.15557 0.95779 0.61798 0.0
C661 C 0.19667 0.94944 0.61858 0.0
H662 H 1.09542 0.93612 0.6185 0.0
C663 C 0.20638 0.90872 0.61975 0.0
H664 H 1.14584 0.9881 0.61687 0.0
C665 C 0.17706 0.87838 0.61971 0.0
C666 C 1.13597 0.88671 0.61963 0.0
H667 H 0.23716 0.89998 0.61987 0.0
H668 H 0.18682 0.84805 0.61994 0.0
C669 C 1.12621 0.92744 0.61902 0.0
C670 C 1.12987 0.40664 0.86854 0.0
C671 C 1.13811 0.44747 0.86802 0.0
H672 H 1.1519 0.34683 0.86943 0.0
C673 C 0.17899 0.45711 0.86744 0.0
H674 H 1.09942 0.39701 0.86877 0.0
C675 C 0.20961 0.42789 0.86684 0.0
C676 C 0.20138 0.38706 0.86787 0.0
H677 H 0.18759 0.48772 0.86662 0.0
H678 H 0.24004 0.4375 0.86573 0.0
C679 C 1.16051 0.37743 0.869 0.0
C680 C 0.65098 0.95603 0.93065 0.0
C681 C 0.69202 0.9476 0.93272 0.0
H682 H 0.59087 0.93438 0.92789 0.0
C683 C 0.70167 0.90689 0.93419 0.0
H684 H 0.64133 0.98637 0.92962 0.0
C685 C 0.6723 0.87662 0.9342 0.0
C686 C 0.6313 0.88499 0.93156 0.0
H687 H 0.7324 0.89814 0.93616 0.0
H688 H 0.68196 0.84632 0.93609 0.0
C689 C 0.62163 0.92569 0.92953 0.0
C690 C 0.62587 0.40681 0.68043 0.0
C691 C 0.63502 0.44747 0.68047 0.0
H692 H 0.64648 0.3465 0.68016 0.0
C693 C 0.67609 0.45621 0.68085 0.0
H694 H 0.59521 0.39786 0.68038 0.0
C695 C 0.70604 0.42628 0.68176 0.0
C696 C 0.69686 0.38561 0.68122 0.0
H697 H 0.68536 0.48663 0.68133 0.0
H698 H 0.73669 0.4352 0.68273 0.0
C699 C 0.65579 0.3769 0.68023 0.0
C700 C 0.17345 0.37597 0.43069 0.0
C701 C 1.13252 0.38505 0.43125 0.0
H702 H 0.23392 0.39658 0.4294 0.0
C703 C 1.12344 0.42591 0.43166 0.0
H704 H 0.18266 0.34548 0.43053 0.0
C705 C 1.15332 0.45572 0.43209 0.0
C706 C 0.19424 0.44664 0.43092 0.0
H707 H 1.09281 0.4351 0.43251 0.0
H708 H 1.14413 0.48621 0.4331 0.0
C709 C 0.20329 0.40579 0.42994 0.0
C710 C 0.20137 0.92308 0.18031 0.0
C711 C 0.19218 0.88244 0.18025 0.0
H712 H 0.18081 0.98342 0.18022 0.0
C713 C 1.15109 0.87375 0.18076 0.0
H714 H 0.23203 0.93201 0.18017 0.0
C715 C 1.12118 0.90373 0.18187 0.0
C716 C 1.13039 0.94438 0.18137 0.0
H717 H 1.14181 0.84334 0.18117 0.0
H718 H 1.09052 0.89484 0.1829 0.0
C719 C 0.17146 0.95302 0.18027 0.0
C720 C 0.4235 0.28935 0.94258 0.0
C721 C 0.38263 0.28848 0.9521 0.0
H722 H 0.48415 0.28819 0.964 0.0
C723 C 0.37374 0.28594 0.99461 0.0
H724 H 0.4325 0.29133 0.91078 0.0
C725 C 0.40384 0.28493 0.02568 0.0
C726 C 0.44468 0.28509 1.01606 0.0
H727 H 0.34315 0.28532 1.00415 0.0
H728 H 0.39493 0.28375 0.05755 0.0
C729 C 0.45356 0.28724 0.97355 0.0
C730 C 0.79891 0.67263 0.19105 0.0
C731 C 0.80041 0.63206 0.20103 0.0
H732 H 0.79971 0.73318 0.2118 0.0
C733 C 0.80396 0.62361 0.24359 0.0
H734 H 0.79619 0.68128 0.15917 0.0
C735 C 0.80523 0.65382 0.27428 0.0
C736 C 0.80432 0.69436 0.26422 0.0
H737 H 0.80515 0.59328 0.25348 0.0
H738 H 0.80713 0.64522 0.30623 0.0
C739 C 0.80126 0.70284 0.22165 0.0
C740 C 0.46159 1.04211 0.49092 0.0
C741 C 0.45279 1.04473 0.44833 0.0
H742 H 0.44061 1.04128 0.55368 0.0
C743 C 0.41218 1.04994 0.4386 0.0
H744 H 0.49192 1.03799 0.50062 0.0
C745 C 0.38233 1.05263 0.46955 0.0
C746 C 0.39115 1.04974 0.51214 0.0
H747 H 0.40326 1.05222 0.40671 0.0
H748 H 0.35192 1.05633 0.45984 0.0
C749 C 0.4317 1.04412 0.52182 0.0
C750 C 1.03618 0.71029 0.74237 0.0
C751 C 1.03954 0.7016 0.69984 0.0
H752 H 1.03224 0.68908 0.80487 0.0
C753 C 1.03999 0.661 0.68971 0.0
H754 H 1.03558 0.74067 0.75234 0.0
C755 C 1.03704 0.63098 0.72025 0.0
C756 C 1.03417 0.63972 0.7628 0.0
H757 H 1.04243 0.65221 0.65783 0.0
H758 H 1.03793 0.60057 0.71038 0.0
C759 C 1.03409 0.68029 0.77294 0.0
C760 C 0.92661 1.04114 0.02911 0.0
C761 C 0.88643 1.04885 0.03853 0.0
H762 H 0.98656 1.03239 0.05067 0.0
C763 C 0.87799 1.05323 0.081 0.0
H764 H 0.93517 1.03694 0.99739 0.0
C765 C 0.90792 1.05011 0.11207 0.0
C766 C 0.94818 1.04286 0.10254 0.0
H767 H 0.84781 1.05848 0.09051 0.0
H768 H 0.89936 1.05369 0.14387 0.0
C769 C 0.95655 1.0385 0.06012 0.0
C770 C 0.53183 0.66122 0.8596 0.0
C771 C 0.5371 0.70151 0.85012 0.0
H772 H 0.52566 0.60134 0.83809 0.0
C773 C 0.54022 0.7102 0.80762 0.0
H774 H 0.52923 0.65242 0.89141 0.0
C775 C 0.53844 0.68043 0.77652 0.0
C776 C 0.53275 0.64018 0.78601 0.0
H777 H 0.54457 0.74031 0.7982 0.0
H778 H 0.54153 0.68915 0.74473 0.0
C779 C 0.52949 0.63153 0.82852 0.0
C780 C 0.86652 0.28247 0.55471 0.0
C781 C 0.87538 0.28518 0.59734 0.0
H782 H 0.88788 0.28039 0.49195 0.0
C783 C 0.91618 0.28672 0.60728 0.0
H784 H 0.83596 0.28135 0.54488 0.0
C785 C 0.94625 0.28509 0.57667 0.0
C786 C 0.93749 0.28274 0.53406 0.0
H787 H 0.92515 0.28888 0.63918 0.0
H788 H 0.97678 0.28645 0.58661 0.0
C789 C 0.89669 0.28188 0.52393 0.0
C790 C 0.29844 0.66802 0.35809 0.0
C791 C 0.29017 0.62812 0.34885 0.0
H792 H 0.3069 0.72745 0.33642 0.0
C793 C 0.28368 0.61973 0.30661 0.0
H794 H 0.30362 0.67661 0.3897 0.0
C795 C 0.28544 0.64937 0.27552 0.0
C796 C 0.29423 0.6892 0.28472 0.0
H797 H 0.27668 0.58996 0.29741 0.0
H798 H 0.27978 0.64088 0.24396 0.0
C799 C 0.30061 0.69757 0.327 0.0
C800 C 0.87134 0.78293 0.49546 0.0
C801 C 0.88005 0.78589 0.45295 0.0
H802 H 0.89296 0.7803 0.55825 0.0
C803 C 0.92082 0.78714 0.44317 0.0
H804 H 0.8408 0.78203 0.50514 0.0
C805 C 0.95101 0.78513 0.47386 0.0
C806 C 0.94239 0.78261 0.51637 0.0
H807 H 0.92966 0.78948 0.41134 0.0
H808 H 0.98152 0.78641 0.46408 0.0
C809 C 0.90163 0.78189 0.52632 0.0
C810 C 0.30064 0.20048 0.72143 0.0
C811 C 0.30391 0.19213 0.76401 0.0
H812 H 0.29499 0.1788 0.65909 0.0
C813 C 0.30458 1.1516 0.7742 0.0
H814 H 0.29926 0.23079 0.71147 0.0
C815 C 0.30294 1.12128 0.7436 0.0
C816 C 0.29918 1.12964 0.70104 0.0
H817 H 0.30661 1.1431 0.80617 0.0
H818 H 0.30395 1.09097 0.75356 0.0
C819 C 0.29788 0.1702 0.69097 0.0
C820 C 0.93597 0.55412 0.02491 0.0
C821 C 0.89516 0.55297 1.01481 0.0
H822 H 0.9967 0.55401 1.00404 0.0
C823 C 0.88637 0.54941 0.97232 0.0
H824 H 0.94478 0.55642 0.05684 0.0
C825 C 0.91649 0.54683 0.94179 0.0
C826 C 0.95731 0.5486 0.95174 0.0
H827 H 0.85582 0.54767 0.96247 0.0
H828 H 0.90756 0.5437 0.90997 0.0
C829 C 0.96614 0.55265 0.99422 0.0
C830 C 0.53843 1.13771 0.2242 0.0
C831 C 0.53537 1.14587 0.26683 0.0
H832 H 0.54351 1.1595 0.16213 0.0
C833 C 0.53459 0.18632 0.27752 0.0
H834 H 0.53981 1.10746 0.21388 0.0
C835 C 0.53591 0.21675 0.24719 0.0
C836 C 0.53934 0.20847 0.20455 0.0
H837 H 0.53258 0.19463 0.30957 0.0
H838 H 0.53477 0.24703 0.25738 0.0
C839 C 0.54083 0.16802 0.19408 0.0
C840 C 0.43012 0.53917 0.52573 0.0
C841 C 0.38982 0.54664 0.53472 0.0
H842 H 0.48997 0.53137 0.54815 0.0
C843 C 0.38105 0.55146 0.5771 0.0
H844 H 0.43893 0.53471 0.49413 0.0
C845 C 0.41065 0.54906 0.6085 0.0
C846 C 0.45103 0.54226 0.59948 0.0
H847 H 0.35079 0.55664 0.58634 0.0
H848 H 0.40175 0.55299 0.64015 0.0
C849 C 0.45983 0.53735 0.55715 0.0
C850 C 1.04276 0.21113 0.30785 0.0
C851 C 1.0376 0.20282 0.35022 0.0
H852 H 1.04531 0.18967 0.24513 0.0
C853 C 1.03037 0.16286 0.35967 0.0
H854 H 1.04883 0.24099 0.29849 0.0
C855 C 1.02786 1.13315 0.32866 0.0
C856 C 1.0329 1.14139 0.28626 0.0
H857 H 1.02623 1.15437 0.39138 0.0
H858 H 1.02236 1.10322 0.33824 0.0
C859 C 1.04074 0.18128 0.27681 0.0
C860 C 0.41683 0.78419 0.10846 0.0
C861 C 0.37602 0.78608 0.09865 0.0
H862 H 0.47726 0.78094 0.08742 0.0
C863 C 0.36694 0.78605 0.05597 0.0
H864 H 0.42594 0.78405 0.14039 0.0
C865 C 0.3969 0.78479 0.02504 0.0
C866 C 0.4377 0.78252 0.03494 0.0
H867 H 0.33635 0.78737 0.04621 0.0
H868 H 0.38789 0.78534 0.99308 0.0
C869 C 0.44668 0.78214 0.0776 0.0
C870 C 0.79493 0.19765 0.82783 0.0
C871 C 0.79838 0.18902 0.78531 0.0
H872 H 0.78932 0.1765 0.89019 0.0
C873 C 0.79958 1.14838 0.77532 0.0
H874 H 0.79313 0.22803 0.83766 0.0
C875 C 0.79831 1.11828 0.80608 0.0
C876 C 0.79435 1.12696 0.84859 0.0
H877 H 0.80179 1.13963 0.74341 0.0
H878 H 0.79973 1.08789 0.79628 0.0
C879 C 0.79245 0.16762 0.8584 0.0
C880 C 0.6856 0.29748 0.865 0.0
C881 C 0.67277 0.25919 0.87366 0.0
H882 H 0.71354 0.33545 0.8217 0.0
C883 C 0.67577 0.22995 0.84341 0.0
H884 H 0.68368 0.32044 0.88803 0.0
C885 C 0.69207 0.23868 0.80526 0.0
C886 C 0.70632 0.27662 0.7971 0.0
H887 H 0.6658 0.20031 0.84943 0.0
H888 H 0.69509 0.21524 0.78289 0.0
C889 C 0.70256 0.30606 0.82712 0.0
C890 C 0.78466 0.95286 0.12407 0.0
C891 C 0.8182 0.92882 0.12871 0.0
H892 H 0.74885 0.98702 0.0837 0.0
C893 C 0.8406 0.91923 0.09379 0.0
H894 H 0.76692 0.96127 0.15029 0.0
C895 C 0.83049 0.93461 0.05535 0.0
C896 C 0.79771 0.95977 0.05116 0.0
H897 H 0.86615 0.90014 0.09619 0.0
H898 H 0.84917 0.92789 0.0293 0.0
C899 C 0.77435 0.96783 0.08575 0.0
C900 C 1.13987 1.09671 0.30105 0.0
C901 C 1.12651 1.05831 0.29338 0.0
H902 H 0.1666 1.13618 0.34443 0.0
C903 C 1.1325 1.0292 0.32325 0.0
H904 H 1.13495 1.11988 0.27883 0.0
C905 C 1.15075 1.03849 0.36052 0.0
C906 C 1.16266 1.07721 0.36888 0.0
H907 H 1.12214 0.99947 0.31822 0.0
H908 H 1.1542 1.0157 0.38345 0.0
C909 C 1.15747 1.10617 0.3387 0.0
C910 C 0.98204 0.39109 0.55118 0.0
C911 C 1.02069 0.37864 0.5423 0.0
H912 H 0.94325 0.41693 0.59576 0.0
C913 C 1.05088 0.38548 0.57112 0.0
H914 H 0.95809 0.38551 0.52978 0.0
C915 C 1.04245 0.40362 0.60857 0.0
C916 C 1.00352 0.41456 0.61823 0.0
H917 H 1.08086 0.37585 0.56514 0.0
H918 H 1.06612 0.40767 0.63068 0.0
C919 C 0.97345 0.40858 0.58905 0.0
C920 C 0.65636 1.04274 0.19244 0.0
C921 C 0.6654 1.08189 0.18282 0.0
H922 H 0.63017 1.00341 0.23568 0.0
C923 C 0.65803 1.11152 0.2119 0.0
H924 H 0.66154 1.01943 0.17035 0.0
C925 C 0.641 1.10222 0.24967 0.0
C926 C 0.63027 1.06329 0.25845 0.0
H927 H 0.66484 1.14189 0.2051 0.0
H928 H 0.63424 1.12578 0.27098 0.0
C929 C 0.63853 1.03357 0.22975 0.0
C930 C 0.48428 0.40979 0.95934 0.0
C931 C 0.51246 0.40972 0.92787 0.0
H932 H 0.47076 0.39309 0.02092 0.0
C933 C 0.55025 0.39416 0.93552 0.0
H934 H 0.45508 0.422 0.95424 0.0
C935 C 0.55933 0.37776 0.97358 0.0
C936 C 0.53086 0.37692 1.00477 0.0
H937 H 0.57243 0.39356 0.91163 0.0
H938 H 0.58829 0.36482 0.97818 0.0
C939 C 0.49349 0.39375 0.9976 0.0
C940 C 0.21189 0.30814 0.72074 0.0
C941 C 0.21055 0.2807 0.75284 0.0
H942 H 0.19738 0.32082 0.6583 0.0
C943 C 0.19011 0.24525 0.74691 0.0
H944 H 0.22739 0.33574 0.72435 0.0
C945 C 0.17275 0.23674 0.70895 0.0
C946 C 0.1754 0.26361 0.6764 0.0
H947 H 0.18877 0.22339 0.771 0.0
H948 H 1.1576 0.20899 0.70494 0.0
C949 C 0.19458 0.29964 0.6829 0.0
C950 C 0.33692 0.93736 0.49598 0.0
C951 C 0.30145 0.95809 0.50212 0.0
H952 H 0.37275 0.90483 0.45372 0.0
C953 C 0.27346 0.95979 0.47021 0.0
H954 H 0.3592 0.93578 0.51992 0.0
C955 C 0.28143 0.94248 0.43233 0.0
C956 C 0.31752 0.92309 0.42561 0.0
H957 H 0.24587 0.97557 0.47398 0.0
H958 H 0.25984 0.94549 0.40786 0.0
C959 C 0.34494 0.92011 0.45796 0.0
C960 C 0.17665 0.79581 0.35722 0.0
C961 C 0.16385 0.7576 0.36625 0.0
H962 H 0.20539 0.83324 0.31405 0.0
C963 C 0.16696 0.72812 0.33617 0.0
H964 H 0.17483 0.819 0.38003 0.0
C965 C 0.1839 0.73645 0.29813 0.0
C966 C 0.19854 0.7742 0.29001 0.0
H967 H 1.15704 0.6985 0.3424 0.0
H968 H 0.18758 0.71283 0.27608 0.0
C969 C 0.1941 0.80397 0.31953 0.0
C970 C 0.35565 0.42344 0.58728 0.0
C971 C 0.3268 0.41917 0.61778 0.0
H972 H 0.36905 0.44458 0.52703 0.0
C973 C 0.28788 0.43141 0.60953 0.0
H974 H 0.3858 0.41404 0.59287 0.0
C975 C 0.27834 0.44904 0.5721 0.0
C976 C 0.30735 0.45407 0.5419 0.0
H977 H 0.26514 0.42866 0.63266 0.0
H978 H 0.24848 0.45964 0.56717 0.0
C979 C 0.34592 0.4404 0.54948 0.0
C980 C 0.645 0.59477 0.79884 0.0
C981 C 0.62861 0.55738 0.79214 0.0
H982 H 0.67422 0.63327 0.84145 0.0
C983 C 0.63162 0.52892 0.82315 0.0
H984 H 0.64253 0.61747 0.7757 0.0
C985 C 0.64965 0.53796 0.86059 0.0
C986 C 0.66463 0.57579 0.86797 0.0
H987 H 0.61902 0.49996 0.81893 0.0
H988 H 0.65055 0.51573 0.88434 0.0
C989 C 0.66261 0.60399 0.8366 0.0
C990 C 0.55295 0.88293 0.07046 0.0
C991 C 0.52297 0.87884 0.04085 0.0
H992 H 0.56864 0.90326 0.13046 0.0
C993 C 0.48559 0.8953 0.04836 0.0
H994 H 0.58202 0.87041 0.06548 0.0
C995 C 0.47782 0.91388 0.08581 0.0
C996 C 0.50746 0.91667 0.11602 0.0
H997 H 0.46181 0.89212 0.02623 0.0
H998 H 0.44848 0.92544 0.09145 0.0
C999 C 0.54532 0.9018 0.10761 0.0
C1000 C 1.13712 0.53239 0.68026 0.0
C1001 C 1.15833 0.56728 0.67423 0.0
H1002 H 1.10446 0.49702 0.72182 0.0
C1003 C 0.16507 0.59249 0.70776 0.0
H1004 H 1.13116 0.51248 0.65498 0.0
C1005 C 1.14937 0.58378 0.74622 0.0
C1006 C 1.12664 0.54974 0.75166 0.0
H1007 H 0.182 0.6192 0.70414 0.0
H1008 H 1.15366 0.60455 0.77112 0.0
C1009 C 1.12168 0.52359 0.71862 0.0
C1010 C 0.97921 0.91362 0.46504 0.0
C1011 C 1.0076 0.91523 0.43379 0.0
H1012 H 0.96554 0.89381 0.52572 0.0
C1013 C 1.04561 0.90011 0.44114 0.0
H1014 H 0.94979 0.92538 0.46014 0.0
C1015 C 1.05462 0.88222 0.47844 0.0
C1016 C 1.0259 0.87944 0.50925 0.0
H1017 H 1.06795 0.9007 0.41742 0.0
H1018 H 1.0837 0.86941 0.48266 0.0
C1019 C 0.98839 0.89609 0.50267 0.0
C1020 C 0.66978 0.74249 0.20829 0.0
C1021 C 0.67692 0.76665 0.1742 0.0
H1022 H 0.68163 0.73144 0.27182 0.0
C1023 C 0.69995 0.80057 0.17933 0.0
H1024 H 0.65153 0.71654 0.20537 0.0
C1025 C 0.71672 0.80939 0.21737 0.0
C1026 C 0.71098 0.7844 0.25109 0.0
H1027 H 0.70619 0.81964 0.15359 0.0
H1028 H 0.73537 0.83508 0.21985 0.0
C1029 C 0.68659 0.75133 0.24645 0.0
C1030 C 0.77925 0.45556 0.97361 0.0
C1031 C 0.80859 0.4589 1.00401 0.0
H1032 H 0.7647 0.43567 0.91301 0.0
C1033 C 0.84618 0.44263 0.99683 0.0
H1034 H 0.75009 0.46797 0.97825 0.0
C1035 C 0.85468 0.42467 0.95929 0.0
C1036 C 0.82556 0.42211 0.9286 0.0
H1037 H 0.86956 0.44517 0.01953 0.0
H1038 H 0.88407 0.41303 0.95411 0.0
C1039 C 0.78759 0.4371 0.93633 0.0
C1040 C 0.38369 0.54247 0.13671 0.0
C1041 C 0.37604 0.50489 0.12052 0.0
H1042 H 0.37665 0.5763 0.19142 0.0
C1043 C 0.33731 0.49081 0.12503 0.0
H1044 H 0.41153 0.55671 0.13016 0.0
C1045 C 0.31629 0.50224 0.15996 0.0
C1046 C 0.33424 0.52843 0.18784 0.0
H1047 H 0.32792 0.46438 0.1092 0.0
H1048 H 0.29114 0.48481 0.16916 0.0
C1049 C 0.36364 0.55356 0.17243 0.0
C1050 C 0.53636 0.68995 0.3998 0.0
C1051 C 0.56013 0.66209 0.37952 0.0
H1052 H 0.5074 0.7022 0.45663 0.0
C1053 C 0.5501 0.62243 0.38495 0.0
H1054 H 0.5393 0.72101 0.39337 0.0
C1055 C 0.53396 0.61144 0.42264 0.0
C1056 C 0.52486 0.6409 0.45176 0.0
H1057 H 0.5645 0.59996 0.36666 0.0
H1058 H 0.53604 0.58079 0.43105 0.0
C1059 C 0.51864 0.6792 0.43677 0.0
C1060 C 0.49211 0.83621 0.63203 0.0
C1061 C 0.45334 0.82568 0.62109 0.0
H1062 H 0.53296 0.83565 0.68187 0.0
C1063 C 0.44067 0.78806 0.63299 0.0
H1064 H 0.50519 0.86286 0.6202 0.0
C1065 C 0.45649 0.77204 0.66906 0.0
C1066 C 0.48598 0.79304 0.69033 0.0
H1067 H 0.41261 0.77689 0.62198 0.0
H1068 H 0.44061 0.74857 0.68409 0.0
C1069 C 0.50816 0.82052 0.668 0.0
C1070 C 0.30019 0.73337 0.91962 0.0
C1071 C 0.30901 0.70663 0.95129 0.0
H1072 H 0.26889 0.73979 0.86293 0.0
C1073 C 0.31517 0.66712 0.94039 0.0
H1074 H 0.29786 0.7645 0.92623 0.0
C1075 C 0.29855 0.65309 0.9039 0.0
C1076 C 0.2749 0.67875 0.88041 0.0
H1077 H 0.32463 0.64582 0.96311 0.0
H1078 H 0.29601 0.62154 0.9004 0.0
C1079 C 0.28367 0.71908 0.88306 0.0
C1080 C 0.95817 0.7955 0.91521 0.0
C1081 C 0.91778 0.80543 0.91502 0.0
H1082 H 1.00601 0.77991 0.87563 0.0
C1083 C 0.89283 0.78342 0.88909 0.0
H1084 H 0.97802 0.80931 0.93705 0.0
C1085 C 0.90879 0.7664 0.85379 0.0
C1086 C 0.9493 0.77093 0.84613 0.0
H1087 H 0.86109 0.78731 0.89006 0.0
H1088 H 0.88867 0.75802 0.82934 0.0
C1089 C 0.97431 0.77863 0.87981 0.0
C1090 C 0.93756 0.28873 0.13897 0.0
C1091 C 0.94987 0.32507 0.12309 0.0
H1092 H 0.94094 0.25392 0.19328 0.0
C1093 C 0.99008 0.33427 0.12781 0.0
H1094 H 0.908 0.27825 0.13243 0.0
C1095 C 1.00983 0.31997 0.1625 0.0
C1096 C 0.98888 0.29613 0.19008 0.0
H1097 H 1.00248 0.35956 0.11243 0.0
H1098 H 1.03687 0.33432 0.17213 0.0
C1099 C 0.95653 0.27486 0.17439 0.0
C1100 C 1.09939 1.08506 0.87757 0.0
C1101 C 1.08579 1.1237 0.87158 0.0
H1102 H 1.1026 1.03928 0.92228 0.0
C1103 C 1.04772 1.13257 0.88609 0.0
H1104 H 1.12658 1.07515 0.86345 0.0
C1105 C 1.03461 1.11296 0.92116 0.0
C1106 C 1.05851 1.08307 0.938 0.0
H1107 H 1.03427 1.16063 0.87872 0.0
H1108 H 1.01125 1.12652 0.9389 0.0
C1109 C 1.08585 1.06456 0.91183 0.0
C1110 C 0.59145 1.08388 0.66802 0.0
C1111 C 0.57834 1.12175 0.67887 0.0
H1112 H 0.59309 1.04316 0.61832 0.0
C1113 C 0.53956 1.13188 0.66714 0.0
H1114 H 0.61922 1.07257 0.67975 0.0
C1115 C 0.52418 1.11509 0.6312 0.0
C1116 C 0.5471 1.08716 0.60992 0.0
H1117 H 0.5265 1.15903 0.67811 0.0
H1118 H 0.49945 1.12943 0.61615 0.0
C1119 C 0.57636 1.06684 0.63223 0.0
loop_
_geom_bond_atom_site_label_1
_geom_bond_atom_site_label_2
_geom_bond_distance
_geom_bond_site_symmetry_2
_ccdc_geom_bond_type
Dy0 O3 2.307 . S
Dy0 O5 2.395 . S
Dy0 O6 2.379 . S
Dy0 O8 2.339 . S
Dy0 O10 2.298 . S
Dy0 O14 2.275 . S
Dy0 C22 2.738 . S
Dy1 O4 2.298 1_556 S
Dy1 O7 2.275 . S
Dy1 O9 2.307 . S
Dy1 O11 2.395 . S
Dy1 O12 2.379 . S
Dy1 O15 2.339 1_556 S
Dy1 C31 2.738 . S
C2 O14 1.254 . S
C2 O15 1.257 . S
O3 Dy0 2.307 . S
O3 C13 1.266 . S
O4 Dy1 2.298 1_554 S
O4 C13 1.236 . S
O5 Dy0 2.395 . S
O5 C22 1.255 . S
O6 Dy0 2.379 . S
O6 C22 1.249 . S
O7 Dy1 2.275 . S
O7 C23 1.254 . S
O8 Dy0 2.339 . S
O8 C23 1.257 1_554 S
O9 Dy1 2.307 . S
O9 C24 1.266 1_556 S
O10 Dy0 2.298 . S
O10 C24 1.236 . S
O11 Dy1 2.395 . S
O11 C31 1.255 . S
O12 Dy1 2.379 . S
O12 C31 1.249 . S
C13 O3 1.266 . S
C13 O4 1.236 . S
O14 Dy0 2.275 . S
O14 C2 1.254 . S
O15 Dy1 2.339 1_554 S
O15 C2 1.257 . S
C16 C19 1.344 . S
C16 C20 1.328 . S
C16 C22 1.516 . S
C17 C18 1.304 . S
C17 C21 1.323 . S
C18 C17 1.304 . S
C18 C19 1.371 . S
C18 H32 0.930 . S
C19 C16 1.344 . S
C19 C18 1.371 . S
C19 H33 0.931 . S
C20 C16 1.328 . S
C20 C21 1.433 . S
C20 H34 0.931 . S
C21 C17 1.323 . S
C21 C20 1.433 . S
C21 H35 0.933 . S
C22 Dy0 2.738 . S
C22 O5 1.255 . S
C22 O6 1.249 . S
C22 C16 1.516 . S
C23 O7 1.254 . S
C23 O8 1.257 1_556 S
C24 O9 1.266 1_554 S
C24 O10 1.236 . S
C25 C28 1.344 . S
C25 C29 1.328 . S
C25 C31 1.516 . S
C26 C27 1.304 . S
C26 C30 1.323 . S
C27 C26 1.304 . S
C27 C28 1.371 . S
C27 H36 0.930 . S
C28 C25 1.344 . S
C28 C27 1.371 . S
C28 H37 0.931 . S
C29 C25 1.328 . S
C29 C30 1.433 . S
C29 H38 0.931 . S
C30 C26 1.323 . S
C30 C29 1.433 . S
C30 H39 0.933 . S
C31 Dy1 2.738 . S
C31 O11 1.255 . S
C31 O12 1.249 . S
C31 C25 1.516 . S
H32 C18 0.930 . S
H33 C19 0.931 . S
H34 C20 0.931 . S
H35 C21 0.933 . S
H36 C27 0.930 . S
H37 C28 0.931 . S
H38 C29 0.931 . S
H39 C30 0.933 . S
Dy40 O43 2.307 . S
Dy40 O45 2.395 . S
Dy40 O46 2.379 . S
Dy40 O48 2.339 . S
Dy40 O50 2.298 . S
Dy40 O54 2.275 . S
Dy40 C62 2.738 . S
Dy41 O44 2.298 . S
Dy41 O47 2.275 . S
Dy41 O49 2.307 . S
Dy41 O51 2.395 . S
Dy41 O52 2.379 . S
Dy41 O55 2.339 . S
Dy41 C71 2.738 . S
C42 O54 1.254 . S
C42 O55 1.257 . S
O43 Dy40 2.307 . S
O43 C53 1.266 . S
O44 Dy41 2.298 . S
O44 C53 1.236 . S
O45 Dy40 2.395 . S
O45 C62 1.255 . S
O46 Dy40 2.379 . S
O46 C62 1.249 . S
O47 Dy41 2.275 . S
O47 C63 1.254 . S
O48 Dy40 2.339 . S
O48 C63 1.257 . S
O49 Dy41 2.307 . S
O49 C64 1.266 . S
O50 Dy40 2.298 . S
O50 C64 1.236 . S
O51 Dy41 2.395 . S
O51 C71 1.255 . S
O52 Dy41 2.379 . S
O52 C71 1.249 . S
C53 O43 1.266 . S
C53 O44 1.236 . S
O54 Dy40 2.275 . S
O54 C42 1.254 . S
O55 Dy41 2.339 . S
O55 C42 1.257 . S
C56 C59 1.344 . S
C56 C60 1.328 . S
C56 C62 1.516 . S
C57 C58 1.304 . S
C57 C61 1.323 . S
C58 C57 1.304 . S
C58 C59 1.371 . S
C58 H72 0.930 . S
C59 C56 1.344 . S
C59 C58 1.371 . S
C59 H73 0.931 . S
C60 C56 1.328 . S
C60 C61 1.433 . S
C60 H74 0.931 . S
C61 C57 1.323 . S
C61 C60 1.433 . S
C61 H75 0.933 . S
C62 Dy40 2.738 . S
C62 O45 1.255 . S
C62 O46 1.249 . S
C62 C56 1.516 . S
C63 O47 1.254 . S
C63 O48 1.257 . S
C64 O49 1.266 . S
C64 O50 1.236 . S
C65 C68 1.344 . S
C65 C69 1.328 . S
C65 C71 1.516 . S
C66 C67 1.304 . S
C66 C70 1.323 . S
C67 C66 1.304 . S
C67 C68 1.371 . S
C67 H76 0.930 . S
C68 C65 1.344 . S
C68 C67 1.371 . S
C68 H77 0.931 . S
C69 C65 1.328 . S
C69 C70 1.433 . S
C69 H78 0.931 . S
C70 C66 1.323 . S
C70 C69 1.433 . S
C70 H79 0.933 . S
C71 Dy41 2.738 . S
C71 O51 1.255 . S
C71 O52 1.249 . S
C71 C65 1.516 . S
H72 C58 0.930 . S
H73 C59 0.931 . S
H74 C60 0.931 . S
H75 C61 0.933 . S
H76 C67 0.930 . S
H77 C68 0.931 . S
H78 C69 0.931 . S
H79 C70 0.933 . S
Dy80 O83 2.307 . S
Dy80 O85 2.395 . S
Dy80 O86 2.379 . S
Dy80 O88 2.339 . S
Dy80 O90 2.298 . S
Dy80 O94 2.275 . S
Dy80 C102 2.738 . S
Dy81 O84 2.298 . S
Dy81 O87 2.275 . S
Dy81 O89 2.307 . S
Dy81 O91 2.395 . S
Dy81 O92 2.379 . S
Dy81 O95 2.339 . S
Dy81 C111 2.738 . S
C82 O94 1.254 . S
C82 O95 1.257 . S
O83 Dy80 2.307 . S
O83 C93 1.266 . S
O84 Dy81 2.298 . S
O84 C93 1.236 . S
O85 Dy80 2.395 . S
O85 C102 1.255 . S
O86 Dy80 2.379 . S
O86 C102 1.249 . S
O87 Dy81 2.275 . S
O87 C103 1.254 . S
O88 Dy80 2.339 . S
O88 C103 1.257 . S
O89 Dy81 2.307 . S
O89 C104 1.266 . S
O90 Dy80 2.298 . S
O90 C104 1.236 . S
O91 Dy81 2.395 . S
O91 C111 1.255 . S
O92 Dy81 2.379 . S
O92 C111 1.249 . S
C93 O83 1.266 . S
C93 O84 1.236 . S
O94 Dy80 2.275 . S
O94 C82 1.254 . S
O95 Dy81 2.339 . S
O95 C82 1.257 . S
C96 C99 1.344 . S
C96 C100 1.328 . S
C96 C102 1.516 . S
C97 C98 1.304 . S
C97 C101 1.323 . S
C98 C97 1.304 . S
C98 C99 1.371 . S
C98 H112 0.930 . S
C99 C96 1.344 . S
C99 C98 1.371 . S
C99 H113 0.931 . S
C100 C96 1.328 . S
C100 C101 1.433 . S
C100 H114 0.931 . S
C101 C97 1.323 . S
C101 C100 1.433 . S
C101 H115 0.933 . S
C102 Dy80 2.738 . S
C102 O85 1.255 . S
C102 O86 1.249 . S
C102 C96 1.516 . S
C103 O87 1.254 . S
C103 O88 1.257 . S
C104 O89 1.266 . S
C104 O90 1.236 . S
C105 C108 1.344 . S
C105 C109 1.328 . S
C105 C111 1.516 . S
C106 C107 1.304 . S
C106 C110 1.323 . S
C107 C106 1.304 . S
C107 C108 1.371 1_655 S
C107 H116 0.930 . S
C108 C105 1.344 . S
C108 C107 1.371 1_455 S
C108 H117 0.931 . S
C109 C105 1.328 . S
C109 C110 1.433 1_455 S
C109 H118 0.931 . S
C110 C106 1.323 . S
C110 C109 1.433 1_655 S
C110 H119 0.933 . S
C111 Dy81 2.738 . S
C111 O91 1.255 . S
C111 O92 1.249 . S
C111 C105 1.516 . S
H112 C98 0.930 . S
H113 C99 0.931 . S
H114 C100 0.931 . S
H115 C101 0.933 . S
H116 C107 0.930 . S
H117 C108 0.931 . S
H118 C109 0.931 . S
H119 C110 0.933 . S
Dy120 O123 2.307 . S
Dy120 O125 2.395 . S
Dy120 O126 2.379 . S
Dy120 O128 2.339 . S
Dy120 O130 2.298 . S
Dy120 O134 2.275 . S
Dy120 C142 2.738 . S
Dy121 O124 2.298 . S
Dy121 O127 2.275 . S
Dy121 O129 2.307 . S
Dy121 O131 2.395 . S
Dy121 O132 2.379 . S
Dy121 O135 2.339 . S
Dy121 C151 2.738 . S
C122 O134 1.254 . S
C122 O135 1.257 . S
O123 Dy120 2.307 . S
O123 C133 1.266 . S
O124 Dy121 2.298 . S
O124 C133 1.236 . S
O125 Dy120 2.395 . S
O125 C142 1.255 . S
O126 Dy120 2.379 . S
O126 C142 1.249 . S
O127 Dy121 2.275 . S
O127 C143 1.254 . S
O128 Dy120 2.339 . S
O128 C143 1.257 . S
O129 Dy121 2.307 . S
O129 C144 1.266 . S
O130 Dy120 2.298 . S
O130 C144 1.236 . S
O131 Dy121 2.395 . S
O131 C151 1.255 . S
O132 Dy121 2.379 . S
O132 C151 1.249 . S
C133 O123 1.266 . S
C133 O124 1.236 . S
O134 Dy120 2.275 . S
O134 C122 1.254 . S
O135 Dy121 2.339 . S
O135 C122 1.257 . S
C136 C139 1.344 . S
C136 C140 1.328 . S
C136 C142 1.516 . S
C137 C138 1.304 . S
C137 C141 1.323 . S
C138 C137 1.304 . S
C138 C139 1.371 . S
C138 H152 0.930 . S
C139 C136 1.344 . S
C139 C138 1.371 . S
C139 H153 0.931 . S
C140 C136 1.328 . S
C140 C141 1.433 . S
C140 H154 0.931 . S
C141 C137 1.323 . S
C141 C140 1.433 . S
C141 H155 0.933 . S
C142 Dy120 2.738 . S
C142 O125 1.255 . S
C142 O126 1.249 . S
C142 C136 1.516 . S
C143 O127 1.254 . S
C143 O128 1.257 . S
C144 O129 1.266 . S
C144 O130 1.236 . S
C145 C148 1.344 . S
C145 C149 1.328 . S
C145 C151 1.516 . S
C146 C147 1.304 . S
C146 C150 1.323 . S
C147 C146 1.304 . S
C147 C148 1.371 . S
C147 H156 0.930 . S
C148 C145 1.344 . S
C148 C147 1.371 . S
C148 H157 0.931 . S
C149 C145 1.328 . S
C149 C150 1.433 . S
C149 H158 0.931 . S
C150 C146 1.323 . S
C150 C149 1.433 . S
C150 H159 0.933 . S
C151 Dy121 2.738 . S
C151 O131 1.255 . S
C151 O132 1.249 . S
C151 C145 1.516 . S
H152 C138 0.930 . S
H153 C139 0.931 . S
H154 C140 0.931 . S
H155 C141 0.933 . S
H156 C147 0.930 . S
H157 C148 0.931 . S
H158 C149 0.931 . S
H159 C150 0.933 . S
Dy160 O163 2.307 . S
Dy160 O165 2.395 . S
Dy160 O166 2.379 . S
Dy160 O168 2.339 1_554 S
Dy160 O170 2.298 1_554 S
Dy160 O174 2.275 . S
Dy160 C182 2.738 . S
Dy161 O164 2.298 . S
Dy161 O167 2.275 . S
Dy161 O169 2.307 . S
Dy161 O171 2.395 . S
Dy161 O172 2.379 . S
Dy161 O175 2.339 . S
Dy161 C191 2.738 . S
C162 O174 1.254 . S
C162 O175 1.257 1_554 S
O163 Dy160 2.307 . S
O163 C173 1.266 1_554 S
O164 Dy161 2.298 . S
O164 C173 1.236 . S
O165 Dy160 2.395 . S
O165 C182 1.255 . S
O166 Dy160 2.379 . S
O166 C182 1.249 . S
O167 Dy161 2.275 . S
O167 C183 1.254 . S
O168 Dy160 2.339 1_556 S
O168 C183 1.257 . S
O169 Dy161 2.307 . S
O169 C184 1.266 . S
O170 Dy160 2.298 1_556 S
O170 C184 1.236 . S
O171 Dy161 2.395 . S
O171 C191 1.255 . S
O172 Dy161 2.379 . S
O172 C191 1.249 . S
C173 O163 1.266 1_556 S
C173 O164 1.236 . S
O174 Dy160 2.275 . S
O174 C162 1.254 . S
O175 Dy161 2.339 . S
O175 C162 1.257 1_556 S
C176 C179 1.344 . S
C176 C180 1.328 . S
C176 C182 1.516 . S
C177 C178 1.304 . S
C177 C181 1.323 . S
C178 C177 1.304 . S
C178 C179 1.371 . S
C178 H192 0.930 . S
C179 C176 1.344 . S
C179 C178 1.371 . S
C179 H193 0.931 . S
C180 C176 1.328 . S
C180 C181 1.433 . S
C180 H194 0.931 . S
C181 C177 1.323 . S
C181 C180 1.433 . S
C181 H195 0.933 . S
C182 Dy160 2.738 . S
C182 O165 1.255 . S
C182 O166 1.249 . S
C182 C176 1.516 . S
C183 O167 1.254 . S
C183 O168 1.257 . S
C184 O169 1.266 . S
C184 O170 1.236 . S
C185 C188 1.344 . S
C185 C189 1.328 . S
C185 C191 1.516 . S
C186 C187 1.304 . S
C186 C190 1.323 . S
C187 C186 1.304 . S
C187 C188 1.371 . S
C187 H196 0.930 . S
C188 C185 1.344 . S
C188 C187 1.371 . S
C188 H197 0.931 . S
C189 C185 1.328 . S
C189 C190 1.433 . S
C189 H198 0.931 . S
C190 C186 1.323 . S
C190 C189 1.433 . S
C190 H199 0.933 . S
C191 Dy161 2.738 . S
C191 O171 1.255 . S
C191 O172 1.249 . S
C191 C185 1.516 . S
H192 C178 0.930 . S
H193 C179 0.931 . S
H194 C180 0.931 . S
H195 C181 0.933 . S
H196 C187 0.930 . S
H197 C188 0.931 . S
H198 C189 0.931 . S
H199 C190 0.933 . S
Dy200 O203 2.307 . S
Dy200 O205 2.395 . S
Dy200 O206 2.379 . S
Dy200 O208 2.339 . S
Dy200 O210 2.298 . S
Dy200 O214 2.275 . S
Dy200 C222 2.738 . S
Dy201 O204 2.298 . S
Dy201 O207 2.275 . S
Dy201 O209 2.307 . S
Dy201 O211 2.395 . S
Dy201 O212 2.379 . S
Dy201 O215 2.339 . S
Dy201 C231 2.738 . S
C202 O214 1.254 . S
C202 O215 1.257 . S
O203 Dy200 2.307 . S
O203 C213 1.266 . S
O204 Dy201 2.298 . S
O204 C213 1.236 . S
O205 Dy200 2.395 . S
O205 C222 1.255 . S
O206 Dy200 2.379 . S
O206 C222 1.249 . S
O207 Dy201 2.275 . S
O207 C223 1.254 . S
O208 Dy200 2.339 . S
O208 C223 1.257 . S
O209 Dy201 2.307 . S
O209 C224 1.266 . S
O210 Dy200 2.298 . S
O210 C224 1.236 . S
O211 Dy201 2.395 . S
O211 C231 1.255 . S
O212 Dy201 2.379 . S
O212 C231 1.249 . S
C213 O203 1.266 . S
C213 O204 1.236 . S
O214 Dy200 2.275 . S
O214 C202 1.254 . S
O215 Dy201 2.339 . S
O215 C202 1.257 . S
C216 C219 1.344 . S
C216 C220 1.328 . S
C216 C222 1.516 . S
C217 C218 1.304 . S
C217 C221 1.323 . S
C218 C217 1.304 . S
C218 C219 1.371 . S
C218 H232 0.930 . S
C219 C216 1.344 . S
C219 C218 1.371 . S
C219 H233 0.931 . S
C220 C216 1.328 . S
C220 C221 1.433 . S
C220 H234 0.931 . S
C221 C217 1.323 . S
C221 C220 1.433 . S
C221 H235 0.933 . S
C222 Dy200 2.738 . S
C222 O205 1.255 . S
C222 O206 1.249 . S
C222 C216 1.516 . S
C223 O207 1.254 . S
C223 O208 1.257 . S
C224 O209 1.266 . S
C224 O210 1.236 . S
C225 C228 1.344 . S
C225 C229 1.328 . S
C225 C231 1.516 . S
C226 C227 1.304 . S
C226 C230 1.323 . S
C227 C226 1.304 . S
C227 C228 1.371 . S
C227 H236 0.930 . S
C228 C225 1.344 . S
C228 C227 1.371 . S
C228 H237 0.931 . S
C229 C225 1.328 . S
C229 C230 1.433 . S
C229 H238 0.931 . S
C230 C226 1.323 . S
C230 C229 1.433 . S
C230 H239 0.933 . S
C231 Dy201 2.738 . S
C231 O211 1.255 . S
C231 O212 1.249 . S
C231 C225 1.516 . S
H232 C218 0.930 . S
H233 C219 0.931 . S
H234 C220 0.931 . S
H235 C221 0.933 . S
H236 C227 0.930 . S
H237 C228 0.931 . S
H238 C229 0.931 . S
H239 C230 0.933 . S
Dy240 O243 2.307 . S
Dy240 O245 2.395 . S
Dy240 O246 2.379 . S
Dy240 O248 2.339 . S
Dy240 O250 2.298 . S
Dy240 O254 2.275 . S
Dy240 C262 2.738 . S
Dy241 O244 2.298 . S
Dy241 O247 2.275 . S
Dy241 O249 2.307 . S
Dy241 O251 2.395 . S
Dy241 O252 2.379 . S
Dy241 O255 2.339 . S
Dy241 C271 2.738 . S
C242 O254 1.254 . S
C242 O255 1.257 . S
O243 Dy240 2.307 . S
O243 C253 1.266 . S
O244 Dy241 2.298 . S
O244 C253 1.236 . S
O245 Dy240 2.395 . S
O245 C262 1.255 . S
O246 Dy240 2.379 . S
O246 C262 1.249 . S
O247 Dy241 2.275 . S
O247 C263 1.254 . S
O248 Dy240 2.339 . S
O248 C263 1.257 . S
O249 Dy241 2.307 . S
O249 C264 1.266 . S
O250 Dy240 2.298 . S
O250 C264 1.236 . S
O251 Dy241 2.395 . S
O251 C271 1.255 . S
O252 Dy241 2.379 . S
O252 C271 1.249 . S
C253 O243 1.266 . S
C253 O244 1.236 . S
O254 Dy240 2.275 . S
O254 C242 1.254 . S
O255 Dy241 2.339 . S
O255 C242 1.257 . S
C256 C259 1.344 . S
C256 C260 1.328 . S
C256 C262 1.516 . S
C257 C258 1.304 . S
C257 C261 1.323 . S
C258 C257 1.304 . S
C258 C259 1.371 1_455 S
C258 H272 0.930 . S
C259 C256 1.344 . S
C259 C258 1.371 1_655 S
C259 H273 0.931 . S
C260 C256 1.328 . S
C260 C261 1.433 1_655 S
C260 H274 0.931 . S
C261 C257 1.323 . S
C261 C260 1.433 1_455 S
C261 H275 0.933 . S
C262 Dy240 2.738 . S
C262 O245 1.255 . S
C262 O246 1.249 . S
C262 C256 1.516 . S
C263 O247 1.254 . S
C263 O248 1.257 . S
C264 O249 1.266 . S
C264 O250 1.236 . S
C265 C268 1.344 . S
C265 C269 1.328 . S
C265 C271 1.516 . S
C266 C267 1.304 . S
C266 C270 1.323 . S
C267 C266 1.304 . S
C267 C268 1.371 . S
C267 H276 0.930 . S
C268 C265 1.344 . S
C268 C267 1.371 . S
C268 H277 0.931 . S
C269 C265 1.328 . S
C269 C270 1.433 . S
C269 H278 0.931 . S
C270 C266 1.323 . S
C270 C269 1.433 . S
C270 H279 0.933 . S
C271 Dy241 2.738 . S
C271 O251 1.255 . S
C271 O252 1.249 . S
C271 C265 1.516 . S
H272 C258 0.930 . S
H273 C259 0.931 . S
H274 C260 0.931 . S
H275 C261 0.933 . S
H276 C267 0.930 . S
H277 C268 0.931 . S
H278 C269 0.931 . S
H279 C270 0.933 . S
Dy280 O283 2.307 . S
Dy280 O285 2.395 . S
Dy280 O286 2.379 . S
Dy280 O288 2.339 . S
Dy280 O290 2.298 . S
Dy280 O294 2.275 . S
Dy280 C302 2.738 . S
Dy281 O284 2.298 . S
Dy281 O287 2.275 . S
Dy281 O289 2.307 . S
Dy281 O291 2.395 . S
Dy281 O292 2.379 . S
Dy281 O295 2.339 . S
Dy281 C311 2.738 . S
C282 O294 1.254 . S
C282 O295 1.257 . S
O283 Dy280 2.307 . S
O283 C293 1.266 . S
O284 Dy281 2.298 . S
O284 C293 1.236 . S
O285 Dy280 2.395 . S
O285 C302 1.255 . S
O286 Dy280 2.379 . S
O286 C302 1.249 . S
O287 Dy281 2.275 . S
O287 C303 1.254 . S
O288 Dy280 2.339 . S
O288 C303 1.257 . S
O289 Dy281 2.307 . S
O289 C304 1.266 . S
O290 Dy280 2.298 . S
O290 C304 1.236 . S
O291 Dy281 2.395 . S
O291 C311 1.255 . S
O292 Dy281 2.379 . S
O292 C311 1.249 . S
C293 O283 1.266 . S
C293 O284 1.236 . S
O294 Dy280 2.275 . S
O294 C282 1.254 . S
O295 Dy281 2.339 . S
O295 C282 1.257 . S
C296 C299 1.344 . S
C296 C300 1.328 . S
C296 C302 1.516 . S
C297 C298 1.304 . S
C297 C301 1.323 . S
C298 C297 1.304 . S
C298 C299 1.371 . S
C298 H312 0.930 . S
C299 C296 1.344 . S
C299 C298 1.371 . S
C299 H313 0.931 . S
C300 C296 1.328 . S
C300 C301 1.433 . S
C300 H314 0.931 . S
C301 C297 1.323 . S
C301 C300 1.433 . S
C301 H315 0.933 . S
C302 Dy280 2.738 . S
C302 O285 1.255 . S
C302 O286 1.249 . S
C302 C296 1.516 . S
C303 O287 1.254 . S
C303 O288 1.257 . S
C304 O289 1.266 . S
C304 O290 1.236 . S
C305 C308 1.344 . S
C305 C309 1.328 . S
C305 C311 1.516 . S
C306 C307 1.304 . S
C306 C310 1.323 . S
C307 C306 1.304 . S
C307 C308 1.371 . S
C307 H316 0.930 . S
C308 C305 1.344 . S
C308 C307 1.371 . S
C308 H317 0.931 . S
C309 C305 1.328 . S
C309 C310 1.433 . S
C309 H318 0.931 . S
C310 C306 1.323 . S
C310 C309 1.433 . S
C310 H319 0.933 . S
C311 Dy281 2.738 . S
C311 O291 1.255 . S
C311 O292 1.249 . S
C311 C305 1.516 . S
H312 C298 0.930 . S
H313 C299 0.931 . S
H314 C300 0.931 . S
H315 C301 0.933 . S
H316 C307 0.930 . S
H317 C308 0.931 . S
H318 C309 0.931 . S
H319 C310 0.933 . S
Dy320 O323 2.307 . S
Dy320 O325 2.395 . S
Dy320 O326 2.379 . S
Dy320 O328 2.339 . S
Dy320 O330 2.298 . S
Dy320 O334 2.275 . S
Dy320 C342 2.738 . S
Dy321 O324 2.298 . S
Dy321 O327 2.275 . S
Dy321 O329 2.307 . S
Dy321 O331 2.395 . S
Dy321 O332 2.379 . S
Dy321 O335 2.339 . S
Dy321 C351 2.738 . S
C322 O334 1.254 . S
C322 O335 1.257 . S
O323 Dy320 2.307 . S
O323 C333 1.266 . S
O324 Dy321 2.298 . S
O324 C333 1.236 . S
O325 Dy320 2.395 . S
O325 C342 1.255 . S
O326 Dy320 2.379 . S
O326 C342 1.249 . S
O327 Dy321 2.275 . S
O327 C343 1.254 . S
O328 Dy320 2.339 . S
O328 C343 1.257 . S
O329 Dy321 2.307 . S
O329 C344 1.266 . S
O330 Dy320 2.298 . S
O330 C344 1.236 . S
O331 Dy321 2.395 . S
O331 C351 1.255 . S
O332 Dy321 2.379 . S
O332 C351 1.249 . S
C333 O323 1.266 . S
C333 O324 1.236 . S
O334 Dy320 2.275 . S
O334 C322 1.254 . S
O335 Dy321 2.339 . S
O335 C322 1.257 . S
C336 C339 1.344 . S
C336 C340 1.328 . S
C336 C342 1.516 . S
C337 C338 1.304 . S
C337 C341 1.323 . S
C338 C337 1.304 . S
C338 C339 1.371 . S
C338 H352 0.930 . S
C339 C336 1.344 . S
C339 C338 1.371 . S
C339 H353 0.931 . S
C340 C336 1.328 . S
C340 C341 1.433 . S
C340 H354 0.931 . S
C341 C337 1.323 . S
C341 C340 1.433 . S
C341 H355 0.933 . S
C342 Dy320 2.738 . S
C342 O325 1.255 . S
C342 O326 1.249 . S
C342 C336 1.516 . S
C343 O327 1.254 . S
C343 O328 1.257 . S
C344 O329 1.266 . S
C344 O330 1.236 . S
C345 C348 1.344 . S
C345 C349 1.328 . S
C345 C351 1.516 . S
C346 C347 1.304 . S
C346 C350 1.323 . S
C347 C346 1.304 . S
C347 C348 1.371 1_455 S
C347 H356 0.930 . S
C348 C345 1.344 . S
C348 C347 1.371 1_655 S
C348 H357 0.931 . S
C349 C345 1.328 . S
C349 C350 1.433 1_655 S
C349 H358 0.931 . S
C350 C346 1.323 . S
C350 C349 1.433 1_455 S
C350 H359 0.933 . S
C351 Dy321 2.738 . S
C351 O331 1.255 . S
C351 O332 1.249 . S
C351 C345 1.516 . S
H352 C338 0.930 . S
H353 C339 0.931 . S
H354 C340 0.931 . S
H355 C341 0.933 . S
H356 C347 0.930 . S
H357 C348 0.931 . S
H358 C349 0.931 . S
H359 C350 0.933 . S
Dy360 O363 2.307 . S
Dy360 O365 2.395 . S
Dy360 O366 2.379 . S
Dy360 O368 2.339 . S
Dy360 O370 2.298 . S
Dy360 O374 2.275 . S
Dy360 C382 2.738 . S
Dy361 O364 2.298 . S
Dy361 O367 2.275 . S
Dy361 O369 2.307 . S
Dy361 O371 2.395 . S
Dy361 O372 2.379 . S
Dy361 O375 2.339 . S
Dy361 C391 2.738 . S
C362 O374 1.254 . S
C362 O375 1.257 . S
O363 Dy360 2.307 . S
O363 C373 1.266 . S
O364 Dy361 2.298 . S
O364 C373 1.236 . S
O365 Dy360 2.395 . S
O365 C382 1.255 . S
O366 Dy360 2.379 . S
O366 C382 1.249 . S
O367 Dy361 2.275 . S
O367 C383 1.254 . S
O368 Dy360 2.339 . S
O368 C383 1.257 . S
O369 Dy361 2.307 . S
O369 C384 1.266 . S
O370 Dy360 2.298 . S
O370 C384 1.236 . S
O371 Dy361 2.395 . S
O371 C391 1.255 . S
O372 Dy361 2.379 . S
O372 C391 1.249 . S
C373 O363 1.266 . S
C373 O364 1.236 . S
O374 Dy360 2.275 . S
O374 C362 1.254 . S
O375 Dy361 2.339 . S
O375 C362 1.257 . S
C376 C379 1.344 . S
C376 C380 1.328 . S
C376 C382 1.516 . S
C377 C378 1.316 . S
C377 C381 1.323 . S
C378 C377 1.316 . S
C378 C379 1.349 1_565 S
C378 H392 0.941 . S
C379 C376 1.344 . S
C379 C378 1.349 1_545 S
C379 H393 0.931 . S
C380 C376 1.328 . S
C380 C381 1.433 1_545 S
C380 H394 0.931 . S
C381 C377 1.323 . S
C381 C380 1.433 1_565 S
C381 H395 0.933 . S
C382 Dy360 2.738 . S
C382 O365 1.255 . S
C382 O366 1.249 . S
C382 C376 1.516 . S
C383 O367 1.254 . S
C383 O368 1.257 . S
C384 O369 1.266 . S
C384 O370 1.236 . S
C385 C388 1.344 . S
C385 C389 1.328 . S
C385 C391 1.516 . S
C386 C387 1.304 . S
C386 C390 1.323 . S
C387 C386 1.304 . S
C387 C388 1.371 . S
C387 H396 0.930 . S
C388 C385 1.344 . S
C388 C387 1.371 . S
C388 H397 0.931 . S
C389 C385 1.328 . S
C389 C390 1.433 . S
C389 H398 0.931 . S
C390 C386 1.323 . S
C390 C389 1.433 . S
C390 H399 0.933 . S
C391 Dy361 2.738 . S
C391 O371 1.255 . S
C391 O372 1.249 . S
C391 C385 1.516 . S
H392 C378 0.941 . S
H393 C379 0.931 . S
H394 C380 0.931 . S
H395 C381 0.933 . S
H396 C387 0.930 . S
H397 C388 0.931 . S
H398 C389 0.931 . S
H399 C390 0.933 . S
Dy400 O403 2.307 . S
Dy400 O405 2.395 . S
Dy400 O406 2.379 . S
Dy400 O408 2.339 . S
Dy400 O410 2.298 . S
Dy400 O414 2.275 . S
Dy400 C422 2.738 . S
Dy401 O404 2.298 1_556 S
Dy401 O407 2.275 . S
Dy401 O409 2.307 . S
Dy401 O411 2.395 . S
Dy401 O412 2.379 . S
Dy401 O415 2.339 1_556 S
Dy401 C431 2.738 . S
C402 O414 1.254 . S
C402 O415 1.257 . S
O403 Dy400 2.307 . S
O403 C413 1.266 . S
O404 Dy401 2.298 1_554 S
O404 C413 1.236 . S
O405 Dy400 2.395 . S
O405 C422 1.255 . S
O406 Dy400 2.379 . S
O406 C422 1.249 . S
O407 Dy401 2.275 . S
O407 C423 1.254 . S
O408 Dy400 2.339 . S
O408 C423 1.257 1_554 S
O409 Dy401 2.307 . S
O409 C424 1.266 1_556 S
O410 Dy400 2.298 . S
O410 C424 1.236 . S
O411 Dy401 2.395 . S
O411 C431 1.255 . S
O412 Dy401 2.379 . S
O412 C431 1.249 . S
C413 O403 1.266 . S
C413 O404 1.236 . S
O414 Dy400 2.275 . S
O414 C402 1.254 . S
O415 Dy401 2.339 1_554 S
O415 C402 1.257 . S
C416 C419 1.344 . S
C416 C420 1.328 . S
C416 C422 1.516 . S
C417 C418 1.304 . S
C417 C421 1.323 . S
C418 C417 1.304 . S
C418 C419 1.371 . S
C418 H432 0.930 . S
C419 C416 1.344 . S
C419 C418 1.371 . S
C419 H433 0.931 . S
C420 C416 1.328 . S
C420 C421 1.433 . S
C420 H434 0.931 . S
C421 C417 1.323 . S
C421 C420 1.433 . S
C421 H435 0.933 . S
C422 Dy400 2.738 . S
C422 O405 1.255 . S
C422 O406 1.249 . S
C422 C416 1.516 . S
C423 O407 1.254 . S
C423 O408 1.257 1_556 S
C424 O409 1.266 1_554 S
C424 O410 1.236 . S
C425 C428 1.344 . S
C425 C429 1.328 . S
C425 C431 1.516 . S
C426 C427 1.304 . S
C426 C430 1.323 . S
C427 C426 1.304 . S
C427 C428 1.371 . S
C427 H436 0.930 . S
C428 C425 1.344 . S
C428 C427 1.371 . S
C428 H437 0.931 . S
C429 C425 1.328 . S
C429 C430 1.433 . S
C429 H438 0.931 . S
C430 C426 1.323 . S
C430 C429 1.433 . S
C430 H439 0.933 . S
C431 Dy401 2.738 . S
C431 O411 1.255 . S
C431 O412 1.249 . S
C431 C425 1.516 . S
H432 C418 0.930 . S
H433 C419 0.931 . S
H434 C420 0.931 . S
H435 C421 0.933 . S
H436 C427 0.930 . S
H437 C428 0.931 . S
H438 C429 0.931 . S
H439 C430 0.933 . S
Dy440 O443 2.307 . S
Dy440 O445 2.395 . S
Dy440 O446 2.379 . S
Dy440 O448 2.339 . S
Dy440 O450 2.298 . S
Dy440 O454 2.275 . S
Dy440 C462 2.738 . S
Dy441 O444 2.298 . S
Dy441 O447 2.275 . S
Dy441 O449 2.307 . S
Dy441 O451 2.395 . S
Dy441 O452 2.379 . S
Dy441 O455 2.339 . S
Dy441 C471 2.738 . S
C442 O454 1.254 . S
C442 O455 1.257 . S
O443 Dy440 2.307 . S
O443 C453 1.266 . S
O444 Dy441 2.298 . S
O444 C453 1.236 . S
O445 Dy440 2.395 . S
O445 C462 1.255 . S
O446 Dy440 2.379 . S
O446 C462 1.249 . S
O447 Dy441 2.275 . S
O447 C463 1.254 . S
O448 Dy440 2.339 . S
O448 C463 1.257 . S
O449 Dy441 2.307 . S
O449 C464 1.266 . S
O450 Dy440 2.298 . S
O450 C464 1.236 . S
O451 Dy441 2.395 . S
O451 C471 1.255 . S
O452 Dy441 2.379 . S
O452 C471 1.249 . S
C453 O443 1.266 . S
C453 O444 1.236 . S
O454 Dy440 2.275 . S
O454 C442 1.254 . S
O455 Dy441 2.339 . S
O455 C442 1.257 . S
C456 C459 1.344 . S
C456 C460 1.328 . S
C456 C462 1.516 . S
C457 C458 1.316 . S
C457 C461 1.323 . S
C458 C457 1.316 . S
C458 C459 1.349 1_545 S
C458 H472 0.941 . S
C459 C456 1.344 . S
C459 C458 1.349 1_565 S
C459 H473 0.931 . S
C460 C456 1.328 . S
C460 C461 1.433 1_565 S
C460 H474 0.931 . S
C461 C457 1.323 . S
C461 C460 1.433 1_545 S
C461 H475 0.933 . S
C462 Dy440 2.738 . S
C462 O445 1.255 . S
C462 O446 1.249 . S
C462 C456 1.516 . S
C463 O447 1.254 . S
C463 O448 1.257 . S
C464 O449 1.266 . S
C464 O450 1.236 . S
C465 C468 1.344 . S
C465 C469 1.328 . S
C465 C471 1.516 . S
C466 C467 1.304 . S
C466 C470 1.323 . S
C467 C466 1.304 . S
C467 C468 1.371 . S
C467 H476 0.930 . S
C468 C465 1.344 . S
C468 C467 1.371 . S
C468 H477 0.931 . S
C469 C465 1.328 . S
C469 C470 1.433 . S
C469 H478 0.931 . S
C470 C466 1.323 . S
C470 C469 1.433 . S
C470 H479 0.933 . S
C471 Dy441 2.738 . S
C471 O451 1.255 . S
C471 O452 1.249 . S
C471 C465 1.516 . S
H472 C458 0.941 . S
H473 C459 0.931 . S
H474 C460 0.931 . S
H475 C461 0.933 . S
H476 C467 0.930 . S
H477 C468 0.931 . S
H478 C469 0.931 . S
H479 C470 0.933 . S
Dy480 O483 2.307 . S
Dy480 O485 2.395 . S
Dy480 O486 2.379 . S
Dy480 O488 2.339 . S
Dy480 O490 2.298 . S
Dy480 O494 2.275 . S
Dy480 C502 2.738 . S
Dy481 O484 2.298 . S
Dy481 O487 2.275 . S
Dy481 O489 2.307 . S
Dy481 O491 2.395 . S
Dy481 O492 2.379 . S
Dy481 O495 2.339 . S
Dy481 C511 2.738 . S
C482 O494 1.254 . S
C482 O495 1.257 . S
O483 Dy480 2.307 . S
O483 C493 1.266 . S
O484 Dy481 2.298 . S
O484 C493 1.236 . S
O485 Dy480 2.395 . S
O485 C502 1.255 . S
O486 Dy480 2.379 . S
O486 C502 1.249 . S
O487 Dy481 2.275 . S
O487 C503 1.254 . S
O488 Dy480 2.339 . S
O488 C503 1.257 . S
O489 Dy481 2.307 . S
O489 C504 1.266 . S
O490 Dy480 2.298 . S
O490 C504 1.236 . S
O491 Dy481 2.395 . S
O491 C511 1.255 . S
O492 Dy481 2.379 . S
O492 C511 1.249 . S
C493 O483 1.266 . S
C493 O484 1.236 . S
O494 Dy480 2.275 . S
O494 C482 1.254 . S
O495 Dy481 2.339 . S
O495 C482 1.257 . S
C496 C499 1.344 . S
C496 C500 1.328 . S
C496 C502 1.516 . S
C497 C498 1.304 . S
C497 C501 1.323 . S
C498 C497 1.304 . S
C498 C499 1.371 1_655 S
C498 H512 0.930 . S
C499 C496 1.344 . S
C499 C498 1.371 1_455 S
C499 H513 0.931 . S
C500 C496 1.328 . S
C500 C501 1.433 1_455 S
C500 H514 0.931 . S
C501 C497 1.323 . S
C501 C500 1.433 1_655 S
C501 H515 0.933 . S
C502 Dy480 2.738 . S
C502 O485 1.255 . S
C502 O486 1.249 . S
C502 C496 1.516 . S
C503 O487 1.254 . S
C503 O488 1.257 . S
C504 O489 1.266 . S
C504 O490 1.236 . S
C505 C508 1.344 . S
C505 C509 1.328 . S
C505 C511 1.516 . S
C506 C507 1.304 . S
C506 C510 1.323 . S
C507 C506 1.304 . S
C507 C508 1.371 . S
C507 H516 0.930 . S
C508 C505 1.344 . S
C508 C507 1.371 . S
C508 H517 0.931 . S
C509 C505 1.328 . S
C509 C510 1.433 . S
C509 H518 0.931 . S
C510 C506 1.323 . S
C510 C509 1.433 . S
C510 H519 0.933 . S
C511 Dy481 2.738 . S
C511 O491 1.255 . S
C511 O492 1.249 . S
C511 C505 1.516 . S
H512 C498 0.930 . S
H513 C499 0.931 . S
H514 C500 0.931 . S
H515 C501 0.933 . S
H516 C507 0.930 . S
H517 C508 0.931 . S
H518 C509 0.931 . S
H519 C510 0.933 . S
Dy520 O523 2.307 . S
Dy520 O525 2.395 . S
Dy520 O526 2.379 . S
Dy520 O528 2.339 . S
Dy520 O530 2.298 . S
Dy520 O534 2.275 . S
Dy520 C542 2.738 . S
Dy521 O524 2.298 . S
Dy521 O527 2.275 . S
Dy521 O529 2.307 . S
Dy521 O531 2.395 . S
Dy521 O532 2.379 . S
Dy521 O535 2.339 . S
Dy521 C551 2.738 . S
C522 O534 1.254 . S
C522 O535 1.257 . S
O523 Dy520 2.307 . S
O523 C533 1.266 . S
O524 Dy521 2.298 . S
O524 C533 1.236 . S
O525 Dy520 2.395 . S
O525 C542 1.255 . S
O526 Dy520 2.379 . S
O526 C542 1.249 . S
O527 Dy521 2.275 . S
O527 C543 1.254 . S
O528 Dy520 2.339 . S
O528 C543 1.257 . S
O529 Dy521 2.307 . S
O529 C544 1.266 . S
O530 Dy520 2.298 . S
O530 C544 1.236 . S
O531 Dy521 2.395 . S
O531 C551 1.255 . S
O532 Dy521 2.379 . S
O532 C551 1.249 . S
C533 O523 1.266 . S
C533 O524 1.236 . S
O534 Dy520 2.275 . S
O534 C522 1.254 . S
O535 Dy521 2.339 . S
O535 C522 1.257 . S
C536 C539 1.344 . S
C536 C540 1.328 . S
C536 C542 1.516 . S
C537 C538 1.304 . S
C537 C541 1.323 . S
C538 C537 1.304 . S
C538 C539 1.371 . S
C538 H552 0.930 . S
C539 C536 1.344 . S
C539 C538 1.371 . S
C539 H553 0.931 . S
C540 C536 1.328 . S
C540 C541 1.433 . S
C540 H554 0.931 . S
C541 C537 1.323 . S
C541 C540 1.433 . S
C541 H555 0.933 . S
C542 Dy520 2.738 . S
C542 O525 1.255 . S
C542 O526 1.249 . S
C542 C536 1.516 . S
C543 O527 1.254 . S
C543 O528 1.257 . S
C544 O529 1.266 . S
C544 O530 1.236 . S
C545 C548 1.344 . S
C545 C549 1.328 . S
C545 C551 1.516 . S
C546 C547 1.316 . S
C546 C550 1.323 . S
C547 C546 1.316 . S
C547 C548 1.349 1_545 S
C547 H556 0.941 . S
C548 C545 1.344 . S
C548 C547 1.349 1_565 S
C548 H557 0.931 . S
C549 C545 1.328 . S
C549 C550 1.433 1_565 S
C549 H558 0.931 . S
C550 C546 1.323 . S
C550 C549 1.433 1_545 S
C550 H559 0.933 . S
C551 Dy521 2.738 . S
C551 O531 1.255 . S
C551 O532 1.249 . S
C551 C545 1.516 . S
H552 C538 0.930 . S
H553 C539 0.931 . S
H554 C540 0.931 . S
H555 C541 0.933 . S
H556 C547 0.941 . S
H557 C548 0.931 . S
H558 C549 0.931 . S
H559 C550 0.933 . S
Dy560 O563 2.307 . S
Dy560 O565 2.395 . S
Dy560 O566 2.379 . S
Dy560 O568 2.339 1_554 S
Dy560 O570 2.298 1_554 S
Dy560 O574 2.275 . S
Dy560 C582 2.738 . S
Dy561 O564 2.298 . S
Dy561 O567 2.275 . S
Dy561 O569 2.307 . S
Dy561 O571 2.395 . S
Dy561 O572 2.379 . S
Dy561 O575 2.339 . S
Dy561 C591 2.738 . S
C562 O574 1.254 . S
C562 O575 1.257 1_554 S
O563 Dy560 2.307 . S
O563 C573 1.266 1_554 S
O564 Dy561 2.298 . S
O564 C573 1.236 . S
O565 Dy560 2.395 . S
O565 C582 1.255 . S
O566 Dy560 2.379 . S
O566 C582 1.249 . S
O567 Dy561 2.275 . S
O567 C583 1.254 . S
O568 Dy560 2.339 1_556 S
O568 C583 1.257 . S
O569 Dy561 2.307 . S
O569 C584 1.266 . S
O570 Dy560 2.298 1_556 S
O570 C584 1.236 . S
O571 Dy561 2.395 . S
O571 C591 1.255 . S
O572 Dy561 2.379 . S
O572 C591 1.249 . S
C573 O563 1.266 1_556 S
C573 O564 1.236 . S
O574 Dy560 2.275 . S
O574 C562 1.254 . S
O575 Dy561 2.339 . S
O575 C562 1.257 1_556 S
C576 C579 1.344 . S
C576 C580 1.328 . S
C576 C582 1.516 . S
C577 C578 1.304 . S
C577 C581 1.323 . S
C578 C577 1.304 . S
C578 C579 1.371 . S
C578 H592 0.930 . S
C579 C576 1.344 . S
C579 C578 1.371 . S
C579 H593 0.931 . S
C580 C576 1.328 . S
C580 C581 1.433 . S
C580 H594 0.931 . S
C581 C577 1.323 . S
C581 C580 1.433 . S
C581 H595 0.933 . S
C582 Dy560 2.738 . S
C582 O565 1.255 . S
C582 O566 1.249 . S
C582 C576 1.516 . S
C583 O567 1.254 . S
C583 O568 1.257 . S
C584 O569 1.266 . S
C584 O570 1.236 . S
C585 C588 1.344 . S
C585 C589 1.328 . S
C585 C591 1.516 . S
C586 C587 1.304 . S
C586 C590 1.323 . S
C587 C586 1.304 . S
C587 C588 1.371 . S
C587 H596 0.930 . S
C588 C585 1.344 . S
C588 C587 1.371 . S
C588 H597 0.931 . S
C589 C585 1.328 . S
C589 C590 1.433 . S
C589 H598 0.931 . S
C590 C586 1.323 . S
C590 C589 1.433 . S
C590 H599 0.933 . S
C591 Dy561 2.738 . S
C591 O571 1.255 . S
C591 O572 1.249 . S
C591 C585 1.516 . S
H592 C578 0.930 . S
H593 C579 0.931 . S
H594 C580 0.931 . S
H595 C581 0.933 . S
H596 C587 0.930 . S
H597 C588 0.931 . S
H598 C589 0.931 . S
H599 C590 0.933 . S
Dy600 O603 2.307 . S
Dy600 O605 2.395 . S
Dy600 O606 2.379 . S
Dy600 O608 2.339 . S
Dy600 O610 2.298 . S
Dy600 O614 2.275 . S
Dy600 C622 2.738 . S
Dy601 O604 2.298 . S
Dy601 O607 2.275 . S
Dy601 O609 2.307 . S
Dy601 O611 2.395 . S
Dy601 O612 2.379 . S
Dy601 O615 2.339 . S
Dy601 C631 2.738 . S
C602 O614 1.254 . S
C602 O615 1.257 . S
O603 Dy600 2.307 . S
O603 C613 1.266 . S
O604 Dy601 2.298 . S
O604 C613 1.236 . S
O605 Dy600 2.395 . S
O605 C622 1.255 . S
O606 Dy600 2.379 . S
O606 C622 1.249 . S
O607 Dy601 2.275 . S
O607 C623 1.254 . S
O608 Dy600 2.339 . S
O608 C623 1.257 . S
O609 Dy601 2.307 . S
O609 C624 1.266 . S
O610 Dy600 2.298 . S
O610 C624 1.236 . S
O611 Dy601 2.395 . S
O611 C631 1.255 . S
O612 Dy601 2.379 . S
O612 C631 1.249 . S
C613 O603 1.266 . S
C613 O604 1.236 . S
O614 Dy600 2.275 . S
O614 C602 1.254 . S
O615 Dy601 2.339 . S
O615 C602 1.257 . S
C616 C619 1.344 . S
C616 C620 1.328 . S
C616 C622 1.516 . S
C617 C618 1.304 . S
C617 C621 1.323 . S
C618 C617 1.304 . S
C618 C619 1.371 . S
C618 H632 0.930 . S
C619 C616 1.344 . S
C619 C618 1.371 . S
C619 H633 0.931 . S
C620 C616 1.328 . S
C620 C621 1.433 . S
C620 H634 0.931 . S
C621 C617 1.323 . S
C621 C620 1.433 . S
C621 H635 0.933 . S
C622 Dy600 2.738 . S
C622 O605 1.255 . S
C622 O606 1.249 . S
C622 C616 1.516 . S
C623 O607 1.254 . S
C623 O608 1.257 . S
C624 O609 1.266 . S
C624 O610 1.236 . S
C625 C628 1.344 . S
C625 C629 1.328 . S
C625 C631 1.516 . S
C626 C627 1.316 . S
C626 C630 1.323 . S
C627 C626 1.316 . S
C627 C628 1.349 1_565 S
C627 H636 0.941 . S
C628 C625 1.344 . S
C628 C627 1.349 1_545 S
C628 H637 0.931 . S
C629 C625 1.328 . S
C629 C630 1.433 1_545 S
C629 H638 0.931 . S
C630 C626 1.323 . S
C630 C629 1.433 1_565 S
C630 H639 0.933 . S
C631 Dy601 2.738 . S
C631 O611 1.255 . S
C631 O612 1.249 . S
C631 C625 1.516 . S
H632 C618 0.930 . S
H633 C619 0.931 . S
H634 C620 0.931 . S
H635 C621 0.933 . S
H636 C627 0.941 . S
H637 C628 0.931 . S
H638 C629 0.931 . S
H639 C630 0.933 . S
C640 C641 1.387 . S
C640 H644 0.950 1_554 S
C640 C649 1.390 . S
C641 C640 1.387 . S
C641 C643 1.387 . S
H642 C649 0.950 1_556 S
C643 C641 1.387 . S
C643 C645 1.390 . S
C643 H647 0.950 . S
H644 C640 0.950 1_556 S
C645 C643 1.390 . S
C645 C646 1.387 . S
C645 H648 0.950 . S
C646 C645 1.387 . S
C646 C649 1.387 . S
H647 C643 0.950 . S
H648 C645 0.950 . S
C649 C640 1.390 . S
C649 H642 0.950 1_554 S
C649 C646 1.387 . S
C650 C651 1.387 . S
C650 H654 0.950 . S
C650 C659 1.390 . S
C651 C650 1.387 . S
C651 C653 1.387 . S
H652 C659 0.950 . S
C653 C651 1.387 . S
C653 C655 1.390 . S
C653 H657 0.950 . S
H654 C650 0.950 . S
C655 C653 1.390 . S
C655 C656 1.387 . S
C655 H658 0.950 . S
C656 C655 1.387 . S
C656 C659 1.387 . S
H657 C653 0.950 . S
H658 C655 0.950 . S
C659 C650 1.390 . S
C659 H652 0.950 . S
C659 C656 1.387 . S
C660 C661 1.387 . S
C660 H664 0.950 . S
C660 C669 1.390 1_455 S
C661 C660 1.387 . S
C661 C663 1.387 . S
H662 C669 0.950 . S
C663 C661 1.387 . S
C663 C665 1.390 1_455 S
C663 H667 0.950 . S
H664 C660 0.950 . S
C665 C663 1.390 1_655 S
C665 C666 1.387 . S
C665 H668 0.950 . S
C666 C665 1.387 . S
C666 C669 1.387 . S
H667 C663 0.950 . S
H668 C665 0.950 . S
C669 C660 1.390 1_655 S
C669 H662 0.950 . S
C669 C666 1.387 . S
C670 C671 1.387 . S
C670 H674 0.950 . S
C670 C679 1.390 1_655 S
C671 C670 1.387 . S
C671 C673 1.387 . S
H672 C679 0.950 . S
C673 C671 1.387 . S
C673 C675 1.390 1_655 S
C673 H677 0.950 . S
H674 C670 0.950 . S
C675 C673 1.390 1_455 S
C675 C676 1.387 . S
C675 H678 0.950 . S
C676 C675 1.387 . S
C676 C679 1.387 . S
H677 C673 0.950 . S
H678 C675 0.950 . S
C679 C670 1.390 1_455 S
C679 H672 0.950 . S
C679 C676 1.387 . S
C680 C681 1.387 . S
C680 H684 0.950 1_556 S
C680 C689 1.390 . S
C681 C680 1.387 . S
C681 C683 1.387 . S
H682 C689 0.950 1_554 S
C683 C681 1.387 . S
C683 C685 1.390 . S
C683 H687 0.950 . S
H684 C680 0.950 1_554 S
C685 C683 1.390 . S
C685 C686 1.387 . S
C685 H688 0.950 . S
C686 C685 1.387 . S
C686 C689 1.387 . S
H687 C683 0.950 . S
H688 C685 0.950 . S
C689 C680 1.390 . S
C689 H682 0.950 1_556 S
C689 C686 1.387 . S
C690 C691 1.387 . S
C690 H694 0.950 . S
C690 C699 1.390 . S
C691 C690 1.387 . S
C691 C693 1.387 . S
H692 C699 0.950 . S
C693 C691 1.387 . S
C693 C695 1.390 . S
C693 H697 0.950 . S
H694 C690 0.950 . S
C695 C693 1.390 . S
C695 C696 1.387 . S
C695 H698 0.950 . S
C696 C695 1.387 . S
C696 C699 1.387 . S
H697 C693 0.950 . S
H698 C695 0.950 . S
C699 C690 1.390 . S
C699 H692 0.950 . S
C699 C696 1.387 . S
C700 C701 1.387 . S
C700 H704 0.950 . S
C700 C709 1.390 1_655 S
C701 C700 1.387 . S
C701 C703 1.387 . S
H702 C709 0.950 . S
C703 C701 1.387 . S
C703 C705 1.390 1_655 S
C703 H707 0.950 . S
H704 C700 0.950 . S
C705 C703 1.390 1_455 S
C705 C706 1.387 . S
C705 H708 0.950 . S
C706 C705 1.387 . S
C706 C709 1.387 . S
H707 C703 0.950 . S
H708 C705 0.950 . S
C709 C700 1.390 1_455 S
C709 H702 0.950 . S
C709 C706 1.387 . S
C710 C711 1.387 . S
C710 H714 0.950 . S
C710 C719 1.390 1_455 S
C711 C710 1.387 . S
C711 C713 1.387 . S
H712 C719 0.950 . S
C713 C711 1.387 . S
C713 C715 1.390 1_455 S
C713 H717 0.950 . S
H714 C710 0.950 . S
C715 C713 1.390 1_655 S
C715 C716 1.387 . S
C715 H718 0.950 . S
C716 C715 1.387 . S
C716 C719 1.387 . S
H717 C713 0.950 . S
H718 C715 0.950 . S
C719 C710 1.390 1_655 S
C719 H712 0.950 . S
C719 C716 1.387 . S
C720 C721 1.387 . S
C720 H724 0.950 . S
C720 C729 1.390 . S
C721 C720 1.387 . S
C721 C723 1.387 . S
H722 C729 0.950 . S
C723 C721 1.387 . S
C723 C725 1.390 . S
C723 H727 0.950 . S
H724 C720 0.950 . S
C725 C723 1.390 . S
C725 C726 1.387 . S
C725 H728 0.950 . S
C726 C725 1.387 . S
C726 C729 1.387 . S
H727 C723 0.950 . S
H728 C725 0.950 . S
C729 C720 1.390 . S
C729 H722 0.950 . S
C729 C726 1.387 . S
C730 C731 1.387 . S
C730 H734 0.950 . S
C730 C739 1.390 . S
C731 C730 1.387 . S
C731 C733 1.387 . S
H732 C739 0.950 . S
C733 C731 1.387 . S
C733 C735 1.390 . S
C733 H737 0.950 . S
H734 C730 0.950 . S
C735 C733 1.390 . S
C735 C736 1.387 . S
C735 H738 0.950 . S
C736 C735 1.387 . S
C736 C739 1.387 . S
H737 C733 0.950 . S
H738 C735 0.950 . S
C739 C730 1.390 . S
C739 H732 0.950 . S
C739 C736 1.387 . S
C740 C741 1.387 . S
C740 H744 0.950 . S
C740 C749 1.390 . S
C741 C740 1.387 . S
C741 C743 1.387 . S
H742 C749 0.950 . S
C743 C741 1.387 . S
C743 C745 1.390 . S
C743 H747 0.950 . S
H744 C740 0.950 . S
C745 C743 1.390 . S
C745 C746 1.387 . S
C745 H748 0.950 . S
C746 C745 1.387 . S
C746 C749 1.387 . S
H747 C743 0.950 . S
H748 C745 0.950 . S
C749 C740 1.390 . S
C749 H742 0.950 . S
C749 C746 1.387 . S
C750 C751 1.387 . S
C750 H754 0.950 . S
C750 C759 1.390 . S
C751 C750 1.387 . S
C751 C753 1.387 . S
H752 C759 0.950 . S
C753 C751 1.387 . S
C753 C755 1.390 . S
C753 H757 0.950 . S
H754 C750 0.950 . S
C755 C753 1.390 . S
C755 C756 1.387 . S
C755 H758 0.950 . S
C756 C755 1.387 . S
C756 C759 1.387 . S
H757 C753 0.950 . S
H758 C755 0.950 . S
C759 C750 1.390 . S
C759 H752 0.950 . S
C759 C756 1.387 . S
C760 C761 1.387 . S
C760 H764 0.950 . S
C760 C769 1.390 . S
C761 C760 1.387 . S
C761 C763 1.387 . S
H762 C769 0.950 . S
C763 C761 1.387 . S
C763 C765 1.390 . S
C763 H767 0.950 . S
H764 C760 0.950 . S
C765 C763 1.390 . S
C765 C766 1.387 . S
C765 H768 0.950 . S
C766 C765 1.387 . S
C766 C769 1.387 . S
H767 C763 0.950 . S
H768 C765 0.950 . S
C769 C760 1.390 . S
C769 H762 0.950 . S
C769 C766 1.387 . S
C770 C771 1.387 . S
C770 H774 0.950 . S
C770 C779 1.390 . S
C771 C770 1.387 . S
C771 C773 1.387 . S
H772 C779 0.950 . S
C773 C771 1.387 . S
C773 C775 1.390 . S
C773 H777 0.950 . S
H774 C770 0.950 . S
C775 C773 1.390 . S
C775 C776 1.387 . S
C775 H778 0.950 . S
C776 C775 1.387 . S
C776 C779 1.387 . S
H777 C773 0.950 . S
H778 C775 0.950 . S
C779 C770 1.390 . S
C779 H772 0.950 . S
C779 C776 1.387 . S
C780 C781 1.387 . S
C780 H784 0.950 . S
C780 C789 1.390 . S
C781 C780 1.387 . S
C781 C783 1.387 . S
H782 C789 0.950 . S
C783 C781 1.387 . S
C783 C785 1.390 . S
C783 H787 0.950 . S
H784 C780 0.950 . S
C785 C783 1.390 . S
C785 C786 1.387 . S
C785 H788 0.950 . S
C786 C785 1.387 . S
C786 C789 1.387 . S
H787 C783 0.950 . S
H788 C785 0.950 . S
C789 C780 1.390 . S
C789 H782 0.950 . S
C789 C786 1.387 . S
C790 C791 1.387 . S
C790 H794 0.950 . S
C790 C799 1.390 . S
C791 C790 1.387 . S
C791 C793 1.387 . S
H792 C799 0.950 . S
C793 C791 1.387 . S
C793 C795 1.390 . S
C793 H797 0.950 . S
H794 C790 0.950 . S
C795 C793 1.390 . S
C795 C796 1.387 . S
C795 H798 0.950 . S
C796 C795 1.387 . S
C796 C799 1.387 . S
H797 C793 0.950 . S
H798 C795 0.950 . S
C799 C790 1.390 . S
C799 H792 0.950 . S
C799 C796 1.387 . S
C800 C801 1.387 . S
C800 H804 0.950 . S
C800 C809 1.390 . S
C801 C800 1.387 . S
C801 C803 1.387 . S
H802 C809 0.950 . S
C803 C801 1.387 . S
C803 C805 1.390 . S
C803 H807 0.950 . S
H804 C800 0.950 . S
C805 C803 1.390 . S
C805 C806 1.387 . S
C805 H808 0.950 . S
C806 C805 1.387 . S
C806 C809 1.387 . S
H807 C803 0.950 . S
H808 C805 0.950 . S
C809 C800 1.390 . S
C809 H802 0.950 . S
C809 C806 1.387 . S
C810 C811 1.387 . S
C810 H814 0.950 . S
C810 C819 1.390 1_545 S
C811 C810 1.387 . S
C811 C813 1.387 1_545 S
H812 C819 0.950 . S
C813 C811 1.387 1_565 S
C813 C815 1.390 . S
C813 H817 0.950 . S
H814 C810 0.950 . S
C815 C813 1.390 . S
C815 C816 1.387 . S
C815 H818 0.950 . S
C816 C815 1.387 . S
C816 C819 1.387 . S
H817 C813 0.950 . S
H818 C815 0.950 . S
C819 C810 1.390 1_565 S
C819 H812 0.950 . S
C819 C816 1.387 . S
C820 C821 1.387 . S
C820 H824 0.950 . S
C820 C829 1.390 . S
C821 C820 1.387 . S
C821 C823 1.387 . S
H822 C829 0.950 . S
C823 C821 1.387 . S
C823 C825 1.390 . S
C823 H827 0.950 . S
H824 C820 0.950 . S
C825 C823 1.390 . S
C825 C826 1.387 . S
C825 H828 0.950 . S
C826 C825 1.387 . S
C826 C829 1.387 . S
H827 C823 0.950 . S
H828 C825 0.950 . S
C829 C820 1.390 . S
C829 H822 0.950 . S
C829 C826 1.387 . S
C830 C831 1.387 1_545 S
C830 H834 0.950 1_545 S
C830 C839 1.390 . S
C831 C830 1.387 1_565 S
C831 C833 1.387 1_565 S
H832 C839 0.950 . S
C833 C831 1.387 1_545 S
C833 C835 1.390 . S
C833 H837 0.950 1_545 S
H834 C830 0.950 1_565 S
C835 C833 1.390 . S
C835 C836 1.387 . S
C835 H838 0.950 . S
C836 C835 1.387 . S
C836 C839 1.387 . S
H837 C833 0.950 1_565 S
H838 C835 0.950 . S
C839 C830 1.390 . S
C839 H832 0.950 . S
C839 C836 1.387 . S
C840 C841 1.387 . S
C840 H844 0.950 . S
C840 C849 1.390 . S
C841 C840 1.387 . S
C841 C843 1.387 . S
H842 C849 0.950 . S
C843 C841 1.387 . S
C843 C845 1.390 . S
C843 H847 0.950 . S
H844 C840 0.950 . S
C845 C843 1.390 . S
C845 C846 1.387 . S
C845 H848 0.950 . S
C846 C845 1.387 . S
C846 C849 1.387 . S
H847 C843 0.950 . S
H848 C845 0.950 . S
C849 C840 1.390 . S
C849 H842 0.950 . S
C849 C846 1.387 . S
C850 C851 1.387 . S
C850 H854 0.950 . S
C850 C859 1.390 . S
C851 C850 1.387 . S
C851 C853 1.387 . S
H852 C859 0.950 . S
C853 C851 1.387 . S
C853 C855 1.390 1_545 S
C853 H857 0.950 . S
H854 C850 0.950 . S
C855 C853 1.390 1_565 S
C855 C856 1.387 . S
C855 H858 0.950 . S
C856 C855 1.387 . S
C856 C859 1.387 1_565 S
H857 C853 0.950 . S
H858 C855 0.950 . S
C859 C850 1.390 . S
C859 H852 0.950 . S
C859 C856 1.387 1_545 S
C860 C861 1.387 . S
C860 H864 0.950 . S
C860 C869 1.390 . S
C861 C860 1.387 . S
C861 C863 1.387 . S
H862 C869 0.950 . S
C863 C861 1.387 . S
C863 C865 1.390 . S
C863 H867 0.950 . S
H864 C860 0.950 . S
C865 C863 1.390 . S
C865 C866 1.387 . S
C865 H868 0.950 . S
C866 C865 1.387 . S
C866 C869 1.387 . S
H867 C863 0.950 . S
H868 C865 0.950 . S
C869 C860 1.390 . S
C869 H862 0.950 . S
C869 C866 1.387 . S
C870 C871 1.387 . S
C870 H874 0.950 . S
C870 C879 1.390 1_545 S
C871 C870 1.387 . S
C871 C873 1.387 1_545 S
H872 C879 0.950 . S
C873 C871 1.387 1_565 S
C873 C875 1.390 . S
C873 H877 0.950 . S
H874 C870 0.950 . S
C875 C873 1.390 . S
C875 C876 1.387 . S
C875 H878 0.950 . S
C876 C875 1.387 . S
C876 C879 1.387 . S
H877 C873 0.950 . S
H878 C875 0.950 . S
C879 C870 1.390 1_565 S
C879 H872 0.950 . S
C879 C876 1.387 . S
C880 C881 1.387 . S
C880 H884 0.950 . S
C880 C889 1.390 . S
C881 C880 1.387 . S
C881 C883 1.387 . S
H882 C889 0.950 . S
C883 C881 1.387 . S
C883 C885 1.390 . S
C883 H887 0.950 . S
H884 C880 0.950 . S
C885 C883 1.390 . S
C885 C886 1.387 . S
C885 H888 0.950 . S
C886 C885 1.387 . S
C886 C889 1.387 . S
H887 C883 0.950 . S
H888 C885 0.950 . S
C889 C880 1.390 . S
C889 H882 0.950 . S
C889 C886 1.387 . S
C890 C891 1.387 . S
C890 H894 0.950 . S
C890 C899 1.390 . S
C891 C890 1.387 . S
C891 C893 1.387 . S
H892 C899 0.950 . S
C893 C891 1.387 . S
C893 C895 1.390 . S
C893 H897 0.950 . S
H894 C890 0.950 . S
C895 C893 1.390 . S
C895 C896 1.387 . S
C895 H898 0.950 . S
C896 C895 1.387 . S
C896 C899 1.387 . S
H897 C893 0.950 . S
H898 C895 0.950 . S
C899 C890 1.390 . S
C899 H892 0.950 . S
C899 C896 1.387 . S
C900 C901 1.387 . S
C900 H904 0.950 . S
C900 C909 1.390 . S
C901 C900 1.387 . S
C901 C903 1.387 . S
H902 C909 0.950 1_455 S
C903 C901 1.387 . S
C903 C905 1.390 . S
C903 H907 0.950 . S
H904 C900 0.950 . S
C905 C903 1.390 . S
C905 C906 1.387 . S
C905 H908 0.950 . S
C906 C905 1.387 . S
C906 C909 1.387 . S
H907 C903 0.950 . S
H908 C905 0.950 . S
C909 C900 1.390 . S
C909 H902 0.950 1_655 S
C909 C906 1.387 . S
C910 C911 1.387 . S
C910 H914 0.950 . S
C910 C919 1.390 . S
C911 C910 1.387 . S
C911 C913 1.387 . S
H912 C919 0.950 . S
C913 C911 1.387 . S
C913 C915 1.390 . S
C913 H917 0.950 . S
H914 C910 0.950 . S
C915 C913 1.390 . S
C915 C916 1.387 . S
C915 H918 0.950 . S
C916 C915 1.387 . S
C916 C919 1.387 . S
H917 C913 0.950 . S
H918 C915 0.950 . S
C919 C910 1.390 . S
C919 H912 0.950 . S
C919 C916 1.387 . S
C920 C921 1.387 . S
C920 H924 0.950 . S
C920 C929 1.390 . S
C921 C920 1.387 . S
C921 C923 1.387 . S
H922 C929 0.950 . S
C923 C921 1.387 . S
C923 C925 1.390 . S
C923 H927 0.950 . S
H924 C920 0.950 . S
C925 C923 1.390 . S
C925 C926 1.387 . S
C925 H928 0.950 . S
C926 C925 1.387 . S
C926 C929 1.387 . S
H927 C923 0.950 . S
H928 C925 0.950 . S
C929 C920 1.390 . S
C929 H922 0.950 . S
C929 C926 1.387 . S
C930 C931 1.387 . S
C930 H934 0.950 . S
C930 C939 1.390 . S
C931 C930 1.387 . S
C931 C933 1.387 . S
H932 C939 0.950 . S
C933 C931 1.387 . S
C933 C935 1.390 . S
C933 H937 0.950 . S
H934 C930 0.950 . S
C935 C933 1.390 . S
C935 C936 1.387 . S
C935 H938 0.950 . S
C936 C935 1.387 . S
C936 C939 1.387 . S
H937 C933 0.950 . S
H938 C935 0.950 . S
C939 C930 1.390 . S
C939 H932 0.950 . S
C939 C936 1.387 . S
C940 C941 1.387 . S
C940 H944 0.950 . S
C940 C949 1.390 . S
C941 C940 1.387 . S
C941 C943 1.387 . S
H942 C949 0.950 . S
C943 C941 1.387 . S
C943 C945 1.390 . S
C943 H947 0.950 . S
H944 C940 0.950 . S
C945 C943 1.390 . S
C945 C946 1.387 . S
C945 H948 0.950 . S
C946 C945 1.387 . S
C946 C949 1.387 . S
H947 C943 0.950 . S
H948 C945 0.950 . S
C949 C940 1.390 . S
C949 H942 0.950 . S
C949 C946 1.387 . S
C950 C951 1.387 . S
C950 H954 0.950 . S
C950 C959 1.390 . S
C951 C950 1.387 . S
C951 C953 1.387 . S
H952 C959 0.950 . S
C953 C951 1.387 . S
C953 C955 1.390 . S
C953 H957 0.950 . S
H954 C950 0.950 . S
C955 C953 1.390 . S
C955 C956 1.387 . S
C955 H958 0.950 . S
C956 C955 1.387 . S
C956 C959 1.387 . S
H957 C953 0.950 . S
H958 C955 0.950 . S
C959 C950 1.390 . S
C959 H952 0.950 . S
C959 C956 1.387 . S
C960 C961 1.387 . S
C960 H964 0.950 . S
C960 C969 1.390 . S
C961 C960 1.387 . S
C961 C963 1.387 . S
H962 C969 0.950 . S
C963 C961 1.387 . S
C963 C965 1.390 . S
C963 H967 0.950 . S
H964 C960 0.950 . S
C965 C963 1.390 . S
C965 C966 1.387 . S
C965 H968 0.950 . S
C966 C965 1.387 . S
C966 C969 1.387 . S
H967 C963 0.950 . S
H968 C965 0.950 . S
C969 C960 1.390 . S
C969 H962 0.950 . S
C969 C966 1.387 . S
C970 C971 1.387 . S
C970 H974 0.950 . S
C970 C979 1.390 . S
C971 C970 1.387 . S
C971 C973 1.387 . S
H972 C979 0.950 . S
C973 C971 1.387 . S
C973 C975 1.390 . S
C973 H977 0.950 . S
H974 C970 0.950 . S
C975 C973 1.390 . S
C975 C976 1.387 . S
C975 H978 0.950 . S
C976 C975 1.387 . S
C976 C979 1.387 . S
H977 C973 0.950 . S
H978 C975 0.950 . S
C979 C970 1.390 . S
C979 H972 0.950 . S
C979 C976 1.387 . S
C980 C981 1.387 . S
C980 H984 0.950 . S
C980 C989 1.390 . S
C981 C980 1.387 . S
C981 C983 1.387 . S
H982 C989 0.950 . S
C983 C981 1.387 . S
C983 C985 1.390 . S
C983 H987 0.950 . S
H984 C980 0.950 . S
C985 C983 1.390 . S
C985 C986 1.387 . S
C985 H988 0.950 . S
C986 C985 1.387 . S
C986 C989 1.387 . S
H987 C983 0.950 . S
H988 C985 0.950 . S
C989 C980 1.390 . S
C989 H982 0.950 . S
C989 C986 1.387 . S
C990 C991 1.387 . S
C990 H994 0.950 . S
C990 C999 1.390 . S
C991 C990 1.387 . S
C991 C993 1.387 . S
H992 C999 0.950 . S
C993 C991 1.387 . S
C993 C995 1.390 . S
C993 H997 0.950 . S
H994 C990 0.950 . S
C995 C993 1.390 . S
C995 C996 1.387 . S
C995 H998 0.950 . S
C996 C995 1.387 . S
C996 C999 1.387 . S
H997 C993 0.950 . S
H998 C995 0.950 . S
C999 C990 1.390 . S
C999 H992 0.950 . S
C999 C996 1.387 . S
C1000 C1001 1.387 . S
C1000 H1004 0.950 . S
C1000 C1009 1.390 . S
C1001 C1000 1.387 . S
C1001 C1003 1.387 . S
H1002 C1009 0.950 . S
C1003 C1001 1.387 . S
C1003 C1005 1.390 . S
C1003 H1007 0.950 1_655 S
H1004 C1000 0.950 . S
C1005 C1003 1.390 . S
C1005 C1006 1.387 . S
C1005 H1008 0.950 . S
C1006 C1005 1.387 . S
C1006 C1009 1.387 . S
H1007 C1003 0.950 1_455 S
H1008 C1005 0.950 . S
C1009 C1000 1.390 . S
C1009 H1002 0.950 . S
C1009 C1006 1.387 . S
C1010 C1011 1.387 . S
C1010 H1014 0.950 . S
C1010 C1019 1.390 . S
C1011 C1010 1.387 . S
C1011 C1013 1.387 . S
H1012 C1019 0.950 . S
C1013 C1011 1.387 . S
C1013 C1015 1.390 . S
C1013 H1017 0.950 . S
H1014 C1010 0.950 . S
C1015 C1013 1.390 . S
C1015 C1016 1.387 . S
C1015 H1018 0.950 . S
C1016 C1015 1.387 . S
C1016 C1019 1.387 . S
H1017 C1013 0.950 . S
H1018 C1015 0.950 . S
C1019 C1010 1.390 . S
C1019 H1012 0.950 . S
C1019 C1016 1.387 . S
C1020 C1021 1.387 . S
C1020 H1024 0.950 . S
C1020 C1029 1.390 . S
C1021 C1020 1.387 . S
C1021 C1023 1.387 . S
H1022 C1029 0.950 . S
C1023 C1021 1.387 . S
C1023 C1025 1.390 . S
C1023 H1027 0.950 . S
H1024 C1020 0.950 . S
C1025 C1023 1.390 . S
C1025 C1026 1.387 . S
C1025 H1028 0.950 . S
C1026 C1025 1.387 . S
C1026 C1029 1.387 . S
H1027 C1023 0.950 . S
H1028 C1025 0.950 . S
C1029 C1020 1.390 . S
C1029 H1022 0.950 . S
C1029 C1026 1.387 . S
C1030 C1031 1.387 . S
C1030 H1034 0.950 . S
C1030 C1039 1.390 . S
C1031 C1030 1.387 . S
C1031 C1033 1.387 . S
H1032 C1039 0.950 . S
C1033 C1031 1.387 . S
C1033 C1035 1.390 . S
C1033 H1037 0.950 . S
H1034 C1030 0.950 . S
C1035 C1033 1.390 . S
C1035 C1036 1.387 . S
C1035 H1038 0.950 . S
C1036 C1035 1.387 . S
C1036 C1039 1.387 . S
H1037 C1033 0.950 . S
H1038 C1035 0.950 . S
C1039 C1030 1.390 . S
C1039 H1032 0.950 . S
C1039 C1036 1.387 . S
C1040 C1041 1.387 . S
C1040 H1044 0.950 . S
C1040 C1049 1.390 . S
C1041 C1040 1.387 . S
C1041 C1043 1.387 . S
H1042 C1049 0.950 . S
C1043 C1041 1.387 . S
C1043 C1045 1.390 . S
C1043 H1047 0.950 . S
H1044 C1040 0.950 . S
C1045 C1043 1.390 . S
C1045 C1046 1.387 . S
C1045 H1048 0.950 . S
C1046 C1045 1.387 . S
C1046 C1049 1.387 . S
H1047 C1043 0.950 . S
H1048 C1045 0.950 . S
C1049 C1040 1.390 . S
C1049 H1042 0.950 . S
C1049 C1046 1.387 . S
C1050 C1051 1.387 . S
C1050 H1054 0.950 . S
C1050 C1059 1.390 . S
C1051 C1050 1.387 . S
C1051 C1053 1.387 . S
H1052 C1059 0.950 . S
C1053 C1051 1.387 . S
C1053 C1055 1.390 . S
C1053 H1057 0.950 . S
H1054 C1050 0.950 . S
C1055 C1053 1.390 . S
C1055 C1056 1.387 . S
C1055 H1058 0.950 . S
C1056 C1055 1.387 . S
C1056 C1059 1.387 . S
H1057 C1053 0.950 . S
H1058 C1055 0.950 . S
C1059 C1050 1.390 . S
C1059 H1052 0.950 . S
C1059 C1056 1.387 . S
C1060 C1061 1.387 . S
C1060 H1064 0.950 . S
C1060 C1069 1.390 . S
C1061 C1060 1.387 . S
C1061 C1063 1.387 . S
H1062 C1069 0.950 . S
C1063 C1061 1.387 . S
C1063 C1065 1.390 . S
C1063 H1067 0.950 . S
H1064 C1060 0.950 . S
C1065 C1063 1.390 . S
C1065 C1066 1.387 . S
C1065 H1068 0.950 . S
C1066 C1065 1.387 . S
C1066 C1069 1.387 . S
H1067 C1063 0.950 . S
H1068 C1065 0.950 . S
C1069 C1060 1.390 . S
C1069 H1062 0.950 . S
C1069 C1066 1.387 . S
C1070 C1071 1.387 . S
C1070 H1074 0.950 . S
C1070 C1079 1.390 1_455 S
C1071 C1070 1.387 . S
C1071 C1073 1.387 1_554 S
H1072 C1079 0.950 . S
C1073 C1071 1.387 1_556 S
C1073 C1075 1.390 1_455 S
C1073 H1077 0.950 . S
H1074 C1070 0.950 . S
C1075 C1073 1.390 1_655 S
C1075 C1076 1.387 . S
C1075 H1078 0.950 . S
C1076 C1075 1.387 . S
C1076 C1079 1.387 1_556 S
H1077 C1073 0.950 . S
H1078 C1075 0.950 . S
C1079 C1070 1.390 1_655 S
C1079 H1072 0.950 . S
C1079 C1076 1.387 1_554 S
C1080 C1081 1.387 . S
C1080 H1084 0.950 . S
C1080 C1089 1.390 . S
C1081 C1080 1.387 . S
C1081 C1083 1.387 . S
H1082 C1089 0.950 . S
C1083 C1081 1.387 . S
C1083 C1085 1.390 . S
C1083 H1087 0.950 . S
H1084 C1080 0.950 . S
C1085 C1083 1.390 . S
C1085 C1086 1.387 . S
C1085 H1088 0.950 . S
C1086 C1085 1.387 . S
C1086 C1089 1.387 . S
H1087 C1083 0.950 . S
H1088 C1085 0.950 . S
C1089 C1080 1.390 . S
C1089 H1082 0.950 . S
C1089 C1086 1.387 . S
C1090 C1091 1.387 . S
C1090 H1094 0.950 . S
C1090 C1099 1.390 . S
C1091 C1090 1.387 . S
C1091 C1093 1.387 . S
H1092 C1099 0.950 . S
C1093 C1091 1.387 . S
C1093 C1095 1.390 . S
C1093 H1097 0.950 . S
H1094 C1090 0.950 . S
C1095 C1093 1.390 . S
C1095 C1096 1.387 . S
C1095 H1098 0.950 . S
C1096 C1095 1.387 . S
C1096 C1099 1.387 . S
H1097 C1093 0.950 . S
H1098 C1095 0.950 . S
C1099 C1090 1.390 . S
C1099 H1092 0.950 . S
C1099 C1096 1.387 . S
C1100 C1101 1.387 1_545 S
C1100 H1104 0.950 . S
C1100 C1109 1.390 1_456 S
C1101 C1100 1.387 1_565 S
C1101 C1103 1.387 . S
H1102 C1109 0.950 . S
C1103 C1101 1.387 . S
C1103 C1105 1.390 1_456 S
C1103 H1107 0.950 . S
H1104 C1100 0.950 . S
C1105 C1103 1.390 1_654 S
C1105 C1106 1.387 1_565 S
C1105 H1108 0.950 . S
C1106 C1105 1.387 1_545 S
C1106 C1109 1.387 . S
H1107 C1103 0.950 . S
H1108 C1105 0.950 . S
C1109 C1100 1.390 1_654 S
C1109 H1102 0.950 . S
C1109 C1106 1.387 . S
C1110 C1111 1.387 1_545 S
C1110 H1114 0.950 . S
C1110 C1119 1.390 . S
C1111 C1110 1.387 1_565 S
C1111 C1113 1.387 . S
H1112 C1119 0.950 . S
C1113 C1111 1.387 . S
C1113 C1115 1.390 . S
C1113 H1117 0.950 . S
H1114 C1110 0.950 . S
C1115 C1113 1.390 . S
C1115 C1116 1.387 1_565 S
C1115 H1118 0.950 . S
C1116 C1115 1.387 1_545 S
C1116 C1119 1.387 . S
H1117 C1113 0.950 . S
H1118 C1115 0.950 . S
C1119 C1110 1.390 . S
C1119 H1112 0.950 . S
C1119 C1116 1.387 . S
C641 C13 3.351 . S
C646 C413 3.351 . S
C651 C53 3.351 . S
C656 C453 3.351 . S
C661 C93 3.351 . S
C666 C333 3.351 . S
C671 C133 3.351 . S
C676 C373 3.351 . S
C681 C184 3.350 . S
C686 C584 3.350 . S
C691 C224 3.351 . S
C696 C624 3.351 . S
C701 C264 3.351 . S
C706 C504 3.351 . S
C711 C304 3.351 . S
C716 C544 3.351 . S
C721 C362 3.806 . S
C726 C24 3.683 1_556 S
C731 C402 3.806 . S
C736 C64 3.682 . S
C741 C442 3.806 . S
C746 C104 3.683 . S
C751 C322 3.806 . S
C756 C144 3.683 . S
C761 C173 3.682 1_554 S
C766 C543 3.807 . S
C771 C583 3.807 . S
C776 C213 3.682 . S
C781 C623 3.807 . S
C786 C253 3.682 . S
C791 C503 3.807 . S
C796 C293 3.682 . S
C801 C42 3.806 . S
C806 C344 3.683 . S
C811 C384 3.683 . S
C816 C82 3.806 . S
C821 C424 3.683 1_556 S
C826 C122 3.806 . S
C831 C464 3.682 . S
C836 C2 3.807 . S
C841 C493 3.682 . S
C846 C223 3.807 . S
C851 C263 3.806 . S
C856 C533 3.683 . S
C861 C303 3.806 . S
C866 C573 3.683 1_554 S
C871 C613 3.682 . S
C876 C183 3.806 . S
C881 C26 0.719 . S
C886 C602 0.697 . S
C891 C66 0.720 . S
C896 C162 0.698 . S
C901 C522 0.707 . S
C906 C106 0.730 . S
C911 C242 0.707 . S
C916 C146 0.729 . S
C921 C177 0.727 . S
C926 C463 0.706 . S
C931 C217 0.720 . S
C936 C23 0.698 . S
C941 C383 0.704 . S
C946 C257 0.728 . S
C951 C103 0.697 . S
C956 C297 0.719 . S
C961 C346 0.719 . S
C966 C282 0.698 . S
C971 C386 0.729 . S
C976 C482 0.707 . S
C981 C202 0.707 . S
C986 C426 0.730 . S
C991 C562 0.698 . S
C996 C466 0.721 . S
C1001 C497 0.727 . S
C1006 C143 0.706 . S
C1011 C537 0.719 . S
C1016 C343 0.698 . S
C1021 C577 0.720 . S
C1026 C63 0.698 . S
C1031 C423 0.707 . S
C1036 C617 0.730 . S
C1041 C17 2.054 . S
C1046 C506 2.054 . S
C1051 C57 2.056 . S
C1056 C226 2.056 . S
C1061 C97 2.057 . S
C1066 C586 2.057 . S
C1071 C306 2.056 . S
C1076 C137 2.056 . S
C1081 C186 2.055 . S
C1086 C337 2.055 . S
C1091 C417 2.054 . S
C1096 C266 2.054 . S
C1101 C377 2.056 . S
C1106 C546 2.056 . S
C1111 C626 2.054 . S
C1116 C457 2.054 . S
