# Generated by pormake.
# Topology wji, (4)-cn, num edge types: 1
# Building blocks:
#     Node 0, Type 0, BuildingBlock: TATPOV_clean_sbu_0, # of connection points: 4
#     Node 1, Type 0, BuildingBlock: TATPOV_clean_sbu_0, # of connection points: 4
#     Node 2, Type 0, BuildingBlock: TATPOV_clean_sbu_0, # of connection points: 4
#     Node 3, Type 0, BuildingBlock: TATPOV_clean_sbu_0, # of connection points: 4
#     Node 4, Type 0, BuildingBlock: TATPOV_clean_sbu_0, # of connection points: 4
#     Node 5, Type 0, BuildingBlock: TATPOV_clean_sbu_0, # of connection points: 4
#     Node 6, Type 0, BuildingBlock: TATPOV_clean_sbu_0, # of connection points: 4
#     Node 7, Type 0, BuildingBlock: TATPOV_clean_sbu_0, # of connection points: 4
#     Node 8, Type 0, BuildingBlock: TATPOV_clean_sbu_0, # of connection points: 4
#     Node 9, Type 0, BuildingBlock: TATPOV_clean_sbu_0, # of connection points: 4
#     Node 10, Type 0, BuildingBlock: TATPOV_clean_sbu_0, # of connection points: 4
#     Node 11, Type 0, BuildingBlock: TATPOV_clean_sbu_0, # of connection points: 4
#     Edge 12, Type (0, 0), BuildingBlock: OJICUG_clean_linker_0, # of connection points: 2
#     Edge 13, Type (0, 0), BuildingBlock: OJICUG_clean_linker_0, # of connection points: 2
#     Edge 14, Type (0, 0), BuildingBlock: OJICUG_clean_linker_0, # of connection points: 2
#     Edge 15, Type (0, 0), BuildingBlock: OJICUG_clean_linker_0, # of connection points: 2
#     Edge 16, Type (0, 0), BuildingBlock: OJICUG_clean_linker_0, # of connection points: 2
#     Edge 17, Type (0, 0), BuildingBlock: OJICUG_clean_linker_0, # of connection points: 2
#     Edge 18, Type (0, 0), BuildingBlock: OJICUG_clean_linker_0, # of connection points: 2
#     Edge 19, Type (0, 0), BuildingBlock: OJICUG_clean_linker_0, # of connection points: 2
#     Edge 20, Type (0, 0), BuildingBlock: OJICUG_clean_linker_0, # of connection points: 2
#     Edge 21, Type (0, 0), BuildingBlock: OJICUG_clean_linker_0, # of connection points: 2
#     Edge 22, Type (0, 0), BuildingBlock: OJICUG_clean_linker_0, # of connection points: 2
#     Edge 23, Type (0, 0), BuildingBlock: OJICUG_clean_linker_0, # of connection points: 2
#     Edge 24, Type (0, 0), BuildingBlock: OJICUG_clean_linker_0, # of connection points: 2
#     Edge 25, Type (0, 0), BuildingBlock: OJICUG_clean_linker_0, # of connection points: 2
#     Edge 26, Type (0, 0), BuildingBlock: OJICUG_clean_linker_0, # of connection points: 2
#     Edge 27, Type (0, 0), BuildingBlock: OJICUG_clean_linker_0, # of connection points: 2
#     Edge 28, Type (0, 0), BuildingBlock: OJICUG_clean_linker_0, # of connection points: 2
#     Edge 29, Type (0, 0), BuildingBlock: OJICUG_clean_linker_0, # of connection points: 2
#     Edge 30, Type (0, 0), BuildingBlock: OJICUG_clean_linker_0, # of connection points: 2
#     Edge 31, Type (0, 0), BuildingBlock: OJICUG_clean_linker_0, # of connection points: 2
#     Edge 32, Type (0, 0), BuildingBlock: OJICUG_clean_linker_0, # of connection points: 2
#     Edge 33, Type (0, 0), BuildingBlock: OJICUG_clean_linker_0, # of connection points: 2
#     Edge 34, Type (0, 0), BuildingBlock: OJICUG_clean_linker_0, # of connection points: 2
#     Edge 35, Type (0, 0), BuildingBlock: OJICUG_clean_linker_0, # of connection points: 2
# Relax obj value: 0.216
# Max RMSD: 0.097
# Mean RMSD: 0.097
data_MOF--net-wji--node1-TATPOV_clean_sbu_0--edge1-OJICUG_clean_linker_0
_symmetry_space_group_name_H-M    P1
_symmetry_Int_Tables_number       1
_symmetry_cell_setting            triclinic
loop_
_symmetry_equiv_pos_as_xyz
'x, y, z'
_cell_length_a     40.62612
_cell_length_b     41.299472
_cell_length_c     17.191844
_cell_angle_alpha  90.449001
_cell_angle_beta   89.878694
_cell_angle_gamma 120.82501
loop_
_atom_site_label
_atom_site_type_symbol
_atom_site_fract_x
_atom_site_fract_y
_atom_site_fract_z
_atom_type_partial_charge
Zn0 Zn 0.47861 0.4068 0.30397 0.0
Zn1 Zn 0.45884 0.34019 0.35412 0.0
O2 O 0.51806 0.36801 0.33797 0.0
O3 O 0.53083 0.41825 0.27132 0.0
O4 O 0.44522 0.29029 0.40294 0.0
O5 O 0.47024 0.4231 0.4086 0.0
O6 O 0.44812 0.36454 0.44577 0.0
C7 C 0.54213 0.39804 0.3027 0.0
C8 C 0.413 0.35111 0.22448 0.0
O9 O 0.4195 0.32837 0.2623 0.0
O10 O 0.43478 0.38629 0.23233 0.0
C11 C 0.46462 0.29207 0.4627 0.0
O12 O 0.49346 0.32504 0.4845 0.0
C13 C 0.45516 0.39775 0.45969 0.0
Zn14 Zn 0.06826 0.44499 0.51068 0.0
Zn15 Zn 0.10537 0.41799 0.54581 0.0
O16 O 0.14041 0.47675 0.53776 0.0
O17 O 0.10911 0.48961 0.45244 0.0
O18 O 0.14265 0.40281 0.58424 0.0
O19 O 0.05721 0.45052 0.62178 0.0
O20 O 0.06878 0.40459 0.63757 0.0
C21 C 0.13897 0.50034 0.49263 0.0
C22 C 0.04157 0.37788 0.4298 0.0
O23 O 0.0752 0.38504 0.44797 0.0
O24 O 1.02948 0.39831 0.45715 0.0
C25 C 0.17638 0.41888 0.55651 0.0
O26 O 0.18449 0.44113 0.49633 0.0
C27 C 0.0549 0.42415 0.66277 0.0
Zn28 Zn 0.60818 0.99503 0.7895 0.0
Zn29 Zn 0.66285 0.06722 0.77055 0.0
O30 O 0.61314 0.0692 0.7882 0.0
O31 O 0.57014 1.01057 0.8172 0.0
O32 O 0.70608 0.1221 0.77476 0.0
O33 O 0.63903 0.98775 0.87105 0.0
O34 O 0.68065 0.04836 0.86045 0.0
C35 C 0.57922 0.04461 0.80927 0.0
C36 C 0.64587 1.00839 0.64262 0.0
O37 O 0.66694 0.04191 0.66929 0.0
O38 O 0.61667 0.98447 0.68004 0.0
C39 C 0.71014 0.13653 0.84249 0.0
O40 O 0.68469 0.11669 0.89603 0.0
C41 C 0.67014 1.01675 0.89143 0.0
Zn42 Zn 0.59156 0.63162 0.79275 0.0
Zn43 Zn 0.61189 0.69839 0.84871 0.0
O44 O 0.55256 0.66995 0.83496 0.0
O45 O 0.53875 0.62004 0.7643 0.0
O46 O 0.62525 0.74752 0.90305 0.0
O47 O 0.60131 0.61521 0.89553 0.0
O48 O 0.62292 0.67335 0.93721 0.0
C49 C 0.52793 0.64001 0.79933 0.0
C50 C 0.65667 0.68832 0.7142 0.0
O51 O 0.6509 0.71081 0.75577 0.0
O52 O 0.63458 0.65309 0.7192 0.0
C53 C 0.60414 0.76201 0.90397 0.0
O54 O 0.57345 0.74741 0.85964 0.0
C55 C 0.61626 0.64014 0.94827 0.0
Zn56 Zn 0.98813 0.58798 0.92587 0.0
Zn57 Zn 0.954 0.61964 -0.01518 0.0
O58 O 0.91805 0.56091 -0.01401 0.0
O59 O 0.94177 0.5374 0.9039 0.0
O60 O 0.9198 0.63559 0.0382 0.0
O61 O 1.01759 0.59728 0.02563 0.0
O62 O 0.99734 0.63533 0.06229 0.0
C63 C 0.91537 0.53251 0.95 0.0
C64 C 1.00237 0.6518 0.83862 0.0
O65 O 0.97665 0.6512 0.88263 0.0
O66 O 1.01238 0.62768 0.84653 0.0
C67 C 0.88502 0.61969 0.01629 0.0
O68 O 0.87452 0.598 0.95398 0.0
C69 C 1.01889 0.62172 0.07248 0.0
Zn70 Zn 0.46601 0.03999 0.29143 0.0
Zn71 Zn 0.41114 0.96902 0.27081 0.0
O72 O 0.46054 0.96566 0.28226 0.0
O73 O 0.50357 0.02383 0.31613 0.0
O74 O 0.36577 0.91533 0.26909 0.0
O75 O 0.43566 0.04712 0.37447 0.0
O76 O 0.39495 0.9861 0.36678 0.0
C77 C 0.49452 0.98997 0.30429 0.0
C78 C 0.42852 0.02987 0.14809 0.0
O79 O 0.40692 0.99658 0.17434 0.0
O80 O 0.45887 0.05295 0.18403 0.0
C81 C 0.3665 0.89057 0.31153 0.0
O82 O 0.39859 0.8987 0.34645 0.0
C83 C 0.40554 1.01801 0.39752 0.0
Zn84 Zn 0.65117 0.58308 0.39552 0.0
Zn85 Zn 0.71983 0.60779 0.34039 0.0
O86 O 0.69452 0.54965 0.35446 0.0
O87 O 0.64355 0.53299 0.42597 0.0
O88 O 0.7702 0.62226 0.28558 0.0
O89 O 0.63183 0.5895 0.293 0.0
O90 O 0.69181 0.61685 0.25341 0.0
C91 C 0.66537 0.5243 0.39092 0.0
C92 C 0.70628 0.64925 0.475 0.0
O93 O 0.73064 0.64534 0.43481 0.0
O94 O 0.67083 0.62598 0.46799 0.0
C95 C 0.76464 0.60552 0.22003 0.0
O96 O 0.72924 0.58114 0.19888 0.0
C97 C 0.65699 0.60679 0.24146 0.0
Zn98 Zn 0.10534 0.64605 0.50662 0.0
Zn99 Zn 0.15651 0.70675 0.4829 0.0
O100 O 0.17652 0.6694 0.499 0.0
O101 O 0.1329 0.62955 0.57846 0.0
O102 O 0.20417 0.75692 0.45486 0.0
O103 O 0.09998 0.6318 0.39381 0.0
O104 O 0.12504 0.69282 0.38231 0.0
C105 C 0.16457 0.64134 0.54448 0.0
C106 C 0.09027 0.69502 0.58369 0.0
O107 O 0.12674 0.71473 0.57539 0.0
O108 O 0.07175 0.66404 0.54758 0.0
C109 C 0.22959 0.75559 0.41359 0.0
O110 O 0.22461 0.72259 0.3938 0.0
C111 C 0.10688 0.65983 0.35274 0.0
Zn112 Zn 0.36415 0.03048 0.84192 0.0
Zn113 Zn 0.41656 0.11568 0.78197 0.0
O114 O 0.45847 0.1044 0.80409 0.0
O115 O 0.42213 0.0459 0.84874 0.0
O116 O 0.43734 0.16319 0.71731 0.0
O117 O 0.34326 1.01248 0.73494 0.0
O118 O 0.38128 0.07272 0.70877 0.0
C119 C 0.45499 0.07408 0.83131 0.0
C120 C 0.37426 0.09266 0.91748 0.0
O121 O 0.39869 0.12363 0.88746 0.0
O122 O 0.3497 0.06897 0.87099 0.0
C123 C 0.41452 0.16522 0.66959 0.0
O124 O 0.37846 0.1379 0.66802 0.0
C125 C 0.35685 0.03928 0.68656 0.0
Zn126 Zn 0.41919 0.45582 0.90791 0.0
Zn127 Zn 0.35053 0.43086 0.85173 0.0
O128 O 0.37649 0.48918 0.86391 0.0
O129 O 0.42778 0.50684 0.93516 0.0
O130 O 0.29958 0.4163 0.80032 0.0
O131 O 0.43732 0.4469 0.80564 0.0
O132 O 0.37757 0.42051 0.76433 0.0
C133 C 0.40597 0.51509 0.89921 0.0
C134 C 0.36398 0.39085 -0.01209 0.0
O135 O 0.33987 0.3941 0.94589 0.0
O136 O 0.39943 0.4143 -0.01752 0.0
C137 C 0.30333 0.43139 0.73397 0.0
O138 O 0.3381 0.45427 0.70778 0.0
C139 C 0.41223 0.42968 0.75353 0.0
Zn140 Zn 0.94524 0.397 0.08967 0.0
Zn141 Zn 0.90002 0.33444 0.0423 0.0
O142 O 0.87797 0.37054 0.03734 0.0
O143 O 0.90837 0.41189 0.12962 0.0
O144 O 0.85514 0.28405 0.00603 0.0
O145 O 0.96652 0.41165 -0.01787 0.0
O146 O 0.94026 0.35105 0.957 0.0
C147 C 0.88276 0.39876 0.07757 0.0
C148 C 0.95469 0.34616 0.1751 0.0
O149 O 0.92204 0.32389 0.14402 0.0
O150 O 0.97267 0.38064 0.15781 0.0
C151 C 0.84571 0.27716 0.93447 0.0
O152 O 0.86627 0.30282 0.88243 0.0
C153 C 0.96315 0.38527 0.93856 0.0
Zn154 Zn 0.71142 1.00782 0.33183 0.0
Zn155 Zn 0.66027 0.92238 0.26981 0.0
O156 O 0.61714 0.93221 0.28834 0.0
O157 O 0.65282 0.99085 0.33485 0.0
O158 O 0.64365 0.87641 0.20115 0.0
O159 O 0.73461 0.02646 0.22654 0.0
O160 O 0.69636 0.96615 0.20158 0.0
C161 C 0.62018 0.96243 0.31613 0.0
C162 C 0.70056 0.94621 0.4085 0.0
O163 O 0.67633 0.91512 0.3775 0.0
O164 O 0.72571 0.9697 0.36323 0.0
C165 C 0.62761 0.87449 0.13631 0.0
O166 O 0.61915 0.90041 0.11981 0.0
C167 C 0.72108 0.9991 0.17865 0.0
C168 C 0.36975 0.33773 0.03186 0.0
C169 C 0.35303 0.36003 0.04329 0.0
H170 H 0.40216 0.31588 0.08438 0.0
C171 C 0.34323 0.3647 0.1189 0.0
H172 H 0.3778 0.33396 -0.02618 0.0
C173 C 0.35687 0.3539 0.18234 0.0
C174 C 0.3806 0.33868 0.17042 0.0
H175 H 0.33074 0.38206 0.1294 0.0
H176 H 0.35416 0.36308 0.24 0.0
C177 C 0.38376 0.32728 0.09529 0.0
C178 C 0.97797 0.33263 0.3746 0.0
C179 C 1.01818 0.35121 0.3677 0.0
H180 H 0.92488 0.315 0.31557 0.0
C181 C 0.03431 0.35488 0.29392 0.0
H182 H 0.96491 0.32941 0.43123 0.0
C183 C 1.01129 0.34667 0.22777 0.0
C184 C 0.97207 0.33439 0.23507 0.0
H185 H 0.06514 0.36925 0.28697 0.0
H186 H 1.02508 0.35476 0.17142 0.0
C187 C 0.95493 0.32421 0.30841 0.0
C188 C 0.71049 0.99866 0.4979 0.0
C189 C 0.68629 0.96186 0.46888 0.0
H190 H 0.71645 0.04286 0.57341 0.0
C191 C 0.64797 0.94173 0.49373 0.0
H192 H 0.74016 1.01498 0.47973 0.0
C193 C 0.63429 0.95796 0.54639 0.0
C194 C 0.65863 0.99454 0.57625 0.0
H195 H 0.62836 0.91354 0.47209 0.0
H196 H 0.60475 0.94137 0.56521 0.0
C197 C 0.69678 1.0149 0.55064 0.0
C198 C 0.69961 0.70188 0.52117 0.0
C199 C 0.71688 0.68005 0.53144 0.0
H200 H 0.6667 0.72313 0.57504 0.0
C201 C 0.72696 0.67567 0.60677 0.0
H202 H 0.6913 0.70541 0.46342 0.0
C203 C 0.71317 0.68628 0.67086 0.0
C204 C 0.68903 0.70106 0.65997 0.0
H205 H 0.73984 0.65866 0.61645 0.0
H206 H 0.71616 0.67728 0.72815 0.0
C207 C 0.68545 0.71212 0.58523 0.0
C208 C 0.08622 0.7139 0.71972 0.0
C209 C 0.06946 0.70205 0.64597 0.0
H210 H 0.07633 0.70763 0.84249 0.0
C211 C 1.0294 0.68548 0.63878 0.0
H212 H 0.11689 0.72667 0.72713 0.0
C213 C 1.00612 0.67457 0.70493 0.0
C214 C 1.02275 0.68048 0.77874 0.0
H215 H 1.01575 0.67642 0.5823 0.0
H216 H 0.97535 0.65694 0.69784 0.0
C217 C 0.06289 0.70304 0.78587 0.0
C218 C 0.36374 0.0406 0.00656 0.0
C219 C 0.38816 0.07726 -0.0217 0.0
H220 H 0.35757 0.99627 0.0802 0.0
C221 C 0.42644 0.09732 0.00378 0.0
H222 H 0.33407 0.02439 -0.012 0.0
C223 C 0.44 0.08096 0.05561 0.0
C224 C 0.41554 0.04435 0.084 0.0
H225 H 0.44619 0.12545 -0.01714 0.0
H226 H 0.46958 0.09739 0.07454 0.0
C227 C 0.37732 0.02423 0.05847 0.0
C228 C 0.62583 0.45661 0.42505 0.0
C229 C 0.6487 0.48412 0.37025 0.0
H230 H 0.57359 0.40458 0.44449 0.0
C231 C 0.64303 0.47438 0.29083 0.0
H232 H 0.62964 0.4634 0.48661 0.0
C233 C 0.61005 0.4412 0.2665 0.0
C234 C 0.58334 0.41695 0.32155 0.0
H235 H 0.66021 0.49503 0.2472 0.0
H236 H 0.60284 0.43732 0.20516 0.0
C237 C 0.59363 0.42278 0.40067 0.0
C238 C 0.16843 0.555 0.58279 0.0
C239 C 0.16394 0.54122 0.50615 0.0
H240 H 0.17248 0.59919 0.65593 0.0
C241 C 0.17241 0.5662 0.44418 0.0
H242 H 0.16178 0.53623 0.63165 0.0
C243 C 0.17995 0.60279 0.45834 0.0
C244 C 0.17761 0.61419 0.53442 0.0
H245 H 0.16898 0.55616 0.38463 0.0
H246 H 0.18194 0.61989 0.40903 0.0
C247 C 0.17458 0.59111 0.59684 0.0
C248 C 0.48508 0.03625 0.86535 0.0
C249 C 0.48895 0.06959 0.83538 0.0
H250 H 0.51034 1.00242 0.88075 0.0
C251 C 0.52435 0.09649 0.80283 0.0
H252 H 0.45846 1.01504 0.89159 0.0
C253 C 0.55442 0.08922 0.79673 0.0
C254 C 0.54957 0.05484 0.82272 0.0
H255 H 0.52837 0.12253 0.77931 0.0
H256 H 0.58087 0.10986 0.76904 0.0
C257 C 0.5149 0.02894 0.85889 0.0
C258 C 0.47848 0.61675 0.90144 0.0
C259 C 0.4871 0.62091 0.82156 0.0
H260 H 0.44422 0.5781 -0.00932 0.0
C261 C 0.45929 0.59546 0.76891 0.0
H262 H 0.49936 0.63594 0.94348 0.0
C263 C 0.42686 0.56284 0.79618 0.0
C264 C 0.42277 0.55485 0.87618 0.0
H265 H 0.46519 0.59805 0.70705 0.0
H266 H 0.40876 0.5413 0.7542 0.0
C267 C 0.4468 0.5835 0.92873 0.0
C268 C 0.87357 0.45379 0.09166 0.0
C269 C 0.87147 0.42474 0.04475 0.0
H270 H 0.88786 0.51133 0.09693 0.0
C271 C 0.87141 0.42827 -0.0366 0.0
H272 H 0.87342 0.45175 0.15447 0.0
C273 C 0.88074 0.4628 0.93042 0.0
C274 C 0.88906 0.49383 -0.02175 0.0
H275 H 0.86967 0.40638 0.92542 0.0
H276 H 0.88564 0.46638 0.86829 0.0
C277 C 0.8819 0.48802 0.0585 0.0
C278 C 0.55869 1.00522 0.3531 0.0
C279 C 0.52439 0.97986 0.31446 0.0
H280 H 0.6152 0.01925 0.38527 0.0
C281 C 0.52033 0.94651 0.28282 0.0
H282 H 0.56264 0.03091 0.37931 0.0
C283 C 0.55086 0.9398 0.28607 0.0
C284 C 0.58588 0.96627 0.32133 0.0
H285 H 0.49419 0.92634 0.25303 0.0
H286 H 0.54751 0.91461 0.25847 0.0
C287 C 0.58894 0.99849 0.35666 0.0
C288 C 0.44408 0.40291 0.67546 0.0
C289 C 0.42342 0.42157 0.67878 0.0
H290 H 0.46953 0.37969 0.60149 0.0
C291 C 0.41362 0.43274 0.61014 0.0
H292 H 0.45174 0.39412 0.72824 0.0
C293 C 0.4249 0.42579 0.53847 0.0
C294 C 0.44483 0.4064 0.53495 0.0
H295 H 0.3978 0.44734 0.61212 0.0
H296 H 0.41737 0.43477 0.48579 0.0
C297 C 0.45411 0.39469 0.60356 0.0
C298 C 1.00401 0.43147 0.8385 0.0
C299 C 0.98677 0.3948 0.86829 0.0
H300 H 0.03935 0.4695 0.75015 0.0
C301 C 0.99334 0.36809 0.83186 0.0
H302 H 0.99947 0.45265 0.86555 0.0
C303 C 1.01678 0.37799 0.76632 0.0
C304 C 1.03335 0.4145 0.73581 0.0
H305 H 0.98061 0.33972 0.85422 0.0
H306 H 1.02112 0.35685 0.73846 0.0
C307 C 1.02689 0.44116 0.77258 0.0
C308 C 0.70336 0.97536 0.04364 0.0
C309 C 0.72267 1.00631 0.09468 0.0
H310 H 0.6703 0.95426 0.93936 0.0
C311 C 0.73263 0.04239 0.06877 0.0
H312 H 0.69625 0.94735 0.06112 0.0
C313 C 0.71793 0.04635 -0.00141 0.0
C314 C 0.69319 1.01428 0.95411 0.0
H315 H 0.74801 0.0669 0.10625 0.0
H316 H 0.72309 0.07394 -0.01701 0.0
C317 C 0.68813 0.9792 -0.02566 0.0
C318 C 0.64801 0.61368 0.02599 0.0
C319 C 0.6259 0.6308 0.02304 0.0
H320 H 0.67625 0.59359 0.09931 0.0
C321 C 0.6136 0.63961 0.09199 0.0
H322 H 0.65779 0.60689 -0.02698 0.0
C323 C 0.62299 0.63092 0.16364 0.0
C324 C 0.64594 0.61469 0.16665 0.0
H325 H 0.59642 0.6528 0.0903 0.0
H326 H 0.61313 0.63763 0.21659 0.0
C327 C 0.65861 0.60628 0.09767 0.0
C328 C 0.08013 0.62007 0.23438 0.0
C329 C 0.08943 0.6532 0.27538 0.0
H330 H 0.0507 0.58432 0.13725 0.0
C331 C 0.07786 0.67745 0.24617 0.0
H332 H 0.08888 0.601 0.25583 0.0
C333 C 0.05531 0.66754 0.17919 0.0
C334 C 0.04477 0.63364 0.13985 0.0
H335 H 0.08454 0.70306 0.27717 0.0
H336 H 0.0456 0.68604 0.159 0.0
C337 C 0.05827 0.61053 0.16672 0.0
C338 C 0.38839 0.05633 0.48122 0.0
C339 C 0.38347 0.0211 0.46176 0.0
H340 H 0.38108 0.08932 0.56746 0.0
C341 C 0.35961 0.98966 0.50767 0.0
H342 H 0.40548 0.08074 0.44513 0.0
C343 C 0.3455 0.99454 0.57808 0.0
C344 C 0.35524 0.03092 0.60287 0.0
H345 H 0.35457 0.96195 0.49265 0.0
H346 H 0.33065 0.97058 0.61638 0.0
C347 C 0.37393 0.06111 0.55088 0.0
C348 C 0.41696 0.22564 0.50188 0.0
C349 C 0.45287 0.25858 0.51206 0.0
H350 H 0.37662 0.1706 0.54396 0.0
C351 C 0.47662 0.26013 0.57325 0.0
H352 H 0.39791 0.22354 0.45555 0.0
C353 C 0.4645 0.2297 0.62386 0.0
C354 C 0.42815 0.19719 0.61495 0.0
H355 H 0.50451 0.28507 0.58269 0.0
H356 H 0.48334 0.23194 0.67075 0.0
C357 C 0.40467 0.19538 0.55297 0.0
C358 C 0.27566 0.44032 0.61204 0.0
C359 C 0.26982 0.42475 0.68684 0.0
H360 H 0.2509 0.45015 0.51213 0.0
C361 C 0.23223 0.40422 0.71587 0.0
H362 H 0.30414 0.45598 0.58732 0.0
C363 C 0.20141 0.40075 0.67218 0.0
C364 C 0.20763 0.41774 0.59865 0.0
H365 H 0.22673 0.39171 0.77308 0.0
H366 H 0.17295 0.38584 0.69715 0.0
C367 C 0.24502 0.43686 0.56858 0.0
C368 C 0.80371 0.23087 0.83105 0.0
C369 C 0.81115 0.24123 0.91018 0.0
H370 H 0.76609 0.18962 0.74722 0.0
C371 C 0.78484 0.2172 -0.03404 0.0
H372 H 0.82343 0.24877 0.78654 0.0
C373 C 0.75189 0.18372 0.94335 0.0
C374 C 0.74452 0.1731 0.8644 0.0
H375 H 0.78953 0.22434 0.02729 0.0
H376 H 0.7324 0.16591 -0.01176 0.0
C377 C 0.77085 0.19702 0.80842 0.0
C378 C 0.59792 0.83922 0.01212 0.0
C379 C 0.62137 0.84545 0.07731 0.0
H380 H 0.57406 0.80802 0.90636 0.0
C381 C 0.64 0.8248 0.08373 0.0
H382 H 0.58329 0.85478 0.00521 0.0
C383 C 0.63531 0.79855 0.02626 0.0
C384 C 0.6114 0.79191 -0.03838 0.0
H385 H 0.65854 0.82917 0.13281 0.0
H386 H 0.64987 0.78293 0.03332 0.0
C387 C 0.59273 0.81252 0.95528 0.0
C388 C 0.78807 0.59724 0.0914 0.0
C389 C 0.79657 0.61253 0.16713 0.0
H390 H 0.80908 0.58813 -0.01543 0.0
C391 C 0.83514 0.63319 0.19091 0.0
H392 H 0.75876 0.58156 0.07054 0.0
C393 C 0.86434 0.63702 0.14092 0.0
C394 C 0.85546 0.62038 0.06619 0.0
H395 H 0.84266 0.64548 0.24872 0.0
H396 H 0.89367 0.652 0.1617 0.0
C397 C 0.81705 0.60116 0.04169 0.0
C398 C 0.26346 0.82315 0.37048 0.0
C399 C 0.26429 0.79029 0.3867 0.0
H400 H 0.29503 0.88043 0.33098 0.0
C401 C 0.29847 0.79021 0.37438 0.0
H402 H 0.2374 0.82386 0.37879 0.0
C403 C 0.33148 0.82263 0.34849 0.0
C404 C 0.33068 0.85543 0.33186 0.0
H405 H 0.29992 0.76525 0.38628 0.0
H406 H 0.3577 0.82208 0.3416 0.0
C407 C 0.29625 0.8553 0.34223 0.0
loop_
_geom_bond_atom_site_label_1
_geom_bond_atom_site_label_2
_geom_bond_distance
_geom_bond_site_symmetry_2
_ccdc_geom_bond_type
Zn0 O3 2.031 . S
Zn0 O5 2.049 . S
Zn0 O10 2.067 . S
Zn1 O2 1.962 . S
Zn1 O4 1.986 . S
Zn1 O6 1.996 . S
Zn1 O9 1.943 . S
O2 Zn1 1.962 . S
O2 C7 1.254 . S
O3 Zn0 2.031 . S
O3 C7 1.269 . S
O4 Zn1 1.986 . S
O4 C11 1.262 . S
O5 Zn0 2.049 . S
O5 C13 1.260 . S
O6 Zn1 1.996 . S
O6 C13 1.257 . S
C7 O2 1.254 . S
C7 O3 1.269 . S
C8 O9 1.249 . S
C8 O10 1.270 . S
O9 Zn1 1.943 . S
O9 C8 1.249 . S
O10 Zn0 2.067 . S
O10 C8 1.270 . S
C11 O4 1.262 . S
C11 O12 1.232 . S
O12 C11 1.232 . S
C13 O5 1.260 . S
C13 O6 1.257 . S
Zn14 O17 2.031 . S
Zn14 O19 2.049 1_455 S
Zn14 O24 2.067 . S
Zn15 O16 1.962 . S
Zn15 O18 1.986 . S
Zn15 O20 1.996 . S
Zn15 O23 1.943 . S
O16 Zn15 1.962 . S
O16 C21 1.254 . S
O17 Zn14 2.031 . S
O17 C21 1.269 . S
O18 Zn15 1.986 . S
O18 C25 1.262 . S
O19 Zn14 2.049 1_655 S
O19 C27 1.260 1_655 S
O20 Zn15 1.996 . S
O20 C27 1.257 . S
C21 O16 1.254 . S
C21 O17 1.269 . S
C22 O23 1.249 . S
C22 O24 1.270 . S
O23 Zn15 1.943 . S
O23 C22 1.249 . S
O24 Zn14 2.067 . S
O24 C22 1.270 . S
C25 O18 1.262 . S
C25 O26 1.232 . S
O26 C25 1.232 . S
C27 O19 1.260 1_455 S
C27 O20 1.257 . S
Zn28 O31 2.031 . S
Zn28 O33 2.049 1_545 S
Zn28 O38 2.067 . S
Zn29 O30 1.962 . S
Zn29 O32 1.986 . S
Zn29 O34 1.996 . S
Zn29 O37 1.943 . S
O30 Zn29 1.962 . S
O30 C35 1.254 . S
O31 Zn28 2.031 . S
O31 C35 1.269 . S
O32 Zn29 1.986 . S
O32 C39 1.262 . S
O33 Zn28 2.049 1_565 S
O33 C41 1.260 1_565 S
O34 Zn29 1.996 . S
O34 C41 1.257 . S
C35 O30 1.254 . S
C35 O31 1.269 . S
C36 O37 1.249 . S
C36 O38 1.270 . S
O37 Zn29 1.943 . S
O37 C36 1.249 . S
O38 Zn28 2.067 . S
O38 C36 1.270 . S
C39 O32 1.262 . S
C39 O40 1.232 . S
O40 C39 1.232 . S
C41 O33 1.260 1_545 S
C41 O34 1.257 . S
Zn42 O45 2.031 . S
Zn42 O47 2.049 1_556 S
Zn42 O52 2.067 . S
Zn43 O44 1.962 . S
Zn43 O46 1.986 1_556 S
Zn43 O48 1.996 1_556 S
Zn43 O51 1.943 . S
O44 Zn43 1.962 . S
O44 C49 1.254 . S
O45 Zn42 2.031 . S
O45 C49 1.269 . S
O46 Zn43 1.986 1_554 S
O46 C53 1.262 1_554 S
O47 Zn42 2.049 1_554 S
O47 C55 1.260 . S
O48 Zn43 1.996 1_554 S
O48 C55 1.257 . S
C49 O44 1.254 . S
C49 O45 1.269 . S
C50 O51 1.249 . S
C50 O52 1.270 . S
O51 Zn43 1.943 . S
O51 C50 1.249 . S
O52 Zn42 2.067 . S
O52 C50 1.270 . S
C53 O46 1.262 1_556 S
C53 O54 1.232 . S
O54 C53 1.232 . S
C55 O47 1.260 . S
C55 O48 1.257 . S
Zn56 O59 2.031 . S
Zn56 O61 2.049 1_655 S
Zn56 O66 2.067 . S
Zn57 O58 1.962 . S
Zn57 O60 1.986 . S
Zn57 O62 1.996 . S
Zn57 O65 1.943 . S
O58 Zn57 1.962 . S
O58 C63 1.254 . S
O59 Zn56 2.031 . S
O59 C63 1.269 . S
O60 Zn57 1.986 . S
O60 C67 1.262 . S
O61 Zn56 2.049 1_455 S
O61 C69 1.260 1_455 S
O62 Zn57 1.996 . S
O62 C69 1.257 . S
C63 O58 1.254 . S
C63 O59 1.269 . S
C64 O65 1.249 1_556 S
C64 O66 1.270 1_556 S
O65 Zn57 1.943 . S
O65 C64 1.249 1_554 S
O66 Zn56 2.067 . S
O66 C64 1.270 1_554 S
C67 O60 1.262 . S
C67 O68 1.232 . S
O68 C67 1.232 . S
C69 O61 1.260 1_655 S
C69 O62 1.257 . S
Zn70 O73 2.031 . S
Zn70 O75 2.049 1_565 S
Zn70 O80 2.067 . S
Zn71 O72 1.962 . S
Zn71 O74 1.986 . S
Zn71 O76 1.996 . S
Zn71 O79 1.943 . S
O72 Zn71 1.962 . S
O72 C77 1.254 . S
O73 Zn70 2.031 . S
O73 C77 1.269 . S
O74 Zn71 1.986 . S
O74 C81 1.262 . S
O75 Zn70 2.049 1_545 S
O75 C83 1.260 1_545 S
O76 Zn71 1.996 . S
O76 C83 1.257 . S
C77 O72 1.254 . S
C77 O73 1.269 . S
C78 O79 1.249 . S
C78 O80 1.270 . S
O79 Zn71 1.943 . S
O79 C78 1.249 . S
O80 Zn70 2.067 . S
O80 C78 1.270 . S
C81 O74 1.262 . S
C81 O82 1.232 . S
O82 C81 1.232 . S
C83 O75 1.260 1_565 S
C83 O76 1.257 . S
Zn84 O87 2.031 . S
Zn84 O89 2.049 . S
Zn84 O94 2.067 . S
Zn85 O86 1.962 . S
Zn85 O88 1.986 . S
Zn85 O90 1.996 . S
Zn85 O93 1.943 . S
O86 Zn85 1.962 . S
O86 C91 1.254 . S
O87 Zn84 2.031 . S
O87 C91 1.269 . S
O88 Zn85 1.986 . S
O88 C95 1.262 . S
O89 Zn84 2.049 . S
O89 C97 1.260 . S
O90 Zn85 1.996 . S
O90 C97 1.257 . S
C91 O86 1.254 . S
C91 O87 1.269 . S
C92 O93 1.249 . S
C92 O94 1.270 . S
O93 Zn85 1.943 . S
O93 C92 1.249 . S
O94 Zn84 2.067 . S
O94 C92 1.270 . S
C95 O88 1.262 . S
C95 O96 1.232 . S
O96 C95 1.232 . S
C97 O89 1.260 . S
C97 O90 1.257 . S
Zn98 O101 2.031 . S
Zn98 O103 2.049 1_455 S
Zn98 O108 2.067 . S
Zn99 O100 1.962 . S
Zn99 O102 1.986 . S
Zn99 O104 1.996 . S
Zn99 O107 1.943 . S
O100 Zn99 1.962 . S
O100 C105 1.254 . S
O101 Zn98 2.031 . S
O101 C105 1.269 . S
O102 Zn99 1.986 . S
O102 C109 1.262 . S
O103 Zn98 2.049 1_655 S
O103 C111 1.260 1_655 S
O104 Zn99 1.996 . S
O104 C111 1.257 . S
C105 O100 1.254 . S
C105 O101 1.269 . S
C106 O107 1.249 . S
C106 O108 1.270 . S
O107 Zn99 1.943 . S
O107 C106 1.249 . S
O108 Zn98 2.067 . S
O108 C106 1.270 . S
C109 O102 1.262 . S
C109 O110 1.232 . S
O110 C109 1.232 . S
C111 O103 1.260 1_455 S
C111 O104 1.257 . S
Zn112 O115 2.031 . S
Zn112 O117 2.049 1_545 S
Zn112 O122 2.067 . S
Zn113 O114 1.962 . S
Zn113 O116 1.986 . S
Zn113 O118 1.996 . S
Zn113 O121 1.943 . S
O114 Zn113 1.962 . S
O114 C119 1.254 . S
O115 Zn112 2.031 . S
O115 C119 1.269 . S
O116 Zn113 1.986 . S
O116 C123 1.262 . S
O117 Zn112 2.049 1_565 S
O117 C125 1.260 1_565 S
O118 Zn113 1.996 . S
O118 C125 1.257 . S
C119 O114 1.254 . S
C119 O115 1.269 . S
C120 O121 1.249 . S
C120 O122 1.270 . S
O121 Zn113 1.943 . S
O121 C120 1.249 . S
O122 Zn112 2.067 . S
O122 C120 1.270 . S
C123 O116 1.262 . S
C123 O124 1.232 . S
O124 C123 1.232 . S
C125 O117 1.260 1_545 S
C125 O118 1.257 . S
Zn126 O129 2.031 . S
Zn126 O131 2.049 . S
Zn126 O136 2.067 . S
Zn127 O128 1.962 . S
Zn127 O130 1.986 . S
Zn127 O132 1.996 . S
Zn127 O135 1.943 . S
O128 Zn127 1.962 . S
O128 C133 1.254 . S
O129 Zn126 2.031 . S
O129 C133 1.269 . S
O130 Zn127 1.986 . S
O130 C137 1.262 . S
O131 Zn126 2.049 . S
O131 C139 1.260 . S
O132 Zn127 1.996 . S
O132 C139 1.257 . S
C133 O128 1.254 . S
C133 O129 1.269 . S
C134 O135 1.249 1_554 S
C134 O136 1.270 1_554 S
O135 Zn127 1.943 . S
O135 C134 1.249 1_556 S
O136 Zn126 2.067 . S
O136 C134 1.270 1_556 S
C137 O130 1.262 . S
C137 O138 1.232 . S
O138 C137 1.232 . S
C139 O131 1.260 . S
C139 O132 1.257 . S
Zn140 O143 2.031 . S
Zn140 O145 2.049 1_654 S
Zn140 O150 2.067 . S
Zn141 O142 1.962 . S
Zn141 O144 1.986 1_554 S
Zn141 O146 1.996 1_554 S
Zn141 O149 1.943 . S
O142 Zn141 1.962 . S
O142 C147 1.254 . S
O143 Zn140 2.031 . S
O143 C147 1.269 . S
O144 Zn141 1.986 1_556 S
O144 C151 1.262 1_556 S
O145 Zn140 2.049 1_456 S
O145 C153 1.260 1_455 S
O146 Zn141 1.996 1_556 S
O146 C153 1.257 . S
C147 O142 1.254 . S
C147 O143 1.269 . S
C148 O149 1.249 . S
C148 O150 1.270 . S
O149 Zn141 1.943 . S
O149 C148 1.249 . S
O150 Zn140 2.067 . S
O150 C148 1.270 . S
C151 O144 1.262 1_554 S
C151 O152 1.232 . S
O152 C151 1.232 . S
C153 O145 1.260 1_655 S
C153 O146 1.257 . S
Zn154 O157 2.031 . S
Zn154 O159 2.049 1_565 S
Zn154 O164 2.067 . S
Zn155 O156 1.962 . S
Zn155 O158 1.986 . S
Zn155 O160 1.996 . S
Zn155 O163 1.943 . S
O156 Zn155 1.962 . S
O156 C161 1.254 . S
O157 Zn154 2.031 . S
O157 C161 1.269 . S
O158 Zn155 1.986 . S
O158 C165 1.262 . S
O159 Zn154 2.049 1_545 S
O159 C167 1.260 1_545 S
O160 Zn155 1.996 . S
O160 C167 1.257 . S
C161 O156 1.254 . S
C161 O157 1.269 . S
C162 O163 1.249 . S
C162 O164 1.270 . S
O163 Zn155 1.943 . S
O163 C162 1.249 . S
O164 Zn154 2.067 . S
O164 C162 1.270 . S
C165 O158 1.262 . S
C165 O166 1.232 . S
O166 C165 1.232 . S
C167 O159 1.260 1_565 S
C167 O160 1.257 . S
C168 C169 1.387 . S
C168 H172 0.950 . S
C168 C177 1.390 . S
C169 C168 1.387 . S
C169 C171 1.387 . S
H170 C177 0.950 . S
C171 C169 1.387 . S
C171 C173 1.390 . S
C171 H175 0.950 . S
H172 C168 0.950 . S
C173 C171 1.390 . S
C173 C174 1.387 . S
C173 H176 0.950 . S
C174 C173 1.387 . S
C174 C177 1.387 . S
H175 C171 0.950 . S
H176 C173 0.950 . S
C177 C168 1.390 . S
C177 H170 0.950 . S
C177 C174 1.387 . S
C178 C179 1.387 . S
C178 H182 0.950 . S
C178 C187 1.390 1_455 S
C179 C178 1.387 . S
C179 C181 1.387 . S
H180 C187 0.950 . S
C181 C179 1.387 . S
C181 C183 1.390 1_455 S
C181 H185 0.950 . S
H182 C178 0.950 . S
C183 C181 1.390 1_655 S
C183 C184 1.387 . S
C183 H186 0.950 . S
C184 C183 1.387 . S
C184 C187 1.387 . S
H185 C181 0.950 . S
H186 C183 0.950 . S
C187 C178 1.390 1_655 S
C187 H180 0.950 . S
C187 C184 1.387 . S
C188 C189 1.387 . S
C188 H192 0.950 . S
C188 C197 1.390 1_565 S
C189 C188 1.387 . S
C189 C191 1.387 . S
H190 C197 0.950 . S
C191 C189 1.387 . S
C191 C193 1.390 1_565 S
C191 H195 0.950 . S
H192 C188 0.950 . S
C193 C191 1.390 1_545 S
C193 C194 1.387 . S
C193 H196 0.950 . S
C194 C193 1.387 . S
C194 C197 1.387 . S
H195 C191 0.950 . S
H196 C193 0.950 . S
C197 C188 1.390 1_545 S
C197 H190 0.950 . S
C197 C194 1.387 . S
C198 C199 1.387 . S
C198 H202 0.950 . S
C198 C207 1.390 . S
C199 C198 1.387 . S
C199 C201 1.387 . S
H200 C207 0.950 . S
C201 C199 1.387 . S
C201 C203 1.390 . S
C201 H205 0.950 . S
H202 C198 0.950 . S
C203 C201 1.390 . S
C203 C204 1.387 . S
C203 H206 0.950 . S
C204 C203 1.387 . S
C204 C207 1.387 . S
H205 C201 0.950 . S
H206 C203 0.950 . S
C207 C198 1.390 . S
C207 H200 0.950 . S
C207 C204 1.387 . S
C208 C209 1.387 . S
C208 H212 0.950 . S
C208 C217 1.390 . S
C209 C208 1.387 . S
C209 C211 1.387 1_455 S
H210 C217 0.950 . S
C211 C209 1.387 1_655 S
C211 C213 1.390 . S
C211 H215 0.950 . S
H212 C208 0.950 . S
C213 C211 1.390 . S
C213 C214 1.387 . S
C213 H216 0.950 . S
C214 C213 1.387 . S
C214 C217 1.387 1_655 S
H215 C211 0.950 . S
H216 C213 0.950 . S
C217 C208 1.390 . S
C217 H210 0.950 . S
C217 C214 1.387 1_455 S
C218 C219 1.387 . S
C218 H222 0.950 . S
C218 C227 1.390 1_546 S
C219 C218 1.387 . S
C219 C221 1.387 . S
H220 C227 0.950 . S
C221 C219 1.387 . S
C221 C223 1.390 1_546 S
C221 H225 0.950 . S
H222 C218 0.950 . S
C223 C221 1.390 1_564 S
C223 C224 1.387 . S
C223 H226 0.950 . S
C224 C223 1.387 . S
C224 C227 1.387 . S
H225 C221 0.950 . S
H226 C223 0.950 . S
C227 C218 1.390 1_564 S
C227 H220 0.950 . S
C227 C224 1.387 . S
C228 C229 1.387 . S
C228 H232 0.950 . S
C228 C237 1.390 . S
C229 C228 1.387 . S
C229 C231 1.387 . S
H230 C237 0.950 . S
C231 C229 1.387 . S
C231 C233 1.390 . S
C231 H235 0.950 . S
H232 C228 0.950 . S
C233 C231 1.390 . S
C233 C234 1.387 . S
C233 H236 0.950 . S
C234 C233 1.387 . S
C234 C237 1.387 . S
H235 C231 0.950 . S
H236 C233 0.950 . S
C237 C228 1.390 . S
C237 H230 0.950 . S
C237 C234 1.387 . S
C238 C239 1.387 . S
C238 H242 0.950 . S
C238 C247 1.390 . S
C239 C238 1.387 . S
C239 C241 1.387 . S
H240 C247 0.950 . S
C241 C239 1.387 . S
C241 C243 1.390 . S
C241 H245 0.950 . S
H242 C238 0.950 . S
C243 C241 1.390 . S
C243 C244 1.387 . S
C243 H246 0.950 . S
C244 C243 1.387 . S
C244 C247 1.387 . S
H245 C241 0.950 . S
H246 C243 0.950 . S
C247 C238 1.390 . S
C247 H240 0.950 . S
C247 C244 1.387 . S
C248 C249 1.387 . S
C248 H252 0.950 . S
C248 C257 1.390 . S
C249 C248 1.387 . S
C249 C251 1.387 . S
H250 C257 0.950 . S
C251 C249 1.387 . S
C251 C253 1.390 . S
C251 H255 0.950 . S
H252 C248 0.950 . S
C253 C251 1.390 . S
C253 C254 1.387 . S
C253 H256 0.950 . S
C254 C253 1.387 . S
C254 C257 1.387 . S
H255 C251 0.950 . S
H256 C253 0.950 . S
C257 C248 1.390 . S
C257 H250 0.950 . S
C257 C254 1.387 . S
C258 C259 1.387 . S
C258 H262 0.950 1_556 S
C258 C267 1.393 . S
C259 C258 1.387 . S
C259 C261 1.387 . S
H260 C267 0.937 1_554 S
C261 C259 1.387 . S
C261 C263 1.390 . S
C261 H265 0.950 . S
H262 C258 0.950 1_554 S
C263 C261 1.390 . S
C263 C264 1.387 . S
C263 H266 0.950 . S
C264 C263 1.387 . S
C264 C267 1.398 . S
H265 C261 0.950 . S
H266 C263 0.950 . S
C267 C258 1.393 . S
C267 H260 0.937 1_556 S
C267 C264 1.398 . S
C268 C269 1.387 . S
C268 H272 0.950 . S
C268 C277 1.390 . S
C269 C268 1.387 . S
C269 C271 1.387 . S
H270 C277 0.950 . S
C271 C269 1.387 . S
C271 C273 1.390 . S
C271 H275 0.950 1_554 S
H272 C268 0.950 . S
C273 C271 1.390 . S
C273 C274 1.387 . S
C273 H276 0.950 1_554 S
C274 C273 1.387 . S
C274 C277 1.387 . S
H275 C271 0.950 1_556 S
H276 C273 0.950 1_556 S
C277 C268 1.390 . S
C277 H270 0.950 . S
C277 C274 1.387 . S
C278 C279 1.387 . S
C278 H282 0.950 . S
C278 C287 1.390 . S
C279 C278 1.387 . S
C279 C281 1.387 . S
H280 C287 0.950 . S
C281 C279 1.387 . S
C281 C283 1.390 . S
C281 H285 0.950 . S
H282 C278 0.950 . S
C283 C281 1.390 . S
C283 C284 1.387 . S
C283 H286 0.950 . S
C284 C283 1.387 . S
C284 C287 1.387 . S
H285 C281 0.950 . S
H286 C283 0.950 . S
C287 C278 1.390 . S
C287 H280 0.950 . S
C287 C284 1.387 . S
C288 C289 1.387 . S
C288 H292 0.950 . S
C288 C297 1.390 . S
C289 C288 1.387 . S
C289 C291 1.387 . S
H290 C297 0.950 . S
C291 C289 1.387 . S
C291 C293 1.390 . S
C291 H295 0.950 . S
H292 C288 0.950 . S
C293 C291 1.390 . S
C293 C294 1.387 . S
C293 H296 0.950 . S
C294 C293 1.387 . S
C294 C297 1.387 . S
H295 C291 0.950 . S
H296 C293 0.950 . S
C297 C288 1.390 . S
C297 H290 0.950 . S
C297 C294 1.387 . S
C298 C299 1.387 1_455 S
C298 H302 0.950 . S
C298 C307 1.390 . S
C299 C298 1.387 1_655 S
C299 C301 1.387 . S
H300 C307 0.950 . S
C301 C299 1.387 . S
C301 C303 1.390 . S
C301 H305 0.950 . S
H302 C298 0.950 . S
C303 C301 1.390 . S
C303 C304 1.387 1_655 S
C303 H306 0.950 . S
C304 C303 1.387 1_455 S
C304 C307 1.387 . S
H305 C301 0.950 . S
H306 C303 0.950 . S
C307 C298 1.390 . S
C307 H300 0.950 . S
C307 C304 1.387 . S
C308 C309 1.387 . S
C308 H312 0.950 . S
C308 C317 1.390 1_564 S
C309 C308 1.387 . S
C309 C311 1.387 . S
H310 C317 0.950 . S
C311 C309 1.387 . S
C311 C313 1.390 1_564 S
C311 H315 0.950 . S
H312 C308 0.950 . S
C313 C311 1.390 1_546 S
C313 C314 1.387 . S
C313 H316 0.950 . S
C314 C313 1.387 . S
C314 C317 1.387 . S
H315 C311 0.950 . S
H316 C313 0.950 . S
C317 C308 1.390 1_546 S
C317 H310 0.950 . S
C317 C314 1.387 . S
C318 C319 1.387 . S
C318 H322 0.950 . S
C318 C327 1.390 . S
C319 C318 1.387 . S
C319 C321 1.387 . S
H320 C327 0.950 . S
C321 C319 1.387 . S
C321 C323 1.390 . S
C321 H325 0.950 . S
H322 C318 0.950 . S
C323 C321 1.390 . S
C323 C324 1.387 . S
C323 H326 0.950 . S
C324 C323 1.387 . S
C324 C327 1.387 . S
H325 C321 0.950 . S
H326 C323 0.950 . S
C327 C318 1.390 . S
C327 H320 0.950 . S
C327 C324 1.387 . S
C328 C329 1.387 . S
C328 H332 0.950 . S
C328 C337 1.390 1_455 S
C329 C328 1.387 . S
C329 C331 1.387 . S
H330 C337 0.950 . S
C331 C329 1.387 . S
C331 C333 1.390 1_455 S
C331 H335 0.950 . S
H332 C328 0.950 . S
C333 C331 1.390 1_655 S
C333 C334 1.387 . S
C333 H336 0.950 . S
C334 C333 1.387 . S
C334 C337 1.387 . S
H335 C331 0.950 . S
H336 C333 0.950 . S
C337 C328 1.390 1_655 S
C337 H330 0.950 . S
C337 C334 1.387 . S
C338 C339 1.387 . S
C338 H342 0.950 . S
C338 C347 1.390 1_565 S
C339 C338 1.387 . S
C339 C341 1.387 . S
H340 C347 0.950 . S
C341 C339 1.387 . S
C341 C343 1.390 1_565 S
C341 H345 0.950 . S
H342 C338 0.950 . S
C343 C341 1.390 1_545 S
C343 C344 1.387 . S
C343 H346 0.950 . S
C344 C343 1.387 . S
C344 C347 1.387 . S
H345 C341 0.950 . S
H346 C343 0.950 . S
C347 C338 1.390 1_545 S
C347 H340 0.950 . S
C347 C344 1.387 . S
C348 C349 1.387 . S
C348 H352 0.950 . S
C348 C357 1.390 . S
C349 C348 1.387 . S
C349 C351 1.387 . S
H350 C357 0.950 . S
C351 C349 1.387 . S
C351 C353 1.390 . S
C351 H355 0.950 . S
H352 C348 0.950 . S
C353 C351 1.390 . S
C353 C354 1.387 . S
C353 H356 0.950 . S
C354 C353 1.387 . S
C354 C357 1.387 . S
H355 C351 0.950 . S
H356 C353 0.950 . S
C357 C348 1.390 . S
C357 H350 0.950 . S
C357 C354 1.387 . S
C358 C359 1.387 . S
C358 H362 0.950 . S
C358 C367 1.390 . S
C359 C358 1.387 . S
C359 C361 1.387 . S
H360 C367 0.950 . S
C361 C359 1.387 . S
C361 C363 1.390 . S
C361 H365 0.950 . S
H362 C358 0.950 . S
C363 C361 1.390 . S
C363 C364 1.387 . S
C363 H366 0.950 . S
C364 C363 1.387 . S
C364 C367 1.387 . S
H365 C361 0.950 . S
H366 C363 0.950 . S
C367 C358 1.390 . S
C367 H360 0.950 . S
C367 C364 1.387 . S
C368 C369 1.387 . S
C368 H372 0.950 1_556 S
C368 C377 1.390 . S
C369 C368 1.387 . S
C369 C371 1.387 . S
H370 C377 0.950 . S
C371 C369 1.387 . S
C371 C373 1.390 . S
C371 H375 0.950 . S
H372 C368 0.950 1_554 S
C373 C371 1.390 . S
C373 C374 1.387 . S
C373 H376 0.950 . S
C374 C373 1.387 . S
C374 C377 1.387 . S
H375 C371 0.950 . S
H376 C373 0.950 . S
C377 C368 1.390 . S
C377 H370 0.950 . S
C377 C374 1.387 . S
C378 C379 1.387 . S
C378 H382 0.950 . S
C378 C387 1.390 . S
C379 C378 1.387 . S
C379 C381 1.387 . S
H380 C387 0.950 1_556 S
C381 C379 1.387 . S
C381 C383 1.390 . S
C381 H385 0.950 . S
H382 C378 0.950 . S
C383 C381 1.390 . S
C383 C384 1.387 . S
C383 H386 0.950 . S
C384 C383 1.387 . S
C384 C387 1.387 . S
H385 C381 0.950 . S
H386 C383 0.950 . S
C387 C378 1.390 . S
C387 H380 0.950 1_554 S
C387 C384 1.387 . S
C388 C389 1.387 . S
C388 H392 0.950 . S
C388 C397 1.390 . S
C389 C388 1.387 . S
C389 C391 1.387 . S
H390 C397 0.950 . S
C391 C389 1.387 . S
C391 C393 1.390 . S
C391 H395 0.950 . S
H392 C388 0.950 . S
C393 C391 1.390 . S
C393 C394 1.387 . S
C393 H396 0.950 . S
C394 C393 1.387 . S
C394 C397 1.387 . S
H395 C391 0.950 . S
H396 C393 0.950 . S
C397 C388 1.390 . S
C397 H390 0.950 . S
C397 C394 1.387 . S
C398 C399 1.387 . S
C398 H402 0.950 . S
C398 C407 1.390 . S
C399 C398 1.387 . S
C399 C401 1.387 . S
H400 C407 0.950 . S
C401 C399 1.387 . S
C401 C403 1.390 . S
C401 H405 0.950 . S
H402 C398 0.950 . S
C403 C401 1.390 . S
C403 C404 1.387 . S
C403 H406 0.950 . S
C404 C403 1.387 . S
C404 C407 1.387 . S
H405 C401 0.950 . S
H406 C403 0.950 . S
C407 C398 1.390 . S
C407 H400 0.950 . S
C407 C404 1.387 . S
C169 C134 1.559 . S
C174 C8 1.559 . S
C179 C22 1.555 . S
C184 C148 1.556 . S
C189 C162 1.559 . S
C194 C36 1.559 . S
C199 C92 1.559 . S
C204 C50 1.558 . S
C209 C106 1.558 . S
C214 C64 1.559 . S
C219 C120 1.559 . S
C224 C78 1.559 . S
C229 C91 1.529 . S
C234 C7 1.527 . S
C239 C21 1.527 . S
C244 C105 1.529 . S
C249 C119 1.527 . S
C254 C35 1.527 . S
C259 C49 1.527 . S
C264 C133 1.529 . S
C269 C147 1.530 . S
C274 C63 1.527 . S
C279 C77 1.529 . S
C284 C161 1.529 . S
C289 C139 0.840 . S
C294 C13 0.846 . S
C299 C153 0.843 . S
C304 C27 0.847 . S
C309 C167 0.845 . S
C314 C41 0.845 . S
C319 C55 0.842 . S
C324 C97 0.848 . S
C329 C111 0.845 . S
C334 C69 0.846 . S
C339 C83 0.845 . S
C344 C125 0.845 . S
C349 C11 1.536 . S
C354 C123 1.537 . S
C359 C137 1.538 . S
C364 C25 1.538 . S
C369 C151 1.536 1_556 S
C374 C39 1.535 . S
C379 C165 1.536 . S
C384 C53 1.537 1_554 S
C389 C95 1.538 . S
C394 C67 1.538 . S
C399 C109 1.536 . S
C404 C81 1.535 . S
