# Generated by pormake.
# Topology vba, (4)-cn, num edge types: 1
# Building blocks:
#     Node 0, Type 0, BuildingBlock: NAWXER_clean_sbu_0, # of connection points: 4
#     Node 1, Type 0, BuildingBlock: NAWXER_clean_sbu_0, # of connection points: 4
#     Node 2, Type 0, BuildingBlock: NAWXER_clean_sbu_0, # of connection points: 4
#     Node 3, Type 0, BuildingBlock: NAWXER_clean_sbu_0, # of connection points: 4
#     Node 4, Type 0, BuildingBlock: NAWXER_clean_sbu_0, # of connection points: 4
#     Node 5, Type 0, BuildingBlock: NAWXER_clean_sbu_0, # of connection points: 4
#     Node 6, Type 0, BuildingBlock: NAWXER_clean_sbu_0, # of connection points: 4
#     Node 7, Type 0, BuildingBlock: NAWXER_clean_sbu_0, # of connection points: 4
#     Node 8, Type 0, BuildingBlock: NAWXER_clean_sbu_0, # of connection points: 4
#     Node 9, Type 0, BuildingBlock: NAWXER_clean_sbu_0, # of connection points: 4
#     Node 10, Type 0, BuildingBlock: NAWXER_clean_sbu_0, # of connection points: 4
#     Node 11, Type 0, BuildingBlock: NAWXER_clean_sbu_0, # of connection points: 4
#     Node 12, Type 0, BuildingBlock: NAWXER_clean_sbu_0, # of connection points: 4
#     Node 13, Type 0, BuildingBlock: NAWXER_clean_sbu_0, # of connection points: 4
#     Node 14, Type 0, BuildingBlock: NAWXER_clean_sbu_0, # of connection points: 4
#     Node 15, Type 0, BuildingBlock: NAWXER_clean_sbu_0, # of connection points: 4
#     Node 16, Type 0, BuildingBlock: NAWXER_clean_sbu_0, # of connection points: 4
#     Node 17, Type 0, BuildingBlock: NAWXER_clean_sbu_0, # of connection points: 4
#     Node 18, Type 0, BuildingBlock: NAWXER_clean_sbu_0, # of connection points: 4
#     Node 19, Type 0, BuildingBlock: NAWXER_clean_sbu_0, # of connection points: 4
#     Node 20, Type 0, BuildingBlock: NAWXER_clean_sbu_0, # of connection points: 4
#     Node 21, Type 0, BuildingBlock: NAWXER_clean_sbu_0, # of connection points: 4
#     Node 22, Type 0, BuildingBlock: NAWXER_clean_sbu_0, # of connection points: 4
#     Node 23, Type 0, BuildingBlock: NAWXER_clean_sbu_0, # of connection points: 4
#     Node 24, Type 0, BuildingBlock: NAWXER_clean_sbu_0, # of connection points: 4
#     Node 25, Type 0, BuildingBlock: NAWXER_clean_sbu_0, # of connection points: 4
#     Node 26, Type 0, BuildingBlock: NAWXER_clean_sbu_0, # of connection points: 4
#     Node 27, Type 0, BuildingBlock: NAWXER_clean_sbu_0, # of connection points: 4
#     Node 28, Type 0, BuildingBlock: NAWXER_clean_sbu_0, # of connection points: 4
#     Node 29, Type 0, BuildingBlock: NAWXER_clean_sbu_0, # of connection points: 4
#     Node 30, Type 0, BuildingBlock: NAWXER_clean_sbu_0, # of connection points: 4
#     Node 31, Type 0, BuildingBlock: NAWXER_clean_sbu_0, # of connection points: 4
#     Edge 32, Type (0, 0), BuildingBlock: XIVTED_clean_linker_0, # of connection points: 2
#     Edge 33, Type (0, 0), BuildingBlock: XIVTED_clean_linker_0, # of connection points: 2
#     Edge 34, Type (0, 0), BuildingBlock: XIVTED_clean_linker_0, # of connection points: 2
#     Edge 35, Type (0, 0), BuildingBlock: XIVTED_clean_linker_0, # of connection points: 2
#     Edge 36, Type (0, 0), BuildingBlock: XIVTED_clean_linker_0, # of connection points: 2
#     Edge 37, Type (0, 0), BuildingBlock: XIVTED_clean_linker_0, # of connection points: 2
#     Edge 38, Type (0, 0), BuildingBlock: XIVTED_clean_linker_0, # of connection points: 2
#     Edge 39, Type (0, 0), BuildingBlock: XIVTED_clean_linker_0, # of connection points: 2
#     Edge 40, Type (0, 0), BuildingBlock: XIVTED_clean_linker_0, # of connection points: 2
#     Edge 41, Type (0, 0), BuildingBlock: XIVTED_clean_linker_0, # of connection points: 2
#     Edge 42, Type (0, 0), BuildingBlock: XIVTED_clean_linker_0, # of connection points: 2
#     Edge 43, Type (0, 0), BuildingBlock: XIVTED_clean_linker_0, # of connection points: 2
#     Edge 44, Type (0, 0), BuildingBlock: XIVTED_clean_linker_0, # of connection points: 2
#     Edge 45, Type (0, 0), BuildingBlock: XIVTED_clean_linker_0, # of connection points: 2
#     Edge 46, Type (0, 0), BuildingBlock: XIVTED_clean_linker_0, # of connection points: 2
#     Edge 47, Type (0, 0), BuildingBlock: XIVTED_clean_linker_0, # of connection points: 2
#     Edge 48, Type (0, 0), BuildingBlock: XIVTED_clean_linker_0, # of connection points: 2
#     Edge 49, Type (0, 0), BuildingBlock: XIVTED_clean_linker_0, # of connection points: 2
#     Edge 50, Type (0, 0), BuildingBlock: XIVTED_clean_linker_0, # of connection points: 2
#     Edge 51, Type (0, 0), BuildingBlock: XIVTED_clean_linker_0, # of connection points: 2
#     Edge 52, Type (0, 0), BuildingBlock: XIVTED_clean_linker_0, # of connection points: 2
#     Edge 53, Type (0, 0), BuildingBlock: XIVTED_clean_linker_0, # of connection points: 2
#     Edge 54, Type (0, 0), BuildingBlock: XIVTED_clean_linker_0, # of connection points: 2
#     Edge 55, Type (0, 0), BuildingBlock: XIVTED_clean_linker_0, # of connection points: 2
#     Edge 56, Type (0, 0), BuildingBlock: XIVTED_clean_linker_0, # of connection points: 2
#     Edge 57, Type (0, 0), BuildingBlock: XIVTED_clean_linker_0, # of connection points: 2
#     Edge 58, Type (0, 0), BuildingBlock: XIVTED_clean_linker_0, # of connection points: 2
#     Edge 59, Type (0, 0), BuildingBlock: XIVTED_clean_linker_0, # of connection points: 2
#     Edge 60, Type (0, 0), BuildingBlock: XIVTED_clean_linker_0, # of connection points: 2
#     Edge 61, Type (0, 0), BuildingBlock: XIVTED_clean_linker_0, # of connection points: 2
#     Edge 62, Type (0, 0), BuildingBlock: XIVTED_clean_linker_0, # of connection points: 2
#     Edge 63, Type (0, 0), BuildingBlock: XIVTED_clean_linker_0, # of connection points: 2
#     Edge 64, Type (0, 0), BuildingBlock: XIVTED_clean_linker_0, # of connection points: 2
#     Edge 65, Type (0, 0), BuildingBlock: XIVTED_clean_linker_0, # of connection points: 2
#     Edge 66, Type (0, 0), BuildingBlock: XIVTED_clean_linker_0, # of connection points: 2
#     Edge 67, Type (0, 0), BuildingBlock: XIVTED_clean_linker_0, # of connection points: 2
#     Edge 68, Type (0, 0), BuildingBlock: XIVTED_clean_linker_0, # of connection points: 2
#     Edge 69, Type (0, 0), BuildingBlock: XIVTED_clean_linker_0, # of connection points: 2
#     Edge 70, Type (0, 0), BuildingBlock: XIVTED_clean_linker_0, # of connection points: 2
#     Edge 71, Type (0, 0), BuildingBlock: XIVTED_clean_linker_0, # of connection points: 2
#     Edge 72, Type (0, 0), BuildingBlock: XIVTED_clean_linker_0, # of connection points: 2
#     Edge 73, Type (0, 0), BuildingBlock: XIVTED_clean_linker_0, # of connection points: 2
#     Edge 74, Type (0, 0), BuildingBlock: XIVTED_clean_linker_0, # of connection points: 2
#     Edge 75, Type (0, 0), BuildingBlock: XIVTED_clean_linker_0, # of connection points: 2
#     Edge 76, Type (0, 0), BuildingBlock: XIVTED_clean_linker_0, # of connection points: 2
#     Edge 77, Type (0, 0), BuildingBlock: XIVTED_clean_linker_0, # of connection points: 2
#     Edge 78, Type (0, 0), BuildingBlock: XIVTED_clean_linker_0, # of connection points: 2
#     Edge 79, Type (0, 0), BuildingBlock: XIVTED_clean_linker_0, # of connection points: 2
#     Edge 80, Type (0, 0), BuildingBlock: XIVTED_clean_linker_0, # of connection points: 2
#     Edge 81, Type (0, 0), BuildingBlock: XIVTED_clean_linker_0, # of connection points: 2
#     Edge 82, Type (0, 0), BuildingBlock: XIVTED_clean_linker_0, # of connection points: 2
#     Edge 83, Type (0, 0), BuildingBlock: XIVTED_clean_linker_0, # of connection points: 2
#     Edge 84, Type (0, 0), BuildingBlock: XIVTED_clean_linker_0, # of connection points: 2
#     Edge 85, Type (0, 0), BuildingBlock: XIVTED_clean_linker_0, # of connection points: 2
#     Edge 86, Type (0, 0), BuildingBlock: XIVTED_clean_linker_0, # of connection points: 2
#     Edge 87, Type (0, 0), BuildingBlock: XIVTED_clean_linker_0, # of connection points: 2
#     Edge 88, Type (0, 0), BuildingBlock: XIVTED_clean_linker_0, # of connection points: 2
#     Edge 89, Type (0, 0), BuildingBlock: XIVTED_clean_linker_0, # of connection points: 2
#     Edge 90, Type (0, 0), BuildingBlock: XIVTED_clean_linker_0, # of connection points: 2
#     Edge 91, Type (0, 0), BuildingBlock: XIVTED_clean_linker_0, # of connection points: 2
#     Edge 92, Type (0, 0), BuildingBlock: XIVTED_clean_linker_0, # of connection points: 2
#     Edge 93, Type (0, 0), BuildingBlock: XIVTED_clean_linker_0, # of connection points: 2
#     Edge 94, Type (0, 0), BuildingBlock: XIVTED_clean_linker_0, # of connection points: 2
#     Edge 95, Type (0, 0), BuildingBlock: XIVTED_clean_linker_0, # of connection points: 2
# Relax obj value: 0.002
# Max RMSD: 0.073
# Mean RMSD: 0.072
data_MOF--net-vba--node1-NAWXER_clean_sbu_0--edge1-XIVTED_clean_linker_0
_symmetry_space_group_name_H-M    P1
_symmetry_Int_Tables_number       1
_symmetry_cell_setting            triclinic
loop_
_symmetry_equiv_pos_as_xyz
'x, y, z'
_cell_length_a     16.894213
_cell_length_b     108.03177
_cell_length_c     56.919428
_cell_angle_alpha  90.005352
_cell_angle_beta   90.000676
_cell_angle_gamma 89.959204
loop_
_atom_site_label
_atom_site_type_symbol
_atom_site_fract_x
_atom_site_fract_y
_atom_site_fract_z
_atom_type_partial_charge
C0 C 0.38226 0.0445 0.01572 0.0
C1 C 0.25554 0.08563 0.01529 0.0
O2 O 0.30938 0.04486 0.00975 0.0
Zn3 Zn 0.21516 0.05733 1.0041 0.0
O4 O 0.41927 0.05452 0.02034 0.0
Zn5 Zn 0.32813 0.06556 0.01542 0.0
O6 O 0.25371 0.05925 0.04267 0.0
O7 O 0.14228 0.05146 0.02868 0.0
O8 O 0.3282 0.0836 0.01995 0.0
O9 O 0.21104 0.07659 0.0093 0.0
O10 O 0.2002 0.05537 0.96985 0.0
O11 O 0.31615 0.0634 0.979 0.0
C12 C 0.18684 0.05402 0.04613 0.0
C13 C 0.26793 0.05938 0.9635 0.0
C14 C 0.86838 0.2104 0.01285 0.0
C15 C 0.99531 0.16929 0.01287 0.0
O16 O 0.94113 0.21001 0.00677 0.0
Zn17 Zn 0.03542 0.19754 1.00121 0.0
O18 O 0.8315 0.20039 0.01765 0.0
Zn19 Zn 0.92258 0.18935 0.0126 0.0
O20 O 0.99697 0.19577 0.03977 0.0
O21 O 0.10829 0.20355 0.02569 0.0
O22 O 0.92263 0.17134 0.01746 0.0
O23 O 0.0398 0.1783 0.0067 0.0
O24 O 0.05039 0.19945 0.96701 0.0
O25 O 0.93441 0.19142 0.9761 0.0
C26 C 0.06372 0.20104 0.04317 0.0
C27 C 0.98275 0.19544 0.96063 0.0
C28 C 0.18498 0.2019 0.21362 0.0
C29 C 0.26352 0.19643 0.29643 0.0
O30 O 0.25133 0.19653 0.21725 0.0
Zn31 Zn 0.32448 0.19006 0.24468 0.0
O32 O 0.14016 0.20457 0.23096 0.0
Zn33 Zn 0.21184 0.19856 0.25573 0.0
O34 O 0.30725 0.21081 0.25026 0.0
O35 O 0.41679 0.2009 0.24005 0.0
O36 O 0.19627 0.20059 0.28996 0.0
O37 O 0.31165 0.19228 0.28103 0.0
O38 O 0.32297 0.17201 0.2402 0.0
O39 O 0.2062 0.17931 0.25056 0.0
C40 C 0.38035 0.211 0.24453 0.0
C41 C 0.25 0.17017 0.24468 0.0
C42 C 0.99498 0.08614 0.24632 0.0
C43 C 0.86558 0.04521 0.24696 0.0
O44 O 0.03875 0.07707 0.25261 0.0
Zn45 Zn 0.03335 0.05786 0.25831 0.0
O46 O 0.92218 0.08423 0.24169 0.0
Zn47 Zn 0.92093 0.06621 0.24673 0.0
O48 O 0.93264 0.06428 0.28325 0.0
O49 O 0.04807 0.0561 0.29256 0.0
O50 O 0.82929 0.05525 0.2419 0.0
O51 O 0.93837 0.04553 0.25301 0.0
O52 O 0.10597 0.05169 0.2339 0.0
O53 O 0.99513 0.0596 0.21969 0.0
C54 C 0.98062 0.06026 0.29883 0.0
C55 C 0.06167 0.05423 0.21637 0.0
C56 C 0.73018 0.94564 0.04663 0.0
C57 C 0.80859 0.95151 0.96391 0.0
O58 O 0.79724 0.94987 0.04018 0.0
Zn59 Zn 0.78194 0.94793 1.00595 0.0
O60 O 0.68219 0.94149 0.0312 0.0
Zn61 Zn 0.66974 0.93937 0.99478 0.0
O62 O 0.67224 0.92133 0.98999 0.0
O63 O 0.78861 0.92871 1.00049 0.0
O64 O 0.74255 0.94604 0.96744 0.0
O65 O 0.8534 0.95412 0.98128 0.0
O66 O 0.68601 0.96009 1.00055 0.0
O67 O 0.57699 0.95014 0.99012 0.0
C68 C 0.74529 0.91955 0.99445 0.0
C69 C 0.613 0.96025 0.99472 0.0
C70 C 0.94144 0.80388 0.96307 0.0
C71 C 0.02164 0.80968 0.04561 0.0
O72 O 0.89694 0.80126 0.98051 0.0
Zn73 Zn 0.96889 0.80744 1.00505 0.0
O74 O 0.00755 0.80935 0.96649 0.0
Zn75 Zn 0.0809 0.81601 0.99368 0.0
O76 O 0.1736 0.80525 0.98889 0.0
O77 O 0.06475 0.79528 0.99943 0.0
O78 O 0.0692 0.81385 0.03008 0.0
O79 O 0.95437 0.80547 0.03933 0.0
O80 O 0.96209 0.82666 0.99969 0.0
O81 O 0.07822 0.83406 0.989 0.0
C82 C 0.13767 0.79513 0.99349 0.0
C83 C 0.00526 0.83583 0.99362 0.0
C84 C 0.81056 0.80419 0.79354 0.0
C85 C 0.72834 0.81001 0.71119 0.0
O86 O 0.8548 0.80163 0.77601 0.0
Zn87 Zn 0.78196 0.80778 0.75165 0.0
O88 O 0.7442 0.80962 0.79027 0.0
Zn89 Zn 0.6699 0.81624 0.76326 0.0
O90 O 0.57798 0.80538 0.76841 0.0
O91 O 0.68685 0.79553 0.75747 0.0
O92 O 0.68077 0.81413 0.72678 0.0
O93 O 0.79585 0.80585 0.71739 0.0
O94 O 0.78813 0.827 0.75713 0.0
O95 O 0.67191 0.83428 0.76808 0.0
C96 C 0.6142 0.7953 0.76368 0.0
C97 C 0.7447 0.83612 0.76336 0.0
C98 C 0.13238 0.96085 0.76304 0.0
C99 C 0.00149 0.92003 0.76366 0.0
O100 O 0.16843 0.95077 0.76795 0.0
Zn101 Zn 0.07623 0.93991 0.76329 0.0
O102 O 0.0594 0.9606 0.75717 0.0
Zn103 Zn 0.96377 0.94836 0.75203 0.0
O104 O 0.89205 0.95455 0.77667 0.0
O105 O 0.00317 0.94657 0.79056 0.0
O106 O 0.95785 0.92915 0.75756 0.0
O107 O 0.07444 0.92187 0.76816 0.0
O108 O 0.0637 0.94194 0.72683 0.0
O109 O 0.9483 0.95022 0.7178 0.0
C110 C 0.93692 0.95199 0.79406 0.0
C111 C 0.01552 0.94603 0.71138 0.0
C112 C 0.18668 0.55491 0.5473 0.0
C113 C 0.26668 0.56112 0.46484 0.0
O114 O 0.25293 0.56035 0.54396 0.0
Zn115 Zn 0.32639 0.5671 0.5169 0.0
O116 O 0.14207 0.55241 0.52982 0.0
Zn117 Zn 0.21414 0.55868 0.50537 0.0
O118 O 0.30971 0.54643 0.51061 0.0
O119 O 0.41869 0.55623 0.52152 0.0
O120 O 0.19943 0.55689 0.47109 0.0
O121 O 0.31442 0.56519 0.48043 0.0
O122 O 0.32432 0.58511 0.522 0.0
O123 O 0.20796 0.57787 0.51113 0.0
C124 C 0.3826 0.54617 0.51657 0.0
C125 C 0.25143 0.58697 0.51741 0.0
C126 C 0.99435 0.67088 0.51802 0.0
C127 C 0.86454 0.71177 0.51813 0.0
O128 O 0.03786 0.67998 0.51175 0.0
Zn129 Zn 0.03214 0.69919 0.5062 0.0
O130 O 0.9216 0.67276 0.52276 0.0
Zn131 Zn 0.91995 0.6908 0.51793 0.0
O132 O 0.93068 0.69285 0.48149 0.0
O133 O 0.04581 0.70101 0.47186 0.0
O134 O 0.82816 0.70172 0.5229 0.0
O135 O 0.93727 0.71152 0.512 0.0
O136 O 0.10534 0.70527 0.53051 0.0
O137 O 0.99471 0.69737 0.54487 0.0
C138 C 0.97808 0.69689 0.46579 0.0
C139 C 0.06131 0.70272 0.54809 0.0
C140 C 0.266 0.69601 0.80088 0.0
C141 C 0.18536 0.70149 0.71827 0.0
O142 O 0.31424 0.69194 0.78543 0.0
Zn143 Zn 0.3262 0.68978 0.74898 0.0
O144 O 0.19844 0.70007 0.79447 0.0
Zn145 Zn 0.21339 0.69807 0.76027 0.0
O146 O 0.20876 0.67881 0.75497 0.0
O147 O 0.32583 0.67174 0.74431 0.0
O148 O 0.14078 0.70406 0.73572 0.0
O149 O 0.25199 0.69617 0.72174 0.0
O150 O 0.41749 0.70078 0.74396 0.0
O151 O 0.30777 0.71048 0.75462 0.0
C152 C 0.25312 0.66976 0.74892 0.0
C153 C 0.38058 0.71082 0.74858 0.0
C154 C 0.99172 0.5862 0.74823 0.0
C155 C 0.86398 0.54516 0.74829 0.0
O156 O 0.03628 0.57714 0.75406 0.0
Zn157 Zn 0.03192 0.55787 0.75923 0.0
O158 O 0.91883 0.58423 0.74384 0.0
Zn159 Zn 0.9186 0.56618 0.74838 0.0
O160 O 0.93227 0.56399 0.78474 0.0
O161 O 0.04844 0.55586 0.79339 0.0
O162 O 0.82695 0.55521 0.74381 0.0
O163 O 0.93712 0.54547 0.75396 0.0
O164 O 0.10349 0.55194 0.73436 0.0
O165 O 0.99148 0.55979 0.72083 0.0
C166 C 0.9811 0.55991 0.80002 0.0
C167 C 0.05805 0.55451 0.7171 0.0
C168 C 0.80278 0.45167 0.46533 0.0
C169 C 0.7261 0.44676 0.54874 0.0
O170 O 0.84844 0.45431 0.4825 0.0
Zn171 Zn 0.77705 0.44861 0.50775 0.0
O172 O 0.73605 0.4465 0.4693 0.0
Zn173 Zn 0.66339 0.44034 0.49712 0.0
O174 O 0.57204 0.45138 0.49249 0.0
O175 O 0.68246 0.46104 0.50249 0.0
O176 O 0.67719 0.44267 0.5335 0.0
O177 O 0.79353 0.45073 0.54201 0.0
O178 O 0.78072 0.42932 0.50293 0.0
O179 O 0.66303 0.42226 0.49294 0.0
C180 C 0.60923 0.4614 0.49691 0.0
C181 C 0.73591 0.42026 0.49731 0.0
C182 C 0.01454 0.31101 0.55326 0.0
C183 C 0.92652 0.30473 0.4715 0.0
O184 O 0.94699 0.30672 0.54744 0.0
Zn185 Zn 0.95858 0.30848 0.51313 0.0
O186 O 0.06127 0.31498 0.53731 0.0
Zn187 Zn 0.07024 0.31664 0.50067 0.0
O188 O 0.06948 0.33461 0.49523 0.0
O189 O 0.95353 0.32771 0.50723 0.0
O190 O 0.99358 0.31002 0.47425 0.0
O191 O 0.88347 0.30234 0.48936 0.0
O192 O 0.0524 0.296 0.50722 0.0
O193 O 0.16101 0.30554 0.49532 0.0
C194 C 0.99727 0.33667 0.50041 0.0
C195 C 0.12465 0.29557 0.50066 0.0
C196 C 0.73386 0.336 0.26865 0.0
C197 C 0.60413 0.29514 0.27016 0.0
O198 O 0.66086 0.33418 0.27311 0.0
Zn199 Zn 0.65994 0.31607 0.26946 0.0
O200 O 0.77803 0.32681 0.26333 0.0
Zn201 Zn 0.77288 0.30749 0.25904 0.0
O202 O 0.78975 0.30509 0.22496 0.0
O203 O 0.67398 0.31347 0.23321 0.0
O204 O 0.67743 0.29528 0.26466 0.0
O205 O 0.56754 0.30527 0.2742 0.0
O206 O 0.73243 0.30996 0.29738 0.0
O207 O 0.84381 0.30176 0.28419 0.0
C208 C 0.7227 0.30916 0.21813 0.0
C209 C 0.79874 0.30464 0.30135 0.0
C210 C 0.92617 0.45189 0.29426 0.0
C211 C 0.99309 0.44576 0.21045 0.0
O212 O 0.87986 0.4547 0.27735 0.0
Zn213 Zn 0.94844 0.44865 0.25173 0.0
O214 O 0.99186 0.44646 0.28992 0.0
Zn215 Zn 0.0615 0.43994 0.26166 0.0
O216 O 0.15481 0.45079 0.265 0.0
O217 O 0.04448 0.4607 0.25601 0.0
O218 O 0.04253 0.44137 0.22525 0.0
O219 O 0.92972 0.45092 0.21771 0.0
O220 O 0.94276 0.42931 0.25697 0.0
O221 O 0.06016 0.42199 0.26685 0.0
C222 C 0.11821 0.4609 0.26087 0.0
C223 C 0.98687 0.42017 0.26276 0.0
C224 C 0.68746 0.0547 0.54621 0.0
C225 C 0.76622 0.06041 0.46347 0.0
O226 O 0.75409 0.05999 0.54267 0.0
Zn227 Zn 0.8276 0.06644 0.51535 0.0
O228 O 0.64253 0.05218 0.52882 0.0
Zn229 Zn 0.71452 0.05821 0.50414 0.0
O230 O 0.80926 0.04577 0.50926 0.0
O231 O 0.91908 0.05541 0.51991 0.0
O232 O 0.69872 0.05635 0.46991 0.0
O233 O 0.8147 0.06442 0.47891 0.0
O234 O 0.82739 0.08447 0.52011 0.0
O235 O 0.71012 0.07746 0.50958 0.0
C236 C 0.88229 0.0454 0.51505 0.0
C237 C 0.75461 0.08649 0.5156 0.0
C238 C 0.49423 0.17015 0.51346 0.0
C239 C 0.36821 0.21136 0.51299 0.0
O240 O 0.5386 0.1791 0.50696 0.0
Zn241 Zn 0.53451 0.19832 0.50113 0.0
O242 O 0.42177 0.17225 0.51827 0.0
Zn243 Zn 0.42192 0.19025 0.51307 0.0
O244 O 0.43246 0.1921 0.47648 0.0
O245 O 0.54828 0.20001 0.46686 0.0
O246 O 0.33138 0.2014 0.51819 0.0
O247 O 0.44073 0.21088 0.50669 0.0
O248 O 0.6086 0.20436 0.52524 0.0
O249 O 0.49757 0.19675 0.53985 0.0
C250 C 0.48034 0.19599 0.46077 0.0
C251 C 0.56467 0.20197 0.54292 0.0
C252 C 0.69143 0.20181 0.71302 0.0
C253 C 0.77014 0.19644 0.79583 0.0
O254 O 0.75758 0.19637 0.71663 0.0
Zn255 Zn 0.83071 0.18991 0.7441 0.0
O256 O 0.64696 0.20457 0.73039 0.0
Zn257 Zn 0.7186 0.19853 0.75512 0.0
O258 O 0.81449 0.21068 0.74952 0.0
O259 O 0.9234 0.20064 0.73926 0.0
O260 O 0.70306 0.20064 0.78931 0.0
O261 O 0.81821 0.19222 0.78048 0.0
O262 O 0.82862 0.17184 0.73977 0.0
O263 O 0.71213 0.17926 0.75013 0.0
C264 C 0.88753 0.21078 0.74371 0.0
C265 C 0.75563 0.17007 0.74432 0.0
C266 C 0.36882 0.04528 0.74711 0.0
C267 C 0.49912 0.08613 0.74675 0.0
O268 O 0.44163 0.04554 0.75315 0.0
Zn269 Zn 0.53691 0.05781 0.75855 0.0
O270 O 0.33279 0.05534 0.74214 0.0
Zn271 Zn 0.4247 0.06623 0.74704 0.0
O272 O 0.49868 0.05963 0.71994 0.0
O273 O 0.6094 0.05165 0.73409 0.0
O274 O 0.4263 0.08426 0.74212 0.0
O275 O 0.54274 0.07703 0.75298 0.0
O276 O 0.55153 0.05594 0.79279 0.0
O277 O 0.43632 0.06422 0.78354 0.0
C278 C 0.5651 0.05423 0.71658 0.0
C279 C 0.48417 0.06013 0.79909 0.0
C280 C 0.3064 0.95171 0.4638 0.0
C281 C 0.22843 0.94587 0.54657 0.0
O282 O 0.35144 0.95426 0.48115 0.0
Zn283 Zn 0.27984 0.94816 0.50587 0.0
O284 O 0.24002 0.94635 0.46737 0.0
Zn285 Zn 0.16705 0.93978 0.49472 0.0
O286 O 0.07498 0.95071 0.49021 0.0
O287 O 0.18448 0.96046 0.50079 0.0
O288 O 0.18006 0.94181 0.53115 0.0
O289 O 0.29567 0.95002 0.5401 0.0
O290 O 0.28522 0.92893 0.50038 0.0
O291 O 0.1684 0.92174 0.48987 0.0
C292 C 0.11141 0.96076 0.49504 0.0
C293 C 0.24134 0.91984 0.49433 0.0
C294 C 0.4469 0.80494 0.46254 0.0
C295 C 0.52488 0.81047 0.54535 0.0
O296 O 0.40203 0.80227 0.47986 0.0
Zn297 Zn 0.47325 0.80838 0.50465 0.0
O298 O 0.51291 0.8104 0.46618 0.0
Zn299 Zn 0.58553 0.81697 0.49364 0.0
O300 O 0.67839 0.80622 0.48899 0.0
O301 O 0.56922 0.79623 0.49915 0.0
O302 O 0.57284 0.8147 0.52999 0.0
O303 O 0.45778 0.80628 0.53885 0.0
O304 O 0.46668 0.82764 0.49951 0.0
O305 O 0.58321 0.83501 0.48915 0.0
C306 C 0.64232 0.7961 0.49341 0.0
C307 C 0.51019 0.83681 0.49364 0.0
C308 C 0.31339 0.80405 0.29312 0.0
C309 C 0.22891 0.81016 0.21104 0.0
O310 O 0.35746 0.80169 0.27545 0.0
Zn311 Zn 0.28337 0.80777 0.25136 0.0
O312 O 0.24635 0.8093 0.29009 0.0
Zn313 Zn 0.17084 0.8159 0.26336 0.0
O314 O 0.08009 0.8048 0.2684 0.0
O315 O 0.18947 0.79525 0.25697 0.0
O316 O 0.18128 0.81407 0.22682 0.0
O317 O 0.29684 0.80608 0.21705 0.0
O318 O 0.28773 0.82698 0.25721 0.0
O319 O 0.17108 0.8339 0.26859 0.0
C320 C 0.11692 0.79482 0.26327 0.0
C321 C 0.24354 0.83596 0.26374 0.0
C322 C 0.63248 0.96055 0.26298 0.0
C323 C 0.50489 0.91948 0.26395 0.0
O324 O 0.66922 0.95055 0.26801 0.0
Zn325 Zn 0.5779 0.93951 0.26341 0.0
O326 O 0.55954 0.96016 0.25709 0.0
Zn327 Zn 0.46488 0.94772 0.25204 0.0
O328 O 0.39259 0.95383 0.27661 0.0
O329 O 0.50424 0.94609 0.2906 0.0
O330 O 0.46046 0.92849 0.25775 0.0
O331 O 0.57764 0.9215 0.26845 0.0
O332 O 0.56536 0.94143 0.22691 0.0
O333 O 0.44935 0.94947 0.2178 0.0
C334 C 0.43755 0.95139 0.29404 0.0
C335 C 0.5169 0.94539 0.21142 0.0
C336 C 0.77085 0.56019 0.96506 0.0
C337 C 0.69083 0.55491 0.04773 0.0
O338 O 0.81899 0.56437 0.98043 0.0
Zn339 Zn 0.83089 0.56668 0.01685 0.0
O340 O 0.70352 0.55609 0.97155 0.0
Zn341 Zn 0.7185 0.55823 1.00571 0.0
O342 O 0.71279 0.5775 0.01076 0.0
O343 O 0.8295 0.58473 0.0213 0.0
O344 O 0.64621 0.55225 0.03034 0.0
O345 O 0.75716 0.56029 0.04418 0.0
O346 O 0.92275 0.55581 0.02207 0.0
O347 O 0.81357 0.54594 0.01157 0.0
C348 C 0.75666 0.58662 0.0167 0.0
C349 C 0.88636 0.54571 0.01764 0.0
C350 C 0.36146 0.71083 0.01764 0.0
C351 C 0.49079 0.66989 0.01728 0.0
O352 O 0.43458 0.71059 0.01194 0.0
Zn353 Zn 0.52972 0.69828 0.00645 0.0
O354 O 0.32477 0.70075 0.02202 0.0
Zn355 Zn 0.41686 0.68985 0.01735 0.0
O356 O 0.48996 0.6962 0.04489 0.0
O357 O 0.60128 0.70422 0.03129 0.0
O358 O 0.41785 0.67179 0.02173 0.0
O359 O 0.53491 0.67901 0.01149 0.0
O360 O 0.54569 0.70037 0.97227 0.0
O361 O 0.43002 0.69212 0.981 0.0
C362 C 0.55635 0.70154 0.04859 0.0
C363 C 0.47844 0.69627 0.96569 0.0
C364 C 0.76705 0.69534 0.30078 0.0
C365 C 0.6814 0.70139 0.21876 0.0
O366 O 0.81431 0.69137 0.28496 0.0
Zn367 Zn 0.82411 0.68949 0.2484 0.0
O368 O 0.69916 0.69946 0.29483 0.0
Zn369 Zn 0.71197 0.69769 0.2605 0.0
O370 O 0.70701 0.67848 0.2547 0.0
O371 O 0.8234 0.67149 0.24323 0.0
O372 O 0.63774 0.70382 0.23648 0.0
O373 O 0.7483 0.69608 0.22174 0.0
O374 O 0.91505 0.70053 0.24317 0.0
O375 O 0.80605 0.71015 0.2547 0.0
C376 C 0.75094 0.66947 0.24814 0.0
C377 C 0.87849 0.71053 0.24829 0.0
C378 C 0.4879 0.58607 0.24692 0.0
C379 C 0.36057 0.54499 0.24671 0.0
O380 O 0.53195 0.57705 0.2533 0.0
Zn381 Zn 0.52718 0.55783 0.25893 0.0
O382 O 0.41538 0.58407 0.24207 0.0
Zn383 Zn 0.41482 0.56604 0.24703 0.0
O384 O 0.42504 0.56405 0.28354 0.0
O385 O 0.54068 0.55605 0.29323 0.0
O386 O 0.32399 0.55501 0.24173 0.0
O387 O 0.43305 0.54535 0.25309 0.0
O388 O 0.60117 0.55178 0.23477 0.0
O389 O 0.49024 0.55952 0.22024 0.0
C390 C 0.47269 0.56009 0.29926 0.0
C391 C 0.55714 0.55423 0.21714 0.0
C392 C 0.24937 0.44624 0.05278 0.0
C393 C 0.31144 0.45139 0.96849 0.0
O394 O 0.3127 0.45115 0.04495 0.0
Zn395 Zn 0.29103 0.44865 0.01119 0.0
O396 O 0.1982 0.44187 0.03851 0.0
Zn397 Zn 0.17673 0.44016 1.00223 0.0
O398 O 0.17564 0.42217 0.99777 0.0
O399 O 0.29442 0.42925 0.0067 0.0
O400 O 0.2454 0.44619 0.97329 0.0
O401 O 0.35874 0.45426 0.98512 0.0
O402 O 0.19596 0.46094 0.00707 0.0
O403 O 0.08422 0.45118 0.99908 0.0
C404 C 0.24895 0.42017 1.00155 0.0
C405 C 0.12193 0.46125 1.00265 0.0
C406 C 0.51449 0.30969 0.05289 0.0
C407 C 0.43528 0.30462 0.97007 0.0
O408 O 0.44681 0.30577 0.04631 0.0
Zn409 Zn 0.46265 0.30785 0.01217 0.0
O410 O 0.56331 0.31373 0.03757 0.0
Zn411 Zn 0.57617 0.31597 1.00115 0.0
O412 O 0.57714 0.33402 0.99671 0.0
O413 O 0.45953 0.32713 0.00721 0.0
O414 O 0.50229 0.30976 0.9737 0.0
O415 O 0.38997 0.30212 0.98738 0.0
O416 O 0.55654 0.29529 0.00661 0.0
O417 O 0.66684 0.30485 0.99615 0.0
C418 C 0.50456 0.33612 1.00133 0.0
C419 C 0.62946 0.29486 1.0007 0.0
C420 C 0.31409 0.30429 0.79928 0.0
C421 C 0.24392 0.30835 0.71557 0.0
O422 O 0.36083 0.30141 0.78251 0.0
Zn423 Zn 0.29184 0.30701 0.75671 0.0
O424 O 0.24801 0.30954 0.79474 0.0
Zn425 Zn 0.17773 0.31553 0.76633 0.0
O426 O 0.0854 0.30469 0.77069 0.0
O427 O 0.19605 0.29474 0.76179 0.0
O428 O 0.19394 0.31263 0.7303 0.0
O429 O 0.31125 0.30455 0.7227 0.0
O430 O 0.29627 0.32632 0.76081 0.0
O431 O 0.17826 0.33367 0.76967 0.0
C432 C 0.12235 0.29456 0.76685 0.0
C433 C 0.25157 0.33551 0.76572 0.0
C434 C 0.50317 0.41988 0.76501 0.0
C435 C 0.63167 0.46085 0.76691 0.0
O436 O 0.57592 0.42177 0.76973 0.0
Zn437 Zn 0.57666 0.43987 0.76583 0.0
O438 O 0.45907 0.42904 0.75938 0.0
Zn439 Zn 0.46389 0.44834 0.755 0.0
O440 O 0.4489 0.4507 0.72077 0.0
O441 O 0.56455 0.44242 0.72943 0.0
O442 O 0.55869 0.46064 0.76103 0.0
O443 O 0.66836 0.45074 0.77109 0.0
O444 O 0.50302 0.44598 0.79352 0.0
O445 O 0.39144 0.45397 0.78004 0.0
C446 C 0.51633 0.44667 0.71414 0.0
C447 C 0.43629 0.4512 0.79732 0.0
H448 H 0.03916 0.04955 0.06538 0.0
H449 H 0.20943 0.04973 0.1972 0.0
H450 H 0.28752 0.05141 0.08283 0.0
H451 H 0.96099 0.05138 0.17976 0.0
H452 H 0.23955 0.04693 0.15526 0.0
H453 H 0.0091 0.04683 0.10733 0.0
C454 C 0.08723 0.04924 0.07795 0.0
C455 C 0.16565 0.05094 0.07066 0.0
C456 C 0.17839 0.04779 0.16071 0.0
C457 C 0.13223 0.04784 0.11847 0.0
C458 C 0.16136 0.04935 0.18463 0.0
C459 C 0.08289 0.05101 0.19191 0.0
C460 C 0.11638 0.04785 0.14412 0.0
C461 C 0.02262 0.05039 0.17489 0.0
C462 C 0.07023 0.04773 0.10188 0.0
C463 C 0.22592 0.0504 0.0877 0.0
N464 N 0.04063 0.04896 0.15184 0.0
N465 N 0.20794 0.049 0.11075 0.0
H466 H 0.03795 0.20644 0.19401 0.0
H467 H 0.21122 0.20552 0.06255 0.0
H468 H 0.28671 0.20436 0.17716 0.0
H469 H 0.96243 0.20402 0.07959 0.0
H470 H 0.2405 0.20852 0.1045 0.0
H471 H 0.00898 0.209 0.15196 0.0
C472 C 0.08634 0.20668 0.18154 0.0
C473 C 0.16454 0.20496 0.18903 0.0
C474 C 0.17945 0.20764 0.09895 0.0
C475 C 0.13237 0.20785 0.1411 0.0
C476 C 0.1629 0.20596 0.07503 0.0
C477 C 0.08457 0.20429 0.06764 0.0
C478 C 0.1171 0.20769 0.11543 0.0
C479 C 0.02397 0.205 0.08455 0.0
C480 C 0.06997 0.20809 0.15756 0.0
C481 C 0.22525 0.2054 0.17212 0.0
N482 N 0.04151 0.20655 0.1076 0.0
N483 N 0.20787 0.20669 0.14901 0.0
H484 H 0.03961 0.95567 0.82986 0.0
H485 H 0.70549 0.95492 0.92809 0.0
H486 H 0.78969 0.95572 0.81421 0.0
H487 H 0.95535 0.95569 0.94377 0.0
H488 H 0.7351 0.95784 0.88669 0.0
H489 H 0.00965 0.95833 0.87131 0.0
C490 C 0.97814 0.95633 0.83515 0.0
C491 C 0.91684 0.95526 0.81857 0.0
C492 C 0.7836 0.95749 0.89912 0.0
C493 C 0.88222 0.95827 0.86629 0.0
C494 C 0.76687 0.95578 0.92282 0.0
C495 C 0.82829 0.95484 0.9394 0.0
C496 C 0.86251 0.95817 0.89173 0.0
C497 C 0.90633 0.95628 0.93158 0.0
C498 C 0.96121 0.95788 0.85888 0.0
C499 C 0.83863 0.95642 0.82641 0.0
N500 N 0.92131 0.95771 0.9082 0.0
N501 N 0.82348 0.9577 0.84981 0.0
H502 H 0.70845 0.80028 0.82938 0.0
H503 H 0.04397 0.8003 0.92719 0.0
H504 H 0.95815 0.80037 0.81341 0.0
H505 H 0.79424 0.79992 0.9431 0.0
H506 H 0.01372 0.79754 0.88579 0.0
H507 H 0.73898 0.79736 0.87071 0.0
C508 C 0.77001 0.79961 0.83458 0.0
C509 C 0.83108 0.8008 0.81795 0.0
C510 C 0.96539 0.79794 0.89826 0.0
C511 C 0.86634 0.79747 0.86554 0.0
C512 C 0.98248 0.79956 0.92196 0.0
C513 C 0.92129 0.80057 0.9386 0.0
C514 C 0.88635 0.79742 0.89094 0.0
C515 C 0.84308 0.79927 0.93085 0.0
C516 C 0.78726 0.7979 0.85824 0.0
C517 C 0.9094 0.79958 0.82566 0.0
N518 N 0.82776 0.79793 0.90748 0.0
N519 N 0.92487 0.79815 0.84901 0.0
H520 H 0.2892 0.55091 0.583 0.0
H521 H 0.95493 0.55132 0.6812 0.0
H522 H 0.0393 0.5512 0.56732 0.0
H523 H 0.20482 0.55047 0.69687 0.0
H524 H 0.98456 0.54861 0.63976 0.0
H525 H 0.25911 0.54805 0.62439 0.0
C526 C 0.2277 0.55028 0.58828 0.0
C527 C 0.16645 0.55151 0.57171 0.0
C528 C 0.03306 0.5489 0.65219 0.0
C529 C 0.13169 0.54827 0.61936 0.0
C530 C 0.01633 0.55049 0.67592 0.0
C531 C 0.07775 0.55134 0.69251 0.0
C532 C 0.11197 0.54825 0.64479 0.0
C533 C 0.1558 0.54995 0.68466 0.0
C534 C 0.21069 0.54862 0.61197 0.0
C535 C 0.08819 0.55037 0.57952 0.0
N536 N 0.17078 0.54864 0.66126 0.0
N537 N 0.07298 0.54898 0.60289 0.0
H538 H 0.20969 0.70649 0.56735 0.0
H539 H 0.03851 0.70666 0.69903 0.0
H540 H 0.96089 0.70613 0.58455 0.0
H541 H 0.28656 0.70378 0.68163 0.0
H542 H 0.00923 0.70984 0.65714 0.0
H543 H 0.23999 0.70895 0.60935 0.0
C544 C 0.16162 0.7071 0.57988 0.0
C545 C 0.08292 0.70588 0.57253 0.0
C546 C 0.07014 0.70861 0.66259 0.0
C547 C 0.11658 0.70863 0.62038 0.0
C548 C 0.08669 0.70683 0.68648 0.0
C549 C 0.16473 0.70472 0.69377 0.0
C550 C 0.13221 0.70834 0.64603 0.0
C551 C 0.22517 0.7051 0.67677 0.0
C552 C 0.17873 0.70845 0.60384 0.0
C553 C 0.02264 0.70677 0.5895 0.0
N554 N 0.20761 0.70676 0.65375 0.0
N555 N 0.04071 0.70798 0.61259 0.0
H556 H 0.03078 0.45382 0.33022 0.0
H557 H 0.69951 0.45484 0.42943 0.0
H558 H 0.78097 0.45643 0.31517 0.0
H559 H 0.94969 0.45515 0.44468 0.0
H560 H 0.72866 0.45729 0.38788 0.0
H561 H 0.00268 0.45616 0.37188 0.0
C562 C 0.96976 0.45496 0.33567 0.0
C563 C 0.90787 0.45475 0.31914 0.0
C564 C 0.77735 0.45693 0.40024 0.0
C565 C 0.87539 0.45741 0.36716 0.0
C566 C 0.76088 0.45549 0.42404 0.0
C567 C 0.82245 0.4546 0.44059 0.0
C568 C 0.85618 0.45738 0.39268 0.0
C569 C 0.90051 0.45573 0.43255 0.0
C570 C 0.95391 0.45633 0.35954 0.0
C571 C 0.83037 0.45648 0.32728 0.0
N572 N 0.9152 0.45691 0.40909 0.0
N573 N 0.81623 0.45758 0.35078 0.0
H574 H 0.94411 0.2987 0.32072 0.0
H575 H 0.77672 0.30165 0.45277 0.0
H576 H 0.6979 0.304 0.33842 0.0
H577 H 0.02487 0.30034 0.43497 0.0
H578 H 0.74456 0.29903 0.41091 0.0
H579 H 0.97336 0.29593 0.36269 0.0
C580 C 0.89628 0.29917 0.33336 0.0
C581 C 0.81886 0.3018 0.32609 0.0
C582 C 0.80605 0.2992 0.41626 0.0
C583 C 0.85139 0.29862 0.37395 0.0
C584 C 0.82421 0.30063 0.44014 0.0
C585 C 0.90338 0.30143 0.44726 0.0
C586 C 0.86762 0.29849 0.39958 0.0
C587 C 0.96287 0.30002 0.43017 0.0
C588 C 0.91284 0.29761 0.3573 0.0
C589 C 0.75887 0.30223 0.34323 0.0
N590 N 0.94383 0.29873 0.40717 0.0
N591 N 0.77645 0.30075 0.3663 0.0
H592 H 0.5405 0.04987 0.56563 0.0
H593 H 0.71288 0.05001 0.6972 0.0
H594 H 0.78896 0.05223 0.58276 0.0
H595 H 0.46406 0.05119 0.68014 0.0
H596 H 0.74256 0.04736 0.6552 0.0
H597 H 0.51139 0.04693 0.60759 0.0
C598 C 0.5888 0.04963 0.57813 0.0
C599 C 0.66694 0.05152 0.57075 0.0
C600 C 0.68142 0.04809 0.66074 0.0
C601 C 0.63458 0.04818 0.61857 0.0
C602 C 0.66465 0.04955 0.6847 0.0
C603 C 0.58617 0.05104 0.6921 0.0
C604 C 0.61914 0.04806 0.64424 0.0
C605 C 0.52568 0.05033 0.67516 0.0
C606 C 0.57234 0.04799 0.60206 0.0
C607 C 0.72752 0.05106 0.5877 0.0
N608 N 0.54343 0.049 0.65208 0.0
N609 N 0.71005 0.04954 0.61076 0.0
H610 H 0.71362 0.20566 0.56185 0.0
H611 H 0.54491 0.20719 0.69381 0.0
H612 H 0.46518 0.20563 0.57953 0.0
H613 H 0.79235 0.20352 0.67617 0.0
H614 H 0.51523 0.21004 0.65188 0.0
H615 H 0.7449 0.20835 0.60374 0.0
C616 C 0.66584 0.20639 0.57447 0.0
C617 C 0.58693 0.2052 0.56728 0.0
C618 C 0.5761 0.20871 0.65728 0.0
C619 C 0.62173 0.20823 0.61501 0.0
C620 C 0.5929 0.20712 0.6812 0.0
C621 C 0.67085 0.20489 0.68844 0.0
C622 C 0.63784 0.20814 0.64064 0.0
C623 C 0.73103 0.20496 0.67134 0.0
C624 C 0.68352 0.20787 0.59836 0.0
C625 C 0.52706 0.20624 0.58435 0.0
N626 N 0.71322 0.20645 0.6483 0.0
N627 N 0.54566 0.20759 0.60737 0.0
H628 H 0.2039 0.95502 0.42778 0.0
H629 H 0.53968 0.95508 0.33 0.0
H630 H 0.45356 0.95567 0.44378 0.0
H631 H 0.29001 0.95518 0.31397 0.0
H632 H 0.50906 0.95789 0.37136 0.0
H633 H 0.23425 0.95768 0.38636 0.0
C634 C 0.26539 0.9558 0.42257 0.0
C635 C 0.32653 0.95491 0.43926 0.0
C636 C 0.46082 0.95742 0.35887 0.0
C637 C 0.36159 0.95793 0.39156 0.0
C638 C 0.47812 0.95577 0.33518 0.0
C639 C 0.41709 0.95468 0.31851 0.0
C640 C 0.38172 0.95788 0.36615 0.0
C641 C 0.33876 0.9559 0.32623 0.0
C642 C 0.28254 0.95736 0.39886 0.0
C643 C 0.40474 0.95623 0.4315 0.0
N644 N 0.32324 0.95727 0.34959 0.0
N645 N 0.42012 0.95751 0.40812 0.0
H646 H 0.54971 0.80241 0.42635 0.0
H647 H 0.21314 0.79928 0.32902 0.0
H648 H 0.30071 0.79998 0.44268 0.0
H649 H 0.46223 0.8013 0.31273 0.0
H650 H 0.24518 0.79676 0.37038 0.0
H651 H 0.51968 0.79934 0.38504 0.0
C652 C 0.48843 0.80117 0.42125 0.0
C653 C 0.42731 0.80168 0.43799 0.0
C654 C 0.29303 0.79763 0.35783 0.0
C655 C 0.39265 0.79815 0.3904 0.0
C656 C 0.2749 0.7991 0.33416 0.0
C657 C 0.33527 0.80072 0.31744 0.0
C658 C 0.37225 0.79789 0.36502 0.0
C659 C 0.41399 0.80015 0.32505 0.0
C660 C 0.4715 0.79937 0.39759 0.0
C661 C 0.34949 0.79975 0.43035 0.0
N662 N 0.43024 0.79895 0.3484 0.0
N663 N 0.33424 0.79823 0.40702 0.0
H664 H 0.79328 0.55202 0.08388 0.0
H665 H 0.45645 0.54976 0.18121 0.0
H666 H 0.54403 0.55035 0.06755 0.0
H667 H 0.70573 0.5512 0.19748 0.0
H668 H 0.4882 0.54719 0.13985 0.0
H669 H 0.76291 0.54902 0.12519 0.0
C670 C 0.73186 0.55097 0.08899 0.0
C671 C 0.6708 0.55167 0.07225 0.0
C672 C 0.53614 0.54794 0.1524 0.0
C673 C 0.63575 0.54822 0.11982 0.0
C674 C 0.51818 0.54944 0.17607 0.0
C675 C 0.57872 0.55091 0.19278 0.0
C676 C 0.61537 0.54801 0.1452 0.0
C677 C 0.65737 0.55017 0.18516 0.0
C678 C 0.71473 0.5492 0.11264 0.0
C679 C 0.59276 0.54996 0.07987 0.0
N680 N 0.67347 0.54894 0.16182 0.0
N681 N 0.57735 0.54847 0.10321 0.0
H682 H 0.53249 0.70508 0.19975 0.0
H683 H 0.7027 0.70681 0.06799 0.0
H684 H 0.78111 0.70525 0.18232 0.0
H685 H 0.45498 0.70328 0.08535 0.0
H686 H 0.73186 0.70963 0.10996 0.0
H687 H 0.50157 0.70786 0.15785 0.0
C688 C 0.58037 0.70587 0.18719 0.0
C689 C 0.65924 0.7047 0.19443 0.0
C690 C 0.67105 0.70834 0.10449 0.0
C691 C 0.62488 0.70784 0.14671 0.0
C692 C 0.65455 0.70676 0.08055 0.0
C693 C 0.57666 0.70458 0.07321 0.0
C694 C 0.60909 0.70778 0.12106 0.0
C695 C 0.51626 0.70468 0.09024 0.0
C696 C 0.56291 0.70741 0.16329 0.0
C697 C 0.71926 0.70584 0.17744 0.0
N698 N 0.53378 0.70614 0.11331 0.0
N699 N 0.70088 0.70723 0.15442 0.0
H700 H 0.53851 0.45472 0.83332 0.0
H701 H 0.20681 0.45217 0.93228 0.0
H702 H 0.28858 0.45416 0.81777 0.0
H703 H 0.45559 0.45645 0.94746 0.0
H704 H 0.23474 0.45443 0.89059 0.0
H705 H 0.50844 0.45699 0.87485 0.0
C706 C 0.477 0.45515 0.83865 0.0
C707 C 0.41581 0.45407 0.82203 0.0
C708 C 0.28328 0.45498 0.90297 0.0
C709 C 0.381 0.45662 0.8699 0.0
C710 C 0.26755 0.45364 0.92686 0.0
C711 C 0.32925 0.45395 0.94345 0.0
C712 C 0.36151 0.45655 0.8954 0.0
C713 C 0.40634 0.45609 0.93532 0.0
C714 C 0.45998 0.45648 0.86244 0.0
C715 C 0.33748 0.45491 0.82997 0.0
N716 N 0.4204 0.45717 0.91182 0.0
N717 N 0.32227 0.45597 0.85342 0.0
H718 H 0.20881 0.30295 0.83513 0.0
H719 H 0.53812 0.30015 0.93466 0.0
H720 H 0.45837 0.29929 0.82038 0.0
H721 H 0.28788 0.30195 0.94944 0.0
H722 H 0.50905 0.29761 0.89312 0.0
H723 H 0.23579 0.30048 0.87676 0.0
C724 C 0.26957 0.30157 0.84064 0.0
C725 C 0.33176 0.30153 0.8242 0.0
C726 C 0.4603 0.29845 0.90538 0.0
C727 C 0.3629 0.29868 0.8722 0.0
C728 C 0.47674 0.29993 0.92915 0.0
C729 C 0.41517 0.30147 0.94552 0.0
C730 C 0.38157 0.2986 0.8977 0.0
C731 C 0.33701 0.30086 0.93741 0.0
C732 C 0.28475 0.30011 0.86449 0.0
C733 C 0.4088 0.29947 0.83242 0.0
N734 N 0.32242 0.29964 0.91397 0.0
N735 N 0.42233 0.29827 0.85592 0.0
H736 H 0.31168 0.02266 0.02523 0.0
H737 H 0.68118 0.98211 0.98412 0.0
H738 H 0.53728 0.03834 1.00594 0.0
H739 H 0.45822 0.96623 1.00541 0.0
H740 H 0.62772 1.00272 0.99073 0.0
H741 H 0.36463 1.002 0.01862 0.0
C742 C 0.37296 0.02172 0.01988 0.0
C743 C 0.42026 0.03222 0.01601 0.0
C744 C 0.59008 0.99478 0.99382 0.0
C745 C 0.48083 0.00853 0.00802 0.0
C746 C 0.62032 0.98299 0.98992 0.0
C747 C 0.57398 0.97245 0.99435 0.0
C748 C 0.51281 0.9961 1.00235 0.0
C749 C 0.49561 0.97412 1.00165 0.0
C750 C 0.40292 0.00991 0.01599 0.0
C751 C 0.49911 0.03048 0.00925 0.0
N752 N 0.46758 0.98576 1.00564 0.0
N753 N 0.52682 0.01883 1.00525 0.0
H754 H 0.55523 0.27286 0.99541 0.0
H755 H 0.9422 0.23241 0.0183 0.0
H756 H 0.78761 0.28867 1.00493 0.0
H757 H 0.71009 0.21654 0.00855 0.0
H758 H 0.88606 0.25298 0.01418 0.0
H759 H 0.6112 0.25227 0.99954 0.0
C760 C 0.61842 0.27199 0.99822 0.0
C761 C 0.66691 0.28252 1.00002 0.0
C762 C 0.84714 0.24505 0.01302 0.0
C763 C 0.73127 0.25884 1.00496 0.0
C764 C 0.87901 0.23326 0.01544 0.0
C765 C 0.83066 0.22272 0.01357 0.0
C766 C 0.76609 0.24639 0.00864 0.0
C767 C 0.74933 0.22441 0.01015 0.0
C768 C 0.6502 0.2602 1.00064 0.0
C769 C 0.74825 0.28081 1.00339 0.0
N770 N 0.71958 0.23606 0.00762 0.0
N771 N 0.77789 0.26916 1.00592 0.0
H772 H 0.3141 0.23277 0.23227 0.0
H773 H 0.66994 0.27337 0.2827 0.0
H774 H 0.53235 0.21703 0.25786 0.0
H775 H 0.45225 0.28912 0.25672 0.0
H776 H 0.61894 0.25271 0.27484 0.0
H777 H 0.365 0.25343 0.24018 0.0
C778 C 0.37355 0.2337 0.23921 0.0
C779 C 0.41923 0.22319 0.24447 0.0
C780 C 0.58184 0.26064 0.27104 0.0
C781 C 0.47719 0.24686 0.25408 0.0
C782 C 0.61058 0.27244 0.27569 0.0
C783 C 0.56511 0.28295 0.2703 0.0
C784 C 0.50705 0.25928 0.26075 0.0
C785 C 0.4888 0.28125 0.26131 0.0
C786 C 0.40225 0.2455 0.24389 0.0
C787 C 0.49565 0.2249 0.25337 0.0
N788 N 0.46235 0.2696 0.25658 0.0
N789 N 0.52205 0.23655 0.25813 0.0
H790 H 0.79139 0.96633 0.25942 0.0
H791 H 0.70656 0.03949 0.25061 0.0
H792 H 0.55949 0.98279 0.26602 0.0
H793 H 0.93807 0.02297 0.24344 0.0
H794 H 0.65038 0.01867 0.25555 0.0
H795 H 0.84735 0.98715 0.25437 0.0
C796 C 0.75257 0.97431 0.26011 0.0
C797 C 0.67082 0.97283 0.26296 0.0
C798 C 0.71348 0.01963 0.25278 0.0
C799 C 0.73356 0.99656 0.25688 0.0
C800 C 0.74523 0.0315 0.24976 0.0
C801 C 0.82696 0.03296 0.24681 0.0
C802 C 0.764 0.00924 0.25277 0.0
C803 C 0.8747 0.02229 0.24598 0.0
C804 C 0.78421 0.98617 0.25702 0.0
C805 C 0.6229 0.98348 0.26358 0.0
N806 N 0.84264 0.01092 0.24906 0.0
N807 N 0.65486 0.99486 0.26046 0.0
H808 H 0.42861 0.73253 0.02979 0.0
H809 H 0.07161 0.77345 0.98083 0.0
H810 H 0.20919 0.71699 1.00475 0.0
H811 H 0.28991 0.78905 0.00656 0.0
H812 H 0.12277 0.75275 0.98828 0.0
H813 H 0.37777 0.75324 0.02223 0.0
C814 C 0.36895 0.73352 0.02303 0.0
C815 C 0.3229 0.72305 0.01782 0.0
C816 C 0.15997 0.76065 0.99213 0.0
C817 C 0.26498 0.74678 0.00864 0.0
C818 C 0.13113 0.77248 0.9877 0.0
C819 C 0.17674 0.78295 0.99315 0.0
C820 C 0.23501 0.75924 1.00223 0.0
C821 C 0.25326 0.7812 1.00195 0.0
C822 C 0.34027 0.74535 0.01856 0.0
C823 C 0.2462 0.72483 0.00918 0.0
N824 N 0.27983 0.76953 0.00645 0.0
N825 N 0.21982 0.7365 1.00463 0.0
H826 H 0.68559 0.77347 0.77273 0.0
H827 H 0.3082 0.73266 0.74018 0.0
H828 H 0.45759 0.78916 0.75594 0.0
H829 H 0.53713 0.71704 0.75609 0.0
H830 H 0.36231 0.75333 0.74527 0.0
H831 H 0.63118 0.75281 0.76776 0.0
C832 C 0.62355 0.77255 0.76821 0.0
C833 C 0.57598 0.78305 0.76458 0.0
C834 C 0.40103 0.74543 0.74754 0.0
C835 C 0.51354 0.75933 0.75856 0.0
C836 C 0.37036 0.7336 0.74453 0.0
C837 C 0.41832 0.72311 0.74787 0.0
C838 C 0.4804 0.74685 0.75403 0.0
C839 C 0.49833 0.72487 0.75326 0.0
C840 C 0.59271 0.76073 0.76528 0.0
C841 C 0.49608 0.78131 0.759 0.0
N842 N 0.52682 0.73655 0.75638 0.0
N843 N 0.46742 0.76964 0.75595 0.0
H844 H 0.29149 0.96641 0.75893 0.0
H845 H 0.20971 0.03968 0.75094 0.0
H846 H 0.06094 0.98316 0.76686 0.0
H847 H 0.4405 0.02297 0.74335 0.0
H848 H 0.15288 0.01891 0.75589 0.0
H849 H 0.34837 0.98718 0.75388 0.0
C850 C 0.25319 0.97444 0.75992 0.0
C851 C 0.17151 0.97306 0.76313 0.0
C852 C 0.21597 0.01982 0.75303 0.0
C853 C 0.23525 0.99673 0.75704 0.0
C854 C 0.24808 0.03166 0.75 0.0
C855 C 0.3298 0.03305 0.74692 0.0
C856 C 0.26611 0.00938 0.7529 0.0
C857 C 0.37715 0.02234 0.74598 0.0
C858 C 0.28533 0.98627 0.75683 0.0
C859 C 0.12425 0.98378 0.76413 0.0
N860 N 0.34475 0.011 0.74907 0.0
N861 N 0.15667 0.99512 0.76098 0.0
H862 H 0.45195 0.46728 0.50393 0.0
H863 H 0.54008 0.54041 0.50933 0.0
H864 H 0.68099 0.48351 0.49064 0.0
H865 H 0.31188 0.52405 0.5233 0.0
H866 H 0.59441 0.51953 0.50324 0.0
H867 H 0.39808 0.48817 0.51008 0.0
C868 C 0.49041 0.47523 0.50193 0.0
C869 C 0.57093 0.47368 0.49694 0.0
C870 C 0.53251 0.52054 0.50779 0.0
C871 C 0.51079 0.49747 0.50435 0.0
C872 C 0.50194 0.53244 0.5115 0.0
C873 C 0.42149 0.53394 0.51665 0.0
C874 C 0.48208 0.51017 0.50931 0.0
C875 C 0.37421 0.52331 0.51907 0.0
C876 C 0.46008 0.48713 0.50568 0.0
C877 C 0.61858 0.48429 0.49474 0.0
N878 N 0.40502 0.51191 0.51525 0.0
N879 N 0.58796 0.4957 0.49858 0.0
H880 H 0.57695 0.77442 0.48037 0.0
H881 H 0.93179 0.73343 0.53047 0.0
H882 H 0.7939 0.79001 0.50712 0.0
H883 H 0.71247 0.71798 0.50518 0.0
H884 H 0.88139 0.75417 0.52284 0.0
H885 H 0.62763 0.75372 0.48807 0.0
C886 C 0.6361 0.77345 0.48751 0.0
C887 C 0.68145 0.78392 0.49317 0.0
C888 C 0.8438 0.74629 0.51914 0.0
C889 C 0.73913 0.76021 0.50255 0.0
C890 C 0.87221 0.73445 0.52367 0.0
C891 C 0.82607 0.724 0.51841 0.0
C892 C 0.7687 0.74774 0.5091 0.0
C893 C 0.74952 0.7258 0.50967 0.0
C894 C 0.66465 0.76162 0.49209 0.0
C895 C 0.75749 0.78216 0.50233 0.0
N896 N 0.72342 0.73748 0.50505 0.0
N897 N 0.78376 0.77049 0.50696 0.0
H898 H 0.93462 0.52328 0.73906 0.0
H899 H 0.56174 0.48269 0.77693 0.0
H900 H 0.70848 0.53905 0.75767 0.0
H901 H 0.78726 0.46692 0.75769 0.0
H902 H 0.61566 0.50334 0.77112 0.0
H903 H 0.88105 0.50265 0.74519 0.0
C904 C 0.87313 0.52238 0.7442 0.0
C905 C 0.82586 0.5329 0.74799 0.0
C906 C 0.65372 0.4954 0.76831 0.0
C907 C 0.76446 0.50921 0.7554 0.0
C908 C 0.62319 0.4836 0.77174 0.0
C909 C 0.67016 0.47308 0.76765 0.0
C910 C 0.73192 0.49676 0.7606 0.0
C911 C 0.7493 0.47478 0.76115 0.0
C912 C 0.84279 0.51057 0.74781 0.0
C913 C 0.74668 0.53119 0.75444 0.0
N914 N 0.77759 0.48644 0.75761 0.0
N915 N 0.71854 0.51953 0.75815 0.0
H916 H 0.05049 0.27343 0.49779 0.0
H917 H 0.44257 0.23349 0.51565 0.0
H918 H 0.28371 0.28954 0.5027 0.0
H919 H 0.20924 0.21742 0.51086 0.0
H920 H 0.38523 0.25398 0.51151 0.0
H921 H 0.10793 0.25295 0.50187 0.0
C922 C 0.11416 0.27266 0.4996 0.0
C923 C 0.16248 0.28325 0.50009 0.0
C924 C 0.34634 0.24602 0.51143 0.0
C925 C 0.22861 0.25967 0.50494 0.0
C926 C 0.37892 0.23427 0.51385 0.0
C927 C 0.33052 0.22369 0.51341 0.0
C928 C 0.26451 0.24728 0.50849 0.0
C929 C 0.24861 0.22532 0.51132 0.0
C930 C 0.14679 0.26092 0.50198 0.0
C931 C 0.24441 0.28163 0.50218 0.0
N932 N 0.21813 0.23692 0.50878 0.0
N933 N 0.27494 0.27003 0.50469 0.0
H934 H 0.04715 0.48307 0.2672 0.0
H935 H 0.4339 0.52293 0.24104 0.0
H936 H 0.27629 0.46671 0.25432 0.0
H937 H 0.20234 0.53897 0.25113 0.0
H938 H 0.37732 0.50238 0.24532 0.0
H939 H 0.10403 0.50351 0.26223 0.0
C940 C 0.10988 0.48378 0.26345 0.0
C941 C 0.15708 0.47314 0.26099 0.0
C942 C 0.33863 0.51035 0.24648 0.0
C943 C 0.22255 0.49668 0.25509 0.0
C944 C 0.37074 0.52212 0.24399 0.0
C945 C 0.32267 0.5327 0.24592 0.0
C946 C 0.25766 0.50908 0.25106 0.0
C947 C 0.24138 0.53107 0.24947 0.0
C948 C 0.14217 0.4955 0.26054 0.0
C949 C 0.23792 0.47467 0.25643 0.0
N950 N 0.21144 0.51945 0.25213 0.0
N951 N 0.26812 0.48626 0.25346 0.0
H952 H 0.95349 0.96648 0.50158 0.0
H953 H 0.04019 0.03961 0.50887 0.0
H954 H 0.18251 0.98296 0.48941 0.0
H955 H 0.81041 0.02322 0.52023 0.0
H956 H 0.09488 0.01877 0.50272 0.0
H957 H 0.89856 0.98731 0.50774 0.0
C958 C 0.99175 0.97446 0.49984 0.0
C959 C 0.07256 0.973 0.49516 0.0
C960 C 0.03252 0.01976 0.50669 0.0
C961 C 0.01119 0.99672 0.50256 0.0
C962 C 0.00169 0.03163 0.51043 0.0
C963 C 0.92077 0.03313 0.51489 0.0
C964 C 0.9819 0.00939 0.5075 0.0
C965 C 0.87313 0.02249 0.51655 0.0
C966 C 0.96079 0.98633 0.50358 0.0
C967 C 0.1199 0.98366 0.49327 0.0
N968 N 0.90425 0.01111 0.51274 0.0
N969 N 0.08869 0.99503 0.4971 0.0
H970 H 0.82039 0.23277 0.73325 0.0
H971 H 0.18987 0.27253 0.77692 0.0
H972 H 0.04243 0.21652 0.7545 0.0
H973 H 0.96803 0.28877 0.75543 0.0
H974 H 0.13602 0.25201 0.76954 0.0
H975 H 0.87478 0.2533 0.74017 0.0
C976 C 0.88126 0.23355 0.73908 0.0
C977 C 0.92705 0.22294 0.74342 0.0
C978 C 0.09873 0.26002 0.76658 0.0
C979 C 0.98924 0.24648 0.7518 0.0
C980 C 0.12917 0.27175 0.77093 0.0
C981 C 0.08326 0.28237 0.7667 0.0
C982 C 0.02167 0.25883 0.75782 0.0
C983 C 0.00512 0.28082 0.75907 0.0
C984 C 0.91203 0.24529 0.74316 0.0
C985 C 0.00543 0.22448 0.75081 0.0
N986 N 0.97691 0.26924 0.75467 0.0
N987 N 0.03393 0.23606 0.755 0.0
H988 H 0.19072 0.77279 0.26851 0.0
H989 H 0.80503 0.73257 0.24272 0.0
H990 H 0.95887 0.78872 0.25841 0.0
H991 H 0.0366 0.7166 0.25318 0.0
H992 H 0.86092 0.75312 0.24756 0.0
H993 H 0.13495 0.75223 0.26357 0.0
C994 C 0.12765 0.77195 0.26542 0.0
C995 C 0.07928 0.78251 0.26369 0.0
C996 C 0.89979 0.74516 0.24871 0.0
C997 C 0.01516 0.75888 0.25778 0.0
C998 C 0.86807 0.7334 0.24586 0.0
C999 C 0.91631 0.72283 0.24773 0.0
C1000 C 0.98058 0.74646 0.25353 0.0
C1001 C 0.99747 0.72449 0.25154 0.0
C1002 C 0.096 0.76018 0.26253 0.0
C1003 C 0.99811 0.78084 0.25994 0.0
N1004 N 0.02705 0.73611 0.25451 0.0
N1005 N 0.96859 0.76921 0.25692 0.0
H1006 H 0.19312 0.48319 0.99423 0.0
H1007 H 0.81495 0.52388 0.02674 0.0
H1008 H 0.96573 0.4674 0.01137 0.0
H1009 H 0.04319 0.53957 0.01035 0.0
H1010 H 0.86995 0.50322 0.02224 0.0
H1011 H 0.1386 0.5038 0.99957 0.0
C1012 C 0.13124 0.48407 0.99896 0.0
C1013 C 0.08386 0.47354 1.00253 0.0
C1014 C 0.90833 0.51114 0.01976 0.0
C1015 C 0.02123 0.49725 0.00891 0.0
C1016 C 0.87715 0.52296 0.02241 0.0
C1017 C 0.92463 0.53346 0.01873 0.0
C1018 C 0.98773 0.50973 0.01327 0.0
C1019 C 0.00473 0.53172 0.0134 0.0
C1020 C 0.10033 0.49588 1.00209 0.0
C1021 C 0.00413 0.47526 0.00837 0.0
N1022 N 0.0337 0.52004 0.01062 0.0
N1023 N 0.97535 0.48693 0.01155 0.0
H1024 H 0.18195 0.05662 0.92234 0.0
H1025 H 0.56856 0.0556 0.83997 0.0
H1026 H 0.42036 0.06042 0.94871 0.0
H1027 H 0.33274 0.06296 0.81419 0.0
H1028 H 0.51459 0.05457 0.88008 0.0
H1029 H 0.23564 0.05608 0.88214 0.0
C1030 C 0.24528 0.05731 0.91971 0.0
C1031 C 0.29645 0.05872 0.9389 0.0
C1032 C 0.47491 0.05642 0.86555 0.0
C1033 C 0.35829 0.05796 0.89322 0.0
C1034 C 0.50576 0.057 0.84271 0.0
C1035 C 0.45548 0.0595 0.8237 0.0
C1036 C 0.39318 0.05816 0.86929 0.0
C1037 C 0.37421 0.06116 0.82829 0.0
C1038 C 0.27595 0.05702 0.89682 0.0
C1039 C 0.37832 0.05951 0.93446 0.0
N1040 N 0.34571 0.06044 0.85052 0.0
N1041 N 0.40657 0.05911 0.91217 0.0
H1042 H 0.06833 0.1997 0.9199 0.0
H1043 H 0.68351 0.19958 0.83677 0.0
H1044 H 0.83126 0.19306 0.9453 0.0
H1045 H 0.92208 0.19502 0.81094 0.0
H1046 H 0.73631 0.20009 0.87709 0.0
H1047 H 0.01529 0.20082 0.87969 0.0
C1048 C 0.00544 0.19847 0.91705 0.0
C1049 C 0.95452 0.19615 0.93598 0.0
C1050 C 0.77685 0.19898 0.8625 0.0
C1051 C 0.8933 0.19759 0.89028 0.0
C1052 C 0.74669 0.19872 0.83955 0.0
C1053 C 0.79816 0.1971 0.82048 0.0
C1054 C 0.85899 0.19782 0.86628 0.0
C1055 C 0.87982 0.19609 0.8251 0.0
C1056 C 0.97513 0.19911 0.89415 0.0
C1057 C 0.87317 0.19471 0.93127 0.0
N1058 N 0.90758 0.19648 0.84744 0.0
N1059 N 0.84521 0.19548 0.90898 0.0
H1060 H 0.56447 0.20018 0.41977 0.0
H1061 H 0.17748 0.19946 0.33755 0.0
H1062 H 0.32848 0.19335 0.44587 0.0
H1063 H 0.41573 0.19518 0.31129 0.0
H1064 H 0.23115 0.20006 0.37777 0.0
H1065 H 0.5102 0.20113 0.3797 0.0
C1066 C 0.50155 0.19888 0.4171 0.0
C1067 C 0.45131 0.19656 0.4362 0.0
C1068 C 0.27141 0.19899 0.36311 0.0
C1069 C 0.38867 0.1978 0.39064 0.0
C1070 C 0.24075 0.19867 0.34021 0.0
C1071 C 0.29189 0.19711 0.32105 0.0
C1072 C 0.3537 0.19794 0.36672 0.0
C1073 C 0.37369 0.19621 0.32551 0.0
C1074 C 0.47053 0.19941 0.39429 0.0
C1075 C 0.36989 0.19501 0.43171 0.0
N1076 N 0.40192 0.19665 0.34779 0.0
N1077 N 0.34122 0.19569 0.40948 0.0
H1078 H 0.67999 0.0571 0.42249 0.0
H1079 H 0.06575 0.05633 0.33978 0.0
H1080 H 0.91818 0.06201 0.44839 0.0
H1081 H 0.82894 0.06274 0.3139 0.0
H1082 H 0.0122 0.0556 0.37997 0.0
H1083 H 0.73321 0.05634 0.38224 0.0
C1084 C 0.74316 0.058 0.41975 0.0
C1085 C 0.79439 0.05976 0.43882 0.0
C1086 C 0.97221 0.05717 0.3654 0.0
C1087 C 0.85571 0.05874 0.3931 0.0
C1088 C 0.0028 0.05758 0.34252 0.0
C1089 C 0.95211 0.05973 0.32346 0.0
C1090 C 0.89033 0.05874 0.36913 0.0
C1091 C 0.87069 0.06121 0.32803 0.0
C1092 C 0.77356 0.05758 0.39683 0.0
C1093 C 0.87606 0.06081 0.43424 0.0
N1094 N 0.84245 0.06066 0.35031 0.0
N1095 N 0.90405 0.06026 0.41194 0.0
H1096 H 0.81611 0.94926 0.08756 0.0
H1097 H 0.43094 0.94909 0.17052 0.0
H1098 H 0.57844 0.94364 0.06177 0.0
H1099 H 0.66862 0.9433 0.19621 0.0
H1100 H 0.48403 0.94993 0.13028 0.0
H1101 H 0.763 0.94994 0.12782 0.0
C1102 C 0.75307 0.94819 0.09033 0.0
C1103 C 0.70199 0.94625 0.07128 0.0
C1104 C 0.52431 0.94847 0.14482 0.0
C1105 C 0.64075 0.94717 0.11703 0.0
C1106 C 0.49397 0.948 0.16773 0.0
C1107 C 0.54506 0.94599 0.18676 0.0
C1108 C 0.6063 0.94711 0.14102 0.0
C1109 C 0.62658 0.94471 0.18211 0.0
C1110 C 0.72273 0.94856 0.11326 0.0
C1111 C 0.62047 0.94498 0.0759 0.0
N1112 N 0.65454 0.94531 0.15981 0.0
N1113 N 0.5925 0.94548 0.09821 0.0
H1114 H 0.17429 0.81095 0.06009 0.0
H1115 H 0.07681 0.81287 0.1964 0.0
H1116 H 0.93685 0.80679 0.08701 0.0
H1117 H 0.31223 0.80605 0.16979 0.0
H1118 H 0.0253 0.81192 0.15661 0.0
H1119 H 0.22541 0.81035 0.09994 0.0
C1120 C 0.13257 0.80995 0.07442 0.0
C1121 C 0.05071 0.80905 0.07015 0.0
C1122 C 0.08815 0.81059 0.15942 0.0
C1123 C 0.10983 0.80834 0.1161 0.0
C1124 C 0.11805 0.81122 0.18217 0.0
C1125 C 0.19948 0.80964 0.18651 0.0
C1126 C 0.13984 0.80851 0.14063 0.0
C1127 C 0.24928 0.80737 0.16729 0.0
C1128 C 0.16219 0.80953 0.0972 0.0
C1129 C 0.00018 0.80757 0.08947 0.0
N1130 N 0.21869 0.80696 0.14513 0.0
N1131 N 0.03055 0.80737 0.11167 0.0
H1132 H 0.57613 0.81214 0.6964 0.0
H1133 H 0.67699 0.81206 0.56028 0.0
H1134 H 0.81289 0.80634 0.67001 0.0
H1135 H 0.43935 0.80694 0.58645 0.0
H1136 H 0.72715 0.8111 0.6002 0.0
H1137 H 0.52551 0.81138 0.65648 0.0
C1138 C 0.61782 0.81075 0.68219 0.0
C1139 C 0.69936 0.80942 0.68662 0.0
C1140 C 0.6641 0.81014 0.59728 0.0
C1141 C 0.64082 0.80852 0.6406 0.0
C1142 C 0.635 0.81077 0.57445 0.0
C1143 C 0.55336 0.8097 0.56995 0.0
C1144 C 0.61142 0.80857 0.61601 0.0
C1145 C 0.50252 0.80786 0.58909 0.0
C1146 C 0.58846 0.81023 0.65936 0.0
C1147 C 0.74982 0.80746 0.66743 0.0
N1148 N 0.53236 0.80746 0.61135 0.0
N1149 N 0.71976 0.80717 0.6452 0.0
H1150 H 0.31459 0.94954 0.58745 0.0
H1151 H 0.92958 0.94972 0.67048 0.0
H1152 H 0.07676 0.9439 0.56179 0.0
H1153 H 0.16722 0.94393 0.6962 0.0
H1154 H 0.98265 0.95045 0.63022 0.0
H1155 H 0.26162 0.95034 0.62772 0.0
C1156 C 0.25155 0.94848 0.59025 0.0
C1157 C 0.20038 0.9465 0.57124 0.0
C1158 C 0.02293 0.94902 0.64477 0.0
C1159 C 0.13929 0.94758 0.61699 0.0
C1160 C 0.99261 0.94862 0.66769 0.0
C1161 C 0.04369 0.94662 0.68672 0.0
C1162 C 0.1049 0.94761 0.64098 0.0
C1163 C 0.12519 0.94532 0.68209 0.0
C1164 C 0.22128 0.94893 0.61318 0.0
C1165 C 0.11886 0.94527 0.57589 0.0
N1166 N 0.15314 0.94586 0.65978 0.0
N1167 N 0.09097 0.94585 0.59821 0.0
H1168 H 0.41816 0.56403 0.4499 0.0
H1169 H 0.31981 0.56137 0.31369 0.0
H1170 H 0.18278 0.55674 0.42375 0.0
H1171 H 0.55735 0.55746 0.34069 0.0
H1172 H 0.26868 0.56093 0.35358 0.0
H1173 H 0.46905 0.56298 0.41008 0.0
C1174 C 0.37677 0.56226 0.43575 0.0
C1175 C 0.29554 0.56057 0.44025 0.0
C1176 C 0.33192 0.56012 0.35085 0.0
C1177 C 0.35452 0.55932 0.3943 0.0
C1178 C 0.36153 0.56045 0.32804 0.0
C1179 C 0.44342 0.55957 0.32379 0.0
C1180 C 0.38435 0.55905 0.36976 0.0
C1181 C 0.49399 0.55822 0.34314 0.0
C1182 C 0.40634 0.56157 0.41298 0.0
C1183 C 0.24558 0.55815 0.42113 0.0
N1184 N 0.46364 0.5581 0.36534 0.0
N1185 N 0.27584 0.55768 0.39893 0.0
H1186 H 0.91885 0.69205 0.31533 0.0
H1187 H 0.82489 0.6962 0.45171 0.0
H1188 H 0.68518 0.70016 0.34202 0.0
H1189 H 0.06225 0.69899 0.42412 0.0
H1190 H 0.77286 0.69649 0.41194 0.0
H1191 H 0.97131 0.69329 0.35498 0.0
C1192 C 0.87817 0.69404 0.32955 0.0
C1193 C 0.79695 0.69591 0.32526 0.0
C1194 C 0.83626 0.69708 0.41451 0.0
C1195 C 0.85773 0.69738 0.37099 0.0
C1196 C 0.86638 0.69684 0.43725 0.0
C1197 C 0.94847 0.69744 0.4413 0.0
C1198 C 0.88834 0.69778 0.39545 0.0
C1199 C -0.00125 0.69847 0.42182 0.0
C1200 C 0.90864 0.69483 0.35222 0.0
C1201 C 0.74793 0.6986 0.34447 0.0
N1202 N 0.96787 0.69849 0.39967 0.0
N1203 N 0.77905 0.69917 0.36656 0.0
H1204 H 0.56516 0.69962 0.92482 0.0
H1205 H 0.18029 0.70005 0.84168 0.0
H1206 H 0.32661 0.69484 0.95049 0.0
H1207 H 0.41767 0.69381 0.81611 0.0
H1208 H 0.23333 0.70099 0.88191 0.0
H1209 H 0.51243 0.70037 0.88451 0.0
C1210 C 0.50201 0.69875 0.92201 0.0
C1211 C 0.45054 0.69701 0.94103 0.0
C1212 C 0.27357 0.69942 0.8674 0.0
C1213 C 0.38976 0.69801 0.89525 0.0
C1214 C 0.24325 0.69888 0.84449 0.0
C1215 C 0.29426 0.69671 0.82552 0.0
C1216 C 0.35547 0.69794 0.87124 0.0
C1217 C 0.37569 0.69535 0.83019 0.0
C1218 C 0.47188 0.69916 0.89906 0.0
C1219 C 0.3689 0.69601 0.93638 0.0
N1220 N 0.40365 0.696 0.85249 0.0
N1221 N 0.34118 0.69654 0.91404 0.0
H1222 H 0.06849 0.55661 0.84079 0.0
H1223 H 0.68478 0.55607 0.92437 0.0
H1224 H 0.82947 0.56135 0.81543 0.0
H1225 H 0.92233 0.56238 0.94969 0.0
H1226 H 0.73735 0.55513 0.88409 0.0
H1227 H 0.01637 0.55584 0.88116 0.0
C1228 C 0.00536 0.55747 0.84368 0.0
C1229 C 0.95357 0.55919 0.82472 0.0
C1230 C 0.77773 0.55672 0.89855 0.0
C1231 C 0.8935 0.55817 0.87058 0.0
C1232 C 0.74769 0.55725 0.92149 0.0
C1233 C 0.79889 0.55945 0.94041 0.0
C1234 C 0.85954 0.55822 0.89463 0.0
C1235 C 0.88024 0.56083 0.93565 0.0
C1236 C 0.97558 0.55704 0.86666 0.0
C1237 C 0.87199 0.56018 0.82948 0.0
N1238 N 0.90793 0.56017 0.91332 0.0
N1239 N 0.84461 0.55964 0.85185 0.0
H1240 H 0.81352 0.45021 0.58952 0.0
H1241 H 0.4299 0.45061 0.67338 0.0
H1242 H 0.57452 0.44533 0.56431 0.0
H1243 H 0.66802 0.44484 0.69869 0.0
H1244 H 0.48226 0.45151 0.63306 0.0
H1245 H 0.76156 0.45106 0.62992 0.0
C1246 C 0.75043 0.44934 0.59244 0.0
C1247 C 0.69864 0.44755 0.57349 0.0
C1248 C 0.52284 0.45005 0.64752 0.0
C1249 C 0.63867 0.44867 0.61944 0.0
C1250 C 0.49291 0.44955 0.6705 0.0
C1251 C 0.54429 0.4475 0.68944 0.0
C1252 C 0.60476 0.44867 0.64356 0.0
C1253 C 0.62575 0.44627 0.68465 0.0
C1254 C 0.72072 0.44981 0.61546 0.0
C1255 C 0.61709 0.44655 0.57833 0.0
N1256 N 0.65332 0.44688 0.66228 0.0
N1257 N 0.58979 0.44714 0.60072 0.0
H1258 H 0.94271 0.30157 0.59313 0.0
H1259 H 0.32809 0.3113 0.67416 0.0
H1260 H 0.15787 0.31901 0.569 0.0
H1261 H 0.09669 0.30246 0.70141 0.0
H1262 H 0.27175 0.31142 0.63419 0.0
H1263 H 0.00221 0.29959 0.63234 0.0
C1264 C 0.00195 0.30506 0.59607 0.0
C1265 C 0.04496 0.3105 0.57772 0.0
C1266 C 0.2336 0.30938 0.64897 0.0
C1267 C 0.114 0.30807 0.6223 0.0
C1268 C 0.26595 0.30922 0.67168 0.0
C1269 C 0.2168 0.307 0.69103 0.0
C1270 C 0.15203 0.30715 0.64576 0.0
C1271 C 0.13643 0.3044 0.68694 0.0
C1272 C 0.03613 0.30388 0.6184 0.0
C1273 C 0.12208 0.31476 0.58255 0.0
N1274 N 0.10659 0.30457 0.66483 0.0
N1275 N 0.15407 0.31342 0.60427 0.0
H1276 H 0.42781 0.30545 0.09343 0.0
H1277 H 0.81069 0.30597 0.17745 0.0
H1278 H 0.66573 0.31186 0.06851 0.0
H1279 H 0.57109 0.31015 0.20265 0.0
H1280 H 0.75902 0.30521 0.13701 0.0
H1281 H 0.47985 0.30432 0.13375 0.0
C1282 C 0.49069 0.30661 0.09641 0.0
C1283 C 0.54213 0.30889 0.07758 0.0
C1284 C 0.71799 0.30628 0.15149 0.0
C1285 C 0.6022 0.30745 0.12341 0.0
C1286 C 0.74752 0.30669 0.17451 0.0
C1287 C 0.69543 0.30828 0.19343 0.0
C1288 C 0.63587 0.3073 0.1475 0.0
C1289 C 0.61381 0.3091 0.18861 0.0
C1290 C 0.52043 0.30598 0.11937 0.0
C1291 C 0.62342 0.31025 0.08246 0.0
N1292 N 0.58669 0.30859 0.16622 0.0
N1293 N 0.65082 0.30949 0.10481 0.0
H1294 H 0.98731 0.46463 0.17807 0.0
H1295 H 0.21936 0.4262 0.07962 0.0
H1296 H 0.05895 0.42663 0.18694 0.0
H1297 H 0.22247 0.46604 0.0816 0.0
H1298 H 0.15054 0.42597 0.11743 0.0
H1299 H 0.05753 0.46508 0.14008 0.0
C1300 C 0.0157 0.45629 0.17167 0.0
C1301 C 0.01661 0.44553 0.18545 0.0
C1302 C 0.16744 0.43478 0.10988 0.0
C1303 C 0.09831 0.44604 0.14258 0.0
C1304 C 0.20763 0.43489 0.08846 0.0
C1305 C 0.22853 0.44614 0.0779 0.0
C1306 C 0.14576 0.44601 0.12054 0.0
C1307 C 0.20939 0.45718 0.08959 0.0
C1308 C 0.05691 0.45661 0.15025 0.0
C1309 C 0.05627 0.43508 0.17672 0.0
N1310 N 0.16822 0.45686 0.11021 0.0
N1311 N 0.09541 0.43559 0.15591 0.0
H1312 H 0.92152 0.14671 0.01922 0.0
H1313 H 0.32963 0.10831 0.01993 0.0
H1314 H 0.15206 0.16345 0.01147 0.0
H1315 H 0.09877 0.09144 0.01444 0.0
H1316 H 0.26563 0.12873 0.02101 0.0
H1317 H 0.98561 0.12633 0.02158 0.0
C1318 C 0.9854 0.14611 0.01808 0.0
C1319 C 0.03124 0.1568 0.01496 0.0
C1320 C 0.22913 0.12053 0.01961 0.0
C1321 C 0.10503 0.13358 0.01778 0.0
C1322 C 0.2657 0.10889 0.01905 0.0
C1323 C 0.21973 0.09814 0.0169 0.0
C1324 C 0.14606 0.12141 0.01822 0.0
C1325 C 0.13688 0.09945 0.01588 0.0
C1326 C 0.02202 0.13449 0.0194 0.0
C1327 C 0.11403 0.15547 0.01366 0.0
N1328 N 0.10287 0.11083 0.01653 0.0
N1329 N 0.14811 0.14411 0.01507 0.0
H1330 H 0.09264 0.16476 0.24521 0.0
H1331 H 0.15223 0.09159 0.24726 0.0
H1332 H 0.32186 0.14726 0.24022 0.0
H1333 H 0.92313 0.10897 0.24055 0.0
H1334 H 0.21476 0.11182 0.24512 0.0
H1335 H 0.03004 0.14451 0.2439 0.0
C1336 C 0.13007 0.15665 0.24383 0.0
C1337 C 0.213 0.15775 0.24299 0.0
C1338 C 0.15087 0.11125 0.24402 0.0
C1339 C 0.14084 0.13439 0.2415 0.0
C1340 C 0.1148 0.09968 0.24532 0.0
C1341 C 0.03192 0.09855 0.24424 0.0
C1342 C 0.10404 0.12189 0.24178 0.0
C1343 C 0.98706 0.10939 0.24151 0.0
C1344 C 0.09397 0.14507 0.24299 0.0
C1345 C 0.25789 0.14687 0.24097 0.0
N1346 N 0.0237 0.12062 0.24052 0.0
N1347 N 0.22122 0.13564 0.24045 0.0
H1348 H 0.84763 0.84106 0.99444 0.0
H1349 H 0.90292 0.91431 0.99512 0.0
H1350 H 0.07571 0.8588 0.98866 0.0
H1351 H 0.67475 0.8966 0.98921 0.0
H1352 H 0.96665 0.89415 0.99319 0.0
H1353 H 0.78386 0.86123 0.99294 0.0
C1354 C 0.88456 0.84921 0.99284 0.0
C1355 C 0.96753 0.8482 0.99183 0.0
C1356 C 0.90271 0.89464 0.99222 0.0
C1357 C 0.894 0.87146 0.99012 0.0
C1358 C 0.86596 0.90617 0.99341 0.0
C1359 C 0.78298 0.90718 0.99248 0.0
C1360 C 0.85647 0.88393 0.99027 0.0
C1361 C 0.73873 0.89628 0.99004 0.0
C1362 C 0.84779 0.86074 0.9919 0.0
C1363 C 0.01175 0.85912 0.98954 0.0
N1364 N 0.77603 0.88509 0.98917 0.0
N1365 N 0.97443 0.87031 0.98892 0.0
H1366 H 0.90209 0.84148 0.7622 0.0
H1367 H 0.84405 0.91469 0.76334 0.0
H1368 H 0.67349 0.85902 0.76896 0.0
H1369 H 0.07299 0.89711 0.76845 0.0
H1370 H 0.7811 0.89447 0.76499 0.0
H1371 H 0.96512 0.86169 0.76404 0.0
C1372 C 0.86489 0.84959 0.76408 0.0
C1373 C 0.78199 0.84852 0.76526 0.0
C1374 C 0.84505 0.895 0.76585 0.0
C1375 C 0.85467 0.87182 0.76739 0.0
C1376 C 0.88134 0.90656 0.76483 0.0
C1377 C 0.9643 0.90763 0.76559 0.0
C1378 C 0.89173 0.88431 0.76748 0.0
C1379 C 0.00901 0.89674 0.76775 0.0
C1380 C 0.90124 0.86115 0.76522 0.0
C1381 C 0.73742 0.85939 0.76792 0.0
N1382 N 0.97215 0.88553 0.76846 0.0
N1383 N 0.77432 0.8706 0.76874 0.0
H1384 H 0.15174 0.66551 0.5173 0.0
H1385 H 0.09396 0.59232 0.5168 0.0
H1386 H 0.92298 0.64799 0.52316 0.0
H1387 H 0.32265 0.60985 0.52283 0.0
H1388 H 0.03084 0.61253 0.51877 0.0
H1389 H 0.21476 0.64529 0.51896 0.0
C1390 C 0.1145 0.6574 0.51895 0.0
C1391 C 0.03157 0.65848 0.51992 0.0
C1392 C 0.09476 0.61199 0.51976 0.0
C1393 C 0.10423 0.63516 0.52183 0.0
C1394 C 0.13116 0.60044 0.51856 0.0
C1395 C 0.2141 0.59936 0.51949 0.0
C1396 C 0.14134 0.62267 0.52174 0.0
C1397 C 0.25868 0.61023 0.522 0.0
C1398 C 0.15084 0.64583 0.51999 0.0
C1399 C 0.98694 0.64761 0.52229 0.0
N1400 N 0.22173 0.62144 0.52287 0.0
N1401 N 0.02385 0.63639 0.523 0.0
H1402 H 0.32661 0.64709 0.74306 0.0
H1403 H 0.91793 0.60892 0.74338 0.0
H1404 H 0.09629 0.66401 0.75039 0.0
H1405 H 0.14861 0.59194 0.74894 0.0
H1406 H 0.98221 0.62929 0.7419 0.0
H1407 H 0.26225 0.62673 0.74119 0.0
C1408 C 0.26272 0.64654 0.7442 0.0
C1409 C 0.21702 0.65728 0.74706 0.0
C1410 C 0.01861 0.62108 0.7434 0.0
C1411 C 0.14292 0.63407 0.74482 0.0
C1412 C 0.98188 0.60946 0.7442 0.0
C1413 C 0.02772 0.5987 0.74647 0.0
C1414 C 0.10172 0.62192 0.74468 0.0
C1415 C 0.11059 0.59997 0.74741 0.0
C1416 C 0.22594 0.63493 0.74317 0.0
C1417 C 0.13422 0.65599 0.74839 0.0
N1418 N 0.14477 0.61132 0.74653 0.0
N1419 N 0.09999 0.64464 0.74727 0.0
H1420 H 0.66164 0.39752 0.49387 0.0
H1421 H 0.0701 0.35922 0.49271 0.0
H1422 H 0.89272 0.41448 0.49719 0.0
H1423 H 0.84064 0.3425 0.503 0.0
H1424 H 0.00554 0.37955 0.49018 0.0
H1425 H 0.72574 0.3771 0.49299 0.0
C1426 C 0.72563 0.39696 0.49431 0.0
C1427 C 0.77167 0.40773 0.49579 0.0
C1428 C 0.96947 0.3714 0.49296 0.0
C1429 C 0.84543 0.38447 0.4947 0.0
C1430 C 0.00635 0.35981 0.49437 0.0
C1431 C 0.96098 0.34913 0.49825 0.0
C1432 C 0.88663 0.37231 0.49523 0.0
C1433 C 0.87833 0.35046 0.50021 0.0
C1434 C 0.76226 0.38532 0.49386 0.0
C1435 C 0.85458 0.40644 0.49627 0.0
N1436 N 0.84397 0.3618 0.49869 0.0
N1437 N 0.88864 0.39507 0.49574 0.0
H1438 H 0.89101 0.34153 0.26811 0.0
H1439 H 0.82957 0.41462 0.26147 0.0
H1440 H 0.66112 0.35892 0.27143 0.0
H1441 H 0.05883 0.39743 0.26933 0.0
H1442 H 0.76735 0.39439 0.26448 0.0
H1443 H 0.95289 0.36184 0.26807 0.0
C1444 C 0.85329 0.34963 0.26886 0.0
C1445 C 0.77039 0.34848 0.26963 0.0
C1446 C 0.83121 0.39501 0.26563 0.0
C1447 C 0.84172 0.37191 0.26954 0.0
C1448 C 0.86709 0.40658 0.26382 0.0
C1449 C 0.94993 0.40776 0.26502 0.0
C1450 C 0.8782 0.38443 0.2685 0.0
C1451 C 0.99493 0.39698 0.26826 0.0
C1452 C 0.88897 0.36125 0.2689 0.0
C1453 C 0.72509 0.35935 0.27078 0.0
N1454 N 0.95848 0.38576 0.26977 0.0
N1455 N 0.76136 0.37062 0.27055 0.0
H1456 H 0.82862 0.10918 0.52021 0.0
H1457 H 0.42043 0.14757 0.52013 0.0
H1458 H 0.59775 0.09227 0.51513 0.0
H1459 H 0.65088 0.16428 0.51193 0.0
H1460 H 0.48452 0.12719 0.52252 0.0
H1461 H 0.76454 0.12959 0.52145 0.0
C1462 C 0.76466 0.10974 0.51946 0.0
C1463 C 0.71871 0.09899 0.51737 0.0
C1464 C 0.52091 0.13535 0.52023 0.0
C1465 C 0.64493 0.12225 0.51887 0.0
C1466 C 0.48429 0.14697 0.51891 0.0
C1467 C 0.5301 0.15765 0.51564 0.0
C1468 C 0.60389 0.13443 0.51848 0.0
C1469 C 0.61286 0.15631 0.51423 0.0
C1470 C 0.72804 0.12138 0.52011 0.0
C1471 C 0.63583 0.10029 0.51651 0.0
N1472 N 0.64693 0.14495 0.51564 0.0
N1473 N 0.60176 0.11167 0.51725 0.0
H1474 H 0.65646 0.09154 0.74784 0.0
H1475 H 0.59815 0.16473 0.74509 0.0
H1476 H 0.42767 0.10899 0.74085 0.0
H1477 H 0.82698 0.14712 0.74004 0.0
H1478 H 0.53517 0.1445 0.74406 0.0
H1479 H 0.7193 0.11174 0.74557 0.0
C1480 C 0.61916 0.09963 0.74583 0.0
C1481 C 0.53627 0.09853 0.74469 0.0
C1482 C 0.5991 0.14503 0.74308 0.0
C1483 C 0.60875 0.12184 0.74208 0.0
C1484 C 0.63541 0.1566 0.74375 0.0
C1485 C 0.71834 0.15766 0.7428 0.0
C1486 C 0.64576 0.13433 0.74165 0.0
C1487 C 0.76301 0.14676 0.74086 0.0
C1488 C 0.65542 0.11119 0.74444 0.0
C1489 C 0.4916 0.10938 0.74186 0.0
N1490 N 0.72615 0.13554 0.7405 0.0
N1491 N 0.52841 0.12059 0.7408 0.0
H1492 H 0.16939 0.89702 0.48898 0.0
H1493 H 0.58152 0.85966 0.48825 0.0
H1494 H 0.39861 0.91438 0.49501 0.0
H1495 H 0.35276 0.84221 0.49493 0.0
H1496 H 0.51525 0.87988 0.48669 0.0
H1497 H 0.23542 0.87676 0.48712 0.0
C1498 C 0.23338 0.89659 0.48983 0.0
C1499 C 0.2783 0.90742 0.49234 0.0
C1500 C 0.4797 0.8716 0.48846 0.0
C1501 C 0.35427 0.88435 0.49011 0.0
C1502 C 0.51757 0.86007 0.48931 0.0
C1503 C 0.47287 0.84922 0.4919 0.0
C1504 C 0.39657 0.87227 0.49002 0.0
C1505 C 0.38993 0.85032 0.49313 0.0
C1506 C 0.2711 0.88504 0.48881 0.0
C1507 C 0.36127 0.90629 0.4933 0.0
N1508 N 0.35462 0.8616 0.4922 0.0
N1509 N 0.3964 0.89501 0.4922 0.0
H1510 H 0.57863 0.8968 0.26929 0.0
H1511 H 0.16998 0.85861 0.26988 0.0
H1512 H 0.34799 0.91376 0.26341 0.0
H1513 H 0.40032 0.84171 0.26246 0.0
H1514 H 0.23433 0.87897 0.27182 0.0
H1515 H 0.51433 0.87643 0.27112 0.0
C1516 C 0.51468 0.89625 0.26848 0.0
C1517 C 0.46886 0.907 0.266 0.0
C1518 C 0.27064 0.87078 0.26982 0.0
C1519 C 0.39483 0.8838 0.26818 0.0
C1520 C 0.23387 0.85916 0.26875 0.0
C1521 C 0.27958 0.84844 0.26581 0.0
C1522 C 0.35366 0.87164 0.26814 0.0
C1523 C 0.36239 0.84972 0.2645 0.0
C1524 C 0.47794 0.88464 0.26947 0.0
C1525 C 0.38599 0.90573 0.26509 0.0
N1526 N 0.3966 0.86107 0.26566 0.0
N1527 N 0.35179 0.89438 0.26616 0.0
H1528 H 0.41817 0.6471 0.02207 0.0
H1529 H 0.82887 0.60938 0.02246 0.0
H1530 H 0.64794 0.66432 0.01647 0.0
H1531 H 0.59953 0.5922 0.01508 0.0
H1532 H 0.76339 0.62966 0.02424 0.0
H1533 H 0.48351 0.62679 0.02351 0.0
C1534 C 0.48214 0.64662 0.02123 0.0
C1535 C 0.52741 0.65743 0.01897 0.0
C1536 C 0.72755 0.62142 0.02226 0.0
C1537 C 0.60262 0.63429 0.0207 0.0
C1538 C 0.76496 0.60985 0.02128 0.0
C1539 C 0.71987 0.59906 0.01845 0.0
C1540 C 0.64448 0.62218 0.02058 0.0
C1541 C 0.637 0.60025 0.01707 0.0
C1542 C 0.51947 0.63504 0.022 0.0
C1543 C 0.61034 0.65625 0.018 0.0
N1544 N 0.60214 0.61156 0.01814 0.0
N1545 N 0.64511 0.64493 0.01886 0.0
H1546 H 0.82395 0.6468 0.24176 0.0
H1547 H 0.41461 0.6088 0.24165 0.0
H1548 H 0.59403 0.66379 0.24955 0.0
H1549 H 0.64484 0.59173 0.24777 0.0
H1550 H 0.47931 0.62915 0.24014 0.0
H1551 H 0.75917 0.62648 0.23959 0.0
C1552 C 0.76006 0.64627 0.24293 0.0
C1553 C 0.7146 0.65702 0.24603 0.0
C1554 C 0.51551 0.62092 0.24177 0.0
C1555 C 0.64002 0.63386 0.24344 0.0
C1556 C 0.47855 0.60932 0.24258 0.0
C1557 C 0.52414 0.59854 0.24504 0.0
C1558 C 0.59861 0.62172 0.24321 0.0
C1559 C 0.60702 0.59978 0.24611 0.0
C1560 C 0.72305 0.63469 0.24174 0.0
C1561 C 0.63178 0.65577 0.24738 0.0
N1562 N 0.64142 0.61112 0.24521 0.0
N1563 N 0.59731 0.64444 0.24609 0.0
H1564 H 0.17367 0.39758 0.9973 0.0
H1565 H 0.57966 0.35866 0.99561 0.0
H1566 H 0.4056 0.41418 1.00182 0.0
H1567 H 0.34827 0.34219 1.00326 0.0
H1568 H 0.51679 0.37915 0.99412 0.0
H1569 H 0.23656 0.3771 0.99571 0.0
C1570 C 0.23762 0.39693 0.99788 0.0
C1571 C 0.28422 0.40762 0.99986 0.0
C1572 C 0.47993 0.37103 0.9961 0.0
C1573 C 0.35665 0.38427 0.99796 0.0
C1574 C 0.51585 0.35934 0.99691 0.0
C1575 C 0.46941 0.34869 0.99973 0.0
C1576 C 0.39702 0.37204 0.99794 0.0
C1577 C 0.38675 0.35013 1.00127 0.0
C1578 C 0.27356 0.38525 0.99702 0.0
C1579 C 0.36704 0.40621 1.0005 0.0
N1580 N 0.35337 0.36155 1.00036 0.0
N1581 N 0.40046 0.39479 0.99957 0.0
H1582 H 0.3463 0.41424 0.76246 0.0
H1583 H 0.40871 0.3411 0.76543 0.0
H1584 H 0.57554 0.39708 0.77065 0.0
H1585 H 0.17851 0.35839 0.76895 0.0
H1586 H 0.47035 0.36143 0.76645 0.0
H1587 H 0.28453 0.39394 0.76389 0.0
C1588 C 0.38393 0.4062 0.76455 0.0
C1589 C 0.46664 0.40741 0.76632 0.0
C1590 C 0.40641 0.36081 0.76708 0.0
C1591 C 0.39536 0.38399 0.76796 0.0
C1592 C 0.37085 0.34918 0.76642 0.0
C1593 C 0.28794 0.348 0.76699 0.0
C1594 C 0.35903 0.37144 0.76814 0.0
C1595 C 0.24249 0.35884 0.76845 0.0
C1596 C 0.34828 0.39458 0.76544 0.0
C1597 C 0.51174 0.39661 0.76918 0.0
N1598 N 0.27865 0.37012 0.76885 0.0
N1599 N 0.47552 0.38534 0.76979 0.0
loop_
_geom_bond_atom_site_label_1
_geom_bond_atom_site_label_2
_geom_bond_distance
_geom_bond_site_symmetry_2
_ccdc_geom_bond_type
C0 O2 1.247 1_554 S
C0 O4 1.258 . S
C1 O8 1.249 . S
C1 O9 1.255 1_554 S
O2 C0 1.247 1_556 S
O2 Zn3 2.028 . S
Zn3 O2 2.028 . S
Zn3 O7 2.035 1_556 S
Zn3 O9 2.035 . S
Zn3 O10 2.028 . S
O4 C0 1.258 . S
O4 Zn5 2.035 . S
Zn5 O4 2.035 . S
Zn5 O6 2.028 . S
Zn5 O8 2.028 . S
Zn5 O11 2.035 1_554 S
O6 Zn5 2.028 . S
O6 C12 1.247 . S
O7 Zn3 2.035 1_554 S
O7 C12 1.258 . S
O8 C1 1.249 . S
O8 Zn5 2.028 . S
O9 C1 1.255 1_556 S
O9 Zn3 2.035 . S
O10 Zn3 2.028 . S
O10 C13 1.247 . S
O11 Zn5 2.035 1_556 S
O11 C13 1.258 . S
C12 O6 1.247 . S
C12 O7 1.258 . S
C13 O10 1.247 . S
C13 O11 1.258 . S
C14 O16 1.247 1_554 S
C14 O18 1.258 . S
C15 O22 1.248 1_455 S
C15 O23 1.256 1_554 S
O16 C14 1.247 1_556 S
O16 Zn17 2.028 1_655 S
Zn17 O16 2.028 1_455 S
Zn17 O21 2.035 1_556 S
Zn17 O23 2.035 . S
Zn17 O24 2.028 . S
O18 C14 1.258 . S
O18 Zn19 2.035 . S
Zn19 O18 2.035 . S
Zn19 O20 2.028 . S
Zn19 O22 2.028 . S
Zn19 O25 2.035 1_554 S
O20 Zn19 2.028 . S
O20 C26 1.247 1_655 S
O21 Zn17 2.035 1_554 S
O21 C26 1.258 . S
O22 C15 1.248 1_655 S
O22 Zn19 2.028 . S
O23 C15 1.256 1_556 S
O23 Zn17 2.035 . S
O24 Zn17 2.028 . S
O24 C27 1.247 1_455 S
O25 Zn19 2.035 1_556 S
O25 C27 1.258 . S
C26 O20 1.247 1_455 S
C26 O21 1.258 . S
C27 O24 1.247 1_655 S
C27 O25 1.258 . S
C28 O30 1.247 . S
C28 O32 1.258 . S
C29 O36 1.247 . S
C29 O37 1.258 . S
O30 C28 1.247 . S
O30 Zn31 2.028 . S
Zn31 O30 2.028 . S
Zn31 O35 2.035 . S
Zn31 O37 2.035 . S
Zn31 O38 2.028 . S
O32 C28 1.258 . S
O32 Zn33 2.035 . S
Zn33 O32 2.035 . S
Zn33 O34 2.028 . S
Zn33 O36 2.028 . S
Zn33 O39 2.035 . S
O34 Zn33 2.028 . S
O34 C40 1.247 . S
O35 Zn31 2.035 . S
O35 C40 1.258 . S
O36 C29 1.247 . S
O36 Zn33 2.028 . S
O37 C29 1.258 . S
O37 Zn31 2.035 . S
O38 Zn31 2.028 . S
O38 C41 1.247 . S
O39 Zn33 2.035 . S
O39 C41 1.258 . S
C40 O34 1.247 . S
C40 O35 1.258 . S
C41 O38 1.247 . S
C41 O39 1.258 . S
C42 O44 1.247 . S
C42 O46 1.258 1_455 S
C43 O50 1.247 . S
C43 O51 1.258 . S
O44 C42 1.247 . S
O44 Zn45 2.028 . S
Zn45 O44 2.028 . S
Zn45 O49 2.035 . S
Zn45 O51 2.035 1_455 S
Zn45 O52 2.028 . S
O46 C42 1.258 1_655 S
O46 Zn47 2.035 . S
Zn47 O46 2.035 . S
Zn47 O48 2.028 . S
Zn47 O50 2.028 . S
Zn47 O53 2.035 . S
O48 Zn47 2.028 . S
O48 C54 1.247 . S
O49 Zn45 2.035 . S
O49 C54 1.258 1_455 S
O50 C43 1.247 . S
O50 Zn47 2.028 . S
O51 C43 1.258 . S
O51 Zn45 2.035 1_655 S
O52 Zn45 2.028 . S
O52 C55 1.247 . S
O53 Zn47 2.035 . S
O53 C55 1.258 1_655 S
C54 O48 1.247 . S
C54 O49 1.258 1_655 S
C55 O52 1.247 . S
C55 O53 1.258 1_455 S
C56 O58 1.247 . S
C56 O60 1.258 . S
C57 O64 1.247 . S
C57 O65 1.258 . S
O58 C56 1.247 . S
O58 Zn59 2.028 . S
Zn59 O58 2.028 . S
Zn59 O63 2.035 . S
Zn59 O65 2.035 1_554 S
Zn59 O66 2.028 . S
O60 C56 1.258 . S
O60 Zn61 2.035 1_554 S
Zn61 O60 2.035 1_556 S
Zn61 O62 2.028 . S
Zn61 O64 2.028 . S
Zn61 O67 2.035 . S
O62 Zn61 2.028 . S
O62 C68 1.249 . S
O63 Zn59 2.035 . S
O63 C68 1.255 1_554 S
O64 C57 1.247 . S
O64 Zn61 2.028 . S
O65 C57 1.258 . S
O65 Zn59 2.035 1_556 S
O66 Zn59 2.028 . S
O66 C69 1.247 1_554 S
O67 Zn61 2.035 . S
O67 C69 1.258 . S
C68 O62 1.249 . S
C68 O63 1.255 1_556 S
C69 O66 1.247 1_556 S
C69 O67 1.258 . S
C70 O72 1.247 . S
C70 O74 1.258 1_655 S
C71 O78 1.247 . S
C71 O79 1.258 1_455 S
O72 C70 1.247 . S
O72 Zn73 2.028 1_556 S
Zn73 O72 2.028 1_554 S
Zn73 O77 2.035 1_655 S
Zn73 O79 2.035 . S
Zn73 O80 2.028 . S
O74 C70 1.258 1_455 S
O74 Zn75 2.035 . S
Zn75 O74 2.035 . S
Zn75 O76 2.028 . S
Zn75 O78 2.028 1_556 S
Zn75 O81 2.035 . S
O76 Zn75 2.028 . S
O76 C82 1.247 . S
O77 Zn73 2.035 1_455 S
O77 C82 1.258 1_554 S
O78 C71 1.247 . S
O78 Zn75 2.028 1_554 S
O79 C71 1.258 1_655 S
O79 Zn73 2.035 . S
O80 Zn73 2.028 . S
O80 C83 1.245 1_554 S
O81 Zn75 2.035 . S
O81 C83 1.260 1_455 S
C82 O76 1.247 . S
C82 O77 1.258 1_556 S
C83 O80 1.245 1_556 S
C83 O81 1.260 1_655 S
C84 O86 1.247 . S
C84 O88 1.258 . S
C85 O92 1.247 . S
C85 O93 1.258 . S
O86 C84 1.247 . S
O86 Zn87 2.028 . S
Zn87 O86 2.028 . S
Zn87 O91 2.035 . S
Zn87 O93 2.035 . S
Zn87 O94 2.028 . S
O88 C84 1.258 . S
O88 Zn89 2.035 . S
Zn89 O88 2.035 . S
Zn89 O90 2.028 . S
Zn89 O92 2.028 . S
Zn89 O95 2.035 . S
O90 Zn89 2.028 . S
O90 C96 1.247 . S
O91 Zn87 2.035 . S
O91 C96 1.258 . S
O92 C85 1.247 . S
O92 Zn89 2.028 . S
O93 C85 1.258 . S
O93 Zn87 2.035 . S
O94 Zn87 2.028 . S
O94 C97 1.247 . S
O95 Zn89 2.035 . S
O95 C97 1.258 . S
C96 O90 1.247 . S
C96 O91 1.258 . S
C97 O94 1.247 . S
C97 O95 1.258 . S
C98 O100 1.247 . S
C98 O102 1.258 . S
C99 O106 1.247 . S
C99 O107 1.258 1_655 S
O100 C98 1.247 . S
O100 Zn101 2.028 . S
Zn101 O100 2.028 . S
Zn101 O105 2.035 . S
Zn101 O107 2.035 . S
Zn101 O108 2.028 . S
O102 C98 1.258 . S
O102 Zn103 2.035 1_455 S
Zn103 O102 2.035 1_655 S
Zn103 O104 2.028 . S
Zn103 O106 2.028 . S
Zn103 O109 2.035 . S
O104 Zn103 2.028 . S
O104 C110 1.247 . S
O105 Zn101 2.035 . S
O105 C110 1.258 1_455 S
O106 C99 1.247 . S
O106 Zn103 2.028 . S
O107 C99 1.258 1_455 S
O107 Zn101 2.035 . S
O108 Zn101 2.028 . S
O108 C111 1.247 . S
O109 Zn103 2.035 . S
O109 C111 1.258 1_655 S
C110 O104 1.247 . S
C110 O105 1.258 1_655 S
C111 O108 1.247 . S
C111 O109 1.258 1_455 S
C112 O114 1.247 . S
C112 O116 1.258 . S
C113 O120 1.247 . S
C113 O121 1.258 . S
O114 C112 1.247 . S
O114 Zn115 2.028 . S
Zn115 O114 2.028 . S
Zn115 O119 2.035 . S
Zn115 O121 2.035 . S
Zn115 O122 2.028 . S
O116 C112 1.258 . S
O116 Zn117 2.035 . S
Zn117 O116 2.035 . S
Zn117 O118 2.028 . S
Zn117 O120 2.028 . S
Zn117 O123 2.035 . S
O118 Zn117 2.028 . S
O118 C124 1.247 . S
O119 Zn115 2.035 . S
O119 C124 1.258 . S
O120 C113 1.247 . S
O120 Zn117 2.028 . S
O121 C113 1.258 . S
O121 Zn115 2.035 . S
O122 Zn115 2.028 . S
O122 C125 1.247 . S
O123 Zn117 2.035 . S
O123 C125 1.258 . S
C124 O118 1.247 . S
C124 O119 1.258 . S
C125 O122 1.247 . S
C125 O123 1.258 . S
C126 O128 1.247 . S
C126 O130 1.258 1_455 S
C127 O134 1.247 . S
C127 O135 1.258 . S
O128 C126 1.247 . S
O128 Zn129 2.028 . S
Zn129 O128 2.028 . S
Zn129 O133 2.035 . S
Zn129 O135 2.035 1_455 S
Zn129 O136 2.028 . S
O130 C126 1.258 1_655 S
O130 Zn131 2.035 . S
Zn131 O130 2.035 . S
Zn131 O132 2.028 . S
Zn131 O134 2.028 . S
Zn131 O137 2.035 . S
O132 Zn131 2.028 . S
O132 C138 1.247 . S
O133 Zn129 2.035 . S
O133 C138 1.258 1_455 S
O134 C127 1.247 . S
O134 Zn131 2.028 . S
O135 C127 1.258 . S
O135 Zn129 2.035 1_655 S
O136 Zn129 2.028 . S
O136 C139 1.247 . S
O137 Zn131 2.035 . S
O137 C139 1.258 1_655 S
C138 O132 1.247 . S
C138 O133 1.258 1_655 S
C139 O136 1.247 . S
C139 O137 1.258 1_455 S
C140 O142 1.247 . S
C140 O144 1.258 . S
C141 O148 1.247 . S
C141 O149 1.258 . S
O142 C140 1.247 . S
O142 Zn143 2.028 . S
Zn143 O142 2.028 . S
Zn143 O147 2.035 . S
Zn143 O149 2.035 . S
Zn143 O150 2.028 . S
O144 C140 1.258 . S
O144 Zn145 2.035 . S
Zn145 O144 2.035 . S
Zn145 O146 2.028 . S
Zn145 O148 2.028 . S
Zn145 O151 2.035 . S
O146 Zn145 2.028 . S
O146 C152 1.247 . S
O147 Zn143 2.035 . S
O147 C152 1.258 . S
O148 C141 1.247 . S
O148 Zn145 2.028 . S
O149 C141 1.258 . S
O149 Zn143 2.035 . S
O150 Zn143 2.028 . S
O150 C153 1.247 . S
O151 Zn145 2.035 . S
O151 C153 1.258 . S
C152 O146 1.247 . S
C152 O147 1.258 . S
C153 O150 1.247 . S
C153 O151 1.258 . S
C154 O156 1.247 . S
C154 O158 1.258 1_455 S
C155 O162 1.247 . S
C155 O163 1.258 . S
O156 C154 1.247 . S
O156 Zn157 2.028 . S
Zn157 O156 2.028 . S
Zn157 O161 2.035 . S
Zn157 O163 2.035 1_455 S
Zn157 O164 2.028 . S
O158 C154 1.258 1_655 S
O158 Zn159 2.035 . S
Zn159 O158 2.035 . S
Zn159 O160 2.028 . S
Zn159 O162 2.028 . S
Zn159 O165 2.035 . S
O160 Zn159 2.028 . S
O160 C166 1.247 . S
O161 Zn157 2.035 . S
O161 C166 1.258 1_455 S
O162 C155 1.247 . S
O162 Zn159 2.028 . S
O163 C155 1.258 . S
O163 Zn157 2.035 1_655 S
O164 Zn157 2.028 . S
O164 C167 1.247 . S
O165 Zn159 2.035 . S
O165 C167 1.258 1_655 S
C166 O160 1.247 . S
C166 O161 1.258 1_655 S
C167 O164 1.247 . S
C167 O165 1.258 1_455 S
C168 O170 1.247 . S
C168 O172 1.258 . S
C169 O176 1.247 . S
C169 O177 1.258 . S
O170 C168 1.247 . S
O170 Zn171 2.028 . S
Zn171 O170 2.028 . S
Zn171 O175 2.035 . S
Zn171 O177 2.035 . S
Zn171 O178 2.028 . S
O172 C168 1.258 . S
O172 Zn173 2.035 . S
Zn173 O172 2.035 . S
Zn173 O174 2.028 . S
Zn173 O176 2.028 . S
Zn173 O179 2.035 . S
O174 Zn173 2.028 . S
O174 C180 1.247 . S
O175 Zn171 2.035 . S
O175 C180 1.258 . S
O176 C169 1.247 . S
O176 Zn173 2.028 . S
O177 C169 1.258 . S
O177 Zn171 2.035 . S
O178 Zn171 2.028 . S
O178 C181 1.247 . S
O179 Zn173 2.035 . S
O179 C181 1.258 . S
C180 O174 1.247 . S
C180 O175 1.258 . S
C181 O178 1.247 . S
C181 O179 1.258 . S
C182 O184 1.247 1_455 S
C182 O186 1.258 . S
C183 O190 1.247 1_655 S
C183 O191 1.258 . S
O184 C182 1.247 1_655 S
O184 Zn185 2.028 . S
Zn185 O184 2.028 . S
Zn185 O189 2.035 . S
Zn185 O191 2.035 . S
Zn185 O192 2.028 1_655 S
O186 C182 1.258 . S
O186 Zn187 2.035 . S
Zn187 O186 2.035 . S
Zn187 O188 2.028 . S
Zn187 O190 2.028 . S
Zn187 O193 2.035 . S
O188 Zn187 2.028 . S
O188 C194 1.247 1_455 S
O189 Zn185 2.035 . S
O189 C194 1.258 . S
O190 C183 1.247 1_455 S
O190 Zn187 2.028 . S
O191 C183 1.258 . S
O191 Zn185 2.035 . S
O192 Zn185 2.028 1_455 S
O192 C195 1.247 . S
O193 Zn187 2.035 . S
O193 C195 1.258 . S
C194 O188 1.247 1_655 S
C194 O189 1.258 . S
C195 O192 1.247 . S
C195 O193 1.258 . S
C196 O198 1.247 . S
C196 O200 1.258 . S
C197 O204 1.247 . S
C197 O205 1.258 . S
O198 C196 1.247 . S
O198 Zn199 2.028 . S
Zn199 O198 2.028 . S
Zn199 O203 2.035 . S
Zn199 O205 2.035 . S
Zn199 O206 2.028 . S
O200 C196 1.258 . S
O200 Zn201 2.035 . S
Zn201 O200 2.035 . S
Zn201 O202 2.028 . S
Zn201 O204 2.028 . S
Zn201 O207 2.035 . S
O202 Zn201 2.028 . S
O202 C208 1.247 . S
O203 Zn199 2.035 . S
O203 C208 1.258 . S
O204 C197 1.247 . S
O204 Zn201 2.028 . S
O205 C197 1.258 . S
O205 Zn199 2.035 . S
O206 Zn199 2.028 . S
O206 C209 1.247 . S
O207 Zn201 2.035 . S
O207 C209 1.258 . S
C208 O202 1.247 . S
C208 O203 1.258 . S
C209 O206 1.247 . S
C209 O207 1.258 . S
C210 O212 1.247 . S
C210 O214 1.258 1_655 S
C211 O218 1.247 . S
C211 O219 1.258 1_455 S
O212 C210 1.247 . S
O212 Zn213 2.028 . S
Zn213 O212 2.028 . S
Zn213 O217 2.035 1_655 S
Zn213 O219 2.035 . S
Zn213 O220 2.028 . S
O214 C210 1.258 1_455 S
O214 Zn215 2.035 . S
Zn215 O214 2.035 . S
Zn215 O216 2.028 . S
Zn215 O218 2.028 . S
Zn215 O221 2.035 . S
O216 Zn215 2.028 . S
O216 C222 1.247 . S
O217 Zn213 2.035 1_455 S
O217 C222 1.258 . S
O218 C211 1.247 . S
O218 Zn215 2.028 . S
O219 C211 1.258 1_655 S
O219 Zn213 2.035 . S
O220 Zn213 2.028 . S
O220 C223 1.247 . S
O221 Zn215 2.035 . S
O221 C223 1.258 1_455 S
C222 O216 1.247 . S
C222 O217 1.258 . S
C223 O220 1.247 . S
C223 O221 1.258 1_655 S
C224 O226 1.247 . S
C224 O228 1.258 . S
C225 O232 1.247 . S
C225 O233 1.258 . S
O226 C224 1.247 . S
O226 Zn227 2.028 . S
Zn227 O226 2.028 . S
Zn227 O231 2.035 . S
Zn227 O233 2.035 . S
Zn227 O234 2.028 . S
O228 C224 1.258 . S
O228 Zn229 2.035 . S
Zn229 O228 2.035 . S
Zn229 O230 2.028 . S
Zn229 O232 2.028 . S
Zn229 O235 2.035 . S
O230 Zn229 2.028 . S
O230 C236 1.247 . S
O231 Zn227 2.035 . S
O231 C236 1.258 . S
O232 C225 1.247 . S
O232 Zn229 2.028 . S
O233 C225 1.258 . S
O233 Zn227 2.035 . S
O234 Zn227 2.028 . S
O234 C237 1.247 . S
O235 Zn229 2.035 . S
O235 C237 1.258 . S
C236 O230 1.247 . S
C236 O231 1.258 . S
C237 O234 1.247 . S
C237 O235 1.258 . S
C238 O240 1.247 . S
C238 O242 1.258 . S
C239 O246 1.247 . S
C239 O247 1.258 . S
O240 C238 1.247 . S
O240 Zn241 2.028 . S
Zn241 O240 2.028 . S
Zn241 O245 2.035 . S
Zn241 O247 2.035 . S
Zn241 O248 2.028 . S
O242 C238 1.258 . S
O242 Zn243 2.035 . S
Zn243 O242 2.035 . S
Zn243 O244 2.028 . S
Zn243 O246 2.028 . S
Zn243 O249 2.035 . S
O244 Zn243 2.028 . S
O244 C250 1.247 . S
O245 Zn241 2.035 . S
O245 C250 1.258 . S
O246 C239 1.247 . S
O246 Zn243 2.028 . S
O247 C239 1.258 . S
O247 Zn241 2.035 . S
O248 Zn241 2.028 . S
O248 C251 1.247 . S
O249 Zn243 2.035 . S
O249 C251 1.258 . S
C250 O244 1.247 . S
C250 O245 1.258 . S
C251 O248 1.247 . S
C251 O249 1.258 . S
C252 O254 1.247 . S
C252 O256 1.258 . S
C253 O260 1.247 . S
C253 O261 1.258 . S
O254 C252 1.247 . S
O254 Zn255 2.028 . S
Zn255 O254 2.028 . S
Zn255 O259 2.035 . S
Zn255 O261 2.035 . S
Zn255 O262 2.028 . S
O256 C252 1.258 . S
O256 Zn257 2.035 . S
Zn257 O256 2.035 . S
Zn257 O258 2.028 . S
Zn257 O260 2.028 . S
Zn257 O263 2.035 . S
O258 Zn257 2.028 . S
O258 C264 1.247 . S
O259 Zn255 2.035 . S
O259 C264 1.258 . S
O260 C253 1.247 . S
O260 Zn257 2.028 . S
O261 C253 1.258 . S
O261 Zn255 2.035 . S
O262 Zn255 2.028 . S
O262 C265 1.247 . S
O263 Zn257 2.035 . S
O263 C265 1.258 . S
C264 O258 1.247 . S
C264 O259 1.258 . S
C265 O262 1.247 . S
C265 O263 1.258 . S
C266 O268 1.247 . S
C266 O270 1.258 . S
C267 O274 1.247 . S
C267 O275 1.258 . S
O268 C266 1.247 . S
O268 Zn269 2.028 . S
Zn269 O268 2.028 . S
Zn269 O273 2.035 . S
Zn269 O275 2.035 . S
Zn269 O276 2.028 . S
O270 C266 1.258 . S
O270 Zn271 2.035 . S
Zn271 O270 2.035 . S
Zn271 O272 2.028 . S
Zn271 O274 2.028 . S
Zn271 O277 2.035 . S
O272 Zn271 2.028 . S
O272 C278 1.247 . S
O273 Zn269 2.035 . S
O273 C278 1.258 . S
O274 C267 1.247 . S
O274 Zn271 2.028 . S
O275 C267 1.258 . S
O275 Zn269 2.035 . S
O276 Zn269 2.028 . S
O276 C279 1.247 . S
O277 Zn271 2.035 . S
O277 C279 1.258 . S
C278 O272 1.247 . S
C278 O273 1.258 . S
C279 O276 1.247 . S
C279 O277 1.258 . S
C280 O282 1.247 . S
C280 O284 1.258 . S
C281 O288 1.247 . S
C281 O289 1.258 . S
O282 C280 1.247 . S
O282 Zn283 2.028 . S
Zn283 O282 2.028 . S
Zn283 O287 2.035 . S
Zn283 O289 2.035 . S
Zn283 O290 2.028 . S
O284 C280 1.258 . S
O284 Zn285 2.035 . S
Zn285 O284 2.035 . S
Zn285 O286 2.028 . S
Zn285 O288 2.028 . S
Zn285 O291 2.035 . S
O286 Zn285 2.028 . S
O286 C292 1.247 . S
O287 Zn283 2.035 . S
O287 C292 1.258 . S
O288 C281 1.247 . S
O288 Zn285 2.028 . S
O289 C281 1.258 . S
O289 Zn283 2.035 . S
O290 Zn283 2.028 . S
O290 C293 1.247 . S
O291 Zn285 2.035 . S
O291 C293 1.258 . S
C292 O286 1.247 . S
C292 O287 1.258 . S
C293 O290 1.247 . S
C293 O291 1.258 . S
C294 O296 1.247 . S
C294 O298 1.258 . S
C295 O302 1.247 . S
C295 O303 1.258 . S
O296 C294 1.247 . S
O296 Zn297 2.028 . S
Zn297 O296 2.028 . S
Zn297 O301 2.035 . S
Zn297 O303 2.035 . S
Zn297 O304 2.028 . S
O298 C294 1.258 . S
O298 Zn299 2.035 . S
Zn299 O298 2.035 . S
Zn299 O300 2.028 . S
Zn299 O302 2.028 . S
Zn299 O305 2.035 . S
O300 Zn299 2.028 . S
O300 C306 1.247 . S
O301 Zn297 2.035 . S
O301 C306 1.258 . S
O302 C295 1.247 . S
O302 Zn299 2.028 . S
O303 C295 1.258 . S
O303 Zn297 2.035 . S
O304 Zn297 2.028 . S
O304 C307 1.247 . S
O305 Zn299 2.035 . S
O305 C307 1.258 . S
C306 O300 1.247 . S
C306 O301 1.258 . S
C307 O304 1.247 . S
C307 O305 1.258 . S
C308 O310 1.247 . S
C308 O312 1.258 . S
C309 O316 1.247 . S
C309 O317 1.258 . S
O310 C308 1.247 . S
O310 Zn311 2.028 . S
Zn311 O310 2.028 . S
Zn311 O315 2.035 . S
Zn311 O317 2.035 . S
Zn311 O318 2.028 . S
O312 C308 1.258 . S
O312 Zn313 2.035 . S
Zn313 O312 2.035 . S
Zn313 O314 2.028 . S
Zn313 O316 2.028 . S
Zn313 O319 2.035 . S
O314 Zn313 2.028 . S
O314 C320 1.247 . S
O315 Zn311 2.035 . S
O315 C320 1.258 . S
O316 C309 1.247 . S
O316 Zn313 2.028 . S
O317 C309 1.258 . S
O317 Zn311 2.035 . S
O318 Zn311 2.028 . S
O318 C321 1.247 . S
O319 Zn313 2.035 . S
O319 C321 1.258 . S
C320 O314 1.247 . S
C320 O315 1.258 . S
C321 O318 1.247 . S
C321 O319 1.258 . S
C322 O324 1.247 . S
C322 O326 1.258 . S
C323 O330 1.247 . S
C323 O331 1.258 . S
O324 C322 1.247 . S
O324 Zn325 2.028 . S
Zn325 O324 2.028 . S
Zn325 O329 2.035 . S
Zn325 O331 2.035 . S
Zn325 O332 2.028 . S
O326 C322 1.258 . S
O326 Zn327 2.035 . S
Zn327 O326 2.035 . S
Zn327 O328 2.028 . S
Zn327 O330 2.028 . S
Zn327 O333 2.035 . S
O328 Zn327 2.028 . S
O328 C334 1.247 . S
O329 Zn325 2.035 . S
O329 C334 1.258 . S
O330 C323 1.247 . S
O330 Zn327 2.028 . S
O331 C323 1.258 . S
O331 Zn325 2.035 . S
O332 Zn325 2.028 . S
O332 C335 1.247 . S
O333 Zn327 2.035 . S
O333 C335 1.258 . S
C334 O328 1.247 . S
C334 O329 1.258 . S
C335 O332 1.247 . S
C335 O333 1.258 . S
C336 O338 1.247 . S
C336 O340 1.258 . S
C337 O344 1.247 . S
C337 O345 1.258 . S
O338 C336 1.247 . S
O338 Zn339 2.028 1_556 S
Zn339 O338 2.028 1_554 S
Zn339 O343 2.035 . S
Zn339 O345 2.035 . S
Zn339 O346 2.028 . S
O340 C336 1.258 . S
O340 Zn341 2.035 . S
Zn341 O340 2.035 . S
Zn341 O342 2.028 . S
Zn341 O344 2.028 1_556 S
Zn341 O347 2.035 . S
O342 Zn341 2.028 . S
O342 C348 1.244 1_556 S
O343 Zn339 2.035 . S
O343 C348 1.260 . S
O344 C337 1.247 . S
O344 Zn341 2.028 1_554 S
O345 C337 1.258 . S
O345 Zn339 2.035 . S
O346 Zn339 2.028 . S
O346 C349 1.247 . S
O347 Zn341 2.035 . S
O347 C349 1.258 1_556 S
C348 O342 1.244 1_554 S
C348 O343 1.260 . S
C349 O346 1.247 . S
C349 O347 1.258 1_554 S
C350 O352 1.247 1_554 S
C350 O354 1.258 . S
C351 O358 1.249 . S
C351 O359 1.255 1_554 S
O352 C350 1.247 1_556 S
O352 Zn353 2.028 . S
Zn353 O352 2.028 . S
Zn353 O357 2.035 1_556 S
Zn353 O359 2.035 . S
Zn353 O360 2.028 . S
O354 C350 1.258 . S
O354 Zn355 2.035 . S
Zn355 O354 2.035 . S
Zn355 O356 2.028 . S
Zn355 O358 2.028 . S
Zn355 O361 2.035 1_554 S
O356 Zn355 2.028 . S
O356 C362 1.247 . S
O357 Zn353 2.035 1_554 S
O357 C362 1.258 . S
O358 C351 1.249 . S
O358 Zn355 2.028 . S
O359 C351 1.255 1_556 S
O359 Zn353 2.035 . S
O360 Zn353 2.028 . S
O360 C363 1.247 . S
O361 Zn355 2.035 1_556 S
O361 C363 1.258 . S
C362 O356 1.247 . S
C362 O357 1.258 . S
C363 O360 1.247 . S
C363 O361 1.258 . S
C364 O366 1.247 . S
C364 O368 1.258 . S
C365 O372 1.247 . S
C365 O373 1.258 . S
O366 C364 1.247 . S
O366 Zn367 2.028 . S
Zn367 O366 2.028 . S
Zn367 O371 2.035 . S
Zn367 O373 2.035 . S
Zn367 O374 2.028 . S
O368 C364 1.258 . S
O368 Zn369 2.035 . S
Zn369 O368 2.035 . S
Zn369 O370 2.028 . S
Zn369 O372 2.028 . S
Zn369 O375 2.035 . S
O370 Zn369 2.028 . S
O370 C376 1.247 . S
O371 Zn367 2.035 . S
O371 C376 1.258 . S
O372 C365 1.247 . S
O372 Zn369 2.028 . S
O373 C365 1.258 . S
O373 Zn367 2.035 . S
O374 Zn367 2.028 . S
O374 C377 1.247 . S
O375 Zn369 2.035 . S
O375 C377 1.258 . S
C376 O370 1.247 . S
C376 O371 1.258 . S
C377 O374 1.247 . S
C377 O375 1.258 . S
C378 O380 1.247 . S
C378 O382 1.258 . S
C379 O386 1.247 . S
C379 O387 1.258 . S
O380 C378 1.247 . S
O380 Zn381 2.028 . S
Zn381 O380 2.028 . S
Zn381 O385 2.035 . S
Zn381 O387 2.035 . S
Zn381 O388 2.028 . S
O382 C378 1.258 . S
O382 Zn383 2.035 . S
Zn383 O382 2.035 . S
Zn383 O384 2.028 . S
Zn383 O386 2.028 . S
Zn383 O389 2.035 . S
O384 Zn383 2.028 . S
O384 C390 1.247 . S
O385 Zn381 2.035 . S
O385 C390 1.258 . S
O386 C379 1.247 . S
O386 Zn383 2.028 . S
O387 C379 1.258 . S
O387 Zn381 2.035 . S
O388 Zn381 2.028 . S
O388 C391 1.247 . S
O389 Zn383 2.035 . S
O389 C391 1.258 . S
C390 O384 1.247 . S
C390 O385 1.258 . S
C391 O388 1.247 . S
C391 O389 1.258 . S
C392 O394 1.247 . S
C392 O396 1.258 . S
C393 O400 1.247 . S
C393 O401 1.258 . S
O394 C392 1.247 . S
O394 Zn395 2.028 . S
Zn395 O394 2.028 . S
Zn395 O399 2.035 . S
Zn395 O401 2.035 1_554 S
Zn395 O402 2.028 . S
O396 C392 1.258 . S
O396 Zn397 2.035 1_554 S
Zn397 O396 2.035 1_556 S
Zn397 O398 2.028 . S
Zn397 O400 2.028 . S
Zn397 O403 2.035 . S
O398 Zn397 2.028 . S
O398 C404 1.249 . S
O399 Zn395 2.035 . S
O399 C404 1.255 1_554 S
O400 C393 1.247 . S
O400 Zn397 2.028 . S
O401 C393 1.258 . S
O401 Zn395 2.035 1_556 S
O402 Zn395 2.028 . S
O402 C405 1.247 1_554 S
O403 Zn397 2.035 . S
O403 C405 1.258 . S
C404 O398 1.249 . S
C404 O399 1.255 1_556 S
C405 O402 1.247 1_556 S
C405 O403 1.258 . S
C406 O408 1.247 . S
C406 O410 1.258 . S
C407 O414 1.247 . S
C407 O415 1.258 . S
O408 C406 1.247 . S
O408 Zn409 2.028 . S
Zn409 O408 2.028 . S
Zn409 O413 2.035 . S
Zn409 O415 2.035 1_554 S
Zn409 O416 2.028 . S
O410 C406 1.258 . S
O410 Zn411 2.035 1_554 S
Zn411 O410 2.035 1_556 S
Zn411 O412 2.028 . S
Zn411 O414 2.028 . S
Zn411 O417 2.035 . S
O412 Zn411 2.028 . S
O412 C418 1.249 . S
O413 Zn409 2.035 . S
O413 C418 1.255 1_554 S
O414 C407 1.247 . S
O414 Zn411 2.028 . S
O415 C407 1.258 . S
O415 Zn409 2.035 1_556 S
O416 Zn409 2.028 . S
O416 C419 1.247 1_554 S
O417 Zn411 2.035 . S
O417 C419 1.258 . S
C418 O412 1.249 . S
C418 O413 1.255 1_556 S
C419 O416 1.247 1_556 S
C419 O417 1.258 . S
C420 O422 1.247 . S
C420 O424 1.258 . S
C421 O428 1.247 . S
C421 O429 1.258 . S
O422 C420 1.247 . S
O422 Zn423 2.028 . S
Zn423 O422 2.028 . S
Zn423 O427 2.035 . S
Zn423 O429 2.035 . S
Zn423 O430 2.028 . S
O424 C420 1.258 . S
O424 Zn425 2.035 . S
Zn425 O424 2.035 . S
Zn425 O426 2.028 . S
Zn425 O428 2.028 . S
Zn425 O431 2.035 . S
O426 Zn425 2.028 . S
O426 C432 1.247 . S
O427 Zn423 2.035 . S
O427 C432 1.258 . S
O428 C421 1.247 . S
O428 Zn425 2.028 . S
O429 C421 1.258 . S
O429 Zn423 2.035 . S
O430 Zn423 2.028 . S
O430 C433 1.247 . S
O431 Zn425 2.035 . S
O431 C433 1.258 . S
C432 O426 1.247 . S
C432 O427 1.258 . S
C433 O430 1.247 . S
C433 O431 1.258 . S
C434 O436 1.247 . S
C434 O438 1.258 . S
C435 O442 1.247 . S
C435 O443 1.258 . S
O436 C434 1.247 . S
O436 Zn437 2.028 . S
Zn437 O436 2.028 . S
Zn437 O441 2.035 . S
Zn437 O443 2.035 . S
Zn437 O444 2.028 . S
O438 C434 1.258 . S
O438 Zn439 2.035 . S
Zn439 O438 2.035 . S
Zn439 O440 2.028 . S
Zn439 O442 2.028 . S
Zn439 O445 2.035 . S
O440 Zn439 2.028 . S
O440 C446 1.247 . S
O441 Zn437 2.035 . S
O441 C446 1.258 . S
O442 C435 1.247 . S
O442 Zn439 2.028 . S
O443 C435 1.258 . S
O443 Zn437 2.035 . S
O444 Zn437 2.028 . S
O444 C447 1.247 . S
O445 Zn439 2.035 . S
O445 C447 1.258 . S
C446 O440 1.247 . S
C446 O441 1.258 . S
C447 O444 1.247 . S
C447 O445 1.258 . S
H448 C454 0.930 . S
H449 C458 0.930 . S
H450 C463 0.929 . S
H451 C461 0.929 . S
H452 C456 0.929 . S
H453 C462 0.929 . S
C454 H448 0.930 . S
C454 C455 1.367 . S
C454 C462 1.378 . S
C455 C454 1.367 . S
C455 C463 1.433 . S
C456 H452 0.929 . S
C456 C458 1.378 . S
C456 C460 1.350 . S
C457 C460 1.463 . S
C457 C462 1.350 . S
C457 N465 1.427 . S
C458 H449 0.930 . S
C458 C456 1.378 . S
C458 C459 1.367 . S
C459 C458 1.367 . S
C459 C461 1.433 . S
C460 C456 1.350 . S
C460 C457 1.463 . S
C460 N464 1.427 . S
C461 H451 0.929 . S
C461 C459 1.433 . S
C461 N464 1.384 . S
C462 H453 0.929 . S
C462 C454 1.378 . S
C462 C457 1.350 . S
C463 H450 0.929 . S
C463 C455 1.433 . S
C463 N465 1.384 . S
N464 C460 1.427 . S
N464 C461 1.384 . S
N465 C457 1.427 . S
N465 C463 1.384 . S
H466 C472 0.930 . S
H467 C476 0.930 . S
H468 C481 0.929 . S
H469 C479 0.929 1_655 S
H470 C474 0.929 . S
H471 C480 0.929 . S
C472 H466 0.930 . S
C472 C473 1.367 . S
C472 C480 1.378 . S
C473 C472 1.367 . S
C473 C481 1.433 . S
C474 H470 0.929 . S
C474 C476 1.378 . S
C474 C478 1.350 . S
C475 C478 1.463 . S
C475 C480 1.350 . S
C475 N483 1.427 . S
C476 H467 0.930 . S
C476 C474 1.378 . S
C476 C477 1.367 . S
C477 C476 1.367 . S
C477 C479 1.433 . S
C478 C474 1.350 . S
C478 C475 1.463 . S
C478 N482 1.427 . S
C479 H469 0.929 1_455 S
C479 C477 1.433 . S
C479 N482 1.384 . S
C480 H471 0.929 . S
C480 C472 1.378 . S
C480 C475 1.350 . S
C481 H468 0.929 . S
C481 C473 1.433 . S
C481 N483 1.384 . S
N482 C478 1.427 . S
N482 C479 1.384 . S
N483 C475 1.427 . S
N483 C481 1.384 . S
H484 C490 0.930 . S
H485 C494 0.930 . S
H486 C499 0.929 . S
H487 C497 0.929 . S
H488 C492 0.929 . S
H489 C498 0.929 . S
C490 H484 0.930 . S
C490 C491 1.367 . S
C490 C498 1.378 . S
C491 C490 1.367 . S
C491 C499 1.433 . S
C492 H488 0.929 . S
C492 C494 1.378 . S
C492 C496 1.350 . S
C493 C496 1.463 . S
C493 C498 1.350 . S
C493 N501 1.427 . S
C494 H485 0.930 . S
C494 C492 1.378 . S
C494 C495 1.367 . S
C495 C494 1.367 . S
C495 C497 1.433 . S
C496 C492 1.350 . S
C496 C493 1.463 . S
C496 N500 1.427 . S
C497 H487 0.929 . S
C497 C495 1.433 . S
C497 N500 1.384 . S
C498 H489 0.929 . S
C498 C490 1.378 . S
C498 C493 1.350 . S
C499 H486 0.929 . S
C499 C491 1.433 . S
C499 N501 1.384 . S
N500 C496 1.427 . S
N500 C497 1.384 . S
N501 C493 1.427 . S
N501 C499 1.384 . S
H502 C508 0.930 . S
H503 C512 0.930 . S
H504 C517 0.929 . S
H505 C515 0.929 . S
H506 C510 0.929 . S
H507 C516 0.929 . S
C508 H502 0.930 . S
C508 C509 1.367 . S
C508 C516 1.378 . S
C509 C508 1.367 . S
C509 C517 1.433 . S
C510 H506 0.929 . S
C510 C512 1.378 . S
C510 C514 1.350 . S
C511 C514 1.463 . S
C511 C516 1.350 . S
C511 N519 1.427 . S
C512 H503 0.930 . S
C512 C510 1.378 . S
C512 C513 1.367 . S
C513 C512 1.367 . S
C513 C515 1.433 . S
C514 C510 1.350 . S
C514 C511 1.463 . S
C514 N518 1.427 . S
C515 H505 0.929 . S
C515 C513 1.433 . S
C515 N518 1.384 . S
C516 H507 0.929 . S
C516 C508 1.378 . S
C516 C511 1.350 . S
C517 H504 0.929 . S
C517 C509 1.433 . S
C517 N519 1.384 . S
N518 C514 1.427 . S
N518 C515 1.384 . S
N519 C511 1.427 . S
N519 C517 1.384 . S
H520 C526 0.930 . S
H521 C530 0.930 1_655 S
H522 C535 0.929 . S
H523 C533 0.929 . S
H524 C528 0.929 . S
H525 C534 0.929 . S
C526 H520 0.930 . S
C526 C527 1.367 . S
C526 C534 1.378 . S
C527 C526 1.367 . S
C527 C535 1.433 . S
C528 H524 0.929 . S
C528 C530 1.378 . S
C528 C532 1.350 . S
C529 C532 1.463 . S
C529 C534 1.350 . S
C529 N537 1.427 . S
C530 H521 0.930 1_455 S
C530 C528 1.378 . S
C530 C531 1.367 . S
C531 C530 1.367 . S
C531 C533 1.433 . S
C532 C528 1.350 . S
C532 C529 1.463 . S
C532 N536 1.427 . S
C533 H523 0.929 . S
C533 C531 1.433 . S
C533 N536 1.384 . S
C534 H525 0.929 . S
C534 C526 1.378 . S
C534 C529 1.350 . S
C535 H522 0.929 . S
C535 C527 1.433 . S
C535 N537 1.384 . S
N536 C532 1.427 . S
N536 C533 1.384 . S
N537 C529 1.427 . S
N537 C535 1.384 . S
H538 C544 0.930 . S
H539 C548 0.930 . S
H540 C553 0.929 . S
H541 C551 0.929 . S
H542 C546 0.929 . S
H543 C552 0.929 . S
C544 H538 0.930 . S
C544 C545 1.367 . S
C544 C552 1.378 . S
C545 C544 1.367 . S
C545 C553 1.433 . S
C546 H542 0.929 . S
C546 C548 1.378 . S
C546 C550 1.350 . S
C547 C550 1.463 . S
C547 C552 1.350 . S
C547 N555 1.427 . S
C548 H539 0.930 . S
C548 C546 1.378 . S
C548 C549 1.367 . S
C549 C548 1.367 . S
C549 C551 1.433 . S
C550 C546 1.350 . S
C550 C547 1.463 . S
C550 N554 1.427 . S
C551 H541 0.929 . S
C551 C549 1.433 . S
C551 N554 1.384 . S
C552 H543 0.929 . S
C552 C544 1.378 . S
C552 C547 1.350 . S
C553 H540 0.929 . S
C553 C545 1.433 . S
C553 N555 1.384 . S
N554 C550 1.427 . S
N554 C551 1.384 . S
N555 C547 1.427 . S
N555 C553 1.384 . S
H556 C562 0.930 . S
H557 C566 0.930 . S
H558 C571 0.929 . S
H559 C569 0.929 . S
H560 C564 0.929 . S
H561 C570 0.929 . S
C562 H556 0.930 . S
C562 C563 1.367 . S
C562 C570 1.378 . S
C563 C562 1.367 . S
C563 C571 1.433 . S
C564 H560 0.929 . S
C564 C566 1.378 . S
C564 C568 1.350 . S
C565 C568 1.463 . S
C565 C570 1.350 . S
C565 N573 1.427 . S
C566 H557 0.930 . S
C566 C564 1.378 . S
C566 C567 1.367 . S
C567 C566 1.367 . S
C567 C569 1.433 . S
C568 C564 1.350 . S
C568 C565 1.463 . S
C568 N572 1.427 . S
C569 H559 0.929 . S
C569 C567 1.433 . S
C569 N572 1.384 . S
C570 H561 0.929 . S
C570 C562 1.378 . S
C570 C565 1.350 . S
C571 H558 0.929 . S
C571 C563 1.433 . S
C571 N573 1.384 . S
N572 C568 1.427 . S
N572 C569 1.384 . S
N573 C565 1.427 . S
N573 C571 1.384 . S
H574 C580 0.930 . S
H575 C584 0.930 . S
H576 C589 0.929 . S
H577 C587 0.929 1_455 S
H578 C582 0.929 . S
H579 C588 0.929 . S
C580 H574 0.930 . S
C580 C581 1.367 . S
C580 C588 1.378 . S
C581 C580 1.367 . S
C581 C589 1.433 . S
C582 H578 0.929 . S
C582 C584 1.378 . S
C582 C586 1.350 . S
C583 C586 1.463 . S
C583 C588 1.350 . S
C583 N591 1.427 . S
C584 H575 0.930 . S
C584 C582 1.378 . S
C584 C585 1.367 . S
C585 C584 1.367 . S
C585 C587 1.433 . S
C586 C582 1.350 . S
C586 C583 1.463 . S
C586 N590 1.427 . S
C587 H577 0.929 1_655 S
C587 C585 1.433 . S
C587 N590 1.384 . S
C588 H579 0.929 . S
C588 C580 1.378 . S
C588 C583 1.350 . S
C589 H576 0.929 . S
C589 C581 1.433 . S
C589 N591 1.384 . S
N590 C586 1.427 . S
N590 C587 1.384 . S
N591 C583 1.427 . S
N591 C589 1.384 . S
H592 C598 0.930 . S
H593 C602 0.930 . S
H594 C607 0.929 . S
H595 C605 0.929 . S
H596 C600 0.929 . S
H597 C606 0.929 . S
C598 H592 0.930 . S
C598 C599 1.367 . S
C598 C606 1.378 . S
C599 C598 1.367 . S
C599 C607 1.433 . S
C600 H596 0.929 . S
C600 C602 1.378 . S
C600 C604 1.350 . S
C601 C604 1.463 . S
C601 C606 1.350 . S
C601 N609 1.427 . S
C602 H593 0.930 . S
C602 C600 1.378 . S
C602 C603 1.367 . S
C603 C602 1.367 . S
C603 C605 1.433 . S
C604 C600 1.350 . S
C604 C601 1.463 . S
C604 N608 1.427 . S
C605 H595 0.929 . S
C605 C603 1.433 . S
C605 N608 1.384 . S
C606 H597 0.929 . S
C606 C598 1.378 . S
C606 C601 1.350 . S
C607 H594 0.929 . S
C607 C599 1.433 . S
C607 N609 1.384 . S
N608 C604 1.427 . S
N608 C605 1.384 . S
N609 C601 1.427 . S
N609 C607 1.384 . S
H610 C616 0.930 . S
H611 C620 0.930 . S
H612 C625 0.929 . S
H613 C623 0.929 . S
H614 C618 0.929 . S
H615 C624 0.929 . S
C616 H610 0.930 . S
C616 C617 1.367 . S
C616 C624 1.378 . S
C617 C616 1.367 . S
C617 C625 1.433 . S
C618 H614 0.929 . S
C618 C620 1.378 . S
C618 C622 1.350 . S
C619 C622 1.463 . S
C619 C624 1.350 . S
C619 N627 1.427 . S
C620 H611 0.930 . S
C620 C618 1.378 . S
C620 C621 1.367 . S
C621 C620 1.367 . S
C621 C623 1.433 . S
C622 C618 1.350 . S
C622 C619 1.463 . S
C622 N626 1.427 . S
C623 H613 0.929 . S
C623 C621 1.433 . S
C623 N626 1.384 . S
C624 H615 0.929 . S
C624 C616 1.378 . S
C624 C619 1.350 . S
C625 H612 0.929 . S
C625 C617 1.433 . S
C625 N627 1.384 . S
N626 C622 1.427 . S
N626 C623 1.384 . S
N627 C619 1.427 . S
N627 C625 1.384 . S
H628 C634 0.930 . S
H629 C638 0.930 . S
H630 C643 0.929 . S
H631 C641 0.929 . S
H632 C636 0.929 . S
H633 C642 0.929 . S
C634 H628 0.930 . S
C634 C635 1.367 . S
C634 C642 1.378 . S
C635 C634 1.367 . S
C635 C643 1.433 . S
C636 H632 0.929 . S
C636 C638 1.378 . S
C636 C640 1.350 . S
C637 C640 1.463 . S
C637 C642 1.350 . S
C637 N645 1.427 . S
C638 H629 0.930 . S
C638 C636 1.378 . S
C638 C639 1.367 . S
C639 C638 1.367 . S
C639 C641 1.433 . S
C640 C636 1.350 . S
C640 C637 1.463 . S
C640 N644 1.427 . S
C641 H631 0.929 . S
C641 C639 1.433 . S
C641 N644 1.384 . S
C642 H633 0.929 . S
C642 C634 1.378 . S
C642 C637 1.350 . S
C643 H630 0.929 . S
C643 C635 1.433 . S
C643 N645 1.384 . S
N644 C640 1.427 . S
N644 C641 1.384 . S
N645 C637 1.427 . S
N645 C643 1.384 . S
H646 C652 0.930 . S
H647 C656 0.930 . S
H648 C661 0.929 . S
H649 C659 0.929 . S
H650 C654 0.929 . S
H651 C660 0.929 . S
C652 H646 0.930 . S
C652 C653 1.367 . S
C652 C660 1.378 . S
C653 C652 1.367 . S
C653 C661 1.433 . S
C654 H650 0.929 . S
C654 C656 1.378 . S
C654 C658 1.350 . S
C655 C658 1.463 . S
C655 C660 1.350 . S
C655 N663 1.427 . S
C656 H647 0.930 . S
C656 C654 1.378 . S
C656 C657 1.367 . S
C657 C656 1.367 . S
C657 C659 1.433 . S
C658 C654 1.350 . S
C658 C655 1.463 . S
C658 N662 1.427 . S
C659 H649 0.929 . S
C659 C657 1.433 . S
C659 N662 1.384 . S
C660 H651 0.929 . S
C660 C652 1.378 . S
C660 C655 1.350 . S
C661 H648 0.929 . S
C661 C653 1.433 . S
C661 N663 1.384 . S
N662 C658 1.427 . S
N662 C659 1.384 . S
N663 C655 1.427 . S
N663 C661 1.384 . S
H664 C670 0.930 . S
H665 C674 0.930 . S
H666 C679 0.929 . S
H667 C677 0.929 . S
H668 C672 0.929 . S
H669 C678 0.929 . S
C670 H664 0.930 . S
C670 C671 1.367 . S
C670 C678 1.378 . S
C671 C670 1.367 . S
C671 C679 1.433 . S
C672 H668 0.929 . S
C672 C674 1.378 . S
C672 C676 1.350 . S
C673 C676 1.463 . S
C673 C678 1.350 . S
C673 N681 1.427 . S
C674 H665 0.930 . S
C674 C672 1.378 . S
C674 C675 1.367 . S
C675 C674 1.367 . S
C675 C677 1.433 . S
C676 C672 1.350 . S
C676 C673 1.463 . S
C676 N680 1.427 . S
C677 H667 0.929 . S
C677 C675 1.433 . S
C677 N680 1.384 . S
C678 H669 0.929 . S
C678 C670 1.378 . S
C678 C673 1.350 . S
C679 H666 0.929 . S
C679 C671 1.433 . S
C679 N681 1.384 . S
N680 C676 1.427 . S
N680 C677 1.384 . S
N681 C673 1.427 . S
N681 C679 1.384 . S
H682 C688 0.930 . S
H683 C692 0.930 . S
H684 C697 0.929 . S
H685 C695 0.929 . S
H686 C690 0.929 . S
H687 C696 0.929 . S
C688 H682 0.930 . S
C688 C689 1.367 . S
C688 C696 1.378 . S
C689 C688 1.367 . S
C689 C697 1.433 . S
C690 H686 0.929 . S
C690 C692 1.378 . S
C690 C694 1.350 . S
C691 C694 1.463 . S
C691 C696 1.350 . S
C691 N699 1.427 . S
C692 H683 0.930 . S
C692 C690 1.378 . S
C692 C693 1.367 . S
C693 C692 1.367 . S
C693 C695 1.433 . S
C694 C690 1.350 . S
C694 C691 1.463 . S
C694 N698 1.427 . S
C695 H685 0.929 . S
C695 C693 1.433 . S
C695 N698 1.384 . S
C696 H687 0.929 . S
C696 C688 1.378 . S
C696 C691 1.350 . S
C697 H684 0.929 . S
C697 C689 1.433 . S
C697 N699 1.384 . S
N698 C694 1.427 . S
N698 C695 1.384 . S
N699 C691 1.427 . S
N699 C697 1.384 . S
H700 C706 0.930 . S
H701 C710 0.930 . S
H702 C715 0.929 . S
H703 C713 0.929 . S
H704 C708 0.929 . S
H705 C714 0.929 . S
C706 H700 0.930 . S
C706 C707 1.367 . S
C706 C714 1.378 . S
C707 C706 1.367 . S
C707 C715 1.433 . S
C708 H704 0.929 . S
C708 C710 1.378 . S
C708 C712 1.350 . S
C709 C712 1.463 . S
C709 C714 1.350 . S
C709 N717 1.427 . S
C710 H701 0.930 . S
C710 C708 1.378 . S
C710 C711 1.367 . S
C711 C710 1.367 . S
C711 C713 1.433 . S
C712 C708 1.350 . S
C712 C709 1.463 . S
C712 N716 1.427 . S
C713 H703 0.929 . S
C713 C711 1.433 . S
C713 N716 1.384 . S
C714 H705 0.929 . S
C714 C706 1.378 . S
C714 C709 1.350 . S
C715 H702 0.929 . S
C715 C707 1.433 . S
C715 N717 1.384 . S
N716 C712 1.427 . S
N716 C713 1.384 . S
N717 C709 1.427 . S
N717 C715 1.384 . S
H718 C724 0.930 . S
H719 C728 0.930 . S
H720 C733 0.929 . S
H721 C731 0.929 . S
H722 C726 0.929 . S
H723 C732 0.929 . S
C724 H718 0.930 . S
C724 C725 1.367 . S
C724 C732 1.378 . S
C725 C724 1.367 . S
C725 C733 1.433 . S
C726 H722 0.929 . S
C726 C728 1.378 . S
C726 C730 1.350 . S
C727 C730 1.463 . S
C727 C732 1.350 . S
C727 N735 1.427 . S
C728 H719 0.930 . S
C728 C726 1.378 . S
C728 C729 1.367 . S
C729 C728 1.367 . S
C729 C731 1.433 . S
C730 C726 1.350 . S
C730 C727 1.463 . S
C730 N734 1.427 . S
C731 H721 0.929 . S
C731 C729 1.433 . S
C731 N734 1.384 . S
C732 H723 0.929 . S
C732 C724 1.378 . S
C732 C727 1.350 . S
C733 H720 0.929 . S
C733 C725 1.433 . S
C733 N735 1.384 . S
N734 C730 1.427 . S
N734 C731 1.384 . S
N735 C727 1.427 . S
N735 C733 1.384 . S
H736 C742 0.930 . S
H737 C746 0.930 . S
H738 C751 0.929 . S
H739 C749 0.929 . S
H740 C744 0.937 . S
H741 C750 0.937 . S
C742 H736 0.930 . S
C742 C743 1.393 . S
C742 C750 1.378 . S
C743 C742 1.393 . S
C743 C751 1.407 1_554 S
C744 H740 0.937 . S
C744 C746 1.378 . S
C744 C748 1.372 . S
C745 C748 1.461 1_544 S
C745 C750 1.372 . S
C745 N753 1.406 1_554 S
C746 H737 0.930 . S
C746 C744 1.378 . S
C746 C747 1.393 . S
C747 C746 1.393 . S
C747 C749 1.407 1_556 S
C748 C744 1.372 . S
C748 C745 1.461 1_566 S
C748 N752 1.406 1_556 S
C749 H739 0.929 . S
C749 C747 1.407 1_554 S
C749 N752 1.384 . S
C750 H741 0.937 . S
C750 C742 1.378 . S
C750 C745 1.372 . S
C751 H738 0.929 . S
C751 C743 1.407 1_556 S
C751 N753 1.384 . S
N752 C748 1.406 1_554 S
N752 C749 1.384 . S
N753 C745 1.406 1_556 S
N753 C751 1.384 . S
H754 C760 0.930 . S
H755 C764 0.930 . S
H756 C769 0.929 . S
H757 C767 0.929 . S
H758 C762 0.929 . S
H759 C768 0.929 . S
C760 H754 0.930 . S
C760 C761 1.367 . S
C760 C768 1.378 . S
C761 C760 1.367 . S
C761 C769 1.433 1_554 S
C762 H758 0.929 . S
C762 C764 1.378 . S
C762 C766 1.378 . S
C763 C766 1.461 1_554 S
C763 C768 1.375 . S
C763 N771 1.401 1_554 S
C764 H755 0.930 . S
C764 C762 1.378 . S
C764 C765 1.370 . S
C765 C764 1.370 . S
C765 C767 1.430 1_556 S
C766 C762 1.378 . S
C766 C763 1.461 1_556 S
C766 N770 1.398 1_556 S
C767 H757 0.929 . S
C767 C765 1.430 1_554 S
C767 N770 1.384 . S
C768 H759 0.929 . S
C768 C760 1.378 . S
C768 C763 1.375 . S
C769 H756 0.929 . S
C769 C761 1.433 1_556 S
C769 N771 1.384 . S
N770 C766 1.398 1_554 S
N770 C767 1.384 . S
N771 C763 1.401 1_556 S
N771 C769 1.384 . S
H772 C778 0.930 . S
H773 C782 0.930 . S
H774 C787 0.929 . S
H775 C785 0.929 . S
H776 C780 0.929 . S
H777 C786 0.929 . S
C778 H772 0.930 . S
C778 C779 1.367 . S
C778 C786 1.378 . S
C779 C778 1.367 . S
C779 C787 1.433 . S
C780 H776 0.929 . S
C780 C782 1.378 . S
C780 C784 1.350 . S
C781 C784 1.463 . S
C781 C786 1.350 . S
C781 N789 1.427 . S
C782 H773 0.930 . S
C782 C780 1.378 . S
C782 C783 1.367 . S
C783 C782 1.367 . S
C783 C785 1.433 . S
C784 C780 1.350 . S
C784 C781 1.463 . S
C784 N788 1.427 . S
C785 H775 0.929 . S
C785 C783 1.433 . S
C785 N788 1.384 . S
C786 H777 0.929 . S
C786 C778 1.378 . S
C786 C781 1.350 . S
C787 H774 0.929 . S
C787 C779 1.433 . S
C787 N789 1.384 . S
N788 C784 1.427 . S
N788 C785 1.384 . S
N789 C781 1.427 . S
N789 C787 1.384 . S
H790 C796 0.930 . S
H791 C800 0.930 . S
H792 C805 0.929 . S
H793 C803 0.929 . S
H794 C798 0.929 . S
H795 C804 0.929 . S
C796 H790 0.930 . S
C796 C797 1.367 . S
C796 C804 1.378 . S
C797 C796 1.367 . S
C797 C805 1.433 . S
C798 H794 0.929 . S
C798 C800 1.378 . S
C798 C802 1.350 . S
C799 C802 1.463 1_565 S
C799 C804 1.350 . S
C799 N807 1.427 . S
C800 H791 0.930 . S
C800 C798 1.378 . S
C800 C801 1.367 . S
C801 C800 1.367 . S
C801 C803 1.433 . S
C802 C798 1.350 . S
C802 C799 1.463 1_545 S
C802 N806 1.427 . S
C803 H793 0.929 . S
C803 C801 1.433 . S
C803 N806 1.384 . S
C804 H795 0.929 . S
C804 C796 1.378 . S
C804 C799 1.350 . S
C805 H792 0.929 . S
C805 C797 1.433 . S
C805 N807 1.384 . S
N806 C802 1.427 . S
N806 C803 1.384 . S
N807 C799 1.427 . S
N807 C805 1.384 . S
H808 C814 0.930 . S
H809 C818 0.930 . S
H810 C823 0.929 . S
H811 C821 0.929 . S
H812 C816 0.929 . S
H813 C822 0.929 . S
C814 H808 0.930 . S
C814 C815 1.375 . S
C814 C822 1.378 . S
C815 C814 1.375 . S
C815 C823 1.425 1_554 S
C816 H812 0.929 . S
C816 C818 1.378 . S
C816 C820 1.354 . S
C817 C820 1.462 1_554 S
C817 C822 1.355 . S
C817 N825 1.422 1_554 S
C818 H809 0.930 . S
C818 C816 1.378 . S
C818 C819 1.374 . S
C819 C818 1.374 . S
C819 C821 1.426 1_556 S
C820 C816 1.354 . S
C820 C817 1.462 1_556 S
C820 N824 1.423 1_556 S
C821 H811 0.929 . S
C821 C819 1.426 1_554 S
C821 N824 1.384 . S
C822 H813 0.929 . S
C822 C814 1.378 . S
C822 C817 1.355 . S
C823 H810 0.929 . S
C823 C815 1.425 1_556 S
C823 N825 1.384 . S
N824 C820 1.423 1_554 S
N824 C821 1.384 . S
N825 C817 1.422 1_556 S
N825 C823 1.384 . S
H826 C832 0.930 . S
H827 C836 0.930 . S
H828 C841 0.929 . S
H829 C839 0.929 . S
H830 C834 0.929 . S
H831 C840 0.929 . S
C832 H826 0.930 . S
C832 C833 1.367 . S
C832 C840 1.378 . S
C833 C832 1.367 . S
C833 C841 1.433 . S
C834 H830 0.929 . S
C834 C836 1.378 . S
C834 C838 1.350 . S
C835 C838 1.463 . S
C835 C840 1.350 . S
C835 N843 1.427 . S
C836 H827 0.930 . S
C836 C834 1.378 . S
C836 C837 1.367 . S
C837 C836 1.367 . S
C837 C839 1.433 . S
C838 C834 1.350 . S
C838 C835 1.463 . S
C838 N842 1.427 . S
C839 H829 0.929 . S
C839 C837 1.433 . S
C839 N842 1.384 . S
C840 H831 0.929 . S
C840 C832 1.378 . S
C840 C835 1.350 . S
C841 H828 0.929 . S
C841 C833 1.433 . S
C841 N843 1.384 . S
N842 C838 1.427 . S
N842 C839 1.384 . S
N843 C835 1.427 . S
N843 C841 1.384 . S
H844 C850 0.930 . S
H845 C854 0.930 . S
H846 C859 0.929 . S
H847 C857 0.929 . S
H848 C852 0.929 . S
H849 C858 0.929 . S
C850 H844 0.930 . S
C850 C851 1.367 . S
C850 C858 1.378 . S
C851 C850 1.367 . S
C851 C859 1.433 . S
C852 H848 0.929 . S
C852 C854 1.378 . S
C852 C856 1.350 . S
C853 C856 1.463 1_565 S
C853 C858 1.350 . S
C853 N861 1.427 . S
C854 H845 0.930 . S
C854 C852 1.378 . S
C854 C855 1.367 . S
C855 C854 1.367 . S
C855 C857 1.433 . S
C856 C852 1.350 . S
C856 C853 1.463 1_545 S
C856 N860 1.427 . S
C857 H847 0.929 . S
C857 C855 1.433 . S
C857 N860 1.384 . S
C858 H849 0.929 . S
C858 C850 1.378 . S
C858 C853 1.350 . S
C859 H846 0.929 . S
C859 C851 1.433 . S
C859 N861 1.384 . S
N860 C856 1.427 . S
N860 C857 1.384 . S
N861 C853 1.427 . S
N861 C859 1.384 . S
H862 C868 0.930 . S
H863 C872 0.930 . S
H864 C877 0.929 . S
H865 C875 0.929 . S
H866 C870 0.929 . S
H867 C876 0.929 . S
C868 H862 0.930 . S
C868 C869 1.367 . S
C868 C876 1.378 . S
C869 C868 1.367 . S
C869 C877 1.433 . S
C870 H866 0.929 . S
C870 C872 1.378 . S
C870 C874 1.350 . S
C871 C874 1.463 . S
C871 C876 1.350 . S
C871 N879 1.427 . S
C872 H863 0.930 . S
C872 C870 1.378 . S
C872 C873 1.367 . S
C873 C872 1.367 . S
C873 C875 1.433 . S
C874 C870 1.350 . S
C874 C871 1.463 . S
C874 N878 1.427 . S
C875 H865 0.929 . S
C875 C873 1.433 . S
C875 N878 1.384 . S
C876 H867 0.929 . S
C876 C868 1.378 . S
C876 C871 1.350 . S
C877 H864 0.929 . S
C877 C869 1.433 . S
C877 N879 1.384 . S
N878 C874 1.427 . S
N878 C875 1.384 . S
N879 C871 1.427 . S
N879 C877 1.384 . S
H880 C886 0.930 . S
H881 C890 0.930 . S
H882 C895 0.929 . S
H883 C893 0.929 . S
H884 C888 0.929 . S
H885 C894 0.929 . S
C886 H880 0.930 . S
C886 C887 1.367 . S
C886 C894 1.378 . S
C887 C886 1.367 . S
C887 C895 1.433 . S
C888 H884 0.929 . S
C888 C890 1.378 . S
C888 C892 1.350 . S
C889 C892 1.463 . S
C889 C894 1.350 . S
C889 N897 1.427 . S
C890 H881 0.930 . S
C890 C888 1.378 . S
C890 C891 1.367 . S
C891 C890 1.367 . S
C891 C893 1.433 . S
C892 C888 1.350 . S
C892 C889 1.463 . S
C892 N896 1.427 . S
C893 H883 0.929 . S
C893 C891 1.433 . S
C893 N896 1.384 . S
C894 H885 0.929 . S
C894 C886 1.378 . S
C894 C889 1.350 . S
C895 H882 0.929 . S
C895 C887 1.433 . S
C895 N897 1.384 . S
N896 C892 1.427 . S
N896 C893 1.384 . S
N897 C889 1.427 . S
N897 C895 1.384 . S
H898 C904 0.930 . S
H899 C908 0.930 . S
H900 C913 0.929 . S
H901 C911 0.929 . S
H902 C906 0.929 . S
H903 C912 0.929 . S
C904 H898 0.930 . S
C904 C905 1.367 . S
C904 C912 1.378 . S
C905 C904 1.367 . S
C905 C913 1.433 . S
C906 H902 0.929 . S
C906 C908 1.378 . S
C906 C910 1.350 . S
C907 C910 1.463 . S
C907 C912 1.350 . S
C907 N915 1.427 . S
C908 H899 0.930 . S
C908 C906 1.378 . S
C908 C909 1.367 . S
C909 C908 1.367 . S
C909 C911 1.433 . S
C910 C906 1.350 . S
C910 C907 1.463 . S
C910 N914 1.427 . S
C911 H901 0.929 . S
C911 C909 1.433 . S
C911 N914 1.384 . S
C912 H903 0.929 . S
C912 C904 1.378 . S
C912 C907 1.350 . S
C913 H900 0.929 . S
C913 C905 1.433 . S
C913 N915 1.384 . S
N914 C910 1.427 . S
N914 C911 1.384 . S
N915 C907 1.427 . S
N915 C913 1.384 . S
H916 C922 0.930 . S
H917 C926 0.930 . S
H918 C931 0.929 . S
H919 C929 0.929 . S
H920 C924 0.929 . S
H921 C930 0.929 . S
C922 H916 0.930 . S
C922 C923 1.367 . S
C922 C930 1.378 . S
C923 C922 1.367 . S
C923 C931 1.433 . S
C924 H920 0.929 . S
C924 C926 1.378 . S
C924 C928 1.350 . S
C925 C928 1.463 . S
C925 C930 1.350 . S
C925 N933 1.427 . S
C926 H917 0.930 . S
C926 C924 1.378 . S
C926 C927 1.367 . S
C927 C926 1.367 . S
C927 C929 1.433 . S
C928 C924 1.350 . S
C928 C925 1.463 . S
C928 N932 1.427 . S
C929 H919 0.929 . S
C929 C927 1.433 . S
C929 N932 1.384 . S
C930 H921 0.929 . S
C930 C922 1.378 . S
C930 C925 1.350 . S
C931 H918 0.929 . S
C931 C923 1.433 . S
C931 N933 1.384 . S
N932 C928 1.427 . S
N932 C929 1.384 . S
N933 C925 1.427 . S
N933 C931 1.384 . S
H934 C940 0.930 . S
H935 C944 0.930 . S
H936 C949 0.929 . S
H937 C947 0.929 . S
H938 C942 0.929 . S
H939 C948 0.929 . S
C940 H934 0.930 . S
C940 C941 1.367 . S
C940 C948 1.378 . S
C941 C940 1.367 . S
C941 C949 1.433 . S
C942 H938 0.929 . S
C942 C944 1.378 . S
C942 C946 1.350 . S
C943 C946 1.463 . S
C943 C948 1.350 . S
C943 N951 1.427 . S
C944 H935 0.930 . S
C944 C942 1.378 . S
C944 C945 1.367 . S
C945 C944 1.367 . S
C945 C947 1.433 . S
C946 C942 1.350 . S
C946 C943 1.463 . S
C946 N950 1.427 . S
C947 H937 0.929 . S
C947 C945 1.433 . S
C947 N950 1.384 . S
C948 H939 0.929 . S
C948 C940 1.378 . S
C948 C943 1.350 . S
C949 H936 0.929 . S
C949 C941 1.433 . S
C949 N951 1.384 . S
N950 C946 1.427 . S
N950 C947 1.384 . S
N951 C943 1.427 . S
N951 C949 1.384 . S
H952 C958 0.930 . S
H953 C962 0.930 . S
H954 C967 0.929 . S
H955 C965 0.929 . S
H956 C960 0.929 1_455 S
H957 C966 0.929 1_655 S
C958 H952 0.930 . S
C958 C959 1.367 . S
C958 C966 1.378 . S
C959 C958 1.367 . S
C959 C967 1.433 . S
C960 H956 0.929 1_655 S
C960 C962 1.378 . S
C960 C964 1.350 . S
C961 C964 1.463 1_465 S
C961 C966 1.350 . S
C961 N969 1.427 . S
C962 H953 0.930 . S
C962 C960 1.378 . S
C962 C963 1.367 . S
C963 C962 1.367 . S
C963 C965 1.433 . S
C964 C960 1.350 . S
C964 C961 1.463 1_645 S
C964 N968 1.427 . S
C965 H955 0.929 . S
C965 C963 1.433 . S
C965 N968 1.384 . S
C966 H957 0.929 1_455 S
C966 C958 1.378 . S
C966 C961 1.350 . S
C967 H954 0.929 . S
C967 C959 1.433 . S
C967 N969 1.384 . S
N968 C964 1.427 . S
N968 C965 1.384 . S
N969 C961 1.427 . S
N969 C967 1.384 . S
H970 C976 0.930 . S
H971 C980 0.930 . S
H972 C985 0.929 . S
H973 C983 0.929 . S
H974 C978 0.929 . S
H975 C984 0.929 . S
C976 H970 0.930 . S
C976 C977 1.367 . S
C976 C984 1.378 . S
C977 C976 1.367 . S
C977 C985 1.433 . S
C978 H974 0.929 . S
C978 C980 1.378 . S
C978 C982 1.350 . S
C979 C982 1.463 1_655 S
C979 C984 1.350 . S
C979 N987 1.427 . S
C980 H971 0.930 . S
C980 C978 1.378 . S
C980 C981 1.367 . S
C981 C980 1.367 . S
C981 C983 1.433 . S
C982 C978 1.350 . S
C982 C979 1.463 1_455 S
C982 N986 1.427 . S
C983 H973 0.929 . S
C983 C981 1.433 . S
C983 N986 1.384 . S
C984 H975 0.929 . S
C984 C976 1.378 . S
C984 C979 1.350 . S
C985 H972 0.929 . S
C985 C977 1.433 . S
C985 N987 1.384 . S
N986 C982 1.427 . S
N986 C983 1.384 . S
N987 C979 1.427 . S
N987 C985 1.384 . S
H988 C994 0.930 . S
H989 C998 0.930 . S
H990 C1003 0.929 . S
H991 C1001 0.929 . S
H992 C996 0.929 . S
H993 C1002 0.929 . S
C994 H988 0.930 . S
C994 C995 1.367 . S
C994 C1002 1.378 . S
C995 C994 1.367 . S
C995 C1003 1.433 . S
C996 H992 0.929 . S
C996 C998 1.378 . S
C996 C1000 1.350 . S
C997 C1000 1.463 1_455 S
C997 C1002 1.350 . S
C997 N1005 1.427 . S
C998 H989 0.930 . S
C998 C996 1.378 . S
C998 C999 1.367 . S
C999 C998 1.367 . S
C999 C1001 1.433 . S
C1000 C996 1.350 . S
C1000 C997 1.463 1_655 S
C1000 N1004 1.427 . S
C1001 H991 0.929 . S
C1001 C999 1.433 . S
C1001 N1004 1.384 . S
C1002 H993 0.929 . S
C1002 C994 1.378 . S
C1002 C997 1.350 . S
C1003 H990 0.929 . S
C1003 C995 1.433 . S
C1003 N1005 1.384 . S
N1004 C1000 1.427 . S
N1004 C1001 1.384 . S
N1005 C997 1.427 . S
N1005 C1003 1.384 . S
H1006 C1012 0.930 . S
H1007 C1016 0.930 . S
H1008 C1021 0.929 . S
H1009 C1019 0.929 . S
H1010 C1014 0.929 . S
H1011 C1020 0.929 . S
C1012 H1006 0.930 . S
C1012 C1013 1.401 . S
C1012 C1020 1.378 . S
C1013 C1012 1.401 . S
C1013 C1021 1.399 1_556 S
C1014 H1010 0.929 . S
C1014 C1016 1.378 . S
C1014 C1018 1.381 . S
C1015 C1018 1.460 1_456 S
C1015 C1020 1.381 . S
C1015 N1023 1.396 1_556 S
C1016 H1007 0.930 . S
C1016 C1014 1.378 . S
C1016 C1017 1.401 . S
C1017 C1016 1.401 . S
C1017 C1019 1.399 1_554 S
C1018 C1014 1.381 . S
C1018 C1015 1.460 1_654 S
C1018 N1022 1.396 1_554 S
C1019 H1009 0.929 . S
C1019 C1017 1.399 1_556 S
C1019 N1022 1.384 . S
C1020 H1011 0.929 . S
C1020 C1012 1.378 . S
C1020 C1015 1.381 . S
C1021 H1008 0.929 . S
C1021 C1013 1.399 1_554 S
C1021 N1023 1.384 . S
N1022 C1018 1.396 1_556 S
N1022 C1019 1.384 . S
N1023 C1015 1.396 1_554 S
N1023 C1021 1.384 . S
H1024 C1030 0.930 . S
H1025 C1034 0.930 . S
H1026 C1039 0.929 . S
H1027 C1037 0.929 . S
H1028 C1032 0.929 . S
H1029 C1038 0.929 . S
C1030 H1024 0.930 . S
C1030 C1031 1.367 . S
C1030 C1038 1.378 . S
C1031 C1030 1.367 . S
C1031 C1039 1.433 . S
C1032 H1028 0.929 . S
C1032 C1034 1.378 . S
C1032 C1036 1.350 . S
C1033 C1036 1.463 . S
C1033 C1038 1.350 . S
C1033 N1041 1.427 . S
C1034 H1025 0.930 . S
C1034 C1032 1.378 . S
C1034 C1035 1.367 . S
C1035 C1034 1.367 . S
C1035 C1037 1.433 . S
C1036 C1032 1.350 . S
C1036 C1033 1.463 . S
C1036 N1040 1.427 . S
C1037 H1027 0.929 . S
C1037 C1035 1.433 . S
C1037 N1040 1.384 . S
C1038 H1029 0.929 . S
C1038 C1030 1.378 . S
C1038 C1033 1.350 . S
C1039 H1026 0.929 . S
C1039 C1031 1.433 . S
C1039 N1041 1.384 . S
N1040 C1036 1.427 . S
N1040 C1037 1.384 . S
N1041 C1033 1.427 . S
N1041 C1039 1.384 . S
H1042 C1048 0.930 1_455 S
H1043 C1052 0.930 . S
H1044 C1057 0.929 . S
H1045 C1055 0.929 . S
H1046 C1050 0.929 . S
H1047 C1056 0.929 . S
C1048 H1042 0.930 1_655 S
C1048 C1049 1.367 . S
C1048 C1056 1.378 . S
C1049 C1048 1.367 . S
C1049 C1057 1.433 . S
C1050 H1046 0.929 . S
C1050 C1052 1.378 . S
C1050 C1054 1.350 . S
C1051 C1054 1.463 . S
C1051 C1056 1.350 . S
C1051 N1059 1.427 . S
C1052 H1043 0.930 . S
C1052 C1050 1.378 . S
C1052 C1053 1.367 . S
C1053 C1052 1.367 . S
C1053 C1055 1.433 . S
C1054 C1050 1.350 . S
C1054 C1051 1.463 . S
C1054 N1058 1.427 . S
C1055 H1045 0.929 . S
C1055 C1053 1.433 . S
C1055 N1058 1.384 . S
C1056 H1047 0.929 . S
C1056 C1048 1.378 . S
C1056 C1051 1.350 . S
C1057 H1044 0.929 . S
C1057 C1049 1.433 . S
C1057 N1059 1.384 . S
N1058 C1054 1.427 . S
N1058 C1055 1.384 . S
N1059 C1051 1.427 . S
N1059 C1057 1.384 . S
H1060 C1066 0.930 . S
H1061 C1070 0.930 . S
H1062 C1075 0.929 . S
H1063 C1073 0.929 . S
H1064 C1068 0.929 . S
H1065 C1074 0.929 . S
C1066 H1060 0.930 . S
C1066 C1067 1.367 . S
C1066 C1074 1.378 . S
C1067 C1066 1.367 . S
C1067 C1075 1.433 . S
C1068 H1064 0.929 . S
C1068 C1070 1.378 . S
C1068 C1072 1.350 . S
C1069 C1072 1.463 . S
C1069 C1074 1.350 . S
C1069 N1077 1.427 . S
C1070 H1061 0.930 . S
C1070 C1068 1.378 . S
C1070 C1071 1.367 . S
C1071 C1070 1.367 . S
C1071 C1073 1.433 . S
C1072 C1068 1.350 . S
C1072 C1069 1.463 . S
C1072 N1076 1.427 . S
C1073 H1063 0.929 . S
C1073 C1071 1.433 . S
C1073 N1076 1.384 . S
C1074 H1065 0.929 . S
C1074 C1066 1.378 . S
C1074 C1069 1.350 . S
C1075 H1062 0.929 . S
C1075 C1067 1.433 . S
C1075 N1077 1.384 . S
N1076 C1072 1.427 . S
N1076 C1073 1.384 . S
N1077 C1069 1.427 . S
N1077 C1075 1.384 . S
H1078 C1084 0.930 . S
H1079 C1088 0.930 . S
H1080 C1093 0.929 . S
H1081 C1091 0.929 . S
H1082 C1086 0.929 . S
H1083 C1092 0.929 . S
C1084 H1078 0.930 . S
C1084 C1085 1.367 . S
C1084 C1092 1.378 . S
C1085 C1084 1.367 . S
C1085 C1093 1.433 . S
C1086 H1082 0.929 . S
C1086 C1088 1.378 . S
C1086 C1090 1.350 . S
C1087 C1090 1.463 . S
C1087 C1092 1.350 . S
C1087 N1095 1.427 . S
C1088 H1079 0.930 . S
C1088 C1086 1.378 . S
C1088 C1089 1.367 . S
C1089 C1088 1.367 . S
C1089 C1091 1.433 . S
C1090 C1086 1.350 . S
C1090 C1087 1.463 . S
C1090 N1094 1.427 . S
C1091 H1081 0.929 . S
C1091 C1089 1.433 . S
C1091 N1094 1.384 . S
C1092 H1083 0.929 . S
C1092 C1084 1.378 . S
C1092 C1087 1.350 . S
C1093 H1080 0.929 . S
C1093 C1085 1.433 . S
C1093 N1095 1.384 . S
N1094 C1090 1.427 . S
N1094 C1091 1.384 . S
N1095 C1087 1.427 . S
N1095 C1093 1.384 . S
H1096 C1102 0.930 . S
H1097 C1106 0.930 . S
H1098 C1111 0.929 . S
H1099 C1109 0.929 . S
H1100 C1104 0.929 . S
H1101 C1110 0.929 . S
C1102 H1096 0.930 . S
C1102 C1103 1.367 . S
C1102 C1110 1.378 . S
C1103 C1102 1.367 . S
C1103 C1111 1.433 . S
C1104 H1100 0.929 . S
C1104 C1106 1.378 . S
C1104 C1108 1.350 . S
C1105 C1108 1.463 . S
C1105 C1110 1.350 . S
C1105 N1113 1.427 . S
C1106 H1097 0.930 . S
C1106 C1104 1.378 . S
C1106 C1107 1.367 . S
C1107 C1106 1.367 . S
C1107 C1109 1.433 . S
C1108 C1104 1.350 . S
C1108 C1105 1.463 . S
C1108 N1112 1.427 . S
C1109 H1099 0.929 . S
C1109 C1107 1.433 . S
C1109 N1112 1.384 . S
C1110 H1101 0.929 . S
C1110 C1102 1.378 . S
C1110 C1105 1.350 . S
C1111 H1098 0.929 . S
C1111 C1103 1.433 . S
C1111 N1113 1.384 . S
N1112 C1108 1.427 . S
N1112 C1109 1.384 . S
N1113 C1105 1.427 . S
N1113 C1111 1.384 . S
H1114 C1120 0.930 . S
H1115 C1124 0.930 . S
H1116 C1129 0.929 . S
H1117 C1127 0.929 . S
H1118 C1122 0.929 . S
H1119 C1128 0.929 . S
C1120 H1114 0.930 . S
C1120 C1121 1.367 . S
C1120 C1128 1.378 . S
C1121 C1120 1.367 . S
C1121 C1129 1.433 . S
C1122 H1118 0.929 . S
C1122 C1124 1.378 . S
C1122 C1126 1.350 . S
C1123 C1126 1.463 . S
C1123 C1128 1.350 . S
C1123 N1131 1.427 . S
C1124 H1115 0.930 . S
C1124 C1122 1.378 . S
C1124 C1125 1.367 . S
C1125 C1124 1.367 . S
C1125 C1127 1.433 . S
C1126 C1122 1.350 . S
C1126 C1123 1.463 . S
C1126 N1130 1.427 . S
C1127 H1117 0.929 . S
C1127 C1125 1.433 . S
C1127 N1130 1.384 . S
C1128 H1119 0.929 . S
C1128 C1120 1.378 . S
C1128 C1123 1.350 . S
C1129 H1116 0.929 . S
C1129 C1121 1.433 . S
C1129 N1131 1.384 . S
N1130 C1126 1.427 . S
N1130 C1127 1.384 . S
N1131 C1123 1.427 . S
N1131 C1129 1.384 . S
H1132 C1138 0.930 . S
H1133 C1142 0.930 . S
H1134 C1147 0.929 . S
H1135 C1145 0.929 . S
H1136 C1140 0.929 . S
H1137 C1146 0.929 . S
C1138 H1132 0.930 . S
C1138 C1139 1.367 . S
C1138 C1146 1.378 . S
C1139 C1138 1.367 . S
C1139 C1147 1.433 . S
C1140 H1136 0.929 . S
C1140 C1142 1.378 . S
C1140 C1144 1.350 . S
C1141 C1144 1.463 . S
C1141 C1146 1.350 . S
C1141 N1149 1.427 . S
C1142 H1133 0.930 . S
C1142 C1140 1.378 . S
C1142 C1143 1.367 . S
C1143 C1142 1.367 . S
C1143 C1145 1.433 . S
C1144 C1140 1.350 . S
C1144 C1141 1.463 . S
C1144 N1148 1.427 . S
C1145 H1135 0.929 . S
C1145 C1143 1.433 . S
C1145 N1148 1.384 . S
C1146 H1137 0.929 . S
C1146 C1138 1.378 . S
C1146 C1141 1.350 . S
C1147 H1134 0.929 . S
C1147 C1139 1.433 . S
C1147 N1149 1.384 . S
N1148 C1144 1.427 . S
N1148 C1145 1.384 . S
N1149 C1141 1.427 . S
N1149 C1147 1.384 . S
H1150 C1156 0.930 . S
H1151 C1160 0.930 . S
H1152 C1165 0.929 . S
H1153 C1163 0.929 . S
H1154 C1158 0.929 . S
H1155 C1164 0.929 . S
C1156 H1150 0.930 . S
C1156 C1157 1.367 . S
C1156 C1164 1.378 . S
C1157 C1156 1.367 . S
C1157 C1165 1.433 . S
C1158 H1154 0.929 . S
C1158 C1160 1.378 . S
C1158 C1162 1.350 . S
C1159 C1162 1.463 . S
C1159 C1164 1.350 . S
C1159 N1167 1.427 . S
C1160 H1151 0.930 . S
C1160 C1158 1.378 . S
C1160 C1161 1.367 . S
C1161 C1160 1.367 . S
C1161 C1163 1.433 . S
C1162 C1158 1.350 . S
C1162 C1159 1.463 . S
C1162 N1166 1.427 . S
C1163 H1153 0.929 . S
C1163 C1161 1.433 . S
C1163 N1166 1.384 . S
C1164 H1155 0.929 . S
C1164 C1156 1.378 . S
C1164 C1159 1.350 . S
C1165 H1152 0.929 . S
C1165 C1157 1.433 . S
C1165 N1167 1.384 . S
N1166 C1162 1.427 . S
N1166 C1163 1.384 . S
N1167 C1159 1.427 . S
N1167 C1165 1.384 . S
H1168 C1174 0.930 . S
H1169 C1178 0.930 . S
H1170 C1183 0.929 . S
H1171 C1181 0.929 . S
H1172 C1176 0.929 . S
H1173 C1182 0.929 . S
C1174 H1168 0.930 . S
C1174 C1175 1.367 . S
C1174 C1182 1.378 . S
C1175 C1174 1.367 . S
C1175 C1183 1.433 . S
C1176 H1172 0.929 . S
C1176 C1178 1.378 . S
C1176 C1180 1.350 . S
C1177 C1180 1.463 . S
C1177 C1182 1.350 . S
C1177 N1185 1.427 . S
C1178 H1169 0.930 . S
C1178 C1176 1.378 . S
C1178 C1179 1.367 . S
C1179 C1178 1.367 . S
C1179 C1181 1.433 . S
C1180 C1176 1.350 . S
C1180 C1177 1.463 . S
C1180 N1184 1.427 . S
C1181 H1171 0.929 . S
C1181 C1179 1.433 . S
C1181 N1184 1.384 . S
C1182 H1173 0.929 . S
C1182 C1174 1.378 . S
C1182 C1177 1.350 . S
C1183 H1170 0.929 . S
C1183 C1175 1.433 . S
C1183 N1185 1.384 . S
N1184 C1180 1.427 . S
N1184 C1181 1.384 . S
N1185 C1177 1.427 . S
N1185 C1183 1.384 . S
H1186 C1192 0.930 . S
H1187 C1196 0.930 . S
H1188 C1201 0.929 . S
H1189 C1199 0.929 . S
H1190 C1194 0.929 . S
H1191 C1200 0.929 . S
C1192 H1186 0.930 . S
C1192 C1193 1.367 . S
C1192 C1200 1.378 . S
C1193 C1192 1.367 . S
C1193 C1201 1.433 . S
C1194 H1190 0.929 . S
C1194 C1196 1.378 . S
C1194 C1198 1.350 . S
C1195 C1198 1.463 . S
C1195 C1200 1.350 . S
C1195 N1203 1.427 . S
C1196 H1187 0.930 . S
C1196 C1194 1.378 . S
C1196 C1197 1.367 . S
C1197 C1196 1.367 . S
C1197 C1199 1.433 . S
C1198 C1194 1.350 . S
C1198 C1195 1.463 . S
C1198 N1202 1.427 . S
C1199 H1189 0.929 . S
C1199 C1197 1.433 . S
C1199 N1202 1.384 . S
C1200 H1191 0.929 . S
C1200 C1192 1.378 . S
C1200 C1195 1.350 . S
C1201 H1188 0.929 . S
C1201 C1193 1.433 . S
C1201 N1203 1.384 . S
N1202 C1198 1.427 . S
N1202 C1199 1.384 . S
N1203 C1195 1.427 . S
N1203 C1201 1.384 . S
H1204 C1210 0.930 . S
H1205 C1214 0.930 . S
H1206 C1219 0.929 . S
H1207 C1217 0.929 . S
H1208 C1212 0.929 . S
H1209 C1218 0.929 . S
C1210 H1204 0.930 . S
C1210 C1211 1.367 . S
C1210 C1218 1.378 . S
C1211 C1210 1.367 . S
C1211 C1219 1.433 . S
C1212 H1208 0.929 . S
C1212 C1214 1.378 . S
C1212 C1216 1.350 . S
C1213 C1216 1.463 . S
C1213 C1218 1.350 . S
C1213 N1221 1.427 . S
C1214 H1205 0.930 . S
C1214 C1212 1.378 . S
C1214 C1215 1.367 . S
C1215 C1214 1.367 . S
C1215 C1217 1.433 . S
C1216 C1212 1.350 . S
C1216 C1213 1.463 . S
C1216 N1220 1.427 . S
C1217 H1207 0.929 . S
C1217 C1215 1.433 . S
C1217 N1220 1.384 . S
C1218 H1209 0.929 . S
C1218 C1210 1.378 . S
C1218 C1213 1.350 . S
C1219 H1206 0.929 . S
C1219 C1211 1.433 . S
C1219 N1221 1.384 . S
N1220 C1216 1.427 . S
N1220 C1217 1.384 . S
N1221 C1213 1.427 . S
N1221 C1219 1.384 . S
H1222 C1228 0.930 . S
H1223 C1232 0.930 . S
H1224 C1237 0.929 . S
H1225 C1235 0.929 . S
H1226 C1230 0.929 . S
H1227 C1236 0.929 . S
C1228 H1222 0.930 . S
C1228 C1229 1.367 . S
C1228 C1236 1.378 . S
C1229 C1228 1.367 . S
C1229 C1237 1.433 . S
C1230 H1226 0.929 . S
C1230 C1232 1.378 . S
C1230 C1234 1.350 . S
C1231 C1234 1.463 . S
C1231 C1236 1.350 . S
C1231 N1239 1.427 . S
C1232 H1223 0.930 . S
C1232 C1230 1.378 . S
C1232 C1233 1.367 . S
C1233 C1232 1.367 . S
C1233 C1235 1.433 . S
C1234 C1230 1.350 . S
C1234 C1231 1.463 . S
C1234 N1238 1.427 . S
C1235 H1225 0.929 . S
C1235 C1233 1.433 . S
C1235 N1238 1.384 . S
C1236 H1227 0.929 . S
C1236 C1228 1.378 . S
C1236 C1231 1.350 . S
C1237 H1224 0.929 . S
C1237 C1229 1.433 . S
C1237 N1239 1.384 . S
N1238 C1234 1.427 . S
N1238 C1235 1.384 . S
N1239 C1231 1.427 . S
N1239 C1237 1.384 . S
H1240 C1246 0.930 . S
H1241 C1250 0.930 . S
H1242 C1255 0.929 . S
H1243 C1253 0.929 . S
H1244 C1248 0.929 . S
H1245 C1254 0.929 . S
C1246 H1240 0.930 . S
C1246 C1247 1.367 . S
C1246 C1254 1.378 . S
C1247 C1246 1.367 . S
C1247 C1255 1.433 . S
C1248 H1244 0.929 . S
C1248 C1250 1.378 . S
C1248 C1252 1.350 . S
C1249 C1252 1.463 . S
C1249 C1254 1.350 . S
C1249 N1257 1.427 . S
C1250 H1241 0.930 . S
C1250 C1248 1.378 . S
C1250 C1251 1.367 . S
C1251 C1250 1.367 . S
C1251 C1253 1.433 . S
C1252 C1248 1.350 . S
C1252 C1249 1.463 . S
C1252 N1256 1.427 . S
C1253 H1243 0.929 . S
C1253 C1251 1.433 . S
C1253 N1256 1.384 . S
C1254 H1245 0.929 . S
C1254 C1246 1.378 . S
C1254 C1249 1.350 . S
C1255 H1242 0.929 . S
C1255 C1247 1.433 . S
C1255 N1257 1.384 . S
N1256 C1252 1.427 . S
N1256 C1253 1.384 . S
N1257 C1249 1.427 . S
N1257 C1255 1.384 . S
H1258 C1264 0.930 . S
H1259 C1268 0.930 . S
H1260 C1273 0.929 . S
H1261 C1271 0.929 . S
H1262 C1266 0.929 . S
H1263 C1272 0.929 . S
C1264 H1258 0.930 . S
C1264 C1265 1.367 . S
C1264 C1272 1.378 . S
C1265 C1264 1.367 . S
C1265 C1273 1.433 . S
C1266 H1262 0.929 . S
C1266 C1268 1.378 . S
C1266 C1270 1.350 . S
C1267 C1270 1.463 . S
C1267 C1272 1.350 . S
C1267 N1275 1.427 . S
C1268 H1259 0.930 . S
C1268 C1266 1.378 . S
C1268 C1269 1.367 . S
C1269 C1268 1.367 . S
C1269 C1271 1.433 . S
C1270 C1266 1.350 . S
C1270 C1267 1.463 . S
C1270 N1274 1.427 . S
C1271 H1261 0.929 . S
C1271 C1269 1.433 . S
C1271 N1274 1.384 . S
C1272 H1263 0.929 . S
C1272 C1264 1.378 . S
C1272 C1267 1.350 . S
C1273 H1260 0.929 . S
C1273 C1265 1.433 . S
C1273 N1275 1.384 . S
N1274 C1270 1.427 . S
N1274 C1271 1.384 . S
N1275 C1267 1.427 . S
N1275 C1273 1.384 . S
H1276 C1282 0.930 . S
H1277 C1286 0.930 . S
H1278 C1291 0.929 . S
H1279 C1289 0.929 . S
H1280 C1284 0.929 . S
H1281 C1290 0.929 . S
C1282 H1276 0.930 . S
C1282 C1283 1.367 . S
C1282 C1290 1.378 . S
C1283 C1282 1.367 . S
C1283 C1291 1.433 . S
C1284 H1280 0.929 . S
C1284 C1286 1.378 . S
C1284 C1288 1.350 . S
C1285 C1288 1.463 . S
C1285 C1290 1.350 . S
C1285 N1293 1.427 . S
C1286 H1277 0.930 . S
C1286 C1284 1.378 . S
C1286 C1287 1.367 . S
C1287 C1286 1.367 . S
C1287 C1289 1.433 . S
C1288 C1284 1.350 . S
C1288 C1285 1.463 . S
C1288 N1292 1.427 . S
C1289 H1279 0.929 . S
C1289 C1287 1.433 . S
C1289 N1292 1.384 . S
C1290 H1281 0.929 . S
C1290 C1282 1.378 . S
C1290 C1285 1.350 . S
C1291 H1278 0.929 . S
C1291 C1283 1.433 . S
C1291 N1293 1.384 . S
N1292 C1288 1.427 . S
N1292 C1289 1.384 . S
N1293 C1285 1.427 . S
N1293 C1291 1.384 . S
H1294 C1300 0.930 . S
H1295 C1304 0.930 . S
H1296 C1309 0.929 . S
H1297 C1307 0.929 . S
H1298 C1302 0.929 . S
H1299 C1308 0.929 . S
C1300 H1294 0.930 . S
C1300 C1301 1.367 . S
C1300 C1308 1.378 . S
C1301 C1300 1.367 . S
C1301 C1309 1.433 . S
C1302 H1298 0.929 . S
C1302 C1304 1.378 . S
C1302 C1306 1.350 . S
C1303 C1306 1.463 . S
C1303 C1308 1.350 . S
C1303 N1311 1.427 . S
C1304 H1295 0.930 . S
C1304 C1302 1.378 . S
C1304 C1305 1.367 . S
C1305 C1304 1.367 . S
C1305 C1307 1.433 . S
C1306 C1302 1.350 . S
C1306 C1303 1.463 . S
C1306 N1310 1.427 . S
C1307 H1297 0.929 . S
C1307 C1305 1.433 . S
C1307 N1310 1.384 . S
C1308 H1299 0.929 . S
C1308 C1300 1.378 . S
C1308 C1303 1.350 . S
C1309 H1296 0.929 . S
C1309 C1301 1.433 . S
C1309 N1311 1.384 . S
N1310 C1306 1.427 . S
N1310 C1307 1.384 . S
N1311 C1303 1.427 . S
N1311 C1309 1.384 . S
H1312 C1318 0.930 . S
H1313 C1322 0.930 . S
H1314 C1327 0.929 . S
H1315 C1325 0.929 . S
H1316 C1320 0.929 . S
H1317 C1326 0.929 . S
C1318 H1312 0.930 . S
C1318 C1319 1.367 . S
C1318 C1326 1.378 . S
C1319 C1318 1.367 . S
C1319 C1327 1.433 1_554 S
C1320 H1316 0.929 . S
C1320 C1322 1.378 . S
C1320 C1324 1.315 1_556 S
C1321 C1324 1.465 . S
C1321 C1326 1.350 . S
C1321 N1329 1.427 1_554 S
C1322 H1313 0.930 . S
C1322 C1320 1.378 . S
C1322 C1323 1.367 1_556 S
C1323 C1322 1.367 1_554 S
C1323 C1325 1.433 . S
C1324 C1320 1.315 1_554 S
C1324 C1321 1.465 . S
C1324 N1328 1.463 . S
C1325 H1315 0.929 . S
C1325 C1323 1.433 . S
C1325 N1328 1.384 . S
C1326 H1317 0.929 . S
C1326 C1318 1.378 . S
C1326 C1321 1.350 . S
C1327 H1314 0.929 . S
C1327 C1319 1.433 1_556 S
C1327 N1329 1.384 . S
N1328 C1324 1.463 . S
N1328 C1325 1.384 . S
N1329 C1321 1.427 1_556 S
N1329 C1327 1.384 . S
H1330 C1336 0.930 . S
H1331 C1340 0.930 . S
H1332 C1345 0.929 . S
H1333 C1343 0.929 . S
H1334 C1338 0.929 . S
H1335 C1344 0.929 . S
C1336 H1330 0.930 . S
C1336 C1337 1.367 . S
C1336 C1344 1.378 . S
C1337 C1336 1.367 . S
C1337 C1345 1.433 . S
C1338 H1334 0.929 . S
C1338 C1340 1.378 . S
C1338 C1342 1.350 . S
C1339 C1342 1.463 . S
C1339 C1344 1.350 . S
C1339 N1347 1.427 . S
C1340 H1331 0.930 . S
C1340 C1338 1.378 . S
C1340 C1341 1.367 . S
C1341 C1340 1.367 . S
C1341 C1343 1.433 . S
C1342 C1338 1.350 . S
C1342 C1339 1.463 . S
C1342 N1346 1.427 . S
C1343 H1333 0.929 . S
C1343 C1341 1.433 . S
C1343 N1346 1.384 . S
C1344 H1335 0.929 . S
C1344 C1336 1.378 . S
C1344 C1339 1.350 . S
C1345 H1332 0.929 . S
C1345 C1337 1.433 . S
C1345 N1347 1.384 . S
N1346 C1342 1.427 . S
N1346 C1343 1.384 . S
N1347 C1339 1.427 . S
N1347 C1345 1.384 . S
H1348 C1354 0.930 . S
H1349 C1358 0.930 . S
H1350 C1363 0.929 1_455 S
H1351 C1361 0.929 . S
H1352 C1356 0.929 . S
H1353 C1362 0.929 . S
C1354 H1348 0.930 . S
C1354 C1355 1.367 . S
C1354 C1362 1.378 . S
C1355 C1354 1.367 . S
C1355 C1363 1.433 1_556 S
C1356 H1352 0.929 . S
C1356 C1358 1.378 . S
C1356 C1360 1.350 1_554 S
C1357 C1360 1.463 . S
C1357 C1362 1.350 . S
C1357 N1365 1.427 1_556 S
C1358 H1349 0.930 . S
C1358 C1356 1.378 . S
C1358 C1359 1.367 1_554 S
C1359 C1358 1.367 1_556 S
C1359 C1361 1.433 . S
C1360 C1356 1.350 1_556 S
C1360 C1357 1.463 . S
C1360 N1364 1.427 . S
C1361 H1351 0.929 . S
C1361 C1359 1.433 . S
C1361 N1364 1.384 . S
C1362 H1353 0.929 . S
C1362 C1354 1.378 . S
C1362 C1357 1.350 . S
C1363 H1350 0.929 1_655 S
C1363 C1355 1.433 1_554 S
C1363 N1365 1.384 . S
N1364 C1360 1.427 . S
N1364 C1361 1.384 . S
N1365 C1357 1.427 1_554 S
N1365 C1363 1.384 . S
H1366 C1372 0.930 . S
H1367 C1376 0.930 . S
H1368 C1381 0.929 . S
H1369 C1379 0.929 . S
H1370 C1374 0.929 . S
H1371 C1380 0.929 . S
C1372 H1366 0.930 . S
C1372 C1373 1.367 . S
C1372 C1380 1.378 . S
C1373 C1372 1.367 . S
C1373 C1381 1.433 . S
C1374 H1370 0.929 . S
C1374 C1376 1.378 . S
C1374 C1378 1.350 . S
C1375 C1378 1.463 . S
C1375 C1380 1.350 . S
C1375 N1383 1.427 . S
C1376 H1367 0.930 . S
C1376 C1374 1.378 . S
C1376 C1377 1.367 . S
C1377 C1376 1.367 . S
C1377 C1379 1.433 . S
C1378 C1374 1.350 . S
C1378 C1375 1.463 . S
C1378 N1382 1.427 . S
C1379 H1369 0.929 . S
C1379 C1377 1.433 . S
C1379 N1382 1.384 . S
C1380 H1371 0.929 . S
C1380 C1372 1.378 . S
C1380 C1375 1.350 . S
C1381 H1368 0.929 . S
C1381 C1373 1.433 . S
C1381 N1383 1.384 . S
N1382 C1378 1.427 . S
N1382 C1379 1.384 . S
N1383 C1375 1.427 . S
N1383 C1381 1.384 . S
H1384 C1390 0.930 . S
H1385 C1394 0.930 . S
H1386 C1399 0.929 1_655 S
H1387 C1397 0.929 . S
H1388 C1392 0.929 . S
H1389 C1398 0.929 . S
C1390 H1384 0.930 . S
C1390 C1391 1.367 . S
C1390 C1398 1.378 . S
C1391 C1390 1.367 . S
C1391 C1399 1.433 . S
C1392 H1388 0.929 . S
C1392 C1394 1.378 . S
C1392 C1396 1.350 . S
C1393 C1396 1.463 . S
C1393 C1398 1.350 . S
C1393 N1401 1.427 . S
C1394 H1385 0.930 . S
C1394 C1392 1.378 . S
C1394 C1395 1.367 . S
C1395 C1394 1.367 . S
C1395 C1397 1.433 . S
C1396 C1392 1.350 . S
C1396 C1393 1.463 . S
C1396 N1400 1.427 . S
C1397 H1387 0.929 . S
C1397 C1395 1.433 . S
C1397 N1400 1.384 . S
C1398 H1389 0.929 . S
C1398 C1390 1.378 . S
C1398 C1393 1.350 . S
C1399 H1386 0.929 1_455 S
C1399 C1391 1.433 . S
C1399 N1401 1.384 . S
N1400 C1396 1.427 . S
N1400 C1397 1.384 . S
N1401 C1393 1.427 . S
N1401 C1399 1.384 . S
H1402 C1408 0.930 . S
H1403 C1412 0.930 . S
H1404 C1417 0.929 . S
H1405 C1415 0.929 . S
H1406 C1410 0.929 . S
H1407 C1416 0.929 . S
C1408 H1402 0.930 . S
C1408 C1409 1.367 . S
C1408 C1416 1.378 . S
C1409 C1408 1.367 . S
C1409 C1417 1.433 . S
C1410 H1406 0.929 . S
C1410 C1412 1.378 . S
C1410 C1414 1.350 . S
C1411 C1414 1.463 . S
C1411 C1416 1.350 . S
C1411 N1419 1.427 . S
C1412 H1403 0.930 . S
C1412 C1410 1.378 . S
C1412 C1413 1.367 . S
C1413 C1412 1.367 . S
C1413 C1415 1.433 . S
C1414 C1410 1.350 . S
C1414 C1411 1.463 . S
C1414 N1418 1.427 . S
C1415 H1405 0.929 . S
C1415 C1413 1.433 . S
C1415 N1418 1.384 . S
C1416 H1407 0.929 . S
C1416 C1408 1.378 . S
C1416 C1411 1.350 . S
C1417 H1404 0.929 . S
C1417 C1409 1.433 . S
C1417 N1419 1.384 . S
N1418 C1414 1.427 . S
N1418 C1415 1.384 . S
N1419 C1411 1.427 . S
N1419 C1417 1.384 . S
H1420 C1426 0.930 . S
H1421 C1430 0.930 . S
H1422 C1435 0.929 . S
H1423 C1433 0.929 . S
H1424 C1428 0.929 . S
H1425 C1434 0.929 . S
C1426 H1420 0.930 . S
C1426 C1427 1.367 . S
C1426 C1434 1.378 . S
C1427 C1426 1.367 . S
C1427 C1435 1.433 . S
C1428 H1424 0.929 . S
C1428 C1430 1.378 . S
C1428 C1432 1.350 . S
C1429 C1432 1.463 . S
C1429 C1434 1.350 . S
C1429 N1437 1.427 . S
C1430 H1421 0.930 . S
C1430 C1428 1.378 . S
C1430 C1431 1.367 . S
C1431 C1430 1.367 . S
C1431 C1433 1.433 . S
C1432 C1428 1.350 . S
C1432 C1429 1.463 . S
C1432 N1436 1.427 . S
C1433 H1423 0.929 . S
C1433 C1431 1.433 . S
C1433 N1436 1.384 . S
C1434 H1425 0.929 . S
C1434 C1426 1.378 . S
C1434 C1429 1.350 . S
C1435 H1422 0.929 . S
C1435 C1427 1.433 . S
C1435 N1437 1.384 . S
N1436 C1432 1.427 . S
N1436 C1433 1.384 . S
N1437 C1429 1.427 . S
N1437 C1435 1.384 . S
H1438 C1444 0.930 . S
H1439 C1448 0.930 . S
H1440 C1453 0.929 . S
H1441 C1451 0.929 . S
H1442 C1446 0.929 . S
H1443 C1452 0.929 . S
C1444 H1438 0.930 . S
C1444 C1445 1.367 . S
C1444 C1452 1.378 . S
C1445 C1444 1.367 . S
C1445 C1453 1.433 . S
C1446 H1442 0.929 . S
C1446 C1448 1.378 . S
C1446 C1450 1.350 . S
C1447 C1450 1.463 . S
C1447 C1452 1.350 . S
C1447 N1455 1.427 . S
C1448 H1439 0.930 . S
C1448 C1446 1.378 . S
C1448 C1449 1.367 . S
C1449 C1448 1.367 . S
C1449 C1451 1.433 . S
C1450 C1446 1.350 . S
C1450 C1447 1.463 . S
C1450 N1454 1.427 . S
C1451 H1441 0.929 . S
C1451 C1449 1.433 . S
C1451 N1454 1.384 . S
C1452 H1443 0.929 . S
C1452 C1444 1.378 . S
C1452 C1447 1.350 . S
C1453 H1440 0.929 . S
C1453 C1445 1.433 . S
C1453 N1455 1.384 . S
N1454 C1450 1.427 . S
N1454 C1451 1.384 . S
N1455 C1447 1.427 . S
N1455 C1453 1.384 . S
H1456 C1462 0.930 . S
H1457 C1466 0.930 . S
H1458 C1471 0.929 . S
H1459 C1469 0.929 . S
H1460 C1464 0.929 . S
H1461 C1470 0.929 . S
C1462 H1456 0.930 . S
C1462 C1463 1.367 . S
C1462 C1470 1.378 . S
C1463 C1462 1.367 . S
C1463 C1471 1.433 . S
C1464 H1460 0.929 . S
C1464 C1466 1.378 . S
C1464 C1468 1.350 . S
C1465 C1468 1.463 . S
C1465 C1470 1.350 . S
C1465 N1473 1.427 . S
C1466 H1457 0.930 . S
C1466 C1464 1.378 . S
C1466 C1467 1.367 . S
C1467 C1466 1.367 . S
C1467 C1469 1.433 . S
C1468 C1464 1.350 . S
C1468 C1465 1.463 . S
C1468 N1472 1.427 . S
C1469 H1459 0.929 . S
C1469 C1467 1.433 . S
C1469 N1472 1.384 . S
C1470 H1461 0.929 . S
C1470 C1462 1.378 . S
C1470 C1465 1.350 . S
C1471 H1458 0.929 . S
C1471 C1463 1.433 . S
C1471 N1473 1.384 . S
N1472 C1468 1.427 . S
N1472 C1469 1.384 . S
N1473 C1465 1.427 . S
N1473 C1471 1.384 . S
H1474 C1480 0.930 . S
H1475 C1484 0.930 . S
H1476 C1489 0.929 . S
H1477 C1487 0.929 . S
H1478 C1482 0.929 . S
H1479 C1488 0.929 . S
C1480 H1474 0.930 . S
C1480 C1481 1.367 . S
C1480 C1488 1.378 . S
C1481 C1480 1.367 . S
C1481 C1489 1.433 . S
C1482 H1478 0.929 . S
C1482 C1484 1.378 . S
C1482 C1486 1.350 . S
C1483 C1486 1.463 . S
C1483 C1488 1.350 . S
C1483 N1491 1.427 . S
C1484 H1475 0.930 . S
C1484 C1482 1.378 . S
C1484 C1485 1.367 . S
C1485 C1484 1.367 . S
C1485 C1487 1.433 . S
C1486 C1482 1.350 . S
C1486 C1483 1.463 . S
C1486 N1490 1.427 . S
C1487 H1477 0.929 . S
C1487 C1485 1.433 . S
C1487 N1490 1.384 . S
C1488 H1479 0.929 . S
C1488 C1480 1.378 . S
C1488 C1483 1.350 . S
C1489 H1476 0.929 . S
C1489 C1481 1.433 . S
C1489 N1491 1.384 . S
N1490 C1486 1.427 . S
N1490 C1487 1.384 . S
N1491 C1483 1.427 . S
N1491 C1489 1.384 . S
H1492 C1498 0.930 . S
H1493 C1502 0.930 . S
H1494 C1507 0.929 . S
H1495 C1505 0.929 . S
H1496 C1500 0.929 . S
H1497 C1506 0.929 . S
C1498 H1492 0.930 . S
C1498 C1499 1.367 . S
C1498 C1506 1.378 . S
C1499 C1498 1.367 . S
C1499 C1507 1.433 . S
C1500 H1496 0.929 . S
C1500 C1502 1.378 . S
C1500 C1504 1.350 . S
C1501 C1504 1.463 . S
C1501 C1506 1.350 . S
C1501 N1509 1.427 . S
C1502 H1493 0.930 . S
C1502 C1500 1.378 . S
C1502 C1503 1.367 . S
C1503 C1502 1.367 . S
C1503 C1505 1.433 . S
C1504 C1500 1.350 . S
C1504 C1501 1.463 . S
C1504 N1508 1.427 . S
C1505 H1495 0.929 . S
C1505 C1503 1.433 . S
C1505 N1508 1.384 . S
C1506 H1497 0.929 . S
C1506 C1498 1.378 . S
C1506 C1501 1.350 . S
C1507 H1494 0.929 . S
C1507 C1499 1.433 . S
C1507 N1509 1.384 . S
N1508 C1504 1.427 . S
N1508 C1505 1.384 . S
N1509 C1501 1.427 . S
N1509 C1507 1.384 . S
H1510 C1516 0.930 . S
H1511 C1520 0.930 . S
H1512 C1525 0.929 . S
H1513 C1523 0.929 . S
H1514 C1518 0.929 . S
H1515 C1524 0.929 . S
C1516 H1510 0.930 . S
C1516 C1517 1.367 . S
C1516 C1524 1.378 . S
C1517 C1516 1.367 . S
C1517 C1525 1.433 . S
C1518 H1514 0.929 . S
C1518 C1520 1.378 . S
C1518 C1522 1.350 . S
C1519 C1522 1.463 . S
C1519 C1524 1.350 . S
C1519 N1527 1.427 . S
C1520 H1511 0.930 . S
C1520 C1518 1.378 . S
C1520 C1521 1.367 . S
C1521 C1520 1.367 . S
C1521 C1523 1.433 . S
C1522 C1518 1.350 . S
C1522 C1519 1.463 . S
C1522 N1526 1.427 . S
C1523 H1513 0.929 . S
C1523 C1521 1.433 . S
C1523 N1526 1.384 . S
C1524 H1515 0.929 . S
C1524 C1516 1.378 . S
C1524 C1519 1.350 . S
C1525 H1512 0.929 . S
C1525 C1517 1.433 . S
C1525 N1527 1.384 . S
N1526 C1522 1.427 . S
N1526 C1523 1.384 . S
N1527 C1519 1.427 . S
N1527 C1525 1.384 . S
H1528 C1534 0.932 . S
H1529 C1538 0.930 . S
H1530 C1543 0.929 . S
H1531 C1541 0.931 . S
H1532 C1536 0.929 . S
H1533 C1542 0.930 . S
C1534 H1528 0.932 . S
C1534 C1535 1.367 . S
C1534 C1542 1.378 . S
C1535 C1534 1.367 . S
C1535 C1543 1.433 . S
C1536 H1532 0.929 . S
C1536 C1538 1.378 . S
C1536 C1540 1.350 . S
C1537 C1540 1.463 . S
C1537 C1542 1.350 . S
C1537 N1545 1.427 . S
C1538 H1529 0.930 . S
C1538 C1536 1.378 . S
C1538 C1539 1.367 . S
C1539 C1538 1.367 . S
C1539 C1541 1.433 . S
C1540 C1536 1.350 . S
C1540 C1537 1.463 . S
C1540 N1544 1.427 . S
C1541 H1531 0.931 . S
C1541 C1539 1.433 . S
C1541 N1544 1.384 . S
C1542 H1533 0.930 . S
C1542 C1534 1.378 . S
C1542 C1537 1.350 . S
C1543 H1530 0.929 . S
C1543 C1535 1.433 . S
C1543 N1545 1.384 . S
N1544 C1540 1.427 . S
N1544 C1541 1.384 . S
N1545 C1537 1.427 . S
N1545 C1543 1.384 . S
H1546 C1552 0.930 . S
H1547 C1556 0.930 . S
H1548 C1561 0.929 . S
H1549 C1559 0.929 . S
H1550 C1554 0.929 . S
H1551 C1560 0.929 . S
C1552 H1546 0.930 . S
C1552 C1553 1.367 . S
C1552 C1560 1.378 . S
C1553 C1552 1.367 . S
C1553 C1561 1.433 . S
C1554 H1550 0.929 . S
C1554 C1556 1.378 . S
C1554 C1558 1.350 . S
C1555 C1558 1.463 . S
C1555 C1560 1.350 . S
C1555 N1563 1.427 . S
C1556 H1547 0.930 . S
C1556 C1554 1.378 . S
C1556 C1557 1.367 . S
C1557 C1556 1.367 . S
C1557 C1559 1.433 . S
C1558 C1554 1.350 . S
C1558 C1555 1.463 . S
C1558 N1562 1.427 . S
C1559 H1549 0.929 . S
C1559 C1557 1.433 . S
C1559 N1562 1.384 . S
C1560 H1551 0.929 . S
C1560 C1552 1.378 . S
C1560 C1555 1.350 . S
C1561 H1548 0.929 . S
C1561 C1553 1.433 . S
C1561 N1563 1.384 . S
N1562 C1558 1.427 . S
N1562 C1559 1.384 . S
N1563 C1555 1.427 . S
N1563 C1561 1.384 . S
H1564 C1570 0.930 . S
H1565 C1574 0.930 . S
H1566 C1579 0.929 . S
H1567 C1577 0.929 . S
H1568 C1572 0.929 . S
H1569 C1578 0.929 . S
C1570 H1564 0.930 . S
C1570 C1571 1.367 1_554 S
C1570 C1578 1.378 . S
C1571 C1570 1.367 1_556 S
C1571 C1579 1.433 . S
C1572 H1568 0.929 . S
C1572 C1574 1.378 . S
C1572 C1576 1.350 . S
C1573 C1576 1.465 . S
C1573 C1578 1.314 1_556 S
C1573 N1581 1.464 . S
C1574 H1565 0.930 . S
C1574 C1572 1.378 . S
C1574 C1575 1.367 . S
C1575 C1574 1.367 . S
C1575 C1577 1.433 1_556 S
C1576 C1572 1.350 . S
C1576 C1573 1.465 . S
C1576 N1580 1.427 1_556 S
C1577 H1567 0.929 . S
C1577 C1575 1.433 1_554 S
C1577 N1580 1.384 . S
C1578 H1569 0.929 . S
C1578 C1570 1.378 . S
C1578 C1573 1.314 1_554 S
C1579 H1566 0.929 . S
C1579 C1571 1.433 . S
C1579 N1581 1.384 . S
N1580 C1576 1.427 1_554 S
N1580 C1577 1.384 . S
N1581 C1573 1.464 . S
N1581 C1579 1.384 . S
H1582 C1588 0.930 . S
H1583 C1592 0.930 . S
H1584 C1597 0.929 . S
H1585 C1595 0.929 . S
H1586 C1590 0.929 . S
H1587 C1596 0.929 . S
C1588 H1582 0.930 . S
C1588 C1589 1.367 . S
C1588 C1596 1.378 . S
C1589 C1588 1.367 . S
C1589 C1597 1.433 . S
C1590 H1586 0.929 . S
C1590 C1592 1.378 . S
C1590 C1594 1.350 . S
C1591 C1594 1.463 . S
C1591 C1596 1.350 . S
C1591 N1599 1.427 . S
C1592 H1583 0.930 . S
C1592 C1590 1.378 . S
C1592 C1593 1.367 . S
C1593 C1592 1.367 . S
C1593 C1595 1.433 . S
C1594 C1590 1.350 . S
C1594 C1591 1.463 . S
C1594 N1598 1.427 . S
C1595 H1585 0.929 . S
C1595 C1593 1.433 . S
C1595 N1598 1.384 . S
C1596 H1587 0.929 . S
C1596 C1588 1.378 . S
C1596 C1591 1.350 . S
C1597 H1584 0.929 . S
C1597 C1589 1.433 . S
C1597 N1599 1.384 . S
N1598 C1594 1.427 . S
N1598 C1595 1.384 . S
N1599 C1591 1.427 . S
N1599 C1597 1.384 . S
C455 C12 1.545 . S
C459 C55 1.542 . S
C473 C28 1.544 . S
C477 C26 1.542 . S
C491 C110 1.545 . S
C495 C57 1.543 . S
C509 C84 1.544 . S
C513 C70 1.542 . S
C527 C112 1.543 . S
C531 C167 1.545 . S
C545 C139 1.544 . S
C549 C141 1.542 . S
C563 C210 1.545 . S
C567 C168 1.542 . S
C581 C209 1.542 . S
C585 C183 1.544 . S
C599 C224 1.542 . S
C603 C278 1.544 . S
C617 C251 1.544 . S
C621 C252 1.542 . S
C635 C280 1.544 . S
C639 C334 1.542 . S
C653 C294 1.545 . S
C657 C308 1.543 . S
C671 C337 1.542 . S
C675 C391 1.544 . S
C689 C365 1.543 . S
C693 C362 1.543 . S
C707 C447 1.544 . S
C711 C393 1.543 . S
C725 C420 1.544 . S
C729 C407 1.543 . S
C743 C0 1.559 . S
C747 C69 1.559 . S
C761 C419 1.559 1_554 S
C765 C14 1.559 1_556 S
C779 C40 1.558 . S
C783 C197 1.558 . S
C797 C322 1.555 . S
C801 C43 1.555 . S
C815 C350 1.561 . S
C819 C82 1.560 . S
C833 C96 1.558 . S
C837 C153 1.558 . S
C851 C98 1.556 . S
C855 C266 1.557 . S
C869 C180 1.554 . S
C873 C124 1.555 . S
C887 C306 1.558 . S
C891 C127 1.558 . S
C905 C155 1.558 . S
C909 C435 1.559 . S
C923 C195 1.559 . S
C927 C239 1.558 . S
C941 C222 1.559 . S
C945 C379 1.559 . S
C959 C292 1.557 . S
C963 C236 1.558 . S
C977 C264 1.557 . S
C981 C432 1.556 . S
C995 C320 1.557 . S
C999 C377 1.557 . S
C1013 C405 1.559 . S
C1017 C349 1.558 . S
C1031 C13 1.470 . S
C1035 C279 1.468 . S
C1049 C27 1.469 . S
C1053 C253 1.468 . S
C1067 C250 1.472 . S
C1071 C29 1.469 . S
C1085 C225 1.471 . S
C1089 C54 1.469 . S
C1103 C56 1.468 . S
C1107 C335 1.469 . S
C1121 C71 1.472 . S
C1125 C309 1.470 . S
C1139 C85 1.473 . S
C1143 C295 1.471 . S
C1157 C281 1.472 . S
C1161 C111 1.469 . S
C1175 C113 1.470 . S
C1179 C390 1.473 . S
C1193 C364 1.470 . S
C1197 C138 1.472 . S
C1211 C363 1.471 . S
C1215 C140 1.469 . S
C1229 C166 1.469 . S
C1233 C336 1.471 . S
C1247 C169 1.469 . S
C1251 C446 1.469 . S
C1265 C182 1.472 . S
C1269 C421 1.469 . S
C1283 C406 1.469 . S
C1287 C208 1.471 . S
C1301 C211 1.473 . S
C1305 C392 1.470 . S
C1319 C15 1.550 . S
C1323 C1 1.547 . S
C1337 C41 1.549 . S
C1341 C42 1.552 . S
C1355 C83 1.553 . S
C1359 C68 1.551 . S
C1373 C97 1.552 . S
C1377 C99 1.549 . S
C1391 C126 1.551 . S
C1395 C125 1.552 . S
C1409 C152 1.548 . S
C1413 C154 1.551 . S
C1427 C181 1.547 . S
C1431 C194 1.549 . S
C1445 C196 1.551 . S
C1449 C223 1.550 . S
C1463 C237 1.548 . S
C1467 C238 1.547 . S
C1481 C267 1.548 . S
C1485 C265 1.550 . S
C1499 C293 1.547 . S
C1503 C307 1.550 . S
C1517 C323 1.547 . S
C1521 C321 1.549 . S
C1535 C351 1.546 . S
C1539 C348 1.547 . S
C1553 C376 1.548 . S
C1557 C378 1.546 . S
C1571 C404 1.547 . S
C1575 C418 1.550 . S
C1589 C434 1.551 . S
C1593 C433 1.550 . S
