# Generated by pormake.
# Topology tfs, (6)-cn, num edge types: 1
# Building blocks:
#     Node 0, Type 0, BuildingBlock: HISSIN_clean_sbu_0, # of connection points: 6
#     Node 1, Type 0, BuildingBlock: HISSIN_clean_sbu_0, # of connection points: 6
#     Node 2, Type 0, BuildingBlock: HISSIN_clean_sbu_0, # of connection points: 6
#     Node 3, Type 0, BuildingBlock: HISSIN_clean_sbu_0, # of connection points: 6
#     Node 4, Type 0, BuildingBlock: HISSIN_clean_sbu_0, # of connection points: 6
#     Node 5, Type 0, BuildingBlock: HISSIN_clean_sbu_0, # of connection points: 6
#     Edge 6, Type (0, 0), BuildingBlock: TEMPAE_clean_linker_10, # of connection points: 2
#     Edge 7, Type (0, 0), BuildingBlock: TEMPAE_clean_linker_10, # of connection points: 2
#     Edge 8, Type (0, 0), BuildingBlock: TEMPAE_clean_linker_10, # of connection points: 2
#     Edge 9, Type (0, 0), BuildingBlock: TEMPAE_clean_linker_10, # of connection points: 2
#     Edge 10, Type (0, 0), BuildingBlock: TEMPAE_clean_linker_10, # of connection points: 2
#     Edge 11, Type (0, 0), BuildingBlock: TEMPAE_clean_linker_10, # of connection points: 2
#     Edge 12, Type (0, 0), BuildingBlock: TEMPAE_clean_linker_10, # of connection points: 2
#     Edge 13, Type (0, 0), BuildingBlock: TEMPAE_clean_linker_10, # of connection points: 2
#     Edge 14, Type (0, 0), BuildingBlock: TEMPAE_clean_linker_10, # of connection points: 2
#     Edge 15, Type (0, 0), BuildingBlock: TEMPAE_clean_linker_10, # of connection points: 2
#     Edge 16, Type (0, 0), BuildingBlock: TEMPAE_clean_linker_10, # of connection points: 2
#     Edge 17, Type (0, 0), BuildingBlock: TEMPAE_clean_linker_10, # of connection points: 2
#     Edge 18, Type (0, 0), BuildingBlock: TEMPAE_clean_linker_10, # of connection points: 2
#     Edge 19, Type (0, 0), BuildingBlock: TEMPAE_clean_linker_10, # of connection points: 2
#     Edge 20, Type (0, 0), BuildingBlock: TEMPAE_clean_linker_10, # of connection points: 2
#     Edge 21, Type (0, 0), BuildingBlock: TEMPAE_clean_linker_10, # of connection points: 2
#     Edge 22, Type (0, 0), BuildingBlock: TEMPAE_clean_linker_10, # of connection points: 2
#     Edge 23, Type (0, 0), BuildingBlock: TEMPAE_clean_linker_10, # of connection points: 2
# Relax obj value: 0.544
# Max RMSD: 0.295
# Mean RMSD: 0.295
data_MOF--net-tfs--node1-HISSIN_clean_sbu_0--edge1-TEMPAE_clean_linker_10
_symmetry_space_group_name_H-M    P1
_symmetry_Int_Tables_number       1
_symmetry_cell_setting            triclinic
loop_
_symmetry_equiv_pos_as_xyz
'x, y, z'
_cell_length_a     56.010748
_cell_length_b     56.014615
_cell_length_c     15.43714
_cell_angle_alpha  90.066765
_cell_angle_beta   89.968516
_cell_angle_gamma 120.00884
loop_
_atom_site_label
_atom_site_type_symbol
_atom_site_fract_x
_atom_site_fract_y
_atom_site_fract_z
_atom_type_partial_charge
Eu0 Eu 0.21478 0.40195 0.97768 0.0
Eu1 Eu 0.18715 0.442 0.97671 0.0
C2 C 0.20006 0.42145 0.14964 0.0
C3 C 0.23717 0.34543 0.9684 0.0
C4 C 0.24018 0.33091 0.03745 0.0
C5 C 0.24243 0.31499 0.86742 0.0
C6 C 0.24521 0.30928 0.02186 0.0
C7 C 0.23744 0.33675 0.88313 0.0
C8 C 0.2474 0.30169 0.93661 0.0
C9 C 0.23815 0.37173 0.98734 0.0
O10 O 0.23188 0.47053 0.00722 0.0
O11 O 0.24943 0.44487 0.94822 0.0
C12 C 0.25268 0.46839 0.97724 0.0
O13 O 0.19863 0.3998 0.84326 0.0
O14 O 0.17175 0.46483 0.04909 0.0
O15 O 0.16962 0.46404 0.90894 0.0
O16 O 0.20431 0.44317 0.84383 0.0
C17 C 0.20125 0.42142 0.80177 0.0
O18 O 0.16897 0.37276 -0.00619 0.0
O19 O 0.15245 0.40016 0.9409 0.0
O20 O 0.17989 0.4213 0.1065 0.0
O21 O 0.24212 0.38861 0.92353 0.0
O22 O 0.22173 0.37196 0.04697 0.0
O23 O 0.22059 0.42187 0.10798 0.0
C24 C 0.17609 0.50458 0.97956 0.0
C25 C 0.16625 0.51537 0.91596 0.0
C26 C 0.20094 0.54993 0.04658 0.0
C27 C 0.17354 0.54316 0.91785 0.0
C28 C 0.19386 0.52222 0.04424 0.0
C29 C 0.1906 0.5606 0.98401 0.0
C30 C 0.16645 0.47475 0.98005 0.0
C31 C 0.14864 0.376 0.96487 0.0
H32 H 0.24031 0.33738 0.10373 0.0
H33 H 0.2436 0.3094 0.80102 0.0
H34 H 0.24931 0.29985 0.07679 0.0
H35 H 0.23515 0.34757 0.82853 0.0
H36 H 0.15245 0.50216 0.8657 0.0
H37 H 0.21438 0.563 0.09771 0.0
H38 H 0.1651 0.5508 0.8692 0.0
H39 H 0.20194 0.51456 0.09395 0.0
Eu40 Eu 0.81451 0.21266 0.00557 0.0
Eu41 Eu 0.74663 0.18508 0.008 0.0
C42 C 0.78064 0.19747 0.17894 0.0
C43 C 0.89323 0.23433 -0.0036 0.0
C44 C 0.90452 0.22556 0.06192 0.0
C45 C 0.93547 0.25059 0.91328 0.0
C46 C 0.93137 0.23017 0.05453 0.0
C47 C 0.90863 0.24601 0.92069 0.0
C48 C 0.94753 0.24378 0.98173 0.0
C49 C 0.86816 0.23606 0.01381 0.0
O50 O 0.76372 0.23028 0.03415 0.0
O51 O 0.80643 0.24714 0.97246 0.0
C52 C 0.78644 0.25074 0.00188 0.0
O53 O 0.79957 0.19557 0.87254 0.0
O54 O 0.70976 0.17611 0.08107 0.0
O55 O 0.70606 0.16262 0.94739 0.0
O56 O 0.76151 0.20072 0.87304 0.0
C57 C 0.78029 0.19774 0.83115 0.0
O58 O 0.79889 0.16699 0.01703 0.0
O59 O 0.75285 0.14917 0.9827 0.0
O60 O 0.76043 0.17741 0.13615 0.0
O61 O 0.85509 0.23923 0.94874 0.0
O62 O 0.85159 0.22078 0.07543 0.0
O63 O 0.80054 0.21808 0.13696 0.0
C64 C 0.6727 0.17328 0.00099 0.0
C65 C 0.67565 0.19183 0.93507 0.0
C66 C 0.62995 0.17075 0.04551 0.0
C67 C 0.65566 0.19961 0.92408 0.0
C68 C 0.64977 0.16286 0.056 0.0
C69 C 0.63265 0.1892 0.97947 0.0
C70 C 0.69331 0.16476 0.01523 0.0
C71 C 0.77429 0.14619 -0.00179 0.0
H72 H 0.89329 0.21667 0.12138 0.0
H73 H 0.94746 0.26139 0.85673 0.0
H74 H 0.94003 0.22445 0.10794 0.0
H75 H 0.90067 0.25328 0.86944 0.0
H76 H 0.69338 0.20032 0.89238 0.0
H77 H 0.61228 0.16211 0.08841 0.0
H78 H 0.65834 0.214 0.87306 0.0
H79 H 0.64719 0.14856 0.10728 0.0
Eu80 Eu 0.60121 0.81336 0.98534 0.0
Eu81 Eu 0.56254 0.74571 0.98344 0.0
C82 C 0.58187 0.779 0.15625 0.0
C83 C 0.65748 0.89243 -0.00852 0.0
C84 C 0.66722 0.90975 0.06403 0.0
C85 C 0.6948 0.92802 0.90601 0.0
C86 C 0.68992 0.93621 0.05733 0.0
C87 C 0.67184 0.90144 0.91272 0.0
C88 C 0.70359 0.94605 0.97769 0.0
C89 C 0.63054 0.86695 -0.00147 0.0
O90 O 0.53274 0.76081 0.0086 0.0
O91 O 0.55827 0.80473 0.95437 0.0
C92 C 0.53469 0.78384 0.98037 0.0
O93 O 0.60326 0.79948 0.85029 0.0
O94 O 0.53799 0.70797 0.05674 0.0
O95 O 0.54435 0.70561 0.91922 0.0
O96 O 0.56039 0.76095 0.85049 0.0
C97 C 0.58181 0.7802 0.80863 0.0
O98 O 0.63123 0.79786 0.00421 0.0
O99 O 0.60488 0.75425 0.94804 0.0
O100 O 0.58318 0.7596 0.11316 0.0
O101 O 0.61738 0.85424 0.9281 0.0
O102 O 0.62715 0.85013 0.06179 0.0
O103 O 0.58042 0.79844 0.11411 0.0
C104 C 0.50284 0.6707 0.98087 0.0
C105 C 0.48286 0.67714 0.95331 0.0
C106 C 0.4671 0.62329 0.00387 0.0
C107 C 0.45501 0.65665 0.95117 0.0
C108 C 0.49484 0.64369 0.00554 0.0
C109 C 0.44686 0.62958 0.97741 0.0
C110 C 0.53189 0.69201 -0.01086 0.0
C111 C 0.62871 0.77471 0.97401 0.0
H112 H 0.65631 0.90335 0.12522 0.0
H113 H 0.70504 0.93478 0.84397 0.0
H114 H 0.69556 0.9495 0.11361 0.0
H115 H 0.66474 0.88844 0.85568 0.0
H116 H 0.48875 0.69803 0.9348 0.0
H117 H 0.46147 0.60254 0.02325 0.0
H118 H 0.43982 0.66209 0.93104 0.0
H119 H 0.51006 0.63845 0.02721 0.0
Eu120 Eu 0.78985 0.60251 0.02173 0.0
Eu121 Eu 0.81676 0.56189 0.02096 0.0
C122 C 0.80438 0.5829 0.19355 0.0
C123 C 0.76953 0.66063 0.0149 0.0
C124 C 0.77747 0.68008 0.08218 0.0
C125 C 0.75469 0.68761 0.93084 0.0
C126 C 0.77313 0.7025 0.07509 0.0
C127 C 0.759 0.66516 0.93795 0.0
C128 C 0.76061 0.70583 0.0008 0.0
C129 C 0.7674 0.63361 0.03141 0.0
O130 O 0.77177 0.53364 0.04951 0.0
O131 O 0.75461 0.55987 -0.00756 0.0
C132 C 0.75111 0.53616 0.02045 0.0
O133 O 0.8058 0.604 0.88724 0.0
O134 O 0.82919 0.53672 0.09387 0.0
O135 O 0.83659 0.54168 0.95556 0.0
O136 O 0.79953 0.56039 0.88804 0.0
C137 C 0.8028 0.58218 0.84584 0.0
O138 O 0.83573 0.63149 0.0374 0.0
O139 O 0.85186 0.60359 0.98592 0.0
O140 O 0.82451 0.58302 0.15022 0.0
O141 O 0.76385 0.61735 0.96595 0.0
O142 O 0.78261 0.63197 0.09255 0.0
O143 O 0.78389 0.58254 0.15192 0.0
C144 C 0.82809 0.49918 0.01824 0.0
C145 C 0.83196 0.4884 0.94063 0.0
C146 C 0.81084 0.45426 0.0857 0.0
C147 C 0.82543 0.46085 0.93572 0.0
C148 C 0.81728 0.48173 0.09056 0.0
C149 C 0.81515 0.4436 0.0086 0.0
C150 C 0.83714 0.52887 0.02546 0.0
C151 C 0.8559 0.62792 0.00891 0.0
H152 H 0.78546 0.6771 0.1426 0.0
H153 H 0.74474 0.68941 0.87306 0.0
H154 H 0.77815 0.71636 0.12972 0.0
H155 H 0.75239 0.65043 0.88525 0.0
H156 H 0.84058 0.50141 0.88415 0.0
H157 H 0.80266 0.44138 0.14264 0.0
H158 H 0.82925 0.45329 0.87569 0.0
H159 H 0.8142 0.48936 0.1516 0.0
Eu160 Eu 0.1907 0.79143 0.03187 0.0
Eu161 Eu 0.25844 0.81855 0.03188 0.0
C162 C 0.22461 0.80522 0.20407 0.0
C163 C 0.11191 0.77021 0.02379 0.0
C164 C 0.10095 0.77925 0.08966 0.0
C165 C 0.0691 0.75326 0.94325 0.0
C166 C 0.07398 0.77443 0.08378 0.0
C167 C 0.09605 0.75806 0.94915 0.0
C168 C 0.05737 0.76032 0.01217 0.0
C169 C 0.13707 0.76853 0.03996 0.0
O170 O 0.24191 0.7733 0.05409 0.0
O171 O 0.19811 0.75636 0.00023 0.0
C172 C 0.21858 0.75283 0.02502 0.0
O173 O 0.20553 0.80814 0.89826 0.0
O174 O 0.29567 0.82855 0.10412 0.0
O175 O 0.29879 0.84096 0.96964 0.0
O176 O 0.24306 0.80215 0.89799 0.0
C177 C 0.22434 0.80526 0.85639 0.0
O178 O 0.20721 0.83712 0.05077 0.0
O179 O 0.25171 0.85389 0.0024 0.0
O180 O 0.24474 0.82546 0.16163 0.0
O181 O 0.15007 0.7656 0.9742 0.0
O182 O 0.15368 0.78347 0.10206 0.0
O183 O 0.20456 0.78486 0.16164 0.0
C184 C 0.3329 0.83186 0.02428 0.0
C185 C 0.32623 0.80631 0.98768 0.0
C186 C 0.38002 0.84218 0.04453 0.0
C187 C 0.34648 0.79874 0.97961 0.0
C188 C 0.35988 0.84975 0.05212 0.0
C189 C 0.37352 0.81652 0.00886 0.0
C190 C 0.31194 0.83985 0.0379 0.0
C191 C 0.23126 0.85762 0.02587 0.0
H192 H 0.11253 0.78852 0.14832 0.0
H193 H 0.05679 0.74209 0.88758 0.0
H194 H 0.06561 0.78038 0.13748 0.0
H195 H 0.10375 0.75056 0.89769 0.0
H196 H 0.30536 0.79217 0.96648 0.0
H197 H 0.40076 0.85646 0.06646 0.0
H198 H 0.34086 0.77878 0.95236 0.0
H199 H 0.36532 0.86952 0.08064 0.0
Eu200 Eu 0.40299 0.18963 0.93279 0.0
Eu201 Eu 0.44269 0.25752 0.93497 0.0
C202 C 0.42323 0.22288 0.10829 0.0
C203 C 0.34701 0.1113 0.95993 0.0
C204 C 0.34815 0.09581 0.02962 0.0
C205 C 0.30022 0.07445 0.92956 0.0
C206 C 0.32597 0.06964 0.04745 0.0
C207 C 0.32251 0.10068 0.91152 0.0
C208 C 0.30208 0.05821 -0.00418 0.0
C209 C 0.37264 0.13589 0.93029 0.0
O210 O 0.47235 0.24242 0.90866 0.0
O211 O 0.44615 0.19767 0.9559 0.0
C212 C 0.4699 0.21877 0.93205 0.0
O213 O 0.42242 0.20333 0.80184 0.0
O214 O 0.45892 0.29711 0.00172 0.0
O215 O 0.46998 0.29579 0.86784 0.0
O216 O 0.42309 0.24424 0.80343 0.0
C217 C 0.42288 0.22394 0.76049 0.0
O218 O 0.37382 0.2059 0.91013 0.0
O219 O 0.40019 0.24938 0.96726 0.0
O220 O 0.44503 0.24128 0.06596 0.0
O221 O 0.37105 0.15185 0.87171 0.0
O222 O 0.39182 0.14961 0.98768 0.0
O223 O 0.40127 0.20442 0.06672 0.0
C224 C 0.50305 0.33169 0.95547 0.0
C225 C 0.52446 0.32593 0.94188 0.0
C226 C 0.53666 0.37815 0.00012 0.0
C227 C 0.55188 0.34637 0.95592 0.0
C228 C 0.5093 0.35778 0.98553 0.0
C229 C 0.55827 0.37278 0.98449 0.0
C230 C 0.47423 0.31112 0.93623 0.0
C231 C 0.37646 0.22911 0.93985 0.0
H232 H 0.36683 0.1032 0.06742 0.0
H233 H 0.28201 0.0664 0.88918 0.0
H234 H 0.32842 0.05766 0.09804 0.0
H235 H 0.32102 0.11202 0.857 0.0
H236 H 0.52002 0.3058 0.91932 0.0
H237 H 0.54095 0.39836 0.02126 0.0
H238 H 0.56808 0.34156 0.94426 0.0
H239 H 0.49303 0.36256 -0.00363 0.0
C240 C 0.32924 0.21738 0.88834 0.0
C241 C 0.35245 0.23345 0.94019 0.0
C242 C 0.30781 0.22352 0.88214 0.0
C243 C 0.30968 0.24611 0.92922 0.0
C244 C 0.33246 0.26151 0.98471 0.0
C245 C 0.35354 0.25504 -0.01069 0.0
C246 C 0.28382 0.20661 0.82252 0.0
C247 C 0.33515 0.28559 0.03693 0.0
C248 C 0.27942 0.28995 0.859 0.0
C249 C 0.25866 0.28295 0.92113 0.0
C250 C 0.29468 0.27633 0.85594 0.0
C251 C 0.28918 0.25531 0.91683 0.0
C252 C 0.2667 0.24651 0.97464 0.0
C253 C 0.25166 0.26041 0.97599 0.0
C254 C 0.31831 0.28619 0.79264 0.0
C255 C 0.25997 0.22398 0.03994 0.0
H256 H 0.32826 0.20066 0.85019 0.0
H257 H 0.3712 0.26732 0.03049 0.0
H258 H 0.26401 0.2006 0.85556 0.0
H259 H 0.28513 0.21916 0.76526 0.0
H260 H 0.28356 0.18767 0.79955 0.0
H261 H 0.35333 0.2944 0.08073 0.0
H262 H 0.33719 0.30209 -0.0074 0.0
H263 H 0.31637 0.27909 0.07659 0.0
H264 H 0.2852 0.30743 0.81669 0.0
H265 H 0.23527 0.25449 0.02301 0.0
H266 H 0.3184 0.26846 0.76091 0.0
H267 H 0.33811 0.29804 0.82801 0.0
H268 H 0.31736 0.2997 0.74175 0.0
H269 H 0.26079 0.20643 0.00965 0.0
H270 H 0.23926 0.21625 0.06917 0.0
H271 H 0.27552 0.23212 0.09265 0.0
C272 C 0.09846 0.35612 0.93529 0.0
C273 C 0.12019 0.35211 0.96151 0.0
C274 C 0.0711 0.33456 0.93715 0.0
C275 C 0.06515 0.3081 0.96523 0.0
C276 C 0.08697 0.30351 -0.01137 0.0
C277 C 0.11429 0.32564 0.98692 0.0
C278 C 0.04846 0.34042 0.9119 0.0
C279 C 0.08141 0.27548 0.01779 0.0
C280 C 0.99307 0.26896 0.05629 0.0
C281 C 0.9778 0.25486 0.98272 0.0
C282 C 0.02191 0.28464 0.05357 0.0
C283 C 0.03585 0.28616 0.97548 0.0
C284 C 0.02075 0.27005 0.90333 0.0
C285 C 0.99183 0.25471 0.9076 0.0
C286 C 0.03717 0.30162 0.13189 0.0
C287 C 0.03491 0.27067 0.81951 0.0
H288 H 0.10268 0.37639 0.91504 0.0
H289 H 0.13093 0.32228 0.0068 0.0
H290 H 0.03553 0.32611 0.85988 0.0
H291 H 0.03484 0.33699 0.96836 0.0
H292 H 0.05665 0.36191 0.88882 0.0
H293 H 0.10065 0.27447 0.02352 0.0
H294 H 0.07104 0.27058 0.08184 0.0
H295 H 0.0673 0.25934 0.97177 0.0
H296 H 0.98242 0.26945 0.11434 0.0
H297 H 0.98013 0.24354 0.85093 0.0
H298 H 0.04438 0.32368 0.11885 0.0
H299 H 0.05563 0.2998 0.14547 0.0
H300 H 0.02395 0.29534 0.19065 0.0
H301 H 0.04113 0.29034 0.78533 0.0
H302 H 0.02121 0.25339 0.77595 0.0
H303 H 0.0539 0.26967 0.83208 0.0
C304 C 0.74415 0.09586 0.01891 0.0
C305 C 0.7699 0.11795 -0.00467 0.0
C306 C 0.73858 0.06863 0.013 0.0
C307 C 0.75911 0.06324 0.98083 0.0
C308 C 0.78537 0.08549 0.95798 0.0
C309 C 0.79058 0.11271 0.96641 0.0
C310 C 0.71048 0.04559 0.04001 0.0
C311 C 0.80756 0.08052 0.92186 0.0
C312 C 0.74152 0.99076 0.03766 0.0
C313 C 0.72418 0.97594 0.96823 0.0
C314 C 0.7553 0.01967 0.03953 0.0
C315 C 0.75218 0.0341 0.96934 0.0
C316 C 0.73756 0.01942 0.89457 0.0
C317 C 0.7235 0.9905 0.89518 0.0
C318 C 0.77074 0.03448 0.12048 0.0
C319 C 0.73438 0.03409 0.81728 0.0
H320 H 0.72824 0.09989 0.04228 0.0
H321 H 0.81046 0.12982 0.9476 0.0
H322 H 0.69957 0.03256 0.98311 0.0
H323 H 0.71265 0.0322 0.08852 0.0
H324 H 0.69744 0.05341 0.06829 0.0
H325 H 0.8277 0.0999 0.91623 0.0
H326 H 0.81021 0.06583 0.96318 0.0
H327 H 0.80133 0.07108 0.85659 0.0
H328 H 0.74291 0.97973 0.09329 0.0
H329 H 0.71026 0.97943 0.84098 0.0
H330 H 0.75791 0.04068 0.15863 0.0
H331 H 0.79025 0.05352 0.1042 0.0
H332 H 0.77551 0.0212 0.16192 0.0
H333 H 0.71898 0.04043 0.83237 0.0
H334 H 0.72727 0.02064 0.75899 0.0
H335 H 0.75415 0.053 0.80201 0.0
C336 C 0.73454 0.72563 0.07305 0.0
C337 C 0.74967 0.72514 0.00128 0.0
C338 C 0.71905 0.73897 0.06907 0.0
C339 C 0.71879 0.7523 -0.00846 0.0
C340 C 0.73594 0.75399 0.92158 0.0
C341 C 0.75104 0.74018 0.927 0.0
C342 C 0.70092 0.73646 0.14502 0.0
C343 C 0.7367 0.76854 0.83854 0.0
C344 C 0.64942 0.74525 0.94282 0.0
C345 C 0.65287 0.77055 0.97177 0.0
C346 C 0.67104 0.73958 0.94632 0.0
C347 C 0.69702 0.75978 0.97881 0.0
C348 C 0.70113 0.78585 0.00462 0.0
C349 C 0.67891 0.79091 0.00126 0.0
C350 C 0.66567 0.71143 0.91836 0.0
C351 C 0.72867 0.80803 0.03829 0.0
H352 H 0.73312 0.71383 0.1304 0.0
H353 H 0.76299 0.74017 0.87176 0.0
H354 H 0.70266 0.75663 0.16 0.0
H355 H 0.67907 0.72187 0.12831 0.0
H356 H 0.70622 0.72877 0.2041 0.0
H357 H 0.75471 0.77264 0.79772 0.0
H358 H 0.71765 0.75549 0.80087 0.0
H359 H 0.73746 0.78835 0.85232 0.0
H360 H 0.6295 0.72939 0.91927 0.0
H361 H 0.68185 0.81058 0.02323 0.0
H362 H 0.66827 0.70056 0.97446 0.0
H363 H 0.68078 0.7135 0.86823 0.0
H364 H 0.64458 0.69839 0.8918 0.0
H365 H 0.73252 0.80204 0.10301 0.0
H366 H 0.72961 0.82825 0.04435 0.0
H367 H 0.74553 0.81043 -0.0051 0.0
C368 C 0.01233 0.73549 0.08982 0.0
C369 C 0.02707 0.74907 0.01496 0.0
C370 C 0.98347 0.71972 0.08913 0.0
C371 C 0.96897 0.71754 0.01176 0.0
C372 C 0.98355 0.73308 0.93817 0.0
C373 C 0.01249 0.74856 0.94044 0.0
C374 C 0.96879 0.70337 0.16895 0.0
C375 C 0.96879 0.73173 0.85497 0.0
C376 C 0.90595 0.64735 0.97779 0.0
C377 C 0.88443 0.65167 0.00428 0.0
C378 C 0.93336 0.66885 0.97764 0.0
C379 C 0.93957 0.69556 0.00402 0.0
C380 C 0.91795 0.70042 0.02792 0.0
C381 C 0.89058 0.67835 0.02816 0.0
C382 C 0.95578 0.6627 0.95185 0.0
C383 C 0.9238 0.7287 0.05536 0.0
H384 H 0.02339 0.73551 0.14743 0.0
H385 H 0.02377 0.75931 0.88275 0.0
H386 H 0.95042 0.7053 0.18327 0.0
H387 H 0.9615 0.68122 0.15735 0.0
H388 H 0.98242 0.71013 0.22678 0.0
H389 H 0.98217 0.74862 0.80984 0.0
H390 H 0.96233 0.71176 0.82225 0.0
H391 H 0.9499 0.73284 0.86823 0.0
H392 H 0.90154 0.62692 0.95869 0.0
H393 H 0.8741 0.68196 0.04821 0.0
H394 H 0.96978 0.66657 0.00756 0.0
H395 H 0.96835 0.67655 0.89853 0.0
H396 H 0.94738 0.64102 0.93033 0.0
H397 H 0.93485 0.73422 0.11827 0.0
H398 H 0.90462 0.72978 0.06259 0.0
H399 H 0.9374 0.7444 0.00746 0.0
C400 C 0.2633 0.90829 0.01797 0.0
C401 C 0.2362 0.88621 0.02509 0.0
C402 C 0.26897 0.93559 0.01626 0.0
C403 C 0.24699 0.94117 0.02112 0.0
C404 C 0.21953 0.91908 0.02884 0.0
C405 C 0.21444 0.89178 0.03115 0.0
C406 C 0.29862 0.95851 0.00872 0.0
C407 C 0.19561 0.92428 0.03344 0.0
C408 C 0.27477 0.01548 0.08523 0.0
C409 C 0.28134 0.02835 0.00382 0.0
C410 C 0.26099 0.98664 0.09242 0.0
C411 C 0.2534 0.97032 0.01637 0.0
C412 C 0.25722 0.98308 0.93448 0.0
C413 C 0.27128 0.01195 0.92912 0.0
C414 C 0.25712 0.97388 0.18108 0.0
C415 C 0.2491 0.96644 0.85179 0.0
H416 H 0.28032 0.9043 0.01413 0.0
H417 H 0.19344 0.87483 0.03652 0.0
H418 H 0.30144 0.9704 0.94843 0.0
H419 H 0.304 0.973 0.06395 0.0
H420 H 0.31333 0.95066 0.00768 0.0
H421 H 0.17562 0.90498 0.04317 0.0
H422 H 0.1987 0.93871 0.08719 0.0
H423 H 0.19446 0.9342 0.97264 0.0
H424 H 0.28185 0.02798 0.14339 0.0
H425 H 0.27625 0.02156 0.86578 0.0
H426 H 0.27298 0.96781 0.19143 0.0
H427 H 0.23663 0.95499 0.18665 0.0
H428 H 0.25922 0.98846 0.23332 0.0
H429 H 0.26434 0.95983 0.83736 0.0
H430 H 0.24848 0.97858 0.79585 0.0
H431 H 0.22862 0.94758 0.85856 0.0
C432 C 0.18979 0.70216 -0.00363 0.0
C433 C 0.21535 0.72495 0.01869 0.0
C434 C 0.18639 0.67566 -0.01011 0.0
C435 C 0.20914 0.67182 0.00567 0.0
C436 C 0.23505 0.69471 0.0276 0.0
C437 C 0.23784 0.72099 0.03409 0.0
C438 C 0.1584 0.65171 0.96669 0.0
C439 C 0.25982 0.69144 0.04439 0.0
C440 C 0.19351 0.59996 0.06914 0.0
C441 C 0.19657 0.58951 -0.01007 0.0
C442 C 0.19782 0.62682 0.07533 0.0
C443 C 0.20561 0.64371 0.00063 0.0
C444 C 0.20923 0.63345 0.92078 0.0
C445 C 0.20451 0.60638 0.91628 0.0
C446 C 0.19345 0.63691 0.1614 0.0
C447 C 0.21782 0.65096 0.83998 0.0
H448 H 0.17228 0.70496 0.98435 0.0
H449 H 0.25772 0.73847 0.05087 0.0
H450 H 0.15989 0.64146 0.90708 0.0
H451 H 0.15094 0.63615 0.0193 0.0
H452 H 0.14285 0.6582 0.95589 0.0
H453 H 0.2787 0.71143 0.05845 0.0
H454 H 0.25566 0.67742 0.10017 0.0
H455 H 0.26384 0.68189 0.98735 0.0
H456 H 0.18704 0.58684 0.12595 0.0
H457 H 0.20711 0.59841 0.85515 0.0
H458 H 0.17665 0.64187 0.15559 0.0
H459 H 0.21238 0.65615 0.18064 0.0
H460 H 0.18801 0.62143 0.21371 0.0
H461 H 0.20194 0.65645 0.82284 0.0
H462 H 0.22077 0.64028 0.78382 0.0
H463 H 0.23735 0.67052 0.85177 0.0
C464 C 0.52115 0.23899 0.92251 0.0
C465 C 0.4948 0.21589 0.93354 0.0
C466 C 0.5449 0.23657 0.92663 0.0
C467 C 0.54222 0.21041 0.94154 0.0
C468 C 0.51569 0.18697 0.95131 0.0
C469 C 0.49233 0.19 0.94746 0.0
C470 C 0.57286 0.26206 0.91644 0.0
C471 C 0.51198 0.15868 0.96691 0.0
C472 C 0.60018 0.19637 0.88611 0.0
C473 C 0.61115 0.19703 0.96828 0.0
C474 C 0.5782 0.20146 0.87597 0.0
C475 C 0.5671 0.2075 0.94971 0.0
C476 C 0.57879 0.2092 0.03235 0.0
C477 C 0.60063 0.20387 0.04064 0.0
C478 C 0.5662 0.19936 0.78687 0.0
C479 C 0.56771 0.21584 0.11244 0.0
H480 H 0.5233 0.2591 0.91192 0.0
H481 H 0.47209 0.17199 0.9556 0.0
H482 H 0.58517 0.26555 0.97623 0.0
H483 H 0.58431 0.2592 0.86255 0.0
H484 H 0.57139 0.28078 0.90335 0.0
H485 H 0.48991 0.14242 0.97026 0.0
H486 H 0.52202 0.15335 0.91437 0.0
H487 H 0.5221 0.15861 0.0286 0.0
H488 H 0.60813 0.19089 0.83012 0.0
H489 H 0.60934 0.2048 0.10409 0.0
H490 H 0.56532 0.21827 0.77193 0.0
H491 H 0.54474 0.18177 0.78496 0.0
H492 H 0.57832 0.19629 0.73554 0.0
H493 H 0.56723 0.23522 0.10288 0.0
H494 H 0.58023 0.2181 0.17093 0.0
H495 H 0.54621 0.1992 0.12444 0.0
C496 C 0.40652 0.59016 0.04982 0.0
C497 C 0.41737 0.60784 0.97839 0.0
C498 C 0.37914 0.56847 0.0502 0.0
C499 C 0.36222 0.5643 0.97719 0.0
C500 C 0.37282 0.58251 0.90572 0.0
C501 C 0.4003 0.60415 0.90729 0.0
C502 C 0.36853 0.54964 0.12797 0.0
C503 C 0.35539 0.57863 0.82664 0.0
C504 C 0.30304 0.49144 0.94301 0.0
C505 C 0.28056 0.49316 0.97561 0.0
C506 C 0.32963 0.51457 0.94189 0.0
C507 C 0.33388 0.54006 0.97425 0.0
C508 C 0.31127 0.54207 0.00636 0.0
C509 C 0.28487 0.51859 0.00665 0.0
C510 C 0.35324 0.51163 0.90704 0.0
C511 C 0.31505 0.56891 0.04147 0.0
H512 H 0.41955 0.59324 0.10551 0.0
H513 H 0.40868 0.6177 0.85177 0.0
H514 H 0.3495 0.54867 0.15304 0.0
H515 H 0.36307 0.52842 0.10876 0.0
H516 H 0.38392 0.55651 0.18117 0.0
H517 H 0.36621 0.59545 0.77863 0.0
H518 H 0.34983 0.55873 0.79497 0.0
H519 H 0.33586 0.57775 0.84561 0.0
H520 H 0.29996 0.47195 0.91863 0.0
H521 H 0.26764 0.52017 0.03176 0.0
H522 H 0.36863 0.51623 0.95898 0.0
H523 H 0.36384 0.52672 0.85421 0.0
H524 H 0.34633 0.4906 0.8817 0.0
H525 H 0.329 0.57548 0.09841 0.0
H526 H 0.29521 0.56727 0.06129 0.0
H527 H 0.3249 0.58536 -0.00807 0.0
C528 C 0.79651 0.39778 0.93449 0.0
C529 C 0.80999 0.4149 0.00554 0.0
C530 C 0.79185 0.37072 0.93092 0.0
C531 C 0.801 0.36065 -0.00013 0.0
C532 C 0.81461 0.37785 0.07171 0.0
C533 C 0.81892 0.40475 0.07367 0.0
C534 C 0.77717 0.35292 0.85344 0.0
C535 C 0.82484 0.36792 0.14623 0.0
C536 C 0.76941 0.28354 0.03399 0.0
C537 C 0.78974 0.27869 -0.001 0.0
C538 C 0.7726 0.31004 0.03344 0.0
C539 C 0.79665 0.33221 -0.00313 0.0
C540 C 0.81703 0.3274 0.9602 0.0
C541 C 0.81335 0.30072 0.96179 0.0
C542 C 0.75043 0.31439 0.07324 0.0
C543 C 0.84293 0.35053 0.92039 0.0
H544 H 0.78937 0.40547 0.88204 0.0
H545 H 0.82974 0.41804 0.12809 0.0
H546 H 0.79063 0.34638 0.82087 0.0
H547 H 0.75832 0.33393 0.87472 0.0
H548 H 0.7712 0.36378 0.80552 0.0
H549 H 0.83477 0.38378 0.1977 0.0
H550 H 0.80744 0.34917 0.17529 0.0
H551 H 0.83999 0.36218 0.12238 0.0
H552 H 0.75106 0.26668 0.06271 0.0
H553 H 0.82913 0.2972 0.9342 0.0
H554 H 0.74307 0.32404 0.02543 0.0
H555 H 0.75903 0.32873 0.12904 0.0
H556 H 0.7325 0.29482 0.09609 0.0
H557 H 0.83753 0.36081 0.86889 0.0
H558 H 0.85634 0.34319 0.89196 0.0
H559 H 0.85488 0.36631 0.97032 0.0
C560 C 0.39884 0.79725 0.92701 0.0
C561 C 0.39503 0.80849 0.00343 0.0
C562 C 0.42038 0.79136 0.91977 0.0
C563 C 0.43837 0.79672 -0.00917 0.0
C564 C 0.43406 0.80725 0.06898 0.0
C565 C 0.41247 0.81304 0.07426 0.0
C566 C 0.4244 0.7802 0.83534 0.0
C567 C 0.45264 0.81304 0.14646 0.0
C568 C 0.484 0.7645 0.00436 0.0
C569 C 0.50968 0.78656 0.97898 0.0
C570 C 0.46041 0.76724 0.00641 0.0
C571 C 0.46256 0.79264 0.98262 0.0
C572 C 0.48825 0.81476 0.9551 0.0
C573 C 0.51147 0.81146 0.95358 0.0
C574 C 0.43334 0.74317 0.0359 0.0
C575 C 0.49137 0.84218 0.92915 0.0
H576 H 0.3855 0.79386 0.87196 0.0
H577 H 0.4093 0.82129 0.13395 0.0
H578 H 0.44436 0.79545 0.80592 0.0
H579 H 0.42526 0.7611 0.84698 0.0
H580 H 0.40766 0.77559 0.78816 0.0
H581 H 0.44572 0.82003 0.20367 0.0
H582 H 0.45337 0.79425 0.16447 0.0
H583 H 0.47397 0.82923 0.12994 0.0
H584 H 0.48232 0.74512 0.02362 0.0
H585 H 0.53116 0.82861 0.93356 0.0
H586 H 0.41707 0.73845 0.98695 0.0
H587 H 0.42671 0.74859 0.09699 0.0
H588 H 0.43474 0.72433 0.04713 0.0
H589 H 0.47634 0.83918 0.87755 0.0
H590 H 0.51245 0.85686 0.90537 0.0
H591 H 0.48685 0.85161 0.98546 0.0
C592 C 0.70115 0.51301 0.98003 0.0
C593 C 0.72311 0.51152 0.01811 0.0
C594 C 0.67461 0.48982 0.9763 0.0
C595 C 0.66984 0.46452 0.01187 0.0
C596 C 0.69184 0.46286 0.05076 0.0
C597 C 0.71822 0.48636 0.05324 0.0
C598 C 0.65169 0.49238 0.93388 0.0
C599 C 0.68749 0.43626 0.0897 0.0
C600 C 0.59546 0.41256 0.06703 0.0
C601 C 0.58737 0.39507 -0.00531 0.0
C602 C 0.62246 0.43483 0.0746 0.0
C603 C 0.64177 0.43982 0.00791 0.0
C604 C 0.63389 0.42187 0.93564 0.0
C605 C 0.6068 0.39965 0.93003 0.0
C606 C 0.63017 0.45336 0.15307 0.0
C607 C 0.65384 0.42661 0.86296 0.0
H608 H 0.70467 0.5323 0.95249 0.0
H609 H 0.73502 0.48497 0.08293 0.0
H610 H 0.64292 0.47763 0.87913 0.0
H611 H 0.63478 0.48701 0.98095 0.0
H612 H 0.65883 0.5135 0.90905 0.0
H613 H 0.7067 0.43844 0.11815 0.0
H614 H 0.67152 0.42919 0.14106 0.0
H615 H 0.67987 0.41992 0.03942 0.0
H616 H 0.58058 0.40889 0.11764 0.0
H617 H 0.60056 0.38637 0.87353 0.0
H618 H 0.63555 0.47447 0.13284 0.0
H619 H 0.64864 0.4549 0.18494 0.0
H620 H 0.61318 0.44583 0.20124 0.0
H621 H 0.65998 0.4466 0.83103 0.0
H622 H 0.64488 0.41004 0.81328 0.0
H623 H 0.67287 0.42782 0.88899 0.0
C624 C 0.20777 0.44561 0.66048 0.0
C625 C 0.20088 0.42136 0.70611 0.0
C626 C 0.20748 0.44585 0.56971 0.0
C627 C 0.19989 0.42122 0.52368 0.0
C628 C 0.19275 0.39664 0.56928 0.0
C629 C 0.19344 0.39703 0.66005 0.0
C630 C 0.21546 0.47251 0.52307 0.0
C631 C 0.18438 0.36994 0.52217 0.0
C632 C 0.17619 0.41631 0.29097 0.0
C633 C 0.19991 0.42141 0.24524 0.0
C634 C 0.17583 0.41603 0.38181 0.0
C635 C 0.19985 0.42126 0.42765 0.0
C636 C 0.22389 0.42658 0.38186 0.0
C637 C 0.22359 0.42645 0.29112 0.0
C638 C 0.14975 0.41006 0.42872 0.0
C639 C 0.24997 0.43249 0.4287 0.0
H640 H 0.21362 0.46451 0.69561 0.0
H641 H 0.18795 0.37818 0.69487 0.0
H642 H 0.23347 0.4781 0.4805 0.0
H643 H 0.19828 0.46992 0.48096 0.0
H644 H 0.22076 0.48985 0.56853 0.0
H645 H 0.17891 0.35252 0.56732 0.0
H646 H 0.16641 0.3646 0.47973 0.0
H647 H 0.20147 0.37235 0.47987 0.0
H648 H 0.15779 0.41229 0.25583 0.0
H649 H 0.24204 0.43054 0.25616 0.0
H650 H 0.15378 0.42769 0.47114 0.0
H651 H 0.14281 0.39176 0.47104 0.0
H652 H 0.13276 0.40615 0.38343 0.0
H653 H 0.25689 0.45072 0.47145 0.0
H654 H 0.26698 0.43647 0.38339 0.0
H655 H 0.24592 0.41479 0.47066 0.0
C656 C 0.76328 0.20486 0.68934 0.0
C657 C 0.78003 0.19729 0.73549 0.0
C658 C 0.76316 0.20487 0.59853 0.0
C659 C 0.77997 0.19687 0.55303 0.0
C660 C 0.79672 0.18896 0.59918 0.0
C661 C 0.79665 0.18939 0.68995 0.0
C662 C 0.7452 0.21365 0.55127 0.0
C663 C 0.81473 0.18007 0.55268 0.0
C664 C 0.76149 0.17364 0.31985 0.0
C665 C 0.78059 0.19722 0.27456 0.0
C666 C 0.76114 0.17318 0.41064 0.0
C667 C 0.7802 0.19696 0.45699 0.0
C668 C 0.7995 0.22084 0.4117 0.0
C669 C 0.79954 0.22065 0.32092 0.0
C670 C 0.74044 0.14726 0.45695 0.0
C671 C 0.82 0.24664 0.45914 0.0
H672 H 0.75046 0.21108 0.7241 0.0
H673 H 0.80953 0.18336 0.72519 0.0
H674 H 0.75814 0.23165 0.50932 0.0
H675 H 0.73048 0.19676 0.50847 0.0
H676 H 0.73333 0.21928 0.59633 0.0
H677 H 0.82618 0.17408 0.59823 0.0
H678 H 0.80193 0.1623 0.50966 0.0
H679 H 0.82984 0.19706 0.51105 0.0
H680 H 0.74686 0.15543 0.28438 0.0
H681 H 0.8143 0.23898 0.2863 0.0
H682 H 0.72699 0.15169 0.49869 0.0
H683 H 0.75129 0.13989 0.49986 0.0
H684 H 0.72723 0.13044 0.41128 0.0
H685 H 0.80894 0.25398 0.50136 0.0
H686 H 0.8335 0.26354 0.4142 0.0
H687 H 0.83317 0.24208 0.50169 0.0
C688 C 0.55747 0.76294 0.66721 0.0
C689 C 0.58181 0.78003 0.71295 0.0
C690 C 0.55718 0.7625 0.57642 0.0
C691 C 0.58187 0.77936 0.53046 0.0
C692 C 0.60653 0.79655 0.57618 0.0
C693 C 0.60617 0.79679 0.66697 0.0
C694 C 0.53044 0.74412 0.52967 0.0
C695 C 0.63329 0.81465 0.52918 0.0
C696 C 0.58665 0.76023 0.29789 0.0
C697 C 0.58182 0.77897 0.2519 0.0
C698 C 0.58683 0.76018 0.38874 0.0
C699 C 0.58185 0.77919 0.43439 0.0
C700 C 0.57684 0.79807 0.38835 0.0
C701 C 0.57699 0.7978 0.29759 0.0
C702 C 0.59244 0.73988 0.43587 0.0
C703 C 0.57126 0.81851 0.43496 0.0
H704 H 0.53853 0.75001 0.70231 0.0
H705 H 0.62509 0.80994 0.7019 0.0
H706 H 0.52514 0.7567 0.48694 0.0
H707 H 0.53275 0.72931 0.4877 0.0
H708 H 0.51303 0.73232 0.57506 0.0
H709 H 0.65074 0.82654 0.57441 0.0
H710 H 0.63849 0.80184 0.487 0.0
H711 H 0.63107 0.82937 0.48664 0.0
H712 H 0.59049 0.74568 0.26295 0.0
H713 H 0.57316 0.8123 0.26247 0.0
H714 H 0.57472 0.72648 0.47819 0.0
H715 H 0.61076 0.75109 0.47831 0.0
H716 H 0.59614 0.7266 0.39073 0.0
H717 H 0.553 0.80743 0.47767 0.0
H718 H 0.56749 0.83163 0.38949 0.0
H719 H 0.58903 0.83206 0.47693 0.0
C720 C 0.81111 0.60661 0.7042 0.0
C721 C 0.80321 0.58219 0.75015 0.0
C722 C 0.81184 0.607 0.61344 0.0
C723 C 0.80426 0.58232 0.56767 0.0
C724 C 0.79622 0.55758 0.61356 0.0
C725 C 0.79591 0.55784 0.70436 0.0
C726 C 0.8207 0.6338 0.56653 0.0
C727 C 0.78778 0.53083 0.56672 0.0
C728 C 0.78085 0.57793 0.3351 0.0
C729 C 0.80444 0.5827 0.28917 0.0
C730 C 0.78046 0.57755 0.42584 0.0
C731 C 0.80432 0.58231 0.47161 0.0
C732 C 0.82823 0.58721 0.42571 0.0
C733 C 0.82797 0.58722 0.33487 0.0
C734 C 0.7545 0.57202 0.47271 0.0
C735 C 0.85413 0.59258 0.47258 0.0
H736 H 0.81693 0.62555 0.73912 0.0
H737 H 0.78971 0.53886 0.73941 0.0
H738 H 0.83859 0.63881 0.52407 0.0
H739 H 0.80375 0.63174 0.52428 0.0
H740 H 0.82649 0.65129 0.6118 0.0
H741 H 0.78219 0.51342 0.61206 0.0
H742 H 0.76984 0.52554 0.52421 0.0
H743 H 0.80483 0.5331 0.52452 0.0
H744 H 0.76254 0.57429 0.30017 0.0
H745 H 0.84629 0.591 0.2997 0.0
H746 H 0.75881 0.58979 0.51482 0.0
H747 H 0.74731 0.55374 0.5153 0.0
H748 H 0.73758 0.56831 0.42741 0.0
H749 H 0.86143 0.61093 0.51505 0.0
H750 H 0.871 0.59612 0.42726 0.0
H751 H 0.8497 0.57483 0.51484 0.0
C752 C 0.24359 0.82876 0.34558 0.0
C753 C 0.22452 0.80528 0.2997 0.0
C754 C 0.24365 0.82913 0.43638 0.0
C755 C 0.22435 0.80536 0.48215 0.0
C756 C 0.20511 0.78156 0.43625 0.0
C757 C 0.20535 0.78185 0.34546 0.0
C758 C 0.26432 0.85495 0.48333 0.0
C759 C 0.18437 0.75577 0.48304 0.0
C760 C 0.2409 0.79742 0.71471 0.0
C761 C 0.22434 0.80529 0.76069 0.0
C762 C 0.24101 0.79723 0.62392 0.0
C763 C 0.22435 0.80535 0.5782 0.0
C764 C 0.20767 0.81343 0.62415 0.0
C765 C 0.20777 0.81319 0.71495 0.0
C766 C 0.25886 0.78825 0.57692 0.0
C767 C 0.18981 0.82242 0.57738 0.0
H768 H 0.25838 0.84698 0.31058 0.0
H769 H 0.19061 0.7636 0.31037 0.0
H770 H 0.25342 0.86237 0.52597 0.0
H771 H 0.27759 0.85038 0.52541 0.0
H772 H 0.27772 0.87179 0.43807 0.0
H773 H 0.17091 0.73895 0.43767 0.0
H774 H 0.19522 0.74827 0.52549 0.0
H775 H 0.17116 0.76039 0.52529 0.0
H776 H 0.25366 0.79117 0.74961 0.0
H777 H 0.195 0.81941 0.75004 0.0
H778 H 0.27383 0.80515 0.53472 0.0
H779 H 0.24591 0.77039 0.53439 0.0
H780 H 0.27046 0.78234 0.62214 0.0
H781 H 0.20275 0.84027 0.53492 0.0
H782 H 0.17823 0.82833 0.62276 0.0
H783 H 0.17482 0.80552 0.53513 0.0
C784 C 0.41879 0.24325 0.61903 0.0
C785 C 0.42314 0.22417 0.66487 0.0
C786 C 0.41874 0.24342 0.52819 0.0
C787 C 0.42342 0.22423 0.48244 0.0
C788 C 0.42803 0.20506 0.52835 0.0
C789 C 0.42771 0.20518 0.61908 0.0
C790 C 0.41353 0.26401 0.48117 0.0
C791 C 0.43332 0.18444 0.48162 0.0
C792 C 0.39889 0.20675 0.25012 0.0
C793 C 0.42331 0.22317 0.20396 0.0
C794 C 0.39859 0.20708 0.34089 0.0
C795 C 0.42335 0.22405 0.38641 0.0
C796 C 0.44809 0.2406 0.3403 0.0
C797 C 0.44775 0.24005 0.24951 0.0
C798 C 0.37178 0.18929 0.38807 0.0
C799 C 0.47492 0.25877 0.38688 0.0
H800 H 0.41515 0.25791 0.65407 0.0
H801 H 0.43123 0.19046 0.65411 0.0
H802 H 0.43128 0.27718 0.43866 0.0
H803 H 0.39513 0.25302 0.43895 0.0
H804 H 0.41017 0.27749 0.52639 0.0
H805 H 0.43694 0.1712 0.52702 0.0
H806 H 0.41548 0.17102 0.43974 0.0
H807 H 0.45158 0.19537 0.43883 0.0
H808 H 0.37989 0.19375 0.21536 0.0
H809 H 0.46672 0.25274 0.21428 0.0
H810 H 0.36689 0.20229 0.43041 0.0
H811 H 0.37377 0.1744 0.43048 0.0
H812 H 0.35425 0.1776 0.34297 0.0
H813 H 0.47286 0.27372 0.42888 0.0
H814 H 0.49235 0.27039 0.34138 0.0
H815 H 0.48005 0.24603 0.42957 0.0
loop_
_geom_bond_atom_site_label_1
_geom_bond_atom_site_label_2
_geom_bond_distance
_geom_bond_site_symmetry_2
_ccdc_geom_bond_type
Eu0 C9 2.828 1_556 S
Eu0 O11 2.392 . S
Eu0 O13 2.418 . S
Eu0 O18 2.373 . S
Eu0 O21 2.488 . S
Eu0 O22 2.471 1_556 S
Eu0 O23 2.349 1_556 S
Eu1 O10 2.373 . S
Eu1 O14 2.488 . S
Eu1 O15 2.471 1_554 S
Eu1 O16 2.349 1_554 S
Eu1 O19 2.392 . S
Eu1 O20 2.418 . S
Eu1 C30 2.828 1_554 S
C2 O20 1.244 . S
C2 O23 1.265 . S
C3 C4 1.379 . S
C3 C7 1.373 1_554 S
C3 C9 1.505 . S
C4 C3 1.379 . S
C4 C6 1.369 . S
C4 H32 0.930 . S
C5 C7 1.383 . S
C5 C8 1.382 1_556 S
C5 H33 0.930 . S
C6 C4 1.369 . S
C6 C8 1.392 . S
C6 H34 0.930 . S
C7 C3 1.373 1_556 S
C7 C5 1.383 . S
C7 H35 0.931 . S
C8 C5 1.382 1_554 S
C8 C6 1.392 . S
C9 Eu0 2.828 1_554 S
C9 C3 1.505 . S
C9 O21 1.249 1_554 S
C9 O22 1.244 . S
O10 Eu1 2.373 . S
O10 C12 1.258 . S
O11 Eu0 2.392 . S
O11 C12 1.242 1_556 S
C12 O10 1.258 . S
C12 O11 1.242 1_554 S
O13 Eu0 2.418 . S
O13 C17 1.244 . S
O14 Eu1 2.488 . S
O14 C30 1.249 1_554 S
O15 Eu1 2.471 1_556 S
O15 C30 1.244 . S
O16 Eu1 2.349 1_556 S
O16 C17 1.265 . S
C17 O13 1.244 . S
C17 O16 1.265 . S
O18 Eu0 2.373 . S
O18 C31 1.258 . S
O19 Eu1 2.392 . S
O19 C31 1.242 1_554 S
O20 Eu1 2.418 . S
O20 C2 1.244 . S
O21 Eu0 2.488 . S
O21 C9 1.249 1_556 S
O22 Eu0 2.471 1_554 S
O22 C9 1.244 . S
O23 Eu0 2.349 1_554 S
O23 C2 1.265 . S
C24 C25 1.379 . S
C24 C28 1.373 1_556 S
C24 C30 1.505 . S
C25 C24 1.379 . S
C25 C27 1.369 . S
C25 H36 0.930 . S
C26 C28 1.383 . S
C26 C29 1.382 1_554 S
C26 H37 0.930 . S
C27 C25 1.369 . S
C27 C29 1.392 . S
C27 H38 0.930 . S
C28 C24 1.373 1_554 S
C28 C26 1.383 . S
C28 H39 0.931 . S
C29 C26 1.382 1_556 S
C29 C27 1.392 . S
C30 Eu1 2.828 1_556 S
C30 O14 1.249 1_556 S
C30 O15 1.244 . S
C30 C24 1.505 . S
C31 O18 1.258 . S
C31 O19 1.242 1_556 S
H32 C4 0.930 . S
H33 C5 0.930 . S
H34 C6 0.930 . S
H35 C7 0.931 . S
H36 C25 0.930 . S
H37 C26 0.930 . S
H38 C27 0.930 . S
H39 C28 0.931 . S
Eu40 C49 2.828 1_556 S
Eu40 O51 2.392 . S
Eu40 O53 2.418 . S
Eu40 O58 2.373 . S
Eu40 O61 2.488 . S
Eu40 O62 2.471 1_556 S
Eu40 O63 2.349 1_556 S
Eu41 O50 2.373 . S
Eu41 O54 2.488 . S
Eu41 O55 2.471 1_554 S
Eu41 O56 2.349 1_554 S
Eu41 O59 2.392 . S
Eu41 O60 2.418 . S
Eu41 C70 2.828 1_554 S
C42 O60 1.244 . S
C42 O63 1.265 . S
C43 C44 1.379 . S
C43 C47 1.373 1_554 S
C43 C49 1.505 . S
C44 C43 1.379 . S
C44 C46 1.369 . S
C44 H72 0.930 . S
C45 C47 1.383 . S
C45 C48 1.382 1_556 S
C45 H73 0.930 . S
C46 C44 1.369 . S
C46 C48 1.392 . S
C46 H74 0.930 . S
C47 C43 1.373 1_556 S
C47 C45 1.383 . S
C47 H75 0.931 . S
C48 C45 1.382 1_554 S
C48 C46 1.392 . S
C49 Eu40 2.828 1_554 S
C49 C43 1.505 . S
C49 O61 1.249 1_554 S
C49 O62 1.244 . S
O50 Eu41 2.373 . S
O50 C52 1.258 . S
O51 Eu40 2.392 . S
O51 C52 1.242 1_556 S
C52 O50 1.258 . S
C52 O51 1.242 1_554 S
O53 Eu40 2.418 . S
O53 C57 1.244 . S
O54 Eu41 2.488 . S
O54 C70 1.249 1_554 S
O55 Eu41 2.471 1_556 S
O55 C70 1.244 . S
O56 Eu41 2.349 1_556 S
O56 C57 1.265 . S
C57 O53 1.244 . S
C57 O56 1.265 . S
O58 Eu40 2.373 . S
O58 C71 1.258 . S
O59 Eu41 2.392 . S
O59 C71 1.242 1_554 S
O60 Eu41 2.418 . S
O60 C42 1.244 . S
O61 Eu40 2.488 . S
O61 C49 1.249 1_556 S
O62 Eu40 2.471 1_554 S
O62 C49 1.244 . S
O63 Eu40 2.349 1_554 S
O63 C42 1.265 . S
C64 C65 1.379 . S
C64 C68 1.373 1_556 S
C64 C70 1.505 . S
C65 C64 1.379 . S
C65 C67 1.369 . S
C65 H76 0.930 . S
C66 C68 1.383 . S
C66 C69 1.382 1_554 S
C66 H77 0.930 . S
C67 C65 1.369 . S
C67 C69 1.392 . S
C67 H78 0.930 . S
C68 C64 1.373 1_554 S
C68 C66 1.383 . S
C68 H79 0.931 . S
C69 C66 1.382 1_556 S
C69 C67 1.392 . S
C70 Eu41 2.828 1_556 S
C70 O54 1.249 1_556 S
C70 O55 1.244 . S
C70 C64 1.505 . S
C71 O58 1.258 . S
C71 O59 1.242 1_556 S
H72 C44 0.930 . S
H73 C45 0.930 . S
H74 C46 0.930 . S
H75 C47 0.931 . S
H76 C65 0.930 . S
H77 C66 0.930 . S
H78 C67 0.930 . S
H79 C68 0.931 . S
Eu80 C89 2.828 1_556 S
Eu80 O91 2.392 . S
Eu80 O93 2.418 . S
Eu80 O98 2.373 . S
Eu80 O101 2.488 . S
Eu80 O102 2.471 1_556 S
Eu80 O103 2.349 1_556 S
Eu81 O90 2.373 . S
Eu81 O94 2.488 . S
Eu81 O95 2.471 1_554 S
Eu81 O96 2.349 1_554 S
Eu81 O99 2.392 . S
Eu81 O100 2.418 . S
Eu81 C110 2.828 1_554 S
C82 O100 1.244 . S
C82 O103 1.265 . S
C83 C84 1.379 . S
C83 C87 1.373 1_554 S
C83 C89 1.505 . S
C84 C83 1.379 . S
C84 C86 1.369 . S
C84 H112 0.930 . S
C85 C87 1.383 . S
C85 C88 1.382 1_556 S
C85 H113 0.930 . S
C86 C84 1.369 . S
C86 C88 1.392 . S
C86 H114 0.930 . S
C87 C83 1.373 1_556 S
C87 C85 1.383 . S
C87 H115 0.931 . S
C88 C85 1.382 1_554 S
C88 C86 1.392 . S
C89 Eu80 2.828 1_554 S
C89 C83 1.505 . S
C89 O101 1.249 1_554 S
C89 O102 1.244 . S
O90 Eu81 2.373 . S
O90 C92 1.258 . S
O91 Eu80 2.392 . S
O91 C92 1.242 1_556 S
C92 O90 1.258 . S
C92 O91 1.242 1_554 S
O93 Eu80 2.418 . S
O93 C97 1.244 . S
O94 Eu81 2.488 . S
O94 C110 1.249 1_554 S
O95 Eu81 2.471 1_556 S
O95 C110 1.244 . S
O96 Eu81 2.349 1_556 S
O96 C97 1.265 . S
C97 O93 1.244 . S
C97 O96 1.265 . S
O98 Eu80 2.373 . S
O98 C111 1.258 . S
O99 Eu81 2.392 . S
O99 C111 1.242 1_554 S
O100 Eu81 2.418 . S
O100 C82 1.244 . S
O101 Eu80 2.488 . S
O101 C89 1.249 1_556 S
O102 Eu80 2.471 1_554 S
O102 C89 1.244 . S
O103 Eu80 2.349 1_554 S
O103 C82 1.265 . S
C104 C105 1.379 . S
C104 C108 1.373 1_556 S
C104 C110 1.505 . S
C105 C104 1.379 . S
C105 C107 1.369 . S
C105 H116 0.930 . S
C106 C108 1.383 . S
C106 C109 1.382 1_554 S
C106 H117 0.930 . S
C107 C105 1.369 . S
C107 C109 1.392 . S
C107 H118 0.930 . S
C108 C104 1.373 1_554 S
C108 C106 1.383 . S
C108 H119 0.931 . S
C109 C106 1.382 1_556 S
C109 C107 1.392 . S
C110 Eu81 2.828 1_556 S
C110 O94 1.249 1_556 S
C110 O95 1.244 . S
C110 C104 1.505 . S
C111 O98 1.258 . S
C111 O99 1.242 1_556 S
H112 C84 0.930 . S
H113 C85 0.930 . S
H114 C86 0.930 . S
H115 C87 0.931 . S
H116 C105 0.930 . S
H117 C106 0.930 . S
H118 C107 0.930 . S
H119 C108 0.931 . S
Eu120 C129 2.828 1_556 S
Eu120 O131 2.392 . S
Eu120 O133 2.418 . S
Eu120 O138 2.373 . S
Eu120 O141 2.488 . S
Eu120 O142 2.471 1_556 S
Eu120 O143 2.349 1_556 S
Eu121 O130 2.373 . S
Eu121 O134 2.488 . S
Eu121 O135 2.471 1_554 S
Eu121 O136 2.349 1_554 S
Eu121 O139 2.392 . S
Eu121 O140 2.418 . S
Eu121 C150 2.828 1_554 S
C122 O140 1.244 . S
C122 O143 1.265 . S
C123 C124 1.379 . S
C123 C127 1.373 1_554 S
C123 C129 1.505 . S
C124 C123 1.379 . S
C124 C126 1.369 . S
C124 H152 0.930 . S
C125 C127 1.383 . S
C125 C128 1.382 1_556 S
C125 H153 0.930 . S
C126 C124 1.369 . S
C126 C128 1.392 . S
C126 H154 0.930 . S
C127 C123 1.373 1_556 S
C127 C125 1.383 . S
C127 H155 0.931 . S
C128 C125 1.382 1_554 S
C128 C126 1.392 . S
C129 Eu120 2.828 1_554 S
C129 C123 1.505 . S
C129 O141 1.249 1_554 S
C129 O142 1.244 . S
O130 Eu121 2.373 . S
O130 C132 1.258 . S
O131 Eu120 2.392 . S
O131 C132 1.242 1_556 S
C132 O130 1.258 . S
C132 O131 1.242 1_554 S
O133 Eu120 2.418 . S
O133 C137 1.244 . S
O134 Eu121 2.488 . S
O134 C150 1.249 1_554 S
O135 Eu121 2.471 1_556 S
O135 C150 1.244 . S
O136 Eu121 2.349 1_556 S
O136 C137 1.265 . S
C137 O133 1.244 . S
C137 O136 1.265 . S
O138 Eu120 2.373 . S
O138 C151 1.258 . S
O139 Eu121 2.392 . S
O139 C151 1.242 1_554 S
O140 Eu121 2.418 . S
O140 C122 1.244 . S
O141 Eu120 2.488 . S
O141 C129 1.249 1_556 S
O142 Eu120 2.471 1_554 S
O142 C129 1.244 . S
O143 Eu120 2.349 1_554 S
O143 C122 1.265 . S
C144 C145 1.379 . S
C144 C148 1.373 1_556 S
C144 C150 1.505 . S
C145 C144 1.379 . S
C145 C147 1.369 . S
C145 H156 0.930 . S
C146 C148 1.383 . S
C146 C149 1.382 1_554 S
C146 H157 0.930 . S
C147 C145 1.369 . S
C147 C149 1.392 . S
C147 H158 0.930 . S
C148 C144 1.373 1_554 S
C148 C146 1.383 . S
C148 H159 0.931 . S
C149 C146 1.382 1_556 S
C149 C147 1.392 . S
C150 Eu121 2.828 1_556 S
C150 O134 1.249 1_556 S
C150 O135 1.244 . S
C150 C144 1.505 . S
C151 O138 1.258 . S
C151 O139 1.242 1_556 S
H152 C124 0.930 . S
H153 C125 0.930 . S
H154 C126 0.930 . S
H155 C127 0.931 . S
H156 C145 0.930 . S
H157 C146 0.930 . S
H158 C147 0.930 . S
H159 C148 0.931 . S
Eu160 C169 2.828 1_556 S
Eu160 O171 2.392 . S
Eu160 O173 2.418 . S
Eu160 O178 2.373 . S
Eu160 O181 2.488 . S
Eu160 O182 2.471 1_556 S
Eu160 O183 2.349 1_556 S
Eu161 O170 2.373 . S
Eu161 O174 2.488 . S
Eu161 O175 2.471 1_554 S
Eu161 O176 2.349 1_554 S
Eu161 O179 2.392 . S
Eu161 O180 2.418 . S
Eu161 C190 2.828 1_554 S
C162 O180 1.244 . S
C162 O183 1.265 . S
C163 C164 1.379 . S
C163 C167 1.373 1_554 S
C163 C169 1.505 . S
C164 C163 1.379 . S
C164 C166 1.369 . S
C164 H192 0.930 . S
C165 C167 1.383 . S
C165 C168 1.382 1_556 S
C165 H193 0.930 . S
C166 C164 1.369 . S
C166 C168 1.392 . S
C166 H194 0.930 . S
C167 C163 1.373 1_556 S
C167 C165 1.383 . S
C167 H195 0.931 . S
C168 C165 1.382 1_554 S
C168 C166 1.392 . S
C169 Eu160 2.828 1_554 S
C169 C163 1.505 . S
C169 O181 1.249 1_554 S
C169 O182 1.244 . S
O170 Eu161 2.373 . S
O170 C172 1.258 . S
O171 Eu160 2.392 . S
O171 C172 1.242 1_556 S
C172 O170 1.258 . S
C172 O171 1.242 1_554 S
O173 Eu160 2.418 . S
O173 C177 1.244 . S
O174 Eu161 2.488 . S
O174 C190 1.249 1_554 S
O175 Eu161 2.471 1_556 S
O175 C190 1.244 . S
O176 Eu161 2.349 1_556 S
O176 C177 1.265 . S
C177 O173 1.244 . S
C177 O176 1.265 . S
O178 Eu160 2.373 . S
O178 C191 1.258 . S
O179 Eu161 2.392 . S
O179 C191 1.242 1_554 S
O180 Eu161 2.418 . S
O180 C162 1.244 . S
O181 Eu160 2.488 . S
O181 C169 1.249 1_556 S
O182 Eu160 2.471 1_554 S
O182 C169 1.244 . S
O183 Eu160 2.349 1_554 S
O183 C162 1.265 . S
C184 C185 1.379 . S
C184 C188 1.373 1_556 S
C184 C190 1.505 . S
C185 C184 1.379 . S
C185 C187 1.369 . S
C185 H196 0.930 . S
C186 C188 1.383 . S
C186 C189 1.382 1_554 S
C186 H197 0.930 . S
C187 C185 1.369 . S
C187 C189 1.392 . S
C187 H198 0.930 . S
C188 C184 1.373 1_554 S
C188 C186 1.383 . S
C188 H199 0.931 . S
C189 C186 1.382 1_556 S
C189 C187 1.392 . S
C190 Eu161 2.828 1_556 S
C190 O174 1.249 1_556 S
C190 O175 1.244 . S
C190 C184 1.505 . S
C191 O178 1.258 . S
C191 O179 1.242 1_556 S
H192 C164 0.930 . S
H193 C165 0.930 . S
H194 C166 0.930 . S
H195 C167 0.931 . S
H196 C185 0.930 . S
H197 C186 0.930 . S
H198 C187 0.930 . S
H199 C188 0.931 . S
Eu200 C209 2.828 1_556 S
Eu200 O211 2.392 . S
Eu200 O213 2.418 . S
Eu200 O218 2.373 . S
Eu200 O221 2.488 . S
Eu200 O222 2.471 1_556 S
Eu200 O223 2.349 1_556 S
Eu201 O210 2.373 . S
Eu201 O214 2.488 . S
Eu201 O215 2.471 1_554 S
Eu201 O216 2.349 1_554 S
Eu201 O219 2.392 . S
Eu201 O220 2.418 . S
Eu201 C230 2.828 1_554 S
C202 O220 1.244 . S
C202 O223 1.265 . S
C203 C204 1.379 . S
C203 C207 1.373 1_554 S
C203 C209 1.505 . S
C204 C203 1.379 . S
C204 C206 1.369 . S
C204 H232 0.930 . S
C205 C207 1.383 . S
C205 C208 1.382 1_556 S
C205 H233 0.930 . S
C206 C204 1.369 . S
C206 C208 1.392 . S
C206 H234 0.930 . S
C207 C203 1.373 1_556 S
C207 C205 1.383 . S
C207 H235 0.931 . S
C208 C205 1.382 1_554 S
C208 C206 1.392 . S
C209 Eu200 2.828 1_554 S
C209 C203 1.505 . S
C209 O221 1.249 1_554 S
C209 O222 1.244 . S
O210 Eu201 2.373 . S
O210 C212 1.258 . S
O211 Eu200 2.392 . S
O211 C212 1.242 1_556 S
C212 O210 1.258 . S
C212 O211 1.242 1_554 S
O213 Eu200 2.418 . S
O213 C217 1.244 . S
O214 Eu201 2.488 . S
O214 C230 1.249 1_554 S
O215 Eu201 2.471 1_556 S
O215 C230 1.244 . S
O216 Eu201 2.349 1_556 S
O216 C217 1.265 . S
C217 O213 1.244 . S
C217 O216 1.265 . S
O218 Eu200 2.373 . S
O218 C231 1.258 . S
O219 Eu201 2.392 . S
O219 C231 1.242 1_554 S
O220 Eu201 2.418 . S
O220 C202 1.244 . S
O221 Eu200 2.488 . S
O221 C209 1.249 1_556 S
O222 Eu200 2.471 1_554 S
O222 C209 1.244 . S
O223 Eu200 2.349 1_554 S
O223 C202 1.265 . S
C224 C225 1.379 . S
C224 C228 1.373 1_556 S
C224 C230 1.505 . S
C225 C224 1.379 . S
C225 C227 1.369 . S
C225 H236 0.930 . S
C226 C228 1.383 . S
C226 C229 1.382 1_554 S
C226 H237 0.930 . S
C227 C225 1.369 . S
C227 C229 1.392 . S
C227 H238 0.930 . S
C228 C224 1.373 1_554 S
C228 C226 1.383 . S
C228 H239 0.931 . S
C229 C226 1.382 1_556 S
C229 C227 1.392 . S
C230 Eu201 2.828 1_556 S
C230 O214 1.249 1_556 S
C230 O215 1.244 . S
C230 C224 1.505 . S
C231 O218 1.258 . S
C231 O219 1.242 1_556 S
H232 C204 0.930 . S
H233 C205 0.930 . S
H234 C206 0.930 . S
H235 C207 0.931 . S
H236 C225 0.930 . S
H237 C226 0.930 . S
H238 C227 0.930 . S
H239 C228 0.931 . S
C240 C241 1.391 1_556 S
C240 C242 1.394 . S
C240 H256 0.931 . S
C241 C240 1.391 1_554 S
C241 C245 1.376 . S
C242 C240 1.394 . S
C242 C243 1.369 1_556 S
C242 C246 1.531 . S
C243 C242 1.369 1_554 S
C243 C244 1.410 . S
C243 C251 1.503 . S
C244 C243 1.410 . S
C244 C245 1.392 . S
C244 C247 1.511 . S
C245 C241 1.376 . S
C245 C244 1.392 . S
C245 H257 0.929 . S
C246 C242 1.531 . S
C246 H258 0.960 1_556 S
C246 H259 0.962 . S
C246 H260 0.960 . S
C247 C244 1.511 . S
C247 H261 0.961 . S
C247 H262 0.961 . S
C247 H263 0.961 . S
C248 C249 1.370 1_556 S
C248 C250 1.363 . S
C248 H264 0.931 . S
C249 C248 1.370 1_554 S
C249 C253 1.408 . S
C250 C248 1.363 . S
C250 C251 1.370 1_556 S
C250 C254 1.524 . S
C251 C243 1.503 . S
C251 C250 1.370 1_554 S
C251 C252 1.403 . S
C252 C251 1.403 . S
C252 C253 1.404 . S
C252 C255 1.539 . S
C253 C249 1.408 . S
C253 C252 1.404 . S
C253 H265 0.930 . S
C254 C250 1.524 . S
C254 H266 0.956 . S
C254 H267 0.961 . S
C254 H268 0.961 . S
C255 C252 1.539 . S
C255 H269 0.958 . S
C255 H270 0.961 . S
C255 H271 0.960 . S
H256 C240 0.931 . S
H257 C245 0.929 . S
H258 C246 0.960 1_554 S
H259 C246 0.962 . S
H260 C246 0.960 . S
H261 C247 0.961 . S
H262 C247 0.961 . S
H263 C247 0.961 . S
H264 C248 0.931 . S
H265 C253 0.930 . S
H266 C254 0.956 . S
H267 C254 0.961 . S
H268 C254 0.961 . S
H269 C255 0.958 . S
H270 C255 0.961 . S
H271 C255 0.960 . S
C272 C273 1.391 . S
C272 C274 1.394 . S
C272 H288 0.931 . S
C273 C272 1.391 . S
C273 C277 1.376 1_556 S
C274 C272 1.394 . S
C274 C275 1.369 1_556 S
C274 C278 1.531 . S
C275 C274 1.369 1_554 S
C275 C276 1.410 . S
C275 C283 1.503 . S
C276 C275 1.410 . S
C276 C277 1.392 . S
C276 C279 1.511 . S
C277 C273 1.376 1_554 S
C277 C276 1.392 . S
C277 H289 0.929 . S
C278 C274 1.531 . S
C278 H290 0.960 . S
C278 H291 0.962 . S
C278 H292 0.960 . S
C279 C276 1.511 . S
C279 H293 0.961 . S
C279 H294 0.961 . S
C279 H295 0.961 . S
C280 C281 1.370 . S
C280 C282 1.363 1_655 S
C280 H296 0.931 . S
C281 C280 1.370 . S
C281 C285 1.408 1_654 S
C282 C280 1.363 1_455 S
C282 C283 1.370 . S
C282 C286 1.524 . S
C283 C275 1.503 . S
C283 C282 1.370 . S
C283 C284 1.403 1_554 S
C284 C283 1.403 1_556 S
C284 C285 1.404 . S
C284 C287 1.539 . S
C285 C281 1.408 1_456 S
C285 C284 1.404 . S
C285 H297 0.930 1_455 S
C286 C282 1.524 . S
C286 H298 0.956 . S
C286 H299 0.961 . S
C286 H300 0.961 . S
C287 C284 1.539 . S
C287 H301 0.958 . S
C287 H302 0.961 . S
C287 H303 0.960 . S
H288 C272 0.931 . S
H289 C277 0.929 . S
H290 C278 0.960 . S
H291 C278 0.962 . S
H292 C278 0.960 . S
H293 C279 0.961 . S
H294 C279 0.961 . S
H295 C279 0.961 . S
H296 C280 0.931 . S
H297 C285 0.930 1_655 S
H298 C286 0.956 . S
H299 C286 0.961 . S
H300 C286 0.961 . S
H301 C287 0.958 . S
H302 C287 0.961 . S
H303 C287 0.960 . S
C304 C305 1.391 1_554 S
C304 C306 1.394 . S
C304 H320 0.931 . S
C305 C304 1.391 1_556 S
C305 C309 1.376 . S
C306 C304 1.394 . S
C306 C307 1.369 1_554 S
C306 C310 1.531 . S
C307 C306 1.369 1_556 S
C307 C308 1.410 . S
C307 C315 1.503 1_556 S
C308 C307 1.410 . S
C308 C309 1.392 . S
C308 C311 1.511 . S
C309 C305 1.376 . S
C309 C308 1.392 . S
C309 H321 0.929 . S
C310 C306 1.531 . S
C310 H322 0.960 . S
C310 H323 0.962 . S
C310 H324 0.960 . S
C311 C308 1.511 . S
C311 H325 0.961 . S
C311 H326 0.961 . S
C311 H327 0.961 . S
C312 C313 1.370 1_545 S
C312 C314 1.363 . S
C312 H328 0.931 1_545 S
C313 C312 1.370 1_565 S
C313 C317 1.408 1_554 S
C314 C312 1.363 . S
C314 C315 1.370 . S
C314 C318 1.524 . S
C315 C307 1.503 1_554 S
C315 C314 1.370 . S
C315 C316 1.403 1_554 S
C316 C315 1.403 1_556 S
C316 C317 1.404 1_545 S
C316 C319 1.539 . S
C317 C313 1.408 1_556 S
C317 C316 1.404 1_565 S
C317 H329 0.930 . S
C318 C314 1.524 . S
C318 H330 0.956 . S
C318 H331 0.961 . S
C318 H332 0.961 . S
C319 C316 1.539 . S
C319 H333 0.958 . S
C319 H334 0.961 . S
C319 H335 0.960 . S
H320 C304 0.931 . S
H321 C309 0.929 . S
H322 C310 0.960 . S
H323 C310 0.962 . S
H324 C310 0.960 . S
H325 C311 0.961 . S
H326 C311 0.961 . S
H327 C311 0.961 . S
H328 C312 0.931 1_565 S
H329 C317 0.930 . S
H330 C318 0.956 . S
H331 C318 0.961 . S
H332 C318 0.961 . S
H333 C319 0.958 . S
H334 C319 0.961 . S
H335 C319 0.960 . S
C336 C337 1.391 . S
C336 C338 1.394 . S
C336 H352 0.931 . S
C337 C336 1.391 . S
C337 C341 1.376 . S
C338 C336 1.394 . S
C338 C339 1.369 . S
C338 C342 1.531 . S
C339 C338 1.369 . S
C339 C340 1.410 . S
C339 C347 1.503 . S
C340 C339 1.410 . S
C340 C341 1.392 . S
C340 C343 1.511 1_554 S
C341 C337 1.376 . S
C341 C340 1.392 . S
C341 H353 0.929 1_554 S
C342 C338 1.531 . S
C342 H354 0.960 . S
C342 H355 0.962 . S
C342 H356 0.960 . S
C343 C340 1.511 1_556 S
C343 H357 0.961 . S
C343 H358 0.961 . S
C343 H359 0.961 1_556 S
C344 C345 1.370 1_556 S
C344 C346 1.363 . S
C344 H360 0.931 . S
C345 C344 1.370 1_554 S
C345 C349 1.408 . S
C346 C344 1.363 . S
C346 C347 1.370 1_556 S
C346 C350 1.524 . S
C347 C339 1.503 . S
C347 C346 1.370 1_554 S
C347 C348 1.403 . S
C348 C347 1.403 . S
C348 C349 1.404 . S
C348 C351 1.539 . S
C349 C345 1.408 . S
C349 C348 1.404 . S
C349 H361 0.930 . S
C350 C346 1.524 . S
C350 H362 0.956 . S
C350 H363 0.961 . S
C350 H364 0.961 . S
C351 C348 1.539 . S
C351 H365 0.958 . S
C351 H366 0.961 . S
C351 H367 0.960 . S
H352 C336 0.931 . S
H353 C341 0.929 1_556 S
H354 C342 0.960 . S
H355 C342 0.962 . S
H356 C342 0.960 . S
H357 C343 0.961 . S
H358 C343 0.961 . S
H359 C343 0.961 1_554 S
H360 C344 0.931 . S
H361 C349 0.930 . S
H362 C350 0.956 . S
H363 C350 0.961 . S
H364 C350 0.961 . S
H365 C351 0.958 . S
H366 C351 0.961 . S
H367 C351 0.960 . S
C368 C369 1.391 . S
C368 C370 1.394 1_455 S
C368 H384 0.931 . S
C369 C368 1.391 . S
C369 C373 1.376 1_455 S
C370 C368 1.394 1_655 S
C370 C371 1.369 . S
C370 C374 1.531 . S
C371 C370 1.369 . S
C371 C372 1.410 . S
C371 C379 1.503 . S
C372 C371 1.410 . S
C372 C373 1.392 . S
C372 C375 1.511 1_554 S
C373 C369 1.376 1_655 S
C373 C372 1.392 . S
C373 H385 0.941 1_655 S
C374 C370 1.531 . S
C374 H386 0.960 . S
C374 H387 0.962 . S
C374 H388 0.960 . S
C375 C372 1.511 1_556 S
C375 H389 0.961 . S
C375 H390 0.961 . S
C375 H391 0.961 1_556 S
C376 C377 1.370 1_556 S
C376 C378 1.363 . S
C376 H392 0.931 . S
C377 C376 1.370 1_554 S
C377 C381 1.408 . S
C378 C376 1.363 . S
C378 C379 1.370 1_556 S
C378 C382 1.524 . S
C379 C371 1.503 . S
C379 C378 1.370 1_554 S
C379 C380 1.403 . S
C380 C379 1.403 . S
C380 C381 1.404 . S
C380 C383 1.539 . S
C381 C377 1.408 . S
C381 C380 1.404 . S
C381 H393 0.930 . S
C382 C378 1.524 . S
C382 H394 0.956 . S
C382 H395 0.961 . S
C382 H396 0.961 . S
C383 C380 1.539 . S
C383 H397 0.958 . S
C383 H398 0.961 . S
C383 H399 0.960 . S
H384 C368 0.931 . S
H385 C373 0.941 1_455 S
H386 C374 0.960 . S
H387 C374 0.962 . S
H388 C374 0.960 . S
H389 C375 0.961 . S
H390 C375 0.961 . S
H391 C375 0.961 1_554 S
H392 C376 0.931 . S
H393 C381 0.930 . S
H394 C382 0.956 . S
H395 C382 0.961 . S
H396 C382 0.961 . S
H397 C383 0.958 . S
H398 C383 0.961 . S
H399 C383 0.960 . S
C400 C401 1.391 1_554 S
C400 C402 1.394 . S
C400 H416 0.931 . S
C401 C400 1.391 1_556 S
C401 C405 1.376 . S
C402 C400 1.394 . S
C402 C403 1.369 1_554 S
C402 C406 1.531 . S
C403 C402 1.369 1_556 S
C403 C404 1.410 . S
C403 C411 1.503 1_556 S
C404 C403 1.410 . S
C404 C405 1.392 . S
C404 C407 1.511 . S
C405 C401 1.376 . S
C405 C404 1.392 . S
C405 H417 0.929 . S
C406 C402 1.531 . S
C406 H418 0.960 . S
C406 H419 0.962 . S
C406 H420 0.960 . S
C407 C404 1.511 . S
C407 H421 0.961 . S
C407 H422 0.961 . S
C407 H423 0.961 . S
C408 C409 1.370 1_565 S
C408 C410 1.363 . S
C408 H424 0.931 1_565 S
C409 C408 1.370 1_545 S
C409 C413 1.408 1_554 S
C410 C408 1.363 . S
C410 C411 1.370 . S
C410 C414 1.524 . S
C411 C403 1.503 1_554 S
C411 C410 1.370 . S
C411 C412 1.403 1_554 S
C412 C411 1.403 1_556 S
C412 C413 1.404 1_565 S
C412 C415 1.539 . S
C413 C409 1.408 1_556 S
C413 C412 1.404 1_545 S
C413 H425 0.930 . S
C414 C410 1.524 . S
C414 H426 0.956 . S
C414 H427 0.961 . S
C414 H428 0.961 . S
C415 C412 1.539 . S
C415 H429 0.958 . S
C415 H430 0.961 . S
C415 H431 0.960 . S
H416 C400 0.931 . S
H417 C405 0.929 . S
H418 C406 0.960 . S
H419 C406 0.962 . S
H420 C406 0.960 . S
H421 C407 0.961 . S
H422 C407 0.961 . S
H423 C407 0.961 . S
H424 C408 0.931 1_545 S
H425 C413 0.930 . S
H426 C414 0.956 . S
H427 C414 0.961 . S
H428 C414 0.961 . S
H429 C415 0.958 . S
H430 C415 0.961 . S
H431 C415 0.960 . S
C432 C433 1.391 . S
C432 C434 1.394 . S
C432 H448 0.931 . S
C433 C432 1.391 . S
C433 C437 1.376 1_556 S
C434 C432 1.394 . S
C434 C435 1.369 . S
C434 C438 1.531 . S
C435 C434 1.369 . S
C435 C436 1.410 1_556 S
C435 C443 1.503 . S
C436 C435 1.410 1_554 S
C436 C437 1.392 . S
C436 C439 1.511 . S
C437 C433 1.376 1_554 S
C437 C436 1.392 . S
C437 H449 0.929 . S
C438 C434 1.531 . S
C438 H450 0.960 . S
C438 H451 0.962 . S
C438 H452 0.960 . S
C439 C436 1.511 . S
C439 H453 0.961 . S
C439 H454 0.961 . S
C439 H455 0.961 . S
C440 C441 1.370 1_554 S
C440 C442 1.363 . S
C440 H456 0.931 . S
C441 C440 1.370 1_556 S
C441 C445 1.408 . S
C442 C440 1.363 . S
C442 C443 1.370 1_554 S
C442 C446 1.524 . S
C443 C435 1.503 . S
C443 C442 1.370 1_556 S
C443 C444 1.403 . S
C444 C443 1.403 . S
C444 C445 1.404 . S
C444 C447 1.539 . S
C445 C441 1.408 . S
C445 C444 1.404 . S
C445 H457 0.930 . S
C446 C442 1.524 . S
C446 H458 0.956 . S
C446 H459 0.961 . S
C446 H460 0.961 . S
C447 C444 1.539 . S
C447 H461 0.958 . S
C447 H462 0.961 . S
C447 H463 0.960 . S
H448 C432 0.931 . S
H449 C437 0.929 . S
H450 C438 0.960 . S
H451 C438 0.962 . S
H452 C438 0.960 . S
H453 C439 0.961 . S
H454 C439 0.961 . S
H455 C439 0.961 . S
H456 C440 0.931 . S
H457 C445 0.930 . S
H458 C446 0.956 . S
H459 C446 0.961 . S
H460 C446 0.961 . S
H461 C447 0.958 . S
H462 C447 0.961 . S
H463 C447 0.960 . S
C464 C465 1.391 . S
C464 C466 1.394 . S
C464 H480 0.931 . S
C465 C464 1.391 . S
C465 C469 1.376 1_554 S
C466 C464 1.394 . S
C466 C467 1.369 . S
C466 C470 1.531 . S
C467 C466 1.369 . S
C467 C468 1.410 1_554 S
C467 C475 1.503 1_554 S
C468 C467 1.410 1_556 S
C468 C469 1.392 . S
C468 C471 1.511 . S
C469 C465 1.376 1_556 S
C469 C468 1.392 . S
C469 H481 0.929 . S
C470 C466 1.531 . S
C470 H482 0.960 . S
C470 H483 0.962 1_554 S
C470 H484 0.960 . S
C471 C468 1.511 . S
C471 H485 0.961 . S
C471 H486 0.961 . S
C471 H487 0.961 1_556 S
C472 C473 1.370 . S
C472 C474 1.363 . S
C472 H488 0.931 . S
C473 C472 1.370 . S
C473 C477 1.408 1_556 S
C474 C472 1.363 . S
C474 C475 1.370 . S
C474 C478 1.524 . S
C475 C467 1.503 1_556 S
C475 C474 1.370 . S
C475 C476 1.403 1_556 S
C476 C475 1.403 1_554 S
C476 C477 1.404 . S
C476 C479 1.539 . S
C477 C473 1.408 1_554 S
C477 C476 1.404 . S
C477 H489 0.930 . S
C478 C474 1.524 . S
C478 H490 0.956 . S
C478 H491 0.961 . S
C478 H492 0.961 . S
C479 C476 1.539 . S
C479 H493 0.958 . S
C479 H494 0.961 . S
C479 H495 0.960 . S
H480 C464 0.931 . S
H481 C469 0.929 . S
H482 C470 0.960 . S
H483 C470 0.962 1_556 S
H484 C470 0.960 . S
H485 C471 0.961 . S
H486 C471 0.961 . S
H487 C471 0.961 1_554 S
H488 C472 0.931 . S
H489 C477 0.930 . S
H490 C478 0.956 . S
H491 C478 0.961 . S
H492 C478 0.961 . S
H493 C479 0.958 . S
H494 C479 0.961 . S
H495 C479 0.960 . S
C496 C497 1.391 1_554 S
C496 C498 1.394 . S
C496 H512 0.931 . S
C497 C496 1.391 1_556 S
C497 C501 1.376 . S
C498 C496 1.394 . S
C498 C499 1.369 1_554 S
C498 C502 1.531 . S
C499 C498 1.369 1_556 S
C499 C500 1.410 . S
C499 C507 1.503 . S
C500 C499 1.410 . S
C500 C501 1.392 . S
C500 C503 1.511 . S
C501 C497 1.376 . S
C501 C500 1.392 . S
C501 H513 0.929 . S
C502 C498 1.531 . S
C502 H514 0.960 . S
C502 H515 0.962 . S
C502 H516 0.960 . S
C503 C500 1.511 . S
C503 H517 0.961 . S
C503 H518 0.961 . S
C503 H519 0.961 . S
C504 C505 1.370 1_554 S
C504 C506 1.363 . S
C504 H520 0.931 . S
C505 C504 1.370 1_556 S
C505 C509 1.408 . S
C506 C504 1.363 . S
C506 C507 1.370 1_554 S
C506 C510 1.524 . S
C507 C499 1.503 . S
C507 C506 1.370 1_556 S
C507 C508 1.403 . S
C508 C507 1.403 . S
C508 C509 1.404 . S
C508 C511 1.539 . S
C509 C505 1.408 . S
C509 C508 1.404 . S
C509 H521 0.930 . S
C510 C506 1.524 . S
C510 H522 0.956 . S
C510 H523 0.961 1_554 S
C510 H524 0.961 . S
C511 C508 1.539 . S
C511 H525 0.958 . S
C511 H526 0.961 . S
C511 H527 0.960 . S
H512 C496 0.931 . S
H513 C501 0.929 . S
H514 C502 0.960 . S
H515 C502 0.962 . S
H516 C502 0.960 . S
H517 C503 0.961 . S
H518 C503 0.961 . S
H519 C503 0.961 . S
H520 C504 0.931 . S
H521 C509 0.930 . S
H522 C510 0.956 . S
H523 C510 0.961 1_556 S
H524 C510 0.961 . S
H525 C511 0.958 . S
H526 C511 0.961 . S
H527 C511 0.960 . S
C528 C529 1.391 . S
C528 C530 1.394 . S
C528 H544 0.931 . S
C529 C528 1.391 . S
C529 C533 1.376 . S
C530 C528 1.394 . S
C530 C531 1.369 . S
C530 C534 1.531 . S
C531 C530 1.369 . S
C531 C532 1.410 . S
C531 C539 1.503 . S
C532 C531 1.410 . S
C532 C533 1.392 . S
C532 C535 1.511 1_556 S
C533 C529 1.376 . S
C533 C532 1.392 . S
C533 H545 0.929 . S
C534 C530 1.531 . S
C534 H546 0.960 . S
C534 H547 0.962 . S
C534 H548 0.960 . S
C535 C532 1.511 1_554 S
C535 H549 0.961 . S
C535 H550 0.961 . S
C535 H551 0.961 1_554 S
C536 C537 1.370 1_554 S
C536 C538 1.363 . S
C536 H552 0.931 . S
C537 C536 1.370 1_556 S
C537 C541 1.408 . S
C538 C536 1.363 . S
C538 C539 1.370 1_554 S
C538 C542 1.524 . S
C539 C531 1.503 . S
C539 C538 1.370 1_556 S
C539 C540 1.403 . S
C540 C539 1.403 . S
C540 C541 1.404 . S
C540 C543 1.539 . S
C541 C537 1.408 . S
C541 C540 1.404 . S
C541 H553 0.930 . S
C542 C538 1.524 . S
C542 H554 0.956 . S
C542 H555 0.961 . S
C542 H556 0.961 . S
C543 C540 1.539 . S
C543 H557 0.958 . S
C543 H558 0.961 . S
C543 H559 0.960 . S
H544 C528 0.931 . S
H545 C533 0.929 . S
H546 C534 0.960 . S
H547 C534 0.962 . S
H548 C534 0.960 . S
H549 C535 0.961 . S
H550 C535 0.961 . S
H551 C535 0.961 1_556 S
H552 C536 0.931 . S
H553 C541 0.930 . S
H554 C542 0.956 . S
H555 C542 0.961 . S
H556 C542 0.961 . S
H557 C543 0.958 . S
H558 C543 0.961 . S
H559 C543 0.960 . S
C560 C561 1.391 . S
C560 C562 1.394 . S
C560 H576 0.931 . S
C561 C560 1.391 . S
C561 C565 1.376 1_556 S
C562 C560 1.394 . S
C562 C563 1.369 . S
C562 C566 1.531 . S
C563 C562 1.369 . S
C563 C564 1.410 1_556 S
C563 C571 1.503 . S
C564 C563 1.410 1_554 S
C564 C565 1.392 . S
C564 C567 1.511 . S
C565 C561 1.376 1_554 S
C565 C564 1.392 . S
C565 H577 0.929 . S
C566 C562 1.531 . S
C566 H578 0.960 . S
C566 H579 0.962 . S
C566 H580 0.960 . S
C567 C564 1.511 . S
C567 H581 0.961 . S
C567 H582 0.961 . S
C567 H583 0.961 . S
C568 C569 1.368 1_556 S
C568 C570 1.363 . S
C568 H584 0.931 . S
C569 C568 1.368 1_554 S
C569 C573 1.410 . S
C570 C568 1.363 . S
C570 C571 1.370 . S
C570 C574 1.524 . S
C571 C563 1.503 . S
C571 C570 1.370 . S
C571 C572 1.403 1_556 S
C572 C571 1.403 1_554 S
C572 C573 1.404 . S
C572 C575 1.539 . S
C573 C569 1.410 . S
C573 C572 1.404 . S
C573 H585 0.930 . S
C574 C570 1.524 . S
C574 H586 0.956 . S
C574 H587 0.961 . S
C574 H588 0.961 . S
C575 C572 1.539 . S
C575 H589 0.961 . S
C575 H590 0.961 . S
C575 H591 0.960 . S
H576 C560 0.931 . S
H577 C565 0.929 . S
H578 C566 0.960 . S
H579 C566 0.962 . S
H580 C566 0.960 . S
H581 C567 0.961 . S
H582 C567 0.961 . S
H583 C567 0.961 . S
H584 C568 0.931 . S
H585 C573 0.930 . S
H586 C574 0.956 . S
H587 C574 0.961 . S
H588 C574 0.961 . S
H589 C575 0.961 . S
H590 C575 0.961 . S
H591 C575 0.960 . S
C592 C593 1.391 . S
C592 C594 1.394 . S
C592 H608 0.931 . S
C593 C592 1.391 . S
C593 C597 1.376 . S
C594 C592 1.394 . S
C594 C595 1.369 . S
C594 C598 1.531 . S
C595 C594 1.369 . S
C595 C596 1.410 . S
C595 C603 1.503 . S
C596 C595 1.410 . S
C596 C597 1.392 . S
C596 C599 1.511 . S
C597 C593 1.376 . S
C597 C596 1.392 . S
C597 H609 0.929 1_556 S
C598 C594 1.531 . S
C598 H610 0.960 . S
C598 H611 0.962 . S
C598 H612 0.960 . S
C599 C596 1.511 . S
C599 H613 0.961 1_556 S
C599 H614 0.961 1_556 S
C599 H615 0.961 . S
C600 C601 1.370 1_554 S
C600 C602 1.363 . S
C600 H616 0.931 . S
C601 C600 1.370 1_556 S
C601 C605 1.408 . S
C602 C600 1.363 . S
C602 C603 1.370 1_554 S
C602 C606 1.524 . S
C603 C595 1.503 . S
C603 C602 1.370 1_556 S
C603 C604 1.403 . S
C604 C603 1.403 . S
C604 C605 1.404 . S
C604 C607 1.539 . S
C605 C601 1.408 . S
C605 C604 1.404 . S
C605 H617 0.930 . S
C606 C602 1.524 . S
C606 H618 0.956 . S
C606 H619 0.961 . S
C606 H620 0.961 . S
C607 C604 1.539 . S
C607 H621 0.958 . S
C607 H622 0.961 . S
C607 H623 0.960 . S
H608 C592 0.931 . S
H609 C597 0.929 1_554 S
H610 C598 0.960 . S
H611 C598 0.962 . S
H612 C598 0.960 . S
H613 C599 0.961 1_554 S
H614 C599 0.961 1_554 S
H615 C599 0.961 . S
H616 C600 0.931 . S
H617 C605 0.930 . S
H618 C606 0.956 . S
H619 C606 0.961 . S
H620 C606 0.961 . S
H621 C607 0.958 . S
H622 C607 0.961 . S
H623 C607 0.960 . S
C624 C625 1.391 . S
C624 C626 1.394 . S
C624 H640 0.931 . S
C625 C624 1.391 . S
C625 C629 1.376 . S
C626 C624 1.394 . S
C626 C627 1.369 . S
C626 C630 1.531 . S
C627 C626 1.369 . S
C627 C628 1.410 . S
C627 C635 1.503 . S
C628 C627 1.410 . S
C628 C629 1.392 . S
C628 C631 1.511 . S
C629 C625 1.376 . S
C629 C628 1.392 . S
C629 H641 0.929 . S
C630 C626 1.531 . S
C630 H642 0.960 . S
C630 H643 0.962 . S
C630 H644 0.960 . S
C631 C628 1.511 . S
C631 H645 0.961 . S
C631 H646 0.961 . S
C631 H647 0.961 . S
C632 C633 1.370 . S
C632 C634 1.363 . S
C632 H648 0.931 . S
C633 C632 1.370 . S
C633 C637 1.408 . S
C634 C632 1.363 . S
C634 C635 1.370 . S
C634 C638 1.524 . S
C635 C627 1.503 . S
C635 C634 1.370 . S
C635 C636 1.403 . S
C636 C635 1.403 . S
C636 C637 1.404 . S
C636 C639 1.539 . S
C637 C633 1.408 . S
C637 C636 1.404 . S
C637 H649 0.930 . S
C638 C634 1.524 . S
C638 H650 0.956 . S
C638 H651 0.961 . S
C638 H652 0.961 . S
C639 C636 1.539 . S
C639 H653 0.958 . S
C639 H654 0.961 . S
C639 H655 0.960 . S
H640 C624 0.931 . S
H641 C629 0.929 . S
H642 C630 0.960 . S
H643 C630 0.962 . S
H644 C630 0.960 . S
H645 C631 0.961 . S
H646 C631 0.961 . S
H647 C631 0.961 . S
H648 C632 0.931 . S
H649 C637 0.930 . S
H650 C638 0.956 . S
H651 C638 0.961 . S
H652 C638 0.961 . S
H653 C639 0.958 . S
H654 C639 0.961 . S
H655 C639 0.960 . S
C656 C657 1.391 . S
C656 C658 1.394 . S
C656 H672 0.931 . S
C657 C656 1.391 . S
C657 C661 1.376 . S
C658 C656 1.394 . S
C658 C659 1.369 . S
C658 C662 1.531 . S
C659 C658 1.369 . S
C659 C660 1.410 . S
C659 C667 1.503 . S
C660 C659 1.410 . S
C660 C661 1.392 . S
C660 C663 1.511 . S
C661 C657 1.376 . S
C661 C660 1.392 . S
C661 H673 0.929 . S
C662 C658 1.531 . S
C662 H674 0.960 . S
C662 H675 0.962 . S
C662 H676 0.960 . S
C663 C660 1.511 . S
C663 H677 0.961 . S
C663 H678 0.961 . S
C663 H679 0.961 . S
C664 C665 1.370 . S
C664 C666 1.363 . S
C664 H680 0.931 . S
C665 C664 1.370 . S
C665 C669 1.408 . S
C666 C664 1.363 . S
C666 C667 1.370 . S
C666 C670 1.524 . S
C667 C659 1.503 . S
C667 C666 1.370 . S
C667 C668 1.403 . S
C668 C667 1.403 . S
C668 C669 1.404 . S
C668 C671 1.539 . S
C669 C665 1.408 . S
C669 C668 1.404 . S
C669 H681 0.930 . S
C670 C666 1.524 . S
C670 H682 0.956 . S
C670 H683 0.961 . S
C670 H684 0.961 . S
C671 C668 1.539 . S
C671 H685 0.958 . S
C671 H686 0.961 . S
C671 H687 0.960 . S
H672 C656 0.931 . S
H673 C661 0.929 . S
H674 C662 0.960 . S
H675 C662 0.962 . S
H676 C662 0.960 . S
H677 C663 0.961 . S
H678 C663 0.961 . S
H679 C663 0.961 . S
H680 C664 0.931 . S
H681 C669 0.930 . S
H682 C670 0.956 . S
H683 C670 0.961 . S
H684 C670 0.961 . S
H685 C671 0.958 . S
H686 C671 0.961 . S
H687 C671 0.960 . S
C688 C689 1.391 . S
C688 C690 1.394 . S
C688 H704 0.931 . S
C689 C688 1.391 . S
C689 C693 1.376 . S
C690 C688 1.394 . S
C690 C691 1.369 . S
C690 C694 1.531 . S
C691 C690 1.369 . S
C691 C692 1.410 . S
C691 C699 1.503 . S
C692 C691 1.410 . S
C692 C693 1.392 . S
C692 C695 1.511 . S
C693 C689 1.376 . S
C693 C692 1.392 . S
C693 H705 0.929 . S
C694 C690 1.531 . S
C694 H706 0.960 . S
C694 H707 0.962 . S
C694 H708 0.960 . S
C695 C692 1.511 . S
C695 H709 0.961 . S
C695 H710 0.961 . S
C695 H711 0.961 . S
C696 C697 1.370 . S
C696 C698 1.363 . S
C696 H712 0.931 . S
C697 C696 1.370 . S
C697 C701 1.408 . S
C698 C696 1.363 . S
C698 C699 1.370 . S
C698 C702 1.524 . S
C699 C691 1.503 . S
C699 C698 1.370 . S
C699 C700 1.403 . S
C700 C699 1.403 . S
C700 C701 1.404 . S
C700 C703 1.539 . S
C701 C697 1.408 . S
C701 C700 1.404 . S
C701 H713 0.930 . S
C702 C698 1.524 . S
C702 H714 0.956 . S
C702 H715 0.961 . S
C702 H716 0.961 . S
C703 C700 1.539 . S
C703 H717 0.958 . S
C703 H718 0.961 . S
C703 H719 0.960 . S
H704 C688 0.931 . S
H705 C693 0.929 . S
H706 C694 0.960 . S
H707 C694 0.962 . S
H708 C694 0.960 . S
H709 C695 0.961 . S
H710 C695 0.961 . S
H711 C695 0.961 . S
H712 C696 0.931 . S
H713 C701 0.930 . S
H714 C702 0.956 . S
H715 C702 0.961 . S
H716 C702 0.961 . S
H717 C703 0.958 . S
H718 C703 0.961 . S
H719 C703 0.960 . S
C720 C721 1.391 . S
C720 C722 1.394 . S
C720 H736 0.931 . S
C721 C720 1.391 . S
C721 C725 1.376 . S
C722 C720 1.394 . S
C722 C723 1.369 . S
C722 C726 1.531 . S
C723 C722 1.369 . S
C723 C724 1.410 . S
C723 C731 1.503 . S
C724 C723 1.410 . S
C724 C725 1.392 . S
C724 C727 1.511 . S
C725 C721 1.376 . S
C725 C724 1.392 . S
C725 H737 0.929 . S
C726 C722 1.531 . S
C726 H738 0.960 . S
C726 H739 0.962 . S
C726 H740 0.960 . S
C727 C724 1.511 . S
C727 H741 0.961 . S
C727 H742 0.961 . S
C727 H743 0.961 . S
C728 C729 1.370 . S
C728 C730 1.363 . S
C728 H744 0.931 . S
C729 C728 1.370 . S
C729 C733 1.408 . S
C730 C728 1.363 . S
C730 C731 1.370 . S
C730 C734 1.524 . S
C731 C723 1.503 . S
C731 C730 1.370 . S
C731 C732 1.403 . S
C732 C731 1.403 . S
C732 C733 1.404 . S
C732 C735 1.539 . S
C733 C729 1.408 . S
C733 C732 1.404 . S
C733 H745 0.930 . S
C734 C730 1.524 . S
C734 H746 0.956 . S
C734 H747 0.961 . S
C734 H748 0.961 . S
C735 C732 1.539 . S
C735 H749 0.958 . S
C735 H750 0.961 . S
C735 H751 0.960 . S
H736 C720 0.931 . S
H737 C725 0.929 . S
H738 C726 0.960 . S
H739 C726 0.962 . S
H740 C726 0.960 . S
H741 C727 0.961 . S
H742 C727 0.961 . S
H743 C727 0.961 . S
H744 C728 0.931 . S
H745 C733 0.930 . S
H746 C734 0.956 . S
H747 C734 0.961 . S
H748 C734 0.961 . S
H749 C735 0.958 . S
H750 C735 0.961 . S
H751 C735 0.960 . S
C752 C753 1.391 . S
C752 C754 1.394 . S
C752 H768 0.931 . S
C753 C752 1.391 . S
C753 C757 1.376 . S
C754 C752 1.394 . S
C754 C755 1.369 . S
C754 C758 1.531 . S
C755 C754 1.369 . S
C755 C756 1.410 . S
C755 C763 1.503 . S
C756 C755 1.410 . S
C756 C757 1.392 . S
C756 C759 1.511 . S
C757 C753 1.376 . S
C757 C756 1.392 . S
C757 H769 0.929 . S
C758 C754 1.531 . S
C758 H770 0.960 . S
C758 H771 0.962 . S
C758 H772 0.960 . S
C759 C756 1.511 . S
C759 H773 0.961 . S
C759 H774 0.961 . S
C759 H775 0.961 . S
C760 C761 1.370 . S
C760 C762 1.363 . S
C760 H776 0.931 . S
C761 C760 1.370 . S
C761 C765 1.408 . S
C762 C760 1.363 . S
C762 C763 1.370 . S
C762 C766 1.524 . S
C763 C755 1.503 . S
C763 C762 1.370 . S
C763 C764 1.403 . S
C764 C763 1.403 . S
C764 C765 1.404 . S
C764 C767 1.539 . S
C765 C761 1.408 . S
C765 C764 1.404 . S
C765 H777 0.930 . S
C766 C762 1.524 . S
C766 H778 0.956 . S
C766 H779 0.961 . S
C766 H780 0.961 . S
C767 C764 1.539 . S
C767 H781 0.958 . S
C767 H782 0.961 . S
C767 H783 0.960 . S
H768 C752 0.931 . S
H769 C757 0.929 . S
H770 C758 0.960 . S
H771 C758 0.962 . S
H772 C758 0.960 . S
H773 C759 0.961 . S
H774 C759 0.961 . S
H775 C759 0.961 . S
H776 C760 0.931 . S
H777 C765 0.930 . S
H778 C766 0.956 . S
H779 C766 0.961 . S
H780 C766 0.961 . S
H781 C767 0.958 . S
H782 C767 0.961 . S
H783 C767 0.960 . S
C784 C785 1.391 . S
C784 C786 1.394 . S
C784 H800 0.931 . S
C785 C784 1.391 . S
C785 C789 1.376 . S
C786 C784 1.394 . S
C786 C787 1.369 . S
C786 C790 1.531 . S
C787 C786 1.369 . S
C787 C788 1.410 . S
C787 C795 1.503 . S
C788 C787 1.410 . S
C788 C789 1.392 . S
C788 C791 1.511 . S
C789 C785 1.376 . S
C789 C788 1.392 . S
C789 H801 0.929 . S
C790 C786 1.531 . S
C790 H802 0.960 . S
C790 H803 0.962 . S
C790 H804 0.960 . S
C791 C788 1.511 . S
C791 H805 0.961 . S
C791 H806 0.961 . S
C791 H807 0.961 . S
C792 C793 1.370 . S
C792 C794 1.363 . S
C792 H808 0.931 . S
C793 C792 1.370 . S
C793 C797 1.408 . S
C794 C792 1.363 . S
C794 C795 1.370 . S
C794 C798 1.524 . S
C795 C787 1.503 . S
C795 C794 1.370 . S
C795 C796 1.403 . S
C796 C795 1.403 . S
C796 C797 1.404 . S
C796 C799 1.539 . S
C797 C793 1.408 . S
C797 C796 1.404 . S
C797 H809 0.930 . S
C798 C794 1.524 . S
C798 H810 0.956 . S
C798 H811 0.961 . S
C798 H812 0.961 . S
C799 C796 1.539 . S
C799 H813 0.958 . S
C799 H814 0.961 . S
C799 H815 0.960 . S
H800 C784 0.931 . S
H801 C789 0.929 . S
H802 C790 0.960 . S
H803 C790 0.962 . S
H804 C790 0.960 . S
H805 C791 0.961 . S
H806 C791 0.961 . S
H807 C791 0.961 . S
H808 C792 0.931 . S
H809 C797 0.930 . S
H810 C798 0.956 . S
H811 C798 0.961 . S
H812 C798 0.961 . S
H813 C799 0.958 . S
H814 C799 0.961 . S
H815 C799 0.960 . S
C241 C231 1.892 1_554 S
C249 C8 1.647 . S
C273 C31 1.905 . S
C281 C48 1.656 . S
C305 C71 1.891 . S
C313 C88 1.630 . S
C337 C128 1.664 . S
C345 C111 1.898 1_554 S
C369 C168 1.661 . S
C377 C151 1.897 1_554 S
C401 C191 1.891 . S
C409 C208 1.630 . S
C433 C172 1.928 1_556 S
C441 C29 1.917 . S
C465 C212 1.933 . S
C473 C69 1.905 . S
C497 C109 1.921 . S
C505 C12 1.934 1_556 S
C529 C149 1.912 . S
C537 C52 1.932 1_556 S
C561 C189 1.892 . S
C569 C92 1.934 . S
C593 C132 1.925 1_556 S
C601 C229 1.917 . S
C625 C17 1.452 . S
C633 C2 1.459 . S
C657 C57 1.420 . S
C665 C42 1.470 . S
C689 C97 1.428 . S
C697 C82 1.465 . S
C721 C137 1.475 . S
C729 C122 1.446 . S
C753 C162 1.462 . S
C761 C177 1.451 . S
C785 C217 1.480 . S
C793 C202 1.447 . S
