# Generated by pormake.
# Topology fcg, (5)-cn, num edge types: 1
# Building blocks:
#     Node 0, Type 0, BuildingBlock: BEQFEK_clean_sbu_0, # of connection points: 5
#     Node 1, Type 0, BuildingBlock: BEQFEK_clean_sbu_0, # of connection points: 5
#     Node 2, Type 0, BuildingBlock: BEQFEK_clean_sbu_0, # of connection points: 5
#     Node 3, Type 0, BuildingBlock: BEQFEK_clean_sbu_0, # of connection points: 5
#     Node 4, Type 0, BuildingBlock: BEQFEK_clean_sbu_0, # of connection points: 5
#     Node 5, Type 0, BuildingBlock: BEQFEK_clean_sbu_0, # of connection points: 5
#     Node 6, Type 0, BuildingBlock: BEQFEK_clean_sbu_0, # of connection points: 5
#     Node 7, Type 0, BuildingBlock: BEQFEK_clean_sbu_0, # of connection points: 5
#     Node 8, Type 0, BuildingBlock: BEQFEK_clean_sbu_0, # of connection points: 5
#     Node 9, Type 0, BuildingBlock: BEQFEK_clean_sbu_0, # of connection points: 5
#     Node 10, Type 0, BuildingBlock: BEQFEK_clean_sbu_0, # of connection points: 5
#     Node 11, Type 0, BuildingBlock: BEQFEK_clean_sbu_0, # of connection points: 5
#     Node 12, Type 0, BuildingBlock: BEQFEK_clean_sbu_0, # of connection points: 5
#     Node 13, Type 0, BuildingBlock: BEQFEK_clean_sbu_0, # of connection points: 5
#     Node 14, Type 0, BuildingBlock: BEQFEK_clean_sbu_0, # of connection points: 5
#     Node 15, Type 0, BuildingBlock: BEQFEK_clean_sbu_0, # of connection points: 5
#     Node 16, Type 0, BuildingBlock: BEQFEK_clean_sbu_0, # of connection points: 5
#     Node 17, Type 0, BuildingBlock: BEQFEK_clean_sbu_0, # of connection points: 5
#     Node 18, Type 0, BuildingBlock: BEQFEK_clean_sbu_0, # of connection points: 5
#     Node 19, Type 0, BuildingBlock: BEQFEK_clean_sbu_0, # of connection points: 5
#     Node 20, Type 0, BuildingBlock: BEQFEK_clean_sbu_0, # of connection points: 5
#     Node 21, Type 0, BuildingBlock: BEQFEK_clean_sbu_0, # of connection points: 5
#     Node 22, Type 0, BuildingBlock: BEQFEK_clean_sbu_0, # of connection points: 5
#     Node 23, Type 0, BuildingBlock: BEQFEK_clean_sbu_0, # of connection points: 5
#     Node 24, Type 0, BuildingBlock: BEQFEK_clean_sbu_0, # of connection points: 5
#     Node 25, Type 0, BuildingBlock: BEQFEK_clean_sbu_0, # of connection points: 5
#     Node 26, Type 0, BuildingBlock: BEQFEK_clean_sbu_0, # of connection points: 5
#     Node 27, Type 0, BuildingBlock: BEQFEK_clean_sbu_0, # of connection points: 5
#     Node 28, Type 0, BuildingBlock: BEQFEK_clean_sbu_0, # of connection points: 5
#     Node 29, Type 0, BuildingBlock: BEQFEK_clean_sbu_0, # of connection points: 5
#     Node 30, Type 0, BuildingBlock: BEQFEK_clean_sbu_0, # of connection points: 5
#     Node 31, Type 0, BuildingBlock: BEQFEK_clean_sbu_0, # of connection points: 5
#     Node 32, Type 0, BuildingBlock: BEQFEK_clean_sbu_0, # of connection points: 5
#     Node 33, Type 0, BuildingBlock: BEQFEK_clean_sbu_0, # of connection points: 5
#     Node 34, Type 0, BuildingBlock: BEQFEK_clean_sbu_0, # of connection points: 5
#     Node 35, Type 0, BuildingBlock: BEQFEK_clean_sbu_0, # of connection points: 5
#     Node 36, Type 0, BuildingBlock: BEQFEK_clean_sbu_0, # of connection points: 5
#     Node 37, Type 0, BuildingBlock: BEQFEK_clean_sbu_0, # of connection points: 5
#     Node 38, Type 0, BuildingBlock: BEQFEK_clean_sbu_0, # of connection points: 5
#     Node 39, Type 0, BuildingBlock: BEQFEK_clean_sbu_0, # of connection points: 5
#     Node 40, Type 0, BuildingBlock: BEQFEK_clean_sbu_0, # of connection points: 5
#     Node 41, Type 0, BuildingBlock: BEQFEK_clean_sbu_0, # of connection points: 5
#     Node 42, Type 0, BuildingBlock: BEQFEK_clean_sbu_0, # of connection points: 5
#     Node 43, Type 0, BuildingBlock: BEQFEK_clean_sbu_0, # of connection points: 5
#     Node 44, Type 0, BuildingBlock: BEQFEK_clean_sbu_0, # of connection points: 5
#     Node 45, Type 0, BuildingBlock: BEQFEK_clean_sbu_0, # of connection points: 5
#     Node 46, Type 0, BuildingBlock: BEQFEK_clean_sbu_0, # of connection points: 5
#     Node 47, Type 0, BuildingBlock: BEQFEK_clean_sbu_0, # of connection points: 5
#     Edge 48, Type (0, 0), None
#     Edge 49, Type (0, 0), None
#     Edge 50, Type (0, 0), None
#     Edge 51, Type (0, 0), None
#     Edge 52, Type (0, 0), None
#     Edge 53, Type (0, 0), None
#     Edge 54, Type (0, 0), None
#     Edge 55, Type (0, 0), None
#     Edge 56, Type (0, 0), None
#     Edge 57, Type (0, 0), None
#     Edge 58, Type (0, 0), None
#     Edge 59, Type (0, 0), None
#     Edge 60, Type (0, 0), None
#     Edge 61, Type (0, 0), None
#     Edge 62, Type (0, 0), None
#     Edge 63, Type (0, 0), None
#     Edge 64, Type (0, 0), None
#     Edge 65, Type (0, 0), None
#     Edge 66, Type (0, 0), None
#     Edge 67, Type (0, 0), None
#     Edge 68, Type (0, 0), None
#     Edge 69, Type (0, 0), None
#     Edge 70, Type (0, 0), None
#     Edge 71, Type (0, 0), None
#     Edge 72, Type (0, 0), None
#     Edge 73, Type (0, 0), None
#     Edge 74, Type (0, 0), None
#     Edge 75, Type (0, 0), None
#     Edge 76, Type (0, 0), None
#     Edge 77, Type (0, 0), None
#     Edge 78, Type (0, 0), None
#     Edge 79, Type (0, 0), None
#     Edge 80, Type (0, 0), None
#     Edge 81, Type (0, 0), None
#     Edge 82, Type (0, 0), None
#     Edge 83, Type (0, 0), None
#     Edge 84, Type (0, 0), None
#     Edge 85, Type (0, 0), None
#     Edge 86, Type (0, 0), None
#     Edge 87, Type (0, 0), None
#     Edge 88, Type (0, 0), None
#     Edge 89, Type (0, 0), None
#     Edge 90, Type (0, 0), None
#     Edge 91, Type (0, 0), None
#     Edge 92, Type (0, 0), None
#     Edge 93, Type (0, 0), None
#     Edge 94, Type (0, 0), None
#     Edge 95, Type (0, 0), None
#     Edge 96, Type (0, 0), None
#     Edge 97, Type (0, 0), None
#     Edge 98, Type (0, 0), None
#     Edge 99, Type (0, 0), None
#     Edge 100, Type (0, 0), None
#     Edge 101, Type (0, 0), None
#     Edge 102, Type (0, 0), None
#     Edge 103, Type (0, 0), None
#     Edge 104, Type (0, 0), None
#     Edge 105, Type (0, 0), None
#     Edge 106, Type (0, 0), None
#     Edge 107, Type (0, 0), None
#     Edge 108, Type (0, 0), None
#     Edge 109, Type (0, 0), None
#     Edge 110, Type (0, 0), None
#     Edge 111, Type (0, 0), None
#     Edge 112, Type (0, 0), None
#     Edge 113, Type (0, 0), None
#     Edge 114, Type (0, 0), None
#     Edge 115, Type (0, 0), None
#     Edge 116, Type (0, 0), None
#     Edge 117, Type (0, 0), None
#     Edge 118, Type (0, 0), None
#     Edge 119, Type (0, 0), None
#     Edge 120, Type (0, 0), None
#     Edge 121, Type (0, 0), None
#     Edge 122, Type (0, 0), None
#     Edge 123, Type (0, 0), None
#     Edge 124, Type (0, 0), None
#     Edge 125, Type (0, 0), None
#     Edge 126, Type (0, 0), None
#     Edge 127, Type (0, 0), None
#     Edge 128, Type (0, 0), None
#     Edge 129, Type (0, 0), None
#     Edge 130, Type (0, 0), None
#     Edge 131, Type (0, 0), None
#     Edge 132, Type (0, 0), None
#     Edge 133, Type (0, 0), None
#     Edge 134, Type (0, 0), None
#     Edge 135, Type (0, 0), None
#     Edge 136, Type (0, 0), None
#     Edge 137, Type (0, 0), None
#     Edge 138, Type (0, 0), None
#     Edge 139, Type (0, 0), None
#     Edge 140, Type (0, 0), None
#     Edge 141, Type (0, 0), None
#     Edge 142, Type (0, 0), None
#     Edge 143, Type (0, 0), None
#     Edge 144, Type (0, 0), None
#     Edge 145, Type (0, 0), None
#     Edge 146, Type (0, 0), None
#     Edge 147, Type (0, 0), None
#     Edge 148, Type (0, 0), None
#     Edge 149, Type (0, 0), None
#     Edge 150, Type (0, 0), None
#     Edge 151, Type (0, 0), None
#     Edge 152, Type (0, 0), None
#     Edge 153, Type (0, 0), None
#     Edge 154, Type (0, 0), None
#     Edge 155, Type (0, 0), None
#     Edge 156, Type (0, 0), None
#     Edge 157, Type (0, 0), None
#     Edge 158, Type (0, 0), None
#     Edge 159, Type (0, 0), None
#     Edge 160, Type (0, 0), None
#     Edge 161, Type (0, 0), None
#     Edge 162, Type (0, 0), None
#     Edge 163, Type (0, 0), None
#     Edge 164, Type (0, 0), None
#     Edge 165, Type (0, 0), None
#     Edge 166, Type (0, 0), None
#     Edge 167, Type (0, 0), None
# Relax obj value: 0.219
# Max RMSD: 0.188
# Mean RMSD: 0.188
data_MOF--net-fcg--node1-BEQFEK_clean_sbu_0--edge1-none
_symmetry_space_group_name_H-M    P1
_symmetry_Int_Tables_number       1
_symmetry_cell_setting            triclinic
loop_
_symmetry_equiv_pos_as_xyz
'x, y, z'
_cell_length_a     33.987119
_cell_length_b     33.98703
_cell_length_c     33.988861
_cell_angle_alpha  90.000176
_cell_angle_beta   89.99981
_cell_angle_gamma 89.999991
loop_
_atom_site_label
_atom_site_type_symbol
_atom_site_fract_x
_atom_site_fract_y
_atom_site_fract_z
_atom_type_partial_charge
Co0 Co 0.17867 0.28416 0.16442 0.0
Co1 Co 0.1018 0.33177 0.17721 0.0
C2 C 0.11322 0.24622 0.19492 0.0
O3 O 0.13829 0.24419 0.16776 0.0
O4 O 0.09665 0.27874 0.2024 0.0
C5 C 0.21821 0.22705 0.11828 0.0
O6 O 0.18364 0.22489 0.10124 0.0
C7 C 0.01761 0.3344 0.16207 0.0
C8 C 1.0021 0.39719 0.16741 0.0
C9 C 0.98656 0.36054 0.15872 0.0
N10 N 0.05026 0.35445 0.17175 0.0
N11 N 0.04086 0.39211 0.17474 0.0
C12 C 0.01661 0.29094 0.15522 0.0
H13 H 0.04346 0.2817 0.13908 0.0
H14 H 0.98997 0.28218 0.13847 0.0
H15 H 0.01649 0.2756 0.18403 0.0
C16 C 0.18095 0.32786 0.09014 0.0
N17 N 0.16454 0.31938 0.12513 0.0
N18 N 0.12978 0.3361 0.1277 0.0
C19 C 0.12273 0.35534 0.09352 0.0
C20 C 0.15496 0.3505 0.06869 0.0
C21 C 0.2212 0.31527 0.07744 0.0
H22 H 0.24073 0.31168 0.10332 0.0
H23 H 0.21917 0.28691 0.06149 0.0
H24 H 0.23417 0.33724 0.05703 0.0
O25 O 0.18239 0.31076 0.21865 0.0
O26 O 0.13334 0.355 0.22055 0.0
H27 H 0.08213 0.40197 0.10439 0.0
H28 H 0.08508 0.3873 0.05333 0.0
C29 C 0.08536 0.37657 0.08417 0.0
H30 H 0.05999 0.3566 0.08897 0.0
H31 H 0.06086 0.41434 0.18173 0.0
O32 O 0.2238 0.25148 0.14642 0.0
C33 C 0.16313 0.3381 0.23645 0.0
Co34 Co 0.72908 0.17865 0.16444 0.0
Co35 Co 0.68148 0.10177 0.17722 0.0
C36 C 0.76703 0.11321 0.19492 0.0
O37 O 0.76905 0.13827 0.16776 0.0
O38 O 0.73451 0.09663 0.20241 0.0
C39 C 0.78618 0.21822 0.1183 0.0
O40 O 0.78834 0.18365 0.10124 0.0
C41 C 0.67885 0.01758 0.16209 0.0
C42 C 0.61606 1.00207 0.16741 0.0
C43 C 0.6527 0.98653 0.15874 0.0
N44 N 0.6588 0.05023 0.17176 0.0
N45 N 0.62114 0.04084 0.17474 0.0
C46 C 0.72231 0.01657 0.15525 0.0
H47 H 0.73155 0.04341 0.13911 0.0
H48 H 0.73107 0.98992 0.1385 0.0
H49 H 0.73764 0.01646 0.18406 0.0
C50 C 0.68536 0.18094 0.09016 0.0
N51 N 0.69385 0.16452 0.12516 0.0
N52 N 0.67714 0.12976 0.12772 0.0
C53 C 0.6579 0.1227 0.09353 0.0
C54 C 0.66273 0.15495 0.06871 0.0
C55 C 0.69794 0.22119 0.07747 0.0
H56 H 0.70154 0.24072 0.10335 0.0
H57 H 0.7263 0.21917 0.06151 0.0
H58 H 0.67597 0.23416 0.05707 0.0
O59 O 0.70248 0.18236 0.21867 0.0
O60 O 0.65825 0.13331 0.22056 0.0
H61 H 0.61128 0.08209 0.10439 0.0
H62 H 0.62596 0.08505 0.05333 0.0
C63 C 0.63669 0.08533 0.08418 0.0
H64 H 0.65666 0.05997 0.08899 0.0
H65 H 0.59891 0.06084 0.18172 0.0
O66 O 0.76175 0.22379 0.14644 0.0
C67 C 0.67514 0.16309 0.23646 0.0
Co68 Co 0.83456 0.72907 0.16443 0.0
Co69 Co 0.91143 0.68146 0.17721 0.0
C70 C 0.90001 0.76701 0.19491 0.0
O71 O 0.87495 0.76904 0.16775 0.0
O72 O 0.91658 0.73449 0.2024 0.0
C73 C 0.79501 0.78617 0.11827 0.0
O74 O 0.82959 0.78832 0.10123 0.0
C75 C 0.99562 0.67881 0.16208 0.0
C76 C 0.01112 0.61602 0.16741 0.0
C77 C 0.02666 0.65267 0.15873 0.0
N78 N 0.96297 0.65877 0.17175 0.0
N79 N 0.97236 0.62111 0.17474 0.0
C80 C 0.99664 0.72227 0.15523 0.0
H81 H 0.96979 0.73152 0.13909 0.0
H82 H 0.02328 0.73103 0.13848 0.0
H83 H 0.99675 0.73761 0.18404 0.0
C84 C 0.83226 0.68535 0.09015 0.0
N85 N 0.84869 0.69384 0.12515 0.0
N86 N 0.88345 0.67712 0.12771 0.0
C87 C 0.8905 0.65788 0.09352 0.0
C88 C 0.85825 0.66272 0.0687 0.0
C89 C 0.79201 0.69794 0.07746 0.0
H90 H 0.77249 0.70154 0.10334 0.0
H91 H 0.79404 0.72629 0.0615 0.0
H92 H 0.77904 0.67596 0.05706 0.0
O93 O 0.83085 0.70248 0.21866 0.0
O94 O 0.87989 0.65824 0.22056 0.0
H95 H 0.9311 0.61126 0.10438 0.0
H96 H 0.92814 0.62594 0.05333 0.0
C97 C 0.92787 0.63667 0.08417 0.0
H98 H 0.95323 0.65664 0.08897 0.0
H99 H 0.95236 0.59889 0.18173 0.0
O100 O 0.78943 0.76175 0.14642 0.0
C101 C 0.85011 0.67514 0.23646 0.0
Co102 Co 0.28412 0.83457 0.16444 0.0
Co103 Co 0.33172 0.91143 0.17722 0.0
C104 C 0.24617 0.90001 0.19493 0.0
O105 O 0.24414 0.87494 0.16778 0.0
O106 O 0.2787 0.91658 0.20242 0.0
C107 C 0.22701 0.795 0.1183 0.0
O108 O 0.22485 0.82957 0.10125 0.0
C109 C 0.33436 0.99563 0.1621 0.0
C110 C 0.39715 0.01113 0.16742 0.0
C111 C 0.36051 0.02667 0.15874 0.0
N112 N 0.35441 0.96297 0.17176 0.0
N113 N 0.39207 0.97237 0.17475 0.0
C114 C 0.2909 0.99664 0.15525 0.0
H115 H 0.28166 0.96979 0.13911 0.0
H116 H 0.28214 0.02328 0.1385 0.0
H117 H 0.27557 0.99675 0.18406 0.0
C118 C 0.32782 0.83228 0.09016 0.0
N119 N 0.31934 0.8487 0.12515 0.0
N120 N 0.33606 0.88345 0.12772 0.0
C121 C 0.3553 0.89051 0.09353 0.0
C122 C 0.35046 0.85827 0.06871 0.0
C123 C 0.31524 0.79203 0.07746 0.0
H124 H 0.31165 0.7725 0.10334 0.0
H125 H 0.28688 0.79405 0.06151 0.0
H126 H 0.33721 0.77906 0.05706 0.0
O127 O 0.31071 0.83085 0.21867 0.0
O128 O 0.35495 0.8799 0.22056 0.0
H129 H 0.40193 0.93111 0.1044 0.0
H130 H 0.38725 0.92815 0.05334 0.0
C131 C 0.37652 0.92788 0.08419 0.0
H132 H 0.35656 0.95324 0.08899 0.0
H133 H 0.4143 0.95237 0.18173 0.0
O134 O 0.25144 0.78943 0.14644 0.0
C135 C 0.33806 0.85011 0.23646 0.0
Co136 Co 0.17866 0.72905 0.84873 0.0
Co137 Co 0.1018 0.68145 0.83595 0.0
C138 C 0.11322 0.767 0.81825 0.0
O139 O 0.13828 0.76902 0.84541 0.0
O140 O 0.09665 0.73448 0.81076 0.0
C141 C 0.21822 0.78616 0.89487 0.0
O142 O 0.18365 0.78831 0.91192 0.0
C143 C 0.0176 0.6788 0.85109 0.0
C144 C 1.0021 0.61602 0.84575 0.0
C145 C 0.98656 0.65266 0.85444 0.0
N146 N 0.05026 0.65876 0.84141 0.0
N147 N 0.04086 0.6211 0.83842 0.0
C148 C 0.01659 0.72226 0.85794 0.0
H149 H 0.04344 0.73151 0.87408 0.0
H150 H 0.98995 0.73102 0.87469 0.0
H151 H 0.01648 0.7376 0.82913 0.0
C152 C 0.18096 0.68534 0.923 0.0
N153 N 0.16454 0.69383 0.88801 0.0
N154 N 0.12978 0.67711 0.88545 0.0
C155 C 0.12273 0.65787 0.91963 0.0
C156 C 0.15497 0.6627 0.94446 0.0
C157 C 0.22121 0.69793 0.9357 0.0
H158 H 0.24074 0.70152 0.90982 0.0
H159 H 0.21919 0.72628 0.95166 0.0
H160 H 0.23418 0.67595 0.9561 0.0
O161 O 0.18238 0.70246 0.7945 0.0
O162 O 0.13333 0.65822 0.7926 0.0
H163 H 0.08211 0.61125 0.90877 0.0
H164 H 0.08508 0.62593 0.95983 0.0
C165 C 0.08535 0.63665 0.92899 0.0
H166 H 0.05999 0.65663 0.92419 0.0
H167 H 0.06086 0.59888 0.83143 0.0
O168 O 0.2238 0.76173 0.86673 0.0
C169 C 0.16311 0.67512 0.7767 0.0
Co170 Co 0.28413 0.17866 0.84871 0.0
Co171 Co 0.33174 0.10179 0.83594 0.0
C172 C 0.24619 0.11322 0.81823 0.0
O173 O 0.24416 0.13829 0.84538 0.0
O174 O 0.27871 0.09665 0.81074 0.0
C175 C 0.22703 0.21824 0.89485 0.0
O176 O 0.22486 0.18367 0.9119 0.0
C177 C 0.33437 0.0176 0.85107 0.0
C178 C 0.39716 1.00209 0.84575 0.0
C179 C 0.36051 0.98655 0.85443 0.0
N180 N 0.35442 0.05025 0.8414 0.0
N181 N 0.39208 0.04085 0.83841 0.0
C182 C 0.29091 0.01659 0.85792 0.0
H183 H 0.28167 0.04344 0.87406 0.0
H184 H 0.28215 0.98995 0.87467 0.0
H185 H 0.27557 0.01648 0.82911 0.0
C186 C 0.32784 0.18095 0.923 0.0
N187 N 0.31935 0.16453 0.888 0.0
N188 N 0.33607 0.12977 0.88544 0.0
C189 C 0.35532 0.12272 0.91962 0.0
C190 C 0.35048 0.15496 0.94445 0.0
C191 C 0.31525 0.2212 0.9357 0.0
H192 H 0.31166 0.24073 0.90981 0.0
H193 H 0.28689 0.21918 0.95165 0.0
H194 H 0.33722 0.23416 0.95611 0.0
O195 O 0.31073 0.18237 0.79449 0.0
O196 O 0.35497 0.13333 0.79259 0.0
H197 H 0.40194 0.08212 0.90876 0.0
H198 H 0.38726 0.08507 0.95982 0.0
C199 C 0.37653 0.08535 0.92897 0.0
H200 H 0.35657 0.05998 0.92417 0.0
H201 H 0.41431 0.06085 0.83142 0.0
O202 O 0.25146 0.22381 0.86671 0.0
C203 C 0.33808 0.16311 0.77669 0.0
Co204 Co 0.83455 0.28414 0.84872 0.0
Co205 Co 0.91141 0.33176 0.83594 0.0
C206 C 0.9 0.24621 0.81824 0.0
O207 O 0.87493 0.24418 0.84539 0.0
O208 O 0.91656 0.27873 0.81075 0.0
C209 C 0.795 0.22704 0.89487 0.0
O210 O 0.82957 0.22488 0.91192 0.0
C211 C 0.9956 0.33441 0.85108 0.0
C212 C 0.0111 0.3972 0.84575 0.0
C213 C 0.02664 0.36055 0.85443 0.0
N214 N 0.96295 0.35445 0.84141 0.0
N215 N 0.97234 0.39211 0.83841 0.0
C216 C 0.99661 0.29095 0.85794 0.0
H217 H 0.96976 0.2817 0.87407 0.0
H218 H 0.02325 0.2822 0.87469 0.0
H219 H 0.99673 0.27561 0.82913 0.0
C220 C 0.83225 0.32785 0.92301 0.0
N221 N 0.84867 0.31936 0.88801 0.0
N222 N 0.88343 0.33609 0.88545 0.0
C223 C 0.89048 0.35533 0.91963 0.0
C224 C 0.85824 0.35049 0.94446 0.0
C225 C 0.79201 0.31526 0.93571 0.0
H226 H 0.77248 0.31166 0.90983 0.0
H227 H 0.79403 0.2869 0.95166 0.0
H228 H 0.77904 0.33723 0.95611 0.0
O229 O 0.83083 0.31074 0.7945 0.0
O230 O 0.87987 0.35498 0.7926 0.0
H231 H 0.93108 0.40196 0.90876 0.0
H232 H 0.92812 0.38729 0.95983 0.0
C233 C 0.92785 0.37656 0.92898 0.0
H234 H 0.95322 0.35659 0.92418 0.0
H235 H 0.95234 0.41433 0.83142 0.0
O236 O 0.78942 0.25146 0.86673 0.0
C237 C 0.85009 0.33809 0.7767 0.0
Co238 Co 0.72909 0.83457 0.84871 0.0
Co239 Co 0.68149 0.91144 0.83593 0.0
C240 C 0.76704 0.90001 0.81824 0.0
O241 O 0.76906 0.87495 0.84539 0.0
O242 O 0.73452 0.91659 0.81075 0.0
C243 C 0.78619 0.79499 0.89485 0.0
O244 O 0.78835 0.82956 0.91191 0.0
C245 C 0.67884 0.99564 0.85106 0.0
C246 C 0.61605 0.01113 0.84574 0.0
C247 C 0.65269 0.02668 0.85442 0.0
N248 N 0.6588 0.96298 0.84139 0.0
N249 N 0.62114 0.97237 0.83841 0.0
C250 C 0.7223 0.99666 0.85791 0.0
H251 H 0.73155 0.96981 0.87405 0.0
H252 H 0.73106 0.0233 0.87466 0.0
H253 H 0.73764 0.99677 0.8291 0.0
C254 C 0.68537 0.83227 0.92298 0.0
N255 N 0.69387 0.84869 0.88799 0.0
N256 N 0.67715 0.88345 0.88543 0.0
C257 C 0.65791 0.89051 0.91962 0.0
C258 C 0.66274 0.85826 0.94444 0.0
C259 C 0.69796 0.79202 0.93568 0.0
H260 H 0.70155 0.77249 0.90979 0.0
H261 H 0.72631 0.79404 0.95164 0.0
H262 H 0.67598 0.77905 0.95608 0.0
O263 O 0.7025 0.83086 0.79448 0.0
O264 O 0.65827 0.87991 0.79258 0.0
H265 H 0.61129 0.93112 0.90876 0.0
H266 H 0.62597 0.92816 0.95982 0.0
C267 C 0.6367 0.92788 0.92897 0.0
H268 H 0.65667 0.95324 0.92417 0.0
H269 H 0.59892 0.95236 0.83142 0.0
O270 O 0.76176 0.78943 0.86671 0.0
C271 C 0.67516 0.85013 0.77668 0.0
Co272 Co 0.16451 0.1786 0.28405 0.0
Co273 Co 0.17727 0.10174 0.33168 0.0
C274 C 0.19499 0.11315 0.24613 0.0
O275 O 0.16783 0.13821 0.24409 0.0
O276 O 0.20248 0.09659 0.27866 0.0
C277 C 0.11838 0.21818 0.22693 0.0
O278 O 0.10134 0.18361 0.22472 0.0
C279 C 0.16214 0.01755 0.33432 0.0
C280 C 0.16747 1.00204 0.3971 0.0
C281 C 0.15879 0.9865 0.36046 0.0
N282 N 0.17181 0.0502 0.35436 0.0
N283 N 0.1748 0.0408 0.39202 0.0
C284 C 0.15528 0.01654 0.29086 0.0
H285 H 0.13914 0.04339 0.28162 0.0
H286 H 0.13852 0.9899 0.2821 0.0
H287 H 0.18409 0.01643 0.27552 0.0
C288 C 0.09021 0.1809 0.32774 0.0
N289 N 0.12521 0.16448 0.31927 0.0
N290 N 0.12777 0.12973 0.336 0.0
C291 C 0.09358 0.12268 0.35524 0.0
C292 C 0.06875 0.15491 0.35038 0.0
C293 C 0.07751 0.22114 0.31514 0.0
H294 H 0.10339 0.24067 0.31157 0.0
H295 H 0.06158 0.21911 0.28677 0.0
H296 H 0.05709 0.23411 0.3371 0.0
O297 O 0.21874 0.18231 0.31066 0.0
O298 O 0.22062 0.13327 0.35491 0.0
H299 H 0.10445 0.08208 0.40187 0.0
H300 H 0.05339 0.08504 0.3872 0.0
C301 C 0.08423 0.08531 0.37647 0.0
H302 H 0.08903 0.05994 0.35651 0.0
H303 H 0.18179 0.0608 0.41425 0.0
O304 O 0.14652 0.22375 0.25137 0.0
C305 C 0.23653 0.16305 0.33801 0.0
Co306 Co 0.83464 0.16451 0.28405 0.0
Co307 Co 0.9115 0.17729 0.33168 0.0
C308 C 0.90009 0.19502 0.24614 0.0
O309 O 0.87503 0.16786 0.2441 0.0
O310 O 0.91664 0.2025 0.27867 0.0
C311 C 0.79507 0.11838 0.22693 0.0
O312 O 0.82965 0.10135 0.22472 0.0
C313 C 0.99575 0.16241 0.33434 0.0
C314 C 0.01114 0.16739 0.39719 0.0
C315 C 0.02677 0.15904 0.36051 0.0
N316 N 0.96304 0.17186 0.35439 0.0
N317 N 0.97236 0.17465 0.39208 0.0
C318 C 0.99683 0.15572 0.29086 0.0
H319 H 0.97006 0.13949 0.28153 0.0
H320 H 0.02355 0.13912 0.28205 0.0
H321 H 0.99681 0.18459 0.27562 0.0
C322 C 0.83236 0.09021 0.32773 0.0
N323 N 0.84877 0.12521 0.31927 0.0
N324 N 0.88353 0.12778 0.33599 0.0
C325 C 0.89059 0.09357 0.35521 0.0
C326 C 0.85836 0.06875 0.35036 0.0
C327 C 0.79211 0.07751 0.31514 0.0
H328 H 0.77258 0.1034 0.31158 0.0
H329 H 0.79413 0.06158 0.28677 0.0
H330 H 0.77915 0.05709 0.3371 0.0
O331 O 0.83091 0.21874 0.31066 0.0
O332 O 0.87994 0.22062 0.35491 0.0
H333 H 0.9311 0.1043 0.40194 0.0
H334 H 0.92831 0.05332 0.38699 0.0
C335 C 0.92796 0.08422 0.37642 0.0
H336 H 0.95334 0.08919 0.35652 0.0
H337 H 0.95231 0.18142 0.41432 0.0
O338 O 0.7895 0.14651 0.25137 0.0
C339 C 0.85016 0.23653 0.33801 0.0
Co340 Co 0.84869 0.83463 0.28404 0.0
Co341 Co 0.83593 0.91149 0.33166 0.0
C342 C 0.81822 0.90008 0.24612 0.0
O343 O 0.84539 0.87503 0.24408 0.0
O344 O 0.81073 0.91664 0.27864 0.0
C345 C 0.89483 0.79505 0.22693 0.0
O346 O 0.91189 0.82962 0.22473 0.0
C347 C 0.85084 0.99574 0.33431 0.0
C348 C 0.84588 0.01113 0.39716 0.0
C349 C 0.85422 0.02676 0.36048 0.0
N350 N 0.84138 0.96303 0.35436 0.0
N351 N 0.83861 0.97236 0.39206 0.0
C352 C 0.85751 0.99682 0.29082 0.0
H353 H 0.87374 0.97006 0.28149 0.0
H354 H 0.8741 0.02355 0.28202 0.0
H355 H 0.82864 0.99681 0.2756 0.0
C356 C 0.92298 0.83231 0.32774 0.0
N357 N 0.88798 0.84874 0.31926 0.0
N358 N 0.88543 0.8835 0.33598 0.0
C359 C 0.91963 0.89055 0.35521 0.0
C360 C 0.94444 0.8583 0.35037 0.0
C361 C 0.93566 0.79206 0.31516 0.0
H362 H 0.90976 0.77254 0.31157 0.0
H363 H 0.95161 0.79407 0.2868 0.0
H364 H 0.95606 0.77908 0.33713 0.0
O365 O 0.79446 0.83093 0.31063 0.0
O366 O 0.79259 0.87996 0.35488 0.0
H367 H 0.90893 0.93107 0.40194 0.0
H368 H 0.95991 0.92826 0.38698 0.0
C369 C 0.929 0.92792 0.37642 0.0
H370 H 0.92403 0.9533 0.35651 0.0
H371 H 0.83184 0.9523 0.41429 0.0
O372 O 0.86669 0.78949 0.25135 0.0
C373 C 0.77667 0.85019 0.33798 0.0
Co374 Co 0.17856 0.84873 0.28408 0.0
Co375 Co 0.10169 0.83591 0.33169 0.0
C376 C 0.11314 0.81817 0.24615 0.0
O377 O 0.1382 0.84532 0.24409 0.0
O378 O 0.09657 0.81069 0.27868 0.0
C379 C 0.21813 0.89486 0.22694 0.0
O380 O 0.18353 0.91185 0.22468 0.0
C381 C 0.01744 0.85078 0.33433 0.0
C382 C 1.00204 0.84577 0.39718 0.0
C383 C 0.98642 0.85415 0.3605 0.0
N384 N 0.05015 0.84131 0.35438 0.0
N385 N 0.04082 0.8385 0.39207 0.0
C386 C 0.01637 0.85749 0.29085 0.0
H387 H 0.04314 0.87372 0.28154 0.0
H388 H 0.98966 0.87411 0.28206 0.0
H389 H 0.01637 0.82863 0.27561 0.0
C390 C 0.18072 0.92309 0.32769 0.0
N391 N 0.16437 0.88805 0.31925 0.0
N392 N 0.12961 0.88545 0.33598 0.0
C393 C 0.1225 0.91965 0.35517 0.0
C394 C 0.15468 0.94454 0.35026 0.0
C395 C 0.22095 0.93584 0.31509 0.0
H396 H 0.24053 0.90999 0.31153 0.0
H397 H 0.2189 0.95177 0.28672 0.0
H398 H 0.23388 0.95629 0.33704 0.0
O399 O 0.18231 0.79452 0.3107 0.0
O400 O 0.13327 0.79261 0.35493 0.0
H401 H 0.082 0.90885 0.4019 0.0
H402 H 0.08477 0.95986 0.38701 0.0
C403 C 0.08513 0.92896 0.3764 0.0
H404 H 0.05975 0.924 0.35649 0.0
H405 H 0.06087 0.83172 0.41431 0.0
O406 O 0.22371 0.86676 0.25141 0.0
C407 C 0.16306 0.77671 0.33805 0.0
Co408 Co 0.16452 0.83462 0.72912 0.0
Co409 Co 0.17728 0.91147 0.68148 0.0
C410 C 0.195 0.90008 0.76703 0.0
O411 O 0.16783 0.87502 0.76907 0.0
O412 O 0.20248 0.91663 0.7345 0.0
C413 C 0.11839 0.79504 0.78624 0.0
O414 O 0.10134 0.82961 0.78844 0.0
C415 C 0.16214 0.99566 0.67883 0.0
C416 C 0.16748 0.01117 0.61605 0.0
C417 C 0.1588 0.02671 0.65269 0.0
N418 N 0.17181 0.96301 0.65879 0.0
N419 N 0.17481 0.9724 0.62113 0.0
C420 C 0.15528 0.99667 0.72229 0.0
H421 H 0.13914 0.96982 0.73153 0.0
H422 H 0.13853 0.02331 0.73105 0.0
H423 H 0.18409 0.99678 0.73763 0.0
C424 C 0.09023 0.8323 0.68542 0.0
N425 N 0.12522 0.84872 0.6939 0.0
N426 N 0.12778 0.88348 0.67716 0.0
C427 C 0.09359 0.89052 0.65792 0.0
C428 C 0.06877 0.85828 0.66278 0.0
C429 C 0.07753 0.79205 0.69803 0.0
H430 H 0.10342 0.77253 0.70161 0.0
H431 H 0.0616 0.79408 0.72639 0.0
H432 H 0.05712 0.77908 0.67607 0.0
O433 O 0.21875 0.83091 0.70252 0.0
O434 O 0.22063 0.87994 0.65826 0.0
H435 H 0.10446 0.9311 0.61128 0.0
H436 H 0.05339 0.92814 0.62595 0.0
C437 C 0.08424 0.92788 0.63668 0.0
H438 H 0.08903 0.95325 0.65664 0.0
H439 H 0.1818 0.9524 0.59891 0.0
O440 O 0.14653 0.78947 0.7618 0.0
C441 C 0.23654 0.85017 0.67516 0.0
Co442 Co 0.17858 0.16448 0.72908 0.0
Co443 Co 0.10172 0.17731 0.68145 0.0
C444 C 0.11314 0.19505 0.76699 0.0
O445 O 0.13821 0.1679 0.76906 0.0
O446 O 0.09658 0.20252 0.73446 0.0
C447 C 0.21814 0.11837 0.78622 0.0
O448 O 0.18354 0.10138 0.78849 0.0
C449 C 0.01753 0.1622 0.67881 0.0
C450 C 1.00201 0.16759 0.61603 0.0
C451 C 0.98648 0.15888 0.65267 0.0
N452 N 0.05018 0.17188 0.65877 0.0
N453 N 0.04077 0.17491 0.62111 0.0
C454 C 0.01653 0.1553 0.72226 0.0
H455 H 0.04338 0.13916 0.73148 0.0
H456 H 0.98989 0.13853 0.731 0.0
H457 H 0.0164 0.1841 0.73763 0.0
C458 C 0.18074 0.09012 0.68548 0.0
N459 N 0.16439 0.12516 0.6939 0.0
N460 N 0.12964 0.12777 0.67716 0.0
C461 C 0.12253 0.09357 0.65796 0.0
C462 C 0.1547 0.06867 0.66289 0.0
C463 C 0.22096 0.07735 0.69809 0.0
H464 H 0.24054 0.1032 0.70165 0.0
H465 H 0.21889 0.06144 0.72647 0.0
H466 H 0.23389 0.05689 0.67615 0.0
O467 O 0.18233 0.2187 0.70245 0.0
O468 O 0.13329 0.22061 0.65821 0.0
H469 H 0.08197 0.10454 0.61132 0.0
H470 H 0.08488 0.05345 0.62592 0.0
C471 C 0.08517 0.08428 0.6367 0.0
H472 H 0.05979 0.08906 0.65665 0.0
H473 H 0.06077 0.18192 0.59889 0.0
O474 O 0.22372 0.14646 0.76175 0.0
C475 C 0.16308 0.2365 0.6751 0.0
Co476 Co 0.84872 0.17859 0.7291 0.0
Co477 Co 0.83592 0.10172 0.68148 0.0
C478 C 0.81819 0.11315 0.76702 0.0
O479 O 0.84534 0.13822 0.76907 0.0
O480 O 0.81071 0.09658 0.7345 0.0
C481 C 0.89484 0.21816 0.78623 0.0
O482 O 0.91185 0.18357 0.78847 0.0
C483 C 0.85105 0.01753 0.67884 0.0
C484 C 0.84568 1.00202 0.61606 0.0
C485 C 0.85439 0.98649 0.6527 0.0
N486 N 0.84136 0.05018 0.6588 0.0
N487 N 0.83834 0.04078 0.62114 0.0
C488 C 0.85793 0.01653 0.72229 0.0
H489 H 0.87406 0.04339 0.73152 0.0
H490 H 0.8747 0.9899 0.73104 0.0
H491 H 0.82913 0.01641 0.73765 0.0
C492 C 0.92307 0.18079 0.68547 0.0
N493 N 0.88803 0.16442 0.69391 0.0
N494 N 0.88544 0.12967 0.67717 0.0
C495 C 0.91964 0.12258 0.65796 0.0
C496 C 0.94451 0.15476 0.66287 0.0
C497 C 0.93582 0.22102 0.69808 0.0
H498 H 0.90996 0.24058 0.70166 0.0
H499 H 0.95175 0.21895 0.72644 0.0
H500 H 0.95626 0.23396 0.67612 0.0
O501 O 0.7945 0.18232 0.70248 0.0
O502 O 0.7926 0.13327 0.65824 0.0
H503 H 0.90869 0.08201 0.61132 0.0
H504 H 0.95977 0.08494 0.62593 0.0
C505 C 0.92894 0.08522 0.6367 0.0
H506 H 0.92416 0.05984 0.65666 0.0
H507 H 0.83134 0.06078 0.59892 0.0
O508 O 0.86673 0.22374 0.76177 0.0
C509 C 0.7767 0.16306 0.67513 0.0
Co510 Co 0.83465 0.84872 0.7291 0.0
Co511 Co 0.91151 0.8359 0.68147 0.0
C512 C 0.90009 0.81816 0.76701 0.0
O513 O 0.87502 0.84532 0.76907 0.0
O514 O 0.91664 0.81069 0.73448 0.0
C515 C 0.79509 0.89485 0.78623 0.0
O516 O 0.82968 0.91185 0.78848 0.0
C517 C 0.99577 0.85078 0.67882 0.0
C518 C 0.01116 0.84576 0.61597 0.0
C519 C 0.02679 0.85414 0.65265 0.0
N520 N 0.96306 0.84131 0.65877 0.0
N521 N 0.97239 0.8385 0.62108 0.0
C522 C 0.99684 0.85749 0.7223 0.0
H523 H 0.97007 0.87372 0.73161 0.0
H524 H 0.02356 0.8741 0.73109 0.0
H525 H 0.99683 0.82863 0.73755 0.0
C526 C 0.83247 0.92307 0.68548 0.0
N527 N 0.84883 0.88803 0.69391 0.0
N528 N 0.88359 0.88544 0.67718 0.0
C529 C 0.89069 0.91964 0.65799 0.0
C530 C 0.85851 0.94452 0.6629 0.0
C531 C 0.79224 0.93582 0.69808 0.0
H532 H 0.77267 0.90996 0.70165 0.0
H533 H 0.79429 0.95175 0.72644 0.0
H534 H 0.7793 0.95626 0.67612 0.0
O535 O 0.8309 0.7945 0.70247 0.0
O536 O 0.87994 0.7926 0.65823 0.0
H537 H 0.93118 0.90884 0.61125 0.0
H538 H 0.92841 0.95985 0.62614 0.0
C539 C 0.92806 0.92896 0.63675 0.0
H540 H 0.95344 0.924 0.65665 0.0
H541 H 0.95233 0.83171 0.59884 0.0
O542 O 0.78951 0.86674 0.76177 0.0
C543 C 0.85015 0.7767 0.67512 0.0
Co544 Co 0.28414 0.16445 0.17857 0.0
Co545 Co 0.33175 0.17729 0.10169 0.0
C546 C 0.24621 0.195 0.11312 0.0
O547 O 0.24415 0.16789 0.13823 0.0
O548 O 0.27874 0.20249 0.09655 0.0
C549 C 0.22701 0.11831 0.2181 0.0
O550 O 0.22476 0.10134 0.18349 0.0
C551 C 0.33443 0.16243 0.01745 0.0
C552 C 0.39727 0.16748 1.00206 0.0
C553 C 0.3606 0.15909 0.98643 0.0
N554 N 0.35447 0.1719 0.05016 0.0
N555 N 0.39216 0.17473 0.04083 0.0
C556 C 0.29095 0.1557 0.01636 0.0
H557 H 0.28164 0.13947 0.04313 0.0
H558 H 0.28217 0.13908 0.98965 0.0
H559 H 0.27569 0.18455 0.01636 0.0
C560 C 0.32775 0.09009 0.1807 0.0
N561 N 0.31932 0.12513 0.16435 0.0
N562 N 0.33604 0.12774 0.1296 0.0
C563 C 0.35523 0.09353 0.12247 0.0
C564 C 0.35031 0.06864 0.15464 0.0
C565 C 0.31516 0.07733 0.22092 0.0
H566 H 0.3116 0.10318 0.2405 0.0
H567 H 0.28678 0.0614 0.21888 0.0
H568 H 0.33711 0.05688 0.23384 0.0
O569 O 0.31077 0.21866 0.18234 0.0
O570 O 0.35499 0.22059 0.13328 0.0
H571 H 0.40195 0.10435 0.08197 0.0
H572 H 0.38706 0.05334 0.08473 0.0
C573 C 0.37646 0.08423 0.0851 0.0
H574 H 0.35654 0.0892 0.05972 0.0
H575 H 0.41439 0.18152 0.06089 0.0
O576 O 0.25148 0.14641 0.22371 0.0
C577 C 0.33811 0.23647 0.16308 0.0
Co578 Co 0.28415 0.84878 0.83458 0.0
Co579 Co 0.33176 0.83593 0.91146 0.0
C580 C 0.24622 0.81821 0.90003 0.0
O581 O 0.24415 0.84532 0.87491 0.0
O582 O 0.27874 0.81073 0.91659 0.0
C583 C 0.22701 0.89492 0.79506 0.0
O584 O 0.22476 0.91187 0.82967 0.0
C585 C 0.33442 0.85079 0.99571 0.0
C586 C 0.39727 0.84574 0.0111 0.0
C587 C 0.36059 0.85414 0.02673 0.0
N588 N 0.35447 0.84132 0.963 0.0
N589 N 0.39216 0.83849 0.97233 0.0
C590 C 0.29094 0.85752 0.99678 0.0
H591 H 0.28163 0.87375 0.97001 0.0
H592 H 0.28216 0.87413 0.0235 0.0
H593 H 0.27568 0.82866 0.99678 0.0
C594 C 0.32774 0.92315 0.83247 0.0
N595 N 0.31932 0.8881 0.84881 0.0
N596 N 0.33604 0.88549 0.88356 0.0
C597 C 0.35523 0.91969 0.89069 0.0
C598 C 0.35031 0.94459 0.85852 0.0
C599 C 0.31516 0.93591 0.79224 0.0
H600 H 0.31161 0.91006 0.77266 0.0
H601 H 0.28678 0.95182 0.79429 0.0
H602 H 0.33711 0.95637 0.77933 0.0
O603 O 0.31079 0.79457 0.83081 0.0
O604 O 0.355 0.79264 0.87987 0.0
H605 H 0.40195 0.90887 0.93118 0.0
H606 H 0.38707 0.95988 0.92843 0.0
C607 C 0.37646 0.92899 0.92806 0.0
H608 H 0.35655 0.92402 0.95344 0.0
H609 H 0.41439 0.8317 0.95228 0.0
O610 O 0.25149 0.86683 0.78945 0.0
C611 C 0.33813 0.77676 0.85006 0.0
Co612 Co 0.16441 0.2842 0.83456 0.0
Co613 Co 0.17727 0.33179 0.91144 0.0
C614 C 0.19499 0.24625 0.89999 0.0
O615 O 0.16788 0.24418 0.87488 0.0
O616 O 0.20247 0.27877 0.91657 0.0
C617 C 0.11827 0.22707 0.79502 0.0
O618 O 0.10132 0.2248 0.82964 0.0
C619 C 0.16243 0.33446 0.99569 0.0
C620 C 0.16748 0.3973 0.01108 0.0
C621 C 0.15909 0.36063 0.02671 0.0
N622 N 0.1719 0.3545 0.96298 0.0
N623 N 0.17473 0.39219 0.97231 0.0
C624 C 0.1557 0.29098 0.99677 0.0
H625 H 0.13947 0.28167 0.97 0.0
H626 H 0.13909 0.28219 0.02349 0.0
H627 H 0.18456 0.27572 0.99676 0.0
C628 C 0.09005 0.3278 0.83246 0.0
N629 N 0.1251 0.31936 0.8488 0.0
N630 N 0.12772 0.33608 0.88355 0.0
C631 C 0.09351 0.35527 0.89069 0.0
C632 C 0.06861 0.35036 0.85852 0.0
C633 C 0.07728 0.31522 0.79223 0.0
H634 H 0.10313 0.31167 0.77265 0.0
H635 H 0.06137 0.28684 0.79428 0.0
H636 H 0.05682 0.33717 0.77933 0.0
O637 O 0.21862 0.31083 0.83078 0.0
O638 O 0.22057 0.35503 0.87984 0.0
H639 H 0.10434 0.40198 0.93119 0.0
H640 H 0.05333 0.3871 0.92844 0.0
C641 C 0.08422 0.37649 0.92807 0.0
H642 H 0.08919 0.35657 0.95344 0.0
H643 H 0.18151 0.41442 0.95225 0.0
O644 O 0.14636 0.25156 0.78942 0.0
C645 C 0.23644 0.33816 0.85003 0.0
Co646 Co 0.72905 0.16445 0.83459 0.0
Co647 Co 0.68145 0.17729 0.91147 0.0
C648 C 0.76699 0.19499 0.90004 0.0
O649 O 0.76905 0.16788 0.87492 0.0
O650 O 0.73447 0.20248 0.91661 0.0
C651 C 0.78617 0.1183 0.79505 0.0
O652 O 0.78841 0.10133 0.82965 0.0
C653 C 0.67878 0.16242 0.99572 0.0
C654 C 0.61593 0.16748 0.0111 0.0
C655 C 0.6526 0.15908 0.02673 0.0
N656 N 0.65874 0.1719 0.96301 0.0
N657 N 0.62105 0.17473 0.97233 0.0
C658 C 0.72226 0.15569 0.9968 0.0
H659 H 0.73157 0.13946 0.97003 0.0
H660 H 0.73104 0.13907 0.02351 0.0
H661 H 0.73752 0.18454 0.9968 0.0
C662 C 0.68544 0.0901 0.83246 0.0
N663 N 0.69387 0.12514 0.8488 0.0
N664 N 0.67716 0.12774 0.88356 0.0
C665 C 0.65797 0.09354 0.89069 0.0
C666 C 0.66288 0.06865 0.85852 0.0
C667 C 0.69802 0.07734 0.79223 0.0
H668 H 0.70157 0.10319 0.77265 0.0
H669 H 0.72639 0.06141 0.79427 0.0
H670 H 0.67605 0.05689 0.77931 0.0
O671 O 0.70243 0.21867 0.83083 0.0
O672 O 0.65822 0.2206 0.87989 0.0
H673 H 0.61127 0.10435 0.93121 0.0
H674 H 0.62615 0.05334 0.92844 0.0
C675 C 0.63676 0.08423 0.92807 0.0
H676 H 0.65668 0.08919 0.95344 0.0
H677 H 0.59882 0.18153 0.95228 0.0
O678 O 0.7617 0.14641 0.78945 0.0
C679 C 0.6751 0.23648 0.85009 0.0
Co680 Co 0.84879 0.72902 0.83457 0.0
Co681 Co 0.83594 0.68144 0.91146 0.0
C682 C 0.81823 0.76698 0.90001 0.0
O683 O 0.84534 0.76904 0.87489 0.0
O684 O 0.81074 0.73446 0.91658 0.0
C685 C 0.89494 0.78614 0.79504 0.0
O686 O 0.91189 0.7884 0.82965 0.0
C687 C 0.85078 0.67877 0.9957 0.0
C688 C 0.84573 0.61592 0.01109 0.0
C689 C 0.85412 0.65259 0.02672 0.0
N690 N 0.84131 0.65873 0.96299 0.0
N691 N 0.83848 0.62104 0.97232 0.0
C692 C 0.85752 0.72225 0.99678 0.0
H693 H 0.87375 0.73156 0.97002 0.0
H694 H 0.87413 0.73103 0.0235 0.0
H695 H 0.82866 0.73751 0.99678 0.0
C696 C 0.92315 0.68542 0.83247 0.0
N697 N 0.8881 0.69385 0.84881 0.0
N698 N 0.88549 0.67714 0.88356 0.0
C699 C 0.91969 0.65795 0.8907 0.0
C700 C 0.94459 0.66286 0.85853 0.0
C701 C 0.93592 0.69799 0.79224 0.0
H702 H 0.91007 0.70154 0.77265 0.0
H703 H 0.95184 0.72637 0.79428 0.0
H704 H 0.95637 0.67603 0.77933 0.0
O705 O 0.79458 0.7024 0.83079 0.0
O706 O 0.79264 0.6582 0.87986 0.0
H707 H 0.90887 0.61124 0.93121 0.0
H708 H 0.95988 0.62613 0.92845 0.0
C709 C 0.92899 0.63673 0.92808 0.0
H710 H 0.92402 0.65665 0.95345 0.0
H711 H 0.83169 0.5988 0.95226 0.0
O712 O 0.86685 0.76166 0.78943 0.0
C713 C 0.77677 0.67507 0.85005 0.0
Co714 Co 0.72908 0.84876 0.17855 0.0
Co715 Co 0.68147 0.83592 0.10168 0.0
C716 C 0.76701 0.81822 0.11311 0.0
O717 O 0.76907 0.84533 0.13821 0.0
O718 O 0.73449 0.81073 0.09654 0.0
C719 C 0.7862 0.89491 0.21809 0.0
O720 O 0.78845 0.91188 0.18348 0.0
C721 C 0.67879 0.85079 0.01743 0.0
C722 C 0.61595 0.84573 1.00205 0.0
C723 C 0.65262 0.85413 0.98642 0.0
N724 N 0.65876 0.84131 0.05014 0.0
N725 N 0.62106 0.83848 0.04082 0.0
C726 C 0.72227 0.85752 0.01635 0.0
H727 H 0.73158 0.87376 0.04312 0.0
H728 H 0.73105 0.87414 0.98963 0.0
H729 H 0.73754 0.82867 0.01634 0.0
C730 C 0.68547 0.92312 0.18069 0.0
N731 N 0.6939 0.88807 0.16434 0.0
N732 N 0.67718 0.88547 0.12959 0.0
C733 C 0.65799 0.91968 0.12246 0.0
C734 C 0.6629 0.94457 0.15464 0.0
C735 C 0.69805 0.93588 0.22092 0.0
H736 H 0.70161 0.91002 0.24049 0.0
H737 H 0.72642 0.9518 0.21888 0.0
H738 H 0.67609 0.95632 0.23384 0.0
O739 O 0.70246 0.79454 0.18232 0.0
O740 O 0.65824 0.79262 0.13326 0.0
H741 H 0.61128 0.90886 0.08196 0.0
H742 H 0.62616 0.95987 0.08472 0.0
C743 C 0.63677 0.92898 0.08509 0.0
H744 H 0.65668 0.92402 0.05971 0.0
H745 H 0.59883 0.83168 0.06088 0.0
O746 O 0.76173 0.8668 0.22369 0.0
C747 C 0.67512 0.77673 0.16306 0.0
Co748 Co 0.16443 0.72903 0.17858 0.0
Co749 Co 0.17728 0.68144 0.1017 0.0
C750 C 0.19498 0.76699 0.11314 0.0
O751 O 0.16787 0.76904 0.13825 0.0
O752 O 0.20247 0.73447 0.09656 0.0
C753 C 0.11828 0.78614 0.21812 0.0
O754 O 0.10132 0.7884 0.18351 0.0
C755 C 0.16243 0.67876 0.01745 0.0
C756 C 0.1675 0.61591 1.00207 0.0
C757 C 0.1591 0.65258 0.98644 0.0
N758 N 0.17191 0.65873 0.05016 0.0
N759 N 0.17474 0.62103 0.04084 0.0
C760 C 0.1557 0.72224 0.01636 0.0
H761 H 0.13946 0.73155 0.04313 0.0
H762 H 0.13908 0.73102 0.98964 0.0
H763 H 0.18455 0.73751 0.01637 0.0
C764 C 0.09008 0.68542 0.1807 0.0
N765 N 0.12512 0.69385 0.16436 0.0
N766 N 0.12773 0.67714 0.1296 0.0
C767 C 0.09353 0.65796 0.12246 0.0
C768 C 0.06863 0.66286 0.15464 0.0
C769 C 0.07731 0.69799 0.22093 0.0
H770 H 0.10316 0.70155 0.24051 0.0
H771 H 0.06139 0.72637 0.21889 0.0
H772 H 0.05687 0.67603 0.23384 0.0
O773 O 0.21865 0.70242 0.18235 0.0
O774 O 0.22059 0.65821 0.13329 0.0
H775 H 0.10434 0.61125 0.08195 0.0
H776 H 0.05334 0.62614 0.08471 0.0
C777 C 0.08423 0.63674 0.08508 0.0
H778 H 0.0892 0.65666 0.05972 0.0
H779 H 0.18154 0.59881 0.0609 0.0
O780 O 0.14638 0.76167 0.22372 0.0
C781 C 0.23646 0.67509 0.16309 0.0
Co782 Co 0.8488 0.28417 0.17859 0.0
Co783 Co 0.83594 0.33177 0.10171 0.0
C784 C 0.81822 0.24623 0.11315 0.0
O785 O 0.84533 0.24416 0.13826 0.0
O786 O 0.81074 0.27875 0.09658 0.0
C787 C 0.89493 0.22704 0.21811 0.0
O788 O 0.91188 0.22477 0.1835 0.0
C789 C 0.85078 0.33444 0.01746 0.0
C790 C 0.84573 0.39729 1.00207 0.0
C791 C 0.85412 0.36061 0.98644 0.0
N792 N 0.84131 0.35448 0.05017 0.0
N793 N 0.83848 0.39217 0.04084 0.0
C794 C 0.85751 0.29096 0.01638 0.0
H795 H 0.87375 0.28165 0.04314 0.0
H796 H 0.87412 0.28218 0.98966 0.0
H797 H 0.82866 0.2757 0.01638 0.0
C798 C 0.92316 0.32777 0.18069 0.0
N799 N 0.88811 0.31934 0.16435 0.0
N800 N 0.88549 0.33606 0.1296 0.0
C801 C 0.9197 0.35525 0.12246 0.0
C802 C 0.9446 0.35034 0.15463 0.0
C803 C 0.93593 0.31518 0.22091 0.0
H804 H 0.91008 0.31164 0.2405 0.0
H805 H 0.95184 0.2868 0.21886 0.0
H806 H 0.95639 0.33713 0.23382 0.0
O807 O 0.79459 0.3108 0.18237 0.0
O808 O 0.79265 0.35501 0.13331 0.0
H809 H 0.90886 0.40197 0.08197 0.0
H810 H 0.95988 0.38709 0.08472 0.0
C811 C 0.92899 0.37648 0.08509 0.0
H812 H 0.92402 0.35657 0.05972 0.0
H813 H 0.83169 0.41441 0.0609 0.0
O814 O 0.86685 0.25152 0.22373 0.0
C815 C 0.77678 0.33814 0.16312 0.0
Co816 Co 0.67867 0.78416 0.66442 0.0
Co817 Co 0.6018 0.83177 0.67721 0.0
C818 C 0.61323 0.74622 0.69492 0.0
O819 O 0.63829 0.74419 0.66776 0.0
O820 O 0.59666 0.77875 0.7024 0.0
C821 C 0.71822 0.72705 0.61828 0.0
O822 O 0.68364 0.72489 0.60124 0.0
C823 C 0.51761 0.8344 0.66207 0.0
C824 C 0.5021 0.89719 0.66741 0.0
C825 C 0.48656 0.86054 0.65872 0.0
N826 N 0.55026 0.85445 0.67175 0.0
N827 N 0.54086 0.89211 0.67474 0.0
C828 C 0.51661 0.79094 0.65522 0.0
H829 H 0.54346 0.7817 0.63908 0.0
H830 H 0.48997 0.78218 0.63847 0.0
H831 H 0.51649 0.7756 0.68403 0.0
C832 C 0.68095 0.82786 0.59014 0.0
N833 N 0.66454 0.81938 0.62513 0.0
N834 N 0.62978 0.8361 0.6277 0.0
C835 C 0.62273 0.85534 0.59352 0.0
C836 C 0.65496 0.8505 0.56869 0.0
C837 C 0.7212 0.81527 0.57743 0.0
H838 H 0.74073 0.81168 0.60332 0.0
H839 H 0.71917 0.78691 0.56149 0.0
H840 H 0.73417 0.83724 0.55703 0.0
O841 O 0.68239 0.81076 0.71864 0.0
O842 O 0.63335 0.855 0.72055 0.0
H843 H 0.58213 0.90197 0.60439 0.0
H844 H 0.58508 0.8873 0.55333 0.0
C845 C 0.58536 0.87657 0.58417 0.0
H846 H 0.55999 0.8566 0.58897 0.0
H847 H 0.56086 0.91434 0.68173 0.0
O848 O 0.7238 0.75148 0.64642 0.0
C849 C 0.66313 0.8381 0.73644 0.0
Co850 Co 0.22908 0.67865 0.66444 0.0
Co851 Co 0.18148 0.60178 0.67722 0.0
C852 C 0.26703 0.61321 0.69492 0.0
O853 O 0.26905 0.63828 0.66777 0.0
O854 O 0.23451 0.59663 0.70241 0.0
C855 C 0.28617 0.71822 0.6183 0.0
O856 O 0.28834 0.68365 0.60124 0.0
C857 C 0.17885 0.51758 0.66209 0.0
C858 C 0.11606 0.50207 0.66741 0.0
C859 C 0.1527 0.48653 0.65874 0.0
N860 N 0.1588 0.55023 0.67176 0.0
N861 N 0.12114 0.54084 0.67474 0.0
C862 C 0.22231 0.51657 0.65525 0.0
H863 H 0.23155 0.54341 0.63911 0.0
H864 H 0.23107 0.48992 0.6385 0.0
H865 H 0.23764 0.51646 0.68406 0.0
C866 C 0.18536 0.68094 0.59016 0.0
N867 N 0.19385 0.66452 0.62515 0.0
N868 N 0.17714 0.62976 0.62772 0.0
C869 C 0.1579 0.62271 0.59353 0.0
C870 C 0.16273 0.65495 0.56871 0.0
C871 C 0.19794 0.72119 0.57747 0.0
H872 H 0.20153 0.74072 0.60335 0.0
H873 H 0.2263 0.71917 0.56151 0.0
H874 H 0.17597 0.73416 0.55707 0.0
O875 O 0.20248 0.68236 0.71866 0.0
O876 O 0.15825 0.63331 0.72056 0.0
H877 H 0.11128 0.58209 0.60439 0.0
H878 H 0.12596 0.58505 0.55333 0.0
C879 C 0.13668 0.58533 0.58418 0.0
H880 H 0.15666 0.55997 0.58899 0.0
H881 H 0.09891 0.56084 0.68172 0.0
O882 O 0.26175 0.72379 0.64644 0.0
C883 C 0.17514 0.66309 0.73646 0.0
Co884 Co 0.33456 0.22907 0.66443 0.0
Co885 Co 0.41143 0.18146 0.67721 0.0
C886 C 0.40001 0.26701 0.69491 0.0
O887 O 0.37494 0.26904 0.66776 0.0
O888 O 0.41658 0.23449 0.7024 0.0
C889 C 0.29501 0.28617 0.61827 0.0
O890 O 0.32959 0.28832 0.60123 0.0
C891 C 0.49562 0.17881 0.66208 0.0
C892 C 0.51112 0.11602 0.66741 0.0
C893 C 0.52666 0.15267 0.65873 0.0
N894 N 0.46297 0.15877 0.67175 0.0
N895 N 0.47236 0.12111 0.67474 0.0
C896 C 0.49664 0.22227 0.65523 0.0
H897 H 0.46979 0.23152 0.63909 0.0
H898 H 0.52328 0.23103 0.63848 0.0
H899 H 0.49675 0.23761 0.68404 0.0
C900 C 0.33226 0.18535 0.59015 0.0
N901 N 0.34869 0.19384 0.62515 0.0
N902 N 0.38344 0.17712 0.62771 0.0
C903 C 0.3905 0.15788 0.59352 0.0
C904 C 0.35825 0.16272 0.5687 0.0
C905 C 0.29201 0.19794 0.57746 0.0
H906 H 0.27249 0.20154 0.60334 0.0
H907 H 0.29404 0.22629 0.5615 0.0
H908 H 0.27905 0.17596 0.55706 0.0
O909 O 0.33084 0.20248 0.71866 0.0
O910 O 0.37989 0.15824 0.72056 0.0
H911 H 0.4311 0.11126 0.60438 0.0
H912 H 0.42814 0.12594 0.55332 0.0
C913 C 0.42787 0.13666 0.58417 0.0
H914 H 0.45323 0.15663 0.58897 0.0
H915 H 0.45236 0.09889 0.68173 0.0
O916 O 0.28943 0.26175 0.64642 0.0
C917 C 0.3501 0.17513 0.73645 0.0
Co918 Co 0.78412 0.33456 0.66444 0.0
Co919 Co 0.83172 0.41143 0.67722 0.0
C920 C 0.74617 0.40001 0.69493 0.0
O921 O 0.74414 0.37494 0.66778 0.0
O922 O 0.7787 0.41658 0.70242 0.0
C923 C 0.72701 0.295 0.6183 0.0
O924 O 0.72485 0.32957 0.60125 0.0
C925 C 0.83437 0.49563 0.6621 0.0
C926 C 0.89715 0.51113 0.66742 0.0
C927 C 0.86051 0.52667 0.65874 0.0
N928 N 0.85441 0.46297 0.67176 0.0
N929 N 0.89207 0.47237 0.67475 0.0
C930 C 0.7909 0.49664 0.65525 0.0
H931 H 0.78166 0.46979 0.63911 0.0
H932 H 0.78215 0.52328 0.6385 0.0
H933 H 0.77557 0.49675 0.68406 0.0
C934 C 0.82782 0.33228 0.59016 0.0
N935 N 0.81934 0.34869 0.62515 0.0
N936 N 0.83606 0.38345 0.62772 0.0
C937 C 0.8553 0.39051 0.59353 0.0
C938 C 0.85046 0.35827 0.56871 0.0
C939 C 0.81524 0.29203 0.57746 0.0
H940 H 0.81165 0.2725 0.60334 0.0
H941 H 0.78688 0.29405 0.56151 0.0
H942 H 0.83721 0.27906 0.55706 0.0
O943 O 0.81072 0.33085 0.71867 0.0
O944 O 0.85495 0.3799 0.72056 0.0
H945 H 0.90193 0.4311 0.6044 0.0
H946 H 0.88725 0.42815 0.55334 0.0
C947 C 0.87652 0.42788 0.58419 0.0
H948 H 0.85656 0.45324 0.58899 0.0
H949 H 0.9143 0.45237 0.68173 0.0
O950 O 0.75144 0.28942 0.64644 0.0
C951 C 0.83806 0.35011 0.73646 0.0
Co952 Co 0.67867 0.22905 0.34873 0.0
Co953 Co 0.6018 0.18145 0.33595 0.0
C954 C 0.61322 0.267 0.31825 0.0
O955 O 0.63828 0.26902 0.3454 0.0
O956 O 0.59665 0.23448 0.31076 0.0
C957 C 0.71822 0.28616 0.39487 0.0
O958 O 0.68365 0.28831 0.41192 0.0
C959 C 0.51761 0.1788 0.35109 0.0
C960 C 0.5021 0.11601 0.34575 0.0
C961 C 0.48656 0.15266 0.35444 0.0
N962 N 0.55026 0.15876 0.34141 0.0
N963 N 0.54086 0.1211 0.33842 0.0
C964 C 0.51659 0.22226 0.35794 0.0
H965 H 0.54344 0.23151 0.37408 0.0
H966 H 0.48995 0.23102 0.37469 0.0
H967 H 0.51648 0.2376 0.32913 0.0
C968 C 0.68096 0.18534 0.423 0.0
N969 N 0.66454 0.19383 0.38801 0.0
N970 N 0.62978 0.17711 0.38545 0.0
C971 C 0.62273 0.15787 0.41963 0.0
C972 C 0.65497 0.1627 0.44446 0.0
C973 C 0.72121 0.19793 0.4357 0.0
H974 H 0.74074 0.20152 0.40982 0.0
H975 H 0.71919 0.22628 0.45166 0.0
H976 H 0.73418 0.17595 0.4561 0.0
O977 O 0.68238 0.20246 0.2945 0.0
O978 O 0.63333 0.15822 0.2926 0.0
H979 H 0.58211 0.11125 0.40877 0.0
H980 H 0.58508 0.12592 0.45983 0.0
C981 C 0.58535 0.13665 0.42899 0.0
H982 H 0.55999 0.15663 0.42419 0.0
H983 H 0.56086 0.09887 0.33143 0.0
O984 O 0.7238 0.26173 0.36673 0.0
C985 C 0.66312 0.17511 0.2767 0.0
Co986 Co 0.78413 0.67866 0.34871 0.0
Co987 Co 0.83174 0.60179 0.33594 0.0
C988 C 0.74619 0.61322 0.31823 0.0
O989 O 0.74416 0.63829 0.34538 0.0
O990 O 0.77871 0.59665 0.31074 0.0
C991 C 0.72703 0.71824 0.39485 0.0
O992 O 0.72486 0.68367 0.4119 0.0
C993 C 0.83437 0.5176 0.35107 0.0
C994 C 0.89716 0.50209 0.34575 0.0
C995 C 0.86051 0.48656 0.35443 0.0
N996 N 0.85442 0.55025 0.3414 0.0
N997 N 0.89208 0.54085 0.33841 0.0
C998 C 0.79091 0.51659 0.35792 0.0
H999 H 0.78167 0.54344 0.37406 0.0
H1000 H 0.78215 0.48995 0.37467 0.0
H1001 H 0.77558 0.51648 0.32911 0.0
C1002 C 0.82784 0.68095 0.423 0.0
N1003 N 0.81935 0.66453 0.388 0.0
N1004 N 0.83607 0.62978 0.38544 0.0
C1005 C 0.85532 0.62272 0.41963 0.0
C1006 C 0.85048 0.65496 0.44445 0.0
C1007 C 0.81525 0.7212 0.4357 0.0
H1008 H 0.81166 0.74073 0.40982 0.0
H1009 H 0.78689 0.71918 0.45165 0.0
H1010 H 0.83722 0.73416 0.45611 0.0
O1011 O 0.81073 0.68238 0.29449 0.0
O1012 O 0.85497 0.63333 0.29259 0.0
H1013 H 0.90194 0.58212 0.40876 0.0
H1014 H 0.88727 0.58507 0.45982 0.0
C1015 C 0.87654 0.58535 0.42897 0.0
H1016 H 0.85657 0.55999 0.42417 0.0
H1017 H 0.91431 0.56085 0.33142 0.0
O1018 O 0.75146 0.72381 0.36671 0.0
C1019 C 0.83808 0.66311 0.27669 0.0
Co1020 Co 0.33455 0.78414 0.34872 0.0
Co1021 Co 0.41141 0.83176 0.33594 0.0
C1022 C 0.39999 0.74621 0.31824 0.0
O1023 O 0.37493 0.74418 0.34539 0.0
O1024 O 0.41656 0.77873 0.31075 0.0
C1025 C 0.29499 0.72704 0.39487 0.0
O1026 O 0.32957 0.72488 0.41192 0.0
C1027 C 0.4956 0.83441 0.35108 0.0
C1028 C 0.5111 0.8972 0.34575 0.0
C1029 C 0.52664 0.86055 0.35443 0.0
N1030 N 0.46295 0.85445 0.34141 0.0
N1031 N 0.47234 0.89211 0.33841 0.0
C1032 C 0.49661 0.79095 0.35794 0.0
H1033 H 0.46976 0.7817 0.37407 0.0
H1034 H 0.52325 0.7822 0.37469 0.0
H1035 H 0.49673 0.77561 0.32913 0.0
C1036 C 0.33225 0.82785 0.42301 0.0
N1037 N 0.34867 0.81937 0.38801 0.0
N1038 N 0.38343 0.83609 0.38545 0.0
C1039 C 0.39048 0.85533 0.41963 0.0
C1040 C 0.35824 0.85049 0.44446 0.0
C1041 C 0.29201 0.81526 0.43571 0.0
H1042 H 0.27248 0.81166 0.40983 0.0
H1043 H 0.29403 0.7869 0.45166 0.0
H1044 H 0.27904 0.83723 0.45611 0.0
O1045 O 0.33083 0.81074 0.2945 0.0
O1046 O 0.37987 0.85498 0.2926 0.0
H1047 H 0.43108 0.90196 0.40876 0.0
H1048 H 0.42812 0.88729 0.45983 0.0
C1049 C 0.42785 0.87656 0.42898 0.0
H1050 H 0.45322 0.85659 0.42418 0.0
H1051 H 0.45234 0.91434 0.33142 0.0
O1052 O 0.28941 0.75146 0.36673 0.0
C1053 C 0.35008 0.83809 0.2767 0.0
Co1054 Co 0.22909 0.33457 0.34871 0.0
Co1055 Co 0.18149 0.41144 0.33593 0.0
C1056 C 0.26704 0.40001 0.31824 0.0
O1057 O 0.26906 0.37495 0.34539 0.0
O1058 O 0.23452 0.41659 0.31075 0.0
C1059 C 0.28619 0.29499 0.39485 0.0
O1060 O 0.28835 0.32956 0.41191 0.0
C1061 C 0.17884 0.49563 0.35106 0.0
C1062 C 0.11605 0.51113 0.34574 0.0
C1063 C 0.15269 0.52668 0.35442 0.0
N1064 N 0.1588 0.46298 0.34139 0.0
N1065 N 0.12114 0.47237 0.33841 0.0
C1066 C 0.2223 0.49665 0.35791 0.0
H1067 H 0.23155 0.46981 0.37405 0.0
H1068 H 0.23106 0.5233 0.37466 0.0
H1069 H 0.23763 0.49676 0.3291 0.0
C1070 C 0.18537 0.33227 0.42298 0.0
N1071 N 0.19387 0.34869 0.38799 0.0
N1072 N 0.17715 0.38345 0.38543 0.0
C1073 C 0.15791 0.39051 0.41962 0.0
C1074 C 0.16274 0.35826 0.44444 0.0
C1075 C 0.19796 0.29202 0.43568 0.0
H1076 H 0.20155 0.27249 0.40979 0.0
H1077 H 0.22631 0.29404 0.45164 0.0
H1078 H 0.17598 0.27905 0.45608 0.0
O1079 O 0.2025 0.33086 0.29448 0.0
O1080 O 0.15826 0.37991 0.29259 0.0
H1081 H 0.11129 0.43112 0.40876 0.0
H1082 H 0.12597 0.42816 0.45982 0.0
C1083 C 0.13669 0.42788 0.42897 0.0
H1084 H 0.15667 0.45324 0.42417 0.0
H1085 H 0.09891 0.45236 0.33142 0.0
O1086 O 0.26176 0.28942 0.36671 0.0
C1087 C 0.17516 0.35012 0.27668 0.0
Co1088 Co 0.66451 0.6786 0.78405 0.0
Co1089 Co 0.67727 0.60174 0.83168 0.0
C1090 C 0.69499 0.61315 0.74613 0.0
O1091 O 0.66783 0.63821 0.74409 0.0
O1092 O 0.70248 0.59659 0.77866 0.0
C1093 C 0.61838 0.71818 0.72693 0.0
O1094 O 0.60134 0.68361 0.72472 0.0
C1095 C 0.66214 0.51755 0.83432 0.0
C1096 C 0.66747 0.50204 0.8971 0.0
C1097 C 0.65879 0.48651 0.86046 0.0
N1098 N 0.67181 0.5502 0.85436 0.0
N1099 N 0.6748 0.54081 0.89202 0.0
C1100 C 0.65528 0.51654 0.79086 0.0
H1101 H 0.63914 0.5434 0.78162 0.0
H1102 H 0.63852 0.48991 0.7821 0.0
H1103 H 0.68409 0.51643 0.77552 0.0
C1104 C 0.59021 0.6809 0.82774 0.0
N1105 N 0.62521 0.66448 0.81927 0.0
N1106 N 0.62777 0.62973 0.836 0.0
C1107 C 0.59358 0.62268 0.85524 0.0
C1108 C 0.56875 0.65491 0.85038 0.0
C1109 C 0.57751 0.72114 0.81514 0.0
H1110 H 0.60339 0.74068 0.81157 0.0
H1111 H 0.56158 0.71911 0.78677 0.0
H1112 H 0.55708 0.73411 0.8371 0.0
O1113 O 0.71874 0.68231 0.81066 0.0
O1114 O 0.72062 0.63327 0.85491 0.0
H1115 H 0.60445 0.58208 0.90187 0.0
H1116 H 0.55339 0.58504 0.8872 0.0
C1117 C 0.58423 0.58531 0.87647 0.0
H1118 H 0.58903 0.55994 0.85651 0.0
H1119 H 0.68179 0.5608 0.91425 0.0
O1120 O 0.64652 0.72375 0.75138 0.0
C1121 C 0.73653 0.66305 0.83801 0.0
Co1122 Co 0.33464 0.66451 0.78405 0.0
Co1123 Co 0.4115 0.67729 0.83169 0.0
C1124 C 0.40009 0.69502 0.74614 0.0
O1125 O 0.37503 0.66786 0.7441 0.0
O1126 O 0.41664 0.7025 0.77868 0.0
C1127 C 0.29507 0.61838 0.72693 0.0
O1128 O 0.32965 0.60135 0.72471 0.0
C1129 C 0.49575 0.66241 0.83434 0.0
C1130 C 0.51114 0.66739 0.89719 0.0
C1131 C 0.52677 0.65904 0.86051 0.0
N1132 N 0.46304 0.67186 0.85439 0.0
N1133 N 0.47236 0.67465 0.89208 0.0
C1134 C 0.49683 0.65572 0.79086 0.0
H1135 H 0.47006 0.63949 0.78153 0.0
H1136 H 0.52355 0.63912 0.78206 0.0
H1137 H 0.49681 0.68459 0.77562 0.0
C1138 C 0.33236 0.59021 0.82773 0.0
N1139 N 0.34877 0.62521 0.81927 0.0
N1140 N 0.38353 0.62777 0.83599 0.0
C1141 C 0.39059 0.59357 0.85521 0.0
C1142 C 0.35836 0.56874 0.85036 0.0
C1143 C 0.29211 0.57751 0.81514 0.0
H1144 H 0.27258 0.6034 0.81158 0.0
H1145 H 0.29413 0.56158 0.78677 0.0
H1146 H 0.27915 0.55709 0.8371 0.0
O1147 O 0.33091 0.71874 0.81066 0.0
O1148 O 0.37994 0.72062 0.85492 0.0
H1149 H 0.4311 0.6043 0.90194 0.0
H1150 H 0.42831 0.55332 0.887 0.0
C1151 C 0.42796 0.58422 0.87643 0.0
H1152 H 0.45334 0.58919 0.85652 0.0
H1153 H 0.4523 0.68142 0.91432 0.0
O1154 O 0.2895 0.64651 0.75137 0.0
C1155 C 0.35016 0.73653 0.83802 0.0
Co1156 Co 0.34869 0.33463 0.78404 0.0
Co1157 Co 0.33593 0.41149 0.83166 0.0
C1158 C 0.31822 0.40008 0.74612 0.0
O1159 O 0.34538 0.37503 0.74408 0.0
O1160 O 0.31073 0.41664 0.77864 0.0
C1161 C 0.39483 0.29505 0.72693 0.0
O1162 O 0.41188 0.32962 0.72473 0.0
C1163 C 0.35084 0.49574 0.83431 0.0
C1164 C 0.34588 0.51113 0.89716 0.0
C1165 C 0.35422 0.52676 0.86048 0.0
N1166 N 0.34138 0.46303 0.85436 0.0
N1167 N 0.33861 0.47236 0.89206 0.0
C1168 C 0.35751 0.49682 0.79082 0.0
H1169 H 0.37374 0.47006 0.7815 0.0
H1170 H 0.3741 0.52355 0.78202 0.0
H1171 H 0.32864 0.49681 0.7756 0.0
C1172 C 0.42298 0.33231 0.82774 0.0
N1173 N 0.38798 0.34874 0.81926 0.0
N1174 N 0.38543 0.3835 0.83598 0.0
C1175 C 0.41963 0.39055 0.85521 0.0
C1176 C 0.44444 0.3583 0.85037 0.0
C1177 C 0.43566 0.29206 0.81516 0.0
H1178 H 0.40977 0.27254 0.81157 0.0
H1179 H 0.45161 0.29407 0.7868 0.0
H1180 H 0.45606 0.27908 0.83713 0.0
O1181 O 0.29446 0.33092 0.81063 0.0
O1182 O 0.29259 0.37996 0.85489 0.0
H1183 H 0.40893 0.43107 0.90194 0.0
H1184 H 0.45991 0.42826 0.88698 0.0
C1185 C 0.429 0.42792 0.87642 0.0
H1186 H 0.42403 0.4533 0.85651 0.0
H1187 H 0.33184 0.4523 0.91429 0.0
O1188 O 0.36669 0.28948 0.75135 0.0
C1189 C 0.27667 0.35018 0.83799 0.0
Co1190 Co 0.67856 0.34873 0.78408 0.0
Co1191 Co 0.60169 0.33591 0.83169 0.0
C1192 C 0.61314 0.31817 0.74615 0.0
O1193 O 0.6382 0.34532 0.7441 0.0
O1194 O 0.59657 0.31069 0.77868 0.0
C1195 C 0.71813 0.39486 0.72694 0.0
O1196 O 0.68353 0.41185 0.72468 0.0
C1197 C 0.51744 0.35078 0.83433 0.0
C1198 C 0.50204 0.34577 0.89718 0.0
C1199 C 0.48642 0.35415 0.8605 0.0
N1200 N 0.55015 0.34131 0.85438 0.0
N1201 N 0.54082 0.3385 0.89208 0.0
C1202 C 0.51637 0.35749 0.79085 0.0
H1203 H 0.54315 0.37372 0.78154 0.0
H1204 H 0.48966 0.37411 0.78206 0.0
H1205 H 0.51637 0.32863 0.77561 0.0
C1206 C 0.68072 0.42309 0.82769 0.0
N1207 N 0.66437 0.38805 0.81925 0.0
N1208 N 0.62961 0.38545 0.83598 0.0
C1209 C 0.6225 0.41966 0.85517 0.0
C1210 C 0.65468 0.44454 0.85026 0.0
C1211 C 0.72095 0.43584 0.81509 0.0
H1212 H 0.74053 0.40999 0.81153 0.0
H1213 H 0.7189 0.45177 0.78672 0.0
H1214 H 0.73388 0.45629 0.83704 0.0
O1215 O 0.68232 0.29452 0.8107 0.0
O1216 O 0.63327 0.29261 0.85494 0.0
H1217 H 0.582 0.40885 0.9019 0.0
H1218 H 0.58477 0.45986 0.88701 0.0
C1219 C 0.58513 0.42896 0.8764 0.0
H1220 H 0.55975 0.424 0.8565 0.0
H1221 H 0.56087 0.33172 0.91431 0.0
O1222 O 0.72371 0.36676 0.75141 0.0
C1223 C 0.66306 0.27672 0.83805 0.0
Co1224 Co 0.66452 0.33461 0.22912 0.0
Co1225 Co 0.67728 0.41147 0.18148 0.0
C1226 C 0.695 0.40008 0.26702 0.0
O1227 O 0.66783 0.37502 0.26907 0.0
O1228 O 0.70248 0.41663 0.2345 0.0
C1229 C 0.61839 0.29503 0.28624 0.0
O1230 O 0.60134 0.32961 0.28844 0.0
C1231 C 0.66214 0.49566 0.17883 0.0
C1232 C 0.66748 0.51117 0.11605 0.0
C1233 C 0.6588 0.52671 0.15269 0.0
N1234 N 0.67181 0.46301 0.15879 0.0
N1235 N 0.67481 0.4724 0.12113 0.0
C1236 C 0.65528 0.49667 0.22229 0.0
H1237 H 0.63914 0.46982 0.23153 0.0
H1238 H 0.63853 0.52331 0.23104 0.0
H1239 H 0.68409 0.49678 0.23763 0.0
C1240 C 0.59023 0.3323 0.18542 0.0
N1241 N 0.62522 0.34872 0.1939 0.0
N1242 N 0.62778 0.38347 0.17716 0.0
C1243 C 0.59359 0.39052 0.15792 0.0
C1244 C 0.56877 0.35828 0.16278 0.0
C1245 C 0.57753 0.29205 0.19803 0.0
H1246 H 0.60342 0.27253 0.20161 0.0
H1247 H 0.56159 0.29408 0.22639 0.0
H1248 H 0.55712 0.27908 0.17607 0.0
O1249 O 0.71875 0.33091 0.20251 0.0
O1250 O 0.72063 0.37994 0.15826 0.0
H1251 H 0.60446 0.4311 0.11128 0.0
H1252 H 0.55339 0.42814 0.12594 0.0
C1253 C 0.58424 0.42788 0.13668 0.0
H1254 H 0.58903 0.45325 0.15664 0.0
H1255 H 0.6818 0.4524 0.09891 0.0
O1256 O 0.64653 0.28947 0.2618 0.0
C1257 C 0.73654 0.35016 0.17516 0.0
Co1258 Co 0.67858 0.66448 0.22908 0.0
Co1259 Co 0.60172 0.67731 0.18145 0.0
C1260 C 0.61314 0.69505 0.26699 0.0
O1261 O 0.63821 0.6679 0.26905 0.0
O1262 O 0.59658 0.70252 0.23446 0.0
C1263 C 0.71814 0.61837 0.28622 0.0
O1264 O 0.68354 0.60138 0.28849 0.0
C1265 C 0.51753 0.6622 0.17881 0.0
C1266 C 0.50201 0.66759 0.11603 0.0
C1267 C 0.48648 0.65888 0.15267 0.0
N1268 N 0.55018 0.67188 0.15877 0.0
N1269 N 0.54077 0.67491 0.12111 0.0
C1270 C 0.51653 0.6553 0.22226 0.0
H1271 H 0.54339 0.63916 0.23148 0.0
H1272 H 0.48989 0.63853 0.231 0.0
H1273 H 0.5164 0.6841 0.23763 0.0
C1274 C 0.68074 0.59011 0.18548 0.0
N1275 N 0.66439 0.62516 0.1939 0.0
N1276 N 0.62964 0.62777 0.17716 0.0
C1277 C 0.62253 0.59357 0.15796 0.0
C1278 C 0.6547 0.56867 0.16289 0.0
C1279 C 0.72096 0.57735 0.19809 0.0
H1280 H 0.74054 0.6032 0.20165 0.0
H1281 H 0.71889 0.56144 0.22647 0.0
H1282 H 0.73389 0.55689 0.17615 0.0
O1283 O 0.68233 0.7187 0.20245 0.0
O1284 O 0.63329 0.72061 0.15821 0.0
H1285 H 0.58197 0.60454 0.11132 0.0
H1286 H 0.58488 0.55345 0.12592 0.0
C1287 C 0.58517 0.58428 0.13669 0.0
H1288 H 0.5598 0.58906 0.15665 0.0
H1289 H 0.56077 0.68192 0.09889 0.0
O1290 O 0.72372 0.64646 0.26174 0.0
C1291 C 0.66308 0.7365 0.1751 0.0
Co1292 Co 0.34872 0.67859 0.22909 0.0
Co1293 Co 0.33592 0.60172 0.18148 0.0
C1294 C 0.31819 0.61315 0.26702 0.0
O1295 O 0.34534 0.63822 0.26907 0.0
O1296 O 0.31071 0.59659 0.23449 0.0
C1297 C 0.39484 0.71816 0.28623 0.0
O1298 O 0.41185 0.68357 0.28847 0.0
C1299 C 0.35105 0.51754 0.17884 0.0
C1300 C 0.34568 0.50202 0.11606 0.0
C1301 C 0.35439 0.48649 0.1527 0.0
N1302 N 0.34136 0.55018 0.1588 0.0
N1303 N 0.33834 0.54078 0.12114 0.0
C1304 C 0.35793 0.51653 0.22229 0.0
H1305 H 0.37406 0.54339 0.23152 0.0
H1306 H 0.3747 0.4899 0.23104 0.0
H1307 H 0.32913 0.51641 0.23765 0.0
C1308 C 0.42307 0.68079 0.18547 0.0
N1309 N 0.38804 0.66442 0.19391 0.0
N1310 N 0.38544 0.62967 0.17717 0.0
C1311 C 0.41964 0.62258 0.15796 0.0
C1312 C 0.44451 0.65476 0.16287 0.0
C1313 C 0.43582 0.72102 0.19808 0.0
H1314 H 0.40996 0.74058 0.20166 0.0
H1315 H 0.45175 0.71895 0.22644 0.0
H1316 H 0.45626 0.73396 0.17612 0.0
O1317 O 0.2945 0.68232 0.20247 0.0
O1318 O 0.2926 0.63328 0.15824 0.0
H1319 H 0.40869 0.58201 0.11132 0.0
H1320 H 0.45977 0.58494 0.12593 0.0
C1321 C 0.42894 0.58522 0.1367 0.0
H1322 H 0.42416 0.55984 0.15666 0.0
H1323 H 0.33134 0.56078 0.09892 0.0
O1324 O 0.36673 0.72374 0.26176 0.0
C1325 C 0.2767 0.66306 0.17513 0.0
Co1326 Co 0.33465 0.34872 0.22909 0.0
Co1327 Co 0.41151 0.3359 0.18147 0.0
C1328 C 0.40008 0.31816 0.26701 0.0
O1329 O 0.37502 0.34532 0.26907 0.0
O1330 O 0.41664 0.31069 0.23448 0.0
C1331 C 0.29509 0.39485 0.28623 0.0
O1332 O 0.32968 0.41185 0.28848 0.0
C1333 C 0.49576 0.35078 0.17882 0.0
C1334 C 0.51116 0.34576 0.11597 0.0
C1335 C 0.52679 0.35414 0.15265 0.0
N1336 N 0.46306 0.34131 0.15877 0.0
N1337 N 0.47239 0.3385 0.12108 0.0
C1338 C 0.49684 0.35749 0.2223 0.0
H1339 H 0.47007 0.37372 0.23161 0.0
H1340 H 0.52355 0.3741 0.23109 0.0
H1341 H 0.49683 0.32863 0.23755 0.0
C1342 C 0.33247 0.42307 0.18548 0.0
N1343 N 0.34883 0.38804 0.19391 0.0
N1344 N 0.38359 0.38544 0.17718 0.0
C1345 C 0.39069 0.41965 0.15799 0.0
C1346 C 0.35851 0.44452 0.1629 0.0
C1347 C 0.29224 0.43582 0.19808 0.0
H1348 H 0.27267 0.40996 0.20165 0.0
H1349 H 0.29429 0.45175 0.22644 0.0
H1350 H 0.2793 0.45626 0.17612 0.0
O1351 O 0.3309 0.2945 0.20247 0.0
O1352 O 0.37994 0.2926 0.15823 0.0
H1353 H 0.43118 0.40884 0.11125 0.0
H1354 H 0.42841 0.45985 0.12614 0.0
C1355 C 0.42806 0.42896 0.13675 0.0
H1356 H 0.45344 0.424 0.15665 0.0
H1357 H 0.45233 0.33171 0.09884 0.0
O1358 O 0.28951 0.36674 0.26177 0.0
C1359 C 0.35015 0.2767 0.17512 0.0
Co1360 Co 0.78415 0.66445 0.67857 0.0
Co1361 Co 0.83175 0.67729 0.60169 0.0
C1362 C 0.74621 0.695 0.61312 0.0
O1363 O 0.74415 0.66789 0.63823 0.0
O1364 O 0.77874 0.70249 0.59655 0.0
C1365 C 0.72701 0.61831 0.7181 0.0
O1366 O 0.72476 0.60134 0.68349 0.0
C1367 C 0.83443 0.66243 0.51745 0.0
C1368 C 0.89727 0.66748 0.50206 0.0
C1369 C 0.8606 0.65909 0.48643 0.0
N1370 N 0.85447 0.6719 0.55016 0.0
N1371 N 0.89216 0.67473 0.54083 0.0
C1372 C 0.79095 0.6557 0.51637 0.0
H1373 H 0.78164 0.63947 0.54313 0.0
H1374 H 0.78217 0.63908 0.48965 0.0
H1375 H 0.77569 0.68455 0.51637 0.0
C1376 C 0.82775 0.59008 0.6807 0.0
N1377 N 0.81932 0.62513 0.66435 0.0
N1378 N 0.83604 0.62774 0.6296 0.0
C1379 C 0.85523 0.59353 0.62247 0.0
C1380 C 0.85031 0.56864 0.65464 0.0
C1381 C 0.81516 0.57732 0.72092 0.0
H1382 H 0.8116 0.60318 0.7405 0.0
H1383 H 0.78678 0.5614 0.71888 0.0
H1384 H 0.83711 0.55687 0.73384 0.0
O1385 O 0.81077 0.71866 0.68234 0.0
O1386 O 0.85499 0.72059 0.63328 0.0
H1387 H 0.90195 0.60435 0.58197 0.0
H1388 H 0.88707 0.55334 0.58473 0.0
C1389 C 0.87646 0.58423 0.5851 0.0
H1390 H 0.85654 0.5892 0.55972 0.0
H1391 H 0.91439 0.68152 0.56089 0.0
O1392 O 0.75149 0.64641 0.72371 0.0
C1393 C 0.83811 0.73647 0.66308 0.0
Co1394 Co 0.78415 0.34878 0.33458 0.0
Co1395 Co 0.83176 0.33593 0.41146 0.0
C1396 C 0.74622 0.31821 0.40003 0.0
O1397 O 0.74415 0.34532 0.37491 0.0
O1398 O 0.77875 0.31073 0.41659 0.0
C1399 C 0.72701 0.39492 0.29505 0.0
O1400 O 0.72476 0.41187 0.32967 0.0
C1401 C 0.83442 0.35079 0.49571 0.0
C1402 C 0.89727 0.34574 0.5111 0.0
C1403 C 0.86059 0.35414 0.52673 0.0
N1404 N 0.85447 0.34132 0.463 0.0
N1405 N 0.89216 0.33849 0.47233 0.0
C1406 C 0.79094 0.35752 0.49678 0.0
H1407 H 0.78163 0.37375 0.47001 0.0
H1408 H 0.78216 0.37413 0.5235 0.0
H1409 H 0.77568 0.32866 0.49678 0.0
C1410 C 0.82774 0.42315 0.33247 0.0
N1411 N 0.81932 0.3881 0.34881 0.0
N1412 N 0.83604 0.38549 0.38356 0.0
C1413 C 0.85523 0.41969 0.39069 0.0
C1414 C 0.85031 0.44459 0.35852 0.0
C1415 C 0.81516 0.43591 0.29224 0.0
H1416 H 0.81161 0.41006 0.27266 0.0
H1417 H 0.78678 0.45183 0.29429 0.0
H1418 H 0.83711 0.45637 0.27933 0.0
O1419 O 0.81079 0.29458 0.33081 0.0
O1420 O 0.855 0.29264 0.37986 0.0
H1421 H 0.90196 0.40887 0.43118 0.0
H1422 H 0.88708 0.45988 0.42843 0.0
C1423 C 0.87646 0.42899 0.42806 0.0
H1424 H 0.85655 0.42402 0.45344 0.0
H1425 H 0.91439 0.3317 0.45227 0.0
O1426 O 0.7515 0.36683 0.28944 0.0
C1427 C 0.83813 0.27676 0.35006 0.0
Co1428 Co 0.66441 0.7842 0.33456 0.0
Co1429 Co 0.67727 0.83179 0.41144 0.0
C1430 C 0.69499 0.74625 0.39999 0.0
O1431 O 0.66788 0.74418 0.37487 0.0
O1432 O 0.70247 0.77877 0.41656 0.0
C1433 C 0.61827 0.72707 0.29502 0.0
O1434 O 0.60132 0.7248 0.32963 0.0
C1435 C 0.66243 0.83446 0.49569 0.0
C1436 C 0.66748 0.8973 0.51108 0.0
C1437 C 0.65909 0.86063 0.52671 0.0
N1438 N 0.6719 0.8545 0.46298 0.0
N1439 N 0.67473 0.89219 0.47231 0.0
C1440 C 0.6557 0.79098 0.49677 0.0
H1441 H 0.63947 0.78167 0.47 0.0
H1442 H 0.63909 0.78219 0.52349 0.0
H1443 H 0.68456 0.77572 0.49676 0.0
C1444 C 0.59005 0.8278 0.33246 0.0
N1445 N 0.6251 0.81937 0.3488 0.0
N1446 N 0.62772 0.83608 0.38355 0.0
C1447 C 0.59351 0.85527 0.39069 0.0
C1448 C 0.56861 0.85036 0.35852 0.0
C1449 C 0.57728 0.81522 0.29223 0.0
H1450 H 0.60313 0.81167 0.27265 0.0
H1451 H 0.56136 0.78684 0.29428 0.0
H1452 H 0.55682 0.83717 0.27933 0.0
O1453 O 0.71862 0.81083 0.33077 0.0
O1454 O 0.72057 0.85504 0.37984 0.0
H1455 H 0.60434 0.90199 0.43119 0.0
H1456 H 0.55333 0.8871 0.42844 0.0
C1457 C 0.58422 0.87649 0.42807 0.0
H1458 H 0.58919 0.85658 0.45344 0.0
H1459 H 0.68151 0.91443 0.45225 0.0
O1460 O 0.64636 0.75156 0.28941 0.0
C1461 C 0.73643 0.83816 0.35003 0.0
Co1462 Co 0.22904 0.66445 0.33459 0.0
Co1463 Co 0.18145 0.67729 0.41147 0.0
C1464 C 0.26699 0.69499 0.40004 0.0
O1465 O 0.26905 0.66788 0.37492 0.0
O1466 O 0.23447 0.70248 0.41661 0.0
C1467 C 0.28617 0.6183 0.29505 0.0
O1468 O 0.28841 0.60133 0.32965 0.0
C1469 C 0.17878 0.66242 0.49571 0.0
C1470 C 0.11593 0.66748 0.5111 0.0
C1471 C 0.1526 0.65908 0.52673 0.0
N1472 N 0.15874 0.6719 0.46301 0.0
N1473 N 0.12105 0.67473 0.47233 0.0
C1474 C 0.22226 0.65569 0.49679 0.0
H1475 H 0.23157 0.63946 0.47002 0.0
H1476 H 0.23104 0.63907 0.52351 0.0
H1477 H 0.23752 0.68454 0.4968 0.0
C1478 C 0.18544 0.59009 0.33246 0.0
N1479 N 0.19387 0.62514 0.3488 0.0
N1480 N 0.17715 0.62774 0.38356 0.0
C1481 C 0.15797 0.59353 0.39069 0.0
C1482 C 0.16288 0.56865 0.35852 0.0
C1483 C 0.19802 0.57734 0.29223 0.0
H1484 H 0.20157 0.60319 0.27265 0.0
H1485 H 0.22639 0.56141 0.29427 0.0
H1486 H 0.17605 0.55689 0.27931 0.0
O1487 O 0.20243 0.71867 0.33083 0.0
O1488 O 0.15822 0.7206 0.37989 0.0
H1489 H 0.11126 0.60435 0.43121 0.0
H1490 H 0.12615 0.55334 0.42844 0.0
C1491 C 0.13676 0.58423 0.42807 0.0
H1492 H 0.15668 0.58919 0.45344 0.0
H1493 H 0.09881 0.68153 0.45227 0.0
O1494 O 0.2617 0.64641 0.28945 0.0
C1495 C 0.17509 0.73648 0.35009 0.0
Co1496 Co 0.34879 0.22902 0.33457 0.0
Co1497 Co 0.33594 0.18144 0.41145 0.0
C1498 C 0.31823 0.26698 0.40001 0.0
O1499 O 0.34534 0.26904 0.37489 0.0
O1500 O 0.31074 0.23446 0.41658 0.0
C1501 C 0.39494 0.28614 0.29504 0.0
O1502 O 0.41189 0.2884 0.32965 0.0
C1503 C 0.35078 0.17877 0.4957 0.0
C1504 C 0.34573 0.11592 0.51109 0.0
C1505 C 0.35412 0.15259 0.52672 0.0
N1506 N 0.34131 0.15873 0.46299 0.0
N1507 N 0.33848 0.12103 0.47232 0.0
C1508 C 0.35752 0.22225 0.49678 0.0
H1509 H 0.37375 0.23156 0.47002 0.0
H1510 H 0.37413 0.23103 0.5235 0.0
H1511 H 0.32866 0.23751 0.49678 0.0
C1512 C 0.42315 0.18542 0.33247 0.0
N1513 N 0.3881 0.19385 0.34881 0.0
N1514 N 0.38549 0.17714 0.38356 0.0
C1515 C 0.4197 0.15795 0.3907 0.0
C1516 C 0.44459 0.16286 0.35853 0.0
C1517 C 0.43592 0.19799 0.29224 0.0
H1518 H 0.41007 0.20154 0.27265 0.0
H1519 H 0.45184 0.22637 0.29428 0.0
H1520 H 0.45637 0.17603 0.27933 0.0
O1521 O 0.29459 0.2024 0.33079 0.0
O1522 O 0.29264 0.1582 0.37986 0.0
H1523 H 0.40887 0.11124 0.43121 0.0
H1524 H 0.45988 0.12613 0.42845 0.0
C1525 C 0.42899 0.13673 0.42808 0.0
H1526 H 0.42402 0.15665 0.45345 0.0
H1527 H 0.33169 0.0988 0.45226 0.0
O1528 O 0.36685 0.26166 0.28943 0.0
C1529 C 0.27677 0.17507 0.35005 0.0
Co1530 Co 0.22908 0.34876 0.67856 0.0
Co1531 Co 0.18147 0.33593 0.60168 0.0
C1532 C 0.26701 0.31822 0.61311 0.0
O1533 O 0.26907 0.34533 0.63821 0.0
O1534 O 0.23449 0.31073 0.59654 0.0
C1535 C 0.2862 0.39491 0.71809 0.0
O1536 O 0.28845 0.41188 0.68348 0.0
C1537 C 0.17879 0.35079 0.51743 0.0
C1538 C 0.11595 0.34573 0.50205 0.0
C1539 C 0.15262 0.35413 0.48642 0.0
N1540 N 0.15876 0.34131 0.55014 0.0
N1541 N 0.12106 0.33848 0.54082 0.0
C1542 C 0.22227 0.35752 0.51635 0.0
H1543 H 0.23158 0.37376 0.54312 0.0
H1544 H 0.23105 0.37414 0.48963 0.0
H1545 H 0.23754 0.32867 0.51635 0.0
C1546 C 0.18547 0.42312 0.68069 0.0
N1547 N 0.1939 0.38807 0.66434 0.0
N1548 N 0.17718 0.38547 0.62959 0.0
C1549 C 0.15799 0.41968 0.62246 0.0
C1550 C 0.1629 0.44457 0.65464 0.0
C1551 C 0.19805 0.43588 0.72092 0.0
H1552 H 0.20161 0.41002 0.7405 0.0
H1553 H 0.22642 0.4518 0.71888 0.0
H1554 H 0.17609 0.45632 0.73384 0.0
O1555 O 0.20246 0.29455 0.68232 0.0
O1556 O 0.15824 0.29262 0.63326 0.0
H1557 H 0.11127 0.40886 0.58196 0.0
H1558 H 0.12616 0.45987 0.58472 0.0
C1559 C 0.13677 0.42898 0.58509 0.0
H1560 H 0.15668 0.42402 0.55972 0.0
H1561 H 0.09883 0.33168 0.56088 0.0
O1562 O 0.26173 0.3668 0.72369 0.0
C1563 C 0.17512 0.27674 0.66306 0.0
Co1564 Co 0.66443 0.22903 0.67858 0.0
Co1565 Co 0.67728 0.18144 0.6017 0.0
C1566 C 0.69498 0.26699 0.61314 0.0
O1567 O 0.66787 0.26904 0.63825 0.0
O1568 O 0.70247 0.23447 0.59656 0.0
C1569 C 0.61828 0.28614 0.71812 0.0
O1570 O 0.60132 0.2884 0.68351 0.0
C1571 C 0.66243 0.17876 0.51745 0.0
C1572 C 0.6675 0.11591 0.50207 0.0
C1573 C 0.6591 0.15258 0.48644 0.0
N1574 N 0.67191 0.15873 0.55016 0.0
N1575 N 0.67474 0.12103 0.54084 0.0
C1576 C 0.6557 0.22224 0.51637 0.0
H1577 H 0.63946 0.23155 0.54313 0.0
H1578 H 0.63908 0.23102 0.48965 0.0
H1579 H 0.68455 0.2375 0.51637 0.0
C1580 C 0.59008 0.18542 0.6807 0.0
N1581 N 0.62512 0.19385 0.66436 0.0
N1582 N 0.62773 0.17714 0.6296 0.0
C1583 C 0.59353 0.15796 0.62247 0.0
C1584 C 0.56863 0.16286 0.65464 0.0
C1585 C 0.57731 0.19799 0.72093 0.0
H1586 H 0.60316 0.20155 0.74051 0.0
H1587 H 0.56139 0.22637 0.71889 0.0
H1588 H 0.55686 0.17603 0.73384 0.0
O1589 O 0.71865 0.20242 0.68235 0.0
O1590 O 0.72059 0.15821 0.63329 0.0
H1591 H 0.60434 0.11125 0.58195 0.0
H1592 H 0.55334 0.12614 0.58471 0.0
C1593 C 0.58423 0.13674 0.58508 0.0
H1594 H 0.5892 0.15666 0.55972 0.0
H1595 H 0.68154 0.0988 0.5609 0.0
O1596 O 0.64638 0.26167 0.72372 0.0
C1597 C 0.73646 0.17509 0.66309 0.0
Co1598 Co 0.3488 0.78417 0.67859 0.0
Co1599 Co 0.33594 0.83177 0.60171 0.0
C1600 C 0.31822 0.74623 0.61315 0.0
O1601 O 0.34533 0.74416 0.63826 0.0
O1602 O 0.31074 0.77875 0.59658 0.0
C1603 C 0.39493 0.72704 0.71811 0.0
O1604 O 0.41188 0.72477 0.6835 0.0
C1605 C 0.35078 0.83444 0.51746 0.0
C1606 C 0.34573 0.89729 0.50207 0.0
C1607 C 0.35412 0.86061 0.48644 0.0
N1608 N 0.34131 0.85448 0.55017 0.0
N1609 N 0.33848 0.89217 0.54084 0.0
C1610 C 0.35751 0.79096 0.51638 0.0
H1611 H 0.37375 0.78165 0.54314 0.0
H1612 H 0.37412 0.78218 0.48966 0.0
H1613 H 0.32866 0.7757 0.51638 0.0
C1614 C 0.42316 0.82777 0.68069 0.0
N1615 N 0.38811 0.81934 0.66435 0.0
N1616 N 0.3855 0.83606 0.6296 0.0
C1617 C 0.4197 0.85525 0.62247 0.0
C1618 C 0.4446 0.85034 0.65463 0.0
C1619 C 0.43593 0.81518 0.72091 0.0
H1620 H 0.41009 0.81164 0.7405 0.0
H1621 H 0.45184 0.7868 0.71886 0.0
H1622 H 0.45639 0.83713 0.73382 0.0
O1623 O 0.29459 0.8108 0.68237 0.0
O1624 O 0.29265 0.85501 0.63331 0.0
H1625 H 0.40886 0.90197 0.58197 0.0
H1626 H 0.45988 0.88709 0.58472 0.0
C1627 C 0.42899 0.87648 0.58509 0.0
H1628 H 0.42402 0.85657 0.55972 0.0
H1629 H 0.33169 0.91441 0.5609 0.0
O1630 O 0.36685 0.75152 0.72373 0.0
C1631 C 0.27678 0.83814 0.66312 0.0
loop_
_geom_bond_atom_site_label_1
_geom_bond_atom_site_label_2
_geom_bond_distance
_geom_bond_site_symmetry_2
_ccdc_geom_bond_type
Co0 O3 1.970 . S
Co0 N17 1.989 . S
Co0 O25 1.967 . S
Co0 O32 1.920 . S
Co1 O4 1.966 . S
Co1 N10 2.022 . S
Co1 N18 1.993 . S
Co1 O26 1.941 . S
C2 O3 1.258 . S
C2 O4 1.263 . S
O3 Co0 1.970 . S
O3 C2 1.258 . S
O4 Co1 1.966 . S
O4 C2 1.263 . S
C5 O6 1.235 . S
C5 O32 1.289 . S
O6 C5 1.235 . S
C7 C9 1.400 1_455 S
C7 N10 1.351 . S
C7 C12 1.501 . S
C8 C9 1.387 . S
C8 N11 1.341 1_655 S
C9 C7 1.400 1_655 S
C9 C8 1.387 . S
N10 Co1 2.022 . S
N10 C7 1.351 . S
N10 N11 1.365 . S
N11 C8 1.341 1_455 S
N11 N10 1.365 . S
N11 H31 0.862 . S
C12 C7 1.501 . S
C12 H13 0.961 . S
C12 H14 0.961 . S
C12 H15 0.960 1_455 S
H13 C12 0.961 . S
H14 C12 0.961 . S
H15 C12 0.960 1_655 S
C16 N17 1.342 . S
C16 C20 1.401 . S
C16 C21 1.499 . S
N17 Co0 1.989 . S
N17 C16 1.342 . S
N17 N18 1.388 . S
N18 Co1 1.993 . S
N18 N17 1.388 . S
N18 C19 1.346 . S
C19 N18 1.346 . S
C19 C20 1.396 . S
C19 C29 1.510 . S
C20 C16 1.401 . S
C20 C19 1.396 . S
C21 C16 1.499 . S
C21 H22 0.959 . S
C21 H23 0.960 . S
C21 H24 0.961 . S
H22 C21 0.959 . S
H23 C21 0.960 . S
H24 C21 0.961 . S
O25 Co0 1.967 . S
O25 C33 1.258 . S
O26 Co1 1.941 . S
O26 C33 1.266 . S
H27 C29 0.959 . S
H28 C29 0.961 . S
C29 C19 1.510 . S
C29 H27 0.959 . S
C29 H28 0.961 . S
C29 H30 0.960 . S
H30 C29 0.960 . S
H31 N11 0.862 . S
O32 Co0 1.920 . S
O32 C5 1.289 . S
C33 O25 1.258 . S
C33 O26 1.266 . S
Co34 O37 1.970 . S
Co34 N51 1.989 . S
Co34 O59 1.967 . S
Co34 O66 1.920 . S
Co35 O38 1.966 . S
Co35 N44 2.022 . S
Co35 N52 1.993 . S
Co35 O60 1.941 . S
C36 O37 1.258 . S
C36 O38 1.263 . S
O37 Co34 1.970 . S
O37 C36 1.258 . S
O38 Co35 1.966 . S
O38 C36 1.263 . S
C39 O40 1.235 . S
C39 O66 1.289 . S
O40 C39 1.235 . S
C41 C43 1.400 1_545 S
C41 N44 1.351 . S
C41 C46 1.501 . S
C42 C43 1.387 . S
C42 N45 1.341 1_565 S
C43 C41 1.400 1_565 S
C43 C42 1.387 . S
N44 Co35 2.022 . S
N44 C41 1.351 . S
N44 N45 1.365 . S
N45 C42 1.341 1_545 S
N45 N44 1.365 . S
N45 H65 0.862 . S
C46 C41 1.501 . S
C46 H47 0.961 . S
C46 H48 0.961 . S
C46 H49 0.960 1_545 S
H47 C46 0.961 . S
H48 C46 0.961 . S
H49 C46 0.960 1_565 S
C50 N51 1.342 . S
C50 C54 1.401 . S
C50 C55 1.499 . S
N51 Co34 1.989 . S
N51 C50 1.342 . S
N51 N52 1.388 . S
N52 Co35 1.993 . S
N52 N51 1.388 . S
N52 C53 1.346 . S
C53 N52 1.346 . S
C53 C54 1.396 . S
C53 C63 1.510 . S
C54 C50 1.401 . S
C54 C53 1.396 . S
C55 C50 1.499 . S
C55 H56 0.959 . S
C55 H57 0.960 . S
C55 H58 0.961 . S
H56 C55 0.959 . S
H57 C55 0.960 . S
H58 C55 0.961 . S
O59 Co34 1.967 . S
O59 C67 1.258 . S
O60 Co35 1.941 . S
O60 C67 1.266 . S
H61 C63 0.959 . S
H62 C63 0.961 . S
C63 C53 1.510 . S
C63 H61 0.959 . S
C63 H62 0.961 . S
C63 H64 0.960 . S
H64 C63 0.960 . S
H65 N45 0.862 . S
O66 Co34 1.920 . S
O66 C39 1.289 . S
C67 O59 1.258 . S
C67 O60 1.266 . S
Co68 O71 1.970 . S
Co68 N85 1.989 . S
Co68 O93 1.967 . S
Co68 O100 1.920 . S
Co69 O72 1.966 . S
Co69 N78 2.022 . S
Co69 N86 1.993 . S
Co69 O94 1.941 . S
C70 O71 1.258 . S
C70 O72 1.263 . S
O71 Co68 1.970 . S
O71 C70 1.258 . S
O72 Co69 1.966 . S
O72 C70 1.263 . S
C73 O74 1.235 . S
C73 O100 1.289 . S
O74 C73 1.235 . S
C75 C77 1.400 1_655 S
C75 N78 1.351 . S
C75 C80 1.501 . S
C76 C77 1.387 . S
C76 N79 1.341 1_455 S
C77 C75 1.400 1_455 S
C77 C76 1.387 . S
N78 Co69 2.022 . S
N78 C75 1.351 . S
N78 N79 1.365 . S
N79 C76 1.341 1_655 S
N79 N78 1.365 . S
N79 H99 0.862 . S
C80 C75 1.501 . S
C80 H81 0.961 . S
C80 H82 0.961 . S
C80 H83 0.960 1_655 S
H81 C80 0.961 . S
H82 C80 0.961 . S
H83 C80 0.960 1_455 S
C84 N85 1.342 . S
C84 C88 1.401 . S
C84 C89 1.499 . S
N85 Co68 1.989 . S
N85 C84 1.342 . S
N85 N86 1.388 . S
N86 Co69 1.993 . S
N86 N85 1.388 . S
N86 C87 1.346 . S
C87 N86 1.346 . S
C87 C88 1.396 . S
C87 C97 1.510 . S
C88 C84 1.401 . S
C88 C87 1.396 . S
C89 C84 1.499 . S
C89 H90 0.959 . S
C89 H91 0.960 . S
C89 H92 0.961 . S
H90 C89 0.959 . S
H91 C89 0.960 . S
H92 C89 0.961 . S
O93 Co68 1.967 . S
O93 C101 1.258 . S
O94 Co69 1.941 . S
O94 C101 1.266 . S
H95 C97 0.959 . S
H96 C97 0.961 . S
C97 C87 1.510 . S
C97 H95 0.959 . S
C97 H96 0.961 . S
C97 H98 0.960 . S
H98 C97 0.960 . S
H99 N79 0.862 . S
O100 Co68 1.920 . S
O100 C73 1.289 . S
C101 O93 1.258 . S
C101 O94 1.266 . S
Co102 O105 1.970 . S
Co102 N119 1.989 . S
Co102 O127 1.967 . S
Co102 O134 1.920 . S
Co103 O106 1.966 . S
Co103 N112 2.022 . S
Co103 N120 1.993 . S
Co103 O128 1.941 . S
C104 O105 1.258 . S
C104 O106 1.263 . S
O105 Co102 1.970 . S
O105 C104 1.258 . S
O106 Co103 1.966 . S
O106 C104 1.263 . S
C107 O108 1.235 . S
C107 O134 1.289 . S
O108 C107 1.235 . S
C109 C111 1.400 1_565 S
C109 N112 1.351 . S
C109 C114 1.501 . S
C110 C111 1.387 . S
C110 N113 1.341 1_545 S
C111 C109 1.400 1_545 S
C111 C110 1.387 . S
N112 Co103 2.022 . S
N112 C109 1.351 . S
N112 N113 1.365 . S
N113 C110 1.341 1_565 S
N113 N112 1.365 . S
N113 H133 0.862 . S
C114 C109 1.501 . S
C114 H115 0.961 . S
C114 H116 0.961 . S
C114 H117 0.960 1_565 S
H115 C114 0.961 . S
H116 C114 0.961 . S
H117 C114 0.960 1_545 S
C118 N119 1.342 . S
C118 C122 1.401 . S
C118 C123 1.499 . S
N119 Co102 1.989 . S
N119 C118 1.342 . S
N119 N120 1.388 . S
N120 Co103 1.993 . S
N120 N119 1.388 . S
N120 C121 1.346 . S
C121 N120 1.346 . S
C121 C122 1.396 . S
C121 C131 1.510 . S
C122 C118 1.401 . S
C122 C121 1.396 . S
C123 C118 1.499 . S
C123 H124 0.959 . S
C123 H125 0.960 . S
C123 H126 0.961 . S
H124 C123 0.959 . S
H125 C123 0.960 . S
H126 C123 0.961 . S
O127 Co102 1.967 . S
O127 C135 1.258 . S
O128 Co103 1.941 . S
O128 C135 1.266 . S
H129 C131 0.959 . S
H130 C131 0.961 . S
C131 C121 1.510 . S
C131 H129 0.959 . S
C131 H130 0.961 . S
C131 H132 0.960 . S
H132 C131 0.960 . S
H133 N113 0.862 . S
O134 Co102 1.920 . S
O134 C107 1.289 . S
C135 O127 1.258 . S
C135 O128 1.266 . S
Co136 O139 1.970 . S
Co136 N153 1.989 . S
Co136 O161 1.967 . S
Co136 O168 1.920 . S
Co137 O140 1.966 . S
Co137 N146 2.022 . S
Co137 N154 1.993 . S
Co137 O162 1.941 . S
C138 O139 1.258 . S
C138 O140 1.263 . S
O139 Co136 1.970 . S
O139 C138 1.258 . S
O140 Co137 1.966 . S
O140 C138 1.263 . S
C141 O142 1.235 . S
C141 O168 1.289 . S
O142 C141 1.235 . S
C143 C145 1.400 1_455 S
C143 N146 1.351 . S
C143 C148 1.501 . S
C144 C145 1.387 . S
C144 N147 1.341 1_655 S
C145 C143 1.400 1_655 S
C145 C144 1.387 . S
N146 Co137 2.022 . S
N146 C143 1.351 . S
N146 N147 1.365 . S
N147 C144 1.341 1_455 S
N147 N146 1.365 . S
N147 H167 0.862 . S
C148 C143 1.501 . S
C148 H149 0.961 . S
C148 H150 0.961 . S
C148 H151 0.960 1_455 S
H149 C148 0.961 . S
H150 C148 0.961 . S
H151 C148 0.960 1_655 S
C152 N153 1.342 . S
C152 C156 1.401 . S
C152 C157 1.499 . S
N153 Co136 1.989 . S
N153 C152 1.342 . S
N153 N154 1.388 . S
N154 Co137 1.993 . S
N154 N153 1.388 . S
N154 C155 1.346 . S
C155 N154 1.346 . S
C155 C156 1.396 . S
C155 C165 1.510 . S
C156 C152 1.401 . S
C156 C155 1.396 . S
C157 C152 1.499 . S
C157 H158 0.959 . S
C157 H159 0.960 . S
C157 H160 0.961 . S
H158 C157 0.959 . S
H159 C157 0.960 . S
H160 C157 0.961 . S
O161 Co136 1.967 . S
O161 C169 1.258 . S
O162 Co137 1.941 . S
O162 C169 1.266 . S
H163 C165 0.959 . S
H164 C165 0.961 . S
C165 C155 1.510 . S
C165 H163 0.959 . S
C165 H164 0.961 . S
C165 H166 0.960 . S
H166 C165 0.960 . S
H167 N147 0.862 . S
O168 Co136 1.920 . S
O168 C141 1.289 . S
C169 O161 1.258 . S
C169 O162 1.266 . S
Co170 O173 1.970 . S
Co170 N187 1.989 . S
Co170 O195 1.967 . S
Co170 O202 1.920 . S
Co171 O174 1.966 . S
Co171 N180 2.022 . S
Co171 N188 1.993 . S
Co171 O196 1.941 . S
C172 O173 1.258 . S
C172 O174 1.263 . S
O173 Co170 1.970 . S
O173 C172 1.258 . S
O174 Co171 1.966 . S
O174 C172 1.263 . S
C175 O176 1.235 . S
C175 O202 1.289 . S
O176 C175 1.235 . S
C177 C179 1.400 1_545 S
C177 N180 1.351 . S
C177 C182 1.501 . S
C178 C179 1.387 . S
C178 N181 1.341 1_565 S
C179 C177 1.400 1_565 S
C179 C178 1.387 . S
N180 Co171 2.022 . S
N180 C177 1.351 . S
N180 N181 1.365 . S
N181 C178 1.341 1_545 S
N181 N180 1.365 . S
N181 H201 0.862 . S
C182 C177 1.501 . S
C182 H183 0.961 . S
C182 H184 0.961 . S
C182 H185 0.960 1_545 S
H183 C182 0.961 . S
H184 C182 0.961 . S
H185 C182 0.960 1_565 S
C186 N187 1.342 . S
C186 C190 1.401 . S
C186 C191 1.499 . S
N187 Co170 1.989 . S
N187 C186 1.342 . S
N187 N188 1.388 . S
N188 Co171 1.993 . S
N188 N187 1.388 . S
N188 C189 1.346 . S
C189 N188 1.346 . S
C189 C190 1.396 . S
C189 C199 1.510 . S
C190 C186 1.401 . S
C190 C189 1.396 . S
C191 C186 1.499 . S
C191 H192 0.959 . S
C191 H193 0.960 . S
C191 H194 0.961 . S
H192 C191 0.959 . S
H193 C191 0.960 . S
H194 C191 0.961 . S
O195 Co170 1.967 . S
O195 C203 1.258 . S
O196 Co171 1.941 . S
O196 C203 1.266 . S
H197 C199 0.959 . S
H198 C199 0.961 . S
C199 C189 1.510 . S
C199 H197 0.959 . S
C199 H198 0.961 . S
C199 H200 0.960 . S
H200 C199 0.960 . S
H201 N181 0.862 . S
O202 Co170 1.920 . S
O202 C175 1.289 . S
C203 O195 1.258 . S
C203 O196 1.266 . S
Co204 O207 1.970 . S
Co204 N221 1.989 . S
Co204 O229 1.967 . S
Co204 O236 1.920 . S
Co205 O208 1.966 . S
Co205 N214 2.022 . S
Co205 N222 1.993 . S
Co205 O230 1.941 . S
C206 O207 1.258 . S
C206 O208 1.263 . S
O207 Co204 1.970 . S
O207 C206 1.258 . S
O208 Co205 1.966 . S
O208 C206 1.263 . S
C209 O210 1.235 . S
C209 O236 1.289 . S
O210 C209 1.235 . S
C211 C213 1.400 1_655 S
C211 N214 1.351 . S
C211 C216 1.501 . S
C212 C213 1.387 . S
C212 N215 1.341 1_455 S
C213 C211 1.400 1_455 S
C213 C212 1.387 . S
N214 Co205 2.022 . S
N214 C211 1.351 . S
N214 N215 1.365 . S
N215 C212 1.341 1_655 S
N215 N214 1.365 . S
N215 H235 0.862 . S
C216 C211 1.501 . S
C216 H217 0.961 . S
C216 H218 0.961 . S
C216 H219 0.960 1_655 S
H217 C216 0.961 . S
H218 C216 0.961 . S
H219 C216 0.960 1_455 S
C220 N221 1.342 . S
C220 C224 1.401 . S
C220 C225 1.499 . S
N221 Co204 1.989 . S
N221 C220 1.342 . S
N221 N222 1.388 . S
N222 Co205 1.993 . S
N222 N221 1.388 . S
N222 C223 1.346 . S
C223 N222 1.346 . S
C223 C224 1.396 . S
C223 C233 1.510 . S
C224 C220 1.401 . S
C224 C223 1.396 . S
C225 C220 1.499 . S
C225 H226 0.959 . S
C225 H227 0.960 . S
C225 H228 0.961 . S
H226 C225 0.959 . S
H227 C225 0.960 . S
H228 C225 0.961 . S
O229 Co204 1.967 . S
O229 C237 1.258 . S
O230 Co205 1.941 . S
O230 C237 1.266 . S
H231 C233 0.959 . S
H232 C233 0.961 . S
C233 C223 1.510 . S
C233 H231 0.959 . S
C233 H232 0.961 . S
C233 H234 0.960 . S
H234 C233 0.960 . S
H235 N215 0.862 . S
O236 Co204 1.920 . S
O236 C209 1.289 . S
C237 O229 1.258 . S
C237 O230 1.266 . S
Co238 O241 1.970 . S
Co238 N255 1.989 . S
Co238 O263 1.967 . S
Co238 O270 1.920 . S
Co239 O242 1.966 . S
Co239 N248 2.022 . S
Co239 N256 1.993 . S
Co239 O264 1.941 . S
C240 O241 1.258 . S
C240 O242 1.263 . S
O241 Co238 1.970 . S
O241 C240 1.258 . S
O242 Co239 1.966 . S
O242 C240 1.263 . S
C243 O244 1.235 . S
C243 O270 1.289 . S
O244 C243 1.235 . S
C245 C247 1.400 1_565 S
C245 N248 1.351 . S
C245 C250 1.501 . S
C246 C247 1.387 . S
C246 N249 1.341 1_545 S
C247 C245 1.400 1_545 S
C247 C246 1.387 . S
N248 Co239 2.022 . S
N248 C245 1.351 . S
N248 N249 1.365 . S
N249 C246 1.341 1_565 S
N249 N248 1.365 . S
N249 H269 0.862 . S
C250 C245 1.501 . S
C250 H251 0.961 . S
C250 H252 0.961 . S
C250 H253 0.960 1_565 S
H251 C250 0.961 . S
H252 C250 0.961 . S
H253 C250 0.960 1_545 S
C254 N255 1.342 . S
C254 C258 1.401 . S
C254 C259 1.499 . S
N255 Co238 1.989 . S
N255 C254 1.342 . S
N255 N256 1.388 . S
N256 Co239 1.993 . S
N256 N255 1.388 . S
N256 C257 1.346 . S
C257 N256 1.346 . S
C257 C258 1.396 . S
C257 C267 1.510 . S
C258 C254 1.401 . S
C258 C257 1.396 . S
C259 C254 1.499 . S
C259 H260 0.959 . S
C259 H261 0.960 . S
C259 H262 0.961 . S
H260 C259 0.959 . S
H261 C259 0.960 . S
H262 C259 0.961 . S
O263 Co238 1.967 . S
O263 C271 1.258 . S
O264 Co239 1.941 . S
O264 C271 1.266 . S
H265 C267 0.959 . S
H266 C267 0.961 . S
C267 C257 1.510 . S
C267 H265 0.959 . S
C267 H266 0.961 . S
C267 H268 0.960 . S
H268 C267 0.960 . S
H269 N249 0.862 . S
O270 Co238 1.920 . S
O270 C243 1.289 . S
C271 O263 1.258 . S
C271 O264 1.266 . S
Co272 O275 1.970 . S
Co272 N289 1.989 . S
Co272 O297 1.967 . S
Co272 O304 1.920 . S
Co273 O276 1.966 . S
Co273 N282 2.022 . S
Co273 N290 1.993 . S
Co273 O298 1.941 . S
C274 O275 1.258 . S
C274 O276 1.263 . S
O275 Co272 1.970 . S
O275 C274 1.258 . S
O276 Co273 1.966 . S
O276 C274 1.263 . S
C277 O278 1.235 . S
C277 O304 1.289 . S
O278 C277 1.235 . S
C279 C281 1.400 1_545 S
C279 N282 1.351 . S
C279 C284 1.501 . S
C280 C281 1.387 . S
C280 N283 1.341 1_565 S
C281 C279 1.400 1_565 S
C281 C280 1.387 . S
N282 Co273 2.022 . S
N282 C279 1.351 . S
N282 N283 1.365 . S
N283 C280 1.341 1_545 S
N283 N282 1.365 . S
N283 H303 0.862 . S
C284 C279 1.501 . S
C284 H285 0.961 . S
C284 H286 0.961 . S
C284 H287 0.960 1_545 S
H285 C284 0.961 . S
H286 C284 0.961 . S
H287 C284 0.960 1_565 S
C288 N289 1.342 . S
C288 C292 1.401 . S
C288 C293 1.499 . S
N289 Co272 1.989 . S
N289 C288 1.342 . S
N289 N290 1.388 . S
N290 Co273 1.993 . S
N290 N289 1.388 . S
N290 C291 1.346 . S
C291 N290 1.346 . S
C291 C292 1.396 . S
C291 C301 1.510 . S
C292 C288 1.401 . S
C292 C291 1.396 . S
C293 C288 1.499 . S
C293 H294 0.959 . S
C293 H295 0.960 . S
C293 H296 0.961 . S
H294 C293 0.959 . S
H295 C293 0.960 . S
H296 C293 0.961 . S
O297 Co272 1.967 . S
O297 C305 1.258 . S
O298 Co273 1.941 . S
O298 C305 1.266 . S
H299 C301 0.959 . S
H300 C301 0.961 . S
C301 C291 1.510 . S
C301 H299 0.959 . S
C301 H300 0.961 . S
C301 H302 0.960 . S
H302 C301 0.960 . S
H303 N283 0.862 . S
O304 Co272 1.920 . S
O304 C277 1.289 . S
C305 O297 1.258 . S
C305 O298 1.266 . S
Co306 O309 1.970 . S
Co306 N323 1.989 . S
Co306 O331 1.967 . S
Co306 O338 1.920 . S
Co307 O310 1.966 . S
Co307 N316 2.022 . S
Co307 N324 1.993 . S
Co307 O332 1.941 . S
C308 O309 1.258 . S
C308 O310 1.263 . S
O309 Co306 1.970 . S
O309 C308 1.258 . S
O310 Co307 1.966 . S
O310 C308 1.263 . S
C311 O312 1.235 . S
C311 O338 1.289 . S
O312 C311 1.235 . S
C313 C315 1.400 1_655 S
C313 N316 1.351 . S
C313 C318 1.501 . S
C314 C315 1.387 . S
C314 N317 1.341 1_455 S
C315 C313 1.400 1_455 S
C315 C314 1.387 . S
N316 Co307 2.022 . S
N316 C313 1.351 . S
N316 N317 1.365 . S
N317 C314 1.341 1_655 S
N317 N316 1.365 . S
N317 H337 0.862 . S
C318 C313 1.501 . S
C318 H319 0.961 . S
C318 H320 0.961 . S
C318 H321 0.960 1_655 S
H319 C318 0.961 . S
H320 C318 0.961 . S
H321 C318 0.960 1_455 S
C322 N323 1.342 . S
C322 C326 1.401 . S
C322 C327 1.499 . S
N323 Co306 1.989 . S
N323 C322 1.342 . S
N323 N324 1.388 . S
N324 Co307 1.993 . S
N324 N323 1.388 . S
N324 C325 1.346 . S
C325 N324 1.346 . S
C325 C326 1.396 . S
C325 C335 1.510 . S
C326 C322 1.401 . S
C326 C325 1.396 . S
C327 C322 1.499 . S
C327 H328 0.959 . S
C327 H329 0.960 . S
C327 H330 0.961 . S
H328 C327 0.959 . S
H329 C327 0.960 . S
H330 C327 0.961 . S
O331 Co306 1.967 . S
O331 C339 1.258 . S
O332 Co307 1.941 . S
O332 C339 1.266 . S
H333 C335 0.959 . S
H334 C335 0.961 . S
C335 C325 1.510 . S
C335 H333 0.959 . S
C335 H334 0.961 . S
C335 H336 0.960 . S
H336 C335 0.960 . S
H337 N317 0.862 . S
O338 Co306 1.920 . S
O338 C311 1.289 . S
C339 O331 1.258 . S
C339 O332 1.266 . S
Co340 O343 1.970 . S
Co340 N357 1.989 . S
Co340 O365 1.967 . S
Co340 O372 1.920 . S
Co341 O344 1.966 . S
Co341 N350 2.022 . S
Co341 N358 1.993 . S
Co341 O366 1.941 . S
C342 O343 1.258 . S
C342 O344 1.263 . S
O343 Co340 1.970 . S
O343 C342 1.258 . S
O344 Co341 1.966 . S
O344 C342 1.263 . S
C345 O346 1.235 . S
C345 O372 1.289 . S
O346 C345 1.235 . S
C347 C349 1.400 1_565 S
C347 N350 1.351 . S
C347 C352 1.501 . S
C348 C349 1.387 . S
C348 N351 1.341 1_545 S
C349 C347 1.400 1_545 S
C349 C348 1.387 . S
N350 Co341 2.022 . S
N350 C347 1.351 . S
N350 N351 1.365 . S
N351 C348 1.341 1_565 S
N351 N350 1.365 . S
N351 H371 0.862 . S
C352 C347 1.501 . S
C352 H353 0.961 . S
C352 H354 0.961 . S
C352 H355 0.960 1_565 S
H353 C352 0.961 . S
H354 C352 0.961 . S
H355 C352 0.960 1_545 S
C356 N357 1.342 . S
C356 C360 1.401 . S
C356 C361 1.499 . S
N357 Co340 1.989 . S
N357 C356 1.342 . S
N357 N358 1.388 . S
N358 Co341 1.993 . S
N358 N357 1.388 . S
N358 C359 1.346 . S
C359 N358 1.346 . S
C359 C360 1.396 . S
C359 C369 1.510 . S
C360 C356 1.401 . S
C360 C359 1.396 . S
C361 C356 1.499 . S
C361 H362 0.959 . S
C361 H363 0.960 . S
C361 H364 0.961 . S
H362 C361 0.959 . S
H363 C361 0.960 . S
H364 C361 0.961 . S
O365 Co340 1.967 . S
O365 C373 1.258 . S
O366 Co341 1.941 . S
O366 C373 1.266 . S
H367 C369 0.959 . S
H368 C369 0.961 . S
C369 C359 1.510 . S
C369 H367 0.959 . S
C369 H368 0.961 . S
C369 H370 0.960 . S
H370 C369 0.960 . S
H371 N351 0.862 . S
O372 Co340 1.920 . S
O372 C345 1.289 . S
C373 O365 1.258 . S
C373 O366 1.266 . S
Co374 O377 1.970 . S
Co374 N391 1.989 . S
Co374 O399 1.967 . S
Co374 O406 1.920 . S
Co375 O378 1.966 . S
Co375 N384 2.022 . S
Co375 N392 1.993 . S
Co375 O400 1.941 . S
C376 O377 1.258 . S
C376 O378 1.263 . S
O377 Co374 1.970 . S
O377 C376 1.258 . S
O378 Co375 1.966 . S
O378 C376 1.263 . S
C379 O380 1.235 . S
C379 O406 1.289 . S
O380 C379 1.235 . S
C381 C383 1.400 1_455 S
C381 N384 1.351 . S
C381 C386 1.501 . S
C382 C383 1.387 . S
C382 N385 1.341 1_655 S
C383 C381 1.400 1_655 S
C383 C382 1.387 . S
N384 Co375 2.022 . S
N384 C381 1.351 . S
N384 N385 1.365 . S
N385 C382 1.341 1_455 S
N385 N384 1.365 . S
N385 H405 0.862 . S
C386 C381 1.501 . S
C386 H387 0.961 . S
C386 H388 0.961 . S
C386 H389 0.960 1_455 S
H387 C386 0.961 . S
H388 C386 0.961 . S
H389 C386 0.960 1_655 S
C390 N391 1.342 . S
C390 C394 1.401 . S
C390 C395 1.499 . S
N391 Co374 1.989 . S
N391 C390 1.342 . S
N391 N392 1.388 . S
N392 Co375 1.993 . S
N392 N391 1.388 . S
N392 C393 1.346 . S
C393 N392 1.346 . S
C393 C394 1.396 . S
C393 C403 1.510 . S
C394 C390 1.401 . S
C394 C393 1.396 . S
C395 C390 1.499 . S
C395 H396 0.959 . S
C395 H397 0.960 . S
C395 H398 0.961 . S
H396 C395 0.959 . S
H397 C395 0.960 . S
H398 C395 0.961 . S
O399 Co374 1.967 . S
O399 C407 1.258 . S
O400 Co375 1.941 . S
O400 C407 1.266 . S
H401 C403 0.959 . S
H402 C403 0.961 . S
C403 C393 1.510 . S
C403 H401 0.959 . S
C403 H402 0.961 . S
C403 H404 0.960 . S
H404 C403 0.960 . S
H405 N385 0.862 . S
O406 Co374 1.920 . S
O406 C379 1.289 . S
C407 O399 1.258 . S
C407 O400 1.266 . S
Co408 O411 1.970 . S
Co408 N425 1.989 . S
Co408 O433 1.967 . S
Co408 O440 1.920 . S
Co409 O412 1.966 . S
Co409 N418 2.022 . S
Co409 N426 1.993 . S
Co409 O434 1.941 . S
C410 O411 1.258 . S
C410 O412 1.263 . S
O411 Co408 1.970 . S
O411 C410 1.258 . S
O412 Co409 1.966 . S
O412 C410 1.263 . S
C413 O414 1.235 . S
C413 O440 1.289 . S
O414 C413 1.235 . S
C415 C417 1.400 1_565 S
C415 N418 1.351 . S
C415 C420 1.501 . S
C416 C417 1.387 . S
C416 N419 1.341 1_545 S
C417 C415 1.400 1_545 S
C417 C416 1.387 . S
N418 Co409 2.022 . S
N418 C415 1.351 . S
N418 N419 1.365 . S
N419 C416 1.341 1_565 S
N419 N418 1.365 . S
N419 H439 0.862 . S
C420 C415 1.501 . S
C420 H421 0.961 . S
C420 H422 0.961 . S
C420 H423 0.960 1_565 S
H421 C420 0.961 . S
H422 C420 0.961 . S
H423 C420 0.960 1_545 S
C424 N425 1.342 . S
C424 C428 1.401 . S
C424 C429 1.499 . S
N425 Co408 1.989 . S
N425 C424 1.342 . S
N425 N426 1.388 . S
N426 Co409 1.993 . S
N426 N425 1.388 . S
N426 C427 1.346 . S
C427 N426 1.346 . S
C427 C428 1.396 . S
C427 C437 1.510 . S
C428 C424 1.401 . S
C428 C427 1.396 . S
C429 C424 1.499 . S
C429 H430 0.959 . S
C429 H431 0.960 . S
C429 H432 0.961 . S
H430 C429 0.959 . S
H431 C429 0.960 . S
H432 C429 0.961 . S
O433 Co408 1.967 . S
O433 C441 1.258 . S
O434 Co409 1.941 . S
O434 C441 1.266 . S
H435 C437 0.959 . S
H436 C437 0.961 . S
C437 C427 1.510 . S
C437 H435 0.959 . S
C437 H436 0.961 . S
C437 H438 0.960 . S
H438 C437 0.960 . S
H439 N419 0.862 . S
O440 Co408 1.920 . S
O440 C413 1.289 . S
C441 O433 1.258 . S
C441 O434 1.266 . S
Co442 O445 1.970 . S
Co442 N459 1.989 . S
Co442 O467 1.967 . S
Co442 O474 1.920 . S
Co443 O446 1.966 . S
Co443 N452 2.022 . S
Co443 N460 1.993 . S
Co443 O468 1.941 . S
C444 O445 1.258 . S
C444 O446 1.263 . S
O445 Co442 1.970 . S
O445 C444 1.258 . S
O446 Co443 1.966 . S
O446 C444 1.263 . S
C447 O448 1.235 . S
C447 O474 1.289 . S
O448 C447 1.235 . S
C449 C451 1.400 1_455 S
C449 N452 1.351 . S
C449 C454 1.501 . S
C450 C451 1.387 . S
C450 N453 1.341 1_655 S
C451 C449 1.400 1_655 S
C451 C450 1.387 . S
N452 Co443 2.022 . S
N452 C449 1.351 . S
N452 N453 1.365 . S
N453 C450 1.341 1_455 S
N453 N452 1.365 . S
N453 H473 0.862 . S
C454 C449 1.501 . S
C454 H455 0.961 . S
C454 H456 0.961 . S
C454 H457 0.960 1_455 S
H455 C454 0.961 . S
H456 C454 0.961 . S
H457 C454 0.960 1_655 S
C458 N459 1.342 . S
C458 C462 1.401 . S
C458 C463 1.499 . S
N459 Co442 1.989 . S
N459 C458 1.342 . S
N459 N460 1.388 . S
N460 Co443 1.993 . S
N460 N459 1.388 . S
N460 C461 1.346 . S
C461 N460 1.346 . S
C461 C462 1.396 . S
C461 C471 1.510 . S
C462 C458 1.401 . S
C462 C461 1.396 . S
C463 C458 1.499 . S
C463 H464 0.959 . S
C463 H465 0.960 . S
C463 H466 0.961 . S
H464 C463 0.959 . S
H465 C463 0.960 . S
H466 C463 0.961 . S
O467 Co442 1.967 . S
O467 C475 1.258 . S
O468 Co443 1.941 . S
O468 C475 1.266 . S
H469 C471 0.959 . S
H470 C471 0.961 . S
C471 C461 1.510 . S
C471 H469 0.959 . S
C471 H470 0.961 . S
C471 H472 0.960 . S
H472 C471 0.960 . S
H473 N453 0.862 . S
O474 Co442 1.920 . S
O474 C447 1.289 . S
C475 O467 1.258 . S
C475 O468 1.266 . S
Co476 O479 1.970 . S
Co476 N493 1.989 . S
Co476 O501 1.967 . S
Co476 O508 1.920 . S
Co477 O480 1.966 . S
Co477 N486 2.022 . S
Co477 N494 1.993 . S
Co477 O502 1.941 . S
C478 O479 1.258 . S
C478 O480 1.263 . S
O479 Co476 1.970 . S
O479 C478 1.258 . S
O480 Co477 1.966 . S
O480 C478 1.263 . S
C481 O482 1.235 . S
C481 O508 1.289 . S
O482 C481 1.235 . S
C483 C485 1.400 1_545 S
C483 N486 1.351 . S
C483 C488 1.501 . S
C484 C485 1.387 . S
C484 N487 1.341 1_565 S
C485 C483 1.400 1_565 S
C485 C484 1.387 . S
N486 Co477 2.022 . S
N486 C483 1.351 . S
N486 N487 1.365 . S
N487 C484 1.341 1_545 S
N487 N486 1.365 . S
N487 H507 0.862 . S
C488 C483 1.501 . S
C488 H489 0.961 . S
C488 H490 0.961 . S
C488 H491 0.960 1_545 S
H489 C488 0.961 . S
H490 C488 0.961 . S
H491 C488 0.960 1_565 S
C492 N493 1.342 . S
C492 C496 1.401 . S
C492 C497 1.499 . S
N493 Co476 1.989 . S
N493 C492 1.342 . S
N493 N494 1.388 . S
N494 Co477 1.993 . S
N494 N493 1.388 . S
N494 C495 1.346 . S
C495 N494 1.346 . S
C495 C496 1.396 . S
C495 C505 1.510 . S
C496 C492 1.401 . S
C496 C495 1.396 . S
C497 C492 1.499 . S
C497 H498 0.959 . S
C497 H499 0.960 . S
C497 H500 0.961 . S
H498 C497 0.959 . S
H499 C497 0.960 . S
H500 C497 0.961 . S
O501 Co476 1.967 . S
O501 C509 1.258 . S
O502 Co477 1.941 . S
O502 C509 1.266 . S
H503 C505 0.959 . S
H504 C505 0.961 . S
C505 C495 1.510 . S
C505 H503 0.959 . S
C505 H504 0.961 . S
C505 H506 0.960 . S
H506 C505 0.960 . S
H507 N487 0.862 . S
O508 Co476 1.920 . S
O508 C481 1.289 . S
C509 O501 1.258 . S
C509 O502 1.266 . S
Co510 O513 1.970 . S
Co510 N527 1.989 . S
Co510 O535 1.967 . S
Co510 O542 1.920 . S
Co511 O514 1.966 . S
Co511 N520 2.022 . S
Co511 N528 1.993 . S
Co511 O536 1.941 . S
C512 O513 1.258 . S
C512 O514 1.263 . S
O513 Co510 1.970 . S
O513 C512 1.258 . S
O514 Co511 1.966 . S
O514 C512 1.263 . S
C515 O516 1.235 . S
C515 O542 1.289 . S
O516 C515 1.235 . S
C517 C519 1.400 1_655 S
C517 N520 1.351 . S
C517 C522 1.501 . S
C518 C519 1.387 . S
C518 N521 1.341 1_455 S
C519 C517 1.400 1_455 S
C519 C518 1.387 . S
N520 Co511 2.022 . S
N520 C517 1.351 . S
N520 N521 1.365 . S
N521 C518 1.341 1_655 S
N521 N520 1.365 . S
N521 H541 0.862 . S
C522 C517 1.501 . S
C522 H523 0.961 . S
C522 H524 0.961 . S
C522 H525 0.960 1_655 S
H523 C522 0.961 . S
H524 C522 0.961 . S
H525 C522 0.960 1_455 S
C526 N527 1.342 . S
C526 C530 1.401 . S
C526 C531 1.499 . S
N527 Co510 1.989 . S
N527 C526 1.342 . S
N527 N528 1.388 . S
N528 Co511 1.993 . S
N528 N527 1.388 . S
N528 C529 1.346 . S
C529 N528 1.346 . S
C529 C530 1.396 . S
C529 C539 1.510 . S
C530 C526 1.401 . S
C530 C529 1.396 . S
C531 C526 1.499 . S
C531 H532 0.959 . S
C531 H533 0.960 . S
C531 H534 0.961 . S
H532 C531 0.959 . S
H533 C531 0.960 . S
H534 C531 0.961 . S
O535 Co510 1.967 . S
O535 C543 1.258 . S
O536 Co511 1.941 . S
O536 C543 1.266 . S
H537 C539 0.959 . S
H538 C539 0.961 . S
C539 C529 1.510 . S
C539 H537 0.959 . S
C539 H538 0.961 . S
C539 H540 0.960 . S
H540 C539 0.960 . S
H541 N521 0.862 . S
O542 Co510 1.920 . S
O542 C515 1.289 . S
C543 O535 1.258 . S
C543 O536 1.266 . S
Co544 O547 1.970 . S
Co544 N561 1.989 . S
Co544 O569 1.967 . S
Co544 O576 1.920 . S
Co545 O548 1.966 . S
Co545 N554 2.022 . S
Co545 N562 1.993 . S
Co545 O570 1.941 . S
C546 O547 1.258 . S
C546 O548 1.263 . S
O547 Co544 1.970 . S
O547 C546 1.258 . S
O548 Co545 1.966 . S
O548 C546 1.263 . S
C549 O550 1.235 . S
C549 O576 1.289 . S
O550 C549 1.235 . S
C551 C553 1.400 1_554 S
C551 N554 1.351 . S
C551 C556 1.501 . S
C552 C553 1.387 . S
C552 N555 1.341 1_556 S
C553 C551 1.400 1_556 S
C553 C552 1.387 . S
N554 Co545 2.022 . S
N554 C551 1.351 . S
N554 N555 1.365 . S
N555 C552 1.341 1_554 S
N555 N554 1.365 . S
N555 H575 0.862 . S
C556 C551 1.501 . S
C556 H557 0.961 . S
C556 H558 0.961 . S
C556 H559 0.960 1_554 S
H557 C556 0.961 . S
H558 C556 0.961 . S
H559 C556 0.960 1_556 S
C560 N561 1.342 . S
C560 C564 1.401 . S
C560 C565 1.499 . S
N561 Co544 1.989 . S
N561 C560 1.342 . S
N561 N562 1.388 . S
N562 Co545 1.993 . S
N562 N561 1.388 . S
N562 C563 1.346 . S
C563 N562 1.346 . S
C563 C564 1.396 . S
C563 C573 1.510 . S
C564 C560 1.401 . S
C564 C563 1.396 . S
C565 C560 1.499 . S
C565 H566 0.959 . S
C565 H567 0.960 . S
C565 H568 0.961 . S
H566 C565 0.959 . S
H567 C565 0.960 . S
H568 C565 0.961 . S
O569 Co544 1.967 . S
O569 C577 1.258 . S
O570 Co545 1.941 . S
O570 C577 1.266 . S
H571 C573 0.959 . S
H572 C573 0.961 . S
C573 C563 1.510 . S
C573 H571 0.959 . S
C573 H572 0.961 . S
C573 H574 0.960 . S
H574 C573 0.960 . S
H575 N555 0.862 . S
O576 Co544 1.920 . S
O576 C549 1.289 . S
C577 O569 1.258 . S
C577 O570 1.266 . S
Co578 O581 1.970 . S
Co578 N595 1.989 . S
Co578 O603 1.967 . S
Co578 O610 1.920 . S
Co579 O582 1.966 . S
Co579 N588 2.022 . S
Co579 N596 1.993 . S
Co579 O604 1.941 . S
C580 O581 1.258 . S
C580 O582 1.263 . S
O581 Co578 1.970 . S
O581 C580 1.258 . S
O582 Co579 1.966 . S
O582 C580 1.263 . S
C583 O584 1.235 . S
C583 O610 1.289 . S
O584 C583 1.235 . S
C585 C587 1.400 1_556 S
C585 N588 1.351 . S
C585 C590 1.501 . S
C586 C587 1.387 . S
C586 N589 1.341 1_554 S
C587 C585 1.400 1_554 S
C587 C586 1.387 . S
N588 Co579 2.022 . S
N588 C585 1.351 . S
N588 N589 1.365 . S
N589 C586 1.341 1_556 S
N589 N588 1.365 . S
N589 H609 0.862 . S
C590 C585 1.501 . S
C590 H591 0.961 . S
C590 H592 0.961 . S
C590 H593 0.960 1_556 S
H591 C590 0.961 . S
H592 C590 0.961 . S
H593 C590 0.960 1_554 S
C594 N595 1.342 . S
C594 C598 1.401 . S
C594 C599 1.499 . S
N595 Co578 1.989 . S
N595 C594 1.342 . S
N595 N596 1.388 . S
N596 Co579 1.993 . S
N596 N595 1.388 . S
N596 C597 1.346 . S
C597 N596 1.346 . S
C597 C598 1.396 . S
C597 C607 1.510 . S
C598 C594 1.401 . S
C598 C597 1.396 . S
C599 C594 1.499 . S
C599 H600 0.959 . S
C599 H601 0.960 . S
C599 H602 0.961 . S
H600 C599 0.959 . S
H601 C599 0.960 . S
H602 C599 0.961 . S
O603 Co578 1.967 . S
O603 C611 1.258 . S
O604 Co579 1.941 . S
O604 C611 1.266 . S
H605 C607 0.959 . S
H606 C607 0.961 . S
C607 C597 1.510 . S
C607 H605 0.959 . S
C607 H606 0.961 . S
C607 H608 0.960 . S
H608 C607 0.960 . S
H609 N589 0.862 . S
O610 Co578 1.920 . S
O610 C583 1.289 . S
C611 O603 1.258 . S
C611 O604 1.266 . S
Co612 O615 1.970 . S
Co612 N629 1.989 . S
Co612 O637 1.967 . S
Co612 O644 1.920 . S
Co613 O616 1.966 . S
Co613 N622 2.022 . S
Co613 N630 1.993 . S
Co613 O638 1.941 . S
C614 O615 1.258 . S
C614 O616 1.263 . S
O615 Co612 1.970 . S
O615 C614 1.258 . S
O616 Co613 1.966 . S
O616 C614 1.263 . S
C617 O618 1.235 . S
C617 O644 1.289 . S
O618 C617 1.235 . S
C619 C621 1.400 1_556 S
C619 N622 1.351 . S
C619 C624 1.501 . S
C620 C621 1.387 . S
C620 N623 1.341 1_554 S
C621 C619 1.400 1_554 S
C621 C620 1.387 . S
N622 Co613 2.022 . S
N622 C619 1.351 . S
N622 N623 1.365 . S
N623 C620 1.341 1_556 S
N623 N622 1.365 . S
N623 H643 0.862 . S
C624 C619 1.501 . S
C624 H625 0.961 . S
C624 H626 0.961 . S
C624 H627 0.960 1_556 S
H625 C624 0.961 . S
H626 C624 0.961 . S
H627 C624 0.960 1_554 S
C628 N629 1.342 . S
C628 C632 1.401 . S
C628 C633 1.499 . S
N629 Co612 1.989 . S
N629 C628 1.342 . S
N629 N630 1.388 . S
N630 Co613 1.993 . S
N630 N629 1.388 . S
N630 C631 1.346 . S
C631 N630 1.346 . S
C631 C632 1.396 . S
C631 C641 1.510 . S
C632 C628 1.401 . S
C632 C631 1.396 . S
C633 C628 1.499 . S
C633 H634 0.959 . S
C633 H635 0.960 . S
C633 H636 0.961 . S
H634 C633 0.959 . S
H635 C633 0.960 . S
H636 C633 0.961 . S
O637 Co612 1.967 . S
O637 C645 1.258 . S
O638 Co613 1.941 . S
O638 C645 1.266 . S
H639 C641 0.959 . S
H640 C641 0.961 . S
C641 C631 1.510 . S
C641 H639 0.959 . S
C641 H640 0.961 . S
C641 H642 0.960 . S
H642 C641 0.960 . S
H643 N623 0.862 . S
O644 Co612 1.920 . S
O644 C617 1.289 . S
C645 O637 1.258 . S
C645 O638 1.266 . S
Co646 O649 1.970 . S
Co646 N663 1.989 . S
Co646 O671 1.967 . S
Co646 O678 1.920 . S
Co647 O650 1.966 . S
Co647 N656 2.022 . S
Co647 N664 1.993 . S
Co647 O672 1.941 . S
C648 O649 1.258 . S
C648 O650 1.263 . S
O649 Co646 1.970 . S
O649 C648 1.258 . S
O650 Co647 1.966 . S
O650 C648 1.263 . S
C651 O652 1.235 . S
C651 O678 1.289 . S
O652 C651 1.235 . S
C653 C655 1.400 1_556 S
C653 N656 1.351 . S
C653 C658 1.501 . S
C654 C655 1.387 . S
C654 N657 1.341 1_554 S
C655 C653 1.400 1_554 S
C655 C654 1.387 . S
N656 Co647 2.022 . S
N656 C653 1.351 . S
N656 N657 1.365 . S
N657 C654 1.341 1_556 S
N657 N656 1.365 . S
N657 H677 0.862 . S
C658 C653 1.501 . S
C658 H659 0.961 . S
C658 H660 0.961 . S
C658 H661 0.960 1_556 S
H659 C658 0.961 . S
H660 C658 0.961 . S
H661 C658 0.960 1_554 S
C662 N663 1.342 . S
C662 C666 1.401 . S
C662 C667 1.499 . S
N663 Co646 1.989 . S
N663 C662 1.342 . S
N663 N664 1.388 . S
N664 Co647 1.993 . S
N664 N663 1.388 . S
N664 C665 1.346 . S
C665 N664 1.346 . S
C665 C666 1.396 . S
C665 C675 1.510 . S
C666 C662 1.401 . S
C666 C665 1.396 . S
C667 C662 1.499 . S
C667 H668 0.959 . S
C667 H669 0.960 . S
C667 H670 0.961 . S
H668 C667 0.959 . S
H669 C667 0.960 . S
H670 C667 0.961 . S
O671 Co646 1.967 . S
O671 C679 1.258 . S
O672 Co647 1.941 . S
O672 C679 1.266 . S
H673 C675 0.959 . S
H674 C675 0.961 . S
C675 C665 1.510 . S
C675 H673 0.959 . S
C675 H674 0.961 . S
C675 H676 0.960 . S
H676 C675 0.960 . S
H677 N657 0.862 . S
O678 Co646 1.920 . S
O678 C651 1.289 . S
C679 O671 1.258 . S
C679 O672 1.266 . S
Co680 O683 1.970 . S
Co680 N697 1.989 . S
Co680 O705 1.967 . S
Co680 O712 1.920 . S
Co681 O684 1.966 . S
Co681 N690 2.022 . S
Co681 N698 1.993 . S
Co681 O706 1.941 . S
C682 O683 1.258 . S
C682 O684 1.263 . S
O683 Co680 1.970 . S
O683 C682 1.258 . S
O684 Co681 1.966 . S
O684 C682 1.263 . S
C685 O686 1.235 . S
C685 O712 1.289 . S
O686 C685 1.235 . S
C687 C689 1.400 1_556 S
C687 N690 1.351 . S
C687 C692 1.501 . S
C688 C689 1.387 . S
C688 N691 1.341 1_554 S
C689 C687 1.400 1_554 S
C689 C688 1.387 . S
N690 Co681 2.022 . S
N690 C687 1.351 . S
N690 N691 1.365 . S
N691 C688 1.341 1_556 S
N691 N690 1.365 . S
N691 H711 0.862 . S
C692 C687 1.501 . S
C692 H693 0.961 . S
C692 H694 0.961 . S
C692 H695 0.960 1_556 S
H693 C692 0.961 . S
H694 C692 0.961 . S
H695 C692 0.960 1_554 S
C696 N697 1.342 . S
C696 C700 1.401 . S
C696 C701 1.499 . S
N697 Co680 1.989 . S
N697 C696 1.342 . S
N697 N698 1.388 . S
N698 Co681 1.993 . S
N698 N697 1.388 . S
N698 C699 1.346 . S
C699 N698 1.346 . S
C699 C700 1.396 . S
C699 C709 1.510 . S
C700 C696 1.401 . S
C700 C699 1.396 . S
C701 C696 1.499 . S
C701 H702 0.959 . S
C701 H703 0.960 . S
C701 H704 0.961 . S
H702 C701 0.959 . S
H703 C701 0.960 . S
H704 C701 0.961 . S
O705 Co680 1.967 . S
O705 C713 1.258 . S
O706 Co681 1.941 . S
O706 C713 1.266 . S
H707 C709 0.959 . S
H708 C709 0.961 . S
C709 C699 1.510 . S
C709 H707 0.959 . S
C709 H708 0.961 . S
C709 H710 0.960 . S
H710 C709 0.960 . S
H711 N691 0.862 . S
O712 Co680 1.920 . S
O712 C685 1.289 . S
C713 O705 1.258 . S
C713 O706 1.266 . S
Co714 O717 1.970 . S
Co714 N731 1.989 . S
Co714 O739 1.967 . S
Co714 O746 1.920 . S
Co715 O718 1.966 . S
Co715 N724 2.022 . S
Co715 N732 1.993 . S
Co715 O740 1.941 . S
C716 O717 1.258 . S
C716 O718 1.263 . S
O717 Co714 1.970 . S
O717 C716 1.258 . S
O718 Co715 1.966 . S
O718 C716 1.263 . S
C719 O720 1.235 . S
C719 O746 1.289 . S
O720 C719 1.235 . S
C721 C723 1.400 1_554 S
C721 N724 1.351 . S
C721 C726 1.501 . S
C722 C723 1.387 . S
C722 N725 1.341 1_556 S
C723 C721 1.400 1_556 S
C723 C722 1.387 . S
N724 Co715 2.022 . S
N724 C721 1.351 . S
N724 N725 1.365 . S
N725 C722 1.341 1_554 S
N725 N724 1.365 . S
N725 H745 0.862 . S
C726 C721 1.501 . S
C726 H727 0.961 . S
C726 H728 0.961 . S
C726 H729 0.960 1_554 S
H727 C726 0.961 . S
H728 C726 0.961 . S
H729 C726 0.960 1_556 S
C730 N731 1.342 . S
C730 C734 1.401 . S
C730 C735 1.499 . S
N731 Co714 1.989 . S
N731 C730 1.342 . S
N731 N732 1.388 . S
N732 Co715 1.993 . S
N732 N731 1.388 . S
N732 C733 1.346 . S
C733 N732 1.346 . S
C733 C734 1.396 . S
C733 C743 1.510 . S
C734 C730 1.401 . S
C734 C733 1.396 . S
C735 C730 1.499 . S
C735 H736 0.959 . S
C735 H737 0.960 . S
C735 H738 0.961 . S
H736 C735 0.959 . S
H737 C735 0.960 . S
H738 C735 0.961 . S
O739 Co714 1.967 . S
O739 C747 1.258 . S
O740 Co715 1.941 . S
O740 C747 1.266 . S
H741 C743 0.959 . S
H742 C743 0.961 . S
C743 C733 1.510 . S
C743 H741 0.959 . S
C743 H742 0.961 . S
C743 H744 0.960 . S
H744 C743 0.960 . S
H745 N725 0.862 . S
O746 Co714 1.920 . S
O746 C719 1.289 . S
C747 O739 1.258 . S
C747 O740 1.266 . S
Co748 O751 1.970 . S
Co748 N765 1.989 . S
Co748 O773 1.967 . S
Co748 O780 1.920 . S
Co749 O752 1.966 . S
Co749 N758 2.022 . S
Co749 N766 1.993 . S
Co749 O774 1.941 . S
C750 O751 1.258 . S
C750 O752 1.263 . S
O751 Co748 1.970 . S
O751 C750 1.258 . S
O752 Co749 1.966 . S
O752 C750 1.263 . S
C753 O754 1.235 . S
C753 O780 1.289 . S
O754 C753 1.235 . S
C755 C757 1.400 1_554 S
C755 N758 1.351 . S
C755 C760 1.501 . S
C756 C757 1.387 . S
C756 N759 1.341 1_556 S
C757 C755 1.400 1_556 S
C757 C756 1.387 . S
N758 Co749 2.022 . S
N758 C755 1.351 . S
N758 N759 1.365 . S
N759 C756 1.341 1_554 S
N759 N758 1.365 . S
N759 H779 0.862 . S
C760 C755 1.501 . S
C760 H761 0.961 . S
C760 H762 0.961 . S
C760 H763 0.960 1_554 S
H761 C760 0.961 . S
H762 C760 0.961 . S
H763 C760 0.960 1_556 S
C764 N765 1.342 . S
C764 C768 1.401 . S
C764 C769 1.499 . S
N765 Co748 1.989 . S
N765 C764 1.342 . S
N765 N766 1.388 . S
N766 Co749 1.993 . S
N766 N765 1.388 . S
N766 C767 1.346 . S
C767 N766 1.346 . S
C767 C768 1.396 . S
C767 C777 1.510 . S
C768 C764 1.401 . S
C768 C767 1.396 . S
C769 C764 1.499 . S
C769 H770 0.959 . S
C769 H771 0.960 . S
C769 H772 0.961 . S
H770 C769 0.959 . S
H771 C769 0.960 . S
H772 C769 0.961 . S
O773 Co748 1.967 . S
O773 C781 1.258 . S
O774 Co749 1.941 . S
O774 C781 1.266 . S
H775 C777 0.959 . S
H776 C777 0.961 . S
C777 C767 1.510 . S
C777 H775 0.959 . S
C777 H776 0.961 . S
C777 H778 0.960 . S
H778 C777 0.960 . S
H779 N759 0.862 . S
O780 Co748 1.920 . S
O780 C753 1.289 . S
C781 O773 1.258 . S
C781 O774 1.266 . S
Co782 O785 1.970 . S
Co782 N799 1.989 . S
Co782 O807 1.967 . S
Co782 O814 1.920 . S
Co783 O786 1.966 . S
Co783 N792 2.022 . S
Co783 N800 1.993 . S
Co783 O808 1.941 . S
C784 O785 1.258 . S
C784 O786 1.263 . S
O785 Co782 1.970 . S
O785 C784 1.258 . S
O786 Co783 1.966 . S
O786 C784 1.263 . S
C787 O788 1.235 . S
C787 O814 1.289 . S
O788 C787 1.235 . S
C789 C791 1.400 1_554 S
C789 N792 1.351 . S
C789 C794 1.501 . S
C790 C791 1.387 . S
C790 N793 1.341 1_556 S
C791 C789 1.400 1_556 S
C791 C790 1.387 . S
N792 Co783 2.022 . S
N792 C789 1.351 . S
N792 N793 1.365 . S
N793 C790 1.341 1_554 S
N793 N792 1.365 . S
N793 H813 0.862 . S
C794 C789 1.501 . S
C794 H795 0.961 . S
C794 H796 0.961 . S
C794 H797 0.960 1_554 S
H795 C794 0.961 . S
H796 C794 0.961 . S
H797 C794 0.960 1_556 S
C798 N799 1.342 . S
C798 C802 1.401 . S
C798 C803 1.499 . S
N799 Co782 1.989 . S
N799 C798 1.342 . S
N799 N800 1.388 . S
N800 Co783 1.993 . S
N800 N799 1.388 . S
N800 C801 1.346 . S
C801 N800 1.346 . S
C801 C802 1.396 . S
C801 C811 1.510 . S
C802 C798 1.401 . S
C802 C801 1.396 . S
C803 C798 1.499 . S
C803 H804 0.959 . S
C803 H805 0.960 . S
C803 H806 0.961 . S
H804 C803 0.959 . S
H805 C803 0.960 . S
H806 C803 0.961 . S
O807 Co782 1.967 . S
O807 C815 1.258 . S
O808 Co783 1.941 . S
O808 C815 1.266 . S
H809 C811 0.959 . S
H810 C811 0.961 . S
C811 C801 1.510 . S
C811 H809 0.959 . S
C811 H810 0.961 . S
C811 H812 0.960 . S
H812 C811 0.960 . S
H813 N793 0.862 . S
O814 Co782 1.920 . S
O814 C787 1.289 . S
C815 O807 1.258 . S
C815 O808 1.266 . S
Co816 O819 1.970 . S
Co816 N833 1.989 . S
Co816 O841 1.967 . S
Co816 O848 1.920 . S
Co817 O820 1.966 . S
Co817 N826 2.022 . S
Co817 N834 1.993 . S
Co817 O842 1.941 . S
C818 O819 1.258 . S
C818 O820 1.263 . S
O819 Co816 1.970 . S
O819 C818 1.258 . S
O820 Co817 1.966 . S
O820 C818 1.263 . S
C821 O822 1.235 . S
C821 O848 1.289 . S
O822 C821 1.235 . S
C823 C825 1.400 . S
C823 N826 1.351 . S
C823 C828 1.501 . S
C824 C825 1.387 . S
C824 N827 1.341 . S
C825 C823 1.400 . S
C825 C824 1.387 . S
N826 Co817 2.022 . S
N826 C823 1.351 . S
N826 N827 1.365 . S
N827 C824 1.341 . S
N827 N826 1.365 . S
N827 H847 0.862 . S
C828 C823 1.501 . S
C828 H829 0.961 . S
C828 H830 0.961 . S
C828 H831 0.960 . S
H829 C828 0.961 . S
H830 C828 0.961 . S
H831 C828 0.960 . S
C832 N833 1.342 . S
C832 C836 1.401 . S
C832 C837 1.499 . S
N833 Co816 1.989 . S
N833 C832 1.342 . S
N833 N834 1.388 . S
N834 Co817 1.993 . S
N834 N833 1.388 . S
N834 C835 1.346 . S
C835 N834 1.346 . S
C835 C836 1.396 . S
C835 C845 1.510 . S
C836 C832 1.401 . S
C836 C835 1.396 . S
C837 C832 1.499 . S
C837 H838 0.959 . S
C837 H839 0.960 . S
C837 H840 0.961 . S
H838 C837 0.959 . S
H839 C837 0.960 . S
H840 C837 0.961 . S
O841 Co816 1.967 . S
O841 C849 1.258 . S
O842 Co817 1.941 . S
O842 C849 1.266 . S
H843 C845 0.959 . S
H844 C845 0.961 . S
C845 C835 1.510 . S
C845 H843 0.959 . S
C845 H844 0.961 . S
C845 H846 0.960 . S
H846 C845 0.960 . S
H847 N827 0.862 . S
O848 Co816 1.920 . S
O848 C821 1.289 . S
C849 O841 1.258 . S
C849 O842 1.266 . S
Co850 O853 1.970 . S
Co850 N867 1.989 . S
Co850 O875 1.967 . S
Co850 O882 1.920 . S
Co851 O854 1.966 . S
Co851 N860 2.022 . S
Co851 N868 1.993 . S
Co851 O876 1.941 . S
C852 O853 1.258 . S
C852 O854 1.263 . S
O853 Co850 1.970 . S
O853 C852 1.258 . S
O854 Co851 1.966 . S
O854 C852 1.263 . S
C855 O856 1.235 . S
C855 O882 1.289 . S
O856 C855 1.235 . S
C857 C859 1.400 . S
C857 N860 1.351 . S
C857 C862 1.501 . S
C858 C859 1.387 . S
C858 N861 1.341 . S
C859 C857 1.400 . S
C859 C858 1.387 . S
N860 Co851 2.022 . S
N860 C857 1.351 . S
N860 N861 1.365 . S
N861 C858 1.341 . S
N861 N860 1.365 . S
N861 H881 0.862 . S
C862 C857 1.501 . S
C862 H863 0.961 . S
C862 H864 0.961 . S
C862 H865 0.960 . S
H863 C862 0.961 . S
H864 C862 0.961 . S
H865 C862 0.960 . S
C866 N867 1.342 . S
C866 C870 1.401 . S
C866 C871 1.499 . S
N867 Co850 1.989 . S
N867 C866 1.342 . S
N867 N868 1.388 . S
N868 Co851 1.993 . S
N868 N867 1.388 . S
N868 C869 1.346 . S
C869 N868 1.346 . S
C869 C870 1.396 . S
C869 C879 1.510 . S
C870 C866 1.401 . S
C870 C869 1.396 . S
C871 C866 1.499 . S
C871 H872 0.959 . S
C871 H873 0.960 . S
C871 H874 0.961 . S
H872 C871 0.959 . S
H873 C871 0.960 . S
H874 C871 0.961 . S
O875 Co850 1.967 . S
O875 C883 1.258 . S
O876 Co851 1.941 . S
O876 C883 1.266 . S
H877 C879 0.959 . S
H878 C879 0.961 . S
C879 C869 1.510 . S
C879 H877 0.959 . S
C879 H878 0.961 . S
C879 H880 0.960 . S
H880 C879 0.960 . S
H881 N861 0.862 . S
O882 Co850 1.920 . S
O882 C855 1.289 . S
C883 O875 1.258 . S
C883 O876 1.266 . S
Co884 O887 1.970 . S
Co884 N901 1.989 . S
Co884 O909 1.967 . S
Co884 O916 1.920 . S
Co885 O888 1.966 . S
Co885 N894 2.022 . S
Co885 N902 1.993 . S
Co885 O910 1.941 . S
C886 O887 1.258 . S
C886 O888 1.263 . S
O887 Co884 1.970 . S
O887 C886 1.258 . S
O888 Co885 1.966 . S
O888 C886 1.263 . S
C889 O890 1.235 . S
C889 O916 1.289 . S
O890 C889 1.235 . S
C891 C893 1.400 . S
C891 N894 1.351 . S
C891 C896 1.501 . S
C892 C893 1.387 . S
C892 N895 1.341 . S
C893 C891 1.400 . S
C893 C892 1.387 . S
N894 Co885 2.022 . S
N894 C891 1.351 . S
N894 N895 1.365 . S
N895 C892 1.341 . S
N895 N894 1.365 . S
N895 H915 0.862 . S
C896 C891 1.501 . S
C896 H897 0.961 . S
C896 H898 0.961 . S
C896 H899 0.960 . S
H897 C896 0.961 . S
H898 C896 0.961 . S
H899 C896 0.960 . S
C900 N901 1.342 . S
C900 C904 1.401 . S
C900 C905 1.499 . S
N901 Co884 1.989 . S
N901 C900 1.342 . S
N901 N902 1.388 . S
N902 Co885 1.993 . S
N902 N901 1.388 . S
N902 C903 1.346 . S
C903 N902 1.346 . S
C903 C904 1.396 . S
C903 C913 1.510 . S
C904 C900 1.401 . S
C904 C903 1.396 . S
C905 C900 1.499 . S
C905 H906 0.959 . S
C905 H907 0.960 . S
C905 H908 0.961 . S
H906 C905 0.959 . S
H907 C905 0.960 . S
H908 C905 0.961 . S
O909 Co884 1.967 . S
O909 C917 1.258 . S
O910 Co885 1.941 . S
O910 C917 1.266 . S
H911 C913 0.959 . S
H912 C913 0.961 . S
C913 C903 1.510 . S
C913 H911 0.959 . S
C913 H912 0.961 . S
C913 H914 0.960 . S
H914 C913 0.960 . S
H915 N895 0.862 . S
O916 Co884 1.920 . S
O916 C889 1.289 . S
C917 O909 1.258 . S
C917 O910 1.266 . S
Co918 O921 1.970 . S
Co918 N935 1.989 . S
Co918 O943 1.967 . S
Co918 O950 1.920 . S
Co919 O922 1.966 . S
Co919 N928 2.022 . S
Co919 N936 1.993 . S
Co919 O944 1.941 . S
C920 O921 1.258 . S
C920 O922 1.263 . S
O921 Co918 1.970 . S
O921 C920 1.258 . S
O922 Co919 1.966 . S
O922 C920 1.263 . S
C923 O924 1.235 . S
C923 O950 1.289 . S
O924 C923 1.235 . S
C925 C927 1.400 . S
C925 N928 1.351 . S
C925 C930 1.501 . S
C926 C927 1.387 . S
C926 N929 1.341 . S
C927 C925 1.400 . S
C927 C926 1.387 . S
N928 Co919 2.022 . S
N928 C925 1.351 . S
N928 N929 1.365 . S
N929 C926 1.341 . S
N929 N928 1.365 . S
N929 H949 0.862 . S
C930 C925 1.501 . S
C930 H931 0.961 . S
C930 H932 0.961 . S
C930 H933 0.960 . S
H931 C930 0.961 . S
H932 C930 0.961 . S
H933 C930 0.960 . S
C934 N935 1.342 . S
C934 C938 1.401 . S
C934 C939 1.499 . S
N935 Co918 1.989 . S
N935 C934 1.342 . S
N935 N936 1.388 . S
N936 Co919 1.993 . S
N936 N935 1.388 . S
N936 C937 1.346 . S
C937 N936 1.346 . S
C937 C938 1.396 . S
C937 C947 1.510 . S
C938 C934 1.401 . S
C938 C937 1.396 . S
C939 C934 1.499 . S
C939 H940 0.959 . S
C939 H941 0.960 . S
C939 H942 0.961 . S
H940 C939 0.959 . S
H941 C939 0.960 . S
H942 C939 0.961 . S
O943 Co918 1.967 . S
O943 C951 1.258 . S
O944 Co919 1.941 . S
O944 C951 1.266 . S
H945 C947 0.959 . S
H946 C947 0.961 . S
C947 C937 1.510 . S
C947 H945 0.959 . S
C947 H946 0.961 . S
C947 H948 0.960 . S
H948 C947 0.960 . S
H949 N929 0.862 . S
O950 Co918 1.920 . S
O950 C923 1.289 . S
C951 O943 1.258 . S
C951 O944 1.266 . S
Co952 O955 1.970 . S
Co952 N969 1.989 . S
Co952 O977 1.967 . S
Co952 O984 1.920 . S
Co953 O956 1.966 . S
Co953 N962 2.022 . S
Co953 N970 1.993 . S
Co953 O978 1.941 . S
C954 O955 1.258 . S
C954 O956 1.263 . S
O955 Co952 1.970 . S
O955 C954 1.258 . S
O956 Co953 1.966 . S
O956 C954 1.263 . S
C957 O958 1.235 . S
C957 O984 1.289 . S
O958 C957 1.235 . S
C959 C961 1.400 . S
C959 N962 1.351 . S
C959 C964 1.501 . S
C960 C961 1.387 . S
C960 N963 1.341 . S
C961 C959 1.400 . S
C961 C960 1.387 . S
N962 Co953 2.022 . S
N962 C959 1.351 . S
N962 N963 1.365 . S
N963 C960 1.341 . S
N963 N962 1.365 . S
N963 H983 0.862 . S
C964 C959 1.501 . S
C964 H965 0.961 . S
C964 H966 0.961 . S
C964 H967 0.960 . S
H965 C964 0.961 . S
H966 C964 0.961 . S
H967 C964 0.960 . S
C968 N969 1.342 . S
C968 C972 1.401 . S
C968 C973 1.499 . S
N969 Co952 1.989 . S
N969 C968 1.342 . S
N969 N970 1.388 . S
N970 Co953 1.993 . S
N970 N969 1.388 . S
N970 C971 1.346 . S
C971 N970 1.346 . S
C971 C972 1.396 . S
C971 C981 1.510 . S
C972 C968 1.401 . S
C972 C971 1.396 . S
C973 C968 1.499 . S
C973 H974 0.959 . S
C973 H975 0.960 . S
C973 H976 0.961 . S
H974 C973 0.959 . S
H975 C973 0.960 . S
H976 C973 0.961 . S
O977 Co952 1.967 . S
O977 C985 1.258 . S
O978 Co953 1.941 . S
O978 C985 1.266 . S
H979 C981 0.959 . S
H980 C981 0.961 . S
C981 C971 1.510 . S
C981 H979 0.959 . S
C981 H980 0.961 . S
C981 H982 0.960 . S
H982 C981 0.960 . S
H983 N963 0.862 . S
O984 Co952 1.920 . S
O984 C957 1.289 . S
C985 O977 1.258 . S
C985 O978 1.266 . S
Co986 O989 1.970 . S
Co986 N1003 1.989 . S
Co986 O1011 1.967 . S
Co986 O1018 1.920 . S
Co987 O990 1.966 . S
Co987 N996 2.022 . S
Co987 N1004 1.993 . S
Co987 O1012 1.941 . S
C988 O989 1.258 . S
C988 O990 1.263 . S
O989 Co986 1.970 . S
O989 C988 1.258 . S
O990 Co987 1.966 . S
O990 C988 1.263 . S
C991 O992 1.235 . S
C991 O1018 1.289 . S
O992 C991 1.235 . S
C993 C995 1.400 . S
C993 N996 1.351 . S
C993 C998 1.501 . S
C994 C995 1.387 . S
C994 N997 1.341 . S
C995 C993 1.400 . S
C995 C994 1.387 . S
N996 Co987 2.022 . S
N996 C993 1.351 . S
N996 N997 1.365 . S
N997 C994 1.341 . S
N997 N996 1.365 . S
N997 H1017 0.862 . S
C998 C993 1.501 . S
C998 H999 0.961 . S
C998 H1000 0.961 . S
C998 H1001 0.960 . S
H999 C998 0.961 . S
H1000 C998 0.961 . S
H1001 C998 0.960 . S
C1002 N1003 1.342 . S
C1002 C1006 1.401 . S
C1002 C1007 1.499 . S
N1003 Co986 1.989 . S
N1003 C1002 1.342 . S
N1003 N1004 1.388 . S
N1004 Co987 1.993 . S
N1004 N1003 1.388 . S
N1004 C1005 1.346 . S
C1005 N1004 1.346 . S
C1005 C1006 1.396 . S
C1005 C1015 1.510 . S
C1006 C1002 1.401 . S
C1006 C1005 1.396 . S
C1007 C1002 1.499 . S
C1007 H1008 0.959 . S
C1007 H1009 0.960 . S
C1007 H1010 0.961 . S
H1008 C1007 0.959 . S
H1009 C1007 0.960 . S
H1010 C1007 0.961 . S
O1011 Co986 1.967 . S
O1011 C1019 1.258 . S
O1012 Co987 1.941 . S
O1012 C1019 1.266 . S
H1013 C1015 0.959 . S
H1014 C1015 0.961 . S
C1015 C1005 1.510 . S
C1015 H1013 0.959 . S
C1015 H1014 0.961 . S
C1015 H1016 0.960 . S
H1016 C1015 0.960 . S
H1017 N997 0.862 . S
O1018 Co986 1.920 . S
O1018 C991 1.289 . S
C1019 O1011 1.258 . S
C1019 O1012 1.266 . S
Co1020 O1023 1.970 . S
Co1020 N1037 1.989 . S
Co1020 O1045 1.967 . S
Co1020 O1052 1.920 . S
Co1021 O1024 1.966 . S
Co1021 N1030 2.022 . S
Co1021 N1038 1.993 . S
Co1021 O1046 1.941 . S
C1022 O1023 1.258 . S
C1022 O1024 1.263 . S
O1023 Co1020 1.970 . S
O1023 C1022 1.258 . S
O1024 Co1021 1.966 . S
O1024 C1022 1.263 . S
C1025 O1026 1.235 . S
C1025 O1052 1.289 . S
O1026 C1025 1.235 . S
C1027 C1029 1.400 . S
C1027 N1030 1.351 . S
C1027 C1032 1.501 . S
C1028 C1029 1.387 . S
C1028 N1031 1.341 . S
C1029 C1027 1.400 . S
C1029 C1028 1.387 . S
N1030 Co1021 2.022 . S
N1030 C1027 1.351 . S
N1030 N1031 1.365 . S
N1031 C1028 1.341 . S
N1031 N1030 1.365 . S
N1031 H1051 0.862 . S
C1032 C1027 1.501 . S
C1032 H1033 0.961 . S
C1032 H1034 0.961 . S
C1032 H1035 0.960 . S
H1033 C1032 0.961 . S
H1034 C1032 0.961 . S
H1035 C1032 0.960 . S
C1036 N1037 1.342 . S
C1036 C1040 1.401 . S
C1036 C1041 1.499 . S
N1037 Co1020 1.989 . S
N1037 C1036 1.342 . S
N1037 N1038 1.388 . S
N1038 Co1021 1.993 . S
N1038 N1037 1.388 . S
N1038 C1039 1.346 . S
C1039 N1038 1.346 . S
C1039 C1040 1.396 . S
C1039 C1049 1.510 . S
C1040 C1036 1.401 . S
C1040 C1039 1.396 . S
C1041 C1036 1.499 . S
C1041 H1042 0.959 . S
C1041 H1043 0.960 . S
C1041 H1044 0.961 . S
H1042 C1041 0.959 . S
H1043 C1041 0.960 . S
H1044 C1041 0.961 . S
O1045 Co1020 1.967 . S
O1045 C1053 1.258 . S
O1046 Co1021 1.941 . S
O1046 C1053 1.266 . S
H1047 C1049 0.959 . S
H1048 C1049 0.961 . S
C1049 C1039 1.510 . S
C1049 H1047 0.959 . S
C1049 H1048 0.961 . S
C1049 H1050 0.960 . S
H1050 C1049 0.960 . S
H1051 N1031 0.862 . S
O1052 Co1020 1.920 . S
O1052 C1025 1.289 . S
C1053 O1045 1.258 . S
C1053 O1046 1.266 . S
Co1054 O1057 1.970 . S
Co1054 N1071 1.989 . S
Co1054 O1079 1.967 . S
Co1054 O1086 1.920 . S
Co1055 O1058 1.966 . S
Co1055 N1064 2.022 . S
Co1055 N1072 1.993 . S
Co1055 O1080 1.941 . S
C1056 O1057 1.258 . S
C1056 O1058 1.263 . S
O1057 Co1054 1.970 . S
O1057 C1056 1.258 . S
O1058 Co1055 1.966 . S
O1058 C1056 1.263 . S
C1059 O1060 1.235 . S
C1059 O1086 1.289 . S
O1060 C1059 1.235 . S
C1061 C1063 1.400 . S
C1061 N1064 1.351 . S
C1061 C1066 1.501 . S
C1062 C1063 1.387 . S
C1062 N1065 1.341 . S
C1063 C1061 1.400 . S
C1063 C1062 1.387 . S
N1064 Co1055 2.022 . S
N1064 C1061 1.351 . S
N1064 N1065 1.365 . S
N1065 C1062 1.341 . S
N1065 N1064 1.365 . S
N1065 H1085 0.862 . S
C1066 C1061 1.501 . S
C1066 H1067 0.961 . S
C1066 H1068 0.961 . S
C1066 H1069 0.960 . S
H1067 C1066 0.961 . S
H1068 C1066 0.961 . S
H1069 C1066 0.960 . S
C1070 N1071 1.342 . S
C1070 C1074 1.401 . S
C1070 C1075 1.499 . S
N1071 Co1054 1.989 . S
N1071 C1070 1.342 . S
N1071 N1072 1.388 . S
N1072 Co1055 1.993 . S
N1072 N1071 1.388 . S
N1072 C1073 1.346 . S
C1073 N1072 1.346 . S
C1073 C1074 1.396 . S
C1073 C1083 1.510 . S
C1074 C1070 1.401 . S
C1074 C1073 1.396 . S
C1075 C1070 1.499 . S
C1075 H1076 0.959 . S
C1075 H1077 0.960 . S
C1075 H1078 0.961 . S
H1076 C1075 0.959 . S
H1077 C1075 0.960 . S
H1078 C1075 0.961 . S
O1079 Co1054 1.967 . S
O1079 C1087 1.258 . S
O1080 Co1055 1.941 . S
O1080 C1087 1.266 . S
H1081 C1083 0.959 . S
H1082 C1083 0.961 . S
C1083 C1073 1.510 . S
C1083 H1081 0.959 . S
C1083 H1082 0.961 . S
C1083 H1084 0.960 . S
H1084 C1083 0.960 . S
H1085 N1065 0.862 . S
O1086 Co1054 1.920 . S
O1086 C1059 1.289 . S
C1087 O1079 1.258 . S
C1087 O1080 1.266 . S
Co1088 O1091 1.970 . S
Co1088 N1105 1.989 . S
Co1088 O1113 1.967 . S
Co1088 O1120 1.920 . S
Co1089 O1092 1.966 . S
Co1089 N1098 2.022 . S
Co1089 N1106 1.993 . S
Co1089 O1114 1.941 . S
C1090 O1091 1.258 . S
C1090 O1092 1.263 . S
O1091 Co1088 1.970 . S
O1091 C1090 1.258 . S
O1092 Co1089 1.966 . S
O1092 C1090 1.263 . S
C1093 O1094 1.235 . S
C1093 O1120 1.289 . S
O1094 C1093 1.235 . S
C1095 C1097 1.400 . S
C1095 N1098 1.351 . S
C1095 C1100 1.501 . S
C1096 C1097 1.387 . S
C1096 N1099 1.341 . S
C1097 C1095 1.400 . S
C1097 C1096 1.387 . S
N1098 Co1089 2.022 . S
N1098 C1095 1.351 . S
N1098 N1099 1.365 . S
N1099 C1096 1.341 . S
N1099 N1098 1.365 . S
N1099 H1119 0.862 . S
C1100 C1095 1.501 . S
C1100 H1101 0.961 . S
C1100 H1102 0.961 . S
C1100 H1103 0.960 . S
H1101 C1100 0.961 . S
H1102 C1100 0.961 . S
H1103 C1100 0.960 . S
C1104 N1105 1.342 . S
C1104 C1108 1.401 . S
C1104 C1109 1.499 . S
N1105 Co1088 1.989 . S
N1105 C1104 1.342 . S
N1105 N1106 1.388 . S
N1106 Co1089 1.993 . S
N1106 N1105 1.388 . S
N1106 C1107 1.346 . S
C1107 N1106 1.346 . S
C1107 C1108 1.396 . S
C1107 C1117 1.510 . S
C1108 C1104 1.401 . S
C1108 C1107 1.396 . S
C1109 C1104 1.499 . S
C1109 H1110 0.959 . S
C1109 H1111 0.960 . S
C1109 H1112 0.961 . S
H1110 C1109 0.959 . S
H1111 C1109 0.960 . S
H1112 C1109 0.961 . S
O1113 Co1088 1.967 . S
O1113 C1121 1.258 . S
O1114 Co1089 1.941 . S
O1114 C1121 1.266 . S
H1115 C1117 0.959 . S
H1116 C1117 0.961 . S
C1117 C1107 1.510 . S
C1117 H1115 0.959 . S
C1117 H1116 0.961 . S
C1117 H1118 0.960 . S
H1118 C1117 0.960 . S
H1119 N1099 0.862 . S
O1120 Co1088 1.920 . S
O1120 C1093 1.289 . S
C1121 O1113 1.258 . S
C1121 O1114 1.266 . S
Co1122 O1125 1.970 . S
Co1122 N1139 1.989 . S
Co1122 O1147 1.967 . S
Co1122 O1154 1.920 . S
Co1123 O1126 1.966 . S
Co1123 N1132 2.022 . S
Co1123 N1140 1.993 . S
Co1123 O1148 1.941 . S
C1124 O1125 1.258 . S
C1124 O1126 1.263 . S
O1125 Co1122 1.970 . S
O1125 C1124 1.258 . S
O1126 Co1123 1.966 . S
O1126 C1124 1.263 . S
C1127 O1128 1.235 . S
C1127 O1154 1.289 . S
O1128 C1127 1.235 . S
C1129 C1131 1.400 . S
C1129 N1132 1.351 . S
C1129 C1134 1.501 . S
C1130 C1131 1.387 . S
C1130 N1133 1.341 . S
C1131 C1129 1.400 . S
C1131 C1130 1.387 . S
N1132 Co1123 2.022 . S
N1132 C1129 1.351 . S
N1132 N1133 1.365 . S
N1133 C1130 1.341 . S
N1133 N1132 1.365 . S
N1133 H1153 0.862 . S
C1134 C1129 1.501 . S
C1134 H1135 0.961 . S
C1134 H1136 0.961 . S
C1134 H1137 0.960 . S
H1135 C1134 0.961 . S
H1136 C1134 0.961 . S
H1137 C1134 0.960 . S
C1138 N1139 1.342 . S
C1138 C1142 1.401 . S
C1138 C1143 1.499 . S
N1139 Co1122 1.989 . S
N1139 C1138 1.342 . S
N1139 N1140 1.388 . S
N1140 Co1123 1.993 . S
N1140 N1139 1.388 . S
N1140 C1141 1.346 . S
C1141 N1140 1.346 . S
C1141 C1142 1.396 . S
C1141 C1151 1.510 . S
C1142 C1138 1.401 . S
C1142 C1141 1.396 . S
C1143 C1138 1.499 . S
C1143 H1144 0.959 . S
C1143 H1145 0.960 . S
C1143 H1146 0.961 . S
H1144 C1143 0.959 . S
H1145 C1143 0.960 . S
H1146 C1143 0.961 . S
O1147 Co1122 1.967 . S
O1147 C1155 1.258 . S
O1148 Co1123 1.941 . S
O1148 C1155 1.266 . S
H1149 C1151 0.959 . S
H1150 C1151 0.961 . S
C1151 C1141 1.510 . S
C1151 H1149 0.959 . S
C1151 H1150 0.961 . S
C1151 H1152 0.960 . S
H1152 C1151 0.960 . S
H1153 N1133 0.862 . S
O1154 Co1122 1.920 . S
O1154 C1127 1.289 . S
C1155 O1147 1.258 . S
C1155 O1148 1.266 . S
Co1156 O1159 1.970 . S
Co1156 N1173 1.989 . S
Co1156 O1181 1.967 . S
Co1156 O1188 1.920 . S
Co1157 O1160 1.966 . S
Co1157 N1166 2.022 . S
Co1157 N1174 1.993 . S
Co1157 O1182 1.941 . S
C1158 O1159 1.258 . S
C1158 O1160 1.263 . S
O1159 Co1156 1.970 . S
O1159 C1158 1.258 . S
O1160 Co1157 1.966 . S
O1160 C1158 1.263 . S
C1161 O1162 1.235 . S
C1161 O1188 1.289 . S
O1162 C1161 1.235 . S
C1163 C1165 1.400 . S
C1163 N1166 1.351 . S
C1163 C1168 1.501 . S
C1164 C1165 1.387 . S
C1164 N1167 1.341 . S
C1165 C1163 1.400 . S
C1165 C1164 1.387 . S
N1166 Co1157 2.022 . S
N1166 C1163 1.351 . S
N1166 N1167 1.365 . S
N1167 C1164 1.341 . S
N1167 N1166 1.365 . S
N1167 H1187 0.862 . S
C1168 C1163 1.501 . S
C1168 H1169 0.961 . S
C1168 H1170 0.961 . S
C1168 H1171 0.960 . S
H1169 C1168 0.961 . S
H1170 C1168 0.961 . S
H1171 C1168 0.960 . S
C1172 N1173 1.342 . S
C1172 C1176 1.401 . S
C1172 C1177 1.499 . S
N1173 Co1156 1.989 . S
N1173 C1172 1.342 . S
N1173 N1174 1.388 . S
N1174 Co1157 1.993 . S
N1174 N1173 1.388 . S
N1174 C1175 1.346 . S
C1175 N1174 1.346 . S
C1175 C1176 1.396 . S
C1175 C1185 1.510 . S
C1176 C1172 1.401 . S
C1176 C1175 1.396 . S
C1177 C1172 1.499 . S
C1177 H1178 0.959 . S
C1177 H1179 0.960 . S
C1177 H1180 0.961 . S
H1178 C1177 0.959 . S
H1179 C1177 0.960 . S
H1180 C1177 0.961 . S
O1181 Co1156 1.967 . S
O1181 C1189 1.258 . S
O1182 Co1157 1.941 . S
O1182 C1189 1.266 . S
H1183 C1185 0.959 . S
H1184 C1185 0.961 . S
C1185 C1175 1.510 . S
C1185 H1183 0.959 . S
C1185 H1184 0.961 . S
C1185 H1186 0.960 . S
H1186 C1185 0.960 . S
H1187 N1167 0.862 . S
O1188 Co1156 1.920 . S
O1188 C1161 1.289 . S
C1189 O1181 1.258 . S
C1189 O1182 1.266 . S
Co1190 O1193 1.970 . S
Co1190 N1207 1.989 . S
Co1190 O1215 1.967 . S
Co1190 O1222 1.920 . S
Co1191 O1194 1.966 . S
Co1191 N1200 2.022 . S
Co1191 N1208 1.993 . S
Co1191 O1216 1.941 . S
C1192 O1193 1.258 . S
C1192 O1194 1.263 . S
O1193 Co1190 1.970 . S
O1193 C1192 1.258 . S
O1194 Co1191 1.966 . S
O1194 C1192 1.263 . S
C1195 O1196 1.235 . S
C1195 O1222 1.289 . S
O1196 C1195 1.235 . S
C1197 C1199 1.400 . S
C1197 N1200 1.351 . S
C1197 C1202 1.501 . S
C1198 C1199 1.387 . S
C1198 N1201 1.341 . S
C1199 C1197 1.400 . S
C1199 C1198 1.387 . S
N1200 Co1191 2.022 . S
N1200 C1197 1.351 . S
N1200 N1201 1.365 . S
N1201 C1198 1.341 . S
N1201 N1200 1.365 . S
N1201 H1221 0.862 . S
C1202 C1197 1.501 . S
C1202 H1203 0.961 . S
C1202 H1204 0.961 . S
C1202 H1205 0.960 . S
H1203 C1202 0.961 . S
H1204 C1202 0.961 . S
H1205 C1202 0.960 . S
C1206 N1207 1.342 . S
C1206 C1210 1.401 . S
C1206 C1211 1.499 . S
N1207 Co1190 1.989 . S
N1207 C1206 1.342 . S
N1207 N1208 1.388 . S
N1208 Co1191 1.993 . S
N1208 N1207 1.388 . S
N1208 C1209 1.346 . S
C1209 N1208 1.346 . S
C1209 C1210 1.396 . S
C1209 C1219 1.510 . S
C1210 C1206 1.401 . S
C1210 C1209 1.396 . S
C1211 C1206 1.499 . S
C1211 H1212 0.959 . S
C1211 H1213 0.960 . S
C1211 H1214 0.961 . S
H1212 C1211 0.959 . S
H1213 C1211 0.960 . S
H1214 C1211 0.961 . S
O1215 Co1190 1.967 . S
O1215 C1223 1.258 . S
O1216 Co1191 1.941 . S
O1216 C1223 1.266 . S
H1217 C1219 0.959 . S
H1218 C1219 0.961 . S
C1219 C1209 1.510 . S
C1219 H1217 0.959 . S
C1219 H1218 0.961 . S
C1219 H1220 0.960 . S
H1220 C1219 0.960 . S
H1221 N1201 0.862 . S
O1222 Co1190 1.920 . S
O1222 C1195 1.289 . S
C1223 O1215 1.258 . S
C1223 O1216 1.266 . S
Co1224 O1227 1.970 . S
Co1224 N1241 1.989 . S
Co1224 O1249 1.967 . S
Co1224 O1256 1.920 . S
Co1225 O1228 1.966 . S
Co1225 N1234 2.022 . S
Co1225 N1242 1.993 . S
Co1225 O1250 1.941 . S
C1226 O1227 1.258 . S
C1226 O1228 1.263 . S
O1227 Co1224 1.970 . S
O1227 C1226 1.258 . S
O1228 Co1225 1.966 . S
O1228 C1226 1.263 . S
C1229 O1230 1.235 . S
C1229 O1256 1.289 . S
O1230 C1229 1.235 . S
C1231 C1233 1.400 . S
C1231 N1234 1.351 . S
C1231 C1236 1.501 . S
C1232 C1233 1.387 . S
C1232 N1235 1.341 . S
C1233 C1231 1.400 . S
C1233 C1232 1.387 . S
N1234 Co1225 2.022 . S
N1234 C1231 1.351 . S
N1234 N1235 1.365 . S
N1235 C1232 1.341 . S
N1235 N1234 1.365 . S
N1235 H1255 0.862 . S
C1236 C1231 1.501 . S
C1236 H1237 0.961 . S
C1236 H1238 0.961 . S
C1236 H1239 0.960 . S
H1237 C1236 0.961 . S
H1238 C1236 0.961 . S
H1239 C1236 0.960 . S
C1240 N1241 1.342 . S
C1240 C1244 1.401 . S
C1240 C1245 1.499 . S
N1241 Co1224 1.989 . S
N1241 C1240 1.342 . S
N1241 N1242 1.388 . S
N1242 Co1225 1.993 . S
N1242 N1241 1.388 . S
N1242 C1243 1.346 . S
C1243 N1242 1.346 . S
C1243 C1244 1.396 . S
C1243 C1253 1.510 . S
C1244 C1240 1.401 . S
C1244 C1243 1.396 . S
C1245 C1240 1.499 . S
C1245 H1246 0.959 . S
C1245 H1247 0.960 . S
C1245 H1248 0.961 . S
H1246 C1245 0.959 . S
H1247 C1245 0.960 . S
H1248 C1245 0.961 . S
O1249 Co1224 1.967 . S
O1249 C1257 1.258 . S
O1250 Co1225 1.941 . S
O1250 C1257 1.266 . S
H1251 C1253 0.959 . S
H1252 C1253 0.961 . S
C1253 C1243 1.510 . S
C1253 H1251 0.959 . S
C1253 H1252 0.961 . S
C1253 H1254 0.960 . S
H1254 C1253 0.960 . S
H1255 N1235 0.862 . S
O1256 Co1224 1.920 . S
O1256 C1229 1.289 . S
C1257 O1249 1.258 . S
C1257 O1250 1.266 . S
Co1258 O1261 1.970 . S
Co1258 N1275 1.989 . S
Co1258 O1283 1.967 . S
Co1258 O1290 1.920 . S
Co1259 O1262 1.966 . S
Co1259 N1268 2.022 . S
Co1259 N1276 1.993 . S
Co1259 O1284 1.941 . S
C1260 O1261 1.258 . S
C1260 O1262 1.263 . S
O1261 Co1258 1.970 . S
O1261 C1260 1.258 . S
O1262 Co1259 1.966 . S
O1262 C1260 1.263 . S
C1263 O1264 1.235 . S
C1263 O1290 1.289 . S
O1264 C1263 1.235 . S
C1265 C1267 1.400 . S
C1265 N1268 1.351 . S
C1265 C1270 1.501 . S
C1266 C1267 1.387 . S
C1266 N1269 1.341 . S
C1267 C1265 1.400 . S
C1267 C1266 1.387 . S
N1268 Co1259 2.022 . S
N1268 C1265 1.351 . S
N1268 N1269 1.365 . S
N1269 C1266 1.341 . S
N1269 N1268 1.365 . S
N1269 H1289 0.862 . S
C1270 C1265 1.501 . S
C1270 H1271 0.961 . S
C1270 H1272 0.961 . S
C1270 H1273 0.960 . S
H1271 C1270 0.961 . S
H1272 C1270 0.961 . S
H1273 C1270 0.960 . S
C1274 N1275 1.342 . S
C1274 C1278 1.401 . S
C1274 C1279 1.499 . S
N1275 Co1258 1.989 . S
N1275 C1274 1.342 . S
N1275 N1276 1.388 . S
N1276 Co1259 1.993 . S
N1276 N1275 1.388 . S
N1276 C1277 1.346 . S
C1277 N1276 1.346 . S
C1277 C1278 1.396 . S
C1277 C1287 1.510 . S
C1278 C1274 1.401 . S
C1278 C1277 1.396 . S
C1279 C1274 1.499 . S
C1279 H1280 0.959 . S
C1279 H1281 0.960 . S
C1279 H1282 0.961 . S
H1280 C1279 0.959 . S
H1281 C1279 0.960 . S
H1282 C1279 0.961 . S
O1283 Co1258 1.967 . S
O1283 C1291 1.258 . S
O1284 Co1259 1.941 . S
O1284 C1291 1.266 . S
H1285 C1287 0.959 . S
H1286 C1287 0.961 . S
C1287 C1277 1.510 . S
C1287 H1285 0.959 . S
C1287 H1286 0.961 . S
C1287 H1288 0.960 . S
H1288 C1287 0.960 . S
H1289 N1269 0.862 . S
O1290 Co1258 1.920 . S
O1290 C1263 1.289 . S
C1291 O1283 1.258 . S
C1291 O1284 1.266 . S
Co1292 O1295 1.970 . S
Co1292 N1309 1.989 . S
Co1292 O1317 1.967 . S
Co1292 O1324 1.920 . S
Co1293 O1296 1.966 . S
Co1293 N1302 2.022 . S
Co1293 N1310 1.993 . S
Co1293 O1318 1.941 . S
C1294 O1295 1.258 . S
C1294 O1296 1.263 . S
O1295 Co1292 1.970 . S
O1295 C1294 1.258 . S
O1296 Co1293 1.966 . S
O1296 C1294 1.263 . S
C1297 O1298 1.235 . S
C1297 O1324 1.289 . S
O1298 C1297 1.235 . S
C1299 C1301 1.400 . S
C1299 N1302 1.351 . S
C1299 C1304 1.501 . S
C1300 C1301 1.387 . S
C1300 N1303 1.341 . S
C1301 C1299 1.400 . S
C1301 C1300 1.387 . S
N1302 Co1293 2.022 . S
N1302 C1299 1.351 . S
N1302 N1303 1.365 . S
N1303 C1300 1.341 . S
N1303 N1302 1.365 . S
N1303 H1323 0.862 . S
C1304 C1299 1.501 . S
C1304 H1305 0.961 . S
C1304 H1306 0.961 . S
C1304 H1307 0.960 . S
H1305 C1304 0.961 . S
H1306 C1304 0.961 . S
H1307 C1304 0.960 . S
C1308 N1309 1.342 . S
C1308 C1312 1.401 . S
C1308 C1313 1.499 . S
N1309 Co1292 1.989 . S
N1309 C1308 1.342 . S
N1309 N1310 1.388 . S
N1310 Co1293 1.993 . S
N1310 N1309 1.388 . S
N1310 C1311 1.346 . S
C1311 N1310 1.346 . S
C1311 C1312 1.396 . S
C1311 C1321 1.510 . S
C1312 C1308 1.401 . S
C1312 C1311 1.396 . S
C1313 C1308 1.499 . S
C1313 H1314 0.959 . S
C1313 H1315 0.960 . S
C1313 H1316 0.961 . S
H1314 C1313 0.959 . S
H1315 C1313 0.960 . S
H1316 C1313 0.961 . S
O1317 Co1292 1.967 . S
O1317 C1325 1.258 . S
O1318 Co1293 1.941 . S
O1318 C1325 1.266 . S
H1319 C1321 0.959 . S
H1320 C1321 0.961 . S
C1321 C1311 1.510 . S
C1321 H1319 0.959 . S
C1321 H1320 0.961 . S
C1321 H1322 0.960 . S
H1322 C1321 0.960 . S
H1323 N1303 0.862 . S
O1324 Co1292 1.920 . S
O1324 C1297 1.289 . S
C1325 O1317 1.258 . S
C1325 O1318 1.266 . S
Co1326 O1329 1.970 . S
Co1326 N1343 1.989 . S
Co1326 O1351 1.967 . S
Co1326 O1358 1.920 . S
Co1327 O1330 1.966 . S
Co1327 N1336 2.022 . S
Co1327 N1344 1.993 . S
Co1327 O1352 1.941 . S
C1328 O1329 1.258 . S
C1328 O1330 1.263 . S
O1329 Co1326 1.970 . S
O1329 C1328 1.258 . S
O1330 Co1327 1.966 . S
O1330 C1328 1.263 . S
C1331 O1332 1.235 . S
C1331 O1358 1.289 . S
O1332 C1331 1.235 . S
C1333 C1335 1.400 . S
C1333 N1336 1.351 . S
C1333 C1338 1.501 . S
C1334 C1335 1.387 . S
C1334 N1337 1.341 . S
C1335 C1333 1.400 . S
C1335 C1334 1.387 . S
N1336 Co1327 2.022 . S
N1336 C1333 1.351 . S
N1336 N1337 1.365 . S
N1337 C1334 1.341 . S
N1337 N1336 1.365 . S
N1337 H1357 0.862 . S
C1338 C1333 1.501 . S
C1338 H1339 0.961 . S
C1338 H1340 0.961 . S
C1338 H1341 0.960 . S
H1339 C1338 0.961 . S
H1340 C1338 0.961 . S
H1341 C1338 0.960 . S
C1342 N1343 1.342 . S
C1342 C1346 1.401 . S
C1342 C1347 1.499 . S
N1343 Co1326 1.989 . S
N1343 C1342 1.342 . S
N1343 N1344 1.388 . S
N1344 Co1327 1.993 . S
N1344 N1343 1.388 . S
N1344 C1345 1.346 . S
C1345 N1344 1.346 . S
C1345 C1346 1.396 . S
C1345 C1355 1.510 . S
C1346 C1342 1.401 . S
C1346 C1345 1.396 . S
C1347 C1342 1.499 . S
C1347 H1348 0.959 . S
C1347 H1349 0.960 . S
C1347 H1350 0.961 . S
H1348 C1347 0.959 . S
H1349 C1347 0.960 . S
H1350 C1347 0.961 . S
O1351 Co1326 1.967 . S
O1351 C1359 1.258 . S
O1352 Co1327 1.941 . S
O1352 C1359 1.266 . S
H1353 C1355 0.959 . S
H1354 C1355 0.961 . S
C1355 C1345 1.510 . S
C1355 H1353 0.959 . S
C1355 H1354 0.961 . S
C1355 H1356 0.960 . S
H1356 C1355 0.960 . S
H1357 N1337 0.862 . S
O1358 Co1326 1.920 . S
O1358 C1331 1.289 . S
C1359 O1351 1.258 . S
C1359 O1352 1.266 . S
Co1360 O1363 1.970 . S
Co1360 N1377 1.989 . S
Co1360 O1385 1.967 . S
Co1360 O1392 1.920 . S
Co1361 O1364 1.966 . S
Co1361 N1370 2.022 . S
Co1361 N1378 1.993 . S
Co1361 O1386 1.941 . S
C1362 O1363 1.258 . S
C1362 O1364 1.263 . S
O1363 Co1360 1.970 . S
O1363 C1362 1.258 . S
O1364 Co1361 1.966 . S
O1364 C1362 1.263 . S
C1365 O1366 1.235 . S
C1365 O1392 1.289 . S
O1366 C1365 1.235 . S
C1367 C1369 1.400 . S
C1367 N1370 1.351 . S
C1367 C1372 1.501 . S
C1368 C1369 1.387 . S
C1368 N1371 1.341 . S
C1369 C1367 1.400 . S
C1369 C1368 1.387 . S
N1370 Co1361 2.022 . S
N1370 C1367 1.351 . S
N1370 N1371 1.365 . S
N1371 C1368 1.341 . S
N1371 N1370 1.365 . S
N1371 H1391 0.862 . S
C1372 C1367 1.501 . S
C1372 H1373 0.961 . S
C1372 H1374 0.961 . S
C1372 H1375 0.960 . S
H1373 C1372 0.961 . S
H1374 C1372 0.961 . S
H1375 C1372 0.960 . S
C1376 N1377 1.342 . S
C1376 C1380 1.401 . S
C1376 C1381 1.499 . S
N1377 Co1360 1.989 . S
N1377 C1376 1.342 . S
N1377 N1378 1.388 . S
N1378 Co1361 1.993 . S
N1378 N1377 1.388 . S
N1378 C1379 1.346 . S
C1379 N1378 1.346 . S
C1379 C1380 1.396 . S
C1379 C1389 1.510 . S
C1380 C1376 1.401 . S
C1380 C1379 1.396 . S
C1381 C1376 1.499 . S
C1381 H1382 0.959 . S
C1381 H1383 0.960 . S
C1381 H1384 0.961 . S
H1382 C1381 0.959 . S
H1383 C1381 0.960 . S
H1384 C1381 0.961 . S
O1385 Co1360 1.967 . S
O1385 C1393 1.258 . S
O1386 Co1361 1.941 . S
O1386 C1393 1.266 . S
H1387 C1389 0.959 . S
H1388 C1389 0.961 . S
C1389 C1379 1.510 . S
C1389 H1387 0.959 . S
C1389 H1388 0.961 . S
C1389 H1390 0.960 . S
H1390 C1389 0.960 . S
H1391 N1371 0.862 . S
O1392 Co1360 1.920 . S
O1392 C1365 1.289 . S
C1393 O1385 1.258 . S
C1393 O1386 1.266 . S
Co1394 O1397 1.970 . S
Co1394 N1411 1.989 . S
Co1394 O1419 1.967 . S
Co1394 O1426 1.920 . S
Co1395 O1398 1.966 . S
Co1395 N1404 2.022 . S
Co1395 N1412 1.993 . S
Co1395 O1420 1.941 . S
C1396 O1397 1.258 . S
C1396 O1398 1.263 . S
O1397 Co1394 1.970 . S
O1397 C1396 1.258 . S
O1398 Co1395 1.966 . S
O1398 C1396 1.263 . S
C1399 O1400 1.235 . S
C1399 O1426 1.289 . S
O1400 C1399 1.235 . S
C1401 C1403 1.400 . S
C1401 N1404 1.351 . S
C1401 C1406 1.501 . S
C1402 C1403 1.387 . S
C1402 N1405 1.341 . S
C1403 C1401 1.400 . S
C1403 C1402 1.387 . S
N1404 Co1395 2.022 . S
N1404 C1401 1.351 . S
N1404 N1405 1.365 . S
N1405 C1402 1.341 . S
N1405 N1404 1.365 . S
N1405 H1425 0.862 . S
C1406 C1401 1.501 . S
C1406 H1407 0.961 . S
C1406 H1408 0.961 . S
C1406 H1409 0.960 . S
H1407 C1406 0.961 . S
H1408 C1406 0.961 . S
H1409 C1406 0.960 . S
C1410 N1411 1.342 . S
C1410 C1414 1.401 . S
C1410 C1415 1.499 . S
N1411 Co1394 1.989 . S
N1411 C1410 1.342 . S
N1411 N1412 1.388 . S
N1412 Co1395 1.993 . S
N1412 N1411 1.388 . S
N1412 C1413 1.346 . S
C1413 N1412 1.346 . S
C1413 C1414 1.396 . S
C1413 C1423 1.510 . S
C1414 C1410 1.401 . S
C1414 C1413 1.396 . S
C1415 C1410 1.499 . S
C1415 H1416 0.959 . S
C1415 H1417 0.960 . S
C1415 H1418 0.961 . S
H1416 C1415 0.959 . S
H1417 C1415 0.960 . S
H1418 C1415 0.961 . S
O1419 Co1394 1.967 . S
O1419 C1427 1.258 . S
O1420 Co1395 1.941 . S
O1420 C1427 1.266 . S
H1421 C1423 0.959 . S
H1422 C1423 0.961 . S
C1423 C1413 1.510 . S
C1423 H1421 0.959 . S
C1423 H1422 0.961 . S
C1423 H1424 0.960 . S
H1424 C1423 0.960 . S
H1425 N1405 0.862 . S
O1426 Co1394 1.920 . S
O1426 C1399 1.289 . S
C1427 O1419 1.258 . S
C1427 O1420 1.266 . S
Co1428 O1431 1.970 . S
Co1428 N1445 1.989 . S
Co1428 O1453 1.967 . S
Co1428 O1460 1.920 . S
Co1429 O1432 1.966 . S
Co1429 N1438 2.022 . S
Co1429 N1446 1.993 . S
Co1429 O1454 1.941 . S
C1430 O1431 1.258 . S
C1430 O1432 1.263 . S
O1431 Co1428 1.970 . S
O1431 C1430 1.258 . S
O1432 Co1429 1.966 . S
O1432 C1430 1.263 . S
C1433 O1434 1.235 . S
C1433 O1460 1.289 . S
O1434 C1433 1.235 . S
C1435 C1437 1.400 . S
C1435 N1438 1.351 . S
C1435 C1440 1.501 . S
C1436 C1437 1.387 . S
C1436 N1439 1.341 . S
C1437 C1435 1.400 . S
C1437 C1436 1.387 . S
N1438 Co1429 2.022 . S
N1438 C1435 1.351 . S
N1438 N1439 1.365 . S
N1439 C1436 1.341 . S
N1439 N1438 1.365 . S
N1439 H1459 0.862 . S
C1440 C1435 1.501 . S
C1440 H1441 0.961 . S
C1440 H1442 0.961 . S
C1440 H1443 0.960 . S
H1441 C1440 0.961 . S
H1442 C1440 0.961 . S
H1443 C1440 0.960 . S
C1444 N1445 1.342 . S
C1444 C1448 1.401 . S
C1444 C1449 1.499 . S
N1445 Co1428 1.989 . S
N1445 C1444 1.342 . S
N1445 N1446 1.388 . S
N1446 Co1429 1.993 . S
N1446 N1445 1.388 . S
N1446 C1447 1.346 . S
C1447 N1446 1.346 . S
C1447 C1448 1.396 . S
C1447 C1457 1.510 . S
C1448 C1444 1.401 . S
C1448 C1447 1.396 . S
C1449 C1444 1.499 . S
C1449 H1450 0.959 . S
C1449 H1451 0.960 . S
C1449 H1452 0.961 . S
H1450 C1449 0.959 . S
H1451 C1449 0.960 . S
H1452 C1449 0.961 . S
O1453 Co1428 1.967 . S
O1453 C1461 1.258 . S
O1454 Co1429 1.941 . S
O1454 C1461 1.266 . S
H1455 C1457 0.959 . S
H1456 C1457 0.961 . S
C1457 C1447 1.510 . S
C1457 H1455 0.959 . S
C1457 H1456 0.961 . S
C1457 H1458 0.960 . S
H1458 C1457 0.960 . S
H1459 N1439 0.862 . S
O1460 Co1428 1.920 . S
O1460 C1433 1.289 . S
C1461 O1453 1.258 . S
C1461 O1454 1.266 . S
Co1462 O1465 1.970 . S
Co1462 N1479 1.989 . S
Co1462 O1487 1.967 . S
Co1462 O1494 1.920 . S
Co1463 O1466 1.966 . S
Co1463 N1472 2.022 . S
Co1463 N1480 1.993 . S
Co1463 O1488 1.941 . S
C1464 O1465 1.258 . S
C1464 O1466 1.263 . S
O1465 Co1462 1.970 . S
O1465 C1464 1.258 . S
O1466 Co1463 1.966 . S
O1466 C1464 1.263 . S
C1467 O1468 1.235 . S
C1467 O1494 1.289 . S
O1468 C1467 1.235 . S
C1469 C1471 1.400 . S
C1469 N1472 1.351 . S
C1469 C1474 1.501 . S
C1470 C1471 1.387 . S
C1470 N1473 1.341 . S
C1471 C1469 1.400 . S
C1471 C1470 1.387 . S
N1472 Co1463 2.022 . S
N1472 C1469 1.351 . S
N1472 N1473 1.365 . S
N1473 C1470 1.341 . S
N1473 N1472 1.365 . S
N1473 H1493 0.862 . S
C1474 C1469 1.501 . S
C1474 H1475 0.961 . S
C1474 H1476 0.961 . S
C1474 H1477 0.960 . S
H1475 C1474 0.961 . S
H1476 C1474 0.961 . S
H1477 C1474 0.960 . S
C1478 N1479 1.342 . S
C1478 C1482 1.401 . S
C1478 C1483 1.499 . S
N1479 Co1462 1.989 . S
N1479 C1478 1.342 . S
N1479 N1480 1.388 . S
N1480 Co1463 1.993 . S
N1480 N1479 1.388 . S
N1480 C1481 1.346 . S
C1481 N1480 1.346 . S
C1481 C1482 1.396 . S
C1481 C1491 1.510 . S
C1482 C1478 1.401 . S
C1482 C1481 1.396 . S
C1483 C1478 1.499 . S
C1483 H1484 0.959 . S
C1483 H1485 0.960 . S
C1483 H1486 0.961 . S
H1484 C1483 0.959 . S
H1485 C1483 0.960 . S
H1486 C1483 0.961 . S
O1487 Co1462 1.967 . S
O1487 C1495 1.258 . S
O1488 Co1463 1.941 . S
O1488 C1495 1.266 . S
H1489 C1491 0.959 . S
H1490 C1491 0.961 . S
C1491 C1481 1.510 . S
C1491 H1489 0.959 . S
C1491 H1490 0.961 . S
C1491 H1492 0.960 . S
H1492 C1491 0.960 . S
H1493 N1473 0.862 . S
O1494 Co1462 1.920 . S
O1494 C1467 1.289 . S
C1495 O1487 1.258 . S
C1495 O1488 1.266 . S
Co1496 O1499 1.970 . S
Co1496 N1513 1.989 . S
Co1496 O1521 1.967 . S
Co1496 O1528 1.920 . S
Co1497 O1500 1.966 . S
Co1497 N1506 2.022 . S
Co1497 N1514 1.993 . S
Co1497 O1522 1.941 . S
C1498 O1499 1.258 . S
C1498 O1500 1.263 . S
O1499 Co1496 1.970 . S
O1499 C1498 1.258 . S
O1500 Co1497 1.966 . S
O1500 C1498 1.263 . S
C1501 O1502 1.235 . S
C1501 O1528 1.289 . S
O1502 C1501 1.235 . S
C1503 C1505 1.400 . S
C1503 N1506 1.351 . S
C1503 C1508 1.501 . S
C1504 C1505 1.387 . S
C1504 N1507 1.341 . S
C1505 C1503 1.400 . S
C1505 C1504 1.387 . S
N1506 Co1497 2.022 . S
N1506 C1503 1.351 . S
N1506 N1507 1.365 . S
N1507 C1504 1.341 . S
N1507 N1506 1.365 . S
N1507 H1527 0.862 . S
C1508 C1503 1.501 . S
C1508 H1509 0.961 . S
C1508 H1510 0.961 . S
C1508 H1511 0.960 . S
H1509 C1508 0.961 . S
H1510 C1508 0.961 . S
H1511 C1508 0.960 . S
C1512 N1513 1.342 . S
C1512 C1516 1.401 . S
C1512 C1517 1.499 . S
N1513 Co1496 1.989 . S
N1513 C1512 1.342 . S
N1513 N1514 1.388 . S
N1514 Co1497 1.993 . S
N1514 N1513 1.388 . S
N1514 C1515 1.346 . S
C1515 N1514 1.346 . S
C1515 C1516 1.396 . S
C1515 C1525 1.510 . S
C1516 C1512 1.401 . S
C1516 C1515 1.396 . S
C1517 C1512 1.499 . S
C1517 H1518 0.959 . S
C1517 H1519 0.960 . S
C1517 H1520 0.961 . S
H1518 C1517 0.959 . S
H1519 C1517 0.960 . S
H1520 C1517 0.961 . S
O1521 Co1496 1.967 . S
O1521 C1529 1.258 . S
O1522 Co1497 1.941 . S
O1522 C1529 1.266 . S
H1523 C1525 0.959 . S
H1524 C1525 0.961 . S
C1525 C1515 1.510 . S
C1525 H1523 0.959 . S
C1525 H1524 0.961 . S
C1525 H1526 0.960 . S
H1526 C1525 0.960 . S
H1527 N1507 0.862 . S
O1528 Co1496 1.920 . S
O1528 C1501 1.289 . S
C1529 O1521 1.258 . S
C1529 O1522 1.266 . S
Co1530 O1533 1.970 . S
Co1530 N1547 1.989 . S
Co1530 O1555 1.967 . S
Co1530 O1562 1.920 . S
Co1531 O1534 1.966 . S
Co1531 N1540 2.022 . S
Co1531 N1548 1.993 . S
Co1531 O1556 1.941 . S
C1532 O1533 1.258 . S
C1532 O1534 1.263 . S
O1533 Co1530 1.970 . S
O1533 C1532 1.258 . S
O1534 Co1531 1.966 . S
O1534 C1532 1.263 . S
C1535 O1536 1.235 . S
C1535 O1562 1.289 . S
O1536 C1535 1.235 . S
C1537 C1539 1.400 . S
C1537 N1540 1.351 . S
C1537 C1542 1.501 . S
C1538 C1539 1.387 . S
C1538 N1541 1.341 . S
C1539 C1537 1.400 . S
C1539 C1538 1.387 . S
N1540 Co1531 2.022 . S
N1540 C1537 1.351 . S
N1540 N1541 1.365 . S
N1541 C1538 1.341 . S
N1541 N1540 1.365 . S
N1541 H1561 0.862 . S
C1542 C1537 1.501 . S
C1542 H1543 0.961 . S
C1542 H1544 0.961 . S
C1542 H1545 0.960 . S
H1543 C1542 0.961 . S
H1544 C1542 0.961 . S
H1545 C1542 0.960 . S
C1546 N1547 1.342 . S
C1546 C1550 1.401 . S
C1546 C1551 1.499 . S
N1547 Co1530 1.989 . S
N1547 C1546 1.342 . S
N1547 N1548 1.388 . S
N1548 Co1531 1.993 . S
N1548 N1547 1.388 . S
N1548 C1549 1.346 . S
C1549 N1548 1.346 . S
C1549 C1550 1.396 . S
C1549 C1559 1.510 . S
C1550 C1546 1.401 . S
C1550 C1549 1.396 . S
C1551 C1546 1.499 . S
C1551 H1552 0.959 . S
C1551 H1553 0.960 . S
C1551 H1554 0.961 . S
H1552 C1551 0.959 . S
H1553 C1551 0.960 . S
H1554 C1551 0.961 . S
O1555 Co1530 1.967 . S
O1555 C1563 1.258 . S
O1556 Co1531 1.941 . S
O1556 C1563 1.266 . S
H1557 C1559 0.959 . S
H1558 C1559 0.961 . S
C1559 C1549 1.510 . S
C1559 H1557 0.959 . S
C1559 H1558 0.961 . S
C1559 H1560 0.960 . S
H1560 C1559 0.960 . S
H1561 N1541 0.862 . S
O1562 Co1530 1.920 . S
O1562 C1535 1.289 . S
C1563 O1555 1.258 . S
C1563 O1556 1.266 . S
Co1564 O1567 1.970 . S
Co1564 N1581 1.989 . S
Co1564 O1589 1.967 . S
Co1564 O1596 1.920 . S
Co1565 O1568 1.966 . S
Co1565 N1574 2.022 . S
Co1565 N1582 1.993 . S
Co1565 O1590 1.941 . S
C1566 O1567 1.258 . S
C1566 O1568 1.263 . S
O1567 Co1564 1.970 . S
O1567 C1566 1.258 . S
O1568 Co1565 1.966 . S
O1568 C1566 1.263 . S
C1569 O1570 1.235 . S
C1569 O1596 1.289 . S
O1570 C1569 1.235 . S
C1571 C1573 1.400 . S
C1571 N1574 1.351 . S
C1571 C1576 1.501 . S
C1572 C1573 1.387 . S
C1572 N1575 1.341 . S
C1573 C1571 1.400 . S
C1573 C1572 1.387 . S
N1574 Co1565 2.022 . S
N1574 C1571 1.351 . S
N1574 N1575 1.365 . S
N1575 C1572 1.341 . S
N1575 N1574 1.365 . S
N1575 H1595 0.862 . S
C1576 C1571 1.501 . S
C1576 H1577 0.961 . S
C1576 H1578 0.961 . S
C1576 H1579 0.960 . S
H1577 C1576 0.961 . S
H1578 C1576 0.961 . S
H1579 C1576 0.960 . S
C1580 N1581 1.342 . S
C1580 C1584 1.401 . S
C1580 C1585 1.499 . S
N1581 Co1564 1.989 . S
N1581 C1580 1.342 . S
N1581 N1582 1.388 . S
N1582 Co1565 1.993 . S
N1582 N1581 1.388 . S
N1582 C1583 1.346 . S
C1583 N1582 1.346 . S
C1583 C1584 1.396 . S
C1583 C1593 1.510 . S
C1584 C1580 1.401 . S
C1584 C1583 1.396 . S
C1585 C1580 1.499 . S
C1585 H1586 0.959 . S
C1585 H1587 0.960 . S
C1585 H1588 0.961 . S
H1586 C1585 0.959 . S
H1587 C1585 0.960 . S
H1588 C1585 0.961 . S
O1589 Co1564 1.967 . S
O1589 C1597 1.258 . S
O1590 Co1565 1.941 . S
O1590 C1597 1.266 . S
H1591 C1593 0.959 . S
H1592 C1593 0.961 . S
C1593 C1583 1.510 . S
C1593 H1591 0.959 . S
C1593 H1592 0.961 . S
C1593 H1594 0.960 . S
H1594 C1593 0.960 . S
H1595 N1575 0.862 . S
O1596 Co1564 1.920 . S
O1596 C1569 1.289 . S
C1597 O1589 1.258 . S
C1597 O1590 1.266 . S
Co1598 O1601 1.970 . S
Co1598 N1615 1.989 . S
Co1598 O1623 1.967 . S
Co1598 O1630 1.920 . S
Co1599 O1602 1.966 . S
Co1599 N1608 2.022 . S
Co1599 N1616 1.993 . S
Co1599 O1624 1.941 . S
C1600 O1601 1.258 . S
C1600 O1602 1.263 . S
O1601 Co1598 1.970 . S
O1601 C1600 1.258 . S
O1602 Co1599 1.966 . S
O1602 C1600 1.263 . S
C1603 O1604 1.235 . S
C1603 O1630 1.289 . S
O1604 C1603 1.235 . S
C1605 C1607 1.400 . S
C1605 N1608 1.351 . S
C1605 C1610 1.501 . S
C1606 C1607 1.387 . S
C1606 N1609 1.341 . S
C1607 C1605 1.400 . S
C1607 C1606 1.387 . S
N1608 Co1599 2.022 . S
N1608 C1605 1.351 . S
N1608 N1609 1.365 . S
N1609 C1606 1.341 . S
N1609 N1608 1.365 . S
N1609 H1629 0.862 . S
C1610 C1605 1.501 . S
C1610 H1611 0.961 . S
C1610 H1612 0.961 . S
C1610 H1613 0.960 . S
H1611 C1610 0.961 . S
H1612 C1610 0.961 . S
H1613 C1610 0.960 . S
C1614 N1615 1.342 . S
C1614 C1618 1.401 . S
C1614 C1619 1.499 . S
N1615 Co1598 1.989 . S
N1615 C1614 1.342 . S
N1615 N1616 1.388 . S
N1616 Co1599 1.993 . S
N1616 N1615 1.388 . S
N1616 C1617 1.346 . S
C1617 N1616 1.346 . S
C1617 C1618 1.396 . S
C1617 C1627 1.510 . S
C1618 C1614 1.401 . S
C1618 C1617 1.396 . S
C1619 C1614 1.499 . S
C1619 H1620 0.959 . S
C1619 H1621 0.960 . S
C1619 H1622 0.961 . S
H1620 C1619 0.959 . S
H1621 C1619 0.960 . S
H1622 C1619 0.961 . S
O1623 Co1598 1.967 . S
O1623 C1631 1.258 . S
O1624 Co1599 1.941 . S
O1624 C1631 1.266 . S
H1625 C1627 0.959 . S
H1626 C1627 0.961 . S
C1627 C1617 1.510 . S
C1627 H1625 0.959 . S
C1627 H1626 0.961 . S
C1627 H1628 0.960 . S
H1628 C1627 0.960 . S
H1629 N1609 0.862 . S
O1630 Co1598 1.920 . S
O1630 C1603 1.289 . S
C1631 O1623 1.258 . S
C1631 O1624 1.266 . S
C621 C20 1.763 . S
C54 C655 1.763 . S
C88 C689 1.763 . S
C587 C122 1.763 . S
C757 C156 1.763 . S
C190 C553 1.763 . S
C791 C224 1.763 . S
C723 C258 1.763 . S
C292 C315 1.763 . S
C349 C326 1.763 . S
C383 C360 1.763 . S
C394 C281 1.763 . S
C519 C428 1.763 . S
C462 C417 1.763 . S
C451 C496 1.763 . S
C485 C530 1.763 . S
C564 C111 1.763 . S
C179 C598 1.763 . S
C632 C213 1.763 . S
C247 C666 1.763 . S
C145 C700 1.763 . S
C734 C43 1.763 . S
C768 C77 1.763 . S
C9 C802 1.763 . S
C836 C1437 1.763 . S
C1471 C870 1.763 . S
C1505 C904 1.763 . S
C938 C1403 1.763 . S
C1573 C972 1.763 . S
C1006 C1369 1.763 . S
C1607 C1040 1.763 . S
C1539 C1074 1.763 . S
C1131 C1108 1.763 . S
C1142 C1165 1.763 . S
C1199 C1176 1.763 . S
C1210 C1097 1.763 . S
C1244 C1335 1.763 . S
C1233 C1278 1.763 . S
C1312 C1267 1.763 . S
C1301 C1346 1.763 . S
C927 C1380 1.763 . S
C1414 C995 1.763 . S
C1448 C1029 1.763 . S
C1063 C1482 1.763 . S
C961 C1516 1.763 . S
C859 C1550 1.763 . S
C1584 C893 1.763 . S
C825 C1618 1.763 . S
C1087 C33 2.684 . S
C985 C67 2.684 . S
C101 C1019 2.684 . S
C1053 C135 2.684 . S
C169 C883 2.684 . S
C917 C203 2.684 . S
C951 C237 2.684 . S
C271 C849 2.684 . S
C305 C1529 2.684 . S
C1427 C339 2.684 . S
C1461 C373 2.684 . S
C1495 C407 2.684 . S
C1631 C441 2.684 . S
C475 C1563 2.684 . S
C509 C1597 2.684 . S
C1393 C543 2.684 . S
C1359 C577 2.684 . S
C611 C1155 2.684 . S
C1189 C645 2.684 . S
C1223 C679 2.684 . S
C713 C1121 2.684 . S
C747 C1291 2.684 . S
C1325 C781 2.684 . S
C815 C1257 2.684 . S
C277 C2 1.883 . S
C311 C36 1.883 . S
C70 C345 1.883 . S
C104 C379 1.883 . S
C138 C413 1.883 . S
C447 C172 1.883 . S
C481 C206 1.883 . S
C240 C515 1.883 . S
C549 C274 1.883 . S
C787 C308 1.883 . S
C719 C342 1.883 . S
C376 C753 1.883 . S
C410 C583 1.883 . S
C444 C617 1.883 . S
C478 C651 1.883 . S
C512 C685 1.883 . S
C5 C546 1.883 . S
C580 C141 1.883 . S
C175 C614 1.883 . S
C648 C209 1.883 . S
C243 C682 1.883 . S
C73 C716 1.883 . S
C750 C107 1.883 . S
C39 C784 1.883 . S
C818 C1093 1.883 . S
C1127 C852 1.883 . S
C886 C1161 1.883 . S
C920 C1195 1.883 . S
C954 C1229 1.883 . S
C988 C1263 1.883 . S
C1022 C1297 1.883 . S
C1056 C1331 1.883 . S
C1090 C1365 1.883 . S
C1124 C1603 1.883 . S
C1158 C1535 1.883 . S
C1569 C1192 1.883 . S
C1399 C1226 1.883 . S
C1260 C1433 1.883 . S
C1467 C1294 1.883 . S
C1328 C1501 1.883 . S
C1362 C821 1.883 . S
C957 C1396 1.883 . S
C991 C1430 1.883 . S
C1025 C1464 1.883 . S
C1059 C1498 1.883 . S
C889 C1532 1.883 . S
C923 C1566 1.883 . S
C855 C1600 1.883 . S
