# Generated by pormake.
# Topology snk, (6)-cn, num edge types: 1
# Building blocks:
#     Node 0, Type 0, BuildingBlock: BETDIP_clean_sbu_0, # of connection points: 6
#     Node 1, Type 0, BuildingBlock: BETDIP_clean_sbu_0, # of connection points: 6
#     Node 2, Type 0, BuildingBlock: BETDIP_clean_sbu_0, # of connection points: 6
#     Node 3, Type 0, BuildingBlock: BETDIP_clean_sbu_0, # of connection points: 6
#     Node 4, Type 0, BuildingBlock: BETDIP_clean_sbu_0, # of connection points: 6
#     Node 5, Type 0, BuildingBlock: BETDIP_clean_sbu_0, # of connection points: 6
#     Node 6, Type 0, BuildingBlock: BETDIP_clean_sbu_0, # of connection points: 6
#     Node 7, Type 0, BuildingBlock: BETDIP_clean_sbu_0, # of connection points: 6
#     Edge 8, Type (0, 0), BuildingBlock: XUDNAN_clean_linker_2, # of connection points: 2
#     Edge 9, Type (0, 0), BuildingBlock: XUDNAN_clean_linker_2, # of connection points: 2
#     Edge 10, Type (0, 0), BuildingBlock: XUDNAN_clean_linker_2, # of connection points: 2
#     Edge 11, Type (0, 0), BuildingBlock: XUDNAN_clean_linker_2, # of connection points: 2
#     Edge 12, Type (0, 0), BuildingBlock: XUDNAN_clean_linker_2, # of connection points: 2
#     Edge 13, Type (0, 0), BuildingBlock: XUDNAN_clean_linker_2, # of connection points: 2
#     Edge 14, Type (0, 0), BuildingBlock: XUDNAN_clean_linker_2, # of connection points: 2
#     Edge 15, Type (0, 0), BuildingBlock: XUDNAN_clean_linker_2, # of connection points: 2
#     Edge 16, Type (0, 0), BuildingBlock: XUDNAN_clean_linker_2, # of connection points: 2
#     Edge 17, Type (0, 0), BuildingBlock: XUDNAN_clean_linker_2, # of connection points: 2
#     Edge 18, Type (0, 0), BuildingBlock: XUDNAN_clean_linker_2, # of connection points: 2
#     Edge 19, Type (0, 0), BuildingBlock: XUDNAN_clean_linker_2, # of connection points: 2
#     Edge 20, Type (0, 0), BuildingBlock: XUDNAN_clean_linker_2, # of connection points: 2
#     Edge 21, Type (0, 0), BuildingBlock: XUDNAN_clean_linker_2, # of connection points: 2
#     Edge 22, Type (0, 0), BuildingBlock: XUDNAN_clean_linker_2, # of connection points: 2
#     Edge 23, Type (0, 0), BuildingBlock: XUDNAN_clean_linker_2, # of connection points: 2
#     Edge 24, Type (0, 0), BuildingBlock: XUDNAN_clean_linker_2, # of connection points: 2
#     Edge 25, Type (0, 0), BuildingBlock: XUDNAN_clean_linker_2, # of connection points: 2
#     Edge 26, Type (0, 0), BuildingBlock: XUDNAN_clean_linker_2, # of connection points: 2
#     Edge 27, Type (0, 0), BuildingBlock: XUDNAN_clean_linker_2, # of connection points: 2
#     Edge 28, Type (0, 0), BuildingBlock: XUDNAN_clean_linker_2, # of connection points: 2
#     Edge 29, Type (0, 0), BuildingBlock: XUDNAN_clean_linker_2, # of connection points: 2
#     Edge 30, Type (0, 0), BuildingBlock: XUDNAN_clean_linker_2, # of connection points: 2
#     Edge 31, Type (0, 0), BuildingBlock: XUDNAN_clean_linker_2, # of connection points: 2
# Relax obj value: 0.093
# Max RMSD: 0.160
# Mean RMSD: 0.131
data_MOF--net-snk--node1-BETDIP_clean_sbu_0--edge1-XUDNAN_clean_linker_2
_symmetry_space_group_name_H-M    P1
_symmetry_Int_Tables_number       1
_symmetry_cell_setting            triclinic
loop_
_symmetry_equiv_pos_as_xyz
'x, y, z'
_cell_length_a     37.152828
_cell_length_b     37.541292
_cell_length_c     25.22618
_cell_angle_alpha  96.656636
_cell_angle_beta   96.262244
_cell_angle_gamma 91.027238
loop_
_atom_site_label
_atom_site_type_symbol
_atom_site_fract_x
_atom_site_fract_y
_atom_site_fract_z
_atom_type_partial_charge
Tb0 Tb 1.00477 0.98482 0.45374 0.0
Tb1 Tb 0.02026 0.02919 0.56372 0.0
C2 C 0.98792 0.96505 0.35506 0.0
C3 C 0.98708 0.98001 0.30286 0.0
C4 C 0.95373 0.98335 0.27208 0.0
C5 C 0.95237 0.99439 0.22074 0.0
C6 C 0.9844 1.00218 0.19861 0.0
C7 C 0.0178 0.99952 0.22989 0.0
C8 C 0.01914 0.98863 0.28139 0.0
C9 C 0.05284 0.95798 0.52124 0.0
C10 C 0.06246 0.05149 0.47289 0.0
C11 C 0.03539 0.05068 0.66246 0.0
C12 C 0.02545 0.04272 0.71531 0.0
C13 C 0.05269 0.04288 0.75854 0.0
C14 C 0.0439 0.03867 0.81014 0.0
C15 C 1.00756 0.03442 0.81978 0.0
C16 C 0.98037 0.03313 0.77597 0.0
C17 C 0.9892 0.03713 0.72428 0.0
C18 C 0.97405 0.05647 0.49395 0.0
C19 C 0.9685 0.95847 0.54922 0.0
O20 O 0.96447 0.97705 0.3876 0.0
O21 O 0.01975 0.96044 0.38078 0.0
O22 O 0.04884 0.99081 0.51647 0.0
O23 O 0.03149 0.93881 0.48423 0.0
O24 O 0.03847 0.0314 0.4384 0.0
O25 O 0.06345 0.0509 0.52537 0.0
O26 O 0.05375 0.02658 0.63604 0.0
O27 O 1.01061 0.06465 0.63085 0.0
O28 O 0.9768 0.0237 0.49987 0.0
O29 O 0.99522 0.07555 0.53117 0.0
O30 O 0.98798 0.984 0.58072 0.0
O31 O 0.96738 0.95527 0.49608 0.0
H32 H 0.9286 0.97667 0.28729 0.0
H33 H 0.92617 0.99577 0.19774 0.0
H34 H 0.04297 1.00583 0.21454 0.0
H35 H 0.04537 0.98644 0.30394 0.0
H36 H 0.08082 0.04718 0.75265 0.0
H37 H 0.06552 0.04007 0.84286 0.0
H38 H 0.95215 0.02933 0.78173 0.0
H39 H 0.96762 0.03656 0.69163 0.0
Tb40 Tb 0.28004 0.75057 0.71856 0.0
Tb41 Tb 0.24934 0.77633 0.82332 0.0
C42 C 0.28995 0.72751 0.62382 0.0
C43 C 0.27627 0.73178 0.5677 0.0
C44 C 0.24272 0.71647 0.54368 0.0
C45 C 0.23221 0.71751 0.4889 0.0
C46 C 0.25498 0.73386 0.45714 0.0
C47 C 0.28803 0.74997 0.4816 0.0
C48 C 0.29859 0.74879 0.53618 0.0
C49 C 0.31945 0.79842 0.78548 0.0
C50 C 0.22394 0.81364 0.72363 0.0
C51 C 0.24121 0.80012 0.91848 0.0
C52 C 0.23987 0.78645 0.97088 0.0
C53 C 0.26675 0.79785 1.01328 0.0
C54 C 0.26532 0.78661 0.06392 0.0
C55 C 0.23675 0.76394 0.07345 0.0
C56 C 0.20999 0.75231 0.03078 0.0
C57 C 0.21153 0.76342 0.98003 0.0
C58 C 0.2105 0.72683 0.75833 0.0
C59 C 0.30577 0.71202 0.81828 0.0
O60 O 0.26838 0.7116 0.65217 0.0
O61 O 0.30823 0.75483 0.65187 0.0
O62 O 0.28569 0.79735 0.77511 0.0
O63 O 0.33319 0.77281 0.75578 0.0
O64 O 0.23524 0.78529 0.69415 0.0
O65 O 0.23296 0.81925 0.77617 0.0
O66 O 0.27263 0.79915 0.89942 0.0
O67 O 0.21423 0.791 0.88112 0.0
O68 O 0.2442 0.72945 0.76751 0.0
O69 O 0.19638 0.75092 0.79011 0.0
O70 O 0.28964 0.73703 0.84834 0.0
O71 O 0.30214 0.70948 0.7652 0.0
H72 H 0.22492 0.70299 0.56677 0.0
H73 H 0.20644 0.70515 0.47127 0.0
H74 H 0.30643 0.7623 0.45812 0.0
H75 H 0.3248 0.76036 0.55343 0.0
H76 H 0.28882 0.8157 1.00733 0.0
H77 H 0.28671 0.79563 0.09556 0.0
H78 H 0.18737 0.73522 0.03684 0.0
H79 H 0.19026 0.75428 0.94825 0.0
Tb80 Tb 0.53298 1.00314 0.08217 0.0
Tb81 Tb 0.50197 0.00891 0.96462 0.0
C82 C 0.56017 0.01426 0.179 0.0
C83 C 0.54846 0.00889 0.2314 0.0
C84 C 0.56887 0.02452 0.27862 0.0
C85 C 0.55923 0.01802 0.32882 0.0
C86 C 0.52904 0.99564 0.33259 0.0
C87 C 0.50821 0.98066 0.28498 0.0
C88 C 0.5178 0.98729 0.23483 0.0
C89 C 0.48615 0.95225 0.03667 0.0
C90 C 0.46426 0.05091 0.05994 0.0
C91 C 0.46513 1.00294 0.87453 0.0
C92 C 0.47209 0.99664 0.81781 0.0
C93 C 0.44773 0.97485 0.78099 0.0
C94 C 0.45333 0.96901 0.72678 0.0
C95 C 0.4834 0.98498 0.70827 0.0
C96 C 0.50796 1.0066 0.74542 0.0
C97 C 0.50246 0.01225 0.79973 0.0
C98 C 0.56213 0.04682 0.99785 0.0
C99 C 0.56942 0.96306 0.98861 0.0
O100 O 0.54331 0.03854 0.15349 0.0
O101 O 0.56455 0.98505 0.1471 0.0
O102 O 0.4862 0.98464 0.0304 0.0
O103 O 0.51072 0.94749 0.07538 0.0
O104 O 0.48657 0.03676 0.09614 0.0
O105 O 0.4656 0.04357 1.00749 0.0
O106 O 0.47097 0.97591 0.90276 0.0
O107 O 0.47684 0.03387 0.90113 0.0
O108 O 0.53714 0.04001 0.02509 0.0
O109 O 0.55217 0.03548 0.94778 0.0
O110 O 0.53811 0.96395 0.95826 0.0
O111 O 0.57605 0.98284 0.03581 0.0
H112 H 0.59263 0.04127 0.27664 0.0
H113 H 0.57603 0.02971 0.36462 0.0
H114 H 0.4845 0.96375 0.28648 0.0
H115 H 0.50159 0.97517 0.1987 0.0
H116 H 0.42419 0.96251 0.79415 0.0
H117 H 0.43374 0.95248 0.69916 0.0
H118 H 0.53164 0.01888 0.73258 0.0
H119 H 0.52186 0.0289 0.8275 0.0
Tb120 Tb 0.28512 0.27045 0.31412 0.0
Tb121 Tb 0.2363 0.24856 0.20727 0.0
C122 C 0.308 0.28627 0.41236 0.0
C123 C 0.29579 0.28546 0.46692 0.0
C124 C 0.28802 0.31751 0.49763 0.0
C125 C 0.28162 0.31785 0.55155 0.0
C126 C 0.28302 0.28615 0.57673 0.0
C127 C 0.28919 0.2538 0.54526 0.0
C128 C 0.29562 0.25347 0.49127 0.0
C129 C 0.31366 0.2262 0.24324 0.0
C130 C 0.22055 0.21025 0.30481 0.0
C131 C 0.2151 0.23256 0.1085 0.0
C132 C 0.22689 0.24121 0.05644 0.0
C133 C 0.23526 0.21368 1.01728 0.0
C134 C 0.2446 0.22152 0.96713 0.0
C135 C 0.24593 0.25718 0.9548 0.0
C136 C 0.23755 0.28462 0.99423 0.0
C137 C 0.22817 0.27679 0.04407 0.0
C138 C 0.20768 0.29286 0.27818 0.0
C139 C 0.30106 0.30894 0.21619 0.0
O140 O 0.29388 0.30966 0.38185 0.0
O141 O 0.31287 0.25542 0.38453 0.0
O142 O 0.28081 0.22639 0.25158 0.0
O143 O 0.33242 0.24834 0.27948 0.0
O144 O 0.24145 0.23598 0.33414 0.0
O145 O 0.21676 0.20683 0.25151 0.0
O146 O 0.23566 0.21198 0.13674 0.0
O147 O 0.20248 0.25894 0.1391 0.0
O148 O 0.24059 0.29249 0.2699 0.0
O149 O 0.18887 0.27046 0.24225 0.0
O150 O 0.27815 0.28489 0.18707 0.0
O151 O 0.30619 0.31129 0.2694 0.0
H152 H 0.28798 0.34265 0.48044 0.0
H153 H 0.27624 0.34323 0.57389 0.0
H154 H 0.29073 0.22887 0.56298 0.0
H155 H 0.3017 0.22821 0.46923 0.0
H156 H 0.23435 0.18598 0.02535 0.0
H157 H 0.25118 0.19964 0.93827 0.0
H158 H 0.2376 0.31236 0.98635 0.0
H159 H 0.22168 0.2988 0.07281 0.0
Tb160 Tb 0.79318 0.2556 0.18879 0.0
Tb161 Tb 0.76018 0.26766 0.29445 0.0
C162 C 0.81196 0.23097 0.09919 0.0
C163 C 0.8002 0.23118 0.04118 0.0
C164 C 0.77057 0.20982 1.01512 0.0
C165 C 0.7612 0.20885 0.95972 0.0
C166 C 0.78159 0.2288 0.92893 0.0
C167 C 0.81117 0.25023 0.95516 0.0
C168 C 0.82035 0.25136 1.01056 0.0
C169 C 0.82772 0.30224 0.26416 0.0
C170 C 0.7396 0.31735 0.20178 0.0
C171 C 0.74241 0.29137 0.38493 0.0
C172 C 0.74479 0.27947 0.43921 0.0
C173 C 0.77285 0.29287 0.47886 0.0
C174 C 0.77495 0.2822 0.5304 0.0
C175 C 0.74892 0.25805 0.54361 0.0
C176 C 0.72069 0.24489 0.50406 0.0
C177 C 0.71859 0.25553 0.45254 0.0
C178 C 0.72681 0.21978 0.22074 0.0
C179 C 0.81372 0.20491 0.28238 0.0
O180 O 0.7917 0.21296 0.12692 0.0
O181 O 0.82438 0.26153 0.12583 0.0
O182 O 0.81235 0.27332 0.27001 0.0
O183 O 0.82754 0.30424 0.21326 0.0
O184 O 0.75119 0.29245 0.16663 0.0
O185 O 0.74485 0.31525 0.25419 0.0
O186 O 0.77304 0.30015 0.36773 0.0
O187 O 0.72021 0.2731 0.3471 0.0
O188 O 0.74111 0.24901 0.21332 0.0
O189 O 0.72829 0.21743 0.27186 0.0
O190 O 0.79721 0.22655 0.3166 0.0
O191 O 0.81345 0.21018 0.23104 0.0
H192 H 0.7549 0.19339 0.03725 0.0
H193 H 0.73804 0.19231 0.94103 0.0
H194 H 0.82793 0.26541 0.9327 0.0
H195 H 0.84375 0.26756 0.02933 0.0
H196 H 0.79325 0.31164 0.47007 0.0
H197 H 0.79724 0.2926 0.55973 0.0
H198 H 0.69984 0.22674 0.51314 0.0
H199 H 0.69629 0.24508 0.42329 0.0
Tb200 Tb 0.78987 0.77328 0.8323 0.0
Tb201 Tb 0.74836 0.74976 0.7224 0.0
C202 C 0.80868 0.79361 0.9306 0.0
C203 C 0.79645 0.79245 0.98468 0.0
C204 C 0.78864 0.82457 1.01505 0.0
C205 C 0.78245 0.82509 0.06894 0.0
C206 C 0.78417 0.79349 0.09418 0.0
C207 C 0.79027 0.76101 0.063 0.0
C208 C 0.79642 0.7605 1.00898 0.0
C209 C 0.81664 0.71941 0.7747 0.0
C210 C 0.71977 0.7212 0.82141 0.0
C211 C 0.73376 0.72662 0.6242 0.0
C212 C 0.74097 0.73846 0.57218 0.0
C213 C 0.74642 0.71277 0.529 0.0
C214 C 0.7533 0.72327 0.47939 0.0
C215 C 0.75478 0.75983 0.47161 0.0
C216 C 0.74937 0.78551 0.51529 0.0
C217 C 0.74273 0.77497 0.56499 0.0
C218 C 0.72085 0.80358 0.77877 0.0
C219 C 0.81738 0.80562 0.73544 0.0
O220 O 0.79093 0.81358 0.89802 0.0
O221 O 0.8184 0.76352 0.90528 0.0
O222 O 0.78356 0.72475 0.77805 0.0
O223 O 0.83617 0.74363 0.80651 0.0
O224 O 0.74037 0.7473 0.84984 0.0
O225 O 0.72163 0.71304 0.76906 0.0
O226 O 0.76195 0.71705 0.65446 0.0
O227 O 0.71185 0.74594 0.65217 0.0
O228 O 0.75407 0.79801 0.77683 0.0
O229 O 0.70174 0.78024 0.74462 0.0
O230 O 0.7933 0.78411 0.70348 0.0
O231 O 0.81875 0.80853 0.78845 0.0
H232 H 0.78852 0.84964 0.99762 0.0
H233 H 0.77709 0.8505 0.0912 0.0
H234 H 0.79201 0.73617 0.08095 0.0
H235 H 0.80246 0.73522 0.98693 0.0
H236 H 0.7455 0.68446 0.53373 0.0
H237 H 0.75801 0.70264 0.44742 0.0
H238 H 0.74979 0.81388 0.51109 0.0
H239 H 0.73885 0.79539 0.59773 0.0
Tb240 Tb 0.50773 0.49459 0.96626 0.0
Tb241 Tb 0.52267 0.53236 0.07857 0.0
C242 C 0.49295 0.47664 0.86695 0.0
C243 C 0.49687 0.49183 0.81658 0.0
C244 C 0.48897 0.52768 0.81042 0.0
C245 C 0.49176 0.54079 0.76125 0.0
C246 C 0.50266 0.51835 0.71754 0.0
C247 C 0.51135 0.48275 0.72457 0.0
C248 C 0.50833 0.46964 0.77349 0.0
C249 C 0.55731 0.46585 0.02961 0.0
C250 C 0.5613 0.56244 0.989 0.0
C251 C 0.54281 0.54751 0.17733 0.0
C252 C 0.53019 0.54761 0.23103 0.0
C253 C 0.53715 0.51847 0.26056 0.0
C254 C 0.53022 0.52051 0.31415 0.0
C255 C 0.51642 0.55185 0.3396 0.0
C256 C 0.50828 0.58052 0.30952 0.0
C257 C 0.5152 0.57848 0.25589 0.0
C258 C 0.47282 0.56198 1.01698 0.0
C259 C 0.46477 0.46611 0.0541 0.0
O260 O 0.47004 0.49182 0.89776 0.0
O261 O 0.523 0.4685 0.89432 0.0
O262 O 0.55288 0.49883 0.02744 0.0
O263 O 0.53463 0.44757 0.99355 0.0
O264 O 0.53689 0.54391 0.9539 0.0
O265 O 0.56479 0.55718 0.04029 0.0
O266 O 0.5473 0.51627 0.15027 0.0
O267 O 0.52903 0.57074 0.1465 0.0
O268 O 0.47785 0.52892 1.01735 0.0
O269 O 0.49377 0.57963 0.056 0.0
O270 O 0.48468 0.48874 0.09064 0.0
O271 O 0.4673 0.46569 1.00204 0.0
H272 H 0.48026 0.54542 0.84329 0.0
H273 H 0.48463 0.56827 0.75719 0.0
H274 H 0.52066 0.46494 0.6923 0.0
H275 H 0.51483 0.442 0.77762 0.0
H276 H 0.54927 0.49453 0.24294 0.0
H277 H 0.53727 0.49811 0.33631 0.0
H278 H 0.49721 0.60486 0.32775 0.0
H279 H 0.50987 0.60157 0.23449 0.0
Tb280 Tb 0.03126 0.49381 0.59539 0.0
Tb281 Tb 0.99538 0.5061 0.48515 0.0
C282 C 0.06198 0.50062 0.69013 0.0
C283 C 0.05184 0.49758 0.74444 0.0
C284 C 0.06704 0.52186 0.78795 0.0
C285 C 0.06088 0.51705 0.84048 0.0
C286 C 0.03974 0.48759 0.85032 0.0
C287 C 0.02345 0.46408 0.80651 0.0
C288 C 0.02925 0.46913 0.75405 0.0
C289 C 0.98187 0.44482 0.55181 0.0
C290 C 0.9604 0.54107 0.58313 0.0
C291 C 0.96779 0.49975 0.38882 0.0
C292 C 0.98094 0.4936 0.33516 0.0
C293 C 0.97396 0.46036 0.30361 0.0
C294 C 0.98414 0.45476 0.25165 0.0
C295 C 1.00196 0.48219 0.23 0.0
C296 C 1.00973 0.51522 0.26213 0.0
C297 C 0.9992 0.52093 0.31396 0.0
C298 C 0.04542 0.55397 0.53087 0.0
C299 C 0.06525 0.45783 0.49624 0.0
O300 O 0.04944 0.52773 0.6662 0.0
O301 O 0.0605 0.47079 0.65745 0.0
O302 O 0.98123 0.4778 0.54842 0.0
O303 O 1.00909 0.43864 0.58558 0.0
O304 O 0.99081 0.53473 0.61296 0.0
O305 O 0.95331 0.5264 0.53269 0.0
O306 O 0.97031 0.47302 0.41796 0.0
O307 O 0.97641 0.53067 0.41748 0.0
O308 O 0.0458 0.52085 0.53154 0.0
O309 O 0.01722 0.56195 0.50027 0.0
O310 O 0.0352 0.46504 0.4665 0.0
O311 O 0.07257 0.47281 0.54652 0.0
H312 H 0.08454 0.54396 0.78142 0.0
H313 H 0.07385 0.5355 0.87352 0.0
H314 H 1.00661 0.44146 0.81291 0.0
H315 H 0.01688 0.45019 0.72117 0.0
H316 H 0.96022 0.43869 0.31883 0.0
H317 H 0.9772 0.42912 0.22807 0.0
H318 H 0.02399 0.53676 0.24731 0.0
H319 H 1.00519 0.54687 0.33718 0.0
H320 H 0.06655 0.071 0.36978 0.0
H321 H 0.12141 0.08465 0.53251 0.0
H322 H 0.16737 0.12382 0.50482 0.0
H323 H 0.14889 0.07107 0.30164 0.0
H324 H 0.12983 0.09647 0.24955 0.0
H325 H 0.10086 0.06802 0.28061 0.0
H326 H 0.06123 0.12205 0.30546 0.0
H327 H 0.09002 0.15069 0.27448 0.0
H328 H 0.08209 0.16216 0.34353 0.0
H329 H 0.20649 0.16222 0.46323 0.0
H330 H 0.23771 0.19984 0.40874 0.0
H331 H 0.16011 0.16411 0.27011 0.0
C332 C 0.08838 0.08209 0.39938 0.0
C333 C 0.0901 0.07459 0.45352 0.0
C334 C 0.11908 0.08989 0.49097 0.0
C335 C 0.14557 0.1122 0.47563 0.0
C336 C 0.14305 0.11924 0.42251 0.0
C337 C 0.11535 0.10485 0.3847 0.0
C338 C 0.11922 0.11805 0.33056 0.0
C339 C 0.12505 0.08652 0.28807 0.0
C340 C 0.08617 0.13951 0.31245 0.0
C341 C 0.15321 0.14221 0.34439 0.0
C342 C 0.16628 0.14212 0.39779 0.0
C343 C 0.19664 0.16252 0.4213 0.0
C344 C 0.21415 0.18398 0.38978 0.0
C345 C 0.20148 0.1852 0.33491 0.0
C346 C 0.17067 0.16363 0.31174 0.0
H347 H 0.06703 0.88732 0.52662 0.0
H348 H 0.1052 0.99486 0.59269 0.0
H349 H 0.15269 0.96948 0.65252 0.0
H350 H 0.08334 0.84456 0.64651 0.0
H351 H 0.09912 0.80377 0.61283 0.0
H352 H 0.06711 0.83042 0.57715 0.0
H353 H 0.11053 0.83424 0.50411 0.0
H354 H 0.14269 0.80765 0.53966 0.0
H355 H 0.1564 0.85105 0.52353 0.0
H356 H 0.19405 0.9322 0.70788 0.0
H357 H 0.23016 0.88588 0.74933 0.0
H358 H 0.16953 0.80268 0.64029 0.0
C359 C 0.08532 0.90552 0.55384 0.0
C360 C 0.0818 0.94309 0.55631 0.0
C361 C 0.10663 0.96604 0.59159 0.0
C362 C 0.13389 0.95184 0.62532 0.0
C363 C 0.13643 0.91465 0.62225 0.0
C364 C 0.11317 0.8918 0.58684 0.0
C365 C 0.12266 0.8529 0.5899 0.0
C366 C 0.09119 0.83167 0.60766 0.0
C367 C 0.13373 0.83544 0.5361 0.0
C368 C 0.15471 0.85743 0.63296 0.0
C369 C 0.16191 0.89326 0.65151 0.0
C370 C 0.18899 0.90411 0.69321 0.0
C371 C 0.20926 0.87767 0.71656 0.0
C372 C 0.20282 0.8409 0.69745 0.0
C373 C 0.17538 0.8307 0.65487 0.0
H374 H 0.39105 0.79693 0.82645 0.0
H375 H 0.29216 0.85526 0.84185 0.0
H376 H 0.32311 0.89539 0.91768 0.0
H377 H 0.4243 0.80517 0.97005 0.0
H378 H 0.47091 0.81233 0.95921 0.0
H379 H 0.44054 0.78555 0.90881 0.0
H380 H 0.45529 0.82643 0.83743 0.0
H381 H 0.48614 0.85286 0.8873 0.0
H382 H 0.44992 0.87417 0.85055 0.0
H383 H 0.36422 0.93163 0.98542 0.0
H384 H 0.41579 0.96597 0.03834 0.0
H385 H 0.48933 0.88552 0.98161 0.0
C386 C 0.37602 0.81805 0.84617 0.0
C387 C 0.33913 0.82276 0.82915 0.0
C388 C 0.32032 0.85094 0.85499 0.0
C389 C 0.33758 0.87374 0.89822 0.0
C390 C 0.37375 0.86816 0.91474 0.0
C391 C 0.39302 0.84138 0.88933 0.0
C392 C 0.4325 0.8434 0.91263 0.0
C393 C 0.44265 0.8096 0.93927 0.0
C394 C 0.45742 0.8496 0.86941 0.0
C395 C 0.43242 0.87606 0.95407 0.0
C396 C 0.39801 0.88946 0.95491 0.0
C397 C 0.39118 0.92113 0.98607 0.0
C398 C 0.42051 0.94036 1.01598 0.0
C399 C 0.45598 0.92768 1.01468 0.0
C400 C 0.46209 0.8948 0.98452 0.0
H401 H 0.45346 0.07634 0.16379 0.0
H402 H 0.4119 0.08194 0.99719 0.0
H403 H 0.36719 0.1254 0.02643 0.0
H404 H 0.36615 0.08403 0.21777 0.0
H405 H 0.38484 0.11131 0.27839 0.0
H406 H 0.41254 0.07905 0.24464 0.0
H407 H 0.46023 0.12931 0.23918 0.0
H408 H 0.43269 0.16172 0.27278 0.0
H409 H 0.44649 0.16861 0.20831 0.0
H410 H 0.32988 0.17142 0.07272 0.0
H411 H 0.30148 0.2157 0.13426 0.0
H412 H 0.36507 0.17906 0.27052 0.0
C413 C 0.43473 0.08638 0.13344 0.0
C414 C 0.43627 0.07562 0.07817 0.0
C415 C 0.41137 0.08969 0.0398 0.0
C416 C 0.38577 0.1144 0.05595 0.0
C417 C 0.38525 0.12473 0.11062 0.0
C418 C 0.40892 0.1111 0.14885 0.0
C419 C 0.40329 0.12752 0.20497 0.0
C420 C 0.39097 0.09876 0.2384 0.0
C421 C 0.43772 0.14801 0.23293 0.0
C422 C 0.37315 0.15287 0.19216 0.0
C423 C 0.36303 0.15071 0.13748 0.0
C424 C 0.33685 0.17265 0.1157 0.0
C425 C 0.32036 0.19728 0.15085 0.0
C426 C 0.32985 0.19934 0.20686 0.0
C427 C 0.35684 0.17721 0.22772 0.0
H428 H 0.90288 0.91814 0.5215 0.0
H429 H 0.99599 0.93706 0.64251 0.0
H430 H 0.96818 0.89849 0.69926 0.0
H431 H 0.83603 0.9188 0.61168 0.0
H432 H 0.80786 0.88252 0.575 0.0
H433 H 0.83569 0.90943 0.53988 0.0
H434 H 0.86509 0.85214 0.50004 0.0
H435 H 0.83813 0.82478 0.53592 0.0
H436 H 0.88677 0.82258 0.54433 0.0
H437 H 0.92985 0.8641 0.7478 0.0
H438 H 0.88324 0.82983 0.7839 0.0
H439 H 0.81359 0.82844 0.63361 0.0
C440 C 0.91756 0.91347 0.55942 0.0
C441 C 0.95154 0.93108 0.57765 0.0
C442 C 0.96975 0.92448 0.62782 0.0
C443 C 0.95427 0.9024 0.66049 0.0
C444 C 0.92047 0.88649 0.64263 0.0
C445 C 0.90231 0.89106 0.59313 0.0
C446 C 0.86561 0.87108 0.58559 0.0
C447 C 0.83446 0.89702 0.57758 0.0
C448 C 0.86381 0.84086 0.53865 0.0
C449 C 0.86594 0.85583 0.63915 0.0
C450 C 0.89807 0.86517 0.67102 0.0
C451 C 0.90469 0.85615 0.72308 0.0
C452 C 0.87787 0.83685 0.74339 0.0
C453 C 0.84471 0.82639 0.71178 0.0
C454 C 0.83879 0.83581 0.65863 0.0
H455 H 0.92453 0.10775 0.51097 0.0
H456 H 0.97126 0.04227 0.38502 0.0
H457 H 0.9318 0.06948 0.3163 0.0
H458 H 0.83214 0.10817 0.44349 0.0
H459 H 0.82589 0.15438 0.46827 0.0
H460 H 0.85561 0.12728 0.50704 0.0
H461 H 0.90809 0.17399 0.50872 0.0
H462 H 0.87853 0.20115 0.46996 0.0
H463 H 0.92056 0.18671 0.44626 0.0
H464 H 0.88959 0.1071 0.26155 0.0
H465 H 0.84883 0.15196 0.22527 0.0
H466 H 0.83041 0.19365 0.38765 0.0
C467 C 0.92585 0.09878 0.46886 0.0
C468 C 0.94953 0.07161 0.45298 0.0
C469 C 0.95158 0.06126 0.39776 0.0
C470 C 0.9297 0.07711 0.35854 0.0
C471 C 0.90615 0.10354 0.37542 0.0
C472 C 0.90414 0.11433 0.42933 0.0
C473 C 0.87795 0.14448 0.43694 0.0
C474 C 0.846 0.13287 0.46562 0.0
C475 C 0.89746 0.17859 0.46725 0.0
C476 C 0.86587 0.14929 0.37897 0.0
C477 C 0.88233 0.1254 0.34404 0.0
C478 C 0.87633 0.12574 0.28855 0.0
C479 C 0.85314 0.15135 0.2683 0.0
C480 C 0.83621 0.17629 0.30347 0.0
C481 C 0.84254 0.17481 0.35949 0.0
H482 H 0.6907 0.1576 0.23158 0.0
H483 H 0.71901 0.22551 0.11359 0.0
H484 H 0.68593 0.18361 0.04125 0.0
H485 H 0.69261 0.07033 0.14798 0.0
H486 H 0.65341 0.0528 0.17382 0.0
H487 H 0.68346 0.08541 0.21555 0.0
H488 H 0.62933 0.12669 0.23082 0.0
H489 H 0.59936 0.09399 0.18961 0.0
H490 H 0.60135 0.13948 0.17351 0.0
H491 H 0.64753 0.13603 0.9823 0.0
H492 H 0.60015 0.09031 0.94288 0.0
H493 H 0.59474 0.05567 0.09978 0.0
C494 C 0.69048 0.16321 0.19039 0.0
C495 C 0.70799 0.19421 0.17781 0.0
C496 C 0.70637 0.20138 0.12377 0.0
C497 C 0.68775 0.17774 0.08245 0.0
C498 C 0.67083 0.14724 0.09603 0.0
C499 C 0.67166 0.14011 0.14876 0.0
C500 C 0.64801 0.10765 0.15322 0.0
C501 C 0.67075 0.07725 0.17385 0.0
C502 C 0.61772 0.11757 0.18886 0.0
C503 C 0.6331 0.09825 0.09499 0.0
C504 C 0.6472 0.12084 0.06241 0.0
C505 C 0.63641 0.11803 1.00731 0.0
C506 C 0.60967 0.09203 0.98527 0.0
C507 C 0.59381 0.07 0.01869 0.0
C508 C 0.6063 0.07257 0.07374 0.0
H509 H 0.64983 0.81064 0.79319 0.0
H510 H 0.75647 0.85897 0.84579 0.0
H511 H 0.72987 0.90269 0.91068 0.0
H512 H 0.60371 0.8935 0.79576 0.0
H513 H 0.56326 0.87536 0.81743 0.0
H514 H 0.59133 0.84661 0.7784 0.0
H515 H 0.597 0.80404 0.85266 0.0
H516 H 0.56911 0.83286 0.89202 0.0
H517 H 0.61352 0.82179 0.92061 0.0
H518 H 0.69097 0.94088 0.97015 0.0
H519 H 0.64265 0.97436 1.01251 0.0
H520 H 0.56141 0.90329 0.91527 0.0
C521 C 0.66761 0.83035 0.81851 0.0
C522 C 0.70535 0.83086 0.81584 0.0
C523 C 0.72767 0.8574 0.84879 0.0
C524 C 0.71275 0.88244 0.8854 0.0
C525 C 0.67541 0.88086 0.88766 0.0
C526 C 0.6531 0.85579 0.85448 0.0
C527 C 0.61367 0.86094 0.86243 0.0
C528 C 0.59171 0.86963 0.81042 0.0
C529 C 0.59738 0.82795 0.88317 0.0
C530 C 0.61717 0.89299 0.90506 0.0
C531 C 0.653 0.90379 0.91974 0.0
C532 C 0.66283 0.93272 0.95884 0.0
C533 C 0.63526 0.95143 0.98284 0.0
C534 C 0.59839 0.94143 0.96695 0.0
C535 C 0.58939 0.91165 0.92792 0.0
H536 H 0.57587 0.57115 0.88523 0.0
H537 H 0.60148 0.61535 0.05241 0.0
H538 H 0.64206 0.66067 0.02555 0.0
H539 H 0.66624 0.58228 0.84849 0.0
H540 H 0.65194 0.59445 0.78256 0.0
H541 H 0.62312 0.56588 0.81359 0.0
H542 H 0.57084 0.60977 0.8017 0.0
H543 H 0.59944 0.63855 0.77061 0.0
H544 H 0.57805 0.65633 0.82841 0.0
H545 H 0.67943 0.70049 0.98348 0.0
H546 H 0.7154 0.73274 0.92856 0.0
H547 H 0.66963 0.66383 0.78539 0.0
C548 C 0.58991 0.59053 0.91606 0.0
C549 C 0.5854 0.58963 0.97112 0.0
C550 C 0.6045 0.61526 1.01018 0.0
C551 C 0.62756 0.64128 0.99528 0.0
C552 C 0.63157 0.64136 0.94107 0.0
C553 C 0.61359 0.6167 0.90186 0.0
C554 C 0.62424 0.62254 0.84667 0.0
C555 C 0.64248 0.58931 0.82135 0.0
C556 C 0.59117 0.63239 0.80967 0.0
C557 C 0.65115 0.65422 0.86141 0.0
C558 C 0.65439 0.66451 0.91618 0.0
C559 C 0.6772 0.69273 0.94054 0.0
C560 C 0.69764 0.71095 0.90849 0.0
C561 C 0.6957 0.70103 0.85208 0.0
C562 C 0.67184 0.6722 0.82818 0.0
H563 H 0.68665 0.31042 0.11738 0.0
H564 H 0.74029 0.3879 0.2432 0.0
H565 H 0.70068 0.43532 0.21115 0.0
H566 H 0.67017 0.36887 1.01379 0.0
H567 H 0.62583 0.34941 0.98991 0.0
H568 H 0.6601 0.32255 0.02047 0.0
H569 H 0.61696 0.30727 0.08928 0.0
H570 H 0.58258 0.33412 0.05901 0.0
H571 H 0.59761 0.34315 0.12977 0.0
H572 H 0.65634 0.47454 0.16239 0.0
H573 H 0.60664 0.50101 0.10778 0.0
H574 H 0.57755 0.39602 0.02126 0.0
C575 C 0.69031 0.33752 0.13764 0.0
C576 C 0.71682 0.34586 0.18209 0.0
C577 C 0.72024 0.38123 0.20878 0.0
C578 C 0.69796 0.40824 0.19079 0.0
C579 C 0.6719 0.39914 0.14687 0.0
C580 C 0.66762 0.36448 0.12121 0.0
C581 C 0.63601 0.36108 0.07743 0.0
C582 C 0.64881 0.34982 0.02213 0.0
C583 C 0.60655 0.33485 0.08963 0.0
C584 C 0.62332 0.3993 0.08206 0.0
C585 C 0.64468 0.42099 0.12178 0.0
C586 C 0.63905 0.45766 0.13186 0.0
C587 C 0.61064 0.47243 0.1009 0.0
C588 C 0.58765 0.4504 0.06142 0.0
C589 C 0.59429 0.41341 0.05186 0.0
H590 H 0.91758 0.45198 0.49139 0.0
H591 H 1.00156 0.37638 0.52523 0.0
H592 H 0.97111 0.33182 0.45395 0.0
H593 H 0.84325 0.38371 0.46315 0.0
H594 H 0.81958 0.40659 0.41148 0.0
H595 H 0.84712 0.43191 0.46685 0.0
H596 H 0.88412 0.46064 0.39983 0.0
H597 H 0.85576 0.43564 0.34509 0.0
H598 H 0.90412 0.43167 0.34974 0.0
H599 H 0.93336 0.29667 0.37786 0.0
H600 H 0.88809 0.2713 0.30318 0.0
H601 H 0.82874 0.36964 0.31753 0.0
C602 C 0.92923 0.42587 0.48396 0.0
C603 C 0.96181 0.41739 0.51331 0.0
C604 C 0.97644 0.38311 0.50311 0.0
C605 C 0.95948 0.35778 0.46264 0.0
C606 C 0.92779 0.36719 0.43349 0.0
C607 C 0.91246 0.40018 0.444 0.0
C608 C 0.878 0.40325 0.40699 0.0
C609 C 0.84504 0.40655 0.43904 0.0
C610 C 0.8807 0.43469 0.37346 0.0
C611 C 0.87728 0.36743 0.37248 0.0
C612 C 0.90603 0.34691 0.38901 0.0
C613 C 0.91083 0.31247 0.36436 0.0
C614 C 0.88526 0.29842 0.32198 0.0
C615 C 0.8558 0.31904 0.30455 0.0
C616 C 0.85171 0.35393 0.32975 0.0
H617 H 0.88777 0.70502 0.76773 0.0
H618 H 0.77873 0.66405 0.71129 0.0
H619 H 0.80369 0.61409 0.65509 0.0
H620 H 0.92771 0.68296 0.64595 0.0
H621 H 0.96997 0.66955 0.67885 0.0
H622 H 0.94347 0.70257 0.71332 0.0
H623 H 0.94257 0.66391 0.79194 0.0
H624 H 0.96912 0.63082 0.75767 0.0
H625 H 0.9263 0.61787 0.77827 0.0
H626 H 0.84068 0.57061 0.60159 0.0
H627 H 0.88706 0.53317 0.56116 0.0
H628 H 0.97191 0.59934 0.65913 0.0
C629 C 0.86916 0.68552 0.74351 0.0
C630 C 0.83131 0.68879 0.74268 0.0
C631 C 0.8078 0.66249 0.71131 0.0
C632 C 0.82173 0.63396 0.67954 0.0
C633 C 0.85922 0.63176 0.68068 0.0
C634 C 0.88263 0.65652 0.71248 0.0
C635 C 0.92181 0.6474 0.70783 0.0
C636 C 0.94191 0.6774 0.68513 0.0
C637 C 0.94107 0.63952 0.76216 0.0
C638 C 0.91679 0.61379 0.66807 0.0
C639 C 0.8805 0.60546 0.65242 0.0
C640 C 0.86916 0.57659 0.61402 0.0
C641 C 0.89563 0.55559 0.59119 0.0
C642 C 0.93289 0.56324 0.60759 0.0
C643 C 0.94354 0.5926 0.64666 0.0
H644 H 0.35808 0.35896 0.25327 0.0
H645 H 0.29123 0.31237 0.1087 0.0
H646 H 0.32508 0.34766 0.05451 0.0
H647 H 0.3671 0.44884 0.21093 0.0
H648 H 0.41369 0.45584 0.23939 0.0
H649 H 0.38368 0.42756 0.26894 0.0
H650 H 0.42803 0.37548 0.25838 0.0
H651 H 0.45809 0.4036 0.22866 0.0
H652 H 0.44168 0.36099 0.19307 0.0
H653 H 0.36618 0.38527 1.01399 0.0
H654 H 0.41232 0.42574 0.98902 0.0
H655 H 0.45441 0.45089 0.1572 0.0
C656 C 0.35042 0.35647 0.21032 0.0
C657 C 0.32169 0.33263 0.18569 0.0
C658 C 0.31288 0.33017 0.12913 0.0
C659 C 0.33203 0.35021 0.09761 0.0
C660 C 0.3602 0.373 0.12276 0.0
C661 C 0.36948 0.37657 0.17772 0.0
C662 C 0.40151 0.40306 0.1935 0.0
C663 C 0.39085 0.43577 0.23038 0.0
C664 C 0.43427 0.38467 0.21997 0.0
C665 C 0.40861 0.41337 0.13876 0.0
C666 C 0.38431 0.3955 0.0988 0.0
C667 C 0.38533 0.39961 0.04488 0.0
C668 C 0.41184 0.4227 0.0311 0.0
C669 C 0.43717 0.44171 0.07096 0.0
C670 C 0.43539 0.43694 0.1257 0.0
H671 H 0.45754 0.63308 1.01811 0.0
H672 H 0.42184 0.5271 0.94142 0.0
H673 H 0.37544 0.55413 0.882 0.0
H674 H 0.36699 0.66818 0.01849 0.0
H675 H 0.38101 0.71258 1.00695 0.0
H676 H 0.41236 0.68499 0.0421 0.0
H677 H 0.45817 0.69226 0.97334 0.0
H678 H 0.42693 0.71986 0.9381 0.0
H679 H 0.44409 0.68041 0.90271 0.0
H680 H 0.3355 0.59291 0.82769 0.0
H681 H 0.30055 0.64045 0.78742 0.0
H682 H 0.35726 0.72098 0.90572 0.0
C683 C 0.43993 0.61559 0.98878 0.0
C684 C 0.44397 0.578 0.98311 0.0
C685 C 0.42007 0.55596 0.94501 0.0
C686 C 0.39341 0.57109 0.91149 0.0
C687 C 0.39043 0.60827 0.91758 0.0
C688 C 0.41263 0.63023 0.95584 0.0
C689 C 0.40293 0.66929 0.95522 0.0
C690 C 0.39005 0.68466 1.00888 0.0
C691 C 0.43494 0.69177 0.94151 0.0
C692 C 0.37208 0.66588 0.91019 0.0
C693 C 0.36562 0.63045 0.88869 0.0
C694 C 0.33993 0.62066 0.84468 0.0
C695 C 0.32031 0.64778 0.82203 0.0
C696 C 0.326 0.68409 0.84406 0.0
C697 C 0.35198 0.69325 0.88895 0.0
H698 H 0.13891 0.72437 0.71622 0.0
H699 H 0.23852 0.66569 0.71567 0.0
H700 H 0.20757 0.6178 0.6511 0.0
H701 H 0.07928 0.64821 0.71042 0.0
H702 H 0.04369 0.6649 0.66632 0.0
H703 H 0.07397 0.69587 0.71057 0.0
H704 H 0.09054 0.7265 0.62911 0.0
H705 H 0.06039 0.69546 0.58456 0.0
H706 H 0.10731 0.69983 0.57345 0.0
H707 H 0.1663 0.57471 0.59375 0.0
H708 H 0.11564 0.53762 0.5437 0.0
H709 H 0.04196 0.62376 0.57633 0.0
C710 C 0.15403 0.70142 0.70221 0.0
C711 C 0.19105 0.69864 0.72037 0.0
C712 C 0.21021 0.66839 0.70157 0.0
C713 C 0.19291 0.64109 0.66495 0.0
C714 C 0.1565 0.64458 0.64745 0.0
C715 C 0.13714 0.67386 0.66516 0.0
C716 C 0.09788 0.67005 0.64076 0.0
C717 C 0.0722 0.66973 0.68464 0.0
C718 C 0.08849 0.69972 0.60483 0.0
C719 C 0.09821 0.63363 0.60777 0.0
C720 C 0.13245 0.61967 0.6123 0.0
C721 C 0.13947 0.58547 0.58904 0.0
C722 C 0.11058 0.56463 0.56088 0.0
C723 C 0.0753 0.57822 0.55581 0.0
C724 C 0.06901 0.61332 0.57869 0.0
H725 H 0.14751 0.33254 0.26336 0.0
H726 H 0.22985 0.30489 0.38516 0.0
H727 H 0.2046 0.34667 0.45346 0.0
H728 H 0.14067 0.4263 0.31322 0.0
H729 H 0.09209 0.42631 0.29831 0.0
H730 H 0.11827 0.3959 0.25849 0.0
H731 H 0.07951 0.34217 0.27921 0.0
H732 H 0.05329 0.37251 0.31903 0.0
H733 H 0.07543 0.33586 0.3481 0.0
H734 H 0.16995 0.39098 0.50813 0.0
H735 H 0.12653 0.43242 0.54731 0.0
H736 H 0.06397 0.42891 0.39077 0.0
C737 C 0.16031 0.33568 0.30438 0.0
C738 C 0.19197 0.31722 0.31884 0.0
C739 C 0.20744 0.32095 0.37288 0.0
C740 C 0.1927 0.34402 0.41202 0.0
C741 C 0.16202 0.36267 0.39635 0.0
C742 C 0.14572 0.3585 0.34395 0.0
C743 C 0.11203 0.38056 0.33827 0.0
C744 C 0.11603 0.40895 0.2998 0.0
C745 C 0.07806 0.35632 0.32009 0.0
C746 C 0.11201 0.39773 0.39565 0.0
C747 C 0.14116 0.38717 0.42839 0.0
C748 C 0.14697 0.39946 0.48295 0.0
C749 C 0.12218 0.42305 0.50479 0.0
C750 C 0.09185 0.43396 0.47216 0.0
C751 C 0.08686 0.4211 0.41683 0.0
H752 H 0.04138 0.99812 0.89981 0.0
H753 H 0.95231 0.06841 0.86661 0.0
H754 H 0.93713 0.06824 0.95943 0.0
H755 H 0.9959 0.94498 0.98474 0.0
H756 H 0.03613 0.94034 0.02994 0.0
H757 H 0.03982 0.94577 0.9607 0.0
H758 H 0.08338 1.0008 0.99083 0.0
H759 H 0.07969 0.99564 0.06016 0.0
H760 H 0.06914 0.03775 0.03518 0.0
H761 H 0.93216 0.06135 0.05668 0.0
H762 H 0.9366 0.04665 0.15003 0.0
H763 H 0.02852 0.98037 0.12032 0.0
C764 C 0.01875 0.01358 0.91209 0.0
C765 C 0.99797 0.03319 0.8756 0.0
C766 C 0.96833 0.05273 0.89334 0.0
C767 C 0.95964 0.05302 0.9462 0.0
C768 C 0.98073 0.03354 0.98109 0.0
C769 C 1.00957 0.01402 0.96473 0.0
C770 C 0.02762 0.99507 1.01011 0.0
C771 C 0.02468 0.95411 0.99549 0.0
C772 C 0.06731 0.00811 0.02494 0.0
C773 C 1.00465 1.00724 0.05466 0.0
C774 C 0.97774 0.02941 0.03704 0.0
C775 C 0.95304 0.04387 0.0708 0.0
C776 C 0.95568 0.03522 0.12377 0.0
C777 C 0.98282 0.01225 0.14277 0.0
C778 C 1.00771 0.99834 0.10748 0.0
H779 H 0.26267 0.78779 0.39404 0.0
H780 H 0.22684 0.6765 0.38687 0.0
H781 H 0.21583 0.67261 0.28797 0.0
H782 H 0.199 0.8105 0.28283 0.0
H783 H 0.23165 0.83926 0.25927 0.0
H784 H 0.2342 0.83381 0.32959 0.0
H785 H 0.3006 0.81402 0.32788 0.0
H786 H 0.29816 0.81915 0.25753 0.0
H787 H 0.3107 0.77687 0.28039 0.0
H788 H 0.21296 0.6797 0.18947 0.0
H789 H 0.21617 0.69791 0.09909 0.0
H790 H 0.25291 0.80488 0.17111 0.0
C791 C 0.25229 0.76266 0.37169 0.0
C792 C 0.24551 0.73247 0.39819 0.0
C793 C 0.23171 0.70013 0.36751 0.0
C794 C 0.22558 0.6976 0.3113 0.0
C795 C 0.23317 0.7277 0.28644 0.0
C796 C 0.24592 0.75971 0.31567 0.0
C797 C 0.25281 0.78782 0.27922 0.0
C798 C 0.22792 0.81973 0.28827 0.0
C799 C 0.29295 0.80017 0.28671 0.0
C800 C 0.24262 0.76642 0.22485 0.0
C801 C 0.23123 0.73185 0.22983 0.0
C802 C 0.22141 0.70684 0.18507 0.0
C803 C 0.22318 0.71749 0.13388 0.0
C804 C 0.23468 0.75287 0.12782 0.0
C805 C 0.24437 0.77754 0.17418 0.0
H806 H 0.504 0.03498 0.645 0.0
H807 H 0.47521 0.92204 0.64061 0.0
H808 H 0.48316 0.91261 0.54408 0.0
H809 H 0.45924 0.04629 0.51477 0.0
H810 H 0.49369 0.07663 0.49926 0.0
H811 H 0.48588 0.07449 0.56806 0.0
H812 H 0.55348 0.061 0.59206 0.0
H813 H 0.56152 0.06318 0.52336 0.0
H814 H 0.57309 0.02365 0.55505 0.0
H815 H 0.49424 0.91549 0.448 0.0
H816 H 0.50829 0.93028 0.35951 0.0
H817 H 0.52971 0.04143 0.42637 0.0
C818 C 0.49971 0.00819 0.62387 0.0
C819 C 0.48893 0.97923 0.6504 0.0
C820 C 0.48305 0.9447 0.62103 0.0
C821 C 0.48766 0.93905 0.56625 0.0
C822 C 0.4981 0.9682 0.54132 0.0
C823 C 0.50408 1.00209 0.56914 0.0
C824 C 0.51486 0.02891 0.53273 0.0
C825 C 0.48674 0.05831 0.52846 0.0
C826 C 0.55301 0.04513 0.55195 0.0
C827 C 0.5143 1.00475 0.48017 0.0
C828 C 0.50444 0.96987 0.48596 0.0
C829 C 0.50188 0.94274 0.44296 0.0
C830 C 0.50969 0.95146 0.39275 0.0
C831 C 0.52 0.98703 0.38585 0.0
C832 C 0.52225 0.01393 0.43037 0.0
H833 H 0.22845 0.22006 0.85243 0.0
H834 H 0.28738 0.31478 0.9361 0.0
H835 H 0.30223 0.33209 0.84969 0.0
H836 H 0.2911 0.20123 0.75123 0.0
H837 H 0.2558 0.18636 0.69802 0.0
H838 H 0.24968 0.181 0.76657 0.0
H839 H 0.19036 0.21603 0.758 0.0
H840 H 0.19638 0.22163 0.68952 0.0
H841 H 0.19121 0.26035 0.73715 0.0
H842 H 0.31006 0.34026 0.75422 0.0
H843 H 0.31224 0.33757 0.65669 0.0
H844 H 0.24925 0.23729 0.63244 0.0
C845 C 0.24481 0.24424 0.85273 0.0
C846 C 0.25629 0.2662 0.90169 0.0
C847 C 0.27744 0.29778 0.8996 0.0
C848 C 0.28629 0.30779 0.85052 0.0
C849 C 0.27411 0.28594 0.80324 0.0
C850 C 0.25404 0.25468 0.80381 0.0
C851 C 0.24443 0.23612 0.74687 0.0
C852 C 0.26126 0.19897 0.7403 0.0
C853 C 0.20314 0.23338 0.73202 0.0
C854 C 0.26206 0.26194 0.71435 0.0
C855 C 0.27896 0.2905 0.74786 0.0
C856 C 0.29685 0.31803 0.72762 0.0
C857 C 0.29765 0.31639 0.67184 0.0
C858 C 0.28067 0.28742 0.63615 0.0
C859 C 0.26271 0.25977 0.65821 0.0
H860 H 0.78444 0.28292 0.86427 0.0
H861 H 0.75978 0.16893 0.85871 0.0
H862 H 0.74733 0.16433 0.76006 0.0
H863 H 0.71753 0.30034 0.75626 0.0
H864 H 0.74658 0.33165 0.73058 0.0
H865 H 0.75206 0.32625 0.80101 0.0
H866 H 0.81959 0.31179 0.79538 0.0
H867 H 0.81429 0.31704 0.72492 0.0
H868 H 0.8312 0.27589 0.74695 0.0
H869 H 0.73945 0.17168 0.66163 0.0
H870 H 0.73626 0.19062 0.57077 0.0
H871 H 0.76665 0.29964 0.64054 0.0
C872 C 0.77654 0.25693 0.84241 0.0
C873 C 0.77295 0.22632 0.86952 0.0
C874 C 0.76212 0.19293 0.83915 0.0
C875 C 0.75523 0.18997 0.783 0.0
C876 C 0.75934 0.2206 0.75766 0.0
C877 C 0.7697 0.25345 0.78635 0.0
C878 C 0.77278 0.28212 0.74932 0.0
C879 C 0.74561 0.31184 0.75993 0.0
C880 C 0.81178 0.29761 0.75446 0.0
C881 C 0.76269 0.2602 0.69528 0.0
C882 C 0.75496 0.2248 0.70097 0.0
C883 C 0.74525 0.19938 0.6567 0.0
C884 C 0.74333 0.21045 0.60525 0.0
C885 C 0.7511 0.24664 0.5984 0.0
C886 C 0.76091 0.27171 0.64427 0.0
H887 H 0.73347 0.72576 0.36885 0.0
H888 H 0.79372 0.81953 0.45336 0.0
H889 H 0.8061 0.83857 0.36689 0.0
H890 H 0.79364 0.70835 0.26606 0.0
H891 H 0.75771 0.6939 0.21363 0.0
H892 H 0.75256 0.68794 0.28227 0.0
H893 H 0.69323 0.72314 0.27633 0.0
H894 H 0.69824 0.72929 0.20772 0.0
H895 H 0.69374 0.76769 0.25626 0.0
H896 H 0.81262 0.8475 0.27119 0.0
H897 H 0.81404 0.84497 0.17347 0.0
H898 H 0.75057 0.74499 0.14976 0.0
C899 C 0.74956 0.75015 0.36945 0.0
C900 C 0.76239 0.77113 0.41863 0.0
C901 C 0.78291 0.80315 0.41678 0.0
C902 C 0.79033 0.81415 0.36765 0.0
C903 C 0.77724 0.79289 0.32024 0.0
C904 C 0.75741 0.76149 0.32065 0.0
C905 C 0.74698 0.74333 0.26383 0.0
C906 C 0.76373 0.70618 0.256 0.0
C907 C 0.70559 0.74072 0.25025 0.0
C908 C 0.76407 0.76946 0.23146 0.0
C909 C 0.78127 0.79789 0.2649 0.0
C910 C 0.79908 0.82543 0.24463 0.0
C911 C 0.79947 0.82387 0.18884 0.0
C912 C 0.78216 0.79497 0.15341 0.0
C913 C 0.76424 0.7674 0.17545 0.0
H914 H 0.4836 0.48177 0.61736 0.0
H915 H 0.52647 0.58486 0.69752 0.0
H916 H 0.53073 0.60608 0.60924 0.0
H917 H 0.54213 0.4759 0.51442 0.0
H918 H 0.50849 0.45432 0.46334 0.0
H919 H 0.50631 0.44833 0.53271 0.0
H920 H 0.44073 0.47117 0.52648 0.0
H921 H 0.44274 0.47733 0.45708 0.0
H922 H 0.43173 0.51436 0.50407 0.0
H923 H 0.53288 0.61499 0.51201 0.0
H924 H 0.53453 0.61038 0.41391 0.0
H925 H 0.49127 0.501 0.39791 0.0
C926 C 0.49403 0.5088 0.61655 0.0
C927 C 0.50462 0.53165 0.66457 0.0
C928 C 0.51763 0.567 0.66141 0.0
C929 C 0.52031 0.57924 0.61143 0.0
C930 C 0.5099 0.55584 0.565 0.0
C931 C 0.4971 0.52134 0.56717 0.0
C932 C 0.48914 0.50095 0.51158 0.0
C933 C 0.51294 0.46793 0.50515 0.0
C934 C 0.44868 0.49034 0.49908 0.0
C935 C 0.49983 0.52927 0.47769 0.0
C936 C 0.51146 0.56083 0.50918 0.0
C937 C 0.52354 0.59051 0.48693 0.0
C938 C 0.52414 0.5877 0.43109 0.0
C939 C 0.51286 0.55539 0.3981 0.0
C940 C 0.50023 0.526 0.42197 0.0
H941 H 0.02269 0.53455 0.9354 0.0
H942 H 0.04917 0.42379 0.89097 0.0
H943 H 0.04437 0.41084 0.98379 0.0
H944 H 0.07067 0.54459 0.06936 0.0
H945 H 0.03665 0.57168 0.09855 0.0
H946 H 0.04313 0.57261 0.02897 0.0
H947 H 0.97531 0.55527 1.00104 0.0
H948 H 0.9686 0.55448 0.07051 0.0
H949 H 0.95643 0.51552 0.02265 0.0
H950 H 0.03772 0.41013 0.08158 0.0
H951 H 0.02568 0.42057 0.1762 0.0
H952 H 1.00004 0.53101 0.15592 0.0
C953 C 0.02766 0.50765 0.94541 0.0
C954 C 0.0363 0.48014 0.90609 0.0
C955 C 0.0422 0.44515 0.92042 0.0
C956 C 0.03977 0.4376 0.97307 0.0
C957 C 0.03119 0.46528 1.01089 0.0
C958 C 0.02493 0.49953 0.9977 0.0
C959 C 0.0149 0.52406 0.04556 0.0
C960 C 0.04302 0.55507 0.06154 0.0
C961 C 0.97653 0.53815 0.03425 0.0
C962 C 0.01643 0.49822 0.08762 0.0
C963 C 0.02623 0.46457 0.06691 0.0
C964 C 0.02972 0.43631 0.09815 0.0
C965 C 0.02254 0.44246 0.15183 0.0
C966 C 1.01153 0.47653 0.17376 0.0
C967 C 1.00877 0.50475 0.14094 0.0
loop_
_geom_bond_atom_site_label_1
_geom_bond_atom_site_label_2
_geom_bond_distance
_geom_bond_site_symmetry_2
_ccdc_geom_bond_type
Tb0 C2 2.809 1_655 S
Tb0 O20 2.484 . S
Tb0 O21 2.440 1_655 S
Tb0 O22 2.658 1_655 S
Tb0 O23 2.409 1_655 S
Tb0 O24 2.378 1_665 S
Tb0 O28 2.325 1_565 S
Tb0 O31 2.341 . S
Tb1 C11 2.809 1_455 S
Tb1 O22 2.325 1_545 S
Tb1 O25 2.341 . S
Tb1 O26 2.484 . S
Tb1 O27 2.440 1_455 S
Tb1 O28 2.658 1_455 S
Tb1 O29 2.409 1_455 S
Tb1 O30 2.378 1_445 S
C2 Tb0 2.809 1_455 S
C2 C3 1.514 . S
C2 O20 1.248 1_455 S
C2 O21 1.266 . S
C3 C2 1.514 . S
C3 C4 1.350 1_465 S
C3 C8 1.348 . S
C4 C3 1.350 1_645 S
C4 C5 1.370 1_655 S
C4 H32 0.949 . S
C5 C4 1.370 1_455 S
C5 C6 1.347 1_545 S
C5 H33 0.931 1_455 S
C6 C5 1.347 1_565 S
C6 C7 1.369 . S
C7 C6 1.369 . S
C7 C8 1.408 . S
C7 H34 0.930 . S
C8 C3 1.348 . S
C8 C7 1.408 . S
C8 H35 0.930 . S
C9 O22 1.281 . S
C9 O23 1.254 . S
C10 O24 1.236 . S
C10 O25 1.266 . S
C11 Tb1 2.809 1_655 S
C11 C12 1.514 . S
C11 O26 1.248 1_655 S
C11 O27 1.266 . S
C12 C11 1.514 . S
C12 C13 1.359 1_645 S
C12 C17 1.348 . S
C13 C12 1.359 1_465 S
C13 C14 1.380 1_455 S
C13 H36 0.929 . S
C14 C13 1.380 1_655 S
C14 C15 1.347 1_565 S
C14 H37 0.931 1_655 S
C15 C14 1.347 1_545 S
C15 C16 1.369 . S
C16 C15 1.369 . S
C16 C17 1.408 . S
C16 H38 0.930 . S
C17 C12 1.348 . S
C17 C16 1.408 . S
C17 H39 0.930 . S
C18 O28 1.281 . S
C18 O29 1.254 . S
C19 O30 1.236 . S
C19 O31 1.266 . S
O20 Tb0 2.484 . S
O20 C2 1.248 1_655 S
O21 Tb0 2.440 1_455 S
O21 C2 1.266 . S
O22 Tb0 2.658 1_455 S
O22 Tb1 2.325 1_565 S
O22 C9 1.281 . S
O23 Tb0 2.409 1_455 S
O23 C9 1.254 . S
O24 Tb0 2.378 1_445 S
O24 C10 1.236 . S
O25 Tb1 2.341 . S
O25 C10 1.266 . S
O26 Tb1 2.484 . S
O26 C11 1.248 1_455 S
O27 Tb1 2.440 1_655 S
O27 C11 1.266 . S
O28 Tb0 2.325 1_545 S
O28 Tb1 2.658 1_655 S
O28 C18 1.281 . S
O29 Tb1 2.409 1_655 S
O29 C18 1.254 . S
O30 Tb1 2.378 1_665 S
O30 C19 1.236 . S
O31 Tb0 2.341 . S
O31 C19 1.266 . S
H32 C4 0.949 . S
H33 C5 0.931 1_655 S
H34 C7 0.930 . S
H35 C8 0.930 . S
H36 C13 0.929 . S
H37 C14 0.931 1_455 S
H38 C16 0.930 . S
H39 C17 0.930 . S
Tb40 C42 2.809 . S
Tb40 O60 2.484 . S
Tb40 O61 2.440 . S
Tb40 O62 2.658 . S
Tb40 O63 2.409 . S
Tb40 O64 2.378 . S
Tb40 O68 2.325 . S
Tb40 O71 2.341 . S
Tb41 C51 2.809 . S
Tb41 O62 2.325 . S
Tb41 O65 2.341 . S
Tb41 O66 2.484 . S
Tb41 O67 2.440 . S
Tb41 O68 2.658 . S
Tb41 O69 2.409 . S
Tb41 O70 2.378 . S
C42 Tb40 2.809 . S
C42 C43 1.514 . S
C42 O60 1.248 . S
C42 O61 1.266 . S
C43 C42 1.514 . S
C43 C44 1.359 . S
C43 C48 1.348 . S
C44 C43 1.359 . S
C44 C45 1.380 . S
C44 H72 0.929 . S
C45 C44 1.380 . S
C45 C46 1.347 . S
C45 H73 0.931 . S
C46 C45 1.347 . S
C46 C47 1.369 . S
C47 C46 1.369 . S
C47 C48 1.408 . S
C47 H74 0.930 . S
C48 C43 1.348 . S
C48 C47 1.408 . S
C48 H75 0.930 . S
C49 O62 1.281 . S
C49 O63 1.254 . S
C50 O64 1.236 . S
C50 O65 1.266 . S
C51 Tb41 2.809 . S
C51 C52 1.514 . S
C51 O66 1.248 . S
C51 O67 1.266 . S
C52 C51 1.514 . S
C52 C53 1.367 . S
C52 C57 1.348 . S
C53 C52 1.367 . S
C53 C54 1.363 1_556 S
C53 H76 0.938 . S
C54 C53 1.363 1_554 S
C54 C55 1.347 . S
C54 H77 0.931 . S
C55 C54 1.347 . S
C55 C56 1.369 . S
C56 C55 1.369 . S
C56 C57 1.408 1_554 S
C56 H78 0.930 . S
C57 C52 1.348 . S
C57 C56 1.408 1_556 S
C57 H79 0.930 . S
C58 O68 1.281 . S
C58 O69 1.254 . S
C59 O70 1.236 . S
C59 O71 1.266 . S
O60 Tb40 2.484 . S
O60 C42 1.248 . S
O61 Tb40 2.440 . S
O61 C42 1.266 . S
O62 Tb40 2.658 . S
O62 Tb41 2.325 . S
O62 C49 1.281 . S
O63 Tb40 2.409 . S
O63 C49 1.254 . S
O64 Tb40 2.378 . S
O64 C50 1.236 . S
O65 Tb41 2.341 . S
O65 C50 1.266 . S
O66 Tb41 2.484 . S
O66 C51 1.248 . S
O67 Tb41 2.440 . S
O67 C51 1.266 . S
O68 Tb40 2.325 . S
O68 Tb41 2.658 . S
O68 C58 1.281 . S
O69 Tb41 2.409 . S
O69 C58 1.254 . S
O70 Tb41 2.378 . S
O70 C59 1.236 . S
O71 Tb40 2.341 . S
O71 C59 1.266 . S
H72 C44 0.929 . S
H73 C45 0.931 . S
H74 C47 0.930 . S
H75 C48 0.930 . S
H76 C53 0.938 . S
H77 C54 0.931 . S
H78 C56 0.930 . S
H79 C57 0.930 . S
Tb80 C82 2.809 . S
Tb80 O100 2.484 1_565 S
Tb80 O101 2.440 . S
Tb80 O102 2.658 1_554 S
Tb80 O103 2.409 . S
Tb80 O104 2.378 1_565 S
Tb80 O108 2.325 1_565 S
Tb80 O111 2.341 1_554 S
Tb81 C91 2.809 . S
Tb81 O102 2.325 1_545 S
Tb81 O105 2.341 1_556 S
Tb81 O106 2.484 1_545 S
Tb81 O107 2.440 . S
Tb81 O108 2.658 1_556 S
Tb81 O109 2.409 . S
Tb81 O110 2.378 1_545 S
C82 Tb80 2.809 . S
C82 C83 1.514 . S
C82 O100 1.248 1_565 S
C82 O101 1.266 . S
C83 C82 1.514 . S
C83 C84 1.359 1_565 S
C83 C88 1.348 . S
C84 C83 1.359 1_545 S
C84 C85 1.380 . S
C84 H112 0.929 . S
C85 C84 1.380 . S
C85 C86 1.347 . S
C85 H113 0.931 . S
C86 C85 1.347 . S
C86 C87 1.369 1_545 S
C87 C86 1.369 1_565 S
C87 C88 1.408 . S
C87 H114 0.930 . S
C88 C83 1.348 . S
C88 C87 1.408 . S
C88 H115 0.930 . S
C89 O102 1.281 . S
C89 O103 1.254 1_556 S
C90 O104 1.236 . S
C90 O105 1.266 . S
C91 Tb81 2.809 . S
C91 C92 1.514 . S
C91 O106 1.248 1_545 S
C91 O107 1.266 . S
C92 C91 1.514 . S
C92 C93 1.359 1_545 S
C92 C97 1.348 . S
C93 C92 1.359 1_565 S
C93 C94 1.380 . S
C93 H116 0.929 . S
C94 C93 1.380 . S
C94 C95 1.347 . S
C94 H117 0.931 . S
C95 C94 1.347 . S
C95 C96 1.369 1_565 S
C96 C95 1.369 1_545 S
C96 C97 1.408 . S
C96 H118 0.930 . S
C97 C92 1.348 . S
C97 C96 1.408 . S
C97 H119 0.930 . S
C98 O108 1.281 . S
C98 O109 1.254 1_554 S
C99 O110 1.236 . S
C99 O111 1.266 . S
O100 Tb80 2.484 1_545 S
O100 C82 1.248 1_545 S
O101 Tb80 2.440 . S
O101 C82 1.266 . S
O102 Tb80 2.658 1_556 S
O102 Tb81 2.325 1_565 S
O102 C89 1.281 . S
O103 Tb80 2.409 . S
O103 C89 1.254 1_554 S
O104 Tb80 2.378 1_545 S
O104 C90 1.236 . S
O105 Tb81 2.341 1_554 S
O105 C90 1.266 . S
O106 Tb81 2.484 1_565 S
O106 C91 1.248 1_565 S
O107 Tb81 2.440 . S
O107 C91 1.266 . S
O108 Tb80 2.325 1_545 S
O108 Tb81 2.658 1_554 S
O108 C98 1.281 . S
O109 Tb81 2.409 . S
O109 C98 1.254 1_556 S
O110 Tb81 2.378 1_565 S
O110 C99 1.236 . S
O111 Tb80 2.341 1_556 S
O111 C99 1.266 . S
H112 C84 0.929 . S
H113 C85 0.931 . S
H114 C87 0.930 . S
H115 C88 0.930 . S
H116 C93 0.929 . S
H117 C94 0.931 . S
H118 C96 0.930 . S
H119 C97 0.930 . S
Tb120 C122 2.809 . S
Tb120 O140 2.484 . S
Tb120 O141 2.440 . S
Tb120 O142 2.658 . S
Tb120 O143 2.409 . S
Tb120 O144 2.378 . S
Tb120 O148 2.325 . S
Tb120 O151 2.341 . S
Tb121 C131 2.809 . S
Tb121 O142 2.325 . S
Tb121 O145 2.341 . S
Tb121 O146 2.484 . S
Tb121 O147 2.440 . S
Tb121 O148 2.658 . S
Tb121 O149 2.409 . S
Tb121 O150 2.378 . S
C122 Tb120 2.809 . S
C122 C123 1.514 . S
C122 O140 1.248 . S
C122 O141 1.266 . S
C123 C122 1.514 . S
C123 C124 1.359 . S
C123 C128 1.348 . S
C124 C123 1.359 . S
C124 C125 1.380 . S
C124 H152 0.929 . S
C125 C124 1.380 . S
C125 C126 1.347 . S
C125 H153 0.931 . S
C126 C125 1.347 . S
C126 C127 1.369 . S
C127 C126 1.369 . S
C127 C128 1.408 . S
C127 H154 0.930 . S
C128 C123 1.348 . S
C128 C127 1.408 . S
C128 H155 0.930 . S
C129 O142 1.281 . S
C129 O143 1.254 . S
C130 O144 1.236 . S
C130 O145 1.266 . S
C131 Tb121 2.809 . S
C131 C132 1.514 . S
C131 O146 1.248 . S
C131 O147 1.266 . S
C132 C131 1.514 . S
C132 C133 1.359 . S
C132 C137 1.348 . S
C133 C132 1.359 . S
C133 C134 1.380 1_554 S
C133 H156 0.929 . S
C134 C133 1.380 1_556 S
C134 C135 1.347 . S
C134 H157 0.931 . S
C135 C134 1.347 . S
C135 C136 1.369 . S
C136 C135 1.369 . S
C136 C137 1.408 1_556 S
C136 H158 0.930 . S
C137 C132 1.348 . S
C137 C136 1.408 1_554 S
C137 H159 0.930 . S
C138 O148 1.281 . S
C138 O149 1.254 . S
C139 O150 1.236 . S
C139 O151 1.266 . S
O140 Tb120 2.484 . S
O140 C122 1.248 . S
O141 Tb120 2.440 . S
O141 C122 1.266 . S
O142 Tb120 2.658 . S
O142 Tb121 2.325 . S
O142 C129 1.281 . S
O143 Tb120 2.409 . S
O143 C129 1.254 . S
O144 Tb120 2.378 . S
O144 C130 1.236 . S
O145 Tb121 2.341 . S
O145 C130 1.266 . S
O146 Tb121 2.484 . S
O146 C131 1.248 . S
O147 Tb121 2.440 . S
O147 C131 1.266 . S
O148 Tb120 2.325 . S
O148 Tb121 2.658 . S
O148 C138 1.281 . S
O149 Tb121 2.409 . S
O149 C138 1.254 . S
O150 Tb121 2.378 . S
O150 C139 1.236 . S
O151 Tb120 2.341 . S
O151 C139 1.266 . S
H152 C124 0.929 . S
H153 C125 0.931 . S
H154 C127 0.930 . S
H155 C128 0.930 . S
H156 C133 0.929 . S
H157 C134 0.931 . S
H158 C136 0.930 . S
H159 C137 0.930 . S
Tb160 C162 2.809 . S
Tb160 O180 2.484 . S
Tb160 O181 2.440 . S
Tb160 O182 2.658 . S
Tb160 O183 2.409 . S
Tb160 O184 2.378 . S
Tb160 O188 2.325 . S
Tb160 O191 2.341 . S
Tb161 C171 2.809 . S
Tb161 O182 2.325 . S
Tb161 O185 2.341 . S
Tb161 O186 2.484 . S
Tb161 O187 2.440 . S
Tb161 O188 2.658 . S
Tb161 O189 2.409 . S
Tb161 O190 2.378 . S
C162 Tb160 2.809 . S
C162 C163 1.514 . S
C162 O180 1.248 . S
C162 O181 1.266 . S
C163 C162 1.514 . S
C163 C164 1.368 . S
C163 C168 1.348 . S
C164 C163 1.368 . S
C164 C165 1.361 1_554 S
C164 H192 0.939 . S
C165 C164 1.361 1_556 S
C165 C166 1.347 . S
C165 H193 0.931 . S
C166 C165 1.347 . S
C166 C167 1.369 . S
C167 C166 1.369 . S
C167 C168 1.408 1_556 S
C167 H194 0.930 . S
C168 C163 1.348 . S
C168 C167 1.408 1_554 S
C168 H195 0.930 . S
C169 O182 1.281 . S
C169 O183 1.254 . S
C170 O184 1.236 . S
C170 O185 1.266 . S
C171 Tb161 2.809 . S
C171 C172 1.514 . S
C171 O186 1.248 . S
C171 O187 1.266 . S
C172 C171 1.514 . S
C172 C173 1.359 . S
C172 C177 1.348 . S
C173 C172 1.359 . S
C173 C174 1.380 . S
C173 H196 0.929 . S
C174 C173 1.380 . S
C174 C175 1.347 . S
C174 H197 0.931 . S
C175 C174 1.347 . S
C175 C176 1.369 . S
C176 C175 1.369 . S
C176 C177 1.408 . S
C176 H198 0.930 . S
C177 C172 1.348 . S
C177 C176 1.408 . S
C177 H199 0.930 . S
C178 O188 1.281 . S
C178 O189 1.254 . S
C179 O190 1.236 . S
C179 O191 1.266 . S
O180 Tb160 2.484 . S
O180 C162 1.248 . S
O181 Tb160 2.440 . S
O181 C162 1.266 . S
O182 Tb160 2.658 . S
O182 Tb161 2.325 . S
O182 C169 1.281 . S
O183 Tb160 2.409 . S
O183 C169 1.254 . S
O184 Tb160 2.378 . S
O184 C170 1.236 . S
O185 Tb161 2.341 . S
O185 C170 1.266 . S
O186 Tb161 2.484 . S
O186 C171 1.248 . S
O187 Tb161 2.440 . S
O187 C171 1.266 . S
O188 Tb160 2.325 . S
O188 Tb161 2.658 . S
O188 C178 1.281 . S
O189 Tb161 2.409 . S
O189 C178 1.254 . S
O190 Tb161 2.378 . S
O190 C179 1.236 . S
O191 Tb160 2.341 . S
O191 C179 1.266 . S
H192 C164 0.939 . S
H193 C165 0.931 . S
H194 C167 0.930 . S
H195 C168 0.930 . S
H196 C173 0.929 . S
H197 C174 0.931 . S
H198 C176 0.930 . S
H199 C177 0.930 . S
Tb200 C202 2.809 . S
Tb200 O220 2.484 . S
Tb200 O221 2.440 . S
Tb200 O222 2.658 . S
Tb200 O223 2.409 . S
Tb200 O224 2.378 . S
Tb200 O228 2.325 . S
Tb200 O231 2.341 . S
Tb201 C211 2.809 . S
Tb201 O222 2.325 . S
Tb201 O225 2.341 . S
Tb201 O226 2.484 . S
Tb201 O227 2.440 . S
Tb201 O228 2.658 . S
Tb201 O229 2.409 . S
Tb201 O230 2.378 . S
C202 Tb200 2.809 . S
C202 C203 1.514 . S
C202 O220 1.248 . S
C202 O221 1.266 . S
C203 C202 1.514 . S
C203 C204 1.359 . S
C203 C208 1.348 . S
C204 C203 1.359 . S
C204 C205 1.380 1_556 S
C204 H232 0.929 . S
C205 C204 1.380 1_554 S
C205 C206 1.347 . S
C205 H233 0.931 . S
C206 C205 1.347 . S
C206 C207 1.369 . S
C207 C206 1.369 . S
C207 C208 1.408 1_554 S
C207 H234 0.930 . S
C208 C203 1.348 . S
C208 C207 1.408 1_556 S
C208 H235 0.930 . S
C209 O222 1.281 . S
C209 O223 1.254 . S
C210 O224 1.236 . S
C210 O225 1.266 . S
C211 Tb201 2.809 . S
C211 C212 1.514 . S
C211 O226 1.248 . S
C211 O227 1.266 . S
C212 C211 1.514 . S
C212 C213 1.359 . S
C212 C217 1.348 . S
C213 C212 1.359 . S
C213 C214 1.380 . S
C213 H236 0.929 . S
C214 C213 1.380 . S
C214 C215 1.347 . S
C214 H237 0.931 . S
C215 C214 1.347 . S
C215 C216 1.369 . S
C216 C215 1.369 . S
C216 C217 1.408 . S
C216 H238 0.930 . S
C217 C212 1.348 . S
C217 C216 1.408 . S
C217 H239 0.930 . S
C218 O228 1.281 . S
C218 O229 1.254 . S
C219 O230 1.236 . S
C219 O231 1.266 . S
O220 Tb200 2.484 . S
O220 C202 1.248 . S
O221 Tb200 2.440 . S
O221 C202 1.266 . S
O222 Tb200 2.658 . S
O222 Tb201 2.325 . S
O222 C209 1.281 . S
O223 Tb200 2.409 . S
O223 C209 1.254 . S
O224 Tb200 2.378 . S
O224 C210 1.236 . S
O225 Tb201 2.341 . S
O225 C210 1.266 . S
O226 Tb201 2.484 . S
O226 C211 1.248 . S
O227 Tb201 2.440 . S
O227 C211 1.266 . S
O228 Tb200 2.325 . S
O228 Tb201 2.658 . S
O228 C218 1.281 . S
O229 Tb201 2.409 . S
O229 C218 1.254 . S
O230 Tb201 2.378 . S
O230 C219 1.236 . S
O231 Tb200 2.341 . S
O231 C219 1.266 . S
H232 C204 0.929 . S
H233 C205 0.931 . S
H234 C207 0.930 . S
H235 C208 0.930 . S
H236 C213 0.929 . S
H237 C214 0.931 . S
H238 C216 0.930 . S
H239 C217 0.930 . S
Tb240 C242 2.809 . S
Tb240 O260 2.484 . S
Tb240 O261 2.440 . S
Tb240 O262 2.658 1_556 S
Tb240 O263 2.409 . S
Tb240 O264 2.378 . S
Tb240 O268 2.325 . S
Tb240 O271 2.341 . S
Tb241 C251 2.809 . S
Tb241 O262 2.325 . S
Tb241 O265 2.341 . S
Tb241 O266 2.484 . S
Tb241 O267 2.440 . S
Tb241 O268 2.658 1_554 S
Tb241 O269 2.409 . S
Tb241 O270 2.378 . S
C242 Tb240 2.809 . S
C242 C243 1.514 . S
C242 O260 1.248 . S
C242 O261 1.266 . S
C243 C242 1.514 . S
C243 C244 1.359 . S
C243 C248 1.348 . S
C244 C243 1.359 . S
C244 C245 1.380 . S
C244 H272 0.929 . S
C245 C244 1.380 . S
C245 C246 1.347 . S
C245 H273 0.931 . S
C246 C245 1.347 . S
C246 C247 1.369 . S
C247 C246 1.369 . S
C247 C248 1.408 . S
C247 H274 0.930 . S
C248 C243 1.348 . S
C248 C247 1.408 . S
C248 H275 0.930 . S
C249 O262 1.281 . S
C249 O263 1.254 1_554 S
C250 O264 1.236 . S
C250 O265 1.266 1_556 S
C251 Tb241 2.809 . S
C251 C252 1.514 . S
C251 O266 1.248 . S
C251 O267 1.266 . S
C252 C251 1.514 . S
C252 C253 1.359 . S
C252 C257 1.348 . S
C253 C252 1.359 . S
C253 C254 1.380 . S
C253 H276 0.929 . S
C254 C253 1.380 . S
C254 C255 1.347 . S
C254 H277 0.931 . S
C255 C254 1.347 . S
C255 C256 1.369 . S
C256 C255 1.369 . S
C256 C257 1.408 . S
C256 H278 0.930 . S
C257 C252 1.348 . S
C257 C256 1.408 . S
C257 H279 0.930 . S
C258 O268 1.281 . S
C258 O269 1.254 1_556 S
C259 O270 1.236 . S
C259 O271 1.266 1_554 S
O260 Tb240 2.484 . S
O260 C242 1.248 . S
O261 Tb240 2.440 . S
O261 C242 1.266 . S
O262 Tb240 2.658 1_554 S
O262 Tb241 2.325 . S
O262 C249 1.281 . S
O263 Tb240 2.409 . S
O263 C249 1.254 1_556 S
O264 Tb240 2.378 . S
O264 C250 1.236 . S
O265 Tb241 2.341 . S
O265 C250 1.266 1_554 S
O266 Tb241 2.484 . S
O266 C251 1.248 . S
O267 Tb241 2.440 . S
O267 C251 1.266 . S
O268 Tb240 2.325 . S
O268 Tb241 2.658 1_556 S
O268 C258 1.281 . S
O269 Tb241 2.409 . S
O269 C258 1.254 1_554 S
O270 Tb241 2.378 . S
O270 C259 1.236 . S
O271 Tb240 2.341 . S
O271 C259 1.266 1_556 S
H272 C244 0.929 . S
H273 C245 0.931 . S
H274 C247 0.930 . S
H275 C248 0.930 . S
H276 C253 0.929 . S
H277 C254 0.931 . S
H278 C256 0.930 . S
H279 C257 0.930 . S
Tb280 C282 2.809 1_455 S
Tb280 O300 2.484 . S
Tb280 O301 2.440 1_455 S
Tb280 O302 2.658 1_455 S
Tb280 O303 2.409 1_455 S
Tb280 O304 2.378 1_455 S
Tb280 O308 2.325 . S
Tb280 O311 2.341 . S
Tb281 C291 2.809 1_655 S
Tb281 O302 2.325 . S
Tb281 O305 2.341 . S
Tb281 O306 2.484 . S
Tb281 O307 2.440 1_655 S
Tb281 O308 2.658 1_655 S
Tb281 O309 2.409 1_655 S
Tb281 O310 2.378 1_655 S
C282 Tb280 2.809 1_655 S
C282 C283 1.514 . S
C282 O300 1.248 1_655 S
C282 O301 1.266 . S
C283 C282 1.514 . S
C283 C284 1.359 1_655 S
C283 C288 1.348 . S
C284 C283 1.359 1_455 S
C284 C285 1.380 1_455 S
C284 H312 0.929 . S
C285 C284 1.380 1_655 S
C285 C286 1.347 . S
C285 H313 0.931 1_655 S
C286 C285 1.347 . S
C286 C287 1.369 . S
C287 C286 1.369 . S
C287 C288 1.408 . S
C287 H314 0.930 . S
C288 C283 1.348 . S
C288 C287 1.408 . S
C288 H315 0.930 . S
C289 O302 1.281 . S
C289 O303 1.254 . S
C290 O304 1.236 . S
C290 O305 1.266 . S
C291 Tb281 2.809 1_455 S
C291 C292 1.514 . S
C291 O306 1.248 1_455 S
C291 O307 1.266 . S
C292 C291 1.514 . S
C292 C293 1.359 1_455 S
C292 C297 1.348 . S
C293 C292 1.359 1_655 S
C293 C294 1.380 1_655 S
C293 H316 0.929 . S
C294 C293 1.380 1_455 S
C294 C295 1.347 . S
C294 H317 0.931 1_455 S
C295 C294 1.347 . S
C295 C296 1.369 . S
C296 C295 1.369 . S
C296 C297 1.408 . S
C296 H318 0.930 . S
C297 C292 1.348 . S
C297 C296 1.408 . S
C297 H319 0.930 . S
C298 O308 1.281 . S
C298 O309 1.254 . S
C299 O310 1.236 . S
C299 O311 1.266 . S
O300 Tb280 2.484 . S
O300 C282 1.248 1_455 S
O301 Tb280 2.440 1_655 S
O301 C282 1.266 . S
O302 Tb280 2.658 1_655 S
O302 Tb281 2.325 . S
O302 C289 1.281 . S
O303 Tb280 2.409 1_655 S
O303 C289 1.254 . S
O304 Tb280 2.378 1_655 S
O304 C290 1.236 . S
O305 Tb281 2.341 . S
O305 C290 1.266 . S
O306 Tb281 2.484 . S
O306 C291 1.248 1_655 S
O307 Tb281 2.440 1_455 S
O307 C291 1.266 . S
O308 Tb280 2.325 . S
O308 Tb281 2.658 1_455 S
O308 C298 1.281 . S
O309 Tb281 2.409 1_455 S
O309 C298 1.254 . S
O310 Tb281 2.378 1_455 S
O310 C299 1.236 . S
O311 Tb280 2.341 . S
O311 C299 1.266 . S
H312 C284 0.929 . S
H313 C285 0.931 1_455 S
H314 C287 0.930 . S
H315 C288 0.930 . S
H316 C293 0.929 . S
H317 C294 0.931 1_655 S
H318 C296 0.930 . S
H319 C297 0.930 . S
H320 C332 0.930 . S
H321 C334 0.930 . S
H322 C335 0.930 . S
H323 C339 0.959 . S
H324 C339 0.959 . S
H325 C339 0.961 . S
H326 C340 0.960 . S
H327 C340 0.961 . S
H328 C340 0.959 . S
H329 C343 0.929 . S
H330 C344 0.931 . S
H331 C346 0.930 . S
C332 H320 0.930 . S
C332 C333 1.399 . S
C332 C337 1.399 . S
C333 C332 1.399 . S
C333 C334 1.376 . S
C334 H321 0.930 . S
C334 C333 1.376 . S
C334 C335 1.388 . S
C335 H322 0.930 . S
C335 C334 1.388 . S
C335 C336 1.390 . S
C336 C335 1.390 . S
C336 C337 1.394 . S
C336 C342 1.465 . S
C337 C332 1.399 . S
C337 C336 1.394 . S
C337 C338 1.516 . S
C338 C337 1.516 . S
C338 C339 1.502 . S
C338 C340 1.561 . S
C338 C341 1.526 . S
C339 H323 0.959 . S
C339 H324 0.959 . S
C339 H325 0.961 . S
C339 C338 1.502 . S
C340 H326 0.960 . S
C340 H327 0.961 . S
C340 H328 0.959 . S
C340 C338 1.561 . S
C341 C338 1.526 . S
C341 C342 1.396 . S
C341 C346 1.390 . S
C342 C336 1.465 . S
C342 C341 1.396 . S
C342 C343 1.399 . S
C343 H329 0.929 . S
C343 C342 1.399 . S
C343 C344 1.385 . S
C344 H330 0.931 . S
C344 C343 1.385 . S
C344 C345 1.389 . S
C345 C344 1.389 . S
C345 C346 1.387 . S
C346 H331 0.930 . S
C346 C341 1.390 . S
C346 C345 1.387 . S
H347 C359 0.930 . S
H348 C361 0.930 . S
H349 C362 0.930 . S
H350 C366 0.959 . S
H351 C366 0.959 . S
H352 C366 0.961 . S
H353 C367 0.960 . S
H354 C367 0.961 . S
H355 C367 0.959 . S
H356 C370 0.929 . S
H357 C371 0.931 . S
H358 C373 0.930 . S
C359 H347 0.930 . S
C359 C360 1.399 . S
C359 C364 1.399 . S
C360 C359 1.399 . S
C360 C361 1.376 . S
C361 H348 0.930 . S
C361 C360 1.376 . S
C361 C362 1.388 . S
C362 H349 0.930 . S
C362 C361 1.388 . S
C362 C363 1.390 . S
C363 C362 1.390 . S
C363 C364 1.394 . S
C363 C369 1.465 . S
C364 C359 1.399 . S
C364 C363 1.394 . S
C364 C365 1.516 . S
C365 C364 1.516 . S
C365 C366 1.502 . S
C365 C367 1.561 . S
C365 C368 1.526 . S
C366 H350 0.959 . S
C366 H351 0.959 . S
C366 H352 0.961 . S
C366 C365 1.502 . S
C367 H353 0.960 . S
C367 H354 0.961 . S
C367 H355 0.959 . S
C367 C365 1.561 . S
C368 C365 1.526 . S
C368 C369 1.396 . S
C368 C373 1.390 . S
C369 C363 1.465 . S
C369 C368 1.396 . S
C369 C370 1.399 . S
C370 H356 0.929 . S
C370 C369 1.399 . S
C370 C371 1.385 . S
C371 H357 0.931 . S
C371 C370 1.385 . S
C371 C372 1.389 . S
C372 C371 1.389 . S
C372 C373 1.387 . S
C373 H358 0.930 . S
C373 C368 1.390 . S
C373 C372 1.387 . S
H374 C386 0.930 . S
H375 C388 0.930 . S
H376 C389 0.930 . S
H377 C393 0.959 . S
H378 C393 0.959 . S
H379 C393 0.961 . S
H380 C394 0.960 . S
H381 C394 0.961 . S
H382 C394 0.959 . S
H383 C397 0.929 . S
H384 C398 0.931 1_554 S
H385 C400 0.930 . S
C386 H374 0.930 . S
C386 C387 1.399 . S
C386 C391 1.399 . S
C387 C386 1.399 . S
C387 C388 1.376 . S
C388 H375 0.930 . S
C388 C387 1.376 . S
C388 C389 1.388 . S
C389 H376 0.930 . S
C389 C388 1.388 . S
C389 C390 1.390 . S
C390 C389 1.390 . S
C390 C391 1.394 . S
C390 C396 1.465 . S
C391 C386 1.399 . S
C391 C390 1.394 . S
C391 C392 1.516 . S
C392 C391 1.516 . S
C392 C393 1.502 . S
C392 C394 1.561 . S
C392 C395 1.526 . S
C393 H377 0.959 . S
C393 H378 0.959 . S
C393 H379 0.961 . S
C393 C392 1.502 . S
C394 H380 0.960 . S
C394 H381 0.961 . S
C394 H382 0.959 . S
C394 C392 1.561 . S
C395 C392 1.526 . S
C395 C396 1.396 . S
C395 C400 1.390 . S
C396 C390 1.465 . S
C396 C395 1.396 . S
C396 C397 1.399 . S
C397 H383 0.929 . S
C397 C396 1.399 . S
C397 C398 1.385 . S
C398 H384 0.931 1_556 S
C398 C397 1.385 . S
C398 C399 1.389 . S
C399 C398 1.389 . S
C399 C400 1.387 . S
C400 H385 0.930 . S
C400 C395 1.390 . S
C400 C399 1.387 . S
H401 C413 0.930 . S
H402 C415 0.930 . S
H403 C416 0.930 . S
H404 C420 0.959 . S
H405 C420 0.959 . S
H406 C420 0.961 . S
H407 C421 0.960 . S
H408 C421 0.961 . S
H409 C421 0.959 . S
H410 C424 0.929 . S
H411 C425 0.931 . S
H412 C427 0.930 . S
C413 H401 0.930 . S
C413 C414 1.399 . S
C413 C418 1.399 . S
C414 C413 1.399 . S
C414 C415 1.376 . S
C415 H402 0.930 . S
C415 C414 1.376 . S
C415 C416 1.388 . S
C416 H403 0.930 . S
C416 C415 1.388 . S
C416 C417 1.390 . S
C417 C416 1.390 . S
C417 C418 1.394 . S
C417 C423 1.465 . S
C418 C413 1.399 . S
C418 C417 1.394 . S
C418 C419 1.516 . S
C419 C418 1.516 . S
C419 C420 1.502 . S
C419 C421 1.561 . S
C419 C422 1.526 . S
C420 H404 0.959 . S
C420 H405 0.959 . S
C420 H406 0.961 . S
C420 C419 1.502 . S
C421 H407 0.960 . S
C421 H408 0.961 . S
C421 H409 0.959 . S
C421 C419 1.561 . S
C422 C419 1.526 . S
C422 C423 1.396 . S
C422 C427 1.390 . S
C423 C417 1.465 . S
C423 C422 1.396 . S
C423 C424 1.399 . S
C424 H410 0.929 . S
C424 C423 1.399 . S
C424 C425 1.385 . S
C425 H411 0.931 . S
C425 C424 1.385 . S
C425 C426 1.389 . S
C426 C425 1.389 . S
C426 C427 1.387 . S
C427 H412 0.930 . S
C427 C422 1.390 . S
C427 C426 1.387 . S
H428 C440 0.930 . S
H429 C442 0.930 . S
H430 C443 0.930 . S
H431 C447 0.959 . S
H432 C447 0.959 . S
H433 C447 0.961 . S
H434 C448 0.960 . S
H435 C448 0.961 . S
H436 C448 0.959 . S
H437 C451 0.929 . S
H438 C452 0.931 . S
H439 C454 0.930 . S
C440 H428 0.930 . S
C440 C441 1.399 . S
C440 C445 1.399 . S
C441 C440 1.399 . S
C441 C442 1.376 . S
C442 H429 0.930 . S
C442 C441 1.376 . S
C442 C443 1.388 . S
C443 H430 0.930 . S
C443 C442 1.388 . S
C443 C444 1.390 . S
C444 C443 1.390 . S
C444 C445 1.394 . S
C444 C450 1.465 . S
C445 C440 1.399 . S
C445 C444 1.394 . S
C445 C446 1.516 . S
C446 C445 1.516 . S
C446 C447 1.502 . S
C446 C448 1.561 . S
C446 C449 1.526 . S
C447 H431 0.959 . S
C447 H432 0.959 . S
C447 H433 0.961 . S
C447 C446 1.502 . S
C448 H434 0.960 . S
C448 H435 0.961 . S
C448 H436 0.959 . S
C448 C446 1.561 . S
C449 C446 1.526 . S
C449 C450 1.396 . S
C449 C454 1.390 . S
C450 C444 1.465 . S
C450 C449 1.396 . S
C450 C451 1.399 . S
C451 H437 0.929 . S
C451 C450 1.399 . S
C451 C452 1.385 . S
C452 H438 0.931 . S
C452 C451 1.385 . S
C452 C453 1.389 . S
C453 C452 1.389 . S
C453 C454 1.387 . S
C454 H439 0.930 . S
C454 C449 1.390 . S
C454 C453 1.387 . S
H455 C467 0.930 . S
H456 C469 0.930 . S
H457 C470 0.930 . S
H458 C474 0.959 . S
H459 C474 0.959 . S
H460 C474 0.961 . S
H461 C475 0.960 . S
H462 C475 0.961 . S
H463 C475 0.959 . S
H464 C478 0.929 . S
H465 C479 0.931 . S
H466 C481 0.930 . S
C467 H455 0.930 . S
C467 C468 1.399 . S
C467 C472 1.399 . S
C468 C467 1.399 . S
C468 C469 1.376 . S
C469 H456 0.930 . S
C469 C468 1.376 . S
C469 C470 1.388 . S
C470 H457 0.930 . S
C470 C469 1.388 . S
C470 C471 1.390 . S
C471 C470 1.390 . S
C471 C472 1.394 . S
C471 C477 1.465 . S
C472 C467 1.399 . S
C472 C471 1.394 . S
C472 C473 1.516 . S
C473 C472 1.516 . S
C473 C474 1.502 . S
C473 C475 1.561 . S
C473 C476 1.526 . S
C474 H458 0.959 . S
C474 H459 0.959 . S
C474 H460 0.961 . S
C474 C473 1.502 . S
C475 H461 0.960 . S
C475 H462 0.961 . S
C475 H463 0.959 . S
C475 C473 1.561 . S
C476 C473 1.526 . S
C476 C477 1.396 . S
C476 C481 1.390 . S
C477 C471 1.465 . S
C477 C476 1.396 . S
C477 C478 1.399 . S
C478 H464 0.929 . S
C478 C477 1.399 . S
C478 C479 1.385 . S
C479 H465 0.931 . S
C479 C478 1.385 . S
C479 C480 1.389 . S
C480 C479 1.389 . S
C480 C481 1.387 . S
C481 H466 0.930 . S
C481 C476 1.390 . S
C481 C480 1.387 . S
H482 C494 0.930 . S
H483 C496 0.930 . S
H484 C497 0.930 . S
H485 C501 0.959 . S
H486 C501 0.959 . S
H487 C501 0.961 . S
H488 C502 0.960 . S
H489 C502 0.961 . S
H490 C502 0.959 . S
H491 C505 0.929 . S
H492 C506 0.931 . S
H493 C508 0.930 . S
C494 H482 0.930 . S
C494 C495 1.399 . S
C494 C499 1.399 . S
C495 C494 1.399 . S
C495 C496 1.376 . S
C496 H483 0.930 . S
C496 C495 1.376 . S
C496 C497 1.388 . S
C497 H484 0.930 . S
C497 C496 1.388 . S
C497 C498 1.390 . S
C498 C497 1.390 . S
C498 C499 1.394 . S
C498 C504 1.465 . S
C499 C494 1.399 . S
C499 C498 1.394 . S
C499 C500 1.516 . S
C500 C499 1.516 . S
C500 C501 1.502 . S
C500 C502 1.561 . S
C500 C503 1.526 . S
C501 H485 0.959 . S
C501 H486 0.959 . S
C501 H487 0.961 . S
C501 C500 1.502 . S
C502 H488 0.960 . S
C502 H489 0.961 . S
C502 H490 0.959 . S
C502 C500 1.561 . S
C503 C500 1.526 . S
C503 C504 1.396 . S
C503 C508 1.390 . S
C504 C498 1.465 . S
C504 C503 1.396 . S
C504 C505 1.399 . S
C505 H491 0.929 . S
C505 C504 1.399 . S
C505 C506 1.385 . S
C506 H492 0.931 . S
C506 C505 1.385 . S
C506 C507 1.389 . S
C507 C506 1.389 . S
C507 C508 1.387 . S
C508 H493 0.930 . S
C508 C503 1.390 . S
C508 C507 1.387 . S
H509 C521 0.930 . S
H510 C523 0.930 . S
H511 C524 0.930 . S
H512 C528 0.959 . S
H513 C528 0.959 . S
H514 C528 0.961 . S
H515 C529 0.960 . S
H516 C529 0.961 . S
H517 C529 0.959 . S
H518 C532 0.929 . S
H519 C533 0.931 . S
H520 C535 0.930 . S
C521 H509 0.930 . S
C521 C522 1.399 . S
C521 C526 1.399 . S
C522 C521 1.399 . S
C522 C523 1.376 . S
C523 H510 0.930 . S
C523 C522 1.376 . S
C523 C524 1.388 . S
C524 H511 0.930 . S
C524 C523 1.388 . S
C524 C525 1.390 . S
C525 C524 1.390 . S
C525 C526 1.394 . S
C525 C531 1.465 . S
C526 C521 1.399 . S
C526 C525 1.394 . S
C526 C527 1.516 . S
C527 C526 1.516 . S
C527 C528 1.502 . S
C527 C529 1.561 . S
C527 C530 1.526 . S
C528 H512 0.959 . S
C528 H513 0.959 . S
C528 H514 0.961 . S
C528 C527 1.502 . S
C529 H515 0.960 . S
C529 H516 0.961 . S
C529 H517 0.959 . S
C529 C527 1.561 . S
C530 C527 1.526 . S
C530 C531 1.396 . S
C530 C535 1.390 . S
C531 C525 1.465 . S
C531 C530 1.396 . S
C531 C532 1.399 . S
C532 H518 0.929 . S
C532 C531 1.399 . S
C532 C533 1.385 . S
C533 H519 0.931 . S
C533 C532 1.385 . S
C533 C534 1.389 . S
C534 C533 1.389 . S
C534 C535 1.387 . S
C535 H520 0.930 . S
C535 C530 1.390 . S
C535 C534 1.387 . S
H536 C548 0.930 . S
H537 C550 0.930 . S
H538 C551 0.930 . S
H539 C555 0.959 . S
H540 C555 0.959 . S
H541 C555 0.961 . S
H542 C556 0.960 . S
H543 C556 0.961 . S
H544 C556 0.959 . S
H545 C559 0.929 . S
H546 C560 0.931 . S
H547 C562 0.930 . S
C548 H536 0.930 . S
C548 C549 1.399 . S
C548 C553 1.399 . S
C549 C548 1.399 . S
C549 C550 1.376 . S
C550 H537 0.930 . S
C550 C549 1.376 . S
C550 C551 1.388 . S
C551 H538 0.930 . S
C551 C550 1.388 . S
C551 C552 1.390 . S
C552 C551 1.390 . S
C552 C553 1.394 . S
C552 C558 1.465 . S
C553 C548 1.399 . S
C553 C552 1.394 . S
C553 C554 1.516 . S
C554 C553 1.516 . S
C554 C555 1.502 . S
C554 C556 1.561 . S
C554 C557 1.526 . S
C555 H539 0.959 . S
C555 H540 0.959 . S
C555 H541 0.961 . S
C555 C554 1.502 . S
C556 H542 0.960 . S
C556 H543 0.961 . S
C556 H544 0.959 . S
C556 C554 1.561 . S
C557 C554 1.526 . S
C557 C558 1.396 . S
C557 C562 1.390 . S
C558 C552 1.465 . S
C558 C557 1.396 . S
C558 C559 1.399 . S
C559 H545 0.929 . S
C559 C558 1.399 . S
C559 C560 1.385 . S
C560 H546 0.931 . S
C560 C559 1.385 . S
C560 C561 1.389 . S
C561 C560 1.389 . S
C561 C562 1.387 . S
C562 H547 0.930 . S
C562 C557 1.390 . S
C562 C561 1.387 . S
H563 C575 0.930 . S
H564 C577 0.930 . S
H565 C578 0.930 . S
H566 C582 0.959 . S
H567 C582 0.959 1_556 S
H568 C582 0.961 . S
H569 C583 0.960 . S
H570 C583 0.961 . S
H571 C583 0.959 . S
H572 C586 0.929 . S
H573 C587 0.931 . S
H574 C589 0.930 1_556 S
C575 H563 0.930 . S
C575 C576 1.399 . S
C575 C580 1.399 . S
C576 C575 1.399 . S
C576 C577 1.376 . S
C577 H564 0.930 . S
C577 C576 1.376 . S
C577 C578 1.388 . S
C578 H565 0.930 . S
C578 C577 1.388 . S
C578 C579 1.390 . S
C579 C578 1.390 . S
C579 C580 1.394 . S
C579 C585 1.465 . S
C580 C575 1.399 . S
C580 C579 1.394 . S
C580 C581 1.516 . S
C581 C580 1.516 . S
C581 C582 1.502 . S
C581 C583 1.561 . S
C581 C584 1.526 . S
C582 H566 0.959 . S
C582 H567 0.959 1_554 S
C582 H568 0.961 . S
C582 C581 1.502 . S
C583 H569 0.960 . S
C583 H570 0.961 . S
C583 H571 0.959 . S
C583 C581 1.561 . S
C584 C581 1.526 . S
C584 C585 1.396 . S
C584 C589 1.390 . S
C585 C579 1.465 . S
C585 C584 1.396 . S
C585 C586 1.399 . S
C586 H572 0.929 . S
C586 C585 1.399 . S
C586 C587 1.385 . S
C587 H573 0.931 . S
C587 C586 1.385 . S
C587 C588 1.389 . S
C588 C587 1.389 . S
C588 C589 1.387 . S
C589 H574 0.930 1_554 S
C589 C584 1.390 . S
C589 C588 1.387 . S
H590 C602 0.930 . S
H591 C604 0.930 . S
H592 C605 0.930 . S
H593 C609 0.959 . S
H594 C609 0.959 . S
H595 C609 0.961 . S
H596 C610 0.960 . S
H597 C610 0.961 . S
H598 C610 0.959 . S
H599 C613 0.929 . S
H600 C614 0.931 . S
H601 C616 0.930 . S
C602 H590 0.930 . S
C602 C603 1.399 . S
C602 C607 1.399 . S
C603 C602 1.399 . S
C603 C604 1.376 . S
C604 H591 0.930 . S
C604 C603 1.376 . S
C604 C605 1.388 . S
C605 H592 0.930 . S
C605 C604 1.388 . S
C605 C606 1.390 . S
C606 C605 1.390 . S
C606 C607 1.394 . S
C606 C612 1.465 . S
C607 C602 1.399 . S
C607 C606 1.394 . S
C607 C608 1.516 . S
C608 C607 1.516 . S
C608 C609 1.502 . S
C608 C610 1.561 . S
C608 C611 1.526 . S
C609 H593 0.959 . S
C609 H594 0.959 . S
C609 H595 0.961 . S
C609 C608 1.502 . S
C610 H596 0.960 . S
C610 H597 0.961 . S
C610 H598 0.959 . S
C610 C608 1.561 . S
C611 C608 1.526 . S
C611 C612 1.396 . S
C611 C616 1.390 . S
C612 C606 1.465 . S
C612 C611 1.396 . S
C612 C613 1.399 . S
C613 H599 0.929 . S
C613 C612 1.399 . S
C613 C614 1.385 . S
C614 H600 0.931 . S
C614 C613 1.385 . S
C614 C615 1.389 . S
C615 C614 1.389 . S
C615 C616 1.387 . S
C616 H601 0.930 . S
C616 C611 1.390 . S
C616 C615 1.387 . S
H617 C629 0.930 . S
H618 C631 0.930 . S
H619 C632 0.930 . S
H620 C636 0.959 . S
H621 C636 0.959 . S
H622 C636 0.961 . S
H623 C637 0.960 . S
H624 C637 0.961 . S
H625 C637 0.959 . S
H626 C640 0.929 . S
H627 C641 0.931 . S
H628 C643 0.930 . S
C629 H617 0.930 . S
C629 C630 1.399 . S
C629 C634 1.399 . S
C630 C629 1.399 . S
C630 C631 1.376 . S
C631 H618 0.930 . S
C631 C630 1.376 . S
C631 C632 1.388 . S
C632 H619 0.930 . S
C632 C631 1.388 . S
C632 C633 1.390 . S
C633 C632 1.390 . S
C633 C634 1.394 . S
C633 C639 1.465 . S
C634 C629 1.399 . S
C634 C633 1.394 . S
C634 C635 1.516 . S
C635 C634 1.516 . S
C635 C636 1.502 . S
C635 C637 1.561 . S
C635 C638 1.526 . S
C636 H620 0.959 . S
C636 H621 0.959 . S
C636 H622 0.961 . S
C636 C635 1.502 . S
C637 H623 0.960 . S
C637 H624 0.961 . S
C637 H625 0.959 . S
C637 C635 1.561 . S
C638 C635 1.526 . S
C638 C639 1.396 . S
C638 C643 1.390 . S
C639 C633 1.465 . S
C639 C638 1.396 . S
C639 C640 1.399 . S
C640 H626 0.929 . S
C640 C639 1.399 . S
C640 C641 1.385 . S
C641 H627 0.931 . S
C641 C640 1.385 . S
C641 C642 1.389 . S
C642 C641 1.389 . S
C642 C643 1.387 . S
C643 H628 0.930 . S
C643 C638 1.390 . S
C643 C642 1.387 . S
H644 C656 0.930 . S
H645 C658 0.930 . S
H646 C659 0.930 . S
H647 C663 0.959 . S
H648 C663 0.959 . S
H649 C663 0.961 . S
H650 C664 0.960 . S
H651 C664 0.961 . S
H652 C664 0.959 . S
H653 C667 0.929 . S
H654 C668 0.931 1_556 S
H655 C670 0.930 . S
C656 H644 0.930 . S
C656 C657 1.399 . S
C656 C661 1.399 . S
C657 C656 1.399 . S
C657 C658 1.376 . S
C658 H645 0.930 . S
C658 C657 1.376 . S
C658 C659 1.388 . S
C659 H646 0.930 . S
C659 C658 1.388 . S
C659 C660 1.390 . S
C660 C659 1.390 . S
C660 C661 1.394 . S
C660 C666 1.465 . S
C661 C656 1.399 . S
C661 C660 1.394 . S
C661 C662 1.516 . S
C662 C661 1.516 . S
C662 C663 1.502 . S
C662 C664 1.561 . S
C662 C665 1.526 . S
C663 H647 0.959 . S
C663 H648 0.959 . S
C663 H649 0.961 . S
C663 C662 1.502 . S
C664 H650 0.960 . S
C664 H651 0.961 . S
C664 H652 0.959 . S
C664 C662 1.561 . S
C665 C662 1.526 . S
C665 C666 1.396 . S
C665 C670 1.390 . S
C666 C660 1.465 . S
C666 C665 1.396 . S
C666 C667 1.399 . S
C667 H653 0.929 . S
C667 C666 1.399 . S
C667 C668 1.385 . S
C668 H654 0.931 1_554 S
C668 C667 1.385 . S
C668 C669 1.389 . S
C669 C668 1.389 . S
C669 C670 1.387 . S
C670 H655 0.930 . S
C670 C665 1.390 . S
C670 C669 1.387 . S
H671 C683 0.930 1_554 S
H672 C685 0.930 . S
H673 C686 0.930 . S
H674 C690 0.959 . S
H675 C690 0.959 . S
H676 C690 0.961 1_554 S
H677 C691 0.956 1_554 S
H678 C691 0.961 . S
H679 C691 0.959 . S
H680 C694 0.929 . S
H681 C695 0.931 . S
H682 C697 0.930 . S
C683 H671 0.930 1_556 S
C683 C684 1.399 . S
C683 C688 1.399 . S
C684 C683 1.399 . S
C684 C685 1.376 . S
C685 H672 0.930 . S
C685 C684 1.376 . S
C685 C686 1.388 . S
C686 H673 0.930 . S
C686 C685 1.388 . S
C686 C687 1.390 . S
C687 C686 1.390 . S
C687 C688 1.394 . S
C687 C693 1.465 . S
C688 C683 1.399 . S
C688 C687 1.394 . S
C688 C689 1.516 . S
C689 C688 1.516 . S
C689 C690 1.502 . S
C689 C691 1.561 . S
C689 C692 1.526 . S
C690 H674 0.959 . S
C690 H675 0.959 . S
C690 H676 0.961 1_556 S
C690 C689 1.502 . S
C691 H677 0.956 1_556 S
C691 H678 0.961 . S
C691 H679 0.959 . S
C691 C689 1.561 . S
C692 C689 1.526 . S
C692 C693 1.396 . S
C692 C697 1.390 . S
C693 C687 1.465 . S
C693 C692 1.396 . S
C693 C694 1.399 . S
C694 H680 0.929 . S
C694 C693 1.399 . S
C694 C695 1.385 . S
C695 H681 0.931 . S
C695 C694 1.385 . S
C695 C696 1.389 . S
C696 C695 1.389 . S
C696 C697 1.387 . S
C697 H682 0.930 . S
C697 C692 1.390 . S
C697 C696 1.387 . S
H698 C710 0.930 . S
H699 C712 0.930 . S
H700 C713 0.930 . S
H701 C717 0.959 . S
H702 C717 0.959 . S
H703 C717 0.961 . S
H704 C718 0.960 . S
H705 C718 0.961 . S
H706 C718 0.959 . S
H707 C721 0.929 . S
H708 C722 0.931 . S
H709 C724 0.930 . S
C710 H698 0.930 . S
C710 C711 1.399 . S
C710 C715 1.399 . S
C711 C710 1.399 . S
C711 C712 1.376 . S
C712 H699 0.930 . S
C712 C711 1.376 . S
C712 C713 1.388 . S
C713 H700 0.930 . S
C713 C712 1.388 . S
C713 C714 1.390 . S
C714 C713 1.390 . S
C714 C715 1.394 . S
C714 C720 1.465 . S
C715 C710 1.399 . S
C715 C714 1.394 . S
C715 C716 1.516 . S
C716 C715 1.516 . S
C716 C717 1.502 . S
C716 C718 1.561 . S
C716 C719 1.526 . S
C717 H701 0.959 . S
C717 H702 0.959 . S
C717 H703 0.961 . S
C717 C716 1.502 . S
C718 H704 0.960 . S
C718 H705 0.961 . S
C718 H706 0.959 . S
C718 C716 1.561 . S
C719 C716 1.526 . S
C719 C720 1.396 . S
C719 C724 1.390 . S
C720 C714 1.465 . S
C720 C719 1.396 . S
C720 C721 1.399 . S
C721 H707 0.929 . S
C721 C720 1.399 . S
C721 C722 1.385 . S
C722 H708 0.931 . S
C722 C721 1.385 . S
C722 C723 1.389 . S
C723 C722 1.389 . S
C723 C724 1.387 . S
C724 H709 0.930 . S
C724 C719 1.390 . S
C724 C723 1.387 . S
H725 C737 0.930 . S
H726 C739 0.930 . S
H727 C740 0.930 . S
H728 C744 0.959 . S
H729 C744 0.959 . S
H730 C744 0.961 . S
H731 C745 0.960 . S
H732 C745 0.961 . S
H733 C745 0.959 . S
H734 C748 0.929 . S
H735 C749 0.931 . S
H736 C751 0.930 . S
C737 H725 0.930 . S
C737 C738 1.399 . S
C737 C742 1.399 . S
C738 C737 1.399 . S
C738 C739 1.376 . S
C739 H726 0.930 . S
C739 C738 1.376 . S
C739 C740 1.388 . S
C740 H727 0.930 . S
C740 C739 1.388 . S
C740 C741 1.390 . S
C741 C740 1.390 . S
C741 C742 1.394 . S
C741 C747 1.465 . S
C742 C737 1.399 . S
C742 C741 1.394 . S
C742 C743 1.516 . S
C743 C742 1.516 . S
C743 C744 1.502 . S
C743 C745 1.561 . S
C743 C746 1.526 . S
C744 H728 0.959 . S
C744 H729 0.959 . S
C744 H730 0.961 . S
C744 C743 1.502 . S
C745 H731 0.960 . S
C745 H732 0.961 . S
C745 H733 0.959 . S
C745 C743 1.561 . S
C746 C743 1.526 . S
C746 C747 1.396 . S
C746 C751 1.390 . S
C747 C741 1.465 . S
C747 C746 1.396 . S
C747 C748 1.399 . S
C748 H734 0.929 . S
C748 C747 1.399 . S
C748 C749 1.385 . S
C749 H735 0.931 . S
C749 C748 1.385 . S
C749 C750 1.389 . S
C750 C749 1.389 . S
C750 C751 1.387 . S
C751 H736 0.930 . S
C751 C746 1.390 . S
C751 C750 1.387 . S
H752 C764 0.930 . S
H753 C766 0.930 . S
H754 C767 0.930 . S
H755 C771 0.959 . S
H756 C771 0.959 . S
H757 C771 0.961 . S
H758 C772 0.960 . S
H759 C772 0.961 . S
H760 C772 0.959 . S
H761 C775 0.929 . S
H762 C776 0.931 . S
H763 C778 0.930 . S
C764 H752 0.930 . S
C764 C765 1.399 1_565 S
C764 C769 1.399 . S
C765 C764 1.399 1_545 S
C765 C766 1.376 . S
C766 H753 0.930 . S
C766 C765 1.376 . S
C766 C767 1.388 1_655 S
C767 H754 0.930 . S
C767 C766 1.388 1_455 S
C767 C768 1.390 . S
C768 C767 1.390 . S
C768 C769 1.394 1_445 S
C768 C774 1.465 1_556 S
C769 C764 1.399 . S
C769 C768 1.394 1_665 S
C769 C770 1.516 . S
C770 C769 1.516 . S
C770 C771 1.502 . S
C770 C772 1.561 1_655 S
C770 C773 1.526 1_656 S
C771 H755 0.959 . S
C771 H756 0.959 . S
C771 H757 0.961 . S
C771 C770 1.502 . S
C772 H758 0.960 . S
C772 H759 0.961 . S
C772 H760 0.959 . S
C772 C770 1.561 1_455 S
C773 C770 1.526 1_454 S
C773 C774 1.396 1_565 S
C773 C778 1.390 . S
C774 C768 1.465 1_554 S
C774 C773 1.396 1_545 S
C774 C775 1.399 . S
C775 H761 0.929 . S
C775 C774 1.399 . S
C775 C776 1.385 . S
C776 H762 0.931 . S
C776 C775 1.385 . S
C776 C777 1.389 1_545 S
C777 C776 1.389 1_565 S
C777 C778 1.387 . S
C778 H763 0.930 . S
C778 C773 1.390 . S
C778 C777 1.387 . S
H779 C791 0.930 . S
H780 C793 0.930 . S
H781 C794 0.930 . S
H782 C798 0.959 . S
H783 C798 0.959 . S
H784 C798 0.961 . S
H785 C799 0.960 . S
H786 C799 0.961 . S
H787 C799 0.959 . S
H788 C802 0.929 . S
H789 C803 0.931 . S
H790 C805 0.930 . S
C791 H779 0.930 . S
C791 C792 1.399 . S
C791 C796 1.399 . S
C792 C791 1.399 . S
C792 C793 1.376 . S
C793 H780 0.930 . S
C793 C792 1.376 . S
C793 C794 1.388 . S
C794 H781 0.930 . S
C794 C793 1.388 . S
C794 C795 1.390 . S
C795 C794 1.390 . S
C795 C796 1.394 . S
C795 C801 1.465 . S
C796 C791 1.399 . S
C796 C795 1.394 . S
C796 C797 1.516 . S
C797 C796 1.516 . S
C797 C798 1.502 . S
C797 C799 1.561 . S
C797 C800 1.526 . S
C798 H782 0.959 . S
C798 H783 0.959 . S
C798 H784 0.961 . S
C798 C797 1.502 . S
C799 H785 0.960 . S
C799 H786 0.961 . S
C799 H787 0.959 . S
C799 C797 1.561 . S
C800 C797 1.526 . S
C800 C801 1.396 . S
C800 C805 1.390 . S
C801 C795 1.465 . S
C801 C800 1.396 . S
C801 C802 1.399 . S
C802 H788 0.929 . S
C802 C801 1.399 . S
C802 C803 1.385 . S
C803 H789 0.931 . S
C803 C802 1.385 . S
C803 C804 1.389 . S
C804 C803 1.389 . S
C804 C805 1.387 . S
C805 H790 0.930 . S
C805 C800 1.390 . S
C805 C804 1.387 . S
H806 C818 0.930 . S
H807 C820 0.930 . S
H808 C821 0.930 . S
H809 C825 0.959 . S
H810 C825 0.959 . S
H811 C825 0.961 . S
H812 C826 0.960 . S
H813 C826 0.961 . S
H814 C826 0.959 . S
H815 C829 0.929 . S
H816 C830 0.931 . S
H817 C832 0.930 . S
C818 H806 0.930 . S
C818 C819 1.399 1_545 S
C818 C823 1.399 . S
C819 C818 1.399 1_565 S
C819 C820 1.376 . S
C820 H807 0.930 . S
C820 C819 1.376 . S
C820 C821 1.388 . S
C821 H808 0.930 . S
C821 C820 1.388 . S
C821 C822 1.390 . S
C822 C821 1.390 . S
C822 C823 1.394 1_565 S
C822 C828 1.465 . S
C823 C818 1.399 . S
C823 C822 1.394 1_545 S
C823 C824 1.516 . S
C824 C823 1.516 . S
C824 C825 1.502 . S
C824 C826 1.561 . S
C824 C827 1.526 . S
C825 H809 0.959 . S
C825 H810 0.959 . S
C825 H811 0.961 . S
C825 C824 1.502 . S
C826 H812 0.960 . S
C826 H813 0.961 . S
C826 H814 0.959 . S
C826 C824 1.561 . S
C827 C824 1.526 . S
C827 C828 1.396 1_545 S
C827 C832 1.390 . S
C828 C822 1.465 . S
C828 C827 1.396 1_565 S
C828 C829 1.399 . S
C829 H815 0.929 . S
C829 C828 1.399 . S
C829 C830 1.385 . S
C830 H816 0.931 . S
C830 C829 1.385 . S
C830 C831 1.389 1_565 S
C831 C830 1.389 1_545 S
C831 C832 1.387 . S
C832 H817 0.930 . S
C832 C827 1.390 . S
C832 C831 1.387 . S
H833 C845 0.930 . S
H834 C847 0.930 . S
H835 C848 0.930 . S
H836 C852 0.959 . S
H837 C852 0.959 . S
H838 C852 0.961 . S
H839 C853 0.960 . S
H840 C853 0.961 . S
H841 C853 0.959 . S
H842 C856 0.929 . S
H843 C857 0.931 . S
H844 C859 0.930 . S
C845 H833 0.930 . S
C845 C846 1.399 . S
C845 C850 1.399 . S
C846 C845 1.399 . S
C846 C847 1.376 . S
C847 H834 0.930 . S
C847 C846 1.376 . S
C847 C848 1.388 . S
C848 H835 0.930 . S
C848 C847 1.388 . S
C848 C849 1.390 . S
C849 C848 1.390 . S
C849 C850 1.394 . S
C849 C855 1.465 . S
C850 C845 1.399 . S
C850 C849 1.394 . S
C850 C851 1.516 . S
C851 C850 1.516 . S
C851 C852 1.502 . S
C851 C853 1.561 . S
C851 C854 1.526 . S
C852 H836 0.959 . S
C852 H837 0.959 . S
C852 H838 0.961 . S
C852 C851 1.502 . S
C853 H839 0.960 . S
C853 H840 0.961 . S
C853 H841 0.959 . S
C853 C851 1.561 . S
C854 C851 1.526 . S
C854 C855 1.396 . S
C854 C859 1.390 . S
C855 C849 1.465 . S
C855 C854 1.396 . S
C855 C856 1.399 . S
C856 H842 0.929 . S
C856 C855 1.399 . S
C856 C857 1.385 . S
C857 H843 0.931 . S
C857 C856 1.385 . S
C857 C858 1.389 . S
C858 C857 1.389 . S
C858 C859 1.387 . S
C859 H844 0.930 . S
C859 C854 1.390 . S
C859 C858 1.387 . S
H860 C872 0.930 . S
H861 C874 0.930 . S
H862 C875 0.930 . S
H863 C879 0.959 . S
H864 C879 0.959 . S
H865 C879 0.961 . S
H866 C880 0.960 . S
H867 C880 0.961 . S
H868 C880 0.959 . S
H869 C883 0.929 . S
H870 C884 0.931 . S
H871 C886 0.930 . S
C872 H860 0.930 . S
C872 C873 1.399 . S
C872 C877 1.399 . S
C873 C872 1.399 . S
C873 C874 1.376 . S
C874 H861 0.930 . S
C874 C873 1.376 . S
C874 C875 1.388 . S
C875 H862 0.930 . S
C875 C874 1.388 . S
C875 C876 1.390 . S
C876 C875 1.390 . S
C876 C877 1.394 . S
C876 C882 1.465 . S
C877 C872 1.399 . S
C877 C876 1.394 . S
C877 C878 1.516 . S
C878 C877 1.516 . S
C878 C879 1.502 . S
C878 C880 1.561 . S
C878 C881 1.526 . S
C879 H863 0.959 . S
C879 H864 0.959 . S
C879 H865 0.961 . S
C879 C878 1.502 . S
C880 H866 0.960 . S
C880 H867 0.961 . S
C880 H868 0.959 . S
C880 C878 1.561 . S
C881 C878 1.526 . S
C881 C882 1.396 . S
C881 C886 1.390 . S
C882 C876 1.465 . S
C882 C881 1.396 . S
C882 C883 1.399 . S
C883 H869 0.929 . S
C883 C882 1.399 . S
C883 C884 1.385 . S
C884 H870 0.931 . S
C884 C883 1.385 . S
C884 C885 1.389 . S
C885 C884 1.389 . S
C885 C886 1.387 . S
C886 H871 0.930 . S
C886 C881 1.390 . S
C886 C885 1.387 . S
H887 C899 0.930 . S
H888 C901 0.930 . S
H889 C902 0.930 . S
H890 C906 0.959 . S
H891 C906 0.959 . S
H892 C906 0.961 . S
H893 C907 0.960 . S
H894 C907 0.961 . S
H895 C907 0.959 . S
H896 C910 0.929 . S
H897 C911 0.931 . S
H898 C913 0.930 . S
C899 H887 0.930 . S
C899 C900 1.399 . S
C899 C904 1.399 . S
C900 C899 1.399 . S
C900 C901 1.376 . S
C901 H888 0.930 . S
C901 C900 1.376 . S
C901 C902 1.388 . S
C902 H889 0.930 . S
C902 C901 1.388 . S
C902 C903 1.390 . S
C903 C902 1.390 . S
C903 C904 1.394 . S
C903 C909 1.465 . S
C904 C899 1.399 . S
C904 C903 1.394 . S
C904 C905 1.516 . S
C905 C904 1.516 . S
C905 C906 1.502 . S
C905 C907 1.561 . S
C905 C908 1.526 . S
C906 H890 0.959 . S
C906 H891 0.959 . S
C906 H892 0.961 . S
C906 C905 1.502 . S
C907 H893 0.960 . S
C907 H894 0.961 . S
C907 H895 0.959 . S
C907 C905 1.561 . S
C908 C905 1.526 . S
C908 C909 1.396 . S
C908 C913 1.390 . S
C909 C903 1.465 . S
C909 C908 1.396 . S
C909 C910 1.399 . S
C910 H896 0.929 . S
C910 C909 1.399 . S
C910 C911 1.385 . S
C911 H897 0.931 . S
C911 C910 1.385 . S
C911 C912 1.389 . S
C912 C911 1.389 . S
C912 C913 1.387 . S
C913 H898 0.930 . S
C913 C908 1.390 . S
C913 C912 1.387 . S
H914 C926 0.930 . S
H915 C928 0.930 . S
H916 C929 0.930 . S
H917 C933 0.959 . S
H918 C933 0.959 . S
H919 C933 0.961 . S
H920 C934 0.960 . S
H921 C934 0.961 . S
H922 C934 0.959 . S
H923 C937 0.929 . S
H924 C938 0.931 . S
H925 C940 0.930 . S
C926 H914 0.930 . S
C926 C927 1.399 . S
C926 C931 1.399 . S
C927 C926 1.399 . S
C927 C928 1.376 . S
C928 H915 0.930 . S
C928 C927 1.376 . S
C928 C929 1.388 . S
C929 H916 0.930 . S
C929 C928 1.388 . S
C929 C930 1.390 . S
C930 C929 1.390 . S
C930 C931 1.394 . S
C930 C936 1.465 . S
C931 C926 1.399 . S
C931 C930 1.394 . S
C931 C932 1.516 . S
C932 C931 1.516 . S
C932 C933 1.502 . S
C932 C934 1.561 . S
C932 C935 1.526 . S
C933 H917 0.959 . S
C933 H918 0.959 . S
C933 H919 0.961 . S
C933 C932 1.502 . S
C934 H920 0.960 . S
C934 H921 0.961 . S
C934 H922 0.959 . S
C934 C932 1.561 . S
C935 C932 1.526 . S
C935 C936 1.396 . S
C935 C940 1.390 . S
C936 C930 1.465 . S
C936 C935 1.396 . S
C936 C937 1.399 . S
C937 H923 0.929 . S
C937 C936 1.399 . S
C937 C938 1.385 . S
C938 H924 0.931 . S
C938 C937 1.385 . S
C938 C939 1.389 . S
C939 C938 1.389 . S
C939 C940 1.387 . S
C940 H925 0.930 . S
C940 C935 1.390 . S
C940 C939 1.387 . S
H941 C953 0.930 . S
H942 C955 0.930 . S
H943 C956 0.930 . S
H944 C960 0.959 . S
H945 C960 0.959 . S
H946 C960 0.961 1_556 S
H947 C961 0.960 1_556 S
H948 C961 0.961 . S
H949 C961 0.959 . S
H950 C964 0.929 . S
H951 C965 0.931 . S
H952 C967 0.930 . S
C953 H941 0.930 . S
C953 C954 1.399 . S
C953 C958 1.399 . S
C954 C953 1.399 . S
C954 C955 1.376 . S
C955 H942 0.930 . S
C955 C954 1.376 . S
C955 C956 1.388 . S
C956 H943 0.930 . S
C956 C955 1.388 . S
C956 C957 1.390 . S
C957 C956 1.390 . S
C957 C958 1.394 . S
C957 C963 1.465 1_556 S
C958 C953 1.399 . S
C958 C957 1.394 . S
C958 C959 1.516 1_656 S
C959 C958 1.516 1_454 S
C959 C960 1.502 . S
C959 C961 1.561 1_455 S
C959 C962 1.526 . S
C960 H944 0.959 . S
C960 H945 0.959 . S
C960 H946 0.961 1_554 S
C960 C959 1.502 . S
C961 H947 0.960 1_554 S
C961 H948 0.961 . S
C961 H949 0.959 . S
C961 C959 1.561 1_655 S
C962 C959 1.526 . S
C962 C963 1.396 1_455 S
C962 C967 1.390 . S
C963 C957 1.465 1_554 S
C963 C962 1.396 1_655 S
C963 C964 1.399 . S
C964 H950 0.929 . S
C964 C963 1.399 . S
C964 C965 1.385 1_655 S
C965 H951 0.931 . S
C965 C964 1.385 1_455 S
C965 C966 1.389 . S
C966 C965 1.389 . S
C966 C967 1.387 . S
C967 H952 0.930 . S
C967 C962 1.390 . S
C967 C966 1.387 . S
C333 C10 2.032 . S
C345 C130 2.031 . S
C360 C9 1.530 . S
C372 C50 1.520 . S
C387 C49 0.959 . S
C399 C89 0.907 . S
C414 C90 1.543 . S
C426 C129 1.480 . S
C441 C19 2.037 . S
C453 C219 2.037 . S
C468 C18 1.497 . S
C480 C179 1.527 . S
C495 C178 0.865 . S
C507 C98 0.863 . S
C522 C218 1.478 . S
C534 C99 1.541 . S
C549 C250 2.043 . S
C561 C210 2.048 . S
C576 C170 1.522 . S
C588 C249 1.523 . S
C603 C289 0.925 . S
C615 C169 0.863 . S
C630 C209 1.500 . S
C642 C290 1.537 . S
C657 C139 2.045 . S
C669 C259 2.035 . S
C684 C258 1.512 . S
C696 C59 1.521 . S
C711 C58 0.906 . S
C723 C298 0.946 . S
C738 C138 1.481 . S
C750 C299 1.534 . S
C765 C15 1.538 . S
C777 C6 1.533 . S
C792 C46 1.389 . S
C804 C55 1.451 . S
C819 C95 1.451 . S
C831 C86 1.394 . S
C846 C135 1.565 . S
C858 C126 1.511 . S
C873 C166 1.390 . S
C885 C175 1.446 . S
C900 C215 1.572 . S
C912 C206 1.509 . S
C927 C246 1.515 . S
C939 C255 1.559 . S
C954 C286 1.432 . S
C966 C295 1.419 . S
