# Generated by pormake.
# Topology atn, (4)-cn, num edge types: 1
# Building blocks:
#     Node 0, Type 0, BuildingBlock: KUFVIS_clean_sbu_0, # of connection points: 4
#     Node 1, Type 0, BuildingBlock: KUFVIS_clean_sbu_0, # of connection points: 4
#     Node 2, Type 0, BuildingBlock: KUFVIS_clean_sbu_0, # of connection points: 4
#     Node 3, Type 0, BuildingBlock: KUFVIS_clean_sbu_0, # of connection points: 4
#     Node 4, Type 0, BuildingBlock: KUFVIS_clean_sbu_0, # of connection points: 4
#     Node 5, Type 0, BuildingBlock: KUFVIS_clean_sbu_0, # of connection points: 4
#     Node 6, Type 0, BuildingBlock: KUFVIS_clean_sbu_0, # of connection points: 4
#     Node 7, Type 0, BuildingBlock: KUFVIS_clean_sbu_0, # of connection points: 4
#     Node 8, Type 0, BuildingBlock: KUFVIS_clean_sbu_0, # of connection points: 4
#     Node 9, Type 0, BuildingBlock: KUFVIS_clean_sbu_0, # of connection points: 4
#     Node 10, Type 0, BuildingBlock: KUFVIS_clean_sbu_0, # of connection points: 4
#     Node 11, Type 0, BuildingBlock: KUFVIS_clean_sbu_0, # of connection points: 4
#     Node 12, Type 0, BuildingBlock: KUFVIS_clean_sbu_0, # of connection points: 4
#     Node 13, Type 0, BuildingBlock: KUFVIS_clean_sbu_0, # of connection points: 4
#     Node 14, Type 0, BuildingBlock: KUFVIS_clean_sbu_0, # of connection points: 4
#     Node 15, Type 0, BuildingBlock: KUFVIS_clean_sbu_0, # of connection points: 4
#     Edge 16, Type (0, 0), BuildingBlock: EZIPEK_clean_linker_0, # of connection points: 2
#     Edge 17, Type (0, 0), BuildingBlock: EZIPEK_clean_linker_0, # of connection points: 2
#     Edge 18, Type (0, 0), BuildingBlock: EZIPEK_clean_linker_0, # of connection points: 2
#     Edge 19, Type (0, 0), BuildingBlock: EZIPEK_clean_linker_0, # of connection points: 2
#     Edge 20, Type (0, 0), BuildingBlock: EZIPEK_clean_linker_0, # of connection points: 2
#     Edge 21, Type (0, 0), BuildingBlock: EZIPEK_clean_linker_0, # of connection points: 2
#     Edge 22, Type (0, 0), BuildingBlock: EZIPEK_clean_linker_0, # of connection points: 2
#     Edge 23, Type (0, 0), BuildingBlock: EZIPEK_clean_linker_0, # of connection points: 2
#     Edge 24, Type (0, 0), BuildingBlock: EZIPEK_clean_linker_0, # of connection points: 2
#     Edge 25, Type (0, 0), BuildingBlock: EZIPEK_clean_linker_0, # of connection points: 2
#     Edge 26, Type (0, 0), BuildingBlock: EZIPEK_clean_linker_0, # of connection points: 2
#     Edge 27, Type (0, 0), BuildingBlock: EZIPEK_clean_linker_0, # of connection points: 2
#     Edge 28, Type (0, 0), BuildingBlock: EZIPEK_clean_linker_0, # of connection points: 2
#     Edge 29, Type (0, 0), BuildingBlock: EZIPEK_clean_linker_0, # of connection points: 2
#     Edge 30, Type (0, 0), BuildingBlock: EZIPEK_clean_linker_0, # of connection points: 2
#     Edge 31, Type (0, 0), BuildingBlock: EZIPEK_clean_linker_0, # of connection points: 2
#     Edge 32, Type (0, 0), BuildingBlock: EZIPEK_clean_linker_0, # of connection points: 2
#     Edge 33, Type (0, 0), BuildingBlock: EZIPEK_clean_linker_0, # of connection points: 2
#     Edge 34, Type (0, 0), BuildingBlock: EZIPEK_clean_linker_0, # of connection points: 2
#     Edge 35, Type (0, 0), BuildingBlock: EZIPEK_clean_linker_0, # of connection points: 2
#     Edge 36, Type (0, 0), BuildingBlock: EZIPEK_clean_linker_0, # of connection points: 2
#     Edge 37, Type (0, 0), BuildingBlock: EZIPEK_clean_linker_0, # of connection points: 2
#     Edge 38, Type (0, 0), BuildingBlock: EZIPEK_clean_linker_0, # of connection points: 2
#     Edge 39, Type (0, 0), BuildingBlock: EZIPEK_clean_linker_0, # of connection points: 2
#     Edge 40, Type (0, 0), BuildingBlock: EZIPEK_clean_linker_0, # of connection points: 2
#     Edge 41, Type (0, 0), BuildingBlock: EZIPEK_clean_linker_0, # of connection points: 2
#     Edge 42, Type (0, 0), BuildingBlock: EZIPEK_clean_linker_0, # of connection points: 2
#     Edge 43, Type (0, 0), BuildingBlock: EZIPEK_clean_linker_0, # of connection points: 2
#     Edge 44, Type (0, 0), BuildingBlock: EZIPEK_clean_linker_0, # of connection points: 2
#     Edge 45, Type (0, 0), BuildingBlock: EZIPEK_clean_linker_0, # of connection points: 2
#     Edge 46, Type (0, 0), BuildingBlock: EZIPEK_clean_linker_0, # of connection points: 2
#     Edge 47, Type (0, 0), BuildingBlock: EZIPEK_clean_linker_0, # of connection points: 2
# Relax obj value: 0.056
# Max RMSD: 0.082
# Mean RMSD: 0.082
data_MOF--net-atn--node1-KUFVIS_clean_sbu_0--edge1-EZIPEK_clean_linker_0
_symmetry_space_group_name_H-M    P1
_symmetry_Int_Tables_number       1
_symmetry_cell_setting            triclinic
loop_
_symmetry_equiv_pos_as_xyz
'x, y, z'
_cell_length_a     44.162515
_cell_length_b     44.395277
_cell_length_c     19.318889
_cell_angle_alpha  90.078103
_cell_angle_beta   90.048685
_cell_angle_gamma 90.248984
loop_
_atom_site_label
_atom_site_type_symbol
_atom_site_fract_x
_atom_site_fract_y
_atom_site_fract_z
_atom_type_partial_charge
Mn0 Mn 0.21951 0.37955 0.02899 0.0
Mn1 Mn 0.14581 0.39736 0.012 0.0
C2 C 0.19142 0.38254 0.13247 0.0
C3 C 0.25664 0.34218 0.02065 0.0
C4 C 0.19793 0.44232 -0.00105 0.0
O5 O 0.21025 0.37391 0.92605 0.0
O6 O 0.15973 0.37319 0.93153 0.0
C7 C 0.11984 0.33594 0.02477 0.0
N8 N 0.11936 0.36567 0.04151 0.0
C9 C 0.07329 0.35931 0.10625 0.0
C10 C 0.07282 0.32874 0.08797 0.0
C11 C 0.09649 0.31689 0.04791 0.0
C12 C 0.09776 0.37686 0.08354 0.0
H13 H 0.13803 0.32693 0.99464 0.0
C14 C 0.18447 0.36871 0.89911 0.0
O15 O 0.26313 0.37037 0.01059 0.0
O16 O 0.2288 0.33563 0.03572 0.0
N17 N 0.12577 0.42142 0.08041 0.0
C18 C 0.1281 0.4519 0.08934 0.0
C19 C 0.10615 0.46738 0.12781 0.0
C20 C 0.08082 0.45186 0.15335 0.0
C21 C 0.07767 0.421 0.14007 0.0
C22 C 0.10063 0.40661 0.10244 0.0
H23 H 0.1463 0.46459 0.06664 0.0
O24 O 0.22074 0.3842 0.13124 0.0
O25 O 0.17874 0.37974 0.07118 0.0
O26 O 0.21906 0.42518 0.01976 0.0
O27 O 0.17133 0.43273 0.98344 0.0
C28 C 0.05227 0.40408 0.16143 0.0
C29 C 0.05033 0.37311 0.1455 0.0
H30 H 0.05454 0.31414 0.10476 0.0
H31 H 0.0966 0.29323 0.03441 0.0
H32 H 0.10835 0.4914 0.13611 0.0
H33 H 0.06361 0.46402 0.18169 0.0
H34 H 0.03429 0.41457 0.19086 0.0
H35 H 0.03096 0.3602 0.16317 0.0
Mn36 Mn 0.64609 0.20685 0.01711 0.0
Mn37 Mn 0.6297 0.13328 0.00092 0.0
C38 C 0.6457 0.1768 0.11636 0.0
C39 C 0.68249 0.24541 0.00882 0.0
C40 C 0.58253 0.18321 0.98719 0.0
O41 O 0.65104 0.19798 0.91399 0.0
O42 O 0.65047 0.14715 0.91519 0.0
C43 C 0.68831 0.10125 0.98914 0.0
N44 N 0.66176 0.10598 0.0231 0.0
C45 C 0.6683 0.06048 0.08932 0.0
C46 C 0.69626 0.05587 0.05685 0.0
C47 C 0.70636 0.07643 0.00667 0.0
C48 C 0.6519 0.08627 0.07152 0.0
H49 H 0.69534 0.11597 0.9483 0.0
C50 C 0.6554 0.17245 0.88521 0.0
O51 O 0.65382 0.25075 0.00057 0.0
O52 O 0.69002 0.21787 0.02267 0.0
N53 N 0.6102 0.11757 0.08125 0.0
C54 C 0.58416 0.12668 0.11219 0.0
C55 C 0.56933 0.10722 0.15806 0.0
C56 C 0.58218 0.07918 0.17337 0.0
C57 C 0.61102 0.07207 0.14802 0.0
C58 C 0.62428 0.09215 0.10129 0.0
H59 H 0.57447 0.14828 0.10067 0.0
O60 O 0.64374 0.20596 0.12052 0.0
O61 O 0.64833 0.16621 0.0538 0.0
O62 O 0.59919 0.20478 0.0095 0.0
O63 O 0.59343 0.15716 0.97617 0.0
C64 C 0.62671 0.04557 0.16541 0.0
C65 C 0.6556 0.04004 0.13705 0.0
H66 H 0.70987 0.03632 0.06901 0.0
H67 H 0.72761 0.07272 0.98022 0.0
H68 H 0.54772 0.11347 0.18005 0.0
H69 H 0.56955 0.06334 0.20428 0.0
H70 H 0.61683 0.02929 0.2005 0.0
H71 H 0.66757 0.01971 0.15119 0.0
Mn72 Mn 0.80775 0.64336 0.02943 0.0
Mn73 Mn 0.87804 0.61534 0.0067 0.0
C74 C 0.8398 0.6388 0.12568 0.0
C75 C 0.774 0.68387 0.02363 0.0
C76 C 0.82062 0.57697 0.0043 0.0
O77 O 0.81489 0.64659 0.92523 0.0
O78 O 0.86487 0.63657 0.92094 0.0
C79 C 0.91686 0.66922 0.98617 0.0
N80 N 0.90956 0.64424 0.02345 0.0
C81 C 0.95516 0.64907 0.09107 0.0
C82 C 0.96233 0.67562 0.05543 0.0
C83 C 0.94306 0.68574 0.00268 0.0
C84 C 0.92802 0.63427 0.07427 0.0
H85 H 0.90315 0.67612 0.94339 0.0
C86 C 0.84022 0.64603 0.89356 0.0
O87 O 0.76487 0.65623 0.01724 0.0
O88 O 0.80272 0.68822 0.03455 0.0
N89 N 0.89358 0.59477 0.08597 0.0
C90 C 0.88483 0.56746 0.11138 0.0
C91 C 0.9037 0.55217 0.1576 0.0
C92 C 0.93151 0.56496 0.17685 0.0
C93 C 0.93953 0.59366 0.15287 0.0
C94 C 0.91988 0.60776 0.10631 0.0
H95 H 0.86428 0.55668 0.09438 0.0
O96 O 0.81063 0.6412 0.13263 0.0
O97 O 0.84945 0.63937 0.06199 0.0
O98 O 0.80228 0.59741 0.0235 0.0
O99 O 0.84829 0.58238 0.98937 0.0
C100 C 0.96703 0.60802 0.17016 0.0
C101 C 0.97453 0.63603 0.14042 0.0
H102 H 0.98298 0.68793 0.06678 0.0
H103 H 0.9488 0.70577 0.97355 0.0
H104 H 0.89736 0.53005 0.17625 0.0
H105 H 0.94691 0.55202 0.20824 0.0
H106 H 0.98288 0.59751 0.20529 0.0
H107 H 0.9958 0.64679 0.15393 0.0
Mn108 Mn 0.38133 0.80909 0.01716 0.0
Mn109 Mn 0.39411 0.88368 0.00526 0.0
C110 C 0.37814 0.83897 0.11635 0.0
C111 C 0.34573 0.76963 0.00672 0.0
C112 C 0.4456 0.83764 0.00958 0.0
O113 O 0.37916 0.81626 0.91282 0.0
O114 O 0.38558 0.86598 0.91418 0.0
C115 C 0.33246 0.90104 0.9594 0.0
N116 N 0.35629 0.90451 0.00357 0.0
C117 C 0.33429 0.94898 0.05347 0.0
C118 C 0.30943 0.94586 0.0088 0.0
C119 C 0.30839 0.92161 0.96199 0.0
C120 C 0.35707 0.92722 0.04994 0.0
H121 H 0.33191 0.88285 0.92223 0.0
C122 C 0.38055 0.84144 0.88183 0.0
O123 O 0.37466 0.76468 0.00121 0.0
O124 O 0.33776 0.79711 0.01872 0.0
N125 N 0.40159 0.90523 0.08876 0.0
C126 C 0.42595 0.90369 0.13127 0.0
C127 C 0.43263 0.9281 0.17455 0.0
C128 C 0.41265 0.95266 0.17791 0.0
C129 C 0.38574 0.95199 0.13979 0.0
C130 C 0.38152 0.92804 0.09387 0.0
H131 H 0.44029 0.88419 0.13086 0.0
O132 O 0.3814 0.81001 0.12052 0.0
O133 O 0.37608 0.84956 0.05374 0.0
O134 O 0.42849 0.81418 0.01487 0.0
O135 O 0.43475 0.86431 0.00603 0.0
C136 C 0.36362 0.97474 0.1432 0.0
C137 C 0.33762 0.97296 0.10081 0.0
H138 H 0.2911 0.96199 0.0098 0.0
H139 H 0.28932 0.91907 0.9272 0.0
H140 H 0.45355 0.92819 0.20342 0.0
H141 H 0.41827 0.97218 0.20882 0.0
H142 H 0.3663 0.99356 0.17843 0.0
H143 H 0.32055 0.99035 0.10434 0.0
Mn144 Mn 0.21647 0.63757 0.97654 0.0
Mn145 Mn 0.14443 0.61347 0.99723 0.0
C146 C 0.18479 0.63473 0.87914 0.0
C147 C 0.25309 0.67595 0.98322 0.0
C148 C 0.19928 0.57234 0.00212 0.0
O149 O 0.20866 0.64132 0.08058 0.0
O150 O 0.15792 0.6352 0.08227 0.0
C151 C 0.108 0.66901 0.01226 0.0
N152 N 0.11428 0.64313 0.97739 0.0
C153 C 0.06818 0.64735 0.91148 0.0
C154 C 0.06205 0.67476 0.94456 0.0
C155 C 0.08212 0.68567 0.99512 0.0
C156 C 0.09517 0.63253 0.92827 0.0
H157 H 0.12234 0.67658 0.05343 0.0
C158 C 0.18302 0.6429 0.11088 0.0
O159 O 0.2601 0.6478 0.9899 0.0
O160 O 0.22472 0.68199 0.97191 0.0
N161 N 0.12853 0.59231 0.91881 0.0
C162 C 0.13633 0.56436 0.89584 0.0
C163 C 0.11639 0.54815 0.85344 0.0
C164 C 0.08854 0.56076 0.83511 0.0
C165 C 0.08163 0.59024 0.8556 0.0
C166 C 0.10231 0.60523 0.89864 0.0
H167 H 0.15684 0.55369 0.91233 0.0
O168 O 0.21411 0.63555 0.87329 0.0
O169 O 0.17476 0.63583 0.94247 0.0
O170 O 0.21892 0.59149 0.98218 0.0
O171 O 0.17222 0.5796 0.01801 0.0
C172 C 0.05421 0.60458 0.83862 0.0
C173 C 0.04784 0.63344 0.86514 0.0
H174 H 0.04158 0.68715 0.93303 0.0
H175 H 0.07721 0.70642 0.02227 0.0
H176 H 0.12195 0.52548 0.83732 0.0
H177 H 0.07235 0.54713 0.80699 0.0
H178 H 0.03764 0.59344 0.806 0.0
H179 H 0.02665 0.6442 0.85182 0.0
Mn180 Mn 0.38548 0.21189 0.98469 0.0
Mn181 Mn 0.40475 0.13865 0.98935 0.0
C182 C 0.3862 0.18372 0.88112 0.0
C183 C 0.34813 0.24899 0.9959 0.0
C184 C 0.45041 0.19048 0.00437 0.0
O185 O 0.38119 0.20064 0.08757 0.0
O186 O 0.38565 0.15044 0.07728 0.0
C187 C 0.34546 0.10788 0.00331 0.0
N188 N 0.37204 0.11189 0.96867 0.0
C189 C 0.3642 0.06648 0.90307 0.0
C190 C 0.33634 0.06228 0.93654 0.0
C191 C 0.3268 0.08324 0.98646 0.0
C192 C 0.38097 0.0924 0.91907 0.0
H193 H 0.33866 0.1233 0.04365 0.0
C194 C 0.3789 0.17396 0.11194 0.0
O195 O 0.37658 0.25509 0.00563 0.0
O196 O 0.34126 0.22139 0.97998 0.0
N197 N 0.42335 0.12342 0.90764 0.0
C198 C 0.45182 0.1296 0.88428 0.0
C199 C 0.46684 0.10844 0.84319 0.0
C200 C 0.4524 0.08125 0.82642 0.0
C201 C 0.42225 0.07633 0.84622 0.0
C202 C 0.4086 0.098 0.88834 0.0
H203 H 0.46381 0.14964 0.90018 0.0
O204 O 0.3875 0.21296 0.88048 0.0
O205 O 0.3846 0.17194 0.94239 0.0
O206 O 0.43225 0.21205 0.9921 0.0
O207 O 0.44098 0.16333 0.00996 0.0
C208 C 0.40606 0.04979 0.83026 0.0
C209 C 0.37668 0.04527 0.85705 0.0
H210 H 0.3224 0.04271 0.92545 0.0
H211 H 0.30554 0.07994 0.01325 0.0
H212 H 0.49002 0.11244 0.82741 0.0
H213 H 0.46518 0.06387 0.80067 0.0
H214 H 0.41616 0.03249 0.79831 0.0
H215 H 0.36446 0.02478 0.84436 0.0
Mn216 Mn 0.80562 0.38217 0.97422 0.0
Mn217 Mn 0.8761 0.41035 0.9965 0.0
C218 C 0.83723 0.38736 0.87743 0.0
C219 C 0.77179 0.34137 0.9795 0.0
C220 C 0.81888 0.44836 0.00162 0.0
O221 O 0.81333 0.37846 0.07821 0.0
O222 O 0.86349 0.38811 0.0814 0.0
C223 C 0.915 0.35655 0.01221 0.0
N224 N 0.9076 0.38205 0.97715 0.0
C225 C 0.95334 0.3791 0.9098 0.0
C226 C 0.96064 0.35207 0.9431 0.0
C227 C 0.94133 0.34072 0.99453 0.0
C228 C 0.92601 0.3931 0.92734 0.0
H229 H 0.90118 0.34865 0.05392 0.0
C230 C 0.83887 0.37866 0.1092 0.0
O231 O 0.76275 0.36891 0.98694 0.0
O232 O 0.80047 0.33731 0.968 0.0
N233 N 0.89114 0.43204 0.91816 0.0
C234 C 0.88213 0.45953 0.89476 0.0
C235 C 0.90098 0.47601 0.85049 0.0
C236 C 0.92907 0.46421 0.83112 0.0
C237 C 0.93735 0.43527 0.85275 0.0
C238 C 0.91766 0.41994 0.89734 0.0
H239 H 0.86143 0.4696 0.91213 0.0
O240 O 0.80802 0.38483 0.87103 0.0
O241 O 0.84715 0.38658 0.9409 0.0
O242 O 0.80038 0.42808 0.98136 0.0
O243 O 0.84646 0.44281 0.01668 0.0
C244 C 0.96515 0.42182 0.83518 0.0
C245 C 0.9728 0.3934 0.8623 0.0
H246 H 0.98142 0.3403 0.93099 0.0
H247 H 0.94714 0.32027 0.02182 0.0
H248 H 0.8944 0.49828 0.83363 0.0
H249 H 0.94439 0.4781 0.80139 0.0
H250 H 0.98108 0.43331 0.80171 0.0
H251 H 0.99424 0.38331 0.84841 0.0
Mn252 Mn 0.64308 0.81188 0.98516 0.0
Mn253 Mn 0.62131 0.8842 0.00262 0.0
C254 C 0.64005 0.84227 0.88616 0.0
C255 C 0.68201 0.77616 0.99227 0.0
C256 C 0.57789 0.83053 0.01232 0.0
O257 O 0.64794 0.82056 0.08835 0.0
O258 O 0.6426 0.87103 0.08852 0.0
C259 C 0.6785 0.91886 0.01675 0.0
N260 N 0.65231 0.9131 0.9819 0.0
C261 C 0.65829 0.95834 0.91464 0.0
C262 C 0.68597 0.96396 0.94782 0.0
C263 C 0.69616 0.94405 -0.00097 0.0
C264 C 0.64239 0.93205 0.93219 0.0
H265 H 0.68553 0.9047 0.0585 0.0
C266 C 0.65004 0.84622 0.11775 0.0
O267 O 0.65381 0.76871 0.00084 0.0
O268 O 0.68767 0.80422 0.97839 0.0
N269 N 0.60081 0.89988 0.9234 0.0
C270 C 0.57278 0.89228 0.89923 0.0
C271 C 0.55762 0.91184 0.85439 0.0
C272 C 0.57131 0.93911 0.83526 0.0
C273 C 0.6008 0.94578 0.8575 0.0
C274 C 0.6148 0.9254 0.90236 0.0
H275 H 0.56138 0.8721 0.91613 0.0
O276 O 0.64005 0.81305 0.88174 0.0
O277 O 0.64201 0.85285 0.94888 0.0
O278 O 0.5964 0.80996 0.9943 0.0
O279 O 0.58644 0.85763 0.02376 0.0
C280 C 0.61614 0.97263 0.84017 0.0
C281 C 0.64518 0.97855 0.86735 0.0
H282 H 0.69915 0.98391 0.93579 0.0
H283 H 0.71713 0.94858 0.02623 0.0
H284 H 0.53496 0.90647 0.83678 0.0
H285 H 0.55853 0.95504 0.80493 0.0
H286 H 0.60566 0.98918 0.80691 0.0
H287 H 0.65672 0.99927 0.85359 0.0
Mn288 Mn 0.71719 0.87911 0.52997 0.0
Mn289 Mn 0.64684 0.90711 0.50808 0.0
C290 C 0.6853 0.88355 0.62663 0.0
C291 C 0.75134 0.83885 0.52315 0.0
C292 C 0.70428 0.94544 0.50496 0.0
O293 O 0.70964 0.87585 0.42571 0.0
O294 O 0.65962 0.88571 0.42224 0.0
C295 C 0.60798 0.85315 0.48868 0.0
N296 N 0.61531 0.87833 0.52538 0.0
C297 C 0.5695 0.87418 0.59221 0.0
C298 C 0.56228 0.84743 0.5572 0.0
C299 C 0.58167 0.83685 0.50518 0.0
C300 C 0.59682 0.88867 0.57571 0.0
H301 H 0.62179 0.8459 0.44642 0.0
C302 C 0.68418 0.87631 0.39441 0.0
O303 O 0.76009 0.8666 0.51687 0.0
O304 O 0.72268 0.83424 0.53459 0.0
N305 N 0.63154 0.92794 0.5873 0.0
C306 C 0.64041 0.95534 0.6122 0.0
C307 C 0.62142 0.97114 0.65727 0.0
C308 C 0.59336 0.95876 0.67588 0.0
C309 C 0.58524 0.92994 0.65262 0.0
C310 C 0.60505 0.91531 0.60729 0.0
H311 H 0.66112 0.96584 0.59549 0.0
O312 O 0.71449 0.88121 0.63335 0.0
O313 O 0.67556 0.88303 0.56299 0.0
O314 O 0.72258 0.92503 0.52433 0.0
O315 O 0.67659 0.94003 0.49008 0.0
C316 C 0.55747 0.91597 0.66925 0.0
C317 C 0.54995 0.88776 0.64041 0.0
H318 H 0.54151 0.83533 0.56841 0.0
H319 H 0.57591 0.81666 0.47651 0.0
H320 H 0.62786 0.99334 0.67542 0.0
H321 H 0.57791 0.97209 0.70628 0.0
H322 H 0.54144 0.92694 0.70316 0.0
H323 H 0.52851 0.87729 0.65352 0.0
Mn324 Mn 0.14189 0.70831 0.51998 0.0
Mn325 Mn 0.12402 0.63508 0.50347 0.0
C326 C 0.14066 0.67815 0.61931 0.0
C327 C 0.17893 0.74634 0.51314 0.0
C328 C 0.0779 0.68605 0.48879 0.0
O329 O 0.14719 0.69927 0.41674 0.0
O330 O 0.14549 0.64847 0.41821 0.0
C331 C 0.18208 0.602 0.49348 0.0
N332 N 0.15544 0.60721 0.52664 0.0
C333 C 0.16117 0.56204 0.59435 0.0
C334 C 0.18924 0.55696 0.56279 0.0
C335 C 0.19979 0.57711 0.51223 0.0
C336 C 0.14514 0.58792 0.57544 0.0
H337 H 0.18949 0.61643 0.45249 0.0
C338 C 0.15114 0.67361 0.38813 0.0
O339 O 0.15043 0.75213 0.5039 0.0
O340 O 0.18599 0.71865 0.52672 0.0
N341 N 0.10368 0.61971 0.58313 0.0
C342 C 0.07709 0.62877 0.61175 0.0
C343 C 0.06195 0.60967 0.65787 0.0
C344 C 0.07466 0.58177 0.67481 0.0
C345 C 0.10365 0.57443 0.65087 0.0
C346 C 0.11743 0.59426 0.60433 0.0
H347 H 0.06724 0.65009 0.59856 0.0
O348 O 0.13913 0.70733 0.62347 0.0
O349 O 0.14321 0.66759 0.55672 0.0
O350 O 0.09494 0.7072 0.51164 0.0
O351 O 0.08844 0.6598 0.4781 0.0
C352 C 0.11899 0.54787 0.66939 0.0
C353 C 0.148 0.54197 0.64221 0.0
H354 H 0.20259 0.53736 0.57594 0.0
H355 H 0.22114 0.57303 0.48647 0.0
H356 H 0.04022 0.61605 0.67894 0.0
H357 H 0.06171 0.56617 0.70567 0.0
H358 H 0.10869 0.53179 0.70433 0.0
H359 H 0.15968 0.52159 0.65723 0.0
Mn360 Mn 0.3067 0.1406 0.52366 0.0
Mn361 Mn 0.37878 0.1171 0.50843 0.0
C362 C 0.33785 0.13971 0.62273 0.0
C363 C 0.27036 0.17903 0.51589 0.0
C364 C 0.32407 0.07501 0.50491 0.0
O365 O 0.31495 0.14186 0.41845 0.0
O366 O 0.36533 0.13572 0.42142 0.0
C367 C 0.41182 0.17452 0.48728 0.0
N368 N 0.40761 0.14858 0.52372 0.0
C369 C 0.45425 0.15598 0.58577 0.0
C370 C 0.45872 0.1832 0.55037 0.0
C371 C 0.43728 0.19261 0.50125 0.0
C372 C 0.42763 0.13975 0.57242 0.0
H373 H 0.3959 0.18129 0.44784 0.0
C374 C 0.34094 0.14215 0.38922 0.0
O375 O 0.26319 0.15084 0.50875 0.0
O376 O 0.29879 0.18506 0.52646 0.0
N377 N 0.3955 0.09861 0.5887 0.0
C378 C 0.38923 0.07048 0.61306 0.0
C379 C 0.41085 0.05533 0.65265 0.0
C380 C 0.43859 0.06934 0.6673 0.0
C381 C 0.44376 0.09912 0.64637 0.0
C382 C 0.42171 0.1128 0.60517 0.0
H383 H 0.36877 0.05877 0.59873 0.0
O384 O 0.30852 0.14032 0.62761 0.0
O385 O 0.34806 0.13974 0.55967 0.0
O386 O 0.30414 0.09442 0.52117 0.0
O387 O 0.35161 0.08191 0.49223 0.0
C388 C 0.47091 0.11484 0.66011 0.0
C389 C 0.47579 0.14364 0.63132 0.0
H390 H 0.47883 0.19671 0.55938 0.0
H391 H 0.44075 0.21338 0.47303 0.0
H392 H 0.40671 0.03235 0.66889 0.0
H393 H 0.45621 0.05646 0.69198 0.0
H394 H 0.48838 0.10479 0.69184 0.0
H395 H 0.49677 0.15548 0.64211 0.0
Mn396 Mn 0.88117 0.31566 0.51854 0.0
Mn397 Mn 0.89881 0.3889 0.50109 0.0
C398 C 0.88191 0.34617 0.61742 0.0
C399 C 0.84439 0.27747 0.51005 0.0
C400 C 0.94516 0.33802 0.48928 0.0
O401 O 0.87666 0.32407 0.41499 0.0
O402 O 0.87771 0.37486 0.41572 0.0
C403 C 0.84046 0.42129 0.48888 0.0
N404 N 0.86701 0.41656 0.52287 0.0
C405 C 0.86039 0.46191 0.58969 0.0
C406 C 0.8324 0.46651 0.55724 0.0
C407 C 0.82235 0.44603 0.50671 0.0
C408 C 0.87682 0.43613 0.57174 0.0
H409 H 0.83342 0.40661 0.44783 0.0
C410 C 0.87246 0.34954 0.38593 0.0
O411 O 0.87301 0.27178 0.50267 0.0
O412 O 0.83706 0.30514 0.52326 0.0
N413 N 0.91883 0.40506 0.58062 0.0
C414 C 0.94601 0.3971 0.60822 0.0
C415 C 0.96085 0.41688 0.65353 0.0
C416 C 0.94732 0.44438 0.67071 0.0
C417 C 0.91804 0.4508 0.64707 0.0
C418 C 0.90457 0.43035 0.60124 0.0
H419 H 0.95663 0.3762 0.59467 0.0
O420 O 0.88327 0.317 0.62198 0.0
O421 O 0.87958 0.35655 0.55466 0.0
O422 O 0.92804 0.31703 0.51228 0.0
O423 O 0.93465 0.3642 0.47744 0.0
C424 C 0.90221 0.4772 0.66482 0.0
C425 C 0.87313 0.48245 0.63724 0.0
H426 H 0.81879 0.48603 0.56956 0.0
H427 H 0.80109 0.44975 0.48023 0.0
H428 H 0.98301 0.41133 0.67359 0.0
H429 H 0.9599 0.46046 0.70131 0.0
H430 H 0.91222 0.49372 0.69925 0.0
H431 H 0.86113 0.50276 0.65148 0.0
Mn432 Mn 0.72162 0.14013 0.47337 0.0
Mn433 Mn 0.65094 0.11241 0.49512 0.0
C434 C 0.6901 0.13516 0.37637 0.0
C435 C 0.75564 0.18089 0.47974 0.0
C436 C 0.70791 0.07409 0.50075 0.0
O437 O 0.71385 0.14373 0.57721 0.0
O438 O 0.66356 0.13483 0.57985 0.0
C439 C 0.61227 0.16645 0.50975 0.0
N440 N 0.61952 0.14074 0.47524 0.0
C441 C 0.57336 0.14312 0.40912 0.0
C442 C 0.56618 0.17034 0.44187 0.0
C443 C 0.5858 0.1821 0.49236 0.0
C444 C 0.60088 0.12935 0.42614 0.0
H445 H 0.62634 0.17468 0.55078 0.0
C446 C 0.68829 0.14387 0.60796 0.0
O447 O 0.76453 0.15327 0.48688 0.0
O448 O 0.72699 0.185 0.4678 0.0
N449 N 0.63581 0.09047 0.41705 0.0
C450 C 0.64471 0.06281 0.39433 0.0
C451 C 0.62555 0.04589 0.35151 0.0
C452 C 0.59725 0.0574 0.33285 0.0
C453 C 0.58908 0.08653 0.35357 0.0
C454 C 0.60911 0.10233 0.3967 0.0
H455 H 0.66554 0.05294 0.41132 0.0
O456 O 0.71932 0.13759 0.37021 0.0
O457 O 0.68011 0.13591 0.43973 0.0
O458 O 0.72655 0.09414 0.48013 0.0
O459 O 0.68042 0.07993 0.51597 0.0
C460 C 0.56109 0.09974 0.3366 0.0
C461 C 0.55358 0.12837 0.36289 0.0
H462 H 0.54527 0.18194 0.43012 0.0
H463 H 0.5801 0.20272 0.51922 0.0
H464 H 0.63206 0.02348 0.33532 0.0
H465 H 0.58173 0.04321 0.30422 0.0
H466 H 0.54495 0.08792 0.30413 0.0
H467 H 0.53199 0.13827 0.34945 0.0
Mn468 Mn 0.88191 0.7104 0.48482 0.0
Mn469 Mn 0.90169 0.63793 0.5031 0.0
C470 C 0.88446 0.67999 0.38576 0.0
C471 C 0.84347 0.74657 0.49204 0.0
C472 C 0.94616 0.69091 0.51756 0.0
O473 O 0.87697 0.70181 0.58816 0.0
O474 O 0.87935 0.65112 0.58726 0.0
C475 C 0.84412 0.60362 0.51193 0.0
N476 N 0.8709 0.60922 0.47946 0.0
C477 C 0.86591 0.56389 0.41181 0.0
C478 C 0.83772 0.55836 0.44264 0.0
C479 C 0.82673 0.5784 0.4928 0.0
C480 C 0.88157 0.59016 0.43072 0.0
H481 H 0.83633 0.61802 0.55267 0.0
C482 C 0.8733 0.6762 0.617 0.0
O483 O 0.87175 0.75379 0.50048 0.0
O484 O 0.83748 0.71858 0.47817 0.0
N485 N 0.92322 0.62234 0.42521 0.0
C486 C 0.95133 0.63021 0.40228 0.0
C487 C 0.96705 0.61078 0.35806 0.0
C488 C 0.95375 0.58341 0.33802 0.0
C489 C 0.92411 0.57652 0.35879 0.0
C490 C 0.90957 0.59678 0.40308 0.0
H491 H 0.96223 0.65063 0.4193 0.0
O492 O 0.88488 0.7092 0.38139 0.0
O493 O 0.88211 0.66951 0.44841 0.0
O494 O 0.92875 0.71129 0.49362 0.0
O495 O 0.93624 0.66425 0.52818 0.0
C496 C 0.90903 0.54964 0.34026 0.0
C497 C 0.87967 0.54367 0.36541 0.0
H498 H 0.8247 0.53842 0.42947 0.0
H499 H 0.8053 0.57398 0.51804 0.0
H500 H 0.98978 0.6164 0.34145 0.0
H501 H 0.96686 0.56767 0.30784 0.0
H502 H 0.91991 0.53315 0.30746 0.0
H503 H 0.86831 0.52296 0.35064 0.0
Mn504 Mn 0.30595 0.87988 0.48002 0.0
Mn505 Mn 0.37862 0.90432 0.48945 0.0
C506 C 0.33491 0.88312 0.37793 0.0
C507 C 0.27025 0.84069 0.48919 0.0
C508 C 0.32401 0.94597 0.49906 0.0
O509 O 0.3161 0.87602 0.58333 0.0
O510 O 0.36577 0.88636 0.57695 0.0
C511 C 0.40947 0.84593 0.51025 0.0
N512 N 0.40634 0.87213 0.47425 0.0
C513 C 0.45243 0.86322 0.4117 0.0
C514 C 0.45584 0.83583 0.44687 0.0
C515 C 0.43411 0.82704 0.496 0.0
C516 C 0.42653 0.88031 0.42538 0.0
H517 H 0.39329 0.83952 0.54951 0.0
C518 C 0.34257 0.87711 0.60972 0.0
O519 O 0.26281 0.86861 0.49869 0.0
O520 O 0.29838 0.83534 0.4743 0.0
N521 N 0.3958 0.92232 0.40898 0.0
C522 C 0.39113 0.95102 0.38657 0.0
C523 C 0.41356 0.96562 0.34784 0.0
C524 C 0.44041 0.95046 0.33135 0.0
C525 C 0.4442 0.92047 0.3518 0.0
C526 C 0.42155 0.90742 0.39268 0.0
H527 H 0.37128 0.96344 0.40164 0.0
O528 O 0.30551 0.88228 0.37645 0.0
O529 O 0.34667 0.88204 0.43965 0.0
O530 O 0.30359 0.92612 0.48775 0.0
O531 O 0.3521 0.93972 0.50527 0.0
C532 C 0.47054 0.90377 0.33724 0.0
C533 C 0.47429 0.87482 0.36581 0.0
H534 H 0.47534 0.82167 0.43757 0.0
H535 H 0.43673 0.8061 0.52395 0.0
H536 H 0.41045 0.98879 0.33203 0.0
H537 H 0.458 0.96213 0.30281 0.0
H538 H 0.48829 0.9132 0.30512 0.0
H539 H 0.49468 0.86225 0.35455 0.0
Mn540 Mn 0.13819 0.3067 0.48941 0.0
Mn541 Mn 0.12624 0.3809 0.50498 0.0
C542 C 0.13912 0.33622 0.3881 0.0
C543 C 0.17366 0.26746 0.49806 0.0
C544 C 0.07666 0.33254 0.52251 0.0
O545 O 0.14345 0.31559 0.59271 0.0
O546 O 0.14853 0.36593 0.58774 0.0
C547 C 0.18921 0.40428 0.49819 0.0
N548 N 0.16009 0.4047 0.4753 0.0
C549 C 0.17067 0.44704 0.40135 0.0
C550 C 0.20075 0.44712 0.42456 0.0
C551 C 0.21013 0.42542 0.47271 0.0
C552 C 0.15117 0.42471 0.42688 0.0
H553 H 0.1963 0.38802 0.53564 0.0
C554 C 0.15083 0.34081 0.6198 0.0
O555 O 0.14487 0.26237 0.506 0.0
O556 O 0.18151 0.29493 0.48524 0.0
N557 N 0.1048 0.39968 0.43022 0.0
C558 C 0.0747 0.39754 0.41495 0.0
C559 C 0.06136 0.41834 0.36971 0.0
C560 C 0.0788 0.4419 0.34224 0.0
C561 C 0.10948 0.44431 0.35991 0.0
C562 C 0.12165 0.42262 0.40457 0.0
H563 H 0.06096 0.37986 0.43609 0.0
O564 O 0.13593 0.30716 0.38554 0.0
O565 O 0.14178 0.34695 0.45047 0.0
O566 O 0.09186 0.31078 0.49698 0.0
O567 O 0.08908 0.35827 0.53405 0.0
C568 C 0.12844 0.46755 0.33518 0.0
C569 C 0.15917 0.46856 0.35481 0.0
H570 H 0.21678 0.46378 0.40596 0.0
H571 H 0.23332 0.42524 0.49087 0.0
H572 H 0.0376 0.41638 0.35665 0.0
H573 H 0.06834 0.45817 0.3082 0.0
H574 H 0.1197 0.48445 0.30012 0.0
H575 H 0.17365 0.48622 0.3346 0.0
C576 C 0.21135 0.52364 0.94003 0.0
C577 C 0.20675 0.53946 0.00337 0.0
C578 C 0.20411 0.49099 0.06482 0.0
C579 C 0.20343 0.47552 0.00016 0.0
N580 N 0.20488 0.47694 0.87576 0.0
N581 N 0.19899 0.53841 0.1266 0.0
C582 C 0.2068 0.49181 0.93763 0.0
C583 C 0.20349 0.52311 0.06602 0.0
N584 N 0.22009 0.53896 0.88208 0.0
N585 N 0.20502 0.47497 0.12522 0.0
H586 H 0.20076 0.5618 0.13013 0.0
H587 H 0.19227 0.52819 0.1726 0.0
H588 H 0.20406 0.45154 0.12703 0.0
H589 H 0.20875 0.48469 0.17355 0.0
H590 H 0.22632 0.52847 0.83605 0.0
H591 H 0.22419 0.56203 0.88176 0.0
H592 H 0.20327 0.4878 0.82818 0.0
H593 H 0.20287 0.45357 0.87223 0.0
C594 C 0.50119 0.17105 0.03746 0.0
C595 C 0.48458 0.19487 0.00749 0.0
C596 C 0.53401 0.21422 0.96407 0.0
C597 C 0.54833 0.18669 0.98339 0.0
N598 N 0.53627 0.13355 0.0025 0.0
N599 N 0.48708 0.23924 0.93336 0.0
C600 C 0.52935 0.16333 0.00916 0.0
C601 C 0.50146 0.21683 0.96862 0.0
N602 N 0.48991 0.15505 0.09185 0.0
N603 N 0.55102 0.23737 0.93841 0.0
H604 H 0.46413 0.24375 0.93707 0.0
H605 H 0.49802 0.25281 0.89715 0.0
H606 H 0.57371 0.23495 0.9248 0.0
H607 H 0.54264 0.25912 0.93223 0.0
H608 H 0.50218 0.1378 0.11536 0.0
H609 H 0.47036 0.16176 0.11781 0.0
H610 H 0.52159 0.11669 0.01994 0.0
H611 H 0.5535 0.12554 0.97092 0.0
C612 C 0.80948 0.49679 0.06674 0.0
C613 C 0.80938 0.4807 0.00328 0.0
C614 C 0.80986 0.52862 0.93946 0.0
C615 C 0.81059 0.5447 0.00291 0.0
N616 N 0.80043 0.54419 0.12554 0.0
N617 N 0.79887 0.48151 0.88075 0.0
C618 C 0.80674 0.5288 0.06614 0.0
C619 C 0.80587 0.49672 0.94011 0.0
N620 N 0.81301 0.48155 0.12755 0.0
N621 N 0.81385 0.54373 0.87858 0.0
H622 H 0.7948 0.45842 0.87996 0.0
H623 H 0.79384 0.49213 0.83413 0.0
H624 H 0.81521 0.56716 0.87613 0.0
H625 H 0.81742 0.533 0.83132 0.0
H626 H 0.81715 0.49214 0.17479 0.0
H627 H 0.81333 0.45808 0.12995 0.0
H628 H 0.79523 0.53373 0.17227 0.0
H629 H 0.797 0.56736 0.12617 0.0
C630 C 0.52836 0.84168 0.06775 0.0
C631 C 0.54421 0.82476 0.01767 0.0
C632 C 0.49437 0.81202 0.96556 0.0
C633 C 0.4799 0.83399 0.00832 0.0
N634 N 0.49084 0.87986 0.07298 0.0
N635 N 0.54117 0.79657 0.91019 0.0
C636 C 0.49878 0.85163 0.05258 0.0
C637 C 0.52694 0.81017 0.96455 0.0
N638 N 0.54218 0.85008 0.12798 0.0
N639 N 0.47747 0.79417 0.9227 0.0
H640 H 0.56453 0.79457 0.90612 0.0
H641 H 0.52976 0.78914 0.8661 0.0
H642 H 0.45445 0.7975 0.91384 0.0
H643 H 0.48631 0.77538 0.89753 0.0
H644 H 0.53064 0.86156 0.16702 0.0
H645 H 0.56383 0.84263 0.14119 0.0
H646 H 0.50482 0.89325 0.104 0.0
H647 H 0.47422 0.8921 0.04761 0.0
C648 C 0.72016 0.02533 0.43984 0.0
C649 C 0.71703 0.04164 0.50282 0.0
C650 C 0.71866 0.99372 0.56631 0.0
C651 C 0.71449 0.97766 0.50325 0.0
N652 N 0.7112 0.97826 0.37889 0.0
N653 N 0.71343 0.04131 0.62707 0.0
C654 C 0.71552 0.9935 0.43959 0.0
C655 C 0.71662 0.02577 0.56647 0.0
N656 N 0.72731 0.04021 0.38026 0.0
N657 N 0.72458 0.97842 0.62598 0.0
H658 H 0.71364 0.06478 0.62915 0.0
H659 H 0.70905 0.03099 0.67443 0.0
H660 H 0.72738 0.95517 0.62707 0.0
H661 H 0.73005 0.98894 0.67257 0.0
H662 H 0.7321 0.02935 0.33376 0.0
H663 H 0.73172 0.06325 0.37915 0.0
H664 H 0.70784 0.98889 0.33148 0.0
H665 H 0.70931 0.95486 0.37671 0.0
C666 C 0.99766 0.66918 0.538 0.0
C667 C 0.98048 0.6951 0.52219 0.0
C668 C 0.02892 0.71834 0.48241 0.0
C669 C 0.04354 0.68968 0.48665 0.0
N670 N 0.03211 0.63587 0.48256 0.0
N671 N 0.98196 0.74719 0.48554 0.0
C672 C 0.02504 0.66441 0.503 0.0
C673 C 0.99674 0.72068 0.49608 0.0
N674 N 0.98808 0.64887 0.58617 0.0
N675 N 0.04539 0.74305 0.46342 0.0
H676 H 0.96091 0.75173 0.50725 0.0
H677 H 0.99092 0.76499 0.45703 0.0
H678 H 0.06706 0.74141 0.44248 0.0
H679 H 0.0376 0.76506 0.46801 0.0
H680 H 1.00062 0.62973 0.59836 0.0
H681 H 0.97003 0.65341 0.61944 0.0
H682 H 0.04835 0.6313 0.44497 0.0
H683 H 0.01807 0.61754 0.49389 0.0
C684 C 0.31527 0.02671 0.43901 0.0
C685 C 0.31578 0.04235 0.50301 0.0
C686 C 0.31509 0.99408 0.56552 0.0
C687 C 0.31556 0.9785 0.50151 0.0
N688 N 0.30578 0.97953 0.37915 0.0
N689 N 0.30646 0.04123 0.62585 0.0
C690 C 0.31233 0.99473 0.43871 0.0
C691 C 0.31247 0.02609 0.56594 0.0
N692 N 0.31802 0.04242 0.37856 0.0
N693 N 0.31766 0.97826 0.6258 0.0
H694 H 0.30308 0.0644 0.62689 0.0
H695 H 0.30164 0.03069 0.67268 0.0
H696 H 0.3172 0.95476 0.62711 0.0
H697 H 0.32144 0.98829 0.67382 0.0
H698 H 0.3217 0.03225 0.33071 0.0
H699 H 0.31786 0.06591 0.37687 0.0
H700 H 0.30111 0.98997 0.33215 0.0
H701 H 0.3015 0.95647 0.37914 0.0
C702 C 0.02557 0.35727 0.53462 0.0
C703 C 0.0422 0.33029 0.52772 0.0
C704 C 0.99385 0.30552 0.49227 0.0
C705 C 0.97953 0.33432 0.48841 0.0
N706 N 0.99085 0.38753 0.47091 0.0
N707 N 0.03974 0.27633 0.51383 0.0
C708 C 0.99808 0.36022 0.49853 0.0
C709 C 0.02558 0.30355 0.51041 0.0
N710 N 0.03552 0.3802 0.57592 0.0
N711 N 0.97751 0.2803 0.47607 0.0
H712 H 0.06014 0.27348 0.54014 0.0
H713 H 0.0309 0.25636 0.49386 0.0
H714 H 0.95665 0.28137 0.45091 0.0
H715 H 0.98475 0.25842 0.48508 0.0
H716 H 0.02317 0.39997 0.58236 0.0
H717 H 0.0533 0.37743 0.61092 0.0
H718 H 1.00479 0.40641 0.47727 0.0
H719 H 0.97451 0.39005 0.43245 0.0
C720 C 0.30019 0.3129 0.07013 0.0
C721 C 0.27997 0.31828 0.01443 0.0
C722 C 0.30557 0.27955 0.94506 0.0
C723 C 0.32444 0.27265 0.00249 0.0
N724 N 0.33613 0.27887 0.12366 0.0
N725 N 0.26013 0.30406 0.90272 0.0
C726 C 0.32087 0.28836 0.0661 0.0
C727 C 0.28162 0.30071 0.95312 0.0
N728 N 0.29975 0.33136 0.12682 0.0
N729 N 0.31146 0.26701 0.88179 0.0
H730 H 0.24299 0.32009 0.90544 0.0
H731 H 0.25793 0.28956 0.86059 0.0
H732 H 0.32905 0.25185 0.87333 0.0
H733 H 0.30072 0.27357 0.8363 0.0
H734 H 0.31614 0.33089 0.16558 0.0
H735 H 0.28409 0.34869 0.13296 0.0
H736 H 0.33206 0.28713 0.17322 0.0
H737 H 0.35105 0.26073 0.12318 0.0
C738 C 0.72856 0.31047 0.93197 0.0
C739 C 0.75008 0.31572 0.98534 0.0
C740 C 0.72616 0.27615 0.05595 0.0
C741 C 0.70585 0.26957 0.00076 0.0
N742 N 0.69171 0.27629 0.88113 0.0
N743 N 0.77239 0.301 0.09406 0.0
C744 C 0.70806 0.28567 0.9374 0.0
C745 C 0.7499 0.29762 0.04592 0.0
N746 N 0.7276 0.32929 0.87606 0.0
N747 N 0.72176 0.26307 0.11925 0.0
H748 H 0.78935 0.31733 0.09022 0.0
H749 H 0.77558 0.28628 0.13529 0.0
H750 H 0.70432 0.24778 0.12917 0.0
H751 H 0.73362 0.26928 0.16365 0.0
H752 H 0.71014 0.32905 0.83979 0.0
H753 H 0.74333 0.34653 0.86803 0.0
H754 H 0.69472 0.28493 0.83154 0.0
H755 H 0.67703 0.25784 0.88232 0.0
C756 C 0.73091 0.71433 0.07155 0.0
C757 C 0.75221 0.70926 0.01783 0.0
C758 C 0.72723 0.74769 0.94629 0.0
C759 C 0.7068 0.75377 0.00137 0.0
N760 N 0.69344 0.74767 0.12161 0.0
N761 N 0.7739 0.72399 0.90844 0.0
C762 C 0.70978 0.73836 0.06545 0.0
C763 C 0.75148 0.72701 0.95672 0.0
N764 N 0.73072 0.69599 0.12838 0.0
N765 N 0.72246 0.76043 0.8828 0.0
H766 H 0.79125 0.70826 0.91278 0.0
H767 H 0.77664 0.7385 0.8666 0.0
H768 H 0.70478 0.77529 0.87278 0.0
H769 H 0.73439 0.75445 0.83846 0.0
H770 H 0.71346 0.69598 0.16506 0.0
H771 H 0.74696 0.67941 0.13692 0.0
H772 H 0.6969 0.73958 0.17154 0.0
H773 H 0.67832 0.76563 0.11986 0.0
C774 C 0.29677 0.70041 0.04695 0.0
C775 C 0.27665 0.70008 0.98938 0.0
C776 C 0.29988 0.74698 0.94727 0.0
C777 C 0.3224 0.74527 -7e-05 0.0
N778 N 0.34389 0.71848 0.09683 0.0
N779 N 0.26347 0.71976 0.87699 0.0
C780 C 0.32151 0.72121 0.04836 0.0
C781 C 0.27933 0.72252 0.93751 0.0
N782 N 0.29113 0.68221 0.10257 0.0
N783 N 0.29766 0.77207 0.90676 0.0
H784 H 0.249 0.70171 0.86643 0.0
H785 H 0.26707 0.73365 0.83433 0.0
H786 H 0.31251 0.79026 0.91016 0.0
H787 H 0.27951 0.77592 0.8735 0.0
H788 H 0.30303 0.68363 0.14902 0.0
H789 H 0.27246 0.66781 0.1054 0.0
H790 H 0.3465 0.69942 0.12762 0.0
H791 H 0.36106 0.73439 0.10357 0.0
C792 C 0.79988 0.76906 0.55832 0.0
C793 C 0.81892 0.76928 0.49899 0.0
C794 C 0.79009 0.81171 0.45134 0.0
C795 C 0.77328 0.81368 0.5139 0.0
N796 N 0.7645 0.7966 0.63062 0.0
N797 N 0.83424 0.79231 0.3916 0.0
C798 C 0.77857 0.7928 0.56821 0.0
C799 C 0.81467 0.79112 0.44636 0.0
N800 N 0.8022 0.7462 0.60538 0.0
N801 N 0.7816 0.82853 0.39536 0.0
H802 H 0.85147 0.77665 0.38403 0.0
H803 H 0.83469 0.80992 0.35605 0.0
H804 H 0.76318 0.84314 0.39618 0.0
H805 H 0.79081 0.8259 0.34615 0.0
H806 H 0.78675 0.74275 0.64529 0.0
H807 H 0.81847 0.72931 0.60196 0.0
H808 H 0.76989 0.78432 0.67479 0.0
H809 H 0.74898 0.81374 0.64012 0.0
C810 C 0.237 0.80701 0.56188 0.0
C811 C 0.24745 0.81596 0.49541 0.0
C812 C 0.21194 0.78024 0.44056 0.0
C813 C 0.20259 0.77025 0.50708 0.0
N814 N 0.20856 0.77095 0.63102 0.0
N815 N 0.2479 0.80905 0.3717 0.0
C816 C 0.21586 0.7827 0.56775 0.0
C817 C 0.23582 0.8019 0.4348 0.0
N818 N 0.24695 0.82211 0.61938 0.0
N819 N 0.19763 0.76931 0.38288 0.0
H820 H 0.26444 0.82563 0.36513 0.0
H821 H 0.24305 0.79738 0.32625 0.0
H822 H 0.18104 0.75254 0.38482 0.0
H823 H 0.20074 0.77796 0.33336 0.0
H824 H 0.23784 0.81918 0.66858 0.0
H825 H 0.2633 0.83911 0.61749 0.0
H826 H 0.21982 0.77643 0.67669 0.0
H827 H 0.19232 0.75405 0.63756 0.0
C828 C 0.22199 0.20151 0.56277 0.0
C829 C 0.24653 0.20286 0.51504 0.0
C830 C 0.22027 0.24267 0.45131 0.0
C831 C 0.19718 0.24348 0.50235 0.0
N832 N 0.17967 0.22772 0.61508 0.0
N833 N 0.27252 0.23136 0.4264 0.0
C834 C 0.19884 0.22385 0.56028 0.0
C835 C 0.24683 0.22552 0.46331 0.0
N836 N 0.22109 0.17932 0.6117 0.0
N837 N 0.21634 0.25727 0.3897 0.0
H838 H 0.29295 0.22052 0.43565 0.0
H839 H 0.2745 0.24948 0.39243 0.0
H840 H 0.19642 0.26853 0.37699 0.0
H841 H 0.23127 0.25514 0.34824 0.0
H842 H 0.20201 0.17476 0.64162 0.0
H843 H 0.23897 0.16454 0.62046 0.0
H844 H 0.18198 0.21632 0.66185 0.0
H845 H 0.16315 0.24438 0.61669 0.0
C846 C 0.8177 0.23136 0.55569 0.0
C847 C 0.82098 0.25336 0.50295 0.0
C848 C 0.78186 0.22752 0.43357 0.0
C849 C 0.77729 0.20659 0.48822 0.0
N850 N 0.78625 0.19241 0.60696 0.0
N851 N 0.80352 0.27516 0.39589 0.0
C852 C 0.79403 0.2095 0.55079 0.0
C853 C 0.80209 0.25237 0.44334 0.0
N854 N 0.83728 0.23126 0.61055 0.0
N855 N 0.76813 0.22278 0.371 0.0
H856 H 0.81905 0.29287 0.39919 0.0
H857 H 0.78801 0.27769 0.35572 0.0
H858 H 0.75351 0.20474 0.36148 0.0
H859 H 0.77306 0.2352 0.32671 0.0
H860 H 0.83852 0.21372 0.64616 0.0
H861 H 0.85378 0.24782 0.61814 0.0
H862 H 0.79532 0.19565 0.65618 0.0
H863 H 0.76851 0.17684 0.60629 0.0
C864 C 0.13627 0.36978 0.28187 0.0
C865 C 0.15296 0.35126 0.32688 0.0
C866 C 0.19228 0.34856 0.23838 0.0
C867 C 0.17751 0.37127 0.1986 0.0
N868 N 0.14565 0.41406 0.21469 0.0
N869 N 0.2027 0.33279 0.35529 0.0
C870 C 0.15192 0.38494 0.22831 0.0
C871 C 0.18287 0.34362 0.30757 0.0
N872 N 0.10583 0.37228 0.28794 0.0
N873 N 0.21458 0.33113 0.21089 0.0
H874 H 0.19757 0.333 0.40777 0.0
H875 H 0.22533 0.32837 0.34382 0.0
H876 H 0.22073 0.33208 0.15915 0.0
H877 H 0.22417 0.31319 0.23784 0.0
H878 H 0.09344 0.38602 0.25502 0.0
H879 H 0.09342 0.35851 0.32132 0.0
H880 H 0.12716 0.42477 0.23679 0.0
H881 H 0.16099 0.42755 0.18769 0.0
C882 C 0.64878 0.1618 0.30735 0.0
C883 C 0.67095 0.13875 0.31299 0.0
C884 C 0.67562 0.13873 0.18705 0.0
C885 C 0.65095 0.15901 0.18093 0.0
N886 N 0.60806 0.18181 0.23763 0.0
N887 N 0.69692 0.09839 0.25491 0.0
C888 C 0.63516 0.16732 0.24193 0.0
C889 C 0.68092 0.1245 0.25153 0.0
N890 N 0.64327 0.18105 0.36089 0.0
N891 N 0.69638 0.13568 0.13533 0.0
H892 H 0.70029 0.08727 0.30174 0.0
H893 H 0.70352 0.08655 0.21078 0.0
H894 H 0.69605 0.14852 0.09032 0.0
H895 H 0.71592 0.12279 0.14103 0.0
H896 H 0.62903 0.19961 0.35604 0.0
H897 H 0.65533 0.18066 0.40713 0.0
H898 H 0.59502 0.18657 0.28128 0.0
H899 H 0.59747 0.18602 0.19031 0.0
C900 C 0.8552 0.64116 0.31478 0.0
C901 C 0.87967 0.66188 0.32127 0.0
C902 C 0.88157 0.66529 0.19481 0.0
C903 C 0.85934 0.64212 0.18872 0.0
N904 N 0.83406 0.6009 0.24566 0.0
N905 N 0.92231 0.68552 0.26507 0.0
C906 C 0.84976 0.62729 0.2498 0.0
C907 C 0.89528 0.67069 0.26037 0.0
N908 N 0.83466 0.63737 0.36674 0.0
N909 N 0.88721 0.68459 0.14146 0.0
H910 H 0.93291 0.68949 0.31258 0.0
H911 H 0.9353 0.69076 0.22159 0.0
H912 H 0.87543 0.68392 0.09484 0.0
H913 H 0.90145 0.70326 0.14655 0.0
H914 H 0.81524 0.62414 0.36084 0.0
H915 H 0.83499 0.64991 0.41226 0.0
H916 H 0.82783 0.5886 0.2894 0.0
H917 H 0.83072 0.59006 0.19841 0.0
C918 C 0.37415 0.85452 0.30696 0.0
C919 C 0.35199 0.87757 0.31219 0.0
C920 C 0.34652 0.87577 0.18618 0.0
C921 C 0.37194 0.85647 0.18072 0.0
N922 N 0.41538 0.8351 0.23828 0.0
N923 N 0.32406 0.91607 0.25182 0.0
C924 C 0.38791 0.84891 0.24192 0.0
C925 C 0.34089 0.89048 0.25001 0.0
N926 N 0.37933 0.83514 0.3603 0.0
N927 N 0.32579 0.87778 0.134 0.0
H928 H 0.32062 0.92782 0.29768 0.0
H929 H 0.31682 0.92702 0.20706 0.0
H930 H 0.32689 0.8649 0.08903 0.0
H931 H 0.30572 0.88988 0.1391 0.0
H932 H 0.39373 0.81669 0.35561 0.0
H933 H 0.36657 0.8351 0.40555 0.0
H934 H 0.4283 0.83063 0.2823 0.0
H935 H 0.42633 0.83121 0.19124 0.0
C936 C 0.13054 0.66873 0.7452 0.0
C937 C 0.14595 0.66026 0.68382 0.0
C938 C 0.1756 0.62514 0.75365 0.0
C939 C 0.16594 0.6393 0.81551 0.0
N940 N 0.1395 0.68226 0.86396 0.0
N941 N 0.1911 0.63661 0.63762 0.0
C942 C 0.1443 0.66287 0.81033 0.0
C943 C 0.17041 0.63968 0.68947 0.0
N944 N 0.10365 0.68363 0.74155 0.0
N945 N 0.19116 0.59874 0.75631 0.0
H946 H 0.19087 0.64962 0.59287 0.0
H947 H 0.2105 0.62349 0.64303 0.0
H948 H 0.19434 0.58729 0.80278 0.0
H949 H 0.1976 0.58706 0.71186 0.0
H950 H 0.09092 0.68864 0.78553 0.0
H951 H 0.09288 0.68792 0.69446 0.0
H952 H 0.12565 0.70113 0.85941 0.0
H953 H 0.15184 0.68163 0.90982 0.0
C954 C 0.37823 0.16942 0.68927 0.0
C955 C 0.35663 0.14554 0.6861 0.0
C956 C 0.35401 0.1466 0.81241 0.0
C957 C 0.37891 0.16696 0.81589 0.0
N958 N 0.41991 0.19099 0.75429 0.0
N959 N 0.3316 0.10555 0.74825 0.0
C960 C 0.39307 0.1757 0.75314 0.0
C961 C 0.34755 0.13186 0.74897 0.0
N962 N 0.38209 0.18859 0.6349 0.0
N963 N 0.33409 0.1439 0.86597 0.0
H964 H 0.32755 0.09386 0.70243 0.0
H965 H 0.32568 0.09414 0.79346 0.0
H966 H 0.33516 0.15715 0.9104 0.0
H967 H 0.31436 0.13098 0.8623 0.0
H968 H 0.39589 0.20767 0.63791 0.0
H969 H 0.36899 0.18751 0.59016 0.0
H970 H 0.43178 0.19621 0.70917 0.0
H971 H 0.43153 0.19544 0.8003 0.0
C972 C 0.87879 0.3611 0.80819 0.0
C973 C 0.85647 0.384 0.81408 0.0
C974 C 0.85212 0.38447 0.68799 0.0
C975 C 0.87682 0.36422 0.68179 0.0
N976 N 0.91973 0.34152 0.73842 0.0
N977 N 0.83057 0.42451 0.75656 0.0
C978 C 0.89255 0.35585 0.7428 0.0
C979 C 0.84661 0.39844 0.75279 0.0
N980 N 0.88436 0.34176 0.86143 0.0
N981 N 0.83154 0.38774 0.63592 0.0
H982 H 0.8271 0.43544 0.80362 0.0
H983 H 0.82411 0.43653 0.71263 0.0
H984 H 0.83205 0.37512 0.59052 0.0
H985 H 0.81198 0.4006 0.64157 0.0
H986 H 0.89872 0.32329 0.85636 0.0
H987 H 0.87232 0.34203 0.90766 0.0
H988 H 0.93273 0.33663 0.78207 0.0
H989 H 0.93041 0.33763 0.69105 0.0
C990 C 0.62968 0.85142 0.76052 0.0
C991 C 0.64501 0.86038 0.8218 0.0
C992 C 0.67516 0.89495 0.75097 0.0
C993 C 0.66579 0.88006 0.68966 0.0
N994 N 0.63811 0.83754 0.64167 0.0
N995 N 0.68953 0.88541 0.8687 0.0
C996 C 0.64358 0.85684 0.69526 0.0
C997 C 0.66941 0.88123 0.81593 0.0
N998 N 0.6027 0.83648 0.76463 0.0
N999 N 0.69082 0.92137 0.74713 0.0
H1000 H 0.68892 0.87314 0.9145 0.0
H1001 H 0.70891 0.89872 0.86341 0.0
H1002 H 0.69439 0.93212 0.69994 0.0
H1003 H 0.69678 0.93381 0.79096 0.0
H1004 H 0.58986 0.83118 0.72089 0.0
H1005 H 0.59195 0.8325 0.8119 0.0
H1006 H 0.6239 0.81884 0.64638 0.0
H1007 H 0.65002 0.83822 0.59528 0.0
C1008 C 0.87418 0.68883 0.74493 0.0
C1009 C 0.85996 0.67477 0.68755 0.0
C1010 C 0.82714 0.64604 0.76578 0.0
C1011 C 0.84231 0.65916 0.823 0.0
N1012 N 0.86806 0.70342 0.86479 0.0
N1013 N 0.81394 0.65221 0.64499 0.0
C1014 C 0.86207 0.6839 0.81197 0.0
C1015 C 0.83358 0.65707 0.69837 0.0
N1016 N 0.89988 0.70562 0.73656 0.0
N1017 N 0.80744 0.62265 0.77506 0.0
H1018 H 0.81712 0.66227 0.59667 0.0
H1019 H 0.79315 0.64135 0.65107 0.0
H1020 H 0.80152 0.61457 0.82384 0.0
H1021 H 0.79838 0.61033 0.73393 0.0
H1022 H 0.91247 0.71375 0.77833 0.0
H1023 H 0.90983 0.70948 0.68847 0.0
H1024 H 0.88043 0.72326 0.85809 0.0
H1025 H 0.85786 0.70111 0.91328 0.0
C1026 C 0.36875 0.8848 0.72117 0.0
C1027 C 0.34868 0.86684 0.68141 0.0
C1028 C 0.35336 0.82643 0.76814 0.0
C1029 C 0.37455 0.84459 0.80566 0.0
N1030 N 0.41261 0.88343 0.79482 0.0
N1031 N 0.32793 0.81732 0.65848 0.0
C1032 C 0.38553 0.87132 0.77453 0.0
C1033 C 0.34241 0.83673 0.70257 0.0
N1034 N 0.37186 0.91488 0.70805 0.0
N1035 N 0.34404 0.79926 0.7933 0.0
H1036 H 0.31997 0.8236 0.60991 0.0
H1037 H 0.32592 0.79428 0.66752 0.0
H1038 H 0.35533 0.78772 0.83221 0.0
H1039 H 0.3251 0.78785 0.77432 0.0
H1040 H 0.38472 0.92916 0.73947 0.0
H1041 H 0.35907 0.92591 0.67052 0.0
H1042 H 0.42248 0.90189 0.7701 0.0
H1043 H 0.42671 0.87258 0.83027 0.0
C1044 C 0.14888 0.3283 0.74824 0.0
C1045 C 0.16386 0.34163 0.69104 0.0
C1046 C 0.19711 0.36951 0.77026 0.0
C1047 C 0.18214 0.35614 0.82753 0.0
N1048 N 0.15557 0.31195 0.86646 0.0
N1049 N 0.2113 0.36178 0.6508 0.0
C1050 C 0.16157 0.3321 0.81518 0.0
C1051 C 0.19086 0.35826 0.70292 0.0
N1052 N 0.12216 0.31316 0.74001 0.0
N1053 N 0.21615 0.39352 0.77872 0.0
H1054 H 0.20876 0.35028 0.60395 0.0
H1055 H 0.23229 0.37219 0.65783 0.0
H1056 H 0.2211 0.40306 0.82667 0.0
H1057 H 0.22509 0.4054 0.73687 0.0
H1058 H 0.10944 0.30551 0.78197 0.0
H1059 H 0.11147 0.31049 0.6923 0.0
H1060 H 0.14196 0.29296 0.85915 0.0
H1061 H 0.16816 0.31209 0.91218 0.0
C1062 C 0.6536 0.18512 0.75754 0.0
C1063 C 0.66843 0.17153 0.81445 0.0
C1064 C 0.70185 0.1442 0.73548 0.0
C1065 C 0.68617 0.15686 0.67864 0.0
N1066 N 0.65921 0.20034 0.6381 0.0
N1067 N 0.71542 0.15107 0.85583 0.0
C1068 C 0.66574 0.18084 0.69036 0.0
C1069 C 0.69536 0.15498 0.803 0.0
N1070 N 0.62743 0.20088 0.76651 0.0
N1071 N 0.72201 0.12137 0.72591 0.0
H1072 H 0.71216 0.16107 0.90421 0.0
H1073 H 0.73655 0.1411 0.84911 0.0
H1074 H 0.72786 0.11323 0.67716 0.0
H1075 H 0.73145 0.10943 0.76697 0.0
H1076 H 0.61452 0.20862 0.72501 0.0
H1077 H 0.61744 0.20421 0.81476 0.0
H1078 H 0.64619 0.21964 0.64528 0.0
H1079 H 0.66975 0.19876 0.58985 0.0
C1080 C 0.87372 0.33687 0.25797 0.0
C1081 C 0.85915 0.35046 0.31527 0.0
C1082 C 0.82569 0.37812 0.23695 0.0
C1083 C 0.84116 0.36551 0.17974 0.0
N1084 N 0.86781 0.322 0.1382 0.0
N1085 N 0.81237 0.3711 0.35735 0.0
C1086 C 0.86148 0.3414 0.19089 0.0
C1087 C 0.83228 0.36716 0.30428 0.0
N1088 N 0.89977 0.32087 0.2665 0.0
N1089 N 0.80562 0.40106 0.22789 0.0
H1090 H 0.81575 0.36108 0.40563 0.0
H1091 H 0.79127 0.38116 0.35097 0.0
H1092 H 0.79975 0.40932 0.17928 0.0
H1093 H 0.7963 0.41296 0.26921 0.0
H1094 H 0.91255 0.31313 0.2248 0.0
H1095 H 0.90976 0.3173 0.31468 0.0
H1096 H 0.88069 0.30259 0.14493 0.0
H1097 H 0.85729 0.32382 0.08993 0.0
C1098 C 0.68999 0.86548 0.1989 0.0
C1099 C 0.6634 0.84804 0.18829 0.0
C1100 C 0.66173 0.83871 0.31259 0.0
C1101 C 0.68177 0.86325 0.32369 0.0
N1102 N 0.71678 0.89952 0.2756 0.0
N1103 N 0.62369 0.81709 0.23721 0.0
C1104 C 0.6968 0.87634 0.26637 0.0
C1105 C 0.64935 0.83394 0.24565 0.0
N1106 N 0.70955 0.87009 0.14538 0.0
N1107 N 0.65586 0.8191 0.36516 0.0
H1108 H 0.61379 0.81315 0.18901 0.0
H1109 H 0.61115 0.80891 0.27892 0.0
H1110 H 0.66639 0.8212 0.41339 0.0
H1111 H 0.64329 0.79938 0.35842 0.0
H1112 H 0.7305 0.88069 0.15139 0.0
H1113 H 0.7061 0.86017 0.09693 0.0
H1114 H 0.72575 0.91182 0.23446 0.0
H1115 H 0.72302 0.90746 0.32437 0.0
C1116 C 0.15007 0.68613 0.26004 0.0
C1117 C 0.16427 0.67216 0.31732 0.0
C1118 C 0.19626 0.64289 0.23876 0.0
C1119 C 0.18129 0.65609 0.18158 0.0
N1120 N 0.15646 0.70072 0.14038 0.0
N1121 N 0.21042 0.64992 0.3587 0.0
C1122 C 0.16202 0.68106 0.19291 0.0
C1123 C 0.19041 0.65438 0.30603 0.0
N1124 N 0.1246 0.70303 0.26857 0.0
N1125 N 0.21507 0.6189 0.22984 0.0
H1126 H 0.20774 0.66044 0.4067 0.0
H1127 H 0.23104 0.63896 0.35203 0.0
H1128 H 0.22016 0.60995 0.18136 0.0
H1129 H 0.22397 0.6068 0.2713 0.0
H1130 H 0.11207 0.71114 0.22684 0.0
H1131 H 0.11474 0.70699 0.3167 0.0
H1132 H 0.14439 0.72063 0.14727 0.0
H1133 H 0.16694 0.69852 0.09217 0.0
C1134 C 0.3311 0.17316 0.27863 0.0
C1135 C 0.34491 0.14846 0.31349 0.0
C1136 C 0.38313 0.14569 0.2226 0.0
C1137 C 0.36831 0.16845 0.18416 0.0
N1138 N 0.32325 0.19858 0.16895 0.0
N1139 N 0.37593 0.10412 0.3006 0.0
C1140 C 0.34088 0.18087 0.21023 0.0
C1141 C 0.36824 0.13243 0.27939 0.0
N1142 N 0.30908 0.18959 0.31023 0.0
N1143 N 0.41196 0.13721 0.20635 0.0
H1144 H 0.36417 0.09284 0.33966 0.0
H1145 H 0.39135 0.09075 0.2738 0.0
H1146 H 0.42455 0.14781 0.16779 0.0
H1147 H 0.42439 0.12227 0.23666 0.0
H1148 H 0.30144 0.21014 0.29114 0.0
H1149 H 0.29916 0.18327 0.35666 0.0
H1150 H 0.30161 0.20557 0.18292 0.0
H1151 H 0.32887 0.20399 0.11815 0.0
loop_
_geom_bond_atom_site_label_1
_geom_bond_atom_site_label_2
_geom_bond_distance
_geom_bond_site_symmetry_2
_ccdc_geom_bond_type
Mn0 O5 2.095 1_554 S
Mn0 O15 2.162 . S
Mn0 O16 2.297 . S
Mn0 O24 2.385 . S
Mn0 O25 2.209 . S
Mn0 O26 2.094 . S
Mn1 O6 2.121 1_554 S
Mn1 N8 2.257 . S
Mn1 N17 2.282 . S
Mn1 O25 2.215 . S
Mn1 O27 2.117 . S
C2 O24 1.234 . S
C2 O25 1.283 . S
C3 O15 1.281 . S
C3 O16 1.236 . S
C4 O26 1.240 . S
C4 O27 1.264 . S
O5 Mn0 2.095 1_556 S
O5 C14 1.250 . S
O6 Mn1 2.121 1_556 S
O6 C14 1.258 . S
C7 N8 1.317 1_556 S
C7 C11 1.455 1_556 S
C7 H13 0.944 . S
N8 Mn1 2.257 . S
N8 C7 1.317 1_554 S
N8 C12 1.362 . S
C9 C10 1.258 . S
C9 C12 1.431 . S
C9 C29 1.449 . S
C10 C9 1.258 . S
C10 C11 1.477 . S
C10 H30 0.931 . S
C11 C7 1.455 1_554 S
C11 C10 1.477 . S
C11 H31 0.930 1_554 S
C12 N8 1.362 . S
C12 C9 1.431 . S
C12 C22 1.476 . S
H13 C7 0.944 . S
C14 O5 1.250 . S
C14 O6 1.258 . S
O15 Mn0 2.162 . S
O15 C3 1.281 . S
O16 Mn0 2.297 . S
O16 C3 1.236 . S
N17 Mn1 2.282 . S
N17 C18 1.328 . S
N17 C22 1.318 . S
C18 N17 1.328 . S
C18 C19 1.457 . S
C18 H23 0.929 . S
C19 C18 1.457 . S
C19 C20 1.291 . S
C19 H32 0.931 . S
C20 C19 1.291 . S
C20 C21 1.373 . S
C20 H33 0.929 . S
C21 C20 1.373 . S
C21 C22 1.396 . S
C21 C28 1.403 . S
C22 C12 1.476 . S
C22 N17 1.318 . S
C22 C21 1.396 . S
H23 C18 0.929 . S
O24 Mn0 2.385 . S
O24 C2 1.234 . S
O25 Mn0 2.209 . S
O25 Mn1 2.215 . S
O25 C2 1.283 . S
O26 Mn0 2.094 . S
O26 C4 1.240 . S
O27 Mn1 2.117 . S
O27 C4 1.264 . S
C28 C21 1.403 . S
C28 C29 1.399 . S
C28 H34 0.929 . S
C29 C9 1.449 . S
C29 C28 1.399 . S
C29 H35 0.930 . S
H30 C10 0.931 . S
H31 C11 0.930 1_556 S
H32 C19 0.931 . S
H33 C20 0.929 . S
H34 C28 0.929 . S
H35 C29 0.930 . S
Mn36 O41 2.095 1_554 S
Mn36 O51 2.162 . S
Mn36 O52 2.297 . S
Mn36 O60 2.385 . S
Mn36 O61 2.209 . S
Mn36 O62 2.094 . S
Mn37 O42 2.121 1_554 S
Mn37 N44 2.257 . S
Mn37 N53 2.282 . S
Mn37 O61 2.215 . S
Mn37 O63 2.117 . S
C38 O60 1.234 . S
C38 O61 1.283 . S
C39 O51 1.281 . S
C39 O52 1.236 . S
C40 O62 1.240 . S
C40 O63 1.264 . S
O41 Mn36 2.095 1_556 S
O41 C50 1.250 . S
O42 Mn37 2.121 1_556 S
O42 C50 1.258 . S
C43 N44 1.317 1_556 S
C43 C47 1.455 1_556 S
C43 H49 0.944 . S
N44 Mn37 2.257 . S
N44 C43 1.317 1_554 S
N44 C48 1.362 . S
C45 C46 1.258 . S
C45 C48 1.431 . S
C45 C65 1.449 . S
C46 C45 1.258 . S
C46 C47 1.477 . S
C46 H66 0.931 . S
C47 C43 1.455 1_554 S
C47 C46 1.477 . S
C47 H67 0.930 1_554 S
C48 N44 1.362 . S
C48 C45 1.431 . S
C48 C58 1.476 . S
H49 C43 0.944 . S
C50 O41 1.250 . S
C50 O42 1.258 . S
O51 Mn36 2.162 . S
O51 C39 1.281 . S
O52 Mn36 2.297 . S
O52 C39 1.236 . S
N53 Mn37 2.282 . S
N53 C54 1.328 . S
N53 C58 1.318 . S
C54 N53 1.328 . S
C54 C55 1.457 . S
C54 H59 0.929 . S
C55 C54 1.457 . S
C55 C56 1.291 . S
C55 H68 0.931 . S
C56 C55 1.291 . S
C56 C57 1.373 . S
C56 H69 0.929 . S
C57 C56 1.373 . S
C57 C58 1.396 . S
C57 C64 1.403 . S
C58 C48 1.476 . S
C58 N53 1.318 . S
C58 C57 1.396 . S
H59 C54 0.929 . S
O60 Mn36 2.385 . S
O60 C38 1.234 . S
O61 Mn36 2.209 . S
O61 Mn37 2.215 . S
O61 C38 1.283 . S
O62 Mn36 2.094 . S
O62 C40 1.240 . S
O63 Mn37 2.117 . S
O63 C40 1.264 . S
C64 C57 1.403 . S
C64 C65 1.399 . S
C64 H70 0.929 . S
C65 C45 1.449 . S
C65 C64 1.399 . S
C65 H71 0.930 . S
H66 C46 0.931 . S
H67 C47 0.930 1_556 S
H68 C55 0.931 . S
H69 C56 0.929 . S
H70 C64 0.929 . S
H71 C65 0.930 . S
Mn72 O77 2.095 1_554 S
Mn72 O87 2.162 . S
Mn72 O88 2.297 . S
Mn72 O96 2.385 . S
Mn72 O97 2.209 . S
Mn72 O98 2.094 . S
Mn73 O78 2.121 1_554 S
Mn73 N80 2.257 . S
Mn73 N89 2.282 . S
Mn73 O97 2.215 . S
Mn73 O99 2.117 . S
C74 O96 1.234 . S
C74 O97 1.283 . S
C75 O87 1.281 . S
C75 O88 1.236 . S
C76 O98 1.240 . S
C76 O99 1.264 . S
O77 Mn72 2.095 1_556 S
O77 C86 1.250 . S
O78 Mn73 2.121 1_556 S
O78 C86 1.258 . S
C79 N80 1.317 1_556 S
C79 C83 1.455 1_556 S
C79 H85 0.944 . S
N80 Mn73 2.257 . S
N80 C79 1.317 1_554 S
N80 C84 1.362 . S
C81 C82 1.258 . S
C81 C84 1.431 . S
C81 C101 1.449 . S
C82 C81 1.258 . S
C82 C83 1.477 . S
C82 H102 0.931 . S
C83 C79 1.455 1_554 S
C83 C82 1.477 . S
C83 H103 0.930 1_554 S
C84 N80 1.362 . S
C84 C81 1.431 . S
C84 C94 1.476 . S
H85 C79 0.944 . S
C86 O77 1.250 . S
C86 O78 1.258 . S
O87 Mn72 2.162 . S
O87 C75 1.281 . S
O88 Mn72 2.297 . S
O88 C75 1.236 . S
N89 Mn73 2.282 . S
N89 C90 1.328 . S
N89 C94 1.318 . S
C90 N89 1.328 . S
C90 C91 1.457 . S
C90 H95 0.929 . S
C91 C90 1.457 . S
C91 C92 1.291 . S
C91 H104 0.931 . S
C92 C91 1.291 . S
C92 C93 1.373 . S
C92 H105 0.929 . S
C93 C92 1.373 . S
C93 C94 1.396 . S
C93 C100 1.403 . S
C94 C84 1.476 . S
C94 N89 1.318 . S
C94 C93 1.396 . S
H95 C90 0.929 . S
O96 Mn72 2.385 . S
O96 C74 1.234 . S
O97 Mn72 2.209 . S
O97 Mn73 2.215 . S
O97 C74 1.283 . S
O98 Mn72 2.094 . S
O98 C76 1.240 . S
O99 Mn73 2.117 . S
O99 C76 1.264 . S
C100 C93 1.403 . S
C100 C101 1.399 . S
C100 H106 0.929 . S
C101 C81 1.449 . S
C101 C100 1.399 . S
C101 H107 0.930 . S
H102 C82 0.931 . S
H103 C83 0.930 1_556 S
H104 C91 0.931 . S
H105 C92 0.929 . S
H106 C100 0.929 . S
H107 C101 0.930 . S
Mn108 O113 2.095 1_554 S
Mn108 O123 2.162 . S
Mn108 O124 2.297 . S
Mn108 O132 2.385 . S
Mn108 O133 2.209 . S
Mn108 O134 2.094 . S
Mn109 O114 2.121 1_554 S
Mn109 N116 2.257 . S
Mn109 N125 2.282 . S
Mn109 O133 2.215 . S
Mn109 O135 2.117 . S
C110 O132 1.234 . S
C110 O133 1.283 . S
C111 O123 1.281 . S
C111 O124 1.236 . S
C112 O134 1.240 . S
C112 O135 1.264 . S
O113 Mn108 2.095 1_556 S
O113 C122 1.250 . S
O114 Mn109 2.121 1_556 S
O114 C122 1.258 . S
C115 N116 1.317 1_556 S
C115 C119 1.455 1_556 S
C115 H121 0.944 . S
N116 Mn109 2.257 . S
N116 C115 1.317 1_554 S
N116 C120 1.362 . S
C117 C118 1.258 . S
C117 C120 1.431 . S
C117 C137 1.449 . S
C118 C117 1.258 . S
C118 C119 1.477 . S
C118 H138 0.931 . S
C119 C115 1.455 1_554 S
C119 C118 1.477 . S
C119 H139 0.930 1_554 S
C120 N116 1.362 . S
C120 C117 1.431 . S
C120 C130 1.476 . S
H121 C115 0.944 . S
C122 O113 1.250 . S
C122 O114 1.258 . S
O123 Mn108 2.162 . S
O123 C111 1.281 . S
O124 Mn108 2.297 . S
O124 C111 1.236 . S
N125 Mn109 2.282 . S
N125 C126 1.328 . S
N125 C130 1.318 . S
C126 N125 1.328 . S
C126 C127 1.457 . S
C126 H131 0.929 . S
C127 C126 1.457 . S
C127 C128 1.291 . S
C127 H140 0.931 . S
C128 C127 1.291 . S
C128 C129 1.373 . S
C128 H141 0.929 . S
C129 C128 1.373 . S
C129 C130 1.396 . S
C129 C136 1.403 . S
C130 C120 1.476 . S
C130 N125 1.318 . S
C130 C129 1.396 . S
H131 C126 0.929 . S
O132 Mn108 2.385 . S
O132 C110 1.234 . S
O133 Mn108 2.209 . S
O133 Mn109 2.215 . S
O133 C110 1.283 . S
O134 Mn108 2.094 . S
O134 C112 1.240 . S
O135 Mn109 2.117 . S
O135 C112 1.264 . S
C136 C129 1.403 . S
C136 C137 1.399 . S
C136 H142 0.929 . S
C137 C117 1.449 . S
C137 C136 1.399 . S
C137 H143 0.930 . S
H138 C118 0.931 . S
H139 C119 0.930 1_556 S
H140 C127 0.931 . S
H141 C128 0.929 . S
H142 C136 0.929 . S
H143 C137 0.930 . S
Mn144 O149 2.095 1_556 S
Mn144 O159 2.162 1_556 S
Mn144 O160 2.297 . S
Mn144 O168 2.385 . S
Mn144 O169 2.209 . S
Mn144 O170 2.094 . S
Mn145 O150 2.121 1_556 S
Mn145 N152 2.257 . S
Mn145 N161 2.282 . S
Mn145 O169 2.215 . S
Mn145 O171 2.117 . S
C146 O168 1.234 . S
C146 O169 1.283 . S
C147 O159 1.281 . S
C147 O160 1.235 1_554 S
C148 O170 1.241 . S
C148 O171 1.264 . S
O149 Mn144 2.095 1_554 S
O149 C158 1.250 . S
O150 Mn145 2.121 1_554 S
O150 C158 1.258 . S
C151 N152 1.326 1_554 S
C151 C155 1.460 1_554 S
C151 H157 0.929 . S
N152 Mn145 2.257 . S
N152 C151 1.326 1_556 S
N152 C156 1.362 . S
C153 C154 1.258 . S
C153 C156 1.431 . S
C153 C173 1.449 . S
C154 C153 1.258 . S
C154 C155 1.477 . S
C154 H174 0.931 . S
C155 C151 1.460 1_556 S
C155 C154 1.477 . S
C155 H175 0.930 1_556 S
C156 N152 1.362 . S
C156 C153 1.431 . S
C156 C166 1.476 . S
H157 C151 0.929 . S
C158 O149 1.250 . S
C158 O150 1.258 . S
O159 Mn144 2.162 1_554 S
O159 C147 1.281 . S
O160 Mn144 2.297 . S
O160 C147 1.235 1_556 S
N161 Mn145 2.282 . S
N161 C162 1.328 . S
N161 C166 1.318 . S
C162 N161 1.328 . S
C162 C163 1.457 . S
C162 H167 0.929 . S
C163 C162 1.457 . S
C163 C164 1.291 . S
C163 H176 0.931 . S
C164 C163 1.291 . S
C164 C165 1.373 . S
C164 H177 0.929 . S
C165 C164 1.373 . S
C165 C166 1.396 . S
C165 C172 1.403 . S
C166 C156 1.476 . S
C166 N161 1.318 . S
C166 C165 1.396 . S
H167 C162 0.929 . S
O168 Mn144 2.385 . S
O168 C146 1.234 . S
O169 Mn144 2.209 . S
O169 Mn145 2.215 . S
O169 C146 1.283 . S
O170 Mn144 2.094 . S
O170 C148 1.241 . S
O171 Mn145 2.117 . S
O171 C148 1.264 . S
C172 C165 1.403 . S
C172 C173 1.399 . S
C172 H178 0.929 . S
C173 C153 1.449 . S
C173 C172 1.399 . S
C173 H179 0.930 . S
H174 C154 0.931 . S
H175 C155 0.930 1_554 S
H176 C163 0.931 . S
H177 C164 0.929 . S
H178 C172 0.929 . S
H179 C173 0.930 . S
Mn180 O185 2.095 1_556 S
Mn180 O195 2.162 1_556 S
Mn180 O196 2.297 . S
Mn180 O204 2.385 . S
Mn180 O205 2.209 . S
Mn180 O206 2.094 . S
Mn181 O186 2.121 1_556 S
Mn181 N188 2.257 . S
Mn181 N197 2.282 . S
Mn181 O205 2.215 . S
Mn181 O207 2.117 . S
C182 O204 1.234 . S
C182 O205 1.283 . S
C183 O195 1.281 . S
C183 O196 1.235 1_554 S
C184 O206 1.241 . S
C184 O207 1.264 . S
O185 Mn180 2.095 1_554 S
O185 C194 1.250 . S
O186 Mn181 2.121 1_554 S
O186 C194 1.258 . S
C187 N188 1.326 1_554 S
C187 C191 1.460 1_554 S
C187 H193 0.929 . S
N188 Mn181 2.257 . S
N188 C187 1.326 1_556 S
N188 C192 1.362 . S
C189 C190 1.258 . S
C189 C192 1.431 . S
C189 C209 1.449 . S
C190 C189 1.258 . S
C190 C191 1.477 . S
C190 H210 0.931 . S
C191 C187 1.460 1_556 S
C191 C190 1.477 . S
C191 H211 0.930 1_556 S
C192 N188 1.362 . S
C192 C189 1.431 . S
C192 C202 1.476 . S
H193 C187 0.929 . S
C194 O185 1.250 . S
C194 O186 1.258 . S
O195 Mn180 2.162 1_554 S
O195 C183 1.281 . S
O196 Mn180 2.297 . S
O196 C183 1.235 1_556 S
N197 Mn181 2.282 . S
N197 C198 1.328 . S
N197 C202 1.318 . S
C198 N197 1.328 . S
C198 C199 1.457 . S
C198 H203 0.929 . S
C199 C198 1.457 . S
C199 C200 1.291 . S
C199 H212 0.931 . S
C200 C199 1.291 . S
C200 C201 1.373 . S
C200 H213 0.929 . S
C201 C200 1.373 . S
C201 C202 1.396 . S
C201 C208 1.403 . S
C202 C192 1.476 . S
C202 N197 1.318 . S
C202 C201 1.396 . S
H203 C198 0.929 . S
O204 Mn180 2.385 . S
O204 C182 1.234 . S
O205 Mn180 2.209 . S
O205 Mn181 2.215 . S
O205 C182 1.283 . S
O206 Mn180 2.094 . S
O206 C184 1.241 . S
O207 Mn181 2.117 . S
O207 C184 1.264 . S
C208 C201 1.403 . S
C208 C209 1.399 . S
C208 H214 0.929 . S
C209 C189 1.449 . S
C209 C208 1.399 . S
C209 H215 0.930 . S
H210 C190 0.931 . S
H211 C191 0.930 1_554 S
H212 C199 0.931 . S
H213 C200 0.929 . S
H214 C208 0.929 . S
H215 C209 0.930 . S
Mn216 O221 2.095 1_556 S
Mn216 O231 2.162 1_556 S
Mn216 O232 2.297 . S
Mn216 O240 2.385 . S
Mn216 O241 2.209 . S
Mn216 O242 2.094 . S
Mn217 O222 2.121 1_556 S
Mn217 N224 2.257 . S
Mn217 N233 2.282 . S
Mn217 O241 2.215 . S
Mn217 O243 2.117 . S
C218 O240 1.234 . S
C218 O241 1.283 . S
C219 O231 1.281 . S
C219 O232 1.235 1_554 S
C220 O242 1.241 . S
C220 O243 1.264 . S
O221 Mn216 2.095 1_554 S
O221 C230 1.250 . S
O222 Mn217 2.121 1_554 S
O222 C230 1.258 . S
C223 N224 1.326 1_554 S
C223 C227 1.460 1_554 S
C223 H229 0.929 . S
N224 Mn217 2.257 . S
N224 C223 1.326 1_556 S
N224 C228 1.362 . S
C225 C226 1.258 . S
C225 C228 1.431 . S
C225 C245 1.449 . S
C226 C225 1.258 . S
C226 C227 1.477 . S
C226 H246 0.931 . S
C227 C223 1.460 1_556 S
C227 C226 1.477 . S
C227 H247 0.930 1_556 S
C228 N224 1.362 . S
C228 C225 1.431 . S
C228 C238 1.476 . S
H229 C223 0.929 . S
C230 O221 1.250 . S
C230 O222 1.258 . S
O231 Mn216 2.162 1_554 S
O231 C219 1.281 . S
O232 Mn216 2.297 . S
O232 C219 1.235 1_556 S
N233 Mn217 2.282 . S
N233 C234 1.328 . S
N233 C238 1.318 . S
C234 N233 1.328 . S
C234 C235 1.457 . S
C234 H239 0.929 . S
C235 C234 1.457 . S
C235 C236 1.291 . S
C235 H248 0.931 . S
C236 C235 1.291 . S
C236 C237 1.373 . S
C236 H249 0.929 . S
C237 C236 1.373 . S
C237 C238 1.396 . S
C237 C244 1.403 . S
C238 C228 1.476 . S
C238 N233 1.318 . S
C238 C237 1.396 . S
H239 C234 0.929 . S
O240 Mn216 2.385 . S
O240 C218 1.234 . S
O241 Mn216 2.209 . S
O241 Mn217 2.215 . S
O241 C218 1.283 . S
O242 Mn216 2.094 . S
O242 C220 1.241 . S
O243 Mn217 2.117 . S
O243 C220 1.264 . S
C244 C237 1.403 . S
C244 C245 1.399 . S
C244 H250 0.929 . S
C245 C225 1.449 . S
C245 C244 1.399 . S
C245 H251 0.930 . S
H246 C226 0.931 . S
H247 C227 0.930 1_554 S
H248 C235 0.931 . S
H249 C236 0.929 . S
H250 C244 0.929 . S
H251 C245 0.930 . S
Mn252 O257 2.095 1_556 S
Mn252 O267 2.162 1_556 S
Mn252 O268 2.297 . S
Mn252 O276 2.385 . S
Mn252 O277 2.209 . S
Mn252 O278 2.094 . S
Mn253 O258 2.121 1_556 S
Mn253 N260 2.257 . S
Mn253 N269 2.282 . S
Mn253 O277 2.215 . S
Mn253 O279 2.117 . S
C254 O276 1.234 . S
C254 O277 1.283 . S
C255 O267 1.281 . S
C255 O268 1.235 1_554 S
C256 O278 1.241 . S
C256 O279 1.264 . S
O257 Mn252 2.095 1_554 S
O257 C266 1.250 . S
O258 Mn253 2.121 1_554 S
O258 C266 1.258 . S
C259 N260 1.326 1_554 S
C259 C263 1.460 1_554 S
C259 H265 0.929 . S
N260 Mn253 2.257 . S
N260 C259 1.326 1_556 S
N260 C264 1.362 . S
C261 C262 1.258 . S
C261 C264 1.431 . S
C261 C281 1.449 . S
C262 C261 1.258 . S
C262 C263 1.477 . S
C262 H282 0.931 . S
C263 C259 1.460 1_556 S
C263 C262 1.477 . S
C263 H283 0.930 1_556 S
C264 N260 1.362 . S
C264 C261 1.431 . S
C264 C274 1.476 . S
H265 C259 0.929 . S
C266 O257 1.250 . S
C266 O258 1.258 . S
O267 Mn252 2.162 1_554 S
O267 C255 1.281 . S
O268 Mn252 2.297 . S
O268 C255 1.235 1_556 S
N269 Mn253 2.282 . S
N269 C270 1.328 . S
N269 C274 1.318 . S
C270 N269 1.328 . S
C270 C271 1.457 . S
C270 H275 0.929 . S
C271 C270 1.457 . S
C271 C272 1.291 . S
C271 H284 0.931 . S
C272 C271 1.291 . S
C272 C273 1.373 . S
C272 H285 0.929 . S
C273 C272 1.373 . S
C273 C274 1.396 . S
C273 C280 1.403 . S
C274 C264 1.476 . S
C274 N269 1.318 . S
C274 C273 1.396 . S
H275 C270 0.929 . S
O276 Mn252 2.385 . S
O276 C254 1.234 . S
O277 Mn252 2.209 . S
O277 Mn253 2.215 . S
O277 C254 1.283 . S
O278 Mn252 2.094 . S
O278 C256 1.241 . S
O279 Mn253 2.117 . S
O279 C256 1.264 . S
C280 C273 1.403 . S
C280 C281 1.399 . S
C280 H286 0.929 . S
C281 C261 1.449 . S
C281 C280 1.399 . S
C281 H287 0.930 . S
H282 C262 0.931 . S
H283 C263 0.930 1_554 S
H284 C271 0.931 . S
H285 C272 0.929 . S
H286 C280 0.929 . S
H287 C281 0.930 . S
Mn288 O293 2.095 . S
Mn288 O303 2.162 . S
Mn288 O304 2.297 . S
Mn288 O312 2.385 . S
Mn288 O313 2.209 . S
Mn288 O314 2.094 . S
Mn289 O294 2.121 . S
Mn289 N296 2.257 . S
Mn289 N305 2.282 . S
Mn289 O313 2.215 . S
Mn289 O315 2.117 . S
C290 O312 1.234 . S
C290 O313 1.283 . S
C291 O303 1.281 . S
C291 O304 1.236 . S
C292 O314 1.240 . S
C292 O315 1.264 . S
O293 Mn288 2.095 . S
O293 C302 1.250 . S
O294 Mn289 2.121 . S
O294 C302 1.258 . S
C295 N296 1.326 . S
C295 C299 1.460 . S
C295 H301 0.929 . S
N296 Mn289 2.257 . S
N296 C295 1.326 . S
N296 C300 1.362 . S
C297 C298 1.258 . S
C297 C300 1.431 . S
C297 C317 1.449 . S
C298 C297 1.258 . S
C298 C299 1.477 . S
C298 H318 0.931 . S
C299 C295 1.460 . S
C299 C298 1.477 . S
C299 H319 0.930 . S
C300 N296 1.362 . S
C300 C297 1.431 . S
C300 C310 1.476 . S
H301 C295 0.929 . S
C302 O293 1.250 . S
C302 O294 1.258 . S
O303 Mn288 2.162 . S
O303 C291 1.281 . S
O304 Mn288 2.297 . S
O304 C291 1.236 . S
N305 Mn289 2.282 . S
N305 C306 1.328 . S
N305 C310 1.318 . S
C306 N305 1.328 . S
C306 C307 1.457 . S
C306 H311 0.929 . S
C307 C306 1.457 . S
C307 C308 1.291 . S
C307 H320 0.931 . S
C308 C307 1.291 . S
C308 C309 1.373 . S
C308 H321 0.929 . S
C309 C308 1.373 . S
C309 C310 1.396 . S
C309 C316 1.403 . S
C310 C300 1.476 . S
C310 N305 1.318 . S
C310 C309 1.396 . S
H311 C306 0.929 . S
O312 Mn288 2.385 . S
O312 C290 1.234 . S
O313 Mn288 2.209 . S
O313 Mn289 2.215 . S
O313 C290 1.283 . S
O314 Mn288 2.094 . S
O314 C292 1.240 . S
O315 Mn289 2.117 . S
O315 C292 1.264 . S
C316 C309 1.403 . S
C316 C317 1.399 . S
C316 H322 0.929 . S
C317 C297 1.449 . S
C317 C316 1.399 . S
C317 H323 0.930 . S
H318 C298 0.931 . S
H319 C299 0.930 . S
H320 C307 0.931 . S
H321 C308 0.929 . S
H322 C316 0.929 . S
H323 C317 0.930 . S
Mn324 O329 2.095 . S
Mn324 O339 2.162 . S
Mn324 O340 2.297 . S
Mn324 O348 2.385 . S
Mn324 O349 2.209 . S
Mn324 O350 2.094 . S
Mn325 O330 2.121 . S
Mn325 N332 2.257 . S
Mn325 N341 2.282 . S
Mn325 O349 2.215 . S
Mn325 O351 2.117 . S
C326 O348 1.234 . S
C326 O349 1.283 . S
C327 O339 1.281 . S
C327 O340 1.236 . S
C328 O350 1.240 . S
C328 O351 1.264 . S
O329 Mn324 2.095 . S
O329 C338 1.250 . S
O330 Mn325 2.121 . S
O330 C338 1.258 . S
C331 N332 1.326 . S
C331 C335 1.460 . S
C331 H337 0.929 . S
N332 Mn325 2.257 . S
N332 C331 1.326 . S
N332 C336 1.362 . S
C333 C334 1.258 . S
C333 C336 1.431 . S
C333 C353 1.449 . S
C334 C333 1.258 . S
C334 C335 1.477 . S
C334 H354 0.931 . S
C335 C331 1.460 . S
C335 C334 1.477 . S
C335 H355 0.930 . S
C336 N332 1.362 . S
C336 C333 1.431 . S
C336 C346 1.476 . S
H337 C331 0.929 . S
C338 O329 1.250 . S
C338 O330 1.258 . S
O339 Mn324 2.162 . S
O339 C327 1.281 . S
O340 Mn324 2.297 . S
O340 C327 1.236 . S
N341 Mn325 2.282 . S
N341 C342 1.328 . S
N341 C346 1.318 . S
C342 N341 1.328 . S
C342 C343 1.457 . S
C342 H347 0.929 . S
C343 C342 1.457 . S
C343 C344 1.291 . S
C343 H356 0.931 . S
C344 C343 1.291 . S
C344 C345 1.373 . S
C344 H357 0.929 . S
C345 C344 1.373 . S
C345 C346 1.396 . S
C345 C352 1.403 . S
C346 C336 1.476 . S
C346 N341 1.318 . S
C346 C345 1.396 . S
H347 C342 0.929 . S
O348 Mn324 2.385 . S
O348 C326 1.234 . S
O349 Mn324 2.209 . S
O349 Mn325 2.215 . S
O349 C326 1.283 . S
O350 Mn324 2.094 . S
O350 C328 1.240 . S
O351 Mn325 2.117 . S
O351 C328 1.264 . S
C352 C345 1.403 . S
C352 C353 1.399 . S
C352 H358 0.929 . S
C353 C333 1.449 . S
C353 C352 1.399 . S
C353 H359 0.930 . S
H354 C334 0.931 . S
H355 C335 0.930 . S
H356 C343 0.931 . S
H357 C344 0.929 . S
H358 C352 0.929 . S
H359 C353 0.930 . S
Mn360 O365 2.095 . S
Mn360 O375 2.162 . S
Mn360 O376 2.297 . S
Mn360 O384 2.385 . S
Mn360 O385 2.209 . S
Mn360 O386 2.094 . S
Mn361 O366 2.121 . S
Mn361 N368 2.257 . S
Mn361 N377 2.282 . S
Mn361 O385 2.215 . S
Mn361 O387 2.117 . S
C362 O384 1.234 . S
C362 O385 1.283 . S
C363 O375 1.281 . S
C363 O376 1.236 . S
C364 O386 1.240 . S
C364 O387 1.264 . S
O365 Mn360 2.095 . S
O365 C374 1.250 . S
O366 Mn361 2.121 . S
O366 C374 1.258 . S
C367 N368 1.326 . S
C367 C371 1.460 . S
C367 H373 0.929 . S
N368 Mn361 2.257 . S
N368 C367 1.326 . S
N368 C372 1.362 . S
C369 C370 1.258 . S
C369 C372 1.431 . S
C369 C389 1.449 . S
C370 C369 1.258 . S
C370 C371 1.477 . S
C370 H390 0.931 . S
C371 C367 1.460 . S
C371 C370 1.477 . S
C371 H391 0.930 . S
C372 N368 1.362 . S
C372 C369 1.431 . S
C372 C382 1.476 . S
H373 C367 0.929 . S
C374 O365 1.250 . S
C374 O366 1.258 . S
O375 Mn360 2.162 . S
O375 C363 1.281 . S
O376 Mn360 2.297 . S
O376 C363 1.236 . S
N377 Mn361 2.282 . S
N377 C378 1.328 . S
N377 C382 1.318 . S
C378 N377 1.328 . S
C378 C379 1.457 . S
C378 H383 0.929 . S
C379 C378 1.457 . S
C379 C380 1.291 . S
C379 H392 0.931 . S
C380 C379 1.291 . S
C380 C381 1.373 . S
C380 H393 0.929 . S
C381 C380 1.373 . S
C381 C382 1.396 . S
C381 C388 1.403 . S
C382 C372 1.476 . S
C382 N377 1.318 . S
C382 C381 1.396 . S
H383 C378 0.929 . S
O384 Mn360 2.385 . S
O384 C362 1.234 . S
O385 Mn360 2.209 . S
O385 Mn361 2.215 . S
O385 C362 1.283 . S
O386 Mn360 2.094 . S
O386 C364 1.240 . S
O387 Mn361 2.117 . S
O387 C364 1.264 . S
C388 C381 1.403 . S
C388 C389 1.399 . S
C388 H394 0.929 . S
C389 C369 1.449 . S
C389 C388 1.399 . S
C389 H395 0.930 . S
H390 C370 0.931 . S
H391 C371 0.930 . S
H392 C379 0.931 . S
H393 C380 0.929 . S
H394 C388 0.929 . S
H395 C389 0.930 . S
Mn396 O401 2.095 . S
Mn396 O411 2.162 . S
Mn396 O412 2.297 . S
Mn396 O420 2.385 . S
Mn396 O421 2.209 . S
Mn396 O422 2.094 . S
Mn397 O402 2.121 . S
Mn397 N404 2.257 . S
Mn397 N413 2.282 . S
Mn397 O421 2.215 . S
Mn397 O423 2.117 . S
C398 O420 1.234 . S
C398 O421 1.283 . S
C399 O411 1.281 . S
C399 O412 1.236 . S
C400 O422 1.240 . S
C400 O423 1.264 . S
O401 Mn396 2.095 . S
O401 C410 1.250 . S
O402 Mn397 2.121 . S
O402 C410 1.258 . S
C403 N404 1.326 . S
C403 C407 1.460 . S
C403 H409 0.929 . S
N404 Mn397 2.257 . S
N404 C403 1.326 . S
N404 C408 1.362 . S
C405 C406 1.258 . S
C405 C408 1.431 . S
C405 C425 1.449 . S
C406 C405 1.258 . S
C406 C407 1.477 . S
C406 H426 0.931 . S
C407 C403 1.460 . S
C407 C406 1.477 . S
C407 H427 0.930 . S
C408 N404 1.362 . S
C408 C405 1.431 . S
C408 C418 1.476 . S
H409 C403 0.929 . S
C410 O401 1.250 . S
C410 O402 1.258 . S
O411 Mn396 2.162 . S
O411 C399 1.281 . S
O412 Mn396 2.297 . S
O412 C399 1.236 . S
N413 Mn397 2.282 . S
N413 C414 1.328 . S
N413 C418 1.318 . S
C414 N413 1.328 . S
C414 C415 1.457 . S
C414 H419 0.929 . S
C415 C414 1.457 . S
C415 C416 1.291 . S
C415 H428 0.931 . S
C416 C415 1.291 . S
C416 C417 1.373 . S
C416 H429 0.929 . S
C417 C416 1.373 . S
C417 C418 1.396 . S
C417 C424 1.403 . S
C418 C408 1.476 . S
C418 N413 1.318 . S
C418 C417 1.396 . S
H419 C414 0.929 . S
O420 Mn396 2.385 . S
O420 C398 1.234 . S
O421 Mn396 2.209 . S
O421 Mn397 2.215 . S
O421 C398 1.283 . S
O422 Mn396 2.094 . S
O422 C400 1.240 . S
O423 Mn397 2.117 . S
O423 C400 1.264 . S
C424 C417 1.403 . S
C424 C425 1.399 . S
C424 H430 0.929 . S
C425 C405 1.449 . S
C425 C424 1.399 . S
C425 H431 0.930 . S
H426 C406 0.931 . S
H427 C407 0.930 . S
H428 C415 0.931 . S
H429 C416 0.929 . S
H430 C424 0.929 . S
H431 C425 0.930 . S
Mn432 O437 2.095 . S
Mn432 O447 2.162 . S
Mn432 O448 2.297 . S
Mn432 O456 2.385 . S
Mn432 O457 2.209 . S
Mn432 O458 2.094 . S
Mn433 O438 2.121 . S
Mn433 N440 2.257 . S
Mn433 N449 2.282 . S
Mn433 O457 2.215 . S
Mn433 O459 2.117 . S
C434 O456 1.234 . S
C434 O457 1.283 . S
C435 O447 1.281 . S
C435 O448 1.236 . S
C436 O458 1.240 . S
C436 O459 1.264 . S
O437 Mn432 2.095 . S
O437 C446 1.250 . S
O438 Mn433 2.121 . S
O438 C446 1.258 . S
C439 N440 1.326 . S
C439 C443 1.460 . S
C439 H445 0.929 . S
N440 Mn433 2.257 . S
N440 C439 1.326 . S
N440 C444 1.362 . S
C441 C442 1.258 . S
C441 C444 1.431 . S
C441 C461 1.449 . S
C442 C441 1.258 . S
C442 C443 1.477 . S
C442 H462 0.931 . S
C443 C439 1.460 . S
C443 C442 1.477 . S
C443 H463 0.930 . S
C444 N440 1.362 . S
C444 C441 1.431 . S
C444 C454 1.476 . S
H445 C439 0.929 . S
C446 O437 1.250 . S
C446 O438 1.258 . S
O447 Mn432 2.162 . S
O447 C435 1.281 . S
O448 Mn432 2.297 . S
O448 C435 1.236 . S
N449 Mn433 2.282 . S
N449 C450 1.328 . S
N449 C454 1.318 . S
C450 N449 1.328 . S
C450 C451 1.457 . S
C450 H455 0.929 . S
C451 C450 1.457 . S
C451 C452 1.291 . S
C451 H464 0.931 . S
C452 C451 1.291 . S
C452 C453 1.373 . S
C452 H465 0.929 . S
C453 C452 1.373 . S
C453 C454 1.396 . S
C453 C460 1.403 . S
C454 C444 1.476 . S
C454 N449 1.318 . S
C454 C453 1.396 . S
H455 C450 0.929 . S
O456 Mn432 2.385 . S
O456 C434 1.234 . S
O457 Mn432 2.209 . S
O457 Mn433 2.215 . S
O457 C434 1.283 . S
O458 Mn432 2.094 . S
O458 C436 1.240 . S
O459 Mn433 2.117 . S
O459 C436 1.264 . S
C460 C453 1.403 . S
C460 C461 1.399 . S
C460 H466 0.929 . S
C461 C441 1.449 . S
C461 C460 1.399 . S
C461 H467 0.930 . S
H462 C442 0.931 . S
H463 C443 0.930 . S
H464 C451 0.931 . S
H465 C452 0.929 . S
H466 C460 0.929 . S
H467 C461 0.930 . S
Mn468 O473 2.095 . S
Mn468 O483 2.162 . S
Mn468 O484 2.297 . S
Mn468 O492 2.385 . S
Mn468 O493 2.209 . S
Mn468 O494 2.094 . S
Mn469 O474 2.121 . S
Mn469 N476 2.257 . S
Mn469 N485 2.282 . S
Mn469 O493 2.215 . S
Mn469 O495 2.117 . S
C470 O492 1.234 . S
C470 O493 1.283 . S
C471 O483 1.281 . S
C471 O484 1.236 . S
C472 O494 1.240 . S
C472 O495 1.264 . S
O473 Mn468 2.095 . S
O473 C482 1.250 . S
O474 Mn469 2.121 . S
O474 C482 1.258 . S
C475 N476 1.326 . S
C475 C479 1.460 . S
C475 H481 0.929 . S
N476 Mn469 2.257 . S
N476 C475 1.326 . S
N476 C480 1.362 . S
C477 C478 1.258 . S
C477 C480 1.431 . S
C477 C497 1.449 . S
C478 C477 1.258 . S
C478 C479 1.477 . S
C478 H498 0.931 . S
C479 C475 1.460 . S
C479 C478 1.477 . S
C479 H499 0.930 . S
C480 N476 1.362 . S
C480 C477 1.431 . S
C480 C490 1.476 . S
H481 C475 0.929 . S
C482 O473 1.250 . S
C482 O474 1.258 . S
O483 Mn468 2.162 . S
O483 C471 1.281 . S
O484 Mn468 2.297 . S
O484 C471 1.236 . S
N485 Mn469 2.282 . S
N485 C486 1.328 . S
N485 C490 1.318 . S
C486 N485 1.328 . S
C486 C487 1.457 . S
C486 H491 0.929 . S
C487 C486 1.457 . S
C487 C488 1.291 . S
C487 H500 0.931 . S
C488 C487 1.291 . S
C488 C489 1.373 . S
C488 H501 0.929 . S
C489 C488 1.373 . S
C489 C490 1.396 . S
C489 C496 1.403 . S
C490 C480 1.476 . S
C490 N485 1.318 . S
C490 C489 1.396 . S
H491 C486 0.929 . S
O492 Mn468 2.385 . S
O492 C470 1.234 . S
O493 Mn468 2.209 . S
O493 Mn469 2.215 . S
O493 C470 1.283 . S
O494 Mn468 2.094 . S
O494 C472 1.240 . S
O495 Mn469 2.117 . S
O495 C472 1.264 . S
C496 C489 1.403 . S
C496 C497 1.399 . S
C496 H502 0.929 . S
C497 C477 1.449 . S
C497 C496 1.399 . S
C497 H503 0.930 . S
H498 C478 0.931 . S
H499 C479 0.930 . S
H500 C487 0.931 . S
H501 C488 0.929 . S
H502 C496 0.929 . S
H503 C497 0.930 . S
Mn504 O509 2.095 . S
Mn504 O519 2.162 . S
Mn504 O520 2.297 . S
Mn504 O528 2.385 . S
Mn504 O529 2.209 . S
Mn504 O530 2.094 . S
Mn505 O510 2.121 . S
Mn505 N512 2.257 . S
Mn505 N521 2.282 . S
Mn505 O529 2.215 . S
Mn505 O531 2.117 . S
C506 O528 1.234 . S
C506 O529 1.283 . S
C507 O519 1.281 . S
C507 O520 1.236 . S
C508 O530 1.240 . S
C508 O531 1.264 . S
O509 Mn504 2.095 . S
O509 C518 1.250 . S
O510 Mn505 2.121 . S
O510 C518 1.258 . S
C511 N512 1.326 . S
C511 C515 1.460 . S
C511 H517 0.929 . S
N512 Mn505 2.257 . S
N512 C511 1.326 . S
N512 C516 1.362 . S
C513 C514 1.258 . S
C513 C516 1.431 . S
C513 C533 1.449 . S
C514 C513 1.258 . S
C514 C515 1.477 . S
C514 H534 0.931 . S
C515 C511 1.460 . S
C515 C514 1.477 . S
C515 H535 0.930 . S
C516 N512 1.362 . S
C516 C513 1.431 . S
C516 C526 1.476 . S
H517 C511 0.929 . S
C518 O509 1.250 . S
C518 O510 1.258 . S
O519 Mn504 2.162 . S
O519 C507 1.281 . S
O520 Mn504 2.297 . S
O520 C507 1.236 . S
N521 Mn505 2.282 . S
N521 C522 1.328 . S
N521 C526 1.318 . S
C522 N521 1.328 . S
C522 C523 1.457 . S
C522 H527 0.929 . S
C523 C522 1.457 . S
C523 C524 1.291 . S
C523 H536 0.931 . S
C524 C523 1.291 . S
C524 C525 1.373 . S
C524 H537 0.929 . S
C525 C524 1.373 . S
C525 C526 1.396 . S
C525 C532 1.403 . S
C526 C516 1.476 . S
C526 N521 1.318 . S
C526 C525 1.396 . S
H527 C522 0.929 . S
O528 Mn504 2.385 . S
O528 C506 1.234 . S
O529 Mn504 2.209 . S
O529 Mn505 2.215 . S
O529 C506 1.283 . S
O530 Mn504 2.094 . S
O530 C508 1.240 . S
O531 Mn505 2.117 . S
O531 C508 1.264 . S
C532 C525 1.403 . S
C532 C533 1.399 . S
C532 H538 0.929 . S
C533 C513 1.449 . S
C533 C532 1.399 . S
C533 H539 0.930 . S
H534 C514 0.931 . S
H535 C515 0.930 . S
H536 C523 0.931 . S
H537 C524 0.929 . S
H538 C532 0.929 . S
H539 C533 0.930 . S
Mn540 O545 2.095 . S
Mn540 O555 2.162 . S
Mn540 O556 2.297 . S
Mn540 O564 2.385 . S
Mn540 O565 2.209 . S
Mn540 O566 2.094 . S
Mn541 O546 2.121 . S
Mn541 N548 2.257 . S
Mn541 N557 2.282 . S
Mn541 O565 2.215 . S
Mn541 O567 2.117 . S
C542 O564 1.234 . S
C542 O565 1.283 . S
C543 O555 1.281 . S
C543 O556 1.236 . S
C544 O566 1.240 . S
C544 O567 1.264 . S
O545 Mn540 2.095 . S
O545 C554 1.250 . S
O546 Mn541 2.121 . S
O546 C554 1.258 . S
C547 N548 1.326 . S
C547 C551 1.460 . S
C547 H553 0.929 . S
N548 Mn541 2.257 . S
N548 C547 1.326 . S
N548 C552 1.362 . S
C549 C550 1.258 . S
C549 C552 1.431 . S
C549 C569 1.449 . S
C550 C549 1.258 . S
C550 C551 1.477 . S
C550 H570 0.931 . S
C551 C547 1.460 . S
C551 C550 1.477 . S
C551 H571 0.930 . S
C552 N548 1.362 . S
C552 C549 1.431 . S
C552 C562 1.476 . S
H553 C547 0.929 . S
C554 O545 1.250 . S
C554 O546 1.258 . S
O555 Mn540 2.162 . S
O555 C543 1.281 . S
O556 Mn540 2.297 . S
O556 C543 1.236 . S
N557 Mn541 2.282 . S
N557 C558 1.328 . S
N557 C562 1.318 . S
C558 N557 1.328 . S
C558 C559 1.457 . S
C558 H563 0.929 . S
C559 C558 1.457 . S
C559 C560 1.291 . S
C559 H572 0.931 . S
C560 C559 1.291 . S
C560 C561 1.373 . S
C560 H573 0.929 . S
C561 C560 1.373 . S
C561 C562 1.396 . S
C561 C568 1.403 . S
C562 C552 1.476 . S
C562 N557 1.318 . S
C562 C561 1.396 . S
H563 C558 0.929 . S
O564 Mn540 2.385 . S
O564 C542 1.234 . S
O565 Mn540 2.209 . S
O565 Mn541 2.215 . S
O565 C542 1.283 . S
O566 Mn540 2.094 . S
O566 C544 1.240 . S
O567 Mn541 2.117 . S
O567 C544 1.264 . S
C568 C561 1.403 . S
C568 C569 1.399 . S
C568 H574 0.929 . S
C569 C549 1.449 . S
C569 C568 1.399 . S
C569 H575 0.930 . S
H570 C550 0.931 . S
H571 C551 0.930 . S
H572 C559 0.931 . S
H573 C560 0.929 . S
H574 C568 0.929 . S
H575 C569 0.930 . S
C576 C577 1.363 1_556 S
C576 C582 1.379 . S
C576 N584 1.356 . S
C577 C576 1.363 1_554 S
C577 C583 1.363 . S
C578 C579 1.363 . S
C578 C583 1.379 . S
C578 N585 1.356 . S
C579 C578 1.363 . S
C579 C582 1.363 1_554 S
N580 C582 1.356 . S
N580 H592 0.984 . S
N580 H593 0.985 . S
N581 C583 1.356 . S
N581 H586 0.984 . S
N581 H587 0.985 . S
C582 C576 1.379 . S
C582 C579 1.363 1_556 S
C582 N580 1.356 . S
C583 C577 1.363 . S
C583 C578 1.379 . S
C583 N581 1.356 . S
N584 C576 1.356 . S
N584 H590 0.984 . S
N584 H591 0.984 . S
N585 C578 1.356 . S
N585 H588 0.984 . S
N585 H589 0.985 . S
H586 N581 0.984 . S
H587 N581 0.985 . S
H588 N585 0.984 . S
H589 N585 0.985 . S
H590 N584 0.984 . S
H591 N584 0.984 . S
H592 N580 0.984 . S
H593 N580 0.985 . S
C594 C595 1.363 . S
C594 C600 1.379 . S
C594 N602 1.356 . S
C595 C594 1.363 . S
C595 C601 1.363 1_554 S
C596 C597 1.363 1_556 S
C596 C601 1.379 . S
C596 N603 1.356 . S
C597 C596 1.363 1_554 S
C597 C600 1.363 . S
N598 C600 1.356 . S
N598 H610 0.984 . S
N598 H611 0.985 . S
N599 C601 1.356 . S
N599 H604 0.984 . S
N599 H605 0.985 . S
C600 C594 1.379 . S
C600 C597 1.363 . S
C600 N598 1.356 . S
C601 C595 1.363 1_556 S
C601 C596 1.379 . S
C601 N599 1.356 . S
N602 C594 1.356 . S
N602 H608 0.984 . S
N602 H609 0.984 . S
N603 C596 1.356 . S
N603 H606 0.984 . S
N603 H607 0.985 . S
H604 N599 0.984 . S
H605 N599 0.985 . S
H606 N603 0.984 . S
H607 N603 0.985 . S
H608 N602 0.984 . S
H609 N602 0.984 . S
H610 N598 0.984 . S
H611 N598 0.985 . S
C612 C613 1.363 . S
C612 C618 1.379 . S
C612 N620 1.356 . S
C613 C612 1.363 . S
C613 C619 1.363 1_554 S
C614 C615 1.363 1_556 S
C614 C619 1.379 . S
C614 N621 1.356 . S
C615 C614 1.363 1_554 S
C615 C618 1.363 . S
N616 C618 1.356 . S
N616 H628 0.984 . S
N616 H629 0.985 . S
N617 C619 1.356 . S
N617 H622 0.984 . S
N617 H623 0.985 . S
C618 C612 1.379 . S
C618 C615 1.363 . S
C618 N616 1.356 . S
C619 C613 1.363 1_556 S
C619 C614 1.379 . S
C619 N617 1.356 . S
N620 C612 1.356 . S
N620 H626 0.984 . S
N620 H627 0.984 . S
N621 C614 1.356 . S
N621 H624 0.984 . S
N621 H625 0.985 . S
H622 N617 0.984 . S
H623 N617 0.985 . S
H624 N621 0.984 . S
H625 N621 0.985 . S
H626 N620 0.984 . S
H627 N620 0.984 . S
H628 N616 0.984 . S
H629 N616 0.985 . S
C630 C631 1.363 . S
C630 C636 1.379 . S
C630 N638 1.356 . S
C631 C630 1.363 . S
C631 C637 1.363 1_554 S
C632 C633 1.363 1_556 S
C632 C637 1.379 . S
C632 N639 1.356 . S
C633 C632 1.363 1_554 S
C633 C636 1.363 . S
N634 C636 1.356 . S
N634 H646 0.984 . S
N634 H647 0.985 . S
N635 C637 1.356 . S
N635 H640 0.984 . S
N635 H641 0.985 . S
C636 C630 1.379 . S
C636 C633 1.363 . S
C636 N634 1.356 . S
C637 C631 1.363 1_556 S
C637 C632 1.379 . S
C637 N635 1.356 . S
N638 C630 1.356 . S
N638 H644 0.984 . S
N638 H645 0.984 . S
N639 C632 1.356 . S
N639 H642 0.984 . S
N639 H643 0.985 . S
H640 N635 0.984 . S
H641 N635 0.985 . S
H642 N639 0.984 . S
H643 N639 0.985 . S
H644 N638 0.984 . S
H645 N638 0.984 . S
H646 N634 0.984 . S
H647 N634 0.985 . S
C648 C649 1.363 . S
C648 C654 1.379 1_545 S
C648 N656 1.356 . S
C649 C648 1.363 . S
C649 C655 1.363 . S
C650 C651 1.363 . S
C650 C655 1.379 1_565 S
C650 N657 1.356 . S
C651 C650 1.363 . S
C651 C654 1.363 . S
N652 C654 1.356 . S
N652 H664 0.984 . S
N652 H665 0.985 . S
N653 C655 1.356 . S
N653 H658 0.984 . S
N653 H659 0.985 . S
C654 C648 1.379 1_565 S
C654 C651 1.363 . S
C654 N652 1.356 . S
C655 C649 1.363 . S
C655 C650 1.379 1_545 S
C655 N653 1.356 . S
N656 C648 1.356 . S
N656 H662 0.984 . S
N656 H663 0.984 . S
N657 C650 1.356 . S
N657 H660 0.984 . S
N657 H661 0.985 . S
H658 N653 0.984 . S
H659 N653 0.985 . S
H660 N657 0.984 . S
H661 N657 0.985 . S
H662 N656 0.984 . S
H663 N656 0.984 . S
H664 N652 0.984 . S
H665 N652 0.985 . S
C666 C667 1.363 . S
C666 C672 1.379 1_655 S
C666 N674 1.356 . S
C667 C666 1.363 . S
C667 C673 1.363 . S
C668 C669 1.363 . S
C668 C673 1.379 1_455 S
C668 N675 1.356 . S
C669 C668 1.363 . S
C669 C672 1.363 . S
N670 C672 1.356 . S
N670 H682 0.984 . S
N670 H683 0.985 . S
N671 C673 1.356 . S
N671 H676 0.984 . S
N671 H677 0.985 . S
C672 C666 1.379 1_455 S
C672 C669 1.363 . S
C672 N670 1.356 . S
C673 C667 1.363 . S
C673 C668 1.379 1_655 S
C673 N671 1.356 . S
N674 C666 1.356 . S
N674 H680 0.984 . S
N674 H681 0.984 . S
N675 C668 1.356 . S
N675 H678 0.984 . S
N675 H679 0.985 . S
H676 N671 0.984 . S
H677 N671 0.985 . S
H678 N675 0.984 . S
H679 N675 0.985 . S
H680 N674 0.984 . S
H681 N674 0.984 . S
H682 N670 0.984 . S
H683 N670 0.985 . S
C684 C685 1.363 . S
C684 C690 1.379 1_545 S
C684 N692 1.356 . S
C685 C684 1.363 . S
C685 C691 1.363 . S
C686 C687 1.363 . S
C686 C691 1.379 1_565 S
C686 N693 1.356 . S
C687 C686 1.363 . S
C687 C690 1.363 . S
N688 C690 1.356 . S
N688 H700 0.984 . S
N688 H701 0.985 . S
N689 C691 1.356 . S
N689 H694 0.984 . S
N689 H695 0.985 . S
C690 C684 1.379 1_565 S
C690 C687 1.363 . S
C690 N688 1.356 . S
C691 C685 1.363 . S
C691 C686 1.379 1_545 S
C691 N689 1.356 . S
N692 C684 1.356 . S
N692 H698 0.984 . S
N692 H699 0.984 . S
N693 C686 1.356 . S
N693 H696 0.984 . S
N693 H697 0.985 . S
H694 N689 0.984 . S
H695 N689 0.985 . S
H696 N693 0.984 . S
H697 N693 0.985 . S
H698 N692 0.984 . S
H699 N692 0.984 . S
H700 N688 0.984 . S
H701 N688 0.985 . S
C702 C703 1.363 . S
C702 C708 1.379 1_455 S
C702 N710 1.356 . S
C703 C702 1.363 . S
C703 C709 1.363 . S
C704 C705 1.363 . S
C704 C709 1.379 1_655 S
C704 N711 1.356 . S
C705 C704 1.363 . S
C705 C708 1.363 . S
N706 C708 1.356 . S
N706 H718 0.984 . S
N706 H719 0.985 . S
N707 C709 1.356 . S
N707 H712 0.984 . S
N707 H713 0.985 . S
C708 C702 1.379 1_655 S
C708 C705 1.363 . S
C708 N706 1.356 . S
C709 C703 1.363 . S
C709 C704 1.379 1_455 S
C709 N707 1.356 . S
N710 C702 1.356 . S
N710 H716 0.984 . S
N710 H717 0.984 . S
N711 C704 1.356 . S
N711 H714 0.984 . S
N711 H715 0.985 . S
H712 N707 0.984 . S
H713 N707 0.985 . S
H714 N711 0.984 . S
H715 N711 0.985 . S
H716 N710 0.984 . S
H717 N710 0.984 . S
H718 N706 0.984 . S
H719 N706 0.985 . S
C720 C721 1.363 . S
C720 C726 1.379 . S
C720 N728 1.356 . S
C721 C720 1.363 . S
C721 C727 1.363 1_554 S
C722 C723 1.374 . S
C722 C727 1.379 . S
C722 N729 1.356 . S
C723 C722 1.374 . S
C723 C726 1.351 1_556 S
N724 C726 1.356 . S
N724 H736 0.984 . S
N724 H737 0.985 . S
N725 C727 1.356 . S
N725 H730 0.984 . S
N725 H731 0.985 . S
C726 C720 1.379 . S
C726 C723 1.351 1_554 S
C726 N724 1.356 . S
C727 C721 1.363 1_556 S
C727 C722 1.379 . S
C727 N725 1.356 . S
N728 C720 1.356 . S
N728 H734 0.984 . S
N728 H735 0.984 . S
N729 C722 1.356 . S
N729 H732 0.984 . S
N729 H733 0.985 . S
H730 N725 0.984 . S
H731 N725 0.985 . S
H732 N729 0.984 . S
H733 N729 0.985 . S
H734 N728 0.984 . S
H735 N728 0.984 . S
H736 N724 0.984 . S
H737 N724 0.985 . S
C738 C739 1.374 . S
C738 C744 1.379 . S
C738 N746 1.356 . S
C739 C738 1.374 . S
C739 C745 1.351 1_556 S
C740 C741 1.363 . S
C740 C745 1.379 . S
C740 N747 1.356 . S
C741 C740 1.363 . S
C741 C744 1.363 1_554 S
N742 C744 1.356 . S
N742 H754 0.984 . S
N742 H755 0.985 . S
N743 C745 1.356 . S
N743 H748 0.984 . S
N743 H749 0.985 . S
C744 C738 1.379 . S
C744 C741 1.363 1_556 S
C744 N742 1.356 . S
C745 C739 1.351 1_554 S
C745 C740 1.379 . S
C745 N743 1.356 . S
N746 C738 1.356 . S
N746 H752 0.984 . S
N746 H753 0.984 . S
N747 C740 1.356 . S
N747 H750 0.984 . S
N747 H751 0.985 . S
H748 N743 0.984 . S
H749 N743 0.985 . S
H750 N747 0.984 . S
H751 N747 0.985 . S
H752 N746 0.984 . S
H753 N746 0.984 . S
H754 N742 0.984 . S
H755 N742 0.985 . S
C756 C757 1.363 . S
C756 C762 1.379 . S
C756 N764 1.356 . S
C757 C756 1.363 . S
C757 C763 1.363 1_554 S
C758 C759 1.373 . S
C758 C763 1.379 . S
C758 N765 1.356 . S
C759 C758 1.373 . S
C759 C762 1.352 1_556 S
N760 C762 1.356 . S
N760 H772 0.984 . S
N760 H773 0.985 . S
N761 C763 1.356 . S
N761 H766 0.984 . S
N761 H767 0.985 . S
C762 C756 1.379 . S
C762 C759 1.352 1_554 S
C762 N760 1.356 . S
C763 C757 1.363 1_556 S
C763 C758 1.379 . S
C763 N761 1.356 . S
N764 C756 1.356 . S
N764 H770 0.984 . S
N764 H771 0.984 . S
N765 C758 1.356 . S
N765 H768 0.984 . S
N765 H769 0.985 . S
H766 N761 0.984 . S
H767 N761 0.985 . S
H768 N765 0.984 . S
H769 N765 0.985 . S
H770 N764 0.984 . S
H771 N764 0.984 . S
H772 N760 0.984 . S
H773 N760 0.985 . S
C774 C775 1.352 1_554 S
C774 C780 1.379 . S
C774 N782 1.356 . S
C775 C774 1.352 1_556 S
C775 C781 1.373 . S
C776 C777 1.363 1_556 S
C776 C781 1.379 . S
C776 N783 1.356 . S
C777 C776 1.363 1_554 S
C777 C780 1.363 . S
N778 C780 1.356 . S
N778 H790 0.984 . S
N778 H791 0.985 . S
N779 C781 1.356 . S
N779 H784 0.984 . S
N779 H785 0.985 . S
C780 C774 1.379 . S
C780 C777 1.363 . S
C780 N778 1.356 . S
C781 C775 1.373 . S
C781 C776 1.379 . S
C781 N779 1.356 . S
N782 C774 1.356 . S
N782 H788 0.984 . S
N782 H789 0.984 . S
N783 C776 1.356 . S
N783 H786 0.984 . S
N783 H787 0.985 . S
H784 N779 0.984 . S
H785 N779 0.985 . S
H786 N783 0.984 . S
H787 N783 0.985 . S
H788 N782 0.984 . S
H789 N782 0.984 . S
H790 N778 0.984 . S
H791 N778 0.985 . S
C792 C793 1.363 . S
C792 C798 1.379 . S
C792 N800 1.356 . S
C793 C792 1.363 . S
C793 C799 1.363 . S
C794 C795 1.363 . S
C794 C799 1.379 . S
C794 N801 1.356 . S
C795 C794 1.363 . S
C795 C798 1.363 . S
N796 C798 1.356 . S
N796 H808 0.984 . S
N796 H809 0.985 . S
N797 C799 1.356 . S
N797 H802 0.984 . S
N797 H803 0.985 . S
C798 C792 1.379 . S
C798 C795 1.363 . S
C798 N796 1.356 . S
C799 C793 1.363 . S
C799 C794 1.379 . S
C799 N797 1.356 . S
N800 C792 1.356 . S
N800 H806 0.984 . S
N800 H807 0.984 . S
N801 C794 1.356 . S
N801 H804 0.984 . S
N801 H805 0.985 . S
H802 N797 0.984 . S
H803 N797 0.985 . S
H804 N801 0.984 . S
H805 N801 0.985 . S
H806 N800 0.984 . S
H807 N800 0.984 . S
H808 N796 0.984 . S
H809 N796 0.985 . S
C810 C811 1.363 . S
C810 C816 1.379 . S
C810 N818 1.356 . S
C811 C810 1.363 . S
C811 C817 1.363 . S
C812 C813 1.363 . S
C812 C817 1.379 . S
C812 N819 1.356 . S
C813 C812 1.363 . S
C813 C816 1.363 . S
N814 C816 1.356 . S
N814 H826 0.984 . S
N814 H827 0.985 . S
N815 C817 1.356 . S
N815 H820 0.984 . S
N815 H821 0.985 . S
C816 C810 1.379 . S
C816 C813 1.363 . S
C816 N814 1.356 . S
C817 C811 1.363 . S
C817 C812 1.379 . S
C817 N815 1.356 . S
N818 C810 1.356 . S
N818 H824 0.984 . S
N818 H825 0.984 . S
N819 C812 1.356 . S
N819 H822 0.984 . S
N819 H823 0.985 . S
H820 N815 0.984 . S
H821 N815 0.985 . S
H822 N819 0.984 . S
H823 N819 0.985 . S
H824 N818 0.984 . S
H825 N818 0.984 . S
H826 N814 0.984 . S
H827 N814 0.985 . S
C828 C829 1.363 . S
C828 C834 1.379 . S
C828 N836 1.356 . S
C829 C828 1.363 . S
C829 C835 1.363 . S
C830 C831 1.363 . S
C830 C835 1.379 . S
C830 N837 1.356 . S
C831 C830 1.363 . S
C831 C834 1.363 . S
N832 C834 1.356 . S
N832 H844 0.984 . S
N832 H845 0.985 . S
N833 C835 1.356 . S
N833 H838 0.984 . S
N833 H839 0.985 . S
C834 C828 1.379 . S
C834 C831 1.363 . S
C834 N832 1.356 . S
C835 C829 1.363 . S
C835 C830 1.379 . S
C835 N833 1.356 . S
N836 C828 1.356 . S
N836 H842 0.984 . S
N836 H843 0.984 . S
N837 C830 1.356 . S
N837 H840 0.984 . S
N837 H841 0.985 . S
H838 N833 0.984 . S
H839 N833 0.985 . S
H840 N837 0.984 . S
H841 N837 0.985 . S
H842 N836 0.984 . S
H843 N836 0.984 . S
H844 N832 0.984 . S
H845 N832 0.985 . S
C846 C847 1.363 . S
C846 C852 1.379 . S
C846 N854 1.356 . S
C847 C846 1.363 . S
C847 C853 1.363 . S
C848 C849 1.363 . S
C848 C853 1.379 . S
C848 N855 1.356 . S
C849 C848 1.363 . S
C849 C852 1.363 . S
N850 C852 1.356 . S
N850 H862 0.984 . S
N850 H863 0.985 . S
N851 C853 1.356 . S
N851 H856 0.984 . S
N851 H857 0.985 . S
C852 C846 1.379 . S
C852 C849 1.363 . S
C852 N850 1.356 . S
C853 C847 1.363 . S
C853 C848 1.379 . S
C853 N851 1.356 . S
N854 C846 1.356 . S
N854 H860 0.984 . S
N854 H861 0.984 . S
N855 C848 1.356 . S
N855 H858 0.984 . S
N855 H859 0.985 . S
H856 N851 0.984 . S
H857 N851 0.985 . S
H858 N855 0.984 . S
H859 N855 0.985 . S
H860 N854 0.984 . S
H861 N854 0.984 . S
H862 N850 0.984 . S
H863 N850 0.985 . S
C864 C865 1.363 . S
C864 C870 1.379 . S
C864 N872 1.356 . S
C865 C864 1.363 . S
C865 C871 1.363 . S
C866 C867 1.363 . S
C866 C871 1.379 . S
C866 N873 1.356 . S
C867 C866 1.363 . S
C867 C870 1.363 . S
N868 C870 1.356 . S
N868 H880 0.984 . S
N868 H881 0.985 . S
N869 C871 1.356 . S
N869 H874 0.984 . S
N869 H875 0.985 . S
C870 C864 1.379 . S
C870 C867 1.363 . S
C870 N868 1.356 . S
C871 C865 1.363 . S
C871 C866 1.379 . S
C871 N869 1.356 . S
N872 C864 1.356 . S
N872 H878 0.984 . S
N872 H879 0.984 . S
N873 C866 1.356 . S
N873 H876 0.984 . S
N873 H877 0.985 . S
H874 N869 0.984 . S
H875 N869 0.985 . S
H876 N873 0.984 . S
H877 N873 0.985 . S
H878 N872 0.984 . S
H879 N872 0.984 . S
H880 N868 0.984 . S
H881 N868 0.985 . S
C882 C883 1.363 . S
C882 C888 1.379 . S
C882 N890 1.356 . S
C883 C882 1.363 . S
C883 C889 1.363 . S
C884 C885 1.363 . S
C884 C889 1.379 . S
C884 N891 1.356 . S
C885 C884 1.363 . S
C885 C888 1.363 . S
N886 C888 1.356 . S
N886 H898 0.984 . S
N886 H899 0.985 . S
N887 C889 1.356 . S
N887 H892 0.984 . S
N887 H893 0.985 . S
C888 C882 1.379 . S
C888 C885 1.363 . S
C888 N886 1.356 . S
C889 C883 1.363 . S
C889 C884 1.379 . S
C889 N887 1.356 . S
N890 C882 1.356 . S
N890 H896 0.984 . S
N890 H897 0.984 . S
N891 C884 1.356 . S
N891 H894 0.984 . S
N891 H895 0.985 . S
H892 N887 0.984 . S
H893 N887 0.985 . S
H894 N891 0.984 . S
H895 N891 0.985 . S
H896 N890 0.984 . S
H897 N890 0.984 . S
H898 N886 0.984 . S
H899 N886 0.985 . S
C900 C901 1.363 . S
C900 C906 1.379 . S
C900 N908 1.356 . S
C901 C900 1.363 . S
C901 C907 1.363 . S
C902 C903 1.363 . S
C902 C907 1.379 . S
C902 N909 1.356 . S
C903 C902 1.363 . S
C903 C906 1.363 . S
N904 C906 1.356 . S
N904 H916 0.984 . S
N904 H917 0.985 . S
N905 C907 1.356 . S
N905 H910 0.984 . S
N905 H911 0.985 . S
C906 C900 1.379 . S
C906 C903 1.363 . S
C906 N904 1.356 . S
C907 C901 1.363 . S
C907 C902 1.379 . S
C907 N905 1.356 . S
N908 C900 1.356 . S
N908 H914 0.984 . S
N908 H915 0.984 . S
N909 C902 1.356 . S
N909 H912 0.984 . S
N909 H913 0.985 . S
H910 N905 0.984 . S
H911 N905 0.985 . S
H912 N909 0.984 . S
H913 N909 0.985 . S
H914 N908 0.984 . S
H915 N908 0.984 . S
H916 N904 0.984 . S
H917 N904 0.985 . S
C918 C919 1.363 . S
C918 C924 1.379 . S
C918 N926 1.356 . S
C919 C918 1.363 . S
C919 C925 1.363 . S
C920 C921 1.363 . S
C920 C925 1.379 . S
C920 N927 1.356 . S
C921 C920 1.363 . S
C921 C924 1.363 . S
N922 C924 1.356 . S
N922 H934 0.984 . S
N922 H935 0.985 . S
N923 C925 1.356 . S
N923 H928 0.984 . S
N923 H929 0.985 . S
C924 C918 1.379 . S
C924 C921 1.363 . S
C924 N922 1.356 . S
C925 C919 1.363 . S
C925 C920 1.379 . S
C925 N923 1.356 . S
N926 C918 1.356 . S
N926 H932 0.984 . S
N926 H933 0.984 . S
N927 C920 1.356 . S
N927 H930 0.984 . S
N927 H931 0.985 . S
H928 N923 0.984 . S
H929 N923 0.985 . S
H930 N927 0.984 . S
H931 N927 0.985 . S
H932 N926 0.984 . S
H933 N926 0.984 . S
H934 N922 0.984 . S
H935 N922 0.985 . S
C936 C937 1.363 . S
C936 C942 1.379 . S
C936 N944 1.356 . S
C937 C936 1.363 . S
C937 C943 1.363 . S
C938 C939 1.363 . S
C938 C943 1.379 . S
C938 N945 1.356 . S
C939 C938 1.363 . S
C939 C942 1.363 . S
N940 C942 1.356 . S
N940 H952 0.984 . S
N940 H953 0.985 . S
N941 C943 1.356 . S
N941 H946 0.984 . S
N941 H947 0.985 . S
C942 C936 1.379 . S
C942 C939 1.363 . S
C942 N940 1.356 . S
C943 C937 1.363 . S
C943 C938 1.379 . S
C943 N941 1.356 . S
N944 C936 1.356 . S
N944 H950 0.984 . S
N944 H951 0.984 . S
N945 C938 1.356 . S
N945 H948 0.984 . S
N945 H949 0.985 . S
H946 N941 0.984 . S
H947 N941 0.985 . S
H948 N945 0.984 . S
H949 N945 0.985 . S
H950 N944 0.984 . S
H951 N944 0.984 . S
H952 N940 0.984 . S
H953 N940 0.985 . S
C954 C955 1.363 . S
C954 C960 1.379 . S
C954 N962 1.356 . S
C955 C954 1.363 . S
C955 C961 1.363 . S
C956 C957 1.363 . S
C956 C961 1.379 . S
C956 N963 1.356 . S
C957 C956 1.363 . S
C957 C960 1.363 . S
N958 C960 1.356 . S
N958 H970 0.984 . S
N958 H971 0.985 . S
N959 C961 1.356 . S
N959 H964 0.984 . S
N959 H965 0.985 . S
C960 C954 1.379 . S
C960 C957 1.363 . S
C960 N958 1.356 . S
C961 C955 1.363 . S
C961 C956 1.379 . S
C961 N959 1.356 . S
N962 C954 1.356 . S
N962 H968 0.984 . S
N962 H969 0.984 . S
N963 C956 1.356 . S
N963 H966 0.984 . S
N963 H967 0.985 . S
H964 N959 0.984 . S
H965 N959 0.985 . S
H966 N963 0.984 . S
H967 N963 0.985 . S
H968 N962 0.984 . S
H969 N962 0.984 . S
H970 N958 0.984 . S
H971 N958 0.985 . S
C972 C973 1.363 . S
C972 C978 1.379 . S
C972 N980 1.356 . S
C973 C972 1.363 . S
C973 C979 1.363 . S
C974 C975 1.363 . S
C974 C979 1.379 . S
C974 N981 1.356 . S
C975 C974 1.363 . S
C975 C978 1.363 . S
N976 C978 1.356 . S
N976 H988 0.984 . S
N976 H989 0.985 . S
N977 C979 1.356 . S
N977 H982 0.984 . S
N977 H983 0.985 . S
C978 C972 1.379 . S
C978 C975 1.363 . S
C978 N976 1.356 . S
C979 C973 1.363 . S
C979 C974 1.379 . S
C979 N977 1.356 . S
N980 C972 1.356 . S
N980 H986 0.984 . S
N980 H987 0.984 . S
N981 C974 1.356 . S
N981 H984 0.984 . S
N981 H985 0.985 . S
H982 N977 0.984 . S
H983 N977 0.985 . S
H984 N981 0.984 . S
H985 N981 0.985 . S
H986 N980 0.984 . S
H987 N980 0.984 . S
H988 N976 0.984 . S
H989 N976 0.985 . S
C990 C991 1.363 . S
C990 C996 1.379 . S
C990 N998 1.356 . S
C991 C990 1.363 . S
C991 C997 1.363 . S
C992 C993 1.363 . S
C992 C997 1.379 . S
C992 N999 1.356 . S
C993 C992 1.363 . S
C993 C996 1.363 . S
N994 C996 1.356 . S
N994 H1006 0.984 . S
N994 H1007 0.985 . S
N995 C997 1.356 . S
N995 H1000 0.984 . S
N995 H1001 0.985 . S
C996 C990 1.379 . S
C996 C993 1.363 . S
C996 N994 1.356 . S
C997 C991 1.363 . S
C997 C992 1.379 . S
C997 N995 1.356 . S
N998 C990 1.356 . S
N998 H1004 0.984 . S
N998 H1005 0.984 . S
N999 C992 1.356 . S
N999 H1002 0.984 . S
N999 H1003 0.985 . S
H1000 N995 0.984 . S
H1001 N995 0.985 . S
H1002 N999 0.984 . S
H1003 N999 0.985 . S
H1004 N998 0.984 . S
H1005 N998 0.984 . S
H1006 N994 0.984 . S
H1007 N994 0.985 . S
C1008 C1009 1.363 . S
C1008 C1014 1.379 . S
C1008 N1016 1.356 . S
C1009 C1008 1.363 . S
C1009 C1015 1.363 . S
C1010 C1011 1.363 . S
C1010 C1015 1.379 . S
C1010 N1017 1.356 . S
C1011 C1010 1.363 . S
C1011 C1014 1.363 . S
N1012 C1014 1.356 . S
N1012 H1024 0.984 . S
N1012 H1025 0.985 . S
N1013 C1015 1.356 . S
N1013 H1018 0.984 . S
N1013 H1019 0.985 . S
C1014 C1008 1.379 . S
C1014 C1011 1.363 . S
C1014 N1012 1.356 . S
C1015 C1009 1.363 . S
C1015 C1010 1.379 . S
C1015 N1013 1.356 . S
N1016 C1008 1.356 . S
N1016 H1022 0.984 . S
N1016 H1023 0.984 . S
N1017 C1010 1.356 . S
N1017 H1020 0.984 . S
N1017 H1021 0.985 . S
H1018 N1013 0.984 . S
H1019 N1013 0.985 . S
H1020 N1017 0.984 . S
H1021 N1017 0.985 . S
H1022 N1016 0.984 . S
H1023 N1016 0.984 . S
H1024 N1012 0.984 . S
H1025 N1012 0.985 . S
C1026 C1027 1.363 . S
C1026 C1032 1.379 . S
C1026 N1034 1.356 . S
C1027 C1026 1.363 . S
C1027 C1033 1.363 . S
C1028 C1029 1.363 . S
C1028 C1033 1.379 . S
C1028 N1035 1.356 . S
C1029 C1028 1.363 . S
C1029 C1032 1.363 . S
N1030 C1032 1.356 . S
N1030 H1042 0.984 . S
N1030 H1043 0.985 . S
N1031 C1033 1.356 . S
N1031 H1036 0.984 . S
N1031 H1037 0.985 . S
C1032 C1026 1.379 . S
C1032 C1029 1.363 . S
C1032 N1030 1.356 . S
C1033 C1027 1.363 . S
C1033 C1028 1.379 . S
C1033 N1031 1.356 . S
N1034 C1026 1.356 . S
N1034 H1040 0.984 . S
N1034 H1041 0.984 . S
N1035 C1028 1.356 . S
N1035 H1038 0.984 . S
N1035 H1039 0.985 . S
H1036 N1031 0.984 . S
H1037 N1031 0.985 . S
H1038 N1035 0.984 . S
H1039 N1035 0.985 . S
H1040 N1034 0.984 . S
H1041 N1034 0.984 . S
H1042 N1030 0.984 . S
H1043 N1030 0.985 . S
C1044 C1045 1.363 . S
C1044 C1050 1.379 . S
C1044 N1052 1.356 . S
C1045 C1044 1.363 . S
C1045 C1051 1.363 . S
C1046 C1047 1.363 . S
C1046 C1051 1.379 . S
C1046 N1053 1.356 . S
C1047 C1046 1.363 . S
C1047 C1050 1.363 . S
N1048 C1050 1.356 . S
N1048 H1060 0.984 . S
N1048 H1061 0.985 . S
N1049 C1051 1.356 . S
N1049 H1054 0.984 . S
N1049 H1055 0.985 . S
C1050 C1044 1.379 . S
C1050 C1047 1.363 . S
C1050 N1048 1.356 . S
C1051 C1045 1.363 . S
C1051 C1046 1.379 . S
C1051 N1049 1.356 . S
N1052 C1044 1.356 . S
N1052 H1058 0.984 . S
N1052 H1059 0.984 . S
N1053 C1046 1.356 . S
N1053 H1056 0.984 . S
N1053 H1057 0.985 . S
H1054 N1049 0.984 . S
H1055 N1049 0.985 . S
H1056 N1053 0.984 . S
H1057 N1053 0.985 . S
H1058 N1052 0.984 . S
H1059 N1052 0.984 . S
H1060 N1048 0.984 . S
H1061 N1048 0.985 . S
C1062 C1063 1.363 . S
C1062 C1068 1.379 . S
C1062 N1070 1.356 . S
C1063 C1062 1.363 . S
C1063 C1069 1.363 . S
C1064 C1065 1.363 . S
C1064 C1069 1.379 . S
C1064 N1071 1.356 . S
C1065 C1064 1.363 . S
C1065 C1068 1.363 . S
N1066 C1068 1.356 . S
N1066 H1078 0.984 . S
N1066 H1079 0.985 . S
N1067 C1069 1.356 . S
N1067 H1072 0.984 . S
N1067 H1073 0.985 . S
C1068 C1062 1.379 . S
C1068 C1065 1.363 . S
C1068 N1066 1.356 . S
C1069 C1063 1.363 . S
C1069 C1064 1.379 . S
C1069 N1067 1.356 . S
N1070 C1062 1.356 . S
N1070 H1076 0.984 . S
N1070 H1077 0.984 . S
N1071 C1064 1.356 . S
N1071 H1074 0.984 . S
N1071 H1075 0.985 . S
H1072 N1067 0.984 . S
H1073 N1067 0.985 . S
H1074 N1071 0.984 . S
H1075 N1071 0.985 . S
H1076 N1070 0.984 . S
H1077 N1070 0.984 . S
H1078 N1066 0.984 . S
H1079 N1066 0.985 . S
C1080 C1081 1.363 . S
C1080 C1086 1.379 . S
C1080 N1088 1.356 . S
C1081 C1080 1.363 . S
C1081 C1087 1.363 . S
C1082 C1083 1.363 . S
C1082 C1087 1.379 . S
C1082 N1089 1.356 . S
C1083 C1082 1.363 . S
C1083 C1086 1.363 . S
N1084 C1086 1.356 . S
N1084 H1096 0.984 . S
N1084 H1097 0.985 . S
N1085 C1087 1.356 . S
N1085 H1090 0.984 . S
N1085 H1091 0.985 . S
C1086 C1080 1.379 . S
C1086 C1083 1.363 . S
C1086 N1084 1.356 . S
C1087 C1081 1.363 . S
C1087 C1082 1.379 . S
C1087 N1085 1.356 . S
N1088 C1080 1.356 . S
N1088 H1094 0.984 . S
N1088 H1095 0.984 . S
N1089 C1082 1.356 . S
N1089 H1092 0.984 . S
N1089 H1093 0.985 . S
H1090 N1085 0.984 . S
H1091 N1085 0.985 . S
H1092 N1089 0.984 . S
H1093 N1089 0.985 . S
H1094 N1088 0.984 . S
H1095 N1088 0.984 . S
H1096 N1084 0.984 . S
H1097 N1084 0.985 . S
C1098 C1099 1.363 . S
C1098 C1104 1.379 . S
C1098 N1106 1.356 . S
C1099 C1098 1.363 . S
C1099 C1105 1.363 . S
C1100 C1101 1.363 . S
C1100 C1105 1.379 . S
C1100 N1107 1.356 . S
C1101 C1100 1.363 . S
C1101 C1104 1.363 . S
N1102 C1104 1.356 . S
N1102 H1114 0.984 . S
N1102 H1115 0.985 . S
N1103 C1105 1.356 . S
N1103 H1108 0.984 . S
N1103 H1109 0.985 . S
C1104 C1098 1.379 . S
C1104 C1101 1.363 . S
C1104 N1102 1.356 . S
C1105 C1099 1.363 . S
C1105 C1100 1.379 . S
C1105 N1103 1.356 . S
N1106 C1098 1.356 . S
N1106 H1112 0.984 . S
N1106 H1113 0.984 . S
N1107 C1100 1.356 . S
N1107 H1110 0.984 . S
N1107 H1111 0.985 . S
H1108 N1103 0.984 . S
H1109 N1103 0.985 . S
H1110 N1107 0.984 . S
H1111 N1107 0.985 . S
H1112 N1106 0.984 . S
H1113 N1106 0.984 . S
H1114 N1102 0.984 . S
H1115 N1102 0.985 . S
C1116 C1117 1.363 . S
C1116 C1122 1.379 . S
C1116 N1124 1.356 . S
C1117 C1116 1.363 . S
C1117 C1123 1.363 . S
C1118 C1119 1.363 . S
C1118 C1123 1.379 . S
C1118 N1125 1.356 . S
C1119 C1118 1.363 . S
C1119 C1122 1.363 . S
N1120 C1122 1.356 . S
N1120 H1132 0.984 . S
N1120 H1133 0.985 . S
N1121 C1123 1.356 . S
N1121 H1126 0.984 . S
N1121 H1127 0.985 . S
C1122 C1116 1.379 . S
C1122 C1119 1.363 . S
C1122 N1120 1.356 . S
C1123 C1117 1.363 . S
C1123 C1118 1.379 . S
C1123 N1121 1.356 . S
N1124 C1116 1.356 . S
N1124 H1130 0.984 . S
N1124 H1131 0.984 . S
N1125 C1118 1.356 . S
N1125 H1128 0.984 . S
N1125 H1129 0.985 . S
H1126 N1121 0.984 . S
H1127 N1121 0.985 . S
H1128 N1125 0.984 . S
H1129 N1125 0.985 . S
H1130 N1124 0.984 . S
H1131 N1124 0.984 . S
H1132 N1120 0.984 . S
H1133 N1120 0.985 . S
C1134 C1135 1.363 . S
C1134 C1140 1.379 . S
C1134 N1142 1.356 . S
C1135 C1134 1.363 . S
C1135 C1141 1.363 . S
C1136 C1137 1.363 . S
C1136 C1141 1.379 . S
C1136 N1143 1.356 . S
C1137 C1136 1.363 . S
C1137 C1140 1.363 . S
N1138 C1140 1.356 . S
N1138 H1150 0.984 . S
N1138 H1151 0.985 . S
N1139 C1141 1.356 . S
N1139 H1144 0.984 . S
N1139 H1145 0.985 . S
C1140 C1134 1.379 . S
C1140 C1137 1.363 . S
C1140 N1138 1.356 . S
C1141 C1135 1.363 . S
C1141 C1136 1.379 . S
C1141 N1139 1.356 . S
N1142 C1134 1.356 . S
N1142 H1148 0.984 . S
N1142 H1149 0.984 . S
N1143 C1136 1.356 . S
N1143 H1146 0.984 . S
N1143 H1147 0.985 . S
H1144 N1139 0.984 . S
H1145 N1139 0.985 . S
H1146 N1143 0.984 . S
H1147 N1143 0.985 . S
H1148 N1142 0.984 . S
H1149 N1142 0.984 . S
H1150 N1138 0.984 . S
H1151 N1138 0.985 . S
C577 C148 1.384 1_554 S
C579 C4 1.384 . S
C595 C184 1.384 1_554 S
C597 C40 1.384 . S
C613 C220 1.384 1_554 S
C615 C76 1.384 . S
C631 C256 1.384 1_554 S
C633 C112 1.384 . S
C649 C436 1.384 . S
C651 C292 1.384 . S
C667 C472 1.384 . S
C669 C328 1.384 . S
C685 C364 1.384 . S
C687 C508 1.384 . S
C703 C544 1.384 . S
C705 C400 1.384 . S
C721 C3 1.470 . S
C723 C183 1.470 1_556 S
C739 C219 1.470 1_556 S
C741 C39 1.470 . S
C757 C75 1.470 . S
C759 C255 1.470 1_556 S
C775 C147 1.470 1_556 S
C777 C111 1.470 . S
C793 C471 1.470 . S
C795 C291 1.470 . S
C811 C507 1.470 . S
C813 C327 1.470 . S
C829 C363 1.470 . S
C831 C543 1.470 . S
C847 C399 1.470 . S
C849 C435 1.470 . S
C865 C542 1.465 . S
C867 C2 1.465 . S
C883 C434 1.465 . S
C885 C38 1.465 . S
C901 C470 1.465 . S
C903 C74 1.465 . S
C919 C506 1.465 . S
C921 C110 1.465 . S
C937 C326 1.465 . S
C939 C146 1.465 . S
C955 C362 1.465 . S
C957 C182 1.465 . S
C973 C218 1.465 . S
C975 C398 1.465 . S
C991 C254 1.465 . S
C993 C290 1.465 . S
C1009 C482 1.370 . S
C1011 C86 1.370 . S
C1027 C518 1.370 . S
C1029 C122 1.370 . S
C1045 C554 1.370 . S
C1047 C14 1.370 . S
C1063 C50 1.370 . S
C1065 C446 1.370 . S
C1081 C410 1.370 . S
C1083 C230 1.370 . S
C1099 C266 1.370 . S
C1101 C302 1.370 . S
C1117 C338 1.370 . S
C1119 C158 1.370 . S
C1135 C374 1.370 . S
C1137 C194 1.370 . S
