# Generated by pormake.
# Topology cag, (4)-cn, num edge types: 1
# Building blocks:
#     Node 0, Type 0, BuildingBlock: ICAMEG_clean_sbu_1, # of connection points: 4
#     Node 1, Type 0, BuildingBlock: ICAMEG_clean_sbu_1, # of connection points: 4
#     Node 2, Type 0, BuildingBlock: ICAMEG_clean_sbu_1, # of connection points: 4
#     Node 3, Type 0, BuildingBlock: ICAMEG_clean_sbu_1, # of connection points: 4
#     Node 4, Type 0, BuildingBlock: ICAMEG_clean_sbu_1, # of connection points: 4
#     Node 5, Type 0, BuildingBlock: ICAMEG_clean_sbu_1, # of connection points: 4
#     Node 6, Type 0, BuildingBlock: ICAMEG_clean_sbu_1, # of connection points: 4
#     Node 7, Type 0, BuildingBlock: ICAMEG_clean_sbu_1, # of connection points: 4
#     Node 8, Type 0, BuildingBlock: ICAMEG_clean_sbu_1, # of connection points: 4
#     Node 9, Type 0, BuildingBlock: ICAMEG_clean_sbu_1, # of connection points: 4
#     Node 10, Type 0, BuildingBlock: ICAMEG_clean_sbu_1, # of connection points: 4
#     Node 11, Type 0, BuildingBlock: ICAMEG_clean_sbu_1, # of connection points: 4
#     Node 12, Type 0, BuildingBlock: ICAMEG_clean_sbu_1, # of connection points: 4
#     Node 13, Type 0, BuildingBlock: ICAMEG_clean_sbu_1, # of connection points: 4
#     Node 14, Type 0, BuildingBlock: ICAMEG_clean_sbu_1, # of connection points: 4
#     Node 15, Type 0, BuildingBlock: ICAMEG_clean_sbu_1, # of connection points: 4
#     Edge 16, Type (0, 0), BuildingBlock: XUDNAN_clean_linker_2, # of connection points: 2
#     Edge 17, Type (0, 0), BuildingBlock: XUDNAN_clean_linker_2, # of connection points: 2
#     Edge 18, Type (0, 0), BuildingBlock: XUDNAN_clean_linker_2, # of connection points: 2
#     Edge 19, Type (0, 0), BuildingBlock: XUDNAN_clean_linker_2, # of connection points: 2
#     Edge 20, Type (0, 0), BuildingBlock: XUDNAN_clean_linker_2, # of connection points: 2
#     Edge 21, Type (0, 0), BuildingBlock: XUDNAN_clean_linker_2, # of connection points: 2
#     Edge 22, Type (0, 0), BuildingBlock: XUDNAN_clean_linker_2, # of connection points: 2
#     Edge 23, Type (0, 0), BuildingBlock: XUDNAN_clean_linker_2, # of connection points: 2
#     Edge 24, Type (0, 0), BuildingBlock: XUDNAN_clean_linker_2, # of connection points: 2
#     Edge 25, Type (0, 0), BuildingBlock: XUDNAN_clean_linker_2, # of connection points: 2
#     Edge 26, Type (0, 0), BuildingBlock: XUDNAN_clean_linker_2, # of connection points: 2
#     Edge 27, Type (0, 0), BuildingBlock: XUDNAN_clean_linker_2, # of connection points: 2
#     Edge 28, Type (0, 0), BuildingBlock: XUDNAN_clean_linker_2, # of connection points: 2
#     Edge 29, Type (0, 0), BuildingBlock: XUDNAN_clean_linker_2, # of connection points: 2
#     Edge 30, Type (0, 0), BuildingBlock: XUDNAN_clean_linker_2, # of connection points: 2
#     Edge 31, Type (0, 0), BuildingBlock: XUDNAN_clean_linker_2, # of connection points: 2
#     Edge 32, Type (0, 0), BuildingBlock: XUDNAN_clean_linker_2, # of connection points: 2
#     Edge 33, Type (0, 0), BuildingBlock: XUDNAN_clean_linker_2, # of connection points: 2
#     Edge 34, Type (0, 0), BuildingBlock: XUDNAN_clean_linker_2, # of connection points: 2
#     Edge 35, Type (0, 0), BuildingBlock: XUDNAN_clean_linker_2, # of connection points: 2
#     Edge 36, Type (0, 0), BuildingBlock: XUDNAN_clean_linker_2, # of connection points: 2
#     Edge 37, Type (0, 0), BuildingBlock: XUDNAN_clean_linker_2, # of connection points: 2
#     Edge 38, Type (0, 0), BuildingBlock: XUDNAN_clean_linker_2, # of connection points: 2
#     Edge 39, Type (0, 0), BuildingBlock: XUDNAN_clean_linker_2, # of connection points: 2
#     Edge 40, Type (0, 0), BuildingBlock: XUDNAN_clean_linker_2, # of connection points: 2
#     Edge 41, Type (0, 0), BuildingBlock: XUDNAN_clean_linker_2, # of connection points: 2
#     Edge 42, Type (0, 0), BuildingBlock: XUDNAN_clean_linker_2, # of connection points: 2
#     Edge 43, Type (0, 0), BuildingBlock: XUDNAN_clean_linker_2, # of connection points: 2
#     Edge 44, Type (0, 0), BuildingBlock: XUDNAN_clean_linker_2, # of connection points: 2
#     Edge 45, Type (0, 0), BuildingBlock: XUDNAN_clean_linker_2, # of connection points: 2
#     Edge 46, Type (0, 0), BuildingBlock: XUDNAN_clean_linker_2, # of connection points: 2
#     Edge 47, Type (0, 0), BuildingBlock: XUDNAN_clean_linker_2, # of connection points: 2
# Relax obj value: 0.157
# Max RMSD: 0.212
# Mean RMSD: 0.208
data_MOF--net-cag--node1-ICAMEG_clean_sbu_1--edge1-XUDNAN_clean_linker_2
_symmetry_space_group_name_H-M    P1
_symmetry_Int_Tables_number       1
_symmetry_cell_setting            triclinic
loop_
_symmetry_equiv_pos_as_xyz
'x, y, z'
_cell_length_a     44.513429
_cell_length_b     51.801297
_cell_length_c     44.275036
_cell_angle_alpha  89.933619
_cell_angle_beta   89.973559
_cell_angle_gamma 89.926158
loop_
_atom_site_label
_atom_site_type_symbol
_atom_site_fract_x
_atom_site_fract_y
_atom_site_fract_z
_atom_type_partial_charge
Co0 Co 0.35695 0.16008 0.06386 0.0
Co1 Co 0.36454 0.1198 0.12426 0.0
O2 O 0.34483 0.15017 0.10516 0.0
C3 C 0.33475 0.2126 0.08904 0.0
O4 O 0.32197 0.2032 0.11339 0.0
C5 C 0.304 0.125 0.15688 0.0
O6 O 0.29717 0.1462 0.14216 0.0
O7 O 0.34927 0.09737 0.09055 0.0
O8 O 0.36505 0.12297 0.05315 0.0
H9 H 0.42602 0.03832 0.12232 0.0
H10 H 0.2952 0.1695 0.08907 0.0
O11 O 0.34937 0.19809 0.07098 0.0
H12 H 0.27849 0.13091 0.98911 0.0
H13 H 0.3537 0.21037 0.9662 0.0
H14 H 0.4078 0.14409 0.02494 0.0
H15 H 0.32972 0.13804 1.00779 0.0
H16 H 0.33569 0.19746 0.01662 0.0
O17 O 0.32751 0.11204 0.14993 0.0
H18 H 0.40273 0.07733 0.10069 0.0
H19 H 0.3661 0.09679 0.18637 0.0
H20 H 0.4263 0.15618 0.97439 0.0
H21 H 0.2437 0.16327 0.07112 0.0
H22 H 0.3992 0.18956 0.94465 0.0
H23 H 0.23488 0.1438 0.02069 0.0
O24 O 0.39867 0.1647 0.07928 0.0
H25 H 0.36313 0.19377 0.19891 0.0
H26 H 0.42335 0.12288 0.15607 0.0
H27 H 0.44524 0.15046 0.19538 0.0
H28 H 0.41502 0.1861 0.2174 0.0
H29 H 0.34238 0.16621 0.15927 0.0
H30 H 0.38879 0.05782 0.20881 0.0
H31 H 0.41912 0.02833 0.17677 0.0
O32 O 0.40302 0.12604 0.10109 0.0
C33 C 0.35619 0.10099 0.0628 0.0
C34 C 0.41291 0.05105 0.13654 0.0
C35 C 0.39196 0.06197 0.18506 0.0
N36 N 0.38312 0.08944 0.14221 0.0
C37 C 0.39969 0.07323 0.12443 0.0
C38 C 0.37904 0.08396 0.17217 0.0
C39 C 0.409 0.04544 0.16708 0.0
C40 C 0.29192 0.16175 0.0669 0.0
N41 N 0.3159 0.1552 0.04922 0.0
C42 C 0.2625 0.15792 0.05692 0.0
C43 C 0.25755 0.14693 0.02869 0.0
C44 C 0.282 0.13971 1.01098 0.0
C45 C 0.31108 0.14386 0.02173 0.0
C46 C 0.36568 0.19577 0.97892 0.0
C47 C 0.39575 0.1585 0.01208 0.0
C48 C 0.35568 0.18846 1.00757 0.0
N49 N 0.37056 0.16987 0.0237 0.0
C50 C 0.40639 0.16533 0.98349 0.0
C51 C 0.3912 0.18408 0.96683 0.0
C52 C 0.41454 0.14702 0.09141 0.0
C53 C 0.37633 0.17797 0.18995 0.0
C54 C 0.40969 0.13801 0.16577 0.0
C55 C 0.42239 0.15372 0.18795 0.0
C56 C 0.40546 0.17373 0.20024 0.0
N57 N 0.38074 0.14179 0.15622 0.0
C58 C 0.36442 0.16191 0.16765 0.0
Co59 Co 0.1625 0.87685 0.55777 0.0
Co60 Co 0.14675 0.90158 0.62811 0.0
O61 O 0.16964 0.87791 0.60184 0.0
C62 C 0.16469 0.82004 0.57324 0.0
O63 O 0.14874 0.82402 0.59775 0.0
C64 C 0.20871 0.89781 0.65844 0.0
O65 O 0.21837 0.88013 0.63958 0.0
O66 O 0.15941 0.93139 0.60242 0.0
O67 O 0.1535 0.91485 0.55617 0.0
H68 H 0.07472 0.97456 0.6471 0.0
H69 H 0.21932 0.85597 0.58234 0.0
O70 O 0.17195 0.83888 0.55629 0.0
H71 H 0.24977 0.92423 0.51094 0.0
H72 H 0.18342 0.84929 0.45067 0.0
H73 H 0.116 0.89893 0.51732 0.0
H74 H 0.19626 0.91403 0.51864 0.0
H75 H 0.19301 0.85148 0.50543 0.0
O76 O 0.18266 0.90788 0.65542 0.0
H77 H 0.10348 0.94385 0.61588 0.0
H78 H 0.14235 0.91096 0.69468 0.0
H79 H 0.10584 0.89755 0.46261 0.0
H80 H 0.27318 0.86535 0.57511 0.0
H81 H 0.13966 0.87256 0.42888 0.0
H82 H 0.28869 0.89975 0.53924 0.0
O83 O 0.1192 0.8692 0.56516 0.0
H84 H 0.15967 0.81663 0.68295 0.0
H85 H 0.0887 0.88595 0.65607 0.0
H86 H 0.07112 0.84928 0.68656 0.0
H87 H 0.10677 0.81433 0.70052 0.0
H88 H 0.17606 0.85323 0.65199 0.0
H89 H 0.11431 0.94156 0.72669 0.0
H90 H 0.08005 0.97355 0.70293 0.0
O91 O 0.10947 0.8966 0.6031 0.0
C92 C 0.15712 0.934 0.57381 0.0
C93 C 0.08951 0.96067 0.65773 0.0
C94 C 0.11178 0.94218 0.70239 0.0
N95 N 0.12443 0.9255 0.65341 0.0
C96 C 0.1058 0.94318 0.64017 0.0
C97 C 0.1277 0.92497 0.68412 0.0
C98 C 0.09254 0.96011 0.68904 0.0
C99 C 0.22592 0.8709 0.56662 0.0
N100 N 0.20465 0.88448 0.55103 0.0
C101 C 0.25644 0.87616 0.56265 0.0
C102 C 0.26512 0.89547 0.54254 0.0
C103 C 0.2433 0.90923 0.52668 0.0
C104 C 0.213 0.90345 0.53125 0.0
C105 C 0.16853 0.86027 0.46512 0.0
C106 C 0.13092 0.88813 0.50278 0.0
C107 C 0.17378 0.86151 0.49618 0.0
N108 N 0.15515 0.87542 0.51458 0.0
C109 C 0.12501 0.88737 0.47182 0.0
C110 C 0.14399 0.87333 0.45291 0.0
C111 C 0.10084 0.88121 0.58235 0.0
C112 C 0.14402 0.83193 0.67742 0.0
C113 C 0.10449 0.87097 0.66205 0.0
C114 C 0.09434 0.85018 0.67936 0.0
C115 C 0.11432 0.83059 0.68717 0.0
N116 N 0.13383 0.87246 0.65295 0.0
C117 C 0.15335 0.85302 0.66012 0.0
Co118 Co 0.35871 0.88374 0.95539 0.0
Co119 Co 0.37649 0.90897 0.88538 0.0
O120 O 0.35326 0.88484 0.91107 0.0
C121 C 0.34533 0.82751 0.93806 0.0
O122 O 0.34027 0.83309 0.90961 0.0
C123 C 0.3155 0.90374 0.85361 0.0
O124 O 0.30588 0.88645 0.87299 0.0
O125 O 0.3623 0.93868 0.91047 0.0
O126 O 0.36506 0.92212 0.95711 0.0
H127 H 0.44665 0.98345 0.86799 0.0
H128 H 0.30206 0.86333 0.92732 0.0
O129 O 0.35276 0.845 0.9569 0.0
H130 H 0.26894 0.92686 1.00291 0.0
H131 H 0.33725 0.8544 0.06184 0.0
H132 H 0.40213 0.90826 0.99718 0.0
H133 H 0.32272 0.91809 0.99539 0.0
H134 H 0.32906 0.85621 1.00679 0.0
O135 O 0.3412 0.91437 0.85685 0.0
H136 H 0.41801 0.9522 0.89858 0.0
H137 H 0.38275 0.9181 0.81891 0.0
H138 H 0.41084 0.90726 0.05216 0.0
H139 H 0.24817 0.87114 0.93441 0.0
H140 H 0.37827 0.88017 0.08489 0.0
H141 H 0.23112 0.90317 0.97244 0.0
O142 O 0.40244 0.87781 0.94954 0.0
H143 H 0.36765 0.8243 0.82933 0.0
H144 H 0.436 0.89415 0.86011 0.0
H145 H 0.45574 0.8578 0.83048 0.0
H146 H 0.42145 0.82255 0.81461 0.0
H147 H 0.34908 0.86064 0.85938 0.0
H148 H 0.41075 0.94919 0.78751 0.0
H149 H 0.44312 0.98207 0.81203 0.0
O150 O 0.41329 0.90483 0.91155 0.0
C151 C 0.3626 0.94127 0.93918 0.0
C152 C 0.43269 0.96917 0.85704 0.0
C153 C 0.4125 0.94997 0.81187 0.0
N154 N 0.39887 0.93322 0.86058 0.0
C155 C 0.41648 0.95137 0.87424 0.0
C156 C 0.3966 0.93248 0.82979 0.0
C157 C 0.43067 0.9684 0.82564 0.0
C158 C 0.29512 0.87694 0.9442 0.0
N159 N 0.31584 0.88981 0.9612 0.0
C160 C 0.2644 0.88145 0.948 0.0
C161 C 0.25485 0.89946 0.96928 0.0
C162 C 0.27604 0.91275 0.98635 0.0
C163 C 0.30655 0.90771 0.98192 0.0
C164 C 0.35156 0.86631 0.04782 0.0
C165 C 0.38773 0.89655 0.01128 0.0
C166 C 0.3471 0.86734 0.01661 0.0
N167 N 0.36496 0.88249 0.99878 0.0
C168 C 0.39283 0.896 0.04239 0.0
C169 C 0.37457 0.88078 0.06074 0.0
C170 C 0.42129 0.88986 0.93301 0.0
C171 C 0.38278 0.83965 0.83585 0.0
C172 C 0.42082 0.87897 0.85342 0.0
C173 C 0.43219 0.8584 0.83655 0.0
C174 C 0.41296 0.83864 0.82766 0.0
N175 N 0.39106 0.88007 0.86113 0.0
C176 C 0.37224 0.86054 0.85276 0.0
Co177 Co 0.16095 0.15403 0.45355 0.0
Co178 Co 0.14621 0.11649 0.39099 0.0
O179 O 0.16755 0.14572 0.41055 0.0
C180 C 0.17423 0.2076 0.42626 0.0
O181 O 0.18133 0.1991 0.39928 0.0
C182 C 0.20636 0.12067 0.35758 0.0
O183 O 0.21464 0.14054 0.37389 0.0
O184 O 0.16156 0.09179 0.4229 0.0
O185 O 0.15546 0.11686 0.46344 0.0
H186 H 0.08094 0.0374 0.3913 0.0
H187 H 0.21762 0.17037 0.42213 0.0
O188 O 0.16582 0.19227 0.44707 0.0
H189 H 0.25092 0.12275 0.51228 0.0
H190 H 0.17843 0.20071 0.5519 0.0
H191 H 0.11705 0.13566 0.49919 0.0
H192 H 0.1971 0.12838 0.50174 0.0
H193 H 0.18851 0.18999 0.49864 0.0
O194 O 0.18213 0.10847 0.3638 0.0
H195 H 0.10683 0.07471 0.41387 0.0
H196 H 0.14186 0.09568 0.32799 0.0
H197 H 0.10642 0.14566 0.55254 0.0
H198 H 0.27154 0.16575 0.43205 0.0
H199 H 0.13722 0.1784 0.57927 0.0
H200 H 0.28869 0.14171 0.47745 0.0
O201 O 0.11728 0.15763 0.44553 0.0
H202 H 0.14968 0.19232 0.31887 0.0
H203 H 0.08696 0.12268 0.36065 0.0
H204 H 0.06537 0.15246 0.32328 0.0
H205 H 0.09686 0.18751 0.30179 0.0
H206 H 0.17005 0.16261 0.35668 0.0
H207 H 0.11661 0.05841 0.3046 0.0
H208 H 0.08575 0.02904 0.33628 0.0
O209 O 0.10877 0.12344 0.41565 0.0
C210 C 0.15941 0.09478 0.45152 0.0
C211 C 0.09425 0.0501 0.37724 0.0
C212 C 0.11433 0.06186 0.3286 0.0
N213 N 0.12574 0.08748 0.3723 0.0
C214 C 0.10891 0.07132 0.38988 0.0
C215 C 0.12871 0.08288 0.34202 0.0
C216 C 0.097 0.0454 0.34638 0.0
C217 C 0.22458 0.1603 0.4421 0.0
N218 N 0.20385 0.15011 0.46149 0.0
C219 C 0.25532 0.15754 0.44754 0.0
C220 C 0.26493 0.14402 0.47296 0.0
C221 C 0.24377 0.13337 0.49248 0.0
C222 C 0.21323 0.13656 0.4863 0.0
C223 C 0.16487 0.18639 0.54051 0.0
C224 C 0.13066 0.14985 0.51067 0.0
C225 C 0.17039 0.18028 0.5103 0.0
N226 N 0.15347 0.16209 0.49578 0.0
C227 C 0.12449 0.15547 0.54088 0.0
C228 C 0.14176 0.17386 0.55586 0.0
C229 C 0.09951 0.14176 0.43266 0.0
C230 C 0.13581 0.17693 0.32777 0.0
C231 C 0.10094 0.13779 0.35154 0.0
C232 C 0.08852 0.15463 0.33029 0.0
C233 C 0.10617 0.17428 0.31826 0.0
N234 N 0.13024 0.14015 0.36051 0.0
C235 C 0.14742 0.15973 0.34912 0.0
Co236 Co 0.69964 0.90003 0.91662 0.0
Co237 Co 0.69829 0.85937 0.97845 0.0
O238 O 0.71502 0.86934 0.9387 0.0
C239 C 0.71876 0.8634 0.86491 0.0
O240 O 0.73006 0.84552 0.88261 0.0
C241 C 0.76449 0.84146 0.98495 0.0
O242 O 0.77229 0.8461 0.95688 0.0
O243 O 0.70706 0.89454 0.99457 0.0
O244 O 0.69369 0.91936 0.95533 0.0
H245 H 0.63421 0.87384 0.07043 0.0
H246 H 0.76128 0.87746 0.90729 0.0
O247 O 0.70534 0.88308 0.87592 0.0
H248 H 0.77755 0.97033 0.92349 0.0
H249 H 0.69646 0.96555 0.83224 0.0
H250 H 0.64868 0.93597 0.92661 0.0
H251 H 0.72652 0.95236 0.92415 0.0
H252 H 0.71688 0.92822 0.86002 0.0
O253 O 0.7382 0.84689 0.99448 0.0
H254 H 0.65531 0.88442 0.02047 0.0
H255 H 0.70586 0.81477 0.02096 0.0
H256 H 0.62783 0.97362 0.89974 0.0
H257 H 0.81252 0.89464 0.90577 0.0
H258 H 0.65172 0.98865 0.85217 0.0
H259 H 0.82111 0.94146 0.91395 0.0
O260 O 0.65727 0.88647 0.91876 0.0
H261 H 0.71861 0.77875 0.91777 0.0
H262 H 0.64595 0.82363 0.98318 0.0
H263 H 0.63333 0.78085 0.96289 0.0
H264 H 0.6699 0.75793 0.93008 0.0
H265 H 0.72998 0.82166 0.93807 0.0
H266 H 0.68555 0.80362 0.07107 0.0
H267 H 0.64932 0.83319 0.0961 0.0
O268 O 0.65744 0.87082 0.9658 0.0
C269 C 0.70045 0.91645 0.98309 0.0
C270 C 0.64991 0.86076 0.05972 0.0
C271 C 0.67876 0.82138 0.06011 0.0
N272 N 0.68169 0.8502 0.01766 0.0
C273 C 0.6619 0.86662 0.03138 0.0
C274 C 0.69028 0.82786 0.03175 0.0
C275 C 0.65843 0.83797 0.07413 0.0
C276 C 0.76442 0.89785 0.9102 0.0
N277 N 0.74044 0.91384 0.91498 0.0
C278 C 0.79371 0.90749 0.90962 0.0
C279 C 0.79853 0.93373 0.9143 0.0
C280 C 0.77413 0.94992 0.91964 0.0
C281 C 0.74518 0.93957 0.92004 0.0
C282 C 0.68585 0.9592 0.85295 0.0
C283 C 0.65935 0.94246 0.90603 0.0
C284 C 0.69722 0.93797 0.86872 0.0
N285 N 0.68406 0.92991 0.89502 0.0
C286 C 0.64737 0.96376 0.89086 0.0
C287 C 0.66077 0.97216 0.86416 0.0
C288 C 0.64353 0.87825 0.94223 0.0
C289 C 0.7026 0.7884 0.93231 0.0
C290 C 0.66204 0.81392 0.96897 0.0
C291 C 0.65475 0.78961 0.95754 0.0
C292 C 0.67525 0.77676 0.93915 0.0
N293 N 0.68914 0.82513 0.96261 0.0
C294 C 0.7091 0.81273 0.94418 0.0
Co295 Co 0.82577 0.11909 0.41082 0.0
Co296 Co 0.8189 0.15609 0.47369 0.0
O297 O 0.8062 0.14745 0.4327 0.0
C298 C 0.82068 0.16075 0.36337 0.0
O299 O 0.83415 0.17749 0.381 0.0
C300 C 0.76143 0.16289 0.5069 0.0
O301 O 0.76974 0.14367 0.5244 0.0
O302 O 0.80864 0.1199 0.4861 0.0
O303 O 0.83321 0.0992 0.44918 0.0
H304 H 0.87164 0.13824 0.57179 0.0
H305 H 0.7644 0.13646 0.39422 0.0
O306 O 0.81748 0.13739 0.37174 0.0
H307 H 0.755 0.04331 0.41526 0.0
H308 H 0.83889 0.05763 0.32365 0.0
H309 H 0.88053 0.08747 0.42069 0.0
H310 H 0.80407 0.06499 0.41944 0.0
H311 H 0.8135 0.09196 0.35258 0.0
O312 O 0.77687 0.16829 0.4834 0.0
H313 H 0.85551 0.12906 0.51961 0.0
H314 H 0.8089 0.2006 0.51595 0.0
H315 H 0.90653 0.05303 0.39256 0.0
H316 H 0.71497 0.11545 0.3893 0.0
H317 H 0.88571 0.03787 0.34366 0.0
H318 H 0.71002 0.06856 0.39995 0.0
O319 O 0.86554 0.13648 0.41556 0.0
H320 H 0.79825 0.23877 0.4181 0.0
H321 H 0.87072 0.19238 0.48243 0.0
H322 H 0.88288 0.23615 0.46445 0.0
H323 H 0.84638 0.25976 0.43217 0.0
H324 H 0.78733 0.19473 0.43612 0.0
H325 H 0.82436 0.21047 0.5681 0.0
H326 H 0.85601 0.17918 0.59639 0.0
O327 O 0.86162 0.14549 0.46489 0.0
C328 C 0.8194 0.09932 0.47442 0.0
C329 C 0.85783 0.15202 0.55971 0.0
C330 C 0.8313 0.19255 0.55765 0.0
N331 N 0.83122 0.16421 0.51474 0.0
C332 C 0.84863 0.14692 0.53016 0.0
C333 C 0.82257 0.18683 0.52812 0.0
C334 C 0.84906 0.17499 0.5735 0.0
C335 C 0.76248 0.11602 0.39872 0.0
N336 N 0.78714 0.10198 0.407 0.0
C337 C 0.73441 0.10424 0.39596 0.0
C338 C 0.73164 0.07793 0.40193 0.0
C339 C 0.75687 0.06375 0.4105 0.0
C340 C 0.78459 0.07616 0.41291 0.0
C341 C 0.84817 0.06406 0.34494 0.0
C342 C 0.87123 0.08092 0.3995 0.0
C343 C 0.83394 0.08355 0.3614 0.0
N344 N 0.84543 0.09166 0.3884 0.0
C345 C 0.8861 0.06144 0.38364 0.0
C346 C 0.87443 0.05296 0.35619 0.0
C347 C 0.87734 0.14237 0.44095 0.0
C348 C 0.81434 0.2287 0.43215 0.0
C349 C 0.85499 0.2023 0.46803 0.0
C350 C 0.86187 0.2272 0.45809 0.0
C351 C 0.84136 0.24044 0.44002 0.0
N352 N 0.82843 0.19089 0.46026 0.0
C353 C 0.80826 0.20376 0.44249 0.0
Co354 Co 0.69262 0.12113 0.13413 0.0
Co355 Co 0.68258 0.14399 0.06284 0.0
O356 O 0.70389 0.14558 0.10198 0.0
C357 C 0.7156 0.16842 0.16891 0.0
O358 O 0.71943 0.18246 0.14451 0.0
C359 C 0.74523 0.16464 0.04844 0.0
O360 O 0.75358 0.16268 0.07675 0.0
O361 O 0.69598 0.1073 0.05806 0.0
O362 O 0.68113 0.09416 0.10367 0.0
H363 H 0.6154 0.10187 0.9862 0.0
H364 H 0.75417 0.14379 0.13193 0.0
O365 O 0.70417 0.14591 0.16717 0.0
H366 H 0.7699 0.04975 0.13551 0.0
H367 H 0.70253 0.07447 0.23373 0.0
H368 H 0.6399 0.08712 0.14306 0.0
H369 H 0.71884 0.0679 0.13655 0.0
H370 H 0.7188 0.10396 0.19318 0.0
O371 O 0.71941 0.15659 0.04006 0.0
H372 H 0.64128 0.10587 0.03517 0.0
H373 H 0.68019 0.17687 1.00727 0.0
H374 H 0.62298 0.05717 0.18288 0.0
H375 H 0.80561 0.12658 0.1314 0.0
H376 H 0.65436 0.05073 0.22865 0.0
H377 H 0.81385 0.07917 0.13309 0.0
O378 O 0.65126 0.13605 0.13313 0.0
H379 H 0.69316 0.23777 0.09198 0.0
H380 H 0.62421 0.17107 0.05369 0.0
H381 H 0.60564 0.21535 0.06112 0.0
H382 H 0.64024 0.24917 0.08023 0.0
H383 H 0.71063 0.19328 0.08472 0.0
H384 H 0.65492 0.17349 0.95791 0.0
H385 H 0.62214 0.13584 0.94715 0.0
O386 O 0.64432 0.1322 0.08327 0.0
C387 C 0.68933 0.08931 0.07664 0.0
C388 C 0.62957 0.1184 0.99064 0.0
C389 C 0.65179 0.15857 0.97475 0.0
N390 N 0.66214 0.14163 0.02418 0.0
C391 C 0.64424 0.12081 0.01837 0.0
C392 C 0.66613 0.16032 1.00272 0.0
C393 C 0.63339 0.13745 0.96873 0.0
C394 C 0.75736 0.12322 0.13293 0.0
N395 N 0.73325 0.10698 0.13431 0.0
C396 C 0.78666 0.11354 0.13251 0.0
C397 C 0.79127 0.08695 0.13342 0.0
C398 C 0.76664 0.07045 0.13474 0.0
C399 C 0.73769 0.08085 0.13513 0.0
C400 C 0.68862 0.07717 0.21392 0.0
C401 C 0.65372 0.0844 0.16287 0.0
C402 C 0.69763 0.09397 0.19096 0.0
N403 N 0.68027 0.09737 0.16578 0.0
C404 C 0.64401 0.06742 0.18536 0.0
C405 C 0.66162 0.06383 0.21105 0.0
C406 C 0.63428 0.13608 0.10991 0.0
C407 C 0.67793 0.22327 0.08335 0.0
C408 C 0.63956 0.18562 0.06185 0.0
C409 C 0.62884 0.2107 0.06607 0.0
C410 C 0.64824 0.22965 0.07681 0.0
N411 N 0.66885 0.17948 0.06801 0.0
C412 C 0.68783 0.19796 0.07892 0.0
Co413 Co 0.82935 0.90886 0.60891 0.0
Co414 Co 0.81943 0.86404 0.55434 0.0
O415 O 0.80712 0.87914 0.59283 0.0
C416 C 0.81642 0.87695 0.66548 0.0
O417 O 0.82828 0.85592 0.65401 0.0
C418 C 0.76304 0.85455 0.52076 0.0
O419 O 0.77448 0.86864 0.49892 0.0
O420 O 0.81181 0.89855 0.53511 0.0
O421 O 0.83994 0.9213 0.56716 0.0
H422 H 0.87395 0.86508 0.45498 0.0
H423 H 0.76512 0.89912 0.62306 0.0
O424 O 0.81744 0.89825 0.65103 0.0
H425 H 0.76888 0.98895 0.58631 0.0
H426 H 0.8483 0.98187 0.68163 0.0
H427 H 0.88746 0.93386 0.59393 0.0
H428 H 0.81511 0.96302 0.59008 0.0
H429 H 0.8196 0.94566 0.66004 0.0
O430 O 0.77658 0.85328 0.54619 0.0
H431 H 0.85805 0.88231 0.5044 0.0
H432 H 0.80736 0.81439 0.52135 0.0
H433 H 0.91672 0.97004 0.61467 0.0
H434 H 0.71832 0.92447 0.61985 0.0
H435 H 0.89717 0.99436 0.65884 0.0
H436 H 0.71999 0.96972 0.60132 0.0
O437 O 0.86708 0.88767 0.60937 0.0
H438 H 0.79227 0.79199 0.62514 0.0
H439 H 0.86881 0.82442 0.55425 0.0
H440 H 0.87768 0.78349 0.58118 0.0
H441 H 0.83915 0.76693 0.61686 0.0
H442 H 0.78457 0.83307 0.59803 0.0
H443 H 0.82249 0.79655 0.47206 0.0
H444 H 0.85606 0.82195 0.43849 0.0
O445 O 0.8627 0.87327 0.56188 0.0
C446 C 0.82448 0.91962 0.543 0.0
C447 C 0.8593 0.85385 0.4694 0.0
C448 C 0.83047 0.81537 0.479 0.0
N449 N 0.83171 0.84947 0.51573 0.0
C450 C 0.85022 0.86351 0.4974 0.0
C451 C 0.82198 0.82558 0.50689 0.0
C452 C 0.84927 0.82963 0.46016 0.0
C453 C 0.76609 0.91885 0.61517 0.0
N454 N 0.79293 0.92959 0.60707 0.0
C455 C 0.73949 0.9331 0.61334 0.0
C456 C 0.74044 0.95849 0.60295 0.0
C457 C 0.76785 0.9693 0.59459 0.0
C458 C 0.79399 0.9545 0.59681 0.0
C459 C 0.85706 0.97142 0.66239 0.0
C460 C 0.8787 0.94435 0.61309 0.0
C461 C 0.84097 0.9508 0.65014 0.0
N462 N 0.85177 0.93763 0.62568 0.0
C463 C 0.89543 0.96483 0.62477 0.0
C464 C 0.88446 0.97844 0.64957 0.0
C465 C 0.87856 0.87807 0.58531 0.0
C466 C 0.80921 0.79898 0.60962 0.0
C467 C 0.85212 0.81754 0.56994 0.0
C468 C 0.85717 0.79424 0.58502 0.0
C469 C 0.83553 0.78495 0.605 0.0
N470 N 0.82622 0.83119 0.57453 0.0
C471 C 0.80494 0.82219 0.59413 0.0
Co472 Co 0.87385 0.64143 0.06042 0.0
Co473 Co 0.86833 0.60428 0.12436 0.0
O474 O 0.85569 0.63473 0.10039 0.0
C475 C 0.86186 0.69552 0.08539 0.0
O476 O 0.85913 0.68701 0.11317 0.0
C477 C 0.80285 0.61344 0.14136 0.0
O478 O 0.79972 0.63018 0.11933 0.0
O479 O 0.85717 0.58081 0.08975 0.0
O480 O 0.87923 0.60359 0.05307 0.0
H481 H 0.92131 0.51942 0.13859 0.0
H482 H 0.81414 0.66363 0.07531 0.0
O483 O 0.8688 0.68003 0.06418 0.0
H484 H 0.7978 0.61247 0.98304 0.0
H485 H 0.88435 0.68472 0.95886 0.0
H486 H 0.92766 0.62082 0.02911 0.0
H487 H 0.8481 0.61549 1.00576 0.0
H488 H 0.86002 0.6758 1.00775 0.0
O489 O 0.82701 0.60026 0.14349 0.0
H490 H 0.90581 0.55844 0.11071 0.0
H491 H 0.85717 0.58499 0.18726 0.0
H492 H 0.95256 0.62898 0.98031 0.0
H493 H 0.76354 0.66161 0.05307 0.0
H494 H 0.93092 0.66115 0.94478 0.0
H495 H 0.75502 0.63578 1.00663 0.0
O496 O 0.91437 0.64295 0.07984 0.0
H497 H 0.85524 0.67994 0.19485 0.0
H498 H 0.92049 0.60704 0.16665 0.0
H499 H 0.93584 0.63583 0.20795 0.0
H500 H 0.90299 0.67255 0.22253 0.0
H501 H 0.84115 0.65107 0.15333 0.0
H502 H 0.87187 0.54613 0.21578 0.0
H503 H 0.9043 0.51305 0.19152 0.0
O504 O 0.91063 0.60728 0.10836 0.0
C505 C 0.86765 0.5827 0.06289 0.0
C506 C 0.90722 0.53372 0.14944 0.0
C507 C 0.87943 0.54868 0.19273 0.0
N508 N 0.88065 0.57405 0.14729 0.0
C509 C 0.89841 0.55589 0.13378 0.0
C510 C 0.87106 0.57061 0.17638 0.0
C511 C 0.89764 0.53014 0.17912 0.0
C512 C 0.81075 0.65247 0.05505 0.0
N513 N 0.83419 0.63954 0.04204 0.0
C514 C 0.78197 0.65134 0.04258 0.0
C515 C 0.7772 0.63683 0.01655 0.0
C516 C 0.80117 0.62371 1.00335 0.0
C517 C 0.82963 0.62531 0.01647 0.0
C518 C 0.89402 0.67068 0.97415 0.0
C519 C 0.91806 0.63483 0.01379 0.0
C520 C 0.88043 0.66564 1.00197 0.0
N521 N 0.89243 0.64786 0.02139 0.0
C522 C 0.93228 0.63937 0.98617 0.0
C523 C 0.92013 0.65743 0.96626 0.0
C524 C 0.92623 0.62514 0.09598 0.0
C525 C 0.86969 0.66393 0.18884 0.0
C526 C 0.90618 0.62304 0.17254 0.0
C527 C 0.91494 0.63925 0.19612 0.0
C528 C 0.8965 0.65982 0.20431 0.0
N529 N 0.87975 0.62704 0.15751 0.0
C530 C 0.8617 0.64731 0.16536 0.0
Co531 Co 0.66144 0.37712 0.56087 0.0
Co532 Co 0.6466 0.41036 0.62491 0.0
O533 O 0.66932 0.38287 0.6042 0.0
C534 C 0.6625 0.32108 0.58008 0.0
O535 O 0.64108 0.32527 0.59989 0.0
C536 C 0.70507 0.40541 0.66154 0.0
O537 O 0.71509 0.38609 0.64521 0.0
O538 O 0.6645 0.43572 0.59589 0.0
O539 O 0.65063 0.41465 0.5542 0.0
H540 H 0.58106 0.48941 0.62663 0.0
H541 H 0.71993 0.36195 0.58697 0.0
O542 O 0.6732 0.33972 0.5647 0.0
H543 H 0.7447 0.42142 0.50357 0.0
H544 H 0.67985 0.33878 0.45792 0.0
H545 H 0.61259 0.39317 0.51947 0.0
H546 H 0.69204 0.41014 0.51453 0.0
H547 H 0.69141 0.34741 0.51138 0.0
O548 O 0.68059 0.41689 0.65451 0.0
H549 H 0.60874 0.45356 0.60284 0.0
H550 H 0.63806 0.42745 0.68895 0.0
H551 H 0.6004 0.38536 0.46593 0.0
H552 H 0.77299 0.37253 0.57661 0.0
H553 H 0.63413 0.35795 0.43478 0.0
H554 H 0.78564 0.40252 0.53468 0.0
O555 O 0.61901 0.36883 0.57158 0.0
H556 H 0.64609 0.33028 0.69007 0.0
H557 H 0.58527 0.40223 0.65041 0.0
H558 H 0.56167 0.36993 0.68345 0.0
H559 H 0.59213 0.33366 0.70375 0.0
H560 H 0.66866 0.36268 0.65665 0.0
H561 H 0.61105 0.46326 0.7136 0.0
H562 H 0.58212 0.49446 0.68241 0.0
O563 O 0.61078 0.40505 0.59752 0.0
C564 C 0.66006 0.43497 0.56741 0.0
C565 C 0.59353 0.47591 0.64048 0.0
C566 C 0.61041 0.46126 0.68928 0.0
N567 N 0.62491 0.43832 0.64445 0.0
C568 C 0.60921 0.45552 0.62713 0.0
C569 C 0.62579 0.44109 0.67516 0.0
C570 C 0.59416 0.47875 0.67176 0.0
C571 C 0.7253 0.37495 0.56863 0.0
N572 N 0.70292 0.38543 0.55144 0.0
C573 C 0.75536 0.38088 0.56289 0.0
C574 C 0.76244 0.39772 0.53936 0.0
C575 C 0.73949 0.40832 0.52189 0.0
C576 C 0.70969 0.40191 0.52827 0.0
C577 C 0.66497 0.35076 0.47124 0.0
C578 C 0.62746 0.38133 0.50603 0.0
C579 C 0.67133 0.35561 0.50159 0.0
N580 N 0.65272 0.37082 0.51856 0.0
C581 C 0.62041 0.37693 0.47574 0.0
C582 C 0.63933 0.36153 0.45828 0.0
C583 C 0.60131 0.38441 0.58504 0.0
C584 C 0.63268 0.34623 0.68178 0.0
C585 C 0.59894 0.3868 0.65945 0.0
C586 C 0.58532 0.36844 0.67805 0.0
C587 C 0.6024 0.34808 0.68937 0.0
N588 N 0.62884 0.38515 0.65241 0.0
C589 C 0.64551 0.36492 0.66304 0.0
Co590 Co 0.85343 0.36449 0.96024 0.0
Co591 Co 0.86044 0.38771 0.88686 0.0
O592 O 0.84081 0.36566 0.91739 0.0
C593 C 0.84487 0.30813 0.94347 0.0
O594 O 0.85168 0.31286 0.91518 0.0
C595 C 0.81004 0.4163 0.85795 0.0
O596 O 0.82261 0.43762 0.86779 0.0
O597 O 0.85546 0.41867 0.91368 0.0
O598 O 0.86074 0.40261 0.96049 0.0
H599 H 0.9321 0.45679 0.85299 0.0
H600 H 0.79467 0.3434 0.94082 0.0
O601 O 0.84555 0.32622 0.96292 0.0
H602 H 0.77051 0.40813 0.01872 0.0
H603 H 0.84692 0.33605 0.069 0.0
H604 H 0.90302 0.38837 0.99494 0.0
H605 H 0.82309 0.39928 1.00469 0.0
H606 H 0.83075 0.33789 0.01581 0.0
O607 O 0.82039 0.39444 0.86647 0.0
H608 H 0.90697 0.42834 0.88983 0.0
H609 H 0.85617 0.39383 0.81947 0.0
H610 H 0.9197 0.38736 0.04803 0.0
H611 H 0.74175 0.35129 0.95447 0.0
H612 H 0.89159 0.36104 0.08547 0.0
H613 H 0.72936 0.38393 0.99362 0.0
O614 O 0.89626 0.35792 0.94814 0.0
H615 H 0.82516 0.30739 0.83422 0.0
H616 H 0.91123 0.36538 0.85118 0.0
H617 H 0.91757 0.32707 0.81878 0.0
H618 H 0.87426 0.29783 0.80999 0.0
H619 H 0.82003 0.34562 0.86697 0.0
H620 H 0.88063 0.42197 0.78193 0.0
H621 H 0.91893 0.45373 0.79861 0.0
O622 O 0.90083 0.38064 0.90498 0.0
C623 C 0.85857 0.42154 0.94221 0.0
C624 C 0.91542 0.44305 0.84545 0.0
C625 C 0.88653 0.42352 0.80557 0.0
N626 N 0.87998 0.40952 0.85691 0.0
C627 C 0.9011 0.42689 0.86621 0.0
C628 C 0.8727 0.40767 0.82697 0.0
C629 C 0.90802 0.44133 0.81494 0.0
C630 C 0.7895 0.35754 0.95797 0.0
N631 N 0.81201 0.37093 0.97187 0.0
C632 C 0.75947 0.36197 0.96556 0.0
C633 C 0.75253 0.3803 0.98751 0.0
C634 C 0.7756 0.3939 1.00157 0.0
C635 C 0.80535 0.38894 0.9934 0.0
C636 C 0.85935 0.34761 0.0529 0.0
C637 C 0.89057 0.37698 0.01112 0.0
C638 C 0.85038 0.34864 0.0227 0.0
N639 N 0.86588 0.3633 1.00226 0.0
C640 C 0.90017 0.37643 0.04114 0.0
C641 C 0.8844 0.36164 0.06213 0.0
C642 C 0.91195 0.36762 0.92676 0.0
C643 C 0.84421 0.31996 0.8379 0.0
C644 C 0.89244 0.35251 0.84787 0.0
C645 C 0.89608 0.33096 0.8293 0.0
C646 C 0.87177 0.31459 0.82434 0.0
N647 N 0.86538 0.35761 0.86121 0.0
C648 C 0.84142 0.34168 0.85636 0.0
Co649 Co 0.66258 0.63865 0.45301 0.0
Co650 Co 0.64687 0.61851 0.38069 0.0
O651 O 0.6681 0.64156 0.40906 0.0
C652 C 0.67073 0.69694 0.44259 0.0
O653 O 0.67318 0.69462 0.41318 0.0
C654 C 0.69579 0.60252 0.33741 0.0
O655 O 0.69053 0.57826 0.34418 0.0
O656 O 0.66421 0.58749 0.40193 0.0
O657 O 0.65889 0.6003 0.45008 0.0
H658 H 0.58497 0.54108 0.35293 0.0
H659 H 0.71678 0.66428 0.42689 0.0
O660 O 0.66614 0.67717 0.45917 0.0
H661 H 0.75589 0.59697 0.49508 0.0
H662 H 0.68191 0.65976 0.56244 0.0
H663 H 0.62127 0.60815 0.49161 0.0
H664 H 0.70138 0.60313 0.48891 0.0
H665 H 0.69031 0.66304 0.50754 0.0
O666 O 0.68251 0.62048 0.35215 0.0
H667 H 0.61147 0.57056 0.38753 0.0
H668 H 0.63794 0.61759 0.31352 0.0
H669 H 0.61239 0.60408 0.54636 0.0
H670 H 0.77139 0.65904 0.4327 0.0
H671 H 0.64281 0.63003 0.58221 0.0
H672 H 0.79137 0.62516 0.467 0.0
O673 O 0.61853 0.64253 0.44764 0.0
H674 H 0.65173 0.70708 0.33448 0.0
H675 H 0.5856 0.63387 0.35927 0.0
H676 H 0.56406 0.67265 0.33537 0.0
H677 H 0.59726 0.70962 0.32265 0.0
H678 H 0.67217 0.66805 0.35892 0.0
H679 H 0.6119 0.58854 0.27813 0.0
H680 H 0.58511 0.54998 0.29779 0.0
O681 O 0.61002 0.61714 0.4075 0.0
C682 C 0.66358 0.58293 0.43034 0.0
C683 C 0.5966 0.5578 0.34408 0.0
C684 C 0.61171 0.58443 0.3021 0.0
N685 N 0.62635 0.59573 0.35259 0.0
C686 C 0.61165 0.57456 0.36356 0.0
C687 C 0.62648 0.60078 0.32226 0.0
C688 C 0.59668 0.56281 0.31315 0.0
C689 C 0.72513 0.64981 0.44224 0.0
N690 N 0.70573 0.63449 0.45805 0.0
C691 C 0.75617 0.64679 0.44528 0.0
C692 C 0.76737 0.62775 0.46448 0.0
C693 C 0.74749 0.61196 0.48025 0.0
C694 C 0.7166 0.61556 0.47666 0.0
C695 C 0.66852 0.64835 0.54705 0.0
C696 C 0.63473 0.61941 0.50704 0.0
C697 C 0.67309 0.65019 0.51591 0.0
N698 N 0.65636 0.63573 0.49633 0.0
C699 C 0.62954 0.61707 0.53804 0.0
C700 C 0.64659 0.63165 0.55813 0.0
C701 C 0.60082 0.62993 0.43045 0.0
C702 C 0.63701 0.69113 0.33996 0.0
C703 C 0.60008 0.64999 0.35431 0.0
C704 C 0.58781 0.67185 0.34052 0.0
C705 C 0.60645 0.69255 0.33335 0.0
N706 N 0.63006 0.64875 0.36083 0.0
C707 C 0.64847 0.66896 0.35377 0.0
Co708 Co 0.19122 0.39828 0.90105 0.0
Co709 Co 0.17894 0.37471 0.97157 0.0
O710 O 0.20191 0.37368 0.93325 0.0
C711 C 0.21556 0.35148 0.86604 0.0
O712 O 0.21927 0.33737 0.89041 0.0
C713 C 0.24282 0.36283 0.99062 0.0
O714 O 0.25329 0.37829 0.96962 0.0
O715 O 0.19205 0.41148 0.97773 0.0
O716 O 0.1787 0.42478 0.93168 0.0
H717 H 0.10848 0.41503 0.04669 0.0
H718 H 0.25297 0.376 0.90466 0.0
O719 O 0.20383 0.3739 0.86783 0.0
H720 H 0.26744 0.47022 0.90274 0.0
H721 H 0.20312 0.44552 0.80207 0.0
H722 H 0.1386 0.43239 0.89132 0.0
H723 H 0.21662 0.4517 0.90059 0.0
H724 H 0.21856 0.41573 0.84264 0.0
O725 O 0.2146 0.36092 0.99471 0.0
H726 H 0.13684 0.4124 0.99897 0.0
H727 H 0.17379 0.34023 0.02562 0.0
H728 H 0.12249 0.46262 0.85143 0.0
H729 H 0.30417 0.39364 0.90618 0.0
H730 H 0.15483 0.46932 0.80637 0.0
H731 H 0.31176 0.44112 0.90534 0.0
O732 O 0.14994 0.38324 0.90074 0.0
H733 H 0.19444 0.28165 0.94356 0.0
H734 H 0.12024 0.34677 0.97583 0.0
H735 H 0.10375 0.30211 0.96643 0.0
H736 H 0.141 0.26914 0.95028 0.0
H737 H 0.2099 0.32662 0.95284 0.0
H738 H 0.14611 0.34225 0.07377 0.0
H739 H 0.11302 0.37979 0.08451 0.0
O740 O 0.14142 0.38695 0.95024 0.0
C741 C 0.18615 0.42958 0.95894 0.0
C742 C 0.1228 0.39856 0.04226 0.0
C743 C 0.14395 0.35773 0.05748 0.0
N744 N 0.15694 0.37617 1.00943 0.0
C745 C 0.1389 0.39694 0.01525 0.0
C746 C 0.1597 0.35676 0.03021 0.0
C747 C 0.12537 0.37879 0.06348 0.0
C748 C 0.25592 0.39661 0.9037 0.0
N749 N 0.23163 0.41269 0.90208 0.0
C750 C 0.28507 0.40653 0.90483 0.0
C751 C 0.28931 0.43316 0.90444 0.0
C752 C 0.26447 0.44949 0.90301 0.0
C753 C 0.23568 0.43886 0.9019 0.0
C754 C 0.18882 0.44275 0.82158 0.0
C755 C 0.15285 0.43524 0.87184 0.0
C756 C 0.19736 0.4258 0.84458 0.0
N757 N 0.17949 0.42229 0.86939 0.0
C758 C 0.14359 0.45237 0.8493 0.0
C759 C 0.16173 0.45611 0.82401 0.0
C760 C 0.13212 0.38303 0.92336 0.0
C761 C 0.17801 0.29582 0.95063 0.0
C762 C 0.13658 0.33261 0.96863 0.0
C763 C 0.12711 0.30731 0.96343 0.0
C764 C 0.14802 0.28883 0.95438 0.0
N765 N 0.16605 0.33934 0.96489 0.0
C766 C 0.18664 0.32132 0.95597 0.0
Co767 Co 0.32452 0.61659 0.40887 0.0
Co768 Co 0.32262 0.64524 0.47904 0.0
O769 O 0.30885 0.64343 0.43655 0.0
C770 C 0.31065 0.66253 0.36807 0.0
O771 O 0.29958 0.67614 0.3904 0.0
C772 C 0.25898 0.66795 0.4807 0.0
O773 O 0.25535 0.66589 0.45141 0.0
O774 O 0.30836 0.60913 0.48555 0.0
O775 O 0.32549 0.59065 0.44288 0.0
H776 H 0.37476 0.61042 0.57121 0.0
H777 H 0.26421 0.64243 0.40066 0.0
O778 O 0.32309 0.64072 0.37288 0.0
H779 H 0.24528 0.5497 0.38717 0.0
H780 H 0.33531 0.56823 0.3105 0.0
H781 H 0.37246 0.57726 0.41485 0.0
H782 H 0.29589 0.56516 0.39983 0.0
H783 H 0.31296 0.60038 0.34479 0.0
O784 O 0.28258 0.65922 0.49349 0.0
H785 H 0.35827 0.61017 0.51809 0.0
H786 H 0.31498 0.68256 0.53014 0.0
H787 H 0.39521 0.54468 0.38135 0.0
H788 H 0.21354 0.62791 0.38783 0.0
H789 H 0.37664 0.53999 0.32875 0.0
H790 H 0.2036 0.58115 0.38082 0.0
O791 O 0.36658 0.62795 0.4177 0.0
H792 H 0.3185 0.73627 0.43785 0.0
H793 H 0.37813 0.67369 0.4964 0.0
H794 H 0.39802 0.71733 0.48793 0.0
H795 H 0.36805 0.74914 0.45864 0.0
H796 H 0.29986 0.6924 0.44632 0.0
H797 H 0.33081 0.68348 0.58344 0.0
H798 H 0.36104 0.64729 0.6043 0.0
O799 O 0.36347 0.63199 0.46779 0.0
C800 C 0.31491 0.5893 0.46971 0.0
C801 C 0.36162 0.62632 0.56239 0.0
C802 C 0.33691 0.6673 0.56926 0.0
N803 N 0.33567 0.64628 0.52093 0.0
C804 C 0.35222 0.62628 0.5323 0.0
C805 C 0.32789 0.66659 0.53906 0.0
C806 C 0.35389 0.647 0.58094 0.0
C807 C 0.26059 0.62222 0.39727 0.0
N808 N 0.28367 0.60496 0.40004 0.0
C809 C 0.23156 0.61401 0.39019 0.0
C810 C 0.22598 0.58779 0.38629 0.0
C811 C 0.24935 0.57017 0.38978 0.0
C812 C 0.27809 0.57913 0.39683 0.0
C813 C 0.34357 0.57006 0.33338 0.0
C814 C 0.36407 0.57522 0.39208 0.0
C815 C 0.3311 0.58833 0.3529 0.0
N816 N 0.34123 0.59061 0.38195 0.0
C817 C 0.37713 0.55679 0.37317 0.0
C818 C 0.36674 0.55421 0.34365 0.0
C819 C 0.37884 0.62987 0.44362 0.0
C820 C 0.33169 0.72266 0.45086 0.0
C821 C 0.3649 0.68725 0.48354 0.0
C822 C 0.37631 0.71203 0.47887 0.0
C823 C 0.3595 0.72986 0.46246 0.0
N824 N 0.3374 0.6803 0.4724 0.0
C825 C 0.32105 0.69768 0.45597 0.0
Co826 Co 0.2112 0.62512 0.11016 0.0
Co827 Co 0.18997 0.66216 0.04916 0.0
O828 O 0.21546 0.65582 0.0845 0.0
C829 C 0.21115 0.64749 0.17249 0.0
O830 O 0.18541 0.63585 0.17745 0.0
C831 C 0.25254 0.67371 0.02726 0.0
O832 O 0.26282 0.65407 0.0429 0.0
O833 O 0.20025 0.62728 0.03266 0.0
O834 O 0.20049 0.60291 0.07467 0.0
H835 H 0.11087 0.63893 0.97301 0.0
H836 H 0.2674 0.65578 0.11313 0.0
O837 O 0.22295 0.64673 0.14619 0.0
H838 H 0.29917 0.56834 0.08287 0.0
H839 H 0.24219 0.56376 0.19311 0.0
H840 H 0.16659 0.58292 0.11484 0.0
H841 H 0.24579 0.57798 0.09231 0.0
H842 H 0.24734 0.60219 0.16062 0.0
O843 O 0.22449 0.67849 0.02677 0.0
H844 H 0.14325 0.63184 0.01742 0.0
H845 H 0.18307 0.7056 1.00511 0.0
H846 H 0.16067 0.54421 0.14673 0.0
H847 H 0.32112 0.64684 0.10453 0.0
H848 H 0.19863 0.53443 0.18624 0.0
H849 H 0.33732 0.60288 0.08913 0.0
O850 O 0.16748 0.63297 0.1164 0.0
H851 H 0.21338 0.74716 0.09833 0.0
H852 H 0.13311 0.69227 0.05681 0.0
H853 H 0.12013 0.73461 0.07852 0.0
H854 H 0.16048 0.76247 0.09937 0.0
H855 H 0.22523 0.70447 0.07679 0.0
H856 H 0.15142 0.71331 0.96032 0.0
H857 H 0.11486 0.67991 0.9441 0.0
O858 O 0.15426 0.64721 0.07033 0.0
C859 C 0.19994 0.60532 0.04598 0.0
C860 C 0.12668 0.65365 0.97988 0.0
C861 C 0.14947 0.69538 0.97273 0.0
N862 N 0.16495 0.66831 0.01397 0.0
C863 C 0.14503 0.64978 1.00506 0.0
C864 C 0.16743 0.69085 0.99805 0.0
C865 C 0.12894 0.67664 0.96366 0.0
C866 C 0.27428 0.63651 0.10685 0.0
N867 N 0.25341 0.61742 0.10334 0.0
C868 C 0.30473 0.6316 0.10183 0.0
C869 C 0.31379 0.60695 0.09312 0.0
C870 C 0.2924 0.58758 0.08956 0.0
C871 C 0.26215 0.5932 0.09477 0.0
C872 C 0.22548 0.56783 0.17601 0.0
C873 C 0.18319 0.57883 0.13201 0.0
C874 C 0.22824 0.58959 0.15757 0.0
N875 N 0.20719 0.59489 0.13593 0.0
C876 C 0.17972 0.55686 0.14998 0.0
C877 C 0.20103 0.55138 0.17214 0.0
C878 C 0.14763 0.63895 0.09666 0.0
C879 C 0.19559 0.73521 0.08932 0.0
C880 C 0.1507 0.7041 0.06615 0.0
C881 C 0.14326 0.72815 0.07826 0.0
C882 C 0.16591 0.74378 0.08992 0.0
N883 N 0.17986 0.69582 0.0656 0.0
C884 C 0.20218 0.71103 0.07704 0.0
Co885 Co 0.32159 0.3947 0.61855 0.0
Co886 Co 0.33615 0.35813 0.55664 0.0
O887 O 0.31294 0.36407 0.59377 0.0
C888 C 0.31626 0.35465 0.66823 0.0
O889 O 0.33714 0.34033 0.65559 0.0
C890 C 0.27341 0.34756 0.53468 0.0
O891 O 0.26396 0.36891 0.54756 0.0
O892 O 0.32238 0.39229 0.54128 0.0
O893 O 0.33399 0.41554 0.58209 0.0
H894 H 0.40646 0.38434 0.47331 0.0
H895 H 0.26199 0.36962 0.62228 0.0
O896 O 0.30817 0.37579 0.65595 0.0
H897 H 0.24115 0.45994 0.59376 0.0
H898 H 0.30312 0.45794 0.70297 0.0
H899 H 0.37122 0.43279 0.62017 0.0
H900 H 0.29312 0.44522 0.60229 0.0
H901 H 0.29152 0.42037 0.67095 0.0
O902 O 0.3008 0.34077 0.53706 0.0
H903 H 0.37805 0.3902 0.52065 0.0
H904 H 0.34203 0.31462 0.51268 0.0
H905 H 0.38345 0.47072 0.65139 0.0
H906 H 0.20959 0.38363 0.61435 0.0
H907 H 0.34929 0.48351 0.69316 0.0
H908 H 0.19891 0.42907 0.59988 0.0
O909 O 0.36379 0.38225 0.62368 0.0
H910 H 0.32092 0.27267 0.60796 0.0
H911 H 0.39503 0.33033 0.56 0.0
H912 H 0.41165 0.2885 0.58075 0.0
H913 H 0.37445 0.25932 0.60492 0.0
H914 H 0.3053 0.31477 0.587 0.0
H915 H 0.36971 0.30808 0.46506 0.0
H916 H 0.40235 0.34305 0.44515 0.0
O917 O 0.37316 0.37431 0.57479 0.0
C918 C 0.32645 0.41393 0.55435 0.0
C919 C 0.39236 0.36894 0.48178 0.0
C920 C 0.37171 0.32616 0.47713 0.0
N921 N 0.35849 0.35276 0.5195 0.0
C922 C 0.37628 0.37212 0.50862 0.0
C923 C 0.35598 0.33002 0.50405 0.0
C924 C 0.39002 0.34578 0.46598 0.0
C925 C 0.25749 0.38947 0.61622 0.0
N926 N 0.28059 0.40656 0.6128 0.0
C927 C 0.22779 0.39728 0.61167 0.0
C928 C 0.22182 0.42276 0.60352 0.0
C929 C 0.2455 0.44009 0.60007 0.0
C930 C 0.27491 0.43161 0.60485 0.0
C931 C 0.31818 0.45257 0.68483 0.0
C932 C 0.35615 0.43829 0.6382 0.0
C933 C 0.31179 0.43124 0.66668 0.0
N934 N 0.33062 0.42442 0.64361 0.0
C935 C 0.36324 0.45976 0.65585 0.0
C936 C 0.34407 0.46692 0.6793 0.0
C937 C 0.3819 0.37782 0.60193 0.0
C938 C 0.33733 0.28519 0.59744 0.0
C939 C 0.3787 0.31775 0.57051 0.0
C940 C 0.38824 0.29407 0.58217 0.0
C941 C 0.36737 0.27772 0.59574 0.0
N942 N 0.34919 0.32494 0.57225 0.0
C943 C 0.3286 0.30902 0.58551 0.0
H944 H 0.28181 0.23993 0.09353 0.0
H945 H 0.3727 0.24474 0.05891 0.0
H946 H 0.3604 0.28613 0.03397 0.0
H947 H 0.24749 0.26119 0.02711 0.0
H948 H 0.21771 0.27907 0.04512 0.0
H949 H 0.23466 0.25207 0.06424 0.0
H950 H 0.24737 0.28124 0.10995 0.0
H951 H 0.23024 0.30833 0.09102 0.0
H952 H 0.26851 0.31048 0.10405 0.0
H953 H 0.33698 0.3251 1.00882 0.0
H954 H 0.3041 0.35762 0.9847 0.0
H955 H 0.2278 0.32678 0.03396 0.0
C956 C 0.29939 0.25023 0.08166 0.0
C957 C 0.32849 0.23944 0.07884 0.0
C958 C 0.35047 0.25289 0.06186 0.0
C959 C 0.34365 0.27641 0.04755 0.0
C960 C 0.31459 0.28624 0.0501 0.0
C961 C 0.29277 0.27359 0.06674 0.0
C962 C 0.26254 0.28695 0.06337 0.0
C963 C 0.23923 0.26873 0.04911 0.0
C964 C 0.25152 0.29737 0.09392 0.0
C965 C 0.27068 0.30881 0.042 0.0
C966 C 0.30087 0.30825 0.03486 0.0
C967 C 0.31335 0.32586 0.01453 0.0
C968 C 0.29447 0.34433 1.00091 0.0
C969 C 0.2633 0.34502 1.00742 0.0
C970 C 0.25152 0.32709 0.02859 0.0
H971 H 0.23348 0.71345 0.46235 0.0
H972 H 0.24249 0.66297 0.5399 0.0
H973 H 0.2158 0.69503 0.57158 0.0
H974 H 0.25019 0.7702 0.50199 0.0
H975 H 0.22486 0.79062 0.48102 0.0
H976 H 0.24058 0.7623 0.46355 0.0
H977 H 0.18709 0.74557 0.45145 0.0
H978 H 0.17122 0.77398 0.46869 0.0
H979 H 0.16 0.74239 0.48151 0.0
H980 H 0.18996 0.73405 0.59543 0.0
H981 H 0.17041 0.77719 0.60973 0.0
H982 H 0.18199 0.8031 0.51725 0.0
C983 C 0.22891 0.7088 0.48576 0.0
C984 C 0.23928 0.68538 0.4985 0.0
C985 C 0.23418 0.68055 0.52958 0.0
C986 C 0.21908 0.69868 0.54774 0.0
C987 C 0.20963 0.72182 0.53463 0.0
C988 C 0.21452 0.72697 0.50435 0.0
C989 C 0.20489 0.75425 0.49641 0.0
C990 C 0.23173 0.77028 0.48508 0.0
C991 C 0.17927 0.75402 0.47314 0.0
C992 C 0.19399 0.7637 0.52692 0.0
C993 C 0.19646 0.74465 0.54863 0.0
C994 C 0.1879 0.74907 0.57855 0.0
C995 C 0.17677 0.77363 0.58649 0.0
C996 C 0.17478 0.79361 0.56472 0.0
C997 C 0.18339 0.78834 0.53454 0.0
H998 H 0.29494 0.79823 0.92899 0.0
H999 H 0.38048 0.79882 0.97553 0.0
H1000 H 0.36809 0.75696 0.9996 0.0
H1001 H 0.25384 0.77569 0.99173 0.0
H1002 H 0.22785 0.75645 0.97016 0.0
H1003 H 0.24517 0.78432 0.95324 0.0
H1004 H 0.2654 0.7559 0.90959 0.0
H1005 H 0.24806 0.72793 0.9264 0.0
H1006 H 0.28773 0.72779 0.91821 0.0
H1007 H 0.3453 0.71577 0.02029 0.0
H1008 H 0.31227 0.68115 0.03976 0.0
H1009 H 0.23985 0.70931 0.98299 0.0
C1010 C 0.31135 0.78909 0.94356 0.0
C1011 C 0.33904 0.8013 0.94981 0.0
C1012 C 0.35943 0.78946 0.97007 0.0
C1013 C 0.35256 0.76571 0.9838 0.0
C1014 C 0.32492 0.75425 0.9775 0.0
C1015 C 0.30448 0.76569 0.95811 0.0
C1016 C 0.27509 0.75086 0.95773 0.0
C1017 C 0.24895 0.76785 0.96889 0.0
C1018 C 0.26871 0.73997 0.9261 0.0
C1019 C 0.2821 0.72943 0.98005 0.0
C1020 C 0.31114 0.73143 0.99078 0.0
C1021 C 0.32255 0.71399 0.01195 0.0
C1022 C 0.30365 0.69431 0.02281 0.0
C1023 C 0.27347 0.69245 0.01293 0.0
C1024 C 0.26281 0.71015 0.99099 0.0
H1025 H 0.28814 0.3083 0.49582 0.0
H1026 H 0.21156 0.34916 0.53325 0.0
H1027 H 0.17735 0.32036 0.50486 0.0
H1028 H 0.25606 0.29717 0.42093 0.0
H1029 H 0.27291 0.26565 0.41749 0.0
H1030 H 0.29121 0.29029 0.43952 0.0
H1031 H 0.29192 0.25988 0.48601 0.0
H1032 H 0.2739 0.23511 0.46409 0.0
H1033 H 0.25725 0.24575 0.49905 0.0
H1034 H 0.15167 0.28397 0.47644 0.0
H1035 H 0.1369 0.24396 0.44967 0.0
H1036 H 0.23009 0.22881 0.42813 0.0
C1037 C 0.26418 0.31138 0.49795 0.0
C1038 C 0.25257 0.33104 0.5169 0.0
C1039 C 0.22103 0.33434 0.51886 0.0
C1040 C 0.20143 0.31807 0.50277 0.0
C1041 C 0.21369 0.29882 0.48443 0.0
C1042 C 0.24438 0.29556 0.4818 0.0
C1043 C 0.25194 0.27296 0.46139 0.0
C1044 C 0.26904 0.28207 0.43316 0.0
C1045 C 0.2698 0.2522 0.47867 0.0
C1046 C 0.22071 0.26358 0.45336 0.0
C1047 C 0.19891 0.27875 0.46688 0.0
C1048 C 0.1685 0.27241 0.46511 0.0
C1049 C 0.16027 0.24977 0.44971 0.0
C1050 C 0.18224 0.23401 0.4358 0.0
C1051 C 0.21276 0.24126 0.43728 0.0
H1052 H 0.8621 0.71821 0.02911 0.0
H1053 H 0.83821 0.73308 0.12253 0.0
H1054 H 0.81592 0.77486 0.1073 0.0
H1055 H 0.87827 0.78564 1.00702 0.0
H1056 H 0.86187 0.78154 0.97012 0.0
H1057 H 0.87931 0.7545 0.98889 0.0
H1058 H 0.83025 0.72817 0.98335 0.0
H1059 H 0.81263 0.75503 0.9646 0.0
H1060 H 0.79556 0.74125 0.99782 0.0
H1061 H 0.79092 0.81246 0.08107 0.0
H1062 H 0.7656 0.84279 0.0464 0.0
H1063 H 0.80573 0.80373 0.96976 0.0
C1064 C 0.85269 0.73037 0.04655 0.0
C1065 C 0.85204 0.72219 0.07715 0.0
C1066 C 0.83925 0.73884 0.09904 0.0
C1067 C 0.8265 0.76265 0.09056 0.0
C1068 C 0.82682 0.76971 0.06009 0.0
C1069 C 0.83977 0.7541 0.03845 0.0
C1070 C 0.8352 0.76514 1.00697 0.0
C1071 C 0.86547 0.77212 0.9924 0.0
C1072 C 0.81735 0.74628 0.98702 0.0
C1073 C 0.81701 0.78917 0.01413 0.0
C1074 C 0.81264 0.79153 0.04497 0.0
C1075 C 0.79468 0.81104 0.05698 0.0
C1076 C 0.78039 0.82822 0.03706 0.0
C1077 C 0.78408 0.82599 1.00535 0.0
C1078 C 0.80317 0.80645 0.99387 0.0
H1079 H 0.75548 0.21371 0.49011 0.0
H1080 H 0.71932 0.15636 0.5516 0.0
H1081 H 0.68874 0.19019 0.57639 0.0
H1082 H 0.76412 0.26223 0.54441 0.0
H1083 H 0.75448 0.28855 0.51956 0.0
H1084 H 0.77067 0.25947 0.50436 0.0
H1085 H 0.72541 0.25428 0.46819 0.0
H1086 H 0.70917 0.28353 0.48297 0.0
H1087 H 0.68782 0.25399 0.48336 0.0
H1088 H 0.66404 0.2314 0.59639 0.0
H1089 H 0.64725 0.27572 0.60903 0.0
H1090 H 0.70199 0.30576 0.53587 0.0
C1091 C 0.74053 0.20806 0.50824 0.0
C1092 C 0.73953 0.1822 0.51861 0.0
C1093 C 0.72027 0.17593 0.54303 0.0
C1094 C 0.70286 0.19506 0.55732 0.0
C1095 C 0.70508 0.22048 0.54711 0.0
C1096 C 0.72338 0.22695 0.52302 0.0
C1097 C 0.72337 0.25585 0.51759 0.0
C1098 C 0.75504 0.26718 0.52174 0.0
C1099 C 0.71068 0.26228 0.48616 0.0
C1100 C 0.7023 0.26469 0.54243 0.0
C1101 C 0.69178 0.24406 0.55913 0.0
C1102 C 0.6721 0.24766 0.58335 0.0
C1103 C 0.66273 0.27294 0.59044 0.0
C1104 C 0.67322 0.29437 0.57355 0.0
C1105 C 0.69343 0.28996 0.54935 0.0
H1106 H 0.83916 0.28921 1.00114 0.0
H1107 H 0.82348 0.269 0.9074 0.0
H1108 H 0.7993 0.2283 0.92381 0.0
H1109 H 0.85503 0.22337 0.02791 0.0
H1110 H 0.8365 0.22868 0.06358 0.0
H1111 H 0.85423 0.25524 0.04424 0.0
H1112 H 0.8042 0.28078 0.04557 0.0
H1113 H 0.7863 0.25435 0.06486 0.0
H1114 H 0.77074 0.26642 0.03001 0.0
H1115 H 0.77169 0.19197 0.95112 0.0
H1116 H 0.74634 0.16206 0.98658 0.0
H1117 H 0.78276 0.20489 0.06222 0.0
C1118 C 0.83103 0.27609 0.98398 0.0
C1119 C 0.83326 0.28238 0.95291 0.0
C1120 C 0.82226 0.2646 0.93129 0.0
C1121 C 0.8084 0.24144 0.94043 0.0
C1122 C 0.80608 0.2361 0.97127 0.0
C1123 C 0.81748 0.25281 0.99269 0.0
C1124 C 0.81149 0.24301 0.02442 0.0
C1125 C 0.84108 0.23723 0.04101 0.0
C1126 C 0.79203 0.26228 0.04225 0.0
C1127 C 0.79438 0.21839 0.01764 0.0
C1128 C 0.79138 0.21475 0.98685 0.0
C1129 C 0.77446 0.19437 0.97523 0.0
C1130 C 0.76014 0.17746 0.99554 0.0
C1131 C 0.76309 0.18075 0.02717 0.0
C1132 C 0.78079 0.20136 0.03819 0.0
H1133 H 0.75109 0.83349 0.46526 0.0
H1134 H 0.72626 0.82836 0.5598 0.0
H1135 H 0.69545 0.78983 0.54864 0.0
H1136 H 0.67949 0.80926 0.43248 0.0
H1137 H 0.69881 0.79127 0.40354 0.0
H1138 H 0.715 0.82061 0.41809 0.0
H1139 H 0.7638 0.79583 0.43142 0.0
H1140 H 0.74776 0.7664 0.41716 0.0
H1141 H 0.76173 0.76771 0.45534 0.0
H1142 H 0.67178 0.74945 0.52829 0.0
H1143 H 0.6574 0.71006 0.50079 0.0
H1144 H 0.6986 0.74043 0.4193 0.0
C1145 C 0.73828 0.82486 0.48344 0.0
C1146 C 0.74055 0.83434 0.51336 0.0
C1147 C 0.72446 0.82173 0.53668 0.0
C1148 C 0.70693 0.7998 0.53053 0.0
C1149 C 0.70583 0.79057 0.50094 0.0
C1150 C 0.72102 0.80273 0.47774 0.0
C1151 C 0.71859 0.78744 0.44857 0.0
C1152 C 0.70198 0.80308 0.42423 0.0
C1153 C 0.74982 0.77884 0.43748 0.0
C1154 C 0.69999 0.76457 0.45904 0.0
C1155 C 0.69267 0.76691 0.48928 0.0
C1156 C 0.67707 0.7476 0.50453 0.0
C1157 C 0.66904 0.72521 0.48867 0.0
C1158 C 0.67664 0.7221 0.45775 0.0
C1159 C 0.69196 0.74233 0.44272 0.0
H1160 H 0.35047 0.04753 0.07227 0.0
H1161 H 0.36367 0.105 1.00191 0.0
H1162 H 0.36441 0.07112 0.9637 0.0
H1163 H 0.40139 1.00105 0.03911 0.0
H1164 H 0.37952 0.97319 0.04961 0.0
H1165 H 0.37776 1.00209 0.07216 0.0
H1166 H 0.31996 1.00327 0.06573 0.0
H1167 H 0.32159 0.97441 0.04308 0.0
H1168 H 0.30405 1.00314 0.02828 0.0
H1169 H 0.36403 0.03155 0.9321 0.0
H1170 H 0.3655 0.98795 0.90981 0.0
H1171 H 0.35629 0.95469 0.99949 0.0
C1172 C 0.35313 0.05298 0.04881 0.0
C1173 C 0.35614 0.07931 0.04038 0.0
C1174 C 0.36043 0.08531 1.00933 0.0
C1175 C 0.36108 0.06608 0.98719 0.0
C1176 C 0.35798 0.04053 0.99611 0.0
C1177 C 0.35441 0.03377 0.02614 0.0
C1178 C 0.35327 1.00451 0.02933 0.0
C1179 C 0.37955 0.99463 0.0487 0.0
C1180 C 0.32291 0.99583 0.04238 0.0
C1181 C 0.35665 0.99617 0.99649 0.0
C1182 C 0.35907 0.01734 0.97776 0.0
C1183 C 0.36218 0.01476 0.94653 0.0
C1184 C 0.36295 0.98985 0.93404 0.0
C1185 C 0.36089 0.96768 0.95267 0.0
C1186 C 0.35775 0.97109 0.98441 0.0
H1187 H 0.15654 0.9475 0.51313 0.0
H1188 H 0.1599 0.98045 0.60332 0.0
H1189 H 0.16175 0.02404 0.58109 0.0
H1190 H 0.20789 0.99325 0.4784 0.0
H1191 H 0.18775 0.99463 0.44312 0.0
H1192 H 0.18659 0.96572 0.46579 0.0
H1193 H 0.12852 0.96771 0.46638 0.0
H1194 H 0.12945 0.99665 0.44376 0.0
H1195 H 0.11001 0.99659 0.47948 0.0
H1196 H 0.16175 0.06352 0.55024 0.0
H1197 H 0.16089 0.09781 0.51284 0.0
H1198 H 0.15964 0.04105 0.44048 0.0
C1199 C 0.1578 0.96385 0.52827 0.0
C1200 C 0.15821 0.96036 0.56018 0.0
C1201 C 0.15968 0.98242 0.57896 0.0
C1202 C 0.16073 1.00731 0.5665 0.0
C1203 C 0.16044 0.00998 0.53515 0.0
C1204 C 0.15909 0.98895 0.51618 0.0
C1205 C 0.15911 0.99752 0.48318 0.0
C1206 C 0.187 0.98716 0.46664 0.0
C1207 C 0.13004 0.98911 0.46726 0.0
C1208 C 0.16048 0.02675 0.48664 0.0
C1209 C 0.16117 0.03323 0.51694 0.0
C1210 C 0.16158 0.05868 0.52647 0.0
C1211 C 0.16123 0.07816 0.50468 0.0
C1212 C 0.16081 0.07252 0.47321 0.0
C1213 C 0.16045 0.04622 0.46415 0.0
H1214 H 0.70201 0.9674 0.96551 0.0
H1215 H 0.69578 0.91853 0.04499 0.0
H1216 H 0.69127 0.95749 0.07691 0.0
H1217 H 0.74867 0.01639 1.00066 0.0
H1218 H 0.73135 0.04252 0.98011 0.0
H1219 H 0.73325 0.01078 0.96361 0.0
H1220 H 0.67554 0.01118 0.95624 0.0
H1221 H 0.67339 0.04281 0.97298 0.0
H1222 H 0.65144 0.01669 0.98833 0.0
H1223 H 0.6835 1.00141 0.09933 0.0
H1224 H 0.68 0.04715 0.11256 0.0
H1225 H 0.69783 0.06835 0.01925 0.0
C1226 C 0.70011 0.96475 0.98962 0.0
C1227 C 0.69936 0.93974 1.00268 0.0
C1228 C 0.69653 0.93738 0.03441 0.0
C1229 C 0.69385 0.95942 0.05271 0.0
C1230 C 0.69462 0.98369 0.03899 0.0
C1231 C 0.69824 0.98651 1.00825 0.0
C1232 C 0.69945 0.01483 0.99929 0.0
C1233 C 0.73 0.02152 0.98508 0.0
C1234 C 0.6734 0.02178 0.97795 0.0
C1235 C 0.69565 0.0276 0.02988 0.0
C1236 C 0.69242 1.00918 0.05231 0.0
C1237 C 0.68679 0.01597 0.0821 0.0
C1238 C 0.68503 0.0422 0.08938 0.0
C1239 C 0.68977 0.06167 0.06722 0.0
C1240 C 0.69483 0.0541 0.03691 0.0
H1241 H 0.86125 0.06455 0.4942 0.0
H1242 H 0.76548 0.07641 0.4841 0.0
H1243 H 0.7565 0.03037 0.49657 0.0
H1244 H 0.86621 1.00211 0.46413 0.0
H1245 H 0.89299 0.98996 0.49118 0.0
H1246 H 0.89203 0.0239 0.48233 0.0
H1247 H 0.88448 0.03515 0.5389 0.0
H1248 H 0.88634 1.00129 0.54799 0.0
H1249 H 0.85432 0.02013 0.55964 0.0
H1250 H 0.75883 0.98169 0.50535 0.0
H1251 H 0.77094 0.93688 0.52091 0.0
H1252 H 0.86462 0.95799 0.53025 0.0
C1253 C 0.83837 0.05753 0.49549 0.0
C1254 C 0.81396 0.07396 0.48862 0.0
C1255 C 0.78435 0.06416 0.48997 0.0
C1256 C 0.77912 0.03799 0.49662 0.0
C1257 C 0.80374 0.02205 0.50253 0.0
C1258 C 0.83271 0.03168 0.50306 0.0
C1259 C 0.85513 0.01077 0.51132 0.0
C1260 C 0.87793 1.00644 0.48571 0.0
C1261 C 0.871 0.01722 0.54124 0.0
C1262 C 0.83439 0.98777 0.51481 0.0
C1263 C 0.80488 0.99452 0.50907 0.0
C1264 C 0.78183 0.97628 0.51013 0.0
C1265 C 0.78895 0.95078 0.51852 0.0
C1266 C 0.81873 0.94394 0.5264 0.0
C1267 C 0.84172 0.96264 0.52399 0.0
H1268 H 0.85048 0.43655 1.00166 0.0
H1269 H 0.87094 0.46686 0.91251 0.0
H1270 H 0.87575 0.51051 0.93433 0.0
H1271 H 0.80442 0.49123 0.0251 0.0
H1272 H 0.81678 0.48985 0.06383 0.0
H1273 H 0.81564 0.46082 0.04146 0.0
H1274 H 0.87179 0.45253 0.05317 0.0
H1275 H 0.87319 0.48161 0.07542 0.0
H1276 H 0.89907 0.47715 0.04454 0.0
H1277 H 0.88221 0.5497 0.96595 0.0
H1278 H 0.88387 0.58391 1.00354 0.0
H1279 H 0.85294 0.53043 0.07264 0.0
C1280 C 0.85566 0.45232 0.98657 0.0
C1281 C 0.86027 0.44809 0.95517 0.0
C1282 C 0.86721 0.46946 0.93649 0.0
C1283 C 0.87007 0.49434 0.94873 0.0
C1284 C 0.86539 0.49773 0.97967 0.0
C1285 C 0.85784 0.47744 0.99831 0.0
C1286 C 0.85308 0.48665 0.03066 0.0
C1287 C 0.82054 0.48185 0.04086 0.0
C1288 C 0.87563 0.47371 0.05222 0.0
C1289 C 0.85947 0.51536 0.02735 0.0
C1290 C 0.86694 0.52103 0.99773 0.0
C1291 C 0.87562 0.54562 0.989 0.0
C1292 C 0.87625 0.56509 1.0108 0.0
C1293 C 0.86739 0.56045 0.04122 0.0
C1294 C 0.85911 0.53496 0.04958 0.0
H1295 H 0.62062 0.46071 0.53055 0.0
H1296 H 0.71322 0.46011 0.56051 0.0
H1297 H 0.72534 0.49447 0.52339 0.0
H1298 H 0.63313 0.47335 0.45195 0.0
H1299 H 0.60196 0.49533 0.44792 0.0
H1300 H 0.60062 0.47009 0.47594 0.0
H1301 H 0.59108 0.50383 0.51807 0.0
H1302 H 0.59159 0.52904 0.49005 0.0
H1303 H 0.61648 0.5307 0.52208 0.0
H1304 H 0.72753 0.52802 0.48163 0.0
H1305 H 0.71796 0.56389 0.44591 0.0
H1306 H 0.62315 0.54552 0.44604 0.0
C1307 C 0.64335 0.46809 0.52944 0.0
C1308 C 0.66604 0.45794 0.54842 0.0
C1309 C 0.69551 0.46794 0.54643 0.0
C1310 C 0.70263 0.48721 0.52517 0.0
C1311 C 0.67986 0.49659 0.5064 0.0
C1312 C 0.65063 0.48787 0.50893 0.0
C1313 C 0.62993 0.50251 0.48767 0.0
C1314 C 0.61556 0.48422 0.4645 0.0
C1315 C 0.60586 0.51741 0.50553 0.0
C1316 C 0.65206 0.52074 0.4726 0.0
C1317 C 0.68087 0.51662 0.48329 0.0
C1318 C 0.70508 0.53133 0.47309 0.0
C1319 C 0.69953 0.55147 0.45251 0.0
C1320 C 0.67001 0.55696 0.44257 0.0
C1321 C 0.64608 0.5411 0.45241 0.0
H1322 H 0.20689 0.55482 0.0651 0.0
H1323 H 0.18714 0.60099 0.98551 0.0
H1324 H 0.18088 0.56108 0.95582 0.0
H1325 H 0.25013 0.50562 0.0259 0.0
H1326 H 0.23644 0.47963 0.04924 0.0
H1327 H 0.23918 0.5118 0.06443 0.0
H1328 H 0.18289 0.51037 0.079 0.0
H1329 H 0.17988 0.47826 0.06367 0.0
H1330 H 0.15525 0.50347 0.05038 0.0
H1331 H 0.17448 0.51681 0.93538 0.0
H1332 H 0.17233 0.47089 0.92339 0.0
H1333 H 0.19933 0.45188 0.01517 0.0
C1334 C 0.2015 0.55664 0.04136 0.0
C1335 C 0.19762 0.58126 0.02767 0.0
C1336 C 0.1904 0.58254 0.99656 0.0
C1337 C 0.18669 0.55992 0.97951 0.0
C1338 C 0.19054 0.5361 0.99376 0.0
C1339 C 0.19811 0.53424 0.02387 0.0
C1340 C 0.20144 0.50612 0.03342 0.0
C1341 C 0.23372 0.50046 0.04386 0.0
C1342 C 0.1785 0.49915 0.05808 0.0
C1343 C 0.19438 0.49242 1.00391 0.0
C1344 C 0.18792 0.51025 0.98154 0.0
C1345 C 0.17988 0.5027 0.9526 0.0
C1346 C 0.17881 0.47634 0.94606 0.0
C1347 C 0.1862 0.45737 0.96812 0.0
C1348 C 0.19385 0.46569 0.99765 0.0
H1349 H 0.34333 0.56508 0.51748 0.0
H1350 H 0.27459 0.55435 0.44951 0.0
H1351 H 0.271 0.50828 0.46279 0.0
H1352 H 0.38044 0.50538 0.50774 0.0
H1353 H 0.38751 0.49956 0.54725 0.0
H1354 H 0.38408 0.53216 0.53346 0.0
H1355 H 0.34166 0.54126 0.57208 0.0
H1356 H 0.34528 0.50879 0.58631 0.0
H1357 H 0.30934 0.52034 0.57328 0.0
H1358 H 0.27794 0.4627 0.48021 0.0
H1359 H 0.28988 0.42145 0.50563 0.0
H1360 H 0.35154 0.46157 0.56518 0.0
C1361 C 0.32709 0.55312 0.50592 0.0
C1362 C 0.30954 0.56316 0.48201 0.0
C1363 C 0.2888 0.54688 0.46719 0.0
C1364 C 0.28646 0.5207 0.47477 0.0
C1365 C 0.30479 0.51108 0.49762 0.0
C1366 C 0.32425 0.52684 0.5135 0.0
C1367 C 0.34135 0.5114 0.5371 0.0
C1368 C 0.37536 0.51218 0.53101 0.0
C1369 C 0.33396 0.52102 0.56909 0.0
C1370 C 0.32869 0.48458 0.53167 0.0
C1371 C 0.30785 0.48483 0.50858 0.0
C1372 C 0.29397 0.46228 0.49857 0.0
C1373 C 0.30108 0.4389 0.51296 0.0
C1374 C 0.3216 0.43826 0.53735 0.0
C1375 C 0.33565 0.46146 0.54667 0.0
H1376 H 0.58774 0.10472 0.09333 0.0
H1377 H 0.60801 0.17933 0.13228 0.0
H1378 H 0.55394 0.1909 0.13061 0.0
H1379 H 0.53009 0.1242 0.0436 0.0
H1380 H 0.50649 0.09643 0.04975 0.0
H1381 H 0.54655 0.09378 0.05455 0.0
H1382 H 0.53905 0.07699 0.10919 0.0
H1383 H 0.49893 0.07922 0.1044 0.0
H1384 H 0.51688 0.09563 0.13539 0.0
H1385 H 0.49807 0.19561 0.11995 0.0
H1386 H 0.44376 0.19063 0.10913 0.0
H1387 H 0.45913 0.11132 0.0821 0.0
C1388 C 0.58059 0.12327 0.10203 0.0
C1389 C 0.6018 0.14112 0.11321 0.0
C1390 C 0.5919 0.16531 0.12415 0.0
C1391 C 0.56132 0.17209 0.12301 0.0
C1392 C 0.5409 0.15421 0.11145 0.0
C1393 C 0.55003 0.13002 0.1019 0.0
C1394 C 0.52348 0.1141 0.09127 0.0
C1395 C 0.52687 0.1067 0.05781 0.0
C1396 C 0.51934 0.09006 0.11126 0.0
C1397 C 0.49805 0.13323 0.09578 0.0
C1398 C 0.50863 0.15641 0.10699 0.0
C1399 C 0.48953 0.17744 0.11156 0.0
C1400 C 0.45879 0.17453 0.10511 0.0
C1401 C 0.44735 0.15065 0.09479 0.0
C1402 C 0.46731 0.12978 0.09008 0.0
H1403 H 0.92499 0.89695 0.62158 0.0
H1404 H 0.90772 0.85162 0.5409 0.0
H1405 H 0.9617 0.84655 0.53274 0.0
H1406 H 0.9873 0.93142 0.59001 0.0
H1407 H 1.0088 0.93227 0.62449 0.0
H1408 H 0.96839 0.93082 0.62602 0.0
H1409 H 0.97156 0.88972 0.65926 0.0
H1410 H 0.012 0.89108 0.65782 0.0
H1411 H 0.99269 0.86225 0.64602 0.0
H1412 H 0.01758 0.84678 0.53181 0.0
H1413 H 0.0721 0.85342 0.53815 0.0
H1414 H 0.05453 0.9007 0.61725 0.0
C1415 C 0.93258 0.8856 0.60252 0.0
C1416 C 0.9117 0.87422 0.58236 0.0
C1417 C 0.92284 0.8601 0.55721 0.0
C1418 C 0.95367 0.85717 0.55217 0.0
C1419 C 0.97354 0.86872 0.57216 0.0
C1420 C 0.96359 0.88277 0.59678 0.0
C1421 C 0.99007 0.89429 0.61372 0.0
C1422 C 0.98854 0.92396 0.61354 0.0
C1423 C 0.99167 0.8837 0.64613 0.0
C1424 C 0.01618 0.88449 0.59471 0.0
C1425 C 1.00608 0.86963 0.57098 0.0
C1426 C 0.02583 0.85837 0.55035 0.0
C1427 C 0.05682 0.86226 0.55413 0.0
C1428 C 0.06788 0.87746 0.57825 0.0
C1429 C 0.04705 0.88881 0.59864 0.0
H1430 H 0.47 0.90743 0.89939 0.0
H1431 H 0.44706 0.86414 0.98035 0.0
H1432 H 0.50073 0.85669 0.9901 0.0
H1433 H 0.53187 0.86633 0.87664 0.0
H1434 H 0.55481 0.89247 0.86287 0.0
H1435 H 0.51445 0.89524 0.86217 0.0
H1436 H 0.51764 0.93754 0.89304 0.0
H1437 H 0.55802 0.93492 0.89386 0.0
H1438 H 0.53724 0.93759 0.92867 0.0
H1439 H 0.5557 0.85418 0.99206 0.0
H1440 H 0.61001 0.85589 0.98646 0.0
H1441 H 0.60025 0.89901 0.90264 0.0
C1442 C 0.47621 0.89633 0.91914 0.0
C1443 C 0.454 0.88625 0.93901 0.0
C1444 C 0.46336 0.87199 0.96468 0.0
C1445 C 0.49389 0.86765 0.97044 0.0
C1446 C 0.51501 0.87752 0.9503 0.0
C1447 C 0.50677 0.89153 0.92513 0.0
C1448 C 0.53442 0.8996 0.90709 0.0
C1449 C 0.53385 0.8877 0.8753 0.0
C1450 C 0.53697 0.92917 0.90558 0.0
C1451 C 0.55945 0.88797 0.92621 0.0
C1452 C 0.54742 0.87544 0.95101 0.0
C1453 C 0.56539 0.86369 0.97259 0.0
C1454 C 0.59651 0.86472 0.96899 0.0
C1455 C 0.60994 0.87719 0.94374 0.0
C1456 C 0.59093 0.88897 0.92195 0.0
H1457 H 0.05196 0.12268 0.399 0.0
H1458 H 0.07247 0.16644 0.48 0.0
H1459 H 0.01837 0.17063 0.49061 0.0
H1460 H 0.98787 0.16188 0.37749 0.0
H1461 H 0.96672 0.13508 0.36268 0.0
H1462 H 1.00719 0.13429 0.362 0.0
H1463 H 1.0066 0.09098 0.39125 0.0
H1464 H 0.96613 0.09168 0.39213 0.0
H1465 H 0.98705 0.08897 0.42684 0.0
H1466 H 0.96272 0.16803 0.49421 0.0
H1467 H 0.90838 0.16308 0.48824 0.0
H1468 H 0.92217 0.12574 0.40148 0.0
C1469 C 0.04515 0.13323 0.41889 0.0
C1470 C 0.06671 0.1442 0.43866 0.0
C1471 C 0.05659 0.15784 0.46447 0.0
C1472 C 0.02585 0.1603 0.47074 0.0
C1473 C 1.0053 0.14944 0.45072 0.0
C1474 C 0.01442 0.13649 0.42508 0.0
C1475 C 0.98745 0.12766 0.40668 0.0
C1476 C 0.9873 0.1405 0.37536 0.0
C1477 C 0.98678 0.09806 0.40408 0.0
C1478 C 0.96178 0.13752 0.42618 0.0
C1479 C 0.97277 0.14967 0.45166 0.0
C1480 C 0.95382 0.1591 0.47403 0.0
C1481 C 0.92279 0.15631 0.47025 0.0
C1482 C 0.91061 0.14481 0.44387 0.0
C1483 C 0.93058 0.13521 0.42156 0.0
H1484 H 0.09931 0.65982 0.06662 0.0
H1485 H 0.12201 0.60902 0.14129 0.0
H1486 H 0.06792 0.60003 0.14895 0.0
H1487 H 0.03227 0.6873 0.10175 0.0
H1488 H 0.01244 0.68967 0.06636 0.0
H1489 H 0.05282 0.69206 0.06708 0.0
H1490 H 0.05645 0.65469 0.02843 0.0
H1491 H 0.01612 0.65198 0.02782 0.0
H1492 H 0.03884 0.62421 0.03689 0.0
H1493 H 0.01185 0.59346 0.1449 0.0
H1494 H 0.9577 0.594 0.13479 0.0
H1495 H 0.97069 0.65318 0.06646 0.0
C1496 C 0.09308 0.64713 0.08496 0.0
C1497 C 0.11514 0.63518 0.10342 0.0
C1498 C 0.10568 0.61851 0.12693 0.0
C1499 C 0.07498 0.61322 0.13136 0.0
C1500 C 0.05398 0.62514 0.11249 0.0
C1501 C 0.0626 0.64215 0.09014 0.0
C1502 C 0.03558 0.65281 0.07325 0.0
C1503 C 0.03313 0.68221 0.07737 0.0
C1504 C 0.03684 0.64548 0.03961 0.0
C1505 C 0.01026 0.63886 0.08934 0.0
C1506 C 0.02147 0.62274 0.11159 0.0
C1507 C 1.00279 0.60654 0.12813 0.0
C1508 C 0.97186 0.60714 0.12226 0.0
C1509 C 0.95945 0.62435 0.10056 0.0
C1510 C 0.97918 0.64027 0.08372 0.0
H1511 H 0.55353 0.41726 0.57756 0.0
H1512 H 0.57641 0.33813 0.59965 0.0
H1513 H 0.52295 0.32907 0.611 0.0
H1514 H 0.49561 0.42676 0.63237 0.0
H1515 H 0.47137 0.44496 0.60762 0.0
H1516 H 0.51147 0.44555 0.60202 0.0
H1517 H 0.50474 0.43014 0.54676 0.0
H1518 H 0.46463 0.43002 0.55202 0.0
H1519 H 0.48352 0.40122 0.53931 0.0
H1520 H 0.4672 0.32947 0.62266 0.0
H1521 H 0.41219 0.33675 0.62444 0.0
H1522 H 0.42472 0.41415 0.5897 0.0
C1523 C 0.54713 0.39797 0.58445 0.0
C1524 C 0.56896 0.37831 0.58762 0.0
C1525 C 0.5599 0.3533 0.59668 0.0
C1526 C 0.52967 0.3481 0.60351 0.0
C1527 C 0.5087 0.36799 0.60059 0.0
C1528 C 0.51691 0.39224 0.59048 0.0
C1529 C 0.48971 0.40974 0.58743 0.0
C1530 C 0.4922 0.43313 0.60863 0.0
C1531 C 0.4854 0.41827 0.55442 0.0
C1532 C 0.4649 0.39161 0.59751 0.0
C1533 C 0.47644 0.36779 0.60567 0.0
C1534 C 0.45795 0.34798 0.61616 0.0
C1535 C 0.4268 0.35231 0.61732 0.0
C1536 C 0.41446 0.37603 0.6075 0.0
C1537 C 0.43377 0.396 0.5978 0.0
H1538 H 0.08523 0.39661 0.96074 0.0
H1539 H 0.10521 0.35803 0.8761 0.0
H1540 H 0.05151 0.34681 0.87057 0.0
H1541 H 0.028 0.35296 0.98716 0.0
H1542 H 1.0045 0.37801 1.00271 0.0
H1543 H 0.0446 0.3825 1.00065 0.0
H1544 H 0.03703 0.42475 0.97026 0.0
H1545 H 0.99694 0.42059 0.97259 0.0
H1546 H 0.01476 0.42422 0.93626 0.0
H1547 H 0.99604 0.33891 0.87472 0.0
H1548 H 0.9415 0.33978 0.88456 0.0
H1549 H 0.95626 0.38554 0.96499 0.0
C1550 C 0.0783 0.38585 0.94098 0.0
C1551 C 0.09951 0.37815 0.91882 0.0
C1552 C 0.08943 0.36428 0.89324 0.0
C1553 C 0.059 0.35763 0.89005 0.0
C1554 C 0.0388 0.36521 0.91248 0.0
C1555 C 0.04791 0.37939 0.9372 0.0
C1556 C 0.02133 0.38625 0.95726 0.0
C1557 C 0.02483 0.37421 0.98882 0.0
C1558 C 0.01728 0.4157 0.95919 0.0
C1559 C 0.99578 0.37374 0.93991 0.0
C1560 C 1.00653 0.3614 0.91438 0.0
C1561 C 0.98739 0.34866 0.89451 0.0
C1562 C 0.95642 0.34931 0.90023 0.0
C1563 C 0.9447 0.3628 0.92538 0.0
C1564 C 0.9647 0.37473 0.94586 0.0
H1565 H 0.5525 0.61709 0.39371 0.0
H1566 H 0.57491 0.64232 0.48449 0.0
H1567 H 0.52116 0.64313 0.49747 0.0
H1568 H 0.48813 0.65883 0.38604 0.0
H1569 H 0.46649 0.63603 0.36437 0.0
H1570 H 0.50692 0.63543 0.36255 0.0
H1571 H 0.50675 0.58727 0.37828 0.0
H1572 H 0.46631 0.58775 0.38027 0.0
H1573 H 0.48799 0.57773 0.41261 0.0
H1574 H 0.4657 0.64053 0.50128 0.0
H1575 H 0.41118 0.63865 0.49497 0.0
H1576 H 0.42269 0.61968 0.40002 0.0
C1577 C 0.54619 0.62287 0.41628 0.0
C1578 C 0.5682 0.62974 0.43801 0.0
C1579 C 0.5587 0.63702 0.46736 0.0
C1580 C 0.52814 0.63749 0.47501 0.0
C1581 C 0.50714 0.631 0.45298 0.0
C1582 C 0.51561 0.62411 0.42411 0.0
C1583 C 0.48816 0.61948 0.40435 0.0
C1584 C 0.48738 0.63858 0.37775 0.0
C1585 C 0.48726 0.59138 0.39322 0.0
C1586 C 0.46297 0.62485 0.42671 0.0
C1587 C 0.47464 0.63106 0.45469 0.0
C1588 C 0.45627 0.63606 0.47938 0.0
C1589 C 0.42513 0.63505 0.47541 0.0
C1590 C 0.41225 0.62966 0.44676 0.0
C1591 C 0.43164 0.62427 0.4221 0.0
H1592 H 0.28225 0.15862 0.19936 0.0
H1593 H 0.29072 0.07702 0.17974 0.0
H1594 H 0.26642 0.06663 0.22874 0.0
H1595 H 0.30144 0.15263 0.27764 0.0
H1596 H 0.27631 0.17783 0.28993 0.0
H1597 H 0.29197 0.17874 0.25242 0.0
H1598 H 0.23844 0.18114 0.22963 0.0
H1599 H 0.22263 0.18041 0.26708 0.0
H1600 H 0.21122 0.15681 0.23951 0.0
H1601 H 0.23894 0.06559 0.27996 0.0
H1602 H 0.21556 0.07382 0.32996 0.0
H1603 H 0.23068 0.15584 0.31831 0.0
C1604 C 0.27846 0.13857 0.20513 0.0
C1605 C 0.28768 0.1186 0.18534 0.0
C1606 C 0.28339 0.0926 0.19429 0.0
C1607 C 0.26964 0.08655 0.22212 0.0
C1608 C 0.26096 0.1067 0.24121 0.0
C1609 C 0.26559 0.1322 0.23319 0.0
C1610 C 0.25609 0.15025 0.25849 0.0
C1611 C 0.28306 0.16578 0.27031 0.0
C1612 C 0.23058 0.16821 0.24805 0.0
C1613 C 0.2451 0.13103 0.28192 0.0
C1614 C 0.24764 0.106 0.27141 0.0
C1615 C 0.23733 0.08511 0.28851 0.0
C1616 C 0.22411 0.08993 0.31692 0.0
C1617 C 0.22196 0.11537 0.32841 0.0
C1618 C 0.23279 0.13609 0.31058 0.0
H1619 H 0.29015 0.86772 0.81617 0.0
H1620 H 0.30437 0.94999 0.82608 0.0
H1621 H 0.27852 0.95764 0.77725 0.0
H1622 H 0.30597 0.8666 0.73652 0.0
H1623 H 0.27879 0.84186 0.72814 0.0
H1624 H 0.29619 0.84303 0.76484 0.0
H1625 H 0.24379 0.84506 0.79018 0.0
H1626 H 0.22622 0.84373 0.75357 0.0
H1627 H 0.21761 0.86987 0.77899 0.0
H1628 H 0.24879 0.95618 0.72808 0.0
H1629 H 0.22226 0.94555 0.68044 0.0
H1630 H 0.233 0.86402 0.69944 0.0
C1631 C 0.28733 0.88736 0.80824 0.0
C1632 C 0.29857 0.90838 0.82521 0.0
C1633 C 0.29549 0.93371 0.81362 0.0
C1634 C 0.28088 0.9382 0.78591 0.0
C1635 C 0.27017 0.91707 0.7696 0.0
C1636 C 0.27362 0.89211 0.78015 0.0
C1637 C 0.26183 0.87269 0.75737 0.0
C1638 C 0.28721 0.855 0.74605 0.0
C1639 C 0.23581 0.85691 0.77084 0.0
C1640 C 0.25088 0.89059 0.73249 0.0
C1641 C 0.25548 0.91614 0.7402 0.0
C1642 C 0.24557 0.93623 0.72163 0.0
C1643 C 0.23058 0.93005 0.69461 0.0
C1644 C 0.22632 0.90403 0.68593 0.0
C1645 C 0.23678 0.88409 0.70511 0.0
H1646 H 0.76248 0.83586 0.83317 0.0
H1647 H 0.69181 0.89302 0.82202 0.0
H1648 H 0.70836 0.9008 0.76995 0.0
H1649 H 0.81819 0.86845 0.79238 0.0
H1650 H 0.83408 0.84055 0.77401 0.0
H1651 H 0.81543 0.8371 0.80989 0.0
H1652 H 0.77962 0.80296 0.78714 0.0
H1653 H 0.79842 0.80604 0.75124 0.0
H1654 H 0.75836 0.81071 0.75368 0.0
H1655 H 0.73599 0.90732 0.72258 0.0
H1656 H 0.76918 0.90803 0.6785 0.0
H1657 H 0.82074 0.84429 0.71577 0.0
C1658 C 0.74997 0.84945 0.81947 0.0
C1659 C 0.7258 0.86388 0.83195 0.0
C1660 C 0.71042 0.88179 0.81327 0.0
C1661 C 0.71966 0.88639 0.78355 0.0
C1662 C 0.74413 0.87267 0.77234 0.0
C1663 C 0.75877 0.85414 0.78932 0.0
C1664 C 0.78501 0.8428 0.77153 0.0
C1665 C 0.81495 0.84751 0.78794 0.0
C1666 C 0.78005 0.81391 0.76554 0.0
C1667 C 0.78318 0.85839 0.74236 0.0
C1668 C 0.75945 0.87558 0.74368 0.0
C1669 C 0.7542 0.89353 0.72093 0.0
C1670 C 0.77338 0.89381 0.69592 0.0
C1671 C 0.7974 0.87595 0.69322 0.0
C1672 C 0.80228 0.85788 0.71685 0.0
H1673 H 0.77691 0.13554 0.33225 0.0
H1674 H 0.83253 0.20417 0.32881 0.0
H1675 H 0.80923 0.21606 0.27971 0.0
H1676 H 0.77956 0.11998 0.25488 0.0
H1677 H 0.74115 0.10914 0.25332 0.0
H1678 H 0.76178 0.10695 0.28816 0.0
H1679 H 0.72046 0.13358 0.31527 0.0
H1680 H 0.69971 0.13584 0.28044 0.0
H1681 H 0.70997 0.16477 0.30053 0.0
H1682 H 0.78141 0.2181 0.22814 0.0
H1683 H 0.75198 0.2105 0.18139 0.0
H1684 H 0.71255 0.14249 0.22261 0.0
C1685 C 0.78427 0.15315 0.32131 0.0
C1686 C 0.80678 0.16883 0.3343 0.0
C1687 C 0.81538 0.19183 0.31927 0.0
C1688 C 0.80222 0.19872 0.29139 0.0
C1689 C 0.78013 0.18266 0.27917 0.0
C1690 C 0.77111 0.16047 0.29396 0.0
C1691 C 0.74722 0.14619 0.27642 0.0
C1692 C 0.75809 0.11897 0.26768 0.0
C1693 C 0.71758 0.14504 0.29423 0.0
C1694 C 0.74446 0.16347 0.24903 0.0
C1695 C 0.76358 0.18441 0.25076 0.0
C1696 C 0.76609 0.20193 0.22684 0.0
C1697 C 0.74917 0.19753 0.20038 0.0
C1698 C 0.72989 0.17585 0.19809 0.0
C1699 C 0.72706 0.1592 0.22328 0.0
H1700 H 0.73601 0.5728 0.30414 0.0
H1701 H 0.69034 0.6469 0.30444 0.0
H1702 H 0.71073 0.65637 0.25395 0.0
H1703 H 0.80409 0.59666 0.26614 0.0
H1704 H 0.80968 0.56735 0.24497 0.0
H1705 H 0.79155 0.56622 0.28134 0.0
H1706 H 0.74583 0.54332 0.25718 0.0
H1707 H 0.76367 0.54468 0.22068 0.0
H1708 H 0.72675 0.55832 0.22582 0.0
H1709 H 0.7331 0.65685 0.20184 0.0
H1710 H 0.7623 0.65137 0.15499 0.0
H1711 H 0.79705 0.57847 0.18867 0.0
C1712 C 0.73059 0.59114 0.29371 0.0
C1713 C 0.71147 0.60908 0.30851 0.0
C1714 C 0.70504 0.63287 0.29394 0.0
C1715 C 0.71636 0.63838 0.26503 0.0
C1716 C 0.73461 0.62015 0.25089 0.0
C1717 C 0.74231 0.59725 0.26495 0.0
C1718 C 0.76326 0.58147 0.24496 0.0
C1719 C 0.79397 0.57771 0.26027 0.0
C1720 C 0.74902 0.5554 0.23668 0.0
C1721 C 0.76579 0.59894 0.21741 0.0
C1722 C 0.74871 0.62098 0.22122 0.0
C1723 C 0.74677 0.63977 0.19873 0.0
C1724 C 0.76331 0.63635 0.17199 0.0
C1725 C 0.78206 0.61448 0.16789 0.0
C1726 C 0.78296 0.59541 0.19096 0.0
H1727 H 0.7441 0.37576 0.69594 0.0
H1728 H 0.69827 0.44976 0.69429 0.0
H1729 H 0.71842 0.45971 0.74485 0.0
H1730 H 0.73066 0.36241 0.77432 0.0
H1731 H 0.76666 0.34745 0.78087 0.0
H1732 H 0.74995 0.34634 0.74384 0.0
H1733 H 0.79759 0.36721 0.72078 0.0
H1734 H 0.81455 0.36807 0.7577 0.0
H1735 H 0.8112 0.39732 0.73588 0.0
H1736 H 0.7439 0.462 0.79565 0.0
H1737 H 0.77339 0.45655 0.84253 0.0
H1738 H 0.80056 0.38016 0.8131 0.0
C1739 C 0.73867 0.39423 0.70601 0.0
C1740 C 0.71975 0.41209 0.69084 0.0
C1741 C 0.71278 0.4358 0.70523 0.0
C1742 C 0.72408 0.44162 0.73406 0.0
C1743 C 0.74218 0.42346 0.74857 0.0
C1744 C 0.7495 0.40025 0.73506 0.0
C1745 C 0.76893 0.38393 0.75596 0.0
C1746 C 0.75309 0.35853 0.76423 0.0
C1747 C 0.7999 0.37884 0.74173 0.0
C1748 C 0.77143 0.40162 0.78322 0.0
C1749 C 0.75593 0.42438 0.77839 0.0
C1750 C 0.75592 0.44417 0.79974 0.0
C1751 C 0.77265 0.44086 0.8264 0.0
C1752 C 0.78897 0.41783 0.83183 0.0
C1753 C 0.78784 0.3978 0.81003 0.0
H1754 H 0.27075 0.3794 0.69829 0.0
H1755 H 0.33032 0.31329 0.70522 0.0
H1756 H 0.30848 0.30289 0.75531 0.0
H1757 H 0.27574 0.39877 0.77443 0.0
H1758 H 0.23706 0.40882 0.77703 0.0
H1759 H 0.25612 0.40976 0.74119 0.0
H1760 H 0.21468 0.38094 0.71777 0.0
H1761 H 0.1955 0.37993 0.7536 0.0
H1762 H 0.20593 0.35031 0.735 0.0
H1763 H 0.28148 0.30165 0.80694 0.0
H1764 H 0.25307 0.31008 0.85409 0.0
H1765 H 0.21095 0.37636 0.81153 0.0
C1766 C 0.27915 0.36257 0.7101 0.0
C1767 C 0.30236 0.34717 0.69765 0.0
C1768 C 0.31255 0.32537 0.71413 0.0
C1769 C 0.30023 0.31931 0.74264 0.0
C1770 C 0.27758 0.33512 0.75433 0.0
C1771 C 0.26713 0.35626 0.7384 0.0
C1772 C 0.24348 0.37085 0.75613 0.0
C1773 C 0.25373 0.39869 0.76258 0.0
C1774 C 0.2131 0.37047 0.73964 0.0
C1775 C 0.24244 0.35489 0.78478 0.0
C1776 C 0.26212 0.33428 0.78343 0.0
C1777 C 0.26582 0.31762 0.80802 0.0
C1778 C 0.24948 0.3225 0.83474 0.0
C1779 C 0.22968 0.3439 0.83674 0.0
C1780 C 0.22583 0.35984 0.81101 0.0
H1781 H 0.25341 0.6629 0.34705 0.0
H1782 H 0.34592 0.67154 0.31866 0.0
H1783 H 0.32935 0.67395 0.26521 0.0
H1784 H 0.23488 0.6196 0.28975 0.0
H1785 H 0.19679 0.63069 0.28493 0.0
H1786 H 0.21519 0.63439 0.32084 0.0
H1787 H 0.20463 0.68355 0.31961 0.0
H1788 H 0.18604 0.68004 0.28369 0.0
H1789 H 0.2168 0.70238 0.28761 0.0
H1790 H 0.30282 0.67248 0.21482 0.0
H1791 H 0.26992 0.66324 0.17147 0.0
H1792 H 0.19479 0.65166 0.23256 0.0
C1793 C 0.27001 0.66624 0.32958 0.0
C1794 C 0.30084 0.66802 0.33686 0.0
C1795 C 0.32216 0.67093 0.31345 0.0
C1796 C 0.31291 0.67226 0.2831 0.0
C1797 C 0.2823 0.67007 0.27657 0.0
C1798 C 0.2612 0.66687 0.29917 0.0
C1799 C 0.23028 0.66167 0.28605 0.0
C1800 C 0.21861 0.63501 0.29598 0.0
C1801 C 0.20813 0.6832 0.29476 0.0
C1802 C 0.23725 0.66226 0.2525 0.0
C1803 C 0.26728 0.66759 0.24754 0.0
C1804 C 0.27925 0.66844 0.21847 0.0
C1805 C 0.26027 0.6632 0.19391 0.0
C1806 C 0.22961 0.65676 0.19841 0.0
C1807 C 0.21799 0.65671 0.22821 0.0
loop_
_geom_bond_atom_site_label_1
_geom_bond_atom_site_label_2
_geom_bond_distance
_geom_bond_site_symmetry_2
_ccdc_geom_bond_type
Co0 O2 2.143 . S
Co0 O8 2.074 . S
Co0 O11 2.093 . S
Co0 O24 2.097 . S
Co0 N41 2.151 . S
Co0 N49 2.214 . S
Co1 O2 2.160 . S
Co1 O7 2.058 . S
Co1 O17 2.057 . S
Co1 O32 2.037 . S
Co1 N36 2.145 . S
Co1 N57 2.257 . S
O2 Co0 2.143 . S
O2 Co1 2.160 . S
C3 O4 1.278 . S
C3 O11 1.224 . S
O4 C3 1.278 . S
C5 O6 1.245 . S
C5 O17 1.232 . S
O6 C5 1.245 . S
O7 Co1 2.058 . S
O7 C33 1.269 . S
O8 Co0 2.074 . S
O8 C33 1.257 . S
H9 C34 0.930 . S
H10 C40 0.930 . S
O11 Co0 2.093 . S
O11 C3 1.224 . S
H12 C44 0.929 1_556 S
H13 C46 0.930 . S
H14 C47 0.907 1_554 S
H15 C45 0.929 . S
H16 C48 0.928 . S
O17 Co1 2.057 . S
O17 C5 1.232 . S
H18 C37 0.929 . S
H19 C38 0.929 . S
H20 C50 0.931 . S
H21 C42 0.929 . S
H22 C51 0.930 . S
H23 C43 0.931 1_556 S
O24 Co0 2.097 . S
O24 C52 1.214 . S
H25 C53 0.929 . S
H26 C54 0.929 . S
H27 C55 0.930 . S
H28 C56 0.929 . S
H29 C58 0.930 . S
H30 C35 0.930 . S
H31 C39 0.930 . S
O32 Co1 2.037 . S
O32 C52 1.234 . S
C33 O7 1.269 . S
C33 O8 1.257 . S
C34 H9 0.930 . S
C34 C37 1.388 . S
C34 C39 1.418 . S
C35 H30 0.930 . S
C35 C38 1.404 . S
C35 C39 1.353 . S
N36 Co1 2.145 . S
N36 C37 1.397 . S
N36 C38 1.334 . S
C37 H18 0.929 . S
C37 C34 1.388 . S
C37 N36 1.397 . S
C38 H19 0.929 . S
C38 C35 1.404 . S
C38 N36 1.334 . S
C39 H31 0.930 . S
C39 C34 1.418 . S
C39 C35 1.353 . S
C40 H10 0.930 . S
C40 N41 1.330 . S
C40 C42 1.446 . S
N41 Co0 2.151 . S
N41 C40 1.330 . S
N41 C45 1.418 . S
C42 H21 0.929 . S
C42 C40 1.446 . S
C42 C43 1.332 . S
C43 H23 0.931 1_554 S
C43 C42 1.332 . S
C43 C44 1.267 . S
C44 H12 0.929 1_554 S
C44 C43 1.267 . S
C44 C45 1.251 . S
C45 H15 0.929 . S
C45 N41 1.418 . S
C45 C44 1.251 . S
C46 H13 0.930 . S
C46 C48 1.406 . S
C46 C51 1.261 . S
C47 H14 0.907 1_556 S
C47 N49 1.321 1_556 S
C47 C50 1.383 . S
C48 H16 0.928 . S
C48 C46 1.406 . S
C48 N49 1.261 1_556 S
N49 Co0 2.214 . S
N49 C47 1.321 1_554 S
N49 C48 1.261 1_554 S
C50 H20 0.931 . S
C50 C47 1.383 . S
C50 C51 1.312 . S
C51 H22 0.930 . S
C51 C46 1.261 . S
C51 C50 1.312 . S
C52 O24 1.214 . S
C52 O32 1.234 . S
C53 H25 0.929 . S
C53 C56 1.391 . S
C53 C58 1.391 . S
C54 H26 0.929 . S
C54 C55 1.390 . S
C54 N57 1.391 . S
C55 H27 0.930 . S
C55 C54 1.390 . S
C55 C56 1.392 . S
C56 H28 0.929 . S
C56 C53 1.391 . S
C56 C55 1.392 . S
N57 Co1 2.257 . S
N57 C54 1.391 . S
N57 C58 1.388 . S
C58 H29 0.930 . S
C58 C53 1.391 . S
C58 N57 1.388 . S
Co59 O61 2.143 . S
Co59 O67 2.074 . S
Co59 O70 2.093 . S
Co59 O83 2.097 . S
Co59 N100 2.151 . S
Co59 N108 2.214 . S
Co60 O61 2.160 . S
Co60 O66 2.058 . S
Co60 O76 2.057 . S
Co60 O91 2.037 . S
Co60 N95 2.145 . S
Co60 N116 2.257 . S
O61 Co59 2.143 . S
O61 Co60 2.160 . S
C62 O63 1.278 . S
C62 O70 1.224 . S
O63 C62 1.278 . S
C64 O65 1.245 . S
C64 O76 1.232 . S
O65 C64 1.245 . S
O66 Co60 2.058 . S
O66 C92 1.269 . S
O67 Co59 2.074 . S
O67 C92 1.257 . S
H68 C93 0.930 . S
H69 C99 0.930 . S
O70 Co59 2.093 . S
O70 C62 1.224 . S
H71 C103 0.929 . S
H72 C105 0.930 . S
H73 C106 0.930 . S
H74 C104 0.929 . S
H75 C107 0.928 . S
O76 Co60 2.057 . S
O76 C64 1.232 . S
H77 C96 0.929 . S
H78 C97 0.929 . S
H79 C109 0.931 . S
H80 C101 0.929 . S
H81 C110 0.930 . S
H82 C102 0.931 . S
O83 Co59 2.097 . S
O83 C111 1.214 . S
H84 C112 0.929 . S
H85 C113 0.929 . S
H86 C114 0.930 . S
H87 C115 0.929 . S
H88 C117 0.930 . S
H89 C94 0.930 . S
H90 C98 0.930 . S
O91 Co60 2.037 . S
O91 C111 1.234 . S
C92 O66 1.269 . S
C92 O67 1.257 . S
C93 H68 0.930 . S
C93 C96 1.388 . S
C93 C98 1.418 . S
C94 H89 0.930 . S
C94 C97 1.404 . S
C94 C98 1.353 . S
N95 Co60 2.145 . S
N95 C96 1.397 . S
N95 C97 1.334 . S
C96 H77 0.929 . S
C96 C93 1.388 . S
C96 N95 1.397 . S
C97 H78 0.929 . S
C97 C94 1.404 . S
C97 N95 1.334 . S
C98 H90 0.930 . S
C98 C93 1.418 . S
C98 C94 1.353 . S
C99 H69 0.930 . S
C99 N100 1.330 . S
C99 C101 1.446 . S
N100 Co59 2.151 . S
N100 C99 1.330 . S
N100 C104 1.418 . S
C101 H80 0.929 . S
C101 C99 1.446 . S
C101 C102 1.332 . S
C102 H82 0.931 . S
C102 C101 1.332 . S
C102 C103 1.267 . S
C103 H71 0.929 . S
C103 C102 1.267 . S
C103 C104 1.251 . S
C104 H74 0.929 . S
C104 N100 1.418 . S
C104 C103 1.251 . S
C105 H72 0.930 . S
C105 C107 1.406 . S
C105 C110 1.261 . S
C106 H73 0.930 . S
C106 N108 1.325 . S
C106 C109 1.357 . S
C107 H75 0.928 . S
C107 C105 1.406 . S
C107 N108 1.261 . S
N108 Co59 2.214 . S
N108 C106 1.325 . S
N108 C107 1.261 . S
C109 H79 0.931 . S
C109 C106 1.357 . S
C109 C110 1.312 . S
C110 H81 0.930 . S
C110 C105 1.261 . S
C110 C109 1.312 . S
C111 O83 1.214 . S
C111 O91 1.234 . S
C112 H84 0.929 . S
C112 C115 1.391 . S
C112 C117 1.391 . S
C113 H85 0.929 . S
C113 C114 1.390 . S
C113 N116 1.391 . S
C114 H86 0.930 . S
C114 C113 1.390 . S
C114 C115 1.392 . S
C115 H87 0.929 . S
C115 C112 1.391 . S
C115 C114 1.392 . S
N116 Co60 2.257 . S
N116 C113 1.391 . S
N116 C117 1.388 . S
C117 H88 0.930 . S
C117 C112 1.391 . S
C117 N116 1.388 . S
Co118 O120 2.143 . S
Co118 O126 2.074 . S
Co118 O129 2.093 . S
Co118 O142 2.097 . S
Co118 N159 2.151 . S
Co118 N167 2.214 . S
Co119 O120 2.160 . S
Co119 O125 2.058 . S
Co119 O135 2.057 . S
Co119 O150 2.037 . S
Co119 N154 2.145 . S
Co119 N175 2.257 . S
O120 Co118 2.143 . S
O120 Co119 2.160 . S
C121 O122 1.278 . S
C121 O129 1.224 . S
O122 C121 1.278 . S
C123 O124 1.245 . S
C123 O135 1.232 . S
O124 C123 1.245 . S
O125 Co119 2.058 . S
O125 C151 1.269 . S
O126 Co118 2.074 . S
O126 C151 1.257 . S
H127 C152 0.930 . S
H128 C158 0.930 . S
O129 Co118 2.093 . S
O129 C121 1.224 . S
H130 C162 0.929 1_554 S
H131 C164 0.930 . S
H132 C165 0.907 1_556 S
H133 C163 0.929 . S
H134 C166 0.928 . S
O135 Co119 2.057 . S
O135 C123 1.232 . S
H136 C155 0.929 . S
H137 C156 0.929 . S
H138 C168 0.931 . S
H139 C160 0.929 . S
H140 C169 0.930 . S
H141 C161 0.931 1_554 S
O142 Co118 2.097 . S
O142 C170 1.214 . S
H143 C171 0.929 . S
H144 C172 0.929 . S
H145 C173 0.930 . S
H146 C174 0.929 . S
H147 C176 0.930 . S
H148 C153 0.930 . S
H149 C157 0.930 . S
O150 Co119 2.037 . S
O150 C170 1.234 . S
C151 O125 1.269 . S
C151 O126 1.257 . S
C152 H127 0.930 . S
C152 C155 1.388 . S
C152 C157 1.418 . S
C153 H148 0.930 . S
C153 C156 1.404 . S
C153 C157 1.353 . S
N154 Co119 2.145 . S
N154 C155 1.397 . S
N154 C156 1.334 . S
C155 H136 0.929 . S
C155 C152 1.388 . S
C155 N154 1.397 . S
C156 H137 0.929 . S
C156 C153 1.404 . S
C156 N154 1.334 . S
C157 H149 0.930 . S
C157 C152 1.418 . S
C157 C153 1.353 . S
C158 H128 0.930 . S
C158 N159 1.330 . S
C158 C160 1.446 . S
N159 Co118 2.151 . S
N159 C158 1.330 . S
N159 C163 1.418 . S
C160 H139 0.929 . S
C160 C158 1.446 . S
C160 C161 1.332 . S
C161 H141 0.931 1_556 S
C161 C160 1.332 . S
C161 C162 1.267 . S
C162 H130 0.929 1_556 S
C162 C161 1.267 . S
C162 C163 1.251 . S
C163 H133 0.929 . S
C163 N159 1.418 . S
C163 C162 1.251 . S
C164 H131 0.930 . S
C164 C166 1.406 . S
C164 C169 1.261 . S
C165 H132 0.907 1_554 S
C165 N167 1.321 1_554 S
C165 C168 1.383 . S
C166 H134 0.928 . S
C166 C164 1.406 . S
C166 N167 1.261 1_554 S
N167 Co118 2.214 . S
N167 C165 1.321 1_556 S
N167 C166 1.261 1_556 S
C168 H138 0.931 . S
C168 C165 1.383 . S
C168 C169 1.312 . S
C169 H140 0.930 . S
C169 C164 1.261 . S
C169 C168 1.312 . S
C170 O142 1.214 . S
C170 O150 1.234 . S
C171 H143 0.929 . S
C171 C174 1.391 . S
C171 C176 1.391 . S
C172 H144 0.929 . S
C172 C173 1.390 . S
C172 N175 1.391 . S
C173 H145 0.930 . S
C173 C172 1.390 . S
C173 C174 1.392 . S
C174 H146 0.929 . S
C174 C171 1.391 . S
C174 C173 1.392 . S
N175 Co119 2.257 . S
N175 C172 1.391 . S
N175 C176 1.388 . S
C176 H147 0.930 . S
C176 C171 1.391 . S
C176 N175 1.388 . S
Co177 O179 2.143 . S
Co177 O185 2.074 . S
Co177 O188 2.093 . S
Co177 O201 2.097 . S
Co177 N218 2.151 . S
Co177 N226 2.214 . S
Co178 O179 2.160 . S
Co178 O184 2.058 . S
Co178 O194 2.057 . S
Co178 O209 2.037 . S
Co178 N213 2.145 . S
Co178 N234 2.257 . S
O179 Co177 2.143 . S
O179 Co178 2.160 . S
C180 O181 1.278 . S
C180 O188 1.224 . S
O181 C180 1.278 . S
C182 O183 1.245 . S
C182 O194 1.232 . S
O183 C182 1.245 . S
O184 Co178 2.058 . S
O184 C210 1.269 . S
O185 Co177 2.074 . S
O185 C210 1.257 . S
H186 C211 0.930 . S
H187 C217 0.930 . S
O188 Co177 2.093 . S
O188 C180 1.224 . S
H189 C221 0.929 . S
H190 C223 0.930 . S
H191 C224 0.930 . S
H192 C222 0.929 . S
H193 C225 0.928 . S
O194 Co178 2.057 . S
O194 C182 1.232 . S
H195 C214 0.929 . S
H196 C215 0.929 . S
H197 C227 0.931 . S
H198 C219 0.929 . S
H199 C228 0.930 . S
H200 C220 0.931 . S
O201 Co177 2.097 . S
O201 C229 1.214 . S
H202 C230 0.929 . S
H203 C231 0.929 . S
H204 C232 0.930 . S
H205 C233 0.929 . S
H206 C235 0.930 . S
H207 C212 0.930 . S
H208 C216 0.930 . S
O209 Co178 2.037 . S
O209 C229 1.234 . S
C210 O184 1.269 . S
C210 O185 1.257 . S
C211 H186 0.930 . S
C211 C214 1.388 . S
C211 C216 1.418 . S
C212 H207 0.930 . S
C212 C215 1.404 . S
C212 C216 1.353 . S
N213 Co178 2.145 . S
N213 C214 1.397 . S
N213 C215 1.334 . S
C214 H195 0.929 . S
C214 C211 1.388 . S
C214 N213 1.397 . S
C215 H196 0.929 . S
C215 C212 1.404 . S
C215 N213 1.334 . S
C216 H208 0.930 . S
C216 C211 1.418 . S
C216 C212 1.353 . S
C217 H187 0.930 . S
C217 N218 1.330 . S
C217 C219 1.446 . S
N218 Co177 2.151 . S
N218 C217 1.330 . S
N218 C222 1.418 . S
C219 H198 0.929 . S
C219 C217 1.446 . S
C219 C220 1.332 . S
C220 H200 0.931 . S
C220 C219 1.332 . S
C220 C221 1.267 . S
C221 H189 0.929 . S
C221 C220 1.267 . S
C221 C222 1.251 . S
C222 H192 0.929 . S
C222 N218 1.418 . S
C222 C221 1.251 . S
C223 H190 0.930 . S
C223 C225 1.406 . S
C223 C228 1.261 . S
C224 H191 0.930 . S
C224 N226 1.325 . S
C224 C227 1.357 . S
C225 H193 0.928 . S
C225 C223 1.406 . S
C225 N226 1.261 . S
N226 Co177 2.214 . S
N226 C224 1.325 . S
N226 C225 1.261 . S
C227 H197 0.931 . S
C227 C224 1.357 . S
C227 C228 1.312 . S
C228 H199 0.930 . S
C228 C223 1.261 . S
C228 C227 1.312 . S
C229 O201 1.214 . S
C229 O209 1.234 . S
C230 H202 0.929 . S
C230 C233 1.391 . S
C230 C235 1.391 . S
C231 H203 0.929 . S
C231 C232 1.390 . S
C231 N234 1.391 . S
C232 H204 0.930 . S
C232 C231 1.390 . S
C232 C233 1.392 . S
C233 H205 0.929 . S
C233 C230 1.391 . S
C233 C232 1.392 . S
N234 Co178 2.257 . S
N234 C231 1.391 . S
N234 C235 1.388 . S
C235 H206 0.930 . S
C235 C230 1.391 . S
C235 N234 1.388 . S
Co236 O238 2.143 . S
Co236 O244 2.074 . S
Co236 O247 2.093 . S
Co236 O260 2.097 . S
Co236 N277 2.151 . S
Co236 N285 2.214 . S
Co237 O238 2.160 . S
Co237 O243 2.058 . S
Co237 O253 2.057 . S
Co237 O268 2.037 . S
Co237 N272 2.145 . S
Co237 N293 2.257 . S
O238 Co236 2.143 . S
O238 Co237 2.160 . S
C239 O240 1.278 . S
C239 O247 1.224 . S
O240 C239 1.278 . S
C241 O242 1.245 . S
C241 O253 1.232 . S
O242 C241 1.245 . S
O243 Co237 2.058 . S
O243 C269 1.269 . S
O244 Co236 2.074 . S
O244 C269 1.257 . S
H245 C270 0.930 . S
H246 C276 0.930 . S
O247 Co236 2.093 . S
O247 C239 1.224 . S
H248 C280 0.929 . S
H249 C282 0.930 . S
H250 C283 0.930 . S
H251 C281 0.929 . S
H252 C284 0.928 . S
O253 Co237 2.057 . S
O253 C241 1.232 . S
H254 C273 0.950 . S
H255 C274 0.929 . S
H256 C286 0.931 . S
H257 C278 0.929 . S
H258 C287 0.930 . S
H259 C279 0.931 . S
O260 Co236 2.097 . S
O260 C288 1.214 . S
H261 C289 0.929 . S
H262 C290 0.929 . S
H263 C291 0.930 . S
H264 C292 0.929 . S
H265 C294 0.930 . S
H266 C271 0.930 . S
H267 C275 0.930 . S
O268 Co237 2.037 . S
O268 C288 1.234 . S
C269 O243 1.269 . S
C269 O244 1.257 . S
C270 H245 0.930 . S
C270 C273 1.358 1_554 S
C270 C275 1.418 . S
C271 H266 0.930 . S
C271 C274 1.404 . S
C271 C275 1.353 . S
N272 Co237 2.145 . S
N272 C273 1.407 . S
N272 C274 1.334 1_556 S
C273 H254 0.950 . S
C273 C270 1.358 1_556 S
C273 N272 1.407 . S
C274 H255 0.929 . S
C274 C271 1.404 . S
C274 N272 1.334 1_554 S
C275 H267 0.930 . S
C275 C270 1.418 . S
C275 C271 1.353 . S
C276 H246 0.930 . S
C276 N277 1.330 . S
C276 C278 1.446 . S
N277 Co236 2.151 . S
N277 C276 1.330 . S
N277 C281 1.418 . S
C278 H257 0.929 . S
C278 C276 1.446 . S
C278 C279 1.332 . S
C279 H259 0.931 . S
C279 C278 1.332 . S
C279 C280 1.267 . S
C280 H248 0.929 . S
C280 C279 1.267 . S
C280 C281 1.251 . S
C281 H251 0.929 . S
C281 N277 1.418 . S
C281 C280 1.251 . S
C282 H249 0.930 . S
C282 C284 1.406 . S
C282 C287 1.261 . S
C283 H250 0.930 . S
C283 N285 1.325 . S
C283 C286 1.357 . S
C284 H252 0.928 . S
C284 C282 1.406 . S
C284 N285 1.261 . S
N285 Co236 2.214 . S
N285 C283 1.325 . S
N285 C284 1.261 . S
C286 H256 0.931 . S
C286 C283 1.357 . S
C286 C287 1.312 . S
C287 H258 0.930 . S
C287 C282 1.261 . S
C287 C286 1.312 . S
C288 O260 1.214 . S
C288 O268 1.234 . S
C289 H261 0.929 . S
C289 C292 1.391 . S
C289 C294 1.391 . S
C290 H262 0.929 . S
C290 C291 1.390 . S
C290 N293 1.391 . S
C291 H263 0.930 . S
C291 C290 1.390 . S
C291 C292 1.392 . S
C292 H264 0.929 . S
C292 C289 1.391 . S
C292 C291 1.392 . S
N293 Co237 2.257 . S
N293 C290 1.391 . S
N293 C294 1.388 . S
C294 H265 0.930 . S
C294 C289 1.391 . S
C294 N293 1.388 . S
Co295 O297 2.143 . S
Co295 O303 2.074 . S
Co295 O306 2.093 . S
Co295 O319 2.097 . S
Co295 N336 2.151 . S
Co295 N344 2.214 . S
Co296 O297 2.160 . S
Co296 O302 2.058 . S
Co296 O312 2.057 . S
Co296 O327 2.037 . S
Co296 N331 2.145 . S
Co296 N352 2.257 . S
O297 Co295 2.143 . S
O297 Co296 2.160 . S
C298 O299 1.278 . S
C298 O306 1.224 . S
O299 C298 1.278 . S
C300 O301 1.245 . S
C300 O312 1.232 . S
O301 C300 1.245 . S
O302 Co296 2.058 . S
O302 C328 1.269 . S
O303 Co295 2.074 . S
O303 C328 1.257 . S
H304 C329 0.930 . S
H305 C335 0.930 . S
O306 Co295 2.093 . S
O306 C298 1.224 . S
H307 C339 0.929 . S
H308 C341 0.930 . S
H309 C342 0.930 . S
H310 C340 0.929 . S
H311 C343 0.928 . S
O312 Co296 2.057 . S
O312 C300 1.232 . S
H313 C332 0.929 . S
H314 C333 0.929 . S
H315 C345 0.931 . S
H316 C337 0.929 . S
H317 C346 0.930 . S
H318 C338 0.931 . S
O319 Co295 2.097 . S
O319 C347 1.214 . S
H320 C348 0.929 . S
H321 C349 0.929 . S
H322 C350 0.930 . S
H323 C351 0.929 . S
H324 C353 0.930 . S
H325 C330 0.930 . S
H326 C334 0.930 . S
O327 Co296 2.037 . S
O327 C347 1.234 . S
C328 O302 1.269 . S
C328 O303 1.257 . S
C329 H304 0.930 . S
C329 C332 1.388 . S
C329 C334 1.418 . S
C330 H325 0.930 . S
C330 C333 1.404 . S
C330 C334 1.353 . S
N331 Co296 2.145 . S
N331 C332 1.397 . S
N331 C333 1.334 . S
C332 H313 0.929 . S
C332 C329 1.388 . S
C332 N331 1.397 . S
C333 H314 0.929 . S
C333 C330 1.404 . S
C333 N331 1.334 . S
C334 H326 0.930 . S
C334 C329 1.418 . S
C334 C330 1.353 . S
C335 H305 0.930 . S
C335 N336 1.330 . S
C335 C337 1.446 . S
N336 Co295 2.151 . S
N336 C335 1.330 . S
N336 C340 1.418 . S
C337 H316 0.929 . S
C337 C335 1.446 . S
C337 C338 1.332 . S
C338 H318 0.931 . S
C338 C337 1.332 . S
C338 C339 1.267 . S
C339 H307 0.929 . S
C339 C338 1.267 . S
C339 C340 1.251 . S
C340 H310 0.929 . S
C340 N336 1.418 . S
C340 C339 1.251 . S
C341 H308 0.930 . S
C341 C343 1.406 . S
C341 C346 1.261 . S
C342 H309 0.930 . S
C342 N344 1.325 . S
C342 C345 1.357 . S
C343 H311 0.928 . S
C343 C341 1.406 . S
C343 N344 1.261 . S
N344 Co295 2.214 . S
N344 C342 1.325 . S
N344 C343 1.261 . S
C345 H315 0.931 . S
C345 C342 1.357 . S
C345 C346 1.312 . S
C346 H317 0.930 . S
C346 C341 1.261 . S
C346 C345 1.312 . S
C347 O319 1.214 . S
C347 O327 1.234 . S
C348 H320 0.929 . S
C348 C351 1.391 . S
C348 C353 1.391 . S
C349 H321 0.929 . S
C349 C350 1.390 . S
C349 N352 1.391 . S
C350 H322 0.930 . S
C350 C349 1.390 . S
C350 C351 1.392 . S
C351 H323 0.929 . S
C351 C348 1.391 . S
C351 C350 1.392 . S
N352 Co296 2.257 . S
N352 C349 1.391 . S
N352 C353 1.388 . S
C353 H324 0.930 . S
C353 C348 1.391 . S
C353 N352 1.388 . S
Co354 O356 2.143 . S
Co354 O362 2.074 . S
Co354 O365 2.093 . S
Co354 O378 2.097 . S
Co354 N395 2.151 . S
Co354 N403 2.214 . S
Co355 O356 2.160 . S
Co355 O361 2.058 . S
Co355 O371 2.057 . S
Co355 O386 2.037 . S
Co355 N390 2.145 . S
Co355 N411 2.257 . S
O356 Co354 2.143 . S
O356 Co355 2.160 . S
C357 O358 1.278 . S
C357 O365 1.224 . S
O358 C357 1.278 . S
C359 O360 1.245 . S
C359 O371 1.232 . S
O360 C359 1.245 . S
O361 Co355 2.058 . S
O361 C387 1.269 . S
O362 Co354 2.074 . S
O362 C387 1.257 . S
H363 C388 0.930 . S
H364 C394 0.930 . S
O365 Co354 2.093 . S
O365 C357 1.224 . S
H366 C398 0.929 . S
H367 C400 0.930 . S
H368 C401 0.930 . S
H369 C399 0.929 . S
H370 C402 0.928 . S
O371 Co355 2.057 . S
O371 C359 1.232 . S
H372 C391 0.950 . S
H373 C392 0.929 . S
H374 C404 0.931 . S
H375 C396 0.929 . S
H376 C405 0.930 . S
H377 C397 0.931 . S
O378 Co354 2.097 . S
O378 C406 1.214 . S
H379 C407 0.929 . S
H380 C408 0.929 . S
H381 C409 0.930 . S
H382 C410 0.929 . S
H383 C412 0.930 . S
H384 C389 0.930 . S
H385 C393 0.930 . S
O386 Co355 2.037 . S
O386 C406 1.234 . S
C387 O361 1.269 . S
C387 O362 1.257 . S
C388 H363 0.930 . S
C388 C391 1.358 1_556 S
C388 C393 1.418 . S
C389 H384 0.930 . S
C389 C392 1.404 . S
C389 C393 1.353 . S
N390 Co355 2.145 . S
N390 C391 1.407 . S
N390 C392 1.334 1_554 S
C391 H372 0.950 . S
C391 C388 1.358 1_554 S
C391 N390 1.407 . S
C392 H373 0.929 . S
C392 C389 1.404 . S
C392 N390 1.334 1_556 S
C393 H385 0.930 . S
C393 C388 1.418 . S
C393 C389 1.353 . S
C394 H364 0.930 . S
C394 N395 1.330 . S
C394 C396 1.446 . S
N395 Co354 2.151 . S
N395 C394 1.330 . S
N395 C399 1.418 . S
C396 H375 0.929 . S
C396 C394 1.446 . S
C396 C397 1.332 . S
C397 H377 0.931 . S
C397 C396 1.332 . S
C397 C398 1.267 . S
C398 H366 0.929 . S
C398 C397 1.267 . S
C398 C399 1.251 . S
C399 H369 0.929 . S
C399 N395 1.418 . S
C399 C398 1.251 . S
C400 H367 0.930 . S
C400 C402 1.406 . S
C400 C405 1.261 . S
C401 H368 0.930 . S
C401 N403 1.325 . S
C401 C404 1.357 . S
C402 H370 0.928 . S
C402 C400 1.406 . S
C402 N403 1.261 . S
N403 Co354 2.214 . S
N403 C401 1.325 . S
N403 C402 1.261 . S
C404 H374 0.931 . S
C404 C401 1.357 . S
C404 C405 1.312 . S
C405 H376 0.930 . S
C405 C400 1.261 . S
C405 C404 1.312 . S
C406 O378 1.214 . S
C406 O386 1.234 . S
C407 H379 0.929 . S
C407 C410 1.391 . S
C407 C412 1.391 . S
C408 H380 0.929 . S
C408 C409 1.390 . S
C408 N411 1.391 . S
C409 H381 0.930 . S
C409 C408 1.390 . S
C409 C410 1.392 . S
C410 H382 0.929 . S
C410 C407 1.391 . S
C410 C409 1.392 . S
N411 Co355 2.257 . S
N411 C408 1.391 . S
N411 C412 1.388 . S
C412 H383 0.930 . S
C412 C407 1.391 . S
C412 N411 1.388 . S
Co413 O415 2.143 . S
Co413 O421 2.074 . S
Co413 O424 2.093 . S
Co413 O437 2.097 . S
Co413 N454 2.151 . S
Co413 N462 2.214 . S
Co414 O415 2.160 . S
Co414 O420 2.058 . S
Co414 O430 2.057 . S
Co414 O445 2.037 . S
Co414 N449 2.145 . S
Co414 N470 2.257 . S
O415 Co413 2.143 . S
O415 Co414 2.160 . S
C416 O417 1.278 . S
C416 O424 1.224 . S
O417 C416 1.278 . S
C418 O419 1.245 . S
C418 O430 1.232 . S
O419 C418 1.245 . S
O420 Co414 2.058 . S
O420 C446 1.269 . S
O421 Co413 2.074 . S
O421 C446 1.257 . S
H422 C447 0.930 . S
H423 C453 0.930 . S
O424 Co413 2.093 . S
O424 C416 1.224 . S
H425 C457 0.929 . S
H426 C459 0.930 . S
H427 C460 0.930 . S
H428 C458 0.929 . S
H429 C461 0.928 . S
O430 Co414 2.057 . S
O430 C418 1.232 . S
H431 C450 0.929 . S
H432 C451 0.929 . S
H433 C463 0.931 . S
H434 C455 0.929 . S
H435 C464 0.930 . S
H436 C456 0.931 . S
O437 Co413 2.097 . S
O437 C465 1.214 . S
H438 C466 0.929 . S
H439 C467 0.929 . S
H440 C468 0.930 . S
H441 C469 0.929 . S
H442 C471 0.930 . S
H443 C448 0.930 . S
H444 C452 0.930 . S
O445 Co414 2.037 . S
O445 C465 1.234 . S
C446 O420 1.269 . S
C446 O421 1.257 . S
C447 H422 0.930 . S
C447 C450 1.388 . S
C447 C452 1.418 . S
C448 H443 0.930 . S
C448 C451 1.404 . S
C448 C452 1.353 . S
N449 Co414 2.145 . S
N449 C450 1.397 . S
N449 C451 1.334 . S
C450 H431 0.929 . S
C450 C447 1.388 . S
C450 N449 1.397 . S
C451 H432 0.929 . S
C451 C448 1.404 . S
C451 N449 1.334 . S
C452 H444 0.930 . S
C452 C447 1.418 . S
C452 C448 1.353 . S
C453 H423 0.930 . S
C453 N454 1.330 . S
C453 C455 1.446 . S
N454 Co413 2.151 . S
N454 C453 1.330 . S
N454 C458 1.418 . S
C455 H434 0.929 . S
C455 C453 1.446 . S
C455 C456 1.332 . S
C456 H436 0.931 . S
C456 C455 1.332 . S
C456 C457 1.267 . S
C457 H425 0.929 . S
C457 C456 1.267 . S
C457 C458 1.251 . S
C458 H428 0.929 . S
C458 N454 1.418 . S
C458 C457 1.251 . S
C459 H426 0.930 . S
C459 C461 1.406 . S
C459 C464 1.261 . S
C460 H427 0.930 . S
C460 N462 1.325 . S
C460 C463 1.357 . S
C461 H429 0.928 . S
C461 C459 1.406 . S
C461 N462 1.261 . S
N462 Co413 2.214 . S
N462 C460 1.325 . S
N462 C461 1.261 . S
C463 H433 0.931 . S
C463 C460 1.357 . S
C463 C464 1.312 . S
C464 H435 0.930 . S
C464 C459 1.261 . S
C464 C463 1.312 . S
C465 O437 1.214 . S
C465 O445 1.234 . S
C466 H438 0.929 . S
C466 C469 1.391 . S
C466 C471 1.391 . S
C467 H439 0.929 . S
C467 C468 1.390 . S
C467 N470 1.391 . S
C468 H440 0.930 . S
C468 C467 1.390 . S
C468 C469 1.392 . S
C469 H441 0.929 . S
C469 C466 1.391 . S
C469 C468 1.392 . S
N470 Co414 2.257 . S
N470 C467 1.391 . S
N470 C471 1.388 . S
C471 H442 0.930 . S
C471 C466 1.391 . S
C471 N470 1.388 . S
Co472 O474 2.143 . S
Co472 O480 2.074 . S
Co472 O483 2.093 . S
Co472 O496 2.097 . S
Co472 N513 2.151 . S
Co472 N521 2.214 . S
Co473 O474 2.160 . S
Co473 O479 2.058 . S
Co473 O489 2.057 . S
Co473 O504 2.037 . S
Co473 N508 2.145 . S
Co473 N529 2.257 . S
O474 Co472 2.143 . S
O474 Co473 2.160 . S
C475 O476 1.278 . S
C475 O483 1.224 . S
O476 C475 1.278 . S
C477 O478 1.245 . S
C477 O489 1.232 . S
O478 C477 1.245 . S
O479 Co473 2.058 . S
O479 C505 1.269 . S
O480 Co472 2.074 . S
O480 C505 1.257 . S
H481 C506 0.930 . S
H482 C512 0.930 . S
O483 Co472 2.093 . S
O483 C475 1.224 . S
H484 C516 0.929 1_556 S
H485 C518 0.930 . S
H486 C519 0.907 1_554 S
H487 C517 0.929 . S
H488 C520 0.928 . S
O489 Co473 2.057 . S
O489 C477 1.232 . S
H490 C509 0.929 . S
H491 C510 0.929 . S
H492 C522 0.931 . S
H493 C514 0.929 . S
H494 C523 0.930 . S
H495 C515 0.931 1_556 S
O496 Co472 2.097 . S
O496 C524 1.214 . S
H497 C525 0.929 . S
H498 C526 0.929 . S
H499 C527 0.930 . S
H500 C528 0.929 . S
H501 C530 0.930 . S
H502 C507 0.930 . S
H503 C511 0.930 . S
O504 Co473 2.037 . S
O504 C524 1.234 . S
C505 O479 1.269 . S
C505 O480 1.257 . S
C506 H481 0.930 . S
C506 C509 1.388 . S
C506 C511 1.418 . S
C507 H502 0.930 . S
C507 C510 1.404 . S
C507 C511 1.353 . S
N508 Co473 2.145 . S
N508 C509 1.397 . S
N508 C510 1.334 . S
C509 H490 0.929 . S
C509 C506 1.388 . S
C509 N508 1.397 . S
C510 H491 0.929 . S
C510 C507 1.404 . S
C510 N508 1.334 . S
C511 H503 0.930 . S
C511 C506 1.418 . S
C511 C507 1.353 . S
C512 H482 0.930 . S
C512 N513 1.330 . S
C512 C514 1.446 . S
N513 Co472 2.151 . S
N513 C512 1.330 . S
N513 C517 1.418 . S
C514 H493 0.929 . S
C514 C512 1.446 . S
C514 C515 1.332 . S
C515 H495 0.931 1_554 S
C515 C514 1.332 . S
C515 C516 1.267 . S
C516 H484 0.929 1_554 S
C516 C515 1.267 . S
C516 C517 1.251 . S
C517 H487 0.929 . S
C517 N513 1.418 . S
C517 C516 1.251 . S
C518 H485 0.930 . S
C518 C520 1.406 . S
C518 C523 1.261 . S
C519 H486 0.907 1_556 S
C519 N521 1.321 1_556 S
C519 C522 1.383 . S
C520 H488 0.928 . S
C520 C518 1.406 . S
C520 N521 1.261 1_556 S
N521 Co472 2.214 . S
N521 C519 1.321 1_554 S
N521 C520 1.261 1_554 S
C522 H492 0.931 . S
C522 C519 1.383 . S
C522 C523 1.312 . S
C523 H494 0.930 . S
C523 C518 1.261 . S
C523 C522 1.312 . S
C524 O496 1.214 . S
C524 O504 1.234 . S
C525 H497 0.929 . S
C525 C528 1.391 . S
C525 C530 1.391 . S
C526 H498 0.929 . S
C526 C527 1.390 . S
C526 N529 1.391 . S
C527 H499 0.930 . S
C527 C526 1.390 . S
C527 C528 1.392 . S
C528 H500 0.929 . S
C528 C525 1.391 . S
C528 C527 1.392 . S
N529 Co473 2.257 . S
N529 C526 1.391 . S
N529 C530 1.388 . S
C530 H501 0.930 . S
C530 C525 1.391 . S
C530 N529 1.388 . S
Co531 O533 2.143 . S
Co531 O539 2.074 . S
Co531 O542 2.093 . S
Co531 O555 2.097 . S
Co531 N572 2.151 . S
Co531 N580 2.214 . S
Co532 O533 2.160 . S
Co532 O538 2.058 . S
Co532 O548 2.057 . S
Co532 O563 2.037 . S
Co532 N567 2.145 . S
Co532 N588 2.257 . S
O533 Co531 2.143 . S
O533 Co532 2.160 . S
C534 O535 1.278 . S
C534 O542 1.224 . S
O535 C534 1.278 . S
C536 O537 1.245 . S
C536 O548 1.232 . S
O537 C536 1.245 . S
O538 Co532 2.058 . S
O538 C564 1.269 . S
O539 Co531 2.074 . S
O539 C564 1.257 . S
H540 C565 0.930 . S
H541 C571 0.930 . S
O542 Co531 2.093 . S
O542 C534 1.224 . S
H543 C575 0.929 . S
H544 C577 0.930 . S
H545 C578 0.930 . S
H546 C576 0.929 . S
H547 C579 0.928 . S
O548 Co532 2.057 . S
O548 C536 1.232 . S
H549 C568 0.929 . S
H550 C569 0.929 . S
H551 C581 0.931 . S
H552 C573 0.929 . S
H553 C582 0.930 . S
H554 C574 0.931 . S
O555 Co531 2.097 . S
O555 C583 1.214 . S
H556 C584 0.929 . S
H557 C585 0.929 . S
H558 C586 0.930 . S
H559 C587 0.929 . S
H560 C589 0.930 . S
H561 C566 0.930 . S
H562 C570 0.930 . S
O563 Co532 2.037 . S
O563 C583 1.234 . S
C564 O538 1.269 . S
C564 O539 1.257 . S
C565 H540 0.930 . S
C565 C568 1.388 . S
C565 C570 1.418 . S
C566 H561 0.930 . S
C566 C569 1.404 . S
C566 C570 1.353 . S
N567 Co532 2.145 . S
N567 C568 1.397 . S
N567 C569 1.334 . S
C568 H549 0.929 . S
C568 C565 1.388 . S
C568 N567 1.397 . S
C569 H550 0.929 . S
C569 C566 1.404 . S
C569 N567 1.334 . S
C570 H562 0.930 . S
C570 C565 1.418 . S
C570 C566 1.353 . S
C571 H541 0.930 . S
C571 N572 1.330 . S
C571 C573 1.446 . S
N572 Co531 2.151 . S
N572 C571 1.330 . S
N572 C576 1.418 . S
C573 H552 0.929 . S
C573 C571 1.446 . S
C573 C574 1.332 . S
C574 H554 0.931 . S
C574 C573 1.332 . S
C574 C575 1.267 . S
C575 H543 0.929 . S
C575 C574 1.267 . S
C575 C576 1.251 . S
C576 H546 0.929 . S
C576 N572 1.418 . S
C576 C575 1.251 . S
C577 H544 0.930 . S
C577 C579 1.406 . S
C577 C582 1.261 . S
C578 H545 0.930 . S
C578 N580 1.325 . S
C578 C581 1.357 . S
C579 H547 0.928 . S
C579 C577 1.406 . S
C579 N580 1.261 . S
N580 Co531 2.214 . S
N580 C578 1.325 . S
N580 C579 1.261 . S
C581 H551 0.931 . S
C581 C578 1.357 . S
C581 C582 1.312 . S
C582 H553 0.930 . S
C582 C577 1.261 . S
C582 C581 1.312 . S
C583 O555 1.214 . S
C583 O563 1.234 . S
C584 H556 0.929 . S
C584 C587 1.391 . S
C584 C589 1.391 . S
C585 H557 0.929 . S
C585 C586 1.390 . S
C585 N588 1.391 . S
C586 H558 0.930 . S
C586 C585 1.390 . S
C586 C587 1.392 . S
C587 H559 0.929 . S
C587 C584 1.391 . S
C587 C586 1.392 . S
N588 Co532 2.257 . S
N588 C585 1.391 . S
N588 C589 1.388 . S
C589 H560 0.930 . S
C589 C584 1.391 . S
C589 N588 1.388 . S
Co590 O592 2.143 . S
Co590 O598 2.074 . S
Co590 O601 2.093 . S
Co590 O614 2.097 . S
Co590 N631 2.151 . S
Co590 N639 2.214 . S
Co591 O592 2.160 . S
Co591 O597 2.058 . S
Co591 O607 2.057 . S
Co591 O622 2.037 . S
Co591 N626 2.145 . S
Co591 N647 2.257 . S
O592 Co590 2.143 . S
O592 Co591 2.160 . S
C593 O594 1.278 . S
C593 O601 1.224 . S
O594 C593 1.278 . S
C595 O596 1.245 . S
C595 O607 1.232 . S
O596 C595 1.245 . S
O597 Co591 2.058 . S
O597 C623 1.269 . S
O598 Co590 2.074 . S
O598 C623 1.257 . S
H599 C624 0.930 . S
H600 C630 0.930 . S
O601 Co590 2.093 . S
O601 C593 1.224 . S
H602 C634 0.929 1_554 S
H603 C636 0.930 . S
H604 C637 0.907 1_556 S
H605 C635 0.929 . S
H606 C638 0.928 . S
O607 Co591 2.057 . S
O607 C595 1.232 . S
H608 C627 0.929 . S
H609 C628 0.929 . S
H610 C640 0.931 . S
H611 C632 0.929 . S
H612 C641 0.930 . S
H613 C633 0.931 1_554 S
O614 Co590 2.097 . S
O614 C642 1.214 . S
H615 C643 0.929 . S
H616 C644 0.929 . S
H617 C645 0.930 . S
H618 C646 0.929 . S
H619 C648 0.930 . S
H620 C625 0.930 . S
H621 C629 0.930 . S
O622 Co591 2.037 . S
O622 C642 1.234 . S
C623 O597 1.269 . S
C623 O598 1.257 . S
C624 H599 0.930 . S
C624 C627 1.388 . S
C624 C629 1.418 . S
C625 H620 0.930 . S
C625 C628 1.404 . S
C625 C629 1.353 . S
N626 Co591 2.145 . S
N626 C627 1.397 . S
N626 C628 1.334 . S
C627 H608 0.929 . S
C627 C624 1.388 . S
C627 N626 1.397 . S
C628 H609 0.929 . S
C628 C625 1.404 . S
C628 N626 1.334 . S
C629 H621 0.930 . S
C629 C624 1.418 . S
C629 C625 1.353 . S
C630 H600 0.930 . S
C630 N631 1.330 . S
C630 C632 1.446 . S
N631 Co590 2.151 . S
N631 C630 1.330 . S
N631 C635 1.418 . S
C632 H611 0.929 . S
C632 C630 1.446 . S
C632 C633 1.332 . S
C633 H613 0.931 1_556 S
C633 C632 1.332 . S
C633 C634 1.267 . S
C634 H602 0.929 1_556 S
C634 C633 1.267 . S
C634 C635 1.251 . S
C635 H605 0.929 . S
C635 N631 1.418 . S
C635 C634 1.251 . S
C636 H603 0.930 . S
C636 C638 1.406 . S
C636 C641 1.261 . S
C637 H604 0.907 1_554 S
C637 N639 1.321 1_554 S
C637 C640 1.383 . S
C638 H606 0.928 . S
C638 C636 1.406 . S
C638 N639 1.261 1_554 S
N639 Co590 2.214 . S
N639 C637 1.321 1_556 S
N639 C638 1.261 1_556 S
C640 H610 0.931 . S
C640 C637 1.383 . S
C640 C641 1.312 . S
C641 H612 0.930 . S
C641 C636 1.261 . S
C641 C640 1.312 . S
C642 O614 1.214 . S
C642 O622 1.234 . S
C643 H615 0.929 . S
C643 C646 1.391 . S
C643 C648 1.391 . S
C644 H616 0.929 . S
C644 C645 1.390 . S
C644 N647 1.391 . S
C645 H617 0.930 . S
C645 C644 1.390 . S
C645 C646 1.392 . S
C646 H618 0.929 . S
C646 C643 1.391 . S
C646 C645 1.392 . S
N647 Co591 2.257 . S
N647 C644 1.391 . S
N647 C648 1.388 . S
C648 H619 0.930 . S
C648 C643 1.391 . S
C648 N647 1.388 . S
Co649 O651 2.143 . S
Co649 O657 2.074 . S
Co649 O660 2.093 . S
Co649 O673 2.097 . S
Co649 N690 2.151 . S
Co649 N698 2.214 . S
Co650 O651 2.160 . S
Co650 O656 2.058 . S
Co650 O666 2.057 . S
Co650 O681 2.037 . S
Co650 N685 2.145 . S
Co650 N706 2.257 . S
O651 Co649 2.143 . S
O651 Co650 2.160 . S
C652 O653 1.278 . S
C652 O660 1.224 . S
O653 C652 1.278 . S
C654 O655 1.245 . S
C654 O666 1.232 . S
O655 C654 1.245 . S
O656 Co650 2.058 . S
O656 C682 1.269 . S
O657 Co649 2.074 . S
O657 C682 1.257 . S
H658 C683 0.930 . S
H659 C689 0.930 . S
O660 Co649 2.093 . S
O660 C652 1.224 . S
H661 C693 0.929 . S
H662 C695 0.930 . S
H663 C696 0.930 . S
H664 C694 0.929 . S
H665 C697 0.928 . S
O666 Co650 2.057 . S
O666 C654 1.232 . S
H667 C686 0.929 . S
H668 C687 0.929 . S
H669 C699 0.931 . S
H670 C691 0.929 . S
H671 C700 0.930 . S
H672 C692 0.931 . S
O673 Co649 2.097 . S
O673 C701 1.214 . S
H674 C702 0.929 . S
H675 C703 0.929 . S
H676 C704 0.930 . S
H677 C705 0.929 . S
H678 C707 0.930 . S
H679 C684 0.930 . S
H680 C688 0.930 . S
O681 Co650 2.037 . S
O681 C701 1.234 . S
C682 O656 1.269 . S
C682 O657 1.257 . S
C683 H658 0.930 . S
C683 C686 1.388 . S
C683 C688 1.418 . S
C684 H679 0.930 . S
C684 C687 1.404 . S
C684 C688 1.353 . S
N685 Co650 2.145 . S
N685 C686 1.397 . S
N685 C687 1.334 . S
C686 H667 0.929 . S
C686 C683 1.388 . S
C686 N685 1.397 . S
C687 H668 0.929 . S
C687 C684 1.404 . S
C687 N685 1.334 . S
C688 H680 0.930 . S
C688 C683 1.418 . S
C688 C684 1.353 . S
C689 H659 0.930 . S
C689 N690 1.330 . S
C689 C691 1.446 . S
N690 Co649 2.151 . S
N690 C689 1.330 . S
N690 C694 1.418 . S
C691 H670 0.929 . S
C691 C689 1.446 . S
C691 C692 1.332 . S
C692 H672 0.931 . S
C692 C691 1.332 . S
C692 C693 1.267 . S
C693 H661 0.929 . S
C693 C692 1.267 . S
C693 C694 1.251 . S
C694 H664 0.929 . S
C694 N690 1.418 . S
C694 C693 1.251 . S
C695 H662 0.930 . S
C695 C697 1.406 . S
C695 C700 1.261 . S
C696 H663 0.930 . S
C696 N698 1.325 . S
C696 C699 1.357 . S
C697 H665 0.928 . S
C697 C695 1.406 . S
C697 N698 1.261 . S
N698 Co649 2.214 . S
N698 C696 1.325 . S
N698 C697 1.261 . S
C699 H669 0.931 . S
C699 C696 1.357 . S
C699 C700 1.312 . S
C700 H671 0.930 . S
C700 C695 1.261 . S
C700 C699 1.312 . S
C701 O673 1.214 . S
C701 O681 1.234 . S
C702 H674 0.929 . S
C702 C705 1.391 . S
C702 C707 1.391 . S
C703 H675 0.929 . S
C703 C704 1.390 . S
C703 N706 1.391 . S
C704 H676 0.930 . S
C704 C703 1.390 . S
C704 C705 1.392 . S
C705 H677 0.929 . S
C705 C702 1.391 . S
C705 C704 1.392 . S
N706 Co650 2.257 . S
N706 C703 1.391 . S
N706 C707 1.388 . S
C707 H678 0.930 . S
C707 C702 1.391 . S
C707 N706 1.388 . S
Co708 O710 2.143 . S
Co708 O716 2.074 . S
Co708 O719 2.093 . S
Co708 O732 2.097 . S
Co708 N749 2.151 . S
Co708 N757 2.214 . S
Co709 O710 2.160 . S
Co709 O715 2.058 . S
Co709 O725 2.057 . S
Co709 O740 2.037 . S
Co709 N744 2.145 . S
Co709 N765 2.257 . S
O710 Co708 2.143 . S
O710 Co709 2.160 . S
C711 O712 1.278 . S
C711 O719 1.224 . S
O712 C711 1.278 . S
C713 O714 1.245 . S
C713 O725 1.232 . S
O714 C713 1.245 . S
O715 Co709 2.058 . S
O715 C741 1.269 . S
O716 Co708 2.074 . S
O716 C741 1.257 . S
H717 C742 0.930 . S
H718 C748 0.930 . S
O719 Co708 2.093 . S
O719 C711 1.224 . S
H720 C752 0.929 . S
H721 C754 0.930 . S
H722 C755 0.930 . S
H723 C753 0.929 . S
H724 C756 0.928 . S
O725 Co709 2.057 . S
O725 C713 1.232 . S
H726 C745 0.950 . S
H727 C746 0.929 . S
H728 C758 0.931 . S
H729 C750 0.929 . S
H730 C759 0.930 . S
H731 C751 0.931 . S
O732 Co708 2.097 . S
O732 C760 1.214 . S
H733 C761 0.929 . S
H734 C762 0.929 . S
H735 C763 0.930 . S
H736 C764 0.929 . S
H737 C766 0.930 . S
H738 C743 0.930 . S
H739 C747 0.930 . S
O740 Co709 2.037 . S
O740 C760 1.234 . S
C741 O715 1.269 . S
C741 O716 1.257 . S
C742 H717 0.930 . S
C742 C745 1.358 1_554 S
C742 C747 1.418 . S
C743 H738 0.930 . S
C743 C746 1.404 . S
C743 C747 1.353 . S
N744 Co709 2.145 . S
N744 C745 1.407 . S
N744 C746 1.334 1_556 S
C745 H726 0.950 . S
C745 C742 1.358 1_556 S
C745 N744 1.407 . S
C746 H727 0.929 . S
C746 C743 1.404 . S
C746 N744 1.334 1_554 S
C747 H739 0.930 . S
C747 C742 1.418 . S
C747 C743 1.353 . S
C748 H718 0.930 . S
C748 N749 1.330 . S
C748 C750 1.446 . S
N749 Co708 2.151 . S
N749 C748 1.330 . S
N749 C753 1.418 . S
C750 H729 0.929 . S
C750 C748 1.446 . S
C750 C751 1.332 . S
C751 H731 0.931 . S
C751 C750 1.332 . S
C751 C752 1.267 . S
C752 H720 0.929 . S
C752 C751 1.267 . S
C752 C753 1.251 . S
C753 H723 0.929 . S
C753 N749 1.418 . S
C753 C752 1.251 . S
C754 H721 0.930 . S
C754 C756 1.406 . S
C754 C759 1.261 . S
C755 H722 0.930 . S
C755 N757 1.325 . S
C755 C758 1.357 . S
C756 H724 0.928 . S
C756 C754 1.406 . S
C756 N757 1.261 . S
N757 Co708 2.214 . S
N757 C755 1.325 . S
N757 C756 1.261 . S
C758 H728 0.931 . S
C758 C755 1.357 . S
C758 C759 1.312 . S
C759 H730 0.930 . S
C759 C754 1.261 . S
C759 C758 1.312 . S
C760 O732 1.214 . S
C760 O740 1.234 . S
C761 H733 0.929 . S
C761 C764 1.391 . S
C761 C766 1.391 . S
C762 H734 0.929 . S
C762 C763 1.390 . S
C762 N765 1.391 . S
C763 H735 0.930 . S
C763 C762 1.390 . S
C763 C764 1.392 . S
C764 H736 0.929 . S
C764 C761 1.391 . S
C764 C763 1.392 . S
N765 Co709 2.257 . S
N765 C762 1.391 . S
N765 C766 1.388 . S
C766 H737 0.930 . S
C766 C761 1.391 . S
C766 N765 1.388 . S
Co767 O769 2.143 . S
Co767 O775 2.074 . S
Co767 O778 2.093 . S
Co767 O791 2.097 . S
Co767 N808 2.151 . S
Co767 N816 2.214 . S
Co768 O769 2.160 . S
Co768 O774 2.058 . S
Co768 O784 2.057 . S
Co768 O799 2.037 . S
Co768 N803 2.145 . S
Co768 N824 2.257 . S
O769 Co767 2.143 . S
O769 Co768 2.160 . S
C770 O771 1.278 . S
C770 O778 1.224 . S
O771 C770 1.278 . S
C772 O773 1.245 . S
C772 O784 1.232 . S
O773 C772 1.245 . S
O774 Co768 2.058 . S
O774 C800 1.269 . S
O775 Co767 2.074 . S
O775 C800 1.257 . S
H776 C801 0.930 . S
H777 C807 0.930 . S
O778 Co767 2.093 . S
O778 C770 1.224 . S
H779 C811 0.929 . S
H780 C813 0.930 . S
H781 C814 0.930 . S
H782 C812 0.929 . S
H783 C815 0.928 . S
O784 Co768 2.057 . S
O784 C772 1.232 . S
H785 C804 0.929 . S
H786 C805 0.929 . S
H787 C817 0.931 . S
H788 C809 0.929 . S
H789 C818 0.930 . S
H790 C810 0.931 . S
O791 Co767 2.097 . S
O791 C819 1.214 . S
H792 C820 0.929 . S
H793 C821 0.929 . S
H794 C822 0.930 . S
H795 C823 0.929 . S
H796 C825 0.930 . S
H797 C802 0.930 . S
H798 C806 0.930 . S
O799 Co768 2.037 . S
O799 C819 1.234 . S
C800 O774 1.269 . S
C800 O775 1.257 . S
C801 H776 0.930 . S
C801 C804 1.388 . S
C801 C806 1.418 . S
C802 H797 0.930 . S
C802 C805 1.404 . S
C802 C806 1.353 . S
N803 Co768 2.145 . S
N803 C804 1.397 . S
N803 C805 1.334 . S
C804 H785 0.929 . S
C804 C801 1.388 . S
C804 N803 1.397 . S
C805 H786 0.929 . S
C805 C802 1.404 . S
C805 N803 1.334 . S
C806 H798 0.930 . S
C806 C801 1.418 . S
C806 C802 1.353 . S
C807 H777 0.930 . S
C807 N808 1.330 . S
C807 C809 1.446 . S
N808 Co767 2.151 . S
N808 C807 1.330 . S
N808 C812 1.418 . S
C809 H788 0.929 . S
C809 C807 1.446 . S
C809 C810 1.332 . S
C810 H790 0.931 . S
C810 C809 1.332 . S
C810 C811 1.267 . S
C811 H779 0.929 . S
C811 C810 1.267 . S
C811 C812 1.251 . S
C812 H782 0.929 . S
C812 N808 1.418 . S
C812 C811 1.251 . S
C813 H780 0.930 . S
C813 C815 1.406 . S
C813 C818 1.261 . S
C814 H781 0.930 . S
C814 N816 1.325 . S
C814 C817 1.357 . S
C815 H783 0.928 . S
C815 C813 1.406 . S
C815 N816 1.261 . S
N816 Co767 2.214 . S
N816 C814 1.325 . S
N816 C815 1.261 . S
C817 H787 0.931 . S
C817 C814 1.357 . S
C817 C818 1.312 . S
C818 H789 0.930 . S
C818 C813 1.261 . S
C818 C817 1.312 . S
C819 O791 1.214 . S
C819 O799 1.234 . S
C820 H792 0.929 . S
C820 C823 1.391 . S
C820 C825 1.391 . S
C821 H793 0.929 . S
C821 C822 1.390 . S
C821 N824 1.391 . S
C822 H794 0.930 . S
C822 C821 1.390 . S
C822 C823 1.392 . S
C823 H795 0.929 . S
C823 C820 1.391 . S
C823 C822 1.392 . S
N824 Co768 2.257 . S
N824 C821 1.391 . S
N824 C825 1.388 . S
C825 H796 0.930 . S
C825 C820 1.391 . S
C825 N824 1.388 . S
Co826 O828 2.143 . S
Co826 O834 2.074 . S
Co826 O837 2.093 . S
Co826 O850 2.097 . S
Co826 N867 2.151 . S
Co826 N875 2.214 . S
Co827 O828 2.160 . S
Co827 O833 2.058 . S
Co827 O843 2.057 . S
Co827 O858 2.037 . S
Co827 N862 2.145 . S
Co827 N883 2.257 . S
O828 Co826 2.143 . S
O828 Co827 2.160 . S
C829 O830 1.278 . S
C829 O837 1.224 . S
O830 C829 1.278 . S
C831 O832 1.245 . S
C831 O843 1.232 . S
O832 C831 1.245 . S
O833 Co827 2.058 . S
O833 C859 1.269 . S
O834 Co826 2.074 . S
O834 C859 1.257 . S
H835 C860 0.930 . S
H836 C866 0.930 . S
O837 Co826 2.093 . S
O837 C829 1.224 . S
H838 C870 0.929 . S
H839 C872 0.930 . S
H840 C873 0.930 . S
H841 C871 0.929 . S
H842 C874 0.928 . S
O843 Co827 2.057 . S
O843 C831 1.232 . S
H844 C863 0.950 . S
H845 C864 0.929 . S
H846 C876 0.931 . S
H847 C868 0.929 . S
H848 C877 0.930 . S
H849 C869 0.931 . S
O850 Co826 2.097 . S
O850 C878 1.214 . S
H851 C879 0.929 . S
H852 C880 0.929 . S
H853 C881 0.930 . S
H854 C882 0.929 . S
H855 C884 0.930 . S
H856 C861 0.930 . S
H857 C865 0.930 . S
O858 Co827 2.037 . S
O858 C878 1.234 . S
C859 O833 1.269 . S
C859 O834 1.257 . S
C860 H835 0.930 . S
C860 C863 1.358 1_556 S
C860 C865 1.418 . S
C861 H856 0.930 . S
C861 C864 1.404 . S
C861 C865 1.353 . S
N862 Co827 2.145 . S
N862 C863 1.407 . S
N862 C864 1.334 1_554 S
C863 H844 0.950 . S
C863 C860 1.358 1_554 S
C863 N862 1.407 . S
C864 H845 0.929 . S
C864 C861 1.404 . S
C864 N862 1.334 1_556 S
C865 H857 0.930 . S
C865 C860 1.418 . S
C865 C861 1.353 . S
C866 H836 0.930 . S
C866 N867 1.330 . S
C866 C868 1.446 . S
N867 Co826 2.151 . S
N867 C866 1.330 . S
N867 C871 1.418 . S
C868 H847 0.929 . S
C868 C866 1.446 . S
C868 C869 1.332 . S
C869 H849 0.931 . S
C869 C868 1.332 . S
C869 C870 1.267 . S
C870 H838 0.929 . S
C870 C869 1.267 . S
C870 C871 1.251 . S
C871 H841 0.929 . S
C871 N867 1.418 . S
C871 C870 1.251 . S
C872 H839 0.930 . S
C872 C874 1.406 . S
C872 C877 1.261 . S
C873 H840 0.930 . S
C873 N875 1.325 . S
C873 C876 1.357 . S
C874 H842 0.928 . S
C874 C872 1.406 . S
C874 N875 1.261 . S
N875 Co826 2.214 . S
N875 C873 1.325 . S
N875 C874 1.261 . S
C876 H846 0.931 . S
C876 C873 1.357 . S
C876 C877 1.312 . S
C877 H848 0.930 . S
C877 C872 1.261 . S
C877 C876 1.312 . S
C878 O850 1.214 . S
C878 O858 1.234 . S
C879 H851 0.929 . S
C879 C882 1.391 . S
C879 C884 1.391 . S
C880 H852 0.929 . S
C880 C881 1.390 . S
C880 N883 1.391 . S
C881 H853 0.930 . S
C881 C880 1.390 . S
C881 C882 1.392 . S
C882 H854 0.929 . S
C882 C879 1.391 . S
C882 C881 1.392 . S
N883 Co827 2.257 . S
N883 C880 1.391 . S
N883 C884 1.388 . S
C884 H855 0.930 . S
C884 C879 1.391 . S
C884 N883 1.388 . S
Co885 O887 2.143 . S
Co885 O893 2.074 . S
Co885 O896 2.093 . S
Co885 O909 2.097 . S
Co885 N926 2.151 . S
Co885 N934 2.214 . S
Co886 O887 2.160 . S
Co886 O892 2.058 . S
Co886 O902 2.057 . S
Co886 O917 2.037 . S
Co886 N921 2.145 . S
Co886 N942 2.257 . S
O887 Co885 2.143 . S
O887 Co886 2.160 . S
C888 O889 1.278 . S
C888 O896 1.224 . S
O889 C888 1.278 . S
C890 O891 1.245 . S
C890 O902 1.232 . S
O891 C890 1.245 . S
O892 Co886 2.058 . S
O892 C918 1.269 . S
O893 Co885 2.074 . S
O893 C918 1.257 . S
H894 C919 0.930 . S
H895 C925 0.930 . S
O896 Co885 2.093 . S
O896 C888 1.224 . S
H897 C929 0.929 . S
H898 C931 0.930 . S
H899 C932 0.930 . S
H900 C930 0.929 . S
H901 C933 0.928 . S
O902 Co886 2.057 . S
O902 C890 1.232 . S
H903 C922 0.929 . S
H904 C923 0.929 . S
H905 C935 0.931 . S
H906 C927 0.929 . S
H907 C936 0.930 . S
H908 C928 0.931 . S
O909 Co885 2.097 . S
O909 C937 1.214 . S
H910 C938 0.929 . S
H911 C939 0.929 . S
H912 C940 0.930 . S
H913 C941 0.929 . S
H914 C943 0.930 . S
H915 C920 0.930 . S
H916 C924 0.930 . S
O917 Co886 2.037 . S
O917 C937 1.234 . S
C918 O892 1.269 . S
C918 O893 1.257 . S
C919 H894 0.930 . S
C919 C922 1.388 . S
C919 C924 1.418 . S
C920 H915 0.930 . S
C920 C923 1.404 . S
C920 C924 1.353 . S
N921 Co886 2.145 . S
N921 C922 1.397 . S
N921 C923 1.334 . S
C922 H903 0.929 . S
C922 C919 1.388 . S
C922 N921 1.397 . S
C923 H904 0.929 . S
C923 C920 1.404 . S
C923 N921 1.334 . S
C924 H916 0.930 . S
C924 C919 1.418 . S
C924 C920 1.353 . S
C925 H895 0.930 . S
C925 N926 1.330 . S
C925 C927 1.446 . S
N926 Co885 2.151 . S
N926 C925 1.330 . S
N926 C930 1.418 . S
C927 H906 0.929 . S
C927 C925 1.446 . S
C927 C928 1.332 . S
C928 H908 0.931 . S
C928 C927 1.332 . S
C928 C929 1.267 . S
C929 H897 0.929 . S
C929 C928 1.267 . S
C929 C930 1.251 . S
C930 H900 0.929 . S
C930 N926 1.418 . S
C930 C929 1.251 . S
C931 H898 0.930 . S
C931 C933 1.406 . S
C931 C936 1.261 . S
C932 H899 0.930 . S
C932 N934 1.325 . S
C932 C935 1.357 . S
C933 H901 0.928 . S
C933 C931 1.406 . S
C933 N934 1.261 . S
N934 Co885 2.214 . S
N934 C932 1.325 . S
N934 C933 1.261 . S
C935 H905 0.931 . S
C935 C932 1.357 . S
C935 C936 1.312 . S
C936 H907 0.930 . S
C936 C931 1.261 . S
C936 C935 1.312 . S
C937 O909 1.214 . S
C937 O917 1.234 . S
C938 H910 0.929 . S
C938 C941 1.391 . S
C938 C943 1.391 . S
C939 H911 0.929 . S
C939 C940 1.390 . S
C939 N942 1.391 . S
C940 H912 0.930 . S
C940 C939 1.390 . S
C940 C941 1.392 . S
C941 H913 0.929 . S
C941 C938 1.391 . S
C941 C940 1.392 . S
N942 Co886 2.257 . S
N942 C939 1.391 . S
N942 C943 1.388 . S
C943 H914 0.930 . S
C943 C938 1.391 . S
C943 N942 1.388 . S
H944 C956 0.930 . S
H945 C958 0.930 . S
H946 C959 0.952 . S
H947 C963 0.959 . S
H948 C963 0.959 . S
H949 C963 0.961 . S
H950 C964 0.960 . S
H951 C964 0.961 . S
H952 C964 0.959 . S
H953 C967 0.929 . S
H954 C968 0.931 . S
H955 C970 0.930 . S
C956 H944 0.930 . S
C956 C957 1.399 . S
C956 C961 1.399 . S
C957 C956 1.399 . S
C957 C958 1.376 . S
C958 H945 0.930 . S
C958 C957 1.376 . S
C958 C959 1.373 1_554 S
C959 H946 0.952 . S
C959 C958 1.373 1_556 S
C959 C960 1.383 1_556 S
C960 C959 1.383 1_554 S
C960 C961 1.394 . S
C960 C966 1.465 1_554 S
C961 C956 1.399 . S
C961 C960 1.394 . S
C961 C962 1.516 . S
C962 C961 1.516 . S
C962 C963 1.502 . S
C962 C964 1.561 . S
C962 C965 1.526 . S
C963 H947 0.959 . S
C963 H948 0.959 . S
C963 H949 0.961 . S
C963 C962 1.502 . S
C964 H950 0.960 . S
C964 H951 0.961 . S
C964 H952 0.959 . S
C964 C962 1.561 . S
C965 C962 1.526 . S
C965 C966 1.396 1_554 S
C965 C970 1.390 . S
C966 C960 1.465 1_556 S
C966 C965 1.396 1_556 S
C966 C967 1.399 . S
C967 H953 0.929 . S
C967 C966 1.399 . S
C967 C968 1.385 . S
C968 H954 0.931 . S
C968 C967 1.385 . S
C968 C969 1.389 . S
C969 C968 1.389 . S
C969 C970 1.387 1_556 S
C970 H955 0.930 . S
C970 C965 1.390 . S
C970 C969 1.387 1_554 S
H971 C983 0.930 . S
H972 C985 0.930 . S
H973 C986 0.930 . S
H974 C990 0.959 . S
H975 C990 0.959 . S
H976 C990 0.961 . S
H977 C991 0.960 . S
H978 C991 0.961 . S
H979 C991 0.959 . S
H980 C994 0.929 . S
H981 C995 0.931 . S
H982 C997 0.930 . S
C983 H971 0.930 . S
C983 C984 1.399 . S
C983 C988 1.399 . S
C984 C983 1.399 . S
C984 C985 1.376 . S
C985 H972 0.930 . S
C985 C984 1.376 . S
C985 C986 1.388 . S
C986 H973 0.930 . S
C986 C985 1.388 . S
C986 C987 1.390 . S
C987 C986 1.390 . S
C987 C988 1.394 . S
C987 C993 1.465 . S
C988 C983 1.399 . S
C988 C987 1.394 . S
C988 C989 1.516 . S
C989 C988 1.516 . S
C989 C990 1.502 . S
C989 C991 1.561 . S
C989 C992 1.526 . S
C990 H974 0.959 . S
C990 H975 0.959 . S
C990 H976 0.961 . S
C990 C989 1.502 . S
C991 H977 0.960 . S
C991 H978 0.961 . S
C991 H979 0.959 . S
C991 C989 1.561 . S
C992 C989 1.526 . S
C992 C993 1.396 . S
C992 C997 1.390 . S
C993 C987 1.465 . S
C993 C992 1.396 . S
C993 C994 1.399 . S
C994 H980 0.929 . S
C994 C993 1.399 . S
C994 C995 1.385 . S
C995 H981 0.931 . S
C995 C994 1.385 . S
C995 C996 1.389 . S
C996 C995 1.389 . S
C996 C997 1.387 . S
C997 H982 0.930 . S
C997 C992 1.390 . S
C997 C996 1.387 . S
H998 C1010 0.930 . S
H999 C1012 0.930 . S
H1000 C1013 0.930 1_554 S
H1001 C1017 0.959 . S
H1002 C1017 0.959 . S
H1003 C1017 0.961 . S
H1004 C1018 0.960 . S
H1005 C1018 0.961 . S
H1006 C1018 0.959 . S
H1007 C1021 0.929 . S
H1008 C1022 0.931 . S
H1009 C1024 0.930 . S
C1010 H998 0.930 . S
C1010 C1011 1.399 . S
C1010 C1015 1.399 . S
C1011 C1010 1.399 . S
C1011 C1012 1.376 . S
C1012 H999 0.930 . S
C1012 C1011 1.376 . S
C1012 C1013 1.388 . S
C1013 H1000 0.930 1_556 S
C1013 C1012 1.388 . S
C1013 C1014 1.390 . S
C1014 C1013 1.390 . S
C1014 C1015 1.394 . S
C1014 C1020 1.465 1_556 S
C1015 C1010 1.399 . S
C1015 C1014 1.394 . S
C1015 C1016 1.516 . S
C1016 C1015 1.516 . S
C1016 C1017 1.502 . S
C1016 C1018 1.561 . S
C1016 C1019 1.526 . S
C1017 H1001 0.959 . S
C1017 H1002 0.959 . S
C1017 H1003 0.961 . S
C1017 C1016 1.502 . S
C1018 H1004 0.960 . S
C1018 H1005 0.961 . S
C1018 H1006 0.959 . S
C1018 C1016 1.561 . S
C1019 C1016 1.526 . S
C1019 C1020 1.396 1_556 S
C1019 C1024 1.390 . S
C1020 C1014 1.465 1_554 S
C1020 C1019 1.396 1_554 S
C1020 C1021 1.399 . S
C1021 H1007 0.929 . S
C1021 C1020 1.399 . S
C1021 C1022 1.385 . S
C1022 H1008 0.931 . S
C1022 C1021 1.385 . S
C1022 C1023 1.389 . S
C1023 C1022 1.389 . S
C1023 C1024 1.387 1_554 S
C1024 H1009 0.930 . S
C1024 C1019 1.390 . S
C1024 C1023 1.387 1_556 S
H1025 C1037 0.930 . S
H1026 C1039 0.930 . S
H1027 C1040 0.930 . S
H1028 C1044 0.959 . S
H1029 C1044 0.959 . S
H1030 C1044 0.961 . S
H1031 C1045 0.960 . S
H1032 C1045 0.961 . S
H1033 C1045 0.959 . S
H1034 C1048 0.929 . S
H1035 C1049 0.931 . S
H1036 C1051 0.930 . S
C1037 H1025 0.930 . S
C1037 C1038 1.399 . S
C1037 C1042 1.399 . S
C1038 C1037 1.399 . S
C1038 C1039 1.376 . S
C1039 H1026 0.930 . S
C1039 C1038 1.376 . S
C1039 C1040 1.388 . S
C1040 H1027 0.930 . S
C1040 C1039 1.388 . S
C1040 C1041 1.390 . S
C1041 C1040 1.390 . S
C1041 C1042 1.394 . S
C1041 C1047 1.465 . S
C1042 C1037 1.399 . S
C1042 C1041 1.394 . S
C1042 C1043 1.516 . S
C1043 C1042 1.516 . S
C1043 C1044 1.502 . S
C1043 C1045 1.561 . S
C1043 C1046 1.526 . S
C1044 H1028 0.959 . S
C1044 H1029 0.959 . S
C1044 H1030 0.961 . S
C1044 C1043 1.502 . S
C1045 H1031 0.960 . S
C1045 H1032 0.961 . S
C1045 H1033 0.959 . S
C1045 C1043 1.561 . S
C1046 C1043 1.526 . S
C1046 C1047 1.396 . S
C1046 C1051 1.390 . S
C1047 C1041 1.465 . S
C1047 C1046 1.396 . S
C1047 C1048 1.399 . S
C1048 H1034 0.929 . S
C1048 C1047 1.399 . S
C1048 C1049 1.385 . S
C1049 H1035 0.931 . S
C1049 C1048 1.385 . S
C1049 C1050 1.389 . S
C1050 C1049 1.389 . S
C1050 C1051 1.387 . S
C1051 H1036 0.930 . S
C1051 C1046 1.390 . S
C1051 C1050 1.387 . S
H1052 C1064 0.930 . S
H1053 C1066 0.930 . S
H1054 C1067 0.930 . S
H1055 C1071 0.959 . S
H1056 C1071 0.959 . S
H1057 C1071 0.961 . S
H1058 C1072 0.960 . S
H1059 C1072 0.961 . S
H1060 C1072 0.959 . S
H1061 C1075 0.929 . S
H1062 C1076 0.931 . S
H1063 C1078 0.930 . S
C1064 H1052 0.930 . S
C1064 C1065 1.399 . S
C1064 C1069 1.399 . S
C1065 C1064 1.399 . S
C1065 C1066 1.376 . S
C1066 H1053 0.930 . S
C1066 C1065 1.376 . S
C1066 C1067 1.388 . S
C1067 H1054 0.930 . S
C1067 C1066 1.388 . S
C1067 C1068 1.390 . S
C1068 C1067 1.390 . S
C1068 C1069 1.394 . S
C1068 C1074 1.465 . S
C1069 C1064 1.399 . S
C1069 C1068 1.394 . S
C1069 C1070 1.516 1_554 S
C1070 C1069 1.516 1_556 S
C1070 C1071 1.502 . S
C1070 C1072 1.561 . S
C1070 C1073 1.526 . S
C1071 H1055 0.959 . S
C1071 H1056 0.959 . S
C1071 H1057 0.961 . S
C1071 C1070 1.502 . S
C1072 H1058 0.960 . S
C1072 H1059 0.961 . S
C1072 H1060 0.959 . S
C1072 C1070 1.561 . S
C1073 C1070 1.526 . S
C1073 C1074 1.396 1_556 S
C1073 C1078 1.390 . S
C1074 C1068 1.465 . S
C1074 C1073 1.396 1_554 S
C1074 C1075 1.399 . S
C1075 H1061 0.929 . S
C1075 C1074 1.399 . S
C1075 C1076 1.385 . S
C1076 H1062 0.931 . S
C1076 C1075 1.385 . S
C1076 C1077 1.389 1_554 S
C1077 C1076 1.389 1_556 S
C1077 C1078 1.387 . S
C1078 H1063 0.930 . S
C1078 C1073 1.390 . S
C1078 C1077 1.387 . S
H1079 C1091 0.930 . S
H1080 C1093 0.930 . S
H1081 C1094 0.930 . S
H1082 C1098 0.959 . S
H1083 C1098 0.959 . S
H1084 C1098 0.961 . S
H1085 C1099 0.960 . S
H1086 C1099 0.961 . S
H1087 C1099 0.959 . S
H1088 C1102 0.929 . S
H1089 C1103 0.931 . S
H1090 C1105 0.930 . S
C1091 H1079 0.930 . S
C1091 C1092 1.399 . S
C1091 C1096 1.399 . S
C1092 C1091 1.399 . S
C1092 C1093 1.376 . S
C1093 H1080 0.930 . S
C1093 C1092 1.376 . S
C1093 C1094 1.388 . S
C1094 H1081 0.930 . S
C1094 C1093 1.388 . S
C1094 C1095 1.390 . S
C1095 C1094 1.390 . S
C1095 C1096 1.394 . S
C1095 C1101 1.465 . S
C1096 C1091 1.399 . S
C1096 C1095 1.394 . S
C1096 C1097 1.516 . S
C1097 C1096 1.516 . S
C1097 C1098 1.502 . S
C1097 C1099 1.561 . S
C1097 C1100 1.526 . S
C1098 H1082 0.959 . S
C1098 H1083 0.959 . S
C1098 H1084 0.961 . S
C1098 C1097 1.502 . S
C1099 H1085 0.960 . S
C1099 H1086 0.961 . S
C1099 H1087 0.959 . S
C1099 C1097 1.561 . S
C1100 C1097 1.526 . S
C1100 C1101 1.396 . S
C1100 C1105 1.390 . S
C1101 C1095 1.465 . S
C1101 C1100 1.396 . S
C1101 C1102 1.399 . S
C1102 H1088 0.929 . S
C1102 C1101 1.399 . S
C1102 C1103 1.385 . S
C1103 H1089 0.931 . S
C1103 C1102 1.385 . S
C1103 C1104 1.389 . S
C1104 C1103 1.389 . S
C1104 C1105 1.387 . S
C1105 H1090 0.930 . S
C1105 C1100 1.390 . S
C1105 C1104 1.387 . S
H1106 C1118 0.930 . S
H1107 C1120 0.930 . S
H1108 C1121 0.930 . S
H1109 C1125 0.959 . S
H1110 C1125 0.959 . S
H1111 C1125 0.961 . S
H1112 C1126 0.960 . S
H1113 C1126 0.961 . S
H1114 C1126 0.959 . S
H1115 C1129 0.929 . S
H1116 C1130 0.931 . S
H1117 C1132 0.930 . S
C1118 H1106 0.930 . S
C1118 C1119 1.399 . S
C1118 C1123 1.399 . S
C1119 C1118 1.399 . S
C1119 C1120 1.376 . S
C1120 H1107 0.930 . S
C1120 C1119 1.376 . S
C1120 C1121 1.388 . S
C1121 H1108 0.930 . S
C1121 C1120 1.388 . S
C1121 C1122 1.390 . S
C1122 C1121 1.390 . S
C1122 C1123 1.394 . S
C1122 C1128 1.465 . S
C1123 C1118 1.399 . S
C1123 C1122 1.394 . S
C1123 C1124 1.516 1_556 S
C1124 C1123 1.516 1_554 S
C1124 C1125 1.502 . S
C1124 C1126 1.561 . S
C1124 C1127 1.526 . S
C1125 H1109 0.959 . S
C1125 H1110 0.959 . S
C1125 H1111 0.961 . S
C1125 C1124 1.502 . S
C1126 H1112 0.960 . S
C1126 H1113 0.961 . S
C1126 H1114 0.959 . S
C1126 C1124 1.561 . S
C1127 C1124 1.526 . S
C1127 C1128 1.396 1_554 S
C1127 C1132 1.390 . S
C1128 C1122 1.465 . S
C1128 C1127 1.396 1_556 S
C1128 C1129 1.399 . S
C1129 H1115 0.929 . S
C1129 C1128 1.399 . S
C1129 C1130 1.385 . S
C1130 H1116 0.931 . S
C1130 C1129 1.385 . S
C1130 C1131 1.389 1_556 S
C1131 C1130 1.389 1_554 S
C1131 C1132 1.387 . S
C1132 H1117 0.930 . S
C1132 C1127 1.390 . S
C1132 C1131 1.387 . S
H1133 C1145 0.930 . S
H1134 C1147 0.930 . S
H1135 C1148 0.930 . S
H1136 C1152 0.959 . S
H1137 C1152 0.959 . S
H1138 C1152 0.961 . S
H1139 C1153 0.960 . S
H1140 C1153 0.961 . S
H1141 C1153 0.959 . S
H1142 C1156 0.929 . S
H1143 C1157 0.931 . S
H1144 C1159 0.930 . S
C1145 H1133 0.930 . S
C1145 C1146 1.399 . S
C1145 C1150 1.399 . S
C1146 C1145 1.399 . S
C1146 C1147 1.376 . S
C1147 H1134 0.930 . S
C1147 C1146 1.376 . S
C1147 C1148 1.388 . S
C1148 H1135 0.930 . S
C1148 C1147 1.388 . S
C1148 C1149 1.390 . S
C1149 C1148 1.390 . S
C1149 C1150 1.394 . S
C1149 C1155 1.465 . S
C1150 C1145 1.399 . S
C1150 C1149 1.394 . S
C1150 C1151 1.516 . S
C1151 C1150 1.516 . S
C1151 C1152 1.502 . S
C1151 C1153 1.561 . S
C1151 C1154 1.526 . S
C1152 H1136 0.959 . S
C1152 H1137 0.959 . S
C1152 H1138 0.961 . S
C1152 C1151 1.502 . S
C1153 H1139 0.960 . S
C1153 H1140 0.961 . S
C1153 H1141 0.959 . S
C1153 C1151 1.561 . S
C1154 C1151 1.526 . S
C1154 C1155 1.396 . S
C1154 C1159 1.390 . S
C1155 C1149 1.465 . S
C1155 C1154 1.396 . S
C1155 C1156 1.399 . S
C1156 H1142 0.929 . S
C1156 C1155 1.399 . S
C1156 C1157 1.385 . S
C1157 H1143 0.931 . S
C1157 C1156 1.385 . S
C1157 C1158 1.389 . S
C1158 C1157 1.389 . S
C1158 C1159 1.387 . S
C1159 H1144 0.930 . S
C1159 C1154 1.390 . S
C1159 C1158 1.387 . S
H1160 C1172 0.930 . S
H1161 C1174 0.930 . S
H1162 C1175 0.930 . S
H1163 C1179 0.959 1_546 S
H1164 C1179 0.959 1_556 S
H1165 C1179 0.961 1_545 S
H1166 C1180 0.960 . S
H1167 C1180 0.961 . S
H1168 C1180 0.959 . S
H1169 C1183 0.929 . S
H1170 C1184 0.931 . S
H1171 C1186 0.930 . S
C1172 H1160 0.930 . S
C1172 C1173 1.399 . S
C1172 C1177 1.399 . S
C1173 C1172 1.399 . S
C1173 C1174 1.376 . S
C1174 H1161 0.930 . S
C1174 C1173 1.376 . S
C1174 C1175 1.388 . S
C1175 H1162 0.930 . S
C1175 C1174 1.388 . S
C1175 C1176 1.390 . S
C1176 C1175 1.390 . S
C1176 C1177 1.394 . S
C1176 C1182 1.465 1_544 S
C1177 C1172 1.399 . S
C1177 C1176 1.394 . S
C1177 C1178 1.516 1_545 S
C1178 C1177 1.516 1_565 S
C1178 C1179 1.502 . S
C1178 C1180 1.561 . S
C1178 C1181 1.526 1_554 S
C1179 H1163 0.959 1_564 S
C1179 H1164 0.959 1_554 S
C1179 H1165 0.961 1_565 S
C1179 C1178 1.502 . S
C1180 H1166 0.960 . S
C1180 H1167 0.961 . S
C1180 H1168 0.959 . S
C1180 C1178 1.561 . S
C1181 C1178 1.526 1_556 S
C1181 C1182 1.396 . S
C1181 C1186 1.390 . S
C1182 C1176 1.465 1_566 S
C1182 C1181 1.396 . S
C1182 C1183 1.399 . S
C1183 H1169 0.929 . S
C1183 C1182 1.399 . S
C1183 C1184 1.385 . S
C1184 H1170 0.931 . S
C1184 C1183 1.385 . S
C1184 C1185 1.389 . S
C1185 C1184 1.389 . S
C1185 C1186 1.387 . S
C1186 H1171 0.930 . S
C1186 C1181 1.390 . S
C1186 C1185 1.387 . S
H1187 C1199 0.930 . S
H1188 C1201 0.930 . S
H1189 C1202 0.930 . S
H1190 C1206 0.959 1_545 S
H1191 C1206 0.959 . S
H1192 C1206 0.961 . S
H1193 C1207 0.960 . S
H1194 C1207 0.961 . S
H1195 C1207 0.959 . S
H1196 C1210 0.929 . S
H1197 C1211 0.931 . S
H1198 C1213 0.930 . S
C1199 H1187 0.930 . S
C1199 C1200 1.399 . S
C1199 C1204 1.399 . S
C1200 C1199 1.399 . S
C1200 C1201 1.376 . S
C1201 H1188 0.930 . S
C1201 C1200 1.376 . S
C1201 C1202 1.388 . S
C1202 H1189 0.930 . S
C1202 C1201 1.388 . S
C1202 C1203 1.390 . S
C1203 C1202 1.390 . S
C1203 C1204 1.394 . S
C1203 C1209 1.465 1_565 S
C1204 C1199 1.399 . S
C1204 C1203 1.394 . S
C1204 C1205 1.516 . S
C1205 C1204 1.516 . S
C1205 C1206 1.502 . S
C1205 C1207 1.561 . S
C1205 C1208 1.526 1_565 S
C1206 H1190 0.959 1_565 S
C1206 H1191 0.959 . S
C1206 H1192 0.961 . S
C1206 C1205 1.502 . S
C1207 H1193 0.960 . S
C1207 H1194 0.961 . S
C1207 H1195 0.959 . S
C1207 C1205 1.561 . S
C1208 C1205 1.526 1_545 S
C1208 C1209 1.396 . S
C1208 C1213 1.390 . S
C1209 C1203 1.465 1_545 S
C1209 C1208 1.396 . S
C1209 C1210 1.399 . S
C1210 H1196 0.929 . S
C1210 C1209 1.399 . S
C1210 C1211 1.385 . S
C1211 H1197 0.931 . S
C1211 C1210 1.385 . S
C1211 C1212 1.389 . S
C1212 C1211 1.389 . S
C1212 C1213 1.387 . S
C1213 H1198 0.930 . S
C1213 C1208 1.390 . S
C1213 C1212 1.387 . S
H1214 C1226 0.930 . S
H1215 C1228 0.930 . S
H1216 C1229 0.930 . S
H1217 C1233 0.959 . S
H1218 C1233 0.959 . S
H1219 C1233 0.961 . S
H1220 C1234 0.991 . S
H1221 C1234 0.961 . S
H1222 C1234 0.959 . S
H1223 C1237 0.929 . S
H1224 C1238 0.931 . S
H1225 C1240 0.930 . S
C1226 H1214 0.930 . S
C1226 C1227 1.399 . S
C1226 C1231 1.399 . S
C1227 C1226 1.399 . S
C1227 C1228 1.376 1_556 S
C1228 H1215 0.930 . S
C1228 C1227 1.376 1_554 S
C1228 C1229 1.388 . S
C1229 H1216 0.930 . S
C1229 C1228 1.388 . S
C1229 C1230 1.390 . S
C1230 C1229 1.390 . S
C1230 C1231 1.394 1_554 S
C1230 C1236 1.465 1_565 S
C1231 C1226 1.399 . S
C1231 C1230 1.394 1_556 S
C1231 C1232 1.516 1_565 S
C1232 C1231 1.516 1_545 S
C1232 C1233 1.502 . S
C1232 C1234 1.561 . S
C1232 C1235 1.526 . S
C1233 H1217 0.959 . S
C1233 H1218 0.959 . S
C1233 H1219 0.961 . S
C1233 C1232 1.502 . S
C1234 H1220 0.991 . S
C1234 H1221 0.961 . S
C1234 H1222 0.959 . S
C1234 C1232 1.561 . S
C1235 C1232 1.526 . S
C1235 C1236 1.396 1_556 S
C1235 C1240 1.390 . S
C1236 C1230 1.465 1_545 S
C1236 C1235 1.396 1_554 S
C1236 C1237 1.399 . S
C1237 H1223 0.929 . S
C1237 C1236 1.399 . S
C1237 C1238 1.385 . S
C1238 H1224 0.931 . S
C1238 C1237 1.385 . S
C1238 C1239 1.389 . S
C1239 C1238 1.389 . S
C1239 C1240 1.387 1_554 S
C1240 H1225 0.930 . S
C1240 C1235 1.390 . S
C1240 C1239 1.387 1_556 S
H1241 C1253 0.930 . S
H1242 C1255 0.930 . S
H1243 C1256 0.930 . S
H1244 C1260 0.959 . S
H1245 C1260 0.959 . S
H1246 C1260 0.961 . S
H1247 C1261 0.960 1_545 S
H1248 C1261 0.961 . S
H1249 C1261 0.959 . S
H1250 C1264 0.929 . S
H1251 C1265 0.931 . S
H1252 C1267 0.930 . S
C1253 H1241 0.930 . S
C1253 C1254 1.399 . S
C1253 C1258 1.399 . S
C1254 C1253 1.399 . S
C1254 C1255 1.376 . S
C1255 H1242 0.930 . S
C1255 C1254 1.376 . S
C1255 C1256 1.388 . S
C1256 H1243 0.930 . S
C1256 C1255 1.388 . S
C1256 C1257 1.390 . S
C1257 C1256 1.390 . S
C1257 C1258 1.394 . S
C1257 C1263 1.465 1_545 S
C1258 C1253 1.399 . S
C1258 C1257 1.394 . S
C1258 C1259 1.516 1_545 S
C1259 C1258 1.516 1_565 S
C1259 C1260 1.502 . S
C1259 C1261 1.561 . S
C1259 C1262 1.526 . S
C1260 H1244 0.959 . S
C1260 H1245 0.959 . S
C1260 H1246 0.961 . S
C1260 C1259 1.502 . S
C1261 H1247 0.960 1_565 S
C1261 H1248 0.961 . S
C1261 H1249 0.959 . S
C1261 C1259 1.561 . S
C1262 C1259 1.526 . S
C1262 C1263 1.396 . S
C1262 C1267 1.390 . S
C1263 C1257 1.465 1_565 S
C1263 C1262 1.396 . S
C1263 C1264 1.399 . S
C1264 H1250 0.929 . S
C1264 C1263 1.399 . S
C1264 C1265 1.385 . S
C1265 H1251 0.931 . S
C1265 C1264 1.385 . S
C1265 C1266 1.389 . S
C1266 C1265 1.389 . S
C1266 C1267 1.387 . S
C1267 H1252 0.930 . S
C1267 C1262 1.390 . S
C1267 C1266 1.387 . S
H1268 C1280 0.930 . S
H1269 C1282 0.930 . S
H1270 C1283 0.930 . S
H1271 C1287 0.959 1_556 S
H1272 C1287 0.959 . S
H1273 C1287 0.961 1_556 S
H1274 C1288 0.960 . S
H1275 C1288 0.961 . S
H1276 C1288 0.959 . S
H1277 C1291 0.929 . S
H1278 C1292 0.931 . S
H1279 C1294 0.930 . S
C1280 H1268 0.930 . S
C1280 C1281 1.399 . S
C1280 C1285 1.399 . S
C1281 C1280 1.399 . S
C1281 C1282 1.376 . S
C1282 H1269 0.930 . S
C1282 C1281 1.376 . S
C1282 C1283 1.388 . S
C1283 H1270 0.930 . S
C1283 C1282 1.388 . S
C1283 C1284 1.390 . S
C1284 C1283 1.390 . S
C1284 C1285 1.394 . S
C1284 C1290 1.465 1_556 S
C1285 C1280 1.399 . S
C1285 C1284 1.394 . S
C1285 C1286 1.516 1_556 S
C1286 C1285 1.516 1_554 S
C1286 C1287 1.502 . S
C1286 C1288 1.561 . S
C1286 C1289 1.526 . S
C1287 H1271 0.959 1_554 S
C1287 H1272 0.959 . S
C1287 H1273 0.961 1_554 S
C1287 C1286 1.502 . S
C1288 H1274 0.960 . S
C1288 H1275 0.961 . S
C1288 H1276 0.959 . S
C1288 C1286 1.561 . S
C1289 C1286 1.526 . S
C1289 C1290 1.396 . S
C1289 C1294 1.390 . S
C1290 C1284 1.465 1_554 S
C1290 C1289 1.396 . S
C1290 C1291 1.399 . S
C1291 H1277 0.929 . S
C1291 C1290 1.399 . S
C1291 C1292 1.385 . S
C1292 H1278 0.931 . S
C1292 C1291 1.385 . S
C1292 C1293 1.389 . S
C1293 C1292 1.389 . S
C1293 C1294 1.387 . S
C1294 H1279 0.930 . S
C1294 C1289 1.390 . S
C1294 C1293 1.387 . S
H1295 C1307 0.930 . S
H1296 C1309 0.930 . S
H1297 C1310 0.930 . S
H1298 C1314 0.959 . S
H1299 C1314 0.959 . S
H1300 C1314 0.961 . S
H1301 C1315 0.960 . S
H1302 C1315 0.961 . S
H1303 C1315 0.959 . S
H1304 C1318 0.929 . S
H1305 C1319 0.931 . S
H1306 C1321 0.930 . S
C1307 H1295 0.930 . S
C1307 C1308 1.399 . S
C1307 C1312 1.399 . S
C1308 C1307 1.399 . S
C1308 C1309 1.376 . S
C1309 H1296 0.930 . S
C1309 C1308 1.376 . S
C1309 C1310 1.388 . S
C1310 H1297 0.930 . S
C1310 C1309 1.388 . S
C1310 C1311 1.390 . S
C1311 C1310 1.390 . S
C1311 C1312 1.394 . S
C1311 C1317 1.465 . S
C1312 C1307 1.399 . S
C1312 C1311 1.394 . S
C1312 C1313 1.516 . S
C1313 C1312 1.516 . S
C1313 C1314 1.502 . S
C1313 C1315 1.561 . S
C1313 C1316 1.526 . S
C1314 H1298 0.959 . S
C1314 H1299 0.959 . S
C1314 H1300 0.961 . S
C1314 C1313 1.502 . S
C1315 H1301 0.960 . S
C1315 H1302 0.961 . S
C1315 H1303 0.959 . S
C1315 C1313 1.561 . S
C1316 C1313 1.526 . S
C1316 C1317 1.396 . S
C1316 C1321 1.390 . S
C1317 C1311 1.465 . S
C1317 C1316 1.396 . S
C1317 C1318 1.399 . S
C1318 H1304 0.929 . S
C1318 C1317 1.399 . S
C1318 C1319 1.385 . S
C1319 H1305 0.931 . S
C1319 C1318 1.385 . S
C1319 C1320 1.389 . S
C1320 C1319 1.389 . S
C1320 C1321 1.387 . S
C1321 H1306 0.930 . S
C1321 C1316 1.390 . S
C1321 C1320 1.387 . S
H1322 C1334 0.930 . S
H1323 C1336 0.930 . S
H1324 C1337 0.930 . S
H1325 C1341 0.959 . S
H1326 C1341 0.959 . S
H1327 C1341 0.961 . S
H1328 C1342 0.960 . S
H1329 C1342 0.961 . S
H1330 C1342 0.959 . S
H1331 C1345 0.929 . S
H1332 C1346 0.931 . S
H1333 C1348 0.930 . S
C1334 H1322 0.930 . S
C1334 C1335 1.399 . S
C1334 C1339 1.399 . S
C1335 C1334 1.399 . S
C1335 C1336 1.376 1_554 S
C1336 H1323 0.930 . S
C1336 C1335 1.376 1_556 S
C1336 C1337 1.388 . S
C1337 H1324 0.930 . S
C1337 C1336 1.388 . S
C1337 C1338 1.390 . S
C1338 C1337 1.390 . S
C1338 C1339 1.394 1_556 S
C1338 C1344 1.465 . S
C1339 C1334 1.399 . S
C1339 C1338 1.394 1_554 S
C1339 C1340 1.516 . S
C1340 C1339 1.516 . S
C1340 C1341 1.502 . S
C1340 C1342 1.561 . S
C1340 C1343 1.526 . S
C1341 H1325 0.959 . S
C1341 H1326 0.959 . S
C1341 H1327 0.961 . S
C1341 C1340 1.502 . S
C1342 H1328 0.960 . S
C1342 H1329 0.961 . S
C1342 H1330 0.959 . S
C1342 C1340 1.561 . S
C1343 C1340 1.526 . S
C1343 C1344 1.396 1_554 S
C1343 C1348 1.390 . S
C1344 C1338 1.465 . S
C1344 C1343 1.396 1_556 S
C1344 C1345 1.399 . S
C1345 H1331 0.929 . S
C1345 C1344 1.399 . S
C1345 C1346 1.385 . S
C1346 H1332 0.931 . S
C1346 C1345 1.385 . S
C1346 C1347 1.389 . S
C1347 C1346 1.389 . S
C1347 C1348 1.387 1_556 S
C1348 H1333 0.930 . S
C1348 C1343 1.390 . S
C1348 C1347 1.387 1_554 S
H1349 C1361 0.930 . S
H1350 C1363 0.930 . S
H1351 C1364 0.930 . S
H1352 C1368 0.959 . S
H1353 C1368 0.959 . S
H1354 C1368 0.961 . S
H1355 C1369 0.960 . S
H1356 C1369 0.961 . S
H1357 C1369 0.959 . S
H1358 C1372 0.929 . S
H1359 C1373 0.931 . S
H1360 C1375 0.930 . S
C1361 H1349 0.930 . S
C1361 C1362 1.399 . S
C1361 C1366 1.399 . S
C1362 C1361 1.399 . S
C1362 C1363 1.376 . S
C1363 H1350 0.930 . S
C1363 C1362 1.376 . S
C1363 C1364 1.388 . S
C1364 H1351 0.930 . S
C1364 C1363 1.388 . S
C1364 C1365 1.390 . S
C1365 C1364 1.390 . S
C1365 C1366 1.394 . S
C1365 C1371 1.465 . S
C1366 C1361 1.399 . S
C1366 C1365 1.394 . S
C1366 C1367 1.516 . S
C1367 C1366 1.516 . S
C1367 C1368 1.502 . S
C1367 C1369 1.561 . S
C1367 C1370 1.526 . S
C1368 H1352 0.959 . S
C1368 H1353 0.959 . S
C1368 H1354 0.961 . S
C1368 C1367 1.502 . S
C1369 H1355 0.960 . S
C1369 H1356 0.961 . S
C1369 H1357 0.959 . S
C1369 C1367 1.561 . S
C1370 C1367 1.526 . S
C1370 C1371 1.396 . S
C1370 C1375 1.390 . S
C1371 C1365 1.465 . S
C1371 C1370 1.396 . S
C1371 C1372 1.399 . S
C1372 H1358 0.929 . S
C1372 C1371 1.399 . S
C1372 C1373 1.385 . S
C1373 H1359 0.931 . S
C1373 C1372 1.385 . S
C1373 C1374 1.389 . S
C1374 C1373 1.389 . S
C1374 C1375 1.387 . S
C1375 H1360 0.930 . S
C1375 C1370 1.390 . S
C1375 C1374 1.387 . S
H1376 C1388 0.930 . S
H1377 C1390 0.930 . S
H1378 C1391 0.930 . S
H1379 C1395 0.959 . S
H1380 C1395 0.959 . S
H1381 C1395 0.961 . S
H1382 C1396 0.960 . S
H1383 C1396 0.961 . S
H1384 C1396 0.959 . S
H1385 C1399 0.929 . S
H1386 C1400 0.931 . S
H1387 C1402 0.930 . S
C1388 H1376 0.930 . S
C1388 C1389 1.399 . S
C1388 C1393 1.399 . S
C1389 C1388 1.399 . S
C1389 C1390 1.376 . S
C1390 H1377 0.930 . S
C1390 C1389 1.376 . S
C1390 C1391 1.388 . S
C1391 H1378 0.930 . S
C1391 C1390 1.388 . S
C1391 C1392 1.390 . S
C1392 C1391 1.390 . S
C1392 C1393 1.394 . S
C1392 C1398 1.465 . S
C1393 C1388 1.399 . S
C1393 C1392 1.394 . S
C1393 C1394 1.516 . S
C1394 C1393 1.516 . S
C1394 C1395 1.502 . S
C1394 C1396 1.561 . S
C1394 C1397 1.526 . S
C1395 H1379 0.959 . S
C1395 H1380 0.959 . S
C1395 H1381 0.961 . S
C1395 C1394 1.502 . S
C1396 H1382 0.960 . S
C1396 H1383 0.961 . S
C1396 H1384 0.959 . S
C1396 C1394 1.561 . S
C1397 C1394 1.526 . S
C1397 C1398 1.396 . S
C1397 C1402 1.390 . S
C1398 C1392 1.465 . S
C1398 C1397 1.396 . S
C1398 C1399 1.399 . S
C1399 H1385 0.929 . S
C1399 C1398 1.399 . S
C1399 C1400 1.385 . S
C1400 H1386 0.931 . S
C1400 C1399 1.385 . S
C1400 C1401 1.389 . S
C1401 C1400 1.389 . S
C1401 C1402 1.387 . S
C1402 H1387 0.930 . S
C1402 C1397 1.390 . S
C1402 C1401 1.387 . S
H1403 C1415 0.930 . S
H1404 C1417 0.930 . S
H1405 C1418 0.930 . S
H1406 C1422 0.959 . S
H1407 C1422 0.959 . S
H1408 C1422 0.961 . S
H1409 C1423 0.960 . S
H1410 C1423 0.961 . S
H1411 C1423 0.959 . S
H1412 C1426 0.929 1_655 S
H1413 C1427 0.931 . S
H1414 C1429 0.930 . S
C1415 H1403 0.930 . S
C1415 C1416 1.399 . S
C1415 C1420 1.399 . S
C1416 C1415 1.399 . S
C1416 C1417 1.376 . S
C1417 H1404 0.930 . S
C1417 C1416 1.376 . S
C1417 C1418 1.388 . S
C1418 H1405 0.930 . S
C1418 C1417 1.388 . S
C1418 C1419 1.390 . S
C1419 C1418 1.390 . S
C1419 C1420 1.394 . S
C1419 C1425 1.465 . S
C1420 C1415 1.399 . S
C1420 C1419 1.394 . S
C1420 C1421 1.516 . S
C1421 C1420 1.516 . S
C1421 C1422 1.502 . S
C1421 C1423 1.561 . S
C1421 C1424 1.526 . S
C1422 H1406 0.959 . S
C1422 H1407 0.959 . S
C1422 H1408 0.961 . S
C1422 C1421 1.502 . S
C1423 H1409 0.960 . S
C1423 H1410 0.961 . S
C1423 H1411 0.959 . S
C1423 C1421 1.561 . S
C1424 C1421 1.526 . S
C1424 C1425 1.396 . S
C1424 C1429 1.390 1_655 S
C1425 C1419 1.465 . S
C1425 C1424 1.396 . S
C1425 C1426 1.399 1_655 S
C1426 H1412 0.929 1_455 S
C1426 C1425 1.399 1_455 S
C1426 C1427 1.385 . S
C1427 H1413 0.931 . S
C1427 C1426 1.385 . S
C1427 C1428 1.389 . S
C1428 C1427 1.389 . S
C1428 C1429 1.387 . S
C1429 H1414 0.930 . S
C1429 C1424 1.390 1_455 S
C1429 C1428 1.387 . S
H1430 C1442 0.930 . S
H1431 C1444 0.930 . S
H1432 C1445 0.930 . S
H1433 C1449 0.959 . S
H1434 C1449 0.959 . S
H1435 C1449 0.961 . S
H1436 C1450 0.960 . S
H1437 C1450 0.961 . S
H1438 C1450 0.959 . S
H1439 C1453 0.929 . S
H1440 C1454 0.931 . S
H1441 C1456 0.930 . S
C1442 H1430 0.930 . S
C1442 C1443 1.399 . S
C1442 C1447 1.399 . S
C1443 C1442 1.399 . S
C1443 C1444 1.376 . S
C1444 H1431 0.930 . S
C1444 C1443 1.376 . S
C1444 C1445 1.388 . S
C1445 H1432 0.930 . S
C1445 C1444 1.388 . S
C1445 C1446 1.390 . S
C1446 C1445 1.390 . S
C1446 C1447 1.394 . S
C1446 C1452 1.465 . S
C1447 C1442 1.399 . S
C1447 C1446 1.394 . S
C1447 C1448 1.516 . S
C1448 C1447 1.516 . S
C1448 C1449 1.502 . S
C1448 C1450 1.561 . S
C1448 C1451 1.526 . S
C1449 H1433 0.959 . S
C1449 H1434 0.959 . S
C1449 H1435 0.961 . S
C1449 C1448 1.502 . S
C1450 H1436 0.960 . S
C1450 H1437 0.961 . S
C1450 H1438 0.959 . S
C1450 C1448 1.561 . S
C1451 C1448 1.526 . S
C1451 C1452 1.396 . S
C1451 C1456 1.390 . S
C1452 C1446 1.465 . S
C1452 C1451 1.396 . S
C1452 C1453 1.399 . S
C1453 H1439 0.929 . S
C1453 C1452 1.399 . S
C1453 C1454 1.385 . S
C1454 H1440 0.931 . S
C1454 C1453 1.385 . S
C1454 C1455 1.389 . S
C1455 C1454 1.389 . S
C1455 C1456 1.387 . S
C1456 H1441 0.930 . S
C1456 C1451 1.390 . S
C1456 C1455 1.387 . S
H1457 C1469 0.930 . S
H1458 C1471 0.930 . S
H1459 C1472 0.930 1_655 S
H1460 C1476 0.959 . S
H1461 C1476 0.959 . S
H1462 C1476 0.961 . S
H1463 C1477 0.960 . S
H1464 C1477 0.961 . S
H1465 C1477 0.959 . S
H1466 C1480 0.929 . S
H1467 C1481 0.931 . S
H1468 C1483 0.930 . S
C1469 H1457 0.930 . S
C1469 C1470 1.399 . S
C1469 C1474 1.399 1_455 S
C1470 C1469 1.399 . S
C1470 C1471 1.376 . S
C1471 H1458 0.930 . S
C1471 C1470 1.376 . S
C1471 C1472 1.388 . S
C1472 H1459 0.930 1_455 S
C1472 C1471 1.388 . S
C1472 C1473 1.390 1_455 S
C1473 C1472 1.390 1_655 S
C1473 C1474 1.394 . S
C1473 C1479 1.465 . S
C1474 C1469 1.399 1_655 S
C1474 C1473 1.394 . S
C1474 C1475 1.516 . S
C1475 C1474 1.516 . S
C1475 C1476 1.502 . S
C1475 C1477 1.561 . S
C1475 C1478 1.526 . S
C1476 H1460 0.959 . S
C1476 H1461 0.959 . S
C1476 H1462 0.961 . S
C1476 C1475 1.502 . S
C1477 H1463 0.960 . S
C1477 H1464 0.961 . S
C1477 H1465 0.959 . S
C1477 C1475 1.561 . S
C1478 C1475 1.526 . S
C1478 C1479 1.396 . S
C1478 C1483 1.390 . S
C1479 C1473 1.465 . S
C1479 C1478 1.396 . S
C1479 C1480 1.399 . S
C1480 H1466 0.929 . S
C1480 C1479 1.399 . S
C1480 C1481 1.385 . S
C1481 H1467 0.931 . S
C1481 C1480 1.385 . S
C1481 C1482 1.389 . S
C1482 C1481 1.389 . S
C1482 C1483 1.387 . S
C1483 H1468 0.930 . S
C1483 C1478 1.390 . S
C1483 C1482 1.387 . S
H1484 C1496 0.930 . S
H1485 C1498 0.930 . S
H1486 C1499 0.930 . S
H1487 C1503 0.959 . S
H1488 C1503 0.959 . S
H1489 C1503 0.961 . S
H1490 C1504 0.960 . S
H1491 C1504 0.961 . S
H1492 C1504 0.959 . S
H1493 C1507 0.929 . S
H1494 C1508 0.931 . S
H1495 C1510 0.930 . S
C1496 H1484 0.930 . S
C1496 C1497 1.399 . S
C1496 C1501 1.399 . S
C1497 C1496 1.399 . S
C1497 C1498 1.376 . S
C1498 H1485 0.930 . S
C1498 C1497 1.376 . S
C1498 C1499 1.388 . S
C1499 H1486 0.930 . S
C1499 C1498 1.388 . S
C1499 C1500 1.390 . S
C1500 C1499 1.390 . S
C1500 C1501 1.394 . S
C1500 C1506 1.465 . S
C1501 C1496 1.399 . S
C1501 C1500 1.394 . S
C1501 C1502 1.516 . S
C1502 C1501 1.516 . S
C1502 C1503 1.502 . S
C1502 C1504 1.561 . S
C1502 C1505 1.526 . S
C1503 H1487 0.959 . S
C1503 H1488 0.959 . S
C1503 H1489 0.961 . S
C1503 C1502 1.502 . S
C1504 H1490 0.960 . S
C1504 H1491 0.961 . S
C1504 H1492 0.959 . S
C1504 C1502 1.561 . S
C1505 C1502 1.526 . S
C1505 C1506 1.396 . S
C1505 C1510 1.390 1_455 S
C1506 C1500 1.465 . S
C1506 C1505 1.396 . S
C1506 C1507 1.399 1_455 S
C1507 H1493 0.929 . S
C1507 C1506 1.399 1_655 S
C1507 C1508 1.385 . S
C1508 H1494 0.931 . S
C1508 C1507 1.385 . S
C1508 C1509 1.389 . S
C1509 C1508 1.389 . S
C1509 C1510 1.387 . S
C1510 H1495 0.930 . S
C1510 C1505 1.390 1_655 S
C1510 C1509 1.387 . S
H1511 C1523 0.930 . S
H1512 C1525 0.930 . S
H1513 C1526 0.930 . S
H1514 C1530 0.959 . S
H1515 C1530 0.959 . S
H1516 C1530 0.961 . S
H1517 C1531 0.960 . S
H1518 C1531 0.961 . S
H1519 C1531 0.959 . S
H1520 C1534 0.929 . S
H1521 C1535 0.931 . S
H1522 C1537 0.930 . S
C1523 H1511 0.930 . S
C1523 C1524 1.399 . S
C1523 C1528 1.399 . S
C1524 C1523 1.399 . S
C1524 C1525 1.376 . S
C1525 H1512 0.930 . S
C1525 C1524 1.376 . S
C1525 C1526 1.388 . S
C1526 H1513 0.930 . S
C1526 C1525 1.388 . S
C1526 C1527 1.390 . S
C1527 C1526 1.390 . S
C1527 C1528 1.394 . S
C1527 C1533 1.465 . S
C1528 C1523 1.399 . S
C1528 C1527 1.394 . S
C1528 C1529 1.516 . S
C1529 C1528 1.516 . S
C1529 C1530 1.502 . S
C1529 C1531 1.561 . S
C1529 C1532 1.526 . S
C1530 H1514 0.959 . S
C1530 H1515 0.959 . S
C1530 H1516 0.961 . S
C1530 C1529 1.502 . S
C1531 H1517 0.960 . S
C1531 H1518 0.961 . S
C1531 H1519 0.959 . S
C1531 C1529 1.561 . S
C1532 C1529 1.526 . S
C1532 C1533 1.396 . S
C1532 C1537 1.390 . S
C1533 C1527 1.465 . S
C1533 C1532 1.396 . S
C1533 C1534 1.399 . S
C1534 H1520 0.929 . S
C1534 C1533 1.399 . S
C1534 C1535 1.385 . S
C1535 H1521 0.931 . S
C1535 C1534 1.385 . S
C1535 C1536 1.389 . S
C1536 C1535 1.389 . S
C1536 C1537 1.387 . S
C1537 H1522 0.930 . S
C1537 C1532 1.390 . S
C1537 C1536 1.387 . S
H1538 C1550 0.930 . S
H1539 C1552 0.930 . S
H1540 C1553 0.930 . S
H1541 C1557 0.959 . S
H1542 C1557 0.959 . S
H1543 C1557 0.961 . S
H1544 C1558 0.960 . S
H1545 C1558 0.961 . S
H1546 C1558 0.959 . S
H1547 C1561 0.926 1_455 S
H1548 C1562 0.931 . S
H1549 C1564 0.930 . S
C1550 H1538 0.930 . S
C1550 C1551 1.399 . S
C1550 C1555 1.399 . S
C1551 C1550 1.399 . S
C1551 C1552 1.376 . S
C1552 H1539 0.930 . S
C1552 C1551 1.376 . S
C1552 C1553 1.388 . S
C1553 H1540 0.930 . S
C1553 C1552 1.388 . S
C1553 C1554 1.390 . S
C1554 C1553 1.390 . S
C1554 C1555 1.394 . S
C1554 C1560 1.465 . S
C1555 C1550 1.399 . S
C1555 C1554 1.394 . S
C1555 C1556 1.516 . S
C1556 C1555 1.516 . S
C1556 C1557 1.502 . S
C1556 C1558 1.561 . S
C1556 C1559 1.526 . S
C1557 H1541 0.959 . S
C1557 H1542 0.959 . S
C1557 H1543 0.961 . S
C1557 C1556 1.502 . S
C1558 H1544 0.960 . S
C1558 H1545 0.961 . S
C1558 H1546 0.959 . S
C1558 C1556 1.561 . S
C1559 C1556 1.526 . S
C1559 C1560 1.396 . S
C1559 C1564 1.390 1_455 S
C1560 C1554 1.465 . S
C1560 C1559 1.396 . S
C1560 C1561 1.399 1_455 S
C1561 H1547 0.926 1_655 S
C1561 C1560 1.399 1_655 S
C1561 C1562 1.385 . S
C1562 H1548 0.931 . S
C1562 C1561 1.385 . S
C1562 C1563 1.389 . S
C1563 C1562 1.389 . S
C1563 C1564 1.387 . S
C1564 H1549 0.930 . S
C1564 C1559 1.390 1_655 S
C1564 C1563 1.387 . S
H1565 C1577 0.930 . S
H1566 C1579 0.930 . S
H1567 C1580 0.930 . S
H1568 C1584 0.959 . S
H1569 C1584 0.959 . S
H1570 C1584 0.961 . S
H1571 C1585 0.960 . S
H1572 C1585 0.961 . S
H1573 C1585 0.959 . S
H1574 C1588 0.929 . S
H1575 C1589 0.931 . S
H1576 C1591 0.930 . S
C1577 H1565 0.930 . S
C1577 C1578 1.399 . S
C1577 C1582 1.399 . S
C1578 C1577 1.399 . S
C1578 C1579 1.376 . S
C1579 H1566 0.930 . S
C1579 C1578 1.376 . S
C1579 C1580 1.388 . S
C1580 H1567 0.930 . S
C1580 C1579 1.388 . S
C1580 C1581 1.390 . S
C1581 C1580 1.390 . S
C1581 C1582 1.394 . S
C1581 C1587 1.465 . S
C1582 C1577 1.399 . S
C1582 C1581 1.394 . S
C1582 C1583 1.516 . S
C1583 C1582 1.516 . S
C1583 C1584 1.502 . S
C1583 C1585 1.561 . S
C1583 C1586 1.526 . S
C1584 H1568 0.959 . S
C1584 H1569 0.959 . S
C1584 H1570 0.961 . S
C1584 C1583 1.502 . S
C1585 H1571 0.960 . S
C1585 H1572 0.961 . S
C1585 H1573 0.959 . S
C1585 C1583 1.561 . S
C1586 C1583 1.526 . S
C1586 C1587 1.396 . S
C1586 C1591 1.390 . S
C1587 C1581 1.465 . S
C1587 C1586 1.396 . S
C1587 C1588 1.399 . S
C1588 H1574 0.929 . S
C1588 C1587 1.399 . S
C1588 C1589 1.385 . S
C1589 H1575 0.931 . S
C1589 C1588 1.385 . S
C1589 C1590 1.389 . S
C1590 C1589 1.389 . S
C1590 C1591 1.387 . S
C1591 H1576 0.930 . S
C1591 C1586 1.390 . S
C1591 C1590 1.387 . S
H1592 C1604 0.930 . S
H1593 C1606 0.930 . S
H1594 C1607 0.930 . S
H1595 C1611 0.959 . S
H1596 C1611 0.959 . S
H1597 C1611 0.961 . S
H1598 C1612 0.960 . S
H1599 C1612 0.961 . S
H1600 C1612 0.959 . S
H1601 C1615 0.929 . S
H1602 C1616 0.931 . S
H1603 C1618 0.930 . S
C1604 H1592 0.930 . S
C1604 C1605 1.399 . S
C1604 C1609 1.399 . S
C1605 C1604 1.399 . S
C1605 C1606 1.376 . S
C1606 H1593 0.930 . S
C1606 C1605 1.376 . S
C1606 C1607 1.388 . S
C1607 H1594 0.930 . S
C1607 C1606 1.388 . S
C1607 C1608 1.390 . S
C1608 C1607 1.390 . S
C1608 C1609 1.394 . S
C1608 C1614 1.465 . S
C1609 C1604 1.399 . S
C1609 C1608 1.394 . S
C1609 C1610 1.516 . S
C1610 C1609 1.516 . S
C1610 C1611 1.502 . S
C1610 C1612 1.561 . S
C1610 C1613 1.526 . S
C1611 H1595 0.959 . S
C1611 H1596 0.959 . S
C1611 H1597 0.961 . S
C1611 C1610 1.502 . S
C1612 H1598 0.960 . S
C1612 H1599 0.961 . S
C1612 H1600 0.959 . S
C1612 C1610 1.561 . S
C1613 C1610 1.526 . S
C1613 C1614 1.396 . S
C1613 C1618 1.390 . S
C1614 C1608 1.465 . S
C1614 C1613 1.396 . S
C1614 C1615 1.399 . S
C1615 H1601 0.929 . S
C1615 C1614 1.399 . S
C1615 C1616 1.385 . S
C1616 H1602 0.931 . S
C1616 C1615 1.385 . S
C1616 C1617 1.389 . S
C1617 C1616 1.389 . S
C1617 C1618 1.387 . S
C1618 H1603 0.930 . S
C1618 C1613 1.390 . S
C1618 C1617 1.387 . S
H1619 C1631 0.930 . S
H1620 C1633 0.930 . S
H1621 C1634 0.930 . S
H1622 C1638 0.959 . S
H1623 C1638 0.959 . S
H1624 C1638 0.961 . S
H1625 C1639 0.960 . S
H1626 C1639 0.961 . S
H1627 C1639 0.959 . S
H1628 C1642 0.929 . S
H1629 C1643 0.931 . S
H1630 C1645 0.930 . S
C1631 H1619 0.930 . S
C1631 C1632 1.399 . S
C1631 C1636 1.399 . S
C1632 C1631 1.399 . S
C1632 C1633 1.376 . S
C1633 H1620 0.930 . S
C1633 C1632 1.376 . S
C1633 C1634 1.388 . S
C1634 H1621 0.930 . S
C1634 C1633 1.388 . S
C1634 C1635 1.390 . S
C1635 C1634 1.390 . S
C1635 C1636 1.394 . S
C1635 C1641 1.465 . S
C1636 C1631 1.399 . S
C1636 C1635 1.394 . S
C1636 C1637 1.516 . S
C1637 C1636 1.516 . S
C1637 C1638 1.502 . S
C1637 C1639 1.561 . S
C1637 C1640 1.526 . S
C1638 H1622 0.959 . S
C1638 H1623 0.959 . S
C1638 H1624 0.961 . S
C1638 C1637 1.502 . S
C1639 H1625 0.960 . S
C1639 H1626 0.961 . S
C1639 H1627 0.959 . S
C1639 C1637 1.561 . S
C1640 C1637 1.526 . S
C1640 C1641 1.396 . S
C1640 C1645 1.390 . S
C1641 C1635 1.465 . S
C1641 C1640 1.396 . S
C1641 C1642 1.399 . S
C1642 H1628 0.929 . S
C1642 C1641 1.399 . S
C1642 C1643 1.385 . S
C1643 H1629 0.931 . S
C1643 C1642 1.385 . S
C1643 C1644 1.389 . S
C1644 C1643 1.389 . S
C1644 C1645 1.387 . S
C1645 H1630 0.930 . S
C1645 C1640 1.390 . S
C1645 C1644 1.387 . S
H1646 C1658 0.930 . S
H1647 C1660 0.930 . S
H1648 C1661 0.930 . S
H1649 C1665 0.959 . S
H1650 C1665 0.959 . S
H1651 C1665 0.961 . S
H1652 C1666 0.960 . S
H1653 C1666 0.961 . S
H1654 C1666 0.959 . S
H1655 C1669 0.929 . S
H1656 C1670 0.931 . S
H1657 C1672 0.930 . S
C1658 H1646 0.930 . S
C1658 C1659 1.399 . S
C1658 C1663 1.399 . S
C1659 C1658 1.399 . S
C1659 C1660 1.376 . S
C1660 H1647 0.930 . S
C1660 C1659 1.376 . S
C1660 C1661 1.388 . S
C1661 H1648 0.930 . S
C1661 C1660 1.388 . S
C1661 C1662 1.390 . S
C1662 C1661 1.390 . S
C1662 C1663 1.394 . S
C1662 C1668 1.465 . S
C1663 C1658 1.399 . S
C1663 C1662 1.394 . S
C1663 C1664 1.516 . S
C1664 C1663 1.516 . S
C1664 C1665 1.502 . S
C1664 C1666 1.561 . S
C1664 C1667 1.526 . S
C1665 H1649 0.959 . S
C1665 H1650 0.959 . S
C1665 H1651 0.961 . S
C1665 C1664 1.502 . S
C1666 H1652 0.960 . S
C1666 H1653 0.961 . S
C1666 H1654 0.959 . S
C1666 C1664 1.561 . S
C1667 C1664 1.526 . S
C1667 C1668 1.396 . S
C1667 C1672 1.390 . S
C1668 C1662 1.465 . S
C1668 C1667 1.396 . S
C1668 C1669 1.399 . S
C1669 H1655 0.929 . S
C1669 C1668 1.399 . S
C1669 C1670 1.385 . S
C1670 H1656 0.931 . S
C1670 C1669 1.385 . S
C1670 C1671 1.389 . S
C1671 C1670 1.389 . S
C1671 C1672 1.387 . S
C1672 H1657 0.930 . S
C1672 C1667 1.390 . S
C1672 C1671 1.387 . S
H1673 C1685 0.930 . S
H1674 C1687 0.930 . S
H1675 C1688 0.930 . S
H1676 C1692 0.959 . S
H1677 C1692 0.959 . S
H1678 C1692 0.961 . S
H1679 C1693 0.960 . S
H1680 C1693 0.961 . S
H1681 C1693 0.959 . S
H1682 C1696 0.929 . S
H1683 C1697 0.931 . S
H1684 C1699 0.930 . S
C1685 H1673 0.930 . S
C1685 C1686 1.399 . S
C1685 C1690 1.399 . S
C1686 C1685 1.399 . S
C1686 C1687 1.376 . S
C1687 H1674 0.930 . S
C1687 C1686 1.376 . S
C1687 C1688 1.388 . S
C1688 H1675 0.930 . S
C1688 C1687 1.388 . S
C1688 C1689 1.390 . S
C1689 C1688 1.390 . S
C1689 C1690 1.394 . S
C1689 C1695 1.465 . S
C1690 C1685 1.399 . S
C1690 C1689 1.394 . S
C1690 C1691 1.516 . S
C1691 C1690 1.516 . S
C1691 C1692 1.502 . S
C1691 C1693 1.561 . S
C1691 C1694 1.526 . S
C1692 H1676 0.959 . S
C1692 H1677 0.959 . S
C1692 H1678 0.961 . S
C1692 C1691 1.502 . S
C1693 H1679 0.960 . S
C1693 H1680 0.961 . S
C1693 H1681 0.959 . S
C1693 C1691 1.561 . S
C1694 C1691 1.526 . S
C1694 C1695 1.396 . S
C1694 C1699 1.390 . S
C1695 C1689 1.465 . S
C1695 C1694 1.396 . S
C1695 C1696 1.399 . S
C1696 H1682 0.929 . S
C1696 C1695 1.399 . S
C1696 C1697 1.385 . S
C1697 H1683 0.931 . S
C1697 C1696 1.385 . S
C1697 C1698 1.389 . S
C1698 C1697 1.389 . S
C1698 C1699 1.387 . S
C1699 H1684 0.930 . S
C1699 C1694 1.390 . S
C1699 C1698 1.387 . S
H1700 C1712 0.930 . S
H1701 C1714 0.930 . S
H1702 C1715 0.930 . S
H1703 C1719 0.959 . S
H1704 C1719 0.959 . S
H1705 C1719 0.961 . S
H1706 C1720 0.960 . S
H1707 C1720 0.961 . S
H1708 C1720 0.959 . S
H1709 C1723 0.929 . S
H1710 C1724 0.931 . S
H1711 C1726 0.930 . S
C1712 H1700 0.930 . S
C1712 C1713 1.399 . S
C1712 C1717 1.399 . S
C1713 C1712 1.399 . S
C1713 C1714 1.376 . S
C1714 H1701 0.930 . S
C1714 C1713 1.376 . S
C1714 C1715 1.388 . S
C1715 H1702 0.930 . S
C1715 C1714 1.388 . S
C1715 C1716 1.390 . S
C1716 C1715 1.390 . S
C1716 C1717 1.394 . S
C1716 C1722 1.465 . S
C1717 C1712 1.399 . S
C1717 C1716 1.394 . S
C1717 C1718 1.516 . S
C1718 C1717 1.516 . S
C1718 C1719 1.502 . S
C1718 C1720 1.561 . S
C1718 C1721 1.526 . S
C1719 H1703 0.959 . S
C1719 H1704 0.959 . S
C1719 H1705 0.961 . S
C1719 C1718 1.502 . S
C1720 H1706 0.960 . S
C1720 H1707 0.961 . S
C1720 H1708 0.959 . S
C1720 C1718 1.561 . S
C1721 C1718 1.526 . S
C1721 C1722 1.396 . S
C1721 C1726 1.390 . S
C1722 C1716 1.465 . S
C1722 C1721 1.396 . S
C1722 C1723 1.399 . S
C1723 H1709 0.929 . S
C1723 C1722 1.399 . S
C1723 C1724 1.385 . S
C1724 H1710 0.931 . S
C1724 C1723 1.385 . S
C1724 C1725 1.389 . S
C1725 C1724 1.389 . S
C1725 C1726 1.387 . S
C1726 H1711 0.930 . S
C1726 C1721 1.390 . S
C1726 C1725 1.387 . S
H1727 C1739 0.930 . S
H1728 C1741 0.930 . S
H1729 C1742 0.930 . S
H1730 C1746 0.959 . S
H1731 C1746 0.959 . S
H1732 C1746 0.961 . S
H1733 C1747 0.960 . S
H1734 C1747 0.961 . S
H1735 C1747 0.959 . S
H1736 C1750 0.929 . S
H1737 C1751 0.931 . S
H1738 C1753 0.930 . S
C1739 H1727 0.930 . S
C1739 C1740 1.399 . S
C1739 C1744 1.399 . S
C1740 C1739 1.399 . S
C1740 C1741 1.376 . S
C1741 H1728 0.930 . S
C1741 C1740 1.376 . S
C1741 C1742 1.388 . S
C1742 H1729 0.930 . S
C1742 C1741 1.388 . S
C1742 C1743 1.390 . S
C1743 C1742 1.390 . S
C1743 C1744 1.394 . S
C1743 C1749 1.465 . S
C1744 C1739 1.399 . S
C1744 C1743 1.394 . S
C1744 C1745 1.516 . S
C1745 C1744 1.516 . S
C1745 C1746 1.502 . S
C1745 C1747 1.561 . S
C1745 C1748 1.526 . S
C1746 H1730 0.959 . S
C1746 H1731 0.959 . S
C1746 H1732 0.961 . S
C1746 C1745 1.502 . S
C1747 H1733 0.960 . S
C1747 H1734 0.961 . S
C1747 H1735 0.959 . S
C1747 C1745 1.561 . S
C1748 C1745 1.526 . S
C1748 C1749 1.396 . S
C1748 C1753 1.390 . S
C1749 C1743 1.465 . S
C1749 C1748 1.396 . S
C1749 C1750 1.399 . S
C1750 H1736 0.929 . S
C1750 C1749 1.399 . S
C1750 C1751 1.385 . S
C1751 H1737 0.931 . S
C1751 C1750 1.385 . S
C1751 C1752 1.389 . S
C1752 C1751 1.389 . S
C1752 C1753 1.387 . S
C1753 H1738 0.930 . S
C1753 C1748 1.390 . S
C1753 C1752 1.387 . S
H1754 C1766 0.930 . S
H1755 C1768 0.930 . S
H1756 C1769 0.930 . S
H1757 C1773 0.959 . S
H1758 C1773 0.959 . S
H1759 C1773 0.961 . S
H1760 C1774 0.960 . S
H1761 C1774 0.961 . S
H1762 C1774 0.959 . S
H1763 C1777 0.929 . S
H1764 C1778 0.931 . S
H1765 C1780 0.930 . S
C1766 H1754 0.930 . S
C1766 C1767 1.399 . S
C1766 C1771 1.399 . S
C1767 C1766 1.399 . S
C1767 C1768 1.376 . S
C1768 H1755 0.930 . S
C1768 C1767 1.376 . S
C1768 C1769 1.388 . S
C1769 H1756 0.930 . S
C1769 C1768 1.388 . S
C1769 C1770 1.390 . S
C1770 C1769 1.390 . S
C1770 C1771 1.394 . S
C1770 C1776 1.465 . S
C1771 C1766 1.399 . S
C1771 C1770 1.394 . S
C1771 C1772 1.516 . S
C1772 C1771 1.516 . S
C1772 C1773 1.502 . S
C1772 C1774 1.561 . S
C1772 C1775 1.526 . S
C1773 H1757 0.959 . S
C1773 H1758 0.959 . S
C1773 H1759 0.961 . S
C1773 C1772 1.502 . S
C1774 H1760 0.960 . S
C1774 H1761 0.961 . S
C1774 H1762 0.959 . S
C1774 C1772 1.561 . S
C1775 C1772 1.526 . S
C1775 C1776 1.396 . S
C1775 C1780 1.390 . S
C1776 C1770 1.465 . S
C1776 C1775 1.396 . S
C1776 C1777 1.399 . S
C1777 H1763 0.929 . S
C1777 C1776 1.399 . S
C1777 C1778 1.385 . S
C1778 H1764 0.931 . S
C1778 C1777 1.385 . S
C1778 C1779 1.389 . S
C1779 C1778 1.389 . S
C1779 C1780 1.387 . S
C1780 H1765 0.930 . S
C1780 C1775 1.390 . S
C1780 C1779 1.387 . S
H1781 C1793 0.930 . S
H1782 C1795 0.930 . S
H1783 C1796 0.930 . S
H1784 C1800 0.959 . S
H1785 C1800 0.959 . S
H1786 C1800 0.961 . S
H1787 C1801 0.960 . S
H1788 C1801 0.961 . S
H1789 C1801 0.959 . S
H1790 C1804 0.929 . S
H1791 C1805 0.931 . S
H1792 C1807 0.930 . S
C1793 H1781 0.930 . S
C1793 C1794 1.399 . S
C1793 C1798 1.399 . S
C1794 C1793 1.399 . S
C1794 C1795 1.376 . S
C1795 H1782 0.930 . S
C1795 C1794 1.376 . S
C1795 C1796 1.388 . S
C1796 H1783 0.930 . S
C1796 C1795 1.388 . S
C1796 C1797 1.390 . S
C1797 C1796 1.390 . S
C1797 C1798 1.394 . S
C1797 C1803 1.465 . S
C1798 C1793 1.399 . S
C1798 C1797 1.394 . S
C1798 C1799 1.516 . S
C1799 C1798 1.516 . S
C1799 C1800 1.502 . S
C1799 C1801 1.561 . S
C1799 C1802 1.526 . S
C1800 H1784 0.959 . S
C1800 H1785 0.959 . S
C1800 H1786 0.961 . S
C1800 C1799 1.502 . S
C1801 H1787 0.960 . S
C1801 H1788 0.961 . S
C1801 H1789 0.959 . S
C1801 C1799 1.561 . S
C1802 C1799 1.526 . S
C1802 C1803 1.396 . S
C1802 C1807 1.390 . S
C1803 C1797 1.465 . S
C1803 C1802 1.396 . S
C1803 C1804 1.399 . S
C1804 H1790 0.929 . S
C1804 C1803 1.399 . S
C1804 C1805 1.385 . S
C1805 H1791 0.931 . S
C1805 C1804 1.385 . S
C1805 C1806 1.389 . S
C1806 C1805 1.389 . S
C1806 C1807 1.387 . S
C1807 H1792 0.930 . S
C1807 C1802 1.390 . S
C1807 C1806 1.387 . S
C957 C3 1.603 . S
C969 C713 1.629 . S
C984 C772 1.623 . S
C996 C62 1.634 . S
C1011 C121 1.605 . S
C1023 C831 1.630 . S
C1038 C890 1.610 . S
C1050 C180 1.607 . S
C1065 C475 1.628 . S
C1077 C241 1.610 . S
C1092 C300 1.635 . S
C1104 C534 1.614 . S
C1119 C593 1.630 . S
C1131 C359 1.611 . S
C1146 C418 1.607 . S
C1158 C652 1.612 . S
C1173 C33 1.778 . S
C1185 C151 1.784 . S
C1200 C92 1.783 . S
C1212 C210 1.767 . S
C1227 C269 1.616 . S
C1239 C387 1.566 . S
C1254 C328 1.620 . S
C1266 C446 1.566 . S
C1281 C623 1.778 . S
C1293 C505 1.772 . S
C1308 C564 1.803 . S
C1320 C682 1.753 . S
C1335 C859 1.620 . S
C1347 C741 1.566 . S
C1362 C800 1.583 . S
C1374 C918 1.615 . S
C1389 C406 1.636 . S
C1401 C52 1.673 . S
C1416 C465 1.639 . S
C1428 C111 1.679 . S
C1443 C170 1.671 . S
C1455 C288 1.656 . S
C1470 C229 1.672 . S
C1482 C347 1.654 . S
C1497 C878 1.675 . S
C1509 C524 1.648 . S
C1524 C583 1.655 . S
C1536 C937 1.655 . S
C1551 C760 1.661 . S
C1563 C642 1.652 . S
C1578 C701 1.668 . S
C1590 C819 1.660 . S
C1605 C5 1.855 . S
C1617 C182 1.850 . S
C1632 C123 1.857 . S
C1644 C64 1.845 . S
C1659 C239 1.237 . S
C1671 C416 1.249 . S
C1686 C298 1.284 . S
C1698 C357 1.273 . S
C1713 C654 1.839 . S
C1725 C477 1.852 . S
C1740 C536 1.840 . S
C1752 C595 1.851 . S
C1767 C888 1.238 . S
C1779 C711 1.252 . S
C1794 C770 1.238 . S
C1806 C829 1.253 . S
