# Generated by pormake.
# Topology ume, (4)-cn, num edge types: 1
# Building blocks:
#     Node 0, Type 0, BuildingBlock: MUDLON_clean_sbu_0, # of connection points: 4
#     Node 1, Type 0, BuildingBlock: MUDLON_clean_sbu_0, # of connection points: 4
#     Node 2, Type 0, BuildingBlock: MUDLON_clean_sbu_0, # of connection points: 4
#     Node 3, Type 0, BuildingBlock: MUDLON_clean_sbu_0, # of connection points: 4
#     Node 4, Type 0, BuildingBlock: MUDLON_clean_sbu_0, # of connection points: 4
#     Node 5, Type 0, BuildingBlock: MUDLON_clean_sbu_0, # of connection points: 4
#     Node 6, Type 0, BuildingBlock: MUDLON_clean_sbu_0, # of connection points: 4
#     Node 7, Type 0, BuildingBlock: MUDLON_clean_sbu_0, # of connection points: 4
#     Node 8, Type 0, BuildingBlock: MUDLON_clean_sbu_0, # of connection points: 4
#     Node 9, Type 0, BuildingBlock: MUDLON_clean_sbu_0, # of connection points: 4
#     Node 10, Type 0, BuildingBlock: MUDLON_clean_sbu_0, # of connection points: 4
#     Node 11, Type 0, BuildingBlock: MUDLON_clean_sbu_0, # of connection points: 4
#     Node 12, Type 0, BuildingBlock: MUDLON_clean_sbu_0, # of connection points: 4
#     Node 13, Type 0, BuildingBlock: MUDLON_clean_sbu_0, # of connection points: 4
#     Node 14, Type 0, BuildingBlock: MUDLON_clean_sbu_0, # of connection points: 4
#     Node 15, Type 0, BuildingBlock: MUDLON_clean_sbu_0, # of connection points: 4
#     Edge 16, Type (0, 0), BuildingBlock: KIFKEQ_clean_linker_1, # of connection points: 2
#     Edge 17, Type (0, 0), BuildingBlock: KIFKEQ_clean_linker_1, # of connection points: 2
#     Edge 18, Type (0, 0), BuildingBlock: KIFKEQ_clean_linker_1, # of connection points: 2
#     Edge 19, Type (0, 0), BuildingBlock: KIFKEQ_clean_linker_1, # of connection points: 2
#     Edge 20, Type (0, 0), BuildingBlock: KIFKEQ_clean_linker_1, # of connection points: 2
#     Edge 21, Type (0, 0), BuildingBlock: KIFKEQ_clean_linker_1, # of connection points: 2
#     Edge 22, Type (0, 0), BuildingBlock: KIFKEQ_clean_linker_1, # of connection points: 2
#     Edge 23, Type (0, 0), BuildingBlock: KIFKEQ_clean_linker_1, # of connection points: 2
#     Edge 24, Type (0, 0), BuildingBlock: KIFKEQ_clean_linker_1, # of connection points: 2
#     Edge 25, Type (0, 0), BuildingBlock: KIFKEQ_clean_linker_1, # of connection points: 2
#     Edge 26, Type (0, 0), BuildingBlock: KIFKEQ_clean_linker_1, # of connection points: 2
#     Edge 27, Type (0, 0), BuildingBlock: KIFKEQ_clean_linker_1, # of connection points: 2
#     Edge 28, Type (0, 0), BuildingBlock: KIFKEQ_clean_linker_1, # of connection points: 2
#     Edge 29, Type (0, 0), BuildingBlock: KIFKEQ_clean_linker_1, # of connection points: 2
#     Edge 30, Type (0, 0), BuildingBlock: KIFKEQ_clean_linker_1, # of connection points: 2
#     Edge 31, Type (0, 0), BuildingBlock: KIFKEQ_clean_linker_1, # of connection points: 2
#     Edge 32, Type (0, 0), BuildingBlock: KIFKEQ_clean_linker_1, # of connection points: 2
#     Edge 33, Type (0, 0), BuildingBlock: KIFKEQ_clean_linker_1, # of connection points: 2
#     Edge 34, Type (0, 0), BuildingBlock: KIFKEQ_clean_linker_1, # of connection points: 2
#     Edge 35, Type (0, 0), BuildingBlock: KIFKEQ_clean_linker_1, # of connection points: 2
#     Edge 36, Type (0, 0), BuildingBlock: KIFKEQ_clean_linker_1, # of connection points: 2
#     Edge 37, Type (0, 0), BuildingBlock: KIFKEQ_clean_linker_1, # of connection points: 2
#     Edge 38, Type (0, 0), BuildingBlock: KIFKEQ_clean_linker_1, # of connection points: 2
#     Edge 39, Type (0, 0), BuildingBlock: KIFKEQ_clean_linker_1, # of connection points: 2
#     Edge 40, Type (0, 0), BuildingBlock: KIFKEQ_clean_linker_1, # of connection points: 2
#     Edge 41, Type (0, 0), BuildingBlock: KIFKEQ_clean_linker_1, # of connection points: 2
#     Edge 42, Type (0, 0), BuildingBlock: KIFKEQ_clean_linker_1, # of connection points: 2
#     Edge 43, Type (0, 0), BuildingBlock: KIFKEQ_clean_linker_1, # of connection points: 2
#     Edge 44, Type (0, 0), BuildingBlock: KIFKEQ_clean_linker_1, # of connection points: 2
#     Edge 45, Type (0, 0), BuildingBlock: KIFKEQ_clean_linker_1, # of connection points: 2
#     Edge 46, Type (0, 0), BuildingBlock: KIFKEQ_clean_linker_1, # of connection points: 2
#     Edge 47, Type (0, 0), BuildingBlock: KIFKEQ_clean_linker_1, # of connection points: 2
# Relax obj value: 0.086
# Max RMSD: 0.263
# Mean RMSD: 0.263
data_MOF--net-ume--node1-MUDLON_clean_sbu_0--edge1-KIFKEQ_clean_linker_1
_symmetry_space_group_name_H-M    P1
_symmetry_Int_Tables_number       1
_symmetry_cell_setting            triclinic
loop_
_symmetry_equiv_pos_as_xyz
'x, y, z'
_cell_length_a     29.699964
_cell_length_b     29.811911
_cell_length_c     119.59214
_cell_angle_alpha  90.044074
_cell_angle_beta   89.983677
_cell_angle_gamma 89.926182
loop_
_atom_site_label
_atom_site_type_symbol
_atom_site_fract_x
_atom_site_fract_y
_atom_site_fract_z
_atom_type_partial_charge
Mg0 Mg 0.26008 0.09889 0.32741 0.0
C1 C 0.35715 0.08448 0.32925 0.0
O2 O 0.34993 0.12617 0.33236 0.0
C3 C 0.1673 0.05958 0.3324 0.0
O4 O 0.1771 0.07679 0.3422 0.0
C5 C 0.24591 0.14394 0.30505 0.0
O6 O 0.21639 0.11128 0.30436 0.0
O7 O 0.26744 0.14925 0.31417 0.0
O8 O 0.32339 0.06095 0.32625 0.0
O9 O 0.25933 0.12378 0.34476 0.0
C10 C 0.27074 0.0938 0.35181 0.0
O11 O 0.28202 0.054 0.34798 0.0
O12 O 0.19655 0.06182 0.3246 0.0
Mg13 Mg 0.90454 0.75575 0.57725 0.0
C14 C 0.89914 0.77306 0.60196 0.0
O15 O 0.93655 0.79366 0.59917 0.0
C16 C 0.86347 0.74376 0.55418 0.0
O17 O 0.89703 0.71513 0.55352 0.0
C18 C 0.9222 0.65678 0.57729 0.0
O19 O 0.87996 0.65891 0.58052 0.0
O20 O 0.94271 0.69326 0.57509 0.0
O21 O 0.87624 0.75397 0.5943 0.0
O22 O 0.94547 0.81653 0.57614 0.0
C23 C 0.9235 0.85305 0.57716 0.0
O24 O 0.87977 0.85086 0.57875 0.0
O25 O 0.85631 0.76374 0.56344 0.0
Mg26 Mg 0.25746 0.41337 0.82713 0.0
C27 C 0.16442 0.44201 0.83335 0.0
O28 O 0.17146 0.40786 0.84005 0.0
C29 C 0.35674 0.43071 0.82635 0.0
O30 O 0.35486 0.38876 0.82968 0.0
C31 C 0.26821 0.36932 0.8044 0.0
O32 O 0.29854 0.40117 0.80356 0.0
O33 O 0.24755 0.36431 0.81366 0.0
O34 O 0.19593 0.45414 0.82678 0.0
O35 O 0.26184 0.38758 0.84433 0.0
C36 C 0.27466 0.41736 0.85128 0.0
O37 O 0.28552 0.45711 0.84739 0.0
O38 O 0.31993 0.45114 0.82428 0.0
Mg39 Mg 0.59687 0.75275 0.07936 0.0
C40 C 0.63943 0.72995 0.10237 0.0
O41 O 0.6333 0.6884 0.09905 0.0
C42 C 0.67568 0.73363 0.06222 0.0
O43 O 0.69949 0.72032 0.07086 0.0
C44 C 0.57559 0.85002 0.07902 0.0
O45 O 0.61878 0.84887 0.0814 0.0
O46 O 0.55502 0.81295 0.07759 0.0
O47 O 0.63076 0.76188 0.09561 0.0
O48 O 0.5583 0.69004 0.07997 0.0
C49 C 0.57988 0.65398 0.07791 0.0
O50 O 0.62297 0.6567 0.07553 0.0
O51 O 0.63618 0.74901 0.06379 0.0
Mg52 Mg 0.25539 0.41144 0.95936 0.0
C53 C 0.34953 0.43759 0.95397 0.0
O54 O 0.34315 0.40211 0.94765 0.0
C55 C 0.15654 0.42772 0.96264 0.0
O56 O 0.15838 0.38373 0.96208 0.0
C57 C 0.24628 0.37226 0.98239 0.0
O58 O 0.2222 0.40907 0.9833 0.0
O59 O 0.26321 0.36239 0.9729 0.0
O60 O 0.31712 0.45152 0.96004 0.0
O61 O 0.25201 0.38624 0.9421 0.0
C62 C 0.24172 0.41717 0.9352 0.0
O63 O 0.2326 0.45721 0.93922 0.0
O64 O 0.19314 0.44982 0.96197 0.0
Mg65 Mg 0.59761 0.75714 0.20868 0.0
C66 C 0.63883 0.78191 0.18579 0.0
O67 O 0.62988 0.82292 0.18915 0.0
C68 C 0.67579 0.77523 0.22598 0.0
O69 O 0.69946 0.78913 0.21737 0.0
C70 C 0.57723 0.65974 0.20901 0.0
O71 O 0.621 0.66107 0.20743 0.0
O72 O 0.55599 0.69671 0.20998 0.0
O73 O 0.63241 0.74941 0.19253 0.0
O74 O 0.55856 0.8197 0.20814 0.0
C75 C 0.57824 0.85523 0.2115 0.0
O76 O 0.61994 0.85222 0.21506 0.0
O77 O 0.63638 0.75978 0.22436 0.0
Mg78 Mg 0.25136 0.09382 0.45975 0.0
C79 C 0.16584 0.05005 0.46938 0.0
O80 O 0.17817 0.07174 0.47843 0.0
C81 C 0.33645 0.04104 0.45388 0.0
O82 O 0.3145 0.03732 0.4444 0.0
C83 C 0.2632 0.13981 0.48219 0.0
O84 O 0.29433 0.10861 0.48296 0.0
O85 O 0.24155 0.14378 0.47304 0.0
O86 O 0.19157 0.05055 0.46085 0.0
O87 O 0.25112 0.12011 0.4425 0.0
C88 C 0.23116 0.09541 0.43535 0.0
O89 O 0.21117 0.05883 0.4389 0.0
O90 O 0.31727 0.06085 0.46205 0.0
Mg91 Mg 0.90834 0.75588 0.70896 0.0
C92 C 0.87951 0.72936 0.68511 0.0
O93 O 0.89401 0.68995 0.68844 0.0
C94 C 0.87484 0.76334 0.73267 0.0
O95 O 0.91387 0.78383 0.73335 0.0
C96 C 0.92694 0.85365 0.71305 0.0
O97 O 0.88292 0.85213 0.71407 0.0
O98 O 0.94817 0.81728 0.71109 0.0
O99 O 0.87877 0.76169 0.6921 0.0
O100 O 0.94852 0.69425 0.70946 0.0
C101 C 0.92686 0.65824 0.71145 0.0
O102 O 0.88322 0.66086 0.71316 0.0
O103 O 0.86157 0.74941 0.72314 0.0
Mg104 Mg 0.75881 0.6058 0.8284 0.0
C105 C 0.85272 0.57883 0.83396 0.0
O106 O 0.84642 0.61433 0.84028 0.0
C107 C 0.65961 0.5875 0.82789 0.0
O108 O 0.66122 0.62885 0.83168 0.0
C109 C 0.7474 0.64969 0.80566 0.0
O110 O 0.71614 0.61866 0.80502 0.0
O111 O 0.76876 0.65449 0.81483 0.0
O112 O 0.82031 0.56511 0.82787 0.0
O113 O 0.75491 0.63108 0.8457 0.0
C114 C 0.74565 0.60002 0.85264 0.0
O115 O 0.73791 0.55963 0.84868 0.0
O116 O 0.69652 0.56779 0.82552 0.0
Mg117 Mg 0.40657 0.25307 0.07745 0.0
C118 C 0.40818 0.23365 0.10153 0.0
O119 O 0.4468 0.2187 0.09766 0.0
C120 C 0.36354 0.24296 0.05466 0.0
O121 O 0.39549 0.21258 0.05396 0.0
C122 C 0.42117 0.15362 0.07689 0.0
O123 O 0.3791 0.15678 0.08021 0.0
O124 O 0.44263 0.1896 0.07474 0.0
O125 O 0.38033 0.25064 0.09462 0.0
O126 O 0.44911 0.31289 0.07694 0.0
C127 C 0.43271 0.34748 0.08171 0.0
O128 O 0.39353 0.34395 0.08674 0.0
O129 O 0.35796 0.26364 0.0639 0.0
Mg130 Mg 0.75636 0.90683 0.32763 0.0
C131 C 0.67559 0.96386 0.33443 0.0
O132 O 0.69009 0.95274 0.34443 0.0
C133 C 0.84108 0.96819 0.32193 0.0
O134 O 0.8157 0.98916 0.31461 0.0
C135 C 0.751 0.88488 0.30361 0.0
O136 O 0.75486 0.92873 0.30406 0.0
O137 O 0.75089 0.86315 0.3128 0.0
O138 O 0.69873 0.95243 0.32593 0.0
O139 O 0.74899 0.87585 0.34427 0.0
C140 C 0.78388 0.86746 0.35012 0.0
O141 O 0.82364 0.87144 0.34541 0.0
O142 O 0.8242 0.93683 0.32782 0.0
Mg143 Mg 0.09497 0.25444 0.57688 0.0
C144 C 0.08837 0.24306 0.60116 0.0
O145 O 0.04834 0.23335 0.59716 0.0
C146 C 0.13641 0.26504 0.55407 0.0
O147 O 0.10071 0.29086 0.5532 0.0
C148 C 0.07762 0.35346 0.57714 0.0
O149 O 0.11944 0.35103 0.58068 0.0
O150 O 0.05728 0.31717 0.57466 0.0
O151 O 0.11913 0.2542 0.59427 0.0
O152 O 0.05417 0.19376 0.57527 0.0
C153 C 0.0748 0.15764 0.57778 0.0
O154 O 0.11704 0.16029 0.58099 0.0
O155 O 0.14503 0.24705 0.5635 0.0
Mg156 Mg 0.75408 0.90541 0.45838 0.0
C157 C 0.84957 0.92515 0.46444 0.0
O158 O 0.84501 0.88277 0.46718 0.0
C159 C 0.66705 0.95413 0.45194 0.0
O160 O 0.68509 0.94969 0.44197 0.0
C161 C 0.74148 0.86605 0.48145 0.0
O162 O 0.71698 0.90263 0.48224 0.0
O163 O 0.7589 0.85611 0.47202 0.0
O164 O 0.81559 0.94598 0.46047 0.0
O165 O 0.75556 0.87777 0.44121 0.0
C166 C 0.78028 0.89787 0.43408 0.0
O167 O 0.80467 0.93201 0.43746 0.0
O168 O 0.68938 0.94093 0.46042 0.0
Mg169 Mg 0.09795 0.25585 0.7097 0.0
C170 C 0.08883 0.26058 0.68549 0.0
O171 O 0.04828 0.26599 0.6897 0.0
C172 C 0.13794 0.24736 0.73266 0.0
O173 O 0.10042 0.22448 0.73374 0.0
C174 C 0.08181 0.15702 0.7131 0.0
O175 O 0.126 0.15875 0.71334 0.0
O176 O 0.05983 0.19347 0.71193 0.0
O177 O 0.12145 0.25496 0.69227 0.0
O178 O 0.05721 0.31676 0.71119 0.0
C179 C 0.0751 0.3521 0.70718 0.0
O180 O 0.11488 0.34887 0.70244 0.0
O181 O 0.14808 0.26306 0.72307 0.0
Mg182 Mg 0.75442 0.60183 0.96074 0.0
C183 C 0.66116 0.57377 0.9541 0.0
O184 O 0.66908 0.60636 0.94699 0.0
C185 C 0.85171 0.58142 0.96562 0.0
O186 O 0.84997 0.6247 0.96767 0.0
C187 C 0.75476 0.62529 0.98462 0.0
O188 O 0.76416 0.58223 0.9842 0.0
O189 O 0.74929 0.64616 0.97541 0.0
O190 O 0.69196 0.56267 0.96098 0.0
O191 O 0.75919 0.63035 0.94376 0.0
C192 C 0.77334 0.60153 0.93669 0.0
O193 O 0.78491 0.56169 0.94041 0.0
O194 O 0.81561 0.56127 0.96282 0.0
Mg195 Mg 0.40656 0.25705 0.20961 0.0
C196 C 0.4133 0.26129 0.18546 0.0
O197 O 0.45416 0.26672 0.18946 0.0
C198 C 0.36579 0.26835 0.23252 0.0
O199 O 0.4001 0.296 0.23315 0.0
C200 C 0.4234 0.356 0.20849 0.0
O201 O 0.38272 0.35265 0.20425 0.0
O202 O 0.44322 0.32035 0.21172 0.0
O203 O 0.38113 0.2566 0.19241 0.0
O204 O 0.44865 0.19696 0.21051 0.0
C205 C 0.42668 0.16029 0.21086 0.0
O206 O 0.38247 0.16217 0.2109 0.0
O207 O 0.35784 0.24887 0.22324 0.0
H208 H 0.89043 0.02919 0.30983 0.0
H209 H 0.90213 0.93323 0.33673 0.0
H210 H 0.97011 0.04794 0.31191 0.0
H211 H 0.98164 0.9516 0.33869 0.0
H212 H 0.10455 0.03765 0.34806 0.0
H213 H 0.027 0.01433 0.34519 0.0
H214 H 0.04725 0.01734 0.30945 0.0
H215 H 0.12539 0.04122 0.31233 0.0
C216 C 0.90994 0.012 0.31617 0.0
C217 C 0.88963 0.97985 0.32315 0.0
C218 C 0.95577 0.02251 0.3173 0.0
C219 C 0.98241 1.00133 0.32547 0.0
C220 C 0.96211 0.96899 0.33239 0.0
C221 C 0.91643 0.95835 0.33124 0.0
C222 C 0.09271 0.03304 0.33957 0.0
C223 C 0.12132 0.04138 0.33043 0.0
C224 C 0.04816 0.01941 0.33793 0.0
C225 C 0.03069 0.01398 0.32709 0.0
C226 C 0.05946 0.02162 0.31791 0.0
C227 C 0.10436 0.03492 0.31956 0.0
H228 H 0.0091 0.63856 0.57067 0.0
H229 H 0.88718 0.57436 0.58208 0.0
H230 H 0.04632 0.56547 0.56975 0.0
H231 H 0.9245 0.50179 0.58143 0.0
H232 H 0.99153 0.37222 0.57002 0.0
H233 H 0.95448 0.44539 0.56918 0.0
H234 H 0.07503 0.50818 0.58193 0.0
H235 H 0.11221 0.43553 0.58251 0.0
C236 C 0.99023 0.60892 0.57299 0.0
C237 C 0.94514 0.61247 0.57647 0.0
C238 C 0.01164 0.56697 0.57252 0.0
C239 C 0.98851 0.52751 0.57553 0.0
C240 C 0.94327 0.53118 0.57889 0.0
C241 C 0.92191 0.57301 0.57934 0.0
C242 C 0.01016 0.40168 0.57259 0.0
C243 C 0.05485 0.39785 0.57635 0.0
C244 C 0.98885 0.44367 0.57217 0.0
C245 C 0.01166 0.48291 0.5755 0.0
C246 C 0.05652 0.47898 0.57913 0.0
C247 C 0.07779 0.4371 0.57955 0.0
H248 H 0.64231 0.50224 0.82016 0.0
H249 H 0.57644 0.6208 0.833 0.0
H250 H 0.56934 0.46482 0.81873 0.0
H251 H 0.50401 0.58325 0.83185 0.0
H252 H 0.37448 0.51767 0.82 0.0
H253 H 0.44755 0.55523 0.81936 0.0
H254 H 0.51226 0.43338 0.83053 0.0
H255 H 0.43974 0.39576 0.83089 0.0
C256 C 0.61233 0.52033 0.82268 0.0
C257 C 0.61538 0.56452 0.82672 0.0
C258 C 0.57044 0.4988 0.82192 0.0
C259 C 0.53055 0.52091 0.82519 0.0
C260 C 0.53373 0.5653 0.82909 0.0
C261 C 0.57549 0.58678 0.82983 0.0
C262 C 0.40435 0.49885 0.82224 0.0
C263 C 0.40109 0.4537 0.82552 0.0
C264 C 0.44629 0.52045 0.82194 0.0
C265 C 0.48603 0.49745 0.82492 0.0
C266 C 0.48267 0.45209 0.82802 0.0
C267 C 0.44086 0.43055 0.82831 0.0
H268 H 0.38526 0.07239 0.08249 0.0
H269 H 0.50707 0.13327 0.06994 0.0
H270 H 0.42181 0.99939 0.08248 0.0
H271 H 0.54342 0.05975 0.06961 0.0
H272 H 0.61011 0.93292 0.08335 0.0
H273 H 0.57272 0.00523 0.08221 0.0
H274 H 0.45075 0.93992 0.07117 0.0
H275 H 0.48809 0.86701 0.07264 0.0
C276 C 0.41977 0.07018 0.07961 0.0
C277 C 0.44327 0.10887 0.07626 0.0
C278 C 0.44069 0.02809 0.07953 0.0
C279 C 0.4857 0.0234 0.07607 0.0
C280 C 0.50896 0.06205 0.07251 0.0
C281 C 0.48804 0.10425 0.07263 0.0
C282 C 0.57531 0.93383 0.08066 0.0
C283 C 0.55211 0.89399 0.07811 0.0
C284 C 0.5539 0.97552 0.07992 0.0
C285 C 0.50866 0.97872 0.07654 0.0
C286 C 0.48545 0.93883 0.07393 0.0
C287 C 0.5069 0.89697 0.07472 0.0
H288 H 0.07508 0.3895 0.96717 0.0
H289 H 0.13742 0.51754 0.96055 0.0
H290 H 1.00188 0.42576 0.9685 0.0
H291 H 0.06381 0.55383 0.9615 0.0
H292 H 0.9316 0.61252 0.97381 0.0
H293 H 1.00469 0.57556 0.97366 0.0
H294 H 0.94525 0.46014 0.95753 0.0
H295 H 0.87174 0.49671 0.95805 0.0
C296 C 0.07317 0.42545 0.96595 0.0
C297 C 0.11223 0.45058 0.96374 0.0
C298 C 0.031 0.44627 0.96664 0.0
C299 C 0.02656 0.49282 0.96505 0.0
C300 C 0.06579 0.51803 0.96293 0.0
C301 C 0.10809 0.4972 0.96233 0.0
C302 C 0.93403 0.57913 0.97029 0.0
C303 C 0.89571 0.5576 0.96595 0.0
C304 C 0.97615 0.55801 0.97012 0.0
C305 C 0.98126 0.51484 0.96552 0.0
C306 C 0.94271 0.4931 0.96129 0.0
C307 C 0.90047 0.51414 0.96154 0.0
H308 H 0.50584 0.37695 0.21754 0.0
H309 H 0.39094 0.43643 0.20109 0.0
H310 H 0.54187 0.45048 0.21842 0.0
H311 H 0.42728 0.50944 0.20169 0.0
H312 H 0.48754 0.64265 0.21303 0.0
H313 H 0.45017 0.56965 0.21368 0.0
H314 H 0.57681 0.50428 0.20645 0.0
H315 H 0.6141 0.57671 0.2061 0.0
C316 C 0.4883 0.40565 0.21409 0.0
C317 C 0.44552 0.40065 0.20923 0.0
C318 C 0.50904 0.44785 0.21454 0.0
C319 C 0.4876 0.48612 0.21011 0.0
C320 C 0.44461 0.48104 0.20534 0.0
C321 C 0.42387 0.43895 0.20493 0.0
C322 C 0.50737 0.61266 0.21162 0.0
C323 C 0.55384 0.61567 0.20951 0.0
C324 C 0.48593 0.57075 0.21194 0.0
C325 C 0.51041 0.53084 0.21013 0.0
C326 C 0.55691 0.53404 0.20808 0.0
C327 C 0.57829 0.57579 0.20779 0.0
H328 H 0.39765 0.05471 0.4709 0.0
H329 H 0.38399 0.99366 0.43832 0.0
H330 H 0.47786 0.03556 0.47099 0.0
H331 H 0.46331 0.97378 0.43851 0.0
H332 H 0.61346 0.98929 0.43561 0.0
H333 H 0.53448 0.01008 0.43675 0.0
H334 H 0.53306 0.97505 0.47179 0.0
H335 H 0.61294 0.95507 0.47069 0.0
C336 C 0.41156 0.03675 0.46382 0.0
C337 C 0.38428 0.02603 0.45457 0.0
C338 C 0.4576 0.02567 0.46388 0.0
C339 C 0.47745 1.00361 0.45469 0.0
C340 C 0.44967 0.99172 0.44563 0.0
C341 C 0.40389 1.00283 0.44556 0.0
C342 C 0.59653 0.98625 0.4436 0.0
C343 C 0.61969 0.97022 0.45304 0.0
C344 C 0.55095 0.99787 0.44424 0.0
C345 C 0.52691 0.99364 0.45433 0.0
C346 C 0.55039 0.97894 0.46389 0.0
C347 C 0.59623 0.96737 0.46325 0.0
H348 H 0.11838 0.07594 0.71866 0.0
H349 H 0.99282 0.13803 0.70904 0.0
H350 H 0.08167 1.00308 0.71926 0.0
H351 H 0.95626 0.06481 0.70923 0.0
H352 H 0.89269 0.93376 0.72015 0.0
H353 H 0.92979 0.00639 0.72077 0.0
H354 H 0.05147 0.94616 0.70776 0.0
H355 H 0.01463 0.87305 0.70753 0.0
C356 C 0.0829 0.07404 0.71663 0.0
C357 C 0.05858 0.11293 0.7138 0.0
C358 C 0.06185 0.03206 0.71689 0.0
C359 C 0.0159 0.02766 0.71424 0.0
C360 C 0.9915 0.06674 0.71149 0.0
C361 C 0.01251 0.10883 0.71133 0.0
C362 C 0.92746 0.93592 0.71746 0.0
C363 C 0.95064 0.89748 0.71378 0.0
C364 C 0.9487 0.97779 0.71774 0.0
C365 C 0.99368 0.98257 0.71425 0.0
C366 C 0.01703 0.94391 0.71067 0.0
C367 C 0.99584 0.90189 0.71048 0.0
H368 H 0.62371 0.96953 0.31545 0.0
H369 H 0.62408 1.00331 0.35058 0.0
H370 H 0.54637 0.99762 0.31388 0.0
H371 H 0.54722 0.03134 0.34898 0.0
H372 H 0.43038 0.12271 0.33895 0.0
H373 H 0.50718 0.09473 0.3397 0.0
H374 H 0.46754 0.97715 0.32108 0.0
H375 H 0.38978 0.0053 0.32033 0.0
C376 C 0.60752 0.98336 0.3228 0.0
C377 C 0.63022 0.98435 0.33314 0.0
C378 C 0.56307 0.999 0.32192 0.0
C379 C 0.5406 0.01658 0.33131 0.0
C380 C 0.56365 0.0183 0.34157 0.0
C381 C 0.60775 1.00218 0.34249 0.0
C382 C 0.4378 0.09085 0.33499 0.0
C383 C 0.40375 0.06621 0.32959 0.0
C384 C 0.48192 0.07474 0.33547 0.0
C385 C 0.49351 0.03369 0.33048 0.0
C386 C 0.4597 0.00909 0.32495 0.0
C387 C 0.41515 0.02504 0.32458 0.0
H388 H 0.01214 0.87178 0.57246 0.0
H389 H 0.88588 0.93504 0.58108 0.0
H390 H 0.04835 0.94529 0.57195 0.0
H391 H 0.92214 0.00804 0.58091 0.0
H392 H 0.99025 0.1374 0.56989 0.0
H393 H 0.95437 0.06376 0.56908 0.0
H394 H 0.07249 1.00405 0.58406 0.0
H395 H 0.10862 0.07707 0.58454 0.0
C396 C 0.99216 0.90131 0.57429 0.0
C397 C 0.94612 0.89744 0.57681 0.0
C398 C 0.01294 0.9435 0.57405 0.0
C399 C 0.98823 0.98281 0.57639 0.0
C400 C 0.94215 0.97876 0.57888 0.0
C401 C 0.92139 0.93671 0.57906 0.0
C402 C 0.00853 0.10851 0.57298 0.0
C403 C 0.05231 0.11322 0.57727 0.0
C404 C 0.98791 0.06625 0.57257 0.0
C405 C 0.01048 0.02774 0.5765 0.0
C406 C 0.05429 0.03264 0.58078 0.0
C407 C 0.07493 0.07473 0.58113 0.0
H408 H 0.1017 0.44065 0.84987 0.0
H409 H 0.1254 0.49228 0.81665 0.0
H410 H 0.02622 0.47282 0.84971 0.0
H411 H 0.04903 0.52417 0.81646 0.0
H412 H 0.88918 0.5246 0.81765 0.0
H413 H 0.96557 0.49286 0.81715 0.0
H414 H 0.9938 0.55266 0.84925 0.0
H415 H 0.91827 0.58467 0.84972 0.0
C416 C 0.09082 0.45898 0.84253 0.0
C417 C 0.11961 0.46404 0.83328 0.0
C418 C 0.04758 0.47745 0.84246 0.0
C419 C 0.0317 0.50086 0.83306 0.0
C420 C 0.06034 0.50596 0.82378 0.0
C421 C 0.1041 0.48809 0.82393 0.0
C422 C 0.91168 0.5307 0.82462 0.0
C423 C 0.89765 0.55705 0.83374 0.0
C424 C 0.95545 0.5129 0.82428 0.0
C425 C 0.98561 0.5204 0.83315 0.0
C426 C 0.97125 0.54616 0.84232 0.0
C427 C 0.92798 0.56454 0.84257 0.0
H428 H 0.62037 0.57198 0.07676 0.0
H429 H 0.48984 0.63453 0.08019 0.0
H430 H 0.58569 0.49837 0.07779 0.0
H431 H 0.4547 0.56054 0.08084 0.0
H432 H 0.41095 0.42315 0.09334 0.0
H433 H 0.4462 0.49656 0.09242 0.0
H434 H 0.54054 0.44636 0.06788 0.0
H435 H 0.50599 0.37224 0.0691 0.0
C436 C 0.58413 0.57006 0.07765 0.0
C437 C 0.55789 0.60928 0.07841 0.0
C438 C 0.56416 0.52767 0.07816 0.0
C439 C 0.51729 0.5232 0.07937 0.0
C440 C 0.49097 0.56252 0.08007 0.0
C441 C 0.51105 0.60503 0.07964 0.0
C442 C 0.43933 0.42765 0.08776 0.0
C443 C 0.45566 0.3917 0.0813 0.0
C444 C 0.45936 0.47001 0.08717 0.0
C445 C 0.49614 0.47777 0.08002 0.0
C446 C 0.51266 0.44165 0.07359 0.0
C447 C 0.49277 0.3991 0.07425 0.0
H448 H 0.38564 0.49294 0.97006 0.0
H449 H 0.41534 0.43056 0.93829 0.0
H450 H 0.46186 0.5249 0.97045 0.0
H451 H 0.49069 0.46273 0.93865 0.0
H452 H 0.5987 0.57389 0.9375 0.0
H453 H 0.52316 0.54205 0.93778 0.0
H454 H 0.54511 0.49425 0.97139 0.0
H455 H 0.62146 0.52583 0.97109 0.0
C456 C 0.40824 0.48635 0.96314 0.0
C457 C 0.39443 0.4593 0.95414 0.0
C458 C 0.45191 0.5043 0.96341 0.0
C459 C 0.48219 0.49622 0.95458 0.0
C460 C 0.46805 0.46972 0.94554 0.0
C461 C 0.42487 0.45123 0.94536 0.0
C462 C 0.5876 0.55644 0.94495 0.0
C463 C 0.61616 0.55225 0.95426 0.0
C464 C 0.54433 0.53815 0.94509 0.0
C465 C 0.52821 0.51579 0.95461 0.0
C466 C 0.55659 0.51164 0.96397 0.0
C467 C 0.60035 0.52934 0.96376 0.0
H468 H 0.49576 0.87721 0.20256 0.0
H469 H 0.60958 0.93414 0.21998 0.0
H470 H 0.46004 0.95106 0.20207 0.0
H471 H 0.57352 0.00732 0.21979 0.0
H472 H 0.51681 0.14182 0.20819 0.0
H473 H 0.55315 0.06824 0.20792 0.0
H474 H 0.42446 0.00507 0.21385 0.0
H475 H 0.38821 0.07817 0.21378 0.0
C476 C 0.51303 0.90538 0.20635 0.0
C477 C 0.55554 0.89967 0.2113 0.0
C478 C 0.49248 0.94775 0.20612 0.0
C479 C 0.51385 0.98539 0.21089 0.0
C480 C 0.55632 0.97946 0.21586 0.0
C481 C 0.5769 0.93726 0.21604 0.0
C482 C 0.49635 0.1122 0.20944 0.0
C483 C 0.44961 0.11597 0.211 0.0
C484 C 0.51718 0.06995 0.20933 0.0
C485 C 0.49178 0.03048 0.21084 0.0
C486 C 0.44506 0.03448 0.21246 0.0
C487 C 0.42428 0.07658 0.21251 0.0
H488 H 0.91778 0.89912 0.47808 0.0
H489 H 0.88333 0.99875 0.45332 0.0
H490 H 0.99378 0.92939 0.47925 0.0
H491 H 0.96019 0.02895 0.45443 0.0
H492 H 0.11796 0.0274 0.45059 0.0
H493 H 0.04034 1.00006 0.44956 0.0
H494 H 0.03228 1.00102 0.48559 0.0
H495 H 0.10954 0.02878 0.48664 0.0
C496 C 0.92637 0.92772 0.47292 0.0
C497 C 0.89445 0.94657 0.46561 0.0
C498 C 0.96995 0.94512 0.47363 0.0
C499 C 0.98306 0.98145 0.46692 0.0
C500 C 0.95112 1.00069 0.45965 0.0
C501 C 0.90707 0.98368 0.45908 0.0
C502 C 0.09976 0.02145 0.45829 0.0
C503 C 0.12008 0.03007 0.46871 0.0
C504 C 0.05514 0.00626 0.45769 0.0
C505 C 0.03012 0.99862 0.46749 0.0
C506 C 0.05073 0.00646 0.47789 0.0
C507 C 0.09501 0.02234 0.47849 0.0
H508 H 1.0005 0.37553 0.71949 0.0
H509 H 0.09911 0.42942 0.69663 0.0
H510 H 0.9659 0.44962 0.72111 0.0
H511 H 0.0638 0.50279 0.6979 0.0
H512 H 0.01734 0.63924 0.71025 0.0
H513 H 0.05306 0.56544 0.70974 0.0
H514 H 0.92209 0.50265 0.71124 0.0
H515 H 0.88679 0.57607 0.71218 0.0
C516 C 0.01454 0.40308 0.71473 0.0
C517 C 0.0526 0.39651 0.70795 0.0
C518 C 0.99462 0.4456 0.71562 0.0
C519 C 0.01204 0.48251 0.70966 0.0
C520 C 0.0499 0.47561 0.7028 0.0
C521 C 0.06998 0.43329 0.70199 0.0
C522 C 0.99626 0.60964 0.71052 0.0
C523 C 0.94923 0.61365 0.71126 0.0
C524 C 0.01669 0.56724 0.71015 0.0
C525 C 0.99054 0.52779 0.71042 0.0
C526 C 0.94349 0.53203 0.71121 0.0
C527 C 0.92316 0.57431 0.71167 0.0
H528 H 0.24647 0.17051 0.36349 0.0
H529 H 0.28828 0.03279 0.36805 0.0
H530 H 0.23646 0.1778 0.38388 0.0
H531 H 0.27782 0.04012 0.38807 0.0
H532 H 0.19016 0.04792 0.4189 0.0
H533 H 0.20072 0.05385 0.39884 0.0
H534 H 0.2883 0.16754 0.40357 0.0
H535 H 0.27821 0.16147 0.42397 0.0
C536 C 0.25388 0.14204 0.3688 0.0
C537 C 0.26776 0.10094 0.3641 0.0
C538 C 0.2483 0.1463 0.38045 0.0
C539 C 0.25597 0.10936 0.38751 0.0
C540 C 0.27119 0.06898 0.38282 0.0
C541 C 0.2772 0.06487 0.3713 0.0
C542 C 0.21141 0.07458 0.41575 0.0
C543 C 0.23382 0.10387 0.42311 0.0
C544 C 0.2174 0.07791 0.40423 0.0
C545 C 0.24565 0.11083 0.39967 0.0
C546 C 0.26627 0.14188 0.40689 0.0
C547 C 0.26056 0.13831 0.41855 0.0
H548 H 0.83925 0.71528 0.6121 0.0
H549 H 0.9312 0.8238 0.6191 0.0
H550 H 0.82558 0.7064 0.63222 0.0
H551 H 0.91788 0.81483 0.63902 0.0
H552 H 0.86639 0.80958 0.67426 0.0
H553 H 0.86259 0.82233 0.65409 0.0
H554 H 0.8701 0.67951 0.64836 0.0
H555 H 0.87343 0.66672 0.66846 0.0
C556 C 0.85604 0.73761 0.6179 0.0
C557 C 0.88649 0.77009 0.61398 0.0
C558 C 0.84844 0.73236 0.62943 0.0
C559 C 0.87068 0.75987 0.63727 0.0
C560 C 0.89972 0.79341 0.63327 0.0
C561 C 0.90763 0.79832 0.62181 0.0
C562 C 0.86642 0.78085 0.66871 0.0
C563 C 0.87061 0.73714 0.67301 0.0
C564 C 0.86453 0.78817 0.65714 0.0
C565 C 0.86646 0.75197 0.64957 0.0
C566 C 0.86819 0.70817 0.65391 0.0
C567 C 0.87038 0.70087 0.66546 0.0
H568 H 0.24018 0.34551 0.86321 0.0
H569 H 0.30683 0.47323 0.86729 0.0
H570 H 0.23167 0.34003 0.88365 0.0
H571 H 0.29832 0.46766 0.88741 0.0
H572 H 0.21862 0.47759 0.91925 0.0
H573 H 0.2278 0.47192 0.89917 0.0
H574 H 0.27811 0.33683 0.90271 0.0
H575 H 0.26894 0.34242 0.92314 0.0
C576 C 0.25354 0.37202 0.86844 0.0
C577 C 0.27367 0.41008 0.86358 0.0
C578 C 0.24871 0.36883 0.88012 0.0
C579 C 0.26367 0.40378 0.88711 0.0
C580 C 0.28565 0.4406 0.88225 0.0
C581 C 0.29061 0.44368 0.87068 0.0
C582 C 0.23142 0.44643 0.91583 0.0
C583 C 0.24352 0.41063 0.92287 0.0
C584 C 0.23682 0.44328 0.90428 0.0
C585 C 0.25434 0.40421 0.89936 0.0
C586 C 0.26457 0.36741 0.90628 0.0
C587 C 0.2594 0.37066 0.91796 0.0
H588 H 0.62733 0.80858 0.11389 0.0
H589 H 0.67306 0.67217 0.11807 0.0
H590 H 0.63316 0.8206 0.13396 0.0
H591 H 0.68119 0.68462 0.1381 0.0
H592 H 0.63215 0.70269 0.17426 0.0
H593 H 0.63818 0.69117 0.15419 0.0
H594 H 0.67604 0.83016 0.14999 0.0
H595 H 0.66769 0.84197 0.17004 0.0
C596 C 0.63971 0.78143 0.11907 0.0
C597 C 0.64946 0.73932 0.11435 0.0
C598 C 0.64328 0.78834 0.13064 0.0
C599 C 0.65735 0.75352 0.13782 0.0
C600 C 0.66917 0.71203 0.13297 0.0
C601 C 0.66494 0.70495 0.12142 0.0
C602 C 0.64236 0.73066 0.16907 0.0
C603 C 0.64918 0.77332 0.17379 0.0
C604 C 0.64604 0.72404 0.1575 0.0
C605 C 0.65731 0.75976 0.1503 0.0
C606 C 0.66622 0.80197 0.15513 0.0
C607 C 0.66188 0.80871 0.16669 0.0
H608 H 0.76786 0.67656 0.86467 0.0
H609 H 0.72609 0.5387 0.86867 0.0
H610 H 0.77561 0.68322 0.88513 0.0
H611 H 0.73395 0.54543 0.88876 0.0
H612 H 0.81174 0.54941 0.92075 0.0
H613 H 0.80441 0.55487 0.90061 0.0
H614 H 0.72738 0.67681 0.90422 0.0
H615 H 0.73462 0.67137 0.92471 0.0
C616 C 0.75992 0.64792 0.86988 0.0
C617 C 0.74682 0.60695 0.86498 0.0
C618 C 0.76426 0.65179 0.88157 0.0
C619 C 0.75601 0.61464 0.88854 0.0
C620 C 0.74133 0.57444 0.88363 0.0
C621 C 0.73672 0.57067 0.87206 0.0
C622 C 0.79349 0.57774 0.91733 0.0
C623 C 0.77325 0.60963 0.9244 0.0
C624 C 0.78924 0.58077 0.90575 0.0
C625 C 0.76469 0.61583 0.90082 0.0
C626 C 0.74646 0.64936 0.90779 0.0
C627 C 0.75059 0.64622 0.9195 0.0
H628 H 0.33418 0.25008 0.17347 0.0
H629 H 0.47788 0.26631 0.16949 0.0
H630 H 0.32659 0.24165 0.15305 0.0
H631 H 0.47021 0.25801 0.14945 0.0
H632 H 0.45444 0.18651 0.11711 0.0
H633 H 0.44997 0.19256 0.13731 0.0
H634 H 0.34001 0.28652 0.13427 0.0
H635 H 0.34426 0.28028 0.11376 0.0
C636 C 0.364 0.25206 0.16828 0.0
C637 C 0.40668 0.25847 0.17315 0.0
C638 C 0.35962 0.24739 0.15661 0.0
C639 C 0.3979 0.24853 0.14967 0.0
C640 C 0.44017 0.2561 0.15457 0.0
C641 C 0.44449 0.26107 0.1661 0.0
C642 C 0.42892 0.20821 0.12068 0.0
C643 C 0.40016 0.23345 0.11379 0.0
C644 C 0.42645 0.21171 0.13229 0.0
C645 C 0.3952 0.24063 0.13738 0.0
C646 C 0.36447 0.26398 0.13057 0.0
C647 C 0.36696 0.26045 0.11884 0.0
H648 H 0.70892 0.87301 0.36371 0.0
H649 H 0.85211 0.84769 0.36458 0.0
H650 H 0.70724 0.87379 0.38419 0.0
H651 H 0.85026 0.84808 0.38491 0.0
H652 H 0.84102 0.92337 0.41834 0.0
H653 H 0.83996 0.909 0.39837 0.0
H654 H 0.71876 0.83064 0.40215 0.0
H655 H 0.71971 0.84535 0.42238 0.0
C656 C 0.73985 0.8667 0.36824 0.0
C657 C 0.78074 0.86076 0.36245 0.0
C658 C 0.73885 0.86705 0.38 0.0
C659 C 0.77874 0.86165 0.38622 0.0
C660 C 0.81906 0.85323 0.38041 0.0
C661 C 0.82004 0.85278 0.36871 0.0
C662 C 0.81425 0.90273 0.41498 0.0
C663 C 0.78048 0.88549 0.42201 0.0
C664 C 0.81381 0.89423 0.40349 0.0
C665 C 0.77941 0.86844 0.39862 0.0
C666 C 0.74566 0.85078 0.40562 0.0
C667 C 0.74637 0.85894 0.41722 0.0
H668 H 0.02528 0.27924 0.66992 0.0
H669 H 0.16515 0.24117 0.67298 0.0
H670 H 0.03073 0.27435 0.64977 0.0
H671 H 0.17045 0.23582 0.65246 0.0
H672 H 0.15914 0.27781 0.61356 0.0
H673 H 0.16431 0.28231 0.63409 0.0
H674 H 0.03877 0.21039 0.63688 0.0
H675 H 0.03333 0.20636 0.6167 0.0
C676 C 0.05736 0.2698 0.6663 0.0
C677 C 0.09464 0.26004 0.67313 0.0
C678 C 0.06041 0.26684 0.6547 0.0
C679 C 0.10079 0.25392 0.64949 0.0
C680 C 0.13883 0.2458 0.65623 0.0
C681 C 0.13575 0.24872 0.66796 0.0
C682 C 0.13298 0.26261 0.6186 0.0
C683 C 0.09546 0.24237 0.61347 0.0
C684 C 0.136 0.26508 0.63034 0.0
C685 C 0.10151 0.24743 0.63711 0.0
C686 C 0.06538 0.2253 0.63193 0.0
C687 C 0.06235 0.2229 0.62031 0.0
H688 H 0.1999 0.14792 0.2853 0.0
H689 H 0.31987 0.19722 0.30154 0.0
H690 H 0.22356 0.18266 0.26784 0.0
H691 H 0.34447 0.23064 0.28399 0.0
H692 H 0.3673 0.31107 0.25273 0.0
H693 H 0.33388 0.28658 0.27028 0.0
H694 H 0.27702 0.17138 0.25349 0.0
H695 H 0.30919 0.19689 0.23586 0.0
C696 C 0.23125 0.16643 0.28516 0.0
C697 C 0.25803 0.16965 0.29483 0.0
C698 C 0.24505 0.18607 0.2751 0.0
C699 C 0.28624 0.20918 0.27439 0.0
C700 C 0.31228 0.21366 0.28418 0.0
C701 C 0.29825 0.19433 0.29428 0.0
C702 C 0.34715 0.28081 0.25275 0.0
C703 C 0.34105 0.25589 0.24287 0.0
C704 C 0.32824 0.26652 0.26286 0.0
C705 C 0.30302 0.22665 0.26341 0.0
C706 C 0.2957 0.20253 0.25343 0.0
C707 C 0.31431 0.21707 0.24329 0.0
H708 H 0.69891 0.86849 0.50168 0.0
H709 H 0.81199 0.8079 0.48473 0.0
H710 H 0.72298 0.8347 0.51922 0.0
H711 H 0.83737 0.77556 0.50235 0.0
H712 H 0.86104 0.69906 0.53423 0.0
H713 H 0.82699 0.72331 0.51673 0.0
H714 H 0.77795 0.84326 0.53305 0.0
H715 H 0.81045 0.81788 0.55064 0.0
C716 C 0.72885 0.84771 0.50169 0.0
C717 C 0.75351 0.84095 0.49178 0.0
C718 C 0.74297 0.82861 0.5118 0.0
C719 C 0.78254 0.80264 0.51234 0.0
C720 C 0.80641 0.79476 0.50232 0.0
C721 C 0.79194 0.81345 0.49217 0.0
C722 C 0.84245 0.73034 0.53411 0.0
C723 C 0.83855 0.75652 0.54386 0.0
C724 C 0.8232 0.74451 0.52402 0.0
C725 C 0.79991 0.78559 0.52333 0.0
C726 C 0.79497 0.81114 0.53319 0.0
C727 C 0.8138 0.79667 0.54333 0.0
H728 H 0.19913 0.31546 0.7354 0.0
H729 H 0.13554 0.20624 0.75301 0.0
H730 H 0.23371 0.34055 0.7528 0.0
H731 H 0.17148 0.22994 0.77031 0.0
H732 H 0.19199 0.31905 0.80123 0.0
H733 H 0.16491 0.28625 0.78384 0.0
H734 H 0.28655 0.32903 0.76712 0.0
H735 H 0.3126 0.36341 0.78442 0.0
C736 C 0.19337 0.29619 0.74294 0.0
C737 C 0.16432 0.25903 0.74281 0.0
C738 C 0.21333 0.31048 0.75296 0.0
C739 C 0.20519 0.28763 0.76309 0.0
C740 C 0.17778 0.24917 0.76279 0.0
C741 C 0.15742 0.23527 0.75282 0.0
C742 C 0.2132 0.32095 0.79388 0.0
C743 C 0.25437 0.34408 0.79423 0.0
C744 C 0.19776 0.30194 0.78387 0.0
C745 C 0.22331 0.30506 0.77395 0.0
C746 C 0.26538 0.32668 0.77446 0.0
C747 C 0.28056 0.3461 0.78444 0.0
H748 H 0.72138 0.7098 0.98942 0.0
H749 H 0.77336 0.5899 1.00505 0.0
H750 H 0.70653 0.74191 1.00796 0.0
H751 H 0.75794 0.62125 0.02335 0.0
H752 H 0.75631 0.69727 0.05558 0.0
H753 H 0.77977 0.67717 0.03668 0.0
H754 H 0.6552 0.7305 0.02361 0.0
H755 H 0.63218 0.75151 0.04247 0.0
C756 C 0.72997 0.69046 0.99678 0.0
C757 C 0.74845 0.6472 0.99571 0.0
C758 C 0.72121 0.70872 1.00741 0.0
C759 C 0.73104 0.68425 1.01721 0.0
C760 C 0.75053 0.64149 1.01607 0.0
C761 C 0.75907 0.62329 1.00551 0.0
C762 C 0.73414 0.70526 0.04867 0.0
C763 C 0.69216 0.72571 0.05061 0.0
C764 C 0.74748 0.69347 0.03782 0.0
C765 C 0.7192 0.7017 0.02858 0.0
C766 C 0.67807 0.72392 0.03047 0.0
C767 C 0.66473 0.73575 0.04133 0.0
H768 H 0.35915 0.19867 0.03468 0.0
H769 H 0.31322 0.31896 0.05129 0.0
H770 H 0.326 0.22466 1.01722 0.0
H771 H 0.28159 0.34592 0.03375 0.0
H772 H 0.20334 0.37459 1.00253 0.0
H773 H 0.22596 0.33898 0.01995 0.0
H774 H 0.33901 0.27763 1.00302 0.0
H775 H 0.31508 0.31192 0.98549 0.0
C776 C 0.34175 0.23062 0.03462 0.0
C777 C 0.33894 0.25675 0.0444 0.0
C778 C 0.32303 0.24576 0.02456 0.0
C779 C 0.30136 0.2877 0.02396 0.0
C780 C 0.29739 0.31318 0.03385 0.0
C781 C 0.31571 0.2978 0.04394 0.0
C782 C 0.2327 0.353 1.00249 0.0
C783 C 0.25749 0.34625 0.99261 0.0
C784 C 0.24595 0.33282 1.01253 0.0
C785 C 0.28474 0.30573 1.01301 0.0
C786 C 0.30866 0.29777 1.00301 0.0
C787 C 0.29504 0.31758 0.99293 0.0
H788 H 0.76602 0.92173 0.2832 0.0
H789 H 0.72284 0.79852 0.29882 0.0
H790 H 0.75189 0.8898 0.26489 0.0
H791 H 0.70896 0.76597 0.28026 0.0
H792 H 0.63315 0.75491 0.24572 0.0
H793 H 0.65554 0.77608 0.26463 0.0
H794 H 0.7778 0.83431 0.2516 0.0
H795 H 0.75512 0.81383 0.23268 0.0
C796 C 0.75387 0.88753 0.28274 0.0
C797 C 0.74541 0.86279 0.29253 0.0
C798 C 0.74609 0.86904 0.27218 0.0
C799 C 0.72938 0.82519 0.27104 0.0
C800 C 0.72157 0.79996 0.28082 0.0
C801 C 0.72977 0.81847 0.29146 0.0
C802 C 0.6651 0.77174 0.24688 0.0
C803 C 0.69208 0.78305 0.23761 0.0
C804 C 0.67807 0.78367 0.25776 0.0
C805 C 0.7183 0.80733 0.25967 0.0
C806 C 0.74621 0.8168 0.25044 0.0
C807 C 0.7333 0.80482 0.23957 0.0
H808 H 0.30839 0.14651 0.50203 0.0
H809 H 0.18672 0.18984 0.48548 0.0
H810 H 0.28287 0.18139 0.51934 0.0
H811 H 0.16034 0.22338 0.50288 0.0
H812 H 0.13369 0.30572 0.53364 0.0
H813 H 0.16843 0.28088 0.51627 0.0
H814 H 0.22979 0.16968 0.53376 0.0
H815 H 0.19624 0.19563 0.55121 0.0
C816 C 0.27625 0.16372 0.50207 0.0
C817 C 0.24961 0.1653 0.49235 0.0
C818 C 0.26139 0.18344 0.51205 0.0
C819 C 0.21926 0.205 0.51262 0.0
C820 C 0.19323 0.20769 0.50278 0.0
C821 C 0.20829 0.18828 0.49278 0.0
C822 C 0.1551 0.27629 0.53381 0.0
C823 C 0.16203 0.25261 0.54384 0.0
C824 C 0.17477 0.26177 0.5238 0.0
C825 C 0.20163 0.22286 0.5235 0.0
C826 C 0.2098 0.20006 0.53362 0.0
C827 C 0.19042 0.21486 0.54367 0.0
H828 H 0.81077 0.69837 0.73602 0.0
H829 H 0.883 0.80378 0.75302 0.0
H830 H 0.77743 0.67521 0.75373 0.0
H831 H 0.84829 0.78218 0.77063 0.0
H832 H 0.82574 0.69594 0.8019 0.0
H833 H 0.85274 0.7265 0.78426 0.0
H834 H 0.72733 0.68944 0.76842 0.0
H835 H 0.70133 0.65716 0.78597 0.0
C836 C 0.81875 0.71723 0.7435 0.0
C837 C 0.84975 0.75275 0.7431 0.0
C838 C 0.79949 0.70407 0.7537 0.0
C839 C 0.81029 0.72648 0.76375 0.0
C840 C 0.83987 0.76328 0.76319 0.0
C841 C 0.85953 0.77599 0.75304 0.0
C842 C 0.80371 0.69485 0.79468 0.0
C843 C 0.76144 0.6739 0.79536 0.0
C844 C 0.81913 0.71256 0.78452 0.0
C845 C 0.79246 0.71036 0.77478 0.0
C846 C 0.74938 0.69099 0.77562 0.0
C847 C 0.73422 0.6728 0.78574 0.0
loop_
_geom_bond_atom_site_label_1
_geom_bond_atom_site_label_2
_geom_bond_distance
_geom_bond_site_symmetry_2
_ccdc_geom_bond_type
Mg0 O7 2.141 . S
Mg0 O8 2.048 . S
Mg0 O9 2.048 . S
Mg0 O12 2.141 . S
C1 O2 1.313 . S
C1 O8 1.195 . S
O2 C1 1.313 . S
C3 O4 1.245 . S
C3 O12 1.289 . S
O4 C3 1.245 . S
C5 O6 1.245 . S
C5 O7 1.289 . S
O6 C5 1.245 . S
O7 Mg0 2.141 . S
O7 C5 1.289 . S
O8 Mg0 2.048 . S
O8 C1 1.195 . S
O9 Mg0 2.048 . S
O9 C10 1.195 . S
C10 O9 1.195 . S
C10 O11 1.313 . S
O11 C10 1.313 . S
O12 Mg0 2.141 . S
O12 C3 1.289 . S
Mg13 O20 2.141 . S
Mg13 O21 2.048 . S
Mg13 O22 2.048 . S
Mg13 O25 2.141 . S
C14 O15 1.313 . S
C14 O21 1.195 . S
O15 C14 1.313 . S
C16 O17 1.245 . S
C16 O25 1.289 . S
O17 C16 1.245 . S
C18 O19 1.245 . S
C18 O20 1.289 . S
O19 C18 1.245 . S
O20 Mg13 2.141 . S
O20 C18 1.289 . S
O21 Mg13 2.048 . S
O21 C14 1.195 . S
O22 Mg13 2.048 . S
O22 C23 1.195 . S
C23 O22 1.195 . S
C23 O24 1.313 . S
O24 C23 1.313 . S
O25 Mg13 2.141 . S
O25 C16 1.289 . S
Mg26 O33 2.141 . S
Mg26 O34 2.048 . S
Mg26 O35 2.048 . S
Mg26 O38 2.141 . S
C27 O28 1.313 . S
C27 O34 1.195 . S
O28 C27 1.313 . S
C29 O30 1.245 . S
C29 O38 1.289 . S
O30 C29 1.245 . S
C31 O32 1.245 . S
C31 O33 1.289 . S
O32 C31 1.245 . S
O33 Mg26 2.141 . S
O33 C31 1.289 . S
O34 Mg26 2.048 . S
O34 C27 1.195 . S
O35 Mg26 2.048 . S
O35 C36 1.195 . S
C36 O35 1.195 . S
C36 O37 1.313 . S
O37 C36 1.313 . S
O38 Mg26 2.141 . S
O38 C29 1.289 . S
Mg39 O46 2.141 . S
Mg39 O47 2.048 . S
Mg39 O48 2.048 . S
Mg39 O51 2.141 . S
C40 O41 1.313 . S
C40 O47 1.195 . S
O41 C40 1.313 . S
C42 O43 1.245 . S
C42 O51 1.289 . S
O43 C42 1.245 . S
C44 O45 1.245 . S
C44 O46 1.289 . S
O45 C44 1.245 . S
O46 Mg39 2.141 . S
O46 C44 1.289 . S
O47 Mg39 2.048 . S
O47 C40 1.195 . S
O48 Mg39 2.048 . S
O48 C49 1.195 . S
C49 O48 1.195 . S
C49 O50 1.313 . S
O50 C49 1.313 . S
O51 Mg39 2.141 . S
O51 C42 1.289 . S
Mg52 O59 2.141 . S
Mg52 O60 2.048 . S
Mg52 O61 2.048 . S
Mg52 O64 2.141 . S
C53 O54 1.313 . S
C53 O60 1.195 . S
O54 C53 1.313 . S
C55 O56 1.245 . S
C55 O64 1.289 . S
O56 C55 1.245 . S
C57 O58 1.245 . S
C57 O59 1.289 . S
O58 C57 1.245 . S
O59 Mg52 2.141 . S
O59 C57 1.289 . S
O60 Mg52 2.048 . S
O60 C53 1.195 . S
O61 Mg52 2.048 . S
O61 C62 1.195 . S
C62 O61 1.195 . S
C62 O63 1.313 . S
O63 C62 1.313 . S
O64 Mg52 2.141 . S
O64 C55 1.289 . S
Mg65 O72 2.141 . S
Mg65 O73 2.048 . S
Mg65 O74 2.048 . S
Mg65 O77 2.141 . S
C66 O67 1.313 . S
C66 O73 1.195 . S
O67 C66 1.313 . S
C68 O69 1.245 . S
C68 O77 1.289 . S
O69 C68 1.245 . S
C70 O71 1.245 . S
C70 O72 1.289 . S
O71 C70 1.245 . S
O72 Mg65 2.141 . S
O72 C70 1.289 . S
O73 Mg65 2.048 . S
O73 C66 1.195 . S
O74 Mg65 2.048 . S
O74 C75 1.195 . S
C75 O74 1.195 . S
C75 O76 1.313 . S
O76 C75 1.313 . S
O77 Mg65 2.141 . S
O77 C68 1.289 . S
Mg78 O85 2.141 . S
Mg78 O86 2.048 . S
Mg78 O87 2.048 . S
Mg78 O90 2.141 . S
C79 O80 1.313 . S
C79 O86 1.195 . S
O80 C79 1.313 . S
C81 O82 1.245 . S
C81 O90 1.289 . S
O82 C81 1.245 . S
C83 O84 1.245 . S
C83 O85 1.289 . S
O84 C83 1.245 . S
O85 Mg78 2.141 . S
O85 C83 1.289 . S
O86 Mg78 2.048 . S
O86 C79 1.195 . S
O87 Mg78 2.048 . S
O87 C88 1.195 . S
C88 O87 1.195 . S
C88 O89 1.313 . S
O89 C88 1.313 . S
O90 Mg78 2.141 . S
O90 C81 1.289 . S
Mg91 O98 2.141 . S
Mg91 O99 2.048 . S
Mg91 O100 2.048 . S
Mg91 O103 2.141 . S
C92 O93 1.313 . S
C92 O99 1.195 . S
O93 C92 1.313 . S
C94 O95 1.245 . S
C94 O103 1.289 . S
O95 C94 1.245 . S
C96 O97 1.245 . S
C96 O98 1.289 . S
O97 C96 1.245 . S
O98 Mg91 2.141 . S
O98 C96 1.289 . S
O99 Mg91 2.048 . S
O99 C92 1.195 . S
O100 Mg91 2.048 . S
O100 C101 1.195 . S
C101 O100 1.195 . S
C101 O102 1.313 . S
O102 C101 1.313 . S
O103 Mg91 2.141 . S
O103 C94 1.289 . S
Mg104 O111 2.141 . S
Mg104 O112 2.048 . S
Mg104 O113 2.048 . S
Mg104 O116 2.141 . S
C105 O106 1.313 . S
C105 O112 1.195 . S
O106 C105 1.313 . S
C107 O108 1.245 . S
C107 O116 1.289 . S
O108 C107 1.245 . S
C109 O110 1.245 . S
C109 O111 1.289 . S
O110 C109 1.245 . S
O111 Mg104 2.141 . S
O111 C109 1.289 . S
O112 Mg104 2.048 . S
O112 C105 1.195 . S
O113 Mg104 2.048 . S
O113 C114 1.195 . S
C114 O113 1.195 . S
C114 O115 1.313 . S
O115 C114 1.313 . S
O116 Mg104 2.141 . S
O116 C107 1.289 . S
Mg117 O124 2.141 . S
Mg117 O125 2.048 . S
Mg117 O126 2.048 . S
Mg117 O129 2.141 . S
C118 O119 1.313 . S
C118 O125 1.195 . S
O119 C118 1.313 . S
C120 O121 1.245 . S
C120 O129 1.289 . S
O121 C120 1.245 . S
C122 O123 1.245 . S
C122 O124 1.289 . S
O123 C122 1.245 . S
O124 Mg117 2.141 . S
O124 C122 1.289 . S
O125 Mg117 2.048 . S
O125 C118 1.195 . S
O126 Mg117 2.048 . S
O126 C127 1.195 . S
C127 O126 1.195 . S
C127 O128 1.313 . S
O128 C127 1.313 . S
O129 Mg117 2.141 . S
O129 C120 1.289 . S
Mg130 O137 2.141 . S
Mg130 O138 2.048 . S
Mg130 O139 2.048 . S
Mg130 O142 2.141 . S
C131 O132 1.313 . S
C131 O138 1.195 . S
O132 C131 1.313 . S
C133 O134 1.245 . S
C133 O142 1.289 . S
O134 C133 1.245 . S
C135 O136 1.245 . S
C135 O137 1.289 . S
O136 C135 1.245 . S
O137 Mg130 2.141 . S
O137 C135 1.289 . S
O138 Mg130 2.048 . S
O138 C131 1.195 . S
O139 Mg130 2.048 . S
O139 C140 1.195 . S
C140 O139 1.195 . S
C140 O141 1.313 . S
O141 C140 1.313 . S
O142 Mg130 2.141 . S
O142 C133 1.289 . S
Mg143 O150 2.141 . S
Mg143 O151 2.048 . S
Mg143 O152 2.048 . S
Mg143 O155 2.141 . S
C144 O145 1.313 . S
C144 O151 1.195 . S
O145 C144 1.313 . S
C146 O147 1.245 . S
C146 O155 1.289 . S
O147 C146 1.245 . S
C148 O149 1.245 . S
C148 O150 1.289 . S
O149 C148 1.245 . S
O150 Mg143 2.141 . S
O150 C148 1.289 . S
O151 Mg143 2.048 . S
O151 C144 1.195 . S
O152 Mg143 2.048 . S
O152 C153 1.195 . S
C153 O152 1.195 . S
C153 O154 1.313 . S
O154 C153 1.313 . S
O155 Mg143 2.141 . S
O155 C146 1.289 . S
Mg156 O163 2.141 . S
Mg156 O164 2.048 . S
Mg156 O165 2.048 . S
Mg156 O168 2.141 . S
C157 O158 1.313 . S
C157 O164 1.195 . S
O158 C157 1.313 . S
C159 O160 1.245 . S
C159 O168 1.289 . S
O160 C159 1.245 . S
C161 O162 1.245 . S
C161 O163 1.289 . S
O162 C161 1.245 . S
O163 Mg156 2.141 . S
O163 C161 1.289 . S
O164 Mg156 2.048 . S
O164 C157 1.195 . S
O165 Mg156 2.048 . S
O165 C166 1.195 . S
C166 O165 1.195 . S
C166 O167 1.313 . S
O167 C166 1.313 . S
O168 Mg156 2.141 . S
O168 C159 1.289 . S
Mg169 O176 2.141 . S
Mg169 O177 2.048 . S
Mg169 O178 2.048 . S
Mg169 O181 2.141 . S
C170 O171 1.313 . S
C170 O177 1.195 . S
O171 C170 1.313 . S
C172 O173 1.245 . S
C172 O181 1.289 . S
O173 C172 1.245 . S
C174 O175 1.245 . S
C174 O176 1.289 . S
O175 C174 1.245 . S
O176 Mg169 2.141 . S
O176 C174 1.289 . S
O177 Mg169 2.048 . S
O177 C170 1.195 . S
O178 Mg169 2.048 . S
O178 C179 1.195 . S
C179 O178 1.195 . S
C179 O180 1.313 . S
O180 C179 1.313 . S
O181 Mg169 2.141 . S
O181 C172 1.289 . S
Mg182 O189 2.141 . S
Mg182 O190 2.048 . S
Mg182 O191 2.048 . S
Mg182 O194 2.141 . S
C183 O184 1.313 . S
C183 O190 1.195 . S
O184 C183 1.313 . S
C185 O186 1.245 . S
C185 O194 1.289 . S
O186 C185 1.245 . S
C187 O188 1.245 . S
C187 O189 1.289 . S
O188 C187 1.245 . S
O189 Mg182 2.141 . S
O189 C187 1.289 . S
O190 Mg182 2.048 . S
O190 C183 1.195 . S
O191 Mg182 2.048 . S
O191 C192 1.195 . S
C192 O191 1.195 . S
C192 O193 1.313 . S
O193 C192 1.313 . S
O194 Mg182 2.141 . S
O194 C185 1.289 . S
Mg195 O202 2.141 . S
Mg195 O203 2.048 . S
Mg195 O204 2.048 . S
Mg195 O207 2.141 . S
C196 O197 1.313 . S
C196 O203 1.195 . S
O197 C196 1.313 . S
C198 O199 1.245 . S
C198 O207 1.289 . S
O199 C198 1.245 . S
C200 O201 1.245 . S
C200 O202 1.289 . S
O201 C200 1.245 . S
O202 Mg195 2.141 . S
O202 C200 1.289 . S
O203 Mg195 2.048 . S
O203 C196 1.195 . S
O204 Mg195 2.048 . S
O204 C205 1.195 . S
C205 O204 1.195 . S
C205 O206 1.313 . S
O206 C205 1.313 . S
O207 Mg195 2.141 . S
O207 C198 1.289 . S
H208 C216 0.950 . S
H209 C221 0.950 . S
H210 C218 0.950 . S
H211 C220 0.950 1_455 S
H212 C222 0.950 . S
H213 C224 0.950 . S
H214 C226 0.950 1_655 S
H215 C227 0.950 . S
C216 H208 0.950 . S
C216 C217 1.386 . S
C216 C218 1.391 1_565 S
C217 C216 1.386 . S
C217 C221 1.393 . S
C218 H210 0.950 . S
C218 C216 1.391 1_545 S
C218 C219 1.400 1_545 S
C219 C218 1.400 1_565 S
C219 C220 1.398 . S
C219 C225 1.491 1_665 S
C220 H211 0.950 1_655 S
C220 C219 1.398 . S
C220 C221 1.391 . S
C221 H209 0.950 . S
C221 C217 1.393 . S
C221 C220 1.391 . S
C222 H212 0.950 . S
C222 C223 1.386 . S
C222 C224 1.391 1_545 S
C223 C222 1.386 . S
C223 C227 1.393 . S
C224 H213 0.950 . S
C224 C222 1.391 1_565 S
C224 C225 1.400 1_565 S
C225 C219 1.491 1_445 S
C225 C224 1.400 1_545 S
C225 C226 1.398 . S
C226 H214 0.950 1_455 S
C226 C225 1.398 . S
C226 C227 1.391 . S
C227 H215 0.950 . S
C227 C223 1.393 . S
C227 C226 1.391 . S
H228 C236 0.950 . S
H229 C241 0.950 . S
H230 C238 0.969 . S
H231 C240 0.950 . S
H232 C242 0.950 . S
H233 C244 0.968 . S
H234 C246 0.950 . S
H235 C247 0.950 . S
C236 H228 0.950 . S
C236 C237 1.386 . S
C236 C238 1.380 1_655 S
C237 C236 1.386 . S
C237 C241 1.393 . S
C238 H230 0.969 . S
C238 C236 1.380 1_455 S
C238 C239 1.394 1_455 S
C239 C238 1.394 1_655 S
C239 C240 1.398 . S
C239 C245 1.491 1_655 S
C240 H231 0.950 . S
C240 C239 1.398 . S
C240 C241 1.391 . S
C241 H229 0.950 . S
C241 C237 1.393 . S
C241 C240 1.391 . S
C242 H232 0.950 . S
C242 C243 1.386 . S
C242 C244 1.380 1_455 S
C243 C242 1.386 . S
C243 C247 1.393 . S
C244 H233 0.968 . S
C244 C242 1.380 1_655 S
C244 C245 1.394 1_655 S
C245 C239 1.491 1_455 S
C245 C244 1.394 1_455 S
C245 C246 1.398 . S
C246 H234 0.950 . S
C246 C245 1.398 . S
C246 C247 1.391 . S
C247 H235 0.950 . S
C247 C243 1.393 . S
C247 C246 1.391 . S
H248 C256 0.950 . S
H249 C261 0.950 . S
H250 C258 0.950 . S
H251 C260 0.950 . S
H252 C262 0.950 . S
H253 C264 0.950 . S
H254 C266 0.950 . S
H255 C267 0.950 . S
C256 H248 0.950 . S
C256 C257 1.386 . S
C256 C258 1.391 . S
C257 C256 1.386 . S
C257 C261 1.393 . S
C258 H250 0.950 . S
C258 C256 1.391 . S
C258 C259 1.400 . S
C259 C258 1.400 . S
C259 C260 1.398 . S
C259 C265 1.491 . S
C260 H251 0.950 . S
C260 C259 1.398 . S
C260 C261 1.391 . S
C261 H249 0.950 . S
C261 C257 1.393 . S
C261 C260 1.391 . S
C262 H252 0.950 . S
C262 C263 1.386 . S
C262 C264 1.391 . S
C263 C262 1.386 . S
C263 C267 1.393 . S
C264 H253 0.950 . S
C264 C262 1.391 . S
C264 C265 1.400 . S
C265 C259 1.491 . S
C265 C264 1.400 . S
C265 C266 1.398 . S
C266 H254 0.950 . S
C266 C265 1.398 . S
C266 C267 1.391 . S
C267 H255 0.950 . S
C267 C263 1.393 . S
C267 C266 1.391 . S
H268 C276 0.950 . S
H269 C281 0.950 . S
H270 C278 0.950 1_565 S
H271 C280 0.950 . S
H272 C282 0.950 . S
H273 C284 0.950 1_545 S
H274 C286 0.950 . S
H275 C287 0.950 . S
C276 H268 0.950 . S
C276 C277 1.386 . S
C276 C278 1.391 . S
C277 C276 1.386 . S
C277 C281 1.393 . S
C278 H270 0.950 1_545 S
C278 C276 1.391 . S
C278 C279 1.400 . S
C279 C278 1.400 . S
C279 C280 1.398 . S
C279 C285 1.491 1_545 S
C280 H271 0.950 . S
C280 C279 1.398 . S
C280 C281 1.391 . S
C281 H269 0.950 . S
C281 C277 1.393 . S
C281 C280 1.391 . S
C282 H272 0.950 . S
C282 C283 1.386 . S
C282 C284 1.391 . S
C283 C282 1.386 . S
C283 C287 1.393 . S
C284 H273 0.950 1_565 S
C284 C282 1.391 . S
C284 C285 1.400 . S
C285 C279 1.491 1_565 S
C285 C284 1.400 . S
C285 C286 1.398 . S
C286 H274 0.950 . S
C286 C285 1.398 . S
C286 C287 1.391 . S
C287 H275 0.950 . S
C287 C283 1.393 . S
C287 C286 1.391 . S
H288 C296 0.950 . S
H289 C301 0.950 . S
H290 C298 0.950 . S
H291 C300 0.950 1_655 S
H292 C302 0.950 . S
H293 C304 0.950 . S
H294 C306 0.950 1_455 S
H295 C307 0.950 . S
C296 H288 0.950 . S
C296 C297 1.386 . S
C296 C298 1.391 . S
C297 C296 1.386 . S
C297 C301 1.393 . S
C298 H290 0.950 . S
C298 C296 1.391 . S
C298 C299 1.400 . S
C299 C298 1.400 . S
C299 C300 1.398 . S
C299 C305 1.491 1_455 S
C300 H291 0.950 1_455 S
C300 C299 1.398 . S
C300 C301 1.391 . S
C301 H289 0.950 . S
C301 C297 1.393 . S
C301 C300 1.391 . S
C302 H292 0.950 . S
C302 C303 1.386 . S
C302 C304 1.391 . S
C303 C302 1.386 . S
C303 C307 1.393 . S
C304 H293 0.950 . S
C304 C302 1.391 . S
C304 C305 1.400 . S
C305 C299 1.491 1_655 S
C305 C304 1.400 . S
C305 C306 1.398 . S
C306 H294 0.950 1_655 S
C306 C305 1.398 . S
C306 C307 1.391 . S
C307 H295 0.950 . S
C307 C303 1.393 . S
C307 C306 1.391 . S
H308 C316 0.950 . S
H309 C321 0.950 . S
H310 C318 0.950 . S
H311 C320 0.950 . S
H312 C322 0.950 . S
H313 C324 0.950 . S
H314 C326 0.950 . S
H315 C327 0.950 . S
C316 H308 0.950 . S
C316 C317 1.386 . S
C316 C318 1.391 . S
C317 C316 1.386 . S
C317 C321 1.393 . S
C318 H310 0.950 . S
C318 C316 1.391 . S
C318 C319 1.400 . S
C319 C318 1.400 . S
C319 C320 1.398 . S
C319 C325 1.491 . S
C320 H311 0.950 . S
C320 C319 1.398 . S
C320 C321 1.391 . S
C321 H309 0.950 . S
C321 C317 1.393 . S
C321 C320 1.391 . S
C322 H312 0.950 . S
C322 C323 1.386 . S
C322 C324 1.391 . S
C323 C322 1.386 . S
C323 C327 1.393 . S
C324 H313 0.950 . S
C324 C322 1.391 . S
C324 C325 1.400 . S
C325 C319 1.491 . S
C325 C324 1.400 . S
C325 C326 1.398 . S
C326 H314 0.950 . S
C326 C325 1.398 . S
C326 C327 1.391 . S
C327 H315 0.950 . S
C327 C323 1.393 . S
C327 C326 1.391 . S
H328 C336 0.950 . S
H329 C341 0.950 . S
H330 C338 0.950 . S
H331 C340 0.950 . S
H332 C342 0.950 . S
H333 C344 0.950 . S
H334 C346 0.950 . S
H335 C347 0.950 . S
C336 H328 0.950 . S
C336 C337 1.386 . S
C336 C338 1.391 . S
C337 C336 1.386 . S
C337 C341 1.393 . S
C338 H330 0.950 . S
C338 C336 1.391 . S
C338 C339 1.400 . S
C339 C338 1.400 . S
C339 C340 1.398 . S
C339 C345 1.491 1_545 S
C340 H331 0.950 . S
C340 C339 1.398 . S
C340 C341 1.391 . S
C341 H329 0.950 . S
C341 C337 1.393 . S
C341 C340 1.391 . S
C342 H332 0.950 . S
C342 C343 1.386 . S
C342 C344 1.391 . S
C343 C342 1.386 . S
C343 C347 1.393 . S
C344 H333 0.950 . S
C344 C342 1.391 . S
C344 C345 1.400 . S
C345 C339 1.491 1_565 S
C345 C344 1.400 . S
C345 C346 1.398 . S
C346 H334 0.950 . S
C346 C345 1.398 . S
C346 C347 1.391 . S
C347 H335 0.950 . S
C347 C343 1.393 . S
C347 C346 1.391 . S
H348 C356 0.950 . S
H349 C361 0.950 . S
H350 C358 0.950 . S
H351 C360 0.950 1_655 S
H352 C362 0.950 . S
H353 C364 0.950 . S
H354 C366 0.936 1_455 S
H355 C367 0.950 . S
C356 H348 0.950 . S
C356 C357 1.386 . S
C356 C358 1.391 . S
C357 C356 1.386 . S
C357 C361 1.393 . S
C358 H350 0.950 . S
C358 C356 1.391 . S
C358 C359 1.400 . S
C359 C358 1.400 . S
C359 C360 1.398 . S
C359 C365 1.491 1_445 S
C360 H351 0.950 1_455 S
C360 C359 1.398 . S
C360 C361 1.391 . S
C361 H349 0.950 . S
C361 C357 1.393 . S
C361 C360 1.391 . S
C362 H352 0.950 . S
C362 C363 1.386 . S
C362 C364 1.391 . S
C363 C362 1.386 . S
C363 C367 1.393 . S
C364 H353 0.950 . S
C364 C362 1.391 . S
C364 C365 1.400 . S
C365 C359 1.491 1_665 S
C365 C364 1.400 . S
C365 C366 1.398 . S
C366 H354 0.936 1_655 S
C366 C365 1.398 . S
C366 C367 1.391 . S
C367 H355 0.950 . S
C367 C363 1.393 . S
C367 C366 1.391 . S
H368 C376 0.950 . S
H369 C381 0.950 . S
H370 C378 0.950 1_545 S
H371 C380 0.950 . S
H372 C382 0.950 . S
H373 C384 0.950 1_565 S
H374 C386 0.950 . S
H375 C387 0.950 . S
C376 H368 0.950 . S
C376 C377 1.386 . S
C376 C378 1.391 . S
C377 C376 1.386 . S
C377 C381 1.393 . S
C378 H370 0.950 1_565 S
C378 C376 1.391 . S
C378 C379 1.400 . S
C379 C378 1.400 . S
C379 C380 1.398 . S
C379 C385 1.491 1_565 S
C380 H371 0.950 . S
C380 C379 1.398 . S
C380 C381 1.391 . S
C381 H369 0.950 . S
C381 C377 1.393 . S
C381 C380 1.391 . S
C382 H372 0.950 . S
C382 C383 1.386 . S
C382 C384 1.391 . S
C383 C382 1.386 . S
C383 C387 1.393 . S
C384 H373 0.950 1_545 S
C384 C382 1.391 . S
C384 C385 1.400 . S
C385 C379 1.491 1_545 S
C385 C384 1.400 . S
C385 C386 1.398 . S
C386 H374 0.950 . S
C386 C385 1.398 . S
C386 C387 1.391 . S
C387 H375 0.950 . S
C387 C383 1.393 . S
C387 C386 1.391 . S
H388 C396 0.950 . S
H389 C401 0.950 . S
H390 C398 0.950 1_455 S
H391 C400 0.950 1_545 S
H392 C402 0.950 . S
H393 C404 0.950 1_655 S
H394 C406 0.950 1_565 S
H395 C407 0.950 . S
C396 H388 0.950 . S
C396 C397 1.386 . S
C396 C398 1.391 . S
C397 C396 1.386 . S
C397 C401 1.393 . S
C398 H390 0.950 1_655 S
C398 C396 1.391 . S
C398 C399 1.400 . S
C399 C398 1.400 . S
C399 C400 1.398 . S
C399 C405 1.491 1_665 S
C400 H391 0.950 1_565 S
C400 C399 1.398 . S
C400 C401 1.391 . S
C401 H389 0.950 . S
C401 C397 1.393 . S
C401 C400 1.391 . S
C402 H392 0.950 . S
C402 C403 1.386 . S
C402 C404 1.391 . S
C403 C402 1.386 . S
C403 C407 1.393 . S
C404 H393 0.950 1_455 S
C404 C402 1.391 . S
C404 C405 1.400 . S
C405 C399 1.491 1_445 S
C405 C404 1.400 . S
C405 C406 1.398 . S
C406 H394 0.950 1_545 S
C406 C405 1.398 . S
C406 C407 1.391 . S
C407 H395 0.950 . S
C407 C403 1.393 . S
C407 C406 1.391 . S
H408 C416 0.950 . S
H409 C421 0.950 . S
H410 C418 0.950 1_655 S
H411 C420 0.950 . S
H412 C422 0.950 . S
H413 C424 0.950 1_455 S
H414 C426 0.950 . S
H415 C427 0.950 . S
C416 H408 0.950 . S
C416 C417 1.386 . S
C416 C418 1.391 . S
C417 C416 1.386 . S
C417 C421 1.393 . S
C418 H410 0.950 1_455 S
C418 C416 1.391 . S
C418 C419 1.400 . S
C419 C418 1.400 . S
C419 C420 1.398 . S
C419 C425 1.491 1_455 S
C420 H411 0.950 . S
C420 C419 1.398 . S
C420 C421 1.391 . S
C421 H409 0.950 . S
C421 C417 1.393 . S
C421 C420 1.391 . S
C422 H412 0.950 . S
C422 C423 1.386 . S
C422 C424 1.391 . S
C423 C422 1.386 . S
C423 C427 1.393 . S
C424 H413 0.950 1_655 S
C424 C422 1.391 . S
C424 C425 1.400 . S
C425 C419 1.491 1_655 S
C425 C424 1.400 . S
C425 C426 1.398 . S
C426 H414 0.950 . S
C426 C425 1.398 . S
C426 C427 1.391 . S
C427 H415 0.950 . S
C427 C423 1.393 . S
C427 C426 1.391 . S
H428 C436 0.950 . S
H429 C441 0.950 . S
H430 C438 0.950 . S
H431 C440 0.950 . S
H432 C442 0.950 . S
H433 C444 0.950 . S
H434 C446 0.950 . S
H435 C447 0.950 . S
C436 H428 0.950 . S
C436 C437 1.386 . S
C436 C438 1.391 . S
C437 C436 1.386 . S
C437 C441 1.393 . S
C438 H430 0.950 . S
C438 C436 1.391 . S
C438 C439 1.400 . S
C439 C438 1.400 . S
C439 C440 1.398 . S
C439 C445 1.491 . S
C440 H431 0.950 . S
C440 C439 1.398 . S
C440 C441 1.391 . S
C441 H429 0.950 . S
C441 C437 1.393 . S
C441 C440 1.391 . S
C442 H432 0.950 . S
C442 C443 1.386 . S
C442 C444 1.391 . S
C443 C442 1.386 . S
C443 C447 1.393 . S
C444 H433 0.950 . S
C444 C442 1.391 . S
C444 C445 1.400 . S
C445 C439 1.491 . S
C445 C444 1.400 . S
C445 C446 1.398 . S
C446 H434 0.950 . S
C446 C445 1.398 . S
C446 C447 1.391 . S
C447 H435 0.950 . S
C447 C443 1.393 . S
C447 C446 1.391 . S
H448 C456 0.950 . S
H449 C461 0.950 . S
H450 C458 0.950 . S
H451 C460 0.950 . S
H452 C462 0.950 . S
H453 C464 0.950 . S
H454 C466 0.950 . S
H455 C467 0.950 . S
C456 H448 0.950 . S
C456 C457 1.386 . S
C456 C458 1.391 . S
C457 C456 1.386 . S
C457 C461 1.393 . S
C458 H450 0.950 . S
C458 C456 1.391 . S
C458 C459 1.400 . S
C459 C458 1.400 . S
C459 C460 1.398 . S
C459 C465 1.491 . S
C460 H451 0.950 . S
C460 C459 1.398 . S
C460 C461 1.391 . S
C461 H449 0.950 . S
C461 C457 1.393 . S
C461 C460 1.391 . S
C462 H452 0.950 . S
C462 C463 1.386 . S
C462 C464 1.391 . S
C463 C462 1.386 . S
C463 C467 1.393 . S
C464 H453 0.950 . S
C464 C462 1.391 . S
C464 C465 1.400 . S
C465 C459 1.491 . S
C465 C464 1.400 . S
C465 C466 1.398 . S
C466 H454 0.950 . S
C466 C465 1.398 . S
C466 C467 1.391 . S
C467 H455 0.950 . S
C467 C463 1.393 . S
C467 C466 1.391 . S
H468 C476 0.950 . S
H469 C481 0.950 . S
H470 C478 0.950 . S
H471 C480 0.950 . S
H472 C482 0.950 . S
H473 C484 0.950 . S
H474 C486 0.950 . S
H475 C487 0.950 . S
C476 H468 0.950 . S
C476 C477 1.386 . S
C476 C478 1.391 . S
C477 C476 1.386 . S
C477 C481 1.393 . S
C478 H470 0.950 . S
C478 C476 1.391 . S
C478 C479 1.400 . S
C479 C478 1.400 . S
C479 C480 1.398 . S
C479 C485 1.491 1_565 S
C480 H471 0.950 . S
C480 C479 1.398 . S
C480 C481 1.391 . S
C481 H469 0.950 . S
C481 C477 1.393 . S
C481 C480 1.391 . S
C482 H472 0.950 . S
C482 C483 1.386 . S
C482 C484 1.391 . S
C483 C482 1.386 . S
C483 C487 1.393 . S
C484 H473 0.950 . S
C484 C482 1.391 . S
C484 C485 1.400 . S
C485 C479 1.491 1_545 S
C485 C484 1.400 . S
C485 C486 1.398 . S
C486 H474 0.950 . S
C486 C485 1.398 . S
C486 C487 1.391 . S
C487 H475 0.950 . S
C487 C483 1.393 . S
C487 C486 1.391 . S
H488 C496 0.950 . S
H489 C501 0.950 . S
H490 C498 0.950 1_455 S
H491 C500 0.950 1_545 S
H492 C502 0.950 . S
H493 C504 0.950 1_655 S
H494 C506 0.950 1_565 S
H495 C507 0.950 . S
C496 H488 0.950 . S
C496 C497 1.386 . S
C496 C498 1.391 . S
C497 C496 1.386 . S
C497 C501 1.393 . S
C498 H490 0.950 1_655 S
C498 C496 1.391 . S
C498 C499 1.400 . S
C499 C498 1.400 . S
C499 C500 1.398 . S
C499 C505 1.491 1_665 S
C500 H491 0.950 1_565 S
C500 C499 1.398 . S
C500 C501 1.391 . S
C501 H489 0.950 . S
C501 C497 1.393 . S
C501 C500 1.391 . S
C502 H492 0.950 . S
C502 C503 1.386 . S
C502 C504 1.391 . S
C503 C502 1.386 . S
C503 C507 1.393 . S
C504 H493 0.950 1_455 S
C504 C502 1.391 . S
C504 C505 1.400 . S
C505 C499 1.491 1_445 S
C505 C504 1.400 . S
C505 C506 1.398 . S
C506 H494 0.950 1_545 S
C506 C505 1.398 . S
C506 C507 1.391 . S
C507 H495 0.950 . S
C507 C503 1.393 . S
C507 C506 1.391 . S
H508 C516 0.950 . S
H509 C521 0.950 . S
H510 C518 0.950 1_655 S
H511 C520 0.950 . S
H512 C522 0.950 . S
H513 C524 0.950 1_455 S
H514 C526 0.950 . S
H515 C527 0.950 . S
C516 H508 0.950 . S
C516 C517 1.386 . S
C516 C518 1.391 . S
C517 C516 1.386 . S
C517 C521 1.393 . S
C518 H510 0.950 1_455 S
C518 C516 1.391 . S
C518 C519 1.400 . S
C519 C518 1.400 . S
C519 C520 1.398 . S
C519 C525 1.491 1_455 S
C520 H511 0.950 . S
C520 C519 1.398 . S
C520 C521 1.391 . S
C521 H509 0.950 . S
C521 C517 1.393 . S
C521 C520 1.391 . S
C522 H512 0.950 . S
C522 C523 1.386 . S
C522 C524 1.391 . S
C523 C522 1.386 . S
C523 C527 1.393 . S
C524 H513 0.950 1_655 S
C524 C522 1.391 . S
C524 C525 1.400 . S
C525 C519 1.491 1_655 S
C525 C524 1.400 . S
C525 C526 1.398 . S
C526 H514 0.950 . S
C526 C525 1.398 . S
C526 C527 1.391 . S
C527 H515 0.950 . S
C527 C523 1.393 . S
C527 C526 1.391 . S
H528 C536 0.950 . S
H529 C541 0.950 . S
H530 C538 0.950 . S
H531 C540 0.950 . S
H532 C542 0.950 . S
H533 C544 0.950 . S
H534 C546 0.950 . S
H535 C547 0.950 . S
C536 H528 0.950 . S
C536 C537 1.386 . S
C536 C538 1.391 . S
C537 C536 1.386 . S
C537 C541 1.393 . S
C538 H530 0.950 . S
C538 C536 1.391 . S
C538 C539 1.400 . S
C539 C538 1.400 . S
C539 C540 1.398 . S
C539 C545 1.491 . S
C540 H531 0.950 . S
C540 C539 1.398 . S
C540 C541 1.391 . S
C541 H529 0.950 . S
C541 C537 1.393 . S
C541 C540 1.391 . S
C542 H532 0.950 . S
C542 C543 1.386 . S
C542 C544 1.391 . S
C543 C542 1.386 . S
C543 C547 1.393 . S
C544 H533 0.950 . S
C544 C542 1.391 . S
C544 C545 1.400 . S
C545 C539 1.491 . S
C545 C544 1.400 . S
C545 C546 1.398 . S
C546 H534 0.950 . S
C546 C545 1.398 . S
C546 C547 1.391 . S
C547 H535 0.950 . S
C547 C543 1.393 . S
C547 C546 1.391 . S
H548 C556 0.950 . S
H549 C561 0.950 . S
H550 C558 0.950 . S
H551 C560 0.950 . S
H552 C562 0.950 . S
H553 C564 0.950 . S
H554 C566 0.950 . S
H555 C567 0.950 . S
C556 H548 0.950 . S
C556 C557 1.386 . S
C556 C558 1.391 . S
C557 C556 1.386 . S
C557 C561 1.393 . S
C558 H550 0.950 . S
C558 C556 1.391 . S
C558 C559 1.400 . S
C559 C558 1.400 . S
C559 C560 1.398 . S
C559 C565 1.491 . S
C560 H551 0.950 . S
C560 C559 1.398 . S
C560 C561 1.391 . S
C561 H549 0.950 . S
C561 C557 1.393 . S
C561 C560 1.391 . S
C562 H552 0.950 . S
C562 C563 1.386 . S
C562 C564 1.391 . S
C563 C562 1.386 . S
C563 C567 1.393 . S
C564 H553 0.950 . S
C564 C562 1.391 . S
C564 C565 1.400 . S
C565 C559 1.491 . S
C565 C564 1.400 . S
C565 C566 1.398 . S
C566 H554 0.950 . S
C566 C565 1.398 . S
C566 C567 1.391 . S
C567 H555 0.950 . S
C567 C563 1.393 . S
C567 C566 1.391 . S
H568 C576 0.950 . S
H569 C581 0.950 . S
H570 C578 0.950 . S
H571 C580 0.950 . S
H572 C582 0.950 . S
H573 C584 0.950 . S
H574 C586 0.950 . S
H575 C587 0.950 . S
C576 H568 0.950 . S
C576 C577 1.386 . S
C576 C578 1.391 . S
C577 C576 1.386 . S
C577 C581 1.393 . S
C578 H570 0.950 . S
C578 C576 1.391 . S
C578 C579 1.400 . S
C579 C578 1.400 . S
C579 C580 1.398 . S
C579 C585 1.491 . S
C580 H571 0.950 . S
C580 C579 1.398 . S
C580 C581 1.391 . S
C581 H569 0.950 . S
C581 C577 1.393 . S
C581 C580 1.391 . S
C582 H572 0.950 . S
C582 C583 1.386 . S
C582 C584 1.391 . S
C583 C582 1.386 . S
C583 C587 1.393 . S
C584 H573 0.950 . S
C584 C582 1.391 . S
C584 C585 1.400 . S
C585 C579 1.491 . S
C585 C584 1.400 . S
C585 C586 1.398 . S
C586 H574 0.950 . S
C586 C585 1.398 . S
C586 C587 1.391 . S
C587 H575 0.950 . S
C587 C583 1.393 . S
C587 C586 1.391 . S
H588 C596 0.950 . S
H589 C601 0.950 . S
H590 C598 0.950 . S
H591 C600 0.950 . S
H592 C602 0.950 . S
H593 C604 0.950 . S
H594 C606 0.950 . S
H595 C607 0.950 . S
C596 H588 0.950 . S
C596 C597 1.386 . S
C596 C598 1.391 . S
C597 C596 1.386 . S
C597 C601 1.393 . S
C598 H590 0.950 . S
C598 C596 1.391 . S
C598 C599 1.400 . S
C599 C598 1.400 . S
C599 C600 1.398 . S
C599 C605 1.491 . S
C600 H591 0.950 . S
C600 C599 1.398 . S
C600 C601 1.391 . S
C601 H589 0.950 . S
C601 C597 1.393 . S
C601 C600 1.391 . S
C602 H592 0.950 . S
C602 C603 1.386 . S
C602 C604 1.391 . S
C603 C602 1.386 . S
C603 C607 1.393 . S
C604 H593 0.950 . S
C604 C602 1.391 . S
C604 C605 1.400 . S
C605 C599 1.491 . S
C605 C604 1.400 . S
C605 C606 1.398 . S
C606 H594 0.950 . S
C606 C605 1.398 . S
C606 C607 1.391 . S
C607 H595 0.950 . S
C607 C603 1.393 . S
C607 C606 1.391 . S
H608 C616 0.950 . S
H609 C621 0.950 . S
H610 C618 0.950 . S
H611 C620 0.950 . S
H612 C622 0.950 . S
H613 C624 0.950 . S
H614 C626 0.950 . S
H615 C627 0.950 . S
C616 H608 0.950 . S
C616 C617 1.386 . S
C616 C618 1.391 . S
C617 C616 1.386 . S
C617 C621 1.393 . S
C618 H610 0.950 . S
C618 C616 1.391 . S
C618 C619 1.400 . S
C619 C618 1.400 . S
C619 C620 1.398 . S
C619 C625 1.491 . S
C620 H611 0.950 . S
C620 C619 1.398 . S
C620 C621 1.391 . S
C621 H609 0.950 . S
C621 C617 1.393 . S
C621 C620 1.391 . S
C622 H612 0.950 . S
C622 C623 1.386 . S
C622 C624 1.391 . S
C623 C622 1.386 . S
C623 C627 1.393 . S
C624 H613 0.950 . S
C624 C622 1.391 . S
C624 C625 1.400 . S
C625 C619 1.491 . S
C625 C624 1.400 . S
C625 C626 1.398 . S
C626 H614 0.950 . S
C626 C625 1.398 . S
C626 C627 1.391 . S
C627 H615 0.950 . S
C627 C623 1.393 . S
C627 C626 1.391 . S
H628 C636 0.950 . S
H629 C641 0.950 . S
H630 C638 0.950 . S
H631 C640 0.950 . S
H632 C642 0.950 . S
H633 C644 0.950 . S
H634 C646 0.950 . S
H635 C647 0.950 . S
C636 H628 0.950 . S
C636 C637 1.386 . S
C636 C638 1.391 . S
C637 C636 1.386 . S
C637 C641 1.393 . S
C638 H630 0.950 . S
C638 C636 1.391 . S
C638 C639 1.400 . S
C639 C638 1.400 . S
C639 C640 1.398 . S
C639 C645 1.491 . S
C640 H631 0.950 . S
C640 C639 1.398 . S
C640 C641 1.391 . S
C641 H629 0.950 . S
C641 C637 1.393 . S
C641 C640 1.391 . S
C642 H632 0.950 . S
C642 C643 1.386 . S
C642 C644 1.391 . S
C643 C642 1.386 . S
C643 C647 1.393 . S
C644 H633 0.950 . S
C644 C642 1.391 . S
C644 C645 1.400 . S
C645 C639 1.491 . S
C645 C644 1.400 . S
C645 C646 1.398 . S
C646 H634 0.950 . S
C646 C645 1.398 . S
C646 C647 1.391 . S
C647 H635 0.950 . S
C647 C643 1.393 . S
C647 C646 1.391 . S
H648 C656 0.950 . S
H649 C661 0.950 . S
H650 C658 0.950 . S
H651 C660 0.950 . S
H652 C662 0.950 . S
H653 C664 0.950 . S
H654 C666 0.950 . S
H655 C667 0.950 . S
C656 H648 0.950 . S
C656 C657 1.386 . S
C656 C658 1.391 . S
C657 C656 1.386 . S
C657 C661 1.393 . S
C658 H650 0.950 . S
C658 C656 1.391 . S
C658 C659 1.400 . S
C659 C658 1.400 . S
C659 C660 1.398 . S
C659 C665 1.491 . S
C660 H651 0.950 . S
C660 C659 1.398 . S
C660 C661 1.391 . S
C661 H649 0.950 . S
C661 C657 1.393 . S
C661 C660 1.391 . S
C662 H652 0.950 . S
C662 C663 1.386 . S
C662 C664 1.391 . S
C663 C662 1.386 . S
C663 C667 1.393 . S
C664 H653 0.950 . S
C664 C662 1.391 . S
C664 C665 1.400 . S
C665 C659 1.491 . S
C665 C664 1.400 . S
C665 C666 1.398 . S
C666 H654 0.950 . S
C666 C665 1.398 . S
C666 C667 1.391 . S
C667 H655 0.950 . S
C667 C663 1.393 . S
C667 C666 1.391 . S
H668 C676 0.950 . S
H669 C681 0.950 . S
H670 C678 0.950 . S
H671 C680 0.950 . S
H672 C682 0.950 . S
H673 C684 0.950 . S
H674 C686 0.950 . S
H675 C687 0.950 . S
C676 H668 0.950 . S
C676 C677 1.386 . S
C676 C678 1.391 . S
C677 C676 1.386 . S
C677 C681 1.393 . S
C678 H670 0.950 . S
C678 C676 1.391 . S
C678 C679 1.400 . S
C679 C678 1.400 . S
C679 C680 1.398 . S
C679 C685 1.491 . S
C680 H671 0.950 . S
C680 C679 1.398 . S
C680 C681 1.391 . S
C681 H669 0.950 . S
C681 C677 1.393 . S
C681 C680 1.391 . S
C682 H672 0.950 . S
C682 C683 1.386 . S
C682 C684 1.391 . S
C683 C682 1.386 . S
C683 C687 1.393 . S
C684 H673 0.950 . S
C684 C682 1.391 . S
C684 C685 1.400 . S
C685 C679 1.491 . S
C685 C684 1.400 . S
C685 C686 1.398 . S
C686 H674 0.950 . S
C686 C685 1.398 . S
C686 C687 1.391 . S
C687 H675 0.950 . S
C687 C683 1.393 . S
C687 C686 1.391 . S
H688 C696 0.950 . S
H689 C701 0.950 . S
H690 C698 0.950 . S
H691 C700 0.950 . S
H692 C702 0.950 . S
H693 C704 0.950 . S
H694 C706 0.950 . S
H695 C707 0.950 . S
C696 H688 0.950 . S
C696 C697 1.386 . S
C696 C698 1.391 . S
C697 C696 1.386 . S
C697 C701 1.393 . S
C698 H690 0.950 . S
C698 C696 1.391 . S
C698 C699 1.400 . S
C699 C698 1.400 . S
C699 C700 1.398 . S
C699 C705 1.491 . S
C700 H691 0.950 . S
C700 C699 1.398 . S
C700 C701 1.391 . S
C701 H689 0.950 . S
C701 C697 1.393 . S
C701 C700 1.391 . S
C702 H692 0.950 . S
C702 C703 1.386 . S
C702 C704 1.391 . S
C703 C702 1.386 . S
C703 C707 1.393 . S
C704 H693 0.950 . S
C704 C702 1.391 . S
C704 C705 1.400 . S
C705 C699 1.491 . S
C705 C704 1.400 . S
C705 C706 1.398 . S
C706 H694 0.950 . S
C706 C705 1.398 . S
C706 C707 1.391 . S
C707 H695 0.950 . S
C707 C703 1.393 . S
C707 C706 1.391 . S
H708 C716 0.950 . S
H709 C721 0.950 . S
H710 C718 0.950 . S
H711 C720 0.950 . S
H712 C722 0.950 . S
H713 C724 0.950 . S
H714 C726 0.950 . S
H715 C727 0.950 . S
C716 H708 0.950 . S
C716 C717 1.386 . S
C716 C718 1.391 . S
C717 C716 1.386 . S
C717 C721 1.393 . S
C718 H710 0.950 . S
C718 C716 1.391 . S
C718 C719 1.400 . S
C719 C718 1.400 . S
C719 C720 1.398 . S
C719 C725 1.491 . S
C720 H711 0.950 . S
C720 C719 1.398 . S
C720 C721 1.391 . S
C721 H709 0.950 . S
C721 C717 1.393 . S
C721 C720 1.391 . S
C722 H712 0.950 . S
C722 C723 1.386 . S
C722 C724 1.391 . S
C723 C722 1.386 . S
C723 C727 1.393 . S
C724 H713 0.950 . S
C724 C722 1.391 . S
C724 C725 1.400 . S
C725 C719 1.491 . S
C725 C724 1.400 . S
C725 C726 1.398 . S
C726 H714 0.950 . S
C726 C725 1.398 . S
C726 C727 1.391 . S
C727 H715 0.950 . S
C727 C723 1.393 . S
C727 C726 1.391 . S
H728 C736 0.950 . S
H729 C741 0.950 . S
H730 C738 0.950 . S
H731 C740 0.950 . S
H732 C742 0.950 . S
H733 C744 0.950 . S
H734 C746 0.950 . S
H735 C747 0.950 . S
C736 H728 0.950 . S
C736 C737 1.386 . S
C736 C738 1.391 . S
C737 C736 1.386 . S
C737 C741 1.393 . S
C738 H730 0.950 . S
C738 C736 1.391 . S
C738 C739 1.400 . S
C739 C738 1.400 . S
C739 C740 1.398 . S
C739 C745 1.491 . S
C740 H731 0.950 . S
C740 C739 1.398 . S
C740 C741 1.391 . S
C741 H729 0.950 . S
C741 C737 1.393 . S
C741 C740 1.391 . S
C742 H732 0.950 . S
C742 C743 1.386 . S
C742 C744 1.391 . S
C743 C742 1.386 . S
C743 C747 1.393 . S
C744 H733 0.950 . S
C744 C742 1.391 . S
C744 C745 1.400 . S
C745 C739 1.491 . S
C745 C744 1.400 . S
C745 C746 1.398 . S
C746 H734 0.950 . S
C746 C745 1.398 . S
C746 C747 1.391 . S
C747 H735 0.950 . S
C747 C743 1.393 . S
C747 C746 1.391 . S
H748 C756 0.950 . S
H749 C761 0.950 . S
H750 C758 0.950 . S
H751 C760 0.942 . S
H752 C762 0.950 . S
H753 C764 0.950 . S
H754 C766 0.943 . S
H755 C767 0.950 . S
C756 H748 0.950 . S
C756 C757 1.386 . S
C756 C758 1.391 . S
C757 C756 1.386 . S
C757 C761 1.393 . S
C758 H750 0.950 . S
C758 C756 1.391 . S
C758 C759 1.400 . S
C759 C758 1.400 . S
C759 C760 1.398 . S
C759 C765 1.491 1_556 S
C760 H751 0.942 . S
C760 C759 1.398 . S
C760 C761 1.391 . S
C761 H749 0.950 . S
C761 C757 1.393 . S
C761 C760 1.391 . S
C762 H752 0.950 . S
C762 C763 1.386 . S
C762 C764 1.391 . S
C763 C762 1.386 . S
C763 C767 1.393 . S
C764 H753 0.950 . S
C764 C762 1.391 . S
C764 C765 1.400 . S
C765 C759 1.491 1_554 S
C765 C764 1.400 . S
C765 C766 1.398 . S
C766 H754 0.943 . S
C766 C765 1.398 . S
C766 C767 1.391 . S
C767 H755 0.950 . S
C767 C763 1.393 . S
C767 C766 1.391 . S
H768 C776 0.950 . S
H769 C781 0.950 . S
H770 C778 0.950 . S
H771 C780 0.950 . S
H772 C782 0.950 . S
H773 C784 0.950 . S
H774 C786 0.950 . S
H775 C787 0.950 . S
C776 H768 0.950 . S
C776 C777 1.386 . S
C776 C778 1.391 . S
C777 C776 1.386 . S
C777 C781 1.393 . S
C778 H770 0.950 . S
C778 C776 1.391 . S
C778 C779 1.400 . S
C779 C778 1.400 . S
C779 C780 1.398 . S
C779 C785 1.491 1_554 S
C780 H771 0.950 . S
C780 C779 1.398 . S
C780 C781 1.391 . S
C781 H769 0.950 . S
C781 C777 1.393 . S
C781 C780 1.391 . S
C782 H772 0.950 . S
C782 C783 1.386 . S
C782 C784 1.391 . S
C783 C782 1.386 . S
C783 C787 1.393 . S
C784 H773 0.950 . S
C784 C782 1.391 . S
C784 C785 1.400 . S
C785 C779 1.491 1_556 S
C785 C784 1.400 . S
C785 C786 1.398 . S
C786 H774 0.950 . S
C786 C785 1.398 . S
C786 C787 1.391 . S
C787 H775 0.950 . S
C787 C783 1.393 . S
C787 C786 1.391 . S
H788 C796 0.950 . S
H789 C801 0.950 . S
H790 C798 0.950 . S
H791 C800 0.950 . S
H792 C802 0.950 . S
H793 C804 0.950 . S
H794 C806 0.950 . S
H795 C807 0.950 . S
C796 H788 0.950 . S
C796 C797 1.386 . S
C796 C798 1.391 . S
C797 C796 1.386 . S
C797 C801 1.393 . S
C798 H790 0.950 . S
C798 C796 1.391 . S
C798 C799 1.400 . S
C799 C798 1.400 . S
C799 C800 1.398 . S
C799 C805 1.491 . S
C800 H791 0.950 . S
C800 C799 1.398 . S
C800 C801 1.391 . S
C801 H789 0.950 . S
C801 C797 1.393 . S
C801 C800 1.391 . S
C802 H792 0.950 . S
C802 C803 1.386 . S
C802 C804 1.391 . S
C803 C802 1.386 . S
C803 C807 1.393 . S
C804 H793 0.950 . S
C804 C802 1.391 . S
C804 C805 1.400 . S
C805 C799 1.491 . S
C805 C804 1.400 . S
C805 C806 1.398 . S
C806 H794 0.950 . S
C806 C805 1.398 . S
C806 C807 1.391 . S
C807 H795 0.950 . S
C807 C803 1.393 . S
C807 C806 1.391 . S
H808 C816 0.950 . S
H809 C821 0.950 . S
H810 C818 0.950 . S
H811 C820 0.950 . S
H812 C822 0.950 . S
H813 C824 0.950 . S
H814 C826 0.950 . S
H815 C827 0.950 . S
C816 H808 0.950 . S
C816 C817 1.386 . S
C816 C818 1.391 . S
C817 C816 1.386 . S
C817 C821 1.393 . S
C818 H810 0.950 . S
C818 C816 1.391 . S
C818 C819 1.400 . S
C819 C818 1.400 . S
C819 C820 1.398 . S
C819 C825 1.491 . S
C820 H811 0.950 . S
C820 C819 1.398 . S
C820 C821 1.391 . S
C821 H809 0.950 . S
C821 C817 1.393 . S
C821 C820 1.391 . S
C822 H812 0.950 . S
C822 C823 1.386 . S
C822 C824 1.391 . S
C823 C822 1.386 . S
C823 C827 1.393 . S
C824 H813 0.950 . S
C824 C822 1.391 . S
C824 C825 1.400 . S
C825 C819 1.491 . S
C825 C824 1.400 . S
C825 C826 1.398 . S
C826 H814 0.950 . S
C826 C825 1.398 . S
C826 C827 1.391 . S
C827 H815 0.950 . S
C827 C823 1.393 . S
C827 C826 1.391 . S
H828 C836 0.950 . S
H829 C841 0.950 . S
H830 C838 0.950 . S
H831 C840 0.950 . S
H832 C842 0.950 . S
H833 C844 0.950 . S
H834 C846 0.950 . S
H835 C847 0.950 . S
C836 H828 0.950 . S
C836 C837 1.386 . S
C836 C838 1.391 . S
C837 C836 1.386 . S
C837 C841 1.393 . S
C838 H830 0.950 . S
C838 C836 1.391 . S
C838 C839 1.400 . S
C839 C838 1.400 . S
C839 C840 1.398 . S
C839 C845 1.491 . S
C840 H831 0.950 . S
C840 C839 1.398 . S
C840 C841 1.391 . S
C841 H829 0.950 . S
C841 C837 1.393 . S
C841 C840 1.391 . S
C842 H832 0.950 . S
C842 C843 1.386 . S
C842 C844 1.391 . S
C843 C842 1.386 . S
C843 C847 1.393 . S
C844 H833 0.950 . S
C844 C842 1.391 . S
C844 C845 1.400 . S
C845 C839 1.491 . S
C845 C844 1.400 . S
C845 C846 1.398 . S
C846 H834 0.950 . S
C846 C845 1.398 . S
C846 C847 1.391 . S
C847 H835 0.950 . S
C847 C843 1.393 . S
C847 C846 1.391 . S
C217 C133 2.011 . S
C223 C3 2.011 . S
C237 C18 2.159 . S
C243 C148 2.160 . S
C257 C107 2.003 . S
C263 C29 2.003 . S
C277 C122 2.161 . S
C283 C44 2.160 . S
C297 C55 2.019 . S
C303 C185 2.018 . S
C317 C200 2.157 . S
C323 C70 2.159 . S
C337 C81 1.995 . S
C343 C159 1.995 . S
C357 C174 2.150 . S
C363 C96 2.149 . S
C377 C131 1.685 . S
C383 C1 1.686 . S
C397 C23 1.775 . S
C403 C153 1.774 . S
C417 C27 1.667 . S
C423 C105 1.666 . S
C437 C49 1.769 . S
C443 C127 1.769 . S
C457 C53 1.678 . S
C463 C183 1.679 . S
C477 C75 1.759 . S
C483 C205 1.759 . S
C497 C157 1.660 . S
C503 C79 1.659 . S
C517 C179 1.762 . S
C523 C101 1.762 . S
C537 C10 1.623 . S
C543 C88 1.622 . S
C557 C14 1.604 . S
C563 C92 1.592 . S
C577 C36 1.623 . S
C583 C62 1.622 . S
C597 C40 1.606 . S
C603 C66 1.600 . S
C617 C114 1.620 . S
C623 C192 1.622 . S
C637 C196 1.599 . S
C643 C118 1.594 . S
C657 C140 1.623 . S
C663 C166 1.623 . S
C677 C170 1.608 . S
C683 C144 1.596 . S
C697 C5 1.748 . S
C703 C198 1.697 . S
C717 C161 1.748 . S
C723 C16 1.699 . S
C737 C172 1.698 . S
C743 C31 1.746 . S
C757 C187 1.737 . S
C763 C42 1.679 . S
C777 C120 1.675 . S
C783 C57 1.738 . S
C797 C135 1.741 . S
C803 C68 1.681 . S
C817 C83 1.748 . S
C823 C146 1.699 . S
C837 C94 1.699 . S
C843 C109 1.747 . S
