# Generated by pormake.
# Topology rkf, (6)-cn, num edge types: 1
# Building blocks:
#     Node 0, Type 0, BuildingBlock: CUKXOW_clean_sbu_0, # of connection points: 6
#     Node 1, Type 0, BuildingBlock: CUKXOW_clean_sbu_0, # of connection points: 6
#     Node 2, Type 0, BuildingBlock: CUKXOW_clean_sbu_0, # of connection points: 6
#     Node 3, Type 0, BuildingBlock: CUKXOW_clean_sbu_0, # of connection points: 6
#     Node 4, Type 0, BuildingBlock: CUKXOW_clean_sbu_0, # of connection points: 6
#     Node 5, Type 0, BuildingBlock: CUKXOW_clean_sbu_0, # of connection points: 6
#     Edge 6, Type (0, 0), BuildingBlock: CIFDUS_clean_linker_0, # of connection points: 2
#     Edge 7, Type (0, 0), BuildingBlock: CIFDUS_clean_linker_0, # of connection points: 2
#     Edge 8, Type (0, 0), BuildingBlock: CIFDUS_clean_linker_0, # of connection points: 2
#     Edge 9, Type (0, 0), BuildingBlock: CIFDUS_clean_linker_0, # of connection points: 2
#     Edge 10, Type (0, 0), BuildingBlock: CIFDUS_clean_linker_0, # of connection points: 2
#     Edge 11, Type (0, 0), BuildingBlock: CIFDUS_clean_linker_0, # of connection points: 2
#     Edge 12, Type (0, 0), BuildingBlock: CIFDUS_clean_linker_0, # of connection points: 2
#     Edge 13, Type (0, 0), BuildingBlock: CIFDUS_clean_linker_0, # of connection points: 2
#     Edge 14, Type (0, 0), BuildingBlock: CIFDUS_clean_linker_0, # of connection points: 2
#     Edge 15, Type (0, 0), BuildingBlock: CIFDUS_clean_linker_0, # of connection points: 2
#     Edge 16, Type (0, 0), BuildingBlock: CIFDUS_clean_linker_0, # of connection points: 2
#     Edge 17, Type (0, 0), BuildingBlock: CIFDUS_clean_linker_0, # of connection points: 2
#     Edge 18, Type (0, 0), BuildingBlock: CIFDUS_clean_linker_0, # of connection points: 2
#     Edge 19, Type (0, 0), BuildingBlock: CIFDUS_clean_linker_0, # of connection points: 2
#     Edge 20, Type (0, 0), BuildingBlock: CIFDUS_clean_linker_0, # of connection points: 2
#     Edge 21, Type (0, 0), BuildingBlock: CIFDUS_clean_linker_0, # of connection points: 2
#     Edge 22, Type (0, 0), BuildingBlock: CIFDUS_clean_linker_0, # of connection points: 2
#     Edge 23, Type (0, 0), BuildingBlock: CIFDUS_clean_linker_0, # of connection points: 2
# Relax obj value: 0.321
# Max RMSD: 0.272
# Mean RMSD: 0.269
data_MOF--net-rkf--node1-CUKXOW_clean_sbu_0--edge1-CIFDUS_clean_linker_0
_symmetry_space_group_name_H-M    P1
_symmetry_Int_Tables_number       1
_symmetry_cell_setting            triclinic
loop_
_symmetry_equiv_pos_as_xyz
'x, y, z'
_cell_length_a     21.364889
_cell_length_b     21.24615
_cell_length_c     34.079605
_cell_angle_alpha  89.882333
_cell_angle_beta   89.336144
_cell_angle_gamma 119.27029
loop_
_atom_site_label
_atom_site_type_symbol
_atom_site_fract_x
_atom_site_fract_y
_atom_site_fract_z
_atom_type_partial_charge
Tb0 Tb 0.30329 0.07051 1.04408 0.0
C1 C 0.41563 0.07566 0.10635 0.0
Tb2 Tb 0.25485 0.9396 0.10628 0.0
O3 O 0.30238 0.13579 0.09324 0.0
O4 O 0.23423 0.02514 0.09327 0.0
O5 O 0.40663 0.09913 1.07118 0.0
C6 C 0.15806 0.86417 0.16394 0.0
O7 O 0.36112 0.02328 0.12755 0.0
C8 C 0.32797 0.93417 1.0442 0.0
C9 C 0.18277 0.90706 1.02319 0.0
O10 O 0.22566 0.87958 0.16336 0.0
O11 O 0.14688 0.89133 0.13243 0.0
O12 O 0.29317 0.8792 1.06856 0.0
O13 O 0.32205 -0.01455 1.05855 0.0
O14 O 0.18146 0.88355 1.05951 0.0
O15 O 0.22445 0.97549 1.01169 0.0
C16 C 0.30296 0.15898 0.98737 0.0
O17 O 0.34992 0.1364 0.99017 0.0
O18 O 0.25751 0.13191 1.01643 0.0
C19 C 0.25504 0.08121 0.11358 0.0
Tb20 Tb 0.1177 0.16365 0.4462 0.0
C21 C 0.00689 0.02132 0.40868 0.0
Tb22 Tb 0.17141 0.067 0.40708 0.0
O23 O 0.07495 0.18237 0.39167 0.0
O24 O 0.15572 0.15517 0.38903 0.0
O25 O 0.01618 0.06635 0.4377 0.0
C26 C 0.19769 0.01148 0.34307 0.0
O27 O 0.06022 0.01611 0.3922 0.0
C28 C 0.14837 0.03521 0.48377 0.0
C29 C 0.28579 0.21982 0.43596 0.0
O30 O 0.13767 0.9836 0.36275 0.0
O31 O 0.24522 0.06654 0.36236 0.0
O32 O 0.1743 0.00604 0.45941 0.0
O33 O 0.14013 0.0812 0.46393 0.0
O34 O 0.27323 0.1645 0.41327 0.0
O35 O 0.23401 0.22554 0.45485 0.0
C36 C 0.08939 0.24142 0.49758 0.0
O37 O 0.13739 0.26774 0.46968 0.0
O38 O 0.05736 0.17138 0.49663 0.0
C39 C 0.10946 0.16131 0.36828 0.0
Tb40 Tb -0.01844 0.24983 0.7056 0.0
C41 C 0.95047 0.35176 0.76064 0.0
Tb42 Tb 0.1008 0.35278 0.76544 0.0
O43 O 0.92295 0.17796 0.75532 0.0
O44 O 0.03259 0.24165 0.75595 0.0
O45 O 0.93662 0.31683 0.72638 0.0
C46 C 0.17384 0.3458 0.82755 0.0
O47 O 0.0051 0.36101 0.78364 0.0
C48 C 0.10081 0.41424 0.69758 0.0
C49 C 0.15048 0.30586 0.68922 0.0
O50 O 0.15101 0.39281 0.82359 0.0
O51 O 0.15601 0.30548 0.79677 0.0
O52 O 0.15445 0.44313 0.72237 0.0
O53 O 0.05123 0.36003 0.71486 0.0
O54 O 0.16894 0.33676 0.72411 0.0
O55 O 0.08313 0.2733 0.67626 0.0
C56 C 0.90753 0.16004 0.64742 0.0
O57 O 0.96512 0.16644 0.66333 0.0
O58 O 0.89152 0.20597 0.66373 0.0
C59 C -0.0204 0.19885 0.77639 0.0
Tb60 Tb 0.8091 0.94976 0.10958 0.0
C61 C 0.93514 0.94045 0.07633 0.0
Tb62 Tb 0.92858 0.08718 1.06973 0.0
O63 O 0.78519 0.88854 1.05404 0.0
O64 O 0.8289 -0.00103 1.05279 0.0
O65 O 0.8895 0.91751 0.10619 0.0
C66 C 0.00241 0.16298 1.00647 0.0
O67 O 0.95331 0.00151 1.05716 0.0
C68 C 0.95954 0.09061 0.14583 0.0
C69 C 0.78891 0.08677 0.10088 0.0
O70 O 0.00946 0.1124 1.02363 0.0
O71 O 0.95678 0.17408 1.0267 0.0
O72 O -0.00317 0.14214 0.12058 0.0
O73 O 0.90577 0.04267 0.12744 0.0
O74 O 0.8436 0.11619 0.07547 0.0
O75 O 0.77455 0.0287 0.12191 0.0
C76 C 0.70772 0.85577 0.15801 0.0
O77 O 0.69713 0.88947 0.12932 0.0
O78 O 0.77541 0.87469 0.15937 0.0
C79 C 0.8132 0.94482 1.03102 0.0
Tb80 Tb 0.73176 0.7265 0.3732 0.0
C81 C 0.61803 0.61193 0.43384 0.0
Tb82 Tb 0.63861 0.77271 0.4302 0.0
O83 O 0.79414 0.7272 0.42404 0.0
O84 O 0.74434 0.79031 0.42272 0.0
O85 O 0.65593 0.62185 0.4002 0.0
C86 C 0.66865 0.87268 0.48522 0.0
O87 O 0.61277 0.66496 0.45261 0.0
C88 C 0.57565 0.70703 0.36485 0.0
C89 C 0.69714 0.85686 0.35119 0.0
O90 O 0.60582 0.81364 0.48226 0.0
O91 O 0.71112 0.8734 0.45753 0.0
O92 O 0.55175 0.74204 0.38679 0.0
O93 O 0.62718 0.708 0.38281 0.0
O94 O 0.66455 0.85318 0.38506 0.0
O95 O 0.7239 0.81327 0.34189 0.0
C96 C 0.82516 0.73042 0.31716 0.0
O97 O 0.84122 0.76886 0.34879 0.0
O98 O 0.75547 0.68788 0.31731 0.0
C99 C 0.77829 0.76919 0.44436 0.0
Tb100 Tb 0.07733 0.87561 0.78767 0.0
C101 C 0.0677 0.0013 0.75337 0.0
Tb102 Tb 0.94435 0.84167 0.7407 0.0
O103 O 0.15099 0.92346 0.73628 0.0
O104 O 0.0451 0.84993 0.72861 0.0
O105 O 0.08428 0.97988 0.78607 0.0
C106 C 0.88016 0.79826 0.67131 0.0
O107 O 0.01793 0.95526 0.72945 0.0
C108 C 0.93697 0.88007 0.81433 0.0
C109 C 0.94942 0.71263 0.78364 0.0
O110 O 0.86813 0.83831 0.69599 0.0
O111 O 0.92385 0.7804 0.68716 0.0
O112 O 0.90084 0.88573 0.78505 0.0
O113 O 0.96757 0.84496 0.80201 0.0
O114 O 0.90971 0.7316 0.76197 0.0
O115 O 0.01381 0.75974 0.79654 0.0
C116 C 0.17154 0.88081 0.83983 0.0
O117 O 0.14709 0.83637 0.81078 0.0
O118 O 0.14281 0.92248 0.83976 0.0
C119 C 0.10136 0.8946 0.71017 0.0
H120 H -0.0192 0.94888 1.00217 0.0
H121 H 0.92769 0.81713 0.1071 0.0
H122 H -0.01921 0.7487 0.07766 0.0
H123 H 0.07961 0.76363 1.03438 0.0
H124 H 0.15531 0.92293 0.94373 0.0
H125 H 0.046 0.93154 0.94822 0.0
C126 C -0.02171 0.90359 1.01828 0.0
C127 C 0.95441 0.89037 1.05752 0.0
C128 C 0.00934 0.86609 1.00149 0.0
C129 C 0.94927 0.83013 0.07745 0.0
C130 C -0.02177 0.7902 1.06033 0.0
C131 C 0.07011 0.79838 1.01482 0.0
C132 C 0.12915 0.85534 0.99559 0.0
C133 C 0.01439 0.81265 1.02403 0.0
C134 C 0.11331 0.88711 0.96387 0.0
C135 C 0.05169 0.89375 0.96727 0.0
H136 H 0.77349 0.8994 0.28017 0.0
H137 H 0.67679 0.98179 0.3578 0.0
H138 H 0.79303 0.06226 0.38792 0.0
H139 H 0.90453 0.06279 0.41033 0.0
H140 H 0.96879 0.92358 0.35035 0.0
H141 H 0.88283 0.90132 0.29928 0.0
C142 C 0.77941 0.93665 0.30347 0.0
C143 C 0.71861 0.9219 0.32591 0.0
C144 C 0.84212 0.96683 0.32563 0.0
C145 C 0.72447 0.98164 0.34679 0.0
C146 C 0.79033 0.02601 0.36486 0.0
C147 C 0.89956 0.02749 0.38622 0.0
C148 C 0.94317 -0.00486 0.38418 0.0
C149 C 0.84671 0.01077 0.35815 0.0
C150 C 0.93557 0.94898 0.35275 0.0
C151 C 0.88814 0.93796 0.32273 0.0
H152 H 0.07202 0.04893 0.67955 0.0
H153 H 0.18127 0.11204 0.79045 0.0
H154 H 0.26499 0.23055 0.76271 0.0
H155 H 0.28135 0.32176 0.71328 0.0
H156 H 0.15506 0.26087 0.61067 0.0
H157 H 0.11437 0.13339 0.62371 0.0
C158 C 0.1152 0.08725 0.69751 0.0
C159 C 0.11897 0.07256 0.73736 0.0
C160 C 0.16268 0.15424 0.68149 0.0
C161 C 0.17574 0.12329 0.76005 0.0
C162 C 0.22451 0.19038 0.74405 0.0
C163 C 0.2464 0.27981 0.69332 0.0
C164 C 0.20457 0.29446 0.66735 0.0
C165 C 0.21543 0.20768 0.70561 0.0
C166 C 0.1763 0.24667 0.63579 0.0
C167 C 0.15108 0.17356 0.64385 0.0
H168 H 0.24447 0.24842 0.98944 0.0
H169 H 0.34275 0.16239 0.91076 0.0
H170 H 0.31567 0.21716 0.85476 0.0
H171 H 0.25552 0.28108 0.82771 0.0
H172 H 0.16274 0.37344 0.90572 0.0
H173 H 0.19806 0.32687 0.96251 0.0
C174 C 0.26113 0.24285 0.96008 0.0
C175 C 0.29547 0.20099 0.9543 0.0
C176 C 0.24674 0.2761 0.92797 0.0
C177 C 0.31675 0.19445 0.9161 0.0
C178 C 0.30094 0.22558 0.88404 0.0
C179 C 0.24422 0.29228 0.85718 0.0
C180 C 0.20646 0.33082 0.8624 0.0
C181 C 0.26483 0.26537 0.88954 0.0
C182 C 0.19247 0.34492 0.9008 0.0
C183 C 0.21223 0.31768 0.93327 0.0
H184 H 0.05611 0.04458 0.31678 0.0
H185 H 0.13885 0.2741 0.32017 0.0
H186 H 0.10115 0.27281 0.25253 0.0
H187 H 0.03687 0.206 0.1933 0.0
H188 H 0.93787 0.97426 0.19241 0.0
H189 H -0.01268 0.97624 0.25747 0.0
C190 C 0.06578 0.09419 0.30283 0.0
C191 C 0.10128 0.15961 0.32412 0.0
C192 C 0.03905 0.09226 0.26428 0.0
C193 C 0.11344 0.22324 0.30475 0.0
C194 C 0.09077 0.22234 0.26603 0.0
C195 C 0.02514 0.15563 0.20752 0.0
C196 C -0.01748 0.0899 0.18768 0.0
C197 C 0.05198 0.15708 0.24574 0.0
C198 C 0.96887 0.02557 0.20687 0.0
C199 C -0.00234 0.02683 0.24423 0.0
H200 H 0.7638 0.09365 0.62774 0.0
H201 H 0.96758 0.11124 0.59496 0.0
H202 H 0.911 0.02496 0.54253 0.0
H203 H 0.80551 0.94447 0.50623 0.0
H204 H 0.5975 0.91479 0.53943 0.0
H205 H 0.65332 0.00508 0.59173 0.0
C206 C 0.79552 0.0788 0.60881 0.0
C207 C 0.87008 0.10958 0.61493 0.0
C208 C 0.76186 0.0267 0.57908 0.0
C209 C 0.91036 0.08871 0.59081 0.0
C210 C 0.87804 0.03925 0.5608 0.0
C211 C 0.77193 0.95765 0.52475 0.0
C212 C 0.69743 0.92355 0.51862 0.0
C213 C 0.80407 0.0079 0.55476 0.0
C214 C 0.65493 0.94035 0.5435 0.0
C215 C 0.68702 -0.00785 0.57326 0.0
H216 H 0.82775 0.83864 0.99301 0.0
H217 H 0.85267 0.05005 0.97347 0.0
H218 H 0.89075 0.04832 0.90528 0.0
H219 H 0.91917 -0.01297 0.85058 0.0
H220 H 0.91046 0.78349 0.87413 0.0
H221 H 0.86703 0.78316 0.94105 0.0
C222 C 0.84191 0.88476 0.97398 0.0
C223 C 0.83716 0.94462 0.98893 0.0
C224 C 0.86821 0.88528 0.93533 0.0
C225 C 0.85613 0.00354 0.96338 0.0
C226 C 0.87837 0.00267 0.92425 0.0
C227 C 0.90826 0.9428 0.87045 0.0
C228 C 0.91779 0.88486 0.85675 0.0
C229 C 0.88517 0.94405 0.9098 0.0
C230 C 0.90399 0.82873 0.88342 0.0
C231 C 0.87854 0.82833 0.92181 0.0
H232 H 0.9662 0.76147 0.32053 0.0
H233 H 0.80177 0.73156 0.23876 0.0
H234 H 0.889 0.76779 0.18438 0.0
H235 H 0.01393 0.81452 0.16023 0.0
H236 H 0.17693 0.835 0.24059 0.0
H237 H 0.08851 0.79347 0.29478 0.0
C238 C 0.94921 0.76163 0.2907 0.0
C239 C 0.87701 0.74344 0.28387 0.0
C240 C -0.0004 0.78042 0.25916 0.0
C241 C 0.85632 0.74428 0.24496 0.0
C242 C 0.9065 0.76544 0.2138 0.0
C243 C 0.03006 0.80899 0.18951 0.0
C244 C 0.1027 0.82877 0.19618 0.0
C245 C -0.02149 0.78444 0.22054 0.0
C246 C 0.12186 0.82021 0.23436 0.0
C247 C 0.07112 0.79678 0.26548 0.0
H248 H 0.02089 0.92746 0.65743 0.0
H249 H 0.21069 0.90582 0.6647 0.0
H250 H 0.24114 0.9455 0.59638 0.0
H251 H 0.2165 -0.01026 0.53436 0.0
H252 H 0.03773 0.02974 0.5293 0.0
H253 H 0.00162 0.98208 0.59657 0.0
C254 C 0.06896 0.93143 0.64425 0.0
C255 C 0.11292 0.91242 0.66673 0.0
C256 C 0.08887 0.95908 0.60514 0.0
C257 C 0.1752 0.91891 0.64845 0.0
C258 C 0.19301 0.94222 0.60926 0.0
C259 C 0.16996 -0.01126 0.54807 0.0
C260 C 0.13013 0.01371 0.52643 0.0
C261 C 0.15081 0.96321 0.58733 0.0
C262 C 0.07005 0.01188 0.54505 0.0
C263 C 0.04906 0.98396 0.58359 0.0
H264 H 0.54031 0.15384 1.06397 0.0
H265 H 0.45913 0.03928 0.17394 0.0
H266 H 0.57283 0.0415 0.18442 0.0
H267 H 0.68724 0.05845 0.15751 0.0
H268 H 0.76784 0.17038 1.04696 0.0
H269 H 0.66312 0.18762 1.04204 0.0
C270 C 0.54787 0.13099 0.09079 0.0
C271 C 0.49016 0.09519 0.11774 0.0
C272 C 0.61322 0.13105 0.09632 0.0
C273 C 0.50182 0.06644 0.15237 0.0
C274 C 0.56693 0.06732 0.15834 0.0
C275 C 0.68278 0.08797 0.13268 0.0
C276 C 0.7351 0.11214 0.10236 0.0
C277 C 0.62176 0.09666 0.12972 0.0
C278 C 0.72859 0.15103 1.07072 0.0
C279 C 0.6683 0.16047 1.06774 0.0
H280 H 0.34192 0.33093 0.48797 0.0
H281 H 0.39648 0.24808 0.38528 0.0
H282 H 0.51079 0.35923 0.37901 0.0
H283 H 0.58705 0.486 0.39697 0.0
H284 H 0.53268 0.56875 0.49986 0.0
H285 H 0.42788 0.45136 0.51205 0.0
C286 C 0.3793 0.3367 0.46459 0.0
C287 C 0.3599 0.28163 0.43678 0.0
C288 C 0.4451 0.40107 0.46096 0.0
C289 C 0.40959 0.28963 0.40704 0.0
C290 C 0.47507 0.35343 0.40328 0.0
C291 C 0.55344 0.4781 0.42264 0.0
C292 C 0.56715 0.53696 0.44684 0.0
C293 C 0.4923 0.41047 0.42927 0.0
C294 C 0.52308 0.52502 0.48022 0.0
C295 C 0.4627 0.4578 0.4872 0.0
H296 H 0.96659 0.43739 0.82375 0.0
H297 H 0.85927 0.37129 0.71264 0.0
H298 H 0.83624 0.47264 0.71342 0.0
H299 H 0.86968 0.59399 0.73865 0.0
H300 H -0.02104 0.66021 0.84904 0.0
H301 H 0.97663 0.54499 0.85578 0.0
C302 C 0.93639 0.44384 0.80022 0.0
C303 C 0.91685 0.39779 0.76768 0.0
C304 C 0.92441 0.50332 0.80036 0.0
C305 C 0.87637 0.40642 0.73786 0.0
C306 C 0.86339 0.46487 0.73809 0.0
C307 C 0.89042 0.582 0.76483 0.0
C308 C 0.92569 0.63605 0.79286 0.0
C309 C 0.89061 0.51589 0.76813 0.0
C310 C 0.95251 0.61982 0.82668 0.0
C311 C 0.95155 0.554 0.83051 0.0
H312 H 0.14203 0.00343 0.16218 0.0
H313 H 0.36792 0.15767 0.16122 0.0
H314 H 0.37241 0.14332 0.23213 0.0
H315 H 0.31209 0.08541 0.29437 0.0
H316 H 0.0847 0.93569 0.29558 0.0
H317 H 0.08085 0.9499 0.22485 0.0
C318 C 0.19209 0.03359 0.17764 0.0
C319 C 0.25475 0.08008 0.15669 0.0
C320 C 0.19424 0.02514 0.21835 0.0
C321 C 0.31899 0.1211 0.17692 0.0
C322 C 0.32177 0.11243 0.21735 0.0
C323 C 0.2622 0.0542 0.27891 0.0
C324 C 0.19934 0.00781 0.29998 0.0
C325 C 0.25993 0.06365 0.23827 0.0
C326 C 0.13443 0.96986 0.27985 0.0
C327 C 0.13187 0.97871 0.23947 0.0
H328 H 0.18988 0.3631 0.53246 0.0
H329 H 0.96293 0.21301 0.53121 0.0
H330 H 0.9443 0.27214 0.58813 0.0
H331 H -0.00465 0.34873 0.64542 0.0
H332 H 0.22425 0.48521 0.65302 0.0
H333 H 0.23966 0.45148 0.58637 0.0
C334 C 0.13631 0.34445 0.54437 0.0
C335 C 0.07778 0.28361 0.52816 0.0
C336 C 0.12672 0.37597 0.5786 0.0
C337 C 0.00868 0.2592 0.54374 0.0
C338 C -0.00187 0.29287 0.57627 0.0
C339 C 0.04838 0.37288 0.63194 0.0
C340 C 0.10866 0.41813 0.65428 0.0
C341 C 0.0571 0.3489 0.59503 0.0
C342 C 0.17704 0.44997 0.63645 0.0
C343 C 0.1859 0.42968 0.59857 0.0
H344 H 0.05861 0.16508 0.82476 0.0
H345 H 0.89799 0.23195 0.82398 0.0
H346 H 0.90033 0.23892 0.89562 0.0
H347 H 0.94347 0.22019 0.95843 0.0
H348 H 0.09279 0.13873 0.96005 0.0
H349 H 0.10031 0.14384 0.88829 0.0
C350 C 0.02434 0.1812 0.84049 0.0
C351 C -0.02139 0.19856 0.8195 0.0
C352 C 0.0246 0.18315 0.88171 0.0
C353 C 0.93354 0.21838 0.8398 0.0
C354 C 0.93523 0.22283 0.88065 0.0
C355 C -0.02079 0.20555 0.94309 0.0
C356 C 0.01871 0.18065 0.96443 0.0
C357 C -0.01958 0.2052 0.90192 0.0
C358 C 0.06285 0.15933 0.94419 0.0
C359 C 0.06651 0.16143 0.90318 0.0
H360 H 0.69053 0.73788 0.19701 0.0
H361 H 0.61058 0.88839 0.1898 0.0
H362 H 0.54544 0.84275 0.25215 0.0
H363 H 0.53226 0.7767 0.3141 0.0
H364 H 0.60923 0.62359 0.31978 0.0
H365 H 0.65142 0.65063 0.25175 0.0
C366 C 0.65698 0.75892 0.20863 0.0
C367 C 0.65578 0.81672 0.18958 0.0
C368 C 0.61916 0.73187 0.24409 0.0
C369 C 0.612 0.84368 0.20432 0.0
C370 C 0.57506 0.81785 0.23998 0.0
C371 C 0.55522 0.74694 0.29981 0.0
C372 C 0.57003 0.70011 0.32195 0.0
C373 C 0.58083 0.76406 0.26093 0.0
C374 C 0.59912 0.66125 0.30325 0.0
C375 C 0.62385 0.67718 0.26455 0.0
H376 H 0.89128 0.78554 0.48651 0.0
H377 H 0.6798 0.75846 0.50009 0.0
H378 H 0.69471 0.77554 0.57049 0.0
H379 H 0.76765 0.79299 0.62987 0.0
H380 H 0.96811 0.7919 0.61648 0.0
H381 H 0.95833 0.79036 0.54554 0.0
C382 C 0.84881 0.78406 0.50494 0.0
C383 C 0.78651 0.77692 0.48756 0.0
C384 C 0.85592 0.78793 0.546 0.0
C385 C 0.73074 0.77132 0.51204 0.0
C386 C 0.73861 0.77885 0.55269 0.0
C387 C 0.80888 0.79232 0.61131 0.0
C388 C 0.86886 0.7936 0.62844 0.0
C389 C 0.80115 0.78727 0.57016 0.0
C390 C 0.92146 0.79145 0.60407 0.0
C391 C 0.91603 0.79047 0.56336 0.0
H392 H 0.28654 -0.01033 0.87428 0.0
H393 H 0.1491 0.75919 0.87728 0.0
H394 H 0.20141 0.75126 0.9394 0.0
H395 H 0.26774 0.81408 0.9986 0.0
H396 H 0.40709 0.0443 0.99437 0.0
H397 H 0.37585 0.04802 0.92613 0.0
C398 C 0.26977 0.93768 0.88811 0.0
C399 C 0.21354 0.8753 0.87206 0.0
C400 C 0.30077 0.93352 0.92341 0.0
C401 C 0.1923 0.80788 0.88957 0.0
C402 C 0.22213 0.80335 0.92503 0.0
C403 C 0.29408 0.86435 0.98208 0.0
C404 C 0.33744 0.92923 1.00162 0.0
C405 C 0.27418 0.86627 0.94309 0.0
C406 C 0.372 -0.00602 0.97995 0.0
C407 C 0.35346 -0.00372 0.9411 0.0
loop_
_geom_bond_atom_site_label_1
_geom_bond_atom_site_label_2
_geom_bond_distance
_geom_bond_site_symmetry_2
_ccdc_geom_bond_type
Tb0 O3 2.453 1_556 S
Tb0 O4 2.596 1_556 S
Tb0 O5 2.374 . S
Tb0 O13 2.330 1_545 S
Tb0 O15 2.353 . S
Tb0 O17 2.427 . S
Tb0 O18 2.513 . S
C1 O5 1.251 1_554 S
C1 O7 1.263 1_545 S
Tb2 O4 2.343 1_565 S
Tb2 O7 2.353 . S
Tb2 O10 2.427 . S
Tb2 O11 2.513 . S
Tb2 O12 2.453 1_554 S
Tb2 O13 2.604 1_554 S
Tb2 O14 2.374 . S
O3 Tb0 2.453 1_554 S
O3 C19 1.245 . S
O4 Tb0 2.596 1_554 S
O4 Tb2 2.343 1_545 S
O4 C19 1.259 . S
O5 Tb0 2.374 . S
O5 C1 1.251 1_556 S
C6 O10 1.275 . S
C6 O11 1.246 . S
O7 C1 1.263 1_565 S
O7 Tb2 2.353 . S
C8 O12 1.245 . S
C8 O13 1.270 . S
C9 O14 1.250 1_546 S
C9 O15 1.263 . S
O10 Tb2 2.427 . S
O10 C6 1.275 . S
O11 Tb2 2.513 . S
O11 C6 1.246 . S
O12 Tb2 2.453 1_556 S
O12 C8 1.245 . S
O13 Tb0 2.330 1_565 S
O13 Tb2 2.604 1_556 S
O13 C8 1.270 . S
O14 Tb2 2.374 . S
O14 C9 1.250 1_564 S
O15 Tb0 2.353 . S
O15 C9 1.263 . S
C16 O17 1.275 . S
C16 O18 1.246 . S
O17 Tb0 2.427 . S
O17 C16 1.275 . S
O18 Tb0 2.513 . S
O18 C16 1.246 . S
C19 O3 1.245 . S
C19 O4 1.259 . S
Tb20 O23 2.453 . S
Tb20 O24 2.596 . S
Tb20 O25 2.374 . S
Tb20 O33 2.343 . S
Tb20 O35 2.353 . S
Tb20 O37 2.427 . S
Tb20 O38 2.513 . S
C21 O25 1.251 . S
C21 O27 1.263 . S
Tb22 O24 2.343 . S
Tb22 O27 2.353 . S
Tb22 O30 2.427 . S
Tb22 O31 2.513 . S
Tb22 O32 2.453 . S
Tb22 O33 2.596 . S
Tb22 O34 2.374 . S
O23 Tb20 2.453 . S
O23 C39 1.245 . S
O24 Tb20 2.596 . S
O24 Tb22 2.343 . S
O24 C39 1.259 . S
O25 Tb20 2.374 . S
O25 C21 1.251 . S
C26 O30 1.275 . S
C26 O31 1.246 . S
O27 C21 1.263 . S
O27 Tb22 2.353 . S
C28 O32 1.245 . S
C28 O33 1.259 . S
C29 O34 1.250 . S
C29 O35 1.263 . S
O30 Tb22 2.427 . S
O30 C26 1.275 . S
O31 Tb22 2.513 . S
O31 C26 1.246 . S
O32 Tb22 2.453 . S
O32 C28 1.245 . S
O33 Tb20 2.343 . S
O33 Tb22 2.596 . S
O33 C28 1.259 . S
O34 Tb22 2.374 . S
O34 C29 1.250 . S
O35 Tb20 2.353 . S
O35 C29 1.263 . S
C36 O37 1.275 . S
C36 O38 1.246 . S
O37 Tb20 2.427 . S
O37 C36 1.275 . S
O38 Tb20 2.513 . S
O38 C36 1.246 . S
C39 O23 1.245 . S
C39 O24 1.259 . S
Tb40 O43 2.453 . S
Tb40 O44 2.596 1_655 S
Tb40 O45 2.374 . S
Tb40 O53 2.343 1_655 S
Tb40 O55 2.353 . S
Tb40 O57 2.427 . S
Tb40 O58 2.513 . S
C41 O45 1.251 1_455 S
C41 O47 1.263 . S
Tb42 O44 2.343 . S
Tb42 O47 2.353 . S
Tb42 O50 2.427 . S
Tb42 O51 2.513 . S
Tb42 O52 2.453 . S
Tb42 O53 2.596 . S
Tb42 O54 2.374 . S
O43 Tb40 2.453 . S
O43 C59 1.245 . S
O44 Tb40 2.596 1_455 S
O44 Tb42 2.343 . S
O44 C59 1.259 1_455 S
O45 Tb40 2.374 . S
O45 C41 1.251 1_655 S
C46 O50 1.275 . S
C46 O51 1.246 . S
O47 C41 1.263 . S
O47 Tb42 2.353 . S
C48 O52 1.245 . S
C48 O53 1.259 . S
C49 O54 1.250 . S
C49 O55 1.263 1_455 S
O50 Tb42 2.427 . S
O50 C46 1.275 . S
O51 Tb42 2.513 . S
O51 C46 1.246 . S
O52 Tb42 2.453 . S
O52 C48 1.245 . S
O53 Tb40 2.343 1_455 S
O53 Tb42 2.596 . S
O53 C48 1.259 . S
O54 Tb42 2.374 . S
O54 C49 1.250 . S
O55 Tb40 2.353 . S
O55 C49 1.263 1_655 S
C56 O57 1.275 . S
C56 O58 1.246 . S
O57 Tb40 2.427 . S
O57 C56 1.275 . S
O58 Tb40 2.513 . S
O58 C56 1.246 . S
C59 O43 1.245 . S
C59 O44 1.259 1_655 S
Tb60 O63 2.453 1_554 S
Tb60 O64 2.596 1_564 S
Tb60 O65 2.374 . S
Tb60 O73 2.343 1_565 S
Tb60 O75 2.353 . S
Tb60 O77 2.427 . S
Tb60 O78 2.513 . S
C61 O65 1.251 1_546 S
C61 O67 1.263 . S
Tb62 O64 2.343 . S
Tb62 O67 2.353 . S
Tb62 O70 2.427 . S
Tb62 O71 2.513 . S
Tb62 O72 2.453 1_556 S
Tb62 O73 2.596 1_556 S
Tb62 O74 2.374 . S
O63 Tb60 2.453 1_556 S
O63 C79 1.245 . S
O64 Tb60 2.596 1_546 S
O64 Tb62 2.343 . S
O64 C79 1.259 1_545 S
O65 Tb60 2.374 . S
O65 C61 1.251 1_564 S
C66 O70 1.275 . S
C66 O71 1.246 . S
O67 C61 1.263 . S
O67 Tb62 2.353 . S
C68 O72 1.245 . S
C68 O73 1.259 . S
C69 O74 1.250 1_554 S
C69 O75 1.263 1_545 S
O70 Tb62 2.427 . S
O70 C66 1.275 . S
O71 Tb62 2.513 . S
O71 C66 1.246 . S
O72 Tb62 2.453 1_554 S
O72 C68 1.245 . S
O73 Tb60 2.343 1_545 S
O73 Tb62 2.596 1_554 S
O73 C68 1.259 . S
O74 Tb62 2.374 . S
O74 C69 1.250 1_556 S
O75 Tb60 2.353 . S
O75 C69 1.263 1_565 S
C76 O77 1.275 . S
C76 O78 1.246 . S
O77 Tb60 2.427 . S
O77 C76 1.275 . S
O78 Tb60 2.513 . S
O78 C76 1.246 . S
C79 O63 1.245 . S
C79 O64 1.259 1_565 S
Tb80 O83 2.453 . S
Tb80 O84 2.596 . S
Tb80 O85 2.374 . S
Tb80 O93 2.343 . S
Tb80 O95 2.353 . S
Tb80 O97 2.427 . S
Tb80 O98 2.513 . S
C81 O85 1.251 . S
C81 O87 1.263 . S
Tb82 O84 2.343 . S
Tb82 O87 2.353 . S
Tb82 O90 2.427 . S
Tb82 O91 2.513 . S
Tb82 O92 2.453 . S
Tb82 O93 2.596 . S
Tb82 O94 2.374 . S
O83 Tb80 2.453 . S
O83 C99 1.245 . S
O84 Tb80 2.596 . S
O84 Tb82 2.343 . S
O84 C99 1.259 . S
O85 Tb80 2.374 . S
O85 C81 1.251 . S
C86 O90 1.275 . S
C86 O91 1.246 . S
O87 C81 1.263 . S
O87 Tb82 2.353 . S
C88 O92 1.245 . S
C88 O93 1.259 . S
C89 O94 1.250 . S
C89 O95 1.263 . S
O90 Tb82 2.427 . S
O90 C86 1.275 . S
O91 Tb82 2.513 . S
O91 C86 1.246 . S
O92 Tb82 2.453 . S
O92 C88 1.245 . S
O93 Tb80 2.343 . S
O93 Tb82 2.596 . S
O93 C88 1.259 . S
O94 Tb82 2.374 . S
O94 C89 1.250 . S
O95 Tb80 2.353 . S
O95 C89 1.263 . S
C96 O97 1.275 . S
C96 O98 1.246 . S
O97 Tb80 2.427 . S
O97 C96 1.275 . S
O98 Tb80 2.513 . S
O98 C96 1.246 . S
C99 O83 1.245 . S
C99 O84 1.259 . S
Tb100 O103 2.453 . S
Tb100 O104 2.596 . S
Tb100 O105 2.374 . S
Tb100 O113 2.343 1_455 S
Tb100 O115 2.353 . S
Tb100 O117 2.427 . S
Tb100 O118 2.513 . S
C101 O105 1.251 . S
C101 O107 1.263 1_455 S
Tb102 O104 2.343 1_655 S
Tb102 O107 2.353 . S
Tb102 O110 2.427 . S
Tb102 O111 2.513 . S
Tb102 O112 2.453 . S
Tb102 O113 2.596 . S
Tb102 O114 2.374 . S
O103 Tb100 2.453 . S
O103 C119 1.245 . S
O104 Tb100 2.596 . S
O104 Tb102 2.343 1_455 S
O104 C119 1.259 . S
O105 Tb100 2.374 . S
O105 C101 1.251 . S
C106 O110 1.275 . S
C106 O111 1.246 . S
O107 C101 1.263 1_655 S
O107 Tb102 2.353 . S
C108 O112 1.245 . S
C108 O113 1.259 . S
C109 O114 1.250 1_455 S
C109 O115 1.263 . S
O110 Tb102 2.427 . S
O110 C106 1.275 . S
O111 Tb102 2.513 . S
O111 C106 1.246 . S
O112 Tb102 2.453 . S
O112 C108 1.245 . S
O113 Tb100 2.343 1_655 S
O113 Tb102 2.596 . S
O113 C108 1.259 . S
O114 Tb102 2.374 . S
O114 C109 1.250 1_655 S
O115 Tb100 2.353 . S
O115 C109 1.263 . S
C116 O117 1.275 . S
C116 O118 1.246 . S
O117 Tb100 2.427 . S
O117 C116 1.275 . S
O118 Tb100 2.513 . S
O118 C116 1.246 . S
C119 O103 1.245 . S
C119 O104 1.259 . S
H120 C126 0.929 1_455 S
H121 C129 0.930 . S
H122 C130 0.930 . S
H123 C131 0.930 . S
H124 C134 0.930 . S
H125 C135 0.930 . S
C126 H120 0.929 1_655 S
C126 C127 1.354 1_554 S
C126 C128 1.415 1_655 S
C127 C126 1.354 1_556 S
C127 C129 1.419 1_545 S
C128 C126 1.415 1_455 S
C128 C133 1.425 1_544 S
C128 C135 1.409 . S
C129 H121 0.930 . S
C129 C127 1.419 1_565 S
C129 C130 1.362 . S
C130 H122 0.930 . S
C130 C129 1.362 . S
C130 C133 1.409 1_655 S
C131 H123 0.930 . S
C131 C132 1.355 1_565 S
C131 C133 1.415 . S
C132 C131 1.355 1_545 S
C132 C134 1.419 1_556 S
C133 C128 1.425 1_566 S
C133 C130 1.409 1_455 S
C133 C131 1.415 . S
C134 H124 0.930 . S
C134 C132 1.419 1_554 S
C134 C135 1.362 . S
C135 H125 0.930 . S
C135 C128 1.409 . S
C135 C134 1.362 . S
H136 C142 0.930 . S
H137 C145 0.930 . S
H138 C146 0.930 . S
H139 C147 0.930 . S
H140 C150 0.930 . S
H141 C151 0.930 . S
C142 H136 0.930 . S
C142 C143 1.355 . S
C142 C144 1.415 1_655 S
C143 C142 1.355 . S
C143 C145 1.419 . S
C144 C142 1.415 1_455 S
C144 C149 1.425 1_565 S
C144 C151 1.409 . S
C145 H137 0.930 . S
C145 C143 1.419 . S
C145 C146 1.362 1_565 S
C146 H138 0.930 . S
C146 C145 1.362 1_545 S
C146 C149 1.409 1_655 S
C147 H139 0.930 . S
C147 C148 1.355 . S
C147 C149 1.415 . S
C148 C147 1.355 . S
C148 C150 1.419 . S
C149 C144 1.425 1_545 S
C149 C146 1.409 1_455 S
C149 C147 1.415 . S
C150 H140 0.930 . S
C150 C148 1.419 . S
C150 C151 1.362 1_545 S
C151 H141 0.930 . S
C151 C144 1.409 . S
C151 C150 1.362 1_565 S
H152 C158 0.930 . S
H153 C161 0.930 . S
H154 C162 0.930 1_645 S
H155 C163 0.930 . S
H156 C166 0.930 . S
H157 C167 0.930 . S
C158 H152 0.930 . S
C158 C159 1.355 . S
C158 C160 1.415 1_565 S
C159 C158 1.355 . S
C159 C161 1.419 1_455 S
C160 C158 1.415 1_545 S
C160 C165 1.425 . S
C160 C167 1.409 . S
C161 H153 0.930 . S
C161 C159 1.419 1_655 S
C161 C162 1.362 1_655 S
C162 H154 0.930 1_465 S
C162 C161 1.362 1_455 S
C162 C165 1.409 1_565 S
C163 H155 0.930 . S
C163 C164 1.355 . S
C163 C165 1.415 . S
C164 C163 1.355 . S
C164 C166 1.419 . S
C165 C160 1.425 . S
C165 C162 1.409 1_545 S
C165 C163 1.415 . S
C166 H156 0.930 . S
C166 C164 1.419 . S
C166 C167 1.362 . S
C167 H157 0.930 . S
C167 C160 1.409 . S
C167 C166 1.362 . S
H168 C174 0.930 . S
H169 C177 0.930 . S
H170 C178 0.930 . S
H171 C179 0.930 . S
H172 C182 0.930 . S
H173 C183 0.930 . S
C174 H168 0.930 . S
C174 C175 1.355 . S
C174 C176 1.415 . S
C175 C174 1.355 . S
C175 C177 1.419 . S
C176 C174 1.415 . S
C176 C181 1.425 . S
C176 C183 1.409 . S
C177 H169 0.930 . S
C177 C175 1.419 . S
C177 C178 1.362 . S
C178 H170 0.930 . S
C178 C177 1.362 . S
C178 C181 1.409 . S
C179 H171 0.930 . S
C179 C180 1.355 . S
C179 C181 1.415 . S
C180 C179 1.355 . S
C180 C182 1.419 . S
C181 C176 1.425 . S
C181 C178 1.409 . S
C181 C179 1.415 . S
C182 H172 0.930 . S
C182 C180 1.419 . S
C182 C183 1.362 . S
C183 H173 0.930 . S
C183 C176 1.409 . S
C183 C182 1.362 . S
H184 C190 0.930 . S
H185 C193 0.930 1_655 S
H186 C194 0.930 . S
H187 C195 0.930 . S
H188 C198 0.930 . S
H189 C199 0.930 . S
C190 H184 0.930 . S
C190 C191 1.355 . S
C190 C192 1.415 . S
C191 C190 1.355 . S
C191 C193 1.419 . S
C192 C190 1.415 . S
C192 C197 1.425 1_455 S
C192 C199 1.409 . S
C193 H185 0.930 1_455 S
C193 C191 1.419 . S
C193 C194 1.362 1_455 S
C194 H186 0.930 . S
C194 C193 1.362 1_655 S
C194 C197 1.409 . S
C195 H187 0.930 . S
C195 C196 1.355 . S
C195 C197 1.415 . S
C196 C195 1.355 . S
C196 C198 1.419 1_655 S
C197 C192 1.425 1_655 S
C197 C194 1.409 . S
C197 C195 1.415 . S
C198 H188 0.930 . S
C198 C196 1.419 1_455 S
C198 C199 1.362 . S
C199 H189 0.930 . S
C199 C192 1.409 . S
C199 C198 1.362 . S
H200 C206 0.930 . S
H201 C209 0.930 . S
H202 C210 0.930 . S
H203 C211 0.930 1_545 S
H204 C214 0.930 . S
H205 C215 0.930 . S
C206 H200 0.930 . S
C206 C207 1.355 . S
C206 C208 1.415 . S
C207 C206 1.355 . S
C207 C209 1.419 . S
C208 C206 1.415 . S
C208 C213 1.425 . S
C208 C215 1.409 1_545 S
C209 H201 0.930 . S
C209 C207 1.419 . S
C209 C210 1.362 . S
C210 H202 0.930 . S
C210 C209 1.362 . S
C210 C213 1.409 . S
C211 H203 0.930 1_565 S
C211 C212 1.355 . S
C211 C213 1.415 1_565 S
C212 C211 1.355 . S
C212 C214 1.419 . S
C213 C208 1.425 . S
C213 C210 1.409 . S
C213 C211 1.415 1_545 S
C214 H204 0.930 . S
C214 C212 1.419 . S
C214 C215 1.362 . S
C215 H205 0.930 . S
C215 C208 1.409 1_565 S
C215 C214 1.362 . S
H216 C222 0.930 . S
H217 C225 0.930 1_545 S
H218 C226 0.930 . S
H219 C227 0.930 . S
H220 C230 0.930 . S
H221 C231 0.930 . S
C222 H216 0.930 . S
C222 C223 1.355 . S
C222 C224 1.415 . S
C223 C222 1.355 . S
C223 C225 1.419 . S
C224 C222 1.415 . S
C224 C229 1.425 . S
C224 C231 1.409 . S
C225 H217 0.930 1_565 S
C225 C223 1.419 . S
C225 C226 1.362 . S
C226 H218 0.930 . S
C226 C225 1.362 . S
C226 C229 1.409 . S
C227 H219 0.930 . S
C227 C228 1.355 . S
C227 C229 1.415 . S
C228 C227 1.355 . S
C228 C230 1.419 . S
C229 C224 1.425 . S
C229 C226 1.409 . S
C229 C227 1.415 . S
C230 H220 0.930 . S
C230 C228 1.419 . S
C230 C231 1.362 . S
C231 H221 0.930 . S
C231 C224 1.409 . S
C231 C230 1.362 . S
H232 C238 0.930 1_455 S
H233 C241 0.930 . S
H234 C242 0.930 . S
H235 C243 0.930 . S
H236 C246 0.930 . S
H237 C247 0.930 . S
C238 H232 0.930 1_655 S
C238 C239 1.355 . S
C238 C240 1.415 1_655 S
C239 C238 1.355 . S
C239 C241 1.419 . S
C240 C238 1.415 1_455 S
C240 C245 1.425 . S
C240 C247 1.409 . S
C241 H233 0.930 . S
C241 C239 1.419 . S
C241 C242 1.362 . S
C242 H234 0.930 . S
C242 C241 1.362 . S
C242 C245 1.409 1_655 S
C243 H235 0.930 . S
C243 C244 1.355 . S
C243 C245 1.415 . S
C244 C243 1.355 . S
C244 C246 1.419 . S
C245 C240 1.425 . S
C245 C242 1.409 1_455 S
C245 C243 1.415 . S
C246 H236 0.930 . S
C246 C244 1.419 . S
C246 C247 1.362 . S
C247 H237 0.930 . S
C247 C240 1.409 . S
C247 C246 1.362 . S
H248 C254 0.930 . S
H249 C257 0.931 . S
H250 C258 0.930 . S
H251 C259 0.930 . S
H252 C262 0.930 . S
H253 C263 0.930 . S
C254 H248 0.930 . S
C254 C255 1.355 . S
C254 C256 1.415 1_565 S
C255 C254 1.355 . S
C255 C257 1.419 . S
C256 C254 1.415 1_545 S
C256 C261 1.425 . S
C256 C263 1.409 . S
C257 H249 0.931 . S
C257 C255 1.419 . S
C257 C258 1.361 1_565 S
C258 H250 0.930 . S
C258 C257 1.361 1_545 S
C258 C261 1.409 . S
C259 H251 0.930 . S
C259 C260 1.355 . S
C259 C261 1.415 . S
C260 C259 1.355 . S
C260 C262 1.419 . S
C261 C256 1.425 . S
C261 C258 1.409 . S
C261 C259 1.415 . S
C262 H252 0.930 . S
C262 C260 1.419 . S
C262 C263 1.362 . S
C263 H253 0.930 . S
C263 C256 1.409 . S
C263 C262 1.362 . S
H264 C270 0.930 . S
H265 C273 0.930 . S
H266 C274 0.930 . S
H267 C275 0.924 1_565 S
H268 C278 0.930 . S
H269 C279 0.930 . S
C270 H264 0.930 . S
C270 C271 1.355 . S
C270 C272 1.415 . S
C271 C270 1.355 . S
C271 C273 1.419 1_544 S
C272 C270 1.415 . S
C272 C277 1.425 . S
C272 C279 1.409 . S
C273 H265 0.930 . S
C273 C271 1.419 1_566 S
C273 C274 1.362 . S
C274 H266 0.930 . S
C274 C273 1.362 . S
C274 C277 1.409 1_566 S
C275 H267 0.924 1_545 S
C275 C276 1.356 1_556 S
C275 C277 1.419 1_556 S
C276 C275 1.356 1_554 S
C276 C278 1.419 . S
C277 C272 1.425 . S
C277 C274 1.409 1_544 S
C277 C275 1.419 1_554 S
C278 H268 0.930 . S
C278 C276 1.419 . S
C278 C279 1.362 . S
C279 H269 0.930 . S
C279 C272 1.409 . S
C279 C278 1.362 . S
H280 C286 0.930 . S
H281 C289 0.930 . S
H282 C290 0.930 . S
H283 C291 0.930 . S
H284 C294 0.930 . S
H285 C295 0.930 . S
C286 H280 0.930 . S
C286 C287 1.355 . S
C286 C288 1.415 . S
C287 C286 1.355 . S
C287 C289 1.419 . S
C288 C286 1.415 . S
C288 C293 1.425 . S
C288 C295 1.409 . S
C289 H281 0.930 . S
C289 C287 1.419 . S
C289 C290 1.362 . S
C290 H282 0.930 . S
C290 C289 1.362 . S
C290 C293 1.409 . S
C291 H283 0.930 . S
C291 C292 1.355 . S
C291 C293 1.415 . S
C292 C291 1.355 . S
C292 C294 1.419 . S
C293 C288 1.425 . S
C293 C290 1.409 . S
C293 C291 1.415 . S
C294 H284 0.930 . S
C294 C292 1.419 . S
C294 C295 1.362 . S
C295 H285 0.930 . S
C295 C288 1.409 . S
C295 C294 1.362 . S
H296 C302 0.930 . S
H297 C305 0.930 . S
H298 C306 0.930 1_655 S
H299 C307 0.930 . S
H300 C310 0.930 . S
H301 C311 0.930 . S
C302 H296 0.930 . S
C302 C303 1.355 . S
C302 C304 1.415 . S
C303 C302 1.355 . S
C303 C305 1.419 . S
C304 C302 1.415 . S
C304 C309 1.425 . S
C304 C311 1.409 . S
C305 H297 0.930 . S
C305 C303 1.419 . S
C305 C306 1.362 . S
C306 H298 0.930 1_455 S
C306 C305 1.362 . S
C306 C309 1.409 . S
C307 H299 0.930 . S
C307 C308 1.355 . S
C307 C309 1.415 . S
C308 C307 1.355 . S
C308 C310 1.419 . S
C309 C304 1.425 . S
C309 C306 1.409 . S
C309 C307 1.415 . S
C310 H300 0.930 . S
C310 C308 1.419 . S
C310 C311 1.362 . S
C311 H301 0.930 . S
C311 C304 1.409 . S
C311 C310 1.362 . S
H312 C318 0.930 . S
H313 C321 0.930 . S
H314 C322 0.930 . S
H315 C323 0.930 . S
H316 C326 0.930 . S
H317 C327 0.930 . S
C318 H312 0.930 . S
C318 C319 1.355 . S
C318 C320 1.415 . S
C319 C318 1.355 . S
C319 C321 1.419 . S
C320 C318 1.415 . S
C320 C325 1.425 . S
C320 C327 1.409 . S
C321 H313 0.930 . S
C321 C319 1.419 . S
C321 C322 1.362 . S
C322 H314 0.930 . S
C322 C321 1.362 . S
C322 C325 1.409 . S
C323 H315 0.930 . S
C323 C324 1.355 . S
C323 C325 1.415 . S
C324 C323 1.355 . S
C324 C326 1.419 . S
C325 C320 1.425 . S
C325 C322 1.409 . S
C325 C323 1.415 . S
C326 H316 0.930 . S
C326 C324 1.419 . S
C326 C327 1.362 . S
C327 H317 0.930 . S
C327 C320 1.409 . S
C327 C326 1.362 . S
H328 C334 0.930 . S
H329 C337 0.930 . S
H330 C338 0.930 . S
H331 C339 0.930 . S
H332 C342 0.930 . S
H333 C343 0.930 . S
C334 H328 0.930 . S
C334 C335 1.355 . S
C334 C336 1.415 . S
C335 C334 1.355 . S
C335 C337 1.419 . S
C336 C334 1.415 . S
C336 C341 1.425 . S
C336 C343 1.409 . S
C337 H329 0.930 . S
C337 C335 1.419 . S
C337 C338 1.362 . S
C338 H330 0.930 . S
C338 C337 1.362 . S
C338 C341 1.409 . S
C339 H331 0.930 . S
C339 C340 1.355 . S
C339 C341 1.415 . S
C340 C339 1.355 . S
C340 C342 1.419 . S
C341 C336 1.425 . S
C341 C338 1.409 . S
C341 C339 1.415 . S
C342 H332 0.930 . S
C342 C340 1.419 . S
C342 C343 1.362 . S
C343 H333 0.930 . S
C343 C336 1.409 . S
C343 C342 1.362 . S
H344 C350 0.930 . S
H345 C353 0.930 . S
H346 C354 0.930 . S
H347 C355 0.930 . S
H348 C358 0.930 . S
H349 C359 0.930 . S
C350 H344 0.930 . S
C350 C351 1.355 . S
C350 C352 1.415 . S
C351 C350 1.355 . S
C351 C353 1.419 . S
C352 C350 1.415 . S
C352 C357 1.425 . S
C352 C359 1.409 . S
C353 H345 0.930 . S
C353 C351 1.419 . S
C353 C354 1.362 . S
C354 H346 0.930 . S
C354 C353 1.362 . S
C354 C357 1.409 . S
C355 H347 0.930 . S
C355 C356 1.355 . S
C355 C357 1.415 . S
C356 C355 1.355 . S
C356 C358 1.419 . S
C357 C352 1.425 . S
C357 C354 1.409 . S
C357 C355 1.415 . S
C358 H348 0.930 . S
C358 C356 1.419 . S
C358 C359 1.362 . S
C359 H349 0.930 . S
C359 C352 1.409 . S
C359 C358 1.362 . S
H360 C366 0.930 . S
H361 C369 0.930 . S
H362 C370 0.930 . S
H363 C371 0.930 . S
H364 C374 0.930 . S
H365 C375 0.930 . S
C366 H360 0.930 . S
C366 C367 1.355 . S
C366 C368 1.415 . S
C367 C366 1.355 . S
C367 C369 1.419 . S
C368 C366 1.415 . S
C368 C373 1.425 . S
C368 C375 1.409 . S
C369 H361 0.930 . S
C369 C367 1.419 . S
C369 C370 1.362 . S
C370 H362 0.930 . S
C370 C369 1.362 . S
C370 C373 1.409 . S
C371 H363 0.930 . S
C371 C372 1.355 . S
C371 C373 1.415 . S
C372 C371 1.355 . S
C372 C374 1.419 . S
C373 C368 1.425 . S
C373 C370 1.409 . S
C373 C371 1.415 . S
C374 H364 0.930 . S
C374 C372 1.419 . S
C374 C375 1.362 . S
C375 H365 0.930 . S
C375 C368 1.409 . S
C375 C374 1.362 . S
H376 C382 0.930 . S
H377 C385 0.930 . S
H378 C386 0.930 . S
H379 C387 0.930 . S
H380 C390 0.930 . S
H381 C391 0.930 . S
C382 H376 0.930 . S
C382 C383 1.355 . S
C382 C384 1.415 . S
C383 C382 1.355 . S
C383 C385 1.419 . S
C384 C382 1.415 . S
C384 C389 1.425 . S
C384 C391 1.409 . S
C385 H377 0.930 . S
C385 C383 1.419 . S
C385 C386 1.362 . S
C386 H378 0.930 . S
C386 C385 1.362 . S
C386 C389 1.409 . S
C387 H379 0.930 . S
C387 C388 1.355 . S
C387 C389 1.415 . S
C388 C387 1.355 . S
C388 C390 1.419 . S
C389 C384 1.425 . S
C389 C386 1.409 . S
C389 C387 1.415 . S
C390 H380 0.930 . S
C390 C388 1.419 . S
C390 C391 1.362 . S
C391 H381 0.930 . S
C391 C384 1.409 . S
C391 C390 1.362 . S
H392 C398 0.930 . S
H393 C401 0.930 . S
H394 C402 0.930 . S
H395 C403 0.930 . S
H396 C406 0.930 . S
H397 C407 0.930 . S
C398 H392 0.930 . S
C398 C399 1.355 . S
C398 C400 1.415 . S
C399 C398 1.355 . S
C399 C401 1.419 . S
C400 C398 1.415 . S
C400 C405 1.425 . S
C400 C407 1.409 1_565 S
C401 H393 0.930 . S
C401 C399 1.419 . S
C401 C402 1.362 . S
C402 H394 0.930 . S
C402 C401 1.362 . S
C402 C405 1.409 . S
C403 H395 0.930 . S
C403 C404 1.355 . S
C403 C405 1.415 . S
C404 C403 1.355 . S
C404 C406 1.419 1_565 S
C405 C400 1.425 . S
C405 C402 1.409 . S
C405 C403 1.415 . S
C406 H396 0.930 . S
C406 C404 1.419 1_545 S
C406 C407 1.362 . S
C407 H397 0.930 . S
C407 C400 1.409 1_545 S
C407 C406 1.362 . S
C127 C61 1.283 . S
C132 C9 1.254 . S
C143 C89 1.293 . S
C148 C21 1.273 . S
C159 C101 1.228 . S
C164 C49 1.316 . S
C175 C16 1.590 . S
C180 C46 1.571 . S
C191 C39 2.606 . S
C196 C68 2.438 . S
C207 C56 1.637 . S
C212 C86 1.606 . S
C223 C79 2.640 . S
C228 C108 2.498 . S
C239 C96 1.627 . S
C244 C6 1.604 . S
C255 C119 2.610 . S
C260 C28 2.462 . S
C271 C1 1.162 . S
C276 C69 1.223 . S
C287 C29 1.154 . S
C292 C81 1.223 . S
C303 C41 1.166 . S
C308 C109 1.211 . S
C319 C19 1.257 . S
C324 C26 1.256 . S
C335 C36 1.211 . S
C340 C48 1.197 . S
C351 C59 1.255 . S
C356 C66 1.257 . S
C367 C76 1.224 . S
C372 C88 1.226 . S
C383 C99 1.249 . S
C388 C106 1.253 . S
C399 C116 1.217 . S
C404 C8 1.211 . S
