# Generated by pormake.
# Topology smd, (6)-cn, num edge types: 1
# Building blocks:
#     Node 0, Type 0, BuildingBlock: VOLQOD_clean_sbu_1, # of connection points: 6
#     Node 1, Type 0, BuildingBlock: VOLQOD_clean_sbu_1, # of connection points: 6
#     Node 2, Type 0, BuildingBlock: VOLQOD_clean_sbu_1, # of connection points: 6
#     Node 3, Type 0, BuildingBlock: VOLQOD_clean_sbu_1, # of connection points: 6
#     Node 4, Type 0, BuildingBlock: VOLQOD_clean_sbu_1, # of connection points: 6
#     Node 5, Type 0, BuildingBlock: VOLQOD_clean_sbu_1, # of connection points: 6
#     Node 6, Type 0, BuildingBlock: VOLQOD_clean_sbu_1, # of connection points: 6
#     Node 7, Type 0, BuildingBlock: VOLQOD_clean_sbu_1, # of connection points: 6
#     Node 8, Type 0, BuildingBlock: VOLQOD_clean_sbu_1, # of connection points: 6
#     Node 9, Type 0, BuildingBlock: VOLQOD_clean_sbu_1, # of connection points: 6
#     Node 10, Type 0, BuildingBlock: VOLQOD_clean_sbu_1, # of connection points: 6
#     Node 11, Type 0, BuildingBlock: VOLQOD_clean_sbu_1, # of connection points: 6
#     Node 12, Type 0, BuildingBlock: VOLQOD_clean_sbu_1, # of connection points: 6
#     Node 13, Type 0, BuildingBlock: VOLQOD_clean_sbu_1, # of connection points: 6
#     Node 14, Type 0, BuildingBlock: VOLQOD_clean_sbu_1, # of connection points: 6
#     Node 15, Type 0, BuildingBlock: VOLQOD_clean_sbu_1, # of connection points: 6
#     Node 16, Type 0, BuildingBlock: VOLQOD_clean_sbu_1, # of connection points: 6
#     Node 17, Type 0, BuildingBlock: VOLQOD_clean_sbu_1, # of connection points: 6
#     Edge 18, Type (0, 0), None
#     Edge 19, Type (0, 0), None
#     Edge 20, Type (0, 0), None
#     Edge 21, Type (0, 0), None
#     Edge 22, Type (0, 0), None
#     Edge 23, Type (0, 0), None
#     Edge 24, Type (0, 0), None
#     Edge 25, Type (0, 0), None
#     Edge 26, Type (0, 0), None
#     Edge 27, Type (0, 0), None
#     Edge 28, Type (0, 0), None
#     Edge 29, Type (0, 0), None
#     Edge 30, Type (0, 0), None
#     Edge 31, Type (0, 0), None
#     Edge 32, Type (0, 0), None
#     Edge 33, Type (0, 0), None
#     Edge 34, Type (0, 0), None
#     Edge 35, Type (0, 0), None
#     Edge 36, Type (0, 0), None
#     Edge 37, Type (0, 0), None
#     Edge 38, Type (0, 0), None
#     Edge 39, Type (0, 0), None
#     Edge 40, Type (0, 0), None
#     Edge 41, Type (0, 0), None
#     Edge 42, Type (0, 0), None
#     Edge 43, Type (0, 0), None
#     Edge 44, Type (0, 0), None
#     Edge 45, Type (0, 0), None
#     Edge 46, Type (0, 0), None
#     Edge 47, Type (0, 0), None
#     Edge 48, Type (0, 0), None
#     Edge 49, Type (0, 0), None
#     Edge 50, Type (0, 0), None
#     Edge 51, Type (0, 0), None
#     Edge 52, Type (0, 0), None
#     Edge 53, Type (0, 0), None
#     Edge 54, Type (0, 0), None
#     Edge 55, Type (0, 0), None
#     Edge 56, Type (0, 0), None
#     Edge 57, Type (0, 0), None
#     Edge 58, Type (0, 0), None
#     Edge 59, Type (0, 0), None
#     Edge 60, Type (0, 0), None
#     Edge 61, Type (0, 0), None
#     Edge 62, Type (0, 0), None
#     Edge 63, Type (0, 0), None
#     Edge 64, Type (0, 0), None
#     Edge 65, Type (0, 0), None
#     Edge 66, Type (0, 0), None
#     Edge 67, Type (0, 0), None
#     Edge 68, Type (0, 0), None
#     Edge 69, Type (0, 0), None
#     Edge 70, Type (0, 0), None
#     Edge 71, Type (0, 0), None
# Relax obj value: 0.180
# Max RMSD: 0.179
# Mean RMSD: 0.175
data_MOF--net-smd--node1-VOLQOD_clean_sbu_1--edge1-none
_symmetry_space_group_name_H-M    P1
_symmetry_Int_Tables_number       1
_symmetry_cell_setting            triclinic
loop_
_symmetry_equiv_pos_as_xyz
'x, y, z'
_cell_length_a     39.730871
_cell_length_b     39.71807
_cell_length_c     8.4651275
_cell_angle_alpha  89.948684
_cell_angle_beta   90.048073
_cell_angle_gamma 120.05396
loop_
_atom_site_label
_atom_site_type_symbol
_atom_site_fract_x
_atom_site_fract_y
_atom_site_fract_z
_atom_type_partial_charge
O0 O 0.00774 0.186 0.14457 0.0
Zn1 Zn -0.00307 0.16725 0.36822 0.0
O2 O -0.00464 0.20887 0.47395 0.0
Zn3 Zn 0.04044 0.24415 0.5889 0.0
Zn4 Zn -0.02325 0.23493 0.34458 0.0
Zn5 Zn 0.95906 0.18496 0.63214 0.0
O6 O 0.02288 0.23996 0.82458 0.0
O7 O -0.01715 0.17622 0.81508 0.0
O8 O 0.04345 0.16444 0.45278 0.0
O9 O 0.07613 0.22214 0.57362 0.0
O10 O 0.06636 0.29841 0.47358 0.0
O11 O 0.02017 0.28743 0.29968 0.0
O12 O 0.93452 0.24144 0.46778 0.0
O13 O 0.94397 0.11536 0.38125 0.0
O14 O 0.93823 0.21832 0.7028 0.0
O15 O 0.91708 0.13576 0.55859 0.0
C16 C -0.00499 0.20434 0.06341 0.0
C17 C 0.00184 0.20711 0.89389 0.0
C18 C 0.05438 0.30857 0.35129 0.0
C19 C 0.07329 0.19024 0.52711 0.0
C20 C 0.92711 0.23702 0.61692 0.0
C21 C 0.9147 0.11007 0.46329 0.0
O22 O 0.97203 0.21501 0.12163 0.0
O23 O 0.81024 0.8032 0.81883 0.0
Zn24 Zn 0.81918 0.82093 0.5939 0.0
O25 O 0.77571 0.77972 0.48664 0.0
Zn26 Zn 0.78749 0.74568 0.37314 0.0
Zn27 Zn 0.73131 0.75193 0.61846 0.0
Zn28 Zn 0.76021 0.8036 0.33661 0.0
O29 O 0.77514 0.75088 0.13736 0.0
O30 O 0.79077 0.81311 0.14722 0.0
O31 O 0.86961 0.82359 0.52588 0.0
O32 O 0.84518 0.76686 0.39955 0.0
O33 O 0.76059 0.69143 0.48746 0.0
O34 O 0.72608 0.70127 0.66887 0.0
O35 O 0.68067 0.74124 0.49989 0.0
O36 O 0.81888 0.87263 0.57363 0.0
O37 O 0.70574 0.76881 0.26847 0.0
O38 O 0.76702 0.85277 0.41838 0.0
C39 C 0.77908 0.78503 0.89916 0.0
C40 C 0.7828 0.78291 0.06902 0.0
C41 C 0.73947 0.68087 0.61267 0.0
C42 C 0.87403 0.79765 0.45546 0.0
C43 C 0.67662 0.74692 0.35321 0.0
C44 C 0.79343 0.87834 0.50548 0.0
O45 O 0.74542 0.77347 0.83896 0.0
O46 O 0.1727 0.98058 0.17633 0.0
Zn47 Zn 0.16324 -0.01111 0.40121 0.0
O48 O 0.20743 -0.00714 0.50853 0.0
Zn49 Zn 0.1977 0.94798 0.62459 0.0
Zn50 Zn 0.252 0.01156 0.37647 0.0
Zn51 Zn 0.22219 0.03203 0.65829 0.0
O52 O 0.2103 0.96635 0.85881 0.0
O53 O 0.19148 0.01053 0.84728 0.0
O54 O 0.11366 0.93945 0.47242 0.0
O55 O 0.13987 0.91 0.6082 0.0
O56 O 0.22672 0.92279 0.51047 0.0
O57 O 0.25962 0.96763 0.3276 0.0
O58 O 0.30206 0.05335 0.49236 0.0
O59 O 0.16313 0.04116 0.41912 0.0
O60 O 0.27684 0.05296 0.72675 0.0
O61 O 0.21514 0.07383 0.57316 0.0
C62 C 0.20401 -0.00485 0.09611 0.0
C63 C 0.2007 -0.01067 0.92638 0.0
C64 C 0.24788 0.9342 0.38528 0.0
C65 C 0.1103 0.91016 0.54945 0.0
C66 C 0.30611 0.06233 0.63971 0.0
C67 C 0.18882 0.07274 0.48487 0.0
O68 O 0.23731 0.01834 0.15659 0.0
O69 O 0.015 0.77409 0.86945 0.0
Zn70 Zn 0.03388 0.78621 0.63684 0.0
O71 O -0.01126 0.7759 0.5205 0.0
Zn72 Zn 0.97387 0.73268 0.38601 0.0
Zn73 Zn 0.94612 0.75822 0.66008 0.0
Zn74 Zn -0.00631 0.82008 0.40806 0.0
O75 O 0.96184 0.74474 0.17094 0.0
O76 O 0.00098 0.80928 0.18388 0.0
O77 O 0.06068 0.75795 0.52807 0.0
O78 O 0.02007 0.73022 0.32753 0.0
O79 O 0.93937 0.68162 0.50761 0.0
O80 O 0.92399 0.70228 0.72414 0.0
O81 O 0.90665 0.76874 0.56779 0.0
O82 O 0.07224 0.84384 0.61694 0.0
O83 O 0.94245 0.82193 0.42255 0.0
O84 O 0.04375 0.8697 0.47313 0.0
C85 C -0.01079 0.77981 0.93623 0.0
C86 C -0.01522 0.77756 0.10629 0.0
C87 C 0.92436 0.67525 0.64625 0.0
C88 C 0.05212 0.74022 0.39437 0.0
C89 C 0.90986 0.79653 0.48215 0.0
C90 C 0.07278 0.87317 0.55219 0.0
O91 O 0.96538 0.78562 0.85803 0.0
O92 O 0.23792 0.20869 0.15717 0.0
Zn93 Zn 0.24325 0.19668 0.39467 0.0
O94 O 0.20828 0.20749 0.50658 0.0
Zn95 Zn 0.2345 0.25203 0.63811 0.0
Zn96 Zn 0.18442 0.22149 0.35152 0.0
Zn97 Zn 0.16661 0.16398 0.61088 0.0
O98 O 0.21414 0.23671 0.86012 0.0
O99 O 0.18442 0.17193 0.83672 0.0
O100 O 0.29806 0.22624 0.50919 0.0
O101 O 0.28678 0.26084 0.68475 0.0
O102 O 0.24203 0.30161 0.51775 0.0
O103 O 0.21876 0.2757 0.28192 0.0
O104 O 0.13527 0.21522 0.42677 0.0
O105 O 0.22152 0.13865 0.41813 0.0
O106 O 0.11506 0.16468 0.5894 0.0
O107 O 0.16333 0.11401 0.53334 0.0
C108 C 0.20537 0.19881 0.0882 0.0
C109 C 0.20291 0.20291 0.91834 0.0
C110 C 0.23787 0.30521 0.36889 0.0
C111 C 0.30815 0.24821 0.63221 0.0
C112 C 0.1095 0.18953 0.51525 0.0
C113 C 0.18951 0.10964 0.46498 0.0
O114 O 0.17492 0.18942 0.16677 0.0
O115 O 0.74645 0.96744 0.82812 0.0
Zn116 Zn 0.74119 0.94928 0.59339 0.0
O117 O 0.77647 -0.00539 0.47835 0.0
Zn118 Zn 0.7482 0.00987 0.34643 0.0
Zn119 Zn 0.80096 0.03429 0.62785 0.0
Zn120 Zn 0.81727 -0.0079 0.3689 0.0
O121 O 0.77095 0.01989 0.12801 0.0
O122 O 0.79859 0.98284 0.14518 0.0
O123 O 0.68607 0.92268 0.48234 0.0
O124 O 0.69869 0.96446 0.28749 0.0
O125 O 0.73265 0.0442 0.47758 0.0
O126 O 0.76764 0.056 0.69678 0.0
O127 O 0.85124 0.0742 0.55042 0.0
O128 O 0.76231 0.91274 0.57397 0.0
O129 O 0.87029 0.04357 0.38508 0.0
O130 O 0.81897 0.94454 0.44547 0.0
C131 C 0.77867 -0.00873 0.89636 0.0
C132 C 0.78111 -0.00315 0.06628 0.0
C133 C 0.74095 0.05726 0.61973 0.0
C134 C 0.67684 0.93177 0.34985 0.0
C135 C 0.87685 0.07403 0.46135 0.0
C136 C 0.79341 0.91487 0.52114 0.0
O137 O 0.80916 0.01257 0.81813 0.0
O138 O 0.65396 0.51084 0.16092 0.0
Zn139 Zn 0.66201 0.50091 0.93549 0.0
O140 O 0.66642 0.54486 0.82623 0.0
Zn141 Zn 0.62185 0.53583 0.7097 0.0
Zn142 Zn 0.6802 0.58729 0.96216 0.0
Zn143 Zn 0.7085 0.56169 0.68525 0.0
O144 O 0.64065 0.54722 0.47602 0.0
O145 O 0.6889 0.53375 0.48835 0.0
O146 O 0.61367 0.45205 0.86022 0.0
O147 O 0.58358 0.47856 0.73107 0.0
O148 O 0.59623 0.56573 0.81731 0.0
O149 O 0.63363 0.58875 0.02882 0.0
O150 O 0.7129 0.63778 0.83293 0.0
O151 O 0.71263 0.49861 0.91992 0.0
O152 O 0.72984 0.617 0.62032 0.0
O153 O 0.74839 0.55161 0.77427 0.0
C154 C 0.67034 0.54251 0.23913 0.0
C155 C 0.66565 0.54026 0.40944 0.0
C156 C 0.6027 0.58064 0.95666 0.0
C157 C 0.58437 0.44894 0.78492 0.0
C158 C 0.72806 0.64374 0.69441 0.0
C159 C 0.74506 0.52364 0.85875 0.0
O160 O 0.69361 0.5753 0.17474 0.0
O161 O 0.47945 0.13946 0.17289 0.0
Zn162 Zn 0.48819 0.15672 0.94563 0.0
O163 O 0.44407 0.11574 0.84194 0.0
Zn164 Zn 0.45376 0.08048 0.72652 0.0
Zn165 Zn 0.40041 0.08897 0.97682 0.0
Zn166 Zn 0.4285 0.13961 0.69267 0.0
O167 O 0.44218 0.08684 0.49081 0.0
O168 O 0.45929 0.14942 0.50337 0.0
O169 O 0.53737 0.15749 0.86975 0.0
O170 O 0.51091 0.10018 0.74625 0.0
O171 O 0.42529 0.02589 0.84013 0.0
O172 O 0.39482 0.03834 0.03034 0.0
O173 O 0.34955 0.07782 0.85995 0.0
O174 O 0.48877 0.20904 0.92158 0.0
O175 O 0.37388 0.10447 0.62639 0.0
O176 O 0.4356 0.1889 0.77418 0.0
C177 C 0.44823 0.12221 0.25389 0.0
C178 C 0.45153 0.11948 0.42376 0.0
C179 C 0.40647 0.01677 0.97137 0.0
C180 C 0.54051 0.131 0.79711 0.0
C181 C 0.34505 0.08281 0.71303 0.0
C182 C 0.46302 0.21484 0.85646 0.0
O183 O 0.41477 0.11157 0.19403 0.0
O184 O 0.85052 0.33141 0.16184 0.0
Zn185 Zn 0.83282 0.32293 0.93719 0.0
O186 O 0.87355 0.32016 0.82929 0.0
Zn187 Zn 0.90787 0.36568 0.71366 0.0
Zn188 Zn 0.90191 0.30431 0.96087 0.0
Zn189 Zn 0.8487 0.28042 0.68071 0.0
O190 O 0.9026 0.34761 0.47967 0.0
O191 O 0.84001 0.30186 0.48987 0.0
O192 O 0.83074 0.37068 0.86671 0.0
O193 O 0.88687 0.40229 0.73562 0.0
O194 O 0.9624 0.39353 0.82554 0.0
O195 O 0.95254 0.35011 0.0115 0.0
O196 O 0.9132 0.26526 0.84007 0.0
O197 O 0.78055 0.27163 0.91891 0.0
O198 O 0.88323 0.26053 0.61234 0.0
O199 O 0.79888 0.23844 0.76373 0.0
C200 C 0.86832 0.31795 0.24181 0.0
C201 C 0.87044 0.32356 0.41161 0.0
C202 C 0.97308 0.38359 0.95215 0.0
C203 C 0.85627 0.40053 0.79216 0.0
C204 C 0.90657 0.25483 0.69436 0.0
C205 C 0.77383 0.2401 0.8514 0.0
O206 O 0.88005 0.2961 0.18085 0.0
O207 O 0.68204 0.10521 0.17953 0.0
Zn208 Zn 0.69995 0.11734 0.94435 0.0
O209 O 0.65476 0.10758 0.82927 0.0
Zn210 Zn 0.63767 0.06351 0.69594 0.0
Zn211 Zn 0.61536 0.09304 0.97848 0.0
Zn212 Zn 0.65861 0.15174 0.72272 0.0
O213 O 0.62988 0.07779 0.47729 0.0
O214 O 0.66703 0.14247 0.49714 0.0
O215 O 0.7264 0.08956 0.82965 0.0
O216 O 0.68252 0.05752 0.64322 0.0
O217 O 0.59752 0.01325 0.81331 0.0
O218 O 0.59415 0.03804 0.0442 0.0
O219 O 0.57428 0.10227 0.89852 0.0
O220 O 0.73778 0.17473 0.92366 0.0
O221 O 0.60787 0.15399 0.74418 0.0
O222 O 0.7071 0.20072 0.79561 0.0
C223 C 0.65881 0.11446 0.2472 0.0
C224 C 0.65296 0.11115 0.41698 0.0
C225 C 0.58722 0.00905 0.95915 0.0
C226 C 0.71589 0.06945 0.70167 0.0
C227 C 0.57637 0.12958 0.81342 0.0
C228 C 0.73669 0.20413 0.86934 0.0
O229 O 0.63724 0.1232 0.16839 0.0
O230 O 0.87887 0.56556 0.19611 0.0
Zn231 Zn 0.86678 0.57197 0.96308 0.0
O232 O 0.87721 0.53723 0.84663 0.0
Zn233 Zn 0.92022 0.56652 0.71332 0.0
Zn234 Zn 0.89352 0.51188 0.98972 0.0
Zn235 Zn 0.83361 0.49703 0.73652 0.0
O236 O 0.90816 0.54297 0.49701 0.0
O237 O 0.84336 0.51492 0.51196 0.0
O238 O 0.89387 0.62737 0.85566 0.0
O239 O 0.92285 0.61575 0.65696 0.0
O240 O 0.97032 0.58192 0.83879 0.0
O241 O 0.94861 0.54546 0.05498 0.0
O242 O 0.88437 0.46216 0.90215 0.0
O243 O 0.8095 0.55175 0.93984 0.0
O244 O 0.83216 0.44438 0.75132 0.0
O245 O 0.78413 0.49587 0.80618 0.0
C246 C 0.87219 0.53375 0.26348 0.0
C247 C 0.87492 0.53169 0.43348 0.0
C248 C -0.0241 0.57284 0.9781 0.0
C249 C 0.91206 0.63726 0.72315 0.0
C250 C 0.85726 0.43744 0.81482 0.0
C251 C 0.78039 0.52162 0.88165 0.0
O252 O 0.86522 0.50373 0.18549 0.0
O253 O 0.41984 0.30635 0.17581 0.0
Zn254 Zn 0.41257 0.28758 0.94132 0.0
O255 O 0.44784 0.3324 0.82497 0.0
Zn256 Zn 0.41923 0.34621 0.68859 0.0
Zn257 Zn 0.47226 0.37396 0.96825 0.0
Zn258 Zn 0.4885 0.3294 0.71898 0.0
O259 O 0.4442 0.35898 0.47542 0.0
O260 O 0.471 0.32116 0.492 0.0
O261 O 0.35697 0.26133 0.83149 0.0
O262 O 0.37094 0.29975 0.62336 0.0
O263 O 0.40165 0.37924 0.81583 0.0
O264 O 0.43748 0.3939 0.03383 0.0
O265 O 0.52151 0.4154 0.88225 0.0
O266 O 0.43266 0.25022 0.92157 0.0
O267 O 0.54087 0.38099 0.74009 0.0
O268 O 0.48973 0.2814 0.79608 0.0
C269 C 0.45202 0.33112 0.2423 0.0
C270 C 0.45462 0.3363 0.41258 0.0
C271 C 0.4099 0.39326 0.95643 0.0
C272 C 0.34835 0.26834 0.69322 0.0
C273 C 0.54708 0.41308 0.80086 0.0
C274 C 0.46364 0.25179 0.87049 0.0
O275 O 0.48166 0.35434 0.16288 0.0
O276 O 0.33901 0.8553 0.83161 0.0
Zn277 Zn 0.32823 0.83624 0.05469 0.0
O278 O 0.32679 0.87766 0.1635 0.0
Zn279 Zn 0.37271 0.9127 0.27517 0.0
Zn280 Zn 0.30958 0.9044 0.03217 0.0
Zn281 Zn 0.28877 0.85382 0.31826 0.0
O282 O 0.35534 0.90819 0.51208 0.0
O283 O 0.31148 0.84518 0.50383 0.0
O284 O 0.37428 0.83248 0.13374 0.0
O285 O 0.40831 0.8902 0.25297 0.0
O286 O 0.39845 0.96747 0.16016 0.0
O287 O 0.35349 0.95507 0.97886 0.0
O288 O 0.27287 0.91721 0.16128 0.0
O289 O 0.27602 0.78418 0.07018 0.0
O290 O 0.2666 0.88637 0.38825 0.0
O291 O 0.24829 0.80444 0.24439 0.0
C292 C 0.32596 0.87346 0.75138 0.0
C293 C 0.33222 0.87586 0.58158 0.0
C294 C 0.38709 0.97684 0.03365 0.0
C295 C 0.40478 0.85809 0.20461 0.0
C296 C 0.26166 0.91021 0.30619 0.0
C297 C 0.24668 0.77861 0.15212 0.0
O298 O 0.3024 0.88329 0.81058 0.0
O299 O 0.14463 0.46927 0.4942 0.0
Zn300 Zn 0.15406 0.48763 0.26915 0.0
O301 O 0.11035 0.44771 0.15946 0.0
Zn302 Zn 0.12052 0.41281 0.04482 0.0
Zn303 Zn 0.06791 0.41942 0.29631 0.0
Zn304 Zn 0.09264 0.4721 0.01835 0.0
O305 O 0.10942 0.42011 0.81036 0.0
O306 O 0.12069 0.48117 0.82162 0.0
O307 O 0.20378 0.48975 0.19395 0.0
O308 O 0.17809 0.43272 0.06867 0.0
O309 O 0.09046 0.35727 0.15294 0.0
O310 O 0.0662 0.37137 0.36128 0.0
O311 O 0.01683 0.40125 0.17086 0.0
O312 O 0.15457 0.53969 0.25624 0.0
O313 O 0.03733 0.43743 0.95395 0.0
O314 O 0.10154 0.52139 0.10931 0.0
C315 C 0.11306 0.45402 0.57295 0.0
C316 C 0.11545 0.45177 0.74328 0.0
C317 C 0.07474 0.34869 0.2909 0.0
C318 C 0.20746 0.46364 0.121 0.0
C319 C 0.01058 0.40958 0.03117 0.0
C320 C 0.12888 0.5462 0.1957 0.0
O321 O 0.08028 0.44472 0.50912 0.0
O322 O 0.50518 0.64672 0.80958 0.0
Zn323 Zn 0.49584 0.65465 0.03583 0.0
O324 O 0.54017 0.65833 0.14057 0.0
Zn325 Zn 0.53137 0.61363 0.25667 0.0
Zn326 Zn 0.58477 0.67707 0.00915 0.0
Zn327 Zn 0.55391 0.6967 0.29353 0.0
O328 O 0.5439 0.63213 0.49162 0.0
O329 O 0.52232 0.67401 0.4796 0.0
O330 O 0.44699 0.60522 0.10942 0.0
O331 O 0.47365 0.57567 0.24202 0.0
O332 O 0.56158 0.58911 0.14387 0.0
O333 O 0.59368 0.6338 0.96045 0.0
O334 O 0.63431 0.71871 0.12945 0.0
O335 O 0.49448 0.70629 0.06043 0.0
O336 O 0.6084 0.71743 0.3636 0.0
O337 O 0.54625 0.7387 0.2155 0.0
C338 C 0.53641 0.6604 0.72889 0.0
C339 C 0.53286 0.65398 0.55924 0.0
C340 C 0.58238 0.60042 0.0176 0.0
C341 C 0.44392 0.57602 0.18613 0.0
C342 C 0.63791 0.727 0.27764 0.0
C343 C 0.51941 0.73754 0.13052 0.0
O344 O 0.56995 0.68316 0.78854 0.0
O345 O 0.34924 0.43983 0.50937 0.0
Zn346 Zn 0.36783 0.45267 0.27586 0.0
O347 O 0.32303 0.44269 0.15848 0.0
Zn348 Zn 0.30592 0.3982 0.02717 0.0
Zn349 Zn 0.28335 0.42763 0.30691 0.0
Zn350 Zn 0.3269 0.4868 0.05078 0.0
O351 O 0.29774 0.41182 0.80748 0.0
O352 O 0.33381 0.47668 0.82556 0.0
O353 O 0.39442 0.42509 0.16378 0.0
O354 O 0.35105 0.39273 0.97592 0.0
O355 O 0.26641 0.3478 0.14679 0.0
O356 O 0.26305 0.37302 0.37629 0.0
O357 O 0.24178 0.4355 0.22256 0.0
O358 O 0.40595 0.51005 0.25611 0.0
O359 O 0.27557 0.48843 0.0742 0.0
O360 O 0.37713 0.53602 0.11476 0.0
C361 C 0.32562 0.44863 0.57636 0.0
C362 C 0.31981 0.44532 0.746 0.0
C363 C 0.25642 0.34388 0.29298 0.0
C364 C 0.3843 0.40494 0.03606 0.0
C365 C 0.24372 0.4629 0.13859 0.0
C366 C 0.40636 0.53933 0.19178 0.0
O367 O 0.30456 0.45797 0.497 0.0
O368 O 0.56632 0.87303 0.81393 0.0
Zn369 Zn 0.57229 0.86135 0.05004 0.0
O370 O 0.5375 0.87177 0.16411 0.0
Zn371 Zn 0.5634 0.91584 0.29759 0.0
Zn372 Zn 0.51392 0.88687 0.0126 0.0
Zn373 Zn 0.49619 0.8281 0.26831 0.0
O374 O 0.54183 0.90057 0.51709 0.0
O375 O 0.51411 0.83592 0.49427 0.0
O376 O 0.62697 0.89066 0.16358 0.0
O377 O 0.6152 0.92375 0.34507 0.0
O378 O 0.5718 0.96601 0.18125 0.0
O379 O 0.54893 0.94099 0.94418 0.0
O380 O 0.46595 0.88202 0.09655 0.0
O381 O 0.55114 0.80362 0.06976 0.0
O382 O 0.44523 0.83024 0.25286 0.0
O383 O 0.49309 0.77807 0.18683 0.0
C384 C 0.53373 0.86339 0.74599 0.0
C385 C 0.53128 0.86701 0.57605 0.0
C386 C 0.56806 0.97017 0.03271 0.0
C387 C 0.63672 0.91163 0.2894 0.0
C388 C 0.44042 0.85649 0.18643 0.0
C389 C 0.51938 0.77425 0.11579 0.0
O390 O 0.50362 0.85531 0.82508 0.0
O391 O 0.08156 0.63399 0.53406 0.0
Zn392 Zn 0.07718 0.61654 0.29994 0.0
O393 O 0.11128 0.6622 0.18549 0.0
Zn394 Zn 0.08317 0.67756 0.05297 0.0
Zn395 Zn 0.13525 0.70209 0.33326 0.0
Zn396 Zn 0.15166 0.65965 0.07219 0.0
O397 O 0.10573 0.68743 0.83446 0.0
O398 O 0.13218 0.64938 0.85093 0.0
O399 O 0.02297 0.58847 0.18738 0.0
O400 O 0.03399 0.63152 -0.0016 0.0
O401 O 0.06876 0.71347 0.17628 0.0
O402 O 0.10245 0.7247 0.39853 0.0
O403 O 0.18473 0.74135 0.25029 0.0
O404 O 0.09891 0.5807 0.27685 0.0
O405 O 0.20377 0.71153 0.08045 0.0
O406 O 0.15489 0.61279 0.14463 0.0
C407 C 0.11323 0.65886 0.60275 0.0
C408 C 0.11522 0.66393 0.77244 0.0
C409 C 0.07688 0.72701 0.31759 0.0
C410 C 0.01314 0.59824 0.05823 0.0
C411 C 0.20985 0.74183 0.15643 0.0
C412 C 0.12964 0.58288 0.21975 0.0
O413 O 0.14355 0.68131 0.5256 0.0
loop_
_geom_bond_atom_site_label_1
_geom_bond_atom_site_label_2
_geom_bond_distance
_geom_bond_site_symmetry_2
_ccdc_geom_bond_type
O0 Zn1 1.953 . S
O0 C16 1.225 . S
Zn1 O0 1.953 . S
Zn1 O2 1.949 . S
Zn1 O8 1.919 . S
Zn1 O13 1.924 1_455 S
O2 Zn1 1.949 . S
O2 Zn3 1.923 . S
O2 Zn4 1.950 . S
O2 Zn5 1.945 1_455 S
Zn3 O2 1.923 . S
Zn3 O6 1.933 . S
Zn3 O9 1.941 . S
Zn3 O10 1.965 . S
Zn4 O2 1.950 . S
Zn4 O11 1.938 . S
Zn4 O12 1.906 1_455 S
Zn4 O22 1.953 1_455 S
Zn5 O2 1.945 1_655 S
Zn5 O7 1.932 . S
Zn5 O14 1.977 . S
Zn5 O15 1.910 . S
O6 Zn3 1.933 . S
O6 C17 1.226 . S
O7 Zn5 1.932 . S
O7 C17 1.307 1_655 S
O8 Zn1 1.919 . S
O8 C19 1.253 . S
O9 Zn3 1.941 . S
O9 C19 1.283 . S
O10 Zn3 1.965 . S
O10 C18 1.303 . S
O11 Zn4 1.938 . S
O11 C18 1.247 . S
O12 Zn4 1.906 1_655 S
O12 C20 1.304 . S
O13 Zn1 1.924 1_655 S
O13 C21 1.311 . S
O14 Zn5 1.977 . S
O14 C20 1.272 . S
O15 Zn5 1.910 . S
O15 C21 1.231 . S
C16 O0 1.225 . S
C16 O22 1.298 1_455 S
C17 O6 1.226 . S
C17 O7 1.307 1_455 S
C18 O10 1.303 . S
C18 O11 1.247 . S
C19 O8 1.253 . S
C19 O9 1.283 . S
C20 O12 1.304 . S
C20 O14 1.272 . S
C21 O13 1.311 . S
C21 O15 1.231 . S
O22 Zn4 1.953 1_655 S
O22 C16 1.298 1_655 S
O23 Zn24 1.953 . S
O23 C39 1.225 . S
Zn24 O23 1.953 . S
Zn24 O25 1.949 . S
Zn24 O31 1.919 . S
Zn24 O36 1.924 . S
O25 Zn24 1.949 . S
O25 Zn26 1.923 . S
O25 Zn27 1.950 . S
O25 Zn28 1.945 . S
Zn26 O25 1.923 . S
Zn26 O29 1.933 . S
Zn26 O32 1.941 . S
Zn26 O33 1.965 . S
Zn27 O25 1.950 . S
Zn27 O34 1.938 . S
Zn27 O35 1.906 . S
Zn27 O45 1.953 . S
Zn28 O25 1.945 . S
Zn28 O30 1.932 . S
Zn28 O37 1.977 . S
Zn28 O38 1.910 . S
O29 Zn26 1.933 . S
O29 C40 1.226 . S
O30 Zn28 1.932 . S
O30 C40 1.307 . S
O31 Zn24 1.919 . S
O31 C42 1.253 . S
O32 Zn26 1.941 . S
O32 C42 1.283 . S
O33 Zn26 1.965 . S
O33 C41 1.303 . S
O34 Zn27 1.938 . S
O34 C41 1.247 . S
O35 Zn27 1.906 . S
O35 C43 1.304 . S
O36 Zn24 1.924 . S
O36 C44 1.311 . S
O37 Zn28 1.977 . S
O37 C43 1.272 . S
O38 Zn28 1.910 . S
O38 C44 1.231 . S
C39 O23 1.225 . S
C39 O45 1.298 . S
C40 O29 1.226 . S
C40 O30 1.307 . S
C41 O33 1.303 . S
C41 O34 1.247 . S
C42 O31 1.253 . S
C42 O32 1.283 . S
C43 O35 1.304 . S
C43 O37 1.272 . S
C44 O36 1.311 . S
C44 O38 1.231 . S
O45 Zn27 1.953 . S
O45 C39 1.298 . S
O46 Zn47 1.953 . S
O46 C62 1.225 . S
Zn47 O46 1.953 . S
Zn47 O48 1.949 . S
Zn47 O54 1.919 1_545 S
Zn47 O59 1.924 . S
O48 Zn47 1.949 . S
O48 Zn49 1.923 1_545 S
O48 Zn50 1.950 . S
O48 Zn51 1.945 . S
Zn49 O48 1.923 1_565 S
Zn49 O52 1.933 . S
Zn49 O55 1.941 . S
Zn49 O56 1.965 . S
Zn50 O48 1.950 . S
Zn50 O57 1.938 1_545 S
Zn50 O58 1.906 . S
Zn50 O68 1.953 . S
Zn51 O48 1.945 . S
Zn51 O53 1.932 . S
Zn51 O60 1.977 . S
Zn51 O61 1.910 . S
O52 Zn49 1.933 . S
O52 C63 1.226 . S
O53 Zn51 1.932 . S
O53 C63 1.307 1_545 S
O54 Zn47 1.919 1_565 S
O54 C65 1.253 . S
O55 Zn49 1.941 . S
O55 C65 1.283 . S
O56 Zn49 1.965 . S
O56 C64 1.303 . S
O57 Zn50 1.938 1_565 S
O57 C64 1.247 . S
O58 Zn50 1.906 . S
O58 C66 1.304 . S
O59 Zn47 1.924 . S
O59 C67 1.311 . S
O60 Zn51 1.977 . S
O60 C66 1.272 . S
O61 Zn51 1.910 . S
O61 C67 1.231 . S
C62 O46 1.225 . S
C62 O68 1.298 . S
C63 O52 1.226 . S
C63 O53 1.307 1_565 S
C64 O56 1.303 . S
C64 O57 1.247 . S
C65 O54 1.253 . S
C65 O55 1.283 . S
C66 O58 1.304 . S
C66 O60 1.272 . S
C67 O59 1.311 . S
C67 O61 1.231 . S
O68 Zn50 1.953 . S
O68 C62 1.298 . S
O69 Zn70 1.953 . S
O69 C85 1.225 . S
Zn70 O69 1.953 . S
Zn70 O71 1.949 . S
Zn70 O77 1.919 . S
Zn70 O82 1.924 . S
O71 Zn70 1.949 . S
O71 Zn72 1.923 . S
O71 Zn73 1.950 1_455 S
O71 Zn74 1.945 . S
Zn72 O71 1.923 . S
Zn72 O75 1.933 1_455 S
Zn72 O78 1.941 . S
Zn72 O79 1.965 1_455 S
Zn73 O71 1.950 1_655 S
Zn73 O80 1.938 . S
Zn73 O81 1.906 . S
Zn73 O91 1.952 1_655 S
Zn74 O71 1.945 . S
Zn74 O76 1.932 . S
Zn74 O83 1.977 1_455 S
Zn74 O84 1.910 . S
O75 Zn72 1.933 1_655 S
O75 C86 1.226 1_655 S
O76 Zn74 1.932 . S
O76 C86 1.307 . S
O77 Zn70 1.919 . S
O77 C88 1.253 . S
O78 Zn72 1.941 . S
O78 C88 1.283 . S
O79 Zn72 1.965 1_655 S
O79 C87 1.303 . S
O80 Zn73 1.938 . S
O80 C87 1.247 . S
O81 Zn73 1.906 . S
O81 C89 1.304 . S
O82 Zn70 1.924 . S
O82 C90 1.311 . S
O83 Zn74 1.977 1_655 S
O83 C89 1.272 . S
O84 Zn74 1.910 . S
O84 C90 1.231 . S
C85 O69 1.225 . S
C85 O91 1.302 . S
C86 O75 1.226 1_455 S
C86 O76 1.307 . S
C87 O79 1.303 . S
C87 O80 1.247 . S
C88 O77 1.253 . S
C88 O78 1.283 . S
C89 O81 1.304 . S
C89 O83 1.272 . S
C90 O82 1.311 . S
C90 O84 1.231 . S
O91 Zn73 1.952 1_455 S
O91 C85 1.302 . S
O92 Zn93 1.953 . S
O92 C108 1.225 . S
Zn93 O92 1.953 . S
Zn93 O94 1.949 . S
Zn93 O100 1.919 . S
Zn93 O105 1.924 . S
O94 Zn93 1.949 . S
O94 Zn95 1.923 . S
O94 Zn96 1.950 . S
O94 Zn97 1.945 . S
Zn95 O94 1.923 . S
Zn95 O98 1.933 . S
Zn95 O101 1.941 . S
Zn95 O102 1.965 . S
Zn96 O94 1.950 . S
Zn96 O103 1.938 . S
Zn96 O104 1.906 . S
Zn96 O114 1.953 . S
Zn97 O94 1.945 . S
Zn97 O99 1.932 . S
Zn97 O106 1.977 . S
Zn97 O107 1.910 . S
O98 Zn95 1.933 . S
O98 C109 1.226 . S
O99 Zn97 1.932 . S
O99 C109 1.307 . S
O100 Zn93 1.919 . S
O100 C111 1.253 . S
O101 Zn95 1.941 . S
O101 C111 1.283 . S
O102 Zn95 1.965 . S
O102 C110 1.303 . S
O103 Zn96 1.938 . S
O103 C110 1.247 . S
O104 Zn96 1.906 . S
O104 C112 1.304 . S
O105 Zn93 1.924 . S
O105 C113 1.311 . S
O106 Zn97 1.977 . S
O106 C112 1.272 . S
O107 Zn97 1.910 . S
O107 C113 1.231 . S
C108 O92 1.225 . S
C108 O114 1.298 . S
C109 O98 1.226 . S
C109 O99 1.307 . S
C110 O102 1.303 . S
C110 O103 1.247 . S
C111 O100 1.253 . S
C111 O101 1.283 . S
C112 O104 1.304 . S
C112 O106 1.272 . S
C113 O105 1.311 . S
C113 O107 1.231 . S
O114 Zn96 1.953 . S
O114 C108 1.298 . S
O115 Zn116 1.953 . S
O115 C131 1.225 . S
Zn116 O115 1.953 . S
Zn116 O117 1.949 1_565 S
Zn116 O123 1.919 . S
Zn116 O128 1.924 . S
O117 Zn116 1.949 1_545 S
O117 Zn118 1.923 . S
O117 Zn119 1.950 . S
O117 Zn120 1.945 . S
Zn118 O117 1.923 . S
Zn118 O121 1.933 . S
Zn118 O124 1.941 1_545 S
Zn118 O125 1.965 . S
Zn119 O117 1.950 . S
Zn119 O126 1.938 . S
Zn119 O127 1.906 . S
Zn119 O137 1.953 . S
Zn120 O117 1.945 . S
Zn120 O122 1.932 . S
Zn120 O129 1.977 . S
Zn120 O130 1.910 1_545 S
O121 Zn118 1.933 . S
O121 C132 1.226 . S
O122 Zn120 1.932 . S
O122 C132 1.307 . S
O123 Zn116 1.919 . S
O123 C134 1.253 . S
O124 Zn118 1.941 1_565 S
O124 C134 1.283 . S
O125 Zn118 1.965 . S
O125 C133 1.303 . S
O126 Zn119 1.938 . S
O126 C133 1.247 . S
O127 Zn119 1.906 . S
O127 C135 1.304 . S
O128 Zn116 1.924 . S
O128 C136 1.311 . S
O129 Zn120 1.977 . S
O129 C135 1.272 . S
O130 Zn120 1.910 1_565 S
O130 C136 1.231 . S
C131 O115 1.225 . S
C131 O137 1.298 1_565 S
C132 O121 1.226 . S
C132 O122 1.307 . S
C133 O125 1.303 . S
C133 O126 1.247 . S
C134 O123 1.253 . S
C134 O124 1.283 . S
C135 O127 1.304 . S
C135 O129 1.272 . S
C136 O128 1.311 . S
C136 O130 1.231 . S
O137 Zn119 1.953 . S
O137 C131 1.298 1_545 S
O138 Zn139 1.953 1_554 S
O138 C154 1.225 . S
Zn139 O138 1.953 1_556 S
Zn139 O140 1.949 . S
Zn139 O146 1.919 . S
Zn139 O151 1.924 . S
O140 Zn139 1.949 . S
O140 Zn141 1.923 . S
O140 Zn142 1.950 . S
O140 Zn143 1.945 . S
Zn141 O140 1.923 . S
Zn141 O144 1.933 . S
Zn141 O147 1.941 . S
Zn141 O148 1.965 . S
Zn142 O140 1.950 . S
Zn142 O149 1.938 . S
Zn142 O150 1.906 . S
Zn142 O160 1.953 1_556 S
Zn143 O140 1.945 . S
Zn143 O145 1.932 . S
Zn143 O152 1.977 . S
Zn143 O153 1.910 . S
O144 Zn141 1.933 . S
O144 C155 1.226 . S
O145 Zn143 1.932 . S
O145 C155 1.307 . S
O146 Zn139 1.919 . S
O146 C157 1.253 . S
O147 Zn141 1.941 . S
O147 C157 1.283 . S
O148 Zn141 1.965 . S
O148 C156 1.303 . S
O149 Zn142 1.938 . S
O149 C156 1.247 . S
O150 Zn142 1.906 . S
O150 C158 1.304 . S
O151 Zn139 1.924 . S
O151 C159 1.311 . S
O152 Zn143 1.977 . S
O152 C158 1.272 . S
O153 Zn143 1.910 . S
O153 C159 1.231 . S
C154 O138 1.225 . S
C154 O160 1.298 . S
C155 O144 1.226 . S
C155 O145 1.307 . S
C156 O148 1.303 . S
C156 O149 1.247 . S
C157 O146 1.253 . S
C157 O147 1.283 . S
C158 O150 1.304 . S
C158 O152 1.272 . S
C159 O151 1.311 . S
C159 O153 1.231 . S
O160 Zn142 1.953 1_554 S
O160 C154 1.298 . S
O161 Zn162 1.953 1_554 S
O161 C177 1.225 . S
Zn162 O161 1.953 1_556 S
Zn162 O163 1.949 . S
Zn162 O169 1.919 . S
Zn162 O174 1.924 . S
O163 Zn162 1.949 . S
O163 Zn164 1.923 . S
O163 Zn165 1.950 . S
O163 Zn166 1.945 . S
Zn164 O163 1.923 . S
Zn164 O167 1.933 . S
Zn164 O170 1.941 . S
Zn164 O171 1.965 . S
Zn165 O163 1.950 . S
Zn165 O172 1.938 . S
Zn165 O173 1.906 . S
Zn165 O183 1.953 1_556 S
Zn166 O163 1.945 . S
Zn166 O168 1.932 . S
Zn166 O175 1.977 . S
Zn166 O176 1.910 . S
O167 Zn164 1.933 . S
O167 C178 1.226 . S
O168 Zn166 1.932 . S
O168 C178 1.307 . S
O169 Zn162 1.919 . S
O169 C180 1.253 . S
O170 Zn164 1.941 . S
O170 C180 1.283 . S
O171 Zn164 1.965 . S
O171 C179 1.303 . S
O172 Zn165 1.938 . S
O172 C179 1.247 . S
O173 Zn165 1.906 . S
O173 C181 1.304 . S
O174 Zn162 1.924 . S
O174 C182 1.311 . S
O175 Zn166 1.977 . S
O175 C181 1.272 . S
O176 Zn166 1.910 . S
O176 C182 1.231 . S
C177 O161 1.225 . S
C177 O183 1.298 . S
C178 O167 1.226 . S
C178 O168 1.307 . S
C179 O171 1.303 . S
C179 O172 1.247 . S
C180 O169 1.253 . S
C180 O170 1.283 . S
C181 O173 1.304 . S
C181 O175 1.272 . S
C182 O174 1.311 . S
C182 O176 1.231 . S
O183 Zn165 1.953 1_554 S
O183 C177 1.298 . S
O184 Zn185 1.953 1_554 S
O184 C200 1.225 . S
Zn185 O184 1.953 1_556 S
Zn185 O186 1.949 . S
Zn185 O192 1.919 . S
Zn185 O197 1.924 . S
O186 Zn185 1.949 . S
O186 Zn187 1.923 . S
O186 Zn188 1.950 . S
O186 Zn189 1.945 . S
Zn187 O186 1.923 . S
Zn187 O190 1.933 . S
Zn187 O193 1.941 . S
Zn187 O194 1.965 . S
Zn188 O186 1.950 . S
Zn188 O195 1.938 . S
Zn188 O196 1.906 . S
Zn188 O206 1.953 1_556 S
Zn189 O186 1.945 . S
Zn189 O191 1.932 . S
Zn189 O198 1.977 . S
Zn189 O199 1.910 . S
O190 Zn187 1.933 . S
O190 C201 1.226 . S
O191 Zn189 1.932 . S
O191 C201 1.307 . S
O192 Zn185 1.919 . S
O192 C203 1.253 . S
O193 Zn187 1.941 . S
O193 C203 1.283 . S
O194 Zn187 1.965 . S
O194 C202 1.303 . S
O195 Zn188 1.938 . S
O195 C202 1.247 . S
O196 Zn188 1.906 . S
O196 C204 1.304 . S
O197 Zn185 1.924 . S
O197 C205 1.311 . S
O198 Zn189 1.977 . S
O198 C204 1.272 . S
O199 Zn189 1.910 . S
O199 C205 1.231 . S
C200 O184 1.225 . S
C200 O206 1.298 . S
C201 O190 1.226 . S
C201 O191 1.307 . S
C202 O194 1.303 . S
C202 O195 1.247 . S
C203 O192 1.253 . S
C203 O193 1.283 . S
C204 O196 1.304 . S
C204 O198 1.272 . S
C205 O197 1.311 . S
C205 O199 1.231 . S
O206 Zn188 1.953 1_554 S
O206 C200 1.298 . S
O207 Zn208 1.953 1_554 S
O207 C223 1.225 . S
Zn208 O207 1.953 1_556 S
Zn208 O209 1.949 . S
Zn208 O215 1.919 . S
Zn208 O220 1.924 . S
O209 Zn208 1.949 . S
O209 Zn210 1.923 . S
O209 Zn211 1.950 . S
O209 Zn212 1.945 . S
Zn210 O209 1.923 . S
Zn210 O213 1.933 . S
Zn210 O216 1.941 . S
Zn210 O217 1.965 . S
Zn211 O209 1.950 . S
Zn211 O218 1.938 1_556 S
Zn211 O219 1.906 . S
Zn211 O229 1.953 1_556 S
Zn212 O209 1.945 . S
Zn212 O214 1.932 . S
Zn212 O221 1.977 . S
Zn212 O222 1.910 . S
O213 Zn210 1.933 . S
O213 C224 1.226 . S
O214 Zn212 1.932 . S
O214 C224 1.307 . S
O215 Zn208 1.919 . S
O215 C226 1.253 . S
O216 Zn210 1.941 . S
O216 C226 1.283 . S
O217 Zn210 1.965 . S
O217 C225 1.303 . S
O218 Zn211 1.938 1_554 S
O218 C225 1.247 1_554 S
O219 Zn211 1.906 . S
O219 C227 1.304 . S
O220 Zn208 1.924 . S
O220 C228 1.311 . S
O221 Zn212 1.977 . S
O221 C227 1.272 . S
O222 Zn212 1.910 . S
O222 C228 1.231 . S
C223 O207 1.225 . S
C223 O229 1.298 . S
C224 O213 1.226 . S
C224 O214 1.307 . S
C225 O217 1.303 . S
C225 O218 1.247 1_556 S
C226 O215 1.253 . S
C226 O216 1.283 . S
C227 O219 1.304 . S
C227 O221 1.272 . S
C228 O220 1.311 . S
C228 O222 1.231 . S
O229 Zn211 1.953 1_554 S
O229 C223 1.298 . S
O230 Zn231 1.953 1_554 S
O230 C246 1.225 . S
Zn231 O230 1.953 1_556 S
Zn231 O232 1.949 . S
Zn231 O238 1.919 . S
Zn231 O243 1.924 . S
O232 Zn231 1.949 . S
O232 Zn233 1.923 . S
O232 Zn234 1.950 . S
O232 Zn235 1.945 . S
Zn233 O232 1.923 . S
Zn233 O236 1.933 . S
Zn233 O239 1.941 . S
Zn233 O240 1.965 . S
Zn234 O232 1.950 . S
Zn234 O241 1.938 1_556 S
Zn234 O242 1.906 . S
Zn234 O252 1.953 1_556 S
Zn235 O232 1.945 . S
Zn235 O237 1.932 . S
Zn235 O244 1.977 . S
Zn235 O245 1.910 . S
O236 Zn233 1.933 . S
O236 C247 1.226 . S
O237 Zn235 1.932 . S
O237 C247 1.307 . S
O238 Zn231 1.919 . S
O238 C249 1.253 . S
O239 Zn233 1.941 . S
O239 C249 1.283 . S
O240 Zn233 1.965 . S
O240 C248 1.303 . S
O241 Zn234 1.938 1_554 S
O241 C248 1.247 1_554 S
O242 Zn234 1.906 . S
O242 C250 1.304 . S
O243 Zn231 1.924 . S
O243 C251 1.311 . S
O244 Zn235 1.977 . S
O244 C250 1.272 . S
O245 Zn235 1.910 . S
O245 C251 1.231 . S
C246 O230 1.225 . S
C246 O252 1.298 . S
C247 O236 1.226 . S
C247 O237 1.307 . S
C248 O240 1.303 . S
C248 O241 1.247 1_556 S
C249 O238 1.253 . S
C249 O239 1.283 . S
C250 O242 1.304 . S
C250 O244 1.272 . S
C251 O243 1.311 . S
C251 O245 1.231 . S
O252 Zn234 1.953 1_554 S
O252 C246 1.298 . S
O253 Zn254 1.953 1_554 S
O253 C269 1.225 . S
Zn254 O253 1.953 1_556 S
Zn254 O255 1.949 . S
Zn254 O261 1.919 . S
Zn254 O266 1.924 . S
O255 Zn254 1.949 . S
O255 Zn256 1.923 . S
O255 Zn257 1.950 . S
O255 Zn258 1.945 . S
Zn256 O255 1.923 . S
Zn256 O259 1.933 . S
Zn256 O262 1.941 . S
Zn256 O263 1.965 . S
Zn257 O255 1.950 . S
Zn257 O264 1.938 1_556 S
Zn257 O265 1.906 . S
Zn257 O275 1.953 1_556 S
Zn258 O255 1.945 . S
Zn258 O260 1.932 . S
Zn258 O267 1.977 . S
Zn258 O268 1.910 . S
O259 Zn256 1.933 . S
O259 C270 1.226 . S
O260 Zn258 1.932 . S
O260 C270 1.307 . S
O261 Zn254 1.919 . S
O261 C272 1.253 . S
O262 Zn256 1.941 . S
O262 C272 1.283 . S
O263 Zn256 1.965 . S
O263 C271 1.303 . S
O264 Zn257 1.938 1_554 S
O264 C271 1.247 1_554 S
O265 Zn257 1.906 . S
O265 C273 1.304 . S
O266 Zn254 1.924 . S
O266 C274 1.311 . S
O267 Zn258 1.977 . S
O267 C273 1.272 . S
O268 Zn258 1.910 . S
O268 C274 1.231 . S
C269 O253 1.225 . S
C269 O275 1.298 . S
C270 O259 1.226 . S
C270 O260 1.307 . S
C271 O263 1.303 . S
C271 O264 1.247 1_556 S
C272 O261 1.253 . S
C272 O262 1.283 . S
C273 O265 1.304 . S
C273 O267 1.272 . S
C274 O266 1.311 . S
C274 O268 1.231 . S
O275 Zn257 1.953 1_554 S
O275 C269 1.298 . S
O276 Zn277 1.953 1_556 S
O276 C292 1.225 . S
Zn277 O276 1.953 1_554 S
Zn277 O278 1.949 . S
Zn277 O284 1.919 . S
Zn277 O289 1.924 . S
O278 Zn277 1.949 . S
O278 Zn279 1.923 . S
O278 Zn280 1.950 . S
O278 Zn281 1.945 . S
Zn279 O278 1.923 . S
Zn279 O282 1.933 . S
Zn279 O285 1.941 . S
Zn279 O286 1.965 . S
Zn280 O278 1.950 . S
Zn280 O287 1.938 . S
Zn280 O288 1.906 . S
Zn280 O298 1.953 1_554 S
Zn281 O278 1.945 . S
Zn281 O283 1.932 . S
Zn281 O290 1.977 . S
Zn281 O291 1.910 . S
O282 Zn279 1.933 . S
O282 C293 1.226 . S
O283 Zn281 1.932 . S
O283 C293 1.307 . S
O284 Zn277 1.919 . S
O284 C295 1.253 . S
O285 Zn279 1.941 . S
O285 C295 1.283 . S
O286 Zn279 1.965 . S
O286 C294 1.303 . S
O287 Zn280 1.938 . S
O287 C294 1.247 . S
O288 Zn280 1.906 . S
O288 C296 1.304 . S
O289 Zn277 1.924 . S
O289 C297 1.311 . S
O290 Zn281 1.977 . S
O290 C296 1.272 . S
O291 Zn281 1.910 . S
O291 C297 1.231 . S
C292 O276 1.225 . S
C292 O298 1.298 . S
C293 O282 1.226 . S
C293 O283 1.307 . S
C294 O286 1.303 . S
C294 O287 1.247 . S
C295 O284 1.253 . S
C295 O285 1.283 . S
C296 O288 1.304 . S
C296 O290 1.272 . S
C297 O289 1.311 . S
C297 O291 1.231 . S
O298 Zn280 1.953 1_556 S
O298 C292 1.298 . S
O299 Zn300 1.953 . S
O299 C315 1.225 . S
Zn300 O299 1.953 . S
Zn300 O301 1.949 . S
Zn300 O307 1.919 . S
Zn300 O312 1.924 . S
O301 Zn300 1.949 . S
O301 Zn302 1.923 . S
O301 Zn303 1.950 . S
O301 Zn304 1.945 . S
Zn302 O301 1.923 . S
Zn302 O305 1.933 1_554 S
Zn302 O308 1.941 . S
Zn302 O309 1.965 . S
Zn303 O301 1.950 . S
Zn303 O310 1.938 . S
Zn303 O311 1.906 . S
Zn303 O321 1.953 . S
Zn304 O301 1.945 . S
Zn304 O306 1.932 1_554 S
Zn304 O313 1.977 . S
Zn304 O314 1.910 . S
O305 Zn302 1.933 1_556 S
O305 C316 1.226 . S
O306 Zn304 1.932 1_556 S
O306 C316 1.307 . S
O307 Zn300 1.919 . S
O307 C318 1.253 . S
O308 Zn302 1.941 . S
O308 C318 1.283 . S
O309 Zn302 1.965 . S
O309 C317 1.303 . S
O310 Zn303 1.938 . S
O310 C317 1.247 . S
O311 Zn303 1.906 . S
O311 C319 1.304 . S
O312 Zn300 1.924 . S
O312 C320 1.311 . S
O313 Zn304 1.977 . S
O313 C319 1.272 . S
O314 Zn304 1.910 . S
O314 C320 1.231 . S
C315 O299 1.225 . S
C315 O321 1.298 . S
C316 O305 1.226 . S
C316 O306 1.307 . S
C317 O309 1.303 . S
C317 O310 1.247 . S
C318 O307 1.253 . S
C318 O308 1.283 . S
C319 O311 1.304 . S
C319 O313 1.272 . S
C320 O312 1.311 . S
C320 O314 1.231 . S
O321 Zn303 1.953 . S
O321 C315 1.298 . S
O322 Zn323 1.953 1_556 S
O322 C338 1.225 . S
Zn323 O322 1.953 1_554 S
Zn323 O324 1.949 . S
Zn323 O330 1.919 . S
Zn323 O335 1.924 . S
O324 Zn323 1.949 . S
O324 Zn325 1.923 . S
O324 Zn326 1.950 . S
O324 Zn327 1.945 . S
Zn325 O324 1.923 . S
Zn325 O328 1.933 . S
Zn325 O331 1.941 . S
Zn325 O332 1.965 . S
Zn326 O324 1.950 . S
Zn326 O333 1.938 . S
Zn326 O334 1.906 . S
Zn326 O344 1.953 1_554 S
Zn327 O324 1.945 . S
Zn327 O329 1.932 . S
Zn327 O336 1.977 . S
Zn327 O337 1.910 . S
O328 Zn325 1.933 . S
O328 C339 1.226 . S
O329 Zn327 1.932 . S
O329 C339 1.307 . S
O330 Zn323 1.919 . S
O330 C341 1.253 . S
O331 Zn325 1.941 . S
O331 C341 1.283 . S
O332 Zn325 1.965 . S
O332 C340 1.303 . S
O333 Zn326 1.938 . S
O333 C340 1.247 . S
O334 Zn326 1.906 . S
O334 C342 1.304 . S
O335 Zn323 1.924 . S
O335 C343 1.311 . S
O336 Zn327 1.977 . S
O336 C342 1.272 . S
O337 Zn327 1.910 . S
O337 C343 1.231 . S
C338 O322 1.225 . S
C338 O344 1.298 . S
C339 O328 1.226 . S
C339 O329 1.307 . S
C340 O332 1.303 . S
C340 O333 1.247 . S
C341 O330 1.253 . S
C341 O331 1.283 . S
C342 O334 1.304 . S
C342 O336 1.272 . S
C343 O335 1.311 . S
C343 O337 1.231 . S
O344 Zn326 1.953 1_556 S
O344 C338 1.298 . S
O345 Zn346 1.953 . S
O345 C361 1.225 . S
Zn346 O345 1.953 . S
Zn346 O347 1.949 . S
Zn346 O353 1.919 . S
Zn346 O358 1.924 . S
O347 Zn346 1.949 . S
O347 Zn348 1.923 . S
O347 Zn349 1.950 . S
O347 Zn350 1.945 . S
Zn348 O347 1.923 . S
Zn348 O351 1.933 1_554 S
Zn348 O354 1.941 . S
Zn348 O355 1.965 . S
Zn349 O347 1.950 . S
Zn349 O356 1.938 . S
Zn349 O357 1.906 . S
Zn349 O367 1.953 . S
Zn350 O347 1.945 . S
Zn350 O352 1.932 1_554 S
Zn350 O359 1.977 . S
Zn350 O360 1.910 . S
O351 Zn348 1.933 1_556 S
O351 C362 1.226 . S
O352 Zn350 1.932 1_556 S
O352 C362 1.307 . S
O353 Zn346 1.919 . S
O353 C364 1.253 . S
O354 Zn348 1.941 . S
O354 C364 1.283 . S
O355 Zn348 1.965 . S
O355 C363 1.303 . S
O356 Zn349 1.938 . S
O356 C363 1.247 . S
O357 Zn349 1.906 . S
O357 C365 1.304 . S
O358 Zn346 1.924 . S
O358 C366 1.311 . S
O359 Zn350 1.977 . S
O359 C365 1.272 . S
O360 Zn350 1.910 . S
O360 C366 1.231 . S
C361 O345 1.225 . S
C361 O367 1.298 . S
C362 O351 1.226 . S
C362 O352 1.307 . S
C363 O355 1.303 . S
C363 O356 1.247 . S
C364 O353 1.253 . S
C364 O354 1.283 . S
C365 O357 1.304 . S
C365 O359 1.272 . S
C366 O358 1.311 . S
C366 O360 1.231 . S
O367 Zn349 1.953 . S
O367 C361 1.298 . S
O368 Zn369 1.953 1_556 S
O368 C384 1.225 . S
Zn369 O368 1.953 1_554 S
Zn369 O370 1.949 . S
Zn369 O376 1.919 . S
Zn369 O381 1.924 . S
O370 Zn369 1.949 . S
O370 Zn371 1.923 . S
O370 Zn372 1.950 . S
O370 Zn373 1.945 . S
Zn371 O370 1.923 . S
Zn371 O374 1.933 . S
Zn371 O377 1.941 . S
Zn371 O378 1.965 . S
Zn372 O370 1.950 . S
Zn372 O379 1.938 1_554 S
Zn372 O380 1.906 . S
Zn372 O390 1.953 1_554 S
Zn373 O370 1.945 . S
Zn373 O375 1.932 . S
Zn373 O382 1.977 . S
Zn373 O383 1.910 . S
O374 Zn371 1.933 . S
O374 C385 1.226 . S
O375 Zn373 1.932 . S
O375 C385 1.307 . S
O376 Zn369 1.919 . S
O376 C387 1.253 . S
O377 Zn371 1.941 . S
O377 C387 1.283 . S
O378 Zn371 1.965 . S
O378 C386 1.303 . S
O379 Zn372 1.938 1_556 S
O379 C386 1.247 1_556 S
O380 Zn372 1.906 . S
O380 C388 1.304 . S
O381 Zn369 1.924 . S
O381 C389 1.311 . S
O382 Zn373 1.977 . S
O382 C388 1.272 . S
O383 Zn373 1.910 . S
O383 C389 1.231 . S
C384 O368 1.225 . S
C384 O390 1.298 . S
C385 O374 1.226 . S
C385 O375 1.307 . S
C386 O378 1.303 . S
C386 O379 1.247 1_554 S
C387 O376 1.253 . S
C387 O377 1.283 . S
C388 O380 1.304 . S
C388 O382 1.272 . S
C389 O381 1.311 . S
C389 O383 1.231 . S
O390 Zn372 1.953 1_556 S
O390 C384 1.298 . S
O391 Zn392 1.953 . S
O391 C407 1.225 . S
Zn392 O391 1.953 . S
Zn392 O393 1.949 . S
Zn392 O399 1.919 . S
Zn392 O404 1.924 . S
O393 Zn392 1.949 . S
O393 Zn394 1.923 . S
O393 Zn395 1.950 . S
O393 Zn396 1.945 . S
Zn394 O393 1.923 . S
Zn394 O397 1.933 1_554 S
Zn394 O400 1.941 . S
Zn394 O401 1.965 . S
Zn395 O393 1.950 . S
Zn395 O402 1.938 . S
Zn395 O403 1.906 . S
Zn395 O413 1.953 . S
Zn396 O393 1.945 . S
Zn396 O398 1.932 1_554 S
Zn396 O405 1.977 . S
Zn396 O406 1.910 . S
O397 Zn394 1.933 1_556 S
O397 C408 1.226 . S
O398 Zn396 1.932 1_556 S
O398 C408 1.307 . S
O399 Zn392 1.919 . S
O399 C410 1.253 . S
O400 Zn394 1.941 . S
O400 C410 1.283 . S
O401 Zn394 1.965 . S
O401 C409 1.303 . S
O402 Zn395 1.938 . S
O402 C409 1.247 . S
O403 Zn395 1.906 . S
O403 C411 1.304 . S
O404 Zn392 1.924 . S
O404 C412 1.311 . S
O405 Zn396 1.977 . S
O405 C411 1.272 . S
O406 Zn396 1.910 . S
O406 C412 1.231 . S
C407 O391 1.225 . S
C407 O413 1.298 . S
C408 O397 1.226 . S
C408 O398 1.307 . S
C409 O401 1.303 . S
C409 O402 1.247 . S
C410 O399 1.253 . S
C410 O400 1.283 . S
C411 O403 1.304 . S
C411 O405 1.272 . S
C412 O404 1.311 . S
C412 O406 1.231 . S
O413 Zn395 1.953 . S
O413 C407 1.298 . S
C317 C18 1.694 . S
C43 C342 1.700 . S
C64 C296 1.712 . S
C66 C181 1.692 . S
C204 C20 1.688 . S
C41 C158 1.708 . S
C87 C249 1.727 . S
C111 C272 1.710 . S
C226 C133 1.734 . S
C387 C134 1.718 . S
C88 C409 1.727 . S
C363 C110 1.686 . S
C202 C319 1.719 1_656 S
C156 C340 1.706 1_556 S
C179 C294 1.701 1_546 S
C225 C386 1.696 1_546 S
C410 C248 1.728 1_454 S
C364 C271 1.731 1_554 S
C19 C112 1.451 . S
C136 C44 1.437 . S
C90 C65 1.388 . S
C113 C67 1.464 . S
C135 C21 1.506 . S
C89 C42 1.485 . S
C251 C159 1.456 . S
C274 C182 1.478 . S
C228 C205 1.462 . S
C250 C203 1.473 . S
C273 C157 1.482 . S
C227 C180 1.456 . S
C388 C295 1.483 . S
C412 C320 1.444 . S
C341 C366 1.383 . S
C343 C389 1.490 . S
C297 C411 1.499 . S
C365 C318 1.499 . S
C16 C17 1.717 1_554 S
C40 C39 1.722 1_554 S
C62 C63 1.719 1_544 S
C85 C86 1.774 1_556 S
C108 C109 1.775 1_554 S
C132 C131 1.768 1_544 S
C154 C155 1.719 . S
C178 C177 1.720 . S
C200 C201 1.720 . S
C223 C224 1.782 . S
C246 C247 1.775 . S
C269 C270 1.768 . S
C293 C292 1.720 . S
C316 C315 1.718 . S
C338 C339 1.722 . S
C362 C361 1.781 . S
C384 C385 1.774 . S
C407 C408 1.775 . S
