# Generated by pormake.
# Topology wkj, (6)-cn, num edge types: 1
# Building blocks:
#     Node 0, Type 0, BuildingBlock: GEDQOX_clean_sbu_0, # of connection points: 6
#     Node 1, Type 0, BuildingBlock: GEDQOX_clean_sbu_0, # of connection points: 6
#     Node 2, Type 0, BuildingBlock: GEDQOX_clean_sbu_0, # of connection points: 6
#     Node 3, Type 0, BuildingBlock: GEDQOX_clean_sbu_0, # of connection points: 6
#     Node 4, Type 0, BuildingBlock: GEDQOX_clean_sbu_0, # of connection points: 6
#     Node 5, Type 0, BuildingBlock: GEDQOX_clean_sbu_0, # of connection points: 6
#     Node 6, Type 0, BuildingBlock: GEDQOX_clean_sbu_0, # of connection points: 6
#     Node 7, Type 0, BuildingBlock: GEDQOX_clean_sbu_0, # of connection points: 6
#     Node 8, Type 0, BuildingBlock: GEDQOX_clean_sbu_0, # of connection points: 6
#     Node 9, Type 0, BuildingBlock: GEDQOX_clean_sbu_0, # of connection points: 6
#     Node 10, Type 0, BuildingBlock: GEDQOX_clean_sbu_0, # of connection points: 6
#     Node 11, Type 0, BuildingBlock: GEDQOX_clean_sbu_0, # of connection points: 6
#     Edge 12, Type (0, 0), BuildingBlock: MIFKUJ_clean_linker_0, # of connection points: 2
#     Edge 13, Type (0, 0), BuildingBlock: MIFKUJ_clean_linker_0, # of connection points: 2
#     Edge 14, Type (0, 0), BuildingBlock: MIFKUJ_clean_linker_0, # of connection points: 2
#     Edge 15, Type (0, 0), BuildingBlock: MIFKUJ_clean_linker_0, # of connection points: 2
#     Edge 16, Type (0, 0), BuildingBlock: MIFKUJ_clean_linker_0, # of connection points: 2
#     Edge 17, Type (0, 0), BuildingBlock: MIFKUJ_clean_linker_0, # of connection points: 2
#     Edge 18, Type (0, 0), BuildingBlock: MIFKUJ_clean_linker_0, # of connection points: 2
#     Edge 19, Type (0, 0), BuildingBlock: MIFKUJ_clean_linker_0, # of connection points: 2
#     Edge 20, Type (0, 0), BuildingBlock: MIFKUJ_clean_linker_0, # of connection points: 2
#     Edge 21, Type (0, 0), BuildingBlock: MIFKUJ_clean_linker_0, # of connection points: 2
#     Edge 22, Type (0, 0), BuildingBlock: MIFKUJ_clean_linker_0, # of connection points: 2
#     Edge 23, Type (0, 0), BuildingBlock: MIFKUJ_clean_linker_0, # of connection points: 2
#     Edge 24, Type (0, 0), BuildingBlock: MIFKUJ_clean_linker_0, # of connection points: 2
#     Edge 25, Type (0, 0), BuildingBlock: MIFKUJ_clean_linker_0, # of connection points: 2
#     Edge 26, Type (0, 0), BuildingBlock: MIFKUJ_clean_linker_0, # of connection points: 2
#     Edge 27, Type (0, 0), BuildingBlock: MIFKUJ_clean_linker_0, # of connection points: 2
#     Edge 28, Type (0, 0), BuildingBlock: MIFKUJ_clean_linker_0, # of connection points: 2
#     Edge 29, Type (0, 0), BuildingBlock: MIFKUJ_clean_linker_0, # of connection points: 2
#     Edge 30, Type (0, 0), BuildingBlock: MIFKUJ_clean_linker_0, # of connection points: 2
#     Edge 31, Type (0, 0), BuildingBlock: MIFKUJ_clean_linker_0, # of connection points: 2
#     Edge 32, Type (0, 0), BuildingBlock: MIFKUJ_clean_linker_0, # of connection points: 2
#     Edge 33, Type (0, 0), BuildingBlock: MIFKUJ_clean_linker_0, # of connection points: 2
#     Edge 34, Type (0, 0), BuildingBlock: MIFKUJ_clean_linker_0, # of connection points: 2
#     Edge 35, Type (0, 0), BuildingBlock: MIFKUJ_clean_linker_0, # of connection points: 2
#     Edge 36, Type (0, 0), BuildingBlock: MIFKUJ_clean_linker_0, # of connection points: 2
#     Edge 37, Type (0, 0), BuildingBlock: MIFKUJ_clean_linker_0, # of connection points: 2
#     Edge 38, Type (0, 0), BuildingBlock: MIFKUJ_clean_linker_0, # of connection points: 2
#     Edge 39, Type (0, 0), BuildingBlock: MIFKUJ_clean_linker_0, # of connection points: 2
#     Edge 40, Type (0, 0), BuildingBlock: MIFKUJ_clean_linker_0, # of connection points: 2
#     Edge 41, Type (0, 0), BuildingBlock: MIFKUJ_clean_linker_0, # of connection points: 2
#     Edge 42, Type (0, 0), BuildingBlock: MIFKUJ_clean_linker_0, # of connection points: 2
#     Edge 43, Type (0, 0), BuildingBlock: MIFKUJ_clean_linker_0, # of connection points: 2
#     Edge 44, Type (0, 0), BuildingBlock: MIFKUJ_clean_linker_0, # of connection points: 2
#     Edge 45, Type (0, 0), BuildingBlock: MIFKUJ_clean_linker_0, # of connection points: 2
#     Edge 46, Type (0, 0), BuildingBlock: MIFKUJ_clean_linker_0, # of connection points: 2
#     Edge 47, Type (0, 0), BuildingBlock: MIFKUJ_clean_linker_0, # of connection points: 2
# Relax obj value: 0.539
# Max RMSD: 0.169
# Mean RMSD: 0.169
data_MOF--net-wkj--node1-GEDQOX_clean_sbu_0--edge1-MIFKUJ_clean_linker_0
_symmetry_space_group_name_H-M    P1
_symmetry_Int_Tables_number       1
_symmetry_cell_setting            triclinic
loop_
_symmetry_equiv_pos_as_xyz
'x, y, z'
_cell_length_a     63.01295
_cell_length_b     63.008276
_cell_length_c     39.512082
_cell_angle_alpha  89.984092
_cell_angle_beta   90.349672
_cell_angle_gamma 119.75828
loop_
_atom_site_label
_atom_site_type_symbol
_atom_site_fract_x
_atom_site_fract_y
_atom_site_fract_z
_atom_type_partial_charge
Nd0 Nd 0.47412 0.08237 0.34014 0.0
Nd1 Nd 0.42841 0.06143 0.32085 0.0
C2 C 0.52181 0.10496 0.35243 0.0
C3 C 0.53898 0.13058 0.3609 0.0
C4 C 0.55941 0.13622 0.38117 0.0
C5 C 0.57112 0.15834 0.3989 0.0
C6 C 0.56218 0.17481 0.39699 0.0
C7 C 0.54351 0.17031 0.37365 0.0
C8 C 0.53205 0.14836 0.35555 0.0
C9 C 0.45962 0.11809 0.32707 0.0
C10 C 0.43834 0.05375 0.40592 0.0
C11 C 0.38362 0.05388 0.31088 0.0
C12 C 0.37012 0.05498 0.2814 0.0
C13 C 0.38263 0.06502 0.25116 0.0
C14 C 0.36993 0.05853 0.22045 0.0
C15 C 0.34469 0.04184 0.21979 0.0
C16 C 0.33185 0.03437 0.2504 0.0
C17 C 0.34458 0.04084 0.28113 0.0
C18 C 0.43671 0.02374 0.32359 0.0
C19 C 0.46711 0.06916 0.25809 0.0
O20 O 0.50529 0.0935 0.37543 0.0
O21 O 0.51254 0.10041 0.32194 0.0
O22 O 0.46934 0.11633 0.35519 0.0
O23 O 0.45616 0.10027 0.30893 0.0
O24 O 0.46126 0.06433 0.39507 0.0
O25 O 0.42233 0.05297 0.38241 0.0
O26 O 0.40152 0.07457 0.3223 0.0
O27 O 0.38951 0.0368 0.30886 0.0
O28 O 0.42679 0.02804 0.29752 0.0
O29 O 0.44579 0.04159 0.34449 0.0
O30 O 0.44554 0.06767 0.26456 0.0
O31 O 0.48035 0.0707 0.28529 0.0
H32 H 0.56489 0.12265 0.38574 0.0
H33 H 0.58536 0.16126 0.4169 0.0
H34 H 0.53634 0.18274 0.3717 0.0
H35 H 0.51639 0.14438 0.3398 0.0
H36 H 0.4024 0.07586 0.25098 0.0
H37 H 0.38015 0.06462 0.19711 0.0
H38 H 0.31243 0.02138 0.25053 0.0
H39 H 0.33475 0.03284 0.30433 0.0
Nd40 Nd 0.38106 0.48031 0.68036 0.0
Nd41 Nd 0.36473 0.43591 0.65732 0.0
C42 C 0.4005 0.52731 0.69645 0.0
C43 C 0.39197 0.5408 0.71736 0.0
C44 C 0.37457 0.5286 0.7426 0.0
C45 C 0.36698 0.54144 0.7633 0.0
C46 C 0.37643 0.56673 0.75895 0.0
C47 C 0.39325 0.57872 0.73277 0.0
C48 C 0.40096 0.56581 0.71213 0.0
C49 C 0.33063 0.45943 0.66403 0.0
C50 C 0.37511 0.44288 0.7443 0.0
C51 C 0.33407 0.38879 0.6467 0.0
C52 C 0.31632 0.3714 0.62246 0.0
C53 C 0.30361 0.34655 0.63084 0.0
C54 C 0.28987 0.32907 0.60629 0.0
C55 C 0.28871 0.33624 0.57297 0.0
C56 C 0.30016 0.36135 0.56532 0.0
C57 C 0.31394 0.37883 0.58993 0.0
C58 C 0.41253 0.45228 0.66909 0.0
C59 C 0.39391 0.47669 0.5979 0.0
O60 O 0.40542 0.51219 0.7125 0.0
O61 O 0.38818 0.51783 0.66874 0.0
O62 O 0.34027 0.46884 0.69327 0.0
O63 O 0.34708 0.45906 0.64626 0.0
O64 O 0.38091 0.46577 0.73685 0.0
O65 O 0.36749 0.4276 0.71757 0.0
O66 O 0.32803 0.403 0.66314 0.0
O67 O 0.35681 0.40009 0.63692 0.0
O68 O 0.40201 0.44379 0.64 0.0
O69 O 0.39902 0.45682 0.68784 0.0
O70 O 0.3774 0.45319 0.60235 0.0
O71 O 0.40061 0.49058 0.62581 0.0
H72 H 0.36725 0.50921 0.74683 0.0
H73 H 0.35447 0.53165 0.78363 0.0
H74 H 0.40076 0.59813 0.72862 0.0
H75 H 0.41419 0.57542 0.69242 0.0
H76 H 0.30529 0.34058 0.65595 0.0
H77 H 0.28108 0.30989 0.61295 0.0
H78 H 0.29986 0.36746 0.53978 0.0
H79 H 0.32374 0.39801 0.58311 0.0
Nd80 Nd 0.8931 0.38783 1.00695 0.0
Nd81 Nd 0.91637 0.36625 0.98507 0.0
C82 C 0.86927 0.41149 1.02223 0.0
C83 C 0.84816 0.4056 1.04369 0.0
C84 C 0.83882 0.42161 1.04576 0.0
C85 C 0.82091 0.4176 1.06965 0.0
C86 C 0.81226 0.39761 0.09197 0.0
C87 C 0.82076 0.38087 0.08826 0.0
C88 C 0.83851 0.38484 1.06432 0.0
C89 C 0.85957 0.33732 0.99329 0.0
C90 C 0.92415 0.3816 1.0711 0.0
C91 C 0.92786 0.33148 0.97624 0.0
C92 C 0.92657 0.31333 0.952 0.0
C93 C 0.93772 0.29955 0.96045 0.0
C94 C 0.94106 0.28564 0.93579 0.0
C95 C 0.93328 0.28537 0.90231 0.0
C96 C 0.92049 0.29783 0.89459 0.0
C97 C 0.91723 0.31181 0.91929 0.0
C98 C 0.95206 0.41247 0.98983 0.0
C99 C 0.90741 0.39772 0.92484 0.0
O100 O 0.88866 0.41449 1.0383 0.0
O101 O 0.86494 0.3983 0.99504 0.0
O102 O 0.86173 0.34803 1.02227 0.0
O103 O 0.87644 0.35255 0.97464 0.0
O104 O 0.90972 0.39058 1.06259 0.0
O105 O 0.92819 0.36983 1.04564 0.0
O106 O 0.90753 0.32754 0.9904 0.0
O107 O 0.94199 0.35427 0.96778 0.0
O108 O 0.94726 0.39984 0.96207 0.0
O109 O 0.9345 0.40255 1.01085 0.0
O110 O 0.9107 0.37851 0.92959 0.0
O111 O 0.9037 0.40716 0.95283 0.0
H112 H 0.84603 0.43768 1.02983 0.0
H113 H 0.81454 0.43067 1.07154 0.0
H114 H 0.81492 0.36552 0.10527 0.0
H115 H 0.84559 0.37232 1.06309 0.0
H116 H 0.94504 0.30059 0.98567 0.0
H117 H 0.95081 0.27609 0.94247 0.0
H118 H 0.91456 0.29821 0.86892 0.0
H119 H 0.90868 0.32249 0.91241 0.0
Nd120 Nd 0.49475 0.89782 0.33868 0.0
Nd121 Nd 0.54322 0.92448 0.32242 0.0
C122 C 0.44992 0.87495 0.36399 0.0
C123 C 0.43678 0.85322 0.38518 0.0
C124 C 0.41487 0.84821 0.40069 0.0
C125 C 0.40427 0.82967 0.42482 0.0
C126 C 0.41543 0.81582 0.43364 0.0
C127 C 0.43656 0.81993 0.41627 0.0
C128 C 0.44722 0.83858 0.39239 0.0
C129 C 0.51101 0.86589 0.31462 0.0
C130 C 0.53373 0.92893 0.40558 0.0
C131 C 0.58793 0.9382 0.30116 0.0
C132 C 0.60003 0.93025 0.27674 0.0
C133 C 0.62315 0.93343 0.28455 0.0
C134 C 0.63568 0.92741 0.26084 0.0
C135 C 0.62534 0.91831 0.22877 0.0
C136 C 0.60137 0.91361 0.22209 0.0
C137 C 0.58883 0.91951 0.24587 0.0
C138 C 0.52463 0.95451 0.33837 0.0
C139 C 0.50126 0.91361 0.25893 0.0
O140 O 0.46838 0.89348 0.37871 0.0
O141 O 0.45512 0.87117 0.33353 0.0
O142 O 0.49098 0.86548 0.30662 0.0
O143 O 0.52261 0.88341 0.33586 0.0
O144 O 0.51065 0.91436 0.39498 0.0
O145 O 0.55082 0.93461 0.38192 0.0
O146 O 0.5778 0.9236 0.32676 0.0
O147 O 0.57462 0.94713 0.28906 0.0
O148 O 0.54598 0.95872 0.34858 0.0
O149 O 0.51511 0.93599 0.31949 0.0
O150 O 0.52388 0.91745 0.26621 0.0
O151 O 0.48676 0.90938 0.28539 0.0
H152 H 0.40647 0.85923 0.39521 0.0
H153 H 0.38814 0.82717 0.43791 0.0
H154 H 0.44537 0.80934 0.42208 0.0
H155 H 0.46414 0.84219 0.38046 0.0
H156 H 0.63181 0.94121 0.30867 0.0
H157 H 0.65385 0.9308 0.26716 0.0
H158 H 0.59276 0.90684 0.19767 0.0
H159 H 0.57076 0.91646 0.23964 0.0
Nd160 Nd 0.59462 0.50166 0.67821 0.0
Nd161 Nd 0.60613 0.54838 0.65454 0.0
C162 C 0.57675 0.45479 0.69327 0.0
C163 C 0.58595 0.43832 0.7025 0.0
C164 C 0.56929 0.41462 0.71306 0.0
C165 C 0.57741 0.40101 0.73129 0.0
C166 C 0.60239 0.41101 0.73929 0.0
C167 C 0.61928 0.43369 0.72517 0.0
C168 C 0.61109 0.44734 0.70703 0.0
C169 C 0.64475 0.52736 0.66092 0.0
C170 C 0.59353 0.53917 0.74028 0.0
C171 C 0.63236 0.59591 0.64386 0.0
C172 C 0.64929 0.61325 0.61913 0.0
C173 C 0.66072 0.60602 0.59505 0.0
C174 C 0.6756 0.62252 0.57037 0.0
C175 C 0.67909 0.64639 0.56931 0.0
C176 C 0.66823 0.65368 0.59435 0.0
C177 C 0.65346 0.63723 0.61904 0.0
C178 C 0.55691 0.51766 0.65882 0.0
C179 C 0.58323 0.50641 0.59416 0.0
O180 O 0.58123 0.47179 0.7155 0.0
O181 O 0.58002 0.46288 0.6623 0.0
O182 O 0.63597 0.51563 0.68902 0.0
O183 O 0.62722 0.52743 0.64473 0.0
O184 O 0.58875 0.51649 0.73234 0.0
O185 O 0.60194 0.55522 0.71459 0.0
O186 O 0.64031 0.58355 0.66134 0.0
O187 O 0.60958 0.58267 0.63401 0.0
O188 O 0.56664 0.53424 0.63534 0.0
O189 O 0.57304 0.52062 0.68023 0.0
O190 O 0.59657 0.5305 0.59957 0.0
O191 O 0.57857 0.49179 0.62111 0.0
H192 H 0.54983 0.40742 0.7097 0.0
H193 H 0.56382 0.38373 0.74189 0.0
H194 H 0.63865 0.44172 0.73043 0.0
H195 H 0.62421 0.46564 0.69888 0.0
H196 H 0.65772 0.58753 0.59492 0.0
H197 H 0.68387 0.61641 0.55161 0.0
H198 H 0.67015 0.67174 0.59396 0.0
H199 H 0.64473 0.64303 0.63753 0.0
Nd200 Nd 0.08945 0.59756 1.01363 0.0
Nd201 Nd 0.05278 0.60616 0.98918 0.0
C202 C 0.11997 0.58142 1.02942 0.0
C203 C 0.14567 0.59263 1.03994 0.0
C204 C 0.15711 0.61561 1.0557 0.0
C205 C 0.17909 0.62371 1.07317 0.0
C206 C 0.19017 0.60904 1.07492 0.0
C207 C 0.1801 0.58743 1.05543 0.0
C208 C 0.15783 0.57915 1.03838 0.0
C209 C 0.11281 0.64688 0.99332 0.0
C210 C 0.05295 0.59996 1.07681 0.0
C211 C 0.02766 0.62854 0.97578 0.0
C212 C 0.02478 0.64329 0.94948 0.0
C213 C 0.04052 0.65184 0.92167 0.0
C214 C 0.03659 0.66477 0.89595 0.0
C215 C 0.01683 0.66924 0.89771 0.0
C216 C 0.00167 0.66131 0.9263 0.0
C217 C 0.00564 0.64843 0.95197 0.0
C218 C 0.03626 0.55847 1.00721 0.0
C219 C 0.0701 0.58102 0.93057 0.0
O220 O 0.10565 0.58362 1.05103 0.0
O221 O 0.11553 0.58507 0.99838 0.0
O222 O 0.11645 0.63873 1.02167 0.0
O223 O 0.09475 0.62907 0.97799 0.0
O224 O 0.07088 0.59502 1.06912 0.0
O225 O 0.04413 0.60643 1.04995 0.0
O226 O 0.04853 0.63888 0.9922 0.0
O227 O 0.01981 0.60559 0.96828 0.0
O228 O 0.02943 0.5637 0.97875 0.0
O229 O 0.05013 0.57757 1.02253 0.0
O230 O 0.05932 0.59443 0.93497 0.0
O231 O 0.0805 0.5774 0.95826 0.0
H232 H 0.1481 0.62643 1.05681 0.0
H233 H 0.18601 0.64038 0.08783 0.0
H234 H 0.18846 0.576 1.05535 0.0
H235 H 0.14943 0.56153 1.02583 0.0
H236 H 0.0555 0.64811 0.91957 0.0
H237 H 0.04867 0.67081 0.87435 0.0
H238 H -0.01394 0.66405 0.92816 0.0
H239 H -0.00662 0.64195 0.97338 0.0
Nd240 Nd 0.89563 0.50509 0.49719 0.0
Nd241 Nd 0.91579 0.54907 0.51739 0.0
C242 C 0.87273 0.45761 0.48276 0.0
C243 C 0.84886 0.44105 0.46727 0.0
C244 C 0.83689 0.45078 0.44822 0.0
C245 C 0.81655 0.43555 0.4285 0.0
C246 C 0.80755 0.41014 0.42757 0.0
C247 C 0.81844 0.40028 0.44897 0.0
C248 C 0.83906 0.41567 0.46852 0.0
C249 C 0.85959 0.51918 0.51215 0.0
C250 C 0.92455 0.54032 0.43195 0.0
C251 C 0.92237 0.5936 0.52624 0.0
C252 C 0.91622 0.60674 0.55131 0.0
C253 C 0.89702 0.59409 0.57406 0.0
C254 C 0.89391 0.60643 0.60122 0.0
C255 C 0.91006 0.6316 0.60618 0.0
C256 C 0.92842 0.64435 0.58202 0.0
C257 C 0.93143 0.632 0.55484 0.0
C258 C 0.95456 0.54286 0.51516 0.0
C259 C 0.90967 0.50985 0.57824 0.0
O260 O 0.88826 0.47452 0.46272 0.0
O261 O 0.87256 0.46614 0.51271 0.0
O262 O 0.86231 0.51164 0.4827 0.0
O263 O 0.87712 0.52157 0.53017 0.0
O264 O 0.91281 0.51727 0.44204 0.0
O265 O 0.92586 0.55615 0.45602 0.0
O266 O 0.90428 0.57667 0.5085 0.0
O267 O 0.93789 0.58692 0.53654 0.0
O268 O 0.94919 0.55145 0.54154 0.0
O269 O 0.93698 0.53343 0.49366 0.0
O270 O 0.90995 0.53099 0.57301 0.0
O271 O 0.90849 0.4976 0.55031 0.0
H272 H 0.8442 0.47035 0.44686 0.0
H273 H 0.80919 0.44408 0.41202 0.0
H274 H 0.81181 0.3808 0.44932 0.0
H275 H 0.848 0.40785 0.48333 0.0
H276 H 0.88518 0.57452 0.57171 0.0
H277 H 0.87949 0.596 0.6191 0.0
H278 H 0.94162 0.66356 0.58523 0.0
H279 H 0.94647 0.64196 0.53757 0.0
Nd280 Nd 0.38338 0.89655 0.82586 0.0
Nd281 Nd 0.35831 0.91498 0.84603 0.0
C282 C 0.40932 0.87518 0.81035 0.0
C283 C 0.403 0.85087 0.79746 0.0
C284 C 0.38045 0.83647 0.7812 0.0
C285 C 0.3762 0.81592 0.76264 0.0
C286 C 0.39436 0.80917 0.7602 0.0
C287 C 0.41609 0.82244 0.77917 0.0
C288 C 0.42045 0.84327 0.79746 0.0
C289 C 0.33394 0.8591 0.84045 0.0
C290 C 0.37671 0.92665 0.7616 0.0
C291 C 0.31874 0.91896 0.85385 0.0
C292 C 0.29859 0.9105 0.87796 0.0
C293 C 0.29019 0.88836 0.89527 0.0
C294 C 0.27482 0.88298 0.92311 0.0
C295 C 0.26797 0.89992 0.93426 0.0
C296 C 0.27441 0.92086 0.91448 0.0
C297 C 0.28968 0.92612 0.88664 0.0
C298 C 0.40299 0.95408 0.84732 0.0
C299 C 0.3918 0.90953 0.90751 0.0
O300 O 0.40478 0.8884 0.78939 0.0
O301 O 0.40281 0.87648 0.84117 0.0
O302 O 0.34413 0.86258 0.81092 0.0
O303 O 0.34864 0.87662 0.85864 0.0
O304 O 0.38921 0.91603 0.77197 0.0
O305 O 0.36136 0.92659 0.78527 0.0
O306 O 0.31932 0.90227 0.83481 0.0
O307 O 0.34024 0.93489 0.86575 0.0
O308 O 0.38797 0.94767 0.87249 0.0
O309 O 0.39551 0.93778 0.82409 0.0
O310 O 0.37083 0.90963 0.90196 0.0
O311 O 0.40297 0.90838 0.87974 0.0
H312 H 0.36675 0.84205 0.78085 0.0
H313 H 0.3594 0.80659 0.74807 0.0
H314 H 0.4303 0.81754 0.77839 0.0
H315 H 0.43791 0.85412 0.81007 0.0
H316 H 0.2967 0.876 0.88856 0.0
H317 H 0.26986 0.86651 0.93739 0.0
H318 H 0.26978 0.93451 0.92231 0.0
H319 H 0.29594 0.94326 0.87342 0.0
Nd320 Nd 0.47777 0.38585 0.1641 0.0
Nd321 Nd 0.43125 0.36955 0.18731 0.0
C322 C 0.52442 0.40547 0.14676 0.0
C323 C 0.53757 0.40135 0.11911 0.0
C324 C 0.55442 0.42123 0.09985 0.0
C325 C 0.56557 0.41743 1.07183 0.0
C326 C 0.56014 0.39366 1.06275 0.0
C327 C 0.5439 0.37386 1.08277 0.0
C328 C 0.5326 0.37764 0.1106 0.0
C329 C 0.45578 0.3361 0.18246 0.0
C330 C 0.43869 0.37928 0.10015 0.0
C331 C 0.38472 0.33741 0.19747 0.0
C332 C 0.36899 0.31844 0.22148 0.0
C333 C 0.37782 0.30599 0.24133 0.0
C334 C 0.36305 0.28973 0.26634 0.0
C335 C 0.33936 0.28589 0.272 0.0
C336 C 0.33034 0.29765 0.25086 0.0
C337 C 0.34503 0.31374 0.22584 0.0
C338 C 0.44928 0.41733 0.1723 0.0
C339 C 0.47301 0.39879 0.24648 0.0
O340 O 0.51078 0.4148 0.1382 0.0
O341 O 0.51386 0.38804 0.16886 0.0
O342 O 0.46509 0.34463 0.15286 0.0
O343 O 0.45579 0.35331 0.19918 0.0
O344 O 0.46178 0.38533 0.10786 0.0
O345 O 0.42329 0.37154 0.12663 0.0
O346 O 0.39917 0.33288 0.17886 0.0
O347 O 0.39519 0.35992 0.20868 0.0
O348 O 0.43655 0.40721 0.19936 0.0
O349 O 0.4539 0.40257 0.15665 0.0
O350 O 0.44927 0.38308 0.24174 0.0
O351 O 0.48733 0.40467 0.21922 0.0
H352 H 0.55853 0.43965 0.106 0.0
H353 H 0.57814 0.43303 1.05693 0.0
H354 H 0.53915 0.35534 1.07609 0.0
H355 H 0.51953 0.36192 0.12488 0.0
H356 H 0.39633 0.3094 0.23823 0.0
H357 H 0.37046 0.28088 0.28206 0.0
H358 H 0.31244 0.29561 0.25489 0.0
H359 H 0.33799 0.32327 0.21074 0.0
Nd360 Nd 0.08733 0.48037 0.49235 0.0
Nd361 Nd 0.05097 0.43437 0.51585 0.0
C362 C 0.11752 0.52707 0.47837 0.0
C363 C 0.12905 0.54256 0.44894 0.0
C364 C 0.12007 0.53431 0.41621 0.0
C365 C 0.13388 0.5471 0.38814 0.0
C366 C 0.15697 0.56815 0.39246 0.0
C367 C 0.16521 0.57697 0.42536 0.0
C368 C 0.15134 0.56423 0.45337 0.0
C369 C 0.10936 0.45341 0.51355 0.0
C370 C 0.05248 0.44259 0.42753 0.0
C371 C 0.03022 0.387 0.52719 0.0
C372 C 0.03186 0.37081 0.55244 0.0
C373 C 0.0531 0.37849 0.57208 0.0
C374 C 0.05393 0.36315 0.59701 0.0
C375 C 0.03347 0.33998 0.60275 0.0
C376 C 0.01255 0.33219 0.58218 0.0
C377 C 0.01179 0.34747 0.55726 0.0
C378 C 0.03239 0.46311 0.4968 0.0
C379 C 0.06854 0.47629 0.57594 0.0
O380 O 0.09399 0.51796 0.48213 0.0
O381 O 0.12458 0.51121 0.48453 0.0
O382 O 0.11239 0.46366 0.48406 0.0
O383 O 0.09234 0.45486 0.529 0.0
O384 O 0.07112 0.46496 0.4356 0.0
O385 O 0.04245 0.42748 0.45431 0.0
O386 O 0.04947 0.39902 0.50802 0.0
O387 O 0.02072 0.40027 0.53734 0.0
O388 O 0.0249 0.45033 0.52452 0.0
O389 O 0.0479 0.45982 0.48214 0.0
O390 O 0.05654 0.45223 0.5704 0.0
O391 O 0.08023 0.49059 0.54926 0.0
H392 H 0.10293 0.51749 0.41238 0.0
H393 H 0.1268 0.54012 0.36308 0.0
H394 H 0.18294 0.59298 0.42958 0.0
H395 H 0.15861 0.57064 0.47856 0.0
H396 H 0.06885 0.39649 0.56858 0.0
H397 H 0.07031 0.36966 0.61233 0.0
H398 H -0.00373 0.31472 0.58636 0.0
H399 H -0.00472 0.34129 0.54228 0.0
Nd400 Nd 0.59601 0.09681 0.82409 0.0
Nd401 Nd 0.59801 0.05665 0.8475 0.0
C402 C 0.58785 0.13334 0.80992 0.0
C403 C 0.5781 0.14263 0.78373 0.0
C404 C 0.56905 0.13008 0.75305 0.0
C405 C 0.5641 0.14137 0.72611 0.0
C406 C 0.56875 0.16555 0.72934 0.0
C407 C 0.57662 0.17753 0.76066 0.0
C408 C 0.58113 0.16607 0.78774 0.0
C409 C 0.64364 0.11358 0.84835 0.0
C410 C 0.59361 0.05816 0.76032 0.0
C411 C 0.6161 0.02742 0.85864 0.0
C412 C 0.63017 0.02212 0.88343 0.0
C413 C 0.64274 0.01022 0.8727 0.0
C414 C 0.65569 0.00427 0.896 0.0
C415 C 0.65623 0.01015 0.9304 0.0
C416 C 0.64409 0.02271 0.94082 0.0
C417 C 0.63121 0.02871 0.91748 0.0
C418 C 0.55182 0.0465 0.82899 0.0
C419 C 0.57728 0.07715 0.90703 0.0
O420 O 0.57249 0.11397 0.82674 0.0
O421 O 0.60776 0.13309 0.80196 0.0
O422 O 0.63802 0.11712 0.81811 0.0
O423 O 0.62396 0.09767 0.86279 0.0
O424 O 0.59118 0.07776 0.76795 0.0
O425 O 0.59792 0.04781 0.78723 0.0
O426 O 0.62808 0.04835 0.84287 0.0
O427 O 0.59385 0.02189 0.86704 0.0
O428 O 0.55592 0.03761 0.85642 0.0
O429 O 0.57123 0.05828 0.8131 0.0
O430 O 0.58713 0.06303 0.90185 0.0
O431 O 0.57735 0.09068 0.88043 0.0
H432 H 0.56703 0.11214 0.74939 0.0
H433 H 0.55832 0.13187 0.70205 0.0
H434 H 0.58034 0.19616 0.76369 0.0
H435 H 0.58832 0.17605 0.81123 0.0
H436 H 0.64227 0.00525 0.84634 0.0
H437 H 0.66501 -0.00521 0.88717 0.0
H438 H 0.64378 0.02714 0.96723 0.0
H439 H 0.62171 0.03807 0.92608 0.0
Nd440 Nd 0.492 0.59284 0.16602 0.0
Nd441 Nd 0.54004 0.6114 0.1833 0.0
C442 C 0.44698 0.5718 0.14055 0.0
C443 C 0.43189 0.57984 0.12247 0.0
C444 C 0.41097 0.56263 0.10511 0.0
C445 C 0.39812 0.57029 0.08425 0.0
C446 C 0.40607 0.59536 1.08038 0.0
C447 C 0.42634 0.61247 0.0994 0.0
C448 C 0.43921 0.60476 0.12023 0.0
C449 C 0.50967 0.64068 0.19196 0.0
C450 C 0.53097 0.60074 0.09916 0.0
C451 C 0.5858 0.63764 0.2048 0.0
C452 C 0.60142 0.65558 0.23019 0.0
C453 C 0.59248 0.66698 0.25171 0.0
C454 C 0.60785 0.68367 0.2762 0.0
C455 C 0.63233 0.68911 0.2794 0.0
C456 C 0.64122 0.67804 0.25699 0.0
C457 C 0.62589 0.66145 0.23262 0.0
C458 C 0.51819 0.56276 0.1645 0.0
C459 C 0.49865 0.58206 0.24618 0.0
O460 O 0.46578 0.57396 0.12399 0.0
O461 O 0.45225 0.57877 0.17196 0.0
O462 O 0.48883 0.62166 0.19782 0.0
O463 O 0.5214 0.63449 0.17134 0.0
O464 O 0.50797 0.5932 0.10927 0.0
O465 O 0.54786 0.61032 0.1237 0.0
O466 O 0.57596 0.64522 0.1821 0.0
O467 O 0.57093 0.61547 0.2153 0.0
O468 O 0.53984 0.57912 0.15485 0.0
O469 O 0.50999 0.57245 0.18429 0.0
O470 O 0.52156 0.59987 0.23933 0.0
O471 O 0.48378 0.57297 0.21945 0.0
H472 H 0.40518 0.54333 0.10653 0.0
H473 H 0.38289 0.55663 1.06954 0.0
H474 H 0.43282 0.63186 0.09711 0.0
H475 H 0.45538 0.61829 0.13357 0.0
H476 H 0.5736 0.66274 0.24985 0.0
H477 H 0.60051 0.69197 0.29299 0.0
H478 H 0.65976 0.68136 0.25917 0.0
H479 H 0.63304 0.65282 0.21602 0.0
H480 H 0.43604 0.12182 0.2701 0.0
H481 H 0.43401 0.15698 0.2477 0.0
H482 H 0.47858 0.20116 0.33081 0.0
H483 H 0.4797 0.16542 0.35408 0.0
H484 H 0.44725 0.21579 0.31819 0.0
H485 H 0.49856 0.20182 0.23928 0.0
H486 H 0.50547 0.17506 0.20062 0.0
H487 H 0.44329 0.16292 0.1408 0.0
H488 H 0.43588 0.18937 0.17921 0.0
H489 H 0.46897 0.3299 0.24733 0.0
H490 H 0.47053 0.29509 0.27168 0.0
H491 H 0.44054 0.25451 0.17912 0.0
H492 H 0.44152 0.29054 0.15377 0.0
H493 H 0.4646 0.23753 0.19714 0.0
H494 H 0.40963 0.24628 0.27178 0.0
H495 H 0.39555 0.26709 0.31108 0.0
H496 H 0.45611 0.28408 0.37753 0.0
H497 H 0.47053 0.26332 0.33867 0.0
C498 C 0.44545 0.13897 0.28381 0.0
C499 C 0.45813 0.14033 0.31412 0.0
C500 C 0.44449 0.15948 0.27062 0.0
C501 C 0.45672 0.18274 0.28651 0.0
C502 C 0.469 0.18395 0.3173 0.0
C503 C 0.46968 0.16327 0.33078 0.0
C504 C 0.4567 0.20544 0.27126 0.0
C505 C 0.45141 0.2206 0.29176 0.0
C506 C 0.46111 0.21203 0.23637 0.0
C507 C 0.46657 0.19742 0.21224 0.0
C508 C 0.48642 0.19348 0.21782 0.0
C509 C 0.49038 0.17833 0.196 0.0
C510 C 0.47473 0.1672 0.16841 0.0
C511 C 0.45534 0.1715 0.16224 0.0
C512 C 0.45129 0.1866 0.18397 0.0
C513 C 0.46255 0.31353 0.2321 0.0
C514 C 0.4549 0.31342 0.19836 0.0
C515 C 0.4631 0.29306 0.24641 0.0
C516 C 0.45486 0.27079 0.22838 0.0
C517 C 0.4471 0.2708 0.19453 0.0
C518 C 0.44745 0.29164 0.1798 0.0
C519 C 0.45495 0.24808 0.24397 0.0
C520 C 0.46038 0.2329 0.22358 0.0
C521 C 0.44989 0.24103 0.27877 0.0
C522 C 0.44128 0.25348 0.30216 0.0
C523 C 0.41999 0.25455 0.29471 0.0
C524 C 0.41194 0.26632 0.3169 0.0
C525 C 0.42499 0.27701 0.34667 0.0
C526 C 0.44604 0.27583 0.35443 0.0
C527 C 0.45413 0.264 0.33238 0.0
H528 H 0.41874 0.28614 0.36378 0.0
H529 H 0.47754 0.15518 0.15183 0.0
H530 H 0.31321 0.4514 0.59777 0.0
H531 H 0.27597 0.44922 0.57443 0.0
H532 H 0.25558 0.45964 0.6742 0.0
H533 H 0.29305 0.46203 0.69761 0.0
H534 H 0.21429 0.42611 0.6406 0.0
H535 H 0.27911 0.50633 0.61284 0.0
H536 H 0.31877 0.53661 0.58881 0.0
H537 H 0.29482 0.5045 0.49024 0.0
H538 H 0.25512 0.4738 0.51379 0.0
H539 H 0.11844 0.44978 0.58239 0.0
H540 H 0.15404 0.45016 0.60883 0.0
H541 H 0.18379 0.45243 0.51014 0.0
H542 H 0.14877 0.453 0.48397 0.0
H543 H 0.22039 0.47963 0.54489 0.0
H544 H 0.15609 0.3991 0.5711 0.0
H545 H 0.11609 0.36842 0.59381 0.0
H546 H 0.13842 0.39933 0.69327 0.0
H547 H 0.17843 0.43047 0.67104 0.0
C548 C 0.30087 0.4532 0.61496 0.0
C549 C 0.3067 0.45699 0.64989 0.0
C550 C 0.27934 0.45205 0.6014 0.0
C551 C 0.26236 0.45449 0.62205 0.0
C552 C 0.26788 0.45768 0.65713 0.0
C553 C 0.2896 0.45911 0.67066 0.0
C554 C 0.2394 0.45414 0.60707 0.0
C555 C 0.21583 0.4381 0.61993 0.0
C556 C 0.24045 0.46915 0.57939 0.0
C557 C 0.26424 0.48762 0.56514 0.0
C558 C 0.28237 0.50561 0.58608 0.0
C559 C 0.30484 0.52287 0.57254 0.0
C560 C 0.30934 0.52244 0.53804 0.0
C561 C 0.29133 0.50479 0.51698 0.0
C562 C 0.26883 0.48747 0.5304 0.0
C563 C 0.13239 0.45009 0.56619 0.0
C564 C 0.13015 0.45117 0.53066 0.0
C565 C 0.15303 0.4502 0.58149 0.0
C566 C 0.1723 0.45097 0.56202 0.0
C567 C 0.16981 0.45188 0.5265 0.0
C568 C 0.14937 0.45201 0.51129 0.0
C569 C 0.19506 0.45139 0.57809 0.0
C570 C 0.2187 0.46752 0.56547 0.0
C571 C 0.19399 0.43625 0.60574 0.0
C572 C 0.17017 0.41728 0.61933 0.0
C573 C 0.15242 0.39943 0.59779 0.0
C574 C 0.12975 0.38196 0.61057 0.0
C575 C 0.12469 0.38196 0.64494 0.0
C576 C 0.14235 0.39938 0.66664 0.0
C577 C 0.16503 0.41694 0.65396 0.0
H578 H 0.10711 0.36845 0.65478 0.0
H579 H 0.32675 0.53581 0.5276 0.0
H580 H 0.81768 0.30294 1.02789 0.0
H581 H 0.78207 0.26539 1.00638 0.0
H582 H 0.81473 0.27904 0.90766 0.0
H583 H 0.85015 0.31653 0.9291 0.0
H584 H 0.76854 0.26283 0.89716 0.0
H585 H 0.80877 0.23103 0.96743 0.0
H586 H 0.8266 0.2256 1.02023 0.0
H587 H 0.75753 0.19837 1.06996 0.0
H588 H 0.73936 0.20392 1.01754 0.0
H589 H 0.68695 0.14817 0.81988 0.0
H590 H 0.72217 0.18354 0.84529 0.0
H591 H 0.68799 0.1634 0.94299 0.0
H592 H 0.65283 0.12715 0.91744 0.0
H593 H 0.73394 0.18309 0.95581 0.0
H594 H 0.6933 0.2145 0.88743 0.0
H595 H 0.67462 0.22035 0.83581 0.0
H596 H 0.7432 0.24929 0.78422 0.0
H597 H 0.76222 0.24331 0.83541 0.0
C598 C 0.81746 0.29796 1.00161 0.0
C599 C 0.83738 0.3133 0.9806 0.0
C600 C 0.79684 0.2761 0.98913 0.0
C601 C 0.79502 0.26836 0.95494 0.0
C602 C 0.81493 0.28386 0.934 0.0
C603 C 0.83554 0.30558 0.9465 0.0
C604 C 0.77263 0.24474 0.94078 0.0
C605 C 0.76138 0.24542 0.91001 0.0
C606 C 0.76193 0.2215 0.9572 0.0
C607 C 0.77279 0.21813 0.98868 0.0
C608 C 0.79744 0.22405 0.9897 0.0
C609 C 0.80759 0.22092 1.01954 0.0
C610 C 0.79322 0.21171 1.04846 0.0
C611 C 0.76865 0.20554 1.04756 0.0
C612 C 0.75841 0.20866 1.01779 0.0
C613 C 0.68683 0.15097 0.8469 0.0
C614 C 0.66649 0.13419 0.86617 0.0
C615 C 0.70719 0.17176 0.86163 0.0
C616 C 0.70829 0.17747 0.89651 0.0
C617 C 0.68827 0.16025 0.91611 0.0
C618 C 0.66788 0.13917 0.90134 0.0
C619 C 0.72999 0.20113 0.91196 0.0
C620 C 0.74109 0.20048 0.94294 0.0
C621 C 0.74044 0.22452 0.89593 0.0
C622 C 0.72912 0.22823 0.86515 0.0
C623 C 0.70436 0.22197 0.865 0.0
C624 C 0.69371 0.22533 0.83583 0.0
C625 C 0.7077 0.23513 0.80673 0.0
C626 C 0.73238 0.24166 0.80677 0.0
C627 C 0.74311 0.23831 0.83586 0.0
H628 H 0.69942 0.23771 0.78416 0.0
H629 H 0.80112 0.2093 1.07153 0.0
H630 H 0.4841 0.65081 0.23843 0.0
H631 H 0.48847 0.68937 0.25802 0.0
H632 H 0.55092 0.72851 0.19359 0.0
H633 H 0.54633 0.68923 0.17338 0.0
H634 H 0.51724 0.72637 0.29282 0.0
H635 H 0.55962 0.78704 0.17595 0.0
H636 H 0.56111 0.7833 0.11394 0.0
H637 H 0.49193 0.71677 0.11548 0.0
H638 H 0.48991 0.72029 0.17741 0.0
H639 H 0.54312 0.84956 0.33987 0.0
H640 H 0.5471 0.81443 0.31997 0.0
H641 H 0.4936 0.79996 0.24193 0.0
H642 H 0.4896 0.83446 0.2616 0.0
H643 H 0.52558 0.79122 0.21417 0.0
H644 H 0.48201 0.76471 0.31885 0.0
H645 H 0.47546 0.76622 0.38008 0.0
H646 H 0.53954 0.76094 0.40172 0.0
H647 H 0.54665 0.75972 0.34057 0.0
C648 C 0.49891 0.6675 0.22813 0.0
C649 C 0.5147 0.66617 0.20381 0.0
C650 C 0.50148 0.68996 0.23974 0.0
C651 C 0.51992 0.71276 0.22764 0.0
C652 C 0.53611 0.71168 0.20352 0.0
C653 C 0.5336 0.68893 0.19191 0.0
C654 C 0.52152 0.73692 0.24035 0.0
C655 C 0.51936 0.74053 0.27532 0.0
C656 C 0.52384 0.75601 0.21851 0.0
C657 C 0.52479 0.75378 0.18133 0.0
C658 C 0.54472 0.77165 0.16302 0.0
C659 C 0.54565 0.76957 0.1279 0.0
C660 C 0.52667 0.74976 0.1108 0.0
C661 C 0.50667 0.73205 0.12877 0.0
C662 C 0.50563 0.73406 0.16388 0.0
C663 C 0.53229 0.83902 0.31837 0.0
C664 C 0.51592 0.84536 0.30273 0.0
C665 C 0.53444 0.81856 0.30691 0.0
C666 C 0.52052 0.80362 0.2791 0.0
C667 C 0.50477 0.81054 0.2632 0.0
C668 C 0.50241 0.83059 0.27479 0.0
C669 C 0.52167 0.78079 0.26665 0.0
C670 C 0.52403 0.77729 0.23171 0.0
C671 C 0.51922 0.76166 0.28846 0.0
C672 C 0.51503 0.76242 0.32516 0.0
C673 C 0.49481 0.76407 0.33667 0.0
C674 C 0.49098 0.76484 0.37136 0.0
C675 C 0.50712 0.76376 0.39478 0.0
C676 C 0.52709 0.76184 0.38355 0.0
C677 C 0.53103 0.7611 0.34889 0.0
H678 H 0.50411 0.76434 0.42162 0.0
H679 H 0.52744 0.74817 0.08362 0.0
H680 H 0.65586 0.52723 0.59226 0.0
H681 H 0.69081 0.52612 0.56645 0.0
H682 H 0.72105 0.5292 0.66542 0.0
H683 H 0.68581 0.5296 0.69127 0.0
H684 H 0.75809 0.55977 0.62059 0.0
H685 H 0.69363 0.47588 0.6188 0.0
H686 H 0.65254 0.44196 0.60452 0.0
H687 H 0.66703 0.45776 0.49873 0.0
H688 H 0.7081 0.49203 0.51242 0.0
H689 H 0.85184 0.53144 0.57642 0.0
H690 H 0.81718 0.53399 0.5993 0.0
H691 H 0.78115 0.51318 0.5022 0.0
H692 H 0.81608 0.5105 0.47927 0.0
H693 H 0.74645 0.49234 0.54438 0.0
H694 H 0.80845 0.57498 0.54188 0.0
H695 H 0.84695 0.61358 0.55156 0.0
H696 H 0.83643 0.60463 0.65894 0.0
H697 H 0.798 0.56576 0.64998 0.0
C698 C 0.66995 0.52782 0.60873 0.0
C699 C 0.66752 0.52865 0.64428 0.0
C700 C 0.69014 0.52701 0.59375 0.0
C701 C 0.70923 0.52741 0.61348 0.0
C702 C 0.70707 0.52885 0.64896 0.0
C703 C 0.68664 0.52911 0.66394 0.0
C704 C 0.73112 0.52624 0.59751 0.0
C705 C 0.7554 0.54472 0.60441 0.0
C706 C 0.72843 0.50736 0.57495 0.0
C707 C 0.70385 0.48668 0.56666 0.0
C708 C 0.68799 0.47224 0.5925 0.0
C709 C 0.66471 0.45293 0.58452 0.0
C710 C 0.65716 0.44774 0.55074 0.0
C711 C 0.67289 0.46182 0.52488 0.0
C712 C 0.69618 0.48118 0.53274 0.0
C713 C 0.83673 0.52762 0.55958 0.0
C714 C 0.83749 0.52099 0.52551 0.0
C715 C 0.81658 0.5292 0.57287 0.0
C716 C 0.79583 0.52425 0.55293 0.0
C717 C 0.79642 0.51729 0.51887 0.0
C718 C 0.81673 0.51582 0.50547 0.0
C719 C 0.77374 0.52585 0.56771 0.0
C720 C 0.74934 0.50741 0.56064 0.0
C721 C 0.77631 0.54512 0.58958 0.0
C722 C 0.80041 0.56732 0.59524 0.0
C723 C 0.81452 0.58102 0.56758 0.0
C724 C 0.83625 0.60303 0.57293 0.0
C725 C 0.84396 0.61165 0.60582 0.0
C726 C 0.83029 0.59801 0.63348 0.0
C727 C 0.80857 0.57596 0.62828 0.0
H728 H 0.86058 0.62888 0.60989 0.0
H729 H 0.63913 0.43279 0.5446 0.0
H730 H 0.31403 0.85076 0.90458 0.0
H731 H 0.27667 0.8161 0.92689 0.0
H732 H 0.26273 0.78012 0.83016 0.0
H733 H 0.29988 0.81545 0.80729 0.0
H734 H 0.22736 0.79423 0.91327 0.0
H735 H 0.23101 0.716 0.84431 0.0
H736 H 0.26125 0.70701 0.81845 0.0
H737 H 0.31691 0.75836 0.88562 0.0
H738 H 0.28694 0.76741 0.91215 0.0
H739 H 0.11337 0.67606 0.9385 0.0
H740 H 0.14882 0.71107 0.91151 0.0
H741 H 0.19747 0.70209 0.97919 0.0
H742 H 0.16239 0.66809 1.00693 0.0
H743 H 0.21494 0.71019 0.90969 0.0
H744 H 0.18832 0.74787 0.99262 0.0
H745 H 0.15886 0.75726 1.01998 0.0
H746 H 0.15009 0.78743 0.92696 0.0
H747 H 0.17925 0.77787 0.89891 0.0
C748 C 0.30296 0.8357 0.88764 0.0
C749 C 0.31039 0.83668 0.8536 0.0
C750 C 0.28128 0.81556 0.90068 0.0
C751 C 0.26607 0.79474 0.88078 0.0
C752 C 0.27363 0.79546 0.84676 0.0
C753 C 0.29514 0.81595 0.83346 0.0
C754 C 0.24294 0.77259 0.89588 0.0
C755 C 0.22475 0.77589 0.912 0.0
C756 C 0.23871 0.74813 0.89526 0.0
C757 C 0.25679 0.74256 0.87993 0.0
C758 C 0.24969 0.7253 0.85362 0.0
C759 C 0.26678 0.72021 0.83884 0.0
C760 C 0.291 0.73217 0.8503 0.0
C761 C 0.29816 0.74918 0.87667 0.0
C762 C 0.28114 0.75431 0.89157 0.0
C763 C 0.13157 0.68153 0.94785 0.0
C764 C 0.13441 0.66876 0.97547 0.0
C765 C 0.1521 0.70179 0.93222 0.0
C766 C 0.17655 0.70984 0.94276 0.0
C767 C 0.1793 0.69678 0.96992 0.0
C768 C 0.15886 0.6771 0.98608 0.0
C769 C 0.1991 0.73176 0.92626 0.0
C770 C 0.21731 0.72845 0.91029 0.0
C771 C 0.20326 0.75618 0.92677 0.0
C772 C 0.18573 0.76188 0.94356 0.0
C773 C 0.17992 0.75628 0.97791 0.0
C774 C 0.16332 0.76168 0.99356 0.0
C775 C 0.15255 0.77286 0.97519 0.0
C776 C 0.15841 0.77872 0.94114 0.0
C777 C 0.17498 0.77332 0.92536 0.0
H778 H 0.13971 0.77704 0.98736 0.0
H779 H 0.30421 0.72823 0.83879 0.0
H780 H 0.57787 0.05448 0.96838 0.0
H781 H 0.55985 0.05296 1.02358 0.0
H782 H 0.52981 0.09629 0.98472 0.0
H783 H 0.54873 0.09848 0.92942 0.0
H784 H 0.53521 0.10899 1.0445 0.0
H785 H 0.49664 0.0256 1.01221 0.0
H786 H 0.49044 0.98527 0.99503 0.0
H787 H 0.52954 0.98346 1.08333 0.0
H788 H 0.53638 0.02401 0.10074 0.0
H789 H 0.45462 0.08092 0.19368 0.0
H790 H 0.47173 0.08272 0.13697 0.0
H791 H 0.51961 0.05923 0.1792 0.0
H792 H 0.50319 0.05828 0.23588 0.0
H793 H 0.50345 0.03589 0.11762 0.0
H794 H 0.53937 0.12039 0.14923 0.0
H795 H 0.54093 0.15893 0.16549 0.0
H796 H 0.50028 0.15548 1.07606 0.0
H797 H 0.49815 0.11671 1.0595 0.0
C798 C 0.56745 0.06381 0.97106 0.0
C799 C 0.56539 0.07668 0.94266 0.0
C800 C 0.55654 0.06265 1.00353 0.0
C801 C 0.54217 0.07393 1.01047 0.0
C802 C 0.54031 0.08705 0.98207 0.0
C803 C 0.5514 0.08834 0.94952 0.0
C804 C 0.52993 0.07253 1.04652 0.0
C805 C 0.52805 0.0926 1.05976 0.0
C806 C 0.52012 0.05173 1.06888 0.0
C807 C 0.51734 0.02804 1.05752 0.0
C808 C 0.50426 0.01679 1.02769 0.0
C809 C 0.50058 -0.00614 1.01795 0.0
C810 C 0.50965 0.98185 1.03802 0.0
C811 C 0.52257 -0.00718 1.06776 0.0
C812 C 0.52641 0.0158 1.07754 0.0
C813 C 0.46879 0.07606 0.19131 0.0
C814 C 0.47697 0.06934 0.22107 0.0
C815 C 0.47893 0.07724 0.15809 0.0
C816 C 0.49768 0.07126 0.15182 0.0
C817 C 0.50544 0.06408 0.1815 0.0
C818 C 0.49579 0.06353 0.21476 0.0
C819 C 0.50897 0.07231 0.11535 0.0
C820 C 0.51067 0.05219 0.10215 0.0
C821 C 0.518 0.09278 0.09271 0.0
C822 C 0.51842 0.11553 0.10328 0.0
C823 C 0.53051 0.12769 0.13323 0.0
C824 C 0.53158 0.14963 0.14244 0.0
C825 C 0.52081 0.15969 0.12174 0.0
C826 C 0.50869 0.1477 0.092 0.0
C827 C 0.50753 0.12574 1.0827 0.0
H828 H 0.52184 0.17678 0.12878 0.0
H829 H 0.50657 0.96399 1.0306 0.0
H830 H 0.45338 0.54293 0.26726 0.0
H831 H 0.43785 0.52623 0.32344 0.0
H832 H 0.50622 0.57938 0.3681 0.0
H833 H 0.52172 0.59636 0.31147 0.0
H834 H 0.47723 0.57415 0.41472 0.0
H835 H 0.40216 0.47711 0.37091 0.0
H836 H 0.39671 0.44572 0.32897 0.0
H837 H 0.47459 0.47735 0.3217 0.0
H838 H 0.48047 0.50888 0.36361 0.0
H839 H 0.40795 0.52279 0.56906 0.0
H840 H 0.42421 0.53942 0.51323 0.0
H841 H 0.42492 0.47332 0.48791 0.0
H842 H 0.40614 0.45584 0.54271 0.0
H843 H 0.4235 0.48536 0.43229 0.0
H844 H 0.47847 0.54396 0.51029 0.0
H845 H 0.49441 0.57452 0.55616 0.0
H846 H 0.47093 0.61853 0.50233 0.0
H847 H 0.45477 0.58819 0.45607 0.0
C848 C 0.46546 0.55127 0.28874 0.0
C849 C 0.48932 0.57146 0.28302 0.0
C850 C 0.45639 0.54129 0.32182 0.0
C851 C 0.47038 0.5506 0.35221 0.0
C852 C 0.49421 0.57102 0.34656 0.0
C853 C 0.50337 0.58095 0.31331 0.0
C854 C 0.46013 0.53955 0.38886 0.0
C855 C 0.46528 0.55467 0.41801 0.0
C856 C 0.44522 0.51392 0.39599 0.0
C857 C 0.44172 0.49554 0.36999 0.0
C858 C 0.4181 0.47741 0.36024 0.0
C859 C 0.41494 0.4596 0.33649 0.0
C860 C 0.43529 0.45962 0.32255 0.0
C861 C 0.45885 0.47746 0.33232 0.0
C862 C 0.4621 0.49536 0.35596 0.0
C863 C 0.41149 0.51157 0.55182 0.0
C864 C 0.40532 0.48753 0.56207 0.0
C865 C 0.4215 0.5215 0.51905 0.0
C866 C 0.42749 0.50877 0.49428 0.0
C867 C 0.42118 0.4846 0.50472 0.0
C868 C 0.41026 0.4743 0.53705 0.0
C869 C 0.43953 0.52003 0.45828 0.0
C870 C 0.43499 0.50491 0.42919 0.0
C871 C 0.45598 0.54561 0.45165 0.0
C872 C 0.46535 0.56372 0.47965 0.0
C873 C 0.47676 0.56017 0.50812 0.0
C874 C 0.48579 0.57744 0.53426 0.0
C875 C 0.48368 0.59845 0.53217 0.0
C876 C 0.47254 0.60224 0.50392 0.0
C877 C 0.46346 0.58501 0.47771 0.0
H878 H 0.49068 0.6118 0.55245 0.0
H879 H 0.43281 0.44575 0.30429 0.0
H880 H 0.90019 0.43697 0.90691 0.0
H881 H 0.90149 0.45561 0.852 0.0
H882 H 0.91816 0.40463 0.80343 0.0
H883 H 0.91719 0.3861 0.85886 0.0
H884 H 0.9419 0.44411 0.7676 0.0
H885 H 0.85768 0.40604 0.79937 0.0
H886 H 0.8226 0.39712 0.83584 0.0
H887 H 0.84284 0.47301 0.83527 0.0
H888 H 0.87823 0.48243 0.79911 0.0
H889 H 0.91741 0.47096 0.59633 0.0
H890 H 0.91804 0.45361 0.65169 0.0
H891 H 0.90399 0.50634 0.70035 0.0
H892 H 0.90363 0.52397 0.64467 0.0
H893 H 0.87924 0.46632 0.7362 0.0
H894 H 0.96217 0.50469 0.7034 0.0
H895 H -0.00154 0.515 0.66889 0.0
H896 H 0.98224 0.44035 0.67271 0.0
H897 H 0.9456 0.42947 0.70688 0.0
C898 C 0.90408 0.4294 0.88477 0.0
C899 C 0.90838 0.40938 0.88894 0.0
C900 C 0.90463 0.44022 0.85243 0.0
C901 C 0.9094 0.43185 0.82141 0.0
C902 C 0.91421 0.41211 0.82562 0.0
C903 C 0.91357 0.40119 0.85808 0.0
C904 C 0.90948 0.44352 0.78555 0.0
C905 C 0.92776 0.44842 0.76094 0.0
C906 C 0.89193 0.45052 0.77513 0.0
C907 C 0.87073 0.44496 0.79683 0.0
C908 C 0.85474 0.42084 0.80721 0.0
C909 C 0.83479 0.4157 0.8278 0.0
C910 C 0.83053 0.4345 0.83794 0.0
C911 C 0.84619 0.45848 0.82744 0.0
C912 C 0.86618 0.46373 0.80688 0.0
C913 C 0.9146 0.47924 0.6186 0.0
C914 C 0.91062 0.49948 0.61442 0.0
C915 C 0.91508 0.46911 0.65112 0.0
C916 C 0.91136 0.47821 0.68222 0.0
C917 C 0.90706 0.49828 0.67805 0.0
C918 C 0.90695 0.50869 0.64546 0.0
C919 C 0.91156 0.46677 0.71811 0.0
C920 C 0.89333 0.4619 0.74273 0.0
C921 C 0.92926 0.45993 0.72857 0.0
C922 C 0.95087 0.46618 0.70726 0.0
C923 C 0.96611 0.49038 0.69647 0.0
C924 C -0.0132 0.49635 0.67706 0.0
C925 C -0.00745 0.47831 0.66841 0.0
C926 C 0.97769 0.45428 0.6793 0.0
C927 C 0.95695 0.4482 0.69871 0.0
H928 H 0.00857 0.48298 0.65337 0.0
H929 H 0.81508 0.43048 0.85387 0.0
H930 H 0.37378 0.90921 0.97386 0.0
H931 H 0.39163 0.91031 1.02974 0.0
H932 H 0.45495 0.9149 0.98204 0.0
H933 H 0.43662 0.91284 0.92631 0.0
H934 H 0.45381 0.89259 1.03367 0.0
H935 H 0.44852 0.96522 1.03465 0.0
H936 H 0.42919 -0.00917 1.02933 0.0
H937 H 0.37907 0.95013 0.10861 0.0
H938 H 0.3981 0.9242 0.1143 0.0
H939 H 0.52325 0.92015 0.19346 0.0
H940 H 0.50699 0.92089 0.13686 0.0
H941 H 0.44007 0.9093 0.18166 0.0
H942 H 0.45643 0.90896 0.23798 0.0
H943 H 0.4444 0.93643 0.13116 0.0
H944 H 0.45194 0.86355 0.12807 0.0
H945 H 0.47425 0.84067 0.13234 0.0
H946 H 0.52394 0.88593 1.05533 0.0
H947 H 0.50203 0.9092 1.05082 0.0
C948 C 0.39157 0.91054 0.97486 0.0
C949 C 0.40325 0.91098 0.9439 0.0
C950 C 0.40224 0.91145 1.00772 0.0
C951 C 0.42564 0.91326 1.01235 0.0
C952 C 0.43715 0.91355 0.98125 0.0
C953 C 0.42642 0.91246 0.94847 0.0
C954 C 0.43778 0.91441 1.04848 0.0
C955 C 0.45173 0.90257 1.0545 0.0
C956 C 0.43595 0.92702 1.07769 0.0
C957 C 0.42459 0.94264 1.07467 0.0
C958 C 0.43335 0.9617 1.05088 0.0
C959 C 0.42245 0.97628 1.04781 0.0
C960 C 0.40286 0.97206 1.06855 0.0
C961 C 0.39423 0.95335 0.09254 0.0
C962 C 0.40509 0.93874 0.09574 0.0
C963 C 0.50501 0.91768 0.19165 0.0
C964 C 0.49161 0.91437 0.22199 0.0
C965 C 0.49533 0.91789 0.15839 0.0
C966 C 0.47142 0.91468 0.1528 0.0
C967 C 0.45833 0.9118 0.18328 0.0
C968 C 0.46794 0.91152 0.21637 0.0
C969 C 0.4601 0.91435 0.11636 0.0
C970 C 0.44636 0.9264 0.11028 0.0
C971 C 0.46251 0.90232 0.08693 0.0
C972 C 0.47548 0.88821 0.08932 0.0
C973 C 0.46768 0.86865 0.11214 0.0
C974 C 0.48024 0.85562 0.1146 0.0
C975 C 0.50053 0.86188 0.09417 0.0
C976 C 0.50824 0.88112 1.07115 0.0
C977 C 0.49574 0.89421 1.06861 0.0
H978 H 0.51025 0.85179 0.09614 0.0
H979 H 0.39438 0.9833 1.06606 0.0
H980 H 0.52085 0.41787 0.27273 0.0
H981 H 0.53783 0.4346 0.32907 0.0
H982 H 0.4678 0.42346 0.36015 0.0
H983 H 0.45053 0.4058 0.30415 0.0
H984 H 0.50361 0.46793 0.38678 0.0
H985 H 0.49158 0.38719 0.39081 0.0
H986 H 0.49568 0.3521 0.37196 0.0
H987 H 0.57372 0.39504 0.38234 0.0
H988 H 0.5701 0.43052 0.40082 0.0
H989 H 0.55672 0.45741 0.57104 0.0
H990 H 0.53845 0.44051 0.51548 0.0
H991 H 0.565 0.51329 0.47751 0.0
H992 H 0.58319 0.53015 0.53316 0.0
H993 H 0.54793 0.43626 0.45505 0.0
H994 H 0.53366 0.51306 0.39845 0.0
H995 H 0.52511 0.54568 0.41525 0.0
H996 H 0.49646 0.50973 0.51002 0.0
H997 H 0.50454 0.47667 0.49364 0.0
C998 C 0.50879 0.41877 0.29135 0.0
C999 C 0.48385 0.40993 0.28245 0.0
C1000 C 0.51871 0.42849 0.32434 0.0
C1001 C 0.5046 0.43071 0.35069 0.0
C1002 C 0.47978 0.42237 0.34157 0.0
C1003 C 0.46967 0.41199 0.30886 0.0
C1004 C 0.51554 0.44145 0.38697 0.0
C1005 C 0.51351 0.46101 0.40133 0.0
C1006 C 0.52833 0.43283 0.40787 0.0
C1007 C 0.53059 0.41158 0.39686 0.0
C1008 C 0.50963 0.38921 0.38881 0.0
C1009 C 0.51186 0.36924 0.37824 0.0
C1010 C 0.53495 0.37136 0.37586 0.0
C1011 C 0.55585 0.39344 0.38414 0.0
C1012 C 0.55372 0.41348 0.39469 0.0
C1013 C 0.55882 0.47008 0.55109 0.0
C1014 C 0.57196 0.49562 0.55815 0.0
C1015 C 0.54807 0.46017 0.51849 0.0
C1016 C 0.54919 0.47496 0.49046 0.0
C1017 C 0.56258 0.50056 0.4975 0.0
C1018 C 0.57349 0.51048 0.53006 0.0
C1019 C 0.53705 0.46371 0.45468 0.0
C1020 C 0.53853 0.4437 0.44047 0.0
C1021 C 0.52392 0.47216 0.43378 0.0
C1022 C 0.51993 0.49241 0.44489 0.0
C1023 C 0.52556 0.51208 0.42292 0.0
C1024 C 0.52078 0.53065 0.43233 0.0
C1025 C 0.51039 0.52984 0.46372 0.0
C1026 C 0.50463 0.51038 0.48574 0.0
C1027 C 0.50931 0.49168 0.47639 0.0
H1028 H 0.50687 0.54435 0.47088 0.0
H1029 H 0.53664 0.35587 0.36768 0.0
H1030 H 0.04168 0.57538 0.87186 0.0
H1031 H 0.04088 0.55807 0.81579 0.0
H1032 H 0.09733 0.543 0.84782 0.0
H1033 H 0.09771 0.55986 0.9044 0.0
H1034 H 0.10752 0.55745 0.78226 0.0
H1035 H 0.03255 0.49563 0.83133 0.0
H1036 H -0.00795 0.47845 0.8581 0.0
H1037 H 0.96626 0.50364 0.77499 0.0
H1038 H 0.00663 0.52102 0.74779 0.0
H1039 H 0.09433 0.52517 0.60147 0.0
H1040 H 0.09442 0.54178 0.65784 0.0
H1041 H 0.04277 0.46969 0.69236 0.0
H1042 H 0.04267 0.45311 0.63593 0.0
H1043 H 0.03035 0.49744 0.72599 0.0
H1044 H 0.12562 0.58246 0.72351 0.0
H1045 H 0.16595 0.59693 0.69735 0.0
H1046 H 0.15149 0.52295 0.68937 0.0
H1047 H 0.11119 0.50807 0.71581 0.0
C1048 C 0.054 0.56834 0.86752 0.0
C1049 C 0.06974 0.56952 0.89449 0.0
C1050 C 0.05345 0.55807 0.83458 0.0
C1051 C 0.06892 0.54845 0.82548 0.0
C1052 C 0.0849 0.54989 0.85233 0.0
C1053 C 0.08508 0.55971 0.88558 0.0
C1054 C 0.06854 0.5374 0.78883 0.0
C1055 C 0.09039 0.54447 0.77032 0.0
C1056 C 0.04678 0.51989 0.77117 0.0
C1057 C 0.02265 0.50978 0.78766 0.0
C1058 C 0.01828 0.49763 0.81888 0.0
C1059 C -0.00467 0.4878 0.83408 0.0
C1060 C 0.9766 0.48996 0.81826 0.0
C1061 C 0.98077 0.50194 0.78719 0.0
C1062 C 0.00366 0.51173 0.77183 0.0
C1063 C 0.08294 0.51255 0.62081 0.0
C1064 C 0.06864 0.48724 0.61237 0.0
C1065 C 0.0831 0.52228 0.65407 0.0
C1066 C 0.06892 0.50756 0.6818 0.0
C1067 C 0.05427 0.48232 0.6731 0.0
C1068 C 0.05427 0.47256 0.63993 0.0
C1069 C 0.06929 0.51809 0.71889 0.0
C1070 C 0.04746 0.51073 0.73764 0.0
C1071 C 0.09105 0.53545 0.73671 0.0
C1072 C 0.11533 0.54417 0.72133 0.0
C1073 C 0.1311 0.5693 0.71629 0.0
C1074 C 0.15394 0.57757 0.70139 0.0
C1075 C 0.16125 0.56086 0.69161 0.0
C1076 C 0.14577 0.53586 0.69685 0.0
C1077 C 0.12293 0.5275 0.71177 0.0
H1078 H 0.17892 0.5673 0.68004 0.0
H1079 H 0.95886 0.48234 0.83006 0.0
H1080 H 0.23539 0.91336 0.95844 0.0
H1081 H 0.23887 0.93099 1.01467 0.0
H1082 H 0.28571 0.90297 1.04668 0.0
H1083 H 0.2833 0.88628 0.99071 0.0
H1084 H 0.24277 0.92137 0.09277 0.0
H1085 H 0.33888 0.95303 1.05564 0.0
H1086 H 0.36343 0.95475 1.00615 0.0
H1087 H 0.31644 0.968 0.94108 0.0
H1088 H 0.29151 0.96615 0.99018 0.0
H1089 H 0.36244 0.01954 0.18031 0.0
H1090 H 0.34135 -0.00995 0.13549 0.0
H1091 H 0.27971 0.00193 0.14425 0.0
H1092 H 0.30061 0.03092 0.19083 0.0
H1093 H 0.32698 -0.00917 1.07731 0.0
H1094 H 0.22673 0.94928 0.1238 0.0
H1095 H 0.20453 0.94297 0.17745 0.0
H1096 H 0.26428 0.94433 0.23218 0.0
H1097 H 0.28665 0.95027 0.17885 0.0
C1098 C 0.24557 0.91003 0.97789 0.0
C1099 C 0.25992 0.89936 0.96964 0.0
C1100 C 0.24732 0.91991 1.01011 0.0
C1101 C 0.26309 0.91878 1.03427 0.0
C1102 C 0.27362 0.90414 1.02809 0.0
C1103 C 0.27213 0.89452 0.99587 0.0
C1104 C 0.27413 0.93801 1.06031 0.0
C1105 C 0.26105 0.93675 0.08946 0.0
C1106 C 0.29823 0.9576 1.05613 0.0
C1107 C 0.31328 0.95928 1.02647 0.0
C1108 C 0.33383 0.95634 1.03075 0.0
C1109 C 0.34775 0.95724 1.00277 0.0
C1110 C 0.34139 0.96132 0.97045 0.0
C1111 C 0.32119 0.96462 0.96608 0.0
C1112 C 0.30713 0.96359 0.99395 0.0
C1113 C 0.34461 0.01631 0.17222 0.0
C1114 C 0.33322 0.02767 0.18873 0.0
C1115 C 0.33248 -0.0007 0.14669 0.0
C1116 C 0.30879 -0.00652 0.13673 0.0
C1117 C 0.29777 0.00572 0.15203 0.0
C1118 C 0.30978 0.02245 0.17827 0.0
C1119 C 0.29589 0.97435 0.11062 0.0
C1120 C 0.30862 0.97566 1.081 0.0
C1121 C 0.27191 0.95439 0.11522 0.0
C1122 C 0.25848 0.95055 0.14737 0.0
C1123 C 0.23509 0.94817 0.14728 0.0
C1124 C 0.22248 0.94465 0.17763 0.0
C1125 C 0.23303 0.94335 0.20822 0.0
C1126 C 0.25617 0.94544 0.2085 0.0
C1127 C 0.26883 0.94891 0.17822 0.0
H1128 H 0.22325 0.94066 0.23168 0.0
H1129 H 0.35215 0.962 0.9488 0.0
H1130 H 0.28981 0.25528 0.27872 0.0
H1131 H 0.26716 0.24756 0.33164 0.0
H1132 H 0.3349 0.28008 0.38785 0.0
H1133 H 0.35767 0.28851 0.33552 0.0
H1134 H 0.27077 0.23211 0.41163 0.0
H1135 H 0.33745 0.33246 0.40612 0.0
H1136 H 0.36201 0.36405 0.36397 0.0
H1137 H 0.30415 0.32869 0.29073 0.0
H1138 H 0.27917 0.29715 0.33263 0.0
H1139 H 0.29661 0.29798 0.56359 0.0
H1140 H 0.28962 0.27433 0.51209 0.0
H1141 H 0.25247 0.30957 0.46747 0.0
H1142 H 0.25979 0.33372 0.51919 0.0
H1143 H 0.28959 0.31757 0.43138 0.0
H1144 H 0.22362 0.2457 0.4766 0.0
H1145 H 0.20077 0.21342 0.51853 0.0
H1146 H 0.2546 0.19068 0.51344 0.0
H1147 H 0.278 0.22305 0.47187 0.0
C1148 C 0.29982 0.25997 0.30246 0.0
C1149 C 0.32557 0.27318 0.30285 0.0
C1150 C 0.2868 0.25521 0.33266 0.0
C1151 C 0.29945 0.26353 0.36342 0.0
C1152 C 0.32488 0.27346 0.36424 0.0
C1153 C 0.33789 0.27832 0.33415 0.0
C1154 C 0.28785 0.26871 0.39208 0.0
C1155 C 0.27449 0.25063 0.41606 0.0
C1156 C 0.29231 0.29277 0.39707 0.0
C1157 C 0.30655 0.31245 0.3724 0.0
C1158 C 0.32992 0.3316 0.38111 0.0
C1159 C 0.34392 0.34944 0.35725 0.0
C1160 C 0.33467 0.34834 0.32466 0.0
C1161 C 0.31132 0.3295 0.31595 0.0
C1162 C 0.29723 0.31165 0.33974 0.0
C1163 C 0.28608 0.30003 0.54338 0.0
C1164 C 0.27898 0.31792 0.54527 0.0
C1165 C 0.28198 0.28635 0.51388 0.0
C1166 C 0.27048 0.29011 0.48584 0.0
C1167 C 0.26143 0.3064 0.48879 0.0
C1168 C 0.26571 0.32026 0.51824 0.0
C1169 C 0.27261 0.28107 0.45208 0.0
C1170 C 0.28472 0.29868 0.42694 0.0
C1171 C 0.26665 0.25651 0.44616 0.0
C1172 C 0.25263 0.23691 0.47113 0.0
C1173 C 0.23069 0.23393 0.48457 0.0
C1174 C 0.21762 0.21559 0.50826 0.0
C1175 C 0.22623 0.20002 0.51866 0.0
C1176 C 0.24793 0.20274 0.50534 0.0
C1177 C 0.26109 0.22106 0.48165 0.0
H1178 H 0.21609 0.18584 0.53701 0.0
H1179 H 0.34558 0.36209 0.30618 0.0
H1180 H 0.01311 0.29011 0.60759 0.0
H1181 H -0.00119 0.26654 0.65994 0.0
H1182 H 0.03668 0.33302 0.71819 0.0
H1183 H 0.05051 0.35673 0.66641 0.0
H1184 H 0.01941 0.26878 0.74034 0.0
H1185 H -0.01171 0.33714 0.73657 0.0
H1186 H 0.9816 0.36272 0.69526 0.0
H1187 H 0.9551 0.30448 0.62223 0.0
H1188 H 0.9614 0.27854 0.6633 0.0
H1189 H 0.97905 0.29235 0.89361 0.0
H1190 H -0.00413 0.28594 0.84199 0.0
H1191 H 0.92403 0.25057 0.79611 0.0
H1192 H 0.90711 0.25745 0.84788 0.0
H1193 H 0.95331 0.28823 0.76146 0.0
H1194 H 0.95892 0.22098 0.80448 0.0
H1195 H 0.96827 0.19729 0.84561 0.0
H1196 H 0.04457 0.25086 0.84151 0.0
H1197 H 0.03567 0.27508 0.80073 0.0
C1198 C 0.01913 0.29962 0.6316 0.0
C1199 C 0.03229 0.32534 0.63285 0.0
C1200 C 0.01125 0.28606 0.66146 0.0
C1201 C 0.01654 0.29813 0.69274 0.0
C1202 C 0.03257 0.32343 0.69418 0.0
C1203 C 0.04039 0.33699 0.66443 0.0
C1204 C 4e-05 0.28644 0.72152 0.0
C1205 C 0.00473 0.27264 0.74507 0.0
C1206 C 0.98064 0.29115 0.72695 0.0
C1207 C 0.97537 0.306 0.70288 0.0
C1208 C 0.98081 0.32976 0.7118 0.0
C1209 C 0.97717 0.34433 0.68841 0.0
C1210 C 0.96798 0.33525 0.65611 0.0
C1211 C 0.96224 0.31151 0.64723 0.0
C1212 C 0.96584 0.29687 0.67054 0.0
C1213 C 0.96662 0.28231 0.87306 0.0
C1214 C 0.94179 0.27565 0.87461 0.0
C1215 C 0.97628 0.27854 0.8435 0.0
C1216 C 0.96124 0.26775 0.81508 0.0
C1217 C 0.936 0.25899 0.81771 0.0
C1218 C 0.92636 0.263 0.8472 0.0
C1219 C 0.97254 0.27049 0.78137 0.0
C1220 C 0.96719 0.2832 0.75671 0.0
C1221 C -0.00894 0.26443 0.77509 0.0
C1222 C -0.00341 0.24991 0.79957 0.0
C1223 C 0.97768 0.22781 0.8125 0.0
C1224 C 0.98291 0.21426 0.83574 0.0
C1225 C 0.00699 0.22257 0.84619 0.0
C1226 C 0.02592 0.24443 0.83337 0.0
C1227 C 0.0208 0.25805 0.81013 0.0
H1228 H 0.011 0.21206 0.86419 0.0
H1229 H 0.96529 0.34659 0.63798 0.0
H1230 H 0.67389 0.95017 0.21744 0.0
H1231 H 0.69308 0.95968 0.16242 0.0
H1232 H 0.63063 0.89659 0.11964 0.0
H1233 H 0.61155 0.88598 0.17522 0.0
H1234 H 0.69545 0.93409 0.08847 0.0
H1235 H 0.6051 0.92637 0.0892 0.0
H1236 H 0.57337 0.92495 0.12714 0.0
H1237 H 0.62906 0.97833 0.19235 0.0
H1238 H 0.66103 0.98025 0.15449 0.0
H1239 H 0.65363 0.96554 0.93301 0.0
H1240 H 0.66341 0.9479 0.98156 0.0
H1241 H 0.69274 0.01662 1.03466 0.0
H1242 H 0.68365 0.03468 0.98588 0.0
H1243 H 0.64855 0.97607 1.06041 0.0
H1244 H 0.72923 -0.00312 1.02541 0.0
H1245 H 0.76022 -0.00185 0.9864 0.0
H1246 H 0.72477 0.91976 0.98706 0.0
H1247 H 0.69333 0.91798 1.0257 0.0
C1248 C 0.66477 0.93727 0.19705 0.0
C1249 C 0.64061 0.91787 0.20048 0.0
C1250 C 0.67597 0.94275 0.16544 0.0
C1251 C 0.66301 0.92915 0.137 0.0
C1252 C 0.64084 0.90736 0.14141 0.0
C1253 C 0.62976 0.90162 0.17312 0.0
C1254 C 0.66751 0.94201 0.10447 0.0
C1255 C 0.68521 0.94319 1.08201 0.0
C1256 C 0.65434 0.95413 0.09658 0.0
C1257 C 0.63534 0.95332 0.11924 0.0
C1258 C 0.6105 0.93784 0.11159 0.0
C1259 C 0.59251 0.93698 0.13301 0.0
C1260 C 0.5992 0.95161 0.16207 0.0
C1261 C 0.62391 0.9671 0.16977 0.0
C1262 C 0.64195 0.96807 0.14835 0.0
C1263 C 0.66314 0.97724 0.9544 0.0
C1264 C 0.66739 0.00137 0.95595 0.0
C1265 C 0.66878 0.96711 0.98209 0.0
C1266 C 0.67869 0.98096 1.01159 0.0
C1267 C 0.68513 0.0057 1.01197 0.0
C1268 C 0.67965 0.01588 0.98428 0.0
C1269 C 0.67666 0.96844 1.04391 0.0
C1270 C 0.65904 0.96714 1.06652 0.0
C1271 C 0.6899 0.95629 1.05146 0.0
C1272 C 0.70876 0.95729 1.02821 0.0
C1273 C 0.72788 0.97989 1.01697 0.0
C1274 C 0.74557 0.98071 0.99499 0.0
C1275 C 0.74443 0.95905 0.98419 0.0
C1276 C 0.72562 0.93653 0.99542 0.0
C1277 C 0.70787 0.9356 1.0174 0.0
H1278 H 0.75814 0.95973 0.96718 0.0
H1279 H 0.58526 0.95085 0.1787 0.0
H1280 H 0.67465 0.63341 0.50293 0.0
H1281 H 0.68723 0.66019 0.45434 0.0
H1282 H 0.72297 0.72321 0.52003 0.0
H1283 H 0.71032 0.69615 0.56937 0.0
H1284 H 0.69275 0.72791 0.48097 0.0
H1285 H 0.75689 0.71383 0.45769 0.0
H1286 H 0.77974 0.69161 0.4528 0.0
H1287 H 0.73053 0.64612 0.37466 0.0
H1288 H 0.70713 0.66774 0.37938 0.0
H1289 H 0.68133 0.72311 0.27962 0.0
H1290 H 0.7081 0.73825 0.32945 0.0
H1291 H 0.645 0.70256 0.39408 0.0
H1292 H 0.61846 0.68743 0.3449 0.0
H1293 H 0.71283 0.70829 0.36832 0.0
H1294 H 0.65264 0.72311 0.46946 0.0
H1295 H 0.63162 0.74709 0.4741 0.0
H1296 H 0.67738 0.7957 0.39652 0.0
H1297 H 0.69901 0.77228 0.39172 0.0
C1298 C 0.68602 0.65288 0.50716 0.0
C1299 C 0.69132 0.66262 0.54008 0.0
C1300 C 0.69332 0.66829 0.4792 0.0
C1301 C 0.70629 0.6938 0.48342 0.0
C1302 C 0.71304 0.7036 0.51617 0.0
C1303 C 0.70568 0.68812 0.54429 0.0
C1304 C 0.70862 0.70947 0.45407 0.0
C1305 C 0.69761 0.72409 0.45634 0.0
C1306 C 0.71622 0.70567 0.42214 0.0
C1307 C 0.73029 0.69256 0.41882 0.0
C1308 C 0.75087 0.69904 0.43952 0.0
C1309 C 0.76393 0.68653 0.43678 0.0
C1310 C 0.75662 0.6675 0.41339 0.0
C1311 C 0.73623 0.66093 0.39268 0.0
C1312 C 0.7231 0.67337 0.39531 0.0
C1313 C 0.67318 0.7191 0.30453 0.0
C1314 C 0.64781 0.70372 0.30834 0.0
C1315 C 0.68849 0.7279 0.33294 0.0
C1316 C 0.67864 0.72161 0.36556 0.0
C1317 C 0.65312 0.70818 0.36927 0.0
C1318 C 0.63785 0.69939 0.34098 0.0
C1319 C 0.69433 0.72412 0.39514 0.0
C1320 C 0.70893 0.71309 0.39294 0.0
C1321 C 0.69041 0.7316 0.4271 0.0
C1322 C 0.67755 0.74592 0.4303 0.0
C1323 C 0.65845 0.73906 0.45362 0.0
C1324 C 0.64635 0.75253 0.45621 0.0
C1325 C 0.65317 0.77292 0.43564 0.0
C1326 C 0.6721 0.77989 0.41243 0.0
C1327 C 0.68427 0.7665 0.40973 0.0
H1328 H 0.64376 0.7833 0.43767 0.0
H1329 H 0.76674 0.65783 0.41134 0.0
H1330 H 0.00104 0.70286 0.89779 0.0
H1331 H 0.98279 0.71319 0.85005 0.0
H1332 H -0.00117 0.6684 0.78418 0.0
H1333 H 0.01698 0.65818 0.83127 0.0
H1334 H 0.00316 0.70678 0.75044 0.0
H1335 H 0.94377 0.6449 0.82937 0.0
H1336 H 0.92464 0.63259 0.88561 0.0
H1337 H 0.9064 0.68982 0.88246 0.0
H1338 H 0.92569 0.70259 0.82634 0.0
H1339 H 0.90051 0.61149 0.66946 0.0
H1340 H 0.91398 0.63346 0.72247 0.0
H1341 H 0.93582 0.70147 0.67089 0.0
H1342 H 0.92135 0.67937 0.61722 0.0
H1343 H 0.91342 0.6687 0.7651 0.0
H1344 H -0.00474 0.73653 0.69191 0.0
H1345 H 0.01313 0.74231 0.63484 0.0
H1346 H -0.01497 0.66494 0.62597 0.0
H1347 H 0.96737 0.65884 0.68313 0.0
C1348 C 0.00106 0.69563 0.87293 0.0
C1349 C 0.01021 0.67949 0.86835 0.0
C1350 C -0.00927 0.70162 0.84571 0.0
C1351 C -0.01083 0.69132 0.81367 0.0
C1352 C -6e-05 0.6767 0.80863 0.0
C1353 C 0.01035 0.67085 0.83565 0.0
C1354 C 0.97366 0.69256 0.78628 0.0
C1355 C 0.98365 0.69925 0.7538 0.0
C1356 C 0.94816 0.6827 0.79055 0.0
C1357 C 0.93636 0.67484 0.82397 0.0
C1358 C 0.93575 0.65488 0.84079 0.0
C1359 C 0.9249 0.64784 0.87261 0.0
C1360 C 0.91437 0.66046 0.88764 0.0
C1361 C 0.91461 0.68011 0.87083 0.0
C1362 C 0.9255 0.68726 0.83903 0.0
C1363 C 0.90693 0.63092 0.66928 0.0
C1364 C 0.91061 0.64373 0.63873 0.0
C1365 C 0.91465 0.64353 0.69987 0.0
C1366 C 0.92642 0.66913 0.70045 0.0
C1367 C 0.92704 0.6817 0.67084 0.0
C1368 C 0.91905 0.66904 0.64014 0.0
C1369 C 0.94287 0.68197 0.72933 0.0
C1370 C 0.9331 0.67784 0.762 0.0
C1371 C 0.96854 0.69365 0.72526 0.0
C1372 C 0.97985 0.69726 0.6915 0.0
C1373 C -0.00696 0.72082 0.67778 0.0
C1374 C 0.00312 0.72413 0.64545 0.0
C1375 C 0.00016 0.704 0.62675 0.0
C1376 C -0.01271 0.68052 0.64045 0.0
C1377 C 0.97729 0.67713 0.67281 0.0
H1378 H 0.00788 0.70659 0.60168 0.0
H1379 H 0.90598 0.65499 0.91228 0.0
H1380 H 0.40191 0.00877 0.37164 0.0
H1381 H 0.38499 0.97125 0.40416 0.0
H1382 H 0.41745 0.94316 0.33427 0.0
H1383 H 0.43657 0.98193 0.30395 0.0
H1384 H 0.41876 0.97231 0.43702 0.0
H1385 H 0.35686 0.90302 0.3911 0.0
H1386 H 0.32742 0.87295 0.35059 0.0
H1387 H 0.38475 0.86481 0.3054 0.0
H1388 H 0.41461 0.89504 0.34492 0.0
H1389 H 0.5304 0.97179 0.40436 0.0
H1390 H 0.49528 0.96085 0.44163 0.0
H1391 H 0.44862 0.94066 0.35323 0.0
H1392 H 0.4826 0.9505 0.3173 0.0
H1393 H 0.42832 0.90292 0.40018 0.0
H1394 H 0.46431 0.00556 0.42702 0.0
H1395 H 0.49461 0.038 0.46435 0.0
H1396 H 0.4905 0.98377 0.53397 0.0
H1397 H 0.46076 0.95101 0.49655 0.0
C1398 C 0.4059 -0.00525 0.36375 0.0
C1399 C 0.42272 -0.00095 0.33776 0.0
C1400 C 0.39532 0.97284 0.38154 0.0
C1401 C 0.4017 0.95505 0.37373 0.0
C1402 C 0.41396 0.95735 0.34293 0.0
C1403 C 0.42508 0.97957 0.32551 0.0
C1404 C 0.4056 0.94176 0.40204 0.0
C1405 C 0.42054 0.95691 0.42851 0.0
C1406 C 0.40584 0.91978 0.39572 0.0
C1407 C 0.38801 0.90115 0.37169 0.0
C1408 C 0.36324 0.89483 0.37258 0.0
C1409 C 0.34645 0.87775 0.34967 0.0
C1410 C 0.35418 0.86688 0.32556 0.0
C1411 C 0.37874 0.8731 0.32426 0.0
C1412 C 0.39561 0.89015 0.34709 0.0
C1413 C 0.5125 0.96531 0.39325 0.0
C1414 C 0.50872 0.96047 0.35831 0.0
C1415 C 0.49243 0.95892 0.41455 0.0
C1416 C 0.46878 0.94851 0.40063 0.0
C1417 C 0.46622 0.94766 0.36515 0.0
C1418 C 0.48589 0.95374 0.34428 0.0
C1419 C 0.44623 0.93904 0.42132 0.0
C1420 C 0.42583 0.91792 0.40831 0.0
C1421 C 0.44173 0.95627 0.4375 0.0
C1422 C 0.46042 0.97589 0.45903 0.0
C1423 C 0.47001 0.00058 0.45021 0.0
C1424 C 0.48714 0.01901 0.4713 0.0
C1425 C 0.49451 0.01296 0.50148 0.0
C1426 C 0.48497 0.98845 0.51046 0.0
C1427 C 0.46809 0.96994 0.48923 0.0
H1428 H 0.50757 0.0273 0.51788 0.0
H1429 H 0.34116 0.8537 0.30781 0.0
H1430 H 0.38741 0.40459 0.68474 0.0
H1431 H 0.4042 0.37722 0.68304 0.0
H1432 H 0.4768 0.43942 0.68935 0.0
H1433 H 0.46016 0.46703 0.68655 0.0
H1434 H 0.43289 0.39688 0.61804 0.0
H1435 H 0.50954 0.40304 0.71785 0.0
H1436 H 0.50855 0.38377 0.77201 0.0
H1437 H 0.43103 0.33673 0.76202 0.0
H1438 H 0.43145 0.35517 0.70702 0.0
H1439 H 0.53083 0.4995 0.59941 0.0
H1440 H 0.50798 0.45683 0.5835 0.0
H1441 H 0.51815 0.4373 0.6854 0.0
H1442 H 0.5402 0.4792 0.70026 0.0
H1443 H 0.50749 0.39938 0.66042 0.0
H1444 H 0.49541 0.40391 0.55587 0.0
H1445 H 0.49383 0.41405 0.49592 0.0
H1446 H 0.44423 0.43979 0.52055 0.0
H1447 H 0.44544 0.42991 0.58052 0.0
C1448 C 0.407 0.41241 0.68696 0.0
C1449 C 0.42266 0.43786 0.68408 0.0
C1450 C 0.4165 0.39662 0.68674 0.0
C1451 C 0.44176 0.40625 0.68485 0.0
C1452 C 0.45722 0.4316 0.68993 0.0
C1453 C 0.44779 0.44751 0.68815 0.0
C1454 C 0.45116 0.39402 0.66268 0.0
C1455 C 0.44957 0.39826 0.62808 0.0
C1456 C 0.47082 0.39094 0.67362 0.0
C1457 C 0.47058 0.38048 0.70758 0.0
C1458 C 0.49224 0.38841 0.72662 0.0
C1459 C 0.49179 0.3776 0.75769 0.0
C1460 C 0.46979 0.35888 0.7703 0.0
C1461 C 0.44811 0.35115 0.75209 0.0
C1462 C 0.44845 0.36184 0.72094 0.0
C1463 C 0.52726 0.48576 0.61851 0.0
C1464 C 0.53719 0.49267 0.65119 0.0
C1465 C 0.5143 0.461 0.60923 0.0
C1466 C 0.51051 0.44248 0.63269 0.0
C1467 C 0.52042 0.45008 0.66558 0.0
C1468 C 0.53282 0.47451 0.67485 0.0
C1469 C 0.49324 0.41565 0.62577 0.0
C1470 C 0.49121 0.39959 0.65205 0.0
C1471 C 0.47103 0.40934 0.60881 0.0
C1472 C 0.47022 0.41571 0.57279 0.0
C1473 C 0.48409 0.41166 0.54853 0.0
C1474 C 0.48325 0.41736 0.51451 0.0
C1475 C 0.46877 0.42733 0.50442 0.0
C1476 C 0.45521 0.43178 0.52835 0.0
C1477 C 0.45584 0.42597 0.56237 0.0
H1478 H 0.46823 0.4318 0.47809 0.0
H1479 H 0.46951 0.35048 0.79432 0.0
H1480 H 0.96894 0.42961 1.05345 0.0
H1481 H 0.00669 0.43664 1.07868 0.0
H1482 H 0.02875 0.42089 0.98229 0.0
H1483 H -0.00873 0.41489 0.95724 0.0
H1484 H 0.06904 0.44276 1.00173 0.0
H1485 H 0.06934 0.47123 0.14057 0.0
H1486 H 0.0596 0.44967 0.19484 0.0
H1487 H 0.01515 0.38131 0.14403 0.0
H1488 H 0.02406 0.40217 0.08933 0.0
H1489 H 0.03039 0.52014 0.96656 0.0
H1490 H 0.04304 0.49049 0.98212 0.0
H1491 H 0.06193 0.52195 1.08277 0.0
H1492 H 0.04492 0.54759 1.06908 0.0
H1493 H 0.05533 0.48499 0.09618 0.0
H1494 H 0.10739 0.52531 1.01419 0.0
H1495 H 0.1282 0.5492 0.96354 0.0
H1496 H 0.08833 0.48543 0.90128 0.0
H1497 H 0.06686 0.46121 0.95125 0.0
C1498 C 0.98217 0.42827 1.03754 0.0
C1499 C 0.9772 0.42229 1.00317 0.0
C1500 C 0.00387 0.43173 1.05216 0.0
C1501 C 0.02168 0.42976 1.0327 0.0
C1502 C 0.01613 0.42309 0.99837 0.0
C1503 C -0.00538 0.42004 0.98371 0.0
C1504 C 0.04745 0.43921 1.04588 0.0
C1505 C 0.06527 0.45243 1.02131 0.0
C1506 C 0.05269 0.45175 1.07708 0.0
C1507 C 0.04699 0.43865 0.11026 0.0
C1508 C 0.05714 0.45165 0.14064 0.0
C1509 C 0.05188 0.43946 0.17169 0.0
C1510 C 0.03659 0.41417 0.17294 0.0
C1511 C 0.0268 0.40096 0.14308 0.0
C1512 C 0.032 0.41301 0.11194 0.0
C1513 C 0.03629 0.51983 0.99227 0.0
C1514 C 0.03703 0.53633 1.01644 0.0
C1515 C 0.04463 0.50366 1.00095 0.0
C1516 C 0.05517 0.50485 1.0332 0.0
C1517 C 0.05449 0.52057 1.0576 0.0
C1518 C 0.04472 0.5354 1.04964 0.0
C1519 C 0.06405 0.48767 1.04245 0.0
C1520 C 0.05836 0.47633 1.07462 0.0
C1521 C 0.07212 0.47723 1.0173 0.0
C1522 C 0.08568 0.49127 0.98685 0.0
C1523 C 0.10308 0.5163 0.98975 0.0
C1524 C 0.11496 0.52995 0.96108 0.0
C1525 C 0.10967 0.51881 0.92924 0.0
C1526 C 0.09253 0.49399 0.92601 0.0
C1527 C 0.08057 0.48024 0.9546 0.0
H1528 H 0.1188 0.52943 0.90704 0.0
H1529 H 0.03239 0.4048 0.19702 0.0
H1530 H 0.02726 0.47226 0.43232 0.0
H1531 H 0.03979 0.51269 0.40991 0.0
H1532 H 0.0423 0.53896 0.51174 0.0
H1533 H 0.03147 0.4988 0.53419 0.0
H1534 H 0.08208 0.5714 0.47859 0.0
H1535 H 0.03471 0.55091 0.35478 0.0
H1536 H 0.00063 0.51892 0.32111 0.0
H1537 H 0.95787 0.49106 0.41127 0.0
H1538 H -0.00835 0.52302 0.4453 0.0
H1539 H -0.00293 0.54662 0.5386 0.0
H1540 H 0.03796 0.57328 0.51707 0.0
H1541 H 0.00895 0.60435 0.44535 0.0
H1542 H 0.96862 0.57868 0.46843 0.0
H1543 H 0.02395 0.5834 0.40872 0.0
H1544 H 0.08834 0.59247 0.5277 0.0
H1545 H 0.11558 0.62637 0.565 0.0
H1546 H 0.11041 0.67754 0.49856 0.0
H1547 H 0.08343 0.644 0.46019 0.0
C1548 C 0.02966 0.48656 0.44977 0.0
C1549 C 0.02821 0.48257 0.48494 0.0
C1550 C 0.03715 0.50973 0.43692 0.0
C1551 C 0.0423 0.52903 0.45902 0.0
C1552 C 0.03876 0.52445 0.49409 0.0
C1553 C 0.0318 0.50133 0.50703 0.0
C1554 C 0.05022 0.55385 0.44621 0.0
C1555 C 0.06889 0.57389 0.46397 0.0
C1556 C 0.03587 0.55835 0.42264 0.0
C1557 C 0.01584 0.53883 0.40255 0.0
C1558 C 0.0181 0.53779 0.36736 0.0
C1559 C -0.00116 0.51973 0.34824 0.0
C1560 C 0.97724 0.50276 0.36412 0.0
C1561 C 0.97473 0.50401 0.39908 0.0
C1562 C -0.00611 0.52207 0.41827 0.0
C1563 C -0.00044 0.55906 0.51811 0.0
C1564 C 0.97943 0.55875 0.50267 0.0
C1565 C 0.02305 0.5748 0.50605 0.0
C1566 C 0.02664 0.58997 0.47768 0.0
C1567 C 0.00682 0.59233 0.46626 0.0
C1568 C 0.98347 0.57673 0.47845 0.0
C1569 C 0.04669 0.59503 0.45344 0.0
C1570 C 0.03717 0.58115 0.42372 0.0
C1571 C 0.06764 0.59551 0.46708 0.0
C1572 C 0.08401 0.61556 0.4905 0.0
C1573 C 0.09326 0.6109 0.52045 0.0
C1574 C 0.1086 0.63011 0.54202 0.0
C1575 C 0.11482 0.6541 0.53409 0.0
C1576 C 0.10562 0.65894 0.50464 0.0
C1577 C 0.09026 0.63981 0.48299 0.0
H1578 H 0.1267 0.66894 0.55084 0.0
H1579 H 0.96235 0.48881 0.34929 0.0
H1580 H 0.39051 0.97326 0.79481 0.0
H1581 H 0.3995 0.01523 0.78911 0.0
H1582 H 0.44668 0.03462 0.87745 0.0
H1583 H 0.4362 -0.00758 0.88386 0.0
H1584 H 0.43113 0.051 0.76974 0.0
H1585 H 0.40275 0.06527 0.86045 0.0
H1586 H 0.38378 0.06431 0.91509 0.0
H1587 H 0.44953 0.07878 0.96735 0.0
H1588 H 0.46882 0.07931 0.9135 0.0
H1589 H 0.54622 0.06998 0.77588 0.0
H1590 H 0.52224 0.09008 0.77302 0.0
H1591 H 0.48924 0.05776 0.86883 0.0
H1592 H 0.51618 0.04057 0.87396 0.0
H1593 H 0.48621 0.09704 0.86425 0.0
H1594 H 0.46295 0.03182 0.75579 0.0
H1595 H 0.47804 0.02826 0.69984 0.0
H1596 H 0.50793 0.1053 0.68373 0.0
H1597 H 0.493 0.10928 0.73982 0.0
C1598 C 0.40332 0.98672 0.8124 0.0
C1599 C 0.41381 0.97994 0.83872 0.0
C1600 C 0.40799 0.01073 0.80968 0.0
C1601 C 0.42397 0.02881 0.83255 0.0
C1602 C 0.43409 0.02164 0.85926 0.0
C1603 C 0.42887 -0.0025 0.86243 0.0
C1604 C 0.43453 0.05529 0.82406 0.0
C1605 C 0.44305 0.06101 0.79076 0.0
C1606 C 0.44857 0.07283 0.84908 0.0
C1607 C 0.4375 0.07281 0.88235 0.0
C1608 C 0.41327 0.06828 0.88352 0.0
C1609 C 0.4024 0.06775 0.91449 0.0
C1610 C 0.41549 0.07163 0.94465 0.0
C1611 C 0.43948 0.076 0.94393 0.0
C1612 C 0.45047 0.07657 0.91305 0.0
C1613 C 0.53378 0.06711 0.7964 0.0
C1614 C 0.53285 0.05342 0.82506 0.0
C1615 C 0.51984 0.07859 0.79452 0.0
C1616 C 0.503 0.07502 0.81986 0.0
C1617 C 0.50192 0.06102 0.84854 0.0
C1618 C 0.51687 0.05054 0.85126 0.0
C1619 C 0.4838 0.08199 0.81458 0.0
C1620 C 0.47399 0.08659 0.84376 0.0
C1621 C 0.4683 0.07303 0.78565 0.0
C1622 C 0.47702 0.07085 0.75189 0.0
C1623 C 0.47267 0.04796 0.7402 0.0
C1624 C 0.48123 0.04589 0.70853 0.0
C1625 C 0.494 0.06656 0.68825 0.0
C1626 C 0.49809 0.08933 0.69952 0.0
C1627 C 0.48958 0.09152 0.73124 0.0
H1628 H 0.50074 0.06491 0.66383 0.0
H1629 H 0.40702 0.07116 0.9686 0.0
H1630 H 0.52343 0.55466 0.09761 0.0
H1631 H 0.4891 0.53435 1.05839 0.0
H1632 H 0.44125 0.50005 0.14373 0.0
H1633 H 0.47435 0.52527 0.18194 0.0
H1634 H 0.41461 0.50583 0.10412 0.0
H1635 H 0.45031 0.5028 0.98416 0.0
H1636 H 0.48573 0.51137 0.9489 0.0
H1637 H 0.51732 0.4916 1.0312 0.0
H1638 H 0.48151 0.48209 1.06651 0.0
H1639 H 0.41596 0.43275 0.1849 0.0
H1640 H 0.39601 0.44462 0.14233 0.0
H1641 H 0.44298 0.43989 1.06618 0.0
H1642 H 0.465 0.43272 0.10924 0.0
H1643 H 0.42317 0.44977 1.02697 0.0
H1644 H 0.37533 0.49506 0.09979 0.0
H1645 H 0.3334 0.47927 0.11888 0.0
H1646 H 0.32064 0.40586 0.1138 0.0
H1647 H 0.36261 0.42085 0.09503 0.0
C1648 C 0.50534 0.54323 0.10764 0.0
C1649 C 0.50117 0.54262 0.14253 0.0
C1650 C 0.48567 0.53112 0.08516 0.0
C1651 C 0.46201 0.51567 0.09747 0.0
C1652 C 0.4588 0.51265 0.13284 0.0
C1653 C 0.47797 0.52641 0.15502 0.0
C1654 C 0.44065 0.50063 1.07492 0.0
C1655 C 0.41711 0.49348 0.08776 0.0
C1656 C 0.44173 0.48598 1.04828 0.0
C1657 C 0.46367 0.49244 1.02812 0.0
C1658 C 0.46495 0.50052 0.99475 0.0
C1659 C 0.48505 0.50542 0.97473 0.0
C1660 C 0.50407 0.5025 0.98799 0.0
C1661 C 0.50271 0.49408 1.02106 0.0
C1662 C 0.48243 0.48874 1.04099 0.0
C1663 C 0.42262 0.43551 0.15917 0.0
C1664 C 0.44213 0.43181 0.15051 0.0
C1665 C 0.41054 0.44146 0.13422 0.0
C1666 C 0.41712 0.44311 0.09972 0.0
C1667 C 0.43688 0.43933 0.09182 0.0
C1668 C 0.44995 0.43532 0.11687 0.0
C1669 C 0.40672 0.45277 1.07298 0.0
C1670 C 0.42179 0.46223 1.04457 0.0
C1671 C 0.3987 0.46872 0.08486 0.0
C1672 C 0.37307 0.45941 0.09684 0.0
C1673 C 0.3641 0.47556 0.10336 0.0
C1674 C 0.34002 0.46667 0.11395 0.0
C1675 C 0.32443 0.44161 0.1179 0.0
C1676 C 0.33282 0.42533 0.11104 0.0
C1677 C 0.35685 0.43407 0.1004 0.0
H1678 H 0.30579 0.43478 0.12604 0.0
H1679 H 0.51981 0.5066 0.97266 0.0
H1680 H 0.34633 0.93608 0.71528 0.0
H1681 H 0.35528 0.9559 0.65903 0.0
H1682 H 0.42918 0.97025 0.66663 0.0
H1683 H 0.41991 0.94931 0.72177 0.0
H1684 H 0.42732 0.0138 0.63661 0.0
H1685 H 0.38992 0.92747 0.61124 0.0
H1686 H 0.35673 0.88454 0.61314 0.0
H1687 H 0.3072 0.9048 0.56797 0.0
H1688 H 0.34002 0.94792 0.56626 0.0
H1689 H 0.4677 0.05796 0.46358 0.0
H1690 H 0.45767 0.03834 0.5194 0.0
H1691 H 0.38163 -0.00039 0.49187 0.0
H1692 H 0.39181 0.01932 0.43569 0.0
H1693 H 0.3833 0.96886 0.53317 0.0
H1694 H 0.41499 0.0516 0.55504 0.0
H1695 H 0.44273 0.09614 0.55588 0.0
H1696 H 0.49588 0.08649 0.61191 0.0
H1697 H 0.46842 0.04188 0.61134 0.0
C1698 C 0.3646 0.94325 0.7054 0.0
C1699 C 0.38201 0.94019 0.72524 0.0
C1700 C 0.3699 0.95495 0.67218 0.0
C1701 C 0.39335 0.96552 0.65613 0.0
C1702 C 0.41084 0.96294 0.67637 0.0
C1703 C 0.40532 0.95052 0.70893 0.0
C1704 C 0.39945 0.97853 0.61921 0.0
C1705 C 0.41779 0.0035 0.61418 0.0
C1706 C 0.387 0.96684 0.58816 0.0
C1707 C 0.36736 0.94095 0.58892 0.0
C1708 C 0.3719 0.9228 0.60196 0.0
C1709 C 0.35317 0.89842 0.60296 0.0
C1710 C 0.32986 0.89195 0.59076 0.0
C1711 C 0.32526 0.90984 0.57745 0.0
C1712 C 0.34392 0.93425 0.57644 0.0
C1713 C 0.44864 0.04545 0.46892 0.0
C1714 C 0.43098 0.0413 0.44301 0.0
C1715 C 0.44266 0.03392 0.50209 0.0
C1716 C 0.41834 0.01686 0.51286 0.0
C1717 C 0.40066 0.01232 0.48666 0.0
C1718 C 0.40664 0.0241 0.4535 0.0
C1719 C 0.41169 0.00418 0.55015 0.0
C1720 C 0.39315 0.97927 0.55536 0.0
C1721 C 0.42332 0.01627 0.58162 0.0
C1722 C 0.43996 0.04318 0.58212 0.0
C1723 C 0.43274 0.05889 0.5671 0.0
C1724 C 0.44836 0.08421 0.5677 0.0
C1725 C 0.47116 0.09413 0.58367 0.0
C1726 C 0.47829 0.07876 0.59931 0.0
C1727 C 0.46272 0.05344 0.59878 0.0
H1728 H 0.48322 0.11373 0.58413 0.0
H1729 H 0.31538 0.87307 0.59155 0.0
H1730 H 0.39269 0.37093 1.07383 0.0
H1731 H 0.38098 0.37952 1.01902 0.0
H1732 H 0.45512 0.41069 0.98501 0.0
H1733 H 0.46657 0.40097 1.04 0.0
H1734 H 0.4368 0.39912 0.93044 0.0
H1735 H 0.34784 0.3705 0.97194 0.0
H1736 H 0.31803 0.3718 1.01099 0.0
H1737 H 0.36405 0.44947 1.02166 0.0
H1738 H 0.39414 0.44839 0.98297 0.0
H1739 H 0.37998 0.40213 0.76608 0.0
H1740 H 0.38957 0.39148 0.82199 0.0
H1741 H 0.39188 0.45513 0.86512 0.0
H1742 H 0.38287 0.4661 0.80903 0.0
H1743 H 0.37141 0.41981 0.91342 0.0
H1744 H 0.4434 0.44522 0.8481 0.0
H1745 H 0.46802 0.44389 0.8007 0.0
H1746 H 0.45027 0.37112 0.82891 0.0
H1747 H 0.42531 0.37194 0.87602 0.0
C1748 C 0.40681 0.37951 1.05492 0.0
C1749 C 0.43094 0.38454 1.06343 0.0
C1750 C 0.39996 0.38516 1.02231 0.0
C1751 C 0.41657 0.39675 0.99476 0.0
C1752 C 0.4408 0.40177 1.00353 0.0
C1753 C 0.44765 0.39602 1.03614 0.0
C1754 C 0.40937 0.40299 0.95774 0.0
C1755 C 0.42226 0.40345 0.92766 0.0
C1756 C 0.39032 0.40894 0.95029 0.0
C1757 C 0.37397 0.40913 0.97661 0.0
C1758 C 0.35186 0.38771 0.98347 0.0
C1759 C 0.33487 0.38841 1.00536 0.0
C1760 C 0.33938 0.41063 1.0194 0.0
C1761 C 0.36086 0.43217 1.0115 0.0
C1762 C 0.37802 0.43147 0.98996 0.0
C1763 C 0.38237 0.41408 0.7872 0.0
C1764 C 0.38012 0.43527 0.78106 0.0
C1765 C 0.3882 0.4079 0.82013 0.0
C1766 C 0.392 0.42214 0.85014 0.0
C1767 C 0.38933 0.4431 0.84406 0.0
C1768 C 0.38401 0.44955 0.811 0.0
C1769 C 0.39858 0.41554 0.88686 0.0
C1770 C 0.38585 0.41534 0.91657 0.0
C1771 C 0.41718 0.4091 0.89365 0.0
C1772 C 0.43238 0.40864 0.8655 0.0
C1773 C 0.44471 0.42893 0.84407 0.0
C1774 C 0.45871 0.42825 0.81721 0.0
C1775 C 0.46067 0.40741 0.81167 0.0
C1776 C 0.44872 0.38725 0.83308 0.0
C1777 C 0.43465 0.38783 0.8599 0.0
H1778 H 0.47149 0.40692 0.79084 0.0
H1779 H 0.32605 0.41121 1.03594 0.0
H1780 H 0.92824 0.41444 0.12369 0.0
H1781 H 0.94925 0.42439 0.17891 0.0
H1782 H 0.97246 0.37188 0.16073 0.0
H1783 H 0.95194 0.3624 0.10484 0.0
H1784 H 0.96682 0.36936 0.22627 0.0
H1785 H 0.00616 0.43825 0.15868 0.0
H1786 H 0.01688 0.47457 0.12441 0.0
H1787 H 0.00748 0.51048 0.21043 0.0
H1788 H -0.00577 0.47346 0.24466 0.0
H1789 H 0.00913 0.40073 0.40233 0.0
H1790 H -0.01081 0.39122 0.34665 0.0
H1791 H 0.04683 0.45913 0.30809 0.0
H1792 H 0.06621 0.46905 0.36454 0.0
H1793 H 0.01561 0.45436 0.26781 0.0
H1794 H 0.94853 0.35105 0.28771 0.0
H1795 H 0.9472 0.31575 0.31683 0.0
H1796 H 0.02563 0.35178 0.31687 0.0
H1797 H 0.02741 0.38717 0.28745 0.0
C1798 C 0.93773 0.40474 0.1309 0.0
C1799 C 0.93747 0.38715 0.10768 0.0
C1800 C 0.95026 0.41073 0.1635 0.0
C1801 C 0.96363 0.39953 0.17641 0.0
C1802 C 0.96301 0.38158 0.15344 0.0
C1803 C 0.95086 0.37593 0.12045 0.0
C1804 C 0.97792 0.40642 0.2126 0.0
C1805 C 0.977 0.38814 0.23496 0.0
C1806 C -0.00698 0.43091 0.22591 0.0
C1807 C -0.00112 0.45263 0.20445 0.0
C1808 C 0.00563 0.4535 0.1703 0.0
C1809 C 0.01208 0.47428 0.15071 0.0
C1810 C 0.01267 0.49478 0.16514 0.0
C1811 C 0.00657 0.49441 0.19911 0.0
C1812 C -0.00069 0.47339 0.21854 0.0
C1813 C 0.01806 0.41383 0.38225 0.0
C1814 C 0.04028 0.43586 0.39012 0.0
C1815 C 0.00636 0.40811 0.34901 0.0
C1816 C 0.01584 0.42364 0.31988 0.0
C1817 C 0.03797 0.44585 0.32797 0.0
C1818 C 0.04958 0.45167 0.36136 0.0
C1819 C 0.00292 0.4172 0.28249 0.0
C1820 C 0.00456 0.43558 0.25955 0.0
C1821 C -0.01096 0.39297 0.26806 0.0
C1822 C -0.01191 0.37185 0.28581 0.0
C1823 C 0.96548 0.35141 0.29392 0.0
C1824 C 0.96465 0.33139 0.31047 0.0
C1825 C -0.01368 0.33156 0.31882 0.0
C1826 C 0.00887 0.35171 0.31052 0.0
C1827 C 0.0098 0.37176 0.29394 0.0
H1828 H -0.01436 0.31606 0.33163 0.0
H1829 H 0.018 0.51099 0.15008 0.0
H1830 H 0.57412 0.06686 0.69889 0.0
H1831 H 0.56483 0.0465 0.64323 0.0
H1832 H 0.59077 -0.00105 0.6787 0.0
H1833 H 0.6 0.01934 0.7343 0.0
H1834 H 0.60119 0.00089 0.61639 0.0
H1835 H 0.52281 0.98333 0.65605 0.0
H1836 H 0.48913 -0.01049 0.67561 0.0
H1837 H 0.49682 0.0324 0.58715 0.0
H1838 H 0.53086 0.02699 0.56774 0.0
H1839 H 0.50338 0.92508 0.462 0.0
H1840 H 0.5133 0.94554 0.51763 0.0
H1841 H 0.58952 0.98299 0.49225 0.0
H1842 H 0.57954 0.9625 0.43686 0.0
H1843 H 0.5273 0.98404 0.55101 0.0
H1844 H 0.62929 0.01208 0.56089 0.0
H1845 H 0.65716 -0.00287 0.54361 0.0
H1846 H 0.59672 0.92375 0.53807 0.0
H1847 H 0.56856 0.93822 0.55568 0.0
C1848 C 0.57804 0.05213 0.69536 0.0
C1849 C 0.58828 0.04563 0.72326 0.0
C1850 C 0.57231 0.03987 0.66253 0.0
C1851 C 0.57632 0.01993 0.65423 0.0
C1852 C 0.58694 0.01377 0.68204 0.0
C1853 C 0.59239 0.02582 0.71495 0.0
C1854 C 0.56986 0.00598 0.61782 0.0
C1855 C 0.58501 -0.00229 0.60245 0.0
C1856 C 0.54852 4e-05 0.59744 0.0
C1857 C 0.52942 0.00487 0.61051 0.0
C1858 C 0.51752 -0.00561 0.64109 0.0
C1859 C 0.49834 -0.00227 0.65215 0.0
C1860 C 0.49078 0.01132 0.63269 0.0
C1861 C 0.50263 0.02191 0.60236 0.0
C1862 C 0.5219 0.01876 0.59133 0.0
C1863 C 0.52244 0.93741 0.46794 0.0
C1864 C 0.5403 0.94107 0.44292 0.0
C1865 C 0.52832 0.94963 0.50077 0.0
C1866 C 0.55268 0.96644 0.51215 0.0
C1867 C 0.57051 0.97012 0.48696 0.0
C1868 C 0.56461 0.95807 0.45405 0.0
C1869 C 0.55907 0.9799 0.54892 0.0
C1870 C 0.54376 0.98777 0.56458 0.0
C1871 C 0.58005 0.98512 0.56977 0.0
C1872 C 0.59681 0.97629 0.5592 0.0
C1873 C 0.62197 -0.00725 0.55603 0.0
C1874 C 0.63781 0.98436 0.54618 0.0
C1875 C 0.6287 0.95952 0.53962 0.0
C1876 C 0.60374 0.943 0.54302 0.0
C1877 C 0.58784 0.95129 0.5529 0.0
H1878 H 0.64099 0.95307 0.53199 0.0
H1879 H 0.47565 0.01346 0.64106 0.0
H1880 H 0.57559 0.60702 1.07144 0.0
H1881 H 0.58571 0.59731 1.01603 0.0
H1882 H 0.51227 0.57256 0.98163 0.0
H1883 H 0.50195 0.58143 1.03801 0.0
H1884 H 0.52145 0.54902 0.94154 0.0
H1885 H 0.58009 0.63312 0.95536 0.0
H1886 H 0.61323 0.67022 0.98234 0.0
H1887 H 0.65956 0.6382 0.98208 0.0
H1888 H 0.6266 0.60082 0.95538 0.0
H1889 H 0.60707 0.58549 0.7719 0.0
H1890 H 0.5977 0.59577 0.82811 0.0
H1891 H 0.55649 0.51939 0.85206 0.0
H1892 H 0.56614 0.5092 0.79625 0.0
H1893 H 0.60458 0.59618 0.89431 0.0
H1894 H 0.51781 0.50442 0.9123 0.0
H1895 H 0.4833 0.47333 0.87864 0.0
H1896 H 0.49201 0.52821 0.80673 0.0
H1897 H 0.52636 0.55965 0.84043 0.0
C1898 C 0.56134 0.59985 1.0523 0.0
C1899 C 0.53768 0.5959 1.06138 0.0
C1900 C 0.56739 0.59427 1.01915 0.0
C1901 C 0.55055 0.5845 0.99114 0.0
C1902 C 0.5267 0.58018 1.00048 0.0
C1903 C 0.52059 0.58561 1.03383 0.0
C1904 C 0.55739 0.57856 0.95373 0.0
C1905 C 0.53994 0.55933 0.93236 0.0
C1906 C 0.58105 0.59181 0.93762 0.0
C1907 C 0.60081 0.61411 0.95375 0.0
C1908 C 0.59731 0.63396 0.96124 0.0
C1909 C 0.61606 0.65504 0.97646 0.0
C1910 C 0.63845 0.65654 0.98402 0.0
C1911 C 0.64218 0.63699 0.97628 0.0
C1912 C 0.62348 0.61586 0.96109 0.0
C1913 C 0.596 0.57056 0.78881 0.0
C1914 C 0.58779 0.5461 0.77729 0.0
C1915 C 0.59048 0.57664 0.82207 0.0
C1916 C 0.57566 0.55886 0.84685 0.0
C1917 C 0.56746 0.53439 0.83523 0.0
C1918 C 0.57334 0.52834 0.80227 0.0
C1919 C 0.56899 0.5656 0.88361 0.0
C1920 C 0.58632 0.58526 0.90437 0.0
C1921 C 0.54517 0.55308 0.89892 0.0
C1922 C 0.52445 0.53432 0.879 0.0
C1923 C 0.51213 0.50986 0.88958 0.0
C1924 C 0.49266 0.49217 0.87039 0.0
C1925 C 0.48542 0.4988 0.84053 0.0
C1926 C 0.49762 0.52311 0.82985 0.0
C1927 C 0.51707 0.54086 0.84899 0.0
H1928 H 0.47041 0.48515 0.82557 0.0
H1929 H 0.65295 0.67287 0.9958 0.0
H1930 H 0.04784 0.56602 0.12918 0.0
H1931 H 0.02697 0.55651 0.1844 0.0
H1932 H 0.00799 0.61233 0.16796 0.0
H1933 H 0.02762 0.62089 0.11182 0.0
H1934 H 0.02569 0.6122 0.24187 0.0
H1935 H 0.96605 0.55724 0.16391 0.0
H1936 H 0.94712 0.52414 0.12175 0.0
H1937 H 0.94761 0.47331 0.19367 0.0
H1938 H 0.96718 0.50625 0.23607 0.0
H1939 H 0.95257 0.58692 0.39781 0.0
H1940 H 0.97236 0.59722 0.34233 0.0
H1941 H 0.94875 0.5214 0.32455 0.0
H1942 H 0.92807 0.51115 0.37939 0.0
H1943 H 0.95311 0.53226 0.2666 0.0
H1944 H 0.02132 0.58788 0.33845 0.0
H1945 H 0.04409 0.6215 0.37946 0.0
H1946 H 0.02808 0.669 0.32038 0.0
H1947 H 0.00566 0.63595 0.27872 0.0
C1948 C 0.03935 0.57656 0.13677 0.0
C1949 C 0.04038 0.59472 0.11384 0.0
C1950 C 0.02698 0.57089 0.1694 0.0
C1951 C 0.01511 0.58339 0.18294 0.0
C1952 C 0.0165 0.60183 0.16029 0.0
C1953 C 0.02811 0.60689 0.12713 0.0
C1954 C 0.00149 0.5773 0.21939 0.0
C1955 C 0.00969 0.59459 0.24659 0.0
C1956 C 0.98043 0.55433 0.22861 0.0
C1957 C 0.96874 0.53448 0.20302 0.0
C1958 C 0.96262 0.53915 0.17061 0.0
C1959 C 0.95163 0.52036 0.14668 0.0
C1960 C 0.94632 0.49667 0.15494 0.0
C1961 C 0.9518 0.49169 0.18725 0.0
C1962 C 0.96287 0.51045 0.21125 0.0
C1963 C 0.95134 0.57213 0.38244 0.0
C1964 C 0.93775 0.54776 0.39535 0.0
C1965 C 0.96351 0.57824 0.34961 0.0
C1966 C 0.96384 0.56069 0.3265 0.0
C1967 C 0.95 0.53633 0.33957 0.0
C1968 C 0.93771 0.53022 0.37219 0.0
C1969 C 0.9775 0.56702 0.28973 0.0
C1970 C 0.96926 0.54979 0.26225 0.0
C1971 C -0.0012 0.58987 0.28034 0.0
C1972 C 0.01158 0.6094 0.30577 0.0
C1973 C 0.02253 0.60546 0.33437 0.0
C1974 C 0.03539 0.62438 0.35766 0.0
C1975 C 0.03729 0.64721 0.3527 0.0
C1976 C 0.02651 0.65127 0.32427 0.0
C1977 C 0.01382 0.63251 0.30074 0.0
H1978 H 0.04722 0.6618 0.37079 0.0
H1979 H 0.93783 0.48215 0.13637 0.0
H1980 H 0.60705 0.20929 0.42197 0.0
H1981 H 0.61458 0.2268 0.47911 0.0
H1982 H 0.5368 0.19457 0.49382 0.0
H1983 H 0.52942 0.17853 0.43657 0.0
H1984 H 0.55769 0.2303 0.53526 0.0
H1985 H 0.56825 0.16112 0.50643 0.0
H1986 H 0.58667 0.14021 0.47573 0.0
H1987 H 0.65774 0.1931 0.51308 0.0
H1988 H 0.63969 0.21438 0.54386 0.0
H1989 H 0.53265 0.15258 0.68179 0.0
H1990 H 0.53663 0.17175 0.62631 0.0
H1991 H 0.60999 0.22757 0.65217 0.0
H1992 H 0.60594 0.20886 0.7078 0.0
H1993 H 0.60009 0.19188 0.59337 0.0
H1994 H 0.58069 0.25083 0.6378 0.0
H1995 H 0.55616 0.26433 0.67016 0.0
H1996 H 0.49454 0.22226 0.60482 0.0
H1997 H 0.51858 0.20819 0.57236 0.0
C1998 C 0.59172 0.20703 0.43692 0.0
C1999 C 0.56767 0.19228 0.42512 0.0
C2000 C 0.59598 0.21689 0.46962 0.0
C2001 C 0.5762 0.21115 0.49125 0.0
C2002 C 0.55239 0.19911 0.47784 0.0
C2003 C 0.54817 0.18989 0.44495 0.0
C2004 C 0.57946 0.2129 0.52861 0.0
C2005 C 0.56716 0.22211 0.54798 0.0
C2006 C 0.59182 0.20222 0.5454 0.0
C2007 C 0.60271 0.18949 0.52701 0.0
C2008 C 0.58782 0.16832 0.50794 0.0
C2009 C 0.59818 0.15641 0.49056 0.0
C2010 C 0.62338 0.16538 0.49233 0.0
C2011 C 0.63824 0.18622 0.51164 0.0
C2012 C 0.62797 0.19821 0.52907 0.0
C2013 C 0.5493 0.16935 0.67593 0.0
C2014 C 0.56898 0.17927 0.69891 0.0
C2015 C 0.55151 0.18035 0.64446 0.0
C2016 C 0.57354 0.20114 0.63546 0.0
C2017 C 0.59276 0.21175 0.65898 0.0
C2018 C 0.5904 0.20105 0.69066 0.0
C2019 C 0.5779 0.20874 0.59972 0.0
C2020 C 0.59148 0.20098 0.58071 0.0
C2021 C 0.56593 0.21984 0.58342 0.0
C2022 C 0.55142 0.22834 0.60276 0.0
C2023 C 0.56185 0.24428 0.6305 0.0
C2024 C 0.54804 0.25207 0.64883 0.0
C2025 C 0.5238 0.24412 0.63959 0.0
C2026 C 0.51332 0.2284 0.61195 0.0
C2027 C 0.52705 0.22055 0.59354 0.0
H2028 H 0.51314 0.25018 0.65381 0.0
H2029 H 0.63137 0.15615 0.47883 0.0
H2030 H 0.40784 0.61151 0.78642 0.0
H2031 H 0.40246 0.62727 0.83992 0.0
H2032 H 0.32783 0.56869 0.84426 0.0
H2033 H 0.33262 0.55324 0.78985 0.0
H2034 H 0.35765 0.63033 0.88534 0.0
H2035 H 0.33892 0.5372 0.89457 0.0
H2036 H 0.34501 0.50626 0.86445 0.0
H2037 H 0.41889 0.56078 0.8418 0.0
H2038 H 0.41319 0.59189 0.87204 0.0
H2039 H 0.3579 0.57582 1.06134 0.0
H2040 H 0.34321 0.58116 1.0062 0.0
H2041 H 0.41609 0.63769 0.98137 0.0
H2042 H 0.43096 0.63246 1.03585 0.0
H2043 H 0.37998 0.57701 0.95124 0.0
H2044 H 0.3994 0.66435 0.96535 0.0
H2045 H 0.39177 0.69471 0.99393 0.0
H2046 H 0.31522 0.65169 0.97044 0.0
H2047 H 0.32242 0.6209 0.94216 0.0
C2048 C 0.38983 0.60274 0.79759 0.0
C2049 C 0.37087 0.58064 0.78438 0.0
C2050 C 0.38675 0.61193 0.82819 0.0
C2051 C 0.36483 0.59901 0.84605 0.0
C2052 C 0.34484 0.57896 0.83068 0.0
C2053 C 0.34779 0.56991 0.79989 0.0
C2054 C 0.3658 0.60093 0.88324 0.0
C2055 C 0.36236 0.61864 0.8999 0.0
C2056 C 0.37172 0.58553 0.9021 0.0
C2057 C 0.37564 0.56673 0.88549 0.0
C2058 C 0.35649 0.54245 0.88339 0.0
C2059 C 0.35986 0.52494 0.86626 0.0
C2060 C 0.38233 0.53155 0.85125 0.0
C2061 C 0.40152 0.55566 0.85349 0.0
C2062 C 0.39825 0.57322 0.87067 0.0
C2063 C 0.3706 0.59004 1.04463 0.0
C2064 C 0.39566 0.60344 1.05275 0.0
C2065 C 0.36211 0.59326 1.01335 0.0
C2066 C 0.37852 0.61006 0.99001 0.0
C2067 C 0.40302 0.62515 0.99945 0.0
C2068 C 0.41151 0.622 1.03065 0.0
C2069 C 0.37231 0.60674 0.9537 0.0
C2070 C 0.37482 0.58852 0.93701 0.0
C2071 C 0.36559 0.62172 0.93521 0.0
C2072 C 0.36139 0.64019 0.95216 0.0
C2073 C 0.38091 0.66122 0.9667 0.0
C2074 C 0.37668 0.67855 0.98272 0.0
C2075 C 0.35301 0.67508 0.98413 0.0
C2076 C 0.33353 0.65432 0.96942 0.0
C2077 C 0.33768 0.63694 0.95339 0.0
H2078 H 0.34977 0.68852 0.99652 0.0
H2079 H 0.38486 0.51799 0.83783 0.0
H2080 H 0.77495 0.35651 0.12156 0.0
H2081 H 0.75997 0.35367 0.17924 0.0
H2082 H 0.80089 0.43223 0.1882 0.0
H2083 H 0.81677 0.43521 0.13147 0.0
H2084 H 0.81551 0.41103 0.23304 0.0
H2085 H 0.73956 0.40197 0.19641 0.0
H2086 H 0.70104 0.38493 0.16387 0.0
H2087 H 0.67625 0.31483 0.20988 0.0
H2088 H 0.71481 0.33135 0.24236 0.0
H2089 H 0.76906 0.41381 0.40024 0.0
H2090 H 0.75473 0.40317 0.34186 0.0
H2091 H 0.79158 0.36126 0.334 0.0
H2092 H 0.80735 0.37303 0.3911 0.0
H2093 H 0.73485 0.36528 0.28918 0.0
H2094 H 0.83466 0.38957 0.27712 0.0
H2095 H 0.8728 0.40898 0.31089 0.0
H2096 H 0.84942 0.45433 0.36078 0.0
H2097 H 0.81137 0.43549 0.32688 0.0
C2098 C 0.78034 0.37322 0.13556 0.0
C2099 C 0.79753 0.39605 0.12212 0.0
C2100 C 0.77151 0.37157 0.1684 0.0
C2101 C 0.77953 0.39273 0.18812 0.0
C2102 C 0.79456 0.41566 0.17342 0.0
C2103 C 0.80352 0.41733 0.14078 0.0
C2104 C 0.77643 0.39088 0.22533 0.0
C2105 C 0.79779 0.40114 0.24513 0.0
C2106 C 0.75337 0.37794 0.24123 0.0
C2107 C 0.73021 0.36785 0.22159 0.0
C2108 C 0.72602 0.38285 0.19935 0.0
C2109 C 0.70414 0.3733 0.18097 0.0
C2110 C 0.68624 0.34879 0.18474 0.0
C2111 C 0.69015 0.3338 0.20695 0.0
C2112 C 0.71201 0.34326 0.22539 0.0
C2113 C 0.77355 0.40173 0.38645 0.0
C2114 C 0.7904 0.39534 0.39987 0.0
C2115 C 0.76498 0.39535 0.35321 0.0
C2116 C 0.7728 0.38212 0.33341 0.0
C2117 C 0.78568 0.37183 0.34886 0.0
C2118 C 0.79468 0.3786 0.38176 0.0
C2119 C 0.7739 0.38509 0.29622 0.0
C2120 C 0.75239 0.37512 0.27668 0.0
C2121 C 0.79682 0.39876 0.28025 0.0
C2122 C 0.82011 0.41097 0.29971 0.0
C2123 C 0.83777 0.40381 0.29513 0.0
C2124 C 0.85934 0.41469 0.31432 0.0
C2125 C 0.8635 0.43282 0.33804 0.0
C2126 C 0.84616 0.44025 0.34246 0.0
C2127 C 0.8246 0.42949 0.32325 0.0
H2128 H 0.88017 0.44116 0.35296 0.0
H2129 H 0.66931 0.34144 0.1705 0.0
H2130 H 0.44353 0.81129 0.4825 0.0
H2131 H 0.4304 0.79059 0.53639 0.0
H2132 H 0.355 0.76345 0.50801 0.0
H2133 H 0.36816 0.78428 0.45338 0.0
H2134 H 0.36493 0.78709 0.56537 0.0
H2135 H 0.37624 0.72305 0.52589 0.0
H2136 H 0.3962 0.70342 0.49597 0.0
H2137 H 0.45767 0.73775 0.56384 0.0
H2138 H 0.43829 0.75792 0.59388 0.0
H2139 H 0.35312 0.76725 0.73862 0.0
H2140 H 0.34773 0.74851 0.68276 0.0
H2141 H 0.42519 0.79196 0.66531 0.0
H2142 H 0.43068 0.81158 0.71993 0.0
H2143 H 0.40105 0.74488 0.62964 0.0
H2144 H 0.39545 0.8193 0.65 0.0
H2145 H 0.37762 0.84117 0.67965 0.0
H2146 H 0.3059 0.78721 0.64585 0.0
H2147 H 0.32334 0.76477 0.61652 0.0
C2148 C 0.4241 0.80019 0.48704 0.0
C2149 C 0.4069 0.79951 0.4636 0.0
C2150 C 0.41658 0.78825 0.51799 0.0
C2151 C 0.39167 0.77519 0.5262 0.0
C2152 C 0.37432 0.77334 0.50215 0.0
C2153 C 0.38186 0.78536 0.47106 0.0
C2154 C 0.38452 0.7672 0.56166 0.0
C2155 C 0.37199 0.77697 0.57911 0.0
C2156 C 0.39403 0.75433 0.57982 0.0
C2157 C 0.40576 0.74203 0.56216 0.0
C2158 C 0.39407 0.72652 0.53437 0.0
C2159 C 0.40528 0.71529 0.51737 0.0
C2160 C 0.42819 0.71934 0.528 0.0
C2161 C 0.4399 0.7346 0.55568 0.0
C2162 C 0.42877 0.74589 0.57276 0.0
C2163 C 0.36913 0.77237 0.7233 0.0
C2164 C 0.39221 0.79159 0.73339 0.0
C2165 C 0.36601 0.76139 0.69154 0.0
C2166 C 0.38601 0.76921 0.66979 0.0
C2167 C 0.40953 0.78568 0.6818 0.0
C2168 C 0.41262 0.79692 0.71326 0.0
C2169 C 0.38222 0.7654 0.63285 0.0
C2170 C 0.3929 0.75375 0.61537 0.0
C2171 C 0.37106 0.77656 0.61446 0.0
C2172 C 0.36062 0.79022 0.6315 0.0
C2173 C 0.37586 0.81203 0.64911 0.0
C2174 C 0.36584 0.82453 0.66583 0.0
C2175 C 0.34063 0.81555 0.66471 0.0
C2176 C 0.32541 0.7941 0.64677 0.0
C2177 C 0.33534 0.78147 0.63013 0.0
H2178 H 0.3329 0.82525 0.67766 0.0
H2179 H 0.43685 0.71064 0.51479 0.0
H2180 H 0.63379 0.43598 0.79078 0.0
H2181 H 0.63447 0.42005 0.84603 0.0
H2182 H 0.58731 0.34651 0.80985 0.0
H2183 H 0.58639 0.36259 0.75379 0.0
H2184 H 0.56581 0.35562 0.85697 0.0
H2185 H 0.64324 0.36302 0.85262 0.0
H2186 H 0.68692 0.38059 0.83922 0.0
H2187 H 0.70467 0.44172 0.90449 0.0
H2188 H 0.6611 0.42477 0.91791 0.0
H2189 H 0.58039 0.36434 1.05266 0.0
H2190 H 0.59338 0.35529 0.99848 0.0
H2191 H 0.57386 0.40372 0.94739 0.0
H2192 H 0.56095 0.4128 1.00095 0.0
H2193 H 0.62879 0.38904 0.94783 0.0
H2194 H 0.53918 0.37171 0.88052 0.0
H2195 H 0.49546 0.3537 0.89405 0.0
H2196 H 0.50248 0.30945 0.97109 0.0
H2197 H 0.54615 0.32688 0.95764 0.0
C2198 C 0.62456 0.41632 0.79383 0.0
C2199 C 0.60962 0.4006 0.76794 0.0
C2200 C 0.62502 0.40714 0.82574 0.0
C2201 C 0.6108 0.38202 0.83238 0.0
C2202 C 0.5983 0.36599 0.80542 0.0
C2203 C 0.59772 0.3752 0.77341 0.0
C2204 C 0.6045 0.37392 0.86803 0.0
C2205 C 0.57966 0.36238 0.87675 0.0
C2206 C 0.62243 0.38217 0.89408 0.0
C2207 C 0.6488 0.39253 0.88633 0.0
C2208 C 0.65642 0.38027 0.86402 0.0
C2209 C 0.68119 0.39012 0.85642 0.0
C2210 C 0.69856 0.41224 0.87101 0.0
C2211 C 0.6912 0.42455 0.89327 0.0
C2212 C 0.66646 0.41478 0.90096 0.0
C2213 C 0.57904 0.37312 1.02982 0.0
C2214 C 0.56973 0.38932 1.03095 0.0
C2215 C 0.58653 0.36801 0.99905 0.0
C2216 C 0.58435 0.3787 0.96907 0.0
C2217 C 0.57553 0.39521 0.97032 0.0
C2218 C 0.56833 0.4005 1.00094 0.0
C2219 C 0.5905 0.37251 0.93585 0.0
C2220 C 0.61513 0.3814 0.92786 0.0
C2221 C 0.57243 0.36159 0.91036 0.0
C2222 C 0.546 0.35068 0.91811 0.0
C2223 C 0.53137 0.358 0.90016 0.0
C2224 C 0.50659 0.34792 0.90786 0.0
C2225 C 0.4962 0.33047 0.93344 0.0
C2226 C 0.51056 0.32301 0.95133 0.0
C2227 C 0.53533 0.333 0.9437 0.0
H2228 H 0.47703 0.32271 0.93939 0.0
H2229 H 0.71772 0.41985 0.86508 0.0
H2230 H 0.1866 0.61718 0.38004 0.0
H2231 H 0.21231 0.63601 0.33045 0.0
H2232 H 0.18896 0.56443 0.28864 0.0
H2233 H 0.16419 0.54557 0.33853 0.0
H2234 H 0.23663 0.59516 0.27508 0.0
H2235 H 0.15948 0.59644 0.26842 0.0
H2236 H 0.12989 0.60824 0.28906 0.0
H2237 H 0.18519 0.684 0.28542 0.0
H2238 H 0.21518 0.67258 0.26507 0.0
H2239 H 0.19405 0.57497 0.11324 0.0
H2240 H 0.21132 0.58132 0.1693 0.0
H2241 H 0.24341 0.65932 0.15773 0.0
H2242 H 0.22677 0.65318 0.10025 0.0
H2243 H 0.20865 0.64179 0.20458 0.0
H2244 H 0.27927 0.63635 0.18737 0.0
H2245 H 0.30565 0.62163 0.16339 0.0
H2246 H 0.26083 0.55123 0.20834 0.0
H2247 H 0.23393 0.56533 0.23217 0.0
C2248 C 0.18727 0.60548 0.36052 0.0
C2249 C 0.173 0.57988 0.36292 0.0
C2250 C 0.20196 0.61626 0.33222 0.0
C2251 C 0.20242 0.60162 0.30577 0.0
C2252 C 0.18896 0.5761 0.30879 0.0
C2253 C 0.17443 0.56534 0.33705 0.0
C2254 C 0.21449 0.61239 0.2732 0.0
C2255 C 0.23076 0.60553 0.25959 0.0
C2256 C 0.20759 0.62679 0.25362 0.0
C2257 C 0.18961 0.63367 0.26571 0.0
C2258 C 0.16534 0.6156 0.27225 0.0
C2259 C 0.14851 0.62221 0.28386 0.0
C2260 C 0.15568 0.64685 0.28868 0.0
C2261 C 0.17969 0.66493 0.28178 0.0
C2262 C 0.19661 0.6584 0.27021 0.0
C2263 C 0.20592 0.59362 0.12147 0.0
C2264 C 0.20826 0.61354 0.1024 0.0
C2265 C 0.2159 0.59724 0.15391 0.0
C2266 C 0.22838 0.6208 0.16801 0.0
C2267 C 0.23365 0.64096 0.14743 0.0
C2268 C 0.22389 0.63737 0.11467 0.0
C2269 C 0.2296 0.62316 0.20539 0.0
C2270 C 0.2157 0.63248 0.22023 0.0
C2271 C 0.2384 0.61069 0.22577 0.0
C2272 C 0.25456 0.60198 0.21166 0.0
C2273 C 0.27494 0.61769 0.19203 0.0
C2274 C 0.29001 0.60945 0.17846 0.0
C2275 C 0.28494 0.58552 0.18436 0.0
C2276 C 0.26478 0.56978 0.20386 0.0
C2277 C 0.24964 0.57792 0.2175 0.0
H2278 H 0.29662 0.57917 0.17381 0.0
H2279 H 0.14263 0.65194 0.29766 0.0
loop_
_geom_bond_atom_site_label_1
_geom_bond_atom_site_label_2
_geom_bond_distance
_geom_bond_site_symmetry_2
_ccdc_geom_bond_type
Nd0 C2 2.836 . S
Nd0 O20 2.500 . S
Nd0 O21 2.492 . S
Nd0 O22 2.487 . S
Nd0 O23 2.682 . S
Nd0 O24 2.410 . S
Nd0 O29 2.414 . S
Nd0 O31 2.424 . S
Nd1 C11 2.836 . S
Nd1 O23 2.414 . S
Nd1 O25 2.424 . S
Nd1 O26 2.500 . S
Nd1 O27 2.492 . S
Nd1 O28 2.487 . S
Nd1 O29 2.682 . S
Nd1 O30 2.410 . S
C2 Nd0 2.836 . S
C2 C3 1.498 . S
C2 O20 1.258 . S
C2 O21 1.239 . S
C3 C2 1.498 . S
C3 C4 1.366 . S
C3 C8 1.407 . S
C4 C3 1.366 . S
C4 C5 1.392 . S
C4 H32 0.930 . S
C5 C4 1.392 . S
C5 C6 1.398 . S
C5 H33 0.929 . S
C6 C5 1.398 . S
C6 C7 1.352 . S
C7 C6 1.352 . S
C7 C8 1.384 . S
C7 H34 0.930 . S
C8 C3 1.407 . S
C8 C7 1.384 . S
C8 H35 0.929 . S
C9 O22 1.241 . S
C9 O23 1.273 . S
C10 O24 1.251 . S
C10 O25 1.268 . S
C11 Nd1 2.836 . S
C11 C12 1.498 . S
C11 O26 1.258 . S
C11 O27 1.239 . S
C12 C11 1.498 . S
C12 C13 1.366 . S
C12 C17 1.407 . S
C13 C12 1.366 . S
C13 C14 1.392 . S
C13 H36 0.930 . S
C14 C13 1.392 . S
C14 C15 1.398 . S
C14 H37 0.929 . S
C15 C14 1.398 . S
C15 C16 1.352 . S
C16 C15 1.352 . S
C16 C17 1.384 . S
C16 H38 0.930 . S
C17 C12 1.407 . S
C17 C16 1.384 . S
C17 H39 0.929 . S
C18 O28 1.241 . S
C18 O29 1.273 . S
C19 O30 1.251 . S
C19 O31 1.268 . S
O20 Nd0 2.500 . S
O20 C2 1.258 . S
O21 Nd0 2.492 . S
O21 C2 1.239 . S
O22 Nd0 2.487 . S
O22 C9 1.241 . S
O23 Nd0 2.682 . S
O23 Nd1 2.414 . S
O23 C9 1.273 . S
O24 Nd0 2.410 . S
O24 C10 1.251 . S
O25 Nd1 2.424 . S
O25 C10 1.268 . S
O26 Nd1 2.500 . S
O26 C11 1.258 . S
O27 Nd1 2.492 . S
O27 C11 1.239 . S
O28 Nd1 2.487 . S
O28 C18 1.241 . S
O29 Nd0 2.414 . S
O29 Nd1 2.682 . S
O29 C18 1.273 . S
O30 Nd1 2.410 . S
O30 C19 1.251 . S
O31 Nd0 2.424 . S
O31 C19 1.268 . S
H32 C4 0.930 . S
H33 C5 0.929 . S
H34 C7 0.930 . S
H35 C8 0.929 . S
H36 C13 0.930 . S
H37 C14 0.929 . S
H38 C16 0.930 . S
H39 C17 0.929 . S
Nd40 C42 2.836 . S
Nd40 O60 2.500 . S
Nd40 O61 2.492 . S
Nd40 O62 2.487 . S
Nd40 O63 2.682 . S
Nd40 O64 2.410 . S
Nd40 O69 2.414 . S
Nd40 O71 2.424 . S
Nd41 C51 2.836 . S
Nd41 O63 2.414 . S
Nd41 O65 2.424 . S
Nd41 O66 2.500 . S
Nd41 O67 2.492 . S
Nd41 O68 2.487 . S
Nd41 O69 2.682 . S
Nd41 O70 2.410 . S
C42 Nd40 2.836 . S
C42 C43 1.498 . S
C42 O60 1.258 . S
C42 O61 1.239 . S
C43 C42 1.498 . S
C43 C44 1.366 . S
C43 C48 1.407 . S
C44 C43 1.366 . S
C44 C45 1.392 . S
C44 H72 0.930 . S
C45 C44 1.392 . S
C45 C46 1.398 . S
C45 H73 0.929 . S
C46 C45 1.398 . S
C46 C47 1.352 . S
C47 C46 1.352 . S
C47 C48 1.384 . S
C47 H74 0.930 . S
C48 C43 1.407 . S
C48 C47 1.384 . S
C48 H75 0.929 . S
C49 O62 1.241 . S
C49 O63 1.273 . S
C50 O64 1.251 . S
C50 O65 1.268 . S
C51 Nd41 2.836 . S
C51 C52 1.498 . S
C51 O66 1.258 . S
C51 O67 1.239 . S
C52 C51 1.498 . S
C52 C53 1.366 . S
C52 C57 1.407 . S
C53 C52 1.366 . S
C53 C54 1.392 . S
C53 H76 0.930 . S
C54 C53 1.392 . S
C54 C55 1.398 . S
C54 H77 0.929 . S
C55 C54 1.398 . S
C55 C56 1.352 . S
C56 C55 1.352 . S
C56 C57 1.384 . S
C56 H78 0.930 . S
C57 C52 1.407 . S
C57 C56 1.384 . S
C57 H79 0.929 . S
C58 O68 1.241 . S
C58 O69 1.273 . S
C59 O70 1.251 . S
C59 O71 1.268 . S
O60 Nd40 2.500 . S
O60 C42 1.258 . S
O61 Nd40 2.492 . S
O61 C42 1.239 . S
O62 Nd40 2.487 . S
O62 C49 1.241 . S
O63 Nd40 2.682 . S
O63 Nd41 2.414 . S
O63 C49 1.273 . S
O64 Nd40 2.410 . S
O64 C50 1.251 . S
O65 Nd41 2.424 . S
O65 C50 1.268 . S
O66 Nd41 2.500 . S
O66 C51 1.258 . S
O67 Nd41 2.492 . S
O67 C51 1.239 . S
O68 Nd41 2.487 . S
O68 C58 1.241 . S
O69 Nd40 2.414 . S
O69 Nd41 2.682 . S
O69 C58 1.273 . S
O70 Nd41 2.410 . S
O70 C59 1.251 . S
O71 Nd40 2.424 . S
O71 C59 1.268 . S
H72 C44 0.930 . S
H73 C45 0.929 . S
H74 C47 0.930 . S
H75 C48 0.929 . S
H76 C53 0.930 . S
H77 C54 0.929 . S
H78 C56 0.930 . S
H79 C57 0.929 . S
Nd80 C82 2.836 . S
Nd80 O100 2.500 . S
Nd80 O101 2.492 . S
Nd80 O102 2.487 . S
Nd80 O103 2.682 . S
Nd80 O104 2.410 . S
Nd80 O109 2.414 . S
Nd80 O111 2.424 . S
Nd81 C91 2.836 . S
Nd81 O103 2.414 . S
Nd81 O105 2.424 . S
Nd81 O106 2.500 . S
Nd81 O107 2.492 . S
Nd81 O108 2.487 . S
Nd81 O109 2.682 . S
Nd81 O110 2.410 . S
C82 Nd80 2.836 . S
C82 C83 1.498 1_556 S
C82 O100 1.258 . S
C82 O101 1.239 . S
C83 C82 1.498 1_554 S
C83 C84 1.366 . S
C83 C88 1.407 . S
C84 C83 1.366 . S
C84 C85 1.392 . S
C84 H112 0.930 . S
C85 C84 1.392 . S
C85 C86 1.398 . S
C85 H113 0.929 . S
C86 C85 1.398 . S
C86 C87 1.352 . S
C87 C86 1.352 . S
C87 C88 1.384 . S
C87 H114 0.930 . S
C88 C83 1.407 . S
C88 C87 1.384 . S
C88 H115 0.929 . S
C89 O102 1.241 . S
C89 O103 1.273 . S
C90 O104 1.251 . S
C90 O105 1.268 . S
C91 Nd81 2.836 . S
C91 C92 1.498 . S
C91 O106 1.258 . S
C91 O107 1.239 . S
C92 C91 1.498 . S
C92 C93 1.366 . S
C92 C97 1.407 . S
C93 C92 1.366 . S
C93 C94 1.392 . S
C93 H116 0.930 . S
C94 C93 1.392 . S
C94 C95 1.398 . S
C94 H117 0.929 . S
C95 C94 1.398 . S
C95 C96 1.352 . S
C96 C95 1.352 . S
C96 C97 1.384 . S
C96 H118 0.930 . S
C97 C92 1.407 . S
C97 C96 1.384 . S
C97 H119 0.929 . S
C98 O108 1.241 . S
C98 O109 1.273 . S
C99 O110 1.251 . S
C99 O111 1.268 . S
O100 Nd80 2.500 . S
O100 C82 1.258 . S
O101 Nd80 2.492 . S
O101 C82 1.239 . S
O102 Nd80 2.487 . S
O102 C89 1.241 . S
O103 Nd80 2.682 . S
O103 Nd81 2.414 . S
O103 C89 1.273 . S
O104 Nd80 2.410 . S
O104 C90 1.251 . S
O105 Nd81 2.424 . S
O105 C90 1.268 . S
O106 Nd81 2.500 . S
O106 C91 1.258 . S
O107 Nd81 2.492 . S
O107 C91 1.239 . S
O108 Nd81 2.487 . S
O108 C98 1.241 . S
O109 Nd80 2.414 . S
O109 Nd81 2.682 . S
O109 C98 1.273 . S
O110 Nd81 2.410 . S
O110 C99 1.251 . S
O111 Nd80 2.424 . S
O111 C99 1.268 . S
H112 C84 0.930 . S
H113 C85 0.929 . S
H114 C87 0.930 . S
H115 C88 0.929 . S
H116 C93 0.930 . S
H117 C94 0.929 . S
H118 C96 0.930 . S
H119 C97 0.929 . S
Nd120 C122 2.836 . S
Nd120 O140 2.500 . S
Nd120 O141 2.492 . S
Nd120 O142 2.487 . S
Nd120 O143 2.682 . S
Nd120 O144 2.410 . S
Nd120 O149 2.414 . S
Nd120 O151 2.424 . S
Nd121 C131 2.836 . S
Nd121 O143 2.414 . S
Nd121 O145 2.424 . S
Nd121 O146 2.500 . S
Nd121 O147 2.492 . S
Nd121 O148 2.487 . S
Nd121 O149 2.682 . S
Nd121 O150 2.410 . S
C122 Nd120 2.836 . S
C122 C123 1.498 . S
C122 O140 1.258 . S
C122 O141 1.239 . S
C123 C122 1.498 . S
C123 C124 1.366 . S
C123 C128 1.407 . S
C124 C123 1.366 . S
C124 C125 1.392 . S
C124 H152 0.930 . S
C125 C124 1.392 . S
C125 C126 1.398 . S
C125 H153 0.929 . S
C126 C125 1.398 . S
C126 C127 1.352 . S
C127 C126 1.352 . S
C127 C128 1.384 . S
C127 H154 0.930 . S
C128 C123 1.407 . S
C128 C127 1.384 . S
C128 H155 0.929 . S
C129 O142 1.241 . S
C129 O143 1.273 . S
C130 O144 1.251 . S
C130 O145 1.268 . S
C131 Nd121 2.836 . S
C131 C132 1.498 . S
C131 O146 1.258 . S
C131 O147 1.239 . S
C132 C131 1.498 . S
C132 C133 1.366 . S
C132 C137 1.407 . S
C133 C132 1.366 . S
C133 C134 1.392 . S
C133 H156 0.930 . S
C134 C133 1.392 . S
C134 C135 1.398 . S
C134 H157 0.929 . S
C135 C134 1.398 . S
C135 C136 1.352 . S
C136 C135 1.352 . S
C136 C137 1.384 . S
C136 H158 0.930 . S
C137 C132 1.407 . S
C137 C136 1.384 . S
C137 H159 0.929 . S
C138 O148 1.241 . S
C138 O149 1.273 . S
C139 O150 1.251 . S
C139 O151 1.268 . S
O140 Nd120 2.500 . S
O140 C122 1.258 . S
O141 Nd120 2.492 . S
O141 C122 1.239 . S
O142 Nd120 2.487 . S
O142 C129 1.241 . S
O143 Nd120 2.682 . S
O143 Nd121 2.414 . S
O143 C129 1.273 . S
O144 Nd120 2.410 . S
O144 C130 1.251 . S
O145 Nd121 2.424 . S
O145 C130 1.268 . S
O146 Nd121 2.500 . S
O146 C131 1.258 . S
O147 Nd121 2.492 . S
O147 C131 1.239 . S
O148 Nd121 2.487 . S
O148 C138 1.241 . S
O149 Nd120 2.414 . S
O149 Nd121 2.682 . S
O149 C138 1.273 . S
O150 Nd121 2.410 . S
O150 C139 1.251 . S
O151 Nd120 2.424 . S
O151 C139 1.268 . S
H152 C124 0.930 . S
H153 C125 0.929 . S
H154 C127 0.930 . S
H155 C128 0.929 . S
H156 C133 0.930 . S
H157 C134 0.929 . S
H158 C136 0.930 . S
H159 C137 0.929 . S
Nd160 C162 2.836 . S
Nd160 O180 2.500 . S
Nd160 O181 2.492 . S
Nd160 O182 2.487 . S
Nd160 O183 2.682 . S
Nd160 O184 2.410 . S
Nd160 O189 2.414 . S
Nd160 O191 2.424 . S
Nd161 C171 2.836 . S
Nd161 O183 2.414 . S
Nd161 O185 2.424 . S
Nd161 O186 2.500 . S
Nd161 O187 2.492 . S
Nd161 O188 2.487 . S
Nd161 O189 2.682 . S
Nd161 O190 2.410 . S
C162 Nd160 2.836 . S
C162 C163 1.498 . S
C162 O180 1.258 . S
C162 O181 1.239 . S
C163 C162 1.498 . S
C163 C164 1.366 . S
C163 C168 1.407 . S
C164 C163 1.366 . S
C164 C165 1.392 . S
C164 H192 0.930 . S
C165 C164 1.392 . S
C165 C166 1.398 . S
C165 H193 0.929 . S
C166 C165 1.398 . S
C166 C167 1.352 . S
C167 C166 1.352 . S
C167 C168 1.384 . S
C167 H194 0.930 . S
C168 C163 1.407 . S
C168 C167 1.384 . S
C168 H195 0.929 . S
C169 O182 1.241 . S
C169 O183 1.273 . S
C170 O184 1.251 . S
C170 O185 1.268 . S
C171 Nd161 2.836 . S
C171 C172 1.498 . S
C171 O186 1.258 . S
C171 O187 1.239 . S
C172 C171 1.498 . S
C172 C173 1.366 . S
C172 C177 1.407 . S
C173 C172 1.366 . S
C173 C174 1.392 . S
C173 H196 0.930 . S
C174 C173 1.392 . S
C174 C175 1.398 . S
C174 H197 0.929 . S
C175 C174 1.398 . S
C175 C176 1.352 . S
C176 C175 1.352 . S
C176 C177 1.384 . S
C176 H198 0.930 . S
C177 C172 1.407 . S
C177 C176 1.384 . S
C177 H199 0.929 . S
C178 O188 1.241 . S
C178 O189 1.273 . S
C179 O190 1.251 . S
C179 O191 1.268 . S
O180 Nd160 2.500 . S
O180 C162 1.258 . S
O181 Nd160 2.492 . S
O181 C162 1.239 . S
O182 Nd160 2.487 . S
O182 C169 1.241 . S
O183 Nd160 2.682 . S
O183 Nd161 2.414 . S
O183 C169 1.273 . S
O184 Nd160 2.410 . S
O184 C170 1.251 . S
O185 Nd161 2.424 . S
O185 C170 1.268 . S
O186 Nd161 2.500 . S
O186 C171 1.258 . S
O187 Nd161 2.492 . S
O187 C171 1.239 . S
O188 Nd161 2.487 . S
O188 C178 1.241 . S
O189 Nd160 2.414 . S
O189 Nd161 2.682 . S
O189 C178 1.273 . S
O190 Nd161 2.410 . S
O190 C179 1.251 . S
O191 Nd160 2.424 . S
O191 C179 1.268 . S
H192 C164 0.930 . S
H193 C165 0.929 . S
H194 C167 0.930 . S
H195 C168 0.929 . S
H196 C173 0.930 . S
H197 C174 0.929 . S
H198 C176 0.930 . S
H199 C177 0.929 . S
Nd200 C202 2.836 . S
Nd200 O220 2.500 . S
Nd200 O221 2.492 . S
Nd200 O222 2.487 . S
Nd200 O223 2.682 . S
Nd200 O224 2.410 . S
Nd200 O229 2.414 . S
Nd200 O231 2.424 . S
Nd201 C211 2.836 . S
Nd201 O223 2.414 . S
Nd201 O225 2.424 . S
Nd201 O226 2.500 . S
Nd201 O227 2.492 . S
Nd201 O228 2.487 . S
Nd201 O229 2.682 . S
Nd201 O230 2.410 . S
C202 Nd200 2.836 . S
C202 C203 1.498 1_556 S
C202 O220 1.258 . S
C202 O221 1.239 . S
C203 C202 1.498 1_554 S
C203 C204 1.366 . S
C203 C208 1.407 . S
C204 C203 1.366 . S
C204 C205 1.392 . S
C204 H232 0.930 . S
C205 C204 1.392 . S
C205 C206 1.398 . S
C205 H233 0.929 . S
C206 C205 1.398 . S
C206 C207 1.352 . S
C207 C206 1.352 . S
C207 C208 1.384 . S
C207 H234 0.930 . S
C208 C203 1.407 . S
C208 C207 1.384 . S
C208 H235 0.929 . S
C209 O222 1.241 . S
C209 O223 1.273 . S
C210 O224 1.251 . S
C210 O225 1.268 . S
C211 Nd201 2.836 . S
C211 C212 1.498 . S
C211 O226 1.258 . S
C211 O227 1.239 . S
C212 C211 1.498 . S
C212 C213 1.366 . S
C212 C217 1.407 . S
C213 C212 1.366 . S
C213 C214 1.392 . S
C213 H236 0.930 . S
C214 C213 1.392 . S
C214 C215 1.398 . S
C214 H237 0.929 . S
C215 C214 1.398 . S
C215 C216 1.352 . S
C216 C215 1.352 . S
C216 C217 1.384 . S
C216 H238 0.930 . S
C217 C212 1.407 . S
C217 C216 1.384 . S
C217 H239 0.929 . S
C218 O228 1.241 . S
C218 O229 1.273 . S
C219 O230 1.251 . S
C219 O231 1.268 . S
O220 Nd200 2.500 . S
O220 C202 1.258 . S
O221 Nd200 2.492 . S
O221 C202 1.239 . S
O222 Nd200 2.487 . S
O222 C209 1.241 . S
O223 Nd200 2.682 . S
O223 Nd201 2.414 . S
O223 C209 1.273 . S
O224 Nd200 2.410 . S
O224 C210 1.251 . S
O225 Nd201 2.424 . S
O225 C210 1.268 . S
O226 Nd201 2.500 . S
O226 C211 1.258 . S
O227 Nd201 2.492 . S
O227 C211 1.239 . S
O228 Nd201 2.487 . S
O228 C218 1.241 . S
O229 Nd200 2.414 . S
O229 Nd201 2.682 . S
O229 C218 1.273 . S
O230 Nd201 2.410 . S
O230 C219 1.251 . S
O231 Nd200 2.424 . S
O231 C219 1.268 . S
H232 C204 0.930 . S
H233 C205 0.929 . S
H234 C207 0.930 . S
H235 C208 0.929 . S
H236 C213 0.930 . S
H237 C214 0.929 . S
H238 C216 0.930 . S
H239 C217 0.929 . S
Nd240 C242 2.836 . S
Nd240 O260 2.500 . S
Nd240 O261 2.492 . S
Nd240 O262 2.487 . S
Nd240 O263 2.682 . S
Nd240 O264 2.410 . S
Nd240 O269 2.414 . S
Nd240 O271 2.424 . S
Nd241 C251 2.836 . S
Nd241 O263 2.414 . S
Nd241 O265 2.424 . S
Nd241 O266 2.500 . S
Nd241 O267 2.492 . S
Nd241 O268 2.487 . S
Nd241 O269 2.682 . S
Nd241 O270 2.410 . S
C242 Nd240 2.836 . S
C242 C243 1.498 . S
C242 O260 1.258 . S
C242 O261 1.239 . S
C243 C242 1.498 . S
C243 C244 1.366 . S
C243 C248 1.407 . S
C244 C243 1.366 . S
C244 C245 1.392 . S
C244 H272 0.930 . S
C245 C244 1.392 . S
C245 C246 1.398 . S
C245 H273 0.929 . S
C246 C245 1.398 . S
C246 C247 1.352 . S
C247 C246 1.352 . S
C247 C248 1.384 . S
C247 H274 0.930 . S
C248 C243 1.407 . S
C248 C247 1.384 . S
C248 H275 0.929 . S
C249 O262 1.241 . S
C249 O263 1.273 . S
C250 O264 1.251 . S
C250 O265 1.268 . S
C251 Nd241 2.836 . S
C251 C252 1.498 . S
C251 O266 1.258 . S
C251 O267 1.239 . S
C252 C251 1.498 . S
C252 C253 1.366 . S
C252 C257 1.407 . S
C253 C252 1.366 . S
C253 C254 1.392 . S
C253 H276 0.930 . S
C254 C253 1.392 . S
C254 C255 1.398 . S
C254 H277 0.929 . S
C255 C254 1.398 . S
C255 C256 1.352 . S
C256 C255 1.352 . S
C256 C257 1.384 . S
C256 H278 0.930 . S
C257 C252 1.407 . S
C257 C256 1.384 . S
C257 H279 0.929 . S
C258 O268 1.241 . S
C258 O269 1.273 . S
C259 O270 1.251 . S
C259 O271 1.268 . S
O260 Nd240 2.500 . S
O260 C242 1.258 . S
O261 Nd240 2.492 . S
O261 C242 1.239 . S
O262 Nd240 2.487 . S
O262 C249 1.241 . S
O263 Nd240 2.682 . S
O263 Nd241 2.414 . S
O263 C249 1.273 . S
O264 Nd240 2.410 . S
O264 C250 1.251 . S
O265 Nd241 2.424 . S
O265 C250 1.268 . S
O266 Nd241 2.500 . S
O266 C251 1.258 . S
O267 Nd241 2.492 . S
O267 C251 1.239 . S
O268 Nd241 2.487 . S
O268 C258 1.241 . S
O269 Nd240 2.414 . S
O269 Nd241 2.682 . S
O269 C258 1.273 . S
O270 Nd241 2.410 . S
O270 C259 1.251 . S
O271 Nd240 2.424 . S
O271 C259 1.268 . S
H272 C244 0.930 . S
H273 C245 0.929 . S
H274 C247 0.930 . S
H275 C248 0.929 . S
H276 C253 0.930 . S
H277 C254 0.929 . S
H278 C256 0.930 . S
H279 C257 0.929 . S
Nd280 C282 2.836 . S
Nd280 O300 2.500 . S
Nd280 O301 2.492 . S
Nd280 O302 2.487 . S
Nd280 O303 2.682 . S
Nd280 O304 2.410 . S
Nd280 O309 2.414 . S
Nd280 O311 2.424 . S
Nd281 C291 2.836 . S
Nd281 O303 2.414 . S
Nd281 O305 2.424 . S
Nd281 O306 2.500 . S
Nd281 O307 2.492 . S
Nd281 O308 2.487 . S
Nd281 O309 2.682 . S
Nd281 O310 2.410 . S
C282 Nd280 2.836 . S
C282 C283 1.498 . S
C282 O300 1.258 . S
C282 O301 1.239 . S
C283 C282 1.498 . S
C283 C284 1.366 . S
C283 C288 1.407 . S
C284 C283 1.366 . S
C284 C285 1.392 . S
C284 H312 0.930 . S
C285 C284 1.392 . S
C285 C286 1.398 . S
C285 H313 0.929 . S
C286 C285 1.398 . S
C286 C287 1.352 . S
C287 C286 1.352 . S
C287 C288 1.384 . S
C287 H314 0.930 . S
C288 C283 1.407 . S
C288 C287 1.384 . S
C288 H315 0.929 . S
C289 O302 1.241 . S
C289 O303 1.273 . S
C290 O304 1.251 . S
C290 O305 1.268 . S
C291 Nd281 2.836 . S
C291 C292 1.498 . S
C291 O306 1.258 . S
C291 O307 1.239 . S
C292 C291 1.498 . S
C292 C293 1.366 . S
C292 C297 1.407 . S
C293 C292 1.366 . S
C293 C294 1.392 . S
C293 H316 0.930 . S
C294 C293 1.392 . S
C294 C295 1.398 . S
C294 H317 0.929 . S
C295 C294 1.398 . S
C295 C296 1.352 . S
C296 C295 1.352 . S
C296 C297 1.384 . S
C296 H318 0.930 . S
C297 C292 1.407 . S
C297 C296 1.384 . S
C297 H319 0.929 . S
C298 O308 1.241 . S
C298 O309 1.273 . S
C299 O310 1.251 . S
C299 O311 1.268 . S
O300 Nd280 2.500 . S
O300 C282 1.258 . S
O301 Nd280 2.492 . S
O301 C282 1.239 . S
O302 Nd280 2.487 . S
O302 C289 1.241 . S
O303 Nd280 2.682 . S
O303 Nd281 2.414 . S
O303 C289 1.273 . S
O304 Nd280 2.410 . S
O304 C290 1.251 . S
O305 Nd281 2.424 . S
O305 C290 1.268 . S
O306 Nd281 2.500 . S
O306 C291 1.258 . S
O307 Nd281 2.492 . S
O307 C291 1.239 . S
O308 Nd281 2.487 . S
O308 C298 1.241 . S
O309 Nd280 2.414 . S
O309 Nd281 2.682 . S
O309 C298 1.273 . S
O310 Nd281 2.410 . S
O310 C299 1.251 . S
O311 Nd280 2.424 . S
O311 C299 1.268 . S
H312 C284 0.930 . S
H313 C285 0.929 . S
H314 C287 0.930 . S
H315 C288 0.929 . S
H316 C293 0.930 . S
H317 C294 0.929 . S
H318 C296 0.930 . S
H319 C297 0.929 . S
Nd320 C322 2.836 . S
Nd320 O340 2.500 . S
Nd320 O341 2.492 . S
Nd320 O342 2.487 . S
Nd320 O343 2.682 . S
Nd320 O344 2.410 . S
Nd320 O349 2.414 . S
Nd320 O351 2.424 . S
Nd321 C331 2.836 . S
Nd321 O343 2.414 . S
Nd321 O345 2.424 . S
Nd321 O346 2.500 . S
Nd321 O347 2.492 . S
Nd321 O348 2.487 . S
Nd321 O349 2.682 . S
Nd321 O350 2.410 . S
C322 Nd320 2.836 . S
C322 C323 1.498 1_554 S
C322 O340 1.258 . S
C322 O341 1.239 . S
C323 C322 1.498 1_556 S
C323 C324 1.366 . S
C323 C328 1.407 . S
C324 C323 1.366 . S
C324 C325 1.392 . S
C324 H352 0.930 . S
C325 C324 1.392 . S
C325 C326 1.398 . S
C325 H353 0.929 . S
C326 C325 1.398 . S
C326 C327 1.352 . S
C327 C326 1.352 . S
C327 C328 1.384 . S
C327 H354 0.930 . S
C328 C323 1.407 . S
C328 C327 1.384 . S
C328 H355 0.929 . S
C329 O342 1.241 . S
C329 O343 1.273 . S
C330 O344 1.251 . S
C330 O345 1.268 . S
C331 Nd321 2.836 . S
C331 C332 1.498 . S
C331 O346 1.258 . S
C331 O347 1.239 . S
C332 C331 1.498 . S
C332 C333 1.366 . S
C332 C337 1.407 . S
C333 C332 1.366 . S
C333 C334 1.392 . S
C333 H356 0.930 . S
C334 C333 1.392 . S
C334 C335 1.398 . S
C334 H357 0.929 . S
C335 C334 1.398 . S
C335 C336 1.352 . S
C336 C335 1.352 . S
C336 C337 1.384 . S
C336 H358 0.930 . S
C337 C332 1.407 . S
C337 C336 1.384 . S
C337 H359 0.929 . S
C338 O348 1.241 . S
C338 O349 1.273 . S
C339 O350 1.251 . S
C339 O351 1.268 . S
O340 Nd320 2.500 . S
O340 C322 1.258 . S
O341 Nd320 2.492 . S
O341 C322 1.239 . S
O342 Nd320 2.487 . S
O342 C329 1.241 . S
O343 Nd320 2.682 . S
O343 Nd321 2.414 . S
O343 C329 1.273 . S
O344 Nd320 2.410 . S
O344 C330 1.251 . S
O345 Nd321 2.424 . S
O345 C330 1.268 . S
O346 Nd321 2.500 . S
O346 C331 1.258 . S
O347 Nd321 2.492 . S
O347 C331 1.239 . S
O348 Nd321 2.487 . S
O348 C338 1.241 . S
O349 Nd320 2.414 . S
O349 Nd321 2.682 . S
O349 C338 1.273 . S
O350 Nd321 2.410 . S
O350 C339 1.251 . S
O351 Nd320 2.424 . S
O351 C339 1.268 . S
H352 C324 0.930 . S
H353 C325 0.929 . S
H354 C327 0.930 . S
H355 C328 0.929 . S
H356 C333 0.930 . S
H357 C334 0.929 . S
H358 C336 0.930 . S
H359 C337 0.929 . S
Nd360 C362 2.836 . S
Nd360 O380 2.500 . S
Nd360 O381 2.492 . S
Nd360 O382 2.487 . S
Nd360 O383 2.682 . S
Nd360 O384 2.410 . S
Nd360 O389 2.414 . S
Nd360 O391 2.424 . S
Nd361 C371 2.836 . S
Nd361 O383 2.414 . S
Nd361 O385 2.424 . S
Nd361 O386 2.500 . S
Nd361 O387 2.492 . S
Nd361 O388 2.487 . S
Nd361 O389 2.682 . S
Nd361 O390 2.410 . S
C362 Nd360 2.836 . S
C362 C363 1.498 . S
C362 O380 1.258 . S
C362 O381 1.239 . S
C363 C362 1.498 . S
C363 C364 1.366 . S
C363 C368 1.407 . S
C364 C363 1.366 . S
C364 C365 1.392 . S
C364 H392 0.930 . S
C365 C364 1.392 . S
C365 C366 1.398 . S
C365 H393 0.929 . S
C366 C365 1.398 . S
C366 C367 1.352 . S
C367 C366 1.352 . S
C367 C368 1.384 . S
C367 H394 0.930 . S
C368 C363 1.407 . S
C368 C367 1.384 . S
C368 H395 0.929 . S
C369 O382 1.241 . S
C369 O383 1.273 . S
C370 O384 1.251 . S
C370 O385 1.268 . S
C371 Nd361 2.836 . S
C371 C372 1.498 . S
C371 O386 1.258 . S
C371 O387 1.239 . S
C372 C371 1.498 . S
C372 C373 1.366 . S
C372 C377 1.407 . S
C373 C372 1.366 . S
C373 C374 1.392 . S
C373 H396 0.930 . S
C374 C373 1.392 . S
C374 C375 1.398 . S
C374 H397 0.929 . S
C375 C374 1.398 . S
C375 C376 1.352 . S
C376 C375 1.352 . S
C376 C377 1.384 . S
C376 H398 0.930 . S
C377 C372 1.407 . S
C377 C376 1.384 . S
C377 H399 0.929 . S
C378 O388 1.241 . S
C378 O389 1.273 . S
C379 O390 1.251 . S
C379 O391 1.268 . S
O380 Nd360 2.500 . S
O380 C362 1.258 . S
O381 Nd360 2.492 . S
O381 C362 1.239 . S
O382 Nd360 2.487 . S
O382 C369 1.241 . S
O383 Nd360 2.682 . S
O383 Nd361 2.414 . S
O383 C369 1.273 . S
O384 Nd360 2.410 . S
O384 C370 1.251 . S
O385 Nd361 2.424 . S
O385 C370 1.268 . S
O386 Nd361 2.500 . S
O386 C371 1.258 . S
O387 Nd361 2.492 . S
O387 C371 1.239 . S
O388 Nd361 2.487 . S
O388 C378 1.241 . S
O389 Nd360 2.414 . S
O389 Nd361 2.682 . S
O389 C378 1.273 . S
O390 Nd361 2.410 . S
O390 C379 1.251 . S
O391 Nd360 2.424 . S
O391 C379 1.268 . S
H392 C364 0.930 . S
H393 C365 0.929 . S
H394 C367 0.930 . S
H395 C368 0.929 . S
H396 C373 0.930 . S
H397 C374 0.929 . S
H398 C376 0.930 . S
H399 C377 0.929 . S
Nd400 C402 2.836 . S
Nd400 O420 2.500 . S
Nd400 O421 2.492 . S
Nd400 O422 2.487 . S
Nd400 O423 2.682 . S
Nd400 O424 2.410 . S
Nd400 O429 2.414 . S
Nd400 O431 2.424 . S
Nd401 C411 2.836 . S
Nd401 O423 2.414 . S
Nd401 O425 2.424 . S
Nd401 O426 2.500 . S
Nd401 O427 2.492 . S
Nd401 O428 2.487 . S
Nd401 O429 2.682 . S
Nd401 O430 2.410 . S
C402 Nd400 2.836 . S
C402 C403 1.498 . S
C402 O420 1.258 . S
C402 O421 1.239 . S
C403 C402 1.498 . S
C403 C404 1.366 . S
C403 C408 1.407 . S
C404 C403 1.366 . S
C404 C405 1.392 . S
C404 H432 0.930 . S
C405 C404 1.392 . S
C405 C406 1.398 . S
C405 H433 0.929 . S
C406 C405 1.398 . S
C406 C407 1.352 . S
C407 C406 1.352 . S
C407 C408 1.384 . S
C407 H434 0.930 . S
C408 C403 1.407 . S
C408 C407 1.384 . S
C408 H435 0.929 . S
C409 O422 1.241 . S
C409 O423 1.273 . S
C410 O424 1.251 . S
C410 O425 1.268 . S
C411 Nd401 2.836 . S
C411 C412 1.498 . S
C411 O426 1.258 . S
C411 O427 1.239 . S
C412 C411 1.498 . S
C412 C413 1.366 . S
C412 C417 1.407 . S
C413 C412 1.366 . S
C413 C414 1.392 . S
C413 H436 0.930 . S
C414 C413 1.392 . S
C414 C415 1.398 . S
C414 H437 0.929 . S
C415 C414 1.398 . S
C415 C416 1.352 . S
C416 C415 1.352 . S
C416 C417 1.384 . S
C416 H438 0.930 . S
C417 C412 1.407 . S
C417 C416 1.384 . S
C417 H439 0.929 . S
C418 O428 1.241 . S
C418 O429 1.273 . S
C419 O430 1.251 . S
C419 O431 1.268 . S
O420 Nd400 2.500 . S
O420 C402 1.258 . S
O421 Nd400 2.492 . S
O421 C402 1.239 . S
O422 Nd400 2.487 . S
O422 C409 1.241 . S
O423 Nd400 2.682 . S
O423 Nd401 2.414 . S
O423 C409 1.273 . S
O424 Nd400 2.410 . S
O424 C410 1.251 . S
O425 Nd401 2.424 . S
O425 C410 1.268 . S
O426 Nd401 2.500 . S
O426 C411 1.258 . S
O427 Nd401 2.492 . S
O427 C411 1.239 . S
O428 Nd401 2.487 . S
O428 C418 1.241 . S
O429 Nd400 2.414 . S
O429 Nd401 2.682 . S
O429 C418 1.273 . S
O430 Nd401 2.410 . S
O430 C419 1.251 . S
O431 Nd400 2.424 . S
O431 C419 1.268 . S
H432 C404 0.930 . S
H433 C405 0.929 . S
H434 C407 0.930 . S
H435 C408 0.929 . S
H436 C413 0.930 . S
H437 C414 0.929 . S
H438 C416 0.930 . S
H439 C417 0.929 . S
Nd440 C442 2.836 . S
Nd440 O460 2.500 . S
Nd440 O461 2.492 . S
Nd440 O462 2.487 . S
Nd440 O463 2.682 . S
Nd440 O464 2.410 . S
Nd440 O469 2.414 . S
Nd440 O471 2.424 . S
Nd441 C451 2.836 . S
Nd441 O463 2.414 . S
Nd441 O465 2.424 . S
Nd441 O466 2.500 . S
Nd441 O467 2.492 . S
Nd441 O468 2.487 . S
Nd441 O469 2.682 . S
Nd441 O470 2.410 . S
C442 Nd440 2.836 . S
C442 C443 1.498 1_554 S
C442 O460 1.258 . S
C442 O461 1.239 . S
C443 C442 1.498 1_556 S
C443 C444 1.366 . S
C443 C448 1.407 . S
C444 C443 1.366 . S
C444 C445 1.392 . S
C444 H472 0.930 . S
C445 C444 1.392 . S
C445 C446 1.398 . S
C445 H473 0.929 . S
C446 C445 1.398 . S
C446 C447 1.352 . S
C447 C446 1.352 . S
C447 C448 1.384 . S
C447 H474 0.930 . S
C448 C443 1.407 . S
C448 C447 1.384 . S
C448 H475 0.929 . S
C449 O462 1.241 . S
C449 O463 1.273 . S
C450 O464 1.251 . S
C450 O465 1.268 . S
C451 Nd441 2.836 . S
C451 C452 1.498 . S
C451 O466 1.258 . S
C451 O467 1.239 . S
C452 C451 1.498 . S
C452 C453 1.366 . S
C452 C457 1.407 . S
C453 C452 1.366 . S
C453 C454 1.392 . S
C453 H476 0.930 . S
C454 C453 1.392 . S
C454 C455 1.398 . S
C454 H477 0.929 . S
C455 C454 1.398 . S
C455 C456 1.352 . S
C456 C455 1.352 . S
C456 C457 1.384 . S
C456 H478 0.930 . S
C457 C452 1.407 . S
C457 C456 1.384 . S
C457 H479 0.929 . S
C458 O468 1.241 . S
C458 O469 1.273 . S
C459 O470 1.251 . S
C459 O471 1.268 . S
O460 Nd440 2.500 . S
O460 C442 1.258 . S
O461 Nd440 2.492 . S
O461 C442 1.239 . S
O462 Nd440 2.487 . S
O462 C449 1.241 . S
O463 Nd440 2.682 . S
O463 Nd441 2.414 . S
O463 C449 1.273 . S
O464 Nd440 2.410 . S
O464 C450 1.251 . S
O465 Nd441 2.424 . S
O465 C450 1.268 . S
O466 Nd441 2.500 . S
O466 C451 1.258 . S
O467 Nd441 2.492 . S
O467 C451 1.239 . S
O468 Nd441 2.487 . S
O468 C458 1.241 . S
O469 Nd440 2.414 . S
O469 Nd441 2.682 . S
O469 C458 1.273 . S
O470 Nd441 2.410 . S
O470 C459 1.251 . S
O471 Nd440 2.424 . S
O471 C459 1.268 . S
H472 C444 0.930 . S
H473 C445 0.929 . S
H474 C447 0.930 . S
H475 C448 0.929 . S
H476 C453 0.930 . S
H477 C454 0.929 . S
H478 C456 0.930 . S
H479 C457 0.929 . S
H480 C498 0.951 . S
H481 C500 0.951 . S
H482 C502 0.950 . S
H483 C503 0.950 . S
H484 C505 0.950 . S
H485 C508 0.950 . S
H486 C509 0.950 . S
H487 C511 0.950 . S
H488 C512 0.950 . S
H489 C513 0.951 . S
H490 C515 0.951 . S
H491 C517 0.950 . S
H492 C518 0.950 . S
H493 C520 0.950 . S
H494 C523 0.950 . S
H495 C524 0.950 . S
H496 C526 0.950 . S
H497 C527 0.950 . S
C498 H480 0.951 . S
C498 C499 1.366 . S
C498 C500 1.388 . S
C499 C498 1.366 . S
C499 C503 1.385 . S
C500 H481 0.951 . S
C500 C498 1.388 . S
C500 C501 1.366 . S
C501 C500 1.366 . S
C501 C502 1.414 . S
C501 C504 1.499 . S
C502 H482 0.950 . S
C502 C501 1.414 . S
C502 C503 1.374 . S
C503 H483 0.950 . S
C503 C499 1.385 . S
C503 C502 1.374 . S
C504 C501 1.499 . S
C504 C505 1.373 . S
C504 C506 1.389 . S
C505 H484 0.950 . S
C505 C504 1.373 . S
C505 C521 1.377 . S
C506 C504 1.389 . S
C506 C507 1.524 . S
C506 C520 1.377 . S
C507 C506 1.524 . S
C507 C508 1.397 . S
C507 C512 1.363 . S
C508 H485 0.950 . S
C508 C507 1.397 . S
C508 C509 1.334 . S
C509 H486 0.950 . S
C509 C508 1.334 . S
C509 C510 1.287 . S
C510 C509 1.287 . S
C510 C511 1.524 . S
C510 H529 0.913 . S
C511 H487 0.950 . S
C511 C510 1.524 . S
C511 C512 1.415 . S
C512 H488 0.950 . S
C512 C507 1.363 . S
C512 C511 1.415 . S
C513 H489 0.951 . S
C513 C514 1.366 . S
C513 C515 1.388 . S
C514 C513 1.366 . S
C514 C518 1.385 . S
C515 H490 0.951 . S
C515 C513 1.388 . S
C515 C516 1.366 . S
C516 C515 1.366 . S
C516 C517 1.414 . S
C516 C519 1.499 . S
C517 H491 0.950 . S
C517 C516 1.414 . S
C517 C518 1.374 . S
C518 H492 0.950 . S
C518 C514 1.385 . S
C518 C517 1.374 . S
C519 C516 1.499 . S
C519 C520 1.373 . S
C519 C521 1.389 . S
C520 H493 0.950 . S
C520 C506 1.377 . S
C520 C519 1.373 . S
C521 C505 1.377 . S
C521 C519 1.389 . S
C521 C522 1.524 . S
C522 C521 1.524 . S
C522 C523 1.397 . S
C522 C527 1.363 . S
C523 H494 0.950 . S
C523 C522 1.397 . S
C523 C524 1.334 . S
C524 H495 0.950 . S
C524 C523 1.334 . S
C524 C525 1.287 . S
C525 C524 1.287 . S
C525 C526 1.524 . S
C525 H528 0.999 . S
C526 H496 0.950 . S
C526 C525 1.524 . S
C526 C527 1.415 . S
C527 H497 0.950 . S
C527 C522 1.363 . S
C527 C526 1.415 . S
H528 C525 0.999 . S
H529 C510 0.913 . S
H530 C548 0.951 . S
H531 C550 0.951 . S
H532 C552 0.950 . S
H533 C553 0.950 . S
H534 C555 0.950 . S
H535 C558 0.950 . S
H536 C559 0.950 . S
H537 C561 0.950 . S
H538 C562 0.950 . S
H539 C563 0.951 . S
H540 C565 0.951 . S
H541 C567 0.950 . S
H542 C568 0.950 . S
H543 C570 0.950 . S
H544 C573 0.950 . S
H545 C574 0.950 . S
H546 C576 0.950 . S
H547 C577 0.950 . S
C548 H530 0.951 . S
C548 C549 1.366 . S
C548 C550 1.388 . S
C549 C548 1.366 . S
C549 C553 1.385 . S
C550 H531 0.951 . S
C550 C548 1.388 . S
C550 C551 1.366 . S
C551 C550 1.366 . S
C551 C552 1.414 . S
C551 C554 1.499 . S
C552 H532 0.950 . S
C552 C551 1.414 . S
C552 C553 1.374 . S
C553 H533 0.950 . S
C553 C549 1.385 . S
C553 C552 1.374 . S
C554 C551 1.499 . S
C554 C555 1.373 . S
C554 C556 1.389 . S
C555 H534 0.950 . S
C555 C554 1.373 . S
C555 C571 1.377 . S
C556 C554 1.389 . S
C556 C557 1.524 . S
C556 C570 1.377 . S
C557 C556 1.524 . S
C557 C558 1.397 . S
C557 C562 1.363 . S
C558 H535 0.950 . S
C558 C557 1.397 . S
C558 C559 1.334 . S
C559 H536 0.950 . S
C559 C558 1.334 . S
C559 C560 1.287 . S
C560 C559 1.287 . S
C560 C561 1.524 . S
C560 H579 0.913 . S
C561 H537 0.950 . S
C561 C560 1.524 . S
C561 C562 1.415 . S
C562 H538 0.950 . S
C562 C557 1.363 . S
C562 C561 1.415 . S
C563 H539 0.951 . S
C563 C564 1.366 . S
C563 C565 1.388 . S
C564 C563 1.366 . S
C564 C568 1.385 . S
C565 H540 0.951 . S
C565 C563 1.388 . S
C565 C566 1.366 . S
C566 C565 1.366 . S
C566 C567 1.414 . S
C566 C569 1.499 . S
C567 H541 0.950 . S
C567 C566 1.414 . S
C567 C568 1.374 . S
C568 H542 0.950 . S
C568 C564 1.385 . S
C568 C567 1.374 . S
C569 C566 1.499 . S
C569 C570 1.373 . S
C569 C571 1.389 . S
C570 H543 0.950 . S
C570 C556 1.377 . S
C570 C569 1.373 . S
C571 C555 1.377 . S
C571 C569 1.389 . S
C571 C572 1.524 . S
C572 C571 1.524 . S
C572 C573 1.397 . S
C572 C577 1.363 . S
C573 H544 0.950 . S
C573 C572 1.397 . S
C573 C574 1.334 . S
C574 H545 0.950 . S
C574 C573 1.334 . S
C574 C575 1.287 . S
C575 C574 1.287 . S
C575 C576 1.524 . S
C575 H578 0.999 . S
C576 H546 0.950 . S
C576 C575 1.524 . S
C576 C577 1.415 . S
C577 H547 0.950 . S
C577 C572 1.363 . S
C577 C576 1.415 . S
H578 C575 0.999 . S
H579 C560 0.913 . S
H580 C598 0.951 . S
H581 C600 0.951 . S
H582 C602 0.950 . S
H583 C603 0.950 . S
H584 C605 0.950 . S
H585 C608 0.950 . S
H586 C609 0.950 . S
H587 C611 0.950 . S
H588 C612 0.950 . S
H589 C613 0.951 . S
H590 C615 0.951 . S
H591 C617 0.950 . S
H592 C618 0.950 . S
H593 C620 0.950 . S
H594 C623 0.950 . S
H595 C624 0.950 . S
H596 C626 0.950 . S
H597 C627 0.950 . S
C598 H580 0.951 . S
C598 C599 1.366 . S
C598 C600 1.388 . S
C599 C598 1.366 . S
C599 C603 1.385 . S
C600 H581 0.951 . S
C600 C598 1.388 . S
C600 C601 1.366 . S
C601 C600 1.366 . S
C601 C602 1.414 . S
C601 C604 1.499 . S
C602 H582 0.950 . S
C602 C601 1.414 . S
C602 C603 1.374 . S
C603 H583 0.950 . S
C603 C599 1.385 . S
C603 C602 1.374 . S
C604 C601 1.499 . S
C604 C605 1.373 . S
C604 C606 1.389 . S
C605 H584 0.950 . S
C605 C604 1.373 . S
C605 C621 1.377 . S
C606 C604 1.389 . S
C606 C607 1.524 . S
C606 C620 1.377 . S
C607 C606 1.524 . S
C607 C608 1.397 . S
C607 C612 1.363 . S
C608 H585 0.950 . S
C608 C607 1.397 . S
C608 C609 1.334 . S
C609 H586 0.950 . S
C609 C608 1.334 . S
C609 C610 1.287 . S
C610 C609 1.287 . S
C610 C611 1.524 . S
C610 H629 0.913 . S
C611 H587 0.950 . S
C611 C610 1.524 . S
C611 C612 1.415 . S
C612 H588 0.950 . S
C612 C607 1.363 . S
C612 C611 1.415 . S
C613 H589 0.951 . S
C613 C614 1.366 . S
C613 C615 1.388 . S
C614 C613 1.366 . S
C614 C618 1.385 . S
C615 H590 0.951 . S
C615 C613 1.388 . S
C615 C616 1.366 . S
C616 C615 1.366 . S
C616 C617 1.414 . S
C616 C619 1.499 . S
C617 H591 0.950 . S
C617 C616 1.414 . S
C617 C618 1.374 . S
C618 H592 0.950 . S
C618 C614 1.385 . S
C618 C617 1.374 . S
C619 C616 1.499 . S
C619 C620 1.373 . S
C619 C621 1.389 . S
C620 H593 0.950 . S
C620 C606 1.377 . S
C620 C619 1.373 . S
C621 C605 1.377 . S
C621 C619 1.389 . S
C621 C622 1.524 . S
C622 C621 1.524 . S
C622 C623 1.397 . S
C622 C627 1.363 . S
C623 H594 0.950 . S
C623 C622 1.397 . S
C623 C624 1.334 . S
C624 H595 0.950 . S
C624 C623 1.334 . S
C624 C625 1.287 . S
C625 C624 1.287 . S
C625 C626 1.524 . S
C625 H628 0.999 . S
C626 H596 0.950 . S
C626 C625 1.524 . S
C626 C627 1.415 . S
C627 H597 0.950 . S
C627 C622 1.363 . S
C627 C626 1.415 . S
H628 C625 0.999 . S
H629 C610 0.913 . S
H630 C648 0.951 . S
H631 C650 0.951 . S
H632 C652 0.950 . S
H633 C653 0.950 . S
H634 C655 0.950 . S
H635 C658 0.950 . S
H636 C659 0.950 . S
H637 C661 0.950 . S
H638 C662 0.950 . S
H639 C663 0.951 . S
H640 C665 0.951 . S
H641 C667 0.950 . S
H642 C668 0.950 . S
H643 C670 0.950 . S
H644 C673 0.950 . S
H645 C674 0.950 . S
H646 C676 0.950 . S
H647 C677 0.950 . S
C648 H630 0.951 . S
C648 C649 1.366 . S
C648 C650 1.388 . S
C649 C648 1.366 . S
C649 C653 1.385 . S
C650 H631 0.951 . S
C650 C648 1.388 . S
C650 C651 1.366 . S
C651 C650 1.366 . S
C651 C652 1.414 . S
C651 C654 1.499 . S
C652 H632 0.950 . S
C652 C651 1.414 . S
C652 C653 1.374 . S
C653 H633 0.950 . S
C653 C649 1.385 . S
C653 C652 1.374 . S
C654 C651 1.499 . S
C654 C655 1.373 . S
C654 C656 1.389 . S
C655 H634 0.950 . S
C655 C654 1.373 . S
C655 C671 1.377 . S
C656 C654 1.389 . S
C656 C657 1.524 . S
C656 C670 1.377 . S
C657 C656 1.524 . S
C657 C658 1.397 . S
C657 C662 1.363 . S
C658 H635 0.950 . S
C658 C657 1.397 . S
C658 C659 1.334 . S
C659 H636 0.950 . S
C659 C658 1.334 . S
C659 C660 1.287 . S
C660 C659 1.287 . S
C660 C661 1.524 . S
C660 H679 0.913 . S
C661 H637 0.950 . S
C661 C660 1.524 . S
C661 C662 1.415 . S
C662 H638 0.950 . S
C662 C657 1.363 . S
C662 C661 1.415 . S
C663 H639 0.951 . S
C663 C664 1.366 . S
C663 C665 1.388 . S
C664 C663 1.366 . S
C664 C668 1.385 . S
C665 H640 0.951 . S
C665 C663 1.388 . S
C665 C666 1.366 . S
C666 C665 1.366 . S
C666 C667 1.414 . S
C666 C669 1.499 . S
C667 H641 0.950 . S
C667 C666 1.414 . S
C667 C668 1.374 . S
C668 H642 0.950 . S
C668 C664 1.385 . S
C668 C667 1.374 . S
C669 C666 1.499 . S
C669 C670 1.373 . S
C669 C671 1.389 . S
C670 H643 0.950 . S
C670 C656 1.377 . S
C670 C669 1.373 . S
C671 C655 1.377 . S
C671 C669 1.389 . S
C671 C672 1.524 . S
C672 C671 1.524 . S
C672 C673 1.397 . S
C672 C677 1.363 . S
C673 H644 0.950 . S
C673 C672 1.397 . S
C673 C674 1.334 . S
C674 H645 0.950 . S
C674 C673 1.334 . S
C674 C675 1.287 . S
C675 C674 1.287 . S
C675 C676 1.524 . S
C675 H678 0.999 . S
C676 H646 0.950 . S
C676 C675 1.524 . S
C676 C677 1.415 . S
C677 H647 0.950 . S
C677 C672 1.363 . S
C677 C676 1.415 . S
H678 C675 0.999 . S
H679 C660 0.913 . S
H680 C698 0.951 . S
H681 C700 0.951 . S
H682 C702 0.950 . S
H683 C703 0.950 . S
H684 C705 0.950 . S
H685 C708 0.950 . S
H686 C709 0.950 . S
H687 C711 0.950 . S
H688 C712 0.950 . S
H689 C713 0.951 . S
H690 C715 0.951 . S
H691 C717 0.950 . S
H692 C718 0.950 . S
H693 C720 0.950 . S
H694 C723 0.950 . S
H695 C724 0.950 . S
H696 C726 0.950 . S
H697 C727 0.950 . S
C698 H680 0.951 . S
C698 C699 1.366 . S
C698 C700 1.388 . S
C699 C698 1.366 . S
C699 C703 1.385 . S
C700 H681 0.951 . S
C700 C698 1.388 . S
C700 C701 1.366 . S
C701 C700 1.366 . S
C701 C702 1.414 . S
C701 C704 1.499 . S
C702 H682 0.950 . S
C702 C701 1.414 . S
C702 C703 1.374 . S
C703 H683 0.950 . S
C703 C699 1.385 . S
C703 C702 1.374 . S
C704 C701 1.499 . S
C704 C705 1.373 . S
C704 C706 1.389 . S
C705 H684 0.950 . S
C705 C704 1.373 . S
C705 C721 1.377 . S
C706 C704 1.389 . S
C706 C707 1.524 . S
C706 C720 1.377 . S
C707 C706 1.524 . S
C707 C708 1.397 . S
C707 C712 1.363 . S
C708 H685 0.950 . S
C708 C707 1.397 . S
C708 C709 1.334 . S
C709 H686 0.950 . S
C709 C708 1.334 . S
C709 C710 1.287 . S
C710 C709 1.287 . S
C710 C711 1.524 . S
C710 H729 0.913 . S
C711 H687 0.950 . S
C711 C710 1.524 . S
C711 C712 1.415 . S
C712 H688 0.950 . S
C712 C707 1.363 . S
C712 C711 1.415 . S
C713 H689 0.951 . S
C713 C714 1.366 . S
C713 C715 1.388 . S
C714 C713 1.366 . S
C714 C718 1.385 . S
C715 H690 0.951 . S
C715 C713 1.388 . S
C715 C716 1.366 . S
C716 C715 1.366 . S
C716 C717 1.414 . S
C716 C719 1.499 . S
C717 H691 0.950 . S
C717 C716 1.414 . S
C717 C718 1.374 . S
C718 H692 0.950 . S
C718 C714 1.385 . S
C718 C717 1.374 . S
C719 C716 1.499 . S
C719 C720 1.373 . S
C719 C721 1.389 . S
C720 H693 0.950 . S
C720 C706 1.377 . S
C720 C719 1.373 . S
C721 C705 1.377 . S
C721 C719 1.389 . S
C721 C722 1.524 . S
C722 C721 1.524 . S
C722 C723 1.397 . S
C722 C727 1.363 . S
C723 H694 0.950 . S
C723 C722 1.397 . S
C723 C724 1.334 . S
C724 H695 0.950 . S
C724 C723 1.334 . S
C724 C725 1.287 . S
C725 C724 1.287 . S
C725 C726 1.524 . S
C725 H728 0.999 . S
C726 H696 0.950 . S
C726 C725 1.524 . S
C726 C727 1.415 . S
C727 H697 0.950 . S
C727 C722 1.363 . S
C727 C726 1.415 . S
H728 C725 0.999 . S
H729 C710 0.913 . S
H730 C748 0.951 . S
H731 C750 0.951 . S
H732 C752 0.950 . S
H733 C753 0.950 . S
H734 C755 0.950 . S
H735 C758 0.950 . S
H736 C759 0.950 . S
H737 C761 0.950 . S
H738 C762 0.950 . S
H739 C763 0.951 . S
H740 C765 0.951 . S
H741 C767 0.950 . S
H742 C768 0.950 . S
H743 C770 0.950 . S
H744 C773 0.950 . S
H745 C774 0.950 . S
H746 C776 0.950 . S
H747 C777 0.950 . S
C748 H730 0.951 . S
C748 C749 1.366 . S
C748 C750 1.388 . S
C749 C748 1.366 . S
C749 C753 1.385 . S
C750 H731 0.951 . S
C750 C748 1.388 . S
C750 C751 1.366 . S
C751 C750 1.366 . S
C751 C752 1.414 . S
C751 C754 1.499 . S
C752 H732 0.950 . S
C752 C751 1.414 . S
C752 C753 1.374 . S
C753 H733 0.950 . S
C753 C749 1.385 . S
C753 C752 1.374 . S
C754 C751 1.499 . S
C754 C755 1.373 . S
C754 C756 1.389 . S
C755 H734 0.950 . S
C755 C754 1.373 . S
C755 C771 1.377 . S
C756 C754 1.389 . S
C756 C757 1.524 . S
C756 C770 1.377 . S
C757 C756 1.524 . S
C757 C758 1.397 . S
C757 C762 1.363 . S
C758 H735 0.950 . S
C758 C757 1.397 . S
C758 C759 1.334 . S
C759 H736 0.950 . S
C759 C758 1.334 . S
C759 C760 1.287 . S
C760 C759 1.287 . S
C760 C761 1.524 . S
C760 H779 0.913 . S
C761 H737 0.950 . S
C761 C760 1.524 . S
C761 C762 1.415 . S
C762 H738 0.950 . S
C762 C757 1.363 . S
C762 C761 1.415 . S
C763 H739 0.951 . S
C763 C764 1.366 . S
C763 C765 1.388 . S
C764 C763 1.366 . S
C764 C768 1.385 . S
C765 H740 0.951 . S
C765 C763 1.388 . S
C765 C766 1.366 . S
C766 C765 1.366 . S
C766 C767 1.414 . S
C766 C769 1.499 . S
C767 H741 0.950 . S
C767 C766 1.414 . S
C767 C768 1.374 . S
C768 H742 0.950 . S
C768 C764 1.385 . S
C768 C767 1.374 . S
C769 C766 1.499 . S
C769 C770 1.373 . S
C769 C771 1.389 . S
C770 H743 0.950 . S
C770 C756 1.377 . S
C770 C769 1.373 . S
C771 C755 1.377 . S
C771 C769 1.389 . S
C771 C772 1.524 . S
C772 C771 1.524 . S
C772 C773 1.397 . S
C772 C777 1.363 . S
C773 H744 0.950 . S
C773 C772 1.397 . S
C773 C774 1.334 . S
C774 H745 0.950 . S
C774 C773 1.334 . S
C774 C775 1.287 . S
C775 C774 1.287 . S
C775 C776 1.524 . S
C775 H778 0.999 . S
C776 H746 0.950 . S
C776 C775 1.524 . S
C776 C777 1.415 . S
C777 H747 0.950 . S
C777 C772 1.363 . S
C777 C776 1.415 . S
H778 C775 0.999 . S
H779 C760 0.913 . S
H780 C798 0.951 . S
H781 C800 0.951 . S
H782 C802 0.950 . S
H783 C803 0.950 . S
H784 C805 0.950 . S
H785 C808 0.950 . S
H786 C809 0.950 . S
H787 C811 0.950 . S
H788 C812 0.950 . S
H789 C813 0.951 . S
H790 C815 0.951 . S
H791 C817 0.950 . S
H792 C818 0.950 . S
H793 C820 0.950 . S
H794 C823 0.950 . S
H795 C824 0.950 . S
H796 C826 0.950 . S
H797 C827 0.950 . S
C798 H780 0.951 . S
C798 C799 1.366 . S
C798 C800 1.388 . S
C799 C798 1.366 . S
C799 C803 1.385 . S
C800 H781 0.951 . S
C800 C798 1.388 . S
C800 C801 1.366 . S
C801 C800 1.366 . S
C801 C802 1.414 . S
C801 C804 1.499 . S
C802 H782 0.950 . S
C802 C801 1.414 . S
C802 C803 1.374 . S
C803 H783 0.950 . S
C803 C799 1.385 . S
C803 C802 1.374 . S
C804 C801 1.499 . S
C804 C805 1.373 . S
C804 C806 1.389 . S
C805 H784 0.950 . S
C805 C804 1.373 . S
C805 C821 1.377 1_556 S
C806 C804 1.389 . S
C806 C807 1.525 . S
C806 C820 1.377 1_556 S
C807 C806 1.525 . S
C807 C808 1.402 . S
C807 C812 1.357 1_556 S
C808 H785 0.950 . S
C808 C807 1.402 . S
C808 C809 1.334 . S
C809 H786 0.950 . S
C809 C808 1.334 . S
C809 C810 1.289 . S
C810 C809 1.289 . S
C810 C811 1.522 1_556 S
C810 H829 0.913 . S
C811 H787 0.950 . S
C811 C810 1.522 1_554 S
C811 C812 1.415 . S
C812 H788 0.950 . S
C812 C807 1.357 1_554 S
C812 C811 1.415 . S
C813 H789 0.951 . S
C813 C814 1.366 . S
C813 C815 1.388 . S
C814 C813 1.366 . S
C814 C818 1.385 . S
C815 H790 0.951 . S
C815 C813 1.388 . S
C815 C816 1.366 . S
C816 C815 1.366 . S
C816 C817 1.414 . S
C816 C819 1.499 . S
C817 H791 0.950 . S
C817 C816 1.414 . S
C817 C818 1.374 . S
C818 H792 0.950 . S
C818 C814 1.385 . S
C818 C817 1.374 . S
C819 C816 1.499 . S
C819 C820 1.373 . S
C819 C821 1.389 . S
C820 H793 0.950 . S
C820 C806 1.377 1_554 S
C820 C819 1.373 . S
C821 C805 1.377 1_554 S
C821 C819 1.389 . S
C821 C822 1.525 . S
C822 C821 1.525 . S
C822 C823 1.402 . S
C822 C827 1.357 1_554 S
C823 H794 0.950 . S
C823 C822 1.402 . S
C823 C824 1.334 . S
C824 H795 0.950 . S
C824 C823 1.334 . S
C824 C825 1.288 . S
C825 C824 1.288 . S
C825 C826 1.523 1_554 S
C825 H828 0.999 1_554 S
C826 H796 0.950 . S
C826 C825 1.523 1_556 S
C826 C827 1.415 . S
C827 H797 0.950 . S
C827 C822 1.357 1_556 S
C827 C826 1.415 . S
H828 C825 0.999 1_556 S
H829 C810 0.913 . S
H830 C848 0.951 . S
H831 C850 0.951 . S
H832 C852 0.950 . S
H833 C853 0.950 . S
H834 C855 0.950 . S
H835 C858 0.950 . S
H836 C859 0.950 . S
H837 C861 0.950 . S
H838 C862 0.950 . S
H839 C863 0.951 . S
H840 C865 0.951 . S
H841 C867 0.950 . S
H842 C868 0.950 . S
H843 C870 0.950 . S
H844 C873 0.950 . S
H845 C874 0.950 . S
H846 C876 0.950 . S
H847 C877 0.950 . S
C848 H830 0.951 . S
C848 C849 1.366 . S
C848 C850 1.388 . S
C849 C848 1.366 . S
C849 C853 1.385 . S
C850 H831 0.951 . S
C850 C848 1.388 . S
C850 C851 1.366 . S
C851 C850 1.366 . S
C851 C852 1.414 . S
C851 C854 1.499 . S
C852 H832 0.950 . S
C852 C851 1.414 . S
C852 C853 1.374 . S
C853 H833 0.950 . S
C853 C849 1.385 . S
C853 C852 1.374 . S
C854 C851 1.499 . S
C854 C855 1.373 . S
C854 C856 1.389 . S
C855 H834 0.950 . S
C855 C854 1.373 . S
C855 C871 1.377 . S
C856 C854 1.389 . S
C856 C857 1.524 . S
C856 C870 1.377 . S
C857 C856 1.524 . S
C857 C858 1.397 . S
C857 C862 1.363 . S
C858 H835 0.950 . S
C858 C857 1.397 . S
C858 C859 1.334 . S
C859 H836 0.950 . S
C859 C858 1.334 . S
C859 C860 1.287 . S
C860 C859 1.287 . S
C860 C861 1.524 . S
C860 H879 0.913 . S
C861 H837 0.950 . S
C861 C860 1.524 . S
C861 C862 1.415 . S
C862 H838 0.950 . S
C862 C857 1.363 . S
C862 C861 1.415 . S
C863 H839 0.951 . S
C863 C864 1.366 . S
C863 C865 1.388 . S
C864 C863 1.366 . S
C864 C868 1.385 . S
C865 H840 0.951 . S
C865 C863 1.388 . S
C865 C866 1.366 . S
C866 C865 1.366 . S
C866 C867 1.414 . S
C866 C869 1.499 . S
C867 H841 0.950 . S
C867 C866 1.414 . S
C867 C868 1.374 . S
C868 H842 0.950 . S
C868 C864 1.385 . S
C868 C867 1.374 . S
C869 C866 1.499 . S
C869 C870 1.373 . S
C869 C871 1.389 . S
C870 H843 0.950 . S
C870 C856 1.377 . S
C870 C869 1.373 . S
C871 C855 1.377 . S
C871 C869 1.389 . S
C871 C872 1.524 . S
C872 C871 1.524 . S
C872 C873 1.397 . S
C872 C877 1.363 . S
C873 H844 0.950 . S
C873 C872 1.397 . S
C873 C874 1.334 . S
C874 H845 0.950 . S
C874 C873 1.334 . S
C874 C875 1.287 . S
C875 C874 1.287 . S
C875 C876 1.524 . S
C875 H878 0.999 . S
C876 H846 0.950 . S
C876 C875 1.524 . S
C876 C877 1.415 . S
C877 H847 0.950 . S
C877 C872 1.363 . S
C877 C876 1.415 . S
H878 C875 0.999 . S
H879 C860 0.913 . S
H880 C898 0.951 . S
H881 C900 0.951 . S
H882 C902 0.950 . S
H883 C903 0.950 . S
H884 C905 0.950 . S
H885 C908 0.950 . S
H886 C909 0.950 . S
H887 C911 0.950 . S
H888 C912 0.950 . S
H889 C913 0.951 . S
H890 C915 0.951 . S
H891 C917 0.950 . S
H892 C918 0.950 . S
H893 C920 0.950 . S
H894 C923 0.950 . S
H895 C924 0.950 . S
H896 C926 0.950 . S
H897 C927 0.950 . S
C898 H880 0.951 . S
C898 C899 1.366 . S
C898 C900 1.388 . S
C899 C898 1.366 . S
C899 C903 1.385 . S
C900 H881 0.951 . S
C900 C898 1.388 . S
C900 C901 1.366 . S
C901 C900 1.366 . S
C901 C902 1.414 . S
C901 C904 1.499 . S
C902 H882 0.950 . S
C902 C901 1.414 . S
C902 C903 1.374 . S
C903 H883 0.950 . S
C903 C899 1.385 . S
C903 C902 1.374 . S
C904 C901 1.499 . S
C904 C905 1.373 . S
C904 C906 1.389 . S
C905 H884 0.950 . S
C905 C904 1.373 . S
C905 C921 1.377 . S
C906 C904 1.389 . S
C906 C907 1.524 . S
C906 C920 1.377 . S
C907 C906 1.524 . S
C907 C908 1.397 . S
C907 C912 1.363 . S
C908 H885 0.950 . S
C908 C907 1.397 . S
C908 C909 1.334 . S
C909 H886 0.950 . S
C909 C908 1.334 . S
C909 C910 1.287 . S
C910 C909 1.287 . S
C910 C911 1.524 . S
C910 H929 0.913 . S
C911 H887 0.950 . S
C911 C910 1.524 . S
C911 C912 1.415 . S
C912 H888 0.950 . S
C912 C907 1.363 . S
C912 C911 1.415 . S
C913 H889 0.951 . S
C913 C914 1.366 . S
C913 C915 1.388 . S
C914 C913 1.366 . S
C914 C918 1.385 . S
C915 H890 0.951 . S
C915 C913 1.388 . S
C915 C916 1.366 . S
C916 C915 1.366 . S
C916 C917 1.414 . S
C916 C919 1.499 . S
C917 H891 0.950 . S
C917 C916 1.414 . S
C917 C918 1.374 . S
C918 H892 0.950 . S
C918 C914 1.385 . S
C918 C917 1.374 . S
C919 C916 1.499 . S
C919 C920 1.373 . S
C919 C921 1.389 . S
C920 H893 0.950 . S
C920 C906 1.377 . S
C920 C919 1.373 . S
C921 C905 1.377 . S
C921 C919 1.389 . S
C921 C922 1.524 . S
C922 C921 1.524 . S
C922 C923 1.397 . S
C922 C927 1.363 . S
C923 H894 0.950 . S
C923 C922 1.397 . S
C923 C924 1.334 . S
C924 H895 0.950 . S
C924 C923 1.334 . S
C924 C925 1.287 . S
C925 C924 1.287 . S
C925 C926 1.524 . S
C925 H928 0.999 . S
C926 H896 0.950 . S
C926 C925 1.524 . S
C926 C927 1.415 . S
C927 H897 0.950 . S
C927 C922 1.363 . S
C927 C926 1.415 . S
H928 C925 0.999 . S
H929 C910 0.913 . S
H930 C948 0.951 . S
H931 C950 0.951 . S
H932 C952 0.950 . S
H933 C953 0.950 . S
H934 C955 0.950 . S
H935 C958 0.950 . S
H936 C959 0.950 . S
H937 C961 0.950 . S
H938 C962 0.950 . S
H939 C963 0.951 . S
H940 C965 0.951 . S
H941 C967 0.950 . S
H942 C968 0.950 . S
H943 C970 0.950 . S
H944 C973 0.950 . S
H945 C974 0.950 . S
H946 C976 0.950 . S
H947 C977 0.950 . S
C948 H930 0.951 . S
C948 C949 1.366 . S
C948 C950 1.388 . S
C949 C948 1.366 . S
C949 C953 1.385 . S
C950 H931 0.951 . S
C950 C948 1.388 . S
C950 C951 1.366 . S
C951 C950 1.366 . S
C951 C952 1.414 . S
C951 C954 1.499 . S
C952 H932 0.950 . S
C952 C951 1.414 . S
C952 C953 1.374 . S
C953 H933 0.950 . S
C953 C949 1.385 . S
C953 C952 1.374 . S
C954 C951 1.499 . S
C954 C955 1.373 . S
C954 C956 1.389 . S
C955 H934 0.950 . S
C955 C954 1.373 . S
C955 C971 1.377 1_556 S
C956 C954 1.389 . S
C956 C957 1.524 . S
C956 C970 1.377 1_556 S
C957 C956 1.524 . S
C957 C958 1.397 . S
C957 C962 1.363 1_556 S
C958 H935 0.950 . S
C958 C957 1.397 . S
C958 C959 1.334 . S
C959 H936 0.950 . S
C959 C958 1.334 . S
C959 C960 1.287 . S
C960 C959 1.287 . S
C960 C961 1.524 1_556 S
C960 H979 0.913 . S
C961 H937 0.950 . S
C961 C960 1.524 1_554 S
C961 C962 1.415 . S
C962 H938 0.950 . S
C962 C957 1.363 1_554 S
C962 C961 1.415 . S
C963 H939 0.951 . S
C963 C964 1.366 . S
C963 C965 1.388 . S
C964 C963 1.366 . S
C964 C968 1.385 . S
C965 H940 0.951 . S
C965 C963 1.388 . S
C965 C966 1.366 . S
C966 C965 1.366 . S
C966 C967 1.414 . S
C966 C969 1.499 . S
C967 H941 0.950 . S
C967 C966 1.414 . S
C967 C968 1.374 . S
C968 H942 0.950 . S
C968 C964 1.385 . S
C968 C967 1.374 . S
C969 C966 1.499 . S
C969 C970 1.373 . S
C969 C971 1.389 . S
C970 H943 0.950 . S
C970 C956 1.377 1_554 S
C970 C969 1.373 . S
C971 C955 1.377 1_554 S
C971 C969 1.389 . S
C971 C972 1.524 . S
C972 C971 1.524 . S
C972 C973 1.397 . S
C972 C977 1.363 1_554 S
C973 H944 0.950 . S
C973 C972 1.397 . S
C973 C974 1.334 . S
C974 H945 0.950 . S
C974 C973 1.334 . S
C974 C975 1.287 . S
C975 C974 1.287 . S
C975 C976 1.524 1_554 S
C975 H978 0.999 . S
C976 H946 0.950 . S
C976 C975 1.524 1_556 S
C976 C977 1.415 . S
C977 H947 0.950 . S
C977 C972 1.363 1_556 S
C977 C976 1.415 . S
H978 C975 0.999 . S
H979 C960 0.913 . S
H980 C998 0.951 . S
H981 C1000 0.951 . S
H982 C1002 0.950 . S
H983 C1003 0.950 . S
H984 C1005 0.950 . S
H985 C1008 0.950 . S
H986 C1009 0.950 . S
H987 C1011 0.950 . S
H988 C1012 0.950 . S
H989 C1013 0.951 . S
H990 C1015 0.951 . S
H991 C1017 0.950 . S
H992 C1018 0.950 . S
H993 C1020 0.950 . S
H994 C1023 0.950 . S
H995 C1024 0.950 . S
H996 C1026 0.950 . S
H997 C1027 0.950 . S
C998 H980 0.951 . S
C998 C999 1.366 . S
C998 C1000 1.388 . S
C999 C998 1.366 . S
C999 C1003 1.385 . S
C1000 H981 0.951 . S
C1000 C998 1.388 . S
C1000 C1001 1.366 . S
C1001 C1000 1.366 . S
C1001 C1002 1.414 . S
C1001 C1004 1.499 . S
C1002 H982 0.950 . S
C1002 C1001 1.414 . S
C1002 C1003 1.374 . S
C1003 H983 0.950 . S
C1003 C999 1.385 . S
C1003 C1002 1.374 . S
C1004 C1001 1.499 . S
C1004 C1005 1.373 . S
C1004 C1006 1.389 . S
C1005 H984 0.950 . S
C1005 C1004 1.373 . S
C1005 C1021 1.377 . S
C1006 C1004 1.389 . S
C1006 C1007 1.524 . S
C1006 C1020 1.377 . S
C1007 C1006 1.524 . S
C1007 C1008 1.397 . S
C1007 C1012 1.363 . S
C1008 H985 0.950 . S
C1008 C1007 1.397 . S
C1008 C1009 1.334 . S
C1009 H986 0.950 . S
C1009 C1008 1.334 . S
C1009 C1010 1.287 . S
C1010 C1009 1.287 . S
C1010 C1011 1.524 . S
C1010 H1029 0.913 . S
C1011 H987 0.950 . S
C1011 C1010 1.524 . S
C1011 C1012 1.415 . S
C1012 H988 0.950 . S
C1012 C1007 1.363 . S
C1012 C1011 1.415 . S
C1013 H989 0.951 . S
C1013 C1014 1.366 . S
C1013 C1015 1.388 . S
C1014 C1013 1.366 . S
C1014 C1018 1.385 . S
C1015 H990 0.951 . S
C1015 C1013 1.388 . S
C1015 C1016 1.366 . S
C1016 C1015 1.366 . S
C1016 C1017 1.414 . S
C1016 C1019 1.499 . S
C1017 H991 0.950 . S
C1017 C1016 1.414 . S
C1017 C1018 1.374 . S
C1018 H992 0.950 . S
C1018 C1014 1.385 . S
C1018 C1017 1.374 . S
C1019 C1016 1.499 . S
C1019 C1020 1.373 . S
C1019 C1021 1.389 . S
C1020 H993 0.950 . S
C1020 C1006 1.377 . S
C1020 C1019 1.373 . S
C1021 C1005 1.377 . S
C1021 C1019 1.389 . S
C1021 C1022 1.524 . S
C1022 C1021 1.524 . S
C1022 C1023 1.397 . S
C1022 C1027 1.363 . S
C1023 H994 0.950 . S
C1023 C1022 1.397 . S
C1023 C1024 1.334 . S
C1024 H995 0.950 . S
C1024 C1023 1.334 . S
C1024 C1025 1.287 . S
C1025 C1024 1.287 . S
C1025 C1026 1.524 . S
C1025 H1028 0.999 . S
C1026 H996 0.950 . S
C1026 C1025 1.524 . S
C1026 C1027 1.415 . S
C1027 H997 0.950 . S
C1027 C1022 1.363 . S
C1027 C1026 1.415 . S
H1028 C1025 0.999 . S
H1029 C1010 0.913 . S
H1030 C1048 0.951 . S
H1031 C1050 0.951 . S
H1032 C1052 0.950 . S
H1033 C1053 0.950 . S
H1034 C1055 0.950 . S
H1035 C1058 0.950 . S
H1036 C1059 0.950 . S
H1037 C1061 0.950 . S
H1038 C1062 0.950 . S
H1039 C1063 0.951 . S
H1040 C1065 0.951 . S
H1041 C1067 0.950 . S
H1042 C1068 0.950 . S
H1043 C1070 0.950 . S
H1044 C1073 0.950 . S
H1045 C1074 0.950 . S
H1046 C1076 0.950 . S
H1047 C1077 0.950 . S
C1048 H1030 0.951 . S
C1048 C1049 1.366 . S
C1048 C1050 1.388 . S
C1049 C1048 1.366 . S
C1049 C1053 1.385 . S
C1050 H1031 0.951 . S
C1050 C1048 1.388 . S
C1050 C1051 1.366 . S
C1051 C1050 1.366 . S
C1051 C1052 1.414 . S
C1051 C1054 1.499 . S
C1052 H1032 0.950 . S
C1052 C1051 1.414 . S
C1052 C1053 1.374 . S
C1053 H1033 0.950 . S
C1053 C1049 1.385 . S
C1053 C1052 1.374 . S
C1054 C1051 1.499 . S
C1054 C1055 1.373 . S
C1054 C1056 1.389 . S
C1055 H1034 0.950 . S
C1055 C1054 1.373 . S
C1055 C1071 1.377 . S
C1056 C1054 1.389 . S
C1056 C1057 1.524 . S
C1056 C1070 1.377 . S
C1057 C1056 1.524 . S
C1057 C1058 1.397 . S
C1057 C1062 1.363 . S
C1058 H1035 0.950 . S
C1058 C1057 1.397 . S
C1058 C1059 1.334 . S
C1059 H1036 0.950 . S
C1059 C1058 1.334 . S
C1059 C1060 1.287 . S
C1060 C1059 1.287 . S
C1060 C1061 1.524 . S
C1060 H1079 0.913 . S
C1061 H1037 0.950 . S
C1061 C1060 1.524 . S
C1061 C1062 1.415 . S
C1062 H1038 0.950 . S
C1062 C1057 1.363 . S
C1062 C1061 1.415 . S
C1063 H1039 0.951 . S
C1063 C1064 1.366 . S
C1063 C1065 1.388 . S
C1064 C1063 1.366 . S
C1064 C1068 1.385 . S
C1065 H1040 0.951 . S
C1065 C1063 1.388 . S
C1065 C1066 1.366 . S
C1066 C1065 1.366 . S
C1066 C1067 1.414 . S
C1066 C1069 1.499 . S
C1067 H1041 0.950 . S
C1067 C1066 1.414 . S
C1067 C1068 1.374 . S
C1068 H1042 0.950 . S
C1068 C1064 1.385 . S
C1068 C1067 1.374 . S
C1069 C1066 1.499 . S
C1069 C1070 1.373 . S
C1069 C1071 1.389 . S
C1070 H1043 0.950 . S
C1070 C1056 1.377 . S
C1070 C1069 1.373 . S
C1071 C1055 1.377 . S
C1071 C1069 1.389 . S
C1071 C1072 1.524 . S
C1072 C1071 1.524 . S
C1072 C1073 1.397 . S
C1072 C1077 1.363 . S
C1073 H1044 0.950 . S
C1073 C1072 1.397 . S
C1073 C1074 1.334 . S
C1074 H1045 0.950 . S
C1074 C1073 1.334 . S
C1074 C1075 1.287 . S
C1075 C1074 1.287 . S
C1075 C1076 1.524 . S
C1075 H1078 0.999 . S
C1076 H1046 0.950 . S
C1076 C1075 1.524 . S
C1076 C1077 1.415 . S
C1077 H1047 0.950 . S
C1077 C1072 1.363 . S
C1077 C1076 1.415 . S
H1078 C1075 0.999 . S
H1079 C1060 0.913 . S
H1080 C1098 0.951 . S
H1081 C1100 0.951 . S
H1082 C1102 0.950 . S
H1083 C1103 0.950 . S
H1084 C1105 0.950 . S
H1085 C1108 0.950 . S
H1086 C1109 0.950 . S
H1087 C1111 0.950 . S
H1088 C1112 0.950 . S
H1089 C1113 0.951 . S
H1090 C1115 0.951 . S
H1091 C1117 0.950 . S
H1092 C1118 0.950 . S
H1093 C1120 0.950 . S
H1094 C1123 0.950 . S
H1095 C1124 0.950 . S
H1096 C1126 0.950 . S
H1097 C1127 0.950 . S
C1098 H1080 0.951 . S
C1098 C1099 1.366 . S
C1098 C1100 1.388 . S
C1099 C1098 1.366 . S
C1099 C1103 1.385 . S
C1100 H1081 0.951 . S
C1100 C1098 1.388 . S
C1100 C1101 1.366 . S
C1101 C1100 1.366 . S
C1101 C1102 1.414 . S
C1101 C1104 1.499 . S
C1102 H1082 0.950 . S
C1102 C1101 1.414 . S
C1102 C1103 1.374 . S
C1103 H1083 0.950 . S
C1103 C1099 1.385 . S
C1103 C1102 1.374 . S
C1104 C1101 1.499 . S
C1104 C1105 1.373 1_556 S
C1104 C1106 1.389 1_565 S
C1105 H1084 0.950 . S
C1105 C1104 1.373 1_554 S
C1105 C1121 1.377 . S
C1106 C1104 1.389 1_545 S
C1106 C1107 1.524 . S
C1106 C1120 1.377 . S
C1107 C1106 1.524 . S
C1107 C1108 1.397 . S
C1107 C1112 1.363 . S
C1108 H1085 0.950 . S
C1108 C1107 1.397 . S
C1108 C1109 1.334 . S
C1109 H1086 0.950 . S
C1109 C1108 1.334 . S
C1109 C1110 1.287 . S
C1110 C1109 1.287 . S
C1110 C1111 1.524 . S
C1110 H1129 0.913 . S
C1111 H1087 0.950 . S
C1111 C1110 1.524 . S
C1111 C1112 1.415 . S
C1112 H1088 0.950 . S
C1112 C1107 1.363 . S
C1112 C1111 1.415 . S
C1113 H1089 0.951 . S
C1113 C1114 1.366 . S
C1113 C1115 1.388 . S
C1114 C1113 1.366 . S
C1114 C1118 1.385 . S
C1115 H1090 0.951 . S
C1115 C1113 1.388 . S
C1115 C1116 1.366 . S
C1116 C1115 1.366 . S
C1116 C1117 1.414 . S
C1116 C1119 1.499 . S
C1117 H1091 0.950 . S
C1117 C1116 1.414 . S
C1117 C1118 1.374 . S
C1118 H1092 0.950 . S
C1118 C1114 1.385 . S
C1118 C1117 1.374 . S
C1119 C1116 1.499 . S
C1119 C1120 1.373 1_554 S
C1119 C1121 1.389 1_545 S
C1120 H1093 0.950 . S
C1120 C1106 1.377 . S
C1120 C1119 1.373 1_556 S
C1121 C1105 1.377 . S
C1121 C1119 1.389 1_565 S
C1121 C1122 1.524 . S
C1122 C1121 1.524 . S
C1122 C1123 1.397 . S
C1122 C1127 1.363 . S
C1123 H1094 0.950 . S
C1123 C1122 1.397 . S
C1123 C1124 1.334 . S
C1124 H1095 0.950 . S
C1124 C1123 1.334 . S
C1124 C1125 1.287 . S
C1125 C1124 1.287 . S
C1125 C1126 1.524 . S
C1125 H1128 0.999 . S
C1126 H1096 0.950 . S
C1126 C1125 1.524 . S
C1126 C1127 1.415 . S
C1127 H1097 0.950 . S
C1127 C1122 1.363 . S
C1127 C1126 1.415 . S
H1128 C1125 0.999 . S
H1129 C1110 0.913 . S
H1130 C1148 0.951 . S
H1131 C1150 0.951 . S
H1132 C1152 0.950 . S
H1133 C1153 0.950 . S
H1134 C1155 0.950 . S
H1135 C1158 0.950 . S
H1136 C1159 0.950 . S
H1137 C1161 0.950 . S
H1138 C1162 0.950 . S
H1139 C1163 0.951 . S
H1140 C1165 0.951 . S
H1141 C1167 0.950 . S
H1142 C1168 0.950 . S
H1143 C1170 0.950 . S
H1144 C1173 0.950 . S
H1145 C1174 0.950 . S
H1146 C1176 0.950 . S
H1147 C1177 0.950 . S
C1148 H1130 0.951 . S
C1148 C1149 1.366 . S
C1148 C1150 1.388 . S
C1149 C1148 1.366 . S
C1149 C1153 1.385 . S
C1150 H1131 0.951 . S
C1150 C1148 1.388 . S
C1150 C1151 1.366 . S
C1151 C1150 1.366 . S
C1151 C1152 1.414 . S
C1151 C1154 1.499 . S
C1152 H1132 0.950 . S
C1152 C1151 1.414 . S
C1152 C1153 1.374 . S
C1153 H1133 0.950 . S
C1153 C1149 1.385 . S
C1153 C1152 1.374 . S
C1154 C1151 1.499 . S
C1154 C1155 1.373 . S
C1154 C1156 1.389 . S
C1155 H1134 0.950 . S
C1155 C1154 1.373 . S
C1155 C1171 1.377 . S
C1156 C1154 1.389 . S
C1156 C1157 1.524 . S
C1156 C1170 1.377 . S
C1157 C1156 1.524 . S
C1157 C1158 1.397 . S
C1157 C1162 1.363 . S
C1158 H1135 0.950 . S
C1158 C1157 1.397 . S
C1158 C1159 1.334 . S
C1159 H1136 0.950 . S
C1159 C1158 1.334 . S
C1159 C1160 1.287 . S
C1160 C1159 1.287 . S
C1160 C1161 1.524 . S
C1160 H1179 0.913 . S
C1161 H1137 0.950 . S
C1161 C1160 1.524 . S
C1161 C1162 1.415 . S
C1162 H1138 0.950 . S
C1162 C1157 1.363 . S
C1162 C1161 1.415 . S
C1163 H1139 0.951 . S
C1163 C1164 1.366 . S
C1163 C1165 1.388 . S
C1164 C1163 1.366 . S
C1164 C1168 1.385 . S
C1165 H1140 0.951 . S
C1165 C1163 1.388 . S
C1165 C1166 1.366 . S
C1166 C1165 1.366 . S
C1166 C1167 1.414 . S
C1166 C1169 1.499 . S
C1167 H1141 0.950 . S
C1167 C1166 1.414 . S
C1167 C1168 1.374 . S
C1168 H1142 0.950 . S
C1168 C1164 1.385 . S
C1168 C1167 1.374 . S
C1169 C1166 1.499 . S
C1169 C1170 1.373 . S
C1169 C1171 1.389 . S
C1170 H1143 0.950 . S
C1170 C1156 1.377 . S
C1170 C1169 1.373 . S
C1171 C1155 1.377 . S
C1171 C1169 1.389 . S
C1171 C1172 1.524 . S
C1172 C1171 1.524 . S
C1172 C1173 1.397 . S
C1172 C1177 1.363 . S
C1173 H1144 0.950 . S
C1173 C1172 1.397 . S
C1173 C1174 1.334 . S
C1174 H1145 0.950 . S
C1174 C1173 1.334 . S
C1174 C1175 1.287 . S
C1175 C1174 1.287 . S
C1175 C1176 1.524 . S
C1175 H1178 0.999 . S
C1176 H1146 0.950 . S
C1176 C1175 1.524 . S
C1176 C1177 1.415 . S
C1177 H1147 0.950 . S
C1177 C1172 1.363 . S
C1177 C1176 1.415 . S
H1178 C1175 0.999 . S
H1179 C1160 0.913 . S
H1180 C1198 0.951 . S
H1181 C1200 0.951 . S
H1182 C1202 0.950 . S
H1183 C1203 0.950 . S
H1184 C1205 0.950 . S
H1185 C1208 0.950 1_455 S
H1186 C1209 0.950 . S
H1187 C1211 0.950 . S
H1188 C1212 0.950 . S
H1189 C1213 0.951 . S
H1190 C1215 0.951 . S
H1191 C1217 0.950 . S
H1192 C1218 0.950 . S
H1193 C1220 0.950 . S
H1194 C1223 0.950 1_655 S
H1195 C1224 0.950 . S
H1196 C1226 0.950 . S
H1197 C1227 0.950 . S
C1198 H1180 0.951 . S
C1198 C1199 1.366 . S
C1198 C1200 1.388 . S
C1199 C1198 1.366 . S
C1199 C1203 1.385 . S
C1200 H1181 0.951 . S
C1200 C1198 1.388 . S
C1200 C1201 1.366 . S
C1201 C1200 1.366 . S
C1201 C1202 1.414 . S
C1201 C1204 1.499 . S
C1202 H1182 0.950 . S
C1202 C1201 1.414 . S
C1202 C1203 1.374 . S
C1203 H1183 0.950 . S
C1203 C1199 1.385 . S
C1203 C1202 1.374 . S
C1204 C1201 1.499 . S
C1204 C1205 1.373 . S
C1204 C1206 1.389 1_455 S
C1205 H1184 0.950 . S
C1205 C1204 1.373 . S
C1205 C1221 1.377 . S
C1206 C1204 1.389 1_655 S
C1206 C1207 1.524 . S
C1206 C1220 1.377 . S
C1207 C1206 1.524 . S
C1207 C1208 1.397 . S
C1207 C1212 1.363 . S
C1208 H1185 0.950 1_655 S
C1208 C1207 1.397 . S
C1208 C1209 1.334 . S
C1209 H1186 0.950 . S
C1209 C1208 1.334 . S
C1209 C1210 1.287 . S
C1210 C1209 1.287 . S
C1210 C1211 1.524 . S
C1210 H1229 0.913 . S
C1211 H1187 0.950 . S
C1211 C1210 1.524 . S
C1211 C1212 1.415 . S
C1212 H1188 0.950 . S
C1212 C1207 1.363 . S
C1212 C1211 1.415 . S
C1213 H1189 0.951 . S
C1213 C1214 1.366 . S
C1213 C1215 1.388 . S
C1214 C1213 1.366 . S
C1214 C1218 1.385 . S
C1215 H1190 0.951 . S
C1215 C1213 1.388 . S
C1215 C1216 1.366 . S
C1216 C1215 1.366 . S
C1216 C1217 1.414 . S
C1216 C1219 1.499 . S
C1217 H1191 0.950 . S
C1217 C1216 1.414 . S
C1217 C1218 1.374 . S
C1218 H1192 0.950 . S
C1218 C1214 1.385 . S
C1218 C1217 1.374 . S
C1219 C1216 1.499 . S
C1219 C1220 1.373 . S
C1219 C1221 1.389 1_655 S
C1220 H1193 0.950 . S
C1220 C1206 1.377 . S
C1220 C1219 1.373 . S
C1221 C1205 1.377 . S
C1221 C1219 1.389 1_455 S
C1221 C1222 1.524 . S
C1222 C1221 1.524 . S
C1222 C1223 1.397 . S
C1222 C1227 1.363 . S
C1223 H1194 0.950 1_455 S
C1223 C1222 1.397 . S
C1223 C1224 1.334 . S
C1224 H1195 0.950 . S
C1224 C1223 1.334 . S
C1224 C1225 1.287 . S
C1225 C1224 1.287 . S
C1225 C1226 1.524 . S
C1225 H1228 0.999 . S
C1226 H1196 0.950 . S
C1226 C1225 1.524 . S
C1226 C1227 1.415 . S
C1227 H1197 0.950 . S
C1227 C1222 1.363 . S
C1227 C1226 1.415 . S
H1228 C1225 0.999 . S
H1229 C1210 0.913 . S
H1230 C1248 0.951 . S
H1231 C1250 0.951 . S
H1232 C1252 0.950 . S
H1233 C1253 0.950 . S
H1234 C1255 0.950 . S
H1235 C1258 0.950 . S
H1236 C1259 0.950 . S
H1237 C1261 0.950 . S
H1238 C1262 0.950 . S
H1239 C1263 0.951 . S
H1240 C1265 0.951 . S
H1241 C1267 0.950 . S
H1242 C1268 0.950 . S
H1243 C1270 0.950 . S
H1244 C1273 0.950 . S
H1245 C1274 0.950 . S
H1246 C1276 0.950 . S
H1247 C1277 0.950 . S
C1248 H1230 0.951 . S
C1248 C1249 1.366 . S
C1248 C1250 1.388 . S
C1249 C1248 1.366 . S
C1249 C1253 1.385 . S
C1250 H1231 0.951 . S
C1250 C1248 1.388 . S
C1250 C1251 1.366 . S
C1251 C1250 1.366 . S
C1251 C1252 1.414 . S
C1251 C1254 1.499 . S
C1252 H1232 0.950 . S
C1252 C1251 1.414 . S
C1252 C1253 1.374 . S
C1253 H1233 0.950 . S
C1253 C1249 1.385 . S
C1253 C1252 1.374 . S
C1254 C1251 1.499 . S
C1254 C1255 1.373 . S
C1254 C1256 1.389 1_565 S
C1255 H1234 0.950 . S
C1255 C1254 1.373 . S
C1255 C1271 1.377 1_554 S
C1256 C1254 1.389 1_545 S
C1256 C1257 1.524 . S
C1256 C1270 1.377 1_554 S
C1257 C1256 1.524 . S
C1257 C1258 1.397 1_545 S
C1257 C1262 1.363 . S
C1258 H1235 0.950 . S
C1258 C1257 1.397 1_565 S
C1258 C1259 1.334 . S
C1259 H1236 0.950 . S
C1259 C1258 1.334 . S
C1259 C1260 1.287 1_565 S
C1260 C1259 1.287 1_545 S
C1260 C1261 1.524 . S
C1260 H1279 0.913 . S
C1261 H1237 0.950 . S
C1261 C1260 1.524 . S
C1261 C1262 1.415 . S
C1262 H1238 0.950 . S
C1262 C1257 1.363 . S
C1262 C1261 1.415 . S
C1263 H1239 0.951 . S
C1263 C1264 1.366 . S
C1263 C1265 1.388 . S
C1264 C1263 1.366 . S
C1264 C1268 1.385 . S
C1265 H1240 0.951 . S
C1265 C1263 1.388 . S
C1265 C1266 1.366 . S
C1266 C1265 1.366 . S
C1266 C1267 1.414 . S
C1266 C1269 1.499 . S
C1267 H1241 0.950 . S
C1267 C1266 1.414 . S
C1267 C1268 1.374 . S
C1268 H1242 0.950 . S
C1268 C1264 1.385 . S
C1268 C1267 1.374 . S
C1269 C1266 1.499 . S
C1269 C1270 1.373 . S
C1269 C1271 1.389 1_545 S
C1270 H1243 0.950 . S
C1270 C1256 1.377 1_556 S
C1270 C1269 1.373 . S
C1271 C1255 1.377 1_556 S
C1271 C1269 1.389 1_565 S
C1271 C1272 1.524 . S
C1272 C1271 1.524 . S
C1272 C1273 1.397 1_565 S
C1272 C1277 1.363 . S
C1273 H1244 0.950 . S
C1273 C1272 1.397 1_545 S
C1273 C1274 1.334 . S
C1274 H1245 0.950 . S
C1274 C1273 1.334 . S
C1274 C1275 1.287 1_545 S
C1275 C1274 1.287 1_565 S
C1275 C1276 1.524 . S
C1275 H1278 0.999 . S
C1276 H1246 0.950 . S
C1276 C1275 1.524 . S
C1276 C1277 1.415 . S
C1277 H1247 0.950 . S
C1277 C1272 1.363 . S
C1277 C1276 1.415 . S
H1278 C1275 0.999 . S
H1279 C1260 0.913 . S
H1280 C1298 0.951 . S
H1281 C1300 0.951 . S
H1282 C1302 0.950 . S
H1283 C1303 0.950 . S
H1284 C1305 0.950 . S
H1285 C1308 0.950 . S
H1286 C1309 0.950 . S
H1287 C1311 0.950 . S
H1288 C1312 0.950 . S
H1289 C1313 0.951 . S
H1290 C1315 0.951 . S
H1291 C1317 0.950 . S
H1292 C1318 0.950 . S
H1293 C1320 0.950 . S
H1294 C1323 0.950 . S
H1295 C1324 0.950 . S
H1296 C1326 0.950 . S
H1297 C1327 0.950 . S
C1298 H1280 0.951 . S
C1298 C1299 1.366 . S
C1298 C1300 1.388 . S
C1299 C1298 1.366 . S
C1299 C1303 1.385 . S
C1300 H1281 0.951 . S
C1300 C1298 1.388 . S
C1300 C1301 1.366 . S
C1301 C1300 1.366 . S
C1301 C1302 1.414 . S
C1301 C1304 1.499 . S
C1302 H1282 0.950 . S
C1302 C1301 1.414 . S
C1302 C1303 1.374 . S
C1303 H1283 0.950 . S
C1303 C1299 1.385 . S
C1303 C1302 1.374 . S
C1304 C1301 1.499 . S
C1304 C1305 1.373 . S
C1304 C1306 1.389 . S
C1305 H1284 0.950 . S
C1305 C1304 1.373 . S
C1305 C1321 1.377 . S
C1306 C1304 1.389 . S
C1306 C1307 1.524 . S
C1306 C1320 1.377 . S
C1307 C1306 1.524 . S
C1307 C1308 1.397 . S
C1307 C1312 1.363 . S
C1308 H1285 0.950 . S
C1308 C1307 1.397 . S
C1308 C1309 1.334 . S
C1309 H1286 0.950 . S
C1309 C1308 1.334 . S
C1309 C1310 1.287 . S
C1310 C1309 1.287 . S
C1310 C1311 1.524 . S
C1310 H1329 0.913 . S
C1311 H1287 0.950 . S
C1311 C1310 1.524 . S
C1311 C1312 1.415 . S
C1312 H1288 0.950 . S
C1312 C1307 1.363 . S
C1312 C1311 1.415 . S
C1313 H1289 0.951 . S
C1313 C1314 1.366 . S
C1313 C1315 1.388 . S
C1314 C1313 1.366 . S
C1314 C1318 1.385 . S
C1315 H1290 0.951 . S
C1315 C1313 1.388 . S
C1315 C1316 1.366 . S
C1316 C1315 1.366 . S
C1316 C1317 1.414 . S
C1316 C1319 1.499 . S
C1317 H1291 0.950 . S
C1317 C1316 1.414 . S
C1317 C1318 1.374 . S
C1318 H1292 0.950 . S
C1318 C1314 1.385 . S
C1318 C1317 1.374 . S
C1319 C1316 1.499 . S
C1319 C1320 1.373 . S
C1319 C1321 1.389 . S
C1320 H1293 0.950 . S
C1320 C1306 1.377 . S
C1320 C1319 1.373 . S
C1321 C1305 1.377 . S
C1321 C1319 1.389 . S
C1321 C1322 1.524 . S
C1322 C1321 1.524 . S
C1322 C1323 1.397 . S
C1322 C1327 1.363 . S
C1323 H1294 0.950 . S
C1323 C1322 1.397 . S
C1323 C1324 1.334 . S
C1324 H1295 0.950 . S
C1324 C1323 1.334 . S
C1324 C1325 1.287 . S
C1325 C1324 1.287 . S
C1325 C1326 1.524 . S
C1325 H1328 0.999 . S
C1326 H1296 0.950 . S
C1326 C1325 1.524 . S
C1326 C1327 1.415 . S
C1327 H1297 0.950 . S
C1327 C1322 1.363 . S
C1327 C1326 1.415 . S
H1328 C1325 0.999 . S
H1329 C1310 0.913 . S
H1330 C1348 0.951 . S
H1331 C1350 0.951 . S
H1332 C1352 0.950 . S
H1333 C1353 0.950 . S
H1334 C1355 0.950 . S
H1335 C1358 0.950 . S
H1336 C1359 0.950 . S
H1337 C1361 0.950 . S
H1338 C1362 0.950 . S
H1339 C1363 0.951 . S
H1340 C1365 0.951 . S
H1341 C1367 0.950 . S
H1342 C1368 0.950 . S
H1343 C1370 0.950 . S
H1344 C1373 0.950 . S
H1345 C1374 0.950 . S
H1346 C1376 0.950 . S
H1347 C1377 0.950 . S
C1348 H1330 0.951 . S
C1348 C1349 1.366 . S
C1348 C1350 1.388 . S
C1349 C1348 1.366 . S
C1349 C1353 1.385 . S
C1350 H1331 0.951 . S
C1350 C1348 1.388 . S
C1350 C1351 1.366 . S
C1351 C1350 1.366 . S
C1351 C1352 1.414 . S
C1351 C1354 1.499 . S
C1352 H1332 0.950 . S
C1352 C1351 1.414 . S
C1352 C1353 1.374 . S
C1353 H1333 0.950 . S
C1353 C1349 1.385 . S
C1353 C1352 1.374 . S
C1354 C1351 1.499 . S
C1354 C1355 1.373 . S
C1354 C1356 1.389 1_455 S
C1355 H1334 0.950 . S
C1355 C1354 1.373 . S
C1355 C1371 1.377 . S
C1356 C1354 1.389 1_655 S
C1356 C1357 1.524 . S
C1356 C1370 1.377 . S
C1357 C1356 1.524 . S
C1357 C1358 1.397 . S
C1357 C1362 1.363 . S
C1358 H1335 0.950 . S
C1358 C1357 1.397 . S
C1358 C1359 1.334 . S
C1359 H1336 0.950 . S
C1359 C1358 1.334 . S
C1359 C1360 1.287 . S
C1360 C1359 1.287 . S
C1360 C1361 1.524 . S
C1360 H1379 0.913 . S
C1361 H1337 0.950 . S
C1361 C1360 1.524 . S
C1361 C1362 1.415 . S
C1362 H1338 0.950 . S
C1362 C1357 1.363 . S
C1362 C1361 1.415 . S
C1363 H1339 0.951 . S
C1363 C1364 1.366 . S
C1363 C1365 1.388 . S
C1364 C1363 1.366 . S
C1364 C1368 1.385 . S
C1365 H1340 0.951 . S
C1365 C1363 1.388 . S
C1365 C1366 1.366 . S
C1366 C1365 1.366 . S
C1366 C1367 1.414 . S
C1366 C1369 1.499 . S
C1367 H1341 0.950 . S
C1367 C1366 1.414 . S
C1367 C1368 1.374 . S
C1368 H1342 0.950 . S
C1368 C1364 1.385 . S
C1368 C1367 1.374 . S
C1369 C1366 1.499 . S
C1369 C1370 1.373 . S
C1369 C1371 1.389 1_655 S
C1370 H1343 0.950 . S
C1370 C1356 1.377 . S
C1370 C1369 1.373 . S
C1371 C1355 1.377 . S
C1371 C1369 1.389 1_455 S
C1371 C1372 1.524 . S
C1372 C1371 1.524 . S
C1372 C1373 1.397 . S
C1372 C1377 1.363 . S
C1373 H1344 0.950 . S
C1373 C1372 1.397 . S
C1373 C1374 1.334 . S
C1374 H1345 0.950 . S
C1374 C1373 1.334 . S
C1374 C1375 1.287 . S
C1375 C1374 1.287 . S
C1375 C1376 1.524 . S
C1375 H1378 0.999 . S
C1376 H1346 0.950 . S
C1376 C1375 1.524 . S
C1376 C1377 1.415 . S
C1377 H1347 0.950 . S
C1377 C1372 1.363 . S
C1377 C1376 1.415 . S
H1378 C1375 0.999 . S
H1379 C1360 0.913 . S
H1380 C1398 0.951 . S
H1381 C1400 0.951 . S
H1382 C1402 0.950 . S
H1383 C1403 0.950 . S
H1384 C1405 0.950 . S
H1385 C1408 0.950 . S
H1386 C1409 0.950 . S
H1387 C1411 0.950 . S
H1388 C1412 0.950 . S
H1389 C1413 0.951 . S
H1390 C1415 0.951 . S
H1391 C1417 0.950 . S
H1392 C1418 0.950 . S
H1393 C1420 0.950 . S
H1394 C1423 0.950 . S
H1395 C1424 0.950 . S
H1396 C1426 0.950 . S
H1397 C1427 0.950 . S
C1398 H1380 0.951 . S
C1398 C1399 1.366 . S
C1398 C1400 1.388 . S
C1399 C1398 1.366 . S
C1399 C1403 1.385 . S
C1400 H1381 0.951 . S
C1400 C1398 1.388 . S
C1400 C1401 1.366 . S
C1401 C1400 1.366 . S
C1401 C1402 1.414 . S
C1401 C1404 1.499 . S
C1402 H1382 0.950 . S
C1402 C1401 1.414 . S
C1402 C1403 1.374 . S
C1403 H1383 0.950 . S
C1403 C1399 1.385 . S
C1403 C1402 1.374 . S
C1404 C1401 1.499 . S
C1404 C1405 1.373 . S
C1404 C1406 1.389 . S
C1405 H1384 0.950 . S
C1405 C1404 1.373 . S
C1405 C1421 1.377 1_545 S
C1406 C1404 1.389 . S
C1406 C1407 1.524 . S
C1406 C1420 1.377 1_545 S
C1407 C1406 1.524 . S
C1407 C1408 1.397 . S
C1407 C1412 1.363 . S
C1408 H1385 0.950 . S
C1408 C1407 1.397 . S
C1408 C1409 1.334 . S
C1409 H1386 0.950 . S
C1409 C1408 1.334 . S
C1409 C1410 1.287 . S
C1410 C1409 1.287 . S
C1410 C1411 1.524 . S
C1410 H1429 0.913 . S
C1411 H1387 0.950 . S
C1411 C1410 1.524 . S
C1411 C1412 1.415 . S
C1412 H1388 0.950 . S
C1412 C1407 1.363 . S
C1412 C1411 1.415 . S
C1413 H1389 0.951 . S
C1413 C1414 1.366 . S
C1413 C1415 1.388 . S
C1414 C1413 1.366 . S
C1414 C1418 1.385 . S
C1415 H1390 0.951 . S
C1415 C1413 1.388 . S
C1415 C1416 1.366 . S
C1416 C1415 1.366 . S
C1416 C1417 1.414 . S
C1416 C1419 1.499 . S
C1417 H1391 0.950 . S
C1417 C1416 1.414 . S
C1417 C1418 1.374 . S
C1418 H1392 0.950 . S
C1418 C1414 1.385 . S
C1418 C1417 1.374 . S
C1419 C1416 1.499 . S
C1419 C1420 1.373 . S
C1419 C1421 1.389 . S
C1420 H1393 0.950 . S
C1420 C1406 1.377 1_565 S
C1420 C1419 1.373 . S
C1421 C1405 1.377 1_565 S
C1421 C1419 1.389 . S
C1421 C1422 1.524 . S
C1422 C1421 1.524 . S
C1422 C1423 1.397 . S
C1422 C1427 1.363 . S
C1423 H1394 0.950 . S
C1423 C1422 1.397 . S
C1423 C1424 1.334 . S
C1424 H1395 0.950 . S
C1424 C1423 1.334 . S
C1424 C1425 1.287 . S
C1425 C1424 1.287 . S
C1425 C1426 1.524 . S
C1425 H1428 0.999 . S
C1426 H1396 0.950 . S
C1426 C1425 1.524 . S
C1426 C1427 1.415 . S
C1427 H1397 0.950 . S
C1427 C1422 1.363 . S
C1427 C1426 1.415 . S
H1428 C1425 0.999 . S
H1429 C1410 0.913 . S
H1430 C1448 0.951 . S
H1431 C1450 0.951 . S
H1432 C1452 0.950 . S
H1433 C1453 0.950 . S
H1434 C1455 0.950 . S
H1435 C1458 0.950 . S
H1436 C1459 0.950 . S
H1437 C1461 0.950 . S
H1438 C1462 0.950 . S
H1439 C1463 0.951 . S
H1440 C1465 0.951 . S
H1441 C1467 0.950 . S
H1442 C1468 0.950 . S
H1443 C1470 0.950 . S
H1444 C1473 0.950 . S
H1445 C1474 0.950 . S
H1446 C1476 0.950 . S
H1447 C1477 0.950 . S
C1448 H1430 0.951 . S
C1448 C1449 1.366 . S
C1448 C1450 1.388 . S
C1449 C1448 1.366 . S
C1449 C1453 1.385 . S
C1450 H1431 0.951 . S
C1450 C1448 1.388 . S
C1450 C1451 1.366 . S
C1451 C1450 1.366 . S
C1451 C1452 1.414 . S
C1451 C1454 1.499 . S
C1452 H1432 0.950 . S
C1452 C1451 1.414 . S
C1452 C1453 1.374 . S
C1453 H1433 0.950 . S
C1453 C1449 1.385 . S
C1453 C1452 1.374 . S
C1454 C1451 1.499 . S
C1454 C1455 1.373 . S
C1454 C1456 1.389 . S
C1455 H1434 0.950 . S
C1455 C1454 1.373 . S
C1455 C1471 1.377 . S
C1456 C1454 1.389 . S
C1456 C1457 1.524 . S
C1456 C1470 1.377 . S
C1457 C1456 1.524 . S
C1457 C1458 1.397 . S
C1457 C1462 1.363 . S
C1458 H1435 0.950 . S
C1458 C1457 1.397 . S
C1458 C1459 1.334 . S
C1459 H1436 0.950 . S
C1459 C1458 1.334 . S
C1459 C1460 1.287 . S
C1460 C1459 1.287 . S
C1460 C1461 1.524 . S
C1460 H1479 0.913 . S
C1461 H1437 0.950 . S
C1461 C1460 1.524 . S
C1461 C1462 1.415 . S
C1462 H1438 0.950 . S
C1462 C1457 1.363 . S
C1462 C1461 1.415 . S
C1463 H1439 0.951 . S
C1463 C1464 1.366 . S
C1463 C1465 1.388 . S
C1464 C1463 1.366 . S
C1464 C1468 1.385 . S
C1465 H1440 0.951 . S
C1465 C1463 1.388 . S
C1465 C1466 1.366 . S
C1466 C1465 1.366 . S
C1466 C1467 1.414 . S
C1466 C1469 1.499 . S
C1467 H1441 0.950 . S
C1467 C1466 1.414 . S
C1467 C1468 1.374 . S
C1468 H1442 0.950 . S
C1468 C1464 1.385 . S
C1468 C1467 1.374 . S
C1469 C1466 1.499 . S
C1469 C1470 1.373 . S
C1469 C1471 1.389 . S
C1470 H1443 0.950 . S
C1470 C1456 1.377 . S
C1470 C1469 1.373 . S
C1471 C1455 1.377 . S
C1471 C1469 1.389 . S
C1471 C1472 1.524 . S
C1472 C1471 1.524 . S
C1472 C1473 1.397 . S
C1472 C1477 1.363 . S
C1473 H1444 0.950 . S
C1473 C1472 1.397 . S
C1473 C1474 1.334 . S
C1474 H1445 0.950 . S
C1474 C1473 1.334 . S
C1474 C1475 1.287 . S
C1475 C1474 1.287 . S
C1475 C1476 1.524 . S
C1475 H1478 0.999 . S
C1476 H1446 0.950 . S
C1476 C1475 1.524 . S
C1476 C1477 1.415 . S
C1477 H1447 0.950 . S
C1477 C1472 1.363 . S
C1477 C1476 1.415 . S
H1478 C1475 0.999 . S
H1479 C1460 0.913 . S
H1480 C1498 0.951 . S
H1481 C1500 0.951 . S
H1482 C1502 0.950 . S
H1483 C1503 0.950 . S
H1484 C1505 0.950 . S
H1485 C1508 0.950 . S
H1486 C1509 0.950 . S
H1487 C1511 0.950 1_554 S
H1488 C1512 0.950 . S
H1489 C1513 0.951 . S
H1490 C1515 0.951 . S
H1491 C1517 0.950 . S
H1492 C1518 0.950 . S
H1493 C1520 0.950 . S
H1494 C1523 0.950 . S
H1495 C1524 0.950 . S
H1496 C1526 0.950 . S
H1497 C1527 0.950 . S
C1498 H1480 0.951 . S
C1498 C1499 1.366 . S
C1498 C1500 1.388 . S
C1499 C1498 1.366 . S
C1499 C1503 1.385 . S
C1500 H1481 0.951 . S
C1500 C1498 1.388 . S
C1500 C1501 1.366 . S
C1501 C1500 1.366 . S
C1501 C1502 1.414 . S
C1501 C1504 1.499 . S
C1502 H1482 0.950 . S
C1502 C1501 1.414 . S
C1502 C1503 1.374 . S
C1503 H1483 0.950 . S
C1503 C1499 1.385 . S
C1503 C1502 1.374 . S
C1504 C1501 1.499 . S
C1504 C1505 1.373 . S
C1504 C1506 1.389 1_655 S
C1505 H1484 0.950 . S
C1505 C1504 1.373 . S
C1505 C1521 1.377 . S
C1506 C1504 1.389 1_455 S
C1506 C1507 1.524 . S
C1506 C1520 1.377 . S
C1507 C1506 1.524 . S
C1507 C1508 1.397 1_455 S
C1507 C1512 1.363 . S
C1508 H1485 0.950 . S
C1508 C1507 1.397 1_655 S
C1508 C1509 1.334 1_556 S
C1509 H1486 0.950 . S
C1509 C1508 1.334 1_554 S
C1509 C1510 1.287 1_655 S
C1510 C1509 1.287 1_455 S
C1510 C1511 1.524 1_554 S
C1510 H1529 0.913 . S
C1511 H1487 0.950 1_556 S
C1511 C1510 1.524 1_556 S
C1511 C1512 1.415 . S
C1512 H1488 0.950 . S
C1512 C1507 1.363 . S
C1512 C1511 1.415 . S
C1513 H1489 0.951 . S
C1513 C1514 1.366 . S
C1513 C1515 1.388 . S
C1514 C1513 1.366 . S
C1514 C1518 1.385 . S
C1515 H1490 0.951 . S
C1515 C1513 1.388 . S
C1515 C1516 1.366 . S
C1516 C1515 1.366 . S
C1516 C1517 1.414 . S
C1516 C1519 1.499 . S
C1517 H1491 0.950 . S
C1517 C1516 1.414 . S
C1517 C1518 1.374 . S
C1518 H1492 0.950 . S
C1518 C1514 1.385 . S
C1518 C1517 1.374 . S
C1519 C1516 1.499 . S
C1519 C1520 1.373 . S
C1519 C1521 1.389 1_455 S
C1520 H1493 0.950 . S
C1520 C1506 1.377 . S
C1520 C1519 1.373 . S
C1521 C1505 1.377 . S
C1521 C1519 1.389 1_655 S
C1521 C1522 1.524 . S
C1522 C1521 1.524 . S
C1522 C1523 1.397 1_655 S
C1522 C1527 1.363 . S
C1523 H1494 0.950 . S
C1523 C1522 1.397 1_455 S
C1523 C1524 1.334 . S
C1524 H1495 0.950 . S
C1524 C1523 1.334 . S
C1524 C1525 1.287 1_455 S
C1525 C1524 1.287 1_655 S
C1525 C1526 1.524 . S
C1525 H1528 0.999 . S
C1526 H1496 0.950 . S
C1526 C1525 1.524 . S
C1526 C1527 1.415 . S
C1527 H1497 0.950 . S
C1527 C1522 1.363 . S
C1527 C1526 1.415 . S
H1528 C1525 0.999 . S
H1529 C1510 0.913 . S
H1530 C1548 0.951 . S
H1531 C1550 0.951 . S
H1532 C1552 0.950 . S
H1533 C1553 0.950 . S
H1534 C1555 0.950 . S
H1535 C1558 0.950 . S
H1536 C1559 0.950 . S
H1537 C1561 0.969 . S
H1538 C1562 0.950 1_655 S
H1539 C1563 0.951 . S
H1540 C1565 0.951 . S
H1541 C1567 0.950 . S
H1542 C1568 0.950 . S
H1543 C1570 0.950 . S
H1544 C1573 0.950 . S
H1545 C1574 0.950 . S
H1546 C1576 0.969 . S
H1547 C1577 0.950 1_455 S
C1548 H1530 0.951 . S
C1548 C1549 1.366 . S
C1548 C1550 1.388 . S
C1549 C1548 1.366 . S
C1549 C1553 1.385 . S
C1550 H1531 0.951 . S
C1550 C1548 1.388 . S
C1550 C1551 1.366 . S
C1551 C1550 1.366 . S
C1551 C1552 1.414 . S
C1551 C1554 1.499 . S
C1552 H1532 0.950 . S
C1552 C1551 1.414 . S
C1552 C1553 1.374 . S
C1553 H1533 0.950 . S
C1553 C1549 1.385 . S
C1553 C1552 1.374 . S
C1554 C1551 1.499 . S
C1554 C1555 1.373 . S
C1554 C1556 1.389 . S
C1555 H1534 0.950 . S
C1555 C1554 1.373 . S
C1555 C1571 1.377 1_455 S
C1556 C1554 1.389 . S
C1556 C1557 1.524 . S
C1556 C1570 1.377 1_455 S
C1557 C1556 1.524 . S
C1557 C1558 1.397 . S
C1557 C1562 1.363 . S
C1558 H1535 0.950 . S
C1558 C1557 1.397 . S
C1558 C1559 1.334 . S
C1559 H1536 0.950 . S
C1559 C1558 1.334 . S
C1559 C1560 1.287 . S
C1560 C1559 1.287 . S
C1560 C1561 1.524 . S
C1560 H1579 0.913 . S
C1561 H1537 0.969 . S
C1561 C1560 1.524 . S
C1561 C1562 1.415 . S
C1562 H1538 0.950 1_455 S
C1562 C1557 1.363 . S
C1562 C1561 1.415 . S
C1563 H1539 0.951 . S
C1563 C1564 1.366 . S
C1563 C1565 1.388 . S
C1564 C1563 1.366 . S
C1564 C1568 1.385 . S
C1565 H1540 0.951 . S
C1565 C1563 1.388 . S
C1565 C1566 1.366 . S
C1566 C1565 1.366 . S
C1566 C1567 1.414 . S
C1566 C1569 1.499 . S
C1567 H1541 0.950 . S
C1567 C1566 1.414 . S
C1567 C1568 1.374 . S
C1568 H1542 0.950 . S
C1568 C1564 1.385 . S
C1568 C1567 1.374 . S
C1569 C1566 1.499 . S
C1569 C1570 1.373 . S
C1569 C1571 1.389 . S
C1570 H1543 0.950 . S
C1570 C1556 1.377 1_655 S
C1570 C1569 1.373 . S
C1571 C1555 1.377 1_655 S
C1571 C1569 1.389 . S
C1571 C1572 1.524 . S
C1572 C1571 1.524 . S
C1572 C1573 1.397 . S
C1572 C1577 1.363 . S
C1573 H1544 0.950 . S
C1573 C1572 1.397 . S
C1573 C1574 1.334 . S
C1574 H1545 0.950 . S
C1574 C1573 1.334 . S
C1574 C1575 1.287 . S
C1575 C1574 1.287 . S
C1575 C1576 1.524 . S
C1575 H1578 0.999 . S
C1576 H1546 0.969 . S
C1576 C1575 1.524 . S
C1576 C1577 1.415 . S
C1577 H1547 0.950 1_655 S
C1577 C1572 1.363 . S
C1577 C1576 1.415 . S
H1578 C1575 0.999 . S
H1579 C1560 0.913 . S
H1580 C1598 0.951 . S
H1581 C1600 0.951 . S
H1582 C1602 0.950 . S
H1583 C1603 0.950 . S
H1584 C1605 0.950 . S
H1585 C1608 0.950 . S
H1586 C1609 0.950 . S
H1587 C1611 0.950 . S
H1588 C1612 0.950 . S
H1589 C1613 0.951 . S
H1590 C1615 0.951 . S
H1591 C1617 0.950 . S
H1592 C1618 0.950 . S
H1593 C1620 0.950 . S
H1594 C1623 0.950 . S
H1595 C1624 0.950 . S
H1596 C1626 0.950 . S
H1597 C1627 0.950 . S
C1598 H1580 0.951 . S
C1598 C1599 1.366 . S
C1598 C1600 1.388 . S
C1599 C1598 1.366 . S
C1599 C1603 1.385 . S
C1600 H1581 0.951 . S
C1600 C1598 1.388 . S
C1600 C1601 1.366 . S
C1601 C1600 1.366 . S
C1601 C1602 1.414 . S
C1601 C1604 1.499 . S
C1602 H1582 0.950 . S
C1602 C1601 1.414 . S
C1602 C1603 1.374 . S
C1603 H1583 0.950 . S
C1603 C1599 1.385 . S
C1603 C1602 1.374 . S
C1604 C1601 1.499 . S
C1604 C1605 1.373 1_565 S
C1604 C1606 1.389 . S
C1605 H1584 0.950 . S
C1605 C1604 1.373 1_545 S
C1605 C1621 1.377 . S
C1606 C1604 1.389 . S
C1606 C1607 1.524 . S
C1606 C1620 1.377 . S
C1607 C1606 1.524 . S
C1607 C1608 1.397 . S
C1607 C1612 1.363 . S
C1608 H1585 0.950 . S
C1608 C1607 1.397 . S
C1608 C1609 1.334 . S
C1609 H1586 0.950 . S
C1609 C1608 1.334 . S
C1609 C1610 1.287 . S
C1610 C1609 1.287 . S
C1610 C1611 1.524 . S
C1610 H1629 0.913 . S
C1611 H1587 0.950 . S
C1611 C1610 1.524 . S
C1611 C1612 1.415 . S
C1612 H1588 0.950 . S
C1612 C1607 1.363 . S
C1612 C1611 1.415 . S
C1613 H1589 0.951 . S
C1613 C1614 1.366 . S
C1613 C1615 1.388 . S
C1614 C1613 1.366 . S
C1614 C1618 1.385 . S
C1615 H1590 0.951 . S
C1615 C1613 1.388 . S
C1615 C1616 1.366 . S
C1616 C1615 1.366 . S
C1616 C1617 1.414 . S
C1616 C1619 1.499 . S
C1617 H1591 0.950 . S
C1617 C1616 1.414 . S
C1617 C1618 1.374 . S
C1618 H1592 0.950 . S
C1618 C1614 1.385 . S
C1618 C1617 1.374 . S
C1619 C1616 1.499 . S
C1619 C1620 1.373 1_545 S
C1619 C1621 1.389 . S
C1620 H1593 0.950 . S
C1620 C1606 1.377 . S
C1620 C1619 1.373 1_565 S
C1621 C1605 1.377 . S
C1621 C1619 1.389 . S
C1621 C1622 1.524 . S
C1622 C1621 1.524 . S
C1622 C1623 1.397 . S
C1622 C1627 1.363 . S
C1623 H1594 0.950 . S
C1623 C1622 1.397 . S
C1623 C1624 1.334 . S
C1624 H1595 0.950 . S
C1624 C1623 1.334 . S
C1624 C1625 1.287 . S
C1625 C1624 1.287 . S
C1625 C1626 1.524 . S
C1625 H1628 0.999 . S
C1626 H1596 0.950 . S
C1626 C1625 1.524 . S
C1626 C1627 1.415 . S
C1627 H1597 0.950 . S
C1627 C1622 1.363 . S
C1627 C1626 1.415 . S
H1628 C1625 0.999 . S
H1629 C1610 0.913 . S
H1630 C1648 0.951 . S
H1631 C1650 0.951 . S
H1632 C1652 0.950 . S
H1633 C1653 0.950 . S
H1634 C1655 0.950 . S
H1635 C1658 0.950 . S
H1636 C1659 0.950 . S
H1637 C1661 0.950 . S
H1638 C1662 0.950 . S
H1639 C1663 0.951 . S
H1640 C1665 0.951 . S
H1641 C1667 0.950 . S
H1642 C1668 0.950 . S
H1643 C1670 0.950 . S
H1644 C1673 0.950 . S
H1645 C1674 0.950 . S
H1646 C1676 0.950 . S
H1647 C1677 0.950 . S
C1648 H1630 0.951 . S
C1648 C1649 1.366 . S
C1648 C1650 1.388 . S
C1649 C1648 1.366 . S
C1649 C1653 1.385 . S
C1650 H1631 0.951 . S
C1650 C1648 1.388 . S
C1650 C1651 1.366 . S
C1651 C1650 1.366 . S
C1651 C1652 1.414 . S
C1651 C1654 1.499 . S
C1652 H1632 0.950 . S
C1652 C1651 1.414 . S
C1652 C1653 1.374 . S
C1653 H1633 0.950 . S
C1653 C1649 1.385 . S
C1653 C1652 1.374 . S
C1654 C1651 1.499 . S
C1654 C1655 1.373 . S
C1654 C1656 1.389 . S
C1655 H1634 0.950 . S
C1655 C1654 1.373 . S
C1655 C1671 1.377 . S
C1656 C1654 1.389 . S
C1656 C1657 1.524 . S
C1656 C1670 1.377 . S
C1657 C1656 1.524 . S
C1657 C1658 1.397 . S
C1657 C1662 1.363 . S
C1658 H1635 0.950 . S
C1658 C1657 1.397 . S
C1658 C1659 1.334 1_554 S
C1659 H1636 0.950 . S
C1659 C1658 1.334 1_556 S
C1659 C1660 1.287 . S
C1660 C1659 1.287 . S
C1660 C1661 1.524 . S
C1660 H1679 0.913 . S
C1661 H1637 0.950 . S
C1661 C1660 1.524 . S
C1661 C1662 1.415 1_556 S
C1662 H1638 0.950 . S
C1662 C1657 1.363 . S
C1662 C1661 1.415 1_554 S
C1663 H1639 0.951 . S
C1663 C1664 1.366 . S
C1663 C1665 1.388 . S
C1664 C1663 1.366 . S
C1664 C1668 1.385 . S
C1665 H1640 0.951 . S
C1665 C1663 1.388 . S
C1665 C1666 1.366 . S
C1666 C1665 1.366 . S
C1666 C1667 1.414 . S
C1666 C1669 1.499 . S
C1667 H1641 0.950 . S
C1667 C1666 1.414 . S
C1667 C1668 1.374 . S
C1668 H1642 0.950 . S
C1668 C1664 1.385 . S
C1668 C1667 1.374 . S
C1669 C1666 1.499 . S
C1669 C1670 1.373 . S
C1669 C1671 1.389 . S
C1670 H1643 0.950 . S
C1670 C1656 1.377 . S
C1670 C1669 1.373 . S
C1671 C1655 1.377 . S
C1671 C1669 1.389 . S
C1671 C1672 1.524 . S
C1672 C1671 1.524 . S
C1672 C1673 1.397 . S
C1672 C1677 1.363 . S
C1673 H1644 0.950 . S
C1673 C1672 1.397 . S
C1673 C1674 1.334 . S
C1674 H1645 0.950 . S
C1674 C1673 1.334 . S
C1674 C1675 1.287 . S
C1675 C1674 1.287 . S
C1675 C1676 1.524 . S
C1675 H1678 0.999 . S
C1676 H1646 0.950 . S
C1676 C1675 1.524 . S
C1676 C1677 1.415 . S
C1677 H1647 0.950 . S
C1677 C1672 1.363 . S
C1677 C1676 1.415 . S
H1678 C1675 0.999 . S
H1679 C1660 0.913 . S
H1680 C1698 0.951 . S
H1681 C1700 0.951 . S
H1682 C1702 0.950 . S
H1683 C1703 0.950 . S
H1684 C1705 0.950 . S
H1685 C1708 0.950 . S
H1686 C1709 0.950 . S
H1687 C1711 0.950 . S
H1688 C1712 0.950 . S
H1689 C1713 0.951 . S
H1690 C1715 0.951 . S
H1691 C1717 0.950 . S
H1692 C1718 0.950 . S
H1693 C1720 0.950 . S
H1694 C1723 0.950 . S
H1695 C1724 0.950 . S
H1696 C1726 0.950 . S
H1697 C1727 0.950 . S
C1698 H1680 0.951 . S
C1698 C1699 1.366 . S
C1698 C1700 1.388 . S
C1699 C1698 1.366 . S
C1699 C1703 1.385 . S
C1700 H1681 0.951 . S
C1700 C1698 1.388 . S
C1700 C1701 1.366 . S
C1701 C1700 1.366 . S
C1701 C1702 1.414 . S
C1701 C1704 1.499 . S
C1702 H1682 0.950 . S
C1702 C1701 1.414 . S
C1702 C1703 1.374 . S
C1703 H1683 0.950 . S
C1703 C1699 1.385 . S
C1703 C1702 1.374 . S
C1704 C1701 1.499 . S
C1704 C1705 1.373 1_565 S
C1704 C1706 1.389 . S
C1705 H1684 0.950 . S
C1705 C1704 1.373 1_545 S
C1705 C1721 1.377 . S
C1706 C1704 1.389 . S
C1706 C1707 1.524 . S
C1706 C1720 1.377 . S
C1707 C1706 1.524 . S
C1707 C1708 1.397 . S
C1707 C1712 1.363 . S
C1708 H1685 0.950 . S
C1708 C1707 1.397 . S
C1708 C1709 1.334 . S
C1709 H1686 0.950 . S
C1709 C1708 1.334 . S
C1709 C1710 1.287 . S
C1710 C1709 1.287 . S
C1710 C1711 1.524 . S
C1710 H1729 0.913 . S
C1711 H1687 0.950 . S
C1711 C1710 1.524 . S
C1711 C1712 1.415 . S
C1712 H1688 0.950 . S
C1712 C1707 1.363 . S
C1712 C1711 1.415 . S
C1713 H1689 0.951 . S
C1713 C1714 1.366 . S
C1713 C1715 1.388 . S
C1714 C1713 1.366 . S
C1714 C1718 1.385 . S
C1715 H1690 0.951 . S
C1715 C1713 1.388 . S
C1715 C1716 1.366 . S
C1716 C1715 1.366 . S
C1716 C1717 1.414 . S
C1716 C1719 1.499 . S
C1717 H1691 0.950 . S
C1717 C1716 1.414 . S
C1717 C1718 1.374 . S
C1718 H1692 0.950 . S
C1718 C1714 1.385 . S
C1718 C1717 1.374 . S
C1719 C1716 1.499 . S
C1719 C1720 1.373 1_545 S
C1719 C1721 1.389 . S
C1720 H1693 0.950 . S
C1720 C1706 1.377 . S
C1720 C1719 1.373 1_565 S
C1721 C1705 1.377 . S
C1721 C1719 1.389 . S
C1721 C1722 1.524 . S
C1722 C1721 1.524 . S
C1722 C1723 1.397 . S
C1722 C1727 1.363 . S
C1723 H1694 0.950 . S
C1723 C1722 1.397 . S
C1723 C1724 1.334 . S
C1724 H1695 0.950 . S
C1724 C1723 1.334 . S
C1724 C1725 1.287 . S
C1725 C1724 1.287 . S
C1725 C1726 1.524 . S
C1725 H1728 0.999 . S
C1726 H1696 0.950 . S
C1726 C1725 1.524 . S
C1726 C1727 1.415 . S
C1727 H1697 0.950 . S
C1727 C1722 1.363 . S
C1727 C1726 1.415 . S
H1728 C1725 0.999 . S
H1729 C1710 0.913 . S
H1730 C1748 0.951 . S
H1731 C1750 0.951 . S
H1732 C1752 0.950 . S
H1733 C1753 0.950 . S
H1734 C1755 0.950 . S
H1735 C1758 0.950 . S
H1736 C1759 0.950 . S
H1737 C1761 0.950 . S
H1738 C1762 0.950 . S
H1739 C1763 0.951 . S
H1740 C1765 0.951 . S
H1741 C1767 0.950 . S
H1742 C1768 0.950 . S
H1743 C1770 0.950 . S
H1744 C1773 0.950 . S
H1745 C1774 0.950 . S
H1746 C1776 0.950 . S
H1747 C1777 0.950 . S
C1748 H1730 0.951 . S
C1748 C1749 1.366 . S
C1748 C1750 1.388 . S
C1749 C1748 1.366 . S
C1749 C1753 1.385 . S
C1750 H1731 0.951 . S
C1750 C1748 1.388 . S
C1750 C1751 1.366 . S
C1751 C1750 1.366 . S
C1751 C1752 1.414 . S
C1751 C1754 1.499 . S
C1752 H1732 0.950 . S
C1752 C1751 1.414 . S
C1752 C1753 1.374 . S
C1753 H1733 0.950 . S
C1753 C1749 1.385 . S
C1753 C1752 1.374 . S
C1754 C1751 1.499 . S
C1754 C1755 1.373 . S
C1754 C1756 1.389 . S
C1755 H1734 0.950 . S
C1755 C1754 1.373 . S
C1755 C1771 1.377 . S
C1756 C1754 1.389 . S
C1756 C1757 1.524 . S
C1756 C1770 1.377 . S
C1757 C1756 1.524 . S
C1757 C1758 1.397 . S
C1757 C1762 1.363 . S
C1758 H1735 0.950 . S
C1758 C1757 1.397 . S
C1758 C1759 1.334 . S
C1759 H1736 0.950 . S
C1759 C1758 1.334 . S
C1759 C1760 1.287 . S
C1760 C1759 1.287 . S
C1760 C1761 1.524 . S
C1760 H1779 0.913 . S
C1761 H1737 0.950 . S
C1761 C1760 1.524 . S
C1761 C1762 1.415 . S
C1762 H1738 0.950 . S
C1762 C1757 1.363 . S
C1762 C1761 1.415 . S
C1763 H1739 0.951 . S
C1763 C1764 1.366 . S
C1763 C1765 1.388 . S
C1764 C1763 1.366 . S
C1764 C1768 1.385 . S
C1765 H1740 0.951 . S
C1765 C1763 1.388 . S
C1765 C1766 1.366 . S
C1766 C1765 1.366 . S
C1766 C1767 1.414 . S
C1766 C1769 1.499 . S
C1767 H1741 0.950 . S
C1767 C1766 1.414 . S
C1767 C1768 1.374 . S
C1768 H1742 0.950 . S
C1768 C1764 1.385 . S
C1768 C1767 1.374 . S
C1769 C1766 1.499 . S
C1769 C1770 1.373 . S
C1769 C1771 1.389 . S
C1770 H1743 0.950 . S
C1770 C1756 1.377 . S
C1770 C1769 1.373 . S
C1771 C1755 1.377 . S
C1771 C1769 1.389 . S
C1771 C1772 1.524 . S
C1772 C1771 1.524 . S
C1772 C1773 1.397 . S
C1772 C1777 1.363 . S
C1773 H1744 0.950 . S
C1773 C1772 1.397 . S
C1773 C1774 1.334 . S
C1774 H1745 0.950 . S
C1774 C1773 1.334 . S
C1774 C1775 1.287 . S
C1775 C1774 1.287 . S
C1775 C1776 1.524 . S
C1775 H1778 0.999 . S
C1776 H1746 0.950 . S
C1776 C1775 1.524 . S
C1776 C1777 1.415 . S
C1777 H1747 0.950 . S
C1777 C1772 1.363 . S
C1777 C1776 1.415 . S
H1778 C1775 0.999 . S
H1779 C1760 0.913 . S
H1780 C1798 0.951 . S
H1781 C1800 0.951 . S
H1782 C1802 0.950 . S
H1783 C1803 0.950 . S
H1784 C1805 0.950 . S
H1785 C1808 0.950 . S
H1786 C1809 0.950 . S
H1787 C1811 0.950 . S
H1788 C1812 0.950 . S
H1789 C1813 0.951 . S
H1790 C1815 0.951 . S
H1791 C1817 0.950 . S
H1792 C1818 0.950 . S
H1793 C1820 0.950 . S
H1794 C1823 0.950 . S
H1795 C1824 0.950 . S
H1796 C1826 0.950 . S
H1797 C1827 0.950 . S
C1798 H1780 0.951 . S
C1798 C1799 1.366 . S
C1798 C1800 1.388 . S
C1799 C1798 1.366 . S
C1799 C1803 1.385 . S
C1800 H1781 0.951 . S
C1800 C1798 1.388 . S
C1800 C1801 1.366 . S
C1801 C1800 1.366 . S
C1801 C1802 1.414 . S
C1801 C1804 1.499 . S
C1802 H1782 0.950 . S
C1802 C1801 1.414 . S
C1802 C1803 1.374 . S
C1803 H1783 0.950 . S
C1803 C1799 1.385 . S
C1803 C1802 1.374 . S
C1804 C1801 1.499 . S
C1804 C1805 1.373 . S
C1804 C1806 1.389 1_655 S
C1805 H1784 0.950 . S
C1805 C1804 1.373 . S
C1805 C1821 1.377 . S
C1806 C1804 1.389 1_455 S
C1806 C1807 1.524 . S
C1806 C1820 1.377 . S
C1807 C1806 1.524 . S
C1807 C1808 1.397 . S
C1807 C1812 1.363 . S
C1808 H1785 0.950 . S
C1808 C1807 1.397 . S
C1808 C1809 1.334 . S
C1809 H1786 0.950 . S
C1809 C1808 1.334 . S
C1809 C1810 1.287 . S
C1810 C1809 1.287 . S
C1810 C1811 1.524 . S
C1810 H1829 0.913 . S
C1811 H1787 0.950 . S
C1811 C1810 1.524 . S
C1811 C1812 1.415 . S
C1812 H1788 0.950 . S
C1812 C1807 1.363 . S
C1812 C1811 1.415 . S
C1813 H1789 0.951 . S
C1813 C1814 1.366 . S
C1813 C1815 1.388 . S
C1814 C1813 1.366 . S
C1814 C1818 1.385 . S
C1815 H1790 0.951 . S
C1815 C1813 1.388 . S
C1815 C1816 1.366 . S
C1816 C1815 1.366 . S
C1816 C1817 1.414 . S
C1816 C1819 1.499 . S
C1817 H1791 0.950 . S
C1817 C1816 1.414 . S
C1817 C1818 1.374 . S
C1818 H1792 0.950 . S
C1818 C1814 1.385 . S
C1818 C1817 1.374 . S
C1819 C1816 1.499 . S
C1819 C1820 1.373 . S
C1819 C1821 1.389 1_455 S
C1820 H1793 0.950 . S
C1820 C1806 1.377 . S
C1820 C1819 1.373 . S
C1821 C1805 1.377 . S
C1821 C1819 1.389 1_655 S
C1821 C1822 1.524 . S
C1822 C1821 1.524 . S
C1822 C1823 1.397 . S
C1822 C1827 1.363 . S
C1823 H1794 0.950 . S
C1823 C1822 1.397 . S
C1823 C1824 1.334 . S
C1824 H1795 0.950 . S
C1824 C1823 1.334 . S
C1824 C1825 1.287 . S
C1825 C1824 1.287 . S
C1825 C1826 1.524 . S
C1825 H1828 0.999 . S
C1826 H1796 0.950 . S
C1826 C1825 1.524 . S
C1826 C1827 1.415 . S
C1827 H1797 0.950 . S
C1827 C1822 1.363 . S
C1827 C1826 1.415 . S
H1828 C1825 0.999 . S
H1829 C1810 0.913 . S
H1830 C1848 0.951 . S
H1831 C1850 0.951 . S
H1832 C1852 0.950 1_565 S
H1833 C1853 0.950 . S
H1834 C1855 0.950 . S
H1835 C1858 0.914 1_565 S
H1836 C1859 0.950 . S
H1837 C1861 0.950 . S
H1838 C1862 0.950 . S
H1839 C1863 0.951 . S
H1840 C1865 0.951 . S
H1841 C1867 0.950 1_545 S
H1842 C1868 0.950 . S
H1843 C1870 0.950 . S
H1844 C1873 0.912 1_545 S
H1845 C1874 0.950 . S
H1846 C1876 0.950 . S
H1847 C1877 0.950 . S
C1848 H1830 0.951 . S
C1848 C1849 1.366 . S
C1848 C1850 1.388 . S
C1849 C1848 1.366 . S
C1849 C1853 1.385 . S
C1850 H1831 0.951 . S
C1850 C1848 1.388 . S
C1850 C1851 1.366 . S
C1851 C1850 1.366 . S
C1851 C1852 1.414 . S
C1851 C1854 1.499 . S
C1852 H1832 0.950 1_545 S
C1852 C1851 1.414 . S
C1852 C1853 1.374 . S
C1853 H1833 0.950 . S
C1853 C1849 1.385 . S
C1853 C1852 1.374 . S
C1854 C1851 1.499 . S
C1854 C1855 1.373 1_545 S
C1854 C1856 1.389 . S
C1855 H1834 0.950 . S
C1855 C1854 1.373 1_565 S
C1855 C1871 1.377 . S
C1856 C1854 1.389 . S
C1856 C1857 1.524 . S
C1856 C1870 1.377 . S
C1857 C1856 1.524 . S
C1857 C1858 1.397 . S
C1857 C1862 1.363 . S
C1858 H1835 0.914 1_545 S
C1858 C1857 1.397 . S
C1858 C1859 1.334 . S
C1859 H1836 0.950 . S
C1859 C1858 1.334 . S
C1859 C1860 1.287 . S
C1860 C1859 1.287 . S
C1860 C1861 1.524 . S
C1860 H1879 0.913 . S
C1861 H1837 0.950 . S
C1861 C1860 1.524 . S
C1861 C1862 1.415 . S
C1862 H1838 0.950 . S
C1862 C1857 1.363 . S
C1862 C1861 1.415 . S
C1863 H1839 0.951 . S
C1863 C1864 1.366 . S
C1863 C1865 1.388 . S
C1864 C1863 1.366 . S
C1864 C1868 1.385 . S
C1865 H1840 0.951 . S
C1865 C1863 1.388 . S
C1865 C1866 1.366 . S
C1866 C1865 1.366 . S
C1866 C1867 1.414 . S
C1866 C1869 1.499 . S
C1867 H1841 0.950 1_565 S
C1867 C1866 1.414 . S
C1867 C1868 1.374 . S
C1868 H1842 0.950 . S
C1868 C1864 1.385 . S
C1868 C1867 1.374 . S
C1869 C1866 1.499 . S
C1869 C1870 1.373 1_565 S
C1869 C1871 1.389 . S
C1870 H1843 0.950 . S
C1870 C1856 1.377 . S
C1870 C1869 1.373 1_545 S
C1871 C1855 1.377 . S
C1871 C1869 1.389 . S
C1871 C1872 1.524 . S
C1872 C1871 1.524 . S
C1872 C1873 1.397 . S
C1872 C1877 1.363 . S
C1873 H1844 0.912 1_565 S
C1873 C1872 1.397 . S
C1873 C1874 1.334 . S
C1874 H1845 0.950 . S
C1874 C1873 1.334 . S
C1874 C1875 1.287 . S
C1875 C1874 1.287 . S
C1875 C1876 1.524 . S
C1875 H1878 0.999 . S
C1876 H1846 0.950 . S
C1876 C1875 1.524 . S
C1876 C1877 1.415 . S
C1877 H1847 0.950 . S
C1877 C1872 1.363 . S
C1877 C1876 1.415 . S
H1878 C1875 0.999 . S
H1879 C1860 0.913 . S
H1880 C1898 0.951 . S
H1881 C1900 0.951 . S
H1882 C1902 0.950 . S
H1883 C1903 0.950 . S
H1884 C1905 0.950 . S
H1885 C1908 0.950 . S
H1886 C1909 0.950 . S
H1887 C1911 0.950 . S
H1888 C1912 0.950 . S
H1889 C1913 0.951 . S
H1890 C1915 0.951 . S
H1891 C1917 0.950 . S
H1892 C1918 0.950 . S
H1893 C1920 0.950 . S
H1894 C1923 0.950 . S
H1895 C1924 0.950 . S
H1896 C1926 0.950 . S
H1897 C1927 0.950 . S
C1898 H1880 0.951 . S
C1898 C1899 1.366 . S
C1898 C1900 1.388 . S
C1899 C1898 1.366 . S
C1899 C1903 1.385 . S
C1900 H1881 0.951 . S
C1900 C1898 1.388 . S
C1900 C1901 1.366 . S
C1901 C1900 1.366 . S
C1901 C1902 1.414 . S
C1901 C1904 1.499 . S
C1902 H1882 0.950 . S
C1902 C1901 1.414 . S
C1902 C1903 1.374 . S
C1903 H1883 0.950 . S
C1903 C1899 1.385 . S
C1903 C1902 1.374 . S
C1904 C1901 1.499 . S
C1904 C1905 1.373 . S
C1904 C1906 1.389 . S
C1905 H1884 0.950 . S
C1905 C1904 1.373 . S
C1905 C1921 1.377 . S
C1906 C1904 1.389 . S
C1906 C1907 1.524 . S
C1906 C1920 1.377 . S
C1907 C1906 1.524 . S
C1907 C1908 1.397 . S
C1907 C1912 1.363 . S
C1908 H1885 0.950 . S
C1908 C1907 1.397 . S
C1908 C1909 1.334 . S
C1909 H1886 0.950 . S
C1909 C1908 1.334 . S
C1909 C1910 1.287 . S
C1910 C1909 1.287 . S
C1910 C1911 1.524 . S
C1910 H1929 0.913 . S
C1911 H1887 0.950 . S
C1911 C1910 1.524 . S
C1911 C1912 1.415 . S
C1912 H1888 0.950 . S
C1912 C1907 1.363 . S
C1912 C1911 1.415 . S
C1913 H1889 0.951 . S
C1913 C1914 1.366 . S
C1913 C1915 1.388 . S
C1914 C1913 1.366 . S
C1914 C1918 1.385 . S
C1915 H1890 0.951 . S
C1915 C1913 1.388 . S
C1915 C1916 1.366 . S
C1916 C1915 1.366 . S
C1916 C1917 1.414 . S
C1916 C1919 1.499 . S
C1917 H1891 0.950 . S
C1917 C1916 1.414 . S
C1917 C1918 1.374 . S
C1918 H1892 0.950 . S
C1918 C1914 1.385 . S
C1918 C1917 1.374 . S
C1919 C1916 1.499 . S
C1919 C1920 1.373 . S
C1919 C1921 1.389 . S
C1920 H1893 0.950 . S
C1920 C1906 1.377 . S
C1920 C1919 1.373 . S
C1921 C1905 1.377 . S
C1921 C1919 1.389 . S
C1921 C1922 1.524 . S
C1922 C1921 1.524 . S
C1922 C1923 1.397 . S
C1922 C1927 1.363 . S
C1923 H1894 0.950 . S
C1923 C1922 1.397 . S
C1923 C1924 1.334 . S
C1924 H1895 0.950 . S
C1924 C1923 1.334 . S
C1924 C1925 1.287 . S
C1925 C1924 1.287 . S
C1925 C1926 1.524 . S
C1925 H1928 0.999 . S
C1926 H1896 0.950 . S
C1926 C1925 1.524 . S
C1926 C1927 1.415 . S
C1927 H1897 0.950 . S
C1927 C1922 1.363 . S
C1927 C1926 1.415 . S
H1928 C1925 0.999 . S
H1929 C1910 0.913 . S
H1930 C1948 0.951 . S
H1931 C1950 0.951 . S
H1932 C1952 0.950 . S
H1933 C1953 0.950 . S
H1934 C1955 0.950 . S
H1935 C1958 0.950 . S
H1936 C1959 0.950 . S
H1937 C1961 0.950 . S
H1938 C1962 0.950 . S
H1939 C1963 0.951 . S
H1940 C1965 0.951 . S
H1941 C1967 0.950 . S
H1942 C1968 0.950 . S
H1943 C1970 0.950 . S
H1944 C1973 0.950 . S
H1945 C1974 0.950 . S
H1946 C1976 0.950 . S
H1947 C1977 0.950 . S
C1948 H1930 0.951 . S
C1948 C1949 1.366 . S
C1948 C1950 1.388 . S
C1949 C1948 1.366 . S
C1949 C1953 1.385 . S
C1950 H1931 0.951 . S
C1950 C1948 1.388 . S
C1950 C1951 1.366 . S
C1951 C1950 1.366 . S
C1951 C1952 1.414 . S
C1951 C1954 1.499 . S
C1952 H1932 0.950 . S
C1952 C1951 1.414 . S
C1952 C1953 1.374 . S
C1953 H1933 0.950 . S
C1953 C1949 1.385 . S
C1953 C1952 1.374 . S
C1954 C1951 1.499 . S
C1954 C1955 1.373 . S
C1954 C1956 1.389 1_455 S
C1955 H1934 0.950 . S
C1955 C1954 1.373 . S
C1955 C1971 1.377 . S
C1956 C1954 1.389 1_655 S
C1956 C1957 1.524 . S
C1956 C1970 1.377 . S
C1957 C1956 1.524 . S
C1957 C1958 1.397 . S
C1957 C1962 1.363 . S
C1958 H1935 0.950 . S
C1958 C1957 1.397 . S
C1958 C1959 1.334 . S
C1959 H1936 0.950 . S
C1959 C1958 1.334 . S
C1959 C1960 1.287 . S
C1960 C1959 1.287 . S
C1960 C1961 1.524 . S
C1960 H1979 0.913 . S
C1961 H1937 0.950 . S
C1961 C1960 1.524 . S
C1961 C1962 1.415 . S
C1962 H1938 0.950 . S
C1962 C1957 1.363 . S
C1962 C1961 1.415 . S
C1963 H1939 0.951 . S
C1963 C1964 1.366 . S
C1963 C1965 1.388 . S
C1964 C1963 1.366 . S
C1964 C1968 1.385 . S
C1965 H1940 0.951 . S
C1965 C1963 1.388 . S
C1965 C1966 1.366 . S
C1966 C1965 1.366 . S
C1966 C1967 1.414 . S
C1966 C1969 1.499 . S
C1967 H1941 0.950 . S
C1967 C1966 1.414 . S
C1967 C1968 1.374 . S
C1968 H1942 0.950 . S
C1968 C1964 1.385 . S
C1968 C1967 1.374 . S
C1969 C1966 1.499 . S
C1969 C1970 1.373 . S
C1969 C1971 1.389 1_655 S
C1970 H1943 0.950 . S
C1970 C1956 1.377 . S
C1970 C1969 1.373 . S
C1971 C1955 1.377 . S
C1971 C1969 1.389 1_455 S
C1971 C1972 1.524 . S
C1972 C1971 1.524 . S
C1972 C1973 1.397 . S
C1972 C1977 1.363 . S
C1973 H1944 0.950 . S
C1973 C1972 1.397 . S
C1973 C1974 1.334 . S
C1974 H1945 0.950 . S
C1974 C1973 1.334 . S
C1974 C1975 1.287 . S
C1975 C1974 1.287 . S
C1975 C1976 1.524 . S
C1975 H1978 0.999 . S
C1976 H1946 0.950 . S
C1976 C1975 1.524 . S
C1976 C1977 1.415 . S
C1977 H1947 0.950 . S
C1977 C1972 1.363 . S
C1977 C1976 1.415 . S
H1978 C1975 0.999 . S
H1979 C1960 0.913 . S
H1980 C1998 0.951 . S
H1981 C2000 0.951 . S
H1982 C2002 0.950 . S
H1983 C2003 0.950 . S
H1984 C2005 0.950 . S
H1985 C2008 0.950 . S
H1986 C2009 0.950 . S
H1987 C2011 0.950 . S
H1988 C2012 0.950 . S
H1989 C2013 0.951 . S
H1990 C2015 0.951 . S
H1991 C2017 0.950 . S
H1992 C2018 0.950 . S
H1993 C2020 0.950 . S
H1994 C2023 0.950 . S
H1995 C2024 0.950 . S
H1996 C2026 0.950 . S
H1997 C2027 0.950 . S
C1998 H1980 0.951 . S
C1998 C1999 1.366 . S
C1998 C2000 1.388 . S
C1999 C1998 1.366 . S
C1999 C2003 1.385 . S
C2000 H1981 0.951 . S
C2000 C1998 1.388 . S
C2000 C2001 1.366 . S
C2001 C2000 1.366 . S
C2001 C2002 1.414 . S
C2001 C2004 1.499 . S
C2002 H1982 0.950 . S
C2002 C2001 1.414 . S
C2002 C2003 1.374 . S
C2003 H1983 0.950 . S
C2003 C1999 1.385 . S
C2003 C2002 1.374 . S
C2004 C2001 1.499 . S
C2004 C2005 1.373 . S
C2004 C2006 1.389 . S
C2005 H1984 0.950 . S
C2005 C2004 1.373 . S
C2005 C2021 1.377 . S
C2006 C2004 1.389 . S
C2006 C2007 1.524 . S
C2006 C2020 1.377 . S
C2007 C2006 1.524 . S
C2007 C2008 1.397 . S
C2007 C2012 1.363 . S
C2008 H1985 0.950 . S
C2008 C2007 1.397 . S
C2008 C2009 1.334 . S
C2009 H1986 0.950 . S
C2009 C2008 1.334 . S
C2009 C2010 1.287 . S
C2010 C2009 1.287 . S
C2010 C2011 1.524 . S
C2010 H2029 0.913 . S
C2011 H1987 0.950 . S
C2011 C2010 1.524 . S
C2011 C2012 1.415 . S
C2012 H1988 0.950 . S
C2012 C2007 1.363 . S
C2012 C2011 1.415 . S
C2013 H1989 0.951 . S
C2013 C2014 1.366 . S
C2013 C2015 1.388 . S
C2014 C2013 1.366 . S
C2014 C2018 1.385 . S
C2015 H1990 0.951 . S
C2015 C2013 1.388 . S
C2015 C2016 1.366 . S
C2016 C2015 1.366 . S
C2016 C2017 1.414 . S
C2016 C2019 1.499 . S
C2017 H1991 0.950 . S
C2017 C2016 1.414 . S
C2017 C2018 1.374 . S
C2018 H1992 0.950 . S
C2018 C2014 1.385 . S
C2018 C2017 1.374 . S
C2019 C2016 1.499 . S
C2019 C2020 1.373 . S
C2019 C2021 1.389 . S
C2020 H1993 0.950 . S
C2020 C2006 1.377 . S
C2020 C2019 1.373 . S
C2021 C2005 1.377 . S
C2021 C2019 1.389 . S
C2021 C2022 1.524 . S
C2022 C2021 1.524 . S
C2022 C2023 1.397 . S
C2022 C2027 1.363 . S
C2023 H1994 0.950 . S
C2023 C2022 1.397 . S
C2023 C2024 1.334 . S
C2024 H1995 0.950 . S
C2024 C2023 1.334 . S
C2024 C2025 1.287 . S
C2025 C2024 1.287 . S
C2025 C2026 1.524 . S
C2025 H2028 0.999 . S
C2026 H1996 0.950 . S
C2026 C2025 1.524 . S
C2026 C2027 1.415 . S
C2027 H1997 0.950 . S
C2027 C2022 1.363 . S
C2027 C2026 1.415 . S
H2028 C2025 0.999 . S
H2029 C2010 0.913 . S
H2030 C2048 0.951 . S
H2031 C2050 0.951 . S
H2032 C2052 0.950 . S
H2033 C2053 0.950 . S
H2034 C2055 0.950 . S
H2035 C2058 0.950 . S
H2036 C2059 0.950 . S
H2037 C2061 0.950 . S
H2038 C2062 0.950 . S
H2039 C2063 0.951 . S
H2040 C2065 0.951 . S
H2041 C2067 0.950 . S
H2042 C2068 0.950 . S
H2043 C2070 0.950 . S
H2044 C2073 0.950 . S
H2045 C2074 0.950 . S
H2046 C2076 0.950 . S
H2047 C2077 0.950 . S
C2048 H2030 0.951 . S
C2048 C2049 1.366 . S
C2048 C2050 1.388 . S
C2049 C2048 1.366 . S
C2049 C2053 1.385 . S
C2050 H2031 0.951 . S
C2050 C2048 1.388 . S
C2050 C2051 1.366 . S
C2051 C2050 1.366 . S
C2051 C2052 1.414 . S
C2051 C2054 1.499 . S
C2052 H2032 0.950 . S
C2052 C2051 1.414 . S
C2052 C2053 1.374 . S
C2053 H2033 0.950 . S
C2053 C2049 1.385 . S
C2053 C2052 1.374 . S
C2054 C2051 1.499 . S
C2054 C2055 1.373 . S
C2054 C2056 1.389 . S
C2055 H2034 0.950 . S
C2055 C2054 1.373 . S
C2055 C2071 1.377 . S
C2056 C2054 1.389 . S
C2056 C2057 1.524 . S
C2056 C2070 1.377 . S
C2057 C2056 1.524 . S
C2057 C2058 1.397 . S
C2057 C2062 1.363 . S
C2058 H2035 0.950 . S
C2058 C2057 1.397 . S
C2058 C2059 1.334 . S
C2059 H2036 0.950 . S
C2059 C2058 1.334 . S
C2059 C2060 1.287 . S
C2060 C2059 1.287 . S
C2060 C2061 1.524 . S
C2060 H2079 0.913 . S
C2061 H2037 0.950 . S
C2061 C2060 1.524 . S
C2061 C2062 1.415 . S
C2062 H2038 0.950 . S
C2062 C2057 1.363 . S
C2062 C2061 1.415 . S
C2063 H2039 0.951 . S
C2063 C2064 1.366 . S
C2063 C2065 1.388 . S
C2064 C2063 1.366 . S
C2064 C2068 1.385 . S
C2065 H2040 0.951 . S
C2065 C2063 1.388 . S
C2065 C2066 1.366 . S
C2066 C2065 1.366 . S
C2066 C2067 1.414 . S
C2066 C2069 1.499 . S
C2067 H2041 0.950 . S
C2067 C2066 1.414 . S
C2067 C2068 1.374 . S
C2068 H2042 0.950 . S
C2068 C2064 1.385 . S
C2068 C2067 1.374 . S
C2069 C2066 1.499 . S
C2069 C2070 1.373 . S
C2069 C2071 1.389 . S
C2070 H2043 0.950 . S
C2070 C2056 1.377 . S
C2070 C2069 1.373 . S
C2071 C2055 1.377 . S
C2071 C2069 1.389 . S
C2071 C2072 1.524 . S
C2072 C2071 1.524 . S
C2072 C2073 1.397 . S
C2072 C2077 1.363 . S
C2073 H2044 0.950 . S
C2073 C2072 1.397 . S
C2073 C2074 1.334 . S
C2074 H2045 0.950 . S
C2074 C2073 1.334 . S
C2074 C2075 1.287 . S
C2075 C2074 1.287 . S
C2075 C2076 1.524 . S
C2075 H2078 0.999 . S
C2076 H2046 0.950 . S
C2076 C2075 1.524 . S
C2076 C2077 1.415 . S
C2077 H2047 0.950 . S
C2077 C2072 1.363 . S
C2077 C2076 1.415 . S
H2078 C2075 0.999 . S
H2079 C2060 0.913 . S
H2080 C2098 0.951 . S
H2081 C2100 0.951 . S
H2082 C2102 0.950 . S
H2083 C2103 0.950 . S
H2084 C2105 0.950 . S
H2085 C2108 0.950 . S
H2086 C2109 0.950 . S
H2087 C2111 0.950 . S
H2088 C2112 0.950 . S
H2089 C2113 0.951 . S
H2090 C2115 0.951 . S
H2091 C2117 0.950 . S
H2092 C2118 0.950 . S
H2093 C2120 0.950 . S
H2094 C2123 0.950 . S
H2095 C2124 0.950 . S
H2096 C2126 0.950 . S
H2097 C2127 0.950 . S
C2098 H2080 0.951 . S
C2098 C2099 1.366 . S
C2098 C2100 1.388 . S
C2099 C2098 1.366 . S
C2099 C2103 1.385 . S
C2100 H2081 0.951 . S
C2100 C2098 1.388 . S
C2100 C2101 1.366 . S
C2101 C2100 1.366 . S
C2101 C2102 1.414 . S
C2101 C2104 1.499 . S
C2102 H2082 0.950 . S
C2102 C2101 1.414 . S
C2102 C2103 1.374 . S
C2103 H2083 0.950 . S
C2103 C2099 1.385 . S
C2103 C2102 1.374 . S
C2104 C2101 1.499 . S
C2104 C2105 1.373 . S
C2104 C2106 1.389 . S
C2105 H2084 0.950 . S
C2105 C2104 1.373 . S
C2105 C2121 1.377 . S
C2106 C2104 1.389 . S
C2106 C2107 1.524 . S
C2106 C2120 1.377 . S
C2107 C2106 1.524 . S
C2107 C2108 1.397 . S
C2107 C2112 1.363 . S
C2108 H2085 0.950 . S
C2108 C2107 1.397 . S
C2108 C2109 1.334 . S
C2109 H2086 0.950 . S
C2109 C2108 1.334 . S
C2109 C2110 1.287 . S
C2110 C2109 1.287 . S
C2110 C2111 1.524 . S
C2110 H2129 0.913 . S
C2111 H2087 0.950 . S
C2111 C2110 1.524 . S
C2111 C2112 1.415 . S
C2112 H2088 0.950 . S
C2112 C2107 1.363 . S
C2112 C2111 1.415 . S
C2113 H2089 0.951 . S
C2113 C2114 1.366 . S
C2113 C2115 1.388 . S
C2114 C2113 1.366 . S
C2114 C2118 1.385 . S
C2115 H2090 0.951 . S
C2115 C2113 1.388 . S
C2115 C2116 1.366 . S
C2116 C2115 1.366 . S
C2116 C2117 1.414 . S
C2116 C2119 1.499 . S
C2117 H2091 0.950 . S
C2117 C2116 1.414 . S
C2117 C2118 1.374 . S
C2118 H2092 0.950 . S
C2118 C2114 1.385 . S
C2118 C2117 1.374 . S
C2119 C2116 1.499 . S
C2119 C2120 1.373 . S
C2119 C2121 1.389 . S
C2120 H2093 0.950 . S
C2120 C2106 1.377 . S
C2120 C2119 1.373 . S
C2121 C2105 1.377 . S
C2121 C2119 1.389 . S
C2121 C2122 1.524 . S
C2122 C2121 1.524 . S
C2122 C2123 1.397 . S
C2122 C2127 1.363 . S
C2123 H2094 0.950 . S
C2123 C2122 1.397 . S
C2123 C2124 1.334 . S
C2124 H2095 0.950 . S
C2124 C2123 1.334 . S
C2124 C2125 1.287 . S
C2125 C2124 1.287 . S
C2125 C2126 1.524 . S
C2125 H2128 0.999 . S
C2126 H2096 0.950 . S
C2126 C2125 1.524 . S
C2126 C2127 1.415 . S
C2127 H2097 0.950 . S
C2127 C2122 1.363 . S
C2127 C2126 1.415 . S
H2128 C2125 0.999 . S
H2129 C2110 0.913 . S
H2130 C2148 0.951 . S
H2131 C2150 0.951 . S
H2132 C2152 0.950 . S
H2133 C2153 0.950 . S
H2134 C2155 0.950 . S
H2135 C2158 0.950 . S
H2136 C2159 0.950 . S
H2137 C2161 0.950 . S
H2138 C2162 0.950 . S
H2139 C2163 0.951 . S
H2140 C2165 0.951 . S
H2141 C2167 0.950 . S
H2142 C2168 0.950 . S
H2143 C2170 0.950 . S
H2144 C2173 0.950 . S
H2145 C2174 0.950 . S
H2146 C2176 0.950 . S
H2147 C2177 0.950 . S
C2148 H2130 0.951 . S
C2148 C2149 1.366 . S
C2148 C2150 1.388 . S
C2149 C2148 1.366 . S
C2149 C2153 1.385 . S
C2150 H2131 0.951 . S
C2150 C2148 1.388 . S
C2150 C2151 1.366 . S
C2151 C2150 1.366 . S
C2151 C2152 1.414 . S
C2151 C2154 1.499 . S
C2152 H2132 0.950 . S
C2152 C2151 1.414 . S
C2152 C2153 1.374 . S
C2153 H2133 0.950 . S
C2153 C2149 1.385 . S
C2153 C2152 1.374 . S
C2154 C2151 1.499 . S
C2154 C2155 1.373 . S
C2154 C2156 1.389 . S
C2155 H2134 0.950 . S
C2155 C2154 1.373 . S
C2155 C2171 1.377 . S
C2156 C2154 1.389 . S
C2156 C2157 1.524 . S
C2156 C2170 1.377 . S
C2157 C2156 1.524 . S
C2157 C2158 1.397 . S
C2157 C2162 1.363 . S
C2158 H2135 0.950 . S
C2158 C2157 1.397 . S
C2158 C2159 1.334 . S
C2159 H2136 0.950 . S
C2159 C2158 1.334 . S
C2159 C2160 1.287 . S
C2160 C2159 1.287 . S
C2160 C2161 1.524 . S
C2160 H2179 0.913 . S
C2161 H2137 0.950 . S
C2161 C2160 1.524 . S
C2161 C2162 1.415 . S
C2162 H2138 0.950 . S
C2162 C2157 1.363 . S
C2162 C2161 1.415 . S
C2163 H2139 0.951 . S
C2163 C2164 1.366 . S
C2163 C2165 1.388 . S
C2164 C2163 1.366 . S
C2164 C2168 1.385 . S
C2165 H2140 0.951 . S
C2165 C2163 1.388 . S
C2165 C2166 1.366 . S
C2166 C2165 1.366 . S
C2166 C2167 1.414 . S
C2166 C2169 1.499 . S
C2167 H2141 0.950 . S
C2167 C2166 1.414 . S
C2167 C2168 1.374 . S
C2168 H2142 0.950 . S
C2168 C2164 1.385 . S
C2168 C2167 1.374 . S
C2169 C2166 1.499 . S
C2169 C2170 1.373 . S
C2169 C2171 1.389 . S
C2170 H2143 0.950 . S
C2170 C2156 1.377 . S
C2170 C2169 1.373 . S
C2171 C2155 1.377 . S
C2171 C2169 1.389 . S
C2171 C2172 1.524 . S
C2172 C2171 1.524 . S
C2172 C2173 1.397 . S
C2172 C2177 1.363 . S
C2173 H2144 0.950 . S
C2173 C2172 1.397 . S
C2173 C2174 1.334 . S
C2174 H2145 0.950 . S
C2174 C2173 1.334 . S
C2174 C2175 1.287 . S
C2175 C2174 1.287 . S
C2175 C2176 1.524 . S
C2175 H2178 0.999 . S
C2176 H2146 0.950 . S
C2176 C2175 1.524 . S
C2176 C2177 1.415 . S
C2177 H2147 0.950 . S
C2177 C2172 1.363 . S
C2177 C2176 1.415 . S
H2178 C2175 0.999 . S
H2179 C2160 0.913 . S
H2180 C2198 0.951 . S
H2181 C2200 0.951 . S
H2182 C2202 0.950 . S
H2183 C2203 0.950 . S
H2184 C2205 0.950 . S
H2185 C2208 0.950 . S
H2186 C2209 0.950 . S
H2187 C2211 0.950 . S
H2188 C2212 0.950 . S
H2189 C2213 0.951 . S
H2190 C2215 0.951 . S
H2191 C2217 0.950 . S
H2192 C2218 0.950 . S
H2193 C2220 0.950 . S
H2194 C2223 0.950 . S
H2195 C2224 0.950 . S
H2196 C2226 0.950 . S
H2197 C2227 0.950 . S
C2198 H2180 0.951 . S
C2198 C2199 1.366 . S
C2198 C2200 1.388 . S
C2199 C2198 1.366 . S
C2199 C2203 1.385 . S
C2200 H2181 0.951 . S
C2200 C2198 1.388 . S
C2200 C2201 1.366 . S
C2201 C2200 1.366 . S
C2201 C2202 1.414 . S
C2201 C2204 1.499 . S
C2202 H2182 0.950 . S
C2202 C2201 1.414 . S
C2202 C2203 1.374 . S
C2203 H2183 0.950 . S
C2203 C2199 1.385 . S
C2203 C2202 1.374 . S
C2204 C2201 1.499 . S
C2204 C2205 1.373 . S
C2204 C2206 1.389 . S
C2205 H2184 0.950 . S
C2205 C2204 1.373 . S
C2205 C2221 1.377 . S
C2206 C2204 1.389 . S
C2206 C2207 1.524 . S
C2206 C2220 1.377 . S
C2207 C2206 1.524 . S
C2207 C2208 1.397 . S
C2207 C2212 1.363 . S
C2208 H2185 0.950 . S
C2208 C2207 1.397 . S
C2208 C2209 1.334 . S
C2209 H2186 0.950 . S
C2209 C2208 1.334 . S
C2209 C2210 1.287 . S
C2210 C2209 1.287 . S
C2210 C2211 1.524 . S
C2210 H2229 0.913 . S
C2211 H2187 0.950 . S
C2211 C2210 1.524 . S
C2211 C2212 1.415 . S
C2212 H2188 0.950 . S
C2212 C2207 1.363 . S
C2212 C2211 1.415 . S
C2213 H2189 0.951 . S
C2213 C2214 1.366 . S
C2213 C2215 1.388 . S
C2214 C2213 1.366 . S
C2214 C2218 1.385 . S
C2215 H2190 0.951 . S
C2215 C2213 1.388 . S
C2215 C2216 1.366 . S
C2216 C2215 1.366 . S
C2216 C2217 1.414 . S
C2216 C2219 1.499 . S
C2217 H2191 0.950 . S
C2217 C2216 1.414 . S
C2217 C2218 1.374 . S
C2218 H2192 0.950 . S
C2218 C2214 1.385 . S
C2218 C2217 1.374 . S
C2219 C2216 1.499 . S
C2219 C2220 1.373 . S
C2219 C2221 1.389 . S
C2220 H2193 0.950 . S
C2220 C2206 1.377 . S
C2220 C2219 1.373 . S
C2221 C2205 1.377 . S
C2221 C2219 1.389 . S
C2221 C2222 1.524 . S
C2222 C2221 1.524 . S
C2222 C2223 1.397 . S
C2222 C2227 1.363 . S
C2223 H2194 0.950 . S
C2223 C2222 1.397 . S
C2223 C2224 1.334 . S
C2224 H2195 0.950 . S
C2224 C2223 1.334 . S
C2224 C2225 1.287 . S
C2225 C2224 1.287 . S
C2225 C2226 1.524 . S
C2225 H2228 0.999 . S
C2226 H2196 0.950 . S
C2226 C2225 1.524 . S
C2226 C2227 1.415 . S
C2227 H2197 0.950 . S
C2227 C2222 1.363 . S
C2227 C2226 1.415 . S
H2228 C2225 0.999 . S
H2229 C2210 0.913 . S
H2230 C2248 0.951 . S
H2231 C2250 0.951 . S
H2232 C2252 0.950 . S
H2233 C2253 0.950 . S
H2234 C2255 0.950 . S
H2235 C2258 0.950 . S
H2236 C2259 0.950 . S
H2237 C2261 0.950 . S
H2238 C2262 0.950 . S
H2239 C2263 0.951 . S
H2240 C2265 0.951 . S
H2241 C2267 0.950 . S
H2242 C2268 0.950 . S
H2243 C2270 0.950 . S
H2244 C2273 0.950 . S
H2245 C2274 0.950 . S
H2246 C2276 0.950 . S
H2247 C2277 0.950 . S
C2248 H2230 0.951 . S
C2248 C2249 1.366 . S
C2248 C2250 1.388 . S
C2249 C2248 1.366 . S
C2249 C2253 1.385 . S
C2250 H2231 0.951 . S
C2250 C2248 1.388 . S
C2250 C2251 1.366 . S
C2251 C2250 1.366 . S
C2251 C2252 1.414 . S
C2251 C2254 1.499 . S
C2252 H2232 0.950 . S
C2252 C2251 1.414 . S
C2252 C2253 1.374 . S
C2253 H2233 0.950 . S
C2253 C2249 1.385 . S
C2253 C2252 1.374 . S
C2254 C2251 1.499 . S
C2254 C2255 1.373 . S
C2254 C2256 1.389 . S
C2255 H2234 0.950 . S
C2255 C2254 1.373 . S
C2255 C2271 1.377 . S
C2256 C2254 1.389 . S
C2256 C2257 1.524 . S
C2256 C2270 1.377 . S
C2257 C2256 1.524 . S
C2257 C2258 1.397 . S
C2257 C2262 1.363 . S
C2258 H2235 0.950 . S
C2258 C2257 1.397 . S
C2258 C2259 1.334 . S
C2259 H2236 0.950 . S
C2259 C2258 1.334 . S
C2259 C2260 1.287 . S
C2260 C2259 1.287 . S
C2260 C2261 1.524 . S
C2260 H2279 0.913 . S
C2261 H2237 0.950 . S
C2261 C2260 1.524 . S
C2261 C2262 1.415 . S
C2262 H2238 0.950 . S
C2262 C2257 1.363 . S
C2262 C2261 1.415 . S
C2263 H2239 0.951 . S
C2263 C2264 1.366 . S
C2263 C2265 1.388 . S
C2264 C2263 1.366 . S
C2264 C2268 1.385 . S
C2265 H2240 0.951 . S
C2265 C2263 1.388 . S
C2265 C2266 1.366 . S
C2266 C2265 1.366 . S
C2266 C2267 1.414 . S
C2266 C2269 1.499 . S
C2267 H2241 0.950 . S
C2267 C2266 1.414 . S
C2267 C2268 1.374 . S
C2268 H2242 0.950 . S
C2268 C2264 1.385 . S
C2268 C2267 1.374 . S
C2269 C2266 1.499 . S
C2269 C2270 1.373 . S
C2269 C2271 1.389 . S
C2270 H2243 0.950 . S
C2270 C2256 1.377 . S
C2270 C2269 1.373 . S
C2271 C2255 1.377 . S
C2271 C2269 1.389 . S
C2271 C2272 1.524 . S
C2272 C2271 1.524 . S
C2272 C2273 1.397 . S
C2272 C2277 1.363 . S
C2273 H2244 0.950 . S
C2273 C2272 1.397 . S
C2273 C2274 1.334 . S
C2274 H2245 0.950 . S
C2274 C2273 1.334 . S
C2274 C2275 1.287 . S
C2275 C2274 1.287 . S
C2275 C2276 1.524 . S
C2275 H2278 0.999 . S
C2276 H2246 0.950 . S
C2276 C2275 1.524 . S
C2276 C2277 1.415 . S
C2277 H2247 0.950 . S
C2277 C2272 1.363 . S
C2277 C2276 1.415 . S
H2278 C2275 0.999 . S
H2279 C2260 0.913 . S
C499 C9 0.998 . S
C514 C329 0.997 . S
C549 C49 0.998 . S
C564 C369 0.997 . S
C599 C89 0.997 . S
C614 C409 0.997 . S
C649 C449 0.997 . S
C664 C129 0.998 . S
C699 C169 0.998 . S
C714 C249 0.997 . S
C749 C289 0.997 . S
C764 C209 0.996 . S
C799 C419 4.283 . S
C814 C19 4.283 . S
C849 C459 4.283 . S
C864 C59 4.283 . S
C899 C99 4.283 . S
C914 C259 4.283 . S
C949 C299 4.283 . S
C964 C139 4.283 . S
C999 C339 4.283 . S
C1014 C179 4.283 . S
C1049 C219 4.283 . S
C1064 C379 4.283 . S
C1099 C295 1.493 . S
C1114 C15 1.493 . S
C1149 C335 1.493 . S
C1164 C55 1.492 . S
C1199 C375 1.493 . S
C1214 C95 1.493 . S
C1249 C135 1.493 . S
C1264 C415 1.492 . S
C1299 C175 1.492 . S
C1314 C455 1.492 . S
C1349 C215 1.493 . S
C1364 C255 1.493 . S
C1399 C18 0.717 . S
C1414 C138 0.715 . S
C1449 C58 0.715 . S
C1464 C178 0.717 . S
C1499 C98 0.715 . S
C1514 C218 0.717 . S
C1549 C378 0.715 . S
C1564 C258 0.716 . S
C1599 C298 0.717 . S
C1614 C418 0.715 . S
C1649 C458 0.715 . S
C1664 C338 0.717 . S
C1699 C290 4.597 . S
C1714 C10 4.597 . S
C1749 C330 4.597 1_556 S
C1764 C50 4.597 . S
C1799 C90 4.597 1_554 S
C1814 C370 4.597 . S
C1849 C410 4.597 . S
C1864 C130 4.597 . S
C1899 C450 4.597 1_556 S
C1914 C170 4.597 . S
C1949 C210 4.597 1_554 S
C1964 C250 4.597 . S
C1999 C6 0.789 . S
C2014 C406 0.789 . S
C2049 C46 0.789 . S
C2064 C446 0.788 . S
C2099 C86 0.789 . S
C2114 C246 0.789 . S
C2149 C126 0.788 . S
C2164 C286 0.788 . S
C2199 C166 0.788 . S
C2214 C326 0.788 . S
C2249 C366 0.789 . S
C2264 C206 0.788 . S
