# Generated by pormake.
# Topology cag, (4)-cn, num edge types: 1
# Building blocks:
#     Node 0, Type 0, BuildingBlock: GALJAG_clean_sbu_0, # of connection points: 4
#     Node 1, Type 0, BuildingBlock: GALJAG_clean_sbu_0, # of connection points: 4
#     Node 2, Type 0, BuildingBlock: GALJAG_clean_sbu_0, # of connection points: 4
#     Node 3, Type 0, BuildingBlock: GALJAG_clean_sbu_0, # of connection points: 4
#     Node 4, Type 0, BuildingBlock: GALJAG_clean_sbu_0, # of connection points: 4
#     Node 5, Type 0, BuildingBlock: GALJAG_clean_sbu_0, # of connection points: 4
#     Node 6, Type 0, BuildingBlock: GALJAG_clean_sbu_0, # of connection points: 4
#     Node 7, Type 0, BuildingBlock: GALJAG_clean_sbu_0, # of connection points: 4
#     Node 8, Type 0, BuildingBlock: GALJAG_clean_sbu_0, # of connection points: 4
#     Node 9, Type 0, BuildingBlock: GALJAG_clean_sbu_0, # of connection points: 4
#     Node 10, Type 0, BuildingBlock: GALJAG_clean_sbu_0, # of connection points: 4
#     Node 11, Type 0, BuildingBlock: GALJAG_clean_sbu_0, # of connection points: 4
#     Node 12, Type 0, BuildingBlock: GALJAG_clean_sbu_0, # of connection points: 4
#     Node 13, Type 0, BuildingBlock: GALJAG_clean_sbu_0, # of connection points: 4
#     Node 14, Type 0, BuildingBlock: GALJAG_clean_sbu_0, # of connection points: 4
#     Node 15, Type 0, BuildingBlock: GALJAG_clean_sbu_0, # of connection points: 4
#     Edge 16, Type (0, 0), BuildingBlock: EZIPEK_clean_linker_0, # of connection points: 2
#     Edge 17, Type (0, 0), BuildingBlock: EZIPEK_clean_linker_0, # of connection points: 2
#     Edge 18, Type (0, 0), BuildingBlock: EZIPEK_clean_linker_0, # of connection points: 2
#     Edge 19, Type (0, 0), BuildingBlock: EZIPEK_clean_linker_0, # of connection points: 2
#     Edge 20, Type (0, 0), BuildingBlock: EZIPEK_clean_linker_0, # of connection points: 2
#     Edge 21, Type (0, 0), BuildingBlock: EZIPEK_clean_linker_0, # of connection points: 2
#     Edge 22, Type (0, 0), BuildingBlock: EZIPEK_clean_linker_0, # of connection points: 2
#     Edge 23, Type (0, 0), BuildingBlock: EZIPEK_clean_linker_0, # of connection points: 2
#     Edge 24, Type (0, 0), BuildingBlock: EZIPEK_clean_linker_0, # of connection points: 2
#     Edge 25, Type (0, 0), BuildingBlock: EZIPEK_clean_linker_0, # of connection points: 2
#     Edge 26, Type (0, 0), BuildingBlock: EZIPEK_clean_linker_0, # of connection points: 2
#     Edge 27, Type (0, 0), BuildingBlock: EZIPEK_clean_linker_0, # of connection points: 2
#     Edge 28, Type (0, 0), BuildingBlock: EZIPEK_clean_linker_0, # of connection points: 2
#     Edge 29, Type (0, 0), BuildingBlock: EZIPEK_clean_linker_0, # of connection points: 2
#     Edge 30, Type (0, 0), BuildingBlock: EZIPEK_clean_linker_0, # of connection points: 2
#     Edge 31, Type (0, 0), BuildingBlock: EZIPEK_clean_linker_0, # of connection points: 2
#     Edge 32, Type (0, 0), BuildingBlock: EZIPEK_clean_linker_0, # of connection points: 2
#     Edge 33, Type (0, 0), BuildingBlock: EZIPEK_clean_linker_0, # of connection points: 2
#     Edge 34, Type (0, 0), BuildingBlock: EZIPEK_clean_linker_0, # of connection points: 2
#     Edge 35, Type (0, 0), BuildingBlock: EZIPEK_clean_linker_0, # of connection points: 2
#     Edge 36, Type (0, 0), BuildingBlock: EZIPEK_clean_linker_0, # of connection points: 2
#     Edge 37, Type (0, 0), BuildingBlock: EZIPEK_clean_linker_0, # of connection points: 2
#     Edge 38, Type (0, 0), BuildingBlock: EZIPEK_clean_linker_0, # of connection points: 2
#     Edge 39, Type (0, 0), BuildingBlock: EZIPEK_clean_linker_0, # of connection points: 2
#     Edge 40, Type (0, 0), BuildingBlock: EZIPEK_clean_linker_0, # of connection points: 2
#     Edge 41, Type (0, 0), BuildingBlock: EZIPEK_clean_linker_0, # of connection points: 2
#     Edge 42, Type (0, 0), BuildingBlock: EZIPEK_clean_linker_0, # of connection points: 2
#     Edge 43, Type (0, 0), BuildingBlock: EZIPEK_clean_linker_0, # of connection points: 2
#     Edge 44, Type (0, 0), BuildingBlock: EZIPEK_clean_linker_0, # of connection points: 2
#     Edge 45, Type (0, 0), BuildingBlock: EZIPEK_clean_linker_0, # of connection points: 2
#     Edge 46, Type (0, 0), BuildingBlock: EZIPEK_clean_linker_0, # of connection points: 2
#     Edge 47, Type (0, 0), BuildingBlock: EZIPEK_clean_linker_0, # of connection points: 2
# Relax obj value: 0.084
# Max RMSD: 0.168
# Mean RMSD: 0.142
data_MOF--net-cag--node1-GALJAG_clean_sbu_0--edge1-EZIPEK_clean_linker_0
_symmetry_space_group_name_H-M    P1
_symmetry_Int_Tables_number       1
_symmetry_cell_setting            triclinic
loop_
_symmetry_equiv_pos_as_xyz
'x, y, z'
_cell_length_a     33.993559
_cell_length_b     36.54954
_cell_length_c     28.424733
_cell_angle_alpha  89.957343
_cell_angle_beta   89.936924
_cell_angle_gamma 89.996021
loop_
_atom_site_label
_atom_site_type_symbol
_atom_site_fract_x
_atom_site_fract_y
_atom_site_fract_z
_atom_type_partial_charge
In0 In 0.33509 0.13367 0.07494 0.0
O1 O 0.33332 0.11657 0.15257 0.0
O2 O 0.29156 0.15558 0.12853 0.0
C3 C 0.3232 0.0676 0.03559 0.0
C4 C 0.29793 0.18375 0.02112 0.0
C5 C 0.41305 0.14519 0.08521 0.0
O6 O 0.31219 0.07509 0.07677 0.0
O7 O 0.3386 0.09378 0.01335 0.0
O8 O 0.38799 0.16841 0.09885 0.0
O9 O 0.39884 0.11688 0.06668 0.0
C10 C 0.30405 0.13645 0.16217 0.0
O11 O 0.33498 0.1821 0.02362 0.0
O12 O 0.2801 0.15928 0.04392 0.0
In13 In 0.17173 0.86293 0.57256 0.0
O14 O 0.17975 0.80684 0.53852 0.0
O15 O 0.22859 0.84311 0.53863 0.0
C16 C 0.09312 0.85469 0.58026 0.0
C17 C 0.20842 0.85673 0.65564 0.0
C18 C 0.17298 0.92916 0.53085 0.0
O19 O 0.11202 0.84465 0.54428 0.0
O20 O 0.11383 0.86799 0.61281 0.0
O21 O 0.17215 0.92509 0.57483 0.0
O22 O 0.1733 0.89984 0.50748 0.0
C23 C 0.21541 0.81198 0.52801 0.0
O24 O 0.21675 0.88134 0.6262 0.0
O25 O 0.18105 0.8353 0.64375 0.0
In26 In 0.33374 0.85767 0.91176 0.0
O27 O 0.32965 0.80034 0.94378 0.0
O28 O 0.27848 0.83391 0.94493 0.0
C29 C 0.41301 0.85221 0.90858 0.0
C30 C 0.29677 0.8547 0.82841 0.0
C31 C 0.32691 0.92301 0.95445 0.0
O32 O 0.3936 0.84876 0.94616 0.0
O33 O 0.39255 0.85763 0.87224 0.0
O34 O 0.33668 0.91982 0.91186 0.0
O35 O 0.32036 0.89331 0.97571 0.0
C36 C 0.29384 0.80351 0.95474 0.0
O37 O 0.29224 0.88079 0.85686 0.0
O38 O 0.32077 0.83031 0.84127 0.0
In39 In 0.17528 0.14347 0.41717 0.0
O40 O 0.23041 0.13023 0.37478 0.0
O41 O 0.18116 0.15169 0.3378 0.0
C42 C 0.17522 0.07488 0.45188 0.0
C43 C 0.21366 0.19928 0.45945 0.0
C44 C 0.09681 0.1549 0.41898 0.0
O45 O 0.16755 0.08172 0.40938 0.0
O46 O 0.18316 0.10242 0.47681 0.0
O47 O 0.11669 0.14978 0.45587 0.0
O48 O 0.11649 0.15544 0.38136 0.0
C49 C 0.21617 0.14037 0.33601 0.0
O50 O 0.18479 0.2045 0.43242 0.0
O51 O 0.22233 0.16621 0.4661 0.0
In52 In 0.66212 0.86465 0.91529 0.0
O53 O 0.70953 0.83906 0.96138 0.0
O54 O 0.67052 0.80313 0.92551 0.0
C55 C 0.66115 0.92801 0.96358 0.0
C56 C 0.70633 0.8707 0.83698 0.0
C57 C 0.58338 0.85571 0.9103 0.0
O58 O 0.6645 0.89737 0.98371 0.0
O59 O 0.65849 0.92672 0.91938 0.0
O60 O 0.60288 0.87076 0.87782 0.0
O61 O 0.60353 0.84429 0.9445 0.0
C62 C 0.69983 0.80652 0.9523 0.0
O63 O 0.67576 0.85113 0.8384 0.0
O64 O 0.71434 0.88745 0.87444 0.0
In65 In 0.84822 0.14255 0.41655 0.0
O66 O 0.83452 0.1577 0.3404 0.0
O67 O 0.79695 0.11926 0.37453 0.0
C68 C 0.92675 0.15485 0.41613 0.0
C69 C 0.81086 0.19929 0.45779 0.0
C70 C 0.84341 0.07546 0.45504 0.0
O71 O 0.90869 0.14229 0.38103 0.0
O72 O 0.90538 0.16206 0.45112 0.0
O73 O 0.82615 0.10281 0.47252 0.0
O74 O 0.86284 0.08168 0.41809 0.0
C75 C 0.80462 0.13733 0.33786 0.0
O76 O 0.82134 0.17121 0.48038 0.0
O77 O 0.8207 0.19939 0.41505 0.0
In78 In 0.66113 0.13589 0.0945 0.0
O79 O 0.70292 0.15894 0.03932 0.0
O80 O 0.67491 0.19679 0.08527 0.0
C81 C 0.66114 0.06802 0.05768 0.0
C82 C 0.70486 0.13404 0.17338 0.0
C83 C 0.58259 0.14719 0.09613 0.0
O84 O 0.66678 0.09628 0.03319 0.0
O85 O 0.65556 0.0737 0.10092 0.0
O86 O 0.60218 0.13969 0.13249 0.0
O87 O 0.60267 0.15035 0.05903 0.0
C88 C 0.69878 0.19175 0.05189 0.0
O89 O 0.67033 0.14666 0.17264 0.0
O90 O 0.71714 0.1217 0.13463 0.0
In91 In 0.84504 0.86881 0.58963 0.0
O92 O 0.81576 0.84142 0.52665 0.0
O93 O 0.81645 0.81248 0.59156 0.0
C94 C 0.84006 0.93353 0.54428 0.0
C95 C 0.80388 0.87277 0.67036 0.0
C96 C 0.92353 0.85666 0.59473 0.0
O97 O 0.84681 0.90396 0.52299 0.0
O98 O 0.83486 0.93043 0.58796 0.0
O99 O 0.90721 0.88389 0.61341 0.0
O100 O 0.90044 0.83477 0.57464 0.0
C101 C 0.8057 0.81309 0.5491 0.0
O102 O 0.8403 0.86566 0.66964 0.0
O103 O 0.7886 0.87846 0.63058 0.0
In104 In 0.83424 0.63777 0.07786 0.0
O105 O 0.78162 0.62338 0.1239 0.0
O106 O 0.82781 0.65474 0.15458 0.0
C107 C 0.83399 0.56905 0.04396 0.0
C108 C 0.79316 0.69051 0.03332 0.0
C109 C 0.913 0.64736 0.07747 0.0
O110 O 0.8357 0.57579 0.08738 0.0
O111 O 0.83172 0.59674 0.01765 0.0
O112 O 0.89218 0.65324 0.04157 0.0
O113 O 0.89413 0.63806 0.1137 0.0
C114 C 0.79469 0.63967 0.15974 0.0
O115 O 0.81866 0.6977 0.06419 0.0
O116 O 0.78894 0.65703 0.02417 0.0
In117 In 0.67413 0.36727 0.5841 0.0
O118 O 0.71519 0.38877 0.64045 0.0
O119 O 0.68597 0.33809 0.65363 0.0
C120 C 0.67951 0.43424 0.54506 0.0
C121 C 0.71556 0.31482 0.5389 0.0
C122 C 0.59504 0.36058 0.59005 0.0
O123 O 0.67308 0.42945 0.5883 0.0
O124 O 0.68358 0.40535 0.52132 0.0
O125 O 0.61308 0.36139 0.55131 0.0
O126 O 0.61676 0.36205 0.62592 0.0
C127 C 0.70995 0.36204 0.66787 0.0
O128 O 0.67876 0.31295 0.54429 0.0
O129 O 0.73107 0.34344 0.55502 0.0
In130 In 0.83638 0.35725 0.92394 0.0
O131 O 0.82371 0.29777 0.94318 0.0
O132 O 0.78574 0.33875 0.97093 0.0
C133 C 0.91505 0.34755 0.91971 0.0
C134 C 0.79697 0.35619 0.842 0.0
C135 C 0.83625 0.42368 0.96454 0.0
O136 O 0.89495 0.33839 0.95513 0.0
O137 O 0.89556 0.36079 0.88606 0.0
O138 O 0.83624 0.41941 0.92053 0.0
O139 O 0.83667 0.39451 0.98834 0.0
C140 C 0.79379 0.30521 0.96759 0.0
O141 O 0.78832 0.3777 0.87506 0.0
O142 O 0.82576 0.33527 0.8499 0.0
In143 In 0.67293 0.64421 0.41946 0.0
O144 O 0.67619 0.69944 0.45689 0.0
O145 O 0.72828 0.66738 0.45297 0.0
C146 C 0.59491 0.65668 0.40974 0.0
C147 C 0.70779 0.64299 0.33448 0.0
C148 C 0.68133 0.57853 0.462 0.0
O149 O 0.6098 0.64316 0.44631 0.0
O150 O 0.61928 0.66506 0.37811 0.0
O151 O 0.68608 0.58289 0.41847 0.0
O152 O 0.67345 0.60726 0.48453 0.0
C153 C 0.71244 0.69687 0.46613 0.0
O154 O 0.68174 0.62005 0.34612 0.0
O155 O 0.71547 0.66689 0.36507 0.0
In156 In 0.16342 0.35778 0.90732 0.0
O157 O 0.19979 0.32959 0.96373 0.0
O158 O 0.18627 0.29921 0.90195 0.0
C159 C 0.16586 0.42285 0.95157 0.0
C160 C 0.20622 0.36503 0.82837 0.0
C161 C 0.0849 0.34566 0.90834 0.0
O162 O 0.17057 0.39303 0.97316 0.0
O163 O 0.16048 0.41994 0.90791 0.0
O164 O 0.10147 0.36484 0.87734 0.0
O165 O 0.10788 0.33114 0.93764 0.0
C166 C 0.20378 0.30011 0.94109 0.0
O167 O 0.17166 0.35226 0.82811 0.0
O168 O 0.21886 0.37462 0.86822 0.0
In169 In 0.34717 0.64154 0.40078 0.0
O170 O 0.33381 0.65603 0.32449 0.0
O171 O 0.29558 0.6184 0.35918 0.0
C172 C 0.42548 0.65418 0.39653 0.0
C173 C 0.31153 0.6982 0.44462 0.0
C174 C 0.34351 0.57415 0.43891 0.0
O175 O 0.40569 0.64473 0.36113 0.0
O176 O 0.40575 0.65876 0.43358 0.0
O177 O 0.32295 0.60039 0.45394 0.0
O178 O 0.36508 0.58154 0.40412 0.0
C179 C 0.30358 0.63604 0.32219 0.0
O180 O 0.32729 0.67222 0.4669 0.0
O181 O 0.31522 0.69633 0.40064 0.0
In182 In 0.16175 0.63237 0.07763 0.0
O183 O 0.20075 0.65567 0.01977 0.0
O184 O 0.18013 0.69228 0.07269 0.0
C185 C 0.16408 0.56522 0.03917 0.0
C186 C 0.20486 0.63127 0.15685 0.0
C187 C 0.08305 0.64309 0.07829 0.0
O188 O 0.1687 0.59391 0.01516 0.0
O189 O 0.1585 0.57019 0.08254 0.0
O190 O 0.10112 0.62782 0.11159 0.0
O191 O 0.10457 0.65391 0.04496 0.0
C192 C 0.20061 0.68772 0.03613 0.0
O193 O 0.17145 0.64626 0.15486 0.0
O194 O 0.21627 0.61634 0.11925 0.0
In195 In 0.34606 0.37099 0.58168 0.0
O196 O 0.32934 0.34738 0.65327 0.0
O197 O 0.30195 0.39705 0.63207 0.0
C198 C 0.42478 0.36297 0.58917 0.0
C199 C 0.30722 0.31546 0.54025 0.0
C200 C 0.34424 0.43447 0.53377 0.0
O201 O 0.40339 0.37174 0.62367 0.0
O202 O 0.40653 0.35728 0.55127 0.0
O203 O 0.33477 0.40444 0.51515 0.0
O204 O 0.35457 0.43261 0.57628 0.0
C205 C 0.3049 0.37229 0.66273 0.0
O206 O 0.29258 0.34692 0.54495 0.0
O207 O 0.34194 0.31198 0.55528 0.0
C208 C 0.2422 0.20456 0.96984 0.0
C209 C 0.27637 0.21333 0.99623 0.0
C210 C 0.26687 0.27797 0.97679 0.0
C211 C 0.22917 0.26983 0.95809 0.0
N212 N 0.17806 0.22506 0.94435 0.0
N213 N 0.31622 0.26026 0.03317 0.0
C214 C 0.21602 0.233 0.95638 0.0
C215 C 0.28758 0.25053 0.00186 0.0
N216 N 0.23522 0.16926 0.95644 0.0
N217 N 0.28366 0.31146 0.96937 0.0
H218 H 0.33076 0.24169 0.05481 0.0
H219 H 0.32239 0.28743 0.04148 0.0
H220 H 0.27054 0.33177 0.94893 0.0
H221 H 0.3126 0.31737 0.97876 0.0
H222 H 0.21254 0.162 0.93364 0.0
H223 H 0.25469 0.14792 0.96364 0.0
H224 H 0.16617 0.19887 0.94719 0.0
H225 H 0.15724 0.24504 0.93635 0.0
C226 C 0.25971 0.71861 0.50231 0.0
C227 C 0.28832 0.72754 0.46768 0.0
C228 C 0.26577 0.79123 0.46871 0.0
C229 C 0.24059 0.78305 0.50719 0.0
N230 N 0.22241 0.74059 0.56884 0.0
N231 N 0.32479 0.77435 0.42634 0.0
C232 C 0.24009 0.74722 0.52647 0.0
C233 C 0.29321 0.76447 0.4533 0.0
N234 N 0.24953 0.68301 0.51062 0.0
N235 N 0.26247 0.82382 0.44545 0.0
H236 H 0.34659 0.75591 0.41612 0.0
H237 H 0.33161 0.8015 0.41865 0.0
H238 H 0.24161 0.84361 0.45414 0.0
H239 H 0.27759 0.82953 0.41438 0.0
H240 H 0.22608 0.67567 0.53233 0.0
H241 H 0.26122 0.66101 0.49198 0.0
H242 H 0.22464 0.71555 0.58621 0.0
H243 H 0.20953 0.76105 0.58922 0.0
C244 C 0.2793 0.76063 0.02135 0.0
C245 C 0.27074 0.77325 0.97531 0.0
C246 C 0.21423 0.73175 0.97073 0.0
C247 C 0.22452 0.71729 0.0153 0.0
N248 N 0.27064 0.71275 0.0795 0.0
N249 N 0.23505 0.76656 0.9025 0.0
C250 C 0.25811 0.7303 0.03973 0.0
C251 C 0.23952 0.75767 0.94894 0.0
N252 N 0.3067 0.77842 0.04807 0.0
N253 N 0.17971 0.72151 0.94989 0.0
H254 H 0.25358 0.78482 0.88503 0.0
H255 H 0.21538 0.75341 0.88012 0.0
H256 H 0.16057 0.70239 0.96474 0.0
H257 H 0.16843 0.73408 0.91991 0.0
H258 H 0.31109 0.77312 0.08368 0.0
H259 H 0.32298 0.80063 0.03568 0.0
H260 H 0.29716 0.71855 0.09618 0.0
H261 H 0.25623 0.69006 0.0936 0.0
C262 C 0.27493 0.28621 0.47066 0.0
C263 C 0.28482 0.28497 0.51909 0.0
C264 C 0.24433 0.23005 0.52922 0.0
C265 C 0.23714 0.22946 0.48007 0.0
N266 N 0.25283 0.25233 0.40256 0.0
N267 N 0.28497 0.25233 0.59299 0.0
C268 C 0.2542 0.2564 0.45033 0.0
C269 C 0.27154 0.25573 0.54789 0.0
N270 N 0.28559 0.3157 0.44391 0.0
N271 N 0.22371 0.20727 0.55841 0.0
H272 H 0.30426 0.27092 0.60843 0.0
H273 H 0.27959 0.22944 0.61388 0.0
H274 H 0.2026 0.18886 0.54628 0.0
H275 H 0.22458 0.20912 0.59496 0.0
H276 H 0.27497 0.32025 0.41005 0.0
H277 H 0.30323 0.33689 0.45649 0.0
H278 H 0.26831 0.26892 0.37918 0.0
H279 H 0.23949 0.23007 0.38628 0.0
C280 C 0.74156 0.73893 0.04099 0.0
C281 C 0.76787 0.71895 0.012 0.0
C282 C 0.74313 0.75132 0.94255 0.0
C283 C 0.7211 0.77483 0.97243 0.0
N284 N 0.70047 0.79255 0.05047 0.0
N285 N 0.7972 0.7083 0.93602 0.0
C286 C 0.72082 0.7692 0.02183 0.0
C287 C 0.76943 0.72553 0.9629 0.0
N288 N 0.73469 0.72758 0.0861 0.0
N289 N 0.73877 0.75336 0.89482 0.0
H290 H 0.817 0.68927 0.94971 0.0
H291 H 0.80285 0.71504 0.90106 0.0
H292 H 0.72019 0.77205 0.87837 0.0
H293 H 0.75095 0.73448 0.87159 0.0
H294 H 0.71308 0.73878 0.10773 0.0
H295 H 0.74775 0.70427 0.10031 0.0
H296 H 0.70324 0.79261 0.08695 0.0
H297 H 0.68224 0.81326 0.03773 0.0
C298 C 0.75319 0.21994 0.50657 0.0
C299 C 0.78666 0.22886 0.47888 0.0
C300 C 0.76922 0.29377 0.48425 0.0
C301 C 0.73925 0.28512 0.51729 0.0
N302 N 0.70979 0.2399 0.56869 0.0
N303 N 0.83123 0.27526 0.44996 0.0
C304 C 0.73315 0.24818 0.53099 0.0
C305 C 0.79605 0.26608 0.47008 0.0
N306 N 0.73918 0.1849 0.50796 0.0
N307 N 0.77122 0.32794 0.46486 0.0
H308 H 0.85257 0.25599 0.44103 0.0
H309 H 0.84095 0.3022 0.44697 0.0
H310 H 0.75099 0.34857 0.47246 0.0
H311 H 0.79024 0.33451 0.43734 0.0
H312 H 0.71267 0.178 0.52415 0.0
H313 H 0.75134 0.16355 0.4885 0.0
H314 H 0.70766 0.21355 0.58254 0.0
H315 H 0.69616 0.25966 0.58948 0.0
C316 C 0.77003 0.27138 0.0387 0.0
C317 C 0.76902 0.27662 0.9893 0.0
C318 C 0.71837 0.22921 0.98186 0.0
C319 C 0.72206 0.22168 0.03061 0.0
N320 N 0.75673 0.2304 0.10377 0.0
N321 N 0.74594 0.25831 0.91257 0.0
C322 C 0.74913 0.24153 0.05875 0.0
C323 C 0.74436 0.25478 0.96044 0.0
N324 N 0.7911 0.29479 0.06645 0.0
N325 N 0.68898 0.21301 0.9565 0.0
H326 H 0.76331 0.27777 0.89557 0.0
H327 H 0.7321 0.24039 0.88944 0.0
H328 H 0.6691 0.19449 0.97119 0.0
H329 H 0.68202 0.22021 0.92206 0.0
H330 H 0.7892 0.29498 0.10302 0.0
H331 H 0.80849 0.31584 0.05292 0.0
H332 H 0.77904 0.24137 0.12449 0.0
H333 H 0.74335 0.20763 0.11899 0.0
C334 C 0.74904 0.79206 0.49889 0.0
C335 C 0.78174 0.78338 0.5279 0.0
C336 C 0.76416 0.71851 0.52296 0.0
C337 C 0.73539 0.72681 0.48837 0.0
N338 N 0.70833 0.77172 0.43461 0.0
N339 N 0.8257 0.73692 0.55813 0.0
C340 C 0.72995 0.76366 0.47378 0.0
C341 C 0.79085 0.74618 0.53735 0.0
N342 N 0.73488 0.82702 0.49672 0.0
N343 N 0.7652 0.68472 0.54353 0.0
H344 H 0.84725 0.75605 0.56674 0.0
H345 H 0.83505 0.7099 0.56172 0.0
H346 H 0.74479 0.66424 0.53607 0.0
H347 H 0.78344 0.67856 0.57191 0.0
H348 H 0.70889 0.83371 0.47927 0.0
H349 H 0.74615 0.84844 0.51678 0.0
H350 H 0.70675 0.79802 0.42052 0.0
H351 H 0.69594 0.75184 0.41295 0.0
C352 C 0.29873 0.02205 0.97666 0.0
C353 C 0.32218 0.03 0.01659 0.0
C354 C 0.34853 0.96748 0.01631 0.0
C355 C 0.32379 0.95909 0.97761 0.0
N356 N 0.27008 0.97548 0.92646 0.0
N357 N 0.36627 0.00994 0.07814 0.0
C358 C 0.29748 0.98562 0.95918 0.0
C359 C 0.34586 0.0025 0.03778 0.0
N360 N 0.27778 0.04936 0.95533 0.0
N361 N 0.37626 0.94277 0.03078 0.0
H362 H 0.36841 0.03598 0.09281 0.0
H363 H 0.37952 0.9899 0.09877 0.0
H364 H 0.37898 0.91661 0.01662 0.0
H365 H 0.39862 0.94888 0.05448 0.0
H366 H 0.2641 0.0465 0.9228 0.0
H367 H 0.27581 0.07581 0.9689 0.0
H368 H 0.24743 0.99243 0.915 0.0
H369 H 0.26769 0.94883 0.91366 0.0
C370 C 0.20381 0.97625 0.47798 0.0
C371 C 0.17282 0.9658 0.50869 0.0
C372 C 0.14507 0.02763 0.50462 0.0
C373 C 0.17439 0.03734 0.47128 0.0
N374 N 0.22908 0.02028 0.4217 0.0
N375 N 0.10963 0.97877 0.54367 0.0
C376 C 0.20278 0.01133 0.45629 0.0
C377 C 0.14228 0.99075 0.52004 0.0
N378 N 0.23541 0.95356 0.47175 0.0
N379 N 0.11999 0.05364 0.52188 0.0
H380 H 0.10606 0.9518 0.55487 0.0
H381 H 0.08442 0.99454 0.5483 0.0
H382 H 0.11971 0.08065 0.51015 0.0
H383 H 0.10124 0.04915 0.5503 0.0
H384 H 0.26094 0.96124 0.45407 0.0
H385 H 0.23774 0.92795 0.48767 0.0
H386 H 0.24708 0.00122 0.40503 0.0
H387 H 0.23145 0.04651 0.40756 0.0
C388 C 0.69214 0.97272 0.01942 0.0
C389 C 0.66022 0.96305 0.98972 0.0
C390 C 0.62863 0.02222 0.00526 0.0
C391 C 0.65969 0.03112 0.03655 0.0
N392 N 0.71775 0.01329 0.07956 0.0
N393 N 0.59494 0.97542 0.96034 0.0
C394 C 0.69028 0.00573 0.04581 0.0
C395 C 0.62761 0.98698 0.98415 0.0
N396 N 0.72534 0.95155 0.02011 0.0
N397 N 0.60014 0.04758 0.99559 0.0
H398 H 0.59301 0.94996 0.94406 0.0
H399 H 0.56846 0.98969 0.95971 0.0
H400 H 0.59792 0.07254 0.01317 0.0
H401 H 0.57975 0.04479 0.96854 0.0
H402 H 0.75128 0.95919 0.03685 0.0
H403 H 0.72841 0.92766 0.00043 0.0
H404 H 0.73791 0.99413 0.09193 0.0
H405 H 0.71875 0.03801 0.09781 0.0
C406 C 0.81843 0.01103 0.45838 0.0
C407 C 0.84245 0.03905 0.47746 0.0
C408 C 0.86811 0.99649 0.53642 0.0
C409 C 0.84112 0.96956 0.52055 0.0
N410 N 0.78667 0.95238 0.47091 0.0
N411 N 0.88652 0.06051 0.53794 0.0
C412 C 0.81533 0.97702 0.48251 0.0
C413 C 0.86609 0.03243 0.51762 0.0
N414 N 0.79873 0.01689 0.41713 0.0
N415 N 0.89713 0.98722 0.56755 0.0
H416 H 0.88715 0.08695 0.52416 0.0
H417 H 0.90052 0.05828 0.57038 0.0
H418 H 0.90059 0.96086 0.58098 0.0
H419 H 0.9202 0.0046 0.57651 0.0
H420 H 0.78437 0.99627 0.39862 0.0
H421 H 0.799 0.04194 0.39953 0.0
H422 H 0.76433 0.95786 0.44689 0.0
H423 H 0.7831 0.92742 0.48819 0.0
C424 C 0.86871 0.48403 0.97892 0.0
C425 C 0.83613 0.4604 0.98637 0.0
C426 C 0.80295 0.50745 0.03369 0.0
C427 C 0.83511 0.53137 0.02515 0.0
N428 N 0.89728 0.54452 0.98779 0.0
N429 N 0.77364 0.44732 0.02292 0.0
C430 C 0.86765 0.52022 0.99725 0.0
C431 C 0.8037 0.47141 0.0146 0.0
N432 N 0.90153 0.47107 0.95644 0.0
N433 N 0.77075 0.52012 0.05771 0.0
H434 H 0.77161 0.42183 0.00668 0.0
H435 H 0.75109 0.45162 0.047 0.0
H436 H 0.76899 0.54643 0.07171 0.0
H437 H 0.74468 0.50568 0.06206 0.0
H438 H 0.92806 0.48512 0.95424 0.0
H439 H 0.90345 0.44477 0.94246 0.0
H440 H 0.9194 0.54006 0.96315 0.0
H441 H 0.89903 0.57038 0.0031 0.0
C442 C 0.71551 0.48479 0.50352 0.0
C443 C 0.68014 0.47108 0.52351 0.0
C444 C 0.64528 0.52721 0.5011 0.0
C445 C 0.68123 0.54191 0.48405 0.0
N446 N 0.75134 0.5374 0.4734 0.0
N447 N 0.61191 0.47937 0.54469 0.0
C448 C 0.71656 0.52134 0.48617 0.0
C449 C 0.64525 0.49245 0.52352 0.0
N450 N 0.74806 0.46285 0.50114 0.0
N451 N 0.6108 0.54562 0.49347 0.0
H452 H 0.60929 0.45272 0.55737 0.0
H453 H 0.58727 0.49537 0.55175 0.0
H454 H 0.60946 0.57114 0.4772 0.0
H455 H 0.58308 0.5346 0.49982 0.0
H456 H 0.77325 0.46943 0.4821 0.0
H457 H 0.7493 0.43684 0.51617 0.0
H458 H 0.77879 0.5255 0.47859 0.0
H459 H 0.75312 0.56411 0.46059 0.0
C460 C 0.19632 0.50445 0.02634 0.0
C461 C 0.16429 0.52844 0.0178 0.0
C462 C 0.13125 0.48117 0.97138 0.0
C463 C 0.16506 0.45865 0.97569 0.0
N464 N 0.23212 0.45046 0.00137 0.0
N465 N 0.10319 0.54186 0.97813 0.0
C466 C 0.19817 0.47055 0.00191 0.0
C467 C 0.13237 0.51751 0.98895 0.0
N468 N 0.22503 0.5141 0.05763 0.0
N469 N 0.09738 0.46722 0.95259 0.0
H470 H 0.10189 0.56825 0.99194 0.0
H471 H 0.08169 0.53684 0.95288 0.0
H472 H 0.09498 0.44041 0.94039 0.0
H473 H 0.07053 0.48093 0.9532 0.0
H474 H 0.24654 0.49607 0.06955 0.0
H475 H 0.22592 0.53951 0.07428 0.0
H476 H 0.2586 0.45963 0.01544 0.0
H477 H 0.23492 0.42579 0.98327 0.0
C478 C 0.30858 0.51704 0.46427 0.0
C479 C 0.34375 0.53783 0.4618 0.0
C480 C 0.37999 0.48835 0.50058 0.0
C481 C 0.34408 0.46938 0.50757 0.0
N482 N 0.2733 0.46742 0.50207 0.0
N483 N 0.41173 0.54626 0.48403 0.0
C484 C 0.30808 0.4841 0.49089 0.0
C485 C 0.37923 0.52427 0.48154 0.0
N486 N 0.27606 0.52811 0.43982 0.0
N487 N 0.41493 0.47155 0.51068 0.0
H488 H 0.41233 0.57299 0.47122 0.0
H489 H 0.43703 0.53926 0.5026 0.0
H490 H 0.41667 0.44498 0.52395 0.0
H491 H 0.44223 0.48249 0.50179 0.0
H492 H 0.25089 0.51213 0.43613 0.0
H493 H 0.27543 0.55193 0.41958 0.0
H494 H 0.24589 0.47905 0.49547 0.0
H495 H 0.2717 0.44323 0.52147 0.0
C496 C 0.51737 0.1185 0.11448 0.0
C497 C 0.539 0.14858 0.09622 0.0
C498 C 0.47739 0.17792 0.07152 0.0
C499 C 0.45593 0.14898 0.09278 0.0
N500 N 0.45509 0.09701 0.14508 0.0
N501 N 0.53957 0.21024 0.0659 0.0
C502 C 0.47585 0.12094 0.11762 0.0
C503 C 0.51899 0.17934 0.07723 0.0
N504 N 0.53609 0.08662 0.12611 0.0
N505 N 0.45838 0.20304 0.04409 0.0
H506 H 0.56994 0.21245 0.07029 0.0
H507 H 0.52617 0.23476 0.05631 0.0
H508 H 0.42799 0.20302 0.0392 0.0
H509 H 0.47302 0.22218 0.02332 0.0
H510 H 0.52111 0.06268 0.13482 0.0
H511 H 0.56628 0.08268 0.12225 0.0
H512 H 0.46846 0.07833 0.16769 0.0
H513 H 0.42461 0.09847 0.14912 0.0
C514 C 0.9852 0.87003 0.55037 0.0
C515 C 0.96673 0.854 0.59011 0.0
C516 C 0.03088 0.83435 0.62033 0.0
C517 C 0.04958 0.85341 0.5829 0.0
N518 N 0.04501 0.89476 0.51674 0.0
N519 N 0.97112 0.82435 0.66555 0.0
C520 C 0.02689 0.8725 0.54886 0.0
C521 C 0.98933 0.83712 0.62591 0.0
N522 N 0.96286 0.88274 0.51383 0.0
N523 N 0.05266 0.81248 0.64939 0.0
H524 H 0.94064 0.82486 0.66993 0.0
H525 H 0.98622 0.8155 0.69531 0.0
H526 H 0.08302 0.80932 0.64587 0.0
H527 H 0.04041 0.79502 0.67436 0.0
H528 H 0.97464 0.89075 0.48159 0.0
H529 H 0.93218 0.88261 0.51419 0.0
H530 H 0.02987 0.91272 0.49482 0.0
H531 H 0.07542 0.89794 0.51463 0.0
C532 C 0.47819 0.82847 0.87916 0.0
C533 C 0.45665 0.85304 0.90803 0.0
C534 C 0.51814 0.87624 0.94173 0.0
C535 C 0.53982 0.85404 0.90998 0.0
N536 N 0.54112 0.81202 0.84461 0.0
N537 N 0.45626 0.90642 0.95793 0.0
C538 C 0.52 0.8312 0.87729 0.0
C539 C 0.47664 0.87853 0.93706 0.0
N540 N 0.45888 0.80144 0.85529 0.0
N541 N 0.53704 0.89523 0.97643 0.0
H542 H 0.42615 0.91033 0.95316 0.0
H543 H 0.46972 0.92801 0.97556 0.0
H544 H 0.5675 0.89554 0.98032 0.0
H545 H 0.5223 0.90841 0.00373 0.0
H546 H 0.47313 0.78028 0.83766 0.0
H547 H 0.4284 0.79827 0.85631 0.0
H548 H 0.52831 0.79832 0.81642 0.0
H549 H 0.5718 0.81162 0.84392 0.0
C550 C 0.03283 0.18731 0.40346 0.0
C551 C 0.05323 0.1557 0.41917 0.0
C552 C 0.99061 0.12561 0.43758 0.0
C553 C 0.97019 0.15596 0.41831 0.0
N554 N 0.97083 0.21399 0.37818 0.0
N555 N 0.0519 0.09208 0.44194 0.0
C556 C 0.99102 0.18636 0.39982 0.0
C557 C 0.03224 0.12416 0.43403 0.0
N558 N 0.05335 0.21857 0.3936 0.0
N559 N 0.9702 0.09816 0.45941 0.0
H560 H 0.08222 0.08939 0.43773 0.0
H561 H 0.03791 0.06719 0.44809 0.0
H562 H 0.93957 0.09737 0.46104 0.0
H563 H 0.98362 0.07758 0.47902 0.0
H564 H 0.0401 0.24365 0.38659 0.0
H565 H 0.08393 0.22016 0.39598 0.0
H566 H 0.98433 0.23498 0.3594 0.0
H567 H 0.94017 0.21468 0.37645 0.0
C568 C 0.01793 0.61139 0.07663 0.0
C569 C 0.03955 0.64461 0.07641 0.0
C570 C 0.97807 0.67965 0.0708 0.0
C571 C 0.95651 0.64663 0.07586 0.0
N572 N 0.95519 0.58108 0.08708 0.0
N573 N 0.04105 0.71051 0.07827 0.0
C574 C 0.97626 0.61252 0.07994 0.0
C575 C 0.01988 0.67884 0.07442 0.0
N576 N 0.03715 0.57874 0.07124 0.0
N577 N 0.95855 0.71174 0.06263 0.0
H578 H 0.07163 0.71094 0.08116 0.0
H579 H 0.02836 0.73624 0.0822 0.0
H580 H 0.92794 0.71364 0.06208 0.0
H581 H 0.97252 0.73604 0.05338 0.0
H582 H 0.02289 0.55395 0.06538 0.0
H583 H 0.06763 0.57659 0.06831 0.0
H584 H 0.96795 0.55627 0.09662 0.0
H585 H 0.92457 0.57998 0.08617 0.0
C586 C 0.53126 0.3917 0.60917 0.0
C587 C 0.5515 0.36014 0.5929 0.0
C588 C 0.48848 0.32881 0.58028 0.0
C589 C 0.46833 0.36156 0.59207 0.0
N590 N 0.47033 0.42605 0.61031 0.0
N591 N 0.55018 0.29957 0.55935 0.0
C592 C 0.48961 0.39345 0.60496 0.0
C593 C 0.53031 0.32898 0.57725 0.0
N594 N 0.55178 0.42019 0.62837 0.0
N595 N 0.46767 0.29716 0.57398 0.0
H596 H 0.58079 0.29763 0.55945 0.0
H597 H 0.5365 0.27797 0.54202 0.0
H598 H 0.43709 0.29589 0.57672 0.0
H599 H 0.48068 0.27156 0.57013 0.0
H600 H 0.53844 0.44183 0.64607 0.0
H601 H 0.58239 0.42118 0.62971 0.0
H602 H 0.48463 0.45108 0.6139 0.0
H603 H 0.43995 0.42885 0.60696 0.0
C604 C 0.02288 0.36241 0.95076 0.0
C605 C 0.04155 0.34385 0.91293 0.0
C606 C 0.97728 0.32381 0.88325 0.0
C607 C 0.95856 0.34502 0.91859 0.0
N608 N 0.96288 0.38881 0.98193 0.0
N609 N 0.03735 0.30954 0.84074 0.0
C610 C 0.98115 0.36519 0.95161 0.0
C611 C 0.01895 0.32537 0.87838 0.0
N612 N 0.04502 0.37776 0.98576 0.0
N613 N 0.95529 0.30102 0.85564 0.0
H614 H 0.06788 0.30823 0.83744 0.0
H615 H 0.02249 0.29954 0.81144 0.0
H616 H 0.9248 0.29879 0.8587 0.0
H617 H 0.96733 0.28201 0.83248 0.0
H618 H 0.03321 0.38745 0.01717 0.0
H619 H 0.07565 0.37888 0.98502 0.0
H620 H 0.97779 0.40774 0.00263 0.0
H621 H 0.93244 0.39181 0.9839 0.0
C622 C 0.53068 0.69026 0.40315 0.0
C623 C 0.55189 0.65687 0.40204 0.0
C624 C 0.49058 0.62241 0.39127 0.0
C625 C 0.46904 0.65554 0.3962 0.0
N626 N 0.4672 0.72068 0.40886 0.0
N627 N 0.5534 0.59106 0.39616 0.0
C628 C 0.48874 0.68944 0.4026 0.0
C629 C 0.53219 0.62293 0.39616 0.0
N630 N 0.55079 0.72266 0.4044 0.0
N631 N 0.47121 0.59042 0.38178 0.0
H632 H 0.58406 0.59033 0.39541 0.0
H633 H 0.54098 0.56513 0.39884 0.0
H634 H 0.4407 0.58814 0.38112 0.0
H635 H 0.48511 0.56623 0.37208 0.0
H636 H 0.53765 0.7482 0.40074 0.0
H637 H 0.5814 0.72405 0.40624 0.0
H638 H 0.47917 0.74569 0.41883 0.0
H639 H 0.43661 0.72136 0.40614 0.0
C640 C 0.26961 0.10367 0.2283 0.0
C641 C 0.2844 0.13669 0.20864 0.0
C642 C 0.25097 0.17214 0.26987 0.0
C643 C 0.23903 0.13906 0.29179 0.0
N644 N 0.24079 0.0731 0.29571 0.0
N645 N 0.29661 0.20139 0.21627 0.0
C646 C 0.24987 0.10474 0.2724 0.0
C647 C 0.27716 0.17069 0.23101 0.0
N648 N 0.27198 0.07168 0.20351 0.0
N649 N 0.23696 0.20495 0.28571 0.0
H650 H 0.31706 0.20115 0.18887 0.0
H651 H 0.29564 0.22622 0.2342 0.0
H652 H 0.21809 0.20734 0.31442 0.0
H653 H 0.2413 0.22956 0.26794 0.0
H654 H 0.25772 0.0477 0.21359 0.0
H655 H 0.2852 0.06961 0.17056 0.0
H656 H 0.25228 0.04767 0.2865 0.0
H657 H 0.22355 0.07243 0.32605 0.0
C658 C 0.23233 0.85331 0.78614 0.0
C659 C 0.27407 0.85232 0.78425 0.0
C660 C 0.27153 0.84677 0.69852 0.0
C661 C 0.23034 0.85284 0.70012 0.0
N662 N 0.17169 0.86636 0.74475 0.0
N663 N 0.33399 0.85298 0.73856 0.0
C664 C 0.21066 0.85708 0.74375 0.0
C665 C 0.29391 0.8501 0.74044 0.0
N666 N 0.21333 0.84946 0.82829 0.0
N667 N 0.28908 0.83677 0.65717 0.0
H668 H 0.35152 0.85597 0.76838 0.0
H669 H 0.34963 0.85566 0.70722 0.0
H670 H 0.27347 0.83337 0.6259 0.0
H671 H 0.31828 0.82834 0.65484 0.0
H672 H 0.18302 0.84598 0.83121 0.0
H673 H 0.22808 0.84619 0.86015 0.0
H674 H 0.15697 0.87399 0.77536 0.0
H675 H 0.1547 0.86942 0.71448 0.0
C676 C 0.76236 0.84588 0.79004 0.0
C677 C 0.73226 0.87231 0.79537 0.0
C678 C 0.75387 0.90264 0.72305 0.0
C679 C 0.78027 0.87323 0.71429 0.0
N680 N 0.80345 0.81275 0.73537 0.0
N681 N 0.69602 0.9238 0.76506 0.0
C682 C 0.78305 0.84375 0.74676 0.0
C683 C 0.72696 0.9001 0.76125 0.0
N684 N 0.77177 0.82328 0.82664 0.0
N685 N 0.75578 0.93374 0.6964 0.0
H686 H 0.67645 0.92337 0.79338 0.0
H687 H 0.68808 0.94202 0.73852 0.0
H688 H 0.77636 0.93746 0.66959 0.0
H689 H 0.73983 0.95734 0.70401 0.0
H690 H 0.79602 0.80584 0.82621 0.0
H691 H 0.75778 0.82476 0.85925 0.0
H692 H 0.80297 0.78917 0.75598 0.0
H693 H 0.81738 0.80895 0.70307 0.0
C694 C 0.77474 0.10335 0.27018 0.0
C695 C 0.77896 0.13631 0.29595 0.0
C696 C 0.73636 0.16826 0.23992 0.0
C697 C 0.72963 0.13465 0.21618 0.0
N698 N 0.73616 0.06891 0.21387 0.0
N699 N 0.7576 0.19811 0.31144 0.0
C700 C 0.74716 0.10179 0.23266 0.0
C701 C 0.75808 0.16823 0.28252 0.0
N702 N 0.79795 0.07389 0.28064 0.0
N703 N 0.72345 0.20048 0.22095 0.0
H704 H 0.77272 0.19912 0.34326 0.0
H705 H 0.73923 0.22055 0.30616 0.0
H706 H 0.70717 0.20206 0.19 0.0
H707 H 0.73179 0.22604 0.23368 0.0
H708 H 0.79934 0.05047 0.25986 0.0
H709 H 0.81841 0.07399 0.30797 0.0
H710 H 0.74486 0.04378 0.22765 0.0
H711 H 0.71525 0.0665 0.18723 0.0
C712 C 0.74873 0.60902 0.27523 0.0
C713 C 0.72893 0.64153 0.28899 0.0
C714 C 0.7568 0.6739 0.22124 0.0
C715 C 0.77294 0.64048 0.20475 0.0
N716 N 0.78095 0.57513 0.21294 0.0
N717 N 0.70748 0.70276 0.27025 0.0
C718 C 0.76759 0.60763 0.23062 0.0
C719 C 0.73118 0.67344 0.26071 0.0
N720 N 0.75176 0.5803 0.3059 0.0
N721 N 0.76615 0.70617 0.19962 0.0
H722 H 0.68731 0.70304 0.29792 0.0
H723 H 0.70484 0.72526 0.24797 0.0
H724 H 0.78448 0.70781 0.1703 0.0
H725 H 0.75853 0.73167 0.2132 0.0
H726 H 0.76949 0.55755 0.29979 0.0
H727 H 0.73974 0.58056 0.33963 0.0
H728 H 0.77358 0.54983 0.22734 0.0
H729 H 0.79749 0.57316 0.18212 0.0
C730 C 0.71165 0.35569 0.75579 0.0
C731 C 0.73203 0.35838 0.71238 0.0
C732 C 0.79496 0.36129 0.75407 0.0
C733 C 0.77486 0.35578 0.79725 0.0
N734 N 0.71504 0.34003 0.83848 0.0
N735 N 0.79321 0.35508 0.66936 0.0
C736 C 0.73343 0.35074 0.79794 0.0
C737 C 0.77375 0.35865 0.71124 0.0
N738 N 0.67164 0.35949 0.7571 0.0
N739 N 0.83386 0.37082 0.7539 0.0
H740 H 0.77876 0.35217 0.63723 0.0
H741 H 0.82351 0.35125 0.66696 0.0
H742 H 0.85041 0.37395 0.78449 0.0
H743 H 0.84878 0.37908 0.72367 0.0
H744 H 0.65571 0.36186 0.78826 0.0
H745 H 0.65459 0.36353 0.72707 0.0
H746 H 0.68562 0.33212 0.8398 0.0
H747 H 0.72996 0.33566 0.87001 0.0
C748 C 0.25561 0.33964 0.71292 0.0
C749 C 0.27926 0.37098 0.70479 0.0
C750 C 0.25037 0.40053 0.77399 0.0
C751 C 0.23083 0.36733 0.78545 0.0
N752 N 0.22217 0.30262 0.77084 0.0
N753 N 0.30406 0.42918 0.73167 0.0
C754 C 0.23542 0.33609 0.75632 0.0
C755 C 0.278 0.40094 0.73643 0.0
N756 N 0.25087 0.31403 0.67839 0.0
N757 N 0.24138 0.43201 0.7976 0.0
H758 H 0.32515 0.43022 0.70502 0.0
H759 H 0.30718 0.44982 0.75665 0.0
H760 H 0.2203 0.4332 0.82424 0.0
H761 H 0.25185 0.45764 0.78756 0.0
H762 H 0.23099 0.29242 0.68099 0.0
H763 H 0.26333 0.31674 0.64505 0.0
H764 H 0.22843 0.27848 0.75284 0.0
H765 H 0.20866 0.29827 0.8033 0.0
C766 C 0.26084 0.66735 0.26276 0.0
C767 C 0.27825 0.63468 0.27994 0.0
C768 C 0.24367 0.59926 0.2196 0.0
C769 C 0.22961 0.63235 0.19958 0.0
N770 N 0.2309 0.69844 0.1968 0.0
N771 N 0.29165 0.57027 0.27045 0.0
C772 C 0.23981 0.66658 0.2197 0.0
C773 C 0.27112 0.60077 0.25725 0.0
N774 N 0.26285 0.69886 0.28854 0.0
N775 N 0.22964 0.5664 0.2039 0.0
H776 H 0.31235 0.57035 0.29752 0.0
H777 H 0.29083 0.54573 0.25189 0.0
H778 H 0.20897 0.56414 0.17697 0.0
H779 H 0.23564 0.54158 0.22043 0.0
H780 H 0.24693 0.72236 0.28029 0.0
H781 H 0.2773 0.70058 0.32074 0.0
H782 H 0.24177 0.72385 0.20707 0.0
H783 H 0.2157 0.69934 0.16501 0.0
loop_
_geom_bond_atom_site_label_1
_geom_bond_atom_site_label_2
_geom_bond_distance
_geom_bond_site_symmetry_2
_ccdc_geom_bond_type
In0 O1 2.294 . S
In0 O2 2.326 . S
In0 O6 2.266 . S
In0 O7 2.326 . S
In0 O8 2.266 . S
In0 O9 2.326 . S
In0 O11 2.294 . S
In0 O12 2.326 . S
O1 In0 2.294 . S
O1 C10 1.240 . S
O2 In0 2.326 . S
O2 C10 1.252 . S
C3 O6 1.252 . S
C3 O7 1.260 . S
C4 O11 1.240 . S
C4 O12 1.252 . S
C5 O8 1.252 . S
C5 O9 1.260 . S
O6 In0 2.266 . S
O6 C3 1.252 . S
O7 In0 2.326 . S
O7 C3 1.260 . S
O8 In0 2.266 . S
O8 C5 1.252 . S
O9 In0 2.326 . S
O9 C5 1.260 . S
C10 O1 1.240 . S
C10 O2 1.252 . S
O11 In0 2.294 . S
O11 C4 1.240 . S
O12 In0 2.326 . S
O12 C4 1.252 . S
In13 O14 2.294 . S
In13 O15 2.326 . S
In13 O19 2.266 . S
In13 O20 2.326 . S
In13 O21 2.266 . S
In13 O22 2.326 . S
In13 O24 2.294 . S
In13 O25 2.326 . S
O14 In13 2.294 . S
O14 C23 1.240 . S
O15 In13 2.326 . S
O15 C23 1.252 . S
C16 O19 1.252 . S
C16 O20 1.260 . S
C17 O24 1.240 . S
C17 O25 1.252 . S
C18 O21 1.252 . S
C18 O22 1.260 . S
O19 In13 2.266 . S
O19 C16 1.252 . S
O20 In13 2.326 . S
O20 C16 1.260 . S
O21 In13 2.266 . S
O21 C18 1.252 . S
O22 In13 2.326 . S
O22 C18 1.260 . S
C23 O14 1.240 . S
C23 O15 1.252 . S
O24 In13 2.294 . S
O24 C17 1.240 . S
O25 In13 2.326 . S
O25 C17 1.252 . S
In26 O27 2.294 . S
In26 O28 2.326 . S
In26 O32 2.266 . S
In26 O33 2.326 . S
In26 O34 2.266 . S
In26 O35 2.326 . S
In26 O37 2.294 . S
In26 O38 2.326 . S
O27 In26 2.294 . S
O27 C36 1.240 . S
O28 In26 2.326 . S
O28 C36 1.252 . S
C29 O32 1.252 . S
C29 O33 1.260 . S
C30 O37 1.240 . S
C30 O38 1.252 . S
C31 O34 1.252 . S
C31 O35 1.260 . S
O32 In26 2.266 . S
O32 C29 1.252 . S
O33 In26 2.326 . S
O33 C29 1.260 . S
O34 In26 2.266 . S
O34 C31 1.252 . S
O35 In26 2.326 . S
O35 C31 1.260 . S
C36 O27 1.240 . S
C36 O28 1.252 . S
O37 In26 2.294 . S
O37 C30 1.240 . S
O38 In26 2.326 . S
O38 C30 1.252 . S
In39 O40 2.294 . S
In39 O41 2.326 . S
In39 O45 2.266 . S
In39 O46 2.326 . S
In39 O47 2.266 . S
In39 O48 2.326 . S
In39 O50 2.294 . S
In39 O51 2.326 . S
O40 In39 2.294 . S
O40 C49 1.240 . S
O41 In39 2.326 . S
O41 C49 1.252 . S
C42 O45 1.252 . S
C42 O46 1.260 . S
C43 O50 1.240 . S
C43 O51 1.252 . S
C44 O47 1.252 . S
C44 O48 1.260 . S
O45 In39 2.266 . S
O45 C42 1.252 . S
O46 In39 2.326 . S
O46 C42 1.260 . S
O47 In39 2.266 . S
O47 C44 1.252 . S
O48 In39 2.326 . S
O48 C44 1.260 . S
C49 O40 1.240 . S
C49 O41 1.252 . S
O50 In39 2.294 . S
O50 C43 1.240 . S
O51 In39 2.326 . S
O51 C43 1.252 . S
In52 O53 2.294 . S
In52 O54 2.326 . S
In52 O58 2.266 . S
In52 O59 2.326 . S
In52 O60 2.266 . S
In52 O61 2.326 . S
In52 O63 2.294 . S
In52 O64 2.326 . S
O53 In52 2.294 . S
O53 C62 1.240 . S
O54 In52 2.326 . S
O54 C62 1.252 . S
C55 O58 1.252 . S
C55 O59 1.260 . S
C56 O63 1.240 . S
C56 O64 1.252 . S
C57 O60 1.252 . S
C57 O61 1.260 . S
O58 In52 2.266 . S
O58 C55 1.252 . S
O59 In52 2.326 . S
O59 C55 1.260 . S
O60 In52 2.266 . S
O60 C57 1.252 . S
O61 In52 2.326 . S
O61 C57 1.260 . S
C62 O53 1.240 . S
C62 O54 1.252 . S
O63 In52 2.294 . S
O63 C56 1.240 . S
O64 In52 2.326 . S
O64 C56 1.252 . S
In65 O66 2.294 . S
In65 O67 2.326 . S
In65 O71 2.266 . S
In65 O72 2.326 . S
In65 O73 2.266 . S
In65 O74 2.326 . S
In65 O76 2.294 . S
In65 O77 2.326 . S
O66 In65 2.294 . S
O66 C75 1.240 . S
O67 In65 2.326 . S
O67 C75 1.252 . S
C68 O71 1.252 . S
C68 O72 1.260 . S
C69 O76 1.240 . S
C69 O77 1.252 . S
C70 O73 1.252 . S
C70 O74 1.260 . S
O71 In65 2.266 . S
O71 C68 1.252 . S
O72 In65 2.326 . S
O72 C68 1.260 . S
O73 In65 2.266 . S
O73 C70 1.252 . S
O74 In65 2.326 . S
O74 C70 1.260 . S
C75 O66 1.240 . S
C75 O67 1.252 . S
O76 In65 2.294 . S
O76 C69 1.240 . S
O77 In65 2.326 . S
O77 C69 1.252 . S
In78 O79 2.294 . S
In78 O80 2.326 . S
In78 O84 2.266 . S
In78 O85 2.326 . S
In78 O86 2.266 . S
In78 O87 2.326 . S
In78 O89 2.294 . S
In78 O90 2.326 . S
O79 In78 2.294 . S
O79 C88 1.240 . S
O80 In78 2.326 . S
O80 C88 1.252 . S
C81 O84 1.252 . S
C81 O85 1.260 . S
C82 O89 1.240 . S
C82 O90 1.252 . S
C83 O86 1.252 . S
C83 O87 1.260 . S
O84 In78 2.266 . S
O84 C81 1.252 . S
O85 In78 2.326 . S
O85 C81 1.260 . S
O86 In78 2.266 . S
O86 C83 1.252 . S
O87 In78 2.326 . S
O87 C83 1.260 . S
C88 O79 1.240 . S
C88 O80 1.252 . S
O89 In78 2.294 . S
O89 C82 1.240 . S
O90 In78 2.326 . S
O90 C82 1.252 . S
In91 O92 2.294 . S
In91 O93 2.326 . S
In91 O97 2.266 . S
In91 O98 2.326 . S
In91 O99 2.266 . S
In91 O100 2.326 . S
In91 O102 2.294 . S
In91 O103 2.326 . S
O92 In91 2.294 . S
O92 C101 1.240 . S
O93 In91 2.326 . S
O93 C101 1.252 . S
C94 O97 1.252 . S
C94 O98 1.260 . S
C95 O102 1.240 . S
C95 O103 1.252 . S
C96 O99 1.252 . S
C96 O100 1.260 . S
O97 In91 2.266 . S
O97 C94 1.252 . S
O98 In91 2.326 . S
O98 C94 1.260 . S
O99 In91 2.266 . S
O99 C96 1.252 . S
O100 In91 2.326 . S
O100 C96 1.260 . S
C101 O92 1.240 . S
C101 O93 1.252 . S
O102 In91 2.294 . S
O102 C95 1.240 . S
O103 In91 2.326 . S
O103 C95 1.252 . S
In104 O105 2.294 . S
In104 O106 2.326 . S
In104 O110 2.266 . S
In104 O111 2.326 . S
In104 O112 2.266 . S
In104 O113 2.326 . S
In104 O115 2.294 . S
In104 O116 2.326 . S
O105 In104 2.294 . S
O105 C114 1.240 . S
O106 In104 2.326 . S
O106 C114 1.252 . S
C107 O110 1.252 . S
C107 O111 1.260 . S
C108 O115 1.240 . S
C108 O116 1.252 . S
C109 O112 1.252 . S
C109 O113 1.260 . S
O110 In104 2.266 . S
O110 C107 1.252 . S
O111 In104 2.326 . S
O111 C107 1.260 . S
O112 In104 2.266 . S
O112 C109 1.252 . S
O113 In104 2.326 . S
O113 C109 1.260 . S
C114 O105 1.240 . S
C114 O106 1.252 . S
O115 In104 2.294 . S
O115 C108 1.240 . S
O116 In104 2.326 . S
O116 C108 1.252 . S
In117 O118 2.294 . S
In117 O119 2.326 . S
In117 O123 2.266 . S
In117 O124 2.326 . S
In117 O125 2.266 . S
In117 O126 2.326 . S
In117 O128 2.294 . S
In117 O129 2.326 . S
O118 In117 2.294 . S
O118 C127 1.240 . S
O119 In117 2.326 . S
O119 C127 1.252 . S
C120 O123 1.252 . S
C120 O124 1.260 . S
C121 O128 1.240 . S
C121 O129 1.252 . S
C122 O125 1.252 . S
C122 O126 1.260 . S
O123 In117 2.266 . S
O123 C120 1.252 . S
O124 In117 2.326 . S
O124 C120 1.260 . S
O125 In117 2.266 . S
O125 C122 1.252 . S
O126 In117 2.326 . S
O126 C122 1.260 . S
C127 O118 1.240 . S
C127 O119 1.252 . S
O128 In117 2.294 . S
O128 C121 1.240 . S
O129 In117 2.326 . S
O129 C121 1.252 . S
In130 O131 2.294 . S
In130 O132 2.326 . S
In130 O136 2.266 . S
In130 O137 2.326 . S
In130 O138 2.266 . S
In130 O139 2.326 . S
In130 O141 2.294 . S
In130 O142 2.326 . S
O131 In130 2.294 . S
O131 C140 1.240 . S
O132 In130 2.326 . S
O132 C140 1.252 . S
C133 O136 1.252 . S
C133 O137 1.260 . S
C134 O141 1.240 . S
C134 O142 1.252 . S
C135 O138 1.252 . S
C135 O139 1.260 . S
O136 In130 2.266 . S
O136 C133 1.252 . S
O137 In130 2.326 . S
O137 C133 1.260 . S
O138 In130 2.266 . S
O138 C135 1.252 . S
O139 In130 2.326 . S
O139 C135 1.260 . S
C140 O131 1.240 . S
C140 O132 1.252 . S
O141 In130 2.294 . S
O141 C134 1.240 . S
O142 In130 2.326 . S
O142 C134 1.252 . S
In143 O144 2.294 . S
In143 O145 2.326 . S
In143 O149 2.266 . S
In143 O150 2.326 . S
In143 O151 2.266 . S
In143 O152 2.326 . S
In143 O154 2.294 . S
In143 O155 2.326 . S
O144 In143 2.294 . S
O144 C153 1.240 . S
O145 In143 2.326 . S
O145 C153 1.252 . S
C146 O149 1.252 . S
C146 O150 1.260 . S
C147 O154 1.240 . S
C147 O155 1.252 . S
C148 O151 1.252 . S
C148 O152 1.260 . S
O149 In143 2.266 . S
O149 C146 1.252 . S
O150 In143 2.326 . S
O150 C146 1.260 . S
O151 In143 2.266 . S
O151 C148 1.252 . S
O152 In143 2.326 . S
O152 C148 1.260 . S
C153 O144 1.240 . S
C153 O145 1.252 . S
O154 In143 2.294 . S
O154 C147 1.240 . S
O155 In143 2.326 . S
O155 C147 1.252 . S
In156 O157 2.294 . S
In156 O158 2.326 . S
In156 O162 2.266 . S
In156 O163 2.326 . S
In156 O164 2.266 . S
In156 O165 2.326 . S
In156 O167 2.294 . S
In156 O168 2.326 . S
O157 In156 2.294 . S
O157 C166 1.240 . S
O158 In156 2.326 . S
O158 C166 1.252 . S
C159 O162 1.252 . S
C159 O163 1.260 . S
C160 O167 1.240 . S
C160 O168 1.252 . S
C161 O164 1.252 . S
C161 O165 1.260 . S
O162 In156 2.266 . S
O162 C159 1.252 . S
O163 In156 2.326 . S
O163 C159 1.260 . S
O164 In156 2.266 . S
O164 C161 1.252 . S
O165 In156 2.326 . S
O165 C161 1.260 . S
C166 O157 1.240 . S
C166 O158 1.252 . S
O167 In156 2.294 . S
O167 C160 1.240 . S
O168 In156 2.326 . S
O168 C160 1.252 . S
In169 O170 2.294 . S
In169 O171 2.326 . S
In169 O175 2.266 . S
In169 O176 2.326 . S
In169 O177 2.266 . S
In169 O178 2.326 . S
In169 O180 2.294 . S
In169 O181 2.326 . S
O170 In169 2.294 . S
O170 C179 1.240 . S
O171 In169 2.326 . S
O171 C179 1.252 . S
C172 O175 1.252 . S
C172 O176 1.260 . S
C173 O180 1.240 . S
C173 O181 1.252 . S
C174 O177 1.252 . S
C174 O178 1.260 . S
O175 In169 2.266 . S
O175 C172 1.252 . S
O176 In169 2.326 . S
O176 C172 1.260 . S
O177 In169 2.266 . S
O177 C174 1.252 . S
O178 In169 2.326 . S
O178 C174 1.260 . S
C179 O170 1.240 . S
C179 O171 1.252 . S
O180 In169 2.294 . S
O180 C173 1.240 . S
O181 In169 2.326 . S
O181 C173 1.252 . S
In182 O183 2.294 . S
In182 O184 2.326 . S
In182 O188 2.266 . S
In182 O189 2.326 . S
In182 O190 2.266 . S
In182 O191 2.326 . S
In182 O193 2.294 . S
In182 O194 2.326 . S
O183 In182 2.294 . S
O183 C192 1.240 . S
O184 In182 2.326 . S
O184 C192 1.252 . S
C185 O188 1.252 . S
C185 O189 1.260 . S
C186 O193 1.240 . S
C186 O194 1.252 . S
C187 O190 1.252 . S
C187 O191 1.260 . S
O188 In182 2.266 . S
O188 C185 1.252 . S
O189 In182 2.326 . S
O189 C185 1.260 . S
O190 In182 2.266 . S
O190 C187 1.252 . S
O191 In182 2.326 . S
O191 C187 1.260 . S
C192 O183 1.240 . S
C192 O184 1.252 . S
O193 In182 2.294 . S
O193 C186 1.240 . S
O194 In182 2.326 . S
O194 C186 1.252 . S
In195 O196 2.294 . S
In195 O197 2.326 . S
In195 O201 2.266 . S
In195 O202 2.326 . S
In195 O203 2.266 . S
In195 O204 2.326 . S
In195 O206 2.294 . S
In195 O207 2.326 . S
O196 In195 2.294 . S
O196 C205 1.240 . S
O197 In195 2.326 . S
O197 C205 1.252 . S
C198 O201 1.252 . S
C198 O202 1.260 . S
C199 O206 1.240 . S
C199 O207 1.252 . S
C200 O203 1.252 . S
C200 O204 1.260 . S
O201 In195 2.266 . S
O201 C198 1.252 . S
O202 In195 2.326 . S
O202 C198 1.260 . S
O203 In195 2.266 . S
O203 C200 1.252 . S
O204 In195 2.326 . S
O204 C200 1.260 . S
C205 O196 1.240 . S
C205 O197 1.252 . S
O206 In195 2.294 . S
O206 C199 1.240 . S
O207 In195 2.326 . S
O207 C199 1.252 . S
C208 C209 1.363 1_556 S
C208 C214 1.379 . S
C208 N216 1.356 . S
C209 C208 1.363 1_554 S
C209 C215 1.363 . S
C210 C211 1.363 . S
C210 C215 1.379 1_556 S
C210 N217 1.356 . S
C211 C210 1.363 . S
C211 C214 1.363 . S
N212 C214 1.356 . S
N212 H224 0.984 . S
N212 H225 0.985 . S
N213 C215 1.356 . S
N213 H218 0.984 . S
N213 H219 0.985 . S
C214 C208 1.379 . S
C214 C211 1.363 . S
C214 N212 1.356 . S
C215 C209 1.363 . S
C215 C210 1.379 1_554 S
C215 N213 1.356 . S
N216 C208 1.356 . S
N216 H222 0.984 . S
N216 H223 0.984 1_556 S
N217 C210 1.356 . S
N217 H220 0.984 . S
N217 H221 0.985 1_556 S
H218 N213 0.984 . S
H219 N213 0.985 . S
H220 N217 0.984 . S
H221 N217 0.985 1_554 S
H222 N216 0.984 . S
H223 N216 0.984 1_554 S
H224 N212 0.984 . S
H225 N212 0.985 . S
C226 C227 1.363 . S
C226 C232 1.379 . S
C226 N234 1.356 . S
C227 C226 1.363 . S
C227 C233 1.363 . S
C228 C229 1.363 . S
C228 C233 1.379 . S
C228 N235 1.356 . S
C229 C228 1.363 . S
C229 C232 1.363 . S
N230 C232 1.356 . S
N230 H242 0.984 . S
N230 H243 0.985 . S
N231 C233 1.356 . S
N231 H236 0.984 . S
N231 H237 0.985 . S
C232 C226 1.379 . S
C232 C229 1.363 . S
C232 N230 1.356 . S
C233 C227 1.363 . S
C233 C228 1.379 . S
C233 N231 1.356 . S
N234 C226 1.356 . S
N234 H240 0.984 . S
N234 H241 0.984 . S
N235 C228 1.356 . S
N235 H238 0.984 . S
N235 H239 0.985 . S
H236 N231 0.984 . S
H237 N231 0.985 . S
H238 N235 0.984 . S
H239 N235 0.985 . S
H240 N234 0.984 . S
H241 N234 0.984 . S
H242 N230 0.984 . S
H243 N230 0.985 . S
C244 C245 1.363 1_554 S
C244 C250 1.379 . S
C244 N252 1.356 . S
C245 C244 1.363 1_556 S
C245 C251 1.363 . S
C246 C247 1.363 1_556 S
C246 C251 1.379 . S
C246 N253 1.356 . S
C247 C246 1.363 1_554 S
C247 C250 1.363 . S
N248 C250 1.356 . S
N248 H260 0.984 . S
N248 H261 0.985 . S
N249 C251 1.356 . S
N249 H254 0.984 . S
N249 H255 0.985 . S
C250 C244 1.379 . S
C250 C247 1.363 . S
C250 N248 1.356 . S
C251 C245 1.363 . S
C251 C246 1.379 . S
C251 N249 1.356 . S
N252 C244 1.356 . S
N252 H258 0.984 . S
N252 H259 0.984 . S
N253 C246 1.356 . S
N253 H256 0.984 1_556 S
N253 H257 0.985 . S
H254 N249 0.984 . S
H255 N249 0.985 . S
H256 N253 0.984 1_554 S
H257 N253 0.985 . S
H258 N252 0.984 . S
H259 N252 0.984 . S
H260 N248 0.984 . S
H261 N248 0.985 . S
C262 C263 1.363 . S
C262 C268 1.379 . S
C262 N270 1.356 . S
C263 C262 1.363 . S
C263 C269 1.363 . S
C264 C265 1.363 . S
C264 C269 1.379 . S
C264 N271 1.356 . S
C265 C264 1.363 . S
C265 C268 1.363 . S
N266 C268 1.356 . S
N266 H278 0.984 . S
N266 H279 0.985 . S
N267 C269 1.356 . S
N267 H272 0.984 . S
N267 H273 0.985 . S
C268 C262 1.379 . S
C268 C265 1.363 . S
C268 N266 1.356 . S
C269 C263 1.363 . S
C269 C264 1.379 . S
C269 N267 1.356 . S
N270 C262 1.356 . S
N270 H276 0.984 . S
N270 H277 0.984 . S
N271 C264 1.356 . S
N271 H274 0.984 . S
N271 H275 0.985 . S
H272 N267 0.984 . S
H273 N267 0.985 . S
H274 N271 0.984 . S
H275 N271 0.985 . S
H276 N270 0.984 . S
H277 N270 0.984 . S
H278 N266 0.984 . S
H279 N266 0.985 . S
C280 C281 1.363 . S
C280 C286 1.379 . S
C280 N288 1.356 . S
C281 C280 1.363 . S
C281 C287 1.363 1_554 S
C282 C283 1.363 . S
C282 C287 1.379 . S
C282 N289 1.356 . S
C283 C282 1.363 . S
C283 C286 1.363 1_556 S
N284 C286 1.356 . S
N284 H296 0.984 . S
N284 H297 0.985 1_554 S
N285 C287 1.356 . S
N285 H290 0.984 . S
N285 H291 0.985 . S
C286 C280 1.379 . S
C286 C283 1.363 1_554 S
C286 N284 1.356 . S
C287 C281 1.363 1_556 S
C287 C282 1.379 . S
C287 N285 1.356 . S
N288 C280 1.356 . S
N288 H294 0.984 . S
N288 H295 0.984 . S
N289 C282 1.356 . S
N289 H292 0.984 . S
N289 H293 0.985 . S
H290 N285 0.984 . S
H291 N285 0.985 . S
H292 N289 0.984 . S
H293 N289 0.985 . S
H294 N288 0.984 . S
H295 N288 0.984 . S
H296 N284 0.984 . S
H297 N284 0.985 1_556 S
C298 C299 1.363 . S
C298 C304 1.379 . S
C298 N306 1.356 . S
C299 C298 1.363 . S
C299 C305 1.363 . S
C300 C301 1.363 . S
C300 C305 1.379 . S
C300 N307 1.356 . S
C301 C300 1.363 . S
C301 C304 1.363 . S
N302 C304 1.356 . S
N302 H314 0.984 . S
N302 H315 0.985 . S
N303 C305 1.356 . S
N303 H308 0.984 . S
N303 H309 0.985 . S
C304 C298 1.379 . S
C304 C301 1.363 . S
C304 N302 1.356 . S
C305 C299 1.363 . S
C305 C300 1.379 . S
C305 N303 1.356 . S
N306 C298 1.356 . S
N306 H312 0.984 . S
N306 H313 0.984 . S
N307 C300 1.356 . S
N307 H310 0.984 . S
N307 H311 0.985 . S
H308 N303 0.984 . S
H309 N303 0.985 . S
H310 N307 0.984 . S
H311 N307 0.985 . S
H312 N306 0.984 . S
H313 N306 0.984 . S
H314 N302 0.984 . S
H315 N302 0.985 . S
C316 C317 1.363 1_554 S
C316 C322 1.379 . S
C316 N324 1.356 . S
C317 C316 1.363 1_556 S
C317 C323 1.363 . S
C318 C319 1.363 1_556 S
C318 C323 1.379 . S
C318 N325 1.356 . S
C319 C318 1.363 1_554 S
C319 C322 1.363 . S
N320 C322 1.356 . S
N320 H332 0.984 . S
N320 H333 0.985 . S
N321 C323 1.356 . S
N321 H326 0.984 . S
N321 H327 0.985 . S
C322 C316 1.379 . S
C322 C319 1.363 . S
C322 N320 1.356 . S
C323 C317 1.363 . S
C323 C318 1.379 . S
C323 N321 1.356 . S
N324 C316 1.356 . S
N324 H330 0.984 . S
N324 H331 0.984 . S
N325 C318 1.356 . S
N325 H328 0.984 1_556 S
N325 H329 0.985 . S
H326 N321 0.984 . S
H327 N321 0.985 . S
H328 N325 0.984 1_554 S
H329 N325 0.985 . S
H330 N324 0.984 . S
H331 N324 0.984 . S
H332 N320 0.984 . S
H333 N320 0.985 . S
C334 C335 1.363 . S
C334 C340 1.379 . S
C334 N342 1.356 . S
C335 C334 1.363 . S
C335 C341 1.363 . S
C336 C337 1.363 . S
C336 C341 1.379 . S
C336 N343 1.356 . S
C337 C336 1.363 . S
C337 C340 1.363 . S
N338 C340 1.356 . S
N338 H350 0.984 . S
N338 H351 0.985 . S
N339 C341 1.356 . S
N339 H344 0.984 . S
N339 H345 0.985 . S
C340 C334 1.379 . S
C340 C337 1.363 . S
C340 N338 1.356 . S
C341 C335 1.363 . S
C341 C336 1.379 . S
C341 N339 1.356 . S
N342 C334 1.356 . S
N342 H348 0.984 . S
N342 H349 0.984 . S
N343 C336 1.356 . S
N343 H346 0.984 . S
N343 H347 0.985 . S
H344 N339 0.984 . S
H345 N339 0.985 . S
H346 N343 0.984 . S
H347 N343 0.985 . S
H348 N342 0.984 . S
H349 N342 0.984 . S
H350 N338 0.984 . S
H351 N338 0.985 . S
C352 C353 1.363 1_556 S
C352 C358 1.379 1_545 S
C352 N360 1.356 . S
C353 C352 1.363 1_554 S
C353 C359 1.363 . S
C354 C355 1.363 1_554 S
C354 C359 1.379 1_565 S
C354 N361 1.356 . S
C355 C354 1.363 1_556 S
C355 C358 1.363 . S
N356 C358 1.356 . S
N356 H368 0.984 . S
N356 H369 0.985 . S
N357 C359 1.356 . S
N357 H362 0.984 . S
N357 H363 0.985 . S
C358 C352 1.379 1_565 S
C358 C355 1.363 . S
C358 N356 1.356 . S
C359 C353 1.363 . S
C359 C354 1.379 1_545 S
C359 N357 1.356 . S
N360 C352 1.356 . S
N360 H366 0.984 . S
N360 H367 0.984 . S
N361 C354 1.356 . S
N361 H364 0.984 . S
N361 H365 0.985 . S
H362 N357 0.984 . S
H363 N357 0.985 . S
H364 N361 0.984 . S
H365 N361 0.985 . S
H366 N360 0.984 . S
H367 N360 0.984 . S
H368 N356 0.984 . S
H369 N356 0.985 . S
C370 C371 1.363 . S
C370 C376 1.379 1_565 S
C370 N378 1.356 . S
C371 C370 1.363 . S
C371 C377 1.363 . S
C372 C373 1.363 . S
C372 C377 1.379 1_545 S
C372 N379 1.356 . S
C373 C372 1.363 . S
C373 C376 1.363 . S
N374 C376 1.356 . S
N374 H386 0.984 . S
N374 H387 0.985 . S
N375 C377 1.356 . S
N375 H380 0.984 . S
N375 H381 0.985 . S
C376 C370 1.379 1_545 S
C376 C373 1.363 . S
C376 N374 1.356 . S
C377 C371 1.363 . S
C377 C372 1.379 1_565 S
C377 N375 1.356 . S
N378 C370 1.356 . S
N378 H384 0.984 . S
N378 H385 0.984 . S
N379 C372 1.356 . S
N379 H382 0.984 . S
N379 H383 0.985 . S
H380 N375 0.984 . S
H381 N375 0.985 . S
H382 N379 0.984 . S
H383 N379 0.985 . S
H384 N378 0.984 . S
H385 N378 0.984 . S
H386 N374 0.984 . S
H387 N374 0.985 . S
C388 C389 1.363 1_554 S
C388 C394 1.379 1_565 S
C388 N396 1.356 1_554 S
C389 C388 1.363 1_556 S
C389 C395 1.363 . S
C390 C391 1.363 1_556 S
C390 C395 1.379 1_545 S
C390 N397 1.356 1_556 S
C391 C390 1.363 1_554 S
C391 C394 1.363 . S
N392 C394 1.356 . S
N392 H404 0.984 . S
N392 H405 0.985 . S
N393 C395 1.356 . S
N393 H398 0.984 . S
N393 H399 0.985 . S
C394 C388 1.379 1_545 S
C394 C391 1.363 . S
C394 N392 1.356 . S
C395 C389 1.363 . S
C395 C390 1.379 1_565 S
C395 N393 1.356 . S
N396 C388 1.356 1_556 S
N396 H402 0.984 1_556 S
N396 H403 0.984 . S
N397 C390 1.356 1_554 S
N397 H400 0.984 . S
N397 H401 0.985 1_554 S
H398 N393 0.984 . S
H399 N393 0.985 . S
H400 N397 0.984 . S
H401 N397 0.985 1_556 S
H402 N396 0.984 1_554 S
H403 N396 0.984 . S
H404 N392 0.984 . S
H405 N392 0.985 . S
C406 C407 1.353 1_565 S
C406 C412 1.388 . S
C406 N414 1.353 1_565 S
C407 C406 1.353 1_545 S
C407 C413 1.363 . S
C408 C409 1.353 1_545 S
C408 C413 1.388 . S
C408 N415 1.353 1_545 S
C409 C408 1.353 1_565 S
C409 C412 1.363 . S
N410 C412 1.356 . S
N410 H422 0.984 . S
N410 H423 0.985 . S
N411 C413 1.356 . S
N411 H416 0.984 . S
N411 H417 0.985 . S
C412 C406 1.388 . S
C412 C409 1.363 . S
C412 N410 1.356 . S
C413 C407 1.363 . S
C413 C408 1.388 . S
C413 N411 1.356 . S
N414 C406 1.353 1_545 S
N414 H420 0.984 1_545 S
N414 H421 0.984 . S
N415 C408 1.353 1_565 S
N415 H418 0.984 . S
N415 H419 0.985 1_565 S
H416 N411 0.984 . S
H417 N411 0.985 . S
H418 N415 0.984 . S
H419 N415 0.985 1_545 S
H420 N414 0.984 1_565 S
H421 N414 0.984 . S
H422 N410 0.984 . S
H423 N410 0.985 . S
C424 C425 1.363 . S
C424 C430 1.379 . S
C424 N432 1.356 . S
C425 C424 1.363 . S
C425 C431 1.363 1_556 S
C426 C427 1.363 . S
C426 C431 1.379 . S
C426 N433 1.356 . S
C427 C426 1.363 . S
C427 C430 1.363 1_554 S
N428 C430 1.356 . S
N428 H440 0.984 . S
N428 H441 0.985 . S
N429 C431 1.356 . S
N429 H434 0.984 . S
N429 H435 0.985 . S
C430 C424 1.379 . S
C430 C427 1.363 1_556 S
C430 N428 1.356 . S
C431 C425 1.363 1_554 S
C431 C426 1.379 . S
C431 N429 1.356 . S
N432 C424 1.356 . S
N432 H438 0.984 . S
N432 H439 0.984 . S
N433 C426 1.356 . S
N433 H436 0.984 . S
N433 H437 0.985 . S
H434 N429 0.984 . S
H435 N429 0.985 . S
H436 N433 0.984 . S
H437 N433 0.985 . S
H438 N432 0.984 . S
H439 N432 0.984 . S
H440 N428 0.984 . S
H441 N428 0.985 . S
C442 C443 1.363 . S
C442 C448 1.379 . S
C442 N450 1.356 . S
C443 C442 1.363 . S
C443 C449 1.363 . S
C444 C445 1.363 . S
C444 C449 1.379 . S
C444 N451 1.356 . S
C445 C444 1.363 . S
C445 C448 1.363 . S
N446 C448 1.356 . S
N446 H458 0.984 . S
N446 H459 0.985 . S
N447 C449 1.356 . S
N447 H452 0.984 . S
N447 H453 0.985 . S
C448 C442 1.379 . S
C448 C445 1.363 . S
C448 N446 1.356 . S
C449 C443 1.363 . S
C449 C444 1.379 . S
C449 N447 1.356 . S
N450 C442 1.356 . S
N450 H456 0.984 . S
N450 H457 0.984 . S
N451 C444 1.356 . S
N451 H454 0.984 . S
N451 H455 0.985 . S
H452 N447 0.984 . S
H453 N447 0.985 . S
H454 N451 0.984 . S
H455 N451 0.985 . S
H456 N450 0.984 . S
H457 N450 0.984 . S
H458 N446 0.984 . S
H459 N446 0.985 . S
C460 C461 1.363 . S
C460 C466 1.379 . S
C460 N468 1.356 . S
C461 C460 1.363 . S
C461 C467 1.363 1_554 S
C462 C463 1.363 . S
C462 C467 1.379 . S
C462 N469 1.356 . S
C463 C462 1.363 . S
C463 C466 1.363 1_556 S
N464 C466 1.356 1_556 S
N464 H476 0.984 1_556 S
N464 H477 0.985 . S
N465 C467 1.356 1_554 S
N465 H470 0.984 . S
N465 H471 0.985 1_554 S
C466 C460 1.379 . S
C466 C463 1.363 1_554 S
C466 N464 1.356 1_554 S
C467 C461 1.363 1_556 S
C467 C462 1.379 . S
C467 N465 1.356 1_556 S
N468 C460 1.356 . S
N468 H474 0.984 . S
N468 H475 0.984 . S
N469 C462 1.356 . S
N469 H472 0.984 . S
N469 H473 0.985 . S
H470 N465 0.984 . S
H471 N465 0.985 1_556 S
H472 N469 0.984 . S
H473 N469 0.985 . S
H474 N468 0.984 . S
H475 N468 0.984 . S
H476 N464 0.984 1_554 S
H477 N464 0.985 . S
C478 C479 1.363 . S
C478 C484 1.379 . S
C478 N486 1.356 . S
C479 C478 1.363 . S
C479 C485 1.363 . S
C480 C481 1.363 . S
C480 C485 1.379 . S
C480 N487 1.356 . S
C481 C480 1.363 . S
C481 C484 1.363 . S
N482 C484 1.356 . S
N482 H494 0.984 . S
N482 H495 0.985 . S
N483 C485 1.356 . S
N483 H488 0.984 . S
N483 H489 0.985 . S
C484 C478 1.379 . S
C484 C481 1.363 . S
C484 N482 1.356 . S
C485 C479 1.363 . S
C485 C480 1.379 . S
C485 N483 1.356 . S
N486 C478 1.356 . S
N486 H492 0.984 . S
N486 H493 0.984 . S
N487 C480 1.356 . S
N487 H490 0.984 . S
N487 H491 0.985 . S
H488 N483 0.984 . S
H489 N483 0.985 . S
H490 N487 0.984 . S
H491 N487 0.985 . S
H492 N486 0.984 . S
H493 N486 0.984 . S
H494 N482 0.984 . S
H495 N482 0.985 . S
C496 C497 1.363 . S
C496 C502 1.379 . S
C496 N504 1.356 . S
C497 C496 1.363 . S
C497 C503 1.363 . S
C498 C499 1.363 . S
C498 C503 1.379 . S
C498 N505 1.356 . S
C499 C498 1.363 . S
C499 C502 1.363 . S
N500 C502 1.356 . S
N500 H512 0.984 . S
N500 H513 0.985 . S
N501 C503 1.356 . S
N501 H506 0.984 . S
N501 H507 0.985 1_554 S
C502 C496 1.379 . S
C502 C499 1.363 . S
C502 N500 1.356 . S
C503 C497 1.363 . S
C503 C498 1.379 . S
C503 N501 1.356 . S
N504 C496 1.356 . S
N504 H510 0.984 . S
N504 H511 0.984 . S
N505 C498 1.356 . S
N505 H508 0.984 . S
N505 H509 0.985 1_554 S
H506 N501 0.984 . S
H507 N501 0.985 1_556 S
H508 N505 0.984 . S
H509 N505 0.985 1_556 S
H510 N504 0.984 . S
H511 N504 0.984 . S
H512 N500 0.984 . S
H513 N500 0.985 . S
C514 C515 1.363 . S
C514 C520 1.379 1_655 S
C514 N522 1.356 . S
C515 C514 1.363 . S
C515 C521 1.363 . S
C516 C517 1.363 . S
C516 C521 1.379 1_455 S
C516 N523 1.356 . S
C517 C516 1.363 . S
C517 C520 1.363 . S
N518 C520 1.356 . S
N518 H530 0.984 . S
N518 H531 0.985 . S
N519 C521 1.356 . S
N519 H524 0.984 . S
N519 H525 0.985 . S
C520 C514 1.379 1_455 S
C520 C517 1.363 . S
C520 N518 1.356 . S
C521 C515 1.363 . S
C521 C516 1.379 1_655 S
C521 N519 1.356 . S
N522 C514 1.356 . S
N522 H528 0.984 . S
N522 H529 0.984 . S
N523 C516 1.356 . S
N523 H526 0.984 . S
N523 H527 0.985 . S
H524 N519 0.984 . S
H525 N519 0.985 . S
H526 N523 0.984 . S
H527 N523 0.985 . S
H528 N522 0.984 . S
H529 N522 0.984 . S
H530 N518 0.984 . S
H531 N518 0.985 . S
C532 C533 1.363 . S
C532 C538 1.379 . S
C532 N540 1.356 . S
C533 C532 1.363 . S
C533 C539 1.363 . S
C534 C535 1.363 . S
C534 C539 1.379 . S
C534 N541 1.356 . S
C535 C534 1.363 . S
C535 C538 1.363 . S
N536 C538 1.356 . S
N536 H548 0.984 . S
N536 H549 0.985 . S
N537 C539 1.356 . S
N537 H542 0.984 . S
N537 H543 0.985 . S
C538 C532 1.379 . S
C538 C535 1.363 . S
C538 N536 1.356 . S
C539 C533 1.363 . S
C539 C534 1.379 . S
C539 N537 1.356 . S
N540 C532 1.356 . S
N540 H546 0.984 . S
N540 H547 0.984 . S
N541 C534 1.356 . S
N541 H544 0.984 . S
N541 H545 0.985 . S
H542 N537 0.984 . S
H543 N537 0.985 . S
H544 N541 0.984 . S
H545 N541 0.985 . S
H546 N540 0.984 . S
H547 N540 0.984 . S
H548 N536 0.984 . S
H549 N536 0.985 . S
C550 C551 1.363 . S
C550 C556 1.379 1_455 S
C550 N558 1.356 . S
C551 C550 1.363 . S
C551 C557 1.363 . S
C552 C553 1.363 . S
C552 C557 1.379 1_655 S
C552 N559 1.356 . S
C553 C552 1.363 . S
C553 C556 1.363 . S
N554 C556 1.356 . S
N554 H566 0.984 . S
N554 H567 0.985 . S
N555 C557 1.356 . S
N555 H560 0.984 . S
N555 H561 0.985 . S
C556 C550 1.379 1_655 S
C556 C553 1.363 . S
C556 N554 1.356 . S
C557 C551 1.363 . S
C557 C552 1.379 1_455 S
C557 N555 1.356 . S
N558 C550 1.356 . S
N558 H564 0.984 . S
N558 H565 0.984 . S
N559 C552 1.356 . S
N559 H562 0.984 . S
N559 H563 0.985 . S
H560 N555 0.984 . S
H561 N555 0.985 . S
H562 N559 0.984 . S
H563 N559 0.985 . S
H564 N558 0.984 . S
H565 N558 0.984 . S
H566 N554 0.984 . S
H567 N554 0.985 . S
C568 C569 1.363 . S
C568 C574 1.379 1_455 S
C568 N576 1.356 . S
C569 C568 1.363 . S
C569 C575 1.363 . S
C570 C571 1.363 . S
C570 C575 1.379 1_655 S
C570 N577 1.356 . S
C571 C570 1.363 . S
C571 C574 1.363 . S
N572 C574 1.356 . S
N572 H584 0.984 . S
N572 H585 0.985 . S
N573 C575 1.356 . S
N573 H578 0.984 . S
N573 H579 0.985 . S
C574 C568 1.379 1_655 S
C574 C571 1.363 . S
C574 N572 1.356 . S
C575 C569 1.363 . S
C575 C570 1.379 1_455 S
C575 N573 1.356 . S
N576 C568 1.356 . S
N576 H582 0.984 . S
N576 H583 0.984 . S
N577 C570 1.356 . S
N577 H580 0.984 . S
N577 H581 0.985 . S
H578 N573 0.984 . S
H579 N573 0.985 . S
H580 N577 0.984 . S
H581 N577 0.985 . S
H582 N576 0.984 . S
H583 N576 0.984 . S
H584 N572 0.984 . S
H585 N572 0.985 . S
C586 C587 1.363 . S
C586 C592 1.379 . S
C586 N594 1.356 . S
C587 C586 1.363 . S
C587 C593 1.363 . S
C588 C589 1.363 . S
C588 C593 1.379 . S
C588 N595 1.356 . S
C589 C588 1.363 . S
C589 C592 1.363 . S
N590 C592 1.356 . S
N590 H602 0.984 . S
N590 H603 0.985 . S
N591 C593 1.356 . S
N591 H596 0.984 . S
N591 H597 0.985 . S
C592 C586 1.379 . S
C592 C589 1.363 . S
C592 N590 1.356 . S
C593 C587 1.363 . S
C593 C588 1.379 . S
C593 N591 1.356 . S
N594 C586 1.356 . S
N594 H600 0.984 . S
N594 H601 0.984 . S
N595 C588 1.356 . S
N595 H598 0.984 . S
N595 H599 0.985 . S
H596 N591 0.984 . S
H597 N591 0.985 . S
H598 N595 0.984 . S
H599 N595 0.985 . S
H600 N594 0.984 . S
H601 N594 0.984 . S
H602 N590 0.984 . S
H603 N590 0.985 . S
C604 C605 1.363 . S
C604 C610 1.379 1_455 S
C604 N612 1.356 . S
C605 C604 1.363 . S
C605 C611 1.363 . S
C606 C607 1.363 . S
C606 C611 1.379 1_655 S
C606 N613 1.356 . S
C607 C606 1.363 . S
C607 C610 1.363 . S
N608 C610 1.356 . S
N608 H620 0.984 . S
N608 H621 0.985 . S
N609 C611 1.356 . S
N609 H614 0.984 . S
N609 H615 0.985 . S
C610 C604 1.379 1_655 S
C610 C607 1.363 . S
C610 N608 1.356 . S
C611 C605 1.363 . S
C611 C606 1.379 1_455 S
C611 N609 1.356 . S
N612 C604 1.356 . S
N612 H618 0.984 1_556 S
N612 H619 0.984 . S
N613 C606 1.356 . S
N613 H616 0.984 . S
N613 H617 0.985 . S
H614 N609 0.984 . S
H615 N609 0.985 . S
H616 N613 0.984 . S
H617 N613 0.985 . S
H618 N612 0.984 1_554 S
H619 N612 0.984 . S
H620 N608 0.984 . S
H621 N608 0.985 . S
C622 C623 1.363 . S
C622 C628 1.379 . S
C622 N630 1.356 . S
C623 C622 1.363 . S
C623 C629 1.363 . S
C624 C625 1.363 . S
C624 C629 1.379 . S
C624 N631 1.356 . S
C625 C624 1.363 . S
C625 C628 1.363 . S
N626 C628 1.356 . S
N626 H638 0.984 . S
N626 H639 0.985 . S
N627 C629 1.356 . S
N627 H632 0.984 . S
N627 H633 0.985 . S
C628 C622 1.379 . S
C628 C625 1.363 . S
C628 N626 1.356 . S
C629 C623 1.363 . S
C629 C624 1.379 . S
C629 N627 1.356 . S
N630 C622 1.356 . S
N630 H636 0.984 . S
N630 H637 0.984 . S
N631 C624 1.356 . S
N631 H634 0.984 . S
N631 H635 0.985 . S
H632 N627 0.984 . S
H633 N627 0.985 . S
H634 N631 0.984 . S
H635 N631 0.985 . S
H636 N630 0.984 . S
H637 N630 0.984 . S
H638 N626 0.984 . S
H639 N626 0.985 . S
C640 C641 1.363 . S
C640 C646 1.379 . S
C640 N648 1.356 . S
C641 C640 1.363 . S
C641 C647 1.363 . S
C642 C643 1.363 . S
C642 C647 1.379 . S
C642 N649 1.356 . S
C643 C642 1.363 . S
C643 C646 1.363 . S
N644 C646 1.356 . S
N644 H656 0.984 . S
N644 H657 0.985 . S
N645 C647 1.356 . S
N645 H650 0.984 . S
N645 H651 0.985 . S
C646 C640 1.379 . S
C646 C643 1.363 . S
C646 N644 1.356 . S
C647 C641 1.363 . S
C647 C642 1.379 . S
C647 N645 1.356 . S
N648 C640 1.356 . S
N648 H654 0.984 . S
N648 H655 0.984 . S
N649 C642 1.356 . S
N649 H652 0.984 . S
N649 H653 0.985 . S
H650 N645 0.984 . S
H651 N645 0.985 . S
H652 N649 0.984 . S
H653 N649 0.985 . S
H654 N648 0.984 . S
H655 N648 0.984 . S
H656 N644 0.984 . S
H657 N644 0.985 . S
C658 C659 1.363 . S
C658 C664 1.379 . S
C658 N666 1.356 . S
C659 C658 1.363 . S
C659 C665 1.363 . S
C660 C661 1.363 . S
C660 C665 1.379 . S
C660 N667 1.356 . S
C661 C660 1.363 . S
C661 C664 1.363 . S
N662 C664 1.356 . S
N662 H674 0.984 . S
N662 H675 0.985 . S
N663 C665 1.356 . S
N663 H668 0.984 . S
N663 H669 0.985 . S
C664 C658 1.379 . S
C664 C661 1.363 . S
C664 N662 1.356 . S
C665 C659 1.363 . S
C665 C660 1.379 . S
C665 N663 1.356 . S
N666 C658 1.356 . S
N666 H672 0.984 . S
N666 H673 0.984 . S
N667 C660 1.356 . S
N667 H670 0.984 . S
N667 H671 0.985 . S
H668 N663 0.984 . S
H669 N663 0.985 . S
H670 N667 0.984 . S
H671 N667 0.985 . S
H672 N666 0.984 . S
H673 N666 0.984 . S
H674 N662 0.984 . S
H675 N662 0.985 . S
C676 C677 1.363 . S
C676 C682 1.379 . S
C676 N684 1.356 . S
C677 C676 1.363 . S
C677 C683 1.363 . S
C678 C679 1.363 . S
C678 C683 1.379 . S
C678 N685 1.356 . S
C679 C678 1.363 . S
C679 C682 1.363 . S
N680 C682 1.356 . S
N680 H692 0.984 . S
N680 H693 0.985 . S
N681 C683 1.356 . S
N681 H686 0.984 . S
N681 H687 0.985 . S
C682 C676 1.379 . S
C682 C679 1.363 . S
C682 N680 1.356 . S
C683 C677 1.363 . S
C683 C678 1.379 . S
C683 N681 1.356 . S
N684 C676 1.356 . S
N684 H690 0.984 . S
N684 H691 0.984 . S
N685 C678 1.356 . S
N685 H688 0.984 . S
N685 H689 0.985 . S
H686 N681 0.984 . S
H687 N681 0.985 . S
H688 N685 0.984 . S
H689 N685 0.985 . S
H690 N684 0.984 . S
H691 N684 0.984 . S
H692 N680 0.984 . S
H693 N680 0.985 . S
C694 C695 1.363 . S
C694 C700 1.379 . S
C694 N702 1.356 . S
C695 C694 1.363 . S
C695 C701 1.363 . S
C696 C697 1.363 . S
C696 C701 1.379 . S
C696 N703 1.356 . S
C697 C696 1.363 . S
C697 C700 1.363 . S
N698 C700 1.356 . S
N698 H710 0.984 . S
N698 H711 0.985 . S
N699 C701 1.356 . S
N699 H704 0.984 . S
N699 H705 0.985 . S
C700 C694 1.379 . S
C700 C697 1.363 . S
C700 N698 1.356 . S
C701 C695 1.363 . S
C701 C696 1.379 . S
C701 N699 1.356 . S
N702 C694 1.356 . S
N702 H708 0.984 . S
N702 H709 0.984 . S
N703 C696 1.356 . S
N703 H706 0.984 . S
N703 H707 0.985 . S
H704 N699 0.984 . S
H705 N699 0.985 . S
H706 N703 0.984 . S
H707 N703 0.985 . S
H708 N702 0.984 . S
H709 N702 0.984 . S
H710 N698 0.984 . S
H711 N698 0.985 . S
C712 C713 1.363 . S
C712 C718 1.379 . S
C712 N720 1.356 . S
C713 C712 1.363 . S
C713 C719 1.363 . S
C714 C715 1.363 . S
C714 C719 1.379 . S
C714 N721 1.356 . S
C715 C714 1.363 . S
C715 C718 1.363 . S
N716 C718 1.356 . S
N716 H728 0.984 . S
N716 H729 0.985 . S
N717 C719 1.356 . S
N717 H722 0.984 . S
N717 H723 0.985 . S
C718 C712 1.379 . S
C718 C715 1.363 . S
C718 N716 1.356 . S
C719 C713 1.363 . S
C719 C714 1.379 . S
C719 N717 1.356 . S
N720 C712 1.356 . S
N720 H726 0.984 . S
N720 H727 0.984 . S
N721 C714 1.356 . S
N721 H724 0.984 . S
N721 H725 0.985 . S
H722 N717 0.984 . S
H723 N717 0.985 . S
H724 N721 0.984 . S
H725 N721 0.985 . S
H726 N720 0.984 . S
H727 N720 0.984 . S
H728 N716 0.984 . S
H729 N716 0.985 . S
C730 C731 1.363 . S
C730 C736 1.379 . S
C730 N738 1.356 . S
C731 C730 1.363 . S
C731 C737 1.363 . S
C732 C733 1.363 . S
C732 C737 1.379 . S
C732 N739 1.356 . S
C733 C732 1.363 . S
C733 C736 1.363 . S
N734 C736 1.356 . S
N734 H746 0.984 . S
N734 H747 0.985 . S
N735 C737 1.356 . S
N735 H740 0.984 . S
N735 H741 0.985 . S
C736 C730 1.379 . S
C736 C733 1.363 . S
C736 N734 1.356 . S
C737 C731 1.363 . S
C737 C732 1.379 . S
C737 N735 1.356 . S
N738 C730 1.356 . S
N738 H744 0.984 . S
N738 H745 0.984 . S
N739 C732 1.356 . S
N739 H742 0.984 . S
N739 H743 0.985 . S
H740 N735 0.984 . S
H741 N735 0.985 . S
H742 N739 0.984 . S
H743 N739 0.985 . S
H744 N738 0.984 . S
H745 N738 0.984 . S
H746 N734 0.984 . S
H747 N734 0.985 . S
C748 C749 1.363 . S
C748 C754 1.379 . S
C748 N756 1.356 . S
C749 C748 1.363 . S
C749 C755 1.363 . S
C750 C751 1.363 . S
C750 C755 1.379 . S
C750 N757 1.356 . S
C751 C750 1.363 . S
C751 C754 1.363 . S
N752 C754 1.356 . S
N752 H764 0.984 . S
N752 H765 0.985 . S
N753 C755 1.356 . S
N753 H758 0.984 . S
N753 H759 0.985 . S
C754 C748 1.379 . S
C754 C751 1.363 . S
C754 N752 1.356 . S
C755 C749 1.363 . S
C755 C750 1.379 . S
C755 N753 1.356 . S
N756 C748 1.356 . S
N756 H762 0.984 . S
N756 H763 0.984 . S
N757 C750 1.356 . S
N757 H760 0.984 . S
N757 H761 0.985 . S
H758 N753 0.984 . S
H759 N753 0.985 . S
H760 N757 0.984 . S
H761 N757 0.985 . S
H762 N756 0.984 . S
H763 N756 0.984 . S
H764 N752 0.984 . S
H765 N752 0.985 . S
C766 C767 1.363 . S
C766 C772 1.379 . S
C766 N774 1.356 . S
C767 C766 1.363 . S
C767 C773 1.363 . S
C768 C769 1.363 . S
C768 C773 1.379 . S
C768 N775 1.356 . S
C769 C768 1.363 . S
C769 C772 1.363 . S
N770 C772 1.356 . S
N770 H782 0.984 . S
N770 H783 0.985 . S
N771 C773 1.356 . S
N771 H776 0.984 . S
N771 H777 0.985 . S
C772 C766 1.379 . S
C772 C769 1.363 . S
C772 N770 1.356 . S
C773 C767 1.363 . S
C773 C768 1.379 . S
C773 N771 1.356 . S
N774 C766 1.356 . S
N774 H780 0.984 . S
N774 H781 0.984 . S
N775 C768 1.356 . S
N775 H778 0.984 . S
N775 H779 0.985 . S
H776 N771 0.984 . S
H777 N771 0.985 . S
H778 N775 0.984 . S
H779 N775 0.985 . S
H780 N774 0.984 . S
H781 N774 0.984 . S
H782 N770 0.984 . S
H783 N770 0.985 . S
C209 C4 1.610 . S
C211 C166 1.597 . S
C227 C173 1.597 . S
C229 C23 1.610 . S
C245 C36 1.610 . S
C247 C192 1.597 . S
C263 C199 1.597 . S
C265 C43 1.610 . S
C281 C108 1.610 . S
C283 C62 1.597 . S
C299 C69 1.597 . S
C301 C121 1.610 . S
C317 C140 1.610 . S
C319 C88 1.597 . S
C335 C101 1.597 . S
C337 C153 1.610 . S
C353 C3 1.652 . S
C355 C31 1.652 . S
C371 C18 1.652 . S
C373 C42 1.652 . S
C389 C55 1.630 . S
C391 C81 1.630 . S
C407 C70 1.630 . S
C409 C94 1.630 . S
C425 C135 1.652 . S
C427 C107 1.652 . S
C443 C120 1.652 . S
C445 C148 1.652 . S
C461 C185 1.630 . S
C463 C159 1.630 . S
C479 C174 1.630 . S
C481 C200 1.630 . S
C497 C83 1.507 . S
C499 C5 1.509 . S
C515 C96 1.507 . S
C517 C16 1.509 . S
C533 C29 1.509 . S
C535 C57 1.507 . S
C551 C44 1.509 . S
C553 C68 1.507 . S
C569 C187 1.507 . S
C571 C109 1.509 . S
C587 C122 1.509 . S
C589 C198 1.507 . S
C605 C161 1.507 . S
C607 C133 1.509 . S
C623 C146 1.509 . S
C625 C172 1.507 . S
C641 C10 1.499 . S
C643 C49 1.499 . S
C659 C30 1.499 . S
C661 C17 1.499 . S
C677 C56 1.674 . S
C679 C95 1.674 . S
C695 C75 1.674 . S
C697 C82 1.674 . S
C713 C147 1.499 . S
C715 C114 1.499 . S
C731 C127 1.499 . S
C733 C134 1.499 . S
C749 C205 1.674 . S
C751 C160 1.674 . S
C767 C179 1.674 . S
C769 C186 1.674 . S
