# Generated by pormake.
# Topology sml, (6)-cn, num edge types: 1
# Building blocks:
#     Node 0, Type 0, BuildingBlock: CIFDUS_clean_sbu_1, # of connection points: 6
#     Node 1, Type 0, BuildingBlock: CIFDUS_clean_sbu_1, # of connection points: 6
#     Node 2, Type 0, BuildingBlock: CIFDUS_clean_sbu_1, # of connection points: 6
#     Node 3, Type 0, BuildingBlock: CIFDUS_clean_sbu_1, # of connection points: 6
#     Node 4, Type 0, BuildingBlock: CIFDUS_clean_sbu_1, # of connection points: 6
#     Node 5, Type 0, BuildingBlock: CIFDUS_clean_sbu_1, # of connection points: 6
#     Edge 6, Type (0, 0), BuildingBlock: FUNLAD_clean_linker_1, # of connection points: 2
#     Edge 7, Type (0, 0), BuildingBlock: FUNLAD_clean_linker_1, # of connection points: 2
#     Edge 8, Type (0, 0), BuildingBlock: FUNLAD_clean_linker_1, # of connection points: 2
#     Edge 9, Type (0, 0), BuildingBlock: FUNLAD_clean_linker_1, # of connection points: 2
#     Edge 10, Type (0, 0), BuildingBlock: FUNLAD_clean_linker_1, # of connection points: 2
#     Edge 11, Type (0, 0), BuildingBlock: FUNLAD_clean_linker_1, # of connection points: 2
#     Edge 12, Type (0, 0), BuildingBlock: FUNLAD_clean_linker_1, # of connection points: 2
#     Edge 13, Type (0, 0), BuildingBlock: FUNLAD_clean_linker_1, # of connection points: 2
#     Edge 14, Type (0, 0), BuildingBlock: FUNLAD_clean_linker_1, # of connection points: 2
#     Edge 15, Type (0, 0), BuildingBlock: FUNLAD_clean_linker_1, # of connection points: 2
#     Edge 16, Type (0, 0), BuildingBlock: FUNLAD_clean_linker_1, # of connection points: 2
#     Edge 17, Type (0, 0), BuildingBlock: FUNLAD_clean_linker_1, # of connection points: 2
#     Edge 18, Type (0, 0), BuildingBlock: FUNLAD_clean_linker_1, # of connection points: 2
#     Edge 19, Type (0, 0), BuildingBlock: FUNLAD_clean_linker_1, # of connection points: 2
#     Edge 20, Type (0, 0), BuildingBlock: FUNLAD_clean_linker_1, # of connection points: 2
#     Edge 21, Type (0, 0), BuildingBlock: FUNLAD_clean_linker_1, # of connection points: 2
#     Edge 22, Type (0, 0), BuildingBlock: FUNLAD_clean_linker_1, # of connection points: 2
#     Edge 23, Type (0, 0), BuildingBlock: FUNLAD_clean_linker_1, # of connection points: 2
# Relax obj value: 0.146
# Max RMSD: 0.167
# Mean RMSD: 0.167
data_MOF--net-sml--node1-CIFDUS_clean_sbu_1--edge1-FUNLAD_clean_linker_1
_symmetry_space_group_name_H-M    P1
_symmetry_Int_Tables_number       1
_symmetry_cell_setting            triclinic
loop_
_symmetry_equiv_pos_as_xyz
'x, y, z'
_cell_length_a     41.440728
_cell_length_b     41.636492
_cell_length_c     16.074968
_cell_angle_alpha  89.771403
_cell_angle_beta   90.357993
_cell_angle_gamma 119.97175
loop_
_atom_site_label
_atom_site_type_symbol
_atom_site_fract_x
_atom_site_fract_y
_atom_site_fract_z
_atom_type_partial_charge
O0 O 0.20786 0.46425 0.02794 0.0
Mn1 Mn 0.23013 0.43019 0.00315 0.0
O2 O 0.25108 0.50804 0.11299 0.0
Mn3 Mn 0.28846 0.49586 0.10726 0.0
O4 O 0.25462 0.39762 0.97928 0.0
O5 O 0.17808 0.3856 -0.00432 0.0
Mn6 Mn 0.17612 0.35974 0.90673 0.0
O7 O 0.23135 0.44141 0.87679 0.0
O8 O 0.2112 0.34459 0.92005 0.0
O9 O 0.22873 0.41879 0.13054 0.0
O10 O 0.28384 0.46073 0.18363 0.0
O11 O 0.1295 0.33466 0.95359 0.0
O12 O 0.18477 0.39069 0.81655 0.0
C13 C 0.31289 0.50206 0.98624 0.0
C14 C 0.21959 0.49287 0.07519 0.0
C15 C 0.24416 0.36557 0.94761 0.0
C16 C 0.14336 0.36112 0.00795 0.0
C17 C 0.2113 0.42421 0.81353 0.0
C18 C 0.25251 0.43113 0.19037 0.0
O19 O 0.28131 0.47472 0.00959 0.0
O20 O 0.33062 0.52542 0.04528 0.0
O21 O 0.74668 0.2014 0.37002 0.0
Mn22 Mn 0.80336 0.22684 0.33973 0.0
O23 O 0.73869 0.24588 0.4294 0.0
Mn24 Mn 0.78817 0.28219 0.43063 0.0
O25 O 0.85971 0.25378 0.30538 0.0
O26 O 0.79873 0.17543 0.34273 0.0
Mn27 Mn 0.82509 0.17415 0.25767 0.0
O28 O 0.78895 0.22154 0.21481 0.0
O29 O 0.87473 0.21097 0.27024 0.0
O30 O 0.81818 0.23145 0.4655 0.0
O31 O 0.81529 0.27975 0.51815 0.0
O32 O 0.80638 0.1288 0.3081 0.0
O33 O 0.80288 0.1797 0.1629 0.0
C34 C 0.81379 0.31124 0.32098 0.0
C35 C 0.72617 0.21291 0.40333 0.0
C36 C 0.88367 0.2446 0.28299 0.0
C37 C 0.79143 0.14168 0.3587 0.0
C38 C 0.79064 0.20222 0.155 0.0
C39 C 0.82283 0.25385 0.52486 0.0
O40 O 0.80794 0.27805 0.33716 0.0
O41 O 0.80331 0.32604 0.3777 0.0
O42 O 0.54734 0.74475 0.69872 0.0
Mn43 Mn 0.58046 0.8015 0.66837 0.0
O44 O 0.49375 0.73862 0.74696 0.0
Mn45 Mn 0.50962 0.78816 0.75369 0.0
O46 O 0.61222 0.85839 0.63795 0.0
O47 O 0.62611 0.79423 0.67155 0.0
Mn48 Mn 0.65397 0.82135 0.58706 0.0
O49 O 0.57141 0.78803 0.54353 0.0
O50 O 0.66914 0.87105 0.60032 0.0
O51 O 0.58987 0.81426 0.79455 0.0
O52 O 0.53817 0.8112 0.84519 0.0
O53 O 0.68032 0.80169 0.63331 0.0
O54 O 0.62664 0.80019 0.49176 0.0
C55 C 0.50899 0.81723 0.64865 0.0
C56 C 0.51425 0.72505 0.72821 0.0
C57 C 0.6457 0.88145 0.61521 0.0
C58 C 0.6522 0.78565 0.68336 0.0
C59 C 0.59189 0.78844 0.48387 0.0
C60 C 0.57118 0.81721 0.8542 0.0
O61 O 0.53534 0.80936 0.66356 0.0
O62 O 0.48301 0.80655 0.70402 0.0
O63 O 0.80618 0.54205 0.02281 0.0
Mn64 Mn 0.78453 0.57755 0.00188 0.0
O65 O 0.7621 0.493 0.09262 0.0
Mn66 Mn 0.72917 0.51068 0.1012 0.0
O67 O 0.76278 0.61373 0.97471 0.0
O68 O 0.8383 0.62012 -0.0016 0.0
Mn69 Mn 0.84317 0.64685 0.90973 0.0
O70 O 0.78345 0.56698 0.87603 0.0
O71 O 0.81121 0.66516 0.92039 0.0
O72 O 0.78636 0.58893 0.1296 0.0
O73 O 0.73638 0.54183 0.1885 0.0
O74 O 0.88923 0.67 0.95903 0.0
O75 O 0.8335 0.6158 0.81995 0.0
C76 C 0.69691 0.506 -0.00409 0.0
C77 C 0.79374 0.51019 0.05745 0.0
C78 C 0.77736 0.64675 0.94287 0.0
C79 C 0.8736 0.64297 0.01173 0.0
C80 C 0.80517 0.58336 0.81489 0.0
C81 C 0.76498 0.57386 0.19228 0.0
O82 O 0.73116 0.5331 0.00575 0.0
O83 O 0.68295 0.48299 0.05745 0.0
O84 O 0.26579 0.80017 0.34634 0.0
Mn85 Mn 0.20796 0.77784 0.34008 0.0
O86 O 0.27017 0.76371 0.44087 0.0
Mn87 Mn 0.22244 0.72432 0.42587 0.0
O88 O 0.14967 0.75512 0.32826 0.0
O89 O 0.21877 0.83217 0.34774 0.0
Mn90 Mn 0.19012 0.83401 0.26739 0.0
O91 O 0.21131 0.77889 0.20874 0.0
O92 O 0.14017 0.80082 0.28388 0.0
O93 O 0.20369 0.77569 0.47339 0.0
O94 O 0.19156 0.71918 0.51056 0.0
O95 O 0.21157 0.87976 0.31259 0.0
O96 O 0.20729 0.8282 0.16695 0.0
C97 C 0.20311 0.69798 0.30994 0.0
C98 C 0.28499 0.79278 0.39711 0.0
C99 C 0.12801 0.76725 0.3043 0.0
C100 C 0.22843 0.86716 0.35928 0.0
C101 C 0.21156 0.80074 0.15152 0.0
C102 C 0.19324 0.74952 0.52839 0.0
O103 O 0.19579 0.72326 0.33695 0.0
O104 O 0.22155 0.68894 0.361 0.0
O105 O 0.46904 0.26489 0.68446 0.0
Mn106 Mn 0.43329 0.20744 0.66823 0.0
O107 O 0.52124 0.27125 0.74408 0.0
Mn108 Mn 0.50621 0.22136 0.74718 0.0
O109 O 0.39793 0.14943 0.64916 0.0
O110 O 0.38873 0.21757 0.67948 0.0
Mn111 Mn 0.36209 0.1922 0.59139 0.0
O112 O 0.43853 0.21578 0.53668 0.0
O113 O 0.3433 0.14217 0.6051 0.0
O114 O 0.42926 0.19861 0.80121 0.0
O115 O 0.47987 0.19564 0.83882 0.0
O116 O 0.33467 0.21058 0.63016 0.0
O117 O 0.38551 0.21179 0.49317 0.0
C118 C 0.50501 0.19313 0.63771 0.0
C119 C 0.50209 0.28485 0.71455 0.0
C120 C 0.3637 0.12883 0.62604 0.0
C121 C 0.3606 0.22395 0.68648 0.0
C122 C 0.4179 0.2177 0.47889 0.0
C123 C 0.44856 0.19227 0.85589 0.0
O124 O 0.47867 0.20024 0.65758 0.0
O125 O 0.53241 0.20447 0.69008 0.0
H126 H 0.32369 0.22191 0.78049 0.0
C127 C 0.35218 0.23944 0.75992 0.0
H128 H 0.39599 0.29388 0.7504 0.0
H129 H 0.30287 0.37532 0.7807 0.0
H130 H 0.34559 0.40713 0.6681 0.0
H131 H 0.38912 0.38704 0.62052 0.0
H132 H 0.3906 0.33558 0.68525 0.0
C133 C 0.3688 0.27596 0.77714 0.0
C134 C 0.34686 0.29244 0.81559 0.0
C135 C 0.34705 0.32363 0.77739 0.0
C136 C 0.3216 0.33525 0.80415 0.0
C137 C 0.32176 0.36564 0.76363 0.0
C138 C 0.34604 0.38409 0.6985 0.0
C139 C 0.37052 0.37275 0.67176 0.0
C140 C 0.37109 0.34295 0.71013 0.0
H141 H 0.30041 0.37186 0.96059 0.0
C142 C 0.27254 0.35415 0.9358 0.0
H143 H 0.23811 0.30682 0.86311 0.0
H144 H 0.34474 0.23918 0.92097 0.0
H145 H 0.29524 0.20155 0.01766 0.0
H146 H 0.24514 0.21559 0.04623 0.0
H147 H 0.24533 0.26831 0.9812 0.0
C148 C 0.26578 0.32471 0.88852 0.0
C149 C 0.29524 0.31537 0.86724 0.0
C150 C 0.29471 0.28433 0.90474 0.0
C151 C 0.32184 0.27432 0.88291 0.0
C152 C 0.32275 0.2457 0.92891 0.0
C153 C 0.29491 0.22435 0.98584 0.0
C154 C 0.2668 0.23233 0.00218 0.0
C155 C 0.26713 0.26253 0.96397 0.0
H156 H 0.12848 0.3619 0.14024 0.0
C157 C 0.11961 0.36137 0.07631 0.0
H158 H 0.07697 0.35223 0.99278 0.0
H159 H 0.93613 0.22591 0.15223 0.0
H160 H 0.94361 0.19721 0.02909 0.0
H161 H 1.00085 0.22907 0.94547 0.0
H162 H 0.05085 0.28967 0.98446 0.0
C163 C 0.08414 0.35219 0.058 0.0
C164 C 0.05177 0.33224 0.11602 0.0
C165 C 0.02295 0.296 0.09372 0.0
C166 C 0.99011 0.27723 0.14268 0.0
C167 C 0.96175 0.24141 0.11781 0.0
C168 C 0.96563 0.22451 0.04711 0.0
C169 C 0.99781 0.24247 2e-05 0.0
C170 C 0.02626 0.27757 0.02296 0.0
H171 H 0.9217 0.2958 0.21498 0.0
C172 C 0.92081 0.27425 0.25497 0.0
H173 H 0.95103 0.25076 0.30667 0.0
H174 H 0.09948 0.40203 0.17391 0.0
H175 H 0.09135 0.43074 0.29713 0.0
H176 H 0.03534 0.39721 0.38431 0.0
H177 H 0.9867 0.33472 0.34821 0.0
C178 C 0.95206 0.2726 0.26763 0.0
C179 C 0.98592 0.29419 0.21486 0.0
C180 C 0.0145 0.33033 0.23738 0.0
C181 C 0.04733 0.34949 0.1877 0.0
C182 C 0.07459 0.38597 0.2103 0.0
C183 C 0.07016 0.40281 0.28069 0.0
C184 C 0.03857 0.38393 0.32975 0.0
C185 C 0.01093 0.34812 0.30854 0.0
H186 H 0.78699 0.11478 0.47756 0.0
C187 C 0.77017 0.11845 0.43055 0.0
H188 H 0.71858 0.09455 0.37075 0.0
H189 H 0.67341 0.92733 0.41481 0.0
H190 H 0.66828 0.93412 0.26643 0.0
H191 H 0.68172 0.99392 0.20632 0.0
H192 H 0.70472 0.04838 0.29169 0.0
C193 C 0.73435 0.09126 0.42086 0.0
C194 C 0.71904 0.05339 0.46098 0.0
C195 C 0.70342 0.02099 0.40988 0.0
C196 C 0.69367 0.98569 0.445 0.0
C197 C 0.68056 0.95455 0.39177 0.0
C198 C 0.67709 0.95789 0.30653 0.0
C199 C 0.68511 0.99171 0.27256 0.0
C200 C 0.69828 0.02293 0.32299 0.0
H201 H 0.63447 0.92803 0.59974 0.0
C202 C 0.65601 0.92047 0.59611 0.0
H203 H 0.71152 0.938 0.56102 0.0
H204 H 0.73815 0.10614 0.5816 0.0
H205 H 0.74603 0.09898 0.72901 0.0
H206 H 0.73734 0.04005 0.7852 0.0
H207 H 0.7152 0.98599 0.69629 0.0
C208 C 0.68993 0.9454 0.56645 0.0
C209 C 0.6984 0.98218 0.5313 0.0
C210 C 0.71342 0.01408 0.5824 0.0
C211 C 0.72233 0.04929 0.54812 0.0
C212 C 0.73363 0.07954 0.60298 0.0
C213 C 0.73833 0.07585 0.6877 0.0
C214 C 0.73276 0.04242 0.71964 0.0
C215 C 0.72007 0.01166 0.66801 0.0
H216 H 0.62589 0.74184 0.78192 0.0
C217 C 0.65057 0.75774 0.74424 0.0
H218 H 0.70443 0.76823 0.71214 0.0
H219 H 0.74452 0.70758 0.02752 0.0
H220 H 0.77145 0.77182 0.06877 0.0
H221 H 0.75705 0.81437 0.99114 0.0
H222 H 0.7151 0.79265 0.87251 0.0
C223 C 0.67974 0.75156 0.74933 0.0
C224 C 0.68223 0.72362 0.80389 0.0
C225 C 0.70594 0.73607 0.87461 0.0
C226 C 0.71553 0.71181 0.91728 0.0
C227 C 0.73816 0.72519 0.98952 0.0
C228 C 0.75339 0.76193 0.01472 0.0
C229 C 0.74523 0.78587 0.97113 0.0
C230 C 0.7213 0.77308 0.90281 0.0
H231 H 0.77335 0.69457 0.90268 0.0
C232 C 0.75615 0.66616 0.92429 0.0
H233 H 0.70053 0.62313 0.9371 0.0
H234 H 0.63732 0.69123 0.66944 0.0
H235 H 0.61774 0.63005 0.61424 0.0
H236 H 0.63655 0.58884 0.68292 0.0
H237 H 0.6749 0.60837 0.80729 0.0
C238 C 0.71898 0.65209 0.92167 0.0
C239 C 0.70328 0.67539 0.88641 0.0
C240 C 0.67938 0.66297 0.81536 0.0
C241 C 0.66872 0.68695 0.77478 0.0
C242 C 0.64619 0.67423 0.70236 0.0
C243 C 0.63476 0.63918 0.67002 0.0
C244 C 0.64533 0.61597 0.70877 0.0
C245 C 0.66731 0.62753 0.7805 0.0
H246 H 0.06897 0.74754 0.33106 0.0
C247 C 0.08744 0.74186 0.29422 0.0
H248 H 0.0921 0.71615 0.18544 0.0
H249 H 0.91332 0.60452 0.19166 0.0
H250 H 0.93379 0.56292 0.24307 0.0
H251 H 1.00013 0.58572 0.27401 0.0
H252 H 0.04637 0.65066 0.25505 0.0
C253 C 0.07353 0.72 0.22641 0.0
C254 C 0.03391 0.70519 0.19823 0.0
C255 C 0.00718 0.66708 0.20721 0.0
C256 C 0.969 0.65353 0.18531 0.0
C257 C 0.94283 0.61591 0.20169 0.0
C258 C 0.95417 0.59178 0.23248 0.0
C259 C 0.99151 0.60464 0.25019 0.0
C260 C 0.01775 0.64192 0.23892 0.0
H261 H 0.9073 0.61914 0.05308 0.0
C262 C 0.89754 0.63777 0.0723 0.0
H263 H 0.90761 0.68397 0.14209 0.0
H264 H 0.07901 0.77833 0.15886 0.0
H265 H 0.06066 0.81879 0.0912 0.0
H266 H 0.99566 0.79531 0.04677 0.0
H267 H 0.94879 0.73152 0.06935 0.0
C268 C 0.9178 0.66517 0.12704 0.0
C269 C 0.95784 0.67778 0.14933 0.0
C270 C 0.98545 0.71551 0.13444 0.0
C271 C 0.02322 0.72915 0.15943 0.0
C272 C 0.04991 0.76669 0.14281 0.0
C273 C 0.03984 0.79022 0.10335 0.0
C274 C 1.00325 0.777 0.07839 0.0
C275 C 0.97641 0.74018 0.09285 0.0
H276 H 0.31836 0.07115 0.63898 0.0
C277 C 0.34662 0.08829 0.61614 0.0
H278 H 0.38623 0.09112 0.53039 0.0
H279 H 0.29465 0.90959 0.56364 0.0
H280 H 0.33805 0.92415 0.6811 0.0
H281 H 0.37265 0.98577 0.73862 0.0
H282 H 0.37176 0.03731 0.67156 0.0
C283 C 0.35972 0.07357 0.56076 0.0
C284 C 0.33554 0.03495 0.52861 0.0
C285 C 0.33341 0.00433 0.57157 0.0
C286 C 0.31034 0.96736 0.54103 0.0
C287 C 0.31101 0.93804 0.58387 0.0
C288 C 0.33458 0.94538 0.65241 0.0
C289 C 0.35526 0.98082 0.6842 0.0
C290 C 0.35458 0.01008 0.64489 0.0
H291 H 0.28428 0.8932 0.42093 0.0
C292 C 0.25849 0.89387 0.41621 0.0
H293 H 0.22928 0.92192 0.439 0.0
H294 H 0.33663 0.08779 0.42608 0.0
H295 H 0.30198 0.07741 0.29752 0.0
H296 H 0.26055 0.01401 0.24571 0.0
H297 H 0.254 0.9606 0.32126 0.0
C298 C 0.25597 0.92305 0.44612 0.0
C299 C 0.28779 0.96095 0.46898 0.0
C300 C 0.29156 0.99223 0.42371 0.0
C301 C 0.31557 0.02902 0.4532 0.0
C302 C 0.31878 0.05938 0.40646 0.0
C303 C 0.29904 0.05383 0.33254 0.0
C304 C 0.2757 0.01813 0.30347 0.0
C305 C 0.27195 0.98765 0.348 0.0
H306 H 0.25263 0.46136 0.72246 0.0
C307 C 0.2232 0.44153 0.73127 0.0
H308 H 0.17129 0.40719 0.67417 0.0
H309 H 0.2699 0.49578 0.34156 0.0
H310 H 0.26841 0.54961 0.39321 0.0
H311 H 0.24351 0.54915 0.53254 0.0
H312 H 0.21926 0.49434 0.62049 0.0
C313 C 0.20053 0.42755 0.66522 0.0
C314 C 0.21636 0.429 0.58225 0.0
C315 C 0.23064 0.46129 0.53254 0.0
C316 C 0.24541 0.46166 0.45287 0.0
C317 C 0.2588 0.49403 0.40322 0.0
C318 C 0.25805 0.52515 0.43203 0.0
C319 C 0.24397 0.52486 0.51042 0.0
C320 C 0.23023 0.4933 0.56028 0.0
H321 H 0.21002 0.39745 0.28353 0.0
C322 C 0.23969 0.41614 0.27451 0.0
H323 H 0.29148 0.45087 0.33267 0.0
H324 H 0.19334 0.36334 0.66545 0.0
H325 H 0.19676 0.31037 0.61602 0.0
H326 H 0.22227 0.31101 0.47735 0.0
H327 H 0.245 0.36514 0.38777 0.0
C328 C 0.26205 0.43109 0.34096 0.0
C329 C 0.24615 0.42985 0.4239 0.0
C330 C 0.23239 0.39779 0.47427 0.0
C331 C 0.21747 0.39736 0.55373 0.0
C332 C 0.20466 0.36523 0.60405 0.0
C333 C 0.20651 0.33455 0.57649 0.0
C334 C 0.22091 0.33494 0.49849 0.0
C335 C 0.23376 0.36612 0.44766 0.0
H336 H 0.75973 0.21002 0.05101 0.0
C337 C 0.78566 0.21157 0.07025 0.0
H338 H 0.84009 0.2241 0.03942 0.0
H339 H 0.80818 0.17806 0.66645 0.0
H340 H 0.81941 0.13069 0.72348 0.0
H341 H 0.82349 0.12419 0.8751 0.0
H342 H 0.81846 0.1664 0.97008 0.0
C343 C 0.81422 0.22215 0.01776 0.0
C344 C 0.81052 0.22607 0.92775 0.0
C345 C 0.81259 0.2005 0.87327 0.0
C346 C 0.80987 0.20402 0.78616 0.0
C347 C 0.81153 0.17778 0.73309 0.0
C348 C 0.81749 0.15004 0.76511 0.0
C349 C 0.81978 0.14636 0.85041 0.0
C350 C 0.81698 0.17094 0.9042 0.0
H351 H 0.85354 0.24475 0.62707 0.0
C352 C 0.82806 0.24445 0.60935 0.0
H353 H 0.77558 0.2365 0.64373 0.0
H354 H 0.81116 0.2827 0.01592 0.0
H355 H 0.80448 0.33312 0.95906 0.0
H356 H 0.797 0.33796 0.80793 0.0
H357 H 0.79706 0.29302 0.71282 0.0
C358 C 0.80079 0.23668 0.66416 0.0
C359 C 0.8051 0.23318 0.75435 0.0
C360 C 0.80347 0.25905 0.80904 0.0
C361 C 0.80684 0.25583 0.89607 0.0
C362 C 0.80748 0.2832 0.94934 0.0
C363 C 0.80391 0.31244 0.91751 0.0
C364 C 0.79975 0.31519 0.83243 0.0
C365 C 0.79964 0.289 0.77852 0.0
H366 H 0.54694 0.77314 0.39186 0.0
C367 C 0.57576 0.78 0.40017 0.0
H368 H 0.62696 0.79534 0.34066 0.0
H369 H 0.55228 0.74702 0.98376 0.0
H370 H 0.5485 0.68874 0.02162 0.0
H371 H 0.56017 0.67678 0.16587 0.0
H372 H 0.57754 0.72387 0.27261 0.0
C373 C 0.5979 0.7878 0.33403 0.0
C374 C 0.58576 0.79274 0.25142 0.0
C375 C 0.57607 0.76515 0.19027 0.0
C376 C 0.56879 0.77189 0.10778 0.0
C377 C 0.5585 0.7436 0.04754 0.0
C378 C 0.55589 0.70987 0.06854 0.0
C379 C 0.5627 0.70321 0.14969 0.0
C380 C 0.57278 0.73048 0.21016 0.0
H381 H 0.61319 0.825 0.94951 0.0
C382 C 0.58543 0.82094 0.93937 0.0
H383 H 0.53386 0.80786 -0.00535 0.0
H384 H 0.5991 0.84981 0.35829 0.0
H385 H 0.59763 0.90557 0.32317 0.0
H386 H 0.58849 0.91881 0.17793 0.0
H387 H 0.57736 0.87447 0.06821 0.0
C388 C 0.56198 0.81273 0.00347 0.0
C389 C 0.57158 0.8064 0.08762 0.0
C390 C 0.57973 0.83335 0.14965 0.0
C391 C 0.58646 0.82637 0.23232 0.0
C392 C 0.59356 0.85335 0.29415 0.0
C393 C 0.59307 0.88572 0.27475 0.0
C394 C 0.58773 0.89309 0.19309 0.0
C395 C 0.58133 0.8674 0.13084 0.0
H396 H 0.76413 0.54673 0.72251 0.0
C397 C 0.79347 0.56678 0.73228 0.0
H398 H 0.84531 0.60227 0.67651 0.0
H399 H 0.74535 0.51104 0.34648 0.0
H400 H 0.74666 0.45765 0.4029 0.0
H401 H 0.77278 0.45936 0.54129 0.0
H402 H 0.79792 0.51495 0.62592 0.0
C403 C 0.81617 0.58156 0.66714 0.0
C404 C 0.80012 0.57976 0.58418 0.0
C405 C 0.78586 0.54724 0.53586 0.0
C406 C 0.77072 0.54628 0.45593 0.0
C407 C 0.75693 0.51345 0.40814 0.0
C408 C 0.75763 0.48255 0.43935 0.0
C409 C 0.77232 0.48352 0.51765 0.0
C410 C 0.78653 0.51552 0.56555 0.0
H411 H 0.80678 0.61001 0.28495 0.0
C412 C 0.7773 0.59058 0.27533 0.0
H413 H 0.7252 0.55631 0.33165 0.0
H414 H 0.82137 0.64494 0.66706 0.0
H415 H 0.81657 0.69714 0.61616 0.0
H416 H 0.79106 0.69591 0.47632 0.0
H417 H 0.76962 0.64186 0.38704 0.0
C418 C 0.75454 0.57634 0.34106 0.0
C419 C 0.76992 0.57791 0.42518 0.0
C420 C 0.7831 0.61003 0.47497 0.0
C421 C 0.79814 0.61089 0.55496 0.0
C422 C 0.81013 0.64286 0.60513 0.0
C423 C 0.80746 0.67306 0.57677 0.0
C424 C 0.79305 0.67232 0.49809 0.0
C425 C 0.78096 0.64123 0.44744 0.0
H426 H 0.22556 0.75762 0.64033 0.0
C427 C 0.20183 0.75929 0.6162 0.0
H428 H 0.15558 0.76473 0.64958 0.0
H429 H 0.17136 0.71275 0.01727 0.0
H430 H 0.11313 0.66005 0.97073 0.0
H431 H 0.08979 0.65785 0.82801 0.0
H432 H 0.12474 0.70807 0.7306 0.0
C433 C 0.1812 0.76585 0.66967 0.0
C434 C 0.192 0.77031 0.75972 0.0
C435 C 0.17014 0.74179 0.81711 0.0
C436 C 0.18311 0.7434 0.90009 0.0
C437 C 0.16205 0.71337 0.95451 0.0
C438 C 0.12878 0.68287 0.92837 0.0
C439 C 0.1157 0.68161 0.84795 0.0
C440 C 0.13601 0.71063 0.79267 0.0
H441 H 0.18211 0.79057 0.03429 0.0
C442 C 0.20487 0.78894 0.06436 0.0
H443 H 0.25092 0.78137 0.04278 0.0
H444 H 0.24375 0.82718 0.66368 0.0
H445 H 0.30649 0.86857 0.70269 0.0
H446 H 0.32632 0.8783 0.8508 0.0
H447 H 0.28474 0.83599 0.95623 0.0
C448 C 0.22599 0.78029 0.01768 0.0
C449 C 0.21699 0.77438 0.92705 0.0
C450 C 0.23948 0.80218 0.86924 0.0
C451 C 0.22721 0.79987 0.7854 0.0
C452 C 0.25136 0.82673 0.72792 0.0
C453 C 0.28732 0.85272 0.75069 0.0
C454 C 0.29858 0.8568 0.83328 0.0
C455 C 0.27459 0.83225 0.89283 0.0
H456 H 0.41234 0.23369 0.35369 0.0
C457 C 0.4289 0.2252 0.39061 0.0
H458 H 0.46514 0.2036 0.38396 0.0
H459 H 0.39088 0.12692 0.03956 0.0
H460 H 0.38624 0.07614 0.12314 0.0
H461 H 0.4096 0.08653 0.26762 0.0
H462 H 0.437 0.14733 0.32985 0.0
C463 C 0.4503 0.21474 0.34951 0.0
C464 C 0.44642 0.21096 0.25604 0.0
C465 C 0.43192 0.17544 0.21897 0.0
C466 C 0.41995 0.16974 0.13397 0.0
C467 C 0.40256 0.13325 0.10168 0.0
C468 C 0.39921 0.10374 0.14942 0.0
C469 C 0.41222 0.10956 0.23085 0.0
C470 C 0.42798 0.14477 0.26583 0.0
H471 H 0.45442 0.17424 0.97952 0.0
C472 C 0.43846 0.18426 0.94523 0.0
H473 H 0.4047 0.20825 0.95779 0.0
H474 H 0.4789 0.28366 0.30167 0.0
H475 H 0.48143 0.33404 0.22042 0.0
H476 H 0.45794 0.3238 0.07607 0.0
H477 H 0.4327 0.2637 0.01161 0.0
C478 C 0.41908 0.19608 0.99009 0.0
C479 C 0.42445 0.19998 0.08367 0.0
C480 C 0.43871 0.23547 0.12119 0.0
C481 C 0.45076 0.24114 0.20606 0.0
C482 C 0.4673 0.27741 0.23944 0.0
C483 C 0.46942 0.30669 0.19311 0.0
C484 C 0.45632 0.30094 0.11179 0.0
C485 C 0.44175 0.26606 0.07552 0.0
H486 H 0.18088 0.51153 0.03046 0.0
C487 C 0.1976 0.51163 0.0829 0.0
H488 H 0.21984 0.53294 0.20138 0.0
H489 H 0.25313 0.6931 0.1631 0.0
H490 H 0.31377 0.70058 0.14055 0.0
H491 H 0.32165 0.64647 0.11662 0.0
H492 H 0.26848 0.58437 0.11657 0.0
C493 C 0.20299 0.5332 0.14948 0.0
C494 C 0.19594 0.56473 0.14725 0.0
C495 C 0.22689 0.60109 0.14114 0.0
C496 C 0.22206 0.63228 0.15175 0.0
C497 C 0.25427 0.66815 0.15204 0.0
C498 C 0.28965 0.67299 0.13974 0.0
C499 C 0.2941 0.64256 0.12655 0.0
C500 C 0.26325 0.60702 0.12698 0.0
H501 H 0.1597 0.64153 0.30086 0.0
C502 C 0.1751 0.66602 0.26208 0.0
H503 H 0.19777 0.68488 0.14519 0.0
H504 H 0.13171 0.49861 0.16587 0.0
H505 H 0.07059 0.48985 0.19665 0.0
H506 H 0.06108 0.54358 0.21002 0.0
H507 H 0.11269 0.60649 0.19207 0.0
C508 C 0.18243 0.66057 0.18417 0.0
C509 C 0.18589 0.62712 0.16586 0.0
C510 C 0.15478 0.59045 0.17101 0.0
C511 C 0.15999 0.55927 0.16223 0.0
C512 C 0.12908 0.5231 0.17145 0.0
C513 C 0.09388 0.5177 0.18905 0.0
C514 C 0.08856 0.54798 0.19658 0.0
C515 C 0.11844 0.58395 0.18673 0.0
H516 H 0.67021 0.18569 0.35011 0.0
C517 C 0.68564 0.18877 0.40723 0.0
H518 H 0.68527 0.18767 0.53721 0.0
H519 H 0.58078 0.25348 0.58495 0.0
H520 H 0.63831 0.29907 0.64789 0.0
H521 H 0.6948 0.29381 0.63881 0.0
H522 H 0.69392 0.243 0.56613 0.0
C523 C 0.66876 0.18341 0.48118 0.0
C524 C 0.63351 0.18467 0.48931 0.0
C525 C 0.63449 0.215 0.53181 0.0
C526 C 0.60183 0.21812 0.53658 0.0
C527 C 0.60421 0.24912 0.57889 0.0
C528 C 0.6373 0.27582 0.61559 0.0
C529 C 0.66906 0.27285 0.61055 0.0
C530 C 0.66796 0.24315 0.56877 0.0
H531 H 0.50155 0.14663 0.57429 0.0
C532 C 0.50659 0.17437 0.56134 0.0
H533 H 0.53787 0.22199 0.49129 0.0
H534 H 0.62164 0.12222 0.40794 0.0
H535 H 0.56422 0.0764 0.34237 0.0
H536 H 0.50763 0.08174 0.34919 0.0
H537 H 0.50832 0.13346 0.42086 0.0
C538 C 0.53369 0.19469 0.50621 0.0
C539 C 0.56774 0.19056 0.49995 0.0
C540 C 0.56684 0.16003 0.4582 0.0
C541 C 0.59971 0.15713 0.45301 0.0
C542 C 0.59788 0.12629 0.41172 0.0
C543 C 0.56499 0.09961 0.37437 0.0
C544 C 0.53312 0.10263 0.37834 0.0
C545 C 0.53385 0.13237 0.41983 0.0
H546 H 0.31636 0.5313 0.87254 0.0
C547 C 0.32489 0.51266 0.89932 0.0
H548 H 0.36656 0.4987 0.90473 0.0
H549 H 0.43961 0.64872 0.65362 0.0
H550 H 0.39251 0.6117 0.55259 0.0
H551 H 0.34332 0.54794 0.58578 0.0
H552 H 0.34139 0.52082 0.7215 0.0
C553 C 0.35805 0.51709 0.87655 0.0
C554 C 0.38893 0.5547 0.85191 0.0
C555 C 0.39062 0.56955 0.77128 0.0
C556 C 0.41933 0.60627 0.75167 0.0
C557 C 0.41925 0.62089 0.67188 0.0
C558 C 0.39212 0.59992 0.61302 0.0
C559 C 0.36442 0.56404 0.63182 0.0
C560 C 0.36361 0.54883 0.70982 0.0
H561 H 0.50768 0.66884 0.71018 0.0
C562 C 0.49831 0.68499 0.74482 0.0
H563 H 0.46284 0.68582 0.83761 0.0
H564 H 0.39487 0.53545 0.01339 0.0
H565 H 0.43593 0.57585 0.12 0.0
H566 H 0.48322 0.64034 0.08789 0.0
H567 H 0.48977 0.6645 0.94748 0.0
C568 C 0.4701 0.66874 0.79989 0.0
C569 C 0.44601 0.62826 0.81307 0.0
C570 C 0.44366 0.61383 0.89421 0.0
C571 C 0.41577 0.57687 0.91314 0.0
C572 C 0.4144 0.56353 -0.0048 0.0
C573 C 0.43819 0.58641 0.05737 0.0
C574 C 0.46484 0.62268 0.03921 0.0
C575 C 0.46812 0.63619 0.95847 0.0
H576 H 0.85868 0.3548 0.25103 0.0
C577 C 0.83008 0.33244 0.24428 0.0
H578 H 0.77831 0.31591 0.1902 0.0
H579 H 0.77518 0.46206 0.21408 0.0
H580 H 0.72242 0.41874 0.29518 0.0
H581 H 0.7152 0.35859 0.33676 0.0
H582 H 0.75733 0.33904 0.2863 0.0
C583 C 0.80722 0.33797 0.19399 0.0
C584 C 0.81472 0.3764 0.1749 0.0
C585 C 0.79158 0.38877 0.21112 0.0
C586 C 0.79725 0.42463 0.19214 0.0
C587 C 0.77235 0.43524 0.22564 0.0
C588 C 0.74235 0.411 0.27437 0.0
C589 C 0.73794 0.37688 0.29658 0.0
C590 C 0.76236 0.36593 0.2664 0.0
H591 H 0.80578 0.46965 0.00181 0.0
C592 C 0.81455 0.49012 0.05121 0.0
H593 H 0.83702 0.50465 0.17119 0.0
H594 H 0.86239 0.361 0.09055 0.0
H595 H 0.91229 0.40263 -0.00123 0.0
H596 H 0.92391 0.46589 0.97122 0.0
H597 H 0.8853 0.48785 0.03482 0.0
C598 C 0.83106 0.48584 0.11915 0.0
C599 C 0.82661 0.44872 0.13867 0.0
C600 C 0.84991 0.43663 0.10293 0.0
C601 C 0.84375 0.40033 0.12043 0.0
C602 C 0.86651 0.38855 0.08125 0.0
C603 C 0.8951 0.4121 0.02809 0.0
C604 C 0.90159 0.44772 0.01246 0.0
C605 C 0.87929 0.45998 0.04918 0.0
H606 H 0.34109 0.81955 0.34198 0.0
C607 C 0.32603 0.81497 0.39991 0.0
H608 H 0.32738 0.81504 0.53012 0.0
H609 H 0.43569 0.75564 0.59146 0.0
H610 H 0.3779 0.70752 0.64799 0.0
H611 H 0.31958 0.70884 0.62795 0.0
H612 H 0.31893 0.7584 0.5515 0.0
C613 C 0.34351 0.81975 0.47367 0.0
C614 C 0.37924 0.81931 0.4822 0.0
C615 C 0.37901 0.7893 0.52535 0.0
C616 C 0.41258 0.78816 0.53549 0.0
C617 C 0.4113 0.75812 0.58053 0.0
C618 C 0.37815 0.73009 0.6137 0.0
C619 C 0.34536 0.73086 0.60256 0.0
C620 C 0.34554 0.75982 0.55867 0.0
H621 H 0.50681 0.86227 0.59017 0.0
C622 C 0.50605 0.8365 0.57471 0.0
H623 H 0.48024 0.78923 0.50095 0.0
H624 H 0.39022 0.88223 0.40339 0.0
H625 H 0.44838 0.93098 0.3468 0.0
H626 H 0.50615 0.92792 0.35964 0.0
H627 H 0.50612 0.87601 0.42944 0.0
C628 C 0.48171 0.81542 0.51539 0.0
C629 C 0.44659 0.81693 0.50208 0.0
C630 C 0.44679 0.84698 0.45947 0.0
C631 C 0.41319 0.84831 0.45013 0.0
C632 C 0.41459 0.87928 0.40995 0.0
C633 C 0.44786 0.90757 0.37769 0.0
C634 C 0.48041 0.90587 0.38508 0.0
C635 C 0.48005 0.87601 0.42544 0.0
H636 H 0.65592 0.50531 0.90875 0.0
C637 C 0.67578 0.49576 0.91705 0.0
H638 H 0.68805 0.45356 0.89467 0.0
H639 H 0.52915 0.31693 0.9058 0.0
H640 H 0.55804 0.30909 0.02861 0.0
H641 H 0.62019 0.35812 0.07424 0.0
H642 H 0.65349 0.41533 -0.00253 0.0
C643 C 0.66867 0.46345 0.88188 0.0
C644 C 0.63025 0.43469 0.85447 0.0
C645 C 0.6107 0.4012 0.90107 0.0
C646 C 0.57464 0.37292 0.8752 0.0
C647 C 0.55627 0.33968 0.9225 0.0
C648 C 0.57261 0.33462 0.99342 0.0
C649 C 0.60756 0.36221 0.01903 0.0
C650 C 0.62644 0.39506 0.9739 0.0
H651 H 0.54612 0.33728 0.66808 0.0
C652 C 0.52179 0.32554 0.70808 0.0
H653 H 0.49882 0.33346 0.8161 0.0
H654 H 0.66019 0.49396 0.74862 0.0
H655 H 0.63073 0.502 0.62552 0.0
H656 H 0.56763 0.45368 0.58283 0.0
H657 H 0.53357 0.39682 0.6629 0.0
C658 C 0.52179 0.34599 0.77236 0.0
C659 C 0.55801 0.37776 0.80229 0.0
C660 C 0.57729 0.41122 0.75617 0.0
C661 C 0.61347 0.43958 0.78199 0.0
C662 C 0.63241 0.47204 0.73306 0.0
C663 C 0.61588 0.4769 0.66203 0.0
C664 C 0.58036 0.44964 0.63789 0.0
C665 C 0.56117 0.41712 0.68413 0.0
loop_
_geom_bond_atom_site_label_1
_geom_bond_atom_site_label_2
_geom_bond_distance
_geom_bond_site_symmetry_2
_ccdc_geom_bond_type
O0 Mn1 2.163 . S
O0 C14 1.244 . S
Mn1 O0 2.163 . S
Mn1 O4 2.160 1_554 S
Mn1 O5 2.221 . S
Mn1 O7 2.163 1_554 S
Mn1 O9 2.160 . S
Mn1 O19 2.221 . S
O2 Mn3 2.087 . S
O2 C14 1.256 . S
Mn3 O2 2.087 . S
Mn3 O10 2.089 . S
Mn3 O19 2.290 . S
Mn3 O20 2.251 1_554 S
O4 Mn1 2.160 1_556 S
O4 C15 1.239 . S
O5 Mn1 2.221 . S
O5 Mn6 2.290 1_554 S
O5 C16 1.278 . S
Mn6 O5 2.290 1_556 S
Mn6 O8 2.089 . S
Mn6 O11 2.251 . S
Mn6 O12 2.087 . S
O7 Mn1 2.163 1_556 S
O7 C17 1.244 . S
O8 Mn6 2.089 . S
O8 C15 1.256 . S
O9 Mn1 2.160 . S
O9 C18 1.239 . S
O10 Mn3 2.089 . S
O10 C18 1.256 . S
O11 Mn6 2.251 . S
O11 C16 1.241 1_556 S
O12 Mn6 2.087 . S
O12 C17 1.256 . S
C13 O19 1.278 1_556 S
C13 O20 1.241 . S
C14 O0 1.244 . S
C14 O2 1.256 . S
C15 O4 1.239 . S
C15 O8 1.256 . S
C16 O5 1.278 . S
C16 O11 1.241 1_554 S
C17 O7 1.244 . S
C17 O12 1.256 . S
C18 O9 1.239 . S
C18 O10 1.256 . S
O19 Mn1 2.221 . S
O19 Mn3 2.290 . S
O19 C13 1.278 1_554 S
O20 Mn3 2.251 1_556 S
O20 C13 1.241 . S
O21 Mn22 2.163 . S
O21 C35 1.244 . S
Mn22 O21 2.163 . S
Mn22 O25 2.160 . S
Mn22 O26 2.221 . S
Mn22 O28 2.163 . S
Mn22 O30 2.160 . S
Mn22 O40 2.221 . S
O23 Mn24 2.087 . S
O23 C35 1.256 . S
Mn24 O23 2.087 . S
Mn24 O31 2.089 . S
Mn24 O40 2.290 . S
Mn24 O41 2.251 . S
O25 Mn22 2.160 . S
O25 C36 1.239 . S
O26 Mn22 2.221 . S
O26 Mn27 2.290 . S
O26 C37 1.278 . S
Mn27 O26 2.290 . S
Mn27 O29 2.089 . S
Mn27 O32 2.251 . S
Mn27 O33 2.087 . S
O28 Mn22 2.163 . S
O28 C38 1.244 . S
O29 Mn27 2.089 . S
O29 C36 1.256 . S
O30 Mn22 2.160 . S
O30 C39 1.239 . S
O31 Mn24 2.089 . S
O31 C39 1.256 . S
O32 Mn27 2.251 . S
O32 C37 1.241 . S
O33 Mn27 2.087 . S
O33 C38 1.256 . S
C34 O40 1.278 . S
C34 O41 1.241 . S
C35 O21 1.244 . S
C35 O23 1.256 . S
C36 O25 1.239 . S
C36 O29 1.256 . S
C37 O26 1.278 . S
C37 O32 1.241 . S
C38 O28 1.244 . S
C38 O33 1.256 . S
C39 O30 1.239 . S
C39 O31 1.256 . S
O40 Mn22 2.221 . S
O40 Mn24 2.290 . S
O40 C34 1.278 . S
O41 Mn24 2.251 . S
O41 C34 1.241 . S
O42 Mn43 2.163 . S
O42 C56 1.244 . S
Mn43 O42 2.163 . S
Mn43 O46 2.160 . S
Mn43 O47 2.221 . S
Mn43 O49 2.163 . S
Mn43 O51 2.160 . S
Mn43 O61 2.221 . S
O44 Mn45 2.087 . S
O44 C56 1.256 . S
Mn45 O44 2.087 . S
Mn45 O52 2.089 . S
Mn45 O61 2.290 . S
Mn45 O62 2.251 . S
O46 Mn43 2.160 . S
O46 C57 1.239 . S
O47 Mn43 2.221 . S
O47 Mn48 2.290 . S
O47 C58 1.278 . S
Mn48 O47 2.290 . S
Mn48 O50 2.089 . S
Mn48 O53 2.251 . S
Mn48 O54 2.087 . S
O49 Mn43 2.163 . S
O49 C59 1.244 . S
O50 Mn48 2.089 . S
O50 C57 1.256 . S
O51 Mn43 2.160 . S
O51 C60 1.239 . S
O52 Mn45 2.089 . S
O52 C60 1.256 . S
O53 Mn48 2.251 . S
O53 C58 1.241 . S
O54 Mn48 2.087 . S
O54 C59 1.256 . S
C55 O61 1.278 . S
C55 O62 1.241 . S
C56 O42 1.244 . S
C56 O44 1.256 . S
C57 O46 1.239 . S
C57 O50 1.256 . S
C58 O47 1.278 . S
C58 O53 1.241 . S
C59 O49 1.244 . S
C59 O54 1.256 . S
C60 O51 1.239 . S
C60 O52 1.256 . S
O61 Mn43 2.221 . S
O61 Mn45 2.290 . S
O61 C55 1.278 . S
O62 Mn45 2.251 . S
O62 C55 1.241 . S
O63 Mn64 2.163 . S
O63 C77 1.244 . S
Mn64 O63 2.163 . S
Mn64 O67 2.160 1_554 S
Mn64 O68 2.221 . S
Mn64 O70 2.163 1_554 S
Mn64 O72 2.160 . S
Mn64 O82 2.221 . S
O65 Mn66 2.087 . S
O65 C77 1.256 . S
Mn66 O65 2.087 . S
Mn66 O73 2.089 . S
Mn66 O82 2.290 . S
Mn66 O83 2.251 1_554 S
O67 Mn64 2.160 1_556 S
O67 C78 1.239 . S
O68 Mn64 2.221 . S
O68 Mn69 2.290 1_554 S
O68 C79 1.278 . S
Mn69 O68 2.290 1_556 S
Mn69 O71 2.089 . S
Mn69 O74 2.251 . S
Mn69 O75 2.087 . S
O70 Mn64 2.163 1_556 S
O70 C80 1.244 . S
O71 Mn69 2.089 . S
O71 C78 1.256 . S
O72 Mn64 2.160 . S
O72 C81 1.239 . S
O73 Mn66 2.089 . S
O73 C81 1.256 . S
O74 Mn69 2.251 . S
O74 C79 1.241 1_556 S
O75 Mn69 2.087 . S
O75 C80 1.256 . S
C76 O82 1.278 1_556 S
C76 O83 1.241 . S
C77 O63 1.244 . S
C77 O65 1.256 . S
C78 O67 1.239 . S
C78 O71 1.256 . S
C79 O68 1.278 . S
C79 O74 1.241 1_554 S
C80 O70 1.244 . S
C80 O75 1.256 . S
C81 O72 1.239 . S
C81 O73 1.256 . S
O82 Mn64 2.221 . S
O82 Mn66 2.290 . S
O82 C76 1.278 1_554 S
O83 Mn66 2.251 1_556 S
O83 C76 1.241 . S
O84 Mn85 2.163 . S
O84 C98 1.244 . S
Mn85 O84 2.163 . S
Mn85 O88 2.160 . S
Mn85 O89 2.221 . S
Mn85 O91 2.163 . S
Mn85 O93 2.160 . S
Mn85 O103 2.221 . S
O86 Mn87 2.087 . S
O86 C98 1.256 . S
Mn87 O86 2.087 . S
Mn87 O94 2.089 . S
Mn87 O103 2.290 . S
Mn87 O104 2.251 . S
O88 Mn85 2.160 . S
O88 C99 1.239 . S
O89 Mn85 2.221 . S
O89 Mn90 2.290 . S
O89 C100 1.278 . S
Mn90 O89 2.290 . S
Mn90 O92 2.089 . S
Mn90 O95 2.251 . S
Mn90 O96 2.087 . S
O91 Mn85 2.163 . S
O91 C101 1.244 . S
O92 Mn90 2.089 . S
O92 C99 1.256 . S
O93 Mn85 2.160 . S
O93 C102 1.239 . S
O94 Mn87 2.089 . S
O94 C102 1.256 . S
O95 Mn90 2.251 . S
O95 C100 1.241 . S
O96 Mn90 2.087 . S
O96 C101 1.256 . S
C97 O103 1.278 . S
C97 O104 1.241 . S
C98 O84 1.244 . S
C98 O86 1.256 . S
C99 O88 1.239 . S
C99 O92 1.256 . S
C100 O89 1.278 . S
C100 O95 1.241 . S
C101 O91 1.244 . S
C101 O96 1.256 . S
C102 O93 1.239 . S
C102 O94 1.256 . S
O103 Mn85 2.221 . S
O103 Mn87 2.290 . S
O103 C97 1.278 . S
O104 Mn87 2.251 . S
O104 C97 1.241 . S
O105 Mn106 2.163 . S
O105 C119 1.244 . S
Mn106 O105 2.163 . S
Mn106 O109 2.160 . S
Mn106 O110 2.221 . S
Mn106 O112 2.163 . S
Mn106 O114 2.160 . S
Mn106 O124 2.221 . S
O107 Mn108 2.087 . S
O107 C119 1.256 . S
Mn108 O107 2.087 . S
Mn108 O115 2.089 . S
Mn108 O124 2.290 . S
Mn108 O125 2.251 . S
O109 Mn106 2.160 . S
O109 C120 1.239 . S
O110 Mn106 2.221 . S
O110 Mn111 2.290 . S
O110 C121 1.278 . S
Mn111 O110 2.290 . S
Mn111 O113 2.089 . S
Mn111 O116 2.251 . S
Mn111 O117 2.087 . S
O112 Mn106 2.163 . S
O112 C122 1.244 . S
O113 Mn111 2.089 . S
O113 C120 1.256 . S
O114 Mn106 2.160 . S
O114 C123 1.239 . S
O115 Mn108 2.089 . S
O115 C123 1.256 . S
O116 Mn111 2.251 . S
O116 C121 1.241 . S
O117 Mn111 2.087 . S
O117 C122 1.256 . S
C118 O124 1.278 . S
C118 O125 1.241 . S
C119 O105 1.244 . S
C119 O107 1.256 . S
C120 O109 1.239 . S
C120 O113 1.256 . S
C121 O110 1.278 . S
C121 O116 1.241 . S
C122 O112 1.244 . S
C122 O117 1.256 . S
C123 O114 1.239 . S
C123 O115 1.256 . S
O124 Mn106 2.221 . S
O124 Mn108 2.290 . S
O124 C118 1.278 . S
O125 Mn108 2.251 . S
O125 C118 1.241 . S
H126 C127 0.951 . S
C127 H126 0.951 . S
C127 C133 1.265 . S
H128 C133 0.950 . S
H129 C137 0.949 . S
H130 C138 0.950 . S
H131 C139 0.951 . S
H132 C140 0.951 . S
C133 C127 1.265 . S
C133 H128 0.950 . S
C133 C134 1.478 . S
C134 C133 1.478 . S
C134 C135 1.397 . S
C134 C151 1.394 . S
C135 C134 1.397 . S
C135 C136 1.438 . S
C135 C140 1.429 . S
C136 C135 1.438 . S
C136 C137 1.428 . S
C136 C149 1.394 . S
C137 H129 0.949 . S
C137 C136 1.428 . S
C137 C138 1.345 . S
C138 H130 0.950 . S
C138 C137 1.345 . S
C138 C139 1.424 . S
C139 H131 0.951 . S
C139 C138 1.424 . S
C139 C140 1.347 . S
C140 H132 0.951 . S
C140 C135 1.429 . S
C140 C139 1.347 . S
H141 C142 0.951 . S
C142 H141 0.951 . S
C142 C148 1.265 . S
H143 C148 0.950 . S
H144 C152 0.949 . S
H145 C153 0.950 . S
H146 C154 0.951 1_554 S
H147 C155 0.951 . S
C148 C142 1.265 . S
C148 H143 0.950 . S
C148 C149 1.478 . S
C149 C136 1.394 . S
C149 C148 1.478 . S
C149 C150 1.397 . S
C150 C149 1.397 . S
C150 C151 1.438 . S
C150 C155 1.429 . S
C151 C134 1.394 . S
C151 C150 1.438 . S
C151 C152 1.428 . S
C152 H144 0.949 . S
C152 C151 1.428 . S
C152 C153 1.345 . S
C153 H145 0.950 . S
C153 C152 1.345 . S
C153 C154 1.424 . S
C154 H146 0.951 1_556 S
C154 C153 1.424 . S
C154 C155 1.347 . S
C155 H147 0.951 . S
C155 C150 1.429 . S
C155 C154 1.347 . S
H156 C157 0.951 . S
C157 H156 0.951 . S
C157 C163 1.265 . S
H158 C163 0.950 . S
H159 C167 0.949 . S
H160 C168 0.950 . S
H161 C169 0.951 1_556 S
H162 C170 0.951 1_556 S
C163 C157 1.265 . S
C163 H158 0.950 . S
C163 C164 1.478 . S
C164 C163 1.478 . S
C164 C165 1.397 . S
C164 C181 1.394 . S
C165 C164 1.397 . S
C165 C166 1.438 1_455 S
C165 C170 1.429 . S
C166 C165 1.438 1_655 S
C166 C167 1.428 . S
C166 C179 1.394 . S
C167 H159 0.949 . S
C167 C166 1.428 . S
C167 C168 1.345 . S
C168 H160 0.950 . S
C168 C167 1.345 . S
C168 C169 1.424 . S
C169 H161 0.951 1_554 S
C169 C168 1.424 . S
C169 C170 1.347 1_655 S
C170 H162 0.951 1_554 S
C170 C165 1.429 . S
C170 C169 1.347 1_455 S
H171 C172 0.951 . S
C172 H171 0.951 . S
C172 C178 1.265 . S
H173 C178 0.950 . S
H174 C182 0.949 . S
H175 C183 0.950 . S
H176 C184 0.951 . S
H177 C185 0.951 1_655 S
C178 C172 1.265 . S
C178 H173 0.950 . S
C178 C179 1.478 . S
C179 C166 1.394 . S
C179 C178 1.478 . S
C179 C180 1.397 1_655 S
C180 C179 1.397 1_455 S
C180 C181 1.438 . S
C180 C185 1.429 . S
C181 C164 1.394 . S
C181 C180 1.438 . S
C181 C182 1.428 . S
C182 H174 0.949 . S
C182 C181 1.428 . S
C182 C183 1.345 . S
C183 H175 0.950 . S
C183 C182 1.345 . S
C183 C184 1.424 . S
C184 H176 0.951 . S
C184 C183 1.424 . S
C184 C185 1.347 . S
C185 H177 0.951 1_455 S
C185 C180 1.429 . S
C185 C184 1.347 . S
H186 C187 0.951 . S
C187 H186 0.951 . S
C187 C193 1.265 . S
H188 C193 0.950 . S
H189 C197 0.949 . S
H190 C198 0.950 . S
H191 C199 0.951 . S
H192 C200 0.951 . S
C193 C187 1.265 . S
C193 H188 0.950 . S
C193 C194 1.478 . S
C194 C193 1.478 . S
C194 C195 1.397 . S
C194 C211 1.394 . S
C195 C194 1.397 . S
C195 C196 1.438 1_545 S
C195 C200 1.429 . S
C196 C195 1.438 1_565 S
C196 C197 1.428 . S
C196 C209 1.394 . S
C197 H189 0.949 . S
C197 C196 1.428 . S
C197 C198 1.345 . S
C198 H190 0.950 . S
C198 C197 1.345 . S
C198 C199 1.424 . S
C199 H191 0.951 . S
C199 C198 1.424 . S
C199 C200 1.347 1_565 S
C200 H192 0.951 . S
C200 C195 1.429 . S
C200 C199 1.347 1_545 S
H201 C202 0.951 . S
C202 H201 0.951 . S
C202 C208 1.265 . S
H203 C208 0.950 . S
H204 C212 0.949 . S
H205 C213 0.950 . S
H206 C214 0.951 . S
H207 C215 0.951 1_565 S
C208 C202 1.265 . S
C208 H203 0.950 . S
C208 C209 1.478 . S
C209 C196 1.394 . S
C209 C208 1.478 . S
C209 C210 1.397 1_565 S
C210 C209 1.397 1_545 S
C210 C211 1.438 . S
C210 C215 1.429 . S
C211 C194 1.394 . S
C211 C210 1.438 . S
C211 C212 1.428 . S
C212 H204 0.949 . S
C212 C211 1.428 . S
C212 C213 1.345 . S
C213 H205 0.950 . S
C213 C212 1.345 . S
C213 C214 1.424 . S
C214 H206 0.951 . S
C214 C213 1.424 . S
C214 C215 1.347 . S
C215 H207 0.951 1_545 S
C215 C210 1.429 . S
C215 C214 1.347 . S
H216 C217 0.951 . S
C217 H216 0.951 . S
C217 C223 1.265 . S
H218 C223 0.950 . S
H219 C227 0.949 1_554 S
H220 C228 0.950 . S
H221 C229 0.951 . S
H222 C230 0.951 . S
C223 C217 1.265 . S
C223 H218 0.950 . S
C223 C224 1.478 . S
C224 C223 1.478 . S
C224 C225 1.397 . S
C224 C241 1.394 . S
C225 C224 1.397 . S
C225 C226 1.438 . S
C225 C230 1.429 . S
C226 C225 1.438 . S
C226 C227 1.428 . S
C226 C239 1.394 . S
C227 H219 0.949 1_556 S
C227 C226 1.428 . S
C227 C228 1.345 1_556 S
C228 H220 0.950 . S
C228 C227 1.345 1_554 S
C228 C229 1.424 1_554 S
C229 H221 0.951 . S
C229 C228 1.424 1_556 S
C229 C230 1.347 . S
C230 H222 0.951 . S
C230 C225 1.429 . S
C230 C229 1.347 . S
H231 C232 0.951 . S
C232 H231 0.951 . S
C232 C238 1.265 . S
H233 C238 0.950 . S
H234 C242 0.949 . S
H235 C243 0.950 . S
H236 C244 0.951 . S
H237 C245 0.951 . S
C238 C232 1.265 . S
C238 H233 0.950 . S
C238 C239 1.478 . S
C239 C226 1.394 . S
C239 C238 1.478 . S
C239 C240 1.397 . S
C240 C239 1.397 . S
C240 C241 1.438 . S
C240 C245 1.429 . S
C241 C224 1.394 . S
C241 C240 1.438 . S
C241 C242 1.428 . S
C242 H234 0.949 . S
C242 C241 1.428 . S
C242 C243 1.345 . S
C243 H235 0.950 . S
C243 C242 1.345 . S
C243 C244 1.424 . S
C244 H236 0.951 . S
C244 C243 1.424 . S
C244 C245 1.347 . S
C245 H237 0.951 . S
C245 C240 1.429 . S
C245 C244 1.347 . S
H246 C247 0.951 . S
C247 H246 0.951 . S
C247 C253 1.265 . S
H248 C253 0.950 . S
H249 C257 0.949 . S
H250 C258 0.950 . S
H251 C259 0.951 . S
H252 C260 0.951 . S
C253 C247 1.265 . S
C253 H248 0.950 . S
C253 C254 1.478 . S
C254 C253 1.478 . S
C254 C255 1.397 1_455 S
C254 C271 1.394 . S
C255 C254 1.397 1_655 S
C255 C256 1.438 . S
C255 C260 1.429 1_655 S
C256 C255 1.438 . S
C256 C257 1.428 . S
C256 C269 1.394 . S
C257 H249 0.949 . S
C257 C256 1.428 . S
C257 C258 1.345 . S
C258 H250 0.950 . S
C258 C257 1.345 . S
C258 C259 1.424 . S
C259 H251 0.951 . S
C259 C258 1.424 . S
C259 C260 1.347 1_655 S
C260 H252 0.951 . S
C260 C255 1.429 1_455 S
C260 C259 1.347 1_455 S
H261 C262 0.951 . S
C262 H261 0.951 . S
C262 C268 1.265 . S
H263 C268 0.950 . S
H264 C272 0.949 . S
H265 C273 0.950 . S
H266 C274 0.951 . S
H267 C275 0.951 . S
C268 C262 1.265 . S
C268 H263 0.950 . S
C268 C269 1.478 . S
C269 C256 1.394 . S
C269 C268 1.478 . S
C269 C270 1.397 . S
C270 C269 1.397 . S
C270 C271 1.438 1_655 S
C270 C275 1.429 . S
C271 C254 1.394 . S
C271 C270 1.438 1_455 S
C271 C272 1.428 . S
C272 H264 0.949 . S
C272 C271 1.428 . S
C272 C273 1.345 . S
C273 H265 0.950 . S
C273 C272 1.345 . S
C273 C274 1.424 1_455 S
C274 H266 0.951 . S
C274 C273 1.424 1_655 S
C274 C275 1.347 . S
C275 H267 0.951 . S
C275 C270 1.429 . S
C275 C274 1.347 . S
H276 C277 0.951 . S
C277 H276 0.951 . S
C277 C283 1.265 . S
H278 C283 0.950 . S
H279 C287 0.949 . S
H280 C288 0.950 . S
H281 C289 0.951 . S
H282 C290 0.951 1_545 S
C283 C277 1.265 . S
C283 H278 0.950 . S
C283 C284 1.478 . S
C284 C283 1.478 . S
C284 C285 1.397 1_545 S
C284 C301 1.394 . S
C285 C284 1.397 1_565 S
C285 C286 1.438 . S
C285 C290 1.429 . S
C286 C285 1.438 . S
C286 C287 1.428 . S
C286 C299 1.394 . S
C287 H279 0.949 . S
C287 C286 1.428 . S
C287 C288 1.345 . S
C288 H280 0.950 . S
C288 C287 1.345 . S
C288 C289 1.424 . S
C289 H281 0.951 . S
C289 C288 1.424 . S
C289 C290 1.347 . S
C290 H282 0.951 1_565 S
C290 C285 1.429 . S
C290 C289 1.347 . S
H291 C292 0.951 . S
C292 H291 0.951 . S
C292 C298 1.265 . S
H293 C298 0.950 . S
H294 C302 0.949 . S
H295 C303 0.950 . S
H296 C304 0.951 . S
H297 C305 0.951 . S
C298 C292 1.265 . S
C298 H293 0.950 . S
C298 C299 1.478 . S
C299 C286 1.394 . S
C299 C298 1.478 . S
C299 C300 1.397 . S
C300 C299 1.397 . S
C300 C301 1.438 1_565 S
C300 C305 1.429 . S
C301 C284 1.394 . S
C301 C300 1.438 1_545 S
C301 C302 1.428 . S
C302 H294 0.949 . S
C302 C301 1.428 . S
C302 C303 1.345 . S
C303 H295 0.950 . S
C303 C302 1.345 . S
C303 C304 1.424 . S
C304 H296 0.951 . S
C304 C303 1.424 . S
C304 C305 1.347 1_545 S
C305 H297 0.951 . S
C305 C300 1.429 . S
C305 C304 1.347 1_565 S
H306 C307 0.951 . S
C307 H306 0.951 . S
C307 C313 1.265 . S
H308 C313 0.950 . S
H309 C317 0.949 . S
H310 C318 0.950 . S
H311 C319 0.951 . S
H312 C320 0.951 . S
C313 C307 1.265 . S
C313 H308 0.950 . S
C313 C314 1.478 . S
C314 C313 1.478 . S
C314 C315 1.397 . S
C314 C331 1.394 . S
C315 C314 1.397 . S
C315 C316 1.438 . S
C315 C320 1.429 . S
C316 C315 1.438 . S
C316 C317 1.428 . S
C316 C329 1.394 . S
C317 H309 0.949 . S
C317 C316 1.428 . S
C317 C318 1.345 . S
C318 H310 0.950 . S
C318 C317 1.345 . S
C318 C319 1.424 . S
C319 H311 0.951 . S
C319 C318 1.424 . S
C319 C320 1.347 . S
C320 H312 0.951 . S
C320 C315 1.429 . S
C320 C319 1.347 . S
H321 C322 0.951 . S
C322 H321 0.951 . S
C322 C328 1.265 . S
H323 C328 0.950 . S
H324 C332 0.949 . S
H325 C333 0.950 . S
H326 C334 0.951 . S
H327 C335 0.951 . S
C328 C322 1.265 . S
C328 H323 0.950 . S
C328 C329 1.478 . S
C329 C316 1.394 . S
C329 C328 1.478 . S
C329 C330 1.397 . S
C330 C329 1.397 . S
C330 C331 1.438 . S
C330 C335 1.429 . S
C331 C314 1.394 . S
C331 C330 1.438 . S
C331 C332 1.428 . S
C332 H324 0.949 . S
C332 C331 1.428 . S
C332 C333 1.345 . S
C333 H325 0.950 . S
C333 C332 1.345 . S
C333 C334 1.424 . S
C334 H326 0.951 . S
C334 C333 1.424 . S
C334 C335 1.347 . S
C335 H327 0.951 . S
C335 C330 1.429 . S
C335 C334 1.347 . S
H336 C337 0.951 . S
C337 H336 0.951 . S
C337 C343 1.265 . S
H338 C343 0.950 . S
H339 C347 0.949 . S
H340 C348 0.950 . S
H341 C349 0.951 . S
H342 C350 0.951 . S
C343 C337 1.265 . S
C343 H338 0.950 . S
C343 C344 1.478 1_554 S
C344 C343 1.478 1_556 S
C344 C345 1.397 . S
C344 C361 1.394 . S
C345 C344 1.397 . S
C345 C346 1.438 . S
C345 C350 1.429 . S
C346 C345 1.438 . S
C346 C347 1.428 . S
C346 C359 1.394 . S
C347 H339 0.949 . S
C347 C346 1.428 . S
C347 C348 1.345 . S
C348 H340 0.950 . S
C348 C347 1.345 . S
C348 C349 1.424 . S
C349 H341 0.951 . S
C349 C348 1.424 . S
C349 C350 1.347 . S
C350 H342 0.951 . S
C350 C345 1.429 . S
C350 C349 1.347 . S
H351 C352 0.951 . S
C352 H351 0.951 . S
C352 C358 1.265 . S
H353 C358 0.950 . S
H354 C362 0.949 1_554 S
H355 C363 0.950 . S
H356 C364 0.951 . S
H357 C365 0.951 . S
C358 C352 1.265 . S
C358 H353 0.950 . S
C358 C359 1.478 . S
C359 C346 1.394 . S
C359 C358 1.478 . S
C359 C360 1.397 . S
C360 C359 1.397 . S
C360 C361 1.438 . S
C360 C365 1.429 . S
C361 C344 1.394 . S
C361 C360 1.438 . S
C361 C362 1.428 . S
C362 H354 0.949 1_556 S
C362 C361 1.428 . S
C362 C363 1.345 . S
C363 H355 0.950 . S
C363 C362 1.345 . S
C363 C364 1.424 . S
C364 H356 0.951 . S
C364 C363 1.424 . S
C364 C365 1.347 . S
C365 H357 0.951 . S
C365 C360 1.429 . S
C365 C364 1.347 . S
H366 C367 0.951 . S
C367 H366 0.951 . S
C367 C373 1.265 . S
H368 C373 0.950 . S
H369 C377 0.949 . S
H370 C378 0.950 . S
H371 C379 0.951 . S
H372 C380 0.951 . S
C373 C367 1.265 . S
C373 H368 0.950 . S
C373 C374 1.478 . S
C374 C373 1.478 . S
C374 C375 1.397 . S
C374 C391 1.394 . S
C375 C374 1.397 . S
C375 C376 1.438 . S
C375 C380 1.429 . S
C376 C375 1.438 . S
C376 C377 1.428 . S
C376 C389 1.394 . S
C377 H369 0.949 . S
C377 C376 1.428 . S
C377 C378 1.345 . S
C378 H370 0.950 . S
C378 C377 1.345 . S
C378 C379 1.424 . S
C379 H371 0.951 . S
C379 C378 1.424 . S
C379 C380 1.347 . S
C380 H372 0.951 . S
C380 C375 1.429 . S
C380 C379 1.347 . S
H381 C382 0.951 . S
C382 H381 0.951 . S
C382 C388 1.265 1_556 S
H383 C388 0.951 . S
H384 C392 0.949 . S
H385 C393 0.950 . S
H386 C394 0.951 . S
H387 C395 0.951 . S
C388 C382 1.265 1_554 S
C388 H383 0.951 . S
C388 C389 1.478 . S
C389 C376 1.394 . S
C389 C388 1.478 . S
C389 C390 1.397 . S
C390 C389 1.397 . S
C390 C391 1.438 . S
C390 C395 1.429 . S
C391 C374 1.394 . S
C391 C390 1.438 . S
C391 C392 1.428 . S
C392 H384 0.949 . S
C392 C391 1.428 . S
C392 C393 1.345 . S
C393 H385 0.950 . S
C393 C392 1.345 . S
C393 C394 1.424 . S
C394 H386 0.951 . S
C394 C393 1.424 . S
C394 C395 1.347 . S
C395 H387 0.951 . S
C395 C390 1.429 . S
C395 C394 1.347 . S
H396 C397 0.951 . S
C397 H396 0.951 . S
C397 C403 1.265 . S
H398 C403 0.950 . S
H399 C407 0.949 . S
H400 C408 0.950 . S
H401 C409 0.951 . S
H402 C410 0.951 . S
C403 C397 1.265 . S
C403 H398 0.950 . S
C403 C404 1.478 . S
C404 C403 1.478 . S
C404 C405 1.397 . S
C404 C421 1.394 . S
C405 C404 1.397 . S
C405 C406 1.438 . S
C405 C410 1.429 . S
C406 C405 1.438 . S
C406 C407 1.428 . S
C406 C419 1.394 . S
C407 H399 0.949 . S
C407 C406 1.428 . S
C407 C408 1.345 . S
C408 H400 0.950 . S
C408 C407 1.345 . S
C408 C409 1.424 . S
C409 H401 0.951 . S
C409 C408 1.424 . S
C409 C410 1.347 . S
C410 H402 0.951 . S
C410 C405 1.429 . S
C410 C409 1.347 . S
H411 C412 0.951 . S
C412 H411 0.951 . S
C412 C418 1.265 . S
H413 C418 0.950 . S
H414 C422 0.949 . S
H415 C423 0.950 . S
H416 C424 0.951 . S
H417 C425 0.951 . S
C418 C412 1.265 . S
C418 H413 0.950 . S
C418 C419 1.478 . S
C419 C406 1.394 . S
C419 C418 1.478 . S
C419 C420 1.397 . S
C420 C419 1.397 . S
C420 C421 1.438 . S
C420 C425 1.429 . S
C421 C404 1.394 . S
C421 C420 1.438 . S
C421 C422 1.428 . S
C422 H414 0.949 . S
C422 C421 1.428 . S
C422 C423 1.345 . S
C423 H415 0.950 . S
C423 C422 1.345 . S
C423 C424 1.424 . S
C424 H416 0.951 . S
C424 C423 1.424 . S
C424 C425 1.347 . S
C425 H417 0.951 . S
C425 C420 1.429 . S
C425 C424 1.347 . S
H426 C427 0.951 . S
C427 H426 0.951 . S
C427 C433 1.265 . S
H428 C433 0.950 . S
H429 C437 0.949 1_554 S
H430 C438 0.950 . S
H431 C439 0.951 . S
H432 C440 0.951 . S
C433 C427 1.265 . S
C433 H428 0.950 . S
C433 C434 1.478 . S
C434 C433 1.478 . S
C434 C435 1.397 . S
C434 C451 1.394 . S
C435 C434 1.397 . S
C435 C436 1.438 . S
C435 C440 1.429 . S
C436 C435 1.438 . S
C436 C437 1.428 . S
C436 C449 1.394 . S
C437 H429 0.949 1_556 S
C437 C436 1.428 . S
C437 C438 1.345 . S
C438 H430 0.950 . S
C438 C437 1.345 . S
C438 C439 1.424 . S
C439 H431 0.951 . S
C439 C438 1.424 . S
C439 C440 1.347 . S
C440 H432 0.951 . S
C440 C435 1.429 . S
C440 C439 1.347 . S
H441 C442 0.951 . S
C442 H441 0.951 . S
C442 C448 1.265 . S
H443 C448 0.950 . S
H444 C452 0.949 . S
H445 C453 0.950 . S
H446 C454 0.951 . S
H447 C455 0.951 . S
C448 C442 1.265 . S
C448 H443 0.950 . S
C448 C449 1.478 1_554 S
C449 C436 1.394 . S
C449 C448 1.478 1_556 S
C449 C450 1.397 . S
C450 C449 1.397 . S
C450 C451 1.438 . S
C450 C455 1.429 . S
C451 C434 1.394 . S
C451 C450 1.438 . S
C451 C452 1.428 . S
C452 H444 0.949 . S
C452 C451 1.428 . S
C452 C453 1.345 . S
C453 H445 0.950 . S
C453 C452 1.345 . S
C453 C454 1.424 . S
C454 H446 0.951 . S
C454 C453 1.424 . S
C454 C455 1.347 . S
C455 H447 0.951 . S
C455 C450 1.429 . S
C455 C454 1.347 . S
H456 C457 0.951 . S
C457 H456 0.951 . S
C457 C463 1.265 . S
H458 C463 0.950 . S
H459 C467 0.949 . S
H460 C468 0.950 . S
H461 C469 0.951 . S
H462 C470 0.951 . S
C463 C457 1.265 . S
C463 H458 0.950 . S
C463 C464 1.478 . S
C464 C463 1.478 . S
C464 C465 1.397 . S
C464 C481 1.394 . S
C465 C464 1.397 . S
C465 C466 1.438 . S
C465 C470 1.429 . S
C466 C465 1.438 . S
C466 C467 1.428 . S
C466 C479 1.394 . S
C467 H459 0.949 . S
C467 C466 1.428 . S
C467 C468 1.345 . S
C468 H460 0.950 . S
C468 C467 1.345 . S
C468 C469 1.424 . S
C469 H461 0.951 . S
C469 C468 1.424 . S
C469 C470 1.347 . S
C470 H462 0.951 . S
C470 C465 1.429 . S
C470 C469 1.347 . S
H471 C472 0.951 . S
C472 H471 0.951 . S
C472 C478 1.265 1_556 S
H473 C478 0.950 1_556 S
H474 C482 0.949 . S
H475 C483 0.950 . S
H476 C484 0.951 . S
H477 C485 0.951 . S
C478 C472 1.265 1_554 S
C478 H473 0.950 1_554 S
C478 C479 1.478 . S
C479 C466 1.394 . S
C479 C478 1.478 . S
C479 C480 1.397 . S
C480 C479 1.397 . S
C480 C481 1.438 . S
C480 C485 1.429 . S
C481 C464 1.394 . S
C481 C480 1.438 . S
C481 C482 1.428 . S
C482 H474 0.949 . S
C482 C481 1.428 . S
C482 C483 1.345 . S
C483 H475 0.950 . S
C483 C482 1.345 . S
C483 C484 1.424 . S
C484 H476 0.951 . S
C484 C483 1.424 . S
C484 C485 1.347 . S
C485 H477 0.951 . S
C485 C480 1.429 . S
C485 C484 1.347 . S
H486 C487 0.951 . S
C487 H486 0.951 . S
C487 C493 1.265 . S
H488 C493 0.950 . S
H489 C497 0.949 . S
H490 C498 0.950 . S
H491 C499 0.951 . S
H492 C500 0.951 . S
C493 C487 1.265 . S
C493 H488 0.950 . S
C493 C494 1.478 . S
C494 C493 1.478 . S
C494 C495 1.397 . S
C494 C511 1.394 . S
C495 C494 1.397 . S
C495 C496 1.438 . S
C495 C500 1.429 . S
C496 C495 1.438 . S
C496 C497 1.428 . S
C496 C509 1.394 . S
C497 H489 0.949 . S
C497 C496 1.428 . S
C497 C498 1.345 . S
C498 H490 0.950 . S
C498 C497 1.345 . S
C498 C499 1.424 . S
C499 H491 0.951 . S
C499 C498 1.424 . S
C499 C500 1.347 . S
C500 H492 0.951 . S
C500 C495 1.429 . S
C500 C499 1.347 . S
H501 C502 0.951 . S
C502 H501 0.951 . S
C502 C508 1.265 . S
H503 C508 0.950 . S
H504 C512 0.949 . S
H505 C513 0.950 . S
H506 C514 0.951 . S
H507 C515 0.951 . S
C508 C502 1.265 . S
C508 H503 0.950 . S
C508 C509 1.478 . S
C509 C496 1.394 . S
C509 C508 1.478 . S
C509 C510 1.397 . S
C510 C509 1.397 . S
C510 C511 1.438 . S
C510 C515 1.429 . S
C511 C494 1.394 . S
C511 C510 1.438 . S
C511 C512 1.428 . S
C512 H504 0.949 . S
C512 C511 1.428 . S
C512 C513 1.345 . S
C513 H505 0.950 . S
C513 C512 1.345 . S
C513 C514 1.424 . S
C514 H506 0.951 . S
C514 C513 1.424 . S
C514 C515 1.347 . S
C515 H507 0.951 . S
C515 C510 1.429 . S
C515 C514 1.347 . S
H516 C517 0.951 . S
C517 H516 0.951 . S
C517 C523 1.265 . S
H518 C523 0.950 . S
H519 C527 0.949 . S
H520 C528 0.950 . S
H521 C529 0.951 . S
H522 C530 0.951 . S
C523 C517 1.265 . S
C523 H518 0.950 . S
C523 C524 1.478 . S
C524 C523 1.478 . S
C524 C525 1.397 . S
C524 C541 1.394 . S
C525 C524 1.397 . S
C525 C526 1.438 . S
C525 C530 1.429 . S
C526 C525 1.438 . S
C526 C527 1.428 . S
C526 C539 1.394 . S
C527 H519 0.949 . S
C527 C526 1.428 . S
C527 C528 1.345 . S
C528 H520 0.950 . S
C528 C527 1.345 . S
C528 C529 1.424 . S
C529 H521 0.951 . S
C529 C528 1.424 . S
C529 C530 1.347 . S
C530 H522 0.951 . S
C530 C525 1.429 . S
C530 C529 1.347 . S
H531 C532 0.951 . S
C532 H531 0.951 . S
C532 C538 1.265 . S
H533 C538 0.950 . S
H534 C542 0.949 . S
H535 C543 0.950 . S
H536 C544 0.951 . S
H537 C545 0.951 . S
C538 C532 1.265 . S
C538 H533 0.950 . S
C538 C539 1.478 . S
C539 C526 1.394 . S
C539 C538 1.478 . S
C539 C540 1.397 . S
C540 C539 1.397 . S
C540 C541 1.438 . S
C540 C545 1.429 . S
C541 C524 1.394 . S
C541 C540 1.438 . S
C541 C542 1.428 . S
C542 H534 0.949 . S
C542 C541 1.428 . S
C542 C543 1.345 . S
C543 H535 0.950 . S
C543 C542 1.345 . S
C543 C544 1.424 . S
C544 H536 0.951 . S
C544 C543 1.424 . S
C544 C545 1.347 . S
C545 H537 0.951 . S
C545 C540 1.429 . S
C545 C544 1.347 . S
H546 C547 0.951 . S
C547 H546 0.951 . S
C547 C553 1.265 . S
H548 C553 0.950 . S
H549 C557 0.949 . S
H550 C558 0.950 . S
H551 C559 0.951 . S
H552 C560 0.951 . S
C553 C547 1.265 . S
C553 H548 0.950 . S
C553 C554 1.478 . S
C554 C553 1.478 . S
C554 C555 1.397 . S
C554 C571 1.394 . S
C555 C554 1.397 . S
C555 C556 1.438 . S
C555 C560 1.429 . S
C556 C555 1.438 . S
C556 C557 1.428 . S
C556 C569 1.394 . S
C557 H549 0.949 . S
C557 C556 1.428 . S
C557 C558 1.345 . S
C558 H550 0.950 . S
C558 C557 1.345 . S
C558 C559 1.424 . S
C559 H551 0.951 . S
C559 C558 1.424 . S
C559 C560 1.347 . S
C560 H552 0.951 . S
C560 C555 1.429 . S
C560 C559 1.347 . S
H561 C562 0.951 . S
C562 H561 0.951 . S
C562 C568 1.265 . S
H563 C568 0.950 . S
H564 C572 0.949 . S
H565 C573 0.950 . S
H566 C574 0.951 . S
H567 C575 0.951 . S
C568 C562 1.265 . S
C568 H563 0.950 . S
C568 C569 1.478 . S
C569 C556 1.394 . S
C569 C568 1.478 . S
C569 C570 1.397 . S
C570 C569 1.397 . S
C570 C571 1.438 . S
C570 C575 1.429 . S
C571 C554 1.394 . S
C571 C570 1.438 . S
C571 C572 1.428 1_556 S
C572 H564 0.949 . S
C572 C571 1.428 1_554 S
C572 C573 1.345 . S
C573 H565 0.950 . S
C573 C572 1.345 . S
C573 C574 1.424 . S
C574 H566 0.951 . S
C574 C573 1.424 . S
C574 C575 1.347 1_554 S
C575 H567 0.951 . S
C575 C570 1.429 . S
C575 C574 1.347 1_556 S
H576 C577 0.951 . S
C577 H576 0.951 . S
C577 C583 1.265 . S
H578 C583 0.950 . S
H579 C587 0.949 . S
H580 C588 0.950 . S
H581 C589 0.951 . S
H582 C590 0.951 . S
C583 C577 1.265 . S
C583 H578 0.950 . S
C583 C584 1.478 . S
C584 C583 1.478 . S
C584 C585 1.397 . S
C584 C601 1.394 . S
C585 C584 1.397 . S
C585 C586 1.438 . S
C585 C590 1.429 . S
C586 C585 1.438 . S
C586 C587 1.428 . S
C586 C599 1.394 . S
C587 H579 0.949 . S
C587 C586 1.428 . S
C587 C588 1.345 . S
C588 H580 0.950 . S
C588 C587 1.345 . S
C588 C589 1.424 . S
C589 H581 0.951 . S
C589 C588 1.424 . S
C589 C590 1.347 . S
C590 H582 0.951 . S
C590 C585 1.429 . S
C590 C589 1.347 . S
H591 C592 0.951 . S
C592 H591 0.951 . S
C592 C598 1.265 . S
H593 C598 0.950 . S
H594 C602 0.949 . S
H595 C603 0.950 . S
H596 C604 0.951 1_556 S
H597 C605 0.951 . S
C598 C592 1.265 . S
C598 H593 0.950 . S
C598 C599 1.478 . S
C599 C586 1.394 . S
C599 C598 1.478 . S
C599 C600 1.397 . S
C600 C599 1.397 . S
C600 C601 1.438 . S
C600 C605 1.429 . S
C601 C584 1.394 . S
C601 C600 1.438 . S
C601 C602 1.428 . S
C602 H594 0.949 . S
C602 C601 1.428 . S
C602 C603 1.345 . S
C603 H595 0.950 . S
C603 C602 1.345 . S
C603 C604 1.424 . S
C604 H596 0.951 1_554 S
C604 C603 1.424 . S
C604 C605 1.347 . S
C605 H597 0.951 . S
C605 C600 1.429 . S
C605 C604 1.347 . S
H606 C607 0.951 . S
C607 H606 0.951 . S
C607 C613 1.265 . S
H608 C613 0.950 . S
H609 C617 0.949 . S
H610 C618 0.950 . S
H611 C619 0.951 . S
H612 C620 0.951 . S
C613 C607 1.265 . S
C613 H608 0.950 . S
C613 C614 1.478 . S
C614 C613 1.478 . S
C614 C615 1.397 . S
C614 C631 1.394 . S
C615 C614 1.397 . S
C615 C616 1.438 . S
C615 C620 1.429 . S
C616 C615 1.438 . S
C616 C617 1.428 . S
C616 C629 1.394 . S
C617 H609 0.949 . S
C617 C616 1.428 . S
C617 C618 1.345 . S
C618 H610 0.950 . S
C618 C617 1.345 . S
C618 C619 1.424 . S
C619 H611 0.951 . S
C619 C618 1.424 . S
C619 C620 1.347 . S
C620 H612 0.951 . S
C620 C615 1.429 . S
C620 C619 1.347 . S
H621 C622 0.951 . S
C622 H621 0.951 . S
C622 C628 1.265 . S
H623 C628 0.950 . S
H624 C632 0.949 . S
H625 C633 0.950 . S
H626 C634 0.951 . S
H627 C635 0.951 . S
C628 C622 1.265 . S
C628 H623 0.950 . S
C628 C629 1.478 . S
C629 C616 1.394 . S
C629 C628 1.478 . S
C629 C630 1.397 . S
C630 C629 1.397 . S
C630 C631 1.438 . S
C630 C635 1.429 . S
C631 C614 1.394 . S
C631 C630 1.438 . S
C631 C632 1.428 . S
C632 H624 0.949 . S
C632 C631 1.428 . S
C632 C633 1.345 . S
C633 H625 0.950 . S
C633 C632 1.345 . S
C633 C634 1.424 . S
C634 H626 0.951 . S
C634 C633 1.424 . S
C634 C635 1.347 . S
C635 H627 0.951 . S
C635 C630 1.429 . S
C635 C634 1.347 . S
H636 C637 0.951 . S
C637 H636 0.951 . S
C637 C643 1.265 . S
H638 C643 0.950 . S
H639 C647 0.949 . S
H640 C648 0.951 . S
H641 C649 0.951 . S
H642 C650 0.951 1_554 S
C643 C637 1.265 . S
C643 H638 0.950 . S
C643 C644 1.478 . S
C644 C643 1.478 . S
C644 C645 1.397 . S
C644 C661 1.394 . S
C645 C644 1.397 . S
C645 C646 1.438 . S
C645 C650 1.429 . S
C646 C645 1.438 . S
C646 C647 1.428 . S
C646 C659 1.394 . S
C647 H639 0.949 . S
C647 C646 1.428 . S
C647 C648 1.342 1_556 S
C648 H640 0.951 . S
C648 C647 1.342 1_554 S
C648 C649 1.425 . S
C649 H641 0.951 . S
C649 C648 1.425 . S
C649 C650 1.347 1_554 S
C650 H642 0.951 1_556 S
C650 C645 1.429 . S
C650 C649 1.347 1_556 S
H651 C652 0.951 . S
C652 H651 0.951 . S
C652 C658 1.265 . S
H653 C658 0.950 . S
H654 C662 0.949 . S
H655 C663 0.950 . S
H656 C664 0.951 . S
H657 C665 0.951 . S
C658 C652 1.265 . S
C658 H653 0.950 . S
C658 C659 1.478 . S
C659 C646 1.394 . S
C659 C658 1.478 . S
C659 C660 1.397 . S
C660 C659 1.397 . S
C660 C661 1.438 . S
C660 C665 1.429 . S
C661 C644 1.394 . S
C661 C660 1.438 . S
C661 C662 1.428 . S
C662 H654 0.949 . S
C662 C661 1.428 . S
C662 C663 1.345 . S
C663 H655 0.950 . S
C663 C662 1.345 . S
C663 C664 1.424 . S
C664 H656 0.951 . S
C664 C663 1.424 . S
C664 C665 1.347 . S
C665 H657 0.951 . S
C665 C660 1.429 . S
C665 C664 1.347 . S
C127 C121 1.305 . S
C142 C15 1.473 . S
C157 C16 1.400 . S
C172 C36 1.421 . S
C187 C37 1.334 . S
C202 C57 1.457 . S
C217 C58 1.422 . S
C232 C78 1.409 . S
C247 C99 1.448 . S
C262 C79 1.353 . S
C277 C120 1.423 . S
C292 C100 1.397 . S
C307 C17 1.146 . S
C322 C18 1.117 . S
C337 C38 1.184 . S
C352 C39 1.190 . S
C367 C59 1.185 . S
C382 C60 1.169 . S
C397 C80 1.147 . S
C412 C81 1.117 . S
C427 C102 1.081 . S
C442 C101 1.107 . S
C457 C122 1.110 . S
C472 C123 1.106 . S
C487 C14 1.364 . S
C502 C97 1.097 . S
C517 C35 1.315 . S
C532 C118 1.131 . S
C547 C13 1.100 . S
C562 C56 1.379 . S
C577 C34 1.226 . S
C592 C77 1.258 . S
C607 C98 1.318 . S
C622 C55 1.128 . S
C637 C76 1.251 . S
C652 C119 1.251 . S
