# Generated by pormake.
# Topology cdl, (4)-cn, num edge types: 1
# Building blocks:
#     Node 0, Type 0, BuildingBlock: ESEHIV_clean_sbu_0, # of connection points: 4
#     Node 1, Type 0, BuildingBlock: ESEHIV_clean_sbu_0, # of connection points: 4
#     Node 2, Type 0, BuildingBlock: ESEHIV_clean_sbu_0, # of connection points: 4
#     Node 3, Type 0, BuildingBlock: ESEHIV_clean_sbu_0, # of connection points: 4
#     Edge 4, Type (0, 0), BuildingBlock: FUNLAD_clean_linker_0, # of connection points: 2
#     Edge 5, Type (0, 0), BuildingBlock: FUNLAD_clean_linker_0, # of connection points: 2
#     Edge 6, Type (0, 0), BuildingBlock: FUNLAD_clean_linker_0, # of connection points: 2
#     Edge 7, Type (0, 0), BuildingBlock: FUNLAD_clean_linker_0, # of connection points: 2
#     Edge 8, Type (0, 0), BuildingBlock: FUNLAD_clean_linker_0, # of connection points: 2
#     Edge 9, Type (0, 0), BuildingBlock: FUNLAD_clean_linker_0, # of connection points: 2
#     Edge 10, Type (0, 0), BuildingBlock: FUNLAD_clean_linker_0, # of connection points: 2
#     Edge 11, Type (0, 0), BuildingBlock: FUNLAD_clean_linker_0, # of connection points: 2
# Relax obj value: 0.000
# Max RMSD: 0.147
# Mean RMSD: 0.094
data_MOF--net-cdl--node1-ESEHIV_clean_sbu_0--edge1-FUNLAD_clean_linker_0
_symmetry_space_group_name_H-M    P1
_symmetry_Int_Tables_number       1
_symmetry_cell_setting            triclinic
loop_
_symmetry_equiv_pos_as_xyz
'x, y, z'
_cell_length_a     17.110997
_cell_length_b     19.658887
_cell_length_c     73.326502
_cell_angle_alpha  101.60442
_cell_angle_beta   101.01905
_cell_angle_gamma 87.752508
loop_
_atom_site_label
_atom_site_type_symbol
_atom_site_fract_x
_atom_site_fract_y
_atom_site_fract_z
_atom_type_partial_charge
Cu0 Cu 0.94742 0.10206 0.12378 0.0
N1 N 0.88537 1.0212 0.11652 0.0
N2 N 0.84898 0.91104 0.11384 0.0
C3 C 0.90608 0.95954 0.1214 0.0
C4 C 0.79015 0.94346 0.10375 0.0
C5 C 0.81263 1.01149 0.10549 0.0
O6 O 1.00694 0.10384 0.1495 0.0
C7 C 0.97476 0.10299 0.08792 0.0
O8 O 0.89663 0.10553 0.08509 0.0
H9 H 0.96223 0.9504 0.13026 0.0
H10 H 0.77822 0.05115 0.09924 0.0
N11 N 0.8836 0.18169 0.12442 0.0
N12 N 0.84567 0.29099 0.123 0.0
C13 C 0.902 0.24196 0.12016 0.0
C14 C 0.8131 0.19281 0.13009 0.0
C15 C 0.78964 0.26028 0.12929 0.0
C16 C 0.96642 0.09201 0.16145 0.0
O17 O 0.88971 0.08032 0.15577 0.0
H18 H 0.95661 0.25013 0.1155 0.0
H19 H 0.78133 0.15474 0.13465 0.0
O20 O 1.01283 0.10131 0.10459 0.0
H21 H 0.73427 0.92008 0.09596 0.0
H22 H 0.7354 0.28468 0.13294 0.0
Cu23 Cu 0.08789 0.16061 0.65252 0.0
N24 N 0.09365 0.09818 0.66902 0.0
N25 N 0.09574 0.05812 0.69565 0.0
C26 C 0.09179 0.1149 0.68771 0.0
C27 C 0.10048 1.0037 0.68135 0.0
C28 C 0.09927 0.02851 0.665 0.0
O29 O 0.99577 0.21967 0.65714 0.0
C30 C 0.25146 0.16602 0.65759 0.0
O31 O 0.23856 0.09888 0.65446 0.0
H32 H 0.08651 0.1677 0.69523 0.0
H33 H 0.103 0.99785 0.6512 0.0
N34 N 0.0694 0.11309 0.6272 0.0
N35 N 0.06937 0.08764 0.59601 0.0
C36 C 0.09735 0.13034 0.61273 0.0
C37 C 0.02187 0.05787 0.61938 0.0
C38 C 0.02208 0.04181 0.60019 0.0
C39 C 0.94205 0.2354 0.644 0.0
O40 O 0.9547 0.22249 0.62652 0.0
H41 H 0.13679 0.17382 0.61445 0.0
H42 H 0.98787 0.03216 0.62702 0.0
O43 O 0.19164 0.20699 0.65749 0.0
H44 H 0.10586 0.94976 0.68264 0.0
H45 H 0.98785 1.00103 0.59002 0.0
Cu46 Cu 0.27183 0.11236 0.90613 0.0
N47 N 0.33828 0.03425 0.905 0.0
N48 N 0.38225 0.92618 0.90621 0.0
C49 C 0.3242 0.97322 0.90949 0.0
C50 C 0.43485 0.95929 0.89946 0.0
C51 C 0.40744 1.02574 0.89867 0.0
O52 O 0.21037 0.11254 0.926 0.0
C53 C 0.19599 0.05872 0.86782 0.0
O54 O 0.2187 0.99786 0.87173 0.0
H55 H 0.27207 0.9636 0.91494 0.0
H56 H 0.43516 0.06474 0.89351 0.0
N57 N 0.33255 0.19368 0.91255 0.0
N58 N 0.36521 0.30496 0.91525 0.0
C59 C 0.30761 0.25612 0.90879 0.0
C60 C 0.4085 0.20301 0.9217 0.0
C61 C 0.42881 0.27153 0.9234 0.0
C62 C 0.25011 0.11243 0.9426 0.0
O63 O 0.32823 0.11198 0.94512 0.0
H64 H 0.24791 0.26547 0.90166 0.0
H65 H 0.44647 0.16281 0.92675 0.0
O66 O 0.20779 0.11257 0.88099 0.0
H67 H 0.48824 0.93659 0.89488 0.0
H68 H 0.48639 0.2945 0.9299 0.0
Cu69 Cu 0.15316 0.15548 0.38626 0.0
N70 N 0.13769 0.09645 0.36233 0.0
N71 N 0.12538 0.05919 0.3309 0.0
C72 C 0.14023 0.11406 0.34559 0.0
C73 C 0.1131 1.00522 0.33891 0.0
C74 C 0.12094 0.02824 0.35818 0.0
O75 O 0.2438 0.21358 0.38707 0.0
C76 C 0.99123 0.17122 0.38494 0.0
O77 O 0.99566 0.10392 0.3788 0.0
H78 H 0.15293 0.16619 0.34431 0.0
H79 H 0.11344 0.99757 0.36843 0.0
N80 N 0.17664 0.10341 0.40542 0.0
N81 N 0.18351 0.06987 0.4332 0.0
C82 C 0.15454 0.11725 0.42249 0.0
C83 C 0.2211 0.04553 0.40522 0.0
C84 C 0.22518 1.02458 0.42221 0.0
C85 C 0.29983 0.22941 0.40136 0.0
O86 O 0.29246 0.21445 0.41762 0.0
H87 H 0.11924 0.1621 0.42701 0.0
H88 H 0.24895 1.0205 0.39355 0.0
O89 O 0.05506 0.2069 0.38923 0.0
H90 H 0.09753 0.95288 0.33143 0.0
H91 H 0.2564 0.97907 0.42599 0.0
C92 C 0.81105 0.4152 0.13181 0.0
C93 C 0.84608 0.36159 0.12023 0.0
C94 C 0.8119 0.48376 0.12919 0.0
C95 C 0.84734 0.50012 0.1148 0.0
C96 C 0.88117 0.44634 0.10304 0.0
C97 C 0.88134 0.37797 0.10584 0.0
C98 C 0.84727 0.57207 0.11123 0.0
C99 C 0.84977 0.62915 0.12506 0.0
C100 C 0.85049 0.70116 0.12157 0.0
C101 C 0.88829 0.75385 0.13611 0.0
C102 C 0.88874 0.82238 0.13349 0.0
C103 C 0.8499 0.84009 0.11638 0.0
H104 H 0.78019 0.67994 0.09306 0.0
C105 C 0.81113 0.78757 0.1019 0.0
C106 C 0.81165 0.71879 0.10442 0.0
H107 H 0.78086 0.79962 0.08855 0.0
H108 H 0.78367 0.40424 0.14305 0.0
H109 H 0.78347 0.52352 0.13823 0.0
H110 H 0.90811 0.45732 0.09172 0.0
H111 H 0.90786 0.33768 0.09653 0.0
H112 H 0.8495 0.57788 0.09691 0.0
H113 H 0.85567 0.62315 0.13967 0.0
H114 H 0.91792 0.7419 0.14953 0.0
H115 H 0.91812 0.86183 0.145 0.0
C116 C 0.35528 0.25143 0.6556 0.0
C117 C 0.33494 0.19073 0.66101 0.0
C118 C 0.43581 0.26828 0.657 0.0
C119 C 0.49717 0.22507 0.6641 0.0
C120 C 0.47611 0.1665 0.6703 0.0
C121 C 0.39639 0.14919 0.66861 0.0
C122 C 0.58373 0.23743 0.66513 0.0
C123 C 0.61287 0.27107 0.65353 0.0
C124 C 0.69943 0.27077 0.65242 0.0
C125 C 0.72097 0.27722 0.63529 0.0
C126 C 0.80034 0.26928 0.63289 0.0
C127 C 0.86064 0.25537 0.64765 0.0
H128 H 0.74711 0.25854 0.68128 0.0
C129 C 0.83999 0.25351 0.66523 0.0
C130 C 0.76045 0.26122 0.66761 0.0
H131 H 0.88482 0.24349 0.67697 0.0
H132 H 0.30918 0.28441 0.64969 0.0
H133 H 0.44962 0.31478 0.65247 0.0
H134 H 0.52166 0.13252 0.67599 0.0
H135 H 0.38286 0.10236 0.67306 0.0
H136 H 0.62502 0.21068 0.67451 0.0
H137 H 0.57153 0.29282 0.64301 0.0
H138 H 0.67574 0.28546 0.62341 0.0
H139 H 0.81388 0.27158 0.61919 0.0
C140 C 0.41127 0.42701 0.92647 0.0
C141 C 0.35999 0.37735 0.91374 0.0
C142 C 0.40633 0.49705 0.92501 0.0
C143 C 0.35017 0.51923 0.91067 0.0
C144 C 0.29836 0.46979 0.89813 0.0
C145 C 0.30335 0.39978 0.89957 0.0
C146 C 0.34207 0.59338 0.90866 0.0
C147 C 0.40122 0.64052 0.91524 0.0
C148 C 0.39393 0.71423 0.91283 0.0
C149 C 0.46357 0.75147 0.91387 0.0
C150 C 0.45975 0.82073 0.91174 0.0
C151 C 0.38608 0.85492 0.9087 0.0
H152 H 0.26511 0.72269 0.90969 0.0
C153 C 0.31633 0.81808 0.90799 0.0
C154 C 0.32011 0.74864 0.91005 0.0
H155 H 0.25853 0.84254 0.90559 0.0
H156 H 0.45446 0.41211 0.93781 0.0
H157 H 0.44563 0.53357 0.93539 0.0
H158 H 0.25417 0.48524 0.88701 0.0
H159 H 0.26334 0.36321 0.8894 0.0
H160 H 0.2864 0.60833 0.90057 0.0
H161 H 0.4592 0.62398 0.92183 0.0
H162 H 0.52134 0.72675 0.91623 0.0
H163 H 0.51475 0.84768 0.91269 0.0
C164 C 0.44458 0.2582 0.41357 0.0
C165 C 0.37825 0.25133 0.39866 0.0
C166 C 0.52129 0.2659 0.41018 0.0
C167 C 0.53324 0.26723 0.39177 0.0
C168 C 0.46635 0.26477 0.37717 0.0
C169 C 0.38979 0.25721 0.38056 0.0
C170 C 0.61379 0.26124 0.38665 0.0
C171 C 0.68286 0.27444 0.39918 0.0
C172 C 0.76143 0.25256 0.39401 0.0
C173 C 0.83101 0.2888 0.40387 0.0
C174 C 0.90613 0.26457 0.4004 0.0
C175 C 0.91287 0.20266 0.38733 0.0
H176 H 0.71678 0.1611 0.37305 0.0
C177 C 0.8432 0.16716 0.37729 0.0
C178 C 0.76853 0.19176 0.38054 0.0
H179 H 0.84635 0.11923 0.36714 0.0
H180 H 0.43793 0.25391 0.42769 0.0
H181 H 0.571 0.26648 0.4218 0.0
H182 H 0.47358 0.26556 0.36285 0.0
H183 H 0.34016 0.2524 0.36874 0.0
H184 H 0.61614 0.24182 0.3718 0.0
H185 H 0.68233 0.29995 0.41373 0.0
H186 H 0.82732 0.3353 0.41449 0.0
H187 H 0.95889 0.29268 0.40846 0.0
C188 C 0.25712 0.11422 0.97714 0.0
C189 C 0.21069 0.11282 0.95902 0.0
C190 C 0.22146 0.11492 0.99282 0.0
C191 C 0.13801 0.11375 0.9908 0.0
C192 C 0.09161 0.11289 0.97269 0.0
C193 C 0.1274 0.11223 0.95697 0.0
C194 C 0.09692 0.11555 1.00716 0.0
C195 C 0.13212 0.09999 0.02401 0.0
C196 C 0.09036 0.10141 0.04025 0.0
C197 C 0.13587 0.10306 0.0585 0.0
C198 C 0.09907 0.10359 0.07408 0.0
C199 C 1.01569 0.10217 0.07172 0.0
H200 H 0.969 0.09529 0.02417 0.0
C201 C 0.97026 0.09976 0.05345 0.0
C202 C 1.00687 0.09903 0.03793 0.0
H203 H 0.90585 0.09786 0.05102 0.0
H204 H 0.32152 0.11528 0.97931 0.0
H205 H 0.25996 0.1177 1.00647 0.0
H206 H 0.02721 0.1125 0.97065 0.0
H207 H 0.08982 0.11135 0.94325 0.0
H208 H 0.03458 0.13014 1.00496 0.0
H209 H 0.19453 0.08566 0.02627 0.0
H210 H 0.2003 0.10427 0.06076 0.0
H211 H 0.13588 0.10523 0.08793 0.0
C212 C 0.11611 0.11008 0.46079 0.0
C213 C 0.17345 0.06818 0.45233 0.0
C214 C 0.10629 0.10777 0.47921 0.0
C215 C 0.15342 0.06329 0.48967 0.0
C216 C 0.21013 1.02126 0.48124 0.0
C217 C 0.22054 1.02402 0.46295 0.0
C218 C 0.14296 0.05677 0.50899 0.0
C219 C 0.11503 0.10816 0.52127 0.0
C220 C 0.10558 0.10107 0.54063 0.0
C221 C 0.10889 0.16079 0.55498 0.0
C222 C 0.0985 0.15633 0.57319 0.0
C223 C 0.08315 0.09205 0.57743 0.0
H224 H 0.08526 0.98961 0.53412 0.0
C225 C 0.07926 0.03229 0.56304 0.0
C226 C 0.09039 0.03664 0.54487 0.0
H227 H 0.06777 0.98197 0.56582 0.0
H228 H 0.0776 0.144 0.45314 0.0
H229 H 0.06036 0.1396 0.485 0.0
H230 H 0.2471 0.98627 0.4889 0.0
H231 H 0.26604 0.99143 0.45728 0.0
H232 H 0.16301 1.00869 0.51354 0.0
H233 H 0.10214 0.15856 0.51745 0.0
H234 H 0.11967 0.2112 0.55209 0.0
H235 H 0.10066 0.20352 0.58383 0.0
C236 C 0.11165 0.12003 0.30369 0.0
C237 C 0.12032 0.05819 0.31086 0.0
C238 C 0.1017 0.11819 0.28414 0.0
C239 C 0.09993 0.05437 0.27127 0.0
C240 C 0.11038 0.99296 0.27844 0.0
C241 C 0.12116 0.99477 0.29791 0.0
C242 C 0.0796 0.04897 0.25034 0.0
C243 C 0.09233 0.09944 0.24119 0.0
C244 C 0.063 0.0939 0.22043 0.0
C245 C 0.10443 0.12656 0.20973 0.0
C246 C 0.07509 0.12434 0.19035 0.0
C247 C 1.00268 0.09082 0.18147 0.0
H248 H 0.95635 0.03546 0.21919 0.0
C249 C 0.96156 0.05819 0.19221 0.0
C250 C 0.99126 0.05956 0.21137 0.0
H251 H 0.90554 0.03195 0.18584 0.0
H252 H 0.10989 0.16993 0.31304 0.0
H253 H 0.09206 0.16658 0.27915 0.0
H254 H 0.10918 0.94302 0.26888 0.0
H255 H 0.12931 0.946 0.30269 0.0
H256 H 0.05324 1.00035 0.24206 0.0
H257 H 0.12555 0.14557 0.24897 0.0
H258 H 0.15945 0.15398 0.21639 0.0
H259 H 0.10781 0.1504 0.18249 0.0
C260 C 0.12429 0.11171 0.72992 0.0
C261 C 0.09565 0.05561 0.71523 0.0
C262 C 0.1271 0.10792 0.74894 0.0
C263 C 0.10046 0.04796 0.75373 0.0
C264 C 0.07092 0.99246 0.73898 0.0
C265 C 0.06849 0.99617 0.72003 0.0
C266 C 0.10616 0.03891 0.77374 0.0
C267 C 0.12154 0.09045 0.78922 0.0
C268 C 0.13311 0.07958 0.80921 0.0
C269 C 0.13347 0.1378 0.82396 0.0
C270 C 0.15062 0.13096 0.84298 0.0
C271 C 0.16808 0.06554 0.84776 0.0
H272 H 0.15114 0.96747 0.80338 0.0
C273 C 0.16548 1.00701 0.83304 0.0
C274 C 0.14871 1.01384 0.81404 0.0
H275 H 0.17916 0.95582 0.83616 0.0
H276 H 0.14674 0.1579 0.72678 0.0
H277 H 0.15215 0.15146 0.75971 0.0
H278 H 0.05008 0.94551 0.74211 0.0
H279 H 0.04503 0.95233 0.70912 0.0
H280 H 0.09626 0.98677 0.77556 0.0
H281 H 0.12574 0.14347 0.78739 0.0
H282 H 0.12205 0.18917 0.82079 0.0
H283 H 0.15233 0.17727 0.85393 0.0
loop_
_geom_bond_atom_site_label_1
_geom_bond_atom_site_label_2
_geom_bond_distance
_geom_bond_site_symmetry_2
_ccdc_geom_bond_type
Cu0 N1 1.999 1_545 S
Cu0 O6 1.974 . S
Cu0 N11 1.985 . S
Cu0 O20 1.959 . S
N1 Cu0 1.999 1_565 S
N1 C3 1.263 . S
N1 C5 1.389 . S
N2 C3 1.358 . S
N2 C4 1.400 . S
C3 N1 1.263 . S
C3 N2 1.358 . S
C3 H9 0.930 . S
C4 N2 1.400 . S
C4 C5 1.351 . S
C4 H21 0.930 . S
C5 N1 1.389 . S
C5 C4 1.351 . S
C5 H10 0.930 . S
O6 Cu0 1.974 . S
O6 C16 1.282 . S
C7 O8 1.261 . S
C7 O20 1.251 . S
O8 C7 1.261 . S
H9 C3 0.930 . S
H10 C5 0.930 . S
N11 Cu0 1.985 . S
N11 C13 1.335 . S
N11 C14 1.390 . S
N12 C13 1.345 . S
N12 C15 1.336 . S
C13 N11 1.335 . S
C13 N12 1.345 . S
C13 H18 0.930 . S
C14 N11 1.390 . S
C14 C15 1.346 . S
C14 H19 0.930 . S
C15 N12 1.336 . S
C15 C14 1.346 . S
C15 H22 0.929 . S
C16 O6 1.282 . S
C16 O17 1.216 . S
O17 C16 1.216 . S
H18 C13 0.930 . S
H19 C14 0.930 . S
O20 Cu0 1.959 . S
O20 C7 1.251 . S
H21 C4 0.930 . S
H22 C15 0.929 . S
Cu23 N24 1.999 . S
Cu23 O29 1.974 1_455 S
Cu23 N34 1.985 . S
Cu23 O43 1.959 . S
N24 Cu23 1.999 . S
N24 C26 1.263 . S
N24 C28 1.389 . S
N25 C26 1.358 . S
N25 C27 1.400 . S
C26 N24 1.263 . S
C26 N25 1.358 . S
C26 H32 0.930 1_455 S
C27 N25 1.400 . S
C27 C28 1.351 . S
C27 H44 0.930 . S
C28 N24 1.389 . S
C28 C27 1.351 . S
C28 H33 0.930 . S
O29 Cu23 1.974 1_655 S
O29 C39 1.282 . S
C30 O31 1.261 . S
C30 O43 1.251 . S
O31 C30 1.261 . S
H32 C26 0.930 1_655 S
H33 C28 0.930 . S
N34 Cu23 1.985 . S
N34 C36 1.335 . S
N34 C37 1.390 1_455 S
N35 C36 1.345 . S
N35 C38 1.336 1_455 S
C36 N34 1.335 . S
C36 N35 1.345 . S
C36 H41 0.930 . S
C37 N34 1.390 1_655 S
C37 C38 1.346 . S
C37 H42 0.930 . S
C38 N35 1.336 1_655 S
C38 C37 1.346 . S
C38 H45 0.929 . S
C39 O29 1.282 . S
C39 O40 1.216 . S
O40 C39 1.216 . S
H41 C36 0.930 . S
H42 C37 0.930 . S
O43 Cu23 1.959 . S
O43 C30 1.251 . S
H44 C27 0.930 . S
H45 C38 0.929 . S
Cu46 N47 1.999 . S
Cu46 O52 1.974 . S
Cu46 N57 1.985 . S
Cu46 O66 1.959 . S
N47 Cu46 1.999 . S
N47 C49 1.263 1_545 S
N47 C51 1.389 1_545 S
N48 C49 1.358 . S
N48 C50 1.400 . S
C49 N47 1.263 1_565 S
C49 N48 1.358 . S
C49 H55 0.930 1_455 S
C50 N48 1.400 . S
C50 C51 1.351 . S
C50 H67 0.930 . S
C51 N47 1.389 1_565 S
C51 C50 1.351 . S
C51 H56 0.930 . S
O52 Cu46 1.974 . S
O52 C62 1.282 1_455 S
C53 O54 1.261 . S
C53 O66 1.251 1_655 S
O54 C53 1.261 . S
H55 C49 0.930 1_655 S
H56 C51 0.930 . S
N57 Cu46 1.985 . S
N57 C59 1.335 . S
N57 C60 1.390 1_455 S
N58 C59 1.345 . S
N58 C61 1.336 1_455 S
C59 N57 1.335 . S
C59 N58 1.345 . S
C59 H64 0.930 . S
C60 N57 1.390 1_655 S
C60 C61 1.346 . S
C60 H65 0.930 . S
C61 N58 1.336 1_655 S
C61 C60 1.346 . S
C61 H68 0.929 . S
C62 O52 1.282 1_655 S
C62 O63 1.216 . S
O63 C62 1.216 . S
H64 C59 0.930 . S
H65 C60 0.930 . S
O66 Cu46 1.959 . S
O66 C53 1.251 1_455 S
H67 C50 0.930 . S
H68 C61 0.929 . S
Cu69 N70 1.999 . S
Cu69 O75 1.974 . S
Cu69 N80 1.985 . S
Cu69 O89 1.959 . S
N70 Cu69 1.999 . S
N70 C72 1.263 . S
N70 C74 1.389 . S
N71 C72 1.358 . S
N71 C73 1.400 . S
C72 N70 1.263 . S
C72 N71 1.358 . S
C72 H78 0.930 . S
C73 N71 1.400 . S
C73 C74 1.351 . S
C73 H90 0.930 . S
C74 N70 1.389 . S
C74 C73 1.351 . S
C74 H79 0.930 . S
O75 Cu69 1.974 . S
O75 C85 1.282 . S
C76 O77 1.261 1_645 S
C76 O89 1.251 1_655 S
O77 C76 1.261 1_465 S
H78 C72 0.930 . S
H79 C74 0.930 . S
N80 Cu69 1.985 . S
N80 C82 1.335 . S
N80 C83 1.390 . S
N81 C82 1.345 . S
N81 C84 1.336 . S
C82 N80 1.335 . S
C82 N81 1.345 . S
C82 H87 0.930 . S
C83 N80 1.390 . S
C83 C84 1.346 . S
C83 H88 0.930 . S
C84 N81 1.336 . S
C84 C83 1.346 . S
C84 H91 0.929 . S
C85 O75 1.282 . S
C85 O86 1.216 1_545 S
O86 C85 1.216 1_565 S
H87 C82 0.930 . S
H88 C83 0.930 . S
O89 Cu69 1.959 . S
O89 C76 1.251 1_455 S
H90 C73 0.930 . S
H91 C84 0.929 . S
C92 C93 1.386 . S
C92 C94 1.383 . S
C92 H108 0.951 . S
C93 C92 1.386 . S
C93 C97 1.383 . S
C94 C92 1.383 . S
C94 C95 1.402 . S
C94 H109 0.951 . S
C95 C94 1.402 . S
C95 C96 1.375 . S
C95 C98 1.481 . S
C96 C95 1.375 . S
C96 C97 1.367 . S
C96 H110 0.951 . S
C97 C93 1.383 . S
C97 C96 1.367 . S
C97 H111 0.950 . S
C98 C95 1.481 . S
C98 C99 1.297 . S
C98 H112 0.950 . S
C99 C98 1.297 . S
C99 C100 1.479 . S
C99 H113 0.950 . S
C100 C99 1.479 . S
C100 C101 1.375 . S
C100 C106 1.404 . S
C101 C100 1.375 . S
C101 C102 1.369 . S
C101 H114 0.950 . S
C102 C101 1.369 . S
C102 C103 1.392 . S
C102 H115 0.951 . S
C103 C102 1.392 . S
C103 C105 1.384 . S
H104 C106 0.949 . S
C105 C103 1.384 . S
C105 C106 1.385 . S
C105 H107 0.950 . S
C106 C100 1.404 . S
C106 H104 0.949 . S
C106 C105 1.385 . S
H107 C105 0.950 . S
H108 C92 0.951 . S
H109 C94 0.951 . S
H110 C96 0.951 . S
H111 C97 0.950 . S
H112 C98 0.950 . S
H113 C99 0.950 . S
H114 C101 0.950 . S
H115 C102 0.951 . S
C116 C117 1.386 . S
C116 C118 1.383 . S
C116 H132 0.951 . S
C117 C116 1.386 . S
C117 C121 1.383 . S
C118 C116 1.383 . S
C118 C119 1.402 . S
C118 H133 0.951 . S
C119 C118 1.402 . S
C119 C120 1.375 . S
C119 C122 1.481 . S
C120 C119 1.375 . S
C120 C121 1.367 . S
C120 H134 0.951 . S
C121 C117 1.383 . S
C121 C120 1.367 . S
C121 H135 0.950 . S
C122 C119 1.481 . S
C122 C123 1.297 . S
C122 H136 0.950 . S
C123 C122 1.297 . S
C123 C124 1.479 . S
C123 H137 0.950 . S
C124 C123 1.479 . S
C124 C125 1.375 . S
C124 C130 1.404 . S
C125 C124 1.375 . S
C125 C126 1.369 . S
C125 H138 0.950 . S
C126 C125 1.369 . S
C126 C127 1.392 . S
C126 H139 0.951 . S
C127 C126 1.392 . S
C127 C129 1.384 . S
H128 C130 0.949 . S
C129 C127 1.384 . S
C129 C130 1.385 . S
C129 H131 0.950 . S
C130 C124 1.404 . S
C130 H128 0.949 . S
C130 C129 1.385 . S
H131 C129 0.950 . S
H132 C116 0.951 . S
H133 C118 0.951 . S
H134 C120 0.951 . S
H135 C121 0.950 . S
H136 C122 0.950 . S
H137 C123 0.950 . S
H138 C125 0.950 . S
H139 C126 0.951 . S
C140 C141 1.386 . S
C140 C142 1.383 . S
C140 H156 0.951 . S
C141 C140 1.386 . S
C141 C145 1.383 1_455 S
C142 C140 1.383 . S
C142 C143 1.402 . S
C142 H157 0.951 . S
C143 C142 1.402 . S
C143 C144 1.375 1_455 S
C143 C146 1.481 . S
C144 C143 1.375 1_655 S
C144 C145 1.367 . S
C144 H158 0.951 . S
C145 C141 1.383 1_655 S
C145 C144 1.367 . S
C145 H159 0.950 . S
C146 C143 1.481 . S
C146 C147 1.301 . S
C146 H160 0.946 1_455 S
C147 C146 1.301 . S
C147 C148 1.479 . S
C147 H161 0.950 . S
C148 C147 1.479 . S
C148 C149 1.375 . S
C148 C154 1.404 1_455 S
C149 C148 1.375 . S
C149 C150 1.369 . S
C149 H162 0.950 . S
C150 C149 1.369 . S
C150 C151 1.392 . S
C150 H163 0.951 . S
C151 C150 1.392 . S
C151 C153 1.384 1_455 S
H152 C154 0.949 . S
C153 C151 1.384 1_655 S
C153 C154 1.385 . S
C153 H155 0.950 . S
C154 C148 1.404 1_655 S
C154 H152 0.949 . S
C154 C153 1.385 . S
H155 C153 0.950 . S
H156 C140 0.951 . S
H157 C142 0.951 . S
H158 C144 0.951 . S
H159 C145 0.950 . S
H160 C146 0.946 1_655 S
H161 C147 0.950 . S
H162 C149 0.950 . S
H163 C150 0.951 . S
C164 C165 1.386 . S
C164 C166 1.383 . S
C164 H180 0.951 . S
C165 C164 1.386 . S
C165 C169 1.383 1_545 S
C166 C164 1.383 . S
C166 C167 1.402 1_545 S
C166 H181 0.951 . S
C167 C166 1.402 1_565 S
C167 C168 1.375 . S
C167 C170 1.481 . S
C168 C167 1.375 . S
C168 C169 1.367 . S
C168 H182 0.951 . S
C169 C165 1.383 1_565 S
C169 C168 1.367 . S
C169 H183 0.950 . S
C170 C167 1.481 . S
C170 C171 1.297 . S
C170 H184 0.950 . S
C171 C170 1.297 . S
C171 C172 1.479 . S
C171 H185 0.950 . S
C172 C171 1.479 . S
C172 C173 1.375 1_565 S
C172 C178 1.404 . S
C173 C172 1.375 1_545 S
C173 C174 1.369 . S
C173 H186 0.950 . S
C174 C173 1.369 . S
C174 C175 1.392 . S
C174 H187 0.951 . S
C175 C174 1.392 . S
C175 C177 1.384 1_545 S
H176 C178 0.949 . S
C177 C175 1.384 1_565 S
C177 C178 1.385 . S
C177 H179 0.950 . S
C178 C172 1.404 . S
C178 H176 0.949 . S
C178 C177 1.385 . S
H179 C177 0.950 . S
H180 C164 0.951 . S
H181 C166 0.951 . S
H182 C168 0.951 . S
H183 C169 0.950 . S
H184 C170 0.950 . S
H185 C171 0.950 . S
H186 C173 0.950 . S
H187 C174 0.951 . S
C188 C189 1.386 1_655 S
C188 C190 1.383 . S
C188 H204 0.951 . S
C189 C188 1.386 1_455 S
C189 C193 1.383 . S
C190 C188 1.383 . S
C190 C191 1.402 1_655 S
C190 H205 0.951 . S
C191 C190 1.402 1_455 S
C191 C192 1.375 . S
C191 C194 1.481 . S
C192 C191 1.375 . S
C192 C193 1.367 . S
C192 H206 0.951 . S
C193 C189 1.383 . S
C193 C192 1.367 . S
C193 H207 0.950 . S
C194 C191 1.481 . S
C194 C195 1.297 1_556 S
C194 H208 0.950 . S
C195 C194 1.297 1_554 S
C195 C196 1.479 . S
C195 H209 0.950 1_455 S
C196 C195 1.479 . S
C196 C197 1.375 . S
C196 C202 1.404 . S
C197 C196 1.375 . S
C197 C198 1.369 . S
C197 H210 0.950 1_455 S
C198 C197 1.369 . S
C198 C199 1.392 . S
C198 H211 0.951 . S
C199 C198 1.392 . S
C199 C201 1.384 . S
H200 C202 0.949 . S
C201 C199 1.384 . S
C201 C202 1.385 . S
C201 H203 0.950 . S
C202 C196 1.404 . S
C202 H200 0.949 . S
C202 C201 1.385 . S
H203 C201 0.950 . S
H204 C188 0.951 . S
H205 C190 0.951 . S
H206 C192 0.951 . S
H207 C193 0.950 . S
H208 C194 0.950 . S
H209 C195 0.950 1_655 S
H210 C197 0.950 1_655 S
H211 C198 0.951 . S
C212 C213 1.386 . S
C212 C214 1.383 . S
C212 H228 0.951 . S
C213 C212 1.386 . S
C213 C217 1.383 . S
C214 C212 1.383 . S
C214 C215 1.402 . S
C214 H229 0.951 . S
C215 C214 1.402 . S
C215 C216 1.375 . S
C215 C218 1.481 . S
C216 C215 1.375 . S
C216 C217 1.367 . S
C216 H230 0.951 1_545 S
C217 C213 1.383 . S
C217 C216 1.367 . S
C217 H231 0.950 1_545 S
C218 C215 1.481 . S
C218 C219 1.297 . S
C218 H232 0.950 . S
C219 C218 1.297 . S
C219 C220 1.479 . S
C219 H233 0.950 . S
C220 C219 1.479 . S
C220 C221 1.375 . S
C220 C226 1.404 . S
C221 C220 1.375 . S
C221 C222 1.369 . S
C221 H234 0.950 1_455 S
C222 C221 1.369 . S
C222 C223 1.392 . S
C222 H235 0.951 . S
C223 C222 1.392 . S
C223 C225 1.384 . S
H224 C226 0.949 . S
C225 C223 1.384 . S
C225 C226 1.385 . S
C225 H227 0.950 . S
C226 C220 1.404 . S
C226 H224 0.949 . S
C226 C225 1.385 . S
H227 C225 0.950 . S
H228 C212 0.951 . S
H229 C214 0.951 . S
H230 C216 0.951 1_565 S
H231 C217 0.950 1_565 S
H232 C218 0.950 . S
H233 C219 0.950 . S
H234 C221 0.950 1_655 S
H235 C222 0.951 . S
C236 C237 1.386 . S
C236 C238 1.383 . S
C236 H252 0.951 . S
C237 C236 1.386 . S
C237 C241 1.383 1_545 S
C238 C236 1.383 . S
C238 C239 1.402 . S
C238 H253 0.951 . S
C239 C238 1.402 . S
C239 C240 1.375 1_545 S
C239 C242 1.481 . S
C240 C239 1.375 1_565 S
C240 C241 1.367 . S
C240 H254 0.951 . S
C241 C237 1.383 1_565 S
C241 C240 1.367 . S
C241 H255 0.950 . S
C242 C239 1.481 . S
C242 C243 1.297 . S
C242 H256 0.950 1_545 S
C243 C242 1.297 . S
C243 C244 1.479 . S
C243 H257 0.950 . S
C244 C243 1.479 . S
C244 C245 1.375 . S
C244 C250 1.404 . S
C245 C244 1.375 . S
C245 C246 1.369 . S
C245 H258 0.950 . S
C246 C245 1.369 . S
C246 C247 1.392 . S
C246 H259 0.951 . S
C247 C246 1.392 . S
C247 C249 1.384 . S
H248 C250 0.949 1_565 S
C249 C247 1.384 . S
C249 C250 1.385 . S
C249 H251 0.950 1_545 S
C250 C244 1.404 . S
C250 H248 0.949 1_545 S
C250 C249 1.385 . S
H251 C249 0.950 1_565 S
H252 C236 0.951 . S
H253 C238 0.951 . S
H254 C240 0.951 . S
H255 C241 0.950 . S
H256 C242 0.950 1_565 S
H257 C243 0.950 . S
H258 C245 0.950 . S
H259 C246 0.951 . S
C260 C261 1.386 . S
C260 C262 1.383 1_455 S
C260 H276 0.951 . S
C261 C260 1.386 . S
C261 C265 1.383 . S
C262 C260 1.383 1_655 S
C262 C263 1.402 1_655 S
C262 H277 0.951 . S
C263 C262 1.402 1_455 S
C263 C264 1.375 . S
C263 C266 1.481 1_455 S
C264 C263 1.375 . S
C264 C265 1.367 . S
C264 H278 0.951 . S
C265 C261 1.383 . S
C265 C264 1.367 . S
C265 H279 0.950 . S
C266 C263 1.481 1_655 S
C266 C267 1.297 . S
C266 H280 0.950 1_655 S
C267 C266 1.297 . S
C267 C268 1.479 . S
C267 H281 0.950 . S
C268 C267 1.479 . S
C268 C269 1.375 . S
C268 C274 1.404 . S
C269 C268 1.375 . S
C269 C270 1.369 . S
C269 H282 0.950 . S
C270 C269 1.369 . S
C270 C271 1.392 . S
C270 H283 0.951 . S
C271 C270 1.392 . S
C271 C273 1.384 . S
H272 C274 0.949 . S
C273 C271 1.384 . S
C273 C274 1.385 . S
C273 H275 0.950 . S
C274 C268 1.404 . S
C274 H272 0.949 . S
C274 C273 1.385 . S
H275 C273 0.950 . S
H276 C260 0.951 . S
H277 C262 0.951 . S
H278 C264 0.951 . S
H279 C265 0.950 . S
H280 C266 0.950 1_455 S
H281 C267 0.950 . S
H282 C269 0.950 . S
H283 C270 0.951 . S
C93 N12 1.448 . S
C103 N2 1.476 . S
C117 C30 1.476 . S
C127 C39 1.485 . S
C141 N58 1.473 . S
C151 N48 1.404 . S
C165 C85 1.470 . S
C175 C76 1.475 . S
C189 C62 1.555 1_455 S
C199 C7 1.521 . S
C213 N81 1.504 . S
C223 N35 1.436 . S
C237 N71 1.473 . S
C247 C16 1.501 . S
C261 N25 1.578 . S
C271 C53 1.584 . S
