# Generated by pormake.
# Topology wjd, (6)-cn, num edge types: 1
# Building blocks:
#     Node 0, Type 0, BuildingBlock: PAMTUU_clean_sbu_0, # of connection points: 6
#     Node 1, Type 0, BuildingBlock: PAMTUU_clean_sbu_0, # of connection points: 6
#     Node 2, Type 0, BuildingBlock: PAMTUU_clean_sbu_0, # of connection points: 6
#     Node 3, Type 0, BuildingBlock: PAMTUU_clean_sbu_0, # of connection points: 6
#     Node 4, Type 0, BuildingBlock: PAMTUU_clean_sbu_0, # of connection points: 6
#     Node 5, Type 0, BuildingBlock: PAMTUU_clean_sbu_0, # of connection points: 6
#     Node 6, Type 0, BuildingBlock: PAMTUU_clean_sbu_0, # of connection points: 6
#     Node 7, Type 0, BuildingBlock: PAMTUU_clean_sbu_0, # of connection points: 6
#     Node 8, Type 0, BuildingBlock: PAMTUU_clean_sbu_0, # of connection points: 6
#     Node 9, Type 0, BuildingBlock: PAMTUU_clean_sbu_0, # of connection points: 6
#     Node 10, Type 0, BuildingBlock: PAMTUU_clean_sbu_0, # of connection points: 6
#     Node 11, Type 0, BuildingBlock: PAMTUU_clean_sbu_0, # of connection points: 6
#     Edge 12, Type (0, 0), BuildingBlock: UVAHIK_clean_linker_0, # of connection points: 2
#     Edge 13, Type (0, 0), BuildingBlock: UVAHIK_clean_linker_0, # of connection points: 2
#     Edge 14, Type (0, 0), BuildingBlock: UVAHIK_clean_linker_0, # of connection points: 2
#     Edge 15, Type (0, 0), BuildingBlock: UVAHIK_clean_linker_0, # of connection points: 2
#     Edge 16, Type (0, 0), BuildingBlock: UVAHIK_clean_linker_0, # of connection points: 2
#     Edge 17, Type (0, 0), BuildingBlock: UVAHIK_clean_linker_0, # of connection points: 2
#     Edge 18, Type (0, 0), BuildingBlock: UVAHIK_clean_linker_0, # of connection points: 2
#     Edge 19, Type (0, 0), BuildingBlock: UVAHIK_clean_linker_0, # of connection points: 2
#     Edge 20, Type (0, 0), BuildingBlock: UVAHIK_clean_linker_0, # of connection points: 2
#     Edge 21, Type (0, 0), BuildingBlock: UVAHIK_clean_linker_0, # of connection points: 2
#     Edge 22, Type (0, 0), BuildingBlock: UVAHIK_clean_linker_0, # of connection points: 2
#     Edge 23, Type (0, 0), BuildingBlock: UVAHIK_clean_linker_0, # of connection points: 2
#     Edge 24, Type (0, 0), BuildingBlock: UVAHIK_clean_linker_0, # of connection points: 2
#     Edge 25, Type (0, 0), BuildingBlock: UVAHIK_clean_linker_0, # of connection points: 2
#     Edge 26, Type (0, 0), BuildingBlock: UVAHIK_clean_linker_0, # of connection points: 2
#     Edge 27, Type (0, 0), BuildingBlock: UVAHIK_clean_linker_0, # of connection points: 2
#     Edge 28, Type (0, 0), BuildingBlock: UVAHIK_clean_linker_0, # of connection points: 2
#     Edge 29, Type (0, 0), BuildingBlock: UVAHIK_clean_linker_0, # of connection points: 2
#     Edge 30, Type (0, 0), BuildingBlock: UVAHIK_clean_linker_0, # of connection points: 2
#     Edge 31, Type (0, 0), BuildingBlock: UVAHIK_clean_linker_0, # of connection points: 2
#     Edge 32, Type (0, 0), BuildingBlock: UVAHIK_clean_linker_0, # of connection points: 2
#     Edge 33, Type (0, 0), BuildingBlock: UVAHIK_clean_linker_0, # of connection points: 2
#     Edge 34, Type (0, 0), BuildingBlock: UVAHIK_clean_linker_0, # of connection points: 2
#     Edge 35, Type (0, 0), BuildingBlock: UVAHIK_clean_linker_0, # of connection points: 2
#     Edge 36, Type (0, 0), BuildingBlock: UVAHIK_clean_linker_0, # of connection points: 2
#     Edge 37, Type (0, 0), BuildingBlock: UVAHIK_clean_linker_0, # of connection points: 2
#     Edge 38, Type (0, 0), BuildingBlock: UVAHIK_clean_linker_0, # of connection points: 2
#     Edge 39, Type (0, 0), BuildingBlock: UVAHIK_clean_linker_0, # of connection points: 2
#     Edge 40, Type (0, 0), BuildingBlock: UVAHIK_clean_linker_0, # of connection points: 2
#     Edge 41, Type (0, 0), BuildingBlock: UVAHIK_clean_linker_0, # of connection points: 2
#     Edge 42, Type (0, 0), BuildingBlock: UVAHIK_clean_linker_0, # of connection points: 2
#     Edge 43, Type (0, 0), BuildingBlock: UVAHIK_clean_linker_0, # of connection points: 2
#     Edge 44, Type (0, 0), BuildingBlock: UVAHIK_clean_linker_0, # of connection points: 2
#     Edge 45, Type (0, 0), BuildingBlock: UVAHIK_clean_linker_0, # of connection points: 2
#     Edge 46, Type (0, 0), BuildingBlock: UVAHIK_clean_linker_0, # of connection points: 2
#     Edge 47, Type (0, 0), BuildingBlock: UVAHIK_clean_linker_0, # of connection points: 2
# Relax obj value: 0.083
# Max RMSD: 0.199
# Mean RMSD: 0.199
data_MOF--net-wjd--node1-PAMTUU_clean_sbu_0--edge1-UVAHIK_clean_linker_0
_symmetry_space_group_name_H-M    P1
_symmetry_Int_Tables_number       1
_symmetry_cell_setting            triclinic
loop_
_symmetry_equiv_pos_as_xyz
'x, y, z'
_cell_length_a     48.880069
_cell_length_b     48.903777
_cell_length_c     70.408771
_cell_angle_alpha  89.800153
_cell_angle_beta   90.119006
_cell_angle_gamma 120.11966
loop_
_atom_site_label
_atom_site_type_symbol
_atom_site_fract_x
_atom_site_fract_y
_atom_site_fract_z
_atom_type_partial_charge
Tb0 Tb 0.32678 0.10449 0.13583 0.0
Tb1 Tb 0.36609 0.17577 0.1173 0.0
C2 C 0.36608 0.1627 0.16155 0.0
C3 C 0.25794 0.02516 0.14488 0.0
C4 C 0.1928 0.98204 0.13884 0.0
C5 C 0.20327 0.99935 0.15582 0.0
C6 C 0.23547 0.02054 0.15884 0.0
C7 C 0.2475 1.00755 0.12799 0.0
C8 C 0.21534 0.98627 0.12501 0.0
C9 C 0.29188 0.04882 0.14782 0.0
O10 O 0.2992 0.12786 0.1403 0.0
O11 O 0.31631 0.16049 0.11441 0.0
O12 O 0.35417 0.14145 0.09413 0.0
O13 O 0.30906 0.10192 0.10743 0.0
O14 O 0.37181 0.22124 0.11486 0.0
O15 O 0.40159 0.20847 0.09913 0.0
O16 O 0.40164 0.16561 0.12767 0.0
O17 O 0.37277 0.11136 0.12661 0.0
O18 O 0.35843 0.13338 0.15806 0.0
O19 O 0.36488 0.18118 0.14826 0.0
C20 C 0.29549 0.14588 0.1279 0.0
O21 O 0.31045 0.05596 0.1331 0.0
O22 O 0.29797 0.07397 0.1575 0.0
C23 C 0.32726 0.11453 0.09262 0.0
C24 C 0.42414 0.26192 0.10882 0.0
C25 C 0.47706 0.32149 0.11763 0.0
C26 C 0.45182 0.3193 0.10679 0.0
C27 C 0.42569 0.28983 0.10243 0.0
C28 C 0.44905 0.26385 0.11983 0.0
C29 C 0.47533 0.29337 0.12413 0.0
C30 C 0.39636 0.23124 0.1038 0.0
C31 C 0.40014 0.13808 0.127 0.0
H32 H 0.18658 0.99631 0.16687 0.0
H33 H 0.24275 0.03353 0.17207 0.0
H34 H 0.26409 1.0104 0.11691 0.0
H35 H 0.20807 0.97353 0.1117 0.0
H36 H 0.45251 0.34038 0.10135 0.0
H37 H 0.40671 0.28884 0.09392 0.0
H38 H 0.44822 0.24257 0.12505 0.0
H39 H 0.49418 0.29421 0.13268 0.0
Tb40 Tb 0.82922 0.65841 0.40246 0.0
Tb41 Tb 0.79847 0.70108 0.38714 0.0
C42 C 0.79505 0.68238 0.42879 0.0
C43 C 0.85574 0.59867 0.40952 0.0
C44 C 0.86207 0.54632 0.39925 0.0
C45 C 0.88545 0.57105 0.41018 0.0
C46 C 0.88227 0.5969 0.41527 0.0
C47 C 0.8322 0.57408 0.39864 0.0
C48 C 0.83526 0.548 0.39362 0.0
C49 C 0.8541 0.62703 0.41451 0.0
O50 O 0.77968 0.62448 0.39769 0.0
O51 O 0.76236 0.65275 0.37975 0.0
O52 O 0.82728 0.69897 0.36445 0.0
O53 O 0.82366 0.6515 0.37173 0.0
O54 O 0.77783 0.72781 0.39514 0.0
O55 O 0.78581 0.72277 0.36557 0.0
O56 O 0.84466 0.73478 0.39912 0.0
O57 O 0.8685 0.70488 0.39632 0.0
O58 O 0.82151 0.68189 0.42672 0.0
O59 O 0.77763 0.6789 0.41394 0.0
C60 C 0.75836 0.62601 0.38698 0.0
O61 O 0.86764 0.65053 0.40261 0.0
O62 O 0.8271 0.62301 0.42055 0.0
C63 C 0.82848 0.67377 0.35938 0.0
C64 C 0.79198 0.7718 0.37557 0.0
C65 C 0.81557 0.83766 0.37442 0.0
C66 C 0.78767 0.81663 0.36464 0.0
C67 C 0.77598 0.78401 0.36524 0.0
C68 C 0.8204 0.7927 0.3848 0.0
C69 C 0.83212 0.82531 0.38422 0.0
C70 C 0.77774 0.73735 0.37786 0.0
C71 C 0.87018 0.73224 0.39855 0.0
H72 H 0.90612 0.5703 0.41498 0.0
H73 H 0.90071 0.61569 0.42363 0.0
H74 H 0.81166 0.57518 0.3939 0.0
H75 H 0.81696 0.52945 0.38507 0.0
H76 H 0.77461 0.82536 0.35669 0.0
H77 H 0.75403 0.76826 0.35802 0.0
H78 H 0.83297 0.78372 0.39298 0.0
H79 H 0.85345 0.8407 0.39207 0.0
Tb80 Tb 0.92332 0.23086 0.13172 0.0
Tb81 Tb 0.85127 0.19639 0.1138 0.0
C82 C 0.8628 0.20126 0.15758 0.0
C83 C 1.00195 0.24204 0.14357 0.0
C84 C 0.0465 0.22144 0.14275 0.0
C85 C 0.04825 0.24268 0.15678 0.0
C86 C 0.0262 0.25298 0.15713 0.0
C87 C 0.99962 0.22014 0.12987 0.0
C88 C 0.02178 0.21007 0.12941 0.0
C89 C 0.97956 0.25389 0.14351 0.0
O90 O 0.91391 0.18497 0.12108 0.0
O91 O 0.8599 0.15929 0.1231 0.0
O92 O 0.88475 0.20223 0.09122 0.0
O93 O 0.92455 0.24798 0.10317 0.0
O94 O 0.80503 0.15775 0.1134 0.0
O95 O 0.81986 0.1955 0.09294 0.0
O96 O 0.86597 0.24608 0.11606 0.0
O97 O 0.90787 0.26496 0.13722 0.0
O98 O 0.89048 0.20391 0.15431 0.0
O99 O 0.84599 0.20393 0.14383 0.0
C100 C 0.88637 0.15875 0.12206 0.0
O101 O 0.97198 0.2596 0.12684 0.0
O102 O 0.95482 0.23897 0.15436 0.0
C103 C 0.9115 0.22886 0.08885 0.0
C104 C 0.76596 0.16841 0.10217 0.0
C105 C 0.70597 0.1624 0.10793 0.0
C106 C 0.71124 0.14727 0.09258 0.0
C107 C 0.74092 0.15024 0.08976 0.0
C108 C 0.76114 0.18402 0.11737 0.0
C109 C 0.73139 0.18108 0.1202 0.0
C110 C 0.79627 0.16932 0.09953 0.0
C111 C 0.88611 0.26786 0.12777 0.0
H112 H 0.06716 0.25198 0.16716 0.0
H113 H 0.02832 0.26981 0.16783 0.0
H114 H 0.9809 0.21113 0.11937 0.0
H115 H 0.01959 0.19338 0.1186 0.0
H116 H 0.69243 0.13318 0.08266 0.0
H117 H 0.74422 0.13802 0.07796 0.0
H118 H 0.78022 0.19804 0.12716 0.0
H119 H 0.72813 0.19286 0.13225 0.0
Tb120 Tb 0.36938 0.17593 0.40477 0.0
Tb121 Tb 0.3288 0.10413 0.38747 0.0
C122 C 0.33268 0.11579 0.43056 0.0
C123 C 0.42712 0.26241 0.41168 0.0
C124 C 0.47825 0.32203 0.401 0.0
C125 C 0.45522 0.31974 0.41388 0.0
C126 C 0.42996 0.29023 0.41917 0.0
C127 C 0.44981 0.26444 0.39868 0.0
C128 C 0.47523 0.294 0.39344 0.0
C129 C 0.40018 0.23173 0.41755 0.0
O130 O 0.4043 0.16548 0.39365 0.0
O131 O 0.37542 0.11126 0.39553 0.0
O132 O 0.35906 0.13249 0.36449 0.0
O133 O 0.3663 0.18065 0.37391 0.0
O134 O 0.31113 0.05543 0.39113 0.0
O135 O 0.30023 0.07338 0.36594 0.0
O136 O 0.30071 0.12708 0.38353 0.0
O137 O 0.31976 0.16074 0.40878 0.0
O138 O 0.35964 0.14231 0.42813 0.0
O139 O 0.31316 0.10248 0.41637 0.0
C140 C 0.40277 0.13793 0.3944 0.0
O141 O 0.37465 0.22115 0.40731 0.0
O142 O 0.4063 0.20937 0.42183 0.0
C143 C 0.36657 0.16173 0.36069 0.0
C144 C 0.25999 0.02528 0.37835 0.0
C145 C 0.19503 0.98101 0.38301 0.0
C146 C 0.21477 0.97316 0.37267 0.0
C147 C 0.24695 0.99511 0.37037 0.0
C148 C 0.2405 0.03335 0.38864 0.0
C149 C 0.20829 1.01143 0.39093 0.0
C150 C 0.29382 0.04828 0.37582 0.0
C151 C 0.29799 0.1457 0.39585 0.0
H152 H 0.457 0.34076 0.42017 0.0
H153 H 0.41265 0.28913 0.4292 0.0
H154 H 0.44788 0.24321 0.39261 0.0
H155 H 0.49236 0.29493 0.38334 0.0
H156 H 0.20528 0.95013 0.36614 0.0
H157 H 0.26163 0.98854 0.36231 0.0
H158 H 0.25023 0.0566 0.39492 0.0
H159 H 0.1939 0.01816 0.39914 0.0
Tb160 Tb 0.79707 0.70213 0.12992 0.0
Tb161 Tb 0.83087 0.66252 0.11489 0.0
C162 C 0.82742 0.67524 0.15792 0.0
C163 C 0.789 0.77135 0.14147 0.0
C164 C 0.8135 0.83731 0.14323 0.0
C165 C 0.78595 0.81631 0.15334 0.0
C166 C 0.77381 0.78361 0.15244 0.0
C167 C 0.81699 0.79222 0.13183 0.0
C168 C 0.82914 0.82485 0.1327 0.0
C169 C 0.77475 0.7369 0.13923 0.0
O170 O 0.84352 0.73764 0.11911 0.0
O171 O 0.86916 0.70929 0.12152 0.0
O172 O 0.82512 0.68829 0.09108 0.0
O173 O 0.77905 0.68221 0.10222 0.0
O174 O 0.8683 0.65328 0.11641 0.0
O175 O 0.83209 0.63116 0.09496 0.0
O176 O 0.78108 0.62747 0.11767 0.0
O177 O 0.76193 0.65301 0.1364 0.0
O178 O 0.82561 0.70019 0.15295 0.0
O179 O 0.82358 0.65367 0.14541 0.0
C180 C 0.86966 0.73619 0.11971 0.0
O181 O 0.77485 0.7275 0.12197 0.0
O182 O 0.78308 0.72241 0.15151 0.0
C183 C 0.79829 0.68762 0.08807 0.0
C184 C 0.85735 0.60335 0.1056 0.0
C185 C 0.86063 0.54802 0.11188 0.0
C186 C 0.87953 0.57011 0.09793 0.0
C187 C 0.87786 0.59744 0.09483 0.0
C188 C 0.83833 0.58152 0.11955 0.0
C189 C 0.83997 0.55403 0.12267 0.0
C190 C 0.85741 0.6331 0.10249 0.0
C191 C 0.75888 0.62726 0.12835 0.0
H192 H 0.77357 0.82511 0.16182 0.0
H193 H 0.75222 0.7679 0.16002 0.0
H194 H 0.82898 0.78326 0.12315 0.0
H195 H 0.85013 0.84021 0.12454 0.0
H196 H 0.89608 0.56658 0.08958 0.0
H197 H 0.89292 0.61422 0.08413 0.0
H198 H 0.82242 0.58582 0.12804 0.0
H199 H 0.82487 0.53739 0.1334 0.0
Tb200 Tb 0.85672 0.20086 0.40037 0.0
Tb201 Tb 0.92692 0.23078 0.37978 0.0
C202 C 0.9201 0.22977 0.42386 0.0
C203 C 0.77212 0.17523 0.41338 0.0
C204 C 0.7113 0.16757 0.40802 0.0
C205 C 0.7181 0.15497 0.42416 0.0
C206 C 0.74817 0.15876 0.42678 0.0
C207 C 0.76581 0.18843 0.3974 0.0
C208 C 0.73566 0.1847 0.39477 0.0
C209 C 0.8027 0.17658 0.4159 0.0
O210 O 0.87502 0.25124 0.39798 0.0
O211 O 0.91196 0.26533 0.37403 0.0
O212 O 0.89117 0.20407 0.35862 0.0
O213 O 0.84881 0.20674 0.37037 0.0
O214 O 0.97518 0.26526 0.37824 0.0
O215 O 0.95465 0.2266 0.35849 0.0
O216 O 0.91721 0.18614 0.39262 0.0
O217 O 0.86324 0.16204 0.39181 0.0
O218 O 0.89052 0.20656 0.42282 0.0
O219 O 0.93485 0.24666 0.40889 0.0
C220 C 0.89327 0.27101 0.38476 0.0
O221 O 0.81031 0.16287 0.40282 0.0
O222 O 0.82684 0.20358 0.42092 0.0
C223 C 0.86369 0.20224 0.35624 0.0
C224 C 1.00623 0.24314 0.36875 0.0
C225 C 0.05272 0.22587 0.37466 0.0
C226 C 0.05135 0.23977 0.35742 0.0
C227 C 0.02831 0.24835 0.35451 0.0
C228 C 1.00757 0.22947 0.38604 0.0
C229 C 0.03072 0.22105 0.38901 0.0
C230 C 0.98075 0.25016 0.365 0.0
C231 C 0.88921 0.16047 0.39266 0.0
H232 H 0.70015 0.14215 0.43481 0.0
H233 H 0.7526 0.1484 0.4392 0.0
H234 H 0.784 0.20109 0.38684 0.0
H235 H 0.7312 0.19452 0.38212 0.0
H236 H 0.06816 0.24411 0.34618 0.0
H237 H 0.0275 0.25869 0.34104 0.0
H238 H 0.99044 0.22488 0.39713 0.0
H239 H 0.03091 0.21007 0.40236 0.0
Tb240 Tb 0.17577 0.35843 0.61715 0.0
Tb241 Tb 0.10668 0.31789 0.63903 0.0
C242 C 0.11157 0.32066 0.59432 0.0
C243 C 0.26036 0.41857 0.60443 0.0
C244 C 0.32124 0.47154 0.6103 0.0
C245 C 0.31455 0.45273 0.59397 0.0
C246 C 0.28446 0.42656 0.59109 0.0
C247 C 0.26656 0.43749 0.62061 0.0
C248 C 0.29674 0.46384 0.6235 0.0
C249 C 0.22977 0.38937 0.60164 0.0
O250 O 0.15417 0.38768 0.61726 0.0
O251 O 0.12184 0.36793 0.64335 0.0
O252 O 0.14394 0.3268 0.659 0.0
O253 O 0.18377 0.37325 0.64696 0.0
O254 O 0.05884 0.30483 0.64222 0.0
O255 O 0.08059 0.28655 0.66106 0.0
O256 O 0.11543 0.28239 0.62639 0.0
O257 O 0.16951 0.31252 0.6245 0.0
O258 O 0.14206 0.33019 0.59477 0.0
O259 O 0.09599 0.32049 0.60951 0.0
C260 C 0.1378 0.3908 0.63097 0.0
O261 O 0.22225 0.36734 0.61434 0.0
O262 O 0.20557 0.39234 0.59701 0.0
C263 C 0.17047 0.35353 0.66123 0.0
C264 C 0.02807 0.25174 0.65234 0.0
C265 C 0.98081 0.18781 0.64761 0.0
C266 C 0.98329 0.2037 0.66472 0.0
C267 C 1.00671 0.23539 0.66704 0.0
C268 C 0.02557 0.23613 0.63517 0.0
C269 C 1.00205 0.2045 0.63278 0.0
C270 C 0.05414 0.28425 0.65547 0.0
C271 C 0.14338 0.28494 0.62463 0.0
H272 H 0.33262 0.45824 0.58336 0.0
H273 H 0.28012 0.41221 0.57852 0.0
H274 H 0.24827 0.43156 0.63114 0.0
H275 H 0.30112 0.47766 0.63629 0.0
H276 H 0.96711 0.19163 0.67633 0.0
H277 H 1.00843 0.247 0.68044 0.0
H278 H 0.04216 0.24825 0.62373 0.0
H279 H 1.00103 0.19287 0.61952 0.0
Tb280 Tb 0.23537 0.92039 0.88704 0.0
Tb281 Tb 0.2034 0.84834 0.90489 0.0
C282 C 0.20523 0.86048 0.86122 0.0
C283 C 0.24306 0.99742 0.87421 0.0
C284 C 0.21996 0.04006 0.87358 0.0
C285 C 0.24607 0.04555 0.86234 0.0
C286 C 0.25751 0.02442 0.86268 0.0
C287 C 0.21649 0.99136 0.88504 0.0
C288 C 0.20502 0.01242 0.88472 0.0
C289 C 0.2568 0.9767 0.87578 0.0
O290 O 0.18949 0.90967 0.89846 0.0
O291 O 0.16478 0.85565 0.89717 0.0
O292 O 0.21056 0.88134 0.92798 0.0
O293 O 0.25484 0.92141 0.91478 0.0
O294 O 0.16488 0.80199 0.90578 0.0
O295 O 0.20479 0.81641 0.92446 0.0
O296 O 0.25327 0.86432 0.90167 0.0
O297 O 0.2703 0.90624 0.88066 0.0
O298 O 0.20672 0.88748 0.86498 0.0
O299 O 0.20978 0.84422 0.87454 0.0
C300 C 0.16364 0.8818 0.89813 0.0
O301 O 0.2597 0.96884 0.89303 0.0
O302 O 0.24561 0.95251 0.86439 0.0
C303 C 0.23699 0.90852 0.92967 0.0
C304 C 0.1771 0.76289 0.91433 0.0
C305 C 0.17202 0.70419 0.90548 0.0
C306 C 0.14867 0.70554 0.91641 0.0
C307 C 0.15123 0.73459 0.92078 0.0
C308 C 0.20062 0.76184 0.90347 0.0
C309 C 0.19818 0.73271 0.89916 0.0
C310 C 0.17809 0.79288 0.91843 0.0
C311 C 0.2744 0.88493 0.88981 0.0
H312 H 0.25785 0.06634 0.85338 0.0
H313 H 0.27802 0.02949 0.85421 0.0
H314 H 0.20515 0.9708 0.89419 0.0
H315 H 0.18514 1.00759 0.89372 0.0
H316 H 0.12849 0.68411 0.92173 0.0
H317 H 0.1328 0.73493 0.92913 0.0
H318 H 0.22064 0.78346 0.89818 0.0
H319 H 0.21642 0.73247 0.89059 0.0
Tb320 Tb 0.6664 0.82025 0.61611 0.0
Tb321 Tb 0.70461 0.78799 0.63575 0.0
C322 C 0.70506 0.7966 0.59234 0.0
C323 C 0.60843 0.84837 0.60598 0.0
C324 C 0.55596 0.85725 0.61164 0.0
C325 C 0.5537 0.83348 0.59943 0.0
C326 C 0.57962 0.82919 0.59658 0.0
C327 C 0.61067 0.87201 0.61831 0.0
C328 C 0.58475 0.87636 0.62112 0.0
C329 C 0.63643 0.84509 0.60175 0.0
O330 O 0.63028 0.77509 0.6271 0.0
O331 O 0.65839 0.74903 0.62659 0.0
O332 O 0.67319 0.78695 0.65759 0.0
O333 O 0.66821 0.82868 0.64686 0.0
O334 O 0.71986 0.75487 0.63408 0.0
O335 O 0.73265 0.78649 0.65799 0.0
O336 O 0.73329 0.8392 0.63938 0.0
O337 O 0.71632 0.85454 0.61332 0.0
O338 O 0.67837 0.79703 0.59351 0.0
O339 O 0.72288 0.80194 0.60732 0.0
C340 C 0.63127 0.74878 0.62687 0.0
O341 O 0.6611 0.86003 0.61272 0.0
O342 O 0.63125 0.81697 0.5974 0.0
C343 C 0.66659 0.80948 0.66058 0.0
C344 C 0.77114 0.77498 0.64686 0.0
C345 C 0.83566 0.79329 0.64313 0.0
C346 C 0.81926 0.77962 0.66012 0.0
C347 C 0.78727 0.77049 0.66194 0.0
C348 C 0.78748 0.78884 0.62993 0.0
C349 C 0.81937 0.79775 0.62805 0.0
C350 C 0.73768 0.76607 0.64913 0.0
C351 C 0.7371 0.86085 0.62685 0.0
H352 H 0.53209 0.81865 0.59166 0.0
H353 H 0.57725 0.81115 0.58674 0.0
H354 H 0.63258 0.88746 0.62565 0.0
H355 H 0.58724 0.89469 0.63076 0.0
H356 H 0.83107 0.77563 0.67194 0.0
H357 H 0.77513 0.75998 0.67515 0.0
H358 H 0.77563 0.79294 0.61818 0.0
H359 H 0.83142 0.80859 0.61487 0.0
Tb360 Tb 0.11116 0.32485 0.88671 0.0
Tb361 Tb 0.18349 0.36373 0.9036 0.0
C362 C 0.17042 0.35639 0.86001 0.0
C363 C 0.03389 0.25604 0.87405 0.0
C364 C 0.9916 0.1902 0.87295 0.0
C365 C 0.98542 0.21108 0.86244 0.0
C366 C 1.00639 0.24373 0.86301 0.0
C367 C 0.04064 0.23527 0.8841 0.0
C368 C 0.01974 0.20268 0.88355 0.0
C369 C 0.05452 0.29047 0.87595 0.0
O370 O 0.12226 0.28902 0.8966 0.0
O371 O 0.17611 0.31858 0.89415 0.0
O372 O 0.15083 0.33564 0.92647 0.0
O373 O 0.11089 0.34167 0.91506 0.0
O374 O 0.22997 0.37218 0.90345 0.0
O375 O 0.21524 0.39462 0.92414 0.0
O376 O 0.1684 0.39848 0.90149 0.0
O377 O 0.12502 0.37421 0.88149 0.0
O378 O 0.14324 0.33083 0.86368 0.0
O379 O 0.18729 0.37633 0.87352 0.0
C380 C 0.15007 0.29112 0.89521 0.0
O381 O 0.06287 0.30047 0.89326 0.0
O382 O 0.07839 0.30407 0.86431 0.0
C383 C 0.12426 0.33559 0.92922 0.0
C384 C 0.26875 0.42221 0.91425 0.0
C385 C 0.32784 0.47713 0.90785 0.0
C386 C 0.32397 0.45603 0.92263 0.0
C387 C 0.29472 0.42887 0.92578 0.0
C388 C 0.27223 0.44315 0.89954 0.0
C389 C 0.30157 0.47042 0.89636 0.0
C390 C 0.23886 0.39251 0.91726 0.0
C391 C 0.14706 0.39935 0.89045 0.0
H392 H 0.96419 0.20222 0.85391 0.0
H393 H 1.00082 0.25939 0.85514 0.0
H394 H 0.06161 0.24432 0.89284 0.0
H395 H 0.02509 0.18741 0.89199 0.0
H396 H 0.34374 0.46014 0.93156 0.0
H397 H 0.2925 0.41279 0.93708 0.0
H398 H 0.25236 0.43826 0.89046 0.0
H399 H 0.30363 0.48632 0.88499 0.0
Tb400 Tb 0.20447 0.84538 0.61728 0.0
Tb401 Tb 0.23497 0.91715 0.63465 0.0
C402 C 0.22688 0.90554 0.5916 0.0
C403 C 0.17834 0.7594 0.60953 0.0
C404 C 0.17182 0.69994 0.61842 0.0
C405 C 0.1728 0.70939 0.59941 0.0
C406 C 0.17599 0.73876 0.59504 0.0
C407 C 0.17759 0.75028 0.62856 0.0
C408 C 0.17423 0.72074 0.63297 0.0
C409 C 0.18071 0.78979 0.60434 0.0
O410 O 0.25015 0.85683 0.62843 0.0
O411 O 0.2749 0.91096 0.62635 0.0
O412 O 0.23743 0.8891 0.65764 0.0
O413 O 0.19678 0.84067 0.64815 0.0
O414 O 0.26622 0.96588 0.63132 0.0
O415 O 0.23611 0.94769 0.65598 0.0
O416 O 0.18371 0.89329 0.63844 0.0
O417 O 0.16925 0.85944 0.61328 0.0
O418 O 0.22787 0.87935 0.59398 0.0
O419 O 0.22043 0.91848 0.60581 0.0
C420 C 0.27601 0.88455 0.62732 0.0
O421 O 0.16551 0.79946 0.61502 0.0
O422 O 0.20869 0.81286 0.59975 0.0
C423 C 0.21583 0.85977 0.66142 0.0
C424 C 0.2442 0.99618 0.64333 0.0
C425 C 0.22219 0.03939 0.63822 0.0
C426 C 0.21862 0.02419 0.65579 0.0
C427 C 0.22964 1.00297 0.65833 0.0
C428 C 0.24795 1.01153 0.62577 0.0
C429 C 0.23712 0.03291 0.62327 0.0
C430 C 0.25485 0.97285 0.64611 0.0
C431 C 0.16235 0.87433 0.62616 0.0
H432 H 0.17059 0.69384 0.58786 0.0
H433 H 0.17636 0.74527 0.58028 0.0
H434 H 0.17949 0.76592 0.64 0.0
H435 H 0.1739 0.71435 0.64774 0.0
H436 H 0.20762 0.02898 0.66767 0.0
H437 H 0.22663 0.99171 0.67206 0.0
H438 H 0.25904 1.00691 0.61387 0.0
H439 H 0.24 0.04401 0.60951 0.0
Tb440 Tb 0.70756 0.79648 0.88803 0.0
Tb441 Tb 0.66824 0.83044 0.90352 0.0
C442 C 0.67895 0.82564 0.86018 0.0
C443 C 0.77641 0.78727 0.8767 0.0
C444 C 0.84213 0.81014 0.87552 0.0
C445 C 0.82081 0.78229 0.86583 0.0
C446 C 0.78823 0.77096 0.86644 0.0
C447 C 0.79762 0.81557 0.88588 0.0
C448 C 0.83015 0.82693 0.88528 0.0
C449 C 0.74204 0.77371 0.87885 0.0
O450 O 0.7431 0.84337 0.89814 0.0
O451 O 0.71417 0.86823 0.89509 0.0
O452 O 0.69418 0.82465 0.9272 0.0
O453 O 0.68761 0.77858 0.91579 0.0
O454 O 0.66108 0.8692 0.90336 0.0
O455 O 0.63465 0.83001 0.92248 0.0
O456 O 0.63321 0.78083 0.90045 0.0
O457 O 0.65847 0.7611 0.88192 0.0
O458 O 0.70387 0.82332 0.86453 0.0
O459 O 0.65833 0.82279 0.87316 0.0
C460 C 0.74136 0.86927 0.89665 0.0
O461 O 0.73259 0.77396 0.89609 0.0
O462 O 0.72803 0.78255 0.86653 0.0
C463 C 0.69331 0.7977 0.93002 0.0
C464 C 0.60854 0.85635 0.91039 0.0
C465 C 0.55414 0.8604 0.90181 0.0
C466 C 0.55953 0.85344 0.92038 0.0
C467 C 0.58653 0.85158 0.92462 0.0
C468 C 0.60287 0.86262 0.89172 0.0
C469 C 0.57602 0.86478 0.88751 0.0
C470 C 0.63783 0.85618 0.91547 0.0
C471 C 0.63283 0.75852 0.88986 0.0
H472 H 0.82928 0.76903 0.85794 0.0
H473 H 0.77223 0.7491 0.85925 0.0
H474 H 0.78894 0.82834 0.89404 0.0
H475 H 0.84577 0.8482 0.8931 0.0
H476 H 0.54324 0.85019 0.93174 0.0
H477 H 0.59046 0.84686 0.93912 0.0
H478 H 0.61932 0.86622 0.88039 0.0
H479 H 0.57231 0.86977 0.87303 0.0
C480 C 0.08476 0.21238 0.12401 0.0
C481 C 0.07095 0.21197 0.14158 0.0
C482 C 0.10831 0.20423 0.12284 0.0
C483 C 0.14062 0.15984 0.14671 0.0
H484 H 0.21668 0.2151 0.11833 0.0
C485 C 0.25004 0.14306 0.14614 0.0
C486 C 0.26795 0.15065 0.12936 0.0
C487 C 0.22528 0.1495 0.14783 0.0
C488 C 0.19543 0.19906 0.12605 0.0
H489 H 0.07059 0.20214 0.17164 0.0
H490 H 0.1117 0.18755 0.16956 0.0
H491 H 0.17483 0.22805 0.12083 0.0
H492 H 0.27308 0.16978 0.10091 0.0
H493 H 0.22945 0.17999 0.10357 0.0
H494 H 0.16084 0.13044 0.15161 0.0
C495 C 0.10427 0.19429 0.15672 0.0
C496 C 0.17149 0.20662 0.12755 0.0
C497 C 0.08096 0.20285 0.15794 0.0
C498 C 0.25999 0.16397 0.11412 0.0
C499 C 0.23506 0.17005 0.11572 0.0
C500 C 0.16444 0.15204 0.14502 0.0
C501 C 0.11836 0.19514 0.13917 0.0
C502 C 0.14382 0.18709 0.13786 0.0
C503 C 0.21765 0.16338 0.13269 0.0
C504 C 0.19216 0.17152 0.13462 0.0
H505 H 0.07773 0.21955 0.11119 0.0
H506 H 0.11857 0.20487 0.10911 0.0
H507 H 0.1194 0.1442 0.1546 0.0
H508 H 0.25566 0.1329 0.15817 0.0
H509 H 0.21271 0.14435 0.16119 0.0
C510 C 0.15106 0.92552 0.38913 0.0
C511 C 0.16083 0.95742 0.38556 0.0
C512 C 0.119 0.9031 0.39099 0.0
C513 C 0.03995 0.89308 0.40051 0.0
H514 H 1.01131 0.81168 0.37683 0.0
C515 C 0.90736 0.79132 0.39625 0.0
C516 C 0.90222 0.76067 0.39942 0.0
C517 C 0.93829 0.81724 0.39508 0.0
C518 C 0.01894 0.83419 0.38367 0.0
H519 H 0.14435 0.99075 0.38135 0.0
H520 H 0.08823 0.95147 0.3846 0.0
H521 H 0.06627 0.85303 0.37364 0.0
H522 H 0.92561 0.73365 0.40503 0.0
H523 H 0.97885 0.7784 0.40316 0.0
H524 H 0.99225 0.87385 0.41053 0.0
C525 C 0.1055 0.94392 0.38613 0.0
C526 C 0.0505 0.85791 0.38186 0.0
C527 C 0.13768 0.96642 0.38426 0.0
C528 C 0.92856 0.75678 0.40225 0.0
C529 C 0.95921 0.78247 0.40109 0.0
C530 C 1.00818 0.86922 0.4023 0.0
C531 C 0.09576 0.91191 0.38931 0.0
C532 C 0.06159 0.88748 0.39051 0.0
C533 C 0.96454 0.81288 0.39703 0.0
C534 C 0.9975 0.83931 0.39418 0.0
H535 H 0.16825 0.91785 0.39063 0.0
H536 H 0.11241 0.87878 0.39386 0.0
H537 H 0.04775 0.91556 0.40741 0.0
H538 H 0.88764 0.79516 0.394 0.0
H539 H 0.94166 0.84043 0.39195 0.0
C540 C 0.91097 0.12426 0.12624 0.0
C541 C 0.88424 0.12743 0.12316 0.0
C542 C 0.90749 0.0942 0.12911 0.0
C543 C 0.84801 0.01528 0.14608 0.0
H544 H 0.89529 0.98316 0.11939 0.0
C545 C 0.80319 0.88262 0.14143 0.0
C546 C 0.82492 0.87186 0.1428 0.0
C547 C 0.81364 0.91489 0.14028 0.0
C548 C 0.88223 0.99196 0.12719 0.0
H549 H 0.83315 0.10132 0.11961 0.0
H550 H 0.82733 0.04971 0.12458 0.0
H551 H 0.90875 0.03826 0.11472 0.0
H552 H 0.87486 0.88687 0.14425 0.0
H553 H 0.89313 0.94341 0.1422 0.0
H554 H 0.82122 0.96926 0.15838 0.0
C555 C 0.85086 0.07026 0.12517 0.0
C556 C 0.88996 0.02348 0.12449 0.0
C557 C 0.85429 0.09997 0.12224 0.0
C558 C 0.85747 0.89431 0.14303 0.0
C559 C 0.86796 0.9267 0.14184 0.0
C560 C 0.84039 0.98399 0.1488 0.0
C561 C 0.87723 0.06701 0.12906 0.0
C562 C 0.8723 0.03515 0.13353 0.0
C563 C 0.84613 0.93736 0.14048 0.0
C564 C 0.85681 0.97166 0.13902 0.0
H565 H 0.93438 0.14494 0.12699 0.0
H566 H 0.92825 0.09231 0.132 0.0
H567 H 0.83442 0.02382 0.15355 0.0
H568 H 0.77801 0.86605 0.14076 0.0
H569 H 0.79618 0.92221 0.13883 0.0
C570 C 0.24995 0.13997 0.3791 0.0
C571 C 0.27051 0.15073 0.39479 0.0
C572 C 0.22524 0.14653 0.37759 0.0
C573 C 0.20015 0.20177 0.39585 0.0
H574 H 0.11967 0.14197 0.3732 0.0
C575 C 0.09332 0.22214 0.3948 0.0
C576 C 0.07674 0.21603 0.37755 0.0
C577 C 0.11614 0.21318 0.39739 0.0
C578 C 0.14211 0.159 0.37944 0.0
H579 H 0.28046 0.17584 0.42155 0.0
H580 H 0.23704 0.18654 0.41916 0.0
H581 H 0.16047 0.12757 0.37711 0.0
H582 H 0.07066 0.19508 0.34965 0.0
H583 H 0.11059 0.1796 0.35415 0.0
H584 H 0.18163 0.23308 0.39829 0.0
C585 C 0.24044 0.17378 0.40774 0.0
C586 C 0.16555 0.15079 0.38164 0.0
C587 C 0.26526 0.16744 0.40917 0.0
C588 C 0.08326 0.20044 0.36303 0.0
C589 C 0.1059 0.19127 0.36568 0.0
C590 C 0.17664 0.20987 0.39377 0.0
C591 C 0.22034 0.16381 0.3918 0.0
C592 C 0.19496 0.17212 0.38982 0.0
C593 C 0.12272 0.19767 0.38285 0.0
C594 C 0.14739 0.18866 0.38546 0.0
H595 H 0.25336 0.12711 0.36773 0.0
H596 H 0.21053 0.13877 0.365 0.0
H597 H 0.22266 0.21909 0.40186 0.0
H598 H 0.08898 0.23426 0.40622 0.0
H599 H 0.12851 0.21822 0.41084 0.0
C600 C 0.14851 0.92998 0.1272 0.0
C601 C 0.15854 0.9596 0.13553 0.0
C602 C 0.1164 0.9089 0.12399 0.0
C603 C 0.0363 0.88978 0.13928 0.0
H604 H 1.01096 0.8377 0.09405 0.0
C605 C 0.90525 0.7951 0.12355 0.0
C606 C 0.90103 0.76538 0.11863 0.0
C607 C 0.9357 0.82183 0.124 0.0
C608 C 0.01765 0.85206 0.10676 0.0
H609 H 0.14256 0.99041 0.1468 0.0
H610 H 0.08645 0.95362 0.14114 0.0
H611 H 0.06611 0.87852 0.09819 0.0
H612 H 0.9253 0.74069 0.10963 0.0
H613 H 0.97784 0.78691 0.11032 0.0
H614 H 0.98774 0.86285 0.14792 0.0
C615 C 0.10343 0.94652 0.13733 0.0
C616 C 0.0493 0.87538 0.10918 0.0
C617 C 0.13561 0.96761 0.14059 0.0
C618 C 0.92767 0.76317 0.11357 0.0
C619 C 0.95785 0.78977 0.11382 0.0
C620 C 1.00455 0.86646 0.13682 0.0
C621 C 0.09342 0.91689 0.12896 0.0
C622 C 0.0592 0.89406 0.12567 0.0
C623 C 0.96234 0.81935 0.11925 0.0
C624 C 0.99502 0.84685 0.12073 0.0
H625 H 0.16548 0.92283 0.12342 0.0
H626 H 0.10956 0.88604 0.1179 0.0
H627 H 0.04308 0.90356 0.15221 0.0
H628 H 0.88525 0.79754 0.12762 0.0
H629 H 0.93842 0.84436 0.12816 0.0
C630 C 0.85871 0.89504 0.37444 0.0
C631 C 0.82637 0.87206 0.37527 0.0
C632 C 0.86858 0.92728 0.37577 0.0
C633 C 0.83868 0.98302 0.37012 0.0
H634 H 0.90997 0.03921 0.40175 0.0
C635 C 0.85584 0.10174 0.39398 0.0
C636 C 0.88605 0.12868 0.39232 0.0
C637 C 0.85157 0.07155 0.39179 0.0
C638 C 0.89027 0.02387 0.39268 0.0
H639 H 0.7792 0.86512 0.37871 0.0
H640 H 0.79629 0.92099 0.38093 0.0
H641 H 0.89669 0.98412 0.39765 0.0
H642 H 0.93578 0.14481 0.38787 0.0
H643 H 0.92819 0.0915 0.38408 0.0
H644 H 0.83183 0.02235 0.36539 0.0
C645 C 0.81405 0.91423 0.37885 0.0
C646 C 0.88266 0.99235 0.39031 0.0
C647 C 0.80421 0.88212 0.37753 0.0
C648 C 0.91219 0.12455 0.3892 0.0
C649 C 0.90786 0.09407 0.38705 0.0
C650 C 0.8462 0.01433 0.37253 0.0
C651 C 0.84633 0.93724 0.37793 0.0
C652 C 0.85635 0.9714 0.3793 0.0
C653 C 0.87734 0.06732 0.38788 0.0
C654 C 0.87164 0.03496 0.38414 0.0
H655 H 0.8764 0.88813 0.37256 0.0
H656 H 0.8936 0.9444 0.37485 0.0
H657 H 0.81877 0.96779 0.36116 0.0
H658 H 0.83517 0.10388 0.39664 0.0
H659 H 0.82787 0.05141 0.39298 0.0
C660 C 0.18092 0.05524 0.64266 0.0
C661 C 0.21055 0.06204 0.63552 0.0
C662 C 0.17009 0.07663 0.64015 0.0
C663 C 0.18424 0.14669 0.61142 0.0
H664 H 0.1413 0.16145 0.65296 0.0
C665 C 0.17471 0.25882 0.61703 0.0
C666 C 0.14627 0.25623 0.62344 0.0
C667 C 0.17886 0.2326 0.61701 0.0
C668 C 0.15281 0.15725 0.64112 0.0
H669 H 0.25218 0.0969 0.6204 0.0
H670 H 0.23362 0.13436 0.61628 0.0
H671 H 0.1561 0.12083 0.65609 0.0
H672 H 0.09959 0.22377 0.63453 0.0
H673 H 0.10704 0.17773 0.63469 0.0
H674 H 0.1818 0.18381 0.59671 0.0
C675 C 0.21832 0.11217 0.62341 0.0
C676 C 0.16132 0.13394 0.64289 0.0
C677 C 0.22906 0.09072 0.62582 0.0
C678 C 0.12176 0.22653 0.62948 0.0
C679 C 0.12609 0.20024 0.62968 0.0
C680 C 0.17592 0.17009 0.6097 0.0
C681 C 0.18868 0.10544 0.63053 0.0
C682 C 0.17762 0.1287 0.62818 0.0
C683 C 0.1548 0.20309 0.62355 0.0
C684 C 0.16056 0.17599 0.62464 0.0
H685 H 0.1659 0.03315 0.64997 0.0
H686 H 0.14696 0.07041 0.64559 0.0
H687 H 0.19607 0.14286 0.59961 0.0
H688 H 0.19406 0.28129 0.6122 0.0
H689 H 0.20138 0.2357 0.6124 0.0
C690 C 0.10485 0.84895 0.8992 0.0
C691 C 0.13199 0.879 0.89745 0.0
C692 C 0.07481 0.84487 0.89645 0.0
C693 C 0.02761 0.88395 0.8955 0.0
H694 H 0.97242 0.81247 0.86376 0.0
C695 C 0.89958 0.85293 0.87542 0.0
C696 C 0.87646 0.82066 0.87636 0.0
C697 C 0.93176 0.86263 0.87701 0.0
C698 C 0.9874 0.83238 0.87277 0.0
H699 H 0.14858 0.92864 0.89227 0.0
H700 H 0.09558 0.92143 0.88756 0.0
H701 H 0.02677 0.82526 0.86904 0.0
H702 H 0.86916 0.77341 0.8801 0.0
H703 H 0.92497 0.79021 0.88279 0.0
H704 H 0.98783 0.89058 0.89952 0.0
C705 C 0.09788 0.90108 0.89102 0.0
C706 C 0.01857 0.83974 0.87577 0.0
C707 C 0.1282 0.9052 0.89373 0.0
C708 C 0.8863 0.79837 0.87887 0.0
C709 C 0.91836 0.80804 0.88045 0.0
C710 C 0.99623 0.87647 0.89255 0.0
C711 C 0.07096 0.87069 0.89189 0.0
C712 C 0.03884 0.86517 0.88748 0.0
C713 C 0.94152 0.84027 0.87954 0.0
C714 C 0.97559 0.85017 0.88145 0.0
H715 H 0.10672 0.82824 0.90232 0.0
H716 H 0.0545 0.82129 0.89768 0.0
H717 H 0.0427 0.90363 0.90463 0.0
H718 H 0.89282 0.8707 0.87333 0.0
H719 H 0.949 0.88761 0.87606 0.0
C720 C 0.78446 0.90265 0.64443 0.0
C721 C 0.76458 0.8934 0.62841 0.0
C722 C 0.8091 0.93393 0.64639 0.0
C723 C 0.85934 1.00747 0.61935 0.0
H724 H 0.86937 0.04854 0.66794 0.0
C725 C 0.93929 0.14261 0.62842 0.0
C726 C 0.9566 0.15379 0.64538 0.0
C727 C 0.91663 0.1106 0.62635 0.0
C728 C 0.86726 0.03737 0.65434 0.0
H729 H 0.7556 0.90974 0.60168 0.0
H730 H 0.79855 0.9641 0.60509 0.0
H731 H 0.82939 0.993 0.66428 0.0
H732 H 0.96412 0.1399 0.6733 0.0
H733 H 0.92497 0.0841 0.66963 0.0
H734 H 0.89727 0.05172 0.60939 0.0
C735 C 0.79517 0.94717 0.61611 0.0
C736 C 0.84428 1.00548 0.65225 0.0
C737 C 0.77041 0.91599 0.61421 0.0
C738 C 0.95083 0.13216 0.66017 0.0
C739 C 0.92832 0.10014 0.65806 0.0
C740 C 0.88245 0.03931 0.62146 0.0
C741 C 0.8146 0.95661 0.63231 0.0
C742 C 0.83991 0.99019 0.6347 0.0
C743 C 0.91085 0.0889 0.64113 0.0
C744 C 0.88661 0.05477 0.63896 0.0
H745 H 0.78067 0.88588 0.65564 0.0
H746 H 0.82388 0.94036 0.65894 0.0
H747 H 0.85686 0.99628 0.60571 0.0
H748 H 0.9429 0.15872 0.61684 0.0
H749 H 0.9033 0.10298 0.61323 0.0
C750 C 0.18319 0.26562 0.89319 0.0
C751 C 0.15291 0.26234 0.89379 0.0
C752 C 0.18689 0.23949 0.89038 0.0
C753 C 0.14831 0.15327 0.89392 0.0
H754 H 0.21406 0.16548 0.85835 0.0
C755 C 0.17699 0.05427 0.87539 0.0
C756 C 0.20933 0.06376 0.87442 0.0
C757 C 0.1673 0.07673 0.8768 0.0
C758 C 0.19577 0.1617 0.86843 0.0
H759 H 0.10265 0.22847 0.89257 0.0
H760 H 0.10922 0.18238 0.88771 0.0
H761 H 0.20167 0.20737 0.86293 0.0
H762 H 0.25678 0.10442 0.8746 0.0
H763 H 0.23999 0.14339 0.87697 0.0
H764 H 0.14292 0.1077 0.89968 0.0
C765 C 0.13004 0.20549 0.88938 0.0
C766 C 0.18862 0.1857 0.87103 0.0
C767 C 0.12629 0.23188 0.89214 0.0
C768 C 0.23168 0.09624 0.87487 0.0
C769 C 0.22202 0.11862 0.87626 0.0
C770 C 0.15555 0.12916 0.89135 0.0
C771 C 0.16047 0.2092 0.88811 0.0
C772 C 0.16532 0.18209 0.8841 0.0
C773 C 0.18973 0.1092 0.87723 0.0
C774 C 0.17986 0.1334 0.87886 0.0
H775 H 0.20432 0.28857 0.89463 0.0
H776 H 0.21062 0.24308 0.88992 0.0
H777 H 0.13032 0.14984 0.90414 0.0
H778 H 0.15911 0.02946 0.87489 0.0
H779 H 0.14224 0.06868 0.87734 0.0
C780 C 0.11977 0.87979 0.64264 0.0
C781 C 0.12962 0.86876 0.62717 0.0
C782 C 0.08836 0.87289 0.64406 0.0
C783 C 1.00784 0.81641 0.6261 0.0
H784 H 0.98676 0.87682 0.64692 0.0
C785 C 0.88072 0.79606 0.62441 0.0
C786 C 0.86962 0.80286 0.64113 0.0
C787 C 0.91257 0.8048 0.62256 0.0
C788 C 0.99228 0.85961 0.64122 0.0
H789 H 0.11431 0.84267 0.60072 0.0
H790 H 0.05995 0.83131 0.60295 0.0
H791 H 0.04216 0.89135 0.64367 0.0
H792 H 0.88345 0.82469 0.66888 0.0
H793 H 0.9391 0.83988 0.66567 0.0
H794 H 0.95796 0.78481 0.62349 0.0
C795 C 0.07621 0.84461 0.61428 0.0
C796 C 0.02405 0.8679 0.63938 0.0
C797 C 0.10752 0.85132 0.61293 0.0
C798 C 0.8912 0.81884 0.6559 0.0
C799 C 0.92312 0.82782 0.65398 0.0
C800 C 0.97614 0.80822 0.62782 0.0
C801 C 0.06607 0.85493 0.62998 0.0
C802 C 0.03227 0.84639 0.63181 0.0
C803 C 0.93416 0.82077 0.63732 0.0
C804 C 0.96796 0.82969 0.63542 0.0
H805 H 0.13614 0.8932 0.6539 0.0
H806 H 0.08139 0.88096 0.65646 0.0
H807 H 1.01316 0.79895 0.62057 0.0
H808 H 0.86467 0.78357 0.61283 0.0
H809 H 0.92037 0.79926 0.60948 0.0
C810 C 0.93561 0.14546 0.87513 0.0
C811 C 0.96804 0.15578 0.87373 0.0
C812 C 0.91339 0.11332 0.87666 0.0
C813 C 0.90405 0.03644 0.89085 0.0
H814 H 0.82385 1.0042 0.8647 0.0
C815 C 0.80053 0.90435 0.89284 0.0
C816 C 0.7704 0.9008 0.89556 0.0
C817 C 0.82699 0.93447 0.88988 0.0
C818 C 0.8461 0.01286 0.87215 0.0
H819 H 1.00246 0.14018 0.87261 0.0
H820 H 0.96349 0.08387 0.8753 0.0
H821 H 0.86556 0.05851 0.85931 0.0
H822 H 0.74491 0.92639 0.89836 0.0
H823 H 0.79058 0.97822 0.89327 0.0
H824 H 0.8841 0.99051 0.90381 0.0
C825 C 0.95538 0.1008 0.8754 0.0
C826 C 0.86998 0.04401 0.86909 0.0
C827 C 0.97768 0.13306 0.87384 0.0
C828 C 0.76758 0.92803 0.89603 0.0
C829 C 0.79379 0.95785 0.89302 0.0
C830 C 0.88005 1.00508 0.89388 0.0
C831 C 0.92296 0.09058 0.87683 0.0
C832 C 0.89897 0.05645 0.87874 0.0
C833 C 0.82364 0.96141 0.88949 0.0
C834 C 0.85056 0.99327 0.8849 0.0
H835 H 0.92737 0.16229 0.87553 0.0
H836 H 0.88868 0.10634 0.87814 0.0
H837 H 0.92608 0.04535 0.89857 0.0
H838 H 0.80354 0.8839 0.89242 0.0
H839 H 0.8498 0.93658 0.88725 0.0
C840 C 0.37204 0.19823 0.33373 0.0
C841 C 0.37508 0.17297 0.34084 0.0
C842 C 0.3773 0.20639 0.3144 0.0
C843 C 0.41422 0.19609 0.27101 0.0
H844 H 0.34698 0.19934 0.24366 0.0
C845 C 0.38566 0.15865 0.19355 0.0
C846 C 0.37529 0.17429 0.18125 0.0
C847 C 0.39139 0.16687 0.21268 0.0
C848 C 0.36634 0.19922 0.25108 0.0
H849 H 0.38739 0.13745 0.33343 0.0
H850 H 0.39673 0.15173 0.30007 0.0
H851 H 0.34678 0.19889 0.27839 0.0
H852 H 0.36374 0.21159 0.1793 0.0
H853 H 0.37356 0.22589 0.21305 0.0
H854 H 0.43315 0.19517 0.2438 0.0
C855 C 0.3903 0.1653 0.30929 0.0
C856 C 0.36621 0.19894 0.271 0.0
C857 C 0.38467 0.15693 0.32843 0.0
C858 C 0.37179 0.19917 0.18843 0.0
C859 C 0.37721 0.2072 0.20775 0.0
C860 C 0.41437 0.19641 0.25117 0.0
C861 C 0.38625 0.1898 0.30195 0.0
C862 C 0.38953 0.1962 0.28115 0.0
C863 C 0.38674 0.19085 0.22012 0.0
C864 C 0.38981 0.19678 0.24096 0.0
H865 H 0.3646 0.21098 0.34295 0.0
H866 H 0.3741 0.22545 0.30916 0.0
H867 H 0.43286 0.19459 0.27844 0.0
H868 H 0.38876 0.13949 0.18848 0.0
H869 H 0.39828 0.15347 0.22181 0.0
C870 C 0.84616 0.69701 0.32701 0.0
C871 C 0.83457 0.67057 0.3391 0.0
C872 C 0.84981 0.69416 0.3076 0.0
C873 C 0.81891 0.63716 0.26858 0.0
H874 H 0.8889 0.70512 0.24119 0.0
C875 C 0.82667 0.64235 0.18583 0.0
C876 C 0.83342 0.67171 0.1782 0.0
C877 C 0.83024 0.63913 0.20537 0.0
C878 C 0.8692 0.68592 0.24862 0.0
H879 H 0.81823 0.62038 0.34024 0.0
H880 H 0.8245 0.61535 0.30607 0.0
H881 H 0.88926 0.70486 0.2758 0.0
H882 H 0.85013 0.72086 0.18503 0.0
H883 H 0.85644 0.71529 0.21875 0.0
H884 H 0.79844 0.61879 0.24128 0.0
C885 C 0.83071 0.6383 0.31175 0.0
C886 C 0.86939 0.68578 0.26846 0.0
C887 C 0.82732 0.64123 0.33132 0.0
C888 C 0.84463 0.69786 0.1904 0.0
C889 C 0.8485 0.69473 0.20976 0.0
C890 C 0.81873 0.63729 0.24866 0.0
C891 C 0.84183 0.66475 0.29966 0.0
C892 C 0.8438 0.66196 0.2787 0.0
C893 C 0.84108 0.66531 0.21756 0.0
C894 C 0.84343 0.66223 0.23847 0.0
H895 H 0.85205 0.72001 0.33248 0.0
H896 H 0.85797 0.71493 0.29871 0.0
H897 H 0.79874 0.61856 0.27603 0.0
H898 H 0.81789 0.62172 0.17682 0.0
H899 H 0.82444 0.61617 0.21095 0.0
C900 C 0.8622 0.18099 0.19019 0.0
C901 C 0.85098 0.19523 0.1774 0.0
C902 C 0.85355 0.17731 0.2093 0.0
C903 C 0.83171 0.21299 0.24708 0.0
H904 H 0.81443 0.13696 0.27438 0.0
C905 C 0.83104 0.20679 0.32985 0.0
C906 C 0.85015 0.19506 0.33682 0.0
C907 C 0.82238 0.20322 0.31055 0.0
C908 C 0.81912 0.15836 0.26699 0.0
H909 H 0.82145 0.21641 0.17459 0.0
H910 H 0.80671 0.21052 0.20838 0.0
H911 H 0.81552 0.13745 0.23976 0.0
H912 H 0.87368 0.16899 0.32935 0.0
H913 H 0.85862 0.16266 0.29619 0.0
H914 H 0.837 0.23441 0.2744 0.0
C915 C 0.82205 0.20199 0.20343 0.0
C916 C 0.8197 0.1586 0.24715 0.0
C917 C 0.83032 0.20519 0.18411 0.0
C918 C 0.85906 0.17844 0.32442 0.0
C919 C 0.85017 0.17457 0.30537 0.0
C920 C 0.8313 0.2128 0.26701 0.0
C921 C 0.83374 0.18813 0.21623 0.0
C922 C 0.82713 0.18624 0.23698 0.0
C923 C 0.83222 0.18737 0.29805 0.0
C924 C 0.82618 0.18582 0.2772 0.0
H925 H 0.87808 0.17297 0.18548 0.0
H926 H 0.8633 0.16691 0.21881 0.0
H927 H 0.83763 0.23469 0.23963 0.0
H928 H 0.82397 0.21984 0.33906 0.0
H929 H 0.80843 0.21325 0.30536 0.0
C930 C 0.17708 0.33575 0.69314 0.0
C931 C 0.18428 0.36085 0.68058 0.0
C932 C 0.18572 0.34139 0.71221 0.0
C933 C 0.20043 0.39818 0.75008 0.0
H934 H 0.21969 0.34175 0.77843 0.0
C935 C 0.20165 0.39303 0.83314 0.0
C936 C 0.18175 0.36224 0.84009 0.0
C937 C 0.20979 0.3981 0.8138 0.0
C938 C 0.21453 0.35785 0.77072 0.0
H939 H 0.20731 0.41179 0.67805 0.0
H940 H 0.22251 0.42184 0.71176 0.0
H941 H 0.22159 0.34215 0.74383 0.0
H942 H 0.15579 0.31266 0.83239 0.0
H943 H 0.17046 0.32141 0.799 0.0
H944 H 0.19252 0.41315 0.77715 0.0
C945 C 0.21004 0.3977 0.7067 0.0
C946 C 0.21554 0.35805 0.75089 0.0
C947 C 0.2016 0.392 0.68739 0.0
C948 C 0.17107 0.33667 0.82749 0.0
C949 C 0.17965 0.34167 0.80836 0.0
C950 C 0.19966 0.39815 0.77 0.0
C951 C 0.20175 0.37235 0.71939 0.0
C952 C 0.20724 0.37725 0.74028 0.0
C953 C 0.19877 0.37241 0.80121 0.0
C954 C 0.20552 0.37708 0.78049 0.0
H955 H 0.16384 0.31146 0.68834 0.0
H956 H 0.17847 0.32123 0.72152 0.0
H957 H 0.19374 0.41314 0.74238 0.0
H958 H 0.21009 0.4132 0.84251 0.0
H959 H 0.22456 0.42205 0.80867 0.0
C960 C 0.20791 0.8273 0.83479 0.0
C961 C 0.1996 0.84933 0.84127 0.0
C962 C 0.20558 0.81967 0.81544 0.0
C963 C 0.16992 0.82483 0.76978 0.0
H964 H 0.2455 0.83232 0.74695 0.0
C965 C 0.23733 0.86585 0.69431 0.0
C966 C 0.21251 0.84888 0.6814 0.0
C967 C 0.23355 0.85816 0.7136 0.0
C968 C 0.22411 0.82992 0.75312 0.0
H969 H 0.18088 0.8794 0.83266 0.0
H970 H 0.17672 0.86604 0.79918 0.0
H971 H 0.24127 0.83276 0.78148 0.0
H972 H 0.16457 0.80969 0.67856 0.0
H973 H 0.1578 0.79639 0.7125 0.0
H974 H 0.1534 0.82348 0.74141 0.0
C975 C 0.18499 0.85459 0.80894 0.0
C976 C 0.22157 0.82988 0.77291 0.0
C977 C 0.18764 0.86245 0.82815 0.0
C978 C 0.18414 0.8232 0.68815 0.0
C979 C 0.18021 0.81571 0.70758 0.0
C980 C 0.17238 0.82467 0.74999 0.0
C981 C 0.19446 0.83356 0.80226 0.0
C982 C 0.19486 0.82832 0.78147 0.0
C983 C 0.20476 0.83344 0.72055 0.0
C984 C 0.19993 0.82819 0.74142 0.0
H985 H 0.21725 0.81682 0.84454 0.0
H986 H 0.21289 0.80324 0.81075 0.0
H987 H 0.14887 0.82322 0.77594 0.0
H988 H 0.25958 0.88566 0.68959 0.0
H989 H 0.25281 0.87255 0.72319 0.0
C990 C 0.64868 0.78899 0.69342 0.0
C991 C 0.65893 0.81392 0.68027 0.0
C992 C 0.64517 0.79373 0.71259 0.0
C993 C 0.62872 0.80651 0.75184 0.0
H994 H 0.70174 0.87878 0.77405 0.0
C995 C 0.64427 0.82466 0.83337 0.0
C996 C 0.67395 0.83067 0.83998 0.0
C997 C 0.63924 0.8268 0.81393 0.0
C998 C 0.68107 0.85859 0.76806 0.0
H999 H 0.67227 0.86313 0.67681 0.0
H1000 H 0.66638 0.87156 0.71054 0.0
H1001 H 0.69681 0.87363 0.73957 0.0
H1002 H 0.72195 0.84496 0.83143 0.0
H1003 H 0.71321 0.84874 0.79779 0.0
H1004 H 0.61374 0.79072 0.78035 0.0
C1005 C 0.66112 0.84831 0.70591 0.0
C1006 C 0.67808 0.8558 0.74829 0.0
C1007 C 0.66429 0.84344 0.6866 0.0
C1008 C 0.69873 0.84002 0.82685 0.0
C1009 C 0.69381 0.84246 0.80753 0.0
C1010 C 0.63162 0.8094 0.77162 0.0
C1011 C 0.65205 0.82362 0.71917 0.0
C1012 C 0.65236 0.82924 0.73995 0.0
C1013 C 0.6639 0.8354 0.80077 0.0
C1014 C 0.65832 0.83498 0.77995 0.0
H1015 H 0.64418 0.76589 0.689 0.0
H1016 H 0.63849 0.77428 0.7224 0.0
H1017 H 0.60845 0.78593 0.74585 0.0
H1018 H 0.62468 0.8174 0.84311 0.0
H1019 H 0.61597 0.82139 0.80916 0.0
C1020 C 0.27701 0.95293 0.94951 0.0
C1021 C 0.24638 0.92659 0.94774 0.0
C1022 C 0.28558 0.9725 0.96541 0.0
C1023 C 0.25127 0.99742 1.00356 0.0
H1024 H 0.33562 0.03481 0.02499 0.0
C1025 C 0.28685 0.07004 0.07294 0.0
C1026 C 0.31753 0.09637 0.07457 0.0
C1027 C 0.27809 0.05029 0.0571 0.0
C1028 C 0.31212 0.02496 0.01901 0.0
H1029 H 0.20096 0.89975 0.96168 0.0
H1030 H 0.21604 0.93395 0.98973 0.0
H1031 H 0.32025 0.99651 0.99933 0.0
H1032 H 0.36282 0.12299 0.06044 0.0
H1033 H 0.34739 0.08853 0.03252 0.0
H1034 H 0.24314 0.02588 0.02325 0.0
C1035 C 0.23333 0.93956 0.97859 0.0
C1036 C 0.30323 1.00285 1.00432 0.0
C1037 C 0.22475 0.91977 0.96262 0.0
C1038 C 0.33899 0.103 0.05961 0.0
C1039 C 0.33022 0.08305 0.04371 0.0
C1040 C 0.26016 0.01953 0.01825 0.0
C1041 C 0.26378 0.96642 0.98006 0.0
C1042 C 0.2727 0.98881 0.99636 0.0
C1043 C 0.29975 0.05619 0.04239 0.0
C1044 C 0.29071 0.03362 0.02618 0.0
H1045 H 0.29436 0.95895 0.93835 0.0
H1046 H 0.30907 0.99308 0.96588 0.0
H1047 H 0.22778 0.98758 0.99756 0.0
H1048 H 0.26962 0.0641 0.08416 0.0
H1049 H 0.25459 0.02972 0.05673 0.0
C1050 C 0.75495 0.68537 0.44923 0.0
C1051 C 0.78567 0.69012 0.44718 0.0
C1052 C 0.74648 0.696 0.46534 0.0
C1053 C 0.78119 0.75522 0.50354 0.0
H1054 H 0.69702 0.7079 0.52516 0.0
C1055 C 0.74562 0.79254 0.57285 0.0
C1056 C 0.71489 0.78799 0.57441 0.0
C1057 C 0.75444 0.78146 0.55709 0.0
C1058 C 0.72047 0.72164 0.51913 0.0
H1059 H 0.83133 0.70897 0.46084 0.0
H1060 H 0.81643 0.72739 0.48926 0.0
H1061 H 0.71226 0.68503 0.49943 0.0
H1062 H 0.66963 0.76895 0.56021 0.0
H1063 H 0.68515 0.74977 0.53245 0.0
H1064 H 0.78938 0.79184 0.52325 0.0
C1065 C 0.79899 0.71567 0.47819 0.0
C1066 C 0.72929 0.70846 0.50441 0.0
C1067 C 0.80746 0.70484 0.46201 0.0
C1068 C 0.69348 0.77292 0.55945 0.0
C1069 C 0.7023 0.76165 0.54364 0.0
C1070 C 0.77238 0.7684 0.51828 0.0
C1071 C 0.76848 0.71177 0.47991 0.0
C1072 C 0.75973 0.7251 0.49635 0.0
C1073 C 0.7328 0.76542 0.5424 0.0
C1074 C 0.74187 0.75182 0.52626 0.0
H1075 H 0.73748 0.67409 0.43811 0.0
H1076 H 0.72293 0.69283 0.466 0.0
H1077 H 0.80461 0.76899 0.49748 0.0
H1078 H 0.76284 0.80413 0.58405 0.0
H1079 H 0.77799 0.78457 0.55677 0.0
C1080 C 0.10428 0.30017 0.95794 0.0
C1081 C 0.10722 0.32614 0.94758 0.0
C1082 C 0.08382 0.28839 0.97364 0.0
C1083 C 0.04665 0.30955 0.01087 0.0
H1084 H 0.97487 0.22438 1.00811 0.0
C1085 C 0.94531 0.26872 0.06466 0.0
C1086 C 0.92912 0.2371 0.0707 0.0
C1087 C 0.96623 0.27819 0.04931 0.0
C1088 C 0.995 0.24802 0.00939 0.0
H1089 H 0.09208 0.36079 0.94585 0.0
H1090 H 0.05776 0.34129 0.97378 0.0
H1091 H 1.01529 0.24367 0.98329 0.0
H1092 H 0.92175 0.19037 0.0653 0.0
H1093 H 0.95933 0.20693 0.03893 0.0
H1094 H 0.02757 0.31404 0.03711 0.0
C1095 C 0.07074 0.32969 0.9696 0.0
C1096 C 0.01813 0.25905 0.99508 0.0
C1097 C 0.09041 0.34087 0.95366 0.0
C1098 C 0.93359 0.21484 0.06072 0.0
C1099 C 0.95523 0.22446 0.04559 0.0
C1100 C 0.024 0.29838 0.02536 0.0
C1101 C 0.06671 0.30296 0.97951 0.0
C1102 C 0.04389 0.29009 0.99555 0.0
C1103 C 0.97244 0.25648 0.03989 0.0
C1104 C 0.99738 0.26763 0.0247 0.0
H1105 H 0.1166 0.2881 0.95337 0.0
H1106 H 0.08114 0.26778 0.98109 0.0
H1107 H 0.06642 0.33352 0.01164 0.0
H1108 H 0.94221 0.28636 0.07208 0.0
H1109 H 0.97788 0.30278 0.04507 0.0
C1110 C 0.29257 0.08165 0.45465 0.0
C1111 C 0.32441 0.0989 0.44899 0.0
C1112 C 0.28368 0.06213 0.4707 0.0
C1113 C 0.30089 1.01004 0.49673 0.0
H1114 H 0.25663 0.02066 0.53908 0.0
C1115 C 0.26184 0.92686 0.5629 0.0
C1116 C 0.2356 0.92283 0.57331 0.0
C1117 C 0.27345 0.94816 0.54757 0.0
C1118 C 0.26834 0.01677 0.52724 0.0
H1119 H 0.37194 0.10929 0.45566 0.0
H1120 H 0.35612 0.07411 0.48356 0.0
H1121 H 0.27593 0.05915 0.51332 0.0
H1122 H 0.19977 0.9363 0.57524 0.0
H1123 H 0.21825 0.97138 0.54788 0.0
H1124 H 0.29196 0.96684 0.50991 0.0
C1125 C 0.33826 0.07633 0.47569 0.0
C1126 C 0.27977 0.0392 0.5126 0.0
C1127 C 0.34731 0.09661 0.45988 0.0
C1128 C 0.22016 0.93908 0.56749 0.0
C1129 C 0.23117 0.95966 0.55194 0.0
C1130 C 0.28879 0.98713 0.51117 0.0
C1131 C 0.30631 0.05875 0.48113 0.0
C1132 C 0.29609 0.03603 0.49721 0.0
C1133 C 0.25865 0.96542 0.54208 0.0
C1134 C 0.2721 0.98999 0.52664 0.0
H1135 H 0.27442 0.08283 0.44644 0.0
H1136 H 0.25891 0.04877 0.47458 0.0
H1137 H 0.31312 1.00693 0.48486 0.0
H1138 H 0.27448 0.91497 0.56729 0.0
H1139 H 0.29478 0.95196 0.5406 0.0
C1140 C 0.75921 0.68213 0.06349 0.0
C1141 C 0.79078 0.69691 0.06965 0.0
C1142 C 0.75072 0.69358 0.04767 0.0
C1143 C 0.76965 0.76527 0.02297 0.0
H1144 H 0.72156 0.71107 0.98111 0.0
C1145 C 0.72962 0.81127 0.95803 0.0
C1146 C 0.70215 0.78947 0.94835 0.0
C1147 C 0.74145 0.80123 0.97307 0.0
C1148 C 0.7344 0.72651 0.99283 0.0
H1149 H 0.83831 0.7352 0.06414 0.0
H1150 H 0.82321 0.75594 0.0366 0.0
H1151 H 0.74108 0.69067 1.00602 0.0
H1152 H 0.66441 0.74073 0.9474 0.0
H1153 H 0.68341 0.72365 0.97429 0.0
H1154 H 0.76176 0.80068 0.01043 0.0
C1155 C 0.80523 0.73511 0.04389 0.0
C1156 C 0.74593 0.71481 1.00698 0.0
C1157 C 0.81389 0.72309 0.05947 0.0
C1158 C 0.68571 0.758 0.95464 0.0
C1159 C 0.697 0.74814 0.96989 0.0
C1160 C 0.75754 0.77685 1.00899 0.0
C1161 C 0.77348 0.7206 0.03797 0.0
C1162 C 0.76351 0.73398 0.02224 0.0
C1163 C 0.72569 0.76927 0.97892 0.0
C1164 C 0.73942 0.75752 0.99377 0.0
H1165 H 0.74091 0.66208 0.0712 0.0
H1166 H 0.72609 0.68204 0.04346 0.0
H1167 H 0.78289 0.78043 0.03472 0.0
H1168 H 0.74303 0.83557 0.95322 0.0
H1169 H 0.76368 0.81829 0.97947 0.0
C1170 C 0.06004 0.28854 0.57758 0.0
C1171 C 0.093 0.30875 0.57647 0.0
C1172 C 0.04147 0.27824 0.5612 0.0
C1173 C 0.04486 0.27157 0.50863 0.0
H1174 H 0.96215 0.26432 0.51091 0.0
C1175 C 0.97135 0.25843 0.44154 0.0
C1176 C 0.93853 0.23698 0.44186 0.0
C1177 C 0.98954 0.26542 0.45803 0.0
C1178 C 0.98498 0.26581 0.51009 0.0
H1179 H 0.13236 0.33343 0.55712 0.0
H1180 H 0.09977 0.31611 0.52831 0.0
H1181 H 0.99579 0.28069 0.53899 0.0
H1182 H 0.89922 0.20604 0.46002 0.0
H1183 H 0.93117 0.21855 0.48908 0.0
H1184 H 0.03417 0.25739 0.47953 0.0
C1185 C 0.08832 0.30778 0.54195 0.0
C1186 C 1.00438 0.2752 0.52622 0.0
C1187 C 0.10706 0.31784 0.55845 0.0
C1188 C 0.92437 0.22271 0.45925 0.0
C1189 C 0.94267 0.22996 0.47589 0.0
C1190 C 0.02554 0.26241 0.49245 0.0
C1191 C 0.05515 0.28812 0.54312 0.0
C1192 C 0.03463 0.27823 0.52576 0.0
C1193 C 0.97554 0.25132 0.47543 0.0
C1194 C 0.99538 0.25951 0.49295 0.0
H1195 H 0.04838 0.28055 0.5912 0.0
H1196 H 1.01626 0.26242 0.56278 0.0
H1197 H 0.06768 0.27308 0.50773 0.0
H1198 H 0.98329 0.26991 0.42846 0.0
H1199 H 1.01463 0.28231 0.45717 0.0
C1200 C 0.64654 0.12895 0.10834 0.0
C1201 C 0.67402 0.1585 0.11107 0.0
C1202 C 0.6165 0.12541 0.11071 0.0
C1203 C 0.57559 0.17164 0.11061 0.0
H1204 H 0.50743 0.09757 0.13504 0.0
C1205 C 0.45905 0.16624 0.12983 0.0
C1206 C 0.43046 0.13793 0.1266 0.0
C1207 C 0.48803 0.1673 0.12842 0.0
C1208 C 0.5261 0.11822 0.12798 0.0
H1209 H 0.69128 0.20742 0.11862 0.0
H1210 H 0.63895 0.20117 0.12302 0.0
H1211 H 0.55951 0.10245 0.13189 0.0
H1212 H 0.41006 0.08827 0.1198 0.0
H1213 H 0.461 0.09019 0.11714 0.0
H1214 H 0.54238 0.18744 0.1066 0.0
C1215 C 0.64063 0.18078 0.11883 0.0
C1216 C 0.55598 0.12105 0.1262 0.0
C1217 C 0.67067 0.1843 0.11651 0.0
C1218 C 0.43161 0.11044 0.12239 0.0
C1219 C 0.46081 0.11154 0.12092 0.0
C1220 C 0.5458 0.16881 0.11236 0.0
C1221 C 0.61314 0.15134 0.11582 0.0
C1222 C 0.58117 0.14793 0.11761 0.0
C1223 C 0.4894 0.14015 0.12365 0.0
C1224 C 0.52071 0.14222 0.12123 0.0
H1225 H 0.64821 0.10845 0.10441 0.0
H1226 H 0.59589 0.10247 0.10815 0.0
H1227 H 0.59419 0.19233 0.10354 0.0
H1228 H 0.45919 0.18786 0.13333 0.0
H1229 H 0.50945 0.18956 0.13108 0.0
C1230 C 0.70003 0.59534 0.37942 0.0
C1231 C 0.72846 0.59592 0.38357 0.0
C1232 C 0.67151 0.56643 0.37816 0.0
C1233 C 0.63889 0.48016 0.37191 0.0
H1234 H 0.56803 0.47113 0.40149 0.0
C1235 C 0.53629 0.35813 0.39475 0.0
C1236 C 0.50556 0.35355 0.39583 0.0
C1237 C 0.56216 0.38807 0.39085 0.0
C1238 C 0.58733 0.47328 0.39287 0.0
H1239 H 0.74944 0.5666 0.38876 0.0
H1240 H 0.70015 0.51665 0.38643 0.0
H1241 H 0.61529 0.52306 0.39817 0.0
H1242 H 0.47785 0.37675 0.39297 0.0
H1243 H 0.52289 0.4289 0.38601 0.0
H1244 H 0.61122 0.43043 0.36676 0.0
C1245 C 0.69968 0.53834 0.38418 0.0
C1246 C 0.61445 0.50311 0.39097 0.0
C1247 C 0.72795 0.56706 0.38567 0.0
C1248 C 0.50127 0.37955 0.39254 0.0
C1249 C 0.52713 0.40948 0.38857 0.0
C1250 C 0.61175 0.45039 0.37373 0.0
C1251 C 0.67102 0.53761 0.38071 0.0
C1252 C 0.6408 0.50678 0.38079 0.0
C1253 C 0.55798 0.41423 0.38783 0.0
C1254 C 0.58583 0.44641 0.38455 0.0
H1255 H 0.69964 0.61718 0.37778 0.0
H1256 H 0.64981 0.56662 0.37535 0.0
H1257 H 0.65861 0.48228 0.36373 0.0
H1258 H 0.54052 0.33875 0.39747 0.0
H1259 H 0.58557 0.39085 0.39073 0.0
C1260 C 0.85448 0.29486 0.12619 0.0
C1261 C 0.88355 0.29659 0.12996 0.0
C1262 C 0.85194 0.32199 0.12628 0.0
C1263 C 0.89177 0.40649 0.14039 0.0
H1264 H 0.84052 0.41052 0.09955 0.0
C1265 C 0.86234 0.50759 0.13345 0.0
C1266 C 0.86268 0.51895 0.11501 0.0
C1267 C 0.86517 0.48073 0.13625 0.0
C1268 C 0.85514 0.40997 0.11096 0.0
H1269 H 0.93253 0.32803 0.13759 0.0
H1270 H 0.92833 0.37597 0.13732 0.0
H1271 H 0.84583 0.36405 0.10295 0.0
H1272 H 0.86572 0.51053 0.08507 0.0
H1273 H 0.87135 0.4644 0.08992 0.0
H1274 H 0.90176 0.45307 0.14796 0.0
C1275 C 0.90736 0.35341 0.13452 0.0
C1276 C 0.85785 0.38306 0.11309 0.0
C1277 C 0.90983 0.326 0.13463 0.0
C1278 C 0.86573 0.5027 0.09947 0.0
C1279 C 0.86859 0.47597 0.10226 0.0
C1280 C 0.88912 0.43358 0.13821 0.0
C1281 C 0.8785 0.35177 0.1299 0.0
C1282 C 0.87609 0.38085 0.12785 0.0
C1283 C 0.8683 0.46456 0.12066 0.0
C1284 C 0.87082 0.43567 0.12341 0.0
H1285 H 0.8336 0.27245 0.12291 0.0
H1286 H 0.82913 0.31963 0.12324 0.0
H1287 H 0.90586 0.40552 0.15198 0.0
H1288 H 0.86034 0.51971 0.14575 0.0
H1289 H 0.86455 0.47243 0.15061 0.0
C1290 C 0.46135 0.16552 0.38943 0.0
C1291 C 0.43301 0.13758 0.39384 0.0
C1292 C 0.49025 0.16621 0.38959 0.0
C1293 C 0.53039 0.12646 0.41018 0.0
H1294 H 0.59385 0.17446 0.37199 0.0
C1295 C 0.65203 0.13292 0.40925 0.0
C1296 C 0.67878 0.16237 0.40502 0.0
C1297 C 0.62148 0.12811 0.40689 0.0
C1298 C 0.57655 0.16122 0.38289 0.0
H1299 H 0.41298 0.08829 0.40169 0.0
H1300 H 0.46376 0.08954 0.40201 0.0
H1301 H 0.54141 0.16854 0.36942 0.0
H1302 H 0.69417 0.20986 0.39497 0.0
H1303 H 0.64095 0.20158 0.39097 0.0
H1304 H 0.56567 0.1196 0.42384 0.0
C1305 C 0.46344 0.11095 0.3985 0.0
C1306 C 0.54641 0.15775 0.38138 0.0
C1307 C 0.43432 0.11018 0.3982 0.0
C1308 C 0.67414 0.18678 0.39815 0.0
C1309 C 0.64357 0.18199 0.39584 0.0
C1310 C 0.56059 0.13001 0.41172 0.0
C1311 C 0.49177 0.13905 0.39424 0.0
C1312 C 0.52304 0.14063 0.39512 0.0
C1313 C 0.6168 0.15262 0.40026 0.0
C1314 C 0.5842 0.14773 0.3982 0.0
H1315 H 0.46136 0.18712 0.38597 0.0
H1316 H 0.51158 0.18836 0.3865 0.0
H1317 H 0.51311 0.11347 0.42114 0.0
H1318 H 0.65467 0.11339 0.41422 0.0
H1319 H 0.6015 0.10502 0.41011 0.0
C1320 C 0.5017 0.37894 0.12659 0.0
C1321 C 0.50524 0.35298 0.12177 0.0
C1322 C 0.5282 0.4088 0.12971 0.0
C1323 C 0.61488 0.44929 0.13935 0.0
H1324 H 0.6144 0.52298 0.11922 0.0
C1325 C 0.72892 0.5682 0.12671 0.0
C1326 C 0.72923 0.59647 0.13088 0.0
C1327 C 0.70099 0.53905 0.12792 0.0
C1328 C 0.61477 0.50272 0.12519 0.0
H1329 H 0.53958 0.33824 0.11645 0.0
H1330 H 0.58572 0.39023 0.12168 0.0
H1331 H 0.56696 0.47102 0.11673 0.0
H1332 H 0.70028 0.61608 0.13993 0.0
H1333 H 0.65114 0.56488 0.14192 0.0
H1334 H 0.66298 0.48094 0.14733 0.0
C1335 C 0.56245 0.38746 0.12344 0.0
C1336 C 0.58753 0.47286 0.12377 0.0
C1337 C 0.53596 0.35758 0.1204 0.0
C1338 C 0.70088 0.59477 0.13665 0.0
C1339 C 0.67272 0.56548 0.13767 0.0
C1340 C 0.64212 0.47909 0.14067 0.0
C1341 C 0.55897 0.41356 0.12804 0.0
C1342 C 0.58734 0.44565 0.13059 0.0
C1343 C 0.67245 0.53729 0.13322 0.0
C1344 C 0.64256 0.50611 0.13337 0.0
H1345 H 0.47838 0.37614 0.12806 0.0
H1346 H 0.52452 0.42814 0.13355 0.0
H1347 H 0.61548 0.42906 0.14515 0.0
H1348 H 0.75031 0.56851 0.12231 0.0
H1349 H 0.70162 0.51791 0.12419 0.0
C1350 C 0.84026 0.48783 0.39543 0.0
C1351 C 0.86579 0.5189 0.39393 0.0
C1352 C 0.84432 0.46205 0.39148 0.0
C1353 C 0.90672 0.44006 0.38824 0.0
H1354 H 0.83869 0.3632 0.36641 0.0
C1355 C 0.91681 0.32795 0.37444 0.0
C1356 C 0.89142 0.30009 0.38193 0.0
C1357 C 0.91499 0.35568 0.3732 0.0
C1358 C 0.85793 0.38452 0.37251 0.0
H1359 H 0.91531 0.54726 0.38631 0.0
H1360 H 0.92231 0.50241 0.37917 0.0
H1361 H 0.8329 0.40971 0.36925 0.0
H1362 H 0.84374 0.27911 0.39319 0.0
H1363 H 0.84052 0.32695 0.39081 0.0
H1364 H 0.9316 0.41459 0.39157 0.0
C1365 C 0.8993 0.49784 0.38386 0.0
C1366 C 0.85455 0.41116 0.37424 0.0
C1367 C 0.89527 0.5236 0.38792 0.0
C1368 C 0.86388 0.30023 0.38751 0.0
C1369 C 0.86189 0.32762 0.386 0.0
C1370 C 0.91018 0.41345 0.38636 0.0
C1371 C 0.87398 0.46668 0.38579 0.0
C1372 C 0.87863 0.43912 0.38249 0.0
C1373 C 0.8875 0.35577 0.37905 0.0
C1374 C 0.88556 0.38518 0.37884 0.0
H1375 H 0.81734 0.48339 0.40023 0.0
H1376 H 0.82437 0.43845 0.39344 0.0
H1377 H 0.92565 0.46098 0.39487 0.0
H1378 H 0.93833 0.32855 0.37005 0.0
H1379 H 0.93506 0.37703 0.36771 0.0
C1380 C 0.14795 0.64913 0.63735 0.0
C1381 C 0.16841 0.66853 0.62289 0.0
C1382 C 0.14405 0.61913 0.64094 0.0
C1383 C 0.18288 0.57156 0.63299 0.0
H1384 H 0.09889 0.49886 0.63945 0.0
C1385 C 0.1584 0.44628 0.6198 0.0
C1386 C 0.13901 0.42176 0.63243 0.0
C1387 C 0.16117 0.47598 0.62112 0.0
C1388 C 0.12252 0.51898 0.63797 0.0
H1389 H 0.20138 0.6718 0.60122 0.0
H1390 H 0.19441 0.61969 0.6073 0.0
H1391 H 0.10569 0.55195 0.63722 0.0
H1392 H 0.10684 0.40944 0.65624 0.0
H1393 H 0.11158 0.46186 0.65846 0.0
H1394 H 0.19971 0.53877 0.6333 0.0
C1395 C 0.18144 0.62759 0.61597 0.0
C1396 C 0.12645 0.54941 0.63669 0.0
C1397 C 0.18519 0.65739 0.61233 0.0
C1398 C 0.12199 0.42775 0.6463 0.0
C1399 C 0.12464 0.45772 0.64754 0.0
C1400 C 0.17897 0.54129 0.63425 0.0
C1401 C 0.16078 0.608 0.63028 0.0
C1402 C 0.15663 0.57599 0.6337 0.0
C1403 C 0.14464 0.48227 0.63508 0.0
C1404 C 0.14869 0.51454 0.63626 0.0
H1405 H 0.13447 0.65688 0.64565 0.0
H1406 H 0.1281 0.60474 0.65214 0.0
H1407 H 0.20653 0.59152 0.63118 0.0
H1408 H 0.17185 0.44276 0.60884 0.0
H1409 H 0.17625 0.49409 0.61104 0.0
C1410 C 0.33047 0.90773 0.87781 0.0
C1411 C 0.30383 0.88355 0.88714 0.0
C1412 C 0.35837 0.90626 0.8763 0.0
C1413 C 0.38821 0.84972 0.88016 0.0
H1414 H 0.46859 0.92382 0.89237 0.0
C1415 C 0.49612 0.84139 0.90468 0.0
C1416 C 0.52601 0.86346 0.89747 0.0
C1417 C 0.46974 0.84454 0.90092 0.0
C1418 C 0.44638 0.90302 0.88867 0.0
H1419 H 0.28554 0.8385 0.90178 0.0
H1420 H 0.33364 0.83624 0.89936 0.0
H1421 H 0.42111 0.92833 0.8897 0.0
H1422 H 0.55168 0.9063 0.88075 0.0
H1423 H 0.50549 0.91186 0.87421 0.0
H1424 H 0.41322 0.82422 0.8797 0.0
C1425 C 0.33315 0.85619 0.893 0.0
C1426 C 0.41919 0.90562 0.88709 0.0
C1427 C 0.30554 0.8577 0.89456 0.0
C1428 C 0.5289 0.88876 0.88637 0.0
C1429 C 0.50253 0.89209 0.88276 0.0
C1430 C 0.41528 0.8471 0.88184 0.0
C1431 C 0.36 0.88044 0.88395 0.0
C1432 C 0.38963 0.87882 0.88324 0.0
C1433 C 0.47265 0.86999 0.88998 0.0
C1434 C 0.44456 0.87356 0.88651 0.0
H1435 H 0.32996 0.92796 0.87193 0.0
H1436 H 0.3786 0.92526 0.86914 0.0
H1437 H 0.36597 0.82873 0.87676 0.0
H1438 H 0.49308 0.82154 0.91317 0.0
H1439 H 0.44712 0.8273 0.90687 0.0
C1440 C 0.59904 0.68948 0.62288 0.0
C1441 C 0.60071 0.71838 0.62707 0.0
C1442 C 0.56968 0.66134 0.62225 0.0
C1443 C 0.48631 0.6257 0.63831 0.0
H1444 H 0.46755 0.56897 0.59573 0.0
C1445 C 0.35854 0.52764 0.62063 0.0
C1446 C 0.35379 0.49871 0.61358 0.0
C1447 C 0.38917 0.55331 0.62318 0.0
C1448 C 0.47247 0.58425 0.60789 0.0
H1449 H 0.57274 0.74009 0.63429 0.0
H1450 H 0.52208 0.69141 0.63324 0.0
H1451 H 0.52031 0.61506 0.59895 0.0
H1452 H 0.37773 0.47388 0.60431 0.0
H1453 H 0.43098 0.51841 0.60889 0.0
H1454 H 0.43855 0.59506 0.64726 0.0
C1455 C 0.54331 0.69032 0.6305 0.0
C1456 C 0.50279 0.61072 0.60972 0.0
C1457 C 0.57246 0.71835 0.63097 0.0
C1458 C 0.38047 0.49598 0.60943 0.0
C1459 C 0.41107 0.52158 0.61205 0.0
C1460 C 0.45606 0.59919 0.63653 0.0
C1461 C 0.54145 0.66147 0.62602 0.0
C1462 C 0.50998 0.63199 0.62483 0.0
C1463 C 0.41589 0.55068 0.61885 0.0
C1464 C 0.44857 0.57827 0.62118 0.0
H1465 H 0.6203 0.68866 0.61978 0.0
H1466 H 0.56909 0.63946 0.61888 0.0
H1467 H 0.49118 0.64132 0.65029 0.0
H1468 H 0.33856 0.53071 0.62377 0.0
H1469 H 0.39186 0.57545 0.62818 0.0
C1470 C 0.19507 0.66854 0.90216 0.0
C1471 C 0.16892 0.67307 0.90081 0.0
C1472 C 0.19172 0.63886 0.89863 0.0
C1473 C 0.13102 0.55356 0.89686 0.0
H1474 H 0.19888 0.54632 0.87354 0.0
C1475 C 0.1221 0.43226 0.88226 0.0
C1476 C 0.14842 0.43023 0.88838 0.0
C1477 C 0.12346 0.46161 0.88156 0.0
C1478 C 0.17974 0.54796 0.88011 0.0
H1479 H 0.11898 0.65016 0.89394 0.0
H1480 H 0.11321 0.59856 0.88756 0.0
H1481 H 0.20354 0.59816 0.87643 0.0
H1482 H 0.19716 0.45763 0.89792 0.0
H1483 H 0.19948 0.50837 0.89659 0.0
H1484 H 0.10736 0.50326 0.90059 0.0
C1485 C 0.13618 0.61772 0.8918 0.0
C1486 C 0.18245 0.57771 0.88185 0.0
C1487 C 0.1395 0.64735 0.89543 0.0
C1488 C 0.17633 0.45822 0.89325 0.0
C1489 C 0.17779 0.48744 0.89235 0.0
C1490 C 0.12824 0.52376 0.89501 0.0
C1491 C 0.16217 0.61296 0.89353 0.0
C1492 C 0.15837 0.58101 0.89053 0.0
C1493 C 0.15132 0.48951 0.88668 0.0
C1494 C 0.1528 0.52068 0.88691 0.0
H1495 H 0.21797 0.68775 0.90648 0.0
H1496 H 0.21219 0.63605 0.90041 0.0
H1497 H 0.11215 0.55513 0.90384 0.0
H1498 H 0.10026 0.41114 0.87843 0.0
H1499 H 0.10273 0.46249 0.87702 0.0
C1500 C 0.30698 0.85654 0.62773 0.0
C1501 C 0.30675 0.88518 0.62678 0.0
C1502 C 0.33517 0.85608 0.62617 0.0
C1503 C 0.42166 0.90376 0.63081 0.0
H1504 H 0.41926 0.83791 0.59907 0.0
C1505 C 0.53291 0.89307 0.61475 0.0
C1506 C 0.52854 0.86236 0.61415 0.0
C1507 C 0.50695 0.89773 0.61631 0.0
C1508 C 0.42032 0.85623 0.60817 0.0
H1509 H 0.33647 0.936 0.62392 0.0
H1510 H 0.38613 0.93515 0.62125 0.0
H1511 H 0.37257 0.84327 0.60166 0.0
H1512 H 0.49341 0.8125 0.61548 0.0
H1513 H 0.44831 0.82055 0.6183 0.0
H1514 H 0.46944 0.91643 0.63747 0.0
C1515 C 0.3642 0.91306 0.62321 0.0
C1516 C 0.39353 0.85936 0.60961 0.0
C1517 C 0.33576 0.91353 0.6247 0.0
C1518 C 0.49763 0.83646 0.61552 0.0
C1519 C 0.47173 0.84111 0.61712 0.0
C1520 C 0.44856 0.90056 0.62941 0.0
C1521 C 0.3641 0.88421 0.62364 0.0
C1522 C 0.39366 0.88282 0.62117 0.0
C1523 C 0.47598 0.87178 0.61732 0.0
C1524 C 0.44805 0.87642 0.61828 0.0
H1525 H 0.28525 0.83418 0.62947 0.0
H1526 H 0.33427 0.83351 0.62696 0.0
H1527 H 0.42247 0.92196 0.63991 0.0
H1528 H 0.55636 0.91357 0.6135 0.0
H1529 H 0.51112 0.92167 0.61624 0.0
C1530 C 0.574 0.73051 0.88978 0.0
C1531 C 0.60189 0.72922 0.88752 0.0
C1532 C 0.54456 0.70295 0.88991 0.0
C1533 C 0.50157 0.61721 0.87896 0.0
H1534 H 0.44469 0.61573 0.91782 0.0
C1535 C 0.37084 0.51579 0.88601 0.0
C1536 C 0.35923 0.50588 0.90453 0.0
C1537 C 0.40068 0.54249 0.88304 0.0
C1538 C 0.46031 0.61557 0.90699 0.0
H1539 H 0.62066 0.69804 0.88273 0.0
H1540 H 0.56888 0.6494 0.88331 0.0
H1541 H 0.49629 0.66253 0.91387 0.0
H1542 H 0.36985 0.51664 0.93443 0.0
H1543 H 0.42186 0.56259 0.92929 0.0
H1544 H 0.46556 0.5697 0.87249 0.0
C1545 C 0.5699 0.67193 0.88479 0.0
C1546 C 0.48982 0.64264 0.90453 0.0
C1547 C 0.59956 0.69974 0.88448 0.0
C1548 C 0.37813 0.52336 0.91998 0.0
C1549 C 0.40787 0.54996 0.91702 0.0
C1550 C 0.47191 0.58998 0.88144 0.0
C1551 C 0.54212 0.67322 0.888 0.0
C1552 C 0.51082 0.64393 0.89045 0.0
C1553 C 0.41952 0.55996 0.89852 0.0
C1554 C 0.45095 0.58884 0.89553 0.0
H1555 H 0.57492 0.75291 0.8918 0.0
H1556 H 0.52365 0.70495 0.89185 0.0
H1557 H 0.51709 0.61745 0.86793 0.0
H1558 H 0.35706 0.50268 0.87379 0.0
H1559 H 0.40879 0.54968 0.86861 0.0
loop_
_geom_bond_atom_site_label_1
_geom_bond_atom_site_label_2
_geom_bond_distance
_geom_bond_site_symmetry_2
_ccdc_geom_bond_type
Tb0 C9 2.764 . S
Tb0 O10 2.325 . S
Tb0 O13 2.303 . S
Tb0 O17 2.322 . S
Tb0 O18 2.349 . S
Tb0 O21 2.415 . S
Tb0 O22 2.399 . S
Tb1 O11 2.322 . S
Tb1 O12 2.349 . S
Tb1 O14 2.415 . S
Tb1 O15 2.399 . S
Tb1 O16 2.325 . S
Tb1 O19 2.303 . S
Tb1 C30 2.764 . S
C2 O18 1.261 . S
C2 O19 1.257 . S
C3 C6 1.358 . S
C3 C7 1.332 . S
C3 C9 1.504 . S
C4 C5 1.373 . S
C4 C8 1.308 . S
C5 C4 1.373 . S
C5 C6 1.429 1_565 S
C5 H32 0.932 . S
C6 C3 1.358 . S
C6 C5 1.429 1_545 S
C6 H33 0.930 . S
C7 C3 1.332 . S
C7 C8 1.394 1_545 S
C7 H34 0.932 . S
C8 C4 1.308 . S
C8 C7 1.394 1_565 S
C8 H35 0.929 . S
C9 Tb0 2.764 . S
C9 C3 1.504 . S
C9 O21 1.239 . S
C9 O22 1.263 . S
O10 Tb0 2.325 . S
O10 C20 1.236 . S
O11 Tb1 2.322 . S
O11 C20 1.257 . S
O12 Tb1 2.349 . S
O12 C23 1.261 . S
O13 Tb0 2.303 . S
O13 C23 1.257 . S
O14 Tb1 2.415 . S
O14 C30 1.239 . S
O15 Tb1 2.399 . S
O15 C30 1.263 . S
O16 Tb1 2.325 . S
O16 C31 1.236 . S
O17 Tb0 2.322 . S
O17 C31 1.257 . S
O18 Tb0 2.349 . S
O18 C2 1.261 . S
O19 Tb1 2.303 . S
O19 C2 1.257 . S
C20 O10 1.236 . S
C20 O11 1.257 . S
O21 Tb0 2.415 . S
O21 C9 1.239 . S
O22 Tb0 2.399 . S
O22 C9 1.263 . S
C23 O12 1.261 . S
C23 O13 1.257 . S
C24 C27 1.358 . S
C24 C28 1.332 . S
C24 C30 1.504 . S
C25 C26 1.373 . S
C25 C29 1.308 . S
C26 C25 1.373 . S
C26 C27 1.429 . S
C26 H36 0.932 . S
C27 C24 1.358 . S
C27 C26 1.429 . S
C27 H37 0.930 . S
C28 C24 1.332 . S
C28 C29 1.394 . S
C28 H38 0.932 . S
C29 C25 1.308 . S
C29 C28 1.394 . S
C29 H39 0.929 . S
C30 Tb1 2.764 . S
C30 O14 1.239 . S
C30 O15 1.263 . S
C30 C24 1.504 . S
C31 O16 1.236 . S
C31 O17 1.257 . S
H32 C5 0.932 . S
H33 C6 0.930 . S
H34 C7 0.932 . S
H35 C8 0.929 . S
H36 C26 0.932 . S
H37 C27 0.930 . S
H38 C28 0.932 . S
H39 C29 0.929 . S
Tb40 C49 2.764 . S
Tb40 O50 2.325 . S
Tb40 O53 2.303 . S
Tb40 O57 2.322 . S
Tb40 O58 2.349 . S
Tb40 O61 2.415 . S
Tb40 O62 2.399 . S
Tb41 O51 2.322 . S
Tb41 O52 2.349 . S
Tb41 O54 2.415 . S
Tb41 O55 2.399 . S
Tb41 O56 2.325 . S
Tb41 O59 2.303 . S
Tb41 C70 2.764 . S
C42 O58 1.261 . S
C42 O59 1.257 . S
C43 C46 1.358 . S
C43 C47 1.332 . S
C43 C49 1.504 . S
C44 C45 1.373 . S
C44 C48 1.308 . S
C45 C44 1.373 . S
C45 C46 1.429 . S
C45 H72 0.932 . S
C46 C43 1.358 . S
C46 C45 1.429 . S
C46 H73 0.930 . S
C47 C43 1.332 . S
C47 C48 1.394 . S
C47 H74 0.932 . S
C48 C44 1.308 . S
C48 C47 1.394 . S
C48 H75 0.929 . S
C49 Tb40 2.764 . S
C49 C43 1.504 . S
C49 O61 1.239 . S
C49 O62 1.263 . S
O50 Tb40 2.325 . S
O50 C60 1.236 . S
O51 Tb41 2.322 . S
O51 C60 1.257 . S
O52 Tb41 2.349 . S
O52 C63 1.261 . S
O53 Tb40 2.303 . S
O53 C63 1.257 . S
O54 Tb41 2.415 . S
O54 C70 1.239 . S
O55 Tb41 2.399 . S
O55 C70 1.263 . S
O56 Tb41 2.325 . S
O56 C71 1.236 . S
O57 Tb40 2.322 . S
O57 C71 1.257 . S
O58 Tb40 2.349 . S
O58 C42 1.261 . S
O59 Tb41 2.303 . S
O59 C42 1.257 . S
C60 O50 1.236 . S
C60 O51 1.257 . S
O61 Tb40 2.415 . S
O61 C49 1.239 . S
O62 Tb40 2.399 . S
O62 C49 1.263 . S
C63 O52 1.261 . S
C63 O53 1.257 . S
C64 C67 1.358 . S
C64 C68 1.332 . S
C64 C70 1.504 . S
C65 C66 1.373 . S
C65 C69 1.308 . S
C66 C65 1.373 . S
C66 C67 1.429 . S
C66 H76 0.932 . S
C67 C64 1.358 . S
C67 C66 1.429 . S
C67 H77 0.930 . S
C68 C64 1.332 . S
C68 C69 1.394 . S
C68 H78 0.932 . S
C69 C65 1.308 . S
C69 C68 1.394 . S
C69 H79 0.929 . S
C70 Tb41 2.764 . S
C70 O54 1.239 . S
C70 O55 1.263 . S
C70 C64 1.504 . S
C71 O56 1.236 . S
C71 O57 1.257 . S
H72 C45 0.932 . S
H73 C46 0.930 . S
H74 C47 0.932 . S
H75 C48 0.929 . S
H76 C66 0.932 . S
H77 C67 0.930 . S
H78 C68 0.932 . S
H79 C69 0.929 . S
Tb80 C89 2.764 . S
Tb80 O90 2.325 . S
Tb80 O93 2.303 . S
Tb80 O97 2.322 . S
Tb80 O98 2.349 . S
Tb80 O101 2.415 . S
Tb80 O102 2.399 . S
Tb81 O91 2.322 . S
Tb81 O92 2.349 . S
Tb81 O94 2.415 . S
Tb81 O95 2.399 . S
Tb81 O96 2.325 . S
Tb81 O99 2.303 . S
Tb81 C110 2.764 . S
C82 O98 1.261 . S
C82 O99 1.257 . S
C83 C86 1.358 . S
C83 C87 1.332 . S
C83 C89 1.504 . S
C84 C85 1.373 . S
C84 C88 1.308 . S
C85 C84 1.373 . S
C85 C86 1.429 1_455 S
C85 H112 0.932 . S
C86 C83 1.358 . S
C86 C85 1.429 1_655 S
C86 H113 0.930 . S
C87 C83 1.332 . S
C87 C88 1.394 1_655 S
C87 H114 0.932 . S
C88 C84 1.308 . S
C88 C87 1.394 1_455 S
C88 H115 0.929 . S
C89 Tb80 2.764 . S
C89 C83 1.504 . S
C89 O101 1.239 . S
C89 O102 1.263 . S
O90 Tb80 2.325 . S
O90 C100 1.236 . S
O91 Tb81 2.322 . S
O91 C100 1.257 . S
O92 Tb81 2.349 . S
O92 C103 1.261 . S
O93 Tb80 2.303 . S
O93 C103 1.257 . S
O94 Tb81 2.415 . S
O94 C110 1.239 . S
O95 Tb81 2.399 . S
O95 C110 1.263 . S
O96 Tb81 2.325 . S
O96 C111 1.236 . S
O97 Tb80 2.322 . S
O97 C111 1.257 . S
O98 Tb80 2.349 . S
O98 C82 1.261 . S
O99 Tb81 2.303 . S
O99 C82 1.257 . S
C100 O90 1.236 . S
C100 O91 1.257 . S
O101 Tb80 2.415 . S
O101 C89 1.239 . S
O102 Tb80 2.399 . S
O102 C89 1.263 . S
C103 O92 1.261 . S
C103 O93 1.257 . S
C104 C107 1.358 . S
C104 C108 1.332 . S
C104 C110 1.504 . S
C105 C106 1.373 . S
C105 C109 1.308 . S
C106 C105 1.373 . S
C106 C107 1.429 . S
C106 H116 0.932 . S
C107 C104 1.358 . S
C107 C106 1.429 . S
C107 H117 0.930 . S
C108 C104 1.332 . S
C108 C109 1.394 . S
C108 H118 0.932 . S
C109 C105 1.308 . S
C109 C108 1.394 . S
C109 H119 0.929 . S
C110 Tb81 2.764 . S
C110 O94 1.239 . S
C110 O95 1.263 . S
C110 C104 1.504 . S
C111 O96 1.236 . S
C111 O97 1.257 . S
H112 C85 0.932 . S
H113 C86 0.930 . S
H114 C87 0.932 . S
H115 C88 0.929 . S
H116 C106 0.932 . S
H117 C107 0.930 . S
H118 C108 0.932 . S
H119 C109 0.929 . S
Tb120 C129 2.764 . S
Tb120 O130 2.325 . S
Tb120 O133 2.303 . S
Tb120 O137 2.322 . S
Tb120 O138 2.349 . S
Tb120 O141 2.415 . S
Tb120 O142 2.399 . S
Tb121 O131 2.322 . S
Tb121 O132 2.349 . S
Tb121 O134 2.415 . S
Tb121 O135 2.399 . S
Tb121 O136 2.325 . S
Tb121 O139 2.303 . S
Tb121 C150 2.764 . S
C122 O138 1.261 . S
C122 O139 1.257 . S
C123 C126 1.358 . S
C123 C127 1.332 . S
C123 C129 1.504 . S
C124 C125 1.373 . S
C124 C128 1.308 . S
C125 C124 1.373 . S
C125 C126 1.429 . S
C125 H152 0.932 . S
C126 C123 1.358 . S
C126 C125 1.429 . S
C126 H153 0.930 . S
C127 C123 1.332 . S
C127 C128 1.394 . S
C127 H154 0.932 . S
C128 C124 1.308 . S
C128 C127 1.394 . S
C128 H155 0.929 . S
C129 Tb120 2.764 . S
C129 C123 1.504 . S
C129 O141 1.239 . S
C129 O142 1.263 . S
O130 Tb120 2.325 . S
O130 C140 1.236 . S
O131 Tb121 2.322 . S
O131 C140 1.257 . S
O132 Tb121 2.349 . S
O132 C143 1.261 . S
O133 Tb120 2.303 . S
O133 C143 1.257 . S
O134 Tb121 2.415 . S
O134 C150 1.239 . S
O135 Tb121 2.399 . S
O135 C150 1.263 . S
O136 Tb121 2.325 . S
O136 C151 1.236 . S
O137 Tb120 2.322 . S
O137 C151 1.257 . S
O138 Tb120 2.349 . S
O138 C122 1.261 . S
O139 Tb121 2.303 . S
O139 C122 1.257 . S
C140 O130 1.236 . S
C140 O131 1.257 . S
O141 Tb120 2.415 . S
O141 C129 1.239 . S
O142 Tb120 2.399 . S
O142 C129 1.263 . S
C143 O132 1.261 . S
C143 O133 1.257 . S
C144 C147 1.358 . S
C144 C148 1.332 . S
C144 C150 1.504 . S
C145 C146 1.373 . S
C145 C149 1.308 . S
C146 C145 1.373 . S
C146 C147 1.429 1_565 S
C146 H156 0.932 . S
C147 C144 1.358 . S
C147 C146 1.429 1_545 S
C147 H157 0.930 . S
C148 C144 1.332 . S
C148 C149 1.394 1_545 S
C148 H158 0.932 . S
C149 C145 1.308 . S
C149 C148 1.394 1_565 S
C149 H159 0.929 . S
C150 Tb121 2.764 . S
C150 O134 1.239 . S
C150 O135 1.263 . S
C150 C144 1.504 . S
C151 O136 1.236 . S
C151 O137 1.257 . S
H152 C125 0.932 . S
H153 C126 0.930 . S
H154 C127 0.932 . S
H155 C128 0.929 . S
H156 C146 0.932 . S
H157 C147 0.930 . S
H158 C148 0.932 . S
H159 C149 0.929 . S
Tb160 C169 2.764 . S
Tb160 O170 2.325 . S
Tb160 O173 2.303 . S
Tb160 O177 2.322 . S
Tb160 O178 2.349 . S
Tb160 O181 2.415 . S
Tb160 O182 2.399 . S
Tb161 O171 2.322 . S
Tb161 O172 2.349 . S
Tb161 O174 2.415 . S
Tb161 O175 2.399 . S
Tb161 O176 2.325 . S
Tb161 O179 2.303 . S
Tb161 C190 2.764 . S
C162 O178 1.261 . S
C162 O179 1.257 . S
C163 C166 1.358 . S
C163 C167 1.332 . S
C163 C169 1.504 . S
C164 C165 1.373 . S
C164 C168 1.308 . S
C165 C164 1.373 . S
C165 C166 1.429 . S
C165 H192 0.932 . S
C166 C163 1.358 . S
C166 C165 1.429 . S
C166 H193 0.930 . S
C167 C163 1.332 . S
C167 C168 1.394 . S
C167 H194 0.932 . S
C168 C164 1.308 . S
C168 C167 1.394 . S
C168 H195 0.929 . S
C169 Tb160 2.764 . S
C169 C163 1.504 . S
C169 O181 1.239 . S
C169 O182 1.263 . S
O170 Tb160 2.325 . S
O170 C180 1.236 . S
O171 Tb161 2.322 . S
O171 C180 1.257 . S
O172 Tb161 2.349 . S
O172 C183 1.261 . S
O173 Tb160 2.303 . S
O173 C183 1.257 . S
O174 Tb161 2.415 . S
O174 C190 1.239 . S
O175 Tb161 2.399 . S
O175 C190 1.263 . S
O176 Tb161 2.325 . S
O176 C191 1.236 . S
O177 Tb160 2.322 . S
O177 C191 1.257 . S
O178 Tb160 2.349 . S
O178 C162 1.261 . S
O179 Tb161 2.303 . S
O179 C162 1.257 . S
C180 O170 1.236 . S
C180 O171 1.257 . S
O181 Tb160 2.415 . S
O181 C169 1.239 . S
O182 Tb160 2.399 . S
O182 C169 1.263 . S
C183 O172 1.261 . S
C183 O173 1.257 . S
C184 C187 1.358 . S
C184 C188 1.332 . S
C184 C190 1.504 . S
C185 C186 1.373 . S
C185 C189 1.308 . S
C186 C185 1.373 . S
C186 C187 1.429 . S
C186 H196 0.932 . S
C187 C184 1.358 . S
C187 C186 1.429 . S
C187 H197 0.930 . S
C188 C184 1.332 . S
C188 C189 1.394 . S
C188 H198 0.932 . S
C189 C185 1.308 . S
C189 C188 1.394 . S
C189 H199 0.929 . S
C190 Tb161 2.764 . S
C190 O174 1.239 . S
C190 O175 1.263 . S
C190 C184 1.504 . S
C191 O176 1.236 . S
C191 O177 1.257 . S
H192 C165 0.932 . S
H193 C166 0.930 . S
H194 C167 0.932 . S
H195 C168 0.929 . S
H196 C186 0.932 . S
H197 C187 0.930 . S
H198 C188 0.932 . S
H199 C189 0.929 . S
Tb200 C209 2.764 . S
Tb200 O210 2.325 . S
Tb200 O213 2.303 . S
Tb200 O217 2.322 . S
Tb200 O218 2.349 . S
Tb200 O221 2.415 . S
Tb200 O222 2.399 . S
Tb201 O211 2.322 . S
Tb201 O212 2.349 . S
Tb201 O214 2.415 . S
Tb201 O215 2.399 . S
Tb201 O216 2.325 . S
Tb201 O219 2.303 . S
Tb201 C230 2.764 . S
C202 O218 1.261 . S
C202 O219 1.257 . S
C203 C206 1.358 . S
C203 C207 1.332 . S
C203 C209 1.504 . S
C204 C205 1.373 . S
C204 C208 1.308 . S
C205 C204 1.373 . S
C205 C206 1.429 . S
C205 H232 0.932 . S
C206 C203 1.358 . S
C206 C205 1.429 . S
C206 H233 0.930 . S
C207 C203 1.332 . S
C207 C208 1.394 . S
C207 H234 0.932 . S
C208 C204 1.308 . S
C208 C207 1.394 . S
C208 H235 0.929 . S
C209 Tb200 2.764 . S
C209 C203 1.504 . S
C209 O221 1.239 . S
C209 O222 1.263 . S
O210 Tb200 2.325 . S
O210 C220 1.236 . S
O211 Tb201 2.322 . S
O211 C220 1.257 . S
O212 Tb201 2.349 . S
O212 C223 1.261 . S
O213 Tb200 2.303 . S
O213 C223 1.257 . S
O214 Tb201 2.415 . S
O214 C230 1.239 . S
O215 Tb201 2.399 . S
O215 C230 1.263 . S
O216 Tb201 2.325 . S
O216 C231 1.236 . S
O217 Tb200 2.322 . S
O217 C231 1.257 . S
O218 Tb200 2.349 . S
O218 C202 1.261 . S
O219 Tb201 2.303 . S
O219 C202 1.257 . S
C220 O210 1.236 . S
C220 O211 1.257 . S
O221 Tb200 2.415 . S
O221 C209 1.239 . S
O222 Tb200 2.399 . S
O222 C209 1.263 . S
C223 O212 1.261 . S
C223 O213 1.257 . S
C224 C227 1.358 . S
C224 C228 1.332 . S
C224 C230 1.504 . S
C225 C226 1.373 . S
C225 C229 1.308 . S
C226 C225 1.373 . S
C226 C227 1.429 1_455 S
C226 H236 0.932 . S
C227 C224 1.358 . S
C227 C226 1.429 1_655 S
C227 H237 0.930 . S
C228 C224 1.332 . S
C228 C229 1.394 1_655 S
C228 H238 0.932 . S
C229 C225 1.308 . S
C229 C228 1.394 1_455 S
C229 H239 0.929 . S
C230 Tb201 2.764 . S
C230 O214 1.239 . S
C230 O215 1.263 . S
C230 C224 1.504 . S
C231 O216 1.236 . S
C231 O217 1.257 . S
H232 C205 0.932 . S
H233 C206 0.930 . S
H234 C207 0.932 . S
H235 C208 0.929 . S
H236 C226 0.932 . S
H237 C227 0.930 . S
H238 C228 0.932 . S
H239 C229 0.929 . S
Tb240 C249 2.764 . S
Tb240 O250 2.325 . S
Tb240 O253 2.303 . S
Tb240 O257 2.322 . S
Tb240 O258 2.349 . S
Tb240 O261 2.415 . S
Tb240 O262 2.399 . S
Tb241 O251 2.322 . S
Tb241 O252 2.349 . S
Tb241 O254 2.415 . S
Tb241 O255 2.399 . S
Tb241 O256 2.325 . S
Tb241 O259 2.303 . S
Tb241 C270 2.764 . S
C242 O258 1.261 . S
C242 O259 1.257 . S
C243 C246 1.358 . S
C243 C247 1.332 . S
C243 C249 1.504 . S
C244 C245 1.373 . S
C244 C248 1.308 . S
C245 C244 1.373 . S
C245 C246 1.429 . S
C245 H272 0.932 . S
C246 C243 1.358 . S
C246 C245 1.429 . S
C246 H273 0.930 . S
C247 C243 1.332 . S
C247 C248 1.394 . S
C247 H274 0.932 . S
C248 C244 1.308 . S
C248 C247 1.394 . S
C248 H275 0.929 . S
C249 Tb240 2.764 . S
C249 C243 1.504 . S
C249 O261 1.239 . S
C249 O262 1.263 . S
O250 Tb240 2.325 . S
O250 C260 1.236 . S
O251 Tb241 2.322 . S
O251 C260 1.257 . S
O252 Tb241 2.349 . S
O252 C263 1.261 . S
O253 Tb240 2.303 . S
O253 C263 1.257 . S
O254 Tb241 2.415 . S
O254 C270 1.239 . S
O255 Tb241 2.399 . S
O255 C270 1.263 . S
O256 Tb241 2.325 . S
O256 C271 1.236 . S
O257 Tb240 2.322 . S
O257 C271 1.257 . S
O258 Tb240 2.349 . S
O258 C242 1.261 . S
O259 Tb241 2.303 . S
O259 C242 1.257 . S
C260 O250 1.236 . S
C260 O251 1.257 . S
O261 Tb240 2.415 . S
O261 C249 1.239 . S
O262 Tb240 2.399 . S
O262 C249 1.263 . S
C263 O252 1.261 . S
C263 O253 1.257 . S
C264 C267 1.358 . S
C264 C268 1.332 . S
C264 C270 1.504 . S
C265 C266 1.373 . S
C265 C269 1.308 . S
C266 C265 1.373 . S
C266 C267 1.429 1_655 S
C266 H276 0.932 . S
C267 C264 1.358 . S
C267 C266 1.429 1_455 S
C267 H277 0.930 . S
C268 C264 1.332 . S
C268 C269 1.394 1_455 S
C268 H278 0.932 . S
C269 C265 1.308 . S
C269 C268 1.394 1_655 S
C269 H279 0.929 . S
C270 Tb241 2.764 . S
C270 O254 1.239 . S
C270 O255 1.263 . S
C270 C264 1.504 . S
C271 O256 1.236 . S
C271 O257 1.257 . S
H272 C245 0.932 . S
H273 C246 0.930 . S
H274 C247 0.932 . S
H275 C248 0.929 . S
H276 C266 0.932 . S
H277 C267 0.930 . S
H278 C268 0.932 . S
H279 C269 0.929 . S
Tb280 C289 2.764 . S
Tb280 O290 2.325 . S
Tb280 O293 2.303 . S
Tb280 O297 2.322 . S
Tb280 O298 2.349 . S
Tb280 O301 2.415 . S
Tb280 O302 2.399 . S
Tb281 O291 2.322 . S
Tb281 O292 2.349 . S
Tb281 O294 2.415 . S
Tb281 O295 2.399 . S
Tb281 O296 2.325 . S
Tb281 O299 2.303 . S
Tb281 C310 2.764 . S
C282 O298 1.261 . S
C282 O299 1.257 . S
C283 C286 1.358 . S
C283 C287 1.332 . S
C283 C289 1.504 . S
C284 C285 1.373 . S
C284 C288 1.308 . S
C285 C284 1.373 . S
C285 C286 1.429 1_545 S
C285 H312 0.932 . S
C286 C283 1.358 . S
C286 C285 1.429 1_565 S
C286 H313 0.930 . S
C287 C283 1.332 . S
C287 C288 1.394 1_565 S
C287 H314 0.932 . S
C288 C284 1.308 . S
C288 C287 1.394 1_545 S
C288 H315 0.929 . S
C289 Tb280 2.764 . S
C289 C283 1.504 . S
C289 O301 1.239 . S
C289 O302 1.263 . S
O290 Tb280 2.325 . S
O290 C300 1.236 . S
O291 Tb281 2.322 . S
O291 C300 1.257 . S
O292 Tb281 2.349 . S
O292 C303 1.261 . S
O293 Tb280 2.303 . S
O293 C303 1.257 . S
O294 Tb281 2.415 . S
O294 C310 1.239 . S
O295 Tb281 2.399 . S
O295 C310 1.263 . S
O296 Tb281 2.325 . S
O296 C311 1.236 . S
O297 Tb280 2.322 . S
O297 C311 1.257 . S
O298 Tb280 2.349 . S
O298 C282 1.261 . S
O299 Tb281 2.303 . S
O299 C282 1.257 . S
C300 O290 1.236 . S
C300 O291 1.257 . S
O301 Tb280 2.415 . S
O301 C289 1.239 . S
O302 Tb280 2.399 . S
O302 C289 1.263 . S
C303 O292 1.261 . S
C303 O293 1.257 . S
C304 C307 1.358 . S
C304 C308 1.332 . S
C304 C310 1.504 . S
C305 C306 1.373 . S
C305 C309 1.308 . S
C306 C305 1.373 . S
C306 C307 1.429 . S
C306 H316 0.932 . S
C307 C304 1.358 . S
C307 C306 1.429 . S
C307 H317 0.930 . S
C308 C304 1.332 . S
C308 C309 1.394 . S
C308 H318 0.932 . S
C309 C305 1.308 . S
C309 C308 1.394 . S
C309 H319 0.929 . S
C310 Tb281 2.764 . S
C310 O294 1.239 . S
C310 O295 1.263 . S
C310 C304 1.504 . S
C311 O296 1.236 . S
C311 O297 1.257 . S
H312 C285 0.932 . S
H313 C286 0.930 . S
H314 C287 0.932 . S
H315 C288 0.929 . S
H316 C306 0.932 . S
H317 C307 0.930 . S
H318 C308 0.932 . S
H319 C309 0.929 . S
Tb320 C329 2.764 . S
Tb320 O330 2.325 . S
Tb320 O333 2.303 . S
Tb320 O337 2.322 . S
Tb320 O338 2.349 . S
Tb320 O341 2.415 . S
Tb320 O342 2.399 . S
Tb321 O331 2.322 . S
Tb321 O332 2.349 . S
Tb321 O334 2.415 . S
Tb321 O335 2.399 . S
Tb321 O336 2.325 . S
Tb321 O339 2.303 . S
Tb321 C350 2.764 . S
C322 O338 1.261 . S
C322 O339 1.257 . S
C323 C326 1.358 . S
C323 C327 1.332 . S
C323 C329 1.504 . S
C324 C325 1.373 . S
C324 C328 1.308 . S
C325 C324 1.373 . S
C325 C326 1.429 . S
C325 H352 0.932 . S
C326 C323 1.358 . S
C326 C325 1.429 . S
C326 H353 0.930 . S
C327 C323 1.332 . S
C327 C328 1.394 . S
C327 H354 0.932 . S
C328 C324 1.308 . S
C328 C327 1.394 . S
C328 H355 0.929 . S
C329 Tb320 2.764 . S
C329 C323 1.504 . S
C329 O341 1.239 . S
C329 O342 1.263 . S
O330 Tb320 2.325 . S
O330 C340 1.236 . S
O331 Tb321 2.322 . S
O331 C340 1.257 . S
O332 Tb321 2.349 . S
O332 C343 1.261 . S
O333 Tb320 2.303 . S
O333 C343 1.257 . S
O334 Tb321 2.415 . S
O334 C350 1.239 . S
O335 Tb321 2.399 . S
O335 C350 1.263 . S
O336 Tb321 2.325 . S
O336 C351 1.236 . S
O337 Tb320 2.322 . S
O337 C351 1.257 . S
O338 Tb320 2.349 . S
O338 C322 1.261 . S
O339 Tb321 2.303 . S
O339 C322 1.257 . S
C340 O330 1.236 . S
C340 O331 1.257 . S
O341 Tb320 2.415 . S
O341 C329 1.239 . S
O342 Tb320 2.399 . S
O342 C329 1.263 . S
C343 O332 1.261 . S
C343 O333 1.257 . S
C344 C347 1.358 . S
C344 C348 1.332 . S
C344 C350 1.504 . S
C345 C346 1.373 . S
C345 C349 1.308 . S
C346 C345 1.373 . S
C346 C347 1.429 . S
C346 H356 0.932 . S
C347 C344 1.358 . S
C347 C346 1.429 . S
C347 H357 0.930 . S
C348 C344 1.332 . S
C348 C349 1.394 . S
C348 H358 0.932 . S
C349 C345 1.308 . S
C349 C348 1.394 . S
C349 H359 0.929 . S
C350 Tb321 2.764 . S
C350 O334 1.239 . S
C350 O335 1.263 . S
C350 C344 1.504 . S
C351 O336 1.236 . S
C351 O337 1.257 . S
H352 C325 0.932 . S
H353 C326 0.930 . S
H354 C327 0.932 . S
H355 C328 0.929 . S
H356 C346 0.932 . S
H357 C347 0.930 . S
H358 C348 0.932 . S
H359 C349 0.929 . S
Tb360 C369 2.764 . S
Tb360 O370 2.325 . S
Tb360 O373 2.303 . S
Tb360 O377 2.322 . S
Tb360 O378 2.349 . S
Tb360 O381 2.415 . S
Tb360 O382 2.399 . S
Tb361 O371 2.322 . S
Tb361 O372 2.349 . S
Tb361 O374 2.415 . S
Tb361 O375 2.399 . S
Tb361 O376 2.325 . S
Tb361 O379 2.303 . S
Tb361 C390 2.764 . S
C362 O378 1.261 . S
C362 O379 1.257 . S
C363 C366 1.358 . S
C363 C367 1.332 . S
C363 C369 1.504 . S
C364 C365 1.373 . S
C364 C368 1.308 . S
C365 C364 1.373 . S
C365 C366 1.429 1_655 S
C365 H392 0.932 . S
C366 C363 1.358 . S
C366 C365 1.429 1_455 S
C366 H393 0.930 . S
C367 C363 1.332 . S
C367 C368 1.394 1_455 S
C367 H394 0.932 . S
C368 C364 1.308 . S
C368 C367 1.394 1_655 S
C368 H395 0.929 . S
C369 Tb360 2.764 . S
C369 C363 1.504 . S
C369 O381 1.239 . S
C369 O382 1.263 . S
O370 Tb360 2.325 . S
O370 C380 1.236 . S
O371 Tb361 2.322 . S
O371 C380 1.257 . S
O372 Tb361 2.349 . S
O372 C383 1.261 . S
O373 Tb360 2.303 . S
O373 C383 1.257 . S
O374 Tb361 2.415 . S
O374 C390 1.239 . S
O375 Tb361 2.399 . S
O375 C390 1.263 . S
O376 Tb361 2.325 . S
O376 C391 1.236 . S
O377 Tb360 2.322 . S
O377 C391 1.257 . S
O378 Tb360 2.349 . S
O378 C362 1.261 . S
O379 Tb361 2.303 . S
O379 C362 1.257 . S
C380 O370 1.236 . S
C380 O371 1.257 . S
O381 Tb360 2.415 . S
O381 C369 1.239 . S
O382 Tb360 2.399 . S
O382 C369 1.263 . S
C383 O372 1.261 . S
C383 O373 1.257 . S
C384 C387 1.358 . S
C384 C388 1.332 . S
C384 C390 1.504 . S
C385 C386 1.373 . S
C385 C389 1.308 . S
C386 C385 1.373 . S
C386 C387 1.429 . S
C386 H396 0.932 . S
C387 C384 1.358 . S
C387 C386 1.429 . S
C387 H397 0.930 . S
C388 C384 1.332 . S
C388 C389 1.394 . S
C388 H398 0.932 . S
C389 C385 1.308 . S
C389 C388 1.394 . S
C389 H399 0.929 . S
C390 Tb361 2.764 . S
C390 O374 1.239 . S
C390 O375 1.263 . S
C390 C384 1.504 . S
C391 O376 1.236 . S
C391 O377 1.257 . S
H392 C365 0.932 . S
H393 C366 0.930 . S
H394 C367 0.932 . S
H395 C368 0.929 . S
H396 C386 0.932 . S
H397 C387 0.930 . S
H398 C388 0.932 . S
H399 C389 0.929 . S
Tb400 C409 2.764 . S
Tb400 O410 2.325 . S
Tb400 O413 2.303 . S
Tb400 O417 2.322 . S
Tb400 O418 2.349 . S
Tb400 O421 2.415 . S
Tb400 O422 2.399 . S
Tb401 O411 2.322 . S
Tb401 O412 2.349 . S
Tb401 O414 2.415 . S
Tb401 O415 2.399 . S
Tb401 O416 2.325 . S
Tb401 O419 2.303 . S
Tb401 C430 2.764 . S
C402 O418 1.261 . S
C402 O419 1.257 . S
C403 C406 1.358 . S
C403 C407 1.332 . S
C403 C409 1.504 . S
C404 C405 1.373 . S
C404 C408 1.308 . S
C405 C404 1.373 . S
C405 C406 1.429 . S
C405 H432 0.932 . S
C406 C403 1.358 . S
C406 C405 1.429 . S
C406 H433 0.930 . S
C407 C403 1.332 . S
C407 C408 1.394 . S
C407 H434 0.932 . S
C408 C404 1.308 . S
C408 C407 1.394 . S
C408 H435 0.929 . S
C409 Tb400 2.764 . S
C409 C403 1.504 . S
C409 O421 1.239 . S
C409 O422 1.263 . S
O410 Tb400 2.325 . S
O410 C420 1.236 . S
O411 Tb401 2.322 . S
O411 C420 1.257 . S
O412 Tb401 2.349 . S
O412 C423 1.261 . S
O413 Tb400 2.303 . S
O413 C423 1.257 . S
O414 Tb401 2.415 . S
O414 C430 1.239 . S
O415 Tb401 2.399 . S
O415 C430 1.263 . S
O416 Tb401 2.325 . S
O416 C431 1.236 . S
O417 Tb400 2.322 . S
O417 C431 1.257 . S
O418 Tb400 2.349 . S
O418 C402 1.261 . S
O419 Tb401 2.303 . S
O419 C402 1.257 . S
C420 O410 1.236 . S
C420 O411 1.257 . S
O421 Tb400 2.415 . S
O421 C409 1.239 . S
O422 Tb400 2.399 . S
O422 C409 1.263 . S
C423 O412 1.261 . S
C423 O413 1.257 . S
C424 C427 1.358 . S
C424 C428 1.332 . S
C424 C430 1.504 . S
C425 C426 1.373 . S
C425 C429 1.308 . S
C426 C425 1.373 . S
C426 C427 1.429 1_545 S
C426 H436 0.932 . S
C427 C424 1.358 . S
C427 C426 1.429 1_565 S
C427 H437 0.930 . S
C428 C424 1.332 . S
C428 C429 1.394 1_565 S
C428 H438 0.932 . S
C429 C425 1.308 . S
C429 C428 1.394 1_545 S
C429 H439 0.929 . S
C430 Tb401 2.764 . S
C430 O414 1.239 . S
C430 O415 1.263 . S
C430 C424 1.504 . S
C431 O416 1.236 . S
C431 O417 1.257 . S
H432 C405 0.932 . S
H433 C406 0.930 . S
H434 C407 0.932 . S
H435 C408 0.929 . S
H436 C426 0.932 . S
H437 C427 0.930 . S
H438 C428 0.932 . S
H439 C429 0.929 . S
Tb440 C449 2.764 . S
Tb440 O450 2.325 . S
Tb440 O453 2.303 . S
Tb440 O457 2.322 . S
Tb440 O458 2.349 . S
Tb440 O461 2.415 . S
Tb440 O462 2.399 . S
Tb441 O451 2.322 . S
Tb441 O452 2.349 . S
Tb441 O454 2.415 . S
Tb441 O455 2.399 . S
Tb441 O456 2.325 . S
Tb441 O459 2.303 . S
Tb441 C470 2.764 . S
C442 O458 1.261 . S
C442 O459 1.257 . S
C443 C446 1.358 . S
C443 C447 1.332 . S
C443 C449 1.504 . S
C444 C445 1.373 . S
C444 C448 1.308 . S
C445 C444 1.373 . S
C445 C446 1.429 . S
C445 H472 0.932 . S
C446 C443 1.358 . S
C446 C445 1.429 . S
C446 H473 0.930 . S
C447 C443 1.332 . S
C447 C448 1.394 . S
C447 H474 0.932 . S
C448 C444 1.308 . S
C448 C447 1.394 . S
C448 H475 0.929 . S
C449 Tb440 2.764 . S
C449 C443 1.504 . S
C449 O461 1.239 . S
C449 O462 1.263 . S
O450 Tb440 2.325 . S
O450 C460 1.236 . S
O451 Tb441 2.322 . S
O451 C460 1.257 . S
O452 Tb441 2.349 . S
O452 C463 1.261 . S
O453 Tb440 2.303 . S
O453 C463 1.257 . S
O454 Tb441 2.415 . S
O454 C470 1.239 . S
O455 Tb441 2.399 . S
O455 C470 1.263 . S
O456 Tb441 2.325 . S
O456 C471 1.236 . S
O457 Tb440 2.322 . S
O457 C471 1.257 . S
O458 Tb440 2.349 . S
O458 C442 1.261 . S
O459 Tb441 2.303 . S
O459 C442 1.257 . S
C460 O450 1.236 . S
C460 O451 1.257 . S
O461 Tb440 2.415 . S
O461 C449 1.239 . S
O462 Tb440 2.399 . S
O462 C449 1.263 . S
C463 O452 1.261 . S
C463 O453 1.257 . S
C464 C467 1.358 . S
C464 C468 1.332 . S
C464 C470 1.504 . S
C465 C466 1.373 . S
C465 C469 1.308 . S
C466 C465 1.373 . S
C466 C467 1.429 . S
C466 H476 0.932 . S
C467 C464 1.358 . S
C467 C466 1.429 . S
C467 H477 0.930 . S
C468 C464 1.332 . S
C468 C469 1.394 . S
C468 H478 0.932 . S
C469 C465 1.308 . S
C469 C468 1.394 . S
C469 H479 0.929 . S
C470 Tb441 2.764 . S
C470 O454 1.239 . S
C470 O455 1.263 . S
C470 C464 1.504 . S
C471 O456 1.236 . S
C471 O457 1.257 . S
H472 C445 0.932 . S
H473 C446 0.930 . S
H474 C447 0.932 . S
H475 C448 0.929 . S
H476 C466 0.932 . S
H477 C467 0.930 . S
H478 C468 0.932 . S
H479 C469 0.929 . S
C480 C481 1.349 . S
C480 C482 1.327 . S
C480 H505 0.950 . S
C481 C480 1.349 . S
C481 C497 1.349 . S
C482 C480 1.327 . S
C482 C501 1.429 . S
C482 H506 0.950 . S
C483 C500 1.574 . S
C483 C502 1.368 . S
C483 H507 0.949 . S
H484 C488 0.949 . S
C485 C486 1.349 . S
C485 C487 1.327 . S
C485 H508 0.950 . S
C486 C485 1.349 . S
C486 C498 1.349 . S
C487 C485 1.327 . S
C487 C503 1.429 . S
C487 H509 0.950 . S
C488 H484 0.949 . S
C488 C496 1.574 . S
C488 C504 1.368 . S
H489 C497 0.950 . S
H490 C495 0.950 . S
H491 C496 0.949 . S
H492 C498 0.950 . S
H493 C499 0.950 . S
H494 C500 0.949 . S
C495 H490 0.950 . S
C495 C497 1.327 . S
C495 C501 1.429 . S
C496 C488 1.574 . S
C496 H491 0.949 . S
C496 C502 1.368 . S
C497 C481 1.349 . S
C497 H489 0.950 . S
C497 C495 1.327 . S
C498 C486 1.349 . S
C498 H492 0.950 . S
C498 C499 1.327 . S
C499 H493 0.950 . S
C499 C498 1.327 . S
C499 C503 1.429 . S
C500 C483 1.574 . S
C500 H494 0.949 . S
C500 C504 1.368 . S
C501 C482 1.429 . S
C501 C495 1.429 . S
C501 C502 1.523 . S
C502 C483 1.368 . S
C502 C496 1.368 . S
C502 C501 1.523 . S
C503 C487 1.429 . S
C503 C499 1.429 . S
C503 C504 1.523 . S
C504 C488 1.368 . S
C504 C500 1.368 . S
C504 C503 1.523 . S
H505 C480 0.950 . S
H506 C482 0.950 . S
H507 C483 0.949 . S
H508 C485 0.950 . S
H509 C487 0.950 . S
C510 C511 1.349 . S
C510 C512 1.327 . S
C510 H535 0.950 . S
C511 C510 1.349 . S
C511 C527 1.349 . S
C512 C510 1.327 . S
C512 C531 1.429 . S
C512 H536 0.950 . S
C513 C530 1.574 1_455 S
C513 C532 1.368 . S
C513 H537 0.949 . S
H514 C518 0.949 . S
C515 C516 1.349 . S
C515 C517 1.327 . S
C515 H538 0.950 . S
C516 C515 1.349 . S
C516 C528 1.349 . S
C517 C515 1.327 . S
C517 C533 1.429 . S
C517 H539 0.950 . S
C518 H514 0.949 . S
C518 C526 1.574 1_655 S
C518 C534 1.368 . S
H519 C527 0.950 . S
H520 C525 0.950 . S
H521 C526 0.949 . S
H522 C528 0.950 . S
H523 C529 0.950 . S
H524 C530 0.949 . S
C525 H520 0.950 . S
C525 C527 1.327 . S
C525 C531 1.429 . S
C526 C518 1.574 1_455 S
C526 H521 0.949 . S
C526 C532 1.368 . S
C527 C511 1.349 . S
C527 H519 0.950 . S
C527 C525 1.327 . S
C528 C516 1.349 . S
C528 H522 0.950 . S
C528 C529 1.327 . S
C529 H523 0.950 . S
C529 C528 1.327 . S
C529 C533 1.429 . S
C530 C513 1.574 1_655 S
C530 H524 0.949 . S
C530 C534 1.368 . S
C531 C512 1.429 . S
C531 C525 1.429 . S
C531 C532 1.523 . S
C532 C513 1.368 . S
C532 C526 1.368 . S
C532 C531 1.523 . S
C533 C517 1.429 . S
C533 C529 1.429 . S
C533 C534 1.523 . S
C534 C518 1.368 . S
C534 C530 1.368 . S
C534 C533 1.523 . S
H535 C510 0.950 . S
H536 C512 0.950 . S
H537 C513 0.949 . S
H538 C515 0.950 . S
H539 C517 0.950 . S
C540 C541 1.349 . S
C540 C542 1.327 . S
C540 H565 0.950 . S
C541 C540 1.349 . S
C541 C557 1.349 . S
C542 C540 1.327 . S
C542 C561 1.429 . S
C542 H566 0.950 . S
C543 C560 1.574 1_545 S
C543 C562 1.368 . S
C543 H567 0.949 . S
H544 C548 0.949 . S
C545 C546 1.349 . S
C545 C547 1.327 . S
C545 H568 0.950 . S
C546 C545 1.349 . S
C546 C558 1.349 . S
C547 C545 1.327 . S
C547 C563 1.429 . S
C547 H569 0.950 . S
C548 H544 0.949 . S
C548 C556 1.574 1_565 S
C548 C564 1.368 . S
H549 C557 0.950 . S
H550 C555 0.950 . S
H551 C556 0.949 . S
H552 C558 0.950 . S
H553 C559 0.950 . S
H554 C560 0.949 . S
C555 H550 0.950 . S
C555 C557 1.327 . S
C555 C561 1.429 . S
C556 C548 1.574 1_545 S
C556 H551 0.949 . S
C556 C562 1.368 . S
C557 C541 1.349 . S
C557 H549 0.950 . S
C557 C555 1.327 . S
C558 C546 1.349 . S
C558 H552 0.950 . S
C558 C559 1.327 . S
C559 H553 0.950 . S
C559 C558 1.327 . S
C559 C563 1.429 . S
C560 C543 1.574 1_565 S
C560 H554 0.949 . S
C560 C564 1.368 . S
C561 C542 1.429 . S
C561 C555 1.429 . S
C561 C562 1.523 . S
C562 C543 1.368 . S
C562 C556 1.368 . S
C562 C561 1.523 . S
C563 C547 1.429 . S
C563 C559 1.429 . S
C563 C564 1.523 . S
C564 C548 1.368 . S
C564 C560 1.368 . S
C564 C563 1.523 . S
H565 C540 0.950 . S
H566 C542 0.950 . S
H567 C543 0.949 . S
H568 C545 0.950 . S
H569 C547 0.950 . S
C570 C571 1.349 . S
C570 C572 1.327 . S
C570 H595 0.950 . S
C571 C570 1.349 . S
C571 C587 1.349 . S
C572 C570 1.327 . S
C572 C591 1.429 . S
C572 H596 0.950 . S
C573 C590 1.574 . S
C573 C592 1.368 . S
C573 H597 0.949 . S
H574 C578 0.949 . S
C575 C576 1.349 . S
C575 C577 1.327 . S
C575 H598 0.950 . S
C576 C575 1.349 . S
C576 C588 1.349 . S
C577 C575 1.327 . S
C577 C593 1.429 . S
C577 H599 0.950 . S
C578 H574 0.949 . S
C578 C586 1.574 . S
C578 C594 1.368 . S
H579 C587 0.950 . S
H580 C585 0.950 . S
H581 C586 0.949 . S
H582 C588 0.950 . S
H583 C589 0.950 . S
H584 C590 0.949 . S
C585 H580 0.950 . S
C585 C587 1.327 . S
C585 C591 1.429 . S
C586 C578 1.574 . S
C586 H581 0.949 . S
C586 C592 1.368 . S
C587 C571 1.349 . S
C587 H579 0.950 . S
C587 C585 1.327 . S
C588 C576 1.349 . S
C588 H582 0.950 . S
C588 C589 1.327 . S
C589 H583 0.950 . S
C589 C588 1.327 . S
C589 C593 1.429 . S
C590 C573 1.574 . S
C590 H584 0.949 . S
C590 C594 1.368 . S
C591 C572 1.429 . S
C591 C585 1.429 . S
C591 C592 1.523 . S
C592 C573 1.368 . S
C592 C586 1.368 . S
C592 C591 1.523 . S
C593 C577 1.429 . S
C593 C589 1.429 . S
C593 C594 1.523 . S
C594 C578 1.368 . S
C594 C590 1.368 . S
C594 C593 1.523 . S
H595 C570 0.950 . S
H596 C572 0.950 . S
H597 C573 0.949 . S
H598 C575 0.950 . S
H599 C577 0.950 . S
C600 C601 1.349 . S
C600 C602 1.327 . S
C600 H625 0.950 . S
C601 C600 1.349 . S
C601 C617 1.349 . S
C602 C600 1.327 . S
C602 C621 1.429 . S
C602 H626 0.950 . S
C603 C620 1.574 1_455 S
C603 C622 1.368 . S
C603 H627 0.949 . S
H604 C608 0.949 . S
C605 C606 1.349 . S
C605 C607 1.327 . S
C605 H628 0.950 . S
C606 C605 1.349 . S
C606 C618 1.349 . S
C607 C605 1.327 . S
C607 C623 1.429 . S
C607 H629 0.950 . S
C608 H604 0.949 . S
C608 C616 1.574 1_655 S
C608 C624 1.368 . S
H609 C617 0.950 . S
H610 C615 0.950 . S
H611 C616 0.949 . S
H612 C618 0.950 . S
H613 C619 0.950 . S
H614 C620 0.949 . S
C615 H610 0.950 . S
C615 C617 1.327 . S
C615 C621 1.429 . S
C616 C608 1.574 1_455 S
C616 H611 0.949 . S
C616 C622 1.368 . S
C617 C601 1.349 . S
C617 H609 0.950 . S
C617 C615 1.327 . S
C618 C606 1.349 . S
C618 H612 0.950 . S
C618 C619 1.327 . S
C619 H613 0.950 . S
C619 C618 1.327 . S
C619 C623 1.429 . S
C620 C603 1.574 1_655 S
C620 H614 0.949 . S
C620 C624 1.368 . S
C621 C602 1.429 . S
C621 C615 1.429 . S
C621 C622 1.523 . S
C622 C603 1.368 . S
C622 C616 1.368 . S
C622 C621 1.523 . S
C623 C607 1.429 . S
C623 C619 1.429 . S
C623 C624 1.523 . S
C624 C608 1.368 . S
C624 C620 1.368 . S
C624 C623 1.523 . S
H625 C600 0.950 . S
H626 C602 0.950 . S
H627 C603 0.949 . S
H628 C605 0.950 . S
H629 C607 0.950 . S
C630 C631 1.349 . S
C630 C632 1.327 . S
C630 H655 0.950 . S
C631 C630 1.349 . S
C631 C647 1.349 . S
C632 C630 1.327 . S
C632 C651 1.429 . S
C632 H656 0.950 . S
C633 C650 1.574 1_565 S
C633 C652 1.368 . S
C633 H657 0.949 . S
H634 C638 0.949 . S
C635 C636 1.349 . S
C635 C637 1.327 . S
C635 H658 0.950 . S
C636 C635 1.349 . S
C636 C648 1.349 . S
C637 C635 1.327 . S
C637 C653 1.429 . S
C637 H659 0.950 . S
C638 H634 0.949 . S
C638 C646 1.574 1_545 S
C638 C654 1.368 . S
H639 C647 0.950 . S
H640 C645 0.950 . S
H641 C646 0.949 . S
H642 C648 0.950 . S
H643 C649 0.950 . S
H644 C650 0.949 . S
C645 H640 0.950 . S
C645 C647 1.327 . S
C645 C651 1.429 . S
C646 C638 1.574 1_565 S
C646 H641 0.949 . S
C646 C652 1.368 . S
C647 C631 1.349 . S
C647 H639 0.950 . S
C647 C645 1.327 . S
C648 C636 1.349 . S
C648 H642 0.950 . S
C648 C649 1.327 . S
C649 H643 0.950 . S
C649 C648 1.327 . S
C649 C653 1.429 . S
C650 C633 1.574 1_545 S
C650 H644 0.949 . S
C650 C654 1.368 . S
C651 C632 1.429 . S
C651 C645 1.429 . S
C651 C652 1.523 . S
C652 C633 1.368 . S
C652 C646 1.368 . S
C652 C651 1.523 . S
C653 C637 1.429 . S
C653 C649 1.429 . S
C653 C654 1.523 . S
C654 C638 1.368 . S
C654 C650 1.368 . S
C654 C653 1.523 . S
H655 C630 0.950 . S
H656 C632 0.950 . S
H657 C633 0.949 . S
H658 C635 0.950 . S
H659 C637 0.950 . S
C660 C661 1.349 . S
C660 C662 1.327 . S
C660 H685 0.950 . S
C661 C660 1.349 . S
C661 C677 1.349 . S
C662 C660 1.327 . S
C662 C681 1.429 . S
C662 H686 0.950 . S
C663 C680 1.574 . S
C663 C682 1.368 . S
C663 H687 0.949 . S
H664 C668 0.949 . S
C665 C666 1.349 . S
C665 C667 1.327 . S
C665 H688 0.950 . S
C666 C665 1.349 . S
C666 C678 1.349 . S
C667 C665 1.327 . S
C667 C683 1.429 . S
C667 H689 0.950 . S
C668 H664 0.949 . S
C668 C676 1.574 . S
C668 C684 1.368 . S
H669 C677 0.950 . S
H670 C675 0.950 . S
H671 C676 0.949 . S
H672 C678 0.950 . S
H673 C679 0.950 . S
H674 C680 0.949 . S
C675 H670 0.950 . S
C675 C677 1.327 . S
C675 C681 1.429 . S
C676 C668 1.574 . S
C676 H671 0.949 . S
C676 C682 1.368 . S
C677 C661 1.349 . S
C677 H669 0.950 . S
C677 C675 1.327 . S
C678 C666 1.349 . S
C678 H672 0.950 . S
C678 C679 1.327 . S
C679 H673 0.950 . S
C679 C678 1.327 . S
C679 C683 1.429 . S
C680 C663 1.574 . S
C680 H674 0.949 . S
C680 C684 1.368 . S
C681 C662 1.429 . S
C681 C675 1.429 . S
C681 C682 1.523 . S
C682 C663 1.368 . S
C682 C676 1.368 . S
C682 C681 1.523 . S
C683 C667 1.429 . S
C683 C679 1.429 . S
C683 C684 1.523 . S
C684 C668 1.368 . S
C684 C680 1.368 . S
C684 C683 1.523 . S
H685 C660 0.950 . S
H686 C662 0.950 . S
H687 C663 0.949 . S
H688 C665 0.950 . S
H689 C667 0.950 . S
C690 C691 1.349 . S
C690 C692 1.327 . S
C690 H715 0.950 . S
C691 C690 1.349 . S
C691 C707 1.349 . S
C692 C690 1.327 . S
C692 C711 1.429 . S
C692 H716 0.950 . S
C693 C710 1.574 1_455 S
C693 C712 1.368 . S
C693 H717 0.949 . S
H694 C698 0.949 . S
C695 C696 1.349 . S
C695 C697 1.327 . S
C695 H718 0.950 . S
C696 C695 1.349 . S
C696 C708 1.349 . S
C697 C695 1.327 . S
C697 C713 1.429 . S
C697 H719 0.950 . S
C698 H694 0.949 . S
C698 C706 1.574 1_655 S
C698 C714 1.368 . S
H699 C707 0.950 . S
H700 C705 0.950 . S
H701 C706 0.949 . S
H702 C708 0.950 . S
H703 C709 0.950 . S
H704 C710 0.949 . S
C705 H700 0.950 . S
C705 C707 1.327 . S
C705 C711 1.429 . S
C706 C698 1.574 1_455 S
C706 H701 0.949 . S
C706 C712 1.368 . S
C707 C691 1.349 . S
C707 H699 0.950 . S
C707 C705 1.327 . S
C708 C696 1.349 . S
C708 H702 0.950 . S
C708 C709 1.327 . S
C709 H703 0.950 . S
C709 C708 1.327 . S
C709 C713 1.429 . S
C710 C693 1.574 1_655 S
C710 H704 0.949 . S
C710 C714 1.368 . S
C711 C692 1.429 . S
C711 C705 1.429 . S
C711 C712 1.523 . S
C712 C693 1.368 . S
C712 C706 1.368 . S
C712 C711 1.523 . S
C713 C697 1.429 . S
C713 C709 1.429 . S
C713 C714 1.523 . S
C714 C698 1.368 . S
C714 C710 1.368 . S
C714 C713 1.523 . S
H715 C690 0.950 . S
H716 C692 0.950 . S
H717 C693 0.949 . S
H718 C695 0.950 . S
H719 C697 0.950 . S
C720 C721 1.349 . S
C720 C722 1.327 . S
C720 H745 0.950 . S
C721 C720 1.349 . S
C721 C737 1.349 . S
C722 C720 1.327 . S
C722 C741 1.429 . S
C722 H746 0.950 . S
C723 C740 1.567 1_565 S
C723 C742 1.376 . S
C723 H747 0.949 . S
H724 C728 0.949 . S
C725 C726 1.349 . S
C725 C727 1.327 . S
C725 H748 0.950 . S
C726 C725 1.349 . S
C726 C738 1.349 . S
C727 C725 1.327 . S
C727 C743 1.429 . S
C727 H749 0.950 . S
C728 H724 0.949 . S
C728 C736 1.574 1_545 S
C728 C744 1.368 . S
H729 C737 0.950 . S
H730 C735 0.950 . S
H731 C736 0.949 . S
H732 C738 0.950 . S
H733 C739 0.950 . S
H734 C740 0.949 . S
C735 H730 0.950 . S
C735 C737 1.327 . S
C735 C741 1.429 . S
C736 C728 1.574 1_565 S
C736 H731 0.949 . S
C736 C742 1.368 . S
C737 C721 1.349 . S
C737 H729 0.950 . S
C737 C735 1.327 . S
C738 C726 1.349 . S
C738 H732 0.950 . S
C738 C739 1.327 . S
C739 H733 0.950 . S
C739 C738 1.327 . S
C739 C743 1.429 . S
C740 C723 1.567 1_545 S
C740 H734 0.949 . S
C740 C744 1.368 . S
C741 C722 1.429 . S
C741 C735 1.429 . S
C741 C742 1.523 . S
C742 C723 1.376 . S
C742 C736 1.368 . S
C742 C741 1.523 . S
C743 C727 1.429 . S
C743 C739 1.429 . S
C743 C744 1.523 . S
C744 C728 1.368 . S
C744 C740 1.368 . S
C744 C743 1.523 . S
H745 C720 0.950 . S
H746 C722 0.950 . S
H747 C723 0.949 . S
H748 C725 0.950 . S
H749 C727 0.950 . S
C750 C751 1.349 . S
C750 C752 1.327 . S
C750 H775 0.950 . S
C751 C750 1.349 . S
C751 C767 1.349 . S
C752 C750 1.327 . S
C752 C771 1.429 . S
C752 H776 0.950 . S
C753 C770 1.574 . S
C753 C772 1.368 . S
C753 H777 0.949 . S
H754 C758 0.949 . S
C755 C756 1.349 . S
C755 C757 1.327 . S
C755 H778 0.950 . S
C756 C755 1.349 . S
C756 C768 1.349 . S
C757 C755 1.327 . S
C757 C773 1.429 . S
C757 H779 0.950 . S
C758 H754 0.949 . S
C758 C766 1.574 . S
C758 C774 1.368 . S
H759 C767 0.950 . S
H760 C765 0.950 . S
H761 C766 0.949 . S
H762 C768 0.950 . S
H763 C769 0.950 . S
H764 C770 0.949 . S
C765 H760 0.950 . S
C765 C767 1.327 . S
C765 C771 1.429 . S
C766 C758 1.574 . S
C766 H761 0.949 . S
C766 C772 1.368 . S
C767 C751 1.349 . S
C767 H759 0.950 . S
C767 C765 1.327 . S
C768 C756 1.349 . S
C768 H762 0.950 . S
C768 C769 1.327 . S
C769 H763 0.950 . S
C769 C768 1.327 . S
C769 C773 1.429 . S
C770 C753 1.574 . S
C770 H764 0.949 . S
C770 C774 1.368 . S
C771 C752 1.429 . S
C771 C765 1.429 . S
C771 C772 1.523 . S
C772 C753 1.368 . S
C772 C766 1.368 . S
C772 C771 1.523 . S
C773 C757 1.429 . S
C773 C769 1.429 . S
C773 C774 1.523 . S
C774 C758 1.368 . S
C774 C770 1.368 . S
C774 C773 1.523 . S
H775 C750 0.950 . S
H776 C752 0.950 . S
H777 C753 0.949 . S
H778 C755 0.950 . S
H779 C757 0.950 . S
C780 C781 1.349 . S
C780 C782 1.327 . S
C780 H805 0.950 . S
C781 C780 1.349 . S
C781 C797 1.349 . S
C782 C780 1.327 . S
C782 C801 1.429 . S
C782 H806 0.950 . S
C783 C800 1.574 . S
C783 C802 1.368 1_655 S
C783 H807 0.949 1_655 S
H784 C788 0.949 . S
C785 C786 1.349 . S
C785 C787 1.327 . S
C785 H808 0.950 . S
C786 C785 1.349 . S
C786 C798 1.349 . S
C787 C785 1.327 . S
C787 C803 1.429 . S
C787 H809 0.950 . S
C788 H784 0.949 . S
C788 C796 1.574 1_655 S
C788 C804 1.368 . S
H789 C797 0.950 . S
H790 C795 0.950 . S
H791 C796 0.949 . S
H792 C798 0.950 . S
H793 C799 0.950 . S
H794 C800 0.949 . S
C795 H790 0.950 . S
C795 C797 1.327 . S
C795 C801 1.429 . S
C796 C788 1.574 1_455 S
C796 H791 0.949 . S
C796 C802 1.368 . S
C797 C781 1.349 . S
C797 H789 0.950 . S
C797 C795 1.327 . S
C798 C786 1.349 . S
C798 H792 0.950 . S
C798 C799 1.327 . S
C799 H793 0.950 . S
C799 C798 1.327 . S
C799 C803 1.429 . S
C800 C783 1.574 . S
C800 H794 0.949 . S
C800 C804 1.368 . S
C801 C782 1.429 . S
C801 C795 1.429 . S
C801 C802 1.523 . S
C802 C783 1.368 1_455 S
C802 C796 1.368 . S
C802 C801 1.523 . S
C803 C787 1.429 . S
C803 C799 1.429 . S
C803 C804 1.523 . S
C804 C788 1.368 . S
C804 C800 1.368 . S
C804 C803 1.523 . S
H805 C780 0.950 . S
H806 C782 0.950 . S
H807 C783 0.949 1_455 S
H808 C785 0.950 . S
H809 C787 0.950 . S
C810 C811 1.349 . S
C810 C812 1.327 . S
C810 H835 0.950 . S
C811 C810 1.349 . S
C811 C827 1.349 . S
C812 C810 1.327 . S
C812 C831 1.429 . S
C812 H836 0.950 . S
C813 C830 1.574 1_545 S
C813 C832 1.368 . S
C813 H837 0.949 . S
H814 C818 0.956 1_565 S
C815 C816 1.349 . S
C815 C817 1.327 . S
C815 H838 0.950 . S
C816 C815 1.349 . S
C816 C828 1.349 . S
C817 C815 1.327 . S
C817 C833 1.429 . S
C817 H839 0.950 . S
C818 H814 0.956 1_545 S
C818 C826 1.592 . S
C818 C834 1.343 1_545 S
H819 C827 0.950 . S
H820 C825 0.950 . S
H821 C826 0.949 . S
H822 C828 0.950 . S
H823 C829 0.950 . S
H824 C830 0.949 . S
C825 H820 0.950 . S
C825 C827 1.327 . S
C825 C831 1.429 . S
C826 C818 1.592 . S
C826 H821 0.949 . S
C826 C832 1.368 . S
C827 C811 1.349 . S
C827 H819 0.950 . S
C827 C825 1.327 . S
C828 C816 1.349 . S
C828 H822 0.950 . S
C828 C829 1.327 . S
C829 H823 0.950 . S
C829 C828 1.327 . S
C829 C833 1.429 . S
C830 C813 1.574 1_565 S
C830 H824 0.949 . S
C830 C834 1.368 . S
C831 C812 1.429 . S
C831 C825 1.429 . S
C831 C832 1.523 . S
C832 C813 1.368 . S
C832 C826 1.368 . S
C832 C831 1.523 . S
C833 C817 1.429 . S
C833 C829 1.429 . S
C833 C834 1.523 . S
C834 C818 1.343 1_565 S
C834 C830 1.368 . S
C834 C833 1.523 . S
H835 C810 0.950 . S
H836 C812 0.950 . S
H837 C813 0.949 . S
H838 C815 0.950 . S
H839 C817 0.950 . S
C840 C841 1.349 . S
C840 C842 1.327 . S
C840 H865 0.950 . S
C841 C840 1.349 . S
C841 C857 1.349 . S
C842 C840 1.327 . S
C842 C861 1.429 . S
C842 H866 0.950 . S
C843 C860 1.574 . S
C843 C862 1.368 . S
C843 H867 0.949 . S
H844 C848 0.949 . S
C845 C846 1.349 . S
C845 C847 1.327 . S
C845 H868 0.950 . S
C846 C845 1.349 . S
C846 C858 1.349 . S
C847 C845 1.327 . S
C847 C863 1.429 . S
C847 H869 0.950 . S
C848 H844 0.949 . S
C848 C856 1.574 . S
C848 C864 1.368 . S
H849 C857 0.950 . S
H850 C855 0.950 . S
H851 C856 0.949 . S
H852 C858 0.950 . S
H853 C859 0.950 . S
H854 C860 0.949 . S
C855 H850 0.950 . S
C855 C857 1.327 . S
C855 C861 1.429 . S
C856 C848 1.574 . S
C856 H851 0.949 . S
C856 C862 1.368 . S
C857 C841 1.349 . S
C857 H849 0.950 . S
C857 C855 1.327 . S
C858 C846 1.349 . S
C858 H852 0.950 . S
C858 C859 1.327 . S
C859 H853 0.950 . S
C859 C858 1.327 . S
C859 C863 1.429 . S
C860 C843 1.574 . S
C860 H854 0.949 . S
C860 C864 1.368 . S
C861 C842 1.429 . S
C861 C855 1.429 . S
C861 C862 1.523 . S
C862 C843 1.368 . S
C862 C856 1.368 . S
C862 C861 1.523 . S
C863 C847 1.429 . S
C863 C859 1.429 . S
C863 C864 1.523 . S
C864 C848 1.368 . S
C864 C860 1.368 . S
C864 C863 1.523 . S
H865 C840 0.950 . S
H866 C842 0.950 . S
H867 C843 0.949 . S
H868 C845 0.950 . S
H869 C847 0.950 . S
C870 C871 1.349 . S
C870 C872 1.327 . S
C870 H895 0.950 . S
C871 C870 1.349 . S
C871 C887 1.349 . S
C872 C870 1.327 . S
C872 C891 1.429 . S
C872 H896 0.950 . S
C873 C890 1.574 . S
C873 C892 1.368 . S
C873 H897 0.949 . S
H874 C878 0.949 . S
C875 C876 1.349 . S
C875 C877 1.327 . S
C875 H898 0.950 . S
C876 C875 1.349 . S
C876 C888 1.349 . S
C877 C875 1.327 . S
C877 C893 1.429 . S
C877 H899 0.950 . S
C878 H874 0.949 . S
C878 C886 1.574 . S
C878 C894 1.368 . S
H879 C887 0.950 . S
H880 C885 0.950 . S
H881 C886 0.949 . S
H882 C888 0.950 . S
H883 C889 0.950 . S
H884 C890 0.949 . S
C885 H880 0.950 . S
C885 C887 1.327 . S
C885 C891 1.429 . S
C886 C878 1.574 . S
C886 H881 0.949 . S
C886 C892 1.368 . S
C887 C871 1.349 . S
C887 H879 0.950 . S
C887 C885 1.327 . S
C888 C876 1.349 . S
C888 H882 0.950 . S
C888 C889 1.327 . S
C889 H883 0.950 . S
C889 C888 1.327 . S
C889 C893 1.429 . S
C890 C873 1.574 . S
C890 H884 0.949 . S
C890 C894 1.368 . S
C891 C872 1.429 . S
C891 C885 1.429 . S
C891 C892 1.523 . S
C892 C873 1.368 . S
C892 C886 1.368 . S
C892 C891 1.523 . S
C893 C877 1.429 . S
C893 C889 1.429 . S
C893 C894 1.523 . S
C894 C878 1.368 . S
C894 C890 1.368 . S
C894 C893 1.523 . S
H895 C870 0.950 . S
H896 C872 0.950 . S
H897 C873 0.949 . S
H898 C875 0.950 . S
H899 C877 0.950 . S
C900 C901 1.349 . S
C900 C902 1.327 . S
C900 H925 0.950 . S
C901 C900 1.349 . S
C901 C917 1.349 . S
C902 C900 1.327 . S
C902 C921 1.429 . S
C902 H926 0.950 . S
C903 C920 1.574 . S
C903 C922 1.368 . S
C903 H927 0.949 . S
H904 C908 0.949 . S
C905 C906 1.349 . S
C905 C907 1.327 . S
C905 H928 0.950 . S
C906 C905 1.349 . S
C906 C918 1.349 . S
C907 C905 1.327 . S
C907 C923 1.429 . S
C907 H929 0.950 . S
C908 H904 0.949 . S
C908 C916 1.574 . S
C908 C924 1.368 . S
H909 C917 0.950 . S
H910 C915 0.950 . S
H911 C916 0.949 . S
H912 C918 0.950 . S
H913 C919 0.950 . S
H914 C920 0.949 . S
C915 H910 0.950 . S
C915 C917 1.327 . S
C915 C921 1.429 . S
C916 C908 1.574 . S
C916 H911 0.949 . S
C916 C922 1.368 . S
C917 C901 1.349 . S
C917 H909 0.950 . S
C917 C915 1.327 . S
C918 C906 1.349 . S
C918 H912 0.950 . S
C918 C919 1.327 . S
C919 H913 0.950 . S
C919 C918 1.327 . S
C919 C923 1.429 . S
C920 C903 1.574 . S
C920 H914 0.949 . S
C920 C924 1.368 . S
C921 C902 1.429 . S
C921 C915 1.429 . S
C921 C922 1.523 . S
C922 C903 1.368 . S
C922 C916 1.368 . S
C922 C921 1.523 . S
C923 C907 1.429 . S
C923 C919 1.429 . S
C923 C924 1.523 . S
C924 C908 1.368 . S
C924 C920 1.368 . S
C924 C923 1.523 . S
H925 C900 0.950 . S
H926 C902 0.950 . S
H927 C903 0.949 . S
H928 C905 0.950 . S
H929 C907 0.950 . S
C930 C931 1.349 . S
C930 C932 1.327 . S
C930 H955 0.950 . S
C931 C930 1.349 . S
C931 C947 1.349 . S
C932 C930 1.327 . S
C932 C951 1.429 . S
C932 H956 0.950 . S
C933 C950 1.574 . S
C933 C952 1.368 . S
C933 H957 0.949 . S
H934 C938 0.949 . S
C935 C936 1.349 . S
C935 C937 1.327 . S
C935 H958 0.950 . S
C936 C935 1.349 . S
C936 C948 1.349 . S
C937 C935 1.327 . S
C937 C953 1.429 . S
C937 H959 0.950 . S
C938 H934 0.949 . S
C938 C946 1.574 . S
C938 C954 1.368 . S
H939 C947 0.950 . S
H940 C945 0.950 . S
H941 C946 0.949 . S
H942 C948 0.950 . S
H943 C949 0.950 . S
H944 C950 0.949 . S
C945 H940 0.950 . S
C945 C947 1.327 . S
C945 C951 1.429 . S
C946 C938 1.574 . S
C946 H941 0.949 . S
C946 C952 1.368 . S
C947 C931 1.349 . S
C947 H939 0.950 . S
C947 C945 1.327 . S
C948 C936 1.349 . S
C948 H942 0.950 . S
C948 C949 1.327 . S
C949 H943 0.950 . S
C949 C948 1.327 . S
C949 C953 1.429 . S
C950 C933 1.574 . S
C950 H944 0.949 . S
C950 C954 1.368 . S
C951 C932 1.429 . S
C951 C945 1.429 . S
C951 C952 1.523 . S
C952 C933 1.368 . S
C952 C946 1.368 . S
C952 C951 1.523 . S
C953 C937 1.429 . S
C953 C949 1.429 . S
C953 C954 1.523 . S
C954 C938 1.368 . S
C954 C950 1.368 . S
C954 C953 1.523 . S
H955 C930 0.950 . S
H956 C932 0.950 . S
H957 C933 0.949 . S
H958 C935 0.950 . S
H959 C937 0.950 . S
C960 C961 1.349 . S
C960 C962 1.327 . S
C960 H985 0.950 . S
C961 C960 1.349 . S
C961 C977 1.349 . S
C962 C960 1.327 . S
C962 C981 1.429 . S
C962 H986 0.950 . S
C963 C980 1.574 . S
C963 C982 1.368 . S
C963 H987 0.949 . S
H964 C968 0.949 . S
C965 C966 1.349 . S
C965 C967 1.327 . S
C965 H988 0.950 . S
C966 C965 1.349 . S
C966 C978 1.349 . S
C967 C965 1.327 . S
C967 C983 1.429 . S
C967 H989 0.950 . S
C968 H964 0.949 . S
C968 C976 1.574 . S
C968 C984 1.368 . S
H969 C977 0.950 . S
H970 C975 0.950 . S
H971 C976 0.949 . S
H972 C978 0.950 . S
H973 C979 0.950 . S
H974 C980 0.949 . S
C975 H970 0.950 . S
C975 C977 1.327 . S
C975 C981 1.429 . S
C976 C968 1.574 . S
C976 H971 0.949 . S
C976 C982 1.368 . S
C977 C961 1.349 . S
C977 H969 0.950 . S
C977 C975 1.327 . S
C978 C966 1.349 . S
C978 H972 0.950 . S
C978 C979 1.327 . S
C979 H973 0.950 . S
C979 C978 1.327 . S
C979 C983 1.429 . S
C980 C963 1.574 . S
C980 H974 0.949 . S
C980 C984 1.368 . S
C981 C962 1.429 . S
C981 C975 1.429 . S
C981 C982 1.523 . S
C982 C963 1.368 . S
C982 C976 1.368 . S
C982 C981 1.523 . S
C983 C967 1.429 . S
C983 C979 1.429 . S
C983 C984 1.523 . S
C984 C968 1.368 . S
C984 C980 1.368 . S
C984 C983 1.523 . S
H985 C960 0.950 . S
H986 C962 0.950 . S
H987 C963 0.949 . S
H988 C965 0.950 . S
H989 C967 0.950 . S
C990 C991 1.349 . S
C990 C992 1.327 . S
C990 H1015 0.950 . S
C991 C990 1.349 . S
C991 C1007 1.349 . S
C992 C990 1.327 . S
C992 C1011 1.429 . S
C992 H1016 0.950 . S
C993 C1010 1.574 . S
C993 C1012 1.368 . S
C993 H1017 0.949 . S
H994 C998 0.949 . S
C995 C996 1.349 . S
C995 C997 1.327 . S
C995 H1018 0.950 . S
C996 C995 1.349 . S
C996 C1008 1.349 . S
C997 C995 1.327 . S
C997 C1013 1.429 . S
C997 H1019 0.950 . S
C998 H994 0.949 . S
C998 C1006 1.574 . S
C998 C1014 1.368 . S
H999 C1007 0.950 . S
H1000 C1005 0.950 . S
H1001 C1006 0.949 . S
H1002 C1008 0.950 . S
H1003 C1009 0.950 . S
H1004 C1010 0.949 . S
C1005 H1000 0.950 . S
C1005 C1007 1.327 . S
C1005 C1011 1.429 . S
C1006 C998 1.574 . S
C1006 H1001 0.949 . S
C1006 C1012 1.368 . S
C1007 C991 1.349 . S
C1007 H999 0.950 . S
C1007 C1005 1.327 . S
C1008 C996 1.349 . S
C1008 H1002 0.950 . S
C1008 C1009 1.327 . S
C1009 H1003 0.950 . S
C1009 C1008 1.327 . S
C1009 C1013 1.429 . S
C1010 C993 1.574 . S
C1010 H1004 0.949 . S
C1010 C1014 1.368 . S
C1011 C992 1.429 . S
C1011 C1005 1.429 . S
C1011 C1012 1.523 . S
C1012 C993 1.368 . S
C1012 C1006 1.368 . S
C1012 C1011 1.523 . S
C1013 C997 1.429 . S
C1013 C1009 1.429 . S
C1013 C1014 1.523 . S
C1014 C998 1.368 . S
C1014 C1010 1.368 . S
C1014 C1013 1.523 . S
H1015 C990 0.950 . S
H1016 C992 0.950 . S
H1017 C993 0.949 . S
H1018 C995 0.950 . S
H1019 C997 0.950 . S
C1020 C1021 1.349 . S
C1020 C1022 1.327 . S
C1020 H1045 0.950 . S
C1021 C1020 1.349 . S
C1021 C1037 1.349 . S
C1022 C1020 1.327 . S
C1022 C1041 1.429 . S
C1022 H1046 0.950 . S
C1023 C1040 1.574 . S
C1023 C1042 1.368 1_545 S
C1023 H1047 0.949 . S
H1024 C1028 0.949 . S
C1025 C1026 1.349 . S
C1025 C1027 1.327 . S
C1025 H1048 0.950 . S
C1026 C1025 1.349 . S
C1026 C1038 1.349 . S
C1027 C1025 1.327 . S
C1027 C1043 1.429 . S
C1027 H1049 0.950 . S
C1028 H1024 0.949 . S
C1028 C1036 1.574 . S
C1028 C1044 1.368 1_565 S
H1029 C1037 0.950 . S
H1030 C1035 0.950 . S
H1031 C1036 0.949 . S
H1032 C1038 0.950 . S
H1033 C1039 0.950 . S
H1034 C1040 0.949 . S
C1035 H1030 0.950 . S
C1035 C1037 1.327 . S
C1035 C1041 1.429 . S
C1036 C1028 1.574 . S
C1036 H1031 0.949 . S
C1036 C1042 1.368 1_554 S
C1037 C1021 1.349 . S
C1037 H1029 0.950 . S
C1037 C1035 1.327 . S
C1038 C1026 1.349 . S
C1038 H1032 0.950 . S
C1038 C1039 1.327 . S
C1039 H1033 0.950 . S
C1039 C1038 1.327 . S
C1039 C1043 1.429 . S
C1040 C1023 1.574 . S
C1040 H1034 0.949 . S
C1040 C1044 1.368 1_556 S
C1041 C1022 1.429 . S
C1041 C1035 1.429 . S
C1041 C1042 1.523 . S
C1042 C1023 1.368 1_565 S
C1042 C1036 1.368 1_556 S
C1042 C1041 1.523 . S
C1043 C1027 1.429 . S
C1043 C1039 1.429 . S
C1043 C1044 1.523 . S
C1044 C1028 1.368 1_545 S
C1044 C1040 1.368 1_554 S
C1044 C1043 1.523 . S
H1045 C1020 0.950 . S
H1046 C1022 0.950 . S
H1047 C1023 0.949 . S
H1048 C1025 0.950 . S
H1049 C1027 0.950 . S
C1050 C1051 1.349 . S
C1050 C1052 1.327 . S
C1050 H1075 0.950 . S
C1051 C1050 1.349 . S
C1051 C1067 1.349 . S
C1052 C1050 1.327 . S
C1052 C1071 1.429 . S
C1052 H1076 0.950 . S
C1053 C1070 1.574 . S
C1053 C1072 1.368 . S
C1053 H1077 0.949 . S
H1054 C1058 0.949 . S
C1055 C1056 1.349 . S
C1055 C1057 1.327 . S
C1055 H1078 0.950 . S
C1056 C1055 1.349 . S
C1056 C1068 1.349 . S
C1057 C1055 1.327 . S
C1057 C1073 1.429 . S
C1057 H1079 0.950 . S
C1058 H1054 0.949 . S
C1058 C1066 1.574 . S
C1058 C1074 1.368 . S
H1059 C1067 0.950 . S
H1060 C1065 0.950 . S
H1061 C1066 0.949 . S
H1062 C1068 0.950 . S
H1063 C1069 0.950 . S
H1064 C1070 0.949 . S
C1065 H1060 0.950 . S
C1065 C1067 1.327 . S
C1065 C1071 1.429 . S
C1066 C1058 1.574 . S
C1066 H1061 0.949 . S
C1066 C1072 1.368 . S
C1067 C1051 1.349 . S
C1067 H1059 0.950 . S
C1067 C1065 1.327 . S
C1068 C1056 1.349 . S
C1068 H1062 0.950 . S
C1068 C1069 1.327 . S
C1069 H1063 0.950 . S
C1069 C1068 1.327 . S
C1069 C1073 1.429 . S
C1070 C1053 1.574 . S
C1070 H1064 0.949 . S
C1070 C1074 1.368 . S
C1071 C1052 1.429 . S
C1071 C1065 1.429 . S
C1071 C1072 1.523 . S
C1072 C1053 1.368 . S
C1072 C1066 1.368 . S
C1072 C1071 1.523 . S
C1073 C1057 1.429 . S
C1073 C1069 1.429 . S
C1073 C1074 1.523 . S
C1074 C1058 1.368 . S
C1074 C1070 1.368 . S
C1074 C1073 1.523 . S
H1075 C1050 0.950 . S
H1076 C1052 0.950 . S
H1077 C1053 0.949 . S
H1078 C1055 0.950 . S
H1079 C1057 0.950 . S
C1080 C1081 1.349 . S
C1080 C1082 1.327 . S
C1080 H1105 0.950 . S
C1081 C1080 1.349 . S
C1081 C1097 1.349 . S
C1082 C1080 1.327 . S
C1082 C1101 1.429 . S
C1082 H1106 0.950 . S
C1083 C1100 1.574 1_456 S
C1083 C1102 1.368 . S
C1083 H1107 0.949 . S
H1084 C1088 0.949 . S
C1085 C1086 1.349 . S
C1085 C1087 1.327 . S
C1085 H1108 0.950 . S
C1086 C1085 1.349 . S
C1086 C1098 1.349 . S
C1087 C1085 1.327 . S
C1087 C1103 1.429 . S
C1087 H1109 0.950 . S
C1088 H1084 0.949 . S
C1088 C1096 1.574 1_654 S
C1088 C1104 1.368 . S
H1089 C1097 0.950 . S
H1090 C1095 0.950 . S
H1091 C1096 0.949 . S
H1092 C1098 0.950 . S
H1093 C1099 0.950 . S
H1094 C1100 0.949 . S
C1095 H1090 0.950 . S
C1095 C1097 1.327 . S
C1095 C1101 1.429 . S
C1096 C1088 1.574 1_456 S
C1096 H1091 0.949 . S
C1096 C1102 1.368 . S
C1097 C1081 1.349 . S
C1097 H1089 0.950 . S
C1097 C1095 1.327 . S
C1098 C1086 1.349 . S
C1098 H1092 0.950 . S
C1098 C1099 1.327 . S
C1099 H1093 0.950 . S
C1099 C1098 1.327 . S
C1099 C1103 1.429 . S
C1100 C1083 1.574 1_654 S
C1100 H1094 0.949 . S
C1100 C1104 1.368 . S
C1101 C1082 1.429 . S
C1101 C1095 1.429 . S
C1101 C1102 1.523 . S
C1102 C1083 1.368 . S
C1102 C1096 1.368 . S
C1102 C1101 1.523 . S
C1103 C1087 1.429 . S
C1103 C1099 1.429 . S
C1103 C1104 1.523 . S
C1104 C1088 1.368 . S
C1104 C1100 1.368 . S
C1104 C1103 1.523 . S
H1105 C1080 0.950 . S
H1106 C1082 0.950 . S
H1107 C1083 0.949 . S
H1108 C1085 0.950 . S
H1109 C1087 0.950 . S
C1110 C1111 1.349 . S
C1110 C1112 1.327 . S
C1110 H1135 0.950 . S
C1111 C1110 1.349 . S
C1111 C1127 1.349 . S
C1112 C1110 1.327 . S
C1112 C1131 1.429 . S
C1112 H1136 0.950 . S
C1113 C1130 1.574 . S
C1113 C1132 1.368 1_565 S
C1113 H1137 0.949 . S
H1114 C1118 0.949 . S
C1115 C1116 1.349 . S
C1115 C1117 1.327 . S
C1115 H1138 0.950 . S
C1116 C1115 1.349 . S
C1116 C1128 1.349 . S
C1117 C1115 1.327 . S
C1117 C1133 1.429 . S
C1117 H1139 0.950 . S
C1118 H1114 0.949 . S
C1118 C1126 1.574 . S
C1118 C1134 1.368 1_545 S
H1119 C1127 0.950 . S
H1120 C1125 0.950 . S
H1121 C1126 0.949 . S
H1122 C1128 0.950 . S
H1123 C1129 0.950 . S
H1124 C1130 0.949 . S
C1125 H1120 0.950 . S
C1125 C1127 1.327 . S
C1125 C1131 1.429 . S
C1126 C1118 1.574 . S
C1126 H1121 0.949 . S
C1126 C1132 1.368 . S
C1127 C1111 1.349 . S
C1127 H1119 0.950 . S
C1127 C1125 1.327 . S
C1128 C1116 1.349 . S
C1128 H1122 0.950 . S
C1128 C1129 1.327 . S
C1129 H1123 0.950 . S
C1129 C1128 1.327 . S
C1129 C1133 1.429 . S
C1130 C1113 1.574 . S
C1130 H1124 0.949 . S
C1130 C1134 1.368 . S
C1131 C1112 1.429 . S
C1131 C1125 1.429 . S
C1131 C1132 1.523 . S
C1132 C1113 1.368 1_545 S
C1132 C1126 1.368 . S
C1132 C1131 1.523 . S
C1133 C1117 1.429 . S
C1133 C1129 1.429 . S
C1133 C1134 1.523 . S
C1134 C1118 1.368 1_565 S
C1134 C1130 1.368 . S
C1134 C1133 1.523 . S
H1135 C1110 0.950 . S
H1136 C1112 0.950 . S
H1137 C1113 0.949 . S
H1138 C1115 0.950 . S
H1139 C1117 0.950 . S
C1140 C1141 1.349 . S
C1140 C1142 1.327 . S
C1140 H1165 0.950 . S
C1141 C1140 1.349 . S
C1141 C1157 1.349 . S
C1142 C1140 1.327 . S
C1142 C1161 1.429 . S
C1142 H1166 0.950 . S
C1143 C1160 1.574 . S
C1143 C1162 1.368 . S
C1143 H1167 0.949 . S
H1144 C1148 0.949 . S
C1145 C1146 1.349 . S
C1145 C1147 1.327 . S
C1145 H1168 0.950 . S
C1146 C1145 1.349 . S
C1146 C1158 1.349 . S
C1147 C1145 1.327 . S
C1147 C1163 1.429 . S
C1147 H1169 0.950 . S
C1148 H1144 0.949 . S
C1148 C1156 1.574 . S
C1148 C1164 1.368 . S
H1149 C1157 0.950 . S
H1150 C1155 0.950 . S
H1151 C1156 0.949 . S
H1152 C1158 0.950 . S
H1153 C1159 0.950 . S
H1154 C1160 0.949 . S
C1155 H1150 0.950 . S
C1155 C1157 1.327 . S
C1155 C1161 1.429 . S
C1156 C1148 1.574 . S
C1156 H1151 0.949 . S
C1156 C1162 1.368 1_556 S
C1157 C1141 1.349 . S
C1157 H1149 0.950 . S
C1157 C1155 1.327 . S
C1158 C1146 1.349 . S
C1158 H1152 0.950 . S
C1158 C1159 1.327 . S
C1159 H1153 0.950 . S
C1159 C1158 1.327 . S
C1159 C1163 1.429 . S
C1160 C1143 1.574 . S
C1160 H1154 0.949 . S
C1160 C1164 1.368 1_554 S
C1161 C1142 1.429 . S
C1161 C1155 1.429 . S
C1161 C1162 1.523 . S
C1162 C1143 1.368 . S
C1162 C1156 1.368 1_554 S
C1162 C1161 1.523 . S
C1163 C1147 1.429 . S
C1163 C1159 1.429 . S
C1163 C1164 1.523 . S
C1164 C1148 1.368 . S
C1164 C1160 1.368 1_556 S
C1164 C1163 1.523 . S
H1165 C1140 0.950 . S
H1166 C1142 0.950 . S
H1167 C1143 0.949 . S
H1168 C1145 0.950 . S
H1169 C1147 0.950 . S
C1170 C1171 1.349 . S
C1170 C1172 1.327 . S
C1170 H1195 0.950 . S
C1171 C1170 1.349 . S
C1171 C1187 1.349 . S
C1172 C1170 1.327 . S
C1172 C1191 1.429 . S
C1172 H1196 0.950 . S
C1173 C1190 1.574 . S
C1173 C1192 1.368 . S
C1173 H1197 0.949 . S
H1174 C1178 0.949 . S
C1175 C1176 1.349 . S
C1175 C1177 1.327 . S
C1175 H1198 0.950 . S
C1176 C1175 1.349 . S
C1176 C1188 1.349 . S
C1177 C1175 1.327 . S
C1177 C1193 1.429 . S
C1177 H1199 0.950 . S
C1178 H1174 0.949 . S
C1178 C1186 1.574 . S
C1178 C1194 1.368 . S
H1179 C1187 0.950 . S
H1180 C1185 0.950 . S
H1181 C1186 0.949 . S
H1182 C1188 0.950 . S
H1183 C1189 0.950 . S
H1184 C1190 0.949 . S
C1185 H1180 0.950 . S
C1185 C1187 1.327 . S
C1185 C1191 1.429 . S
C1186 C1178 1.574 . S
C1186 H1181 0.949 . S
C1186 C1192 1.368 1_655 S
C1187 C1171 1.349 . S
C1187 H1179 0.950 . S
C1187 C1185 1.327 . S
C1188 C1176 1.349 . S
C1188 H1182 0.950 . S
C1188 C1189 1.327 . S
C1189 H1183 0.950 . S
C1189 C1188 1.327 . S
C1189 C1193 1.429 . S
C1190 C1173 1.574 . S
C1190 H1184 0.949 . S
C1190 C1194 1.368 1_455 S
C1191 C1172 1.429 . S
C1191 C1185 1.429 . S
C1191 C1192 1.523 . S
C1192 C1173 1.368 . S
C1192 C1186 1.368 1_455 S
C1192 C1191 1.523 . S
C1193 C1177 1.429 . S
C1193 C1189 1.429 . S
C1193 C1194 1.523 . S
C1194 C1178 1.368 . S
C1194 C1190 1.368 1_655 S
C1194 C1193 1.523 . S
H1195 C1170 0.950 . S
H1196 C1172 0.950 . S
H1197 C1173 0.949 . S
H1198 C1175 0.950 . S
H1199 C1177 0.950 . S
C1200 C1201 1.349 . S
C1200 C1202 1.327 . S
C1200 H1225 0.950 . S
C1201 C1200 1.349 . S
C1201 C1217 1.349 . S
C1202 C1200 1.327 . S
C1202 C1221 1.429 . S
C1202 H1226 0.950 . S
C1203 C1220 1.574 . S
C1203 C1222 1.368 . S
C1203 H1227 0.949 . S
H1204 C1208 0.949 . S
C1205 C1206 1.349 . S
C1205 C1207 1.327 . S
C1205 H1228 0.950 . S
C1206 C1205 1.349 . S
C1206 C1218 1.349 . S
C1207 C1205 1.327 . S
C1207 C1223 1.429 . S
C1207 H1229 0.950 . S
C1208 H1204 0.949 . S
C1208 C1216 1.574 . S
C1208 C1224 1.368 . S
H1209 C1217 0.950 . S
H1210 C1215 0.950 . S
H1211 C1216 0.949 . S
H1212 C1218 0.950 . S
H1213 C1219 0.950 . S
H1214 C1220 0.949 . S
C1215 H1210 0.950 . S
C1215 C1217 1.327 . S
C1215 C1221 1.429 . S
C1216 C1208 1.574 . S
C1216 H1211 0.949 . S
C1216 C1222 1.368 . S
C1217 C1201 1.349 . S
C1217 H1209 0.950 . S
C1217 C1215 1.327 . S
C1218 C1206 1.349 . S
C1218 H1212 0.950 . S
C1218 C1219 1.327 . S
C1219 H1213 0.950 . S
C1219 C1218 1.327 . S
C1219 C1223 1.429 . S
C1220 C1203 1.574 . S
C1220 H1214 0.949 . S
C1220 C1224 1.368 . S
C1221 C1202 1.429 . S
C1221 C1215 1.429 . S
C1221 C1222 1.523 . S
C1222 C1203 1.368 . S
C1222 C1216 1.368 . S
C1222 C1221 1.523 . S
C1223 C1207 1.429 . S
C1223 C1219 1.429 . S
C1223 C1224 1.523 . S
C1224 C1208 1.368 . S
C1224 C1220 1.368 . S
C1224 C1223 1.523 . S
H1225 C1200 0.950 . S
H1226 C1202 0.950 . S
H1227 C1203 0.949 . S
H1228 C1205 0.950 . S
H1229 C1207 0.950 . S
C1230 C1231 1.349 . S
C1230 C1232 1.327 . S
C1230 H1255 0.950 . S
C1231 C1230 1.349 . S
C1231 C1247 1.349 . S
C1232 C1230 1.327 . S
C1232 C1251 1.429 . S
C1232 H1256 0.950 . S
C1233 C1250 1.574 . S
C1233 C1252 1.368 . S
C1233 H1257 0.949 . S
H1234 C1238 0.949 . S
C1235 C1236 1.349 . S
C1235 C1237 1.327 . S
C1235 H1258 0.950 . S
C1236 C1235 1.349 . S
C1236 C1248 1.349 . S
C1237 C1235 1.327 . S
C1237 C1253 1.429 . S
C1237 H1259 0.950 . S
C1238 H1234 0.949 . S
C1238 C1246 1.574 . S
C1238 C1254 1.368 . S
H1239 C1247 0.950 . S
H1240 C1245 0.950 . S
H1241 C1246 0.949 . S
H1242 C1248 0.950 . S
H1243 C1249 0.950 . S
H1244 C1250 0.949 . S
C1245 H1240 0.950 . S
C1245 C1247 1.327 . S
C1245 C1251 1.429 . S
C1246 C1238 1.574 . S
C1246 H1241 0.949 . S
C1246 C1252 1.368 . S
C1247 C1231 1.349 . S
C1247 H1239 0.950 . S
C1247 C1245 1.327 . S
C1248 C1236 1.349 . S
C1248 H1242 0.950 . S
C1248 C1249 1.327 . S
C1249 H1243 0.950 . S
C1249 C1248 1.327 . S
C1249 C1253 1.429 . S
C1250 C1233 1.574 . S
C1250 H1244 0.949 . S
C1250 C1254 1.368 . S
C1251 C1232 1.429 . S
C1251 C1245 1.429 . S
C1251 C1252 1.523 . S
C1252 C1233 1.368 . S
C1252 C1246 1.368 . S
C1252 C1251 1.523 . S
C1253 C1237 1.429 . S
C1253 C1249 1.429 . S
C1253 C1254 1.523 . S
C1254 C1238 1.368 . S
C1254 C1250 1.368 . S
C1254 C1253 1.523 . S
H1255 C1230 0.950 . S
H1256 C1232 0.950 . S
H1257 C1233 0.949 . S
H1258 C1235 0.950 . S
H1259 C1237 0.950 . S
C1260 C1261 1.349 . S
C1260 C1262 1.327 . S
C1260 H1285 0.950 . S
C1261 C1260 1.349 . S
C1261 C1277 1.349 . S
C1262 C1260 1.327 . S
C1262 C1281 1.429 . S
C1262 H1286 0.950 . S
C1263 C1280 1.574 . S
C1263 C1282 1.368 . S
C1263 H1287 0.949 . S
H1264 C1268 0.949 . S
C1265 C1266 1.349 . S
C1265 C1267 1.327 . S
C1265 H1288 0.950 . S
C1266 C1265 1.349 . S
C1266 C1278 1.349 . S
C1267 C1265 1.327 . S
C1267 C1283 1.429 . S
C1267 H1289 0.950 . S
C1268 H1264 0.949 . S
C1268 C1276 1.574 . S
C1268 C1284 1.368 . S
H1269 C1277 0.950 . S
H1270 C1275 0.950 . S
H1271 C1276 0.949 . S
H1272 C1278 0.950 . S
H1273 C1279 0.950 . S
H1274 C1280 0.949 . S
C1275 H1270 0.950 . S
C1275 C1277 1.327 . S
C1275 C1281 1.429 . S
C1276 C1268 1.574 . S
C1276 H1271 0.949 . S
C1276 C1282 1.368 . S
C1277 C1261 1.349 . S
C1277 H1269 0.950 . S
C1277 C1275 1.327 . S
C1278 C1266 1.349 . S
C1278 H1272 0.950 . S
C1278 C1279 1.327 . S
C1279 H1273 0.950 . S
C1279 C1278 1.327 . S
C1279 C1283 1.429 . S
C1280 C1263 1.574 . S
C1280 H1274 0.949 . S
C1280 C1284 1.368 . S
C1281 C1262 1.429 . S
C1281 C1275 1.429 . S
C1281 C1282 1.523 . S
C1282 C1263 1.368 . S
C1282 C1276 1.368 . S
C1282 C1281 1.523 . S
C1283 C1267 1.429 . S
C1283 C1279 1.429 . S
C1283 C1284 1.523 . S
C1284 C1268 1.368 . S
C1284 C1280 1.368 . S
C1284 C1283 1.523 . S
H1285 C1260 0.950 . S
H1286 C1262 0.950 . S
H1287 C1263 0.949 . S
H1288 C1265 0.950 . S
H1289 C1267 0.950 . S
C1290 C1291 1.349 . S
C1290 C1292 1.327 . S
C1290 H1315 0.950 . S
C1291 C1290 1.349 . S
C1291 C1307 1.349 . S
C1292 C1290 1.327 . S
C1292 C1311 1.429 . S
C1292 H1316 0.950 . S
C1293 C1310 1.574 . S
C1293 C1312 1.368 . S
C1293 H1317 0.949 . S
H1294 C1298 0.949 . S
C1295 C1296 1.349 . S
C1295 C1297 1.327 . S
C1295 H1318 0.950 . S
C1296 C1295 1.349 . S
C1296 C1308 1.349 . S
C1297 C1295 1.327 . S
C1297 C1313 1.429 . S
C1297 H1319 0.950 . S
C1298 H1294 0.949 . S
C1298 C1306 1.574 . S
C1298 C1314 1.368 . S
H1299 C1307 0.950 . S
H1300 C1305 0.950 . S
H1301 C1306 0.949 . S
H1302 C1308 0.950 . S
H1303 C1309 0.950 . S
H1304 C1310 0.949 . S
C1305 H1300 0.950 . S
C1305 C1307 1.327 . S
C1305 C1311 1.429 . S
C1306 C1298 1.574 . S
C1306 H1301 0.949 . S
C1306 C1312 1.368 . S
C1307 C1291 1.349 . S
C1307 H1299 0.950 . S
C1307 C1305 1.327 . S
C1308 C1296 1.349 . S
C1308 H1302 0.950 . S
C1308 C1309 1.327 . S
C1309 H1303 0.950 . S
C1309 C1308 1.327 . S
C1309 C1313 1.429 . S
C1310 C1293 1.574 . S
C1310 H1304 0.949 . S
C1310 C1314 1.368 . S
C1311 C1292 1.429 . S
C1311 C1305 1.429 . S
C1311 C1312 1.523 . S
C1312 C1293 1.368 . S
C1312 C1306 1.368 . S
C1312 C1311 1.523 . S
C1313 C1297 1.429 . S
C1313 C1309 1.429 . S
C1313 C1314 1.523 . S
C1314 C1298 1.368 . S
C1314 C1310 1.368 . S
C1314 C1313 1.523 . S
H1315 C1290 0.950 . S
H1316 C1292 0.950 . S
H1317 C1293 0.949 . S
H1318 C1295 0.950 . S
H1319 C1297 0.950 . S
C1320 C1321 1.349 . S
C1320 C1322 1.327 . S
C1320 H1345 0.950 . S
C1321 C1320 1.349 . S
C1321 C1337 1.349 . S
C1322 C1320 1.327 . S
C1322 C1341 1.429 . S
C1322 H1346 0.950 . S
C1323 C1340 1.574 . S
C1323 C1342 1.368 . S
C1323 H1347 0.949 . S
H1324 C1328 0.949 . S
C1325 C1326 1.349 . S
C1325 C1327 1.327 . S
C1325 H1348 0.950 . S
C1326 C1325 1.349 . S
C1326 C1338 1.349 . S
C1327 C1325 1.327 . S
C1327 C1343 1.429 . S
C1327 H1349 0.950 . S
C1328 H1324 0.949 . S
C1328 C1336 1.574 . S
C1328 C1344 1.368 . S
H1329 C1337 0.950 . S
H1330 C1335 0.950 . S
H1331 C1336 0.949 . S
H1332 C1338 0.950 . S
H1333 C1339 0.950 . S
H1334 C1340 0.949 . S
C1335 H1330 0.950 . S
C1335 C1337 1.327 . S
C1335 C1341 1.429 . S
C1336 C1328 1.574 . S
C1336 H1331 0.949 . S
C1336 C1342 1.368 . S
C1337 C1321 1.349 . S
C1337 H1329 0.950 . S
C1337 C1335 1.327 . S
C1338 C1326 1.349 . S
C1338 H1332 0.950 . S
C1338 C1339 1.327 . S
C1339 H1333 0.950 . S
C1339 C1338 1.327 . S
C1339 C1343 1.429 . S
C1340 C1323 1.574 . S
C1340 H1334 0.949 . S
C1340 C1344 1.368 . S
C1341 C1322 1.429 . S
C1341 C1335 1.429 . S
C1341 C1342 1.523 . S
C1342 C1323 1.368 . S
C1342 C1336 1.368 . S
C1342 C1341 1.523 . S
C1343 C1327 1.429 . S
C1343 C1339 1.429 . S
C1343 C1344 1.523 . S
C1344 C1328 1.368 . S
C1344 C1340 1.368 . S
C1344 C1343 1.523 . S
H1345 C1320 0.950 . S
H1346 C1322 0.950 . S
H1347 C1323 0.949 . S
H1348 C1325 0.950 . S
H1349 C1327 0.950 . S
C1350 C1351 1.349 . S
C1350 C1352 1.327 . S
C1350 H1375 0.950 . S
C1351 C1350 1.349 . S
C1351 C1367 1.349 . S
C1352 C1350 1.327 . S
C1352 C1371 1.429 . S
C1352 H1376 0.950 . S
C1353 C1370 1.574 . S
C1353 C1372 1.368 . S
C1353 H1377 0.949 . S
H1354 C1358 0.949 . S
C1355 C1356 1.349 . S
C1355 C1357 1.327 . S
C1355 H1378 0.950 . S
C1356 C1355 1.349 . S
C1356 C1368 1.349 . S
C1357 C1355 1.327 . S
C1357 C1373 1.429 . S
C1357 H1379 0.950 . S
C1358 H1354 0.949 . S
C1358 C1366 1.574 . S
C1358 C1374 1.368 . S
H1359 C1367 0.950 . S
H1360 C1365 0.950 . S
H1361 C1366 0.949 . S
H1362 C1368 0.950 . S
H1363 C1369 0.950 . S
H1364 C1370 0.949 . S
C1365 H1360 0.950 . S
C1365 C1367 1.327 . S
C1365 C1371 1.429 . S
C1366 C1358 1.574 . S
C1366 H1361 0.949 . S
C1366 C1372 1.368 . S
C1367 C1351 1.349 . S
C1367 H1359 0.950 . S
C1367 C1365 1.327 . S
C1368 C1356 1.349 . S
C1368 H1362 0.950 . S
C1368 C1369 1.327 . S
C1369 H1363 0.950 . S
C1369 C1368 1.327 . S
C1369 C1373 1.429 . S
C1370 C1353 1.574 . S
C1370 H1364 0.949 . S
C1370 C1374 1.368 . S
C1371 C1352 1.429 . S
C1371 C1365 1.429 . S
C1371 C1372 1.523 . S
C1372 C1353 1.368 . S
C1372 C1366 1.368 . S
C1372 C1371 1.523 . S
C1373 C1357 1.429 . S
C1373 C1369 1.429 . S
C1373 C1374 1.523 . S
C1374 C1358 1.368 . S
C1374 C1370 1.368 . S
C1374 C1373 1.523 . S
H1375 C1350 0.950 . S
H1376 C1352 0.950 . S
H1377 C1353 0.949 . S
H1378 C1355 0.950 . S
H1379 C1357 0.950 . S
C1380 C1381 1.349 . S
C1380 C1382 1.327 . S
C1380 H1405 0.950 . S
C1381 C1380 1.349 . S
C1381 C1397 1.349 . S
C1382 C1380 1.327 . S
C1382 C1401 1.429 . S
C1382 H1406 0.950 . S
C1383 C1400 1.574 . S
C1383 C1402 1.368 . S
C1383 H1407 0.949 . S
H1384 C1388 0.949 . S
C1385 C1386 1.349 . S
C1385 C1387 1.327 . S
C1385 H1408 0.950 . S
C1386 C1385 1.349 . S
C1386 C1398 1.349 . S
C1387 C1385 1.327 . S
C1387 C1403 1.429 . S
C1387 H1409 0.950 . S
C1388 H1384 0.949 . S
C1388 C1396 1.574 . S
C1388 C1404 1.368 . S
H1389 C1397 0.950 . S
H1390 C1395 0.950 . S
H1391 C1396 0.949 . S
H1392 C1398 0.950 . S
H1393 C1399 0.950 . S
H1394 C1400 0.949 . S
C1395 H1390 0.950 . S
C1395 C1397 1.327 . S
C1395 C1401 1.429 . S
C1396 C1388 1.574 . S
C1396 H1391 0.949 . S
C1396 C1402 1.368 . S
C1397 C1381 1.349 . S
C1397 H1389 0.950 . S
C1397 C1395 1.327 . S
C1398 C1386 1.349 . S
C1398 H1392 0.950 . S
C1398 C1399 1.327 . S
C1399 H1393 0.950 . S
C1399 C1398 1.327 . S
C1399 C1403 1.429 . S
C1400 C1383 1.574 . S
C1400 H1394 0.949 . S
C1400 C1404 1.368 . S
C1401 C1382 1.429 . S
C1401 C1395 1.429 . S
C1401 C1402 1.523 . S
C1402 C1383 1.368 . S
C1402 C1396 1.368 . S
C1402 C1401 1.523 . S
C1403 C1387 1.429 . S
C1403 C1399 1.429 . S
C1403 C1404 1.523 . S
C1404 C1388 1.368 . S
C1404 C1400 1.368 . S
C1404 C1403 1.523 . S
H1405 C1380 0.950 . S
H1406 C1382 0.950 . S
H1407 C1383 0.949 . S
H1408 C1385 0.950 . S
H1409 C1387 0.950 . S
C1410 C1411 1.349 . S
C1410 C1412 1.327 . S
C1410 H1435 0.950 . S
C1411 C1410 1.349 . S
C1411 C1427 1.349 . S
C1412 C1410 1.327 . S
C1412 C1431 1.429 . S
C1412 H1436 0.950 . S
C1413 C1430 1.574 . S
C1413 C1432 1.368 . S
C1413 H1437 0.949 . S
H1414 C1418 0.949 . S
C1415 C1416 1.349 . S
C1415 C1417 1.327 . S
C1415 H1438 0.950 . S
C1416 C1415 1.349 . S
C1416 C1428 1.349 . S
C1417 C1415 1.327 . S
C1417 C1433 1.429 . S
C1417 H1439 0.950 . S
C1418 H1414 0.949 . S
C1418 C1426 1.574 . S
C1418 C1434 1.368 . S
H1419 C1427 0.950 . S
H1420 C1425 0.950 . S
H1421 C1426 0.949 . S
H1422 C1428 0.950 . S
H1423 C1429 0.950 . S
H1424 C1430 0.949 . S
C1425 H1420 0.950 . S
C1425 C1427 1.327 . S
C1425 C1431 1.429 . S
C1426 C1418 1.574 . S
C1426 H1421 0.949 . S
C1426 C1432 1.368 . S
C1427 C1411 1.349 . S
C1427 H1419 0.950 . S
C1427 C1425 1.327 . S
C1428 C1416 1.349 . S
C1428 H1422 0.950 . S
C1428 C1429 1.327 . S
C1429 H1423 0.950 . S
C1429 C1428 1.327 . S
C1429 C1433 1.429 . S
C1430 C1413 1.574 . S
C1430 H1424 0.949 . S
C1430 C1434 1.368 . S
C1431 C1412 1.429 . S
C1431 C1425 1.429 . S
C1431 C1432 1.523 . S
C1432 C1413 1.368 . S
C1432 C1426 1.368 . S
C1432 C1431 1.523 . S
C1433 C1417 1.429 . S
C1433 C1429 1.429 . S
C1433 C1434 1.523 . S
C1434 C1418 1.368 . S
C1434 C1430 1.368 . S
C1434 C1433 1.523 . S
H1435 C1410 0.950 . S
H1436 C1412 0.950 . S
H1437 C1413 0.949 . S
H1438 C1415 0.950 . S
H1439 C1417 0.950 . S
C1440 C1441 1.349 . S
C1440 C1442 1.327 . S
C1440 H1465 0.950 . S
C1441 C1440 1.349 . S
C1441 C1457 1.349 . S
C1442 C1440 1.327 . S
C1442 C1461 1.429 . S
C1442 H1466 0.950 . S
C1443 C1460 1.574 . S
C1443 C1462 1.368 . S
C1443 H1467 0.949 . S
H1444 C1448 0.949 . S
C1445 C1446 1.349 . S
C1445 C1447 1.327 . S
C1445 H1468 0.950 . S
C1446 C1445 1.349 . S
C1446 C1458 1.349 . S
C1447 C1445 1.327 . S
C1447 C1463 1.429 . S
C1447 H1469 0.950 . S
C1448 H1444 0.949 . S
C1448 C1456 1.574 . S
C1448 C1464 1.368 . S
H1449 C1457 0.950 . S
H1450 C1455 0.950 . S
H1451 C1456 0.949 . S
H1452 C1458 0.950 . S
H1453 C1459 0.950 . S
H1454 C1460 0.949 . S
C1455 H1450 0.950 . S
C1455 C1457 1.327 . S
C1455 C1461 1.429 . S
C1456 C1448 1.574 . S
C1456 H1451 0.949 . S
C1456 C1462 1.368 . S
C1457 C1441 1.349 . S
C1457 H1449 0.950 . S
C1457 C1455 1.327 . S
C1458 C1446 1.349 . S
C1458 H1452 0.950 . S
C1458 C1459 1.327 . S
C1459 H1453 0.950 . S
C1459 C1458 1.327 . S
C1459 C1463 1.429 . S
C1460 C1443 1.574 . S
C1460 H1454 0.949 . S
C1460 C1464 1.368 . S
C1461 C1442 1.429 . S
C1461 C1455 1.429 . S
C1461 C1462 1.523 . S
C1462 C1443 1.368 . S
C1462 C1456 1.368 . S
C1462 C1461 1.523 . S
C1463 C1447 1.429 . S
C1463 C1459 1.429 . S
C1463 C1464 1.523 . S
C1464 C1448 1.368 . S
C1464 C1460 1.368 . S
C1464 C1463 1.523 . S
H1465 C1440 0.950 . S
H1466 C1442 0.950 . S
H1467 C1443 0.949 . S
H1468 C1445 0.950 . S
H1469 C1447 0.950 . S
C1470 C1471 1.349 . S
C1470 C1472 1.327 . S
C1470 H1495 0.950 . S
C1471 C1470 1.349 . S
C1471 C1487 1.349 . S
C1472 C1470 1.327 . S
C1472 C1491 1.429 . S
C1472 H1496 0.950 . S
C1473 C1490 1.574 . S
C1473 C1492 1.368 . S
C1473 H1497 0.949 . S
H1474 C1478 0.949 . S
C1475 C1476 1.349 . S
C1475 C1477 1.327 . S
C1475 H1498 0.950 . S
C1476 C1475 1.349 . S
C1476 C1488 1.349 . S
C1477 C1475 1.327 . S
C1477 C1493 1.429 . S
C1477 H1499 0.950 . S
C1478 H1474 0.949 . S
C1478 C1486 1.574 . S
C1478 C1494 1.368 . S
H1479 C1487 0.950 . S
H1480 C1485 0.950 . S
H1481 C1486 0.949 . S
H1482 C1488 0.950 . S
H1483 C1489 0.950 . S
H1484 C1490 0.949 . S
C1485 H1480 0.950 . S
C1485 C1487 1.327 . S
C1485 C1491 1.429 . S
C1486 C1478 1.574 . S
C1486 H1481 0.949 . S
C1486 C1492 1.368 . S
C1487 C1471 1.349 . S
C1487 H1479 0.950 . S
C1487 C1485 1.327 . S
C1488 C1476 1.349 . S
C1488 H1482 0.950 . S
C1488 C1489 1.327 . S
C1489 H1483 0.950 . S
C1489 C1488 1.327 . S
C1489 C1493 1.429 . S
C1490 C1473 1.574 . S
C1490 H1484 0.949 . S
C1490 C1494 1.368 . S
C1491 C1472 1.429 . S
C1491 C1485 1.429 . S
C1491 C1492 1.523 . S
C1492 C1473 1.368 . S
C1492 C1486 1.368 . S
C1492 C1491 1.523 . S
C1493 C1477 1.429 . S
C1493 C1489 1.429 . S
C1493 C1494 1.523 . S
C1494 C1478 1.368 . S
C1494 C1490 1.368 . S
C1494 C1493 1.523 . S
H1495 C1470 0.950 . S
H1496 C1472 0.950 . S
H1497 C1473 0.949 . S
H1498 C1475 0.950 . S
H1499 C1477 0.950 . S
C1500 C1501 1.349 . S
C1500 C1502 1.327 . S
C1500 H1525 0.950 . S
C1501 C1500 1.349 . S
C1501 C1517 1.349 . S
C1502 C1500 1.327 . S
C1502 C1521 1.429 . S
C1502 H1526 0.950 . S
C1503 C1520 1.574 . S
C1503 C1522 1.368 . S
C1503 H1527 0.949 . S
H1504 C1508 0.949 . S
C1505 C1506 1.349 . S
C1505 C1507 1.327 . S
C1505 H1528 0.950 . S
C1506 C1505 1.349 . S
C1506 C1518 1.349 . S
C1507 C1505 1.327 . S
C1507 C1523 1.429 . S
C1507 H1529 0.950 . S
C1508 H1504 0.949 . S
C1508 C1516 1.574 . S
C1508 C1524 1.368 . S
H1509 C1517 0.950 . S
H1510 C1515 0.950 . S
H1511 C1516 0.949 . S
H1512 C1518 0.950 . S
H1513 C1519 0.950 . S
H1514 C1520 0.949 . S
C1515 H1510 0.950 . S
C1515 C1517 1.327 . S
C1515 C1521 1.429 . S
C1516 C1508 1.574 . S
C1516 H1511 0.949 . S
C1516 C1522 1.368 . S
C1517 C1501 1.349 . S
C1517 H1509 0.950 . S
C1517 C1515 1.327 . S
C1518 C1506 1.349 . S
C1518 H1512 0.950 . S
C1518 C1519 1.327 . S
C1519 H1513 0.950 . S
C1519 C1518 1.327 . S
C1519 C1523 1.429 . S
C1520 C1503 1.574 . S
C1520 H1514 0.949 . S
C1520 C1524 1.368 . S
C1521 C1502 1.429 . S
C1521 C1515 1.429 . S
C1521 C1522 1.523 . S
C1522 C1503 1.368 . S
C1522 C1516 1.368 . S
C1522 C1521 1.523 . S
C1523 C1507 1.429 . S
C1523 C1519 1.429 . S
C1523 C1524 1.523 . S
C1524 C1508 1.368 . S
C1524 C1520 1.368 . S
C1524 C1523 1.523 . S
H1525 C1500 0.950 . S
H1526 C1502 0.950 . S
H1527 C1503 0.949 . S
H1528 C1505 0.950 . S
H1529 C1507 0.950 . S
C1530 C1531 1.349 . S
C1530 C1532 1.327 . S
C1530 H1555 0.950 . S
C1531 C1530 1.349 . S
C1531 C1547 1.349 . S
C1532 C1530 1.327 . S
C1532 C1551 1.429 . S
C1532 H1556 0.950 . S
C1533 C1550 1.574 . S
C1533 C1552 1.368 . S
C1533 H1557 0.949 . S
H1534 C1538 0.949 . S
C1535 C1536 1.349 . S
C1535 C1537 1.327 . S
C1535 H1558 0.950 . S
C1536 C1535 1.349 . S
C1536 C1548 1.349 . S
C1537 C1535 1.327 . S
C1537 C1553 1.429 . S
C1537 H1559 0.950 . S
C1538 H1534 0.949 . S
C1538 C1546 1.574 . S
C1538 C1554 1.368 . S
H1539 C1547 0.950 . S
H1540 C1545 0.950 . S
H1541 C1546 0.949 . S
H1542 C1548 0.950 . S
H1543 C1549 0.950 . S
H1544 C1550 0.949 . S
C1545 H1540 0.950 . S
C1545 C1547 1.327 . S
C1545 C1551 1.429 . S
C1546 C1538 1.574 . S
C1546 H1541 0.949 . S
C1546 C1552 1.368 . S
C1547 C1531 1.349 . S
C1547 H1539 0.950 . S
C1547 C1545 1.327 . S
C1548 C1536 1.349 . S
C1548 H1542 0.950 . S
C1548 C1549 1.327 . S
C1549 H1543 0.950 . S
C1549 C1548 1.327 . S
C1549 C1553 1.429 . S
C1550 C1533 1.574 . S
C1550 H1544 0.949 . S
C1550 C1554 1.368 . S
C1551 C1532 1.429 . S
C1551 C1545 1.429 . S
C1551 C1552 1.523 . S
C1552 C1533 1.368 . S
C1552 C1546 1.368 . S
C1552 C1551 1.523 . S
C1553 C1537 1.429 . S
C1553 C1549 1.429 . S
C1553 C1554 1.523 . S
C1554 C1538 1.368 . S
C1554 C1550 1.368 . S
C1554 C1553 1.523 . S
H1555 C1530 0.950 . S
H1556 C1532 0.950 . S
H1557 C1533 0.949 . S
H1558 C1535 0.950 . S
H1559 C1537 0.950 . S
C481 C84 1.119 . S
C486 C20 1.114 . S
C511 C145 1.119 . S
C516 C71 1.114 . S
C541 C100 1.114 . S
C546 C164 1.119 . S
C571 C151 1.114 . S
C576 C225 1.119 . S
C601 C4 1.119 . S
C606 C180 1.114 . S
C631 C65 1.119 . S
C636 C231 1.114 . S
C661 C425 1.119 . S
C666 C271 1.114 . S
C691 C300 1.114 . S
C696 C444 1.119 . S
C721 C351 1.114 . S
C726 C265 1.119 . S
C751 C380 1.114 . S
C756 C284 1.119 . S
C781 C431 1.114 . S
C786 C345 1.119 . S
C811 C364 1.119 . S
C816 C460 1.114 . S
C841 C143 1.773 . S
C846 C2 1.773 . S
C871 C63 1.773 . S
C876 C162 1.773 . S
C901 C82 1.773 . S
C906 C223 1.773 . S
C931 C263 1.773 . S
C936 C362 1.773 . S
C961 C282 1.773 . S
C966 C423 1.773 . S
C991 C343 1.773 . S
C996 C442 1.773 . S
C1021 C303 2.266 . S
C1026 C23 2.266 . S
C1051 C42 2.267 . S
C1056 C322 2.267 . S
C1081 C383 2.266 . S
C1086 C103 2.266 . S
C1111 C122 2.266 . S
C1116 C402 2.266 . S
C1141 C183 2.267 . S
C1146 C463 2.267 . S
C1171 C242 2.266 . S
C1176 C202 2.266 . S
C1201 C105 1.529 . S
C1206 C31 1.523 . S
C1231 C60 1.523 . S
C1236 C124 1.529 . S
C1261 C111 1.523 . S
C1266 C185 1.529 . S
C1291 C140 1.523 . S
C1296 C204 1.529 . S
C1321 C25 1.529 . S
C1326 C191 1.523 . S
C1351 C44 1.529 . S
C1356 C220 1.523 . S
C1381 C404 1.529 . S
C1386 C260 1.523 . S
C1411 C311 1.523 . S
C1416 C465 1.529 . S
C1441 C340 1.523 . S
C1446 C244 1.529 . S
C1471 C305 1.529 . S
C1476 C391 1.523 . S
C1501 C420 1.523 . S
C1506 C324 1.529 . S
C1531 C471 1.523 . S
C1536 C385 1.529 . S
