# Generated by pormake.
# Topology ghw, (5)-cn, num edge types: 1
# Building blocks:
#     Node 0, Type 0, BuildingBlock: XOMCOT_clean_sbu_1, # of connection points: 5
#     Node 1, Type 0, BuildingBlock: XOMCOT_clean_sbu_1, # of connection points: 5
#     Node 2, Type 0, BuildingBlock: XOMCOT_clean_sbu_1, # of connection points: 5
#     Node 3, Type 0, BuildingBlock: XOMCOT_clean_sbu_1, # of connection points: 5
#     Node 4, Type 0, BuildingBlock: XOMCOT_clean_sbu_1, # of connection points: 5
#     Node 5, Type 0, BuildingBlock: XOMCOT_clean_sbu_1, # of connection points: 5
#     Node 6, Type 0, BuildingBlock: XOMCOT_clean_sbu_1, # of connection points: 5
#     Node 7, Type 0, BuildingBlock: XOMCOT_clean_sbu_1, # of connection points: 5
#     Node 8, Type 0, BuildingBlock: XOMCOT_clean_sbu_1, # of connection points: 5
#     Node 9, Type 0, BuildingBlock: XOMCOT_clean_sbu_1, # of connection points: 5
#     Node 10, Type 0, BuildingBlock: XOMCOT_clean_sbu_1, # of connection points: 5
#     Node 11, Type 0, BuildingBlock: XOMCOT_clean_sbu_1, # of connection points: 5
#     Node 12, Type 0, BuildingBlock: XOMCOT_clean_sbu_1, # of connection points: 5
#     Node 13, Type 0, BuildingBlock: XOMCOT_clean_sbu_1, # of connection points: 5
#     Node 14, Type 0, BuildingBlock: XOMCOT_clean_sbu_1, # of connection points: 5
#     Node 15, Type 0, BuildingBlock: XOMCOT_clean_sbu_1, # of connection points: 5
#     Edge 16, Type (0, 0), BuildingBlock: EZIPEK_clean_linker_0, # of connection points: 2
#     Edge 17, Type (0, 0), BuildingBlock: EZIPEK_clean_linker_0, # of connection points: 2
#     Edge 18, Type (0, 0), BuildingBlock: EZIPEK_clean_linker_0, # of connection points: 2
#     Edge 19, Type (0, 0), BuildingBlock: EZIPEK_clean_linker_0, # of connection points: 2
#     Edge 20, Type (0, 0), BuildingBlock: EZIPEK_clean_linker_0, # of connection points: 2
#     Edge 21, Type (0, 0), BuildingBlock: EZIPEK_clean_linker_0, # of connection points: 2
#     Edge 22, Type (0, 0), BuildingBlock: EZIPEK_clean_linker_0, # of connection points: 2
#     Edge 23, Type (0, 0), BuildingBlock: EZIPEK_clean_linker_0, # of connection points: 2
#     Edge 24, Type (0, 0), BuildingBlock: EZIPEK_clean_linker_0, # of connection points: 2
#     Edge 25, Type (0, 0), BuildingBlock: EZIPEK_clean_linker_0, # of connection points: 2
#     Edge 26, Type (0, 0), BuildingBlock: EZIPEK_clean_linker_0, # of connection points: 2
#     Edge 27, Type (0, 0), BuildingBlock: EZIPEK_clean_linker_0, # of connection points: 2
#     Edge 28, Type (0, 0), BuildingBlock: EZIPEK_clean_linker_0, # of connection points: 2
#     Edge 29, Type (0, 0), BuildingBlock: EZIPEK_clean_linker_0, # of connection points: 2
#     Edge 30, Type (0, 0), BuildingBlock: EZIPEK_clean_linker_0, # of connection points: 2
#     Edge 31, Type (0, 0), BuildingBlock: EZIPEK_clean_linker_0, # of connection points: 2
#     Edge 32, Type (0, 0), BuildingBlock: EZIPEK_clean_linker_0, # of connection points: 2
#     Edge 33, Type (0, 0), BuildingBlock: EZIPEK_clean_linker_0, # of connection points: 2
#     Edge 34, Type (0, 0), BuildingBlock: EZIPEK_clean_linker_0, # of connection points: 2
#     Edge 35, Type (0, 0), BuildingBlock: EZIPEK_clean_linker_0, # of connection points: 2
#     Edge 36, Type (0, 0), BuildingBlock: EZIPEK_clean_linker_0, # of connection points: 2
#     Edge 37, Type (0, 0), BuildingBlock: EZIPEK_clean_linker_0, # of connection points: 2
#     Edge 38, Type (0, 0), BuildingBlock: EZIPEK_clean_linker_0, # of connection points: 2
#     Edge 39, Type (0, 0), BuildingBlock: EZIPEK_clean_linker_0, # of connection points: 2
#     Edge 40, Type (0, 0), BuildingBlock: EZIPEK_clean_linker_0, # of connection points: 2
#     Edge 41, Type (0, 0), BuildingBlock: EZIPEK_clean_linker_0, # of connection points: 2
#     Edge 42, Type (0, 0), BuildingBlock: EZIPEK_clean_linker_0, # of connection points: 2
#     Edge 43, Type (0, 0), BuildingBlock: EZIPEK_clean_linker_0, # of connection points: 2
#     Edge 44, Type (0, 0), BuildingBlock: EZIPEK_clean_linker_0, # of connection points: 2
#     Edge 45, Type (0, 0), BuildingBlock: EZIPEK_clean_linker_0, # of connection points: 2
#     Edge 46, Type (0, 0), BuildingBlock: EZIPEK_clean_linker_0, # of connection points: 2
#     Edge 47, Type (0, 0), BuildingBlock: EZIPEK_clean_linker_0, # of connection points: 2
#     Edge 48, Type (0, 0), BuildingBlock: EZIPEK_clean_linker_0, # of connection points: 2
#     Edge 49, Type (0, 0), BuildingBlock: EZIPEK_clean_linker_0, # of connection points: 2
#     Edge 50, Type (0, 0), BuildingBlock: EZIPEK_clean_linker_0, # of connection points: 2
#     Edge 51, Type (0, 0), BuildingBlock: EZIPEK_clean_linker_0, # of connection points: 2
#     Edge 52, Type (0, 0), BuildingBlock: EZIPEK_clean_linker_0, # of connection points: 2
#     Edge 53, Type (0, 0), BuildingBlock: EZIPEK_clean_linker_0, # of connection points: 2
#     Edge 54, Type (0, 0), BuildingBlock: EZIPEK_clean_linker_0, # of connection points: 2
#     Edge 55, Type (0, 0), BuildingBlock: EZIPEK_clean_linker_0, # of connection points: 2
# Relax obj value: 0.235
# Max RMSD: 0.231
# Mean RMSD: 0.231
data_MOF--net-ghw--node1-XOMCOT_clean_sbu_1--edge1-EZIPEK_clean_linker_0
_symmetry_space_group_name_H-M    P1
_symmetry_Int_Tables_number       1
_symmetry_cell_setting            triclinic
loop_
_symmetry_equiv_pos_as_xyz
'x, y, z'
_cell_length_a     25.439082
_cell_length_b     30.236386
_cell_length_c     26.878405
_cell_angle_alpha  90.169695
_cell_angle_beta   93.556152
_cell_angle_gamma 89.445899
loop_
_atom_site_label
_atom_site_type_symbol
_atom_site_fract_x
_atom_site_fract_y
_atom_site_fract_z
_atom_type_partial_charge
C0 C 0.18224 0.06277 0.36392 0.0
C1 C 0.23148 0.04528 0.35789 0.0
N2 N 0.26688 0.07214 0.38111 0.0
N3 N 0.18648 0.10029 0.39131 0.0
C4 C 0.23892 0.10511 0.4011 0.0
H5 H 0.14609 0.0504 0.34614 0.0
Co6 Co 0.12965 0.13839 0.40227 0.0
C7 C 0.19727 0.21803 0.43924 0.0
O8 O 0.19116 0.23804 0.39602 0.0
N9 N 0.07138 0.17574 0.41324 0.0
C10 C 0.01447 0.23235 0.41427 0.0
C11 C 0.06625 0.22019 0.40965 0.0
C12 C 0.02185 0.16187 0.41907 0.0
N13 N 0.98703 0.19531 0.4204 0.0
O14 O 0.11338 0.10379 0.45996 0.0
H15 H 0.09629 0.24206 0.39853 0.0
H16 H 0.00958 0.12793 0.41703 0.0
O17 O 0.17608 0.17991 0.4448 0.0
C18 C 0.08214 0.07287 0.44455 0.0
O19 O 0.072 0.06885 0.39624 0.0
N20 N 0.13955 0.16627 0.34084 0.0
C21 C 0.14094 0.17836 0.2381 0.0
C22 C 0.18732 0.18286 0.26865 0.0
C23 C 0.18587 0.17628 0.32024 0.0
C24 C 0.09461 0.16196 0.31086 0.0
C25 C 0.09401 0.16928 0.25996 0.0
H26 H 0.22249 0.17637 0.34275 0.0
H27 H 0.0597 0.14859 0.32558 0.0
H28 H 0.25676 0.13403 0.41835 0.0
H29 H 0.24089 1.01706 0.33507 0.0
H30 H 0.9975 0.26501 0.40828 0.0
H31 H 0.22462 0.18847 0.25247 0.0
H32 H 0.05794 0.16391 0.23719 0.0
C33 C 0.05646 0.04683 0.85513 0.0
C34 C 0.00535 0.03397 0.86129 0.0
N35 N 0.97699 0.07033 0.87106 0.0
N36 N 0.06006 0.09121 0.86049 0.0
C37 C 0.01079 0.10431 0.87058 0.0
H38 H 0.08851 0.02494 0.84673 0.0
Co39 Co 0.11946 0.12759 0.85649 0.0
C40 C 0.06985 0.21613 0.82339 0.0
O41 O 0.09652 0.23528 0.8608 0.0
N42 N 0.17823 0.16374 0.85178 0.0
C43 C 0.23509 0.20958 0.81997 0.0
C44 C 0.18641 0.19086 0.81322 0.0
C45 C 0.22403 0.16458 0.87998 0.0
N46 N 0.25917 0.19206 0.86136 0.0
O47 O 0.14026 0.09744 0.79593 0.0
H48 H 0.16 0.19493 0.78046 0.0
H49 H 0.23352 0.14308 0.91134 0.0
O50 O 0.07419 0.17378 0.81801 0.0
C51 C 0.17443 0.06759 0.81031 0.0
O52 O 0.18122 0.05963 0.85826 0.0
N53 N 0.10787 0.15016 0.92047 0.0
C54 C 0.11604 0.16395 0.02339 0.0
C55 C 0.07779 0.18694 0.99317 0.0
C56 C 0.074 0.17928 0.94132 0.0
C57 C 0.14221 0.12584 0.95041 0.0
C58 C 0.14845 0.13329 1.00121 0.0
H59 H 0.04334 0.19594 0.91881 0.0
H60 H 0.1658 0.10034 0.93454 0.0
H61 H 0.99947 0.13809 0.87744 0.0
H62 H 0.98988 1.0008 0.85774 0.0
H63 H 0.2533 0.23124 0.79417 0.0
H64 H 0.05096 0.21002 0.00954 0.0
H65 H 0.17751 0.11414 0.02335 0.0
C66 C 0.81193 0.99186 0.58154 0.0
C67 C 0.76248 1.00786 0.59009 0.0
N68 N 0.7363 0.97567 0.61195 0.0
N69 N 0.81726 0.9498 0.59827 0.0
C70 C 0.7701 0.94107 0.61673 0.0
H71 H 0.84109 1.00964 0.56254 0.0
Co72 Co 0.87651 0.91209 0.59356 0.0
C73 C 0.83009 0.82459 0.5581 0.0
O74 O 0.86356 0.80378 0.58928 0.0
N75 N 0.93539 0.87532 0.58766 0.0
C76 C 0.99806 0.83942 0.54925 0.0
C77 C 0.94684 0.85416 0.54526 0.0
C78 C 0.98077 0.87386 0.61649 0.0
N79 N 0.01924 0.85233 0.59388 0.0
O80 O 0.8959 0.94281 0.53343 0.0
H81 H 0.92127 0.85348 0.51163 0.0
H82 H 0.98769 0.89243 0.65064 0.0
O83 O 0.83047 0.86723 0.5561 0.0
C84 C 0.93446 0.96796 0.54824 0.0
O85 O 0.94963 0.96761 0.59575 0.0
N86 N 0.86567 0.88885 0.65692 0.0
C87 C 0.87217 0.8749 0.75958 0.0
C88 C 0.8385 0.849 0.72819 0.0
C89 C 0.83572 0.85657 0.67639 0.0
C90 C 0.89638 0.91501 0.68778 0.0
C91 C 0.90169 0.90774 0.73855 0.0
H92 H 0.80832 0.83769 0.65295 0.0
H93 H 0.91757 0.94199 0.67277 0.0
H94 H 0.76014 0.91 0.63308 0.0
H95 H 0.74629 0.03999 0.5796 0.0
H96 H 0.0197 0.82475 0.51983 0.0
H97 H 0.81398 0.82407 0.74364 0.0
H98 H 0.92736 0.9289 0.76161 0.0
C99 C 0.94129 0.99384 0.11597 0.0
C100 C 0.99168 1.00776 0.10888 0.0
N101 N 0.02501 0.97367 0.11916 0.0
N102 N 0.94292 0.95137 0.13117 0.0
C103 C 0.9945 0.93993 0.13212 0.0
H104 H 0.90561 1.013 0.10866 0.0
Co105 Co 0.88462 0.91609 0.14021 0.0
C106 C 0.93767 0.83038 0.17598 0.0
O107 O 0.91344 0.80907 0.13869 0.0
N108 N 0.82518 0.88097 0.14962 0.0
C109 C 0.76941 0.83545 0.18396 0.0
C110 C 0.81908 0.85285 0.18782 0.0
C111 C 0.77711 0.88219 0.12507 0.0
N112 N 0.74337 0.854 0.14424 0.0
O113 O 0.86904 0.94858 0.19956 0.0
H114 H 0.84747 0.84749 0.21879 0.0
H115 H 0.76512 0.90484 0.09553 0.0
O116 O 0.93012 0.87234 0.17973 0.0
C117 C 0.83199 0.97631 0.18741 0.0
O118 O 0.81675 0.98024 0.14005 0.0
N119 N 0.89423 0.89003 0.07797 0.0
C120 C 0.89307 0.87505 0.97536 0.0
C121 C 0.93547 0.85966 0.00709 0.0
C122 C 0.93502 0.86709 0.05884 0.0
C123 C 0.85572 0.90778 0.04666 0.0
C124 C 0.852 0.8979 0.99644 0.0
H125 H 0.96859 0.85669 0.08262 0.0
H126 H 0.8293 0.93233 0.06025 0.0
H127 H 0.00965 0.90711 0.14023 0.0
H128 H 1.00244 0.03991 0.0957 0.0
H129 H 0.75252 0.81333 0.21011 0.0
H130 H 0.96911 0.84342 0.99194 0.0
H131 H 0.81949 0.9118 0.97341 0.0
C132 C 0.19508 0.54254 0.8788 0.0
C133 C 0.24532 0.52586 0.87594 0.0
N134 N 0.27878 0.55962 0.88291 0.0
N135 N 0.19683 0.58662 0.88736 0.0
C136 C 0.24887 0.59587 0.8896 0.0
H137 H 0.15947 0.52414 0.8713 0.0
Co138 Co 0.13672 0.62372 0.8887 0.0
C139 C 0.21229 0.69834 0.9227 0.0
O140 O 0.22975 0.70276 0.87809 0.0
N141 N 0.07637 0.65932 0.89073 0.0
C142 C 0.01744 0.7102 0.91005 0.0
C143 C 0.0683 0.69541 0.91916 0.0
C144 C 0.02976 0.65259 0.86511 0.0
N145 N 0.99329 0.68293 0.87645 0.0
O146 O 0.11462 0.59241 0.94668 0.0
H147 H 0.09669 0.70945 0.94613 0.0
H148 H 0.0219 0.62497 0.84019 0.0
O149 O 0.17807 0.66848 0.93103 0.0
C150 C 0.07897 0.56463 0.93218 0.0
O151 O 0.06835 0.56005 0.88399 0.0
N152 N 0.15176 0.65006 0.82753 0.0
C153 C 0.13719 0.67781 0.72881 0.0
C154 C 0.15204 0.63423 0.73981 0.0
C155 C 0.15823 0.62084 0.7894 0.0
C156 C 0.13964 0.69332 0.81696 0.0
C157 C 0.13209 0.70779 0.7679 0.0
H158 H 0.16351 0.58601 0.79663 0.0
H159 H 0.1317 0.71631 0.84629 0.0
H160 H 0.26519 0.6284 0.89372 0.0
H161 H 0.25636 0.49223 0.86698 0.0
H162 H 0.99839 0.73674 0.92945 0.0
H163 H 0.15507 0.60999 0.71031 0.0
H164 H 0.11885 0.74123 0.76112 0.0
C165 C 0.05285 0.55489 0.37225 0.0
C166 C 1.00185 0.54148 0.37659 0.0
N167 N 0.97008 0.5771 0.37026 0.0
N168 N 0.05305 0.59856 0.36241 0.0
C169 C 1.00196 0.6113 0.36207 0.0
H170 H 0.08764 0.53454 0.37852 0.0
Co171 Co 0.11244 0.63338 0.36096 0.0
C172 C 0.06822 0.71934 0.31475 0.0
O173 O 0.09423 0.7426 0.34943 0.0
N174 N 0.17272 0.66769 0.36017 0.0
C175 C 0.23649 0.70939 0.3337 0.0
C176 C 0.1868 0.69388 0.3228 0.0
C177 C 0.21586 0.66573 0.39206 0.0
N178 N 0.25498 0.69115 0.37699 0.0
O179 O 0.13674 0.60052 0.30427 0.0
H180 H 0.16444 0.69837 0.2877 0.0
H181 H 0.22036 0.64347 0.42346 0.0
O182 O 0.07223 0.67692 0.31614 0.0
C183 C 0.1726 0.57274 0.31969 0.0
O184 O 0.1824 0.56843 0.36798 0.0
N185 N 0.09423 0.65983 0.42055 0.0
C186 C 0.09082 0.68334 0.52027 0.0
C187 C 0.06036 0.70677 0.48359 0.0
C188 C 0.06121 0.69333 0.43351 0.0
C189 C 0.12047 0.63512 0.45649 0.0
C190 C 0.11959 0.64633 0.50638 0.0
H191 H 0.03523 0.7096 0.40602 0.0
H192 H 0.14324 0.60662 0.44601 0.0
H193 H 0.9884 0.64518 0.35803 0.0
H194 H 0.98949 0.50846 0.38517 0.0
H195 H 0.25943 0.72865 0.30914 0.0
H196 H 0.03615 0.73467 0.49362 0.0
H197 H 0.14233 0.62679 0.53394 0.0
C198 C 0.83084 0.48571 0.13027 0.0
C199 C 0.78162 0.50183 0.13934 0.0
N200 N 0.74588 0.47345 0.11935 0.0
N201 N 0.82624 0.44747 0.10426 0.0
C202 C 0.77362 0.44098 0.09809 0.0
H203 H 0.86753 0.49943 0.1453 0.0
Co204 Co 0.88298 0.40938 0.09209 0.0
C205 C 0.82074 0.32598 0.06671 0.0
O206 O 0.84304 0.30515 0.10544 0.0
N207 N 0.9415 0.37212 0.07969 0.0
C208 C 1.00009 0.31902 0.06371 0.0
C209 C 0.94741 0.33002 0.06308 0.0
C210 C 0.99154 0.38621 0.0875 0.0
N211 N 0.02737 0.35469 0.07912 0.0
O212 O 0.89463 0.43996 0.03086 0.0
H213 H 0.91653 0.30773 0.0513 0.0
H214 H 1.0023 0.41841 0.10201 0.0
O215 O 0.83341 0.36615 0.05774 0.0
C216 C 0.9277 0.47041 0.04338 0.0
O217 O 0.93815 0.47786 0.09109 0.0
N218 N 0.87797 0.38513 0.15594 0.0
C219 C 0.88041 0.37379 0.25875 0.0
C220 C 0.83452 0.36433 0.22923 0.0
C221 C 0.83386 0.37099 0.17756 0.0
C222 C 0.9221 0.39502 0.18507 0.0
C223 C 0.92471 0.38849 0.23612 0.0
H224 H 0.79723 0.36741 0.15566 0.0
H225 H 0.95433 0.41174 0.16963 0.0
H226 H 0.75582 0.41147 0.082 0.0
H227 H 0.7728 0.53013 0.16226 0.0
H228 H 0.017 0.28711 0.05511 0.0
H229 H 0.79893 0.35452 0.2462 0.0
H230 H 0.95996 0.39784 0.25824 0.0
C231 C 0.95037 0.49853 0.63593 0.0
C232 C 1.00162 0.5129 0.63524 0.0
N233 N 0.03354 0.4774 0.64052 0.0
N234 N 0.94997 0.45409 0.64207 0.0
C235 C 1.00164 0.44246 0.64463 0.0
H236 H 0.91607 0.51956 0.63052 0.0
Co237 Co 0.8923 0.41473 0.63993 0.0
C238 C 0.9579 0.33244 0.67679 0.0
O239 O 0.95849 0.31438 0.63248 0.0
N240 N 0.83608 0.37387 0.63776 0.0
C241 C 0.78721 0.31593 0.61378 0.0
C242 C 0.83672 0.33329 0.61633 0.0
C243 C 0.78541 0.37977 0.6488 0.0
N244 N 0.75499 0.34552 0.63377 0.0
O245 O 0.86465 0.44264 0.69859 0.0
H246 H 0.86957 0.31866 0.59878 0.0
H247 H 0.77011 0.40889 0.66585 0.0
O248 O 0.93512 0.37025 0.68233 0.0
C249 C 0.83393 0.47476 0.68367 0.0
O250 O 0.83189 0.48505 0.63619 0.0
N251 N 0.91029 0.3953 0.57648 0.0
C252 C 0.90614 0.38368 0.47335 0.0
C253 C 0.95176 0.37167 0.50274 0.0
C254 C 0.95334 0.37828 0.55476 0.0
C255 C 0.86752 0.40929 0.5473 0.0
C256 C 0.86375 0.40231 0.49641 0.0
H257 H 0.98927 0.37081 0.57662 0.0
H258 H 0.83518 0.42596 0.56393 0.0
H259 H 0.016 0.40882 0.64753 0.0
H260 H 0.01444 0.54651 0.62993 0.0
H261 H 0.77521 0.28571 0.59497 0.0
H262 H 0.98591 0.35832 0.48555 0.0
H263 H 0.82846 0.4129 0.47486 0.0
C264 C 0.66964 0.06695 0.85622 0.0
C265 C 0.71961 0.04978 0.85232 0.0
N266 N 0.7533 0.07362 0.88191 0.0
N267 N 0.67142 0.10102 0.88893 0.0
C268 C 0.72313 0.10366 0.90449 0.0
H269 H 0.63519 0.05751 0.83324 0.0
Co270 Co 0.6159 0.14201 0.89934 0.0
C271 C 0.68725 0.21712 0.93309 0.0
O272 O 0.6763 0.23761 0.89068 0.0
N273 N 0.56085 0.18285 0.91153 0.0
C274 C 0.50833 0.24082 0.92542 0.0
C275 C 0.55966 0.22646 0.92362 0.0
C276 C 0.50964 0.17175 0.90728 0.0
N277 N 0.47726 0.20608 0.91511 0.0
O278 O 0.59393 0.10699 0.95551 0.0
H279 H 0.59294 0.24778 0.9293 0.0
H280 H 0.49608 0.14012 0.89411 0.0
O281 O 0.66586 0.17967 0.94153 0.0
C282 C 0.56434 0.07524 0.93839 0.0
O283 O 0.56207 0.06791 0.89021 0.0
N284 N 0.62915 0.17036 0.83808 0.0
C285 C 0.63411 0.17897 0.73495 0.0
C286 C 0.68043 0.17569 0.76591 0.0
C287 C 0.67711 0.17243 0.81766 0.0
C288 C 0.58428 0.17495 0.80777 0.0
C289 C 0.58595 0.18133 0.75684 0.0
H290 H 0.71304 0.16824 0.84059 0.0
H291 H 0.54636 0.16865 0.82129 0.0
H292 H 0.73955 0.1296 0.92824 0.0
H293 H 0.73106 0.0246 0.82631 0.0
H294 H 0.49479 0.27442 0.93109 0.0
H295 H 0.71848 0.17332 0.75008 0.0
H296 H 0.54933 0.18284 0.73398 0.0
C297 C 0.56238 0.05304 0.32164 0.0
C298 C 0.51193 0.03779 0.32504 0.0
N299 N 0.48683 0.06564 0.35476 0.0
N300 N 0.56905 0.0903 0.3492 0.0
C301 C 0.52199 0.09677 0.36899 0.0
H302 H 0.59086 0.03903 0.29792 0.0
Co303 Co 0.62759 0.12793 0.35436 0.0
C304 C 0.57962 0.21772 0.32225 0.0
O305 O 0.6093 0.23873 0.35621 0.0
N306 N 0.68574 0.16477 0.35899 0.0
C307 C 0.74944 0.20871 0.3367 0.0
C308 C 0.69978 0.19368 0.32419 0.0
C309 C 0.7285 0.16121 0.39111 0.0
N310 N 0.76771 0.1876 0.37834 0.0
O311 O 0.65309 0.10397 0.29293 0.0
H312 H 0.67759 0.2 0.28935 0.0
H313 H 0.73316 0.13642 0.42 0.0
O314 O 0.58341 0.17529 0.31842 0.0
C315 C 0.69024 0.07649 0.30616 0.0
O316 O 0.70043 0.06959 0.354 0.0
N317 N 0.61009 0.14527 0.41839 0.0
C318 C 0.61148 0.15677 0.52102 0.0
C319 C 0.58117 0.18516 0.48922 0.0
C320 C 0.58078 0.1787 0.43748 0.0
C321 C 0.63576 0.11556 0.44946 0.0
C322 C 0.63777 0.12102 0.50074 0.0
H323 H 0.55628 0.19993 0.41366 0.0
H324 H 0.65672 0.08806 0.43401 0.0
H325 H 0.51234 0.12465 0.39189 0.0
H326 H 0.4941 1.01031 0.30466 0.0
H327 H 0.77282 0.22918 0.31371 0.0
H328 H 0.55898 0.21232 0.50423 0.0
H329 H 0.66046 0.0979 0.5244 0.0
C330 C 0.33316 0.97569 0.13269 0.0
C331 C 0.28335 0.9935 0.13493 0.0
N332 N 0.24909 0.96551 0.11191 0.0
N333 N 0.33069 0.93679 0.10766 0.0
C334 C 0.27849 0.93158 0.09572 0.0
H335 H 0.36814 0.98896 0.15173 0.0
Co336 Co 0.38729 0.89584 0.10259 0.0
C337 C 0.31634 0.81773 0.06871 0.0
O338 O 0.31534 0.80296 0.11443 0.0
N339 N 0.44306 0.85406 0.09686 0.0
C340 C 0.49509 0.79501 0.11175 0.0
C341 C 0.44441 0.81132 0.11181 0.0
C342 C 0.49334 0.86243 0.0871 0.0
N343 N 0.52573 0.8278 0.09714 0.0
O344 O 0.41097 0.92726 0.04475 0.0
H345 H 0.41269 0.795 0.1288 0.0
H346 H 0.50748 0.89431 0.07738 0.0
O347 O 0.34144 0.85359 0.06042 0.0
C348 C 0.44121 0.95877 0.06144 0.0
O349 O 0.44512 0.96558 0.10972 0.0
N350 N 0.37308 0.87292 0.16561 0.0
C351 C 0.37357 0.86696 0.26931 0.0
C352 C 0.32588 0.86481 0.24 0.0
C353 C 0.32648 0.86774 0.18776 0.0
C354 C 0.41875 0.87689 0.19468 0.0
C355 C 0.42038 0.87121 0.24567 0.0
H356 H 0.28946 0.86873 0.16589 0.0
H357 H 0.45422 0.88791 0.17884 0.0
H358 H 0.26152 0.90181 0.07979 0.0
H359 H 0.27266 0.02302 0.15501 0.0
H360 H 0.50936 0.76397 0.12771 0.0
H361 H 0.28865 0.86304 0.25735 0.0
H362 H 0.45771 0.8746 0.26703 0.0
C363 C 0.44111 0.98787 0.68263 0.0
C364 C 0.49149 1.0042 0.68217 0.0
N365 N 0.52069 0.97477 0.65823 0.0
N366 N 0.4385 0.94822 0.65899 0.0
C367 C 0.48803 0.94161 0.64456 0.0
H368 H 0.40891 1.00461 0.69916 0.0
Co369 Co 0.38135 0.90882 0.64672 0.0
C370 C 0.4278 0.82003 0.68591 0.0
O371 O 0.39718 0.79696 0.65484 0.0
N372 N 0.32379 0.86901 0.63359 0.0
C373 C 0.26636 0.82456 0.59222 0.0
C374 C 0.31733 0.83856 0.59648 0.0
C375 C 0.27543 0.87142 0.65199 0.0
N376 N 0.23999 0.84581 0.62673 0.0
O377 O 0.34739 0.93142 0.70521 0.0
H378 H 0.34616 0.82861 0.57105 0.0
H379 H 0.26444 0.89371 0.68093 0.0
O380 O 0.42424 0.86255 0.68597 0.0
C381 C 0.31809 0.96499 0.69199 0.0
O382 O 0.32093 0.98027 0.64657 0.0
N383 N 0.4073 0.89394 0.58531 0.0
C384 C 0.40785 0.88236 0.48297 0.0
C385 C 0.43783 0.85398 0.51525 0.0
C386 C 0.43731 0.86051 0.56709 0.0
C387 C 0.3818 0.92341 0.55394 0.0
C388 C 0.38108 0.91803 0.50282 0.0
H389 H 0.4576 0.83718 0.59185 0.0
H390 H 0.35872 0.94981 0.56896 0.0
H391 H 0.50031 0.91357 0.62326 0.0
H392 H 0.50544 0.03519 0.69798 0.0
H393 H 0.24873 0.80469 0.56224 0.0
H394 H 0.4593 0.82621 0.50064 0.0
H395 H 0.35791 0.94059 0.47889 0.0
C396 C 0.66261 0.5695 0.35538 0.0
C397 C 0.71245 0.55273 0.34977 0.0
N398 N 0.74654 0.57572 0.37987 0.0
N399 N 0.66505 0.60236 0.38962 0.0
C400 C 0.71684 0.60465 0.40447 0.0
H401 H 0.62764 0.56083 0.33266 0.0
Co402 Co 0.61038 0.64297 0.40208 0.0
C403 C 0.68458 0.7186 0.43169 0.0
O404 O 0.67512 0.73807 0.3885 0.0
N405 N 0.55611 0.68362 0.41602 0.0
C406 C 0.50304 0.7423 0.4233 0.0
C407 C 0.55408 0.7284 0.4177 0.0
C408 C 0.50604 0.67149 0.42151 0.0
N409 N 0.47312 0.70617 0.42556 0.0
O410 O 0.59253 0.60887 0.46057 0.0
H411 H 0.58611 0.75021 0.4116 0.0
H412 H 0.49274 0.63807 0.41756 0.0
O413 O 0.66192 0.68194 0.44131 0.0
C414 C 0.56454 0.5751 0.44674 0.0
O415 O 0.56118 0.56482 0.39923 0.0
N416 N 0.61966 0.67021 0.33931 0.0
C417 C 0.61744 0.68009 0.23543 0.0
C418 C 0.66558 0.67638 0.26384 0.0
C419 C 0.66587 0.67245 0.3159 0.0
C420 C 0.573 0.67366 0.31155 0.0
C421 C 0.57102 0.68129 0.26051 0.0
H422 H 0.70316 0.66809 0.33669 0.0
H423 H 0.53669 0.66593 0.3277 0.0
H424 H 0.73349 0.62939 0.42969 0.0
H425 H 0.72343 0.52851 0.32243 0.0
H426 H 0.48829 0.776 0.42112 0.0
H427 H 0.70247 0.67483 0.24582 0.0
H428 H 0.53301 0.68332 0.24002 0.0
C429 C 0.5813 0.54686 0.84628 0.0
C430 C 0.53178 0.52955 0.84959 0.0
N431 N 0.49922 0.56292 0.86026 0.0
N432 N 0.5797 0.5911 0.85431 0.0
C433 C 0.52885 0.59947 0.86326 0.0
H434 H 0.61583 0.52768 0.83877 0.0
Co435 Co 0.63411 0.63309 0.85662 0.0
C436 C 0.57773 0.71609 0.81372 0.0
O437 O 0.60156 0.74112 0.84788 0.0
N438 N 0.68936 0.67562 0.85976 0.0
C439 C 0.74825 0.72427 0.89106 0.0
C440 C 0.69771 0.70921 0.89285 0.0
C441 C 0.73533 0.67269 0.83711 0.0
N442 N 0.77215 0.70023 0.85686 0.0
O443 O 0.66388 0.60554 0.79854 0.0
H444 H 0.67099 0.71983 0.92025 0.0
H445 H 0.7444 0.64821 0.80978 0.0
O446 O 0.58732 0.67417 0.81365 0.0
C447 C 0.69706 0.57478 0.81234 0.0
O448 O 0.70198 0.56451 0.85989 0.0
N449 N 0.61169 0.65326 0.91793 0.0
C450 C 0.6051 0.6683 0.01949 0.0
C451 C 0.57166 0.69131 0.98469 0.0
C452 C 0.57501 0.68276 0.9335 0.0
C453 C 0.64287 0.62995 0.95177 0.0
C454 C 0.64023 0.63685 0.00257 0.0
H455 H 0.54835 0.69969 0.90706 0.0
H456 H 0.67102 0.60623 0.93887 0.0
H457 H 0.5135 0.63161 0.8725 0.0
H458 H 0.52053 0.49534 0.84445 0.0
H459 H 0.76792 0.74682 0.91731 0.0
H460 H 0.54332 0.71527 0.99703 0.0
H461 H 0.66604 0.6182 0.02854 0.0
C462 C 0.34173 0.47664 0.66008 0.0
C463 C 0.2924 0.49519 0.66315 0.0
N464 N 0.25778 0.47003 0.6363 0.0
N465 N 0.33863 0.44032 0.6306 0.0
C466 C 0.28663 0.43741 0.61659 0.0
H467 H 0.37671 0.48702 0.68164 0.0
Co468 Co 0.39415 0.39879 0.62392 0.0
C469 C 0.32314 0.32267 0.58562 0.0
O470 O 0.32422 0.30463 0.62998 0.0
N471 N 0.44956 0.35739 0.61689 0.0
C472 C 0.50234 0.29816 0.62686 0.0
C473 C 0.45132 0.3136 0.62758 0.0
C474 C 0.49994 0.36737 0.60919 0.0
N475 N 0.53251 0.33239 0.61564 0.0
O476 O 0.41814 0.43168 0.56682 0.0
H477 H 0.41929 0.29504 0.64104 0.0
H478 H 0.51362 0.40012 0.60264 0.0
O479 O 0.34761 0.35921 0.57956 0.0
C480 C 0.44697 0.46483 0.58091 0.0
O481 O 0.45095 0.47465 0.62854 0.0
N482 N 0.37775 0.37259 0.6853 0.0
C483 C 0.36951 0.36497 0.78811 0.0
C484 C 0.32406 0.36699 0.75578 0.0
C485 C 0.32905 0.36973 0.70414 0.0
C486 C 0.42176 0.37027 0.71708 0.0
C487 C 0.41857 0.36363 0.76771 0.0
H488 H 0.29372 0.37282 0.68009 0.0
H489 H 0.46005 0.37754 0.70434 0.0
H490 H 0.26914 0.40953 0.59699 0.0
H491 H 0.28208 0.52273 0.6866 0.0
H492 H 0.51683 0.26563 0.63793 0.0
H493 H 0.28535 0.36881 0.77036 0.0
H494 H 0.45456 0.363 0.79153 0.0
C495 C 0.45826 0.4877 0.20378 0.0
C496 C 0.50943 0.50064 0.19925 0.0
N497 N 0.53038 0.47453 0.16505 0.0
N498 N 0.44715 0.45309 0.17297 0.0
C499 C 0.49237 0.44597 0.14992 0.0
H500 H 0.43205 0.50166 0.22983 0.0
Co501 Co 0.38562 0.41862 0.16872 0.0
C502 C 0.42758 0.32721 0.20342 0.0
O503 O 0.39368 0.30596 0.17344 0.0
N504 N 0.32492 0.38508 0.16527 0.0
C505 C 0.25858 0.3442 0.18785 0.0
C506 C 0.30864 0.358 0.20086 0.0
C507 C 0.2829 0.3895 0.1325 0.0
N508 N 0.24225 0.36467 0.1452 0.0
O509 O 0.36227 0.44429 0.23013 0.0
H510 H 0.33015 0.35159 0.23597 0.0
H511 H 0.28046 0.41296 0.10213 0.0
O512 O 0.42738 0.36982 0.20431 0.0
C513 C 0.32759 0.47352 0.2157 0.0
O514 O 0.32065 0.4813 0.16771 0.0
N515 N 0.40056 0.39957 0.10451 0.0
C516 C 0.39262 0.38573 0.00203 0.0
C517 C 0.41858 0.35456 0.03366 0.0
C518 C 0.42233 0.3622 0.08531 0.0
C519 C 0.37889 0.43127 0.07347 0.0
C520 C 0.37358 0.42474 0.02235 0.0
H521 H 0.44276 0.33823 0.10887 0.0
H522 H 0.3632 0.46126 0.08886 0.0
H523 H 0.49851 0.41932 0.12402 0.0
H524 H 0.5304 0.52577 0.22101 0.0
H525 H 0.23414 0.32422 0.21033 0.0
H526 H 0.43508 0.32457 0.01861 0.0
H527 H 0.35416 0.44977 0.99881 0.0
C528 C 0.35723 0.05435 0.41373 0.0
C529 C 0.32261 0.07148 0.37511 0.0
C530 C 0.39657 0.08459 0.32304 0.0
C531 C 0.43133 0.06766 0.36176 0.0
N532 N 0.4478 0.04029 0.44502 0.0
N533 N 0.30761 0.10759 0.29594 0.0
C534 C 0.41246 0.05379 0.40764 0.0
C535 C 0.34186 0.08779 0.33041 0.0
N536 N 0.33663 0.03806 0.45562 0.0
N537 N 0.41633 0.09754 0.27928 0.0
H538 H 0.26724 0.10979 0.30019 0.0
H539 H 0.31884 0.124 0.26442 0.0
H540 H 0.45659 0.09879 0.27425 0.0
H541 H 0.39334 0.1059 0.24731 0.0
H542 H 0.35865 0.02304 0.48486 0.0
H543 H 0.29624 0.0384 0.46047 0.0
H544 H 0.43795 0.03202 0.48076 0.0
H545 H 0.48821 0.03848 0.44051 0.0
C546 C 0.89795 0.19624 0.45176 0.0
C547 C 0.93134 0.19029 0.412 0.0
C548 C 0.85683 0.16728 0.35751 0.0
C549 C 0.82244 0.18213 0.39336 0.0
N550 N 0.80858 0.21092 0.47505 0.0
N551 N 0.94204 0.17604 0.32489 0.0
C552 C 0.8424 0.19581 0.44124 0.0
C553 C 0.91071 0.177 0.3643 0.0
N554 N 0.91954 0.20349 0.49876 0.0
N555 N 0.83769 0.14332 0.3174 0.0
H556 H 0.98112 0.18605 0.32794 0.0
H557 H 0.92763 0.17026 0.28833 0.0
H558 H 0.79841 0.1337 0.3135 0.0
H559 H 0.8617 0.12871 0.29181 0.0
H560 H 0.89759 0.20474 0.53018 0.0
H561 H 0.96019 0.20544 0.50641 0.0
H562 H 0.8209 0.2256 0.50882 0.0
H563 H 0.76781 0.21105 0.46779 0.0
C564 C 0.40446 0.20072 0.85188 0.0
C565 C 0.42183 0.20694 0.90219 0.0
C566 C 0.33073 0.20704 0.926 0.0
C567 C 0.31427 0.195 0.87633 0.0
N568 N 0.33829 0.16781 0.7961 0.0
N569 N 0.4036 0.21185 0.9886 0.0
C570 C 0.35194 0.18829 0.8403 0.0
C571 C 0.38551 0.20895 0.93984 0.0
N572 N 0.43811 0.20762 0.81514 0.0
N573 N 0.29422 0.21858 0.95898 0.0
H574 H 0.44363 0.21413 0.99925 0.0
H575 H 0.37943 0.20908 0.01829 0.0
H576 H 0.25395 0.2198 0.94923 0.0
H577 H 0.30402 0.23115 0.99443 0.0
H578 H 0.42618 0.20684 0.77734 0.0
H579 H 0.47616 0.21937 0.82283 0.0
H580 H 0.36573 0.15899 0.7705 0.0
H581 H 0.30105 0.15468 0.78782 0.0
C582 C 0.89868 0.06668 0.92106 0.0
C583 C 0.92076 0.07319 0.8746 0.0
C584 C 0.83272 0.08616 0.83485 0.0
C585 C 0.81001 0.07455 0.87994 0.0
N586 N 0.82046 0.04955 0.96475 0.0
N587 N 0.90997 0.08484 0.78624 0.0
C588 C 0.84282 0.06408 0.92298 0.0
C589 C 0.88802 0.08178 0.83119 0.0
N590 N 0.93141 0.06253 0.96304 0.0
N591 N 0.80162 0.10333 0.79626 0.0
H592 H 0.95053 0.083 0.78267 0.0
H593 H 0.888 0.08607 0.75226 0.0
H594 H 0.76124 0.10815 0.79808 0.0
H595 H 0.81634 0.11671 0.76436 0.0
H596 H 0.91827 0.06129 0.99892 0.0
H597 H 0.97235 0.0632 0.96195 0.0
H598 H 0.84197 0.03717 0.99594 0.0
H599 H 0.77979 0.04679 0.96666 0.0
C600 C 0.669 0.97574 0.67445 0.0
C601 C 0.68187 0.97678 0.62396 0.0
C602 C 0.58828 0.98352 0.59725 0.0
C603 C 0.57522 0.97789 0.64725 0.0
N604 N 0.6018 0.96294 0.73297 0.0
N605 N 0.65436 0.97461 0.53672 0.0
C606 C 0.61528 0.9726 0.68586 0.0
C607 C 0.64162 0.97897 0.58512 0.0
N608 N 0.70822 0.97893 0.7113 0.0
N609 N 0.54956 0.99414 0.56169 0.0
H610 H 0.69297 0.96976 0.52678 0.0
H611 H 0.62649 0.97176 0.50686 0.0
H612 H 0.51024 0.99817 0.5699 0.0
H613 H 0.55694 1.00296 0.52538 0.0
H614 H 0.70133 0.98241 0.74888 0.0
H615 H 0.7478 0.98169 0.70377 0.0
H616 H 0.62907 0.95441 0.76192 0.0
H617 H 0.56274 0.96013 0.74216 0.0
C618 C 0.1055 0.88436 0.58031 0.0
C619 C 0.07449 0.85539 0.60713 0.0
C620 C 0.15272 0.83076 0.65686 0.0
C621 C 0.18415 0.8529 0.62363 0.0
N622 N 0.19213 0.90291 0.5549 0.0
N623 N 0.06644 0.80144 0.67117 0.0
C624 C 0.16099 0.88063 0.58581 0.0
C625 C 0.09742 0.82914 0.64611 0.0
N626 N 0.08156 0.91652 0.55126 0.0
N627 N 0.17591 0.81217 0.69888 0.0
H628 H 0.02576 0.79971 0.66372 0.0
H629 H 0.08136 0.77848 0.69705 0.0
H630 H 0.21664 0.81211 0.70652 0.0
H631 H 0.15457 0.80086 0.72793 0.0
H632 H 0.10189 0.94167 0.53468 0.0
H633 H 0.04081 0.92066 0.54827 0.0
H634 H 0.1776 0.91917 0.52275 0.0
H635 H 0.23303 0.90376 0.56036 0.0
C636 C 0.65146 0.86115 0.16543 0.0
C637 C 0.68829 0.85001 0.13019 0.0
C638 C 0.61682 0.82563 0.07138 0.0
C639 C 0.58116 0.83206 0.10908 0.0
N640 N 0.56499 0.84932 0.19453 0.0
N641 N 0.70821 0.82076 0.05001 0.0
C642 C 0.59867 0.84781 0.15693 0.0
C643 C 0.67155 0.83241 0.08286 0.0
N644 N 0.66676 0.88645 0.20587 0.0
N645 N 0.59786 0.81296 0.02491 0.0
H646 H 0.74857 0.82387 0.05824 0.0
H647 H 0.69933 0.80535 0.01593 0.0
H648 H 0.55808 0.80621 0.01678 0.0
H649 H 0.62054 0.81084 0.99409 0.0
H650 H 0.64064 0.89934 0.23062 0.0
H651 H 0.70481 0.89879 0.21138 0.0
H652 H 0.57703 0.85629 0.23144 0.0
H653 H 0.52597 0.83946 0.18996 0.0
C654 C 0.10493 0.97674 0.07069 0.0
C655 C 0.08163 0.97266 0.11705 0.0
C656 C 0.16883 0.95953 0.15889 0.0
C657 C 0.19246 0.96727 0.11337 0.0
N658 N 0.18466 0.98951 0.02759 0.0
N659 N 0.09146 0.96851 0.20643 0.0
C660 C 0.16088 0.97769 0.06966 0.0
C661 C 0.11367 0.96628 0.16152 0.0
N662 N 0.07352 0.978 0.02763 0.0
N663 N 0.19902 0.94439 0.19917 0.0
H664 H 0.05137 0.97464 0.20951 0.0
H665 H 0.11326 0.96846 0.24053 0.0
H666 H 0.23944 0.93873 0.1982 0.0
H667 H 0.18344 0.93378 0.23197 0.0
H668 H 0.088 0.97703 0.99225 0.0
H669 H 0.03258 0.97633 0.02727 0.0
H670 H 0.16423 1.002 0.99583 0.0
H671 H 0.22554 0.98996 0.026 0.0
C672 C 0.36967 0.55202 0.91917 0.0
C673 C 0.33449 0.55868 0.87692 0.0
C674 C 0.40837 0.56529 0.82325 0.0
C675 C 0.44357 0.56078 0.86587 0.0
N676 N 0.46039 0.55174 0.95408 0.0
N677 N 0.31787 0.57405 0.78973 0.0
C678 C 0.42489 0.55457 0.91387 0.0
C679 C 0.35321 0.5658 0.82908 0.0
N680 N 0.34969 0.54297 0.96401 0.0
N681 N 0.42823 0.56835 0.77731 0.0
H682 H 0.27723 0.57344 0.79294 0.0
H683 H 0.32823 0.58342 0.75449 0.0
H684 H 0.46858 0.56934 0.77248 0.0
H685 H 0.40543 0.56774 0.74384 0.0
H686 H 0.37243 0.53498 0.99626 0.0
H687 H 0.30927 0.54163 0.96845 0.0
H688 H 0.45027 0.55009 0.99091 0.0
H689 H 0.50099 0.55262 0.95056 0.0
C690 C 0.85759 0.70257 0.81811 0.0
C691 C 0.82757 0.69062 0.85846 0.0
C692 C 0.90673 0.66528 0.90621 0.0
C693 C 0.93729 0.67942 0.86719 0.0
N694 N 0.94318 0.70176 0.78224 0.0
N695 N 0.82057 0.64767 0.93318 0.0
C696 C 0.91291 0.69427 0.82145 0.0
C697 C 0.85127 0.66802 0.90028 0.0
N698 N 0.83328 0.72359 0.77798 0.0
N699 N 0.93114 0.65026 0.94957 0.0
H700 H 0.77959 0.64758 0.92908 0.0
H701 H 0.8355 0.62694 0.96163 0.0
H702 H 0.97144 0.64381 0.95325 0.0
H703 H 0.91186 0.64644 0.98229 0.0
H704 H 0.8531 0.73662 0.74873 0.0
H705 H 0.79279 0.7299 0.77528 0.0
H706 H 0.92798 0.7095 0.74646 0.0
H707 H 0.98405 0.69824 0.78544 0.0
C708 C 0.38221 0.71006 0.45326 0.0
C709 C 0.41732 0.70407 0.41491 0.0
C710 C 0.34637 0.67647 0.35935 0.0
C711 C 0.30958 0.6891 0.39398 0.0
N712 N 0.29103 0.71944 0.47405 0.0
N713 N 0.42985 0.69404 0.32768 0.0
C714 C 0.32702 0.70581 0.44152 0.0
C715 C 0.39855 0.69069 0.36681 0.0
N716 N 0.40182 0.71981 0.50036 0.0
N717 N 0.33121 0.65058 0.31953 0.0
H718 H 0.46627 0.70953 0.33136 0.0
H719 H 0.41662 0.68734 0.29096 0.0
H720 H 0.29341 0.63754 0.31524 0.0
H721 H 0.35772 0.63793 0.29494 0.0
H722 H 0.3789 0.72112 0.53111 0.0
H723 H 0.44202 0.72429 0.50885 0.0
H724 H 0.30108 0.73573 0.50742 0.0
H725 H 0.25056 0.71706 0.46595 0.0
C726 C 0.82575 0.58827 0.33245 0.0
C727 C 0.80312 0.57694 0.37768 0.0
C728 C 0.89145 0.57324 0.4197 0.0
C729 C 0.91377 0.57868 0.37315 0.0
N730 N 0.90292 0.58477 0.28402 0.0
N731 N 0.81427 0.55278 0.46284 0.0
C732 C 0.88108 0.58441 0.32915 0.0
C733 C 0.836 0.56803 0.42107 0.0
N734 N 0.79475 0.60476 0.29343 0.0
N735 N 0.92341 0.57333 0.46241 0.0
H736 H 0.77388 0.54779 0.46437 0.0
H737 H 0.83649 0.54149 0.49418 0.0
H738 H 0.9641 0.57727 0.46213 0.0
H739 H 0.90929 0.57326 0.49796 0.0
H740 H 0.80981 0.61759 0.26138 0.0
H741 H 0.75441 0.60998 0.29512 0.0
H742 H 0.88069 0.58412 0.25015 0.0
H743 H 0.94342 0.58185 0.2805 0.0
C744 C 0.59954 0.49512 0.1092 0.0
C745 C 0.58451 0.47323 0.15255 0.0
C746 C 0.67619 0.45198 0.17416 0.0
C747 C 0.69112 0.47243 0.12984 0.0
N748 N 0.66899 0.51092 0.05345 0.0
N749 N 0.60533 0.42614 0.2229 0.0
C750 C 0.65318 0.49325 0.09673 0.0
C751 C 0.62204 0.45029 0.1841 0.0
N752 N 0.56231 0.51819 0.08081 0.0
N753 N 0.71423 0.43543 0.2073 0.0
H754 H 0.56587 0.42484 0.23123 0.0
H755 H 0.62956 0.40503 0.24476 0.0
H756 H 0.75413 0.43574 0.20063 0.0
H757 H 0.70702 0.42398 0.24267 0.0
H758 H 0.57034 0.53763 0.0504 0.0
H759 H 0.52282 0.51934 0.08923 0.0
H760 H 0.64356 0.52432 0.02556 0.0
H761 H 0.70831 0.51041 0.04443 0.0
C762 C 0.14917 0.37836 0.15803 0.0
C763 C 0.18869 0.36763 0.12528 0.0
C764 C 0.12082 0.35374 0.05869 0.0
C765 C 0.08224 0.35698 0.09433 0.0
N766 N 0.06134 0.36199 0.1804 0.0
N767 N 0.21327 0.34256 0.04465 0.0
C768 C 0.09684 0.36656 0.14477 0.0
C769 C 0.17497 0.35533 0.07522 0.0
N770 N 0.16171 0.40059 0.20133 0.0
N771 N 0.10558 0.34961 0.00934 0.0
H772 H 0.25308 0.34185 0.0563 0.0
H773 H 0.20533 0.32901 0.00935 0.0
H774 H 0.06614 0.34742 0.99663 0.0
H775 H 0.13158 0.35148 0.98101 0.0
H776 H 0.13346 0.412 0.2249 0.0
H777 H 0.19961 0.41223 0.21024 0.0
H778 H 0.07144 0.36534 0.2184 0.0
H779 H 0.02367 0.34955 0.17235 0.0
C780 C 0.61721 0.33661 0.5774 0.0
C781 C 0.5888 0.33466 0.62075 0.0
C782 C 0.67042 0.34114 0.67334 0.0
C783 C 0.69851 0.34495 0.6298 0.0
N784 N 0.69846 0.35702 0.54138 0.0
N785 N 0.58556 0.34207 0.70971 0.0
C786 C 0.67178 0.34584 0.58199 0.0
C787 C 0.61463 0.33898 0.66878 0.0
N788 N 0.59185 0.32872 0.53203 0.0
N789 N 0.69747 0.33745 0.71867 0.0
H790 H 0.54466 0.33976 0.70757 0.0
H791 H 0.60146 0.34992 0.74522 0.0
H792 H 0.73847 0.33859 0.72285 0.0
H793 H 0.67984 0.32986 0.75148 0.0
H794 H 0.61123 0.32516 0.49922 0.0
H795 H 0.55161 0.3221 0.52801 0.0
H796 H 0.68034 0.36181 0.50598 0.0
H797 H 0.73809 0.36581 0.54411 0.0
C798 C 0.1141 0.4817 0.59361 0.0
C799 C 0.09014 0.47629 0.6394 0.0
C800 C 0.17667 0.46278 0.68216 0.0
C801 C 0.20108 0.47194 0.63727 0.0
N802 N 0.19443 0.49553 0.55189 0.0
N803 N 0.09783 0.46849 0.72837 0.0
C804 C 0.17008 0.48287 0.59334 0.0
C805 C 0.1213 0.46875 0.68404 0.0
N806 N 0.08316 0.48424 0.55032 0.0
N807 N 0.20621 0.44656 0.72231 0.0
H808 H 0.05729 0.47279 0.7306 0.0
H809 H 0.11871 0.46768 0.76293 0.0
H810 H 0.2466 0.4408 0.72176 0.0
H811 H 0.19013 0.43509 0.75449 0.0
H812 H 0.09797 0.48405 0.51507 0.0
H813 H 0.04215 0.48307 0.54959 0.0
H814 H 0.17442 0.50811 0.51997 0.0
H815 H 0.23535 0.49657 0.55094 0.0
C816 C 0.14544 0.21321 0.15328 0.0
C817 C 0.14151 0.17503 0.18304 0.0
C818 C 0.11521 0.1315 0.10905 0.0
C819 C 0.12159 0.16913 0.0786 0.0
N820 N 0.15826 0.24182 0.07111 0.0
N821 N 0.13858 0.09555 0.18791 0.0
C822 C 0.14097 0.20899 0.10045 0.0
C823 C 0.13154 0.13336 0.16039 0.0
N824 N 0.15193 0.25369 0.17522 0.0
N825 N 0.09226 0.09426 0.08922 0.0
H826 H 0.15136 0.09584 0.22557 0.0
H827 H 0.13747 0.06396 0.17236 0.0
H828 H 0.07684 0.09222 0.05241 0.0
H829 H 0.08427 0.0669 0.11063 0.0
H830 H 0.14946 0.28297 0.155 0.0
H831 H 0.15629 0.25808 0.21376 0.0
H832 H 0.1811 0.26755 0.08594 0.0
H833 H 0.15538 0.2406 0.03226 0.0
C834 C 0.8984 0.83326 0.89319 0.0
C835 C 0.89291 0.87342 0.91982 0.0
C836 C 0.86273 0.91017 0.84238 0.0
C837 C 0.87435 0.87176 0.81483 0.0
N838 N 0.92035 0.80166 0.81454 0.0
N839 N 0.89056 0.95315 0.91432 0.0
C840 C 0.89698 0.83448 0.84022 0.0
C841 C 0.88139 0.91289 0.89276 0.0
N842 N 0.90276 0.79381 0.91758 0.0
N843 N 0.83403 0.94417 0.82065 0.0
H844 H 0.90787 0.95682 0.95032 0.0
H845 H 0.88736 0.98214 0.89361 0.0
H846 H 0.8179 0.94267 0.78402 0.0
H847 H 0.82182 0.97156 0.84081 0.0
H848 H 0.90247 0.76378 0.89856 0.0
H849 H 0.90151 0.79094 0.9561 0.0
H850 H 0.94514 0.77848 0.83284 0.0
H851 H 0.92016 0.80098 0.77572 0.0
C852 C 0.05639 0.68263 0.60548 0.0
C853 C 0.09531 0.69659 0.5736 0.0
C854 C 0.15851 0.70749 0.64542 0.0
C855 C 0.12104 0.68991 0.67662 0.0
N856 N 0.03151 0.67009 0.69 0.0
N857 N 0.18049 0.72683 0.56142 0.0
C858 C 0.06887 0.68081 0.65774 0.0
C859 C 0.14512 0.71155 0.59341 0.0
N860 N 0.00912 0.66772 0.58532 0.0
N861 N 0.20677 0.71991 0.66579 0.0
H862 H 0.17006 0.73314 0.52391 0.0
H863 H 0.22003 0.73233 0.57109 0.0
H864 H 0.21755 0.7168 0.70371 0.0
H865 H 0.23555 0.7352 0.6463 0.0
H866 H 0.98148 0.65154 0.60544 0.0
H867 H 0.99813 0.66992 0.54739 0.0
H868 H 0.99153 0.6676 0.67978 0.0
H869 H 0.04001 0.66645 0.72821 0.0
C870 C 0.89673 0.33845 0.39446 0.0
C871 C 0.90222 0.38021 0.41803 0.0
C872 C 0.87898 0.41643 0.33802 0.0
C873 C 0.88133 0.37487 0.31379 0.0
N874 N 0.89848 0.29647 0.31776 0.0
N875 N 0.90453 0.45954 0.41133 0.0
C876 C 0.89181 0.33587 0.34163 0.0
C877 C 0.89498 0.41942 0.38945 0.0
N878 N 0.89243 0.30133 0.42229 0.0
N879 N 0.86085 0.45282 0.31186 0.0
H880 H 0.91882 0.46321 0.44833 0.0
H881 H 0.90286 0.48885 0.39144 0.0
H882 H 0.84884 0.45159 0.27405 0.0
H883 H 0.8527 0.4831 0.32839 0.0
H884 H 0.87877 0.27215 0.40601 0.0
H885 H 0.89638 0.30104 0.46115 0.0
H886 H 0.91271 0.26816 0.33621 0.0
H887 H 0.89333 0.29293 0.27914 0.0
C888 C 0.64947 0.19842 0.59583 0.0
C889 C 0.61712 0.16383 0.57569 0.0
C890 C 0.60759 0.13467 0.65919 0.0
C891 C 0.63362 0.17231 0.68002 0.0
N892 N 0.68635 0.23664 0.6697 0.0
N893 N 0.55887 0.10289 0.58807 0.0
C894 C 0.65656 0.2034 0.64871 0.0
C895 C 0.59446 0.13297 0.60735 0.0
N896 N 0.67238 0.22675 0.5642 0.0
N897 N 0.59817 0.09926 0.68874 0.0
H898 H 0.54762 0.10086 0.55014 0.0
H899 H 0.5368 0.08286 0.61021 0.0
H900 H 0.60948 0.0982 0.72671 0.0
H901 H 0.58516 0.06903 0.67442 0.0
H902 H 0.69334 0.25461 0.57543 0.0
H903 H 0.67012 0.22282 0.52559 0.0
H904 H 0.71123 0.2561 0.6502 0.0
H905 H 0.68838 0.24364 0.70773 0.0
C906 C 0.40074 0.90943 0.34618 0.0
C907 C 0.37616 0.87148 0.32453 0.0
C908 C 0.36822 0.84147 0.40811 0.0
C909 C 0.40157 0.8753 0.4283 0.0
N910 N 0.45666 0.93799 0.41446 0.0
N911 N 0.34146 0.79843 0.33503 0.0
C912 C 0.42011 0.90819 0.3966 0.0
C913 C 0.36103 0.83665 0.35549 0.0
N914 N 0.40378 0.9473 0.319 0.0
N915 N 0.34104 0.81552 0.4388 0.0
H916 H 0.33642 0.79308 0.29672 0.0
H917 H 0.33397 0.77092 0.35644 0.0
H918 H 0.34583 0.81707 0.47757 0.0
H919 H 0.30983 0.79592 0.42534 0.0
H920 H 0.41628 0.97712 0.33486 0.0
H921 H 0.38779 0.95009 0.28241 0.0
H922 H 0.475 0.95996 0.39141 0.0
H923 H 0.47232 0.93768 0.45128 0.0
C924 C 0.57141 0.64931 0.10198 0.0
C925 C 0.60427 0.67579 0.07404 0.0
C926 C 0.64348 0.70793 0.15152 0.0
C927 C 0.61437 0.6782 0.17962 0.0
N928 N 0.56382 0.61081 0.17956 0.0
N929 N 0.67991 0.72298 0.07219 0.0
C930 C 0.5817 0.64623 0.15433 0.0
C931 C 0.64289 0.70294 0.09881 0.0
N932 N 0.53105 0.62631 0.0785 0.0
N933 N 0.67032 0.74178 0.17479 0.0
H934 H 0.67893 0.72238 0.03332 0.0
H935 H 0.71376 0.73715 0.08893 0.0
H936 H 0.66806 0.74913 0.21251 0.0
H937 H 0.69149 0.76476 0.15586 0.0
H938 H 0.50268 0.60998 0.09773 0.0
H939 H 0.52326 0.62675 0.03993 0.0
H940 H 0.54403 0.58465 0.16177 0.0
H941 H 0.57442 0.60474 0.21703 0.0
C942 C 0.34347 0.34206 0.87404 0.0
C943 C 0.36826 0.37217 0.84288 0.0
C944 C 0.41173 0.40801 0.91577 0.0
C945 C 0.38582 0.37907 0.94731 0.0
N946 N 0.31693 0.32617 0.95736 0.0
N947 N 0.4088 0.44339 0.83529 0.0
C948 C 0.34845 0.34834 0.92673 0.0
C949 C 0.39706 0.4082 0.86421 0.0
N950 N 0.3166 0.30693 0.8536 0.0
N951 N 0.45117 0.4347 0.93485 0.0
H952 H 0.39562 0.44608 0.79785 0.0
H953 H 0.42617 0.47197 0.84984 0.0
H954 H 0.46387 0.43494 0.97251 0.0
H955 H 0.47464 0.45334 0.91259 0.0
H956 H 0.29826 0.28355 0.87454 0.0
H957 H 0.31457 0.29982 0.81559 0.0
H958 H 0.28407 0.30835 0.94435 0.0
H959 H 0.32074 0.32882 0.99608 0.0
C960 C 0.30454 0.25074 0.53989 0.0
C961 C 0.2956 0.29727 0.54322 0.0
C962 C 0.21766 0.28948 0.48517 0.0
C963 C 0.22666 0.24297 0.48113 0.0
N964 N 0.27182 0.17826 0.51566 0.0
N965 N 0.25327 0.36167 0.50546 0.0
C966 C 0.26817 0.22322 0.5116 0.0
C967 C 0.25503 0.3169 0.51191 0.0
N968 N 0.35046 0.2333 0.56083 0.0
N969 N 0.17093 0.3072 0.46657 0.0
H970 H 0.28216 0.38263 0.5206 0.0
H971 H 0.2275 0.37744 0.47945 0.0
H972 H 0.14064 0.28782 0.45092 0.0
H973 H 0.15933 0.33978 0.47277 0.0
H974 H 0.36291 0.20083 0.55558 0.0
H975 H 0.37954 0.25288 0.57834 0.0
H976 H 0.29758 0.16205 0.54126 0.0
H977 H 0.24512 0.15675 0.49805 0.0
C978 C 0.97617 0.04132 0.53322 0.0
C979 C 0.96469 0.9975 0.51587 0.0
C980 C 0.03993 1.00123 0.4631 0.0
C981 C 0.04888 0.04608 0.47713 0.0
N982 N 0.02137 0.11042 0.52303 0.0
N983 N 0.97942 0.93977 0.45617 0.0
C984 C 0.01611 0.06652 0.51172 0.0
C985 C 0.99432 0.97892 0.47793 0.0
N986 N 0.94946 0.05878 0.57143 0.0
N987 N 0.07667 0.97927 0.43708 0.0
H988 H 0.94613 0.9227 0.46548 0.0
H989 H 0.99677 0.92658 0.42525 0.0
H990 H 0.11169 0.99397 0.42776 0.0
H991 H 0.07551 0.94542 0.42988 0.0
H992 H 0.96134 0.08692 0.59135 0.0
H993 H 0.91651 0.04401 0.58506 0.0
H994 H 0.99309 0.12877 0.54068 0.0
H995 H 0.05283 0.12949 0.5133 0.0
C996 C 0.2259 0.99391 0.70622 0.0
C997 C 0.27952 0.98702 0.72453 0.0
C998 C 0.26504 0.03974 0.79201 0.0
C999 C 0.21035 0.04343 0.77677 0.0
N1000 N 0.13718 1.01644 0.72458 0.0
N1001 N 0.3463 0.9975 0.79118 0.0
C1002 C 0.19035 1.01857 0.73515 0.0
C1003 C 0.29767 1.00776 0.76959 0.0
N1004 N 0.20853 0.97717 0.6609 0.0
N1005 N 0.28684 0.06859 0.82642 0.0
H1006 H 0.37247 0.97554 0.77568 0.0
H1007 H 0.3588 1.00762 0.82702 0.0
H1008 H 0.26533 0.09388 0.84192 0.0
H1009 H 0.32721 0.07093 0.83512 0.0
H1010 H 0.17251 0.98597 0.64291 0.0
H1011 H 0.23106 0.95644 0.63961 0.0
H1012 H 0.11978 0.99454 0.69865 0.0
H1013 H 0.10994 0.0338 0.74469 0.0
C1014 C 0.02802 0.31927 0.74641 0.0
C1015 C 0.98094 0.30572 0.72021 0.0
C1016 C 0.98798 0.23439 0.76537 0.0
C1017 C 0.03937 0.24546 0.78564 0.0
N1018 N 0.11269 0.29604 0.7829 0.0
N1019 N 0.91672 0.24869 0.70299 0.0
C1020 C 0.06048 0.28735 0.77288 0.0
C1021 C 0.96132 0.26267 0.7291 0.0
N1022 N 0.04205 0.36271 0.74641 0.0
N1023 N 0.96308 0.19819 0.7824 0.0
H1024 H 0.89306 0.26962 0.68022 0.0
H1025 H 0.90449 0.2159 0.70224 0.0
H1026 H 0.98027 0.17713 0.80916 0.0
H1027 H 0.92358 0.19126 0.77348 0.0
H1028 H 0.07374 0.37507 0.76849 0.0
H1029 H 0.01815 0.38716 0.72954 0.0
H1030 H 0.13084 0.32417 0.76999 0.0
H1031 H 0.13948 0.27296 0.79831 0.0
C1032 C 0.73748 0.7983 0.53266 0.0
C1033 C 0.79253 0.79724 0.52554 0.0
C1034 C 0.77691 0.74098 0.4595 0.0
C1035 C 0.72249 0.74061 0.46842 0.0
N1036 N 0.6524 0.76259 0.51947 0.0
N1037 N 0.86563 0.76079 0.48827 0.0
C1038 C 0.70327 0.76736 0.5069 0.0
C1039 C 0.81249 0.76642 0.49091 0.0
N1040 N 0.71766 0.82902 0.56396 0.0
N1041 N 0.7946 0.7178 0.41997 0.0
H1042 H 0.89338 0.7799 0.50825 0.0
H1043 H 0.88251 0.73497 0.46888 0.0
H1044 H 0.77061 0.69697 0.39773 0.0
H1045 H 0.83216 0.72124 0.4072 0.0
H1046 H 0.67761 0.83536 0.56639 0.0
H1047 H 0.74146 0.8504 0.58533 0.0
H1048 H 0.63693 0.77773 0.55024 0.0
H1049 H 0.62675 0.74002 0.50177 0.0
C1050 C 0.72984 1.00452 0.27998 0.0
C1051 C 0.72248 0.05073 0.27116 0.0
C1052 C 0.79533 0.04882 0.21499 0.0
C1053 C 0.80231 1.0027 0.22372 0.0
N1054 N 0.78421 0.93877 0.27293 0.0
N1055 N 0.74305 0.11565 0.22445 0.0
C1056 C 0.77192 0.98116 0.25868 0.0
C1057 C 0.75366 0.07254 0.23685 0.0
N1058 N 0.69449 0.98234 0.30679 0.0
N1059 N 0.83108 0.07033 0.18803 0.0
H1060 H 0.71393 0.13444 0.2402 0.0
H1061 H 0.76031 0.13224 0.1959 0.0
H1062 H 0.86342 0.05416 0.17401 0.0
H1063 H 0.83225 0.10447 0.18374 0.0
H1064 H 0.69314 0.94805 0.30944 0.0
H1065 H 0.66283 0.99782 0.32264 0.0
H1066 H 0.76756 0.92273 0.30223 0.0
H1067 H 0.81499 0.92069 0.25904 0.0
C1068 C 0.9513 0.76116 0.22875 0.0
C1069 C 0.96961 0.80371 0.21507 0.0
C1070 C 0.05521 0.78614 0.2589 0.0
C1071 C 0.03658 0.74424 0.27395 0.0
N1072 N 0.97176 0.68692 0.25752 0.0
N1073 N 0.03429 0.86087 0.23314 0.0
C1074 C 0.98605 0.73024 0.25451 0.0
C1075 C 0.02014 0.81746 0.23464 0.0
N1076 N 0.89906 0.75136 0.22081 0.0
N1077 N 0.10787 0.79497 0.26434 0.0
H1078 H 0.009 0.88611 0.22079 0.0
H1079 H 0.0686 0.87302 0.25122 0.0
H1080 H 0.13569 0.77189 0.27805 0.0
H1081 H 0.12485 0.82259 0.24897 0.0
H1082 H 0.88166 0.72377 0.23575 0.0
H1083 H 0.87135 0.77336 0.20476 0.0
H1084 H 0.93804 0.67409 0.23909 0.0
H1085 H 0.9963 0.66202 0.27205 0.0
C1086 C 0.25481 0.80517 0.99034 0.0
C1087 C 0.29229 0.78861 0.02749 0.0
C1088 C 0.27181 0.71206 0.99964 0.0
C1089 C 0.23456 0.72853 0.96286 0.0
N1090 N 0.18379 0.78955 0.92784 0.0
N1091 N 0.34712 0.72706 0.05615 0.0
C1092 C 0.2245 0.77485 0.95932 0.0
C1093 C 0.30331 0.74217 0.02924 0.0
N1094 N 0.24943 0.84976 0.98326 0.0
N1095 N 0.2768 0.66743 0.00684 0.0
H1096 H 0.37377 0.74813 0.07463 0.0
H1097 H 0.36092 0.69458 0.05513 0.0
H1098 H 0.25534 0.64431 0.98539 0.0
H1099 H 0.29845 0.65326 0.03695 0.0
H1100 H 0.22678 0.86422 0.95406 0.0
H1101 H 0.27149 0.87292 0.00375 0.0
H1102 H 0.16994 0.82201 0.92639 0.0
H1103 H 0.16024 0.7682 0.90587 0.0
C1104 C 0.01571 0.56072 1.00138 0.0
C1105 C 0.04615 0.5387 0.96617 0.0
C1106 C 0.99438 0.47066 0.97688 0.0
C1107 C 0.96089 0.49427 0.00827 0.0
N1108 N 0.93322 0.56377 0.04217 0.0
N1109 N 0.06597 0.47193 0.92148 0.0
C1110 C 0.96984 0.53994 0.01791 0.0
C1111 C 0.03565 0.49344 0.95429 0.0
N1112 N 0.03075 0.6011 0.01989 0.0
N1113 N 0.9888 0.42603 0.97054 0.0
H1114 H 0.10144 0.48462 0.91086 0.0
H1115 H 0.05588 0.44209 0.9042 0.0
H1116 H 0.95769 0.40815 0.98325 0.0
H1117 H 0.01602 0.40586 0.95387 0.0
H1118 H 0.01339 0.61643 0.04957 0.0
H1119 H 0.0636 0.61786 0.00906 0.0
H1120 H 0.93521 0.59772 0.04824 0.0
H1121 H 0.89786 0.5501 0.05218 0.0
C1122 C 0.24074 0.56805 0.25502 0.0
C1123 C 0.20653 0.54643 0.28658 0.0
C1124 C 0.25834 0.47722 0.27976 0.0
C1125 C 0.29316 0.49915 0.24895 0.0
N1126 N 0.32486 0.56754 0.21702 0.0
N1127 N 0.1745 0.4784 0.31855 0.0
C1128 C 0.28619 0.54519 0.23931 0.0
C1129 C 0.21334 0.50041 0.29622 0.0
N1130 N 0.22901 0.60991 0.23857 0.0
N1131 N 0.26881 0.43464 0.29439 0.0
H1132 H 0.13981 0.4941 0.32789 0.0
H1133 H 0.17349 0.44425 0.32282 0.0
H1134 H 0.30171 0.41699 0.28423 0.0
H1135 H 0.24796 0.41793 0.32047 0.0
H1136 H 0.2493 0.62598 0.21157 0.0
H1137 H 0.19563 0.62727 0.24804 0.0
H1138 H 0.32532 0.60173 0.21286 0.0
H1139 H 0.35965 0.55224 0.20716 0.0
C1140 C 0.73816 0.28113 0.04969 0.0
C1141 C 0.78441 0.3002 0.03178 0.0
C1142 C 0.77223 0.25536 0.95551 0.0
C1143 C 0.72316 0.24009 0.97083 0.0
N1144 N 0.65634 0.24221 0.03076 0.0
N1145 N 0.84068 0.31042 0.96353 0.0
C1146 C 0.70546 0.25365 0.01767 0.0
C1147 C 0.79988 0.28894 0.98339 0.0
N1148 N 0.72528 0.28928 0.0975 0.0
N1149 N 0.79357 0.23625 0.91512 0.0
H1150 H 0.86249 0.33491 0.9823 0.0
H1151 H 0.84984 0.30695 0.92648 0.0
H1152 H 0.77539 0.21041 0.89506 0.0
H1153 H 0.83163 0.24241 0.90491 0.0
H1154 H 0.69667 0.2718 0.1151 0.0
H1155 H 0.74499 0.31216 0.12067 0.0
H1156 H 0.6382 0.25606 0.06087 0.0
H1157 H 0.63206 0.22067 0.00993 0.0
C1158 C 0.82105 0.52257 0.75964 0.0
C1159 C 0.79878 0.49984 0.71717 0.0
C1160 C 0.71049 0.52925 0.73496 0.0
C1161 C 0.7325 0.5519 0.77739 0.0
N1162 N 0.80884 0.56796 0.83265 0.0
N1163 N 0.72322 0.49132 0.6577 0.0
C1164 C 0.78784 0.54793 0.79034 0.0
C1165 C 0.74393 0.50605 0.70289 0.0
N1166 N 0.87469 0.52316 0.76818 0.0
N1167 N 0.65692 0.5268 0.72703 0.0
H1168 H 0.74312 0.47182 0.63305 0.0
H1169 H 0.68653 0.50151 0.64237 0.0
H1170 H 0.63046 0.54342 0.74864 0.0
H1171 H 0.63832 0.5049 0.70184 0.0
H1172 H 0.89458 0.54337 0.79429 0.0
H1173 H 0.90054 0.50605 0.74631 0.0
H1174 H 0.84616 0.561 0.84891 0.0
H1175 H 0.78836 0.59069 0.85332 0.0
C1176 C 0.52769 0.99628 0.04275 0.0
C1177 C 0.47335 0.98722 0.02899 0.0
C1178 C 0.4784 0.03644 0.95651 0.0
C1179 C 0.53255 0.04604 0.97051 0.0
N1180 N 0.61139 0.02499 0.01923 0.0
N1181 N 0.39447 1.00917 0.98083 0.0
C1182 C 0.55766 0.02364 0.01191 0.0
C1183 C 0.44827 1.00978 0.98778 0.0
N1184 N 0.5511 0.98006 0.08626 0.0
N1185 N 0.45527 0.05122 0.91228 0.0
H1186 H 0.37025 0.99149 0.00332 0.0
H1187 H 0.37301 0.03006 0.95624 0.0
H1188 H 0.47245 0.0726 0.88825 0.0
H1189 H 0.41965 0.03917 0.89686 0.0
H1190 H 0.58656 0.99191 0.10227 0.0
H1191 H 0.53454 0.95697 0.10889 0.0
H1192 H 0.63316 1.00445 0.04394 0.0
H1193 H 0.6354 0.04311 0.99696 0.0
C1194 C 0.52181 0.30534 0.22994 0.0
C1195 C 0.4669 0.30047 0.23499 0.0
C1196 C 0.48573 0.23715 0.29147 0.0
C1197 C 0.5408 0.24434 0.28974 0.0
N1198 N 0.61117 0.28935 0.26147 0.0
N1199 N 0.3968 0.26565 0.27645 0.0
C1200 C 0.5587 0.27979 0.2604 0.0
C1201 C 0.44898 0.26719 0.26708 0.0
N1202 N 0.53895 0.33246 0.19382 0.0
N1203 N 0.46815 0.20181 0.317 0.0
H1204 H 0.36855 0.28687 0.25983 0.0
H1205 H 0.38183 0.24609 0.30395 0.0
H1206 H 0.49289 0.18174 0.33939 0.0
H1207 H 0.42943 0.19081 0.31387 0.0
H1208 H 0.57782 0.3333 0.1838 0.0
H1209 H 0.51363 0.35145 0.17054 0.0
H1210 H 0.6258 0.31825 0.24679 0.0
H1211 H 0.64025 0.2698 0.27953 0.0
C1212 C 0.52238 0.80184 0.71817 0.0
C1213 C 0.46718 0.79505 0.71982 0.0
C1214 C 0.48624 0.7284 0.77092 0.0
C1215 C 0.54079 0.73865 0.77526 0.0
N1216 N 0.61098 0.78648 0.75304 0.0
N1217 N 0.39689 0.75617 0.75635 0.0
C1218 C 0.55871 0.776 0.7491 0.0
C1219 C 0.44933 0.75949 0.74866 0.0
N1220 N 0.54051 0.83104 0.6848 0.0
N1221 N 0.46943 0.68839 0.78648 0.0
H1222 H 0.36884 0.77898 0.74216 0.0
H1223 H 0.38205 0.73375 0.78117 0.0
H1224 H 0.49546 0.66363 0.79872 0.0
H1225 H 0.43077 0.67759 0.78058 0.0
H1226 H 0.58003 0.83412 0.67752 0.0
H1227 H 0.51546 0.8495 0.66094 0.0
H1228 H 0.62552 0.81655 0.74135 0.0
H1229 H 0.63982 0.76561 0.76966 0.0
C1230 C 0.47991 0.53708 0.46972 0.0
C1231 C 0.53412 0.54778 0.48182 0.0
C1232 C 0.53191 0.50206 0.55763 0.0
C1233 C 0.47757 0.49188 0.54578 0.0
N1234 N 0.39732 0.50988 0.49756 0.0
N1235 N 0.61427 0.53072 0.53059 0.0
C1236 C 0.45113 0.51175 0.50345 0.0
C1237 C 0.56055 0.5281 0.52433 0.0
N1238 N 0.45549 0.54964 0.42512 0.0
N1239 N 0.55652 0.48811 0.60156 0.0
H1240 H 0.63725 0.54828 0.50684 0.0
H1241 H 0.63707 0.51182 0.55621 0.0
H1242 H 0.54082 0.46588 0.6258 0.0
H1243 H 0.59199 0.50106 0.61608 0.0
H1244 H 0.4199 0.53644 0.4111 0.0
H1245 H 0.47149 0.57048 0.39966 0.0
H1246 H 0.37482 0.52898 0.47189 0.0
H1247 H 0.37413 0.49298 0.52171 0.0
loop_
_geom_bond_atom_site_label_1
_geom_bond_atom_site_label_2
_geom_bond_distance
_geom_bond_site_symmetry_2
_ccdc_geom_bond_type
C0 C1 1.351 . S
C0 N3 1.368 . S
C0 H5 0.931 . S
C1 C0 1.351 . S
C1 N2 1.373 . S
C1 H29 0.930 . S
N2 C1 1.373 . S
N2 C4 1.340 . S
N3 C0 1.368 . S
N3 C4 1.321 . S
N3 Co6 2.135 . S
C4 N2 1.340 . S
C4 N3 1.321 . S
C4 H28 0.930 . S
H5 C0 0.931 . S
Co6 N3 2.135 . S
Co6 N9 2.121 . S
Co6 O14 2.055 . S
Co6 O17 2.039 . S
Co6 N20 2.140 . S
C7 O8 1.227 . S
C7 O17 1.265 . S
O8 C7 1.227 . S
N9 Co6 2.121 . S
N9 C11 1.375 . S
N9 C12 1.313 . S
C10 C11 1.338 1_655 S
C10 N13 1.377 . S
C10 H30 0.930 . S
C11 N9 1.375 . S
C11 C10 1.338 1_455 S
C11 H15 0.931 . S
C12 N9 1.313 . S
C12 N13 1.344 1_455 S
C12 H16 0.930 1_455 S
N13 C10 1.377 . S
N13 C12 1.344 1_655 S
O14 Co6 2.055 . S
O14 C18 1.253 . S
H15 C11 0.931 . S
H16 C12 0.930 1_655 S
O17 Co6 2.039 . S
O17 C7 1.265 . S
C18 O14 1.253 . S
C18 O19 1.227 . S
O19 C18 1.227 . S
N20 Co6 2.140 . S
N20 C23 1.346 . S
N20 C24 1.345 . S
C21 C22 1.387 . S
C21 C25 1.391 . S
C22 C21 1.387 . S
C22 C23 1.369 . S
C22 H31 0.929 . S
C23 N20 1.346 . S
C23 C22 1.369 . S
C23 H26 0.928 . S
C24 N20 1.345 . S
C24 C25 1.371 . S
C24 H27 0.931 . S
C25 C21 1.391 . S
C25 C24 1.371 . S
C25 H32 0.930 . S
H26 C23 0.928 . S
H27 C24 0.931 . S
H28 C4 0.930 . S
H29 C1 0.930 . S
H30 C10 0.930 . S
H31 C22 0.929 . S
H32 C25 0.930 . S
C33 C34 1.351 1_455 S
C33 N36 1.368 . S
C33 H38 0.931 . S
C34 C33 1.351 1_655 S
C34 N35 1.373 . S
C34 H62 0.930 . S
N35 C34 1.373 . S
N35 C37 1.340 1_655 S
N36 C33 1.368 . S
N36 C37 1.321 . S
N36 Co39 2.135 . S
C37 N35 1.340 1_455 S
C37 N36 1.321 . S
C37 H61 0.930 1_455 S
H38 C33 0.931 . S
Co39 N36 2.135 . S
Co39 N42 2.121 . S
Co39 O47 2.055 . S
Co39 O50 2.039 . S
Co39 N53 2.140 . S
C40 O41 1.227 . S
C40 O50 1.265 . S
O41 C40 1.227 . S
N42 Co39 2.121 . S
N42 C44 1.375 . S
N42 C45 1.313 . S
C43 C44 1.338 . S
C43 N46 1.377 . S
C43 H63 0.930 . S
C44 N42 1.375 . S
C44 C43 1.338 . S
C44 H48 0.931 . S
C45 N42 1.313 . S
C45 N46 1.344 . S
C45 H49 0.930 . S
N46 C43 1.377 . S
N46 C45 1.344 . S
O47 Co39 2.055 . S
O47 C51 1.253 . S
H48 C44 0.931 . S
H49 C45 0.930 . S
O50 Co39 2.039 . S
O50 C40 1.265 . S
C51 O47 1.253 . S
C51 O52 1.227 . S
O52 C51 1.227 . S
N53 Co39 2.140 . S
N53 C56 1.346 . S
N53 C57 1.345 . S
C54 C55 1.382 1_554 S
C54 C58 1.391 . S
C55 C54 1.382 1_556 S
C55 C56 1.378 . S
C55 H64 0.925 1_556 S
C56 N53 1.346 . S
C56 C55 1.378 . S
C56 H59 0.928 . S
C57 N53 1.345 . S
C57 C58 1.371 1_556 S
C57 H60 0.931 . S
C58 C54 1.391 . S
C58 C57 1.371 1_554 S
C58 H65 0.930 . S
H59 C56 0.928 . S
H60 C57 0.931 . S
H61 C37 0.930 1_655 S
H62 C34 0.930 . S
H63 C43 0.930 . S
H64 C55 0.925 1_554 S
H65 C58 0.930 . S
C66 C67 1.351 . S
C66 N69 1.368 . S
C66 H71 0.931 . S
C67 C66 1.351 . S
C67 N68 1.373 . S
C67 H95 0.930 . S
N68 C67 1.373 . S
N68 C70 1.340 . S
N69 C66 1.368 . S
N69 C70 1.321 . S
N69 Co72 2.135 . S
C70 N68 1.340 . S
C70 N69 1.321 . S
C70 H94 0.930 . S
H71 C66 0.931 . S
Co72 N69 2.135 . S
Co72 N75 2.121 . S
Co72 O80 2.055 . S
Co72 O83 2.039 . S
Co72 N86 2.140 . S
C73 O74 1.227 . S
C73 O83 1.265 . S
O74 C73 1.227 . S
N75 Co72 2.121 . S
N75 C77 1.375 . S
N75 C78 1.313 . S
C76 C77 1.338 1_455 S
C76 N79 1.377 . S
C76 H96 0.930 . S
C77 N75 1.375 . S
C77 C76 1.338 1_655 S
C77 H81 0.931 . S
C78 N75 1.313 . S
C78 N79 1.344 1_655 S
C78 H82 0.930 1_655 S
N79 C76 1.377 . S
N79 C78 1.344 1_455 S
O80 Co72 2.055 . S
O80 C84 1.253 . S
H81 C77 0.931 . S
H82 C78 0.930 1_455 S
O83 Co72 2.039 . S
O83 C73 1.265 . S
C84 O80 1.253 . S
C84 O85 1.227 . S
O85 C84 1.227 . S
N86 Co72 2.140 . S
N86 C89 1.346 . S
N86 C90 1.345 . S
C87 C88 1.387 . S
C87 C91 1.391 . S
C88 C87 1.387 . S
C88 C89 1.369 . S
C88 H97 0.929 . S
C89 N86 1.346 . S
C89 C88 1.369 . S
C89 H92 0.928 . S
C90 N86 1.345 . S
C90 C91 1.371 . S
C90 H93 0.931 . S
C91 C87 1.391 . S
C91 C90 1.371 . S
C91 H98 0.930 . S
H92 C89 0.928 . S
H93 C90 0.931 . S
H94 C70 0.930 . S
H95 C67 0.930 . S
H96 C76 0.930 . S
H97 C88 0.929 . S
H98 C91 0.930 . S
C99 C100 1.351 1_655 S
C99 N102 1.368 . S
C99 H104 0.931 . S
C100 C99 1.351 1_455 S
C100 N101 1.373 . S
C100 H128 0.930 . S
N101 C100 1.373 . S
N101 C103 1.340 1_455 S
N102 C99 1.368 . S
N102 C103 1.321 . S
N102 Co105 2.135 . S
C103 N101 1.340 1_655 S
C103 N102 1.321 . S
C103 H127 0.930 1_655 S
H104 C99 0.931 . S
Co105 N102 2.135 . S
Co105 N108 2.121 . S
Co105 O113 2.055 . S
Co105 O116 2.039 . S
Co105 N119 2.140 . S
C106 O107 1.227 . S
C106 O116 1.265 . S
O107 C106 1.227 . S
N108 Co105 2.121 . S
N108 C110 1.375 . S
N108 C111 1.313 . S
C109 C110 1.338 . S
C109 N112 1.377 . S
C109 H129 0.930 . S
C110 N108 1.375 . S
C110 C109 1.338 . S
C110 H114 0.931 . S
C111 N108 1.313 . S
C111 N112 1.344 . S
C111 H115 0.930 . S
N112 C109 1.377 . S
N112 C111 1.344 . S
O113 Co105 2.055 . S
O113 C117 1.253 . S
H114 C110 0.931 . S
H115 C111 0.930 . S
O116 Co105 2.039 . S
O116 C106 1.265 . S
C117 O113 1.253 . S
C117 O118 1.227 . S
O118 C117 1.227 . S
N119 Co105 2.140 . S
N119 C122 1.346 . S
N119 C123 1.345 . S
C120 C121 1.382 1_556 S
C120 C124 1.391 . S
C121 C120 1.382 1_554 S
C121 C122 1.378 . S
C121 H130 0.925 1_554 S
C122 N119 1.346 . S
C122 C121 1.378 . S
C122 H125 0.928 . S
C123 N119 1.345 . S
C123 C124 1.371 1_554 S
C123 H126 0.931 . S
C124 C120 1.391 . S
C124 C123 1.371 1_556 S
C124 H131 0.930 . S
H125 C122 0.928 . S
H126 C123 0.931 . S
H127 C103 0.930 1_455 S
H128 C100 0.930 . S
H129 C109 0.930 . S
H130 C121 0.925 1_556 S
H131 C124 0.930 . S
C132 C133 1.351 . S
C132 N135 1.368 . S
C132 H137 0.931 . S
C133 C132 1.351 . S
C133 N134 1.373 . S
C133 H161 0.930 . S
N134 C133 1.373 . S
N134 C136 1.340 . S
N135 C132 1.368 . S
N135 C136 1.321 . S
N135 Co138 2.135 . S
C136 N134 1.340 . S
C136 N135 1.321 . S
C136 H160 0.930 . S
H137 C132 0.931 . S
Co138 N135 2.135 . S
Co138 N141 2.121 . S
Co138 O146 2.055 . S
Co138 O149 2.039 . S
Co138 N152 2.140 . S
C139 O140 1.227 . S
C139 O149 1.265 . S
O140 C139 1.227 . S
N141 Co138 2.121 . S
N141 C143 1.375 . S
N141 C144 1.313 . S
C142 C143 1.338 1_655 S
C142 N145 1.377 . S
C142 H162 0.930 . S
C143 N141 1.375 . S
C143 C142 1.338 1_455 S
C143 H147 0.931 . S
C144 N141 1.313 . S
C144 N145 1.344 1_455 S
C144 H148 0.930 1_455 S
N145 C142 1.377 . S
N145 C144 1.344 1_655 S
O146 Co138 2.055 . S
O146 C150 1.253 . S
H147 C143 0.931 . S
H148 C144 0.930 1_655 S
O149 Co138 2.039 . S
O149 C139 1.265 . S
C150 O146 1.253 . S
C150 O151 1.227 . S
O151 C150 1.227 . S
N152 Co138 2.140 . S
N152 C155 1.346 . S
N152 C156 1.345 . S
C153 C154 1.387 . S
C153 C157 1.391 . S
C154 C153 1.387 . S
C154 C155 1.369 . S
C154 H163 0.929 . S
C155 N152 1.346 . S
C155 C154 1.369 . S
C155 H158 0.928 . S
C156 N152 1.345 . S
C156 C157 1.371 . S
C156 H159 0.931 . S
C157 C153 1.391 . S
C157 C156 1.371 . S
C157 H164 0.930 . S
H158 C155 0.928 . S
H159 C156 0.931 . S
H160 C136 0.930 . S
H161 C133 0.930 . S
H162 C142 0.930 . S
H163 C154 0.929 . S
H164 C157 0.930 . S
C165 C166 1.351 1_455 S
C165 N168 1.368 . S
C165 H170 0.931 . S
C166 C165 1.351 1_655 S
C166 N167 1.373 . S
C166 H194 0.930 . S
N167 C166 1.373 . S
N167 C169 1.340 1_655 S
N168 C165 1.368 . S
N168 C169 1.321 . S
N168 Co171 2.135 . S
C169 N167 1.340 1_455 S
C169 N168 1.321 . S
C169 H193 0.930 1_455 S
H170 C165 0.931 . S
Co171 N168 2.135 . S
Co171 N174 2.121 . S
Co171 O179 2.055 . S
Co171 O182 2.039 . S
Co171 N185 2.140 . S
C172 O173 1.227 . S
C172 O182 1.265 . S
O173 C172 1.227 . S
N174 Co171 2.121 . S
N174 C176 1.375 . S
N174 C177 1.313 . S
C175 C176 1.338 . S
C175 N178 1.377 . S
C175 H195 0.930 . S
C176 N174 1.375 . S
C176 C175 1.338 . S
C176 H180 0.931 . S
C177 N174 1.313 . S
C177 N178 1.344 . S
C177 H181 0.930 . S
N178 C175 1.377 . S
N178 C177 1.344 . S
O179 Co171 2.055 . S
O179 C183 1.253 . S
H180 C176 0.931 . S
H181 C177 0.930 . S
O182 Co171 2.039 . S
O182 C172 1.265 . S
C183 O179 1.253 . S
C183 O184 1.227 . S
O184 C183 1.227 . S
N185 Co171 2.140 . S
N185 C188 1.346 . S
N185 C189 1.345 . S
C186 C187 1.387 . S
C186 C190 1.391 . S
C187 C186 1.387 . S
C187 C188 1.369 . S
C187 H196 0.929 . S
C188 N185 1.346 . S
C188 C187 1.369 . S
C188 H191 0.928 . S
C189 N185 1.345 . S
C189 C190 1.371 . S
C189 H192 0.931 . S
C190 C186 1.391 . S
C190 C189 1.371 . S
C190 H197 0.930 . S
H191 C188 0.928 . S
H192 C189 0.931 . S
H193 C169 0.930 1_655 S
H194 C166 0.930 . S
H195 C175 0.930 . S
H196 C187 0.929 . S
H197 C190 0.930 . S
C198 C199 1.351 . S
C198 N201 1.368 . S
C198 H203 0.931 . S
C199 C198 1.351 . S
C199 N200 1.373 . S
C199 H227 0.930 . S
N200 C199 1.373 . S
N200 C202 1.340 . S
N201 C198 1.368 . S
N201 C202 1.321 . S
N201 Co204 2.135 . S
C202 N200 1.340 . S
C202 N201 1.321 . S
C202 H226 0.930 . S
H203 C198 0.931 . S
Co204 N201 2.135 . S
Co204 N207 2.121 . S
Co204 O212 2.055 . S
Co204 O215 2.039 . S
Co204 N218 2.140 . S
C205 O206 1.227 . S
C205 O215 1.265 . S
O206 C205 1.227 . S
N207 Co204 2.121 . S
N207 C209 1.375 . S
N207 C210 1.313 . S
C208 C209 1.338 1_455 S
C208 N211 1.377 . S
C208 H228 0.930 . S
C209 N207 1.375 . S
C209 C208 1.338 1_655 S
C209 H213 0.931 . S
C210 N207 1.313 . S
C210 N211 1.344 1_655 S
C210 H214 0.930 1_655 S
N211 C208 1.377 . S
N211 C210 1.344 1_455 S
O212 Co204 2.055 . S
O212 C216 1.253 . S
H213 C209 0.931 . S
H214 C210 0.930 1_455 S
O215 Co204 2.039 . S
O215 C205 1.265 . S
C216 O212 1.253 . S
C216 O217 1.227 . S
O217 C216 1.227 . S
N218 Co204 2.140 . S
N218 C221 1.346 . S
N218 C222 1.345 . S
C219 C220 1.387 . S
C219 C223 1.391 . S
C220 C219 1.387 . S
C220 C221 1.369 . S
C220 H229 0.929 . S
C221 N218 1.346 . S
C221 C220 1.369 . S
C221 H224 0.928 . S
C222 N218 1.345 . S
C222 C223 1.371 . S
C222 H225 0.931 . S
C223 C219 1.391 . S
C223 C222 1.371 . S
C223 H230 0.930 . S
H224 C221 0.928 . S
H225 C222 0.931 . S
H226 C202 0.930 . S
H227 C199 0.930 . S
H228 C208 0.930 . S
H229 C220 0.929 . S
H230 C223 0.930 . S
C231 C232 1.351 1_655 S
C231 N234 1.368 . S
C231 H236 0.931 . S
C232 C231 1.351 1_455 S
C232 N233 1.373 . S
C232 H260 0.930 . S
N233 C232 1.373 . S
N233 C235 1.340 1_455 S
N234 C231 1.368 . S
N234 C235 1.321 . S
N234 Co237 2.135 . S
C235 N233 1.340 1_655 S
C235 N234 1.321 . S
C235 H259 0.930 1_655 S
H236 C231 0.931 . S
Co237 N234 2.135 . S
Co237 N240 2.121 . S
Co237 O245 2.055 . S
Co237 O248 2.039 . S
Co237 N251 2.140 . S
C238 O239 1.227 . S
C238 O248 1.265 . S
O239 C238 1.227 . S
N240 Co237 2.121 . S
N240 C242 1.375 . S
N240 C243 1.313 . S
C241 C242 1.338 . S
C241 N244 1.377 . S
C241 H261 0.930 . S
C242 N240 1.375 . S
C242 C241 1.338 . S
C242 H246 0.931 . S
C243 N240 1.313 . S
C243 N244 1.344 . S
C243 H247 0.930 . S
N244 C241 1.377 . S
N244 C243 1.344 . S
O245 Co237 2.055 . S
O245 C249 1.253 . S
H246 C242 0.931 . S
H247 C243 0.930 . S
O248 Co237 2.039 . S
O248 C238 1.265 . S
C249 O245 1.253 . S
C249 O250 1.227 . S
O250 C249 1.227 . S
N251 Co237 2.140 . S
N251 C254 1.346 . S
N251 C255 1.345 . S
C252 C253 1.387 . S
C252 C256 1.391 . S
C253 C252 1.387 . S
C253 C254 1.369 . S
C253 H262 0.929 . S
C254 N251 1.346 . S
C254 C253 1.369 . S
C254 H257 0.928 . S
C255 N251 1.345 . S
C255 C256 1.371 . S
C255 H258 0.931 . S
C256 C252 1.391 . S
C256 C255 1.371 . S
C256 H263 0.930 . S
H257 C254 0.928 . S
H258 C255 0.931 . S
H259 C235 0.930 1_455 S
H260 C232 0.930 . S
H261 C241 0.930 . S
H262 C253 0.929 . S
H263 C256 0.930 . S
C264 C265 1.351 . S
C264 N267 1.368 . S
C264 H269 0.931 . S
C265 C264 1.351 . S
C265 N266 1.373 . S
C265 H293 0.930 . S
N266 C265 1.373 . S
N266 C268 1.340 . S
N267 C264 1.368 . S
N267 C268 1.321 . S
N267 Co270 2.135 . S
C268 N266 1.340 . S
C268 N267 1.321 . S
C268 H292 0.930 . S
H269 C264 0.931 . S
Co270 N267 2.135 . S
Co270 N273 2.121 . S
Co270 O278 2.055 . S
Co270 O281 2.039 . S
Co270 N284 2.140 . S
C271 O272 1.227 . S
C271 O281 1.265 . S
O272 C271 1.227 . S
N273 Co270 2.121 . S
N273 C275 1.375 . S
N273 C276 1.313 . S
C274 C275 1.338 . S
C274 N277 1.377 . S
C274 H294 0.930 . S
C275 N273 1.375 . S
C275 C274 1.338 . S
C275 H279 0.931 . S
C276 N273 1.313 . S
C276 N277 1.344 . S
C276 H280 0.930 . S
N277 C274 1.377 . S
N277 C276 1.344 . S
O278 Co270 2.055 . S
O278 C282 1.253 . S
H279 C275 0.931 . S
H280 C276 0.930 . S
O281 Co270 2.039 . S
O281 C271 1.265 . S
C282 O278 1.253 . S
C282 O283 1.227 . S
O283 C282 1.227 . S
N284 Co270 2.140 . S
N284 C287 1.346 . S
N284 C288 1.345 . S
C285 C286 1.387 . S
C285 C289 1.391 . S
C286 C285 1.387 . S
C286 C287 1.369 . S
C286 H295 0.929 . S
C287 N284 1.346 . S
C287 C286 1.369 . S
C287 H290 0.928 . S
C288 N284 1.345 . S
C288 C289 1.371 . S
C288 H291 0.931 . S
C289 C285 1.391 . S
C289 C288 1.371 . S
C289 H296 0.930 . S
H290 C287 0.928 . S
H291 C288 0.931 . S
H292 C268 0.930 . S
H293 C265 0.930 . S
H294 C274 0.930 . S
H295 C286 0.929 . S
H296 C289 0.930 . S
C297 C298 1.351 . S
C297 N300 1.368 . S
C297 H302 0.931 . S
C298 C297 1.351 . S
C298 N299 1.373 . S
C298 H326 0.930 . S
N299 C298 1.373 . S
N299 C301 1.340 . S
N300 C297 1.368 . S
N300 C301 1.321 . S
N300 Co303 2.135 . S
C301 N299 1.340 . S
C301 N300 1.321 . S
C301 H325 0.930 . S
H302 C297 0.931 . S
Co303 N300 2.135 . S
Co303 N306 2.121 . S
Co303 O311 2.055 . S
Co303 O314 2.039 . S
Co303 N317 2.140 . S
C304 O305 1.227 . S
C304 O314 1.265 . S
O305 C304 1.227 . S
N306 Co303 2.121 . S
N306 C308 1.375 . S
N306 C309 1.313 . S
C307 C308 1.338 . S
C307 N310 1.377 . S
C307 H327 0.930 . S
C308 N306 1.375 . S
C308 C307 1.338 . S
C308 H312 0.931 . S
C309 N306 1.313 . S
C309 N310 1.344 . S
C309 H313 0.930 . S
N310 C307 1.377 . S
N310 C309 1.344 . S
O311 Co303 2.055 . S
O311 C315 1.253 . S
H312 C308 0.931 . S
H313 C309 0.930 . S
O314 Co303 2.039 . S
O314 C304 1.265 . S
C315 O311 1.253 . S
C315 O316 1.227 . S
O316 C315 1.227 . S
N317 Co303 2.140 . S
N317 C320 1.346 . S
N317 C321 1.345 . S
C318 C319 1.387 . S
C318 C322 1.391 . S
C319 C318 1.387 . S
C319 C320 1.369 . S
C319 H328 0.929 . S
C320 N317 1.346 . S
C320 C319 1.369 . S
C320 H323 0.928 . S
C321 N317 1.345 . S
C321 C322 1.371 . S
C321 H324 0.931 . S
C322 C318 1.391 . S
C322 C321 1.371 . S
C322 H329 0.930 . S
H323 C320 0.928 . S
H324 C321 0.931 . S
H325 C301 0.930 . S
H326 C298 0.930 . S
H327 C307 0.930 . S
H328 C319 0.929 . S
H329 C322 0.930 . S
C330 C331 1.351 . S
C330 N333 1.368 . S
C330 H335 0.931 . S
C331 C330 1.351 . S
C331 N332 1.373 . S
C331 H359 0.930 . S
N332 C331 1.373 . S
N332 C334 1.340 . S
N333 C330 1.368 . S
N333 C334 1.321 . S
N333 Co336 2.135 . S
C334 N332 1.340 . S
C334 N333 1.321 . S
C334 H358 0.930 . S
H335 C330 0.931 . S
Co336 N333 2.135 . S
Co336 N339 2.121 . S
Co336 O344 2.055 . S
Co336 O347 2.039 . S
Co336 N350 2.140 . S
C337 O338 1.227 . S
C337 O347 1.265 . S
O338 C337 1.227 . S
N339 Co336 2.121 . S
N339 C341 1.375 . S
N339 C342 1.313 . S
C340 C341 1.338 . S
C340 N343 1.377 . S
C340 H360 0.930 . S
C341 N339 1.375 . S
C341 C340 1.338 . S
C341 H345 0.931 . S
C342 N339 1.313 . S
C342 N343 1.344 . S
C342 H346 0.930 . S
N343 C340 1.377 . S
N343 C342 1.344 . S
O344 Co336 2.055 . S
O344 C348 1.253 . S
H345 C341 0.931 . S
H346 C342 0.930 . S
O347 Co336 2.039 . S
O347 C337 1.265 . S
C348 O344 1.253 . S
C348 O349 1.227 . S
O349 C348 1.227 . S
N350 Co336 2.140 . S
N350 C353 1.346 . S
N350 C354 1.345 . S
C351 C352 1.387 . S
C351 C355 1.391 . S
C352 C351 1.387 . S
C352 C353 1.369 . S
C352 H361 0.929 . S
C353 N350 1.346 . S
C353 C352 1.369 . S
C353 H356 0.928 . S
C354 N350 1.345 . S
C354 C355 1.371 . S
C354 H357 0.931 . S
C355 C351 1.391 . S
C355 C354 1.371 . S
C355 H362 0.930 . S
H356 C353 0.928 . S
H357 C354 0.931 . S
H358 C334 0.930 . S
H359 C331 0.930 . S
H360 C340 0.930 . S
H361 C352 0.929 . S
H362 C355 0.930 . S
C363 C364 1.351 . S
C363 N366 1.368 . S
C363 H368 0.931 . S
C364 C363 1.351 . S
C364 N365 1.373 . S
C364 H392 0.930 . S
N365 C364 1.373 . S
N365 C367 1.340 . S
N366 C363 1.368 . S
N366 C367 1.321 . S
N366 Co369 2.135 . S
C367 N365 1.340 . S
C367 N366 1.321 . S
C367 H391 0.930 . S
H368 C363 0.931 . S
Co369 N366 2.135 . S
Co369 N372 2.121 . S
Co369 O377 2.055 . S
Co369 O380 2.039 . S
Co369 N383 2.140 . S
C370 O371 1.227 . S
C370 O380 1.265 . S
O371 C370 1.227 . S
N372 Co369 2.121 . S
N372 C374 1.375 . S
N372 C375 1.313 . S
C373 C374 1.338 . S
C373 N376 1.377 . S
C373 H393 0.930 . S
C374 N372 1.375 . S
C374 C373 1.338 . S
C374 H378 0.931 . S
C375 N372 1.313 . S
C375 N376 1.344 . S
C375 H379 0.930 . S
N376 C373 1.377 . S
N376 C375 1.344 . S
O377 Co369 2.055 . S
O377 C381 1.253 . S
H378 C374 0.931 . S
H379 C375 0.930 . S
O380 Co369 2.039 . S
O380 C370 1.265 . S
C381 O377 1.253 . S
C381 O382 1.227 . S
O382 C381 1.227 . S
N383 Co369 2.140 . S
N383 C386 1.346 . S
N383 C387 1.345 . S
C384 C385 1.387 . S
C384 C388 1.391 . S
C385 C384 1.387 . S
C385 C386 1.369 . S
C385 H394 0.929 . S
C386 N383 1.346 . S
C386 C385 1.369 . S
C386 H389 0.928 . S
C387 N383 1.345 . S
C387 C388 1.371 . S
C387 H390 0.931 . S
C388 C384 1.391 . S
C388 C387 1.371 . S
C388 H395 0.930 . S
H389 C386 0.928 . S
H390 C387 0.931 . S
H391 C367 0.930 . S
H392 C364 0.930 . S
H393 C373 0.930 . S
H394 C385 0.929 . S
H395 C388 0.930 . S
C396 C397 1.351 . S
C396 N399 1.368 . S
C396 H401 0.931 . S
C397 C396 1.351 . S
C397 N398 1.373 . S
C397 H425 0.930 . S
N398 C397 1.373 . S
N398 C400 1.340 . S
N399 C396 1.368 . S
N399 C400 1.321 . S
N399 Co402 2.135 . S
C400 N398 1.340 . S
C400 N399 1.321 . S
C400 H424 0.930 . S
H401 C396 0.931 . S
Co402 N399 2.135 . S
Co402 N405 2.121 . S
Co402 O410 2.055 . S
Co402 O413 2.039 . S
Co402 N416 2.140 . S
C403 O404 1.227 . S
C403 O413 1.265 . S
O404 C403 1.227 . S
N405 Co402 2.121 . S
N405 C407 1.375 . S
N405 C408 1.313 . S
C406 C407 1.338 . S
C406 N409 1.377 . S
C406 H426 0.930 . S
C407 N405 1.375 . S
C407 C406 1.338 . S
C407 H411 0.931 . S
C408 N405 1.313 . S
C408 N409 1.344 . S
C408 H412 0.930 . S
N409 C406 1.377 . S
N409 C408 1.344 . S
O410 Co402 2.055 . S
O410 C414 1.253 . S
H411 C407 0.931 . S
H412 C408 0.930 . S
O413 Co402 2.039 . S
O413 C403 1.265 . S
C414 O410 1.253 . S
C414 O415 1.227 . S
O415 C414 1.227 . S
N416 Co402 2.140 . S
N416 C419 1.346 . S
N416 C420 1.345 . S
C417 C418 1.387 . S
C417 C421 1.391 . S
C418 C417 1.387 . S
C418 C419 1.369 . S
C418 H427 0.929 . S
C419 N416 1.346 . S
C419 C418 1.369 . S
C419 H422 0.928 . S
C420 N416 1.345 . S
C420 C421 1.371 . S
C420 H423 0.931 . S
C421 C417 1.391 . S
C421 C420 1.371 . S
C421 H428 0.930 . S
H422 C419 0.928 . S
H423 C420 0.931 . S
H424 C400 0.930 . S
H425 C397 0.930 . S
H426 C406 0.930 . S
H427 C418 0.929 . S
H428 C421 0.930 . S
C429 C430 1.351 . S
C429 N432 1.368 . S
C429 H434 0.931 . S
C430 C429 1.351 . S
C430 N431 1.373 . S
C430 H458 0.930 . S
N431 C430 1.373 . S
N431 C433 1.340 . S
N432 C429 1.368 . S
N432 C433 1.321 . S
N432 Co435 2.135 . S
C433 N431 1.340 . S
C433 N432 1.321 . S
C433 H457 0.930 . S
H434 C429 0.931 . S
Co435 N432 2.135 . S
Co435 N438 2.121 . S
Co435 O443 2.055 . S
Co435 O446 2.039 . S
Co435 N449 2.140 . S
C436 O437 1.227 . S
C436 O446 1.265 . S
O437 C436 1.227 . S
N438 Co435 2.121 . S
N438 C440 1.375 . S
N438 C441 1.313 . S
C439 C440 1.338 . S
C439 N442 1.377 . S
C439 H459 0.930 . S
C440 N438 1.375 . S
C440 C439 1.338 . S
C440 H444 0.931 . S
C441 N438 1.313 . S
C441 N442 1.344 . S
C441 H445 0.930 . S
N442 C439 1.377 . S
N442 C441 1.344 . S
O443 Co435 2.055 . S
O443 C447 1.253 . S
H444 C440 0.931 . S
H445 C441 0.930 . S
O446 Co435 2.039 . S
O446 C436 1.265 . S
C447 O443 1.253 . S
C447 O448 1.227 . S
O448 C447 1.227 . S
N449 Co435 2.140 . S
N449 C452 1.346 . S
N449 C453 1.345 . S
C450 C451 1.382 1_554 S
C450 C454 1.391 . S
C451 C450 1.382 1_556 S
C451 C452 1.378 . S
C451 H460 0.925 1_556 S
C452 N449 1.346 . S
C452 C451 1.378 . S
C452 H455 0.928 . S
C453 N449 1.345 . S
C453 C454 1.371 1_556 S
C453 H456 0.931 . S
C454 C450 1.391 . S
C454 C453 1.371 1_554 S
C454 H461 0.930 . S
H455 C452 0.928 . S
H456 C453 0.931 . S
H457 C433 0.930 . S
H458 C430 0.930 . S
H459 C439 0.930 . S
H460 C451 0.925 1_554 S
H461 C454 0.930 . S
C462 C463 1.351 . S
C462 N465 1.368 . S
C462 H467 0.931 . S
C463 C462 1.351 . S
C463 N464 1.373 . S
C463 H491 0.930 . S
N464 C463 1.373 . S
N464 C466 1.340 . S
N465 C462 1.368 . S
N465 C466 1.321 . S
N465 Co468 2.135 . S
C466 N464 1.340 . S
C466 N465 1.321 . S
C466 H490 0.930 . S
H467 C462 0.931 . S
Co468 N465 2.135 . S
Co468 N471 2.121 . S
Co468 O476 2.055 . S
Co468 O479 2.039 . S
Co468 N482 2.140 . S
C469 O470 1.227 . S
C469 O479 1.265 . S
O470 C469 1.227 . S
N471 Co468 2.121 . S
N471 C473 1.375 . S
N471 C474 1.313 . S
C472 C473 1.338 . S
C472 N475 1.377 . S
C472 H492 0.930 . S
C473 N471 1.375 . S
C473 C472 1.338 . S
C473 H477 0.931 . S
C474 N471 1.313 . S
C474 N475 1.344 . S
C474 H478 0.930 . S
N475 C472 1.377 . S
N475 C474 1.344 . S
O476 Co468 2.055 . S
O476 C480 1.253 . S
H477 C473 0.931 . S
H478 C474 0.930 . S
O479 Co468 2.039 . S
O479 C469 1.265 . S
C480 O476 1.253 . S
C480 O481 1.227 . S
O481 C480 1.227 . S
N482 Co468 2.140 . S
N482 C485 1.346 . S
N482 C486 1.345 . S
C483 C484 1.387 . S
C483 C487 1.391 . S
C484 C483 1.387 . S
C484 C485 1.369 . S
C484 H493 0.929 . S
C485 N482 1.346 . S
C485 C484 1.369 . S
C485 H488 0.928 . S
C486 N482 1.345 . S
C486 C487 1.371 . S
C486 H489 0.931 . S
C487 C483 1.391 . S
C487 C486 1.371 . S
C487 H494 0.930 . S
H488 C485 0.928 . S
H489 C486 0.931 . S
H490 C466 0.930 . S
H491 C463 0.930 . S
H492 C472 0.930 . S
H493 C484 0.929 . S
H494 C487 0.930 . S
C495 C496 1.351 . S
C495 N498 1.368 . S
C495 H500 0.931 . S
C496 C495 1.351 . S
C496 N497 1.373 . S
C496 H524 0.930 . S
N497 C496 1.373 . S
N497 C499 1.340 . S
N498 C495 1.368 . S
N498 C499 1.321 . S
N498 Co501 2.135 . S
C499 N497 1.340 . S
C499 N498 1.321 . S
C499 H523 0.930 . S
H500 C495 0.931 . S
Co501 N498 2.135 . S
Co501 N504 2.121 . S
Co501 O509 2.055 . S
Co501 O512 2.039 . S
Co501 N515 2.140 . S
C502 O503 1.227 . S
C502 O512 1.265 . S
O503 C502 1.227 . S
N504 Co501 2.121 . S
N504 C506 1.375 . S
N504 C507 1.313 . S
C505 C506 1.338 . S
C505 N508 1.377 . S
C505 H525 0.930 . S
C506 N504 1.375 . S
C506 C505 1.338 . S
C506 H510 0.931 . S
C507 N504 1.313 . S
C507 N508 1.344 . S
C507 H511 0.930 . S
N508 C505 1.377 . S
N508 C507 1.344 . S
O509 Co501 2.055 . S
O509 C513 1.253 . S
H510 C506 0.931 . S
H511 C507 0.930 . S
O512 Co501 2.039 . S
O512 C502 1.265 . S
C513 O509 1.253 . S
C513 O514 1.227 . S
O514 C513 1.227 . S
N515 Co501 2.140 . S
N515 C518 1.346 . S
N515 C519 1.345 . S
C516 C517 1.382 1_556 S
C516 C520 1.391 . S
C517 C516 1.382 1_554 S
C517 C518 1.378 . S
C517 H526 0.925 1_554 S
C518 N515 1.346 . S
C518 C517 1.378 . S
C518 H521 0.928 . S
C519 N515 1.345 . S
C519 C520 1.371 1_554 S
C519 H522 0.931 . S
C520 C516 1.391 . S
C520 C519 1.371 1_556 S
C520 H527 0.930 . S
H521 C518 0.928 . S
H522 C519 0.931 . S
H523 C499 0.930 . S
H524 C496 0.930 . S
H525 C505 0.930 . S
H526 C517 0.925 1_556 S
H527 C520 0.930 . S
C528 C529 1.363 . S
C528 C534 1.379 . S
C528 N536 1.356 . S
C529 C528 1.363 . S
C529 C535 1.363 . S
C530 C531 1.363 . S
C530 C535 1.379 . S
C530 N537 1.356 . S
C531 C530 1.363 . S
C531 C534 1.363 . S
N532 C534 1.356 . S
N532 H544 0.984 . S
N532 H545 0.985 . S
N533 C535 1.356 . S
N533 H538 0.984 . S
N533 H539 0.985 . S
C534 C528 1.379 . S
C534 C531 1.363 . S
C534 N532 1.356 . S
C535 C529 1.363 . S
C535 C530 1.379 . S
C535 N533 1.356 . S
N536 C528 1.356 . S
N536 H542 0.984 . S
N536 H543 0.984 . S
N537 C530 1.356 . S
N537 H540 0.984 . S
N537 H541 0.985 . S
H538 N533 0.984 . S
H539 N533 0.985 . S
H540 N537 0.984 . S
H541 N537 0.985 . S
H542 N536 0.984 . S
H543 N536 0.984 . S
H544 N532 0.984 . S
H545 N532 0.985 . S
C546 C547 1.363 . S
C546 C552 1.379 . S
C546 N554 1.356 . S
C547 C546 1.363 . S
C547 C553 1.363 . S
C548 C549 1.363 . S
C548 C553 1.379 . S
C548 N555 1.356 . S
C549 C548 1.363 . S
C549 C552 1.363 . S
N550 C552 1.356 . S
N550 H562 0.984 . S
N550 H563 0.985 . S
N551 C553 1.356 . S
N551 H556 0.984 . S
N551 H557 0.985 . S
C552 C546 1.379 . S
C552 C549 1.363 . S
C552 N550 1.356 . S
C553 C547 1.363 . S
C553 C548 1.379 . S
C553 N551 1.356 . S
N554 C546 1.356 . S
N554 H560 0.984 . S
N554 H561 0.984 . S
N555 C548 1.356 . S
N555 H558 0.984 . S
N555 H559 0.985 . S
H556 N551 0.984 . S
H557 N551 0.985 . S
H558 N555 0.984 . S
H559 N555 0.985 . S
H560 N554 0.984 . S
H561 N554 0.984 . S
H562 N550 0.984 . S
H563 N550 0.985 . S
C564 C565 1.363 . S
C564 C570 1.379 . S
C564 N572 1.356 . S
C565 C564 1.363 . S
C565 C571 1.363 . S
C566 C567 1.363 . S
C566 C571 1.379 . S
C566 N573 1.356 . S
C567 C566 1.363 . S
C567 C570 1.363 . S
N568 C570 1.356 . S
N568 H580 0.984 . S
N568 H581 0.985 . S
N569 C571 1.356 . S
N569 H574 0.984 . S
N569 H575 0.985 . S
C570 C564 1.379 . S
C570 C567 1.363 . S
C570 N568 1.356 . S
C571 C565 1.363 . S
C571 C566 1.379 . S
C571 N569 1.356 . S
N572 C564 1.356 . S
N572 H578 0.984 . S
N572 H579 0.984 . S
N573 C566 1.356 . S
N573 H576 0.984 . S
N573 H577 0.985 . S
H574 N569 0.984 . S
H575 N569 0.985 . S
H576 N573 0.984 . S
H577 N573 0.985 . S
H578 N572 0.984 . S
H579 N572 0.984 . S
H580 N568 0.984 . S
H581 N568 0.985 . S
C582 C583 1.363 . S
C582 C588 1.379 . S
C582 N590 1.356 . S
C583 C582 1.363 . S
C583 C589 1.363 . S
C584 C585 1.363 . S
C584 C589 1.379 . S
C584 N591 1.356 . S
C585 C584 1.363 . S
C585 C588 1.363 . S
N586 C588 1.356 . S
N586 H598 0.984 . S
N586 H599 0.985 . S
N587 C589 1.356 . S
N587 H592 0.984 . S
N587 H593 0.985 . S
C588 C582 1.379 . S
C588 C585 1.363 . S
C588 N586 1.356 . S
C589 C583 1.363 . S
C589 C584 1.379 . S
C589 N587 1.356 . S
N590 C582 1.356 . S
N590 H596 0.984 . S
N590 H597 0.984 . S
N591 C584 1.356 . S
N591 H594 0.984 . S
N591 H595 0.985 . S
H592 N587 0.984 . S
H593 N587 0.985 . S
H594 N591 0.984 . S
H595 N591 0.985 . S
H596 N590 0.984 . S
H597 N590 0.984 . S
H598 N586 0.984 . S
H599 N586 0.985 . S
C600 C601 1.363 . S
C600 C606 1.379 . S
C600 N608 1.356 . S
C601 C600 1.363 . S
C601 C607 1.363 . S
C602 C603 1.363 . S
C602 C607 1.379 . S
C602 N609 1.356 . S
C603 C602 1.363 . S
C603 C606 1.363 . S
N604 C606 1.356 . S
N604 H616 0.984 . S
N604 H617 0.985 . S
N605 C607 1.356 . S
N605 H610 0.984 . S
N605 H611 0.985 . S
C606 C600 1.379 . S
C606 C603 1.363 . S
C606 N604 1.356 . S
C607 C601 1.363 . S
C607 C602 1.379 . S
C607 N605 1.356 . S
N608 C600 1.356 . S
N608 H614 0.984 . S
N608 H615 0.984 . S
N609 C602 1.356 . S
N609 H612 0.984 . S
N609 H613 0.985 . S
H610 N605 0.984 . S
H611 N605 0.985 . S
H612 N609 0.984 . S
H613 N609 0.985 . S
H614 N608 0.984 . S
H615 N608 0.984 . S
H616 N604 0.984 . S
H617 N604 0.985 . S
C618 C619 1.363 . S
C618 C624 1.379 . S
C618 N626 1.356 . S
C619 C618 1.363 . S
C619 C625 1.363 . S
C620 C621 1.363 . S
C620 C625 1.379 . S
C620 N627 1.356 . S
C621 C620 1.363 . S
C621 C624 1.363 . S
N622 C624 1.356 . S
N622 H634 0.984 . S
N622 H635 0.985 . S
N623 C625 1.356 . S
N623 H628 0.984 . S
N623 H629 0.985 . S
C624 C618 1.379 . S
C624 C621 1.363 . S
C624 N622 1.356 . S
C625 C619 1.363 . S
C625 C620 1.379 . S
C625 N623 1.356 . S
N626 C618 1.356 . S
N626 H632 0.984 . S
N626 H633 0.984 . S
N627 C620 1.356 . S
N627 H630 0.984 . S
N627 H631 0.985 . S
H628 N623 0.984 . S
H629 N623 0.985 . S
H630 N627 0.984 . S
H631 N627 0.985 . S
H632 N626 0.984 . S
H633 N626 0.984 . S
H634 N622 0.984 . S
H635 N622 0.985 . S
C636 C637 1.363 . S
C636 C642 1.379 . S
C636 N644 1.356 . S
C637 C636 1.363 . S
C637 C643 1.363 . S
C638 C639 1.363 . S
C638 C643 1.379 . S
C638 N645 1.356 . S
C639 C638 1.363 . S
C639 C642 1.363 . S
N640 C642 1.356 . S
N640 H652 0.984 . S
N640 H653 0.985 . S
N641 C643 1.356 . S
N641 H646 0.984 . S
N641 H647 0.985 . S
C642 C636 1.379 . S
C642 C639 1.363 . S
C642 N640 1.356 . S
C643 C637 1.363 . S
C643 C638 1.379 . S
C643 N641 1.356 . S
N644 C636 1.356 . S
N644 H650 0.984 . S
N644 H651 0.984 . S
N645 C638 1.356 . S
N645 H648 0.984 . S
N645 H649 0.985 . S
H646 N641 0.984 . S
H647 N641 0.985 . S
H648 N645 0.984 . S
H649 N645 0.985 . S
H650 N644 0.984 . S
H651 N644 0.984 . S
H652 N640 0.984 . S
H653 N640 0.985 . S
C654 C655 1.363 . S
C654 C660 1.379 . S
C654 N662 1.356 . S
C655 C654 1.363 . S
C655 C661 1.363 . S
C656 C657 1.363 . S
C656 C661 1.379 . S
C656 N663 1.356 . S
C657 C656 1.363 . S
C657 C660 1.363 . S
N658 C660 1.356 . S
N658 H670 0.984 . S
N658 H671 0.985 . S
N659 C661 1.356 . S
N659 H664 0.984 . S
N659 H665 0.985 . S
C660 C654 1.379 . S
C660 C657 1.363 . S
C660 N658 1.356 . S
C661 C655 1.363 . S
C661 C656 1.379 . S
C661 N659 1.356 . S
N662 C654 1.356 . S
N662 H668 0.984 . S
N662 H669 0.984 . S
N663 C656 1.356 . S
N663 H666 0.984 . S
N663 H667 0.985 . S
H664 N659 0.984 . S
H665 N659 0.985 . S
H666 N663 0.984 . S
H667 N663 0.985 . S
H668 N662 0.984 . S
H669 N662 0.984 . S
H670 N658 0.984 . S
H671 N658 0.985 . S
C672 C673 1.363 . S
C672 C678 1.379 . S
C672 N680 1.356 . S
C673 C672 1.363 . S
C673 C679 1.363 . S
C674 C675 1.363 . S
C674 C679 1.379 . S
C674 N681 1.356 . S
C675 C674 1.363 . S
C675 C678 1.363 . S
N676 C678 1.356 . S
N676 H688 0.984 . S
N676 H689 0.985 . S
N677 C679 1.356 . S
N677 H682 0.984 . S
N677 H683 0.985 . S
C678 C672 1.379 . S
C678 C675 1.363 . S
C678 N676 1.356 . S
C679 C673 1.363 . S
C679 C674 1.379 . S
C679 N677 1.356 . S
N680 C672 1.356 . S
N680 H686 0.984 . S
N680 H687 0.984 . S
N681 C674 1.356 . S
N681 H684 0.984 . S
N681 H685 0.985 . S
H682 N677 0.984 . S
H683 N677 0.985 . S
H684 N681 0.984 . S
H685 N681 0.985 . S
H686 N680 0.984 . S
H687 N680 0.984 . S
H688 N676 0.984 . S
H689 N676 0.985 . S
C690 C691 1.363 . S
C690 C696 1.379 . S
C690 N698 1.356 . S
C691 C690 1.363 . S
C691 C697 1.363 . S
C692 C693 1.363 . S
C692 C697 1.379 . S
C692 N699 1.356 . S
C693 C692 1.363 . S
C693 C696 1.363 . S
N694 C696 1.356 . S
N694 H706 0.984 . S
N694 H707 0.985 . S
N695 C697 1.356 . S
N695 H700 0.984 . S
N695 H701 0.985 . S
C696 C690 1.379 . S
C696 C693 1.363 . S
C696 N694 1.356 . S
C697 C691 1.363 . S
C697 C692 1.379 . S
C697 N695 1.356 . S
N698 C690 1.356 . S
N698 H704 0.984 . S
N698 H705 0.984 . S
N699 C692 1.356 . S
N699 H702 0.984 . S
N699 H703 0.985 . S
H700 N695 0.984 . S
H701 N695 0.985 . S
H702 N699 0.984 . S
H703 N699 0.985 . S
H704 N698 0.984 . S
H705 N698 0.984 . S
H706 N694 0.984 . S
H707 N694 0.985 . S
C708 C709 1.363 . S
C708 C714 1.379 . S
C708 N716 1.356 . S
C709 C708 1.363 . S
C709 C715 1.363 . S
C710 C711 1.363 . S
C710 C715 1.379 . S
C710 N717 1.356 . S
C711 C710 1.363 . S
C711 C714 1.363 . S
N712 C714 1.356 . S
N712 H724 0.984 . S
N712 H725 0.985 . S
N713 C715 1.356 . S
N713 H718 0.984 . S
N713 H719 0.985 . S
C714 C708 1.379 . S
C714 C711 1.363 . S
C714 N712 1.356 . S
C715 C709 1.363 . S
C715 C710 1.379 . S
C715 N713 1.356 . S
N716 C708 1.356 . S
N716 H722 0.984 . S
N716 H723 0.984 . S
N717 C710 1.356 . S
N717 H720 0.984 . S
N717 H721 0.985 . S
H718 N713 0.984 . S
H719 N713 0.985 . S
H720 N717 0.984 . S
H721 N717 0.985 . S
H722 N716 0.984 . S
H723 N716 0.984 . S
H724 N712 0.984 . S
H725 N712 0.985 . S
C726 C727 1.363 . S
C726 C732 1.379 . S
C726 N734 1.356 . S
C727 C726 1.363 . S
C727 C733 1.363 . S
C728 C729 1.363 . S
C728 C733 1.379 . S
C728 N735 1.356 . S
C729 C728 1.363 . S
C729 C732 1.363 . S
N730 C732 1.356 . S
N730 H742 0.984 . S
N730 H743 0.985 . S
N731 C733 1.356 . S
N731 H736 0.984 . S
N731 H737 0.985 . S
C732 C726 1.379 . S
C732 C729 1.363 . S
C732 N730 1.356 . S
C733 C727 1.363 . S
C733 C728 1.379 . S
C733 N731 1.356 . S
N734 C726 1.356 . S
N734 H740 0.984 . S
N734 H741 0.984 . S
N735 C728 1.356 . S
N735 H738 0.984 . S
N735 H739 0.985 . S
H736 N731 0.984 . S
H737 N731 0.985 . S
H738 N735 0.984 . S
H739 N735 0.985 . S
H740 N734 0.984 . S
H741 N734 0.984 . S
H742 N730 0.984 . S
H743 N730 0.985 . S
C744 C745 1.363 . S
C744 C750 1.379 . S
C744 N752 1.356 . S
C745 C744 1.363 . S
C745 C751 1.363 . S
C746 C747 1.363 . S
C746 C751 1.379 . S
C746 N753 1.356 . S
C747 C746 1.363 . S
C747 C750 1.363 . S
N748 C750 1.356 . S
N748 H760 0.984 . S
N748 H761 0.985 . S
N749 C751 1.356 . S
N749 H754 0.984 . S
N749 H755 0.985 . S
C750 C744 1.379 . S
C750 C747 1.363 . S
C750 N748 1.356 . S
C751 C745 1.363 . S
C751 C746 1.379 . S
C751 N749 1.356 . S
N752 C744 1.356 . S
N752 H758 0.984 . S
N752 H759 0.984 . S
N753 C746 1.356 . S
N753 H756 0.984 . S
N753 H757 0.985 . S
H754 N749 0.984 . S
H755 N749 0.985 . S
H756 N753 0.984 . S
H757 N753 0.985 . S
H758 N752 0.984 . S
H759 N752 0.984 . S
H760 N748 0.984 . S
H761 N748 0.985 . S
C762 C763 1.363 . S
C762 C768 1.379 . S
C762 N770 1.356 . S
C763 C762 1.363 . S
C763 C769 1.363 . S
C764 C765 1.363 . S
C764 C769 1.379 . S
C764 N771 1.356 . S
C765 C764 1.363 . S
C765 C768 1.363 . S
N766 C768 1.356 . S
N766 H778 0.984 . S
N766 H779 0.985 . S
N767 C769 1.356 . S
N767 H772 0.984 . S
N767 H773 0.985 . S
C768 C762 1.379 . S
C768 C765 1.363 . S
C768 N766 1.356 . S
C769 C763 1.363 . S
C769 C764 1.379 . S
C769 N767 1.356 . S
N770 C762 1.356 . S
N770 H776 0.984 . S
N770 H777 0.984 . S
N771 C764 1.356 . S
N771 H774 0.984 . S
N771 H775 0.985 . S
H772 N767 0.984 . S
H773 N767 0.985 . S
H774 N771 0.984 . S
H775 N771 0.985 . S
H776 N770 0.984 . S
H777 N770 0.984 . S
H778 N766 0.984 . S
H779 N766 0.985 . S
C780 C781 1.363 . S
C780 C786 1.379 . S
C780 N788 1.356 . S
C781 C780 1.363 . S
C781 C787 1.363 . S
C782 C783 1.363 . S
C782 C787 1.379 . S
C782 N789 1.356 . S
C783 C782 1.363 . S
C783 C786 1.363 . S
N784 C786 1.356 . S
N784 H796 0.984 . S
N784 H797 0.985 . S
N785 C787 1.356 . S
N785 H790 0.984 . S
N785 H791 0.985 . S
C786 C780 1.379 . S
C786 C783 1.363 . S
C786 N784 1.356 . S
C787 C781 1.363 . S
C787 C782 1.379 . S
C787 N785 1.356 . S
N788 C780 1.356 . S
N788 H794 0.984 . S
N788 H795 0.984 . S
N789 C782 1.356 . S
N789 H792 0.984 . S
N789 H793 0.985 . S
H790 N785 0.984 . S
H791 N785 0.985 . S
H792 N789 0.984 . S
H793 N789 0.985 . S
H794 N788 0.984 . S
H795 N788 0.984 . S
H796 N784 0.984 . S
H797 N784 0.985 . S
C798 C799 1.363 . S
C798 C804 1.379 . S
C798 N806 1.356 . S
C799 C798 1.363 . S
C799 C805 1.363 . S
C800 C801 1.363 . S
C800 C805 1.379 . S
C800 N807 1.356 . S
C801 C800 1.363 . S
C801 C804 1.363 . S
N802 C804 1.356 . S
N802 H814 0.984 . S
N802 H815 0.985 . S
N803 C805 1.356 . S
N803 H808 0.984 . S
N803 H809 0.985 . S
C804 C798 1.379 . S
C804 C801 1.363 . S
C804 N802 1.356 . S
C805 C799 1.363 . S
C805 C800 1.379 . S
C805 N803 1.356 . S
N806 C798 1.356 . S
N806 H812 0.984 . S
N806 H813 0.984 . S
N807 C800 1.356 . S
N807 H810 0.984 . S
N807 H811 0.985 . S
H808 N803 0.984 . S
H809 N803 0.985 . S
H810 N807 0.984 . S
H811 N807 0.985 . S
H812 N806 0.984 . S
H813 N806 0.984 . S
H814 N802 0.984 . S
H815 N802 0.985 . S
C816 C817 1.363 . S
C816 C822 1.379 . S
C816 N824 1.356 . S
C817 C816 1.363 . S
C817 C823 1.363 . S
C818 C819 1.363 . S
C818 C823 1.379 . S
C818 N825 1.356 . S
C819 C818 1.363 . S
C819 C822 1.363 . S
N820 C822 1.356 . S
N820 H832 0.984 . S
N820 H833 0.985 . S
N821 C823 1.356 . S
N821 H826 0.984 . S
N821 H827 0.985 . S
C822 C816 1.379 . S
C822 C819 1.363 . S
C822 N820 1.356 . S
C823 C817 1.363 . S
C823 C818 1.379 . S
C823 N821 1.356 . S
N824 C816 1.356 . S
N824 H830 0.984 . S
N824 H831 0.984 . S
N825 C818 1.356 . S
N825 H828 0.984 . S
N825 H829 0.985 . S
H826 N821 0.984 . S
H827 N821 0.985 . S
H828 N825 0.984 . S
H829 N825 0.985 . S
H830 N824 0.984 . S
H831 N824 0.984 . S
H832 N820 0.984 . S
H833 N820 0.985 . S
C834 C835 1.363 . S
C834 C840 1.379 . S
C834 N842 1.356 . S
C835 C834 1.363 . S
C835 C841 1.363 . S
C836 C837 1.363 . S
C836 C841 1.379 . S
C836 N843 1.356 . S
C837 C836 1.363 . S
C837 C840 1.363 . S
N838 C840 1.356 . S
N838 H850 0.984 . S
N838 H851 0.985 . S
N839 C841 1.356 . S
N839 H844 0.984 . S
N839 H845 0.985 . S
C840 C834 1.379 . S
C840 C837 1.363 . S
C840 N838 1.356 . S
C841 C835 1.363 . S
C841 C836 1.379 . S
C841 N839 1.356 . S
N842 C834 1.356 . S
N842 H848 0.984 . S
N842 H849 0.984 . S
N843 C836 1.356 . S
N843 H846 0.984 . S
N843 H847 0.985 . S
H844 N839 0.984 . S
H845 N839 0.985 . S
H846 N843 0.984 . S
H847 N843 0.985 . S
H848 N842 0.984 . S
H849 N842 0.984 . S
H850 N838 0.984 . S
H851 N838 0.985 . S
C852 C853 1.363 . S
C852 C858 1.379 . S
C852 N860 1.356 . S
C853 C852 1.363 . S
C853 C859 1.363 . S
C854 C855 1.363 . S
C854 C859 1.379 . S
C854 N861 1.356 . S
C855 C854 1.363 . S
C855 C858 1.363 . S
N856 C858 1.356 . S
N856 H868 0.984 . S
N856 H869 0.985 . S
N857 C859 1.356 . S
N857 H862 0.984 . S
N857 H863 0.985 . S
C858 C852 1.379 . S
C858 C855 1.363 . S
C858 N856 1.356 . S
C859 C853 1.363 . S
C859 C854 1.379 . S
C859 N857 1.356 . S
N860 C852 1.356 . S
N860 H866 0.984 . S
N860 H867 0.984 . S
N861 C854 1.356 . S
N861 H864 0.984 . S
N861 H865 0.985 . S
H862 N857 0.984 . S
H863 N857 0.985 . S
H864 N861 0.984 . S
H865 N861 0.985 . S
H866 N860 0.984 . S
H867 N860 0.984 . S
H868 N856 0.984 . S
H869 N856 0.985 . S
C870 C871 1.363 . S
C870 C876 1.379 . S
C870 N878 1.356 . S
C871 C870 1.363 . S
C871 C877 1.363 . S
C872 C873 1.363 . S
C872 C877 1.379 . S
C872 N879 1.356 . S
C873 C872 1.363 . S
C873 C876 1.363 . S
N874 C876 1.356 . S
N874 H886 0.984 . S
N874 H887 0.985 . S
N875 C877 1.356 . S
N875 H880 0.984 . S
N875 H881 0.985 . S
C876 C870 1.379 . S
C876 C873 1.363 . S
C876 N874 1.356 . S
C877 C871 1.363 . S
C877 C872 1.379 . S
C877 N875 1.356 . S
N878 C870 1.356 . S
N878 H884 0.984 . S
N878 H885 0.984 . S
N879 C872 1.356 . S
N879 H882 0.984 . S
N879 H883 0.985 . S
H880 N875 0.984 . S
H881 N875 0.985 . S
H882 N879 0.984 . S
H883 N879 0.985 . S
H884 N878 0.984 . S
H885 N878 0.984 . S
H886 N874 0.984 . S
H887 N874 0.985 . S
C888 C889 1.363 . S
C888 C894 1.379 . S
C888 N896 1.356 . S
C889 C888 1.363 . S
C889 C895 1.363 . S
C890 C891 1.363 . S
C890 C895 1.379 . S
C890 N897 1.356 . S
C891 C890 1.363 . S
C891 C894 1.363 . S
N892 C894 1.356 . S
N892 H904 0.984 . S
N892 H905 0.985 . S
N893 C895 1.356 . S
N893 H898 0.984 . S
N893 H899 0.985 . S
C894 C888 1.379 . S
C894 C891 1.363 . S
C894 N892 1.356 . S
C895 C889 1.363 . S
C895 C890 1.379 . S
C895 N893 1.356 . S
N896 C888 1.356 . S
N896 H902 0.984 . S
N896 H903 0.984 . S
N897 C890 1.356 . S
N897 H900 0.984 . S
N897 H901 0.985 . S
H898 N893 0.984 . S
H899 N893 0.985 . S
H900 N897 0.984 . S
H901 N897 0.985 . S
H902 N896 0.984 . S
H903 N896 0.984 . S
H904 N892 0.984 . S
H905 N892 0.985 . S
C906 C907 1.363 . S
C906 C912 1.379 . S
C906 N914 1.356 . S
C907 C906 1.363 . S
C907 C913 1.363 . S
C908 C909 1.363 . S
C908 C913 1.379 . S
C908 N915 1.356 . S
C909 C908 1.363 . S
C909 C912 1.363 . S
N910 C912 1.356 . S
N910 H922 0.984 . S
N910 H923 0.985 . S
N911 C913 1.356 . S
N911 H916 0.984 . S
N911 H917 0.985 . S
C912 C906 1.379 . S
C912 C909 1.363 . S
C912 N910 1.356 . S
C913 C907 1.363 . S
C913 C908 1.379 . S
C913 N911 1.356 . S
N914 C906 1.356 . S
N914 H920 0.984 . S
N914 H921 0.984 . S
N915 C908 1.356 . S
N915 H918 0.984 . S
N915 H919 0.985 . S
H916 N911 0.984 . S
H917 N911 0.985 . S
H918 N915 0.984 . S
H919 N915 0.985 . S
H920 N914 0.984 . S
H921 N914 0.984 . S
H922 N910 0.984 . S
H923 N910 0.985 . S
C924 C925 1.363 . S
C924 C930 1.379 . S
C924 N932 1.356 . S
C925 C924 1.363 . S
C925 C931 1.363 . S
C926 C927 1.363 . S
C926 C931 1.379 . S
C926 N933 1.356 . S
C927 C926 1.363 . S
C927 C930 1.363 . S
N928 C930 1.356 . S
N928 H940 0.984 . S
N928 H941 0.985 . S
N929 C931 1.356 . S
N929 H934 0.984 . S
N929 H935 0.985 . S
C930 C924 1.379 . S
C930 C927 1.363 . S
C930 N928 1.356 . S
C931 C925 1.363 . S
C931 C926 1.379 . S
C931 N929 1.356 . S
N932 C924 1.356 . S
N932 H938 0.984 . S
N932 H939 0.984 . S
N933 C926 1.356 . S
N933 H936 0.984 . S
N933 H937 0.985 . S
H934 N929 0.984 . S
H935 N929 0.985 . S
H936 N933 0.984 . S
H937 N933 0.985 . S
H938 N932 0.984 . S
H939 N932 0.984 . S
H940 N928 0.984 . S
H941 N928 0.985 . S
C942 C943 1.363 . S
C942 C948 1.379 . S
C942 N950 1.356 . S
C943 C942 1.363 . S
C943 C949 1.363 . S
C944 C945 1.363 . S
C944 C949 1.379 . S
C944 N951 1.356 . S
C945 C944 1.363 . S
C945 C948 1.363 . S
N946 C948 1.356 . S
N946 H958 0.984 . S
N946 H959 0.985 . S
N947 C949 1.356 . S
N947 H952 0.984 . S
N947 H953 0.985 . S
C948 C942 1.379 . S
C948 C945 1.363 . S
C948 N946 1.356 . S
C949 C943 1.363 . S
C949 C944 1.379 . S
C949 N947 1.356 . S
N950 C942 1.356 . S
N950 H956 0.984 . S
N950 H957 0.984 . S
N951 C944 1.356 . S
N951 H954 0.984 . S
N951 H955 0.985 . S
H952 N947 0.984 . S
H953 N947 0.985 . S
H954 N951 0.984 . S
H955 N951 0.985 . S
H956 N950 0.984 . S
H957 N950 0.984 . S
H958 N946 0.984 . S
H959 N946 0.985 . S
C960 C961 1.363 . S
C960 C966 1.379 . S
C960 N968 1.356 . S
C961 C960 1.363 . S
C961 C967 1.363 . S
C962 C963 1.363 . S
C962 C967 1.379 . S
C962 N969 1.356 . S
C963 C962 1.363 . S
C963 C966 1.363 . S
N964 C966 1.356 . S
N964 H976 0.984 . S
N964 H977 0.985 . S
N965 C967 1.356 . S
N965 H970 0.984 . S
N965 H971 0.985 . S
C966 C960 1.379 . S
C966 C963 1.363 . S
C966 N964 1.356 . S
C967 C961 1.363 . S
C967 C962 1.379 . S
C967 N965 1.356 . S
N968 C960 1.356 . S
N968 H974 0.984 . S
N968 H975 0.984 . S
N969 C962 1.356 . S
N969 H972 0.984 . S
N969 H973 0.985 . S
H970 N965 0.984 . S
H971 N965 0.985 . S
H972 N969 0.984 . S
H973 N969 0.985 . S
H974 N968 0.984 . S
H975 N968 0.984 . S
H976 N964 0.984 . S
H977 N964 0.985 . S
C978 C979 1.363 1_445 S
C978 C984 1.379 . S
C978 N986 1.356 1_455 S
C979 C978 1.363 1_665 S
C979 C985 1.363 . S
C980 C981 1.363 1_665 S
C980 C985 1.379 . S
C980 N987 1.356 1_655 S
C981 C980 1.363 1_445 S
C981 C984 1.363 . S
N982 C984 1.356 . S
N982 H994 0.984 . S
N982 H995 0.985 . S
N983 C985 1.356 . S
N983 H988 0.984 . S
N983 H989 0.985 . S
C984 C978 1.379 . S
C984 C981 1.363 . S
C984 N982 1.356 . S
C985 C979 1.363 . S
C985 C980 1.379 . S
C985 N983 1.356 . S
N986 C978 1.356 1_655 S
N986 H992 0.984 1_655 S
N986 H993 0.984 1_545 S
N987 C980 1.356 1_455 S
N987 H990 0.984 1_565 S
N987 H991 0.985 1_455 S
H988 N983 0.984 . S
H989 N983 0.985 . S
H990 N987 0.984 1_545 S
H991 N987 0.985 1_655 S
H992 N986 0.984 1_455 S
H993 N986 0.984 1_565 S
H994 N982 0.984 . S
H995 N982 0.985 . S
C996 C997 1.363 . S
C996 C1002 1.379 . S
C996 N1004 1.356 . S
C997 C996 1.363 . S
C997 C1003 1.363 1_565 S
C998 C999 1.363 . S
C998 C1003 1.379 . S
C998 N1005 1.356 . S
C999 C998 1.363 . S
C999 C1002 1.363 1_545 S
N1000 C1002 1.356 . S
N1000 H1012 0.984 . S
N1000 H1013 0.985 . S
N1001 C1003 1.356 . S
N1001 H1006 0.984 . S
N1001 H1007 0.985 . S
C1002 C996 1.379 . S
C1002 C999 1.363 1_565 S
C1002 N1000 1.356 . S
C1003 C997 1.363 1_545 S
C1003 C998 1.379 . S
C1003 N1001 1.356 . S
N1004 C996 1.356 . S
N1004 H1010 0.984 . S
N1004 H1011 0.984 . S
N1005 C998 1.356 . S
N1005 H1008 0.984 . S
N1005 H1009 0.985 . S
H1006 N1001 0.984 . S
H1007 N1001 0.985 . S
H1008 N1005 0.984 . S
H1009 N1005 0.985 . S
H1010 N1004 0.984 . S
H1011 N1004 0.984 . S
H1012 N1000 0.984 . S
H1013 N1000 0.985 . S
C1014 C1015 1.363 . S
C1014 C1020 1.379 1_655 S
C1014 N1022 1.356 . S
C1015 C1014 1.363 . S
C1015 C1021 1.363 . S
C1016 C1017 1.363 . S
C1016 C1021 1.379 1_455 S
C1016 N1023 1.356 . S
C1017 C1016 1.363 . S
C1017 C1020 1.363 . S
N1018 C1020 1.356 . S
N1018 H1030 0.984 1_455 S
N1018 H1031 0.985 . S
N1019 C1021 1.356 . S
N1019 H1024 0.984 . S
N1019 H1025 0.985 1_655 S
C1020 C1014 1.379 1_455 S
C1020 C1017 1.363 . S
C1020 N1018 1.356 . S
C1021 C1015 1.363 . S
C1021 C1016 1.379 1_655 S
C1021 N1019 1.356 . S
N1022 C1014 1.356 . S
N1022 H1028 0.984 . S
N1022 H1029 0.984 . S
N1023 C1016 1.356 . S
N1023 H1026 0.984 . S
N1023 H1027 0.985 . S
H1024 N1019 0.984 . S
H1025 N1019 0.985 1_455 S
H1026 N1023 0.984 . S
H1027 N1023 0.985 . S
H1028 N1022 0.984 . S
H1029 N1022 0.984 . S
H1030 N1018 0.984 1_655 S
H1031 N1018 0.985 . S
C1032 C1033 1.363 . S
C1032 C1038 1.379 . S
C1032 N1040 1.356 . S
C1033 C1032 1.363 . S
C1033 C1039 1.363 . S
C1034 C1035 1.363 . S
C1034 C1039 1.379 . S
C1034 N1041 1.356 . S
C1035 C1034 1.363 . S
C1035 C1038 1.363 . S
N1036 C1038 1.356 . S
N1036 H1048 0.984 . S
N1036 H1049 0.985 . S
N1037 C1039 1.356 . S
N1037 H1042 0.984 . S
N1037 H1043 0.985 . S
C1038 C1032 1.379 . S
C1038 C1035 1.363 . S
C1038 N1036 1.356 . S
C1039 C1033 1.363 . S
C1039 C1034 1.379 . S
C1039 N1037 1.356 . S
N1040 C1032 1.356 . S
N1040 H1046 0.984 . S
N1040 H1047 0.984 . S
N1041 C1034 1.356 . S
N1041 H1044 0.984 . S
N1041 H1045 0.985 . S
H1042 N1037 0.984 . S
H1043 N1037 0.985 . S
H1044 N1041 0.984 . S
H1045 N1041 0.985 . S
H1046 N1040 0.984 . S
H1047 N1040 0.984 . S
H1048 N1036 0.984 . S
H1049 N1036 0.985 . S
C1050 C1051 1.363 1_565 S
C1050 C1056 1.379 . S
C1050 N1058 1.356 . S
C1051 C1050 1.363 1_545 S
C1051 C1057 1.363 . S
C1052 C1053 1.363 1_545 S
C1052 C1057 1.379 . S
C1052 N1059 1.356 . S
C1053 C1052 1.363 1_565 S
C1053 C1056 1.363 . S
N1054 C1056 1.356 . S
N1054 H1066 0.984 . S
N1054 H1067 0.985 . S
N1055 C1057 1.356 . S
N1055 H1060 0.984 . S
N1055 H1061 0.985 . S
C1056 C1050 1.379 . S
C1056 C1053 1.363 . S
C1056 N1054 1.356 . S
C1057 C1051 1.363 . S
C1057 C1052 1.379 . S
C1057 N1055 1.356 . S
N1058 C1050 1.356 . S
N1058 H1064 0.984 . S
N1058 H1065 0.986 . S
N1059 C1052 1.356 . S
N1059 H1062 0.986 . S
N1059 H1063 0.985 . S
H1060 N1055 0.984 . S
H1061 N1055 0.985 . S
H1062 N1059 0.986 . S
H1063 N1059 0.985 . S
H1064 N1058 0.984 . S
H1065 N1058 0.986 . S
H1066 N1054 0.984 . S
H1067 N1054 0.985 . S
C1068 C1069 1.363 . S
C1068 C1074 1.379 . S
C1068 N1076 1.356 . S
C1069 C1068 1.363 . S
C1069 C1075 1.363 1_655 S
C1070 C1071 1.363 . S
C1070 C1075 1.379 . S
C1070 N1077 1.356 . S
C1071 C1070 1.363 . S
C1071 C1074 1.363 1_455 S
N1072 C1074 1.356 1_455 S
N1072 H1084 0.984 1_455 S
N1072 H1085 0.985 . S
N1073 C1075 1.356 1_655 S
N1073 H1078 0.984 . S
N1073 H1079 0.985 1_655 S
C1074 C1068 1.379 . S
C1074 C1071 1.363 1_655 S
C1074 N1072 1.356 1_655 S
C1075 C1069 1.363 1_455 S
C1075 C1070 1.379 . S
C1075 N1073 1.356 1_455 S
N1076 C1068 1.356 . S
N1076 H1082 0.984 . S
N1076 H1083 0.984 . S
N1077 C1070 1.356 . S
N1077 H1080 0.984 . S
N1077 H1081 0.985 . S
H1078 N1073 0.984 . S
H1079 N1073 0.985 1_455 S
H1080 N1077 0.984 . S
H1081 N1077 0.985 . S
H1082 N1076 0.984 . S
H1083 N1076 0.984 . S
H1084 N1072 0.984 1_655 S
H1085 N1072 0.985 . S
C1086 C1087 1.363 1_556 S
C1086 C1092 1.379 . S
C1086 N1094 1.356 . S
C1087 C1086 1.363 1_554 S
C1087 C1093 1.363 . S
C1088 C1089 1.363 1_554 S
C1088 C1093 1.379 . S
C1088 N1095 1.356 . S
C1089 C1088 1.363 1_556 S
C1089 C1092 1.363 . S
N1090 C1092 1.356 . S
N1090 H1102 0.984 . S
N1090 H1103 0.985 . S
N1091 C1093 1.356 . S
N1091 H1096 0.984 . S
N1091 H1097 0.985 . S
C1092 C1086 1.379 . S
C1092 C1089 1.363 . S
C1092 N1090 1.356 . S
C1093 C1087 1.363 . S
C1093 C1088 1.379 . S
C1093 N1091 1.356 . S
N1094 C1086 1.356 . S
N1094 H1100 0.984 . S
N1094 H1101 0.984 1_556 S
N1095 C1088 1.356 . S
N1095 H1098 0.984 1_554 S
N1095 H1099 0.985 . S
H1096 N1091 0.984 . S
H1097 N1091 0.985 . S
H1098 N1095 0.984 1_556 S
H1099 N1095 0.985 . S
H1100 N1094 0.984 . S
H1101 N1094 0.984 1_554 S
H1102 N1090 0.984 . S
H1103 N1090 0.985 . S
C1104 C1105 1.363 1_554 S
C1104 C1110 1.379 1_455 S
C1104 N1112 1.356 . S
C1105 C1104 1.363 1_556 S
C1105 C1111 1.363 . S
C1106 C1107 1.363 1_556 S
C1106 C1111 1.379 1_655 S
C1106 N1113 1.356 . S
C1107 C1106 1.363 1_554 S
C1107 C1110 1.363 . S
N1108 C1110 1.356 . S
N1108 H1120 0.982 1_655 S
N1108 H1121 0.985 . S
N1109 C1111 1.356 . S
N1109 H1114 0.984 . S
N1109 H1115 0.982 1_455 S
C1110 C1104 1.379 1_655 S
C1110 C1107 1.363 . S
C1110 N1108 1.356 . S
C1111 C1105 1.363 . S
C1111 C1106 1.379 1_455 S
C1111 N1109 1.356 . S
N1112 C1104 1.356 . S
N1112 H1118 0.984 . S
N1112 H1119 0.984 1_554 S
N1113 C1106 1.356 . S
N1113 H1116 0.984 1_556 S
N1113 H1117 0.985 . S
H1114 N1109 0.984 . S
H1115 N1109 0.982 1_655 S
H1116 N1113 0.984 1_554 S
H1117 N1113 0.985 . S
H1118 N1112 0.984 . S
H1119 N1112 0.984 1_556 S
H1120 N1108 0.982 1_455 S
H1121 N1108 0.985 . S
C1122 C1123 1.363 . S
C1122 C1128 1.379 . S
C1122 N1130 1.356 . S
C1123 C1122 1.363 . S
C1123 C1129 1.363 . S
C1124 C1125 1.363 . S
C1124 C1129 1.379 . S
C1124 N1131 1.356 . S
C1125 C1124 1.363 . S
C1125 C1128 1.363 . S
N1126 C1128 1.356 . S
N1126 H1138 0.984 . S
N1126 H1139 0.985 . S
N1127 C1129 1.356 . S
N1127 H1132 0.984 . S
N1127 H1133 0.985 . S
C1128 C1122 1.379 . S
C1128 C1125 1.363 . S
C1128 N1126 1.356 . S
C1129 C1123 1.363 . S
C1129 C1124 1.379 . S
C1129 N1127 1.356 . S
N1130 C1122 1.356 . S
N1130 H1136 0.984 . S
N1130 H1137 0.984 . S
N1131 C1124 1.356 . S
N1131 H1134 0.984 . S
N1131 H1135 0.985 . S
H1132 N1127 0.984 . S
H1133 N1127 0.985 . S
H1134 N1131 0.984 . S
H1135 N1131 0.985 . S
H1136 N1130 0.984 . S
H1137 N1130 0.984 . S
H1138 N1126 0.984 . S
H1139 N1126 0.985 . S
C1140 C1141 1.363 . S
C1140 C1146 1.379 . S
C1140 N1148 1.356 . S
C1141 C1140 1.363 . S
C1141 C1147 1.363 1_554 S
C1142 C1143 1.363 . S
C1142 C1147 1.379 . S
C1142 N1149 1.356 . S
C1143 C1142 1.363 . S
C1143 C1146 1.363 1_556 S
N1144 C1146 1.355 1_556 S
N1144 H1156 0.971 1_556 S
N1144 H1157 0.999 . S
N1145 C1147 1.355 1_554 S
N1145 H1150 0.999 . S
N1145 H1151 0.971 1_554 S
C1146 C1140 1.379 . S
C1146 C1143 1.363 1_554 S
C1146 N1144 1.355 1_554 S
C1147 C1141 1.363 1_556 S
C1147 C1142 1.379 . S
C1147 N1145 1.355 1_556 S
N1148 C1140 1.356 . S
N1148 H1154 0.984 . S
N1148 H1155 0.984 . S
N1149 C1142 1.356 . S
N1149 H1152 0.984 . S
N1149 H1153 0.985 . S
H1150 N1145 0.999 . S
H1151 N1145 0.971 1_556 S
H1152 N1149 0.984 . S
H1153 N1149 0.985 . S
H1154 N1148 0.984 . S
H1155 N1148 0.984 . S
H1156 N1144 0.971 1_554 S
H1157 N1144 0.999 . S
C1158 C1159 1.363 . S
C1158 C1164 1.379 . S
C1158 N1166 1.356 . S
C1159 C1158 1.363 . S
C1159 C1165 1.363 . S
C1160 C1161 1.363 . S
C1160 C1165 1.379 . S
C1160 N1167 1.356 . S
C1161 C1160 1.363 . S
C1161 C1164 1.363 . S
N1162 C1164 1.356 . S
N1162 H1174 0.984 . S
N1162 H1175 0.985 . S
N1163 C1165 1.356 . S
N1163 H1168 0.984 . S
N1163 H1169 0.985 . S
C1164 C1158 1.379 . S
C1164 C1161 1.363 . S
C1164 N1162 1.356 . S
C1165 C1159 1.363 . S
C1165 C1160 1.379 . S
C1165 N1163 1.356 . S
N1166 C1158 1.356 . S
N1166 H1172 0.984 . S
N1166 H1173 0.984 . S
N1167 C1160 1.356 . S
N1167 H1170 0.984 . S
N1167 H1171 0.985 . S
H1168 N1163 0.984 . S
H1169 N1163 0.985 . S
H1170 N1167 0.984 . S
H1171 N1167 0.985 . S
H1172 N1166 0.984 . S
H1173 N1166 0.984 . S
H1174 N1162 0.984 . S
H1175 N1162 0.985 . S
C1176 C1177 1.363 . S
C1176 C1182 1.379 1_554 S
C1176 N1184 1.356 . S
C1177 C1176 1.363 . S
C1177 C1183 1.363 1_565 S
C1178 C1179 1.363 . S
C1178 C1183 1.379 1_556 S
C1178 N1185 1.356 . S
C1179 C1178 1.363 . S
C1179 C1182 1.363 1_545 S
N1180 C1182 1.356 . S
N1180 H1192 0.981 1_556 S
N1180 H1193 0.985 . S
N1181 C1183 1.356 . S
N1181 H1186 0.984 . S
N1181 H1187 0.981 1_554 S
C1182 C1176 1.379 1_556 S
C1182 C1179 1.363 1_565 S
C1182 N1180 1.356 . S
C1183 C1177 1.363 1_545 S
C1183 C1178 1.379 1_554 S
C1183 N1181 1.356 . S
N1184 C1176 1.356 . S
N1184 H1190 0.984 . S
N1184 H1191 0.984 . S
N1185 C1178 1.356 . S
N1185 H1188 0.984 . S
N1185 H1189 0.985 . S
H1186 N1181 0.984 . S
H1187 N1181 0.981 1_556 S
H1188 N1185 0.984 . S
H1189 N1185 0.985 . S
H1190 N1184 0.984 . S
H1191 N1184 0.984 . S
H1192 N1180 0.981 1_554 S
H1193 N1180 0.985 . S
C1194 C1195 1.363 . S
C1194 C1200 1.379 . S
C1194 N1202 1.356 . S
C1195 C1194 1.363 . S
C1195 C1201 1.363 . S
C1196 C1197 1.363 . S
C1196 C1201 1.379 . S
C1196 N1203 1.356 . S
C1197 C1196 1.363 . S
C1197 C1200 1.363 . S
N1198 C1200 1.356 . S
N1198 H1210 0.984 . S
N1198 H1211 0.985 . S
N1199 C1201 1.356 . S
N1199 H1204 0.984 . S
N1199 H1205 0.985 . S
C1200 C1194 1.379 . S
C1200 C1197 1.363 . S
C1200 N1198 1.356 . S
C1201 C1195 1.363 . S
C1201 C1196 1.379 . S
C1201 N1199 1.356 . S
N1202 C1194 1.356 . S
N1202 H1208 0.984 . S
N1202 H1209 0.984 . S
N1203 C1196 1.356 . S
N1203 H1206 0.984 . S
N1203 H1207 0.985 . S
H1204 N1199 0.984 . S
H1205 N1199 0.985 . S
H1206 N1203 0.984 . S
H1207 N1203 0.985 . S
H1208 N1202 0.984 . S
H1209 N1202 0.984 . S
H1210 N1198 0.984 . S
H1211 N1198 0.985 . S
C1212 C1213 1.363 . S
C1212 C1218 1.379 . S
C1212 N1220 1.356 . S
C1213 C1212 1.363 . S
C1213 C1219 1.363 . S
C1214 C1215 1.363 . S
C1214 C1219 1.379 . S
C1214 N1221 1.356 . S
C1215 C1214 1.363 . S
C1215 C1218 1.363 . S
N1216 C1218 1.356 . S
N1216 H1228 0.984 . S
N1216 H1229 0.985 . S
N1217 C1219 1.356 . S
N1217 H1222 0.984 . S
N1217 H1223 0.985 . S
C1218 C1212 1.379 . S
C1218 C1215 1.363 . S
C1218 N1216 1.356 . S
C1219 C1213 1.363 . S
C1219 C1214 1.379 . S
C1219 N1217 1.356 . S
N1220 C1212 1.356 . S
N1220 H1226 0.984 . S
N1220 H1227 0.984 . S
N1221 C1214 1.356 . S
N1221 H1224 0.984 . S
N1221 H1225 0.985 . S
H1222 N1217 0.984 . S
H1223 N1217 0.985 . S
H1224 N1221 0.984 . S
H1225 N1221 0.985 . S
H1226 N1220 0.984 . S
H1227 N1220 0.984 . S
H1228 N1216 0.984 . S
H1229 N1216 0.985 . S
C1230 C1231 1.363 . S
C1230 C1236 1.379 . S
C1230 N1238 1.356 . S
C1231 C1230 1.363 . S
C1231 C1237 1.363 . S
C1232 C1233 1.363 . S
C1232 C1237 1.379 . S
C1232 N1239 1.356 . S
C1233 C1232 1.363 . S
C1233 C1236 1.363 . S
N1234 C1236 1.356 . S
N1234 H1246 0.984 . S
N1234 H1247 0.985 . S
N1235 C1237 1.356 . S
N1235 H1240 0.984 . S
N1235 H1241 0.985 . S
C1236 C1230 1.379 . S
C1236 C1233 1.363 . S
C1236 N1234 1.356 . S
C1237 C1231 1.363 . S
C1237 C1232 1.379 . S
C1237 N1235 1.356 . S
N1238 C1230 1.356 . S
N1238 H1244 0.984 . S
N1238 H1245 0.984 . S
N1239 C1232 1.356 . S
N1239 H1242 0.984 . S
N1239 H1243 0.985 . S
H1240 N1235 0.984 . S
H1241 N1235 0.985 . S
H1242 N1239 0.984 . S
H1243 N1239 0.985 . S
H1244 N1238 0.984 . S
H1245 N1238 0.984 . S
H1246 N1234 0.984 . S
H1247 N1234 0.985 . S
C529 N2 1.083 . S
C531 N299 1.083 . S
C547 N13 1.001 . S
C549 N310 1.001 . S
C565 N277 1.001 . S
C567 N46 1.001 . S
C583 N35 1.083 . S
C585 N266 1.083 . S
C601 N68 1.083 . S
C603 N365 1.083 . S
C619 N79 1.001 . S
C621 N376 1.001 . S
C637 N112 1.001 . S
C639 N343 1.001 . S
C655 N101 1.083 . S
C657 N332 1.083 . S
C673 N134 1.083 . S
C675 N431 1.083 . S
C691 N442 1.001 . S
C693 N145 1.001 . S
C709 N409 1.001 . S
C711 N178 1.001 . S
C727 N398 1.083 . S
C729 N167 1.083 . S
C745 N497 1.083 . S
C747 N200 1.083 . S
C763 N508 1.001 . S
C765 N211 1.001 . S
C781 N475 1.001 . S
C783 N244 1.001 . S
C799 N233 1.083 . S
C801 N464 1.083 . S
C817 C21 1.180 . S
C819 C54 1.180 . S
C835 C120 1.180 . S
C837 C87 1.180 . S
C853 C186 1.180 . S
C855 C153 1.180 . S
C871 C252 1.180 . S
C873 C219 1.180 . S
C889 C318 1.180 . S
C891 C285 1.180 . S
C907 C351 1.180 . S
C909 C384 1.180 . S
C925 C450 1.180 . S
C927 C417 1.180 . S
C943 C483 1.180 . S
C945 C516 1.180 . S
C961 C469 1.846 . S
C963 C7 1.846 . S
C979 C84 1.884 . S
C981 C18 1.884 . S
C997 C381 1.884 . S
C999 C51 1.884 . S
C1015 C238 1.846 . S
C1017 C40 1.846 . S
C1033 C73 1.846 . S
C1035 C403 1.846 . S
C1051 C315 1.884 . S
C1053 C117 1.884 . S
C1069 C106 1.846 . S
C1071 C172 1.846 . S
C1087 C337 1.846 . S
C1089 C139 1.846 . S
C1105 C150 1.884 . S
C1107 C216 1.884 . S
C1123 C183 1.884 . S
C1125 C513 1.884 . S
C1141 C205 1.846 . S
C1143 C271 1.846 . S
C1159 C249 1.884 . S
C1161 C447 1.884 . S
C1177 C348 1.884 . S
C1179 C282 1.884 . S
C1195 C502 1.846 . S
C1197 C304 1.846 . S
C1213 C370 1.846 . S
C1215 C436 1.846 . S
C1231 C414 1.884 . S
C1233 C480 1.884 . S
