# Generated by pormake.
# Topology zfc, (5)-cn, num edge types: 1
# Building blocks:
#     Node 0, Type 0, BuildingBlock: XOMCOT_clean_sbu_1, # of connection points: 5
#     Node 1, Type 0, BuildingBlock: XOMCOT_clean_sbu_1, # of connection points: 5
#     Node 2, Type 0, BuildingBlock: XOMCOT_clean_sbu_1, # of connection points: 5
#     Node 3, Type 0, BuildingBlock: XOMCOT_clean_sbu_1, # of connection points: 5
#     Node 4, Type 0, BuildingBlock: XOMCOT_clean_sbu_1, # of connection points: 5
#     Node 5, Type 0, BuildingBlock: XOMCOT_clean_sbu_1, # of connection points: 5
#     Node 6, Type 0, BuildingBlock: XOMCOT_clean_sbu_1, # of connection points: 5
#     Node 7, Type 0, BuildingBlock: XOMCOT_clean_sbu_1, # of connection points: 5
#     Node 8, Type 0, BuildingBlock: XOMCOT_clean_sbu_1, # of connection points: 5
#     Node 9, Type 0, BuildingBlock: XOMCOT_clean_sbu_1, # of connection points: 5
#     Node 10, Type 0, BuildingBlock: XOMCOT_clean_sbu_1, # of connection points: 5
#     Node 11, Type 0, BuildingBlock: XOMCOT_clean_sbu_1, # of connection points: 5
#     Node 12, Type 0, BuildingBlock: XOMCOT_clean_sbu_1, # of connection points: 5
#     Node 13, Type 0, BuildingBlock: XOMCOT_clean_sbu_1, # of connection points: 5
#     Node 14, Type 0, BuildingBlock: XOMCOT_clean_sbu_1, # of connection points: 5
#     Node 15, Type 0, BuildingBlock: XOMCOT_clean_sbu_1, # of connection points: 5
#     Edge 16, Type (0, 0), None
#     Edge 17, Type (0, 0), None
#     Edge 18, Type (0, 0), None
#     Edge 19, Type (0, 0), None
#     Edge 20, Type (0, 0), None
#     Edge 21, Type (0, 0), None
#     Edge 22, Type (0, 0), None
#     Edge 23, Type (0, 0), None
#     Edge 24, Type (0, 0), None
#     Edge 25, Type (0, 0), None
#     Edge 26, Type (0, 0), None
#     Edge 27, Type (0, 0), None
#     Edge 28, Type (0, 0), None
#     Edge 29, Type (0, 0), None
#     Edge 30, Type (0, 0), None
#     Edge 31, Type (0, 0), None
#     Edge 32, Type (0, 0), None
#     Edge 33, Type (0, 0), None
#     Edge 34, Type (0, 0), None
#     Edge 35, Type (0, 0), None
#     Edge 36, Type (0, 0), None
#     Edge 37, Type (0, 0), None
#     Edge 38, Type (0, 0), None
#     Edge 39, Type (0, 0), None
#     Edge 40, Type (0, 0), None
#     Edge 41, Type (0, 0), None
#     Edge 42, Type (0, 0), None
#     Edge 43, Type (0, 0), None
#     Edge 44, Type (0, 0), None
#     Edge 45, Type (0, 0), None
#     Edge 46, Type (0, 0), None
#     Edge 47, Type (0, 0), None
#     Edge 48, Type (0, 0), None
#     Edge 49, Type (0, 0), None
#     Edge 50, Type (0, 0), None
#     Edge 51, Type (0, 0), None
#     Edge 52, Type (0, 0), None
#     Edge 53, Type (0, 0), None
#     Edge 54, Type (0, 0), None
#     Edge 55, Type (0, 0), None
# Relax obj value: 0.165
# Max RMSD: 0.165
# Mean RMSD: 0.165
data_MOF--net-zfc--node1-XOMCOT_clean_sbu_1--edge1-none
_symmetry_space_group_name_H-M    P1
_symmetry_Int_Tables_number       1
_symmetry_cell_setting            triclinic
loop_
_symmetry_equiv_pos_as_xyz
'x, y, z'
_cell_length_a     36.964124
_cell_length_b     36.970825
_cell_length_c     9.2543739
_cell_angle_alpha  90.004004
_cell_angle_beta   90.006068
_cell_angle_gamma 90.009222
loop_
_atom_site_label
_atom_site_type_symbol
_atom_site_fract_x
_atom_site_fract_y
_atom_site_fract_z
_atom_type_partial_charge
C0 C 0.2414 0.08272 0.35983 0.0
C1 C 0.24494 0.08425 0.50804 0.0
N2 N 0.28025 0.08039 0.54032 0.0
N3 N 0.27442 0.07852 0.29944 0.0
C4 C 0.29727 0.07581 0.41331 0.0
H5 H 0.21658 0.08696 0.30067 0.0
Co6 Co 0.28849 0.08616 0.10668 0.0
C7 C 0.35616 0.1338 0.19235 0.0
O8 O 0.35574 0.1597 0.09542 0.0
N9 N 0.30252 0.0933 0.91505 0.0
C10 C 0.33228 0.0865 0.70775 0.0
C11 C 0.33577 0.09064 0.85561 0.0
C12 C 0.27943 0.09092 0.80216 0.0
N13 N 0.29671 0.08652 0.67594 0.0
O14 O 0.31006 0.03784 0.09743 0.0
H15 H 0.36067 0.08866 0.91646 0.0
H16 H 0.25048 0.089 0.81271 0.0
O17 O 0.3327 0.10844 0.1871 0.0
C18 C 0.28555 0.01973 0.0312 0.0
O19 O 0.25461 0.03586 1.00592 0.0
N20 N 0.26269 0.1302 0.10308 0.0
C21 C 0.21347 0.18509 0.0355 0.0
C22 C 0.24701 0.19344 0.09911 0.0
C23 C 0.27126 0.16535 0.13388 0.0
C24 C 0.22944 0.12202 0.04923 0.0
C25 C 0.20503 0.14871 1.01145 0.0
H26 H 0.29615 0.17215 0.18667 0.0
H27 H 0.22198 0.09417 0.03179 0.0
H28 H 0.32613 0.07249 0.40339 0.0
H29 H 0.22355 0.08996 0.58446 0.0
H30 H 0.35399 0.08179 0.63201 0.0
H31 H 0.25408 0.22116 0.12424 0.0
H32 H 0.17963 0.14064 0.96281 0.0
C33 C 0.91828 0.24148 0.35767 0.0
C34 C 0.91657 0.24491 0.5059 0.0
N35 N 0.91985 0.28026 0.53848 0.0
N36 N 0.92205 0.27459 0.29772 0.0
C37 C 0.92427 0.29742 0.41176 0.0
H38 H 0.91441 0.21667 0.29801 0.0
Co39 Co 0.91427 0.28845 0.1051 0.0
C40 C 0.86614 0.3557 0.19277 0.0
O41 O 0.83914 0.35423 0.10089 0.0
N42 N 0.90697 0.30221 0.91339 0.0
C43 C 0.91161 0.33208 0.70544 0.0
C44 C 0.9077 0.33549 0.85343 0.0
C45 C 0.91032 0.27918 0.80073 0.0
N46 N 0.91341 0.29654 0.67417 0.0
O47 O 0.96257 0.31017 0.09497 0.0
H48 H 0.90829 0.36053 0.91377 0.0
H49 H 0.91367 0.25036 0.8114 0.0
O50 O 0.89195 0.33275 0.18483 0.0
C51 C 0.98082 0.28541 0.03094 0.0
O52 O 0.9648 0.25429 1.00811 0.0
N53 N 0.87034 0.26247 0.10246 0.0
C54 C 0.81539 0.21327 0.03604 0.0
C55 C 0.80721 0.24633 0.10366 0.0
C56 C 0.83536 0.27053 0.13813 0.0
C57 C 0.87841 0.22951 0.04574 0.0
C58 C 0.85166 0.20514 1.00829 0.0
H59 H 0.82881 0.29487 0.19518 0.0
H60 H 0.90621 0.22217 0.02646 0.0
H61 H 0.9272 0.32632 0.40226 0.0
H62 H 0.9111 0.22342 0.58212 0.0
H63 H 0.9147 0.35393 0.62905 0.0
H64 H 0.7796 0.25299 0.1324 0.0
H65 H 0.85957 0.17996 0.95744 0.0
C66 C 0.7592 0.91807 0.35873 0.0
C67 C 0.75573 0.91643 0.50695 0.0
N68 N 0.72038 0.91987 0.53938 0.0
N69 N 0.72612 0.92194 0.29857 0.0
C70 C 0.70327 0.92431 0.41253 0.0
H71 H 0.78403 0.9141 0.2993 0.0
Co72 Co 0.71219 0.91419 0.10589 0.0
C73 C 0.64478 0.86619 0.19258 0.0
O74 O 0.64588 0.8396 0.09875 0.0
N75 N 0.69833 0.90693 0.9142 0.0
C76 C 0.66847 0.91251 0.70654 0.0
C77 C 0.66504 0.9085 0.85447 0.0
C78 C 0.72138 0.90986 0.80143 0.0
N79 N 0.70404 0.91353 0.67503 0.0
O80 O 0.69049 0.96248 0.09604 0.0
H81 H 0.64005 0.90969 0.91504 0.0
H82 H 0.75027 0.9126 0.81204 0.0
O83 O 0.66793 0.89185 0.18577 0.0
C84 C 0.71511 0.98069 0.0309 0.0
O85 O 0.74616 0.96465 1.00687 0.0
N86 N 0.73816 0.87024 0.10295 0.0
C87 C 0.78747 0.8154 0.0362 0.0
C88 C 0.75422 0.8071 0.10222 0.0
C89 C 0.72994 0.83519 0.13671 0.0
C90 C 0.77123 0.87841 0.04748 0.0
C91 C 0.79567 0.85173 1.00993 0.0
H92 H 0.70537 0.82849 0.19197 0.0
H93 H 0.77857 0.90624 0.0289 0.0
H94 H 0.67437 0.92734 0.40283 0.0
H95 H 0.7772 0.91092 0.58327 0.0
H96 H 0.64666 0.9163 0.63044 0.0
H97 H 0.74742 0.77943 0.1295 0.0
H98 H 0.82091 0.85976 0.95986 0.0
C99 C 0.08245 0.75897 0.35708 0.0
C100 C 0.08418 0.75555 0.50532 0.0
N101 N 0.08099 0.7202 0.53792 0.0
N102 N 0.07875 0.72585 0.29717 0.0
C103 C 0.07659 0.70302 0.41123 0.0
H104 H 0.08628 0.78378 0.29736 0.0
Co105 Co 0.08654 0.71202 0.10456 0.0
C106 C 0.13469 0.64482 0.19259 0.0
O107 O 0.16186 0.64643 0.10158 0.0
N108 N 0.09388 0.69829 0.91284 0.0
C109 C 0.08956 0.66842 0.70478 0.0
C110 C 0.09344 0.66501 0.85278 0.0
C111 C 0.09037 0.72131 0.80023 0.0
N112 N 0.08747 0.70395 0.6736 0.0
O113 O 0.03827 0.69028 0.0942 0.0
H114 H 0.09306 0.63996 0.91302 0.0
H115 H 0.08681 0.7501 0.81093 0.0
O116 O 0.10884 0.66771 0.18418 0.0
C117 C 0.02003 0.7151 0.03053 0.0
O118 O 0.03603 0.74625 1.00833 0.0
N119 N 0.13047 0.738 0.10216 0.0
C120 C 0.18543 0.78717 0.03594 0.0
C121 C 0.19358 0.75418 0.1042 0.0
C122 C 0.16541 0.73 0.13859 0.0
C123 C 0.12242 0.77092 0.04499 0.0
C124 C 0.14919 0.79527 1.00759 0.0
H125 H 0.1719 0.70574 0.19628 0.0
H126 H 0.09464 0.77825 0.02542 0.0
H127 H 0.07371 0.67411 0.40178 0.0
H128 H 0.08962 0.77707 0.58152 0.0
H129 H 0.08672 0.64656 0.62827 0.0
H130 H 0.22117 0.74757 0.13351 0.0
H131 H 0.14131 0.82041 0.9564 0.0
C132 C 0.24162 0.91803 0.68355 0.0
C133 C 0.24502 0.91627 0.5353 0.0
N134 N 0.28038 0.91932 0.50265 0.0
N135 N 0.27477 0.92161 0.74338 0.0
C136 C 0.29759 0.92367 0.62928 0.0
H137 H 0.21681 0.91429 0.74334 0.0
Co138 Co 0.28856 0.91375 0.93596 0.0
C139 C 0.35577 0.8656 0.84727 0.0
O140 O 0.35398 0.83819 0.93708 0.0
N141 N 0.30224 0.90635 0.12772 0.0
C142 C 0.33212 0.91032 0.33589 0.0
C143 C 0.33551 0.90646 0.18787 0.0
C144 C 0.27924 0.91004 0.2403 0.0
N145 N 0.2966 0.91275 0.36697 0.0
O146 O 0.31029 0.96196 0.94665 0.0
H147 H 0.36059 0.9066 0.12771 0.0
H148 H 0.25047 0.91385 0.22958 0.0
O149 O 0.33293 0.89148 0.85638 0.0
C150 C 0.28548 0.98025 1.01016 0.0
O151 O 0.25426 0.96434 0.03209 0.0
N152 N 0.26256 0.86985 0.93801 0.0
C153 C 0.21327 0.81496 1.00359 0.0
C154 C 0.24618 0.80681 0.93468 0.0
C155 C 0.27042 0.83496 0.9006 0.0
C156 C 0.2297 0.87792 0.99567 0.0
C157 C 0.2053 0.85118 0.03285 0.0
H158 H 0.29461 0.82849 0.84234 0.0
H159 H 0.22243 0.90569 1.0157 0.0
H160 H 0.32652 0.92645 0.63864 0.0
H161 H 0.22347 0.9109 0.45913 0.0
H162 H 0.354 0.91291 0.41249 0.0
H163 H 0.25268 0.77925 0.90462 0.0
H164 H 0.18022 0.85906 0.08453 0.0
C165 C 0.08277 0.24155 0.68313 0.0
C166 C 0.0845 0.24497 0.53491 0.0
N167 N 0.0813 0.28031 0.50229 0.0
N168 N 0.07906 0.27467 0.74302 0.0
C169 C 0.0769 0.29749 0.62896 0.0
H170 H 0.08662 0.21675 0.74287 0.0
Co171 Co 0.08688 0.28847 0.93559 0.0
C172 C 0.13508 0.35565 0.84736 0.0
O173 O 0.16242 0.35383 0.93751 0.0
N174 N 0.09422 0.30219 0.12737 0.0
C175 C 0.08992 0.33209 0.3354 0.0
C176 C 0.09381 0.33547 0.18739 0.0
C177 C 0.09068 0.27919 0.24002 0.0
N178 N 0.08779 0.29656 0.36661 0.0
O179 O 0.0386 0.3102 0.94603 0.0
H180 H 0.09346 0.36052 0.1271 0.0
H181 H 0.08707 0.2504 0.22942 0.0
O182 O 0.10915 0.33284 0.85607 0.0
C183 C 0.02031 0.28539 1.0096 0.0
O184 O 0.03628 0.25424 0.03198 0.0
N185 N 0.13082 0.26244 0.93781 0.0
C186 C 0.18567 0.21296 1.0027 0.0
C187 C 0.19383 0.24587 0.93367 0.0
C188 C 0.16572 0.27022 0.90009 0.0
C189 C 0.12272 0.2296 0.99553 0.0
C190 C 0.14943 0.20515 0.03253 0.0
H191 H 0.17222 0.29443 0.84195 0.0
H192 H 0.09494 0.22238 1.01575 0.0
H193 H 0.07404 0.32641 0.63841 0.0
H194 H 0.08996 0.22346 0.45872 0.0
H195 H 0.08709 0.35396 0.41189 0.0
H196 H 0.22138 0.25232 0.90328 0.0
H197 H 0.14146 0.18017 0.08474 0.0
C198 C 0.75908 0.08248 0.68334 0.0
C199 C 0.75567 0.08423 0.5351 0.0
N200 N 0.72031 0.08115 0.50243 0.0
N201 N 0.72593 0.07888 0.74317 0.0
C202 C 0.70311 0.07679 0.62907 0.0
H203 H 0.78389 0.08624 0.74312 0.0
Co204 Co 0.71213 0.08672 0.93575 0.0
C205 C 0.64493 0.13492 0.84691 0.0
O206 O 0.64666 0.16234 0.93671 0.0
N207 N 0.69844 0.09411 0.1275 0.0
C208 C 0.66855 0.09002 0.33559 0.0
C209 C 0.66516 0.09389 0.18757 0.0
C210 C 0.72145 0.09047 0.24011 0.0
N211 N 0.70408 0.0877 0.36674 0.0
O212 O 0.69035 0.03849 0.94626 0.0
H213 H 0.6401 0.09368 0.12735 0.0
H214 H 0.75022 0.08674 0.22943 0.0
O215 O 0.66779 0.10906 0.85612 0.0
C216 C 0.71515 0.02019 1.00987 0.0
O217 O 0.74634 0.03613 0.03214 0.0
N218 N 0.73819 0.13061 0.93797 0.0
C219 C 0.78754 0.18547 1.00353 0.0
C220 C 0.75461 0.19365 0.9348 0.0
C221 C 0.73033 0.16552 0.90075 0.0
C222 C 0.77106 0.12252 0.9955 0.0
C223 C 0.79549 0.14924 0.03264 0.0
H224 H 0.70612 0.17201 0.84268 0.0
H225 H 0.77831 0.09474 1.01546 0.0
H226 H 0.67418 0.07398 0.63845 0.0
H227 H 0.77721 0.08962 0.45894 0.0
H228 H 0.64667 0.08735 0.41212 0.0
H229 H 0.74811 0.22121 0.90489 0.0
H230 H 0.82057 0.14133 0.08427 0.0
C231 C 0.91814 0.75905 0.68222 0.0
C232 C 0.91646 0.75562 0.53399 0.0
N233 N 0.91967 0.72027 0.50143 0.0
N234 N 0.92182 0.72594 0.7422 0.0
C235 C 0.92403 0.7031 0.62817 0.0
H236 H 0.91431 0.78387 0.74186 0.0
Co237 Co 0.91402 0.7121 0.93481 0.0
C238 C 0.86587 0.64481 0.84712 0.0
O239 O 0.83879 0.6463 0.93862 0.0
N240 N 0.90671 0.69834 0.12652 0.0
C241 C 0.91146 0.66846 0.3344 0.0
C242 C 0.90751 0.66506 0.18642 0.0
C243 C 0.91006 0.72136 0.23921 0.0
N244 N 0.91322 0.704 0.36573 0.0
O245 O 0.96228 0.69034 0.94503 0.0
H246 H 0.90815 0.64003 0.12603 0.0
H247 H 0.91337 0.75019 0.22858 0.0
O248 O 0.89166 0.6678 0.8552 0.0
C249 C 0.98054 0.71511 1.00899 0.0
O250 O 0.96455 0.74624 0.03176 0.0
N251 N 0.87011 0.73814 0.93734 0.0
C252 C 0.81529 0.78756 1.00321 0.0
C253 C 0.80703 0.75449 0.9356 0.0
C254 C 0.83512 0.73017 0.90152 0.0
C255 C 0.87827 0.77109 0.994 0.0
C256 C 0.85158 0.79555 0.03127 0.0
H257 H 0.82852 0.7058 0.84472 0.0
H258 H 0.90607 0.77836 1.01345 0.0
H259 H 0.92689 0.6742 0.63769 0.0
H260 H 0.91106 0.77713 0.45775 0.0
H261 H 0.91461 0.6466 0.41074 0.0
H262 H 0.77942 0.74788 0.90673 0.0
H263 H 0.85959 0.82066 0.08242 0.0
C264 C 0.74188 0.58246 0.85322 0.0
C265 C 0.74508 0.58312 1.00155 0.0
N266 N 0.78039 0.57977 0.03425 0.0
N267 N 0.77511 0.57936 0.79363 0.0
C268 C 0.79778 0.57629 0.90754 0.0
H269 H 0.71703 0.58607 0.79356 0.0
Co270 Co 0.78882 0.58605 0.60085 0.0
C271 C 0.864 0.62094 0.71763 0.0
O272 O 0.89395 0.61304 0.64846 0.0
N273 N 0.80227 0.59203 0.40915 0.0
C274 C 0.83204 0.58812 0.20096 0.0
C275 C 0.8355 0.59205 0.34863 0.0
C276 C 0.77915 0.58815 0.29736 0.0
N277 N 0.79651 0.58549 0.17051 0.0
O278 O 0.80914 0.53743 0.59273 0.0
H279 H 0.86064 0.59234 0.40801 0.0
H280 H 0.7503 0.58478 0.30926 0.0
O281 O 0.83414 0.60738 0.67283 0.0
C282 C 0.78317 0.51959 0.53511 0.0
O283 O 0.75196 0.53599 0.51964 0.0
N284 N 0.76463 0.63087 0.5951 0.0
C285 C 0.71596 0.68722 0.53323 0.0
C286 C 0.75125 0.69474 0.58411 0.0
C287 C 0.77557 0.66593 0.61252 0.0
C288 C 0.73067 0.62357 0.54731 0.0
C289 C 0.70671 0.65082 0.51167 0.0
H290 H 0.80292 0.67179 0.64613 0.0
H291 H 0.72225 0.59591 0.53216 0.0
H292 H 0.82673 0.57329 0.89824 0.0
H293 H 0.72345 0.58775 0.07808 0.0
H294 H 0.8539 0.58608 0.1237 0.0
H295 H 0.75992 0.72233 0.6021 0.0
H296 H 0.68093 0.64285 0.46629 0.0
C297 C 0.41778 0.74195 0.8522 0.0
C298 C 0.41712 0.74514 1.00054 0.0
N299 N 0.42063 0.78043 0.03329 0.0
N300 N 0.42103 0.77516 0.79264 0.0
C301 C 0.42421 0.7978 0.9066 0.0
H302 H 0.41402 0.71713 0.7925 0.0
Co303 Co 0.41432 0.7889 0.59984 0.0
C304 C 0.37976 0.86405 0.71807 0.0
O305 O 0.38799 0.89421 0.65103 0.0
N306 N 0.40832 0.80235 0.40813 0.0
C307 C 0.41185 0.83207 0.19972 0.0
C308 C 0.40791 0.83555 0.34741 0.0
C309 C 0.41242 0.77922 0.29646 0.0
N310 N 0.41486 0.79656 0.16949 0.0
O311 O 0.46302 0.80906 0.59145 0.0
H312 H 0.40726 0.8607 0.40663 0.0
H313 H 0.41603 0.75042 0.30851 0.0
O314 O 0.39331 0.83431 0.67196 0.0
C315 C 0.48082 0.78306 0.53405 0.0
O316 O 0.46439 0.75185 0.51907 0.0
N317 N 0.36938 0.76489 0.59426 0.0
C318 C 0.31285 0.71636 0.53275 0.0
C319 C 0.30545 0.75167 0.58361 0.0
C320 C 0.33435 0.77592 0.61177 0.0
C321 C 0.37656 0.73094 0.54617 0.0
C322 C 0.34922 0.70705 0.51068 0.0
H323 H 0.32859 0.80329 0.64523 0.0
H324 H 0.40419 0.72246 0.5308 0.0
H325 H 0.42736 0.82673 0.89738 0.0
H326 H 0.41234 0.72354 0.07704 0.0
H327 H 0.41359 0.8539 0.12228 0.0
H328 H 0.27788 0.7604 0.6018 0.0
H329 H 0.35709 0.68126 0.46519 0.0
C330 C 0.25874 0.41836 0.85355 0.0
C331 C 0.25554 0.41767 1.00189 0.0
N332 N 0.22023 0.42094 0.03458 0.0
N333 N 0.2255 0.42139 0.79397 0.0
C334 C 0.20283 0.42438 0.9079 0.0
H335 H 0.28359 0.41481 0.79388 0.0
Co336 Co 0.2118 0.41466 0.60115 0.0
C337 C 0.13672 0.37972 0.71841 0.0
O338 O 0.10664 0.38784 0.65058 0.0
N339 N 0.19838 0.40864 0.40945 0.0
C340 C 0.16862 0.41208 0.20107 0.0
C341 C 0.16516 0.40818 0.34876 0.0
C342 C 0.22149 0.41277 0.29778 0.0
N343 N 0.20413 0.41515 0.17082 0.0
O344 O 0.19147 0.46326 0.59279 0.0
H345 H 0.14001 0.40753 0.40799 0.0
H346 H 0.25029 0.41645 0.30982 0.0
O347 O 0.1665 0.39336 0.67308 0.0
C348 C 0.21757 0.48106 0.53604 0.0
O349 O 0.24882 0.46466 0.52193 0.0
N350 N 0.236 0.36987 0.59549 0.0
C351 C 0.2847 0.3136 0.53338 0.0
C352 C 0.24942 0.30603 0.58417 0.0
C353 C 0.22507 0.33481 0.61265 0.0
C354 C 0.26995 0.37722 0.54769 0.0
C355 C 0.29393 0.35001 0.51195 0.0
H356 H 0.19772 0.32893 0.64601 0.0
H357 H 0.27835 0.40488 0.53258 0.0
H358 H 0.17387 0.42733 0.89864 0.0
H359 H 0.27718 0.41307 0.07842 0.0
H360 H 0.14677 0.41378 0.12364 0.0
H361 H 0.24077 0.27843 0.60196 0.0
H362 H 0.3197 0.358 0.46656 0.0
C363 C 0.58274 0.2585 0.8519 0.0
C364 C 0.58342 0.25531 1.00024 0.0
N365 N 0.58 0.22001 0.03296 0.0
N366 N 0.57956 0.22528 0.79233 0.0
C367 C 0.57645 0.20263 0.90627 0.0
H368 H 0.58641 0.28333 0.79222 0.0
Co369 Co 0.58628 0.21156 0.59954 0.0
C370 C 0.62094 0.13642 0.71767 0.0
O371 O 0.61279 0.10625 0.65054 0.0
N372 N 0.59231 0.19813 0.40782 0.0
C373 C 0.58866 0.16838 0.19948 0.0
C374 C 0.59259 0.16492 0.34717 0.0
C375 C 0.5883 0.22125 0.29609 0.0
N376 N 0.58578 0.2039 0.16917 0.0
O377 O 0.53759 0.1914 0.59111 0.0
H378 H 0.59311 0.13977 0.40646 0.0
H379 H 0.58479 0.25007 0.30807 0.0
O380 O 0.60733 0.16613 0.67148 0.0
C381 C 0.51977 0.21731 0.53313 0.0
O382 O 0.53619 0.2485 0.51731 0.0
N383 N 0.63121 0.2356 0.59408 0.0
C384 C 0.68768 0.28421 0.53282 0.0
C385 C 0.69512 0.24891 0.58355 0.0
C386 C 0.66625 0.22461 0.61161 0.0
C387 C 0.62398 0.26956 0.54621 0.0
C388 C 0.6513 0.2935 0.51088 0.0
H389 H 0.67205 0.19724 0.64503 0.0
H390 H 0.59634 0.27801 0.53085 0.0
H391 H 0.57336 0.17369 0.89703 0.0
H392 H 0.58813 0.27693 0.07675 0.0
H393 H 0.58682 0.14654 0.12209 0.0
H394 H 0.7227 0.2402 0.6017 0.0
H395 H 0.6434 0.31929 0.46553 0.0
C396 C 0.74184 0.41745 0.18712 0.0
C397 C 0.74505 0.41682 0.03878 0.0
N398 N 0.78035 0.42034 1.00611 0.0
N399 N 0.77506 0.4207 0.24675 0.0
C400 C 0.79771 0.42389 0.13286 0.0
H401 H 0.71701 0.41371 0.24674 0.0
Co402 Co 0.78882 0.41401 0.43954 0.0
C403 C 0.86411 0.37942 0.32266 0.0
O404 O 0.89398 0.3874 0.39219 0.0
N405 N 0.80229 0.40804 0.63126 0.0
C406 C 0.83204 0.41215 0.83949 0.0
C407 C 0.83552 0.40819 0.69183 0.0
C408 C 0.77915 0.41187 0.74302 0.0
N409 N 0.7965 0.41465 0.86989 0.0
O410 O 0.80908 0.46266 0.44768 0.0
H411 H 0.86066 0.40799 0.63249 0.0
H412 H 0.7503 0.41514 0.73108 0.0
O413 O 0.83416 0.39283 0.36726 0.0
C414 C 0.78315 0.48049 0.50552 0.0
O415 O 0.75194 0.46408 0.52124 0.0
N416 N 0.7647 0.36911 0.44526 0.0
C417 C 0.71611 0.31264 0.50672 0.0
C418 C 0.75141 0.30521 0.45592 0.0
C419 C 0.7757 0.33408 0.42773 0.0
C420 C 0.73073 0.37634 0.49313 0.0
C421 C 0.70681 0.34902 0.52861 0.0
H422 H 0.80306 0.32829 0.39414 0.0
H423 H 0.72227 0.40398 0.50838 0.0
H424 H 0.82665 0.42703 0.1422 0.0
H425 H 0.72345 0.41209 0.96223 0.0
H426 H 0.85388 0.41433 0.91675 0.0
H427 H 0.76012 0.27764 0.43776 0.0
H428 H 0.68101 0.35692 0.57398 0.0
C429 C 0.58289 0.74151 0.18598 0.0
C430 C 0.58353 0.74474 0.03765 0.0
N431 N 0.58004 0.78004 1.00505 0.0
N432 N 0.57968 0.77472 0.24568 0.0
C433 C 0.57652 0.79739 0.13184 0.0
H434 H 0.58659 0.71668 0.24554 0.0
Co435 Co 0.58636 0.78848 0.43844 0.0
C436 C 0.62126 0.86376 0.32293 0.0
O437 O 0.61365 0.89335 0.39494 0.0
N438 N 0.59232 0.80199 0.63019 0.0
C439 C 0.58774 0.83175 0.83822 0.0
C440 C 0.59171 0.83523 0.69058 0.0
C441 C 0.58873 0.77885 0.74206 0.0
N442 N 0.58569 0.7962 0.86882 0.0
O443 O 0.53777 0.8089 0.44625 0.0
H444 H 0.59149 0.86034 0.63109 0.0
H445 H 0.58576 0.74996 0.73024 0.0
O446 O 0.60787 0.83367 0.36605 0.0
C447 C 0.51993 0.78302 0.50439 0.0
O448 O 0.53631 0.75182 0.52054 0.0
N449 N 0.63117 0.76422 0.44444 0.0
C450 C 0.68755 0.7156 0.50649 0.0
C451 C 0.69505 0.75087 0.45554 0.0
C452 C 0.66623 0.77517 0.427 0.0
C453 C 0.62387 0.73025 0.49215 0.0
C454 C 0.65114 0.70632 0.52795 0.0
H455 H 0.67208 0.8025 0.39321 0.0
H456 H 0.59621 0.72182 0.50718 0.0
H457 H 0.57345 0.82633 0.14129 0.0
H458 H 0.58821 0.72314 0.96107 0.0
H459 H 0.58518 0.85359 0.91529 0.0
H460 H 0.72264 0.75955 0.43755 0.0
H461 H 0.64319 0.68054 0.57332 0.0
C462 C 0.25876 0.5831 0.18729 0.0
C463 C 0.25556 0.58371 0.03894 0.0
N464 N 0.22027 0.58016 1.0062 0.0
N465 N 0.22554 0.57983 0.24685 0.0
C466 C 0.2029 0.57661 0.13291 0.0
H467 H 0.28358 0.58688 0.24696 0.0
Co468 Co 0.21179 0.58652 0.43965 0.0
C469 C 0.13653 0.62101 0.32222 0.0
O470 O 0.10654 0.61289 0.39066 0.0
N471 N 0.19834 0.59249 0.63136 0.0
C472 C 0.16861 0.58865 0.83966 0.0
C473 C 0.16512 0.59263 0.69201 0.0
C474 C 0.22148 0.58848 0.74305 0.0
N475 N 0.20413 0.58587 0.86997 0.0
O476 O 0.19157 0.53788 0.44793 0.0
H477 H 0.13997 0.59307 0.63273 0.0
H478 H 0.2503 0.58501 0.73104 0.0
O479 O 0.1664 0.60758 0.36748 0.0
C480 C 0.21761 0.52009 0.50514 0.0
O481 O 0.24885 0.5365 0.51971 0.0
N482 N 0.23584 0.63145 0.44534 0.0
C483 C 0.28441 0.68794 0.50679 0.0
C484 C 0.2491 0.69536 0.45594 0.0
C485 C 0.22482 0.66648 0.42779 0.0
C486 C 0.2698 0.62425 0.49338 0.0
C487 C 0.2937 0.65157 0.52886 0.0
H488 H 0.19746 0.67225 0.39425 0.0
H489 H 0.27828 0.59662 0.50872 0.0
H490 H 0.17396 0.57345 0.14217 0.0
H491 H 0.27717 0.58847 0.96242 0.0
H492 H 0.14676 0.58669 0.917 0.0
H493 H 0.24038 0.72293 0.43772 0.0
H494 H 0.3195 0.6437 0.57433 0.0
C495 C 0.41754 0.25929 0.18531 0.0
C496 C 0.41691 0.25601 0.037 0.0
N497 N 0.42056 0.22072 1.0045 0.0
N498 N 0.4209 0.22611 0.24514 0.0
C499 C 0.42414 0.20342 0.13138 0.0
H500 H 0.41373 0.28413 0.24473 0.0
Co501 Co 0.41422 0.21228 0.43784 0.0
C502 C 0.37917 0.13695 0.32398 0.0
O503 O 0.38612 0.10786 0.40016 0.0
N504 N 0.40827 0.19866 0.62963 0.0
C505 C 0.41392 0.16892 0.83734 0.0
C506 C 0.4099 0.16543 0.68972 0.0
C507 C 0.41133 0.22183 0.74174 0.0
N508 N 0.41499 0.2045 0.86829 0.0
O509 O 0.46274 0.1917 0.44518 0.0
H510 H 0.41098 0.14039 0.62996 0.0
H511 H 0.41364 0.25077 0.73016 0.0
O512 O 0.39242 0.16729 0.36487 0.0
C513 C 0.48061 0.21738 0.50467 0.0
O514 O 0.46423 0.24852 0.52263 0.0
N515 N 0.36949 0.23667 0.44409 0.0
C516 C 0.31312 0.28526 0.50643 0.0
C517 C 0.30562 0.25001 0.45531 0.0
C518 C 0.33442 0.22573 0.42659 0.0
C519 C 0.37681 0.27064 0.49167 0.0
C520 C 0.34954 0.29455 0.5277 0.0
H521 H 0.32854 0.19842 0.39252 0.0
H522 H 0.40448 0.27907 0.50655 0.0
H523 H 0.4273 0.1745 0.14103 0.0
H524 H 0.41214 0.27758 0.96036 0.0
H525 H 0.4173 0.14712 0.91405 0.0
H526 H 0.27802 0.24133 0.43731 0.0
H527 H 0.3575 0.32033 0.57312 0.0
loop_
_geom_bond_atom_site_label_1
_geom_bond_atom_site_label_2
_geom_bond_distance
_geom_bond_site_symmetry_2
_ccdc_geom_bond_type
C0 C1 1.351 . S
C0 N3 1.368 . S
C0 H5 0.931 . S
C1 C0 1.351 . S
C1 N2 1.373 . S
C1 H29 0.930 . S
N2 C1 1.373 . S
N2 C4 1.340 . S
N3 C0 1.368 . S
N3 C4 1.321 . S
N3 Co6 2.135 . S
C4 N2 1.340 . S
C4 N3 1.321 . S
C4 H28 0.930 . S
H5 C0 0.931 . S
Co6 N3 2.135 . S
Co6 N9 2.121 1_554 S
Co6 O14 2.055 . S
Co6 O17 2.039 . S
Co6 N20 2.140 . S
C7 O8 1.227 . S
C7 O17 1.265 . S
O8 C7 1.227 . S
N9 Co6 2.121 1_556 S
N9 C11 1.375 . S
N9 C12 1.313 . S
C10 C11 1.338 . S
C10 N13 1.377 . S
C10 H30 0.930 . S
C11 N9 1.375 . S
C11 C10 1.338 . S
C11 H15 0.931 . S
C12 N9 1.313 . S
C12 N13 1.344 . S
C12 H16 0.930 . S
N13 C10 1.377 . S
N13 C12 1.344 . S
O14 Co6 2.055 . S
O14 C18 1.253 . S
H15 C11 0.931 . S
H16 C12 0.930 . S
O17 Co6 2.039 . S
O17 C7 1.265 . S
C18 O14 1.253 . S
C18 O19 1.226 1_554 S
O19 C18 1.226 1_556 S
N20 Co6 2.140 . S
N20 C23 1.346 . S
N20 C24 1.345 1_554 S
C21 C22 1.387 . S
C21 C25 1.391 1_554 S
C22 C21 1.387 . S
C22 C23 1.369 . S
C22 H31 0.929 . S
C23 N20 1.346 . S
C23 C22 1.369 . S
C23 H26 0.928 . S
C24 N20 1.345 1_556 S
C24 C25 1.371 . S
C24 H27 0.931 . S
C25 C21 1.391 1_556 S
C25 C24 1.371 . S
C25 H32 0.930 . S
H26 C23 0.928 . S
H27 C24 0.931 . S
H28 C4 0.930 . S
H29 C1 0.930 . S
H30 C10 0.930 . S
H31 C22 0.929 . S
H32 C25 0.930 . S
C33 C34 1.351 . S
C33 N36 1.368 . S
C33 H38 0.931 . S
C34 C33 1.351 . S
C34 N35 1.373 . S
C34 H62 0.930 . S
N35 C34 1.373 . S
N35 C37 1.340 . S
N36 C33 1.368 . S
N36 C37 1.321 . S
N36 Co39 2.135 . S
C37 N35 1.340 . S
C37 N36 1.321 . S
C37 H61 0.930 . S
H38 C33 0.931 . S
Co39 N36 2.135 . S
Co39 N42 2.121 1_554 S
Co39 O47 2.055 . S
Co39 O50 2.039 . S
Co39 N53 2.140 . S
C40 O41 1.227 . S
C40 O50 1.265 . S
O41 C40 1.227 . S
N42 Co39 2.121 1_556 S
N42 C44 1.375 . S
N42 C45 1.313 . S
C43 C44 1.338 . S
C43 N46 1.377 . S
C43 H63 0.930 . S
C44 N42 1.375 . S
C44 C43 1.338 . S
C44 H48 0.931 . S
C45 N42 1.313 . S
C45 N46 1.344 . S
C45 H49 0.930 . S
N46 C43 1.377 . S
N46 C45 1.344 . S
O47 Co39 2.055 . S
O47 C51 1.253 . S
H48 C44 0.931 . S
H49 C45 0.930 . S
O50 Co39 2.039 . S
O50 C40 1.265 . S
C51 O47 1.253 . S
C51 O52 1.226 1_554 S
O52 C51 1.226 1_556 S
N53 Co39 2.140 . S
N53 C56 1.346 . S
N53 C57 1.345 1_554 S
C54 C55 1.387 . S
C54 C58 1.391 1_554 S
C55 C54 1.387 . S
C55 C56 1.369 . S
C55 H64 0.929 . S
C56 N53 1.346 . S
C56 C55 1.369 . S
C56 H59 0.928 . S
C57 N53 1.345 1_556 S
C57 C58 1.371 . S
C57 H60 0.931 . S
C58 C54 1.391 1_556 S
C58 C57 1.371 . S
C58 H65 0.930 . S
H59 C56 0.928 . S
H60 C57 0.931 . S
H61 C37 0.930 . S
H62 C34 0.930 . S
H63 C43 0.930 . S
H64 C55 0.929 . S
H65 C58 0.930 . S
C66 C67 1.351 . S
C66 N69 1.368 . S
C66 H71 0.931 . S
C67 C66 1.351 . S
C67 N68 1.373 . S
C67 H95 0.930 . S
N68 C67 1.373 . S
N68 C70 1.340 . S
N69 C66 1.368 . S
N69 C70 1.321 . S
N69 Co72 2.135 . S
C70 N68 1.340 . S
C70 N69 1.321 . S
C70 H94 0.930 . S
H71 C66 0.931 . S
Co72 N69 2.135 . S
Co72 N75 2.121 1_554 S
Co72 O80 2.055 . S
Co72 O83 2.039 . S
Co72 N86 2.140 . S
C73 O74 1.227 . S
C73 O83 1.265 . S
O74 C73 1.227 . S
N75 Co72 2.121 1_556 S
N75 C77 1.375 . S
N75 C78 1.313 . S
C76 C77 1.338 . S
C76 N79 1.377 . S
C76 H96 0.930 . S
C77 N75 1.375 . S
C77 C76 1.338 . S
C77 H81 0.931 . S
C78 N75 1.313 . S
C78 N79 1.344 . S
C78 H82 0.930 . S
N79 C76 1.377 . S
N79 C78 1.344 . S
O80 Co72 2.055 . S
O80 C84 1.253 . S
H81 C77 0.931 . S
H82 C78 0.930 . S
O83 Co72 2.039 . S
O83 C73 1.265 . S
C84 O80 1.253 . S
C84 O85 1.226 1_554 S
O85 C84 1.226 1_556 S
N86 Co72 2.140 . S
N86 C89 1.346 . S
N86 C90 1.345 1_554 S
C87 C88 1.387 . S
C87 C91 1.391 1_554 S
C88 C87 1.387 . S
C88 C89 1.369 . S
C88 H97 0.929 . S
C89 N86 1.346 . S
C89 C88 1.369 . S
C89 H92 0.928 . S
C90 N86 1.345 1_556 S
C90 C91 1.371 . S
C90 H93 0.931 . S
C91 C87 1.391 1_556 S
C91 C90 1.371 . S
C91 H98 0.930 . S
H92 C89 0.928 . S
H93 C90 0.931 . S
H94 C70 0.930 . S
H95 C67 0.930 . S
H96 C76 0.930 . S
H97 C88 0.929 . S
H98 C91 0.930 . S
C99 C100 1.351 . S
C99 N102 1.368 . S
C99 H104 0.931 . S
C100 C99 1.351 . S
C100 N101 1.373 . S
C100 H128 0.930 . S
N101 C100 1.373 . S
N101 C103 1.340 . S
N102 C99 1.368 . S
N102 C103 1.321 . S
N102 Co105 2.135 . S
C103 N101 1.340 . S
C103 N102 1.321 . S
C103 H127 0.930 . S
H104 C99 0.931 . S
Co105 N102 2.135 . S
Co105 N108 2.121 1_554 S
Co105 O113 2.055 . S
Co105 O116 2.039 . S
Co105 N119 2.140 . S
C106 O107 1.227 . S
C106 O116 1.265 . S
O107 C106 1.227 . S
N108 Co105 2.121 1_556 S
N108 C110 1.375 . S
N108 C111 1.313 . S
C109 C110 1.338 . S
C109 N112 1.377 . S
C109 H129 0.930 . S
C110 N108 1.375 . S
C110 C109 1.338 . S
C110 H114 0.931 . S
C111 N108 1.313 . S
C111 N112 1.344 . S
C111 H115 0.930 . S
N112 C109 1.377 . S
N112 C111 1.344 . S
O113 Co105 2.055 . S
O113 C117 1.253 . S
H114 C110 0.931 . S
H115 C111 0.930 . S
O116 Co105 2.039 . S
O116 C106 1.265 . S
C117 O113 1.253 . S
C117 O118 1.226 1_554 S
O118 C117 1.226 1_556 S
N119 Co105 2.140 . S
N119 C122 1.346 . S
N119 C123 1.345 1_554 S
C120 C121 1.387 . S
C120 C124 1.391 1_554 S
C121 C120 1.387 . S
C121 C122 1.369 . S
C121 H130 0.929 . S
C122 N119 1.346 . S
C122 C121 1.369 . S
C122 H125 0.928 . S
C123 N119 1.345 1_556 S
C123 C124 1.371 . S
C123 H126 0.931 . S
C124 C120 1.391 1_556 S
C124 C123 1.371 . S
C124 H131 0.930 . S
H125 C122 0.928 . S
H126 C123 0.931 . S
H127 C103 0.930 . S
H128 C100 0.930 . S
H129 C109 0.930 . S
H130 C121 0.929 . S
H131 C124 0.930 . S
C132 C133 1.351 . S
C132 N135 1.368 . S
C132 H137 0.931 . S
C133 C132 1.351 . S
C133 N134 1.373 . S
C133 H161 0.930 . S
N134 C133 1.373 . S
N134 C136 1.340 . S
N135 C132 1.368 . S
N135 C136 1.321 . S
N135 Co138 2.135 . S
C136 N134 1.340 . S
C136 N135 1.321 . S
C136 H160 0.930 . S
H137 C132 0.931 . S
Co138 N135 2.135 . S
Co138 N141 2.121 1_556 S
Co138 O146 2.055 . S
Co138 O149 2.039 . S
Co138 N152 2.140 . S
C139 O140 1.227 . S
C139 O149 1.265 . S
O140 C139 1.227 . S
N141 Co138 2.121 1_554 S
N141 C143 1.375 . S
N141 C144 1.313 . S
C142 C143 1.338 . S
C142 N145 1.377 . S
C142 H162 0.930 . S
C143 N141 1.375 . S
C143 C142 1.338 . S
C143 H147 0.931 . S
C144 N141 1.313 . S
C144 N145 1.344 . S
C144 H148 0.930 . S
N145 C142 1.377 . S
N145 C144 1.344 . S
O146 Co138 2.055 . S
O146 C150 1.253 . S
H147 C143 0.931 . S
H148 C144 0.930 . S
O149 Co138 2.039 . S
O149 C139 1.265 . S
C150 O146 1.253 . S
C150 O151 1.226 1_556 S
O151 C150 1.226 1_554 S
N152 Co138 2.140 . S
N152 C155 1.346 . S
N152 C156 1.345 1_556 S
C153 C154 1.387 . S
C153 C157 1.391 1_556 S
C154 C153 1.387 . S
C154 C155 1.369 . S
C154 H163 0.929 . S
C155 N152 1.346 . S
C155 C154 1.369 . S
C155 H158 0.928 . S
C156 N152 1.345 1_554 S
C156 C157 1.371 . S
C156 H159 0.931 . S
C157 C153 1.391 1_554 S
C157 C156 1.371 . S
C157 H164 0.930 . S
H158 C155 0.928 . S
H159 C156 0.931 . S
H160 C136 0.930 . S
H161 C133 0.930 . S
H162 C142 0.930 . S
H163 C154 0.929 . S
H164 C157 0.930 . S
C165 C166 1.351 . S
C165 N168 1.368 . S
C165 H170 0.931 . S
C166 C165 1.351 . S
C166 N167 1.373 . S
C166 H194 0.930 . S
N167 C166 1.373 . S
N167 C169 1.340 . S
N168 C165 1.368 . S
N168 C169 1.321 . S
N168 Co171 2.135 . S
C169 N167 1.340 . S
C169 N168 1.321 . S
C169 H193 0.930 . S
H170 C165 0.931 . S
Co171 N168 2.135 . S
Co171 N174 2.121 1_556 S
Co171 O179 2.055 . S
Co171 O182 2.039 . S
Co171 N185 2.140 . S
C172 O173 1.227 . S
C172 O182 1.265 . S
O173 C172 1.227 . S
N174 Co171 2.121 1_554 S
N174 C176 1.375 . S
N174 C177 1.313 . S
C175 C176 1.338 . S
C175 N178 1.377 . S
C175 H195 0.930 . S
C176 N174 1.375 . S
C176 C175 1.338 . S
C176 H180 0.931 . S
C177 N174 1.313 . S
C177 N178 1.344 . S
C177 H181 0.930 . S
N178 C175 1.377 . S
N178 C177 1.344 . S
O179 Co171 2.055 . S
O179 C183 1.253 . S
H180 C176 0.931 . S
H181 C177 0.930 . S
O182 Co171 2.039 . S
O182 C172 1.265 . S
C183 O179 1.253 . S
C183 O184 1.226 1_556 S
O184 C183 1.226 1_554 S
N185 Co171 2.140 . S
N185 C188 1.346 . S
N185 C189 1.345 1_556 S
C186 C187 1.387 . S
C186 C190 1.391 1_556 S
C187 C186 1.387 . S
C187 C188 1.369 . S
C187 H196 0.929 . S
C188 N185 1.346 . S
C188 C187 1.369 . S
C188 H191 0.928 . S
C189 N185 1.345 1_554 S
C189 C190 1.371 . S
C189 H192 0.931 . S
C190 C186 1.391 1_554 S
C190 C189 1.371 . S
C190 H197 0.930 . S
H191 C188 0.928 . S
H192 C189 0.931 . S
H193 C169 0.930 . S
H194 C166 0.930 . S
H195 C175 0.930 . S
H196 C187 0.929 . S
H197 C190 0.930 . S
C198 C199 1.351 . S
C198 N201 1.368 . S
C198 H203 0.931 . S
C199 C198 1.351 . S
C199 N200 1.373 . S
C199 H227 0.930 . S
N200 C199 1.373 . S
N200 C202 1.340 . S
N201 C198 1.368 . S
N201 C202 1.321 . S
N201 Co204 2.135 . S
C202 N200 1.340 . S
C202 N201 1.321 . S
C202 H226 0.930 . S
H203 C198 0.931 . S
Co204 N201 2.135 . S
Co204 N207 2.121 1_556 S
Co204 O212 2.055 . S
Co204 O215 2.039 . S
Co204 N218 2.140 . S
C205 O206 1.227 . S
C205 O215 1.265 . S
O206 C205 1.227 . S
N207 Co204 2.121 1_554 S
N207 C209 1.375 . S
N207 C210 1.313 . S
C208 C209 1.338 . S
C208 N211 1.377 . S
C208 H228 0.930 . S
C209 N207 1.375 . S
C209 C208 1.338 . S
C209 H213 0.931 . S
C210 N207 1.313 . S
C210 N211 1.344 . S
C210 H214 0.930 . S
N211 C208 1.377 . S
N211 C210 1.344 . S
O212 Co204 2.055 . S
O212 C216 1.253 . S
H213 C209 0.931 . S
H214 C210 0.930 . S
O215 Co204 2.039 . S
O215 C205 1.265 . S
C216 O212 1.253 . S
C216 O217 1.226 1_556 S
O217 C216 1.226 1_554 S
N218 Co204 2.140 . S
N218 C221 1.346 . S
N218 C222 1.345 1_556 S
C219 C220 1.387 . S
C219 C223 1.391 1_556 S
C220 C219 1.387 . S
C220 C221 1.369 . S
C220 H229 0.929 . S
C221 N218 1.346 . S
C221 C220 1.369 . S
C221 H224 0.928 . S
C222 N218 1.345 1_554 S
C222 C223 1.371 . S
C222 H225 0.931 . S
C223 C219 1.391 1_554 S
C223 C222 1.371 . S
C223 H230 0.930 . S
H224 C221 0.928 . S
H225 C222 0.931 . S
H226 C202 0.930 . S
H227 C199 0.930 . S
H228 C208 0.930 . S
H229 C220 0.929 . S
H230 C223 0.930 . S
C231 C232 1.351 . S
C231 N234 1.368 . S
C231 H236 0.931 . S
C232 C231 1.351 . S
C232 N233 1.373 . S
C232 H260 0.930 . S
N233 C232 1.373 . S
N233 C235 1.340 . S
N234 C231 1.368 . S
N234 C235 1.321 . S
N234 Co237 2.135 . S
C235 N233 1.340 . S
C235 N234 1.321 . S
C235 H259 0.930 . S
H236 C231 0.931 . S
Co237 N234 2.135 . S
Co237 N240 2.121 1_556 S
Co237 O245 2.055 . S
Co237 O248 2.039 . S
Co237 N251 2.140 . S
C238 O239 1.227 . S
C238 O248 1.265 . S
O239 C238 1.227 . S
N240 Co237 2.121 1_554 S
N240 C242 1.375 . S
N240 C243 1.313 . S
C241 C242 1.338 . S
C241 N244 1.377 . S
C241 H261 0.930 . S
C242 N240 1.375 . S
C242 C241 1.338 . S
C242 H246 0.931 . S
C243 N240 1.313 . S
C243 N244 1.344 . S
C243 H247 0.930 . S
N244 C241 1.377 . S
N244 C243 1.344 . S
O245 Co237 2.055 . S
O245 C249 1.253 . S
H246 C242 0.931 . S
H247 C243 0.930 . S
O248 Co237 2.039 . S
O248 C238 1.265 . S
C249 O245 1.253 . S
C249 O250 1.226 1_556 S
O250 C249 1.226 1_554 S
N251 Co237 2.140 . S
N251 C254 1.346 . S
N251 C255 1.345 1_556 S
C252 C253 1.387 . S
C252 C256 1.391 1_556 S
C253 C252 1.387 . S
C253 C254 1.369 . S
C253 H262 0.929 . S
C254 N251 1.346 . S
C254 C253 1.369 . S
C254 H257 0.928 . S
C255 N251 1.345 1_554 S
C255 C256 1.371 . S
C255 H258 0.931 . S
C256 C252 1.391 1_554 S
C256 C255 1.371 . S
C256 H263 0.930 . S
H257 C254 0.928 . S
H258 C255 0.931 . S
H259 C235 0.930 . S
H260 C232 0.930 . S
H261 C241 0.930 . S
H262 C253 0.929 . S
H263 C256 0.930 . S
C264 C265 1.351 . S
C264 N267 1.368 . S
C264 H269 0.931 . S
C265 C264 1.351 . S
C265 N266 1.373 1_556 S
C265 H293 0.930 1_556 S
N266 C265 1.373 1_554 S
N266 C268 1.340 1_554 S
N267 C264 1.368 . S
N267 C268 1.321 . S
N267 Co270 2.135 . S
C268 N266 1.340 1_556 S
C268 N267 1.321 . S
C268 H292 0.930 . S
H269 C264 0.931 . S
Co270 N267 2.135 . S
Co270 N273 2.121 . S
Co270 O278 2.055 . S
Co270 O281 2.039 . S
Co270 N284 2.140 . S
C271 O272 1.227 . S
C271 O281 1.265 . S
O272 C271 1.227 . S
N273 Co270 2.121 . S
N273 C275 1.375 . S
N273 C276 1.313 . S
C274 C275 1.338 . S
C274 N277 1.377 . S
C274 H294 0.930 . S
C275 N273 1.375 . S
C275 C274 1.338 . S
C275 H279 0.931 . S
C276 N273 1.313 . S
C276 N277 1.344 . S
C276 H280 0.930 . S
N277 C274 1.377 . S
N277 C276 1.344 . S
O278 Co270 2.055 . S
O278 C282 1.253 . S
H279 C275 0.931 . S
H280 C276 0.930 . S
O281 Co270 2.039 . S
O281 C271 1.265 . S
C282 O278 1.253 . S
C282 O283 1.227 . S
O283 C282 1.227 . S
N284 Co270 2.140 . S
N284 C287 1.346 . S
N284 C288 1.345 . S
C285 C286 1.387 . S
C285 C289 1.391 . S
C286 C285 1.387 . S
C286 C287 1.369 . S
C286 H295 0.929 . S
C287 N284 1.346 . S
C287 C286 1.369 . S
C287 H290 0.928 . S
C288 N284 1.345 . S
C288 C289 1.371 . S
C288 H291 0.931 . S
C289 C285 1.391 . S
C289 C288 1.371 . S
C289 H296 0.930 . S
H290 C287 0.928 . S
H291 C288 0.931 . S
H292 C268 0.930 . S
H293 C265 0.930 1_554 S
H294 C274 0.930 . S
H295 C286 0.929 . S
H296 C289 0.930 . S
C297 C298 1.351 . S
C297 N300 1.368 . S
C297 H302 0.931 . S
C298 C297 1.351 . S
C298 N299 1.373 1_556 S
C298 H326 0.930 1_556 S
N299 C298 1.373 1_554 S
N299 C301 1.340 1_554 S
N300 C297 1.368 . S
N300 C301 1.321 . S
N300 Co303 2.135 . S
C301 N299 1.340 1_556 S
C301 N300 1.321 . S
C301 H325 0.930 . S
H302 C297 0.931 . S
Co303 N300 2.135 . S
Co303 N306 2.121 . S
Co303 O311 2.055 . S
Co303 O314 2.039 . S
Co303 N317 2.140 . S
C304 O305 1.227 . S
C304 O314 1.265 . S
O305 C304 1.227 . S
N306 Co303 2.121 . S
N306 C308 1.375 . S
N306 C309 1.313 . S
C307 C308 1.338 . S
C307 N310 1.377 . S
C307 H327 0.930 . S
C308 N306 1.375 . S
C308 C307 1.338 . S
C308 H312 0.931 . S
C309 N306 1.313 . S
C309 N310 1.344 . S
C309 H313 0.930 . S
N310 C307 1.377 . S
N310 C309 1.344 . S
O311 Co303 2.055 . S
O311 C315 1.253 . S
H312 C308 0.931 . S
H313 C309 0.930 . S
O314 Co303 2.039 . S
O314 C304 1.265 . S
C315 O311 1.253 . S
C315 O316 1.227 . S
O316 C315 1.227 . S
N317 Co303 2.140 . S
N317 C320 1.346 . S
N317 C321 1.345 . S
C318 C319 1.387 . S
C318 C322 1.391 . S
C319 C318 1.387 . S
C319 C320 1.369 . S
C319 H328 0.929 . S
C320 N317 1.346 . S
C320 C319 1.369 . S
C320 H323 0.928 . S
C321 N317 1.345 . S
C321 C322 1.371 . S
C321 H324 0.931 . S
C322 C318 1.391 . S
C322 C321 1.371 . S
C322 H329 0.930 . S
H323 C320 0.928 . S
H324 C321 0.931 . S
H325 C301 0.930 . S
H326 C298 0.930 1_554 S
H327 C307 0.930 . S
H328 C319 0.929 . S
H329 C322 0.930 . S
C330 C331 1.351 . S
C330 N333 1.368 . S
C330 H335 0.931 . S
C331 C330 1.351 . S
C331 N332 1.373 1_556 S
C331 H359 0.930 1_556 S
N332 C331 1.373 1_554 S
N332 C334 1.340 1_554 S
N333 C330 1.368 . S
N333 C334 1.321 . S
N333 Co336 2.135 . S
C334 N332 1.340 1_556 S
C334 N333 1.321 . S
C334 H358 0.930 . S
H335 C330 0.931 . S
Co336 N333 2.135 . S
Co336 N339 2.121 . S
Co336 O344 2.055 . S
Co336 O347 2.039 . S
Co336 N350 2.140 . S
C337 O338 1.227 . S
C337 O347 1.265 . S
O338 C337 1.227 . S
N339 Co336 2.121 . S
N339 C341 1.375 . S
N339 C342 1.313 . S
C340 C341 1.338 . S
C340 N343 1.377 . S
C340 H360 0.930 . S
C341 N339 1.375 . S
C341 C340 1.338 . S
C341 H345 0.931 . S
C342 N339 1.313 . S
C342 N343 1.344 . S
C342 H346 0.930 . S
N343 C340 1.377 . S
N343 C342 1.344 . S
O344 Co336 2.055 . S
O344 C348 1.253 . S
H345 C341 0.931 . S
H346 C342 0.930 . S
O347 Co336 2.039 . S
O347 C337 1.265 . S
C348 O344 1.253 . S
C348 O349 1.227 . S
O349 C348 1.227 . S
N350 Co336 2.140 . S
N350 C353 1.346 . S
N350 C354 1.345 . S
C351 C352 1.387 . S
C351 C355 1.391 . S
C352 C351 1.387 . S
C352 C353 1.369 . S
C352 H361 0.929 . S
C353 N350 1.346 . S
C353 C352 1.369 . S
C353 H356 0.928 . S
C354 N350 1.345 . S
C354 C355 1.371 . S
C354 H357 0.931 . S
C355 C351 1.391 . S
C355 C354 1.371 . S
C355 H362 0.930 . S
H356 C353 0.928 . S
H357 C354 0.931 . S
H358 C334 0.930 . S
H359 C331 0.930 1_554 S
H360 C340 0.930 . S
H361 C352 0.929 . S
H362 C355 0.930 . S
C363 C364 1.351 . S
C363 N366 1.368 . S
C363 H368 0.931 . S
C364 C363 1.351 . S
C364 N365 1.373 1_556 S
C364 H392 0.930 1_556 S
N365 C364 1.373 1_554 S
N365 C367 1.340 1_554 S
N366 C363 1.368 . S
N366 C367 1.321 . S
N366 Co369 2.135 . S
C367 N365 1.340 1_556 S
C367 N366 1.321 . S
C367 H391 0.930 . S
H368 C363 0.931 . S
Co369 N366 2.135 . S
Co369 N372 2.121 . S
Co369 O377 2.055 . S
Co369 O380 2.039 . S
Co369 N383 2.140 . S
C370 O371 1.227 . S
C370 O380 1.265 . S
O371 C370 1.227 . S
N372 Co369 2.121 . S
N372 C374 1.375 . S
N372 C375 1.313 . S
C373 C374 1.338 . S
C373 N376 1.377 . S
C373 H393 0.930 . S
C374 N372 1.375 . S
C374 C373 1.338 . S
C374 H378 0.931 . S
C375 N372 1.313 . S
C375 N376 1.344 . S
C375 H379 0.930 . S
N376 C373 1.377 . S
N376 C375 1.344 . S
O377 Co369 2.055 . S
O377 C381 1.253 . S
H378 C374 0.931 . S
H379 C375 0.930 . S
O380 Co369 2.039 . S
O380 C370 1.265 . S
C381 O377 1.253 . S
C381 O382 1.227 . S
O382 C381 1.227 . S
N383 Co369 2.140 . S
N383 C386 1.346 . S
N383 C387 1.345 . S
C384 C385 1.387 . S
C384 C388 1.391 . S
C385 C384 1.387 . S
C385 C386 1.369 . S
C385 H394 0.929 . S
C386 N383 1.346 . S
C386 C385 1.369 . S
C386 H389 0.928 . S
C387 N383 1.345 . S
C387 C388 1.371 . S
C387 H390 0.931 . S
C388 C384 1.391 . S
C388 C387 1.371 . S
C388 H395 0.930 . S
H389 C386 0.928 . S
H390 C387 0.931 . S
H391 C367 0.930 . S
H392 C364 0.930 1_554 S
H393 C373 0.930 . S
H394 C385 0.929 . S
H395 C388 0.930 . S
C396 C397 1.351 . S
C396 N399 1.368 . S
C396 H401 0.931 . S
C397 C396 1.351 . S
C397 N398 1.373 1_554 S
C397 H425 0.930 1_554 S
N398 C397 1.373 1_556 S
N398 C400 1.340 1_556 S
N399 C396 1.368 . S
N399 C400 1.321 . S
N399 Co402 2.135 . S
C400 N398 1.340 1_554 S
C400 N399 1.321 . S
C400 H424 0.930 . S
H401 C396 0.931 . S
Co402 N399 2.135 . S
Co402 N405 2.121 . S
Co402 O410 2.055 . S
Co402 O413 2.039 . S
Co402 N416 2.140 . S
C403 O404 1.227 . S
C403 O413 1.265 . S
O404 C403 1.227 . S
N405 Co402 2.121 . S
N405 C407 1.375 . S
N405 C408 1.313 . S
C406 C407 1.338 . S
C406 N409 1.377 . S
C406 H426 0.930 . S
C407 N405 1.375 . S
C407 C406 1.338 . S
C407 H411 0.931 . S
C408 N405 1.313 . S
C408 N409 1.344 . S
C408 H412 0.930 . S
N409 C406 1.377 . S
N409 C408 1.344 . S
O410 Co402 2.055 . S
O410 C414 1.253 . S
H411 C407 0.931 . S
H412 C408 0.930 . S
O413 Co402 2.039 . S
O413 C403 1.265 . S
C414 O410 1.253 . S
C414 O415 1.227 . S
O415 C414 1.227 . S
N416 Co402 2.140 . S
N416 C419 1.346 . S
N416 C420 1.345 . S
C417 C418 1.387 . S
C417 C421 1.391 . S
C418 C417 1.387 . S
C418 C419 1.369 . S
C418 H427 0.929 . S
C419 N416 1.346 . S
C419 C418 1.369 . S
C419 H422 0.928 . S
C420 N416 1.345 . S
C420 C421 1.371 . S
C420 H423 0.931 . S
C421 C417 1.391 . S
C421 C420 1.371 . S
C421 H428 0.930 . S
H422 C419 0.928 . S
H423 C420 0.931 . S
H424 C400 0.930 . S
H425 C397 0.930 1_556 S
H426 C406 0.930 . S
H427 C418 0.929 . S
H428 C421 0.930 . S
C429 C430 1.351 . S
C429 N432 1.368 . S
C429 H434 0.931 . S
C430 C429 1.351 . S
C430 N431 1.373 1_554 S
C430 H458 0.930 1_554 S
N431 C430 1.373 1_556 S
N431 C433 1.340 1_556 S
N432 C429 1.368 . S
N432 C433 1.321 . S
N432 Co435 2.135 . S
C433 N431 1.340 1_554 S
C433 N432 1.321 . S
C433 H457 0.930 . S
H434 C429 0.931 . S
Co435 N432 2.135 . S
Co435 N438 2.121 . S
Co435 O443 2.055 . S
Co435 O446 2.039 . S
Co435 N449 2.140 . S
C436 O437 1.227 . S
C436 O446 1.265 . S
O437 C436 1.227 . S
N438 Co435 2.121 . S
N438 C440 1.375 . S
N438 C441 1.313 . S
C439 C440 1.338 . S
C439 N442 1.377 . S
C439 H459 0.930 . S
C440 N438 1.375 . S
C440 C439 1.338 . S
C440 H444 0.931 . S
C441 N438 1.313 . S
C441 N442 1.344 . S
C441 H445 0.930 . S
N442 C439 1.377 . S
N442 C441 1.344 . S
O443 Co435 2.055 . S
O443 C447 1.253 . S
H444 C440 0.931 . S
H445 C441 0.930 . S
O446 Co435 2.039 . S
O446 C436 1.265 . S
C447 O443 1.253 . S
C447 O448 1.227 . S
O448 C447 1.227 . S
N449 Co435 2.140 . S
N449 C452 1.346 . S
N449 C453 1.345 . S
C450 C451 1.387 . S
C450 C454 1.391 . S
C451 C450 1.387 . S
C451 C452 1.369 . S
C451 H460 0.929 . S
C452 N449 1.346 . S
C452 C451 1.369 . S
C452 H455 0.928 . S
C453 N449 1.345 . S
C453 C454 1.371 . S
C453 H456 0.931 . S
C454 C450 1.391 . S
C454 C453 1.371 . S
C454 H461 0.930 . S
H455 C452 0.928 . S
H456 C453 0.931 . S
H457 C433 0.930 . S
H458 C430 0.930 1_556 S
H459 C439 0.930 . S
H460 C451 0.929 . S
H461 C454 0.930 . S
C462 C463 1.351 . S
C462 N465 1.368 . S
C462 H467 0.931 . S
C463 C462 1.351 . S
C463 N464 1.373 1_554 S
C463 H491 0.930 1_554 S
N464 C463 1.373 1_556 S
N464 C466 1.340 1_556 S
N465 C462 1.368 . S
N465 C466 1.321 . S
N465 Co468 2.135 . S
C466 N464 1.340 1_554 S
C466 N465 1.321 . S
C466 H490 0.930 . S
H467 C462 0.931 . S
Co468 N465 2.135 . S
Co468 N471 2.121 . S
Co468 O476 2.055 . S
Co468 O479 2.039 . S
Co468 N482 2.140 . S
C469 O470 1.227 . S
C469 O479 1.265 . S
O470 C469 1.227 . S
N471 Co468 2.121 . S
N471 C473 1.375 . S
N471 C474 1.313 . S
C472 C473 1.338 . S
C472 N475 1.377 . S
C472 H492 0.930 . S
C473 N471 1.375 . S
C473 C472 1.338 . S
C473 H477 0.931 . S
C474 N471 1.313 . S
C474 N475 1.344 . S
C474 H478 0.930 . S
N475 C472 1.377 . S
N475 C474 1.344 . S
O476 Co468 2.055 . S
O476 C480 1.253 . S
H477 C473 0.931 . S
H478 C474 0.930 . S
O479 Co468 2.039 . S
O479 C469 1.265 . S
C480 O476 1.253 . S
C480 O481 1.227 . S
O481 C480 1.227 . S
N482 Co468 2.140 . S
N482 C485 1.346 . S
N482 C486 1.345 . S
C483 C484 1.387 . S
C483 C487 1.391 . S
C484 C483 1.387 . S
C484 C485 1.369 . S
C484 H493 0.929 . S
C485 N482 1.346 . S
C485 C484 1.369 . S
C485 H488 0.928 . S
C486 N482 1.345 . S
C486 C487 1.371 . S
C486 H489 0.931 . S
C487 C483 1.391 . S
C487 C486 1.371 . S
C487 H494 0.930 . S
H488 C485 0.928 . S
H489 C486 0.931 . S
H490 C466 0.930 . S
H491 C463 0.930 1_556 S
H492 C472 0.930 . S
H493 C484 0.929 . S
H494 C487 0.930 . S
C495 C496 1.351 . S
C495 N498 1.368 . S
C495 H500 0.931 . S
C496 C495 1.351 . S
C496 N497 1.373 1_554 S
C496 H524 0.930 1_554 S
N497 C496 1.373 1_556 S
N497 C499 1.340 1_556 S
N498 C495 1.368 . S
N498 C499 1.321 . S
N498 Co501 2.135 . S
C499 N497 1.340 1_554 S
C499 N498 1.321 . S
C499 H523 0.930 . S
H500 C495 0.931 . S
Co501 N498 2.135 . S
Co501 N504 2.121 . S
Co501 O509 2.055 . S
Co501 O512 2.039 . S
Co501 N515 2.140 . S
C502 O503 1.227 . S
C502 O512 1.265 . S
O503 C502 1.227 . S
N504 Co501 2.121 . S
N504 C506 1.375 . S
N504 C507 1.313 . S
C505 C506 1.338 . S
C505 N508 1.377 . S
C505 H525 0.930 . S
C506 N504 1.375 . S
C506 C505 1.338 . S
C506 H510 0.931 . S
C507 N504 1.313 . S
C507 N508 1.344 . S
C507 H511 0.930 . S
N508 C505 1.377 . S
N508 C507 1.344 . S
O509 Co501 2.055 . S
O509 C513 1.253 . S
H510 C506 0.931 . S
H511 C507 0.930 . S
O512 Co501 2.039 . S
O512 C502 1.265 . S
C513 O509 1.253 . S
C513 O514 1.227 . S
O514 C513 1.227 . S
N515 Co501 2.140 . S
N515 C518 1.346 . S
N515 C519 1.345 . S
C516 C517 1.387 . S
C516 C520 1.391 . S
C517 C516 1.387 . S
C517 C518 1.369 . S
C517 H526 0.929 . S
C518 N515 1.346 . S
C518 C517 1.369 . S
C518 H521 0.928 . S
C519 N515 1.345 . S
C519 C520 1.371 . S
C519 H522 0.931 . S
C520 C516 1.391 . S
C520 C519 1.371 . S
C520 H527 0.930 . S
H521 C518 0.928 . S
H522 C519 0.931 . S
H523 C499 0.930 . S
H524 C496 0.930 1_556 S
H525 C505 0.930 . S
H526 C517 0.929 . S
H527 C520 0.930 . S
N13 N2 2.060 . S
N46 N35 2.060 . S
N68 N79 2.060 . S
N101 N112 2.060 . S
N145 N134 2.060 . S
N167 N178 2.060 . S
N200 N211 2.060 . S
N233 N244 2.060 . S
N277 N266 2.060 . S
N310 N299 2.060 . S
N343 N332 2.060 . S
N376 N365 2.060 . S
N398 N409 2.060 . S
N431 N442 2.060 . S
N464 N475 2.060 . S
N497 N508 2.060 . S
C7 C502 1.649 . S
C403 C40 1.649 . S
C436 C73 1.649 . S
C469 C106 1.649 . S
C304 C139 1.649 . S
C172 C337 1.649 . S
C205 C370 1.649 . S
C271 C238 1.649 . S
C18 C150 1.163 1_544 S
C183 C51 1.163 1_456 S
C84 C216 1.163 1_564 S
C249 C117 1.163 1_656 S
C414 C282 1.163 . S
C315 C447 1.163 . S
C348 C480 1.163 . S
C381 C513 1.163 . S
C21 C186 1.782 1_554 S
C54 C219 1.782 1_554 S
C252 C87 1.782 1_556 S
C120 C153 1.782 1_554 S
C450 C285 1.782 . S
C318 C483 1.782 . S
C516 C351 1.782 . S
C417 C384 1.782 . S
