# Generated by pormake.
# Topology uol, (4)-cn, num edge types: 1
# Building blocks:
#     Node 0, Type 0, BuildingBlock: QUQFOY_clean_sbu_3, # of connection points: 4
#     Node 1, Type 0, BuildingBlock: QUQFOY_clean_sbu_3, # of connection points: 4
#     Node 2, Type 0, BuildingBlock: QUQFOY_clean_sbu_3, # of connection points: 4
#     Node 3, Type 0, BuildingBlock: QUQFOY_clean_sbu_3, # of connection points: 4
#     Node 4, Type 0, BuildingBlock: QUQFOY_clean_sbu_3, # of connection points: 4
#     Node 5, Type 0, BuildingBlock: QUQFOY_clean_sbu_3, # of connection points: 4
#     Node 6, Type 0, BuildingBlock: QUQFOY_clean_sbu_3, # of connection points: 4
#     Node 7, Type 0, BuildingBlock: QUQFOY_clean_sbu_3, # of connection points: 4
#     Node 8, Type 0, BuildingBlock: QUQFOY_clean_sbu_3, # of connection points: 4
#     Node 9, Type 0, BuildingBlock: QUQFOY_clean_sbu_3, # of connection points: 4
#     Node 10, Type 0, BuildingBlock: QUQFOY_clean_sbu_3, # of connection points: 4
#     Node 11, Type 0, BuildingBlock: QUQFOY_clean_sbu_3, # of connection points: 4
#     Edge 12, Type (0, 0), BuildingBlock: XUDNAN_clean_linker_2, # of connection points: 2
#     Edge 13, Type (0, 0), BuildingBlock: XUDNAN_clean_linker_2, # of connection points: 2
#     Edge 14, Type (0, 0), BuildingBlock: XUDNAN_clean_linker_2, # of connection points: 2
#     Edge 15, Type (0, 0), BuildingBlock: XUDNAN_clean_linker_2, # of connection points: 2
#     Edge 16, Type (0, 0), BuildingBlock: XUDNAN_clean_linker_2, # of connection points: 2
#     Edge 17, Type (0, 0), BuildingBlock: XUDNAN_clean_linker_2, # of connection points: 2
#     Edge 18, Type (0, 0), BuildingBlock: XUDNAN_clean_linker_2, # of connection points: 2
#     Edge 19, Type (0, 0), BuildingBlock: XUDNAN_clean_linker_2, # of connection points: 2
#     Edge 20, Type (0, 0), BuildingBlock: XUDNAN_clean_linker_2, # of connection points: 2
#     Edge 21, Type (0, 0), BuildingBlock: XUDNAN_clean_linker_2, # of connection points: 2
#     Edge 22, Type (0, 0), BuildingBlock: XUDNAN_clean_linker_2, # of connection points: 2
#     Edge 23, Type (0, 0), BuildingBlock: XUDNAN_clean_linker_2, # of connection points: 2
#     Edge 24, Type (0, 0), BuildingBlock: XUDNAN_clean_linker_2, # of connection points: 2
#     Edge 25, Type (0, 0), BuildingBlock: XUDNAN_clean_linker_2, # of connection points: 2
#     Edge 26, Type (0, 0), BuildingBlock: XUDNAN_clean_linker_2, # of connection points: 2
#     Edge 27, Type (0, 0), BuildingBlock: XUDNAN_clean_linker_2, # of connection points: 2
#     Edge 28, Type (0, 0), BuildingBlock: XUDNAN_clean_linker_2, # of connection points: 2
#     Edge 29, Type (0, 0), BuildingBlock: XUDNAN_clean_linker_2, # of connection points: 2
#     Edge 30, Type (0, 0), BuildingBlock: XUDNAN_clean_linker_2, # of connection points: 2
#     Edge 31, Type (0, 0), BuildingBlock: XUDNAN_clean_linker_2, # of connection points: 2
#     Edge 32, Type (0, 0), BuildingBlock: XUDNAN_clean_linker_2, # of connection points: 2
#     Edge 33, Type (0, 0), BuildingBlock: XUDNAN_clean_linker_2, # of connection points: 2
#     Edge 34, Type (0, 0), BuildingBlock: XUDNAN_clean_linker_2, # of connection points: 2
#     Edge 35, Type (0, 0), BuildingBlock: XUDNAN_clean_linker_2, # of connection points: 2
# Relax obj value: 0.116
# Max RMSD: 0.171
# Mean RMSD: 0.171
data_MOF--net-uol--node1-QUQFOY_clean_sbu_3--edge1-XUDNAN_clean_linker_2
_symmetry_space_group_name_H-M    P1
_symmetry_Int_Tables_number       1
_symmetry_cell_setting            triclinic
loop_
_symmetry_equiv_pos_as_xyz
'x, y, z'
_cell_length_a     34.278528
_cell_length_b     33.867707
_cell_length_c     67.719893
_cell_angle_alpha  90.196766
_cell_angle_beta   89.817429
_cell_angle_gamma 120.10017
loop_
_atom_site_label
_atom_site_type_symbol
_atom_site_fract_x
_atom_site_fract_y
_atom_site_fract_z
_atom_type_partial_charge
C0 C 0.10507 0.27399 0.05477 0.0
O1 O 0.07457 0.23426 0.05998 0.0
Cd2 Cd 0.04355 0.22414 0.09301 0.0
O3 O 0.11434 0.30828 0.06542 0.0
Cd4 Cd 0.09643 0.33503 0.09425 0.0
C5 C 0.14858 0.28734 0.11599 0.0
O6 O 0.01952 0.27913 0.09769 0.0
O7 O 0.04794 0.32707 0.12184 0.0
O8 O 0.09745 0.39334 0.07485 0.0
C9 C 0.01458 0.29138 0.11483 0.0
O10 O 0.11421 0.24884 0.11172 0.0
C11 C 0.12685 0.4241 0.08601 0.0
O12 O 0.15091 0.32461 0.11134 0.0
O13 O 0.14241 0.41212 0.10033 0.0
C14 C 0.83275 0.11455 0.22769 0.0
O15 O 0.83259 0.07984 0.23515 0.0
Cd16 Cd 0.79916 0.0444 0.26652 0.0
O17 O 0.80934 0.13064 0.23504 0.0
Cd18 Cd 0.75347 0.11871 0.26059 0.0
C19 C 0.83324 0.15558 0.28788 0.0
O20 O 0.72771 0.03754 0.26604 0.0
O21 O 0.70208 0.06911 0.28566 0.0
O22 O 0.69746 0.11608 0.2387 0.0
C23 C 0.70814 0.03578 0.28219 0.0
O24 O 0.82129 0.11692 0.28044 0.0
C25 C 0.69551 0.14752 0.24819 0.0
O26 O 0.80863 0.17284 0.28474 0.0
O27 O 0.72544 0.16923 0.26117 0.0
C28 C 0.69532 0.83553 0.38858 0.0
O29 O 0.72685 0.82713 0.39178 0.0
Cd30 Cd 0.73009 0.80978 0.4259 0.0
O31 O 0.66273 0.82227 0.40058 0.0
Cd32 Cd 0.62908 0.76631 0.42659 0.0
C33 C 0.67117 0.86071 0.44757 0.0
O34 O 0.67561 0.73238 0.43173 0.0
O35 O 0.64241 0.74024 0.45744 0.0
O36 O 0.58293 0.71533 0.40271 0.0
C37 C 0.66632 0.72503 0.44996 0.0
O38 O 0.70726 0.85973 0.4438 0.0
C39 C 0.5467 0.70306 0.41224 0.0
O40 O 0.63274 0.82852 0.44263 0.0
O41 O 0.54906 0.72231 0.42871 0.0
C42 C 0.84585 0.70242 0.55531 0.0
O43 O 0.87812 0.74072 0.56099 0.0
Cd44 Cd 0.90697 0.74964 0.59325 0.0
O45 O 0.83111 0.66664 0.56586 0.0
Cd46 Cd 0.84054 0.63156 0.5959 0.0
C47 C 0.79991 0.67632 0.61788 0.0
O48 O 0.92038 0.68857 0.59853 0.0
O49 O 0.89433 0.64088 0.6225 0.0
O50 O 0.84153 0.57939 0.57324 0.0
C51 C 0.92693 0.6771 0.61547 0.0
O52 O 0.83708 0.70144 0.60928 0.0
C53 C 0.81847 0.54607 0.58468 0.0
O54 O 0.78291 0.63362 0.61674 0.0
O55 O 0.8009 0.55258 0.59996 0.0
C56 C 0.12777 0.86344 0.72266 0.0
O57 O 0.13298 0.90104 0.72912 0.0
Cd58 Cd 0.15556 0.92106 0.76281 0.0
O59 O 0.14415 0.84279 0.732 0.0
Cd60 Cd 0.19682 0.86233 0.75922 0.0
C61 C 0.11121 0.80947 0.78393 0.0
O62 O 0.23156 0.94337 0.7682 0.0
O63 O 0.22007 0.89418 0.79119 0.0
O64 O 0.26099 0.8784 0.74007 0.0
C65 C 0.23826 0.93553 0.78583 0.0
O66 O 0.11483 0.84803 0.78004 0.0
C67 C 0.26326 0.84518 0.74736 0.0
O68 O 0.13953 0.79947 0.77707 0.0
O69 O 0.23351 0.81938 0.7597 0.0
C70 C 0.25796 0.14132 0.88861 0.0
O71 O 0.22005 0.13796 0.89215 0.0
Cd72 Cd 0.21875 0.16158 0.92595 0.0
O73 O 0.29094 0.16379 0.9 0.0
Cd74 Cd 0.32337 0.21285 0.92703 0.0
C75 C 0.28239 0.1154 0.94659 0.0
O76 O 0.27229 0.24102 0.93136 0.0
O77 O 0.30801 0.23746 0.95721 0.0
O78 O 0.37542 0.26611 0.90482 0.0
C79 C 0.28396 0.25174 0.94925 0.0
O80 O 0.24569 0.11619 0.9445 0.0
C81 C 0.40876 0.27693 0.91615 0.0
O82 O 0.31951 0.14707 0.94007 0.0
O83 O 0.40188 0.2576 0.93285 0.0
C84 C 0.69757 0.86389 0.75897 0.0
O85 O 0.73532 0.89967 0.75581 0.0
Cd86 Cd 0.74128 0.93356 0.72324 0.0
O87 O 0.66416 0.85377 0.74804 0.0
Cd88 Cd 0.62779 0.86764 0.72228 0.0
C89 C 0.682 0.82565 0.6991 0.0
O90 O 0.68069 0.94639 0.71476 0.0
O91 O 0.62887 0.9068 0.69328 0.0
O92 O 0.57123 0.86815 0.74199 0.0
C93 C 0.66583 0.94267 0.69721 0.0
O94 O 0.71637 0.86415 0.70348 0.0
C95 C 0.53964 0.83643 0.73193 0.0
O96 O 0.6426 0.81487 0.70484 0.0
O97 O 0.54999 0.81695 0.71852 0.0
C98 C 0.8181 0.70926 0.92799 0.0
O99 O 0.8114 0.74143 0.92305 0.0
Cd100 Cd 0.79525 0.74005 0.88873 0.0
O101 O 0.80354 0.67404 0.91728 0.0
Cd102 Cd 0.75556 0.64426 0.88889 0.0
C103 C 0.84823 0.68096 0.86902 0.0
O104 O 0.7198 0.68888 0.87938 0.0
O105 O 0.74111 0.65973 0.85609 0.0
O106 O 0.69293 0.58634 0.90625 0.0
C107 C 0.71818 0.67797 0.8613 0.0
O108 O 0.84406 0.71602 0.87184 0.0
C109 C 0.69037 0.55584 0.89445 0.0
O110 O 0.81889 0.64254 0.87563 0.0
O111 O 0.71999 0.56728 0.88106 0.0
C112 C 0.10216 0.83789 0.08856 0.0
O113 O 0.06674 0.83728 0.08259 0.0
Cd114 Cd 0.04318 0.81606 0.04895 0.0
O115 O 0.11937 0.81799 0.07907 0.0
Cd116 Cd 0.10052 0.76399 0.05207 0.0
C117 C 0.1511 0.85561 0.02668 0.0
O118 O 0.02239 0.73838 0.04744 0.0
O119 O 0.054 0.71804 0.02539 0.0
O120 O 0.10271 0.7149 0.0757 0.0
C121 C 0.01959 0.71979 0.03085 0.0
O122 O 0.11655 0.85875 0.03135 0.0
C123 C 0.12646 0.70489 0.06461 0.0
O124 O 0.15465 0.82171 0.03182 0.0
O125 O 0.13927 0.72409 0.04793 0.0
C126 C 0.25279 0.11783 0.25486 0.0
O127 O 0.21812 0.08597 0.24642 0.0
Cd128 Cd 0.21666 0.05722 0.21402 0.0
O129 O 0.29179 0.13359 0.24733 0.0
Cd130 Cd 0.32478 0.11493 0.21925 0.0
C131 C 0.28441 0.16417 0.19195 0.0
O132 O 0.27216 0.03566 0.21437 0.0
O133 O 0.31566 0.07055 0.18975 0.0
O134 O 0.37524 0.1115 0.24161 0.0
C135 C 0.28418 0.03368 0.19688 0.0
O136 O 0.24669 0.12731 0.19403 0.0
C137 C 0.40957 0.13529 0.2309 0.0
O138 O 0.31984 0.17078 0.20065 0.0
O139 O 0.40464 0.15132 0.21479 0.0
C140 C 0.13958 0.27385 0.4279 0.0
O141 O 0.13454 0.23595 0.42208 0.0
Cd142 Cd 0.15549 0.23056 0.38902 0.0
O143 O 0.1587 0.30902 0.41714 0.0
Cd144 Cd 0.19658 0.33919 0.38683 0.0
C145 C 0.1024 0.28505 0.36506 0.0
O146 O 0.22881 0.29111 0.38117 0.0
O147 O 0.22817 0.33011 0.35624 0.0
O148 O 0.25256 0.39617 0.40662 0.0
C149 C 0.23789 0.30133 0.36305 0.0
O150 O 0.10974 0.25226 0.36857 0.0
C151 C 0.25894 0.42731 0.3945 0.0
O152 O 0.12697 0.32431 0.37249 0.0
O153 O 0.23266 0.41736 0.37982 0.0
C154 C 0.84665 0.14305 0.59 0.0
O155 O 0.88774 0.15528 0.58735 0.0
Cd156 Cd 0.90577 0.16895 0.55296 0.0
O157 O 0.82533 0.15164 0.57709 0.0
Cd158 Cd 0.85058 0.21025 0.55211 0.0
C159 C 0.79979 0.12219 0.52824 0.0
O160 O 0.93151 0.24698 0.54729 0.0
O161 O 0.89021 0.23597 0.52151 0.0
O162 O 0.85314 0.25993 0.57616 0.0
C163 C 0.92922 0.25361 0.52905 0.0
O164 O 0.83472 0.12059 0.53366 0.0
C165 C 0.83099 0.27344 0.56604 0.0
O166 O 0.79437 0.15519 0.53296 0.0
O167 O 0.81555 0.25494 0.54937 0.0
H168 H 0.10982 0.63207 0.04241 0.0
H169 H 0.15954 0.6971 0.09935 0.0
H170 H 0.16887 0.63254 0.10983 0.0
H171 H 0.04385 0.51886 0.06181 0.0
H172 H 0.05434 0.49096 0.04149 0.0
H173 H 0.05454 0.54356 0.03749 0.0
H174 H 0.13491 0.58 0.02268 0.0
H175 H 0.13494 0.52743 0.02652 0.0
H176 H 0.17947 0.57995 0.03673 0.0
H177 H 0.17273 0.56429 0.11428 0.0
H178 H 0.16587 0.48878 0.11414 0.0
H179 H 0.10928 0.46395 0.05491 0.0
C180 C 0.12349 0.63269 0.0569 0.0
C181 C 0.1351 0.66911 0.07013 0.0
C182 C 0.15127 0.66918 0.08919 0.0
C183 C 0.15655 0.63292 0.09518 0.0
C184 C 0.14459 0.59714 0.08193 0.0
C185 C 0.12787 0.59616 0.06326 0.0
C186 C 0.11494 0.55185 0.05255 0.0
C187 C 0.06392 0.52472 0.0481 0.0
C188 C 0.14274 0.56035 0.0335 0.0
C189 C 0.12809 0.52883 0.0682 0.0
C190 C 0.1452 0.55587 0.08487 0.0
C191 C 0.15961 0.54261 0.10138 0.0
C192 C 0.15596 0.49992 0.10106 0.0
C193 C 0.13739 0.47109 0.08444 0.0
C194 C 0.12386 0.48579 0.06769 0.0
H195 H 0.62203 0.10233 0.22392 0.0
H196 H 0.67493 0.1966 0.2735 0.0
H197 H 0.60201 0.1927 0.27736 0.0
H198 H 0.56622 0.14695 0.20143 0.0
H199 H 0.51608 0.09509 0.1942 0.0
H200 H 0.56802 0.09513 0.19774 0.0
H201 H 0.5301 0.02983 0.22329 0.0
H202 H 0.47756 0.02857 0.21921 0.0
H203 H 0.49977 0.03552 0.24384 0.0
H204 H 0.5303 0.1891 0.27341 0.0
H205 H 0.46042 0.18519 0.26139 0.0
H206 H 0.4531 0.09632 0.21355 0.0
C207 C 0.61804 0.12205 0.23556 0.0
C208 C 0.65422 0.15025 0.24822 0.0
C209 C 0.64793 0.17539 0.2634 0.0
C210 C 0.60632 0.17261 0.26601 0.0
C211 C 0.5714 0.1448 0.25329 0.0
C212 C 0.57644 0.11961 0.23837 0.0
C213 C 0.53488 0.09687 0.22529 0.0
C214 C 0.54705 0.10931 0.20338 0.0
C215 C 0.50908 0.04464 0.22809 0.0
C216 C 0.50857 0.11802 0.23389 0.0
C217 C 0.52932 0.14361 0.25059 0.0
C218 C 0.5131 0.16851 0.26063 0.0
C219 C 0.47406 0.16675 0.2536 0.0
C220 C 0.45269 0.14108 0.23659 0.0
C221 C 0.46986 0.11655 0.22652 0.0
H222 H 0.46569 0.66029 0.43167 0.0
H223 H 0.53429 0.65662 0.37808 0.0
H224 H 0.46857 0.58314 0.36909 0.0
H225 H 0.40994 0.54015 0.44254 0.0
H226 H 0.35788 0.53601 0.45061 0.0
H227 H 0.41028 0.58881 0.4536 0.0
H228 H 0.378 0.63182 0.43413 0.0
H229 H 0.32537 0.57927 0.43127 0.0
H230 H 0.35491 0.61218 0.40983 0.0
H231 H 0.39748 0.51248 0.36532 0.0
H232 H 0.31945 0.44766 0.36598 0.0
H233 H 0.29616 0.49443 0.42214 0.0
C234 C 0.4665 0.64419 0.41794 0.0
C235 C 0.50489 0.66373 0.40558 0.0
C236 C 0.5051 0.64199 0.38774 0.0
C237 C 0.46819 0.60013 0.38259 0.0
C238 C 0.43146 0.58099 0.39536 0.0
C239 C 0.42977 0.6023 0.41255 0.0
C240 C 0.38502 0.57461 0.42316 0.0
C241 C 0.39118 0.55897 0.44368 0.0
C242 C 0.35934 0.60105 0.42467 0.0
C243 C 0.36201 0.53491 0.40899 0.0
C244 C 0.38963 0.53934 0.39317 0.0
C245 C 0.3754 0.5085 0.37755 0.0
C246 C 0.33118 0.47243 0.37791 0.0
C247 C 0.30254 0.46778 0.39385 0.0
C248 C 0.31796 0.49847 0.40975 0.0
H249 H 0.81903 0.49784 0.55261 0.0
H250 H 0.83916 0.51301 0.61603 0.0
H251 H 0.85992 0.45364 0.61629 0.0
H252 H 0.761 0.38584 0.55156 0.0
H253 H 0.78396 0.37501 0.52957 0.0
H254 H 0.78551 0.42846 0.53246 0.0
H255 H 0.87237 0.47292 0.5277 0.0
H256 H 0.87075 0.41937 0.52409 0.0
H257 H 0.90707 0.45885 0.54265 0.0
H258 H 0.85856 0.38392 0.61219 0.0
H259 H 0.84276 0.3072 0.60297 0.0
H260 H 0.82131 0.33228 0.54213 0.0
C261 C 0.82828 0.4885 0.56637 0.0
C262 C 0.8263 0.50819 0.58434 0.0
C263 C 0.83896 0.49654 0.60224 0.0
C264 C 0.85201 0.46392 0.60245 0.0
C265 C 0.8517 0.44326 0.58468 0.0
C266 C 0.84059 0.4551 0.56684 0.0
C267 C 0.8351 0.42188 0.5506 0.0
C268 C 0.78864 0.40161 0.54049 0.0
C269 C 0.87362 0.4446 0.53538 0.0
C270 C 0.83923 0.38682 0.56286 0.0
C271 C 0.85075 0.40104 0.58222 0.0
C272 C 0.85131 0.37285 0.59697 0.0
C273 C 0.8414 0.32917 0.59172 0.0
C274 C 0.83116 0.31453 0.57193 0.0
C275 C 0.82918 0.34314 0.55738 0.0
H276 H 0.51498 0.89671 0.74437 0.0
H277 H 0.46238 0.75994 0.72069 0.0
H278 H 0.3861 0.75055 0.71937 0.0
H279 H 0.42664 0.87542 0.77526 0.0
H280 H 0.4262 0.92756 0.7706 0.0
H281 H 0.47766 0.92613 0.76785 0.0
H282 H 0.48676 0.95446 0.73183 0.0
H283 H 0.43626 0.95782 0.73472 0.0
H284 H 0.44076 0.92511 0.71472 0.0
H285 H 0.31592 0.75216 0.72437 0.0
H286 H 0.25428 0.76716 0.73284 0.0
H287 H 0.35252 0.90474 0.751 0.0
C288 C 0.48724 0.86466 0.73909 0.0
C289 C 0.49384 0.82852 0.73309 0.0
C290 C 0.45741 0.78755 0.72568 0.0
C291 C 0.41431 0.78219 0.72465 0.0
C292 C 0.40884 0.81848 0.73073 0.0
C293 C 0.44437 0.85928 0.73751 0.0
C294 C 0.42903 0.89234 0.74381 0.0
C295 C 0.44052 0.90611 0.76567 0.0
C296 C 0.4494 0.93491 0.73046 0.0
C297 C 0.37871 0.86243 0.74044 0.0
C298 C 0.36803 0.8202 0.73276 0.0
C299 C 0.32366 0.78536 0.72985 0.0
C300 C 0.28906 0.79395 0.73475 0.0
C301 C 0.29947 0.83715 0.74201 0.0
C302 C 0.3445 0.87189 0.74489 0.0
H303 H 0.47051 0.34541 0.93897 0.0
H304 H 0.44535 0.28727 0.87999 0.0
H305 H 0.51856 0.35098 0.86879 0.0
H306 H 0.516 0.4591 0.9232 0.0
H307 H 0.5576 0.48431 0.94245 0.0
H308 H 0.50618 0.43144 0.94685 0.0
H309 H 0.55224 0.39283 0.9567 0.0
H310 H 0.60381 0.44577 0.95245 0.0
H311 H 0.594 0.39458 0.93992 0.0
H312 H 0.59015 0.42098 0.86344 0.0
H313 H 0.65836 0.49696 0.86376 0.0
H314 H 0.63591 0.51265 0.92578 0.0
C315 C 0.48129 0.34582 0.92387 0.0
C316 C 0.45345 0.31183 0.91026 0.0
C317 C 0.46701 0.31337 0.89046 0.0
C318 C 0.50829 0.34915 0.88405 0.0
C319 C 0.5348 0.3829 0.89765 0.0
C320 C 0.52203 0.38187 0.91715 0.0
C321 C 0.55512 0.42473 0.92818 0.0
C322 C 0.53237 0.45145 0.93559 0.0
C323 C 0.57761 0.41379 0.94532 0.0
C324 C 0.58831 0.44968 0.91171 0.0
C325 C 0.57602 0.4247 0.89434 0.0
C326 C 0.60063 0.44077 0.87695 0.0
C327 C 0.63929 0.48369 0.87731 0.0
C328 C 0.6522 0.50981 0.89489 0.0
C329 C 0.62658 0.49279 0.91227 0.0
H330 H 0.24991 0.21778 0.20072 0.0
H331 H 0.32151 0.18889 0.15551 0.0
H332 H 0.31163 0.23952 0.13233 0.0
H333 H 0.16682 0.20521 0.17365 0.0
H334 H 0.15875 0.2498 0.18388 0.0
H335 H 0.18475 0.22546 0.19848 0.0
H336 H 0.25433 0.30586 0.20389 0.0
H337 H 0.2283 0.33055 0.18916 0.0
H338 H 0.28382 0.34095 0.18293 0.0
H339 H 0.27468 0.27119 0.11221 0.0
H340 H 0.21529 0.2821 0.097 0.0
H341 H 0.16855 0.29393 0.15489 0.0
C342 C 0.26513 0.22414 0.18618 0.0
C343 C 0.28654 0.20033 0.17966 0.0
C344 C 0.30546 0.20771 0.16059 0.0
C345 C 0.30026 0.23663 0.14746 0.0
C346 C 0.27679 0.25825 0.15391 0.0
C347 C 0.2602 0.25302 0.17303 0.0
C348 C 0.22884 0.27223 0.1753 0.0
C349 C 0.1821 0.23602 0.18327 0.0
C350 C 0.25011 0.31494 0.18859 0.0
C351 C 0.22633 0.28439 0.154 0.0
C352 C 0.25551 0.27768 0.14202 0.0
C353 C 0.25305 0.27825 0.12145 0.0
C354 C 0.219 0.28393 0.11292 0.0
C355 C 0.188 0.2888 0.12497 0.0
C356 C 0.1928 0.29105 0.1456 0.0
H357 H 0.86718 0.22198 0.31734 0.0
H358 H 0.90383 0.15021 0.27454 0.0
H359 H -0.01816 0.19189 0.28587 0.0
H360 H -0.0191 0.33347 0.31811 0.0
H361 H -0.02147 0.33935 0.34447 0.0
H362 H 0.92725 0.31254 0.33022 0.0
H363 H 0.89571 0.24087 0.35232 0.0
H364 H 0.94662 0.26749 0.36666 0.0
H365 H 0.92786 0.21249 0.35547 0.0
H366 H 0.05098 0.23042 0.30299 0.0
H367 H 0.10676 0.25488 0.32949 0.0
H368 H 0.03083 0.30196 0.36389 0.0
C369 C 0.89222 0.21631 0.31013 0.0
C370 C 0.87976 0.18319 0.29501 0.0
C371 C 0.91271 0.17535 0.28618 0.0
C372 C 0.95735 0.19942 0.2923 0.0
C373 C 0.96887 0.23138 0.30734 0.0
C374 C 0.93745 0.23968 0.31647 0.0
C375 C 0.9579 0.26981 0.33465 0.0
C376 C 0.96138 0.31656 0.33168 0.0
C377 C 0.9304 0.24624 0.35337 0.0
C378 C 0.00446 0.27393 0.3349 0.0
C379 C 0.0102 0.25311 0.31837 0.0
C380 C 0.04741 0.24741 0.31585 0.0
C381 C 0.0787 0.26098 0.33104 0.0
C382 C 0.07243 0.2795 0.34862 0.0
C383 C 0.03616 0.28817 0.35036 0.0
H384 H 0.76032 0.03177 0.53462 0.0
H385 H 0.76453 0.13254 0.49417 0.0
H386 H 0.71502 0.07115 0.47096 0.0
H387 H 0.77398 0.96752 0.5022 0.0
H388 H 0.7364 0.91249 0.51285 0.0
H389 H 0.76096 0.96232 0.52821 0.0
H390 H 0.6811 0.94412 0.53953 0.0
H391 H 0.65633 0.89383 0.52415 0.0
H392 H 0.63944 0.93603 0.52135 0.0
H393 H 0.68241 0.00272 0.44947 0.0
H394 H 0.66759 0.93226 0.43181 0.0
H395 H 0.68226 0.87543 0.48653 0.0
C396 C 0.74937 0.04038 0.52113 0.0
C397 C 0.76586 0.0861 0.5159 0.0
C398 C 0.75164 0.0972 0.49826 0.0
C399 C 0.72334 0.06263 0.48514 0.0
C400 C 0.70872 0.01744 0.49033 0.0
C401 C 0.72055 0.00618 0.50815 0.0
C402 C 0.7063 0.95612 0.50907 0.0
C403 C 0.7468 0.94928 0.51331 0.0
C404 C 0.66854 0.93106 0.52443 0.0
C405 C 0.68874 0.94199 0.48829 0.0
C406 C 0.68896 0.97733 0.47788 0.0
C407 C 0.68051 0.97433 0.4576 0.0
C408 C 0.67258 0.93462 0.44767 0.0
C409 C 0.6739 0.89933 0.45811 0.0
C410 C 0.68065 0.90229 0.47858 0.0
H411 H 0.73676 0.64534 0.64853 0.0
H412 H 0.81136 0.75701 0.60735 0.0
H413 H 0.77592 0.79762 0.62103 0.0
H414 H 0.63184 0.65546 0.6514 0.0
H415 H 0.62533 0.64589 0.67766 0.0
H416 H 0.65003 0.61958 0.66294 0.0
H417 H 0.72101 0.65579 0.68508 0.0
H418 H 0.69602 0.68127 0.70004 0.0
H419 H 0.75093 0.71657 0.68924 0.0
H420 H 0.73863 0.82865 0.63796 0.0
H421 H 0.71352 0.86032 0.66413 0.0
H422 H 0.66377 0.73529 0.69795 0.0
C423 C 0.7444 0.67781 0.64222 0.0
C424 C 0.77602 0.69775 0.6266 0.0
C425 C 0.78693 0.74096 0.61913 0.0
C426 C 0.76654 0.76414 0.62666 0.0
C427 C 0.73522 0.74387 0.64173 0.0
C428 C 0.72466 0.70235 0.64998 0.0
C429 C 0.69487 0.69286 0.66823 0.0
C430 C 0.64774 0.65099 0.66485 0.0
C431 C 0.71706 0.68627 0.68673 0.0
C432 C 0.69298 0.73708 0.66921 0.0
C433 C 0.71489 0.76435 0.65307 0.0
C434 C 0.72113 0.80784 0.65063 0.0
C435 C 0.70693 0.82561 0.66558 0.0
C436 C 0.6873 0.80033 0.68288 0.0
C437 C 0.67839 0.75478 0.6846 0.0
H438 H 0.89264 0.74686 0.84281 0.0
H439 H 0.88653 0.62487 0.86618 0.0
H440 H 0.95255 0.63968 0.84513 0.0
H441 H 0.92694 0.74389 0.79323 0.0
H442 H 0.96291 0.80503 0.79297 0.0
H443 H 0.91312 0.7794 0.80814 0.0
H444 H 0.96286 0.82174 0.83866 0.0
H445 H 0.01286 0.84618 0.82365 0.0
H446 H 0.009 0.8131 0.8451 0.0
H447 H 0.02663 0.67608 0.8219 0.0
H448 H 0.09259 0.72582 0.80038 0.0
H449 H 0.04311 0.82088 0.79541 0.0
C450 C 0.90477 0.72289 0.84355 0.0
C451 C 0.88516 0.68538 0.8563 0.0
C452 C 0.9016 0.6543 0.85652 0.0
C453 C 0.93895 0.66243 0.84461 0.0
C454 C 0.95864 0.70138 0.83262 0.0
C455 C 0.94132 0.7306 0.8321 0.0
C456 C 0.96898 0.77213 0.81974 0.0
C457 C 0.94134 0.77522 0.8025 0.0
C458 C -0.01037 0.81581 0.83254 0.0
C459 C 0.00439 0.76175 0.81272 0.0
C460 C -0.00098 0.72131 0.82018 0.0
C461 C 0.03047 0.70744 0.81591 0.0
C462 C 0.06777 0.73579 0.80371 0.0
C463 C 0.07284 0.77721 0.79618 0.0
C464 C 0.04046 0.78954 0.80079 0.0
H465 H 0.17969 0.94411 0.0319 0.0
H466 H 0.20581 0.85141 -0.00216 0.0
H467 H 0.26035 0.91605 0.97704 0.0
H468 H 0.16853 -0.00251 -0.00602 0.0
H469 H 0.19291 0.05328 0.0051 0.0
H470 H 0.16828 0.00363 0.02042 0.0
H471 H 0.24367 0.03519 0.03972 0.0
H472 H 0.26852 0.08531 0.02434 0.0
H473 H 0.29524 0.05129 0.02652 0.0
H474 H 0.29653 0.98681 0.95549 0.0
H475 H 0.30833 0.05376 0.93576 0.0
H476 H 0.25619 0.09776 0.98404 0.0
C477 C 0.19801 0.93783 0.02042 0.0
C478 C 0.18853 0.89337 0.01617 0.0
C479 C 0.21292 0.88572 0.0012 0.0
C480 C 0.24411 0.92223 0.98946 0.0
C481 C 0.2509 0.96587 -0.00667 0.0
C482 C 0.22878 0.97366 0.00874 0.0
C483 C 0.23449 0.02077 0.00797 0.0
C484 C 0.18838 0.0186 0.00678 0.0
C485 C 0.26215 0.04985 0.02568 0.0
C486 C 0.26056 0.03743 0.98893 0.0
C487 C 0.27116 0.0062 0.9809 0.0
C488 C 0.28955 0.01195 0.96192 0.0
C489 C 0.29581 0.04967 0.95077 0.0
C490 C 0.28252 0.07989 0.95862 0.0
C491 C 0.26646 0.07469 0.978 0.0
H492 H 0.09726 0.21063 0.02748 0.0
H493 H 0.17939 0.35379 0.04349 0.0
H494 H 0.23147 0.36527 0.0162 0.0
H495 H 0.18911 0.19408 0.01596 0.0
H496 H 0.16014 0.1551 -0.00404 0.0
H497 H 0.12848 0.1597 0.01617 0.0
H498 H 0.08183 0.17795 -0.00866 0.0
H499 H 0.11371 0.17328 0.9712 0.0
H500 H 0.11075 0.2246 0.97428 0.0
H501 H 0.2777 0.36023 0.98874 0.0
H502 H 0.31476 0.33751 0.96313 0.0
H503 H 0.20186 0.19907 0.96459 0.0
C504 C 0.1257 0.2445 0.02502 0.0
C505 C 0.13376 0.28125 0.0374 0.0
C506 C 0.17201 0.32508 0.03399 0.0
C507 C 0.20194 0.33206 0.01854 0.0
C508 C 0.19299 0.29499 0.00659 0.0
C509 C 0.15588 0.25206 0.00966 0.0
C510 C 0.1552 0.2173 -0.00457 0.0
C511 C 0.15844 0.17935 0.00654 0.0
C512 C 0.11289 0.19713 0.98228 0.0
C513 C 0.19781 0.24755 0.98385 0.0
C514 C 0.21922 0.29225 -0.00948 0.0
C515 C 0.26095 0.32563 0.98309 0.0
C516 C 0.28163 0.31267 0.96861 0.0
C517 C 0.26007 0.26714 0.96184 0.0
C518 C 0.21776 0.23441 0.96929 0.0
H519 H 0.87299 0.20432 0.21545 0.0
H520 H 0.84764 0.06974 0.19819 0.0
H521 H 0.88631 0.10095 0.16657 0.0
H522 H 0.86351 0.24478 0.16549 0.0
H523 H 0.90978 0.30179 0.16947 0.0
H524 H 0.87558 0.26883 0.19002 0.0
H525 H 0.94814 0.28259 0.2077 0.0
H526 H -0.01768 0.31373 0.18684 0.0
H527 H -0.01579 0.26486 0.19604 0.0
H528 H 0.92686 0.14388 0.13764 0.0
H529 H 0.9738 0.19944 0.11244 0.0
H530 H -0.0195 0.30936 0.14827 0.0
C531 C 0.87545 0.18159 0.20487 0.0
C532 C 0.85744 0.13452 0.20917 0.0
C533 C 0.86159 0.10578 0.19523 0.0
C534 C 0.88308 0.12313 0.17718 0.0
C535 C 0.90076 0.16942 0.1734 0.0
C536 C 0.89765 0.1987 0.18677 0.0
C537 C 0.92299 0.24786 0.17924 0.0
C538 C 0.89104 0.26688 0.17586 0.0
C539 C 0.9617 0.27907 0.19328 0.0
C540 C 0.94074 0.24087 0.15969 0.0
C541 C 0.92674 0.19528 0.15664 0.0
C542 C 0.93798 0.17968 0.13973 0.0
C543 C 0.96443 0.21149 0.12543 0.0
C544 C -0.01956 0.25849 0.1284 0.0
C545 C 0.96825 0.27343 0.14567 0.0
H546 H 0.68952 0.94639 0.28497 0.0
H547 H 0.74131 0.07349 0.31765 0.0
H548 H 0.74621 0.03579 0.34762 0.0
H549 H 0.61989 0.87468 0.32163 0.0
H550 H 0.63049 0.82809 0.31818 0.0
H551 H 0.63678 0.86474 0.29776 0.0
H552 H 0.71978 0.88501 0.29209 0.0
H553 H 0.71254 0.84595 0.31165 0.0
H554 H 0.75822 0.90414 0.31268 0.0
H555 H 0.73456 0.9841 0.37485 0.0
H556 H 0.72201 0.92199 0.3976 0.0
H557 H 0.68057 0.827 0.34846 0.0
C558 C 0.70229 0.96604 0.29844 0.0
C559 C 0.71343 0.01226 0.29928 0.0
C560 C 0.73091 0.03755 0.31695 0.0
C561 C 0.73426 0.0166 0.334 0.0
C562 C 0.72033 0.97037 0.33314 0.0
C563 C 0.70594 0.9454 0.31578 0.0
C564 C 0.69168 0.89557 0.31944 0.0
C565 C 0.64177 0.86392 0.31394 0.0
C566 C 0.72239 0.8819 0.3083 0.0
C567 C 0.6992 0.89673 0.34161 0.0
C568 C 0.71548 0.94029 0.34909 0.0
C569 C 0.72323 0.95014 0.36916 0.0
C570 C 0.71612 0.91488 0.38192 0.0
C571 C 0.70209 0.87078 0.37448 0.0
C572 C 0.69269 0.8611 0.3542 0.0
H573 H 0.82167 0.76244 0.54254 0.0
H574 H 0.81607 0.63517 0.52747 0.0
H575 H 0.7737 0.62972 0.49697 0.0
H576 H 0.70898 0.72796 0.52762 0.0
H577 H 0.72389 0.78407 0.519 0.0
H578 H 0.75587 0.77778 0.53848 0.0
H579 H 0.82851 0.8256 0.51762 0.0
H580 H 0.79597 0.83001 0.49782 0.0
H581 H 0.83229 0.80677 0.49315 0.0
H582 H 0.73096 0.63811 0.46845 0.0
H583 H 0.6836 0.6549 0.44618 0.0
H584 H 0.71311 0.77336 0.48173 0.0
C585 C 0.81217 0.73396 0.53257 0.0
C586 C 0.82276 0.69979 0.53685 0.0
C587 C 0.80858 0.66193 0.52407 0.0
C588 C 0.78472 0.65868 0.50678 0.0
C589 C 0.77478 0.69315 0.50288 0.0
C590 C 0.78737 0.72965 0.51563 0.0
C591 C 0.7697 0.76038 0.50896 0.0
C592 C 0.73773 0.76263 0.52443 0.0
C593 C 0.80893 0.8085 0.50408 0.0
C594 C 0.74433 0.73483 0.49062 0.0
C595 C 0.74845 0.69677 0.48709 0.0
C596 C 0.72726 0.66761 0.47111 0.0
C597 C 0.70035 0.67713 0.45865 0.0
C598 C 0.6942 0.71458 0.46272 0.0
C599 C 0.71677 0.74394 0.47869 0.0
H600 H 0.09424 0.77525 0.7089 0.0
H601 H 0.10056 0.90414 0.69594 0.0
H602 H 0.05251 0.86927 0.66695 0.0
H603 H 0.0943 0.73983 0.65754 0.0
H604 H 0.05387 0.6805 0.66168 0.0
H605 H 0.09078 0.71464 0.68135 0.0
H606 H 0.02182 0.69253 0.7037 0.0
H607 H -0.01569 0.65873 0.68414 0.0
H608 H -0.022 0.70331 0.69558 0.0
H609 H 0.00425 0.8237 0.64084 0.0
H610 H 0.95585 0.76771 0.61686 0.0
H611 H 0.97397 0.66353 0.64545 0.0
C612 C 0.08587 0.79614 0.69977 0.0
C613 C 0.1012 0.84259 0.70463 0.0
C614 C 0.08922 0.86871 0.69254 0.0
C615 C 0.06198 0.84919 0.67603 0.0
C616 C 0.04695 0.80351 0.67181 0.0
C617 C 0.05823 0.77692 0.68315 0.0
C618 C 0.03554 0.72795 0.67523 0.0
C619 C 0.07072 0.715 0.66855 0.0
C620 C 0.003 0.69364 0.69057 0.0
C621 C 0.01 0.73198 0.65767 0.0
C622 C 0.01758 0.77601 0.65622 0.0
C623 C -0.00178 0.78916 0.64164 0.0
C624 C 0.97055 0.75674 0.6279 0.0
C625 C 0.9611 0.71111 0.62895 0.0
C626 C -0.01897 0.69838 0.64415 0.0
H627 H 0.23775 0.13151 0.84888 0.0
H628 H 0.29151 0.0871 0.89634 0.0
H629 H 0.30495 0.03923 0.87313 0.0
H630 H 0.17757 0.02976 0.82556 0.0
H631 H 0.18992 0.04949 0.8004 0.0
H632 H 0.19216 0.08738 0.81956 0.0
H633 H 0.27512 0.14666 0.81064 0.0
H634 H 0.27201 0.1096 0.79078 0.0
H635 H 0.31624 0.1285 0.80889 0.0
H636 H 0.30204 0.98848 0.84714 0.0
H637 H 0.28257 0.93612 0.8188 0.0
H638 H 0.23333 0.01343 0.78696 0.0
C639 C 0.25258 0.11182 0.85415 0.0
C640 C 0.26329 0.11232 0.87421 0.0
C641 C 0.28307 0.08677 0.88088 0.0
C642 C 0.2913 0.05996 0.86783 0.0
C643 C 0.28029 0.05977 0.84809 0.0
C644 C 0.26183 0.0853 0.84112 0.0
C645 C 0.24963 0.07554 0.81945 0.0
C646 C 0.19936 0.05955 0.81606 0.0
C647 C 0.28006 0.11757 0.8067 0.0
C648 C 0.26046 0.03767 0.816 0.0
C649 C 0.27937 0.03026 0.83259 0.0
C650 C 0.28852 -0.00538 0.83382 0.0
C651 C 0.27732 0.96507 0.81773 0.0
C652 C 0.25732 0.97154 0.80075 0.0
C653 C 0.2499 0.00888 0.79963 0.0
H654 H 0.72172 0.87427 0.79807 0.0
H655 H 0.65987 0.77445 0.75114 0.0
H656 H 0.64656 0.71265 0.77414 0.0
H657 H 0.78055 0.82933 0.81956 0.0
H658 H 0.77184 0.83939 0.84492 0.0
H659 H 0.77009 0.875 0.82576 0.0
H660 H 0.68924 0.85553 0.83633 0.0
H661 H 0.69198 0.8216 0.85614 0.0
H662 H 0.64584 0.79663 0.83889 0.0
H663 H 0.65136 0.66431 0.80031 0.0
H664 H 0.67194 0.63229 0.82856 0.0
H665 H 0.72549 0.76135 0.85953 0.0
C666 C 0.70524 0.83934 0.79283 0.0
C667 C 0.69226 0.82885 0.773 0.0
C668 C 0.67019 0.78286 0.76642 0.0
C669 C 0.66206 0.74754 0.77937 0.0
C670 C 0.67541 0.75879 0.79894 0.0
C671 C 0.69597 0.80344 0.80574 0.0
C672 C 0.70998 0.80659 0.82712 0.0
C673 C 0.76111 0.83947 0.82946 0.0
C674 C 0.68263 0.82093 0.84039 0.0
C675 C 0.69698 0.7573 0.83079 0.0
C676 C 0.67636 0.73013 0.81444 0.0
C677 C 0.66608 0.68473 0.81344 0.0
C678 C 0.67791 0.66686 0.82947 0.0
C679 C 0.69913 0.69424 0.84623 0.0
C680 C 0.70774 0.73949 0.8471 0.0
H681 H 0.82048 0.64832 0.95382 0.0
H682 H 0.89655 0.78777 0.93259 0.0
H683 H 0.96009 0.80177 0.95404 0.0
H684 H 0.84574 0.66859 0.0018 0.0
H685 H 0.85454 0.6219 0.00793 0.0
H686 H 0.8183 0.61637 0.9877 0.0
H687 H 0.8649 0.59724 0.96349 0.0
H688 H 0.9005 0.60068 0.98373 0.0
H689 H 0.92508 0.63457 0.96192 0.0
H690 H 0.00887 0.80571 0.98099 0.0
H691 H 0.04513 0.79636 0.0106 0.0
H692 H 0.93876 0.65517 0.01561 0.0
C693 C 0.85069 0.68165 0.9538 0.0
C694 C 0.85334 0.71766 0.94227 0.0
C695 C 0.8934 0.76055 0.94204 0.0
C696 C 0.92996 0.76844 0.95379 0.0
C697 C 0.92575 0.73306 0.96569 0.0
C698 C 0.8876 0.69007 0.9656 0.0
C699 C 0.89054 0.65963 0.98132 0.0
C700 C 0.8499 0.64055 -0.00447 0.0
C701 C 0.89554 0.62076 0.97204 0.0
C702 C 0.93399 0.69391 -0.00863 0.0
C703 C 0.95435 0.73548 0.98167 0.0
C704 C -0.0062 0.77314 0.9885 0.0
C705 C 0.01371 0.76781 0.00542 0.0
C706 C -0.00601 0.72532 0.01522 0.0
C707 C 0.95374 0.68797 0.00828 0.0
H708 H 0.18563 0.91182 0.09318 0.0
H709 H 0.06649 0.81356 0.12516 0.0
H710 H 0.10297 0.85054 0.15676 0.0
H711 H 0.27328 0.92952 0.12954 0.0
H712 H 0.30504 -0.00991 0.12513 0.0
H713 H 0.27171 0.9519 0.10562 0.0
H714 H 0.23194 -0.00053 0.10182 0.0
H715 H 0.26339 0.03592 0.12212 0.0
H716 H 0.20266 0.00599 0.12259 0.0
H717 H 0.14988 0.89927 0.18426 0.0
H718 H 0.20512 0.95763 0.20682 0.0
H719 H 0.29323 0.02713 0.15701 0.0
C720 C 0.16766 0.89821 0.10694 0.0
C721 C 0.12336 0.86044 0.10707 0.0
C722 C 0.10022 0.84303 0.12504 0.0
C723 C 0.12081 0.86353 0.14294 0.0
C724 C 0.16419 0.90153 0.14241 0.0
C725 C 0.18757 0.91889 0.1249 0.0
C726 C 0.23218 0.96261 0.1284 0.0
C727 C 0.2729 0.95819 0.12178 0.0
C728 C 0.23255 0.00339 0.11814 0.0
C729 C 0.23053 0.96598 0.1507 0.0
C730 C 0.19099 0.93061 0.15839 0.0
C731 C 0.18122 0.92686 0.1785 0.0
C732 C 0.21291 0.95999 0.1912 0.0
C733 C 0.2537 -0.00359 0.18368 0.0
C734 C 0.26262 -0.00076 0.16319 0.0
H735 H 0.31097 0.20221 0.27126 0.0
H736 H 0.18188 0.07815 0.27999 0.0
H737 H 0.16804 0.112 0.30933 0.0
H738 H 0.34026 0.2303 0.32399 0.0
H739 H 0.36331 0.29078 0.32078 0.0
H740 H 0.36642 0.25696 0.30092 0.0
H741 H 0.32689 0.28618 0.27778 0.0
H742 H 0.32292 0.31977 0.29751 0.0
H743 H 0.27282 0.27897 0.28458 0.0
H744 H 0.16221 0.15923 0.33413 0.0
H745 H 0.16845 0.21708 0.35746 0.0
H746 H 0.30269 0.31203 0.33584 0.0
C747 C 0.28027 0.18204 0.27963 0.0
C748 C 0.24732 0.1375 0.27337 0.0
C749 C 0.20728 0.11228 0.28444 0.0
C750 C 0.19918 0.13117 0.30115 0.0
C751 C 0.23149 0.17529 0.30664 0.0
C752 C 0.27156 0.20065 0.29649 0.0
C753 C 0.29915 0.24841 0.30541 0.0
C754 C 0.34496 0.25707 0.31324 0.0
C755 C 0.30581 0.28549 0.29043 0.0
C756 C 0.26787 0.24507 0.32217 0.0
C757 C 0.22904 0.20267 0.32224 0.0
C758 C 0.19311 0.19186 0.33488 0.0
C759 C 0.19721 0.22476 0.34834 0.0
C760 C 0.23711 0.26762 0.34933 0.0
C761 C 0.2727 0.27854 0.33585 0.0
H762 H 0.05729 0.21063 0.44152 0.0
H763 H 0.17081 0.3458 0.453 0.0
H764 H 0.12941 0.35504 0.48094 0.0
H765 H 0.96974 0.23931 0.45196 0.0
H766 H 0.9328 0.18405 0.46252 0.0
H767 H 0.97247 0.19014 0.44363 0.0
H768 H 0.00276 0.15176 0.4675 0.0
H769 H 0.96482 0.14842 0.48672 0.0
H770 H 0.02466 0.17718 0.49127 0.0
H771 H 0.07699 0.34835 0.50816 0.0
H772 H 0.01254 0.32987 0.53058 0.0
H773 H 0.9321 0.20149 0.49978 0.0
C774 C 0.07364 0.2416 0.45028 0.0
C775 C 0.1176 0.27683 0.44582 0.0
C776 C 0.13751 0.31801 0.45677 0.0
C777 C 0.11421 0.32364 0.47249 0.0
C778 C 0.07091 0.28804 0.47669 0.0
C779 C 0.05036 0.24817 0.46565 0.0
C780 C 0.00287 0.2158 0.47279 0.0
C781 C 0.96744 0.20686 0.45677 0.0
C782 C -0.00146 0.17065 0.48001 0.0
C783 C 0.00021 0.24389 0.48963 0.0
C784 C 0.0399 0.28511 0.4918 0.0
C785 C 0.0455 0.31653 0.5065 0.0
C786 C 0.009 0.30597 0.51907 0.0
C787 C 0.9677 0.26506 0.51634 0.0
C788 C 0.96337 0.23351 0.50168 0.0
H789 H 0.72958 0.03443 0.69377 0.0
H790 H 0.66965 0.90414 0.66307 0.0
H791 H 0.71254 0.94205 0.63324 0.0
H792 H 0.72419 0.09672 0.65426 0.0
H793 H 0.77738 0.14829 0.65807 0.0
H794 H 0.7481 0.11178 0.67867 0.0
H795 H 0.81758 0.10374 0.68737 0.0
H796 H 0.8477 0.14245 0.66747 0.0
H797 H 0.84355 0.08731 0.66833 0.0
H798 H 0.7516 -0.00763 0.60581 0.0
H799 H 0.79742 0.0543 0.5824 0.0
H800 H 0.83518 0.15411 0.62945 0.0
C801 C 0.72645 0.01414 0.68084 0.0
C802 C 0.69588 0.96665 0.68054 0.0
C803 C 0.69223 0.94077 0.66344 0.0
C804 C 0.71662 0.9619 0.64644 0.0
C805 C 0.74463 0.00898 0.64676 0.0
C806 C 0.75073 0.03501 0.66352 0.0
C807 C 0.7813 0.08558 0.65916 0.0
C808 C 0.75626 0.11215 0.66274 0.0
C809 C 0.82511 0.10593 0.6713 0.0
C810 C 0.79066 0.08335 0.63732 0.0
C811 C 0.76872 0.03871 0.6306 0.0
C812 C 0.77004 0.02738 0.61092 0.0
C813 C 0.79602 0.06252 0.59779 0.0
C814 C 0.82051 0.10805 0.60449 0.0
C815 C 0.81748 0.11904 0.62434 0.0
loop_
_geom_bond_atom_site_label_1
_geom_bond_atom_site_label_2
_geom_bond_distance
_geom_bond_site_symmetry_2
_ccdc_geom_bond_type
C0 O1 1.306 . S
C0 O3 1.160 . S
O1 C0 1.306 . S
O1 Cd2 2.228 . S
Cd2 O1 2.228 . S
Cd2 O6 2.273 . S
Cd2 O10 2.277 . S
O3 C0 1.160 . S
O3 Cd4 2.203 . S
Cd4 O3 2.203 . S
Cd4 O6 2.411 . S
Cd4 O7 2.333 . S
Cd4 O8 2.352 . S
Cd4 O12 2.277 . S
Cd4 O13 2.356 . S
C5 O10 1.209 . S
C5 O12 1.226 . S
O6 Cd2 2.273 . S
O6 Cd4 2.411 . S
O6 C9 1.320 . S
O7 Cd4 2.333 . S
O7 C9 1.214 . S
O8 Cd4 2.352 . S
O8 C11 1.258 . S
C9 O6 1.320 . S
C9 O7 1.214 . S
O10 Cd2 2.277 . S
O10 C5 1.209 . S
C11 O8 1.258 . S
C11 O13 1.282 . S
O12 Cd4 2.277 . S
O12 C5 1.226 . S
O13 Cd4 2.356 . S
O13 C11 1.282 . S
C14 O15 1.306 . S
C14 O17 1.160 . S
O15 C14 1.306 . S
O15 Cd16 2.228 . S
Cd16 O15 2.228 . S
Cd16 O20 2.273 . S
Cd16 O24 2.277 . S
O17 C14 1.160 . S
O17 Cd18 2.203 . S
Cd18 O17 2.203 . S
Cd18 O20 2.411 . S
Cd18 O21 2.333 . S
Cd18 O22 2.352 . S
Cd18 O26 2.277 . S
Cd18 O27 2.356 . S
C19 O24 1.209 . S
C19 O26 1.226 . S
O20 Cd16 2.273 . S
O20 Cd18 2.411 . S
O20 C23 1.320 . S
O21 Cd18 2.333 . S
O21 C23 1.214 . S
O22 Cd18 2.352 . S
O22 C25 1.258 . S
C23 O20 1.320 . S
C23 O21 1.214 . S
O24 Cd16 2.277 . S
O24 C19 1.209 . S
C25 O22 1.258 . S
C25 O27 1.282 . S
O26 Cd18 2.277 . S
O26 C19 1.226 . S
O27 Cd18 2.356 . S
O27 C25 1.282 . S
C28 O29 1.306 . S
C28 O31 1.160 . S
O29 C28 1.306 . S
O29 Cd30 2.228 . S
Cd30 O29 2.228 . S
Cd30 O34 2.273 . S
Cd30 O38 2.277 . S
O31 C28 1.160 . S
O31 Cd32 2.203 . S
Cd32 O31 2.203 . S
Cd32 O34 2.411 . S
Cd32 O35 2.333 . S
Cd32 O36 2.352 . S
Cd32 O40 2.277 . S
Cd32 O41 2.356 . S
C33 O38 1.209 . S
C33 O40 1.226 . S
O34 Cd30 2.273 . S
O34 Cd32 2.411 . S
O34 C37 1.320 . S
O35 Cd32 2.333 . S
O35 C37 1.214 . S
O36 Cd32 2.352 . S
O36 C39 1.258 . S
C37 O34 1.320 . S
C37 O35 1.214 . S
O38 Cd30 2.277 . S
O38 C33 1.209 . S
C39 O36 1.258 . S
C39 O41 1.282 . S
O40 Cd32 2.277 . S
O40 C33 1.226 . S
O41 Cd32 2.356 . S
O41 C39 1.282 . S
C42 O43 1.306 . S
C42 O45 1.160 . S
O43 C42 1.306 . S
O43 Cd44 2.228 . S
Cd44 O43 2.228 . S
Cd44 O48 2.273 . S
Cd44 O52 2.277 . S
O45 C42 1.160 . S
O45 Cd46 2.203 . S
Cd46 O45 2.203 . S
Cd46 O48 2.411 . S
Cd46 O49 2.333 . S
Cd46 O50 2.352 . S
Cd46 O54 2.277 . S
Cd46 O55 2.356 . S
C47 O52 1.209 . S
C47 O54 1.226 . S
O48 Cd44 2.273 . S
O48 Cd46 2.411 . S
O48 C51 1.320 . S
O49 Cd46 2.333 . S
O49 C51 1.214 . S
O50 Cd46 2.352 . S
O50 C53 1.258 . S
C51 O48 1.320 . S
C51 O49 1.214 . S
O52 Cd44 2.277 . S
O52 C47 1.209 . S
C53 O50 1.258 . S
C53 O55 1.282 . S
O54 Cd46 2.277 . S
O54 C47 1.226 . S
O55 Cd46 2.356 . S
O55 C53 1.282 . S
C56 O57 1.306 . S
C56 O59 1.160 . S
O57 C56 1.306 . S
O57 Cd58 2.228 . S
Cd58 O57 2.228 . S
Cd58 O62 2.273 . S
Cd58 O66 2.277 . S
O59 C56 1.160 . S
O59 Cd60 2.203 . S
Cd60 O59 2.203 . S
Cd60 O62 2.411 . S
Cd60 O63 2.333 . S
Cd60 O64 2.352 . S
Cd60 O68 2.277 . S
Cd60 O69 2.356 . S
C61 O66 1.209 . S
C61 O68 1.226 . S
O62 Cd58 2.273 . S
O62 Cd60 2.411 . S
O62 C65 1.320 . S
O63 Cd60 2.333 . S
O63 C65 1.214 . S
O64 Cd60 2.352 . S
O64 C67 1.258 . S
C65 O62 1.320 . S
C65 O63 1.214 . S
O66 Cd58 2.277 . S
O66 C61 1.209 . S
C67 O64 1.258 . S
C67 O69 1.282 . S
O68 Cd60 2.277 . S
O68 C61 1.226 . S
O69 Cd60 2.356 . S
O69 C67 1.282 . S
C70 O71 1.306 . S
C70 O73 1.160 . S
O71 C70 1.306 . S
O71 Cd72 2.228 . S
Cd72 O71 2.228 . S
Cd72 O76 2.273 . S
Cd72 O80 2.277 . S
O73 C70 1.160 . S
O73 Cd74 2.203 . S
Cd74 O73 2.203 . S
Cd74 O76 2.411 . S
Cd74 O77 2.333 . S
Cd74 O78 2.352 . S
Cd74 O82 2.277 . S
Cd74 O83 2.356 . S
C75 O80 1.209 . S
C75 O82 1.226 . S
O76 Cd72 2.273 . S
O76 Cd74 2.411 . S
O76 C79 1.320 . S
O77 Cd74 2.333 . S
O77 C79 1.214 . S
O78 Cd74 2.352 . S
O78 C81 1.258 . S
C79 O76 1.320 . S
C79 O77 1.214 . S
O80 Cd72 2.277 . S
O80 C75 1.209 . S
C81 O78 1.258 . S
C81 O83 1.282 . S
O82 Cd74 2.277 . S
O82 C75 1.226 . S
O83 Cd74 2.356 . S
O83 C81 1.282 . S
C84 O85 1.306 . S
C84 O87 1.160 . S
O85 C84 1.306 . S
O85 Cd86 2.228 . S
Cd86 O85 2.228 . S
Cd86 O90 2.273 . S
Cd86 O94 2.277 . S
O87 C84 1.160 . S
O87 Cd88 2.203 . S
Cd88 O87 2.203 . S
Cd88 O90 2.411 . S
Cd88 O91 2.333 . S
Cd88 O92 2.352 . S
Cd88 O96 2.277 . S
Cd88 O97 2.356 . S
C89 O94 1.209 . S
C89 O96 1.226 . S
O90 Cd86 2.273 . S
O90 Cd88 2.411 . S
O90 C93 1.320 . S
O91 Cd88 2.333 . S
O91 C93 1.214 . S
O92 Cd88 2.352 . S
O92 C95 1.258 . S
C93 O90 1.320 . S
C93 O91 1.214 . S
O94 Cd86 2.277 . S
O94 C89 1.209 . S
C95 O92 1.258 . S
C95 O97 1.282 . S
O96 Cd88 2.277 . S
O96 C89 1.226 . S
O97 Cd88 2.356 . S
O97 C95 1.282 . S
C98 O99 1.306 . S
C98 O101 1.160 . S
O99 C98 1.306 . S
O99 Cd100 2.228 . S
Cd100 O99 2.228 . S
Cd100 O104 2.273 . S
Cd100 O108 2.277 . S
O101 C98 1.160 . S
O101 Cd102 2.203 . S
Cd102 O101 2.203 . S
Cd102 O104 2.411 . S
Cd102 O105 2.333 . S
Cd102 O106 2.352 . S
Cd102 O110 2.277 . S
Cd102 O111 2.356 . S
C103 O108 1.209 . S
C103 O110 1.226 . S
O104 Cd100 2.273 . S
O104 Cd102 2.411 . S
O104 C107 1.320 . S
O105 Cd102 2.333 . S
O105 C107 1.214 . S
O106 Cd102 2.352 . S
O106 C109 1.258 . S
C107 O104 1.320 . S
C107 O105 1.214 . S
O108 Cd100 2.277 . S
O108 C103 1.209 . S
C109 O106 1.258 . S
C109 O111 1.282 . S
O110 Cd102 2.277 . S
O110 C103 1.226 . S
O111 Cd102 2.356 . S
O111 C109 1.282 . S
C112 O113 1.306 . S
C112 O115 1.160 . S
O113 C112 1.306 . S
O113 Cd114 2.228 . S
Cd114 O113 2.228 . S
Cd114 O118 2.273 . S
Cd114 O122 2.277 . S
O115 C112 1.160 . S
O115 Cd116 2.203 . S
Cd116 O115 2.203 . S
Cd116 O118 2.411 . S
Cd116 O119 2.333 . S
Cd116 O120 2.352 . S
Cd116 O124 2.277 . S
Cd116 O125 2.356 . S
C117 O122 1.209 . S
C117 O124 1.226 . S
O118 Cd114 2.273 . S
O118 Cd116 2.411 . S
O118 C121 1.320 . S
O119 Cd116 2.333 . S
O119 C121 1.214 . S
O120 Cd116 2.352 . S
O120 C123 1.258 . S
C121 O118 1.320 . S
C121 O119 1.214 . S
O122 Cd114 2.277 . S
O122 C117 1.209 . S
C123 O120 1.258 . S
C123 O125 1.282 . S
O124 Cd116 2.277 . S
O124 C117 1.226 . S
O125 Cd116 2.356 . S
O125 C123 1.282 . S
C126 O127 1.306 . S
C126 O129 1.160 . S
O127 C126 1.306 . S
O127 Cd128 2.228 . S
Cd128 O127 2.228 . S
Cd128 O132 2.273 . S
Cd128 O136 2.277 . S
O129 C126 1.160 . S
O129 Cd130 2.203 . S
Cd130 O129 2.203 . S
Cd130 O132 2.411 . S
Cd130 O133 2.333 . S
Cd130 O134 2.352 . S
Cd130 O138 2.277 . S
Cd130 O139 2.356 . S
C131 O136 1.209 . S
C131 O138 1.226 . S
O132 Cd128 2.273 . S
O132 Cd130 2.411 . S
O132 C135 1.320 . S
O133 Cd130 2.333 . S
O133 C135 1.214 . S
O134 Cd130 2.352 . S
O134 C137 1.258 . S
C135 O132 1.320 . S
C135 O133 1.214 . S
O136 Cd128 2.277 . S
O136 C131 1.209 . S
C137 O134 1.258 . S
C137 O139 1.282 . S
O138 Cd130 2.277 . S
O138 C131 1.226 . S
O139 Cd130 2.356 . S
O139 C137 1.282 . S
C140 O141 1.306 . S
C140 O143 1.160 . S
O141 C140 1.306 . S
O141 Cd142 2.228 . S
Cd142 O141 2.228 . S
Cd142 O146 2.273 . S
Cd142 O150 2.277 . S
O143 C140 1.160 . S
O143 Cd144 2.203 . S
Cd144 O143 2.203 . S
Cd144 O146 2.411 . S
Cd144 O147 2.333 . S
Cd144 O148 2.352 . S
Cd144 O152 2.277 . S
Cd144 O153 2.356 . S
C145 O150 1.209 . S
C145 O152 1.226 . S
O146 Cd142 2.273 . S
O146 Cd144 2.411 . S
O146 C149 1.320 . S
O147 Cd144 2.333 . S
O147 C149 1.214 . S
O148 Cd144 2.352 . S
O148 C151 1.258 . S
C149 O146 1.320 . S
C149 O147 1.214 . S
O150 Cd142 2.277 . S
O150 C145 1.209 . S
C151 O148 1.258 . S
C151 O153 1.282 . S
O152 Cd144 2.277 . S
O152 C145 1.226 . S
O153 Cd144 2.356 . S
O153 C151 1.282 . S
C154 O155 1.306 . S
C154 O157 1.160 . S
O155 C154 1.306 . S
O155 Cd156 2.228 . S
Cd156 O155 2.228 . S
Cd156 O160 2.273 . S
Cd156 O164 2.277 . S
O157 C154 1.160 . S
O157 Cd158 2.203 . S
Cd158 O157 2.203 . S
Cd158 O160 2.411 . S
Cd158 O161 2.333 . S
Cd158 O162 2.352 . S
Cd158 O166 2.277 . S
Cd158 O167 2.356 . S
C159 O164 1.209 . S
C159 O166 1.226 . S
O160 Cd156 2.273 . S
O160 Cd158 2.411 . S
O160 C163 1.320 . S
O161 Cd158 2.333 . S
O161 C163 1.214 . S
O162 Cd158 2.352 . S
O162 C165 1.258 . S
C163 O160 1.320 . S
C163 O161 1.214 . S
O164 Cd156 2.277 . S
O164 C159 1.209 . S
C165 O162 1.258 . S
C165 O167 1.282 . S
O166 Cd158 2.277 . S
O166 C159 1.226 . S
O167 Cd158 2.356 . S
O167 C165 1.282 . S
H168 C180 0.930 . S
H169 C182 0.930 . S
H170 C183 0.930 . S
H171 C187 0.959 . S
H172 C187 0.959 . S
H173 C187 0.961 . S
H174 C188 0.960 . S
H175 C188 0.961 . S
H176 C188 0.959 . S
H177 C191 0.929 . S
H178 C192 0.931 . S
H179 C194 0.930 . S
C180 H168 0.930 . S
C180 C181 1.399 . S
C180 C185 1.399 . S
C181 C180 1.399 . S
C181 C182 1.376 . S
C182 H169 0.930 . S
C182 C181 1.376 . S
C182 C183 1.388 . S
C183 H170 0.930 . S
C183 C182 1.388 . S
C183 C184 1.390 . S
C184 C183 1.390 . S
C184 C185 1.394 . S
C184 C190 1.465 . S
C185 C180 1.399 . S
C185 C184 1.394 . S
C185 C186 1.516 . S
C186 C185 1.516 . S
C186 C187 1.502 . S
C186 C188 1.561 . S
C186 C189 1.526 . S
C187 H171 0.959 . S
C187 H172 0.959 . S
C187 H173 0.961 . S
C187 C186 1.502 . S
C188 H174 0.960 . S
C188 H175 0.961 . S
C188 H176 0.959 . S
C188 C186 1.561 . S
C189 C186 1.526 . S
C189 C190 1.396 . S
C189 C194 1.390 . S
C190 C184 1.465 . S
C190 C189 1.396 . S
C190 C191 1.399 . S
C191 H177 0.929 . S
C191 C190 1.399 . S
C191 C192 1.385 . S
C192 H178 0.931 . S
C192 C191 1.385 . S
C192 C193 1.389 . S
C193 C192 1.389 . S
C193 C194 1.387 . S
C194 H179 0.930 . S
C194 C189 1.390 . S
C194 C193 1.387 . S
H195 C207 0.930 . S
H196 C209 0.930 . S
H197 C210 0.930 . S
H198 C214 0.959 . S
H199 C214 0.959 . S
H200 C214 0.961 . S
H201 C215 0.960 . S
H202 C215 0.961 . S
H203 C215 0.959 . S
H204 C218 0.929 . S
H205 C219 0.931 . S
H206 C221 0.930 . S
C207 H195 0.930 . S
C207 C208 1.399 . S
C207 C212 1.399 . S
C208 C207 1.399 . S
C208 C209 1.376 . S
C209 H196 0.930 . S
C209 C208 1.376 . S
C209 C210 1.388 . S
C210 H197 0.930 . S
C210 C209 1.388 . S
C210 C211 1.390 . S
C211 C210 1.390 . S
C211 C212 1.394 . S
C211 C217 1.465 . S
C212 C207 1.399 . S
C212 C211 1.394 . S
C212 C213 1.516 . S
C213 C212 1.516 . S
C213 C214 1.502 . S
C213 C215 1.561 . S
C213 C216 1.526 . S
C214 H198 0.959 . S
C214 H199 0.959 . S
C214 H200 0.961 . S
C214 C213 1.502 . S
C215 H201 0.960 . S
C215 H202 0.961 . S
C215 H203 0.959 . S
C215 C213 1.561 . S
C216 C213 1.526 . S
C216 C217 1.396 . S
C216 C221 1.390 . S
C217 C211 1.465 . S
C217 C216 1.396 . S
C217 C218 1.399 . S
C218 H204 0.929 . S
C218 C217 1.399 . S
C218 C219 1.385 . S
C219 H205 0.931 . S
C219 C218 1.385 . S
C219 C220 1.389 . S
C220 C219 1.389 . S
C220 C221 1.387 . S
C221 H206 0.930 . S
C221 C216 1.390 . S
C221 C220 1.387 . S
H222 C234 0.930 . S
H223 C236 0.930 . S
H224 C237 0.930 . S
H225 C241 0.959 . S
H226 C241 0.959 . S
H227 C241 0.961 . S
H228 C242 0.960 . S
H229 C242 0.961 . S
H230 C242 0.959 . S
H231 C245 0.929 . S
H232 C246 0.931 . S
H233 C248 0.930 . S
C234 H222 0.930 . S
C234 C235 1.399 . S
C234 C239 1.399 . S
C235 C234 1.399 . S
C235 C236 1.376 . S
C236 H223 0.930 . S
C236 C235 1.376 . S
C236 C237 1.388 . S
C237 H224 0.930 . S
C237 C236 1.388 . S
C237 C238 1.390 . S
C238 C237 1.390 . S
C238 C239 1.394 . S
C238 C244 1.465 . S
C239 C234 1.399 . S
C239 C238 1.394 . S
C239 C240 1.516 . S
C240 C239 1.516 . S
C240 C241 1.502 . S
C240 C242 1.561 . S
C240 C243 1.526 . S
C241 H225 0.959 . S
C241 H226 0.959 . S
C241 H227 0.961 . S
C241 C240 1.502 . S
C242 H228 0.960 . S
C242 H229 0.961 . S
C242 H230 0.959 . S
C242 C240 1.561 . S
C243 C240 1.526 . S
C243 C244 1.396 . S
C243 C248 1.390 . S
C244 C238 1.465 . S
C244 C243 1.396 . S
C244 C245 1.399 . S
C245 H231 0.929 . S
C245 C244 1.399 . S
C245 C246 1.385 . S
C246 H232 0.931 . S
C246 C245 1.385 . S
C246 C247 1.389 . S
C247 C246 1.389 . S
C247 C248 1.387 . S
C248 H233 0.930 . S
C248 C243 1.390 . S
C248 C247 1.387 . S
H249 C261 0.930 . S
H250 C263 0.930 . S
H251 C264 0.930 . S
H252 C268 0.959 . S
H253 C268 0.959 . S
H254 C268 0.961 . S
H255 C269 0.960 . S
H256 C269 0.961 . S
H257 C269 0.959 . S
H258 C272 0.929 . S
H259 C273 0.931 . S
H260 C275 0.930 . S
C261 H249 0.930 . S
C261 C262 1.399 . S
C261 C266 1.399 . S
C262 C261 1.399 . S
C262 C263 1.376 . S
C263 H250 0.930 . S
C263 C262 1.376 . S
C263 C264 1.388 . S
C264 H251 0.930 . S
C264 C263 1.388 . S
C264 C265 1.390 . S
C265 C264 1.390 . S
C265 C266 1.394 . S
C265 C271 1.465 . S
C266 C261 1.399 . S
C266 C265 1.394 . S
C266 C267 1.516 . S
C267 C266 1.516 . S
C267 C268 1.502 . S
C267 C269 1.561 . S
C267 C270 1.526 . S
C268 H252 0.959 . S
C268 H253 0.959 . S
C268 H254 0.961 . S
C268 C267 1.502 . S
C269 H255 0.960 . S
C269 H256 0.961 . S
C269 H257 0.959 . S
C269 C267 1.561 . S
C270 C267 1.526 . S
C270 C271 1.396 . S
C270 C275 1.390 . S
C271 C265 1.465 . S
C271 C270 1.396 . S
C271 C272 1.399 . S
C272 H258 0.929 . S
C272 C271 1.399 . S
C272 C273 1.385 . S
C273 H259 0.931 . S
C273 C272 1.385 . S
C273 C274 1.389 . S
C274 C273 1.389 . S
C274 C275 1.387 . S
C275 H260 0.930 . S
C275 C270 1.390 . S
C275 C274 1.387 . S
H276 C288 0.930 . S
H277 C290 0.930 . S
H278 C291 0.930 . S
H279 C295 0.959 . S
H280 C295 0.959 . S
H281 C295 0.961 . S
H282 C296 0.960 . S
H283 C296 0.961 . S
H284 C296 0.959 . S
H285 C299 0.929 . S
H286 C300 0.931 . S
H287 C302 0.930 . S
C288 H276 0.930 . S
C288 C289 1.399 . S
C288 C293 1.399 . S
C289 C288 1.399 . S
C289 C290 1.376 . S
C290 H277 0.930 . S
C290 C289 1.376 . S
C290 C291 1.388 . S
C291 H278 0.930 . S
C291 C290 1.388 . S
C291 C292 1.390 . S
C292 C291 1.390 . S
C292 C293 1.394 . S
C292 C298 1.465 . S
C293 C288 1.399 . S
C293 C292 1.394 . S
C293 C294 1.516 . S
C294 C293 1.516 . S
C294 C295 1.502 . S
C294 C296 1.561 . S
C294 C297 1.526 . S
C295 H279 0.959 . S
C295 H280 0.959 . S
C295 H281 0.961 . S
C295 C294 1.502 . S
C296 H282 0.960 . S
C296 H283 0.961 . S
C296 H284 0.959 . S
C296 C294 1.561 . S
C297 C294 1.526 . S
C297 C298 1.396 . S
C297 C302 1.390 . S
C298 C292 1.465 . S
C298 C297 1.396 . S
C298 C299 1.399 . S
C299 H285 0.929 . S
C299 C298 1.399 . S
C299 C300 1.385 . S
C300 H286 0.931 . S
C300 C299 1.385 . S
C300 C301 1.389 . S
C301 C300 1.389 . S
C301 C302 1.387 . S
C302 H287 0.930 . S
C302 C297 1.390 . S
C302 C301 1.387 . S
H303 C315 0.930 . S
H304 C317 0.930 . S
H305 C318 0.930 . S
H306 C322 0.959 . S
H307 C322 0.959 . S
H308 C322 0.961 . S
H309 C323 0.960 . S
H310 C323 0.961 . S
H311 C323 0.959 . S
H312 C326 0.929 . S
H313 C327 0.931 . S
H314 C329 0.930 . S
C315 H303 0.930 . S
C315 C316 1.399 . S
C315 C320 1.399 . S
C316 C315 1.399 . S
C316 C317 1.376 . S
C317 H304 0.930 . S
C317 C316 1.376 . S
C317 C318 1.388 . S
C318 H305 0.930 . S
C318 C317 1.388 . S
C318 C319 1.390 . S
C319 C318 1.390 . S
C319 C320 1.394 . S
C319 C325 1.465 . S
C320 C315 1.399 . S
C320 C319 1.394 . S
C320 C321 1.516 . S
C321 C320 1.516 . S
C321 C322 1.502 . S
C321 C323 1.561 . S
C321 C324 1.526 . S
C322 H306 0.959 . S
C322 H307 0.959 . S
C322 H308 0.961 . S
C322 C321 1.502 . S
C323 H309 0.960 . S
C323 H310 0.961 . S
C323 H311 0.959 . S
C323 C321 1.561 . S
C324 C321 1.526 . S
C324 C325 1.396 . S
C324 C329 1.390 . S
C325 C319 1.465 . S
C325 C324 1.396 . S
C325 C326 1.399 . S
C326 H312 0.929 . S
C326 C325 1.399 . S
C326 C327 1.385 . S
C327 H313 0.931 . S
C327 C326 1.385 . S
C327 C328 1.389 . S
C328 C327 1.389 . S
C328 C329 1.387 . S
C329 H314 0.930 . S
C329 C324 1.390 . S
C329 C328 1.387 . S
H330 C342 0.930 . S
H331 C344 0.930 . S
H332 C345 0.930 . S
H333 C349 0.959 . S
H334 C349 0.959 . S
H335 C349 0.961 . S
H336 C350 0.960 . S
H337 C350 0.961 . S
H338 C350 0.959 . S
H339 C353 0.929 . S
H340 C354 0.931 . S
H341 C356 0.930 . S
C342 H330 0.930 . S
C342 C343 1.399 . S
C342 C347 1.399 . S
C343 C342 1.399 . S
C343 C344 1.376 . S
C344 H331 0.930 . S
C344 C343 1.376 . S
C344 C345 1.388 . S
C345 H332 0.930 . S
C345 C344 1.388 . S
C345 C346 1.390 . S
C346 C345 1.390 . S
C346 C347 1.394 . S
C346 C352 1.465 . S
C347 C342 1.399 . S
C347 C346 1.394 . S
C347 C348 1.516 . S
C348 C347 1.516 . S
C348 C349 1.502 . S
C348 C350 1.561 . S
C348 C351 1.526 . S
C349 H333 0.959 . S
C349 H334 0.959 . S
C349 H335 0.961 . S
C349 C348 1.502 . S
C350 H336 0.960 . S
C350 H337 0.961 . S
C350 H338 0.959 . S
C350 C348 1.561 . S
C351 C348 1.526 . S
C351 C352 1.396 . S
C351 C356 1.390 . S
C352 C346 1.465 . S
C352 C351 1.396 . S
C352 C353 1.399 . S
C353 H339 0.929 . S
C353 C352 1.399 . S
C353 C354 1.385 . S
C354 H340 0.931 . S
C354 C353 1.385 . S
C354 C355 1.389 . S
C355 C354 1.389 . S
C355 C356 1.387 . S
C356 H341 0.930 . S
C356 C351 1.390 . S
C356 C355 1.387 . S
H357 C369 0.930 . S
H358 C371 0.930 . S
H359 C372 0.930 . S
H360 C376 0.959 1_455 S
H361 C376 0.959 . S
H362 C376 0.961 . S
H363 C377 0.960 . S
H364 C377 0.961 . S
H365 C377 0.959 . S
H366 C380 0.929 . S
H367 C381 0.931 . S
H368 C383 0.930 . S
C369 H357 0.930 . S
C369 C370 1.399 . S
C369 C374 1.399 . S
C370 C369 1.399 . S
C370 C371 1.376 . S
C371 H358 0.930 . S
C371 C370 1.376 . S
C371 C372 1.388 . S
C372 H359 0.930 . S
C372 C371 1.388 . S
C372 C373 1.390 . S
C373 C372 1.390 . S
C373 C374 1.394 . S
C373 C379 1.465 1_655 S
C374 C369 1.399 . S
C374 C373 1.394 . S
C374 C375 1.516 . S
C375 C374 1.516 . S
C375 C376 1.502 . S
C375 C377 1.561 . S
C375 C378 1.526 1_655 S
C376 H360 0.959 1_655 S
C376 H361 0.959 . S
C376 H362 0.961 . S
C376 C375 1.502 . S
C377 H363 0.960 . S
C377 H364 0.961 . S
C377 H365 0.959 . S
C377 C375 1.561 . S
C378 C375 1.526 1_455 S
C378 C379 1.396 . S
C378 C383 1.390 . S
C379 C373 1.465 1_455 S
C379 C378 1.396 . S
C379 C380 1.399 . S
C380 H366 0.929 . S
C380 C379 1.399 . S
C380 C381 1.385 . S
C381 H367 0.931 . S
C381 C380 1.385 . S
C381 C382 1.389 . S
C382 C381 1.389 . S
C382 C383 1.387 . S
C383 H368 0.930 . S
C383 C378 1.390 . S
C383 C382 1.387 . S
H384 C396 0.930 . S
H385 C398 0.930 . S
H386 C399 0.930 . S
H387 C403 0.959 . S
H388 C403 0.959 . S
H389 C403 0.961 . S
H390 C404 0.960 . S
H391 C404 0.961 . S
H392 C404 0.959 . S
H393 C407 0.929 1_545 S
H394 C408 0.931 . S
H395 C410 0.930 . S
C396 H384 0.930 . S
C396 C397 1.399 . S
C396 C401 1.399 . S
C397 C396 1.399 . S
C397 C398 1.376 . S
C398 H385 0.930 . S
C398 C397 1.376 . S
C398 C399 1.388 . S
C399 H386 0.930 . S
C399 C398 1.388 . S
C399 C400 1.390 . S
C400 C399 1.390 . S
C400 C401 1.394 . S
C400 C406 1.465 1_545 S
C401 C396 1.399 . S
C401 C400 1.394 . S
C401 C402 1.516 1_545 S
C402 C401 1.516 1_565 S
C402 C403 1.502 . S
C402 C404 1.561 . S
C402 C405 1.526 . S
C403 H387 0.959 . S
C403 H388 0.959 . S
C403 H389 0.961 . S
C403 C402 1.502 . S
C404 H390 0.960 . S
C404 H391 0.961 . S
C404 H392 0.959 . S
C404 C402 1.561 . S
C405 C402 1.526 . S
C405 C406 1.396 . S
C405 C410 1.390 . S
C406 C400 1.465 1_565 S
C406 C405 1.396 . S
C406 C407 1.399 . S
C407 H393 0.929 1_565 S
C407 C406 1.399 . S
C407 C408 1.385 . S
C408 H394 0.931 . S
C408 C407 1.385 . S
C408 C409 1.389 . S
C409 C408 1.389 . S
C409 C410 1.387 . S
C410 H395 0.930 . S
C410 C405 1.390 . S
C410 C409 1.387 . S
H411 C423 0.930 . S
H412 C425 0.930 . S
H413 C426 0.930 . S
H414 C430 0.959 . S
H415 C430 0.959 . S
H416 C430 0.961 . S
H417 C431 0.960 . S
H418 C431 0.961 . S
H419 C431 0.959 . S
H420 C434 0.929 . S
H421 C435 0.931 . S
H422 C437 0.930 . S
C423 H411 0.930 . S
C423 C424 1.399 . S
C423 C428 1.399 . S
C424 C423 1.399 . S
C424 C425 1.376 . S
C425 H412 0.930 . S
C425 C424 1.376 . S
C425 C426 1.388 . S
C426 H413 0.930 . S
C426 C425 1.388 . S
C426 C427 1.390 . S
C427 C426 1.390 . S
C427 C428 1.394 . S
C427 C433 1.465 . S
C428 C423 1.399 . S
C428 C427 1.394 . S
C428 C429 1.516 . S
C429 C428 1.516 . S
C429 C430 1.502 . S
C429 C431 1.561 . S
C429 C432 1.526 . S
C430 H414 0.959 . S
C430 H415 0.959 . S
C430 H416 0.961 . S
C430 C429 1.502 . S
C431 H417 0.960 . S
C431 H418 0.961 . S
C431 H419 0.959 . S
C431 C429 1.561 . S
C432 C429 1.526 . S
C432 C433 1.396 . S
C432 C437 1.390 . S
C433 C427 1.465 . S
C433 C432 1.396 . S
C433 C434 1.399 . S
C434 H420 0.929 . S
C434 C433 1.399 . S
C434 C435 1.385 . S
C435 H421 0.931 . S
C435 C434 1.385 . S
C435 C436 1.389 . S
C436 C435 1.389 . S
C436 C437 1.387 . S
C437 H422 0.930 . S
C437 C432 1.390 . S
C437 C436 1.387 . S
H438 C450 0.930 . S
H439 C452 0.930 . S
H440 C453 0.930 . S
H441 C457 0.959 . S
H442 C457 0.959 . S
H443 C457 0.961 . S
H444 C458 0.960 1_655 S
H445 C458 0.961 . S
H446 C458 0.959 . S
H447 C461 0.929 . S
H448 C462 0.931 . S
H449 C464 0.930 . S
C450 H438 0.930 . S
C450 C451 1.399 . S
C450 C455 1.399 . S
C451 C450 1.399 . S
C451 C452 1.376 . S
C452 H439 0.930 . S
C452 C451 1.376 . S
C452 C453 1.388 . S
C453 H440 0.930 . S
C453 C452 1.388 . S
C453 C454 1.390 . S
C454 C453 1.390 . S
C454 C455 1.394 . S
C454 C460 1.465 1_655 S
C455 C450 1.399 . S
C455 C454 1.394 . S
C455 C456 1.516 . S
C456 C455 1.516 . S
C456 C457 1.502 . S
C456 C458 1.561 1_655 S
C456 C459 1.526 1_655 S
C457 H441 0.959 . S
C457 H442 0.959 . S
C457 H443 0.961 . S
C457 C456 1.502 . S
C458 H444 0.960 1_455 S
C458 H445 0.961 . S
C458 H446 0.959 . S
C458 C456 1.561 1_455 S
C459 C456 1.526 1_455 S
C459 C460 1.396 . S
C459 C464 1.390 . S
C460 C454 1.465 1_455 S
C460 C459 1.396 . S
C460 C461 1.399 . S
C461 H447 0.929 . S
C461 C460 1.399 . S
C461 C462 1.385 . S
C462 H448 0.931 . S
C462 C461 1.385 . S
C462 C463 1.389 . S
C463 C462 1.389 . S
C463 C464 1.387 . S
C464 H449 0.930 . S
C464 C459 1.390 . S
C464 C463 1.387 . S
H465 C477 0.930 . S
H466 C479 0.930 . S
H467 C480 0.930 . S
H468 C484 0.959 . S
H469 C484 0.959 . S
H470 C484 0.961 . S
H471 C485 0.960 . S
H472 C485 0.961 . S
H473 C485 0.959 . S
H474 C488 0.934 . S
H475 C489 0.931 . S
H476 C491 0.930 . S
C477 H465 0.930 . S
C477 C478 1.399 . S
C477 C482 1.399 . S
C478 C477 1.399 . S
C478 C479 1.376 . S
C479 H466 0.930 . S
C479 C478 1.376 . S
C479 C480 1.388 1_554 S
C480 H467 0.930 . S
C480 C479 1.388 1_556 S
C480 C481 1.386 1_556 S
C481 C480 1.386 1_554 S
C481 C482 1.421 . S
C481 C487 1.445 1_564 S
C482 C477 1.399 . S
C482 C481 1.421 . S
C482 C483 1.516 1_565 S
C483 C482 1.516 1_545 S
C483 C484 1.502 . S
C483 C485 1.561 . S
C483 C486 1.526 1_554 S
C484 H468 0.959 . S
C484 H469 0.959 . S
C484 H470 0.961 . S
C484 C483 1.502 . S
C485 H471 0.960 . S
C485 H472 0.961 . S
C485 H473 0.959 . S
C485 C483 1.561 . S
C486 C483 1.526 1_556 S
C486 C487 1.396 . S
C486 C491 1.390 . S
C487 C481 1.445 1_546 S
C487 C486 1.396 . S
C487 C488 1.399 . S
C488 H474 0.934 . S
C488 C487 1.399 . S
C488 C489 1.385 . S
C489 H475 0.931 . S
C489 C488 1.385 . S
C489 C490 1.389 . S
C490 C489 1.389 . S
C490 C491 1.387 . S
C491 H476 0.930 . S
C491 C486 1.390 . S
C491 C490 1.387 . S
H492 C504 0.930 . S
H493 C506 0.930 . S
H494 C507 0.930 . S
H495 C511 0.959 . S
H496 C511 0.959 . S
H497 C511 0.961 . S
H498 C512 0.960 1_554 S
H499 C512 0.961 . S
H500 C512 0.959 . S
H501 C515 0.929 . S
H502 C516 0.931 . S
H503 C518 0.930 . S
C504 H492 0.930 . S
C504 C505 1.399 . S
C504 C509 1.399 . S
C505 C504 1.399 . S
C505 C506 1.376 . S
C506 H493 0.930 . S
C506 C505 1.376 . S
C506 C507 1.388 . S
C507 H494 0.930 . S
C507 C506 1.388 . S
C507 C508 1.390 . S
C508 C507 1.390 . S
C508 C509 1.394 . S
C508 C514 1.465 . S
C509 C504 1.399 . S
C509 C508 1.394 . S
C509 C510 1.516 . S
C510 C509 1.516 . S
C510 C511 1.502 . S
C510 C512 1.561 1_554 S
C510 C513 1.526 1_554 S
C511 H495 0.959 . S
C511 H496 0.959 . S
C511 H497 0.961 . S
C511 C510 1.502 . S
C512 H498 0.960 1_556 S
C512 H499 0.961 . S
C512 H500 0.959 . S
C512 C510 1.561 1_556 S
C513 C510 1.526 1_556 S
C513 C514 1.396 1_556 S
C513 C518 1.390 . S
C514 C508 1.465 . S
C514 C513 1.396 1_554 S
C514 C515 1.399 1_554 S
C515 H501 0.929 . S
C515 C514 1.399 1_556 S
C515 C516 1.385 . S
C516 H502 0.931 . S
C516 C515 1.385 . S
C516 C517 1.389 . S
C517 C516 1.389 . S
C517 C518 1.387 . S
C518 H503 0.930 . S
C518 C513 1.390 . S
C518 C517 1.387 . S
H519 C531 0.930 . S
H520 C533 0.930 . S
H521 C534 0.930 . S
H522 C538 0.959 . S
H523 C538 0.959 . S
H524 C538 0.961 . S
H525 C539 0.960 . S
H526 C539 0.961 1_455 S
H527 C539 0.959 1_455 S
H528 C542 0.929 . S
H529 C543 0.931 . S
H530 C545 0.930 . S
C531 H519 0.930 . S
C531 C532 1.399 . S
C531 C536 1.399 . S
C532 C531 1.399 . S
C532 C533 1.376 . S
C533 H520 0.930 . S
C533 C532 1.376 . S
C533 C534 1.388 . S
C534 H521 0.930 . S
C534 C533 1.388 . S
C534 C535 1.390 . S
C535 C534 1.390 . S
C535 C536 1.394 . S
C535 C541 1.465 . S
C536 C531 1.399 . S
C536 C535 1.394 . S
C536 C537 1.516 . S
C537 C536 1.516 . S
C537 C538 1.502 . S
C537 C539 1.561 . S
C537 C540 1.526 . S
C538 H522 0.959 . S
C538 H523 0.959 . S
C538 H524 0.961 . S
C538 C537 1.502 . S
C539 H525 0.960 . S
C539 H526 0.961 1_655 S
C539 H527 0.959 1_655 S
C539 C537 1.561 . S
C540 C537 1.526 . S
C540 C541 1.396 . S
C540 C545 1.390 1_655 S
C541 C535 1.465 . S
C541 C540 1.396 . S
C541 C542 1.399 . S
C542 H528 0.929 . S
C542 C541 1.399 . S
C542 C543 1.385 1_655 S
C543 H529 0.931 . S
C543 C542 1.385 1_455 S
C543 C544 1.389 . S
C544 C543 1.389 . S
C544 C545 1.387 . S
C545 H530 0.930 . S
C545 C540 1.390 1_455 S
C545 C544 1.387 . S
H546 C558 0.930 . S
H547 C560 0.930 . S
H548 C561 0.930 . S
H549 C565 0.959 . S
H550 C565 0.959 . S
H551 C565 0.961 . S
H552 C566 0.960 . S
H553 C566 0.961 . S
H554 C566 0.959 . S
H555 C569 0.929 . S
H556 C570 0.931 . S
H557 C572 0.930 . S
C558 H546 0.930 . S
C558 C559 1.399 1_565 S
C558 C563 1.399 . S
C559 C558 1.399 1_545 S
C559 C560 1.376 . S
C560 H547 0.930 . S
C560 C559 1.376 . S
C560 C561 1.388 . S
C561 H548 0.930 . S
C561 C560 1.388 . S
C561 C562 1.390 1_545 S
C562 C561 1.390 1_565 S
C562 C563 1.394 . S
C562 C568 1.465 . S
C563 C558 1.399 . S
C563 C562 1.394 . S
C563 C564 1.516 . S
C564 C563 1.516 . S
C564 C565 1.502 . S
C564 C566 1.561 . S
C564 C567 1.526 . S
C565 H549 0.959 . S
C565 H550 0.959 . S
C565 H551 0.961 . S
C565 C564 1.502 . S
C566 H552 0.960 . S
C566 H553 0.961 . S
C566 H554 0.959 . S
C566 C564 1.561 . S
C567 C564 1.526 . S
C567 C568 1.396 . S
C567 C572 1.390 . S
C568 C562 1.465 . S
C568 C567 1.396 . S
C568 C569 1.399 . S
C569 H555 0.929 . S
C569 C568 1.399 . S
C569 C570 1.385 . S
C570 H556 0.931 . S
C570 C569 1.385 . S
C570 C571 1.389 . S
C571 C570 1.389 . S
C571 C572 1.387 . S
C572 H557 0.930 . S
C572 C567 1.390 . S
C572 C571 1.387 . S
H573 C585 0.930 . S
H574 C587 0.930 . S
H575 C588 0.930 . S
H576 C592 0.959 . S
H577 C592 0.959 . S
H578 C592 0.961 . S
H579 C593 0.960 . S
H580 C593 0.961 . S
H581 C593 0.959 . S
H582 C596 0.929 . S
H583 C597 0.931 . S
H584 C599 0.930 . S
C585 H573 0.930 . S
C585 C586 1.399 . S
C585 C590 1.399 . S
C586 C585 1.399 . S
C586 C587 1.376 . S
C587 H574 0.930 . S
C587 C586 1.376 . S
C587 C588 1.388 . S
C588 H575 0.930 . S
C588 C587 1.388 . S
C588 C589 1.390 . S
C589 C588 1.390 . S
C589 C590 1.394 . S
C589 C595 1.465 . S
C590 C585 1.399 . S
C590 C589 1.394 . S
C590 C591 1.516 . S
C591 C590 1.516 . S
C591 C592 1.502 . S
C591 C593 1.561 . S
C591 C594 1.526 . S
C592 H576 0.959 . S
C592 H577 0.959 . S
C592 H578 0.961 . S
C592 C591 1.502 . S
C593 H579 0.960 . S
C593 H580 0.961 . S
C593 H581 0.959 . S
C593 C591 1.561 . S
C594 C591 1.526 . S
C594 C595 1.396 . S
C594 C599 1.390 . S
C595 C589 1.465 . S
C595 C594 1.396 . S
C595 C596 1.399 . S
C596 H582 0.929 . S
C596 C595 1.399 . S
C596 C597 1.385 . S
C597 H583 0.931 . S
C597 C596 1.385 . S
C597 C598 1.389 . S
C598 C597 1.389 . S
C598 C599 1.387 . S
C599 H584 0.930 . S
C599 C594 1.390 . S
C599 C598 1.387 . S
H600 C612 0.930 . S
H601 C614 0.930 . S
H602 C615 0.930 . S
H603 C619 0.959 . S
H604 C619 0.959 . S
H605 C619 0.961 . S
H606 C620 0.960 . S
H607 C620 0.961 . S
H608 C620 0.959 1_655 S
H609 C623 0.929 . S
H610 C624 0.931 . S
H611 C626 0.922 . S
C612 H600 0.930 . S
C612 C613 1.399 . S
C612 C617 1.399 . S
C613 C612 1.399 . S
C613 C614 1.376 . S
C614 H601 0.930 . S
C614 C613 1.376 . S
C614 C615 1.388 . S
C615 H602 0.930 . S
C615 C614 1.388 . S
C615 C616 1.390 . S
C616 C615 1.390 . S
C616 C617 1.394 . S
C616 C622 1.465 . S
C617 C612 1.399 . S
C617 C616 1.394 . S
C617 C618 1.516 . S
C618 C617 1.516 . S
C618 C619 1.502 . S
C618 C620 1.561 . S
C618 C621 1.526 . S
C619 H603 0.959 . S
C619 H604 0.959 . S
C619 H605 0.961 . S
C619 C618 1.502 . S
C620 H606 0.960 . S
C620 H607 0.961 . S
C620 H608 0.959 1_455 S
C620 C618 1.561 . S
C621 C618 1.526 . S
C621 C622 1.396 . S
C621 C626 1.382 1_455 S
C622 C616 1.465 . S
C622 C621 1.396 . S
C622 C623 1.399 . S
C623 H609 0.929 . S
C623 C622 1.399 . S
C623 C624 1.385 1_455 S
C624 H610 0.931 . S
C624 C623 1.385 1_655 S
C624 C625 1.389 . S
C625 C624 1.389 . S
C625 C626 1.402 . S
C626 H611 0.922 . S
C626 C621 1.382 1_655 S
C626 C625 1.402 . S
H627 C639 0.930 . S
H628 C641 0.930 . S
H629 C642 0.930 . S
H630 C646 0.959 . S
H631 C646 0.959 . S
H632 C646 0.961 . S
H633 C647 0.960 . S
H634 C647 0.961 . S
H635 C647 0.959 . S
H636 C650 0.929 . S
H637 C651 0.931 . S
H638 C653 0.930 . S
C639 H627 0.930 . S
C639 C640 1.399 . S
C639 C644 1.399 . S
C640 C639 1.399 . S
C640 C641 1.376 . S
C641 H628 0.930 . S
C641 C640 1.376 . S
C641 C642 1.388 . S
C642 H629 0.930 . S
C642 C641 1.388 . S
C642 C643 1.390 . S
C643 C642 1.390 . S
C643 C644 1.394 . S
C643 C649 1.465 . S
C644 C639 1.399 . S
C644 C643 1.394 . S
C644 C645 1.516 . S
C645 C644 1.516 . S
C645 C646 1.502 . S
C645 C647 1.561 . S
C645 C648 1.526 . S
C646 H630 0.959 . S
C646 H631 0.959 . S
C646 H632 0.961 . S
C646 C645 1.502 . S
C647 H633 0.960 . S
C647 H634 0.961 . S
C647 H635 0.959 . S
C647 C645 1.561 . S
C648 C645 1.526 . S
C648 C649 1.396 . S
C648 C653 1.390 . S
C649 C643 1.465 . S
C649 C648 1.396 . S
C649 C650 1.399 1_545 S
C650 H636 0.929 . S
C650 C649 1.399 1_565 S
C650 C651 1.385 . S
C651 H637 0.931 . S
C651 C650 1.385 . S
C651 C652 1.389 . S
C652 C651 1.389 . S
C652 C653 1.387 1_565 S
C653 H638 0.930 . S
C653 C648 1.390 . S
C653 C652 1.387 1_545 S
H654 C666 0.930 . S
H655 C668 0.930 . S
H656 C669 0.930 . S
H657 C673 0.959 . S
H658 C673 0.959 . S
H659 C673 0.961 . S
H660 C674 0.960 . S
H661 C674 0.961 . S
H662 C674 0.959 . S
H663 C677 0.929 . S
H664 C678 0.931 . S
H665 C680 0.930 . S
C666 H654 0.930 . S
C666 C667 1.399 . S
C666 C671 1.399 . S
C667 C666 1.399 . S
C667 C668 1.376 . S
C668 H655 0.930 . S
C668 C667 1.376 . S
C668 C669 1.388 . S
C669 H656 0.930 . S
C669 C668 1.388 . S
C669 C670 1.390 . S
C670 C669 1.390 . S
C670 C671 1.394 . S
C670 C676 1.465 . S
C671 C666 1.399 . S
C671 C670 1.394 . S
C671 C672 1.516 . S
C672 C671 1.516 . S
C672 C673 1.502 . S
C672 C674 1.561 . S
C672 C675 1.526 . S
C673 H657 0.959 . S
C673 H658 0.959 . S
C673 H659 0.961 . S
C673 C672 1.502 . S
C674 H660 0.960 . S
C674 H661 0.961 . S
C674 H662 0.959 . S
C674 C672 1.561 . S
C675 C672 1.526 . S
C675 C676 1.396 . S
C675 C680 1.390 . S
C676 C670 1.465 . S
C676 C675 1.396 . S
C676 C677 1.399 . S
C677 H663 0.929 . S
C677 C676 1.399 . S
C677 C678 1.385 . S
C678 H664 0.931 . S
C678 C677 1.385 . S
C678 C679 1.389 . S
C679 C678 1.389 . S
C679 C680 1.387 . S
C680 H665 0.930 . S
C680 C675 1.390 . S
C680 C679 1.387 . S
H681 C693 0.930 . S
H682 C695 0.930 . S
H683 C696 0.930 . S
H684 C700 0.959 . S
H685 C700 0.959 . S
H686 C700 0.961 . S
H687 C701 0.960 . S
H688 C701 0.961 . S
H689 C701 0.959 . S
H690 C704 0.929 . S
H691 C705 0.931 . S
H692 C707 0.930 . S
C693 H681 0.930 . S
C693 C694 1.399 . S
C693 C698 1.399 . S
C694 C693 1.399 . S
C694 C695 1.376 . S
C695 H682 0.930 . S
C695 C694 1.376 . S
C695 C696 1.388 . S
C696 H683 0.930 . S
C696 C695 1.388 . S
C696 C697 1.390 . S
C697 C696 1.390 . S
C697 C698 1.394 . S
C697 C703 1.465 . S
C698 C693 1.399 . S
C698 C697 1.394 . S
C698 C699 1.516 . S
C699 C698 1.516 . S
C699 C700 1.502 1_556 S
C699 C701 1.561 . S
C699 C702 1.526 1_556 S
C700 H684 0.959 . S
C700 H685 0.959 . S
C700 H686 0.961 . S
C700 C699 1.502 1_554 S
C701 H687 0.960 . S
C701 H688 0.961 . S
C701 H689 0.959 . S
C701 C699 1.561 . S
C702 C699 1.526 1_554 S
C702 C703 1.396 1_554 S
C702 C707 1.390 . S
C703 C697 1.465 . S
C703 C702 1.396 1_556 S
C703 C704 1.399 1_655 S
C704 H690 0.929 . S
C704 C703 1.399 1_455 S
C704 C705 1.385 1_556 S
C705 H691 0.931 . S
C705 C704 1.385 1_554 S
C705 C706 1.389 . S
C706 C705 1.389 . S
C706 C707 1.387 1_455 S
C707 H692 0.930 . S
C707 C702 1.390 . S
C707 C706 1.387 1_655 S
H708 C720 0.930 . S
H709 C722 0.930 . S
H710 C723 0.930 . S
H711 C727 0.959 . S
H712 C727 0.959 1_545 S
H713 C727 0.961 . S
H714 C728 0.960 . S
H715 C728 0.961 . S
H716 C728 0.959 . S
H717 C731 0.929 . S
H718 C732 0.931 . S
H719 C734 0.930 . S
C720 H708 0.930 . S
C720 C721 1.399 . S
C720 C725 1.399 . S
C721 C720 1.399 . S
C721 C722 1.376 . S
C722 H709 0.930 . S
C722 C721 1.376 . S
C722 C723 1.388 . S
C723 H710 0.930 . S
C723 C722 1.388 . S
C723 C724 1.390 . S
C724 C723 1.390 . S
C724 C725 1.394 . S
C724 C730 1.465 . S
C725 C720 1.399 . S
C725 C724 1.394 . S
C725 C726 1.516 . S
C726 C725 1.516 . S
C726 C727 1.502 . S
C726 C728 1.561 1_565 S
C726 C729 1.526 . S
C727 H711 0.959 . S
C727 H712 0.959 1_565 S
C727 H713 0.961 . S
C727 C726 1.502 . S
C728 H714 0.960 . S
C728 H715 0.961 . S
C728 H716 0.959 . S
C728 C726 1.561 1_545 S
C729 C726 1.526 . S
C729 C730 1.396 . S
C729 C734 1.390 1_565 S
C730 C724 1.465 . S
C730 C729 1.396 . S
C730 C731 1.399 . S
C731 H717 0.929 . S
C731 C730 1.399 . S
C731 C732 1.385 . S
C732 H718 0.931 . S
C732 C731 1.385 . S
C732 C733 1.389 1_565 S
C733 C732 1.389 1_545 S
C733 C734 1.387 . S
C734 H719 0.930 . S
C734 C729 1.390 1_545 S
C734 C733 1.387 . S
H735 C747 0.930 . S
H736 C749 0.930 . S
H737 C750 0.930 . S
H738 C754 0.959 . S
H739 C754 0.959 . S
H740 C754 0.961 . S
H741 C755 0.960 . S
H742 C755 0.961 . S
H743 C755 0.959 . S
H744 C758 0.929 . S
H745 C759 0.931 . S
H746 C761 0.930 . S
C747 H735 0.930 . S
C747 C748 1.399 . S
C747 C752 1.399 . S
C748 C747 1.399 . S
C748 C749 1.376 . S
C749 H736 0.930 . S
C749 C748 1.376 . S
C749 C750 1.388 . S
C750 H737 0.930 . S
C750 C749 1.388 . S
C750 C751 1.390 . S
C751 C750 1.390 . S
C751 C752 1.394 . S
C751 C757 1.465 . S
C752 C747 1.399 . S
C752 C751 1.394 . S
C752 C753 1.516 . S
C753 C752 1.516 . S
C753 C754 1.502 . S
C753 C755 1.561 . S
C753 C756 1.526 . S
C754 H738 0.959 . S
C754 H739 0.959 . S
C754 H740 0.961 . S
C754 C753 1.502 . S
C755 H741 0.960 . S
C755 H742 0.961 . S
C755 H743 0.959 . S
C755 C753 1.561 . S
C756 C753 1.526 . S
C756 C757 1.396 . S
C756 C761 1.390 . S
C757 C751 1.465 . S
C757 C756 1.396 . S
C757 C758 1.399 . S
C758 H744 0.929 . S
C758 C757 1.399 . S
C758 C759 1.385 . S
C759 H745 0.931 . S
C759 C758 1.385 . S
C759 C760 1.389 . S
C760 C759 1.389 . S
C760 C761 1.387 . S
C761 H746 0.930 . S
C761 C756 1.390 . S
C761 C760 1.387 . S
H762 C774 0.930 . S
H763 C776 0.930 . S
H764 C777 0.930 . S
H765 C781 0.959 . S
H766 C781 0.959 . S
H767 C781 0.961 . S
H768 C782 0.960 . S
H769 C782 0.961 1_655 S
H770 C782 0.959 . S
H771 C785 0.929 . S
H772 C786 0.931 . S
H773 C788 0.930 . S
C774 H762 0.930 . S
C774 C775 1.399 . S
C774 C779 1.399 . S
C775 C774 1.399 . S
C775 C776 1.376 . S
C776 H763 0.930 . S
C776 C775 1.376 . S
C776 C777 1.388 . S
C777 H764 0.930 . S
C777 C776 1.388 . S
C777 C778 1.390 . S
C778 C777 1.390 . S
C778 C779 1.394 . S
C778 C784 1.465 . S
C779 C774 1.399 . S
C779 C778 1.394 . S
C779 C780 1.516 . S
C780 C779 1.516 . S
C780 C781 1.502 1_455 S
C780 C782 1.561 . S
C780 C783 1.526 . S
C781 H765 0.959 . S
C781 H766 0.959 . S
C781 H767 0.961 . S
C781 C780 1.502 1_655 S
C782 H768 0.960 . S
C782 H769 0.961 1_455 S
C782 H770 0.959 . S
C782 C780 1.561 . S
C783 C780 1.526 . S
C783 C784 1.396 . S
C783 C788 1.390 1_455 S
C784 C778 1.465 . S
C784 C783 1.396 . S
C784 C785 1.399 . S
C785 H771 0.929 . S
C785 C784 1.399 . S
C785 C786 1.385 . S
C786 H772 0.931 . S
C786 C785 1.385 . S
C786 C787 1.389 1_455 S
C787 C786 1.389 1_655 S
C787 C788 1.387 . S
C788 H773 0.930 . S
C788 C783 1.390 1_655 S
C788 C787 1.387 . S
H789 C801 0.930 . S
H790 C803 0.930 . S
H791 C804 0.930 . S
H792 C808 0.959 . S
H793 C808 0.959 . S
H794 C808 0.961 . S
H795 C809 0.960 . S
H796 C809 0.961 . S
H797 C809 0.959 . S
H798 C812 0.929 . S
H799 C813 0.931 . S
H800 C815 0.930 . S
C801 H789 0.930 . S
C801 C802 1.399 1_545 S
C801 C806 1.399 . S
C802 C801 1.399 1_565 S
C802 C803 1.376 . S
C803 H790 0.930 . S
C803 C802 1.376 . S
C803 C804 1.388 . S
C804 H791 0.930 . S
C804 C803 1.388 . S
C804 C805 1.390 1_565 S
C805 C804 1.390 1_545 S
C805 C806 1.394 . S
C805 C811 1.465 . S
C806 C801 1.399 . S
C806 C805 1.394 . S
C806 C807 1.516 . S
C807 C806 1.516 . S
C807 C808 1.502 . S
C807 C809 1.561 . S
C807 C810 1.526 . S
C808 H792 0.959 . S
C808 H793 0.959 . S
C808 H794 0.961 . S
C808 C807 1.502 . S
C809 H795 0.960 . S
C809 H796 0.961 . S
C809 H797 0.959 . S
C809 C807 1.561 . S
C810 C807 1.526 . S
C810 C811 1.396 . S
C810 C815 1.390 . S
C811 C805 1.465 . S
C811 C810 1.396 . S
C811 C812 1.399 . S
C812 H798 0.929 . S
C812 C811 1.399 . S
C812 C813 1.385 . S
C813 H799 0.931 . S
C813 C812 1.385 . S
C813 C814 1.389 . S
C814 C813 1.389 . S
C814 C815 1.387 . S
C815 H800 0.930 . S
C815 C810 1.390 . S
C815 C814 1.387 . S
C181 C123 1.305 . S
C193 C11 1.287 . S
C208 C25 1.285 . S
C220 C137 1.307 . S
C235 C39 1.308 . S
C247 C151 1.285 . S
C262 C53 1.286 . S
C274 C165 1.307 . S
C289 C95 1.289 . S
C301 C67 1.304 . S
C316 C81 1.306 . S
C328 C109 1.287 . S
C343 C131 1.001 . S
C355 C5 0.986 . S
C370 C19 0.957 . S
C382 C145 0.964 . S
C397 C159 1.004 . S
C409 C33 0.991 . S
C424 C47 0.957 . S
C436 C89 0.963 . S
C451 C103 0.999 . S
C463 C61 1.008 . S
C478 C117 1.008 . S
C490 C75 0.998 . S
C505 C0 1.426 . S
C517 C79 1.421 . S
C532 C14 1.417 . S
C544 C9 1.418 . S
C559 C23 1.388 . S
C571 C28 1.391 . S
C586 C42 1.440 . S
C598 C37 1.438 . S
C613 C56 1.412 . S
C625 C51 1.413 . S
C640 C70 1.399 . S
C652 C65 1.395 . S
C667 C84 1.401 . S
C679 C107 1.397 . S
C694 C98 1.394 . S
C706 C121 1.394 . S
C721 C112 1.435 . S
C733 C135 1.436 . S
C748 C126 1.409 . S
C760 C149 1.411 . S
C775 C140 1.438 . S
C787 C163 1.436 . S
C802 C93 1.391 . S
C814 C154 1.393 . S
