# Generated by pormake.
# Topology upa, (4)-cn, num edge types: 1
# Building blocks:
#     Node 0, Type 0, BuildingBlock: QUQFOY_clean_sbu_1, # of connection points: 4
#     Node 1, Type 0, BuildingBlock: QUQFOY_clean_sbu_1, # of connection points: 4
#     Node 2, Type 0, BuildingBlock: QUQFOY_clean_sbu_1, # of connection points: 4
#     Node 3, Type 0, BuildingBlock: QUQFOY_clean_sbu_1, # of connection points: 4
#     Node 4, Type 0, BuildingBlock: QUQFOY_clean_sbu_1, # of connection points: 4
#     Node 5, Type 0, BuildingBlock: QUQFOY_clean_sbu_1, # of connection points: 4
#     Node 6, Type 0, BuildingBlock: QUQFOY_clean_sbu_1, # of connection points: 4
#     Node 7, Type 0, BuildingBlock: QUQFOY_clean_sbu_1, # of connection points: 4
#     Edge 8, Type (0, 0), BuildingBlock: TEMPAE_clean_linker_10, # of connection points: 2
#     Edge 9, Type (0, 0), BuildingBlock: TEMPAE_clean_linker_10, # of connection points: 2
#     Edge 10, Type (0, 0), BuildingBlock: TEMPAE_clean_linker_10, # of connection points: 2
#     Edge 11, Type (0, 0), BuildingBlock: TEMPAE_clean_linker_10, # of connection points: 2
#     Edge 12, Type (0, 0), BuildingBlock: TEMPAE_clean_linker_10, # of connection points: 2
#     Edge 13, Type (0, 0), BuildingBlock: TEMPAE_clean_linker_10, # of connection points: 2
#     Edge 14, Type (0, 0), BuildingBlock: TEMPAE_clean_linker_10, # of connection points: 2
#     Edge 15, Type (0, 0), BuildingBlock: TEMPAE_clean_linker_10, # of connection points: 2
#     Edge 16, Type (0, 0), BuildingBlock: TEMPAE_clean_linker_10, # of connection points: 2
#     Edge 17, Type (0, 0), BuildingBlock: TEMPAE_clean_linker_10, # of connection points: 2
#     Edge 18, Type (0, 0), BuildingBlock: TEMPAE_clean_linker_10, # of connection points: 2
#     Edge 19, Type (0, 0), BuildingBlock: TEMPAE_clean_linker_10, # of connection points: 2
#     Edge 20, Type (0, 0), BuildingBlock: TEMPAE_clean_linker_10, # of connection points: 2
#     Edge 21, Type (0, 0), BuildingBlock: TEMPAE_clean_linker_10, # of connection points: 2
#     Edge 22, Type (0, 0), BuildingBlock: TEMPAE_clean_linker_10, # of connection points: 2
#     Edge 23, Type (0, 0), BuildingBlock: TEMPAE_clean_linker_10, # of connection points: 2
# Relax obj value: 0.119
# Max RMSD: 0.089
# Mean RMSD: 0.089
data_MOF--net-upa--node1-QUQFOY_clean_sbu_1--edge1-TEMPAE_clean_linker_10
_symmetry_space_group_name_H-M    P1
_symmetry_Int_Tables_number       1
_symmetry_cell_setting            triclinic
loop_
_symmetry_equiv_pos_as_xyz
'x, y, z'
_cell_length_a     29.712842
_cell_length_b     29.786266
_cell_length_c     42.94298
_cell_angle_alpha  90.071013
_cell_angle_beta   90.038552
_cell_angle_gamma 90.020857
loop_
_atom_site_label
_atom_site_type_symbol
_atom_site_fract_x
_atom_site_fract_y
_atom_site_fract_z
_atom_type_partial_charge
O0 O 0.20908 0.20423 0.3765 0.0
Cd1 Cd 0.20174 0.18348 0.33049 0.0
Cd2 Cd 0.1176 0.23443 0.3423 0.0
O3 O 0.1516 0.25096 0.38252 0.0
O4 O 0.26059 0.1539 0.32047 0.0
O5 O 0.23736 0.21567 0.29714 0.0
C6 C 0.26801 0.18531 0.30055 0.0
C7 C 0.06275 0.28044 0.3193 0.0
C8 C 0.18698 0.23216 0.39297 0.0
C9 C 0.11306 0.13472 0.32816 0.0
O10 O 0.09553 0.16984 0.33957 0.0
O11 O 0.15428 0.13418 0.32016 0.0
O12 O 0.05831 0.26539 0.34719 0.0
O13 O 0.10053 0.27307 0.30534 0.0
O14 O 0.32989 0.70771 0.87503 0.0
Cd15 Cd 0.34317 0.70507 0.82797 0.0
Cd16 Cd 0.28257 0.62424 0.83791 0.0
O17 O 0.27398 0.65872 0.87982 0.0
O18 O 0.37155 0.76416 0.81743 0.0
O19 O 0.30591 0.74246 0.79846 0.0
C20 C 0.33693 0.77279 0.80035 0.0
C21 C 0.23154 0.56968 0.8202 0.0
C22 C 0.29954 0.68888 0.89133 0.0
C23 C 0.38153 0.61465 0.81612 0.0
O24 O 0.34479 0.59916 0.82659 0.0
O25 O 0.38787 0.6566 0.81322 0.0
O26 O 0.25231 0.56547 0.84631 0.0
O27 O 0.23563 0.60741 0.80568 0.0
O28 O 0.80703 0.81648 0.37028 0.0
Cd29 Cd 0.81527 0.82717 0.32286 0.0
Cd30 Cd 0.88959 0.7724 0.34011 0.0
O31 O 0.84804 0.75533 0.37684 0.0
O32 O 0.759 0.85975 0.31034 0.0
O33 O 0.77617 0.79233 0.29268 0.0
C34 C 0.74817 0.82549 0.29359 0.0
C35 C 0.94508 0.72608 0.31826 0.0
C36 C 0.81974 0.78373 0.38717 0.0
C37 C 0.90501 0.86879 0.32375 0.0
O38 O 0.9153 0.83614 0.34129 0.0
O39 O 0.86761 0.86894 0.30933 0.0
O40 O 0.94648 0.73797 0.34707 0.0
O41 O 0.90939 0.7363 0.30259 0.0
O42 O 0.69695 0.29905 0.87073 0.0
Cd43 Cd 0.67391 0.29953 0.82535 0.0
Cd44 Cd 0.7217 0.3942 0.83236 0.0
O45 O 0.73157 0.36488 0.87574 0.0
O46 O 0.6475 0.23821 0.8192 0.0
O47 O 0.70618 0.26261 0.79269 0.0
C48 C 0.67787 0.23075 0.79846 0.0
C49 C 0.76654 0.45521 0.81636 0.0
C50 C 0.71884 0.32738 0.88699 0.0
C51 C 0.62211 0.3847 0.81218 0.0
O52 O 0.65726 0.40714 0.81828 0.0
O53 O 0.62125 0.34215 0.81416 0.0
O54 O 0.74123 0.4575 0.84056 0.0
O55 O 0.76951 0.41689 0.80244 0.0
O56 O 0.70621 0.31195 0.13376 0.0
Cd57 Cd 0.70022 0.32865 0.18057 0.0
Cd58 Cd 0.61657 0.27711 0.16801 0.0
O59 O 0.64984 0.26412 0.12686 0.0
O60 O 0.75905 0.35816 0.19074 0.0
O61 O 0.73726 0.2945 0.2122 0.0
C62 C 0.76747 0.32544 0.20942 0.0
C63 C 0.56222 0.22933 0.1898 0.0
C64 C 0.68429 0.28477 0.11657 0.0
C65 C 0.61123 0.37569 0.18587 0.0
O66 O 0.59398 0.34115 0.17341 0.0
O67 O 0.65266 0.37642 0.19333 0.0
O68 O 0.55732 0.24617 0.16244 0.0
O69 O 0.60024 0.23578 0.20369 0.0
O70 O 0.20247 0.2147 0.63755 0.0
Cd71 Cd 0.18159 0.20737 0.68348 0.0
Cd72 Cd 0.23308 0.12347 0.67193 0.0
O73 O 0.24954 0.15749 0.63176 0.0
O74 O 0.1523 0.26619 0.69384 0.0
O75 O 0.21422 0.24252 0.71698 0.0
C76 C 0.18397 0.27331 0.71372 0.0
C77 C 0.2796 0.06835 0.6943 0.0
C78 C 0.23056 0.19262 0.62118 0.0
C79 C 0.13253 0.11912 0.68494 0.0
O80 O 0.16821 0.10159 0.67429 0.0
O81 O 0.13164 0.16025 0.69296 0.0
O82 O 0.26398 0.06427 0.6665 0.0
O83 O 0.27226 0.10578 0.70862 0.0
O84 O 0.30851 0.691 0.14074 0.0
Cd85 Cd 0.31552 0.6831 0.18853 0.0
Cd86 Cd 0.39006 0.7371 0.17054 0.0
O87 O 0.34889 0.75236 0.13318 0.0
O88 O 0.25929 0.65043 0.20097 0.0
O89 O 0.27524 0.71879 0.2174 0.0
C90 C 0.24767 0.68524 0.21686 0.0
C91 C 0.4458 0.78397 0.19164 0.0
C92 C 0.32121 0.72303 0.12321 0.0
C93 C 0.40506 0.64176 0.18943 0.0
O94 O 0.41535 0.67324 0.1709 0.0
O95 O 0.36771 0.64255 0.20384 0.0
O96 O 0.44726 0.77089 0.16308 0.0
O97 O 0.40992 0.7747 0.20736 0.0
O98 O 0.82238 0.80678 0.63505 0.0
Cd99 Cd 0.82955 0.81755 0.68257 0.0
Cd100 Cd 0.77468 0.88661 0.66453 0.0
O101 O 0.75914 0.84419 0.62793 0.0
O102 O 0.85987 0.76231 0.69885 0.0
O103 O 0.79047 0.78146 0.7117 0.0
C104 C 0.82335 0.75319 0.71374 0.0
C105 C 0.72572 0.93592 0.68977 0.0
C106 C 0.78902 0.81722 0.61791 0.0
C107 C 0.86877 0.90801 0.6818 0.0
O108 O 0.83684 0.91641 0.66308 0.0
O109 O 0.86924 0.87113 0.69667 0.0
O110 O 0.73497 0.94031 0.66062 0.0
O111 O 0.74018 0.90034 0.70379 0.0
C112 C 0.04219 0.09329 0.33936 0.0
C113 C 0.08417 0.09458 0.32439 0.0
C114 C 0.0137 0.05616 0.33645 0.0
C115 C 0.02719 0.01938 0.31785 0.0
C116 C 0.06911 0.02061 0.30215 0.0
C117 C 0.09736 0.05817 0.30579 0.0
C118 C 0.9696 0.05589 0.35399 0.0
C119 C 0.08424 0.98208 0.28184 0.0
C120 C 0.97391 0.90928 0.34124 0.0
C121 C 0.9372 0.90647 0.32074 0.0
C122 C 1.00442 0.94499 0.33971 0.0
C123 C 0.99846 0.97861 0.31688 0.0
C124 C 0.96243 0.97529 0.29536 0.0
C125 C 0.93194 0.93936 0.29769 0.0
C126 C 0.04195 0.94766 0.36342 0.0
C127 C 0.95544 0.01032 0.27046 0.0
H128 H 0.03168 0.12119 0.35386 0.0
H129 H 0.12955 0.05912 0.29396 0.0
H130 H 0.94121 0.05025 0.33767 0.0
H131 H 0.96937 0.0279 0.37101 0.0
H132 H 0.96355 0.08779 0.36675 0.0
H133 H 0.11623 0.98956 0.26951 0.0
H134 H 0.08915 0.95161 0.29628 0.0
H135 H 0.05793 0.9741 0.26434 0.0
H136 H 0.97836 0.884 0.35912 0.0
H137 H 0.90396 0.93712 0.28155 0.0
H138 H 0.03691 0.97748 0.37854 0.0
H139 H 0.07486 0.95182 0.3516 0.0
H140 H 0.04357 0.91736 0.37843 0.0
H141 H 0.94556 0.04261 0.28139 0.0
H142 H 0.92889 1.00043 0.25356 0.0
H143 H 0.98727 0.01629 0.2576 0.0
C144 C 0.40577 0.54288 0.79215 0.0
C145 C 0.41708 0.58239 0.80809 0.0
C146 C 0.43747 0.5086 0.78791 0.0
C147 C 0.48088 0.51337 0.80104 0.0
C148 C 0.49283 0.55387 0.8164 0.0
C149 C 0.46087 0.58833 0.81928 0.0
C150 C 0.42404 0.46675 0.77032 0.0
C151 C 0.5385 0.55983 0.8313 0.0
C152 C 0.5457 0.41016 0.82657 0.0
C153 C 0.58113 0.4101 0.80519 0.0
C154 C 0.51176 0.44281 0.82485 0.0
C155 C 0.51291 0.4751 0.80062 0.0
C156 C 0.54685 0.47277 0.77757 0.0
C157 C 0.58121 0.4408 0.78054 0.0
C158 C 0.4767 0.44477 0.85025 0.0
C159 C 0.54826 0.50545 0.75075 0.0
H160 H 0.37178 0.53855 0.78341 0.0
H161 H 0.46926 0.61876 0.8319 0.0
H162 H 0.45 0.45812 0.75274 0.0
H163 H 0.42157 0.43804 0.78665 0.0
H164 H 0.3911 0.47065 0.75837 0.0
H165 H 0.5427 0.59362 0.8419 0.0
H166 H 0.54327 0.53414 0.84972 0.0
H167 H 0.56545 0.55478 0.81381 0.0
H168 H 0.54641 0.38686 0.84595 0.0
H169 H 0.60907 0.44079 0.76423 0.0
H170 H 0.44241 0.44516 0.84006 0.0
H171 H 0.48082 0.47631 0.86375 0.0
H172 H 0.47923 0.41593 0.86655 0.0
H173 H 0.51436 0.50919 0.74021 0.0
H174 H 0.57227 0.49467 0.73239 0.0
H175 H 0.55879 0.53898 0.75934 0.0
C176 C 0.5386 0.41565 0.17801 0.0
C177 C 0.58193 0.41517 0.19108 0.0
C178 C 0.51029 0.45277 0.1814 0.0
C179 C 0.52536 0.49038 0.19859 0.0
C180 C 0.56838 0.4897 0.21283 0.0
C181 C 0.59641 0.45212 0.20871 0.0
C182 C 0.4649 0.45239 0.16546 0.0
C183 C 0.58516 0.52906 0.23171 0.0
C184 C 0.47277 0.59928 0.17233 0.0
C185 C 0.437 0.60414 0.1934 0.0
C186 C 0.50285 0.56336 0.17462 0.0
C187 C 0.49749 0.53169 0.19884 0.0
C188 C 0.46258 0.53725 0.22096 0.0
C189 C 0.4324 0.57329 0.21782 0.0
C190 C 0.53914 0.55823 0.15022 0.0
C191 C 0.45638 0.50443 0.24736 0.0
H192 H 0.52696 0.38727 0.16438 0.0
H193 H 0.62963 0.45179 0.21914 0.0
H194 H 0.43785 0.45993 0.18245 0.0
H195 H 0.46389 0.47889 0.14733 0.0
H196 H 0.45739 0.4196 0.15424 0.0
H197 H 0.61712 0.52137 0.24403 0.0
H198 H 0.59089 0.55824 0.21618 0.0
H199 H 0.55952 0.53924 0.24912 0.0
H200 H 0.47667 0.623 0.1534 0.0
H201 H 0.40517 0.57719 0.23439 0.0
H202 H 0.53293 0.52733 0.1364 0.0
H203 H 0.57256 0.55455 0.16144 0.0
H204 H 0.54044 0.58726 0.13403 0.0
H205 H 0.4449 0.47164 0.23799 0.0
H206 H 0.43125 0.51637 0.26463 0.0
H207 H 0.48886 0.49857 0.25945 0.0
C208 C 0.05487 0.10301 0.70552 0.0
C209 C 0.09198 0.09045 0.68733 0.0
C210 C 0.01696 0.07486 0.70785 0.0
C211 C 0.01611 0.03374 0.69122 0.0
C212 C 0.05347 0.02105 0.67285 0.0
C213 C 0.09091 0.04937 0.67128 0.0
C214 C 0.97782 0.0891 0.72794 0.0
C215 C 0.05365 0.97784 0.65434 0.0
C216 C 0.93774 0.93658 0.70923 0.0
C217 C 0.90513 0.94152 0.68585 0.0
C218 C 0.97284 0.96787 0.71244 0.0
C219 C 0.97561 0.00451 0.69153 0.0
C220 C 0.94207 0.01034 0.66851 0.0
C221 C 0.90718 0.97893 0.66605 0.0
C222 C 0.0078 0.96089 0.73749 0.0
C223 C 0.94414 0.04862 0.64549 0.0
H224 H 0.05561 0.13454 0.71813 0.0
H225 H 0.1193 0.03943 0.65701 0.0
H226 H 0.94735 0.09358 0.71333 0.0
H227 H 0.97009 0.06253 0.74522 0.0
H228 H 0.9846 0.12099 0.74054 0.0
H229 H 0.08567 0.97269 0.64149 0.0
H230 H 0.04834 0.94879 0.67006 0.0
H231 H 0.02556 0.97798 0.6373 0.0
H232 H 0.93609 0.90808 0.72485 0.0
H233 H 0.88203 0.98319 0.648 0.0
H234 H 0.01322 0.99244 0.75074 0.0
H235 H 0.04039 0.95168 0.72664 0.0
H236 H 0.99809 0.93393 0.75403 0.0
H237 H 0.94808 0.08108 0.65787 0.0
H238 H 0.9136 0.05039 0.6306 0.0
H239 H 0.97394 0.0444 0.63021 0.0
C240 C 0.24383 0.23601 0.43603 0.0
C241 C 0.19886 0.23757 0.4262 0.0
C242 C 0.25473 0.23487 0.46791 0.0
C243 C 0.21976 0.23308 0.49029 0.0
C244 C 0.17434 0.236 0.48041 0.0
C245 C 0.16453 0.2391 0.44852 0.0
C246 C 0.30357 0.23388 0.47754 0.0
C247 C 0.1359 0.23279 0.50332 0.0
C248 C 0.23768 0.16945 0.56577 0.0
C249 C 0.2357 0.20404 0.58787 0.0
C250 C 0.23398 0.17862 0.53384 0.0
C251 C 0.22997 0.22368 0.52366 0.0
C252 C 0.23137 0.25898 0.54579 0.0
C253 C 0.23315 0.24869 0.57773 0.0
C254 C 0.23122 0.13983 0.51121 0.0
C255 C 0.22921 0.3075 0.53583 0.0
H256 H 0.27043 0.23501 0.41878 0.0
H257 H 0.1297 0.23975 0.44096 0.0
H258 H 0.30952 0.25715 0.49733 0.0
H259 H 0.31265 0.19964 0.48546 0.0
H260 H 0.32629 0.24322 0.45806 0.0
H261 H 0.10256 0.23677 0.49192 0.0
H262 H 0.13681 0.19964 0.51508 0.0
H263 H 0.13931 0.25886 0.52161 0.0
H264 H 0.23908 0.13486 0.57356 0.0
H265 H 0.23178 0.2755 0.59481 0.0
H266 H 0.25691 0.1435 0.49269 0.0
H267 H 0.19775 0.13977 0.49971 0.0
H268 H 0.2362 0.10687 0.5228 0.0
H269 H 0.25203 0.31357 0.51581 0.0
H270 H 0.23849 0.33068 0.55508 0.0
H271 H 0.19456 0.31573 0.52813 0.0
C272 C 0.33731 0.7079 0.94129 0.0
C273 C 0.29734 0.69934 0.92498 0.0
C274 C 0.33719 0.71441 0.97363 0.0
C275 C 0.29583 0.71402 0.99 0.0
C276 C 0.25506 0.70741 0.97342 0.0
C277 C 0.25637 0.69917 0.94114 0.0
C278 C 0.38159 0.7197 0.99042 0.0
C279 C 0.2102 0.70841 0.98986 0.0
C280 C 0.30399 0.68018 0.07492 0.0
C281 C 0.30905 0.72183 0.08979 0.0
C282 C 0.29838 0.67726 0.04256 0.0
C283 C 0.29608 0.71708 0.02466 0.0
C284 C 0.29842 0.75937 0.03978 0.0
C285 C 0.30587 0.76125 0.07214 0.0
C286 C 0.29771 0.63147 0.02739 0.0
C287 C 0.29441 0.80256 0.02167 0.0
H288 H 0.3691 0.70761 0.9289 0.0
H289 H 0.2254 0.69288 0.9285 0.0
H290 H 0.38215 0.75168 1.00365 0.0
H291 H 0.38585 0.69207 0.00749 0.0
H292 H 0.41073 0.71934 0.97423 0.0
H293 H 0.18154 0.70804 0.97324 0.0
H294 H 0.20715 0.67886 0.0054 0.0
H295 H 0.20765 0.73885 1.00469 0.0
H296 H 0.30692 0.64957 0.08842 0.0
H297 H 0.3095 0.7935 0.0836 0.0
H298 H 0.32739 0.62787 0.0119 0.0
H299 H 0.26727 0.62761 0.01269 0.0
H300 H 0.29832 0.60381 0.04472 0.0
H301 H 0.32512 0.80767 0.00744 0.0
H302 H 0.29017 0.8321 0.0372 0.0
H303 H 0.26538 0.8009 0.00543 0.0
C304 C 0.82954 0.79612 0.56934 0.0
C305 C 0.7886 0.80286 0.58488 0.0
C306 C 0.83085 0.78855 0.53712 0.0
C307 C 0.79009 0.78607 0.5201 0.0
C308 C 0.74847 0.78996 0.53599 0.0
C309 C 0.74822 0.79924 0.56815 0.0
C310 C 0.87601 0.78602 0.52106 0.0
C311 C 0.70429 0.78582 0.51888 0.0
C312 C 0.79839 0.8235 0.43594 0.0
C313 C 0.80652 0.78285 0.42042 0.0
C314 C 0.79174 0.82479 0.46824 0.0
C315 C 0.7916 0.78424 0.48541 0.0
C316 C 0.79703 0.74278 0.4696 0.0
C317 C 0.80538 0.74263 0.43732 0.0
C318 C 0.7875 0.86985 0.48418 0.0
C319 C 0.79537 0.69875 0.48689 0.0
H320 H 0.86089 0.79926 0.58211 0.0
H321 H 0.71649 0.80409 0.58013 0.0
H322 H 0.87855 0.75477 0.50714 0.0
H323 H 0.87955 0.81465 0.50472 0.0
H324 H 0.90453 0.78699 0.5378 0.0
H325 H 0.67538 0.78258 0.53512 0.0
H326 H 0.69888 0.81598 0.50423 0.0
H327 H 0.70478 0.75624 0.50314 0.0
H328 H 0.79966 0.85476 0.42306 0.0
H329 H 0.81136 0.71112 0.42536 0.0
H330 H 0.81613 0.87469 0.50046 0.0
H331 H 0.75617 0.87123 0.49814 0.0
H332 H 0.78721 0.89817 0.46737 0.0
H333 H 0.82602 0.69505 0.50141 0.0
H334 H 0.79334 0.6696 0.47079 0.0
H335 H 0.76594 0.69795 0.5028 0.0
C336 C 0.729 0.27424 0.93155 0.0
C337 C 0.7248 0.3184 0.92062 0.0
C338 C 0.72842 0.26485 0.96362 0.0
C339 C 0.72176 0.30028 0.98515 0.0
C340 C 0.71898 0.34509 0.97423 0.0
C341 C 0.72129 0.35365 0.94212 0.0
C342 C 0.73321 0.21686 0.97436 0.0
C343 C 0.71075 0.38377 0.99628 0.0
C344 C 0.66101 0.27625 0.06111 0.0
C345 C 0.69551 0.28197 0.08304 0.0
C346 C 0.66937 0.2811 0.02912 0.0
C347 C 0.71364 0.29045 0.01872 0.0
C348 C 0.74915 0.2934 0.04065 0.0
C349 C 0.73952 0.28997 0.07262 0.0
C350 C 0.63031 0.27875 0.00664 0.0
C351 C 0.79703 0.30166 0.03043 0.0
H352 H 0.73196 0.24693 0.91497 0.0
H353 H 0.71755 0.38777 0.93375 0.0
H354 H 0.75754 0.21469 0.99392 0.0
H355 H 0.70035 0.20443 0.98303 0.0
H356 H 0.74463 0.19434 0.9553 0.0
H357 H 0.71119 0.41674 0.98422 0.0
H358 H 0.67752 0.37951 0.00771 0.0
H359 H 0.73658 0.3842 0.01492 0.0
H360 H 0.62685 0.27059 0.06905 0.0
H361 H 0.76632 0.29423 0.08952 0.0
H362 H 0.63693 0.25332 0.98835 0.0
H363 H 0.62625 0.31162 0.99482 0.0
H364 H 0.59815 0.27018 0.01841 0.0
H365 H 0.80617 0.27863 0.0111 0.0
H366 H 0.82139 0.297 0.0498 0.0
H367 H 0.80038 0.33646 0.02158 0.0
C368 C 0.51998 0.21262 0.23878 0.0
C369 C 0.52276 0.21019 0.20623 0.0
C370 C 0.47904 0.2047 0.25427 0.0
C371 C 0.44018 0.19322 0.23682 0.0
C372 C 0.44369 0.18748 0.20417 0.0
C373 C 0.48479 0.19648 0.18925 0.0
C374 C 0.47672 0.21158 0.28907 0.0
C375 C 0.40345 0.17414 0.18477 0.0
C376 C 0.33844 0.14858 0.28105 0.0
C377 C 0.31101 0.18686 0.283 0.0
C378 C 0.38014 0.14985 0.26561 0.0
C379 C 0.39529 0.19063 0.25236 0.0
C380 C 0.36764 0.22935 0.25416 0.0
C381 C 0.32566 0.22687 0.26917 0.0
C382 C 0.40807 0.10761 0.2636 0.0
C383 C 0.38276 0.27366 0.24069 0.0
H384 H 0.54903 0.22364 0.25204 0.0
H385 H 0.48671 0.19445 0.16407 0.0
H386 H 0.45547 0.2413 0.29426 0.0
H387 H 0.46077 0.18222 0.30045 0.0
H388 H 0.51049 0.21697 0.29955 0.0
H389 H 0.41295 0.16575 0.16043 0.0
H390 H 0.3862 0.14476 0.19522 0.0
H391 H 0.3789 0.20218 0.18422 0.0
H392 H 0.32722 0.11744 0.29154 0.0
H393 H 0.30479 0.25663 0.27075 0.0
H394 H 0.44059 0.11261 0.27581 0.0
H395 H 0.41591 0.09991 0.2389 0.0
H396 H 0.39073 0.07819 0.27402 0.0
H397 H 0.41502 0.28406 0.25156 0.0
H398 H 0.3576 0.30074 0.24435 0.0
H399 H 0.38887 0.27009 0.21533 0.0
C400 C 0.29124 0.83046 0.77187 0.0
C401 C 0.33269 0.81665 0.78418 0.0
C402 C 0.28644 0.87274 0.75771 0.0
C403 C 0.32416 0.90172 0.75535 0.0
C404 C 0.36625 0.88767 0.76732 0.0
C405 C 0.36993 0.8455 0.78179 0.0
C406 C 0.24082 0.88659 0.74553 0.0
C407 C 0.40742 0.91717 0.76481 0.0
C408 C 0.3133 0.99149 0.69292 0.0
C409 C 0.29923 0.02883 0.71033 0.0
C410 C 0.32376 0.95055 0.70744 0.0
C411 C 0.31932 0.94655 0.74015 0.0
C412 C 0.3073 0.98477 0.758 0.0
C413 C 0.29775 0.02557 0.74289 0.0
C414 C 0.33741 0.91097 0.68758 0.0
C415 C 0.30189 0.9819 0.79289 0.0
H416 H 0.26227 0.80853 0.77377 0.0
H417 H 0.40215 0.83504 0.79114 0.0
H418 H 0.23001 0.91826 0.75692 0.0
H419 H 0.2428 0.89316 0.72015 0.0
H420 H 0.2147 0.86058 0.74967 0.0
H421 H 0.43786 0.90105 0.77482 0.0
H422 H 0.41408 0.92526 0.74002 0.0
H423 H 0.40153 0.94942 0.7771 0.0
H424 H 0.31465 0.99378 0.66775 0.0
H425 H 0.28652 0.05413 0.75648 0.0
H426 H 0.31026 0.8854 0.68779 0.0
H427 H 0.36812 0.89492 0.69717 0.0
H428 H 0.34396 0.92077 0.66304 0.0
H429 H 0.27302 0.95969 0.79851 0.0
H430 H 0.29585 0.0153 0.80365 0.0
H431 H 0.33228 0.96685 0.80365 0.0
C432 C 0.67722 0.86253 0.27505 0.0
C433 C 0.70414 0.82389 0.27713 0.0
C434 C 0.63447 0.86119 0.26099 0.0
C435 C 0.61786 0.8201 0.24901 0.0
C436 C 0.64504 0.78105 0.2508 0.0
C437 C 0.68791 0.78348 0.26465 0.0
C438 C 0.60693 0.90369 0.25916 0.0
C439 C 0.62852 0.73646 0.23851 0.0
C440 C 0.49198 0.79972 0.23929 0.0
C441 C 0.48698 0.80198 0.20684 0.0
C442 C 0.53406 0.80712 0.25347 0.0
C443 C 0.57197 0.81759 0.23481 0.0
C444 C 0.56641 0.82284 0.20226 0.0
C445 C 0.52411 0.81472 0.18867 0.0
C446 C 0.53849 0.80109 0.28824 0.0
C447 C 0.60565 0.83477 0.18154 0.0
H448 H 0.6895 0.89397 0.28454 0.0
H449 H 0.70833 0.75342 0.26627 0.0
H450 H 0.59762 0.91067 0.23461 0.0
H451 H 0.57515 0.89948 0.27237 0.0
H452 H 0.62523 0.93324 0.26863 0.0
H453 H 0.65366 0.70924 0.24169 0.0
H454 H 0.59702 0.72676 0.25064 0.0
H455 H 0.62054 0.73928 0.21335 0.0
H456 H 0.46364 0.78955 0.25351 0.0
H457 H 0.52059 0.81663 0.16358 0.0
H458 H 0.55549 0.83056 0.29881 0.0
H459 H 0.55968 0.77125 0.29316 0.0
H460 H 0.50534 0.79642 0.29975 0.0
H461 H 0.62382 0.86439 0.19094 0.0
H462 H 0.5949 0.8422 0.15731 0.0
H463 H 0.62985 0.80642 0.18094 0.0
C464 C 0.64405 0.15649 0.78403 0.0
C465 C 0.68026 0.1867 0.78231 0.0
C466 C 0.646 0.11422 0.76948 0.0
C467 C 0.68541 0.10148 0.75323 0.0
C468 C 0.72208 0.13185 0.75141 0.0
C469 C 0.71892 0.17421 0.76574 0.0
C470 C 0.60591 0.08321 0.7715 0.0
C471 C 0.76493 0.1194 0.73459 0.0
C472 C 0.71445 0.97862 0.73935 0.0
C473 C 0.70638 0.97428 0.7073 0.0
C474 C 0.70613 0.01934 0.75493 0.0
C475 C 0.68864 0.05639 0.73815 0.0
C476 C 0.67734 0.0511 0.70631 0.0
C477 C 0.68666 0.01026 0.69123 0.0
C478 C 0.71887 0.02358 0.78884 0.0
C479 C 0.6577 0.08937 0.68772 0.0
H480 H 0.61393 0.16596 0.79666 0.0
H481 H 0.74709 0.19726 0.76443 0.0
H482 H 0.59429 0.07409 0.74776 0.0
H483 H 0.61562 0.0516 0.78336 0.0
H484 H 0.57737 0.09855 0.78438 0.0
H485 H 0.79058 0.14651 0.73566 0.0
H486 H 0.77947 0.08852 0.74495 0.0
H487 H 0.75754 0.11198 0.70979 0.0
H488 H 0.73004 0.95116 0.7519 0.0
H489 H 0.68023 0.00716 0.66646 0.0
H490 H 0.69061 0.03796 0.80244 0.0
H491 H 0.74781 0.04692 0.79118 0.0
H492 H 0.72839 0.99078 0.79922 0.0
H493 H 0.62902 0.10474 0.70036 0.0
H494 H 0.64593 0.07837 0.66436 0.0
H495 H 0.68356 0.11585 0.68457 0.0
C496 C 0.98524 0.31298 0.31954 0.0
C497 C 0.02314 0.29895 0.30267 0.0
C498 C 0.94414 0.32181 0.30456 0.0
C499 C 0.94059 0.31572 0.27194 0.0
C500 C 0.97937 0.30386 0.25458 0.0
C501 C 0.0203 0.29599 0.27013 0.0
C502 C 0.90395 0.33542 0.32388 0.0
C503 C 0.977 0.29672 0.21981 0.0
C504 C 0.82554 0.28302 0.23992 0.0
C505 C 0.81097 0.32327 0.22637 0.0
C506 C 0.86772 0.28012 0.25465 0.0
C507 C 0.89573 0.3186 0.25638 0.0
C508 C 0.88081 0.35955 0.24325 0.0
C509 C 0.83883 0.36129 0.22819 0.0
C510 C 0.88256 0.23566 0.26805 0.0
C511 C 0.90922 0.40151 0.2451 0.0
H512 H 0.98721 0.31545 0.3447 0.0
H513 H 0.04931 0.28477 0.25695 0.0
H514 H 0.88706 0.36502 0.31344 0.0
H515 H 0.87909 0.30762 0.32426 0.0
H516 H 0.91339 0.3436 0.34827 0.0
H517 H 0.01073 0.29107 0.20938 0.0
H518 H 0.95556 0.26709 0.2147 0.0
H519 H 0.96124 0.32609 0.2083 0.0
H520 H 0.80435 0.25346 0.23845 0.0
H521 H 0.82773 0.3926 0.21791 0.0
H522 H 0.88881 0.23916 0.2934 0.0
H523 H 0.9147 0.22506 0.25713 0.0
H524 H 0.85719 0.20877 0.26439 0.0
H525 H 0.91698 0.40944 0.26978 0.0
H526 H 0.8923 0.43098 0.23443 0.0
H527 H 0.94177 0.396 0.23306 0.0
C528 C 0.14718 0.34253 0.73492 0.0
C529 C 0.18601 0.31621 0.73128 0.0
C530 C 0.14883 0.38431 0.75017 0.0
C531 C 0.19052 0.40076 0.76136 0.0
C532 C 0.22982 0.3742 0.75786 0.0
C533 C 0.22697 0.33202 0.74321 0.0
C534 C 0.106 0.41097 0.75413 0.0
C535 C 0.27512 0.39077 0.76899 0.0
C536 C 0.21017 0.52609 0.77265 0.0
C537 C 0.21121 0.52961 0.80522 0.0
C538 C 0.20186 0.48463 0.758 0.0
C539 C 0.19347 0.44598 0.77633 0.0
C540 C 0.19113 0.45016 0.80915 0.0
C541 C 0.20049 0.49178 0.82319 0.0
C542 C 0.20515 0.48163 0.72297 0.0
C543 C 0.18113 0.41014 0.82955 0.0
H544 H 0.11534 0.33037 0.72591 0.0
H545 H 0.25713 0.312 0.74026 0.0
H546 H 0.10086 0.41928 0.77908 0.0
H547 H 0.10862 0.44318 0.74134 0.0
H548 H 0.07597 0.39252 0.7455 0.0
H549 H 0.3025 0.36633 0.76422 0.0
H550 H 0.2835 0.42296 0.75735 0.0
H551 H 0.27403 0.3974 0.7944 0.0
H552 H 0.21895 0.555 0.75861 0.0
H553 H 0.20123 0.49426 0.84838 0.0
H554 H 0.17506 0.46463 0.71322 0.0
H555 H 0.23492 0.46114 0.71652 0.0
H556 H 0.20845 0.51518 0.71194 0.0
H557 H 0.15125 0.39173 0.82072 0.0
H558 H 0.17495 0.42 0.85413 0.0
H559 H 0.21002 0.38658 0.82897 0.0
C560 C 0.18705 0.72724 0.24536 0.0
C561 C 0.20335 0.68688 0.23288 0.0
C562 C 0.1441 0.7296 0.25904 0.0
C563 C 0.11686 0.69056 0.26058 0.0
C564 C 0.13346 0.64955 0.2485 0.0
C565 C 0.17633 0.64825 0.23468 0.0
C566 C 0.12761 0.77408 0.27151 0.0
C567 C 0.10579 0.60707 0.25001 0.0
C568 C 0.02328 0.69513 0.32094 0.0
C569 C 0.98616 0.70828 0.30288 0.0
C570 C 0.06552 0.68719 0.30729 0.0
C571 C 0.07101 0.69292 0.27479 0.0
C572 C 0.0331 0.70374 0.2562 0.0
C573 C 0.99108 0.71105 0.27045 0.0
C574 C 0.10481 0.67494 0.32792 0.0
C575 C 0.03744 0.7102 0.22147 0.0
H576 H 0.20755 0.75728 0.24397 0.0
H577 H 0.18865 0.61685 0.22517 0.0
H578 H 0.09611 0.7839 0.25941 0.0
H579 H 0.11965 0.77102 0.29665 0.0
H580 H 0.15277 0.80132 0.26847 0.0
H581 H 0.12394 0.57766 0.24025 0.0
H582 H 0.09663 0.59968 0.27452 0.0
H583 H 0.07394 0.61159 0.23691 0.0
H584 H 0.01982 0.69281 0.34602 0.0
H585 H 0.96273 0.72149 0.25631 0.0
H586 H 0.12909 0.70324 0.32865 0.0
H587 H 0.12285 0.64539 0.31836 0.0
H588 H 0.09412 0.66729 0.35213 0.0
H589 H 0.0586 0.74013 0.21673 0.0
H590 H 1.00427 0.71496 0.21 0.0
H591 H 0.05445 0.68089 0.21073 0.0
C592 C 0.79049 0.53531 0.82159 0.0
C593 C 0.78601 0.49679 0.803 0.0
C594 C 0.80081 0.57721 0.80839 0.0
C595 C 0.8058 0.58093 0.7757 0.0
C596 C 0.8033 0.54177 0.75697 0.0
C597 C 0.79388 0.50008 0.7709 0.0
C598 C 0.80432 0.61784 0.82931 0.0
C599 C 0.8079 0.5443 0.72201 0.0
C600 C 0.77631 0.69318 0.73846 0.0
C601 C 0.81891 0.71053 0.7313 0.0
C602 C 0.77163 0.65107 0.75288 0.0
C603 C 0.81054 0.62607 0.76094 0.0
C604 C 0.85367 0.64404 0.75456 0.0
C605 C 0.85733 0.6858 0.73953 0.0
C606 C 0.72499 0.63289 0.75889 0.0
C607 C 0.89595 0.61901 0.76342 0.0
H608 H 0.78455 0.53298 0.84644 0.0
H609 H 0.79 0.47055 0.75636 0.0
H610 H 0.83533 0.63712 0.82397 0.0
H611 H 0.77527 0.64042 0.82509 0.0
H612 H 0.80468 0.60859 0.85436 0.0
H613 H 0.80807 0.51055 0.71097 0.0
H614 H 0.77944 0.56388 0.71224 0.0
H615 H 0.83936 0.56204 0.71558 0.0
H616 H 0.74649 0.71193 0.73198 0.0
H617 H 0.89039 0.6991 0.73419 0.0
H618 H 0.72041 0.62644 0.78412 0.0
H619 H 0.7206 0.60037 0.74662 0.0
H620 H 0.6982 0.65629 0.75102 0.0
H621 H 0.89553 0.61106 0.78866 0.0
H622 H 0.92691 0.63849 0.75815 0.0
H623 H 0.89749 0.58664 0.75067 0.0
loop_
_geom_bond_atom_site_label_1
_geom_bond_atom_site_label_2
_geom_bond_distance
_geom_bond_site_symmetry_2
_ccdc_geom_bond_type
O0 Cd1 2.223 . S
O0 C8 1.315 . S
Cd1 O0 2.223 . S
Cd1 O4 2.297 . S
Cd1 O5 2.439 . S
Cd1 O11 2.240 . S
Cd2 O3 2.240 . S
Cd2 O10 2.223 . S
Cd2 O12 2.297 1_455 S
Cd2 O13 2.439 . S
O3 Cd2 2.240 . S
O3 C8 1.279 . S
O4 Cd1 2.297 . S
O4 C6 1.247 . S
O5 Cd1 2.439 . S
O5 C6 1.208 . S
C6 O4 1.247 . S
C6 O5 1.208 . S
C7 O12 1.247 . S
C7 O13 1.208 1_655 S
C8 O0 1.315 . S
C8 O3 1.279 . S
C9 O10 1.315 . S
C9 O11 1.279 . S
O10 Cd2 2.223 . S
O10 C9 1.315 . S
O11 Cd1 2.240 . S
O11 C9 1.279 . S
O12 Cd2 2.297 1_655 S
O12 C7 1.247 . S
O13 Cd2 2.439 . S
O13 C7 1.208 1_455 S
O14 Cd15 2.223 . S
O14 C22 1.315 . S
Cd15 O14 2.223 . S
Cd15 O18 2.297 . S
Cd15 O19 2.439 . S
Cd15 O25 2.240 . S
Cd16 O17 2.240 . S
Cd16 O24 2.223 . S
Cd16 O26 2.297 . S
Cd16 O27 2.439 . S
O17 Cd16 2.240 . S
O17 C22 1.279 . S
O18 Cd15 2.297 . S
O18 C20 1.247 . S
O19 Cd15 2.439 . S
O19 C20 1.208 . S
C20 O18 1.247 . S
C20 O19 1.208 . S
C21 O26 1.247 . S
C21 O27 1.208 . S
C22 O14 1.315 . S
C22 O17 1.279 . S
C23 O24 1.315 . S
C23 O25 1.279 . S
O24 Cd16 2.223 . S
O24 C23 1.315 . S
O25 Cd15 2.240 . S
O25 C23 1.279 . S
O26 Cd16 2.297 . S
O26 C21 1.247 . S
O27 Cd16 2.439 . S
O27 C21 1.208 . S
O28 Cd29 2.223 . S
O28 C36 1.315 . S
Cd29 O28 2.223 . S
Cd29 O32 2.297 . S
Cd29 O33 2.439 . S
Cd29 O39 2.240 . S
Cd30 O31 2.240 . S
Cd30 O38 2.223 . S
Cd30 O40 2.297 1_655 S
Cd30 O41 2.439 . S
O31 Cd30 2.240 . S
O31 C36 1.279 . S
O32 Cd29 2.297 . S
O32 C34 1.247 . S
O33 Cd29 2.439 . S
O33 C34 1.208 . S
C34 O32 1.247 . S
C34 O33 1.208 . S
C35 O40 1.247 . S
C35 O41 1.208 1_455 S
C36 O28 1.315 . S
C36 O31 1.279 . S
C37 O38 1.315 . S
C37 O39 1.279 . S
O38 Cd30 2.223 . S
O38 C37 1.315 . S
O39 Cd29 2.240 . S
O39 C37 1.279 . S
O40 Cd30 2.297 1_455 S
O40 C35 1.247 . S
O41 Cd30 2.439 . S
O41 C35 1.208 1_655 S
O42 Cd43 2.223 . S
O42 C50 1.315 . S
Cd43 O42 2.223 . S
Cd43 O46 2.297 . S
Cd43 O47 2.439 . S
Cd43 O53 2.240 . S
Cd44 O45 2.240 . S
Cd44 O52 2.223 . S
Cd44 O54 2.297 . S
Cd44 O55 2.439 . S
O45 Cd44 2.240 . S
O45 C50 1.279 . S
O46 Cd43 2.297 . S
O46 C48 1.247 . S
O47 Cd43 2.439 . S
O47 C48 1.208 . S
C48 O46 1.247 . S
C48 O47 1.208 . S
C49 O54 1.247 . S
C49 O55 1.208 . S
C50 O42 1.315 . S
C50 O45 1.279 . S
C51 O52 1.315 . S
C51 O53 1.279 . S
O52 Cd44 2.223 . S
O52 C51 1.315 . S
O53 Cd43 2.240 . S
O53 C51 1.279 . S
O54 Cd44 2.297 . S
O54 C49 1.247 . S
O55 Cd44 2.439 . S
O55 C49 1.208 . S
O56 Cd57 2.223 . S
O56 C64 1.315 . S
Cd57 O56 2.223 . S
Cd57 O60 2.297 . S
Cd57 O61 2.439 . S
Cd57 O67 2.240 . S
Cd58 O59 2.240 . S
Cd58 O66 2.223 . S
Cd58 O68 2.297 . S
Cd58 O69 2.439 . S
O59 Cd58 2.240 . S
O59 C64 1.279 . S
O60 Cd57 2.297 . S
O60 C62 1.247 . S
O61 Cd57 2.439 . S
O61 C62 1.208 . S
C62 O60 1.247 . S
C62 O61 1.208 . S
C63 O68 1.247 . S
C63 O69 1.208 . S
C64 O56 1.315 . S
C64 O59 1.279 . S
C65 O66 1.315 . S
C65 O67 1.279 . S
O66 Cd58 2.223 . S
O66 C65 1.315 . S
O67 Cd57 2.240 . S
O67 C65 1.279 . S
O68 Cd58 2.297 . S
O68 C63 1.247 . S
O69 Cd58 2.439 . S
O69 C63 1.208 . S
O70 Cd71 2.223 . S
O70 C78 1.315 . S
Cd71 O70 2.223 . S
Cd71 O74 2.297 . S
Cd71 O75 2.439 . S
Cd71 O81 2.240 . S
Cd72 O73 2.240 . S
Cd72 O80 2.223 . S
Cd72 O82 2.297 1_545 S
Cd72 O83 2.439 . S
O73 Cd72 2.240 . S
O73 C78 1.279 . S
O74 Cd71 2.297 . S
O74 C76 1.247 . S
O75 Cd71 2.439 . S
O75 C76 1.208 . S
C76 O74 1.247 . S
C76 O75 1.208 . S
C77 O82 1.247 . S
C77 O83 1.208 1_565 S
C78 O70 1.315 . S
C78 O73 1.279 . S
C79 O80 1.315 . S
C79 O81 1.279 . S
O80 Cd72 2.223 . S
O80 C79 1.315 . S
O81 Cd71 2.240 . S
O81 C79 1.279 . S
O82 Cd72 2.297 1_565 S
O82 C77 1.247 . S
O83 Cd72 2.439 . S
O83 C77 1.208 1_545 S
O84 Cd85 2.223 . S
O84 C92 1.315 . S
Cd85 O84 2.223 . S
Cd85 O88 2.297 . S
Cd85 O89 2.439 . S
Cd85 O95 2.240 . S
Cd86 O87 2.240 . S
Cd86 O94 2.223 . S
Cd86 O96 2.297 . S
Cd86 O97 2.439 . S
O87 Cd86 2.240 . S
O87 C92 1.279 . S
O88 Cd85 2.297 . S
O88 C90 1.247 . S
O89 Cd85 2.439 . S
O89 C90 1.208 . S
C90 O88 1.247 . S
C90 O89 1.208 . S
C91 O96 1.247 . S
C91 O97 1.208 . S
C92 O84 1.315 . S
C92 O87 1.279 . S
C93 O94 1.315 . S
C93 O95 1.279 . S
O94 Cd86 2.223 . S
O94 C93 1.315 . S
O95 Cd85 2.240 . S
O95 C93 1.279 . S
O96 Cd86 2.297 . S
O96 C91 1.247 . S
O97 Cd86 2.439 . S
O97 C91 1.208 . S
O98 Cd99 2.223 . S
O98 C106 1.315 . S
Cd99 O98 2.223 . S
Cd99 O102 2.297 . S
Cd99 O103 2.439 . S
Cd99 O109 2.240 . S
Cd100 O101 2.240 . S
Cd100 O108 2.223 . S
Cd100 O110 2.297 1_565 S
Cd100 O111 2.439 . S
O101 Cd100 2.240 . S
O101 C106 1.279 . S
O102 Cd99 2.297 . S
O102 C104 1.247 . S
O103 Cd99 2.439 . S
O103 C104 1.208 . S
C104 O102 1.247 . S
C104 O103 1.208 . S
C105 O110 1.247 . S
C105 O111 1.208 1_545 S
C106 O98 1.315 . S
C106 O101 1.279 . S
C107 O108 1.315 . S
C107 O109 1.279 . S
O108 Cd100 2.223 . S
O108 C107 1.315 . S
O109 Cd99 2.240 . S
O109 C107 1.279 . S
O110 Cd100 2.297 1_545 S
O110 C105 1.247 . S
O111 Cd100 2.439 . S
O111 C105 1.208 1_565 S
C112 C113 1.377 1_655 S
C112 C114 1.399 . S
C112 H128 0.939 . S
C113 C112 1.377 1_455 S
C113 C117 1.376 . S
C114 C112 1.399 . S
C114 C115 1.369 1_655 S
C114 C118 1.531 . S
C115 C114 1.369 1_455 S
C115 C116 1.410 . S
C115 C123 1.503 1_445 S
C116 C115 1.410 . S
C116 C117 1.392 . S
C116 C119 1.511 1_545 S
C117 C113 1.376 . S
C117 C116 1.392 . S
C117 H129 0.929 . S
C118 C114 1.531 . S
C118 H130 0.960 . S
C118 H131 0.962 . S
C118 H132 0.960 . S
C119 C116 1.511 1_565 S
C119 H133 0.961 . S
C119 H134 0.961 . S
C119 H135 0.961 . S
C120 C121 1.370 . S
C120 C122 1.363 . S
C120 H136 0.931 . S
C121 C120 1.370 . S
C121 C125 1.408 . S
C122 C120 1.363 . S
C122 C123 1.370 . S
C122 C126 1.524 1_655 S
C123 C115 1.503 1_665 S
C123 C122 1.370 . S
C123 C124 1.403 . S
C124 C123 1.403 . S
C124 C125 1.404 . S
C124 C127 1.539 . S
C125 C121 1.408 . S
C125 C124 1.404 . S
C125 H137 0.930 . S
C126 C122 1.524 1_455 S
C126 H138 0.956 1_465 S
C126 H139 0.961 . S
C126 H140 0.961 . S
C127 C124 1.539 . S
C127 H141 0.958 . S
C127 H142 0.961 . S
C127 H143 0.959 1_565 S
H128 C112 0.939 . S
H129 C117 0.929 . S
H130 C118 0.960 . S
H131 C118 0.962 . S
H132 C118 0.960 . S
H133 C119 0.961 . S
H134 C119 0.961 . S
H135 C119 0.961 . S
H136 C120 0.931 . S
H137 C125 0.930 . S
H138 C126 0.956 1_645 S
H139 C126 0.961 . S
H140 C126 0.961 . S
H141 C127 0.958 . S
H142 C127 0.961 . S
H143 C127 0.959 1_545 S
C144 C145 1.391 . S
C144 C146 1.394 . S
C144 H160 0.931 . S
C145 C144 1.391 . S
C145 C149 1.376 . S
C146 C144 1.394 . S
C146 C147 1.369 . S
C146 C150 1.531 . S
C147 C146 1.369 . S
C147 C148 1.410 . S
C147 C155 1.503 . S
C148 C147 1.410 . S
C148 C149 1.392 . S
C148 C151 1.511 . S
C149 C145 1.376 . S
C149 C148 1.392 . S
C149 H161 0.929 . S
C150 C146 1.531 . S
C150 H162 0.960 . S
C150 H163 0.962 . S
C150 H164 0.960 . S
C151 C148 1.511 . S
C151 H165 0.961 . S
C151 H166 0.961 . S
C151 H167 0.961 . S
C152 C153 1.370 . S
C152 C154 1.363 . S
C152 H168 0.931 . S
C153 C152 1.370 . S
C153 C157 1.408 . S
C154 C152 1.363 . S
C154 C155 1.370 . S
C154 C158 1.524 . S
C155 C147 1.503 . S
C155 C154 1.370 . S
C155 C156 1.403 . S
C156 C155 1.403 . S
C156 C157 1.404 . S
C156 C159 1.539 . S
C157 C153 1.408 . S
C157 C156 1.404 . S
C157 H169 0.930 . S
C158 C154 1.524 . S
C158 H170 0.956 . S
C158 H171 0.961 . S
C158 H172 0.961 . S
C159 C156 1.539 . S
C159 H173 0.958 . S
C159 H174 0.961 . S
C159 H175 0.960 . S
H160 C144 0.931 . S
H161 C149 0.929 . S
H162 C150 0.960 . S
H163 C150 0.962 . S
H164 C150 0.960 . S
H165 C151 0.961 . S
H166 C151 0.961 . S
H167 C151 0.961 . S
H168 C152 0.931 . S
H169 C157 0.930 . S
H170 C158 0.956 . S
H171 C158 0.961 . S
H172 C158 0.961 . S
H173 C159 0.958 . S
H174 C159 0.961 . S
H175 C159 0.960 . S
C176 C177 1.391 . S
C176 C178 1.394 . S
C176 H192 0.931 . S
C177 C176 1.391 . S
C177 C181 1.376 . S
C178 C176 1.394 . S
C178 C179 1.369 . S
C178 C182 1.531 . S
C179 C178 1.369 . S
C179 C180 1.410 . S
C179 C187 1.503 . S
C180 C179 1.410 . S
C180 C181 1.392 . S
C180 C183 1.511 . S
C181 C177 1.376 . S
C181 C180 1.392 . S
C181 H193 0.929 . S
C182 C178 1.531 . S
C182 H194 0.960 . S
C182 H195 0.962 . S
C182 H196 0.960 . S
C183 C180 1.511 . S
C183 H197 0.961 . S
C183 H198 0.961 . S
C183 H199 0.961 . S
C184 C185 1.370 . S
C184 C186 1.363 . S
C184 H200 0.931 . S
C185 C184 1.370 . S
C185 C189 1.408 . S
C186 C184 1.363 . S
C186 C187 1.370 . S
C186 C190 1.524 . S
C187 C179 1.503 . S
C187 C186 1.370 . S
C187 C188 1.403 . S
C188 C187 1.403 . S
C188 C189 1.404 . S
C188 C191 1.539 . S
C189 C185 1.408 . S
C189 C188 1.404 . S
C189 H201 0.930 . S
C190 C186 1.524 . S
C190 H202 0.956 . S
C190 H203 0.961 . S
C190 H204 0.961 . S
C191 C188 1.539 . S
C191 H205 0.958 . S
C191 H206 0.961 . S
C191 H207 0.960 . S
H192 C176 0.931 . S
H193 C181 0.929 . S
H194 C182 0.960 . S
H195 C182 0.962 . S
H196 C182 0.960 . S
H197 C183 0.961 . S
H198 C183 0.961 . S
H199 C183 0.961 . S
H200 C184 0.931 . S
H201 C189 0.930 . S
H202 C190 0.956 . S
H203 C190 0.961 . S
H204 C190 0.961 . S
H205 C191 0.958 . S
H206 C191 0.961 . S
H207 C191 0.960 . S
C208 C209 1.391 . S
C208 C210 1.394 . S
C208 H224 0.931 . S
C209 C208 1.391 . S
C209 C213 1.376 . S
C210 C208 1.394 . S
C210 C211 1.369 . S
C210 C214 1.531 . S
C211 C210 1.369 . S
C211 C212 1.410 . S
C211 C219 1.503 1_445 S
C212 C211 1.410 . S
C212 C213 1.392 . S
C212 C215 1.511 . S
C213 C209 1.376 . S
C213 C212 1.392 . S
C213 H225 0.929 . S
C214 C210 1.531 . S
C214 H226 0.960 1_455 S
C214 H227 0.962 . S
C214 H228 0.960 . S
C215 C212 1.511 . S
C215 H229 0.961 1_545 S
C215 H230 0.961 1_545 S
C215 H231 0.961 . S
C216 C217 1.370 . S
C216 C218 1.363 . S
C216 H232 0.931 . S
C217 C216 1.370 . S
C217 C221 1.408 1_565 S
C218 C216 1.363 . S
C218 C219 1.370 . S
C218 C222 1.524 1_655 S
C219 C211 1.503 1_665 S
C219 C218 1.370 . S
C219 C220 1.403 1_565 S
C220 C219 1.403 1_545 S
C220 C221 1.404 . S
C220 C223 1.539 . S
C221 C217 1.408 1_545 S
C221 C220 1.404 . S
C221 H233 0.930 . S
C222 C218 1.524 1_455 S
C222 H234 0.956 . S
C222 H235 0.961 . S
C222 H236 0.961 . S
C223 C220 1.539 . S
C223 H237 0.958 . S
C223 H238 0.961 . S
C223 H239 0.960 . S
H224 C208 0.931 . S
H225 C213 0.929 . S
H226 C214 0.960 1_655 S
H227 C214 0.962 . S
H228 C214 0.960 . S
H229 C215 0.961 1_565 S
H230 C215 0.961 1_565 S
H231 C215 0.961 . S
H232 C216 0.931 . S
H233 C221 0.930 . S
H234 C222 0.956 . S
H235 C222 0.961 . S
H236 C222 0.961 . S
H237 C223 0.958 . S
H238 C223 0.961 . S
H239 C223 0.960 . S
C240 C241 1.391 . S
C240 C242 1.394 . S
C240 H256 0.931 . S
C241 C240 1.391 . S
C241 C245 1.376 . S
C242 C240 1.394 . S
C242 C243 1.369 . S
C242 C246 1.531 . S
C243 C242 1.369 . S
C243 C244 1.410 . S
C243 C251 1.503 . S
C244 C243 1.410 . S
C244 C245 1.392 . S
C244 C247 1.511 . S
C245 C241 1.376 . S
C245 C244 1.392 . S
C245 H257 0.929 . S
C246 C242 1.531 . S
C246 H258 0.960 . S
C246 H259 0.962 . S
C246 H260 0.960 . S
C247 C244 1.511 . S
C247 H261 0.961 . S
C247 H262 0.961 . S
C247 H263 0.961 . S
C248 C249 1.370 . S
C248 C250 1.363 . S
C248 H264 0.931 . S
C249 C248 1.370 . S
C249 C253 1.408 . S
C250 C248 1.363 . S
C250 C251 1.370 . S
C250 C254 1.524 . S
C251 C243 1.503 . S
C251 C250 1.370 . S
C251 C252 1.403 . S
C252 C251 1.403 . S
C252 C253 1.404 . S
C252 C255 1.539 . S
C253 C249 1.408 . S
C253 C252 1.404 . S
C253 H265 0.930 . S
C254 C250 1.524 . S
C254 H266 0.956 . S
C254 H267 0.961 . S
C254 H268 0.961 . S
C255 C252 1.539 . S
C255 H269 0.958 . S
C255 H270 0.961 . S
C255 H271 0.960 . S
H256 C240 0.931 . S
H257 C245 0.929 . S
H258 C246 0.960 . S
H259 C246 0.962 . S
H260 C246 0.960 . S
H261 C247 0.961 . S
H262 C247 0.961 . S
H263 C247 0.961 . S
H264 C248 0.931 . S
H265 C253 0.930 . S
H266 C254 0.956 . S
H267 C254 0.961 . S
H268 C254 0.961 . S
H269 C255 0.958 . S
H270 C255 0.961 . S
H271 C255 0.960 . S
C272 C273 1.391 . S
C272 C274 1.394 . S
C272 H288 0.931 . S
C273 C272 1.391 . S
C273 C277 1.376 . S
C274 C272 1.394 . S
C274 C275 1.369 . S
C274 C278 1.531 . S
C275 C274 1.369 . S
C275 C276 1.410 . S
C275 C283 1.503 1_556 S
C276 C275 1.410 . S
C276 C277 1.392 . S
C276 C279 1.484 1_556 S
C277 C273 1.376 . S
C277 C276 1.392 . S
C277 H289 0.929 . S
C278 C274 1.531 . S
C278 H290 0.960 . S
C278 H291 0.962 . S
C278 H292 0.960 . S
C279 C276 1.484 1_554 S
C279 H293 0.954 1_554 S
C279 H294 0.996 . S
C279 H295 0.962 . S
C280 C281 1.370 . S
C280 C282 1.363 . S
C280 H296 0.931 . S
C281 C280 1.370 . S
C281 C285 1.408 . S
C282 C280 1.363 . S
C282 C283 1.370 . S
C282 C286 1.524 . S
C283 C275 1.503 1_554 S
C283 C282 1.370 . S
C283 C284 1.403 . S
C284 C283 1.403 . S
C284 C285 1.404 . S
C284 C287 1.539 . S
C285 C281 1.408 . S
C285 C284 1.404 . S
C285 H297 0.930 . S
C286 C282 1.524 . S
C286 H298 0.956 . S
C286 H299 0.961 . S
C286 H300 0.961 . S
C287 C284 1.539 . S
C287 H301 0.958 1_554 S
C287 H302 0.961 . S
C287 H303 0.960 1_554 S
H288 C272 0.931 . S
H289 C277 0.929 . S
H290 C278 0.960 . S
H291 C278 0.962 . S
H292 C278 0.960 . S
H293 C279 0.954 1_556 S
H294 C279 0.996 . S
H295 C279 0.962 . S
H296 C280 0.931 . S
H297 C285 0.930 . S
H298 C286 0.956 . S
H299 C286 0.961 . S
H300 C286 0.961 . S
H301 C287 0.958 1_556 S
H302 C287 0.961 . S
H303 C287 0.960 1_556 S
C304 C305 1.391 . S
C304 C306 1.394 . S
C304 H320 0.931 . S
C305 C304 1.391 . S
C305 C309 1.376 . S
C306 C304 1.394 . S
C306 C307 1.369 . S
C306 C310 1.531 . S
C307 C306 1.369 . S
C307 C308 1.410 . S
C307 C315 1.503 . S
C308 C307 1.410 . S
C308 C309 1.392 . S
C308 C311 1.511 . S
C309 C305 1.376 . S
C309 C308 1.392 . S
C309 H321 0.929 . S
C310 C306 1.531 . S
C310 H322 0.960 . S
C310 H323 0.962 . S
C310 H324 0.960 . S
C311 C308 1.511 . S
C311 H325 0.961 . S
C311 H326 0.961 . S
C311 H327 0.961 . S
C312 C313 1.370 . S
C312 C314 1.363 . S
C312 H328 0.931 . S
C313 C312 1.370 . S
C313 C317 1.408 . S
C314 C312 1.363 . S
C314 C315 1.370 . S
C314 C318 1.524 . S
C315 C307 1.503 . S
C315 C314 1.370 . S
C315 C316 1.403 . S
C316 C315 1.403 . S
C316 C317 1.404 . S
C316 C319 1.539 . S
C317 C313 1.408 . S
C317 C316 1.404 . S
C317 H329 0.930 . S
C318 C314 1.524 . S
C318 H330 0.956 . S
C318 H331 0.961 . S
C318 H332 0.961 . S
C319 C316 1.539 . S
C319 H333 0.958 . S
C319 H334 0.961 . S
C319 H335 0.960 . S
H320 C304 0.931 . S
H321 C309 0.929 . S
H322 C310 0.960 . S
H323 C310 0.962 . S
H324 C310 0.960 . S
H325 C311 0.961 . S
H326 C311 0.961 . S
H327 C311 0.961 . S
H328 C312 0.931 . S
H329 C317 0.930 . S
H330 C318 0.956 . S
H331 C318 0.961 . S
H332 C318 0.961 . S
H333 C319 0.958 . S
H334 C319 0.961 . S
H335 C319 0.960 . S
C336 C337 1.391 . S
C336 C338 1.394 . S
C336 H352 0.931 . S
C337 C336 1.391 . S
C337 C341 1.376 . S
C338 C336 1.394 . S
C338 C339 1.369 . S
C338 C342 1.531 . S
C339 C338 1.369 . S
C339 C340 1.410 . S
C339 C347 1.503 1_556 S
C340 C339 1.410 . S
C340 C341 1.392 . S
C340 C343 1.511 . S
C341 C337 1.376 . S
C341 C340 1.392 . S
C341 H353 0.929 . S
C342 C338 1.531 . S
C342 H354 0.960 1_556 S
C342 H355 0.962 . S
C342 H356 0.960 . S
C343 C340 1.511 . S
C343 H357 0.961 . S
C343 H358 0.961 . S
C343 H359 0.961 . S
C344 C345 1.370 . S
C344 C346 1.363 . S
C344 H360 0.931 . S
C345 C344 1.370 . S
C345 C349 1.408 . S
C346 C344 1.363 . S
C346 C347 1.370 . S
C346 C350 1.524 1_554 S
C347 C339 1.503 1_554 S
C347 C346 1.370 . S
C347 C348 1.403 . S
C348 C347 1.403 . S
C348 C349 1.404 . S
C348 C351 1.539 . S
C349 C345 1.408 . S
C349 C348 1.404 . S
C349 H361 0.930 . S
C350 C346 1.524 1_556 S
C350 H362 0.956 . S
C350 H363 0.961 . S
C350 H364 0.970 . S
C351 C348 1.539 . S
C351 H365 0.958 . S
C351 H366 0.961 . S
C351 H367 0.960 . S
H352 C336 0.931 . S
H353 C341 0.929 . S
H354 C342 0.960 1_554 S
H355 C342 0.962 . S
H356 C342 0.960 . S
H357 C343 0.961 . S
H358 C343 0.961 . S
H359 C343 0.961 . S
H360 C344 0.931 . S
H361 C349 0.930 . S
H362 C350 0.956 . S
H363 C350 0.961 . S
H364 C350 0.970 . S
H365 C351 0.958 . S
H366 C351 0.961 . S
H367 C351 0.960 . S
C368 C369 1.391 . S
C368 C370 1.394 . S
C368 H384 0.931 . S
C369 C368 1.391 . S
C369 C373 1.376 . S
C370 C368 1.394 . S
C370 C371 1.369 . S
C370 C374 1.531 . S
C371 C370 1.369 . S
C371 C372 1.410 . S
C371 C379 1.503 . S
C372 C371 1.410 . S
C372 C373 1.392 . S
C372 C375 1.511 . S
C373 C369 1.376 . S
C373 C372 1.392 . S
C373 H385 0.929 . S
C374 C370 1.531 . S
C374 H386 0.960 . S
C374 H387 0.962 . S
C374 H388 0.960 . S
C375 C372 1.511 . S
C375 H389 0.961 . S
C375 H390 0.961 . S
C375 H391 0.961 . S
C376 C377 1.370 . S
C376 C378 1.363 . S
C376 H392 0.931 . S
C377 C376 1.370 . S
C377 C381 1.408 . S
C378 C376 1.363 . S
C378 C379 1.370 . S
C378 C382 1.524 . S
C379 C371 1.503 . S
C379 C378 1.370 . S
C379 C380 1.403 . S
C380 C379 1.403 . S
C380 C381 1.404 . S
C380 C383 1.539 . S
C381 C377 1.408 . S
C381 C380 1.404 . S
C381 H393 0.930 . S
C382 C378 1.524 . S
C382 H394 0.956 . S
C382 H395 0.961 . S
C382 H396 0.961 . S
C383 C380 1.539 . S
C383 H397 0.958 . S
C383 H398 0.961 . S
C383 H399 0.960 . S
H384 C368 0.931 . S
H385 C373 0.929 . S
H386 C374 0.960 . S
H387 C374 0.962 . S
H388 C374 0.960 . S
H389 C375 0.961 . S
H390 C375 0.961 . S
H391 C375 0.961 . S
H392 C376 0.931 . S
H393 C381 0.930 . S
H394 C382 0.956 . S
H395 C382 0.961 . S
H396 C382 0.961 . S
H397 C383 0.958 . S
H398 C383 0.961 . S
H399 C383 0.960 . S
C400 C401 1.391 . S
C400 C402 1.394 . S
C400 H416 0.931 . S
C401 C400 1.391 . S
C401 C405 1.376 . S
C402 C400 1.394 . S
C402 C403 1.369 . S
C402 C406 1.531 . S
C403 C402 1.369 . S
C403 C404 1.410 . S
C403 C411 1.503 . S
C404 C403 1.410 . S
C404 C405 1.392 . S
C404 C407 1.511 . S
C405 C401 1.376 . S
C405 C404 1.392 . S
C405 H417 0.929 . S
C406 C402 1.531 . S
C406 H418 0.960 . S
C406 H419 0.962 . S
C406 H420 0.960 . S
C407 C404 1.511 . S
C407 H421 0.961 . S
C407 H422 0.961 . S
C407 H423 0.961 . S
C408 C409 1.370 . S
C408 C410 1.363 . S
C408 H424 0.931 . S
C409 C408 1.370 . S
C409 C413 1.408 . S
C410 C408 1.363 . S
C410 C411 1.370 . S
C410 C414 1.524 . S
C411 C403 1.503 . S
C411 C410 1.370 . S
C411 C412 1.403 . S
C412 C411 1.403 . S
C412 C413 1.404 . S
C412 C415 1.539 . S
C413 C409 1.408 . S
C413 C412 1.404 . S
C413 H425 0.930 . S
C414 C410 1.524 . S
C414 H426 0.956 . S
C414 H427 0.961 . S
C414 H428 0.961 . S
C415 C412 1.539 . S
C415 H429 0.958 . S
C415 H430 0.961 . S
C415 H431 0.960 . S
H416 C400 0.931 . S
H417 C405 0.929 . S
H418 C406 0.960 . S
H419 C406 0.962 . S
H420 C406 0.960 . S
H421 C407 0.961 . S
H422 C407 0.961 . S
H423 C407 0.961 . S
H424 C408 0.931 . S
H425 C413 0.930 . S
H426 C414 0.956 . S
H427 C414 0.961 . S
H428 C414 0.961 . S
H429 C415 0.958 . S
H430 C415 0.961 . S
H431 C415 0.960 . S
C432 C433 1.391 . S
C432 C434 1.394 . S
C432 H448 0.931 . S
C433 C432 1.391 . S
C433 C437 1.376 . S
C434 C432 1.394 . S
C434 C435 1.369 . S
C434 C438 1.531 . S
C435 C434 1.369 . S
C435 C436 1.410 . S
C435 C443 1.503 . S
C436 C435 1.410 . S
C436 C437 1.392 . S
C436 C439 1.511 . S
C437 C433 1.376 . S
C437 C436 1.392 . S
C437 H449 0.929 . S
C438 C434 1.531 . S
C438 H450 0.960 . S
C438 H451 0.962 . S
C438 H452 0.960 . S
C439 C436 1.511 . S
C439 H453 0.961 . S
C439 H454 0.961 . S
C439 H455 0.961 . S
C440 C441 1.370 . S
C440 C442 1.363 . S
C440 H456 0.931 . S
C441 C440 1.370 . S
C441 C445 1.408 . S
C442 C440 1.363 . S
C442 C443 1.370 . S
C442 C446 1.524 . S
C443 C435 1.503 . S
C443 C442 1.370 . S
C443 C444 1.403 . S
C444 C443 1.403 . S
C444 C445 1.404 . S
C444 C447 1.539 . S
C445 C441 1.408 . S
C445 C444 1.404 . S
C445 H457 0.930 . S
C446 C442 1.524 . S
C446 H458 0.956 . S
C446 H459 0.961 . S
C446 H460 0.961 . S
C447 C444 1.539 . S
C447 H461 0.958 . S
C447 H462 0.961 . S
C447 H463 0.960 . S
H448 C432 0.931 . S
H449 C437 0.929 . S
H450 C438 0.960 . S
H451 C438 0.962 . S
H452 C438 0.960 . S
H453 C439 0.961 . S
H454 C439 0.961 . S
H455 C439 0.961 . S
H456 C440 0.931 . S
H457 C445 0.930 . S
H458 C446 0.956 . S
H459 C446 0.961 . S
H460 C446 0.961 . S
H461 C447 0.958 . S
H462 C447 0.961 . S
H463 C447 0.960 . S
C464 C465 1.391 . S
C464 C466 1.394 . S
C464 H480 0.931 . S
C465 C464 1.391 . S
C465 C469 1.376 . S
C466 C464 1.394 . S
C466 C467 1.369 . S
C466 C470 1.531 . S
C467 C466 1.369 . S
C467 C468 1.410 . S
C467 C475 1.503 . S
C468 C467 1.410 . S
C468 C469 1.392 . S
C468 C471 1.511 . S
C469 C465 1.376 . S
C469 C468 1.392 . S
C469 H481 0.929 . S
C470 C466 1.531 . S
C470 H482 0.960 . S
C470 H483 0.962 . S
C470 H484 0.960 . S
C471 C468 1.511 . S
C471 H485 0.961 . S
C471 H486 0.961 . S
C471 H487 0.961 . S
C472 C473 1.370 . S
C472 C474 1.363 . S
C472 H488 0.931 . S
C473 C472 1.370 . S
C473 C477 1.408 . S
C474 C472 1.363 . S
C474 C475 1.370 . S
C474 C478 1.524 . S
C475 C467 1.503 . S
C475 C474 1.370 . S
C475 C476 1.403 . S
C476 C475 1.403 . S
C476 C477 1.404 . S
C476 C479 1.539 . S
C477 C473 1.408 . S
C477 C476 1.404 . S
C477 H489 0.930 . S
C478 C474 1.524 . S
C478 H490 0.956 . S
C478 H491 0.961 . S
C478 H492 0.961 . S
C479 C476 1.539 . S
C479 H493 0.958 . S
C479 H494 0.961 . S
C479 H495 0.960 . S
H480 C464 0.931 . S
H481 C469 0.929 . S
H482 C470 0.960 . S
H483 C470 0.962 . S
H484 C470 0.960 . S
H485 C471 0.961 . S
H486 C471 0.961 . S
H487 C471 0.961 . S
H488 C472 0.931 . S
H489 C477 0.930 . S
H490 C478 0.956 . S
H491 C478 0.961 . S
H492 C478 0.961 . S
H493 C479 0.958 . S
H494 C479 0.961 . S
H495 C479 0.960 . S
C496 C497 1.391 . S
C496 C498 1.394 . S
C496 H512 0.931 . S
C497 C496 1.391 . S
C497 C501 1.376 . S
C498 C496 1.394 . S
C498 C499 1.369 . S
C498 C502 1.531 . S
C499 C498 1.369 . S
C499 C500 1.410 . S
C499 C507 1.503 . S
C500 C499 1.410 . S
C500 C501 1.392 . S
C500 C503 1.511 . S
C501 C497 1.376 . S
C501 C500 1.392 . S
C501 H513 0.929 . S
C502 C498 1.531 . S
C502 H514 0.960 . S
C502 H515 0.962 . S
C502 H516 0.960 . S
C503 C500 1.511 . S
C503 H517 0.961 . S
C503 H518 0.961 . S
C503 H519 0.961 . S
C504 C505 1.370 . S
C504 C506 1.363 . S
C504 H520 0.931 . S
C505 C504 1.370 . S
C505 C509 1.408 . S
C506 C504 1.363 . S
C506 C507 1.370 . S
C506 C510 1.524 . S
C507 C499 1.503 . S
C507 C506 1.370 . S
C507 C508 1.403 . S
C508 C507 1.403 . S
C508 C509 1.404 . S
C508 C511 1.539 . S
C509 C505 1.408 . S
C509 C508 1.404 . S
C509 H521 0.930 . S
C510 C506 1.524 . S
C510 H522 0.956 . S
C510 H523 0.961 . S
C510 H524 0.961 . S
C511 C508 1.539 . S
C511 H525 0.958 . S
C511 H526 0.961 . S
C511 H527 0.960 . S
H512 C496 0.931 . S
H513 C501 0.929 . S
H514 C502 0.960 . S
H515 C502 0.962 . S
H516 C502 0.960 . S
H517 C503 0.961 . S
H518 C503 0.961 . S
H519 C503 0.961 . S
H520 C504 0.931 . S
H521 C509 0.930 . S
H522 C510 0.956 . S
H523 C510 0.961 . S
H524 C510 0.961 . S
H525 C511 0.958 . S
H526 C511 0.961 . S
H527 C511 0.960 . S
C528 C529 1.391 . S
C528 C530 1.394 . S
C528 H544 0.931 . S
C529 C528 1.391 . S
C529 C533 1.376 . S
C530 C528 1.394 . S
C530 C531 1.369 . S
C530 C534 1.531 . S
C531 C530 1.369 . S
C531 C532 1.410 . S
C531 C539 1.503 . S
C532 C531 1.410 . S
C532 C533 1.392 . S
C532 C535 1.511 . S
C533 C529 1.376 . S
C533 C532 1.392 . S
C533 H545 0.929 . S
C534 C530 1.531 . S
C534 H546 0.960 . S
C534 H547 0.962 . S
C534 H548 0.960 . S
C535 C532 1.511 . S
C535 H549 0.961 . S
C535 H550 0.961 . S
C535 H551 0.961 . S
C536 C537 1.370 . S
C536 C538 1.363 . S
C536 H552 0.931 . S
C537 C536 1.370 . S
C537 C541 1.408 . S
C538 C536 1.363 . S
C538 C539 1.370 . S
C538 C542 1.524 . S
C539 C531 1.503 . S
C539 C538 1.370 . S
C539 C540 1.403 . S
C540 C539 1.403 . S
C540 C541 1.404 . S
C540 C543 1.539 . S
C541 C537 1.408 . S
C541 C540 1.404 . S
C541 H553 0.930 . S
C542 C538 1.524 . S
C542 H554 0.956 . S
C542 H555 0.961 . S
C542 H556 0.961 . S
C543 C540 1.539 . S
C543 H557 0.958 . S
C543 H558 0.961 . S
C543 H559 0.960 . S
H544 C528 0.931 . S
H545 C533 0.929 . S
H546 C534 0.960 . S
H547 C534 0.962 . S
H548 C534 0.960 . S
H549 C535 0.961 . S
H550 C535 0.961 . S
H551 C535 0.961 . S
H552 C536 0.931 . S
H553 C541 0.930 . S
H554 C542 0.956 . S
H555 C542 0.961 . S
H556 C542 0.961 . S
H557 C543 0.958 . S
H558 C543 0.961 . S
H559 C543 0.960 . S
C560 C561 1.391 . S
C560 C562 1.394 . S
C560 H576 0.931 . S
C561 C560 1.391 . S
C561 C565 1.376 . S
C562 C560 1.394 . S
C562 C563 1.369 . S
C562 C566 1.531 . S
C563 C562 1.369 . S
C563 C564 1.410 . S
C563 C571 1.503 . S
C564 C563 1.410 . S
C564 C565 1.392 . S
C564 C567 1.511 . S
C565 C561 1.376 . S
C565 C564 1.392 . S
C565 H577 0.929 . S
C566 C562 1.531 . S
C566 H578 0.960 . S
C566 H579 0.962 . S
C566 H580 0.960 . S
C567 C564 1.511 . S
C567 H581 0.961 . S
C567 H582 0.961 . S
C567 H583 0.961 . S
C568 C569 1.370 . S
C568 C570 1.363 . S
C568 H584 0.931 . S
C569 C568 1.370 . S
C569 C573 1.408 . S
C570 C568 1.363 . S
C570 C571 1.370 . S
C570 C574 1.524 . S
C571 C563 1.503 . S
C571 C570 1.370 . S
C571 C572 1.403 . S
C572 C571 1.403 . S
C572 C573 1.404 . S
C572 C575 1.539 . S
C573 C569 1.408 . S
C573 C572 1.404 . S
C573 H585 0.930 . S
C574 C570 1.524 . S
C574 H586 0.956 . S
C574 H587 0.961 . S
C574 H588 0.961 . S
C575 C572 1.539 . S
C575 H589 0.958 . S
C575 H590 0.961 . S
C575 H591 0.960 . S
H576 C560 0.931 . S
H577 C565 0.929 . S
H578 C566 0.960 . S
H579 C566 0.962 . S
H580 C566 0.960 . S
H581 C567 0.961 . S
H582 C567 0.961 . S
H583 C567 0.961 . S
H584 C568 0.931 . S
H585 C573 0.930 . S
H586 C574 0.956 . S
H587 C574 0.961 . S
H588 C574 0.961 . S
H589 C575 0.958 . S
H590 C575 0.961 . S
H591 C575 0.960 . S
C592 C593 1.391 . S
C592 C594 1.394 . S
C592 H608 0.931 . S
C593 C592 1.391 . S
C593 C597 1.376 . S
C594 C592 1.394 . S
C594 C595 1.369 . S
C594 C598 1.531 . S
C595 C594 1.369 . S
C595 C596 1.410 . S
C595 C603 1.503 . S
C596 C595 1.410 . S
C596 C597 1.392 . S
C596 C599 1.511 . S
C597 C593 1.376 . S
C597 C596 1.392 . S
C597 H609 0.929 . S
C598 C594 1.531 . S
C598 H610 0.960 . S
C598 H611 0.962 . S
C598 H612 0.960 . S
C599 C596 1.511 . S
C599 H613 0.961 . S
C599 H614 0.961 . S
C599 H615 0.961 . S
C600 C601 1.370 . S
C600 C602 1.363 . S
C600 H616 0.931 . S
C601 C600 1.370 . S
C601 C605 1.408 . S
C602 C600 1.363 . S
C602 C603 1.370 . S
C602 C606 1.524 . S
C603 C595 1.503 . S
C603 C602 1.370 . S
C603 C604 1.403 . S
C604 C603 1.403 . S
C604 C605 1.404 . S
C604 C607 1.539 . S
C605 C601 1.408 . S
C605 C604 1.404 . S
C605 H617 0.930 . S
C606 C602 1.524 . S
C606 H618 0.956 . S
C606 H619 0.961 . S
C606 H620 0.961 . S
C607 C604 1.539 . S
C607 H621 0.958 . S
C607 H622 0.961 . S
C607 H623 0.960 . S
H608 C592 0.931 . S
H609 C597 0.929 . S
H610 C598 0.960 . S
H611 C598 0.962 . S
H612 C598 0.960 . S
H613 C599 0.961 . S
H614 C599 0.961 . S
H615 C599 0.961 . S
H616 C600 0.931 . S
H617 C605 0.930 . S
H618 C606 0.956 . S
H619 C606 0.961 . S
H620 C606 0.961 . S
H621 C607 0.958 . S
H622 C607 0.961 . S
H623 C607 0.960 . S
C113 C9 0.829 . S
C121 C37 0.838 . S
C145 C23 0.855 . S
C153 C51 0.828 . S
C177 C65 0.830 . S
C185 C93 0.838 . S
C209 C79 0.870 . S
C217 C107 0.826 . S
C241 C8 1.391 . S
C249 C78 1.357 . S
C273 C22 1.353 . S
C281 C92 1.373 . S
C305 C106 1.361 . S
C313 C36 1.371 . S
C337 C50 1.390 . S
C345 C64 1.357 . S
C369 C63 1.740 . S
C377 C6 1.722 . S
C401 C20 1.715 . S
C409 C77 1.780 . S
C433 C34 1.744 . S
C441 C91 1.760 . S
C465 C48 1.706 . S
C473 C105 1.763 . S
C497 C7 1.794 . S
C505 C62 1.711 . S
C529 C76 1.748 . S
C537 C21 1.762 . S
C561 C90 1.749 . S
C569 C35 1.763 . S
C593 C49 1.759 . S
C601 C104 1.708 . S
