# Generated by pormake.
# Topology pcl, (4)-cn, num edge types: 1
# Building blocks:
#     Node 0, Type 0, BuildingBlock: QUQFOY_clean_sbu_1, # of connection points: 4
#     Node 1, Type 0, BuildingBlock: QUQFOY_clean_sbu_1, # of connection points: 4
#     Node 2, Type 0, BuildingBlock: QUQFOY_clean_sbu_1, # of connection points: 4
#     Node 3, Type 0, BuildingBlock: QUQFOY_clean_sbu_1, # of connection points: 4
#     Node 4, Type 0, BuildingBlock: QUQFOY_clean_sbu_1, # of connection points: 4
#     Node 5, Type 0, BuildingBlock: QUQFOY_clean_sbu_1, # of connection points: 4
#     Node 6, Type 0, BuildingBlock: QUQFOY_clean_sbu_1, # of connection points: 4
#     Node 7, Type 0, BuildingBlock: QUQFOY_clean_sbu_1, # of connection points: 4
#     Node 8, Type 0, BuildingBlock: QUQFOY_clean_sbu_1, # of connection points: 4
#     Node 9, Type 0, BuildingBlock: QUQFOY_clean_sbu_1, # of connection points: 4
#     Node 10, Type 0, BuildingBlock: QUQFOY_clean_sbu_1, # of connection points: 4
#     Node 11, Type 0, BuildingBlock: QUQFOY_clean_sbu_1, # of connection points: 4
#     Node 12, Type 0, BuildingBlock: QUQFOY_clean_sbu_1, # of connection points: 4
#     Node 13, Type 0, BuildingBlock: QUQFOY_clean_sbu_1, # of connection points: 4
#     Node 14, Type 0, BuildingBlock: QUQFOY_clean_sbu_1, # of connection points: 4
#     Node 15, Type 0, BuildingBlock: QUQFOY_clean_sbu_1, # of connection points: 4
#     Edge 16, Type (0, 0), BuildingBlock: TEMPAE_clean_linker_10, # of connection points: 2
#     Edge 17, Type (0, 0), BuildingBlock: TEMPAE_clean_linker_10, # of connection points: 2
#     Edge 18, Type (0, 0), BuildingBlock: TEMPAE_clean_linker_10, # of connection points: 2
#     Edge 19, Type (0, 0), BuildingBlock: TEMPAE_clean_linker_10, # of connection points: 2
#     Edge 20, Type (0, 0), BuildingBlock: TEMPAE_clean_linker_10, # of connection points: 2
#     Edge 21, Type (0, 0), BuildingBlock: TEMPAE_clean_linker_10, # of connection points: 2
#     Edge 22, Type (0, 0), BuildingBlock: TEMPAE_clean_linker_10, # of connection points: 2
#     Edge 23, Type (0, 0), BuildingBlock: TEMPAE_clean_linker_10, # of connection points: 2
#     Edge 24, Type (0, 0), BuildingBlock: TEMPAE_clean_linker_10, # of connection points: 2
#     Edge 25, Type (0, 0), BuildingBlock: TEMPAE_clean_linker_10, # of connection points: 2
#     Edge 26, Type (0, 0), BuildingBlock: TEMPAE_clean_linker_10, # of connection points: 2
#     Edge 27, Type (0, 0), BuildingBlock: TEMPAE_clean_linker_10, # of connection points: 2
#     Edge 28, Type (0, 0), BuildingBlock: TEMPAE_clean_linker_10, # of connection points: 2
#     Edge 29, Type (0, 0), BuildingBlock: TEMPAE_clean_linker_10, # of connection points: 2
#     Edge 30, Type (0, 0), BuildingBlock: TEMPAE_clean_linker_10, # of connection points: 2
#     Edge 31, Type (0, 0), BuildingBlock: TEMPAE_clean_linker_10, # of connection points: 2
#     Edge 32, Type (0, 0), BuildingBlock: TEMPAE_clean_linker_10, # of connection points: 2
#     Edge 33, Type (0, 0), BuildingBlock: TEMPAE_clean_linker_10, # of connection points: 2
#     Edge 34, Type (0, 0), BuildingBlock: TEMPAE_clean_linker_10, # of connection points: 2
#     Edge 35, Type (0, 0), BuildingBlock: TEMPAE_clean_linker_10, # of connection points: 2
#     Edge 36, Type (0, 0), BuildingBlock: TEMPAE_clean_linker_10, # of connection points: 2
#     Edge 37, Type (0, 0), BuildingBlock: TEMPAE_clean_linker_10, # of connection points: 2
#     Edge 38, Type (0, 0), BuildingBlock: TEMPAE_clean_linker_10, # of connection points: 2
#     Edge 39, Type (0, 0), BuildingBlock: TEMPAE_clean_linker_10, # of connection points: 2
#     Edge 40, Type (0, 0), BuildingBlock: TEMPAE_clean_linker_10, # of connection points: 2
#     Edge 41, Type (0, 0), BuildingBlock: TEMPAE_clean_linker_10, # of connection points: 2
#     Edge 42, Type (0, 0), BuildingBlock: TEMPAE_clean_linker_10, # of connection points: 2
#     Edge 43, Type (0, 0), BuildingBlock: TEMPAE_clean_linker_10, # of connection points: 2
#     Edge 44, Type (0, 0), BuildingBlock: TEMPAE_clean_linker_10, # of connection points: 2
#     Edge 45, Type (0, 0), BuildingBlock: TEMPAE_clean_linker_10, # of connection points: 2
#     Edge 46, Type (0, 0), BuildingBlock: TEMPAE_clean_linker_10, # of connection points: 2
#     Edge 47, Type (0, 0), BuildingBlock: TEMPAE_clean_linker_10, # of connection points: 2
# Relax obj value: 0.092
# Max RMSD: 0.136
# Mean RMSD: 0.119
data_MOF--net-pcl--node1-QUQFOY_clean_sbu_1--edge1-TEMPAE_clean_linker_10
_symmetry_space_group_name_H-M    P1
_symmetry_Int_Tables_number       1
_symmetry_cell_setting            triclinic
loop_
_symmetry_equiv_pos_as_xyz
'x, y, z'
_cell_length_a     54.016672
_cell_length_b     45.169501
_cell_length_c     46.803905
_cell_angle_alpha  90.05997
_cell_angle_beta   89.970485
_cell_angle_gamma 90.025587
loop_
_atom_site_label
_atom_site_type_symbol
_atom_site_fract_x
_atom_site_fract_y
_atom_site_fract_z
_atom_type_partial_charge
O0 O 0.15554 0.31745 0.13481 0.0
Cd1 Cd 0.14859 0.31207 0.09178 0.0
Cd2 Cd 0.14105 0.37137 0.09304 0.0
O3 O 0.15415 0.36628 0.13439 0.0
O4 O 0.16664 0.2763 0.07821 0.0
O5 O 0.17529 0.3217 0.06339 0.0
C6 C 0.18007 0.29365 0.06271 0.0
C7 C 0.15283 0.41373 0.06744 0.0
C8 C 0.15773 0.3421 0.14769 0.0
C9 C 0.09739 0.33095 0.07887 0.0
O10 O 0.10549 0.35689 0.08386 0.0
O11 O 0.11194 0.30889 0.07989 0.0
O12 O 0.1376 0.41505 0.08856 0.0
O13 O 0.16219 0.38822 0.06123 0.0
O14 O 0.85361 0.68443 0.63632 0.0
Cd15 Cd 0.86057 0.68937 0.59328 0.0
Cd16 Cd 0.86861 0.63048 0.59492 0.0
O17 O 0.85548 0.63563 0.6363 0.0
O18 O 0.84193 0.7244 0.57916 0.0
O19 O 0.83416 0.67849 0.56503 0.0
C20 C 0.82886 0.70639 0.56391 0.0
C21 C 0.85653 0.5885 0.56889 0.0
C22 C 0.85164 0.6599 0.6494 0.0
C23 C 0.91194 0.67121 0.58052 0.0
O24 O 0.9041 0.64519 0.58566 0.0
O25 O 0.89716 0.69306 0.5814 0.0
O26 O 0.87185 0.58681 0.58989 0.0
O27 O 0.84727 0.61415 0.56306 0.0
O28 O 0.15698 0.68725 0.87143 0.0
Cd29 Cd 0.14996 0.69255 0.91447 0.0
Cd30 Cd 0.14216 0.6333 0.913 0.0
O31 O 0.15526 0.63844 0.87162 0.0
O32 O 0.16857 0.72784 0.92829 0.0
O33 O 0.17637 0.68219 0.94296 0.0
C34 C 0.18166 0.71011 0.94377 0.0
C35 C 0.15366 0.59075 0.93845 0.0
C36 C 0.15902 0.66265 0.85843 0.0
C37 C 0.09867 0.67397 0.92734 0.0
O38 O 0.1067 0.64801 0.92234 0.0
O39 O 0.11327 0.69601 0.92629 0.0
O40 O 0.13843 0.58963 0.91734 0.0
O41 O 0.1632 0.61616 0.94472 0.0
O42 O 0.85101 0.31658 0.37023 0.0
Cd43 Cd 0.8581 0.31144 0.41324 0.0
Cd44 Cd 0.86525 0.3708 0.41179 0.0
O45 O 0.85196 0.36542 0.37052 0.0
O46 O 0.84038 0.27549 0.42688 0.0
O47 O 0.83136 0.32083 0.44167 0.0
C48 C 0.82682 0.29272 0.44239 0.0
C49 C 0.85364 0.41315 0.43756 0.0
C50 C 0.84856 0.34113 0.35729 0.0
C51 C 0.90919 0.33087 0.42583 0.0
O52 O 0.90092 0.35669 0.42072 0.0
O53 O 0.89478 0.30866 0.42501 0.0
O54 O 0.86859 0.41451 0.41618 0.0
O55 O 0.84436 0.38762 0.44385 0.0
O56 O 0.86075 0.62699 0.97788 0.0
Cd57 Cd 0.86434 0.67026 0.96476 0.0
Cd58 Cd 0.86878 0.64328 0.91151 0.0
O59 O 0.85688 0.60703 0.93498 0.0
O60 O 0.84883 0.69499 0.99511 0.0
O61 O 0.83407 0.69205 0.9511 0.0
C62 C 0.83203 0.70225 0.97683 0.0
C63 C 0.85779 0.64492 0.863 0.0
C64 C 0.85659 0.60467 0.96206 0.0
C65 C 0.91337 0.67602 0.93769 0.0
O66 O 0.90425 0.65934 0.91849 0.0
O67 O 0.90001 0.68496 0.95832 0.0
O68 O 0.87367 0.62624 0.87265 0.0
O69 O 0.84716 0.66231 0.88115 0.0
O70 O 0.14705 0.37944 0.4756 0.0
Cd71 Cd 0.14346 0.33622 0.46236 0.0
Cd72 Cd 0.139 0.36298 0.40936 0.0
O73 O 0.1509 0.39938 0.43275 0.0
O74 O 0.15898 0.31144 0.49254 0.0
O75 O 0.17368 0.31452 0.44848 0.0
C76 C 0.17574 0.30423 0.47414 0.0
C77 C 0.15036 0.36048 0.36101 0.0
C78 C 0.1512 0.40175 0.45982 0.0
C79 C 0.09445 0.33031 0.43552 0.0
O80 O 0.1035 0.34701 0.41631 0.0
O81 O 0.10786 0.32144 0.45608 0.0
O82 O 0.1345 0.37943 0.37025 0.0
O83 O 0.16079 0.34335 0.37949 0.0
O84 O 0.85975 0.37767 0.02941 0.0
Cd85 Cd 0.86316 0.33426 0.0421 0.0
Cd86 Cd 0.86761 0.36057 0.09555 0.0
O87 O 0.85603 0.39724 0.07248 0.0
O88 O 0.84772 0.30987 0.01147 0.0
O89 O 0.83279 0.31243 0.05545 0.0
C90 C 0.83084 0.30246 0.02963 0.0
C91 C 0.85629 0.35813 0.14394 0.0
C92 C 0.85577 0.39988 0.04543 0.0
C93 C 0.91213 0.32803 0.06909 0.0
O94 O 0.90305 0.34449 0.0885 0.0
O95 O 0.89877 0.31941 0.04836 0.0
O96 O 0.8723 0.37691 0.13472 0.0
O97 O 0.84572 0.34111 0.12543 0.0
O98 O 0.14942 0.62809 0.52987 0.0
Cd99 Cd 0.14598 0.67141 0.54289 0.0
Cd100 Cd 0.14173 0.64428 0.5963 0.0
O101 O 0.15335 0.60796 0.57265 0.0
O102 O 0.16057 0.69587 0.51177 0.0
O103 O 0.17647 0.69365 0.55527 0.0
C104 C 0.17778 0.70354 0.52939 0.0
C105 C 0.15283 0.64612 0.6448 0.0
C106 C 0.15348 0.60569 0.54555 0.0
C107 C 0.09708 0.67696 0.57033 0.0
O108 O 0.10626 0.6603 0.58947 0.0
O109 O 0.11036 0.68595 0.54968 0.0
O110 O 0.13694 0.62738 0.63523 0.0
O111 O 0.16346 0.6634 0.62658 0.0
O112 O 0.65671 0.81708 0.13472 0.0
Cd113 Cd 0.6493 0.81572 0.09116 0.0
Cd114 Cd 0.64262 0.87317 0.09948 0.0
O115 O 0.66027 0.86559 0.13769 0.0
O116 O 0.66592 0.77979 0.07553 0.0
O117 O 0.67672 0.82542 0.06365 0.0
C118 C 0.68038 0.79722 0.06142 0.0
C119 C 0.65309 0.91457 0.07202 0.0
C120 C 0.66208 0.84016 0.14907 0.0
C121 C 0.59774 0.836 0.08618 0.0
O122 O 0.60606 0.85985 0.09691 0.0
O123 O 0.61244 0.81539 0.07887 0.0
O124 O 0.64064 0.917 0.09539 0.0
O125 O 0.66036 0.88844 0.06452 0.0
O126 O 0.35389 0.1879 0.62947 0.0
Cd127 Cd 0.36023 0.19301 0.58626 0.0
Cd128 Cd 0.36723 0.1338 0.58752 0.0
O129 O 0.35415 0.13906 0.62887 0.0
O130 O 0.34193 0.22864 0.57298 0.0
O131 O 0.33305 0.18309 0.55864 0.0
C132 C 0.32821 0.21112 0.55796 0.0
C133 C 0.3554 0.09146 0.56186 0.0
C134 C 0.3512 0.16332 0.64229 0.0
C135 C 0.41106 0.17366 0.57257 0.0
O136 O 0.40286 0.14793 0.57825 0.0
O137 O 0.39663 0.19585 0.57332 0.0
O138 O 0.37044 0.09008 0.58314 0.0
O139 O 0.3462 0.11702 0.55557 0.0
O140 O 0.65434 0.18506 0.8719 0.0
Cd141 Cd 0.64731 0.19094 0.91487 0.0
Cd142 Cd 0.63979 0.13167 0.91418 0.0
O143 O 0.65292 0.13625 0.87281 0.0
O144 O 0.66564 0.22664 0.92815 0.0
O145 O 0.67396 0.18126 0.94326 0.0
C146 C 0.679 0.20926 0.94368 0.0
C147 C 0.65124 0.08948 0.94014 0.0
C148 C 0.65654 0.16027 0.85927 0.0
C149 C 0.5961 0.17221 0.92788 0.0
O150 O 0.60426 0.14626 0.92311 0.0
O151 O 0.61063 0.19431 0.92673 0.0
O152 O 0.63603 0.08808 0.91902 0.0
O153 O 0.66081 0.11495 0.94611 0.0
O154 O 0.35251 0.82063 0.36669 0.0
Cd155 Cd 0.35977 0.81376 0.40966 0.0
Cd156 Cd 0.37277 0.87189 0.40873 0.0
O157 O 0.36493 0.86723 0.36575 0.0
O158 O 0.34029 0.77858 0.422 0.0
O159 O 0.33353 0.82376 0.43862 0.0
C160 C 0.32767 0.796 0.43833 0.0
C161 C 0.36 0.91481 0.43274 0.0
C162 C 0.35666 0.84442 0.353 0.0
C163 C 0.41194 0.82775 0.42646 0.0
O164 O 0.40576 0.85462 0.42284 0.0
O165 O 0.39631 0.80717 0.42206 0.0
O166 O 0.37763 0.91525 0.41422 0.0
O167 O 0.34886 0.88991 0.4371 0.0
O168 O 0.35679 0.12283 0.96994 0.0
Cd169 Cd 0.36111 0.1666 0.95879 0.0
Cd170 Cd 0.36695 0.14141 0.90445 0.0
O171 O 0.35478 0.10422 0.92632 0.0
O172 O 0.34606 0.18995 0.99045 0.0
O173 O 0.33118 0.18989 0.94642 0.0
C174 C 0.32939 0.19871 0.97264 0.0
C175 C 0.35675 0.14483 0.85579 0.0
C176 C 0.35341 0.10099 0.95326 0.0
C177 C 0.41079 0.17327 0.93313 0.0
O178 O 0.40214 0.15748 0.91296 0.0
O179 O 0.39698 0.18115 0.95376 0.0
O180 O 0.3726 0.12594 0.86511 0.0
O181 O 0.34573 0.16144 0.87431 0.0
O182 O 0.65111 0.87238 0.47402 0.0
Cd183 Cd 0.64541 0.82868 0.46285 0.0
Cd184 Cd 0.63704 0.85378 0.4093 0.0
O185 O 0.64459 0.89227 0.43157 0.0
O186 O 0.66096 0.80518 0.49396 0.0
O187 O 0.6748 0.805 0.44946 0.0
C188 C 0.67716 0.79627 0.47562 0.0
C189 C 0.64967 0.85107 0.3614 0.0
C190 C 0.64978 0.89497 0.45794 0.0
C191 C 0.59523 0.81924 0.43765 0.0
O192 O 0.60334 0.83398 0.41654 0.0
O193 O 0.60911 0.81409 0.45901 0.0
O194 O 0.63198 0.86814 0.36958 0.0
O195 O 0.66106 0.83591 0.38072 0.0
O196 O 0.36008 0.87607 0.02779 0.0
Cd197 Cd 0.36347 0.83464 0.04633 0.0
Cd198 Cd 0.36508 0.86754 0.09244 0.0
O199 O 0.34683 0.89774 0.06701 0.0
O200 O 0.35047 0.80607 0.01757 0.0
O201 O 0.3323 0.81421 0.05924 0.0
C202 C 0.33217 0.8011 0.03466 0.0
C203 C 0.35265 0.85968 0.13961 0.0
C204 C 0.35054 0.89833 0.04022 0.0
C205 C 0.41228 0.83986 0.07218 0.0
O206 O 0.40261 0.86195 0.08483 0.0
O207 O 0.39879 0.82195 0.05818 0.0
O208 O 0.3626 0.88429 0.13178 0.0
O209 O 0.34899 0.83955 0.12044 0.0
O210 O 0.6527 0.11861 0.53385 0.0
Cd211 Cd 0.64658 0.16249 0.54396 0.0
Cd212 Cd 0.63632 0.13783 0.5979 0.0
O213 O 0.64408 0.09916 0.57602 0.0
O214 O 0.66219 0.18535 0.51236 0.0
O215 O 0.67553 0.18728 0.55698 0.0
C216 C 0.67799 0.19532 0.53063 0.0
C217 C 0.64747 0.1405 0.64629 0.0
C218 C 0.65037 0.09617 0.54999 0.0
C219 C 0.59566 0.17227 0.56743 0.0
O220 O 0.60312 0.15813 0.58922 0.0
O221 O 0.6101 0.17671 0.5464 0.0
O222 O 0.62977 0.12378 0.63749 0.0
O223 O 0.65972 0.15527 0.62737 0.0
C224 C 0.05552 0.35093 0.06685 0.0
C225 C 0.07057 0.32658 0.07344 0.0
C226 C 0.02978 0.34787 0.06423 0.0
C227 C 0.0187 0.31983 0.06864 0.0
C228 C 0.03383 0.29492 0.07432 0.0
C229 C 0.05962 0.29856 0.0765 0.0
C230 C 0.01436 0.37494 0.05776 0.0
C231 C 0.02269 0.26471 0.07932 0.0
C232 C 0.9525 0.32543 0.09495 0.0
C233 C 0.93899 0.32134 0.06966 0.0
C234 C 0.9784 0.32333 0.09518 0.0
C235 C 0.9912 0.31734 0.06941 0.0
C236 C 0.97763 0.31172 0.04408 0.0
C237 C 0.95165 0.31361 0.04454 0.0
C238 C 0.99212 0.32901 0.12276 0.0
C239 C 0.9906 0.30539 0.01616 0.0
H240 H 0.06383 0.3726 0.06418 0.0
H241 H 0.0711 0.27963 0.08165 0.0
H242 H 1.00189 0.37054 0.03941 0.0
H243 H 1.00252 0.38031 0.07644 0.0
H244 H 0.02593 0.39459 0.05273 0.0
H245 H 0.03703 0.24716 0.08088 0.0
H246 H 0.01187 0.26495 0.09948 0.0
H247 H 0.00971 0.25893 0.06183 0.0
H248 H 0.94285 0.33111 0.11452 0.0
H249 H 0.94136 0.31049 0.02489 0.0
H250 H 1.00252 0.35013 0.12113 0.0
H251 H 0.0058 0.31117 0.12675 0.0
H252 H 0.97944 0.33045 0.1414 0.0
H253 H 1.00024 0.32568 0.00875 0.0
H254 H 0.97749 0.2982 0.99924 0.0
H255 H 0.00486 0.28799 0.01902 0.0
C256 C 0.95402 0.65187 0.56846 0.0
C257 C 0.9387 0.67598 0.5751 0.0
C258 C 0.97972 0.65534 0.56581 0.0
C259 C 0.99048 0.68357 0.57024 0.0
C260 C 0.97508 0.70823 0.57598 0.0
C261 C 0.94933 0.70418 0.57818 0.0
C262 C 0.99545 0.62853 0.55925 0.0
C263 C 0.98587 0.73862 0.58103 0.0
C264 C 0.05676 0.67904 0.59636 0.0
C265 C 0.07018 0.68337 0.57104 0.0
C266 C 0.03084 0.68073 0.59667 0.0
C267 C 0.01794 0.68652 0.57094 0.0
C268 C 0.03141 0.6924 0.5456 0.0
C269 C 0.05742 0.69093 0.54598 0.0
C270 C 0.01721 0.67481 0.62427 0.0
C271 C 0.01835 0.69851 0.51772 0.0
H272 H 0.94595 0.63006 0.56578 0.0
H273 H 0.93764 0.72292 0.58337 0.0
H274 H 0.00786 0.63314 0.54089 0.0
H275 H 0.00736 0.62335 0.57789 0.0
H276 H 0.9841 0.60869 0.5542 0.0
H277 H 0.97134 0.75593 0.58267 0.0
H278 H 0.99673 0.73855 0.60115 0.0
H279 H 0.99876 0.74462 0.56351 0.0
H280 H 0.0665 0.67347 0.61588 0.0
H281 H 0.06765 0.69422 0.52631 0.0
H282 H 0.00708 0.6535 0.62263 0.0
H283 H 1.00332 0.6924 0.62832 0.0
H284 H 0.02993 0.67361 0.64288 0.0
H285 H 0.00896 0.67806 0.51028 0.0
H286 H 0.03135 0.70595 0.50079 0.0
H287 H 1.00387 0.71566 0.52066 0.0
C288 C 0.95377 0.67794 0.91176 0.0
C289 C 0.94024 0.68274 0.93694 0.0
C290 C 0.97967 0.68018 0.91144 0.0
C291 C 0.99245 0.6871 0.93699 0.0
C292 C 0.97887 0.69341 0.96216 0.0
C293 C 0.95288 0.69132 0.96181 0.0
C294 C 0.9934 0.67371 0.88401 0.0
C295 C 0.99181 0.70074 0.98985 0.0
C296 C 0.05695 0.65412 0.94024 0.0
C297 C 0.07187 0.67836 0.93286 0.0
C298 C 0.03121 0.65706 0.94293 0.0
C299 C 0.01998 0.68487 0.93775 0.0
C300 C 0.03498 0.7097 0.93127 0.0
C301 C 0.06079 0.70619 0.92907 0.0
C302 C 0.01594 0.6301 0.95029 0.0
C303 C 0.02369 0.73964 0.92541 0.0
H304 H 0.94415 0.6716 0.89238 0.0
H305 H 0.94258 0.69501 0.98137 0.0
H306 H 0.00697 0.69153 0.87944 0.0
H307 H 1.00392 0.65275 0.88627 0.0
H308 H 0.98072 0.67154 0.86545 0.0
H309 H 0.97867 0.70833 0.00659 0.0
H310 H 1.00159 0.68079 0.99783 0.0
H311 H 0.00596 0.71819 0.98644 0.0
H312 H 0.06537 0.6326 0.94349 0.0
H313 H 0.07218 0.72502 0.92329 0.0
H314 H 1.00411 0.624 0.93182 0.0
H315 H 1.00346 0.635 0.96853 0.0
H316 H 0.02761 0.61072 0.95591 0.0
H317 H 0.01286 0.73868 0.90529 0.0
H318 H 0.03794 0.75725 0.92332 0.0
H319 H 0.01068 0.74586 0.94275 0.0
C320 C 0.05408 0.32774 0.40967 0.0
C321 C 0.06762 0.32347 0.43489 0.0
C322 C 0.0282 0.3253 0.40942 0.0
C323 C 0.01546 0.31878 0.4351 0.0
C324 C 0.02908 0.31303 0.46035 0.0
C325 C 0.05504 0.31526 0.4599 0.0
C326 C 0.01442 0.33113 0.38192 0.0
C327 C 0.01617 0.30617 0.48818 0.0
C328 C 0.95083 0.35134 0.43809 0.0
C329 C 0.93603 0.32684 0.43119 0.0
C330 C 0.97659 0.34865 0.44067 0.0
C331 C 0.98795 0.32083 0.4359 0.0
C332 C 0.97307 0.29576 0.4299 0.0
C333 C 0.94724 0.29903 0.42779 0.0
C334 C 0.99174 0.37587 0.44751 0.0
C335 C 0.98451 0.26579 0.42449 0.0
H336 H 0.06368 0.3338 0.39018 0.0
H337 H 0.06537 0.31199 0.4795 0.0
H338 H 1.00093 0.31314 0.37768 0.0
H339 H 1.00381 0.35207 0.38385 0.0
H340 H 0.02709 0.33301 0.3633 0.0
H341 H 0.02935 0.29901 0.50502 0.0
H342 H 0.0063 0.32621 0.49583 0.0
H343 H 1.00211 0.28855 0.48509 0.0
H344 H 0.9423 0.37286 0.44103 0.0
H345 H 0.93595 0.27999 0.4224 0.0
H346 H 1.00351 0.38167 0.4289 0.0
H347 H 1.00427 0.37143 0.46579 0.0
H348 H 0.97998 0.39528 0.45283 0.0
H349 H 0.99533 0.26645 0.40434 0.0
H350 H 0.97035 0.24805 0.42269 0.0
H351 H 0.99755 0.25999 0.44191 0.0
C352 C 0.45448 0.86107 0.06751 0.0
C353 C 0.43941 0.83636 0.07237 0.0
C354 C 0.48035 0.85863 0.06789 0.0
C355 C 0.49142 0.83105 0.07448 0.0
C356 C 0.47622 0.80595 0.07936 0.0
C357 C 0.45032 0.80879 0.07767 0.0
C358 C 0.49583 0.88572 0.06162 0.0
C359 C 0.48726 0.77644 0.08744 0.0
C360 C 0.56011 0.82232 0.05794 0.0
C361 C 0.57075 0.83213 0.08353 0.0
C362 C 0.53422 0.8213 0.05472 0.0
C363 C 0.51879 0.82922 0.07804 0.0
C364 C 0.52962 0.83763 0.10438 0.0
C365 C 0.55545 0.83956 0.1066 0.0
C366 C 0.52342 0.8132 0.02603 0.0
C367 C 0.51392 0.84528 0.13005 0.0
H368 H 0.44597 0.88231 0.06307 0.0
H369 H 0.43857 0.78974 0.08153 0.0
H370 H 0.50583 0.8927 0.0812 0.0
H371 H 0.50996 0.88054 0.04514 0.0
H372 H 0.48445 0.90462 0.05404 0.0
H373 H 0.47299 0.75884 0.08945 0.0
H374 H 0.50111 0.76941 0.07131 0.0
H375 H 0.49711 0.77855 0.10816 0.0
H376 H 0.57203 0.81675 0.04008 0.0
H377 H 0.56377 0.84687 0.12648 0.0
H378 H 0.5136 0.83263 0.017 0.0
H379 H 0.5096 0.79521 0.02837 0.0
H380 H 0.53783 0.80599 0.01058 0.0
H381 H 0.50378 0.86622 0.12606 0.0
H382 H 0.52517 0.84804 0.14974 0.0
H383 H 0.4999 0.82774 0.13383 0.0
C384 C 0.55487 0.18091 0.59097 0.0
C385 C 0.5692 0.18086 0.56596 0.0
C386 C 0.52907 0.18388 0.58987 0.0
C387 C 0.51719 0.18675 0.56307 0.0
C388 C 0.53164 0.1887 0.53786 0.0
C389 C 0.55754 0.18581 0.53961 0.0
C390 C 0.51442 0.18204 0.61732 0.0
C391 C 0.51968 0.19191 0.5089 0.0
C392 C 0.45305 0.15283 0.56258 0.0
C393 C 0.43786 0.17767 0.56667 0.0
C394 C 0.47878 0.15573 0.55991 0.0
C395 C 0.48973 0.18417 0.56149 0.0
C396 C 0.47447 0.20949 0.56428 0.0
C397 C 0.44868 0.20595 0.56679 0.0
C398 C 0.49436 0.12814 0.55672 0.0
C399 C 0.48544 0.24017 0.56599 0.0
H400 H 0.56375 0.17747 0.61147 0.0
H401 H 0.56847 0.18583 0.52018 0.0
H402 H 0.50085 0.20042 0.61859 0.0
H403 H 0.50383 0.16098 0.61778 0.0
H404 H 0.52649 0.18289 0.63651 0.0
H405 H 0.53339 0.1975 0.49204 0.0
H406 H 0.51052 0.17079 0.503 0.0
H407 H 0.5052 0.2093 0.50938 0.0
H408 H 0.44488 0.13091 0.56215 0.0
H409 H 0.4371 0.22529 0.56986 0.0
H410 H 0.50581 0.12502 0.57616 0.0
H411 H 0.50719 0.13042 0.53834 0.0
H412 H 0.48291 0.10797 0.55352 0.0
H413 H 0.49539 0.24278 0.58657 0.0
H414 H 0.47106 0.25768 0.56455 0.0
H415 H 0.49915 0.24358 0.54864 0.0
C416 C 0.55821 0.20442 0.92981 0.0
C417 C 0.56923 0.17648 0.93304 0.0
C418 C 0.53236 0.20784 0.93151 0.0
C419 C 0.51726 0.1828 0.93682 0.0
C420 C 0.52841 0.15486 0.94149 0.0
C421 C 0.5542 0.15202 0.93941 0.0
C422 C 0.52116 0.23797 0.92632 0.0
C423 C 0.51303 0.12764 0.94756 0.0
C424 C 0.44963 0.18799 0.95895 0.0
C425 C 0.43763 0.1802 0.93343 0.0
C426 C 0.47558 0.1903 0.96018 0.0
C427 C 0.48978 0.18499 0.93525 0.0
C428 C 0.47763 0.17891 0.90909 0.0
C429 C 0.45176 0.17645 0.90854 0.0
C430 C 0.48783 0.19675 0.98849 0.0
C431 C 0.49204 0.1735 0.88191 0.0
H432 H 0.56968 0.22343 0.92486 0.0
H433 H 0.56256 0.13041 0.94223 0.0
H434 H 0.51089 0.23775 0.90579 0.0
H435 H 0.50768 0.2435 0.94339 0.0
H436 H 0.53542 0.25567 0.92536 0.0
H437 H 0.52461 0.1081 0.95292 0.0
H438 H 0.50014 0.13192 0.96556 0.0
H439 H 0.50163 0.12214 0.92857 0.0
H440 H 0.43886 0.1909 0.9783 0.0
H441 H 0.44262 0.17074 0.88866 0.0
H442 H 0.50204 0.21431 0.98607 0.0
H443 H 0.49742 0.17656 0.99619 0.0
H444 H 0.47427 0.20379 0.00501 0.0
H445 H 0.50562 0.19156 0.87836 0.0
H446 H 0.47981 0.17191 0.86289 0.0
H447 H 0.50261 0.15254 0.88381 0.0
C448 C 0.44738 0.79195 0.43178 0.0
C449 C 0.43801 0.82086 0.43396 0.0
C450 C 0.47283 0.78627 0.43524 0.0
C451 C 0.4892 0.81005 0.44095 0.0
C452 C 0.4796 0.83893 0.44486 0.0
C453 C 0.45419 0.84394 0.44135 0.0
C454 C 0.48233 0.75513 0.43126 0.0
C455 C 0.49634 0.86495 0.4511 0.0
C456 C 0.55655 0.80381 0.46364 0.0
C457 C 0.56867 0.81084 0.438 0.0
C458 C 0.53058 0.80129 0.46469 0.0
C459 C 0.51654 0.80592 0.43952 0.0
C460 C 0.52887 0.81072 0.41324 0.0
C461 C 0.55472 0.81309 0.41281 0.0
C462 C 0.51815 0.79572 0.49305 0.0
C463 C 0.51468 0.81558 0.38583 0.0
H464 H 0.43502 0.77393 0.42623 0.0
H465 H 0.44714 0.8663 0.44348 0.0
H466 H 0.49201 0.75344 0.41042 0.0
H467 H 0.49592 0.74946 0.44816 0.0
H468 H 0.46711 0.73857 0.4316 0.0
H469 H 0.48577 0.88547 0.45587 0.0
H470 H 0.50854 0.85999 0.46954 0.0
H471 H 0.50844 0.86921 0.43238 0.0
H472 H 0.56717 0.80188 0.48319 0.0
H473 H 0.56394 0.81807 0.39279 0.0
H474 H 0.50283 0.77953 0.49069 0.0
H475 H 0.51001 0.81669 0.50108 0.0
H476 H 0.5314 0.78735 0.50929 0.0
H477 H 0.50059 0.79798 0.38284 0.0
H478 H 0.527 0.81589 0.36681 0.0
H479 H 0.50475 0.83705 0.38695 0.0
C480 C 0.17217 0.36801 0.19199 0.0
C481 C 0.1623 0.34269 0.17888 0.0
C482 C 0.17387 0.3701 0.22188 0.0
C483 C 0.16482 0.34666 0.23905 0.0
C484 C 0.15577 0.32057 0.22589 0.0
C485 C 0.15492 0.31876 0.19595 0.0
C486 C 0.18426 0.39796 0.23507 0.0
C487 C 0.14542 0.29535 0.24336 0.0
C488 C 0.17649 0.34406 0.3194 0.0
C489 C 0.15499 0.3576 0.32995 0.0
C490 C 0.18035 0.34095 0.28979 0.0
C491 C 0.16194 0.35086 0.27046 0.0
C492 C 0.14019 0.36442 0.28112 0.0
C493 C 0.13715 0.36795 0.31065 0.0
C494 C 0.20404 0.32708 0.27917 0.0
C495 C 0.11983 0.37473 0.26135 0.0
H496 H 0.17813 0.38646 0.17888 0.0
H497 H 0.14716 0.29918 0.18595 0.0
H498 H 0.16904 0.41099 0.24483 0.0
H499 H 0.19754 0.39243 0.25232 0.0
H500 H 0.19377 0.4121 0.21905 0.0
H501 H 0.1411 0.27563 0.23005 0.0
H502 H 0.15866 0.28876 0.26028 0.0
H503 H 0.12816 0.30267 0.25414 0.0
H504 H 0.19037 0.33614 0.33427 0.0
H505 H 0.12038 0.37819 0.31867 0.0
H506 H 0.2134 0.34224 0.26395 0.0
H507 H 0.19986 0.30635 0.26741 0.0
H508 H 0.21703 0.32188 0.29686 0.0
H509 H 0.12707 0.39173 0.24644 0.0
H510 H 0.10386 0.38429 0.27313 0.0
H511 H 0.11311 0.35589 0.24823 0.0
C512 C 0.83713 0.63443 0.69388 0.0
C513 C 0.847 0.65962 0.68058 0.0
C514 C 0.83524 0.63275 0.72378 0.0
C515 C 0.84412 0.65645 0.74077 0.0
C516 C 0.85321 0.68239 0.72739 0.0
C517 C 0.85423 0.6838 0.69745 0.0
C518 C 0.8248 0.60504 0.73719 0.0
C519 C 0.8634 0.70787 0.74467 0.0
C520 C 0.83188 0.66044 0.82096 0.0
C521 C 0.85335 0.64718 0.83188 0.0
C522 C 0.82821 0.66296 0.79127 0.0
C523 C 0.84676 0.65273 0.77224 0.0
C524 C 0.86846 0.63943 0.78327 0.0
C525 C 0.87132 0.63649 0.81287 0.0
C526 C 0.80456 0.67656 0.78026 0.0
C527 C 0.88897 0.62881 0.76381 0.0
H528 H 0.83128 0.61579 0.68092 0.0
H529 H 0.86199 0.70327 0.6873 0.0
H530 H 0.83997 0.5922 0.74724 0.0
H531 H 0.81137 0.6108 0.75426 0.0
H532 H 0.81544 0.59065 0.72125 0.0
H533 H 0.86786 0.72738 0.73116 0.0
H534 H 0.84999 0.71473 0.76134 0.0
H535 H 0.88055 0.70072 0.75575 0.0
H536 H 0.8179 0.66861 0.8356 0.0
H537 H 0.88806 0.62645 0.82117 0.0
H538 H 0.79538 0.66116 0.76511 0.0
H539 H 0.80878 0.69716 0.76834 0.0
H540 H 0.7914 0.68194 0.79777 0.0
H541 H 0.88184 0.61157 0.74906 0.0
H542 H 0.90485 0.61945 0.77586 0.0
H543 H 0.89578 0.64744 0.75052 0.0
C544 C 0.17336 0.63685 0.814 0.0
C545 C 0.16363 0.66218 0.82723 0.0
C546 C 0.17519 0.63496 0.7841 0.0
C547 C 0.16641 0.65861 0.76703 0.0
C548 C 0.15747 0.68468 0.78033 0.0
C549 C 0.15649 0.68629 0.81027 0.0
C550 C 0.18545 0.6071 0.77078 0.0
C551 C 0.1474 0.71013 0.76297 0.0
C552 C 0.17875 0.66188 0.68681 0.0
C553 C 0.15724 0.64863 0.67593 0.0
C554 C 0.18239 0.66466 0.71649 0.0
C555 C 0.16376 0.65472 0.73556 0.0
C556 C 0.14201 0.64145 0.72457 0.0
C557 C 0.13919 0.63824 0.69498 0.0
C558 C 0.20609 0.67821 0.72746 0.0
C559 C 0.12142 0.63114 0.74405 0.0
H560 H 0.17914 0.61826 0.82702 0.0
H561 H 0.14884 0.70588 0.82036 0.0
H562 H 0.17021 0.59433 0.76076 0.0
H563 H 0.19893 0.61265 0.7537 0.0
H564 H 0.19472 0.59272 0.78677 0.0
H565 H 0.14307 0.72975 0.7764 0.0
H566 H 0.16083 0.71679 0.74625 0.0
H567 H 0.13021 0.70303 0.75194 0.0
H568 H 0.19279 0.66983 0.67215 0.0
H569 H 0.12241 0.62823 0.6867 0.0
H570 H 0.21521 0.66284 0.74265 0.0
H571 H 0.20196 0.69889 0.73933 0.0
H572 H 0.21927 0.68343 0.70994 0.0
H573 H 0.12842 0.61395 0.75888 0.0
H574 H 0.10548 0.62182 0.73203 0.0
H575 H 0.11471 0.64992 0.75725 0.0
C576 C 0.83003 0.34198 0.18552 0.0
C577 C 0.85161 0.35537 0.17499 0.0
C578 C 0.8261 0.33905 0.21514 0.0
C579 C 0.84449 0.349 0.23449 0.0
C580 C 0.86633 0.36239 0.22385 0.0
C581 C 0.86945 0.36573 0.19432 0.0
C582 C 0.80233 0.32535 0.22573 0.0
C583 C 0.88667 0.37274 0.24365 0.0
C584 C 0.83418 0.36673 0.31285 0.0
C585 C 0.84398 0.34149 0.32609 0.0
C586 C 0.83251 0.3686 0.28295 0.0
C587 C 0.84152 0.34502 0.2659 0.0
C588 C 0.85047 0.31899 0.2792 0.0
C589 C 0.8513 0.31741 0.30915 0.0
C590 C 0.82224 0.39642 0.26961 0.0
C591 C 0.86076 0.29361 0.26187 0.0
H592 H 0.81615 0.33406 0.17064 0.0
H593 H 0.88628 0.37586 0.18632 0.0
H594 H 0.80641 0.30469 0.23762 0.0
H595 H 0.79297 0.34066 0.24082 0.0
H596 H 0.78938 0.32004 0.20801 0.0
H597 H 0.90271 0.38215 0.23189 0.0
H598 H 0.87946 0.38986 0.25846 0.0
H599 H 0.89329 0.35395 0.25686 0.0
H600 H 0.82825 0.3853 0.32586 0.0
H601 H 0.859 0.29788 0.31924 0.0
H602 H 0.80898 0.39081 0.25233 0.0
H603 H 0.83753 0.40933 0.25984 0.0
H604 H 0.81273 0.41069 0.28554 0.0
H605 H 0.84754 0.28698 0.24491 0.0
H606 H 0.86495 0.27395 0.27527 0.0
H607 H 0.87809 0.30076 0.25113 0.0
C608 C 0.67734 0.83436 0.3212 0.0
C609 C 0.65557 0.84822 0.33061 0.0
C610 C 0.6824 0.83132 0.29182 0.0
C611 C 0.66505 0.84187 0.27155 0.0
C612 C 0.64304 0.85576 0.28104 0.0
C613 C 0.6387 0.85898 0.31036 0.0
C614 C 0.70625 0.81688 0.28245 0.0
C615 C 0.62386 0.867 0.26019 0.0
C616 C 0.6783 0.86186 0.19455 0.0
C617 C 0.66751 0.83794 0.18002 0.0
C618 C 0.67959 0.86228 0.2245 0.0
C619 C 0.66941 0.83849 0.24029 0.0
C620 C 0.66001 0.81341 0.22569 0.0
C621 C 0.65938 0.81333 0.19569 0.0
C622 C 0.69027 0.88915 0.23923 0.0
C623 C 0.6487 0.78773 0.24168 0.0
H624 H 0.69046 0.82607 0.33676 0.0
H625 H 0.62174 0.86952 0.31743 0.0
H626 H 0.70218 0.79674 0.26972 0.0
H627 H 0.7168 0.83217 0.26844 0.0
H628 H 0.71812 0.81059 0.30084 0.0
H629 H 0.6075 0.87672 0.27111 0.0
H630 H 0.63212 0.88414 0.24616 0.0
H631 H 0.61746 0.84863 0.24627 0.0
H632 H 0.6849 0.8808 0.18255 0.0
H633 H 0.65101 0.79476 0.18462 0.0
H634 H 0.70248 0.88245 0.25715 0.0
H635 H 0.67503 0.90264 0.24834 0.0
H636 H 0.70103 0.90327 0.22428 0.0
H637 H 0.66087 0.78069 0.25949 0.0
H638 H 0.64525 0.7684 0.22753 0.0
H639 H 0.6308 0.79475 0.25114 0.0
C640 C 0.33126 0.16165 0.81387 0.0
C641 C 0.35262 0.14806 0.82469 0.0
C642 C 0.32779 0.16489 0.78422 0.0
C643 C 0.34642 0.155 0.76512 0.0
C644 C 0.36806 0.14146 0.77605 0.0
C645 C 0.37074 0.13785 0.8056 0.0
C646 C 0.30423 0.17879 0.7733 0.0
C647 C 0.38863 0.13115 0.75653 0.0
C648 C 0.33666 0.13757 0.68661 0.0
C649 C 0.34664 0.16281 0.67351 0.0
C650 C 0.33484 0.13558 0.71649 0.0
C651 C 0.34382 0.15906 0.73368 0.0
C652 C 0.353 0.18508 0.72053 0.0
C653 C 0.35402 0.18677 0.69059 0.0
C654 C 0.32437 0.10777 0.72966 0.0
C655 C 0.36325 0.21036 0.73803 0.0
H656 H 0.31718 0.16946 0.82856 0.0
H657 H 0.3874 0.12756 0.81383 0.0
H658 H 0.30858 0.19937 0.76141 0.0
H659 H 0.29492 0.16352 0.75814 0.0
H660 H 0.29114 0.18425 0.79085 0.0
H661 H 0.4045 0.12166 0.76851 0.0
H662 H 0.38156 0.1141 0.74155 0.0
H663 H 0.39546 0.14997 0.74349 0.0
H664 H 0.33069 0.1191 0.6735 0.0
H665 H 0.36185 0.2063 0.68061 0.0
H666 H 0.31089 0.11339 0.74672 0.0
H667 H 0.33951 0.09485 0.73968 0.0
H668 H 0.31505 0.09349 0.71359 0.0
H669 H 0.34989 0.21704 0.75483 0.0
H670 H 0.36768 0.23001 0.72472 0.0
H671 H 0.38042 0.20307 0.74898 0.0
C672 C 0.66995 0.13339 0.81507 0.0
C673 C 0.66114 0.15932 0.82808 0.0
C674 C 0.67144 0.131 0.7852 0.0
C675 C 0.66336 0.15483 0.76793 0.0
C676 C 0.65553 0.18155 0.78097 0.0
C677 C 0.65478 0.18358 0.8109 0.0
C678 C 0.68047 0.1024 0.77213 0.0
C679 C 0.64631 0.20729 0.76338 0.0
C680 C 0.67462 0.15558 0.68747 0.0
C681 C 0.65239 0.14351 0.67727 0.0
C682 C 0.67879 0.15887 0.717 0.0
C683 C 0.66005 0.15054 0.73661 0.0
C684 C 0.63758 0.13842 0.72632 0.0
C685 C 0.63416 0.13478 0.69687 0.0
C686 C 0.70318 0.17125 0.72724 0.0
C687 C 0.6169 0.12973 0.74642 0.0
H688 H 0.67515 0.11467 0.82825 0.0
H689 H 0.64789 0.20366 0.82079 0.0
H690 H 0.66461 0.09029 0.76262 0.0
H691 H 0.69387 0.10693 0.7547 0.0
H692 H 0.68942 0.0878 0.78817 0.0
H693 H 0.64314 0.22741 0.77656 0.0
H694 H 0.6597 0.21274 0.74621 0.0
H695 H 0.62861 0.20112 0.75293 0.0
H696 H 0.6888 0.16225 0.6724 0.0
H697 H 0.61684 0.12566 0.68916 0.0
H698 H 0.71195 0.15563 0.74246 0.0
H699 H 0.70005 0.19232 0.73888 0.0
H700 H 0.71625 0.17546 0.70936 0.0
H701 H 0.62344 0.11248 0.76146 0.0
H702 H 0.60042 0.1211 0.73491 0.0
H703 H 0.61116 0.14916 0.75936 0.0
C704 C 0.33788 0.87694 0.18717 0.0
C705 C 0.34757 0.85426 0.17011 0.0
C706 C 0.33622 0.87373 0.21694 0.0
C707 C 0.34552 0.84774 0.23001 0.0
C708 C 0.35462 0.82437 0.2127 0.0
C709 C 0.35509 0.82772 0.18284 0.0
C710 C 0.32552 0.89871 0.23449 0.0
C711 C 0.36549 0.79674 0.22576 0.0
C712 C 0.37136 0.85892 0.30469 0.0
C713 C 0.35341 0.84516 0.3217 0.0
C714 C 0.36927 0.85918 0.27483 0.0
C715 C 0.34817 0.84643 0.26169 0.0
C716 C 0.32972 0.83295 0.27886 0.0
C717 C 0.33283 0.83192 0.3087 0.0
C718 C 0.38979 0.87291 0.25733 0.0
C719 C 0.30654 0.82014 0.26576 0.0
H720 H 0.332 0.89745 0.17724 0.0
H721 H 0.36289 0.81035 0.16961 0.0
H722 H 0.31236 0.88998 0.25063 0.0
H723 H 0.34059 0.9102 0.24617 0.0
H724 H 0.31576 0.91523 0.221 0.0
H725 H 0.36995 0.7797 0.20941 0.0
H726 H 0.38275 0.80252 0.23737 0.0
H727 H 0.35254 0.78701 0.24155 0.0
H728 H 0.38742 0.86885 0.31476 0.0
H729 H 0.3189 0.82141 0.32193 0.0
H730 H 0.38267 0.89246 0.24562 0.0
H731 H 0.39656 0.85684 0.24117 0.0
H732 H 0.40568 0.88005 0.27073 0.0
H733 H 0.29663 0.83757 0.25359 0.0
H734 H 0.29377 0.81091 0.2821 0.0
H735 H 0.31138 0.80235 0.25041 0.0
C736 C 0.28773 0.22208 0.96487 0.0
C737 C 0.30819 0.21684 0.98264 0.0
C738 C 0.26653 0.23659 0.97531 0.0
C739 C 0.26582 0.24614 0.00414 0.0
C740 C 0.28681 0.242 0.02178 0.0
C741 C 0.30768 0.22739 0.01084 0.0
C742 C 0.24452 0.24062 0.95584 0.0
C743 C 0.2869 0.25197 0.0526 0.0
C744 C 0.21747 0.30061 0.0315 0.0
C745 C 0.20091 0.28164 0.04558 0.0
C746 C 0.2383 0.28936 0.01707 0.0
C747 C 0.24261 0.25843 0.01668 0.0
C748 C 0.22548 0.23915 0.03003 0.0
C749 C 0.20489 0.25098 0.04433 0.0
C750 C 0.25613 0.31062 0.00307 0.0
C751 C 0.2293 0.20602 0.03003 0.0
H752 H 0.28796 0.21402 0.94305 0.0
H753 H 0.32344 0.22362 0.0247 0.0
H754 H 0.22894 0.22669 0.96346 0.0
H755 H 0.23814 0.26396 0.95632 0.0
H756 H 0.24877 0.23442 0.93339 0.0
H757 H 0.30527 0.249 0.06286 0.0
H758 H 0.28161 0.27565 0.05411 0.0
H759 H 0.273 0.2391 0.06487 0.0
H760 H 0.21452 0.32433 0.03231 0.0
H761 H 0.19213 0.23612 0.05499 0.0
H762 H 0.25964 0.30393 0.98062 0.0
H763 H 0.27415 0.30999 0.01442 0.0
H764 H 0.24916 0.33375 0.00329 0.0
H765 H 0.23189 0.19786 0.00787 0.0
H766 H 0.2135 0.19398 0.03982 0.0
H767 H 0.24635 0.20052 0.04212 0.0
C768 C 0.79164 0.69776 0.53286 0.0
C769 C 0.80779 0.71747 0.54667 0.0
C770 C 0.7705 0.7081 0.51847 0.0
C771 C 0.76543 0.73886 0.51787 0.0
C772 C 0.78217 0.75889 0.53085 0.0
C773 C 0.80309 0.74797 0.5451 0.0
C774 C 0.75312 0.68606 0.50484 0.0
C775 C 0.77753 0.79187 0.53061 0.0
C776 C 0.71888 0.77347 0.46682 0.0
C777 C 0.69863 0.77829 0.48502 0.0
C778 C 0.74048 0.75953 0.47684 0.0
C779 C 0.74178 0.75016 0.50568 0.0
C780 C 0.72095 0.75374 0.52371 0.0
C781 C 0.69968 0.76778 0.51319 0.0
C782 C 0.76229 0.75605 0.45695 0.0
C783 C 0.72148 0.74393 0.55456 0.0
H784 H 0.79516 0.67416 0.5339 0.0
H785 H 0.81553 0.76339 0.55554 0.0
H786 H 0.73525 0.68597 0.51654 0.0
H787 H 0.7491 0.69251 0.48245 0.0
H788 H 0.76077 0.66324 0.50494 0.0
H789 H 0.79315 0.80459 0.54001 0.0
H790 H 0.77448 0.79967 0.50842 0.0
H791 H 0.76051 0.79693 0.54295 0.0
H792 H 0.71823 0.78152 0.44503 0.0
H793 H 0.68406 0.77123 0.52736 0.0
H794 H 0.76937 0.733 0.45762 0.0
H795 H 0.77756 0.77076 0.46402 0.0
H796 H 0.75752 0.76167 0.43452 0.0
H797 H 0.72742 0.72048 0.55605 0.0
H798 H 0.70316 0.74626 0.56511 0.0
H799 H 0.73517 0.7574 0.56655 0.0
C800 C 0.31104 0.76977 0.99796 0.0
C801 C 0.31083 0.78286 0.02517 0.0
C802 C 0.28993 0.7557 0.98693 0.0
C803 C 0.26802 0.75458 0.00349 0.0
C804 C 0.26802 0.76645 0.03152 0.0
C805 C 0.28942 0.7805 0.04203 0.0
C806 C 0.29077 0.7433 0.95696 0.0
C807 C 0.24508 0.76552 0.04993 0.0
C808 C 0.20844 0.75182 0.96054 0.0
C809 C 0.20267 0.72153 0.96098 0.0
C810 C 0.22922 0.76291 0.975 0.0
C811 C 0.24467 0.74328 0.99041 0.0
C812 C 0.23854 0.71282 0.99173 0.0
C813 C 0.21763 0.70228 0.97695 0.0
C814 C 0.23507 0.79555 0.97301 0.0
C815 C 0.25446 0.69124 0.00808 0.0
H816 H 0.3275 0.77135 0.9848 0.0
H817 H 0.28909 0.79049 0.06309 0.0
H818 H 0.2841 0.72007 0.95677 0.0
H819 H 0.27826 0.75628 0.94295 0.0
H820 H 0.3097 0.74393 0.94771 0.0
H821 H 0.24882 0.77281 0.07219 0.0
H822 H 0.23072 0.78022 0.04067 0.0
H823 H 0.2373 0.7428 0.05043 0.0
H824 H 0.19697 0.76691 0.94835 0.0
H825 H 0.21328 0.67886 0.9775 0.0
H826 H 0.25298 0.79871 0.96179 0.0
H827 H 0.23707 0.80517 0.99471 0.0
H828 H 0.22055 0.80808 0.96136 0.0
H829 H 0.27294 0.68961 0.99782 0.0
H830 H 0.24615 0.66875 0.00891 0.0
H831 H 0.25741 0.69923 0.03024 0.0
C832 C 0.69987 0.22416 0.49274 0.0
C833 C 0.69902 0.21396 0.52103 0.0
C834 C 0.72067 0.23919 0.48218 0.0
C835 C 0.74125 0.2441 0.50028 0.0
C836 C 0.74016 0.23492 0.5292 0.0
C837 C 0.71902 0.22 0.53926 0.0
C838 C 0.72098 0.24877 0.45126 0.0
C839 C 0.76173 0.23975 0.54915 0.0
C840 C 0.80261 0.24976 0.46115 0.0
C841 C 0.8061 0.28049 0.45952 0.0
C842 C 0.78208 0.23766 0.47533 0.0
C843 C 0.76448 0.25673 0.48815 0.0
C844 C 0.76831 0.28775 0.48745 0.0
C845 C 0.78911 0.29928 0.47317 0.0
C846 C 0.77879 0.20445 0.47571 0.0
C847 C 0.74997 0.3088 0.50086 0.0
H848 H 0.68445 0.21978 0.47854 0.0
H849 H 0.71852 0.2122 0.56114 0.0
H850 H 0.72594 0.27255 0.44963 0.0
H851 H 0.73528 0.23606 0.43945 0.0
H852 H 0.70284 0.24526 0.44061 0.0
H853 H 0.75713 0.23385 0.57157 0.0
H854 H 0.77764 0.22601 0.54213 0.0
H855 H 0.76781 0.2632 0.5485 0.0
H856 H 0.81572 0.23504 0.45085 0.0
H857 H 0.79168 0.32305 0.47206 0.0
H858 H 0.76207 0.19833 0.46326 0.0
H859 H 0.77591 0.19659 0.49791 0.0
H860 H 0.79497 0.19264 0.46648 0.0
H861 H 0.73217 0.30772 0.48908 0.0
H862 H 0.75666 0.33206 0.50064 0.0
H863 H 0.74613 0.30227 0.52327 0.0
C864 C 0.7051 0.75441 0.04311 0.0
C865 C 0.7013 0.7851 0.04448 0.0
C866 C 0.72599 0.74248 0.02948 0.0
C867 C 0.74358 0.76169 0.01682 0.0
C868 C 0.73937 0.79264 0.01711 0.0
C869 C 0.71829 0.804 0.03097 0.0
C870 C 0.72972 0.70934 0.02962 0.0
C871 C 0.75761 0.81382 0.00373 0.0
C872 C 0.80891 0.73094 0.01393 0.0
C873 C 0.81037 0.72022 0.98583 0.0
C874 C 0.78761 0.74541 0.02391 0.0
C875 C 0.76718 0.74934 0.00536 0.0
C876 C 0.76886 0.73962 0.97663 0.0
C877 C 0.79045 0.72515 0.9672 0.0
C878 C 0.78664 0.75547 0.05468 0.0
C879 C 0.74752 0.74351 0.95618 0.0
H880 H 0.69204 0.7396 0.05335 0.0
H881 H 0.71547 0.82774 0.03184 0.0
H882 H 0.73304 0.70116 0.0076 0.0
H883 H 0.74633 0.70377 0.04248 0.0
H884 H 0.71357 0.69736 0.03869 0.0
H885 H 0.75057 0.83693 0.00341 0.0
H886 H 0.77522 0.8134 0.01589 0.0
H887 H 0.7619 0.80693 0.98151 0.0
H888 H 0.82423 0.72738 0.02847 0.0
H889 H 0.79141 0.71698 0.94544 0.0
H890 H 0.77225 0.74273 0.06631 0.0
H891 H 0.78142 0.77919 0.05587 0.0
H892 H 0.80461 0.75242 0.06582 0.0
H893 H 0.73171 0.72958 0.96314 0.0
H894 H 0.75254 0.73724 0.93396 0.0
H895 H 0.7411 0.76684 0.95629 0.0
C896 C 0.29051 0.20381 0.52736 0.0
C897 C 0.30694 0.22292 0.54149 0.0
C898 C 0.26925 0.21479 0.51365 0.0
C899 C 0.26435 0.24559 0.51409 0.0
C900 C 0.28133 0.26505 0.52746 0.0
C901 C 0.30238 0.25349 0.54098 0.0
C902 C 0.25162 0.19336 0.49954 0.0
C903 C 0.27684 0.29804 0.52838 0.0
C904 C 0.21759 0.2821 0.46455 0.0
C905 C 0.1974 0.28626 0.48299 0.0
C906 C 0.23924 0.26783 0.47398 0.0
C907 C 0.24067 0.25748 0.5025 0.0
C908 C 0.21994 0.26052 0.52079 0.0
C909 C 0.1986 0.27485 0.51083 0.0
C910 C 0.26092 0.26492 0.45382 0.0
C911 C 0.22065 0.24971 0.55131 0.0
H912 H 0.29392 0.18016 0.52759 0.0
H913 H 0.31503 0.26847 0.55169 0.0
H914 H 0.23382 0.19309 0.51139 0.0
H915 H 0.24751 0.20055 0.47739 0.0
H916 H 0.2591 0.17047 0.49892 0.0
H917 H 0.29257 0.31031 0.53807 0.0
H918 H 0.2737 0.30667 0.50649 0.0
H919 H 0.25991 0.30276 0.54102 0.0
H920 H 0.21681 0.29081 0.443 0.0
H921 H 0.18305 0.2778 0.5252 0.0
H922 H 0.26781 0.24179 0.45358 0.0
H923 H 0.27635 0.27917 0.46133 0.0
H924 H 0.25608 0.27149 0.43165 0.0
H925 H 0.22643 0.22616 0.55203 0.0
H926 H 0.20243 0.25188 0.56213 0.0
H927 H 0.23453 0.26265 0.56356 0.0
C928 C 0.78884 0.28037 0.03858 0.0
C929 C 0.8092 0.28461 0.02039 0.0
C930 C 0.76726 0.26616 0.02881 0.0
C931 C 0.76605 0.25592 1.00023 0.0
C932 C 0.78692 0.25906 0.98218 0.0
C933 C 0.80819 0.27336 0.99246 0.0
C934 C 0.74541 0.26316 0.04872 0.0
C935 C 0.78647 0.24836 0.95159 0.0
C936 C 0.71646 0.20208 0.9747 0.0
C937 C 0.70011 0.22114 0.96043 0.0
C938 C 0.73761 0.21313 0.98865 0.0
C939 C 0.74247 0.24395 0.98833 0.0
C940 C 0.72555 0.26335 0.97483 0.0
C941 C 0.70463 0.25172 0.96105 0.0
C942 C 0.75518 0.19175 1.00285 0.0
C943 C 0.72998 0.29636 0.97407 0.0
H944 H 0.78946 0.28897 0.0602 0.0
H945 H 0.82386 0.27637 0.97828 0.0
H946 H 0.73001 0.27733 0.04106 0.0
H947 H 0.73858 0.24 0.04884 0.0
H948 H 0.75004 0.26976 0.07096 0.0
H949 H 0.80477 0.25063 0.94097 0.0
H950 H 0.78074 0.22479 0.9507 0.0
H951 H 0.77266 0.26128 0.93927 0.0
H952 H 0.71309 0.17842 0.97439 0.0
H953 H 0.69204 0.26665 0.95024 0.0
H954 H 0.75909 0.1989 0.02508 0.0
H955 H 0.77307 0.19159 0.9912 0.0
H956 H 0.74775 0.16882 0.0033 0.0
H957 H 0.73296 0.30496 0.99601 0.0
H958 H 0.71429 0.30858 0.96427 0.0
H959 H 0.74699 0.30116 0.9616 0.0
C960 C 0.22006 0.72547 0.5367 0.0
C961 C 0.19907 0.72156 0.51945 0.0
C962 C 0.24134 0.73968 0.5261 0.0
C963 C 0.24158 0.7503 0.49763 0.0
C964 C 0.22005 0.74758 0.48059 0.0
C965 C 0.19912 0.73323 0.49167 0.0
C966 C 0.26392 0.74219 0.54494 0.0
C967 C 0.21946 0.75871 0.45017 0.0
C968 C 0.29101 0.80357 0.4706 0.0
C969 C 0.30666 0.78439 0.45542 0.0
C970 C 0.27012 0.79275 0.48524 0.0
C971 C 0.26483 0.76203 0.4847 0.0
C972 C 0.28102 0.7425 0.47017 0.0
C973 C 0.30167 0.75391 0.4557 0.0
C974 C 0.25332 0.81426 0.50051 0.0
C975 C 0.27613 0.70959 0.46915 0.0
H976 H 0.22019 0.71654 0.55819 0.0
H977 H 0.18294 0.73049 0.47822 0.0
H978 H 0.27887 0.72785 0.5364 0.0
H979 H 0.271 0.76524 0.54495 0.0
H980 H 0.26002 0.73547 0.56732 0.0
H981 H 0.20074 0.75694 0.44051 0.0
H982 H 0.22548 0.78218 0.44931 0.0
H983 H 0.23259 0.7457 0.43694 0.0
H984 H 0.29475 0.82715 0.47055 0.0
H985 H 0.31373 0.73887 0.44418 0.0
H986 H 0.2502 0.807 0.52286 0.0
H987 H 0.235 0.81473 0.48981 0.0
H988 H 0.26097 0.83709 0.50075 0.0
H989 H 0.2739 0.70073 0.4911 0.0
H990 H 0.29125 0.69722 0.45835 0.0
H991 H 0.25859 0.70527 0.45754 0.0
C992 C 0.1447 0.53815 0.95098 0.0
C993 C 0.15852 0.56397 0.95588 0.0
C994 C 0.14686 0.5135 0.96897 0.0
C995 C 0.16351 0.51444 0.99229 0.0
C996 C 0.17845 0.53986 0.99655 0.0
C997 C 0.17565 0.56445 0.9784 0.0
C998 C 0.13038 0.48699 0.9638 0.0
C999 C 0.1967 0.54149 0.0209 0.0
C1000 C 0.14431 0.46641 0.05484 0.0
C1001 C 0.15791 0.44043 0.04997 0.0
C1002 C 0.14671 0.49103 0.03685 0.0
C1003 C 0.16339 0.48989 0.01354 0.0
C1004 C 0.1781 0.4643 0.00929 0.0
C1005 C 0.17507 0.43975 0.02746 0.0
C1006 C 0.13046 0.51773 0.042 0.0
C1007 C 0.19637 0.46245 0.98495 0.0
H1008 H 0.13143 0.53752 0.93362 0.0
H1009 H 0.1865 0.58425 0.98223 0.0
H1010 H 0.14161 0.46648 0.96261 0.0
H1011 H 0.11731 0.48442 0.98194 0.0
H1012 H 0.11948 0.48905 0.94378 0.0
H1013 H 0.20898 0.56116 0.01927 0.0
H1014 H 0.18655 0.54266 0.04148 0.0
H1015 H 0.20833 0.52125 0.02145 0.0
H1016 H 0.13103 0.46721 0.0722 0.0
H1017 H 0.18575 0.41982 0.02365 0.0
H1018 H 0.11745 0.52046 0.02385 0.0
H1019 H 0.14188 0.53811 0.04321 0.0
H1020 H 0.11951 0.5158 0.06201 0.0
H1021 H 0.18624 0.46141 0.96437 0.0
H1022 H 0.20846 0.44262 0.98658 0.0
H1023 H 0.20819 0.48254 0.98442 0.0
C1024 C 0.86492 0.53605 0.5552 0.0
C1025 C 0.85119 0.56206 0.55111 0.0
C1026 C 0.8622 0.5117 0.53688 0.0
C1027 C 0.84506 0.51314 0.51406 0.0
C1028 C 0.83024 0.53876 0.51061 0.0
C1029 C 0.83361 0.56305 0.52907 0.0
C1030 C 0.87859 0.48496 0.54116 0.0
C1031 C 0.81148 0.54092 0.48683 0.0
C1032 C 0.86255 0.46572 0.45034 0.0
C1033 C 0.84892 0.43978 0.45531 0.0
C1034 C 0.86068 0.49016 0.46868 0.0
C1035 C 0.84451 0.48888 0.49246 0.0
C1036 C 0.82971 0.46337 0.4968 0.0
C1037 C 0.83222 0.43899 0.47827 0.0
C1038 C 0.877 0.51678 0.46341 0.0
C1039 C 0.81195 0.46139 0.52162 0.0
H1040 H 0.87853 0.53504 0.57218 0.0
H1041 H 0.82282 0.583 0.52587 0.0
H1042 H 0.86722 0.46455 0.54243 0.0
H1043 H 0.8912 0.48249 0.52258 0.0
H1044 H 0.88998 0.48666 0.56085 0.0
H1045 H 0.79942 0.56071 0.48909 0.0
H1046 H 0.82119 0.54224 0.46598 0.0
H1047 H 0.79967 0.52083 0.48633 0.0
H1048 H 0.87547 0.46659 0.43264 0.0
H1049 H 0.82151 0.4191 0.48217 0.0
H1050 H 0.89046 0.51913 0.48118 0.0
H1051 H 0.86573 0.53728 0.46287 0.0
H1052 H 0.88747 0.51502 0.44304 0.0
H1053 H 0.82252 0.45991 0.54189 0.0
H1054 H 0.79964 0.44175 0.52002 0.0
H1055 H 0.80036 0.48162 0.52283 0.0
C1056 C 0.86643 0.43697 0.00819 0.0
C1057 C 0.85266 0.4294 0.03248 0.0
C1058 C 0.86546 0.46565 0.99682 0.0
C1059 C 0.84962 0.48695 0.00943 0.0
C1060 C 0.83484 0.47902 0.03324 0.0
C1061 C 0.83692 0.45045 0.04487 0.0
C1062 C 0.88214 0.47345 0.97202 0.0
C1063 C 0.81707 0.50079 0.04661 0.0
C1064 C 0.86701 0.56769 0.99948 0.0
C1065 C 0.8532 0.5753 0.97525 0.0
C1066 C 0.8658 0.53907 0.011 0.0
C1067 C 0.84969 0.51791 0.9986 0.0
C1068 C 0.83485 0.52594 0.97489 0.0
C1069 C 0.83717 0.55441 0.9631 0.0
C1070 C 0.88254 0.53115 0.03568 0.0
C1071 C 0.81681 0.50433 0.96174 0.0
H1072 H 0.8788 0.42075 0.99877 0.0
H1073 H 0.82614 0.4445 0.06355 0.0
H1074 H 0.87099 0.4816 0.95377 0.0
H1075 H 0.89488 0.49159 0.97835 0.0
H1076 H 0.89337 0.4543 0.96468 0.0
H1077 H 0.80517 0.4903 0.06311 0.0
H1078 H 0.82754 0.51914 0.05673 0.0
H1079 H 0.80504 0.5107 0.02995 0.0
H1080 H 0.87958 0.58378 0.00871 0.0
H1081 H 0.82636 0.56041 0.94448 0.0
H1082 H 0.89518 0.51296 0.02923 0.0
H1083 H 0.87144 0.52303 0.05399 0.0
H1084 H 0.89389 0.55024 0.04295 0.0
H1085 H 0.82706 0.48591 0.95146 0.0
H1086 H 0.80484 0.51495 0.94541 0.0
H1087 H 0.80487 0.49451 0.97855 0.0
C1088 C 0.1708 0.45193 0.46107 0.0
C1089 C 0.15468 0.43109 0.47312 0.0
C1090 C 0.17335 0.48028 0.47311 0.0
C1091 C 0.15866 0.48824 0.497 0.0
C1092 C 0.14243 0.46714 0.50927 0.0
C1093 C 0.14099 0.43864 0.49748 0.0
C1094 C 0.1915 0.50181 0.46009 0.0
C1095 C 0.12583 0.47501 0.53413 0.0
C1096 C 0.17208 0.55497 0.54412 0.0
C1097 C 0.15642 0.57632 0.53213 0.0
C1098 C 0.17395 0.52655 0.53206 0.0
C1099 C 0.15903 0.51907 0.50822 0.0
C1100 C 0.1433 0.54069 0.496 0.0
C1101 C 0.14254 0.56922 0.5078 0.0
C1102 C 0.1916 0.50443 0.54502 0.0
C1103 C 0.12648 0.53337 0.47119 0.0
H1104 H 0.18153 0.44596 0.44234 0.0
H1105 H 0.12835 0.42259 0.50665 0.0
H1106 H 0.18136 0.5205 0.45018 0.0
H1107 H 0.20364 0.51125 0.47692 0.0
H1108 H 0.20328 0.49125 0.4435 0.0
H1109 H 0.1143 0.45601 0.5412 0.0
H1110 H 0.13707 0.48273 0.5525 0.0
H1111 H 0.11337 0.49348 0.528 0.0
H1112 H 0.18295 0.56057 0.56284 0.0
H1113 H 0.13024 0.58566 0.49869 0.0
H1114 H 0.20346 0.49455 0.52815 0.0
H1115 H 0.18103 0.48611 0.55502 0.0
H1116 H 0.20367 0.51461 0.56154 0.0
H1117 H 0.1375 0.52525 0.45279 0.0
H1118 H 0.11543 0.55276 0.46412 0.0
H1119 H 0.11358 0.51535 0.47737 0.0
C1120 C 0.64145 0.03755 0.9542 0.0
C1121 C 0.65607 0.06295 0.95789 0.0
C1122 C 0.64375 0.01316 0.97249 0.0
C1123 C 0.6614 0.01391 0.99482 0.0
C1124 C 0.67706 0.03889 0.99785 0.0
C1125 C 0.67406 0.06327 0.97949 0.0
C1126 C 0.62645 0.98715 0.9687 0.0
C1127 C 0.6964 0.04025 0.02107 0.0
C1128 C 0.64457 0.96716 0.05918 0.0
C1129 C 0.65744 0.9408 0.0537 0.0
C1130 C 0.64639 0.99145 0.04068 0.0
C1131 C 0.6618 0.98958 0.01627 0.0
C1132 C 0.67578 0.96354 0.01131 0.0
C1133 C 0.67326 0.93931 0.02996 0.0
C1134 C 0.63089 0.01862 0.04656 0.0
C1135 C 0.69275 0.96092 0.9858 0.0
H1136 H 0.62748 0.03708 0.93759 0.0
H1137 H 0.68552 0.08275 0.98235 0.0
H1138 H 0.63714 0.96628 0.96694 0.0
H1139 H 0.61429 0.98515 0.98772 0.0
H1140 H 0.61459 0.98939 0.94944 0.0
H1141 H 0.7089 0.05962 0.01859 0.0
H1142 H 0.68722 0.04176 0.04223 0.0
H1143 H 0.70772 0.01975 0.02104 0.0
H1144 H 0.63228 0.96852 0.07745 0.0
H1145 H 0.68339 0.91908 0.02569 0.0
H1146 H 0.61712 0.02154 0.0292 0.0
H1147 H 0.6427 0.03869 0.04689 0.0
H1148 H 0.62082 0.01715 0.06722 0.0
H1149 H 0.68159 0.96015 0.96593 0.0
H1150 H 0.70441 0.9407 0.98675 0.0
H1151 H 0.705 0.98059 0.98437 0.0
C1152 C 0.3686 0.96726 0.44626 0.0
C1153 C 0.35411 0.94171 0.44963 0.0
C1154 C 0.36544 0.99191 0.46411 0.0
C1155 C 0.34713 0.99121 0.48575 0.0
C1156 C 0.33154 0.96612 0.48833 0.0
C1157 C 0.33531 0.94155 0.47032 0.0
C1158 C 0.38259 0.01811 0.46071 0.0
C1159 C 0.31158 0.96474 0.51086 0.0
C1160 C 0.36315 0.03838 0.5501 0.0
C1161 C 0.35049 0.0648 0.54422 0.0
C1162 C 0.3613 0.01384 0.53188 0.0
C1163 C 0.3462 0.01555 0.50723 0.0
C1164 C 0.33229 0.04156 0.50196 0.0
C1165 C 0.33471 0.06599 0.52045 0.0
C1166 C 0.37659 0.98663 0.53823 0.0
C1167 C 0.31569 0.04405 0.47615 0.0
H1168 H 0.38312 0.96768 0.43027 0.0
H1169 H 0.32394 0.92197 0.47297 0.0
H1170 H 0.37178 0.03887 0.45877 0.0
H1171 H 0.39444 0.02022 0.47998 0.0
H1172 H 0.39478 0.01598 0.44169 0.0
H1173 H 0.29907 0.94548 0.50776 0.0
H1174 H 0.32021 0.96296 0.53229 0.0
H1175 H 0.30038 0.98532 0.51068 0.0
H1176 H 0.37532 0.03716 0.56847 0.0
H1177 H 0.32475 0.08626 0.51583 0.0
H1178 H 0.39084 0.98372 0.52136 0.0
H1179 H 0.36476 0.96657 0.53808 0.0
H1180 H 0.38609 0.98807 0.55924 0.0
H1181 H 0.32718 0.04526 0.45653 0.0
H1182 H 0.30374 0.06404 0.47707 0.0
H1183 H 0.30375 0.02416 0.47423 0.0
C1184 C 0.32871 0.94663 0.03328 0.0
C1185 C 0.3466 0.92616 0.02431 0.0
C1186 C 0.32681 0.97455 0.02024 0.0
C1187 C 0.3438 0.98248 0.99849 0.0
C1188 C 0.36143 0.96152 0.98883 0.0
C1189 C 0.36233 0.93344 1.00156 0.0
C1190 C 0.30722 0.99591 0.03045 0.0
C1191 C 0.38033 0.96934 0.96627 0.0
C1192 C 0.33524 0.05001 0.95099 0.0
C1193 C 0.34949 0.0712 0.96545 0.0
C1194 C 0.33233 0.02131 0.96208 0.0
C1195 C 0.34472 0.01341 0.98763 0.0
C1196 C 0.35905 0.03483 1.00231 0.0
C1197 C 0.36091 0.06359 0.99129 0.0
C1198 C 0.31621 0.99938 0.94638 0.0
C1199 C 0.37313 0.02712 0.02918 0.0
H1200 H 0.31641 0.94096 0.05075 0.0
H1201 H 0.37634 0.91775 0.99475 0.0
H1202 H 0.31604 0.01426 0.04247 0.0
H1203 H 0.29738 0.00582 0.01198 0.0
H1204 H 0.29344 0.98504 0.04461 0.0
H1205 H 0.39202 0.95011 0.96019 0.0
H1206 H 0.37103 0.97783 0.94682 0.0
H1207 H 0.39255 0.98724 0.97435 0.0
H1208 H 0.32625 0.05596 0.93111 0.0
H1209 H 0.37211 0.07988 1.00237 0.0
H1210 H 0.30247 0.98954 0.96124 0.0
H1211 H 0.32772 0.981 0.93798 0.0
H1212 H 0.30618 0.00971 0.92823 0.0
H1213 H 0.3602 0.0191 0.04586 0.0
H1214 H 0.3836 0.0463 0.03787 0.0
H1215 H 0.38638 0.00893 0.02467 0.0
C1216 C 0.66963 0.06131 0.51489 0.0
C1217 C 0.65343 0.0662 0.53783 0.0
C1218 C 0.67147 0.03328 0.50205 0.0
C1219 C 0.65611 0.00994 0.51175 0.0
C1220 C 0.63991 0.01473 0.53511 0.0
C1221 C 0.63907 0.0427 0.54816 0.0
C1222 C 0.68955 0.02877 0.47782 0.0
C1223 C 0.62276 0.99067 0.54562 0.0
C1224 C 0.63923 0.94865 0.45969 0.0
C1225 C 0.65291 0.92478 0.47042 0.0
C1226 C 0.64027 0.97657 0.47282 0.0
C1227 C 0.656 0.98092 0.49667 0.0
C1228 C 0.67066 0.95717 0.50682 0.0
C1229 C 0.66861 0.92921 0.49387 0.0
C1230 C 0.62384 1.00108 0.46182 0.0
C1231 C 0.68825 0.96121 0.53158 0.0
H1232 H 0.68089 0.07944 0.50701 0.0
H1233 H 0.62636 0.0465 0.56572 0.0
H1234 H 0.70129 0.00908 0.48201 0.0
H1235 H 0.67932 0.02452 0.45769 0.0
H1236 H 0.70174 0.0483 0.47461 0.0
H1237 H 0.61145 0.99791 0.56418 0.0
H1238 H 0.6101 0.98386 0.52814 0.0
H1239 H 0.63355 0.97085 0.55191 0.0
H1240 H 0.62692 0.9452 0.4417 0.0
H1241 H 0.67935 0.9108 0.50204 0.0
H1242 H 0.63517 0.02059 0.4558 0.0
H1243 H 0.61095 0.00828 0.47894 0.0
H1244 H 0.61279 0.99413 0.44296 0.0
H1245 H 0.70051 0.98051 0.52771 0.0
H1246 H 0.69993 0.94132 0.53521 0.0
H1247 H 0.67765 0.96583 0.55139 0.0
loop_
_geom_bond_atom_site_label_1
_geom_bond_atom_site_label_2
_geom_bond_distance
_geom_bond_site_symmetry_2
_ccdc_geom_bond_type
O0 Cd1 2.223 . S
O0 C8 1.315 . S
Cd1 O0 2.223 . S
Cd1 O4 2.297 . S
Cd1 O5 2.439 . S
Cd1 O11 2.240 . S
Cd2 O3 2.240 . S
Cd2 O10 2.223 . S
Cd2 O12 2.297 . S
Cd2 O13 2.439 . S
O3 Cd2 2.240 . S
O3 C8 1.279 . S
O4 Cd1 2.297 . S
O4 C6 1.247 . S
O5 Cd1 2.439 . S
O5 C6 1.208 . S
C6 O4 1.247 . S
C6 O5 1.208 . S
C7 O12 1.247 . S
C7 O13 1.208 . S
C8 O0 1.315 . S
C8 O3 1.279 . S
C9 O10 1.315 . S
C9 O11 1.279 . S
O10 Cd2 2.223 . S
O10 C9 1.315 . S
O11 Cd1 2.240 . S
O11 C9 1.279 . S
O12 Cd2 2.297 . S
O12 C7 1.247 . S
O13 Cd2 2.439 . S
O13 C7 1.208 . S
O14 Cd15 2.223 . S
O14 C22 1.315 . S
Cd15 O14 2.223 . S
Cd15 O18 2.297 . S
Cd15 O19 2.439 . S
Cd15 O25 2.240 . S
Cd16 O17 2.240 . S
Cd16 O24 2.223 . S
Cd16 O26 2.297 . S
Cd16 O27 2.439 . S
O17 Cd16 2.240 . S
O17 C22 1.279 . S
O18 Cd15 2.297 . S
O18 C20 1.247 . S
O19 Cd15 2.439 . S
O19 C20 1.208 . S
C20 O18 1.247 . S
C20 O19 1.208 . S
C21 O26 1.247 . S
C21 O27 1.208 . S
C22 O14 1.315 . S
C22 O17 1.279 . S
C23 O24 1.315 . S
C23 O25 1.279 . S
O24 Cd16 2.223 . S
O24 C23 1.315 . S
O25 Cd15 2.240 . S
O25 C23 1.279 . S
O26 Cd16 2.297 . S
O26 C21 1.247 . S
O27 Cd16 2.439 . S
O27 C21 1.208 . S
O28 Cd29 2.223 . S
O28 C36 1.315 . S
Cd29 O28 2.223 . S
Cd29 O32 2.297 . S
Cd29 O33 2.439 . S
Cd29 O39 2.240 . S
Cd30 O31 2.240 . S
Cd30 O38 2.223 . S
Cd30 O40 2.297 . S
Cd30 O41 2.439 . S
O31 Cd30 2.240 . S
O31 C36 1.279 . S
O32 Cd29 2.297 . S
O32 C34 1.247 . S
O33 Cd29 2.439 . S
O33 C34 1.208 . S
C34 O32 1.247 . S
C34 O33 1.208 . S
C35 O40 1.247 . S
C35 O41 1.208 . S
C36 O28 1.315 . S
C36 O31 1.279 . S
C37 O38 1.315 . S
C37 O39 1.279 . S
O38 Cd30 2.223 . S
O38 C37 1.315 . S
O39 Cd29 2.240 . S
O39 C37 1.279 . S
O40 Cd30 2.297 . S
O40 C35 1.247 . S
O41 Cd30 2.439 . S
O41 C35 1.208 . S
O42 Cd43 2.223 . S
O42 C50 1.315 . S
Cd43 O42 2.223 . S
Cd43 O46 2.297 . S
Cd43 O47 2.439 . S
Cd43 O53 2.240 . S
Cd44 O45 2.240 . S
Cd44 O52 2.223 . S
Cd44 O54 2.297 . S
Cd44 O55 2.439 . S
O45 Cd44 2.240 . S
O45 C50 1.279 . S
O46 Cd43 2.297 . S
O46 C48 1.247 . S
O47 Cd43 2.439 . S
O47 C48 1.208 . S
C48 O46 1.247 . S
C48 O47 1.208 . S
C49 O54 1.247 . S
C49 O55 1.208 . S
C50 O42 1.315 . S
C50 O45 1.279 . S
C51 O52 1.315 . S
C51 O53 1.279 . S
O52 Cd44 2.223 . S
O52 C51 1.315 . S
O53 Cd43 2.240 . S
O53 C51 1.279 . S
O54 Cd44 2.297 . S
O54 C49 1.247 . S
O55 Cd44 2.439 . S
O55 C49 1.208 . S
O56 Cd57 2.223 . S
O56 C64 1.315 . S
Cd57 O56 2.223 . S
Cd57 O60 2.297 . S
Cd57 O61 2.439 . S
Cd57 O67 2.240 . S
Cd58 O59 2.240 . S
Cd58 O66 2.223 . S
Cd58 O68 2.297 . S
Cd58 O69 2.439 . S
O59 Cd58 2.240 . S
O59 C64 1.279 . S
O60 Cd57 2.297 . S
O60 C62 1.247 . S
O61 Cd57 2.439 . S
O61 C62 1.208 . S
C62 O60 1.247 . S
C62 O61 1.208 . S
C63 O68 1.247 . S
C63 O69 1.208 . S
C64 O56 1.315 . S
C64 O59 1.279 . S
C65 O66 1.315 . S
C65 O67 1.279 . S
O66 Cd58 2.223 . S
O66 C65 1.315 . S
O67 Cd57 2.240 . S
O67 C65 1.279 . S
O68 Cd58 2.297 . S
O68 C63 1.247 . S
O69 Cd58 2.439 . S
O69 C63 1.208 . S
O70 Cd71 2.223 . S
O70 C78 1.315 . S
Cd71 O70 2.223 . S
Cd71 O74 2.297 . S
Cd71 O75 2.439 . S
Cd71 O81 2.240 . S
Cd72 O73 2.240 . S
Cd72 O80 2.223 . S
Cd72 O82 2.297 . S
Cd72 O83 2.439 . S
O73 Cd72 2.240 . S
O73 C78 1.279 . S
O74 Cd71 2.297 . S
O74 C76 1.247 . S
O75 Cd71 2.439 . S
O75 C76 1.208 . S
C76 O74 1.247 . S
C76 O75 1.208 . S
C77 O82 1.247 . S
C77 O83 1.208 . S
C78 O70 1.315 . S
C78 O73 1.279 . S
C79 O80 1.315 . S
C79 O81 1.279 . S
O80 Cd72 2.223 . S
O80 C79 1.315 . S
O81 Cd71 2.240 . S
O81 C79 1.279 . S
O82 Cd72 2.297 . S
O82 C77 1.247 . S
O83 Cd72 2.439 . S
O83 C77 1.208 . S
O84 Cd85 2.223 . S
O84 C92 1.315 . S
Cd85 O84 2.223 . S
Cd85 O88 2.297 . S
Cd85 O89 2.439 . S
Cd85 O95 2.240 . S
Cd86 O87 2.240 . S
Cd86 O94 2.223 . S
Cd86 O96 2.297 . S
Cd86 O97 2.439 . S
O87 Cd86 2.240 . S
O87 C92 1.279 . S
O88 Cd85 2.297 . S
O88 C90 1.247 . S
O89 Cd85 2.439 . S
O89 C90 1.208 . S
C90 O88 1.247 . S
C90 O89 1.208 . S
C91 O96 1.247 . S
C91 O97 1.208 . S
C92 O84 1.315 . S
C92 O87 1.279 . S
C93 O94 1.315 . S
C93 O95 1.279 . S
O94 Cd86 2.223 . S
O94 C93 1.315 . S
O95 Cd85 2.240 . S
O95 C93 1.279 . S
O96 Cd86 2.297 . S
O96 C91 1.247 . S
O97 Cd86 2.439 . S
O97 C91 1.208 . S
O98 Cd99 2.223 . S
O98 C106 1.315 . S
Cd99 O98 2.223 . S
Cd99 O102 2.297 . S
Cd99 O103 2.439 . S
Cd99 O109 2.240 . S
Cd100 O101 2.240 . S
Cd100 O108 2.223 . S
Cd100 O110 2.297 . S
Cd100 O111 2.439 . S
O101 Cd100 2.240 . S
O101 C106 1.279 . S
O102 Cd99 2.297 . S
O102 C104 1.247 . S
O103 Cd99 2.439 . S
O103 C104 1.208 . S
C104 O102 1.247 . S
C104 O103 1.208 . S
C105 O110 1.247 . S
C105 O111 1.208 . S
C106 O98 1.315 . S
C106 O101 1.279 . S
C107 O108 1.315 . S
C107 O109 1.279 . S
O108 Cd100 2.223 . S
O108 C107 1.315 . S
O109 Cd99 2.240 . S
O109 C107 1.279 . S
O110 Cd100 2.297 . S
O110 C105 1.247 . S
O111 Cd100 2.439 . S
O111 C105 1.208 . S
O112 Cd113 2.223 . S
O112 C120 1.315 . S
Cd113 O112 2.223 . S
Cd113 O116 2.297 . S
Cd113 O117 2.439 . S
Cd113 O123 2.240 . S
Cd114 O115 2.240 . S
Cd114 O122 2.223 . S
Cd114 O124 2.297 . S
Cd114 O125 2.439 . S
O115 Cd114 2.240 . S
O115 C120 1.279 . S
O116 Cd113 2.297 . S
O116 C118 1.247 . S
O117 Cd113 2.439 . S
O117 C118 1.208 . S
C118 O116 1.247 . S
C118 O117 1.208 . S
C119 O124 1.247 . S
C119 O125 1.208 . S
C120 O112 1.315 . S
C120 O115 1.279 . S
C121 O122 1.315 . S
C121 O123 1.279 . S
O122 Cd114 2.223 . S
O122 C121 1.315 . S
O123 Cd113 2.240 . S
O123 C121 1.279 . S
O124 Cd114 2.297 . S
O124 C119 1.247 . S
O125 Cd114 2.439 . S
O125 C119 1.208 . S
O126 Cd127 2.223 . S
O126 C134 1.315 . S
Cd127 O126 2.223 . S
Cd127 O130 2.297 . S
Cd127 O131 2.439 . S
Cd127 O137 2.240 . S
Cd128 O129 2.240 . S
Cd128 O136 2.223 . S
Cd128 O138 2.297 . S
Cd128 O139 2.439 . S
O129 Cd128 2.240 . S
O129 C134 1.279 . S
O130 Cd127 2.297 . S
O130 C132 1.247 . S
O131 Cd127 2.439 . S
O131 C132 1.208 . S
C132 O130 1.247 . S
C132 O131 1.208 . S
C133 O138 1.247 . S
C133 O139 1.208 . S
C134 O126 1.315 . S
C134 O129 1.279 . S
C135 O136 1.315 . S
C135 O137 1.279 . S
O136 Cd128 2.223 . S
O136 C135 1.315 . S
O137 Cd127 2.240 . S
O137 C135 1.279 . S
O138 Cd128 2.297 . S
O138 C133 1.247 . S
O139 Cd128 2.439 . S
O139 C133 1.208 . S
O140 Cd141 2.223 . S
O140 C148 1.315 . S
Cd141 O140 2.223 . S
Cd141 O144 2.297 . S
Cd141 O145 2.439 . S
Cd141 O151 2.240 . S
Cd142 O143 2.240 . S
Cd142 O150 2.223 . S
Cd142 O152 2.297 . S
Cd142 O153 2.439 . S
O143 Cd142 2.240 . S
O143 C148 1.279 . S
O144 Cd141 2.297 . S
O144 C146 1.247 . S
O145 Cd141 2.439 . S
O145 C146 1.208 . S
C146 O144 1.247 . S
C146 O145 1.208 . S
C147 O152 1.247 . S
C147 O153 1.208 . S
C148 O140 1.315 . S
C148 O143 1.279 . S
C149 O150 1.315 . S
C149 O151 1.279 . S
O150 Cd142 2.223 . S
O150 C149 1.315 . S
O151 Cd141 2.240 . S
O151 C149 1.279 . S
O152 Cd142 2.297 . S
O152 C147 1.247 . S
O153 Cd142 2.439 . S
O153 C147 1.208 . S
O154 Cd155 2.223 . S
O154 C162 1.315 . S
Cd155 O154 2.223 . S
Cd155 O158 2.297 . S
Cd155 O159 2.439 . S
Cd155 O165 2.240 . S
Cd156 O157 2.240 . S
Cd156 O164 2.223 . S
Cd156 O166 2.297 . S
Cd156 O167 2.439 . S
O157 Cd156 2.240 . S
O157 C162 1.279 . S
O158 Cd155 2.297 . S
O158 C160 1.247 . S
O159 Cd155 2.439 . S
O159 C160 1.208 . S
C160 O158 1.247 . S
C160 O159 1.208 . S
C161 O166 1.247 . S
C161 O167 1.208 . S
C162 O154 1.315 . S
C162 O157 1.279 . S
C163 O164 1.315 . S
C163 O165 1.279 . S
O164 Cd156 2.223 . S
O164 C163 1.315 . S
O165 Cd155 2.240 . S
O165 C163 1.279 . S
O166 Cd156 2.297 . S
O166 C161 1.247 . S
O167 Cd156 2.439 . S
O167 C161 1.208 . S
O168 Cd169 2.223 . S
O168 C176 1.315 . S
Cd169 O168 2.223 . S
Cd169 O172 2.297 . S
Cd169 O173 2.439 . S
Cd169 O179 2.240 . S
Cd170 O171 2.240 . S
Cd170 O178 2.223 . S
Cd170 O180 2.297 . S
Cd170 O181 2.439 . S
O171 Cd170 2.240 . S
O171 C176 1.279 . S
O172 Cd169 2.297 . S
O172 C174 1.247 . S
O173 Cd169 2.439 . S
O173 C174 1.208 . S
C174 O172 1.247 . S
C174 O173 1.208 . S
C175 O180 1.247 . S
C175 O181 1.208 . S
C176 O168 1.315 . S
C176 O171 1.279 . S
C177 O178 1.315 . S
C177 O179 1.279 . S
O178 Cd170 2.223 . S
O178 C177 1.315 . S
O179 Cd169 2.240 . S
O179 C177 1.279 . S
O180 Cd170 2.297 . S
O180 C175 1.247 . S
O181 Cd170 2.439 . S
O181 C175 1.208 . S
O182 Cd183 2.223 . S
O182 C190 1.315 . S
Cd183 O182 2.223 . S
Cd183 O186 2.297 . S
Cd183 O187 2.439 . S
Cd183 O193 2.240 . S
Cd184 O185 2.240 . S
Cd184 O192 2.223 . S
Cd184 O194 2.297 . S
Cd184 O195 2.439 . S
O185 Cd184 2.240 . S
O185 C190 1.279 . S
O186 Cd183 2.297 . S
O186 C188 1.247 . S
O187 Cd183 2.439 . S
O187 C188 1.208 . S
C188 O186 1.247 . S
C188 O187 1.208 . S
C189 O194 1.247 . S
C189 O195 1.208 . S
C190 O182 1.315 . S
C190 O185 1.279 . S
C191 O192 1.315 . S
C191 O193 1.279 . S
O192 Cd184 2.223 . S
O192 C191 1.315 . S
O193 Cd183 2.240 . S
O193 C191 1.279 . S
O194 Cd184 2.297 . S
O194 C189 1.247 . S
O195 Cd184 2.439 . S
O195 C189 1.208 . S
O196 Cd197 2.223 . S
O196 C204 1.315 . S
Cd197 O196 2.223 . S
Cd197 O200 2.297 . S
Cd197 O201 2.439 . S
Cd197 O207 2.240 . S
Cd198 O199 2.240 . S
Cd198 O206 2.223 . S
Cd198 O208 2.297 . S
Cd198 O209 2.439 . S
O199 Cd198 2.240 . S
O199 C204 1.279 . S
O200 Cd197 2.297 . S
O200 C202 1.247 . S
O201 Cd197 2.439 . S
O201 C202 1.208 . S
C202 O200 1.247 . S
C202 O201 1.208 . S
C203 O208 1.247 . S
C203 O209 1.208 . S
C204 O196 1.315 . S
C204 O199 1.279 . S
C205 O206 1.315 . S
C205 O207 1.279 . S
O206 Cd198 2.223 . S
O206 C205 1.315 . S
O207 Cd197 2.240 . S
O207 C205 1.279 . S
O208 Cd198 2.297 . S
O208 C203 1.247 . S
O209 Cd198 2.439 . S
O209 C203 1.208 . S
O210 Cd211 2.223 . S
O210 C218 1.315 . S
Cd211 O210 2.223 . S
Cd211 O214 2.297 . S
Cd211 O215 2.439 . S
Cd211 O221 2.240 . S
Cd212 O213 2.240 . S
Cd212 O220 2.223 . S
Cd212 O222 2.297 . S
Cd212 O223 2.439 . S
O213 Cd212 2.240 . S
O213 C218 1.279 . S
O214 Cd211 2.297 . S
O214 C216 1.247 . S
O215 Cd211 2.439 . S
O215 C216 1.208 . S
C216 O214 1.247 . S
C216 O215 1.208 . S
C217 O222 1.247 . S
C217 O223 1.208 . S
C218 O210 1.315 . S
C218 O213 1.279 . S
C219 O220 1.315 . S
C219 O221 1.279 . S
O220 Cd212 2.223 . S
O220 C219 1.315 . S
O221 Cd211 2.240 . S
O221 C219 1.279 . S
O222 Cd212 2.297 . S
O222 C217 1.247 . S
O223 Cd212 2.439 . S
O223 C217 1.208 . S
C224 C225 1.391 . S
C224 C226 1.394 . S
C224 H240 0.931 . S
C225 C224 1.391 . S
C225 C229 1.376 . S
C226 C224 1.394 . S
C226 C227 1.369 . S
C226 C230 1.531 . S
C227 C226 1.369 . S
C227 C228 1.410 . S
C227 C235 1.503 1_455 S
C228 C227 1.410 . S
C228 C229 1.392 . S
C228 C231 1.511 . S
C229 C225 1.376 . S
C229 C228 1.392 . S
C229 H241 0.929 . S
C230 C226 1.531 . S
C230 H242 0.960 1_455 S
C230 H243 0.967 . S
C230 H244 0.960 . S
C231 C228 1.511 . S
C231 H245 0.961 . S
C231 H246 0.961 1_455 S
C231 H247 0.962 . S
C232 C233 1.370 . S
C232 C234 1.363 . S
C232 H248 0.931 . S
C233 C232 1.370 . S
C233 C237 1.408 . S
C234 C232 1.363 . S
C234 C235 1.370 . S
C234 C238 1.524 . S
C235 C227 1.503 1_655 S
C235 C234 1.370 . S
C235 C236 1.403 . S
C236 C235 1.403 . S
C236 C237 1.404 . S
C236 C239 1.539 . S
C237 C233 1.408 . S
C237 C236 1.404 . S
C237 H249 0.930 . S
C238 C234 1.524 . S
C238 H250 0.956 . S
C238 H251 0.961 . S
C238 H252 0.961 . S
C239 C236 1.539 . S
C239 H253 0.958 . S
C239 H254 0.961 . S
C239 H255 0.960 . S
H240 C224 0.931 . S
H241 C229 0.929 . S
H242 C230 0.960 1_655 S
H243 C230 0.967 . S
H244 C230 0.960 . S
H245 C231 0.961 . S
H246 C231 0.961 1_655 S
H247 C231 0.962 . S
H248 C232 0.931 . S
H249 C237 0.930 . S
H250 C238 0.956 . S
H251 C238 0.961 . S
H252 C238 0.961 . S
H253 C239 0.958 . S
H254 C239 0.961 . S
H255 C239 0.960 . S
C256 C257 1.391 . S
C256 C258 1.394 . S
C256 H272 0.931 . S
C257 C256 1.391 . S
C257 C261 1.376 . S
C258 C256 1.394 . S
C258 C259 1.369 . S
C258 C262 1.531 . S
C259 C258 1.369 . S
C259 C260 1.410 . S
C259 C267 1.503 1_655 S
C260 C259 1.410 . S
C260 C261 1.392 . S
C260 C263 1.499 1_655 S
C261 C257 1.376 . S
C261 C260 1.392 . S
C261 H273 0.929 . S
C262 C258 1.531 . S
C262 H274 0.960 1_655 S
C262 H275 0.962 . S
C262 H276 0.960 . S
C263 C260 1.499 1_455 S
C263 H277 0.949 1_455 S
C263 H278 0.981 . S
C263 H279 0.965 . S
C264 C265 1.370 . S
C264 C266 1.363 . S
C264 H280 0.931 . S
C265 C264 1.370 . S
C265 C269 1.408 . S
C266 C264 1.363 . S
C266 C267 1.370 . S
C266 C270 1.524 . S
C267 C259 1.503 1_455 S
C267 C266 1.370 . S
C267 C268 1.403 . S
C268 C267 1.403 . S
C268 C269 1.404 . S
C268 C271 1.539 . S
C269 C265 1.408 . S
C269 C268 1.404 . S
C269 H281 0.930 . S
C270 C266 1.524 . S
C270 H282 0.956 . S
C270 H283 0.961 . S
C270 H284 0.961 . S
C271 C268 1.539 . S
C271 H285 0.958 . S
C271 H286 0.961 . S
C271 H287 0.960 . S
H272 C256 0.931 . S
H273 C261 0.929 . S
H274 C262 0.960 1_455 S
H275 C262 0.962 . S
H276 C262 0.960 . S
H277 C263 0.949 1_655 S
H278 C263 0.981 . S
H279 C263 0.965 . S
H280 C264 0.931 . S
H281 C269 0.930 . S
H282 C270 0.956 . S
H283 C270 0.961 . S
H284 C270 0.961 . S
H285 C271 0.958 . S
H286 C271 0.961 . S
H287 C271 0.960 . S
C288 C289 1.391 . S
C288 C290 1.394 . S
C288 H304 0.931 . S
C289 C288 1.391 . S
C289 C293 1.376 . S
C290 C288 1.394 . S
C290 C291 1.369 . S
C290 C294 1.531 . S
C291 C290 1.369 . S
C291 C292 1.410 . S
C291 C299 1.503 1_655 S
C292 C291 1.410 . S
C292 C293 1.392 . S
C292 C295 1.511 . S
C293 C289 1.376 . S
C293 C292 1.392 . S
C293 H305 0.929 . S
C294 C290 1.531 . S
C294 H306 0.960 . S
C294 H307 0.962 . S
C294 H308 0.960 . S
C295 C292 1.511 . S
C295 H309 0.961 . S
C295 H310 0.961 . S
C295 H311 0.961 . S
C296 C297 1.370 . S
C296 C298 1.363 . S
C296 H312 0.931 . S
C297 C296 1.370 . S
C297 C301 1.408 . S
C298 C296 1.363 . S
C298 C299 1.370 . S
C298 C302 1.539 . S
C299 C291 1.503 1_455 S
C299 C298 1.370 . S
C299 C300 1.403 . S
C300 C299 1.403 . S
C300 C301 1.404 . S
C300 C303 1.539 . S
C301 C297 1.408 . S
C301 C300 1.404 . S
C301 H313 0.930 . S
C302 C298 1.539 . S
C302 H314 0.945 1_455 S
C302 H315 0.942 1_455 S
C302 H316 0.977 . S
C303 C300 1.539 . S
C303 H317 0.958 . S
C303 H318 0.961 . S
C303 H319 0.960 1_455 S
H304 C288 0.931 . S
H305 C293 0.929 . S
H306 C294 0.960 . S
H307 C294 0.962 . S
H308 C294 0.960 . S
H309 C295 0.961 . S
H310 C295 0.961 . S
H311 C295 0.961 . S
H312 C296 0.931 . S
H313 C301 0.930 . S
H314 C302 0.945 1_655 S
H315 C302 0.942 1_655 S
H316 C302 0.977 . S
H317 C303 0.958 . S
H318 C303 0.961 . S
H319 C303 0.960 1_655 S
C320 C321 1.391 . S
C320 C322 1.394 . S
C320 H336 0.931 . S
C321 C320 1.391 . S
C321 C325 1.376 . S
C322 C320 1.394 . S
C322 C323 1.369 . S
C322 C326 1.531 . S
C323 C322 1.369 . S
C323 C324 1.410 . S
C323 C331 1.503 1_455 S
C324 C323 1.410 . S
C324 C325 1.392 . S
C324 C327 1.511 . S
C325 C321 1.376 . S
C325 C324 1.392 . S
C325 H337 0.929 . S
C326 C322 1.531 . S
C326 H338 0.960 . S
C326 H339 0.962 . S
C326 H340 0.960 . S
C327 C324 1.511 . S
C327 H341 0.961 . S
C327 H342 0.961 . S
C327 H343 0.961 . S
C328 C329 1.370 . S
C328 C330 1.363 . S
C328 H344 0.931 . S
C329 C328 1.370 . S
C329 C333 1.408 . S
C330 C328 1.363 . S
C330 C331 1.370 . S
C330 C334 1.524 . S
C331 C323 1.503 1_655 S
C331 C330 1.370 . S
C331 C332 1.403 . S
C332 C331 1.403 . S
C332 C333 1.404 . S
C332 C335 1.539 . S
C333 C329 1.408 . S
C333 C332 1.404 . S
C333 H345 0.930 . S
C334 C330 1.524 . S
C334 H346 0.956 1_655 S
C334 H347 0.961 1_655 S
C334 H348 0.961 . S
C335 C332 1.539 . S
C335 H349 0.958 1_655 S
C335 H350 0.961 . S
C335 H351 0.960 1_655 S
H336 C320 0.931 . S
H337 C325 0.929 . S
H338 C326 0.960 . S
H339 C326 0.962 . S
H340 C326 0.960 . S
H341 C327 0.961 . S
H342 C327 0.961 . S
H343 C327 0.961 . S
H344 C328 0.931 . S
H345 C333 0.930 . S
H346 C334 0.956 1_455 S
H347 C334 0.961 1_455 S
H348 C334 0.961 . S
H349 C335 0.958 1_455 S
H350 C335 0.961 . S
H351 C335 0.960 1_455 S
C352 C353 1.391 . S
C352 C354 1.394 . S
C352 H368 0.931 . S
C353 C352 1.391 . S
C353 C357 1.376 . S
C354 C352 1.394 . S
C354 C355 1.369 . S
C354 C358 1.531 . S
C355 C354 1.369 . S
C355 C356 1.410 . S
C355 C363 1.503 . S
C356 C355 1.410 . S
C356 C357 1.392 . S
C356 C359 1.511 . S
C357 C353 1.376 . S
C357 C356 1.392 . S
C357 H369 0.929 . S
C358 C354 1.531 . S
C358 H370 0.960 . S
C358 H371 0.962 . S
C358 H372 0.960 . S
C359 C356 1.511 . S
C359 H373 0.961 . S
C359 H374 0.961 . S
C359 H375 0.961 . S
C360 C361 1.370 . S
C360 C362 1.363 . S
C360 H376 0.931 . S
C361 C360 1.370 . S
C361 C365 1.408 . S
C362 C360 1.363 . S
C362 C363 1.370 . S
C362 C366 1.524 . S
C363 C355 1.503 . S
C363 C362 1.370 . S
C363 C364 1.403 . S
C364 C363 1.403 . S
C364 C365 1.404 . S
C364 C367 1.539 . S
C365 C361 1.408 . S
C365 C364 1.404 . S
C365 H377 0.930 . S
C366 C362 1.524 . S
C366 H378 0.956 . S
C366 H379 0.961 . S
C366 H380 0.961 . S
C367 C364 1.539 . S
C367 H381 0.958 . S
C367 H382 0.961 . S
C367 H383 0.960 . S
H368 C352 0.931 . S
H369 C357 0.929 . S
H370 C358 0.960 . S
H371 C358 0.962 . S
H372 C358 0.960 . S
H373 C359 0.961 . S
H374 C359 0.961 . S
H375 C359 0.961 . S
H376 C360 0.931 . S
H377 C365 0.930 . S
H378 C366 0.956 . S
H379 C366 0.961 . S
H380 C366 0.961 . S
H381 C367 0.958 . S
H382 C367 0.961 . S
H383 C367 0.960 . S
C384 C385 1.391 . S
C384 C386 1.394 . S
C384 H400 0.931 . S
C385 C384 1.391 . S
C385 C389 1.376 . S
C386 C384 1.394 . S
C386 C387 1.369 . S
C386 C390 1.531 . S
C387 C386 1.369 . S
C387 C388 1.410 . S
C387 C395 1.503 . S
C388 C387 1.410 . S
C388 C389 1.392 . S
C388 C391 1.511 . S
C389 C385 1.376 . S
C389 C388 1.392 . S
C389 H401 0.929 . S
C390 C386 1.531 . S
C390 H402 0.960 . S
C390 H403 0.962 . S
C390 H404 0.960 . S
C391 C388 1.511 . S
C391 H405 0.961 . S
C391 H406 0.961 . S
C391 H407 0.961 . S
C392 C393 1.370 . S
C392 C394 1.363 . S
C392 H408 0.931 . S
C393 C392 1.370 . S
C393 C397 1.408 . S
C394 C392 1.363 . S
C394 C395 1.370 . S
C394 C398 1.524 . S
C395 C387 1.503 . S
C395 C394 1.370 . S
C395 C396 1.403 . S
C396 C395 1.403 . S
C396 C397 1.404 . S
C396 C399 1.539 . S
C397 C393 1.408 . S
C397 C396 1.404 . S
C397 H409 0.930 . S
C398 C394 1.524 . S
C398 H410 0.956 . S
C398 H411 0.961 . S
C398 H412 0.961 . S
C399 C396 1.539 . S
C399 H413 0.958 . S
C399 H414 0.961 . S
C399 H415 0.960 . S
H400 C384 0.931 . S
H401 C389 0.929 . S
H402 C390 0.960 . S
H403 C390 0.962 . S
H404 C390 0.960 . S
H405 C391 0.961 . S
H406 C391 0.961 . S
H407 C391 0.961 . S
H408 C392 0.931 . S
H409 C397 0.930 . S
H410 C398 0.956 . S
H411 C398 0.961 . S
H412 C398 0.961 . S
H413 C399 0.958 . S
H414 C399 0.961 . S
H415 C399 0.960 . S
C416 C417 1.391 . S
C416 C418 1.394 . S
C416 H432 0.931 . S
C417 C416 1.391 . S
C417 C421 1.376 . S
C418 C416 1.394 . S
C418 C419 1.369 . S
C418 C422 1.531 . S
C419 C418 1.369 . S
C419 C420 1.410 . S
C419 C427 1.503 . S
C420 C419 1.410 . S
C420 C421 1.392 . S
C420 C423 1.511 . S
C421 C417 1.376 . S
C421 C420 1.392 . S
C421 H433 0.929 . S
C422 C418 1.531 . S
C422 H434 0.960 . S
C422 H435 0.962 . S
C422 H436 0.960 . S
C423 C420 1.511 . S
C423 H437 0.961 . S
C423 H438 0.961 . S
C423 H439 0.961 . S
C424 C425 1.370 . S
C424 C426 1.363 . S
C424 H440 0.931 . S
C425 C424 1.370 . S
C425 C429 1.408 . S
C426 C424 1.363 . S
C426 C427 1.370 . S
C426 C430 1.524 . S
C427 C419 1.503 . S
C427 C426 1.370 . S
C427 C428 1.403 . S
C428 C427 1.403 . S
C428 C429 1.404 . S
C428 C431 1.539 . S
C429 C425 1.408 . S
C429 C428 1.404 . S
C429 H441 0.930 . S
C430 C426 1.524 . S
C430 H442 0.956 . S
C430 H443 0.961 . S
C430 H444 0.961 . S
C431 C428 1.539 . S
C431 H445 0.958 . S
C431 H446 0.961 . S
C431 H447 0.960 . S
H432 C416 0.931 . S
H433 C421 0.929 . S
H434 C422 0.960 . S
H435 C422 0.962 . S
H436 C422 0.960 . S
H437 C423 0.961 . S
H438 C423 0.961 . S
H439 C423 0.961 . S
H440 C424 0.931 . S
H441 C429 0.930 . S
H442 C430 0.956 . S
H443 C430 0.961 . S
H444 C430 0.961 . S
H445 C431 0.958 . S
H446 C431 0.961 . S
H447 C431 0.960 . S
C448 C449 1.391 . S
C448 C450 1.394 . S
C448 H464 0.931 . S
C449 C448 1.391 . S
C449 C453 1.376 . S
C450 C448 1.394 . S
C450 C451 1.369 . S
C450 C454 1.531 . S
C451 C450 1.369 . S
C451 C452 1.410 . S
C451 C459 1.503 . S
C452 C451 1.410 . S
C452 C453 1.392 . S
C452 C455 1.511 . S
C453 C449 1.376 . S
C453 C452 1.392 . S
C453 H465 0.929 . S
C454 C450 1.531 . S
C454 H466 0.960 . S
C454 H467 0.962 . S
C454 H468 0.960 . S
C455 C452 1.511 . S
C455 H469 0.961 . S
C455 H470 0.961 . S
C455 H471 0.961 . S
C456 C457 1.370 . S
C456 C458 1.363 . S
C456 H472 0.931 . S
C457 C456 1.370 . S
C457 C461 1.408 . S
C458 C456 1.363 . S
C458 C459 1.370 . S
C458 C462 1.524 . S
C459 C451 1.503 . S
C459 C458 1.370 . S
C459 C460 1.403 . S
C460 C459 1.403 . S
C460 C461 1.404 . S
C460 C463 1.539 . S
C461 C457 1.408 . S
C461 C460 1.404 . S
C461 H473 0.930 . S
C462 C458 1.524 . S
C462 H474 0.956 . S
C462 H475 0.961 . S
C462 H476 0.961 . S
C463 C460 1.539 . S
C463 H477 0.958 . S
C463 H478 0.961 . S
C463 H479 0.960 . S
H464 C448 0.931 . S
H465 C453 0.929 . S
H466 C454 0.960 . S
H467 C454 0.962 . S
H468 C454 0.960 . S
H469 C455 0.961 . S
H470 C455 0.961 . S
H471 C455 0.961 . S
H472 C456 0.931 . S
H473 C461 0.930 . S
H474 C462 0.956 . S
H475 C462 0.961 . S
H476 C462 0.961 . S
H477 C463 0.958 . S
H478 C463 0.961 . S
H479 C463 0.960 . S
C480 C481 1.391 . S
C480 C482 1.394 . S
C480 H496 0.931 . S
C481 C480 1.391 . S
C481 C485 1.376 . S
C482 C480 1.394 . S
C482 C483 1.369 . S
C482 C486 1.531 . S
C483 C482 1.369 . S
C483 C484 1.410 . S
C483 C491 1.503 . S
C484 C483 1.410 . S
C484 C485 1.392 . S
C484 C487 1.511 . S
C485 C481 1.376 . S
C485 C484 1.392 . S
C485 H497 0.929 . S
C486 C482 1.531 . S
C486 H498 0.960 . S
C486 H499 0.962 . S
C486 H500 0.960 . S
C487 C484 1.511 . S
C487 H501 0.961 . S
C487 H502 0.961 . S
C487 H503 0.961 . S
C488 C489 1.370 . S
C488 C490 1.363 . S
C488 H504 0.931 . S
C489 C488 1.370 . S
C489 C493 1.408 . S
C490 C488 1.363 . S
C490 C491 1.370 . S
C490 C494 1.524 . S
C491 C483 1.503 . S
C491 C490 1.370 . S
C491 C492 1.403 . S
C492 C491 1.403 . S
C492 C493 1.404 . S
C492 C495 1.539 . S
C493 C489 1.408 . S
C493 C492 1.404 . S
C493 H505 0.930 . S
C494 C490 1.524 . S
C494 H506 0.956 . S
C494 H507 0.961 . S
C494 H508 0.961 . S
C495 C492 1.539 . S
C495 H509 0.958 . S
C495 H510 0.961 . S
C495 H511 0.960 . S
H496 C480 0.931 . S
H497 C485 0.929 . S
H498 C486 0.960 . S
H499 C486 0.962 . S
H500 C486 0.960 . S
H501 C487 0.961 . S
H502 C487 0.961 . S
H503 C487 0.961 . S
H504 C488 0.931 . S
H505 C493 0.930 . S
H506 C494 0.956 . S
H507 C494 0.961 . S
H508 C494 0.961 . S
H509 C495 0.958 . S
H510 C495 0.961 . S
H511 C495 0.960 . S
C512 C513 1.391 . S
C512 C514 1.394 . S
C512 H528 0.931 . S
C513 C512 1.391 . S
C513 C517 1.376 . S
C514 C512 1.394 . S
C514 C515 1.369 . S
C514 C518 1.531 . S
C515 C514 1.369 . S
C515 C516 1.410 . S
C515 C523 1.503 . S
C516 C515 1.410 . S
C516 C517 1.392 . S
C516 C519 1.511 . S
C517 C513 1.376 . S
C517 C516 1.392 . S
C517 H529 0.929 . S
C518 C514 1.531 . S
C518 H530 0.960 . S
C518 H531 0.962 . S
C518 H532 0.960 . S
C519 C516 1.511 . S
C519 H533 0.961 . S
C519 H534 0.961 . S
C519 H535 0.961 . S
C520 C521 1.370 . S
C520 C522 1.363 . S
C520 H536 0.931 . S
C521 C520 1.370 . S
C521 C525 1.408 . S
C522 C520 1.363 . S
C522 C523 1.370 . S
C522 C526 1.524 . S
C523 C515 1.503 . S
C523 C522 1.370 . S
C523 C524 1.403 . S
C524 C523 1.403 . S
C524 C525 1.404 . S
C524 C527 1.539 . S
C525 C521 1.408 . S
C525 C524 1.404 . S
C525 H537 0.930 . S
C526 C522 1.524 . S
C526 H538 0.956 . S
C526 H539 0.961 . S
C526 H540 0.961 . S
C527 C524 1.539 . S
C527 H541 0.958 . S
C527 H542 0.961 . S
C527 H543 0.960 . S
H528 C512 0.931 . S
H529 C517 0.929 . S
H530 C518 0.960 . S
H531 C518 0.962 . S
H532 C518 0.960 . S
H533 C519 0.961 . S
H534 C519 0.961 . S
H535 C519 0.961 . S
H536 C520 0.931 . S
H537 C525 0.930 . S
H538 C526 0.956 . S
H539 C526 0.961 . S
H540 C526 0.961 . S
H541 C527 0.958 . S
H542 C527 0.961 . S
H543 C527 0.960 . S
C544 C545 1.391 . S
C544 C546 1.394 . S
C544 H560 0.931 . S
C545 C544 1.391 . S
C545 C549 1.376 . S
C546 C544 1.394 . S
C546 C547 1.369 . S
C546 C550 1.531 . S
C547 C546 1.369 . S
C547 C548 1.410 . S
C547 C555 1.503 . S
C548 C547 1.410 . S
C548 C549 1.392 . S
C548 C551 1.511 . S
C549 C545 1.376 . S
C549 C548 1.392 . S
C549 H561 0.929 . S
C550 C546 1.531 . S
C550 H562 0.960 . S
C550 H563 0.962 . S
C550 H564 0.960 . S
C551 C548 1.511 . S
C551 H565 0.961 . S
C551 H566 0.961 . S
C551 H567 0.961 . S
C552 C553 1.370 . S
C552 C554 1.363 . S
C552 H568 0.931 . S
C553 C552 1.370 . S
C553 C557 1.408 . S
C554 C552 1.363 . S
C554 C555 1.370 . S
C554 C558 1.524 . S
C555 C547 1.503 . S
C555 C554 1.370 . S
C555 C556 1.403 . S
C556 C555 1.403 . S
C556 C557 1.404 . S
C556 C559 1.539 . S
C557 C553 1.408 . S
C557 C556 1.404 . S
C557 H569 0.930 . S
C558 C554 1.524 . S
C558 H570 0.956 . S
C558 H571 0.961 . S
C558 H572 0.961 . S
C559 C556 1.539 . S
C559 H573 0.958 . S
C559 H574 0.961 . S
C559 H575 0.960 . S
H560 C544 0.931 . S
H561 C549 0.929 . S
H562 C550 0.960 . S
H563 C550 0.962 . S
H564 C550 0.960 . S
H565 C551 0.961 . S
H566 C551 0.961 . S
H567 C551 0.961 . S
H568 C552 0.931 . S
H569 C557 0.930 . S
H570 C558 0.956 . S
H571 C558 0.961 . S
H572 C558 0.961 . S
H573 C559 0.958 . S
H574 C559 0.961 . S
H575 C559 0.960 . S
C576 C577 1.391 . S
C576 C578 1.394 . S
C576 H592 0.931 . S
C577 C576 1.391 . S
C577 C581 1.376 . S
C578 C576 1.394 . S
C578 C579 1.369 . S
C578 C582 1.531 . S
C579 C578 1.369 . S
C579 C580 1.410 . S
C579 C587 1.503 . S
C580 C579 1.410 . S
C580 C581 1.392 . S
C580 C583 1.511 . S
C581 C577 1.376 . S
C581 C580 1.392 . S
C581 H593 0.929 . S
C582 C578 1.531 . S
C582 H594 0.960 . S
C582 H595 0.962 . S
C582 H596 0.960 . S
C583 C580 1.511 . S
C583 H597 0.961 . S
C583 H598 0.961 . S
C583 H599 0.961 . S
C584 C585 1.370 . S
C584 C586 1.363 . S
C584 H600 0.931 . S
C585 C584 1.370 . S
C585 C589 1.408 . S
C586 C584 1.363 . S
C586 C587 1.370 . S
C586 C590 1.524 . S
C587 C579 1.503 . S
C587 C586 1.370 . S
C587 C588 1.403 . S
C588 C587 1.403 . S
C588 C589 1.404 . S
C588 C591 1.539 . S
C589 C585 1.408 . S
C589 C588 1.404 . S
C589 H601 0.930 . S
C590 C586 1.524 . S
C590 H602 0.956 . S
C590 H603 0.961 . S
C590 H604 0.961 . S
C591 C588 1.539 . S
C591 H605 0.958 . S
C591 H606 0.961 . S
C591 H607 0.960 . S
H592 C576 0.931 . S
H593 C581 0.929 . S
H594 C582 0.960 . S
H595 C582 0.962 . S
H596 C582 0.960 . S
H597 C583 0.961 . S
H598 C583 0.961 . S
H599 C583 0.961 . S
H600 C584 0.931 . S
H601 C589 0.930 . S
H602 C590 0.956 . S
H603 C590 0.961 . S
H604 C590 0.961 . S
H605 C591 0.958 . S
H606 C591 0.961 . S
H607 C591 0.960 . S
C608 C609 1.391 . S
C608 C610 1.394 . S
C608 H624 0.931 . S
C609 C608 1.391 . S
C609 C613 1.376 . S
C610 C608 1.394 . S
C610 C611 1.369 . S
C610 C614 1.531 . S
C611 C610 1.369 . S
C611 C612 1.410 . S
C611 C619 1.503 . S
C612 C611 1.410 . S
C612 C613 1.392 . S
C612 C615 1.511 . S
C613 C609 1.376 . S
C613 C612 1.392 . S
C613 H625 0.929 . S
C614 C610 1.531 . S
C614 H626 0.960 . S
C614 H627 0.962 . S
C614 H628 0.960 . S
C615 C612 1.511 . S
C615 H629 0.961 . S
C615 H630 0.961 . S
C615 H631 0.961 . S
C616 C617 1.370 . S
C616 C618 1.363 . S
C616 H632 0.931 . S
C617 C616 1.370 . S
C617 C621 1.408 . S
C618 C616 1.363 . S
C618 C619 1.370 . S
C618 C622 1.524 . S
C619 C611 1.503 . S
C619 C618 1.370 . S
C619 C620 1.403 . S
C620 C619 1.403 . S
C620 C621 1.404 . S
C620 C623 1.539 . S
C621 C617 1.408 . S
C621 C620 1.404 . S
C621 H633 0.930 . S
C622 C618 1.524 . S
C622 H634 0.956 . S
C622 H635 0.961 . S
C622 H636 0.961 . S
C623 C620 1.539 . S
C623 H637 0.958 . S
C623 H638 0.961 . S
C623 H639 0.960 . S
H624 C608 0.931 . S
H625 C613 0.929 . S
H626 C614 0.960 . S
H627 C614 0.962 . S
H628 C614 0.960 . S
H629 C615 0.961 . S
H630 C615 0.961 . S
H631 C615 0.961 . S
H632 C616 0.931 . S
H633 C621 0.930 . S
H634 C622 0.956 . S
H635 C622 0.961 . S
H636 C622 0.961 . S
H637 C623 0.958 . S
H638 C623 0.961 . S
H639 C623 0.960 . S
C640 C641 1.391 . S
C640 C642 1.394 . S
C640 H656 0.931 . S
C641 C640 1.391 . S
C641 C645 1.376 . S
C642 C640 1.394 . S
C642 C643 1.369 . S
C642 C646 1.531 . S
C643 C642 1.369 . S
C643 C644 1.410 . S
C643 C651 1.503 . S
C644 C643 1.410 . S
C644 C645 1.392 . S
C644 C647 1.511 . S
C645 C641 1.376 . S
C645 C644 1.392 . S
C645 H657 0.929 . S
C646 C642 1.531 . S
C646 H658 0.960 . S
C646 H659 0.962 . S
C646 H660 0.960 . S
C647 C644 1.511 . S
C647 H661 0.961 . S
C647 H662 0.961 . S
C647 H663 0.961 . S
C648 C649 1.370 . S
C648 C650 1.363 . S
C648 H664 0.931 . S
C649 C648 1.370 . S
C649 C653 1.408 . S
C650 C648 1.363 . S
C650 C651 1.370 . S
C650 C654 1.524 . S
C651 C643 1.503 . S
C651 C650 1.370 . S
C651 C652 1.403 . S
C652 C651 1.403 . S
C652 C653 1.404 . S
C652 C655 1.539 . S
C653 C649 1.408 . S
C653 C652 1.404 . S
C653 H665 0.930 . S
C654 C650 1.524 . S
C654 H666 0.956 . S
C654 H667 0.961 . S
C654 H668 0.961 . S
C655 C652 1.539 . S
C655 H669 0.958 . S
C655 H670 0.961 . S
C655 H671 0.960 . S
H656 C640 0.931 . S
H657 C645 0.929 . S
H658 C646 0.960 . S
H659 C646 0.962 . S
H660 C646 0.960 . S
H661 C647 0.961 . S
H662 C647 0.961 . S
H663 C647 0.961 . S
H664 C648 0.931 . S
H665 C653 0.930 . S
H666 C654 0.956 . S
H667 C654 0.961 . S
H668 C654 0.961 . S
H669 C655 0.958 . S
H670 C655 0.961 . S
H671 C655 0.960 . S
C672 C673 1.391 . S
C672 C674 1.394 . S
C672 H688 0.931 . S
C673 C672 1.391 . S
C673 C677 1.376 . S
C674 C672 1.394 . S
C674 C675 1.369 . S
C674 C678 1.531 . S
C675 C674 1.369 . S
C675 C676 1.410 . S
C675 C683 1.503 . S
C676 C675 1.410 . S
C676 C677 1.392 . S
C676 C679 1.511 . S
C677 C673 1.376 . S
C677 C676 1.392 . S
C677 H689 0.929 . S
C678 C674 1.531 . S
C678 H690 0.960 . S
C678 H691 0.962 . S
C678 H692 0.960 . S
C679 C676 1.511 . S
C679 H693 0.961 . S
C679 H694 0.961 . S
C679 H695 0.961 . S
C680 C681 1.370 . S
C680 C682 1.363 . S
C680 H696 0.931 . S
C681 C680 1.370 . S
C681 C685 1.408 . S
C682 C680 1.363 . S
C682 C683 1.370 . S
C682 C686 1.524 . S
C683 C675 1.503 . S
C683 C682 1.370 . S
C683 C684 1.403 . S
C684 C683 1.403 . S
C684 C685 1.404 . S
C684 C687 1.539 . S
C685 C681 1.408 . S
C685 C684 1.404 . S
C685 H697 0.930 . S
C686 C682 1.524 . S
C686 H698 0.956 . S
C686 H699 0.961 . S
C686 H700 0.961 . S
C687 C684 1.539 . S
C687 H701 0.958 . S
C687 H702 0.961 . S
C687 H703 0.960 . S
H688 C672 0.931 . S
H689 C677 0.929 . S
H690 C678 0.960 . S
H691 C678 0.962 . S
H692 C678 0.960 . S
H693 C679 0.961 . S
H694 C679 0.961 . S
H695 C679 0.961 . S
H696 C680 0.931 . S
H697 C685 0.930 . S
H698 C686 0.956 . S
H699 C686 0.961 . S
H700 C686 0.961 . S
H701 C687 0.958 . S
H702 C687 0.961 . S
H703 C687 0.960 . S
C704 C705 1.391 . S
C704 C706 1.394 . S
C704 H720 0.931 . S
C705 C704 1.391 . S
C705 C709 1.376 . S
C706 C704 1.394 . S
C706 C707 1.369 . S
C706 C710 1.531 . S
C707 C706 1.369 . S
C707 C708 1.410 . S
C707 C715 1.503 . S
C708 C707 1.410 . S
C708 C709 1.392 . S
C708 C711 1.511 . S
C709 C705 1.376 . S
C709 C708 1.392 . S
C709 H721 0.929 . S
C710 C706 1.531 . S
C710 H722 0.960 . S
C710 H723 0.962 . S
C710 H724 0.960 . S
C711 C708 1.511 . S
C711 H725 0.961 . S
C711 H726 0.961 . S
C711 H727 0.961 . S
C712 C713 1.370 . S
C712 C714 1.363 . S
C712 H728 0.931 . S
C713 C712 1.370 . S
C713 C717 1.408 . S
C714 C712 1.363 . S
C714 C715 1.370 . S
C714 C718 1.524 . S
C715 C707 1.503 . S
C715 C714 1.370 . S
C715 C716 1.403 . S
C716 C715 1.403 . S
C716 C717 1.404 . S
C716 C719 1.539 . S
C717 C713 1.408 . S
C717 C716 1.404 . S
C717 H729 0.930 . S
C718 C714 1.524 . S
C718 H730 0.956 . S
C718 H731 0.961 . S
C718 H732 0.961 . S
C719 C716 1.539 . S
C719 H733 0.958 . S
C719 H734 0.961 . S
C719 H735 0.960 . S
H720 C704 0.931 . S
H721 C709 0.929 . S
H722 C710 0.960 . S
H723 C710 0.962 . S
H724 C710 0.960 . S
H725 C711 0.961 . S
H726 C711 0.961 . S
H727 C711 0.961 . S
H728 C712 0.931 . S
H729 C717 0.930 . S
H730 C718 0.956 . S
H731 C718 0.961 . S
H732 C718 0.961 . S
H733 C719 0.958 . S
H734 C719 0.961 . S
H735 C719 0.960 . S
C736 C737 1.391 . S
C736 C738 1.394 . S
C736 H752 0.931 . S
C737 C736 1.391 . S
C737 C741 1.376 . S
C738 C736 1.394 . S
C738 C739 1.369 . S
C738 C742 1.531 1_556 S
C739 C738 1.369 . S
C739 C740 1.410 . S
C739 C747 1.503 1_556 S
C740 C739 1.410 . S
C740 C741 1.392 . S
C740 C743 1.511 . S
C741 C737 1.376 . S
C741 C740 1.392 . S
C741 H753 0.929 . S
C742 C738 1.531 1_554 S
C742 H754 0.960 . S
C742 H755 0.962 1_554 S
C742 H756 0.960 . S
C743 C740 1.511 . S
C743 H757 0.961 . S
C743 H758 0.964 . S
C743 H759 0.961 1_556 S
C744 C745 1.370 . S
C744 C746 1.365 1_554 S
C744 H760 0.931 . S
C745 C744 1.370 . S
C745 C749 1.408 . S
C746 C744 1.365 1_556 S
C746 C747 1.372 1_556 S
C746 C750 1.520 . S
C747 C739 1.503 1_554 S
C747 C746 1.372 1_554 S
C747 C748 1.403 . S
C748 C747 1.403 . S
C748 C749 1.404 . S
C748 C751 1.539 . S
C749 C745 1.408 . S
C749 C748 1.404 . S
C749 H761 0.930 . S
C750 C746 1.520 . S
C750 H762 0.956 . S
C750 H763 0.961 . S
C750 H764 0.961 . S
C751 C748 1.539 . S
C751 H765 0.958 . S
C751 H766 0.961 . S
C751 H767 0.960 . S
H752 C736 0.931 . S
H753 C741 0.929 . S
H754 C742 0.960 . S
H755 C742 0.962 1_556 S
H756 C742 0.960 . S
H757 C743 0.961 . S
H758 C743 0.964 . S
H759 C743 0.961 1_554 S
H760 C744 0.931 . S
H761 C749 0.930 . S
H762 C750 0.956 . S
H763 C750 0.961 . S
H764 C750 0.961 . S
H765 C751 0.958 . S
H766 C751 0.961 . S
H767 C751 0.960 . S
C768 C769 1.391 . S
C768 C770 1.394 . S
C768 H784 0.931 . S
C769 C768 1.391 . S
C769 C773 1.376 . S
C770 C768 1.394 . S
C770 C771 1.369 . S
C770 C774 1.531 . S
C771 C770 1.369 . S
C771 C772 1.410 . S
C771 C779 1.503 . S
C772 C771 1.410 . S
C772 C773 1.392 . S
C772 C775 1.511 . S
C773 C769 1.376 . S
C773 C772 1.392 . S
C773 H785 0.929 . S
C774 C770 1.531 . S
C774 H786 0.960 . S
C774 H787 0.962 . S
C774 H788 0.960 . S
C775 C772 1.511 . S
C775 H789 0.961 . S
C775 H790 0.961 . S
C775 H791 0.961 . S
C776 C777 1.370 . S
C776 C778 1.363 . S
C776 H792 0.931 . S
C777 C776 1.370 . S
C777 C781 1.408 . S
C778 C776 1.363 . S
C778 C779 1.370 . S
C778 C782 1.524 . S
C779 C771 1.503 . S
C779 C778 1.370 . S
C779 C780 1.403 . S
C780 C779 1.403 . S
C780 C781 1.404 . S
C780 C783 1.539 . S
C781 C777 1.408 . S
C781 C780 1.404 . S
C781 H793 0.930 . S
C782 C778 1.524 . S
C782 H794 0.956 . S
C782 H795 0.961 . S
C782 H796 0.961 . S
C783 C780 1.539 . S
C783 H797 0.958 . S
C783 H798 0.961 . S
C783 H799 0.960 . S
H784 C768 0.931 . S
H785 C773 0.929 . S
H786 C774 0.960 . S
H787 C774 0.962 . S
H788 C774 0.960 . S
H789 C775 0.961 . S
H790 C775 0.961 . S
H791 C775 0.961 . S
H792 C776 0.931 . S
H793 C781 0.930 . S
H794 C782 0.956 . S
H795 C782 0.961 . S
H796 C782 0.961 . S
H797 C783 0.958 . S
H798 C783 0.961 . S
H799 C783 0.960 . S
C800 C801 1.391 . S
C800 C802 1.394 . S
C800 H816 0.931 . S
C801 C800 1.391 . S
C801 C805 1.376 . S
C802 C800 1.394 . S
C802 C803 1.369 . S
C802 C806 1.531 . S
C803 C802 1.369 . S
C803 C804 1.410 . S
C803 C811 1.503 1_554 S
C804 C803 1.410 . S
C804 C805 1.392 . S
C804 C807 1.511 . S
C805 C801 1.376 . S
C805 C804 1.392 . S
C805 H817 0.929 . S
C806 C802 1.531 . S
C806 H818 0.960 . S
C806 H819 0.962 1_554 S
C806 H820 0.960 . S
C807 C804 1.511 . S
C807 H821 0.961 . S
C807 H822 0.961 1_554 S
C807 H823 0.961 . S
C808 C809 1.370 . S
C808 C810 1.363 . S
C808 H824 0.931 . S
C809 C808 1.370 . S
C809 C813 1.408 . S
C810 C808 1.363 . S
C810 C811 1.370 . S
C810 C814 1.524 . S
C811 C803 1.503 1_556 S
C811 C810 1.370 . S
C811 C812 1.403 1_556 S
C812 C811 1.403 1_554 S
C812 C813 1.404 1_554 S
C812 C815 1.539 . S
C813 C809 1.408 . S
C813 C812 1.404 1_556 S
C813 H825 0.930 . S
C814 C810 1.524 . S
C814 H826 0.956 . S
C814 H827 0.961 . S
C814 H828 0.961 . S
C815 C812 1.539 . S
C815 H829 0.958 . S
C815 H830 0.961 . S
C815 H831 0.960 . S
H816 C800 0.931 . S
H817 C805 0.929 . S
H818 C806 0.960 . S
H819 C806 0.962 1_556 S
H820 C806 0.960 . S
H821 C807 0.961 . S
H822 C807 0.961 1_556 S
H823 C807 0.961 . S
H824 C808 0.931 . S
H825 C813 0.930 . S
H826 C814 0.956 . S
H827 C814 0.961 . S
H828 C814 0.961 . S
H829 C815 0.958 . S
H830 C815 0.961 . S
H831 C815 0.960 . S
C832 C833 1.391 . S
C832 C834 1.394 . S
C832 H848 0.931 . S
C833 C832 1.391 . S
C833 C837 1.376 . S
C834 C832 1.394 . S
C834 C835 1.369 . S
C834 C838 1.531 . S
C835 C834 1.369 . S
C835 C836 1.410 . S
C835 C843 1.503 . S
C836 C835 1.410 . S
C836 C837 1.392 . S
C836 C839 1.511 . S
C837 C833 1.376 . S
C837 C836 1.392 . S
C837 H849 0.929 . S
C838 C834 1.531 . S
C838 H850 0.960 . S
C838 H851 0.962 . S
C838 H852 0.960 . S
C839 C836 1.511 . S
C839 H853 0.961 . S
C839 H854 0.961 . S
C839 H855 0.961 . S
C840 C841 1.370 . S
C840 C842 1.363 . S
C840 H856 0.931 . S
C841 C840 1.370 . S
C841 C845 1.408 . S
C842 C840 1.363 . S
C842 C843 1.370 . S
C842 C846 1.524 . S
C843 C835 1.503 . S
C843 C842 1.370 . S
C843 C844 1.403 . S
C844 C843 1.403 . S
C844 C845 1.404 . S
C844 C847 1.539 . S
C845 C841 1.408 . S
C845 C844 1.404 . S
C845 H857 0.930 . S
C846 C842 1.524 . S
C846 H858 0.956 . S
C846 H859 0.961 . S
C846 H860 0.961 . S
C847 C844 1.539 . S
C847 H861 0.958 . S
C847 H862 0.961 . S
C847 H863 0.960 . S
H848 C832 0.931 . S
H849 C837 0.929 . S
H850 C838 0.960 . S
H851 C838 0.962 . S
H852 C838 0.960 . S
H853 C839 0.961 . S
H854 C839 0.961 . S
H855 C839 0.961 . S
H856 C840 0.931 . S
H857 C845 0.930 . S
H858 C846 0.956 . S
H859 C846 0.961 . S
H860 C846 0.961 . S
H861 C847 0.958 . S
H862 C847 0.961 . S
H863 C847 0.960 . S
C864 C865 1.391 . S
C864 C866 1.394 . S
C864 H880 0.931 . S
C865 C864 1.391 . S
C865 C869 1.376 . S
C866 C864 1.394 . S
C866 C867 1.369 . S
C866 C870 1.531 . S
C867 C866 1.369 . S
C867 C868 1.410 . S
C867 C875 1.503 1_554 S
C868 C867 1.410 . S
C868 C869 1.392 . S
C868 C871 1.511 . S
C869 C865 1.376 . S
C869 C868 1.392 . S
C869 H881 0.929 . S
C870 C866 1.531 . S
C870 H882 0.960 1_554 S
C870 H883 0.962 . S
C870 H884 0.960 . S
C871 C868 1.511 . S
C871 H885 0.961 . S
C871 H886 0.961 . S
C871 H887 0.961 1_554 S
C872 C873 1.370 . S
C872 C874 1.363 1_556 S
C872 H888 0.931 1_556 S
C873 C872 1.370 . S
C873 C877 1.408 . S
C874 C872 1.363 1_554 S
C874 C875 1.370 1_554 S
C874 C878 1.524 . S
C875 C867 1.503 1_556 S
C875 C874 1.370 1_556 S
C875 C876 1.403 . S
C876 C875 1.403 . S
C876 C877 1.404 . S
C876 C879 1.539 . S
C877 C873 1.408 . S
C877 C876 1.404 . S
C877 H889 0.930 . S
C878 C874 1.524 . S
C878 H890 0.956 . S
C878 H891 0.961 . S
C878 H892 0.961 . S
C879 C876 1.539 . S
C879 H893 0.958 . S
C879 H894 0.961 . S
C879 H895 0.960 . S
H880 C864 0.931 . S
H881 C869 0.929 . S
H882 C870 0.960 1_556 S
H883 C870 0.962 . S
H884 C870 0.960 . S
H885 C871 0.961 . S
H886 C871 0.961 . S
H887 C871 0.961 1_556 S
H888 C872 0.931 1_554 S
H889 C877 0.930 . S
H890 C878 0.956 . S
H891 C878 0.961 . S
H892 C878 0.961 . S
H893 C879 0.958 . S
H894 C879 0.961 . S
H895 C879 0.960 . S
C896 C897 1.391 . S
C896 C898 1.394 . S
C896 H912 0.931 . S
C897 C896 1.391 . S
C897 C901 1.376 . S
C898 C896 1.394 . S
C898 C899 1.369 . S
C898 C902 1.531 . S
C899 C898 1.369 . S
C899 C900 1.410 . S
C899 C907 1.503 . S
C900 C899 1.410 . S
C900 C901 1.392 . S
C900 C903 1.511 . S
C901 C897 1.376 . S
C901 C900 1.392 . S
C901 H913 0.929 . S
C902 C898 1.531 . S
C902 H914 0.960 . S
C902 H915 0.962 . S
C902 H916 0.960 . S
C903 C900 1.511 . S
C903 H917 0.961 . S
C903 H918 0.961 . S
C903 H919 0.961 . S
C904 C905 1.370 . S
C904 C906 1.363 . S
C904 H920 0.931 . S
C905 C904 1.370 . S
C905 C909 1.408 . S
C906 C904 1.363 . S
C906 C907 1.370 . S
C906 C910 1.524 . S
C907 C899 1.503 . S
C907 C906 1.370 . S
C907 C908 1.403 . S
C908 C907 1.403 . S
C908 C909 1.404 . S
C908 C911 1.539 . S
C909 C905 1.408 . S
C909 C908 1.404 . S
C909 H921 0.930 . S
C910 C906 1.524 . S
C910 H922 0.956 . S
C910 H923 0.961 . S
C910 H924 0.961 . S
C911 C908 1.539 . S
C911 H925 0.958 . S
C911 H926 0.961 . S
C911 H927 0.960 . S
H912 C896 0.931 . S
H913 C901 0.929 . S
H914 C902 0.960 . S
H915 C902 0.962 . S
H916 C902 0.960 . S
H917 C903 0.961 . S
H918 C903 0.961 . S
H919 C903 0.961 . S
H920 C904 0.931 . S
H921 C909 0.930 . S
H922 C910 0.956 . S
H923 C910 0.961 . S
H924 C910 0.961 . S
H925 C911 0.958 . S
H926 C911 0.961 . S
H927 C911 0.960 . S
C928 C929 1.391 . S
C928 C930 1.394 . S
C928 H944 0.931 . S
C929 C928 1.391 . S
C929 C933 1.376 . S
C930 C928 1.394 . S
C930 C931 1.369 . S
C930 C934 1.531 . S
C931 C930 1.369 . S
C931 C932 1.410 1_554 S
C931 C939 1.503 1_554 S
C932 C931 1.410 1_556 S
C932 C933 1.392 1_556 S
C932 C935 1.511 . S
C933 C929 1.376 . S
C933 C932 1.392 1_554 S
C933 H945 0.929 1_554 S
C934 C930 1.531 . S
C934 H946 0.960 . S
C934 H947 0.962 . S
C934 H948 0.960 . S
C935 C932 1.511 . S
C935 H949 0.961 . S
C935 H950 0.961 . S
C935 H951 0.961 . S
C936 C937 1.370 . S
C936 C938 1.363 . S
C936 H952 0.931 . S
C937 C936 1.370 . S
C937 C941 1.408 . S
C938 C936 1.363 . S
C938 C939 1.370 . S
C938 C942 1.524 . S
C939 C931 1.503 1_556 S
C939 C938 1.370 . S
C939 C940 1.403 . S
C940 C939 1.403 . S
C940 C941 1.404 . S
C940 C943 1.539 . S
C941 C937 1.408 . S
C941 C940 1.404 . S
C941 H953 0.930 . S
C942 C938 1.524 . S
C942 H954 0.956 1_556 S
C942 H955 0.961 . S
C942 H956 0.961 . S
C943 C940 1.539 . S
C943 H957 0.958 . S
C943 H958 0.961 . S
C943 H959 0.960 . S
H944 C928 0.931 . S
H945 C933 0.929 1_556 S
H946 C934 0.960 . S
H947 C934 0.962 . S
H948 C934 0.960 . S
H949 C935 0.961 . S
H950 C935 0.961 . S
H951 C935 0.961 . S
H952 C936 0.931 . S
H953 C941 0.930 . S
H954 C942 0.956 1_554 S
H955 C942 0.961 . S
H956 C942 0.961 . S
H957 C943 0.958 . S
H958 C943 0.961 . S
H959 C943 0.960 . S
C960 C961 1.391 . S
C960 C962 1.394 . S
C960 H976 0.931 . S
C961 C960 1.391 . S
C961 C965 1.376 . S
C962 C960 1.394 . S
C962 C963 1.369 . S
C962 C966 1.531 . S
C963 C962 1.369 . S
C963 C964 1.410 . S
C963 C971 1.503 . S
C964 C963 1.410 . S
C964 C965 1.392 . S
C964 C967 1.511 . S
C965 C961 1.376 . S
C965 C964 1.392 . S
C965 H977 0.929 . S
C966 C962 1.531 . S
C966 H978 0.960 . S
C966 H979 0.962 . S
C966 H980 0.960 . S
C967 C964 1.511 . S
C967 H981 0.961 . S
C967 H982 0.961 . S
C967 H983 0.961 . S
C968 C969 1.370 . S
C968 C970 1.363 . S
C968 H984 0.931 . S
C969 C968 1.370 . S
C969 C973 1.408 . S
C970 C968 1.363 . S
C970 C971 1.370 . S
C970 C974 1.524 . S
C971 C963 1.503 . S
C971 C970 1.370 . S
C971 C972 1.403 . S
C972 C971 1.403 . S
C972 C973 1.404 . S
C972 C975 1.539 . S
C973 C969 1.408 . S
C973 C972 1.404 . S
C973 H985 0.930 . S
C974 C970 1.524 . S
C974 H986 0.956 . S
C974 H987 0.961 . S
C974 H988 0.961 . S
C975 C972 1.539 . S
C975 H989 0.958 . S
C975 H990 0.961 . S
C975 H991 0.960 . S
H976 C960 0.931 . S
H977 C965 0.929 . S
H978 C966 0.960 . S
H979 C966 0.962 . S
H980 C966 0.960 . S
H981 C967 0.961 . S
H982 C967 0.961 . S
H983 C967 0.961 . S
H984 C968 0.931 . S
H985 C973 0.930 . S
H986 C974 0.956 . S
H987 C974 0.961 . S
H988 C974 0.961 . S
H989 C975 0.958 . S
H990 C975 0.961 . S
H991 C975 0.960 . S
C992 C993 1.391 . S
C992 C994 1.394 . S
C992 H1008 0.931 . S
C993 C992 1.391 . S
C993 C997 1.376 . S
C994 C992 1.394 . S
C994 C995 1.369 . S
C994 C998 1.531 . S
C995 C994 1.369 . S
C995 C996 1.410 1_556 S
C995 C1003 1.503 1_556 S
C996 C995 1.410 1_554 S
C996 C997 1.392 1_554 S
C996 C999 1.511 . S
C997 C993 1.376 . S
C997 C996 1.392 1_556 S
C997 H1009 0.929 1_556 S
C998 C994 1.531 . S
C998 H1010 0.960 . S
C998 H1011 0.962 . S
C998 H1012 0.960 . S
C999 C996 1.511 . S
C999 H1013 0.961 . S
C999 H1014 0.961 . S
C999 H1015 0.961 . S
C1000 C1001 1.370 . S
C1000 C1002 1.363 . S
C1000 H1016 0.931 . S
C1001 C1000 1.370 . S
C1001 C1005 1.408 . S
C1002 C1000 1.363 . S
C1002 C1003 1.370 . S
C1002 C1006 1.524 . S
C1003 C995 1.503 1_554 S
C1003 C1002 1.370 . S
C1003 C1004 1.403 1_554 S
C1004 C1003 1.403 1_556 S
C1004 C1005 1.404 1_556 S
C1004 C1007 1.539 . S
C1005 C1001 1.408 . S
C1005 C1004 1.404 1_554 S
C1005 H1017 0.930 1_554 S
C1006 C1002 1.524 . S
C1006 H1018 0.956 . S
C1006 H1019 0.961 . S
C1006 H1020 0.961 . S
C1007 C1004 1.539 . S
C1007 H1021 0.958 . S
C1007 H1022 0.961 . S
C1007 H1023 0.960 . S
H1008 C992 0.931 . S
H1009 C997 0.929 1_554 S
H1010 C998 0.960 . S
H1011 C998 0.962 . S
H1012 C998 0.960 . S
H1013 C999 0.961 . S
H1014 C999 0.961 . S
H1015 C999 0.961 . S
H1016 C1000 0.931 . S
H1017 C1005 0.930 1_556 S
H1018 C1006 0.956 . S
H1019 C1006 0.961 . S
H1020 C1006 0.961 . S
H1021 C1007 0.958 . S
H1022 C1007 0.961 . S
H1023 C1007 0.960 . S
C1024 C1025 1.391 . S
C1024 C1026 1.394 . S
C1024 H1040 0.931 . S
C1025 C1024 1.391 . S
C1025 C1029 1.376 . S
C1026 C1024 1.394 . S
C1026 C1027 1.369 . S
C1026 C1030 1.531 . S
C1027 C1026 1.369 . S
C1027 C1028 1.410 . S
C1027 C1035 1.503 . S
C1028 C1027 1.410 . S
C1028 C1029 1.392 . S
C1028 C1031 1.511 . S
C1029 C1025 1.376 . S
C1029 C1028 1.392 . S
C1029 H1041 0.929 . S
C1030 C1026 1.531 . S
C1030 H1042 0.960 . S
C1030 H1043 0.962 . S
C1030 H1044 0.960 . S
C1031 C1028 1.511 . S
C1031 H1045 0.961 . S
C1031 H1046 0.961 . S
C1031 H1047 0.961 . S
C1032 C1033 1.370 . S
C1032 C1034 1.363 . S
C1032 H1048 0.931 . S
C1033 C1032 1.370 . S
C1033 C1037 1.408 . S
C1034 C1032 1.363 . S
C1034 C1035 1.370 . S
C1034 C1038 1.524 . S
C1035 C1027 1.503 . S
C1035 C1034 1.370 . S
C1035 C1036 1.403 . S
C1036 C1035 1.403 . S
C1036 C1037 1.404 . S
C1036 C1039 1.539 . S
C1037 C1033 1.408 . S
C1037 C1036 1.404 . S
C1037 H1049 0.930 . S
C1038 C1034 1.524 . S
C1038 H1050 0.956 . S
C1038 H1051 0.961 . S
C1038 H1052 0.961 . S
C1039 C1036 1.539 . S
C1039 H1053 0.958 . S
C1039 H1054 0.961 . S
C1039 H1055 0.960 . S
H1040 C1024 0.931 . S
H1041 C1029 0.929 . S
H1042 C1030 0.960 . S
H1043 C1030 0.962 . S
H1044 C1030 0.960 . S
H1045 C1031 0.961 . S
H1046 C1031 0.961 . S
H1047 C1031 0.961 . S
H1048 C1032 0.931 . S
H1049 C1037 0.930 . S
H1050 C1038 0.956 . S
H1051 C1038 0.961 . S
H1052 C1038 0.961 . S
H1053 C1039 0.958 . S
H1054 C1039 0.961 . S
H1055 C1039 0.960 . S
C1056 C1057 1.391 . S
C1056 C1058 1.394 1_554 S
C1056 H1072 0.931 . S
C1057 C1056 1.391 . S
C1057 C1061 1.376 . S
C1058 C1056 1.394 1_556 S
C1058 C1059 1.369 1_556 S
C1058 C1062 1.531 . S
C1059 C1058 1.369 1_554 S
C1059 C1060 1.410 . S
C1059 C1067 1.503 1_554 S
C1060 C1059 1.410 . S
C1060 C1061 1.392 . S
C1060 C1063 1.511 . S
C1061 C1057 1.376 . S
C1061 C1060 1.392 . S
C1061 H1073 0.929 . S
C1062 C1058 1.531 . S
C1062 H1074 0.960 . S
C1062 H1075 0.962 . S
C1062 H1076 0.960 . S
C1063 C1060 1.511 . S
C1063 H1077 0.961 . S
C1063 H1078 0.961 . S
C1063 H1079 0.961 . S
C1064 C1065 1.370 . S
C1064 C1066 1.363 1_556 S
C1064 H1080 0.931 1_556 S
C1065 C1064 1.370 . S
C1065 C1069 1.408 . S
C1066 C1064 1.363 1_554 S
C1066 C1067 1.370 1_554 S
C1066 C1070 1.524 . S
C1067 C1059 1.503 1_556 S
C1067 C1066 1.370 1_556 S
C1067 C1068 1.403 . S
C1068 C1067 1.403 . S
C1068 C1069 1.404 . S
C1068 C1071 1.539 . S
C1069 C1065 1.408 . S
C1069 C1068 1.404 . S
C1069 H1081 0.930 . S
C1070 C1066 1.524 . S
C1070 H1082 0.956 . S
C1070 H1083 0.961 . S
C1070 H1084 0.961 . S
C1071 C1068 1.539 . S
C1071 H1085 0.958 . S
C1071 H1086 0.961 . S
C1071 H1087 0.960 . S
H1072 C1056 0.931 . S
H1073 C1061 0.929 . S
H1074 C1062 0.960 . S
H1075 C1062 0.962 . S
H1076 C1062 0.960 . S
H1077 C1063 0.961 . S
H1078 C1063 0.961 . S
H1079 C1063 0.961 . S
H1080 C1064 0.931 1_554 S
H1081 C1069 0.930 . S
H1082 C1070 0.956 . S
H1083 C1070 0.961 . S
H1084 C1070 0.961 . S
H1085 C1071 0.958 . S
H1086 C1071 0.961 . S
H1087 C1071 0.960 . S
C1088 C1089 1.391 . S
C1088 C1090 1.394 . S
C1088 H1104 0.931 . S
C1089 C1088 1.391 . S
C1089 C1093 1.376 . S
C1090 C1088 1.394 . S
C1090 C1091 1.369 . S
C1090 C1094 1.531 . S
C1091 C1090 1.369 . S
C1091 C1092 1.410 . S
C1091 C1099 1.503 . S
C1092 C1091 1.410 . S
C1092 C1093 1.392 . S
C1092 C1095 1.511 . S
C1093 C1089 1.376 . S
C1093 C1092 1.392 . S
C1093 H1105 0.929 . S
C1094 C1090 1.531 . S
C1094 H1106 0.960 . S
C1094 H1107 0.962 . S
C1094 H1108 0.960 . S
C1095 C1092 1.511 . S
C1095 H1109 0.961 . S
C1095 H1110 0.961 . S
C1095 H1111 0.961 . S
C1096 C1097 1.370 . S
C1096 C1098 1.363 . S
C1096 H1112 0.931 . S
C1097 C1096 1.370 . S
C1097 C1101 1.408 . S
C1098 C1096 1.363 . S
C1098 C1099 1.370 . S
C1098 C1102 1.524 . S
C1099 C1091 1.503 . S
C1099 C1098 1.370 . S
C1099 C1100 1.403 . S
C1100 C1099 1.403 . S
C1100 C1101 1.404 . S
C1100 C1103 1.539 . S
C1101 C1097 1.408 . S
C1101 C1100 1.404 . S
C1101 H1113 0.930 . S
C1102 C1098 1.524 . S
C1102 H1114 0.956 . S
C1102 H1115 0.961 . S
C1102 H1116 0.961 . S
C1103 C1100 1.539 . S
C1103 H1117 0.958 . S
C1103 H1118 0.961 . S
C1103 H1119 0.960 . S
H1104 C1088 0.931 . S
H1105 C1093 0.929 . S
H1106 C1094 0.960 . S
H1107 C1094 0.962 . S
H1108 C1094 0.960 . S
H1109 C1095 0.961 . S
H1110 C1095 0.961 . S
H1111 C1095 0.961 . S
H1112 C1096 0.931 . S
H1113 C1101 0.930 . S
H1114 C1102 0.956 . S
H1115 C1102 0.961 . S
H1116 C1102 0.961 . S
H1117 C1103 0.958 . S
H1118 C1103 0.961 . S
H1119 C1103 0.960 . S
C1120 C1121 1.391 . S
C1120 C1122 1.394 . S
C1120 H1136 0.931 . S
C1121 C1120 1.391 . S
C1121 C1125 1.376 . S
C1122 C1120 1.394 . S
C1122 C1123 1.369 . S
C1122 C1126 1.531 . S
C1123 C1122 1.369 . S
C1123 C1124 1.410 . S
C1123 C1131 1.503 1_546 S
C1124 C1123 1.410 . S
C1124 C1125 1.392 . S
C1124 C1127 1.511 1_556 S
C1125 C1121 1.376 . S
C1125 C1124 1.392 . S
C1125 H1137 0.929 . S
C1126 C1122 1.531 . S
C1126 H1138 0.960 1_545 S
C1126 H1139 0.962 . S
C1126 H1140 0.960 . S
C1127 C1124 1.511 1_554 S
C1127 H1141 0.961 . S
C1127 H1142 0.961 . S
C1127 H1143 0.961 1_554 S
C1128 C1129 1.370 . S
C1128 C1130 1.363 . S
C1128 H1144 0.931 . S
C1129 C1128 1.370 . S
C1129 C1133 1.408 1_554 S
C1130 C1128 1.363 . S
C1130 C1131 1.370 . S
C1130 C1134 1.524 1_565 S
C1131 C1123 1.503 1_564 S
C1131 C1130 1.370 . S
C1131 C1132 1.403 1_554 S
C1132 C1131 1.403 1_556 S
C1132 C1133 1.404 . S
C1132 C1135 1.539 . S
C1133 C1129 1.408 1_556 S
C1133 C1132 1.404 . S
C1133 H1145 0.930 . S
C1134 C1130 1.524 1_545 S
C1134 H1146 0.956 . S
C1134 H1147 0.961 . S
C1134 H1148 0.961 1_545 S
C1135 C1132 1.539 . S
C1135 H1149 0.958 . S
C1135 H1150 0.961 . S
C1135 H1151 0.960 . S
H1136 C1120 0.931 . S
H1137 C1125 0.929 . S
H1138 C1126 0.960 1_565 S
H1139 C1126 0.962 . S
H1140 C1126 0.960 . S
H1141 C1127 0.961 . S
H1142 C1127 0.961 . S
H1143 C1127 0.961 1_556 S
H1144 C1128 0.931 . S
H1145 C1133 0.930 . S
H1146 C1134 0.956 . S
H1147 C1134 0.961 . S
H1148 C1134 0.961 1_565 S
H1149 C1135 0.958 . S
H1150 C1135 0.961 . S
H1151 C1135 0.960 . S
C1152 C1153 1.391 . S
C1152 C1154 1.394 . S
C1152 H1168 0.931 . S
C1153 C1152 1.391 . S
C1153 C1157 1.376 . S
C1154 C1152 1.394 . S
C1154 C1155 1.369 . S
C1154 C1158 1.522 1_565 S
C1155 C1154 1.369 . S
C1155 C1156 1.410 . S
C1155 C1163 1.503 1_565 S
C1156 C1155 1.410 . S
C1156 C1157 1.392 . S
C1156 C1159 1.511 . S
C1157 C1153 1.376 . S
C1157 C1156 1.392 . S
C1157 H1169 0.929 . S
C1158 C1154 1.522 1_545 S
C1158 H1170 0.971 . S
C1158 H1171 0.963 . S
C1158 H1172 0.957 1_545 S
C1159 C1156 1.511 . S
C1159 H1173 0.961 . S
C1159 H1174 0.961 . S
C1159 H1175 0.961 . S
C1160 C1161 1.370 . S
C1160 C1162 1.363 . S
C1160 H1176 0.931 . S
C1161 C1160 1.370 . S
C1161 C1165 1.408 . S
C1162 C1160 1.363 . S
C1162 C1163 1.370 . S
C1162 C1166 1.506 1_545 S
C1163 C1155 1.503 1_545 S
C1163 C1162 1.370 . S
C1163 C1164 1.403 . S
C1164 C1163 1.403 . S
C1164 C1165 1.404 . S
C1164 C1167 1.539 . S
C1165 C1161 1.408 . S
C1165 C1164 1.404 . S
C1165 H1177 0.930 . S
C1166 C1162 1.506 1_565 S
C1166 H1178 0.964 . S
C1166 H1179 0.981 . S
C1166 H1180 0.952 1_565 S
C1167 C1164 1.539 . S
C1167 H1181 0.958 . S
C1167 H1182 0.961 . S
C1167 H1183 0.960 . S
H1168 C1152 0.931 . S
H1169 C1157 0.929 . S
H1170 C1158 0.971 . S
H1171 C1158 0.963 . S
H1172 C1158 0.957 1_565 S
H1173 C1159 0.961 . S
H1174 C1159 0.961 . S
H1175 C1159 0.961 . S
H1176 C1160 0.931 . S
H1177 C1165 0.930 . S
H1178 C1166 0.964 . S
H1179 C1166 0.981 . S
H1180 C1166 0.952 1_545 S
H1181 C1167 0.958 . S
H1182 C1167 0.961 . S
H1183 C1167 0.960 . S
C1184 C1185 1.391 . S
C1184 C1186 1.394 . S
C1184 H1200 0.931 . S
C1185 C1184 1.391 . S
C1185 C1189 1.376 . S
C1186 C1184 1.394 . S
C1186 C1187 1.369 . S
C1186 C1190 1.524 1_565 S
C1187 C1186 1.369 . S
C1187 C1188 1.410 . S
C1187 C1195 1.503 1_564 S
C1188 C1187 1.410 . S
C1188 C1189 1.392 . S
C1188 C1191 1.511 1_554 S
C1189 C1185 1.376 . S
C1189 C1188 1.392 . S
C1189 H1201 0.929 . S
C1190 C1186 1.524 1_545 S
C1190 H1202 0.970 . S
C1190 H1203 0.961 1_545 S
C1190 H1204 0.958 1_545 S
C1191 C1188 1.511 1_556 S
C1191 H1205 0.961 . S
C1191 H1206 0.961 . S
C1191 H1207 0.961 1_556 S
C1192 C1193 1.370 . S
C1192 C1194 1.363 . S
C1192 H1208 0.931 . S
C1193 C1192 1.370 . S
C1193 C1197 1.408 . S
C1194 C1192 1.363 . S
C1194 C1195 1.370 . S
C1194 C1198 1.524 1_545 S
C1195 C1187 1.503 1_546 S
C1195 C1194 1.370 . S
C1195 C1196 1.403 1_556 S
C1196 C1195 1.403 1_554 S
C1196 C1197 1.404 1_554 S
C1196 C1199 1.539 . S
C1197 C1193 1.408 . S
C1197 C1196 1.404 1_556 S
C1197 H1209 0.930 1_556 S
C1198 C1194 1.524 1_565 S
C1198 H1210 0.956 . S
C1198 H1211 0.961 . S
C1198 H1212 0.961 . S
C1199 C1196 1.539 . S
C1199 H1213 0.958 . S
C1199 H1214 0.961 . S
C1199 H1215 0.960 . S
H1200 C1184 0.931 . S
H1201 C1189 0.929 . S
H1202 C1190 0.970 . S
H1203 C1190 0.961 1_565 S
H1204 C1190 0.958 1_565 S
H1205 C1191 0.961 . S
H1206 C1191 0.961 . S
H1207 C1191 0.961 1_554 S
H1208 C1192 0.931 . S
H1209 C1197 0.930 1_554 S
H1210 C1198 0.956 . S
H1211 C1198 0.961 . S
H1212 C1198 0.961 . S
H1213 C1199 0.958 . S
H1214 C1199 0.961 . S
H1215 C1199 0.960 . S
C1216 C1217 1.391 . S
C1216 C1218 1.394 . S
C1216 H1232 0.931 . S
C1217 C1216 1.391 . S
C1217 C1221 1.376 . S
C1218 C1216 1.394 . S
C1218 C1219 1.369 . S
C1218 C1222 1.531 . S
C1219 C1218 1.369 . S
C1219 C1220 1.410 . S
C1219 C1227 1.503 1_545 S
C1220 C1219 1.410 . S
C1220 C1221 1.392 . S
C1220 C1223 1.511 1_545 S
C1221 C1217 1.376 . S
C1221 C1220 1.392 . S
C1221 H1233 0.929 . S
C1222 C1218 1.531 . S
C1222 H1234 0.960 . S
C1222 H1235 0.962 . S
C1222 H1236 0.960 . S
C1223 C1220 1.511 1_565 S
C1223 H1237 0.961 . S
C1223 H1238 0.961 . S
C1223 H1239 0.961 . S
C1224 C1225 1.370 . S
C1224 C1226 1.363 . S
C1224 H1240 0.931 . S
C1225 C1224 1.370 . S
C1225 C1229 1.408 . S
C1226 C1224 1.363 . S
C1226 C1227 1.370 . S
C1226 C1230 1.524 . S
C1227 C1219 1.503 1_565 S
C1227 C1226 1.370 . S
C1227 C1228 1.403 . S
C1228 C1227 1.403 . S
C1228 C1229 1.404 . S
C1228 C1231 1.539 . S
C1229 C1225 1.408 . S
C1229 C1228 1.404 . S
C1229 H1241 0.930 . S
C1230 C1226 1.524 . S
C1230 H1242 0.956 1_565 S
C1230 H1243 0.961 . S
C1230 H1244 0.961 . S
C1231 C1228 1.539 . S
C1231 H1245 0.958 . S
C1231 H1246 0.961 . S
C1231 H1247 0.960 . S
H1232 C1216 0.931 . S
H1233 C1221 0.929 . S
H1234 C1222 0.960 . S
H1235 C1222 0.962 . S
H1236 C1222 0.960 . S
H1237 C1223 0.961 . S
H1238 C1223 0.961 . S
H1239 C1223 0.961 . S
H1240 C1224 0.931 . S
H1241 C1229 0.930 . S
H1242 C1230 0.956 1_545 S
H1243 C1230 0.961 . S
H1244 C1230 0.961 . S
H1245 C1231 0.958 . S
H1246 C1231 0.961 . S
H1247 C1231 0.960 . S
C225 C9 1.439 . S
C233 C93 1.486 . S
C257 C23 1.480 . S
C265 C107 1.487 . S
C289 C65 1.451 . S
C297 C37 1.467 . S
C321 C79 1.467 . S
C329 C51 1.476 . S
C353 C205 1.451 . S
C361 C121 1.462 . S
C385 C219 1.455 . S
C393 C135 1.471 . S
C417 C149 1.488 . S
C425 C177 1.475 . S
C449 C163 1.450 . S
C457 C191 1.470 . S
C481 C8 1.594 . S
C489 C77 1.538 . S
C513 C22 1.593 . S
C521 C63 1.538 . S
C545 C36 1.594 . S
C553 C105 1.539 . S
C577 C91 1.545 . S
C585 C50 1.595 . S
C609 C189 1.559 . S
C617 C120 1.594 . S
C641 C175 1.552 . S
C649 C134 1.594 . S
C673 C148 1.594 . S
C681 C217 1.539 . S
C705 C203 1.564 . S
C713 C162 1.592 . S
C737 C174 1.506 . S
C745 C6 1.562 . S
C769 C20 1.565 . S
C777 C188 1.530 . S
C801 C202 1.553 . S
C809 C34 1.550 . S
C833 C216 1.515 . S
C841 C48 1.562 . S
C865 C118 1.541 . S
C873 C62 1.542 . S
C897 C132 1.571 . S
C905 C76 1.524 . S
C929 C90 1.540 . S
C937 C146 1.551 . S
C961 C104 1.510 . S
C969 C160 1.561 . S
C993 C35 1.107 . S
C1001 C7 1.149 . S
C1025 C21 1.093 . S
C1033 C49 1.154 . S
C1057 C92 1.957 . S
C1065 C64 1.969 . S
C1089 C78 1.969 . S
C1097 C106 1.966 . S
C1121 C147 1.094 . S
C1129 C119 1.153 . S
C1153 C161 1.106 . S
C1161 C133 1.149 . S
C1185 C204 1.969 . S
C1193 C176 1.966 . S
C1217 C218 1.962 . S
C1225 C190 1.966 . S
