# Generated by pormake.
# Topology nov, (5)-cn, num edge types: 1
# Building blocks:
#     Node 0, Type 0, BuildingBlock: XOMCOT_clean_sbu_1, # of connection points: 5
#     Node 1, Type 0, BuildingBlock: XOMCOT_clean_sbu_1, # of connection points: 5
#     Node 2, Type 0, BuildingBlock: XOMCOT_clean_sbu_1, # of connection points: 5
#     Node 3, Type 0, BuildingBlock: XOMCOT_clean_sbu_1, # of connection points: 5
#     Node 4, Type 0, BuildingBlock: XOMCOT_clean_sbu_1, # of connection points: 5
#     Node 5, Type 0, BuildingBlock: XOMCOT_clean_sbu_1, # of connection points: 5
#     Node 6, Type 0, BuildingBlock: XOMCOT_clean_sbu_1, # of connection points: 5
#     Node 7, Type 0, BuildingBlock: XOMCOT_clean_sbu_1, # of connection points: 5
#     Edge 8, Type (0, 0), BuildingBlock: OJICUG_clean_linker_0, # of connection points: 2
#     Edge 9, Type (0, 0), BuildingBlock: OJICUG_clean_linker_0, # of connection points: 2
#     Edge 10, Type (0, 0), BuildingBlock: OJICUG_clean_linker_0, # of connection points: 2
#     Edge 11, Type (0, 0), BuildingBlock: OJICUG_clean_linker_0, # of connection points: 2
#     Edge 12, Type (0, 0), BuildingBlock: OJICUG_clean_linker_0, # of connection points: 2
#     Edge 13, Type (0, 0), BuildingBlock: OJICUG_clean_linker_0, # of connection points: 2
#     Edge 14, Type (0, 0), BuildingBlock: OJICUG_clean_linker_0, # of connection points: 2
#     Edge 15, Type (0, 0), BuildingBlock: OJICUG_clean_linker_0, # of connection points: 2
#     Edge 16, Type (0, 0), BuildingBlock: OJICUG_clean_linker_0, # of connection points: 2
#     Edge 17, Type (0, 0), BuildingBlock: OJICUG_clean_linker_0, # of connection points: 2
#     Edge 18, Type (0, 0), BuildingBlock: OJICUG_clean_linker_0, # of connection points: 2
#     Edge 19, Type (0, 0), BuildingBlock: OJICUG_clean_linker_0, # of connection points: 2
#     Edge 20, Type (0, 0), BuildingBlock: OJICUG_clean_linker_0, # of connection points: 2
#     Edge 21, Type (0, 0), BuildingBlock: OJICUG_clean_linker_0, # of connection points: 2
#     Edge 22, Type (0, 0), BuildingBlock: OJICUG_clean_linker_0, # of connection points: 2
#     Edge 23, Type (0, 0), BuildingBlock: OJICUG_clean_linker_0, # of connection points: 2
#     Edge 24, Type (0, 0), BuildingBlock: OJICUG_clean_linker_0, # of connection points: 2
#     Edge 25, Type (0, 0), BuildingBlock: OJICUG_clean_linker_0, # of connection points: 2
#     Edge 26, Type (0, 0), BuildingBlock: OJICUG_clean_linker_0, # of connection points: 2
#     Edge 27, Type (0, 0), BuildingBlock: OJICUG_clean_linker_0, # of connection points: 2
# Relax obj value: 0.125
# Max RMSD: 0.160
# Mean RMSD: 0.160
data_MOF--net-nov--node1-XOMCOT_clean_sbu_1--edge1-OJICUG_clean_linker_0
_symmetry_space_group_name_H-M    P1
_symmetry_Int_Tables_number       1
_symmetry_cell_setting            triclinic
loop_
_symmetry_equiv_pos_as_xyz
'x, y, z'
_cell_length_a     18.72703
_cell_length_b     40.889737
_cell_length_c     22.28955
_cell_angle_alpha  90.17933
_cell_angle_beta   90.067343
_cell_angle_gamma 89.790444
loop_
_atom_site_label
_atom_site_type_symbol
_atom_site_fract_x
_atom_site_fract_y
_atom_site_fract_z
_atom_type_partial_charge
C0 C 0.10732 0.14125 0.01249 0.0
C1 C 0.11227 0.11185 0.9831 0.0
N2 N 0.09753 0.08782 0.02231 0.0
N3 N 0.08818 0.13624 0.07008 0.0
C4 C 0.08504 0.10328 0.07522 0.0
H5 H 0.1177 0.16492 0.99294 0.0
Co6 Co 0.07679 0.17067 0.12578 0.0
C7 C 0.94048 0.13073 0.1599 0.0
O8 O 0.94291 0.107 0.12022 0.0
N9 N 1.06531 0.20524 0.181 0.0
C10 C 1.01068 0.24507 0.23117 0.0
C11 C 1.00619 0.22427 0.18344 0.0
C12 C 0.10488 0.21491 0.22881 0.0
N13 N 0.07215 0.23895 0.26038 0.0
O14 O 0.13693 0.14793 0.18238 0.0
H15 H 0.96078 0.22242 0.15368 0.0
H16 H 0.15435 0.20336 0.24237 0.0
O17 O 0.98863 0.15282 0.16074 0.0
C18 C 0.20232 0.15007 0.1662 0.0
O19 O 0.21643 0.16404 0.11454 0.0
N20 N 1.02612 0.19449 0.06811 0.0
C21 C 0.97936 0.23215 0.97218 0.0
C22 C 0.94263 0.20358 0.98805 0.0
C23 C 0.96651 0.18512 0.03722 0.0
C24 C 1.06203 0.22214 0.05282 0.0
C25 C 1.03859 0.24171 0.00607 0.0
H26 H 0.94009 0.16248 0.048 0.0
H27 H 0.11078 0.22846 0.07615 0.0
H28 H 0.07365 0.09093 0.11694 0.0
H29 H 0.12705 0.10853 0.93656 0.0
H30 H 0.97015 0.2625 0.24481 0.0
H31 H 0.89793 0.19507 0.96147 0.0
H32 H 0.06967 0.26297 0.99381 0.0
C33 C 0.53616 0.90439 0.50757 0.0
C34 C 0.52919 0.93384 0.47879 0.0
N35 N 0.55233 0.9577 0.51585 0.0
N36 N 0.56406 0.90934 0.56258 0.0
C37 C 0.57259 0.94206 0.56671 0.0
H38 H 0.52088 0.88077 0.48984 0.0
Co39 Co 0.57922 0.87589 0.61817 0.0
C40 C 0.71876 0.91545 0.65221 0.0
O41 O 0.73085 0.93489 0.60657 0.0
N42 N 0.59551 0.84238 0.67394 0.0
C43 C 0.65731 0.80565 0.72573 0.0
C44 C 0.65923 0.82701 0.67893 0.0
C45 C 0.55555 0.82995 0.71903 0.0
N46 N 0.59252 0.80767 0.7515 0.0
O47 O 0.5179 0.89804 0.67468 0.0
H48 H 0.70547 0.8318 0.65133 0.0
H49 H 0.50214 0.83824 0.72983 0.0
O50 O 0.66499 0.89627 0.65146 0.0
C51 C 0.45262 0.89459 0.6588 0.0
O52 O 0.43913 0.87882 0.60861 0.0
N53 N 0.63099 0.85249 0.56036 0.0
C54 C 0.67701 0.81525 0.46314 0.0
C55 C 0.70964 0.84529 0.47637 0.0
C56 C 0.68622 0.86353 0.52608 0.0
C57 C 0.59931 0.82331 0.54786 0.0
C58 C 0.62266 0.80396 0.50057 0.0
H59 H 0.70879 0.88734 0.5343 0.0
H60 H 0.55335 0.8156 0.57347 0.0
H61 H 0.59277 0.95405 0.60651 0.0
H62 H 0.50698 0.93727 0.43443 0.0
H63 H 0.70127 0.79053 0.74093 0.0
H64 H 0.7503 0.85515 0.4471 0.0
H65 H 0.59444 0.7815 0.49051 0.0
C66 C 0.13774 0.89927 0.96676 0.0
C67 C 0.1392 0.92821 -0.00192 0.0
N68 N 0.10366 0.95102 0.96617 0.0
N69 N 0.10092 0.90347 0.91532 0.0
C70 C 0.0811 0.9353 0.91596 0.0
H71 H 0.16313 0.8766 0.97999 0.0
Co72 Co 0.09091 0.87105 0.8562 0.0
C73 C 0.93331 0.88504 0.83224 0.0
O74 O 0.91343 0.86305 0.8714 0.0
N75 N 0.08244 0.83898 0.79576 0.0
C76 C 1.04224 0.79773 0.74009 0.0
C77 C 1.02432 0.82084 0.78214 0.0
C78 C 0.13479 0.82672 0.76026 0.0
N79 N 0.11159 0.80144 0.72663 0.0
O80 O 0.14721 0.89706 0.80188 0.0
H81 H 0.97294 0.82286 0.80348 0.0
H82 H 0.18937 0.83526 0.76046 0.0
O83 O 1.00009 0.89105 0.82504 0.0
C84 C 0.21318 0.89516 0.81684 0.0
O85 O 0.22983 0.87887 0.86562 0.0
N86 N 1.04608 0.84295 0.91365 0.0
C87 C 1.02948 0.80182 0.01295 0.0
C88 C 0.99846 0.83311 0.01266 0.0
C89 C 1.00739 0.85337 0.9624 0.0
C90 C 0.07375 0.81196 0.91341 0.0
C91 C 1.06286 0.79069 0.9607 0.0
H92 H 0.98808 0.8783 0.96478 0.0
H93 H 0.11033 0.80399 0.87901 0.0
H94 H 1.05175 0.94673 0.87979 0.0
H95 H 0.16692 0.93233 0.04003 0.0
H96 H 1.00715 0.77949 0.72084 0.0
H97 H 0.973 0.84288 0.0525 0.0
H98 H 0.08732 0.76665 0.95868 0.0
C99 C 0.54737 0.14904 0.47802 0.0
C100 C 0.5421 0.11968 0.50716 0.0
N101 N 0.55236 0.09542 0.46697 0.0
N102 N 0.56231 0.14376 0.41959 0.0
C103 C 0.56265 0.1108 0.41388 0.0
H104 H 0.53932 0.17285 0.49821 0.0
Co105 Co 0.56839 0.17719 0.36196 0.0
C106 C 0.70419 0.13712 0.32857 0.0
O107 O 0.70302 0.11609 0.37287 0.0
N108 N 0.57303 0.21068 0.30493 0.0
C109 C 0.61403 0.25207 0.25067 0.0
C110 C 0.63001 0.23015 0.29518 0.0
C111 C 0.5235 0.22083 0.26477 0.0
N112 N 0.5472 0.24612 0.23171 0.0
O113 O 0.50728 0.15255 0.30872 0.0
H114 H 0.6804 0.22838 0.31872 0.0
H115 H 0.47135 0.20992 0.2594 0.0
O116 O 0.65601 0.1593 0.32435 0.0
C117 C 0.44217 0.15274 0.3262 0.0
O118 O 0.42723 0.16625 0.37829 0.0
N119 N 0.62079 0.20296 0.41638 0.0
C120 C 0.66593 0.24048 0.51378 0.0
C121 C 0.70398 0.21228 0.4967 0.0
C122 C 0.68098 0.19396 0.44695 0.0
C123 C 0.58468 0.23075 0.4317 0.0
C124 C 0.60719 0.25021 0.47928 0.0
H125 H 0.70797 0.17134 0.43625 0.0
H126 H 0.53554 0.23694 0.40876 0.0
H127 H 0.57042 0.09848 0.37139 0.0
H128 H 0.52987 0.11665 0.55422 0.0
H129 H 0.64959 0.2702 0.23197 0.0
H130 H 0.74871 0.20369 0.52324 0.0
H131 H 0.57524 0.27125 0.49201 0.0
C132 C 0.6385 0.64352 0.02076 0.0
C133 C 0.63856 0.61437 0.99004 0.0
N134 N 0.60175 0.59225 0.02225 0.0
N135 N 0.60144 0.64011 0.07216 0.0
C136 C 0.57996 0.60858 0.07207 0.0
H137 H 0.66485 0.66578 0.00708 0.0
Co138 Co 0.59202 0.67296 0.13048 0.0
C139 C 0.43451 0.65968 0.15452 0.0
O140 O 0.41437 0.68159 0.11513 0.0
N141 N 0.58386 0.70546 0.19022 0.0
C142 C 0.54376 0.74726 0.2448 0.0
C143 C 0.52586 0.72401 0.2031 0.0
C144 C 0.63611 0.71764 0.22583 0.0
N145 N 0.61298 0.74325 0.2588 0.0
O146 O 0.64822 0.64703 0.18533 0.0
H147 H 0.47458 0.72213 0.1815 0.0
H148 H 0.69056 0.70875 0.22624 0.0
O149 O 0.50131 0.65359 0.1619 0.0
C150 C 0.71412 0.64867 0.17028 0.0
O151 O 0.73053 0.66476 0.12131 0.0
N152 N 0.54739 0.70091 0.07241 0.0
C153 C 0.53139 0.74152 0.97224 0.0
C154 C 0.49971 0.71048 0.97318 0.0
C155 C 0.50838 0.69047 0.02387 0.0
C156 C 0.57578 0.73167 0.07196 0.0
C157 C 0.56524 0.75271 0.02421 0.0
H158 H 0.48864 0.66566 0.022 0.0
H159 H 0.61268 0.73955 0.10615 0.0
H160 H 0.54979 0.59782 0.10829 0.0
H161 H 0.66602 0.60966 0.94821 0.0
H162 H 0.50871 0.76577 0.26351 0.0
H163 H 0.47393 0.70068 0.93353 0.0
H164 H 0.59035 0.77654 0.02563 0.0
C165 C 1.04036 0.39627 0.51949 0.0
C166 C 1.03844 0.4252 0.48832 0.0
N167 N 1.06003 0.44944 0.52519 0.0
N168 N 1.06415 0.40195 0.57567 0.0
C169 C 0.07453 0.43461 0.5781 0.0
H170 H 1.02342 0.37267 0.5028 0.0
Co171 Co 0.06799 0.37105 0.63761 0.0
C172 C 0.21472 0.40426 0.65595 0.0
O173 O 0.22339 0.41614 0.60184 0.0
N174 N 0.07133 0.34064 0.69992 0.0
C175 C 0.11117 0.30092 0.7589 0.0
C176 C 0.1299 0.32348 0.71641 0.0
C177 C 1.01781 0.32859 0.73394 0.0
N178 N 1.04087 0.30415 0.76957 0.0
O179 O 1.01275 0.39961 0.68813 0.0
H180 H 0.18248 0.32645 0.69719 0.0
H181 H 0.96286 0.33673 0.73129 0.0
O182 O 0.1583 0.38838 0.66941 0.0
C183 C 0.94741 0.39924 0.67133 0.0
O184 O 0.93124 0.38345 0.62172 0.0
N185 N 0.11336 0.34055 0.58564 0.0
C186 C 0.13131 0.29737 0.48958 0.0
C187 C 0.17395 0.32545 0.49439 0.0
C188 C 0.16473 0.34666 0.54357 0.0
C189 C 0.07597 0.31198 0.58325 0.0
C190 C 0.08682 0.28946 0.53767 0.0
H191 H 0.1925 0.36957 0.54327 0.0
H192 H 1.0325 0.30753 0.61387 0.0
H193 H 0.09144 0.44718 0.6184 0.0
H194 H 1.01975 0.42818 0.44272 0.0
H195 H 0.14636 0.28351 0.78058 0.0
H196 H 0.20876 0.33261 0.458 0.0
H197 H 1.05402 0.26768 0.53667 0.0
C198 C 0.60148 0.40195 0.97851 0.0
C199 C 0.60249 0.43135 0.00824 0.0
N200 N 0.58892 0.45534 0.96847 0.0
N201 N 0.58616 0.40696 0.92009 0.0
C202 C 0.58045 0.43985 0.91506 0.0
H203 H 0.613 0.37838 -0.00183 0.0
Co204 Co 0.58513 0.37358 0.86179 0.0
C205 C 0.4438 0.40903 0.83094 0.0
O206 O 0.43622 0.4256 0.88109 0.0
N207 N 0.58474 0.34014 0.80382 0.0
C208 C 0.54659 0.29826 0.74879 0.0
C209 C 0.52845 0.32048 0.7924 0.0
C210 C 0.63612 0.32984 0.76533 0.0
N211 N 0.61415 0.30417 0.73187 0.0
O212 O 0.64439 0.3995 0.81037 0.0
H213 H 0.47706 0.32229 0.81429 0.0
H214 H 0.68836 0.34086 0.76165 0.0
O215 O 0.49777 0.39024 0.82312 0.0
C216 C 0.70891 0.40037 0.82915 0.0
O217 O 0.72359 0.38706 0.88135 0.0
N218 N 0.53467 0.34636 0.9149 0.0
C219 C 0.49476 0.30749 0.01149 0.0
C220 C 0.45236 0.33419 0.99424 0.0
C221 C 0.47283 0.35319 0.945 0.0
C222 C 0.57481 0.31975 0.93013 0.0
C223 C 0.55508 0.29963 0.97742 0.0
H224 H 0.44202 0.3746 0.93468 0.0
H225 H 0.62502 0.31522 0.90761 0.0
H226 H 0.57044 0.45209 0.87291 0.0
H227 H 0.61486 0.43475 0.05527 0.0
H228 H 0.51203 0.27988 0.72933 0.0
H229 H 0.40612 0.34126 0.02046 0.0
H230 H 0.59016 0.27973 0.99038 0.0
C231 C 1.03976 0.6396 0.47908 0.0
C232 C 1.03491 0.61027 0.50846 0.0
N233 N 1.05856 0.58642 0.47152 0.0
N234 N 0.06689 0.63456 0.42384 0.0
C235 C 0.07687 0.60186 0.4201 0.0
H236 H 1.02381 0.6632 0.49664 0.0
Co237 Co 0.08036 0.66801 0.36809 0.0
C238 C 0.22077 0.6289 0.33402 0.0
O239 O 0.23354 0.60958 0.3798 0.0
N240 N 0.09507 0.70151 0.31211 0.0
C241 C 0.15548 0.73821 0.25968 0.0
C242 C 0.15826 0.7171 0.30685 0.0
C243 C 1.05454 0.71359 0.26685 0.0
N244 N 0.09066 0.73584 0.23402 0.0
O245 O 1.01936 0.64558 0.31193 0.0
H246 H 0.20481 0.71256 0.33439 0.0
H247 H 1.00144 0.70501 0.25608 0.0
O248 O 0.16649 0.64794 0.33461 0.0
C249 C 0.95413 0.6489 0.32807 0.0
O250 O 0.94068 0.66464 0.37832 0.0
N251 N 0.1318 0.6917 0.42562 0.0
C252 C 0.17693 0.72919 0.5227 0.0
C253 C 0.21056 0.69927 0.50952 0.0
C254 C 0.18758 0.68091 0.45986 0.0
C255 C 0.09917 0.72077 0.43808 0.0
C256 C 0.12206 0.74025 0.48529 0.0
H257 H 0.21093 0.65718 0.45169 0.0
H258 H 1.05283 0.72828 0.41252 0.0
H259 H 0.09696 0.58973 0.38037 0.0
H260 H 1.01388 0.60685 0.55317 0.0
H261 H 0.19893 0.75333 0.244 0.0
H262 H 0.25166 0.68959 0.53878 0.0
H263 H 0.09312 0.7626 0.49534 0.0
C264 C 0.08573 1.00878 0.93592 0.0
C265 C 0.09727 0.9854 0.98096 0.0
H266 H 0.07549 0.05927 0.91367 0.0
C267 C 0.10557 0.99636 0.0406 0.0
H268 H 0.07936 1.00148 0.88955 0.0
C269 C 0.10466 0.0298 0.05445 0.0
C270 C 0.09525 0.05318 0.00905 0.0
H271 H 0.11326 0.97914 0.07678 0.0
H272 H 0.11295 0.03725 0.10053 0.0
C273 C 0.08459 0.04214 0.94978 0.0
C274 C 0.54694 0.03768 0.43226 0.0
C275 C 0.55288 0.06063 0.47905 0.0
H276 H 0.54368 0.98744 0.40672 0.0
C277 C 0.55988 0.04893 0.53819 0.0
H278 H 0.54121 0.04544 0.38619 0.0
C279 C 0.55985 1.0154 0.55024 0.0
C280 C 0.55344 0.99245 0.50351 0.0
H281 H 0.56593 0.06556 0.57562 0.0
H282 H 0.56413 1.00765 0.59643 0.0
C283 C 0.54752 1.00412 0.44427 0.0
C284 C 0.57887 0.53501 0.05319 0.0
C285 C 0.59314 0.55793 0.00797 0.0
H286 H 0.56486 0.48481 0.07608 0.0
C287 C 0.60189 0.54651 0.94869 0.0
H288 H 0.57195 0.54265 0.09931 0.0
C289 C 0.59915 0.51306 0.93543 0.0
C290 C 0.58724 0.49007 0.98102 0.0
H291 H 0.61154 0.56337 0.91233 0.0
H292 H 0.60825 0.50527 0.88965 0.0
C293 C 0.57577 0.5016 0.03987 0.0
C294 C 1.06428 0.49496 0.45175 0.0
C295 C 1.06266 0.484 0.51161 0.0
H296 H 1.06344 0.53576 0.39194 0.0
C297 C 1.06223 0.50749 0.55779 0.0
H298 H 0.06588 0.47775 0.41484 0.0
C299 C 1.06213 0.54086 0.54456 0.0
C300 C 1.06194 0.55183 0.48475 0.0
H301 H 1.0606 0.50027 0.60438 0.0
H302 H 1.06218 0.55802 0.58156 0.0
C303 C 1.06377 0.5284 0.4385 0.0
C304 C 0.31199 0.14247 0.30828 0.0
C305 C 0.38212 0.14428 0.28548 0.0
H306 H 0.19973 0.14233 0.28858 0.0
C307 C 0.39209 0.14264 0.2232 0.0
H308 H 0.30244 0.14343 0.35617 0.0
C309 C 0.33307 0.14206 0.18456 0.0
C310 C 0.26282 0.1429 0.2073 0.0
H311 H 0.44517 0.144 0.20414 0.0
H312 H 0.34259 0.14273 0.13665 0.0
C313 C 0.25294 0.14167 0.26961 0.0
C314 C 0.32167 0.90303 0.67523 0.0
C315 C 0.39177 0.9031 0.69852 0.0
H316 H 0.20944 0.90115 0.69439 0.0
C317 C 0.40128 0.90671 0.76056 0.0
H318 H 0.31252 0.90058 0.62743 0.0
C319 C 0.34201 0.90707 0.79881 0.0
C320 C 0.27213 0.9041 0.7758 0.0
H321 H 0.45438 0.90687 0.77989 0.0
H322 H 0.35118 0.90763 0.84681 0.0
C323 C 0.26238 0.90364 0.71347 0.0
C324 C 0.80609 0.88856 0.79769 0.0
C325 C 0.87802 0.89757 0.78957 0.0
H326 H 0.70033 0.8871 0.76148 0.0
C327 C 0.89593 0.91538 0.73781 0.0
H328 H 0.78968 0.87501 0.83698 0.0
C329 C 0.8437 0.92261 0.69419 0.0
C330 C 0.77267 0.91192 0.70116 0.0
H331 H 0.95065 0.92266 0.72989 0.0
H332 H 0.85968 0.93535 0.65388 0.0
C333 C 0.75446 0.89546 0.75415 0.0
C334 C 0.79358 0.10538 0.26768 0.0
C335 C 0.76363 0.13565 0.28442 0.0
H336 H 0.87167 0.08009 0.21418 0.0
C337 C 0.79228 0.16436 0.25974 0.0
H338 H 0.7726 0.08283 0.28586 0.0
C339 C 0.8505 0.16282 0.22015 0.0
C340 C 0.87986 0.13251 0.20286 0.0
H341 H 0.77069 0.18805 0.27202 0.0
H342 H 0.87175 0.18535 0.20228 0.0
C343 C 0.85019 0.10379 0.22658 0.0
C344 C 0.82318 0.64065 0.31183 0.0
C345 C 0.89319 0.64043 0.28846 0.0
H346 H 0.71087 0.64277 0.29276 0.0
C347 C 0.90247 0.63674 0.22643 0.0
H348 H 0.81421 0.64316 0.35963 0.0
C349 C 0.84305 0.63647 0.18824 0.0
C350 C 0.77326 0.63964 0.2113 0.0
H351 H 0.95549 0.63646 0.20705 0.0
H352 H 0.85204 0.63585 0.14024 0.0
C353 C 0.76374 0.64015 0.27364 0.0
C354 C 0.89817 0.41033 0.77396 0.0
C355 C 0.88821 0.40898 0.71165 0.0
H356 H 0.8485 0.40915 0.86027 0.0
C357 C 0.81824 0.41105 0.68857 0.0
H358 H 0.95125 0.40873 0.79311 0.0
C359 C 0.7592 0.41119 0.72695 0.0
C360 C 0.76904 0.40914 0.7892 0.0
H361 H 0.80886 0.41034 0.64061 0.0
H362 H 0.70611 0.4104 0.70765 0.0
C363 C 0.83909 0.41036 0.81237 0.0
C364 C 0.40055 0.40605 0.72437 0.0
C365 C 0.38547 0.40926 0.78585 0.0
H366 H 0.35828 0.40295 0.63495 0.0
C367 C 0.31377 0.41154 0.80418 0.0
H368 H 0.45528 0.40416 0.709 0.0
C369 C 0.25825 0.40982 0.76204 0.0
C370 C 0.27333 0.40695 0.70051 0.0
H371 H 0.30052 0.41371 0.85132 0.0
H372 H 0.20349 0.41092 0.77755 0.0
C373 C 0.34507 0.40548 0.68204 0.0
C374 C 0.25593 0.64913 0.23228 0.0
C375 C 0.2745 0.63253 0.28515 0.0
H376 H 0.29074 0.66984 0.14971 0.0
C377 C 0.34571 0.62184 0.29213 0.0
H378 H 0.20164 0.65748 0.22495 0.0
C379 C 0.39773 0.6292 0.24865 0.0
C380 C 0.37945 0.64716 0.19705 0.0
H381 H 0.36195 0.609 0.33234 0.0
H382 H 0.45257 0.62188 0.25656 0.0
C383 C 0.30739 0.65618 0.18889 0.0
C384 C 0.97325 0.30145 0.86346 0.0
C385 C 1.00162 0.28573 0.81283 0.0
H386 H 0.9424 0.29605 0.95556 0.0
C387 C 1.0047 0.25146 0.8111 0.0
H388 H 0.97124 0.3279 0.86557 0.0
C389 C 0.98658 0.23322 0.86163 0.0
C390 C 0.96682 0.24917 0.91491 0.0
H391 H 1.02683 0.23907 0.7723 0.0
H392 H 0.99599 0.20706 0.86114 0.0
C393 C 0.95659 0.28326 0.9146 0.0
C394 C 0.66462 0.81439 0.35275 0.0
C395 C 0.68717 0.79843 0.40511 0.0
H396 H 0.62224 0.80856 0.26402 0.0
C397 C 0.69935 0.76447 0.40356 0.0
H398 H 0.65386 0.84045 0.35314 0.0
C399 C 0.68212 0.74635 0.35224 0.0
C400 C 0.65117 0.76196 0.30267 0.0
H401 H 0.716 0.75167 0.44373 0.0
H402 H 0.68608 0.71992 0.35346 0.0
C403 C 0.64597 0.7962 0.30208 0.0
C404 C 0.98738 0.77953 0.11315 0.0
C405 C 1.04095 0.78334 0.06947 0.0
H406 H 0.96113 0.76054 0.20058 0.0
C407 C 0.10911 0.77016 0.08053 0.0
H408 H 0.93443 0.7895 0.10586 0.0
C409 C 0.12375 0.75372 0.13338 0.0
C410 C 0.07125 0.75031 0.1776 0.0
H411 H 0.15235 0.77322 0.04882 0.0
H412 H 0.17697 0.74393 0.13998 0.0
C413 C 1.00235 0.76282 0.16686 0.0
C414 C 0.66811 0.30669 0.63156 0.0
C415 C 0.64927 0.28848 0.68232 0.0
H416 H 0.6889 0.30538 0.53687 0.0
C417 C 0.65129 0.2542 0.67934 0.0
H418 H 0.66597 0.33315 0.63292 0.0
C419 C 0.66587 0.23831 0.62511 0.0
C420 C 0.67696 0.25653 0.57269 0.0
H421 H 0.63639 0.23983 0.71806 0.0
H422 H 0.66132 0.21192 0.62299 0.0
C423 C 0.68111 0.29082 0.57684 0.0
C424 C 0.50421 0.78103 0.81867 0.0
C425 C 0.57354 0.79268 0.80752 0.0
H426 H 0.43583 0.75511 0.87999 0.0
C427 C 0.62657 0.7882 0.85114 0.0
H428 H 0.46251 0.78414 0.78547 0.0
C429 C 0.6119 0.77169 0.90383 0.0
C430 C 0.5432 0.75956 0.9154 0.0
H431 H 0.68015 0.79732 0.84439 0.0
H432 H 0.65537 0.76793 0.93521 0.0
C433 C 0.4892 0.76428 0.87226 0.0
C434 C 1.04945 0.27332 0.41394 0.0
C435 C 0.1199 0.28046 0.43124 0.0
H436 H 0.9799 0.25364 0.34801 0.0
C437 C 0.17596 0.27275 0.39151 0.0
H438 H 1.00449 0.27963 0.44229 0.0
C439 C 0.16114 0.25815 0.33559 0.0
C440 C 0.09014 0.25163 0.31871 0.0
H441 H 0.23074 0.27809 0.40353 0.0
H442 H 0.20457 0.25277 0.30507 0.0
C443 C 1.03498 0.25889 0.35905 0.0
C444 C 0.49577 0.31049 0.12254 0.0
C445 C 0.48599 0.29166 0.07044 0.0
H446 H 0.52401 0.31015 0.21583 0.0
C447 C 0.48424 0.25739 0.07494 0.0
H448 H 0.49853 0.33692 0.11996 0.0
C449 C 0.49733 0.24219 0.13006 0.0
C450 C 0.51413 0.2611 0.18072 0.0
H451 H 0.47764 0.24243 0.03513 0.0
H452 H 0.50066 0.21577 0.13202 0.0
C453 C 0.51065 0.29529 0.17714 0.0
C454 C 0.19833 0.78003 0.58214 0.0
C455 C 0.18669 0.74607 0.5807 0.0
H456 H 0.18437 0.82463 0.63206 0.0
C457 C 0.16423 0.73018 0.63303 0.0
H458 H 0.21484 0.79277 0.54196 0.0
C459 C 0.14521 0.74844 0.68357 0.0
C460 C 0.14999 0.78266 0.68289 0.0
H461 H 0.15384 0.70413 0.6327 0.0
H462 H 0.12157 0.73613 0.72161 0.0
C463 C 0.18076 0.79821 0.63335 0.0
loop_
_geom_bond_atom_site_label_1
_geom_bond_atom_site_label_2
_geom_bond_distance
_geom_bond_site_symmetry_2
_ccdc_geom_bond_type
C0 C1 1.351 . S
C0 N3 1.368 . S
C0 H5 0.931 . S
C1 C0 1.351 . S
C1 N2 1.373 . S
C1 H29 0.930 . S
N2 C1 1.373 . S
N2 C4 1.340 1_455 S
N3 C0 1.368 . S
N3 C4 1.321 1_455 S
N3 Co6 2.135 . S
C4 N2 1.340 1_655 S
C4 N3 1.321 1_655 S
C4 H28 0.930 . S
H5 C0 0.931 . S
Co6 N3 2.135 . S
Co6 N9 2.121 1_455 S
Co6 O14 2.055 . S
Co6 O17 2.039 1_455 S
Co6 N20 2.140 . S
C7 O8 1.227 . S
C7 O17 1.265 . S
O8 C7 1.227 . S
N9 Co6 2.121 1_655 S
N9 C11 1.375 . S
N9 C12 1.313 1_655 S
C10 C11 1.338 . S
C10 N13 1.377 1_655 S
C10 H30 0.930 . S
C11 N9 1.375 . S
C11 C10 1.338 . S
C11 H15 0.931 . S
C12 N9 1.313 1_455 S
C12 N13 1.344 . S
C12 H16 0.930 . S
N13 C10 1.377 1_455 S
N13 C12 1.344 . S
O14 Co6 2.055 . S
O14 C18 1.253 . S
H15 C11 0.931 . S
H16 C12 0.930 . S
O17 Co6 2.039 1_655 S
O17 C7 1.265 . S
C18 O14 1.253 . S
C18 O19 1.227 . S
O19 C18 1.227 . S
N20 Co6 2.140 . S
N20 C23 1.346 1_455 S
N20 C24 1.345 . S
C21 C22 1.387 1_455 S
C21 C25 1.391 . S
C22 C21 1.387 1_655 S
C22 C23 1.369 . S
C22 H31 0.929 1_554 S
C23 N20 1.346 1_655 S
C23 C22 1.369 . S
C23 H26 0.928 . S
C24 N20 1.345 . S
C24 C25 1.371 . S
C24 H27 0.931 . S
C25 C21 1.391 . S
C25 C24 1.371 . S
C25 H32 0.930 . S
H26 C23 0.928 . S
H27 C24 0.931 . S
H28 C4 0.930 . S
H29 C1 0.930 . S
H30 C10 0.930 . S
H31 C22 0.929 1_556 S
H32 C25 0.930 . S
C33 C34 1.351 . S
C33 N36 1.368 . S
C33 H38 0.931 . S
C34 C33 1.351 . S
C34 N35 1.373 . S
C34 H62 0.930 . S
N35 C34 1.373 . S
N35 C37 1.340 . S
N36 C33 1.368 . S
N36 C37 1.321 . S
N36 Co39 2.135 . S
C37 N35 1.340 . S
C37 N36 1.321 . S
C37 H61 0.930 . S
H38 C33 0.931 . S
Co39 N36 2.135 . S
Co39 N42 2.121 . S
Co39 O47 2.055 . S
Co39 O50 2.039 . S
Co39 N53 2.140 . S
C40 O41 1.227 . S
C40 O50 1.265 . S
O41 C40 1.227 . S
N42 Co39 2.121 . S
N42 C44 1.375 . S
N42 C45 1.313 . S
C43 C44 1.338 . S
C43 N46 1.377 . S
C43 H63 0.930 . S
C44 N42 1.375 . S
C44 C43 1.338 . S
C44 H48 0.931 . S
C45 N42 1.313 . S
C45 N46 1.344 . S
C45 H49 0.930 . S
N46 C43 1.377 . S
N46 C45 1.344 . S
O47 Co39 2.055 . S
O47 C51 1.253 . S
H48 C44 0.931 . S
H49 C45 0.930 . S
O50 Co39 2.039 . S
O50 C40 1.265 . S
C51 O47 1.253 . S
C51 O52 1.227 . S
O52 C51 1.227 . S
N53 Co39 2.140 . S
N53 C56 1.346 . S
N53 C57 1.345 . S
C54 C55 1.387 . S
C54 C58 1.391 . S
C55 C54 1.387 . S
C55 C56 1.369 . S
C55 H64 0.929 . S
C56 N53 1.346 . S
C56 C55 1.369 . S
C56 H59 0.928 . S
C57 N53 1.345 . S
C57 C58 1.371 . S
C57 H60 0.931 . S
C58 C54 1.391 . S
C58 C57 1.371 . S
C58 H65 0.930 . S
H59 C56 0.928 . S
H60 C57 0.931 . S
H61 C37 0.930 . S
H62 C34 0.930 . S
H63 C43 0.930 . S
H64 C55 0.929 . S
H65 C58 0.930 . S
C66 C67 1.351 . S
C66 N69 1.368 . S
C66 H71 0.931 . S
C67 C66 1.351 . S
C67 N68 1.373 . S
C67 H95 0.930 . S
N68 C67 1.373 . S
N68 C70 1.340 1_455 S
N69 C66 1.368 . S
N69 C70 1.321 1_455 S
N69 Co72 2.135 . S
C70 N68 1.340 1_655 S
C70 N69 1.321 1_655 S
C70 H94 0.930 . S
H71 C66 0.931 . S
Co72 N69 2.135 . S
Co72 N75 2.121 1_455 S
Co72 O80 2.055 . S
Co72 O83 2.039 1_455 S
Co72 N86 2.140 . S
C73 O74 1.227 . S
C73 O83 1.265 . S
O74 C73 1.227 . S
N75 Co72 2.121 1_655 S
N75 C77 1.375 . S
N75 C78 1.313 1_655 S
C76 C77 1.338 . S
C76 N79 1.377 1_655 S
C76 H96 0.930 . S
C77 N75 1.375 . S
C77 C76 1.338 . S
C77 H81 0.931 . S
C78 N75 1.313 1_455 S
C78 N79 1.344 . S
C78 H82 0.930 . S
N79 C76 1.377 1_455 S
N79 C78 1.344 . S
O80 Co72 2.055 . S
O80 C84 1.253 . S
H81 C77 0.931 . S
H82 C78 0.930 . S
O83 Co72 2.039 1_655 S
O83 C73 1.265 . S
C84 O80 1.253 . S
C84 O85 1.227 . S
O85 C84 1.227 . S
N86 Co72 2.140 . S
N86 C89 1.346 1_455 S
N86 C90 1.345 . S
C87 C88 1.387 1_455 S
C87 C91 1.391 . S
C88 C87 1.387 1_655 S
C88 C89 1.369 . S
C88 H97 0.929 1_556 S
C89 N86 1.346 1_655 S
C89 C88 1.369 . S
C89 H92 0.928 . S
C90 N86 1.345 . S
C90 C91 1.371 . S
C90 H93 0.931 . S
C91 C87 1.391 . S
C91 C90 1.371 . S
C91 H98 0.930 . S
H92 C89 0.928 . S
H93 C90 0.931 . S
H94 C70 0.930 . S
H95 C67 0.930 . S
H96 C76 0.930 . S
H97 C88 0.929 1_554 S
H98 C91 0.930 . S
C99 C100 1.351 . S
C99 N102 1.368 . S
C99 H104 0.931 . S
C100 C99 1.351 . S
C100 N101 1.373 . S
C100 H128 0.930 . S
N101 C100 1.373 . S
N101 C103 1.340 . S
N102 C99 1.368 . S
N102 C103 1.321 . S
N102 Co105 2.135 . S
C103 N101 1.340 . S
C103 N102 1.321 . S
C103 H127 0.930 . S
H104 C99 0.931 . S
Co105 N102 2.135 . S
Co105 N108 2.121 . S
Co105 O113 2.055 . S
Co105 O116 2.039 . S
Co105 N119 2.140 . S
C106 O107 1.227 . S
C106 O116 1.265 . S
O107 C106 1.227 . S
N108 Co105 2.121 . S
N108 C110 1.375 . S
N108 C111 1.313 . S
C109 C110 1.338 . S
C109 N112 1.377 . S
C109 H129 0.930 . S
C110 N108 1.375 . S
C110 C109 1.338 . S
C110 H114 0.931 . S
C111 N108 1.313 . S
C111 N112 1.344 . S
C111 H115 0.930 . S
N112 C109 1.377 . S
N112 C111 1.344 . S
O113 Co105 2.055 . S
O113 C117 1.253 . S
H114 C110 0.931 . S
H115 C111 0.930 . S
O116 Co105 2.039 . S
O116 C106 1.265 . S
C117 O113 1.253 . S
C117 O118 1.227 . S
O118 C117 1.227 . S
N119 Co105 2.140 . S
N119 C122 1.346 . S
N119 C123 1.345 . S
C120 C121 1.387 . S
C120 C124 1.391 . S
C121 C120 1.387 . S
C121 C122 1.369 . S
C121 H130 0.929 . S
C122 N119 1.346 . S
C122 C121 1.369 . S
C122 H125 0.928 . S
C123 N119 1.345 . S
C123 C124 1.371 . S
C123 H126 0.931 . S
C124 C120 1.391 . S
C124 C123 1.371 . S
C124 H131 0.930 . S
H125 C122 0.928 . S
H126 C123 0.931 . S
H127 C103 0.930 . S
H128 C100 0.930 . S
H129 C109 0.930 . S
H130 C121 0.929 . S
H131 C124 0.930 . S
C132 C133 1.351 . S
C132 N135 1.368 . S
C132 H137 0.931 . S
C133 C132 1.351 . S
C133 N134 1.373 . S
C133 H161 0.930 . S
N134 C133 1.373 . S
N134 C136 1.340 . S
N135 C132 1.368 . S
N135 C136 1.321 . S
N135 Co138 2.135 . S
C136 N134 1.340 . S
C136 N135 1.321 . S
C136 H160 0.930 . S
H137 C132 0.931 . S
Co138 N135 2.135 . S
Co138 N141 2.121 . S
Co138 O146 2.055 . S
Co138 O149 2.039 . S
Co138 N152 2.140 . S
C139 O140 1.227 . S
C139 O149 1.265 . S
O140 C139 1.227 . S
N141 Co138 2.121 . S
N141 C143 1.375 . S
N141 C144 1.313 . S
C142 C143 1.338 . S
C142 N145 1.377 . S
C142 H162 0.930 . S
C143 N141 1.375 . S
C143 C142 1.338 . S
C143 H147 0.931 . S
C144 N141 1.313 . S
C144 N145 1.344 . S
C144 H148 0.930 . S
N145 C142 1.377 . S
N145 C144 1.344 . S
O146 Co138 2.055 . S
O146 C150 1.253 . S
H147 C143 0.931 . S
H148 C144 0.930 . S
O149 Co138 2.039 . S
O149 C139 1.265 . S
C150 O146 1.253 . S
C150 O151 1.227 . S
O151 C150 1.227 . S
N152 Co138 2.140 . S
N152 C155 1.346 . S
N152 C156 1.345 . S
C153 C154 1.387 . S
C153 C157 1.391 . S
C154 C153 1.387 . S
C154 C155 1.369 . S
C154 H163 0.929 1_554 S
C155 N152 1.346 . S
C155 C154 1.369 . S
C155 H158 0.928 . S
C156 N152 1.345 . S
C156 C157 1.371 . S
C156 H159 0.931 . S
C157 C153 1.391 . S
C157 C156 1.371 . S
C157 H164 0.930 . S
H158 C155 0.928 . S
H159 C156 0.931 . S
H160 C136 0.930 . S
H161 C133 0.930 . S
H162 C142 0.930 . S
H163 C154 0.929 1_556 S
H164 C157 0.930 . S
C165 C166 1.351 . S
C165 N168 1.368 1_655 S
C165 H170 0.931 . S
C166 C165 1.351 . S
C166 N167 1.373 1_655 S
C166 H194 0.930 . S
N167 C166 1.373 1_455 S
N167 C169 1.340 . S
N168 C165 1.368 1_455 S
N168 C169 1.321 . S
N168 Co171 2.135 . S
C169 N167 1.340 . S
C169 N168 1.321 . S
C169 H193 0.930 . S
H170 C165 0.931 . S
Co171 N168 2.135 . S
Co171 N174 2.121 . S
Co171 O179 2.055 1_455 S
Co171 O182 2.039 . S
Co171 N185 2.140 . S
C172 O173 1.227 . S
C172 O182 1.265 . S
O173 C172 1.227 . S
N174 Co171 2.121 . S
N174 C176 1.375 . S
N174 C177 1.313 1_455 S
C175 C176 1.338 . S
C175 N178 1.377 . S
C175 H195 0.930 . S
C176 N174 1.375 . S
C176 C175 1.338 . S
C176 H180 0.931 . S
C177 N174 1.313 1_655 S
C177 N178 1.344 1_655 S
C177 H181 0.930 . S
N178 C175 1.377 . S
N178 C177 1.344 1_455 S
O179 Co171 2.055 1_655 S
O179 C183 1.253 . S
H180 C176 0.931 . S
H181 C177 0.930 . S
O182 Co171 2.039 . S
O182 C172 1.265 . S
C183 O179 1.253 . S
C183 O184 1.227 . S
O184 C183 1.227 . S
N185 Co171 2.140 . S
N185 C188 1.346 . S
N185 C189 1.345 1_455 S
C186 C187 1.387 . S
C186 C190 1.391 1_455 S
C187 C186 1.387 . S
C187 C188 1.369 . S
C187 H196 0.929 . S
C188 N185 1.346 . S
C188 C187 1.369 . S
C188 H191 0.928 . S
C189 N185 1.345 1_655 S
C189 C190 1.371 . S
C189 H192 0.931 . S
C190 C186 1.391 1_655 S
C190 C189 1.371 . S
C190 H197 0.930 . S
H191 C188 0.928 . S
H192 C189 0.931 . S
H193 C169 0.930 . S
H194 C166 0.930 . S
H195 C175 0.930 . S
H196 C187 0.929 . S
H197 C190 0.930 . S
C198 C199 1.351 . S
C198 N201 1.368 . S
C198 H203 0.931 . S
C199 C198 1.351 . S
C199 N200 1.373 . S
C199 H227 0.930 . S
N200 C199 1.373 . S
N200 C202 1.340 . S
N201 C198 1.368 . S
N201 C202 1.321 . S
N201 Co204 2.135 . S
C202 N200 1.340 . S
C202 N201 1.321 . S
C202 H226 0.930 . S
H203 C198 0.931 . S
Co204 N201 2.135 . S
Co204 N207 2.121 . S
Co204 O212 2.055 . S
Co204 O215 2.039 . S
Co204 N218 2.140 . S
C205 O206 1.227 . S
C205 O215 1.265 . S
O206 C205 1.227 . S
N207 Co204 2.121 . S
N207 C209 1.375 . S
N207 C210 1.313 . S
C208 C209 1.338 . S
C208 N211 1.377 . S
C208 H228 0.930 . S
C209 N207 1.375 . S
C209 C208 1.338 . S
C209 H213 0.931 . S
C210 N207 1.313 . S
C210 N211 1.344 . S
C210 H214 0.930 . S
N211 C208 1.377 . S
N211 C210 1.344 . S
O212 Co204 2.055 . S
O212 C216 1.253 . S
H213 C209 0.931 . S
H214 C210 0.930 . S
O215 Co204 2.039 . S
O215 C205 1.265 . S
C216 O212 1.253 . S
C216 O217 1.227 . S
O217 C216 1.227 . S
N218 Co204 2.140 . S
N218 C221 1.346 . S
N218 C222 1.345 . S
C219 C220 1.387 . S
C219 C223 1.391 . S
C220 C219 1.387 . S
C220 C221 1.369 . S
C220 H229 0.929 1_556 S
C221 N218 1.346 . S
C221 C220 1.369 . S
C221 H224 0.928 . S
C222 N218 1.345 . S
C222 C223 1.371 . S
C222 H225 0.931 . S
C223 C219 1.391 . S
C223 C222 1.371 . S
C223 H230 0.930 . S
H224 C221 0.928 . S
H225 C222 0.931 . S
H226 C202 0.930 . S
H227 C199 0.930 . S
H228 C208 0.930 . S
H229 C220 0.929 1_554 S
H230 C223 0.930 . S
C231 C232 1.351 . S
C231 N234 1.368 1_655 S
C231 H236 0.931 . S
C232 C231 1.351 . S
C232 N233 1.373 1_655 S
C232 H260 0.930 . S
N233 C232 1.373 1_455 S
N233 C235 1.340 . S
N234 C231 1.368 1_455 S
N234 C235 1.321 . S
N234 Co237 2.135 . S
C235 N233 1.340 . S
C235 N234 1.321 . S
C235 H259 0.930 . S
H236 C231 0.931 . S
Co237 N234 2.135 . S
Co237 N240 2.121 . S
Co237 O245 2.055 1_455 S
Co237 O248 2.039 . S
Co237 N251 2.140 . S
C238 O239 1.227 . S
C238 O248 1.265 . S
O239 C238 1.227 . S
N240 Co237 2.121 . S
N240 C242 1.375 . S
N240 C243 1.313 1_455 S
C241 C242 1.338 . S
C241 N244 1.377 . S
C241 H261 0.930 . S
C242 N240 1.375 . S
C242 C241 1.338 . S
C242 H246 0.931 . S
C243 N240 1.313 1_655 S
C243 N244 1.344 1_655 S
C243 H247 0.930 . S
N244 C241 1.377 . S
N244 C243 1.344 1_455 S
O245 Co237 2.055 1_655 S
O245 C249 1.253 . S
H246 C242 0.931 . S
H247 C243 0.930 . S
O248 Co237 2.039 . S
O248 C238 1.265 . S
C249 O245 1.253 . S
C249 O250 1.227 . S
O250 C249 1.227 . S
N251 Co237 2.140 . S
N251 C254 1.346 . S
N251 C255 1.345 1_455 S
C252 C253 1.387 . S
C252 C256 1.391 1_455 S
C253 C252 1.387 . S
C253 C254 1.369 . S
C253 H262 0.929 . S
C254 N251 1.346 . S
C254 C253 1.369 . S
C254 H257 0.928 . S
C255 N251 1.345 1_655 S
C255 C256 1.371 . S
C255 H258 0.931 . S
C256 C252 1.391 1_655 S
C256 C255 1.371 . S
C256 H263 0.930 . S
H257 C254 0.928 . S
H258 C255 0.931 . S
H259 C235 0.930 . S
H260 C232 0.930 . S
H261 C241 0.930 . S
H262 C253 0.929 . S
H263 C256 0.930 . S
C264 C265 1.387 . S
C264 H268 0.950 . S
C264 C273 1.390 1_566 S
C265 C264 1.387 . S
C265 C267 1.387 1_655 S
H266 C273 0.950 . S
C267 C265 1.387 1_455 S
C267 C269 1.390 1_566 S
C267 H271 0.950 . S
H268 C264 0.950 . S
C269 C267 1.390 1_544 S
C269 C270 1.387 1_455 S
C269 H272 0.950 . S
C270 C269 1.387 1_655 S
C270 C273 1.387 . S
H271 C267 0.950 . S
H272 C269 0.950 . S
C273 C264 1.390 1_544 S
C273 H266 0.950 . S
C273 C270 1.387 . S
C274 C275 1.387 . S
C274 H278 0.950 . S
C274 C283 1.390 1_545 S
C275 C274 1.387 . S
C275 C277 1.387 . S
H276 C283 0.950 . S
C277 C275 1.387 . S
C277 C279 1.390 1_545 S
C277 H281 0.950 . S
H278 C274 0.950 . S
C279 C277 1.390 1_565 S
C279 C280 1.387 . S
C279 H282 0.950 . S
C280 C279 1.387 . S
C280 C283 1.387 . S
H281 C277 0.950 . S
H282 C279 0.950 . S
C283 C274 1.390 1_565 S
C283 H276 0.950 . S
C283 C280 1.387 . S
C284 C285 1.387 . S
C284 H288 0.950 . S
C284 C293 1.390 1_554 S
C285 C284 1.387 . S
C285 C287 1.387 . S
H286 C293 0.950 . S
C287 C285 1.387 . S
C287 C289 1.390 1_554 S
C287 H291 0.950 . S
H288 C284 0.950 . S
C289 C287 1.390 1_556 S
C289 C290 1.387 . S
C289 H292 0.950 . S
C290 C289 1.387 . S
C290 C293 1.387 . S
H291 C287 0.950 . S
H292 C289 0.950 . S
C293 C284 1.390 1_556 S
C293 H286 0.950 . S
C293 C290 1.387 . S
C294 C295 1.387 1_655 S
C294 H298 0.950 . S
C294 C303 1.390 . S
C295 C294 1.387 1_455 S
C295 C297 1.387 . S
H296 C303 0.950 . S
C297 C295 1.387 . S
C297 C299 1.390 . S
C297 H301 0.950 . S
H298 C294 0.950 . S
C299 C297 1.390 . S
C299 C300 1.387 . S
C299 H302 0.950 . S
C300 C299 1.387 . S
C300 C303 1.387 1_455 S
H301 C297 0.950 . S
H302 C299 0.950 . S
C303 C294 1.390 . S
C303 H296 0.950 . S
C303 C300 1.387 1_655 S
C304 C305 1.387 . S
C304 H308 0.950 . S
C304 C313 1.390 . S
C305 C304 1.387 . S
C305 C307 1.387 . S
H306 C313 0.950 . S
C307 C305 1.387 . S
C307 C309 1.390 . S
C307 H311 0.950 . S
H308 C304 0.950 . S
C309 C307 1.390 . S
C309 C310 1.387 . S
C309 H312 0.950 . S
C310 C309 1.387 . S
C310 C313 1.387 . S
H311 C307 0.950 . S
H312 C309 0.950 . S
C313 C304 1.390 . S
C313 H306 0.950 . S
C313 C310 1.387 . S
C314 C315 1.387 . S
C314 H318 0.950 . S
C314 C323 1.390 . S
C315 C314 1.387 . S
C315 C317 1.387 . S
H316 C323 0.950 . S
C317 C315 1.387 . S
C317 C319 1.390 . S
C317 H321 0.950 . S
H318 C314 0.950 . S
C319 C317 1.390 . S
C319 C320 1.387 . S
C319 H322 0.950 . S
C320 C319 1.387 . S
C320 C323 1.387 . S
H321 C317 0.950 . S
H322 C319 0.950 . S
C323 C314 1.390 . S
C323 H316 0.950 . S
C323 C320 1.387 . S
C324 C325 1.387 . S
C324 H328 0.950 . S
C324 C333 1.390 . S
C325 C324 1.387 . S
C325 C327 1.387 . S
H326 C333 0.950 . S
C327 C325 1.387 . S
C327 C329 1.390 . S
C327 H331 0.950 . S
H328 C324 0.950 . S
C329 C327 1.390 . S
C329 C330 1.387 . S
C329 H332 0.950 . S
C330 C329 1.387 . S
C330 C333 1.387 . S
H331 C327 0.950 . S
H332 C329 0.950 . S
C333 C324 1.390 . S
C333 H326 0.950 . S
C333 C330 1.387 . S
C334 C335 1.387 . S
C334 H338 0.950 . S
C334 C343 1.390 . S
C335 C334 1.387 . S
C335 C337 1.387 . S
H336 C343 0.950 . S
C337 C335 1.387 . S
C337 C339 1.390 . S
C337 H341 0.950 . S
H338 C334 0.950 . S
C339 C337 1.390 . S
C339 C340 1.387 . S
C339 H342 0.950 . S
C340 C339 1.387 . S
C340 C343 1.387 . S
H341 C337 0.950 . S
H342 C339 0.950 . S
C343 C334 1.390 . S
C343 H336 0.950 . S
C343 C340 1.387 . S
C344 C345 1.387 . S
C344 H348 0.950 . S
C344 C353 1.390 . S
C345 C344 1.387 . S
C345 C347 1.387 . S
H346 C353 0.950 . S
C347 C345 1.387 . S
C347 C349 1.390 . S
C347 H351 0.950 . S
H348 C344 0.950 . S
C349 C347 1.390 . S
C349 C350 1.387 . S
C349 H352 0.950 . S
C350 C349 1.387 . S
C350 C353 1.387 . S
H351 C347 0.950 . S
H352 C349 0.950 . S
C353 C344 1.390 . S
C353 H346 0.950 . S
C353 C350 1.387 . S
C354 C355 1.387 . S
C354 H358 0.950 . S
C354 C363 1.390 . S
C355 C354 1.387 . S
C355 C357 1.387 . S
H356 C363 0.950 . S
C357 C355 1.387 . S
C357 C359 1.390 . S
C357 H361 0.950 . S
H358 C354 0.950 . S
C359 C357 1.390 . S
C359 C360 1.387 . S
C359 H362 0.950 . S
C360 C359 1.387 . S
C360 C363 1.387 . S
H361 C357 0.950 . S
H362 C359 0.950 . S
C363 C354 1.390 . S
C363 H356 0.950 . S
C363 C360 1.387 . S
C364 C365 1.387 . S
C364 H368 0.950 . S
C364 C373 1.390 . S
C365 C364 1.387 . S
C365 C367 1.387 . S
H366 C373 0.950 . S
C367 C365 1.387 . S
C367 C369 1.390 . S
C367 H371 0.950 . S
H368 C364 0.950 . S
C369 C367 1.390 . S
C369 C370 1.387 . S
C369 H372 0.950 . S
C370 C369 1.387 . S
C370 C373 1.387 . S
H371 C367 0.950 . S
H372 C369 0.950 . S
C373 C364 1.390 . S
C373 H366 0.950 . S
C373 C370 1.387 . S
C374 C375 1.387 . S
C374 H378 0.950 . S
C374 C383 1.390 . S
C375 C374 1.387 . S
C375 C377 1.387 . S
H376 C383 0.950 . S
C377 C375 1.387 . S
C377 C379 1.390 . S
C377 H381 0.950 . S
H378 C374 0.950 . S
C379 C377 1.390 . S
C379 C380 1.387 . S
C379 H382 0.950 . S
C380 C379 1.387 . S
C380 C383 1.387 . S
H381 C377 0.950 . S
H382 C379 0.950 . S
C383 C374 1.390 . S
C383 H376 0.950 . S
C383 C380 1.387 . S
C384 C385 1.390 . S
C384 H388 0.950 . S
C384 C393 1.390 . S
C385 C384 1.390 . S
C385 C387 1.384 1_655 S
H386 C393 0.950 . S
C387 C385 1.384 1_455 S
C387 C389 1.390 . S
C387 H391 0.950 . S
H388 C384 0.950 . S
C389 C387 1.390 . S
C389 C390 1.387 . S
C389 H392 0.950 . S
C390 C389 1.387 . S
C390 C393 1.387 1_455 S
H391 C387 0.950 . S
H392 C389 0.950 . S
C393 C384 1.390 . S
C393 H386 0.950 . S
C393 C390 1.387 1_655 S
C394 C395 1.387 . S
C394 H398 0.950 . S
C394 C403 1.390 . S
C395 C394 1.387 . S
C395 C397 1.387 . S
H396 C403 0.950 . S
C397 C395 1.387 . S
C397 C399 1.390 . S
C397 H401 0.950 . S
H398 C394 0.950 . S
C399 C397 1.390 . S
C399 C400 1.387 . S
C399 H402 0.950 . S
C400 C399 1.387 . S
C400 C403 1.387 . S
H401 C397 0.950 . S
H402 C399 0.950 . S
C403 C394 1.390 . S
C403 H396 0.950 . S
C403 C400 1.387 . S
C404 C405 1.387 1_655 S
C404 H408 0.950 . S
C404 C413 1.390 . S
C405 C404 1.387 1_455 S
C405 C407 1.387 . S
H406 C413 0.950 . S
C407 C405 1.387 . S
C407 C409 1.390 . S
C407 H411 0.950 . S
H408 C404 0.950 . S
C409 C407 1.390 . S
C409 C410 1.384 1_455 S
C409 H412 0.950 . S
C410 C409 1.384 1_655 S
C410 C413 1.391 . S
H411 C407 0.950 . S
H412 C409 0.950 . S
C413 C404 1.390 . S
C413 H406 0.950 . S
C413 C410 1.391 . S
C414 C415 1.387 . S
C414 H418 0.950 . S
C414 C423 1.390 . S
C415 C414 1.387 . S
C415 C417 1.387 . S
H416 C423 0.950 . S
C417 C415 1.387 . S
C417 C419 1.390 . S
C417 H421 0.950 . S
H418 C414 0.950 . S
C419 C417 1.390 . S
C419 C420 1.387 . S
C419 H422 0.950 . S
C420 C419 1.387 . S
C420 C423 1.387 . S
H421 C417 0.950 . S
H422 C419 0.950 . S
C423 C414 1.390 . S
C423 H416 0.950 . S
C423 C420 1.387 . S
C424 C425 1.387 . S
C424 H428 0.950 . S
C424 C433 1.390 . S
C425 C424 1.387 . S
C425 C427 1.387 . S
H426 C433 0.950 . S
C427 C425 1.387 . S
C427 C429 1.390 . S
C427 H431 0.950 . S
H428 C424 0.950 . S
C429 C427 1.390 . S
C429 C430 1.387 . S
C429 H432 0.950 . S
C430 C429 1.387 . S
C430 C433 1.387 . S
H431 C427 0.950 . S
H432 C429 0.950 . S
C433 C424 1.390 . S
C433 H426 0.950 . S
C433 C430 1.387 . S
C434 C435 1.387 1_655 S
C434 H438 0.950 . S
C434 C443 1.390 . S
C435 C434 1.387 1_455 S
C435 C437 1.387 . S
H436 C443 0.950 . S
C437 C435 1.387 . S
C437 C439 1.390 . S
C437 H441 0.950 . S
H438 C434 0.950 . S
C439 C437 1.390 . S
C439 C440 1.387 . S
C439 H442 0.950 . S
C440 C439 1.387 . S
C440 C443 1.387 1_455 S
H441 C437 0.950 . S
H442 C439 0.950 . S
C443 C434 1.390 . S
C443 H436 0.950 . S
C443 C440 1.387 1_655 S
C444 C445 1.387 . S
C444 H448 0.950 . S
C444 C453 1.390 . S
C445 C444 1.387 . S
C445 C447 1.387 . S
H446 C453 0.950 . S
C447 C445 1.387 . S
C447 C449 1.390 . S
C447 H451 0.950 . S
H448 C444 0.950 . S
C449 C447 1.390 . S
C449 C450 1.387 . S
C449 H452 0.950 . S
C450 C449 1.387 . S
C450 C453 1.387 . S
H451 C447 0.950 . S
H452 C449 0.950 . S
C453 C444 1.390 . S
C453 H446 0.950 . S
C453 C450 1.387 . S
C454 C455 1.387 . S
C454 H458 0.950 . S
C454 C463 1.390 . S
C455 C454 1.387 . S
C455 C457 1.387 1_455 S
H456 C463 0.950 . S
C457 C455 1.387 1_655 S
C457 C459 1.390 . S
C457 H461 0.950 . S
H458 C454 0.950 . S
C459 C457 1.390 . S
C459 C460 1.387 1_655 S
C459 H462 0.950 . S
C460 C459 1.387 1_455 S
C460 C463 1.387 . S
H461 C457 0.950 . S
H462 C459 0.950 . S
C463 C454 1.390 . S
C463 H456 0.950 . S
C463 C460 1.387 . S
C265 N68 1.413 1_655 S
C270 N2 1.413 1_655 S
C275 N101 1.413 . S
C280 N35 1.413 . S
C285 N134 1.413 . S
C290 N200 1.413 . S
C295 N167 1.414 . S
C300 N233 1.414 . S
C305 C117 1.534 . S
C310 C18 1.534 . S
C315 C51 1.536 . S
C320 C84 1.536 . S
C325 C73 1.349 . S
C330 C40 1.349 . S
C335 C106 1.349 . S
C340 C7 1.349 . S
C345 C249 1.536 . S
C350 C150 1.536 . S
C355 C183 1.534 . S
C360 C216 1.534 . S
C365 C205 1.349 . S
C370 C172 1.349 . S
C375 C238 1.349 . S
C380 C139 1.349 . S
C385 N178 1.487 1_655 S
C390 C21 1.544 1_556 S
C395 C54 1.544 . S
C400 N145 1.489 . S
C405 C87 1.544 1_554 S
C410 N244 1.487 1_655 S
C415 N211 1.487 . S
C420 C120 1.544 . S
C425 N46 1.488 . S
C430 C153 1.544 1_556 S
C435 C186 1.544 . S
C440 N13 1.488 . S
C445 C219 1.544 1_554 S
C450 N112 1.488 . S
C455 C252 1.544 . S
C460 N79 1.487 . S
